# Generated by pormake.
# Topology eea, (3,6)-cn, num edge types: 1
# Building blocks:
#     Node 0, Type 0, BuildingBlock: CUQRIR_clean_linker_1, # of connection points: 3
#     Node 1, Type 0, BuildingBlock: CUQRIR_clean_linker_1, # of connection points: 3
#     Node 2, Type 0, BuildingBlock: CUQRIR_clean_linker_1, # of connection points: 3
#     Node 3, Type 0, BuildingBlock: CUQRIR_clean_linker_1, # of connection points: 3
#     Node 4, Type 0, BuildingBlock: CUQRIR_clean_linker_1, # of connection points: 3
#     Node 5, Type 0, BuildingBlock: CUQRIR_clean_linker_1, # of connection points: 3
#     Node 6, Type 0, BuildingBlock: CUQRIR_clean_linker_1, # of connection points: 3
#     Node 7, Type 0, BuildingBlock: CUQRIR_clean_linker_1, # of connection points: 3
#     Node 8, Type 0, BuildingBlock: CUQRIR_clean_linker_1, # of connection points: 3
#     Node 9, Type 0, BuildingBlock: CUQRIR_clean_linker_1, # of connection points: 3
#     Node 10, Type 0, BuildingBlock: CUQRIR_clean_linker_1, # of connection points: 3
#     Node 11, Type 0, BuildingBlock: CUQRIR_clean_linker_1, # of connection points: 3
#     Node 12, Type 0, BuildingBlock: CUQRIR_clean_linker_1, # of connection points: 3
#     Node 13, Type 0, BuildingBlock: CUQRIR_clean_linker_1, # of connection points: 3
#     Node 14, Type 0, BuildingBlock: CUQRIR_clean_linker_1, # of connection points: 3
#     Node 15, Type 0, BuildingBlock: CUQRIR_clean_linker_1, # of connection points: 3
#     Node 16, Type 0, BuildingBlock: CUQRIR_clean_linker_1, # of connection points: 3
#     Node 17, Type 0, BuildingBlock: CUQRIR_clean_linker_1, # of connection points: 3
#     Node 18, Type 1, BuildingBlock: KUMBOL_clean_sbu_0, # of connection points: 6
#     Node 19, Type 1, BuildingBlock: KUMBOL_clean_sbu_0, # of connection points: 6
#     Node 20, Type 1, BuildingBlock: KUMBOL_clean_sbu_0, # of connection points: 6
#     Node 21, Type 1, BuildingBlock: KUMBOL_clean_sbu_0, # of connection points: 6
#     Node 22, Type 1, BuildingBlock: KUMBOL_clean_sbu_0, # of connection points: 6
#     Node 23, Type 1, BuildingBlock: KUMBOL_clean_sbu_0, # of connection points: 6
#     Node 24, Type 1, BuildingBlock: KUMBOL_clean_sbu_0, # of connection points: 6
#     Node 25, Type 1, BuildingBlock: KUMBOL_clean_sbu_0, # of connection points: 6
#     Node 26, Type 1, BuildingBlock: KUMBOL_clean_sbu_0, # of connection points: 6
#     Edge 27, Type (0, 1), BuildingBlock: XUDNAN_clean_linker_2, # of connection points: 2
#     Edge 28, Type (0, 1), BuildingBlock: XUDNAN_clean_linker_2, # of connection points: 2
#     Edge 29, Type (0, 1), BuildingBlock: XUDNAN_clean_linker_2, # of connection points: 2
#     Edge 30, Type (0, 1), BuildingBlock: XUDNAN_clean_linker_2, # of connection points: 2
#     Edge 31, Type (0, 1), BuildingBlock: XUDNAN_clean_linker_2, # of connection points: 2
#     Edge 32, Type (0, 1), BuildingBlock: XUDNAN_clean_linker_2, # of connection points: 2
#     Edge 33, Type (0, 1), BuildingBlock: XUDNAN_clean_linker_2, # of connection points: 2
#     Edge 34, Type (0, 1), BuildingBlock: XUDNAN_clean_linker_2, # of connection points: 2
#     Edge 35, Type (0, 1), BuildingBlock: XUDNAN_clean_linker_2, # of connection points: 2
#     Edge 36, Type (0, 1), BuildingBlock: XUDNAN_clean_linker_2, # of connection points: 2
#     Edge 37, Type (0, 1), BuildingBlock: XUDNAN_clean_linker_2, # of connection points: 2
#     Edge 38, Type (0, 1), BuildingBlock: XUDNAN_clean_linker_2, # of connection points: 2
#     Edge 39, Type (0, 1), BuildingBlock: XUDNAN_clean_linker_2, # of connection points: 2
#     Edge 40, Type (0, 1), BuildingBlock: XUDNAN_clean_linker_2, # of connection points: 2
#     Edge 41, Type (0, 1), BuildingBlock: XUDNAN_clean_linker_2, # of connection points: 2
#     Edge 42, Type (0, 1), BuildingBlock: XUDNAN_clean_linker_2, # of connection points: 2
#     Edge 43, Type (0, 1), BuildingBlock: XUDNAN_clean_linker_2, # of connection points: 2
#     Edge 44, Type (0, 1), BuildingBlock: XUDNAN_clean_linker_2, # of connection points: 2
#     Edge 45, Type (0, 1), BuildingBlock: XUDNAN_clean_linker_2, # of connection points: 2
#     Edge 46, Type (0, 1), BuildingBlock: XUDNAN_clean_linker_2, # of connection points: 2
#     Edge 47, Type (0, 1), BuildingBlock: XUDNAN_clean_linker_2, # of connection points: 2
#     Edge 48, Type (0, 1), BuildingBlock: XUDNAN_clean_linker_2, # of connection points: 2
#     Edge 49, Type (0, 1), BuildingBlock: XUDNAN_clean_linker_2, # of connection points: 2
#     Edge 50, Type (0, 1), BuildingBlock: XUDNAN_clean_linker_2, # of connection points: 2
#     Edge 51, Type (0, 1), BuildingBlock: XUDNAN_clean_linker_2, # of connection points: 2
#     Edge 52, Type (0, 1), BuildingBlock: XUDNAN_clean_linker_2, # of connection points: 2
#     Edge 53, Type (0, 1), BuildingBlock: XUDNAN_clean_linker_2, # of connection points: 2
#     Edge 54, Type (0, 1), BuildingBlock: XUDNAN_clean_linker_2, # of connection points: 2
#     Edge 55, Type (0, 1), BuildingBlock: XUDNAN_clean_linker_2, # of connection points: 2
#     Edge 56, Type (0, 1), BuildingBlock: XUDNAN_clean_linker_2, # of connection points: 2
#     Edge 57, Type (0, 1), BuildingBlock: XUDNAN_clean_linker_2, # of connection points: 2
#     Edge 58, Type (0, 1), BuildingBlock: XUDNAN_clean_linker_2, # of connection points: 2
#     Edge 59, Type (0, 1), BuildingBlock: XUDNAN_clean_linker_2, # of connection points: 2
#     Edge 60, Type (0, 1), BuildingBlock: XUDNAN_clean_linker_2, # of connection points: 2
#     Edge 61, Type (0, 1), BuildingBlock: XUDNAN_clean_linker_2, # of connection points: 2
#     Edge 62, Type (0, 1), BuildingBlock: XUDNAN_clean_linker_2, # of connection points: 2
#     Edge 63, Type (0, 1), BuildingBlock: XUDNAN_clean_linker_2, # of connection points: 2
#     Edge 64, Type (0, 1), BuildingBlock: XUDNAN_clean_linker_2, # of connection points: 2
#     Edge 65, Type (0, 1), BuildingBlock: XUDNAN_clean_linker_2, # of connection points: 2
#     Edge 66, Type (0, 1), BuildingBlock: XUDNAN_clean_linker_2, # of connection points: 2
#     Edge 67, Type (0, 1), BuildingBlock: XUDNAN_clean_linker_2, # of connection points: 2
#     Edge 68, Type (0, 1), BuildingBlock: XUDNAN_clean_linker_2, # of connection points: 2
#     Edge 69, Type (0, 1), BuildingBlock: XUDNAN_clean_linker_2, # of connection points: 2
#     Edge 70, Type (0, 1), BuildingBlock: XUDNAN_clean_linker_2, # of connection points: 2
#     Edge 71, Type (0, 1), BuildingBlock: XUDNAN_clean_linker_2, # of connection points: 2
#     Edge 72, Type (0, 1), BuildingBlock: XUDNAN_clean_linker_2, # of connection points: 2
#     Edge 73, Type (0, 1), BuildingBlock: XUDNAN_clean_linker_2, # of connection points: 2
#     Edge 74, Type (0, 1), BuildingBlock: XUDNAN_clean_linker_2, # of connection points: 2
#     Edge 75, Type (0, 1), BuildingBlock: XUDNAN_clean_linker_2, # of connection points: 2
#     Edge 76, Type (0, 1), BuildingBlock: XUDNAN_clean_linker_2, # of connection points: 2
#     Edge 77, Type (0, 1), BuildingBlock: XUDNAN_clean_linker_2, # of connection points: 2
#     Edge 78, Type (0, 1), BuildingBlock: XUDNAN_clean_linker_2, # of connection points: 2
#     Edge 79, Type (0, 1), BuildingBlock: XUDNAN_clean_linker_2, # of connection points: 2
#     Edge 80, Type (0, 1), BuildingBlock: XUDNAN_clean_linker_2, # of connection points: 2
# Relax obj value: 0.040
# Max RMSD: 0.206
# Mean RMSD: 0.147
data_MOF--net-eea--node1-KUMBOL_clean_sbu_0--node2-CUQRIR_clean_linker_1--edge1-XUDNAN_clean_linker_2
_symmetry_space_group_name_H-M    P1
_symmetry_Int_Tables_number       1
_symmetry_cell_setting            triclinic
loop_
_symmetry_equiv_pos_as_xyz
'x, y, z'
_cell_length_a     47.768386
_cell_length_b     50.967035
_cell_length_c     63.144746
_cell_angle_alpha  83.319981
_cell_angle_beta   90.089026
_cell_angle_gamma 118.80781
loop_
_atom_site_label
_atom_site_type_symbol
_atom_site_fract_x
_atom_site_fract_y
_atom_site_fract_z
_atom_type_partial_charge
C0 C 0.22426 0.10643 0.41453 0.0
N1 N 0.23119 0.12872 0.42685 0.0
N2 N 0.2332 0.08636 0.42379 0.0
C3 C 0.21018 0.10518 0.39309 0.0
C4 C 0.24556 0.09726 0.44223 0.0
N5 N 0.24422 0.12283 0.44413 0.0
C6 C 0.2602 0.08359 0.45797 0.0
H7 H 0.19145 0.11211 0.39342 0.0
H8 H 0.19982 0.08252 0.38793 0.0
H9 H 0.22937 0.12122 0.38095 0.0
H10 H 0.28656 0.09576 0.45468 0.0
H11 H 0.25096 0.0593 0.45672 0.0
H12 H 0.25517 0.08581 0.47458 0.0
C13 C 0.90946 0.12437 0.41355 0.0
N14 N 0.92214 0.14709 0.42598 0.0
N15 N 0.87948 0.10298 0.42127 0.0
C16 C 0.92677 0.12259 0.39438 0.0
C17 C 0.87444 0.11374 0.43871 0.0
N18 N 0.90005 0.14049 0.44152 0.0
C19 C 0.84496 0.09733 0.45375 0.0
H20 H 0.91 0.10694 0.38385 0.0
H21 H 0.94345 0.1142 0.39988 0.0
H22 H 0.94106 0.14531 0.38511 0.0
H23 H 0.85006 0.0855 0.46785 0.0
H24 H 0.82435 0.08054 0.44593 0.0
H25 H 0.83837 0.11349 0.45951 0.0
C26 C 0.92093 0.8462 0.42602 0.0
N27 N 0.93289 0.83022 0.43753 0.0
N28 N 0.89073 0.83725 0.43342 0.0
C29 C 0.93686 0.86723 0.40564 0.0
C30 C 0.88472 0.81515 0.44971 0.0
N31 N 0.91029 0.81075 0.45215 0.0
C32 C 0.85344 0.79698 0.46277 0.0
H33 H 0.95039 0.8907 0.4095 0.0
H34 H 0.91899 0.86621 0.39407 0.0
H35 H 0.95378 0.86169 0.39784 0.0
H36 H 0.839 0.77538 0.45624 0.0
H37 H 0.8397 0.80943 0.46234 0.0
H38 H 0.85777 0.79149 0.47957 0.0
C39 C 0.10082 0.2078 0.65288 0.0
N40 N 0.12545 0.22063 0.63789 0.0
N41 N 0.0748 0.20859 0.64517 0.0
C42 C 0.10389 0.19948 0.67609 0.0
C43 C 0.08446 0.22193 0.62475 0.0
N44 N 0.11535 0.2296 0.6203 0.0
C45 C 0.06549 0.23237 0.61048 0.0
H46 H 0.08001 0.18538 0.68466 0.0
H47 H 0.11717 0.22046 0.68358 0.0
H48 H 0.11767 0.18706 0.67772 0.0
H49 H 0.03957 0.21931 0.61544 0.0
H50 H 0.06913 0.2299 0.59363 0.0
H51 H 0.07397 0.25664 0.61142 0.0
C52 C 0.79498 0.90679 0.64613 0.0
N53 N 0.7883 0.88798 0.63099 0.0
N54 N 0.78932 0.92996 0.63926 0.0
C55 C 0.8072 0.90258 0.6676 0.0
C56 C 0.77862 0.92441 0.61954 0.0
N57 N 0.77774 0.89889 0.61455 0.0
C58 C 0.76864 0.94379 0.60522 0.0
H59 H 0.79546 0.8783 0.67417 0.0
H60 H 0.80348 0.91528 0.67932 0.0
H61 H 0.83335 0.91106 0.66563 0.0
H62 H 0.79001 0.96188 0.59552 0.0
H63 H 0.75859 0.9546 0.61478 0.0
H64 H 0.7507 0.93043 0.59418 0.0
C65 C 0.11523 0.92216 0.648 0.0
N66 N 0.10033 0.89741 0.63752 0.0
N67 N 0.14503 0.94165 0.63886 0.0
C68 C 0.10016 0.92817 0.66641 0.0
C69 C 0.14767 0.92756 0.62263 0.0
N70 N 0.1208 0.90084 0.6218 0.0
C71 C 0.17593 0.94069 0.60665 0.0
H72 H 0.08851 0.94151 0.66011 0.0
H73 H 0.11838 0.94146 0.67728 0.0
H74 H 0.08187 0.90675 0.67565 0.0
H75 H 0.19792 0.9575 0.61334 0.0
H76 H 0.17086 0.95193 0.5922 0.0
H77 H 0.18001 0.92254 0.60172 0.0
C78 C 0.8669 0.43337 0.75007 0.0
N79 N 0.88049 0.45693 0.76166 0.0
N80 N 0.87103 0.40998 0.75902 0.0
C81 C 0.84724 0.43217 0.73124 0.0
C82 C 0.88758 0.42024 0.7764 0.0
N83 N 0.89317 0.4485 0.77802 0.0
C84 C 0.89839 0.40267 0.79187 0.0
H85 H 0.83416 0.44487 0.73313 0.0
H86 H 0.82991 0.40852 0.72915 0.0
H87 H 0.86349 0.44288 0.71661 0.0
H88 H 0.92151 0.41803 0.79822 0.0
H89 H 0.90105 0.38544 0.78415 0.0
H90 H 0.88031 0.3911 0.80553 0.0
C91 C 0.57697 0.45753 0.74604 0.0
N92 N 0.59 0.48163 0.75716 0.0
N93 N 0.54988 0.43453 0.75655 0.0
C94 C 0.59049 0.45652 0.72487 0.0
C95 C 0.54702 0.44563 0.77448 0.0
N96 N 0.57125 0.4741 0.7749 0.0
C97 C 0.51928 0.4295 0.79094 0.0
H98 H 0.57981 0.46476 0.71192 0.0
H99 H 0.58457 0.43307 0.72296 0.0
H100 H 0.61683 0.47122 0.72313 0.0
H101 H 0.49742 0.41312 0.78389 0.0
H102 H 0.51412 0.44581 0.79795 0.0
H103 H 0.52552 0.4171 0.80404 0.0
C104 C 0.58015 0.15743 0.74325 0.0
N105 N 0.58809 0.13963 0.75661 0.0
N106 N 0.55463 0.15819 0.75171 0.0
C107 C 0.59455 0.17073 0.7208 0.0
C108 C 0.54745 0.14034 0.77067 0.0
N109 N 0.56768 0.12894 0.7737 0.0
C110 C 0.51871 0.13172 0.78535 0.0
H111 H 0.61693 0.19232 0.72136 0.0
H112 H 0.57817 0.17542 0.71057 0.0
H113 H 0.60071 0.15529 0.71341 0.0
H114 H 0.49857 0.11013 0.78162 0.0
H115 H 0.51123 0.14933 0.78323 0.0
H116 H 0.52406 0.12834 0.80225 0.0
C117 C 0.75924 0.50446 0.98335 0.0
N118 N 0.78121 0.51747 0.96656 0.0
N119 N 0.73146 0.50395 0.9783 0.0
C120 C 0.76684 0.49785 1.00588 0.0
C121 C 0.7371 0.51622 0.95753 0.0
N122 N 0.7675 0.52516 0.95047 0.0
C123 C 0.71406 0.52332 0.94518 0.0
H124 H 0.7763 0.48175 1.00642 0.0
H125 H 0.74532 0.48788 0.0171 0.0
H126 H 0.7856 0.51901 1.01122 0.0
H127 H 0.71589 0.54454 0.94955 0.0
H128 H 0.68913 0.50502 0.94942 0.0
H129 H 0.71938 0.52609 0.92771 0.0
C130 C 0.45381 0.24403 0.97643 0.0
N131 N 0.44575 0.22044 0.9651 0.0
N132 N 0.44299 0.26274 0.96753 0.0
C133 C 0.47435 0.25011 0.99533 0.0
C134 C 0.42776 0.24952 0.95048 0.0
N135 N 0.42952 0.22404 0.94885 0.0
C136 C 0.41061 0.26137 0.93555 0.0
H137 H 0.4747 0.22947 1.00276 0.0
H138 H 0.46548 0.25849 1.00768 0.0
H139 H 0.49913 0.26784 0.98999 0.0
H140 H 0.42679 0.27515 0.92131 0.0
H141 H 0.40345 0.27577 0.94345 0.0
H142 H 0.38903 0.24245 0.93005 0.0
C143 C 0.78745 0.25753 0.98554 0.0
N144 N 0.77186 0.23476 0.97336 0.0
N145 N 0.81673 0.27823 0.97629 0.0
C146 C 0.77527 0.25844 1.00722 0.0
C147 C 0.81838 0.2672 0.95806 0.0
N148 N 0.79144 0.24078 0.95634 0.0
C149 C 0.84532 0.28365 0.94102 0.0
H150 H 0.76258 0.27187 1.0054 0.0
H151 H 0.79541 0.26948 0.01757 0.0
H152 H 0.75838 0.23536 0.01507 0.0
H153 H 0.86309 0.27566 0.94364 0.0
H154 H 0.85754 0.30837 0.94159 0.0
H155 H 0.83631 0.27918 0.9249 0.0
C156 C 0.56675 0.78155 0.07408 0.0
N157 N 0.57532 0.80623 0.08431 0.0
N158 N 0.57862 0.76392 0.08339 0.0
C159 C 0.54577 0.77384 0.05546 0.0
C160 C 0.59522 0.77905 0.09944 0.0
N161 N 0.59342 0.80476 0.09995 0.0
C162 C 0.61115 0.76751 0.11575 0.0
H163 H 0.52078 0.75749 0.06142 0.0
H164 H 0.55347 0.76305 0.04424 0.0
H165 H 0.54645 0.79426 0.04658 0.0
H166 H 0.60937 0.74587 0.11251 0.0
H167 H 0.6002 0.76462 0.13193 0.0
H168 H 0.6369 0.78421 0.11565 0.0
C169 C 0.24324 0.80169 0.07608 0.0
N170 N 0.25815 0.82125 0.09048 0.0
N171 N 0.21239 0.78179 0.08297 0.0
C172 C 0.25955 0.8009 0.05597 0.0
C173 C 0.20907 0.79019 0.10198 0.0
N174 N 0.23668 0.81415 0.10654 0.0
C175 C 0.17901 0.77441 0.11646 0.0
H176 H 0.27769 0.82409 0.04906 0.0
H177 H 0.24235 0.79017 0.04383 0.0
H178 H 0.27199 0.78754 0.05995 0.0
H179 H 0.18013 0.75666 0.12781 0.0
H180 H 0.15752 0.76354 0.10716 0.0
H181 H 0.17674 0.79046 0.12584 0.0
C182 C 0.25714 0.50763 0.08182 0.0
N183 N 0.27135 0.49557 0.09513 0.0
N184 N 0.22697 0.4983 0.08941 0.0
C185 C 0.27156 0.52609 0.0604 0.0
C186 C 0.22313 0.47987 0.10767 0.0
N187 N 0.25006 0.47782 0.11101 0.0
C188 C 0.19403 0.4659 0.12303 0.0
H189 H 0.28582 0.55024 0.06261 0.0
H190 H 0.25273 0.52366 0.04925 0.0
H191 H 0.28769 0.51918 0.05309 0.0
H192 H 0.17736 0.44282 0.11937 0.0
H193 H 0.18135 0.47935 0.12152 0.0
H194 H 0.20075 0.46415 0.13976 0.0
C195 C 0.42881 0.85903 0.30689 0.0
N196 N 0.45533 0.87425 0.29348 0.0
N197 N 0.40779 0.86912 0.30207 0.0
C198 C 0.42526 0.83727 0.32638 0.0
C199 C 0.42262 0.89124 0.28544 0.0
N200 N 0.45164 0.89448 0.28034 0.0
C201 C 0.40874 0.90945 0.27397 0.0
H202 H 0.41459 0.81413 0.32185 0.0
H203 H 0.40944 0.83736 0.33917 0.0
H204 H 0.44882 0.84294 0.33287 0.0
H205 H 0.41721 0.93079 0.28099 0.0
H206 H 0.38219 0.89686 0.27553 0.0
H207 H 0.41695 0.91538 0.25679 0.0
C208 C 0.12185 0.57306 0.31593 0.0
N209 N 0.11514 0.55044 0.30395 0.0
N210 N 0.10662 0.58881 0.30913 0.0
C211 C 0.14513 0.58128 0.33327 0.0
C212 C 0.08999 0.57451 0.29278 0.0
N213 N 0.09506 0.55121 0.28958 0.0
C214 C 0.07117 0.58516 0.2785 0.0
H215 H 0.13825 0.59116 0.34566 0.0
H216 H 0.16925 0.59839 0.32617 0.0
H217 H 0.14639 0.5612 0.34098 0.0
H218 H 0.08464 0.59569 0.26279 0.0
H219 H 0.06656 0.60173 0.2856 0.0
H220 H 0.04787 0.56571 0.2757 0.0
C221 C 0.45655 0.59118 0.31052 0.0
N222 N 0.44092 0.56429 0.30222 0.0
N223 N 0.48585 0.6097 0.30031 0.0
C224 C 0.44206 0.60112 0.32699 0.0
C225 C 0.48689 0.594 0.28474 0.0
N226 N 0.45997 0.5668 0.28569 0.0
C227 C 0.51354 0.6062 0.26751 0.0
H228 H 0.44581 0.62404 0.3217 0.0
H229 H 0.45381 0.60173 0.34224 0.0
H230 H 0.41581 0.58651 0.32953 0.0
H231 H 0.52862 0.59531 0.27095 0.0
H232 H 0.52872 0.63104 0.26662 0.0
H233 H 0.50369 0.60081 0.2517 0.0
Gd234 Gd 0.53432 0.03595 0.05436 0.0
Gd235 Gd 0.50309 1.0047 1.0043 0.0
C236 C 0.40679 0.91838 1.009 0.0
C237 C 0.42238 0.88125 1.00166 0.0
C238 C 0.46262 0.93391 1.00106 0.0
C239 C 0.43922 0.94094 1.0066 0.0
C240 C 0.45438 0.90417 0.99794 0.0
C241 C 0.39862 0.88834 1.00718 0.0
C242 C 0.38348 0.92689 0.01225 0.0
C243 C 0.3927 0.95739 0.01226 0.0
N244 N 0.4479 0.97028 1.0079 0.0
C245 C 0.42518 0.97892 1.00999 0.0
H246 H 0.43197 1.00235 1.01028 0.0
C247 C 0.51632 0.95184 0.98865 0.0
N248 N 0.49326 0.95669 0.99734 0.0
C249 C 0.50936 0.92264 0.9855 0.0
C250 C 0.47838 0.89862 0.99048 0.0
H251 H 0.54032 0.97041 0.98495 0.0
H252 H 0.37388 0.87062 1.00929 0.0
H253 H 0.60413 0.03639 0.04654 0.0
H254 H 0.3583 0.91025 0.0141 0.0
H255 H 0.37483 0.96435 0.01415 0.0
H256 H 0.4156 0.85816 0.99962 0.0
H257 H 0.49908 0.07134 0.07451 0.0
H258 H 0.68037 0.12658 0.04689 0.0
H259 H 0.66176 0.07274 0.04382 0.0
H260 H 0.6264 0.18069 0.06363 0.0
H261 H 0.52788 0.91868 0.97924 0.0
H262 H 0.47302 0.87606 0.98792 0.0
H263 H 0.66689 0.16697 0.05336 0.0
H264 H 0.5133 0.12287 0.08177 0.0
N265 N 0.58989 0.06919 0.05089 0.0
C266 C 0.65497 0.11067 0.04806 0.0
C267 C 0.64456 0.0803 0.04642 0.0
C268 C 0.63252 0.11997 0.05196 0.0
C269 C 0.59975 0.0983 0.05368 0.0
C270 C 0.61177 0.05971 0.04798 0.0
N271 N 0.5462 0.08383 0.06292 0.0
C272 C 0.57714 0.1059 0.0598 0.0
C273 C 0.53147 0.11844 0.07551 0.0
C274 C 0.56299 0.14176 0.07142 0.0
C275 C 0.52353 0.08932 0.0715 0.0
C276 C 0.58642 0.13554 0.06385 0.0
H277 H 0.56914 0.16426 0.07467 0.0
O278 O 0.51862 0.02841 0.08794 0.0
O279 O 0.49383 1.0009 0.03934 0.0
O280 O 0.48853 0.04038 1.00975 0.0
O281 O 0.5237 0.06925 0.03404 0.0
O282 O 0.48133 0.01676 0.06381 0.0
O283 O 0.55254 0.01471 0.07799 0.0
O284 O 0.52456 0.01726 0.97193 0.0
O285 O 0.54266 0.04063 0.01935 0.0
O286 O 0.54786 0.99941 0.04862 0.0
O287 O 0.51089 0.97062 0.0254 0.0
O288 O 0.55674 0.02596 0.99498 0.0
O289 O 0.47947 0.01623 0.97819 0.0
C290 C 0.46991 0.99764 0.05025 0.0
C291 C 0.61881 0.1577 0.06083 0.0
C292 C 0.64186 0.1499 0.05496 0.0
C293 C 0.53778 0.01785 0.09405 0.0
C294 C 0.55736 0.03043 0.11205 0.0
C295 C 0.58733 0.05657 0.10858 0.0
C296 C 0.54632 0.0157 0.13292 0.0
C297 C 0.5651 0.02697 0.1503 0.0
C298 C 0.60604 0.06787 0.12568 0.0
C299 C 0.59509 0.0532 0.14643 0.0
C300 C 0.50264 0.06516 0.01932 0.0
C301 C 0.56713 0.04535 1.00841 0.0
C302 C 0.50032 0.01878 0.96362 0.0
C303 C 0.48765 1.00144 0.94549 0.0
C304 C 0.46503 0.97073 0.94925 0.0
C305 C 0.50009 0.01484 0.92449 0.0
C306 C 0.49109 0.99727 0.90739 0.0
C307 C 0.45676 0.95299 0.93278 0.0
C308 C 0.47015 0.9659 0.91214 0.0
C309 C 0.53192 0.97407 0.03988 0.0
H310 H 0.59647 0.06812 0.0927 0.0
H311 H 0.52301 0.99566 0.1356 0.0
H312 H 0.62921 0.08798 0.12284 0.0
H313 H 0.61027 0.06221 0.1594 0.0
H314 H 0.45409 0.96031 0.96496 0.0
H315 H 0.51651 0.03887 0.92172 0.0
H316 H 0.44007 0.92904 0.93605 0.0
H317 H 0.46385 0.951 0.90001 0.0
Gd318 Gd 0.99302 0.5214 0.05271 0.0
Gd319 Gd 0.03572 0.54474 0.99853 0.0
C320 C 0.12846 0.53904 0.99292 0.0
C321 C 0.16874 0.59193 0.9855 0.0
C322 C 0.11227 0.57745 0.98909 0.0
C323 C 0.10434 0.54751 0.99311 0.0
C324 C 0.14447 0.60002 0.98458 0.0
C325 C 0.16073 0.56145 0.9897 0.0
C326 C 0.11936 0.50832 0.99541 0.0
C327 C 0.08693 0.48703 0.99711 0.0
N328 N 0.0729 0.52658 0.99619 0.0
C329 C 0.06397 0.49661 0.99715 0.0
H330 H 0.03927 0.47975 0.99826 0.0
C331 C 0.09448 0.61311 0.98088 0.0
N332 N 0.08821 0.58433 0.98825 0.0
C333 C 0.12599 0.63636 0.97637 0.0
C334 C 0.15119 0.62988 0.97859 0.0
H335 H 0.07504 0.61825 0.97926 0.0
H336 H 0.17959 0.55539 0.98981 0.0
H337 H 0.98612 0.58426 0.05206 0.0
H338 H 0.13711 0.50087 0.9954 0.0
H339 H 0.07955 0.46318 0.99847 0.0
H340 H 0.19365 0.60896 0.98237 0.0
H341 H 0.95878 0.44738 0.06932 0.0
H342 H 0.8871 0.55784 0.06201 0.0
H343 H 0.94356 0.59785 0.05518 0.0
H344 H 0.83671 0.4499 0.0765 0.0
H345 H 0.13081 0.65924 0.97122 0.0
H346 H 0.1756 0.64789 0.97501 0.0
H347 H 0.8474 0.50257 0.07002 0.0
H348 H 0.90454 0.40436 0.07941 0.0
N349 N 0.95422 0.53682 0.05633 0.0
C350 C 0.90573 0.55169 0.06058 0.0
C351 C 0.93757 0.57432 0.0568 0.0
C352 C 0.89842 0.52138 0.06318 0.0
C353 C 0.92354 0.5146 0.06102 0.0
C354 C 0.96169 0.56645 0.05505 0.0
N355 N 0.94258 0.47965 0.06367 0.0
C356 C 0.91753 0.48505 0.06481 0.0
C357 C 0.90784 0.42693 0.0753 0.0
C358 C 0.88155 0.43191 0.07559 0.0
C359 C 0.93846 0.45128 0.06968 0.0
C360 C 0.88626 0.46133 0.07072 0.0
H361 H 0.85786 0.41305 0.08008 0.0
O362 O 1.00236 0.50245 0.08291 0.0
O363 O 0.03522 0.53009 0.0328 0.0
O364 O 1.00076 0.49371 1.00516 0.0
O365 O 0.96257 0.48578 0.03187 0.0
O366 O 0.01725 0.49247 0.05533 0.0
O367 O 0.00797 0.54757 0.07927 0.0
O368 O 0.01248 0.51699 0.97325 0.0
O369 O 0.99403 0.5378 0.01848 0.0
O370 O 0.02849 0.57224 0.04826 0.0
O371 O 0.06268 0.58309 0.01797 0.0
O372 O 0.01425 0.57582 0.99635 0.0
O373 O 0.03584 0.56543 0.96647 0.0
C374 C 0.04007 0.50916 0.041 0.0
C375 C 0.86095 0.46782 0.07213 0.0
C376 C 0.86704 0.49781 0.06845 0.0
C377 C 0.00913 0.5262 0.09218 0.0
C378 C 0.99583 0.52097 0.11428 0.0
C379 C 0.96537 0.51756 0.11828 0.0
C380 C 0.01455 0.52088 0.13156 0.0
C381 C 1.0035 0.51843 0.15289 0.0
C382 C 0.954 0.51482 0.1392 0.0
C383 C 0.9729 0.5156 0.1563 0.0
C384 C 0.97259 0.47673 0.0161 0.0
C385 C 0.99129 0.56025 1.01079 0.0
C386 C 0.01853 0.54004 0.95907 0.0
C387 C 0.99205 0.53833 0.94611 0.0
C388 C 0.97145 0.54837 0.95313 0.0
C389 C 0.98836 0.52826 0.92594 0.0
C390 C 0.96382 0.52767 0.91321 0.0
C391 C 0.94718 0.54784 0.94062 0.0
C392 C 0.9431 0.53724 0.92087 0.0
C393 C 0.05448 0.59044 0.03549 0.0
H394 H 0.95062 0.51751 0.10522 0.0
H395 H 0.03777 0.52288 0.1282 0.0
H396 H 0.93062 0.51264 0.14216 0.0
H397 H 0.96357 0.51467 0.17212 0.0
H398 H 0.97448 0.55722 0.96805 0.0
H399 H 1.00457 0.52105 0.92012 0.0
H400 H 0.9316 0.55585 0.94621 0.0
H401 H 0.92427 0.5373 0.91129 0.0
Gd402 Gd 0.50894 0.52567 1.00491 0.0
Gd403 Gd 0.50913 0.49083 0.06015 0.0
C404 C 0.596 0.48162 0.08061 0.0
C405 C 0.57461 0.42717 0.08508 0.0
C406 C 0.54045 0.44893 0.07447 0.0
C407 C 0.56589 0.4776 0.07459 0.0
C408 C 0.54425 0.42332 0.08027 0.0
C409 C 0.60045 0.45629 0.0853 0.0
C410 C 0.62029 0.51082 0.08262 0.0
C411 C 0.61374 0.53486 0.07963 0.0
N412 N 0.56052 0.50144 0.07038 0.0
C413 C 0.5834 0.52966 0.07376 0.0
H414 H 0.5787 0.54845 0.07132 0.0
C415 C 0.48455 0.41839 0.07322 0.0
N416 N 0.51139 0.44609 0.07022 0.0
C417 C 0.48707 0.39226 0.07875 0.0
C418 C 0.51714 0.39469 0.08192 0.0
H419 H 0.4613 0.4165 0.07065 0.0
H420 H 0.62351 0.45894 0.08971 0.0
H421 H 0.4336 0.46881 0.99966 0.0
H422 H 0.64379 0.5149 0.08718 0.0
H423 H 0.63209 0.55742 0.08169 0.0
H424 H 0.57812 0.40779 0.08935 0.0
H425 H 0.5605 0.59878 0.98811 0.0
H426 H 0.37285 0.50831 0.98937 0.0
H427 H 0.38013 0.46321 0.99474 0.0
H428 H 0.44617 0.61448 0.97866 0.0
H429 H 0.46584 0.37029 0.08054 0.0
H430 H 0.51902 0.37443 0.08631 0.0
H431 H 0.39767 0.56476 0.98366 0.0
H432 H 0.55842 0.64587 0.9771 0.0
N433 N 0.45678 0.5168 0.99819 0.0
C434 C 0.39654 0.511 0.99162 0.0
C435 C 0.40056 0.48549 0.99458 0.0
C436 C 0.42331 0.53972 0.99063 0.0
C437 C 0.45361 0.54198 0.99379 0.0
C438 C 0.43111 0.48884 0.9974 0.0
N439 N 0.50996 0.57151 0.99306 0.0
C440 C 0.48098 0.5701 0.99107 0.0
C441 C 0.53647 0.62475 0.98111 0.0
C442 C 0.50693 0.6241 0.98041 0.0
C443 C 0.53757 0.59803 0.98721 0.0
C444 C 0.47868 0.5965 0.98501 0.0
H445 H 0.50617 0.64487 0.9757 0.0
O446 O 0.53741 0.51498 0.98414 0.0
O447 O 0.53546 0.51334 0.02883 0.0
O448 O 0.52662 0.54145 0.05905 0.0
O449 O 0.52069 0.56283 0.02539 0.0
O450 O 0.56174 0.55392 1.00927 0.0
O451 O 0.5044 0.52823 0.97035 0.0
O452 O 0.47297 0.47021 0.08662 0.0
O453 O 0.48342 0.50553 0.03688 0.0
O454 O 0.48447 0.47443 1.0079 0.0
O455 O 0.50591 0.45876 0.0369 0.0
O456 O 0.45618 0.46508 0.05563 0.0
O457 O 0.51636 0.51196 0.08919 0.0
C458 C 0.56316 0.53547 0.02463 0.0
C459 C 0.44842 0.5944 0.98303 0.0
C460 C 0.42079 0.56608 0.98587 0.0
C461 C 0.52651 0.5212 0.96653 0.0
C462 C 0.55048 0.53986 0.94868 0.0
C463 C 0.57702 0.56735 0.95195 0.0
C464 C 0.54714 0.53023 0.92824 0.0
C465 C 0.56987 0.54844 0.9112 0.0
C466 C 0.59951 0.58531 0.93516 0.0
C467 C 0.59589 0.57607 0.91491 0.0
C468 C 0.5273 0.56411 0.04579 0.0
C469 C 0.455 0.48527 0.04184 0.0
C470 C 0.48947 0.49076 0.09882 0.0
C471 C 0.49045 0.48009 0.12145 0.0
C472 C 0.49961 0.458 0.12688 0.0
C473 C 0.48165 0.49184 0.13784 0.0
C474 C 0.48147 0.48128 0.15964 0.0
C475 C 0.49953 0.44741 0.14828 0.0
C476 C 0.4904 0.45872 0.1645 0.0
C477 C 0.49246 0.45504 0.01827 0.0
H478 H 0.58043 0.57491 0.96752 0.0
H479 H 0.52679 0.50898 0.92553 0.0
H480 H 0.61982 0.60655 0.93784 0.0
H481 H 0.61356 0.59048 0.90208 0.0
H482 H 0.50659 0.44879 0.11458 0.0
H483 H 0.4752 0.50935 0.1335 0.0
H484 H 0.50634 0.43011 0.15233 0.0
H485 H 0.48988 0.44934 0.18087 0.0
Gd486 Gd 0.19699 0.36365 0.39387 0.0
Gd487 Gd 0.17488 0.33647 0.34253 0.0
C488 C 0.08625 0.24511 0.3396 0.0
C489 C 0.10948 0.2139 0.33156 0.0
C490 C 0.14384 0.26686 0.33527 0.0
C491 C 0.11728 0.26983 0.33981 0.0
C492 C 0.14022 0.23909 0.33049 0.0
C493 C 0.08252 0.21692 0.33606 0.0
C494 C 0.05993 0.24978 0.34205 0.0
C495 C 0.06497 0.27876 0.34383 0.0
N496 N 0.12173 0.29752 0.34268 0.0
C497 C 0.09623 0.30259 0.34382 0.0
H498 H 0.09997 0.32497 0.34516 0.0
C499 C 0.19941 0.29129 0.32589 0.0
N500 N 0.17317 0.29181 0.33406 0.0
C501 C 0.19706 0.2642 0.32114 0.0
C502 C 0.16745 0.23784 0.32386 0.0
H503 H 0.22236 0.31158 0.32369 0.0
H504 H 0.05888 0.19757 0.33609 0.0
H505 H 0.2542 0.34426 0.37787 0.0
H506 H 0.0357 0.23141 0.34193 0.0
H507 H 0.04481 0.28277 0.34525 0.0
H508 H 0.10621 0.19227 0.32817 0.0
H509 H 0.19423 0.42625 0.40176 0.0
H510 H 0.33788 0.39271 0.41081 0.0
H511 H 0.3074 0.35407 0.3874 0.0
H512 H 0.32052 0.46766 0.43785 0.0
H513 H 0.21808 0.26367 0.31537 0.0
H514 H 0.16569 0.21693 0.32006 0.0
H515 H 0.34238 0.43479 0.42984 0.0
H516 H 0.2254 0.47187 0.41897 0.0
N517 N 0.25135 0.37428 0.39781 0.0
C518 C 0.31378 0.38783 0.40724 0.0
C519 C 0.29666 0.36601 0.39405 0.0
C520 C 0.30046 0.40454 0.41442 0.0
C521 C 0.26898 0.39736 0.40924 0.0
C522 C 0.26579 0.36001 0.38909 0.0
N523 N 0.22838 0.41077 0.40592 0.0
C524 C 0.25701 0.41621 0.41348 0.0
C525 C 0.23461 0.45644 0.41751 0.0
C526 C 0.26389 0.46211 0.42564 0.0
C527 C 0.21713 0.4306 0.40761 0.0
C528 C 0.27569 0.44218 0.42339 0.0
H529 H 0.2775 0.48227 0.43318 0.0
O530 O 0.16039 0.36986 0.40979 0.0
O531 O 0.15556 0.33674 0.37455 0.0
O532 O 0.15517 0.36823 0.34824 0.0
O533 O 0.19241 0.39871 0.37036 0.0
O534 O 0.15767 0.31633 0.40456 0.0
O535 O 0.19318 0.35862 0.42842 0.0
O536 O 0.2014 0.36151 0.31239 0.0
O537 O 0.21117 0.37335 0.35928 0.0
O538 O 0.20264 0.32201 0.39618 0.0
O539 O 0.18562 0.30279 0.3636 0.0
O540 O 0.22868 0.35856 0.33637 0.0
O541 O 0.15014 0.34109 0.31451 0.0
C542 C 0.14081 0.31321 0.38817 0.0
C543 C 0.30598 0.44803 0.43 0.0
C544 C 0.31838 0.42926 0.42549 0.0
C545 C 0.16916 0.3641 0.42862 0.0
C546 C 0.15361 0.36399 0.4488 0.0
C547 C 0.13357 0.37703 0.44877 0.0
C548 C 0.15928 0.35145 0.46832 0.0
C549 C 0.14568 0.35259 0.48766 0.0
C550 C 0.11985 0.37801 0.46796 0.0
C551 C 0.126 0.36606 0.48732 0.0
C552 C 0.17061 0.39425 0.3561 0.0
C553 C 0.23672 0.37812 0.34957 0.0
C554 C 0.17597 0.35456 0.30192 0.0
C555 C 0.17541 0.34194 0.282 0.0
C556 C 0.15805 0.31071 0.28122 0.0
C557 C 0.19397 0.36129 0.26385 0.0
C558 C 0.1955 0.34965 0.24496 0.0
C559 C 0.15966 0.29895 0.26267 0.0
C560 C 0.1783 0.3182 0.24467 0.0
C561 C 0.19624 0.30156 0.38299 0.0
H562 H 0.12883 0.3868 0.43396 0.0
H563 H 0.1747 0.3413 0.46856 0.0
H564 H 0.10455 0.38823 0.46785 0.0
H565 H 0.11518 0.36711 0.50204 0.0
H566 H 0.14342 0.29538 0.29493 0.0
H567 H 0.20688 0.38543 0.26444 0.0
H568 H 0.14645 0.27481 0.26225 0.0
H569 H 0.17932 0.30843 0.23055 0.0
Gd570 Gd 0.65822 0.84636 0.38192 0.0
Gd571 Gd 0.7026 0.87651 0.32829 0.0
C572 C 0.80414 0.89087 0.31972 0.0
C573 C 0.83542 0.94551 0.3116 0.0
C574 C 0.77753 0.92116 0.3173 0.0
C575 C 0.776 0.89326 0.32102 0.0
C576 C 0.80714 0.94758 0.31203 0.0
C577 C 0.83392 0.9172 0.31547 0.0
C578 C 0.8014 0.86207 0.3222 0.0
C579 C 0.77108 0.83661 0.32503 0.0
N580 N 0.74681 0.86833 0.32494 0.0
C581 C 0.74386 0.84018 0.32601 0.0
H582 H 0.72063 0.82029 0.32834 0.0
C583 C 0.74956 0.94876 0.31144 0.0
N584 N 0.74977 0.92228 0.31782 0.0
C585 C 0.77834 0.97563 0.30619 0.0
C586 C 0.80732 0.97512 0.3068 0.0
H587 H 0.7272 0.94925 0.31111 0.0
H588 H 0.85584 0.91585 0.31462 0.0
H589 H 0.65099 0.90905 0.3823 0.0
H590 H 0.82243 0.85924 0.32144 0.0
H591 H 0.76864 0.81422 0.32656 0.0
H592 H 0.85846 0.96558 0.3078 0.0
H593 H 0.6228 0.77202 0.39764 0.0
H594 H 0.55142 0.88267 0.38609 0.0
H595 H 0.60814 0.9226 0.38313 0.0
H596 H 0.50025 0.77448 0.39647 0.0
H597 H 0.77817 0.99671 0.30174 0.0
H598 H 0.82958 0.99595 0.3027 0.0
H599 H 0.51126 0.8273 0.39064 0.0
H600 H 0.56788 0.72878 0.40456 0.0
N601 N 0.6191 0.8617 0.38455 0.0
C602 C 0.57018 0.87652 0.38582 0.0
C603 C 0.60217 0.89911 0.38424 0.0
C604 C 0.56281 0.84623 0.38767 0.0
C605 C 0.58816 0.83948 0.38721 0.0
C606 C 0.62647 0.89126 0.38383 0.0
N607 N 0.60709 0.80451 0.39092 0.0
C608 C 0.58195 0.80988 0.39047 0.0
C609 C 0.57148 0.75147 0.40056 0.0
C610 C 0.54521 0.75648 0.39902 0.0
C611 C 0.60247 0.77594 0.39678 0.0
C612 C 0.55026 0.78603 0.3943 0.0
H613 H 0.52122 0.7375 0.40198 0.0
O614 O 0.66422 0.82512 0.41238 0.0
O615 O 0.7013 0.85828 0.36196 0.0
O616 O 0.6725 0.8246 0.33268 0.0
O617 O 0.63308 0.81065 0.36019 0.0
O618 O 0.68512 0.81989 0.38356 0.0
O619 O 0.67356 0.87149 0.4089 0.0
O620 O 0.68467 0.88947 0.29958 0.0
O621 O 0.65905 0.86363 0.34817 0.0
O622 O 0.69342 0.89704 0.37946 0.0
O623 O 0.72942 0.91272 0.34941 0.0
O624 O 0.67508 0.90236 0.32705 0.0
O625 O 0.69708 0.85387 0.30015 0.0
C626 C 0.70784 0.83814 0.36954 0.0
C627 C 0.5248 0.7925 0.3938 0.0
C628 C 0.53107 0.82257 0.39049 0.0
C629 C 0.67291 0.84918 0.42172 0.0
C630 C 0.66032 0.84515 0.44381 0.0
C631 C 0.62914 0.83978 0.44809 0.0
C632 C 0.68082 0.84921 0.46064 0.0
C633 C 0.6709 0.84916 0.48177 0.0
C634 C 0.61877 0.83911 0.46888 0.0
C635 C 0.63944 0.84411 0.48551 0.0
C636 C 0.64476 0.80501 0.34334 0.0
C637 C 0.65228 0.88373 0.34087 0.0
C638 C 0.68739 0.87059 0.28869 0.0
C639 C 0.70176 0.88266 0.26675 0.0
C640 C 0.73438 0.90355 0.263 0.0
C641 C 0.68228 0.87395 0.24936 0.0
C642 C 0.69517 0.88625 0.22819 0.0
C643 C 0.74736 0.91592 0.24217 0.0
C644 C 0.72798 0.90752 0.2249 0.0
C645 C 0.72029 0.91687 0.36799 0.0
H646 H 0.61313 0.83674 0.4353 0.0
H647 H 0.70463 0.85275 0.45701 0.0
H648 H 0.59478 0.83537 0.47208 0.0
H649 H 0.63076 0.84473 0.50114 0.0
H650 H 0.74974 0.91044 0.27615 0.0
H651 H 0.65719 0.85739 0.25241 0.0
H652 H 0.77253 0.93226 0.23938 0.0
H653 H 0.73872 0.91801 0.20897 0.0
Gd654 Gd 0.15776 0.85053 0.34041 0.0
Gd655 Gd 0.16843 0.82102 0.39538 0.0
C656 C 0.25537 0.80821 0.40968 0.0
C657 C 0.23093 0.75362 0.4179 0.0
C658 C 0.19793 0.77734 0.40957 0.0
C659 C 0.22482 0.80538 0.40659 0.0
C660 C 0.20051 0.75114 0.41574 0.0
C661 C 0.25834 0.78213 0.41485 0.0
C662 C 0.28185 0.83717 0.40806 0.0
C663 C 0.27729 0.86232 0.40434 0.0
N664 N 0.22093 0.83001 0.40174 0.0
C665 C 0.24647 0.85831 0.40155 0.0
H666 H 0.24363 0.87809 0.39863 0.0
C667 C 0.14147 0.74909 0.41273 0.0
N668 N 0.16902 0.77585 0.40743 0.0
C669 C 0.14273 0.72243 0.41885 0.0
C670 C 0.1724 0.72337 0.42007 0.0
H671 H 0.11848 0.74822 0.41151 0.0
H672 H 0.28163 0.78383 0.41706 0.0
H673 H 0.08358 0.79154 0.33983 0.0
H674 H 0.30575 0.84034 0.41021 0.0
H675 H 0.29752 0.88485 0.40351 0.0
H676 H 0.23347 0.73374 0.42242 0.0
H677 H 0.2044 0.9239 0.32338 0.0
H678 H 0.01727 0.82546 0.33398 0.0
H679 H 0.02813 0.78239 0.3383 0.0
H680 H 0.08543 0.93288 0.32149 0.0
H681 H 0.12085 0.70116 0.42249 0.0
H682 H 0.17334 0.7027 0.42481 0.0
H683 H 0.03889 0.88177 0.32796 0.0
H684 H 0.19896 0.96987 0.3148 0.0
N685 N 0.10418 0.83941 0.33676 0.0
C686 C 0.04174 0.82965 0.33456 0.0
C687 C 0.04778 0.80529 0.33692 0.0
C688 C 0.06741 0.85914 0.3323 0.0
C689 C 0.09876 0.86329 0.33331 0.0
C690 C 0.07935 0.81061 0.33774 0.0
N691 N 0.15444 0.89472 0.32992 0.0
C692 C 0.12478 0.89193 0.32973 0.0
C693 C 0.17789 0.94809 0.31905 0.0
C694 C 0.14755 0.94581 0.31995 0.0
C695 C 0.18089 0.92209 0.32376 0.0
C696 C 0.12045 0.9174 0.32497 0.0
H697 H 0.14527 0.96597 0.31627 0.0
O698 O 0.1887 0.86777 0.3111 0.0
O699 O 0.18684 0.83758 0.36173 0.0
O700 O 0.19334 0.87281 0.38962 0.0
O701 O 0.16933 0.8869 0.36135 0.0
O702 O 0.21185 0.87532 0.33958 0.0
O703 O 0.14395 0.82589 0.31303 0.0
O704 O 0.13876 0.80465 0.42526 0.0
O705 O 0.13918 0.83351 0.37399 0.0
O706 O 0.13732 0.79938 0.3446 0.0
O707 O 0.15917 0.78504 0.37416 0.0
O708 O 0.11437 0.79575 0.39556 0.0
O709 O 0.17963 0.84951 0.42051 0.0
C710 C 0.21445 0.85728 0.35456 0.0
C711 C 0.08929 0.91357 0.32488 0.0
C712 C 0.0628 0.88447 0.32856 0.0
C713 C 0.16938 0.84551 0.30106 0.0
C714 C 0.16465 0.85292 0.27851 0.0
C715 C 0.14141 0.86138 0.27318 0.0
C716 C 0.18262 0.85001 0.26212 0.0
C717 C 0.17681 0.85451 0.24032 0.0
C718 C 0.13564 0.86621 0.25181 0.0
C719 C 0.1528 0.8625 0.23556 0.0
C720 C 0.18671 0.89261 0.37826 0.0
C721 C 0.11139 0.81414 0.38111 0.0
C722 C 0.15629 0.82922 0.4337 0.0
C723 C 0.16431 0.82576 0.45605 0.0
C724 C 0.18884 0.81891 0.46095 0.0
C725 C 0.14874 0.83143 0.47245 0.0
C726 C 0.15837 0.83152 0.49371 0.0
C727 C 0.19828 0.81846 0.48183 0.0
C728 C 0.18361 0.82507 0.49798 0.0
C729 C 0.14464 0.78009 0.35596 0.0
H730 H 0.12743 0.86378 0.28556 0.0
H731 H 0.20097 0.84409 0.26653 0.0
H732 H 0.11732 0.87233 0.24779 0.0
H733 H 0.1465 0.86527 0.21931 0.0
H734 H 0.20107 0.8145 0.44856 0.0
H735 H 0.12937 0.83602 0.46839 0.0
H736 H 0.21762 0.81361 0.48545 0.0
H737 H 0.19284 0.8258 0.51367 0.0
Gd738 Gd 0.85892 0.69862 0.7199 0.0
Gd739 Gd 0.83828 0.66168 0.67115 0.0
C740 C 0.74997 0.56927 0.67118 0.0
C741 C 0.77365 0.537 0.66772 0.0
C742 C 0.80762 0.59075 0.66892 0.0
C743 C 0.78087 0.59424 0.67128 0.0
C744 C 0.80431 0.56236 0.66619 0.0
C745 C 0.7465 0.54044 0.67024 0.0
C746 C 0.72363 0.57428 0.67078 0.0
C747 C 0.72861 0.60377 0.66934 0.0
N748 N 0.78514 0.62257 0.67129 0.0
C749 C 0.75976 0.62782 0.66918 0.0
H750 H 0.76341 0.65057 0.66786 0.0
C751 C 0.86335 0.61475 0.66019 0.0
N752 N 0.83684 0.61587 0.66695 0.0
C753 C 0.86122 0.58717 0.65706 0.0
C754 C 0.83172 0.56072 0.66063 0.0
H755 H 0.8862 0.63513 0.6575 0.0
H756 H 0.72294 0.52092 0.67046 0.0
H757 H 0.9324 0.70222 0.71861 0.0
H758 H 0.6995 0.55571 0.6707 0.0
H759 H 0.70849 0.60801 0.66832 0.0
H760 H 0.77062 0.51489 0.66599 0.0
H761 H 0.81786 0.73309 0.73372 0.0
H762 H 1.00308 0.79472 0.7166 0.0
H763 H 0.9886 0.74109 0.71721 0.0
H764 H 0.94219 0.84553 0.7228 0.0
H765 H 0.88233 0.58635 0.65187 0.0
H766 H 0.83017 0.53938 0.65816 0.0
H767 H 0.98558 0.8335 0.71792 0.0
H768 H 0.8286 0.78502 0.73647 0.0
N769 N 0.91415 0.7331 0.71894 0.0
C770 C 0.97809 0.77763 0.71741 0.0
C771 C 0.97001 0.74739 0.71783 0.0
C772 C 0.95387 0.78544 0.7186 0.0
C773 C 0.92164 0.76235 0.71973 0.0
C774 C 0.93781 0.72528 0.71873 0.0
N775 N 0.86633 0.74644 0.72484 0.0
C776 C 0.8971 0.76922 0.72253 0.0
C777 C 0.84802 0.78091 0.73241 0.0
C778 C 0.87921 0.8049 0.72872 0.0
C779 C 0.84204 0.75154 0.73086 0.0
C780 C 0.9043 0.79919 0.72417 0.0
H781 H 0.88379 0.82763 0.73003 0.0
O782 O 0.87191 0.70847 0.75223 0.0
O783 O 0.8216 0.66093 0.70455 0.0
O784 O 0.81812 0.69417 0.67101 0.0
O785 O 0.84478 0.72669 0.69634 0.0
O786 O 0.80618 0.68318 0.72333 0.0
O787 O 0.83615 0.66379 0.74726 0.0
O788 O 0.86577 0.67739 0.64071 0.0
O789 O 0.87281 0.70101 0.68621 0.0
O790 O 0.87856 0.66582 0.71886 0.0
O791 O 0.84715 0.63154 0.69594 0.0
O792 O 0.8929 0.68601 0.66565 0.0
O793 O 0.81623 0.66711 0.64192 0.0
C794 C 0.79699 0.6614 0.71176 0.0
C795 C 0.93627 0.82234 0.72187 0.0
C796 C 0.96098 0.81548 0.71912 0.0
C797 C 0.85371 0.68083 0.76101 0.0
C798 C 0.86858 0.66766 0.7761 0.0
C799 C 0.89679 0.66757 0.77007 0.0
C800 C 0.85394 0.65429 0.79662 0.0
C801 C 0.86719 0.6407 0.81109 0.0
C802 C 0.90973 0.65366 0.78416 0.0
C803 C 0.89503 0.64021 0.80453 0.0
C804 C 0.82693 0.7194 0.67963 0.0
C805 C 0.89926 0.70689 0.67754 0.0
C806 C 0.84156 0.67433 0.62973 0.0
C807 C 0.83703 0.65815 0.61111 0.0
C808 C 0.82207 0.62657 0.61352 0.0
C809 C 0.85031 0.67463 0.59097 0.0
C810 C 0.84997 0.65982 0.57332 0.0
C811 C 0.82192 0.61165 0.59637 0.0
C812 C 0.8362 0.62807 0.57651 0.0
C813 C 0.86623 0.63907 0.71188 0.0
H814 H 0.90857 0.67786 0.75442 0.0
H815 H 0.83211 0.65433 0.80126 0.0
H816 H 0.93132 0.65343 0.77931 0.0
H817 H 0.90587 0.63009 0.81532 0.0
H818 H 0.81088 0.61344 0.62866 0.0
H819 H 0.86066 0.69896 0.58924 0.0
H820 H 0.81096 0.58725 0.59851 0.0
H821 H 0.83638 0.61571 0.56375 0.0
Gd822 Gd 0.32237 0.18002 0.71863 0.0
Gd823 Gd 0.36258 0.20914 0.66406 0.0
C824 C 0.45696 0.21039 0.65092 0.0
C825 C 0.49396 0.26417 0.64302 0.0
C826 C 0.43724 0.2463 0.65061 0.0
C827 C 0.43154 0.21664 0.6537 0.0
C828 C 0.46843 0.27028 0.64473 0.0
C829 C 0.48825 0.23431 0.64612 0.0
C830 C 0.45011 0.18025 0.65252 0.0
C831 C 0.41842 0.15723 0.65589 0.0
N832 N 0.40103 0.19386 0.65847 0.0
C833 C 0.39397 0.16447 0.65846 0.0
H834 H 0.36974 0.14626 0.66116 0.0
C835 C 0.41605 0.27997 0.64644 0.0
N836 N 0.41212 0.25162 0.65229 0.0
C837 C 0.44653 0.30443 0.64069 0.0
C838 C 0.47292 0.29964 0.64015 0.0
H839 H 0.39591 0.28403 0.64699 0.0
H840 H 0.50808 0.22991 0.64421 0.0
H841 H 0.31986 0.24312 0.7253 0.0
H842 H 0.46898 0.17453 0.6506 0.0
H843 H 0.41279 0.13387 0.65664 0.0
H844 H 0.51811 0.28234 0.63876 0.0
H845 H 0.28499 0.10561 0.73381 0.0
H846 H 0.22169 0.22142 0.73285 0.0
H847 H 0.27931 0.25909 0.73029 0.0
H848 H 0.1656 0.1133 0.73915 0.0
H849 H 0.44967 0.32696 0.63674 0.0
H850 H 0.49651 0.31865 0.63564 0.0
H851 H 0.17924 0.16682 0.73576 0.0
H852 H 0.22972 0.06386 0.74291 0.0
N853 N 0.28554 0.19709 0.72432 0.0
C854 C 0.23939 0.21431 0.73061 0.0
C855 C 0.27189 0.2356 0.72928 0.0
C856 C 0.2302 0.18385 0.73013 0.0
C857 C 0.25421 0.17584 0.7271 0.0
C858 C 0.29481 0.22646 0.72648 0.0
N859 N 0.27074 0.13924 0.72795 0.0
C860 C 0.24653 0.14584 0.72901 0.0
C861 C 0.23404 0.08676 0.73873 0.0
C862 C 0.20852 0.09292 0.7384 0.0
C863 C 0.26525 0.11039 0.73374 0.0
C864 C 0.21466 0.12286 0.73402 0.0
H865 H 0.18437 0.0746 0.7424 0.0
O866 O 0.33076 0.15775 0.7476 0.0
O867 O 0.36264 0.18899 0.69683 0.0
O868 O 0.32901 0.15815 0.66787 0.0
O869 O 0.29212 0.14628 0.69659 0.0
O870 O 0.3464 0.15089 0.71848 0.0
O871 O 0.33658 0.20258 0.74704 0.0
O872 O 0.32511 0.20296 0.64226 0.0
O873 O 0.32307 0.2026 0.68598 0.0
O874 O 0.36176 0.22908 0.71709 0.0
O875 O 0.39296 0.24545 0.68459 0.0
O876 O 0.34671 0.2436 0.66619 0.0
O877 O 0.36946 0.20763 0.63017 0.0
C878 C 0.36823 0.16799 0.70362 0.0
C879 C 0.19031 0.13063 0.7356 0.0
C880 C 0.19809 0.16111 0.73368 0.0
C881 C 0.3368 0.17978 0.75864 0.0
C882 C 0.32081 0.17124 0.78024 0.0
C883 C 0.28806 0.16187 0.78266 0.0
C884 C 0.33819 0.17243 0.79859 0.0
C885 C 0.32263 0.1638 0.81924 0.0
C886 C 0.27266 0.15365 0.80296 0.0
C887 C 0.2897 0.15456 0.82108 0.0
C888 C 0.301 0.1403 0.67869 0.0
C889 C 0.32356 0.22756 0.68059 0.0
C890 C 0.3418 0.20486 0.62541 0.0
C891 C 0.34126 0.22397 0.60619 0.0
C892 C 0.3489 0.254 0.60717 0.0
C893 C 0.33288 0.21203 0.58668 0.0
C894 C 0.33256 0.23017 0.5681 0.0
C895 C 0.34851 0.27204 0.5889 0.0
C896 C 0.34048 0.26031 0.56952 0.0
C897 C 0.38727 0.24885 0.70441 0.0
H898 H 0.2744 0.16101 0.76884 0.0
H899 H 0.3635 0.17956 0.79677 0.0
H900 H 0.24737 0.14656 0.80467 0.0
H901 H 0.27707 0.14832 0.83663 0.0
H902 H 0.35501 0.26345 0.62206 0.0
H903 H 0.32711 0.18883 0.58591 0.0
H904 H 0.35439 0.29521 0.58977 0.0
H905 H 0.34008 0.27478 0.55566 0.0
Gd906 Gd 0.82225 0.17817 0.67618 0.0
Gd907 Gd 0.83916 0.15786 0.73201 0.0
C908 C 0.94002 0.17637 0.7478 0.0
C909 C 0.93254 0.12562 0.75672 0.0
C910 C 0.88751 0.13323 0.74683 0.0
C911 C 0.90731 0.16404 0.74379 0.0
C912 C 0.89966 0.11362 0.75388 0.0
C913 C 0.95269 0.15698 0.75375 0.0
C914 C 0.95864 0.20774 0.74665 0.0
C915 C 0.94418 0.22581 0.74264 0.0
N916 N 0.89403 0.182 0.73858 0.0
C917 C 0.91157 0.21246 0.73894 0.0
H918 H 0.90082 0.22677 0.73575 0.0
C919 C 0.83448 0.09283 0.75092 0.0
N920 N 0.85581 0.12258 0.74459 0.0
C921 C 0.84534 0.07235 0.75762 0.0
C922 C 0.87815 0.08272 0.75878 0.0
H923 H 0.80909 0.08487 0.75036 0.0
H924 H 0.97783 0.16602 0.75667 0.0
H925 H 0.76017 0.1088 0.67324 0.0
H926 H 0.98387 0.21812 0.74956 0.0
H927 H 0.95816 0.25005 0.74228 0.0
H928 H 0.94242 0.11093 0.76191 0.0
H929 H 0.85165 0.25164 0.65946 0.0
H930 H 0.67676 0.11725 0.66074 0.0
H931 H 0.7026 0.08541 0.66783 0.0
H932 H 0.71784 0.2244 0.6481 0.0
H933 H 0.82841 0.04866 0.76204 0.0
H934 H 0.88652 0.06689 0.76422 0.0
H935 H 0.68266 0.16928 0.65349 0.0
H936 H 0.83172 0.28752 0.64828 0.0
N937 N 0.76719 0.1537 0.67003 0.0
C938 C 0.70215 0.12773 0.66318 0.0
C939 C 0.71667 0.1097 0.6671 0.0
C940 C 0.72084 0.15913 0.6616 0.0
C941 C 0.75374 0.17158 0.66502 0.0
C942 C 0.74947 0.12315 0.67016 0.0
N943 N 0.80519 0.21327 0.66393 0.0
C944 C 0.77343 0.20243 0.66185 0.0
C945 C 0.81504 0.26365 0.65211 0.0
C946 C 0.78219 0.25297 0.65085 0.0
C947 C 0.82625 0.24331 0.65834 0.0
C948 C 0.76096 0.22194 0.65534 0.0
H949 H 0.77356 0.26873 0.64587 0.0
O950 O 0.85124 0.20093 0.64631 0.0
O951 O 0.85759 0.17764 0.69858 0.0
O952 O 0.84536 0.20541 0.7267 0.0
O953 O 0.81839 0.21006 0.69659 0.0
O954 O 0.87336 0.21546 0.67632 0.0
O955 O 0.82113 0.15252 0.65074 0.0
O956 O 0.80632 0.13642 0.76021 0.0
O957 O 0.80374 0.1585 0.70968 0.0
O958 O 0.81502 0.13017 0.68162 0.0
O959 O 0.84113 0.12472 0.71207 0.0
O960 O 0.78838 0.12036 0.73169 0.0
O961 O 0.8439 0.1826 0.75891 0.0
C962 C 0.88164 0.20245 0.69185 0.0
C963 C 0.72796 0.20979 0.6529 0.0
C964 C 0.70794 0.17842 0.65597 0.0
C965 C 0.84044 0.1762 0.63753 0.0
C966 C 0.83046 0.17716 0.61541 0.0
C967 C 0.80116 0.17624 0.61155 0.0
C968 C 0.84942 0.17735 0.59818 0.0
C969 C 0.8388 0.1758 0.57711 0.0
C970 C 0.79047 0.17483 0.59095 0.0
C971 C 0.80879 0.17425 0.57398 0.0
C972 C 0.83218 0.21902 0.71454 0.0
C973 C 0.77975 0.13348 0.71641 0.0
C974 C 0.82044 0.15973 0.77051 0.0
C975 C 0.82625 0.15366 0.79306 0.0
C976 C 0.84268 0.13756 0.79854 0.0
C977 C 0.81492 0.16365 0.8093 0.0
C978 C 0.81969 0.1573 0.83102 0.0
C979 C 0.84726 0.13096 0.81989 0.0
C980 C 0.83575 0.14052 0.83599 0.0
C981 C 0.82674 0.11561 0.6943 0.0
H982 H 0.78627 0.17605 0.62452 0.0
H983 H 0.87228 0.17859 0.60134 0.0
H984 H 0.76754 0.17362 0.58818 0.0
H985 H 0.79881 0.17188 0.55849 0.0
H986 H 0.85177 0.12988 0.78637 0.0
H987 H 0.80278 0.17659 0.80494 0.0
H988 H 0.85965 0.1182 0.824 0.0
H989 H 0.8392 0.13442 0.8524 0.0
H990 H 0.28391 0.88254 0.08723 0.0
H991 H 0.30804 0.81066 0.08963 0.0
H992 H 0.36482 0.84822 0.08001 0.0
H993 H 0.33352 0.92764 0.04324 0.0
H994 H 0.34768 0.96412 0.05209 0.0
H995 H 0.30917 0.93314 0.06203 0.0
H996 H 0.32389 0.93732 0.10102 0.0
H997 H 0.36193 0.96975 0.09196 0.0
H998 H 0.36053 0.9381 0.10894 0.0
H999 H 0.41783 0.89277 0.06732 0.0
H1000 H 0.465 0.94219 0.0555 0.0
H1001 H 0.4086 0.98678 0.06123 0.0
C1002 C 0.30146 0.87497 0.08636 0.0
C1003 C 0.29173 0.8437 0.08921 0.0
C1004 C 0.31513 0.83447 0.08753 0.0
C1005 C 0.34736 0.85565 0.08201 0.0
C1006 C 0.35609 0.88622 0.07849 0.0
C1007 C 0.33404 0.89603 0.08102 0.0
C1008 C 0.34994 0.93028 0.07573 0.0
C1009 C 0.33416 0.93935 0.05716 0.0
C1010 C 0.34902 0.94472 0.0956 0.0
C1011 C 0.38406 0.93802 0.06927 0.0
C1012 C 0.38692 0.91213 0.07105 0.0
C1013 C 0.41577 0.91313 0.0658 0.0
C1014 C 0.44241 0.94123 0.0587 0.0
C1015 C 0.44034 0.96812 0.05648 0.0
C1016 C 0.4108 0.9665 0.06231 0.0
H1017 H 0.16702 0.4591 0.08044 0.0
H1018 H 0.23569 0.55418 0.0772 0.0
H1019 H 0.19623 0.56736 0.06074 0.0
H1020 H 0.12901 0.46412 0.0308 0.0
H1021 H 0.08937 0.43653 0.04166 0.0
H1022 H 0.12371 0.43418 0.05137 0.0
H1023 H 0.10691 0.43505 0.09014 0.0
H1024 H 0.07218 0.43681 0.08077 0.0
H1025 H 0.09987 0.46525 0.09601 0.0
H1026 H 0.14881 0.57002 0.04757 0.0
H1027 H 0.09545 0.5625 0.03918 0.0
H1028 H 0.05666 0.46538 0.05127 0.0
C1029 C 0.17356 0.48262 0.07615 0.0
C1030 C 0.20411 0.50576 0.07988 0.0
C1031 C 0.21232 0.53635 0.07415 0.0
C1032 C 0.19018 0.54394 0.06482 0.0
C1033 C 0.16011 0.52056 0.0614 0.0
C1034 C 0.15169 0.49053 0.06693 0.0
C1035 C 0.11712 0.46987 0.06287 0.0
C1036 C 0.11467 0.45 0.04565 0.0
C1037 C 0.09789 0.45062 0.08369 0.0
C1038 C 0.10717 0.49305 0.05479 0.0
C1039 C 0.1325 0.52211 0.05377 0.0
C1040 C 0.12892 0.5474 0.04791 0.0
C1041 C 0.09853 0.54288 0.04307 0.0
C1042 C 0.0723 0.51333 0.04394 0.0
C1043 C 0.07663 0.48814 0.04998 0.0
H1044 H 0.5882 0.7411 0.04865 0.0
H1045 H 0.54474 0.71604 0.11305 0.0
H1046 H 0.52801 0.66241 0.1106 0.0
H1047 H 0.52487 0.67452 0.02774 0.0
H1048 H 0.55244 0.67176 1.00989 0.0
H1049 H 0.56111 0.70798 0.01706 0.0
H1050 H 0.61579 0.71546 0.02996 0.0
H1051 H 0.60669 0.67892 0.02317 0.0
H1052 H 0.61668 0.6876 0.04994 0.0
H1053 H 0.5184 0.61215 0.1019 0.0
H1054 H 0.51129 0.56731 0.08632 0.0
H1055 H 0.55708 0.6235 0.02627 0.0
C1056 C 0.57485 0.72418 0.06208 0.0
C1057 C 0.56795 0.73262 0.08116 0.0
C1058 C 0.55055 0.70995 0.09846 0.0
C1059 C 0.54095 0.67951 0.09718 0.0
C1060 C 0.54838 0.67191 0.07827 0.0
C1061 C 0.56446 0.69346 0.06088 0.0
C1062 C 0.56842 0.67888 0.04224 0.0
C1063 C 0.55064 0.68356 0.0231 0.0
C1064 C 0.60402 0.69094 0.03597 0.0
C1065 C 0.55251 0.64591 0.05201 0.0
C1066 C 0.5414 0.64253 0.07288 0.0
C1067 C 0.52679 0.61449 0.08551 0.0
C1068 C 0.52307 0.58915 0.07655 0.0
C1069 C 0.53354 0.5918 0.05504 0.0
C1070 C 0.54847 0.62065 0.04265 0.0
H1071 H 0.8143 0.32652 0.98996 0.0
H1072 H 0.87699 0.28879 0.98134 0.0
H1073 H 0.92269 0.33472 0.99164 0.0
H1074 H 0.86946 0.403 0.96986 0.0
H1075 H 0.85748 0.41951 0.9893 0.0
H1076 H 0.82932 0.38316 0.98213 0.0
H1077 H 0.82023 0.36067 0.02215 0.0
H1078 H 0.84878 0.39716 0.02909 0.0
H1079 H 0.85408 0.36478 0.03699 0.0
H1080 H 0.96226 0.38548 1.00012 0.0
H1081 H 0.99339 0.43737 1.00868 0.0
H1082 H 0.90647 0.44382 0.01377 0.0
C1083 C 0.83758 0.32785 0.99066 0.0
C1084 C 0.84221 0.30413 0.98463 0.0
C1085 C 0.87305 0.30678 0.98558 0.0
C1086 C 0.89911 0.33276 0.9915 0.0
C1087 C 0.89406 0.35601 0.9968 0.0
C1088 C 0.86405 0.35378 0.99679 0.0
C1089 C 0.86578 0.38259 1.00299 0.0
C1090 C 0.85487 0.39797 0.98498 0.0
C1091 C 0.84603 0.37589 0.02406 0.0
C1092 C 0.90149 0.4015 1.00586 0.0
C1093 C 0.91716 0.38551 1.0022 0.0
C1094 C 0.95022 0.39817 1.00308 0.0
C1095 C 0.96785 0.42793 1.00771 0.0
C1096 C 0.95265 0.44502 1.01151 0.0
C1097 C 0.91883 0.43136 1.0109 0.0
H1098 H 0.66854 0.4673 0.98972 0.0
H1099 H 0.7507 0.55266 0.99812 0.0
H1100 H 0.71635 0.56663 0.01784 0.0
H1101 H 0.61682 0.49322 0.97826 0.0
H1102 H 0.58158 0.46225 0.99254 0.0
H1103 H 0.61325 0.45614 0.9833 0.0
H1104 H 0.61669 0.43483 0.02172 0.0
H1105 H 0.58585 0.44183 0.03171 0.0
H1106 H 0.62444 0.45765 0.04299 0.0
H1107 H 0.67309 0.57674 0.02721 0.0
H1108 H 0.623 0.57957 0.03023 0.0
H1109 H 0.56834 0.48593 0.01982 0.0
C1110 C 0.67915 0.48825 0.9966 0.0
C1111 C 0.71202 0.50882 0.99289 0.0
C1112 C 0.7255 0.53658 1.00133 0.0
C1113 C 0.70623 0.54462 0.0125 0.0
C1114 C 0.67361 0.52435 0.01539 0.0
C1115 C 0.66015 0.4964 1.00813 0.0
C1116 C 0.62401 0.48032 1.0114 0.0
C1117 C 0.608 0.47256 0.99011 0.0
C1118 C 0.61202 0.45197 0.02794 0.0
C1119 C 0.61935 0.50449 0.02008 0.0
C1120 C 0.64829 0.52963 0.02243 0.0
C1121 C 0.65022 0.55678 0.02647 0.0
C1122 C 0.62184 0.55831 0.02802 0.0
C1123 C 0.5921 0.53262 0.02617 0.0
C1124 C 0.5908 0.50533 0.02246 0.0
H1125 H 0.41397 0.15831 0.97377 0.0
H1126 H 0.50822 0.23688 0.96324 0.0
H1127 H 0.53244 0.20543 0.97669 0.0
H1128 H 0.42417 0.12018 0.01875 0.0
H1129 H 0.40397 0.08266 1.01119 0.0
H1130 H 0.39326 0.11052 1.00002 0.0
H1131 H 0.40466 0.10327 0.96169 0.0
H1132 H 0.41453 0.0747 0.97272 0.0
H1133 H 0.44284 0.10659 0.95446 0.0
H1134 H 0.54387 0.1686 0.99954 0.0
H1135 H 0.5466 0.12487 0.01777 0.0
H1136 H 0.44823 0.06598 1.00401 0.0
C1137 C 0.43971 0.16863 0.97315 0.0
C1138 C 0.45924 0.20024 0.96751 0.0
C1139 C 0.4929 0.21284 0.9677 0.0
C1140 C 0.50681 0.19519 0.9754 0.0
C1141 C 0.48687 0.16447 0.98178 0.0
C1142 C 0.45427 0.15087 0.97961 0.0
C1143 C 0.43882 0.11695 0.98669 0.0
C1144 C 0.41356 0.10701 1.00526 0.0
C1145 C 0.42436 0.09933 0.96776 0.0
C1146 C 0.4677 0.11402 0.99401 0.0
C1147 C 0.49486 0.14202 0.99165 0.0
C1148 C 0.52334 0.14627 1.00027 0.0
C1149 C 0.52466 0.12108 1.01056 0.0
C1150 C 0.49836 0.09154 1.01108 0.0
C1151 C 0.46922 0.08808 1.00299 0.0
H1152 H 0.75084 0.17399 0.97376 0.0
H1153 H 0.71924 0.23909 0.98186 0.0
H1154 H 0.66407 0.1976 0.99085 0.0
H1155 H 0.67645 0.12115 0.94959 0.0
H1156 H 0.67725 0.08794 0.9622 0.0
H1157 H 0.71414 0.12281 0.95548 0.0
H1158 H 0.72873 0.11917 0.99425 0.0
H1159 H 0.69127 0.08548 1.00229 0.0
H1160 H 0.70332 0.11854 0.01546 0.0
H1161 H 0.6129 0.1502 0.99888 0.0
H1162 H 0.56802 0.09869 1.00662 0.0
H1163 H 0.63001 0.06167 0.9947 0.0
C1164 C 0.73213 0.17938 0.97719 0.0
C1165 C 0.73938 0.20987 0.97736 0.0
C1166 C 0.71431 0.216 0.98201 0.0
C1167 C 0.68289 0.19256 0.98699 0.0
C1168 C 0.67657 0.16286 0.98703 0.0
C1169 C 0.70027 0.15602 0.98209 0.0
C1170 C 0.68647 0.12185 0.98349 0.0
C1171 C 0.68871 0.11291 0.96138 0.0
C1172 C 0.70341 0.11057 0.99986 0.0
C1173 C 0.65165 0.11065 0.99084 0.0
C1174 C 0.64667 0.13496 0.99233 0.0
C1175 C 0.61671 0.13104 0.99811 0.0
C1176 C 0.59127 0.10161 1.00288 0.0
C1177 C 0.59548 0.0761 1.00255 0.0
C1178 C 0.62608 0.08072 0.99573 0.0
H1179 H 0.81233 0.48612 0.97674 0.0
H1180 H 0.82496 0.57654 0.96375 0.0
H1181 H 0.88037 0.59756 0.97497 0.0
H1182 H 0.8512 0.49888 0.0248 0.0
H1183 H 0.86973 0.47566 0.02232 0.0
H1184 H 0.83257 0.46694 1.01023 0.0
H1185 H 0.85673 0.46884 0.97388 0.0
H1186 H 0.89488 0.47787 0.98454 0.0
H1187 H 0.89221 0.50204 0.96237 0.0
H1188 H 0.93318 0.60837 0.98914 0.0
H1189 H 0.98184 0.60854 1.0028 0.0
H1190 H 0.93252 0.51066 1.0103 0.0
C1191 C 0.82727 0.51036 0.9757 0.0
C1192 C 0.81501 0.52987 0.9687 0.0
C1193 C 0.83454 0.56143 0.96813 0.0
C1194 C 0.86576 0.57346 0.97488 0.0
C1195 C 0.87667 0.5535 0.98258 0.0
C1196 C 0.85811 0.52262 0.98296 0.0
C1197 C 0.87471 0.50599 0.9933 0.0
C1198 C 0.85594 0.48566 0.0139 0.0
C1199 C 0.88001 0.48764 0.9776 0.0
C1200 C 0.90583 0.53247 0.99823 0.0
C1201 C 0.90637 0.55963 0.99205 0.0
C1202 C 0.933 0.58727 0.99423 0.0
C1203 C 0.96034 0.58718 1.00216 0.0
C1204 C 0.96051 0.55966 1.00805 0.0
C1205 C 0.93265 0.53197 1.00659 0.0
H1206 H 0.43377 0.28134 1.00468 0.0
H1207 H 0.47428 0.31327 0.93949 0.0
H1208 H 0.49086 0.36574 0.94545 0.0
H1209 H 0.40547 0.33388 1.00973 0.0
H1210 H 0.41684 0.33948 0.03675 0.0
H1211 H 0.40725 0.30426 0.0273 0.0
H1212 H 0.4625 0.31061 0.03769 0.0
H1213 H 0.47205 0.34575 0.04728 0.0
H1214 H 0.4984 0.34471 0.02741 0.0
H1215 H 0.50112 0.41426 0.95793 0.0
H1216 H 0.50799 0.4565 0.97681 0.0
H1217 H 0.46554 0.39459 0.03512 0.0
C1218 C 0.4466 0.29947 0.99181 0.0
C1219 C 0.45274 0.29327 0.97156 0.0
C1220 C 0.46896 0.31754 0.95498 0.0
C1221 C 0.47862 0.34738 0.95827 0.0
C1222 C 0.47237 0.35278 0.9784 0.0
C1223 C 0.45709 0.3296 0.995 0.0
C1224 C 0.45414 0.34189 0.01522 0.0
C1225 C 0.41882 0.32911 0.02268 0.0
C1226 C 0.47289 0.33535 0.03295 0.0
C1227 C 0.46968 0.37548 1.00728 0.0
C1228 C 0.47979 0.38114 0.98593 0.0
C1229 C 0.49361 0.41013 0.9747 0.0
C1230 C 0.4973 0.43399 0.98555 0.0
C1231 C 0.48774 0.42896 1.00751 0.0
C1232 C 0.47381 0.39927 0.0185 0.0
H1233 H 0.1815 0.722 0.09893 0.0
H1234 H 0.18891 0.78556 0.04454 0.0
H1235 H 0.14827 0.74348 0.0269 0.0
H1236 H 0.17056 0.66125 0.06976 0.0
H1237 H 0.14187 0.63173 0.08928 0.0
H1238 H 0.17164 0.66675 0.09751 0.0
H1239 H 0.12694 0.67375 0.11477 0.0
H1240 H 0.09703 0.63877 0.10654 0.0
H1241 H 0.09535 0.67314 0.09883 0.0
H1242 H 0.10817 0.69447 0.01475 0.0
H1243 H 0.07016 0.64201 1.00918 0.0
H1244 H 0.08612 0.60942 0.07202 0.0
C1245 C 0.17443 0.7269 0.08332 0.0
C1246 C 0.18869 0.75696 0.07284 0.0
C1247 C 0.17875 0.76264 0.05253 0.0
C1248 C 0.15557 0.7389 0.04251 0.0
C1249 C 0.14213 0.70951 0.05314 0.0
C1250 C 0.15102 0.70338 0.07316 0.0
C1251 C 0.13261 0.6697 0.08109 0.0
C1252 C 0.15554 0.65659 0.08461 0.0
C1253 C 0.11174 0.66348 0.10152 0.0
C1254 C 0.11214 0.65783 0.06236 0.0
C1255 C 0.11817 0.68126 0.0464 0.0
C1256 C 0.10316 0.67602 0.02719 0.0
C1257 C 0.08171 0.64615 0.02412 0.0
C1258 C 0.07517 0.62176 0.04015 0.0
C1259 C 0.09032 0.62774 0.05964 0.0
H1260 H 0.28524 0.45142 0.08941 0.0
H1261 H 0.32661 0.54762 0.09074 0.0
H1262 H 0.37797 0.55582 0.0748 0.0
H1263 H 0.35921 0.44728 0.10194 0.0
H1264 H 0.3505 0.41885 0.08465 0.0
H1265 H 0.31826 0.42095 0.0977 0.0
H1266 H 0.29587 0.42503 0.06072 0.0
H1267 H 0.32868 0.42402 0.04753 0.0
H1268 H 0.32103 0.45511 0.04011 0.0
H1269 H 0.42204 0.55396 0.05549 0.0
H1270 H 0.46115 0.5416 0.04078 0.0
H1271 H 0.39202 0.44611 0.05265 0.0
C1272 C 0.3056 0.47397 0.08702 0.0
C1273 C 0.3025 0.49899 0.09125 0.0
C1274 C 0.32907 0.52837 0.0876 0.0
C1275 C 0.35802 0.53318 0.0784 0.0
C1276 C 0.35987 0.50822 0.07326 0.0
C1277 C 0.33476 0.47911 0.07796 0.0
C1278 C 0.34317 0.45634 0.07071 0.0
C1279 C 0.34278 0.43457 0.08989 0.0
C1280 C 0.32084 0.43912 0.05376 0.0
C1281 C 0.3768 0.47727 0.06107 0.0
C1282 C 0.38571 0.50711 0.06243 0.0
C1283 C 0.4155 0.53066 0.0545 0.0
C1284 C 0.43747 0.52341 0.04596 0.0
C1285 C 0.42952 0.49289 0.0455 0.0
C1286 C 0.39852 0.46963 0.05264 0.0
H1287 H 0.60989 0.86818 0.08045 0.0
H1288 H 0.51372 0.79293 0.08141 0.0
H1289 H 0.49322 0.82824 0.07085 0.0
H1290 H 0.58292 0.91786 0.10328 0.0
H1291 H 0.61336 0.95184 0.08785 0.0
H1292 H 0.6209 0.92081 0.09598 0.0
H1293 H 0.63474 0.92004 0.05653 0.0
H1294 H 0.62691 0.9508 0.04825 0.0
H1295 H 0.60595 0.91597 0.03688 0.0
H1296 H 0.48465 0.86957 0.05462 0.0
H1297 H 0.48476 0.91623 0.0409 0.0
H1298 H 0.58405 0.96842 0.05591 0.0
C1299 C 0.58449 0.85933 0.07872 0.0
C1300 C 0.56348 0.82768 0.08087 0.0
C1301 C 0.53034 0.81692 0.0789 0.0
C1302 C 0.51847 0.83683 0.07309 0.0
C1303 C 0.53984 0.8677 0.07013 0.0
C1304 C 0.57195 0.87915 0.07353 0.0
C1305 C 0.58912 0.91364 0.06968 0.0
C1306 C 0.60236 0.92682 0.09043 0.0
C1307 C 0.61576 0.92582 0.05177 0.0
C1308 C 0.56178 0.91951 0.06281 0.0
C1309 C 0.5338 0.89241 0.063 0.0
C1310 C 0.50601 0.89101 0.05522 0.0
C1311 C 0.50639 0.91793 0.04744 0.0
C1312 C 0.534 0.94641 0.04805 0.0
C1313 C 0.56224 0.94716 0.05587 0.0
H1314 H 0.98227 0.15403 0.4206 0.0
H1315 H 0.92979 0.20336 0.42164 0.0
H1316 H 0.9798 0.25145 0.41082 0.0
H1317 H 0.05558 0.21136 0.44131 0.0
H1318 H 0.08152 0.20435 0.42492 0.0
H1319 H 0.0418 0.17436 0.43353 0.0
H1320 H 0.03062 0.16626 0.39436 0.0
H1321 H 0.0694 0.19729 0.38494 0.0
H1322 H 0.03356 0.19671 0.37529 0.0
H1323 H 0.03563 0.29418 0.39871 0.0
H1324 H 0.0934 0.3284 0.38889 0.0
H1325 H 0.10997 0.25155 0.39571 0.0
C1326 C 0.98145 0.17502 0.41861 0.0
C1327 C 0.95214 0.17507 0.42182 0.0
C1328 C 0.95204 0.20296 0.41937 0.0
C1329 C 0.98028 0.2303 0.41308 0.0
C1330 C 0.00866 0.22947 0.4095 0.0
C1331 C 0.00957 0.20258 0.41252 0.0
C1332 C 0.0433 0.20799 0.40789 0.0
C1333 C 0.05632 0.19898 0.42812 0.0
C1334 C 0.0443 0.19108 0.38952 0.0
C1335 C 0.0611 0.242 0.4014 0.0
C1336 C 0.04067 0.25398 0.40246 0.0
C1337 C 0.05174 0.28498 0.39769 0.0
C1338 C 0.08449 0.30425 0.39197 0.0
C1339 C 0.10582 0.29247 0.39081 0.0
C1340 C 0.09393 0.26098 0.39581 0.0
H1341 H 0.83518 0.79657 0.41938 0.0
H1342 H 0.8958 0.89206 0.42242 0.0
H1343 H 0.85819 0.90328 0.40118 0.0
H1344 H 0.8075 0.80278 0.366 0.0
H1345 H 0.76742 0.77256 0.37334 0.0
H1346 H 0.80077 0.77237 0.38662 0.0
H1347 H 0.77402 0.76868 0.42345 0.0
H1348 H 0.74048 0.76836 0.41025 0.0
H1349 H 0.76199 0.79629 0.42772 0.0
H1350 H 0.81348 0.90357 0.38148 0.0
H1351 H 0.76131 0.89327 0.36876 0.0
H1352 H 0.72784 0.79698 0.38007 0.0
C1353 C 0.84022 0.81976 0.41573 0.0
C1354 C 0.86796 0.84358 0.42252 0.0
C1355 C 0.87443 0.87373 0.41724 0.0
C1356 C 0.85347 0.88022 0.4051 0.0
C1357 C 0.8263 0.85616 0.39854 0.0
C1358 C 0.81938 0.82652 0.40391 0.0
C1359 C 0.78722 0.80469 0.39657 0.0
C1360 C 0.79097 0.78706 0.37963 0.0
C1361 C 0.76459 0.78326 0.41563 0.0
C1362 C 0.77658 0.82668 0.38686 0.0
C1363 C 0.79992 0.85625 0.38761 0.0
C1364 C 0.79517 0.88055 0.38056 0.0
C1365 C 0.76535 0.87444 0.37325 0.0
C1366 C 0.74068 0.84433 0.3731 0.0
C1367 C 0.74657 0.82019 0.37967 0.0
H1368 H 0.18164 0.03724 0.41135 0.0
H1369 H 0.28396 0.07789 0.4175 0.0
H1370 H 0.28338 0.03254 0.40661 0.0
H1371 H 0.15994 0.96141 0.42877 0.0
H1372 H 0.1311 0.94542 0.40912 0.0
H1373 H 0.13929 0.98093 0.41744 0.0
H1374 H 0.15343 1.00635 0.37809 0.0
H1375 H 0.14492 0.97077 0.36967 0.0
H1376 H 0.1833 1.00372 0.36243 0.0
H1377 H 0.27052 0.98066 0.39847 0.0
H1378 H 0.24782 0.92902 0.38843 0.0
H1379 H 0.15551 0.92505 0.3823 0.0
C1380 C 0.204 0.03684 0.40986 0.0
C1381 C 0.2329 0.06103 0.41533 0.0
C1382 C 0.26158 0.05944 0.41361 0.0
C1383 C 0.26146 0.03384 0.40739 0.0
C1384 C 0.23256 1.01026 0.40231 0.0
C1385 C 0.20448 1.01184 0.4029 0.0
C1386 C 0.1769 0.98372 0.39596 0.0
C1387 C 0.15024 0.96688 0.4139 0.0
C1388 C 0.16387 0.99162 0.37531 0.0
C1389 C 0.19369 0.96579 0.39198 0.0
C1390 C 0.22571 0.98134 0.39602 0.0
C1391 C 0.24562 0.9685 0.3949 0.0
C1392 C 0.23253 0.93914 0.38933 0.0
C1393 C 0.20006 0.92323 0.38452 0.0
C1394 C 0.18052 0.93688 0.3857 0.0
H1395 H 0.48889 0.66366 0.30771 0.0
H1396 H 0.54463 0.61713 0.30764 0.0
H1397 H 0.59191 0.6625 0.3173 0.0
H1398 H 0.54883 0.73792 0.28949 0.0
H1399 H 0.53691 0.75598 0.30772 0.0
H1400 H 0.5077 0.7206 0.29966 0.0
H1401 H 0.49267 0.69673 0.3393 0.0
H1402 H 0.52158 0.7322 0.34745 0.0
H1403 H 0.52363 0.6983 0.35633 0.0
H1404 H 0.63433 0.71464 0.32465 0.0
H1405 H 0.66622 0.76629 0.33455 0.0
H1406 H 0.58052 0.77517 0.33659 0.0
C1407 C 0.51048 0.66233 0.31052 0.0
C1408 C 0.51269 0.63634 0.30707 0.0
C1409 C 0.54236 0.63677 0.30991 0.0
C1410 C 0.56934 0.66243 0.31548 0.0
C1411 C 0.56628 0.68749 0.31887 0.0
C1412 C 0.53737 0.68736 0.31706 0.0
C1413 C 0.54015 0.71668 0.32281 0.0
C1414 C 0.53297 0.7338 0.30378 0.0
C1415 C 0.5182 0.71061 0.34265 0.0
C1416 C 0.57521 0.73345 0.32768 0.0
C1417 C 0.59002 0.71645 0.32491 0.0
C1418 C 0.62282 0.72792 0.3272 0.0
C1419 C 0.6408 0.75732 0.33271 0.0
C1420 C 0.62587 0.77465 0.33644 0.0
C1421 C 0.59259 0.76238 0.33399 0.0
H1422 H 0.39141 0.90698 0.31793 0.0
H1423 H 0.35873 0.81285 0.31257 0.0
H1424 H 0.30787 0.79854 0.33271 0.0
H1425 H 0.34945 0.8959 0.37096 0.0
H1426 H 0.33984 0.9255 0.3626 0.0
H1427 H 0.37607 0.92774 0.35196 0.0
H1428 H 0.35889 0.93317 0.31334 0.0
H1429 H 0.32297 0.93126 0.3239 0.0
H1430 H 0.32041 0.90504 0.30613 0.0
H1431 H 0.25918 0.79525 0.34907 0.0
H1432 H 0.21365 0.80318 0.35675 0.0
H1433 H 0.27667 0.89995 0.34962 0.0
C1434 C 0.37353 0.88339 0.32118 0.0
C1435 C 0.37857 0.86089 0.31386 0.0
C1436 C 0.35502 0.8302 0.31835 0.0
C1437 C 0.32636 0.82195 0.32985 0.0
C1438 C 0.32188 0.84477 0.33667 0.0
C1439 C 0.34471 0.87491 0.33235 0.0
C1440 C 0.33232 0.89531 0.33867 0.0
C1441 C 0.35052 0.9121 0.35715 0.0
C1442 C 0.33371 0.91747 0.31936 0.0
C1443 C 0.29832 0.87204 0.34602 0.0
C1444 C 0.29317 0.84298 0.34553 0.0
C1445 C 0.26304 0.81781 0.35 0.0
C1446 C 0.23731 0.82253 0.35443 0.0
C1447 C 0.24199 0.85215 0.35424 0.0
C1448 C 0.27286 0.87711 0.35031 0.0
H1449 H 0.08342 0.48908 0.3118 0.0
H1450 H 0.17788 0.56703 0.30076 0.0
H1451 H 0.20229 0.53472 0.31152 0.0
H1452 H 0.09774 0.45328 0.35736 0.0
H1453 H 0.075 0.41514 0.35121 0.0
H1454 H 0.06466 0.44341 0.3404 0.0
H1455 H 0.07042 0.43271 0.30202 0.0
H1456 H 0.08025 0.40399 0.31273 0.0
H1457 H 0.10707 0.43439 0.29291 0.0
H1458 H 0.21586 0.4961 0.32891 0.0
H1459 H 0.21878 0.45162 0.34631 0.0
H1460 H 0.11611 0.39649 0.34355 0.0
C1461 C 0.10923 0.49898 0.31101 0.0
C1462 C 0.12891 0.53054 0.30567 0.0
C1463 C 0.16256 0.54295 0.30502 0.0
C1464 C 0.17655 0.52478 0.31111 0.0
C1465 C 0.15656 0.49399 0.31736 0.0
C1466 C 0.12365 0.48093 0.31681 0.0
C1467 C 0.1078 0.44732 0.32492 0.0
C1468 C 0.08495 0.43934 0.34464 0.0
C1469 C 0.09035 0.42848 0.30708 0.0
C1470 C 0.13684 0.44382 0.33077 0.0
C1471 C 0.16467 0.47115 0.32638 0.0
C1472 C 0.19433 0.47443 0.33197 0.0
C1473 C 0.19572 0.44909 0.34202 0.0
C1474 C 0.16775 0.42061 0.34612 0.0
C1475 C 0.13792 0.41793 0.34029 0.0
H1476 H 0.39466 0.51298 0.28439 0.0
H1477 H 0.42464 0.54701 0.34507 0.0
H1478 H 0.37374 0.5071 0.3624 0.0
H1479 H 0.3114 0.47962 0.29004 0.0
H1480 H 0.30288 0.44463 0.2806 0.0
H1481 H 0.33946 0.4787 0.27148 0.0
H1482 H 0.37262 0.45274 0.28446 0.0
H1483 H 0.33611 0.41842 0.29333 0.0
H1484 H 0.36673 0.43525 0.31177 0.0
H1485 H 0.31258 0.47089 0.36971 0.0
H1486 H 0.25895 0.42606 0.37231 0.0
H1487 H 0.28064 0.40082 0.3146 0.0
C1488 C 0.39137 0.51274 0.30121 0.0
C1489 C 0.41307 0.53648 0.31254 0.0
C1490 C 0.40715 0.53217 0.33512 0.0
C1491 C 0.3784 0.50894 0.34537 0.0
C1492 C 0.35674 0.48769 0.33338 0.0
C1493 C 0.36403 0.48788 0.31223 0.0
C1494 C 0.33916 0.45889 0.30426 0.0
C1495 C 0.32223 0.4659 0.28548 0.0
C1496 C 0.35458 0.44022 0.29809 0.0
C1497 C 0.31632 0.44321 0.32407 0.0
C1498 C 0.32625 0.46115 0.34025 0.0
C1499 C 0.30604 0.45511 0.35814 0.0
C1500 C 0.27592 0.42907 0.36009 0.0
C1501 C 0.26735 0.40755 0.34584 0.0
C1502 C 0.28756 0.4154 0.327 0.0
H1503 H 0.51361 0.91829 0.30149 0.0
H1504 H 0.46014 0.8244 0.29159 0.0
H1505 H 0.50476 0.81628 0.3043 0.0
H1506 H 0.59362 0.92879 0.28451 0.0
H1507 H 0.61329 0.95387 0.30408 0.0
H1508 H 0.57806 0.9523 0.29257 0.0
H1509 H 0.55172 0.94096 0.33072 0.0
H1510 H 0.58612 0.94096 0.34245 0.0
H1511 H 0.54706 0.90836 0.34822 0.0
H1512 H 0.55092 0.81694 0.32229 0.0
H1513 H 0.60252 0.82843 0.33679 0.0
H1514 H 0.62875 0.92301 0.33289 0.0
C1515 C 0.51206 0.89646 0.30113 0.0
C1516 C 0.48389 0.87191 0.29548 0.0
C1517 C 0.4819 0.84331 0.29578 0.0
C1518 C 0.50686 0.83852 0.30313 0.0
C1519 C 0.53372 0.86282 0.30966 0.0
C1520 C 0.53704 0.89145 0.30809 0.0
C1521 C 0.56849 0.91353 0.31627 0.0
C1522 C 0.58963 0.9386 0.29828 0.0
C1523 C 0.563 0.92673 0.33556 0.0
C1524 C 0.58209 0.89268 0.32289 0.0
C1525 C 0.56124 0.86344 0.31934 0.0
C1526 C 0.56766 0.83981 0.32492 0.0
C1527 C 0.5969 0.84649 0.33348 0.0
C1528 C 0.6194 0.87649 0.33626 0.0
C1529 C 0.61177 0.89985 0.33107 0.0
H1530 H 0.09844 0.60759 0.34643 0.0
H1531 H 0.1343 0.63858 0.28027 0.0
H1532 H 0.14708 0.69047 0.28526 0.0
H1533 H 0.06378 0.65532 0.35132 0.0
H1534 H 0.07625 0.66331 0.37785 0.0
H1535 H 0.06948 0.62832 0.36928 0.0
H1536 H 0.12699 0.64021 0.37841 0.0
H1537 H 0.13369 0.67508 0.38717 0.0
H1538 H 0.16051 0.67552 0.36693 0.0
H1539 H 0.15339 0.73791 0.29658 0.0
H1540 H 0.15793 0.78009 0.31444 0.0
H1541 H 0.12217 0.72068 0.37445 0.0
C1542 C 0.10932 0.62547 0.33314 0.0
C1543 C 0.11511 0.61914 0.31285 0.0
C1544 C 0.12925 0.64299 0.29578 0.0
C1545 C 0.13667 0.67247 0.29851 0.0
C1546 C 0.13039 0.67798 0.31857 0.0
C1547 C 0.11754 0.65536 0.33574 0.0
C1548 C 0.11404 0.66791 0.35571 0.0
C1549 C 0.07879 0.65281 0.36402 0.0
C1550 C 0.13506 0.66447 0.37308 0.0
C1551 C 0.12645 0.70092 0.34693 0.0
C1552 C 0.13547 0.70602 0.32542 0.0
C1553 C 0.14661 0.73426 0.31345 0.0
C1554 C 0.14883 0.75804 0.32372 0.0
C1555 C 0.14032 0.75369 0.34582 0.0
C1556 C 0.12913 0.72473 0.35761 0.0
H1557 H 0.85115 0.08772 0.38348 0.0
H1558 H 0.86249 0.05049 0.44606 0.0
H1559 H 0.82315 0.99919 0.4389 0.0
H1560 H 0.76825 0.03939 0.38091 0.0
H1561 H 0.76956 0.03445 0.35319 0.0
H1562 H 0.79966 0.06838 0.36253 0.0
H1563 H 0.84432 0.05891 0.34807 0.0
H1564 H 0.81424 0.02522 0.3384 0.0
H1565 H 0.84292 0.02316 0.35613 0.0
H1566 H 0.77911 0.95308 0.42672 0.0
H1567 H 0.73781 0.91306 0.40832 0.0
H1568 H 0.75703 0.97778 0.35182 0.0
C1569 C 0.84585 0.0686 0.39538 0.0
C1570 C 0.8598 0.073 0.41541 0.0
C1571 C 0.85193 0.04753 0.43074 0.0
C1572 C 0.82963 0.01837 0.42679 0.0
C1573 C 0.81571 0.01479 0.40718 0.0
C1574 C 0.82397 0.03901 0.39147 0.0
C1575 C 0.80531 0.02847 0.37174 0.0
C1576 C 0.78446 0.04358 0.36681 0.0
C1577 C 0.82806 0.03429 0.35244 0.0
C1578 C 0.78479 0.99477 0.37908 0.0
C1579 C 0.79111 0.98757 0.39968 0.0
C1580 C 0.77423 0.95839 0.4105 0.0
C1581 C 0.75053 0.93583 0.39999 0.0
C1582 C 0.74402 0.94228 0.37871 0.0
C1583 C 0.76159 0.97217 0.36805 0.0
H1584 H 0.94222 0.78533 0.42597 0.0
H1585 H 0.99042 0.87904 0.4368 0.0
H1586 H 0.04083 0.88592 0.42024 0.0
H1587 H 0.01058 0.77241 0.43822 0.0
H1588 H 1.00146 0.74716 0.41837 0.0
H1589 H 0.96976 0.74997 0.43152 0.0
H1590 H 0.95244 0.76249 0.39441 0.0
H1591 H 0.98484 0.76079 0.38121 0.0
H1592 H 0.98102 0.79442 0.37627 0.0
H1593 H 0.0833 0.88387 0.39959 0.0
H1594 H 0.12088 0.87054 0.38422 0.0
H1595 H 0.04717 0.77674 0.38931 0.0
C1596 C 0.96372 0.80687 0.42563 0.0
C1597 C 0.96291 0.83169 0.43276 0.0
C1598 C 0.9911 0.8599 0.43148 0.0
C1599 C 0.01952 0.86403 0.42192 0.0
C1600 C 0.01923 0.83946 0.41414 0.0
C1601 C 0.99248 0.81118 0.41652 0.0
C1602 C 0.99917 0.78843 0.40738 0.0
C1603 C 0.99501 0.76299 0.42492 0.0
C1604 C 0.9781 0.77579 0.38871 0.0
C1605 C 0.03389 0.80842 0.39956 0.0
C1606 C 0.04453 0.83792 0.40309 0.0
C1607 C 0.07537 0.86081 0.39688 0.0
C1608 C 0.09651 0.85306 0.38783 0.0
C1609 C 0.08686 0.82271 0.38529 0.0
C1610 C 0.05497 0.80017 0.39088 0.0
H1611 H 0.24443 0.16992 0.39108 0.0
H1612 H 0.19952 0.14188 0.45522 0.0
H1613 H 0.18516 0.18266 0.45052 0.0
H1614 H 0.27616 0.24951 0.39047 0.0
H1615 H 0.26786 0.25642 0.36314 0.0
H1616 H 0.27493 0.22521 0.37147 0.0
H1617 H 0.22027 0.18815 0.35787 0.0
H1618 H 0.21354 0.21952 0.3493 0.0
H1619 H 0.18441 0.18775 0.36724 0.0
H1620 H 0.17693 0.22672 0.43947 0.0
H1621 H 0.17417 0.27138 0.42253 0.0
H1622 H 0.22129 0.26998 0.36435 0.0
C1623 C 0.23112 0.1721 0.40396 0.0
C1624 C 0.22294 0.15268 0.42355 0.0
C1625 C 0.20625 0.15674 0.44023 0.0
C1626 C 0.19784 0.17967 0.43764 0.0
C1627 C 0.20598 0.19826 0.41813 0.0
C1628 C 0.22207 0.19471 0.40149 0.0
C1629 C 0.22781 0.21791 0.38217 0.0
C1630 C 0.26384 0.23848 0.37649 0.0
C1631 C 0.21047 0.20239 0.36301 0.0
C1632 C 0.21271 0.23521 0.39066 0.0
C1633 C 0.20037 0.22342 0.41147 0.0
C1634 C 0.1863 0.23602 0.42315 0.0
C1635 C 0.18495 0.26145 0.4134 0.0
C1636 C 0.1973 0.27399 0.39209 0.0
C1637 C 0.21111 0.2605 0.38049 0.0
H1638 H 0.65298 0.49637 0.75661 0.0
H1639 H 0.5886 0.5317 0.73993 0.0
H1640 H 0.63468 0.58124 0.72602 0.0
H1641 H 0.71977 0.56575 0.77134 0.0
H1642 H 0.74997 0.55955 0.75937 0.0
H1643 H 0.7121 0.52782 0.76961 0.0
H1644 H 0.70533 0.50893 0.73313 0.0
H1645 H 0.74172 0.54141 0.72147 0.0
H1646 H 0.70411 0.53195 0.70971 0.0
H1647 H 0.68761 0.62736 0.71558 0.0
H1648 H 0.74393 0.66653 0.70664 0.0
H1649 H 0.77498 0.60062 0.72553 0.0
C1650 C 0.64888 0.51483 0.75033 0.0
C1651 C 0.61739 0.51081 0.75017 0.0
C1652 C 0.61261 0.53492 0.74115 0.0
C1653 C 0.63862 0.56294 0.73295 0.0
C1654 C 0.66938 0.56632 0.73337 0.0
C1655 C 0.67471 0.5429 0.74166 0.0
C1656 C 0.71016 0.55232 0.73923 0.0
C1657 C 0.7238 0.5513 0.76119 0.0
C1658 C 0.71569 0.53251 0.72503 0.0
C1659 C 0.72388 0.58468 0.72833 0.0
C1660 C 0.69984 0.5923 0.72543 0.0
C1661 C 0.70653 0.6215 0.71736 0.0
C1662 C 0.73855 0.64358 0.71229 0.0
C1663 C 0.76358 0.63632 0.7146 0.0
C1664 C 0.75614 0.60642 0.72272 0.0
H1665 H 0.49655 0.11926 0.74042 0.0
H1666 H 0.56502 0.21422 0.73744 0.0
H1667 H 0.526 0.22732 0.71977 0.0
H1668 H 0.45851 0.12474 0.68931 0.0
H1669 H 0.41939 0.09638 0.70054 0.0
H1670 H 0.45448 0.09481 0.70948 0.0
H1671 H 0.43747 0.0943 0.74863 0.0
H1672 H 0.40252 0.09599 0.73979 0.0
H1673 H 0.43032 0.12417 0.75516 0.0
H1674 H 0.4778 0.22955 0.70732 0.0
H1675 H 0.42394 0.22159 0.70081 0.0
H1676 H 0.38595 0.12463 0.71201 0.0
C1677 C 0.50325 0.14274 0.73569 0.0
C1678 C 0.53328 0.16593 0.74022 0.0
C1679 C 0.54187 0.19645 0.73396 0.0
C1680 C 0.52002 0.20393 0.72389 0.0
C1681 C 0.49009 0.18046 0.72011 0.0
C1682 C 0.48176 0.15046 0.7257 0.0
C1683 C 0.44717 0.12962 0.72179 0.0
C1684 C 0.44476 0.11024 0.70424 0.0
C1685 C 0.42827 0.10988 0.74258 0.0
C1686 C 0.43679 0.1526 0.71417 0.0
C1687 C 0.46211 0.18174 0.71286 0.0
C1688 C 0.458 0.20685 0.70777 0.0
C1689 C 0.42719 0.20207 0.70407 0.0
C1690 C 0.40091 0.17247 0.70528 0.0
C1691 C 0.40582 0.14745 0.71042 0.0
H1692 H 0.8801 0.39143 0.72206 0.0
H1693 H 0.83049 0.35977 0.78471 0.0
H1694 H 0.81178 0.30692 0.77877 0.0
H1695 H 0.819 0.32698 0.69536 0.0
H1696 H 0.84912 0.326 0.67883 0.0
H1697 H 0.85586 0.36122 0.68702 0.0
H1698 H 0.90867 0.36841 0.70309 0.0
H1699 H 0.9019 0.33314 0.69511 0.0
H1700 H 0.90778 0.33927 0.72269 0.0
H1701 H 0.8048 0.25873 0.7684 0.0
H1702 H 0.80572 0.21692 0.75272 0.0
H1703 H 0.85653 0.27795 0.69545 0.0
C1704 C 0.86459 0.3732 0.73419 0.0
C1705 C 0.85674 0.37946 0.7539 0.0
C1706 C 0.83682 0.35525 0.76962 0.0
C1707 C 0.82606 0.32524 0.76634 0.0
C1708 C 0.83499 0.31972 0.74706 0.0
C1709 C 0.85333 0.3429 0.73105 0.0
C1710 C 0.86059 0.33052 0.71224 0.0
C1711 C 0.84522 0.33654 0.69217 0.0
C1712 C 0.89689 0.34362 0.70805 0.0
C1713 C 0.84441 0.297 0.72054 0.0
C1714 C 0.82977 0.29138 0.74067 0.0
C1715 C 0.81554 0.26272 0.75247 0.0
C1716 C 0.81628 0.23916 0.7435 0.0
C1717 C 0.83067 0.24422 0.72282 0.0
C1718 C 0.84465 0.27343 0.71108 0.0
H1719 H 0.1756 0.96411 0.67471 0.0
H1720 H 0.16173 0.9903 0.60949 0.0
H1721 H 0.20042 0.04361 0.61255 0.0
H1722 H 0.18119 0.03163 0.69516 0.0
H1723 H 0.21036 0.03322 0.71382 0.0
H1724 H 0.18146 0.99747 0.70615 0.0
H1725 H 0.22819 0.98872 0.69473 0.0
H1726 H 0.25694 0.02492 0.70188 0.0
H1727 H 0.25887 0.01622 0.67524 0.0
H1728 H 0.2435 0.09356 0.6218 0.0
H1729 H 0.28334 0.13774 0.63786 0.0
H1730 H 0.26635 0.08102 0.69834 0.0
C1731 C 0.18031 0.9812 0.66126 0.0
C1732 C 0.16571 0.97302 0.64177 0.0
C1733 C 0.17289 0.99602 0.62443 0.0
C1734 C 0.19479 0.02636 0.62605 0.0
C1735 C 0.20908 0.03367 0.64533 0.0
C1736 C 0.20175 1.01188 0.66278 0.0
C1737 C 0.22009 0.02612 0.68177 0.0
C1738 C 0.19688 0.02186 0.70032 0.0
C1739 C 0.24234 0.01322 0.68881 0.0
C1740 C 0.23918 0.05918 0.67217 0.0
C1741 C 0.23266 0.06289 0.65104 0.0
C1742 C 0.24845 0.09096 0.63841 0.0
C1743 C 0.27119 0.11592 0.64763 0.0
C1744 C 0.2777 0.11297 0.6694 0.0
C1745 C 0.26139 0.08413 0.6818 0.0
H1746 H 0.0155 0.16436 0.65963 0.0
H1747 H 0.08256 0.25945 0.65815 0.0
H1748 H 0.0413 0.26697 0.67588 0.0
H1749 H 0.94941 0.1714 0.64679 0.0
H1750 H 0.92056 0.13881 0.6643 0.0
H1751 H 0.95665 0.14014 0.65465 0.0
H1752 H 0.96896 0.13014 0.69346 0.0
H1753 H 0.93406 0.13051 0.70396 0.0
H1754 H 0.97326 0.15585 0.71206 0.0
H1755 H 0.99123 0.26624 0.6858 0.0
H1756 H 0.93548 0.25619 0.69124 0.0
H1757 H 0.90111 0.16072 0.69012 0.0
C1758 C 0.02143 0.18642 0.66372 0.0
C1759 C 0.0518 0.21141 0.65781 0.0
C1760 C 0.05919 0.24024 0.66285 0.0
C1761 C 0.03604 0.24461 0.67291 0.0
C1762 C 0.00588 0.21973 0.67813 0.0
C1763 C 0.99857 0.19106 0.67405 0.0
C1764 C 0.96355 0.16878 0.67974 0.0
C1765 C 0.94656 0.15394 0.66021 0.0
C1766 C 0.9597 0.14489 0.69843 0.0
C1767 C 0.9521 0.18979 0.68642 0.0
C1768 C 0.97697 0.21906 0.68546 0.0
C1769 C 0.97168 0.24328 0.68753 0.0
C1770 C 0.94009 0.23747 0.69049 0.0
C1771 C 0.9145 0.20765 0.69196 0.0
C1772 C 0.92056 0.1835 0.69017 0.0
H1773 H 0.83884 0.88029 0.6432 0.0
H1774 H 0.7412 0.8324 0.62477 0.0
H1775 H 0.74169 0.78401 0.63276 0.0
H1776 H 0.86778 0.83035 0.62732 0.0
H1777 H 0.89015 0.83305 0.65075 0.0
H1778 H 0.88401 0.86413 0.64009 0.0
H1779 H 0.85889 0.86266 0.67694 0.0
H1780 H 0.86526 0.83174 0.68753 0.0
H1781 H 0.82571 0.82776 0.68934 0.0
H1782 H 0.75222 0.74038 0.64463 0.0
H1783 H 0.77065 0.70522 0.66086 0.0
H1784 H 0.85838 0.78123 0.67669 0.0
C1785 C 0.81764 0.85963 0.64073 0.0
C1786 C 0.79009 0.86022 0.63302 0.0
C1787 C 0.76292 0.83268 0.62987 0.0
C1788 C 0.76288 0.80502 0.63468 0.0
C1789 C 0.79002 0.80519 0.64303 0.0
C1790 C 0.81684 0.83181 0.64619 0.0
C1791 C 0.84171 0.8257 0.65731 0.0
C1792 C 0.87275 0.8391 0.64301 0.0
C1793 C 0.84826 0.83768 0.67907 0.0
C1794 C 0.82465 0.79148 0.66003 0.0
C1795 C 0.79511 0.78008 0.65133 0.0
C1796 C 0.77526 0.74909 0.65153 0.0
C1797 C 0.78592 0.72929 0.66077 0.0
C1798 C 0.81581 0.74047 0.67014 0.0
C1799 C 0.83527 0.772 0.66984 0.0
H1800 H 0.08069 0.83703 0.6426 0.0
H1801 H 0.04614 0.90163 0.64126 0.0
H1802 H 0.99119 0.85993 0.65122 0.0
H1803 H 0.00939 0.77874 0.62 0.0
H1804 H 0.0109 0.74792 0.63616 0.0
H1805 H 0.04725 0.78288 0.62834 0.0
H1806 H 0.0598 0.78613 0.66787 0.0
H1807 H 0.02295 0.75201 0.67637 0.0
H1808 H 0.03181 0.78653 0.6867 0.0
H1809 H 0.94034 0.8115 0.66256 0.0
H1810 H 0.89672 0.75971 0.67316 0.0
H1811 H 0.96263 0.72496 0.66654 0.0
C1812 C 0.06141 0.84224 0.64416 0.0
C1813 C 0.06778 0.87266 0.64156 0.0
C1814 C 0.04195 0.87863 0.6437 0.0
C1815 C 0.01063 0.85504 0.64923 0.0
C1816 C 1.00525 0.82538 0.65224 0.0
C1817 C 0.02981 0.81881 0.64951 0.0
C1818 C 0.01734 0.78486 0.65371 0.0
C1819 C 0.02147 0.77289 0.63334 0.0
C1820 C 0.03395 0.77691 0.67227 0.0
C1821 C 0.98212 0.77346 0.65969 0.0
C1822 C 0.97575 0.79731 0.65862 0.0
C1823 C 0.94513 0.79271 0.66347 0.0
C1824 C 0.92043 0.7631 0.66967 0.0
C1825 C 0.92625 0.7382 0.67131 0.0
C1826 C 0.9575 0.74354 0.66578 0.0
H1827 H 0.15033 0.18314 0.64137 0.0
H1828 H 0.17125 0.27424 0.64763 0.0
H1829 H 0.22423 0.28571 0.66039 0.0
H1830 H 0.18326 0.17384 0.69009 0.0
H1831 H 0.19948 0.15108 0.68153 0.0
H1832 H 0.16461 0.15 0.66971 0.0
H1833 H 0.19206 0.16523 0.63172 0.0
H1834 H 0.22646 0.16463 0.64293 0.0
H1835 H 0.2311 0.19804 0.62651 0.0
H1836 H 0.27502 0.28737 0.67172 0.0
H1837 H 0.32035 0.27876 0.68168 0.0
H1838 H 0.26348 0.18441 0.67334 0.0
C1839 C 0.16673 0.20573 0.64474 0.0
C1840 C 0.15788 0.22854 0.64213 0.0
C1841 C 0.17872 0.25733 0.64793 0.0
C1842 C 0.2085 0.26375 0.6557 0.0
C1843 C 0.21647 0.24071 0.65828 0.0
C1844 C 0.19617 0.21219 0.6531 0.0
C1845 C 0.20965 0.19096 0.65879 0.0
C1846 C 0.18796 0.16492 0.67606 0.0
C1847 C 0.21515 0.17902 0.6388 0.0
C1848 C 0.24099 0.21221 0.66751 0.0
C1849 C 0.24445 0.24082 0.667 0.0
C1850 C 0.27241 0.26496 0.6726 0.0
C1851 C 0.29789 0.25989 0.67831 0.0
C1852 C 0.29479 0.23081 0.67893 0.0
C1853 C 0.26584 0.20657 0.67381 0.0
H1854 H 0.82534 0.99049 0.62727 0.0
H1855 H 0.7574 0.92326 0.67638 0.0
H1856 H 0.76146 0.96376 0.69648 0.0
H1857 H 0.8755 0.04517 0.66147 0.0
H1858 H 0.88131 0.07758 0.64324 0.0
H1859 H 0.8743 0.04344 0.6331 0.0
H1860 H 0.82603 0.04183 0.61335 0.0
H1861 H 0.83302 0.07607 0.62333 0.0
H1862 H 0.79435 0.04273 0.62819 0.0
H1863 H 0.77332 1.01117 0.7114 0.0
H1864 H 0.78868 0.06276 0.71886 0.0
H1865 H 0.84671 0.10019 0.65924 0.0
C1866 C 0.8115 0.98449 0.64231 0.0
C1867 C 0.79175 0.95383 0.65071 0.0
C1868 C 0.77338 0.94663 0.67014 0.0
C1869 C 0.77544 0.96945 0.68155 0.0
C1870 C 0.79553 0.99946 0.67307 0.0
C1871 C 0.81295 1.00711 0.65376 0.0
C1872 C 0.83158 0.04121 0.64783 0.0
C1873 C 0.86782 0.05251 0.64632 0.0
C1874 C 0.82058 0.05103 0.62693 0.0
C1875 C 0.82198 0.05146 0.66685 0.0
C1876 C 0.80143 0.02695 0.68131 0.0
C1877 C 0.78948 0.03052 0.70024 0.0
C1878 C 0.79858 0.05987 0.70447 0.0
C1879 C 0.81929 0.08525 0.68985 0.0
C1880 C 0.831 0.08103 0.67073 0.0
H1881 H 0.52103 0.41919 0.71885 0.0
H1882 H 0.53203 0.38187 0.78154 0.0
H1883 H 0.49252 0.33071 0.77439 0.0
H1884 H 0.43788 0.37115 0.71643 0.0
H1885 H 0.43911 0.36622 0.6887 0.0
H1886 H 0.46934 0.40008 0.69805 0.0
H1887 H 0.51367 0.39035 0.68345 0.0
H1888 H 0.48352 0.35657 0.6739 0.0
H1889 H 0.51229 0.35463 0.6916 0.0
H1890 H 0.44864 0.28475 0.76222 0.0
H1891 H 0.40654 0.24491 0.7442 0.0
H1892 H 0.42554 0.30948 0.68759 0.0
C1893 C 0.51553 0.40011 0.73083 0.0
C1894 C 0.52934 0.40453 0.75093 0.0
C1895 C 0.52134 0.37903 0.76627 0.0
C1896 C 0.49902 0.3499 0.76229 0.0
C1897 C 0.48523 0.34633 0.74264 0.0
C1898 C 0.49353 0.37056 0.72694 0.0
C1899 C 0.47477 0.36004 0.70722 0.0
C1900 C 0.45405 0.37528 0.70232 0.0
C1901 C 0.49742 0.36574 0.6879 0.0
C1902 C 0.45414 0.32634 0.71458 0.0
C1903 C 0.46061 0.31915 0.73514 0.0
C1904 C 0.44365 0.29003 0.74603 0.0
C1905 C 0.41957 0.26757 0.73569 0.0
C1906 C 0.41267 0.27402 0.71451 0.0
C1907 C 0.43047 0.30382 0.70372 0.0
H1908 H 0.65033 0.17848 0.74741 0.0
H1909 H 0.57989 0.08366 0.75369 0.0
H1910 H 0.62106 0.0716 0.74154 0.0
H1911 H 0.68775 0.17849 0.69877 0.0
H1912 H 0.72799 0.2049 0.70451 0.0
H1913 H 0.69441 0.20688 0.71562 0.0
H1914 H 0.71073 0.20129 0.75421 0.0
H1915 H 0.74566 0.20154 0.74341 0.0
H1916 H 0.7189 0.17086 0.76308 0.0
H1917 H 0.67068 0.07026 0.72982 0.0
H1918 H 0.72528 0.07964 0.72014 0.0
H1919 H 0.76111 0.17595 0.71746 0.0
C1920 C 0.64386 0.15518 0.74646 0.0
C1921 C 0.61237 0.13185 0.75205 0.0
C1922 C 0.60424 0.10163 0.75032 0.0
C1923 C 0.62732 0.0947 0.74305 0.0
C1924 C 0.65808 0.1184 0.73718 0.0
C1925 C 0.66636 0.14804 0.73879 0.0
C1926 C 0.70076 0.16946 0.73103 0.0
C1927 C 0.70286 0.19123 0.7113 0.0
C1928 C 0.72014 0.18678 0.74901 0.0
C1929 C 0.71083 0.14715 0.72524 0.0
C1930 C 0.68589 0.11781 0.72887 0.0
C1931 C 0.69024 0.09314 0.7265 0.0
C1932 C 0.72115 0.09862 0.72095 0.0
C1933 C 0.74691 0.12848 0.71744 0.0
C1934 C 0.74154 0.15301 0.71918 0.0
H1935 H 0.90012 0.49879 0.72637 0.0
H1936 H 0.85502 0.47659 0.79007 0.0
H1937 H 0.85105 0.52352 0.78535 0.0
H1938 H 0.94494 0.58107 0.72621 0.0
H1939 H 0.93858 0.58909 0.69861 0.0
H1940 H 0.94038 0.55509 0.70767 0.0
H1941 H 0.88359 0.52156 0.69421 0.0
H1942 H 0.88452 0.55625 0.68389 0.0
H1943 H 0.85128 0.52823 0.70156 0.0
H1944 H 0.84968 0.57167 0.77301 0.0
H1945 H 0.848 0.61564 0.75331 0.0
H1946 H 0.89304 0.60678 0.69715 0.0
C1947 C 0.8896 0.50406 0.73929 0.0
C1948 C 0.87839 0.48446 0.75873 0.0
C1949 C 0.86454 0.49177 0.7753 0.0
C1950 C 0.86204 0.51829 0.77269 0.0
C1951 C 0.87341 0.53725 0.75334 0.0
C1952 C 0.88682 0.53043 0.73688 0.0
C1953 C 0.89566 0.55382 0.71732 0.0
C1954 C 0.93206 0.57077 0.71216 0.0
C1955 C 0.87761 0.53905 0.69813 0.0
C1956 C 0.88428 0.57442 0.72508 0.0
C1957 C 0.87206 0.56471 0.74606 0.0
C1958 C 0.85956 0.57966 0.75667 0.0
C1959 C 0.85908 0.60488 0.74547 0.0
C1960 C 0.87107 0.61503 0.72393 0.0
C1961 C 0.8839 0.59961 0.71365 0.0
H1962 H 0.46875 0.88758 0.24161 0.0
H1963 H 0.48558 0.95317 0.28451 0.0
H1964 H 0.52082 0.99462 0.25644 0.0
H1965 H 0.54952 0.92818 0.21245 0.0
H1966 H 0.53304 0.91744 0.18718 0.0
H1967 H 0.51328 0.89295 0.21161 0.0
H1968 H 0.46085 0.89351 0.20187 0.0
H1969 H 0.48048 0.91827 0.17758 0.0
H1970 H 0.46107 0.92915 0.19652 0.0
H1971 H 0.5491 0.0286 0.223 0.0
H1972 H 0.56942 0.05358 0.18625 0.0
H1973 H 0.53375 0.96592 0.16439 0.0
C1974 C 0.48081 0.91067 0.24509 0.0
C1975 C 0.47532 0.91759 0.26508 0.0
C1976 C 0.49025 0.94787 0.26923 0.0
C1977 C 0.51015 0.97135 0.25344 0.0
C1978 C 0.51459 0.964 0.2336 0.0
C1979 C 0.50049 0.9344 0.22937 0.0
C1980 C 0.50689 0.93292 0.20616 0.0
C1981 C 0.52688 0.91693 0.20424 0.0
C1982 C 0.47545 0.91756 0.19488 0.0
C1983 C 0.52602 0.96628 0.19792 0.0
C1984 C 0.5305 0.98376 0.21408 0.0
C1985 C 0.54621 0.01518 0.21025 0.0
C1986 C 0.55774 0.02916 0.18933 0.0
C1987 C 0.55335 1.01174 0.17245 0.0
C1988 C 0.53736 0.97986 0.17692 0.0
H1989 H 0.03813 0.5111 0.27647 0.0
H1990 H 0.13876 0.56566 0.25748 0.0
H1991 H 0.12704 0.55787 0.21978 0.0
H1992 H 0.01746 0.45745 0.23411 0.0
H1993 H 0.97933 0.45621 0.23105 0.0
H1994 H 0.99667 0.46061 0.25666 0.0
H1995 H 0.99203 0.50902 0.25753 0.0
H1996 H 0.97553 0.50537 0.23175 0.0
H1997 H 0.01096 0.53966 0.23602 0.0
H1998 H 0.10294 0.55364 0.1839 0.0
H1999 H 0.0698 0.54849 0.15324 0.0
H2000 H 0.98423 0.49304 0.19536 0.0
C2001 C 0.0577 0.51989 0.26444 0.0
C2002 C 0.08941 0.5384 0.26979 0.0
C2003 C 0.11449 0.55074 0.25366 0.0
C2004 C 0.10794 0.54665 0.23221 0.0
C2005 C 0.07615 0.52973 0.22722 0.0
C2006 C 0.05148 0.51584 0.24297 0.0
C2007 C 0.0192 0.50135 0.23326 0.0
C2008 C 1.00216 0.46685 0.23911 0.0
C2009 C 0.99822 0.51466 0.24004 0.0
C2010 C 0.02944 0.51042 0.20963 0.0
C2011 C 0.06235 0.52666 0.20646 0.0
C2012 C 0.07717 0.54007 0.18616 0.0
C2013 C 0.05794 0.53682 0.1687 0.0
C2014 C 0.02399 0.52003 0.17143 0.0
C2015 C 0.0099 0.50627 0.19233 0.0
H2016 H 0.48704 0.53358 0.27562 0.0
H2017 H 0.41882 0.56275 0.25556 0.0
H2018 H 0.41397 0.54108 0.22167 0.0
H2019 H 0.52862 0.55492 0.22588 0.0
H2020 H 0.5378 0.52436 0.2275 0.0
H2021 H 0.53168 0.53723 0.25155 0.0
H2022 H 0.4872 0.48311 0.26574 0.0
H2023 H 0.49343 0.4699 0.24185 0.0
H2024 H 0.4541 0.4635 0.24958 0.0
H2025 H 0.41983 0.51935 0.18877 0.0
H2026 H 0.43592 0.50005 0.15969 0.0
H2027 H 0.5046 0.4896 0.20003 0.0
C2028 C 0.47004 0.53407 0.26444 0.0
C2029 C 0.45192 0.54831 0.26861 0.0
C2030 C 0.43165 0.55063 0.25299 0.0
C2031 C 0.42901 0.53861 0.23368 0.0
C2032 C 0.44755 0.52506 0.2299 0.0
C2033 C 0.46773 0.52278 0.24486 0.0
C2034 C 0.48759 0.51014 0.23601 0.0
C2035 C 0.52355 0.53303 0.23518 0.0
C2036 C 0.48012 0.47986 0.24907 0.0
C2037 C 0.47561 0.5058 0.21372 0.0
C2038 C 0.45232 0.51426 0.21057 0.0
C2039 C 0.43806 0.51264 0.19111 0.0
C2040 C 0.44767 0.50192 0.17454 0.0
C2041 C 0.47168 0.4932 0.17729 0.0
C2042 C 0.48578 0.49542 0.19728 0.0
H2043 H 0.86786 0.43996 0.81783 0.0
H2044 H 0.95347 0.49457 0.77645 0.0
H2045 H 0.98225 0.52045 0.80705 0.0
H2046 H 0.87827 0.50043 0.84869 0.0
H2047 H 0.86178 0.475 0.8732 0.0
H2048 H 0.84864 0.46156 0.84793 0.0
H2049 H 0.86395 0.41941 0.85759 0.0
H2050 H 0.87757 0.43299 0.88274 0.0
H2051 H 0.90424 0.42957 0.86447 0.0
H2052 H 1.00205 0.53749 0.84305 0.0
H2053 H 0.00963 0.54937 0.88032 0.0
H2054 H 0.90962 0.48554 0.89733 0.0
C2055 C 0.89254 0.4577 0.81533 0.0
C2056 C 0.9087 0.46566 0.79504 0.0
C2057 C 0.94095 0.48866 0.79201 0.0
C2058 C 0.95735 0.50321 0.80925 0.0
C2059 C 0.94083 0.49463 0.82925 0.0
C2060 C 0.90893 0.47282 0.83223 0.0
C2061 C 0.89636 0.46821 0.8551 0.0
C2062 C 0.86969 0.47682 0.8563 0.0
C2063 C 0.88486 0.43561 0.86559 0.0
C2064 C 0.92631 0.49037 0.86469 0.0
C2065 C 0.95182 0.50522 0.84961 0.0
C2066 C 0.98217 0.52619 0.85494 0.0
C2067 C 0.98634 0.53261 0.87612 0.0
C2068 C 0.96021 0.51836 0.89158 0.0
C2069 C 0.92994 0.49683 0.88576 0.0
H2070 H 0.58418 0.46335 0.81568 0.0
H2071 H 0.5631 0.52328 0.77289 0.0
H2072 H 0.56095 0.54917 0.80311 0.0
H2073 H 0.52996 0.45297 0.85784 0.0
H2074 H 0.5546 0.45158 0.87912 0.0
H2075 H 0.55852 0.44015 0.85385 0.0
H2076 H 0.61908 0.47878 0.85025 0.0
H2077 H 0.61551 0.48996 0.87571 0.0
H2078 H 0.63202 0.51789 0.85241 0.0
H2079 H 0.55849 0.5669 0.83846 0.0
H2080 H 0.55766 0.57629 0.876 0.0
H2081 H 0.57676 0.5027 0.89672 0.0
C2082 C 0.58018 0.4826 0.8127 0.0
C2083 C 0.57539 0.49237 0.79176 0.0
C2084 C 0.5687 0.51664 0.7885 0.0
C2085 C 0.56683 0.53107 0.8057 0.0
C2086 C 0.57122 0.52064 0.8262 0.0
C2087 C 0.57789 0.49701 0.82978 0.0
C2088 C 0.57991 0.48912 0.85351 0.0
C2089 C 0.55421 0.45652 0.86155 0.0
C2090 C 0.61363 0.49425 0.85825 0.0
C2091 C 0.57309 0.51184 0.86275 0.0
C2092 C 0.56828 0.52988 0.84668 0.0
C2093 C 0.56214 0.55285 0.85115 0.0
C2094 C 0.56153 0.55793 0.8725 0.0
C2095 C 0.56661 0.53993 0.88922 0.0
C2096 C 0.57215 0.51638 0.88427 0.0
H2097 H 0.59284 0.12887 0.8121 0.0
H2098 H 0.5248 0.07213 0.77009 0.0
H2099 H 0.50175 0.02962 0.79934 0.0
H2100 H 0.60175 0.06553 0.84551 0.0
H2101 H 0.60438 0.08216 0.86962 0.0
H2102 H 0.61985 0.10597 0.84436 0.0
H2103 H 0.58433 0.13014 0.85085 0.0
H2104 H 0.56814 0.106 0.87582 0.0
H2105 H 0.54165 0.10632 0.85555 0.0
H2106 H 0.4786 0.99877 0.83376 0.0
H2107 H 0.46061 0.97703 0.87079 0.0
H2108 H 0.54675 0.05058 0.89167 0.0
C2109 C 0.57428 0.10692 0.80897 0.0
C2110 C 0.56107 0.10311 0.78885 0.0
C2111 C 0.53566 0.07479 0.78532 0.0
C2112 C 0.52238 0.05073 0.80184 0.0
C2113 C 0.53499 0.05539 0.8218 0.0
C2114 C 0.56086 0.08248 0.82541 0.0
C2115 C 0.56758 0.08217 0.84894 0.0
C2116 C 0.60033 0.08406 0.8523 0.0
C2117 C 0.56527 0.10767 0.85833 0.0
C2118 C 0.54045 0.05135 0.858 0.0
C2119 C 0.52209 0.03642 0.84199 0.0
C2120 C 0.49357 1.00949 0.84641 0.0
C2121 C 0.48368 0.99714 0.86773 0.0
C2122 C 0.50258 1.01117 0.88467 0.0
C2123 C 0.53153 0.03877 0.87948 0.0
H2124 H 0.12085 0.22169 0.5794 0.0
H2125 H 0.14781 0.28898 0.62217 0.0
H2126 H 0.16902 0.32933 0.59175 0.0
H2127 H 0.18528 0.26975 0.53394 0.0
H2128 H 0.15661 0.25423 0.51411 0.0
H2129 H 0.15307 0.23139 0.53908 0.0
H2130 H 0.09501 0.22122 0.54553 0.0
H2131 H 0.09845 0.24443 0.52091 0.0
H2132 H 0.08757 0.2527 0.54563 0.0
H2133 H 0.1759 0.36098 0.55775 0.0
H2134 H 0.16947 0.38218 0.52203 0.0
H2135 H 0.13546 0.29505 0.49996 0.0
C2136 C 0.13324 0.24509 0.58218 0.0
C2137 C 0.13513 0.25247 0.60318 0.0
C2138 C 0.14886 0.2831 0.60641 0.0
C2139 C 0.16031 0.30613 0.58911 0.0
C2140 C 0.15721 0.29817 0.56854 0.0
C2141 C 0.14416 0.26836 0.56491 0.0
C2142 C 0.13838 0.26558 0.54141 0.0
C2143 C 0.15961 0.25459 0.53155 0.0
C2144 C 0.10275 0.24476 0.5382 0.0
C2145 C 0.1488 0.29818 0.53266 0.0
C2146 C 0.16006 0.31662 0.54856 0.0
C2147 C 0.16792 0.34696 0.54503 0.0
C2148 C 0.16399 0.35877 0.52478 0.0
C2149 C 0.1523 0.34029 0.50831 0.0
C2150 C 0.14516 0.30976 0.5122 0.0
H2151 H 0.71859 0.86074 0.60335 0.0
H2152 H 0.81753 0.91458 0.57981 0.0
H2153 H 0.80172 0.90468 0.54286 0.0
H2154 H 0.69565 0.80333 0.56478 0.0
H2155 H 0.65641 0.7999 0.56274 0.0
H2156 H 0.67641 0.80845 0.58726 0.0
H2157 H 0.66962 0.85607 0.58564 0.0
H2158 H 0.65023 0.8481 0.56094 0.0
H2159 H 0.68524 0.88409 0.56233 0.0
H2160 H 0.77368 0.8954 0.50827 0.0
H2161 H 0.73722 0.88359 0.47913 0.0
H2162 H 0.65637 0.83048 0.52552 0.0
C2163 C 0.73692 0.86916 0.59046 0.0
C2164 C 0.76937 0.88756 0.59431 0.0
C2165 C 0.79273 0.89968 0.57708 0.0
C2166 C 0.78389 0.89432 0.55611 0.0
C2167 C 0.75154 0.87647 0.55274 0.0
C2168 C 0.72848 0.8635 0.56953 0.0
C2169 C 0.69525 0.84646 0.56153 0.0
C2170 C 0.68003 0.81252 0.56955 0.0
C2171 C 0.67384 0.85947 0.56799 0.0
C2172 C 0.70304 0.85275 0.53758 0.0
C2173 C 0.7356 0.87014 0.53284 0.0
C2174 C 0.7482 0.88099 0.51182 0.0
C2175 C 0.72708 0.87386 0.49525 0.0
C2176 C 0.69344 0.85556 0.49958 0.0
C2177 C 0.68165 0.84467 0.52123 0.0
H2178 H 0.13278 0.85614 0.61352 0.0
H2179 H 0.09412 0.91328 0.58755 0.0
H2180 H 0.09386 0.8974 0.55187 0.0
H2181 H 0.18533 0.87105 0.57191 0.0
H2182 H 0.18013 0.83356 0.57211 0.0
H2183 H 0.17194 0.84489 0.59624 0.0
H2184 H 0.11434 0.79965 0.60014 0.0
H2185 H 0.1225 0.78765 0.57623 0.0
H2186 H 0.08871 0.79411 0.57821 0.0
H2187 H 0.10826 0.88343 0.51822 0.0
H2188 H 0.12974 0.86797 0.48981 0.0
H2189 H 0.15381 0.81478 0.53783 0.0
C2190 C 0.12284 0.86401 0.60047 0.0
C2191 C 0.11274 0.88532 0.60318 0.0
C2192 C 0.10109 0.89632 0.58571 0.0
C2193 C 0.10112 0.88758 0.56543 0.0
C2194 C 0.1124 0.86738 0.56299 0.0
C2195 C 0.12225 0.85507 0.58016 0.0
C2196 C 0.13523 0.8354 0.57293 0.0
C2197 C 0.17023 0.84693 0.57864 0.0
C2198 C 0.11392 0.80223 0.58244 0.0
C2199 C 0.13271 0.83985 0.54894 0.0
C2200 C 0.1194 0.85828 0.54355 0.0
C2201 C 0.11771 0.86811 0.52229 0.0
C2202 C 0.12991 0.85892 0.50613 0.0
C2203 C 0.14343 0.83963 0.51112 0.0
C2204 C 0.14412 0.82968 0.53302 0.0
H2205 H 0.65376 0.83643 0.11182 0.0
H2206 H 0.55563 0.81273 0.12743 0.0
H2207 H 0.57173 0.83559 0.16105 0.0
H2208 H 0.66814 0.81436 0.16273 0.0
H2209 H 0.70936 0.84345 0.16209 0.0
H2210 H 0.69137 0.83085 0.13761 0.0
H2211 H 0.70632 0.88571 0.12224 0.0
H2212 H 0.72477 0.89863 0.1466 0.0
H2213 H 0.69397 0.90697 0.13704 0.0
H2214 H 0.5981 0.85592 0.19494 0.0
H2215 H 0.63195 0.87269 0.22545 0.0
H2216 H 0.71181 0.8784 0.18856 0.0
C2217 C 0.63591 0.83675 0.12215 0.0
C2218 C 0.60357 0.82314 0.11709 0.0
C2219 C 0.58063 0.82366 0.13092 0.0
C2220 C 0.58957 0.83638 0.15007 0.0
C2221 C 0.62153 0.84835 0.15512 0.0
C2222 C 0.64437 0.84878 0.14144 0.0
C2223 C 0.67633 0.86003 0.15139 0.0
C2224 C 0.6869 0.83572 0.15359 0.0
C2225 C 0.70186 0.8896 0.13856 0.0
C2226 C 0.66788 0.86534 0.173 0.0
C2227 C 0.63631 0.85887 0.1748 0.0
C2228 C 0.62291 0.86121 0.19362 0.0
C2229 C 0.6423 0.87046 0.21098 0.0
C2230 C 0.67472 0.87694 0.20958 0.0
C2231 C 0.68743 0.87429 0.19019 0.0
H2232 H 0.22635 0.85802 0.11857 0.0
H2233 H 0.25584 0.79227 0.14078 0.0
H2234 H 0.24943 0.79952 0.17827 0.0
H2235 H 0.26256 0.90831 0.16248 0.0
H2236 H 0.22929 0.91566 0.1634 0.0
H2237 H 0.24228 0.90944 0.13858 0.0
H2238 H 0.18473 0.86658 0.13508 0.0
H2239 H 0.17167 0.87204 0.16009 0.0
H2240 H 0.1661 0.83537 0.15623 0.0
H2241 H 0.22932 0.80644 0.21296 0.0
H2242 H 0.20302 0.81615 0.24209 0.0
H2243 H 0.19031 0.88106 0.19775 0.0
C2244 C 0.23311 0.84653 0.13136 0.0
C2245 C 0.24254 0.82529 0.12694 0.0
C2246 C 0.24963 0.80931 0.14398 0.0
C2247 C 0.24573 0.81312 0.16527 0.0
C2248 C 0.23502 0.83329 0.16923 0.0
C2249 C 0.22955 0.85031 0.15272 0.0
C2250 C 0.21559 0.86845 0.16131 0.0
C2251 C 0.23882 0.90249 0.15614 0.0
C2252 C 0.18257 0.86009 0.15266 0.0
C2253 C 0.21276 0.85801 0.18511 0.0
C2254 C 0.22419 0.83783 0.18936 0.0
C2255 C 0.22125 0.82297 0.20989 0.0
C2256 C 0.20632 0.82887 0.22649 0.0
C2257 C 0.19456 0.84975 0.22269 0.0
C2258 C 0.19852 0.86476 0.20158 0.0
H2259 H 0.21312 0.4186 0.12378 0.0
H2260 H 0.29653 0.49868 0.13887 0.0
H2261 H 0.29675 0.47133 0.17403 0.0
H2262 H 0.17346 0.40173 0.17171 0.0
H2263 H 0.15464 0.36118 0.17327 0.0
H2264 H 0.16596 0.38408 0.14766 0.0
H2265 H 0.20019 0.36002 0.13739 0.0
H2266 H 0.18861 0.33659 0.16293 0.0
H2267 H 0.23039 0.36037 0.15468 0.0
H2268 H 0.28161 0.43797 0.20967 0.0
H2269 H 0.254 0.40163 0.24198 0.0
H2270 H 0.17823 0.34485 0.20366 0.0
C2271 C 0.23204 0.42986 0.13427 0.0
C2272 C 0.25489 0.46049 0.12883 0.0
C2273 C 0.27918 0.475 0.14281 0.0
C2274 C 0.27932 0.45966 0.16277 0.0
C2275 C 0.25514 0.42983 0.16826 0.0
C2276 C 0.23216 0.41499 0.15423 0.0
C2277 C 0.20629 0.38461 0.16475 0.0
C2278 C 0.17316 0.38282 0.16433 0.0
C2279 C 0.20639 0.35887 0.15432 0.0
C2280 C 0.21746 0.38508 0.18717 0.0
C2281 C 0.24597 0.41104 0.18885 0.0
C2282 C 0.25957 0.41736 0.20844 0.0
C2283 C 0.24351 0.39673 0.22675 0.0
C2284 C 0.21392 0.37028 0.2254 0.0
C2285 C 0.20115 0.36439 0.20523 0.0
H2286 H 0.79863 0.51908 0.91691 0.0
H2287 H 0.7744 0.58094 0.94303 0.0
H2288 H 0.7988 0.6178 0.91053 0.0
H2289 H 0.87604 0.5778 0.8898 0.0
H2290 H 0.87117 0.55798 0.86704 0.0
H2291 H 0.85352 0.53713 0.89292 0.0
H2292 H 0.79803 0.51087 0.87706 0.0
H2293 H 0.81546 0.53178 0.85119 0.0
H2294 H 0.78238 0.53358 0.8633 0.0
H2295 H 0.82195 0.64615 0.87477 0.0
H2296 H 0.84574 0.66627 0.83796 0.0
H2297 H 0.85617 0.58684 0.83428 0.0
C2298 C 0.79896 0.54059 0.91573 0.0
C2299 C 0.78431 0.54721 0.93215 0.0
C2300 C 0.78501 0.57545 0.9303 0.0
C2301 C 0.79895 0.5965 0.91202 0.0
C2302 C 0.81242 0.58908 0.89578 0.0
C2303 C 0.81292 0.562 0.89746 0.0
C2304 C 0.8283 0.55959 0.87727 0.0
C2305 C 0.85909 0.55805 0.88205 0.0
C2306 C 0.80462 0.53234 0.86658 0.0
C2307 C 0.83566 0.58923 0.86393 0.0
C2308 C 0.82634 0.60585 0.87501 0.0
C2309 C 0.82957 0.63349 0.86594 0.0
C2310 C 0.84284 0.6446 0.84495 0.0
C2311 C 0.85274 0.62814 0.83322 0.0
C2312 C 0.84915 0.6001 0.84293 0.0
H2313 H 0.44676 0.24206 0.90673 0.0
H2314 H 0.38114 0.16678 0.95215 0.0
H2315 H 0.35246 0.13919 0.92258 0.0
H2316 H 0.38758 0.24171 0.876 0.0
H2317 H 0.40975 0.25318 0.85047 0.0
H2318 H 0.43065 0.26359 0.87441 0.0
H2319 H 0.46433 0.23838 0.86572 0.0
H2320 H 0.44376 0.2281 0.84156 0.0
H2321 H 0.44442 0.19948 0.8609 0.0
H2322 H 0.32619 0.12301 0.88874 0.0
H2323 H 0.30248 0.12018 0.85384 0.0
H2324 H 0.38136 0.20843 0.82987 0.0
C2325 C 0.42726 0.21916 0.91026 0.0
C2326 C 0.41737 0.20569 0.93173 0.0
C2327 C 0.3906 0.1765 0.93592 0.0
C2328 C 0.3738 0.16095 0.91914 0.0
C2329 C 0.38359 0.17519 0.89818 0.0
C2330 C 0.40968 0.20376 0.89366 0.0
C2331 C 0.41209 0.216 0.87019 0.0
C2332 C 0.40987 0.24535 0.86763 0.0
C2333 C 0.44299 0.22077 0.85892 0.0
C2334 C 0.38277 0.19025 0.86234 0.0
C2335 C 0.36711 0.16672 0.87868 0.0
C2336 C 0.33843 0.14119 0.8758 0.0
C2337 C 0.32503 0.13988 0.85591 0.0
C2338 C 0.33992 0.16411 0.83907 0.0
C2339 C 0.36963 0.18933 0.84226 0.0
H2340 H 0.82931 0.21981 0.94272 0.0
H2341 H 0.74165 0.2226 0.93046 0.0
H2342 H 0.73719 0.19901 0.89738 0.0
H2343 H 0.8611 0.24248 0.88982 0.0
H2344 H 0.88015 0.21928 0.891 0.0
H2345 H 0.87365 0.2322 0.9149 0.0
H2346 H 0.84246 0.17696 0.93351 0.0
H2347 H 0.84914 0.16383 0.90972 0.0
H2348 H 0.80897 0.14937 0.92098 0.0
H2349 H 0.74563 0.17866 0.86372 0.0
H2350 H 0.76445 0.16203 0.83413 0.0
H2351 H 0.84901 0.17698 0.86797 0.0
C2352 C 0.80889 0.21491 0.93322 0.0
C2353 C 0.78571 0.22279 0.9391 0.0
C2354 C 0.75935 0.21626 0.92633 0.0
C2355 C 0.75684 0.2031 0.90747 0.0
C2356 C 0.78095 0.19673 0.90165 0.0
C2357 C 0.80636 0.2023 0.91431 0.0
C2358 C 0.83034 0.19548 0.90406 0.0
C2359 C 0.86324 0.22406 0.89968 0.0
C2360 C 0.83286 0.16989 0.91789 0.0
C2361 C 0.81474 0.18541 0.88349 0.0
C2362 C 0.78617 0.18603 0.88235 0.0
C2363 C 0.76793 0.17803 0.86455 0.0
C2364 C 0.77901 0.16887 0.84768 0.0
C2365 C 0.80823 0.16795 0.84858 0.0
C2366 C 0.82625 0.17667 0.86678 0.0
H2367 H 0.22995 0.11315 0.487 0.0
H2368 H 0.29415 0.17886 0.43573 0.0
H2369 H 0.32416 0.21363 0.46193 0.0
H2370 H 0.2279 0.16707 0.51921 0.0
H2371 H 0.22684 0.14555 0.54425 0.0
H2372 H 0.21003 0.12654 0.52136 0.0
H2373 H 0.24634 0.1017 0.52515 0.0
H2374 H 0.26343 0.1208 0.54796 0.0
H2375 H 0.28907 0.12527 0.52536 0.0
H2376 H 0.34805 0.24022 0.4938 0.0
H2377 H 0.36299 0.25824 0.52885 0.0
H2378 H 0.28338 0.17505 0.55992 0.0
C2379 C 0.25039 0.13487 0.48143 0.0
C2380 C 0.26016 0.14343 0.45947 0.0
C2381 C 0.28655 0.17213 0.45254 0.0
C2382 C 0.30369 0.19185 0.4673 0.0
C2383 C 0.29397 0.18251 0.48894 0.0
C2384 C 0.2678 0.15479 0.496 0.0
C2385 C 0.26246 0.15027 0.52015 0.0
C2386 C 0.22987 0.14718 0.52662 0.0
C2387 C 0.26551 0.12289 0.53024 0.0
C2388 C 0.28989 0.17964 0.52559 0.0
C2389 C 0.3077 0.19791 0.50732 0.0
C2390 C 0.33415 0.22619 0.50819 0.0
C2391 C 0.34239 0.23626 0.52819 0.0
C2392 C 0.3243 0.21818 0.54717 0.0
C2393 C 0.29787 0.18932 0.54576 0.0
H2394 H 0.87551 0.17473 0.45382 0.0
H2395 H 0.93296 0.13304 0.47394 0.0
H2396 H 0.92868 0.1425 0.51116 0.0
H2397 H 0.90572 0.23306 0.49274 0.0
H2398 H 0.86658 0.22951 0.49643 0.0
H2399 H 0.87929 0.22431 0.47112 0.0
H2400 H 0.82877 0.17173 0.47349 0.0
H2401 H 0.81622 0.17637 0.49897 0.0
H2402 H 0.82128 0.14403 0.49638 0.0
H2403 H 0.90901 0.14762 0.54696 0.0
H2404 H 0.88092 0.15263 0.57755 0.0
H2405 H 0.83971 0.1953 0.5339 0.0
C2406 C 0.88847 0.16907 0.46595 0.0
C2407 C 0.90522 0.15383 0.46109 0.0
C2408 C 0.92081 0.14547 0.47739 0.0
C2409 C 0.91821 0.15053 0.49855 0.0
C2410 C 0.90027 0.16441 0.50309 0.0
C2411 C 0.88631 0.17426 0.48712 0.0
C2412 C 0.86628 0.18644 0.49641 0.0
C2413 C 0.88031 0.22035 0.48872 0.0
C2414 C 0.83106 0.16857 0.49099 0.0
C2415 C 0.87004 0.18078 0.52012 0.0
C2416 C 0.88977 0.16813 0.52367 0.0
C2417 C 0.89429 0.15836 0.54433 0.0
C2418 C 0.87824 0.16151 0.56173 0.0
C2419 C 0.8579 0.17459 0.55858 0.0
C2420 C 0.85454 0.18484 0.53729 0.0
H2421 H 0.9345 0.80942 0.49056 0.0
H2422 H 0.88163 0.75454 0.44229 0.0
H2423 H 0.86758 0.70818 0.46715 0.0
H2424 H 0.96148 0.75409 0.51788 0.0
H2425 H 0.95641 0.76329 0.54381 0.0
H2426 H 0.96892 0.79166 0.52072 0.0
H2427 H 0.92142 0.80056 0.5293 0.0
H2428 H 0.9083 0.77188 0.55207 0.0
H2429 H 0.88122 0.76922 0.53147 0.0
H2430 H 0.84858 0.66991 0.49875 0.0
H2431 H 0.82993 0.64081 0.53423 0.0
H2432 H 0.89872 0.71904 0.5627 0.0
C2433 C 0.92148 0.78753 0.48508 0.0
C2434 C 0.90969 0.78509 0.46455 0.0
C2435 C 0.89136 0.75639 0.45789 0.0
C2436 C 0.88328 0.73011 0.47189 0.0
C2437 C 0.89399 0.73306 0.49245 0.0
C2438 C 0.9133 0.76101 0.49896 0.0
C2439 C 0.91815 0.75785 0.52267 0.0
C2440 C 0.95334 0.76728 0.52649 0.0
C2441 C 0.90657 0.77594 0.53456 0.0
C2442 C 0.89688 0.72411 0.52864 0.0
C2443 C 0.88351 0.71027 0.51092 0.0
C2444 C 0.85987 0.68015 0.51268 0.0
C2445 C 0.84952 0.66369 0.53307 0.0
C2446 C 0.86301 0.67716 0.55162 0.0
C2447 C 0.88757 0.70774 0.54911 0.0
loop_
_geom_bond_atom_site_label_1
_geom_bond_atom_site_label_2
_geom_bond_distance
_geom_bond_site_symmetry_2
_ccdc_geom_bond_type
C0 N1 1.317 . S
C0 N2 1.348 . S
C0 C3 1.485 . S
N1 C0 1.317 . S
N1 N5 1.370 . S
N2 C0 1.348 . S
N2 C4 1.346 . S
C3 C0 1.485 . S
C3 H7 0.960 . S
C3 H8 0.961 . S
C3 H9 0.960 . S
C4 N2 1.346 . S
C4 N5 1.307 . S
C4 C6 1.486 . S
N5 N1 1.370 . S
N5 C4 1.307 . S
C6 C4 1.486 . S
C6 H10 0.960 . S
C6 H11 0.960 . S
C6 H12 0.959 . S
H7 C3 0.960 . S
H8 C3 0.961 . S
H9 C3 0.960 . S
H10 C6 0.960 . S
H11 C6 0.960 . S
H12 C6 0.959 . S
C13 N14 1.317 . S
C13 N15 1.348 . S
C13 C16 1.485 . S
N14 C13 1.317 . S
N14 N18 1.370 . S
N15 C13 1.348 . S
N15 C17 1.346 . S
C16 C13 1.485 . S
C16 H20 0.960 . S
C16 H21 0.961 . S
C16 H22 0.960 . S
C17 N15 1.346 . S
C17 N18 1.307 . S
C17 C19 1.486 . S
N18 N14 1.370 . S
N18 C17 1.307 . S
C19 C17 1.486 . S
C19 H23 0.960 . S
C19 H24 0.960 . S
C19 H25 0.959 . S
H20 C16 0.960 . S
H21 C16 0.961 . S
H22 C16 0.960 . S
H23 C19 0.960 . S
H24 C19 0.960 . S
H25 C19 0.959 . S
C26 N27 1.317 . S
C26 N28 1.348 . S
C26 C29 1.485 . S
N27 C26 1.317 . S
N27 N31 1.370 . S
N28 C26 1.348 . S
N28 C30 1.346 . S
C29 C26 1.485 . S
C29 H33 0.960 . S
C29 H34 0.961 . S
C29 H35 0.960 . S
C30 N28 1.346 . S
C30 N31 1.307 . S
C30 C32 1.486 . S
N31 N27 1.370 . S
N31 C30 1.307 . S
C32 C30 1.486 . S
C32 H36 0.960 . S
C32 H37 0.960 . S
C32 H38 0.959 . S
H33 C29 0.960 . S
H34 C29 0.961 . S
H35 C29 0.960 . S
H36 C32 0.960 . S
H37 C32 0.960 . S
H38 C32 0.959 . S
C39 N40 1.317 . S
C39 N41 1.348 . S
C39 C42 1.485 . S
N40 C39 1.317 . S
N40 N44 1.370 . S
N41 C39 1.348 . S
N41 C43 1.346 . S
C42 C39 1.485 . S
C42 H46 0.960 . S
C42 H47 0.961 . S
C42 H48 0.960 . S
C43 N41 1.346 . S
C43 N44 1.307 . S
C43 C45 1.486 . S
N44 N40 1.370 . S
N44 C43 1.307 . S
C45 C43 1.486 . S
C45 H49 0.960 . S
C45 H50 0.960 . S
C45 H51 0.959 . S
H46 C42 0.960 . S
H47 C42 0.961 . S
H48 C42 0.960 . S
H49 C45 0.960 . S
H50 C45 0.960 . S
H51 C45 0.959 . S
C52 N53 1.317 . S
C52 N54 1.348 . S
C52 C55 1.485 . S
N53 C52 1.317 . S
N53 N57 1.370 . S
N54 C52 1.348 . S
N54 C56 1.346 . S
C55 C52 1.485 . S
C55 H59 0.960 . S
C55 H60 0.961 . S
C55 H61 0.960 . S
C56 N54 1.346 . S
C56 N57 1.307 . S
C56 C58 1.486 . S
N57 N53 1.370 . S
N57 C56 1.307 . S
C58 C56 1.486 . S
C58 H62 0.960 . S
C58 H63 0.960 . S
C58 H64 0.959 . S
H59 C55 0.960 . S
H60 C55 0.961 . S
H61 C55 0.960 . S
H62 C58 0.960 . S
H63 C58 0.960 . S
H64 C58 0.959 . S
C65 N66 1.317 . S
C65 N67 1.348 . S
C65 C68 1.485 . S
N66 C65 1.317 . S
N66 N70 1.370 . S
N67 C65 1.348 . S
N67 C69 1.346 . S
C68 C65 1.485 . S
C68 H72 0.960 . S
C68 H73 0.961 . S
C68 H74 0.960 . S
C69 N67 1.346 . S
C69 N70 1.307 . S
C69 C71 1.486 . S
N70 N66 1.370 . S
N70 C69 1.307 . S
C71 C69 1.486 . S
C71 H75 0.960 . S
C71 H76 0.960 . S
C71 H77 0.959 . S
H72 C68 0.960 . S
H73 C68 0.961 . S
H74 C68 0.960 . S
H75 C71 0.960 . S
H76 C71 0.960 . S
H77 C71 0.959 . S
C78 N79 1.317 . S
C78 N80 1.348 . S
C78 C81 1.485 . S
N79 C78 1.317 . S
N79 N83 1.370 . S
N80 C78 1.348 . S
N80 C82 1.346 . S
C81 C78 1.485 . S
C81 H85 0.960 . S
C81 H86 0.961 . S
C81 H87 0.960 . S
C82 N80 1.346 . S
C82 N83 1.307 . S
C82 C84 1.486 . S
N83 N79 1.370 . S
N83 C82 1.307 . S
C84 C82 1.486 . S
C84 H88 0.960 . S
C84 H89 0.960 . S
C84 H90 0.959 . S
H85 C81 0.960 . S
H86 C81 0.961 . S
H87 C81 0.960 . S
H88 C84 0.960 . S
H89 C84 0.960 . S
H90 C84 0.959 . S
C91 N92 1.317 . S
C91 N93 1.348 . S
C91 C94 1.485 . S
N92 C91 1.317 . S
N92 N96 1.370 . S
N93 C91 1.348 . S
N93 C95 1.346 . S
C94 C91 1.485 . S
C94 H98 0.960 . S
C94 H99 0.961 . S
C94 H100 0.960 . S
C95 N93 1.346 . S
C95 N96 1.307 . S
C95 C97 1.486 . S
N96 N92 1.370 . S
N96 C95 1.307 . S
C97 C95 1.486 . S
C97 H101 0.960 . S
C97 H102 0.960 . S
C97 H103 0.959 . S
H98 C94 0.960 . S
H99 C94 0.961 . S
H100 C94 0.960 . S
H101 C97 0.960 . S
H102 C97 0.960 . S
H103 C97 0.959 . S
C104 N105 1.317 . S
C104 N106 1.348 . S
C104 C107 1.485 . S
N105 C104 1.317 . S
N105 N109 1.370 . S
N106 C104 1.348 . S
N106 C108 1.346 . S
C107 C104 1.485 . S
C107 H111 0.960 . S
C107 H112 0.961 . S
C107 H113 0.960 . S
C108 N106 1.346 . S
C108 N109 1.307 . S
C108 C110 1.486 . S
N109 N105 1.370 . S
N109 C108 1.307 . S
C110 C108 1.486 . S
C110 H114 0.960 . S
C110 H115 0.960 . S
C110 H116 0.959 . S
H111 C107 0.960 . S
H112 C107 0.961 . S
H113 C107 0.960 . S
H114 C110 0.960 . S
H115 C110 0.960 . S
H116 C110 0.959 . S
C117 N118 1.317 . S
C117 N119 1.348 . S
C117 C120 1.485 . S
N118 C117 1.317 . S
N118 N122 1.370 . S
N119 C117 1.348 . S
N119 C121 1.346 . S
C120 C117 1.485 . S
C120 H124 0.960 . S
C120 H125 0.961 1_556 S
C120 H126 0.960 . S
C121 N119 1.346 . S
C121 N122 1.307 . S
C121 C123 1.486 . S
N122 N118 1.370 . S
N122 C121 1.307 . S
C123 C121 1.486 . S
C123 H127 0.960 . S
C123 H128 0.960 . S
C123 H129 0.959 . S
H124 C120 0.960 . S
H125 C120 0.961 1_554 S
H126 C120 0.960 . S
H127 C123 0.960 . S
H128 C123 0.960 . S
H129 C123 0.959 . S
C130 N131 1.317 . S
C130 N132 1.348 . S
C130 C133 1.445 1_556 S
N131 C130 1.317 . S
N131 N135 1.370 . S
N132 C130 1.348 . S
N132 C134 1.346 . S
C133 C130 1.445 1_554 S
C133 H137 0.990 . S
C133 H138 0.978 . S
C133 H139 0.956 . S
C134 N132 1.346 . S
C134 N135 1.307 . S
C134 C136 1.486 . S
N135 N131 1.370 . S
N135 C134 1.307 . S
C136 C134 1.486 . S
C136 H140 0.960 . S
C136 H141 0.960 . S
C136 H142 0.959 . S
H137 C133 0.990 . S
H138 C133 0.978 . S
H139 C133 0.956 . S
H140 C136 0.960 . S
H141 C136 0.960 . S
H142 C136 0.959 . S
C143 N144 1.317 . S
C143 N145 1.348 . S
C143 C146 1.485 1_556 S
N144 C143 1.317 . S
N144 N148 1.370 . S
N145 C143 1.348 . S
N145 C147 1.346 . S
C146 C143 1.485 1_554 S
C146 H150 0.960 . S
C146 H151 0.961 . S
C146 H152 0.960 . S
C147 N145 1.346 . S
C147 N148 1.307 . S
C147 C149 1.486 . S
N148 N144 1.370 . S
N148 C147 1.307 . S
C149 C147 1.486 . S
C149 H153 0.960 . S
C149 H154 0.960 . S
C149 H155 0.959 . S
H150 C146 0.960 . S
H151 C146 0.961 . S
H152 C146 0.960 . S
H153 C149 0.960 . S
H154 C149 0.960 . S
H155 C149 0.959 . S
C156 N157 1.317 . S
C156 N158 1.348 . S
C156 C159 1.485 . S
N157 C156 1.317 . S
N157 N161 1.370 . S
N158 C156 1.348 . S
N158 C160 1.346 . S
C159 C156 1.485 . S
C159 H163 0.960 . S
C159 H164 0.961 . S
C159 H165 0.960 . S
C160 N158 1.346 . S
C160 N161 1.307 . S
C160 C162 1.486 . S
N161 N157 1.370 . S
N161 C160 1.307 . S
C162 C160 1.486 . S
C162 H166 0.960 . S
C162 H167 0.960 . S
C162 H168 0.959 . S
H163 C159 0.960 . S
H164 C159 0.961 . S
H165 C159 0.960 . S
H166 C162 0.960 . S
H167 C162 0.960 . S
H168 C162 0.959 . S
C169 N170 1.317 . S
C169 N171 1.348 . S
C169 C172 1.485 . S
N170 C169 1.317 . S
N170 N174 1.370 . S
N171 C169 1.348 . S
N171 C173 1.346 . S
C172 C169 1.485 . S
C172 H176 0.960 . S
C172 H177 0.961 . S
C172 H178 0.960 . S
C173 N171 1.346 . S
C173 N174 1.307 . S
C173 C175 1.486 . S
N174 N170 1.370 . S
N174 C173 1.307 . S
C175 C173 1.486 . S
C175 H179 0.960 . S
C175 H180 0.960 . S
C175 H181 0.959 . S
H176 C172 0.960 . S
H177 C172 0.961 . S
H178 C172 0.960 . S
H179 C175 0.960 . S
H180 C175 0.960 . S
H181 C175 0.959 . S
C182 N183 1.317 . S
C182 N184 1.348 . S
C182 C185 1.485 . S
N183 C182 1.317 . S
N183 N187 1.370 . S
N184 C182 1.348 . S
N184 C186 1.346 . S
C185 C182 1.485 . S
C185 H189 0.960 . S
C185 H190 0.961 . S
C185 H191 0.960 . S
C186 N184 1.346 . S
C186 N187 1.307 . S
C186 C188 1.486 . S
N187 N183 1.370 . S
N187 C186 1.307 . S
C188 C186 1.486 . S
C188 H192 0.960 . S
C188 H193 0.960 . S
C188 H194 0.959 . S
H189 C185 0.960 . S
H190 C185 0.961 . S
H191 C185 0.960 . S
H192 C188 0.960 . S
H193 C188 0.960 . S
H194 C188 0.959 . S
C195 N196 1.317 . S
C195 N197 1.348 . S
C195 C198 1.485 . S
N196 C195 1.317 . S
N196 N200 1.370 . S
N197 C195 1.348 . S
N197 C199 1.346 . S
C198 C195 1.485 . S
C198 H202 0.960 . S
C198 H203 0.961 . S
C198 H204 0.960 . S
C199 N197 1.346 . S
C199 N200 1.307 . S
C199 C201 1.486 . S
N200 N196 1.370 . S
N200 C199 1.307 . S
C201 C199 1.486 . S
C201 H205 0.960 . S
C201 H206 0.960 . S
C201 H207 0.959 . S
H202 C198 0.960 . S
H203 C198 0.961 . S
H204 C198 0.960 . S
H205 C201 0.960 . S
H206 C201 0.960 . S
H207 C201 0.959 . S
C208 N209 1.317 . S
C208 N210 1.348 . S
C208 C211 1.485 . S
N209 C208 1.317 . S
N209 N213 1.370 . S
N210 C208 1.348 . S
N210 C212 1.346 . S
C211 C208 1.485 . S
C211 H215 0.960 . S
C211 H216 0.961 . S
C211 H217 0.960 . S
C212 N210 1.346 . S
C212 N213 1.307 . S
C212 C214 1.486 . S
N213 N209 1.370 . S
N213 C212 1.307 . S
C214 C212 1.486 . S
C214 H218 0.960 . S
C214 H219 0.960 . S
C214 H220 0.959 . S
H215 C211 0.960 . S
H216 C211 0.961 . S
H217 C211 0.960 . S
H218 C214 0.960 . S
H219 C214 0.960 . S
H220 C214 0.959 . S
C221 N222 1.317 . S
C221 N223 1.348 . S
C221 C224 1.485 . S
N222 C221 1.317 . S
N222 N226 1.370 . S
N223 C221 1.348 . S
N223 C225 1.346 . S
C224 C221 1.485 . S
C224 H228 0.960 . S
C224 H229 0.961 . S
C224 H230 0.960 . S
C225 N223 1.346 . S
C225 N226 1.307 . S
C225 C227 1.486 . S
N226 N222 1.370 . S
N226 C225 1.307 . S
C227 C225 1.486 . S
C227 H231 0.960 . S
C227 H232 0.960 . S
C227 H233 0.959 . S
H228 C224 0.960 . S
H229 C224 0.961 . S
H230 C224 0.960 . S
H231 C227 0.960 . S
H232 C227 0.960 . S
H233 C227 0.959 . S
Gd234 N265 2.661 . S
Gd234 N271 2.601 . S
Gd234 O278 2.545 . S
Gd234 O279 2.606 1_545 S
Gd234 O281 2.429 . S
Gd234 O282 2.545 1_545 S
Gd234 O283 2.412 1_545 S
Gd234 O285 2.362 . S
Gd234 O286 2.324 1_545 S
Gd234 C293 2.828 1_545 S
Gd235 N244 2.661 . S
Gd235 N248 2.601 . S
Gd235 O279 2.362 1_556 S
Gd235 O280 2.324 1_565 S
Gd235 O284 2.545 . S
Gd235 O285 2.606 1_566 S
Gd235 O287 2.429 1_556 S
Gd235 O288 2.545 1_565 S
Gd235 O289 2.412 1_565 S
Gd235 C302 2.828 1_565 S
C236 C239 1.417 . S
C236 C241 1.431 . S
C236 C242 1.412 . S
C237 C240 1.437 . S
C237 C241 1.317 . S
C237 H256 0.929 . S
C238 C239 1.426 . S
C238 C240 1.413 . S
C238 N248 1.359 . S
C239 C236 1.417 . S
C239 C238 1.426 . S
C239 N244 1.350 . S
C240 C237 1.437 . S
C240 C238 1.413 . S
C240 C250 1.391 . S
C241 C236 1.431 . S
C241 C237 1.317 . S
C241 H252 0.930 . S
C242 C236 1.412 . S
C242 C243 1.355 . S
C242 H254 0.930 . S
C243 C242 1.355 . S
C243 C245 1.402 . S
C243 H255 0.930 . S
N244 Gd235 2.661 . S
N244 C239 1.350 . S
N244 C245 1.307 . S
C245 C243 1.402 . S
C245 N244 1.307 . S
C245 H246 0.930 1_565 S
H246 C245 0.930 1_545 S
C247 N248 1.334 . S
C247 C249 1.394 . S
C247 H251 0.930 . S
N248 Gd235 2.601 . S
N248 C238 1.359 . S
N248 C247 1.334 . S
C249 C247 1.394 . S
C249 C250 1.359 . S
C249 H261 0.930 . S
C250 C240 1.391 . S
C250 C249 1.359 . S
C250 H262 0.929 . S
H251 C247 0.930 . S
H252 C241 0.930 . S
H253 C270 0.930 . S
H254 C242 0.930 . S
H255 C243 0.930 . S
H256 C237 0.929 . S
H257 C275 0.930 . S
H258 C266 0.930 . S
H259 C267 0.930 . S
H260 C291 0.929 . S
H261 C249 0.930 . S
H262 C250 0.929 . S
H263 C292 0.930 . S
H264 C273 0.930 . S
N265 Gd234 2.661 . S
N265 C269 1.350 . S
N265 C270 1.307 . S
C266 H258 0.930 . S
C266 C267 1.355 . S
C266 C268 1.412 . S
C267 H259 0.930 . S
C267 C266 1.355 . S
C267 C270 1.402 . S
C268 C266 1.412 . S
C268 C269 1.417 . S
C268 C292 1.431 . S
C269 N265 1.350 . S
C269 C268 1.417 . S
C269 C272 1.426 . S
C270 H253 0.930 . S
C270 N265 1.307 . S
C270 C267 1.402 . S
N271 Gd234 2.601 . S
N271 C272 1.359 . S
N271 C275 1.334 . S
C272 C269 1.426 . S
C272 N271 1.359 . S
C272 C276 1.413 . S
C273 H264 0.930 . S
C273 C274 1.359 . S
C273 C275 1.394 . S
C274 C273 1.359 . S
C274 C276 1.391 . S
C274 H277 0.929 . S
C275 H257 0.930 . S
C275 N271 1.334 . S
C275 C273 1.394 . S
C276 C272 1.413 . S
C276 C274 1.391 . S
C276 C291 1.437 . S
H277 C274 0.929 . S
O278 Gd234 2.545 . S
O278 C293 1.258 1_545 S
O279 Gd234 2.606 1_565 S
O279 Gd235 2.362 1_554 S
O279 C290 1.284 . S
O280 Gd235 2.324 1_545 S
O280 C300 1.254 1_556 S
O281 Gd234 2.429 . S
O281 C300 1.268 . S
O282 Gd234 2.545 1_565 S
O282 C290 1.250 . S
O283 Gd234 2.412 1_565 S
O283 C293 1.252 . S
O284 Gd235 2.545 . S
O284 C302 1.258 1_565 S
O285 Gd234 2.362 . S
O285 Gd235 2.606 1_544 S
O285 C301 1.284 . S
O286 Gd234 2.324 1_565 S
O286 C309 1.254 . S
O287 Gd235 2.429 1_554 S
O287 C309 1.268 . S
O288 Gd235 2.545 1_545 S
O288 C301 1.250 1_556 S
O289 Gd235 2.412 1_545 S
O289 C302 1.252 . S
C290 O279 1.284 . S
C290 O282 1.250 . S
C291 H260 0.929 . S
C291 C276 1.437 . S
C291 C292 1.317 . S
C292 H263 0.930 . S
C292 C268 1.431 . S
C292 C291 1.317 . S
C293 Gd234 2.828 1_565 S
C293 O278 1.258 1_565 S
C293 O283 1.252 . S
C293 C294 1.497 . S
C294 C293 1.497 . S
C294 C295 1.395 . S
C294 C296 1.380 . S
C295 C294 1.395 . S
C295 C298 1.398 . S
C295 H310 0.930 1_565 S
C296 C294 1.380 . S
C296 C297 1.391 . S
C296 H311 0.930 . S
C297 C296 1.391 . S
C297 C299 1.387 . S
C298 C295 1.398 . S
C298 C299 1.380 . S
C298 H312 0.930 . S
C299 C297 1.387 . S
C299 C298 1.380 . S
C299 H313 0.930 . S
C300 O280 1.254 1_554 S
C300 O281 1.268 . S
C301 O285 1.284 . S
C301 O288 1.250 1_554 S
C302 Gd235 2.828 1_545 S
C302 O284 1.258 1_545 S
C302 O289 1.252 . S
C302 C303 1.497 . S
C303 C302 1.497 . S
C303 C304 1.395 . S
C303 C305 1.380 . S
C304 C303 1.395 . S
C304 C307 1.398 . S
C304 H314 0.930 1_545 S
C305 C303 1.380 . S
C305 C306 1.391 . S
C305 H315 0.930 . S
C306 C305 1.391 . S
C306 C308 1.387 . S
C307 C304 1.398 . S
C307 C308 1.380 . S
C307 H316 0.930 . S
C308 C306 1.387 . S
C308 C307 1.380 . S
C308 H317 0.930 . S
C309 O286 1.254 . S
C309 O287 1.268 . S
H310 C295 0.930 1_545 S
H311 C296 0.930 . S
H312 C298 0.930 . S
H313 C299 0.930 . S
H314 C304 0.930 1_565 S
H315 C305 0.930 . S
H316 C307 0.930 . S
H317 C308 0.930 . S
Gd318 N349 2.661 . S
Gd318 N355 2.601 . S
Gd318 O362 2.545 . S
Gd318 O363 2.606 1_655 S
Gd318 O365 2.429 . S
Gd318 O366 2.545 1_655 S
Gd318 O367 2.411 1_655 S
Gd318 O369 2.362 . S
Gd318 O370 2.324 1_655 S
Gd318 C377 2.828 . S
Gd319 N328 2.661 . S
Gd319 N332 2.601 . S
Gd319 O363 2.362 1_556 S
Gd319 O364 2.324 1_455 S
Gd319 O368 2.545 . S
Gd319 O369 2.606 1_456 S
Gd319 O371 2.429 . S
Gd319 O372 2.545 1_455 S
Gd319 O373 2.412 . S
Gd319 C386 2.828 . S
C320 C323 1.417 . S
C320 C325 1.431 . S
C320 C326 1.412 . S
C321 C324 1.437 . S
C321 C325 1.317 . S
C321 H340 0.929 . S
C322 C323 1.426 . S
C322 C324 1.413 . S
C322 N332 1.359 . S
C323 C320 1.417 . S
C323 C322 1.426 . S
C323 N328 1.350 . S
C324 C321 1.437 . S
C324 C322 1.413 . S
C324 C334 1.391 . S
C325 C320 1.431 . S
C325 C321 1.317 . S
C325 H336 0.930 . S
C326 C320 1.412 . S
C326 C327 1.355 . S
C326 H338 0.930 . S
C327 C326 1.355 . S
C327 C329 1.402 . S
C327 H339 0.930 . S
N328 Gd319 2.661 . S
N328 C323 1.350 . S
N328 C329 1.307 . S
C329 C327 1.402 . S
C329 N328 1.307 . S
C329 H330 0.930 . S
H330 C329 0.930 . S
C331 N332 1.334 . S
C331 C333 1.394 . S
C331 H335 0.930 . S
N332 Gd319 2.601 . S
N332 C322 1.359 . S
N332 C331 1.334 . S
C333 C331 1.394 . S
C333 C334 1.359 . S
C333 H345 0.930 . S
C334 C324 1.391 . S
C334 C333 1.359 . S
C334 H346 0.929 . S
H335 C331 0.930 . S
H336 C325 0.930 . S
H337 C354 0.930 . S
H338 C326 0.930 . S
H339 C327 0.930 . S
H340 C321 0.929 . S
H341 C359 0.930 . S
H342 C350 0.930 . S
H343 C351 0.930 . S
H344 C375 0.929 . S
H345 C333 0.930 . S
H346 C334 0.929 . S
H347 C376 0.930 . S
H348 C357 0.930 . S
N349 Gd318 2.661 . S
N349 C353 1.350 . S
N349 C354 1.307 . S
C350 H342 0.930 . S
C350 C351 1.355 . S
C350 C352 1.412 . S
C351 H343 0.930 . S
C351 C350 1.355 . S
C351 C354 1.402 . S
C352 C350 1.412 . S
C352 C353 1.417 . S
C352 C376 1.431 . S
C353 N349 1.350 . S
C353 C352 1.417 . S
C353 C356 1.426 . S
C354 H337 0.930 . S
C354 N349 1.307 . S
C354 C351 1.402 . S
N355 Gd318 2.601 . S
N355 C356 1.359 . S
N355 C359 1.334 . S
C356 C353 1.426 . S
C356 N355 1.359 . S
C356 C360 1.413 . S
C357 H348 0.930 . S
C357 C358 1.359 . S
C357 C359 1.394 . S
C358 C357 1.359 . S
C358 C360 1.391 . S
C358 H361 0.929 . S
C359 H341 0.930 . S
C359 N355 1.334 . S
C359 C357 1.394 . S
C360 C356 1.413 . S
C360 C358 1.391 . S
C360 C375 1.437 . S
H361 C358 0.929 . S
O362 Gd318 2.545 . S
O362 C377 1.258 . S
O363 Gd318 2.606 1_455 S
O363 Gd319 2.362 1_554 S
O363 C374 1.284 . S
O364 Gd319 2.324 1_655 S
O364 C384 1.254 1_556 S
O365 Gd318 2.429 . S
O365 C384 1.268 . S
O366 Gd318 2.545 1_455 S
O366 C374 1.250 . S
O367 Gd318 2.411 1_455 S
O367 C377 1.258 1_455 S
O368 Gd319 2.545 . S
O368 C386 1.258 . S
O369 Gd318 2.362 . S
O369 Gd319 2.606 1_654 S
O369 C385 1.284 1_554 S
O370 Gd318 2.324 1_455 S
O370 C393 1.254 . S
O371 Gd319 2.429 . S
O371 C393 1.268 1_556 S
O372 Gd319 2.545 1_655 S
O372 C385 1.250 . S
O373 Gd319 2.412 . S
O373 C386 1.252 . S
C374 O363 1.284 . S
C374 O366 1.250 . S
C375 H344 0.929 . S
C375 C360 1.437 . S
C375 C376 1.317 . S
C376 H347 0.930 . S
C376 C352 1.431 . S
C376 C375 1.317 . S
C377 Gd318 2.828 . S
C377 O362 1.258 . S
C377 O367 1.258 1_655 S
C377 C378 1.497 . S
C378 C377 1.497 . S
C378 C379 1.395 . S
C378 C380 1.380 1_655 S
C379 C378 1.395 . S
C379 C382 1.398 . S
C379 H394 0.930 . S
C380 C378 1.380 1_455 S
C380 C381 1.391 . S
C380 H395 0.930 . S
C381 C380 1.391 . S
C381 C383 1.387 . S
C382 C379 1.398 . S
C382 C383 1.380 1_655 S
C382 H396 0.930 . S
C383 C381 1.387 . S
C383 C382 1.380 1_455 S
C383 H397 0.930 . S
C384 O364 1.254 1_554 S
C384 O365 1.268 . S
C385 O369 1.284 1_556 S
C385 O372 1.250 . S
C386 Gd319 2.828 . S
C386 O368 1.258 . S
C386 O373 1.252 . S
C386 C387 1.497 . S
C387 C386 1.497 . S
C387 C388 1.395 . S
C387 C389 1.380 1_455 S
C388 C387 1.395 . S
C388 C391 1.398 . S
C388 H398 0.930 . S
C389 C387 1.380 1_655 S
C389 C390 1.391 . S
C389 H399 0.930 . S
C390 C389 1.391 . S
C390 C392 1.387 1_655 S
C391 C388 1.398 . S
C391 C392 1.380 . S
C391 H400 0.930 . S
C392 C390 1.387 1_455 S
C392 C391 1.380 . S
C392 H401 0.930 . S
C393 O370 1.254 . S
C393 O371 1.268 1_554 S
H394 C379 0.930 . S
H395 C380 0.930 . S
H396 C382 0.930 . S
H397 C383 0.930 . S
H398 C388 0.930 . S
H399 C389 0.930 . S
H400 C391 0.930 . S
H401 C392 0.930 . S
Gd402 N433 2.668 . S
Gd402 N439 2.613 . S
Gd402 O446 2.588 . S
Gd402 O447 2.577 1_556 S
Gd402 O449 2.401 1_556 S
Gd402 O450 2.555 . S
Gd402 O451 2.460 . S
Gd402 O453 2.315 1_556 S
Gd402 O454 2.318 1_556 S
Gd402 C461 2.879 . S
Gd403 N412 2.661 . S
Gd403 N416 2.601 . S
Gd403 O447 2.362 . S
Gd403 O448 2.324 . S
Gd403 O452 2.545 . S
Gd403 O453 2.606 . S
Gd403 O455 2.429 . S
Gd403 O456 2.545 . S
Gd403 O457 2.412 . S
Gd403 C470 2.828 . S
C404 C407 1.417 . S
C404 C409 1.431 . S
C404 C410 1.412 . S
C405 C408 1.437 . S
C405 C409 1.317 . S
C405 H424 0.929 . S
C406 C407 1.426 . S
C406 C408 1.413 . S
C406 N416 1.359 . S
C407 C404 1.417 . S
C407 C406 1.426 . S
C407 N412 1.350 . S
C408 C405 1.437 . S
C408 C406 1.413 . S
C408 C418 1.391 . S
C409 C404 1.431 . S
C409 C405 1.317 . S
C409 H420 0.930 . S
C410 C404 1.412 . S
C410 C411 1.355 . S
C410 H422 0.930 . S
C411 C410 1.355 . S
C411 C413 1.402 . S
C411 H423 0.930 . S
N412 Gd403 2.661 . S
N412 C407 1.350 . S
N412 C413 1.307 . S
C413 C411 1.402 . S
C413 N412 1.307 . S
C413 H414 0.930 . S
H414 C413 0.930 . S
C415 N416 1.334 . S
C415 C417 1.394 . S
C415 H419 0.930 . S
N416 Gd403 2.601 . S
N416 C406 1.359 . S
N416 C415 1.334 . S
C417 C415 1.394 . S
C417 C418 1.359 . S
C417 H429 0.930 . S
C418 C408 1.391 . S
C418 C417 1.359 . S
C418 H430 0.929 . S
H419 C415 0.930 . S
H420 C409 0.930 . S
H421 C438 0.930 . S
H422 C410 0.930 . S
H423 C411 0.930 . S
H424 C405 0.929 . S
H425 C443 0.930 . S
H426 C434 0.930 . S
H427 C435 0.931 1_554 S
H428 C459 0.929 . S
H429 C417 0.930 . S
H430 C418 0.929 . S
H431 C460 0.930 . S
H432 C441 0.930 . S
N433 Gd402 2.668 . S
N433 C437 1.350 . S
N433 C438 1.307 1_556 S
C434 H426 0.930 . S
C434 C435 1.353 . S
C434 C436 1.412 . S
C435 H427 0.931 1_556 S
C435 C434 1.353 . S
C435 C438 1.403 1_556 S
C436 C434 1.412 . S
C436 C437 1.417 . S
C436 C460 1.431 . S
C437 N433 1.350 . S
C437 C436 1.417 . S
C437 C440 1.426 . S
C438 H421 0.930 . S
C438 N433 1.307 1_554 S
C438 C435 1.403 1_554 S
N439 Gd402 2.613 . S
N439 C440 1.359 . S
N439 C443 1.334 . S
C440 C437 1.426 . S
C440 N439 1.359 . S
C440 C444 1.413 . S
C441 H432 0.930 . S
C441 C442 1.359 . S
C441 C443 1.394 . S
C442 C441 1.359 . S
C442 C444 1.391 . S
C442 H445 0.929 . S
C443 H425 0.930 . S
C443 N439 1.334 . S
C443 C441 1.394 . S
C444 C440 1.413 . S
C444 C442 1.391 . S
C444 C459 1.437 . S
H445 C442 0.929 . S
O446 Gd402 2.588 . S
O446 C461 1.258 . S
O447 Gd402 2.577 1_554 S
O447 Gd403 2.362 . S
O447 C458 1.284 . S
O448 Gd403 2.324 . S
O448 C468 1.254 . S
O449 Gd402 2.401 1_554 S
O449 C468 1.268 . S
O450 Gd402 2.555 . S
O450 C458 1.250 1_556 S
O451 Gd402 2.460 . S
O451 C461 1.252 . S
O452 Gd403 2.545 . S
O452 C470 1.258 . S
O453 Gd402 2.315 1_554 S
O453 Gd403 2.606 . S
O453 C469 1.284 . S
O454 Gd402 2.318 1_554 S
O454 C477 1.254 . S
O455 Gd403 2.429 . S
O455 C477 1.268 . S
O456 Gd403 2.545 . S
O456 C469 1.250 . S
O457 Gd403 2.412 . S
O457 C470 1.252 . S
C458 O447 1.284 . S
C458 O450 1.250 1_554 S
C459 H428 0.929 . S
C459 C444 1.437 . S
C459 C460 1.317 . S
C460 H431 0.930 . S
C460 C436 1.431 . S
C460 C459 1.317 . S
C461 Gd402 2.879 . S
C461 O446 1.258 . S
C461 O451 1.252 . S
C461 C462 1.497 . S
C462 C461 1.497 . S
C462 C463 1.395 . S
C462 C464 1.380 . S
C463 C462 1.395 . S
C463 C466 1.398 . S
C463 H478 0.930 . S
C464 C462 1.380 . S
C464 C465 1.391 . S
C464 H479 0.930 . S
C465 C464 1.391 . S
C465 C467 1.387 . S
C466 C463 1.398 . S
C466 C467 1.380 . S
C466 H480 0.930 . S
C467 C465 1.387 . S
C467 C466 1.380 . S
C467 H481 0.930 . S
C468 O448 1.254 . S
C468 O449 1.268 . S
C469 O453 1.284 . S
C469 O456 1.250 . S
C470 Gd403 2.828 . S
C470 O452 1.258 . S
C470 O457 1.252 . S
C470 C471 1.497 . S
C471 C470 1.497 . S
C471 C472 1.395 . S
C471 C473 1.380 . S
C472 C471 1.395 . S
C472 C475 1.398 . S
C472 H482 0.930 . S
C473 C471 1.380 . S
C473 C474 1.391 . S
C473 H483 0.930 . S
C474 C473 1.391 . S
C474 C476 1.387 . S
C475 C472 1.398 . S
C475 C476 1.380 . S
C475 H484 0.930 . S
C476 C474 1.387 . S
C476 C475 1.380 . S
C476 H485 0.930 . S
C477 O454 1.254 . S
C477 O455 1.268 . S
H478 C463 0.930 . S
H479 C464 0.930 . S
H480 C466 0.930 . S
H481 C467 0.930 . S
H482 C472 0.930 . S
H483 C473 0.930 . S
H484 C475 0.930 . S
H485 C476 0.930 . S
Gd486 N517 2.661 . S
Gd486 N523 2.601 . S
Gd486 O530 2.545 . S
Gd486 O531 2.606 . S
Gd486 O533 2.429 . S
Gd486 O534 2.545 . S
Gd486 O535 2.412 . S
Gd486 O537 2.362 . S
Gd486 O538 2.324 . S
Gd486 C545 2.828 . S
Gd487 N496 2.661 . S
Gd487 N500 2.601 . S
Gd487 O531 2.362 . S
Gd487 O532 2.324 . S
Gd487 O536 2.545 . S
Gd487 O537 2.606 . S
Gd487 O539 2.429 . S
Gd487 O540 2.545 . S
Gd487 O541 2.412 . S
Gd487 C554 2.828 . S
C488 C491 1.417 . S
C488 C493 1.431 . S
C488 C494 1.412 . S
C489 C492 1.437 . S
C489 C493 1.317 . S
C489 H508 0.929 . S
C490 C491 1.426 . S
C490 C492 1.413 . S
C490 N500 1.359 . S
C491 C488 1.417 . S
C491 C490 1.426 . S
C491 N496 1.350 . S
C492 C489 1.437 . S
C492 C490 1.413 . S
C492 C502 1.391 . S
C493 C488 1.431 . S
C493 C489 1.317 . S
C493 H504 0.930 . S
C494 C488 1.412 . S
C494 C495 1.355 . S
C494 H506 0.930 . S
C495 C494 1.355 . S
C495 C497 1.402 . S
C495 H507 0.930 . S
N496 Gd487 2.661 . S
N496 C491 1.350 . S
N496 C497 1.307 . S
C497 C495 1.402 . S
C497 N496 1.307 . S
C497 H498 0.930 . S
H498 C497 0.930 . S
C499 N500 1.334 . S
C499 C501 1.394 . S
C499 H503 0.930 . S
N500 Gd487 2.601 . S
N500 C490 1.359 . S
N500 C499 1.334 . S
C501 C499 1.394 . S
C501 C502 1.359 . S
C501 H513 0.930 . S
C502 C492 1.391 . S
C502 C501 1.359 . S
C502 H514 0.929 . S
H503 C499 0.930 . S
H504 C493 0.930 . S
H505 C522 0.930 . S
H506 C494 0.930 . S
H507 C495 0.930 . S
H508 C489 0.929 . S
H509 C527 0.930 . S
H510 C518 0.930 . S
H511 C519 0.930 . S
H512 C543 0.929 . S
H513 C501 0.930 . S
H514 C502 0.929 . S
H515 C544 0.930 . S
H516 C525 0.930 . S
N517 Gd486 2.661 . S
N517 C521 1.350 . S
N517 C522 1.307 . S
C518 H510 0.930 . S
C518 C519 1.355 . S
C518 C520 1.412 . S
C519 H511 0.930 . S
C519 C518 1.355 . S
C519 C522 1.402 . S
C520 C518 1.412 . S
C520 C521 1.417 . S
C520 C544 1.431 . S
C521 N517 1.350 . S
C521 C520 1.417 . S
C521 C524 1.426 . S
C522 H505 0.930 . S
C522 N517 1.307 . S
C522 C519 1.402 . S
N523 Gd486 2.601 . S
N523 C524 1.359 . S
N523 C527 1.334 . S
C524 C521 1.426 . S
C524 N523 1.359 . S
C524 C528 1.413 . S
C525 H516 0.930 . S
C525 C526 1.359 . S
C525 C527 1.394 . S
C526 C525 1.359 . S
C526 C528 1.391 . S
C526 H529 0.929 . S
C527 H509 0.930 . S
C527 N523 1.334 . S
C527 C525 1.394 . S
C528 C524 1.413 . S
C528 C526 1.391 . S
C528 C543 1.437 . S
H529 C526 0.929 . S
O530 Gd486 2.545 . S
O530 C545 1.258 . S
O531 Gd486 2.606 . S
O531 Gd487 2.362 . S
O531 C542 1.284 . S
O532 Gd487 2.324 . S
O532 C552 1.254 . S
O533 Gd486 2.429 . S
O533 C552 1.268 . S
O534 Gd486 2.545 . S
O534 C542 1.250 . S
O535 Gd486 2.412 . S
O535 C545 1.252 . S
O536 Gd487 2.545 . S
O536 C554 1.258 . S
O537 Gd486 2.362 . S
O537 Gd487 2.606 . S
O537 C553 1.284 . S
O538 Gd486 2.324 . S
O538 C561 1.254 . S
O539 Gd487 2.429 . S
O539 C561 1.268 . S
O540 Gd487 2.545 . S
O540 C553 1.250 . S
O541 Gd487 2.412 . S
O541 C554 1.252 . S
C542 O531 1.284 . S
C542 O534 1.250 . S
C543 H512 0.929 . S
C543 C528 1.437 . S
C543 C544 1.317 . S
C544 H515 0.930 . S
C544 C520 1.431 . S
C544 C543 1.317 . S
C545 Gd486 2.828 . S
C545 O530 1.258 . S
C545 O535 1.252 . S
C545 C546 1.497 . S
C546 C545 1.497 . S
C546 C547 1.395 . S
C546 C548 1.380 . S
C547 C546 1.395 . S
C547 C550 1.398 . S
C547 H562 0.930 . S
C548 C546 1.380 . S
C548 C549 1.391 . S
C548 H563 0.930 . S
C549 C548 1.391 . S
C549 C551 1.387 . S
C550 C547 1.398 . S
C550 C551 1.380 . S
C550 H564 0.930 . S
C551 C549 1.387 . S
C551 C550 1.380 . S
C551 H565 0.930 . S
C552 O532 1.254 . S
C552 O533 1.268 . S
C553 O537 1.284 . S
C553 O540 1.250 . S
C554 Gd487 2.828 . S
C554 O536 1.258 . S
C554 O541 1.252 . S
C554 C555 1.497 . S
C555 C554 1.497 . S
C555 C556 1.395 . S
C555 C557 1.380 . S
C556 C555 1.395 . S
C556 C559 1.398 . S
C556 H566 0.930 . S
C557 C555 1.380 . S
C557 C558 1.391 . S
C557 H567 0.930 . S
C558 C557 1.391 . S
C558 C560 1.387 . S
C559 C556 1.398 . S
C559 C560 1.380 . S
C559 H568 0.930 . S
C560 C558 1.387 . S
C560 C559 1.380 . S
C560 H569 0.930 . S
C561 O538 1.254 . S
C561 O539 1.268 . S
H562 C547 0.930 . S
H563 C548 0.930 . S
H564 C550 0.930 . S
H565 C551 0.930 . S
H566 C556 0.930 . S
H567 C557 0.930 . S
H568 C559 0.930 . S
H569 C560 0.930 . S
Gd570 N601 2.661 . S
Gd570 N607 2.601 . S
Gd570 O614 2.545 . S
Gd570 O615 2.606 . S
Gd570 O617 2.429 . S
Gd570 O618 2.545 . S
Gd570 O619 2.412 . S
Gd570 O621 2.362 . S
Gd570 O622 2.324 . S
Gd570 C629 2.828 . S
Gd571 N580 2.661 . S
Gd571 N584 2.601 . S
Gd571 O615 2.362 . S
Gd571 O616 2.324 . S
Gd571 O620 2.545 . S
Gd571 O621 2.606 . S
Gd571 O623 2.429 . S
Gd571 O624 2.545 . S
Gd571 O625 2.412 . S
Gd571 C638 2.828 . S
C572 C575 1.417 . S
C572 C577 1.431 . S
C572 C578 1.412 . S
C573 C576 1.437 . S
C573 C577 1.317 . S
C573 H592 0.929 . S
C574 C575 1.426 . S
C574 C576 1.413 . S
C574 N584 1.359 . S
C575 C572 1.417 . S
C575 C574 1.426 . S
C575 N580 1.350 . S
C576 C573 1.437 . S
C576 C574 1.413 . S
C576 C586 1.391 . S
C577 C572 1.431 . S
C577 C573 1.317 . S
C577 H588 0.930 . S
C578 C572 1.412 . S
C578 C579 1.355 . S
C578 H590 0.930 . S
C579 C578 1.355 . S
C579 C581 1.402 . S
C579 H591 0.930 . S
N580 Gd571 2.661 . S
N580 C575 1.350 . S
N580 C581 1.307 . S
C581 C579 1.402 . S
C581 N580 1.307 . S
C581 H582 0.930 . S
H582 C581 0.930 . S
C583 N584 1.334 . S
C583 C585 1.394 . S
C583 H587 0.930 . S
N584 Gd571 2.601 . S
N584 C574 1.359 . S
N584 C583 1.334 . S
C585 C583 1.394 . S
C585 C586 1.359 . S
C585 H597 0.930 . S
C586 C576 1.391 . S
C586 C585 1.359 . S
C586 H598 0.929 . S
H587 C583 0.930 . S
H588 C577 0.930 . S
H589 C606 0.930 . S
H590 C578 0.930 . S
H591 C579 0.930 . S
H592 C573 0.929 . S
H593 C611 0.930 . S
H594 C602 0.930 . S
H595 C603 0.930 . S
H596 C627 0.929 . S
H597 C585 0.930 . S
H598 C586 0.929 . S
H599 C628 0.930 . S
H600 C609 0.930 . S
N601 Gd570 2.661 . S
N601 C605 1.350 . S
N601 C606 1.307 . S
C602 H594 0.930 . S
C602 C603 1.355 . S
C602 C604 1.412 . S
C603 H595 0.930 . S
C603 C602 1.355 . S
C603 C606 1.402 . S
C604 C602 1.412 . S
C604 C605 1.417 . S
C604 C628 1.431 . S
C605 N601 1.350 . S
C605 C604 1.417 . S
C605 C608 1.426 . S
C606 H589 0.930 . S
C606 N601 1.307 . S
C606 C603 1.402 . S
N607 Gd570 2.601 . S
N607 C608 1.359 . S
N607 C611 1.334 . S
C608 C605 1.426 . S
C608 N607 1.359 . S
C608 C612 1.413 . S
C609 H600 0.930 . S
C609 C610 1.359 . S
C609 C611 1.394 . S
C610 C609 1.359 . S
C610 C612 1.391 . S
C610 H613 0.929 . S
C611 H593 0.930 . S
C611 N607 1.334 . S
C611 C609 1.394 . S
C612 C608 1.413 . S
C612 C610 1.391 . S
C612 C627 1.437 . S
H613 C610 0.929 . S
O614 Gd570 2.545 . S
O614 C629 1.258 . S
O615 Gd570 2.606 . S
O615 Gd571 2.362 . S
O615 C626 1.284 . S
O616 Gd571 2.324 . S
O616 C636 1.254 . S
O617 Gd570 2.429 . S
O617 C636 1.268 . S
O618 Gd570 2.545 . S
O618 C626 1.250 . S
O619 Gd570 2.412 . S
O619 C629 1.252 . S
O620 Gd571 2.545 . S
O620 C638 1.258 . S
O621 Gd570 2.362 . S
O621 Gd571 2.606 . S
O621 C637 1.284 . S
O622 Gd570 2.324 . S
O622 C645 1.254 . S
O623 Gd571 2.429 . S
O623 C645 1.268 . S
O624 Gd571 2.545 . S
O624 C637 1.250 . S
O625 Gd571 2.412 . S
O625 C638 1.252 . S
C626 O615 1.284 . S
C626 O618 1.250 . S
C627 H596 0.929 . S
C627 C612 1.437 . S
C627 C628 1.317 . S
C628 H599 0.930 . S
C628 C604 1.431 . S
C628 C627 1.317 . S
C629 Gd570 2.828 . S
C629 O614 1.258 . S
C629 O619 1.252 . S
C629 C630 1.497 . S
C630 C629 1.497 . S
C630 C631 1.395 . S
C630 C632 1.380 . S
C631 C630 1.395 . S
C631 C634 1.398 . S
C631 H646 0.930 . S
C632 C630 1.380 . S
C632 C633 1.391 . S
C632 H647 0.930 . S
C633 C632 1.391 . S
C633 C635 1.387 . S
C634 C631 1.398 . S
C634 C635 1.380 . S
C634 H648 0.930 . S
C635 C633 1.387 . S
C635 C634 1.380 . S
C635 H649 0.930 . S
C636 O616 1.254 . S
C636 O617 1.268 . S
C637 O621 1.284 . S
C637 O624 1.250 . S
C638 Gd571 2.828 . S
C638 O620 1.258 . S
C638 O625 1.252 . S
C638 C639 1.497 . S
C639 C638 1.497 . S
C639 C640 1.395 . S
C639 C641 1.380 . S
C640 C639 1.395 . S
C640 C643 1.398 . S
C640 H650 0.930 . S
C641 C639 1.380 . S
C641 C642 1.391 . S
C641 H651 0.930 . S
C642 C641 1.391 . S
C642 C644 1.387 . S
C643 C640 1.398 . S
C643 C644 1.380 . S
C643 H652 0.930 . S
C644 C642 1.387 . S
C644 C643 1.380 . S
C644 H653 0.930 . S
C645 O622 1.254 . S
C645 O623 1.268 . S
H646 C631 0.930 . S
H647 C632 0.930 . S
H648 C634 0.930 . S
H649 C635 0.930 . S
H650 C640 0.930 . S
H651 C641 0.930 . S
H652 C643 0.930 . S
H653 C644 0.930 . S
Gd654 N685 2.661 . S
Gd654 N691 2.601 . S
Gd654 O698 2.545 . S
Gd654 O699 2.606 . S
Gd654 O701 2.429 . S
Gd654 O702 2.545 . S
Gd654 O703 2.412 . S
Gd654 O705 2.362 . S
Gd654 O706 2.324 . S
Gd654 C713 2.828 . S
Gd655 N664 2.661 . S
Gd655 N668 2.601 . S
Gd655 O699 2.362 . S
Gd655 O700 2.324 . S
Gd655 O704 2.545 . S
Gd655 O705 2.606 . S
Gd655 O707 2.429 . S
Gd655 O708 2.545 . S
Gd655 O709 2.412 . S
Gd655 C722 2.828 . S
C656 C659 1.417 . S
C656 C661 1.431 . S
C656 C662 1.412 . S
C657 C660 1.437 . S
C657 C661 1.317 . S
C657 H676 0.929 . S
C658 C659 1.426 . S
C658 C660 1.413 . S
C658 N668 1.359 . S
C659 C656 1.417 . S
C659 C658 1.426 . S
C659 N664 1.350 . S
C660 C657 1.437 . S
C660 C658 1.413 . S
C660 C670 1.391 . S
C661 C656 1.431 . S
C661 C657 1.317 . S
C661 H672 0.930 . S
C662 C656 1.412 . S
C662 C663 1.355 . S
C662 H674 0.930 . S
C663 C662 1.355 . S
C663 C665 1.402 . S
C663 H675 0.930 . S
N664 Gd655 2.661 . S
N664 C659 1.350 . S
N664 C665 1.307 . S
C665 C663 1.402 . S
C665 N664 1.307 . S
C665 H666 0.930 . S
H666 C665 0.930 . S
C667 N668 1.334 . S
C667 C669 1.394 . S
C667 H671 0.930 . S
N668 Gd655 2.601 . S
N668 C658 1.359 . S
N668 C667 1.334 . S
C669 C667 1.394 . S
C669 C670 1.359 . S
C669 H681 0.930 . S
C670 C660 1.391 . S
C670 C669 1.359 . S
C670 H682 0.929 . S
H671 C667 0.930 . S
H672 C661 0.930 . S
H673 C690 0.930 . S
H674 C662 0.930 . S
H675 C663 0.930 . S
H676 C657 0.929 . S
H677 C695 0.930 . S
H678 C686 0.930 . S
H679 C687 0.930 . S
H680 C711 0.929 . S
H681 C669 0.930 . S
H682 C670 0.929 . S
H683 C712 0.930 . S
H684 C693 0.930 . S
N685 Gd654 2.661 . S
N685 C689 1.350 . S
N685 C690 1.307 . S
C686 H678 0.930 . S
C686 C687 1.355 . S
C686 C688 1.412 . S
C687 H679 0.930 . S
C687 C686 1.355 . S
C687 C690 1.402 . S
C688 C686 1.412 . S
C688 C689 1.417 . S
C688 C712 1.431 . S
C689 N685 1.350 . S
C689 C688 1.417 . S
C689 C692 1.426 . S
C690 H673 0.930 . S
C690 N685 1.307 . S
C690 C687 1.402 . S
N691 Gd654 2.601 . S
N691 C692 1.359 . S
N691 C695 1.334 . S
C692 C689 1.426 . S
C692 N691 1.359 . S
C692 C696 1.413 . S
C693 H684 0.930 . S
C693 C694 1.359 . S
C693 C695 1.394 . S
C694 C693 1.359 . S
C694 C696 1.391 . S
C694 H697 0.929 . S
C695 H677 0.930 . S
C695 N691 1.334 . S
C695 C693 1.394 . S
C696 C692 1.413 . S
C696 C694 1.391 . S
C696 C711 1.437 . S
H697 C694 0.929 . S
O698 Gd654 2.545 . S
O698 C713 1.258 . S
O699 Gd654 2.606 . S
O699 Gd655 2.362 . S
O699 C710 1.284 . S
O700 Gd655 2.324 . S
O700 C720 1.254 . S
O701 Gd654 2.429 . S
O701 C720 1.268 . S
O702 Gd654 2.545 . S
O702 C710 1.250 . S
O703 Gd654 2.412 . S
O703 C713 1.252 . S
O704 Gd655 2.545 . S
O704 C722 1.258 . S
O705 Gd654 2.362 . S
O705 Gd655 2.606 . S
O705 C721 1.284 . S
O706 Gd654 2.324 . S
O706 C729 1.254 . S
O707 Gd655 2.429 . S
O707 C729 1.268 . S
O708 Gd655 2.545 . S
O708 C721 1.250 . S
O709 Gd655 2.412 . S
O709 C722 1.252 . S
C710 O699 1.284 . S
C710 O702 1.250 . S
C711 H680 0.929 . S
C711 C696 1.437 . S
C711 C712 1.317 . S
C712 H683 0.930 . S
C712 C688 1.431 . S
C712 C711 1.317 . S
C713 Gd654 2.828 . S
C713 O698 1.258 . S
C713 O703 1.252 . S
C713 C714 1.497 . S
C714 C713 1.497 . S
C714 C715 1.395 . S
C714 C716 1.380 . S
C715 C714 1.395 . S
C715 C718 1.398 . S
C715 H730 0.930 . S
C716 C714 1.380 . S
C716 C717 1.391 . S
C716 H731 0.930 . S
C717 C716 1.391 . S
C717 C719 1.387 . S
C718 C715 1.398 . S
C718 C719 1.380 . S
C718 H732 0.930 . S
C719 C717 1.387 . S
C719 C718 1.380 . S
C719 H733 0.930 . S
C720 O700 1.254 . S
C720 O701 1.268 . S
C721 O705 1.284 . S
C721 O708 1.250 . S
C722 Gd655 2.828 . S
C722 O704 1.258 . S
C722 O709 1.252 . S
C722 C723 1.497 . S
C723 C722 1.497 . S
C723 C724 1.395 . S
C723 C725 1.380 . S
C724 C723 1.395 . S
C724 C727 1.398 . S
C724 H734 0.930 . S
C725 C723 1.380 . S
C725 C726 1.391 . S
C725 H735 0.930 . S
C726 C725 1.391 . S
C726 C728 1.387 . S
C727 C724 1.398 . S
C727 C728 1.380 . S
C727 H736 0.930 . S
C728 C726 1.387 . S
C728 C727 1.380 . S
C728 H737 0.930 . S
C729 O706 1.254 . S
C729 O707 1.268 . S
H730 C715 0.930 . S
H731 C716 0.930 . S
H732 C718 0.930 . S
H733 C719 0.930 . S
H734 C724 0.930 . S
H735 C725 0.930 . S
H736 C727 0.930 . S
H737 C728 0.930 . S
Gd738 N769 2.661 . S
Gd738 N775 2.601 . S
Gd738 O782 2.545 . S
Gd738 O783 2.606 . S
Gd738 O785 2.429 . S
Gd738 O786 2.545 . S
Gd738 O787 2.412 . S
Gd738 O789 2.362 . S
Gd738 O790 2.324 . S
Gd738 C797 2.828 . S
Gd739 N748 2.661 . S
Gd739 N752 2.601 . S
Gd739 O783 2.362 . S
Gd739 O784 2.324 . S
Gd739 O788 2.545 . S
Gd739 O789 2.606 . S
Gd739 O791 2.429 . S
Gd739 O792 2.545 . S
Gd739 O793 2.412 . S
Gd739 C806 2.828 . S
C740 C743 1.417 . S
C740 C745 1.431 . S
C740 C746 1.412 . S
C741 C744 1.437 . S
C741 C745 1.317 . S
C741 H760 0.929 . S
C742 C743 1.426 . S
C742 C744 1.413 . S
C742 N752 1.359 . S
C743 C740 1.417 . S
C743 C742 1.426 . S
C743 N748 1.350 . S
C744 C741 1.437 . S
C744 C742 1.413 . S
C744 C754 1.391 . S
C745 C740 1.431 . S
C745 C741 1.317 . S
C745 H756 0.930 . S
C746 C740 1.412 . S
C746 C747 1.355 . S
C746 H758 0.930 . S
C747 C746 1.355 . S
C747 C749 1.402 . S
C747 H759 0.930 . S
N748 Gd739 2.661 . S
N748 C743 1.350 . S
N748 C749 1.307 . S
C749 C747 1.402 . S
C749 N748 1.307 . S
C749 H750 0.930 . S
H750 C749 0.930 . S
C751 N752 1.334 . S
C751 C753 1.394 . S
C751 H755 0.930 . S
N752 Gd739 2.601 . S
N752 C742 1.359 . S
N752 C751 1.334 . S
C753 C751 1.394 . S
C753 C754 1.359 . S
C753 H765 0.930 . S
C754 C744 1.391 . S
C754 C753 1.359 . S
C754 H766 0.929 . S
H755 C751 0.930 . S
H756 C745 0.930 . S
H757 C774 0.930 . S
H758 C746 0.930 . S
H759 C747 0.930 . S
H760 C741 0.929 . S
H761 C779 0.930 . S
H762 C770 0.930 1_455 S
H763 C771 0.930 . S
H764 C795 0.929 . S
H765 C753 0.930 . S
H766 C754 0.929 . S
H767 C796 0.934 1_455 S
H768 C777 0.930 . S
N769 Gd738 2.661 . S
N769 C773 1.350 . S
N769 C774 1.307 . S
C770 H762 0.930 1_655 S
C770 C771 1.355 . S
C770 C772 1.412 . S
C771 H763 0.930 . S
C771 C770 1.355 . S
C771 C774 1.402 . S
C772 C770 1.412 . S
C772 C773 1.417 . S
C772 C796 1.431 . S
C773 N769 1.350 . S
C773 C772 1.417 . S
C773 C776 1.426 . S
C774 H757 0.930 . S
C774 N769 1.307 . S
C774 C771 1.402 . S
N775 Gd738 2.601 . S
N775 C776 1.359 . S
N775 C779 1.334 . S
C776 C773 1.426 . S
C776 N775 1.359 . S
C776 C780 1.413 . S
C777 H768 0.930 . S
C777 C778 1.359 . S
C777 C779 1.394 . S
C778 C777 1.359 . S
C778 C780 1.391 . S
C778 H781 0.929 . S
C779 H761 0.930 . S
C779 N775 1.334 . S
C779 C777 1.394 . S
C780 C776 1.413 . S
C780 C778 1.391 . S
C780 C795 1.437 . S
H781 C778 0.929 . S
O782 Gd738 2.545 . S
O782 C797 1.258 . S
O783 Gd738 2.606 . S
O783 Gd739 2.362 . S
O783 C794 1.284 . S
O784 Gd739 2.324 . S
O784 C804 1.254 . S
O785 Gd738 2.429 . S
O785 C804 1.268 . S
O786 Gd738 2.545 . S
O786 C794 1.250 . S
O787 Gd738 2.412 . S
O787 C797 1.252 . S
O788 Gd739 2.545 . S
O788 C806 1.258 . S
O789 Gd738 2.362 . S
O789 Gd739 2.606 . S
O789 C805 1.284 . S
O790 Gd738 2.324 . S
O790 C813 1.254 . S
O791 Gd739 2.429 . S
O791 C813 1.268 . S
O792 Gd739 2.545 . S
O792 C805 1.250 . S
O793 Gd739 2.412 . S
O793 C806 1.252 . S
C794 O783 1.284 . S
C794 O786 1.250 . S
C795 H764 0.929 . S
C795 C780 1.437 . S
C795 C796 1.317 . S
C796 H767 0.934 1_655 S
C796 C772 1.431 . S
C796 C795 1.317 . S
C797 Gd738 2.828 . S
C797 O782 1.258 . S
C797 O787 1.252 . S
C797 C798 1.497 . S
C798 C797 1.497 . S
C798 C799 1.395 . S
C798 C800 1.380 . S
C799 C798 1.395 . S
C799 C802 1.398 . S
C799 H814 0.930 . S
C800 C798 1.380 . S
C800 C801 1.391 . S
C800 H815 0.930 . S
C801 C800 1.391 . S
C801 C803 1.387 . S
C802 C799 1.398 . S
C802 C803 1.380 . S
C802 H816 0.930 . S
C803 C801 1.387 . S
C803 C802 1.380 . S
C803 H817 0.930 . S
C804 O784 1.254 . S
C804 O785 1.268 . S
C805 O789 1.284 . S
C805 O792 1.250 . S
C806 Gd739 2.828 . S
C806 O788 1.258 . S
C806 O793 1.252 . S
C806 C807 1.497 . S
C807 C806 1.497 . S
C807 C808 1.395 . S
C807 C809 1.380 . S
C808 C807 1.395 . S
C808 C811 1.398 . S
C808 H818 0.930 . S
C809 C807 1.380 . S
C809 C810 1.391 . S
C809 H819 0.930 . S
C810 C809 1.391 . S
C810 C812 1.387 . S
C811 C808 1.398 . S
C811 C812 1.380 . S
C811 H820 0.930 . S
C812 C810 1.387 . S
C812 C811 1.380 . S
C812 H821 0.930 . S
C813 O790 1.254 . S
C813 O791 1.268 . S
H814 C799 0.930 . S
H815 C800 0.930 . S
H816 C802 0.930 . S
H817 C803 0.930 . S
H818 C808 0.930 . S
H819 C809 0.930 . S
H820 C811 0.930 . S
H821 C812 0.930 . S
Gd822 N853 2.661 . S
Gd822 N859 2.601 . S
Gd822 O866 2.545 . S
Gd822 O867 2.606 . S
Gd822 O869 2.429 . S
Gd822 O870 2.545 . S
Gd822 O871 2.412 . S
Gd822 O873 2.362 . S
Gd822 O874 2.324 . S
Gd822 C881 2.828 . S
Gd823 N832 2.661 . S
Gd823 N836 2.601 . S
Gd823 O867 2.362 . S
Gd823 O868 2.324 . S
Gd823 O872 2.545 . S
Gd823 O873 2.606 . S
Gd823 O875 2.429 . S
Gd823 O876 2.545 . S
Gd823 O877 2.412 . S
Gd823 C890 2.828 . S
C824 C827 1.417 . S
C824 C829 1.431 . S
C824 C830 1.412 . S
C825 C828 1.437 . S
C825 C829 1.317 . S
C825 H844 0.929 . S
C826 C827 1.426 . S
C826 C828 1.413 . S
C826 N836 1.359 . S
C827 C824 1.417 . S
C827 C826 1.426 . S
C827 N832 1.350 . S
C828 C825 1.437 . S
C828 C826 1.413 . S
C828 C838 1.391 . S
C829 C824 1.431 . S
C829 C825 1.317 . S
C829 H840 0.930 . S
C830 C824 1.412 . S
C830 C831 1.355 . S
C830 H842 0.930 . S
C831 C830 1.355 . S
C831 C833 1.402 . S
C831 H843 0.930 . S
N832 Gd823 2.661 . S
N832 C827 1.350 . S
N832 C833 1.307 . S
C833 C831 1.402 . S
C833 N832 1.307 . S
C833 H834 0.930 . S
H834 C833 0.930 . S
C835 N836 1.334 . S
C835 C837 1.394 . S
C835 H839 0.930 . S
N836 Gd823 2.601 . S
N836 C826 1.359 . S
N836 C835 1.334 . S
C837 C835 1.394 . S
C837 C838 1.359 . S
C837 H849 0.930 . S
C838 C828 1.391 . S
C838 C837 1.359 . S
C838 H850 0.929 . S
H839 C835 0.930 . S
H840 C829 0.930 . S
H841 C858 0.930 . S
H842 C830 0.930 . S
H843 C831 0.930 . S
H844 C825 0.929 . S
H845 C863 0.930 . S
H846 C854 0.930 . S
H847 C855 0.930 . S
H848 C879 0.929 . S
H849 C837 0.930 . S
H850 C838 0.929 . S
H851 C880 0.930 . S
H852 C861 0.930 . S
N853 Gd822 2.661 . S
N853 C857 1.350 . S
N853 C858 1.307 . S
C854 H846 0.930 . S
C854 C855 1.355 . S
C854 C856 1.412 . S
C855 H847 0.930 . S
C855 C854 1.355 . S
C855 C858 1.402 . S
C856 C854 1.412 . S
C856 C857 1.417 . S
C856 C880 1.431 . S
C857 N853 1.350 . S
C857 C856 1.417 . S
C857 C860 1.426 . S
C858 H841 0.930 . S
C858 N853 1.307 . S
C858 C855 1.402 . S
N859 Gd822 2.601 . S
N859 C860 1.359 . S
N859 C863 1.334 . S
C860 C857 1.426 . S
C860 N859 1.359 . S
C860 C864 1.413 . S
C861 H852 0.930 . S
C861 C862 1.359 . S
C861 C863 1.394 . S
C862 C861 1.359 . S
C862 C864 1.391 . S
C862 H865 0.929 . S
C863 H845 0.930 . S
C863 N859 1.334 . S
C863 C861 1.394 . S
C864 C860 1.413 . S
C864 C862 1.391 . S
C864 C879 1.437 . S
H865 C862 0.929 . S
O866 Gd822 2.545 . S
O866 C881 1.258 . S
O867 Gd822 2.606 . S
O867 Gd823 2.362 . S
O867 C878 1.284 . S
O868 Gd823 2.324 . S
O868 C888 1.254 . S
O869 Gd822 2.429 . S
O869 C888 1.268 . S
O870 Gd822 2.545 . S
O870 C878 1.250 . S
O871 Gd822 2.412 . S
O871 C881 1.252 . S
O872 Gd823 2.545 . S
O872 C890 1.258 . S
O873 Gd822 2.362 . S
O873 Gd823 2.606 . S
O873 C889 1.284 . S
O874 Gd822 2.324 . S
O874 C897 1.254 . S
O875 Gd823 2.429 . S
O875 C897 1.268 . S
O876 Gd823 2.545 . S
O876 C889 1.250 . S
O877 Gd823 2.412 . S
O877 C890 1.252 . S
C878 O867 1.284 . S
C878 O870 1.250 . S
C879 H848 0.929 . S
C879 C864 1.437 . S
C879 C880 1.317 . S
C880 H851 0.930 . S
C880 C856 1.431 . S
C880 C879 1.317 . S
C881 Gd822 2.828 . S
C881 O866 1.258 . S
C881 O871 1.252 . S
C881 C882 1.497 . S
C882 C881 1.497 . S
C882 C883 1.395 . S
C882 C884 1.380 . S
C883 C882 1.395 . S
C883 C886 1.398 . S
C883 H898 0.930 . S
C884 C882 1.380 . S
C884 C885 1.391 . S
C884 H899 0.930 . S
C885 C884 1.391 . S
C885 C887 1.387 . S
C886 C883 1.398 . S
C886 C887 1.380 . S
C886 H900 0.930 . S
C887 C885 1.387 . S
C887 C886 1.380 . S
C887 H901 0.930 . S
C888 O868 1.254 . S
C888 O869 1.268 . S
C889 O873 1.284 . S
C889 O876 1.250 . S
C890 Gd823 2.828 . S
C890 O872 1.258 . S
C890 O877 1.252 . S
C890 C891 1.497 . S
C891 C890 1.497 . S
C891 C892 1.395 . S
C891 C893 1.380 . S
C892 C891 1.395 . S
C892 C895 1.398 . S
C892 H902 0.930 . S
C893 C891 1.380 . S
C893 C894 1.391 . S
C893 H903 0.930 . S
C894 C893 1.391 . S
C894 C896 1.387 . S
C895 C892 1.398 . S
C895 C896 1.380 . S
C895 H904 0.930 . S
C896 C894 1.387 . S
C896 C895 1.380 . S
C896 H905 0.930 . S
C897 O874 1.254 . S
C897 O875 1.268 . S
H898 C883 0.930 . S
H899 C884 0.930 . S
H900 C886 0.930 . S
H901 C887 0.930 . S
H902 C892 0.930 . S
H903 C893 0.930 . S
H904 C895 0.930 . S
H905 C896 0.930 . S
Gd906 N937 2.661 . S
Gd906 N943 2.601 . S
Gd906 O950 2.545 . S
Gd906 O951 2.606 . S
Gd906 O953 2.429 . S
Gd906 O954 2.545 . S
Gd906 O955 2.412 . S
Gd906 O957 2.362 . S
Gd906 O958 2.324 . S
Gd906 C965 2.828 . S
Gd907 N916 2.661 . S
Gd907 N920 2.601 . S
Gd907 O951 2.362 . S
Gd907 O952 2.324 . S
Gd907 O956 2.545 . S
Gd907 O957 2.606 . S
Gd907 O959 2.429 . S
Gd907 O960 2.545 . S
Gd907 O961 2.412 . S
Gd907 C974 2.828 . S
C908 C911 1.417 . S
C908 C913 1.431 . S
C908 C914 1.412 . S
C909 C912 1.437 . S
C909 C913 1.317 . S
C909 H928 0.929 . S
C910 C911 1.426 . S
C910 C912 1.413 . S
C910 N920 1.359 . S
C911 C908 1.417 . S
C911 C910 1.426 . S
C911 N916 1.350 . S
C912 C909 1.437 . S
C912 C910 1.413 . S
C912 C922 1.391 . S
C913 C908 1.431 . S
C913 C909 1.317 . S
C913 H924 0.930 . S
C914 C908 1.412 . S
C914 C915 1.355 . S
C914 H926 0.930 . S
C915 C914 1.355 . S
C915 C917 1.402 . S
C915 H927 0.930 . S
N916 Gd907 2.661 . S
N916 C911 1.350 . S
N916 C917 1.307 . S
C917 C915 1.402 . S
C917 N916 1.307 . S
C917 H918 0.930 . S
H918 C917 0.930 . S
C919 N920 1.334 . S
C919 C921 1.394 . S
C919 H923 0.930 . S
N920 Gd907 2.601 . S
N920 C910 1.359 . S
N920 C919 1.334 . S
C921 C919 1.394 . S
C921 C922 1.359 . S
C921 H933 0.930 . S
C922 C912 1.391 . S
C922 C921 1.359 . S
C922 H934 0.929 . S
H923 C919 0.930 . S
H924 C913 0.930 . S
H925 C942 0.930 . S
H926 C914 0.930 . S
H927 C915 0.930 . S
H928 C909 0.929 . S
H929 C947 0.930 . S
H930 C938 0.930 . S
H931 C939 0.930 . S
H932 C963 0.929 . S
H933 C921 0.930 . S
H934 C922 0.929 . S
H935 C964 0.930 . S
H936 C945 0.930 . S
N937 Gd906 2.661 . S
N937 C941 1.350 . S
N937 C942 1.307 . S
C938 H930 0.930 . S
C938 C939 1.355 . S
C938 C940 1.412 . S
C939 H931 0.930 . S
C939 C938 1.355 . S
C939 C942 1.402 . S
C940 C938 1.412 . S
C940 C941 1.417 . S
C940 C964 1.431 . S
C941 N937 1.350 . S
C941 C940 1.417 . S
C941 C944 1.426 . S
C942 H925 0.930 . S
C942 N937 1.307 . S
C942 C939 1.402 . S
N943 Gd906 2.601 . S
N943 C944 1.359 . S
N943 C947 1.334 . S
C944 C941 1.426 . S
C944 N943 1.359 . S
C944 C948 1.413 . S
C945 H936 0.930 . S
C945 C946 1.359 . S
C945 C947 1.394 . S
C946 C945 1.359 . S
C946 C948 1.391 . S
C946 H949 0.929 . S
C947 H929 0.930 . S
C947 N943 1.334 . S
C947 C945 1.394 . S
C948 C944 1.413 . S
C948 C946 1.391 . S
C948 C963 1.437 . S
H949 C946 0.929 . S
O950 Gd906 2.545 . S
O950 C965 1.258 . S
O951 Gd906 2.606 . S
O951 Gd907 2.362 . S
O951 C962 1.284 . S
O952 Gd907 2.324 . S
O952 C972 1.254 . S
O953 Gd906 2.429 . S
O953 C972 1.268 . S
O954 Gd906 2.545 . S
O954 C962 1.250 . S
O955 Gd906 2.412 . S
O955 C965 1.252 . S
O956 Gd907 2.545 . S
O956 C974 1.258 . S
O957 Gd906 2.362 . S
O957 Gd907 2.606 . S
O957 C973 1.284 . S
O958 Gd906 2.324 . S
O958 C981 1.254 . S
O959 Gd907 2.429 . S
O959 C981 1.268 . S
O960 Gd907 2.545 . S
O960 C973 1.250 . S
O961 Gd907 2.412 . S
O961 C974 1.252 . S
C962 O951 1.284 . S
C962 O954 1.250 . S
C963 H932 0.929 . S
C963 C948 1.437 . S
C963 C964 1.317 . S
C964 H935 0.930 . S
C964 C940 1.431 . S
C964 C963 1.317 . S
C965 Gd906 2.828 . S
C965 O950 1.258 . S
C965 O955 1.252 . S
C965 C966 1.497 . S
C966 C965 1.497 . S
C966 C967 1.395 . S
C966 C968 1.380 . S
C967 C966 1.395 . S
C967 C970 1.398 . S
C967 H982 0.930 . S
C968 C966 1.380 . S
C968 C969 1.391 . S
C968 H983 0.930 . S
C969 C968 1.391 . S
C969 C971 1.387 . S
C970 C967 1.398 . S
C970 C971 1.380 . S
C970 H984 0.930 . S
C971 C969 1.387 . S
C971 C970 1.380 . S
C971 H985 0.930 . S
C972 O952 1.254 . S
C972 O953 1.268 . S
C973 O957 1.284 . S
C973 O960 1.250 . S
C974 Gd907 2.828 . S
C974 O956 1.258 . S
C974 O961 1.252 . S
C974 C975 1.497 . S
C975 C974 1.497 . S
C975 C976 1.395 . S
C975 C977 1.380 . S
C976 C975 1.395 . S
C976 C979 1.398 . S
C976 H986 0.930 . S
C977 C975 1.380 . S
C977 C978 1.391 . S
C977 H987 0.930 . S
C978 C977 1.391 . S
C978 C980 1.387 . S
C979 C976 1.398 . S
C979 C980 1.380 . S
C979 H988 0.930 . S
C980 C978 1.387 . S
C980 C979 1.380 . S
C980 H989 0.930 . S
C981 O958 1.254 . S
C981 O959 1.268 . S
H982 C967 0.930 . S
H983 C968 0.930 . S
H984 C970 0.930 . S
H985 C971 0.930 . S
H986 C976 0.930 . S
H987 C977 0.930 . S
H988 C979 0.930 . S
H989 C980 0.930 . S
H990 C1002 0.930 . S
H991 C1004 0.930 . S
H992 C1005 0.930 . S
H993 C1009 0.959 . S
H994 C1009 0.959 . S
H995 C1009 0.961 . S
H996 C1010 0.960 . S
H997 C1010 0.961 . S
H998 C1010 0.959 . S
H999 C1013 0.929 . S
H1000 C1014 0.931 . S
H1001 C1016 0.930 . S
C1002 H990 0.930 . S
C1002 C1003 1.399 . S
C1002 C1007 1.399 . S
C1003 C1002 1.399 . S
C1003 C1004 1.376 . S
C1004 H991 0.930 . S
C1004 C1003 1.376 . S
C1004 C1005 1.388 . S
C1005 H992 0.930 . S
C1005 C1004 1.388 . S
C1005 C1006 1.390 . S
C1006 C1005 1.390 . S
C1006 C1007 1.394 . S
C1006 C1012 1.465 . S
C1007 C1002 1.399 . S
C1007 C1006 1.394 . S
C1007 C1008 1.516 . S
C1008 C1007 1.516 . S
C1008 C1009 1.502 . S
C1008 C1010 1.561 . S
C1008 C1011 1.526 . S
C1009 H993 0.959 . S
C1009 H994 0.959 . S
C1009 H995 0.961 . S
C1009 C1008 1.502 . S
C1010 H996 0.960 . S
C1010 H997 0.961 . S
C1010 H998 0.959 . S
C1010 C1008 1.561 . S
C1011 C1008 1.526 . S
C1011 C1012 1.396 . S
C1011 C1016 1.390 . S
C1012 C1006 1.465 . S
C1012 C1011 1.396 . S
C1012 C1013 1.399 . S
C1013 H999 0.929 . S
C1013 C1012 1.399 . S
C1013 C1014 1.385 . S
C1014 H1000 0.931 . S
C1014 C1013 1.385 . S
C1014 C1015 1.389 . S
C1015 C1014 1.389 . S
C1015 C1016 1.387 . S
C1016 H1001 0.930 . S
C1016 C1011 1.390 . S
C1016 C1015 1.387 . S
H1017 C1029 0.930 . S
H1018 C1031 0.930 . S
H1019 C1032 0.930 . S
H1020 C1036 0.959 . S
H1021 C1036 0.959 . S
H1022 C1036 0.961 . S
H1023 C1037 0.960 . S
H1024 C1037 0.961 . S
H1025 C1037 0.959 . S
H1026 C1040 0.929 . S
H1027 C1041 0.931 . S
H1028 C1043 0.930 . S
C1029 H1017 0.930 . S
C1029 C1030 1.399 . S
C1029 C1034 1.399 . S
C1030 C1029 1.399 . S
C1030 C1031 1.376 . S
C1031 H1018 0.930 . S
C1031 C1030 1.376 . S
C1031 C1032 1.388 . S
C1032 H1019 0.930 . S
C1032 C1031 1.388 . S
C1032 C1033 1.390 . S
C1033 C1032 1.390 . S
C1033 C1034 1.394 . S
C1033 C1039 1.465 . S
C1034 C1029 1.399 . S
C1034 C1033 1.394 . S
C1034 C1035 1.516 . S
C1035 C1034 1.516 . S
C1035 C1036 1.502 . S
C1035 C1037 1.561 . S
C1035 C1038 1.526 . S
C1036 H1020 0.959 . S
C1036 H1021 0.959 . S
C1036 H1022 0.961 . S
C1036 C1035 1.502 . S
C1037 H1023 0.960 . S
C1037 H1024 0.961 . S
C1037 H1025 0.959 . S
C1037 C1035 1.561 . S
C1038 C1035 1.526 . S
C1038 C1039 1.396 . S
C1038 C1043 1.390 . S
C1039 C1033 1.465 . S
C1039 C1038 1.396 . S
C1039 C1040 1.399 . S
C1040 H1026 0.929 . S
C1040 C1039 1.399 . S
C1040 C1041 1.385 . S
C1041 H1027 0.931 . S
C1041 C1040 1.385 . S
C1041 C1042 1.389 . S
C1042 C1041 1.389 . S
C1042 C1043 1.387 . S
C1043 H1028 0.930 . S
C1043 C1038 1.390 . S
C1043 C1042 1.387 . S
H1044 C1056 0.930 . S
H1045 C1058 0.930 . S
H1046 C1059 0.930 . S
H1047 C1063 0.959 . S
H1048 C1063 0.959 . S
H1049 C1063 0.961 . S
H1050 C1064 0.960 . S
H1051 C1064 0.961 1_556 S
H1052 C1064 0.959 . S
H1053 C1067 0.929 . S
H1054 C1068 0.931 . S
H1055 C1070 0.930 . S
C1056 H1044 0.930 . S
C1056 C1057 1.399 . S
C1056 C1061 1.399 . S
C1057 C1056 1.399 . S
C1057 C1058 1.376 . S
C1058 H1045 0.930 . S
C1058 C1057 1.376 . S
C1058 C1059 1.388 . S
C1059 H1046 0.930 . S
C1059 C1058 1.388 . S
C1059 C1060 1.390 . S
C1060 C1059 1.390 . S
C1060 C1061 1.394 . S
C1060 C1066 1.465 . S
C1061 C1056 1.399 . S
C1061 C1060 1.394 . S
C1061 C1062 1.516 . S
C1062 C1061 1.516 . S
C1062 C1063 1.502 . S
C1062 C1064 1.561 . S
C1062 C1065 1.526 . S
C1063 H1047 0.959 . S
C1063 H1048 0.959 . S
C1063 H1049 0.961 . S
C1063 C1062 1.502 . S
C1064 H1050 0.960 . S
C1064 H1051 0.961 1_554 S
C1064 H1052 0.959 . S
C1064 C1062 1.561 . S
C1065 C1062 1.526 . S
C1065 C1066 1.396 . S
C1065 C1070 1.390 . S
C1066 C1060 1.465 . S
C1066 C1065 1.396 . S
C1066 C1067 1.399 . S
C1067 H1053 0.929 . S
C1067 C1066 1.399 . S
C1067 C1068 1.385 . S
C1068 H1054 0.931 . S
C1068 C1067 1.385 . S
C1068 C1069 1.389 . S
C1069 C1068 1.389 . S
C1069 C1070 1.387 . S
C1070 H1055 0.930 . S
C1070 C1065 1.390 . S
C1070 C1069 1.387 . S
H1071 C1083 0.930 1_554 S
H1072 C1085 0.930 . S
H1073 C1086 0.930 . S
H1074 C1090 0.959 . S
H1075 C1090 0.959 . S
H1076 C1090 0.961 . S
H1077 C1091 0.960 . S
H1078 C1091 0.961 . S
H1079 C1091 0.959 . S
H1080 C1094 0.929 . S
H1081 C1095 0.931 . S
H1082 C1097 0.930 . S
C1083 H1071 0.930 1_556 S
C1083 C1084 1.399 . S
C1083 C1088 1.399 . S
C1084 C1083 1.399 . S
C1084 C1085 1.376 . S
C1085 H1072 0.930 . S
C1085 C1084 1.376 . S
C1085 C1086 1.388 . S
C1086 H1073 0.930 . S
C1086 C1085 1.388 . S
C1086 C1087 1.390 . S
C1087 C1086 1.390 . S
C1087 C1088 1.394 . S
C1087 C1093 1.465 . S
C1088 C1083 1.399 . S
C1088 C1087 1.394 . S
C1088 C1089 1.516 1_556 S
C1089 C1088 1.516 1_554 S
C1089 C1090 1.502 . S
C1089 C1091 1.561 . S
C1089 C1092 1.526 1_554 S
C1090 H1074 0.959 . S
C1090 H1075 0.959 . S
C1090 H1076 0.961 . S
C1090 C1089 1.502 . S
C1091 H1077 0.960 . S
C1091 H1078 0.961 . S
C1091 H1079 0.959 . S
C1091 C1089 1.561 . S
C1092 C1089 1.526 1_556 S
C1092 C1093 1.396 . S
C1092 C1097 1.389 1_556 S
C1093 C1087 1.465 . S
C1093 C1092 1.396 . S
C1093 C1094 1.399 . S
C1094 H1080 0.929 . S
C1094 C1093 1.399 . S
C1094 C1095 1.385 . S
C1095 H1081 0.931 . S
C1095 C1094 1.385 . S
C1095 C1096 1.389 . S
C1096 C1095 1.389 . S
C1096 C1097 1.387 1_556 S
C1097 H1082 0.930 . S
C1097 C1092 1.389 1_554 S
C1097 C1096 1.387 1_554 S
H1098 C1110 0.930 . S
H1099 C1112 0.930 . S
H1100 C1113 0.930 . S
H1101 C1117 0.959 . S
H1102 C1117 0.959 . S
H1103 C1117 0.961 . S
H1104 C1118 0.960 . S
H1105 C1118 0.961 . S
H1106 C1118 0.959 . S
H1107 C1121 0.929 . S
H1108 C1122 0.931 . S
H1109 C1124 0.930 . S
C1110 H1098 0.930 . S
C1110 C1111 1.399 . S
C1110 C1115 1.399 . S
C1111 C1110 1.399 . S
C1111 C1112 1.376 . S
C1112 H1099 0.930 . S
C1112 C1111 1.376 . S
C1112 C1113 1.388 . S
C1113 H1100 0.930 . S
C1113 C1112 1.388 . S
C1113 C1114 1.390 . S
C1114 C1113 1.390 . S
C1114 C1115 1.394 . S
C1114 C1120 1.465 . S
C1115 C1110 1.399 . S
C1115 C1114 1.394 . S
C1115 C1116 1.522 . S
C1116 C1115 1.522 . S
C1116 C1117 1.509 . S
C1116 C1118 1.550 1_556 S
C1116 C1119 1.524 1_556 S
C1117 H1101 0.959 . S
C1117 H1102 0.959 . S
C1117 H1103 0.961 . S
C1117 C1116 1.509 . S
C1118 H1104 0.960 . S
C1118 H1105 0.961 . S
C1118 H1106 0.959 . S
C1118 C1116 1.550 1_554 S
C1119 C1116 1.524 1_554 S
C1119 C1120 1.396 1_554 S
C1119 C1124 1.390 . S
C1120 C1114 1.465 . S
C1120 C1119 1.396 1_556 S
C1120 C1121 1.399 . S
C1121 H1107 0.929 . S
C1121 C1120 1.399 . S
C1121 C1122 1.385 1_556 S
C1122 H1108 0.931 . S
C1122 C1121 1.385 1_554 S
C1122 C1123 1.389 . S
C1123 C1122 1.389 . S
C1123 C1124 1.387 . S
C1124 H1109 0.930 . S
C1124 C1119 1.390 . S
C1124 C1123 1.387 . S
H1125 C1137 0.930 . S
H1126 C1139 0.930 . S
H1127 C1140 0.930 . S
H1128 C1144 0.959 . S
H1129 C1144 0.959 . S
H1130 C1144 0.961 . S
H1131 C1145 0.960 . S
H1132 C1145 0.961 . S
H1133 C1145 0.959 . S
H1134 C1148 0.929 . S
H1135 C1149 0.931 . S
H1136 C1151 0.930 . S
C1137 H1125 0.930 . S
C1137 C1138 1.399 . S
C1137 C1142 1.399 . S
C1138 C1137 1.399 . S
C1138 C1139 1.376 . S
C1139 H1126 0.930 . S
C1139 C1138 1.376 . S
C1139 C1140 1.388 1_556 S
C1140 H1127 0.930 . S
C1140 C1139 1.388 1_554 S
C1140 C1141 1.390 1_554 S
C1141 C1140 1.390 1_556 S
C1141 C1142 1.394 . S
C1141 C1147 1.465 . S
C1142 C1137 1.399 . S
C1142 C1141 1.394 . S
C1142 C1143 1.516 . S
C1143 C1142 1.516 . S
C1143 C1144 1.502 . S
C1143 C1145 1.561 . S
C1143 C1146 1.526 . S
C1144 H1128 0.959 . S
C1144 H1129 0.959 . S
C1144 H1130 0.961 . S
C1144 C1143 1.502 . S
C1145 H1131 0.960 . S
C1145 H1132 0.961 . S
C1145 H1133 0.959 . S
C1145 C1143 1.561 . S
C1146 C1143 1.526 . S
C1146 C1147 1.396 . S
C1146 C1151 1.390 . S
C1147 C1141 1.465 . S
C1147 C1146 1.396 . S
C1147 C1148 1.399 1_556 S
C1148 H1134 0.929 . S
C1148 C1147 1.399 1_554 S
C1148 C1149 1.385 . S
C1149 H1135 0.931 . S
C1149 C1148 1.385 . S
C1149 C1150 1.389 . S
C1150 C1149 1.389 . S
C1150 C1151 1.387 1_554 S
C1151 H1136 0.930 . S
C1151 C1146 1.390 . S
C1151 C1150 1.387 1_556 S
H1152 C1164 0.896 1_554 S
H1153 C1166 0.930 . S
H1154 C1167 0.930 . S
H1155 C1171 0.959 . S
H1156 C1171 0.959 . S
H1157 C1171 0.961 . S
H1158 C1172 0.960 . S
H1159 C1172 0.961 . S
H1160 C1172 0.959 . S
H1161 C1175 0.929 . S
H1162 C1176 0.931 . S
H1163 C1178 0.930 . S
C1164 H1152 0.896 1_556 S
C1164 C1165 1.399 . S
C1164 C1169 1.399 . S
C1165 C1164 1.399 . S
C1165 C1166 1.376 . S
C1166 H1153 0.930 . S
C1166 C1165 1.376 . S
C1166 C1167 1.388 . S
C1167 H1154 0.930 . S
C1167 C1166 1.388 . S
C1167 C1168 1.390 . S
C1168 C1167 1.390 . S
C1168 C1169 1.394 . S
C1168 C1174 1.465 . S
C1169 C1164 1.399 . S
C1169 C1168 1.394 . S
C1169 C1170 1.516 1_556 S
C1170 C1169 1.516 1_554 S
C1170 C1171 1.502 . S
C1170 C1172 1.561 . S
C1170 C1173 1.526 . S
C1171 H1155 0.959 . S
C1171 H1156 0.959 . S
C1171 H1157 0.961 . S
C1171 C1170 1.502 . S
C1172 H1158 0.960 . S
C1172 H1159 0.961 . S
C1172 H1160 0.959 . S
C1172 C1170 1.561 . S
C1173 C1170 1.526 . S
C1173 C1174 1.396 1_554 S
C1173 C1178 1.390 . S
C1174 C1168 1.465 . S
C1174 C1173 1.396 1_556 S
C1174 C1175 1.399 . S
C1175 H1161 0.929 . S
C1175 C1174 1.399 . S
C1175 C1176 1.385 . S
C1176 H1162 0.931 . S
C1176 C1175 1.385 . S
C1176 C1177 1.382 1_556 S
C1177 C1176 1.382 1_554 S
C1177 C1178 1.391 . S
C1178 H1163 0.930 . S
C1178 C1173 1.390 . S
C1178 C1177 1.391 . S
H1179 C1191 0.930 . S
H1180 C1193 0.930 . S
H1181 C1194 0.930 . S
H1182 C1198 0.959 . S
H1183 C1198 0.959 . S
H1184 C1198 0.961 . S
H1185 C1199 0.960 . S
H1186 C1199 0.961 . S
H1187 C1199 0.959 . S
H1188 C1202 0.929 . S
H1189 C1203 0.931 . S
H1190 C1205 0.930 . S
C1191 H1179 0.930 . S
C1191 C1192 1.399 . S
C1191 C1196 1.399 . S
C1192 C1191 1.399 . S
C1192 C1193 1.376 . S
C1193 H1180 0.930 . S
C1193 C1192 1.376 . S
C1193 C1194 1.388 . S
C1194 H1181 0.930 . S
C1194 C1193 1.388 . S
C1194 C1195 1.390 . S
C1195 C1194 1.390 . S
C1195 C1196 1.394 . S
C1195 C1201 1.465 . S
C1196 C1191 1.399 . S
C1196 C1195 1.394 . S
C1196 C1197 1.516 . S
C1197 C1196 1.516 . S
C1197 C1198 1.502 1_556 S
C1197 C1199 1.561 . S
C1197 C1200 1.526 . S
C1198 H1182 0.959 . S
C1198 H1183 0.959 . S
C1198 H1184 0.961 . S
C1198 C1197 1.502 1_554 S
C1199 H1185 0.960 . S
C1199 H1186 0.961 . S
C1199 H1187 0.959 . S
C1199 C1197 1.561 . S
C1200 C1197 1.526 . S
C1200 C1201 1.396 . S
C1200 C1205 1.390 . S
C1201 C1195 1.465 . S
C1201 C1200 1.396 . S
C1201 C1202 1.399 . S
C1202 H1188 0.929 . S
C1202 C1201 1.399 . S
C1202 C1203 1.385 . S
C1203 H1189 0.931 . S
C1203 C1202 1.385 . S
C1203 C1204 1.389 . S
C1204 C1203 1.389 . S
C1204 C1205 1.387 . S
C1205 H1190 0.930 . S
C1205 C1200 1.390 . S
C1205 C1204 1.387 . S
H1206 C1218 0.930 1_554 S
H1207 C1220 0.930 . S
H1208 C1221 0.930 . S
H1209 C1225 0.959 . S
H1210 C1225 0.959 . S
H1211 C1225 0.961 . S
H1212 C1226 0.960 . S
H1213 C1226 0.961 . S
H1214 C1226 0.959 . S
H1215 C1229 0.929 . S
H1216 C1230 0.931 . S
H1217 C1232 0.930 . S
C1218 H1206 0.930 1_556 S
C1218 C1219 1.399 . S
C1218 C1223 1.399 1_556 S
C1219 C1218 1.399 . S
C1219 C1220 1.376 . S
C1220 H1207 0.930 . S
C1220 C1219 1.376 . S
C1220 C1221 1.388 . S
C1221 H1208 0.930 . S
C1221 C1220 1.388 . S
C1221 C1222 1.390 . S
C1222 C1221 1.390 . S
C1222 C1223 1.394 1_556 S
C1222 C1228 1.465 . S
C1223 C1218 1.399 1_554 S
C1223 C1222 1.394 1_554 S
C1223 C1224 1.516 . S
C1224 C1223 1.516 . S
C1224 C1225 1.502 . S
C1224 C1226 1.561 . S
C1224 C1227 1.526 . S
C1225 H1209 0.959 . S
C1225 H1210 0.959 . S
C1225 H1211 0.961 . S
C1225 C1224 1.502 . S
C1226 H1212 0.960 . S
C1226 H1213 0.961 . S
C1226 H1214 0.959 . S
C1226 C1224 1.561 . S
C1227 C1224 1.526 . S
C1227 C1228 1.396 1_554 S
C1227 C1232 1.390 . S
C1228 C1222 1.465 . S
C1228 C1227 1.396 1_556 S
C1228 C1229 1.399 . S
C1229 H1215 0.929 . S
C1229 C1228 1.399 . S
C1229 C1230 1.385 . S
C1230 H1216 0.931 . S
C1230 C1229 1.385 . S
C1230 C1231 1.389 1_556 S
C1231 C1230 1.389 1_554 S
C1231 C1232 1.387 . S
C1232 H1217 0.930 . S
C1232 C1227 1.390 . S
C1232 C1231 1.387 . S
H1233 C1245 0.930 . S
H1234 C1247 0.930 . S
H1235 C1248 0.930 . S
H1236 C1252 0.959 . S
H1237 C1252 0.959 . S
H1238 C1252 0.961 . S
H1239 C1253 0.960 . S
H1240 C1253 0.961 . S
H1241 C1253 0.959 . S
H1242 C1256 0.929 1_556 S
H1243 C1257 0.931 1_556 S
H1244 C1259 0.930 . S
C1245 H1233 0.930 . S
C1245 C1246 1.399 . S
C1245 C1250 1.399 . S
C1246 C1245 1.399 . S
C1246 C1247 1.376 . S
C1247 H1234 0.930 . S
C1247 C1246 1.376 . S
C1247 C1248 1.388 . S
C1248 H1235 0.930 . S
C1248 C1247 1.388 . S
C1248 C1249 1.390 . S
C1249 C1248 1.390 . S
C1249 C1250 1.394 . S
C1249 C1255 1.465 . S
C1250 C1245 1.399 . S
C1250 C1249 1.394 . S
C1250 C1251 1.516 . S
C1251 C1250 1.516 . S
C1251 C1252 1.502 . S
C1251 C1253 1.561 . S
C1251 C1254 1.526 . S
C1252 H1236 0.959 . S
C1252 H1237 0.959 . S
C1252 H1238 0.961 . S
C1252 C1251 1.502 . S
C1253 H1239 0.960 . S
C1253 H1240 0.961 . S
C1253 H1241 0.959 . S
C1253 C1251 1.561 . S
C1254 C1251 1.526 . S
C1254 C1255 1.396 . S
C1254 C1259 1.390 . S
C1255 C1249 1.465 . S
C1255 C1254 1.396 . S
C1255 C1256 1.399 . S
C1256 H1242 0.929 1_554 S
C1256 C1255 1.399 . S
C1256 C1257 1.385 . S
C1257 H1243 0.931 1_554 S
C1257 C1256 1.385 . S
C1257 C1258 1.389 . S
C1258 C1257 1.389 . S
C1258 C1259 1.387 . S
C1259 H1244 0.930 . S
C1259 C1254 1.390 . S
C1259 C1258 1.387 . S
H1260 C1272 0.930 . S
H1261 C1274 0.930 . S
H1262 C1275 0.930 . S
H1263 C1279 0.959 . S
H1264 C1279 0.959 . S
H1265 C1279 0.961 . S
H1266 C1280 0.960 . S
H1267 C1280 0.961 . S
H1268 C1280 0.959 . S
H1269 C1283 0.929 . S
H1270 C1284 0.931 . S
H1271 C1286 0.930 . S
C1272 H1260 0.930 . S
C1272 C1273 1.399 . S
C1272 C1277 1.399 . S
C1273 C1272 1.399 . S
C1273 C1274 1.376 . S
C1274 H1261 0.930 . S
C1274 C1273 1.376 . S
C1274 C1275 1.388 . S
C1275 H1262 0.930 . S
C1275 C1274 1.388 . S
C1275 C1276 1.390 . S
C1276 C1275 1.390 . S
C1276 C1277 1.394 . S
C1276 C1282 1.465 . S
C1277 C1272 1.399 . S
C1277 C1276 1.394 . S
C1277 C1278 1.516 . S
C1278 C1277 1.516 . S
C1278 C1279 1.502 . S
C1278 C1280 1.561 . S
C1278 C1281 1.526 . S
C1279 H1263 0.959 . S
C1279 H1264 0.959 . S
C1279 H1265 0.961 . S
C1279 C1278 1.502 . S
C1280 H1266 0.960 . S
C1280 H1267 0.961 . S
C1280 H1268 0.959 . S
C1280 C1278 1.561 . S
C1281 C1278 1.526 . S
C1281 C1282 1.396 . S
C1281 C1286 1.390 . S
C1282 C1276 1.465 . S
C1282 C1281 1.396 . S
C1282 C1283 1.399 . S
C1283 H1269 0.929 . S
C1283 C1282 1.399 . S
C1283 C1284 1.385 . S
C1284 H1270 0.931 . S
C1284 C1283 1.385 . S
C1284 C1285 1.389 . S
C1285 C1284 1.389 . S
C1285 C1286 1.387 . S
C1286 H1271 0.930 . S
C1286 C1281 1.390 . S
C1286 C1285 1.387 . S
H1287 C1299 0.930 . S
H1288 C1301 0.930 . S
H1289 C1302 0.930 . S
H1290 C1306 0.959 . S
H1291 C1306 0.959 . S
H1292 C1306 0.961 . S
H1293 C1307 0.960 . S
H1294 C1307 0.961 . S
H1295 C1307 0.959 . S
H1296 C1310 0.929 . S
H1297 C1311 0.931 . S
H1298 C1313 0.930 . S
C1299 H1287 0.930 . S
C1299 C1300 1.399 . S
C1299 C1304 1.399 . S
C1300 C1299 1.399 . S
C1300 C1301 1.376 . S
C1301 H1288 0.930 . S
C1301 C1300 1.376 . S
C1301 C1302 1.388 . S
C1302 H1289 0.930 . S
C1302 C1301 1.388 . S
C1302 C1303 1.390 . S
C1303 C1302 1.390 . S
C1303 C1304 1.394 . S
C1303 C1309 1.465 . S
C1304 C1299 1.399 . S
C1304 C1303 1.394 . S
C1304 C1305 1.516 . S
C1305 C1304 1.516 . S
C1305 C1306 1.502 . S
C1305 C1307 1.561 . S
C1305 C1308 1.526 . S
C1306 H1290 0.959 . S
C1306 H1291 0.959 . S
C1306 H1292 0.961 . S
C1306 C1305 1.502 . S
C1307 H1293 0.960 . S
C1307 H1294 0.961 . S
C1307 H1295 0.959 . S
C1307 C1305 1.561 . S
C1308 C1305 1.526 . S
C1308 C1309 1.396 . S
C1308 C1313 1.390 . S
C1309 C1303 1.465 . S
C1309 C1308 1.396 . S
C1309 C1310 1.399 . S
C1310 H1296 0.929 . S
C1310 C1309 1.399 . S
C1310 C1311 1.385 . S
C1311 H1297 0.931 . S
C1311 C1310 1.385 . S
C1311 C1312 1.389 . S
C1312 C1311 1.389 . S
C1312 C1313 1.387 . S
C1313 H1298 0.930 . S
C1313 C1308 1.390 . S
C1313 C1312 1.387 . S
H1314 C1326 0.930 . S
H1315 C1328 0.930 . S
H1316 C1329 0.930 . S
H1317 C1333 0.959 . S
H1318 C1333 0.959 . S
H1319 C1333 0.961 . S
H1320 C1334 0.960 1_655 S
H1321 C1334 0.961 . S
H1322 C1334 0.959 . S
H1323 C1337 0.929 . S
H1324 C1338 0.931 . S
H1325 C1340 0.930 . S
C1326 H1314 0.930 . S
C1326 C1327 1.399 . S
C1326 C1331 1.399 . S
C1327 C1326 1.399 . S
C1327 C1328 1.376 . S
C1328 H1315 0.930 . S
C1328 C1327 1.376 . S
C1328 C1329 1.388 . S
C1329 H1316 0.930 . S
C1329 C1328 1.388 . S
C1329 C1330 1.390 . S
C1330 C1329 1.390 . S
C1330 C1331 1.394 . S
C1330 C1336 1.465 1_655 S
C1331 C1326 1.399 . S
C1331 C1330 1.394 . S
C1331 C1332 1.516 1_655 S
C1332 C1331 1.516 1_455 S
C1332 C1333 1.502 . S
C1332 C1334 1.561 . S
C1332 C1335 1.526 . S
C1333 H1317 0.959 . S
C1333 H1318 0.959 . S
C1333 H1319 0.961 . S
C1333 C1332 1.502 . S
C1334 H1320 0.960 1_455 S
C1334 H1321 0.961 . S
C1334 H1322 0.959 . S
C1334 C1332 1.561 . S
C1335 C1332 1.526 . S
C1335 C1336 1.396 . S
C1335 C1340 1.390 . S
C1336 C1330 1.465 1_455 S
C1336 C1335 1.396 . S
C1336 C1337 1.399 . S
C1337 H1323 0.929 . S
C1337 C1336 1.399 . S
C1337 C1338 1.385 . S
C1338 H1324 0.931 . S
C1338 C1337 1.385 . S
C1338 C1339 1.389 . S
C1339 C1338 1.389 . S
C1339 C1340 1.387 . S
C1340 H1325 0.930 . S
C1340 C1335 1.390 . S
C1340 C1339 1.387 . S
H1341 C1353 0.930 . S
H1342 C1355 0.930 . S
H1343 C1356 0.930 . S
H1344 C1360 0.959 . S
H1345 C1360 0.959 . S
H1346 C1360 0.961 . S
H1347 C1361 0.960 . S
H1348 C1361 0.961 . S
H1349 C1361 0.959 . S
H1350 C1364 0.929 . S
H1351 C1365 0.931 . S
H1352 C1367 0.930 . S
C1353 H1341 0.930 . S
C1353 C1354 1.399 . S
C1353 C1358 1.399 . S
C1354 C1353 1.399 . S
C1354 C1355 1.376 . S
C1355 H1342 0.930 . S
C1355 C1354 1.376 . S
C1355 C1356 1.388 . S
C1356 H1343 0.930 . S
C1356 C1355 1.388 . S
C1356 C1357 1.390 . S
C1357 C1356 1.390 . S
C1357 C1358 1.394 . S
C1357 C1363 1.465 . S
C1358 C1353 1.399 . S
C1358 C1357 1.394 . S
C1358 C1359 1.516 . S
C1359 C1358 1.516 . S
C1359 C1360 1.502 . S
C1359 C1361 1.561 . S
C1359 C1362 1.526 . S
C1360 H1344 0.959 . S
C1360 H1345 0.959 . S
C1360 H1346 0.961 . S
C1360 C1359 1.502 . S
C1361 H1347 0.960 . S
C1361 H1348 0.961 . S
C1361 H1349 0.959 . S
C1361 C1359 1.561 . S
C1362 C1359 1.526 . S
C1362 C1363 1.396 . S
C1362 C1367 1.390 . S
C1363 C1357 1.465 . S
C1363 C1362 1.396 . S
C1363 C1364 1.399 . S
C1364 H1350 0.929 . S
C1364 C1363 1.399 . S
C1364 C1365 1.385 . S
C1365 H1351 0.931 . S
C1365 C1364 1.385 . S
C1365 C1366 1.389 . S
C1366 C1365 1.389 . S
C1366 C1367 1.387 . S
C1367 H1352 0.930 . S
C1367 C1362 1.390 . S
C1367 C1366 1.387 . S
H1368 C1380 0.930 . S
H1369 C1382 0.930 . S
H1370 C1383 0.930 . S
H1371 C1387 0.959 . S
H1372 C1387 0.959 . S
H1373 C1387 0.961 . S
H1374 C1388 0.960 1_545 S
H1375 C1388 0.961 . S
H1376 C1388 0.959 . S
H1377 C1391 0.929 . S
H1378 C1392 0.931 . S
H1379 C1394 0.930 . S
C1380 H1368 0.930 . S
C1380 C1381 1.399 . S
C1380 C1385 1.399 . S
C1381 C1380 1.399 . S
C1381 C1382 1.376 . S
C1382 H1369 0.930 . S
C1382 C1381 1.376 . S
C1382 C1383 1.388 . S
C1383 H1370 0.930 . S
C1383 C1382 1.388 . S
C1383 C1384 1.390 1_545 S
C1384 C1383 1.390 1_565 S
C1384 C1385 1.394 1_565 S
C1384 C1390 1.465 . S
C1385 C1380 1.399 . S
C1385 C1384 1.394 1_545 S
C1385 C1386 1.516 1_545 S
C1386 C1385 1.516 1_565 S
C1386 C1387 1.502 . S
C1386 C1388 1.561 . S
C1386 C1389 1.526 . S
C1387 H1371 0.959 . S
C1387 H1372 0.959 . S
C1387 H1373 0.961 . S
C1387 C1386 1.502 . S
C1388 H1374 0.960 1_565 S
C1388 H1375 0.961 . S
C1388 H1376 0.959 . S
C1388 C1386 1.561 . S
C1389 C1386 1.526 . S
C1389 C1390 1.396 . S
C1389 C1394 1.390 . S
C1390 C1384 1.465 . S
C1390 C1389 1.396 . S
C1390 C1391 1.399 . S
C1391 H1377 0.929 . S
C1391 C1390 1.399 . S
C1391 C1392 1.385 . S
C1392 H1378 0.931 . S
C1392 C1391 1.385 . S
C1392 C1393 1.389 . S
C1393 C1392 1.389 . S
C1393 C1394 1.387 . S
C1394 H1379 0.930 . S
C1394 C1389 1.390 . S
C1394 C1393 1.387 . S
H1395 C1407 0.930 . S
H1396 C1409 0.930 . S
H1397 C1410 0.930 . S
H1398 C1414 0.959 . S
H1399 C1414 0.959 . S
H1400 C1414 0.961 . S
H1401 C1415 0.960 . S
H1402 C1415 0.961 . S
H1403 C1415 0.959 . S
H1404 C1418 0.929 . S
H1405 C1419 0.931 . S
H1406 C1421 0.930 . S
C1407 H1395 0.930 . S
C1407 C1408 1.399 . S
C1407 C1412 1.399 . S
C1408 C1407 1.399 . S
C1408 C1409 1.376 . S
C1409 H1396 0.930 . S
C1409 C1408 1.376 . S
C1409 C1410 1.388 . S
C1410 H1397 0.930 . S
C1410 C1409 1.388 . S
C1410 C1411 1.390 . S
C1411 C1410 1.390 . S
C1411 C1412 1.394 . S
C1411 C1417 1.465 . S
C1412 C1407 1.399 . S
C1412 C1411 1.394 . S
C1412 C1413 1.516 . S
C1413 C1412 1.516 . S
C1413 C1414 1.502 . S
C1413 C1415 1.561 . S
C1413 C1416 1.526 . S
C1414 H1398 0.959 . S
C1414 H1399 0.959 . S
C1414 H1400 0.961 . S
C1414 C1413 1.502 . S
C1415 H1401 0.960 . S
C1415 H1402 0.961 . S
C1415 H1403 0.959 . S
C1415 C1413 1.561 . S
C1416 C1413 1.526 . S
C1416 C1417 1.396 . S
C1416 C1421 1.390 . S
C1417 C1411 1.465 . S
C1417 C1416 1.396 . S
C1417 C1418 1.399 . S
C1418 H1404 0.929 . S
C1418 C1417 1.399 . S
C1418 C1419 1.385 . S
C1419 H1405 0.931 . S
C1419 C1418 1.385 . S
C1419 C1420 1.389 . S
C1420 C1419 1.389 . S
C1420 C1421 1.387 . S
C1421 H1406 0.930 . S
C1421 C1416 1.390 . S
C1421 C1420 1.387 . S
H1422 C1434 0.930 . S
H1423 C1436 0.930 . S
H1424 C1437 0.930 . S
H1425 C1441 0.959 . S
H1426 C1441 0.959 . S
H1427 C1441 0.961 . S
H1428 C1442 0.960 . S
H1429 C1442 0.961 . S
H1430 C1442 0.959 . S
H1431 C1445 0.929 . S
H1432 C1446 0.931 . S
H1433 C1448 0.930 . S
C1434 H1422 0.930 . S
C1434 C1435 1.399 . S
C1434 C1439 1.399 . S
C1435 C1434 1.399 . S
C1435 C1436 1.376 . S
C1436 H1423 0.930 . S
C1436 C1435 1.376 . S
C1436 C1437 1.388 . S
C1437 H1424 0.930 . S
C1437 C1436 1.388 . S
C1437 C1438 1.390 . S
C1438 C1437 1.390 . S
C1438 C1439 1.394 . S
C1438 C1444 1.465 . S
C1439 C1434 1.399 . S
C1439 C1438 1.394 . S
C1439 C1440 1.516 . S
C1440 C1439 1.516 . S
C1440 C1441 1.502 . S
C1440 C1442 1.561 . S
C1440 C1443 1.526 . S
C1441 H1425 0.959 . S
C1441 H1426 0.959 . S
C1441 H1427 0.961 . S
C1441 C1440 1.502 . S
C1442 H1428 0.960 . S
C1442 H1429 0.961 . S
C1442 H1430 0.959 . S
C1442 C1440 1.561 . S
C1443 C1440 1.526 . S
C1443 C1444 1.396 . S
C1443 C1448 1.390 . S
C1444 C1438 1.465 . S
C1444 C1443 1.396 . S
C1444 C1445 1.399 . S
C1445 H1431 0.929 . S
C1445 C1444 1.399 . S
C1445 C1446 1.385 . S
C1446 H1432 0.931 . S
C1446 C1445 1.385 . S
C1446 C1447 1.389 . S
C1447 C1446 1.389 . S
C1447 C1448 1.387 . S
C1448 H1433 0.930 . S
C1448 C1443 1.390 . S
C1448 C1447 1.387 . S
H1449 C1461 0.930 . S
H1450 C1463 0.930 . S
H1451 C1464 0.930 . S
H1452 C1468 0.959 . S
H1453 C1468 0.959 . S
H1454 C1468 0.961 . S
H1455 C1469 0.960 . S
H1456 C1469 0.961 . S
H1457 C1469 0.959 . S
H1458 C1472 0.929 . S
H1459 C1473 0.931 . S
H1460 C1475 0.930 . S
C1461 H1449 0.930 . S
C1461 C1462 1.399 . S
C1461 C1466 1.399 . S
C1462 C1461 1.399 . S
C1462 C1463 1.376 . S
C1463 H1450 0.930 . S
C1463 C1462 1.376 . S
C1463 C1464 1.388 . S
C1464 H1451 0.930 . S
C1464 C1463 1.388 . S
C1464 C1465 1.390 . S
C1465 C1464 1.390 . S
C1465 C1466 1.394 . S
C1465 C1471 1.465 . S
C1466 C1461 1.399 . S
C1466 C1465 1.394 . S
C1466 C1467 1.516 . S
C1467 C1466 1.516 . S
C1467 C1468 1.502 . S
C1467 C1469 1.561 . S
C1467 C1470 1.526 . S
C1468 H1452 0.959 . S
C1468 H1453 0.959 . S
C1468 H1454 0.961 . S
C1468 C1467 1.502 . S
C1469 H1455 0.960 . S
C1469 H1456 0.961 . S
C1469 H1457 0.959 . S
C1469 C1467 1.561 . S
C1470 C1467 1.526 . S
C1470 C1471 1.396 . S
C1470 C1475 1.390 . S
C1471 C1465 1.465 . S
C1471 C1470 1.396 . S
C1471 C1472 1.399 . S
C1472 H1458 0.929 . S
C1472 C1471 1.399 . S
C1472 C1473 1.385 . S
C1473 H1459 0.931 . S
C1473 C1472 1.385 . S
C1473 C1474 1.389 . S
C1474 C1473 1.389 . S
C1474 C1475 1.387 . S
C1475 H1460 0.930 . S
C1475 C1470 1.390 . S
C1475 C1474 1.387 . S
H1476 C1488 0.930 . S
H1477 C1490 0.930 . S
H1478 C1491 0.930 . S
H1479 C1495 0.959 . S
H1480 C1495 0.959 . S
H1481 C1495 0.961 . S
H1482 C1496 0.960 . S
H1483 C1496 0.961 . S
H1484 C1496 0.959 . S
H1485 C1499 0.929 . S
H1486 C1500 0.931 . S
H1487 C1502 0.930 . S
C1488 H1476 0.930 . S
C1488 C1489 1.399 . S
C1488 C1493 1.399 . S
C1489 C1488 1.399 . S
C1489 C1490 1.376 . S
C1490 H1477 0.930 . S
C1490 C1489 1.376 . S
C1490 C1491 1.388 . S
C1491 H1478 0.930 . S
C1491 C1490 1.388 . S
C1491 C1492 1.390 . S
C1492 C1491 1.390 . S
C1492 C1493 1.394 . S
C1492 C1498 1.465 . S
C1493 C1488 1.399 . S
C1493 C1492 1.394 . S
C1493 C1494 1.516 . S
C1494 C1493 1.516 . S
C1494 C1495 1.502 . S
C1494 C1496 1.561 . S
C1494 C1497 1.526 . S
C1495 H1479 0.959 . S
C1495 H1480 0.959 . S
C1495 H1481 0.961 . S
C1495 C1494 1.502 . S
C1496 H1482 0.960 . S
C1496 H1483 0.961 . S
C1496 H1484 0.959 . S
C1496 C1494 1.561 . S
C1497 C1494 1.526 . S
C1497 C1498 1.396 . S
C1497 C1502 1.390 . S
C1498 C1492 1.465 . S
C1498 C1497 1.396 . S
C1498 C1499 1.399 . S
C1499 H1485 0.929 . S
C1499 C1498 1.399 . S
C1499 C1500 1.385 . S
C1500 H1486 0.931 . S
C1500 C1499 1.385 . S
C1500 C1501 1.389 . S
C1501 C1500 1.389 . S
C1501 C1502 1.387 . S
C1502 H1487 0.930 . S
C1502 C1497 1.390 . S
C1502 C1501 1.387 . S
H1503 C1515 0.930 . S
H1504 C1517 0.930 . S
H1505 C1518 0.930 . S
H1506 C1522 0.959 . S
H1507 C1522 0.959 . S
H1508 C1522 0.961 . S
H1509 C1523 0.960 . S
H1510 C1523 0.961 . S
H1511 C1523 0.959 . S
H1512 C1526 0.929 . S
H1513 C1527 0.931 . S
H1514 C1529 0.930 . S
C1515 H1503 0.930 . S
C1515 C1516 1.399 . S
C1515 C1520 1.399 . S
C1516 C1515 1.399 . S
C1516 C1517 1.376 . S
C1517 H1504 0.930 . S
C1517 C1516 1.376 . S
C1517 C1518 1.388 . S
C1518 H1505 0.930 . S
C1518 C1517 1.388 . S
C1518 C1519 1.390 . S
C1519 C1518 1.390 . S
C1519 C1520 1.394 . S
C1519 C1525 1.465 . S
C1520 C1515 1.399 . S
C1520 C1519 1.394 . S
C1520 C1521 1.516 . S
C1521 C1520 1.516 . S
C1521 C1522 1.502 . S
C1521 C1523 1.561 . S
C1521 C1524 1.526 . S
C1522 H1506 0.959 . S
C1522 H1507 0.959 . S
C1522 H1508 0.961 . S
C1522 C1521 1.502 . S
C1523 H1509 0.960 . S
C1523 H1510 0.961 . S
C1523 H1511 0.959 . S
C1523 C1521 1.561 . S
C1524 C1521 1.526 . S
C1524 C1525 1.396 . S
C1524 C1529 1.390 . S
C1525 C1519 1.465 . S
C1525 C1524 1.396 . S
C1525 C1526 1.399 . S
C1526 H1512 0.929 . S
C1526 C1525 1.399 . S
C1526 C1527 1.385 . S
C1527 H1513 0.931 . S
C1527 C1526 1.385 . S
C1527 C1528 1.389 . S
C1528 C1527 1.389 . S
C1528 C1529 1.387 . S
C1529 H1514 0.930 . S
C1529 C1524 1.390 . S
C1529 C1528 1.387 . S
H1530 C1542 0.930 . S
H1531 C1544 0.930 . S
H1532 C1545 0.930 . S
H1533 C1549 0.959 . S
H1534 C1549 0.959 . S
H1535 C1549 0.961 . S
H1536 C1550 0.960 . S
H1537 C1550 0.961 . S
H1538 C1550 0.959 . S
H1539 C1553 0.929 . S
H1540 C1554 0.931 . S
H1541 C1556 0.930 . S
C1542 H1530 0.930 . S
C1542 C1543 1.399 . S
C1542 C1547 1.399 . S
C1543 C1542 1.399 . S
C1543 C1544 1.376 . S
C1544 H1531 0.930 . S
C1544 C1543 1.376 . S
C1544 C1545 1.388 . S
C1545 H1532 0.930 . S
C1545 C1544 1.388 . S
C1545 C1546 1.390 . S
C1546 C1545 1.390 . S
C1546 C1547 1.394 . S
C1546 C1552 1.465 . S
C1547 C1542 1.399 . S
C1547 C1546 1.394 . S
C1547 C1548 1.516 . S
C1548 C1547 1.516 . S
C1548 C1549 1.502 . S
C1548 C1550 1.561 . S
C1548 C1551 1.526 . S
C1549 H1533 0.959 . S
C1549 H1534 0.959 . S
C1549 H1535 0.961 . S
C1549 C1548 1.502 . S
C1550 H1536 0.960 . S
C1550 H1537 0.961 . S
C1550 H1538 0.959 . S
C1550 C1548 1.561 . S
C1551 C1548 1.526 . S
C1551 C1552 1.396 . S
C1551 C1556 1.390 . S
C1552 C1546 1.465 . S
C1552 C1551 1.396 . S
C1552 C1553 1.399 . S
C1553 H1539 0.929 . S
C1553 C1552 1.399 . S
C1553 C1554 1.385 . S
C1554 H1540 0.931 . S
C1554 C1553 1.385 . S
C1554 C1555 1.389 . S
C1555 C1554 1.389 . S
C1555 C1556 1.387 . S
C1556 H1541 0.930 . S
C1556 C1551 1.390 . S
C1556 C1555 1.387 . S
H1557 C1569 0.930 . S
H1558 C1571 0.930 . S
H1559 C1572 0.930 1_565 S
H1560 C1576 0.959 . S
H1561 C1576 0.959 . S
H1562 C1576 0.961 . S
H1563 C1577 0.960 . S
H1564 C1577 0.961 . S
H1565 C1577 0.959 . S
H1566 C1580 0.929 . S
H1567 C1581 0.931 . S
H1568 C1583 0.930 . S
C1569 H1557 0.930 . S
C1569 C1570 1.399 . S
C1569 C1574 1.399 . S
C1570 C1569 1.399 . S
C1570 C1571 1.376 . S
C1571 H1558 0.930 . S
C1571 C1570 1.376 . S
C1571 C1572 1.388 . S
C1572 H1559 0.930 1_545 S
C1572 C1571 1.388 . S
C1572 C1573 1.390 . S
C1573 C1572 1.390 . S
C1573 C1574 1.394 . S
C1573 C1579 1.465 1_545 S
C1574 C1569 1.399 . S
C1574 C1573 1.394 . S
C1574 C1575 1.516 . S
C1575 C1574 1.516 . S
C1575 C1576 1.502 . S
C1575 C1577 1.561 . S
C1575 C1578 1.526 1_545 S
C1576 H1560 0.959 . S
C1576 H1561 0.959 . S
C1576 H1562 0.961 . S
C1576 C1575 1.502 . S
C1577 H1563 0.960 . S
C1577 H1564 0.961 . S
C1577 H1565 0.959 . S
C1577 C1575 1.561 . S
C1578 C1575 1.526 1_565 S
C1578 C1579 1.396 . S
C1578 C1583 1.390 . S
C1579 C1573 1.465 1_565 S
C1579 C1578 1.396 . S
C1579 C1580 1.399 . S
C1580 H1566 0.929 . S
C1580 C1579 1.399 . S
C1580 C1581 1.385 . S
C1581 H1567 0.931 . S
C1581 C1580 1.385 . S
C1581 C1582 1.389 . S
C1582 C1581 1.389 . S
C1582 C1583 1.387 . S
C1583 H1568 0.930 . S
C1583 C1578 1.390 . S
C1583 C1582 1.387 . S
H1584 C1596 0.930 . S
H1585 C1598 0.930 . S
H1586 C1599 0.930 . S
H1587 C1603 0.959 . S
H1588 C1603 0.959 . S
H1589 C1603 0.974 . S
H1590 C1604 0.960 . S
H1591 C1604 0.961 . S
H1592 C1604 0.959 . S
H1593 C1607 0.929 . S
H1594 C1608 0.931 . S
H1595 C1610 0.930 . S
C1596 H1584 0.930 . S
C1596 C1597 1.399 . S
C1596 C1601 1.399 . S
C1597 C1596 1.399 . S
C1597 C1598 1.376 . S
C1598 H1585 0.930 . S
C1598 C1597 1.376 . S
C1598 C1599 1.388 1_655 S
C1599 H1586 0.930 . S
C1599 C1598 1.388 1_455 S
C1599 C1600 1.390 . S
C1600 C1599 1.390 . S
C1600 C1601 1.394 1_455 S
C1600 C1606 1.465 . S
C1601 C1596 1.399 . S
C1601 C1600 1.394 1_655 S
C1601 C1602 1.516 1_655 S
C1602 C1601 1.516 1_455 S
C1602 C1603 1.502 . S
C1602 C1604 1.561 1_455 S
C1602 C1605 1.526 . S
C1603 H1587 0.959 . S
C1603 H1588 0.959 . S
C1603 H1589 0.974 . S
C1603 C1602 1.502 . S
C1604 H1590 0.960 . S
C1604 H1591 0.961 . S
C1604 H1592 0.959 . S
C1604 C1602 1.561 1_655 S
C1605 C1602 1.526 . S
C1605 C1606 1.396 . S
C1605 C1610 1.390 . S
C1606 C1600 1.465 . S
C1606 C1605 1.396 . S
C1606 C1607 1.399 . S
C1607 H1593 0.929 . S
C1607 C1606 1.399 . S
C1607 C1608 1.385 . S
C1608 H1594 0.931 . S
C1608 C1607 1.385 . S
C1608 C1609 1.389 . S
C1609 C1608 1.389 . S
C1609 C1610 1.387 . S
C1610 H1595 0.930 . S
C1610 C1605 1.390 . S
C1610 C1609 1.387 . S
H1611 C1623 0.930 . S
H1612 C1625 0.930 . S
H1613 C1626 0.930 . S
H1614 C1630 0.959 . S
H1615 C1630 0.959 . S
H1616 C1630 0.961 . S
H1617 C1631 0.960 . S
H1618 C1631 0.961 . S
H1619 C1631 0.959 . S
H1620 C1634 0.929 . S
H1621 C1635 0.931 . S
H1622 C1637 0.930 . S
C1623 H1611 0.930 . S
C1623 C1624 1.399 . S
C1623 C1628 1.399 . S
C1624 C1623 1.399 . S
C1624 C1625 1.376 . S
C1625 H1612 0.930 . S
C1625 C1624 1.376 . S
C1625 C1626 1.388 . S
C1626 H1613 0.930 . S
C1626 C1625 1.388 . S
C1626 C1627 1.390 . S
C1627 C1626 1.390 . S
C1627 C1628 1.394 . S
C1627 C1633 1.465 . S
C1628 C1623 1.399 . S
C1628 C1627 1.394 . S
C1628 C1629 1.516 . S
C1629 C1628 1.516 . S
C1629 C1630 1.502 . S
C1629 C1631 1.561 . S
C1629 C1632 1.526 . S
C1630 H1614 0.959 . S
C1630 H1615 0.959 . S
C1630 H1616 0.961 . S
C1630 C1629 1.502 . S
C1631 H1617 0.960 . S
C1631 H1618 0.961 . S
C1631 H1619 0.959 . S
C1631 C1629 1.561 . S
C1632 C1629 1.526 . S
C1632 C1633 1.396 . S
C1632 C1637 1.390 . S
C1633 C1627 1.465 . S
C1633 C1632 1.396 . S
C1633 C1634 1.399 . S
C1634 H1620 0.929 . S
C1634 C1633 1.399 . S
C1634 C1635 1.385 . S
C1635 H1621 0.931 . S
C1635 C1634 1.385 . S
C1635 C1636 1.389 . S
C1636 C1635 1.389 . S
C1636 C1637 1.387 . S
C1637 H1622 0.930 . S
C1637 C1632 1.390 . S
C1637 C1636 1.387 . S
H1638 C1650 0.930 . S
H1639 C1652 0.930 . S
H1640 C1653 0.930 . S
H1641 C1657 0.959 . S
H1642 C1657 0.959 . S
H1643 C1657 0.961 . S
H1644 C1658 0.960 . S
H1645 C1658 0.961 . S
H1646 C1658 0.959 . S
H1647 C1661 0.929 . S
H1648 C1662 0.931 . S
H1649 C1664 0.930 . S
C1650 H1638 0.930 . S
C1650 C1651 1.399 . S
C1650 C1655 1.399 . S
C1651 C1650 1.399 . S
C1651 C1652 1.376 . S
C1652 H1639 0.930 . S
C1652 C1651 1.376 . S
C1652 C1653 1.388 . S
C1653 H1640 0.930 . S
C1653 C1652 1.388 . S
C1653 C1654 1.390 . S
C1654 C1653 1.390 . S
C1654 C1655 1.394 . S
C1654 C1660 1.465 . S
C1655 C1650 1.399 . S
C1655 C1654 1.394 . S
C1655 C1656 1.516 . S
C1656 C1655 1.516 . S
C1656 C1657 1.502 . S
C1656 C1658 1.561 . S
C1656 C1659 1.526 . S
C1657 H1641 0.959 . S
C1657 H1642 0.959 . S
C1657 H1643 0.961 . S
C1657 C1656 1.502 . S
C1658 H1644 0.960 . S
C1658 H1645 0.961 . S
C1658 H1646 0.959 . S
C1658 C1656 1.561 . S
C1659 C1656 1.526 . S
C1659 C1660 1.396 . S
C1659 C1664 1.390 . S
C1660 C1654 1.465 . S
C1660 C1659 1.396 . S
C1660 C1661 1.399 . S
C1661 H1647 0.929 . S
C1661 C1660 1.399 . S
C1661 C1662 1.385 . S
C1662 H1648 0.931 . S
C1662 C1661 1.385 . S
C1662 C1663 1.389 . S
C1663 C1662 1.389 . S
C1663 C1664 1.387 . S
C1664 H1649 0.930 . S
C1664 C1659 1.390 . S
C1664 C1663 1.387 . S
H1665 C1677 0.930 . S
H1666 C1679 0.930 . S
H1667 C1680 0.930 . S
H1668 C1684 0.959 . S
H1669 C1684 0.959 . S
H1670 C1684 0.961 . S
H1671 C1685 0.960 . S
H1672 C1685 0.961 . S
H1673 C1685 0.959 . S
H1674 C1688 0.929 . S
H1675 C1689 0.931 . S
H1676 C1691 0.930 . S
C1677 H1665 0.930 . S
C1677 C1678 1.399 . S
C1677 C1682 1.399 . S
C1678 C1677 1.399 . S
C1678 C1679 1.376 . S
C1679 H1666 0.930 . S
C1679 C1678 1.376 . S
C1679 C1680 1.388 . S
C1680 H1667 0.930 . S
C1680 C1679 1.388 . S
C1680 C1681 1.390 . S
C1681 C1680 1.390 . S
C1681 C1682 1.394 . S
C1681 C1687 1.465 . S
C1682 C1677 1.399 . S
C1682 C1681 1.394 . S
C1682 C1683 1.516 . S
C1683 C1682 1.516 . S
C1683 C1684 1.502 . S
C1683 C1685 1.561 . S
C1683 C1686 1.526 . S
C1684 H1668 0.959 . S
C1684 H1669 0.959 . S
C1684 H1670 0.961 . S
C1684 C1683 1.502 . S
C1685 H1671 0.960 . S
C1685 H1672 0.961 . S
C1685 H1673 0.959 . S
C1685 C1683 1.561 . S
C1686 C1683 1.526 . S
C1686 C1687 1.396 . S
C1686 C1691 1.390 . S
C1687 C1681 1.465 . S
C1687 C1686 1.396 . S
C1687 C1688 1.399 . S
C1688 H1674 0.929 . S
C1688 C1687 1.399 . S
C1688 C1689 1.385 . S
C1689 H1675 0.931 . S
C1689 C1688 1.385 . S
C1689 C1690 1.389 . S
C1690 C1689 1.389 . S
C1690 C1691 1.387 . S
C1691 H1676 0.930 . S
C1691 C1686 1.390 . S
C1691 C1690 1.387 . S
H1692 C1704 0.930 . S
H1693 C1706 0.930 . S
H1694 C1707 0.930 . S
H1695 C1711 0.959 . S
H1696 C1711 0.959 . S
H1697 C1711 0.961 . S
H1698 C1712 0.960 . S
H1699 C1712 0.961 . S
H1700 C1712 0.959 . S
H1701 C1715 0.929 . S
H1702 C1716 0.931 . S
H1703 C1718 0.930 . S
C1704 H1692 0.930 . S
C1704 C1705 1.399 . S
C1704 C1709 1.399 . S
C1705 C1704 1.399 . S
C1705 C1706 1.376 . S
C1706 H1693 0.930 . S
C1706 C1705 1.376 . S
C1706 C1707 1.388 . S
C1707 H1694 0.930 . S
C1707 C1706 1.388 . S
C1707 C1708 1.390 . S
C1708 C1707 1.390 . S
C1708 C1709 1.394 . S
C1708 C1714 1.465 . S
C1709 C1704 1.399 . S
C1709 C1708 1.394 . S
C1709 C1710 1.516 . S
C1710 C1709 1.516 . S
C1710 C1711 1.502 . S
C1710 C1712 1.561 . S
C1710 C1713 1.526 . S
C1711 H1695 0.959 . S
C1711 H1696 0.959 . S
C1711 H1697 0.961 . S
C1711 C1710 1.502 . S
C1712 H1698 0.960 . S
C1712 H1699 0.961 . S
C1712 H1700 0.959 . S
C1712 C1710 1.561 . S
C1713 C1710 1.526 . S
C1713 C1714 1.396 . S
C1713 C1718 1.390 . S
C1714 C1708 1.465 . S
C1714 C1713 1.396 . S
C1714 C1715 1.399 . S
C1715 H1701 0.929 . S
C1715 C1714 1.399 . S
C1715 C1716 1.385 . S
C1716 H1702 0.931 . S
C1716 C1715 1.385 . S
C1716 C1717 1.389 . S
C1717 C1716 1.389 . S
C1717 C1718 1.387 . S
C1718 H1703 0.930 . S
C1718 C1713 1.390 . S
C1718 C1717 1.387 . S
H1719 C1731 0.930 . S
H1720 C1733 0.930 . S
H1721 C1734 0.930 . S
H1722 C1738 0.959 . S
H1723 C1738 0.959 . S
H1724 C1738 0.961 1_565 S
H1725 C1739 0.960 1_565 S
H1726 C1739 0.961 . S
H1727 C1739 0.959 . S
H1728 C1742 0.929 . S
H1729 C1743 0.931 . S
H1730 C1745 0.930 . S
C1731 H1719 0.930 . S
C1731 C1732 1.399 . S
C1731 C1736 1.409 . S
C1732 C1731 1.399 . S
C1732 C1733 1.376 . S
C1733 H1720 0.930 . S
C1733 C1732 1.376 . S
C1733 C1734 1.388 1_565 S
C1734 H1721 0.930 . S
C1734 C1733 1.388 1_545 S
C1734 C1735 1.390 . S
C1735 C1734 1.390 . S
C1735 C1736 1.390 1_545 S
C1735 C1741 1.465 . S
C1736 C1731 1.409 . S
C1736 C1735 1.390 1_565 S
C1736 C1737 1.509 1_565 S
C1737 C1736 1.509 1_545 S
C1737 C1738 1.502 . S
C1737 C1739 1.561 . S
C1737 C1740 1.526 . S
C1738 H1722 0.959 . S
C1738 H1723 0.959 . S
C1738 H1724 0.961 1_545 S
C1738 C1737 1.502 . S
C1739 H1725 0.960 1_545 S
C1739 H1726 0.961 . S
C1739 H1727 0.959 . S
C1739 C1737 1.561 . S
C1740 C1737 1.526 . S
C1740 C1741 1.396 . S
C1740 C1745 1.390 . S
C1741 C1735 1.465 . S
C1741 C1740 1.396 . S
C1741 C1742 1.399 . S
C1742 H1728 0.929 . S
C1742 C1741 1.399 . S
C1742 C1743 1.385 . S
C1743 H1729 0.931 . S
C1743 C1742 1.385 . S
C1743 C1744 1.389 . S
C1744 C1743 1.389 . S
C1744 C1745 1.387 . S
C1745 H1730 0.930 . S
C1745 C1740 1.390 . S
C1745 C1744 1.387 . S
H1746 C1758 0.930 . S
H1747 C1760 0.930 . S
H1748 C1761 0.930 . S
H1749 C1765 0.959 . S
H1750 C1765 0.959 . S
H1751 C1765 0.961 . S
H1752 C1766 0.960 . S
H1753 C1766 0.961 . S
H1754 C1766 0.959 . S
H1755 C1769 0.929 . S
H1756 C1770 0.931 . S
H1757 C1772 0.930 . S
C1758 H1746 0.930 . S
C1758 C1759 1.399 1_655 S
C1758 C1763 1.399 . S
C1759 C1758 1.399 1_455 S
C1759 C1760 1.376 . S
C1760 H1747 0.930 . S
C1760 C1759 1.376 . S
C1760 C1761 1.388 . S
C1761 H1748 0.930 . S
C1761 C1760 1.388 . S
C1761 C1762 1.390 1_455 S
C1762 C1761 1.390 1_655 S
C1762 C1763 1.394 . S
C1762 C1768 1.465 . S
C1763 C1758 1.399 . S
C1763 C1762 1.394 . S
C1763 C1764 1.516 . S
C1764 C1763 1.516 . S
C1764 C1765 1.502 . S
C1764 C1766 1.561 . S
C1764 C1767 1.526 . S
C1765 H1749 0.959 . S
C1765 H1750 0.959 . S
C1765 H1751 0.961 . S
C1765 C1764 1.502 . S
C1766 H1752 0.960 . S
C1766 H1753 0.961 . S
C1766 H1754 0.959 . S
C1766 C1764 1.561 . S
C1767 C1764 1.526 . S
C1767 C1768 1.396 . S
C1767 C1772 1.390 . S
C1768 C1762 1.465 . S
C1768 C1767 1.396 . S
C1768 C1769 1.399 . S
C1769 H1755 0.929 . S
C1769 C1768 1.399 . S
C1769 C1770 1.385 . S
C1770 H1756 0.931 . S
C1770 C1769 1.385 . S
C1770 C1771 1.389 . S
C1771 C1770 1.389 . S
C1771 C1772 1.387 . S
C1772 H1757 0.930 . S
C1772 C1767 1.390 . S
C1772 C1771 1.387 . S
H1773 C1785 0.930 . S
H1774 C1787 0.930 . S
H1775 C1788 0.930 . S
H1776 C1792 0.959 . S
H1777 C1792 0.959 . S
H1778 C1792 0.961 . S
H1779 C1793 0.960 . S
H1780 C1793 0.961 . S
H1781 C1793 0.959 . S
H1782 C1796 0.929 . S
H1783 C1797 0.931 . S
H1784 C1799 0.930 . S
C1785 H1773 0.930 . S
C1785 C1786 1.399 . S
C1785 C1790 1.399 . S
C1786 C1785 1.399 . S
C1786 C1787 1.376 . S
C1787 H1774 0.930 . S
C1787 C1786 1.376 . S
C1787 C1788 1.388 . S
C1788 H1775 0.930 . S
C1788 C1787 1.388 . S
C1788 C1789 1.390 . S
C1789 C1788 1.390 . S
C1789 C1790 1.394 . S
C1789 C1795 1.465 . S
C1790 C1785 1.399 . S
C1790 C1789 1.394 . S
C1790 C1791 1.516 . S
C1791 C1790 1.516 . S
C1791 C1792 1.502 . S
C1791 C1793 1.561 . S
C1791 C1794 1.526 . S
C1792 H1776 0.959 . S
C1792 H1777 0.959 . S
C1792 H1778 0.961 . S
C1792 C1791 1.502 . S
C1793 H1779 0.960 . S
C1793 H1780 0.961 . S
C1793 H1781 0.959 . S
C1793 C1791 1.561 . S
C1794 C1791 1.526 . S
C1794 C1795 1.396 . S
C1794 C1799 1.390 . S
C1795 C1789 1.465 . S
C1795 C1794 1.396 . S
C1795 C1796 1.399 . S
C1796 H1782 0.929 . S
C1796 C1795 1.399 . S
C1796 C1797 1.385 . S
C1797 H1783 0.931 . S
C1797 C1796 1.385 . S
C1797 C1798 1.389 . S
C1798 C1797 1.389 . S
C1798 C1799 1.387 . S
C1799 H1784 0.930 . S
C1799 C1794 1.390 . S
C1799 C1798 1.387 . S
H1800 C1812 0.930 . S
H1801 C1814 0.930 . S
H1802 C1815 0.930 . S
H1803 C1819 0.959 . S
H1804 C1819 0.959 . S
H1805 C1819 0.961 . S
H1806 C1820 0.960 . S
H1807 C1820 0.961 . S
H1808 C1820 0.959 . S
H1809 C1823 0.929 . S
H1810 C1824 0.931 . S
H1811 C1826 0.930 . S
C1812 H1800 0.930 . S
C1812 C1813 1.399 . S
C1812 C1817 1.399 . S
C1813 C1812 1.399 . S
C1813 C1814 1.376 . S
C1814 H1801 0.930 . S
C1814 C1813 1.376 . S
C1814 C1815 1.388 . S
C1815 H1802 0.930 . S
C1815 C1814 1.388 . S
C1815 C1816 1.390 . S
C1816 C1815 1.390 . S
C1816 C1817 1.394 . S
C1816 C1822 1.465 1_455 S
C1817 C1812 1.399 . S
C1817 C1816 1.394 . S
C1817 C1818 1.516 . S
C1818 C1817 1.516 . S
C1818 C1819 1.502 . S
C1818 C1820 1.561 . S
C1818 C1821 1.526 1_455 S
C1819 H1803 0.959 . S
C1819 H1804 0.959 . S
C1819 H1805 0.961 . S
C1819 C1818 1.502 . S
C1820 H1806 0.960 . S
C1820 H1807 0.961 . S
C1820 H1808 0.959 . S
C1820 C1818 1.561 . S
C1821 C1818 1.526 1_655 S
C1821 C1822 1.396 . S
C1821 C1826 1.390 . S
C1822 C1816 1.465 1_655 S
C1822 C1821 1.396 . S
C1822 C1823 1.399 . S
C1823 H1809 0.929 . S
C1823 C1822 1.399 . S
C1823 C1824 1.385 . S
C1824 H1810 0.931 . S
C1824 C1823 1.385 . S
C1824 C1825 1.389 . S
C1825 C1824 1.389 . S
C1825 C1826 1.387 . S
C1826 H1811 0.930 . S
C1826 C1821 1.390 . S
C1826 C1825 1.387 . S
H1827 C1839 0.930 . S
H1828 C1841 0.930 . S
H1829 C1842 0.930 . S
H1830 C1846 0.959 . S
H1831 C1846 0.959 . S
H1832 C1846 0.961 . S
H1833 C1847 0.960 . S
H1834 C1847 0.961 . S
H1835 C1847 0.959 . S
H1836 C1850 0.929 . S
H1837 C1851 0.931 . S
H1838 C1853 0.930 . S
C1839 H1827 0.930 . S
C1839 C1840 1.399 . S
C1839 C1844 1.399 . S
C1840 C1839 1.399 . S
C1840 C1841 1.376 . S
C1841 H1828 0.930 . S
C1841 C1840 1.376 . S
C1841 C1842 1.388 . S
C1842 H1829 0.930 . S
C1842 C1841 1.388 . S
C1842 C1843 1.390 . S
C1843 C1842 1.390 . S
C1843 C1844 1.394 . S
C1843 C1849 1.465 . S
C1844 C1839 1.399 . S
C1844 C1843 1.394 . S
C1844 C1845 1.516 . S
C1845 C1844 1.516 . S
C1845 C1846 1.502 . S
C1845 C1847 1.561 . S
C1845 C1848 1.526 . S
C1846 H1830 0.959 . S
C1846 H1831 0.959 . S
C1846 H1832 0.961 . S
C1846 C1845 1.502 . S
C1847 H1833 0.960 . S
C1847 H1834 0.961 . S
C1847 H1835 0.959 . S
C1847 C1845 1.561 . S
C1848 C1845 1.526 . S
C1848 C1849 1.396 . S
C1848 C1853 1.390 . S
C1849 C1843 1.465 . S
C1849 C1848 1.396 . S
C1849 C1850 1.399 . S
C1850 H1836 0.929 . S
C1850 C1849 1.399 . S
C1850 C1851 1.385 . S
C1851 H1837 0.931 . S
C1851 C1850 1.385 . S
C1851 C1852 1.389 . S
C1852 C1851 1.389 . S
C1852 C1853 1.387 . S
C1853 H1838 0.930 . S
C1853 C1848 1.390 . S
C1853 C1852 1.387 . S
H1854 C1866 0.930 . S
H1855 C1868 0.930 . S
H1856 C1869 0.930 . S
H1857 C1873 0.959 . S
H1858 C1873 0.959 . S
H1859 C1873 0.961 . S
H1860 C1874 0.960 . S
H1861 C1874 0.961 . S
H1862 C1874 0.959 . S
H1863 C1877 0.929 . S
H1864 C1878 0.931 . S
H1865 C1880 0.930 . S
C1866 H1854 0.930 . S
C1866 C1867 1.399 . S
C1866 C1871 1.399 . S
C1867 C1866 1.399 . S
C1867 C1868 1.376 . S
C1868 H1855 0.930 . S
C1868 C1867 1.376 . S
C1868 C1869 1.388 . S
C1869 H1856 0.930 . S
C1869 C1868 1.388 . S
C1869 C1870 1.390 . S
C1870 C1869 1.390 . S
C1870 C1871 1.394 . S
C1870 C1876 1.465 1_565 S
C1871 C1866 1.399 . S
C1871 C1870 1.394 . S
C1871 C1872 1.516 1_565 S
C1872 C1871 1.516 1_545 S
C1872 C1873 1.502 . S
C1872 C1874 1.561 . S
C1872 C1875 1.526 . S
C1873 H1857 0.959 . S
C1873 H1858 0.959 . S
C1873 H1859 0.961 . S
C1873 C1872 1.502 . S
C1874 H1860 0.960 . S
C1874 H1861 0.961 . S
C1874 H1862 0.959 . S
C1874 C1872 1.561 . S
C1875 C1872 1.526 . S
C1875 C1876 1.396 . S
C1875 C1880 1.390 . S
C1876 C1870 1.465 1_545 S
C1876 C1875 1.396 . S
C1876 C1877 1.399 . S
C1877 H1863 0.929 . S
C1877 C1876 1.399 . S
C1877 C1878 1.385 . S
C1878 H1864 0.931 . S
C1878 C1877 1.385 . S
C1878 C1879 1.389 . S
C1879 C1878 1.389 . S
C1879 C1880 1.387 . S
C1880 H1865 0.930 . S
C1880 C1875 1.390 . S
C1880 C1879 1.387 . S
H1881 C1893 0.930 . S
H1882 C1895 0.930 . S
H1883 C1896 0.930 . S
H1884 C1900 0.959 . S
H1885 C1900 0.959 . S
H1886 C1900 0.961 . S
H1887 C1901 0.960 . S
H1888 C1901 0.961 . S
H1889 C1901 0.959 . S
H1890 C1904 0.929 . S
H1891 C1905 0.931 . S
H1892 C1907 0.930 . S
C1893 H1881 0.930 . S
C1893 C1894 1.399 . S
C1893 C1898 1.399 . S
C1894 C1893 1.399 . S
C1894 C1895 1.376 . S
C1895 H1882 0.930 . S
C1895 C1894 1.376 . S
C1895 C1896 1.388 . S
C1896 H1883 0.930 . S
C1896 C1895 1.388 . S
C1896 C1897 1.390 . S
C1897 C1896 1.390 . S
C1897 C1898 1.394 . S
C1897 C1903 1.465 . S
C1898 C1893 1.399 . S
C1898 C1897 1.394 . S
C1898 C1899 1.516 . S
C1899 C1898 1.516 . S
C1899 C1900 1.502 . S
C1899 C1901 1.561 . S
C1899 C1902 1.526 . S
C1900 H1884 0.959 . S
C1900 H1885 0.959 . S
C1900 H1886 0.961 . S
C1900 C1899 1.502 . S
C1901 H1887 0.960 . S
C1901 H1888 0.961 . S
C1901 H1889 0.959 . S
C1901 C1899 1.561 . S
C1902 C1899 1.526 . S
C1902 C1903 1.396 . S
C1902 C1907 1.390 . S
C1903 C1897 1.465 . S
C1903 C1902 1.396 . S
C1903 C1904 1.399 . S
C1904 H1890 0.929 . S
C1904 C1903 1.399 . S
C1904 C1905 1.385 . S
C1905 H1891 0.931 . S
C1905 C1904 1.385 . S
C1905 C1906 1.389 . S
C1906 C1905 1.389 . S
C1906 C1907 1.387 . S
C1907 H1892 0.930 . S
C1907 C1902 1.390 . S
C1907 C1906 1.387 . S
H1908 C1920 0.930 . S
H1909 C1922 0.930 . S
H1910 C1923 0.930 . S
H1911 C1927 0.959 . S
H1912 C1927 0.959 . S
H1913 C1927 0.961 . S
H1914 C1928 0.960 . S
H1915 C1928 0.961 . S
H1916 C1928 0.959 . S
H1917 C1931 0.929 . S
H1918 C1932 0.931 . S
H1919 C1934 0.930 . S
C1920 H1908 0.930 . S
C1920 C1921 1.399 . S
C1920 C1925 1.399 . S
C1921 C1920 1.399 . S
C1921 C1922 1.376 . S
C1922 H1909 0.930 . S
C1922 C1921 1.376 . S
C1922 C1923 1.388 . S
C1923 H1910 0.930 . S
C1923 C1922 1.388 . S
C1923 C1924 1.390 . S
C1924 C1923 1.390 . S
C1924 C1925 1.394 . S
C1924 C1930 1.465 . S
C1925 C1920 1.399 . S
C1925 C1924 1.394 . S
C1925 C1926 1.516 . S
C1926 C1925 1.516 . S
C1926 C1927 1.502 . S
C1926 C1928 1.561 . S
C1926 C1929 1.526 . S
C1927 H1911 0.959 . S
C1927 H1912 0.959 . S
C1927 H1913 0.961 . S
C1927 C1926 1.502 . S
C1928 H1914 0.960 . S
C1928 H1915 0.961 . S
C1928 H1916 0.959 . S
C1928 C1926 1.561 . S
C1929 C1926 1.526 . S
C1929 C1930 1.396 . S
C1929 C1934 1.390 . S
C1930 C1924 1.465 . S
C1930 C1929 1.396 . S
C1930 C1931 1.399 . S
C1931 H1917 0.929 . S
C1931 C1930 1.399 . S
C1931 C1932 1.385 . S
C1932 H1918 0.931 . S
C1932 C1931 1.385 . S
C1932 C1933 1.389 . S
C1933 C1932 1.389 . S
C1933 C1934 1.387 . S
C1934 H1919 0.930 . S
C1934 C1929 1.390 . S
C1934 C1933 1.387 . S
H1935 C1947 0.930 . S
H1936 C1949 0.930 . S
H1937 C1950 0.930 . S
H1938 C1954 0.959 . S
H1939 C1954 0.959 . S
H1940 C1954 0.961 . S
H1941 C1955 0.960 . S
H1942 C1955 0.961 . S
H1943 C1955 0.959 . S
H1944 C1958 0.929 . S
H1945 C1959 0.931 . S
H1946 C1961 0.930 . S
C1947 H1935 0.930 . S
C1947 C1948 1.399 . S
C1947 C1952 1.399 . S
C1948 C1947 1.399 . S
C1948 C1949 1.376 . S
C1949 H1936 0.930 . S
C1949 C1948 1.376 . S
C1949 C1950 1.388 . S
C1950 H1937 0.930 . S
C1950 C1949 1.388 . S
C1950 C1951 1.390 . S
C1951 C1950 1.390 . S
C1951 C1952 1.394 . S
C1951 C1957 1.465 . S
C1952 C1947 1.399 . S
C1952 C1951 1.394 . S
C1952 C1953 1.516 . S
C1953 C1952 1.516 . S
C1953 C1954 1.502 . S
C1953 C1955 1.561 . S
C1953 C1956 1.526 . S
C1954 H1938 0.959 . S
C1954 H1939 0.959 . S
C1954 H1940 0.961 . S
C1954 C1953 1.502 . S
C1955 H1941 0.960 . S
C1955 H1942 0.961 . S
C1955 H1943 0.959 . S
C1955 C1953 1.561 . S
C1956 C1953 1.526 . S
C1956 C1957 1.396 . S
C1956 C1961 1.390 . S
C1957 C1951 1.465 . S
C1957 C1956 1.396 . S
C1957 C1958 1.399 . S
C1958 H1944 0.929 . S
C1958 C1957 1.399 . S
C1958 C1959 1.385 . S
C1959 H1945 0.931 . S
C1959 C1958 1.385 . S
C1959 C1960 1.389 . S
C1960 C1959 1.389 . S
C1960 C1961 1.387 . S
C1961 H1946 0.930 . S
C1961 C1956 1.390 . S
C1961 C1960 1.387 . S
H1962 C1974 0.930 . S
H1963 C1976 0.930 . S
H1964 C1977 0.930 . S
H1965 C1981 0.959 . S
H1966 C1981 0.959 . S
H1967 C1981 0.961 . S
H1968 C1982 0.960 . S
H1969 C1982 0.961 . S
H1970 C1982 0.959 . S
H1971 C1985 0.929 . S
H1972 C1986 0.931 . S
H1973 C1988 0.930 . S
C1974 H1962 0.930 . S
C1974 C1975 1.399 . S
C1974 C1979 1.399 . S
C1975 C1974 1.399 . S
C1975 C1976 1.376 . S
C1976 H1963 0.930 . S
C1976 C1975 1.376 . S
C1976 C1977 1.388 . S
C1977 H1964 0.930 . S
C1977 C1976 1.388 . S
C1977 C1978 1.390 . S
C1978 C1977 1.390 . S
C1978 C1979 1.394 . S
C1978 C1984 1.465 . S
C1979 C1974 1.399 . S
C1979 C1978 1.394 . S
C1979 C1980 1.516 . S
C1980 C1979 1.516 . S
C1980 C1981 1.502 . S
C1980 C1982 1.561 . S
C1980 C1983 1.526 . S
C1981 H1965 0.959 . S
C1981 H1966 0.959 . S
C1981 H1967 0.961 . S
C1981 C1980 1.502 . S
C1982 H1968 0.960 . S
C1982 H1969 0.961 . S
C1982 H1970 0.959 . S
C1982 C1980 1.561 . S
C1983 C1980 1.526 . S
C1983 C1984 1.396 . S
C1983 C1988 1.390 . S
C1984 C1978 1.465 . S
C1984 C1983 1.396 . S
C1984 C1985 1.399 . S
C1985 H1971 0.929 . S
C1985 C1984 1.399 . S
C1985 C1986 1.385 . S
C1986 H1972 0.931 . S
C1986 C1985 1.385 . S
C1986 C1987 1.389 . S
C1987 C1986 1.389 . S
C1987 C1988 1.387 . S
C1988 H1973 0.930 . S
C1988 C1983 1.390 . S
C1988 C1987 1.387 . S
H1989 C2001 0.930 . S
H1990 C2003 0.930 . S
H1991 C2004 0.930 . S
H1992 C2008 0.959 . S
H1993 C2008 0.959 . S
H1994 C2008 0.961 . S
H1995 C2009 0.960 . S
H1996 C2009 0.961 . S
H1997 C2009 0.959 . S
H1998 C2012 0.929 . S
H1999 C2013 0.931 . S
H2000 C2015 0.930 . S
C2001 H1989 0.930 . S
C2001 C2002 1.399 . S
C2001 C2006 1.399 . S
C2002 C2001 1.399 . S
C2002 C2003 1.376 . S
C2003 H1990 0.930 . S
C2003 C2002 1.376 . S
C2003 C2004 1.388 . S
C2004 H1991 0.930 . S
C2004 C2003 1.388 . S
C2004 C2005 1.390 . S
C2005 C2004 1.390 . S
C2005 C2006 1.394 . S
C2005 C2011 1.465 . S
C2006 C2001 1.399 . S
C2006 C2005 1.394 . S
C2006 C2007 1.516 . S
C2007 C2006 1.516 . S
C2007 C2008 1.502 . S
C2007 C2009 1.561 . S
C2007 C2010 1.526 . S
C2008 H1992 0.959 . S
C2008 H1993 0.959 . S
C2008 H1994 0.961 . S
C2008 C2007 1.502 . S
C2009 H1995 0.960 . S
C2009 H1996 0.961 . S
C2009 H1997 0.959 . S
C2009 C2007 1.561 . S
C2010 C2007 1.526 . S
C2010 C2011 1.396 . S
C2010 C2015 1.390 . S
C2011 C2005 1.465 . S
C2011 C2010 1.396 . S
C2011 C2012 1.399 . S
C2012 H1998 0.929 . S
C2012 C2011 1.399 . S
C2012 C2013 1.385 . S
C2013 H1999 0.931 . S
C2013 C2012 1.385 . S
C2013 C2014 1.389 . S
C2014 C2013 1.389 . S
C2014 C2015 1.387 . S
C2015 H2000 0.930 . S
C2015 C2010 1.390 . S
C2015 C2014 1.387 . S
H2016 C2028 0.930 . S
H2017 C2030 0.930 . S
H2018 C2031 0.930 . S
H2019 C2035 0.959 . S
H2020 C2035 0.959 . S
H2021 C2035 0.961 . S
H2022 C2036 0.960 . S
H2023 C2036 0.961 . S
H2024 C2036 0.959 . S
H2025 C2039 0.929 . S
H2026 C2040 0.931 . S
H2027 C2042 0.930 . S
C2028 H2016 0.930 . S
C2028 C2029 1.399 . S
C2028 C2033 1.399 . S
C2029 C2028 1.399 . S
C2029 C2030 1.376 . S
C2030 H2017 0.930 . S
C2030 C2029 1.376 . S
C2030 C2031 1.388 . S
C2031 H2018 0.930 . S
C2031 C2030 1.388 . S
C2031 C2032 1.390 . S
C2032 C2031 1.390 . S
C2032 C2033 1.394 . S
C2032 C2038 1.465 . S
C2033 C2028 1.399 . S
C2033 C2032 1.394 . S
C2033 C2034 1.516 . S
C2034 C2033 1.516 . S
C2034 C2035 1.502 . S
C2034 C2036 1.561 . S
C2034 C2037 1.526 . S
C2035 H2019 0.959 . S
C2035 H2020 0.959 . S
C2035 H2021 0.961 . S
C2035 C2034 1.502 . S
C2036 H2022 0.960 . S
C2036 H2023 0.961 . S
C2036 H2024 0.959 . S
C2036 C2034 1.561 . S
C2037 C2034 1.526 . S
C2037 C2038 1.396 . S
C2037 C2042 1.390 . S
C2038 C2032 1.465 . S
C2038 C2037 1.396 . S
C2038 C2039 1.399 . S
C2039 H2025 0.929 . S
C2039 C2038 1.399 . S
C2039 C2040 1.385 . S
C2040 H2026 0.931 . S
C2040 C2039 1.385 . S
C2040 C2041 1.389 . S
C2041 C2040 1.389 . S
C2041 C2042 1.387 . S
C2042 H2027 0.930 . S
C2042 C2037 1.390 . S
C2042 C2041 1.387 . S
H2043 C2055 0.930 . S
H2044 C2057 0.930 . S
H2045 C2058 0.930 . S
H2046 C2062 0.959 . S
H2047 C2062 0.959 . S
H2048 C2062 0.961 . S
H2049 C2063 0.960 . S
H2050 C2063 0.961 . S
H2051 C2063 0.959 . S
H2052 C2066 0.929 . S
H2053 C2067 0.931 . S
H2054 C2069 0.930 . S
C2055 H2043 0.930 . S
C2055 C2056 1.399 . S
C2055 C2060 1.399 . S
C2056 C2055 1.399 . S
C2056 C2057 1.376 . S
C2057 H2044 0.930 . S
C2057 C2056 1.376 . S
C2057 C2058 1.388 . S
C2058 H2045 0.930 . S
C2058 C2057 1.388 . S
C2058 C2059 1.390 . S
C2059 C2058 1.390 . S
C2059 C2060 1.394 . S
C2059 C2065 1.465 . S
C2060 C2055 1.399 . S
C2060 C2059 1.394 . S
C2060 C2061 1.516 . S
C2061 C2060 1.516 . S
C2061 C2062 1.502 . S
C2061 C2063 1.561 . S
C2061 C2064 1.526 . S
C2062 H2046 0.959 . S
C2062 H2047 0.959 . S
C2062 H2048 0.961 . S
C2062 C2061 1.502 . S
C2063 H2049 0.960 . S
C2063 H2050 0.961 . S
C2063 H2051 0.959 . S
C2063 C2061 1.561 . S
C2064 C2061 1.526 . S
C2064 C2065 1.396 . S
C2064 C2069 1.390 . S
C2065 C2059 1.465 . S
C2065 C2064 1.396 . S
C2065 C2066 1.399 . S
C2066 H2052 0.929 . S
C2066 C2065 1.399 . S
C2066 C2067 1.385 . S
C2067 H2053 0.931 . S
C2067 C2066 1.385 . S
C2067 C2068 1.389 . S
C2068 C2067 1.389 . S
C2068 C2069 1.387 . S
C2069 H2054 0.930 . S
C2069 C2064 1.390 . S
C2069 C2068 1.387 . S
H2070 C2082 0.930 . S
H2071 C2084 0.930 . S
H2072 C2085 0.930 . S
H2073 C2089 0.959 . S
H2074 C2089 0.959 . S
H2075 C2089 0.961 . S
H2076 C2090 0.960 . S
H2077 C2090 0.961 . S
H2078 C2090 0.959 . S
H2079 C2093 0.929 . S
H2080 C2094 0.931 . S
H2081 C2096 0.930 . S
C2082 H2070 0.930 . S
C2082 C2083 1.399 . S
C2082 C2087 1.399 . S
C2083 C2082 1.399 . S
C2083 C2084 1.376 . S
C2084 H2071 0.930 . S
C2084 C2083 1.376 . S
C2084 C2085 1.388 . S
C2085 H2072 0.930 . S
C2085 C2084 1.388 . S
C2085 C2086 1.390 . S
C2086 C2085 1.390 . S
C2086 C2087 1.394 . S
C2086 C2092 1.465 . S
C2087 C2082 1.399 . S
C2087 C2086 1.394 . S
C2087 C2088 1.516 . S
C2088 C2087 1.516 . S
C2088 C2089 1.502 . S
C2088 C2090 1.561 . S
C2088 C2091 1.526 . S
C2089 H2073 0.959 . S
C2089 H2074 0.959 . S
C2089 H2075 0.961 . S
C2089 C2088 1.502 . S
C2090 H2076 0.960 . S
C2090 H2077 0.961 . S
C2090 H2078 0.959 . S
C2090 C2088 1.561 . S
C2091 C2088 1.526 . S
C2091 C2092 1.396 . S
C2091 C2096 1.390 . S
C2092 C2086 1.465 . S
C2092 C2091 1.396 . S
C2092 C2093 1.399 . S
C2093 H2079 0.929 . S
C2093 C2092 1.399 . S
C2093 C2094 1.385 . S
C2094 H2080 0.931 . S
C2094 C2093 1.385 . S
C2094 C2095 1.389 . S
C2095 C2094 1.389 . S
C2095 C2096 1.387 . S
C2096 H2081 0.930 . S
C2096 C2091 1.390 . S
C2096 C2095 1.387 . S
H2097 C2109 0.930 . S
H2098 C2111 0.930 . S
H2099 C2112 0.930 . S
H2100 C2116 0.959 . S
H2101 C2116 0.959 . S
H2102 C2116 0.961 . S
H2103 C2117 0.960 . S
H2104 C2117 0.961 . S
H2105 C2117 0.959 . S
H2106 C2120 0.929 . S
H2107 C2121 0.931 . S
H2108 C2123 0.930 . S
C2109 H2097 0.930 . S
C2109 C2110 1.399 . S
C2109 C2114 1.399 . S
C2110 C2109 1.399 . S
C2110 C2111 1.376 . S
C2111 H2098 0.930 . S
C2111 C2110 1.376 . S
C2111 C2112 1.388 . S
C2112 H2099 0.930 . S
C2112 C2111 1.388 . S
C2112 C2113 1.390 . S
C2113 C2112 1.390 . S
C2113 C2114 1.394 . S
C2113 C2119 1.465 . S
C2114 C2109 1.399 . S
C2114 C2113 1.394 . S
C2114 C2115 1.516 . S
C2115 C2114 1.516 . S
C2115 C2116 1.502 . S
C2115 C2117 1.561 . S
C2115 C2118 1.526 . S
C2116 H2100 0.959 . S
C2116 H2101 0.959 . S
C2116 H2102 0.961 . S
C2116 C2115 1.502 . S
C2117 H2103 0.960 . S
C2117 H2104 0.961 . S
C2117 H2105 0.959 . S
C2117 C2115 1.561 . S
C2118 C2115 1.526 . S
C2118 C2119 1.396 . S
C2118 C2123 1.390 . S
C2119 C2113 1.465 . S
C2119 C2118 1.396 . S
C2119 C2120 1.399 . S
C2120 H2106 0.929 . S
C2120 C2119 1.399 . S
C2120 C2121 1.385 . S
C2121 H2107 0.931 . S
C2121 C2120 1.385 . S
C2121 C2122 1.389 . S
C2122 C2121 1.389 . S
C2122 C2123 1.387 . S
C2123 H2108 0.930 . S
C2123 C2118 1.390 . S
C2123 C2122 1.387 . S
H2124 C2136 0.930 . S
H2125 C2138 0.930 . S
H2126 C2139 0.930 . S
H2127 C2143 0.959 . S
H2128 C2143 0.959 . S
H2129 C2143 0.961 . S
H2130 C2144 0.960 . S
H2131 C2144 0.961 . S
H2132 C2144 0.959 . S
H2133 C2147 0.929 . S
H2134 C2148 0.931 . S
H2135 C2150 0.930 . S
C2136 H2124 0.930 . S
C2136 C2137 1.399 . S
C2136 C2141 1.399 . S
C2137 C2136 1.399 . S
C2137 C2138 1.376 . S
C2138 H2125 0.930 . S
C2138 C2137 1.376 . S
C2138 C2139 1.388 . S
C2139 H2126 0.930 . S
C2139 C2138 1.388 . S
C2139 C2140 1.390 . S
C2140 C2139 1.390 . S
C2140 C2141 1.394 . S
C2140 C2146 1.465 . S
C2141 C2136 1.399 . S
C2141 C2140 1.394 . S
C2141 C2142 1.516 . S
C2142 C2141 1.516 . S
C2142 C2143 1.502 . S
C2142 C2144 1.561 . S
C2142 C2145 1.526 . S
C2143 H2127 0.959 . S
C2143 H2128 0.959 . S
C2143 H2129 0.961 . S
C2143 C2142 1.502 . S
C2144 H2130 0.960 . S
C2144 H2131 0.961 . S
C2144 H2132 0.959 . S
C2144 C2142 1.561 . S
C2145 C2142 1.526 . S
C2145 C2146 1.396 . S
C2145 C2150 1.390 . S
C2146 C2140 1.465 . S
C2146 C2145 1.396 . S
C2146 C2147 1.399 . S
C2147 H2133 0.929 . S
C2147 C2146 1.399 . S
C2147 C2148 1.385 . S
C2148 H2134 0.931 . S
C2148 C2147 1.385 . S
C2148 C2149 1.389 . S
C2149 C2148 1.389 . S
C2149 C2150 1.387 . S
C2150 H2135 0.930 . S
C2150 C2145 1.390 . S
C2150 C2149 1.387 . S
H2151 C2163 0.930 . S
H2152 C2165 0.930 . S
H2153 C2166 0.930 . S
H2154 C2170 0.959 . S
H2155 C2170 0.959 . S
H2156 C2170 0.961 . S
H2157 C2171 0.960 . S
H2158 C2171 0.961 . S
H2159 C2171 0.959 . S
H2160 C2174 0.929 . S
H2161 C2175 0.931 . S
H2162 C2177 0.930 . S
C2163 H2151 0.930 . S
C2163 C2164 1.399 . S
C2163 C2168 1.399 . S
C2164 C2163 1.399 . S
C2164 C2165 1.376 . S
C2165 H2152 0.930 . S
C2165 C2164 1.376 . S
C2165 C2166 1.388 . S
C2166 H2153 0.930 . S
C2166 C2165 1.388 . S
C2166 C2167 1.390 . S
C2167 C2166 1.390 . S
C2167 C2168 1.394 . S
C2167 C2173 1.465 . S
C2168 C2163 1.399 . S
C2168 C2167 1.394 . S
C2168 C2169 1.516 . S
C2169 C2168 1.516 . S
C2169 C2170 1.502 . S
C2169 C2171 1.561 . S
C2169 C2172 1.526 . S
C2170 H2154 0.959 . S
C2170 H2155 0.959 . S
C2170 H2156 0.961 . S
C2170 C2169 1.502 . S
C2171 H2157 0.960 . S
C2171 H2158 0.961 . S
C2171 H2159 0.959 . S
C2171 C2169 1.561 . S
C2172 C2169 1.526 . S
C2172 C2173 1.396 . S
C2172 C2177 1.390 . S
C2173 C2167 1.465 . S
C2173 C2172 1.396 . S
C2173 C2174 1.399 . S
C2174 H2160 0.929 . S
C2174 C2173 1.399 . S
C2174 C2175 1.385 . S
C2175 H2161 0.931 . S
C2175 C2174 1.385 . S
C2175 C2176 1.389 . S
C2176 C2175 1.389 . S
C2176 C2177 1.387 . S
C2177 H2162 0.930 . S
C2177 C2172 1.390 . S
C2177 C2176 1.387 . S
H2178 C2190 0.930 . S
H2179 C2192 0.930 . S
H2180 C2193 0.930 . S
H2181 C2197 0.959 . S
H2182 C2197 0.959 . S
H2183 C2197 0.961 . S
H2184 C2198 0.960 . S
H2185 C2198 0.961 . S
H2186 C2198 0.959 . S
H2187 C2201 0.929 . S
H2188 C2202 0.931 . S
H2189 C2204 0.930 . S
C2190 H2178 0.930 . S
C2190 C2191 1.399 . S
C2190 C2195 1.399 . S
C2191 C2190 1.399 . S
C2191 C2192 1.376 . S
C2192 H2179 0.930 . S
C2192 C2191 1.376 . S
C2192 C2193 1.388 . S
C2193 H2180 0.930 . S
C2193 C2192 1.388 . S
C2193 C2194 1.390 . S
C2194 C2193 1.390 . S
C2194 C2195 1.394 . S
C2194 C2200 1.465 . S
C2195 C2190 1.399 . S
C2195 C2194 1.394 . S
C2195 C2196 1.516 . S
C2196 C2195 1.516 . S
C2196 C2197 1.502 . S
C2196 C2198 1.561 . S
C2196 C2199 1.526 . S
C2197 H2181 0.959 . S
C2197 H2182 0.959 . S
C2197 H2183 0.961 . S
C2197 C2196 1.502 . S
C2198 H2184 0.960 . S
C2198 H2185 0.961 . S
C2198 H2186 0.959 . S
C2198 C2196 1.561 . S
C2199 C2196 1.526 . S
C2199 C2200 1.396 . S
C2199 C2204 1.390 . S
C2200 C2194 1.465 . S
C2200 C2199 1.396 . S
C2200 C2201 1.399 . S
C2201 H2187 0.929 . S
C2201 C2200 1.399 . S
C2201 C2202 1.385 . S
C2202 H2188 0.931 . S
C2202 C2201 1.385 . S
C2202 C2203 1.389 . S
C2203 C2202 1.389 . S
C2203 C2204 1.387 . S
C2204 H2189 0.930 . S
C2204 C2199 1.390 . S
C2204 C2203 1.387 . S
H2205 C2217 0.930 . S
H2206 C2219 0.930 . S
H2207 C2220 0.930 . S
H2208 C2224 0.959 . S
H2209 C2224 0.959 . S
H2210 C2224 0.961 . S
H2211 C2225 0.960 . S
H2212 C2225 0.961 . S
H2213 C2225 0.959 . S
H2214 C2228 0.929 . S
H2215 C2229 0.931 . S
H2216 C2231 0.930 . S
C2217 H2205 0.930 . S
C2217 C2218 1.399 . S
C2217 C2222 1.399 . S
C2218 C2217 1.399 . S
C2218 C2219 1.376 . S
C2219 H2206 0.930 . S
C2219 C2218 1.376 . S
C2219 C2220 1.388 . S
C2220 H2207 0.930 . S
C2220 C2219 1.388 . S
C2220 C2221 1.390 . S
C2221 C2220 1.390 . S
C2221 C2222 1.394 . S
C2221 C2227 1.465 . S
C2222 C2217 1.399 . S
C2222 C2221 1.394 . S
C2222 C2223 1.516 . S
C2223 C2222 1.516 . S
C2223 C2224 1.502 . S
C2223 C2225 1.561 . S
C2223 C2226 1.526 . S
C2224 H2208 0.959 . S
C2224 H2209 0.959 . S
C2224 H2210 0.961 . S
C2224 C2223 1.502 . S
C2225 H2211 0.960 . S
C2225 H2212 0.961 . S
C2225 H2213 0.959 . S
C2225 C2223 1.561 . S
C2226 C2223 1.526 . S
C2226 C2227 1.396 . S
C2226 C2231 1.390 . S
C2227 C2221 1.465 . S
C2227 C2226 1.396 . S
C2227 C2228 1.399 . S
C2228 H2214 0.929 . S
C2228 C2227 1.399 . S
C2228 C2229 1.385 . S
C2229 H2215 0.931 . S
C2229 C2228 1.385 . S
C2229 C2230 1.389 . S
C2230 C2229 1.389 . S
C2230 C2231 1.387 . S
C2231 H2216 0.930 . S
C2231 C2226 1.390 . S
C2231 C2230 1.387 . S
H2232 C2244 0.930 . S
H2233 C2246 0.930 . S
H2234 C2247 0.930 . S
H2235 C2251 0.959 . S
H2236 C2251 0.959 . S
H2237 C2251 0.961 . S
H2238 C2252 0.960 . S
H2239 C2252 0.961 . S
H2240 C2252 0.959 . S
H2241 C2255 0.929 . S
H2242 C2256 0.931 . S
H2243 C2258 0.930 . S
C2244 H2232 0.930 . S
C2244 C2245 1.399 . S
C2244 C2249 1.399 . S
C2245 C2244 1.399 . S
C2245 C2246 1.376 . S
C2246 H2233 0.930 . S
C2246 C2245 1.376 . S
C2246 C2247 1.388 . S
C2247 H2234 0.930 . S
C2247 C2246 1.388 . S
C2247 C2248 1.390 . S
C2248 C2247 1.390 . S
C2248 C2249 1.394 . S
C2248 C2254 1.465 . S
C2249 C2244 1.399 . S
C2249 C2248 1.394 . S
C2249 C2250 1.516 . S
C2250 C2249 1.516 . S
C2250 C2251 1.502 . S
C2250 C2252 1.561 . S
C2250 C2253 1.526 . S
C2251 H2235 0.959 . S
C2251 H2236 0.959 . S
C2251 H2237 0.961 . S
C2251 C2250 1.502 . S
C2252 H2238 0.960 . S
C2252 H2239 0.961 . S
C2252 H2240 0.959 . S
C2252 C2250 1.561 . S
C2253 C2250 1.526 . S
C2253 C2254 1.396 . S
C2253 C2258 1.390 . S
C2254 C2248 1.465 . S
C2254 C2253 1.396 . S
C2254 C2255 1.399 . S
C2255 H2241 0.929 . S
C2255 C2254 1.399 . S
C2255 C2256 1.385 . S
C2256 H2242 0.931 . S
C2256 C2255 1.385 . S
C2256 C2257 1.389 . S
C2257 C2256 1.389 . S
C2257 C2258 1.387 . S
C2258 H2243 0.930 . S
C2258 C2253 1.390 . S
C2258 C2257 1.387 . S
H2259 C2271 0.930 . S
H2260 C2273 0.930 . S
H2261 C2274 0.930 . S
H2262 C2278 0.959 . S
H2263 C2278 0.959 . S
H2264 C2278 0.961 . S
H2265 C2279 0.960 . S
H2266 C2279 0.961 . S
H2267 C2279 0.959 . S
H2268 C2282 0.929 . S
H2269 C2283 0.931 . S
H2270 C2285 0.930 . S
C2271 H2259 0.930 . S
C2271 C2272 1.399 . S
C2271 C2276 1.399 . S
C2272 C2271 1.399 . S
C2272 C2273 1.376 . S
C2273 H2260 0.930 . S
C2273 C2272 1.376 . S
C2273 C2274 1.388 . S
C2274 H2261 0.930 . S
C2274 C2273 1.388 . S
C2274 C2275 1.390 . S
C2275 C2274 1.390 . S
C2275 C2276 1.394 . S
C2275 C2281 1.465 . S
C2276 C2271 1.399 . S
C2276 C2275 1.394 . S
C2276 C2277 1.516 . S
C2277 C2276 1.516 . S
C2277 C2278 1.502 . S
C2277 C2279 1.561 . S
C2277 C2280 1.526 . S
C2278 H2262 0.959 . S
C2278 H2263 0.959 . S
C2278 H2264 0.961 . S
C2278 C2277 1.502 . S
C2279 H2265 0.960 . S
C2279 H2266 0.961 . S
C2279 H2267 0.959 . S
C2279 C2277 1.561 . S
C2280 C2277 1.526 . S
C2280 C2281 1.396 . S
C2280 C2285 1.390 . S
C2281 C2275 1.465 . S
C2281 C2280 1.396 . S
C2281 C2282 1.399 . S
C2282 H2268 0.929 . S
C2282 C2281 1.399 . S
C2282 C2283 1.385 . S
C2283 H2269 0.931 . S
C2283 C2282 1.385 . S
C2283 C2284 1.389 . S
C2284 C2283 1.389 . S
C2284 C2285 1.387 . S
C2285 H2270 0.930 . S
C2285 C2280 1.390 . S
C2285 C2284 1.387 . S
H2286 C2298 0.930 . S
H2287 C2300 0.930 . S
H2288 C2301 0.930 . S
H2289 C2305 0.959 . S
H2290 C2305 0.959 . S
H2291 C2305 0.961 . S
H2292 C2306 0.960 . S
H2293 C2306 0.961 . S
H2294 C2306 0.959 . S
H2295 C2309 0.929 . S
H2296 C2310 0.931 . S
H2297 C2312 0.930 . S
C2298 H2286 0.930 . S
C2298 C2299 1.399 . S
C2298 C2303 1.399 . S
C2299 C2298 1.399 . S
C2299 C2300 1.376 . S
C2300 H2287 0.930 . S
C2300 C2299 1.376 . S
C2300 C2301 1.388 . S
C2301 H2288 0.930 . S
C2301 C2300 1.388 . S
C2301 C2302 1.390 . S
C2302 C2301 1.390 . S
C2302 C2303 1.394 . S
C2302 C2308 1.465 . S
C2303 C2298 1.399 . S
C2303 C2302 1.394 . S
C2303 C2304 1.516 . S
C2304 C2303 1.516 . S
C2304 C2305 1.502 . S
C2304 C2306 1.561 . S
C2304 C2307 1.526 . S
C2305 H2289 0.959 . S
C2305 H2290 0.959 . S
C2305 H2291 0.961 . S
C2305 C2304 1.502 . S
C2306 H2292 0.960 . S
C2306 H2293 0.961 . S
C2306 H2294 0.959 . S
C2306 C2304 1.561 . S
C2307 C2304 1.526 . S
C2307 C2308 1.396 . S
C2307 C2312 1.390 . S
C2308 C2302 1.465 . S
C2308 C2307 1.396 . S
C2308 C2309 1.399 . S
C2309 H2295 0.929 . S
C2309 C2308 1.399 . S
C2309 C2310 1.385 . S
C2310 H2296 0.931 . S
C2310 C2309 1.385 . S
C2310 C2311 1.389 . S
C2311 C2310 1.389 . S
C2311 C2312 1.387 . S
C2312 H2297 0.930 . S
C2312 C2307 1.390 . S
C2312 C2311 1.387 . S
H2313 C2325 0.930 . S
H2314 C2327 0.930 . S
H2315 C2328 0.930 . S
H2316 C2332 0.959 . S
H2317 C2332 0.959 . S
H2318 C2332 0.961 . S
H2319 C2333 0.960 . S
H2320 C2333 0.961 . S
H2321 C2333 0.959 . S
H2322 C2336 0.929 . S
H2323 C2337 0.931 . S
H2324 C2339 0.930 . S
C2325 H2313 0.930 . S
C2325 C2326 1.399 . S
C2325 C2330 1.399 . S
C2326 C2325 1.399 . S
C2326 C2327 1.376 . S
C2327 H2314 0.930 . S
C2327 C2326 1.376 . S
C2327 C2328 1.388 . S
C2328 H2315 0.930 . S
C2328 C2327 1.388 . S
C2328 C2329 1.390 . S
C2329 C2328 1.390 . S
C2329 C2330 1.394 . S
C2329 C2335 1.465 . S
C2330 C2325 1.399 . S
C2330 C2329 1.394 . S
C2330 C2331 1.516 . S
C2331 C2330 1.516 . S
C2331 C2332 1.502 . S
C2331 C2333 1.561 . S
C2331 C2334 1.526 . S
C2332 H2316 0.959 . S
C2332 H2317 0.959 . S
C2332 H2318 0.961 . S
C2332 C2331 1.502 . S
C2333 H2319 0.960 . S
C2333 H2320 0.961 . S
C2333 H2321 0.959 . S
C2333 C2331 1.561 . S
C2334 C2331 1.526 . S
C2334 C2335 1.396 . S
C2334 C2339 1.390 . S
C2335 C2329 1.465 . S
C2335 C2334 1.396 . S
C2335 C2336 1.399 . S
C2336 H2322 0.929 . S
C2336 C2335 1.399 . S
C2336 C2337 1.385 . S
C2337 H2323 0.931 . S
C2337 C2336 1.385 . S
C2337 C2338 1.389 . S
C2338 C2337 1.389 . S
C2338 C2339 1.387 . S
C2339 H2324 0.930 . S
C2339 C2334 1.390 . S
C2339 C2338 1.387 . S
H2340 C2352 0.930 . S
H2341 C2354 0.930 . S
H2342 C2355 0.930 . S
H2343 C2359 0.959 . S
H2344 C2359 0.959 . S
H2345 C2359 0.961 . S
H2346 C2360 0.960 . S
H2347 C2360 0.961 . S
H2348 C2360 0.959 . S
H2349 C2363 0.929 . S
H2350 C2364 0.931 . S
H2351 C2366 0.930 . S
C2352 H2340 0.930 . S
C2352 C2353 1.399 . S
C2352 C2357 1.399 . S
C2353 C2352 1.399 . S
C2353 C2354 1.376 . S
C2354 H2341 0.930 . S
C2354 C2353 1.376 . S
C2354 C2355 1.388 . S
C2355 H2342 0.930 . S
C2355 C2354 1.388 . S
C2355 C2356 1.390 . S
C2356 C2355 1.390 . S
C2356 C2357 1.394 . S
C2356 C2362 1.465 . S
C2357 C2352 1.399 . S
C2357 C2356 1.394 . S
C2357 C2358 1.516 . S
C2358 C2357 1.516 . S
C2358 C2359 1.502 . S
C2358 C2360 1.561 . S
C2358 C2361 1.526 . S
C2359 H2343 0.959 . S
C2359 H2344 0.959 . S
C2359 H2345 0.961 . S
C2359 C2358 1.502 . S
C2360 H2346 0.960 . S
C2360 H2347 0.961 . S
C2360 H2348 0.959 . S
C2360 C2358 1.561 . S
C2361 C2358 1.526 . S
C2361 C2362 1.396 . S
C2361 C2366 1.390 . S
C2362 C2356 1.465 . S
C2362 C2361 1.396 . S
C2362 C2363 1.399 . S
C2363 H2349 0.929 . S
C2363 C2362 1.399 . S
C2363 C2364 1.385 . S
C2364 H2350 0.931 . S
C2364 C2363 1.385 . S
C2364 C2365 1.389 . S
C2365 C2364 1.389 . S
C2365 C2366 1.387 . S
C2366 H2351 0.930 . S
C2366 C2361 1.390 . S
C2366 C2365 1.387 . S
H2367 C2379 0.930 . S
H2368 C2381 0.930 . S
H2369 C2382 0.930 . S
H2370 C2386 0.959 . S
H2371 C2386 0.959 . S
H2372 C2386 0.961 . S
H2373 C2387 0.960 . S
H2374 C2387 0.961 . S
H2375 C2387 0.959 . S
H2376 C2390 0.929 . S
H2377 C2391 0.931 . S
H2378 C2393 0.930 . S
C2379 H2367 0.930 . S
C2379 C2380 1.399 . S
C2379 C2384 1.399 . S
C2380 C2379 1.399 . S
C2380 C2381 1.376 . S
C2381 H2368 0.930 . S
C2381 C2380 1.376 . S
C2381 C2382 1.388 . S
C2382 H2369 0.930 . S
C2382 C2381 1.388 . S
C2382 C2383 1.390 . S
C2383 C2382 1.390 . S
C2383 C2384 1.394 . S
C2383 C2389 1.465 . S
C2384 C2379 1.399 . S
C2384 C2383 1.394 . S
C2384 C2385 1.516 . S
C2385 C2384 1.516 . S
C2385 C2386 1.502 . S
C2385 C2387 1.561 . S
C2385 C2388 1.526 . S
C2386 H2370 0.959 . S
C2386 H2371 0.959 . S
C2386 H2372 0.961 . S
C2386 C2385 1.502 . S
C2387 H2373 0.960 . S
C2387 H2374 0.961 . S
C2387 H2375 0.959 . S
C2387 C2385 1.561 . S
C2388 C2385 1.526 . S
C2388 C2389 1.396 . S
C2388 C2393 1.390 . S
C2389 C2383 1.465 . S
C2389 C2388 1.396 . S
C2389 C2390 1.399 . S
C2390 H2376 0.929 . S
C2390 C2389 1.399 . S
C2390 C2391 1.385 . S
C2391 H2377 0.931 . S
C2391 C2390 1.385 . S
C2391 C2392 1.389 . S
C2392 C2391 1.389 . S
C2392 C2393 1.387 . S
C2393 H2378 0.930 . S
C2393 C2388 1.390 . S
C2393 C2392 1.387 . S
H2394 C2406 0.930 . S
H2395 C2408 0.930 . S
H2396 C2409 0.930 . S
H2397 C2413 0.959 . S
H2398 C2413 0.959 . S
H2399 C2413 0.961 . S
H2400 C2414 0.960 . S
H2401 C2414 0.961 . S
H2402 C2414 0.959 . S
H2403 C2417 0.929 . S
H2404 C2418 0.931 . S
H2405 C2420 0.930 . S
C2406 H2394 0.930 . S
C2406 C2407 1.399 . S
C2406 C2411 1.399 . S
C2407 C2406 1.399 . S
C2407 C2408 1.376 . S
C2408 H2395 0.930 . S
C2408 C2407 1.376 . S
C2408 C2409 1.388 . S
C2409 H2396 0.930 . S
C2409 C2408 1.388 . S
C2409 C2410 1.390 . S
C2410 C2409 1.390 . S
C2410 C2411 1.394 . S
C2410 C2416 1.465 . S
C2411 C2406 1.399 . S
C2411 C2410 1.394 . S
C2411 C2412 1.516 . S
C2412 C2411 1.516 . S
C2412 C2413 1.502 . S
C2412 C2414 1.561 . S
C2412 C2415 1.526 . S
C2413 H2397 0.959 . S
C2413 H2398 0.959 . S
C2413 H2399 0.961 . S
C2413 C2412 1.502 . S
C2414 H2400 0.960 . S
C2414 H2401 0.961 . S
C2414 H2402 0.959 . S
C2414 C2412 1.561 . S
C2415 C2412 1.526 . S
C2415 C2416 1.396 . S
C2415 C2420 1.390 . S
C2416 C2410 1.465 . S
C2416 C2415 1.396 . S
C2416 C2417 1.399 . S
C2417 H2403 0.929 . S
C2417 C2416 1.399 . S
C2417 C2418 1.385 . S
C2418 H2404 0.931 . S
C2418 C2417 1.385 . S
C2418 C2419 1.389 . S
C2419 C2418 1.389 . S
C2419 C2420 1.387 . S
C2420 H2405 0.930 . S
C2420 C2415 1.390 . S
C2420 C2419 1.387 . S
H2421 C2433 0.930 . S
H2422 C2435 0.930 . S
H2423 C2436 0.930 . S
H2424 C2440 0.959 . S
H2425 C2440 0.959 . S
H2426 C2440 0.961 . S
H2427 C2441 0.960 . S
H2428 C2441 0.961 . S
H2429 C2441 0.959 . S
H2430 C2444 0.929 . S
H2431 C2445 0.931 . S
H2432 C2447 0.930 . S
C2433 H2421 0.930 . S
C2433 C2434 1.399 . S
C2433 C2438 1.399 . S
C2434 C2433 1.399 . S
C2434 C2435 1.376 . S
C2435 H2422 0.930 . S
C2435 C2434 1.376 . S
C2435 C2436 1.388 . S
C2436 H2423 0.930 . S
C2436 C2435 1.388 . S
C2436 C2437 1.390 . S
C2437 C2436 1.390 . S
C2437 C2438 1.394 . S
C2437 C2443 1.465 . S
C2438 C2433 1.399 . S
C2438 C2437 1.394 . S
C2438 C2439 1.516 . S
C2439 C2438 1.516 . S
C2439 C2440 1.502 . S
C2439 C2441 1.561 . S
C2439 C2442 1.526 . S
C2440 H2424 0.959 . S
C2440 H2425 0.959 . S
C2440 H2426 0.961 . S
C2440 C2439 1.502 . S
C2441 H2427 0.960 . S
C2441 H2428 0.961 . S
C2441 H2429 0.959 . S
C2441 C2439 1.561 . S
C2442 C2439 1.526 . S
C2442 C2443 1.396 . S
C2442 C2447 1.390 . S
C2443 C2437 1.465 . S
C2443 C2442 1.396 . S
C2443 C2444 1.399 . S
C2444 H2430 0.929 . S
C2444 C2443 1.399 . S
C2444 C2445 1.385 . S
C2445 H2431 0.931 . S
C2445 C2444 1.385 . S
C2445 C2446 1.389 . S
C2446 C2445 1.389 . S
C2446 C2447 1.387 . S
C2447 H2432 0.930 . S
C2447 C2442 1.390 . S
C2447 C2446 1.387 . S
C1003 N170 1.950 . S
C1015 C290 1.930 . S
C1030 N184 0.980 . S
C1042 C374 0.939 . S
C1057 N158 1.545 . S
C1069 C468 1.530 . S
C1084 N145 1.524 . S
C1096 C384 1.501 1_556 S
C1123 C458 0.863 . S
C1111 N119 0.879 . S
C1138 N131 1.905 . S
C1150 C300 1.899 . S
C1177 C301 1.553 . S
C1165 N144 1.633 . S
C1204 C385 1.318 . S
C1192 N118 1.356 . S
C1219 N132 1.414 . S
C1231 C477 1.437 . S
C1246 N171 1.423 . S
C1258 C393 1.413 . S
C1273 N183 1.339 . S
C1285 C469 1.254 . S
C1312 C309 1.583 . S
C1300 N157 1.585 . S
C1339 C542 1.864 . S
C1327 N14 1.989 . S
C1354 N28 0.983 . S
C1366 C626 0.947 . S
C1381 N2 1.552 . S
C1393 C720 1.514 . S
C1408 N223 1.528 . S
C1420 C636 1.491 . S
C1435 N197 0.928 . S
C1447 C710 0.878 . S
C1462 N209 1.904 . S
C1474 C552 1.912 . S
C1489 N222 1.636 . S
C1501 C553 1.603 . S
C1516 N196 1.347 . S
C1528 C637 1.375 . S
C1555 C729 1.441 . S
C1543 N210 1.415 . S
C1570 N15 1.403 . S
C1582 C645 1.427 . S
C1609 C721 1.326 . S
C1597 N27 1.305 . S
C1624 N1 1.592 . S
C1636 C561 1.580 . S
C1663 C794 1.929 . S
C1651 N92 1.953 . S
C1678 N106 0.974 . S
C1690 C878 0.925 . S
C1717 C972 1.538 . S
C1705 N80 1.543 . S
C1744 C888 1.509 . S
C1732 N67 1.521 . S
C1771 C962 0.880 . S
C1759 N41 0.884 . S
C1786 N53 1.908 . S
C1798 C804 1.891 . S
C1813 N66 1.634 . S
C1825 C805 1.550 . S
C1840 N40 1.334 . S
C1852 C889 1.372 . S
C1879 C981 1.409 . S
C1867 N54 1.446 . S
C1894 N93 1.401 . S
C1906 C897 1.421 . S
C1921 N105 1.317 . S
C1933 C973 1.261 . S
C1948 N79 1.593 . S
C1960 C813 1.580 . S
C1975 N200 1.216 . S
C1987 C297 1.064 . S
C2014 C381 1.616 . S
C2002 N213 1.754 . S
C2029 N226 1.485 . S
C2041 C474 1.431 . S
C2056 N83 1.507 . S
C2068 C390 1.421 . S
C2083 N96 1.739 . S
C2095 C465 1.580 . S
C2122 C306 1.114 . S
C2110 N109 1.240 . S
C2137 N44 1.249 . S
C2149 C549 1.118 . S
C2164 N57 1.753 . S
C2176 C633 1.620 . S
C2191 N70 1.484 . S
C2203 C726 1.430 . S
C2218 N161 1.521 . S
C2230 C642 1.450 . S
C2257 C717 1.612 . S
C2245 N174 1.729 . S
C2272 N187 1.292 . S
C2284 C558 1.226 . S
C2299 N122 1.215 . S
C2311 C801 1.063 . S
C2326 N135 1.789 . S
C2338 C885 1.567 . S
C2365 C978 1.431 . S
C2353 N148 1.485 . S
C2380 N5 1.518 . S
C2392 C894 1.356 . S
C2407 N18 1.731 . S
C2419 C969 1.606 . S
C2434 N31 1.239 . S
C2446 C810 1.122 . S
