# Generated by pormake.
# Topology sqc, (4,8)-cn, num edge types: 1
# Building blocks:
#     Node 0, Type 0, BuildingBlock: KUFVIS_clean_linker_0, # of connection points: 4
#     Node 1, Type 0, BuildingBlock: KUFVIS_clean_linker_0, # of connection points: 4
#     Node 2, Type 0, BuildingBlock: KUFVIS_clean_linker_0, # of connection points: 4
#     Node 3, Type 0, BuildingBlock: KUFVIS_clean_linker_0, # of connection points: 4
#     Node 4, Type 0, BuildingBlock: KUFVIS_clean_linker_0, # of connection points: 4
#     Node 5, Type 0, BuildingBlock: KUFVIS_clean_linker_0, # of connection points: 4
#     Node 6, Type 0, BuildingBlock: KUFVIS_clean_linker_0, # of connection points: 4
#     Node 7, Type 0, BuildingBlock: KUFVIS_clean_linker_0, # of connection points: 4
#     Node 8, Type 1, BuildingBlock: TAGTUT_clean_sbu_3, # of connection points: 8
#     Node 9, Type 1, BuildingBlock: TAGTUT_clean_sbu_3, # of connection points: 8
#     Node 10, Type 1, BuildingBlock: TAGTUT_clean_sbu_3, # of connection points: 8
#     Node 11, Type 1, BuildingBlock: TAGTUT_clean_sbu_3, # of connection points: 8
#     Edge 12, Type (0, 1), BuildingBlock: OJICUG_clean_linker_0, # of connection points: 2
#     Edge 13, Type (0, 1), BuildingBlock: OJICUG_clean_linker_0, # of connection points: 2
#     Edge 14, Type (0, 1), BuildingBlock: OJICUG_clean_linker_0, # of connection points: 2
#     Edge 15, Type (0, 1), BuildingBlock: OJICUG_clean_linker_0, # of connection points: 2
#     Edge 16, Type (0, 1), BuildingBlock: OJICUG_clean_linker_0, # of connection points: 2
#     Edge 17, Type (0, 1), BuildingBlock: OJICUG_clean_linker_0, # of connection points: 2
#     Edge 18, Type (0, 1), BuildingBlock: OJICUG_clean_linker_0, # of connection points: 2
#     Edge 19, Type (0, 1), BuildingBlock: OJICUG_clean_linker_0, # of connection points: 2
#     Edge 20, Type (0, 1), BuildingBlock: OJICUG_clean_linker_0, # of connection points: 2
#     Edge 21, Type (0, 1), BuildingBlock: OJICUG_clean_linker_0, # of connection points: 2
#     Edge 22, Type (0, 1), BuildingBlock: OJICUG_clean_linker_0, # of connection points: 2
#     Edge 23, Type (0, 1), BuildingBlock: OJICUG_clean_linker_0, # of connection points: 2
#     Edge 24, Type (0, 1), BuildingBlock: OJICUG_clean_linker_0, # of connection points: 2
#     Edge 25, Type (0, 1), BuildingBlock: OJICUG_clean_linker_0, # of connection points: 2
#     Edge 26, Type (0, 1), BuildingBlock: OJICUG_clean_linker_0, # of connection points: 2
#     Edge 27, Type (0, 1), BuildingBlock: OJICUG_clean_linker_0, # of connection points: 2
#     Edge 28, Type (0, 1), BuildingBlock: OJICUG_clean_linker_0, # of connection points: 2
#     Edge 29, Type (0, 1), BuildingBlock: OJICUG_clean_linker_0, # of connection points: 2
#     Edge 30, Type (0, 1), BuildingBlock: OJICUG_clean_linker_0, # of connection points: 2
#     Edge 31, Type (0, 1), BuildingBlock: OJICUG_clean_linker_0, # of connection points: 2
#     Edge 32, Type (0, 1), BuildingBlock: OJICUG_clean_linker_0, # of connection points: 2
#     Edge 33, Type (0, 1), BuildingBlock: OJICUG_clean_linker_0, # of connection points: 2
#     Edge 34, Type (0, 1), BuildingBlock: OJICUG_clean_linker_0, # of connection points: 2
#     Edge 35, Type (0, 1), BuildingBlock: OJICUG_clean_linker_0, # of connection points: 2
#     Edge 36, Type (0, 1), BuildingBlock: OJICUG_clean_linker_0, # of connection points: 2
#     Edge 37, Type (0, 1), BuildingBlock: OJICUG_clean_linker_0, # of connection points: 2
#     Edge 38, Type (0, 1), BuildingBlock: OJICUG_clean_linker_0, # of connection points: 2
#     Edge 39, Type (0, 1), BuildingBlock: OJICUG_clean_linker_0, # of connection points: 2
#     Edge 40, Type (0, 1), BuildingBlock: OJICUG_clean_linker_0, # of connection points: 2
#     Edge 41, Type (0, 1), BuildingBlock: OJICUG_clean_linker_0, # of connection points: 2
#     Edge 42, Type (0, 1), BuildingBlock: OJICUG_clean_linker_0, # of connection points: 2
#     Edge 43, Type (0, 1), BuildingBlock: OJICUG_clean_linker_0, # of connection points: 2
# Relax obj value: 0.172
# Max RMSD: 0.268
# Mean RMSD: 0.220
data_MOF--net-sqc--node1-TAGTUT_clean_sbu_3--node2-KUFVIS_clean_linker_0--edge1-OJICUG_clean_linker_0
_symmetry_space_group_name_H-M    P1
_symmetry_Int_Tables_number       1
_symmetry_cell_setting            triclinic
loop_
_symmetry_equiv_pos_as_xyz
'x, y, z'
_cell_length_a     18.157099
_cell_length_b     18.002838
_cell_length_c     56.35686
_cell_angle_alpha  89.570861
_cell_angle_beta   90.045911
_cell_angle_gamma 89.87471
loop_
_atom_site_label
_atom_site_type_symbol
_atom_site_fract_x
_atom_site_fract_y
_atom_site_fract_z
_atom_type_partial_charge
H0 H 0.80431 0.03103 0.46085 0.0
H1 H 1.00676 0.07121 0.49682 0.0
H2 H 1.00563 0.98085 0.42561 0.0
H3 H 0.11833 0.9573 0.42899 0.0
H4 H 0.32025 0.02244 0.46072 0.0
H5 H 0.12048 0.09095 0.49341 0.0
C6 C 0.86397 0.02971 0.46094 0.0
C7 C 0.90109 1.00136 0.44141 0.0
C8 C 0.90173 0.05568 0.48067 0.0
C9 C 0.97947 0.05245 0.48099 0.0
C10 C 0.02027 0.02619 0.46116 0.0
C11 C 0.97884 1.00134 0.44129 0.0
C12 C 0.10459 0.0246 0.46117 0.0
C13 C 0.14513 0.98706 0.44308 0.0
C14 C 0.22262 0.98848 0.44269 0.0
C15 C 0.26041 0.02279 0.46093 0.0
C16 C 0.22394 0.05746 0.47941 0.0
C17 C 0.14641 0.06076 0.47923 0.0
H18 H 0.32751 0.96442 0.69518 0.0
H19 H 0.34221 0.7881 0.74626 0.0
H20 H 0.38062 0.74654 0.67149 0.0
H21 H 0.44606 0.65527 0.68308 0.0
H22 H 0.39876 0.45932 0.72297 0.0
H23 H 0.31904 0.66885 0.74789 0.0
C24 C 0.33696 0.90612 0.69919 0.0
C25 C 0.35665 0.8577 0.68105 0.0
C26 C 0.33024 0.88092 0.7225 0.0
C27 C 0.34508 0.80575 0.72791 0.0
C28 C 0.3652 0.75519 0.7098 0.0
C29 C 0.36898 0.78265 0.68624 0.0
C30 C 0.38077 0.67422 0.71497 0.0
C31 C 0.42083 0.63067 0.6986 0.0
C32 C 0.42465 0.55338 0.70108 0.0
C33 C 0.39634 0.51935 0.72142 0.0
C34 C 0.35934 0.56059 0.73859 0.0
C35 C 0.351 0.63798 0.73516 0.0
H36 H 0.93241 0.99488 0.95959 0.0
H37 H 0.72871 0.96096 -0.00391 0.0
H38 H 0.73404 0.08396 0.92975 0.0
H39 H 0.6262 0.02874 0.92511 0.0
H40 H 0.42407 0.03527 -0.03605 0.0
H41 H 0.62903 0.02874 0.00174 0.0
C42 C 0.87305 1.00171 0.96034 0.0
C43 C 0.83637 0.03958 0.94217 0.0
C44 C 0.83396 0.9761 -0.01996 0.0
C45 C 0.75769 0.98445 -0.01897 0.0
C46 C 0.71988 0.02223 -0.03721 0.0
C47 C 0.76059 0.05183 0.94366 0.0
C48 C 0.63838 0.02883 -0.03664 0.0
C49 C 0.59836 0.03179 0.94206 0.0
C50 C 0.52167 0.03624 0.9422 0.0
C51 C 0.48377 0.03408 -0.03614 0.0
C52 C 0.52266 0.02941 -0.01464 0.0
C53 C 0.59975 0.02902 -0.01499 0.0
H54 H 0.40679 0.58225 0.20713 0.0
H55 H 0.43769 0.37754 0.2443 0.0
H56 H 0.29836 0.38582 0.18211 0.0
H57 H 0.31924 0.26273 0.18152 0.0
H58 H 0.29882 0.08255 0.23107 0.0
H59 H 0.3594 0.29648 0.25651 0.0
C60 C 0.39821 0.52269 0.20806 0.0
C61 C 0.3526 0.48798 0.19147 0.0
C62 C 0.4266 0.48273 0.22731 0.0
C63 C 0.41282 0.40672 0.22947 0.0
C64 C 0.36514 0.37025 0.21361 0.0
C65 C 0.33598 0.41175 0.1944 0.0
C66 C 0.34276 0.29106 0.21824 0.0
C67 C 0.32055 0.24325 0.19972 0.0
C68 C 0.30337 0.16831 0.20451 0.0
C69 C 0.30912 0.14098 0.22766 0.0
C70 C 0.33151 0.18675 0.24617 0.0
C71 C 0.34548 0.26183 0.24159 0.0
H72 H 0.80696 0.46323 0.19371 0.0
H73 H 0.82576 0.28107 0.24277 0.0
H74 H 0.86048 0.24837 0.16745 0.0
H75 H 0.9395 0.16765 0.17896 0.0
H76 H 0.91986 0.96359 0.21684 0.0
H77 H 0.80539 0.15654 0.24237 0.0
C78 C 0.81626 0.4045 0.19697 0.0
C79 C 0.83625 0.35853 0.17821 0.0
C80 C 0.81096 0.37664 0.22009 0.0
C81 C 0.82662 0.3011 0.22462 0.0
C82 C 0.84689 0.25328 0.2059 0.0
C83 C 0.84862 0.28299 0.18257 0.0
C84 C 0.8697 0.17394 0.21033 0.0
C85 C 0.91634 0.13823 0.19398 0.0
C86 C 0.93179 0.06264 0.19597 0.0
C87 C 0.9071 0.02237 0.21557 0.0
C88 C 0.86234 0.05592 0.23261 0.0
C89 C 0.84325 0.13183 0.22987 0.0
H90 H 0.92424 0.07713 0.70656 0.0
H91 H 0.94472 0.87447 0.74545 0.0
H92 H 0.80676 0.88401 0.6829 0.0
H93 H 0.83164 0.75908 0.68279 0.0
H94 H 0.80461 0.58146 0.73303 0.0
H95 H 0.86256 0.79682 0.75799 0.0
C96 C 0.91136 1.01852 0.70819 0.0
C97 C 0.86495 0.98469 0.69165 0.0
C98 C 0.93724 0.97893 0.72784 0.0
C99 C 0.9214 0.90357 0.73034 0.0
C100 C 0.87351 0.86768 0.7145 0.0
C101 C 0.8458 0.90907 0.69493 0.0
C102 C 0.85013 0.78908 0.71955 0.0
C103 C 0.83074 0.74024 0.70108 0.0
C104 C 0.81158 0.66596 0.7061 0.0
C105 C 0.81414 0.63996 0.72949 0.0
C106 C 0.83467 0.68652 0.74805 0.0
C107 C 0.84998 0.76127 0.74315 0.0
H108 H 0.82062 0.5001 -0.03527 0.0
H109 H 0.61663 0.40527 0.94223 0.0
H110 H 0.61866 0.59536 -0.01103 0.0
H111 H 0.51289 0.54537 0.00168 0.0
H112 H 0.30666 0.50503 -0.03256 0.0
H113 H 0.5072 0.45321 0.93099 0.0
C114 C 0.76111 0.50007 -0.03495 0.0
C115 C 0.72468 0.55314 -0.02138 0.0
C116 C 0.72327 0.44763 0.95162 0.0
C117 C 0.64555 0.44723 0.9522 0.0
C118 C 0.60574 0.49979 -0.0342 0.0
C119 C 0.64677 0.55302 -0.02111 0.0
C120 C 0.52213 0.49908 -0.0337 0.0
C121 C 0.48329 0.52571 -0.01371 0.0
C122 C 0.40563 0.52758 -0.0133 0.0
C123 C 0.36622 0.50042 -0.03253 0.0
C124 C 0.40198 0.47244 0.94756 0.0
C125 C 0.47997 0.47279 0.94682 0.0
H126 H 0.4431 0.54723 0.46451 0.0
H127 H 0.24653 0.45729 0.4951 0.0
H128 H 0.23782 0.5801 0.42874 0.0
H129 H 0.13764 0.51442 0.42351 0.0
H130 H 0.9343 0.50854 0.46197 0.0
H131 H 0.13784 0.50992 0.50021 0.0
C132 C 0.38383 0.53982 0.46395 0.0
C133 C 0.34382 0.56514 0.44433 0.0
C134 C 0.34819 0.50181 0.48232 0.0
C135 C 0.27236 0.48916 0.48104 0.0
C136 C 0.23055 0.51865 0.46208 0.0
C137 C 0.26751 0.55649 0.44366 0.0
C138 C 0.14879 0.51224 0.46187 0.0
C139 C 0.10916 0.51362 0.44037 0.0
C140 C 0.03206 0.51419 0.44029 0.0
C141 C 0.99401 0.50885 0.46189 0.0
C142 C 0.03257 0.505 0.48343 0.0
C143 C 0.10944 0.50825 0.48333 0.0
C144 C 0.20742 0.6527 0.11683 0.0
C145 C 0.94066 0.55341 0.10694 0.0
C146 C 0.93117 0.67992 0.04391 0.0
Mg147 Mg 0.27884 0.81283 0.09822 0.0
Mg148 Mg 0.17358 0.95152 0.07982 0.0
O149 O 0.19603 0.85012 0.0784 0.0
Mg150 Mg 0.12145 0.77586 0.0871 0.0
O151 O 0.04927 0.69876 0.09581 0.0
Mg152 Mg 0.08489 0.61832 0.07471 0.0
Mg153 Mg 0.94858 0.72115 0.09548 0.0
C154 C 0.03123 0.89729 0.05415 0.0
O155 O 0.06976 0.85052 0.11499 0.0
O156 O 0.34895 0.89877 0.07632 0.0
O157 O 0.94884 0.82297 0.11555 0.0
O158 O 0.2615 0.90347 0.12763 0.0
O159 O 0.27164 0.98726 0.06263 0.0
O160 O 0.17792 0.98647 0.11538 0.0
O161 O 0.17242 0.69981 0.05849 0.0
O162 O 0.28801 0.7292 0.0694 0.0
C163 C 0.2431 0.69204 0.05664 0.0
C164 C 0.33575 0.9577 0.06386 0.0
O165 O 0.04484 0.82993 0.06011 0.0
O166 O 1.00026 0.54313 0.09502 0.0
O167 O 0.06971 0.95237 0.06129 0.0
O168 O 0.99026 0.6404 0.04585 0.0
O169 O 0.91219 0.61786 0.10989 0.0
O170 O 0.90981 0.72297 0.06031 0.0
O171 O 0.19897 0.72381 0.1149 0.0
O172 O 0.17049 0.6069 0.1041 0.0
C173 C 0.22265 0.96221 0.131 0.0
C174 C 1.00392 0.86227 0.12211 0.0
C175 C 0.74499 0.8584 0.36628 0.0
C176 C 0.84313 0.59037 0.36226 0.0
C177 C 0.73365 0.58199 0.29426 0.0
Mg178 Mg 0.59082 0.92763 0.34662 0.0
Mg179 Mg 0.45424 0.82228 0.32832 0.0
O180 O 0.55477 0.84569 0.32593 0.0
Mg181 Mg 0.62691 0.76877 0.33568 0.0
O182 O 0.70209 0.6962 0.34569 0.0
Mg183 Mg 0.78708 0.73327 0.32672 0.0
Mg184 Mg 0.68174 0.59448 0.34504 0.0
C185 C 0.50916 0.68039 0.30128 0.0
O186 O 0.54861 0.7154 0.36274 0.0
O187 O 0.50702 1.00129 0.32605 0.0
O188 O 0.57694 0.5935 0.36295 0.0
O189 O 0.49638 0.91096 0.37445 0.0
O190 O 0.41554 0.92588 0.31399 0.0
O191 O 0.41882 0.8208 0.3642 0.0
O192 O 0.70784 0.82017 0.3085 0.0
O193 O 0.67907 0.93777 0.31845 0.0
C194 C 0.71787 0.89113 0.30669 0.0
C195 C 0.44515 0.9903 0.31552 0.0
O196 O 0.5758 0.69216 0.30777 0.0
O197 O 0.85645 0.64911 0.34976 0.0
O198 O 0.45464 0.71987 0.3084 0.0
O199 O 0.77236 0.64067 0.29769 0.0
O200 O 0.77931 0.56037 0.36307 0.0
O201 O 0.68817 0.5583 0.30969 0.0
O202 O 0.67541 0.84611 0.36377 0.0
O203 O 0.79389 0.82121 0.35504 0.0
C204 C 0.43903 0.87116 0.37848 0.0
C205 C 0.53649 0.64823 0.36931 0.0
C206 C 0.71683 0.14969 0.61758 0.0
C207 C 0.45003 0.0478 0.6077 0.0
C208 C 0.43788 0.17174 0.54521 0.0
Mg209 Mg 0.78931 0.30573 0.59912 0.0
Mg210 Mg 0.69005 0.45148 0.5825 0.0
O211 O 0.7039 0.34913 0.58146 0.0
Mg212 Mg 0.62605 0.27691 0.58938 0.0
O213 O 0.55378 0.19791 0.59715 0.0
Mg214 Mg 0.59194 0.11686 0.57645 0.0
Mg215 Mg 0.45262 0.21624 0.59581 0.0
C216 C 0.54221 0.40781 0.55707 0.0
O217 O 0.57046 0.34989 0.61821 0.0
O218 O 0.86132 0.38799 0.57664 0.0
O219 O 0.45123 0.31478 0.61709 0.0
O220 O 0.78112 0.39493 0.62921 0.0
O221 O 0.78722 0.48003 0.56367 0.0
O222 O 0.70324 0.48524 0.61794 0.0
O223 O 0.67482 0.20169 0.56014 0.0
O224 O 0.79321 0.22241 0.56968 0.0
C225 C 0.74424 0.18882 0.55752 0.0
C226 C 0.84968 0.44706 0.56413 0.0
O227 O 0.55002 0.33874 0.5626 0.0
O228 O 0.51114 0.03927 0.59655 0.0
O229 O 0.5857 0.45845 0.56461 0.0
O230 O 0.49717 0.13393 0.54858 0.0
O231 O 0.41865 0.11119 0.60989 0.0
O232 O 0.41534 0.21887 0.56025 0.0
O233 O 0.70637 0.22067 0.61635 0.0
O234 O 0.67956 0.10443 0.60489 0.0
C235 C 0.74635 0.45572 0.6331 0.0
C236 C 0.50292 0.35659 0.62486 0.0
C237 C 0.23422 0.35498 0.87026 0.0
C238 C 0.34076 0.09472 0.86121 0.0
C239 C 0.23318 0.09025 0.79312 0.0
Mg240 Mg 0.07502 0.42125 0.85241 0.0
Mg241 Mg 0.94359 0.31952 0.82827 0.0
O242 O 0.04373 0.34246 0.83004 0.0
Mg243 Mg 0.11858 0.2668 0.83831 0.0
O244 O 0.19674 0.19582 0.84656 0.0
Mg245 Mg 0.27931 0.23952 0.82793 0.0
Mg246 Mg 0.18029 0.09397 0.8438 0.0
C247 C 1.0066 0.18164 0.80118 0.0
O248 O 0.04254 0.20389 0.86425 0.0
O249 O 0.98984 0.49757 0.83248 0.0
O250 O 0.07688 0.08396 0.86185 0.0
O251 O 0.98112 0.39007 0.88015 0.0
O252 O 0.90653 0.42409 0.81467 0.0
O253 O 0.90182 0.31188 0.86289 0.0
O254 O 0.19589 0.32629 0.81181 0.0
O255 O 0.16133 0.44035 0.82401 0.0
C256 C 0.20103 0.39795 0.81095 0.0
C257 C 0.93265 0.48842 0.81931 0.0
O258 O 0.0716 0.1937 0.80905 0.0
O259 O 0.3518 0.15551 0.84954 0.0
O260 O 0.95012 0.2197 0.80739 0.0
O261 O 0.26959 0.14996 0.79736 0.0
O262 O 0.27861 0.06138 0.86128 0.0
O263 O 0.18759 0.06376 0.80801 0.0
O264 O 0.16467 0.34083 0.86812 0.0
O265 O 0.28294 0.32217 0.85766 0.0
C266 C 0.92269 0.34958 0.88064 0.0
C267 C 0.03383 0.1349 0.86944 0.0
C268 C 0.32166 1.00408 0.41302 0.0
C269 C 0.26856 0.95746 0.42342 0.0
H270 H 0.41888 1.01289 0.3921 0.0
C271 C 0.27187 0.88078 0.41912 0.0
H272 H 0.32057 0.06341 0.41617 0.0
C273 C 0.32867 0.85142 0.40503 0.0
C274 C 0.38393 0.89817 0.39571 0.0
H275 H 0.23244 0.84356 0.42732 0.0
H276 H 0.32985 0.7923 0.40163 0.0
C277 C 0.37911 0.97483 0.39973 0.0
C278 C 0.44072 0.87839 0.64681 0.0
C279 C 0.37131 0.8888 0.65725 0.0
H280 H 0.52047 0.9212 0.62241 0.0
C281 C 0.32247 0.94105 0.64738 0.0
H282 H 0.47929 0.83833 0.65414 0.0
C283 C 0.34611 0.98885 0.62945 0.0
C284 C 0.41881 0.98474 0.62105 0.0
H285 H 0.26816 0.94904 0.65492 0.0
H286 H 0.30924 0.0325 0.62343 0.0
C287 C 0.46435 0.92608 0.62873 0.0
C288 C 0.50228 0.09899 0.90309 0.0
C289 C 0.48159 0.04398 0.91958 0.0
H290 H 0.47446 0.15767 0.8712 0.0
C291 C 0.42119 0.99839 0.9147 0.0
H292 H 0.54915 0.13453 0.90649 0.0
C293 C 0.37918 1.01067 0.89435 0.0
C294 C 0.3961 0.0697 0.87875 0.0
H295 H 0.40533 0.95457 0.92693 0.0
H296 H 0.3309 0.9765 0.89167 0.0
C297 C 0.45976 0.11193 0.88284 0.0
C298 C 0.22297 0.13134 0.17055 0.0
C299 C 0.2826 0.11589 0.18556 0.0
H300 H 0.15496 0.09338 0.14222 0.0
C301 C 0.31894 0.04704 0.18375 0.0
H302 H 0.19317 0.18332 0.17197 0.0
C303 C 0.29706 0.99512 0.16688 0.0
C304 C 0.23821 1.01092 0.15147 0.0
H305 H 0.36499 0.03371 0.19527 0.0
H306 H 0.32764 0.94362 0.16548 0.0
C307 C 0.20064 0.0792 0.15378 0.0
C308 C 0.32714 0.04134 0.50779 0.0
C309 C 0.27107 0.08732 0.49861 0.0
H310 H 0.42555 0.03284 0.5282 0.0
C311 C 0.27047 0.16287 0.50463 0.0
H312 H 0.32878 0.98274 0.50353 0.0
C313 C 0.32626 0.19183 0.51918 0.0
C314 C 0.3843 0.146 0.52731 0.0
H315 H 0.22851 0.19968 0.49753 0.0
H316 H 0.32422 0.24992 0.52399 0.0
C317 C 0.38357 0.07042 0.52152 0.0
C318 C 0.34209 1.00329 0.74312 0.0
C319 C 0.3061 0.93456 0.74072 0.0
H320 H 0.34673 0.10744 0.76128 0.0
C321 C 0.24242 0.92073 0.75398 0.0
H322 H 0.39086 1.01558 0.73276 0.0
C323 C 0.21592 0.97396 0.76973 0.0
C324 C 0.25331 0.04185 0.77292 0.0
H325 H 0.21259 0.86911 0.75193 0.0
H326 H 0.16707 0.96076 0.77993 0.0
C327 C 0.3162 0.05631 0.75916 0.0
C328 C 0.5022 0.9623 0.02379 0.0
C329 C 0.48263 0.01993 0.00802 0.0
H330 H 0.4714 0.89762 0.05419 0.0
C331 C 0.42097 0.064 0.01304 0.0
H332 H 0.54959 0.92742 0.02028 0.0
C333 C 0.3766 0.0475 0.03255 0.0
C334 C 0.39249 0.9859 0.04726 0.0
H335 H 0.40554 0.10956 0.00138 0.0
H336 H 0.32748 0.08061 0.03525 0.0
C337 C 0.45744 0.94532 0.04324 0.0
C338 C 0.30688 0.09579 0.27879 0.0
C339 C 0.35132 0.15211 0.26915 0.0
H340 H 0.30204 0.99998 0.30128 0.0
C341 C 0.42194 0.16372 0.27862 0.0
H342 H 0.25174 0.08662 0.27206 0.0
C343 C 0.45078 0.11427 0.29542 0.0
C344 C 0.40944 0.05245 0.30281 0.0
H345 H 0.45746 0.20666 0.27147 0.0
H346 H 0.50743 0.12104 0.30104 0.0
C347 C 0.33584 0.04608 0.2954 0.0
C348 C 0.79445 0.12916 0.49632 0.0
C349 C 0.85778 0.08547 0.50077 0.0
H350 H 0.70604 0.19318 0.51105 0.0
C351 C 0.87638 0.06833 0.52434 0.0
H352 H 0.77899 0.14447 0.47837 0.0
C353 C 0.83448 0.09672 0.54298 0.0
C354 C 0.77268 0.14195 0.53843 0.0
H355 H 0.92367 0.03373 0.5284 0.0
H356 H 0.8522 0.08601 0.56106 0.0
C357 C 0.75186 0.1564 0.51496 0.0
C358 C 0.80541 0.93721 0.24788 0.0
C359 C 0.83202 1.00953 0.25222 0.0
H360 H 0.74993 0.84132 0.26204 0.0
C361 C 0.82965 0.03694 0.27539 0.0
H362 H 0.80595 0.91457 0.23013 0.0
C363 C 0.7982 0.99468 0.29357 0.0
C364 C 0.76804 0.92418 0.28899 0.0
H365 H 0.85101 0.09157 0.2794 0.0
H366 H 0.79441 1.0187 0.3111 0.0
C367 C 0.77394 0.89475 0.26614 0.0
C368 C 0.91193 0.8812 6e-05 0.0
C369 C 0.87443 0.94913 0.00073 0.0
H370 H 0.99117 0.81077 0.01713 0.0
C371 C 0.88294 0.9965 0.02014 0.0
H372 H 0.90595 0.84453 -0.01498 0.0
C373 C 0.93221 0.97817 0.03815 0.0
C374 C 0.97228 0.91168 0.03708 0.0
H375 H 0.85446 0.04943 0.02068 0.0
H376 H 0.94062 1.01686 0.05254 0.0
C377 C 0.96017 0.86208 0.01835 0.0
C378 C 0.9183 0.02575 0.76821 0.0
C379 C 0.96433 0.02034 0.74833 0.0
H380 H 0.89561 0.08271 0.80054 0.0
C381 C 0.02862 0.06309 0.74697 0.0
H382 H 0.86799 0.99362 0.76936 0.0
C383 C 0.04514 0.11305 0.76505 0.0
C384 C 0.99605 0.12206 0.78408 0.0
H385 H 0.06425 0.05976 0.7316 0.0
H386 H 0.09371 0.14759 0.76348 0.0
C387 C 0.93361 0.07693 0.78585 0.0
C388 C 0.87712 0.98267 0.39785 0.0
C389 C 0.8567 0.97063 0.42157 0.0
H390 H 0.85519 0.95785 0.36142 0.0
C391 C 0.79215 0.92953 0.4264 0.0
H392 H 0.92541 1.01517 0.39346 0.0
C393 C 0.75036 0.89951 0.40804 0.0
C394 C 0.77328 0.90836 0.38454 0.0
H395 H 0.77528 0.9179 0.44447 0.0
H396 H 0.70355 0.86468 0.41235 0.0
C397 C 0.83606 0.95132 0.37952 0.0
C398 C 0.91069 1.01435 0.15586 0.0
C399 C 0.95838 0.02202 0.17527 0.0
H400 H 0.88772 0.95617 0.12375 0.0
C401 C 0.0246 0.98208 0.17607 0.0
H402 H 0.8589 0.04435 0.15519 0.0
C403 C 0.04163 0.93263 0.15791 0.0
C404 C 0.99143 0.92142 0.13929 0.0
H405 H 0.06148 0.98711 0.1911 0.0
H406 H 0.0918 0.90015 0.15913 0.0
C407 C 0.92673 0.96371 0.13809 0.0
C408 C 0.90389 1.01561 0.90498 0.0
C409 C 0.87826 0.06646 0.92173 0.0
H410 H 0.9723 0.99815 0.87472 0.0
C411 C 0.89887 0.1412 0.92019 0.0
H412 H 0.88842 0.95758 0.90613 0.0
C413 C 0.94771 0.16428 0.90255 0.0
C414 C 0.97541 0.11308 0.88611 0.0
H415 H 0.8801 0.18071 0.93329 0.0
H416 H 0.967 0.221 0.90262 0.0
C417 C 0.95186 0.03882 0.88718 0.0
C418 C 0.82709 1.00162 0.64914 0.0
C419 C 0.83285 0.03048 0.67208 0.0
H420 H 0.78856 1.01839 0.6137 0.0
C421 C 0.80781 0.10364 0.67619 0.0
H422 H 0.84708 0.94629 0.64525 0.0
C423 C 0.7751 0.14569 0.65798 0.0
C424 C 0.76624 0.11509 0.63538 0.0
H425 H 0.81076 0.12748 0.69375 0.0
H426 H 0.75291 0.2001 0.66195 0.0
C427 C 0.79436 0.04343 0.63103 0.0
C428 C 0.83972 0.37823 0.94134 0.0
C429 C 0.76735 0.40056 0.93517 0.0
H430 H 0.94749 0.34825 0.92874 0.0
C431 C 0.7443 0.39198 0.9116 0.0
H432 H 0.85861 0.38099 0.95954 0.0
C433 C 0.79451 0.36986 0.89427 0.0
C434 C 0.86905 0.35765 0.90005 0.0
H435 H 0.68944 0.4084 0.9061 0.0
H436 H 0.7762 0.36825 0.87598 0.0
C437 C 0.89081 0.35934 0.92382 0.0
C438 C 0.80789 0.44834 0.14554 0.0
C439 C 0.85394 0.39286 0.15499 0.0
H440 H 0.79931 0.54254 0.12246 0.0
C441 C 0.92366 0.38123 0.14482 0.0
H442 H 0.75349 0.45761 0.15285 0.0
C443 C 0.95005 0.42986 0.12735 0.0
C444 C 0.90706 0.49076 0.11998 0.0
H445 H 0.96034 0.33892 0.15185 0.0
H446 H 1.00621 0.42346 0.12121 0.0
C447 C 0.83429 0.497 0.12822 0.0
C448 C 0.92867 0.4824 0.41289 0.0
C449 C 0.99104 0.52533 0.41784 0.0
H450 H 0.83421 0.46776 0.39095 0.0
C451 C 1.01037 0.58337 0.40223 0.0
H452 H 0.91331 0.43659 0.42443 0.0
C453 C 0.96498 0.60165 0.38299 0.0
C454 C 0.8996 0.56197 0.37902 0.0
H455 H 0.05825 0.61744 0.40568 0.0
H456 H 0.97903 0.64938 0.37211 0.0
C457 C 0.88365 0.50022 0.39362 0.0
C458 C 0.73457 0.56293 0.68984 0.0
C459 C 0.79415 0.61229 0.68715 0.0
H460 H 0.67419 0.47191 0.67504 0.0
C461 C 0.84035 0.60556 0.66734 0.0
H462 H 0.69814 0.56692 0.705 0.0
C463 C 0.8269 0.55081 0.65047 0.0
C464 C 0.76719 0.50213 0.65316 0.0
H465 H 0.88727 0.64197 0.66504 0.0
H466 H 0.86196 0.54774 0.63495 0.0
C467 C 0.72108 0.50836 0.67291 0.0
C468 C 0.75127 0.61737 0.01718 0.0
C469 C 0.77088 0.60347 -0.00643 0.0
H470 H 0.78707 0.65321 0.05137 0.0
C471 C 0.84145 0.62656 -0.01426 0.0
H472 H 0.69805 0.60048 0.02397 0.0
C473 C 0.89398 0.65339 0.00175 0.0
C474 C 0.87562 0.66182 0.02565 0.0
H475 H 0.8578 0.61969 -0.03259 0.0
H476 H 0.94911 0.6659 -0.0044 0.0
C477 C 0.80281 0.64696 0.03295 0.0
C478 C 0.73231 0.41364 0.2544 0.0
C479 C 0.79155 0.42878 0.23926 0.0
H480 H 0.6654 0.4516 0.28297 0.0
C481 C 0.82871 0.49699 0.24123 0.0
H482 H 0.70193 0.36216 0.25288 0.0
C483 C 0.80786 0.54864 0.25835 0.0
C484 C 0.7492 0.5332 0.27381 0.0
H485 H 0.87451 0.51004 0.22962 0.0
H486 H 0.83888 0.59972 0.25983 0.0
C487 C 0.71098 0.4655 0.27138 0.0
C488 C 0.93224 0.54345 0.51097 0.0
C489 C 0.99252 0.49736 0.5061 0.0
H490 H 0.84136 0.56559 0.53375 0.0
C491 C 1.01216 0.44141 0.52244 0.0
H492 H 0.91704 0.58794 0.49886 0.0
C493 C 0.96878 0.42819 0.54249 0.0
C494 C 0.90531 0.47108 0.54655 0.0
H495 H 0.05879 0.40536 0.51906 0.0
H496 H 0.98272 0.38186 0.55403 0.0
C497 C 0.88937 0.53083 0.53108 0.0
C498 C 0.91959 0.66261 0.78219 0.0
C499 C 0.85018 0.65272 0.7716 0.0
H500 H 1.00043 0.61784 0.80609 0.0
C501 C 0.80272 0.5982 0.78081 0.0
H502 H 0.95741 0.70406 0.77539 0.0
C503 C 0.82765 0.54833 0.79808 0.0
C504 C 0.90016 0.55269 0.80666 0.0
H505 H 0.7485 0.5902 0.77321 0.0
H506 H 0.79186 0.5032 0.80349 0.0
C507 C 0.94437 0.61298 0.7997 0.0
C508 C 0.29757 0.53757 0.01475 0.0
C509 C 0.36429 0.56628 0.00561 0.0
H510 H 0.20493 0.55553 0.03799 0.0
C511 C 0.38681 0.63721 0.01233 0.0
H512 H 0.27865 0.48297 0.00963 0.0
C513 C 0.34437 0.67846 0.02791 0.0
C514 C 0.27846 0.6498 0.03746 0.0
H515 H 0.43639 0.66181 0.00506 0.0
H516 H 0.36385 0.73323 0.03269 0.0
C517 C 0.25479 0.57917 0.03062 0.0
C518 C 0.24981 0.54089 0.7647 0.0
C519 C 0.32137 0.52016 0.75817 0.0
H520 H 0.15601 0.51744 0.78611 0.0
C521 C 0.35317 0.45646 0.76889 0.0
H522 H 0.22248 0.58786 0.75639 0.0
C523 C 0.31375 0.41421 0.78556 0.0
C524 C 0.24262 0.436 0.79207 0.0
H525 H 0.40853 0.43917 0.76435 0.0
H526 H 0.33932 0.36596 0.79372 0.0
C527 C 0.21124 0.49968 0.78151 0.0
C528 C 0.40117 0.40076 0.50761 0.0
C529 C 0.39076 0.47667 0.50301 0.0
H530 H 0.45909 0.31912 0.52814 0.0
C531 C 0.42498 0.52932 0.51742 0.0
H532 H 0.37535 0.35951 0.49646 0.0
C533 C 0.47114 0.50651 0.53581 0.0
C534 C 0.48488 0.43051 0.53986 0.0
H535 H 0.41707 0.58819 0.51412 0.0
H536 H 0.4979 0.54871 0.54634 0.0
C537 C 0.44848 0.37779 0.52582 0.0
C538 C 0.40872 0.53311 0.26741 0.0
C539 C 0.45509 0.52363 0.24778 0.0
H540 H 0.38972 0.5911 0.29981 0.0
C541 C 0.52302 0.56035 0.24688 0.0
H542 H 0.35582 0.50542 0.26824 0.0
C543 C 0.54315 0.60829 0.26519 0.0
C544 C 0.49436 0.62142 0.28408 0.0
H545 H 0.55911 0.55375 0.23174 0.0
H546 H 0.59472 0.6382 0.2639 0.0
C547 C 0.42785 0.58222 0.28532 0.0
C548 C 0.3726 0.46596 0.904 0.0
C549 C 0.3555 0.44646 0.92748 0.0
H550 H 0.34428 0.45493 0.86733 0.0
C551 C 0.29052 0.40556 0.93192 0.0
H552 H 0.42102 0.49874 0.89999 0.0
C553 C 0.2452 0.38259 0.91327 0.0
C554 C 0.26442 0.39928 0.88981 0.0
H555 H 0.27583 0.38922 0.94983 0.0
H556 H 0.19838 0.34729 0.91711 0.0
C557 C 0.3276 0.44251 0.88539 0.0
C558 C 0.51258 0.51582 0.6687 0.0
C559 C 0.4458 0.50628 0.68085 0.0
H560 H 0.58321 0.47554 0.64115 0.0
C561 C 0.39692 0.4507 0.67355 0.0
H562 H 0.55068 0.55901 0.67388 0.0
C563 C 0.41529 0.40363 0.65509 0.0
C564 C 0.48318 0.4108 0.64337 0.0
H565 H 0.34417 0.44339 0.68223 0.0
H566 H 0.37648 0.36059 0.65036 0.0
C567 C 0.53128 0.468 0.65012 0.0
C568 C 0.41907 0.66181 0.42398 0.0
C569 C 0.38319 0.59306 0.42348 0.0
H570 H 0.49524 0.73438 0.40642 0.0
C571 C 0.39155 0.54637 0.40389 0.0
H572 H 0.41312 0.69814 0.4391 0.0
C573 C 0.43912 0.56611 0.38556 0.0
C574 C 0.47765 0.63345 0.38644 0.0
H575 H 0.36432 0.49288 0.40341 0.0
H576 H 0.44769 0.52772 0.3711 0.0
C577 C 0.46548 0.68242 0.40534 0.0
C578 C 0.24104 0.5226 0.16789 0.0
C579 C 0.31588 0.53368 0.17281 0.0
H580 H 0.14841 0.55332 0.14669 0.0
C581 C 0.35393 0.59042 0.16049 0.0
H582 H 0.20933 0.48141 0.17753 0.0
C583 C 0.3182 0.6332 0.14299 0.0
C584 C 0.24422 0.61935 0.13758 0.0
H585 H 0.41171 0.60046 0.16397 0.0
H586 H 0.34893 0.67453 0.13307 0.0
C587 C 0.20585 0.56464 0.15046 0.0
loop_
_geom_bond_atom_site_label_1
_geom_bond_atom_site_label_2
_geom_bond_distance
_geom_bond_site_symmetry_2
_ccdc_geom_bond_type
H0 C6 0.930 . S
H1 C9 0.931 . S
H2 C11 0.931 . S
H3 C13 0.930 . S
H4 C15 0.930 . S
H5 C17 0.931 . S
C6 H0 0.930 . S
C6 C7 1.380 1_545 S
C6 C8 1.394 . S
C7 C6 1.380 1_565 S
C7 C11 1.382 . S
C8 C6 1.394 . S
C8 C9 1.400 . S
C9 H1 0.931 . S
C9 C8 1.400 . S
C9 C10 1.375 1_545 S
C10 C9 1.375 1_565 S
C10 C11 1.415 . S
C10 C12 1.501 1_655 S
C11 H2 0.931 . S
C11 C7 1.382 . S
C11 C10 1.415 . S
C12 C10 1.501 1_455 S
C12 C13 1.384 . S
C12 C17 1.408 1_565 S
C13 H3 0.930 . S
C13 C12 1.384 . S
C13 C14 1.389 . S
C14 C13 1.389 . S
C14 C15 1.405 . S
C15 H4 0.930 . S
C15 C14 1.405 . S
C15 C16 1.364 1_565 S
C16 C15 1.364 1_545 S
C16 C17 1.400 . S
C17 H5 0.931 . S
C17 C12 1.408 1_545 S
C17 C16 1.400 . S
H18 C24 0.930 . S
H19 C27 0.931 . S
H20 C29 0.931 . S
H21 C31 0.930 . S
H22 C33 0.930 . S
H23 C35 0.931 . S
C24 H18 0.930 . S
C24 C25 1.380 . S
C24 C26 1.394 . S
C25 C24 1.380 . S
C25 C29 1.382 . S
C26 C24 1.394 . S
C26 C27 1.400 . S
C27 H19 0.931 . S
C27 C26 1.400 . S
C27 C28 1.375 . S
C28 C27 1.375 . S
C28 C29 1.415 . S
C28 C30 1.501 . S
C29 H20 0.931 . S
C29 C25 1.382 . S
C29 C28 1.415 . S
C30 C28 1.501 . S
C30 C31 1.384 . S
C30 C35 1.408 . S
C31 H21 0.930 . S
C31 C30 1.384 . S
C31 C32 1.389 . S
C32 C31 1.389 . S
C32 C33 1.405 . S
C33 H22 0.930 . S
C33 C32 1.405 . S
C33 C34 1.364 . S
C34 C33 1.364 . S
C34 C35 1.400 . S
C35 H23 0.931 . S
C35 C30 1.408 . S
C35 C34 1.400 . S
H36 C42 0.931 . S
H37 C45 0.931 . S
H38 C47 0.931 . S
H39 C49 0.930 . S
H40 C51 0.930 . S
H41 C53 0.931 . S
C42 H36 0.931 . S
C42 C43 1.381 1_564 S
C42 C44 1.394 . S
C43 C42 1.381 1_546 S
C43 C47 1.382 . S
C44 C42 1.394 . S
C44 C45 1.400 . S
C45 H37 0.931 . S
C45 C44 1.400 . S
C45 C46 1.375 1_565 S
C46 C45 1.375 1_545 S
C46 C47 1.415 1_554 S
C46 C48 1.501 . S
C47 H38 0.931 . S
C47 C43 1.382 . S
C47 C46 1.415 1_556 S
C48 C46 1.501 . S
C48 C49 1.384 1_554 S
C48 C53 1.408 1_545 S
C49 H39 0.930 . S
C49 C48 1.384 1_556 S
C49 C50 1.389 . S
C50 C49 1.389 . S
C50 C51 1.405 1_556 S
C51 H40 0.930 . S
C51 C50 1.405 1_554 S
C51 C52 1.364 1_545 S
C52 C51 1.364 1_565 S
C52 C53 1.400 . S
C53 H41 0.931 . S
C53 C48 1.408 1_565 S
C53 C52 1.400 . S
H54 C60 0.930 . S
H55 C63 0.931 . S
H56 C65 0.931 . S
H57 C67 0.930 . S
H58 C69 0.930 . S
H59 C71 0.931 . S
C60 H54 0.930 . S
C60 C61 1.380 . S
C60 C62 1.394 . S
C61 C60 1.380 . S
C61 C65 1.382 . S
C62 C60 1.394 . S
C62 C63 1.400 . S
C63 H55 0.931 . S
C63 C62 1.400 . S
C63 C64 1.375 . S
C64 C63 1.375 . S
C64 C65 1.415 . S
C64 C66 1.501 . S
C65 H56 0.931 . S
C65 C61 1.382 . S
C65 C64 1.415 . S
C66 C64 1.501 . S
C66 C67 1.384 . S
C66 C71 1.408 . S
C67 H57 0.930 . S
C67 C66 1.384 . S
C67 C68 1.389 . S
C68 C67 1.389 . S
C68 C69 1.405 . S
C69 H58 0.930 . S
C69 C68 1.405 . S
C69 C70 1.364 . S
C70 C69 1.364 . S
C70 C71 1.400 . S
C71 H59 0.931 . S
C71 C66 1.408 . S
C71 C70 1.400 . S
H72 C78 0.930 . S
H73 C81 0.931 . S
H74 C83 0.931 . S
H75 C85 0.930 . S
H76 C87 0.930 . S
H77 C89 0.931 . S
C78 H72 0.930 . S
C78 C79 1.380 . S
C78 C80 1.394 . S
C79 C78 1.380 . S
C79 C83 1.382 . S
C80 C78 1.394 . S
C80 C81 1.400 . S
C81 H73 0.931 . S
C81 C80 1.400 . S
C81 C82 1.375 . S
C82 C81 1.375 . S
C82 C83 1.415 . S
C82 C84 1.501 . S
C83 H74 0.931 . S
C83 C79 1.382 . S
C83 C82 1.415 . S
C84 C82 1.501 . S
C84 C85 1.384 . S
C84 C89 1.408 . S
C85 H75 0.930 . S
C85 C84 1.384 . S
C85 C86 1.389 . S
C86 C85 1.389 . S
C86 C87 1.405 1_545 S
C87 H76 0.930 . S
C87 C86 1.405 1_565 S
C87 C88 1.364 1_565 S
C88 C87 1.364 1_545 S
C88 C89 1.400 . S
C89 H77 0.931 . S
C89 C84 1.408 . S
C89 C88 1.400 . S
H90 C96 0.930 . S
H91 C99 0.931 . S
H92 C101 0.931 . S
H93 C103 0.930 . S
H94 C105 0.930 . S
H95 C107 0.931 . S
C96 H90 0.930 . S
C96 C97 1.380 1_545 S
C96 C98 1.394 1_545 S
C97 C96 1.380 1_565 S
C97 C101 1.382 . S
C98 C96 1.394 1_565 S
C98 C99 1.400 . S
C99 H91 0.931 . S
C99 C98 1.400 . S
C99 C100 1.375 . S
C100 C99 1.375 . S
C100 C101 1.415 . S
C100 C102 1.501 . S
C101 H92 0.931 . S
C101 C97 1.382 . S
C101 C100 1.415 . S
C102 C100 1.501 . S
C102 C103 1.384 . S
C102 C107 1.408 . S
C103 H93 0.930 . S
C103 C102 1.384 . S
C103 C104 1.389 . S
C104 C103 1.389 . S
C104 C105 1.405 . S
C105 H94 0.930 . S
C105 C104 1.405 . S
C105 C106 1.364 . S
C106 C105 1.364 . S
C106 C107 1.400 . S
C107 H95 0.931 . S
C107 C102 1.408 . S
C107 C106 1.400 . S
H108 C114 0.932 . S
H109 C117 0.931 . S
H110 C119 0.931 . S
H111 C121 0.930 . S
H112 C123 0.930 . S
H113 C125 0.931 . S
C114 H108 0.932 . S
C114 C115 1.380 . S
C114 C116 1.394 1_554 S
C115 C114 1.380 . S
C115 C119 1.382 . S
C116 C114 1.394 1_556 S
C116 C117 1.400 . S
C117 H109 0.931 . S
C117 C116 1.400 . S
C117 C118 1.375 1_556 S
C118 C117 1.375 1_554 S
C118 C119 1.415 . S
C118 C120 1.501 . S
C119 H110 0.931 . S
C119 C115 1.382 . S
C119 C118 1.415 . S
C120 C118 1.501 . S
C120 C121 1.384 . S
C120 C125 1.408 1_554 S
C121 H111 0.930 . S
C121 C120 1.384 . S
C121 C122 1.389 . S
C122 C121 1.389 . S
C122 C123 1.405 . S
C123 H112 0.930 . S
C123 C122 1.405 . S
C123 C124 1.364 1_554 S
C124 C123 1.364 1_556 S
C124 C125 1.400 . S
C125 H113 0.931 . S
C125 C120 1.408 1_556 S
C125 C124 1.400 . S
H126 C132 0.930 . S
H127 C135 0.931 . S
H128 C137 0.931 . S
H129 C139 0.930 . S
H130 C141 0.928 . S
H131 C143 0.931 . S
C132 H126 0.930 . S
C132 C133 1.380 . S
C132 C134 1.394 . S
C133 C132 1.380 . S
C133 C137 1.382 . S
C134 C132 1.394 . S
C134 C135 1.400 . S
C135 H127 0.931 . S
C135 C134 1.400 . S
C135 C136 1.375 . S
C136 C135 1.375 . S
C136 C137 1.415 . S
C136 C138 1.501 . S
C137 H128 0.931 . S
C137 C133 1.382 . S
C137 C136 1.415 . S
C138 C136 1.501 . S
C138 C139 1.384 . S
C138 C143 1.408 . S
C139 H129 0.930 . S
C139 C138 1.384 . S
C139 C140 1.389 . S
C140 C139 1.389 . S
C140 C141 1.406 1_455 S
C141 H130 0.928 . S
C141 C140 1.406 1_655 S
C141 C142 1.365 1_655 S
C142 C141 1.365 1_455 S
C142 C143 1.400 . S
C143 H131 0.931 . S
C143 C138 1.408 . S
C143 C142 1.400 . S
C144 O171 1.312 . S
C144 O172 1.208 . S
C145 O166 1.331 1_655 S
C145 O169 1.244 . S
C146 O168 1.264 1_655 S
C146 O170 1.273 . S
Mg147 O149 1.936 . S
Mg147 O156 2.081 . S
Mg147 O158 2.023 . S
Mg147 O162 2.031 . S
Mg147 O171 2.291 . S
Mg148 O149 1.963 . S
Mg148 O159 1.942 . S
Mg148 O160 1.955 . S
Mg148 O167 1.986 . S
O149 Mg147 1.936 . S
O149 Mg148 1.963 . S
O149 Mg150 1.915 . S
Mg150 O149 1.915 . S
Mg150 O151 1.915 . S
Mg150 O155 2.013 . S
Mg150 O161 2.114 . S
Mg150 O165 2.013 . S
Mg150 O171 2.114 . S
O151 Mg150 1.915 . S
O151 Mg152 1.936 . S
O151 Mg153 1.963 1_455 S
Mg152 O151 1.936 . S
Mg152 O161 2.291 . S
Mg152 O166 2.081 . S
Mg152 O168 2.023 . S
Mg152 O172 2.031 . S
Mg153 O151 1.963 1_655 S
Mg153 O157 1.986 . S
Mg153 O169 1.942 . S
Mg153 O170 1.955 . S
C154 O165 1.191 . S
C154 O167 1.307 . S
O155 Mg150 2.013 . S
O155 C174 1.191 . S
O156 Mg147 2.081 . S
O156 C164 1.331 . S
O157 Mg153 1.986 . S
O157 C174 1.307 1_655 S
O158 Mg147 2.023 . S
O158 C173 1.264 . S
O159 Mg148 1.942 . S
O159 C164 1.244 . S
O160 Mg148 1.955 . S
O160 C173 1.273 . S
O161 Mg150 2.114 . S
O161 Mg152 2.291 . S
O161 C163 1.312 . S
O162 Mg147 2.031 . S
O162 C163 1.208 . S
C163 O161 1.312 . S
C163 O162 1.208 . S
C164 O156 1.331 . S
C164 O159 1.244 . S
O165 Mg150 2.013 . S
O165 C154 1.191 . S
O166 C145 1.331 1_455 S
O166 Mg152 2.081 . S
O167 Mg148 1.986 . S
O167 C154 1.307 . S
O168 C146 1.264 1_455 S
O168 Mg152 2.023 . S
O169 C145 1.244 . S
O169 Mg153 1.942 . S
O170 C146 1.273 . S
O170 Mg153 1.955 . S
O171 C144 1.312 . S
O171 Mg147 2.291 . S
O171 Mg150 2.114 . S
O172 C144 1.208 . S
O172 Mg152 2.031 . S
C173 O158 1.264 . S
C173 O160 1.273 . S
C174 O155 1.191 . S
C174 O157 1.307 1_455 S
C175 O202 1.312 . S
C175 O203 1.208 . S
C176 O197 1.331 . S
C176 O200 1.244 . S
C177 O199 1.264 . S
C177 O201 1.273 . S
Mg178 O180 1.936 . S
Mg178 O187 2.081 . S
Mg178 O189 2.023 . S
Mg178 O193 2.031 . S
Mg178 O202 2.291 . S
Mg179 O180 1.963 . S
Mg179 O190 1.942 . S
Mg179 O191 1.955 . S
Mg179 O198 1.986 . S
O180 Mg178 1.936 . S
O180 Mg179 1.963 . S
O180 Mg181 1.915 . S
Mg181 O180 1.915 . S
Mg181 O182 1.915 . S
Mg181 O186 2.013 . S
Mg181 O192 2.114 . S
Mg181 O196 2.013 . S
Mg181 O202 2.114 . S
O182 Mg181 1.915 . S
O182 Mg183 1.936 . S
O182 Mg184 1.963 . S
Mg183 O182 1.936 . S
Mg183 O192 2.291 . S
Mg183 O197 2.081 . S
Mg183 O199 2.023 . S
Mg183 O203 2.031 . S
Mg184 O182 1.963 . S
Mg184 O188 1.986 . S
Mg184 O200 1.942 . S
Mg184 O201 1.955 . S
C185 O196 1.191 . S
C185 O198 1.307 . S
O186 Mg181 2.013 . S
O186 C205 1.191 . S
O187 Mg178 2.081 . S
O187 C195 1.331 . S
O188 Mg184 1.986 . S
O188 C205 1.307 . S
O189 Mg178 2.023 . S
O189 C204 1.264 . S
O190 Mg179 1.942 . S
O190 C195 1.244 . S
O191 Mg179 1.955 . S
O191 C204 1.273 . S
O192 Mg181 2.114 . S
O192 Mg183 2.291 . S
O192 C194 1.312 . S
O193 Mg178 2.031 . S
O193 C194 1.208 . S
C194 O192 1.312 . S
C194 O193 1.208 . S
C195 O187 1.331 . S
C195 O190 1.244 . S
O196 Mg181 2.013 . S
O196 C185 1.191 . S
O197 C176 1.331 . S
O197 Mg183 2.081 . S
O198 Mg179 1.986 . S
O198 C185 1.307 . S
O199 C177 1.264 . S
O199 Mg183 2.023 . S
O200 C176 1.244 . S
O200 Mg184 1.942 . S
O201 C177 1.273 . S
O201 Mg184 1.955 . S
O202 C175 1.312 . S
O202 Mg178 2.291 . S
O202 Mg181 2.114 . S
O203 C175 1.208 . S
O203 Mg183 2.031 . S
C204 O189 1.264 . S
C204 O191 1.273 . S
C205 O186 1.191 . S
C205 O188 1.307 . S
C206 O233 1.312 . S
C206 O234 1.208 . S
C207 O228 1.331 . S
C207 O231 1.244 . S
C208 O230 1.264 . S
C208 O232 1.273 . S
Mg209 O211 1.936 . S
Mg209 O218 2.081 . S
Mg209 O220 2.023 . S
Mg209 O224 2.031 . S
Mg209 O233 2.291 . S
Mg210 O211 1.963 . S
Mg210 O221 1.942 . S
Mg210 O222 1.955 . S
Mg210 O229 1.986 . S
O211 Mg209 1.936 . S
O211 Mg210 1.963 . S
O211 Mg212 1.915 . S
Mg212 O211 1.915 . S
Mg212 O213 1.915 . S
Mg212 O217 2.013 . S
Mg212 O223 2.114 . S
Mg212 O227 2.013 . S
Mg212 O233 2.114 . S
O213 Mg212 1.915 . S
O213 Mg214 1.936 . S
O213 Mg215 1.963 . S
Mg214 O213 1.936 . S
Mg214 O223 2.291 . S
Mg214 O228 2.081 . S
Mg214 O230 2.023 . S
Mg214 O234 2.031 . S
Mg215 O213 1.963 . S
Mg215 O219 1.986 . S
Mg215 O231 1.942 . S
Mg215 O232 1.955 . S
C216 O227 1.191 . S
C216 O229 1.307 . S
O217 Mg212 2.013 . S
O217 C236 1.191 . S
O218 Mg209 2.081 . S
O218 C226 1.331 . S
O219 Mg215 1.986 . S
O219 C236 1.307 . S
O220 Mg209 2.023 . S
O220 C235 1.264 . S
O221 Mg210 1.942 . S
O221 C226 1.244 . S
O222 Mg210 1.955 . S
O222 C235 1.273 . S
O223 Mg212 2.114 . S
O223 Mg214 2.291 . S
O223 C225 1.312 . S
O224 Mg209 2.031 . S
O224 C225 1.208 . S
C225 O223 1.312 . S
C225 O224 1.208 . S
C226 O218 1.331 . S
C226 O221 1.244 . S
O227 Mg212 2.013 . S
O227 C216 1.191 . S
O228 C207 1.331 . S
O228 Mg214 2.081 . S
O229 Mg210 1.986 . S
O229 C216 1.307 . S
O230 C208 1.264 . S
O230 Mg214 2.023 . S
O231 C207 1.244 . S
O231 Mg215 1.942 . S
O232 C208 1.273 . S
O232 Mg215 1.955 . S
O233 C206 1.312 . S
O233 Mg209 2.291 . S
O233 Mg212 2.114 . S
O234 C206 1.208 . S
O234 Mg214 2.031 . S
C235 O220 1.264 . S
C235 O222 1.273 . S
C236 O217 1.191 . S
C236 O219 1.307 . S
C237 O264 1.312 . S
C237 O265 1.208 . S
C238 O259 1.331 . S
C238 O262 1.244 . S
C239 O261 1.264 . S
C239 O263 1.273 . S
Mg240 O242 1.936 . S
Mg240 O249 2.081 . S
Mg240 O251 2.023 . S
Mg240 O255 2.031 . S
Mg240 O264 2.291 . S
Mg241 O242 1.963 1_655 S
Mg241 O252 1.942 . S
Mg241 O253 1.955 . S
Mg241 O260 1.986 . S
O242 Mg240 1.936 . S
O242 Mg241 1.963 1_455 S
O242 Mg243 1.915 . S
Mg243 O242 1.915 . S
Mg243 O244 1.915 . S
Mg243 O248 2.013 . S
Mg243 O254 2.114 . S
Mg243 O258 2.013 . S
Mg243 O264 2.114 . S
O244 Mg243 1.915 . S
O244 Mg245 1.936 . S
O244 Mg246 1.963 . S
Mg245 O244 1.936 . S
Mg245 O254 2.291 . S
Mg245 O259 2.081 . S
Mg245 O261 2.023 . S
Mg245 O265 2.031 . S
Mg246 O244 1.963 . S
Mg246 O250 1.986 . S
Mg246 O262 1.942 . S
Mg246 O263 1.955 . S
C247 O258 1.191 . S
C247 O260 1.307 1_455 S
O248 Mg243 2.013 . S
O248 C267 1.191 . S
O249 Mg240 2.081 . S
O249 C257 1.331 1_455 S
O250 Mg246 1.986 . S
O250 C267 1.307 . S
O251 Mg240 2.023 . S
O251 C266 1.264 1_455 S
O252 Mg241 1.942 . S
O252 C257 1.244 . S
O253 Mg241 1.955 . S
O253 C266 1.273 . S
O254 Mg243 2.114 . S
O254 Mg245 2.291 . S
O254 C256 1.312 . S
O255 Mg240 2.031 . S
O255 C256 1.208 . S
C256 O254 1.312 . S
C256 O255 1.208 . S
C257 O249 1.331 1_655 S
C257 O252 1.244 . S
O258 Mg243 2.013 . S
O258 C247 1.191 . S
O259 C238 1.331 . S
O259 Mg245 2.081 . S
O260 Mg241 1.986 . S
O260 C247 1.307 1_655 S
O261 C239 1.264 . S
O261 Mg245 2.023 . S
O262 C238 1.244 . S
O262 Mg246 1.942 . S
O263 C239 1.273 . S
O263 Mg246 1.955 . S
O264 C237 1.312 . S
O264 Mg240 2.291 . S
O264 Mg243 2.114 . S
O265 C237 1.208 . S
O265 Mg245 2.031 . S
C266 O251 1.264 1_655 S
C266 O253 1.273 . S
C267 O248 1.191 . S
C267 O250 1.307 . S
C268 C269 1.387 . S
C268 H272 0.950 1_565 S
C268 C277 1.390 . S
C269 C268 1.387 . S
C269 C271 1.387 . S
H270 C277 0.950 1_545 S
C271 C269 1.387 . S
C271 C273 1.390 . S
C271 H275 0.950 . S
H272 C268 0.950 1_545 S
C273 C271 1.390 . S
C273 C274 1.387 . S
C273 H276 0.950 . S
C274 C273 1.387 . S
C274 C277 1.387 . S
H275 C271 0.950 . S
H276 C273 0.950 . S
C277 C268 1.390 . S
C277 H270 0.950 1_565 S
C277 C274 1.387 . S
C278 C279 1.387 . S
C278 H282 0.950 . S
C278 C287 1.390 . S
C279 C278 1.387 . S
C279 C281 1.387 . S
H280 C287 0.950 1_545 S
C281 C279 1.387 . S
C281 C283 1.390 . S
C281 H285 0.950 . S
H282 C278 0.950 . S
C283 C281 1.390 . S
C283 C284 1.387 1_565 S
C283 H286 0.950 . S
C284 C283 1.387 1_545 S
C284 C287 1.388 1_545 S
H285 C281 0.950 . S
H286 C283 0.950 . S
C287 C278 1.390 . S
C287 H280 0.950 1_565 S
C287 C284 1.388 1_565 S
C288 C289 1.387 . S
C288 H292 0.950 . S
C288 C297 1.390 . S
C289 C288 1.387 . S
C289 C291 1.387 . S
H290 C297 0.950 . S
C291 C289 1.387 . S
C291 C293 1.390 . S
C291 H295 0.950 1_545 S
H292 C288 0.950 . S
C293 C291 1.390 . S
C293 C294 1.387 . S
C293 H296 0.950 1_545 S
C294 C293 1.387 . S
C294 C297 1.387 . S
H295 C291 0.950 1_565 S
H296 C293 0.950 1_565 S
C297 C288 1.390 . S
C297 H290 0.950 . S
C297 C294 1.387 . S
C298 C299 1.387 . S
C298 H302 0.950 . S
C298 C307 1.390 . S
C299 C298 1.387 . S
C299 C301 1.387 . S
H300 C307 0.950 1_565 S
C301 C299 1.387 . S
C301 C303 1.390 . S
C301 H305 0.950 . S
H302 C298 0.950 . S
C303 C301 1.390 . S
C303 C304 1.387 1_545 S
C303 H306 0.950 1_545 S
C304 C303 1.387 1_565 S
C304 C307 1.387 1_565 S
H305 C301 0.950 . S
H306 C303 0.950 1_565 S
C307 C298 1.390 . S
C307 H300 0.950 1_545 S
C307 C304 1.387 1_545 S
C308 C309 1.387 . S
C308 H312 0.950 1_545 S
C308 C317 1.390 . S
C309 C308 1.387 . S
C309 C311 1.387 . S
H310 C317 0.950 1_565 S
C311 C309 1.387 . S
C311 C313 1.390 . S
C311 H315 0.950 . S
H312 C308 0.950 1_565 S
C313 C311 1.390 . S
C313 C314 1.387 . S
C313 H316 0.950 . S
C314 C313 1.387 . S
C314 C317 1.387 . S
H315 C311 0.950 . S
H316 C313 0.950 . S
C317 C308 1.390 . S
C317 H310 0.950 1_545 S
C317 C314 1.387 . S
C318 C319 1.387 . S
C318 H322 0.950 . S
C318 C327 1.390 . S
C319 C318 1.387 . S
C319 C321 1.387 . S
H320 C327 0.950 . S
C321 C319 1.387 . S
C321 C323 1.390 1_565 S
C321 H325 0.950 . S
H322 C318 0.950 . S
C323 C321 1.390 1_545 S
C323 C324 1.387 . S
C323 H326 0.950 . S
C324 C323 1.387 . S
C324 C327 1.387 1_545 S
H325 C321 0.950 . S
H326 C323 0.950 . S
C327 C318 1.390 . S
C327 H320 0.950 . S
C327 C324 1.387 1_565 S
C328 C329 1.387 . S
C328 H332 0.950 . S
C328 C337 1.390 . S
C329 C328 1.387 . S
C329 C331 1.387 . S
H330 C337 0.950 . S
C331 C329 1.387 . S
C331 C333 1.390 . S
C331 H335 0.950 1_565 S
H332 C328 0.950 . S
C333 C331 1.390 . S
C333 C334 1.387 . S
C333 H336 0.950 1_565 S
C334 C333 1.387 . S
C334 C337 1.387 . S
H335 C331 0.950 1_545 S
H336 C333 0.950 1_545 S
C337 C328 1.390 . S
C337 H330 0.950 . S
C337 C334 1.387 . S
C338 C339 1.387 . S
C338 H342 0.950 . S
C338 C347 1.390 1_545 S
C339 C338 1.387 . S
C339 C341 1.387 . S
H340 C347 0.950 . S
C341 C339 1.387 . S
C341 C343 1.390 . S
C341 H345 0.950 . S
H342 C338 0.950 . S
C343 C341 1.390 . S
C343 C344 1.387 1_545 S
C343 H346 0.950 . S
C344 C343 1.387 1_565 S
C344 C347 1.387 . S
H345 C341 0.950 . S
H346 C343 0.950 . S
C347 C338 1.390 1_565 S
C347 H340 0.950 . S
C347 C344 1.387 . S
C348 C349 1.387 . S
C348 H352 0.950 . S
C348 C357 1.390 . S
C349 C348 1.387 . S
C349 C351 1.387 . S
H350 C357 0.950 . S
C351 C349 1.387 . S
C351 C353 1.390 . S
C351 H355 0.950 . S
H352 C348 0.950 . S
C353 C351 1.390 . S
C353 C354 1.387 . S
C353 H356 0.950 . S
C354 C353 1.387 . S
C354 C357 1.387 . S
H355 C351 0.950 . S
H356 C353 0.950 . S
C357 C348 1.390 . S
C357 H350 0.950 . S
C357 C354 1.387 . S
C358 C359 1.387 . S
C358 H362 0.950 . S
C358 C367 1.390 . S
C359 C358 1.387 . S
C359 C361 1.387 . S
H360 C367 0.950 . S
C361 C359 1.387 . S
C361 C363 1.390 . S
C361 H365 0.950 . S
H362 C358 0.950 . S
C363 C361 1.390 . S
C363 C364 1.387 . S
C363 H366 0.950 . S
C364 C363 1.387 . S
C364 C367 1.387 . S
H365 C361 0.950 . S
H366 C363 0.950 . S
C367 C358 1.390 . S
C367 H360 0.950 . S
C367 C364 1.387 . S
C368 C369 1.387 . S
C368 H372 0.950 . S
C368 C377 1.390 . S
C369 C368 1.387 . S
C369 C371 1.387 . S
H370 C377 0.950 . S
C371 C369 1.387 . S
C371 C373 1.390 . S
C371 H375 0.950 1_565 S
H372 C368 0.950 . S
C373 C371 1.390 . S
C373 C374 1.387 . S
C373 H376 0.950 . S
C374 C373 1.387 . S
C374 C377 1.387 . S
H375 C371 0.950 1_545 S
H376 C373 0.950 . S
C377 C368 1.390 . S
C377 H370 0.950 . S
C377 C374 1.387 . S
C378 C379 1.387 . S
C378 H382 0.950 1_545 S
C378 C387 1.390 . S
C379 C378 1.387 . S
C379 C381 1.387 . S
H380 C387 0.950 . S
C381 C379 1.387 . S
C381 C383 1.390 . S
C381 H385 0.950 . S
H382 C378 0.950 1_565 S
C383 C381 1.390 . S
C383 C384 1.387 . S
C383 H386 0.950 . S
C384 C383 1.387 . S
C384 C387 1.387 . S
H385 C381 0.950 . S
H386 C383 0.950 . S
C387 C378 1.390 . S
C387 H380 0.950 . S
C387 C384 1.387 . S
C388 C389 1.387 . S
C388 H392 0.950 . S
C388 C397 1.390 . S
C389 C388 1.387 . S
C389 C391 1.387 . S
H390 C397 0.950 . S
C391 C389 1.387 . S
C391 C393 1.390 . S
C391 H395 0.950 . S
H392 C388 0.950 . S
C393 C391 1.390 . S
C393 C394 1.387 . S
C393 H396 0.950 . S
C394 C393 1.387 . S
C394 C397 1.387 . S
H395 C391 0.950 . S
H396 C393 0.950 . S
C397 C388 1.390 . S
C397 H390 0.950 . S
C397 C394 1.387 . S
C398 C399 1.387 . S
C398 H402 0.950 1_565 S
C398 C407 1.390 . S
C399 C398 1.387 . S
C399 C401 1.387 . S
H400 C407 0.950 . S
C401 C399 1.387 . S
C401 C403 1.390 . S
C401 H405 0.950 . S
H402 C398 0.950 1_545 S
C403 C401 1.390 . S
C403 C404 1.387 . S
C403 H406 0.950 . S
C404 C403 1.387 . S
C404 C407 1.387 . S
H405 C401 0.950 . S
H406 C403 0.950 . S
C407 C398 1.390 . S
C407 H400 0.950 . S
C407 C404 1.387 . S
C408 C409 1.387 . S
C408 H412 0.950 . S
C408 C417 1.390 . S
C409 C408 1.387 . S
C409 C411 1.387 . S
H410 C417 0.950 . S
C411 C409 1.387 . S
C411 C413 1.390 . S
C411 H415 0.950 . S
H412 C408 0.950 . S
C413 C411 1.390 . S
C413 C414 1.387 . S
C413 H416 0.950 1_655 S
C414 C413 1.387 . S
C414 C417 1.387 . S
H415 C411 0.950 . S
H416 C413 0.950 1_455 S
C417 C408 1.390 . S
C417 H410 0.950 . S
C417 C414 1.387 . S
C418 C419 1.387 . S
C418 H422 0.950 1_545 S
C418 C427 1.390 . S
C419 C418 1.387 . S
C419 C421 1.387 . S
H420 C427 0.950 . S
C421 C419 1.387 . S
C421 C423 1.390 . S
C421 H425 0.950 . S
H422 C418 0.950 1_565 S
C423 C421 1.390 . S
C423 C424 1.387 . S
C423 H426 0.950 . S
C424 C423 1.387 . S
C424 C427 1.387 . S
H425 C421 0.950 . S
H426 C423 0.950 . S
C427 C418 1.390 . S
C427 H420 0.950 . S
C427 C424 1.387 . S
C428 C429 1.387 . S
C428 H432 0.950 . S
C428 C437 1.390 . S
C429 C428 1.387 . S
C429 C431 1.387 . S
H430 C437 0.950 . S
C431 C429 1.387 . S
C431 C433 1.390 . S
C431 H435 0.950 . S
H432 C428 0.950 . S
C433 C431 1.390 . S
C433 C434 1.387 . S
C433 H436 0.950 . S
C434 C433 1.387 . S
C434 C437 1.387 . S
H435 C431 0.950 . S
H436 C433 0.950 . S
C437 C428 1.390 . S
C437 H430 0.950 . S
C437 C434 1.387 . S
C438 C439 1.387 . S
C438 H442 0.950 . S
C438 C447 1.390 . S
C439 C438 1.387 . S
C439 C441 1.387 . S
H440 C447 0.950 . S
C441 C439 1.387 . S
C441 C443 1.390 . S
C441 H445 0.950 . S
H442 C438 0.950 . S
C443 C441 1.390 . S
C443 C444 1.387 . S
C443 H446 0.950 . S
C444 C443 1.387 . S
C444 C447 1.387 . S
H445 C441 0.950 . S
H446 C443 0.950 . S
C447 C438 1.390 . S
C447 H440 0.950 . S
C447 C444 1.387 . S
C448 C449 1.387 . S
C448 H452 0.950 . S
C448 C457 1.390 . S
C449 C448 1.387 . S
C449 C451 1.387 . S
H450 C457 0.950 . S
C451 C449 1.387 . S
C451 C453 1.390 . S
C451 H455 0.950 . S
H452 C448 0.950 . S
C453 C451 1.390 . S
C453 C454 1.387 . S
C453 H456 0.950 . S
C454 C453 1.387 . S
C454 C457 1.387 . S
H455 C451 0.950 . S
H456 C453 0.950 . S
C457 C448 1.390 . S
C457 H450 0.950 . S
C457 C454 1.387 . S
C458 C459 1.387 . S
C458 H462 0.950 . S
C458 C467 1.390 . S
C459 C458 1.387 . S
C459 C461 1.387 . S
H460 C467 0.950 . S
C461 C459 1.387 . S
C461 C463 1.390 . S
C461 H465 0.950 . S
H462 C458 0.950 . S
C463 C461 1.390 . S
C463 C464 1.387 . S
C463 H466 0.950 . S
C464 C463 1.387 . S
C464 C467 1.387 . S
H465 C461 0.950 . S
H466 C463 0.950 . S
C467 C458 1.390 . S
C467 H460 0.950 . S
C467 C464 1.387 . S
C468 C469 1.387 . S
C468 H472 0.950 . S
C468 C477 1.390 . S
C469 C468 1.387 . S
C469 C471 1.387 . S
H470 C477 0.950 . S
C471 C469 1.387 . S
C471 C473 1.390 . S
C471 H475 0.950 . S
H472 C468 0.950 . S
C473 C471 1.390 . S
C473 C474 1.387 . S
C473 H476 0.950 . S
C474 C473 1.387 . S
C474 C477 1.387 . S
H475 C471 0.950 . S
H476 C473 0.950 . S
C477 C468 1.390 . S
C477 H470 0.950 . S
C477 C474 1.387 . S
C478 C479 1.387 . S
C478 H482 0.950 . S
C478 C487 1.390 . S
C479 C478 1.387 . S
C479 C481 1.387 . S
H480 C487 0.950 . S
C481 C479 1.387 . S
C481 C483 1.390 . S
C481 H485 0.950 . S
H482 C478 0.950 . S
C483 C481 1.390 . S
C483 C484 1.387 . S
C483 H486 0.950 . S
C484 C483 1.387 . S
C484 C487 1.387 . S
H485 C481 0.950 . S
H486 C483 0.950 . S
C487 C478 1.390 . S
C487 H480 0.950 . S
C487 C484 1.387 . S
C488 C489 1.387 . S
C488 H492 0.950 . S
C488 C497 1.390 . S
C489 C488 1.387 . S
C489 C491 1.387 . S
H490 C497 0.950 . S
C491 C489 1.387 . S
C491 C493 1.390 . S
C491 H495 0.950 . S
H492 C488 0.950 . S
C493 C491 1.390 . S
C493 C494 1.387 . S
C493 H496 0.950 . S
C494 C493 1.387 . S
C494 C497 1.387 . S
H495 C491 0.950 . S
H496 C493 0.950 . S
C497 C488 1.390 . S
C497 H490 0.950 . S
C497 C494 1.387 . S
C498 C499 1.387 . S
C498 H502 0.950 . S
C498 C507 1.390 . S
C499 C498 1.387 . S
C499 C501 1.387 . S
H500 C507 0.950 1_455 S
C501 C499 1.387 . S
C501 C503 1.390 . S
C501 H505 0.950 . S
H502 C498 0.950 . S
C503 C501 1.390 . S
C503 C504 1.387 . S
C503 H506 0.950 . S
C504 C503 1.387 . S
C504 C507 1.387 . S
H505 C501 0.950 . S
H506 C503 0.950 . S
C507 C498 1.390 . S
C507 H500 0.950 1_655 S
C507 C504 1.387 . S
C508 C509 1.387 . S
C508 H512 0.950 . S
C508 C517 1.390 . S
C509 C508 1.387 . S
C509 C511 1.387 . S
H510 C517 0.950 . S
C511 C509 1.387 . S
C511 C513 1.390 . S
C511 H515 0.950 . S
H512 C508 0.950 . S
C513 C511 1.390 . S
C513 C514 1.387 . S
C513 H516 0.950 . S
C514 C513 1.387 . S
C514 C517 1.387 . S
H515 C511 0.950 . S
H516 C513 0.950 . S
C517 C508 1.390 . S
C517 H510 0.950 . S
C517 C514 1.387 . S
C518 C519 1.387 . S
C518 H522 0.950 . S
C518 C527 1.390 . S
C519 C518 1.387 . S
C519 C521 1.387 . S
H520 C527 0.950 . S
C521 C519 1.387 . S
C521 C523 1.390 . S
C521 H525 0.950 . S
H522 C518 0.950 . S
C523 C521 1.390 . S
C523 C524 1.387 . S
C523 H526 0.950 . S
C524 C523 1.387 . S
C524 C527 1.387 . S
H525 C521 0.950 . S
H526 C523 0.950 . S
C527 C518 1.390 . S
C527 H520 0.950 . S
C527 C524 1.387 . S
C528 C529 1.387 . S
C528 H532 0.950 . S
C528 C537 1.390 . S
C529 C528 1.387 . S
C529 C531 1.387 . S
H530 C537 0.950 . S
C531 C529 1.387 . S
C531 C533 1.390 . S
C531 H535 0.950 . S
H532 C528 0.950 . S
C533 C531 1.390 . S
C533 C534 1.387 . S
C533 H536 0.950 . S
C534 C533 1.387 . S
C534 C537 1.387 . S
H535 C531 0.950 . S
H536 C533 0.950 . S
C537 C528 1.390 . S
C537 H530 0.950 . S
C537 C534 1.387 . S
C538 C539 1.387 . S
C538 H542 0.950 . S
C538 C547 1.390 . S
C539 C538 1.387 . S
C539 C541 1.387 . S
H540 C547 0.950 . S
C541 C539 1.387 . S
C541 C543 1.390 . S
C541 H545 0.950 . S
H542 C538 0.950 . S
C543 C541 1.390 . S
C543 C544 1.387 . S
C543 H546 0.950 . S
C544 C543 1.387 . S
C544 C547 1.387 . S
H545 C541 0.950 . S
H546 C543 0.950 . S
C547 C538 1.390 . S
C547 H540 0.950 . S
C547 C544 1.387 . S
C548 C549 1.387 . S
C548 H552 0.950 . S
C548 C557 1.390 . S
C549 C548 1.387 . S
C549 C551 1.387 . S
H550 C557 0.950 . S
C551 C549 1.387 . S
C551 C553 1.390 . S
C551 H555 0.950 . S
H552 C548 0.950 . S
C553 C551 1.390 . S
C553 C554 1.387 . S
C553 H556 0.950 . S
C554 C553 1.387 . S
C554 C557 1.387 . S
H555 C551 0.950 . S
H556 C553 0.950 . S
C557 C548 1.390 . S
C557 H550 0.950 . S
C557 C554 1.387 . S
C558 C559 1.387 . S
C558 H562 0.950 . S
C558 C567 1.390 . S
C559 C558 1.387 . S
C559 C561 1.387 . S
H560 C567 0.950 . S
C561 C559 1.387 . S
C561 C563 1.390 . S
C561 H565 0.950 . S
H562 C558 0.950 . S
C563 C561 1.390 . S
C563 C564 1.387 . S
C563 H566 0.950 . S
C564 C563 1.387 . S
C564 C567 1.387 . S
H565 C561 0.950 . S
H566 C563 0.950 . S
C567 C558 1.390 . S
C567 H560 0.950 . S
C567 C564 1.387 . S
C568 C569 1.387 . S
C568 H572 0.950 . S
C568 C577 1.390 . S
C569 C568 1.387 . S
C569 C571 1.387 . S
H570 C577 0.950 . S
C571 C569 1.387 . S
C571 C573 1.390 . S
C571 H575 0.950 . S
H572 C568 0.950 . S
C573 C571 1.390 . S
C573 C574 1.387 . S
C573 H576 0.950 . S
C574 C573 1.387 . S
C574 C577 1.387 . S
H575 C571 0.950 . S
H576 C573 0.950 . S
C577 C568 1.390 . S
C577 H570 0.950 . S
C577 C574 1.387 . S
C578 C579 1.387 . S
C578 H582 0.950 . S
C578 C587 1.390 . S
C579 C578 1.387 . S
C579 C581 1.387 . S
H580 C587 0.950 . S
C581 C579 1.387 . S
C581 C583 1.390 . S
C581 H585 0.950 . S
H582 C578 0.950 . S
C583 C581 1.390 . S
C583 C584 1.387 . S
C583 H586 0.950 . S
C584 C583 1.387 . S
C584 C587 1.387 . S
H585 C581 0.950 . S
H586 C583 0.950 . S
C587 C578 1.390 . S
C587 H580 0.950 . S
C587 C584 1.387 . S
C274 C204 1.749 . S
C269 C14 1.759 . S
C279 C25 1.667 . S
C284 C207 1.694 . S
C289 C50 1.662 . S
C294 C238 1.677 . S
C304 C173 1.729 . S
C299 C68 1.738 . S
C314 C208 1.750 . S
C309 C16 1.741 . S
C324 C239 1.727 . S
C319 C26 1.735 . S
C334 C164 1.678 . S
C329 C52 1.645 . S
C344 C195 1.695 . S
C339 C70 1.662 . S
C349 C8 1.474 . S
C354 C225 1.381 . S
C359 C88 1.453 1_565 S
C364 C194 1.368 . S
C369 C44 1.387 . S
C374 C154 1.363 1_655 S
C384 C247 1.384 1_655 S
C379 C98 1.406 1_545 S
C394 C175 1.385 . S
C389 C7 1.476 . S
C399 C86 1.414 1_565 S
C404 C174 1.392 1_655 S
C409 C43 1.389 . S
C414 C267 1.371 1_655 S
C424 C206 1.367 . S
C419 C97 1.458 1_545 S
C429 C116 1.750 . S
C434 C266 1.741 . S
C439 C79 1.670 . S
C444 C145 1.696 . S
C449 C140 1.665 1_655 S
C454 C176 1.680 . S
C459 C104 1.739 . S
C464 C235 1.730 . S
C474 C146 1.752 . S
C469 C115 1.749 . S
C479 C80 1.734 . S
C484 C177 1.725 . S
C489 C142 1.646 1_655 S
C494 C226 1.680 . S
C504 C257 1.693 . S
C499 C106 1.661 . S
C509 C122 1.478 . S
C514 C163 1.383 . S
C519 C34 1.454 . S
C524 C256 1.368 . S
C529 C134 1.387 . S
C534 C216 1.362 . S
C544 C185 1.382 . S
C539 C62 1.406 . S
C554 C237 1.385 . S
C549 C124 1.474 . S
C564 C236 1.392 . S
C559 C32 1.415 . S
C574 C205 1.370 . S
C569 C133 1.390 . S
C584 C144 1.369 . S
C579 C61 1.458 . S
