# Generated by pormake.
# Topology rtl, (3,6)-cn, num edge types: 1
# Building blocks:
#     Node 0, Type 0, BuildingBlock: BETDIP_clean_linker_0, # of connection points: 3
#     Node 1, Type 0, BuildingBlock: BETDIP_clean_linker_0, # of connection points: 3
#     Node 2, Type 0, BuildingBlock: BETDIP_clean_linker_0, # of connection points: 3
#     Node 3, Type 0, BuildingBlock: BETDIP_clean_linker_0, # of connection points: 3
#     Node 4, Type 1, BuildingBlock: VOLQOD_clean_sbu_1, # of connection points: 6
#     Node 5, Type 1, BuildingBlock: VOLQOD_clean_sbu_1, # of connection points: 6
#     Edge 6, Type (0, 1), BuildingBlock: XUDNAN_clean_linker_2, # of connection points: 2
#     Edge 7, Type (0, 1), BuildingBlock: XUDNAN_clean_linker_2, # of connection points: 2
#     Edge 8, Type (0, 1), BuildingBlock: XUDNAN_clean_linker_2, # of connection points: 2
#     Edge 9, Type (0, 1), BuildingBlock: XUDNAN_clean_linker_2, # of connection points: 2
#     Edge 10, Type (0, 1), BuildingBlock: XUDNAN_clean_linker_2, # of connection points: 2
#     Edge 11, Type (0, 1), BuildingBlock: XUDNAN_clean_linker_2, # of connection points: 2
#     Edge 12, Type (0, 1), BuildingBlock: XUDNAN_clean_linker_2, # of connection points: 2
#     Edge 13, Type (0, 1), BuildingBlock: XUDNAN_clean_linker_2, # of connection points: 2
#     Edge 14, Type (0, 1), BuildingBlock: XUDNAN_clean_linker_2, # of connection points: 2
#     Edge 15, Type (0, 1), BuildingBlock: XUDNAN_clean_linker_2, # of connection points: 2
#     Edge 16, Type (0, 1), BuildingBlock: XUDNAN_clean_linker_2, # of connection points: 2
#     Edge 17, Type (0, 1), BuildingBlock: XUDNAN_clean_linker_2, # of connection points: 2
# Relax obj value: 0.041
# Max RMSD: 0.143
# Mean RMSD: 0.095
data_MOF--net-rtl--node1-VOLQOD_clean_sbu_1--node2-BETDIP_clean_linker_0--edge1-XUDNAN_clean_linker_2
_symmetry_space_group_name_H-M    P1
_symmetry_Int_Tables_number       1
_symmetry_cell_setting            triclinic
loop_
_symmetry_equiv_pos_as_xyz
'x, y, z'
_cell_length_a     37.627034
_cell_length_b     38.04973
_cell_length_c     21.8949
_cell_angle_alpha  91.501774
_cell_angle_beta   91.346228
_cell_angle_gamma 90.618217
loop_
_atom_site_label
_atom_site_type_symbol
_atom_site_fract_x
_atom_site_fract_y
_atom_site_fract_z
_atom_type_partial_charge
H0 H 0.20938 0.8058 0.904 0.0
H1 H 0.2002 0.78974 0.0969 0.0
H2 H 0.17094 0.88854 0.0203 0.0
H3 H 0.23768 0.74593 0.08185 0.0
C4 C 0.23944 0.73932 0.03354 0.0
C5 C 0.20262 0.81563 0.94914 0.0
C6 C 0.18925 0.84955 0.95657 0.0
C7 C 0.20817 0.79442 -0.00036 0.0
C8 C 0.19813 0.80665 0.05815 0.0
C9 C 0.1839 0.84056 0.06598 0.0
C10 C 0.18093 0.86207 0.01503 0.0
N11 N 0.22387 0.76113 0.98887 0.0
H12 H 0.71224 0.72623 0.62889 0.0
H13 H 0.69328 0.72301 0.43423 0.0
H14 H 0.62303 0.66763 0.55027 0.0
H15 H 0.75847 0.72039 0.44468 0.0
C16 C 0.76116 0.74333 0.47515 0.0
C17 C 0.69628 0.71724 0.5896 0.0
C18 C 0.66613 0.69577 0.59739 0.0
C19 C 0.70668 0.72644 0.53096 0.0
C20 C 0.68597 0.71527 0.47956 0.0
C21 C 0.65505 0.69509 0.48697 0.0
C22 C 0.64575 0.68502 0.54558 0.0
N23 N 0.73787 0.74727 0.52492 0.0
H24 H 0.78032 0.19394 0.91127 0.0
H25 H 0.79352 0.2075 0.10609 0.0
H26 H 0.84649 0.12326 0.01268 0.0
H27 H 0.73 0.22502 0.08677 0.0
C28 C 0.73807 0.24373 0.05292 0.0
C29 C 0.79111 0.18485 0.95432 0.0
C30 C 0.81405 0.156 0.95524 0.0
C31 C 0.78276 0.20287 0.00865 0.0
C32 C 0.7983 0.19258 0.06431 0.0
C33 C 0.82128 0.16386 0.06565 0.0
C34 C 0.82842 0.14527 0.01139 0.0
N35 N 0.76096 0.23294 0.00556 0.0
H36 H 0.29284 0.29428 0.41579 0.0
H37 H 0.32414 0.28649 0.6056 0.0
H38 H 0.38756 0.34686 0.48491 0.0
H39 H 0.26528 0.27634 0.61557 0.0
C40 C 0.25718 0.26088 0.57512 0.0
C41 C 0.31137 0.30044 0.45331 0.0
C42 C 0.34136 0.32148 0.44357 0.0
C43 C 0.30471 0.2878 0.5115 0.0
C44 C 0.32854 0.2964 0.56051 0.0
C45 C 0.35877 0.31744 0.55104 0.0
C46 C 0.36505 0.32955 0.49228 0.0
N47 N 0.27399 0.26637 0.51871 0.0
O48 O 0.93364 0.95696 0.48554 0.0
Zn49 Zn 0.95414 0.00612 0.49518 0.0
O50 O 0.00564 0.00547 0.51068 0.0
Zn51 Zn 0.01638 0.02959 0.58797 0.0
Zn52 Zn 0.02116 0.95679 0.51545 0.0
Zn53 Zn 0.03131 0.02969 0.44669 0.0
O54 O 0.04628 0.07235 0.57748 0.0
O55 O 0.06457 0.06828 0.48211 0.0
O56 O 0.92864 0.02964 0.56525 0.0
O57 O 0.97243 0.04403 0.63103 0.0
O58 O 0.04573 0.99969 0.64236 0.0
O59 O 0.04718 0.94759 0.59462 0.0
O60 O 0.05585 0.94617 0.45027 0.0
O61 O 0.94291 0.03379 0.41997 0.0
O62 O 0.06013 0.99485 0.39652 0.0
O63 O 0.99585 0.05365 0.39179 0.0
C64 C 0.94713 0.92657 0.49053 0.0
C65 C 0.06544 0.08341 0.53481 0.0
C66 C 0.05586 0.96795 0.63967 0.0
C67 C 0.93952 0.043 0.61634 0.0
C68 C 0.06825 0.96293 0.40592 0.0
C69 C 0.9621 0.05224 0.38554 0.0
O70 O 0.98012 0.92265 0.50258 0.0
O71 O 0.58579 0.47877 0.04357 0.0
Zn72 Zn 0.55364 0.52057 0.03708 0.0
O73 O 0.50421 0.5062 0.01998 0.0
Zn74 Zn 0.48837 0.52334 0.93993 0.0
Zn75 Zn 0.50069 0.45485 0.02182 0.0
Zn76 Zn 0.47412 0.52611 0.08282 0.0
O77 O 0.44461 0.55389 0.94692 0.0
O78 O 0.43752 0.55742 0.04712 0.0
O79 O 0.57195 0.55 0.96995 0.0
O80 O 0.527 0.55301 0.90278 0.0
O81 O 0.47623 0.48223 0.88232 0.0
O82 O 0.48278 0.43534 0.94037 0.0
O83 O 0.46721 0.43855 0.08599 0.0
O84 O 0.55839 0.55026 0.1146 0.0
O85 O 0.44707 0.48866 0.12559 0.0
O86 O 0.50269 0.5551 0.14462 0.0
C87 C 0.57978 0.44579 0.04422 0.0
C88 C 0.42811 0.56559 0.99326 0.0
C89 C 0.47472 0.44913 0.88965 0.0
C90 C 0.55872 0.56105 0.92011 0.0
C91 C 0.44726 0.45524 0.12255 0.0
C92 C 0.53567 0.56234 0.15165 0.0
O93 O 0.54839 0.43318 0.03808 0.0
H94 H 0.22964 0.21481 0.48591 0.0
H95 H 0.21486 0.2529 0.67206 0.0
H96 H 0.16264 0.21345 0.67998 0.0
H97 H 0.13615 0.20545 0.44315 0.0
H98 H 0.14223 0.16567 0.39825 0.0
H99 H 0.17777 0.1977 0.40622 0.0
H100 H 0.21997 0.14992 0.44724 0.0
H101 H 0.18461 0.11774 0.43924 0.0
H102 H 0.20713 0.12492 0.51214 0.0
H103 H 0.11314 0.16989 0.66853 0.0
H104 H 0.07017 0.12281 0.64066 0.0
H105 H 0.117 0.11167 0.46167 0.0
C106 C 0.21528 0.21499 0.5282 0.0
C107 C 0.22606 0.23703 0.57845 0.0
C108 C 0.20686 0.23625 0.63313 0.0
C109 C 0.17719 0.21403 0.63796 0.0
C110 C 0.16717 0.19269 0.58766 0.0
C111 C 0.18565 0.19281 0.53389 0.0
C112 C 0.16981 0.1664 0.48745 0.0
C113 C 0.15565 0.18492 0.4304 0.0
C114 C 0.197 0.13807 0.47055 0.0
C115 C 0.1397 0.15127 0.52375 0.0
C116 C 0.13863 0.16705 0.58125 0.0
C117 C 0.11365 0.15735 0.62363 0.0
C118 C 0.08932 0.1305 0.60721 0.0
C119 C 0.0901 0.11339 0.54887 0.0
C120 C 0.11552 0.12427 0.50645 0.0
H121 H 0.28004 0.69855 0.10691 0.0
H122 H 0.25269 0.71566 0.91644 0.0
H123 H 0.29619 0.67102 0.88508 0.0
H124 H 0.37194 0.68941 0.08799 0.0
H125 H 0.37741 0.65553 0.14334 0.0
H126 H 0.3421 0.68674 0.15098 0.0
H127 H 0.29584 0.63577 0.1523 0.0
H128 H 0.33109 0.60436 0.14506 0.0
H129 H 0.29437 0.60339 0.09065 0.0
H130 H 0.34592 0.62737 0.87439 0.0
H131 H 0.39649 0.58684 0.88581 0.0
H132 H 0.39054 0.59838 0.08322 0.0
C133 C 0.28286 0.69246 0.05867 0.0
C134 C 0.26307 0.71051 0.01422 0.0
C135 C 0.26761 0.70216 0.95142 0.0
C136 C 0.29224 0.67681 0.93309 0.0
C137 C 0.31191 0.65994 0.9781 0.0
C138 C 0.30728 0.66723 0.03961 0.0
C139 C 0.33265 0.64644 0.07879 0.0
C140 C 0.35749 0.671 0.11753 0.0
C141 C 0.31226 0.62098 0.11906 0.0
C142 C 0.3527 0.62684 0.02972 0.0
C143 C 0.34031 0.6348 0.97192 0.0
C144 C 0.35565 0.62068 0.91947 0.0
C145 C 0.38441 0.59778 0.92639 0.0
C146 C 0.39749 0.58931 0.98535 0.0
C147 C 0.38115 0.60406 0.03743 0.0
H148 H 0.76951 0.8117 0.5169 0.0
H149 H 0.82352 0.72694 0.42245 0.0
H150 H 0.87749 0.76443 0.41657 0.0
H151 H 0.80641 0.88111 0.42682 0.0
H152 H 0.8095 0.91231 0.49015 0.0
H153 H 0.77564 0.87844 0.48847 0.0
H154 H 0.79799 0.85773 0.59432 0.0
H155 H 0.83193 0.8915 0.59628 0.0
H156 H 0.84402 0.84616 0.60498 0.0
H157 H 0.92644 0.81003 0.42652 0.0
H158 H 0.96509 0.86272 0.44161 0.0
H159 H 0.87739 0.91946 0.52123 0.0
C160 C 0.79278 0.80106 0.49521 0.0
C161 C 0.79275 0.76636 0.47076 0.0
C162 C 0.82329 0.75347 0.44164 0.0
C163 C 0.85399 0.77451 0.43823 0.0
C164 C 0.85333 0.80859 0.46311 0.0
C165 C 0.82335 0.822 0.49016 0.0
C166 C 0.82917 0.85992 0.51117 0.0
C167 C 0.80367 0.88438 0.4771 0.0
C168 C 0.82557 0.86405 0.58082 0.0
C169 C 0.86724 0.86561 0.49238 0.0
C170 C 0.88083 0.83554 0.46542 0.0
C171 C 0.91597 0.83387 0.44689 0.0
C172 C 0.93773 0.86382 0.45582 0.0
C173 C 0.92406 0.89513 0.48197 0.0
C174 C 0.88832 0.89599 0.50024 0.0
H175 H 0.67264 0.26095 0.09367 0.0
H176 H 0.76535 0.30417 0.00739 0.0
H177 H 0.73646 0.36221 0.00342 0.0
H178 H 0.60981 0.30561 0.00108 0.0
H179 H 0.57841 0.31224 0.0611 0.0
H180 H 0.60777 0.27524 0.06277 0.0
H181 H 0.63072 0.29509 0.17093 0.0
H182 H 0.60146 0.33226 0.16947 0.0
H183 H 0.6485 0.33897 0.18314 0.0
H184 H 0.6973 0.41521 0.00825 0.0
H185 H 0.6482 0.45781 0.01063 0.0
H186 H 0.57925 0.37863 0.08617 0.0
C187 C 0.6869 0.28283 0.07464 0.0
C188 C 0.72117 0.27842 0.05121 0.0
C189 C 0.73898 0.30721 0.02549 0.0
C190 C 0.7229 0.34024 0.0234 0.0
C191 C 0.68888 0.34376 0.04648 0.0
C192 C 0.67088 0.31573 0.07088 0.0
C193 C 0.63347 0.32574 0.08782 0.0
C194 C 0.60574 0.30338 0.05098 0.0
C195 C 0.62825 0.32285 0.15696 0.0
C196 C 0.63317 0.36368 0.06876 0.0
C197 C 0.66561 0.37377 0.04617 0.0
C198 C 0.67176 0.40763 0.02578 0.0
C199 C 0.64378 0.43165 0.02752 0.0
C200 C 0.60995 0.42144 0.04837 0.0
C201 C 0.6048 0.3871 0.06975 0.0
H202 H 0.12657 0.88294 0.08676 0.0
H203 H 0.21152 0.82856 0.18185 0.0
H204 H 0.19124 0.85406 0.27994 0.0
H205 H 0.13701 0.96332 0.17416 0.0
H206 H 0.09015 0.97272 0.17195 0.0
H207 H 0.10948 0.94775 0.11037 0.0
H208 H 0.0642 0.89708 0.12553 0.0
H209 H 0.04457 0.92193 0.1869 0.0
H210 H 0.06056 0.8782 0.19983 0.0
H211 H 0.16046 0.88531 0.36778 0.0
H212 H 0.12354 0.92122 0.4372 0.0
H213 H 0.06479 0.96077 0.2814 0.0
C214 C 0.14148 0.87661 0.12782 0.0
C215 C 0.171 0.85387 0.1261 0.0
C216 C 0.18864 0.84555 0.18171 0.0
C217 C 0.17749 0.86017 0.23763 0.0
C218 C 0.14902 0.88337 0.23698 0.0
C219 C 0.13147 0.89168 0.18335 0.0
C220 C 0.10259 0.91834 0.19412 0.0
C221 C 0.11029 0.95256 0.16067 0.0
C222 C 0.06581 0.90295 0.17551 0.0
C223 C 0.10639 0.92374 0.26253 0.0
C224 C 0.133 0.90301 0.28662 0.0
C225 C 0.13995 0.90199 0.34931 0.0
C226 C 0.11894 0.92243 0.38827 0.0
C227 C 0.09195 0.94411 0.36422 0.0
C228 C 0.08592 0.94507 0.30061 0.0
H229 H 0.59941 0.68503 0.64259 0.0
H230 H 0.71157 0.67462 0.68923 0.0
H231 H 0.69578 0.64384 0.78272 0.0
H232 H 0.5658 0.69268 0.79967 0.0
H233 H 0.52694 0.66622 0.7802 0.0
H234 H 0.5469 0.69296 0.72325 0.0
H235 H 0.55262 0.63787 0.65218 0.0
H236 H 0.53308 0.61091 0.70901 0.0
H237 H 0.57608 0.60013 0.67965 0.0
H238 H 0.66803 0.60855 0.86488 0.0
H239 H 0.6307 0.57185 0.92955 0.0
H240 H 0.53696 0.60151 0.82434 0.0
C241 C 0.62075 0.6767 0.67272 0.0
C242 C 0.6568 0.68234 0.65831 0.0
C243 C 0.68376 0.67126 0.69957 0.0
C244 C 0.67505 0.6535 0.75267 0.0
C245 C 0.63928 0.64702 0.76385 0.0
C246 C 0.61256 0.65844 0.72515 0.0
C247 C 0.57643 0.6453 0.74412 0.0
C248 C 0.55262 0.67613 0.76294 0.0
C249 C 0.55852 0.62218 0.69322 0.0
C250 C 0.58707 0.62384 0.79863 0.0
C251 C 0.62336 0.62566 0.80989 0.0
C252 C 0.63955 0.6072 0.85684 0.0
C253 C 0.6181 0.58636 0.89322 0.0
C254 C 0.58088 0.58372 0.88195 0.0
C255 C 0.5653 0.60289 0.83407 0.0
H256 H 0.8197 0.10243 0.12739 0.0
H257 H 0.86926 0.20574 0.12742 0.0
H258 H 0.91046 0.18865 0.21108 0.0
H259 H 0.82632 0.09225 0.29546 0.0
H260 H 0.8346 0.04577 0.28816 0.0
H261 H 0.8078 0.06713 0.23115 0.0
H262 H 0.84949 0.04377 0.14713 0.0
H263 H 0.87675 0.02283 0.20388 0.0
H264 H 0.89642 0.05372 0.15319 0.0
H265 H 0.9507 0.15782 0.28451 0.0
H266 H 0.98181 0.11836 0.35549 0.0
H267 H 0.90297 0.03664 0.31429 0.0
C268 C 0.83872 0.1216 0.14624 0.0
C269 C 0.84138 0.15542 0.1218 0.0
C270 C 0.8667 0.17989 0.14653 0.0
C271 C 0.89027 0.17033 0.19359 0.0
C272 C 0.8876 0.13645 0.21586 0.0
C273 C 0.86192 0.11272 0.1941 0.0
C274 C 0.86491 0.07793 0.22577 0.0
C275 C 0.83142 0.07034 0.26232 0.0
C276 C 0.87234 0.0478 0.17974 0.0
C277 C 0.89681 0.08551 0.26765 0.0
C278 C 0.90973 0.11929 0.26067 0.0
C279 C 0.94046 0.13156 0.29129 0.0
C280 C 0.95808 0.10892 0.33102 0.0
C281 C 0.94455 0.07469 0.34045 0.0
C282 C 0.91353 0.0629 0.30837 0.0
H283 H 0.34041 0.3447 0.6629 0.0
H284 H 0.43141 0.31794 0.55368 0.0
H285 H 0.47144 0.34605 0.63196 0.0
H286 H 0.36957 0.42789 0.70953 0.0
H287 H 0.35314 0.42652 0.78612 0.0
H288 H 0.33178 0.40044 0.72584 0.0
H289 H 0.34121 0.34401 0.78761 0.0
H290 H 0.36216 0.36999 0.84864 0.0
H291 H 0.38525 0.33332 0.81493 0.0
H292 H 0.50087 0.38233 0.71602 0.0
H293 H 0.51797 0.4218 0.80403 0.0
H294 H 0.40823 0.4247 0.85918 0.0
C295 C 0.36884 0.34379 0.65648 0.0
C296 C 0.38287 0.32905 0.60241 0.0
C297 C 0.42016 0.32918 0.59478 0.0
C298 C 0.44309 0.345 0.639 0.0
C299 C 0.42833 0.36037 0.69081 0.0
C300 C 0.39211 0.35953 0.7002 0.0
C301 C 0.38294 0.37988 0.75804 0.0
C302 C 0.35789 0.41049 0.744 0.0
C303 C 0.36695 0.35533 0.80509 0.0
C304 C 0.4195 0.39312 0.77866 0.0
C305 C 0.44535 0.38134 0.73946 0.0
C306 C 0.48096 0.39134 0.74749 0.0
C307 C 0.49041 0.4138 0.79717 0.0
C308 C 0.46433 0.42595 0.83768 0.0
C309 C 0.42853 0.41546 0.82857 0.0
H310 H 0.67459 0.65949 0.38269 0.0
H311 H 0.58374 0.70345 0.47459 0.0
H312 H 0.54354 0.67685 0.39506 0.0
H313 H 0.63855 0.66784 0.22361 0.0
H314 H 0.65732 0.62664 0.1988 0.0
H315 H 0.67923 0.65274 0.25869 0.0
H316 H 0.67744 0.59935 0.32964 0.0
H317 H 0.65512 0.57325 0.2704 0.0
H318 H 0.63537 0.57845 0.34425 0.0
H319 H 0.51305 0.6409 0.31303 0.0
H320 H 0.4938 0.60015 0.22918 0.0
H321 H 0.60427 0.57904 0.18942 0.0
C322 C 0.64632 0.66432 0.38482 0.0
C323 C 0.63213 0.68362 0.43429 0.0
C324 C 0.59498 0.68873 0.43679 0.0
C325 C 0.572 0.67379 0.39191 0.0
C326 C 0.58665 0.65391 0.34476 0.0
C327 C 0.62293 0.64939 0.3404 0.0
C328 C 0.63144 0.62486 0.28719 0.0
C329 C 0.6529 0.64418 0.23922 0.0
C330 C 0.65099 0.59204 0.30922 0.0
C331 C 0.59425 0.61572 0.26336 0.0
C332 C 0.56888 0.63293 0.29709 0.0
C333 C 0.53265 0.62758 0.28571 0.0
C334 C 0.522 0.6042 0.23817 0.0
C335 C 0.54749 0.58639 0.20254 0.0
C336 C 0.58411 0.59238 0.21548 0.0
H337 H 0.88138 0.1381 0.92482 0.0
H338 H 0.77243 0.13523 0.85543 0.0
H339 H 0.79224 0.10566 0.76004 0.0
H340 H 0.92241 0.15546 0.78304 0.0
H341 H 0.96035 0.12837 0.799 0.0
H342 H 0.93723 0.1493 0.86089 0.0
H343 H 0.92767 0.08875 0.91004 0.0
H344 H 0.95076 0.06763 0.84829 0.0
H345 H 0.90634 0.05355 0.86577 0.0
H346 H 0.82476 0.07539 0.6727 0.0
H347 H 0.86697 0.04871 0.60044 0.0
H348 H 0.95382 0.07193 0.72989 0.0
C349 C 0.86157 0.13095 0.88987 0.0
C350 C 0.82533 0.13861 0.89763 0.0
C351 C 0.80036 0.12963 0.85019 0.0
C352 C 0.81135 0.11274 0.7961 0.0
C353 C 0.84735 0.10527 0.79029 0.0
C354 C 0.87203 0.11425 0.83594 0.0
C355 C 0.90915 0.10371 0.81878 0.0
C356 C 0.93372 0.13615 0.8152 0.0
C357 C 0.92436 0.0768 0.86337 0.0
C358 C 0.9016 0.0872 0.75631 0.0
C359 C 0.86587 0.08826 0.74048 0.0
C360 C 0.8528 0.07446 0.68466 0.0
C361 C 0.87697 0.05933 0.64397 0.0
C362 C 0.91374 0.05821 0.65941 0.0
C363 C 0.92594 0.07232 0.71649 0.0
H364 H 0.39956 0.31626 0.37229 0.0
H365 H 0.29643 0.36516 0.38422 0.0
H366 H 0.31035 0.40176 0.29587 0.0
H367 H 0.44789 0.38985 0.34089 0.0
H368 H 0.4773 0.36949 0.28697 0.0
H369 H 0.45747 0.34363 0.34498 0.0
H370 H 0.43081 0.30046 0.26217 0.0
H371 H 0.45104 0.32592 0.20373 0.0
H372 H 0.40384 0.3172 0.20055 0.0
H373 H 0.33973 0.4399 0.22006 0.0
H374 H 0.37951 0.47183 0.15166 0.0
H375 H 0.46184 0.39511 0.18311 0.0
C376 C 0.37957 0.33391 0.35483 0.0
C377 C 0.34687 0.3379 0.38426 0.0
C378 C 0.32139 0.36151 0.36134 0.0
C379 C 0.32915 0.38244 0.3115 0.0
C380 C 0.36217 0.37875 0.2846 0.0
C381 C 0.38664 0.35446 0.30446 0.0
C382 C 0.42088 0.35697 0.26978 0.0
C383 C 0.45274 0.3655 0.31326 0.0
C384 C 0.42699 0.32312 0.23179 0.0
C385 C 0.41244 0.38751 0.2292 0.0
C386 C 0.37846 0.39973 0.23852 0.0
C387 C 0.366 0.42999 0.21104 0.0
C388 C 0.3888 0.44807 0.17274 0.0
C389 C 0.42338 0.43552 0.16174 0.0
C390 C 0.43516 0.40468 0.18977 0.0
H391 H 0.15154 0.82996 0.85316 0.0
H392 H 0.20645 0.91866 0.9426 0.0
H393 H 0.1812 0.95816 0.86561 0.0
H394 H 0.15857 0.86246 0.69215 0.0
H395 H 0.11493 0.8454 0.67151 0.0
H396 H 0.14204 0.82343 0.72739 0.0
H397 H 0.09098 0.82845 0.80433 0.0
H398 H 0.06402 0.85113 0.74944 0.0
H399 H 0.07351 0.87116 0.82363 0.0
H400 H 0.14271 0.98879 0.79152 0.0
H401 H 0.09867 0.00856 0.71526 0.0
H402 H 0.0698 0.8999 0.67075 0.0
C403 C 0.15939 0.85745 0.85489 0.0
C404 C 0.18094 0.87139 0.90347 0.0
C405 C 0.18989 0.90763 0.9056 0.0
C406 C 0.17574 0.93019 0.86213 0.0
C407 C 0.15311 0.91593 0.81654 0.0
C408 C 0.14554 0.88032 0.8117 0.0
C409 C 0.11826 0.87225 0.76115 0.0
C410 C 0.13443 0.84955 0.71 0.0
C411 C 0.08472 0.85473 0.78617 0.0
C412 C 0.11071 0.90903 0.74003 0.0
C413 C 0.1312 0.93377 0.77252 0.0
C414 C 0.12706 0.96967 0.76477 0.0
C415 C 0.10169 0.98062 0.72184 0.0
C416 C 0.08093 0.95572 0.68702 0.0
C417 C 0.08561 0.91947 0.69625 0.0
loop_
_geom_bond_atom_site_label_1
_geom_bond_atom_site_label_2
_geom_bond_distance
_geom_bond_site_symmetry_2
_ccdc_geom_bond_type
H0 C5 0.930 . S
H1 C8 0.930 . S
H2 C10 0.930 . S
H3 C4 1.016 . S
C4 H3 1.016 . S
C4 N11 1.286 1_554 S
C5 H0 0.930 . S
C5 C6 1.397 . S
C5 C7 1.361 1_556 S
C6 C5 1.397 . S
C6 C10 1.390 1_556 S
C7 C5 1.361 1_554 S
C7 C8 1.393 . S
C7 N11 1.413 1_554 S
C8 H1 0.930 . S
C8 C7 1.393 . S
C8 C9 1.399 . S
C9 C8 1.399 . S
C9 C10 1.381 . S
C10 H2 0.930 . S
C10 C6 1.390 1_554 S
C10 C9 1.381 . S
N11 C4 1.286 1_556 S
N11 C7 1.413 1_556 S
H12 C17 0.930 . S
H13 C20 0.930 . S
H14 C22 0.930 . S
H15 C16 1.016 . S
C16 H15 1.016 . S
C16 N23 1.286 . S
C17 H12 0.930 . S
C17 C18 1.397 . S
C17 C19 1.361 . S
C18 C17 1.397 . S
C18 C22 1.390 . S
C19 C17 1.361 . S
C19 C20 1.393 . S
C19 N23 1.413 . S
C20 H13 0.930 . S
C20 C19 1.393 . S
C20 C21 1.399 . S
C21 C20 1.399 . S
C21 C22 1.381 . S
C22 H14 0.930 . S
C22 C18 1.390 . S
C22 C21 1.381 . S
N23 C16 1.286 . S
N23 C19 1.413 . S
H24 C29 0.930 . S
H25 C32 0.930 . S
H26 C34 0.930 . S
H27 C28 1.016 . S
C28 H27 1.016 . S
C28 N35 1.286 1_554 S
C29 H24 0.930 . S
C29 C30 1.397 . S
C29 C31 1.361 1_556 S
C30 C29 1.397 . S
C30 C34 1.390 1_556 S
C31 C29 1.361 1_554 S
C31 C32 1.393 . S
C31 N35 1.413 1_554 S
C32 H25 0.930 . S
C32 C31 1.393 . S
C32 C33 1.399 . S
C33 C32 1.399 . S
C33 C34 1.381 . S
C34 H26 0.930 . S
C34 C30 1.390 1_554 S
C34 C33 1.381 . S
N35 C28 1.286 1_556 S
N35 C31 1.413 1_556 S
H36 C41 0.930 . S
H37 C44 0.930 . S
H38 C46 0.930 . S
H39 C40 1.016 . S
C40 H39 1.016 . S
C40 N47 1.286 . S
C41 H36 0.930 . S
C41 C42 1.397 . S
C41 C43 1.361 . S
C42 C41 1.397 . S
C42 C46 1.390 . S
C43 C41 1.361 . S
C43 C44 1.393 . S
C43 N47 1.413 . S
C44 H37 0.930 . S
C44 C43 1.393 . S
C44 C45 1.399 . S
C45 C44 1.399 . S
C45 C46 1.381 . S
C46 H38 0.930 . S
C46 C42 1.390 . S
C46 C45 1.381 . S
N47 C40 1.286 . S
N47 C43 1.413 . S
O48 Zn49 1.953 1_565 S
O48 C64 1.225 . S
Zn49 O48 1.953 1_545 S
Zn49 O50 1.949 1_655 S
Zn49 O56 1.919 . S
Zn49 O61 1.924 . S
O50 Zn49 1.949 1_455 S
O50 Zn51 1.923 . S
O50 Zn52 1.950 1_545 S
O50 Zn53 1.945 . S
Zn51 O50 1.923 . S
Zn51 O54 1.933 . S
Zn51 O57 1.941 1_455 S
Zn51 O58 1.965 1_545 S
Zn52 O50 1.950 1_565 S
Zn52 O59 1.938 . S
Zn52 O60 1.906 . S
Zn52 O70 1.953 1_455 S
Zn53 O50 1.945 . S
Zn53 O55 1.932 . S
Zn53 O62 1.977 1_545 S
Zn53 O63 1.910 1_455 S
O54 Zn51 1.933 . S
O54 C65 1.226 . S
O55 Zn53 1.932 . S
O55 C65 1.307 . S
O56 Zn49 1.919 . S
O56 C67 1.253 . S
O57 Zn51 1.941 1_655 S
O57 C67 1.283 . S
O58 Zn51 1.965 1_565 S
O58 C66 1.303 . S
O59 Zn52 1.938 . S
O59 C66 1.247 . S
O60 Zn52 1.906 . S
O60 C68 1.304 . S
O61 Zn49 1.924 . S
O61 C69 1.311 . S
O62 Zn53 1.977 1_565 S
O62 C68 1.272 . S
O63 Zn53 1.910 1_655 S
O63 C69 1.231 . S
C64 O48 1.225 . S
C64 O70 1.298 . S
C65 O54 1.226 . S
C65 O55 1.307 . S
C66 O58 1.303 . S
C66 O59 1.247 . S
C67 O56 1.253 . S
C67 O57 1.283 . S
C68 O60 1.304 . S
C68 O62 1.272 . S
C69 O61 1.311 . S
C69 O63 1.231 . S
O70 Zn52 1.953 1_655 S
O70 C64 1.298 . S
O71 Zn72 1.953 . S
O71 C87 1.225 . S
Zn72 O71 1.953 . S
Zn72 O73 1.949 . S
Zn72 O79 1.919 1_554 S
Zn72 O84 1.924 . S
O73 Zn72 1.949 . S
O73 Zn74 1.923 1_554 S
O73 Zn75 1.950 . S
O73 Zn76 1.945 . S
Zn74 O73 1.923 1_556 S
Zn74 O77 1.933 . S
Zn74 O80 1.941 . S
Zn74 O81 1.965 . S
Zn75 O73 1.950 . S
Zn75 O82 1.938 1_554 S
Zn75 O83 1.906 . S
Zn75 O93 1.953 . S
Zn76 O73 1.945 . S
Zn76 O78 1.932 . S
Zn76 O85 1.977 . S
Zn76 O86 1.910 . S
O77 Zn74 1.933 . S
O77 C88 1.226 1_556 S
O78 Zn76 1.932 . S
O78 C88 1.307 . S
O79 Zn72 1.919 1_556 S
O79 C90 1.253 . S
O80 Zn74 1.941 . S
O80 C90 1.283 . S
O81 Zn74 1.965 . S
O81 C89 1.303 . S
O82 Zn75 1.938 1_556 S
O82 C89 1.247 . S
O83 Zn75 1.906 . S
O83 C91 1.304 . S
O84 Zn72 1.924 . S
O84 C92 1.311 . S
O85 Zn76 1.977 . S
O85 C91 1.272 . S
O86 Zn76 1.910 . S
O86 C92 1.231 . S
C87 O71 1.225 . S
C87 O93 1.298 . S
C88 O77 1.226 1_554 S
C88 O78 1.307 . S
C89 O81 1.303 . S
C89 O82 1.247 . S
C90 O79 1.253 . S
C90 O80 1.283 . S
C91 O83 1.304 . S
C91 O85 1.272 . S
C92 O84 1.311 . S
C92 O86 1.231 . S
O93 Zn75 1.953 . S
O93 C87 1.298 . S
H94 C106 0.930 . S
H95 C108 0.930 . S
H96 C109 0.930 . S
H97 C113 0.959 . S
H98 C113 0.959 . S
H99 C113 0.961 . S
H100 C114 0.960 . S
H101 C114 0.961 . S
H102 C114 0.959 . S
H103 C117 0.929 . S
H104 C118 0.931 . S
H105 C120 0.930 . S
C106 H94 0.930 . S
C106 C107 1.399 . S
C106 C111 1.399 . S
C107 C106 1.399 . S
C107 C108 1.376 . S
C108 H95 0.930 . S
C108 C107 1.376 . S
C108 C109 1.388 . S
C109 H96 0.930 . S
C109 C108 1.388 . S
C109 C110 1.390 . S
C110 C109 1.390 . S
C110 C111 1.394 . S
C110 C116 1.465 . S
C111 C106 1.399 . S
C111 C110 1.394 . S
C111 C112 1.516 . S
C112 C111 1.516 . S
C112 C113 1.502 . S
C112 C114 1.561 . S
C112 C115 1.526 . S
C113 H97 0.959 . S
C113 H98 0.959 . S
C113 H99 0.961 . S
C113 C112 1.502 . S
C114 H100 0.960 . S
C114 H101 0.961 . S
C114 H102 0.959 . S
C114 C112 1.561 . S
C115 C112 1.526 . S
C115 C116 1.396 . S
C115 C120 1.390 . S
C116 C110 1.465 . S
C116 C115 1.396 . S
C116 C117 1.399 . S
C117 H103 0.929 . S
C117 C116 1.399 . S
C117 C118 1.385 . S
C118 H104 0.931 . S
C118 C117 1.385 . S
C118 C119 1.389 . S
C119 C118 1.389 . S
C119 C120 1.387 . S
C120 H105 0.930 . S
C120 C115 1.390 . S
C120 C119 1.387 . S
H121 C133 0.930 . S
H122 C135 0.930 . S
H123 C136 0.930 . S
H124 C140 0.959 . S
H125 C140 0.959 . S
H126 C140 0.961 . S
H127 C141 0.960 . S
H128 C141 0.961 . S
H129 C141 0.959 . S
H130 C144 0.929 . S
H131 C145 0.931 . S
H132 C147 0.930 . S
C133 H121 0.930 . S
C133 C134 1.399 . S
C133 C138 1.399 . S
C134 C133 1.399 . S
C134 C135 1.376 1_554 S
C135 H122 0.930 . S
C135 C134 1.376 1_556 S
C135 C136 1.388 . S
C136 H123 0.930 . S
C136 C135 1.388 . S
C136 C137 1.390 1_556 S
C137 C136 1.390 1_554 S
C137 C138 1.394 . S
C137 C143 1.465 . S
C138 C133 1.399 . S
C138 C137 1.394 . S
C138 C139 1.516 . S
C139 C138 1.516 . S
C139 C140 1.502 . S
C139 C141 1.561 . S
C139 C142 1.526 . S
C140 H124 0.959 . S
C140 H125 0.959 . S
C140 H126 0.961 . S
C140 C139 1.502 . S
C141 H127 0.960 . S
C141 H128 0.961 . S
C141 H129 0.959 . S
C141 C139 1.561 . S
C142 C139 1.526 . S
C142 C143 1.396 . S
C142 C147 1.390 . S
C143 C137 1.465 . S
C143 C142 1.396 . S
C143 C144 1.399 1_554 S
C144 H130 0.929 . S
C144 C143 1.399 1_556 S
C144 C145 1.385 . S
C145 H131 0.931 . S
C145 C144 1.385 . S
C145 C146 1.389 1_556 S
C146 C145 1.389 1_554 S
C146 C147 1.387 . S
C147 H132 0.930 . S
C147 C142 1.390 . S
C147 C146 1.387 . S
H148 C160 0.930 . S
H149 C162 0.930 . S
H150 C163 0.930 . S
H151 C167 0.959 . S
H152 C167 0.959 . S
H153 C167 0.961 . S
H154 C168 0.960 . S
H155 C168 0.961 . S
H156 C168 0.959 . S
H157 C171 0.929 . S
H158 C172 0.931 . S
H159 C174 0.930 . S
C160 H148 0.930 . S
C160 C161 1.399 . S
C160 C165 1.399 . S
C161 C160 1.399 . S
C161 C162 1.376 . S
C162 H149 0.930 . S
C162 C161 1.376 . S
C162 C163 1.388 . S
C163 H150 0.930 . S
C163 C162 1.388 . S
C163 C164 1.390 . S
C164 C163 1.390 . S
C164 C165 1.394 . S
C164 C170 1.465 . S
C165 C160 1.399 . S
C165 C164 1.394 . S
C165 C166 1.516 . S
C166 C165 1.516 . S
C166 C167 1.502 . S
C166 C168 1.561 . S
C166 C169 1.526 . S
C167 H151 0.959 . S
C167 H152 0.959 . S
C167 H153 0.961 . S
C167 C166 1.502 . S
C168 H154 0.960 . S
C168 H155 0.961 . S
C168 H156 0.959 . S
C168 C166 1.561 . S
C169 C166 1.526 . S
C169 C170 1.396 . S
C169 C174 1.390 . S
C170 C164 1.465 . S
C170 C169 1.396 . S
C170 C171 1.399 . S
C171 H157 0.929 . S
C171 C170 1.399 . S
C171 C172 1.385 . S
C172 H158 0.931 . S
C172 C171 1.385 . S
C172 C173 1.389 . S
C173 C172 1.389 . S
C173 C174 1.387 . S
C174 H159 0.930 . S
C174 C169 1.390 . S
C174 C173 1.387 . S
H175 C187 0.930 . S
H176 C189 0.930 . S
H177 C190 0.930 . S
H178 C194 0.959 . S
H179 C194 0.959 . S
H180 C194 0.961 . S
H181 C195 0.960 . S
H182 C195 0.961 . S
H183 C195 0.959 . S
H184 C198 0.929 . S
H185 C199 0.931 . S
H186 C201 0.930 . S
C187 H175 0.930 . S
C187 C188 1.399 . S
C187 C192 1.399 . S
C188 C187 1.399 . S
C188 C189 1.376 1_554 S
C189 H176 0.930 . S
C189 C188 1.376 1_556 S
C189 C190 1.388 . S
C190 H177 0.930 . S
C190 C189 1.388 . S
C190 C191 1.390 . S
C191 C190 1.390 . S
C191 C192 1.394 1_556 S
C191 C197 1.465 . S
C192 C187 1.399 . S
C192 C191 1.394 1_554 S
C192 C193 1.516 . S
C193 C192 1.516 . S
C193 C194 1.502 . S
C193 C195 1.561 . S
C193 C196 1.526 . S
C194 H178 0.959 . S
C194 H179 0.959 . S
C194 H180 0.961 . S
C194 C193 1.502 . S
C195 H181 0.960 . S
C195 H182 0.961 . S
C195 H183 0.959 . S
C195 C193 1.561 . S
C196 C193 1.526 . S
C196 C197 1.385 1_554 S
C196 C201 1.390 . S
C197 C191 1.465 . S
C197 C196 1.385 1_556 S
C197 C198 1.408 . S
C198 H184 0.929 . S
C198 C197 1.408 . S
C198 C199 1.385 . S
C199 H185 0.931 . S
C199 C198 1.385 . S
C199 C200 1.389 1_556 S
C200 C199 1.389 1_554 S
C200 C201 1.387 . S
C201 H186 0.930 . S
C201 C196 1.390 . S
C201 C200 1.387 . S
H202 C214 0.930 . S
H203 C216 0.930 . S
H204 C217 0.930 . S
H205 C221 0.959 . S
H206 C221 0.959 . S
H207 C221 0.961 . S
H208 C222 0.960 . S
H209 C222 0.961 . S
H210 C222 0.959 . S
H211 C225 0.929 . S
H212 C226 0.931 . S
H213 C228 0.930 . S
C214 H202 0.930 . S
C214 C215 1.399 . S
C214 C219 1.399 . S
C215 C214 1.399 . S
C215 C216 1.376 . S
C216 H203 0.930 . S
C216 C215 1.376 . S
C216 C217 1.388 . S
C217 H204 0.930 . S
C217 C216 1.388 . S
C217 C218 1.390 . S
C218 C217 1.390 . S
C218 C219 1.394 . S
C218 C224 1.465 . S
C219 C214 1.399 . S
C219 C218 1.394 . S
C219 C220 1.516 . S
C220 C219 1.516 . S
C220 C221 1.502 . S
C220 C222 1.561 . S
C220 C223 1.526 . S
C221 H205 0.959 . S
C221 H206 0.959 . S
C221 H207 0.961 . S
C221 C220 1.502 . S
C222 H208 0.960 . S
C222 H209 0.961 . S
C222 H210 0.959 . S
C222 C220 1.561 . S
C223 C220 1.526 . S
C223 C224 1.396 . S
C223 C228 1.390 . S
C224 C218 1.465 . S
C224 C223 1.396 . S
C224 C225 1.399 . S
C225 H211 0.929 . S
C225 C224 1.399 . S
C225 C226 1.385 . S
C226 H212 0.931 . S
C226 C225 1.385 . S
C226 C227 1.389 . S
C227 C226 1.389 . S
C227 C228 1.387 . S
C228 H213 0.930 . S
C228 C223 1.390 . S
C228 C227 1.387 . S
H229 C241 0.930 . S
H230 C243 0.930 . S
H231 C244 0.930 . S
H232 C248 0.959 . S
H233 C248 0.959 . S
H234 C248 0.961 . S
H235 C249 0.960 . S
H236 C249 0.961 . S
H237 C249 0.959 . S
H238 C252 0.929 . S
H239 C253 0.931 . S
H240 C255 0.930 . S
C241 H229 0.930 . S
C241 C242 1.399 . S
C241 C246 1.399 . S
C242 C241 1.399 . S
C242 C243 1.376 . S
C243 H230 0.930 . S
C243 C242 1.376 . S
C243 C244 1.388 . S
C244 H231 0.930 . S
C244 C243 1.388 . S
C244 C245 1.390 . S
C245 C244 1.390 . S
C245 C246 1.394 . S
C245 C251 1.465 . S
C246 C241 1.399 . S
C246 C245 1.394 . S
C246 C247 1.516 . S
C247 C246 1.516 . S
C247 C248 1.502 . S
C247 C249 1.561 . S
C247 C250 1.526 . S
C248 H232 0.959 . S
C248 H233 0.959 . S
C248 H234 0.961 . S
C248 C247 1.502 . S
C249 H235 0.960 . S
C249 H236 0.961 . S
C249 H237 0.959 . S
C249 C247 1.561 . S
C250 C247 1.526 . S
C250 C251 1.396 . S
C250 C255 1.390 . S
C251 C245 1.465 . S
C251 C250 1.396 . S
C251 C252 1.399 . S
C252 H238 0.929 . S
C252 C251 1.399 . S
C252 C253 1.385 . S
C253 H239 0.931 . S
C253 C252 1.385 . S
C253 C254 1.389 . S
C254 C253 1.389 . S
C254 C255 1.387 . S
C255 H240 0.930 . S
C255 C250 1.390 . S
C255 C254 1.387 . S
H256 C268 0.930 . S
H257 C270 0.930 . S
H258 C271 0.930 . S
H259 C275 0.959 . S
H260 C275 0.959 . S
H261 C275 0.961 . S
H262 C276 0.960 . S
H263 C276 0.961 . S
H264 C276 0.959 . S
H265 C279 0.929 . S
H266 C280 0.931 . S
H267 C282 0.930 . S
C268 H256 0.930 . S
C268 C269 1.399 . S
C268 C273 1.399 . S
C269 C268 1.399 . S
C269 C270 1.376 . S
C270 H257 0.930 . S
C270 C269 1.376 . S
C270 C271 1.388 . S
C271 H258 0.930 . S
C271 C270 1.388 . S
C271 C272 1.390 . S
C272 C271 1.390 . S
C272 C273 1.394 . S
C272 C278 1.465 . S
C273 C268 1.399 . S
C273 C272 1.394 . S
C273 C274 1.516 . S
C274 C273 1.516 . S
C274 C275 1.502 . S
C274 C276 1.561 . S
C274 C277 1.526 . S
C275 H259 0.959 . S
C275 H260 0.959 . S
C275 H261 0.961 . S
C275 C274 1.502 . S
C276 H262 0.960 . S
C276 H263 0.961 . S
C276 H264 0.959 . S
C276 C274 1.561 . S
C277 C274 1.526 . S
C277 C278 1.396 . S
C277 C282 1.390 . S
C278 C272 1.465 . S
C278 C277 1.396 . S
C278 C279 1.399 . S
C279 H265 0.929 . S
C279 C278 1.399 . S
C279 C280 1.385 . S
C280 H266 0.931 . S
C280 C279 1.385 . S
C280 C281 1.389 . S
C281 C280 1.389 . S
C281 C282 1.387 . S
C282 H267 0.930 . S
C282 C277 1.390 . S
C282 C281 1.387 . S
H283 C295 0.930 . S
H284 C297 0.930 . S
H285 C298 0.930 . S
H286 C302 0.959 . S
H287 C302 0.959 . S
H288 C302 0.961 . S
H289 C303 0.960 . S
H290 C303 0.961 . S
H291 C303 0.959 . S
H292 C306 0.929 . S
H293 C307 0.931 . S
H294 C309 0.930 . S
C295 H283 0.930 . S
C295 C296 1.399 . S
C295 C300 1.399 . S
C296 C295 1.399 . S
C296 C297 1.376 . S
C297 H284 0.930 . S
C297 C296 1.376 . S
C297 C298 1.388 . S
C298 H285 0.930 . S
C298 C297 1.388 . S
C298 C299 1.390 . S
C299 C298 1.390 . S
C299 C300 1.394 . S
C299 C305 1.465 . S
C300 C295 1.399 . S
C300 C299 1.394 . S
C300 C301 1.516 . S
C301 C300 1.516 . S
C301 C302 1.502 . S
C301 C303 1.561 . S
C301 C304 1.526 . S
C302 H286 0.959 . S
C302 H287 0.959 . S
C302 H288 0.961 . S
C302 C301 1.502 . S
C303 H289 0.960 . S
C303 H290 0.961 . S
C303 H291 0.959 . S
C303 C301 1.561 . S
C304 C301 1.526 . S
C304 C305 1.396 . S
C304 C309 1.390 . S
C305 C299 1.465 . S
C305 C304 1.396 . S
C305 C306 1.399 . S
C306 H292 0.929 . S
C306 C305 1.399 . S
C306 C307 1.385 . S
C307 H293 0.931 . S
C307 C306 1.385 . S
C307 C308 1.389 . S
C308 C307 1.389 . S
C308 C309 1.387 . S
C309 H294 0.930 . S
C309 C304 1.390 . S
C309 C308 1.387 . S
H310 C322 0.930 . S
H311 C324 0.930 . S
H312 C325 0.930 . S
H313 C329 0.959 . S
H314 C329 0.959 . S
H315 C329 0.961 . S
H316 C330 0.960 . S
H317 C330 0.961 . S
H318 C330 0.959 . S
H319 C333 0.929 . S
H320 C334 0.931 . S
H321 C336 0.930 . S
C322 H310 0.930 . S
C322 C323 1.399 . S
C322 C327 1.399 . S
C323 C322 1.399 . S
C323 C324 1.376 . S
C324 H311 0.930 . S
C324 C323 1.376 . S
C324 C325 1.388 . S
C325 H312 0.930 . S
C325 C324 1.388 . S
C325 C326 1.390 . S
C326 C325 1.390 . S
C326 C327 1.394 . S
C326 C332 1.465 . S
C327 C322 1.399 . S
C327 C326 1.394 . S
C327 C328 1.516 . S
C328 C327 1.516 . S
C328 C329 1.502 . S
C328 C330 1.561 . S
C328 C331 1.526 . S
C329 H313 0.959 . S
C329 H314 0.959 . S
C329 H315 0.961 . S
C329 C328 1.502 . S
C330 H316 0.960 . S
C330 H317 0.961 . S
C330 H318 0.959 . S
C330 C328 1.561 . S
C331 C328 1.526 . S
C331 C332 1.396 . S
C331 C336 1.390 . S
C332 C326 1.465 . S
C332 C331 1.396 . S
C332 C333 1.399 . S
C333 H319 0.929 . S
C333 C332 1.399 . S
C333 C334 1.385 . S
C334 H320 0.931 . S
C334 C333 1.385 . S
C334 C335 1.389 . S
C335 C334 1.389 . S
C335 C336 1.387 . S
C336 H321 0.930 . S
C336 C331 1.390 . S
C336 C335 1.387 . S
H337 C349 0.930 . S
H338 C351 0.930 . S
H339 C352 0.930 . S
H340 C356 0.959 . S
H341 C356 0.959 . S
H342 C356 0.961 . S
H343 C357 0.960 . S
H344 C357 0.961 . S
H345 C357 0.959 . S
H346 C360 0.929 . S
H347 C361 0.931 . S
H348 C363 0.930 . S
C349 H337 0.930 . S
C349 C350 1.399 . S
C349 C354 1.399 . S
C350 C349 1.399 . S
C350 C351 1.376 . S
C351 H338 0.930 . S
C351 C350 1.376 . S
C351 C352 1.388 . S
C352 H339 0.930 . S
C352 C351 1.388 . S
C352 C353 1.390 . S
C353 C352 1.390 . S
C353 C354 1.394 . S
C353 C359 1.465 . S
C354 C349 1.399 . S
C354 C353 1.394 . S
C354 C355 1.516 . S
C355 C354 1.516 . S
C355 C356 1.502 . S
C355 C357 1.561 . S
C355 C358 1.526 . S
C356 H340 0.959 . S
C356 H341 0.959 . S
C356 H342 0.961 . S
C356 C355 1.502 . S
C357 H343 0.960 . S
C357 H344 0.961 . S
C357 H345 0.959 . S
C357 C355 1.561 . S
C358 C355 1.526 . S
C358 C359 1.396 . S
C358 C363 1.390 . S
C359 C353 1.465 . S
C359 C358 1.396 . S
C359 C360 1.399 . S
C360 H346 0.929 . S
C360 C359 1.399 . S
C360 C361 1.385 . S
C361 H347 0.931 . S
C361 C360 1.385 . S
C361 C362 1.389 . S
C362 C361 1.389 . S
C362 C363 1.387 . S
C363 H348 0.930 . S
C363 C358 1.390 . S
C363 C362 1.387 . S
H364 C376 0.930 . S
H365 C378 0.930 . S
H366 C379 0.930 . S
H367 C383 0.959 . S
H368 C383 0.959 . S
H369 C383 0.961 . S
H370 C384 0.960 . S
H371 C384 0.961 . S
H372 C384 0.959 . S
H373 C387 0.929 . S
H374 C388 0.931 . S
H375 C390 0.930 . S
C376 H364 0.930 . S
C376 C377 1.399 . S
C376 C381 1.399 . S
C377 C376 1.399 . S
C377 C378 1.376 . S
C378 H365 0.930 . S
C378 C377 1.376 . S
C378 C379 1.388 . S
C379 H366 0.930 . S
C379 C378 1.388 . S
C379 C380 1.390 . S
C380 C379 1.390 . S
C380 C381 1.394 . S
C380 C386 1.465 . S
C381 C376 1.399 . S
C381 C380 1.394 . S
C381 C382 1.516 . S
C382 C381 1.516 . S
C382 C383 1.502 . S
C382 C384 1.561 . S
C382 C385 1.526 . S
C383 H367 0.959 . S
C383 H368 0.959 . S
C383 H369 0.961 . S
C383 C382 1.502 . S
C384 H370 0.960 . S
C384 H371 0.961 . S
C384 H372 0.959 . S
C384 C382 1.561 . S
C385 C382 1.526 . S
C385 C386 1.396 . S
C385 C390 1.390 . S
C386 C380 1.465 . S
C386 C385 1.396 . S
C386 C387 1.399 . S
C387 H373 0.929 . S
C387 C386 1.399 . S
C387 C388 1.385 . S
C388 H374 0.931 . S
C388 C387 1.385 . S
C388 C389 1.389 . S
C389 C388 1.389 . S
C389 C390 1.387 . S
C390 H375 0.930 . S
C390 C385 1.390 . S
C390 C389 1.387 . S
H391 C403 0.930 . S
H392 C405 0.930 . S
H393 C406 0.930 . S
H394 C410 0.959 . S
H395 C410 0.959 . S
H396 C410 0.961 . S
H397 C411 0.960 . S
H398 C411 0.961 . S
H399 C411 0.959 . S
H400 C414 0.929 . S
H401 C415 0.931 . S
H402 C417 0.930 . S
C403 H391 0.930 . S
C403 C404 1.399 . S
C403 C408 1.399 . S
C404 C403 1.399 . S
C404 C405 1.376 . S
C405 H392 0.930 . S
C405 C404 1.376 . S
C405 C406 1.388 . S
C406 H393 0.930 . S
C406 C405 1.388 . S
C406 C407 1.390 . S
C407 C406 1.390 . S
C407 C408 1.394 . S
C407 C413 1.465 . S
C408 C403 1.399 . S
C408 C407 1.394 . S
C408 C409 1.516 . S
C409 C408 1.516 . S
C409 C410 1.502 . S
C409 C411 1.561 . S
C409 C412 1.526 . S
C410 H394 0.959 . S
C410 H395 0.959 . S
C410 H396 0.961 . S
C410 C409 1.502 . S
C411 H397 0.960 . S
C411 H398 0.961 . S
C411 H399 0.959 . S
C411 C409 1.561 . S
C412 C409 1.526 . S
C412 C413 1.396 . S
C412 C417 1.390 . S
C413 C407 1.465 . S
C413 C412 1.396 . S
C413 C414 1.399 . S
C414 H400 0.929 . S
C414 C413 1.399 . S
C414 C415 1.385 . S
C415 H401 0.931 . S
C415 C414 1.385 . S
C415 C416 1.389 . S
C416 C415 1.389 . S
C416 C417 1.387 . S
C417 H402 0.930 . S
C417 C412 1.390 . S
C417 C416 1.387 . S
C119 C65 1.476 . S
C107 C40 1.466 . S
C134 C4 1.489 . S
C146 C88 1.479 . S
C161 C16 1.497 . S
C173 C64 1.518 . S
C188 C28 1.519 . S
C200 C87 1.511 . S
C227 C68 1.475 . S
C215 C9 1.511 . S
C254 C90 1.476 . S
C242 C18 1.551 . S
C269 C33 1.525 . S
C281 C69 1.442 . S
C296 C45 1.498 . S
C308 C89 1.511 . S
C335 C92 1.366 . S
C323 C21 1.437 . S
C362 C67 1.388 . S
C350 C30 1.485 . S
C389 C91 1.432 . S
C377 C42 1.445 . S
C404 C6 1.456 . S
C416 C66 1.404 . S
