# Generated by pormake.
# Topology tsx, (6,3)-cn, num edge types: 1
# Building blocks:
#     Node 0, Type 0, BuildingBlock: VOLQOD_clean_sbu_1, # of connection points: 6
#     Node 1, Type 0, BuildingBlock: VOLQOD_clean_sbu_1, # of connection points: 6
#     Node 2, Type 1, BuildingBlock: MIDCAF_clean_linker_0, # of connection points: 3
#     Node 3, Type 1, BuildingBlock: MIDCAF_clean_linker_0, # of connection points: 3
#     Node 4, Type 1, BuildingBlock: MIDCAF_clean_linker_0, # of connection points: 3
#     Node 5, Type 1, BuildingBlock: MIDCAF_clean_linker_0, # of connection points: 3
#     Edge 6, Type (0, 1), BuildingBlock: ZUJKAS_clean_linker_0, # of connection points: 2
#     Edge 7, Type (0, 1), BuildingBlock: ZUJKAS_clean_linker_0, # of connection points: 2
#     Edge 8, Type (0, 1), BuildingBlock: ZUJKAS_clean_linker_0, # of connection points: 2
#     Edge 9, Type (0, 1), BuildingBlock: ZUJKAS_clean_linker_0, # of connection points: 2
#     Edge 10, Type (0, 1), BuildingBlock: ZUJKAS_clean_linker_0, # of connection points: 2
#     Edge 11, Type (0, 1), BuildingBlock: ZUJKAS_clean_linker_0, # of connection points: 2
#     Edge 12, Type (0, 1), BuildingBlock: ZUJKAS_clean_linker_0, # of connection points: 2
#     Edge 13, Type (0, 1), BuildingBlock: ZUJKAS_clean_linker_0, # of connection points: 2
#     Edge 14, Type (0, 1), BuildingBlock: ZUJKAS_clean_linker_0, # of connection points: 2
#     Edge 15, Type (0, 1), BuildingBlock: ZUJKAS_clean_linker_0, # of connection points: 2
#     Edge 16, Type (0, 1), BuildingBlock: ZUJKAS_clean_linker_0, # of connection points: 2
#     Edge 17, Type (0, 1), BuildingBlock: ZUJKAS_clean_linker_0, # of connection points: 2
# Relax obj value: 0.076
# Max RMSD: 0.108
# Mean RMSD: 0.083
data_MOF--net-tsx--node1-VOLQOD_clean_sbu_1--node2-MIDCAF_clean_linker_0--edge1-ZUJKAS_clean_linker_0
_symmetry_space_group_name_H-M    P1
_symmetry_Int_Tables_number       1
_symmetry_cell_setting            triclinic
loop_
_symmetry_equiv_pos_as_xyz
'x, y, z'
_cell_length_a     30.826391
_cell_length_b     31.919237
_cell_length_c     60.874937
_cell_angle_alpha  90.401722
_cell_angle_beta   89.949685
_cell_angle_gamma 90.197923
loop_
_atom_site_label
_atom_site_type_symbol
_atom_site_fract_x
_atom_site_fract_y
_atom_site_fract_z
_atom_type_partial_charge
O0 O 0.03456 0.00608 0.05916 0.0
Zn1 Zn 0.04949 0.00497 0.02692 0.0
O2 O -0.00251 0.00481 0.00858 0.0
Zn3 Zn -0.00444 0.95323 0.99114 0.0
Zn4 Zn 0.94632 0.00783 0.02746 0.0
Zn5 Zn -0.00148 0.05298 0.98886 0.0
O6 O -0.00492 0.96536 0.95876 0.0
O7 O -0.00061 0.03467 0.9571 0.0
O8 O 0.08648 0.95431 0.02112 0.0
O9 O 0.04805 0.918 0.99673 0.0
O10 O 0.94301 0.91858 -0.00167 0.0
O11 O 0.9082 0.95734 0.02305 0.0
O12 O 0.91052 0.05865 0.02094 0.0
O13 O 0.08607 0.05544 0.0206 0.0
O14 O 0.94562 0.08872 0.99333 0.0
O15 O 0.05117 0.08925 0.99426 0.0
C16 C -0.00123 0.00827 0.06957 0.0
C17 C -0.00262 -0.00103 0.94767 0.0
C18 C 0.91101 0.92444 0.01121 0.0
C19 C 0.0815 0.9223 0.00878 0.0
C20 C 0.91392 0.08756 0.00674 0.0
C21 C 0.08313 0.08601 0.00737 0.0
O22 O 0.9627 0.00964 0.05943 0.0
O23 O 0.53502 0.50241 0.56133 0.0
Zn24 Zn 0.5511 0.50009 0.52929 0.0
O25 O 0.5001 0.50546 0.51046 0.0
Zn26 Zn 0.49465 0.45528 0.49215 0.0
Zn27 Zn 0.44846 0.51153 0.5289 0.0
Zn28 Zn 0.50615 0.55452 0.49151 0.0
O29 O 0.49665 0.46917 0.46007 0.0
O30 O 0.5058 0.53813 0.45942 0.0
O31 O 0.58265 0.44588 0.5238 0.0
O32 O 0.54337 0.41525 0.49771 0.0
O33 O 0.43892 0.42479 0.49824 0.0
O34 O 0.40714 0.46336 0.52407 0.0
O35 O 0.41663 0.56478 0.52219 0.0
O36 O 0.59306 0.54696 0.52362 0.0
O37 O 0.45658 0.59448 0.49619 0.0
O38 O 0.56211 0.58534 0.49773 0.0
C39 C 0.4993 0.50803 0.57143 0.0
C40 C 0.50153 0.50311 0.44949 0.0
C41 C 0.4075 0.43147 0.51137 0.0
C42 C 0.57575 0.41539 0.51067 0.0
C43 C 0.42362 0.59455 0.50883 0.0
C44 C 0.59343 0.57837 0.51084 0.0
O45 O 0.46386 0.5126 0.56101 0.0
C46 C 0.87673 0.10388 0.42283 0.0
C47 C 0.88111 0.10943 0.44564 0.0
C48 C 0.9124 0.08591 0.45688 0.0
C49 C 0.93911 0.0579 0.44548 0.0
H50 H 0.02064 0.95559 0.45416 0.0
H51 H 0.06893 0.90783 0.47334 0.0
H52 H 0.13361 0.87917 0.41207 0.0
H53 H 0.08489 0.92575 0.39284 0.0
H54 H 0.04261 0.95222 0.34872 0.0
H55 H 0.04332 0.95296 0.30877 0.0
H56 H 0.94313 0.04723 0.30907 0.0
H57 H 0.94168 0.04609 0.34904 0.0
H58 H 0.89926 0.07282 0.39384 0.0
H59 H 0.85236 0.12087 0.41373 0.0
H60 H 0.91688 0.08974 0.47442 0.0
H61 H 0.96323 0.04066 0.45462 0.0
N62 N 0.99166 -0.0016 0.42122 0.0
N63 N 0.01879 0.97308 0.38771 0.0
N64 N 0.9646 0.02427 0.38799 0.0
C65 C 0.01894 0.97264 0.41002 0.0
C66 C 0.99171 -0.00126 0.37655 0.0
C67 C 0.96438 0.02433 0.41032 0.0
C68 C 0.04868 0.94439 0.42191 0.0
C69 C 0.04516 0.93909 0.44477 0.0
C70 C 0.07297 0.91186 0.45581 0.0
C71 C 0.10495 0.88947 0.44423 0.0
C72 C 0.10875 0.89524 0.42143 0.0
C73 C 0.0809 0.92221 0.41041 0.0
C74 C 0.99207 -0.0009 0.35219 0.0
C75 C 0.02063 0.97311 0.34034 0.0
C76 C 0.02126 0.97368 0.3174 0.0
C77 C 0.99335 0.0002 0.30575 0.0
C78 C 0.96469 0.02608 0.31756 0.0
C79 C 0.96406 0.02556 0.34051 0.0
C80 C 0.93521 0.05292 0.42259 0.0
C81 C 0.90352 0.07608 0.41143 0.0
C82 C 0.9339 0.85484 0.59299 0.0
C83 C 0.93127 0.85749 0.57 0.0
C84 C 0.95507 0.88878 0.55918 0.0
C85 C 0.98046 0.91721 0.57114 0.0
H86 H 0.05618 0.02152 0.5639 0.0
H87 H 0.09433 0.07809 0.54531 0.0
H88 H 0.14134 0.12413 0.60783 0.0
H89 H 0.10267 0.06833 0.6265 0.0
H90 H 0.07221 0.02724 0.66976 0.0
H91 H 0.06854 0.028 0.70965 0.0
H92 H 0.98022 0.92266 0.7079 0.0
H93 H 0.98445 0.92121 0.66796 0.0
H94 H 0.95989 0.88056 0.62267 0.0
H95 H 0.91546 0.83146 0.60185 0.0
H96 H 0.95402 0.89133 0.54145 0.0
H97 H -0.00193 0.94115 0.56226 0.0
N98 N 0.03013 0.97705 0.59658 0.0
N99 N 0.05205 0.00505 0.63049 0.0
N100 N 0.00757 0.94544 0.62933 0.0
C101 C 0.05246 0.00648 0.6082 0.0
C102 C 0.02973 0.97465 0.6412 0.0
C103 C 0.00768 0.94636 0.60701 0.0
C104 C 0.07622 0.04033 0.59674 0.0
C105 C 0.07462 0.04369 0.57372 0.0
C106 C 0.09661 0.07603 0.56302 0.0
C107 C 0.12067 0.1057 0.5751 0.0
C108 C 0.12244 0.10221 0.59808 0.0
C109 C 0.10046 0.06997 0.60877 0.0
C110 C 0.02851 0.97424 0.66556 0.0
C111 C 0.05207 0.0041 0.67781 0.0
C112 C 0.04979 0.00472 0.70072 0.0
C113 C 0.02389 0.97556 0.71196 0.0
C114 C 0.00082 0.94531 0.69976 0.0
C115 C 0.0031 0.94464 0.67682 0.0
C116 C 0.98245 0.91505 0.5942 0.0
C117 C 0.95918 0.88326 0.60495 0.0
C118 C 0.40919 0.62871 0.92627 0.0
C119 C 0.40028 0.62361 0.94872 0.0
C120 C 0.41413 0.58706 0.95927 0.0
C121 C 0.43662 0.55619 0.94757 0.0
H122 H 0.50948 0.44908 0.95562 0.0
H123 H 0.55144 0.39631 0.97494 0.0
H124 H 0.6132 0.36071 0.91386 0.0
H125 H 0.57057 0.41232 0.89449 0.0
H126 H 0.54277 0.45428 0.85047 0.0
H127 H 0.54428 0.45674 0.81055 0.0
H128 H 0.44295 0.55 0.81151 0.0
H129 H 0.44233 0.54854 0.85144 0.0
H130 H 0.43737 0.60266 0.89721 0.0
H131 H 0.39832 0.65634 0.91765 0.0
H132 H 0.40773 0.58245 0.97659 0.0
H133 H 0.44687 0.52833 0.95616 0.0
N134 N 0.48998 0.49747 0.92315 0.0
N135 N 0.51313 0.46942 0.88945 0.0
N136 N 0.46958 0.52939 0.89019 0.0
C137 C 0.51236 0.4679 0.91174 0.0
C138 C 0.49166 0.49996 0.87854 0.0
C139 C 0.46864 0.5284 0.91249 0.0
C140 C 0.53667 0.43502 0.92348 0.0
C141 C 0.53184 0.42983 0.94628 0.0
C142 C 0.55601 0.39969 0.9574 0.0
C143 C 0.58565 0.37424 0.94596 0.0
C144 C 0.59008 0.3792 0.92314 0.0
C145 C 0.56578 0.40908 0.91202 0.0
C146 C 0.49245 0.50124 0.85421 0.0
C147 C 0.52079 0.47534 0.84219 0.0
C148 C 0.52151 0.47658 0.81926 0.0
C149 C 0.4937 0.50353 0.80779 0.0
C150 C 0.46531 0.52935 0.81981 0.0
C151 C 0.46479 0.52834 0.84274 0.0
C152 C 0.44518 0.5611 0.92502 0.0
C153 C 0.43124 0.59774 0.91452 0.0
C154 C 0.39934 0.37925 0.09487 0.0
C155 C 0.39835 0.38103 0.07182 0.0
C156 C 0.42657 0.40862 0.06096 0.0
C157 C 0.4556 0.43355 0.07291 0.0
H158 H 0.54706 0.52555 0.0658 0.0
H159 H 0.59556 0.57424 0.04713 0.0
H160 H 0.6627 0.5981 0.1082 0.0
H161 H 0.61473 0.54932 0.1269 0.0
H162 H 0.5778 0.51213 0.17092 0.0
H163 H 0.57548 0.51365 0.21093 0.0
H164 H 0.45204 0.44937 0.20972 0.0
H165 H 0.45404 0.44786 0.16967 0.0
H166 H 0.42812 0.40189 0.12457 0.0
H167 H 0.37751 0.35871 0.10371 0.0
H168 H 0.42675 0.41041 0.0432 0.0
H169 H 0.47714 0.45423 0.06399 0.0
N170 N 0.51712 0.48223 0.0981 0.0
N171 N 0.54581 0.50457 0.13185 0.0
N172 N 0.48804 0.45669 0.131 0.0
C173 C 0.54611 0.50584 0.10955 0.0
C174 C 0.51683 0.48015 0.1427 0.0
C175 C 0.48809 0.45745 0.10868 0.0
C176 C 0.57683 0.53365 0.0979 0.0
C177 C 0.57237 0.54089 0.07524 0.0
C178 C 0.59999 0.5689 0.06453 0.0
C179 C 0.63283 0.58992 0.07621 0.0
C180 C 0.63796 0.58196 0.09872 0.0
C181 C 0.61022 0.55422 0.10947 0.0
C182 C 0.51606 0.47994 0.16704 0.0
C183 C 0.55015 0.49824 0.17913 0.0
C184 C 0.54899 0.49892 0.20207 0.0
C185 C 0.51355 0.48169 0.21341 0.0
C186 C 0.47956 0.46324 0.20137 0.0
C187 C 0.48089 0.46217 0.17843 0.0
C188 C 0.45687 0.43153 0.096 0.0
C189 C 0.42823 0.40422 0.10683 0.0
H190 H 0.08459 0.1607 0.98525 0.0
H191 H 0.1404 0.21551 0.98728 0.0
H192 H 0.2142 0.13993 0.03215 0.0
H193 H 0.15923 0.08515 0.03016 0.0
H194 H 0.1658 0.25752 0.02566 0.0
H195 H 0.3058 0.17705 0.98764 0.0
H196 H 0.25058 0.15919 0.98394 0.0
H197 H 0.28028 0.14565 0.00832 0.0
C198 C 0.11297 0.15555 0.99534 0.0
C199 C 0.11743 0.11855 0.00757 0.0
C200 C 0.14478 0.18686 0.99645 0.0
C201 C 0.18171 0.18138 0.00955 0.0
C202 C 0.18644 0.14433 0.02152 0.0
H203 H 0.38117 0.29834 0.07851 0.0
H204 H 0.32866 0.25408 0.05919 0.0
C205 C 0.15471 0.11319 0.02052 0.0
C206 C 0.21379 0.21548 0.01243 0.0
H207 H 0.3228 0.23403 0.0127 0.0
C208 C 0.20005 0.25297 0.02234 0.0
C209 C 0.25833 0.20937 0.00796 0.0
C210 C 0.27458 0.17078 0.99616 0.0
C211 C 0.23013 0.28317 0.02949 0.0
C212 C 0.27489 0.27569 0.02635 0.0
C213 C 0.28841 0.23945 0.01518 0.0
C214 C 0.30816 0.30252 0.03683 0.0
C215 C 0.21407 0.32148 0.04163 0.0
C216 C 0.31433 0.34422 0.03039 0.0
C217 C 0.34417 0.36971 0.04152 0.0
C218 C 0.36816 0.3538 0.05924 0.0
C219 C 0.36261 0.31167 0.06519 0.0
C220 C 0.33294 0.28628 0.05406 0.0
H221 H 0.17875 0.31978 0.0452 0.0
H222 H 0.23184 0.32551 0.05737 0.0
H223 H 0.22022 0.3497 0.03154 0.0
H224 H 0.29574 0.35711 0.01696 0.0
H225 H 0.3477 0.4021 0.03662 0.0
H226 H 0.1621 0.92502 0.02779 0.0
H227 H 0.22178 0.87565 0.02213 0.0
H228 H 0.13924 0.79855 0.98131 0.0
H229 H 0.07963 0.84767 0.9866 0.0
H230 H 0.22933 0.7864 0.0292 0.0
H231 H 0.24303 0.83085 0.94149 0.0
H232 H 0.21312 0.86166 0.9613 0.0
H233 H 0.18935 0.81514 0.94953 0.0
C234 C 0.15649 0.89735 0.01778 0.0
C235 C 0.11626 0.89057 0.0074 0.0
C236 C 0.19061 0.8692 0.01461 0.0
C237 C 0.18497 0.83398 0.00102 0.0
C238 C 0.14432 0.82603 0.99155 0.0
H239 H 0.33105 0.61145 0.97588 0.0
H240 H 0.28356 0.665 0.99166 0.0
C241 C 0.1103 0.85412 0.99464 0.0
C242 C 0.22201 0.80652 0.99572 0.0
H243 H 0.28172 0.77029 0.95252 0.0
C244 C 0.24116 0.78304 0.0125 0.0
C245 C 0.2378 0.80297 0.97399 0.0
C246 C 0.2201 0.82928 0.95555 0.0
C247 C 0.27474 0.75467 0.00789 0.0
C248 C 0.28885 0.74944 0.98592 0.0
C249 C 0.2707 0.77415 0.96934 0.0
C250 C 0.32095 0.71738 0.97933 0.0
C251 C 0.29477 0.73065 0.02654 0.0
C252 C 0.3577 0.72904 0.96717 0.0
C253 C 0.38452 0.69852 0.95793 0.0
C254 C 0.37504 0.6558 0.96071 0.0
C255 C 0.33935 0.64416 0.97371 0.0
C256 C 0.31233 0.67473 0.98281 0.0
H257 H 0.29054 0.74735 0.04247 0.0
H258 H 0.27854 0.69969 0.02786 0.0
H259 H 0.32993 0.72537 0.02371 0.0
H260 H 0.36483 0.76179 0.96424 0.0
H261 H 0.4121 0.70829 0.94816 0.0
H262 H 0.91393 0.84393 0.99558 0.0
H263 H 0.86203 0.78763 0.00259 0.0
H264 H 0.78044 0.87384 0.03843 0.0
H265 H 0.83264 0.93013 0.03198 0.0
H266 H 0.79765 0.8049 0.06162 0.0
H267 H 0.74362 0.75865 0.9781 0.0
H268 H 0.80155 0.75876 0.98097 0.0
H269 H 0.77211 0.80712 0.9836 0.0
C270 C 0.88461 0.8511 0.00465 0.0
C271 C 0.87753 0.89146 0.01334 0.0
C272 C 0.85481 0.81892 0.0085 0.0
C273 C 0.81714 0.82668 0.0208 0.0
C274 C 0.80928 0.86726 0.02884 0.0
H275 H 0.60741 0.65177 0.04832 0.0
H276 H 0.65207 0.70857 0.03351 0.0
C277 C 0.83919 0.89935 0.02516 0.0
C278 C 0.7882 0.79177 0.02719 0.0
H279 H 0.72743 0.71054 0.00706 0.0
C280 C 0.78201 0.7845 0.04968 0.0
C281 C 0.76758 0.76541 0.01157 0.0
C282 C 0.77116 0.77308 0.98721 0.0
C283 C 0.75644 0.75109 0.05702 0.0
C284 C 0.73744 0.72361 0.04144 0.0
C285 C 0.74267 0.73136 0.01893 0.0
C286 C 0.71157 0.68699 0.04839 0.0
C287 C 0.74965 0.74582 0.08142 0.0
C288 C 0.73066 0.65544 0.06103 0.0
C289 C 0.70529 0.62311 0.06953 0.0
C290 C 0.6605 0.62158 0.06533 0.0
C291 C 0.6419 0.65205 0.05172 0.0
C292 C 0.66729 0.68453 0.0433 0.0
H293 H 0.75662 0.77526 0.09063 0.0
H294 H 0.71586 0.7359 0.08507 0.0
H295 H 0.77193 0.72132 0.08755 0.0
H296 H 0.76502 0.65638 0.06472 0.0
H297 H 0.72058 0.59962 0.07966 0.0
H298 H 0.84832 0.10318 0.03604 0.0
H299 H 0.78956 0.15402 0.03244 0.0
H300 H 0.84234 0.19412 0.97036 0.0
H301 H 0.9017 0.14442 0.97408 0.0
H302 H 0.81678 0.25974 0.9958 0.0
H303 H 0.68686 0.13858 0.99165 0.0
H304 H 0.71954 0.13773 0.01605 0.0
H305 H 0.74366 0.12564 0.98988 0.0
C306 C 0.84749 0.12294 0.02166 0.0
C307 C 0.87951 0.11954 0.00525 0.0
C308 C 0.81377 0.1518 0.01959 0.0
C309 C 0.81118 0.17725 0.00095 0.0
C310 C 0.84369 0.17466 0.98486 0.0
H311 H 0.60841 0.29541 0.9325 0.0
H312 H 0.66089 0.24878 0.94949 0.0
C313 C 0.87759 0.14618 0.987 0.0
C314 C 0.77438 0.20619 0.99774 0.0
H315 H 0.66518 0.20888 0.98871 0.0
C316 C 0.78353 0.24877 0.99445 0.0
C317 C 0.73114 0.19158 0.99588 0.0
C318 C 0.71956 0.14586 -0.00164 0.0
C319 C 0.7509 0.27696 0.98849 0.0
C320 C 0.70771 0.26227 0.98639 0.0
C321 C 0.69829 0.22001 0.9905 0.0
C322 C 0.67289 0.28914 0.97758 0.0
C323 C 0.76343 0.3216 0.98334 0.0
C324 C 0.66128 0.32673 0.98807 0.0
C325 C 0.63186 0.35392 0.97816 0.0
C326 C 0.61317 0.34363 0.95772 0.0
C327 C 0.623 0.30475 0.94796 0.0
C328 C 0.65266 0.27786 0.95777 0.0
H329 H 0.79903 0.3253 0.98117 0.0
H330 H 0.74709 0.33238 0.96815 0.0
H331 H 0.75323 0.34234 0.99709 0.0
H332 H 0.67583 0.33557 0.00362 0.0
H333 H 0.62508 0.38364 0.9861 0.0
H334 H 0.66631 0.57238 0.53608 0.0
H335 H 0.72629 0.62214 0.53879 0.0
H336 H 0.66606 0.70004 0.49001 0.0
H337 H 0.60536 0.65055 0.48729 0.0
H338 H 0.78408 0.65325 0.50558 0.0
H339 H 0.68278 0.7782 0.54394 0.0
H340 H 0.66482 0.72442 0.54208 0.0
H341 H 0.66419 0.75699 0.51817 0.0
C342 C 0.66572 0.59999 0.52585 0.0
C343 C 0.63076 0.60765 0.51161 0.0
C344 C 0.70016 0.6283 0.52737 0.0
C345 C 0.7003 0.66487 0.51477 0.0
C346 C 0.66617 0.6722 0.50008 0.0
H347 H 0.87623 0.87688 0.53637 0.0
H348 H 0.8234 0.83068 0.51837 0.0
C349 C 0.63161 0.64384 0.49853 0.0
C350 C 0.73556 0.69583 0.51783 0.0
H351 H 0.75713 0.79194 0.54015 0.0
C352 C 0.77824 0.68379 0.5129 0.0
C353 C 0.72767 0.73566 0.52728 0.0
C354 C 0.68248 0.74971 0.53335 0.0
C355 C 0.81347 0.7102 0.51775 0.0
C356 C 0.80573 0.74921 0.52814 0.0
C357 C 0.76292 0.76198 0.53217 0.0
C358 C 0.84139 0.7757 0.5368 0.0
C359 C 0.85865 0.69589 0.51191 0.0
C360 C 0.8692 0.75997 0.55298 0.0
C361 C 0.89949 0.78617 0.56319 0.0
C362 C 0.90228 0.82873 0.55756 0.0
C363 C 0.87522 0.84413 0.54089 0.0
C364 C 0.8449 0.81786 0.53067 0.0
H365 H 0.85816 0.67319 0.49799 0.0
H366 H 0.87979 0.72277 0.50747 0.0
H367 H 0.87313 0.67992 0.52627 0.0
H368 H 0.86642 0.72776 0.5583 0.0
H369 H 0.92016 0.7733 0.57583 0.0
H370 H 0.57736 0.35068 0.48113 0.0
H371 H 0.63124 0.29544 0.47788 0.0
H372 H 0.69815 0.34423 0.53482 0.0
H373 H 0.64477 0.40057 0.53791 0.0
H374 H 0.75296 0.33039 0.50185 0.0
H375 H 0.65048 0.18977 0.5118 0.0
H376 H 0.62879 0.22299 0.49093 0.0
H377 H 0.63163 0.24161 0.51892 0.0
C378 C 0.60316 0.34946 0.49317 0.0
C379 C 0.60674 0.38011 0.50978 0.0
C380 C 0.63378 0.31756 0.49139 0.0
C381 C 0.66823 0.31518 0.50638 0.0
C382 C 0.67159 0.3453 0.5232 0.0
H383 H 0.84238 0.10085 0.486 0.0
H384 H 0.79515 0.1511 0.50488 0.0
C385 C 0.64108 0.37748 0.52491 0.0
C386 C 0.70261 0.28342 0.50312 0.0
H387 H 0.71778 0.17973 0.49171 0.0
C388 C 0.74542 0.29732 0.50006 0.0
C389 C 0.69305 0.24015 0.50126 0.0
C390 C 0.64854 0.22274 0.50616 0.0
C391 C 0.7783 0.26951 0.49372 0.0
C392 C 0.76778 0.22695 0.48979 0.0
C393 C 0.72568 0.21253 0.49434 0.0
C394 C 0.79883 0.19771 0.47929 0.0
C395 C 0.82381 0.28622 0.49094 0.0
C396 C 0.81634 0.20718 0.45863 0.0
C397 C 0.84359 0.17884 0.44794 0.0
C398 C 0.85339 0.14006 0.45753 0.0
C399 C 0.8359 0.13065 0.47829 0.0
C400 C 0.80875 0.1592 0.48905 0.0
H401 H 0.82964 0.3138 0.50178 0.0
H402 H 0.84843 0.26195 0.49463 0.0
H403 H 0.82836 0.29654 0.47371 0.0
H404 H 0.80829 0.23623 0.45054 0.0
H405 H 0.85689 0.18731 0.43211 0.0
H406 H 0.39724 0.35971 0.48701 0.0
H407 H 0.34204 0.30536 0.49161 0.0
H408 H 0.28278 0.37768 0.5436 0.0
H409 H 0.33736 0.43246 0.53897 0.0
H410 H 0.33091 0.26119 0.52979 0.0
H411 H 0.17804 0.34085 0.50737 0.0
H412 H 0.23079 0.36113 0.49992 0.0
H413 H 0.20957 0.36974 0.52712 0.0
C414 C 0.37208 0.36442 0.4992 0.0
C415 C 0.37185 0.4004 0.5127 0.0
C416 C 0.34054 0.33333 0.50177 0.0
C417 C 0.30805 0.33775 0.51775 0.0
C418 C 0.307 0.37409 0.53083 0.0
H419 H 0.12672 0.18786 0.58768 0.0
H420 H 0.17085 0.24287 0.57099 0.0
C421 C 0.33848 0.40523 0.52827 0.0
C422 C 0.27805 0.30263 0.52234 0.0
H423 H 0.17096 0.27757 0.52819 0.0
C424 C 0.29592 0.26448 0.5291 0.0
C425 C 0.23248 0.30718 0.52147 0.0
C426 C 0.21154 0.34682 0.51337 0.0
C427 C 0.26946 0.2313 0.53601 0.0
C428 C 0.2239 0.23625 0.53574 0.0
C429 C 0.20594 0.27396 0.52836 0.0
C430 C 0.19462 0.20363 0.54451 0.0
C431 C 0.29055 0.19198 0.54449 0.0
C432 C 0.19269 0.16366 0.53482 0.0
C433 C 0.16788 0.132 0.54447 0.0
C434 C 0.14444 0.13993 0.56388 0.0
C435 C 0.1451 0.18055 0.57298 0.0
C436 C 0.16995 0.2121 0.56336 0.0
H437 H 0.32568 0.19659 0.54783 0.0
H438 H 0.27452 0.18136 0.55983 0.0
H439 H 0.28719 0.16665 0.53203 0.0
H440 H 0.21106 0.15674 0.52007 0.0
H441 H 0.16816 0.10102 0.5371 0.0
H442 H 0.35698 0.61293 0.53706 0.0
H443 H 0.30148 0.66688 0.53281 0.0
H444 H 0.36188 0.70686 0.47251 0.0
H445 H 0.4181 0.65402 0.47693 0.0
H446 H 0.33541 0.77288 0.49755 0.0
H447 H 0.20292 0.65507 0.48935 0.0
H448 H 0.23288 0.65289 0.51459 0.0
H449 H 0.25943 0.6407 0.48903 0.0
C450 C 0.35859 0.63339 0.52296 0.0
C451 C 0.39172 0.6289 0.50721 0.0
C452 C 0.32674 0.66406 0.52052 0.0
C453 C 0.32707 0.69027 0.50212 0.0
C454 C 0.36095 0.68684 0.48681 0.0
H455 H 0.13213 0.81268 0.42995 0.0
H456 H 0.18456 0.76648 0.44724 0.0
C457 C 0.39303 0.65654 0.48934 0.0
C458 C 0.2915 0.72033 0.49814 0.0
H459 H 0.18344 0.72588 0.48638 0.0
C460 C 0.30207 0.76276 0.49531 0.0
C461 C 0.24811 0.70685 0.4951 0.0
C462 C 0.23504 0.66138 0.49698 0.0
C463 C 0.27075 0.79188 0.48872 0.0
C464 C 0.2275 0.77828 0.48542 0.0
C465 C 0.21661 0.73617 0.48906 0.0
C466 C 0.19417 0.80601 0.47587 0.0
C467 C 0.28475 0.83638 0.48425 0.0
C468 C 0.18156 0.84325 0.48643 0.0
C469 C 0.15201 0.87019 0.47637 0.0
C470 C 0.13434 0.86006 0.45568 0.0
C471 C 0.14586 0.8219 0.44562 0.0
C472 C 0.17551 0.79524 0.45559 0.0
H473 H 0.32061 0.83946 0.48319 0.0
H474 H 0.27042 0.84778 0.46868 0.0
H475 H 0.27331 0.857 0.49779 0.0
H476 H 0.19493 0.85172 0.5023 0.0
H477 H 0.14388 0.89937 0.48454 0.0
H478 H 0.92887 0.01125 0.09729 0.0
H479 H 0.92926 0.0109 0.13742 0.0
H480 H 0.06898 0.00507 0.1372 0.0
H481 H 0.0691 0.00584 0.09704 0.0
H482 H 0.96393 0.9489 0.165 0.0
H483 H 0.04287 0.10353 0.17903 0.0
H484 H 0.01978 0.08844 0.15289 0.0
H485 H 0.07189 0.06879 0.16096 0.0
C486 C 0.95976 0.01014 0.10573 0.0
C487 C -0.00102 0.00873 0.09391 0.0
C488 C 0.95987 0.00989 0.12867 0.0
C489 C -0.00085 0.0085 0.14024 0.0
C490 C 0.03835 0.00694 0.12856 0.0
H491 H 0.06439 -0.0008 0.27876 0.0
H492 H 0.06564 -0.0003 0.23857 0.0
C493 C 0.03831 0.00717 0.1056 0.0
C494 C -0.00108 0.00738 0.16454 0.0
H495 H 0.03195 0.06096 0.21031 0.0
C496 C 0.97864 0.97345 0.17494 0.0
C497 C 0.01829 0.03942 0.17739 0.0
C498 C 0.03914 0.07733 0.16706 0.0
C499 C 0.97769 0.9704 0.19791 0.0
C500 C -0.00313 0.00253 0.21077 0.0
C501 C 0.0173 0.03639 0.20037 0.0
C502 C -0.00415 0.00174 0.23506 0.0
C503 C 0.95691 0.93242 0.20822 0.0
C504 C 0.9562 0.00315 0.24636 0.0
C505 C 0.95535 0.00262 0.26931 0.0
C506 C -0.0058 0.00088 0.28136 0.0
C507 C 0.03389 -0.00011 0.26995 0.0
C508 C 0.03469 0.00046 0.24701 0.0
H509 H 0.95386 0.90603 0.19631 0.0
H510 H 0.97591 0.92167 0.22259 0.0
H511 H 0.92386 0.94069 0.21399 0.0
H512 H 0.92589 0.00486 0.23743 0.0
H513 H 0.92425 0.00312 0.27759 0.0
H514 H -0.00121 0.92835 0.92188 0.0
H515 H 0.0033 0.92421 0.88185 0.0
H516 H 0.00261 0.05908 0.87829 0.0
H517 H -0.00123 0.06367 0.91834 0.0
H518 H 0.94681 0.95499 0.8502 0.0
H519 H 0.11002 0.0275 0.84253 0.0
H520 H 0.08879 0.00913 0.86839 0.0
H521 H 0.07177 0.05875 0.85763 0.0
C522 C -0.00036 0.95719 0.91262 0.0
C523 C -0.00128 -0.00363 0.92336 0.0
C524 C 0.00219 0.95473 0.88974 0.0
C525 C 0.00402 0.99132 0.87716 0.0
C526 C 0.0022 0.03046 0.88775 0.0
H527 H 0.01665 0.04499 0.73828 0.0
H528 H 0.01129 0.04773 0.77834 0.0
C529 C -0.00024 0.033 0.91064 0.0
C530 C 0.00733 0.9885 0.85293 0.0
H531 H 0.07101 0.01603 0.80941 0.0
C532 C 0.97404 0.96813 0.84126 0.0
C533 C 0.04296 0.00564 0.84136 0.0
C534 C 0.08065 0.02615 0.8531 0.0
C535 C 0.97499 0.9652 0.81825 0.0
C536 C 0.01047 0.98261 0.8067 0.0
C537 C 0.04382 0.00283 0.81836 0.0
C538 C 0.01348 0.98052 0.78245 0.0
C539 C 0.93759 0.94437 0.80645 0.0
C540 C 0.01699 0.9418 0.77156 0.0
C541 C 0.02032 0.94011 0.74867 0.0
C542 C 0.02046 0.97717 0.73629 0.0
C543 C 0.01721 0.0159 0.74733 0.0
C544 C 0.0139 0.01754 0.7702 0.0
H545 H 0.90854 0.94153 0.81716 0.0
H546 H 0.92859 0.96212 0.79152 0.0
H547 H 0.94734 0.91237 0.80125 0.0
H548 H 0.01762 0.91291 0.78078 0.0
H549 H 0.02347 0.90984 0.7407 0.0
H550 H 0.4321 0.52983 0.59854 0.0
H551 H 0.43153 0.53134 0.63867 0.0
H552 H 0.56418 0.48883 0.63953 0.0
H553 H 0.56546 0.4882 0.59942 0.0
H554 H 0.44297 0.46816 0.6673 0.0
H555 H 0.56986 0.58924 0.68028 0.0
H556 H 0.54545 0.57946 0.6538 0.0
H557 H 0.58803 0.54608 0.66367 0.0
C558 C 0.46127 0.52101 0.60724 0.0
C559 C 0.49892 0.5091 0.59575 0.0
C560 C 0.46086 0.52189 0.63018 0.0
C561 C 0.49802 0.51086 0.64208 0.0
C562 C 0.53549 0.49849 0.63068 0.0
H563 H 0.50237 0.43753 0.77906 0.0
H564 H 0.50367 0.43963 0.73897 0.0
C565 C 0.53606 0.4979 0.60774 0.0
C566 C 0.49705 0.51102 0.66642 0.0
H567 H 0.54766 0.55096 0.71184 0.0
C568 C 0.46571 0.48642 0.67706 0.0
C569 C 0.52637 0.53532 0.67909 0.0
C570 C 0.55904 0.56435 0.66865 0.0
C571 C 0.4633 0.48493 0.70005 0.0
C572 C 0.49377 0.50787 0.71272 0.0
C573 C 0.52465 0.53302 0.70209 0.0
C574 C 0.49388 0.50662 0.73704 0.0
C575 C 0.42763 0.4594 0.71051 0.0
C576 C 0.48946 0.54377 0.74927 0.0
C577 C 0.4896 0.54281 0.77221 0.0
C578 C 0.49418 0.50463 0.78337 0.0
C579 C 0.49911 0.46751 0.77102 0.0
C580 C 0.49926 0.46856 0.74809 0.0
H581 H 0.40018 0.45402 0.699 0.0
H582 H 0.44066 0.42835 0.71519 0.0
H583 H 0.41501 0.47505 0.72555 0.0
H584 H 0.48567 0.57353 0.74106 0.0
H585 H 0.48654 0.57207 0.78117 0.0
H586 H 0.50941 0.43395 0.42314 0.0
H587 H 0.51226 0.43128 0.38309 0.0
H588 H 0.49755 0.56552 0.38067 0.0
H589 H 0.49594 0.56867 0.42082 0.0
H590 H 0.45308 0.45326 0.35323 0.0
H591 H 0.60204 0.54853 0.34181 0.0
H592 H 0.58546 0.52914 0.36829 0.0
H593 H 0.56069 0.5753 0.35713 0.0
C594 C 0.50693 0.46298 0.41412 0.0
C595 C 0.5027 0.50158 0.42519 0.0
C596 C 0.50856 0.46137 0.39121 0.0
C597 C 0.50584 0.49825 0.37889 0.0
C598 C 0.50085 0.53678 0.38986 0.0
H599 H 0.44527 0.50479 0.23931 0.0
H600 H 0.44291 0.50873 0.27945 0.0
C601 C 0.49967 0.53849 0.41281 0.0
C602 C 0.50723 0.49603 0.35457 0.0
H603 H 0.5617 0.53201 0.30961 0.0
C604 C 0.47691 0.47038 0.34368 0.0
C605 C 0.53874 0.51791 0.34217 0.0
C606 C 0.57386 0.54393 0.35294 0.0
C607 C 0.47699 0.46625 0.32073 0.0
C608 C 0.5075 0.48932 0.30829 0.0
C609 C 0.53807 0.51468 0.31917 0.0
C610 C 0.50877 0.48708 0.28397 0.0
C611 C 0.44505 0.43645 0.3101 0.0
C612 C 0.54695 0.47479 0.27316 0.0
C613 C 0.54852 0.473 0.25024 0.0
C614 C 0.51187 0.48338 0.23772 0.0
C615 C 0.47374 0.49591 0.24857 0.0
C616 C 0.47233 0.49807 0.27148 0.0
H617 H 0.43306 0.41267 0.32191 0.0
H618 H 0.41663 0.45438 0.30419 0.0
H619 H 0.45981 0.41994 0.29584 0.0
H620 H 0.57549 0.46629 0.28248 0.0
H621 H 0.57825 0.46301 0.24231 0.0
loop_
_geom_bond_atom_site_label_1
_geom_bond_atom_site_label_2
_geom_bond_distance
_geom_bond_site_symmetry_2
_ccdc_geom_bond_type
O0 Zn1 1.953 . S
O0 C16 1.225 1_565 S
Zn1 O0 1.953 . S
Zn1 O2 1.949 1_565 S
Zn1 O8 1.919 . S
Zn1 O13 1.924 1_565 S
O2 Zn1 1.949 1_545 S
O2 Zn3 1.923 1_444 S
O2 Zn4 1.950 1_455 S
O2 Zn5 1.945 1_554 S
Zn3 O2 1.923 1_666 S
Zn3 O6 1.934 . S
Zn3 O9 1.941 1_655 S
Zn3 O10 1.960 1_556 S
Zn4 O2 1.950 1_655 S
Zn4 O11 1.938 1_545 S
Zn4 O12 1.906 . S
Zn4 O22 1.953 . S
Zn5 O2 1.945 1_556 S
Zn5 O7 1.932 . S
Zn5 O14 1.977 1_455 S
Zn5 O15 1.910 1_556 S
O6 Zn3 1.934 . S
O6 C17 1.224 1_665 S
O7 Zn5 1.932 . S
O7 C17 1.307 . S
O8 Zn1 1.919 . S
O8 C19 1.253 . S
O9 Zn3 1.941 1_455 S
O9 C19 1.283 1_556 S
O10 Zn3 1.960 1_554 S
O10 C18 1.323 . S
O11 Zn4 1.938 1_565 S
O11 C18 1.247 . S
O12 Zn4 1.906 . S
O12 C20 1.304 . S
O13 Zn1 1.924 1_545 S
O13 C21 1.311 . S
O14 Zn5 1.977 1_655 S
O14 C20 1.272 1_556 S
O15 Zn5 1.910 1_554 S
O15 C21 1.231 . S
C16 O0 1.225 1_545 S
C16 O22 1.298 1_455 S
C17 O6 1.224 1_445 S
C17 O7 1.307 . S
C18 O10 1.323 . S
C18 O11 1.247 . S
C19 O8 1.253 . S
C19 O9 1.283 1_554 S
C20 O12 1.304 . S
C20 O14 1.272 1_554 S
C21 O13 1.311 . S
C21 O15 1.231 . S
O22 Zn4 1.953 . S
O22 C16 1.298 1_655 S
O23 Zn24 1.953 . S
O23 C39 1.225 . S
Zn24 O23 1.953 . S
Zn24 O25 1.949 . S
Zn24 O31 1.919 . S
Zn24 O36 1.924 . S
O25 Zn24 1.949 . S
O25 Zn26 1.923 . S
O25 Zn27 1.950 . S
O25 Zn28 1.945 . S
Zn26 O25 1.923 . S
Zn26 O29 1.933 . S
Zn26 O32 1.941 . S
Zn26 O33 1.965 . S
Zn27 O25 1.950 . S
Zn27 O34 1.938 . S
Zn27 O35 1.906 . S
Zn27 O45 1.953 . S
Zn28 O25 1.945 . S
Zn28 O30 1.932 . S
Zn28 O37 1.977 . S
Zn28 O38 1.910 . S
O29 Zn26 1.933 . S
O29 C40 1.226 . S
O30 Zn28 1.932 . S
O30 C40 1.307 . S
O31 Zn24 1.919 . S
O31 C42 1.253 . S
O32 Zn26 1.941 . S
O32 C42 1.283 . S
O33 Zn26 1.965 . S
O33 C41 1.303 . S
O34 Zn27 1.938 . S
O34 C41 1.247 . S
O35 Zn27 1.906 . S
O35 C43 1.304 . S
O36 Zn24 1.924 . S
O36 C44 1.311 . S
O37 Zn28 1.977 . S
O37 C43 1.272 . S
O38 Zn28 1.910 . S
O38 C44 1.231 . S
C39 O23 1.225 . S
C39 O45 1.298 . S
C40 O29 1.226 . S
C40 O30 1.307 . S
C41 O33 1.303 . S
C41 O34 1.247 . S
C42 O31 1.253 . S
C42 O32 1.283 . S
C43 O35 1.304 . S
C43 O37 1.272 . S
C44 O36 1.311 . S
C44 O38 1.231 . S
O45 Zn27 1.953 . S
O45 C39 1.298 . S
C46 C47 1.384 . S
C46 H59 0.947 . S
C46 C81 1.382 . S
C47 C46 1.384 . S
C47 C48 1.378 . S
C48 C47 1.378 . S
C48 C49 1.378 . S
C48 H60 0.952 . S
C49 C48 1.378 . S
C49 H61 0.950 . S
C49 C80 1.383 . S
H50 C69 0.947 . S
H51 C70 0.946 . S
H52 C72 0.953 . S
H53 C73 0.945 . S
H54 C75 0.952 . S
H55 C76 0.949 . S
H56 C78 0.950 . S
H57 C79 0.948 . S
H58 C81 0.951 . S
H59 C46 0.947 . S
H60 C48 0.952 . S
H61 C49 0.950 . S
N62 C65 1.382 1_545 S
N62 C67 1.363 1_455 S
N63 C65 1.371 . S
N63 C66 1.372 1_565 S
N64 C66 1.361 1_655 S
N64 C67 1.377 . S
C65 N62 1.382 1_565 S
C65 N63 1.371 . S
C65 C68 1.480 . S
C66 N63 1.372 1_545 S
C66 N64 1.361 1_455 S
C66 C74 1.457 . S
C67 N62 1.363 1_655 S
C67 N64 1.377 . S
C67 C80 1.479 . S
C68 C65 1.480 . S
C68 C69 1.383 . S
C68 C73 1.385 . S
C69 H50 0.947 . S
C69 C68 1.383 . S
C69 C70 1.388 . S
C70 H51 0.946 . S
C70 C69 1.388 . S
C70 C71 1.384 . S
C71 C70 1.384 . S
C71 C72 1.377 . S
C72 H52 0.953 . S
C72 C71 1.377 . S
C72 C73 1.369 . S
C73 H53 0.945 . S
C73 C68 1.385 . S
C73 C72 1.369 . S
C74 C66 1.457 . S
C74 C75 1.372 1_545 S
C74 C79 1.364 1_455 S
C75 H54 0.952 . S
C75 C74 1.372 1_565 S
C75 C76 1.389 . S
C76 H55 0.949 . S
C76 C75 1.389 . S
C76 C77 1.387 1_565 S
C77 C76 1.387 1_545 S
C77 C78 1.372 1_455 S
C78 H56 0.950 . S
C78 C77 1.372 1_655 S
C78 C79 1.379 . S
C79 H57 0.948 . S
C79 C74 1.364 1_655 S
C79 C78 1.379 . S
C80 C49 1.383 . S
C80 C67 1.479 . S
C80 C81 1.398 . S
C81 C46 1.382 . S
C81 H58 0.951 . S
C81 C80 1.398 . S
C82 C83 1.384 . S
C82 H95 0.947 . S
C82 C117 1.382 . S
C83 C82 1.384 . S
C83 C84 1.378 . S
C84 C83 1.378 . S
C84 C85 1.378 . S
C84 H96 0.952 . S
C85 C84 1.378 . S
C85 H97 0.950 . S
C85 C116 1.383 . S
H86 C105 0.947 . S
H87 C106 0.946 . S
H88 C108 0.953 . S
H89 C109 0.945 . S
H90 C111 0.952 . S
H91 C112 0.949 . S
H92 C114 0.950 . S
H93 C115 0.948 . S
H94 C117 0.951 . S
H95 C82 0.947 . S
H96 C84 0.952 . S
H97 C85 0.950 . S
N98 C101 1.382 1_565 S
N98 C103 1.363 1_455 S
N99 C101 1.371 . S
N99 C102 1.372 1_545 S
N100 C102 1.361 1_655 S
N100 C103 1.377 . S
C101 N98 1.382 1_545 S
C101 N99 1.371 . S
C101 C104 1.480 . S
C102 N99 1.372 1_565 S
C102 N100 1.361 1_455 S
C102 C110 1.457 . S
C103 N98 1.363 1_655 S
C103 N100 1.377 . S
C103 C116 1.479 . S
C104 C101 1.480 . S
C104 C105 1.383 . S
C104 C109 1.385 . S
C105 H86 0.947 . S
C105 C104 1.383 . S
C105 C106 1.388 . S
C106 H87 0.946 . S
C106 C105 1.388 . S
C106 C107 1.384 . S
C107 C106 1.384 . S
C107 C108 1.377 . S
C108 H88 0.953 . S
C108 C107 1.377 . S
C108 C109 1.369 . S
C109 H89 0.945 . S
C109 C104 1.385 . S
C109 C108 1.369 . S
C110 C102 1.457 . S
C110 C111 1.372 1_565 S
C110 C115 1.364 1_455 S
C111 H90 0.952 . S
C111 C110 1.372 1_545 S
C111 C112 1.389 . S
C112 H91 0.949 . S
C112 C111 1.389 . S
C112 C113 1.397 . S
C113 C112 1.397 . S
C113 C114 1.361 1_445 S
C114 H92 0.950 . S
C114 C113 1.361 1_665 S
C114 C115 1.379 . S
C115 H93 0.948 . S
C115 C110 1.364 1_655 S
C115 C114 1.379 . S
C116 C85 1.383 . S
C116 C103 1.479 . S
C116 C117 1.398 . S
C117 C82 1.382 . S
C117 H94 0.951 . S
C117 C116 1.398 . S
C118 C119 1.384 . S
C118 H131 0.947 . S
C118 C153 1.382 . S
C119 C118 1.384 . S
C119 C120 1.378 . S
C120 C119 1.378 . S
C120 C121 1.378 . S
C120 H132 0.952 . S
C121 C120 1.378 . S
C121 H133 0.950 . S
C121 C152 1.383 . S
H122 C141 0.947 . S
H123 C142 0.946 . S
H124 C144 0.953 . S
H125 C145 0.945 . S
H126 C147 0.952 . S
H127 C148 0.949 . S
H128 C150 0.950 . S
H129 C151 0.948 . S
H130 C153 0.951 . S
H131 C118 0.947 . S
H132 C120 0.952 . S
H133 C121 0.950 . S
N134 C137 1.382 . S
N134 C139 1.363 . S
N135 C137 1.371 . S
N135 C138 1.372 . S
N136 C138 1.361 . S
N136 C139 1.377 . S
C137 N134 1.382 . S
C137 N135 1.371 . S
C137 C140 1.480 . S
C138 N135 1.372 . S
C138 N136 1.361 . S
C138 C146 1.457 . S
C139 N134 1.363 . S
C139 N136 1.377 . S
C139 C152 1.479 . S
C140 C137 1.480 . S
C140 C141 1.383 . S
C140 C145 1.385 . S
C141 H122 0.947 . S
C141 C140 1.383 . S
C141 C142 1.388 . S
C142 H123 0.946 . S
C142 C141 1.388 . S
C142 C143 1.384 . S
C143 C142 1.384 . S
C143 C144 1.377 . S
C144 H124 0.953 . S
C144 C143 1.377 . S
C144 C145 1.369 . S
C145 H125 0.945 . S
C145 C140 1.385 . S
C145 C144 1.369 . S
C146 C138 1.457 . S
C146 C147 1.372 . S
C146 C151 1.364 . S
C147 H126 0.952 . S
C147 C146 1.372 . S
C147 C148 1.389 . S
C148 H127 0.949 . S
C148 C147 1.389 . S
C148 C149 1.387 . S
C149 C148 1.387 . S
C149 C150 1.372 . S
C150 H128 0.950 . S
C150 C149 1.372 . S
C150 C151 1.379 . S
C151 H129 0.948 . S
C151 C146 1.364 . S
C151 C150 1.379 . S
C152 C121 1.383 . S
C152 C139 1.479 . S
C152 C153 1.398 . S
C153 C118 1.382 . S
C153 H130 0.951 . S
C153 C152 1.398 . S
C154 C155 1.384 . S
C154 H167 0.947 . S
C154 C189 1.382 . S
C155 C154 1.384 . S
C155 C156 1.378 . S
C156 C155 1.378 . S
C156 C157 1.378 . S
C156 H168 0.952 . S
C157 C156 1.378 . S
C157 H169 0.950 . S
C157 C188 1.383 . S
H158 C177 0.947 . S
H159 C178 0.946 . S
H160 C180 0.953 . S
H161 C181 0.945 . S
H162 C183 0.952 . S
H163 C184 0.949 . S
H164 C186 0.950 . S
H165 C187 0.948 . S
H166 C189 0.951 . S
H167 C154 0.947 . S
H168 C156 0.952 . S
H169 C157 0.950 . S
N170 C173 1.382 . S
N170 C175 1.363 . S
N171 C173 1.371 . S
N171 C174 1.372 . S
N172 C174 1.361 . S
N172 C175 1.377 . S
C173 N170 1.382 . S
C173 N171 1.371 . S
C173 C176 1.480 . S
C174 N171 1.372 . S
C174 N172 1.361 . S
C174 C182 1.457 . S
C175 N170 1.363 . S
C175 N172 1.377 . S
C175 C188 1.479 . S
C176 C173 1.480 . S
C176 C177 1.383 . S
C176 C181 1.385 . S
C177 H158 0.947 . S
C177 C176 1.383 . S
C177 C178 1.388 . S
C178 H159 0.946 . S
C178 C177 1.388 . S
C178 C179 1.384 . S
C179 C178 1.384 . S
C179 C180 1.377 . S
C180 H160 0.953 . S
C180 C179 1.377 . S
C180 C181 1.369 . S
C181 H161 0.945 . S
C181 C176 1.385 . S
C181 C180 1.369 . S
C182 C174 1.457 . S
C182 C183 1.372 . S
C182 C187 1.364 . S
C183 H162 0.952 . S
C183 C182 1.372 . S
C183 C184 1.389 . S
C184 H163 0.949 . S
C184 C183 1.389 . S
C184 C185 1.387 . S
C185 C184 1.387 . S
C185 C186 1.372 . S
C186 H164 0.950 . S
C186 C185 1.372 . S
C186 C187 1.379 . S
C187 H165 0.948 . S
C187 C182 1.364 . S
C187 C186 1.379 . S
C188 C157 1.383 . S
C188 C175 1.479 . S
C188 C189 1.398 . S
C189 C154 1.382 . S
C189 H166 0.951 . S
C189 C188 1.398 . S
H190 C198 0.929 . S
H191 C200 0.930 . S
H192 C202 0.930 . S
H193 C205 0.929 . S
H194 C208 0.930 . S
H195 C210 0.960 . S
H196 C210 0.960 . S
H197 C210 0.960 . S
C198 H190 0.929 . S
C198 C199 1.377 . S
C198 C200 1.384 . S
C199 C198 1.377 . S
C199 C205 1.390 . S
C200 H191 0.930 . S
C200 C198 1.384 . S
C200 C201 1.372 . S
C201 C200 1.372 . S
C201 C202 1.400 . S
C201 C206 1.490 . S
C202 H192 0.930 . S
C202 C201 1.400 . S
C202 C205 1.386 . S
H203 C219 0.930 . S
H204 C220 0.931 . S
C205 H193 0.929 . S
C205 C199 1.390 . S
C205 C202 1.386 . S
C206 C201 1.490 . S
C206 C208 1.395 . S
C206 C209 1.403 . S
H207 C213 0.930 . S
C208 H194 0.930 . S
C208 C206 1.395 . S
C208 C211 1.403 . S
C209 C206 1.403 . S
C209 C210 1.524 . S
C209 C213 1.400 . S
C210 H195 0.960 . S
C210 H196 0.960 . S
C210 H197 0.960 . S
C210 C209 1.524 . S
C211 C208 1.403 . S
C211 C212 1.392 . S
C211 C215 1.495 . S
C212 C211 1.392 . S
C212 C213 1.385 . S
C212 C214 1.478 . S
C213 H207 0.930 . S
C213 C209 1.400 . S
C213 C212 1.385 . S
C214 C212 1.478 . S
C214 C216 1.381 . S
C214 C220 1.383 . S
C215 C211 1.495 . S
C215 H221 0.959 . S
C215 H222 0.961 . S
C215 H223 0.960 . S
C216 C214 1.381 . S
C216 C217 1.394 . S
C216 H224 0.930 . S
C217 C216 1.394 . S
C217 C218 1.383 . S
C217 H225 0.929 . S
C218 C217 1.383 . S
C218 C219 1.377 . S
C219 H203 0.930 . S
C219 C218 1.377 . S
C219 C220 1.379 . S
C220 H204 0.931 . S
C220 C214 1.383 . S
C220 C219 1.379 . S
H221 C215 0.959 . S
H222 C215 0.961 . S
H223 C215 0.960 . S
H224 C216 0.930 . S
H225 C217 0.929 . S
H226 C234 0.929 . S
H227 C236 0.930 . S
H228 C238 0.930 . S
H229 C241 0.929 . S
H230 C244 0.930 . S
H231 C246 0.960 . S
H232 C246 0.960 . S
H233 C246 0.960 . S
C234 H226 0.929 . S
C234 C235 1.377 . S
C234 C236 1.384 . S
C235 C234 1.377 . S
C235 C241 1.390 1_556 S
C236 H227 0.930 . S
C236 C234 1.384 . S
C236 C237 1.372 . S
C237 C236 1.372 . S
C237 C238 1.400 . S
C237 C242 1.490 . S
C238 H228 0.930 . S
C238 C237 1.400 . S
C238 C241 1.386 1_556 S
H239 C255 0.930 . S
H240 C256 0.931 . S
C241 H229 0.929 . S
C241 C235 1.390 1_554 S
C241 C238 1.386 1_554 S
C242 C237 1.490 . S
C242 C244 1.395 . S
C242 C245 1.403 . S
H243 C249 0.930 . S
C244 H230 0.930 . S
C244 C242 1.395 . S
C244 C247 1.403 . S
C245 C242 1.403 . S
C245 C246 1.524 . S
C245 C249 1.400 . S
C246 H231 0.960 . S
C246 H232 0.960 . S
C246 H233 0.960 . S
C246 C245 1.524 . S
C247 C244 1.403 . S
C247 C248 1.392 . S
C247 C251 1.495 . S
C248 C247 1.392 . S
C248 C249 1.385 . S
C248 C250 1.478 . S
C249 H243 0.930 . S
C249 C245 1.400 . S
C249 C248 1.385 . S
C250 C248 1.478 . S
C250 C252 1.381 . S
C250 C256 1.383 . S
C251 C247 1.495 . S
C251 H257 0.959 1_556 S
C251 H258 0.961 1_556 S
C251 H259 0.960 . S
C252 C250 1.381 . S
C252 C253 1.394 . S
C252 H260 0.930 . S
C253 C252 1.394 . S
C253 C254 1.383 . S
C253 H261 0.929 . S
C254 C253 1.383 . S
C254 C255 1.377 . S
C255 H239 0.930 . S
C255 C254 1.377 . S
C255 C256 1.379 . S
C256 H240 0.931 . S
C256 C250 1.383 . S
C256 C255 1.379 . S
H257 C251 0.959 1_554 S
H258 C251 0.961 1_554 S
H259 C251 0.960 . S
H260 C252 0.930 . S
H261 C253 0.929 . S
H262 C270 0.929 . S
H263 C272 0.930 . S
H264 C274 0.930 . S
H265 C277 0.929 . S
H266 C280 0.930 . S
H267 C282 0.960 1_556 S
H268 C282 0.962 . S
H269 C282 0.964 . S
C270 H262 0.929 . S
C270 C271 1.377 . S
C270 C272 1.384 . S
C271 C270 1.377 . S
C271 C277 1.390 . S
C272 H263 0.930 . S
C272 C270 1.384 . S
C272 C273 1.372 . S
C273 C272 1.372 . S
C273 C274 1.400 . S
C273 C278 1.490 . S
C274 H264 0.930 . S
C274 C273 1.400 . S
C274 C277 1.386 . S
H275 C291 0.930 . S
H276 C292 0.931 . S
C277 H265 0.929 . S
C277 C271 1.390 . S
C277 C274 1.386 . S
C278 C273 1.490 . S
C278 C280 1.395 . S
C278 C281 1.403 . S
H279 C285 0.930 . S
C280 H266 0.930 . S
C280 C278 1.395 . S
C280 C283 1.403 . S
C281 C278 1.403 . S
C281 C282 1.524 . S
C281 C285 1.400 . S
C282 H267 0.960 1_554 S
C282 H268 0.962 . S
C282 H269 0.964 . S
C282 C281 1.524 . S
C283 C280 1.403 . S
C283 C284 1.392 . S
C283 C287 1.495 . S
C284 C283 1.392 . S
C284 C285 1.385 . S
C284 C286 1.478 . S
C285 H279 0.930 . S
C285 C281 1.400 . S
C285 C284 1.385 . S
C286 C284 1.478 . S
C286 C288 1.381 . S
C286 C292 1.383 . S
C287 C283 1.495 . S
C287 H293 0.959 . S
C287 H294 0.961 . S
C287 H295 0.960 . S
C288 C286 1.381 . S
C288 C289 1.394 . S
C288 H296 0.930 . S
C289 C288 1.394 . S
C289 C290 1.383 . S
C289 H297 0.929 . S
C290 C289 1.383 . S
C290 C291 1.377 . S
C291 H275 0.930 . S
C291 C290 1.377 . S
C291 C292 1.379 . S
C292 H276 0.931 . S
C292 C286 1.383 . S
C292 C291 1.379 . S
H293 C287 0.959 . S
H294 C287 0.961 . S
H295 C287 0.960 . S
H296 C288 0.930 . S
H297 C289 0.929 . S
H298 C306 0.929 . S
H299 C308 0.930 . S
H300 C310 0.930 . S
H301 C313 0.929 . S
H302 C316 0.930 . S
H303 C318 0.960 . S
H304 C318 1.007 . S
H305 C318 0.960 . S
C306 H298 0.929 . S
C306 C307 1.377 1_554 S
C306 C308 1.384 . S
C307 C306 1.377 1_556 S
C307 C313 1.390 . S
C308 H299 0.930 . S
C308 C306 1.384 . S
C308 C309 1.372 1_554 S
C309 C308 1.372 1_556 S
C309 C310 1.400 . S
C309 C314 1.490 . S
C310 H300 0.930 . S
C310 C309 1.400 . S
C310 C313 1.386 . S
H311 C327 0.930 . S
H312 C328 0.931 . S
C313 H301 0.929 . S
C313 C307 1.390 . S
C313 C310 1.386 . S
C314 C309 1.490 . S
C314 C316 1.395 . S
C314 C317 1.403 . S
H315 C321 0.930 . S
C316 H302 0.930 . S
C316 C314 1.395 . S
C316 C319 1.403 . S
C317 C314 1.403 . S
C317 C318 1.524 . S
C317 C321 1.400 . S
C318 H303 0.960 . S
C318 H304 1.007 . S
C318 H305 0.960 . S
C318 C317 1.524 . S
C319 C316 1.403 . S
C319 C320 1.392 . S
C319 C323 1.495 . S
C320 C319 1.392 . S
C320 C321 1.385 . S
C320 C322 1.478 . S
C321 H315 0.930 . S
C321 C317 1.400 . S
C321 C320 1.385 . S
C322 C320 1.478 . S
C322 C324 1.381 . S
C322 C328 1.383 . S
C323 C319 1.495 . S
C323 H329 0.959 . S
C323 H330 0.961 . S
C323 H331 0.960 . S
C324 C322 1.381 . S
C324 C325 1.394 . S
C324 H332 0.930 . S
C325 C324 1.394 . S
C325 C326 1.383 . S
C325 H333 0.929 . S
C326 C325 1.383 . S
C326 C327 1.377 . S
C327 H311 0.930 . S
C327 C326 1.377 . S
C327 C328 1.379 . S
C328 H312 0.931 . S
C328 C322 1.383 . S
C328 C327 1.379 . S
H329 C323 0.959 . S
H330 C323 0.961 . S
H331 C323 0.960 . S
H332 C324 0.930 . S
H333 C325 0.929 . S
H334 C342 0.929 . S
H335 C344 0.930 . S
H336 C346 0.930 . S
H337 C349 0.929 . S
H338 C352 0.930 . S
H339 C354 0.960 . S
H340 C354 0.960 . S
H341 C354 0.960 . S
C342 H334 0.929 . S
C342 C343 1.377 . S
C342 C344 1.384 . S
C343 C342 1.377 . S
C343 C349 1.390 . S
C344 H335 0.930 . S
C344 C342 1.384 . S
C344 C345 1.372 . S
C345 C344 1.372 . S
C345 C346 1.400 . S
C345 C350 1.490 . S
C346 H336 0.930 . S
C346 C345 1.400 . S
C346 C349 1.386 . S
H347 C363 0.930 . S
H348 C364 0.931 . S
C349 H337 0.929 . S
C349 C343 1.390 . S
C349 C346 1.386 . S
C350 C345 1.490 . S
C350 C352 1.395 . S
C350 C353 1.403 . S
H351 C357 0.930 . S
C352 H338 0.930 . S
C352 C350 1.395 . S
C352 C355 1.403 . S
C353 C350 1.403 . S
C353 C354 1.524 . S
C353 C357 1.400 . S
C354 H339 0.960 . S
C354 H340 0.960 . S
C354 H341 0.960 . S
C354 C353 1.524 . S
C355 C352 1.403 . S
C355 C356 1.392 . S
C355 C359 1.495 . S
C356 C355 1.392 . S
C356 C357 1.385 . S
C356 C358 1.478 . S
C357 H351 0.930 . S
C357 C353 1.400 . S
C357 C356 1.385 . S
C358 C356 1.478 . S
C358 C360 1.381 . S
C358 C364 1.383 . S
C359 C355 1.495 . S
C359 H365 0.959 . S
C359 H366 0.961 . S
C359 H367 0.960 . S
C360 C358 1.381 . S
C360 C361 1.394 . S
C360 H368 0.930 . S
C361 C360 1.394 . S
C361 C362 1.383 . S
C361 H369 0.929 . S
C362 C361 1.383 . S
C362 C363 1.377 . S
C363 H347 0.930 . S
C363 C362 1.377 . S
C363 C364 1.379 . S
C364 H348 0.931 . S
C364 C358 1.383 . S
C364 C363 1.379 . S
H365 C359 0.959 . S
H366 C359 0.961 . S
H367 C359 0.960 . S
H368 C360 0.930 . S
H369 C361 0.929 . S
H370 C378 0.929 . S
H371 C380 0.930 . S
H372 C382 0.930 . S
H373 C385 0.929 . S
H374 C388 0.930 . S
H375 C390 0.960 . S
H376 C390 0.960 . S
H377 C390 0.960 . S
C378 H370 0.929 . S
C378 C379 1.377 . S
C378 C380 1.384 . S
C379 C378 1.377 . S
C379 C385 1.390 . S
C380 H371 0.930 . S
C380 C378 1.384 . S
C380 C381 1.372 . S
C381 C380 1.372 . S
C381 C382 1.400 . S
C381 C386 1.490 . S
C382 H372 0.930 . S
C382 C381 1.400 . S
C382 C385 1.386 . S
H383 C399 0.930 . S
H384 C400 0.931 . S
C385 H373 0.929 . S
C385 C379 1.390 . S
C385 C382 1.386 . S
C386 C381 1.490 . S
C386 C388 1.395 . S
C386 C389 1.403 . S
H387 C393 0.930 . S
C388 H374 0.930 . S
C388 C386 1.395 . S
C388 C391 1.403 . S
C389 C386 1.403 . S
C389 C390 1.524 . S
C389 C393 1.400 . S
C390 H375 0.960 . S
C390 H376 0.960 . S
C390 H377 0.960 . S
C390 C389 1.524 . S
C391 C388 1.403 . S
C391 C392 1.392 . S
C391 C395 1.495 . S
C392 C391 1.392 . S
C392 C393 1.385 . S
C392 C394 1.478 . S
C393 H387 0.930 . S
C393 C389 1.400 . S
C393 C392 1.385 . S
C394 C392 1.478 . S
C394 C396 1.381 . S
C394 C400 1.383 . S
C395 C391 1.495 . S
C395 H401 0.959 . S
C395 H402 0.961 . S
C395 H403 0.960 . S
C396 C394 1.381 . S
C396 C397 1.394 . S
C396 H404 0.930 . S
C397 C396 1.394 . S
C397 C398 1.383 . S
C397 H405 0.929 . S
C398 C397 1.383 . S
C398 C399 1.377 . S
C399 H383 0.930 . S
C399 C398 1.377 . S
C399 C400 1.379 . S
C400 H384 0.931 . S
C400 C394 1.383 . S
C400 C399 1.379 . S
H401 C395 0.959 . S
H402 C395 0.961 . S
H403 C395 0.960 . S
H404 C396 0.930 . S
H405 C397 0.929 . S
H406 C414 0.929 . S
H407 C416 0.930 . S
H408 C418 0.930 . S
H409 C421 0.929 . S
H410 C424 0.930 . S
H411 C426 0.960 . S
H412 C426 0.960 . S
H413 C426 0.960 . S
C414 H406 0.929 . S
C414 C415 1.377 . S
C414 C416 1.384 . S
C415 C414 1.377 . S
C415 C421 1.390 . S
C416 H407 0.930 . S
C416 C414 1.384 . S
C416 C417 1.372 . S
C417 C416 1.372 . S
C417 C418 1.400 . S
C417 C422 1.490 . S
C418 H408 0.930 . S
C418 C417 1.400 . S
C418 C421 1.386 . S
H419 C435 0.930 . S
H420 C436 0.931 . S
C421 H409 0.929 . S
C421 C415 1.390 . S
C421 C418 1.386 . S
C422 C417 1.490 . S
C422 C424 1.395 . S
C422 C425 1.403 . S
H423 C429 0.930 . S
C424 H410 0.930 . S
C424 C422 1.395 . S
C424 C427 1.403 . S
C425 C422 1.403 . S
C425 C426 1.524 . S
C425 C429 1.400 . S
C426 H411 0.960 . S
C426 H412 0.960 . S
C426 H413 0.960 . S
C426 C425 1.524 . S
C427 C424 1.403 . S
C427 C428 1.392 . S
C427 C431 1.495 . S
C428 C427 1.392 . S
C428 C429 1.385 . S
C428 C430 1.478 . S
C429 H423 0.930 . S
C429 C425 1.400 . S
C429 C428 1.385 . S
C430 C428 1.478 . S
C430 C432 1.381 . S
C430 C436 1.383 . S
C431 C427 1.495 . S
C431 H437 0.959 . S
C431 H438 0.961 . S
C431 H439 0.960 . S
C432 C430 1.381 . S
C432 C433 1.394 . S
C432 H440 0.930 . S
C433 C432 1.394 . S
C433 C434 1.383 . S
C433 H441 0.929 . S
C434 C433 1.383 . S
C434 C435 1.377 . S
C435 H419 0.930 . S
C435 C434 1.377 . S
C435 C436 1.379 . S
C436 H420 0.931 . S
C436 C430 1.383 . S
C436 C435 1.379 . S
H437 C431 0.959 . S
H438 C431 0.961 . S
H439 C431 0.960 . S
H440 C432 0.930 . S
H441 C433 0.929 . S
H442 C450 0.929 . S
H443 C452 0.930 . S
H444 C454 0.930 . S
H445 C457 0.929 . S
H446 C460 0.930 . S
H447 C462 0.960 . S
H448 C462 0.960 . S
H449 C462 0.960 . S
C450 H442 0.929 . S
C450 C451 1.377 . S
C450 C452 1.384 . S
C451 C450 1.377 . S
C451 C457 1.390 . S
C452 H443 0.930 . S
C452 C450 1.384 . S
C452 C453 1.372 . S
C453 C452 1.372 . S
C453 C454 1.400 . S
C453 C458 1.490 . S
C454 H444 0.930 . S
C454 C453 1.400 . S
C454 C457 1.386 . S
H455 C471 0.930 . S
H456 C472 0.931 . S
C457 H445 0.929 . S
C457 C451 1.390 . S
C457 C454 1.386 . S
C458 C453 1.490 . S
C458 C460 1.395 . S
C458 C461 1.403 . S
H459 C465 0.930 . S
C460 H446 0.930 . S
C460 C458 1.395 . S
C460 C463 1.403 . S
C461 C458 1.403 . S
C461 C462 1.524 . S
C461 C465 1.400 . S
C462 H447 0.960 . S
C462 H448 0.960 . S
C462 H449 0.960 . S
C462 C461 1.524 . S
C463 C460 1.403 . S
C463 C464 1.392 . S
C463 C467 1.495 . S
C464 C463 1.392 . S
C464 C465 1.385 . S
C464 C466 1.478 . S
C465 H459 0.930 . S
C465 C461 1.400 . S
C465 C464 1.385 . S
C466 C464 1.478 . S
C466 C468 1.381 . S
C466 C472 1.383 . S
C467 C463 1.495 . S
C467 H473 0.959 . S
C467 H474 0.961 . S
C467 H475 0.960 . S
C468 C466 1.381 . S
C468 C469 1.394 . S
C468 H476 0.930 . S
C469 C468 1.394 . S
C469 C470 1.383 . S
C469 H477 0.929 . S
C470 C469 1.383 . S
C470 C471 1.377 . S
C471 H455 0.930 . S
C471 C470 1.377 . S
C471 C472 1.379 . S
C472 H456 0.931 . S
C472 C466 1.383 . S
C472 C471 1.379 . S
H473 C467 0.959 . S
H474 C467 0.961 . S
H475 C467 0.960 . S
H476 C468 0.930 . S
H477 C469 0.929 . S
H478 C486 0.929 . S
H479 C488 0.930 . S
H480 C490 0.930 . S
H481 C493 0.929 . S
H482 C496 0.930 . S
H483 C498 0.960 . S
H484 C498 0.960 . S
H485 C498 0.960 1_455 S
C486 H478 0.929 . S
C486 C487 1.377 1_665 S
C486 C488 1.384 . S
C487 C486 1.377 1_445 S
C487 C493 1.390 . S
C488 H479 0.930 . S
C488 C486 1.384 . S
C488 C489 1.372 1_665 S
C489 C488 1.372 1_445 S
C489 C490 1.400 . S
C489 C494 1.491 . S
C490 H480 0.930 . S
C490 C489 1.400 . S
C490 C493 1.386 . S
H491 C507 0.930 . S
H492 C508 0.931 . S
C493 H481 0.929 . S
C493 C487 1.390 . S
C493 C490 1.386 . S
C494 C489 1.491 . S
C494 C496 1.372 1_545 S
C494 C497 1.424 . S
H495 C501 0.930 . S
C496 H482 0.930 . S
C496 C494 1.372 1_565 S
C496 C499 1.403 . S
C497 C494 1.424 . S
C497 C498 1.522 1_455 S
C497 C501 1.400 . S
C498 H483 0.960 . S
C498 H484 0.960 . S
C498 H485 0.960 1_655 S
C498 C497 1.522 1_655 S
C499 C496 1.403 . S
C499 C500 1.392 . S
C499 C503 1.495 . S
C500 C499 1.392 . S
C500 C501 1.385 1_565 S
C500 C502 1.478 . S
C501 H495 0.930 . S
C501 C497 1.400 . S
C501 C500 1.385 1_545 S
C502 C500 1.478 . S
C502 C504 1.381 1_455 S
C502 C508 1.383 1_565 S
C503 C499 1.495 . S
C503 H509 0.959 . S
C503 H510 0.961 . S
C503 H511 0.960 1_455 S
C504 C502 1.381 1_655 S
C504 C505 1.394 . S
C504 H512 0.930 . S
C505 C504 1.394 . S
C505 C506 1.362 1_655 S
C505 H513 0.929 . S
C506 C505 1.362 1_455 S
C506 C507 1.398 1_565 S
C507 H491 0.930 . S
C507 C506 1.398 1_545 S
C507 C508 1.379 . S
C508 H492 0.931 . S
C508 C502 1.383 1_545 S
C508 C507 1.379 . S
H509 C503 0.959 . S
H510 C503 0.961 . S
H511 C503 0.960 1_655 S
H512 C504 0.930 . S
H513 C505 0.929 . S
H514 C522 0.929 . S
H515 C524 0.930 . S
H516 C526 0.930 . S
H517 C529 0.929 . S
H518 C532 0.930 1_655 S
H519 C534 0.960 . S
H520 C534 0.960 . S
H521 C534 0.960 . S
C522 H514 0.929 . S
C522 C523 1.377 1_565 S
C522 C524 1.384 . S
C523 C522 1.377 1_545 S
C523 C529 1.390 1_455 S
C524 H515 0.930 . S
C524 C522 1.384 . S
C524 C525 1.372 1_565 S
C525 C524 1.372 1_545 S
C525 C526 1.400 1_455 S
C525 C530 1.490 . S
C526 H516 0.930 . S
C526 C525 1.400 1_655 S
C526 C529 1.386 . S
H527 C543 0.930 . S
H528 C544 0.931 . S
C529 H517 0.929 . S
C529 C523 1.390 1_655 S
C529 C526 1.386 . S
C530 C525 1.490 . S
C530 C532 1.395 1_545 S
C530 C533 1.403 . S
H531 C537 0.930 . S
C532 H518 0.930 1_455 S
C532 C530 1.395 1_565 S
C532 C535 1.403 . S
C533 C530 1.403 . S
C533 C534 1.524 . S
C533 C537 1.400 . S
C534 H519 0.960 . S
C534 H520 0.960 . S
C534 H521 0.960 . S
C534 C533 1.524 . S
C535 C532 1.403 . S
C535 C536 1.392 . S
C535 C539 1.495 1_455 S
C536 C535 1.392 . S
C536 C537 1.385 1_565 S
C536 C538 1.478 . S
C537 H531 0.930 . S
C537 C533 1.400 . S
C537 C536 1.385 1_545 S
C538 C536 1.478 . S
C538 C540 1.381 . S
C538 C544 1.383 1_465 S
C539 C535 1.495 1_655 S
C539 H545 0.959 . S
C539 H546 0.961 . S
C539 H547 0.960 1_655 S
C540 C538 1.381 . S
C540 C541 1.394 . S
C540 H548 0.930 . S
C541 C540 1.394 . S
C541 C542 1.371 1_565 S
C541 H549 0.929 . S
C542 C541 1.371 1_545 S
C542 C543 1.388 1_455 S
C543 H527 0.930 . S
C543 C542 1.388 1_655 S
C543 C544 1.379 . S
C544 H528 0.931 . S
C544 C538 1.383 1_645 S
C544 C543 1.379 . S
H545 C539 0.959 . S
H546 C539 0.961 . S
H547 C539 0.960 1_455 S
H548 C540 0.930 . S
H549 C541 0.929 . S
H550 C558 0.929 . S
H551 C560 0.930 . S
H552 C562 0.930 . S
H553 C565 0.929 . S
H554 C568 0.930 . S
H555 C570 0.960 . S
H556 C570 0.960 . S
H557 C570 0.960 . S
C558 H550 0.929 . S
C558 C559 1.377 . S
C558 C560 1.384 . S
C559 C558 1.377 . S
C559 C565 1.390 . S
C560 H551 0.930 . S
C560 C558 1.384 . S
C560 C561 1.372 . S
C561 C560 1.372 . S
C561 C562 1.400 . S
C561 C566 1.490 . S
C562 H552 0.930 . S
C562 C561 1.400 . S
C562 C565 1.386 . S
H563 C579 0.930 . S
H564 C580 0.931 . S
C565 H553 0.929 . S
C565 C559 1.390 . S
C565 C562 1.386 . S
C566 C561 1.490 . S
C566 C568 1.395 . S
C566 C569 1.403 . S
H567 C573 0.930 . S
C568 H554 0.930 . S
C568 C566 1.395 . S
C568 C571 1.403 . S
C569 C566 1.403 . S
C569 C570 1.524 . S
C569 C573 1.400 . S
C570 H555 0.960 . S
C570 H556 0.960 . S
C570 H557 0.960 . S
C570 C569 1.524 . S
C571 C568 1.403 . S
C571 C572 1.392 . S
C571 C575 1.495 . S
C572 C571 1.392 . S
C572 C573 1.385 . S
C572 C574 1.478 . S
C573 H567 0.930 . S
C573 C569 1.400 . S
C573 C572 1.385 . S
C574 C572 1.478 . S
C574 C576 1.381 . S
C574 C580 1.383 . S
C575 C571 1.495 . S
C575 H581 0.959 . S
C575 H582 0.961 . S
C575 H583 0.960 . S
C576 C574 1.381 . S
C576 C577 1.394 . S
C576 H584 0.930 . S
C577 C576 1.394 . S
C577 C578 1.383 . S
C577 H585 0.929 . S
C578 C577 1.383 . S
C578 C579 1.377 . S
C579 H563 0.930 . S
C579 C578 1.377 . S
C579 C580 1.379 . S
C580 H564 0.931 . S
C580 C574 1.383 . S
C580 C579 1.379 . S
H581 C575 0.959 . S
H582 C575 0.961 . S
H583 C575 0.960 . S
H584 C576 0.930 . S
H585 C577 0.929 . S
H586 C594 0.929 . S
H587 C596 0.930 . S
H588 C598 0.930 . S
H589 C601 0.929 . S
H590 C604 0.930 . S
H591 C606 0.960 . S
H592 C606 0.960 . S
H593 C606 0.960 . S
C594 H586 0.929 . S
C594 C595 1.377 . S
C594 C596 1.384 . S
C595 C594 1.377 . S
C595 C601 1.390 . S
C596 H587 0.930 . S
C596 C594 1.384 . S
C596 C597 1.372 . S
C597 C596 1.372 . S
C597 C598 1.400 . S
C597 C602 1.490 . S
C598 H588 0.930 . S
C598 C597 1.400 . S
C598 C601 1.386 . S
H599 C615 0.930 . S
H600 C616 0.931 . S
C601 H589 0.929 . S
C601 C595 1.390 . S
C601 C598 1.386 . S
C602 C597 1.490 . S
C602 C604 1.395 . S
C602 C605 1.403 . S
H603 C609 0.930 . S
C604 H590 0.930 . S
C604 C602 1.395 . S
C604 C607 1.403 . S
C605 C602 1.403 . S
C605 C606 1.524 . S
C605 C609 1.400 . S
C606 H591 0.960 . S
C606 H592 0.960 . S
C606 H593 0.960 . S
C606 C605 1.524 . S
C607 C604 1.403 . S
C607 C608 1.392 . S
C607 C611 1.495 . S
C608 C607 1.392 . S
C608 C609 1.385 . S
C608 C610 1.478 . S
C609 H603 0.930 . S
C609 C605 1.400 . S
C609 C608 1.385 . S
C610 C608 1.478 . S
C610 C612 1.381 . S
C610 C616 1.383 . S
C611 C607 1.495 . S
C611 H617 0.959 . S
C611 H618 0.961 . S
C611 H619 0.960 . S
C612 C610 1.381 . S
C612 C613 1.394 . S
C612 H620 0.930 . S
C613 C612 1.394 . S
C613 C614 1.383 . S
C613 H621 0.929 . S
C614 C613 1.383 . S
C614 C615 1.377 . S
C615 H599 0.930 . S
C615 C614 1.377 . S
C615 C616 1.379 . S
C616 H600 0.931 . S
C616 C610 1.383 . S
C616 C615 1.379 . S
H617 C611 0.959 . S
H618 C611 0.961 . S
H619 C611 0.960 . S
H620 C612 0.930 . S
H621 C613 0.929 . S
C218 C155 1.410 . S
C199 C21 1.410 . S
C235 C19 1.403 1_556 S
C254 C119 1.403 . S
C271 C18 1.369 . S
C290 C179 1.340 . S
C307 C20 1.392 1_556 S
C326 C143 1.362 . S
C343 C44 1.413 . S
C362 C83 1.416 . S
C379 C42 1.402 . S
C398 C47 1.395 . S
C434 C107 1.358 . S
C415 C41 1.364 . S
C470 C71 1.358 . S
C451 C43 1.391 . S
C487 C16 1.489 . S
C506 C77 1.489 1_565 S
C523 C17 1.449 . S
C542 C113 1.438 . S
C578 C149 1.479 . S
C559 C39 1.489 . S
C595 C40 1.449 . S
C614 C185 1.437 . S
