# Generated by pormake.
# Topology zzz, (3,6)-cn, num edge types: 1
# Building blocks:
#     Node 0, Type 0, BuildingBlock: PAMTOO_clean_linker_0, # of connection points: 3
#     Node 1, Type 0, BuildingBlock: PAMTOO_clean_linker_0, # of connection points: 3
#     Node 2, Type 0, BuildingBlock: PAMTOO_clean_linker_0, # of connection points: 3
#     Node 3, Type 0, BuildingBlock: PAMTOO_clean_linker_0, # of connection points: 3
#     Node 4, Type 0, BuildingBlock: PAMTOO_clean_linker_0, # of connection points: 3
#     Node 5, Type 0, BuildingBlock: PAMTOO_clean_linker_0, # of connection points: 3
#     Node 6, Type 0, BuildingBlock: PAMTOO_clean_linker_0, # of connection points: 3
#     Node 7, Type 0, BuildingBlock: PAMTOO_clean_linker_0, # of connection points: 3
#     Node 8, Type 1, BuildingBlock: KUMBOL_clean_sbu_1, # of connection points: 6
#     Node 9, Type 1, BuildingBlock: KUMBOL_clean_sbu_1, # of connection points: 6
#     Node 10, Type 1, BuildingBlock: KUMBOL_clean_sbu_1, # of connection points: 6
#     Node 11, Type 1, BuildingBlock: KUMBOL_clean_sbu_1, # of connection points: 6
#     Edge 12, Type (0, 1), BuildingBlock: KIFKEQ_clean_linker_1, # of connection points: 2
#     Edge 13, Type (0, 1), BuildingBlock: KIFKEQ_clean_linker_1, # of connection points: 2
#     Edge 14, Type (0, 1), BuildingBlock: KIFKEQ_clean_linker_1, # of connection points: 2
#     Edge 15, Type (0, 1), BuildingBlock: KIFKEQ_clean_linker_1, # of connection points: 2
#     Edge 16, Type (0, 1), BuildingBlock: KIFKEQ_clean_linker_1, # of connection points: 2
#     Edge 17, Type (0, 1), BuildingBlock: KIFKEQ_clean_linker_1, # of connection points: 2
#     Edge 18, Type (0, 1), BuildingBlock: KIFKEQ_clean_linker_1, # of connection points: 2
#     Edge 19, Type (0, 1), BuildingBlock: KIFKEQ_clean_linker_1, # of connection points: 2
#     Edge 20, Type (0, 1), BuildingBlock: KIFKEQ_clean_linker_1, # of connection points: 2
#     Edge 21, Type (0, 1), BuildingBlock: KIFKEQ_clean_linker_1, # of connection points: 2
#     Edge 22, Type (0, 1), BuildingBlock: KIFKEQ_clean_linker_1, # of connection points: 2
#     Edge 23, Type (0, 1), BuildingBlock: KIFKEQ_clean_linker_1, # of connection points: 2
#     Edge 24, Type (0, 1), BuildingBlock: KIFKEQ_clean_linker_1, # of connection points: 2
#     Edge 25, Type (0, 1), BuildingBlock: KIFKEQ_clean_linker_1, # of connection points: 2
#     Edge 26, Type (0, 1), BuildingBlock: KIFKEQ_clean_linker_1, # of connection points: 2
#     Edge 27, Type (0, 1), BuildingBlock: KIFKEQ_clean_linker_1, # of connection points: 2
#     Edge 28, Type (0, 1), BuildingBlock: KIFKEQ_clean_linker_1, # of connection points: 2
#     Edge 29, Type (0, 1), BuildingBlock: KIFKEQ_clean_linker_1, # of connection points: 2
#     Edge 30, Type (0, 1), BuildingBlock: KIFKEQ_clean_linker_1, # of connection points: 2
#     Edge 31, Type (0, 1), BuildingBlock: KIFKEQ_clean_linker_1, # of connection points: 2
#     Edge 32, Type (0, 1), BuildingBlock: KIFKEQ_clean_linker_1, # of connection points: 2
#     Edge 33, Type (0, 1), BuildingBlock: KIFKEQ_clean_linker_1, # of connection points: 2
#     Edge 34, Type (0, 1), BuildingBlock: KIFKEQ_clean_linker_1, # of connection points: 2
#     Edge 35, Type (0, 1), BuildingBlock: KIFKEQ_clean_linker_1, # of connection points: 2
# Relax obj value: 0.175
# Max RMSD: 0.105
# Mean RMSD: 0.079
data_MOF--net-zzz--node1-KUMBOL_clean_sbu_1--node2-PAMTOO_clean_linker_0--edge1-KIFKEQ_clean_linker_1
_symmetry_space_group_name_H-M    P1
_symmetry_Int_Tables_number       1
_symmetry_cell_setting            triclinic
loop_
_symmetry_equiv_pos_as_xyz
'x, y, z'
_cell_length_a     50.503037
_cell_length_b     50.546618
_cell_length_c     15.859303
_cell_angle_alpha  90.134546
_cell_angle_beta   90.06219
_cell_angle_gamma 90.406928
loop_
_atom_site_label
_atom_site_type_symbol
_atom_site_fract_x
_atom_site_fract_y
_atom_site_fract_z
_atom_type_partial_charge
H0 H 0.83502 0.55929 0.23133 0.0
H1 H 0.75653 0.55419 0.12928 0.0
H2 H 0.76803 0.55199 0.3983 0.0
H3 H 0.7225 0.58736 0.23283 0.0
C4 C 0.71309 0.56911 0.25862 0.0
O5 O 0.73196 0.5494 0.27051 0.0
H6 H 0.70498 0.5744 0.32149 0.0
C7 C 0.81377 0.55851 0.24124 0.0
C8 C 0.80404 0.55665 0.32389 0.0
C9 C 0.79682 0.55727 0.17117 0.0
C10 C 0.76953 0.55515 0.18342 0.0
C11 C 0.75872 0.55351 0.26414 0.0
C12 C 0.77609 0.554 0.33542 0.0
H13 H 1.00883 0.83683 0.22048 0.0
H14 H 0.99973 0.75961 0.10905 0.0
H15 H 1.00009 0.7684 0.37935 0.0
H16 H 0.0238 0.70933 0.30422 0.0
C17 C 1.01857 0.71649 0.24016 0.0
O18 O 0.99723 0.73369 0.2484 0.0
H19 H 0.03626 0.7272 0.21539 0.0
C20 C 1.0056 0.8157 0.22727 0.0
C21 C 1.0039 0.80511 0.30854 0.0
C22 C 1.00424 0.79959 0.15515 0.0
C23 C 1.00088 0.77222 0.1643 0.0
C24 C 0.99977 0.76063 0.24413 0.0
C25 C 1.00111 0.77716 0.3172 0.0
H26 H 0.71206 0.98771 0.25301 0.0
H27 H 0.77889 0.99261 0.08649 0.0
H28 H 0.78129 0.03192 0.3286 0.0
H29 H 0.82588 0.98354 0.18766 0.0
C30 C 0.83148 1.00479 0.19418 0.0
O31 O 0.80903 1.02059 0.18635 0.0
H32 H 0.83958 1.00761 0.25881 0.0
C33 C 0.73236 0.99396 0.24164 0.0
C34 C 0.74486 1.01019 0.30112 0.0
C35 C 0.74431 0.98763 0.16459 0.0
C36 C 0.76992 0.99689 0.147 0.0
C37 C 0.784 1.01199 0.20672 0.0
C38 C 0.77116 1.01919 0.28386 0.0
H39 H 0.57908 0.73019 0.23176 0.0
H40 H 0.57105 0.80767 0.12297 0.0
H41 H 0.53173 0.7892 0.35557 0.0
H42 H 0.5729 0.84749 0.2485 0.0
C43 C 0.55116 0.85006 0.2403 0.0
O44 O 0.53847 0.8256 0.23188 0.0
H45 H 0.54404 0.8596 0.29918 0.0
C46 C 0.57209 0.75038 0.23575 0.0
C47 C 0.55587 0.75752 0.30404 0.0
C48 C 0.57758 0.76819 0.16967 0.0
C49 C 0.56724 0.79381 0.17349 0.0
C50 C 0.55082 0.80171 0.23929 0.0
C51 C 0.54516 0.78354 0.30563 0.0
H52 H 0.22953 0.4773 0.13746 0.0
H53 H 0.30728 0.4886 0.24422 0.0
H54 H 0.28311 0.5347 0.03068 0.0
H55 H 0.35523 0.52968 0.07839 0.0
C56 C 0.34662 0.5171 0.12884 0.0
O57 O 0.32141 0.52656 0.14769 0.0
H58 H 0.34523 0.49664 0.10285 0.0
C59 C 0.24906 0.48629 0.13511 0.0
C60 C 0.2541 0.50563 0.07355 0.0
C61 C 0.26785 0.48027 0.19791 0.0
C62 C 0.29261 0.49292 0.19635 0.0
C63 C 0.29844 0.51244 0.13717 0.0
C64 C 0.27908 0.51896 0.07516 0.0
H65 H 0.07152 0.22487 0.09889 0.0
H66 H 0.06937 0.29701 0.24238 0.0
H67 H 1.00967 0.28126 0.05328 0.0
H68 H 1.01399 0.30626 0.28457 0.0
C69 C 1.01209 0.32212 0.23631 0.0
O70 O 0.0283 0.31687 0.16729 0.0
H71 H 0.99114 0.32161 0.21477 0.0
C72 C 0.06256 0.24395 0.11123 0.0
C73 C 0.03963 0.25082 0.06719 0.0
C74 C 0.07322 0.26026 0.17453 0.0
C75 C 0.06128 0.28449 0.19296 0.0
C76 C 0.03851 0.29247 0.14953 0.0
C77 C 0.02735 0.27537 0.08679 0.0
H78 H 0.32571 0.08672 0.14986 0.0
H79 H 0.24506 0.07449 0.22517 0.0
H80 H 0.27885 0.02484 0.03326 0.0
H81 H 0.24354 1.01248 0.22955 0.0
C82 C 0.22702 1.01697 0.1853 0.0
O83 O 0.23502 0.03571 0.12586 0.0
H84 H 0.22276 0.99812 0.15165 0.0
C85 C 0.30717 0.07612 0.14196 0.0
C86 C 0.30558 0.05517 0.08313 0.0
C87 C 0.28587 0.08264 0.19502 0.0
C88 C 0.26164 0.06953 0.1849 0.0
C89 C 0.2589 0.0486 0.12822 0.0
C90 C 0.28089 0.04131 0.07657 0.0
H91 H 0.48718 0.34381 0.16849 0.0
H92 H 0.4998 0.26608 0.2706 0.0
H93 H 0.5249 0.28394 0.01811 0.0
H94 H 0.51606 0.2132 0.07891 0.0
C95 C 0.51019 0.22348 0.13789 0.0
O96 O 0.5242 0.2473 0.14288 0.0
H97 H 0.48855 0.22719 0.13187 0.0
C98 C 0.49331 0.32346 0.16026 0.0
C99 C 0.50494 0.3161 0.08331 0.0
C100 C 0.49176 0.30585 0.22878 0.0
C101 C 0.50085 0.27993 0.21864 0.0
C102 C 0.51275 0.27173 0.14386 0.0
C103 C 0.51501 0.28992 0.07553 0.0
C104 C 0.05359 0.05152 0.93348 0.0
C105 C 0.02706 0.02741 0.03475 0.0
C106 C 0.03707 0.03053 0.95239 0.0
C107 C 0.03205 0.04711 0.09553 0.0
C108 C 0.06065 0.0701 0.99618 0.0
C109 C 0.04887 0.06846 0.07626 0.0
N110 N 0.06517 0.05191 0.85652 0.0
C111 C 0.08621 0.06834 0.84114 0.0
C112 C 0.0805 0.08871 0.97801 0.0
C113 C 0.0938 0.08738 0.90088 0.0
Gd114 Gd 1.00145 0.04482 0.57536 0.0
Gd115 Gd 0.04954 1.02097 0.75672 0.0
N116 N 0.03351 1.01154 0.89293 0.0
C117 C 1.0138 1.00384 0.05479 0.0
C118 C 0.02293 0.98754 0.91437 0.0
C119 C 1.01236 0.98353 0.99495 0.0
H120 H 0.02187 0.97181 0.86806 0.0
H121 H 1.00311 0.96481 1.01076 0.0
H122 H 1.01321 1.00352 0.41465 0.0
H123 H 0.09636 0.06736 0.78117 0.0
H124 H 0.98821 0.97882 0.30573 0.0
H125 H 1.00581 1.00062 0.11736 0.0
H126 H 0.02411 0.04533 0.15873 0.0
H127 H 0.95915 0.08892 0.65419 0.0
H128 H 0.08653 0.10331 0.02445 0.0
H129 H 0.10983 0.10103 0.88731 0.0
H130 H 0.89792 1.00485 0.34969 0.0
H131 H 0.05366 0.08282 0.12487 0.0
H132 H 0.88192 0.0729 0.55438 0.0
H133 H 0.91146 0.09883 0.64844 0.0
N134 N 0.95656 0.05682 0.56744 0.0
C135 C 0.94084 0.04298 0.51374 0.0
C136 C 0.94646 0.07717 0.61386 0.0
C137 C 0.90281 0.06825 0.55745 0.0
C138 C 0.91942 0.08295 0.61049 0.0
C139 C 0.91353 0.04825 0.50709 0.0
H140 H 0.87699 0.03754 0.44318 0.0
N141 N 0.97899 0.02125 0.46795 0.0
C142 C 0.95249 0.0246 0.46185 0.0
C143 C 0.95037 0.99397 0.3448 0.0
C144 C 0.93736 1.01095 0.40065 0.0
C145 C 0.99196 1.00562 0.41113 0.0
C146 C 0.97786 0.99153 0.34951 0.0
O147 O 0.04526 0.06528 0.73319 0.0
O148 O 1.00208 0.07032 0.69508 0.0
O149 O 0.03021 0.07654 0.5579 0.0
O150 O 0.99899 0.07053 0.46601 0.0
O151 O 1.00525 1.00937 0.76961 0.0
O152 O 0.9814 0.042 0.70304 0.0
O153 O 1.00497 0.99983 0.5767 0.0
O154 O 0.03219 0.98535 0.68604 0.0
O155 O 0.07928 0.99956 0.82921 0.0
O156 O 0.08356 1.00377 0.69515 0.0
O157 O 0.03995 0.02393 0.54232 0.0
O158 O 0.06518 0.04324 0.64262 0.0
C159 C 0.02318 0.07889 0.73603 0.0
C160 C 0.98368 0.02404 0.7627 0.0
C161 C 0.04197 0.08167 0.4164 0.0
C162 C 0.08208 0.101 0.35563 0.0
C163 C 0.06498 0.05898 0.30332 0.0
C164 C 0.04394 0.0603 0.36013 0.0
C165 C 0.08408 0.07905 0.30137 0.0
C166 C 0.061 0.10194 0.41369 0.0
C167 C 0.0216 0.08208 0.48278 0.0
C168 C 0.90996 1.01531 0.39564 0.0
C169 C 0.89804 0.03392 0.4489 0.0
H170 H 0.93949 0.98316 0.29672 0.0
C171 C 1.01681 0.98087 0.61966 0.0
C172 C 0.06309 0.03325 0.56629 0.0
C173 C 0.1009 0.96546 0.75243 0.0
C174 C 0.09154 0.91821 0.76209 0.0
C175 C 0.13096 0.93389 0.68929 0.0
C176 C 0.12407 0.95997 0.70723 0.0
C177 C 0.11478 0.91308 0.71624 0.0
C178 C 0.08472 0.94458 0.78002 0.0
C179 C 0.0929 0.9931 0.7628 0.0
H180 H 0.06659 0.04224 0.261 0.0
H181 H 0.02958 0.04439 0.3611 0.0
H182 H 0.10018 0.07754 0.25663 0.0
H183 H 0.0589 0.11873 0.45574 0.0
H184 H 0.14876 0.92979 0.65378 0.0
H185 H 0.13658 0.97593 0.68446 0.0
H186 H 0.12036 0.89301 0.70074 0.0
H187 H 0.06686 0.94889 0.81515 0.0
C188 C 0.52891 0.96882 0.47382 0.0
C189 C 0.51089 0.9277 0.52702 0.0
C190 C 0.51452 0.95532 0.53349 0.0
C191 C 0.5231 0.91382 0.46087 0.0
C192 C 0.54058 0.95523 0.4057 0.0
C193 C 0.53798 0.92757 0.40033 0.0
N194 N 0.53024 0.99551 0.48005 0.0
C195 C 0.54189 1.01004 0.41759 0.0
C196 C 0.554 0.96995 0.34431 0.0
C197 C 0.55452 0.99752 0.3502 0.0
Gd198 Gd 0.54153 0.06178 0.77857 0.0
Gd199 Gd 0.5119 1.01528 0.60143 0.0
N200 N 0.50279 0.9695 0.59535 0.0
C201 C 0.49452 0.91506 0.58584 0.0
C202 C 0.4858 0.95748 0.65045 0.0
C203 C 0.48168 0.93009 0.6473 0.0
H204 H 0.47577 0.96899 0.69801 0.0
H205 H 0.46858 0.9206 0.69214 0.0
H206 H 0.60571 0.04606 0.8138 0.0
H207 H 0.54199 0.03136 0.42037 0.0
H208 H 0.64995 0.06443 0.78092 0.0
H209 H 0.4912 0.89388 0.58317 0.0
H210 H 0.52071 0.89258 0.45501 0.0
H211 H 0.50179 0.1135 0.79767 0.0
H212 H 0.56352 0.96028 0.2915 0.0
H213 H 0.56463 1.00923 0.30303 0.0
H214 H 0.63191 0.15126 0.67418 0.0
H215 H 0.54688 0.91674 0.34869 0.0
H216 H 0.54314 0.18245 0.70887 0.0
H217 H 0.50245 0.16158 0.76607 0.0
N218 N 0.54136 0.10763 0.75699 0.0
C219 C 0.56431 0.11898 0.73126 0.0
C220 C 0.51962 0.12269 0.77341 0.0
C221 C 0.54291 0.16146 0.72266 0.0
C222 C 0.51994 0.14979 0.75537 0.0
C223 C 0.56569 0.14616 0.71219 0.0
H224 H 0.59145 0.17816 0.67158 0.0
N225 N 0.58497 0.07859 0.76081 0.0
C226 C 0.58694 0.10384 0.73263 0.0
C227 C 0.63462 0.10064 0.72929 0.0
C228 C 0.61178 0.1155 0.71513 0.0
C229 C 0.60727 0.06517 0.7836 0.0
C230 C 0.63237 0.07561 0.76582 0.0
O231 O 0.52392 0.99103 0.7165 0.0
O232 O 0.54516 1.01835 0.81455 0.0
O233 O 0.55665 0.07745 0.89738 0.0
O234 O 0.51861 0.05796 0.89347 0.0
O235 O 0.4905 1.01701 0.72817 0.0
O236 O 0.49688 0.06043 0.75926 0.0
O237 O 0.5215 0.08079 0.66468 0.0
O238 O 0.5328 0.05311 0.55762 0.0
O239 O 0.48262 0.04611 0.58979 0.0
O240 O 0.4785 1.01006 0.51632 0.0
O241 O 0.57067 0.03305 0.71411 0.0
O242 O 0.5547 0.02753 0.57978 0.0
C243 C 0.53633 0.99497 0.78895 0.0
C244 C 0.48227 0.03883 0.76483 0.0
C245 C 0.54501 0.04889 1.00957 0.0
C246 C 0.57246 1.01226 0.05775 0.0
C247 C 0.53181 0.02342 0.13196 0.0
C248 C 0.52722 0.04405 0.07558 0.0
C249 C 0.55401 1.00737 0.1224 0.0
C250 C 0.56785 0.03337 1.00215 0.0
C251 C 0.53753 0.06693 0.94122 0.0
C252 C 0.61306 0.14205 0.68921 0.0
C253 C 0.59003 0.15739 0.68781 0.0
H254 H 0.65409 0.10884 0.71659 0.0
C255 C 0.52807 0.07719 0.58524 0.0
C256 C 0.57472 0.02941 0.63259 0.0
C257 C 0.43954 0.03129 0.56533 0.0
C258 C 0.39773 0.05478 0.57898 0.0
C259 C 0.40116 1.00878 0.62302 0.0
C260 C 0.42765 1.00837 0.59806 0.0
C261 C 0.38619 0.03172 0.61317 0.0
C262 C 0.42477 0.05448 0.55817 0.0
C263 C 0.4675 0.0321 0.54049 0.0
H264 H 0.51773 1.01936 0.18177 0.0
H265 H 0.50929 0.05555 0.08145 0.0
H266 H 0.55633 0.9907 0.16423 0.0
H267 H 0.58167 0.03744 0.95165 0.0
H268 H 0.39203 0.99109 0.64855 0.0
H269 H 0.43884 0.99033 0.60515 0.0
H270 H 0.36534 0.03092 0.62879 0.0
H271 H 0.43436 0.07218 0.53421 0.0
C272 C 0.45023 0.52526 0.85726 0.0
C273 C 0.46231 0.50858 0.99516 0.0
C274 C 0.46883 0.52213 0.92028 0.0
C275 C 0.4369 0.49753 1.00441 0.0
C276 C 0.42439 0.51496 0.86733 0.0
C277 C 0.41796 0.50072 0.94064 0.0
N278 N 0.45703 0.53952 0.78803 0.0
C279 C 0.43833 0.54569 0.72913 0.0
C280 C 0.40562 0.51989 0.80449 0.0
C281 C 0.41255 0.53561 0.73558 0.0
Gd282 Gd 0.5539 0.52496 0.62557 0.0
Gd283 Gd 0.50115 0.55505 0.78144 0.0
N284 N 0.49323 0.53283 0.90895 0.0
C285 C 0.48144 0.50691 0.05888 0.0
C286 C 0.51156 0.53238 0.97234 0.0
C287 C 0.50609 0.51912 0.04774 0.0
H288 H 0.53053 0.542 0.96418 0.0
H289 H 0.52082 0.51843 0.09729 0.0
H290 H 0.51919 0.50814 0.44856 0.0
H291 H 0.44296 0.55892 0.67793 0.0
H292 H 0.51274 0.52534 0.30549 0.0
H293 H 0.47719 0.49671 0.11741 0.0
H294 H 0.43161 0.48683 0.0611 0.0
H295 H 0.60818 0.5544 0.69988 0.0
H296 H 0.38555 0.51234 0.80981 0.0
H297 H 0.39794 0.54031 0.68804 0.0
H298 H 0.57756 0.5945 0.28066 0.0
H299 H 0.39825 0.49255 0.94935 0.0
H300 H 0.63742 0.60789 0.51172 0.0
H301 H 0.64144 0.5875 0.65289 0.0
N302 N 0.58536 0.55702 0.58769 0.0
C303 C 0.58355 0.56684 0.50818 0.0
C304 C 0.60631 0.56343 0.63848 0.0
C305 C 0.62282 0.59345 0.53208 0.0
C306 C 0.62514 0.58203 0.61191 0.0
C307 C 0.602 0.58573 0.47878 0.0
H308 H 0.61318 0.6107 0.37359 0.0
N309 N 0.54697 0.5381 0.48445 0.0
C310 C 0.56341 0.55758 0.45586 0.0
C311 C 0.54216 0.55608 0.3192 0.0
C312 C 0.56132 0.56719 0.3726 0.0
C313 C 0.52991 0.52568 0.43 0.0
C314 C 0.52671 0.53493 0.34762 0.0
O315 O 0.513 0.51233 0.8099 0.0
O316 O 0.5265 0.49399 0.68366 0.0
O317 O 0.5723 0.49833 0.53588 0.0
O318 O 0.58791 0.50162 0.6622 0.0
O319 O 0.54483 0.5616 0.81507 0.0
O320 O 0.56608 0.52516 0.76304 0.0
O321 O 0.55267 0.56992 0.65076 0.0
O322 O 0.50864 0.5762 0.658 0.0
O323 O 0.51316 0.58691 0.86361 0.0
O324 O 0.47408 0.58751 0.80807 0.0
O325 O 0.51074 0.51388 0.59405 0.0
O326 O 0.48843 0.55005 0.64437 0.0
C327 C 0.51865 0.49159 0.7627 0.0
C328 C 0.5643 0.54439 0.81849 0.0
C329 C 0.58734 0.45956 0.6018 0.0
C330 C 0.56193 0.41835 0.6023 0.0
C331 C 0.60801 0.41895 0.64765 0.0
C332 C 0.60953 0.4461 0.63204 0.0
C333 C 0.58441 0.40509 0.63282 0.0
C334 C 0.56362 0.44567 0.58756 0.0
C335 C 0.5882 0.48838 0.59193 0.0
C336 C 0.579 0.58682 0.34422 0.0
C337 C 0.59934 0.596 0.39706 0.0
H338 H 0.53992 0.56291 0.25488 0.0
C339 C 0.53206 0.58503 0.63649 0.0
C340 C 0.48994 0.52961 0.59296 0.0
C341 C 0.49936 0.62736 0.80606 0.0
C342 C 0.53237 0.662 0.77802 0.0
C343 C 0.48652 0.66738 0.73313 0.0
C344 C 0.47982 0.64289 0.76804 0.0
C345 C 0.51245 0.67713 0.73918 0.0
C346 C 0.5257 0.63654 0.80657 0.0
C347 C 0.49288 0.60135 0.84363 0.0
H348 H 0.62521 0.40859 0.67089 0.0
H349 H 0.62788 0.45664 0.64456 0.0
H350 H 0.58402 0.38394 0.64325 0.0
H351 H 0.54625 0.45633 0.56694 0.0
H352 H 0.47136 0.6793 0.70386 0.0
H353 H 0.45945 0.63609 0.76517 0.0
H354 H 0.51637 0.69697 0.71688 0.0
H355 H 0.54106 0.62402 0.83174 0.0
C356 C 0.03663 0.5009 0.97547 0.0
C357 C 1.00744 0.52701 0.06282 0.0
C358 C 1.01433 0.51629 0.98367 0.0
C359 C 0.02449 0.52358 0.13196 0.0
C360 C 0.05268 0.49558 0.04619 0.0
C361 C 0.04709 0.50785 0.12367 0.0
N362 N 0.04094 0.4888 0.90049 0.0
C363 C 0.05885 0.46875 0.89452 0.0
C364 C 0.0729 0.47695 0.03799 0.0
C365 C 0.07557 0.463 0.96236 0.0
Gd366 Gd 0.04436 0.55224 0.62052 0.0
Gd367 Gd 1.01416 0.50187 0.78646 0.0
N368 N 0.99801 0.51849 0.91615 0.0
C369 C 0.98301 0.53965 0.07108 0.0
C370 C 0.97326 0.52895 0.92571 0.0
C371 C 0.9656 0.5401 1.00265 0.0
H372 H 0.95995 0.53006 0.87247 0.0
H373 H 0.94635 0.54918 1.00888 0.0
H374 H 1.01758 0.53602 0.43541 0.0
H375 H 0.06081 0.45785 0.83608 0.0
H376 H 0.99676 0.55784 0.31318 0.0
H377 H 0.97699 0.54818 0.13075 0.0
H378 H 1.01976 0.53199 0.19295 0.0
H379 H 0.07623 0.60001 0.72665 0.0
H380 H 0.08568 0.47229 0.09074 0.0
H381 H 0.09044 0.44781 0.95629 0.0
H382 H 1.00544 0.65066 0.3749 0.0
H383 H 0.05941 0.50434 0.17843 0.0
H384 H 0.05539 0.67496 0.62122 0.0
H385 H 0.07908 0.64878 0.72896 0.0
N386 N 0.04961 0.59862 0.62259 0.0
C387 C 0.03744 0.61258 0.5611 0.0
C388 C 0.06519 0.61124 0.68075 0.0
C389 C 0.05366 0.65358 0.62091 0.0
C390 C 0.06707 0.63887 0.68177 0.0
C391 C 0.03904 0.64042 0.5584 0.0
H392 H 0.02768 0.67548 0.4889 0.0
N393 N 0.02554 0.572 0.50048 0.0
C394 C 0.025 0.59874 0.49752 0.0
C395 C 1.00298 0.59718 0.36229 0.0
C396 C 1.01366 0.61215 0.42861 0.0
C397 C 1.01625 0.5573 0.43429 0.0
C398 C 1.00453 0.56961 0.36479 0.0
O399 O 0.05937 0.50395 0.76798 0.0
O400 O 0.0662 0.54782 0.7454 0.0
O401 O 0.07245 0.52229 0.5844 0.0
O402 O 0.07931 0.563 0.54762 0.0
O403 O 1.00301 0.54577 0.79975 0.0
O404 O 0.03995 0.56761 0.75431 0.0
O405 O 0.99944 0.54886 0.60444 0.0
O406 O 0.98138 0.52168 0.70931 0.0
O407 O 0.99604 0.46771 0.84785 0.0
O408 O 0.99296 0.47218 0.71373 0.0
O409 O 0.0251 0.51372 0.57329 0.0
O410 O 0.03935 0.48749 0.67852 0.0
C411 C 0.07462 0.52513 0.77504 0.0
C412 C 1.0194 0.56608 0.80465 0.0
C413 C 0.11627 0.53635 0.58452 0.0
C414 C 0.15544 0.5085 0.59472 0.0
C415 C 0.15469 0.55191 0.66209 0.0
C416 C 0.12903 0.55606 0.63222 0.0
C417 C 0.16796 0.52846 0.64294 0.0
C418 C 0.12914 0.51243 0.56899 0.0
C419 C 0.0891 0.53924 0.55321 0.0
C420 C 1.01416 0.63995 0.42701 0.0
C421 C 0.02682 0.65408 0.49192 0.0
H422 H 0.99411 0.6067 0.3081 0.0
C423 C 0.97901 0.53728 0.6424 0.0
C424 C 0.03094 0.4899 0.60064 0.0
C425 C 0.95772 0.4516 0.78026 0.0
C426 C 0.91232 0.46601 0.79951 0.0
C427 C 0.92149 0.42097 0.7546 0.0
C428 C 0.9487 0.42636 0.75704 0.0
C429 C 0.90331 0.44066 0.77589 0.0
C430 C 0.93957 0.47126 0.79999 0.0
C431 C 0.98589 0.45831 0.77849 0.0
H432 H 0.16454 0.56714 0.69885 0.0
H433 H 0.11915 0.57444 0.64706 0.0
H434 H 0.18833 0.52659 0.66312 0.0
H435 H 0.11854 0.49703 0.53502 0.0
H436 H 0.91449 0.40145 0.73678 0.0
H437 H 0.9626 0.41101 0.74015 0.0
H438 H 0.88237 0.43589 0.77587 0.0
H439 H 0.94683 0.49083 0.81528 0.0
H440 H 0.22378 0.03587 0.34879 0.0
H441 H 0.1742 1.01512 0.13748 0.0
H442 H 0.18465 0.04081 0.4376 0.0
H443 H 0.1347 1.02087 0.2252 0.0
H444 H 0.07142 1.00179 0.42661 0.0
H445 H 0.10988 1.00068 0.33326 0.0
H446 H 0.14649 0.06349 0.47815 0.0
H447 H 0.10837 0.06381 0.57279 0.0
C448 C 0.20441 0.03295 0.32067 0.0
C449 C 0.2023 0.025 0.2357 0.0
C450 C 0.18176 0.03582 0.37183 0.0
C451 C 0.15602 0.03095 0.33996 0.0
C452 C 0.15394 0.02422 0.25356 0.0
C453 C 0.17665 0.02129 0.20248 0.0
C454 C 0.08771 1.01533 0.43867 0.0
C455 C 0.08664 0.03281 0.50789 0.0
C456 C 0.10986 1.01488 0.38443 0.0
C457 C 0.13179 0.032 0.39699 0.0
C458 C 0.1305 0.04961 0.4662 0.0
C459 C 0.10845 0.04989 0.52077 0.0
H460 H 0.47767 0.21209 0.27346 0.0
H461 H 0.55396 0.19243 0.17115 0.0
H462 H 0.48266 0.17802 0.381 0.0
H463 H 0.55963 0.15874 0.28045 0.0
H464 H 0.54928 0.08028 0.42519 0.0
H465 H 0.5463 0.11632 0.32351 0.0
H466 H 0.50194 0.16224 0.50398 0.0
H467 H 0.50363 0.12552 0.6029 0.0
C468 C 0.49582 0.20081 0.27501 0.0
C469 C 0.51537 0.20508 0.21314 0.0
C470 C 0.49879 0.18115 0.33721 0.0
C471 C 0.52152 0.16502 0.34035 0.0
C472 C 0.54154 0.17009 0.28006 0.0
C473 C 0.5385 0.18975 0.21767 0.0
C474 C 0.5388 0.09802 0.4432 0.0
C475 C 0.52694 0.09984 0.52341 0.0
C476 C 0.53732 0.11901 0.38482 0.0
C477 C 0.52392 0.14272 0.40431 0.0
C478 C 0.51222 0.14449 0.48501 0.0
C479 C 0.51359 0.12344 0.54303 0.0
H480 H 0.34718 0.54878 0.27491 0.0
H481 H 0.39086 0.4871 0.15092 0.0
H482 H 0.38058 0.55054 0.38674 0.0
H483 H 0.42491 0.48949 0.25984 0.0
H484 H 0.47435 0.48489 0.50285 0.0
H485 H 0.43916 0.48089 0.39699 0.0
H486 H 0.42302 0.56431 0.42298 0.0
H487 H 0.45753 0.56797 0.52919 0.0
C488 C 0.36379 0.53538 0.27178 0.0
C489 C 0.36585 0.51733 0.20435 0.0
C490 C 0.38332 0.53659 0.33569 0.0
C491 C 0.40594 0.52016 0.33379 0.0
C492 C 0.40784 0.50217 0.26589 0.0
C493 C 0.38824 0.50085 0.20265 0.0
C494 C 0.46327 0.50236 0.48588 0.0
C495 C 0.46885 0.52669 0.52583 0.0
C496 C 0.443 0.50015 0.42453 0.0
C497 C 0.42763 0.52223 0.40045 0.0
C498 C 0.43358 0.54657 0.44015 0.0
C499 C 0.45368 0.54872 0.50144 0.0
H500 H 0.052 0.33484 0.34928 0.0
H501 H 0.98551 0.3696 0.22184 0.0
H502 H 0.05796 0.37538 0.43235 0.0
H503 H 0.99084 0.40992 0.30574 0.0
H504 H 1.01671 0.48752 0.43216 0.0
H505 H 1.01464 0.44892 0.3394 0.0
H506 H 0.03931 0.39923 0.54575 0.0
H507 H 0.04201 0.43793 0.63748 0.0
C508 C 0.03886 0.35131 0.33819 0.0
C509 C 1.01828 0.34883 0.27866 0.0
C510 C 0.04201 0.37456 0.38677 0.0
C511 C 0.02471 0.39624 0.37747 0.0
C512 C 1.0048 0.39404 0.31513 0.0
C513 C 1.00167 0.37078 0.26667 0.0
C514 C 0.02182 0.46841 0.45783 0.0
C515 C 0.02962 0.46614 0.54287 0.0
C516 C 0.02047 0.44605 0.40442 0.0
C517 C 0.02683 0.42051 0.43401 0.0
C518 C 0.03468 0.41836 0.51921 0.0
C519 C 0.03605 0.4407 0.57248 0.0
H520 H 0.8296 0.02919 0.03392 0.0
H521 H 0.88335 0.99106 0.2052 0.0
H522 H 0.86551 0.03357 0.93011 0.0
H523 H 0.91909 0.99541 0.10272 0.0
H524 H 0.97056 0.9816 0.86643 0.0
H525 H 0.93454 0.97821 0.96897 0.0
H526 H 0.90755 0.05577 0.89745 0.0
H527 H 0.94403 0.05944 0.79731 0.0
C528 C 0.84914 0.02216 0.05023 0.0
C529 C 0.85359 1.0104 0.12948 0.0
C530 C 0.86986 0.0246 0.99043 0.0
C531 C 0.89556 1.01483 1.00706 0.0
C532 C 0.89976 1.00298 0.08626 0.0
C533 C 0.87923 1.00079 0.1459 0.0
C534 C 0.95739 0.99821 0.87381 0.0
C535 C 0.96094 1.02104 0.82422 0.0
C536 C 0.93642 0.99621 0.93251 0.0
C537 C 0.91784 1.01678 0.94282 0.0
C538 C 0.92107 0.03934 0.89163 0.0
C539 C 0.94221 0.04146 0.83383 0.0
H540 H 0.57938 0.85476 0.091 0.0
H541 H 0.51234 0.88785 0.22021 0.0
H542 H 0.57511 0.88806 0.97989 0.0
H543 H 0.50769 0.92097 0.1091 0.0
H544 H 0.52563 0.99577 0.95667 0.0
H545 H 0.52792 0.96 0.0593 0.0
H546 H 0.55088 0.90602 0.86167 0.0
H547 H 0.54891 0.9424 0.75905 0.0
C548 C 0.56335 0.86881 0.09483 0.0
C549 C 0.54621 0.86849 0.16495 0.0
C550 C 0.56088 0.88805 0.03087 0.0
C551 C 0.5412 0.90773 0.03485 0.0
C552 C 0.52348 0.90669 0.10373 0.0
C553 C 0.52591 0.88742 0.16738 0.0
C554 C 0.53178 0.97642 0.93546 0.0
C555 C 0.538 0.97233 0.85007 0.0
C556 C 0.53264 0.95563 0.99425 0.0
C557 C 0.5398 0.92979 0.97005 0.0
C558 C 0.5457 0.92558 0.88385 0.0
C559 C 0.5445 0.94646 0.82463 0.0
H560 H 0.71426 0.54103 0.10582 0.0
H561 H 0.66019 0.58078 0.27252 0.0
H562 H 0.67896 0.53535 1.00234 0.0
H563 H 0.62443 0.57412 0.1711 0.0
H564 H 0.57165 0.58406 0.93725 0.0
H565 H 0.60656 0.58832 0.04318 0.0
H566 H 0.63995 0.51438 0.95918 0.0
H567 H 0.60558 0.51064 0.85203 0.0
C568 C 0.69476 0.54816 0.1214 0.0
C569 C 0.69031 0.56113 0.19875 0.0
C570 C 0.67423 0.54478 0.06171 0.0
C571 C 0.64839 0.55433 0.07684 0.0
C572 C 0.6439 0.56683 0.1552 0.0
C573 C 0.66446 0.57031 0.21448 0.0
C574 C 0.58643 0.56868 0.94126 0.0
C575 C 0.58556 0.54702 0.88515 0.0
C576 C 0.60653 0.57101 1.00289 0.0
C577 C 0.62653 0.55171 1.01111 0.0
C578 C 0.62546 0.53 0.95502 0.0
C579 C 0.60545 0.52774 0.89331 0.0
H580 H 0.04265 0.66855 0.24509 0.0
H581 H 0.98467 0.7108 0.09947 0.0
H582 H 0.04091 0.63198 0.14431 0.0
H583 H 0.98259 0.67373 0.99836 0.0
H584 H 0.97375 0.58695 0.87625 0.0
H585 H 0.97058 0.62238 0.98301 0.0
H586 H 0.05578 0.62776 0.99174 0.0
H587 H 0.05889 0.59298 0.88544 0.0
C588 C 0.02906 0.66982 0.19239 0.0
C589 C 1.01346 0.6926 0.1819 0.0
C590 C 0.02821 0.64885 0.13401 0.0
C591 C 1.01167 0.64972 0.06256 0.0
C592 C 0.99541 0.67215 0.05288 0.0
C593 C 0.99656 0.69345 0.11105 0.0
C594 C 0.99177 0.59559 0.90148 0.0
C595 C 1.01658 0.58689 0.87211 0.0
C596 C 0.98996 0.61609 0.96223 0.0
C597 C 1.01292 0.62806 0.99664 0.0
C598 C 0.03763 0.61903 0.96765 0.0
C599 C 0.03941 0.59906 0.9061 0.0
H600 H 0.06998 0.25086 0.34175 0.0
H601 H 0.12222 0.24293 0.12864 0.0
H602 H 0.09033 0.21299 0.40777 0.0
H603 H 0.14355 0.20534 0.196 0.0
H604 H 0.10056 0.12181 0.20856 0.0
H605 H 0.11689 0.16604 0.18724 0.0
H606 H 0.11947 0.17869 0.45688 0.0
H607 H 0.10328 0.13354 0.47844 0.0
C608 C 0.08709 0.24211 0.31171 0.0
C609 C 0.09397 0.24907 0.22908 0.0
C610 C 0.09889 0.22025 0.34961 0.0
C611 C 0.1177 0.20528 0.30501 0.0
C612 C 0.12841 0.2159 0.23045 0.0
C613 C 0.11635 0.23755 0.19205 0.0
C614 C 0.10575 0.13342 0.26371 0.0
C615 C 0.0997 0.12442 0.34515 0.0
C616 C 0.11533 0.15902 0.2515 0.0
C617 C 0.11887 0.17631 0.32044 0.0
C618 C 0.11635 0.16607 0.40241 0.0
C619 C 0.10686 0.1403 0.41468 0.0
H620 H 0.26978 0.07154 0.35466 0.0
H621 H 0.31375 0.12956 0.21129 0.0
H622 H 0.29362 0.08381 0.47968 0.0
H623 H 0.33755 0.1426 0.3389 0.0
H624 H 0.4038 0.08603 0.43992 0.0
H625 H 0.37091 0.11252 0.37442 0.0
H626 H 0.3194 0.10194 0.58961 0.0
H627 H 0.35335 0.07518 0.65751 0.0
C628 C 0.28352 0.08804 0.35061 0.0
C629 C 0.29094 0.0986 0.27214 0.0
C630 C 0.29729 0.09528 0.42329 0.0
C631 C 0.3188 0.11304 0.41832 0.0
C632 C 0.32198 0.12783 0.34378 0.0
C633 C 0.30842 0.12034 0.27054 0.0
C634 C 0.38614 0.09021 0.47597 0.0
C635 C 0.38093 0.07743 0.5529 0.0
C636 C 0.36698 0.10578 0.43795 0.0
C637 C 0.34187 0.1086 0.47502 0.0
C638 C 0.3382 0.09938 0.55795 0.0
C639 C 0.35756 0.0838 0.59649 0.0
H640 H 0.45428 0.34262 0.27524 0.0
H641 H 0.51541 0.29248 0.37763 0.0
H642 H 0.45654 0.37004 0.40204 0.0
H643 H 0.51712 0.31909 0.50272 0.0
H644 H 0.53904 0.37583 0.68381 0.0
H645 H 0.5057 0.34571 0.62519 0.0
H646 H 0.49594 0.39803 0.41239 0.0
H647 H 0.52911 0.42734 0.46884 0.0
C648 C 0.46748 0.33686 0.32573 0.0
C649 C 0.48548 0.31605 0.31444 0.0
C650 C 0.46856 0.3524 0.3987 0.0
C651 C 0.48769 0.34731 0.46099 0.0
C652 C 0.50225 0.32379 0.45594 0.0
C653 C 0.50131 0.30842 0.38313 0.0
C654 C 0.52934 0.38108 0.62532 0.0
C655 C 0.53745 0.40352 0.57958 0.0
C656 C 0.50999 0.36403 0.59245 0.0
C657 C 0.49855 0.36917 0.51331 0.0
C658 C 0.50415 0.3934 0.47368 0.0
C659 C 0.52351 0.41027 0.50605 0.0
H660 H 0.236 0.43571 0.20721 0.0
H661 H 0.28105 0.49033 0.36211 0.0
H662 H 0.21035 0.42268 0.33091 0.0
H663 H 0.25604 0.47733 0.48335 0.0
H664 H 0.19769 0.48186 0.66671 0.0
H665 H 0.22993 0.45526 0.59007 0.0
H666 H 0.17894 0.45585 0.37112 0.0
H667 H 0.14812 0.48286 0.44371 0.0
C668 C 0.2411 0.44424 0.26786 0.0
C669 C 0.25969 0.46499 0.27375 0.0
C670 C 0.22662 0.43655 0.33893 0.0
C671 C 0.23027 0.4499 0.41615 0.0
C672 C 0.25228 0.46684 0.42489 0.0
C673 C 0.26669 0.47451 0.35426 0.0
C674 C 0.19319 0.47589 0.60264 0.0
C675 C 0.1707 0.48567 0.56074 0.0
C676 C 0.21148 0.46025 0.55925 0.0
C677 C 0.20747 0.45409 0.47356 0.0
C678 C 0.18295 0.46016 0.43685 0.0
C679 C 0.16501 0.47603 0.47929 0.0
H680 H 0.98509 0.8462 0.09391 0.0
H681 H 0.03434 0.77988 0.02652 0.0
H682 H 1.00257 0.87101 0.97565 0.0
H683 H 0.05043 0.80399 0.90412 0.0
H684 H 0.10826 0.87221 0.83257 0.0
H685 H 0.08169 0.83888 0.90262 0.0
H686 H 1.01045 0.88056 0.83294 0.0
H687 H 0.03729 0.91462 0.76602 0.0
C688 C 0.9991 0.83665 0.05229 0.0
C689 C 1.00899 0.81145 0.07113 0.0
C690 C 1.00887 0.85074 0.98352 0.0
C691 C 0.02844 0.83972 0.93138 0.0
C692 C 0.03592 0.8133 0.94449 0.0
C693 C 0.02643 0.79935 1.01412 0.0
C694 C 0.08691 0.87395 0.83034 0.0
C695 C 0.07494 0.89616 0.79403 0.0
C696 C 0.07157 0.85468 0.87011 0.0
C697 C 0.04385 0.85704 0.87385 0.0
C698 C 0.03177 0.87835 0.83247 0.0
C699 C 0.04716 0.89785 0.79379 0.0
H700 H 0.72924 1.00912 1.01615 0.0
H701 H 0.71932 0.93981 0.17107 0.0
H702 H 0.68489 1.00274 0.9595 0.0
H703 H 0.67483 0.93331 0.11441 0.0
H704 H 0.59843 0.99726 0.91199 0.0
H705 H 0.64283 0.9786 0.90199 0.0
H706 H 0.64479 0.96981 0.17264 0.0
H707 H 0.60166 0.98977 0.18365 0.0
C708 C 0.71831 0.99143 0.03352 0.0
C709 C 0.72726 0.97537 0.09954 0.0
C710 C 0.69277 0.9878 1.00129 0.0
C711 C 0.67614 0.96808 0.03508 0.0
C712 C 0.68713 0.94896 0.08861 0.0
C713 C 0.71266 0.95257 0.1206 0.0
C714 C 0.60829 0.99127 0.96944 0.0
C715 C 0.59669 0.99586 0.04901 0.0
C716 C 0.63352 0.98016 0.96329 0.0
C717 C 0.64723 0.9727 0.03635 0.0
C718 C 0.63455 0.97492 0.11491 0.0
C719 C 0.60971 0.98652 0.12127 0.0
H720 H 0.61911 0.73347 0.1495 0.0
H721 H 0.56411 0.78136 1.00825 0.0
H722 H 0.62866 0.70825 0.02168 0.0
H723 H 0.57367 0.75684 0.88312 0.0
H724 H 0.56399 0.64957 0.91409 0.0
H725 H 0.59534 0.67764 0.98047 0.0
H726 H 0.59228 0.73163 0.76998 0.0
H727 H 0.56098 0.70213 0.69887 0.0
C728 C 0.60968 0.73917 0.09099 0.0
C729 C 0.59001 0.7587 0.09021 0.0
C730 C 0.61539 0.72494 0.01749 0.0
C731 C 0.60109 0.72972 0.9428 0.0
C732 C 0.58496 0.75223 0.93921 0.0
C733 C 0.57926 0.76637 1.01219 0.0
C734 C 0.57068 0.66649 0.87826 0.0
C735 C 0.5584 0.67414 0.80231 0.0
C736 C 0.58918 0.68288 0.91729 0.0
C737 C 0.59527 0.70774 0.88292 0.0
C738 C 0.58705 0.71306 0.79982 0.0
C739 C 0.56872 0.69633 0.75968 0.0
H740 H 0.78207 0.52132 0.05212 0.0
H741 H 0.83716 0.58553 0.09818 0.0
H742 H 0.8081 0.50723 0.93227 0.0
H743 H 0.86329 0.57149 0.97667 0.0
H744 H 0.86334 0.47909 0.73617 0.0
H745 H 0.83197 0.51073 0.79662 0.0
H746 H 0.88925 0.53098 0.98941 0.0
H747 H 0.91972 0.4994 0.93159 0.0
C748 C 0.79912 0.53317 0.03432 0.0
C749 C 0.80805 0.55408 0.08574 0.0
C750 C 0.814 0.52514 0.9651 0.0
C751 C 0.83806 0.53789 0.94641 0.0
C752 C 0.84507 0.56099 0.99097 0.0
C753 C 0.83024 0.56895 0.06058 0.0
C754 C 0.86915 0.49052 0.79108 0.0
C755 C 0.89392 0.48665 0.82939 0.0
C756 C 0.85138 0.5088 0.82493 0.0
C757 C 0.85823 0.5235 0.89725 0.0
C758 C 0.88355 0.52054 0.93239 0.0
C759 C 0.90105 0.50224 0.89934 0.0
H760 H 1.00038 0.21331 0.08547 0.0
H761 H 0.05929 0.241 0.91034 0.0
H762 H 0.99467 0.17271 1.00208 0.0
H763 H 0.05346 0.20089 0.82585 0.0
H764 H 0.06479 0.11335 0.76114 0.0
H765 H 0.06531 0.15577 0.83416 0.0
H766 H 0.98108 0.14908 0.87601 0.0
H767 H 0.98092 0.10585 0.80504 0.0
C768 C 1.01124 0.21129 0.02698 0.0
C769 C 0.02974 0.23093 1.00352 0.0
C770 C 1.0082 0.18777 0.97928 0.0
C771 C 0.02384 0.18293 0.90702 0.0
C772 C 0.04134 0.20331 0.88155 0.0
C773 C 0.04432 0.22674 0.92912 0.0
C774 C 0.0464 0.12066 0.78684 0.0
C775 C 0.02293 0.10571 0.77806 0.0
C776 C 0.04657 0.14543 0.8278 0.0
C777 C 0.0232 0.15641 0.86146 0.0
C778 C 0.99959 0.14149 0.85202 0.0
C779 C 0.99944 0.11666 0.81057 0.0
H780 H 0.35726 0.05495 0.13974 0.0
H781 H 0.31163 0.03878 0.9149 0.0
H782 H 0.39802 0.05112 0.05981 0.0
H783 H 0.35328 0.03332 0.83526 0.0
H784 H 0.46084 0.07907 0.8599 0.0
H785 H 0.41809 0.08042 0.93234 0.0
H786 H 0.39947 1.0022 0.84062 0.0
H787 H 0.44294 1.00022 0.77141 0.0
C788 C 0.3557 0.0506 0.07305 0.0
C789 C 0.33056 0.04805 0.0341 0.0
C790 C 0.37937 0.04823 0.02715 0.0
C791 C 0.37918 0.04232 0.94055 0.0
C792 C 0.35427 0.03802 0.90186 0.0
C793 C 0.33031 0.04101 0.94779 0.0
C794 C 0.44777 0.06207 0.85489 0.0
C795 C 0.45563 0.0396 0.80863 0.0
C796 C 0.42311 0.06287 0.89658 0.0
C797 C 0.40503 0.04151 0.89212 0.0
C798 C 0.41263 1.01916 0.84493 0.0
C799 C 0.43768 1.01805 0.80513 0.0
H800 H 0.46532 0.34328 1.00542 0.0
H801 H 0.55029 0.33873 1.01611 0.0
H802 H 0.46845 0.38365 0.9223 0.0
H803 H 0.5538 0.37993 0.93557 0.0
H804 H 0.55392 0.45052 0.75417 0.0
H805 H 0.5507 0.40639 0.81635 0.0
H806 H 0.47651 0.42826 0.9318 0.0
H807 H 0.47908 0.47124 0.86326 0.0
C808 C 0.48478 0.35068 0.9885 0.0
C809 C 0.50752 0.33731 1.01665 0.0
C810 C 0.48666 0.37431 0.94183 0.0
C811 C 0.51142 0.38598 0.92248 0.0
C812 C 0.53426 0.37191 0.94777 0.0
C813 C 0.53233 0.34801 0.99393 0.0
C814 C 0.53648 0.44547 0.79011 0.0
C815 C 0.51646 0.4644 0.8013 0.0
C816 C 0.53485 0.42021 0.82796 0.0
C817 C 0.51318 0.41297 0.87961 0.0
C818 C 0.4933 0.43225 0.89141 0.0
C819 C 0.49492 0.45737 0.85297 0.0
H820 H 0.23602 0.47791 0.9359 0.0
H821 H 0.21952 0.54723 0.0839 0.0
H822 H 0.19449 0.48355 0.85888 0.0
H823 H 0.17729 0.55246 1.01046 0.0
H824 H 0.1065 0.56542 0.83588 0.0
H825 H 0.15079 0.5629 0.89685 0.0
H826 H 0.14939 0.47804 0.8639 0.0
H827 H 0.10579 0.48098 0.79902 0.0
C828 C 0.22373 0.49476 0.95074 0.0
C829 C 0.23164 0.51252 1.0147 0.0
C830 C 0.19944 0.49778 0.90759 0.0
C831 C 0.18168 0.51835 0.92804 0.0
C832 C 0.1901 0.53653 0.99085 0.0
C833 C 0.21457 0.53365 0.03325 0.0
C834 C 0.11565 0.54619 0.84149 0.0
C835 C 0.10204 0.52337 0.81327 0.0
C836 C 0.14123 0.54467 0.87743 0.0
C837 C 0.15435 0.52021 0.88683 0.0
C838 C 0.14067 0.49742 0.85761 0.0
C839 C 0.11517 0.499 0.82131 0.0
H840 H 0.96359 0.82808 0.39784 0.0
H841 H 0.04835 0.82892 0.37185 0.0
H842 H 0.96593 0.86888 0.48151 0.0
H843 H 0.05097 0.86985 0.45363 0.0
H844 H 0.05118 0.93922 0.63705 0.0
H845 H 0.04763 0.89446 0.57955 0.0
H846 H 0.97319 0.91484 0.46309 0.0
H847 H 0.97635 0.95912 0.52429 0.0
C848 C 0.98284 0.83643 0.41279 0.0
C849 C 1.00583 0.82459 0.38028 0.0
C850 C 0.98422 0.86028 0.45938 0.0
C851 C 1.00867 0.87329 0.47452 0.0
C852 C 0.03175 0.86064 0.44507 0.0
C853 C 0.03032 0.83687 0.39845 0.0
C854 C 0.03372 0.93395 0.60105 0.0
C855 C 1.01387 0.95289 0.58721 0.0
C856 C 0.03183 0.90823 0.56655 0.0
C857 C 1.01004 0.90046 0.51604 0.0
C858 C 0.9901 0.91948 0.50258 0.0
C859 C 0.99202 0.94518 0.53725 0.0
H860 H 0.73084 0.9812 0.44017 0.0
H861 H 0.71703 0.05606 0.32015 0.0
H862 H 0.69153 0.98745 0.52828 0.0
H863 H 0.67771 0.06253 0.40792 0.0
H864 H 0.5902 0.04495 0.47536 0.0
H865 H 0.63373 0.04332 0.41009 0.0
H866 H 0.6663 1.0109 0.6389 0.0
H867 H 0.62216 1.01231 0.70441 0.0
C868 C 0.72016 0.99965 0.4355 0.0
C869 C 0.72784 1.01851 0.37457 0.0
C870 C 0.69729 1.00313 0.48555 0.0
C871 C 0.68086 0.02538 0.47528 0.0
C872 C 0.68941 0.04492 0.41752 0.0
C873 C 0.71243 0.04153 0.36815 0.0
C874 C 0.60657 0.03748 0.51229 0.0
C875 C 0.60235 0.02884 0.59575 0.0
C876 C 0.63182 0.03681 0.4748 0.0
C877 C 0.65405 0.02717 0.5187 0.0
C878 C 0.64988 1.01843 0.60242 0.0
C879 C 0.6245 1.0194 0.64047 0.0
H880 H 0.58037 0.74493 0.45406 0.0
H881 H 0.51706 0.7199 0.29013 0.0
H882 H 0.57416 0.705 0.53968 0.0
H883 H 0.51108 0.67971 0.37326 0.0
H884 H 0.49321 0.61523 0.56377 0.0
H885 H 0.49703 0.6581 0.49482 0.0
H886 H 0.58106 0.65912 0.54568 0.0
H887 H 0.57672 0.61674 0.61852 0.0
C888 C 0.56463 0.7312 0.43756 0.0
C889 C 0.54869 0.73615 0.36647 0.0
C890 C 0.5613 0.70791 0.48593 0.0
C891 C 0.54206 0.68853 0.46441 0.0
C892 C 0.52579 0.69398 0.39399 0.0
C893 C 0.52913 0.71723 0.34594 0.0
C894 C 0.51255 0.62456 0.56048 0.0
C895 C 0.53479 0.61188 0.5953 0.0
C896 C 0.51483 0.6493 0.51996 0.0
C897 C 0.53947 0.6625 0.51247 0.0
C898 C 0.56162 0.65006 0.54954 0.0
C899 C 0.55927 0.62531 0.59042 0.0
H900 H 0.81775 0.51559 0.4301 0.0
H901 H 0.83863 0.59592 0.36857 0.0
H902 H 0.85869 0.51154 0.51259 0.0
H903 H 0.87902 0.5924 0.45203 0.0
H904 H 0.96436 0.56875 0.50805 0.0
H905 H 0.92109 0.57389 0.44349 0.0
H906 H 0.88696 0.52159 0.6294 0.0
H907 H 0.93069 0.5159 0.69262 0.0
C908 C 0.83054 0.53275 0.43692 0.0
C909 C 0.82447 0.55625 0.39359 0.0
C910 C 0.85431 0.53041 0.48386 0.0
C911 C 0.87291 0.55146 0.48865 0.0
C912 C 0.86591 0.57539 0.44889 0.0
C913 C 0.84232 0.57765 0.40202 0.0
C914 C 0.94777 0.55824 0.53555 0.0
C915 C 0.95158 0.54165 0.60586 0.0
C916 C 0.92257 0.56143 0.49865 0.0
C917 C 0.8999 0.54829 0.53055 0.0
C918 C 0.90364 0.5319 0.60158 0.0
C919 C 0.92893 0.52871 0.63853 0.0
loop_
_geom_bond_atom_site_label_1
_geom_bond_atom_site_label_2
_geom_bond_distance
_geom_bond_site_symmetry_2
_ccdc_geom_bond_type
H0 C7 0.929 . S
H1 C10 0.930 . S
H2 C12 0.929 . S
H3 C4 0.969 . S
C4 H3 0.969 . S
C4 O5 1.550 . S
C4 H6 0.973 . S
O5 C4 1.550 . S
O5 C11 1.412 . S
H6 C4 0.973 . S
C7 H0 0.929 . S
C7 C8 1.400 . S
C7 C9 1.364 . S
C8 C7 1.400 . S
C8 C12 1.377 . S
C9 C7 1.364 . S
C9 C10 1.374 . S
C10 H1 0.930 . S
C10 C9 1.374 . S
C10 C11 1.383 . S
C11 O5 1.412 . S
C11 C10 1.383 . S
C11 C12 1.394 . S
C12 H2 0.929 . S
C12 C8 1.377 . S
C12 C11 1.394 . S
H13 C20 0.929 . S
H14 C23 0.930 . S
H15 C25 0.929 . S
H16 C17 0.969 1_455 S
C17 H16 0.969 1_655 S
C17 O18 1.550 . S
C17 H19 0.973 . S
O18 C17 1.550 . S
O18 C24 1.412 . S
H19 C17 0.973 . S
C20 H13 0.929 . S
C20 C21 1.400 . S
C20 C22 1.364 . S
C21 C20 1.400 . S
C21 C25 1.377 . S
C22 C20 1.364 . S
C22 C23 1.374 . S
C23 H14 0.930 . S
C23 C22 1.374 . S
C23 C24 1.383 . S
C24 O18 1.412 . S
C24 C23 1.383 . S
C24 C25 1.394 . S
C25 H15 0.929 . S
C25 C21 1.377 . S
C25 C24 1.394 . S
H26 C33 0.929 . S
H27 C36 0.930 . S
H28 C38 0.929 . S
H29 C30 0.969 1_545 S
C30 H29 0.969 1_565 S
C30 O31 1.550 . S
C30 H32 0.973 . S
O31 C30 1.550 . S
O31 C37 1.412 . S
H32 C30 0.973 . S
C33 H26 0.929 . S
C33 C34 1.400 . S
C33 C35 1.364 . S
C34 C33 1.400 . S
C34 C38 1.377 . S
C35 C33 1.364 . S
C35 C36 1.374 . S
C36 H27 0.930 . S
C36 C35 1.374 . S
C36 C37 1.383 . S
C37 O31 1.412 . S
C37 C36 1.383 . S
C37 C38 1.394 . S
C38 H28 0.929 . S
C38 C34 1.377 . S
C38 C37 1.394 . S
H39 C46 0.929 . S
H40 C49 0.930 . S
H41 C51 0.929 . S
H42 C43 0.969 . S
C43 H42 0.969 . S
C43 O44 1.550 . S
C43 H45 0.973 . S
O44 C43 1.550 . S
O44 C50 1.412 . S
H45 C43 0.973 . S
C46 H39 0.929 . S
C46 C47 1.400 . S
C46 C48 1.364 . S
C47 C46 1.400 . S
C47 C51 1.377 . S
C48 C46 1.364 . S
C48 C49 1.374 . S
C49 H40 0.930 . S
C49 C48 1.374 . S
C49 C50 1.383 . S
C50 O44 1.412 . S
C50 C49 1.383 . S
C50 C51 1.394 . S
C51 H41 0.929 . S
C51 C47 1.377 . S
C51 C50 1.394 . S
H52 C59 0.929 . S
H53 C62 0.930 . S
H54 C64 0.929 . S
H55 C56 0.969 . S
C56 H55 0.969 . S
C56 O57 1.550 . S
C56 H58 0.973 . S
O57 C56 1.550 . S
O57 C63 1.412 . S
H58 C56 0.973 . S
C59 H52 0.929 . S
C59 C60 1.400 1_554 S
C59 C61 1.364 . S
C60 C59 1.400 1_556 S
C60 C64 1.377 . S
C61 C59 1.364 . S
C61 C62 1.374 . S
C62 H53 0.930 . S
C62 C61 1.374 . S
C62 C63 1.383 . S
C63 O57 1.412 . S
C63 C62 1.383 . S
C63 C64 1.394 1_554 S
C64 H54 0.929 . S
C64 C60 1.377 . S
C64 C63 1.394 1_556 S
H65 C72 0.929 . S
H66 C75 0.930 . S
H67 C77 0.929 . S
H68 C69 0.969 . S
C69 H68 0.969 . S
C69 O70 1.550 . S
C69 H71 0.973 . S
O70 C69 1.550 . S
O70 C76 1.412 . S
H71 C69 0.973 . S
C72 H65 0.929 . S
C72 C73 1.400 1_554 S
C72 C74 1.364 . S
C73 C72 1.400 1_556 S
C73 C77 1.377 . S
C74 C72 1.364 . S
C74 C75 1.374 . S
C75 H66 0.930 . S
C75 C74 1.374 . S
C75 C76 1.383 . S
C76 O70 1.412 . S
C76 C75 1.383 . S
C76 C77 1.394 1_554 S
C77 H67 0.929 . S
C77 C73 1.377 . S
C77 C76 1.394 1_556 S
H78 C85 0.929 . S
H79 C88 0.930 . S
H80 C90 0.929 . S
H81 C82 0.969 . S
C82 H81 0.969 . S
C82 O83 1.550 . S
C82 H84 0.973 . S
O83 C82 1.550 . S
O83 C89 1.412 . S
H84 C82 0.973 . S
C85 H78 0.929 . S
C85 C86 1.400 1_554 S
C85 C87 1.364 . S
C86 C85 1.400 1_556 S
C86 C90 1.377 . S
C87 C85 1.364 . S
C87 C88 1.374 . S
C88 H79 0.930 . S
C88 C87 1.374 . S
C88 C89 1.383 . S
C89 O83 1.412 . S
C89 C88 1.383 . S
C89 C90 1.394 1_554 S
C90 H80 0.929 . S
C90 C86 1.377 . S
C90 C89 1.394 1_556 S
H91 C98 0.929 . S
H92 C101 0.930 . S
H93 C103 0.929 . S
H94 C95 0.969 . S
C95 H94 0.969 . S
C95 O96 1.550 . S
C95 H97 0.973 . S
O96 C95 1.550 . S
O96 C102 1.412 . S
H97 C95 0.973 . S
C98 H91 0.929 . S
C98 C99 1.400 1_554 S
C98 C100 1.364 . S
C99 C98 1.400 1_556 S
C99 C103 1.377 . S
C100 C98 1.364 . S
C100 C101 1.374 . S
C101 H92 0.930 . S
C101 C100 1.374 . S
C101 C102 1.383 . S
C102 O96 1.412 . S
C102 C101 1.383 . S
C102 C103 1.394 1_554 S
C103 H93 0.929 . S
C103 C99 1.377 . S
C103 C102 1.394 1_556 S
C104 C106 1.422 . S
C104 C108 1.415 . S
C104 N110 1.369 . S
C105 C106 1.421 1_554 S
C105 C107 1.417 . S
C105 C117 1.422 . S
C106 C104 1.422 . S
C106 C105 1.421 1_556 S
C106 N116 1.359 . S
C107 C105 1.417 . S
C107 C109 1.329 1_554 S
C107 H126 0.930 . S
C108 C104 1.415 . S
C108 C109 1.437 . S
C108 C112 1.413 . S
C109 C107 1.329 1_556 S
C109 C108 1.437 . S
C109 H131 0.929 1_556 S
N110 C104 1.369 . S
N110 C111 1.338 . S
N110 Gd115 2.622 1_545 S
C111 N110 1.338 . S
C111 C113 1.378 . S
C111 H123 0.929 1_545 S
C112 C108 1.413 . S
C112 C113 1.348 . S
C112 H128 0.931 . S
C113 C111 1.378 . S
C113 C112 1.348 . S
C113 H129 0.930 . S
Gd114 N134 2.622 . S
Gd114 N141 2.570 . S
Gd114 O148 2.353 1_655 S
Gd114 O149 2.468 1_655 S
Gd114 O150 2.427 . S
Gd114 O152 2.388 . S
Gd114 O153 2.386 1_545 S
Gd114 O157 2.307 1_655 S
Gd114 C167 2.805 . S
Gd115 N110 2.622 1_565 S
Gd115 N116 2.570 1_565 S
Gd115 O147 2.386 1_565 S
Gd115 O151 2.307 1_465 S
Gd115 O154 2.353 . S
Gd115 O155 2.468 . S
Gd115 O156 2.427 . S
Gd115 O158 2.388 . S
Gd115 C179 2.805 . S
N116 C106 1.359 . S
N116 Gd115 2.570 1_545 S
N116 C118 1.343 . S
C117 C105 1.422 . S
C117 C119 1.321 . S
C117 H125 0.931 . S
C118 N116 1.343 . S
C118 C119 1.390 1_556 S
C118 H120 0.931 1_455 S
C119 C117 1.321 . S
C119 C118 1.390 1_554 S
C119 H121 0.916 1_455 S
H120 C118 0.931 1_655 S
H121 C119 0.916 1_655 S
H122 C145 0.931 . S
H123 C111 0.929 1_565 S
H124 C146 0.930 . S
H125 C117 0.931 . S
H126 C107 0.930 . S
H127 C136 0.929 . S
H128 C112 0.931 . S
H129 C113 0.930 . S
H130 C168 0.930 . S
H131 C109 0.929 1_554 S
H132 C137 0.931 . S
H133 C138 0.930 . S
N134 Gd114 2.622 . S
N134 C135 1.369 . S
N134 C136 1.338 . S
C135 N134 1.369 . S
C135 C139 1.415 1_545 S
C135 C142 1.422 . S
C136 H127 0.929 . S
C136 N134 1.338 . S
C136 C138 1.378 . S
C137 H132 0.931 . S
C137 C138 1.348 1_565 S
C137 C139 1.413 . S
C138 H133 0.930 . S
C138 C136 1.378 . S
C138 C137 1.348 1_545 S
C139 C135 1.415 1_565 S
C139 C137 1.413 . S
C139 C169 1.437 . S
H140 C169 0.929 . S
N141 Gd114 2.570 . S
N141 C142 1.359 . S
N141 C145 1.343 1_655 S
C142 C135 1.422 . S
C142 N141 1.359 . S
C142 C144 1.421 1_545 S
C143 C144 1.422 . S
C143 C146 1.321 1_655 S
C143 H170 0.931 . S
C144 C142 1.421 1_565 S
C144 C143 1.422 . S
C144 C168 1.417 . S
C145 H122 0.931 . S
C145 N141 1.343 1_455 S
C145 C146 1.390 1_545 S
C146 H124 0.930 . S
C146 C143 1.321 1_455 S
C146 C145 1.390 1_565 S
O147 Gd115 2.386 1_545 S
O147 C159 1.265 . S
O148 Gd114 2.353 1_455 S
O148 C159 1.242 . S
O149 Gd114 2.468 1_455 S
O149 C167 1.263 1_455 S
O150 Gd114 2.427 . S
O150 C167 1.252 . S
O151 Gd115 2.307 1_645 S
O151 C160 1.261 . S
O152 Gd114 2.388 . S
O152 C160 1.252 . S
O153 Gd114 2.386 1_565 S
O153 C171 1.265 . S
O154 Gd115 2.353 . S
O154 C171 1.242 1_455 S
O155 Gd115 2.468 . S
O155 C179 1.263 . S
O156 Gd115 2.427 . S
O156 C179 1.252 . S
O157 Gd114 2.307 1_455 S
O157 C172 1.261 . S
O158 Gd115 2.388 . S
O158 C172 1.252 1_565 S
C159 O147 1.265 . S
C159 O148 1.242 . S
C160 O151 1.261 . S
C160 O152 1.252 . S
C161 C164 1.394 . S
C161 C166 1.370 . S
C161 C167 1.500 . S
C162 C165 1.383 . S
C162 C166 1.395 . S
C163 C164 1.396 . S
C163 C165 1.365 . S
C163 H180 0.929 . S
C164 C161 1.394 . S
C164 C163 1.396 . S
C164 H181 0.930 . S
C165 C162 1.383 . S
C165 C163 1.365 . S
C165 H182 0.931 . S
C166 C161 1.370 . S
C166 C162 1.395 . S
C166 H183 0.930 1_655 S
C167 Gd114 2.805 . S
C167 O149 1.263 1_655 S
C167 O150 1.252 . S
C167 C161 1.500 . S
C168 H130 0.930 . S
C168 C144 1.417 . S
C168 C169 1.329 . S
C169 C139 1.437 . S
C169 H140 0.929 . S
C169 C168 1.329 . S
H170 C143 0.931 . S
C171 O153 1.265 . S
C171 O154 1.242 1_655 S
C172 O157 1.261 . S
C172 O158 1.252 1_545 S
C173 C176 1.394 . S
C173 C178 1.370 . S
C173 C179 1.500 . S
C174 C177 1.383 . S
C174 C178 1.395 . S
C175 C176 1.396 . S
C175 C177 1.365 . S
C175 H184 0.929 . S
C176 C173 1.394 . S
C176 C175 1.396 . S
C176 H185 0.930 . S
C177 C174 1.383 . S
C177 C175 1.365 . S
C177 H186 0.931 . S
C178 C173 1.370 . S
C178 C174 1.395 . S
C178 H187 0.930 . S
C179 Gd115 2.805 . S
C179 O155 1.263 . S
C179 O156 1.252 . S
C179 C173 1.500 . S
H180 C163 0.929 . S
H181 C164 0.930 . S
H182 C165 0.931 . S
H183 C166 0.930 1_455 S
H184 C175 0.929 . S
H185 C176 0.930 . S
H186 C177 0.931 . S
H187 C178 0.930 . S
C188 C190 1.422 . S
C188 C192 1.415 . S
C188 N194 1.369 . S
C189 C190 1.421 . S
C189 C191 1.417 . S
C189 C201 1.422 . S
C190 C188 1.422 . S
C190 C189 1.421 . S
C190 N200 1.359 . S
C191 C189 1.417 . S
C191 C193 1.329 . S
C191 H210 0.930 . S
C192 C188 1.415 . S
C192 C193 1.437 . S
C192 C196 1.413 . S
C193 C191 1.329 . S
C193 C192 1.437 . S
C193 H215 0.929 . S
N194 C188 1.369 . S
N194 C195 1.338 . S
N194 Gd199 2.622 . S
C195 N194 1.338 . S
C195 C197 1.378 . S
C195 H207 0.929 . S
C196 C192 1.413 . S
C196 C197 1.348 . S
C196 H212 0.931 . S
C197 C195 1.378 . S
C197 C196 1.348 . S
C197 H213 0.930 . S
Gd198 N218 2.622 . S
Gd198 N225 2.570 . S
Gd198 O232 2.353 1_545 S
Gd198 O233 2.468 . S
Gd198 O234 2.427 . S
Gd198 O236 2.388 . S
Gd198 O237 2.386 . S
Gd198 O241 2.307 . S
Gd198 C251 2.805 . S
Gd199 N194 2.622 . S
Gd199 N200 2.570 . S
Gd199 O231 2.386 . S
Gd199 O235 2.307 1_565 S
Gd199 O238 2.353 1_565 S
Gd199 O239 2.468 . S
Gd199 O240 2.427 . S
Gd199 O242 2.388 . S
Gd199 C263 2.805 . S
N200 C190 1.359 . S
N200 Gd199 2.570 . S
N200 C202 1.343 . S
C201 C189 1.422 . S
C201 C203 1.321 . S
C201 H209 0.931 . S
C202 N200 1.343 . S
C202 C203 1.390 . S
C202 H204 0.931 . S
C203 C201 1.321 . S
C203 C202 1.390 . S
C203 H205 0.930 . S
H204 C202 0.931 . S
H205 C203 0.930 . S
H206 C229 0.931 . S
H207 C195 0.929 . S
H208 C230 0.930 . S
H209 C201 0.931 . S
H210 C191 0.930 . S
H211 C220 0.929 . S
H212 C196 0.931 . S
H213 C197 0.930 . S
H214 C252 0.930 . S
H215 C193 0.929 . S
H216 C221 0.931 . S
H217 C222 0.930 . S
N218 Gd198 2.622 . S
N218 C219 1.369 . S
N218 C220 1.338 . S
C219 N218 1.369 . S
C219 C223 1.415 . S
C219 C226 1.422 . S
C220 H211 0.929 . S
C220 N218 1.338 . S
C220 C222 1.378 . S
C221 H216 0.931 . S
C221 C222 1.348 . S
C221 C223 1.413 . S
C222 H217 0.930 . S
C222 C220 1.378 . S
C222 C221 1.348 . S
C223 C219 1.415 . S
C223 C221 1.413 . S
C223 C253 1.437 . S
H224 C253 0.929 . S
N225 Gd198 2.570 . S
N225 C226 1.359 . S
N225 C229 1.343 . S
C226 C219 1.422 . S
C226 N225 1.359 . S
C226 C228 1.421 . S
C227 C228 1.422 . S
C227 C230 1.321 . S
C227 H254 0.931 . S
C228 C226 1.421 . S
C228 C227 1.422 . S
C228 C252 1.417 . S
C229 H206 0.931 . S
C229 N225 1.343 . S
C229 C230 1.390 . S
C230 H208 0.930 . S
C230 C227 1.321 . S
C230 C229 1.390 . S
O231 Gd199 2.386 . S
O231 C243 1.265 . S
O232 Gd198 2.353 1_565 S
O232 C243 1.242 . S
O233 Gd198 2.468 . S
O233 C251 1.263 . S
O234 Gd198 2.427 . S
O234 C251 1.252 . S
O235 Gd199 2.307 1_545 S
O235 C244 1.261 . S
O236 Gd198 2.388 . S
O236 C244 1.252 . S
O237 Gd198 2.386 . S
O237 C255 1.265 . S
O238 Gd199 2.353 1_545 S
O238 C255 1.242 . S
O239 Gd199 2.468 . S
O239 C263 1.263 . S
O240 Gd199 2.427 . S
O240 C263 1.252 . S
O241 Gd198 2.307 . S
O241 C256 1.261 . S
O242 Gd199 2.388 . S
O242 C256 1.252 1_565 S
C243 O231 1.265 . S
C243 O232 1.242 . S
C244 O235 1.261 . S
C244 O236 1.252 . S
C245 C248 1.394 1_556 S
C245 C250 1.370 . S
C245 C251 1.500 . S
C246 C249 1.383 . S
C246 C250 1.395 1_554 S
C247 C248 1.396 . S
C247 C249 1.365 . S
C247 H264 0.929 . S
C248 C245 1.394 1_554 S
C248 C247 1.396 . S
C248 H265 0.930 . S
C249 C246 1.383 . S
C249 C247 1.365 . S
C249 H266 0.931 . S
C250 C245 1.370 . S
C250 C246 1.395 1_556 S
C250 H267 0.930 . S
C251 Gd198 2.805 . S
C251 O233 1.263 . S
C251 O234 1.252 . S
C251 C245 1.500 . S
C252 H214 0.930 . S
C252 C228 1.417 . S
C252 C253 1.329 . S
C253 C223 1.437 . S
C253 H224 0.929 . S
C253 C252 1.329 . S
H254 C227 0.931 . S
C255 O237 1.265 . S
C255 O238 1.242 . S
C256 O241 1.261 . S
C256 O242 1.252 1_545 S
C257 C260 1.394 . S
C257 C262 1.370 1_565 S
C257 C263 1.500 . S
C258 C261 1.383 1_545 S
C258 C262 1.395 . S
C259 C260 1.396 . S
C259 C261 1.365 . S
C259 H268 0.929 . S
C260 C257 1.394 . S
C260 C259 1.396 . S
C260 H269 0.930 . S
C261 C258 1.383 1_565 S
C261 C259 1.365 . S
C261 H270 0.931 . S
C262 C257 1.370 1_545 S
C262 C258 1.395 . S
C262 H271 0.930 . S
C263 Gd199 2.805 . S
C263 O239 1.263 . S
C263 O240 1.252 . S
C263 C257 1.500 . S
H264 C247 0.929 . S
H265 C248 0.930 . S
H266 C249 0.931 . S
H267 C250 0.930 . S
H268 C259 0.929 . S
H269 C260 0.930 . S
H270 C261 0.931 . S
H271 C262 0.930 . S
C272 C274 1.422 . S
C272 C276 1.415 . S
C272 N278 1.369 . S
C273 C274 1.421 1_554 S
C273 C275 1.417 . S
C273 C285 1.422 . S
C274 C272 1.422 . S
C274 C273 1.421 1_556 S
C274 N284 1.359 . S
C275 C273 1.417 . S
C275 C277 1.329 1_554 S
C275 H294 0.930 . S
C276 C272 1.415 . S
C276 C277 1.437 . S
C276 C280 1.413 . S
C277 C275 1.329 1_556 S
C277 C276 1.437 . S
C277 H299 0.929 1_556 S
N278 C272 1.369 . S
N278 C279 1.338 . S
N278 Gd283 2.622 . S
C279 N278 1.338 . S
C279 C281 1.378 . S
C279 H291 0.929 . S
C280 C276 1.413 . S
C280 C281 1.348 . S
C280 H296 0.931 . S
C281 C279 1.378 . S
C281 C280 1.348 . S
C281 H297 0.930 . S
Gd282 N302 2.622 . S
Gd282 N309 2.570 . S
Gd282 O316 2.353 . S
Gd282 O317 2.468 . S
Gd282 O318 2.427 . S
Gd282 O320 2.388 . S
Gd282 O321 2.386 . S
Gd282 O325 2.307 . S
Gd282 C335 2.805 . S
Gd283 N278 2.622 . S
Gd283 N284 2.570 . S
Gd283 O315 2.386 . S
Gd283 O319 2.307 . S
Gd283 O322 2.353 . S
Gd283 O323 2.468 . S
Gd283 O324 2.427 . S
Gd283 O326 2.388 . S
Gd283 C347 2.805 . S
N284 C274 1.359 . S
N284 Gd283 2.570 . S
N284 C286 1.343 . S
C285 C273 1.422 . S
C285 C287 1.321 . S
C285 H293 0.931 . S
C286 N284 1.343 . S
C286 C287 1.390 1_556 S
C286 H288 0.931 . S
C287 C285 1.321 . S
C287 C286 1.390 1_554 S
C287 H289 0.930 . S
H288 C286 0.931 . S
H289 C287 0.930 . S
H290 C313 0.931 . S
H291 C279 0.929 . S
H292 C314 0.930 . S
H293 C285 0.931 . S
H294 C275 0.930 . S
H295 C304 0.929 . S
H296 C280 0.931 . S
H297 C281 0.930 . S
H298 C336 0.930 . S
H299 C277 0.929 1_554 S
H300 C305 0.931 . S
H301 C306 0.930 . S
N302 Gd282 2.622 . S
N302 C303 1.369 . S
N302 C304 1.338 . S
C303 N302 1.369 . S
C303 C307 1.415 . S
C303 C310 1.422 . S
C304 H295 0.929 . S
C304 N302 1.338 . S
C304 C306 1.378 . S
C305 H300 0.931 . S
C305 C306 1.348 . S
C305 C307 1.413 . S
C306 H301 0.930 . S
C306 C304 1.378 . S
C306 C305 1.348 . S
C307 C303 1.415 . S
C307 C305 1.413 . S
C307 C337 1.437 . S
H308 C337 0.929 . S
N309 Gd282 2.570 . S
N309 C310 1.359 . S
N309 C313 1.343 . S
C310 C303 1.422 . S
C310 N309 1.359 . S
C310 C312 1.421 . S
C311 C312 1.422 . S
C311 C314 1.321 . S
C311 H338 0.931 . S
C312 C310 1.421 . S
C312 C311 1.422 . S
C312 C336 1.417 . S
C313 H290 0.931 . S
C313 N309 1.343 . S
C313 C314 1.390 . S
C314 H292 0.930 . S
C314 C311 1.321 . S
C314 C313 1.390 . S
O315 Gd283 2.386 . S
O315 C327 1.265 . S
O316 Gd282 2.353 . S
O316 C327 1.242 . S
O317 Gd282 2.468 . S
O317 C335 1.263 . S
O318 Gd282 2.427 . S
O318 C335 1.252 . S
O319 Gd283 2.307 . S
O319 C328 1.261 . S
O320 Gd282 2.388 . S
O320 C328 1.252 . S
O321 Gd282 2.386 . S
O321 C339 1.265 . S
O322 Gd283 2.353 . S
O322 C339 1.242 . S
O323 Gd283 2.468 . S
O323 C347 1.263 . S
O324 Gd283 2.427 . S
O324 C347 1.252 . S
O325 Gd282 2.307 . S
O325 C340 1.261 . S
O326 Gd283 2.388 . S
O326 C340 1.252 . S
C327 O315 1.265 . S
C327 O316 1.242 . S
C328 O319 1.261 . S
C328 O320 1.252 . S
C329 C332 1.394 . S
C329 C334 1.370 . S
C329 C335 1.500 . S
C330 C333 1.383 . S
C330 C334 1.395 . S
C331 C332 1.396 . S
C331 C333 1.365 . S
C331 H348 0.929 . S
C332 C329 1.394 . S
C332 C331 1.396 . S
C332 H349 0.930 . S
C333 C330 1.383 . S
C333 C331 1.365 . S
C333 H350 0.931 . S
C334 C329 1.370 . S
C334 C330 1.395 . S
C334 H351 0.930 . S
C335 Gd282 2.805 . S
C335 O317 1.263 . S
C335 O318 1.252 . S
C335 C329 1.500 . S
C336 H298 0.930 . S
C336 C312 1.417 . S
C336 C337 1.329 . S
C337 C307 1.437 . S
C337 H308 0.929 . S
C337 C336 1.329 . S
H338 C311 0.931 . S
C339 O321 1.265 . S
C339 O322 1.242 . S
C340 O325 1.261 . S
C340 O326 1.252 . S
C341 C344 1.394 . S
C341 C346 1.370 . S
C341 C347 1.500 . S
C342 C345 1.383 . S
C342 C346 1.395 . S
C343 C344 1.396 . S
C343 C345 1.365 . S
C343 H352 0.929 . S
C344 C341 1.394 . S
C344 C343 1.396 . S
C344 H353 0.930 . S
C345 C342 1.383 . S
C345 C343 1.365 . S
C345 H354 0.929 1_556 S
C346 C341 1.370 . S
C346 C342 1.395 . S
C346 H355 0.930 . S
C347 Gd283 2.805 . S
C347 O323 1.263 . S
C347 O324 1.252 . S
C347 C341 1.500 . S
H348 C331 0.929 . S
H349 C332 0.930 . S
H350 C333 0.931 . S
H351 C334 0.930 . S
H352 C343 0.929 . S
H353 C344 0.930 . S
H354 C345 0.929 1_554 S
H355 C346 0.930 . S
C356 C358 1.422 . S
C356 C360 1.415 . S
C356 N362 1.369 . S
C357 C358 1.421 1_554 S
C357 C359 1.417 . S
C357 C369 1.422 . S
C358 C356 1.422 . S
C358 C357 1.421 1_556 S
C358 N368 1.359 . S
C359 C357 1.417 . S
C359 C361 1.329 1_554 S
C359 H378 0.930 . S
C360 C356 1.415 . S
C360 C361 1.437 . S
C360 C364 1.413 . S
C361 C359 1.329 1_556 S
C361 C360 1.437 . S
C361 H383 0.929 1_556 S
N362 C356 1.369 . S
N362 C363 1.335 1_455 S
N362 Gd367 2.622 1_455 S
C363 N362 1.335 1_655 S
C363 C365 1.367 1_655 S
C363 H375 0.944 . S
C364 C360 1.413 . S
C364 C365 1.348 . S
C364 H380 0.931 . S
C365 C363 1.367 1_455 S
C365 C364 1.348 . S
C365 H381 0.930 . S
Gd366 N386 2.622 . S
Gd366 N393 2.570 . S
Gd366 O400 2.353 . S
Gd366 O401 2.468 . S
Gd366 O402 2.427 . S
Gd366 O404 2.388 . S
Gd366 O405 2.386 1_455 S
Gd366 O409 2.307 . S
Gd366 C419 2.805 . S
Gd367 N362 2.622 1_655 S
Gd367 N368 2.570 1_655 S
Gd367 O399 2.386 1_655 S
Gd367 O403 2.307 1_655 S
Gd367 O406 2.353 . S
Gd367 O407 2.468 . S
Gd367 O408 2.427 . S
Gd367 O410 2.388 . S
Gd367 C431 2.805 . S
N368 C358 1.359 . S
N368 Gd367 2.570 1_455 S
N368 C370 1.343 . S
C369 C357 1.422 . S
C369 C371 1.321 . S
C369 H377 0.931 . S
C370 N368 1.343 . S
C370 C371 1.390 1_556 S
C370 H372 0.931 . S
C371 C369 1.321 . S
C371 C370 1.390 1_554 S
C371 H373 0.930 . S
H372 C370 0.931 . S
H373 C371 0.930 . S
H374 C397 0.931 . S
H375 C363 0.944 . S
H376 C398 0.930 . S
H377 C369 0.931 . S
H378 C359 0.930 . S
H379 C388 0.929 . S
H380 C364 0.931 . S
H381 C365 0.930 . S
H382 C420 0.930 . S
H383 C361 0.929 1_554 S
H384 C389 0.931 . S
H385 C390 0.930 . S
N386 Gd366 2.622 . S
N386 C387 1.369 . S
N386 C388 1.338 . S
C387 N386 1.369 . S
C387 C391 1.415 1_455 S
C387 C394 1.425 . S
C388 H379 0.929 . S
C388 N386 1.338 . S
C388 C390 1.378 . S
C389 H384 0.931 . S
C389 C390 1.348 1_655 S
C389 C391 1.413 . S
C390 H385 0.930 . S
C390 C388 1.378 . S
C390 C389 1.348 1_455 S
C391 C387 1.415 1_655 S
C391 C389 1.413 . S
C391 C421 1.437 . S
H392 C421 0.929 . S
N393 Gd366 2.570 . S
N393 C394 1.368 . S
N393 C397 1.343 . S
C394 C387 1.425 . S
C394 N393 1.368 . S
C394 C396 1.410 1_455 S
C395 C396 1.422 . S
C395 C398 1.321 . S
C395 H422 0.931 . S
C396 C394 1.410 1_655 S
C396 C395 1.422 . S
C396 C420 1.417 . S
C397 H374 0.931 . S
C397 N393 1.343 . S
C397 C398 1.390 1_455 S
C398 H376 0.930 . S
C398 C395 1.321 . S
C398 C397 1.390 1_655 S
O399 Gd367 2.386 1_455 S
O399 C411 1.265 . S
O400 Gd366 2.353 . S
O400 C411 1.242 . S
O401 Gd366 2.468 . S
O401 C419 1.263 . S
O402 Gd366 2.427 . S
O402 C419 1.252 . S
O403 Gd367 2.307 1_455 S
O403 C412 1.261 . S
O404 Gd366 2.388 . S
O404 C412 1.252 . S
O405 Gd366 2.386 1_655 S
O405 C423 1.265 . S
O406 Gd367 2.353 . S
O406 C423 1.242 . S
O407 Gd367 2.468 . S
O407 C431 1.263 . S
O408 Gd367 2.427 . S
O408 C431 1.252 . S
O409 Gd366 2.307 . S
O409 C424 1.261 . S
O410 Gd367 2.388 . S
O410 C424 1.252 1_655 S
C411 O399 1.265 . S
C411 O400 1.242 . S
C412 O403 1.261 . S
C412 O404 1.252 . S
C413 C416 1.394 . S
C413 C418 1.370 . S
C413 C419 1.500 . S
C414 C417 1.383 . S
C414 C418 1.395 . S
C415 C416 1.396 . S
C415 C417 1.365 . S
C415 H432 0.929 . S
C416 C413 1.394 . S
C416 C415 1.396 . S
C416 H433 0.930 . S
C417 C414 1.383 . S
C417 C415 1.365 . S
C417 H434 0.931 . S
C418 C413 1.370 . S
C418 C414 1.395 . S
C418 H435 0.930 . S
C419 Gd366 2.805 . S
C419 O401 1.263 . S
C419 O402 1.252 . S
C419 C413 1.500 . S
C420 H382 0.930 . S
C420 C396 1.417 . S
C420 C421 1.329 . S
C421 C391 1.437 . S
C421 H392 0.929 . S
C421 C420 1.329 . S
H422 C395 0.931 . S
C423 O405 1.265 . S
C423 O406 1.242 . S
C424 O409 1.261 . S
C424 O410 1.252 1_455 S
C425 C428 1.394 . S
C425 C430 1.370 . S
C425 C431 1.500 . S
C426 C429 1.383 . S
C426 C430 1.395 . S
C427 C428 1.396 . S
C427 C429 1.365 . S
C427 H436 0.929 . S
C428 C425 1.394 . S
C428 C427 1.396 . S
C428 H437 0.930 . S
C429 C426 1.383 . S
C429 C427 1.365 . S
C429 H438 0.931 . S
C430 C425 1.370 . S
C430 C426 1.395 . S
C430 H439 0.930 . S
C431 Gd367 2.805 . S
C431 O407 1.263 . S
C431 O408 1.252 . S
C431 C425 1.500 . S
H432 C415 0.929 . S
H433 C416 0.930 . S
H434 C417 0.931 . S
H435 C418 0.930 . S
H436 C427 0.929 . S
H437 C428 0.930 . S
H438 C429 0.931 . S
H439 C430 0.930 . S
H440 C448 0.950 . S
H441 C453 0.950 . S
H442 C450 0.941 1_565 S
H443 C452 0.950 . S
H444 C454 0.950 . S
H445 C456 0.950 . S
H446 C458 0.950 1_565 S
H447 C459 0.950 1_565 S
C448 H440 0.950 . S
C448 C449 1.386 . S
C448 C450 1.391 . S
C449 C448 1.386 . S
C449 C453 1.393 . S
C450 H442 0.941 1_545 S
C450 C448 1.391 . S
C450 C451 1.400 . S
C451 C450 1.400 . S
C451 C452 1.398 . S
C451 C457 1.491 . S
C452 H443 0.950 . S
C452 C451 1.398 . S
C452 C453 1.391 . S
C453 H441 0.950 . S
C453 C449 1.393 . S
C453 C452 1.391 . S
C454 H444 0.950 . S
C454 C455 1.386 . S
C454 C456 1.391 . S
C455 C454 1.386 . S
C455 C459 1.393 . S
C456 H445 0.950 . S
C456 C454 1.391 . S
C456 C457 1.400 . S
C457 C451 1.491 . S
C457 C456 1.400 . S
C457 C458 1.398 . S
C458 H446 0.950 1_545 S
C458 C457 1.398 . S
C458 C459 1.391 . S
C459 H447 0.950 1_545 S
C459 C455 1.393 . S
C459 C458 1.391 . S
H460 C468 0.950 . S
H461 C473 0.950 . S
H462 C470 0.950 . S
H463 C472 0.950 . S
H464 C474 0.950 . S
H465 C476 0.950 . S
H466 C478 0.950 . S
H467 C479 0.950 . S
C468 H460 0.950 . S
C468 C469 1.386 . S
C468 C470 1.391 . S
C469 C468 1.386 . S
C469 C473 1.393 . S
C470 H462 0.950 . S
C470 C468 1.391 . S
C470 C471 1.400 . S
C471 C470 1.400 . S
C471 C472 1.398 . S
C471 C477 1.491 . S
C472 H463 0.950 . S
C472 C471 1.398 . S
C472 C473 1.391 . S
C473 H461 0.950 . S
C473 C469 1.393 . S
C473 C472 1.391 . S
C474 H464 0.950 . S
C474 C475 1.386 . S
C474 C476 1.391 . S
C475 C474 1.386 . S
C475 C479 1.393 . S
C476 H465 0.950 . S
C476 C474 1.391 . S
C476 C477 1.400 . S
C477 C471 1.491 . S
C477 C476 1.400 . S
C477 C478 1.398 . S
C478 H466 0.950 . S
C478 C477 1.398 . S
C478 C479 1.391 . S
C479 H467 0.950 . S
C479 C475 1.393 . S
C479 C478 1.391 . S
H480 C488 0.950 . S
H481 C493 0.950 . S
H482 C490 0.950 . S
H483 C492 0.950 . S
H484 C494 0.950 . S
H485 C496 0.950 . S
H486 C498 0.950 . S
H487 C499 0.950 . S
C488 H480 0.950 . S
C488 C489 1.386 . S
C488 C490 1.391 . S
C489 C488 1.386 . S
C489 C493 1.393 . S
C490 H482 0.950 . S
C490 C488 1.391 . S
C490 C491 1.400 . S
C491 C490 1.400 . S
C491 C492 1.398 . S
C491 C497 1.491 . S
C492 H483 0.950 . S
C492 C491 1.398 . S
C492 C493 1.391 . S
C493 H481 0.950 . S
C493 C489 1.393 . S
C493 C492 1.391 . S
C494 H484 0.950 . S
C494 C495 1.386 . S
C494 C496 1.391 . S
C495 C494 1.386 . S
C495 C499 1.393 . S
C496 H485 0.950 . S
C496 C494 1.391 . S
C496 C497 1.400 . S
C497 C491 1.491 . S
C497 C496 1.400 . S
C497 C498 1.398 . S
C498 H486 0.950 . S
C498 C497 1.398 . S
C498 C499 1.391 . S
C499 H487 0.950 . S
C499 C495 1.393 . S
C499 C498 1.391 . S
H500 C508 0.950 . S
H501 C513 0.950 . S
H502 C510 0.950 . S
H503 C512 0.950 . S
H504 C514 0.950 1_655 S
H505 C516 0.953 . S
H506 C518 0.950 . S
H507 C519 0.950 . S
C508 H500 0.950 . S
C508 C509 1.386 . S
C508 C510 1.391 . S
C509 C508 1.386 . S
C509 C513 1.393 . S
C510 H502 0.950 . S
C510 C508 1.391 . S
C510 C511 1.400 . S
C511 C510 1.400 . S
C511 C512 1.398 . S
C511 C517 1.491 . S
C512 H503 0.950 . S
C512 C511 1.398 . S
C512 C513 1.391 . S
C513 H501 0.950 . S
C513 C509 1.393 . S
C513 C512 1.391 . S
C514 H504 0.950 1_455 S
C514 C515 1.386 . S
C514 C516 1.391 . S
C515 C514 1.386 . S
C515 C519 1.393 . S
C516 H505 0.953 . S
C516 C514 1.391 . S
C516 C517 1.400 . S
C517 C511 1.491 . S
C517 C516 1.400 . S
C517 C518 1.398 . S
C518 H506 0.950 . S
C518 C517 1.398 . S
C518 C519 1.391 . S
C519 H507 0.950 . S
C519 C515 1.393 . S
C519 C518 1.391 . S
H520 C528 0.950 . S
H521 C533 0.950 . S
H522 C530 0.950 1_556 S
H523 C532 0.950 . S
H524 C534 0.950 . S
H525 C536 0.950 1_554 S
H526 C538 0.950 . S
H527 C539 0.950 . S
C528 H520 0.950 . S
C528 C529 1.386 . S
C528 C530 1.391 . S
C529 C528 1.386 . S
C529 C533 1.393 . S
C530 H522 0.950 1_554 S
C530 C528 1.391 . S
C530 C531 1.400 . S
C531 C530 1.400 . S
C531 C532 1.398 . S
C531 C537 1.491 1_554 S
C532 H523 0.950 . S
C532 C531 1.398 . S
C532 C533 1.391 . S
C533 H521 0.950 . S
C533 C529 1.393 . S
C533 C532 1.391 . S
C534 H524 0.950 . S
C534 C535 1.386 . S
C534 C536 1.391 . S
C535 C534 1.386 . S
C535 C539 1.393 . S
C536 H525 0.950 1_556 S
C536 C534 1.391 . S
C536 C537 1.400 . S
C537 C531 1.491 1_556 S
C537 C536 1.400 . S
C537 C538 1.398 . S
C538 H526 0.950 . S
C538 C537 1.398 . S
C538 C539 1.391 . S
C539 H527 0.950 . S
C539 C535 1.393 . S
C539 C538 1.391 . S
H540 C548 0.950 . S
H541 C553 0.950 . S
H542 C550 0.950 1_556 S
H543 C552 0.950 . S
H544 C554 0.950 . S
H545 C556 0.950 1_554 S
H546 C558 0.950 . S
H547 C559 0.950 . S
C548 H540 0.950 . S
C548 C549 1.386 . S
C548 C550 1.391 . S
C549 C548 1.386 . S
C549 C553 1.393 . S
C550 H542 0.950 1_554 S
C550 C548 1.391 . S
C550 C551 1.400 . S
C551 C550 1.400 . S
C551 C552 1.398 . S
C551 C557 1.491 1_554 S
C552 H543 0.950 . S
C552 C551 1.398 . S
C552 C553 1.391 . S
C553 H541 0.950 . S
C553 C549 1.393 . S
C553 C552 1.391 . S
C554 H544 0.950 . S
C554 C555 1.386 . S
C554 C556 1.391 . S
C555 C554 1.386 . S
C555 C559 1.393 . S
C556 H545 0.950 1_556 S
C556 C554 1.391 . S
C556 C557 1.400 . S
C557 C551 1.491 1_556 S
C557 C556 1.400 . S
C557 C558 1.398 . S
C558 H546 0.950 . S
C558 C557 1.398 . S
C558 C559 1.391 . S
C559 H547 0.950 . S
C559 C555 1.393 . S
C559 C558 1.391 . S
H560 C568 0.950 . S
H561 C573 0.950 . S
H562 C570 0.950 1_556 S
H563 C572 0.950 . S
H564 C574 0.950 . S
H565 C576 0.950 1_554 S
H566 C578 0.950 . S
H567 C579 0.950 . S
C568 H560 0.950 . S
C568 C569 1.386 . S
C568 C570 1.391 . S
C569 C568 1.386 . S
C569 C573 1.393 . S
C570 H562 0.950 1_554 S
C570 C568 1.391 . S
C570 C571 1.400 . S
C571 C570 1.400 . S
C571 C572 1.398 . S
C571 C577 1.491 1_554 S
C572 H563 0.950 . S
C572 C571 1.398 . S
C572 C573 1.391 . S
C573 H561 0.950 . S
C573 C569 1.393 . S
C573 C572 1.391 . S
C574 H564 0.950 . S
C574 C575 1.386 . S
C574 C576 1.391 . S
C575 C574 1.386 . S
C575 C579 1.393 . S
C576 H565 0.950 1_556 S
C576 C574 1.391 . S
C576 C577 1.400 . S
C577 C571 1.491 1_556 S
C577 C576 1.400 . S
C577 C578 1.398 . S
C578 H566 0.950 . S
C578 C577 1.398 . S
C578 C579 1.391 . S
C579 H567 0.950 . S
C579 C575 1.393 . S
C579 C578 1.391 . S
H580 C588 0.950 . S
H581 C593 0.950 . S
H582 C590 0.950 . S
H583 C592 0.950 . S
H584 C594 0.950 . S
H585 C596 0.950 . S
H586 C598 0.950 1_554 S
H587 C599 0.950 . S
C588 H580 0.950 . S
C588 C589 1.386 1_455 S
C588 C590 1.391 . S
C589 C588 1.386 1_655 S
C589 C593 1.393 . S
C590 H582 0.950 . S
C590 C588 1.391 . S
C590 C591 1.400 1_455 S
C591 C590 1.400 1_655 S
C591 C592 1.398 . S
C591 C597 1.491 1_554 S
C592 H583 0.950 . S
C592 C591 1.398 . S
C592 C593 1.391 . S
C593 H581 0.950 . S
C593 C589 1.393 . S
C593 C592 1.391 . S
C594 H584 0.950 . S
C594 C595 1.408 . S
C594 C596 1.391 . S
C595 C594 1.408 . S
C595 C599 1.374 1_655 S
C596 H585 0.950 . S
C596 C594 1.391 . S
C596 C597 1.400 . S
C597 C591 1.491 1_556 S
C597 C596 1.400 . S
C597 C598 1.398 1_655 S
C598 H586 0.950 1_556 S
C598 C597 1.398 1_455 S
C598 C599 1.391 . S
C599 H587 0.950 . S
C599 C595 1.374 1_455 S
C599 C598 1.391 . S
H600 C608 0.950 . S
H601 C613 0.950 . S
H602 C610 0.950 . S
H603 C612 0.950 . S
H604 C614 0.950 . S
H605 C616 0.950 . S
H606 C618 0.950 1_655 S
H607 C619 0.950 . S
C608 H600 0.950 . S
C608 C609 1.386 . S
C608 C610 1.391 . S
C609 C608 1.386 . S
C609 C613 1.393 . S
C610 H602 0.950 . S
C610 C608 1.391 . S
C610 C611 1.400 . S
C611 C610 1.400 . S
C611 C612 1.398 . S
C611 C617 1.491 . S
C612 H603 0.950 . S
C612 C611 1.398 . S
C612 C613 1.391 . S
C613 H601 0.950 . S
C613 C609 1.393 . S
C613 C612 1.391 . S
C614 H604 0.950 . S
C614 C615 1.386 . S
C614 C616 1.391 . S
C615 C614 1.386 . S
C615 C619 1.393 1_455 S
C616 H605 0.950 . S
C616 C614 1.391 . S
C616 C617 1.400 . S
C617 C611 1.491 . S
C617 C616 1.400 . S
C617 C618 1.398 . S
C618 H606 0.950 1_455 S
C618 C617 1.398 . S
C618 C619 1.391 1_455 S
C619 H607 0.950 . S
C619 C615 1.393 1_655 S
C619 C618 1.391 1_655 S
H620 C628 0.950 . S
H621 C633 0.950 . S
H622 C630 0.950 . S
H623 C632 0.950 . S
H624 C634 0.950 . S
H625 C636 0.950 . S
H626 C638 0.950 . S
H627 C639 0.950 . S
C628 H620 0.950 . S
C628 C629 1.386 . S
C628 C630 1.391 . S
C629 C628 1.386 . S
C629 C633 1.393 . S
C630 H622 0.950 . S
C630 C628 1.391 . S
C630 C631 1.400 . S
C631 C630 1.400 . S
C631 C632 1.398 . S
C631 C637 1.491 . S
C632 H623 0.950 . S
C632 C631 1.398 . S
C632 C633 1.391 . S
C633 H621 0.950 . S
C633 C629 1.393 . S
C633 C632 1.391 . S
C634 H624 0.950 . S
C634 C635 1.386 . S
C634 C636 1.391 . S
C635 C634 1.386 . S
C635 C639 1.393 . S
C636 H625 0.950 . S
C636 C634 1.391 . S
C636 C637 1.400 . S
C637 C631 1.491 . S
C637 C636 1.400 . S
C637 C638 1.398 . S
C638 H626 0.950 . S
C638 C637 1.398 . S
C638 C639 1.391 . S
C639 H627 0.950 . S
C639 C635 1.393 . S
C639 C638 1.391 . S
H640 C648 0.950 . S
H641 C653 0.950 . S
H642 C650 0.950 . S
H643 C652 0.950 . S
H644 C654 0.950 . S
H645 C656 0.950 . S
H646 C658 0.950 . S
H647 C659 0.950 . S
C648 H640 0.950 . S
C648 C649 1.386 . S
C648 C650 1.391 . S
C649 C648 1.386 . S
C649 C653 1.393 . S
C650 H642 0.950 . S
C650 C648 1.391 . S
C650 C651 1.400 . S
C651 C650 1.400 . S
C651 C652 1.398 . S
C651 C657 1.491 . S
C652 H643 0.950 . S
C652 C651 1.398 . S
C652 C653 1.391 . S
C653 H641 0.950 . S
C653 C649 1.393 . S
C653 C652 1.391 . S
C654 H644 0.950 . S
C654 C655 1.386 . S
C654 C656 1.391 . S
C655 C654 1.386 . S
C655 C659 1.393 . S
C656 H645 0.950 . S
C656 C654 1.391 . S
C656 C657 1.400 . S
C657 C651 1.491 . S
C657 C656 1.400 . S
C657 C658 1.398 . S
C658 H646 0.950 . S
C658 C657 1.398 . S
C658 C659 1.391 . S
C659 H647 0.950 . S
C659 C655 1.393 . S
C659 C658 1.391 . S
H660 C668 0.950 . S
H661 C673 0.950 . S
H662 C670 0.950 . S
H663 C672 0.950 . S
H664 C674 0.950 . S
H665 C676 0.950 . S
H666 C678 0.950 . S
H667 C679 0.950 . S
C668 H660 0.950 . S
C668 C669 1.386 . S
C668 C670 1.391 . S
C669 C668 1.386 . S
C669 C673 1.393 . S
C670 H662 0.950 . S
C670 C668 1.391 . S
C670 C671 1.400 . S
C671 C670 1.400 . S
C671 C672 1.398 . S
C671 C677 1.491 . S
C672 H663 0.950 . S
C672 C671 1.398 . S
C672 C673 1.391 . S
C673 H661 0.950 . S
C673 C669 1.393 . S
C673 C672 1.391 . S
C674 H664 0.950 . S
C674 C675 1.386 . S
C674 C676 1.391 . S
C675 C674 1.386 . S
C675 C679 1.393 . S
C676 H665 0.950 . S
C676 C674 1.391 . S
C676 C677 1.400 . S
C677 C671 1.491 . S
C677 C676 1.400 . S
C677 C678 1.398 . S
C678 H666 0.950 . S
C678 C677 1.398 . S
C678 C679 1.391 . S
C679 H667 0.950 . S
C679 C675 1.393 . S
C679 C678 1.391 . S
H680 C688 0.950 . S
H681 C693 0.950 . S
H682 C690 0.950 . S
H683 C692 0.950 . S
H684 C694 0.950 . S
H685 C696 0.950 . S
H686 C698 0.950 . S
H687 C699 0.950 1_556 S
C688 H680 0.950 . S
C688 C689 1.386 . S
C688 C690 1.391 . S
C689 C688 1.386 . S
C689 C693 1.393 1_655 S
C690 H682 0.950 . S
C690 C688 1.391 . S
C690 C691 1.400 . S
C691 C690 1.400 . S
C691 C692 1.398 1_655 S
C691 C697 1.491 . S
C692 H683 0.950 . S
C692 C691 1.398 1_455 S
C692 C693 1.391 . S
C693 H681 0.950 . S
C693 C689 1.393 1_455 S
C693 C692 1.391 . S
C694 H684 0.950 . S
C694 C695 1.386 1_554 S
C694 C696 1.391 . S
C695 C694 1.386 1_556 S
C695 C699 1.393 1_456 S
C696 H685 0.950 . S
C696 C694 1.391 . S
C696 C697 1.400 1_455 S
C697 C691 1.491 . S
C697 C696 1.400 1_655 S
C697 C698 1.398 . S
C698 H686 0.950 . S
C698 C697 1.398 . S
C698 C699 1.391 . S
C699 H687 0.950 1_554 S
C699 C695 1.393 1_654 S
C699 C698 1.391 . S
H700 C708 0.950 . S
H701 C713 0.950 . S
H702 C710 0.950 1_545 S
H703 C712 0.950 . S
H704 C714 0.954 . S
H705 C716 0.950 1_556 S
H706 C718 0.950 . S
H707 C719 0.950 . S
C708 H700 0.950 . S
C708 C709 1.386 . S
C708 C710 1.391 . S
C709 C708 1.386 . S
C709 C713 1.393 . S
C710 H702 0.950 1_565 S
C710 C708 1.391 . S
C710 C711 1.400 . S
C711 C710 1.400 . S
C711 C712 1.398 . S
C711 C717 1.491 . S
C712 H703 0.950 . S
C712 C711 1.398 . S
C712 C713 1.391 . S
C713 H701 0.950 . S
C713 C709 1.393 . S
C713 C712 1.391 . S
C714 H704 0.954 . S
C714 C715 1.376 1_566 S
C714 C716 1.397 1_556 S
C715 C714 1.376 1_544 S
C715 C719 1.393 . S
C716 H705 0.950 1_554 S
C716 C714 1.397 1_554 S
C716 C717 1.400 . S
C717 C711 1.491 . S
C717 C716 1.400 . S
C717 C718 1.398 1_565 S
C718 H706 0.950 . S
C718 C717 1.398 1_545 S
C718 C719 1.391 . S
C719 H707 0.950 . S
C719 C715 1.393 . S
C719 C718 1.391 . S
H720 C728 0.950 . S
H721 C733 0.950 . S
H722 C730 0.950 . S
H723 C732 0.950 . S
H724 C734 0.950 . S
H725 C736 0.950 . S
H726 C738 0.950 . S
H727 C739 0.947 1_556 S
C728 H720 0.950 . S
C728 C729 1.386 . S
C728 C730 1.391 . S
C729 C728 1.386 . S
C729 C733 1.393 . S
C730 H722 0.950 . S
C730 C728 1.391 . S
C730 C731 1.400 . S
C731 C730 1.400 . S
C731 C732 1.398 . S
C731 C737 1.491 . S
C732 H723 0.950 . S
C732 C731 1.398 . S
C732 C733 1.391 . S
C733 H721 0.950 . S
C733 C729 1.393 . S
C733 C732 1.391 . S
C734 H724 0.950 . S
C734 C735 1.386 1_554 S
C734 C736 1.391 . S
C735 C734 1.386 1_556 S
C735 C739 1.392 1_556 S
C736 H725 0.950 . S
C736 C734 1.391 . S
C736 C737 1.400 . S
C737 C731 1.491 . S
C737 C736 1.400 . S
C737 C738 1.398 . S
C738 H726 0.950 . S
C738 C737 1.398 . S
C738 C739 1.393 . S
C739 H727 0.947 1_554 S
C739 C735 1.392 1_554 S
C739 C738 1.393 . S
H740 C748 0.950 . S
H741 C753 0.950 . S
H742 C750 0.950 . S
H743 C752 0.950 . S
H744 C754 0.950 . S
H745 C756 0.950 1_556 S
H746 C758 0.950 . S
H747 C759 0.950 . S
C748 H740 0.950 . S
C748 C749 1.386 . S
C748 C750 1.391 . S
C749 C748 1.386 . S
C749 C753 1.393 . S
C750 H742 0.950 . S
C750 C748 1.391 . S
C750 C751 1.400 . S
C751 C750 1.400 . S
C751 C752 1.398 . S
C751 C757 1.491 . S
C752 H743 0.950 . S
C752 C751 1.398 . S
C752 C753 1.391 . S
C753 H741 0.950 . S
C753 C749 1.393 . S
C753 C752 1.391 . S
C754 H744 0.950 . S
C754 C755 1.386 . S
C754 C756 1.391 1_556 S
C755 C754 1.386 . S
C755 C759 1.393 1_556 S
C756 H745 0.950 1_554 S
C756 C754 1.391 1_554 S
C756 C757 1.400 . S
C757 C751 1.491 . S
C757 C756 1.400 . S
C757 C758 1.398 . S
C758 H746 0.950 . S
C758 C757 1.398 . S
C758 C759 1.391 . S
C759 H747 0.950 . S
C759 C755 1.393 1_554 S
C759 C758 1.391 . S
H760 C768 0.973 . S
H761 C773 0.950 . S
H762 C770 0.950 1_655 S
H763 C772 0.950 . S
H764 C774 0.950 . S
H765 C776 0.950 . S
H766 C778 0.950 1_655 S
H767 C779 0.950 1_655 S
C768 H760 0.973 . S
C768 C769 1.386 . S
C768 C770 1.391 . S
C769 C768 1.386 . S
C769 C773 1.393 . S
C770 H762 0.950 1_455 S
C770 C768 1.391 . S
C770 C771 1.400 . S
C771 C770 1.400 . S
C771 C772 1.398 . S
C771 C777 1.491 . S
C772 H763 0.950 . S
C772 C771 1.398 . S
C772 C773 1.391 . S
C773 H761 0.950 . S
C773 C769 1.393 . S
C773 C772 1.391 . S
C774 H764 0.950 . S
C774 C775 1.386 . S
C774 C776 1.391 . S
C775 C774 1.386 . S
C775 C779 1.393 . S
C776 H765 0.950 . S
C776 C774 1.391 . S
C776 C777 1.400 . S
C777 C771 1.491 . S
C777 C776 1.400 . S
C777 C778 1.398 . S
C778 H766 0.950 1_455 S
C778 C777 1.398 . S
C778 C779 1.391 . S
C779 H767 0.950 1_455 S
C779 C775 1.393 . S
C779 C778 1.391 . S
H780 C788 0.950 . S
H781 C793 0.938 1_554 S
H782 C790 0.950 . S
H783 C792 0.950 . S
H784 C794 0.950 . S
H785 C796 0.950 . S
H786 C798 0.950 . S
H787 C799 0.950 . S
C788 H780 0.950 . S
C788 C789 1.386 . S
C788 C790 1.391 . S
C789 C788 1.386 . S
C789 C793 1.393 . S
C790 H782 0.950 . S
C790 C788 1.391 . S
C790 C791 1.400 . S
C791 C790 1.400 . S
C791 C792 1.398 . S
C791 C797 1.491 . S
C792 H783 0.950 . S
C792 C791 1.398 . S
C792 C793 1.391 . S
C793 H781 0.938 1_556 S
C793 C789 1.393 . S
C793 C792 1.391 . S
C794 H784 0.950 . S
C794 C795 1.386 . S
C794 C796 1.391 . S
C795 C794 1.386 . S
C795 C799 1.393 . S
C796 H785 0.950 . S
C796 C794 1.391 . S
C796 C797 1.400 . S
C797 C791 1.491 . S
C797 C796 1.400 . S
C797 C798 1.398 . S
C798 H786 0.950 . S
C798 C797 1.398 . S
C798 C799 1.391 . S
C799 H787 0.950 . S
C799 C795 1.393 . S
C799 C798 1.391 . S
H800 C808 0.955 . S
H801 C813 0.950 . S
H802 C810 0.950 . S
H803 C812 0.950 . S
H804 C814 0.950 . S
H805 C816 0.950 . S
H806 C818 0.950 . S
H807 C819 0.950 . S
C808 H800 0.955 . S
C808 C809 1.386 . S
C808 C810 1.391 . S
C809 C808 1.386 . S
C809 C813 1.393 . S
C810 H802 0.950 . S
C810 C808 1.391 . S
C810 C811 1.400 . S
C811 C810 1.400 . S
C811 C812 1.398 . S
C811 C817 1.491 . S
C812 H803 0.950 . S
C812 C811 1.398 . S
C812 C813 1.391 . S
C813 H801 0.950 . S
C813 C809 1.393 . S
C813 C812 1.391 . S
C814 H804 0.950 . S
C814 C815 1.386 . S
C814 C816 1.391 . S
C815 C814 1.386 . S
C815 C819 1.393 . S
C816 H805 0.950 . S
C816 C814 1.391 . S
C816 C817 1.400 . S
C817 C811 1.491 . S
C817 C816 1.400 . S
C817 C818 1.398 . S
C818 H806 0.950 . S
C818 C817 1.398 . S
C818 C819 1.391 . S
C819 H807 0.950 . S
C819 C815 1.393 . S
C819 C818 1.391 . S
H820 C828 0.950 . S
H821 C833 0.950 . S
H822 C830 0.950 . S
H823 C832 0.950 . S
H824 C834 0.950 . S
H825 C836 0.950 . S
H826 C838 0.950 . S
H827 C839 0.950 . S
C828 H820 0.950 . S
C828 C829 1.386 . S
C828 C830 1.391 . S
C829 C828 1.386 . S
C829 C833 1.393 . S
C830 H822 0.950 . S
C830 C828 1.391 . S
C830 C831 1.400 . S
C831 C830 1.400 . S
C831 C832 1.398 . S
C831 C837 1.491 . S
C832 H823 0.950 . S
C832 C831 1.398 . S
C832 C833 1.391 . S
C833 H821 0.950 . S
C833 C829 1.393 . S
C833 C832 1.391 . S
C834 H824 0.950 . S
C834 C835 1.386 . S
C834 C836 1.391 . S
C835 C834 1.386 . S
C835 C839 1.393 . S
C836 H825 0.950 . S
C836 C834 1.391 . S
C836 C837 1.400 . S
C837 C831 1.491 . S
C837 C836 1.400 . S
C837 C838 1.398 . S
C838 H826 0.950 . S
C838 C837 1.398 . S
C838 C839 1.391 . S
C839 H827 0.950 . S
C839 C835 1.393 . S
C839 C838 1.391 . S
H840 C848 0.950 . S
H841 C853 0.950 . S
H842 C850 0.950 . S
H843 C852 0.950 . S
H844 C854 0.950 . S
H845 C856 0.950 . S
H846 C858 0.950 . S
H847 C859 0.950 . S
C848 H840 0.950 . S
C848 C849 1.386 . S
C848 C850 1.391 . S
C849 C848 1.386 . S
C849 C853 1.393 1_655 S
C850 H842 0.950 . S
C850 C848 1.391 . S
C850 C851 1.400 . S
C851 C850 1.400 . S
C851 C852 1.398 1_655 S
C851 C857 1.491 . S
C852 H843 0.950 . S
C852 C851 1.398 1_455 S
C852 C853 1.391 . S
C853 H841 0.950 . S
C853 C849 1.393 1_455 S
C853 C852 1.391 . S
C854 H844 0.950 . S
C854 C855 1.386 1_455 S
C854 C856 1.391 . S
C855 C854 1.386 1_655 S
C855 C859 1.393 . S
C856 H845 0.950 . S
C856 C854 1.391 . S
C856 C857 1.400 1_455 S
C857 C851 1.491 . S
C857 C856 1.400 1_655 S
C857 C858 1.398 . S
C858 H846 0.950 . S
C858 C857 1.398 . S
C858 C859 1.391 . S
C859 H847 0.950 . S
C859 C855 1.393 . S
C859 C858 1.391 . S
H860 C868 0.950 . S
H861 C873 0.950 . S
H862 C870 0.950 . S
H863 C872 0.950 . S
H864 C874 0.950 . S
H865 C876 0.950 . S
H866 C878 0.950 . S
H867 C879 0.950 . S
C868 H860 0.950 . S
C868 C869 1.386 . S
C868 C870 1.391 . S
C869 C868 1.386 . S
C869 C873 1.393 . S
C870 H862 0.950 . S
C870 C868 1.391 . S
C870 C871 1.400 . S
C871 C870 1.400 . S
C871 C872 1.398 . S
C871 C877 1.491 . S
C872 H863 0.950 . S
C872 C871 1.398 . S
C872 C873 1.391 . S
C873 H861 0.950 . S
C873 C869 1.393 . S
C873 C872 1.391 . S
C874 H864 0.950 . S
C874 C875 1.386 . S
C874 C876 1.391 . S
C875 C874 1.386 . S
C875 C879 1.393 . S
C876 H865 0.950 . S
C876 C874 1.391 . S
C876 C877 1.400 . S
C877 C871 1.491 . S
C877 C876 1.400 . S
C877 C878 1.398 . S
C878 H866 0.950 . S
C878 C877 1.398 . S
C878 C879 1.391 . S
C879 H867 0.950 . S
C879 C875 1.393 . S
C879 C878 1.391 . S
H880 C888 0.950 . S
H881 C893 0.950 . S
H882 C890 0.950 . S
H883 C892 0.950 . S
H884 C894 0.950 . S
H885 C896 0.950 . S
H886 C898 0.950 . S
H887 C899 0.950 . S
C888 H880 0.950 . S
C888 C889 1.386 . S
C888 C890 1.391 . S
C889 C888 1.386 . S
C889 C893 1.393 . S
C890 H882 0.950 . S
C890 C888 1.391 . S
C890 C891 1.400 . S
C891 C890 1.400 . S
C891 C892 1.398 . S
C891 C897 1.491 . S
C892 H883 0.950 . S
C892 C891 1.398 . S
C892 C893 1.391 . S
C893 H881 0.950 . S
C893 C889 1.393 . S
C893 C892 1.391 . S
C894 H884 0.950 . S
C894 C895 1.386 . S
C894 C896 1.391 . S
C895 C894 1.386 . S
C895 C899 1.393 . S
C896 H885 0.950 . S
C896 C894 1.391 . S
C896 C897 1.400 . S
C897 C891 1.491 . S
C897 C896 1.400 . S
C897 C898 1.398 . S
C898 H886 0.950 . S
C898 C897 1.398 . S
C898 C899 1.391 . S
C899 H887 0.950 . S
C899 C895 1.393 . S
C899 C898 1.391 . S
H900 C908 0.950 . S
H901 C913 0.950 . S
H902 C910 0.950 . S
H903 C912 0.950 . S
H904 C914 0.950 . S
H905 C916 0.950 . S
H906 C918 0.950 . S
H907 C919 0.950 . S
C908 H900 0.950 . S
C908 C909 1.386 . S
C908 C910 1.391 . S
C909 C908 1.386 . S
C909 C913 1.393 . S
C910 H902 0.950 . S
C910 C908 1.391 . S
C910 C911 1.400 . S
C911 C910 1.400 . S
C911 C912 1.398 . S
C911 C917 1.491 . S
C912 H903 0.950 . S
C912 C911 1.398 . S
C912 C913 1.391 . S
C913 H901 0.950 . S
C913 C909 1.393 . S
C913 C912 1.391 . S
C914 H904 0.950 . S
C914 C915 1.386 . S
C914 C916 1.391 . S
C915 C914 1.386 . S
C915 C919 1.393 . S
C916 H905 0.950 . S
C916 C914 1.391 . S
C916 C917 1.400 . S
C917 C911 1.491 . S
C917 C916 1.400 . S
C917 C918 1.398 . S
C918 H906 0.950 . S
C918 C917 1.398 . S
C918 C919 1.391 . S
C919 H907 0.950 . S
C919 C915 1.393 . S
C919 C918 1.391 . S
C449 C82 1.744 . S
C455 C172 2.003 . S
C475 C255 2.024 . S
C469 C95 1.768 . S
C495 C340 1.990 . S
C489 C56 1.735 . S
C515 C424 1.983 . S
C509 C69 1.749 . S
C535 C160 2.009 1_565 S
C529 C30 1.715 . S
C549 C43 1.713 . S
C555 C243 2.016 . S
C569 C4 1.711 . S
C575 C328 2.002 . S
C589 C17 1.723 . S
C595 C412 1.979 1_655 S
C615 C162 0.631 1_455 S
C609 C74 0.566 . S
C635 C258 0.626 . S
C629 C87 0.545 . S
C655 C330 0.600 . S
C649 C100 0.616 . S
C669 C61 0.598 . S
C675 C414 0.586 . S
C689 C22 0.569 . S
C695 C174 0.610 . S
C715 C246 0.592 . S
C709 C35 0.566 . S
C735 C342 0.607 . S
C729 C48 0.574 . S
C749 C9 0.573 . S
C755 C426 0.642 . S
C769 C73 1.932 . S
C775 C159 2.104 . S
C789 C86 1.918 . S
C795 C244 2.106 . S
C815 C327 2.119 . S
C809 C99 1.936 . S
C835 C411 2.123 . S
C829 C60 1.939 . S
C849 C21 1.930 . S
C855 C171 2.104 . S
C875 C256 2.112 1_565 S
C869 C34 1.910 . S
C895 C339 2.123 . S
C889 C47 1.945 . S
C909 C8 1.923 . S
C915 C423 2.119 . S
