# Generated by pormake.
# Topology dag, (6,3)-cn, num edge types: 1
# Building blocks:
#     Node 0, Type 0, BuildingBlock: IZENUY_clean_sbu_0, # of connection points: 6
#     Node 1, Type 0, BuildingBlock: IZENUY_clean_sbu_0, # of connection points: 6
#     Node 2, Type 0, BuildingBlock: IZENUY_clean_sbu_0, # of connection points: 6
#     Node 3, Type 0, BuildingBlock: IZENUY_clean_sbu_0, # of connection points: 6
#     Node 4, Type 1, BuildingBlock: KAKCAD_clean_linker_0, # of connection points: 3
#     Node 5, Type 1, BuildingBlock: KAKCAD_clean_linker_0, # of connection points: 3
#     Node 6, Type 1, BuildingBlock: KAKCAD_clean_linker_0, # of connection points: 3
#     Node 7, Type 1, BuildingBlock: KAKCAD_clean_linker_0, # of connection points: 3
#     Node 8, Type 1, BuildingBlock: KAKCAD_clean_linker_0, # of connection points: 3
#     Node 9, Type 1, BuildingBlock: KAKCAD_clean_linker_0, # of connection points: 3
#     Node 10, Type 1, BuildingBlock: KAKCAD_clean_linker_0, # of connection points: 3
#     Node 11, Type 1, BuildingBlock: KAKCAD_clean_linker_0, # of connection points: 3
#     Edge 12, Type (0, 1), BuildingBlock: UVAHIK_clean_linker_0, # of connection points: 2
#     Edge 13, Type (0, 1), BuildingBlock: UVAHIK_clean_linker_0, # of connection points: 2
#     Edge 14, Type (0, 1), BuildingBlock: UVAHIK_clean_linker_0, # of connection points: 2
#     Edge 15, Type (0, 1), BuildingBlock: UVAHIK_clean_linker_0, # of connection points: 2
#     Edge 16, Type (0, 1), BuildingBlock: UVAHIK_clean_linker_0, # of connection points: 2
#     Edge 17, Type (0, 1), BuildingBlock: UVAHIK_clean_linker_0, # of connection points: 2
#     Edge 18, Type (0, 1), BuildingBlock: UVAHIK_clean_linker_0, # of connection points: 2
#     Edge 19, Type (0, 1), BuildingBlock: UVAHIK_clean_linker_0, # of connection points: 2
#     Edge 20, Type (0, 1), BuildingBlock: UVAHIK_clean_linker_0, # of connection points: 2
#     Edge 21, Type (0, 1), BuildingBlock: UVAHIK_clean_linker_0, # of connection points: 2
#     Edge 22, Type (0, 1), BuildingBlock: UVAHIK_clean_linker_0, # of connection points: 2
#     Edge 23, Type (0, 1), BuildingBlock: UVAHIK_clean_linker_0, # of connection points: 2
#     Edge 24, Type (0, 1), BuildingBlock: UVAHIK_clean_linker_0, # of connection points: 2
#     Edge 25, Type (0, 1), BuildingBlock: UVAHIK_clean_linker_0, # of connection points: 2
#     Edge 26, Type (0, 1), BuildingBlock: UVAHIK_clean_linker_0, # of connection points: 2
#     Edge 27, Type (0, 1), BuildingBlock: UVAHIK_clean_linker_0, # of connection points: 2
#     Edge 28, Type (0, 1), BuildingBlock: UVAHIK_clean_linker_0, # of connection points: 2
#     Edge 29, Type (0, 1), BuildingBlock: UVAHIK_clean_linker_0, # of connection points: 2
#     Edge 30, Type (0, 1), BuildingBlock: UVAHIK_clean_linker_0, # of connection points: 2
#     Edge 31, Type (0, 1), BuildingBlock: UVAHIK_clean_linker_0, # of connection points: 2
#     Edge 32, Type (0, 1), BuildingBlock: UVAHIK_clean_linker_0, # of connection points: 2
#     Edge 33, Type (0, 1), BuildingBlock: UVAHIK_clean_linker_0, # of connection points: 2
#     Edge 34, Type (0, 1), BuildingBlock: UVAHIK_clean_linker_0, # of connection points: 2
#     Edge 35, Type (0, 1), BuildingBlock: UVAHIK_clean_linker_0, # of connection points: 2
# Relax obj value: 0.254
# Max RMSD: 0.193
# Mean RMSD: 0.159
data_MOF--net-dag--node1-IZENUY_clean_sbu_0--node2-KAKCAD_clean_linker_0--edge1-UVAHIK_clean_linker_0
_symmetry_space_group_name_H-M    P1
_symmetry_Int_Tables_number       1
_symmetry_cell_setting            triclinic
loop_
_symmetry_equiv_pos_as_xyz
'x, y, z'
_cell_length_a     57.619877
_cell_length_b     60.037515
_cell_length_c     50.743548
_cell_angle_alpha  95.131668
_cell_angle_beta   90.17448
_cell_angle_gamma 90.063791
loop_
_atom_site_label
_atom_site_type_symbol
_atom_site_fract_x
_atom_site_fract_y
_atom_site_fract_z
_atom_type_partial_charge
Fe0 Fe 0.18084 0.84426 0.09074 0.0
Fe1 Fe 0.13698 0.85943 0.06327 0.0
O2 O 0.15517 0.83765 0.07233 0.0
Fe3 Fe 0.14763 0.80932 0.06312 0.0
O4 O 0.14667 0.80306 0.09737 0.0
O5 O 0.17985 0.81928 0.10902 0.0
O6 O 0.16461 0.85834 0.11782 0.0
C7 C 0.15056 0.87411 0.11556 0.0
C8 C 0.19644 0.81039 0.05581 0.0
O9 O 0.14307 0.87829 0.09303 0.0
C10 C 0.13637 0.82832 0.01783 0.0
O11 O 0.18644 0.8706 0.07594 0.0
O12 O 0.16002 0.8713 0.04477 0.0
O13 O 0.17786 0.79973 0.05936 0.0
O14 O 0.19869 0.83053 0.0649 0.0
C15 C 0.10459 0.82954 0.07761 0.0
O16 O 0.12748 0.84457 0.03193 0.0
O17 O 0.14801 0.8136 0.0282 0.0
C18 C 0.17937 0.87753 0.05447 0.0
O19 O 0.11288 0.849 0.08125 0.0
O20 O 0.11602 0.81389 0.06528 0.0
C21 C 0.16298 0.80673 0.11379 0.0
Fe22 Fe 0.67857 0.6561 0.48419 0.0
Fe23 Fe 0.64559 0.69193 0.51026 0.0
O24 O 0.65324 0.66337 0.5028 0.0
Fe25 Fe 0.63557 0.64199 0.51383 0.0
O26 O 0.65919 0.63136 0.53267 0.0
O27 O 0.68478 0.63071 0.50068 0.0
O28 O 0.69679 0.67113 0.50886 0.0
C29 C 0.69451 0.69147 0.51702 0.0
C30 C 0.64814 0.62487 0.46208 0.0
O31 O 0.67582 0.70186 0.51309 0.0
C32 C 0.60248 0.67063 0.49796 0.0
O33 O 0.67702 0.68002 0.46421 0.0
O34 O 0.64405 0.69657 0.47551 0.0
O35 O 0.64122 0.62191 0.48517 0.0
O36 O 0.66191 0.64058 0.45826 0.0
C37 C 0.63554 0.67505 0.55719 0.0
O38 O 0.61402 0.68698 0.50879 0.0
O39 O 0.61089 0.65119 0.49567 0.0
C40 C 0.66011 0.69234 0.45903 0.0
O41 O 0.64648 0.68948 0.54561 0.0
O42 O 0.62664 0.65806 0.54448 0.0
C43 C 0.67835 0.62485 0.52289 0.0
Fe44 Fe 0.85386 0.18717 0.01339 0.0
Fe45 Fe 0.86654 0.1375 0.0135 0.0
O46 O 0.84723 0.15854 0.00479 0.0
Fe47 Fe 0.82134 0.15073 0.98735 0.0
O48 O 0.82977 0.1661 0.96003 0.0
O49 O 0.84083 0.19701 0.9833 0.0
O50 O 0.88114 0.18527 0.99563 0.0
C51 C 0.89698 0.17149 0.99947 0.0
C52 C 0.80716 0.18723 0.02308 0.0
O53 O 0.89288 0.15429 0.01134 0.0
C54 C 0.82237 0.11865 0.02193 0.0
O55 O 0.86799 0.18218 0.04495 0.0
O56 O 0.86326 0.14613 0.04832 0.0
O57 O 0.804 0.17417 0.00238 0.0
O58 O 0.82727 0.19145 0.03191 0.0
C59 C 0.85499 0.12135 0.96325 0.0
O60 O 0.84388 0.11657 0.01736 0.0
O61 O 0.81117 0.13465 0.01366 0.0
C62 C 0.86709 0.16564 0.05885 0.0
O63 O 0.87101 0.12778 0.97911 0.0
O64 O 0.83398 0.12592 0.96879 0.0
C65 C 0.83539 0.18645 0.96137 0.0
Fe66 Fe 0.36598 0.36088 0.55786 0.0
Fe67 Fe 0.322 0.34735 0.58595 0.0
O68 O 0.34717 0.33978 0.56735 0.0
Fe69 Fe 0.35357 0.31128 0.55822 0.0
O70 O 0.38129 0.31328 0.57529 0.0
O71 O 0.39244 0.34397 0.55855 0.0
O72 O 0.3719 0.37056 0.59204 0.0
C73 C 0.35645 0.3769 0.60858 0.0
C74 C 0.36484 0.33301 0.51243 0.0
O75 O 0.33528 0.37211 0.60404 0.0
C76 C 0.30664 0.31132 0.55025 0.0
O77 O 0.34311 0.38181 0.55527 0.0
O78 O 0.31068 0.36353 0.56024 0.0
O79 O 0.36682 0.31648 0.52624 0.0
O80 O 0.36106 0.35238 0.52326 0.0
C81 C 0.33678 0.31143 0.61086 0.0
O82 O 0.30428 0.32381 0.57153 0.0
O83 O 0.32642 0.30731 0.54047 0.0
C84 C 0.32145 0.37963 0.55158 0.0
O85 O 0.33163 0.33188 0.61272 0.0
O86 O 0.34138 0.3011 0.58857 0.0
C87 C 0.39707 0.32686 0.57045 0.0
C88 C 0.00518 0.17354 0.30897 0.0
C89 C 0.98463 0.16148 0.30296 0.0
C90 C 0.02174 0.16552 0.3259 0.0
C91 C 0.01811 0.14526 0.33718 0.0
C92 C 0.99701 0.13383 0.3323 0.0
C93 C 0.98042 0.14187 0.31539 0.0
C94 C 0.03713 0.13513 0.35187 0.0
C95 C 0.05133 0.14844 0.36942 0.0
C96 C 0.07098 0.13937 0.38091 0.0
C97 C 0.07613 0.11659 0.37514 0.0
C98 C 0.06221 0.10303 0.35745 0.0
C99 C 0.04262 0.11243 0.34617 0.0
C100 C 0.06937 0.07986 0.34816 0.0
C101 C 0.09267 0.07512 0.34168 0.0
C102 C 0.05267 0.06291 0.34309 0.0
C103 C 0.05887 0.04219 0.33035 0.0
C104 C 0.08194 0.03791 0.32256 0.0
C105 C 0.08736 0.15418 0.39676 0.0
C106 C 0.09475 0.17425 0.38719 0.0
C107 C 0.09649 0.14803 0.42077 0.0
C108 C 0.11285 0.16166 0.43484 0.0
C109 C 0.1206 0.18147 0.4249 0.0
C110 C 0.11126 0.1877 0.40105 0.0
C111 C 0.0989 0.05434 0.32908 0.0
H112 H 0.00878 0.18884 0.29993 0.0
H113 H 0.03787 0.17465 0.32908 0.0
H114 H 0.99363 0.11829 0.34094 0.0
H115 H 0.96483 0.13212 0.31104 0.0
H116 H 0.04734 0.16602 0.3738 0.0
H117 H 0.03248 0.10243 0.33147 0.0
H118 H 0.09156 0.10966 0.38354 0.0
H119 H 0.10594 0.08786 0.34496 0.0
H120 H 0.03464 0.06591 0.34824 0.0
H121 H 0.0455 0.0297 0.32595 0.0
H122 H 0.08821 0.17928 0.36858 0.0
H123 H 0.09102 0.13266 0.42858 0.0
H124 H 0.11677 0.05162 0.32309 0.0
H125 H 0.11681 0.20297 0.39307 0.0
H126 H 0.11989 0.15645 0.45313 0.0
C127 C 0.40116 0.56992 0.8134 0.0
C128 C 0.41693 0.55248 0.80686 0.0
C129 C 0.40857 0.58986 0.82708 0.0
C130 C 0.43194 0.59283 0.83464 0.0
C131 C 0.44754 0.57504 0.82907 0.0
C132 C 0.44011 0.55506 0.81534 0.0
C133 C 0.44018 0.61497 0.84654 0.0
C134 C 0.42647 0.62777 0.86491 0.0
C135 C 0.43256 0.64989 0.87361 0.0
C136 C 0.4534 0.65885 0.86472 0.0
C137 C 0.46761 0.64612 0.84655 0.0
C138 C 0.46074 0.62423 0.83759 0.0
C139 C 0.48846 0.656 0.83472 0.0
C140 C 0.48815 0.67804 0.82737 0.0
C141 C 0.50798 0.64264 0.82818 0.0
C142 C 0.52579 0.65038 0.8128 0.0
C143 C 0.52484 0.67192 0.80394 0.0
C144 C 0.41605 0.66392 0.89027 0.0
C145 C 0.3922 0.66276 0.88441 0.0
C146 C 0.42369 0.67839 0.91189 0.0
C147 C 0.40767 0.691 0.92769 0.0
C148 C 0.38376 0.6893 0.92213 0.0
C149 C 0.37629 0.67523 0.90015 0.0
C150 C 0.50621 0.68595 0.81233 0.0
H151 H 0.38312 0.56833 0.80746 0.0
H152 H 0.39613 0.60328 0.8308 0.0
H153 H 0.46561 0.57674 0.83487 0.0
H154 H 0.45271 0.54197 0.81049 0.0
H155 H 0.41067 0.62061 0.87209 0.0
H156 H 0.47071 0.6148 0.82235 0.0
H157 H 0.45812 0.67593 0.87124 0.0
H158 H 0.47341 0.68884 0.83198 0.0
H159 H 0.50907 0.62575 0.83401 0.0
H160 H 0.53962 0.63889 0.80672 0.0
H161 H 0.38578 0.65227 0.86746 0.0
H162 H 0.44196 0.67961 0.9169 0.0
H163 H 0.5051 0.70283 0.80651 0.0
H164 H 0.35806 0.67399 0.89494 0.0
H165 H 0.41392 0.70169 0.94455 0.0
C166 C 0.84694 0.7999 0.13703 0.0
C167 C 0.8619 0.81845 0.13713 0.0
C168 C 0.82285 0.80294 0.13855 0.0
C169 C 0.81331 0.82455 0.13994 0.0
C170 C 0.82832 0.84303 0.14034 0.0
C171 C 0.85227 0.84003 0.1389 0.0
C172 C 0.78782 0.82812 0.14074 0.0
C173 C 0.77378 0.81715 0.15807 0.0
C174 C 0.74991 0.82206 0.16054 0.0
C175 C 0.74026 0.83822 0.14522 0.0
C176 C 0.75416 0.84937 0.12791 0.0
C177 C 0.77777 0.84392 0.1255 0.0
C178 C 0.74524 0.86869 0.11468 0.0
C179 C 0.75158 0.87143 0.08845 0.0
C180 C 0.73392 0.88632 0.12955 0.0
C181 C 0.73122 0.90704 0.11932 0.0
C182 C 0.73982 0.91042 0.0941 0.0
C183 C 0.73562 0.81145 0.18048 0.0
C184 C 0.74009 0.78941 0.18637 0.0
C185 C 0.7182 0.82363 0.1948 0.0
C186 C 0.70604 0.81423 0.21487 0.0
C187 C 0.71128 0.79256 0.2216 0.0
C188 C 0.72829 0.78019 0.20681 0.0
C189 C 0.74889 0.8921 0.07826 0.0
H190 H 0.85385 0.78308 0.13585 0.0
H191 H 0.81167 0.78839 0.13818 0.0
H192 H 0.82154 0.85992 0.14182 0.0
H193 H 0.86323 0.85467 0.13865 0.0
H194 H 0.78181 0.80568 0.17065 0.0
H195 H 0.78865 0.85277 0.1125 0.0
H196 H 0.722 0.84237 0.14684 0.0
H197 H 0.76002 0.85799 0.07643 0.0
H198 H 0.72897 0.88471 0.14987 0.0
H199 H 0.72424 0.92089 0.132 0.0
H200 H 0.75302 0.7793 0.17548 0.0
H201 H 0.71436 0.84073 0.19116 0.0
H202 H 0.7553 0.89416 0.05857 0.0
H203 H 0.73313 0.76357 0.21146 0.0
H204 H 0.69275 0.82416 0.22534 0.0
C205 C 0.64952 0.30217 0.64472 0.0
C206 C 0.64 0.30524 0.61979 0.0
C207 C 0.67256 0.30791 0.65051 0.0
C208 C 0.68674 0.31674 0.63145 0.0
C209 C 0.67755 0.31879 0.60608 0.0
C210 C 0.65443 0.31311 0.60031 0.0
C211 C 0.71024 0.32549 0.63893 0.0
C212 C 0.7242 0.31453 0.6564 0.0
C213 C 0.74455 0.32456 0.66735 0.0
C214 C 0.75158 0.34534 0.65931 0.0
C215 C 0.73834 0.35607 0.64091 0.0
C216 C 0.7177 0.34608 0.6309 0.0
C217 C 0.74474 0.37864 0.63367 0.0
C218 C 0.75013 0.39583 0.65338 0.0
C219 C 0.74358 0.38359 0.60717 0.0
C220 C 0.74676 0.40548 0.60061 0.0
C221 C 0.75098 0.42289 0.62044 0.0
C222 C 0.75731 0.31399 0.68854 0.0
C223 C 0.74491 0.30279 0.70724 0.0
C224 C 0.78168 0.31521 0.69067 0.0
C225 C 0.79329 0.30527 0.7109 0.0
C226 C 0.78074 0.29366 0.72897 0.0
C227 C 0.7565 0.29257 0.72701 0.0
C228 C 0.75312 0.41778 0.64684 0.0
H229 H 0.63897 0.29584 0.66004 0.0
H230 H 0.67893 0.30632 0.67036 0.0
H231 H 0.68808 0.32529 0.59086 0.0
H232 H 0.6476 0.31581 0.58094 0.0
H233 H 0.71886 0.29829 0.66194 0.0
H234 H 0.70674 0.35506 0.61807 0.0
H235 H 0.76697 0.35351 0.66785 0.0
H236 H 0.75096 0.39251 0.674 0.0
H237 H 0.73958 0.37061 0.59159 0.0
H238 H 0.74479 0.40892 0.58012 0.0
H239 H 0.72613 0.3021 0.70689 0.0
H240 H 0.79181 0.32356 0.67655 0.0
H241 H 0.75653 0.43085 0.6625 0.0
H242 H 0.74646 0.28402 0.74107 0.0
H243 H 0.81204 0.30628 0.71214 0.0
C244 C 0.58492 0.44278 0.24294 0.0
C245 C 0.58082 0.44603 0.27035 0.0
C246 C 0.57835 0.42275 0.22851 0.0
C247 C 0.56748 0.4057 0.24123 0.0
C248 C 0.56383 0.40883 0.26866 0.0
C249 C 0.57045 0.42868 0.28302 0.0
C250 C 0.55993 0.3845 0.22638 0.0
C251 C 0.57502 0.37237 0.2088 0.0
C252 C 0.5689 0.35089 0.19733 0.0
C253 C 0.54731 0.34173 0.20369 0.0
C254 C 0.53204 0.35389 0.2209 0.0
C255 C 0.53826 0.37531 0.23177 0.0
C256 C 0.51086 0.34355 0.23064 0.0
C257 C 0.4892 0.35364 0.22771 0.0
C258 C 0.5129 0.32604 0.24699 0.0
C259 C 0.49403 0.32007 0.26211 0.0
C260 C 0.47266 0.33133 0.26085 0.0
C261 C 0.58569 0.33757 0.18017 0.0
C262 C 0.59997 0.348 0.16247 0.0
C263 C 0.58815 0.31444 0.18201 0.0
C264 C 0.60466 0.30212 0.16679 0.0
C265 C 0.61926 0.31269 0.14963 0.0
C266 C 0.61667 0.33571 0.14749 0.0
C267 C 0.47017 0.34735 0.24236 0.0
H268 H 0.59282 0.45584 0.23259 0.0
H269 H 0.58137 0.42074 0.20737 0.0
H270 H 0.55606 0.39578 0.27915 0.0
H271 H 0.56764 0.43032 0.3042 0.0
H272 H 0.59206 0.37915 0.20529 0.0
H273 H 0.52658 0.38444 0.24554 0.0
H274 H 0.54236 0.32512 0.19549 0.0
H275 H 0.48732 0.36719 0.21511 0.0
H276 H 0.52957 0.31823 0.24973 0.0
H277 H 0.49683 0.30783 0.2762 0.0
H278 H 0.5983 0.36569 0.16019 0.0
H279 H 0.57781 0.30589 0.19577 0.0
H280 H 0.45385 0.35593 0.24023 0.0
H281 H 0.62754 0.34422 0.13416 0.0
H282 H 0.6065 0.28444 0.16907 0.0
C283 C 0.14846 0.19324 0.93452 0.0
C284 C 0.14193 0.19678 0.96129 0.0
C285 C 0.17138 0.18819 0.92755 0.0
C286 C 0.18828 0.18613 0.94713 0.0
C287 C 0.18212 0.19021 0.97384 0.0
C288 C 0.15924 0.19576 0.98086 0.0
C289 C 0.21166 0.17782 0.93936 0.0
C290 C 0.22402 0.18762 0.91967 0.0
C291 C 0.2443 0.17762 0.90875 0.0
C292 C 0.25241 0.15779 0.91841 0.0
C293 C 0.24037 0.14797 0.93849 0.0
C294 C 0.22016 0.15829 0.94908 0.0
C295 C 0.24708 0.12565 0.94637 0.0
C296 C 0.25199 0.1081 0.92697 0.0
C297 C 0.2463 0.12113 0.97305 0.0
C298 C 0.24916 0.09932 0.98006 0.0
C299 C 0.25274 0.08156 0.9605 0.0
C300 C 0.25589 0.18707 0.88604 0.0
C301 C 0.24248 0.1964 0.8666 0.0
C302 C 0.28023 0.18673 0.88335 0.0
C303 C 0.29082 0.19578 0.8619 0.0
C304 C 0.27729 0.20561 0.84305 0.0
C305 C 0.25306 0.20574 0.84553 0.0
C306 C 0.25474 0.08627 0.93397 0.0
H307 H 0.13574 0.19333 0.91881 0.0
H308 H 0.17565 0.18479 0.9068 0.0
H309 H 0.19495 0.18881 0.98926 0.0
H310 H 0.15509 0.19884 0.00165 0.0
H311 H 0.21741 0.20287 0.9125 0.0
H312 H 0.21006 0.15023 0.96353 0.0
H313 H 0.26761 0.14951 0.90969 0.0
H314 H 0.2525 0.111 0.90622 0.0
H315 H 0.24272 0.13437 0.98842 0.0
H316 H 0.24736 0.09622 0.00065 0.0
H317 H 0.22371 0.19635 0.86744 0.0
H318 H 0.29111 0.17981 0.89802 0.0
H319 H 0.25773 0.07295 0.91851 0.0
H320 H 0.24226 0.21289 0.83095 0.0
H321 H 0.30957 0.19556 0.86035 0.0
C322 C 0.3443 0.69674 0.43741 0.0
C323 C 0.35915 0.67821 0.43809 0.0
C324 C 0.3202 0.69374 0.4357 0.0
C325 C 0.31053 0.67218 0.43485 0.0
C326 C 0.32543 0.6537 0.43527 0.0
C327 C 0.34939 0.65668 0.43695 0.0
C328 C 0.285 0.66867 0.43363 0.0
C329 C 0.2712 0.67958 0.41596 0.0
C330 C 0.24731 0.67476 0.4131 0.0
C331 C 0.23741 0.65869 0.42833 0.0
C332 C 0.25106 0.64761 0.446 0.0
C333 C 0.27468 0.65301 0.44883 0.0
C334 C 0.24189 0.6284 0.45922 0.0
C335 C 0.24783 0.62589 0.48566 0.0
C336 C 0.23077 0.61065 0.44424 0.0
C337 C 0.22792 0.59 0.45461 0.0
C338 C 0.23615 0.58684 0.4801 0.0
C339 C 0.23329 0.68541 0.39292 0.0
C340 C 0.23794 0.70747 0.38721 0.0
C341 C 0.21598 0.67328 0.37819 0.0
C342 C 0.20414 0.68273 0.35786 0.0
C343 C 0.20958 0.70442 0.35132 0.0
C344 C 0.22645 0.71675 0.36655 0.0
C345 C 0.24498 0.60531 0.49601 0.0
H346 H 0.3513 0.71353 0.43808 0.0
H347 H 0.30913 0.70829 0.43546 0.0
H348 H 0.31857 0.63684 0.4342 0.0
H349 H 0.36025 0.64205 0.43781 0.0
H350 H 0.27941 0.69095 0.40342 0.0
H351 H 0.28536 0.64423 0.46216 0.0
H352 H 0.21914 0.65458 0.42636 0.0
H353 H 0.25612 0.63943 0.49776 0.0
H354 H 0.22612 0.61209 0.42376 0.0
H355 H 0.22113 0.57605 0.44187 0.0
H356 H 0.25079 0.71754 0.39843 0.0
H357 H 0.21201 0.65617 0.3817 0.0
H358 H 0.2511 0.60342 0.5159 0.0
H359 H 0.23143 0.73337 0.36206 0.0
H360 H 0.19094 0.67283 0.34703 0.0
C361 C 0.02926 0.84845 0.75317 0.0
C362 C 0.02715 0.83068 0.76928 0.0
C363 C 0.01042 0.85486 0.73824 0.0
C364 C 0.98915 0.84349 0.73889 0.0
C365 C 0.98763 0.82449 0.75305 0.0
C366 C 0.00645 0.81816 0.76818 0.0
C367 C 0.96784 0.85352 0.72862 0.0
C368 C 0.95171 0.84063 0.71306 0.0
C369 C 0.93046 0.84997 0.70587 0.0
C370 C 0.92541 0.87232 0.71481 0.0
C371 C 0.94121 0.88527 0.73077 0.0
C372 C 0.9626 0.87585 0.73696 0.0
C373 C 0.93477 0.90794 0.74278 0.0
C374 C 0.9221 0.92289 0.72847 0.0
C375 C 0.94072 0.91447 0.76925 0.0
C376 C 0.93432 0.93539 0.78108 0.0
C377 C 0.92159 0.95028 0.76688 0.0
C378 C 0.91307 0.83627 0.68996 0.0
C379 C 0.91985 0.82203 0.66782 0.0
C380 C 0.88942 0.83763 0.69663 0.0
C381 C 0.87288 0.82541 0.68125 0.0
C382 C 0.87957 0.81147 0.65884 0.0
C383 C 0.90326 0.80975 0.65242 0.0
C384 C 0.91548 0.94384 0.74045 0.0
H385 H 0.04514 0.85812 0.75311 0.0
H386 H 0.01209 0.86943 0.72723 0.0
H387 H 0.97136 0.81555 0.75405 0.0
H388 H 0.00417 0.80446 0.78044 0.0
H389 H 0.9555 0.82323 0.70709 0.0
H390 H 0.97494 0.88568 0.74929 0.0
H391 H 0.90886 0.87945 0.70989 0.0
H392 H 0.91739 0.91846 0.708 0.0
H393 H 0.94988 0.9032 0.78115 0.0
H394 H 0.93883 0.93968 0.80165 0.0
H395 H 0.93792 0.82076 0.66207 0.0
H396 H 0.88367 0.84805 0.71389 0.0
H397 H 0.90573 0.95505 0.72903 0.0
H398 H 0.90894 0.79929 0.63515 0.0
H399 H 0.85483 0.82674 0.68706 0.0
C400 C 0.12428 0.90283 0.13821 0.0
C401 C 0.14365 0.88872 0.13925 0.0
C402 C 0.11744 0.91647 0.16055 0.0
C403 C 0.1394 0.94521 0.22175 0.0
H404 H 0.07444 0.9492 0.24137 0.0
C405 C 0.1084 0.00548 0.30968 0.0
C406 C 0.08792 0.01737 0.30549 0.0
C407 C 0.11491 0.98735 0.29201 0.0
C408 C 0.09263 0.94845 0.23605 0.0
H409 H 0.17101 0.87782 0.16461 0.0
H410 H 0.15924 0.90209 0.2036 0.0
H411 H 0.08657 0.92246 0.20503 0.0
H412 H 0.05819 0.01954 0.27957 0.0
H413 H 0.06963 0.98834 0.24863 0.0
H414 H 0.14543 0.97179 0.25194 0.0
C415 C 0.14937 0.90246 0.18544 0.0
C416 C 0.09955 0.93307 0.2153 0.0
C417 C 0.15604 0.88855 0.16316 0.0
C418 C 0.07386 0.01046 0.28362 0.0
C419 C 0.08043 0.99251 0.26587 0.0
C420 C 0.13245 0.96079 0.24234 0.0
C421 C 0.12996 0.91649 0.18435 0.0
C422 C 0.12295 0.93153 0.2077 0.0
C423 C 0.10118 0.98086 0.26963 0.0
C424 C 0.1089 0.96286 0.24948 0.0
H425 H 0.11427 0.90324 0.12016 0.0
H426 H 0.10255 0.92729 0.15909 0.0
H427 H 0.15753 0.94449 0.21615 0.0
H428 H 0.11948 0.01032 0.32651 0.0
H429 H 0.1308 0.97854 0.29578 0.0
C430 C 0.63648 0.66216 0.60224 0.0
C431 C 0.63091 0.67881 0.58567 0.0
C432 C 0.62994 0.6644 0.62881 0.0
C433 C 0.60268 0.70429 0.68144 0.0
H434 H 0.58498 0.6488 0.70963 0.0
C435 C 0.53469 0.69152 0.76353 0.0
C436 C 0.54187 0.67864 0.78397 0.0
C437 C 0.54945 0.69484 0.74242 0.0
C438 C 0.59015 0.6644 0.70213 0.0
H439 H 0.61454 0.71097 0.58346 0.0
H440 H 0.60166 0.71439 0.62939 0.0
H441 H 0.60302 0.64769 0.66644 0.0
H442 H 0.57119 0.66083 0.79905 0.0
H443 H 0.59635 0.66563 0.76134 0.0
H444 H 0.58781 0.72081 0.71676 0.0
C445 C 0.61195 0.69998 0.6225 0.0
C446 C 0.60069 0.66384 0.67737 0.0
C447 C 0.61918 0.69803 0.59609 0.0
C448 C 0.56474 0.67029 0.7834 0.0
C449 C 0.57928 0.6732 0.76198 0.0
C450 C 0.59154 0.70483 0.70599 0.0
C451 C 0.61685 0.68297 0.63917 0.0
C452 C 0.60702 0.68377 0.66649 0.0
C453 C 0.57153 0.68506 0.74106 0.0
C454 C 0.58514 0.68487 0.71642 0.0
H455 H 0.6457 0.64726 0.59453 0.0
H456 H 0.63481 0.65127 0.64103 0.0
H457 H 0.60764 0.72 0.67415 0.0
H458 H 0.51719 0.69799 0.76289 0.0
H459 H 0.54305 0.70387 0.72633 0.0
C460 C 0.78564 0.10016 0.03586 0.0
C461 C 0.81 0.10044 0.03394 0.0
C462 C 0.77424 0.08201 0.04568 0.0
C463 C 0.7851 0.03258 0.0833 0.0
H464 H 0.73287 0.00604 0.04347 0.0
C465 C 0.76499 0.93973 0.0774 0.0
C466 C 0.74307 0.93342 0.08627 0.0
C467 C 0.76954 0.96187 0.07305 0.0
C468 C 0.74718 0.01352 0.055 0.0
H469 H 0.84144 0.08214 0.04154 0.0
H470 H 0.82174 0.05066 0.05809 0.0
H471 H 0.74789 0.04252 0.03325 0.0
H472 H 0.70849 0.94522 0.09676 0.0
H473 H 0.71642 0.9843 0.08832 0.0
H474 H 0.78528 0.00297 0.10387 0.0
C475 C 0.81135 0.06449 0.05244 0.0
C476 C 0.75576 0.03439 0.04926 0.0
C477 C 0.82268 0.08252 0.04268 0.0
C478 C 0.72551 0.94966 0.08987 0.0
C479 C 0.73 0.97191 0.08505 0.0
C480 C 0.77673 0.01171 0.08877 0.0
C481 C 0.787 0.06389 0.0539 0.0
C482 C 0.77532 0.04378 0.06278 0.0
C483 C 0.75223 0.97819 0.07718 0.0
C484 C 0.75817 0.00174 0.07417 0.0
H485 H 0.77536 0.11375 0.02936 0.0
H486 H 0.75547 0.08212 0.04674 0.0
H487 H 0.7998 0.03959 0.09455 0.0
H488 H 0.779 0.92771 0.07489 0.0
H489 H 0.78677 0.96636 0.06684 0.0
C490 C 0.42773 0.30202 0.5876 0.0
C491 C 0.42163 0.32159 0.57593 0.0
C492 C 0.45107 0.29692 0.59184 0.0
C493 C 0.50109 0.29828 0.61259 0.0
H494 H 0.54606 0.31072 0.55907 0.0
C495 C 0.59863 0.30943 0.63441 0.0
C496 C 0.61475 0.30194 0.61485 0.0
C497 C 0.57484 0.30807 0.62931 0.0
C498 C 0.53374 0.30681 0.57406 0.0
H499 H 0.43532 0.35132 0.56004 0.0
H500 H 0.47577 0.34253 0.56764 0.0
H501 H 0.50485 0.31549 0.55049 0.0
H502 H 0.61844 0.28627 0.5749 0.0
H503 H 0.57676 0.28392 0.56592 0.0
H504 H 0.53005 0.2897 0.63622 0.0
C505 C 0.46259 0.33092 0.57308 0.0
C506 C 0.51013 0.30983 0.56928 0.0
C507 C 0.43935 0.33604 0.56891 0.0
C508 C 0.60647 0.29247 0.59026 0.0
C509 C 0.58262 0.29111 0.58513 0.0
C510 C 0.52474 0.29528 0.6174 0.0
C511 C 0.46875 0.31124 0.58441 0.0
C512 C 0.49358 0.30603 0.58868 0.0
C513 C 0.56655 0.2992 0.60448 0.0
C514 C 0.54135 0.29992 0.59838 0.0
H515 H 0.41451 0.29054 0.59326 0.0
H516 H 0.45529 0.28159 0.60053 0.0
H517 H 0.48878 0.29528 0.62797 0.0
H518 H 0.60438 0.31719 0.6534 0.0
H519 H 0.56298 0.31482 0.64449 0.0
C520 C 0.65418 0.60602 0.41632 0.0
C521 C 0.64131 0.6085 0.43989 0.0
C522 C 0.6481 0.58958 0.39612 0.0
C523 C 0.61463 0.53662 0.38586 0.0
H524 H 0.61971 0.54557 0.31133 0.0
C525 C 0.5727 0.47616 0.30651 0.0
C526 C 0.58731 0.46723 0.28608 0.0
C527 C 0.57967 0.49458 0.32335 0.0
C528 C 0.61837 0.54286 0.33209 0.0
H529 H 0.61128 0.59661 0.46017 0.0
H530 H 0.6003 0.56862 0.42487 0.0
H531 H 0.63106 0.57568 0.34471 0.0
H532 H 0.62022 0.47149 0.26648 0.0
H533 H 0.63223 0.50416 0.29584 0.0
H534 H 0.60147 0.50408 0.37331 0.0
C535 C 0.6156 0.57867 0.42223 0.0
C536 C 0.62493 0.56003 0.35121 0.0
C537 C 0.62182 0.59483 0.44246 0.0
C538 C 0.60853 0.478 0.28197 0.0
C539 C 0.61543 0.49665 0.29876 0.0
C540 C 0.60786 0.51967 0.36684 0.0
C541 C 0.62889 0.57551 0.399 0.0
C542 C 0.62287 0.55719 0.37836 0.0
C543 C 0.6013 0.50469 0.32003 0.0
C544 C 0.60942 0.52267 0.3398 0.0
H545 H 0.66928 0.61636 0.41376 0.0
H546 H 0.65882 0.58754 0.37858 0.0
H547 H 0.61345 0.53353 0.40651 0.0
H548 H 0.55596 0.46868 0.3098 0.0
H549 H 0.56825 0.50074 0.33929 0.0
C550 C 0.93674 0.15902 0.98633 0.0
C551 C 0.92124 0.17657 0.99308 0.0
C552 C 0.96024 0.16335 0.98272 0.0
C553 C 0.00319 0.20906 0.97521 0.0
H554 H 0.04558 0.16428 0.99748 0.0
C555 C 0.10139 0.20997 0.95199 0.0
C556 C 0.11695 0.19964 0.96854 0.0
C557 C 0.0775 0.20964 0.95664 0.0
C558 C 0.03413 0.17725 0.99161 0.0
H559 H 0.91791 0.21248 0.00083 0.0
H560 H 0.95921 0.22011 0.99572 0.0
H561 H 0.00434 0.15892 0.00192 0.0
H562 H 0.11927 0.18218 0.00417 0.0
H563 H 0.07812 0.18316 0.01334 0.0
H564 H 0.0332 0.22793 0.96621 0.0
C565 C 0.95321 0.20299 0.99244 0.0
C566 C 0.01028 0.1739 0.9936 0.0
C567 C 0.92953 0.19866 0.99546 0.0
C568 C 0.10804 0.19043 0.99096 0.0
C569 C 0.08422 0.19057 0.99595 0.0
C570 C 0.02715 0.21263 0.97368 0.0
C571 C 0.96896 0.18534 0.98647 0.0
C572 C 0.99443 0.18955 0.98503 0.0
C573 C 0.06852 0.19943 0.97834 0.0
C574 C 0.04297 0.19663 0.98159 0.0
H575 H 0.9307 0.14185 0.98404 0.0
H576 H 0.97159 0.14936 0.97723 0.0
H577 H 0.9916 0.22146 0.96825 0.0
H578 H 0.10755 0.21781 0.93492 0.0
H579 H 0.06609 0.21661 0.94253 0.0
C580 C 0.32079 0.41576 0.53085 0.0
C581 C 0.30855 0.39776 0.54004 0.0
C582 C 0.30901 0.43365 0.52136 0.0
C583 C 0.25327 0.4633 0.52589 0.0
H584 H 0.28098 0.4946 0.47017 0.0
C585 C 0.22194 0.5475 0.48411 0.0
C586 C 0.23934 0.56392 0.48821 0.0
C587 C 0.22647 0.52531 0.48909 0.0
C588 C 0.27292 0.48587 0.48555 0.0
H589 H 0.27419 0.3842 0.54574 0.0
H590 H 0.2535 0.41559 0.52882 0.0
H591 H 0.29605 0.45815 0.47935 0.0
H592 H 0.27502 0.56998 0.50073 0.0
H593 H 0.28286 0.53141 0.50905 0.0
H594 H 0.23033 0.49151 0.5321 0.0
C595 C 0.27229 0.41586 0.52932 0.0
C596 C 0.28161 0.46511 0.49096 0.0
C597 C 0.28414 0.39785 0.53888 0.0
C598 C 0.26112 0.55783 0.49782 0.0
C599 C 0.26571 0.53574 0.50235 0.0
C600 C 0.24436 0.48405 0.52021 0.0
C601 C 0.28463 0.43404 0.5206 0.0
C602 C 0.27252 0.45397 0.51188 0.0
C603 C 0.24858 0.51927 0.49766 0.0
C604 C 0.25469 0.49577 0.5006 0.0
H605 H 0.33959 0.4163 0.53141 0.0
H606 H 0.31911 0.44754 0.51532 0.0
H607 H 0.24593 0.45522 0.5422 0.0
H608 H 0.20503 0.55176 0.47665 0.0
H609 H 0.21305 0.51276 0.48536 0.0
C610 C 0.13199 0.80466 0.97465 0.0
C611 C 0.13115 0.82572 0.98917 0.0
C612 C 0.12551 0.8023 0.94791 0.0
C613 C 0.11755 0.83371 0.88947 0.0
H614 H 0.06833 0.79136 0.86962 0.0
C615 C 0.05496 0.84573 0.80441 0.0
C616 C 0.04512 0.82715 0.7896 0.0
C617 C 0.06976 0.84289 0.82563 0.0
C618 C 0.08245 0.80291 0.87453 0.0
H619 H 0.12382 0.86092 0.98683 0.0
H620 H 0.11289 0.85684 0.94023 0.0
H621 H 0.08687 0.79114 0.91289 0.0
H622 H 0.04395 0.79092 0.78488 0.0
H623 H 0.07007 0.78591 0.82201 0.0
H624 H 0.113 0.84578 0.85142 0.0
C625 C 0.11841 0.84215 0.94949 0.0
C626 C 0.09302 0.80281 0.89938 0.0
C627 C 0.12449 0.84445 0.97623 0.0
C628 C 0.05109 0.80558 0.79604 0.0
C629 C 0.06601 0.80272 0.81733 0.0
C630 C 0.10718 0.83367 0.86456 0.0
C631 C 0.11855 0.82103 0.93514 0.0
C632 C 0.11014 0.81869 0.90739 0.0
C633 C 0.07521 0.82138 0.83266 0.0
C634 C 0.08893 0.8188 0.85712 0.0
H635 H 0.13704 0.78992 0.98411 0.0
H636 H 0.12581 0.78584 0.93725 0.0
H637 H 0.13097 0.84591 0.89503 0.0
H638 H 0.05037 0.8626 0.80045 0.0
H639 H 0.07604 0.85767 0.83728 0.0
C640 C 0.84303 0.09862 0.92149 0.0
C641 C 0.86064 0.10674 0.93906 0.0
C642 C 0.84839 0.08448 0.89893 0.0
C643 C 0.89726 0.065 0.85532 0.0
H644 H 0.85926 0.01198 0.84056 0.0
C645 C 0.92977 0.98497 0.79654 0.0
C646 C 0.91416 0.97207 0.78023 0.0
C647 C 0.92222 0.00408 0.81175 0.0
C648 C 0.8698 0.02691 0.84404 0.0
H649 H 0.89779 0.10671 0.94633 0.0
H650 H 0.90705 0.08184 0.90731 0.0
H651 H 0.84783 0.04029 0.87546 0.0
H652 H 0.87863 0.96958 0.76616 0.0
H653 H 0.86539 0.00318 0.7927 0.0
H654 H 0.91961 0.05123 0.82441 0.0
C655 C 0.88912 0.0866 0.91076 0.0
C656 C 0.86326 0.04314 0.86409 0.0
C657 C 0.88377 0.10072 0.93329 0.0
C658 C 0.89105 0.97925 0.77849 0.0
C659 C 0.88345 0.99835 0.79385 0.0
C660 C 0.90382 0.04875 0.8353 0.0
C661 C 0.87148 0.07819 0.89341 0.0
C662 C 0.87718 0.06214 0.87033 0.0
C663 C 0.89886 0.0107 0.81106 0.0
C664 C 0.89042 0.0293 0.82982 0.0
H665 H 0.82505 0.10307 0.92521 0.0
H666 H 0.83444 0.07849 0.8858 0.0
H667 H 0.90811 0.07967 0.8593 0.0
H668 H 0.94775 0.97994 0.79805 0.0
H669 H 0.9345 0.01309 0.82495 0.0
C670 C 0.3792 0.31025 0.47171 0.0
C671 C 0.37011 0.33037 0.48377 0.0
C672 C 0.38628 0.30874 0.44523 0.0
C673 C 0.40773 0.34513 0.39661 0.0
H674 H 0.39886 0.29385 0.34545 0.0
C675 C 0.44207 0.3476 0.29195 0.0
C676 C 0.4545 0.32876 0.28127 0.0
C677 C 0.42807 0.34644 0.31413 0.0
C678 C 0.40158 0.30823 0.35958 0.0
H679 H 0.35991 0.36418 0.47692 0.0
H680 H 0.3721 0.36148 0.43095 0.0
H681 H 0.38132 0.29411 0.38943 0.0
H682 H 0.46023 0.29337 0.28453 0.0
H683 H 0.43654 0.29163 0.32403 0.0
H684 H 0.42844 0.35908 0.36748 0.0
C685 C 0.37421 0.34702 0.44206 0.0
C686 C 0.39154 0.30837 0.38472 0.0
C687 C 0.36717 0.34854 0.46842 0.0
C688 C 0.45134 0.30835 0.2925 0.0
C689 C 0.43751 0.30727 0.31499 0.0
C690 C 0.41781 0.34495 0.37168 0.0
C691 C 0.38438 0.32732 0.43036 0.0
C692 C 0.39447 0.3269 0.40344 0.0
C693 C 0.42637 0.32653 0.3266 0.0
C694 C 0.41482 0.32657 0.35278 0.0
H695 H 0.3816 0.2959 0.48294 0.0
H696 H 0.39414 0.29336 0.43677 0.0
H697 H 0.4108 0.35942 0.41079 0.0
H698 H 0.4441 0.36371 0.28421 0.0
H699 H 0.41927 0.36146 0.32215 0.0
C700 C 0.18534 0.90278 0.01828 0.0
C701 C 0.19243 0.89535 0.04254 0.0
C702 C 0.19656 0.92075 0.00806 0.0
C703 C 0.22902 0.97126 0.03012 0.0
H704 H 0.24115 0.97381 0.95534 0.0
C705 C 0.26319 0.05188 0.99041 0.0
C706 C 0.25206 0.0581 0.96752 0.0
C707 C 0.26029 0.03037 0.99843 0.0
C708 C 0.23777 0.9734 0.97627 0.0
H709 H 0.21751 0.90044 0.07454 0.0
H710 H 0.23698 0.93188 0.05669 0.0
H711 H 0.2277 0.9389 0.9714 0.0
H712 H 0.2295 0.04651 0.93483 0.0
H713 H 0.22421 0.00923 0.94889 0.0
H714 H 0.23813 0.00588 0.035 0.0
C715 C 0.22261 0.92388 0.04573 0.0
C716 C 0.23011 0.9534 0.98545 0.0
C717 C 0.2115 0.90581 0.05588 0.0
C718 C 0.23863 0.04213 0.95233 0.0
C719 C 0.23561 0.0207 0.96041 0.0
C720 C 0.23652 0.99128 0.02095 0.0
C721 C 0.21503 0.93175 0.02192 0.0
C722 C 0.2253 0.95223 0.01241 0.0
C723 C 0.24605 0.01467 0.98382 0.0
C724 C 0.24061 0.99272 0.99384 0.0
H725 H 0.17079 0.89502 0.00742 0.0
H726 H 0.19019 0.92656 0.98977 0.0
H727 H 0.22516 0.97096 0.05097 0.0
H728 H 0.27387 0.06377 0.00233 0.0
H729 H 0.26891 0.02615 0.01631 0.0
C730 C 0.56554 0.69291 0.49906 0.0
C731 C 0.57814 0.67379 0.48973 0.0
C732 C 0.54216 0.69512 0.49216 0.0
C733 C 0.49187 0.66056 0.46766 0.0
H734 H 0.46433 0.71756 0.45498 0.0
C735 C 0.39968 0.66577 0.42664 0.0
C736 C 0.38472 0.68102 0.44066 0.0
C737 C 0.42355 0.66664 0.43122 0.0
C738 C 0.47181 0.70157 0.45861 0.0
H739 H 0.57642 0.6425 0.46485 0.0
H740 H 0.53606 0.6466 0.45228 0.0
H741 H 0.50571 0.71563 0.4656 0.0
H742 H 0.38331 0.70986 0.46958 0.0
H743 H 0.42524 0.71156 0.47731 0.0
H744 H 0.45813 0.64646 0.46039 0.0
C745 C 0.54389 0.65959 0.46562 0.0
C746 C 0.49547 0.70045 0.46478 0.0
C747 C 0.56711 0.65728 0.47272 0.0
C748 C 0.39436 0.69795 0.45834 0.0
C749 C 0.41835 0.69891 0.46281 0.0
C750 C 0.46837 0.66165 0.46127 0.0
C751 C 0.53097 0.67833 0.47559 0.0
C752 C 0.50581 0.67988 0.46926 0.0
C753 C 0.43309 0.68289 0.44978 0.0
C754 C 0.45811 0.68212 0.45656 0.0
H755 H 0.57356 0.70592 0.51222 0.0
H756 H 0.53272 0.70968 0.5004 0.0
H757 H 0.49902 0.64453 0.47166 0.0
H758 H 0.39288 0.65285 0.41241 0.0
H759 H 0.43456 0.65435 0.4205 0.0
C760 C 0.38507 0.40139 0.63488 0.0
C761 C 0.36272 0.39204 0.63216 0.0
C762 C 0.39057 0.41653 0.65653 0.0
C763 C 0.36252 0.45608 0.70631 0.0
H764 H 0.42406 0.45932 0.73759 0.0
C765 C 0.39534 0.53472 0.7676 0.0
C766 C 0.40952 0.53237 0.78975 0.0
C767 C 0.38893 0.5161 0.75076 0.0
C768 C 0.40669 0.45847 0.72933 0.0
H769 H 0.32894 0.3905 0.6507 0.0
H770 H 0.33865 0.41659 0.68866 0.0
H771 H 0.41442 0.42873 0.70444 0.0
H772 H 0.42783 0.50852 0.81181 0.0
H773 H 0.4165 0.4758 0.78235 0.0
H774 H 0.35469 0.48565 0.73131 0.0
C775 C 0.35177 0.41265 0.67374 0.0
C776 C 0.40126 0.44109 0.71009 0.0
C777 C 0.34623 0.39763 0.65201 0.0
C778 C 0.41705 0.51088 0.79477 0.0
C779 C 0.41058 0.49217 0.77789 0.0
C780 C 0.36792 0.47337 0.72559 0.0
C781 C 0.3739 0.42254 0.67607 0.0
C782 C 0.37922 0.4399 0.69804 0.0
C783 C 0.3965 0.4946 0.75564 0.0
C784 C 0.39019 0.47502 0.73698 0.0
H785 H 0.39821 0.39743 0.61996 0.0
H786 H 0.40768 0.42403 0.6575 0.0
H787 H 0.34545 0.45583 0.69731 0.0
H788 H 0.38965 0.55109 0.76285 0.0
H789 H 0.37851 0.51866 0.73349 0.0
C790 C 0.06955 0.84133 0.10408 0.0
C791 C 0.08041 0.82572 0.08589 0.0
C792 C 0.04643 0.83852 0.11116 0.0
C793 C 0.99808 0.79736 0.10948 0.0
H794 H 0.96072 0.85123 0.11727 0.0
C795 C 0.89701 0.79928 0.11628 0.0
C796 C 0.88744 0.81564 0.13467 0.0
C797 C 0.92098 0.79852 0.11184 0.0
C798 C 0.97097 0.83605 0.11545 0.0
H799 H 0.07568 0.79459 0.06132 0.0
H800 H 0.035 0.78997 0.07316 0.0
H801 H 0.00152 0.85379 0.10611 0.0
H802 H 0.89571 0.8429 0.1642 0.0
H803 H 0.93737 0.8417 0.15626 0.0
H804 H 0.96703 0.77967 0.11827 0.0
C805 C 0.0445 0.80421 0.08229 0.0
C806 C 0.99441 0.83751 0.10911 0.0
C807 C 0.06778 0.80691 0.07539 0.0
C808 C 0.90246 0.83044 0.14945 0.0
C809 C 0.92632 0.82974 0.14494 0.0
C810 C 0.97447 0.79589 0.11563 0.0
C811 C 0.03346 0.82017 0.10001 0.0
C812 C 0.00835 0.81824 0.10629 0.0
C813 C 0.93578 0.81415 0.12565 0.0
C814 C 0.96075 0.81528 0.11891 0.0
H815 H 0.07889 0.85583 0.11286 0.0
H816 H 0.03871 0.85085 0.12538 0.0
H817 H 0.00833 0.78221 0.10767 0.0
H818 H 0.88589 0.78773 0.10445 0.0
H819 H 0.9278 0.78637 0.09678 0.0
C820 C 0.7109 0.59719 0.52266 0.0
C821 C 0.69179 0.60772 0.53563 0.0
C822 C 0.72224 0.57956 0.53347 0.0
C823 C 0.72988 0.55107 0.59464 0.0
H824 H 0.73778 0.49806 0.546 0.0
C825 C 0.73783 0.46257 0.62889 0.0
C826 C 0.75098 0.44644 0.61376 0.0
C827 C 0.73516 0.48403 0.62076 0.0
C828 C 0.73622 0.51281 0.5598 0.0
H829 H 0.67039 0.60875 0.57086 0.0
H830 H 0.69014 0.57791 0.58962 0.0
H831 H 0.72489 0.53267 0.52931 0.0
H832 H 0.77285 0.44052 0.57919 0.0
H833 H 0.76854 0.47817 0.56517 0.0
H834 H 0.74084 0.53105 0.62523 0.0
C835 C 0.69638 0.58334 0.57112 0.0
C836 C 0.72876 0.53267 0.55021 0.0
C837 C 0.68495 0.6009 0.56025 0.0
C838 C 0.76236 0.45254 0.59104 0.0
C839 C 0.75982 0.47407 0.58299 0.0
C840 C 0.73749 0.53121 0.60424 0.0
C841 C 0.71482 0.57218 0.55756 0.0
C842 C 0.72508 0.55189 0.56757 0.0
C843 C 0.74569 0.4899 0.59738 0.0
C844 C 0.74031 0.51171 0.587 0.0
H845 H 0.71675 0.60212 0.50376 0.0
H846 H 0.73659 0.57145 0.52275 0.0
H847 H 0.72748 0.56572 0.60843 0.0
H848 H 0.7286 0.45827 0.6463 0.0
H849 H 0.72388 0.49563 0.63214 0.0
C850 C 0.87697 0.15006 0.10163 0.0
C851 C 0.87345 0.16872 0.08724 0.0
C852 C 0.88477 0.15278 0.12778 0.0
C853 C 0.91721 0.19274 0.17328 0.0
H854 H 0.90132 0.1505 0.22385 0.0
C855 C 0.94458 0.16667 0.28457 0.0
C856 C 0.9688 0.16806 0.28189 0.0
C857 C 0.92994 0.1707 0.26347 0.0
C858 C 0.90568 0.16274 0.21023 0.0
H859 H 0.87423 0.20497 0.08954 0.0
H860 H 0.88744 0.20975 0.13541 0.0
H861 H 0.87975 0.15014 0.18254 0.0
H862 H 0.99661 0.17503 0.2551 0.0
H863 H 0.97128 0.18176 0.21841 0.0
H864 H 0.94306 0.20541 0.20101 0.0
C865 C 0.88468 0.19297 0.12624 0.0
C866 C 0.89352 0.16231 0.18633 0.0
C867 C 0.87702 0.19023 0.09997 0.0
C868 C 0.97802 0.17422 0.25799 0.0
C869 C 0.96344 0.17812 0.23692 0.0
C870 C 0.92924 0.19328 0.19726 0.0
C871 C 0.88906 0.17425 0.14031 0.0
C872 C 0.8996 0.17685 0.16722 0.0
C873 C 0.93923 0.17607 0.23921 0.0
C874 C 0.92412 0.17783 0.21567 0.0
H875 H 0.87439 0.13323 0.09248 0.0
H876 H 0.88828 0.13796 0.1378 0.0
H877 H 0.92249 0.20412 0.15901 0.0
H878 H 0.93698 0.16218 0.30286 0.0
H879 H 0.91136 0.16929 0.26604 0.0
C880 C 0.15297 0.77421 0.13933 0.0
C881 C 0.16326 0.79535 0.13835 0.0
C882 C 0.15412 0.76328 0.16253 0.0
C883 C 0.15906 0.77176 0.23371 0.0
H884 H 0.19383 0.71637 0.2307 0.0
C885 C 0.19493 0.73683 0.32766 0.0
C886 C 0.19874 0.71371 0.32792 0.0
C887 C 0.18705 0.74577 0.30478 0.0
C888 C 0.18355 0.7315 0.23196 0.0
H889 H 0.18197 0.82203 0.16093 0.0
H890 H 0.18332 0.80318 0.20169 0.0
H891 H 0.18579 0.73374 0.1901 0.0
H892 H 0.19616 0.68182 0.30419 0.0
H893 H 0.18094 0.69716 0.26515 0.0
H894 H 0.1563 0.76954 0.27536 0.0
C895 C 0.17472 0.79499 0.18443 0.0
C896 C 0.1791 0.74148 0.20864 0.0
C897 C 0.17409 0.80565 0.16111 0.0
C898 C 0.19328 0.69968 0.30502 0.0
C899 C 0.18492 0.70857 0.28231 0.0
C900 C 0.16304 0.76155 0.257 0.0
C901 C 0.16499 0.77363 0.18522 0.0
C902 C 0.16726 0.7619 0.20943 0.0
C903 C 0.18226 0.7318 0.28162 0.0
C904 C 0.17582 0.74152 0.25655 0.0
H905 H 0.14454 0.76592 0.12203 0.0
H906 H 0.14654 0.74678 0.16279 0.0
H907 H 0.14975 0.78748 0.23468 0.0
H908 H 0.19838 0.74819 0.34502 0.0
H909 H 0.1855 0.76376 0.30511 0.0
C910 C 0.7126 0.72652 0.53866 0.0
C911 C 0.71444 0.70369 0.52997 0.0
C912 C 0.7313 0.73795 0.55121 0.0
C913 C 0.78518 0.72871 0.58812 0.0
H914 H 0.79951 0.78932 0.57272 0.0
C915 C 0.8654 0.77659 0.63252 0.0
C916 C 0.86176 0.79898 0.64221 0.0
C917 C 0.84826 0.76474 0.61753 0.0
C918 C 0.79561 0.77246 0.57739 0.0
H919 H 0.7375 0.675 0.52765 0.0
H920 H 0.77013 0.69502 0.54931 0.0
H921 H 0.76795 0.76906 0.54908 0.0
H922 H 0.83754 0.82667 0.64311 0.0
H923 H 0.80755 0.80594 0.61738 0.0
H924 H 0.81274 0.73218 0.61658 0.0
C925 C 0.75414 0.70402 0.54666 0.0
C926 C 0.77752 0.76086 0.56386 0.0
C927 C 0.73545 0.69258 0.53409 0.0
C928 C 0.84077 0.80935 0.63622 0.0
C929 C 0.82368 0.79755 0.62121 0.0
C930 C 0.80329 0.74032 0.60165 0.0
C931 C 0.75226 0.72682 0.55541 0.0
C932 C 0.77198 0.73891 0.5692 0.0
C933 C 0.82716 0.77507 0.61181 0.0
C934 C 0.8086 0.76239 0.59658 0.0
H935 H 0.69666 0.73559 0.53593 0.0
H936 H 0.72917 0.75544 0.55805 0.0
H937 H 0.78117 0.71193 0.59297 0.0
H938 H 0.88133 0.76809 0.63693 0.0
H939 H 0.85156 0.74751 0.61036 0.0
C940 C 0.76432 0.19232 0.02988 0.0
C941 C 0.78719 0.19937 0.03573 0.0
C942 C 0.7455 0.20416 0.04145 0.0
C943 C 0.72881 0.25975 0.07018 0.0
H944 H 0.6795 0.22929 0.10444 0.0
C945 C 0.66047 0.30821 0.13477 0.0
C946 C 0.63771 0.29987 0.13477 0.0
C947 C 0.67813 0.2958 0.12169 0.0
C948 C 0.69289 0.23805 0.09457 0.0
H949 H 0.80823 0.22431 0.0584 0.0
H950 H 0.77537 0.24508 0.07823 0.0
H951 H 0.71127 0.20766 0.08331 0.0
H952 H 0.61539 0.27227 0.12061 0.0
H953 H 0.64608 0.25079 0.09706 0.0
H954 H 0.71043 0.29008 0.08087 0.0
C955 C 0.77204 0.23041 0.06471 0.0
C956 C 0.71113 0.22564 0.08257 0.0
C957 C 0.79084 0.21842 0.05347 0.0
C958 C 0.63286 0.27899 0.12112 0.0
C959 C 0.65048 0.26666 0.10774 0.0
C960 C 0.71046 0.27214 0.08186 0.0
C961 C 0.74921 0.22344 0.05876 0.0
C962 C 0.72937 0.23641 0.07053 0.0
C963 C 0.67339 0.27484 0.10801 0.0
C964 C 0.69238 0.26149 0.09449 0.0
H965 H 0.76095 0.17766 0.01638 0.0
H966 H 0.72804 0.1985 0.03647 0.0
H967 H 0.74252 0.26843 0.06067 0.0
H968 H 0.66474 0.32412 0.14547 0.0
H969 H 0.69561 0.30247 0.12282 0.0
C970 C 0.32622 0.31035 0.65837 0.0
C971 C 0.33464 0.29916 0.63479 0.0
C972 C 0.32244 0.29884 0.68057 0.0
C973 C 0.33741 0.25044 0.71492 0.0
H974 H 0.27582 0.25882 0.74477 0.0
C975 C 0.30299 0.20387 0.80313 0.0
C976 C 0.28804 0.21606 0.82082 0.0
C977 C 0.3107 0.21309 0.7803 0.0
C978 C 0.29321 0.25652 0.73697 0.0
H979 H 0.34675 0.26723 0.61655 0.0
H980 H 0.34028 0.24703 0.65592 0.0
H981 H 0.28585 0.27626 0.70495 0.0
H982 H 0.27068 0.24776 0.82975 0.0
H983 H 0.28466 0.26417 0.79061 0.0
H984 H 0.34494 0.23112 0.74748 0.0
C985 C 0.33651 0.26476 0.65683 0.0
C986 C 0.29887 0.2664 0.71404 0.0
C987 C 0.3401 0.27628 0.63435 0.0
C988 C 0.28192 0.23795 0.81615 0.0
C989 C 0.28981 0.24724 0.79363 0.0
C990 C 0.33181 0.24068 0.73816 0.0
C991 C 0.32717 0.2759 0.67991 0.0
C992 C 0.32109 0.26375 0.70303 0.0
C993 C 0.3037 0.2347 0.775 0.0
C994 C 0.30974 0.24396 0.74969 0.0
H995 H 0.322 0.328 0.6596 0.0
H996 H 0.31552 0.30786 0.69827 0.0
H997 H 0.35469 0.24822 0.70675 0.0
H998 H 0.30786 0.1869 0.80636 0.0
H999 H 0.32132 0.20297 0.76634 0.0
C1000 C 0.65023 0.72431 0.43251 0.0
C1001 C 0.66026 0.70314 0.43405 0.0
C1002 C 0.6517 0.7349 0.4091 0.0
C1003 C 0.65791 0.72575 0.33796 0.0
H1004 H 0.69303 0.78104 0.34185 0.0
C1005 C 0.69612 0.76021 0.24501 0.0
C1006 C 0.70004 0.78332 0.24475 0.0
C1007 C 0.68773 0.75136 0.26769 0.0
C1008 C 0.68266 0.76594 0.34031 0.0
H1009 H 0.67871 0.67601 0.4122 0.0
H1010 H 0.6806 0.69429 0.37106 0.0
H1011 H 0.68386 0.76397 0.38228 0.0
H1012 H 0.69717 0.81528 0.26826 0.0
H1013 H 0.68107 0.8001 0.30685 0.0
H1014 H 0.6562 0.72772 0.29618 0.0
C1015 C 0.67196 0.70276 0.38804 0.0
C1016 C 0.67756 0.75612 0.36355 0.0
C1017 C 0.67101 0.69242 0.41157 0.0
C1018 C 0.69422 0.79743 0.26742 0.0
C1019 C 0.68535 0.78863 0.28989 0.0
C1020 C 0.66255 0.73581 0.31474 0.0
C1021 C 0.66262 0.7242 0.38674 0.0
C1022 C 0.66557 0.73575 0.36249 0.0
C1023 C 0.68252 0.76541 0.2906 0.0
C1024 C 0.67546 0.7558 0.3155 0.0
H1025 H 0.64188 0.73294 0.44959 0.0
H1026 H 0.64441 0.75148 0.40847 0.0
H1027 H 0.6485 0.71006 0.33677 0.0
H1028 H 0.69985 0.74879 0.22782 0.0
H1029 H 0.68607 0.73338 0.26739 0.0
C1030 C 0.83904 0.22119 0.93726 0.0
C1031 C 0.83357 0.19832 0.9371 0.0
C1032 C 0.83623 0.23228 0.91431 0.0
C1033 C 0.80152 0.22866 0.85389 0.0
H1034 H 0.84753 0.26738 0.82593 0.0
C1035 C 0.78812 0.25985 0.75254 0.0
C1036 C 0.79245 0.28255 0.7501 0.0
C1037 C 0.79605 0.24987 0.77461 0.0
C1038 C 0.83445 0.25678 0.83366 0.0
H1039 H 0.82173 0.16905 0.91238 0.0
H1040 H 0.81674 0.18837 0.87279 0.0
H1041 H 0.85563 0.24997 0.86693 0.0
H1042 H 0.80932 0.31245 0.76787 0.0
H1043 H 0.82285 0.2951 0.80707 0.0
H1044 H 0.78013 0.23553 0.82127 0.0
C1045 C 0.82295 0.19777 0.89065 0.0
C1046 C 0.83909 0.24685 0.85708 0.0
C1047 C 0.82587 0.1867 0.91339 0.0
C1048 C 0.8059 0.29487 0.76938 0.0
C1049 C 0.81363 0.28492 0.79174 0.0
C1050 C 0.79684 0.23863 0.83074 0.0
C1051 C 0.82775 0.22071 0.89096 0.0
C1052 C 0.82276 0.23243 0.86714 0.0
C1053 C 0.80814 0.26247 0.79495 0.0
C1054 C 0.81336 0.25251 0.82006 0.0
H1055 H 0.84516 0.23058 0.95516 0.0
H1056 H 0.84001 0.25 0.91503 0.0
H1057 H 0.78842 0.218 0.86152 0.0
H1058 H 0.77799 0.25 0.73771 0.0
H1059 H 0.7921 0.23238 0.77609 0.0
C1060 C 0.28738 0.28988 0.51168 0.0
C1061 C 0.28623 0.29962 0.53788 0.0
C1062 C 0.26835 0.27834 0.50011 0.0
C1063 C 0.21723 0.24657 0.51595 0.0
H1064 H 0.19673 0.2575 0.44542 0.0
C1065 C 0.13749 0.20146 0.46611 0.0
C1066 C 0.1389 0.19534 0.4388 0.0
C1067 C 0.1546 0.21503 0.47891 0.0
C1068 C 0.20241 0.25401 0.46499 0.0
H1069 H 0.2642 0.30494 0.57248 0.0
H1070 H 0.23102 0.2844 0.55227 0.0
H1071 H 0.22828 0.27973 0.4663 0.0
H1072 H 0.15956 0.19792 0.40361 0.0
H1073 H 0.18971 0.22098 0.42593 0.0
H1074 H 0.19196 0.22037 0.51443 0.0
C1075 C 0.24667 0.28582 0.54075 0.0
C1076 C 0.2204 0.26684 0.47696 0.0
C1077 C 0.2656 0.29766 0.55223 0.0
C1078 C 0.15787 0.2027 0.42462 0.0
C1079 C 0.17508 0.21602 0.43742 0.0
C1080 C 0.19941 0.23353 0.50385 0.0
C1081 C 0.24789 0.27605 0.5146 0.0
C1082 C 0.22808 0.26314 0.50247 0.0
C1083 C 0.17359 0.22252 0.46469 0.0
C1084 C 0.1919 0.23696 0.47811 0.0
H1085 H 0.30299 0.29118 0.50008 0.0
H1086 H 0.2698 0.27082 0.47996 0.0
H1087 H 0.22301 0.24326 0.53556 0.0
H1088 H 0.12292 0.19612 0.47744 0.0
H1089 H 0.15272 0.21992 0.49985 0.0
C1090 C 0.21487 0.77564 0.03429 0.0
C1091 C 0.21643 0.79854 0.04273 0.0
C1092 C 0.23369 0.76439 0.02204 0.0
C1093 C 0.29726 0.76759 0.0135 0.0
H1094 H 0.28528 0.72433 0.95359 0.0
C1095 C 0.36971 0.72473 0.94729 0.0
C1096 C 0.36639 0.70198 0.93897 0.0
C1097 C 0.35222 0.73696 0.96113 0.0
C1098 C 0.2889 0.73618 0.97048 0.0
H1099 H 0.23906 0.82759 0.04476 0.0
H1100 H 0.27182 0.80795 0.02309 0.0
H1101 H 0.25311 0.74497 0.97489 0.0
H1102 H 0.34282 0.6739 0.94008 0.0
H1103 H 0.31245 0.69514 0.96418 0.0
H1104 H 0.33316 0.75875 0.00889 0.0
C1105 C 0.25612 0.79865 0.02631 0.0
C1106 C 0.27046 0.74801 0.98269 0.0
C1107 C 0.23728 0.80992 0.0386 0.0
C1108 C 0.34568 0.69152 0.94571 0.0
C1109 C 0.32827 0.70369 0.95948 0.0
C1110 C 0.31577 0.75574 0.00121 0.0
C1111 C 0.25452 0.77576 0.01784 0.0
C1112 C 0.27436 0.76372 0.00448 0.0
C1113 C 0.33112 0.72664 0.96689 0.0
C1114 C 0.31175 0.73975 0.97972 0.0
H1115 H 0.19913 0.76632 0.03722 0.0
H1116 H 0.23199 0.74668 0.01611 0.0
H1117 H 0.30083 0.77942 0.03041 0.0
H1118 H 0.38544 0.73326 0.94227 0.0
H1119 H 0.35488 0.75465 0.96648 0.0
loop_
_geom_bond_atom_site_label_1
_geom_bond_atom_site_label_2
_geom_bond_distance
_geom_bond_site_symmetry_2
_ccdc_geom_bond_type
Fe0 O2 1.918 . S
Fe0 O5 1.997 . S
Fe0 O6 2.002 . S
Fe0 O11 1.976 . S
Fe0 O14 1.996 . S
Fe1 O2 1.918 . S
Fe1 O9 1.997 . S
Fe1 O12 1.996 . S
Fe1 O16 1.976 . S
Fe1 O19 2.002 . S
O2 Fe0 1.918 . S
O2 Fe1 1.918 . S
O2 Fe3 1.918 . S
Fe3 O2 1.918 . S
Fe3 O4 2.002 . S
Fe3 O13 1.976 . S
Fe3 O17 1.996 . S
Fe3 O20 1.997 . S
O4 Fe3 2.002 . S
O4 C21 1.295 . S
O5 Fe0 1.997 . S
O5 C21 1.235 . S
O6 Fe0 2.002 . S
O6 C7 1.295 . S
C7 O6 1.295 . S
C7 O9 1.235 . S
C8 O13 1.287 . S
C8 O14 1.255 . S
O9 Fe1 1.997 . S
O9 C7 1.235 . S
C10 O16 1.287 . S
C10 O17 1.255 . S
O11 Fe0 1.976 . S
O11 C18 1.287 . S
O12 Fe1 1.996 . S
O12 C18 1.255 . S
O13 Fe3 1.976 . S
O13 C8 1.287 . S
O14 Fe0 1.996 . S
O14 C8 1.255 . S
C15 O19 1.295 . S
C15 O20 1.235 . S
O16 Fe1 1.976 . S
O16 C10 1.287 . S
O17 Fe3 1.996 . S
O17 C10 1.255 . S
C18 O11 1.287 . S
C18 O12 1.255 . S
O19 Fe1 2.002 . S
O19 C15 1.295 . S
O20 Fe3 1.997 . S
O20 C15 1.235 . S
C21 O4 1.295 . S
C21 O5 1.235 . S
Fe22 O24 1.918 . S
Fe22 O27 1.997 . S
Fe22 O28 2.002 . S
Fe22 O33 1.976 . S
Fe22 O36 1.996 . S
Fe23 O24 1.918 . S
Fe23 O31 1.997 . S
Fe23 O34 1.996 . S
Fe23 O38 1.976 . S
Fe23 O41 2.002 . S
O24 Fe22 1.918 . S
O24 Fe23 1.918 . S
O24 Fe25 1.918 . S
Fe25 O24 1.918 . S
Fe25 O26 2.002 . S
Fe25 O35 1.976 . S
Fe25 O39 1.996 . S
Fe25 O42 1.997 . S
O26 Fe25 2.002 . S
O26 C43 1.295 . S
O27 Fe22 1.997 . S
O27 C43 1.235 . S
O28 Fe22 2.002 . S
O28 C29 1.295 . S
C29 O28 1.295 . S
C29 O31 1.235 . S
C30 O35 1.287 . S
C30 O36 1.255 . S
O31 Fe23 1.997 . S
O31 C29 1.235 . S
C32 O38 1.287 . S
C32 O39 1.255 . S
O33 Fe22 1.976 . S
O33 C40 1.287 . S
O34 Fe23 1.996 . S
O34 C40 1.255 . S
O35 Fe25 1.976 . S
O35 C30 1.287 . S
O36 Fe22 1.996 . S
O36 C30 1.255 . S
C37 O41 1.295 . S
C37 O42 1.235 . S
O38 Fe23 1.976 . S
O38 C32 1.287 . S
O39 Fe25 1.996 . S
O39 C32 1.255 . S
C40 O33 1.287 . S
C40 O34 1.255 . S
O41 Fe23 2.002 . S
O41 C37 1.295 . S
O42 Fe25 1.997 . S
O42 C37 1.235 . S
C43 O26 1.295 . S
C43 O27 1.235 . S
Fe44 O46 1.918 . S
Fe44 O49 1.997 1_554 S
Fe44 O50 2.002 . S
Fe44 O55 1.976 . S
Fe44 O58 1.996 . S
Fe45 O46 1.918 . S
Fe45 O53 1.997 . S
Fe45 O56 1.996 . S
Fe45 O60 1.976 . S
Fe45 O63 2.002 1_554 S
O46 Fe44 1.918 . S
O46 Fe45 1.918 . S
O46 Fe47 1.918 1_554 S
Fe47 O46 1.918 1_556 S
Fe47 O48 2.002 . S
Fe47 O57 1.976 1_556 S
Fe47 O61 1.996 1_556 S
Fe47 O64 1.997 . S
O48 Fe47 2.002 . S
O48 C65 1.295 . S
O49 Fe44 1.997 1_556 S
O49 C65 1.235 . S
O50 Fe44 2.002 . S
O50 C51 1.295 1_554 S
C51 O50 1.295 1_556 S
C51 O53 1.235 1_556 S
C52 O57 1.287 . S
C52 O58 1.255 . S
O53 Fe45 1.997 . S
O53 C51 1.235 1_554 S
C54 O60 1.287 . S
C54 O61 1.255 . S
O55 Fe44 1.976 . S
O55 C62 1.287 . S
O56 Fe45 1.996 . S
O56 C62 1.255 . S
O57 Fe47 1.976 1_554 S
O57 C52 1.287 . S
O58 Fe44 1.996 . S
O58 C52 1.255 . S
C59 O63 1.295 . S
C59 O64 1.235 . S
O60 Fe45 1.976 . S
O60 C54 1.287 . S
O61 Fe47 1.996 1_554 S
O61 C54 1.255 . S
C62 O55 1.287 . S
C62 O56 1.255 . S
O63 Fe45 2.002 1_556 S
O63 C59 1.295 . S
O64 Fe47 1.997 . S
O64 C59 1.235 . S
C65 O48 1.295 . S
C65 O49 1.235 . S
Fe66 O68 1.918 . S
Fe66 O71 1.997 . S
Fe66 O72 2.002 . S
Fe66 O77 1.976 . S
Fe66 O80 1.996 . S
Fe67 O68 1.918 . S
Fe67 O75 1.997 . S
Fe67 O78 1.996 . S
Fe67 O82 1.976 . S
Fe67 O85 2.002 . S
O68 Fe66 1.918 . S
O68 Fe67 1.918 . S
O68 Fe69 1.918 . S
Fe69 O68 1.918 . S
Fe69 O70 2.002 . S
Fe69 O79 1.976 . S
Fe69 O83 1.996 . S
Fe69 O86 1.997 . S
O70 Fe69 2.002 . S
O70 C87 1.295 . S
O71 Fe66 1.997 . S
O71 C87 1.235 . S
O72 Fe66 2.002 . S
O72 C73 1.295 . S
C73 O72 1.295 . S
C73 O75 1.235 . S
C74 O79 1.287 . S
C74 O80 1.255 . S
O75 Fe67 1.997 . S
O75 C73 1.235 . S
C76 O82 1.287 . S
C76 O83 1.255 . S
O77 Fe66 1.976 . S
O77 C84 1.287 . S
O78 Fe67 1.996 . S
O78 C84 1.255 . S
O79 Fe69 1.976 . S
O79 C74 1.287 . S
O80 Fe66 1.996 . S
O80 C74 1.255 . S
C81 O85 1.295 . S
C81 O86 1.235 . S
O82 Fe67 1.976 . S
O82 C76 1.287 . S
O83 Fe69 1.996 . S
O83 C76 1.255 . S
C84 O77 1.287 . S
C84 O78 1.255 . S
O85 Fe67 2.002 . S
O85 C81 1.295 . S
O86 Fe69 1.997 . S
O86 C81 1.235 . S
C87 O70 1.295 . S
C87 O71 1.235 . S
C88 C89 1.386 1_455 S
C88 C90 1.397 . S
C88 H112 0.931 . S
C89 C88 1.386 1_655 S
C89 C93 1.397 . S
C90 C88 1.397 . S
C90 C91 1.384 . S
C90 H113 0.930 . S
C91 C90 1.384 . S
C91 C92 1.377 . S
C91 C94 1.481 . S
C92 C91 1.377 . S
C92 C93 1.389 1_455 S
C92 H114 0.929 . S
C93 C89 1.397 . S
C93 C92 1.389 1_655 S
C93 H115 0.931 . S
C94 C91 1.481 . S
C94 C95 1.387 . S
C94 C99 1.390 . S
C95 C94 1.387 . S
C95 C96 1.401 . S
C95 H116 0.930 . S
C96 C95 1.401 . S
C96 C97 1.376 . S
C96 C105 1.511 . S
C97 C96 1.376 . S
C97 C98 1.392 . S
C97 H118 0.931 . S
C98 C97 1.392 . S
C98 C99 1.361 . S
C98 C100 1.500 . S
C99 C94 1.390 . S
C99 C98 1.361 . S
C99 H117 0.931 . S
C100 C98 1.500 . S
C100 C101 1.371 . S
C100 C102 1.365 . S
C101 C100 1.371 . S
C101 C111 1.386 . S
C101 H119 0.931 . S
C102 C100 1.365 . S
C102 C103 1.409 . S
C102 H120 0.929 . S
C103 C102 1.409 . S
C103 C104 1.380 . S
C103 H121 0.930 . S
C104 C103 1.380 . S
C104 C111 1.357 . S
C105 C96 1.511 . S
C105 C106 1.341 . S
C105 C107 1.371 . S
C106 C105 1.341 . S
C106 C110 1.394 . S
C106 H122 0.930 . S
C107 C105 1.371 . S
C107 C108 1.392 . S
C107 H123 0.931 . S
C108 C107 1.392 . S
C108 C109 1.331 . S
C108 H126 0.932 . S
C109 C108 1.331 . S
C109 C110 1.336 . S
C110 C106 1.394 . S
C110 C109 1.336 . S
C110 H125 0.929 . S
C111 C101 1.386 . S
C111 C104 1.357 . S
C111 H124 0.928 . S
H112 C88 0.931 . S
H113 C90 0.930 . S
H114 C92 0.929 . S
H115 C93 0.931 . S
H116 C95 0.930 . S
H117 C99 0.931 . S
H118 C97 0.931 . S
H119 C101 0.931 . S
H120 C102 0.929 . S
H121 C103 0.930 . S
H122 C106 0.930 . S
H123 C107 0.931 . S
H124 C111 0.928 . S
H125 C110 0.929 . S
H126 C108 0.932 . S
C127 C128 1.386 . S
C127 C129 1.397 . S
C127 H151 0.931 . S
C128 C127 1.386 . S
C128 C132 1.397 . S
C129 C127 1.397 . S
C129 C130 1.384 . S
C129 H152 0.930 . S
C130 C129 1.384 . S
C130 C131 1.377 . S
C130 C133 1.481 . S
C131 C130 1.377 . S
C131 C132 1.389 . S
C131 H153 0.929 . S
C132 C128 1.397 . S
C132 C131 1.389 . S
C132 H154 0.931 . S
C133 C130 1.481 . S
C133 C134 1.387 . S
C133 C138 1.390 . S
C134 C133 1.387 . S
C134 C135 1.401 . S
C134 H155 0.930 . S
C135 C134 1.401 . S
C135 C136 1.376 . S
C135 C144 1.511 . S
C136 C135 1.376 . S
C136 C137 1.392 . S
C136 H157 0.931 . S
C137 C136 1.392 . S
C137 C138 1.361 . S
C137 C139 1.500 . S
C138 C133 1.390 . S
C138 C137 1.361 . S
C138 H156 0.931 . S
C139 C137 1.500 . S
C139 C140 1.371 . S
C139 C141 1.365 . S
C140 C139 1.371 . S
C140 C150 1.386 . S
C140 H158 0.931 . S
C141 C139 1.365 . S
C141 C142 1.409 . S
C141 H159 0.929 . S
C142 C141 1.409 . S
C142 C143 1.380 . S
C142 H160 0.930 . S
C143 C142 1.380 . S
C143 C150 1.357 . S
C144 C135 1.511 . S
C144 C145 1.341 . S
C144 C146 1.371 . S
C145 C144 1.341 . S
C145 C149 1.394 . S
C145 H161 0.930 . S
C146 C144 1.371 . S
C146 C147 1.392 . S
C146 H162 0.931 . S
C147 C146 1.392 . S
C147 C148 1.331 . S
C147 H165 0.932 . S
C148 C147 1.331 . S
C148 C149 1.336 . S
C149 C145 1.394 . S
C149 C148 1.336 . S
C149 H164 0.929 . S
C150 C140 1.386 . S
C150 C143 1.357 . S
C150 H163 0.928 . S
H151 C127 0.931 . S
H152 C129 0.930 . S
H153 C131 0.929 . S
H154 C132 0.931 . S
H155 C134 0.930 . S
H156 C138 0.931 . S
H157 C136 0.931 . S
H158 C140 0.931 . S
H159 C141 0.929 . S
H160 C142 0.930 . S
H161 C145 0.930 . S
H162 C146 0.931 . S
H163 C150 0.928 . S
H164 C149 0.929 . S
H165 C147 0.932 . S
C166 C167 1.386 . S
C166 C168 1.397 . S
C166 H190 0.931 . S
C167 C166 1.386 . S
C167 C171 1.397 . S
C168 C166 1.397 . S
C168 C169 1.384 . S
C168 H191 0.930 . S
C169 C168 1.384 . S
C169 C170 1.377 . S
C169 C172 1.481 . S
C170 C169 1.377 . S
C170 C171 1.389 . S
C170 H192 0.929 . S
C171 C167 1.397 . S
C171 C170 1.389 . S
C171 H193 0.931 . S
C172 C169 1.481 . S
C172 C173 1.387 . S
C172 C177 1.390 . S
C173 C172 1.387 . S
C173 C174 1.401 . S
C173 H194 0.930 . S
C174 C173 1.401 . S
C174 C175 1.376 . S
C174 C183 1.511 . S
C175 C174 1.376 . S
C175 C176 1.392 . S
C175 H196 0.931 . S
C176 C175 1.392 . S
C176 C177 1.361 . S
C176 C178 1.500 . S
C177 C172 1.390 . S
C177 C176 1.361 . S
C177 H195 0.931 . S
C178 C176 1.500 . S
C178 C179 1.371 . S
C178 C180 1.365 . S
C179 C178 1.371 . S
C179 C189 1.386 . S
C179 H197 0.931 . S
C180 C178 1.365 . S
C180 C181 1.409 . S
C180 H198 0.929 . S
C181 C180 1.409 . S
C181 C182 1.380 . S
C181 H199 0.930 . S
C182 C181 1.380 . S
C182 C189 1.357 . S
C183 C174 1.511 . S
C183 C184 1.341 . S
C183 C185 1.371 . S
C184 C183 1.341 . S
C184 C188 1.394 . S
C184 H200 0.930 . S
C185 C183 1.371 . S
C185 C186 1.392 . S
C185 H201 0.931 . S
C186 C185 1.392 . S
C186 C187 1.331 . S
C186 H204 0.932 . S
C187 C186 1.331 . S
C187 C188 1.336 . S
C188 C184 1.394 . S
C188 C187 1.336 . S
C188 H203 0.929 . S
C189 C179 1.386 . S
C189 C182 1.357 . S
C189 H202 0.928 . S
H190 C166 0.931 . S
H191 C168 0.930 . S
H192 C170 0.929 . S
H193 C171 0.931 . S
H194 C173 0.930 . S
H195 C177 0.931 . S
H196 C175 0.931 . S
H197 C179 0.931 . S
H198 C180 0.929 . S
H199 C181 0.930 . S
H200 C184 0.930 . S
H201 C185 0.931 . S
H202 C189 0.928 . S
H203 C188 0.929 . S
H204 C186 0.932 . S
C205 C206 1.386 . S
C205 C207 1.397 . S
C205 H229 0.931 . S
C206 C205 1.386 . S
C206 C210 1.397 . S
C207 C205 1.397 . S
C207 C208 1.384 . S
C207 H230 0.930 . S
C208 C207 1.384 . S
C208 C209 1.377 . S
C208 C211 1.481 . S
C209 C208 1.377 . S
C209 C210 1.389 . S
C209 H231 0.929 . S
C210 C206 1.397 . S
C210 C209 1.389 . S
C210 H232 0.931 . S
C211 C208 1.481 . S
C211 C212 1.387 . S
C211 C216 1.390 . S
C212 C211 1.387 . S
C212 C213 1.401 . S
C212 H233 0.930 . S
C213 C212 1.401 . S
C213 C214 1.376 . S
C213 C222 1.511 . S
C214 C213 1.376 . S
C214 C215 1.392 . S
C214 H235 0.931 . S
C215 C214 1.392 . S
C215 C216 1.361 . S
C215 C217 1.500 . S
C216 C211 1.390 . S
C216 C215 1.361 . S
C216 H234 0.931 . S
C217 C215 1.500 . S
C217 C218 1.371 . S
C217 C219 1.365 . S
C218 C217 1.371 . S
C218 C228 1.386 . S
C218 H236 0.931 . S
C219 C217 1.365 . S
C219 C220 1.409 . S
C219 H237 0.929 . S
C220 C219 1.409 . S
C220 C221 1.380 . S
C220 H238 0.930 . S
C221 C220 1.380 . S
C221 C228 1.357 . S
C222 C213 1.511 . S
C222 C223 1.341 . S
C222 C224 1.371 . S
C223 C222 1.341 . S
C223 C227 1.394 . S
C223 H239 0.930 . S
C224 C222 1.371 . S
C224 C225 1.392 . S
C224 H240 0.931 . S
C225 C224 1.392 . S
C225 C226 1.331 . S
C225 H243 0.932 . S
C226 C225 1.331 . S
C226 C227 1.336 . S
C227 C223 1.394 . S
C227 C226 1.336 . S
C227 H242 0.929 . S
C228 C218 1.386 . S
C228 C221 1.357 . S
C228 H241 0.928 . S
H229 C205 0.931 . S
H230 C207 0.930 . S
H231 C209 0.929 . S
H232 C210 0.931 . S
H233 C212 0.930 . S
H234 C216 0.931 . S
H235 C214 0.931 . S
H236 C218 0.931 . S
H237 C219 0.929 . S
H238 C220 0.930 . S
H239 C223 0.930 . S
H240 C224 0.931 . S
H241 C228 0.928 . S
H242 C227 0.929 . S
H243 C225 0.932 . S
C244 C245 1.386 . S
C244 C246 1.397 . S
C244 H268 0.931 . S
C245 C244 1.386 . S
C245 C249 1.397 . S
C246 C244 1.397 . S
C246 C247 1.384 . S
C246 H269 0.930 . S
C247 C246 1.384 . S
C247 C248 1.377 . S
C247 C250 1.481 . S
C248 C247 1.377 . S
C248 C249 1.389 . S
C248 H270 0.929 . S
C249 C245 1.397 . S
C249 C248 1.389 . S
C249 H271 0.931 . S
C250 C247 1.481 . S
C250 C251 1.387 . S
C250 C255 1.390 . S
C251 C250 1.387 . S
C251 C252 1.401 . S
C251 H272 0.930 . S
C252 C251 1.401 . S
C252 C253 1.376 . S
C252 C261 1.511 . S
C253 C252 1.376 . S
C253 C254 1.392 . S
C253 H274 0.931 . S
C254 C253 1.392 . S
C254 C255 1.361 . S
C254 C256 1.500 . S
C255 C250 1.390 . S
C255 C254 1.361 . S
C255 H273 0.931 . S
C256 C254 1.500 . S
C256 C257 1.371 . S
C256 C258 1.365 . S
C257 C256 1.371 . S
C257 C267 1.386 . S
C257 H275 0.931 . S
C258 C256 1.365 . S
C258 C259 1.409 . S
C258 H276 0.929 . S
C259 C258 1.409 . S
C259 C260 1.380 . S
C259 H277 0.930 . S
C260 C259 1.380 . S
C260 C267 1.357 . S
C261 C252 1.511 . S
C261 C262 1.341 . S
C261 C263 1.371 . S
C262 C261 1.341 . S
C262 C266 1.394 . S
C262 H278 0.930 . S
C263 C261 1.371 . S
C263 C264 1.392 . S
C263 H279 0.931 . S
C264 C263 1.392 . S
C264 C265 1.331 . S
C264 H282 0.932 . S
C265 C264 1.331 . S
C265 C266 1.336 . S
C266 C262 1.394 . S
C266 C265 1.336 . S
C266 H281 0.929 . S
C267 C257 1.386 . S
C267 C260 1.357 . S
C267 H280 0.928 . S
H268 C244 0.931 . S
H269 C246 0.930 . S
H270 C248 0.929 . S
H271 C249 0.931 . S
H272 C251 0.930 . S
H273 C255 0.931 . S
H274 C253 0.931 . S
H275 C257 0.931 . S
H276 C258 0.929 . S
H277 C259 0.930 . S
H278 C262 0.930 . S
H279 C263 0.931 . S
H280 C267 0.928 . S
H281 C266 0.929 . S
H282 C264 0.932 . S
C283 C284 1.386 . S
C283 C285 1.397 . S
C283 H307 0.931 . S
C284 C283 1.386 . S
C284 C288 1.397 . S
C285 C283 1.397 . S
C285 C286 1.384 . S
C285 H308 0.930 . S
C286 C285 1.384 . S
C286 C287 1.377 . S
C286 C289 1.481 . S
C287 C286 1.377 . S
C287 C288 1.389 . S
C287 H309 0.929 . S
C288 C284 1.397 . S
C288 C287 1.389 . S
C288 H310 0.931 . S
C289 C286 1.481 . S
C289 C290 1.387 . S
C289 C294 1.390 . S
C290 C289 1.387 . S
C290 C291 1.401 . S
C290 H311 0.930 . S
C291 C290 1.401 . S
C291 C292 1.376 . S
C291 C300 1.511 . S
C292 C291 1.376 . S
C292 C293 1.392 . S
C292 H313 0.931 . S
C293 C292 1.392 . S
C293 C294 1.361 . S
C293 C295 1.500 . S
C294 C289 1.390 . S
C294 C293 1.361 . S
C294 H312 0.931 . S
C295 C293 1.500 . S
C295 C296 1.371 . S
C295 C297 1.365 . S
C296 C295 1.371 . S
C296 C306 1.386 . S
C296 H314 0.931 . S
C297 C295 1.365 . S
C297 C298 1.409 . S
C297 H315 0.929 . S
C298 C297 1.409 . S
C298 C299 1.380 . S
C298 H316 0.930 . S
C299 C298 1.380 . S
C299 C306 1.357 . S
C300 C291 1.511 . S
C300 C301 1.341 . S
C300 C302 1.371 . S
C301 C300 1.341 . S
C301 C305 1.394 . S
C301 H317 0.930 . S
C302 C300 1.371 . S
C302 C303 1.392 . S
C302 H318 0.931 . S
C303 C302 1.392 . S
C303 C304 1.331 . S
C303 H321 0.932 . S
C304 C303 1.331 . S
C304 C305 1.336 . S
C305 C301 1.394 . S
C305 C304 1.336 . S
C305 H320 0.929 . S
C306 C296 1.386 . S
C306 C299 1.357 . S
C306 H319 0.928 . S
H307 C283 0.931 . S
H308 C285 0.930 . S
H309 C287 0.929 . S
H310 C288 0.931 . S
H311 C290 0.930 . S
H312 C294 0.931 . S
H313 C292 0.931 . S
H314 C296 0.931 . S
H315 C297 0.929 . S
H316 C298 0.930 . S
H317 C301 0.930 . S
H318 C302 0.931 . S
H319 C306 0.928 . S
H320 C305 0.929 . S
H321 C303 0.932 . S
C322 C323 1.386 . S
C322 C324 1.397 . S
C322 H346 0.931 . S
C323 C322 1.386 . S
C323 C327 1.397 . S
C324 C322 1.397 . S
C324 C325 1.384 . S
C324 H347 0.930 . S
C325 C324 1.384 . S
C325 C326 1.377 . S
C325 C328 1.481 . S
C326 C325 1.377 . S
C326 C327 1.389 . S
C326 H348 0.929 . S
C327 C323 1.397 . S
C327 C326 1.389 . S
C327 H349 0.931 . S
C328 C325 1.481 . S
C328 C329 1.387 . S
C328 C333 1.390 . S
C329 C328 1.387 . S
C329 C330 1.401 . S
C329 H350 0.930 . S
C330 C329 1.401 . S
C330 C331 1.376 . S
C330 C339 1.511 . S
C331 C330 1.376 . S
C331 C332 1.392 . S
C331 H352 0.931 . S
C332 C331 1.392 . S
C332 C333 1.361 . S
C332 C334 1.500 . S
C333 C328 1.390 . S
C333 C332 1.361 . S
C333 H351 0.931 . S
C334 C332 1.500 . S
C334 C335 1.371 . S
C334 C336 1.365 . S
C335 C334 1.371 . S
C335 C345 1.386 . S
C335 H353 0.931 . S
C336 C334 1.365 . S
C336 C337 1.409 . S
C336 H354 0.929 . S
C337 C336 1.409 . S
C337 C338 1.380 . S
C337 H355 0.930 . S
C338 C337 1.380 . S
C338 C345 1.357 . S
C339 C330 1.511 . S
C339 C340 1.341 . S
C339 C341 1.371 . S
C340 C339 1.341 . S
C340 C344 1.394 . S
C340 H356 0.930 . S
C341 C339 1.371 . S
C341 C342 1.392 . S
C341 H357 0.931 . S
C342 C341 1.392 . S
C342 C343 1.331 . S
C342 H360 0.932 . S
C343 C342 1.331 . S
C343 C344 1.336 . S
C344 C340 1.394 . S
C344 C343 1.336 . S
C344 H359 0.929 . S
C345 C335 1.386 . S
C345 C338 1.357 . S
C345 H358 0.928 . S
H346 C322 0.931 . S
H347 C324 0.930 . S
H348 C326 0.929 . S
H349 C327 0.931 . S
H350 C329 0.930 . S
H351 C333 0.931 . S
H352 C331 0.931 . S
H353 C335 0.931 . S
H354 C336 0.929 . S
H355 C337 0.930 . S
H356 C340 0.930 . S
H357 C341 0.931 . S
H358 C345 0.928 . S
H359 C344 0.929 . S
H360 C342 0.932 . S
C361 C362 1.386 . S
C361 C363 1.397 1_455 S
C361 H385 0.931 . S
C362 C361 1.386 . S
C362 C366 1.397 1_455 S
C363 C361 1.397 1_655 S
C363 C364 1.384 . S
C363 H386 0.930 . S
C364 C363 1.384 . S
C364 C365 1.377 . S
C364 C367 1.481 . S
C365 C364 1.377 . S
C365 C366 1.389 . S
C365 H387 0.929 . S
C366 C362 1.397 1_655 S
C366 C365 1.389 . S
C366 H388 0.931 . S
C367 C364 1.481 . S
C367 C368 1.387 . S
C367 C372 1.390 . S
C368 C367 1.387 . S
C368 C369 1.401 . S
C368 H389 0.930 . S
C369 C368 1.401 . S
C369 C370 1.376 . S
C369 C378 1.511 . S
C370 C369 1.376 . S
C370 C371 1.392 . S
C370 H391 0.931 . S
C371 C370 1.392 . S
C371 C372 1.361 . S
C371 C373 1.500 . S
C372 C367 1.390 . S
C372 C371 1.361 . S
C372 H390 0.931 . S
C373 C371 1.500 . S
C373 C374 1.371 . S
C373 C375 1.365 . S
C374 C373 1.371 . S
C374 C384 1.386 . S
C374 H392 0.931 . S
C375 C373 1.365 . S
C375 C376 1.409 . S
C375 H393 0.929 . S
C376 C375 1.409 . S
C376 C377 1.380 . S
C376 H394 0.930 . S
C377 C376 1.380 . S
C377 C384 1.357 . S
C378 C369 1.511 . S
C378 C379 1.341 . S
C378 C380 1.371 . S
C379 C378 1.341 . S
C379 C383 1.394 . S
C379 H395 0.930 . S
C380 C378 1.371 . S
C380 C381 1.392 . S
C380 H396 0.931 . S
C381 C380 1.392 . S
C381 C382 1.331 . S
C381 H399 0.932 . S
C382 C381 1.331 . S
C382 C383 1.336 . S
C383 C379 1.394 . S
C383 C382 1.336 . S
C383 H398 0.929 . S
C384 C374 1.386 . S
C384 C377 1.357 . S
C384 H397 0.928 . S
H385 C361 0.931 . S
H386 C363 0.930 . S
H387 C365 0.929 . S
H388 C366 0.931 . S
H389 C368 0.930 . S
H390 C372 0.931 . S
H391 C370 0.931 . S
H392 C374 0.931 . S
H393 C375 0.929 . S
H394 C376 0.930 . S
H395 C379 0.930 . S
H396 C380 0.931 . S
H397 C384 0.928 . S
H398 C383 0.929 . S
H399 C381 0.932 . S
C400 C401 1.349 . S
C400 C402 1.327 . S
C400 H425 0.950 . S
C401 C400 1.349 . S
C401 C417 1.349 . S
C402 C400 1.327 . S
C402 C421 1.429 . S
C402 H426 0.950 . S
C403 C420 1.574 . S
C403 C422 1.368 . S
C403 H427 0.949 . S
H404 C408 0.949 . S
C405 C406 1.349 . S
C405 C407 1.327 . S
C405 H428 0.950 . S
C406 C405 1.349 . S
C406 C418 1.349 . S
C407 C405 1.327 . S
C407 C423 1.429 1_545 S
C407 H429 0.950 1_545 S
C408 H404 0.949 . S
C408 C416 1.574 . S
C408 C424 1.368 . S
H409 C417 0.950 . S
H410 C415 0.950 . S
H411 C416 0.949 . S
H412 C418 0.950 . S
H413 C419 0.945 1_565 S
H414 C420 0.949 . S
C415 H410 0.950 . S
C415 C417 1.327 . S
C415 C421 1.429 . S
C416 C408 1.574 . S
C416 H411 0.949 . S
C416 C422 1.368 . S
C417 C401 1.349 . S
C417 H409 0.950 . S
C417 C415 1.327 . S
C418 C406 1.349 . S
C418 H412 0.950 . S
C418 C419 1.337 . S
C419 H413 0.945 1_545 S
C419 C418 1.337 . S
C419 C423 1.423 1_545 S
C420 C403 1.574 . S
C420 H414 0.949 . S
C420 C424 1.368 . S
C421 C402 1.429 . S
C421 C415 1.429 . S
C421 C422 1.523 . S
C422 C403 1.368 . S
C422 C416 1.368 . S
C422 C421 1.523 . S
C423 C407 1.429 1_565 S
C423 C419 1.423 1_565 S
C423 C424 1.523 . S
C424 C408 1.368 . S
C424 C420 1.368 . S
C424 C423 1.523 . S
H425 C400 0.950 . S
H426 C402 0.950 . S
H427 C403 0.949 . S
H428 C405 0.950 . S
H429 C407 0.950 1_565 S
C430 C431 1.349 . S
C430 C432 1.327 . S
C430 H455 0.950 . S
C431 C430 1.349 . S
C431 C447 1.349 . S
C432 C430 1.327 . S
C432 C451 1.429 . S
C432 H456 0.950 . S
C433 C450 1.574 . S
C433 C452 1.368 . S
C433 H457 0.949 . S
H434 C438 0.949 . S
C435 C436 1.349 . S
C435 C437 1.327 . S
C435 H458 0.950 . S
C436 C435 1.349 . S
C436 C448 1.349 . S
C437 C435 1.327 . S
C437 C453 1.429 . S
C437 H459 0.950 . S
C438 H434 0.949 . S
C438 C446 1.574 . S
C438 C454 1.368 . S
H439 C447 0.950 . S
H440 C445 0.950 . S
H441 C446 0.949 . S
H442 C448 0.950 . S
H443 C449 0.950 . S
H444 C450 0.949 . S
C445 H440 0.950 . S
C445 C447 1.327 . S
C445 C451 1.429 . S
C446 C438 1.574 . S
C446 H441 0.949 . S
C446 C452 1.368 . S
C447 C431 1.349 . S
C447 H439 0.950 . S
C447 C445 1.327 . S
C448 C436 1.349 . S
C448 H442 0.950 . S
C448 C449 1.327 . S
C449 H443 0.950 . S
C449 C448 1.327 . S
C449 C453 1.429 . S
C450 C433 1.574 . S
C450 H444 0.949 . S
C450 C454 1.368 . S
C451 C432 1.429 . S
C451 C445 1.429 . S
C451 C452 1.523 . S
C452 C433 1.368 . S
C452 C446 1.368 . S
C452 C451 1.523 . S
C453 C437 1.429 . S
C453 C449 1.429 . S
C453 C454 1.523 . S
C454 C438 1.368 . S
C454 C450 1.368 . S
C454 C453 1.523 . S
H455 C430 0.950 . S
H456 C432 0.950 . S
H457 C433 0.949 . S
H458 C435 0.950 . S
H459 C437 0.950 . S
C460 C461 1.349 . S
C460 C462 1.327 . S
C460 H485 0.950 . S
C461 C460 1.349 . S
C461 C477 1.349 . S
C462 C460 1.327 . S
C462 C481 1.429 . S
C462 H486 0.950 . S
C463 C480 1.574 1_545 S
C463 C482 1.368 . S
C463 H487 0.949 . S
H464 C468 0.949 . S
C465 C466 1.349 . S
C465 C467 1.327 . S
C465 H488 0.950 . S
C466 C465 1.349 . S
C466 C478 1.349 . S
C467 C465 1.327 . S
C467 C483 1.429 . S
C467 H489 0.950 . S
C468 H464 0.949 . S
C468 C476 1.574 . S
C468 C484 1.368 1_545 S
H469 C477 0.950 . S
H470 C475 0.950 . S
H471 C476 0.949 . S
H472 C478 0.950 . S
H473 C479 0.950 . S
H474 C480 0.949 . S
C475 H470 0.950 . S
C475 C477 1.327 . S
C475 C481 1.429 . S
C476 C468 1.574 . S
C476 H471 0.949 . S
C476 C482 1.368 . S
C477 C461 1.349 . S
C477 H469 0.950 . S
C477 C475 1.327 . S
C478 C466 1.349 . S
C478 H472 0.950 . S
C478 C479 1.327 . S
C479 H473 0.950 . S
C479 C478 1.327 . S
C479 C483 1.429 . S
C480 C463 1.574 1_565 S
C480 H474 0.949 . S
C480 C484 1.368 . S
C481 C462 1.429 . S
C481 C475 1.429 . S
C481 C482 1.523 . S
C482 C463 1.368 . S
C482 C476 1.368 . S
C482 C481 1.523 . S
C483 C467 1.429 . S
C483 C479 1.429 . S
C483 C484 1.523 . S
C484 C468 1.368 1_565 S
C484 C480 1.368 . S
C484 C483 1.523 . S
H485 C460 0.950 . S
H486 C462 0.950 . S
H487 C463 0.949 . S
H488 C465 0.950 . S
H489 C467 0.950 . S
C490 C491 1.349 . S
C490 C492 1.327 . S
C490 H515 0.950 . S
C491 C490 1.349 . S
C491 C507 1.349 . S
C492 C490 1.327 . S
C492 C511 1.429 . S
C492 H516 0.950 . S
C493 C510 1.574 . S
C493 C512 1.368 . S
C493 H517 0.949 . S
H494 C498 0.949 . S
C495 C496 1.349 . S
C495 C497 1.327 . S
C495 H518 0.950 . S
C496 C495 1.349 . S
C496 C508 1.349 . S
C497 C495 1.327 . S
C497 C513 1.429 . S
C497 H519 0.950 . S
C498 H494 0.949 . S
C498 C506 1.574 . S
C498 C514 1.368 . S
H499 C507 0.950 . S
H500 C505 0.950 . S
H501 C506 0.949 . S
H502 C508 0.950 . S
H503 C509 0.950 . S
H504 C510 0.949 . S
C505 H500 0.950 . S
C505 C507 1.327 . S
C505 C511 1.429 . S
C506 C498 1.574 . S
C506 H501 0.949 . S
C506 C512 1.368 . S
C507 C491 1.349 . S
C507 H499 0.950 . S
C507 C505 1.327 . S
C508 C496 1.349 . S
C508 H502 0.950 . S
C508 C509 1.327 . S
C509 H503 0.950 . S
C509 C508 1.327 . S
C509 C513 1.429 . S
C510 C493 1.574 . S
C510 H504 0.949 . S
C510 C514 1.368 . S
C511 C492 1.429 . S
C511 C505 1.429 . S
C511 C512 1.523 . S
C512 C493 1.368 . S
C512 C506 1.368 . S
C512 C511 1.523 . S
C513 C497 1.429 . S
C513 C509 1.429 . S
C513 C514 1.523 . S
C514 C498 1.368 . S
C514 C510 1.368 . S
C514 C513 1.523 . S
H515 C490 0.950 . S
H516 C492 0.950 . S
H517 C493 0.949 . S
H518 C495 0.950 . S
H519 C497 0.950 . S
C520 C521 1.349 . S
C520 C522 1.327 . S
C520 H545 0.950 . S
C521 C520 1.349 . S
C521 C537 1.349 . S
C522 C520 1.327 . S
C522 C541 1.429 . S
C522 H546 0.950 . S
C523 C540 1.574 . S
C523 C542 1.368 . S
C523 H547 0.949 . S
H524 C528 0.949 . S
C525 C526 1.349 . S
C525 C527 1.327 . S
C525 H548 0.950 . S
C526 C525 1.349 . S
C526 C538 1.349 . S
C527 C525 1.327 . S
C527 C543 1.429 . S
C527 H549 0.950 . S
C528 H524 0.949 . S
C528 C536 1.574 . S
C528 C544 1.368 . S
H529 C537 0.950 . S
H530 C535 0.950 . S
H531 C536 0.949 . S
H532 C538 0.950 . S
H533 C539 0.950 . S
H534 C540 0.949 . S
C535 H530 0.950 . S
C535 C537 1.327 . S
C535 C541 1.429 . S
C536 C528 1.574 . S
C536 H531 0.949 . S
C536 C542 1.368 . S
C537 C521 1.349 . S
C537 H529 0.950 . S
C537 C535 1.327 . S
C538 C526 1.349 . S
C538 H532 0.950 . S
C538 C539 1.327 . S
C539 H533 0.950 . S
C539 C538 1.327 . S
C539 C543 1.429 . S
C540 C523 1.574 . S
C540 H534 0.949 . S
C540 C544 1.368 . S
C541 C522 1.429 . S
C541 C535 1.429 . S
C541 C542 1.523 . S
C542 C523 1.368 . S
C542 C536 1.368 . S
C542 C541 1.523 . S
C543 C527 1.429 . S
C543 C539 1.429 . S
C543 C544 1.523 . S
C544 C528 1.368 . S
C544 C540 1.368 . S
C544 C543 1.523 . S
H545 C520 0.950 . S
H546 C522 0.950 . S
H547 C523 0.949 . S
H548 C525 0.950 . S
H549 C527 0.950 . S
C550 C551 1.349 . S
C550 C552 1.327 . S
C550 H575 0.950 . S
C551 C550 1.349 . S
C551 C567 1.349 . S
C552 C550 1.327 . S
C552 C571 1.429 . S
C552 H576 0.950 . S
C553 C570 1.574 . S
C553 C572 1.368 1_455 S
C553 H577 0.949 1_455 S
H554 C558 0.949 . S
C555 C556 1.349 . S
C555 C557 1.327 . S
C555 H578 0.950 . S
C556 C555 1.349 . S
C556 C568 1.349 . S
C557 C555 1.327 . S
C557 C573 1.429 . S
C557 H579 0.950 . S
C558 H554 0.949 . S
C558 C566 1.574 . S
C558 C574 1.368 . S
H559 C567 0.950 . S
H560 C565 0.950 . S
H561 C566 0.961 . S
H562 C568 0.950 . S
H563 C569 0.950 . S
H564 C570 0.949 . S
C565 H560 0.950 . S
C565 C567 1.327 . S
C565 C571 1.429 . S
C566 C558 1.574 . S
C566 H561 0.961 . S
C566 C572 1.368 1_455 S
C567 C551 1.349 . S
C567 H559 0.950 . S
C567 C565 1.327 . S
C568 C556 1.349 . S
C568 H562 0.950 . S
C568 C569 1.327 . S
C569 H563 0.950 . S
C569 C568 1.327 . S
C569 C573 1.429 . S
C570 C553 1.574 . S
C570 H564 0.949 . S
C570 C574 1.368 . S
C571 C552 1.429 . S
C571 C565 1.429 . S
C571 C572 1.523 . S
C572 C553 1.368 1_655 S
C572 C566 1.368 1_655 S
C572 C571 1.523 . S
C573 C557 1.429 . S
C573 C569 1.429 . S
C573 C574 1.523 . S
C574 C558 1.368 . S
C574 C570 1.368 . S
C574 C573 1.523 . S
H575 C550 0.950 . S
H576 C552 0.950 . S
H577 C553 0.949 1_655 S
H578 C555 0.950 . S
H579 C557 0.950 . S
C580 C581 1.349 . S
C580 C582 1.327 . S
C580 H605 0.950 . S
C581 C580 1.349 . S
C581 C597 1.349 . S
C582 C580 1.327 . S
C582 C601 1.429 . S
C582 H606 0.950 . S
C583 C600 1.574 . S
C583 C602 1.368 . S
C583 H607 0.949 . S
H584 C588 0.949 . S
C585 C586 1.349 . S
C585 C587 1.327 . S
C585 H608 0.950 . S
C586 C585 1.349 . S
C586 C598 1.349 . S
C587 C585 1.327 . S
C587 C603 1.429 . S
C587 H609 0.950 . S
C588 H584 0.949 . S
C588 C596 1.574 . S
C588 C604 1.368 . S
H589 C597 0.950 . S
H590 C595 0.950 . S
H591 C596 0.949 . S
H592 C598 0.950 . S
H593 C599 0.950 . S
H594 C600 0.949 . S
C595 H590 0.950 . S
C595 C597 1.327 . S
C595 C601 1.429 . S
C596 C588 1.574 . S
C596 H591 0.949 . S
C596 C602 1.368 . S
C597 C581 1.349 . S
C597 H589 0.950 . S
C597 C595 1.327 . S
C598 C586 1.349 . S
C598 H592 0.950 . S
C598 C599 1.327 . S
C599 H593 0.950 . S
C599 C598 1.327 . S
C599 C603 1.429 . S
C600 C583 1.574 . S
C600 H594 0.949 . S
C600 C604 1.368 . S
C601 C582 1.429 . S
C601 C595 1.429 . S
C601 C602 1.523 . S
C602 C583 1.368 . S
C602 C596 1.368 . S
C602 C601 1.523 . S
C603 C587 1.429 . S
C603 C599 1.429 . S
C603 C604 1.523 . S
C604 C588 1.368 . S
C604 C600 1.368 . S
C604 C603 1.523 . S
H605 C580 0.950 . S
H606 C582 0.950 . S
H607 C583 0.949 . S
H608 C585 0.950 . S
H609 C587 0.950 . S
C610 C611 1.349 . S
C610 C612 1.327 . S
C610 H635 0.950 . S
C611 C610 1.349 . S
C611 C627 1.349 . S
C612 C610 1.327 . S
C612 C631 1.429 . S
C612 H636 0.950 . S
C613 C630 1.574 . S
C613 C632 1.368 . S
C613 H637 0.949 . S
H614 C618 0.949 . S
C615 C616 1.349 . S
C615 C617 1.327 . S
C615 H638 0.950 . S
C616 C615 1.349 . S
C616 C628 1.349 . S
C617 C615 1.327 . S
C617 C633 1.429 . S
C617 H639 0.950 . S
C618 H614 0.949 . S
C618 C626 1.574 . S
C618 C634 1.368 . S
H619 C627 0.950 . S
H620 C625 0.950 . S
H621 C626 0.949 . S
H622 C628 0.950 1_655 S
H623 C629 0.950 . S
H624 C630 0.949 . S
C625 H620 0.950 . S
C625 C627 1.327 . S
C625 C631 1.429 . S
C626 C618 1.574 . S
C626 H621 0.949 . S
C626 C632 1.368 . S
C627 C611 1.349 . S
C627 H619 0.950 . S
C627 C625 1.327 . S
C628 C616 1.349 . S
C628 H622 0.950 1_455 S
C628 C629 1.327 . S
C629 H623 0.950 . S
C629 C628 1.327 . S
C629 C633 1.429 . S
C630 C613 1.574 . S
C630 H624 0.949 . S
C630 C634 1.368 . S
C631 C612 1.429 . S
C631 C625 1.429 . S
C631 C632 1.523 . S
C632 C613 1.368 . S
C632 C626 1.368 . S
C632 C631 1.523 . S
C633 C617 1.429 . S
C633 C629 1.429 . S
C633 C634 1.523 . S
C634 C618 1.368 . S
C634 C630 1.368 . S
C634 C633 1.523 . S
H635 C610 0.950 . S
H636 C612 0.950 . S
H637 C613 0.949 . S
H638 C615 0.950 . S
H639 C617 0.950 . S
C640 C641 1.349 . S
C640 C642 1.327 . S
C640 H665 0.950 . S
C641 C640 1.349 . S
C641 C657 1.349 . S
C642 C640 1.327 . S
C642 C661 1.429 . S
C642 H666 0.950 . S
C643 C660 1.574 . S
C643 C662 1.368 . S
C643 H667 0.949 . S
H644 C648 0.949 . S
C645 C646 1.349 . S
C645 C647 1.327 1_565 S
C645 H668 0.950 . S
C646 C645 1.349 . S
C646 C658 1.349 . S
C647 C645 1.327 1_545 S
C647 C663 1.429 . S
C647 H669 0.950 . S
C648 H644 0.949 . S
C648 C656 1.574 . S
C648 C664 1.368 . S
H649 C657 0.950 . S
H650 C655 0.950 . S
H651 C656 0.949 . S
H652 C658 0.950 . S
H653 C659 0.950 . S
H654 C660 0.949 . S
C655 H650 0.950 . S
C655 C657 1.327 . S
C655 C661 1.429 . S
C656 C648 1.574 . S
C656 H651 0.949 . S
C656 C662 1.368 . S
C657 C641 1.349 . S
C657 H649 0.950 . S
C657 C655 1.327 . S
C658 C646 1.349 . S
C658 H652 0.950 . S
C658 C659 1.327 . S
C659 H653 0.950 . S
C659 C658 1.327 . S
C659 C663 1.429 1_565 S
C660 C643 1.574 . S
C660 H654 0.949 . S
C660 C664 1.368 . S
C661 C642 1.429 . S
C661 C655 1.429 . S
C661 C662 1.523 . S
C662 C643 1.368 . S
C662 C656 1.368 . S
C662 C661 1.523 . S
C663 C647 1.429 . S
C663 C659 1.429 1_545 S
C663 C664 1.523 . S
C664 C648 1.368 . S
C664 C660 1.368 . S
C664 C663 1.523 . S
H665 C640 0.950 . S
H666 C642 0.950 . S
H667 C643 0.949 . S
H668 C645 0.950 . S
H669 C647 0.950 . S
C670 C671 1.349 . S
C670 C672 1.327 . S
C670 H695 0.950 . S
C671 C670 1.349 . S
C671 C687 1.349 . S
C672 C670 1.327 . S
C672 C691 1.429 . S
C672 H696 0.950 . S
C673 C690 1.574 . S
C673 C692 1.368 . S
C673 H697 0.949 . S
H674 C678 0.949 . S
C675 C676 1.349 . S
C675 C677 1.327 . S
C675 H698 0.950 . S
C676 C675 1.349 . S
C676 C688 1.349 . S
C677 C675 1.327 . S
C677 C693 1.429 . S
C677 H699 0.950 . S
C678 H674 0.949 . S
C678 C686 1.574 . S
C678 C694 1.368 . S
H679 C687 0.950 . S
H680 C685 0.950 . S
H681 C686 0.949 . S
H682 C688 0.950 . S
H683 C689 0.950 . S
H684 C690 0.949 . S
C685 H680 0.950 . S
C685 C687 1.327 . S
C685 C691 1.429 . S
C686 C678 1.574 . S
C686 H681 0.949 . S
C686 C692 1.368 . S
C687 C671 1.349 . S
C687 H679 0.950 . S
C687 C685 1.327 . S
C688 C676 1.349 . S
C688 H682 0.950 . S
C688 C689 1.327 . S
C689 H683 0.950 . S
C689 C688 1.327 . S
C689 C693 1.429 . S
C690 C673 1.574 . S
C690 H684 0.949 . S
C690 C694 1.368 . S
C691 C672 1.429 . S
C691 C685 1.429 . S
C691 C692 1.523 . S
C692 C673 1.368 . S
C692 C686 1.368 . S
C692 C691 1.523 . S
C693 C677 1.429 . S
C693 C689 1.429 . S
C693 C694 1.523 . S
C694 C678 1.368 . S
C694 C690 1.368 . S
C694 C693 1.523 . S
H695 C670 0.950 . S
H696 C672 0.950 . S
H697 C673 0.949 . S
H698 C675 0.950 . S
H699 C677 0.950 . S
C700 C701 1.349 . S
C700 C702 1.327 1_554 S
C700 H725 0.950 1_554 S
C701 C700 1.349 . S
C701 C717 1.349 . S
C702 C700 1.327 1_556 S
C702 C721 1.429 1_556 S
C702 H726 0.950 . S
C703 C720 1.574 1_565 S
C703 C722 1.368 . S
C703 H727 0.949 . S
H704 C708 0.949 . S
C705 C706 1.349 . S
C705 C707 1.327 1_556 S
C705 H728 0.950 1_556 S
C706 C705 1.349 . S
C706 C718 1.349 . S
C707 C705 1.327 1_554 S
C707 C723 1.429 1_554 S
C707 H729 0.950 . S
C708 H704 0.949 . S
C708 C716 1.574 . S
C708 C724 1.368 1_565 S
H709 C717 0.950 . S
H710 C715 0.950 . S
H711 C716 0.949 . S
H712 C718 0.950 . S
H713 C719 0.950 . S
H714 C720 0.949 . S
C715 H710 0.950 . S
C715 C717 1.327 . S
C715 C721 1.429 . S
C716 C708 1.574 . S
C716 H711 0.949 . S
C716 C722 1.368 1_556 S
C717 C701 1.349 . S
C717 H709 0.950 . S
C717 C715 1.327 . S
C718 C706 1.349 . S
C718 H712 0.950 . S
C718 C719 1.327 . S
C719 H713 0.950 . S
C719 C718 1.327 . S
C719 C723 1.429 . S
C720 C703 1.574 1_545 S
C720 H714 0.949 . S
C720 C724 1.368 1_554 S
C721 C702 1.429 1_554 S
C721 C715 1.429 . S
C721 C722 1.523 . S
C722 C703 1.368 . S
C722 C716 1.368 1_554 S
C722 C721 1.523 . S
C723 C707 1.429 1_556 S
C723 C719 1.429 . S
C723 C724 1.523 . S
C724 C708 1.368 1_545 S
C724 C720 1.368 1_556 S
C724 C723 1.523 . S
H725 C700 0.950 1_556 S
H726 C702 0.950 . S
H727 C703 0.949 . S
H728 C705 0.950 1_554 S
H729 C707 0.950 . S
C730 C731 1.349 . S
C730 C732 1.327 . S
C730 H755 0.950 . S
C731 C730 1.349 . S
C731 C747 1.349 . S
C732 C730 1.327 . S
C732 C751 1.429 . S
C732 H756 0.950 . S
C733 C750 1.574 . S
C733 C752 1.368 . S
C733 H757 0.949 . S
H734 C738 0.949 . S
C735 C736 1.349 . S
C735 C737 1.327 . S
C735 H758 0.950 . S
C736 C735 1.349 . S
C736 C748 1.349 . S
C737 C735 1.327 . S
C737 C753 1.429 . S
C737 H759 0.950 . S
C738 H734 0.949 . S
C738 C746 1.574 . S
C738 C754 1.368 . S
H739 C747 0.950 . S
H740 C745 0.950 . S
H741 C746 0.949 . S
H742 C748 0.950 . S
H743 C749 0.950 . S
H744 C750 0.949 . S
C745 H740 0.950 . S
C745 C747 1.327 . S
C745 C751 1.429 . S
C746 C738 1.574 . S
C746 H741 0.949 . S
C746 C752 1.368 . S
C747 C731 1.349 . S
C747 H739 0.950 . S
C747 C745 1.327 . S
C748 C736 1.349 . S
C748 H742 0.950 . S
C748 C749 1.327 . S
C749 H743 0.950 . S
C749 C748 1.327 . S
C749 C753 1.429 . S
C750 C733 1.574 . S
C750 H744 0.949 . S
C750 C754 1.368 . S
C751 C732 1.429 . S
C751 C745 1.429 . S
C751 C752 1.523 . S
C752 C733 1.368 . S
C752 C746 1.368 . S
C752 C751 1.523 . S
C753 C737 1.429 . S
C753 C749 1.429 . S
C753 C754 1.523 . S
C754 C738 1.368 . S
C754 C750 1.368 . S
C754 C753 1.523 . S
H755 C730 0.950 . S
H756 C732 0.950 . S
H757 C733 0.949 . S
H758 C735 0.950 . S
H759 C737 0.950 . S
C760 C761 1.349 . S
C760 C762 1.327 . S
C760 H785 0.950 . S
C761 C760 1.349 . S
C761 C777 1.349 . S
C762 C760 1.327 . S
C762 C781 1.429 . S
C762 H786 0.950 . S
C763 C780 1.574 . S
C763 C782 1.368 . S
C763 H787 0.949 . S
H764 C768 0.949 . S
C765 C766 1.349 . S
C765 C767 1.327 . S
C765 H788 0.950 . S
C766 C765 1.349 . S
C766 C778 1.349 . S
C767 C765 1.327 . S
C767 C783 1.429 . S
C767 H789 0.950 . S
C768 H764 0.949 . S
C768 C776 1.574 . S
C768 C784 1.368 . S
H769 C777 0.950 . S
H770 C775 0.950 . S
H771 C776 0.949 . S
H772 C778 0.950 . S
H773 C779 0.950 . S
H774 C780 0.949 . S
C775 H770 0.950 . S
C775 C777 1.327 . S
C775 C781 1.429 . S
C776 C768 1.574 . S
C776 H771 0.949 . S
C776 C782 1.368 . S
C777 C761 1.349 . S
C777 H769 0.950 . S
C777 C775 1.327 . S
C778 C766 1.349 . S
C778 H772 0.950 . S
C778 C779 1.327 . S
C779 H773 0.950 . S
C779 C778 1.327 . S
C779 C783 1.429 . S
C780 C763 1.574 . S
C780 H774 0.949 . S
C780 C784 1.368 . S
C781 C762 1.429 . S
C781 C775 1.429 . S
C781 C782 1.523 . S
C782 C763 1.368 . S
C782 C776 1.368 . S
C782 C781 1.523 . S
C783 C767 1.429 . S
C783 C779 1.429 . S
C783 C784 1.523 . S
C784 C768 1.368 . S
C784 C780 1.368 . S
C784 C783 1.523 . S
H785 C760 0.950 . S
H786 C762 0.950 . S
H787 C763 0.949 . S
H788 C765 0.950 . S
H789 C767 0.950 . S
C790 C791 1.349 . S
C790 C792 1.327 . S
C790 H815 0.950 . S
C791 C790 1.349 . S
C791 C807 1.349 . S
C792 C790 1.327 . S
C792 C811 1.429 . S
C792 H816 0.950 . S
C793 C810 1.574 . S
C793 C812 1.368 1_655 S
C793 H817 0.949 1_655 S
H794 C798 0.949 . S
C795 C796 1.349 . S
C795 C797 1.327 . S
C795 H818 0.950 . S
C796 C795 1.349 . S
C796 C808 1.349 . S
C797 C795 1.327 . S
C797 C813 1.429 . S
C797 H819 0.950 . S
C798 H794 0.949 . S
C798 C806 1.574 . S
C798 C814 1.368 . S
H799 C807 0.950 . S
H800 C805 0.950 . S
H801 C806 0.949 1_455 S
H802 C808 0.950 . S
H803 C809 0.950 . S
H804 C810 0.949 . S
C805 H800 0.950 . S
C805 C807 1.327 . S
C805 C811 1.429 . S
C806 C798 1.574 . S
C806 H801 0.949 1_655 S
C806 C812 1.368 1_655 S
C807 C791 1.349 . S
C807 H799 0.950 . S
C807 C805 1.327 . S
C808 C796 1.349 . S
C808 H802 0.950 . S
C808 C809 1.327 . S
C809 H803 0.950 . S
C809 C808 1.327 . S
C809 C813 1.429 . S
C810 C793 1.574 . S
C810 H804 0.949 . S
C810 C814 1.368 . S
C811 C792 1.429 . S
C811 C805 1.429 . S
C811 C812 1.523 . S
C812 C793 1.368 1_455 S
C812 C806 1.368 1_455 S
C812 C811 1.523 . S
C813 C797 1.429 . S
C813 C809 1.429 . S
C813 C814 1.523 . S
C814 C798 1.368 . S
C814 C810 1.368 . S
C814 C813 1.523 . S
H815 C790 0.950 . S
H816 C792 0.950 . S
H817 C793 0.949 1_455 S
H818 C795 0.950 . S
H819 C797 0.950 . S
C820 C821 1.349 . S
C820 C822 1.327 . S
C820 H845 0.950 . S
C821 C820 1.349 . S
C821 C837 1.349 . S
C822 C820 1.327 . S
C822 C841 1.429 . S
C822 H846 0.950 . S
C823 C840 1.574 . S
C823 C842 1.368 . S
C823 H847 0.949 . S
H824 C828 0.949 . S
C825 C826 1.349 . S
C825 C827 1.327 . S
C825 H848 0.950 . S
C826 C825 1.349 . S
C826 C838 1.349 . S
C827 C825 1.327 . S
C827 C843 1.429 . S
C827 H849 0.950 . S
C828 H824 0.949 . S
C828 C836 1.574 . S
C828 C844 1.368 . S
H829 C837 0.950 . S
H830 C835 0.950 . S
H831 C836 0.949 . S
H832 C838 0.950 . S
H833 C839 0.950 . S
H834 C840 0.949 . S
C835 H830 0.950 . S
C835 C837 1.327 . S
C835 C841 1.429 . S
C836 C828 1.574 . S
C836 H831 0.949 . S
C836 C842 1.368 . S
C837 C821 1.349 . S
C837 H829 0.950 . S
C837 C835 1.327 . S
C838 C826 1.349 . S
C838 H832 0.950 . S
C838 C839 1.327 . S
C839 H833 0.950 . S
C839 C838 1.327 . S
C839 C843 1.429 . S
C840 C823 1.574 . S
C840 H834 0.949 . S
C840 C844 1.368 . S
C841 C822 1.429 . S
C841 C835 1.429 . S
C841 C842 1.523 . S
C842 C823 1.368 . S
C842 C836 1.368 . S
C842 C841 1.523 . S
C843 C827 1.429 . S
C843 C839 1.429 . S
C843 C844 1.523 . S
C844 C828 1.368 . S
C844 C840 1.368 . S
C844 C843 1.523 . S
H845 C820 0.950 . S
H846 C822 0.950 . S
H847 C823 0.949 . S
H848 C825 0.950 . S
H849 C827 0.950 . S
C850 C851 1.349 . S
C850 C852 1.327 . S
C850 H875 0.950 . S
C851 C850 1.349 . S
C851 C867 1.349 . S
C852 C850 1.327 . S
C852 C871 1.429 . S
C852 H876 0.950 . S
C853 C870 1.574 . S
C853 C872 1.368 . S
C853 H877 0.949 . S
H854 C858 0.949 . S
C855 C856 1.349 . S
C855 C857 1.327 . S
C855 H878 0.950 . S
C856 C855 1.349 . S
C856 C868 1.349 . S
C857 C855 1.327 . S
C857 C873 1.429 . S
C857 H879 0.950 . S
C858 H854 0.949 . S
C858 C866 1.574 . S
C858 C874 1.368 . S
H859 C867 0.950 . S
H860 C865 0.950 . S
H861 C866 0.949 . S
H862 C868 0.942 1_455 S
H863 C869 0.950 . S
H864 C870 0.949 . S
C865 H860 0.950 . S
C865 C867 1.327 . S
C865 C871 1.429 . S
C866 C858 1.574 . S
C866 H861 0.949 . S
C866 C872 1.368 . S
C867 C851 1.349 . S
C867 H859 0.950 . S
C867 C865 1.327 . S
C868 C856 1.349 . S
C868 H862 0.942 1_655 S
C868 C869 1.327 . S
C869 H863 0.950 . S
C869 C868 1.327 . S
C869 C873 1.429 . S
C870 C853 1.574 . S
C870 H864 0.949 . S
C870 C874 1.368 . S
C871 C852 1.429 . S
C871 C865 1.429 . S
C871 C872 1.523 . S
C872 C853 1.368 . S
C872 C866 1.368 . S
C872 C871 1.523 . S
C873 C857 1.429 . S
C873 C869 1.429 . S
C873 C874 1.523 . S
C874 C858 1.368 . S
C874 C870 1.368 . S
C874 C873 1.523 . S
H875 C850 0.950 . S
H876 C852 0.950 . S
H877 C853 0.949 . S
H878 C855 0.950 . S
H879 C857 0.950 . S
C880 C881 1.349 . S
C880 C882 1.327 . S
C880 H905 0.950 . S
C881 C880 1.349 . S
C881 C897 1.349 . S
C882 C880 1.327 . S
C882 C901 1.429 . S
C882 H906 0.950 . S
C883 C900 1.574 . S
C883 C902 1.368 . S
C883 H907 0.949 . S
H884 C888 0.949 . S
C885 C886 1.349 . S
C885 C887 1.327 . S
C885 H908 0.950 . S
C886 C885 1.349 . S
C886 C898 1.349 . S
C887 C885 1.327 . S
C887 C903 1.429 . S
C887 H909 0.950 . S
C888 H884 0.949 . S
C888 C896 1.574 . S
C888 C904 1.368 . S
H889 C897 0.950 . S
H890 C895 0.950 . S
H891 C896 0.949 . S
H892 C898 0.950 . S
H893 C899 0.950 . S
H894 C900 0.949 . S
C895 H890 0.950 . S
C895 C897 1.327 . S
C895 C901 1.429 . S
C896 C888 1.574 . S
C896 H891 0.949 . S
C896 C902 1.368 . S
C897 C881 1.349 . S
C897 H889 0.950 . S
C897 C895 1.327 . S
C898 C886 1.349 . S
C898 H892 0.950 . S
C898 C899 1.327 . S
C899 H893 0.950 . S
C899 C898 1.327 . S
C899 C903 1.429 . S
C900 C883 1.574 . S
C900 H894 0.949 . S
C900 C904 1.368 . S
C901 C882 1.429 . S
C901 C895 1.429 . S
C901 C902 1.523 . S
C902 C883 1.368 . S
C902 C896 1.368 . S
C902 C901 1.523 . S
C903 C887 1.429 . S
C903 C899 1.429 . S
C903 C904 1.523 . S
C904 C888 1.368 . S
C904 C900 1.368 . S
C904 C903 1.523 . S
H905 C880 0.950 . S
H906 C882 0.950 . S
H907 C883 0.949 . S
H908 C885 0.950 . S
H909 C887 0.950 . S
C910 C911 1.349 . S
C910 C912 1.327 . S
C910 H935 0.950 . S
C911 C910 1.349 . S
C911 C927 1.349 . S
C912 C910 1.327 . S
C912 C931 1.429 . S
C912 H936 0.950 . S
C913 C930 1.574 . S
C913 C932 1.368 . S
C913 H937 0.949 . S
H914 C918 0.949 . S
C915 C916 1.349 . S
C915 C917 1.327 . S
C915 H938 0.950 . S
C916 C915 1.349 . S
C916 C928 1.349 . S
C917 C915 1.327 . S
C917 C933 1.429 . S
C917 H939 0.950 . S
C918 H914 0.949 . S
C918 C926 1.574 . S
C918 C934 1.368 . S
H919 C927 0.950 . S
H920 C925 0.950 . S
H921 C926 0.949 . S
H922 C928 0.950 . S
H923 C929 0.950 . S
H924 C930 0.949 . S
C925 H920 0.950 . S
C925 C927 1.327 . S
C925 C931 1.429 . S
C926 C918 1.574 . S
C926 H921 0.949 . S
C926 C932 1.368 . S
C927 C911 1.349 . S
C927 H919 0.950 . S
C927 C925 1.327 . S
C928 C916 1.349 . S
C928 H922 0.950 . S
C928 C929 1.327 . S
C929 H923 0.950 . S
C929 C928 1.327 . S
C929 C933 1.429 . S
C930 C913 1.574 . S
C930 H924 0.949 . S
C930 C934 1.368 . S
C931 C912 1.429 . S
C931 C925 1.429 . S
C931 C932 1.523 . S
C932 C913 1.368 . S
C932 C926 1.368 . S
C932 C931 1.523 . S
C933 C917 1.429 . S
C933 C929 1.429 . S
C933 C934 1.523 . S
C934 C918 1.368 . S
C934 C930 1.368 . S
C934 C933 1.523 . S
H935 C910 0.950 . S
H936 C912 0.950 . S
H937 C913 0.949 . S
H938 C915 0.950 . S
H939 C917 0.950 . S
C940 C941 1.349 . S
C940 C942 1.327 . S
C940 H965 0.950 . S
C941 C940 1.349 . S
C941 C957 1.349 . S
C942 C940 1.327 . S
C942 C961 1.429 . S
C942 H966 0.950 . S
C943 C960 1.574 . S
C943 C962 1.368 . S
C943 H967 0.949 . S
H944 C948 0.949 . S
C945 C946 1.349 . S
C945 C947 1.327 . S
C945 H968 0.950 . S
C946 C945 1.349 . S
C946 C958 1.349 . S
C947 C945 1.327 . S
C947 C963 1.429 . S
C947 H969 0.950 . S
C948 H944 0.949 . S
C948 C956 1.574 . S
C948 C964 1.368 . S
H949 C957 0.950 . S
H950 C955 0.950 . S
H951 C956 0.949 . S
H952 C958 0.950 . S
H953 C959 0.950 . S
H954 C960 0.949 . S
C955 H950 0.950 . S
C955 C957 1.327 . S
C955 C961 1.429 . S
C956 C948 1.574 . S
C956 H951 0.949 . S
C956 C962 1.368 . S
C957 C941 1.349 . S
C957 H949 0.950 . S
C957 C955 1.327 . S
C958 C946 1.349 . S
C958 H952 0.950 . S
C958 C959 1.327 . S
C959 H953 0.950 . S
C959 C958 1.327 . S
C959 C963 1.429 . S
C960 C943 1.574 . S
C960 H954 0.949 . S
C960 C964 1.368 . S
C961 C942 1.429 . S
C961 C955 1.429 . S
C961 C962 1.523 . S
C962 C943 1.368 . S
C962 C956 1.368 . S
C962 C961 1.523 . S
C963 C947 1.429 . S
C963 C959 1.429 . S
C963 C964 1.523 . S
C964 C948 1.368 . S
C964 C960 1.368 . S
C964 C963 1.523 . S
H965 C940 0.950 . S
H966 C942 0.950 . S
H967 C943 0.949 . S
H968 C945 0.950 . S
H969 C947 0.950 . S
C970 C971 1.349 . S
C970 C972 1.327 . S
C970 H995 0.950 . S
C971 C970 1.349 . S
C971 C987 1.349 . S
C972 C970 1.327 . S
C972 C991 1.429 . S
C972 H996 0.950 . S
C973 C990 1.574 . S
C973 C992 1.368 . S
C973 H997 0.949 . S
H974 C978 0.949 . S
C975 C976 1.349 . S
C975 C977 1.327 . S
C975 H998 0.950 . S
C976 C975 1.349 . S
C976 C988 1.349 . S
C977 C975 1.327 . S
C977 C993 1.429 . S
C977 H999 0.950 . S
C978 H974 0.949 . S
C978 C986 1.574 . S
C978 C994 1.368 . S
H979 C987 0.950 . S
H980 C985 0.950 . S
H981 C986 0.949 . S
H982 C988 0.950 . S
H983 C989 0.950 . S
H984 C990 0.949 . S
C985 H980 0.950 . S
C985 C987 1.327 . S
C985 C991 1.429 . S
C986 C978 1.574 . S
C986 H981 0.949 . S
C986 C992 1.368 . S
C987 C971 1.349 . S
C987 H979 0.950 . S
C987 C985 1.327 . S
C988 C976 1.349 . S
C988 H982 0.950 . S
C988 C989 1.327 . S
C989 H983 0.950 . S
C989 C988 1.327 . S
C989 C993 1.429 . S
C990 C973 1.574 . S
C990 H984 0.949 . S
C990 C994 1.368 . S
C991 C972 1.429 . S
C991 C985 1.429 . S
C991 C992 1.523 . S
C992 C973 1.368 . S
C992 C986 1.368 . S
C992 C991 1.523 . S
C993 C977 1.429 . S
C993 C989 1.429 . S
C993 C994 1.523 . S
C994 C978 1.368 . S
C994 C990 1.368 . S
C994 C993 1.523 . S
H995 C970 0.950 . S
H996 C972 0.950 . S
H997 C973 0.949 . S
H998 C975 0.950 . S
H999 C977 0.950 . S
C1000 C1001 1.349 . S
C1000 C1002 1.327 . S
C1000 H1025 0.950 . S
C1001 C1000 1.349 . S
C1001 C1017 1.349 . S
C1002 C1000 1.327 . S
C1002 C1021 1.429 . S
C1002 H1026 0.950 . S
C1003 C1020 1.574 . S
C1003 C1022 1.368 . S
C1003 H1027 0.949 . S
H1004 C1008 0.949 . S
C1005 C1006 1.349 . S
C1005 C1007 1.327 . S
C1005 H1028 0.950 . S
C1006 C1005 1.349 . S
C1006 C1018 1.349 . S
C1007 C1005 1.327 . S
C1007 C1023 1.429 . S
C1007 H1029 0.950 . S
C1008 H1004 0.949 . S
C1008 C1016 1.574 . S
C1008 C1024 1.368 . S
H1009 C1017 0.950 . S
H1010 C1015 0.950 . S
H1011 C1016 0.949 . S
H1012 C1018 0.950 . S
H1013 C1019 0.950 . S
H1014 C1020 0.949 . S
C1015 H1010 0.950 . S
C1015 C1017 1.327 . S
C1015 C1021 1.429 . S
C1016 C1008 1.574 . S
C1016 H1011 0.949 . S
C1016 C1022 1.368 . S
C1017 C1001 1.349 . S
C1017 H1009 0.950 . S
C1017 C1015 1.327 . S
C1018 C1006 1.349 . S
C1018 H1012 0.950 . S
C1018 C1019 1.327 . S
C1019 H1013 0.950 . S
C1019 C1018 1.327 . S
C1019 C1023 1.429 . S
C1020 C1003 1.574 . S
C1020 H1014 0.949 . S
C1020 C1024 1.368 . S
C1021 C1002 1.429 . S
C1021 C1015 1.429 . S
C1021 C1022 1.523 . S
C1022 C1003 1.368 . S
C1022 C1016 1.368 . S
C1022 C1021 1.523 . S
C1023 C1007 1.429 . S
C1023 C1019 1.429 . S
C1023 C1024 1.523 . S
C1024 C1008 1.368 . S
C1024 C1020 1.368 . S
C1024 C1023 1.523 . S
H1025 C1000 0.950 . S
H1026 C1002 0.950 . S
H1027 C1003 0.949 . S
H1028 C1005 0.950 . S
H1029 C1007 0.950 . S
C1030 C1031 1.349 . S
C1030 C1032 1.327 . S
C1030 H1055 0.950 . S
C1031 C1030 1.349 . S
C1031 C1047 1.349 . S
C1032 C1030 1.327 . S
C1032 C1051 1.429 . S
C1032 H1056 0.950 . S
C1033 C1050 1.574 . S
C1033 C1052 1.368 . S
C1033 H1057 0.949 . S
H1034 C1038 0.949 . S
C1035 C1036 1.349 . S
C1035 C1037 1.327 . S
C1035 H1058 0.950 . S
C1036 C1035 1.349 . S
C1036 C1048 1.349 . S
C1037 C1035 1.327 . S
C1037 C1053 1.429 . S
C1037 H1059 0.950 . S
C1038 H1034 0.949 . S
C1038 C1046 1.574 . S
C1038 C1054 1.368 . S
H1039 C1047 0.950 . S
H1040 C1045 0.950 . S
H1041 C1046 0.949 . S
H1042 C1048 0.950 . S
H1043 C1049 0.950 . S
H1044 C1050 0.949 . S
C1045 H1040 0.950 . S
C1045 C1047 1.327 . S
C1045 C1051 1.429 . S
C1046 C1038 1.574 . S
C1046 H1041 0.949 . S
C1046 C1052 1.368 . S
C1047 C1031 1.349 . S
C1047 H1039 0.950 . S
C1047 C1045 1.327 . S
C1048 C1036 1.349 . S
C1048 H1042 0.950 . S
C1048 C1049 1.327 . S
C1049 H1043 0.950 . S
C1049 C1048 1.327 . S
C1049 C1053 1.429 . S
C1050 C1033 1.574 . S
C1050 H1044 0.949 . S
C1050 C1054 1.368 . S
C1051 C1032 1.429 . S
C1051 C1045 1.429 . S
C1051 C1052 1.523 . S
C1052 C1033 1.368 . S
C1052 C1046 1.368 . S
C1052 C1051 1.523 . S
C1053 C1037 1.429 . S
C1053 C1049 1.429 . S
C1053 C1054 1.523 . S
C1054 C1038 1.368 . S
C1054 C1050 1.368 . S
C1054 C1053 1.523 . S
H1055 C1030 0.950 . S
H1056 C1032 0.950 . S
H1057 C1033 0.949 . S
H1058 C1035 0.950 . S
H1059 C1037 0.950 . S
C1060 C1061 1.349 . S
C1060 C1062 1.327 . S
C1060 H1085 0.950 . S
C1061 C1060 1.349 . S
C1061 C1077 1.349 . S
C1062 C1060 1.327 . S
C1062 C1081 1.429 . S
C1062 H1086 0.950 . S
C1063 C1080 1.574 . S
C1063 C1082 1.368 . S
C1063 H1087 0.949 . S
H1064 C1068 0.949 . S
C1065 C1066 1.349 . S
C1065 C1067 1.327 . S
C1065 H1088 0.950 . S
C1066 C1065 1.349 . S
C1066 C1078 1.349 . S
C1067 C1065 1.327 . S
C1067 C1083 1.429 . S
C1067 H1089 0.950 . S
C1068 H1064 0.949 . S
C1068 C1076 1.574 . S
C1068 C1084 1.368 . S
H1069 C1077 0.950 . S
H1070 C1075 0.950 . S
H1071 C1076 0.949 . S
H1072 C1078 0.950 . S
H1073 C1079 0.950 . S
H1074 C1080 0.949 . S
C1075 H1070 0.950 . S
C1075 C1077 1.327 . S
C1075 C1081 1.429 . S
C1076 C1068 1.574 . S
C1076 H1071 0.949 . S
C1076 C1082 1.368 . S
C1077 C1061 1.349 . S
C1077 H1069 0.950 . S
C1077 C1075 1.327 . S
C1078 C1066 1.349 . S
C1078 H1072 0.950 . S
C1078 C1079 1.327 . S
C1079 H1073 0.950 . S
C1079 C1078 1.327 . S
C1079 C1083 1.429 . S
C1080 C1063 1.574 . S
C1080 H1074 0.949 . S
C1080 C1084 1.368 . S
C1081 C1062 1.429 . S
C1081 C1075 1.429 . S
C1081 C1082 1.523 . S
C1082 C1063 1.368 . S
C1082 C1076 1.368 . S
C1082 C1081 1.523 . S
C1083 C1067 1.429 . S
C1083 C1079 1.429 . S
C1083 C1084 1.523 . S
C1084 C1068 1.368 . S
C1084 C1080 1.368 . S
C1084 C1083 1.523 . S
H1085 C1060 0.950 . S
H1086 C1062 0.950 . S
H1087 C1063 0.949 . S
H1088 C1065 0.950 . S
H1089 C1067 0.950 . S
C1090 C1091 1.349 . S
C1090 C1092 1.327 . S
C1090 H1115 0.950 . S
C1091 C1090 1.349 . S
C1091 C1107 1.349 . S
C1092 C1090 1.327 . S
C1092 C1111 1.429 . S
C1092 H1116 0.950 . S
C1093 C1110 1.574 . S
C1093 C1112 1.368 . S
C1093 H1117 0.949 . S
H1094 C1098 0.949 . S
C1095 C1096 1.349 . S
C1095 C1097 1.327 . S
C1095 H1118 0.950 . S
C1096 C1095 1.349 . S
C1096 C1108 1.349 . S
C1097 C1095 1.327 . S
C1097 C1113 1.429 . S
C1097 H1119 0.950 . S
C1098 H1094 0.949 . S
C1098 C1106 1.574 . S
C1098 C1114 1.368 . S
H1099 C1107 0.950 . S
H1100 C1105 0.938 1_556 S
H1101 C1106 0.949 1_554 S
H1102 C1108 0.950 . S
H1103 C1109 0.950 . S
H1104 C1110 0.949 . S
C1105 H1100 0.938 1_554 S
C1105 C1107 1.327 . S
C1105 C1111 1.429 . S
C1106 C1098 1.574 . S
C1106 H1101 0.949 1_556 S
C1106 C1112 1.368 . S
C1107 C1091 1.349 . S
C1107 H1099 0.950 . S
C1107 C1105 1.327 . S
C1108 C1096 1.349 . S
C1108 H1102 0.950 . S
C1108 C1109 1.327 . S
C1109 H1103 0.950 . S
C1109 C1108 1.327 . S
C1109 C1113 1.429 . S
C1110 C1093 1.574 . S
C1110 H1104 0.949 . S
C1110 C1114 1.368 . S
C1111 C1092 1.429 . S
C1111 C1105 1.429 . S
C1111 C1112 1.523 1_554 S
C1112 C1093 1.368 . S
C1112 C1106 1.368 . S
C1112 C1111 1.523 1_556 S
C1113 C1097 1.429 . S
C1113 C1109 1.429 . S
C1113 C1114 1.523 . S
C1114 C1098 1.368 . S
C1114 C1110 1.368 . S
C1114 C1113 1.523 . S
H1115 C1090 0.950 . S
H1116 C1092 0.950 . S
H1117 C1093 0.949 . S
H1118 C1095 0.950 . S
H1119 C1097 0.950 . S
C401 C7 1.476 . S
C406 C104 1.432 . S
C431 C37 1.338 . S
C436 C143 1.272 . S
C461 C54 1.566 . S
C466 C182 1.476 . S
C496 C206 1.404 . S
C491 C87 1.418 . S
C526 C245 1.383 . S
C521 C30 1.425 . S
C551 C51 1.445 . S
C556 C284 1.429 . S
C581 C84 1.622 . S
C586 C338 1.525 . S
C611 C10 1.286 1_556 S
C616 C362 1.223 . S
C641 C59 1.496 . S
C646 C377 1.455 . S
C676 C260 1.228 . S
C671 C74 1.294 . S
C706 C299 1.535 . S
C701 C18 1.625 . S
C731 C32 1.417 . S
C736 C323 1.395 . S
C766 C128 1.445 . S
C761 C73 1.487 . S
C791 C15 1.425 . S
C796 C167 1.417 . S
C826 C221 1.563 . S
C821 C43 1.637 . S
C856 C89 1.230 . S
C851 C62 1.294 . S
C886 C343 1.439 . S
C881 C21 1.475 . S
C916 C382 1.251 . S
C911 C29 1.261 . S
C941 C52 1.216 . S
C946 C265 1.200 . S
C976 C304 1.416 . S
C971 C81 1.459 . S
C1006 C187 1.394 . S
C1001 C40 1.420 . S
C1031 C65 1.447 . S
C1036 C226 1.405 . S
C1066 C109 1.205 . S
C1061 C76 1.233 . S
C1096 C148 1.247 . S
C1091 C8 1.274 . S
