# Generated by pormake.
# Topology zzz, (3,6)-cn, num edge types: 1
# Building blocks:
#     Node 0, Type 0, BuildingBlock: BETDIP_clean_linker_0, # of connection points: 3
#     Node 1, Type 0, BuildingBlock: BETDIP_clean_linker_0, # of connection points: 3
#     Node 2, Type 0, BuildingBlock: BETDIP_clean_linker_0, # of connection points: 3
#     Node 3, Type 0, BuildingBlock: BETDIP_clean_linker_0, # of connection points: 3
#     Node 4, Type 0, BuildingBlock: BETDIP_clean_linker_0, # of connection points: 3
#     Node 5, Type 0, BuildingBlock: BETDIP_clean_linker_0, # of connection points: 3
#     Node 6, Type 0, BuildingBlock: BETDIP_clean_linker_0, # of connection points: 3
#     Node 7, Type 0, BuildingBlock: BETDIP_clean_linker_0, # of connection points: 3
#     Node 8, Type 1, BuildingBlock: CUKXOW_clean_sbu_0, # of connection points: 6
#     Node 9, Type 1, BuildingBlock: CUKXOW_clean_sbu_0, # of connection points: 6
#     Node 10, Type 1, BuildingBlock: CUKXOW_clean_sbu_0, # of connection points: 6
#     Node 11, Type 1, BuildingBlock: CUKXOW_clean_sbu_0, # of connection points: 6
#     Edge 12, Type (0, 1), BuildingBlock: CIFDUS_clean_linker_0, # of connection points: 2
#     Edge 13, Type (0, 1), BuildingBlock: CIFDUS_clean_linker_0, # of connection points: 2
#     Edge 14, Type (0, 1), BuildingBlock: CIFDUS_clean_linker_0, # of connection points: 2
#     Edge 15, Type (0, 1), BuildingBlock: CIFDUS_clean_linker_0, # of connection points: 2
#     Edge 16, Type (0, 1), BuildingBlock: CIFDUS_clean_linker_0, # of connection points: 2
#     Edge 17, Type (0, 1), BuildingBlock: CIFDUS_clean_linker_0, # of connection points: 2
#     Edge 18, Type (0, 1), BuildingBlock: CIFDUS_clean_linker_0, # of connection points: 2
#     Edge 19, Type (0, 1), BuildingBlock: CIFDUS_clean_linker_0, # of connection points: 2
#     Edge 20, Type (0, 1), BuildingBlock: CIFDUS_clean_linker_0, # of connection points: 2
#     Edge 21, Type (0, 1), BuildingBlock: CIFDUS_clean_linker_0, # of connection points: 2
#     Edge 22, Type (0, 1), BuildingBlock: CIFDUS_clean_linker_0, # of connection points: 2
#     Edge 23, Type (0, 1), BuildingBlock: CIFDUS_clean_linker_0, # of connection points: 2
#     Edge 24, Type (0, 1), BuildingBlock: CIFDUS_clean_linker_0, # of connection points: 2
#     Edge 25, Type (0, 1), BuildingBlock: CIFDUS_clean_linker_0, # of connection points: 2
#     Edge 26, Type (0, 1), BuildingBlock: CIFDUS_clean_linker_0, # of connection points: 2
#     Edge 27, Type (0, 1), BuildingBlock: CIFDUS_clean_linker_0, # of connection points: 2
#     Edge 28, Type (0, 1), BuildingBlock: CIFDUS_clean_linker_0, # of connection points: 2
#     Edge 29, Type (0, 1), BuildingBlock: CIFDUS_clean_linker_0, # of connection points: 2
#     Edge 30, Type (0, 1), BuildingBlock: CIFDUS_clean_linker_0, # of connection points: 2
#     Edge 31, Type (0, 1), BuildingBlock: CIFDUS_clean_linker_0, # of connection points: 2
#     Edge 32, Type (0, 1), BuildingBlock: CIFDUS_clean_linker_0, # of connection points: 2
#     Edge 33, Type (0, 1), BuildingBlock: CIFDUS_clean_linker_0, # of connection points: 2
#     Edge 34, Type (0, 1), BuildingBlock: CIFDUS_clean_linker_0, # of connection points: 2
#     Edge 35, Type (0, 1), BuildingBlock: CIFDUS_clean_linker_0, # of connection points: 2
# Relax obj value: 0.062
# Max RMSD: 0.116
# Mean RMSD: 0.080
data_MOF--net-zzz--node1-CUKXOW_clean_sbu_0--node2-BETDIP_clean_linker_0--edge1-CIFDUS_clean_linker_0
_symmetry_space_group_name_H-M    P1
_symmetry_Int_Tables_number       1
_symmetry_cell_setting            triclinic
loop_
_symmetry_equiv_pos_as_xyz
'x, y, z'
_cell_length_a     44.427369
_cell_length_b     46.472134
_cell_length_c     13.880106
_cell_angle_alpha  93.57817
_cell_angle_beta   86.429309
_cell_angle_gamma 93.770539
loop_
_atom_site_label
_atom_site_type_symbol
_atom_site_fract_x
_atom_site_fract_y
_atom_site_fract_z
_atom_type_partial_charge
H0 H 0.74676 0.47986 0.25669 0.0
H1 H 0.7776 0.48396 0.95532 0.0
H2 H 0.84149 0.48175 0.17277 0.0
H3 H 0.73583 0.51108 0.96104 0.0
C4 C 0.7191 0.49701 -0.00144 0.0
C5 C 0.76485 0.48006 0.2006 0.0
C6 C 0.79504 0.4805 0.22553 0.0
C7 C 0.7582 0.48146 0.10291 0.0
C8 C 0.78213 0.48283 0.03068 0.0
C9 C 0.81217 0.48352 0.05635 0.0
C10 C 0.81819 0.48141 0.15295 0.0
N11 N 0.72755 0.48253 0.0792 0.0
H12 H 0.97959 0.76262 0.17258 0.0
H13 H 0.9864 0.79145 0.8818 0.0
H14 H 0.95748 0.8484 0.12032 0.0
H15 H 0.97145 0.7413 0.85084 0.0
C16 C 0.98542 0.73127 0.89913 0.0
C17 C 0.97642 0.77895 0.12233 0.0
C18 C 0.96658 0.80586 0.15697 0.0
C19 C 0.98215 0.77304 0.02261 0.0
C20 C 0.98006 0.7951 0.95796 0.0
C21 C 0.97082 0.82237 -0.00677 0.0
C22 C 0.96337 0.82705 0.09205 0.0
N23 N 0.9913 0.74515 0.99071 0.0
H24 H 0.75202 0.99202 0.31548 0.0
H25 H 0.73449 0.00244 0.01732 0.0
H26 H 0.66305 0.00855 0.23925 0.0
H27 H 0.77421 0.96959 -0.00102 0.0
C28 C 0.78936 0.98239 0.04577 0.0
C29 C 0.73647 0.99541 0.26076 0.0
C30 C 0.70606 0.99955 0.28746 0.0
C31 C 0.74687 0.99607 0.16299 0.0
C32 C 0.72654 1.00115 0.09234 0.0
C33 C 0.69602 0.0053 0.1191 0.0
C34 C 0.68628 0.00445 0.21673 0.0
N35 N 0.77811 0.99329 0.13806 0.0
H36 H 0.56205 0.75727 0.24166 0.0
H37 H 0.53194 0.73195 0.95665 0.0
H38 H 0.52528 0.67096 0.17726 0.0
H39 H 0.57007 0.76649 0.91752 0.0
C40 C 0.56361 0.78351 0.97058 0.0
C41 C 0.55198 0.74126 0.19124 0.0
C42 C 0.54356 0.71337 0.22029 0.0
C43 C 0.54798 0.74822 0.09586 0.0
C44 C 0.53537 0.72698 0.0302 0.0
C45 C 0.52675 0.69918 0.05977 0.0
C46 C 0.53074 0.69276 0.15488 0.0
N47 N 0.55618 0.77673 0.06801 0.0
H48 H 0.26103 0.48165 0.12477 0.0
H49 H 0.22896 0.47914 0.42503 0.0
H50 H 0.16642 0.46647 0.20085 0.0
H51 H 0.27278 0.51636 0.42473 0.0
C52 C 0.28784 0.50082 0.38995 0.0
C53 C 0.24275 0.47864 0.1793 0.0
C54 C 0.21291 0.47366 0.1518 0.0
C55 C 0.2488 0.4805 0.27806 0.0
C56 C 0.2247 0.47751 0.34884 0.0
C57 C 0.19505 0.4717 0.32053 0.0
C58 C 0.18954 0.4697 0.22248 0.0
N59 N 0.27923 0.48465 0.30466 0.0
H60 H 0.04549 0.24767 0.2216 0.0
H61 H 0.01657 0.22287 0.50938 0.0
H62 H 0.04583 0.15921 0.29223 0.0
H63 H 0.04008 0.27097 0.54407 0.0
C64 C 0.02973 0.28208 0.48922 0.0
C65 C 0.04221 0.23138 0.27449 0.0
C66 C 0.04779 0.20262 0.24728 0.0
C67 C 0.0324 0.23916 0.37037 0.0
C68 C 0.02609 0.21748 0.4373 0.0
C69 C 0.03017 0.18843 0.40793 0.0
C70 C 0.04239 0.18163 0.31478 0.0
N71 N 0.02711 0.2686 0.39516 0.0
H72 H 0.27965 0.03169 0.19593 0.0
H73 H 0.29623 0.03979 0.50037 0.0
H74 H 0.36907 0.0251 0.289 0.0
H75 H 0.25636 0.07098 0.49631 0.0
C76 C 0.24124 0.05623 0.45542 0.0
C77 C 0.29502 0.03218 0.25372 0.0
C78 C 0.32578 0.02822 0.23215 0.0
C79 C 0.28419 0.03706 0.35053 0.0
C80 C 0.30438 0.03717 0.42539 0.0
C81 C 0.33517 0.03328 0.40335 0.0
C82 C 0.34545 0.02887 0.30677 0.0
N83 N 0.25284 0.0406 0.37132 0.0
H84 H 0.4749 0.26933 0.13755 0.0
H85 H 0.48676 0.29773 0.43582 0.0
H86 H 0.5016 0.3579 0.21276 0.0
H87 H 0.44162 0.26048 0.44033 0.0
C88 C 0.45664 0.24496 0.4052 0.0
C89 C 0.48103 0.28618 0.19161 0.0
C90 C 0.48864 0.31439 0.16443 0.0
C91 C 0.48009 0.28007 0.28978 0.0
C92 C 0.48729 0.30229 0.36012 0.0
C93 C 0.49585 0.3303 0.33233 0.0
C94 C 0.49644 0.336 0.23453 0.0
N95 N 0.47264 0.25139 0.31653 0.0
Tb96 Tb 0.00637 0.97764 0.6205 0.0
C97 C 0.06815 0.01409 0.6066 0.0
Tb98 Tb 0.01665 0.02916 0.77191 0.0
O99 O 0.00456 0.00608 0.50076 0.0
O100 O 0.99403 0.02059 0.64366 0.0
O101 O 0.05341 0.9892 0.58174 0.0
C102 C 0.02412 0.08214 0.85576 0.0
O103 O 0.05684 0.03353 0.67137 0.0
C104 C 0.02359 0.97724 0.82867 0.0
C105 C 0.9541 0.99364 0.78024 0.0
O106 O 0.04286 0.06187 0.85819 0.0
O107 O 1.00098 0.07228 0.80859 0.0
O108 O 0.01506 0.99849 0.88749 0.0
O109 O 0.02977 0.98668 0.74683 0.0
O110 O 0.96884 0.01852 0.80528 0.0
O111 O 0.96591 0.97384 0.71834 0.0
C112 C 0.99899 0.92355 0.54717 0.0
O113 O 0.98072 0.9438 0.53815 0.0
O114 O 0.02178 0.93394 0.59511 0.0
C115 C 0.99943 0.02855 0.55905 0.0
Tb116 Tb 0.51779 0.05694 0.72536 0.0
C117 C 0.5707 0.02007 0.65193 0.0
Tb118 Tb 0.51846 0.9942 0.79052 0.0
O119 O 0.5551 0.07243 0.81615 0.0
O120 O 0.52736 0.03663 0.85049 0.0
O121 O 0.55123 0.03801 0.62521 0.0
C122 C 0.53106 0.94445 0.86012 0.0
O123 O 0.56394 0.00259 0.72317 0.0
C124 C 0.48287 1.00165 0.65185 0.0
C125 C 0.46377 0.03143 0.86312 0.0
O126 O 0.53072 0.94937 0.76916 0.0
O127 O 0.52412 0.96754 0.91215 0.0
O128 O 0.47895 0.98055 0.70928 0.0
O129 O 0.50806 0.01474 0.66589 0.0
O130 O 0.47905 0.00853 0.87818 0.0
O131 O 0.47385 0.0517 0.80354 0.0
C132 C 0.50687 0.10417 0.63567 0.0
O133 O 0.48725 0.08958 0.68943 0.0
O134 O 0.53253 0.09244 0.63376 0.0
C135 C 0.55147 0.05062 0.87064 0.0
Tb136 Tb 0.51588 0.54069 0.63812 0.0
C137 C 0.44713 0.51671 0.62997 0.0
Tb138 Tb 0.49166 0.48993 0.76216 0.0
O139 O 0.53811 0.51147 0.52885 0.0
O140 O 0.50092 0.49705 0.6148 0.0
O141 O 0.46707 0.53902 0.61858 0.0
C142 C 0.4792 0.43795 0.8316 0.0
O143 O 0.45395 0.49279 0.66948 0.0
C144 C 0.48666 0.5423 0.84221 0.0
C145 C 0.56092 0.5134 0.76851 0.0
O146 O 0.46292 0.46009 0.84847 0.0
O147 O 0.50297 0.44523 0.77722 0.0
O148 O 0.46942 0.52023 0.86916 0.0
O149 O 0.50716 0.53334 0.78478 0.0
O150 O 0.54056 0.49155 0.78471 0.0
O151 O 0.55423 0.53691 0.72606 0.0
C152 C 0.52305 0.59431 0.57812 0.0
O153 O 0.49988 0.58379 0.62861 0.0
O154 O 0.54214 0.5744 0.55926 0.0
C155 C 0.52179 0.4889 0.5568 0.0
Tb156 Tb 0.9809 0.50353 0.62847 0.0
C157 C 0.01528 0.44862 0.65482 0.0
Tb158 Tb 0.03424 0.5095 0.76443 0.0
O159 O 0.01289 0.49477 0.50399 0.0
O160 O 0.02607 0.5203 0.62418 0.0
O161 O 0.98935 0.45812 0.63092 0.0
C162 C 0.08943 0.50836 0.8291 0.0
O163 O 0.03671 0.46572 0.69577 0.0
C164 C 0.98034 0.50506 0.85036 0.0
C165 C 0.99927 0.56431 0.7387 0.0
O166 O 0.06687 0.49 0.84789 0.0
O167 O 0.08075 0.528 0.77631 0.0
O168 O 0.00374 0.51725 0.89229 0.0
O169 O 0.98881 0.49326 0.77028 0.0
O170 O 0.02525 0.55486 0.76254 0.0
O171 O 0.97792 0.54715 0.69753 0.0
C172 C 0.92692 0.50509 0.55489 0.0
O173 O 0.95068 0.52175 0.53325 0.0
O174 O 0.9337 0.48692 0.61628 0.0
C175 C 0.0355 0.50852 0.54561 0.0
H176 H 0.19707 0.01799 0.38597 0.0
H177 H 0.21319 0.08754 0.60063 0.0
H178 H 0.16062 0.08189 0.66372 0.0
H179 H 0.11068 0.05587 0.66211 0.0
H180 H 0.09516 0.98517 0.45049 0.0
H181 H 0.14674 0.99269 0.38199 0.0
C182 C 0.18901 0.03204 0.44604 0.0
C183 C 0.20893 0.0532 0.48862 0.0
C184 C 0.15886 0.0284 0.4828 0.0
C185 C 0.1982 0.07111 0.56676 0.0
C186 C 0.16818 0.06787 0.60291 0.0
C187 C 0.11847 0.04224 0.60056 0.0
C188 C 0.099 0.01992 0.56194 0.0
C189 C 0.14837 0.0464 0.56209 0.0
C190 C 0.10963 0.00241 0.4823 0.0
C191 C 0.13918 0.00669 0.44285 0.0
H192 H 0.50301 0.20953 0.37372 0.0
H193 H 0.41933 0.22028 0.54264 0.0
H194 H 0.42655 0.17669 0.62703 0.0
H195 H 0.45774 0.13637 0.65612 0.0
H196 H 0.54311 0.12812 0.49435 0.0
H197 H 0.53424 0.16984 0.40371 0.0
C198 C 0.48621 0.20214 0.42826 0.0
C199 C 0.46051 0.21781 0.45152 0.0
C200 C 0.49097 0.17764 0.47814 0.0
C201 C 0.43921 0.20836 0.52351 0.0
C202 C 0.44336 0.18353 0.57178 0.0
C203 C 0.4743 0.14375 0.60086 0.0
C204 C 0.50102 0.12933 0.58178 0.0
C205 C 0.46931 0.16813 0.55032 0.0
C206 C 0.52242 0.13904 0.51044 0.0
C207 C 0.51735 0.16283 0.45848 0.0
H208 H 0.31943 0.54247 0.49172 0.0
H209 H 0.32389 0.4551 0.37047 0.0
H210 H 0.37311 0.45176 0.43804 0.0
H211 H 0.41492 0.47384 0.53259 0.0
H212 H 0.41252 0.56278 0.63973 0.0
H213 H 0.36254 0.5655 0.57704 0.0
C214 C 0.33131 0.52277 0.48001 0.0
C215 C 0.31817 0.49906 0.42661 0.0
C216 C 0.3599 0.52131 0.51682 0.0
C217 C 0.33372 0.47368 0.41098 0.0
C218 C 0.36178 0.47174 0.4499 0.0
C219 C 0.40331 0.49373 0.54234 0.0
C220 C 0.41708 0.518 0.59145 0.0
C221 C 0.37506 0.4954 0.50318 0.0
C222 C 0.40222 0.54385 0.6022 0.0
C223 C 0.37369 0.54539 0.56649 0.0
H224 H 0.0524 0.31925 0.62742 0.0
H225 H 0.99258 0.31364 0.3932 0.0
H226 H 0.98216 0.3645 0.4253 0.0
H227 H 0.9904 0.41081 0.51952 0.0
H228 H 0.05295 0.41704 0.74671 0.0
H229 H 0.06208 0.36592 0.71762 0.0
C230 C 0.03705 0.32923 0.58368 0.0
C231 C 0.02324 0.31281 0.50837 0.0
C232 C 0.03173 0.35864 0.60114 0.0
C233 C 1.00359 0.32592 0.45144 0.0
C234 C 0.99758 0.35499 0.46985 0.0
C235 C 0.00594 0.40092 0.56284 0.0
C236 C 0.02081 0.41767 0.63558 0.0
C237 C 0.01157 0.37159 0.54443 0.0
C238 C 0.04123 0.40466 0.69014 0.0
C239 C 0.04643 0.3754 0.67374 0.0
H240 H 0.81832 0.95492 0.89484 0.0
H241 H 0.83228 0.02088 0.12286 0.0
H242 H 0.8846 0.03019 0.06102 0.0
H243 H 0.92605 0.02031 0.93912 0.0
H244 H 0.91214 0.95285 0.71505 0.0
H245 H 0.86034 0.94331 0.77862 0.0
C246 C 0.83293 0.97122 0.93116 0.0
C247 C 0.82152 0.9872 0.01294 0.0
C248 C 0.863 0.97623 0.89577 0.0
C249 C 0.8406 0.0082 0.05986 0.0
C250 C 0.87049 0.01359 0.02434 0.0
C251 C 0.91168 0.00354 0.90419 0.0
C252 C 0.92296 0.98753 0.82184 0.0
C253 C 0.88187 0.99788 0.94184 0.0
C254 C 0.90412 0.96558 0.77838 0.0
C255 C 0.87442 0.9601 0.81457 0.0
H256 H 0.5491 0.83249 0.07935 0.0
H257 H 0.57167 0.79998 0.78763 0.0
H258 H 0.56425 0.84715 0.72733 0.0
H259 H 0.54955 0.89703 0.75674 0.0
H260 H 0.52749 0.93003 0.04801 0.0
H261 H 0.53654 0.88328 0.10959 0.0
C262 C 0.55254 0.83579 0.00271 0.0
C263 C 0.56078 0.81281 0.93774 0.0
C264 C 0.5482 0.86298 0.96857 0.0
C265 C 0.56529 0.81742 0.83879 0.0
C266 C 0.56099 0.84433 0.80429 0.0
C267 C 0.54682 0.89397 0.83371 0.0
C268 C 0.53767 0.91674 0.8978 0.0
C269 C 0.55215 0.86716 0.86836 0.0
C270 C 0.53441 0.91268 -0.00263 0.0
C271 C 0.53957 0.88599 0.03253 0.0
H272 H 0.69807 0.52847 0.86568 0.0
H273 H 0.66971 0.46265 0.06321 0.0
H274 H 0.61819 0.46123 0.0079 0.0
H275 H 0.5811 0.47918 0.90275 0.0
H276 H 0.61058 0.54616 0.70955 0.0
H277 H 0.6616 0.54657 0.76361 0.0
C278 C 0.68057 0.51382 0.89669 0.0
C279 C 0.68762 0.49575 0.96829 0.0
C280 C 0.65115 0.51332 0.86516 0.0
C281 C 0.66481 0.47688 0.00809 0.0
C282 C 0.63537 0.47603 0.97633 0.0
C283 C 0.59873 0.49378 0.87237 0.0
C284 C 0.59189 0.51265 0.80223 0.0
C285 C 0.62825 0.49419 0.90476 0.0
C286 C 0.61502 0.53154 0.76405 0.0
C287 C 0.64431 0.53178 0.79476 0.0
H288 H 0.95996 0.69301 0.76943 0.0
H289 H 0.02741 0.7015 0.98133 0.0
H290 H 0.03822 0.65076 0.94876 0.0
H291 H 0.02771 0.60362 0.8622 0.0
H292 H 0.95823 0.59472 0.65644 0.0
H293 H 0.94892 0.64576 0.68476 0.0
C294 C 0.97712 0.68371 0.80799 0.0
C295 C 0.99286 0.70089 0.87746 0.0
C296 C 0.98274 0.65438 0.79039 0.0
C297 C 0.01489 0.68864 0.92769 0.0
C298 C 0.02109 0.65964 0.90908 0.0
C299 C 0.01061 0.61287 0.82334 0.0
C300 C 0.99376 0.59533 0.7572 0.0
C301 C 0.00502 0.64224 0.84099 0.0
C302 C 0.97146 0.60764 0.70815 0.0
C303 C 0.96616 0.63689 0.72403 0.0
H304 H 0.99135 0.14449 0.35713 0.0
H305 H 0.04669 0.17704 0.58875 0.0
H306 H 0.0396 0.13006 0.66228 0.0
H307 H 0.02446 0.07785 0.64381 0.0
H308 H 0.97286 0.04514 0.40378 0.0
H309 H 0.97276 0.09391 0.34674 0.0
C310 C 1.00131 0.14143 0.42495 0.0
C311 C 0.01967 0.16396 0.46742 0.0
C312 C 0.99854 0.11416 0.46298 0.0
C313 C 0.03236 0.15999 0.5553 0.0
C314 C 0.02866 0.13305 0.59627 0.0
C315 C 0.01224 0.08166 0.58145 0.0
C316 C 0.99809 0.05821 0.52916 0.0
C317 C 0.01279 0.10969 0.54852 0.0
C318 C 0.9838 0.063 0.44499 0.0
C319 C 0.98363 0.09083 0.41279 0.0
H320 H 0.39103 0.05994 0.4109 0.0
H321 H 0.32847 1.00109 0.56205 0.0
H322 H 0.36908 0.98736 0.65793 0.0
H323 H 0.4234 0.98706 0.68124 0.0
H324 H 0.48646 0.04405 0.52407 0.0
H325 H 0.44466 0.06325 0.4461 0.0
C326 C 0.38624 0.04449 0.46616 0.0
C327 C 0.35697 0.03121 0.47866 0.0
C328 C 0.40989 0.0358 0.51751 0.0
C329 C 0.3508 0.01164 0.55142 0.0
C330 C 0.3741 0.00348 0.60509 0.0
C331 C 0.42796 0.00367 0.62979 0.0
C332 C 0.45789 0.01375 0.60637 0.0
C333 C 0.40391 0.01449 0.58559 0.0
C334 C 0.46355 0.03574 0.54174 0.0
C335 C 0.4397 0.04676 0.49767 0.0
H336 H 0.54252 0.37065 0.32605 0.0
H337 H 0.46158 0.34528 0.49559 0.0
H338 H 0.464 0.39214 0.58669 0.0
H339 H 0.48461 0.44249 0.59934 0.0
H340 H 0.56472 0.4684 0.42655 0.0
H341 H 0.56668 0.41926 0.35272 0.0
C342 C 0.52575 0.37525 0.38425 0.0
C343 C 0.50169 0.3548 0.40343 0.0
C344 C 0.52667 0.40251 0.43341 0.0
C345 C 0.48034 0.36068 0.47982 0.0
C346 C 0.4815 0.38759 0.53087 0.0
C347 C 0.50286 0.43722 0.54705 0.0
C348 C 0.52442 0.45894 0.51782 0.0
C349 C 0.50383 0.40902 0.50539 0.0
C350 C 0.54776 0.45199 0.44937 0.0
C351 C 0.54893 0.42394 0.40751 0.0
H352 H 0.17547 0.51465 0.44359 0.0
H353 H 0.15421 0.42647 0.34387 0.0
H354 H 0.10188 0.42982 0.40721 0.0
H355 H 0.06074 0.46025 0.46859 0.0
H356 H 0.08191 0.54816 0.57168 0.0
H357 H 0.13565 0.54282 0.52848 0.0
C358 C 0.15963 0.49588 0.43964 0.0
C359 C 0.16847 0.47036 0.3896 0.0
C360 C 0.12938 0.49831 0.47333 0.0
C361 C 0.14776 0.44623 0.38307 0.0
C362 C 0.11778 0.4483 0.41772 0.0
C363 C 0.07722 0.47816 0.48123 0.0
C364 C 0.06762 0.5048 0.52011 0.0
C365 C 0.10804 0.47466 0.45864 0.0
C366 C 0.08902 0.52765 0.53972 0.0
C367 C 0.11967 0.52454 0.51573 0.0
H368 H 0.01928 0.84352 0.88425 0.0
H369 H 0.92706 0.85951 0.97569 0.0
H370 H 0.93564 0.90991 0.9356 0.0
H371 H 0.97149 0.95078 0.89838 0.0
H372 H 0.06211 0.93469 0.78997 0.0
H373 H 0.05248 0.88301 0.81553 0.0
C374 C 1.00077 0.85774 0.89146 0.0
C375 C 0.97271 0.84797 0.93404 0.0
C376 C 0.00598 0.88686 0.86929 0.0
C377 C 0.94891 0.86667 0.94346 0.0
C378 C 0.95392 0.89558 0.92201 0.0
C379 C 0.98899 0.93589 0.87961 0.0
C380 C 0.01766 0.94637 0.84484 0.0
C381 C 0.98275 0.90618 0.88945 0.0
C382 C 0.04006 0.92694 0.81895 0.0
C383 C 0.03446 0.89745 0.83266 0.0
H384 H 0.63737 0.9856 0.11246 0.0
H385 H 0.70501 0.04152 0.969 0.0
H386 H 0.66609 0.06008 0.87636 0.0
H387 H 0.61199 0.0636 0.84789 0.0
H388 H 0.54465 0.01205 0.00892 0.0
H389 H 0.58418 0.98923 0.08577 0.0
C390 C 0.64368 0.00193 0.06112 0.0
C391 C 0.67403 0.01249 0.04901 0.0
C392 C 0.6211 0.01369 0.01287 0.0
C393 C 0.68189 0.03289 0.97963 0.0
C394 C 0.65956 0.04384 0.92772 0.0
C395 C 0.60608 0.04755 0.90048 0.0
C396 C 0.57555 0.03912 0.92226 0.0
C397 C 0.62898 0.03505 0.94606 0.0
C398 C 0.56806 0.01824 0.98974 0.0
C399 C 0.59062 0.00533 0.03384 0.0
H400 H 0.47825 0.66107 0.08203 0.0
H401 H 0.55415 0.6833 0.88586 0.0
H402 H 0.5468 0.63666 0.79615 0.0
H403 H 0.52445 0.58716 0.79189 0.0
H404 H 0.44786 0.56444 0.98447 0.0
H405 H 0.45049 0.61358 0.06049 0.0
C406 C 0.49266 0.65589 0.01815 0.0
C407 C 0.5169 0.67533 0.99098 0.0
C408 C 0.4888 0.62877 0.96874 0.0
C409 C 0.53529 0.66869 0.90773 0.0
C410 C 0.53137 0.64189 0.8574 0.0
C411 C 0.50771 0.59316 0.84837 0.0
C412 C 0.48596 0.57232 0.88258 0.0
C413 C 0.50906 0.62138 0.88998 0.0
C414 C 0.46486 0.58018 0.95738 0.0
C415 C 0.46633 0.60823 0.00051 0.0
H416 H 0.85548 0.52606 0.06975 0.0
H417 H 0.82766 0.45127 0.8903 0.0
H418 H 0.87759 0.45282 0.80301 0.0
H419 H 0.93129 0.47131 0.79626 0.0
H420 H 0.95897 0.54403 0.9858 0.0
H421 H 0.90712 0.54703 0.05324 0.0
C422 C 0.86023 0.51047 0.01007 0.0
C423 C 0.83826 0.48843 0.98666 0.0
C424 C 0.88916 0.51068 0.96438 0.0
C425 C 0.84432 0.46845 0.90903 0.0
C426 C 0.87294 0.46913 0.8603 0.0
C427 C 0.92573 0.4881 0.85095 0.0
C428 C 0.94875 0.50736 0.88658 0.0
C429 C 0.89588 0.48945 0.89015 0.0
C430 C 0.94158 0.52878 0.9584 0.0
C431 C 0.91197 0.53062 -0.00355 0.0
H432 H 0.00937 0.19729 0.10523 0.0
H433 H 0.10007 0.18156 0.17044 0.0
H434 H 0.10218 0.14335 0.0413 0.0
H435 H 0.07383 0.10767 0.93727 0.0
H436 H 0.98204 0.12208 0.87832 0.0
H437 H 0.98454 0.16741 0.97732 0.0
C438 C 0.03012 0.18653 0.0873 0.0
C439 C 0.05455 0.19211 0.14649 0.0
C440 C 0.03044 0.16352 0.01683 0.0
C441 C 0.08119 0.17775 0.12454 0.0
C442 C 0.08212 0.1555 0.05216 0.0
C443 C 0.05461 0.12104 0.94495 0.0
C444 C 0.02753 0.1113 0.90319 0.0
C445 C 0.05618 0.14702 0.00235 0.0
C446 C 1.00294 0.12897 0.91157 0.0
C447 C 0.00438 0.15491 0.9679 0.0
H448 H 0.34961 0.06907 0.11742 0.0
H449 H 0.33525 0.97705 0.13475 0.0
H450 H 0.37696 0.96938 0.01401 0.0
H451 H 0.42302 0.98946 0.92687 0.0
H452 H 0.4378 0.08187 0.91387 0.0
H453 H 0.39069 0.0889 0.0097 0.0
C454 C 0.3547 0.04737 0.09073 0.0
C455 C 0.33929 0.02364 0.13333 0.0
C456 C 0.37958 0.04328 0.02508 0.0
C457 C 0.34648 0.99556 0.10091 0.0
C458 C 0.37074 0.99123 0.03358 0.0
C459 C 0.41578 0.01109 0.94473 0.0
C460 C 0.4342 0.03512 0.9156 0.0
C461 C 0.38844 0.01499 -0.00074 0.0
C462 C 0.4242 0.06302 0.93665 0.0
C463 C 0.3972 0.06708 0.99119 0.0
H464 H 0.44109 0.33783 0.10097 0.0
H465 H 0.53141 0.31458 0.01549 0.0
H466 H 0.53482 0.34933 0.88884 0.0
H467 H 0.51604 0.39342 0.82902 0.0
H468 H 0.42771 0.41975 0.93036 0.0
H469 H 0.41936 0.37692 0.02396 0.0
C470 C 0.46086 0.33942 0.05109 0.0
C471 C 0.48582 0.32362 0.0661 0.0
C472 C 0.46334 0.36082 0.98376 0.0
C473 C 0.51176 0.32622 0.00351 0.0
C474 C 0.51388 0.3465 0.93258 0.0
C475 C 0.49477 0.38938 0.87013 0.0
C476 C 0.47273 0.40987 0.87459 0.0
C477 C 0.49049 0.36509 0.92615 0.0
C478 C 0.44517 0.40444 0.92729 0.0
C479 C 0.44035 0.37994 0.98061 0.0
H480 H 0.20653 0.52164 0.05817 0.0
H481 H 0.19561 0.42884 0.02999 0.0
H482 H 0.15669 0.43157 0.91466 0.0
H483 H 0.11825 0.46043 0.8536 0.0
H484 H 0.1286 0.55332 0.88126 0.0
H485 H 0.1752 0.55074 0.96549 0.0
C486 C 0.19683 0.5021 0.02227 0.0
C487 C 0.20383 0.47508 0.05199 0.0
C488 C 0.17349 0.50394 0.95943 0.0
C489 C 0.19078 0.44982 0.00686 0.0
C490 C 0.16805 0.45141 0.94266 0.0
C491 C 0.13111 0.48005 0.87656 0.0
C492 C 0.11985 0.507 0.86409 0.0
C493 C 0.15793 0.47833 0.92363 0.0
C494 C 0.13683 0.53236 0.89161 0.0
C495 C 0.16341 0.53086 0.93962 0.0
H496 H 0.01162 0.81238 0.27851 0.0
H497 H 0.91638 0.82197 0.26212 0.0
H498 H 0.91727 0.85825 0.39722 0.0
H499 H 0.94769 0.89499 0.49014 0.0
H500 H 0.04332 0.88649 0.50379 0.0
H501 H 0.03993 0.84202 0.39988 0.0
C502 C 0.99082 0.82131 0.30825 0.0
C503 C 0.96404 0.81486 0.26062 0.0
C504 C 0.99188 0.84315 0.38273 0.0
C505 C 0.93718 0.82667 0.29847 0.0
C506 C 0.93783 0.84779 0.37438 0.0
C507 C 0.9676 0.88299 0.47187 0.0
C508 C 0.99582 0.89421 0.50162 0.0
C509 C 0.96545 0.85754 0.41225 0.0
C510 C 0.02143 0.87834 0.47999 0.0
C511 C 0.01951 0.85295 0.42068 0.0
H512 H 0.68817 0.04581 0.39304 0.0
H513 H 0.69285 0.95385 0.40023 0.0
H514 H 0.65241 0.9524 0.529 0.0
H515 H 0.60881 0.97622 0.61321 0.0
H516 H 0.60127 0.06739 0.58536 0.0
H517 H 0.6493 0.07038 0.49113 0.0
C518 C 0.68121 0.02571 0.4263 0.0
C519 C 0.69339 1.00004 0.38826 0.0
C520 C 0.65653 0.02482 0.494 0.0
C521 C 0.68401 0.97392 0.42982 0.0
C522 C 0.66046 0.97306 0.50188 0.0
C523 C 0.61803 0.99673 0.58754 0.0
C524 C 0.60127 0.0214 0.60397 0.0
C525 C 0.64537 0.99814 0.53031 0.0
C526 C 0.61342 0.04795 0.57125 0.0
C527 C 0.64099 0.04975 0.51801 0.0
H528 H 0.50372 0.70632 0.37156 0.0
H529 H 0.59624 0.69523 0.27368 0.0
H530 H 0.59954 0.65795 0.38887 0.0
H531 H 0.57231 0.62159 0.48991 0.0
H532 H 0.47913 0.63217 0.58389 0.0
H533 H 0.47973 0.67656 0.49848 0.0
C534 C 0.52502 0.69679 0.37955 0.0
C535 C 0.54974 0.70343 0.31521 0.0
C536 C 0.52622 0.67453 0.44266 0.0
C537 C 0.57713 0.69067 0.32397 0.0
C538 C 0.57879 0.66895 0.38836 0.0
C539 C 0.55238 0.63399 0.49304 0.0
C540 C 0.52549 0.62335 0.54057 0.0
C541 C 0.55289 0.65952 0.4436 0.0
C542 C 0.49994 0.63976 0.54613 0.0
C543 C 0.50027 0.66516 0.49747 0.0
H544 H 0.81767 0.52855 0.31519 0.0
H545 H 0.79735 0.43801 0.35182 0.0
H546 H 0.83512 0.43875 0.47381 0.0
H547 H 0.88141 0.46291 0.54103 0.0
H548 H 0.90593 0.55152 0.47993 0.0
H549 H 0.85957 0.55398 0.39621 0.0
C550 C 0.82052 0.50938 0.35377 0.0
C551 C 0.80466 0.48336 0.32575 0.0
C552 C 0.84407 0.50947 0.41643 0.0
C553 C 0.80893 0.45838 0.37379 0.0
C554 C 0.83104 0.45871 0.44178 0.0
C555 C 0.87621 0.48283 0.51073 0.0
C556 C 0.89714 0.50689 0.51512 0.0
C557 C 0.84999 0.48371 0.45906 0.0
C558 C 0.89032 0.53262 0.47589 0.0
C559 C 0.86376 0.53408 0.42846 0.0
loop_
_geom_bond_atom_site_label_1
_geom_bond_atom_site_label_2
_geom_bond_distance
_geom_bond_site_symmetry_2
_ccdc_geom_bond_type
H0 C5 0.930 . S
H1 C8 0.930 . S
H2 C10 0.930 . S
H3 C4 1.016 1_556 S
C4 H3 1.016 1_554 S
C4 N11 1.286 . S
C5 H0 0.930 . S
C5 C6 1.397 . S
C5 C7 1.361 . S
C6 C5 1.397 . S
C6 C10 1.390 . S
C7 C5 1.361 . S
C7 C8 1.393 1_554 S
C7 N11 1.413 . S
C8 H1 0.930 . S
C8 C7 1.393 1_556 S
C8 C9 1.399 1_556 S
C9 C8 1.399 1_554 S
C9 C10 1.381 . S
C10 H2 0.930 . S
C10 C6 1.390 . S
C10 C9 1.381 . S
N11 C4 1.286 . S
N11 C7 1.413 . S
H12 C17 0.930 . S
H13 C20 0.930 . S
H14 C22 0.930 . S
H15 C16 1.016 . S
C16 H15 1.016 . S
C16 N23 1.286 1_556 S
C17 H12 0.930 . S
C17 C18 1.397 . S
C17 C19 1.361 . S
C18 C17 1.397 . S
C18 C22 1.390 . S
C19 C17 1.361 . S
C19 C20 1.393 1_554 S
C19 N23 1.413 . S
C20 H13 0.930 . S
C20 C19 1.393 1_556 S
C20 C21 1.399 . S
C21 C20 1.399 . S
C21 C22 1.381 1_556 S
C22 H14 0.930 . S
C22 C18 1.390 . S
C22 C21 1.381 1_554 S
N23 C16 1.286 1_554 S
N23 C19 1.413 . S
H24 C29 0.930 . S
H25 C32 0.930 1_556 S
H26 C34 0.930 . S
H27 C28 1.016 1_556 S
C28 H27 1.016 1_554 S
C28 N35 1.286 . S
C29 H24 0.930 . S
C29 C30 1.397 . S
C29 C31 1.361 . S
C30 C29 1.397 . S
C30 C34 1.390 . S
C31 C29 1.361 . S
C31 C32 1.393 . S
C31 N35 1.413 . S
C32 H25 0.930 1_554 S
C32 C31 1.393 . S
C32 C33 1.399 . S
C33 C32 1.399 . S
C33 C34 1.381 . S
C34 H26 0.930 . S
C34 C30 1.390 . S
C34 C33 1.381 . S
N35 C28 1.286 . S
N35 C31 1.413 . S
H36 C41 0.930 . S
H37 C44 0.930 1_556 S
H38 C46 0.930 . S
H39 C40 1.016 1_556 S
C40 H39 1.016 1_554 S
C40 N47 1.286 . S
C41 H36 0.930 . S
C41 C42 1.397 . S
C41 C43 1.361 . S
C42 C41 1.397 . S
C42 C46 1.390 . S
C43 C41 1.361 . S
C43 C44 1.393 . S
C43 N47 1.413 . S
C44 H37 0.930 1_554 S
C44 C43 1.393 . S
C44 C45 1.399 . S
C45 C44 1.399 . S
C45 C46 1.381 . S
C46 H38 0.930 . S
C46 C42 1.390 . S
C46 C45 1.381 . S
N47 C40 1.286 . S
N47 C43 1.413 . S
H48 C53 0.930 . S
H49 C56 0.930 . S
H50 C58 0.930 . S
H51 C52 1.016 . S
C52 H51 1.016 . S
C52 N59 1.286 . S
C53 H48 0.930 . S
C53 C54 1.397 . S
C53 C55 1.361 . S
C54 C53 1.397 . S
C54 C58 1.390 . S
C55 C53 1.361 . S
C55 C56 1.393 . S
C55 N59 1.413 . S
C56 H49 0.930 . S
C56 C55 1.393 . S
C56 C57 1.399 . S
C57 C56 1.399 . S
C57 C58 1.381 . S
C58 H50 0.930 . S
C58 C54 1.390 . S
C58 C57 1.381 . S
N59 C52 1.286 . S
N59 C55 1.413 . S
H60 C65 0.930 . S
H61 C68 0.930 . S
H62 C70 0.930 . S
H63 C64 1.016 . S
C64 H63 1.016 . S
C64 N71 1.286 . S
C65 H60 0.930 . S
C65 C66 1.397 . S
C65 C67 1.361 . S
C66 C65 1.397 . S
C66 C70 1.390 . S
C67 C65 1.361 . S
C67 C68 1.393 . S
C67 N71 1.413 . S
C68 H61 0.930 . S
C68 C67 1.393 . S
C68 C69 1.399 . S
C69 C68 1.399 . S
C69 C70 1.381 . S
C70 H62 0.930 . S
C70 C66 1.390 . S
C70 C69 1.381 . S
N71 C64 1.286 . S
N71 C67 1.413 . S
H72 C77 0.930 . S
H73 C80 0.930 . S
H74 C82 0.930 . S
H75 C76 1.016 . S
C76 H75 1.016 . S
C76 N83 1.286 . S
C77 H72 0.930 . S
C77 C78 1.397 . S
C77 C79 1.361 . S
C78 C77 1.397 . S
C78 C82 1.390 . S
C79 C77 1.361 . S
C79 C80 1.393 . S
C79 N83 1.413 . S
C80 H73 0.930 . S
C80 C79 1.393 . S
C80 C81 1.399 . S
C81 C80 1.399 . S
C81 C82 1.381 . S
C82 H74 0.930 . S
C82 C78 1.390 . S
C82 C81 1.381 . S
N83 C76 1.286 . S
N83 C79 1.413 . S
H84 C89 0.930 . S
H85 C92 0.930 . S
H86 C94 0.930 . S
H87 C88 1.016 . S
C88 H87 1.016 . S
C88 N95 1.286 . S
C89 H84 0.930 . S
C89 C90 1.397 . S
C89 C91 1.361 . S
C90 C89 1.397 . S
C90 C94 1.390 . S
C91 C89 1.361 . S
C91 C92 1.393 . S
C91 N95 1.413 . S
C92 H85 0.930 . S
C92 C91 1.393 . S
C92 C93 1.399 . S
C93 C92 1.399 . S
C93 C94 1.381 . S
C94 H86 0.930 . S
C94 C90 1.390 . S
C94 C93 1.381 . S
N95 C88 1.286 . S
N95 C91 1.413 . S
Tb96 O99 2.453 1_565 S
Tb96 O100 2.596 1_665 S
Tb96 O101 2.374 1_665 S
Tb96 O109 2.343 1_655 S
Tb96 O111 2.353 1_565 S
Tb96 O113 2.427 . S
Tb96 O114 2.513 1_655 S
C97 O101 1.251 . S
C97 O103 1.263 . S
Tb98 O100 2.343 . S
Tb98 O103 2.353 . S
Tb98 O106 2.427 . S
Tb98 O107 2.510 1_455 S
Tb98 O108 2.453 1_545 S
Tb98 O109 2.596 1_545 S
Tb98 O110 2.374 1_455 S
O99 Tb96 2.453 1_545 S
O99 C115 1.245 1_655 S
O100 Tb96 2.596 1_445 S
O100 Tb98 2.343 . S
O100 C115 1.259 . S
O101 Tb96 2.374 1_445 S
O101 C97 1.251 . S
C102 O106 1.275 . S
C102 O107 1.240 1_455 S
O103 C97 1.263 . S
O103 Tb98 2.353 . S
C104 O108 1.245 . S
C104 O109 1.259 . S
C105 O110 1.250 . S
C105 O111 1.263 . S
O106 Tb98 2.427 . S
O106 C102 1.275 . S
O107 Tb98 2.510 1_655 S
O107 C102 1.240 1_655 S
O108 Tb98 2.453 1_565 S
O108 C104 1.245 . S
O109 Tb96 2.343 1_455 S
O109 Tb98 2.596 1_565 S
O109 C104 1.259 . S
O110 Tb98 2.374 1_655 S
O110 C105 1.250 . S
O111 Tb96 2.353 1_545 S
O111 C105 1.263 . S
C112 O113 1.275 . S
C112 O114 1.246 1_655 S
O113 Tb96 2.427 . S
O113 C112 1.275 . S
O114 Tb96 2.513 1_455 S
O114 C112 1.246 1_455 S
C115 O99 1.245 1_455 S
C115 O100 1.259 . S
Tb116 O119 2.453 . S
Tb116 O120 2.596 1_545 S
Tb116 O121 2.374 . S
Tb116 O129 2.343 . S
Tb116 O131 2.353 . S
Tb116 O133 2.427 . S
Tb116 O134 2.513 . S
C117 O121 1.251 1_565 S
C117 O123 1.263 . S
Tb118 O120 2.343 . S
Tb118 O123 2.353 . S
Tb118 O126 2.427 . S
Tb118 O127 2.513 . S
Tb118 O128 2.453 . S
Tb118 O129 2.596 1_565 S
Tb118 O130 2.374 . S
O119 Tb116 2.453 . S
O119 C135 1.245 . S
O120 Tb116 2.596 1_565 S
O120 Tb118 2.343 . S
O120 C135 1.259 1_565 S
O121 Tb116 2.374 . S
O121 C117 1.251 1_545 S
C122 O126 1.275 . S
C122 O127 1.246 . S
O123 C117 1.263 . S
O123 Tb118 2.353 . S
C124 O128 1.245 1_545 S
C124 O129 1.259 . S
C125 O130 1.250 1_545 S
C125 O131 1.263 . S
O126 Tb118 2.427 . S
O126 C122 1.275 . S
O127 Tb118 2.513 . S
O127 C122 1.246 . S
O128 Tb118 2.453 . S
O128 C124 1.245 1_565 S
O129 Tb116 2.343 . S
O129 Tb118 2.596 1_545 S
O129 C124 1.259 . S
O130 Tb118 2.374 . S
O130 C125 1.250 1_565 S
O131 Tb116 2.353 . S
O131 C125 1.263 . S
C132 O133 1.275 . S
C132 O134 1.246 . S
O133 Tb116 2.427 . S
O133 C132 1.275 . S
O134 Tb116 2.513 . S
O134 C132 1.246 . S
C135 O119 1.245 . S
C135 O120 1.259 1_545 S
Tb136 O139 2.453 . S
Tb136 O140 2.596 . S
Tb136 O141 2.374 . S
Tb136 O149 2.343 . S
Tb136 O151 2.353 . S
Tb136 O153 2.427 . S
Tb136 O154 2.513 . S
C137 O141 1.251 . S
C137 O143 1.263 . S
Tb138 O140 2.343 . S
Tb138 O143 2.353 . S
Tb138 O146 2.427 . S
Tb138 O147 2.513 . S
Tb138 O148 2.453 . S
Tb138 O149 2.596 . S
Tb138 O150 2.374 . S
O139 Tb136 2.453 . S
O139 C155 1.245 . S
O140 Tb136 2.596 . S
O140 Tb138 2.343 . S
O140 C155 1.259 . S
O141 Tb136 2.374 . S
O141 C137 1.251 . S
C142 O146 1.275 . S
C142 O147 1.246 . S
O143 C137 1.263 . S
O143 Tb138 2.353 . S
C144 O148 1.245 . S
C144 O149 1.259 . S
C145 O150 1.250 . S
C145 O151 1.263 . S
O146 Tb138 2.427 . S
O146 C142 1.275 . S
O147 Tb138 2.513 . S
O147 C142 1.246 . S
O148 Tb138 2.453 . S
O148 C144 1.245 . S
O149 Tb136 2.343 . S
O149 Tb138 2.596 . S
O149 C144 1.259 . S
O150 Tb138 2.374 . S
O150 C145 1.250 . S
O151 Tb136 2.353 . S
O151 C145 1.263 . S
C152 O153 1.275 . S
C152 O154 1.246 . S
O153 Tb136 2.427 . S
O153 C152 1.275 . S
O154 Tb136 2.513 . S
O154 C152 1.246 . S
C155 O139 1.245 . S
C155 O140 1.259 . S
Tb156 O159 2.453 1_655 S
Tb156 O160 2.596 1_655 S
Tb156 O161 2.374 1_655 S
Tb156 O169 2.343 . S
Tb156 O171 2.353 1_655 S
Tb156 O173 2.427 . S
Tb156 O174 2.513 . S
C157 O161 1.251 . S
C157 O163 1.263 . S
Tb158 O160 2.343 . S
Tb158 O163 2.353 . S
Tb158 O166 2.427 . S
Tb158 O167 2.513 . S
Tb158 O168 2.453 1_455 S
Tb158 O169 2.596 1_455 S
Tb158 O170 2.374 . S
O159 Tb156 2.453 1_455 S
O159 C175 1.245 . S
O160 Tb156 2.596 1_455 S
O160 Tb158 2.343 . S
O160 C175 1.259 . S
O161 Tb156 2.374 1_455 S
O161 C157 1.251 . S
C162 O166 1.275 . S
C162 O167 1.246 . S
O163 C157 1.263 . S
O163 Tb158 2.353 . S
C164 O168 1.245 . S
C164 O169 1.259 . S
C165 O170 1.250 . S
C165 O171 1.263 . S
O166 Tb158 2.427 . S
O166 C162 1.275 . S
O167 Tb158 2.513 . S
O167 C162 1.246 . S
O168 Tb158 2.453 1_655 S
O168 C164 1.245 . S
O169 Tb156 2.343 . S
O169 Tb158 2.596 1_655 S
O169 C164 1.259 . S
O170 Tb158 2.374 . S
O170 C165 1.250 . S
O171 Tb156 2.353 1_455 S
O171 C165 1.263 . S
C172 O173 1.275 . S
C172 O174 1.246 . S
O173 Tb156 2.427 . S
O173 C172 1.275 . S
O174 Tb156 2.513 . S
O174 C172 1.246 . S
C175 O159 1.245 . S
C175 O160 1.259 . S
H176 C182 0.930 . S
H177 C185 0.930 . S
H178 C186 0.930 . S
H179 C187 0.930 . S
H180 C190 0.930 . S
H181 C191 0.930 . S
C182 H176 0.930 . S
C182 C183 1.355 . S
C182 C184 1.415 . S
C183 C182 1.355 . S
C183 C185 1.419 . S
C184 C182 1.415 . S
C184 C189 1.425 . S
C184 C191 1.409 . S
C185 H177 0.930 . S
C185 C183 1.419 . S
C185 C186 1.362 . S
C186 H178 0.930 . S
C186 C185 1.362 . S
C186 C189 1.409 . S
C187 H179 0.930 . S
C187 C188 1.355 . S
C187 C189 1.415 . S
C188 C187 1.355 . S
C188 C190 1.419 . S
C189 C184 1.425 . S
C189 C186 1.409 . S
C189 C187 1.415 . S
C190 H180 0.930 . S
C190 C188 1.419 . S
C190 C191 1.362 . S
C191 H181 0.930 . S
C191 C184 1.409 . S
C191 C190 1.362 . S
H192 C198 0.930 . S
H193 C201 0.930 . S
H194 C202 0.930 . S
H195 C203 0.930 . S
H196 C206 0.930 . S
H197 C207 0.930 . S
C198 H192 0.930 . S
C198 C199 1.355 . S
C198 C200 1.415 . S
C199 C198 1.355 . S
C199 C201 1.419 . S
C200 C198 1.415 . S
C200 C205 1.425 . S
C200 C207 1.409 . S
C201 H193 0.930 . S
C201 C199 1.419 . S
C201 C202 1.362 . S
C202 H194 0.930 . S
C202 C201 1.362 . S
C202 C205 1.409 . S
C203 H195 0.930 . S
C203 C204 1.355 . S
C203 C205 1.415 . S
C204 C203 1.355 . S
C204 C206 1.419 . S
C205 C200 1.425 . S
C205 C202 1.409 . S
C205 C203 1.415 . S
C206 H196 0.930 . S
C206 C204 1.419 . S
C206 C207 1.362 . S
C207 H197 0.930 . S
C207 C200 1.409 . S
C207 C206 1.362 . S
H208 C214 0.930 . S
H209 C217 0.930 . S
H210 C218 0.930 . S
H211 C219 0.930 . S
H212 C222 0.930 . S
H213 C223 0.930 . S
C214 H208 0.930 . S
C214 C215 1.355 . S
C214 C216 1.415 . S
C215 C214 1.355 . S
C215 C217 1.419 . S
C216 C214 1.415 . S
C216 C221 1.425 . S
C216 C223 1.409 . S
C217 H209 0.930 . S
C217 C215 1.419 . S
C217 C218 1.362 . S
C218 H210 0.930 . S
C218 C217 1.362 . S
C218 C221 1.409 . S
C219 H211 0.930 . S
C219 C220 1.355 . S
C219 C221 1.415 . S
C220 C219 1.355 . S
C220 C222 1.419 . S
C221 C216 1.425 . S
C221 C218 1.409 . S
C221 C219 1.415 . S
C222 H212 0.930 . S
C222 C220 1.419 . S
C222 C223 1.362 . S
C223 H213 0.930 . S
C223 C216 1.409 . S
C223 C222 1.362 . S
H224 C230 0.930 . S
H225 C233 0.930 . S
H226 C234 0.930 1_655 S
H227 C235 0.930 1_655 S
H228 C238 0.930 . S
H229 C239 0.930 . S
C230 H224 0.930 . S
C230 C231 1.355 . S
C230 C232 1.415 . S
C231 C230 1.355 . S
C231 C233 1.419 . S
C232 C230 1.415 . S
C232 C237 1.425 . S
C232 C239 1.409 . S
C233 H225 0.930 . S
C233 C231 1.419 . S
C233 C234 1.362 . S
C234 H226 0.930 1_455 S
C234 C233 1.362 . S
C234 C237 1.409 . S
C235 H227 0.930 1_455 S
C235 C236 1.355 . S
C235 C237 1.415 . S
C236 C235 1.355 . S
C236 C238 1.419 . S
C237 C232 1.425 . S
C237 C234 1.409 . S
C237 C235 1.415 . S
C238 H228 0.930 . S
C238 C236 1.419 . S
C238 C239 1.362 . S
C239 H229 0.930 . S
C239 C232 1.409 . S
C239 C238 1.362 . S
H240 C246 0.930 . S
H241 C249 0.929 1_545 S
H242 C250 0.930 1_554 S
H243 C251 0.930 . S
H244 C254 0.930 . S
H245 C255 0.930 . S
C246 H240 0.930 . S
C246 C247 1.355 . S
C246 C248 1.415 . S
C247 C246 1.355 . S
C247 C249 1.420 1_556 S
C248 C246 1.415 . S
C248 C253 1.425 . S
C248 C255 1.409 . S
C249 H241 0.929 1_565 S
C249 C247 1.420 1_554 S
C249 C250 1.362 1_564 S
C250 H242 0.930 1_556 S
C250 C249 1.362 1_546 S
C250 C253 1.409 1_545 S
C251 H243 0.930 . S
C251 C252 1.355 1_545 S
C251 C253 1.415 1_545 S
C252 C251 1.355 1_565 S
C252 C254 1.419 . S
C253 C248 1.425 . S
C253 C250 1.409 1_565 S
C253 C251 1.415 1_565 S
C254 H244 0.930 . S
C254 C252 1.419 . S
C254 C255 1.362 . S
C255 H245 0.930 . S
C255 C248 1.409 . S
C255 C254 1.362 . S
H256 C262 0.930 . S
H257 C265 0.930 1_554 S
H258 C266 0.930 . S
H259 C267 0.930 . S
H260 C270 0.930 . S
H261 C271 0.930 . S
C262 H256 0.930 . S
C262 C263 1.355 . S
C262 C264 1.415 . S
C263 C262 1.355 . S
C263 C265 1.419 . S
C264 C262 1.415 . S
C264 C269 1.425 . S
C264 C271 1.409 . S
C265 H257 0.930 1_556 S
C265 C263 1.419 . S
C265 C266 1.362 . S
C266 H258 0.930 . S
C266 C265 1.362 . S
C266 C269 1.409 . S
C267 H259 0.930 . S
C267 C268 1.355 . S
C267 C269 1.415 . S
C268 C267 1.355 . S
C268 C270 1.419 . S
C269 C264 1.425 . S
C269 C266 1.409 . S
C269 C267 1.415 . S
C270 H260 0.930 . S
C270 C268 1.419 . S
C270 C271 1.362 . S
C271 H261 0.930 . S
C271 C264 1.409 . S
C271 C270 1.362 . S
H272 C278 0.930 . S
H273 C281 0.930 . S
H274 C282 0.930 . S
H275 C283 0.930 . S
H276 C286 0.930 . S
H277 C287 0.930 . S
C278 H272 0.930 . S
C278 C279 1.355 . S
C278 C280 1.415 . S
C279 C278 1.355 . S
C279 C281 1.419 1_556 S
C280 C278 1.415 . S
C280 C285 1.425 . S
C280 C287 1.409 . S
C281 H273 0.930 . S
C281 C279 1.419 1_554 S
C281 C282 1.362 . S
C282 H274 0.930 . S
C282 C281 1.362 . S
C282 C285 1.409 1_554 S
C283 H275 0.930 . S
C283 C284 1.355 . S
C283 C285 1.415 . S
C284 C283 1.355 . S
C284 C286 1.419 . S
C285 C280 1.425 . S
C285 C282 1.409 1_556 S
C285 C283 1.415 . S
C286 H276 0.930 . S
C286 C284 1.419 . S
C286 C287 1.362 . S
C287 H277 0.930 . S
C287 C280 1.409 . S
C287 C286 1.362 . S
H288 C294 0.930 . S
H289 C297 0.930 . S
H290 C298 0.930 1_554 S
H291 C299 0.930 . S
H292 C302 0.930 . S
H293 C303 0.930 1_455 S
C294 H288 0.930 . S
C294 C295 1.355 . S
C294 C296 1.415 . S
C295 C294 1.355 . S
C295 C297 1.419 1_556 S
C296 C294 1.415 . S
C296 C301 1.425 . S
C296 C303 1.409 . S
C297 H289 0.930 . S
C297 C295 1.419 1_554 S
C297 C298 1.362 1_554 S
C298 H290 0.930 1_556 S
C298 C297 1.362 1_556 S
C298 C301 1.409 . S
C299 H291 0.930 . S
C299 C300 1.355 . S
C299 C301 1.415 . S
C300 C299 1.355 . S
C300 C302 1.419 1_655 S
C301 C296 1.425 . S
C301 C298 1.409 . S
C301 C299 1.415 . S
C302 H292 0.930 . S
C302 C300 1.419 1_455 S
C302 C303 1.362 1_455 S
C303 H293 0.930 1_655 S
C303 C296 1.409 . S
C303 C302 1.362 1_655 S
H304 C310 0.930 . S
H305 C313 0.930 . S
H306 C314 0.930 . S
H307 C315 0.930 . S
H308 C318 0.930 . S
H309 C319 0.902 1_655 S
C310 H304 0.930 . S
C310 C311 1.355 . S
C310 C312 1.415 . S
C311 C310 1.355 . S
C311 C313 1.419 . S
C312 C310 1.415 . S
C312 C317 1.425 . S
C312 C319 1.439 . S
C313 H305 0.930 . S
C313 C311 1.419 . S
C313 C314 1.362 . S
C314 H306 0.930 . S
C314 C313 1.362 . S
C314 C317 1.409 . S
C315 H307 0.930 . S
C315 C316 1.355 . S
C315 C317 1.415 . S
C316 C315 1.355 . S
C316 C318 1.419 1_455 S
C317 C312 1.425 . S
C317 C314 1.409 . S
C317 C315 1.415 . S
C318 H308 0.930 . S
C318 C316 1.419 1_655 S
C318 C319 1.360 1_655 S
C319 H309 0.902 1_455 S
C319 C312 1.439 . S
C319 C318 1.360 1_455 S
H320 C326 0.930 . S
H321 C329 0.930 . S
H322 C330 0.930 . S
H323 C331 0.930 . S
H324 C334 0.930 . S
H325 C335 0.930 . S
C326 H320 0.930 . S
C326 C327 1.355 . S
C326 C328 1.415 . S
C327 C326 1.355 . S
C327 C329 1.419 . S
C328 C326 1.415 . S
C328 C333 1.425 . S
C328 C335 1.409 . S
C329 H321 0.930 . S
C329 C327 1.419 . S
C329 C330 1.362 . S
C330 H322 0.930 . S
C330 C329 1.362 . S
C330 C333 1.409 . S
C331 H323 0.930 . S
C331 C332 1.355 . S
C331 C333 1.415 . S
C332 C331 1.355 . S
C332 C334 1.419 . S
C333 C328 1.425 . S
C333 C330 1.409 . S
C333 C331 1.415 . S
C334 H324 0.930 . S
C334 C332 1.419 . S
C334 C335 1.362 . S
C335 H325 0.930 . S
C335 C328 1.409 . S
C335 C334 1.362 . S
H336 C342 0.930 . S
H337 C345 0.930 . S
H338 C346 0.930 . S
H339 C347 0.930 . S
H340 C350 0.930 . S
H341 C351 0.930 . S
C342 H336 0.930 . S
C342 C343 1.355 . S
C342 C344 1.415 . S
C343 C342 1.355 . S
C343 C345 1.419 . S
C344 C342 1.415 . S
C344 C349 1.425 . S
C344 C351 1.409 . S
C345 H337 0.930 . S
C345 C343 1.419 . S
C345 C346 1.362 . S
C346 H338 0.930 . S
C346 C345 1.362 . S
C346 C349 1.409 . S
C347 H339 0.930 . S
C347 C348 1.355 . S
C347 C349 1.415 . S
C348 C347 1.355 . S
C348 C350 1.419 . S
C349 C344 1.425 . S
C349 C346 1.409 . S
C349 C347 1.415 . S
C350 H340 0.930 . S
C350 C348 1.419 . S
C350 C351 1.362 . S
C351 H341 0.930 . S
C351 C344 1.409 . S
C351 C350 1.362 . S
H352 C358 0.930 . S
H353 C361 0.930 . S
H354 C362 0.930 . S
H355 C363 0.930 . S
H356 C366 0.930 . S
H357 C367 0.930 . S
C358 H352 0.930 . S
C358 C359 1.355 . S
C358 C360 1.415 . S
C359 C358 1.355 . S
C359 C361 1.419 . S
C360 C358 1.415 . S
C360 C365 1.425 . S
C360 C367 1.409 . S
C361 H353 0.930 . S
C361 C359 1.419 . S
C361 C362 1.362 . S
C362 H354 0.930 . S
C362 C361 1.362 . S
C362 C365 1.409 . S
C363 H355 0.930 . S
C363 C364 1.355 . S
C363 C365 1.415 . S
C364 C363 1.355 . S
C364 C366 1.419 . S
C365 C360 1.425 . S
C365 C362 1.409 . S
C365 C363 1.415 . S
C366 H356 0.930 . S
C366 C364 1.419 . S
C366 C367 1.362 . S
C367 H357 0.930 . S
C367 C360 1.409 . S
C367 C366 1.362 . S
H368 C374 0.930 . S
H369 C377 0.930 1_554 S
H370 C378 0.930 1_554 S
H371 C379 0.930 . S
H372 C382 0.931 1_455 S
H373 C383 0.930 . S
C374 H368 0.930 . S
C374 C375 1.355 . S
C374 C376 1.415 . S
C375 C374 1.355 . S
C375 C377 1.419 . S
C376 C374 1.415 . S
C376 C381 1.425 . S
C376 C383 1.409 . S
C377 H369 0.930 1_556 S
C377 C375 1.419 . S
C377 C378 1.362 . S
C378 H370 0.930 1_556 S
C378 C377 1.362 . S
C378 C381 1.409 . S
C379 H371 0.930 . S
C379 C380 1.355 . S
C379 C381 1.415 . S
C380 C379 1.355 . S
C380 C382 1.418 . S
C381 C376 1.425 . S
C381 C378 1.409 . S
C381 C379 1.415 . S
C382 H372 0.931 1_655 S
C382 C380 1.418 . S
C382 C383 1.362 . S
C383 H373 0.930 . S
C383 C376 1.409 . S
C383 C382 1.362 . S
H384 C390 0.930 1_554 S
H385 C393 0.930 . S
H386 C394 0.905 1_545 S
H387 C395 0.930 . S
H388 C398 0.930 . S
H389 C399 0.930 1_554 S
C390 H384 0.930 1_556 S
C390 C391 1.355 . S
C390 C392 1.415 . S
C391 C390 1.355 . S
C391 C393 1.419 . S
C392 C390 1.415 . S
C392 C397 1.425 . S
C392 C399 1.409 . S
C393 H385 0.930 . S
C393 C391 1.419 . S
C393 C394 1.380 . S
C394 H386 0.905 1_565 S
C394 C393 1.380 . S
C394 C397 1.418 . S
C395 H387 0.930 . S
C395 C396 1.355 1_545 S
C395 C397 1.415 1_545 S
C396 C395 1.355 1_565 S
C396 C398 1.419 . S
C397 C392 1.425 . S
C397 C394 1.418 . S
C397 C395 1.415 1_565 S
C398 H388 0.930 . S
C398 C396 1.419 . S
C398 C399 1.362 . S
C399 H389 0.930 1_556 S
C399 C392 1.409 . S
C399 C398 1.362 . S
H400 C406 0.930 1_554 S
H401 C409 0.930 . S
H402 C410 0.930 . S
H403 C411 0.930 . S
H404 C414 0.930 . S
H405 C415 0.930 1_554 S
C406 H400 0.930 1_556 S
C406 C407 1.355 . S
C406 C408 1.415 . S
C407 C406 1.355 . S
C407 C409 1.419 . S
C408 C406 1.415 . S
C408 C413 1.425 . S
C408 C415 1.409 . S
C409 H401 0.930 . S
C409 C407 1.419 . S
C409 C410 1.362 . S
C410 H402 0.930 . S
C410 C409 1.362 . S
C410 C413 1.409 . S
C411 H403 0.930 . S
C411 C412 1.355 . S
C411 C413 1.415 . S
C412 C411 1.355 . S
C412 C414 1.419 . S
C413 C408 1.425 . S
C413 C410 1.409 . S
C413 C411 1.415 . S
C414 H404 0.930 . S
C414 C412 1.419 . S
C414 C415 1.362 . S
C415 H405 0.930 1_556 S
C415 C408 1.409 . S
C415 C414 1.362 . S
H416 C422 0.930 . S
H417 C425 0.930 . S
H418 C426 0.930 1_554 S
H419 C427 0.930 . S
H420 C430 0.930 . S
H421 C431 0.930 . S
C422 H416 0.930 . S
C422 C423 1.355 . S
C422 C424 1.415 . S
C423 C422 1.355 . S
C423 C425 1.419 1_556 S
C424 C422 1.415 . S
C424 C429 1.425 . S
C424 C431 1.409 . S
C425 H417 0.930 . S
C425 C423 1.419 1_554 S
C425 C426 1.362 1_554 S
C426 H418 0.930 1_556 S
C426 C425 1.362 1_556 S
C426 C429 1.409 . S
C427 H419 0.930 . S
C427 C428 1.355 . S
C427 C429 1.415 . S
C428 C427 1.355 . S
C428 C430 1.419 . S
C429 C424 1.425 . S
C429 C426 1.409 . S
C429 C427 1.415 . S
C430 H420 0.930 . S
C430 C428 1.419 . S
C430 C431 1.362 . S
C431 H421 0.930 . S
C431 C424 1.409 . S
C431 C430 1.362 . S
H432 C438 0.930 . S
H433 C441 0.930 . S
H434 C442 0.930 . S
H435 C443 0.930 . S
H436 C446 0.930 1_655 S
H437 C447 0.930 1_655 S
C438 H432 0.930 . S
C438 C439 1.355 . S
C438 C440 1.415 . S
C439 C438 1.355 . S
C439 C441 1.419 . S
C440 C438 1.415 . S
C440 C445 1.425 . S
C440 C447 1.409 . S
C441 H433 0.930 . S
C441 C439 1.419 . S
C441 C442 1.362 . S
C442 H434 0.930 . S
C442 C441 1.362 . S
C442 C445 1.409 . S
C443 H435 0.930 . S
C443 C444 1.355 . S
C443 C445 1.415 1_556 S
C444 C443 1.355 . S
C444 C446 1.419 1_556 S
C445 C440 1.425 . S
C445 C442 1.409 . S
C445 C443 1.415 1_554 S
C446 H436 0.930 1_455 S
C446 C444 1.419 1_554 S
C446 C447 1.362 . S
C447 H437 0.930 1_455 S
C447 C440 1.409 . S
C447 C446 1.362 . S
H448 C454 0.930 . S
H449 C457 0.930 . S
H450 C458 0.930 . S
H451 C459 0.930 . S
H452 C462 0.930 . S
H453 C463 0.930 . S
C454 H448 0.930 . S
C454 C455 1.355 . S
C454 C456 1.415 . S
C455 C454 1.355 . S
C455 C457 1.419 . S
C456 C454 1.415 . S
C456 C461 1.425 . S
C456 C463 1.409 1_554 S
C457 H449 0.930 . S
C457 C455 1.419 . S
C457 C458 1.362 . S
C458 H450 0.930 . S
C458 C457 1.362 . S
C458 C461 1.409 . S
C459 H451 0.930 . S
C459 C460 1.355 1_554 S
C459 C461 1.415 . S
C460 C459 1.355 1_556 S
C460 C462 1.419 . S
C461 C456 1.425 . S
C461 C458 1.409 . S
C461 C459 1.415 . S
C462 H452 0.930 . S
C462 C460 1.419 . S
C462 C463 1.362 . S
C463 H453 0.930 . S
C463 C456 1.409 1_556 S
C463 C462 1.362 . S
H464 C470 0.930 . S
H465 C473 0.930 . S
H466 C474 0.930 . S
H467 C475 0.930 . S
H468 C478 0.930 1_556 S
H469 C479 0.930 . S
C470 H464 0.930 . S
C470 C471 1.355 . S
C470 C472 1.415 . S
C471 C470 1.355 . S
C471 C473 1.419 . S
C472 C470 1.415 . S
C472 C477 1.425 . S
C472 C479 1.409 . S
C473 H465 0.930 . S
C473 C471 1.419 . S
C473 C474 1.362 . S
C474 H466 0.930 . S
C474 C473 1.362 . S
C474 C477 1.409 . S
C475 H467 0.930 . S
C475 C476 1.355 . S
C475 C477 1.415 1_556 S
C476 C475 1.355 . S
C476 C478 1.419 1_556 S
C477 C472 1.425 . S
C477 C474 1.409 . S
C477 C475 1.415 1_554 S
C478 H468 0.930 1_554 S
C478 C476 1.419 1_554 S
C478 C479 1.362 . S
C479 H469 0.930 . S
C479 C472 1.409 . S
C479 C478 1.362 . S
H480 C486 0.930 . S
H481 C489 0.930 . S
H482 C490 0.930 . S
H483 C491 0.930 . S
H484 C494 0.930 . S
H485 C495 0.930 . S
C486 H480 0.930 . S
C486 C487 1.355 . S
C486 C488 1.415 . S
C487 C486 1.355 . S
C487 C489 1.419 . S
C488 C486 1.415 . S
C488 C493 1.425 . S
C488 C495 1.409 1_554 S
C489 H481 0.930 . S
C489 C487 1.419 . S
C489 C490 1.362 . S
C490 H482 0.930 . S
C490 C489 1.362 . S
C490 C493 1.409 . S
C491 H483 0.930 . S
C491 C492 1.355 1_554 S
C491 C493 1.415 . S
C492 C491 1.355 1_556 S
C492 C494 1.419 . S
C493 C488 1.425 . S
C493 C490 1.409 . S
C493 C491 1.415 . S
C494 H484 0.930 . S
C494 C492 1.419 . S
C494 C495 1.362 . S
C495 H485 0.930 . S
C495 C488 1.409 1_556 S
C495 C494 1.362 . S
H496 C502 0.930 . S
H497 C505 0.930 . S
H498 C506 0.930 . S
H499 C507 0.930 . S
H500 C510 0.930 . S
H501 C511 0.930 . S
C502 H496 0.930 . S
C502 C503 1.355 . S
C502 C504 1.415 . S
C503 C502 1.355 . S
C503 C505 1.419 . S
C504 C502 1.415 . S
C504 C509 1.425 . S
C504 C511 1.409 1_655 S
C505 H497 0.930 . S
C505 C503 1.419 . S
C505 C506 1.362 . S
C506 H498 0.930 . S
C506 C505 1.362 . S
C506 C509 1.409 . S
C507 H499 0.930 . S
C507 C508 1.355 . S
C507 C509 1.415 . S
C508 C507 1.355 . S
C508 C510 1.419 1_655 S
C509 C504 1.425 . S
C509 C506 1.409 . S
C509 C507 1.415 . S
C510 H500 0.930 . S
C510 C508 1.419 1_455 S
C510 C511 1.362 . S
C511 H501 0.930 . S
C511 C504 1.409 1_455 S
C511 C510 1.362 . S
H512 C518 0.930 1_545 S
H513 C521 0.930 . S
H514 C522 0.930 . S
H515 C523 0.930 . S
H516 C526 0.930 . S
H517 C527 0.930 . S
C518 H512 0.930 1_565 S
C518 C519 1.355 . S
C518 C520 1.415 . S
C519 C518 1.355 . S
C519 C521 1.419 . S
C520 C518 1.415 . S
C520 C525 1.425 . S
C520 C527 1.409 1_565 S
C521 H513 0.930 . S
C521 C519 1.419 . S
C521 C522 1.362 . S
C522 H514 0.930 . S
C522 C521 1.362 . S
C522 C525 1.409 . S
C523 H515 0.930 . S
C523 C524 1.355 . S
C523 C525 1.415 . S
C524 C523 1.355 . S
C524 C526 1.419 1_565 S
C525 C520 1.425 . S
C525 C522 1.409 . S
C525 C523 1.415 . S
C526 H516 0.930 . S
C526 C524 1.419 1_545 S
C526 C527 1.362 . S
C527 H517 0.930 . S
C527 C520 1.409 1_545 S
C527 C526 1.362 . S
H528 C534 0.930 . S
H529 C537 0.930 . S
H530 C538 0.930 . S
H531 C539 0.930 . S
H532 C542 0.930 . S
H533 C543 0.930 . S
C534 H528 0.930 . S
C534 C535 1.355 . S
C534 C536 1.415 . S
C535 C534 1.355 . S
C535 C537 1.419 . S
C536 C534 1.415 . S
C536 C541 1.425 . S
C536 C543 1.409 . S
C537 H529 0.930 . S
C537 C535 1.419 . S
C537 C538 1.362 . S
C538 H530 0.930 . S
C538 C537 1.362 . S
C538 C541 1.409 . S
C539 H531 0.930 . S
C539 C540 1.355 . S
C539 C541 1.415 . S
C540 C539 1.355 . S
C540 C542 1.419 . S
C541 C536 1.425 . S
C541 C538 1.409 . S
C541 C539 1.415 . S
C542 H532 0.930 . S
C542 C540 1.419 . S
C542 C543 1.362 . S
C543 H533 0.930 . S
C543 C536 1.409 . S
C543 C542 1.362 . S
H544 C550 0.930 . S
H545 C553 0.930 . S
H546 C554 0.930 . S
H547 C555 0.930 . S
H548 C558 0.930 . S
H549 C559 0.930 . S
C550 H544 0.930 . S
C550 C551 1.355 . S
C550 C552 1.415 . S
C551 C550 1.355 . S
C551 C553 1.419 . S
C552 C550 1.415 . S
C552 C557 1.425 . S
C552 C559 1.409 . S
C553 H545 0.930 . S
C553 C551 1.419 . S
C553 C554 1.362 . S
C554 H546 0.930 . S
C554 C553 1.362 . S
C554 C557 1.409 . S
C555 H547 0.930 . S
C555 C556 1.355 . S
C555 C557 1.415 . S
C556 C555 1.355 . S
C556 C558 1.419 . S
C557 C552 1.425 . S
C557 C554 1.409 . S
C557 C555 1.415 . S
C558 H548 0.930 . S
C558 C556 1.419 . S
C558 C559 1.362 . S
C559 H549 0.930 . S
C559 C552 1.409 . S
C559 C558 1.362 . S
C183 C76 1.530 . S
C188 C97 1.589 . S
C204 C132 1.591 . S
C199 C88 1.557 . S
C220 C137 1.356 . S
C215 C52 1.355 . S
C236 C157 1.505 . S
C231 C64 1.443 . S
C252 C105 1.606 1_565 S
C247 C28 1.573 1_556 S
C263 C40 1.567 1_556 S
C268 C122 1.591 . S
C279 C4 1.355 1_556 S
C284 C145 1.357 . S
C295 C16 1.500 . S
C300 C165 1.495 1_655 S
C316 C115 1.280 . S
C311 C69 1.330 . S
C332 C124 1.102 . S
C327 C81 1.080 . S
C348 C155 1.358 . S
C343 C93 1.371 . S
C359 C57 1.051 . S
C364 C175 1.018 . S
C375 C21 1.233 . S
C380 C104 1.348 1_655 S
C396 C135 1.086 1_565 S
C391 C33 1.092 1_556 S
C412 C144 1.337 . S
C407 C45 1.375 1_556 S
C423 C9 0.993 1_556 S
C428 C164 1.080 . S
C439 C66 1.475 . S
C444 C102 1.472 . S
C455 C78 1.454 . S
C460 C125 1.538 . S
C476 C142 1.560 . S
C471 C90 1.554 . S
C492 C162 1.593 . S
C487 C54 1.515 . S
C503 C18 1.484 . S
C508 C112 1.461 . S
C524 C117 1.533 . S
C519 C30 1.475 . S
C540 C152 1.552 . S
C535 C42 1.550 . S
C551 C6 1.534 . S
C556 C172 1.569 . S
