# Generated by pormake.
# Topology sqc, (4,8)-cn, num edge types: 1
# Building blocks:
#     Node 0, Type 0, BuildingBlock: KUFVIS_clean_linker_0, # of connection points: 4
#     Node 1, Type 0, BuildingBlock: KUFVIS_clean_linker_0, # of connection points: 4
#     Node 2, Type 0, BuildingBlock: KUFVIS_clean_linker_0, # of connection points: 4
#     Node 3, Type 0, BuildingBlock: KUFVIS_clean_linker_0, # of connection points: 4
#     Node 4, Type 0, BuildingBlock: KUFVIS_clean_linker_0, # of connection points: 4
#     Node 5, Type 0, BuildingBlock: KUFVIS_clean_linker_0, # of connection points: 4
#     Node 6, Type 0, BuildingBlock: KUFVIS_clean_linker_0, # of connection points: 4
#     Node 7, Type 0, BuildingBlock: KUFVIS_clean_linker_0, # of connection points: 4
#     Node 8, Type 1, BuildingBlock: VETTIZ_charged_sbu_0, # of connection points: 8
#     Node 9, Type 1, BuildingBlock: VETTIZ_charged_sbu_0, # of connection points: 8
#     Node 10, Type 1, BuildingBlock: VETTIZ_charged_sbu_0, # of connection points: 8
#     Node 11, Type 1, BuildingBlock: VETTIZ_charged_sbu_0, # of connection points: 8
#     Edge 12, Type (0, 1), BuildingBlock: AJUNOK_clean_linker_0, # of connection points: 2
#     Edge 13, Type (0, 1), BuildingBlock: AJUNOK_clean_linker_0, # of connection points: 2
#     Edge 14, Type (0, 1), BuildingBlock: AJUNOK_clean_linker_0, # of connection points: 2
#     Edge 15, Type (0, 1), BuildingBlock: AJUNOK_clean_linker_0, # of connection points: 2
#     Edge 16, Type (0, 1), BuildingBlock: AJUNOK_clean_linker_0, # of connection points: 2
#     Edge 17, Type (0, 1), BuildingBlock: AJUNOK_clean_linker_0, # of connection points: 2
#     Edge 18, Type (0, 1), BuildingBlock: AJUNOK_clean_linker_0, # of connection points: 2
#     Edge 19, Type (0, 1), BuildingBlock: AJUNOK_clean_linker_0, # of connection points: 2
#     Edge 20, Type (0, 1), BuildingBlock: AJUNOK_clean_linker_0, # of connection points: 2
#     Edge 21, Type (0, 1), BuildingBlock: AJUNOK_clean_linker_0, # of connection points: 2
#     Edge 22, Type (0, 1), BuildingBlock: AJUNOK_clean_linker_0, # of connection points: 2
#     Edge 23, Type (0, 1), BuildingBlock: AJUNOK_clean_linker_0, # of connection points: 2
#     Edge 24, Type (0, 1), BuildingBlock: AJUNOK_clean_linker_0, # of connection points: 2
#     Edge 25, Type (0, 1), BuildingBlock: AJUNOK_clean_linker_0, # of connection points: 2
#     Edge 26, Type (0, 1), BuildingBlock: AJUNOK_clean_linker_0, # of connection points: 2
#     Edge 27, Type (0, 1), BuildingBlock: AJUNOK_clean_linker_0, # of connection points: 2
#     Edge 28, Type (0, 1), BuildingBlock: AJUNOK_clean_linker_0, # of connection points: 2
#     Edge 29, Type (0, 1), BuildingBlock: AJUNOK_clean_linker_0, # of connection points: 2
#     Edge 30, Type (0, 1), BuildingBlock: AJUNOK_clean_linker_0, # of connection points: 2
#     Edge 31, Type (0, 1), BuildingBlock: AJUNOK_clean_linker_0, # of connection points: 2
#     Edge 32, Type (0, 1), BuildingBlock: AJUNOK_clean_linker_0, # of connection points: 2
#     Edge 33, Type (0, 1), BuildingBlock: AJUNOK_clean_linker_0, # of connection points: 2
#     Edge 34, Type (0, 1), BuildingBlock: AJUNOK_clean_linker_0, # of connection points: 2
#     Edge 35, Type (0, 1), BuildingBlock: AJUNOK_clean_linker_0, # of connection points: 2
#     Edge 36, Type (0, 1), BuildingBlock: AJUNOK_clean_linker_0, # of connection points: 2
#     Edge 37, Type (0, 1), BuildingBlock: AJUNOK_clean_linker_0, # of connection points: 2
#     Edge 38, Type (0, 1), BuildingBlock: AJUNOK_clean_linker_0, # of connection points: 2
#     Edge 39, Type (0, 1), BuildingBlock: AJUNOK_clean_linker_0, # of connection points: 2
#     Edge 40, Type (0, 1), BuildingBlock: AJUNOK_clean_linker_0, # of connection points: 2
#     Edge 41, Type (0, 1), BuildingBlock: AJUNOK_clean_linker_0, # of connection points: 2
#     Edge 42, Type (0, 1), BuildingBlock: AJUNOK_clean_linker_0, # of connection points: 2
#     Edge 43, Type (0, 1), BuildingBlock: AJUNOK_clean_linker_0, # of connection points: 2
# Relax obj value: 0.164
# Max RMSD: 0.278
# Mean RMSD: 0.218
data_MOF--net-sqc--node1-VETTIZ_charged_sbu_0--node2-KUFVIS_clean_linker_0--edge1-AJUNOK_clean_linker_0
_symmetry_space_group_name_H-M    P1
_symmetry_Int_Tables_number       1
_symmetry_cell_setting            triclinic
loop_
_symmetry_equiv_pos_as_xyz
'x, y, z'
_cell_length_a     17.867395
_cell_length_b     17.969591
_cell_length_c     54.082132
_cell_angle_alpha  89.22156
_cell_angle_beta   89.781361
_cell_angle_gamma 88.213169
loop_
_atom_site_label
_atom_site_type_symbol
_atom_site_fract_x
_atom_site_fract_y
_atom_site_fract_z
_atom_type_partial_charge
H0 H 0.79424 0.07875 0.47311 0.0
H1 H 0.99859 0.08811 0.51286 0.0
H2 H 1.00307 0.04463 0.43435 0.0
H3 H 0.11771 0.98759 0.44615 0.0
H4 H 0.31059 0.06048 0.48551 0.0
H5 H 0.09627 0.1535 0.50348 0.0
C6 C 0.85496 0.07666 0.473 0.0
C7 C 0.89402 0.05974 0.45116 0.0
C8 C 0.89301 0.08775 0.49503 0.0
C9 C 0.97083 0.08273 0.49525 0.0
C10 C 1.01218 0.07017 0.47334 0.0
C11 C 0.97296 0.05708 0.45128 0.0
C12 C 0.09561 0.07081 0.47438 0.0
C13 C 0.14194 1.02359 0.45965 0.0
C14 C 0.21998 1.01981 0.46357 0.0
C15 C 0.25073 0.06299 0.48212 0.0
C16 C 0.2053 0.10739 0.49715 0.0
C17 C 0.12929 0.11518 0.49228 0.0
H18 H 0.29026 0.07263 0.72884 0.0
H19 H 0.19882 0.87335 0.75821 0.0
H20 H 0.33482 0.86899 0.69138 0.0
H21 H 0.27941 0.77048 0.68144 0.0
H22 H 0.20413 0.56527 0.71144 0.0
H23 H 0.20731 0.75395 0.75817 0.0
C24 C 0.28471 1.01275 0.72816 0.0
C25 C 0.31822 0.9739 0.70873 0.0
C26 C 0.24694 0.97638 0.747 0.0
C27 C 0.23238 0.8998 0.74422 0.0
C28 C 0.2605 0.85869 0.72357 0.0
C29 C 0.30639 0.89734 0.70634 0.0
C30 C 0.24297 0.77668 0.7201 0.0
C31 C 0.25637 0.74095 0.69706 0.0
C32 C 0.24259 0.66478 0.69392 0.0
C33 C 0.21116 0.6247 0.71333 0.0
C34 C 0.19844 0.65633 0.73632 0.0
C35 C 0.21492 0.7319 0.73984 0.0
H36 H 0.77823 0.09725 0.00348 0.0
H37 H 0.57336 1.00138 0.02647 0.0
H38 H 0.58119 0.14535 0.96131 0.0
H39 H 0.47549 0.10246 0.95019 0.0
H40 H 0.26216 0.04768 -0.01932 0.0
H41 H 0.45455 1.02076 0.02609 0.0
C42 C 0.71796 0.09383 0.00171 0.0
C43 C 0.68307 0.12654 -0.01886 0.0
C44 C 0.67893 0.04993 0.01841 0.0
C45 C 0.60161 0.03883 0.01407 0.0
C46 C 0.56279 0.07411 -0.00636 0.0
C47 C 0.60597 0.11803 0.97733 0.0
C48 C 0.47883 0.06492 -0.0109 0.0
C49 C 0.44327 0.08411 0.96592 0.0
C50 C 0.36481 0.07726 0.96265 0.0
C51 C 0.32237 0.05203 -0.01747 0.0
C52 C 0.35517 1.02964 0.00463 0.0
C53 C 0.43235 0.03674 0.0082 0.0
H54 H 0.2476 0.54931 0.24788 0.0
H55 H 0.24274 0.34478 0.28829 0.0
H56 H 0.2088 0.346 0.20914 0.0
H57 H 0.14523 0.23333 0.22114 0.0
H58 H 0.23761 1.03499 0.25668 0.0
H59 H 0.31455 0.24629 0.27778 0.0
C60 C 0.23959 0.48976 0.24792 0.0
C61 C 0.22394 0.45374 0.22574 0.0
C62 C 0.2489 0.44994 0.27007 0.0
C63 C 0.2374 0.37379 0.27066 0.0
C64 C 0.22398 0.33464 0.24882 0.0
C65 C 0.21663 0.37533 0.22624 0.0
C66 C 0.22608 0.25128 0.25014 0.0
C67 C 0.18177 0.2071 0.23484 0.0
C68 C 0.18587 0.12843 0.23708 0.0
C69 C 0.23204 0.09521 0.25522 0.0
C70 C 0.27709 0.13805 0.26995 0.0
C71 C 0.27536 0.21509 0.26711 0.0
H72 H 0.84922 0.51464 0.25962 0.0
H73 H 0.75154 0.31163 0.28285 0.0
H74 H 0.90052 0.3153 0.21939 0.0
H75 H 0.83318 0.21477 0.20896 0.0
H76 H 0.80151 1.00196 0.24383 0.0
H77 H 0.80083 0.19601 0.28837 0.0
C78 C 0.84645 0.45465 0.25789 0.0
C79 C 0.87972 0.41994 0.23756 0.0
C80 C 0.80051 0.41613 0.27409 0.0
C81 C 0.79063 0.33954 0.27083 0.0
C82 C 0.82885 0.30035 0.25169 0.0
C83 C 0.8728 0.34219 0.23485 0.0
C84 C 0.82066 0.2171 0.24906 0.0
C85 C 0.82569 0.18188 0.22563 0.0
C86 C 0.81814 0.10396 0.22361 0.0
C87 C 0.80686 0.06177 0.2451 0.0
C88 C 0.79908 0.09454 0.26816 0.0
C89 C 0.80619 0.17189 0.2702 0.0
H90 H 0.84483 0.04988 0.71544 0.0
H91 H 0.91541 0.84548 0.7509 0.0
H92 H 0.7636 0.84482 0.68844 0.0
H93 H 0.8372 0.73981 0.67913 0.0
H94 H 0.82983 0.53343 0.71864 0.0
H95 H 0.86181 0.73453 0.75874 0.0
C96 C 0.8459 0.98938 0.71597 0.0
C97 C 0.80025 0.95187 0.69982 0.0
C98 C 0.88433 0.95211 0.73493 0.0
C99 C 0.88432 0.87374 0.73623 0.0
C100 C 0.84438 0.83285 0.71861 0.0
C101 C 0.80022 0.87348 0.70079 0.0
C102 C 0.84636 0.74869 0.71908 0.0
C103 C 0.84049 0.70986 0.69662 0.0
C104 C 0.83842 0.63198 0.69654 0.0
C105 C 0.83949 0.59267 0.71893 0.0
C106 C 0.85074 0.62736 0.74152 0.0
C107 C 0.85393 0.7063 0.7415 0.0
H108 H 0.77659 0.57468 0.97265 0.0
H109 H 0.56708 0.5028 0.9452 0.0
H110 H 0.58734 0.58079 0.02069 0.0
H111 H 0.4651 0.60121 0.02012 0.0
H112 H 0.27445 0.47215 0.00381 0.0
H113 H 0.46725 0.4515 0.9577 0.0
C114 C 0.71693 0.56729 0.97512 0.0
C115 C 0.68488 0.58491 -0.00224 0.0
C116 C 0.67563 0.53696 0.95618 0.0
C117 C 0.59853 0.52435 0.96036 0.0
C118 C 0.56354 0.5405 -0.01625 0.0
C119 C 0.60926 0.57006 0.00238 0.0
C120 C 0.48148 0.52431 -0.01076 0.0
C121 C 0.4404 0.55857 0.00917 0.0
C122 C 0.36486 0.54056 0.01423 0.0
C123 C 0.33198 0.48647 5e-05 0.0
C124 C 0.36691 0.45916 0.9789 0.0
C125 C 0.44185 0.47577 0.97396 0.0
H126 H 0.29895 0.54937 0.48625 0.0
H127 H 0.0932 0.51049 0.52475 0.0
H128 H 0.09238 0.59668 0.44962 0.0
H129 H 1.0002 0.51548 0.44465 0.0
H130 H 0.78671 0.4912 0.47914 0.0
H131 H 0.97382 0.54628 0.52363 0.0
C132 C 0.2383 0.552 0.48718 0.0
C133 C 0.19991 0.57942 0.46653 0.0
C134 C 0.20155 0.53345 0.50915 0.0
C135 C 0.12266 0.5282 0.50841 0.0
C136 C 0.08193 0.54536 0.48632 0.0
C137 C 0.12166 0.57537 0.46583 0.0
C138 C 0.99895 0.53179 0.48449 0.0
C139 C 0.96611 0.51734 0.46121 0.0
C140 C 0.8889 0.5051 0.45903 0.0
C141 C 0.8457 0.50229 0.48059 0.0
C142 C 0.87526 0.51664 0.50389 0.0
C143 C 0.95188 0.5323 0.50574 0.0
Fe144 Fe 1.0236 0.78062 0.14741 0.0
O145 O 0.08169 0.82661 0.12007 0.0
Fe146 Fe 0.85531 0.7409 0.12145 0.0
Fe147 Fe 0.19128 0.82244 0.12112 0.0
O148 O 0.96471 0.73884 0.12005 0.0
O149 O 0.96524 0.73804 0.11743 0.0
O150 O 0.08071 0.8286 0.11741 0.0
Fe151 Fe 1.02208 0.78559 0.08959 0.0
C152 C 0.13296 0.89307 0.16805 0.0
O153 O 0.09 0.68708 0.14668 0.0
O154 O 0.19976 0.73894 0.14876 0.0
O155 O 0.94863 0.73083 0.0655 0.0
O156 O 0.86678 0.67049 0.09204 0.0
O157 O 0.87473 0.66297 0.14853 0.0
O158 O 0.95852 0.72006 0.17312 0.0
O159 O 0.20749 0.74331 0.09511 0.0
O160 O 0.09723 0.69353 0.0868 0.0
C161 C 0.91532 0.66498 0.16813 0.0
O162 O 0.94528 0.87787 0.08776 0.0
O163 O 0.83788 0.82096 0.09534 0.0
O164 O 0.09005 0.83727 0.17306 0.0
O165 O 0.17321 0.89776 0.14829 0.0
C166 C 0.15846 0.68287 0.15212 0.0
C167 C 0.16906 0.69375 0.08526 0.0
C168 C 0.14986 0.88791 0.07041 0.0
O169 O 0.18137 0.89585 0.09179 0.0
O170 O 0.09498 0.8435 0.06541 0.0
C171 C 0.8945 0.68474 0.07027 0.0
O172 O 0.84602 0.82303 0.14879 0.0
O173 O 0.95687 0.87405 0.14789 0.0
C174 C 0.87381 0.8732 0.08544 0.0
C175 C 0.88748 0.87876 0.15217 0.0
Fe176 Fe 0.59511 0.76211 0.42073 0.0
O177 O 0.59693 0.75913 0.38443 0.0
Fe178 Fe 0.55585 0.85386 0.36544 0.0
Fe179 Fe 0.54851 0.68123 0.36459 0.0
O180 O 0.59616 0.76638 0.38464 0.0
O181 O 0.5043 0.77684 0.34599 0.0
O182 O 0.50414 0.76878 0.34595 0.0
Fe183 Fe 0.50733 0.77458 0.30964 0.0
C184 C 0.65956 0.61162 0.40269 0.0
O185 O 0.50579 0.69172 0.42457 0.0
O186 O 0.45598 0.68217 0.38706 0.0
O187 O 0.4402 0.86843 0.31379 0.0
O188 O 0.50509 0.93583 0.34239 0.0
O189 O 0.46314 0.86349 0.38816 0.0
O190 O 0.52074 0.85099 0.42431 0.0
O191 O 0.48709 0.61233 0.34143 0.0
O192 O 0.42779 0.69557 0.31432 0.0
C193 C 0.46326 0.86926 0.41157 0.0
O194 O 0.59289 0.84965 0.30632 0.0
O195 O 0.64842 0.84825 0.34291 0.0
O196 O 0.66379 0.67047 0.4161 0.0
O197 O 0.60742 0.59989 0.38643 0.0
C198 C 0.45103 0.67803 0.4104 0.0
C199 C 0.43373 0.63194 0.32599 0.0
C200 C 0.63273 0.65612 0.31934 0.0
O201 O 0.63972 0.6757 0.34159 0.0
O202 O 0.58049 0.68382 0.30585 0.0
C203 C 0.45599 0.92958 0.32485 0.0
O204 O 0.61972 0.92236 0.38798 0.0
O205 O 0.67608 0.83922 0.41561 0.0
C206 C 0.64644 0.86747 0.32031 0.0
C207 C 0.67307 0.90165 0.40324 0.0
Fe208 Fe 0.55591 0.34243 0.66697 0.0
O209 O 0.55469 0.35168 0.63095 0.0
Fe210 Fe 0.46011 0.31667 0.61216 0.0
Fe211 Fe 0.63457 0.30876 0.60913 0.0
O212 O 0.5472 0.35225 0.63105 0.0
O213 O 0.53962 0.2717 0.59037 0.0
O214 O 0.54772 0.27164 0.59017 0.0
Fe215 Fe 0.53854 0.28526 0.55421 0.0
C216 C 0.70167 0.40863 0.64808 0.0
O217 O 0.63424 0.25479 0.66749 0.0
O218 O 0.63922 0.21048 0.6292 0.0
O219 O 0.45176 0.2141 0.55796 0.0
O220 O 0.38055 0.27075 0.58867 0.0
O221 O 0.45875 0.21902 0.63268 0.0
O222 O 0.47294 0.26562 0.67022 0.0
O223 O 0.7062 0.25684 0.58331 0.0
O224 O 0.62564 0.20779 0.5549 0.0
C225 C 0.45639 0.2124 0.65612 0.0
O226 O 0.45511 0.36794 0.55433 0.0
O227 O 0.4554 0.41415 0.59208 0.0
O228 O 0.64277 0.41304 0.66211 0.0
O229 O 0.7148 0.35789 0.63151 0.0
C230 C 0.64872 0.20217 0.65237 0.0
C231 C 0.69048 0.21199 0.56545 0.0
C232 C 0.64716 0.41062 0.56623 0.0
O233 O 0.63581 0.40666 0.58933 0.0
O234 O 0.62093 0.36351 0.55147 0.0
C235 C 0.38969 0.22635 0.56995 0.0
O236 O 0.38931 0.37485 0.63713 0.0
O237 O 0.4723 0.42309 0.66481 0.0
C238 C 0.4336 0.41677 0.56984 0.0
C239 C 0.40962 0.42534 0.65271 0.0
Fe240 Fe 1.02318 0.30271 0.88917 0.0
O241 O 0.98503 0.24186 0.86183 0.0
Fe242 Fe 0.0557 0.47173 0.86222 0.0
Fe243 Fe 0.99306 0.13348 0.86383 0.0
O244 O 0.06528 0.36327 0.86168 0.0
O245 O 0.06817 0.36203 0.85896 0.0
O246 O 0.98441 0.24235 0.85912 0.0
Fe247 Fe 1.02816 0.30189 0.83109 0.0
C248 C 0.12986 0.17283 0.89497 0.0
O249 O 0.96983 0.23347 0.91492 0.0
O250 O 0.91376 0.14844 0.89065 0.0
O251 O 0.93162 0.37041 0.82863 0.0
O252 O 0.97691 0.48278 0.83548 0.0
O253 O 0.96977 0.47598 0.88876 0.0
O254 O 0.92394 0.36329 0.88864 0.0
O255 O 0.92302 0.14014 0.83342 0.0
O256 O 0.97865 0.22543 0.80703 0.0
C257 C 0.91545 0.43242 0.89236 0.0
O258 O 0.08076 0.37965 0.80682 0.0
O259 O 0.13091 0.46564 0.83339 0.0
O260 O 0.12218 0.24188 0.89034 0.0
O261 O 0.07547 0.12944 0.89152 0.0
C262 C 0.91722 0.18705 0.91055 0.0
C263 C 0.93903 0.16626 0.81146 0.0
C264 C 0.12193 0.15908 0.82701 0.0
O265 O 0.07434 0.12147 0.83862 0.0
O266 O 0.12413 0.2305 0.82873 0.0
C267 C 0.92883 0.44151 0.82603 0.0
O268 O 0.13113 0.4579 0.89026 0.0
O269 O 0.07316 0.37222 0.91471 0.0
C270 C 0.12164 0.43751 0.81162 0.0
C271 C 0.12656 0.41807 0.91025 0.0
C272 C 0.27768 0.97367 0.42394 0.0
C273 C 0.27162 0.96886 0.44983 0.0
C274 C 0.33858 0.93933 0.41147 0.0
C275 C 0.39625 0.90078 0.42459 0.0
H276 H 0.23741 1.00731 0.41341 0.0
H277 H 0.3421 0.94591 0.39156 0.0
S278 S 0.40073 0.86566 0.49256 0.0
N279 N 0.32207 0.91398 0.48777 0.0
N280 N 0.44008 0.85695 0.46507 0.0
C281 C 0.38868 0.89342 0.45046 0.0
C282 C 0.32528 0.92515 0.46285 0.0
C283 C 0.34898 1.03487 0.66799 0.0
C284 C 0.36889 1.01679 0.69253 0.0
C285 C 0.3807 0.0959 0.65558 0.0
C286 C 0.43102 0.14205 0.66772 0.0
H287 H 0.30498 1.00522 0.65901 0.0
H288 H 0.36187 0.10993 0.63703 0.0
S289 S 0.50576 0.11244 0.73123 0.0
N290 N 0.44915 0.04296 0.72719 0.0
N291 N 0.5022 0.16144 0.70522 0.0
C292 C 0.45401 0.12144 0.69177 0.0
C293 C 0.42494 0.05759 0.70375 0.0
C294 C 0.26562 0.04692 0.93191 0.0
C295 C 0.3219 0.09551 0.93935 0.0
C296 C 0.20588 0.07115 0.91669 0.0
C297 C 0.20042 0.14471 0.90754 0.0
H298 H 0.26438 0.99098 0.93962 0.0
H299 H 0.16179 1.03272 0.91316 0.0
S300 S 0.34665 0.28619 0.91449 0.0
N301 N 0.37645 0.21571 0.93213 0.0
N302 N 0.26715 0.2604 0.90221 0.0
C303 C 0.26183 0.19078 0.91204 0.0
C304 C 0.32198 0.16632 0.92809 0.0
C305 C 0.11988 1.01186 0.22605 0.0
C306 C 0.15406 0.07827 0.21844 0.0
C307 C 0.11061 0.9528 0.20963 0.0
C308 C 0.13582 0.95775 0.18502 0.0
H309 H 0.10417 1.00389 0.24525 0.0
H310 H 0.08676 0.90191 0.21658 0.0
S311 S 0.2172 0.12509 0.15495 0.0
N312 N 0.20498 0.14862 0.18408 0.0
N313 N 0.18661 0.03973 0.15305 0.0
C314 C 0.16461 1.02647 0.17678 0.0
C315 C 0.17361 0.08627 0.19347 0.0
C316 C 0.24529 0.21642 0.52102 0.0
C317 C 0.23718 0.13938 0.51945 0.0
C318 C 0.28911 0.24573 0.53967 0.0
C319 C 0.32398 0.19903 0.55756 0.0
H320 H 0.22271 0.25335 0.5067 0.0
H321 H 0.30142 0.30426 0.53868 0.0
S322 S 0.31268 0.99437 0.56274 0.0
N323 N 0.26168 1.01739 0.53822 0.0
N324 N 0.34363 0.07329 0.57353 0.0
C325 C 0.31166 0.12263 0.55717 0.0
C326 C 0.26795 0.09258 0.53805 0.0
C327 C 0.14811 1.01128 0.77796 0.0
C328 C 0.22018 1.02129 0.76866 0.0
C329 C 0.11884 0.05654 0.79661 0.0
C330 C 0.15881 0.11601 0.80666 0.0
H331 H 0.11284 0.96928 0.77041 0.0
H332 H 0.06297 0.04464 0.80299 0.0
S333 S 0.3534 0.16182 0.79061 0.0
N334 N 0.33487 0.09096 0.77271 0.0
N335 N 0.27638 0.17933 0.8068 0.0
C336 C 0.2314 0.12655 0.79785 0.0
C337 C 0.26275 0.07851 0.77918 0.0
C338 C 0.2535 0.03572 0.03621 0.0
C339 C 0.30626 0.99302 0.02272 0.0
C340 C 0.19766 1.00136 0.05019 0.0
C341 C 0.19111 0.92357 0.05027 0.0
H342 H 0.25554 0.09593 0.03591 0.0
H343 H 0.16063 0.03555 0.06155 0.0
S344 S 0.31425 0.78787 0.01726 0.0
N345 N 0.34782 0.8698 0.00977 0.0
N346 N 0.24214 0.80519 0.03575 0.0
C347 C 0.24243 0.8807 0.03633 0.0
C348 C 0.30017 0.91548 0.02259 0.0
C349 C 0.31682 0.0854 0.31092 0.0
C350 C 0.33294 0.10005 0.28589 0.0
C351 C 0.36159 1.03439 0.32467 0.0
C352 C 0.42287 0.99709 0.31353 0.0
H353 H 0.26691 0.10978 0.31936 0.0
H354 H 0.34515 1.02014 0.34341 0.0
S355 S 0.49111 1.02168 0.24925 0.0
N356 N 0.41695 0.07852 0.25122 0.0
N357 N 0.50016 0.98171 0.2768 0.0
C358 C 0.44182 1.01503 0.28902 0.0
C359 C 0.39695 0.06696 0.27521 0.0
C360 C 0.86676 0.17596 0.52928 0.0
C361 C 0.85098 0.10895 0.51751 0.0
C362 C 0.81776 0.20595 0.54705 0.0
C363 C 0.7518 0.16979 0.55345 0.0
H364 H 0.91409 0.20814 0.52339 0.0
H365 H 0.8282 0.26065 0.5541 0.0
S366 S 0.69418 0.98529 0.53191 0.0
N367 N 0.77199 1.00141 0.51642 0.0
N368 N 0.67937 0.05823 0.54974 0.0
C369 C 0.73952 0.09926 0.54364 0.0
C370 C 0.78931 0.06871 0.52562 0.0
C371 C 0.69789 0.05805 0.29689 0.0
C372 C 0.77187 0.04655 0.28862 0.0
C373 C 0.65922 1.00035 0.3084 0.0
C374 C 0.69315 0.92937 0.31209 0.0
H375 H 0.66754 0.10964 0.29247 0.0
H376 H 0.60116 1.01043 0.31339 0.0
S377 S 0.88951 0.87456 0.29772 0.0
N378 N 0.8807 0.96184 0.28782 0.0
N379 N 0.80744 0.85352 0.30969 0.0
C380 C 0.76901 0.91916 0.30613 0.0
C381 C 0.80856 0.97787 0.29436 0.0
C382 C 0.71892 0.93114 0.04033 0.0
C383 C 0.72409 1.00859 0.03793 0.0
C384 C 0.76908 0.88916 0.05523 0.0
C385 C 0.82771 0.92203 0.06838 0.0
H386 H 0.67742 0.90212 0.02992 0.0
H387 H 0.76205 0.82953 0.05626 0.0
S388 S 0.86255 0.12375 0.07013 0.0
N389 N 0.79014 0.11765 0.05141 0.0
N390 N 0.88518 0.0376 0.07898 0.0
C391 C 0.83314 0.99949 0.06654 0.0
C392 C 0.78117 0.04284 0.05153 0.0
C393 C 0.87115 0.99681 0.77789 0.0
C394 C 0.91005 0.99895 0.75535 0.0
C395 C 0.87756 0.05357 0.79518 0.0
C396 C 0.92335 0.11514 0.79074 0.0
H397 H 0.8326 0.95267 0.78171 0.0
H398 H 0.84624 0.04871 0.81228 0.0
S399 S 0.03946 0.1446 0.73446 0.0
N400 N 0.99728 0.06576 0.72945 0.0
N401 N 1.00997 0.17279 0.76185 0.0
C402 C 0.96303 0.1175 0.76816 0.0
C403 C 0.95674 0.05916 0.75064 0.0
C404 C 0.86385 0.95846 0.42286 0.0
C405 C 0.85032 1.03227 0.43016 0.0
C406 C 0.80737 0.91849 0.41183 0.0
C407 C 0.73579 0.95115 0.40759 0.0
H408 H 0.91514 0.92879 0.42819 0.0
H409 H 0.81801 0.85979 0.40841 0.0
S410 S 0.67926 0.14846 0.41737 0.0
N411 N 0.76603 0.14107 0.4278 0.0
N412 N 0.65925 0.06524 0.40708 0.0
C413 C 0.72502 1.02763 0.41158 0.0
C414 C 0.78269 0.06848 0.42285 0.0
C415 C 0.77482 1.0029 0.19584 0.0
C416 C 0.82347 0.0622 0.19986 0.0
C417 C 0.79269 0.94604 0.17904 0.0
C418 C 0.85915 0.94703 0.16514 0.0
H419 H 0.72535 0.99712 0.20727 0.0
H420 H 0.7567 0.89874 0.17825 0.0
S421 S 0.9924 0.1022 0.16276 0.0
N422 N 0.93255 0.12602 0.18479 0.0
N423 N 0.96425 1.02206 0.15214 0.0
C424 C 0.90255 1.01152 0.1664 0.0
C425 C 0.88499 0.06861 0.1839 0.0
C426 C 0.7372 0.11869 0.93916 0.0
C427 C 0.73246 0.15622 0.96165 0.0
C428 C 0.7971 0.12936 0.92299 0.0
C429 C 0.85489 0.17835 0.92855 0.0
H430 H 0.69676 0.07724 0.9347 0.0
H431 H 0.79846 0.09732 0.90617 0.0
S432 S 0.86207 0.29752 -0.01599 0.0
N433 N 0.78583 0.24903 -0.01199 0.0
N434 N 0.89859 0.27047 0.95738 0.0
C435 C 0.84842 0.21946 0.95049 0.0
C436 C 0.78715 0.2082 0.96703 0.0
C437 C 0.70062 0.04991 0.69895 0.0
C438 C 0.74591 0.99939 0.68546 0.0
C439 C 0.67005 0.11454 0.68795 0.0
C440 C 0.67835 0.12953 0.66255 0.0
H441 H 0.69505 0.04319 0.71882 0.0
H442 H 0.64283 0.15485 0.69987 0.0
S443 S 0.78366 1.00959 0.61812 0.0
N444 N 0.79455 0.96589 0.64503 0.0
N445 N 0.72998 0.0842 0.62357 0.0
C446 C 0.71793 0.07597 0.64825 0.0
C447 C 0.75268 1.01135 0.65984 0.0
C448 C 0.77347 0.5631 0.92399 0.0
C449 C 0.71917 0.51467 0.93349 0.0
C450 C 0.83456 0.53686 0.90978 0.0
C451 C 0.84353 0.46109 0.90384 0.0
H452 H 0.77218 0.62101 0.92937 0.0
H453 H 0.87693 0.57589 0.90449 0.0
S454 S 0.70477 0.31574 0.91778 0.0
N455 N 0.6709 0.3903 0.93195 0.0
N456 N 0.78295 0.34117 0.90411 0.0
C457 C 0.78433 0.41397 0.91049 0.0
C458 C 0.72271 0.44073 0.92543 0.0
C459 C 0.95025 0.53163 0.22305 0.0
C460 C 0.90605 0.47027 0.2174 0.0
C461 C 0.95411 0.59392 0.20706 0.0
C462 C 0.91369 0.59756 0.18476 0.0
H463 H 0.97838 0.53339 0.24074 0.0
H464 H 0.9871 0.64034 0.21263 0.0
S465 S 0.79887 0.44576 0.15975 0.0
N466 N 0.82776 0.41372 0.18688 0.0
N467 N 0.83533 0.52853 0.15659 0.0
C468 C 0.87381 0.53371 0.17813 0.0
C469 C 0.8703 0.47059 0.1944 0.0
C470 C 0.78234 0.46593 0.43222 0.0
C471 C 0.84797 0.5075 0.43484 0.0
C472 C 0.72131 0.49357 0.41808 0.0
C473 C 0.72607 0.56118 0.40506 0.0
H474 H 0.77389 0.41751 0.44394 0.0
H475 H 0.66796 0.46693 0.41986 0.0
S476 S 0.894 0.6757 0.39801 0.0
N477 N 0.91964 0.60927 0.41787 0.0
N478 N 0.80748 0.65756 0.39003 0.0
C479 C 0.79654 0.59389 0.40327 0.0
C480 C 0.85741 0.56765 0.41836 0.0
C481 C 0.75446 0.6018 0.66225 0.0
C482 C 0.82354 0.5891 0.67399 0.0
C483 C 0.71915 0.54351 0.6506 0.0
C484 C 0.75207 0.47124 0.6503 0.0
H485 H 0.72302 0.65363 0.66495 0.0
H486 H 0.66215 0.55303 0.64423 0.0
S487 S 0.94223 0.41624 0.67169 0.0
N488 N 0.93171 0.50476 0.67927 0.0
N489 N 0.86402 0.39452 0.65763 0.0
C490 C 0.82608 0.46114 0.65823 0.0
C491 C 0.86244 0.52074 0.66995 0.0
C492 C 0.75174 0.57071 0.03787 0.0
C493 C 0.7352 0.6138 0.01672 0.0
C494 C 0.80813 0.59108 0.0541 0.0
C495 C 0.85005 0.65539 0.04979 0.0
H496 H 0.7219 0.52019 0.04163 0.0
H497 H 0.81777 0.55703 0.07054 0.0
S498 S 0.82815 0.7862 -0.00351 0.0
N499 N 0.7651 0.72263 -0.00816 0.0
N500 N 0.87118 0.76126 0.02242 0.0
C501 C 0.83495 0.69801 0.02833 0.0
C502 C 0.77721 0.6774 0.01187 0.0
C503 C 0.67925 0.47893 0.28425 0.0
C504 C 0.75373 0.46218 0.29097 0.0
C505 C 0.64061 0.54137 0.29377 0.0
C506 C 0.67485 0.58914 0.31051 0.0
H507 H 0.65252 0.44674 0.27017 0.0
H508 H 0.58388 0.55314 0.28751 0.0
S509 S 0.86712 0.56537 0.3355 0.0
N510 N 0.85903 0.49519 0.31637 0.0
N511 N 0.7858 0.61174 0.3348 0.0
C512 C 0.7477 0.57015 0.31859 0.0
C513 C 0.78727 0.50691 0.30868 0.0
C514 C 0.74797 0.53769 0.52277 0.0
C515 C 0.82318 0.51203 0.5256 0.0
C516 C 0.6905 0.50939 0.5375 0.0
C517 C 0.70662 0.45847 0.55669 0.0
H518 H 0.73231 0.57416 0.5074 0.0
H519 H 0.63286 0.5237 0.53282 0.0
S520 S 0.89529 0.39217 0.57716 0.0
N521 N 0.91133 0.44348 0.55223 0.0
N522 N 0.80364 0.39615 0.58142 0.0
C523 C 0.78218 0.44186 0.56235 0.0
C524 C 0.84064 0.46788 0.54659 0.0
C525 C 0.89599 0.50628 0.76144 0.0
C526 C 0.8609 0.57767 0.7641 0.0
C527 C 0.90647 0.45686 0.78145 0.0
C528 C 0.88668 0.47766 0.80548 0.0
H529 H 0.91899 0.48878 0.74383 0.0
H530 H 0.93733 0.40489 0.77838 0.0
S531 S 0.78868 0.65385 0.8234 0.0
N532 N 0.79907 0.66211 0.79312 0.0
N533 N 0.82713 0.57209 0.83117 0.0
C534 C 0.84985 0.54735 0.80865 0.0
C535 C 0.83575 0.5968 0.78799 0.0
C536 C 0.33549 0.5872 0.05737 0.0
C537 C 0.31491 0.58065 0.03247 0.0
C538 C 0.28531 0.61853 0.07486 0.0
C539 C 0.212 0.64345 0.06832 0.0
H540 H 0.3905 0.56772 0.0634 0.0
H541 H 0.30473 0.62512 0.09363 0.0
S542 S 0.13239 0.64457 0.00522 0.0
N543 N 0.21721 0.60683 0.00191 0.0
N544 N 0.12306 0.66216 0.03496 0.0
C545 C 0.19054 0.63652 0.04359 0.0
C546 C 0.24196 0.60646 0.02567 0.0
C547 C 0.11796 0.55538 0.75308 0.0
C548 C 0.17695 0.60456 0.75669 0.0
C549 C 0.10445 0.49682 0.7698 0.0
C550 C 0.14848 0.48568 0.79107 0.0
H551 H 0.0825 0.5617 0.73693 0.0
H552 H 0.05772 0.46166 0.76642 0.0
S553 S 0.3143 0.5941 0.80786 0.0
N554 N 0.28334 0.63425 0.78207 0.0
N555 N 0.2569 0.52589 0.81392 0.0
C556 C 0.20883 0.53336 0.79456 0.0
C557 C 0.22293 0.59258 0.77741 0.0
C558 C 0.31935 0.55567 0.53314 0.0
C559 C 0.24994 0.51949 0.53165 0.0
C560 C 0.37849 0.5264 0.54752 0.0
C561 C 0.36825 0.46467 0.56293 0.0
H562 H 0.33092 0.6031 0.52133 0.0
H563 H 0.4336 0.54922 0.54534 0.0
S564 S 0.18863 0.37342 0.57592 0.0
N565 N 0.16955 0.4311 0.55261 0.0
N566 N 0.27748 0.38521 0.58269 0.0
C567 C 0.29519 0.4387 0.56589 0.0
C568 C 0.23625 0.46443 0.54975 0.0
C569 C 0.35645 0.45987 0.29864 0.0
C570 C 0.28487 0.48601 0.29108 0.0
C571 C 0.40288 0.50484 0.31247 0.0
C572 C 0.37875 0.57701 0.31898 0.0
H573 H 0.37932 0.40733 0.29192 0.0
H574 H 0.46002 0.48576 0.31602 0.0
S575 S 0.18998 0.66338 0.3088 0.0
N576 N 0.18745 0.58232 0.29482 0.0
N577 N 0.27443 0.66704 0.32097 0.0
C578 C 0.30428 0.59997 0.31404 0.0
C579 C 0.25727 0.55434 0.29999 0.0
C580 C 0.30784 0.48008 0.93835 0.0
C581 C 0.31687 0.43389 0.95928 0.0
C582 C 0.2457 0.47479 0.92304 0.0
C583 C 0.18987 0.42258 0.92783 0.0
H584 H 0.3465 0.52423 0.93468 0.0
H585 H 0.24108 0.51344 0.90754 0.0
S586 S 0.19403 0.28097 0.97855 0.0
N587 N 0.26958 0.32971 -0.01698 0.0
N588 N 0.15274 0.31796 0.95381 0.0
C589 C 0.20045 0.37304 0.94804 0.0
C590 C 0.264 0.37894 0.96378 0.0
C591 C 0.35639 0.62136 0.67183 0.0
C592 C 0.27819 0.62005 0.67388 0.0
C593 C 0.39751 0.55938 0.66334 0.0
C594 C 0.36221 0.49366 0.6564 0.0
H595 H 0.38677 0.66696 0.67945 0.0
H596 H 0.45804 0.56154 0.66371 0.0
S597 S 0.15755 0.47062 0.6515 0.0
N598 N 0.16589 0.55453 0.66314 0.0
N599 N 0.24381 0.43736 0.64713 0.0
C600 C 0.28378 0.49559 0.65494 0.0
C601 C 0.24163 0.55916 0.6636 0.0
C602 C 0.29169 0.67475 0.45648 0.0
C603 C 0.24595 0.61835 0.44779 0.0
C604 C 0.35728 0.69329 0.4441 0.0
C605 C 0.37796 0.65993 0.42173 0.0
H606 H 0.2807 0.69935 0.47438 0.0
H607 H 0.39368 0.73193 0.45266 0.0
S608 S 0.27051 0.51871 0.38867 0.0
N609 N 0.22189 0.5339 0.41429 0.0
N610 N 0.34232 0.57445 0.38959 0.0
C611 C 0.32865 0.60918 0.41137 0.0
C612 C 0.26301 0.58749 0.42466 0.0
C613 C 0.26488 0.56115 0.19896 0.0
C614 C 0.21702 0.50068 0.20268 0.0
C615 C 0.2488 0.61768 0.18141 0.0
C616 C 0.18484 0.61551 0.16647 0.0
H617 H 0.31327 0.56713 0.21069 0.0
H618 H 0.28445 0.66531 0.18058 0.0
S619 S 0.05282 0.45951 0.16407 0.0
N620 N 0.11002 0.43626 0.18697 0.0
N621 N 0.08187 0.53978 0.15307 0.0
C622 C 0.14158 0.55089 0.16794 0.0
C623 C 0.15728 0.49404 0.18616 0.0
loop_
_geom_bond_atom_site_label_1
_geom_bond_atom_site_label_2
_geom_bond_distance
_geom_bond_site_symmetry_2
_ccdc_geom_bond_type
H0 C6 0.930 . S
H1 C9 0.931 . S
H2 C11 0.931 . S
H3 C13 0.930 . S
H4 C15 0.930 . S
H5 C17 0.931 . S
C6 H0 0.930 . S
C6 C7 1.380 1_545 S
C6 C8 1.394 . S
C7 C6 1.380 1_565 S
C7 C11 1.382 . S
C8 C6 1.394 . S
C8 C9 1.400 . S
C9 H1 0.931 . S
C9 C8 1.400 . S
C9 C10 1.375 . S
C10 C9 1.375 . S
C10 C11 1.415 1_545 S
C10 C12 1.501 1_655 S
C11 H2 0.931 . S
C11 C7 1.382 . S
C11 C10 1.415 1_565 S
C12 C10 1.501 1_455 S
C12 C13 1.384 1_545 S
C12 C17 1.408 . S
C13 H3 0.930 . S
C13 C12 1.384 1_565 S
C13 C14 1.389 . S
C14 C13 1.389 . S
C14 C15 1.405 1_565 S
C15 H4 0.930 . S
C15 C14 1.405 1_545 S
C15 C16 1.364 . S
C16 C15 1.364 . S
C16 C17 1.400 . S
C17 H5 0.931 . S
C17 C12 1.408 . S
C17 C16 1.400 . S
H18 C24 0.930 . S
H19 C27 0.931 . S
H20 C29 0.931 . S
H21 C31 0.930 . S
H22 C33 0.930 . S
H23 C35 0.931 . S
C24 H18 0.930 . S
C24 C25 1.380 . S
C24 C26 1.394 . S
C25 C24 1.380 . S
C25 C29 1.382 . S
C26 C24 1.394 . S
C26 C27 1.400 . S
C27 H19 0.931 . S
C27 C26 1.400 . S
C27 C28 1.375 . S
C28 C27 1.375 . S
C28 C29 1.415 . S
C28 C30 1.501 . S
C29 H20 0.931 . S
C29 C25 1.382 . S
C29 C28 1.415 . S
C30 C28 1.501 . S
C30 C31 1.384 . S
C30 C35 1.408 . S
C31 H21 0.930 . S
C31 C30 1.384 . S
C31 C32 1.389 . S
C32 C31 1.389 . S
C32 C33 1.405 . S
C33 H22 0.930 . S
C33 C32 1.405 . S
C33 C34 1.364 . S
C34 C33 1.364 . S
C34 C35 1.400 . S
C35 H23 0.931 . S
C35 C30 1.408 . S
C35 C34 1.400 . S
H36 C42 0.929 1_565 S
H37 C45 0.931 . S
H38 C47 0.931 . S
H39 C49 0.930 . S
H40 C51 0.930 . S
H41 C53 0.931 . S
C42 H36 0.929 1_545 S
C42 C43 1.381 1_554 S
C42 C44 1.394 1_545 S
C43 C42 1.381 1_556 S
C43 C47 1.382 . S
C44 C42 1.394 1_565 S
C44 C45 1.400 . S
C45 H37 0.931 . S
C45 C44 1.400 . S
C45 C46 1.375 1_565 S
C46 C45 1.375 1_545 S
C46 C47 1.415 1_554 S
C46 C48 1.501 . S
C47 H38 0.931 . S
C47 C43 1.382 . S
C47 C46 1.415 1_556 S
C48 C46 1.501 . S
C48 C49 1.384 1_554 S
C48 C53 1.408 1_545 S
C49 H39 0.930 . S
C49 C48 1.384 1_556 S
C49 C50 1.389 . S
C50 C49 1.389 . S
C50 C51 1.405 1_556 S
C51 H40 0.930 . S
C51 C50 1.405 1_554 S
C51 C52 1.364 1_545 S
C52 C51 1.364 1_565 S
C52 C53 1.400 . S
C53 H41 0.931 . S
C53 C48 1.408 1_565 S
C53 C52 1.400 . S
H54 C60 0.930 . S
H55 C63 0.931 . S
H56 C65 0.931 . S
H57 C67 0.930 . S
H58 C69 0.930 . S
H59 C71 0.931 . S
C60 H54 0.930 . S
C60 C61 1.380 . S
C60 C62 1.394 . S
C61 C60 1.380 . S
C61 C65 1.382 . S
C62 C60 1.394 . S
C62 C63 1.400 . S
C63 H55 0.931 . S
C63 C62 1.400 . S
C63 C64 1.375 . S
C64 C63 1.375 . S
C64 C65 1.415 . S
C64 C66 1.501 . S
C65 H56 0.931 . S
C65 C61 1.382 . S
C65 C64 1.415 . S
C66 C64 1.501 . S
C66 C67 1.384 . S
C66 C71 1.408 . S
C67 H57 0.930 . S
C67 C66 1.384 . S
C67 C68 1.389 . S
C68 C67 1.389 . S
C68 C69 1.405 . S
C69 H58 0.930 . S
C69 C68 1.405 . S
C69 C70 1.364 . S
C70 C69 1.364 . S
C70 C71 1.400 . S
C71 H59 0.931 . S
C71 C66 1.408 . S
C71 C70 1.400 . S
H72 C78 0.930 . S
H73 C81 0.931 . S
H74 C83 0.931 . S
H75 C85 0.930 . S
H76 C87 0.930 . S
H77 C89 0.931 . S
C78 H72 0.930 . S
C78 C79 1.380 . S
C78 C80 1.394 . S
C79 C78 1.380 . S
C79 C83 1.382 . S
C80 C78 1.394 . S
C80 C81 1.400 . S
C81 H73 0.931 . S
C81 C80 1.400 . S
C81 C82 1.375 . S
C82 C81 1.375 . S
C82 C83 1.415 . S
C82 C84 1.501 . S
C83 H74 0.931 . S
C83 C79 1.382 . S
C83 C82 1.415 . S
C84 C82 1.501 . S
C84 C85 1.384 . S
C84 C89 1.408 . S
C85 H75 0.930 . S
C85 C84 1.384 . S
C85 C86 1.389 . S
C86 C85 1.389 . S
C86 C87 1.405 . S
C87 H76 0.930 . S
C87 C86 1.405 . S
C87 C88 1.364 . S
C88 C87 1.364 . S
C88 C89 1.400 . S
C89 H77 0.931 . S
C89 C84 1.408 . S
C89 C88 1.400 . S
H90 C96 0.930 . S
H91 C99 0.931 . S
H92 C101 0.931 . S
H93 C103 0.930 . S
H94 C105 0.930 . S
H95 C107 0.931 . S
C96 H90 0.930 . S
C96 C97 1.380 . S
C96 C98 1.394 . S
C97 C96 1.380 . S
C97 C101 1.382 . S
C98 C96 1.394 . S
C98 C99 1.400 . S
C99 H91 0.931 . S
C99 C98 1.400 . S
C99 C100 1.375 . S
C100 C99 1.375 . S
C100 C101 1.415 . S
C100 C102 1.501 . S
C101 H92 0.931 . S
C101 C97 1.382 . S
C101 C100 1.415 . S
C102 C100 1.501 . S
C102 C103 1.384 . S
C102 C107 1.408 . S
C103 H93 0.930 . S
C103 C102 1.384 . S
C103 C104 1.389 . S
C104 C103 1.389 . S
C104 C105 1.405 . S
C105 H94 0.930 . S
C105 C104 1.405 . S
C105 C106 1.364 . S
C106 C105 1.364 . S
C106 C107 1.400 . S
C107 H95 0.931 . S
C107 C102 1.408 . S
C107 C106 1.400 . S
H108 C114 0.930 . S
H109 C117 0.931 . S
H110 C119 0.931 . S
H111 C121 0.930 . S
H112 C123 0.930 . S
H113 C125 0.931 . S
C114 H108 0.930 . S
C114 C115 1.380 . S
C114 C116 1.394 1_554 S
C115 C114 1.380 . S
C115 C119 1.382 . S
C116 C114 1.394 1_556 S
C116 C117 1.400 . S
C117 H109 0.931 . S
C117 C116 1.400 . S
C117 C118 1.375 1_556 S
C118 C117 1.375 1_554 S
C118 C119 1.415 . S
C118 C120 1.501 . S
C119 H110 0.931 . S
C119 C115 1.382 . S
C119 C118 1.415 . S
C120 C118 1.501 . S
C120 C121 1.384 . S
C120 C125 1.408 1_554 S
C121 H111 0.930 . S
C121 C120 1.384 . S
C121 C122 1.389 . S
C122 C121 1.389 . S
C122 C123 1.405 . S
C123 H112 0.930 . S
C123 C122 1.405 . S
C123 C124 1.364 1_554 S
C124 C123 1.364 1_556 S
C124 C125 1.400 . S
C125 H113 0.931 . S
C125 C120 1.408 1_556 S
C125 C124 1.400 . S
H126 C132 0.930 . S
H127 C135 0.931 . S
H128 C137 0.931 . S
H129 C139 0.930 . S
H130 C141 0.930 . S
H131 C143 0.931 . S
C132 H126 0.930 . S
C132 C133 1.380 . S
C132 C134 1.394 . S
C133 C132 1.380 . S
C133 C137 1.382 . S
C134 C132 1.394 . S
C134 C135 1.400 . S
C135 H127 0.931 . S
C135 C134 1.400 . S
C135 C136 1.375 . S
C136 C135 1.375 . S
C136 C137 1.415 . S
C136 C138 1.501 1_455 S
C137 H128 0.931 . S
C137 C133 1.382 . S
C137 C136 1.415 . S
C138 C136 1.501 1_655 S
C138 C139 1.384 . S
C138 C143 1.408 . S
C139 H129 0.930 . S
C139 C138 1.384 . S
C139 C140 1.389 . S
C140 C139 1.389 . S
C140 C141 1.405 . S
C141 H130 0.930 . S
C141 C140 1.405 . S
C141 C142 1.364 . S
C142 C141 1.364 . S
C142 C143 1.400 . S
C143 H131 0.931 . S
C143 C138 1.408 . S
C143 C142 1.400 . S
Fe144 O145 1.886 . S
Fe144 O148 1.715 1_455 S
Fe144 O153 2.077 . S
Fe144 O158 1.935 1_455 S
Fe144 O164 2.077 . S
Fe144 O173 1.935 1_455 S
O145 Fe144 1.886 . S
O145 Fe147 1.715 . S
Fe146 O148 1.886 . S
Fe146 O149 1.715 . S
Fe146 O156 1.935 . S
Fe146 O157 2.077 . S
Fe146 O163 1.935 . S
Fe146 O172 2.077 . S
Fe147 O145 1.715 . S
Fe147 O150 1.886 . S
Fe147 O154 1.935 . S
Fe147 O159 2.077 . S
Fe147 O165 1.935 . S
Fe147 O169 2.077 . S
O148 Fe144 1.715 1_655 S
O148 Fe146 1.886 . S
O149 Fe146 1.715 . S
O149 Fe151 1.886 . S
O150 Fe147 1.886 . S
O150 Fe151 1.715 1_455 S
Fe151 O149 1.886 . S
Fe151 O150 1.715 1_655 S
Fe151 O155 2.077 . S
Fe151 O160 1.935 1_655 S
Fe151 O162 2.077 . S
Fe151 O170 1.935 1_655 S
C152 O164 1.381 . S
C152 O165 1.421 . S
O153 Fe144 2.077 . S
O153 C166 1.381 . S
O154 Fe147 1.935 . S
O154 C166 1.421 . S
O155 Fe151 2.077 . S
O155 C171 1.381 . S
O156 Fe146 1.935 . S
O156 C171 1.421 . S
O157 Fe146 2.077 . S
O157 C161 1.381 . S
O158 Fe144 1.935 1_655 S
O158 C161 1.421 . S
O159 Fe147 2.077 . S
O159 C167 1.381 . S
O160 Fe151 1.935 1_455 S
O160 C167 1.421 . S
C161 O157 1.381 . S
C161 O158 1.421 . S
O162 Fe151 2.077 . S
O162 C174 1.381 . S
O163 Fe146 1.935 . S
O163 C174 1.421 . S
O164 Fe144 2.077 . S
O164 C152 1.381 . S
O165 Fe147 1.935 . S
O165 C152 1.421 . S
C166 O153 1.381 . S
C166 O154 1.421 . S
C167 O159 1.381 . S
C167 O160 1.421 . S
C168 O169 1.381 . S
C168 O170 1.421 . S
O169 Fe147 2.077 . S
O169 C168 1.381 . S
O170 Fe151 1.935 1_455 S
O170 C168 1.421 . S
C171 O155 1.381 . S
C171 O156 1.421 . S
O172 Fe146 2.077 . S
O172 C175 1.381 . S
O173 Fe144 1.935 1_655 S
O173 C175 1.421 . S
C174 O162 1.381 . S
C174 O163 1.421 . S
C175 O172 1.381 . S
C175 O173 1.421 . S
Fe176 O177 1.886 . S
Fe176 O180 1.715 . S
Fe176 O185 2.077 . S
Fe176 O190 1.935 . S
Fe176 O196 2.077 . S
Fe176 O205 1.935 . S
O177 Fe176 1.886 . S
O177 Fe179 1.715 . S
Fe178 O180 1.886 . S
Fe178 O181 1.715 . S
Fe178 O188 1.935 . S
Fe178 O189 2.077 . S
Fe178 O195 1.935 . S
Fe178 O204 2.077 . S
Fe179 O177 1.715 . S
Fe179 O182 1.886 . S
Fe179 O186 1.935 . S
Fe179 O191 2.077 . S
Fe179 O197 1.935 . S
Fe179 O201 2.077 . S
O180 Fe176 1.715 . S
O180 Fe178 1.886 . S
O181 Fe178 1.715 . S
O181 Fe183 1.886 . S
O182 Fe179 1.886 . S
O182 Fe183 1.715 . S
Fe183 O181 1.886 . S
Fe183 O182 1.715 . S
Fe183 O187 2.077 . S
Fe183 O192 1.935 . S
Fe183 O194 2.077 . S
Fe183 O202 1.935 . S
C184 O196 1.381 . S
C184 O197 1.421 . S
O185 Fe176 2.077 . S
O185 C198 1.381 . S
O186 Fe179 1.935 . S
O186 C198 1.421 . S
O187 Fe183 2.077 . S
O187 C203 1.381 . S
O188 Fe178 1.935 . S
O188 C203 1.421 . S
O189 Fe178 2.077 . S
O189 C193 1.381 . S
O190 Fe176 1.935 . S
O190 C193 1.421 . S
O191 Fe179 2.077 . S
O191 C199 1.381 . S
O192 Fe183 1.935 . S
O192 C199 1.421 . S
C193 O189 1.381 . S
C193 O190 1.421 . S
O194 Fe183 2.077 . S
O194 C206 1.381 . S
O195 Fe178 1.935 . S
O195 C206 1.421 . S
O196 Fe176 2.077 . S
O196 C184 1.381 . S
O197 Fe179 1.935 . S
O197 C184 1.421 . S
C198 O185 1.381 . S
C198 O186 1.421 . S
C199 O191 1.381 . S
C199 O192 1.421 . S
C200 O201 1.381 . S
C200 O202 1.421 . S
O201 Fe179 2.077 . S
O201 C200 1.381 . S
O202 Fe183 1.935 . S
O202 C200 1.421 . S
C203 O187 1.381 . S
C203 O188 1.421 . S
O204 Fe178 2.077 . S
O204 C207 1.381 . S
O205 Fe176 1.935 . S
O205 C207 1.421 . S
C206 O194 1.381 . S
C206 O195 1.421 . S
C207 O204 1.381 . S
C207 O205 1.421 . S
Fe208 O209 1.886 . S
Fe208 O212 1.715 . S
Fe208 O217 2.077 . S
Fe208 O222 1.935 . S
Fe208 O228 2.077 . S
Fe208 O237 1.935 . S
O209 Fe208 1.886 . S
O209 Fe211 1.715 . S
Fe210 O212 1.886 . S
Fe210 O213 1.715 . S
Fe210 O220 1.935 . S
Fe210 O221 2.077 . S
Fe210 O227 1.935 . S
Fe210 O236 2.077 . S
Fe211 O209 1.715 . S
Fe211 O214 1.886 . S
Fe211 O218 1.935 . S
Fe211 O223 2.077 . S
Fe211 O229 1.935 . S
Fe211 O233 2.077 . S
O212 Fe208 1.715 . S
O212 Fe210 1.886 . S
O213 Fe210 1.715 . S
O213 Fe215 1.886 . S
O214 Fe211 1.886 . S
O214 Fe215 1.715 . S
Fe215 O213 1.886 . S
Fe215 O214 1.715 . S
Fe215 O219 2.077 . S
Fe215 O224 1.935 . S
Fe215 O226 2.077 . S
Fe215 O234 1.935 . S
C216 O228 1.381 . S
C216 O229 1.421 . S
O217 Fe208 2.077 . S
O217 C230 1.381 . S
O218 Fe211 1.935 . S
O218 C230 1.421 . S
O219 Fe215 2.077 . S
O219 C235 1.381 . S
O220 Fe210 1.935 . S
O220 C235 1.421 . S
O221 Fe210 2.077 . S
O221 C225 1.381 . S
O222 Fe208 1.935 . S
O222 C225 1.421 . S
O223 Fe211 2.077 . S
O223 C231 1.381 . S
O224 Fe215 1.935 . S
O224 C231 1.421 . S
C225 O221 1.381 . S
C225 O222 1.421 . S
O226 Fe215 2.077 . S
O226 C238 1.381 . S
O227 Fe210 1.935 . S
O227 C238 1.421 . S
O228 Fe208 2.077 . S
O228 C216 1.381 . S
O229 Fe211 1.935 . S
O229 C216 1.421 . S
C230 O217 1.381 . S
C230 O218 1.421 . S
C231 O223 1.381 . S
C231 O224 1.421 . S
C232 O233 1.381 . S
C232 O234 1.421 . S
O233 Fe211 2.077 . S
O233 C232 1.381 . S
O234 Fe215 1.935 . S
O234 C232 1.421 . S
C235 O219 1.381 . S
C235 O220 1.421 . S
O236 Fe210 2.077 . S
O236 C239 1.381 . S
O237 Fe208 1.935 . S
O237 C239 1.421 . S
C238 O226 1.381 . S
C238 O227 1.421 . S
C239 O236 1.381 . S
C239 O237 1.421 . S
Fe240 O241 1.886 . S
Fe240 O244 1.715 . S
Fe240 O249 2.077 1_455 S
Fe240 O254 1.935 1_455 S
Fe240 O260 2.077 . S
Fe240 O269 1.935 . S
O241 Fe240 1.886 . S
O241 Fe243 1.715 . S
Fe242 O244 1.886 . S
Fe242 O245 1.715 . S
Fe242 O252 1.934 1_455 S
Fe242 O253 2.076 1_455 S
Fe242 O259 1.936 . S
Fe242 O268 2.078 . S
Fe243 O241 1.715 . S
Fe243 O246 1.886 . S
Fe243 O250 1.936 1_455 S
Fe243 O255 2.078 1_455 S
Fe243 O261 1.934 . S
Fe243 O265 2.076 . S
O244 Fe240 1.715 . S
O244 Fe242 1.886 . S
O245 Fe242 1.715 . S
O245 Fe247 1.886 . S
O246 Fe243 1.886 . S
O246 Fe247 1.715 . S
Fe247 O245 1.886 . S
Fe247 O246 1.715 . S
Fe247 O251 2.077 1_455 S
Fe247 O256 1.935 1_455 S
Fe247 O258 2.077 . S
Fe247 O266 1.935 . S
C248 O260 1.381 . S
C248 O261 1.421 . S
O249 Fe240 2.077 1_655 S
O249 C262 1.381 . S
O250 Fe243 1.936 1_655 S
O250 C262 1.421 . S
O251 Fe247 2.077 1_655 S
O251 C267 1.381 . S
O252 Fe242 1.934 1_655 S
O252 C267 1.421 . S
O253 Fe242 2.076 1_655 S
O253 C257 1.381 . S
O254 Fe240 1.935 1_655 S
O254 C257 1.421 . S
O255 Fe243 2.078 1_655 S
O255 C263 1.381 . S
O256 Fe247 1.935 1_655 S
O256 C263 1.421 . S
C257 O253 1.381 . S
C257 O254 1.421 . S
O258 Fe247 2.077 . S
O258 C270 1.381 . S
O259 Fe242 1.936 . S
O259 C270 1.421 . S
O260 Fe240 2.077 . S
O260 C248 1.381 . S
O261 Fe243 1.934 . S
O261 C248 1.421 . S
C262 O249 1.381 . S
C262 O250 1.421 . S
C263 O255 1.381 . S
C263 O256 1.421 . S
C264 O265 1.381 . S
C264 O266 1.421 . S
O265 Fe243 2.076 . S
O265 C264 1.381 . S
O266 Fe247 1.935 . S
O266 C264 1.421 . S
C267 O251 1.381 . S
C267 O252 1.421 . S
O268 Fe242 2.078 . S
O268 C271 1.381 . S
O269 Fe240 1.935 . S
O269 C271 1.421 . S
C270 O258 1.381 . S
C270 O259 1.421 . S
C271 O268 1.381 . S
C271 O269 1.421 . S
C272 C273 1.369 . S
C272 C274 1.419 . S
C272 H276 0.930 . S
C273 C272 1.369 . S
C273 C282 1.429 . S
C274 C272 1.419 . S
C274 C275 1.363 . S
C274 H277 0.929 . S
C275 C274 1.363 . S
C275 C281 1.428 . S
H276 C272 0.930 . S
H277 C274 0.929 . S
S278 N279 1.613 . S
S278 N280 1.610 . S
N279 S278 1.613 . S
N279 C282 1.350 . S
N280 S278 1.610 . S
N280 C281 1.351 . S
C281 C275 1.428 . S
C281 N280 1.351 . S
C281 C282 1.434 . S
C282 C273 1.429 . S
C282 N279 1.350 . S
C282 C281 1.434 . S
C283 C284 1.369 . S
C283 C285 1.419 1_565 S
C283 H287 0.930 . S
C284 C283 1.369 . S
C284 C293 1.429 1_565 S
C285 C283 1.419 1_545 S
C285 C286 1.363 . S
C285 H288 0.929 . S
C286 C285 1.363 . S
C286 C292 1.428 . S
H287 C283 0.930 . S
H288 C285 0.929 . S
S289 N290 1.613 . S
S289 N291 1.610 . S
N290 S289 1.613 . S
N290 C293 1.350 . S
N291 S289 1.610 . S
N291 C292 1.351 . S
C292 C286 1.428 . S
C292 N291 1.351 . S
C292 C293 1.434 . S
C293 C284 1.429 1_545 S
C293 N290 1.350 . S
C293 C292 1.434 . S
C294 C295 1.369 . S
C294 C296 1.419 . S
C294 H298 0.930 . S
C295 C294 1.369 . S
C295 C304 1.429 . S
C296 C294 1.419 . S
C296 C297 1.363 . S
C296 H299 0.929 . S
C297 C296 1.363 . S
C297 C303 1.428 . S
H298 C294 0.930 . S
H299 C296 0.929 . S
S300 N301 1.613 . S
S300 N302 1.610 . S
N301 S300 1.613 . S
N301 C304 1.350 . S
N302 S300 1.610 . S
N302 C303 1.351 . S
C303 C297 1.428 . S
C303 N302 1.351 . S
C303 C304 1.434 . S
C304 C295 1.429 . S
C304 N301 1.350 . S
C304 C303 1.434 . S
C305 C306 1.369 . S
C305 C307 1.419 1_545 S
C305 H309 0.930 . S
C306 C305 1.369 . S
C306 C315 1.429 . S
C307 C305 1.419 1_565 S
C307 C308 1.363 . S
C307 H310 0.929 . S
C308 C307 1.363 . S
C308 C314 1.428 . S
H309 C305 0.930 . S
H310 C307 0.929 . S
S311 N312 1.613 . S
S311 N313 1.610 1_545 S
N312 S311 1.613 . S
N312 C315 1.350 . S
N313 S311 1.610 1_565 S
N313 C314 1.351 . S
C314 C308 1.428 . S
C314 N313 1.351 . S
C314 C315 1.434 1_565 S
C315 C306 1.429 . S
C315 N312 1.350 . S
C315 C314 1.434 1_545 S
C316 C317 1.369 . S
C316 C318 1.419 . S
C316 H320 0.930 . S
C317 C316 1.369 . S
C317 C326 1.429 . S
C318 C316 1.419 . S
C318 C319 1.363 . S
C318 H321 0.929 . S
C319 C318 1.363 . S
C319 C325 1.428 . S
H320 C316 0.930 . S
H321 C318 0.929 . S
S322 N323 1.613 . S
S322 N324 1.610 1_565 S
N323 S322 1.613 . S
N323 C326 1.350 1_565 S
N324 S322 1.610 1_545 S
N324 C325 1.351 . S
C325 C319 1.428 . S
C325 N324 1.351 . S
C325 C326 1.434 . S
C326 C317 1.429 . S
C326 N323 1.350 1_545 S
C326 C325 1.434 . S
C327 C328 1.369 . S
C327 C329 1.419 1_565 S
C327 H331 0.930 . S
C328 C327 1.369 . S
C328 C337 1.429 1_565 S
C329 C327 1.419 1_545 S
C329 C330 1.363 . S
C329 H332 0.929 . S
C330 C329 1.363 . S
C330 C336 1.428 . S
H331 C327 0.930 . S
H332 C329 0.929 . S
S333 N334 1.613 1_545 S
S333 N335 1.610 . S
N334 S333 1.613 1_565 S
N334 C337 1.350 1_565 S
N335 S333 1.610 . S
N335 C336 1.351 . S
C336 C330 1.428 . S
C336 N335 1.351 . S
C336 C337 1.434 . S
C337 C328 1.429 1_545 S
C337 N334 1.350 1_545 S
C337 C336 1.434 . S
C338 C339 1.369 . S
C338 C340 1.419 . S
C338 H342 0.930 1_565 S
C339 C338 1.369 . S
C339 C348 1.429 . S
C340 C338 1.419 . S
C340 C341 1.363 . S
C340 H343 0.929 . S
C341 C340 1.363 . S
C341 C347 1.428 . S
H342 C338 0.930 1_545 S
H343 C340 0.929 . S
S344 N345 1.613 . S
S344 N346 1.610 . S
N345 S344 1.613 . S
N345 C348 1.350 . S
N346 S344 1.610 . S
N346 C347 1.351 . S
C347 C341 1.428 . S
C347 N346 1.351 . S
C347 C348 1.434 . S
C348 C339 1.429 . S
C348 N345 1.350 . S
C348 C347 1.434 . S
C349 C350 1.369 . S
C349 C351 1.419 1_545 S
C349 H353 0.930 . S
C350 C349 1.369 . S
C350 C359 1.429 . S
C351 C349 1.419 1_565 S
C351 C352 1.363 . S
C351 H354 0.929 . S
C352 C351 1.363 . S
C352 C358 1.428 . S
H353 C349 0.930 . S
H354 C351 0.929 . S
S355 N356 1.613 . S
S355 N357 1.610 1_545 S
N356 S355 1.613 . S
N356 C359 1.350 . S
N357 S355 1.610 1_565 S
N357 C358 1.351 . S
C358 C352 1.428 . S
C358 N357 1.351 . S
C358 C359 1.434 1_565 S
C359 C350 1.429 . S
C359 N356 1.350 . S
C359 C358 1.434 1_545 S
C360 C361 1.369 . S
C360 C362 1.419 . S
C360 H364 0.930 . S
C361 C360 1.369 . S
C361 C370 1.429 . S
C362 C360 1.419 . S
C362 C363 1.363 . S
C362 H365 0.929 . S
C363 C362 1.363 . S
C363 C369 1.428 . S
H364 C360 0.930 . S
H365 C362 0.929 . S
S366 N367 1.613 . S
S366 N368 1.610 . S
N367 S366 1.613 . S
N367 C370 1.350 1_565 S
N368 S366 1.610 . S
N368 C369 1.351 1_565 S
C369 C363 1.428 . S
C369 N368 1.351 1_545 S
C369 C370 1.434 . S
C370 C361 1.429 . S
C370 N367 1.350 1_545 S
C370 C369 1.434 . S
C371 C372 1.369 . S
C371 C373 1.419 1_545 S
C371 H375 0.930 . S
C372 C371 1.369 . S
C372 C381 1.429 1_545 S
C373 C371 1.419 1_565 S
C373 C374 1.363 . S
C373 H376 0.929 . S
C374 C373 1.363 . S
C374 C380 1.428 . S
H375 C371 0.930 . S
H376 C373 0.929 . S
S377 N378 1.613 . S
S377 N379 1.610 . S
N378 S377 1.613 . S
N378 C381 1.350 . S
N379 S377 1.610 . S
N379 C380 1.351 . S
C380 C374 1.428 . S
C380 N379 1.351 . S
C380 C381 1.434 . S
C381 C372 1.429 1_565 S
C381 N378 1.350 . S
C381 C380 1.434 . S
C382 C383 1.369 . S
C382 C384 1.419 . S
C382 H386 0.930 . S
C383 C382 1.369 . S
C383 C392 1.429 . S
C384 C382 1.419 . S
C384 C385 1.363 . S
C384 H387 0.929 . S
C385 C384 1.363 . S
C385 C391 1.428 . S
H386 C382 0.930 . S
H387 C384 0.929 . S
S388 N389 1.613 . S
S388 N390 1.610 . S
N389 S388 1.613 . S
N389 C392 1.350 1_545 S
N390 S388 1.610 . S
N390 C391 1.351 1_545 S
C391 C385 1.428 . S
C391 N390 1.351 1_565 S
C391 C392 1.434 . S
C392 C383 1.429 . S
C392 N389 1.350 1_565 S
C392 C391 1.434 . S
C393 C394 1.369 . S
C393 C395 1.419 1_565 S
C393 H397 0.930 . S
C394 C393 1.369 . S
C394 C403 1.429 . S
C395 C393 1.419 1_545 S
C395 C396 1.363 . S
C395 H398 0.929 . S
C396 C395 1.363 . S
C396 C402 1.428 . S
H397 C393 0.930 . S
H398 C395 0.929 . S
S399 N400 1.613 1_545 S
S399 N401 1.610 . S
N400 S399 1.613 1_565 S
N400 C403 1.350 . S
N401 S399 1.610 . S
N401 C402 1.351 . S
C402 C396 1.428 . S
C402 N401 1.351 . S
C402 C403 1.434 1_545 S
C403 C394 1.429 . S
C403 N400 1.350 . S
C403 C402 1.434 1_565 S
C404 C405 1.369 . S
C404 C406 1.419 . S
C404 H408 0.930 . S
C405 C404 1.369 . S
C405 C414 1.429 . S
C406 C404 1.419 . S
C406 C407 1.363 . S
C406 H409 0.929 . S
C407 C406 1.363 . S
C407 C413 1.428 . S
H408 C404 0.930 . S
H409 C406 0.929 . S
S410 N411 1.613 . S
S410 N412 1.610 . S
N411 S410 1.613 . S
N411 C414 1.350 1_545 S
N412 S410 1.610 . S
N412 C413 1.351 1_545 S
C413 C407 1.428 . S
C413 N412 1.351 1_565 S
C413 C414 1.434 . S
C414 C405 1.429 . S
C414 N411 1.350 1_565 S
C414 C413 1.434 . S
C415 C416 1.369 1_565 S
C415 C417 1.419 . S
C415 H419 0.930 . S
C416 C415 1.369 1_545 S
C416 C425 1.429 . S
C417 C415 1.419 . S
C417 C418 1.363 . S
C417 H420 0.929 . S
C418 C417 1.363 . S
C418 C424 1.428 . S
H419 C415 0.930 . S
H420 C417 0.929 . S
S421 N422 1.613 . S
S421 N423 1.610 1_545 S
N422 S421 1.613 . S
N422 C425 1.350 . S
N423 S421 1.610 1_565 S
N423 C424 1.351 . S
C424 C418 1.428 . S
C424 N423 1.351 . S
C424 C425 1.434 1_565 S
C425 C416 1.429 . S
C425 N422 1.350 . S
C425 C424 1.434 1_545 S
C426 C427 1.369 . S
C426 C428 1.419 . S
C426 H430 0.930 1_545 S
C427 C426 1.369 . S
C427 C436 1.429 . S
C428 C426 1.419 . S
C428 C429 1.363 . S
C428 H431 0.929 . S
C429 C428 1.363 . S
C429 C435 1.428 . S
H430 C426 0.930 1_565 S
H431 C428 0.929 . S
S432 N433 1.613 . S
S432 N434 1.610 . S
N433 S432 1.613 . S
N433 C436 1.350 . S
N434 S432 1.610 . S
N434 C435 1.351 . S
C435 C429 1.428 . S
C435 N434 1.351 . S
C435 C436 1.434 . S
C436 C427 1.429 . S
C436 N433 1.350 . S
C436 C435 1.434 . S
C437 C438 1.369 . S
C437 C439 1.419 1_565 S
C437 H441 0.930 . S
C438 C437 1.369 . S
C438 C447 1.429 1_565 S
C439 C437 1.419 1_545 S
C439 C440 1.363 . S
C439 H442 0.929 . S
C440 C439 1.363 . S
C440 C446 1.428 . S
H441 C437 0.930 . S
H442 C439 0.929 . S
S443 N444 1.613 1_545 S
S443 N445 1.610 . S
N444 S443 1.613 1_565 S
N444 C447 1.350 1_565 S
N445 S443 1.610 . S
N445 C446 1.351 . S
C446 C440 1.428 . S
C446 N445 1.351 . S
C446 C447 1.434 . S
C447 C438 1.429 1_545 S
C447 N444 1.350 1_545 S
C447 C446 1.434 . S
C448 C449 1.369 . S
C448 C450 1.419 . S
C448 H452 0.930 . S
C449 C448 1.369 . S
C449 C458 1.429 . S
C450 C448 1.419 . S
C450 C451 1.363 . S
C450 H453 0.929 . S
C451 C450 1.363 . S
C451 C457 1.428 . S
H452 C448 0.930 . S
H453 C450 0.929 . S
S454 N455 1.613 . S
S454 N456 1.610 . S
N455 S454 1.613 . S
N455 C458 1.350 . S
N456 S454 1.610 . S
N456 C457 1.351 . S
C457 C451 1.428 . S
C457 N456 1.351 . S
C457 C458 1.434 . S
C458 C449 1.429 . S
C458 N455 1.350 . S
C458 C457 1.434 . S
C459 C460 1.369 . S
C459 C461 1.419 . S
C459 H463 0.930 . S
C460 C459 1.369 . S
C460 C469 1.429 . S
C461 C459 1.419 . S
C461 C462 1.363 . S
C461 H464 0.929 . S
C462 C461 1.363 . S
C462 C468 1.428 . S
H463 C459 0.930 . S
H464 C461 0.929 . S
S465 N466 1.613 . S
S465 N467 1.610 . S
N466 S465 1.613 . S
N466 C469 1.350 . S
N467 S465 1.610 . S
N467 C468 1.351 . S
C468 C462 1.428 . S
C468 N467 1.351 . S
C468 C469 1.434 . S
C469 C460 1.429 . S
C469 N466 1.350 . S
C469 C468 1.434 . S
C470 C471 1.369 . S
C470 C472 1.419 . S
C470 H474 0.930 . S
C471 C470 1.369 . S
C471 C480 1.429 . S
C472 C470 1.419 . S
C472 C473 1.363 . S
C472 H475 0.929 . S
C473 C472 1.363 . S
C473 C479 1.428 . S
H474 C470 0.930 . S
H475 C472 0.929 . S
S476 N477 1.613 . S
S476 N478 1.610 . S
N477 S476 1.613 . S
N477 C480 1.350 . S
N478 S476 1.610 . S
N478 C479 1.351 . S
C479 C473 1.428 . S
C479 N478 1.351 . S
C479 C480 1.434 . S
C480 C471 1.429 . S
C480 N477 1.350 . S
C480 C479 1.434 . S
C481 C482 1.369 . S
C481 C483 1.419 . S
C481 H485 0.930 . S
C482 C481 1.369 . S
C482 C491 1.429 . S
C483 C481 1.419 . S
C483 C484 1.363 . S
C483 H486 0.929 . S
C484 C483 1.363 . S
C484 C490 1.428 . S
H485 C481 0.930 . S
H486 C483 0.929 . S
S487 N488 1.613 . S
S487 N489 1.610 . S
N488 S487 1.613 . S
N488 C491 1.350 . S
N489 S487 1.610 . S
N489 C490 1.351 . S
C490 C484 1.428 . S
C490 N489 1.351 . S
C490 C491 1.434 . S
C491 C482 1.429 . S
C491 N488 1.350 . S
C491 C490 1.434 . S
C492 C493 1.369 . S
C492 C494 1.419 . S
C492 H496 0.930 . S
C493 C492 1.369 . S
C493 C502 1.429 . S
C494 C492 1.419 . S
C494 C495 1.363 . S
C494 H497 0.929 . S
C495 C494 1.363 . S
C495 C501 1.428 . S
H496 C492 0.930 . S
H497 C494 0.929 . S
S498 N499 1.613 . S
S498 N500 1.610 . S
N499 S498 1.613 . S
N499 C502 1.350 . S
N500 S498 1.610 . S
N500 C501 1.351 . S
C501 C495 1.428 . S
C501 N500 1.351 . S
C501 C502 1.434 . S
C502 C493 1.429 . S
C502 N499 1.350 . S
C502 C501 1.434 . S
C503 C504 1.369 . S
C503 C505 1.419 . S
C503 H507 0.930 . S
C504 C503 1.369 . S
C504 C513 1.429 . S
C505 C503 1.419 . S
C505 C506 1.363 . S
C505 H508 0.929 . S
C506 C505 1.363 . S
C506 C512 1.428 . S
H507 C503 0.930 . S
H508 C505 0.929 . S
S509 N510 1.613 . S
S509 N511 1.610 . S
N510 S509 1.613 . S
N510 C513 1.350 . S
N511 S509 1.610 . S
N511 C512 1.351 . S
C512 C506 1.428 . S
C512 N511 1.351 . S
C512 C513 1.434 . S
C513 C504 1.429 . S
C513 N510 1.350 . S
C513 C512 1.434 . S
C514 C515 1.369 . S
C514 C516 1.419 . S
C514 H518 0.930 . S
C515 C514 1.369 . S
C515 C524 1.429 . S
C516 C514 1.419 . S
C516 C517 1.363 . S
C516 H519 0.929 . S
C517 C516 1.363 . S
C517 C523 1.428 . S
H518 C514 0.930 . S
H519 C516 0.929 . S
S520 N521 1.613 . S
S520 N522 1.610 . S
N521 S520 1.613 . S
N521 C524 1.350 . S
N522 S520 1.610 . S
N522 C523 1.351 . S
C523 C517 1.428 . S
C523 N522 1.351 . S
C523 C524 1.434 . S
C524 C515 1.429 . S
C524 N521 1.350 . S
C524 C523 1.434 . S
C525 C526 1.369 . S
C525 C527 1.419 . S
C525 H529 0.930 . S
C526 C525 1.369 . S
C526 C535 1.429 . S
C527 C525 1.419 . S
C527 C528 1.363 . S
C527 H530 0.929 . S
C528 C527 1.363 . S
C528 C534 1.428 . S
H529 C525 0.930 . S
H530 C527 0.929 . S
S531 N532 1.613 . S
S531 N533 1.610 . S
N532 S531 1.613 . S
N532 C535 1.350 . S
N533 S531 1.610 . S
N533 C534 1.351 . S
C534 C528 1.428 . S
C534 N533 1.351 . S
C534 C535 1.434 . S
C535 C526 1.429 . S
C535 N532 1.350 . S
C535 C534 1.434 . S
C536 C537 1.369 . S
C536 C538 1.419 . S
C536 H540 0.930 . S
C537 C536 1.369 . S
C537 C546 1.429 . S
C538 C536 1.419 . S
C538 C539 1.363 . S
C538 H541 0.929 . S
C539 C538 1.363 . S
C539 C545 1.428 . S
H540 C536 0.930 . S
H541 C538 0.929 . S
S542 N543 1.613 . S
S542 N544 1.610 . S
N543 S542 1.613 . S
N543 C546 1.350 . S
N544 S542 1.610 . S
N544 C545 1.351 . S
C545 C539 1.428 . S
C545 N544 1.351 . S
C545 C546 1.434 . S
C546 C537 1.429 . S
C546 N543 1.350 . S
C546 C545 1.434 . S
C547 C548 1.369 . S
C547 C549 1.419 . S
C547 H551 0.930 . S
C548 C547 1.369 . S
C548 C557 1.429 . S
C549 C547 1.419 . S
C549 C550 1.363 . S
C549 H552 0.929 . S
C550 C549 1.363 . S
C550 C556 1.428 . S
H551 C547 0.930 . S
H552 C549 0.929 . S
S553 N554 1.613 . S
S553 N555 1.610 . S
N554 S553 1.613 . S
N554 C557 1.350 . S
N555 S553 1.610 . S
N555 C556 1.351 . S
C556 C550 1.428 . S
C556 N555 1.351 . S
C556 C557 1.434 . S
C557 C548 1.429 . S
C557 N554 1.350 . S
C557 C556 1.434 . S
C558 C559 1.369 . S
C558 C560 1.419 . S
C558 H562 0.930 . S
C559 C558 1.369 . S
C559 C568 1.429 . S
C560 C558 1.419 . S
C560 C561 1.363 . S
C560 H563 0.929 . S
C561 C560 1.363 . S
C561 C567 1.428 . S
H562 C558 0.930 . S
H563 C560 0.929 . S
S564 N565 1.613 . S
S564 N566 1.610 . S
N565 S564 1.613 . S
N565 C568 1.350 . S
N566 S564 1.610 . S
N566 C567 1.351 . S
C567 C561 1.428 . S
C567 N566 1.351 . S
C567 C568 1.434 . S
C568 C559 1.429 . S
C568 N565 1.350 . S
C568 C567 1.434 . S
C569 C570 1.369 . S
C569 C571 1.419 . S
C569 H573 0.930 . S
C570 C569 1.369 . S
C570 C579 1.429 . S
C571 C569 1.419 . S
C571 C572 1.363 . S
C571 H574 0.929 . S
C572 C571 1.363 . S
C572 C578 1.428 . S
H573 C569 0.930 . S
H574 C571 0.929 . S
S575 N576 1.613 . S
S575 N577 1.610 . S
N576 S575 1.613 . S
N576 C579 1.350 . S
N577 S575 1.610 . S
N577 C578 1.351 . S
C578 C572 1.428 . S
C578 N577 1.351 . S
C578 C579 1.434 . S
C579 C570 1.429 . S
C579 N576 1.350 . S
C579 C578 1.434 . S
C580 C581 1.369 . S
C580 C582 1.419 . S
C580 H584 0.930 . S
C581 C580 1.369 . S
C581 C590 1.429 . S
C582 C580 1.419 . S
C582 C583 1.363 . S
C582 H585 0.929 . S
C583 C582 1.363 . S
C583 C589 1.428 . S
H584 C580 0.930 . S
H585 C582 0.929 . S
S586 N587 1.613 . S
S586 N588 1.610 1_554 S
N587 S586 1.613 . S
N587 C590 1.350 1_554 S
N588 S586 1.610 1_556 S
N588 C589 1.351 . S
C589 C583 1.428 . S
C589 N588 1.351 . S
C589 C590 1.434 . S
C590 C581 1.429 . S
C590 N587 1.350 1_556 S
C590 C589 1.434 . S
C591 C592 1.369 . S
C591 C593 1.419 . S
C591 H595 0.930 . S
C592 C591 1.369 . S
C592 C601 1.429 . S
C593 C591 1.419 . S
C593 C594 1.363 . S
C593 H596 0.929 . S
C594 C593 1.363 . S
C594 C600 1.428 . S
H595 C591 0.930 . S
H596 C593 0.929 . S
S597 N598 1.613 . S
S597 N599 1.610 . S
N598 S597 1.613 . S
N598 C601 1.350 . S
N599 S597 1.610 . S
N599 C600 1.351 . S
C600 C594 1.428 . S
C600 N599 1.351 . S
C600 C601 1.434 . S
C601 C592 1.429 . S
C601 N598 1.350 . S
C601 C600 1.434 . S
C602 C603 1.369 . S
C602 C604 1.419 . S
C602 H606 0.930 . S
C603 C602 1.369 . S
C603 C612 1.429 . S
C604 C602 1.419 . S
C604 C605 1.363 . S
C604 H607 0.929 . S
C605 C604 1.363 . S
C605 C611 1.428 . S
H606 C602 0.930 . S
H607 C604 0.929 . S
S608 N609 1.613 . S
S608 N610 1.610 . S
N609 S608 1.613 . S
N609 C612 1.350 . S
N610 S608 1.610 . S
N610 C611 1.351 . S
C611 C605 1.428 . S
C611 N610 1.351 . S
C611 C612 1.434 . S
C612 C603 1.429 . S
C612 N609 1.350 . S
C612 C611 1.434 . S
C613 C614 1.369 . S
C613 C615 1.419 . S
C613 H617 0.930 . S
C614 C613 1.369 . S
C614 C623 1.429 . S
C615 C613 1.419 . S
C615 C616 1.363 . S
C615 H618 0.929 . S
C616 C615 1.363 . S
C616 C622 1.428 . S
H617 C613 0.930 . S
H618 C615 0.929 . S
S619 N620 1.613 . S
S619 N621 1.610 . S
N620 S619 1.613 . S
N620 C623 1.350 . S
N621 S619 1.610 . S
N621 C622 1.351 . S
C622 C616 1.428 . S
C622 N621 1.351 . S
C622 C623 1.434 . S
C623 C614 1.429 . S
C623 N620 1.350 . S
C623 C622 1.434 . S
C275 C193 1.583 . S
C273 C14 1.559 . S
C284 C25 1.549 . S
C286 C225 1.582 . S
C295 C50 1.563 . S
C297 C248 1.600 . S
C308 C152 1.602 . S
C306 C68 1.563 . S
C319 C235 1.414 . S
C317 C16 1.522 . S
C330 C264 1.426 . S
C328 C26 1.534 . S
C341 C168 1.418 . S
C339 C52 1.529 . S
C352 C203 1.403 . S
C350 C70 1.528 . S
C361 C8 1.512 . S
C363 C231 1.421 . S
C372 C88 1.515 . S
C374 C206 1.407 . S
C383 C44 1.513 . S
C385 C174 1.404 . S
C396 C263 1.412 . S
C394 C98 1.519 . S
C407 C207 1.580 . S
C405 C7 1.547 . S
C416 C86 1.553 . S
C418 C175 1.579 . S
C427 C43 1.550 . S
C429 C262 1.589 . S
C440 C230 1.587 . S
C438 C97 1.544 . S
C449 C116 1.557 . S
C451 C257 1.577 . S
C460 C79 1.553 . S
C462 C161 1.586 . S
C471 C140 1.563 . S
C473 C184 1.600 . S
C482 C104 1.562 . S
C484 C216 1.602 . S
C495 C171 1.410 . S
C493 C115 1.531 . S
C504 C80 1.540 . S
C506 C200 1.416 . S
C515 C142 1.530 . S
C517 C232 1.418 . S
C528 C267 1.412 . S
C526 C106 1.523 . S
C537 C122 1.521 . S
C539 C167 1.417 . S
C548 C34 1.519 . S
C550 C270 1.406 . S
C559 C134 1.518 . S
C561 C238 1.396 . S
C572 C199 1.420 . S
C570 C62 1.513 . S
C583 C271 1.574 . S
C581 C124 1.545 . S
C594 C239 1.577 . S
C592 C32 1.546 . S
C605 C198 1.589 . S
C603 C133 1.550 . S
C616 C166 1.589 . S
C614 C61 1.551 . S
