# Generated by pormake.
# Topology zzz, (3,6)-cn, num edge types: 1
# Building blocks:
#     Node 0, Type 0, BuildingBlock: BELTOD_clean_linker_0, # of connection points: 3
#     Node 1, Type 0, BuildingBlock: BELTOD_clean_linker_0, # of connection points: 3
#     Node 2, Type 0, BuildingBlock: BELTOD_clean_linker_0, # of connection points: 3
#     Node 3, Type 0, BuildingBlock: BELTOD_clean_linker_0, # of connection points: 3
#     Node 4, Type 0, BuildingBlock: BELTOD_clean_linker_0, # of connection points: 3
#     Node 5, Type 0, BuildingBlock: BELTOD_clean_linker_0, # of connection points: 3
#     Node 6, Type 0, BuildingBlock: BELTOD_clean_linker_0, # of connection points: 3
#     Node 7, Type 0, BuildingBlock: BELTOD_clean_linker_0, # of connection points: 3
#     Node 8, Type 1, BuildingBlock: FUNLAD_clean_sbu_0, # of connection points: 6
#     Node 9, Type 1, BuildingBlock: FUNLAD_clean_sbu_0, # of connection points: 6
#     Node 10, Type 1, BuildingBlock: FUNLAD_clean_sbu_0, # of connection points: 6
#     Node 11, Type 1, BuildingBlock: FUNLAD_clean_sbu_0, # of connection points: 6
#     Edge 12, Type (0, 1), BuildingBlock: XUDNAN_clean_linker_2, # of connection points: 2
#     Edge 13, Type (0, 1), BuildingBlock: XUDNAN_clean_linker_2, # of connection points: 2
#     Edge 14, Type (0, 1), BuildingBlock: XUDNAN_clean_linker_2, # of connection points: 2
#     Edge 15, Type (0, 1), BuildingBlock: XUDNAN_clean_linker_2, # of connection points: 2
#     Edge 16, Type (0, 1), BuildingBlock: XUDNAN_clean_linker_2, # of connection points: 2
#     Edge 17, Type (0, 1), BuildingBlock: XUDNAN_clean_linker_2, # of connection points: 2
#     Edge 18, Type (0, 1), BuildingBlock: XUDNAN_clean_linker_2, # of connection points: 2
#     Edge 19, Type (0, 1), BuildingBlock: XUDNAN_clean_linker_2, # of connection points: 2
#     Edge 20, Type (0, 1), BuildingBlock: XUDNAN_clean_linker_2, # of connection points: 2
#     Edge 21, Type (0, 1), BuildingBlock: XUDNAN_clean_linker_2, # of connection points: 2
#     Edge 22, Type (0, 1), BuildingBlock: XUDNAN_clean_linker_2, # of connection points: 2
#     Edge 23, Type (0, 1), BuildingBlock: XUDNAN_clean_linker_2, # of connection points: 2
#     Edge 24, Type (0, 1), BuildingBlock: XUDNAN_clean_linker_2, # of connection points: 2
#     Edge 25, Type (0, 1), BuildingBlock: XUDNAN_clean_linker_2, # of connection points: 2
#     Edge 26, Type (0, 1), BuildingBlock: XUDNAN_clean_linker_2, # of connection points: 2
#     Edge 27, Type (0, 1), BuildingBlock: XUDNAN_clean_linker_2, # of connection points: 2
#     Edge 28, Type (0, 1), BuildingBlock: XUDNAN_clean_linker_2, # of connection points: 2
#     Edge 29, Type (0, 1), BuildingBlock: XUDNAN_clean_linker_2, # of connection points: 2
#     Edge 30, Type (0, 1), BuildingBlock: XUDNAN_clean_linker_2, # of connection points: 2
#     Edge 31, Type (0, 1), BuildingBlock: XUDNAN_clean_linker_2, # of connection points: 2
#     Edge 32, Type (0, 1), BuildingBlock: XUDNAN_clean_linker_2, # of connection points: 2
#     Edge 33, Type (0, 1), BuildingBlock: XUDNAN_clean_linker_2, # of connection points: 2
#     Edge 34, Type (0, 1), BuildingBlock: XUDNAN_clean_linker_2, # of connection points: 2
#     Edge 35, Type (0, 1), BuildingBlock: XUDNAN_clean_linker_2, # of connection points: 2
# Relax obj value: 0.251
# Max RMSD: 0.215
# Mean RMSD: 0.181
data_MOF--net-zzz--node1-FUNLAD_clean_sbu_0--node2-BELTOD_clean_linker_0--edge1-XUDNAN_clean_linker_2
_symmetry_space_group_name_H-M    P1
_symmetry_Int_Tables_number       1
_symmetry_cell_setting            triclinic
loop_
_symmetry_equiv_pos_as_xyz
'x, y, z'
_cell_length_a     54.440703
_cell_length_b     59.200964
_cell_length_c     21.014305
_cell_angle_alpha  86.498482
_cell_angle_beta   86.883904
_cell_angle_gamma 92.091109
loop_
_atom_site_label
_atom_site_type_symbol
_atom_site_fract_x
_atom_site_fract_y
_atom_site_fract_z
_atom_type_partial_charge
P0 P 0.79754 0.38882 0.24346 0.0
H1 H 0.79049 0.38943 0.38328 0.0
H2 H 0.81176 0.41121 0.46135 0.0
H3 H 0.85294 0.44958 0.30706 0.0
H4 H 0.83169 0.42813 0.22979 0.0
H5 H 0.75759 0.36936 0.1753 0.0
H6 H 0.72862 0.38652 0.1034 0.0
H7 H 0.754 0.45302 0.15108 0.0
H8 H 0.78279 0.43584 0.2228 0.0
H9 H 0.842 0.36254 0.24493 0.0
H10 H 0.80806 0.40898 0.11314 0.0
O11 O 0.78867 0.36361 0.27873 0.0
H12 H 0.87949 0.36432 0.17358 0.0
H13 H 0.84511 0.41085 0.04312 0.0
C14 C 0.80998 0.40679 0.3009 0.0
C15 C 0.80384 0.40276 0.36638 0.0
C16 C 0.81585 0.41526 0.41084 0.0
C17 C 0.83416 0.43184 0.39002 0.0
C18 C 0.83913 0.43668 0.32428 0.0
C19 C 0.82704 0.42436 0.28014 0.0
C20 C 0.7721 0.40128 0.2051 0.0
C21 C 0.75634 0.3876 0.17184 0.0
C22 C 0.73986 0.39742 0.13063 0.0
C23 C 0.73922 0.4211 0.12134 0.0
C24 C 0.7543 0.43473 0.15688 0.0
C25 C 0.7706 0.42489 0.19843 0.0
C26 C 0.82209 0.3854 0.18423 0.0
C27 C 0.8423 0.37252 0.19994 0.0
C28 C 0.86368 0.37359 0.15942 0.0
C29 C 0.86513 0.38787 0.10338 0.0
C30 C 0.84445 0.39984 0.08639 0.0
C31 C 0.82314 0.39863 0.1264 0.0
P32 P 0.01145 0.76952 0.09766 0.0
H33 H 0.96989 0.765 0.19562 0.0
H34 H 0.95924 0.78856 0.28389 0.0
H35 H 0.02836 0.82682 0.24393 0.0
H36 H 0.03945 0.80197 0.16179 0.0
H37 H 1.00021 0.7269 0.1709 0.0
H38 H 0.9823 0.69088 0.14146 0.0
H39 H 0.96278 0.72286 0.96171 0.0
H40 H 0.9814 0.75863 0.99087 0.0
H41 H 0.04545 0.79301 0.00017 0.0
H42 H 0.97105 0.79941 0.07657 0.0
O43 O 0.04049 0.7614 0.09312 0.0
H44 H 0.04509 0.83124 0.94931 0.0
H45 H 0.97077 0.83786 0.02663 0.0
C46 C 0.00576 0.78139 0.17339 0.0
C47 C 0.98314 0.77781 0.20833 0.0
C48 C 0.97687 0.79169 0.25799 0.0
C49 C 0.99277 0.80991 0.2718 0.0
C50 C 0.01573 0.81275 0.23729 0.0
C51 C 0.02222 0.79848 0.18954 0.0
C52 C 0.99198 0.74543 0.08334 0.0
C53 C 0.99141 0.72628 0.12599 0.0
C54 C 0.98108 0.70569 0.10909 0.0
C55 C 0.97127 0.70391 0.04892 0.0
C56 C 0.9705 0.72357 0.00801 0.0
C57 C 0.98095 0.74412 0.02491 0.0
C58 C 0.00829 0.79344 0.04225 0.0
C59 C 0.02876 0.80233 0.0043 0.0
C60 C 0.02858 0.82422 0.97547 0.0
C61 C 0.00805 0.83757 0.98511 0.0
C62 C 0.98693 0.82799 0.01929 0.0
C63 C 0.98699 0.80598 0.0472 0.0
P64 P 0.74962 0.05385 0.17478 0.0
H65 H 0.74022 0.06233 0.30962 0.0
H66 H 0.71008 0.04549 0.39052 0.0
H67 H 0.69235 0.99269 0.26568 0.0
H68 H 0.72242 0.0097 0.18466 0.0
H69 H 0.79972 0.07191 0.14331 0.0
H70 H 0.83311 0.05952 0.07441 0.0
H71 H 0.79238 0.99655 0.05398 0.0
H72 H 0.75842 0.00966 0.12101 0.0
H73 H 0.69561 0.05541 0.17896 0.0
H74 H 0.7559 0.0645 0.03652 0.0
O75 O 0.7578 0.07915 0.19965 0.0
H76 H 0.66641 0.05669 0.0956 0.0
H77 H 0.72668 0.06713 0.95278 0.0
C78 C 0.73387 0.03722 0.24094 0.0
C79 C 0.73044 0.04675 0.30014 0.0
C80 C 0.71296 0.03724 0.34627 0.0
C81 C 0.69854 0.01794 0.33423 0.0
C82 C 0.70326 0.00746 0.27672 0.0
C83 C 0.72071 0.01707 0.23043 0.0
C84 C 0.77658 0.04159 0.13862 0.0
C85 C 0.79813 0.05517 0.12552 0.0
C86 C 0.81738 0.04799 0.08582 0.0
C87 C 0.81561 0.02697 0.05809 0.0
C88 C 0.79436 0.01297 0.07357 0.0
C89 C 0.775 0.02029 0.11303 0.0
C90 C 0.72801 0.0586 0.11384 0.0
C91 C 0.70262 0.0578 0.12974 0.0
C92 C 0.68584 0.05895 0.08186 0.0
C93 C 0.69416 0.06156 0.01718 0.0
C94 C 0.71963 0.06439 0.00195 0.0
C95 C 0.7364 0.06292 0.04988 0.0
P96 P 0.51726 0.70277 0.20699 0.0
H97 H 0.50463 0.68385 0.33599 0.0
H98 H 0.52652 0.65895 0.40647 0.0
H99 H 0.59282 0.67118 0.2843 0.0
H100 H 0.57015 0.69585 0.2122 0.0
H101 H 0.50692 0.72573 0.08641 0.0
H102 H 0.51431 0.76447 0.04211 0.0
H103 H 0.55198 0.78091 0.20996 0.0
H104 H 0.54491 0.74159 0.25388 0.0
H105 H 0.49065 0.65981 0.19444 0.0
H106 H 0.54883 0.70027 0.09018 0.0
O107 O 0.48807 0.70361 0.23519 0.0
H108 H 0.49245 0.63211 0.11199 0.0
H109 H 0.54987 0.67316 0.00665 0.0
C110 C 0.53578 0.69179 0.26901 0.0
C111 C 0.52409 0.6819 0.32536 0.0
C112 C 0.53678 0.66761 0.36602 0.0
C113 C 0.56152 0.66285 0.35108 0.0
C114 C 0.57372 0.67423 0.29687 0.0
C115 C 0.56089 0.68855 0.256 0.0
C116 C 0.52605 0.73062 0.17252 0.0
C117 C 0.51747 0.73743 0.11292 0.0
C118 C 0.5217 0.7596 0.08756 0.0
C119 C 0.53398 0.77563 0.12222 0.0
C120 C 0.54261 0.76881 0.1821 0.0
C121 C 0.53868 0.7464 0.20708 0.0
C122 C 0.51885 0.68251 0.14687 0.0
C123 C 0.50361 0.66283 0.15359 0.0
C124 C 0.50476 0.64699 0.107 0.0
C125 C 0.52111 0.65081 0.05318 0.0
C126 C 0.53697 0.67011 0.04764 0.0
C127 C 0.53618 0.68565 0.09492 0.0
P128 P 0.22798 0.50066 0.17609 0.0
H129 H 0.25321 0.49248 0.05369 0.0
H130 H 0.23782 0.49671 0.94698 0.0
H131 H 0.18078 0.53901 0.01985 0.0
H132 H 0.19798 0.53678 0.12244 0.0
H133 H 0.25128 0.47341 0.27122 0.0
H134 H 0.28424 0.48133 0.34113 0.0
H135 H 0.29851 0.54693 0.24207 0.0
H136 H 0.26499 0.53882 0.17109 0.0
H137 H 0.17629 0.48666 0.18572 0.0
H138 H 0.22331 0.53515 0.27122 0.0
O139 O 0.22414 0.47277 0.17035 0.0
H140 H 0.14051 0.50037 0.2447 0.0
H141 H 0.18752 0.5489 0.33063 0.0
C142 C 0.22609 0.51344 0.09668 0.0
C143 C 0.23823 0.50365 0.04547 0.0
C144 C 0.22896 0.50571 0.98463 0.0
C145 C 0.20689 0.51693 0.97497 0.0
C146 C 0.1974 0.52974 0.02438 0.0
C147 C 0.2072 0.52828 0.08434 0.0
C148 C 0.25599 0.50537 0.21539 0.0
C149 C 0.26186 0.48927 0.26313 0.0
C150 C 0.28055 0.49389 0.30349 0.0
C151 C 0.29366 0.51481 0.29726 0.0
C152 C 0.28864 0.53064 0.24749 0.0
C153 C 0.26966 0.52601 0.20695 0.0
C154 C 0.20249 0.50947 0.22536 0.0
C155 C 0.17894 0.50005 0.21786 0.0
C156 C 0.15849 0.50814 0.25079 0.0
C157 C 0.16126 0.52582 0.29183 0.0
C158 C 0.18492 0.5352 0.29945 0.0
C159 C 0.20538 0.52723 0.26588 0.0
P160 P 0.16896 0.21639 0.3318 0.0
H161 H 0.19835 0.19014 0.24419 0.0
H162 H 0.18654 0.16697 0.15779 0.0
H163 H 0.11345 0.19313 0.17052 0.0
H164 H 0.12518 0.21557 0.25838 0.0
H165 H 0.16832 0.24515 0.43827 0.0
H166 H 0.14946 0.28108 0.45556 0.0
H167 H 0.13425 0.28817 0.25561 0.0
H168 H 0.15269 0.25184 0.23922 0.0
H169 H 0.17227 0.16975 0.38254 0.0
H170 H 0.12124 0.22352 0.39842 0.0
O171 O 0.19838 0.21349 0.34808 0.0
H172 H 0.14253 0.14369 0.44443 0.0
H173 H 0.09222 0.19794 0.46169 0.0
C174 C 0.16282 0.20499 0.25669 0.0
C175 C 0.18003 0.19142 0.22706 0.0
C176 C 0.17321 0.17812 0.17768 0.0
C177 C 0.14898 0.17805 0.15754 0.0
C178 C 0.13215 0.19253 0.18547 0.0
C179 C 0.13896 0.20569 0.23497 0.0
C180 C 0.16126 0.24553 0.338 0.0
C181 C 0.16141 0.2547 0.39787 0.0
C182 C 0.15065 0.27534 0.40759 0.0
C183 C 0.13988 0.28738 0.35718 0.0
C184 C 0.14175 0.27903 0.29585 0.0
C185 C 0.15238 0.25825 0.28634 0.0
C186 C 0.14944 0.1988 0.38783 0.0
C187 C 0.15508 0.17614 0.40103 0.0
C188 C 0.13806 0.16125 0.43574 0.0
C189 C 0.11527 0.16895 0.45813 0.0
C190 C 0.10987 0.19174 0.44591 0.0
C191 C 0.12663 0.20644 0.41017 0.0
P192 P 0.28731 0.05691 0.26772 0.0
H193 H 0.29857 0.07803 0.13898 0.0
H194 H 0.324 0.06576 0.04941 0.0
H195 H 0.32555 0.999 0.14467 0.0
H196 H 0.29896 0.011 0.23126 0.0
H197 H 0.25388 0.0902 0.31367 0.0
H198 H 0.21453 0.08692 0.37327 0.0
H199 H 0.21002 0.0152 0.34614 0.0
H200 H 0.24932 0.01891 0.28193 0.0
H201 H 0.3332 0.07142 0.32136 0.0
H202 H 0.28261 0.01333 0.345 0.0
O203 O 0.29546 0.08447 0.26106 0.0
H204 H 0.36085 0.05246 0.39218 0.0
H205 H 0.31076 0.99374 0.41285 0.0
C206 C 0.2972 0.04561 0.19284 0.0
C207 C 0.3037 0.06052 0.13958 0.0
C208 C 0.31868 0.05356 0.08864 0.0
C209 C 0.32765 0.03153 0.09008 0.0
C210 C 0.31917 0.0161 0.14109 0.0
C211 C 0.3039 0.02301 0.1914 0.0
C212 C 0.25501 0.05471 0.29419 0.0
C213 C 0.24431 0.07379 0.31862 0.0
C214 C 0.22177 0.07185 0.35365 0.0
C215 C 0.20947 0.05065 0.36663 0.0
C216 C 0.21912 0.03176 0.33767 0.0
C217 C 0.2417 0.03383 0.30132 0.0
C218 C 0.30558 0.04401 0.32817 0.0
C219 C 0.32783 0.05469 0.34227 0.0
C220 C 0.34387 0.04362 0.38214 0.0
C221 C 0.33829 0.02134 0.40756 0.0
C222 C 0.31562 0.01094 0.39479 0.0
C223 C 0.2994 0.0222 0.3557 0.0
P224 P 0.42158 0.29337 0.24198 0.0
H225 H 0.39966 0.29399 0.11813 0.0
H226 H 0.40956 0.31736 0.01947 0.0
H227 H 0.4775 0.3406 0.09619 0.0
H228 H 0.46822 0.31641 0.1917 0.0
H229 H 0.38588 0.25979 0.30161 0.0
H230 H 0.3908 0.22271 0.35368 0.0
H231 H 0.46675 0.22435 0.28098 0.0
H232 H 0.46078 0.26073 0.22332 0.0
H233 H 0.41104 0.33413 0.30849 0.0
H234 H 0.46925 0.28668 0.2999 0.0
O235 O 0.39206 0.30002 0.24954 0.0
H236 H 0.4353 0.35729 0.3759 0.0
H237 H 0.49388 0.31006 0.36456 0.0
C238 C 0.43286 0.30381 0.16304 0.0
C239 C 0.41708 0.30353 0.11259 0.0
C240 C 0.42264 0.31718 0.05651 0.0
C241 C 0.44401 0.33148 0.05029 0.0
C242 C 0.46087 0.32992 0.09869 0.0
C243 C 0.45544 0.31607 0.15419 0.0
C244 C 0.42318 0.26333 0.25993 0.0
C245 C 0.40336 0.25187 0.29473 0.0
C246 C 0.40634 0.23071 0.3255 0.0
C247 C 0.42951 0.22092 0.32419 0.0
C248 C 0.44869 0.2314 0.28382 0.0
C249 C 0.44538 0.25234 0.25113 0.0
C250 C 0.43801 0.30837 0.29981 0.0
C251 C 0.42885 0.32846 0.32179 0.0
C252 C 0.44292 0.34187 0.35969 0.0
C253 C 0.4667 0.33567 0.37525 0.0
C254 C 0.47554 0.31522 0.35446 0.0
C255 C 0.46132 0.30171 0.31724 0.0
C256 C 0.01848 0.98762 0.76564 0.0
N257 N 0.99331 0.98205 0.59279 0.0
C258 C 0.01045 0.96609 0.58673 0.0
C259 C 0.0056 0.9468 0.55452 0.0
C260 C 0.9834 0.94419 0.52394 0.0
C261 C 0.96627 0.96142 0.52898 0.0
C262 C 0.97148 0.98014 0.56462 0.0
Zn263 Zn 0.00266 0.00772 0.64891 0.0
C264 C 0.96243 0.01949 0.76623 0.0
N265 N 0.03218 0.05028 0.81696 0.0
C266 C 0.05508 0.04235 0.82399 0.0
C267 C 0.02365 0.06726 0.85167 0.0
C268 C 0.03888 0.07785 0.89322 0.0
C269 C 0.06318 0.07098 0.89844 0.0
C270 C 0.07091 0.05243 0.86498 0.0
Zn271 Zn 0.01301 0.04217 0.74088 0.0
O272 O 0.01391 0.98309 0.71013 0.0
C273 C 0.05368 0.02875 0.63136 0.0
O274 O 0.01787 0.00795 0.78072 0.0
H275 H 0.00561 0.07361 0.84377 0.0
H276 H 0.02791 0.968 0.60838 0.0
H277 H 0.06165 0.02912 0.79491 0.0
O278 O 0.03935 0.01353 0.60973 0.0
O279 O 0.04665 0.04064 0.67823 0.0
H280 H 0.95816 0.99312 0.56972 0.0
O281 O 0.99284 0.04063 0.66779 0.0
O282 O 0.99141 0.03328 0.57244 0.0
O283 O 0.97809 0.03413 0.78686 0.0
O284 O 0.96707 0.00837 0.71504 0.0
C285 C 0.99481 0.04822 0.6112 0.0
H286 H 0.01924 0.934 0.555 0.0
H287 H 0.94906 0.96065 0.50565 0.0
H288 H 0.03225 0.09226 0.91743 0.0
H289 H 0.0894 0.04645 0.86817 0.0
C290 C 0.47809 0.98671 0.64739 0.0
N291 N 0.50432 0.05363 0.65097 0.0
C292 C 0.50095 0.05411 0.58718 0.0
C293 C 0.49265 0.07355 0.55541 0.0
C294 C 0.48799 0.09278 0.58948 0.0
C295 C 0.493 0.09216 0.65453 0.0
C296 C 0.50099 0.0723 0.68454 0.0
Zn297 Zn 0.51101 0.02357 0.69878 0.0
C298 C 0.4761 0.01243 0.80932 0.0
N299 N 0.52182 0.95849 0.78852 0.0
C300 C 0.51922 0.93742 0.76648 0.0
C301 C 0.52695 0.96121 0.85031 0.0
C302 C 0.52966 0.94261 0.89246 0.0
C303 C 0.5261 0.92063 0.87237 0.0
C304 C 0.5212 0.91812 0.80794 0.0
Zn305 Zn 0.51581 0.98816 0.73649 0.0
O306 O 0.48544 0.00736 0.64369 0.0
C307 C 0.55025 0.99839 0.62574 0.0
O308 O 0.48737 0.97274 0.68675 0.0
H309 H 0.52829 0.97792 0.86804 0.0
H310 H 0.50372 0.03908 0.56131 0.0
H311 H 0.51489 0.93556 0.71739 0.0
O312 O 0.54036 0.01747 0.63027 0.0
O313 O 0.54257 0.98167 0.66356 0.0
H314 H 0.50373 0.07155 0.7352 0.0
O315 O 0.54472 0.00446 0.78301 0.0
O316 O 0.53706 0.03955 0.75346 0.0
O317 O 0.48863 0.99478 0.80809 0.0
O318 O 0.48153 0.02883 0.76845 0.0
C319 C 0.54997 0.02551 0.78334 0.0
H320 H 0.48887 0.07311 0.50543 0.0
H321 H 0.4902 0.10672 0.68249 0.0
H322 H 0.53412 0.94559 0.9409 0.0
H323 H 0.51812 0.90153 0.7902 0.0
C324 C 0.53455 0.45885 0.60141 0.0
N325 N 0.47968 0.50641 0.61604 0.0
C326 C 0.47771 0.50378 0.5526 0.0
C327 C 0.4557 0.50824 0.5238 0.0
C328 C 0.43562 0.51604 0.56019 0.0
C329 C 0.43867 0.51948 0.62499 0.0
C330 C 0.46068 0.51416 0.6522 0.0
Zn331 Zn 0.51114 0.49796 0.65972 0.0
C332 C 0.5012 0.46247 0.76472 0.0
N333 N 0.57643 0.47995 0.751 0.0
C334 C 0.5982 0.47715 0.718 0.0
C335 C 0.57447 0.47755 0.81591 0.0
C336 C 0.59484 0.47209 0.85025 0.0
C337 C 0.61758 0.46929 0.81762 0.0
C338 C 0.61918 0.47189 0.75061 0.0
Zn339 Zn 0.54565 0.48838 0.70515 0.0
O340 O 0.51648 0.47176 0.59903 0.0
C341 C 0.55521 0.52371 0.59985 0.0
O342 O 0.55079 0.46195 0.64166 0.0
H343 H 0.55707 0.48006 0.84129 0.0
H344 H 0.49304 0.49778 0.52438 0.0
H345 H 0.59931 0.47911 0.6664 0.0
O346 O 0.53211 0.52074 0.59637 0.0
O347 O 0.56648 0.51213 0.64117 0.0
H348 H 0.46239 0.516 0.70262 0.0
O349 O 0.53989 0.51489 0.76864 0.0
O350 O 0.50672 0.52426 0.72011 0.0
O351 O 0.52439 0.46491 0.76726 0.0
O352 O 0.4902 0.4749 0.72478 0.0
C353 C 0.52199 0.52787 0.76205 0.0
H354 H 0.45434 0.50493 0.47402 0.0
H355 H 0.42414 0.52601 0.655 0.0
H356 H 0.59293 0.47057 0.90193 0.0
H357 H 0.63639 0.46973 0.72376 0.0
C358 C 0.03208 0.51187 0.60541 0.0
N359 N 0.03052 0.44138 0.62704 0.0
C360 C 0.02647 0.44206 0.56363 0.0
C361 C 0.03556 0.42543 0.52551 0.0
C362 C 0.04903 0.4079 0.55276 0.0
C363 C 0.05264 0.40742 0.61854 0.0
C364 C 0.04316 0.4244 0.65499 0.0
Zn365 Zn 0.01886 0.46751 0.67871 0.0
C366 C 0.05804 0.48507 0.75647 0.0
N367 N 0.99535 0.52423 0.7788 0.0
C368 C 0.98409 0.5417 0.74882 0.0
C369 C 0.99885 0.52382 0.84247 0.0
C370 C 0.99093 0.54148 0.87858 0.0
C371 C 0.97947 0.55983 0.84879 0.0
C372 C 0.97606 0.55982 0.78302 0.0
Zn373 Zn 0.00688 0.49787 0.72789 0.0
O374 O 0.03361 0.49055 0.6053 0.0
C375 C 0.96841 0.48023 0.64699 0.0
O376 O 0.02124 0.52067 0.65221 0.0
H377 H 0.00792 0.5098 0.86531 0.0
H378 H 0.01654 0.45579 0.5422 0.0
H379 H 0.98133 0.54161 0.69826 0.0
O380 O 0.98517 0.46644 0.63567 0.0
O381 O 0.97203 0.49563 0.68547 0.0
H382 H 0.04618 0.42419 0.70547 0.0
O383 O 0.99272 0.47463 0.80277 0.0
O384 O 0.00386 0.44471 0.7534 0.0
O385 O 0.04213 0.49969 0.76855 0.0
O386 O 0.05262 0.46909 0.72151 0.0
C387 C 0.99341 0.45321 0.80139 0.0
H388 H 0.03259 0.42663 0.47489 0.0
H389 H 0.06264 0.39404 0.64165 0.0
H390 H 0.99422 0.541 0.92901 0.0
H391 H 0.96715 0.57359 0.75838 0.0
H392 H 0.16542 0.02513 0.36478 0.0
H393 H 0.20574 0.07072 0.47967 0.0
H394 H 0.17091 0.06915 0.55921 0.0
H395 H 0.10703 0.04723 0.3924 0.0
H396 H 0.08935 0.02076 0.40069 0.0
H397 H 0.11774 0.02321 0.35211 0.0
H398 H 0.13598 0.99013 0.41586 0.0
H399 H 0.10745 0.98623 0.46359 0.0
H400 H 0.13605 0.99018 0.50162 0.0
H401 H 0.1319 0.06409 0.62493 0.0
H402 H 0.09041 0.05542 0.67437 0.0
H403 H 0.07428 0.01235 0.52039 0.0
C404 C 0.16697 0.03458 0.40697 0.0
C405 C 0.18828 0.04837 0.41515 0.0
C406 C 0.18948 0.0605 0.47118 0.0
C407 C 0.16983 0.05958 0.51712 0.0
C408 C 0.14903 0.04624 0.50717 0.0
C409 C 0.14741 0.0338 0.45388 0.0
C410 C 0.12255 0.02112 0.45511 0.0
C411 C 0.10831 0.02853 0.39666 0.0
C412 C 0.1257 0.99539 0.4593 0.0
C413 C 0.11043 0.02882 0.51665 0.0
C414 C 0.12623 0.04314 0.54595 0.0
C415 C 0.11937 0.05278 0.60273 0.0
C416 C 0.09567 0.04775 0.63041 0.0
C417 C 0.07895 0.03317 0.60153 0.0
C418 C 0.08661 0.02346 0.54396 0.0
H419 H 0.46053 0.18506 0.30894 0.0
H420 H 0.4101 0.21383 0.44684 0.0
H421 H 0.41867 0.18369 0.52663 0.0
H422 H 0.44756 0.12581 0.36068 0.0
H423 H 0.4792 0.11814 0.35016 0.0
H424 H 0.46791 0.14112 0.30115 0.0
H425 H 0.50249 0.16795 0.33691 0.0
H426 H 0.51384 0.14508 0.38612 0.0
H427 H 0.50571 0.17107 0.4209 0.0
H428 H 0.43301 0.15149 0.59302 0.0
H429 H 0.4528 0.11875 0.64278 0.0
H430 H 0.49638 0.11174 0.46606 0.0
C431 C 0.4512 0.185 0.35577 0.0
C432 C 0.43418 0.2017 0.37066 0.0
C433 C 0.42253 0.20091 0.43294 0.0
C434 C 0.42746 0.18395 0.47914 0.0
C435 C 0.44432 0.1679 0.46297 0.0
C436 C 0.45609 0.16822 0.403 0.0
C437 C 0.47413 0.14933 0.39939 0.0
C438 C 0.46675 0.13261 0.34991 0.0
C439 C 0.50061 0.15894 0.38499 0.0
C440 C 0.47068 0.13854 0.46683 0.0
C441 C 0.45329 0.14952 0.50241 0.0
C442 C 0.44679 0.14279 0.56585 0.0
C443 C 0.45836 0.12428 0.59389 0.0
C444 C 0.47643 0.11275 0.55878 0.0
C445 C 0.48258 0.12005 0.49423 0.0
H446 H 0.34264 0.52825 0.27955 0.0
H447 H 0.28395 0.51248 0.42504 0.0
H448 H 0.31363 0.51525 0.50893 0.0
H449 H 0.38624 0.49581 0.34928 0.0
H450 H 0.41243 0.51491 0.3292 0.0
H451 H 0.38633 0.51549 0.28027 0.0
H452 H 0.38198 0.55823 0.29616 0.0
H453 H 0.40832 0.55788 0.34458 0.0
H454 H 0.3795 0.56789 0.3759 0.0
H455 H 0.34953 0.51331 0.57462 0.0
H456 H 0.3896 0.50947 0.6206 0.0
H457 H 0.42604 0.52914 0.43499 0.0
C458 C 0.33605 0.52615 0.32919 0.0
C459 C 0.3111 0.52018 0.34616 0.0
C460 C 0.30306 0.517 0.41138 0.0
C461 C 0.31973 0.51862 0.45927 0.0
C462 C 0.34437 0.52365 0.44118 0.0
C463 C 0.35256 0.52771 0.37789 0.0
C464 C 0.38038 0.531 0.37175 0.0
C465 C 0.39201 0.51324 0.33017 0.0
C466 C 0.38799 0.55519 0.34555 0.0
C467 C 0.38649 0.52717 0.44107 0.0
C468 C 0.36539 0.52316 0.48015 0.0
C469 C 0.36621 0.51714 0.54496 0.0
C470 C 0.38923 0.51515 0.57076 0.0
C471 C 0.41132 0.51941 0.53209 0.0
C472 C 0.40971 0.52574 0.46631 0.0
H473 H 0.14861 0.32096 0.43949 0.0
H474 H 0.09609 0.29798 0.30665 0.0
H475 H 0.06832 0.32784 0.33751 0.0
H476 H 0.10499 0.33048 0.56247 0.0
H477 H 0.12066 0.35529 0.58872 0.0
H478 H 0.13798 0.33405 0.55065 0.0
H479 H 0.15675 0.36434 0.46579 0.0
H480 H 0.13967 0.38576 0.50402 0.0
H481 H 0.13661 0.38176 0.42043 0.0
H482 H 0.04453 0.3578 0.38967 0.0
H483 H 0.02707 0.38663 0.45713 0.0
H484 H 0.09463 0.38966 0.55747 0.0
C485 C 0.1314 0.32234 0.41631 0.0
C486 C 0.12469 0.30715 0.37022 0.0
C487 C 0.10198 0.30966 0.341 0.0
C488 C 0.08595 0.32648 0.35859 0.0
C489 C 0.09285 0.34072 0.4054 0.0
C490 C 0.11511 0.33895 0.43354 0.0
C491 C 0.11752 0.35553 0.48517 0.0
C492 C 0.12045 0.34309 0.55061 0.0
C493 C 0.1389 0.37288 0.46779 0.0
C494 C 0.09288 0.36652 0.48265 0.0
C495 C 0.07902 0.35787 0.43596 0.0
C496 C 0.05533 0.36491 0.42585 0.0
C497 C 0.04559 0.38133 0.46431 0.0
C498 C 0.05949 0.39046 0.51248 0.0
C499 C 0.08346 0.38289 0.52147 0.0
H500 H 0.86583 0.03583 0.05702 0.0
H501 H 0.80971 0.00417 0.94897 0.0
H502 H 0.84142 0.99633 0.86575 0.0
H503 H 0.89812 0.06441 0.92411 0.0
H504 H 0.92812 0.06104 0.9549 0.0
H505 H 0.90147 0.06188 0.00911 0.0
H506 H 0.91192 0.02311 0.06295 0.0
H507 H 0.93866 0.02218 0.00891 0.0
H508 H 0.91585 0.99919 0.01475 0.0
H509 H 0.87951 0.99398 0.79019 0.0
H510 H 0.91999 0.99803 0.72984 0.0
H511 H 0.95012 0.03283 0.88586 0.0
C512 C 0.8601 0.02718 0.01608 0.0
C513 C 0.83511 0.02055 0.01021 0.0
C514 C 0.8287 0.00905 0.95573 0.0
C515 C 0.8466 0.00464 0.90777 0.0
C516 C 0.87093 0.01183 0.91464 0.0
C517 C 0.87765 0.02283 0.96757 0.0
C518 C 0.90472 0.02996 0.96216 0.0
C519 C 0.9083 0.05586 0.96257 0.0
C520 C 0.9186 0.01788 0.01535 0.0
C521 C 0.91212 0.02162 0.89744 0.0
C522 C 0.89251 0.01097 0.87091 0.0
C523 C 0.895 0.00222 0.81074 0.0
C524 C 0.91808 0.00458 0.77677 0.0
C525 C 0.93828 0.01584 0.80276 0.0
C526 C 0.9351 0.02424 0.8642 0.0
H527 H 0.54828 0.7931 0.00126 0.0
H528 H 0.52186 0.81221 0.18818 0.0
H529 H 0.51825 0.85158 0.14477 0.0
H530 H 0.58363 0.84687 0.95493 0.0
H531 H 0.57584 0.84641 0.87272 0.0
H532 H 0.57834 0.82021 0.91984 0.0
H533 H 0.53411 0.80796 0.89304 0.0
H534 H 0.53131 0.83425 0.84669 0.0
H535 H 0.50903 0.826 0.9113 0.0
H536 H 0.51244 0.88709 0.0791 0.0
H537 H 0.50971 0.91846 0.99843 0.0
H538 H 0.54263 0.87755 0.85402 0.0
C539 C 0.54216 0.80571 0.03318 0.0
C540 C 0.53543 0.7997 0.09814 0.0
C541 C 0.52745 0.81656 0.13856 0.0
C542 C 0.52517 0.8389 0.11422 0.0
C543 C 0.53126 0.84412 0.0496 0.0
C544 C 0.54005 0.82816 0.00981 0.0
C545 C 0.54479 0.83819 0.94189 0.0
C546 C 0.57229 0.83791 0.92114 0.0
C547 C 0.52886 0.82586 0.89552 0.0
C548 C 0.53666 0.86214 0.94945 0.0
C549 C 0.52886 0.86509 0.01197 0.0
C550 C 0.51914 0.88522 0.03035 0.0
C551 C 0.51784 0.90303 0.98396 0.0
C552 C 0.5266 0.90086 0.91977 0.0
C553 C 0.53589 0.87994 0.90246 0.0
H554 H 0.69114 0.41072 0.09752 0.0
H555 H 0.75403 0.45471 0.03134 0.0
H556 H 0.73013 0.47119 0.9446 0.0
H557 H 0.67018 0.39959 0.94264 0.0
H558 H 0.63799 0.4 0.9674 0.0
H559 H 0.66005 0.3916 0.02428 0.0
H560 H 0.64517 0.42243 0.09823 0.0
H561 H 0.623 0.43085 0.04173 0.0
H562 H 0.64499 0.45147 0.067 0.0
H563 H 0.69972 0.48229 0.86377 0.0
H564 H 0.66381 0.48912 0.79897 0.0
H565 H 0.6207 0.43821 0.9186 0.0
C566 C 0.69984 0.4238 0.06467 0.0
C567 C 0.72437 0.43152 0.07117 0.0
C568 C 0.73513 0.44878 0.02766 0.0
C569 C 0.72178 0.45812 0.978 0.0
C570 C 0.69768 0.45006 0.9727 0.0
C571 C 0.68672 0.43343 0.01513 0.0
C572 C 0.66039 0.42812 -0.0004 0.0
C573 C 0.65696 0.40336 0.98245 0.0
C574 C 0.64232 0.43355 0.05493 0.0
C575 C 0.65827 0.44436 0.94185 0.0
C576 C 0.68003 0.45673 0.92677 0.0
C577 C 0.68255 0.47272 0.87511 0.0
C578 C 0.66215 0.47638 0.83838 0.0
C579 C 0.63952 0.46422 0.85388 0.0
C580 C 0.63772 0.4479 0.90602 0.0
H581 H 0.98184 0.68882 0.93056 0.0
H582 H 0.9472 0.66749 0.11646 0.0
H583 H 0.94223 0.62845 0.08216 0.0
H584 H 0.94391 0.65087 0.83631 0.0
H585 H 0.96981 0.64607 0.78236 0.0
H586 H 0.96772 0.6727 0.81918 0.0
H587 H 0.0108 0.66738 0.86342 0.0
H588 H 0.01292 0.64069 0.82746 0.0
H589 H 0.01627 0.6421 0.91201 0.0
H590 H 0.94556 0.591 0.03154 0.0
H591 H 0.95545 0.55853 0.96726 0.0
H592 H 0.98718 0.60491 0.81442 0.0
C593 C 0.97239 0.67618 0.96343 0.0
C594 C 0.96477 0.68129 0.02613 0.0
C595 C 0.95328 0.66397 0.06828 0.0
C596 C 0.95026 0.64177 0.04911 0.0
C597 C 0.95861 0.63723 0.98747 0.0
C598 C 0.96918 0.65403 0.94504 0.0
C599 C 0.97825 0.64454 0.88316 0.0
C600 C 0.96407 0.65411 0.82693 0.0
C601 C 0.00621 0.64894 0.87085 0.0
C602 C 0.97184 0.61965 0.89804 0.0
C603 C 0.96035 0.61575 0.95821 0.0
C604 C 0.95419 0.59389 0.98398 0.0
C605 C 0.96004 0.57557 0.94736 0.0
C606 C 0.97192 0.57924 0.88573 0.0
C607 C 0.97761 0.60161 0.86077 0.0
H608 H 0.09757 0.12876 0.418 0.0
H609 H 0.09038 0.17403 0.57199 0.0
H610 H 0.05735 0.14866 0.6253 0.0
H611 H 0.03262 0.11453 0.41262 0.0
H612 H 0.03723 0.08546 0.39558 0.0
H613 H 0.06045 0.10704 0.36983 0.0
H614 H 0.09283 0.08456 0.42939 0.0
H615 H 0.0699 0.06288 0.45664 0.0
H616 H 0.08763 0.07709 0.51343 0.0
H617 H 0.02618 0.11826 0.66258 0.0
H618 H 0.99854 0.08435 0.6828 0.0
H619 H 0.02469 0.05926 0.50255 0.0
C620 C 0.08914 0.13316 0.46323 0.0
C621 C 0.0965 0.15318 0.4914 0.0
C622 C 0.08489 0.15871 0.54996 0.0
C623 C 0.06615 0.14445 0.58037 0.0
C624 C 0.0591 0.12495 0.55103 0.0
C625 C 0.07013 0.11931 0.49372 0.0
C626 C 0.05898 0.0974 0.47236 0.0
C627 C 0.04658 0.10136 0.40883 0.0
C628 C 0.07849 0.07939 0.46766 0.0
C629 C 0.04014 0.09145 0.52706 0.0
C630 C 0.04055 0.10763 0.57181 0.0
C631 C 0.02551 0.10558 0.62768 0.0
C632 C 0.00986 0.08632 0.63861 0.0
C633 C 0.00928 0.06942 0.59382 0.0
C634 C 0.02439 0.07217 0.5369 0.0
H635 H 0.38853 0.02351 0.38821 0.0
H636 H 0.32947 0.99105 0.51227 0.0
H637 H 0.3602 0.97179 0.5762 0.0
H638 H 0.43273 0.97783 0.39815 0.0
H639 H 0.45852 0.99769 0.40046 0.0
H640 H 0.43195 0.00554 0.3578 0.0
H641 H 0.42726 0.04082 0.42437 0.0
H642 H 0.45396 0.03326 0.46617 0.0
H643 H 0.42528 0.03715 0.51033 0.0
H644 H 0.39763 0.95978 0.63436 0.0
H645 H 0.43743 0.95981 0.68646 0.0
H646 H 0.47109 0.00154 0.5265 0.0
C647 C 0.38192 0.01229 0.42861 0.0
C648 C 0.3565 0.00884 0.445 0.0
C649 C 0.34881 0.99374 0.49794 0.0
C650 C 0.36615 0.98269 0.53458 0.0
C651 C 0.3911 0.98683 0.51756 0.0
C652 C 0.3989 0.00141 0.46593 0.0
C653 C 0.42653 0.00533 0.46185 0.0
C654 C 0.43811 0.99603 0.40094 0.0
C655 C 0.43366 0.03062 0.46598 0.0
C656 C 0.43304 0.99139 0.52072 0.0
C657 C 0.41252 0.98031 0.5515 0.0
C658 C 0.41389 0.96801 0.61002 0.0
C659 C 0.43656 0.96793 0.63906 0.0
C660 C 0.45721 0.98043 0.60982 0.0
C661 C 0.4556 0.9915 0.54901 0.0
H662 H 0.47025 0.38204 0.36309 0.0
H663 H 0.49923 0.3241 0.46675 0.0
H664 H 0.52552 0.34989 0.52433 0.0
H665 H 0.52614 0.41867 0.35277 0.0
H666 H 0.50921 0.44373 0.36591 0.0
H667 H 0.49523 0.42067 0.32675 0.0
H668 H 0.45839 0.41836 0.41092 0.0
H669 H 0.47208 0.44158 0.44953 0.0
H670 H 0.46424 0.41516 0.49456 0.0
H671 H 0.54605 0.3823 0.57714 0.0
H672 H 0.55546 0.41811 0.62755 0.0
H673 H 0.51166 0.45419 0.49135 0.0
C674 C 0.48208 0.37467 0.39788 0.0
C675 C 0.48267 0.35099 0.41017 0.0
C676 C 0.49871 0.34217 0.45565 0.0
C677 C 0.51374 0.35669 0.4886 0.0
C678 C 0.51256 0.37997 0.47544 0.0
C679 C 0.49698 0.38887 0.43142 0.0
C680 C 0.49729 0.41441 0.43009 0.0
C681 C 0.50759 0.42499 0.36501 0.0
C682 C 0.47148 0.42286 0.44734 0.0
C683 C 0.51487 0.41851 0.48177 0.0
C684 C 0.52396 0.39853 0.50649 0.0
C685 C 0.53931 0.39808 0.5576 0.0
C686 C 0.54469 0.41849 0.58568 0.0
C687 C 0.53435 0.43884 0.56307 0.0
C688 C 0.51999 0.43888 0.50919 0.0
H689 H 0.15707 0.53225 0.41909 0.0
H690 H 0.11626 0.53557 0.24765 0.0
H691 H 0.07819 0.5419 0.31228 0.0
H692 H 0.11604 0.49981 0.50873 0.0
H693 H 0.11991 0.51265 0.58337 0.0
H694 H 0.14461 0.51453 0.52308 0.0
H695 H 0.14591 0.55832 0.5247 0.0
H696 H 0.12102 0.55649 0.58529 0.0
H697 H 0.11831 0.57352 0.51212 0.0
H698 H 0.04399 0.53877 0.39497 0.0
H699 H 0.0167 0.52594 0.48933 0.0
H700 H 0.07923 0.52586 0.60757 0.0
C701 C 0.14032 0.53535 0.39503 0.0
C702 C 0.13954 0.53357 0.32856 0.0
C703 C 0.11716 0.53685 0.29868 0.0
C704 C 0.09552 0.54068 0.33492 0.0
C705 C 0.09664 0.54142 0.40088 0.0
C706 C 0.11856 0.53907 0.43065 0.0
C707 C 0.11428 0.5369 0.50256 0.0
C708 C 0.12428 0.51465 0.53102 0.0
C709 C 0.12555 0.55755 0.53295 0.0
C710 C 0.08645 0.53673 0.50841 0.0
C711 C 0.0766 0.54 0.44933 0.0
C712 C 0.05138 0.53709 0.44173 0.0
C713 C 0.03599 0.52989 0.49536 0.0
C714 C 0.04598 0.52583 0.55532 0.0
C715 C 0.07125 0.52997 0.56237 0.0
H716 H 0.02318 0.85712 0.86743 0.0
H717 H 0.99653 0.87286 0.0572 0.0
H718 H 1.00064 0.91379 0.02506 0.0
H719 H 0.06746 0.90455 0.83818 0.0
H720 H 0.06082 0.90901 0.75534 0.0
H721 H 0.05719 0.88104 0.79441 0.0
H722 H 0.0118 0.8782 0.76299 0.0
H723 H 0.01545 0.90599 0.72315 0.0
H724 H 0.9912 0.90002 0.78438 0.0
H725 H 0.0069 0.95309 0.97101 0.0
H726 H 0.01013 0.98712 0.89579 0.0
H727 H 0.03202 0.94517 0.74191 0.0
C728 C 0.01838 0.86923 0.90221 0.0
C729 C 0.00956 0.86195 0.96467 0.0
C730 C 0.00311 0.87819 0.00884 0.0
C731 C 0.00563 0.90143 0.99126 0.0
C732 C 0.01454 0.90809 0.92931 0.0
C733 C 0.02053 0.89244 0.88527 0.0
C734 C 0.02809 0.90391 0.82061 0.0
C735 C 0.055 0.89935 0.80101 0.0
C736 C 0.01059 0.8966 0.76982 0.0
C737 C 0.02514 0.92842 0.83492 0.0
C738 C 0.01769 0.93058 0.89806 0.0
C739 C 0.01288 0.95163 0.92153 0.0
C740 C 0.01492 0.97087 0.87868 0.0
C741 C 0.02137 0.96873 0.81326 0.0
C742 C 0.02717 0.94731 0.79181 0.0
H743 H 0.64657 0.0763 0.01297 0.0
H744 H 0.70152 0.0398 0.90723 0.0
H745 H 0.67123 0.0309 0.82927 0.0
H746 H 0.59856 0.03721 0.00039 0.0
H747 H 0.57476 0.05736 0.99142 0.0
H748 H 0.60161 0.0645 0.03346 0.0
H749 H 0.61037 0.10033 0.95738 0.0
H750 H 0.58338 0.09339 0.91528 0.0
H751 H 0.61292 0.09762 0.87232 0.0
H752 H 0.63455 0.02082 0.77289 0.0
H753 H 0.59316 0.01174 0.73709 0.0
H754 H 0.56089 0.05448 0.87694 0.0
C755 C 0.65236 0.06677 0.97282 0.0
C756 C 0.6766 0.05898 0.9661 0.0
C757 C 0.68335 0.04651 0.91283 0.0
C758 C 0.66619 0.04121 0.86834 0.0
C759 C 0.64236 0.04856 0.87745 0.0
C760 C 0.63539 0.06125 0.9279 0.0
C761 C 0.608 0.06534 0.92936 0.0
C762 C 0.59498 0.05551 0.99239 0.0
C763 C 0.6034 0.09068 0.91788 0.0
C764 C 0.60056 0.05217 0.87333 0.0
C765 C 0.62081 0.04283 0.84391 0.0
C766 C 0.61862 0.02839 0.79458 0.0
C767 C 0.5951 0.02323 0.77491 0.0
C768 C 0.57414 0.03257 0.8042 0.0
C769 C 0.57682 0.0475 0.85333 0.0
H770 H 0.53274 0.60621 0.05692 0.0
H771 H 0.5083 0.66106 0.93268 0.0
H772 H 0.50572 0.63525 0.84477 0.0
H773 H 0.57117 0.58144 0.93427 0.0
H774 H 0.56409 0.55271 0.96504 0.0
H775 H 0.56374 0.5754 0.01839 0.0
H776 H 0.51889 0.56347 0.05728 0.0
H777 H 0.51906 0.54081 0.00387 0.0
H778 H 0.49562 0.5615 -0.00022 0.0
H779 H 0.50354 0.60347 0.77347 0.0
H780 H 0.5056 0.56807 0.71784 0.0
H781 H 0.53459 0.53409 0.88495 0.0
C782 C 0.52691 0.61265 0.01103 0.0
C783 C 0.52059 0.63543 0.00096 0.0
C784 C 0.51322 0.64358 0.94063 0.0
C785 C 0.51166 0.62908 0.89075 0.0
C786 C 0.5179 0.60665 0.90206 0.0
C787 C 0.52573 0.5985 0.96028 0.0
C788 C 0.53196 0.57378 0.95895 0.0
C789 C 0.55937 0.57066 0.96979 0.0
C790 C 0.51539 0.55902 0.00787 0.0
C791 C 0.52606 0.56926 0.89116 0.0
C792 C 0.51775 0.58844 0.85957 0.0
C793 C 0.5102 0.58838 0.79742 0.0
C794 C 0.51129 0.56819 0.76645 0.0
C795 C 0.52023 0.54846 0.79734 0.0
C796 C 0.52784 0.54903 0.86034 0.0
H797 H 0.88786 0.42868 0.07166 0.0
H798 H 0.89494 0.35693 0.04912 0.0
H799 H 0.9322 0.36541 0.97667 0.0
H800 H 0.90274 0.4472 0.91491 0.0
H801 H 0.9195 0.47261 0.9331 0.0
H802 H 0.89554 0.46045 0.98828 0.0
H803 H 0.9263 0.45835 0.07827 0.0
H804 H 0.95042 0.47055 0.02319 0.0
H805 H 0.95456 0.44382 0.06631 0.0
H806 H 0.96545 0.38265 0.89603 0.0
H807 H 0.99221 0.40666 0.81805 0.0
H808 H 0.96342 0.46678 0.89852 0.0
C809 C 0.89749 0.41475 0.05211 0.0
C810 C 0.88863 0.39219 0.06531 0.0
C811 C 0.90164 0.37432 0.03945 0.0
C812 C 0.92274 0.379 0.99843 0.0
C813 C 0.93069 0.40158 0.98509 0.0
C814 C 0.91857 0.41911 0.01198 0.0
C815 C 0.92976 0.44195 0.98774 0.0
C816 C 0.91076 0.45638 0.954 0.0
C817 C 0.94093 0.4544 0.04212 0.0
C818 C 0.94954 0.43468 0.94106 0.0
C819 C 0.95002 0.41136 0.94035 0.0
C820 C 0.96554 0.40091 0.89709 0.0
C821 C 0.98064 0.41467 0.85293 0.0
C822 C 0.98004 0.43859 0.85248 0.0
C823 C 0.96463 0.44856 0.89815 0.0
H824 H 0.10527 0.15335 0.16184 0.0
H825 H 0.17416 0.1657 0.04888 0.0
H826 H 0.1607 0.13771 0.97404 0.0
H827 H 0.09871 0.09354 0.1416 0.0
H828 H 0.0658 0.09383 0.13616 0.0
H829 H 0.08121 0.11419 0.1821 0.0
H830 H 0.06247 0.14701 0.11593 0.0
H831 H 0.04685 0.12677 0.07014 0.0
H832 H 0.06696 0.14866 0.03011 0.0
H833 H 0.13924 0.10915 0.91029 0.0
H834 H 0.11072 0.08348 0.85925 0.0
H835 H 0.05569 0.09012 0.01371 0.0
C836 C 0.11747 0.1504 0.12102 0.0
C837 C 0.14077 0.1618 0.11114 0.0
C838 C 0.15633 0.15703 0.05777 0.0
C839 C 0.14883 0.1412 0.01497 0.0
C840 C 0.12575 0.13027 0.02631 0.0
C841 C 0.11027 0.13473 0.07788 0.0
C842 C 0.08614 0.12114 0.07847 0.0
C843 C 0.08278 0.1047 0.13813 0.0
C844 C 0.06432 0.13683 0.07333 0.0
C845 C 0.09031 0.10855 0.01855 0.0
C846 C 0.11336 0.11388 0.98952 0.0
C847 C 0.12122 0.10471 0.93283 0.0
C848 C 0.10493 0.08999 0.90449 0.0
C849 C 0.08101 0.08463 0.93273 0.0
C850 C 0.07381 0.09391 0.99092 0.0
H851 H 0.36541 0.05864 0.02785 0.0
H852 H 0.33433 0.98968 0.0422 0.0
H853 H 0.36907 0.97792 0.97396 0.0
H854 H 0.38677 0.05761 0.85816 0.0
H855 H 0.41397 0.07503 0.86818 0.0
H856 H 0.38641 0.07827 0.91777 0.0
H857 H 0.41111 0.07152 0.01861 0.0
H858 H 0.43866 0.06795 0.96943 0.0
H859 H 0.42794 0.04599 0.0287 0.0
H860 H 0.40865 0.97273 0.91287 0.0
H861 H 0.44803 0.97516 0.84929 0.0
H862 H 0.45213 0.04806 0.86318 0.0
C863 C 0.36545 0.04116 0.01561 0.0
C864 C 0.34704 0.02507 0.04179 0.0
C865 C 0.34835 0.00231 0.02471 0.0
C866 C 0.36799 0.99544 0.98544 0.0
C867 C 0.38604 0.01158 0.96217 0.0
C868 C 0.38472 0.03406 0.9753 0.0
C869 C 0.40654 0.04796 0.94322 0.0
C870 C 0.39791 0.06577 0.89389 0.0
C871 C 0.42197 0.059 0.99297 0.0
C872 C 0.42053 0.02965 0.91097 0.0
C873 C 0.40841 0.00877 0.92336 0.0
C874 C 0.41814 0.98901 0.90209 0.0
C875 C 0.44066 0.99058 0.86639 0.0
C876 C 0.4532 0.01181 0.85119 0.0
C877 C 0.4429 0.03164 0.87371 0.0
H878 H 0.48748 0.34878 0.98883 0.0
H879 H 0.40832 0.3565 0.99509 0.0
H880 H 0.41413 0.38985 0.91929 0.0
H881 H 0.50279 0.40682 0.99284 0.0
H882 H 0.53008 0.40637 0.94044 0.0
H883 H 0.51971 0.38128 0.98855 0.0
H884 H 0.51822 0.35851 0.88722 0.0
H885 H 0.52888 0.38348 0.83883 0.0
H886 H 0.50069 0.3687 0.82176 0.0
H887 H 0.42872 0.42413 0.84809 0.0
H888 H 0.45114 0.45597 0.7855 0.0
H889 H 0.5206 0.42718 0.83256 0.0
C890 C 0.47128 0.35731 0.97407 0.0
C891 C 0.44741 0.34973 0.99799 0.0
C892 C 0.4268 0.36146 0.9766 0.0
C893 C 0.4299 0.38064 0.93391 0.0
C894 C 0.45373 0.38802 0.91311 0.0
C895 C 0.47406 0.37666 0.93226 0.0
C896 C 0.49775 0.3888 0.90598 0.0
C897 C 0.5135 0.39626 0.96019 0.0
C898 C 0.51223 0.37399 0.86075 0.0
C899 C 0.48756 0.40896 0.86989 0.0
C900 C 0.46214 0.40811 0.87399 0.0
C901 C 0.44865 0.42494 0.84441 0.0
C902 C 0.46152 0.44298 0.80917 0.0
C903 C 0.48759 0.44415 0.80451 0.0
C904 C 0.50066 0.42691 0.83567 0.0
H905 H 0.17113 0.54285 0.9189 0.0
H906 H 0.20557 0.47779 0.91032 0.0
H907 H 0.17366 0.46483 0.84259 0.0
H908 H 0.11303 0.51988 0.94765 0.0
H909 H 0.0973 0.54116 0.90231 0.0
H910 H 0.12611 0.54834 0.93548 0.0
H911 H 0.14476 0.56247 0.82342 0.0
H912 H 0.11578 0.55577 0.78994 0.0
H913 H 0.14365 0.54401 0.75842 0.0
H914 H 0.13484 0.45597 0.79202 0.0
H915 H 0.09248 0.45282 0.75697 0.0
H916 H 0.0805 0.52182 0.80702 0.0
C917 C 0.17237 0.526 0.90214 0.0
C918 C 0.19127 0.51153 0.92089 0.0
C919 C 0.192 0.48971 0.89622 0.0
C920 C 0.17365 0.48196 0.85788 0.0
C921 C 0.15448 0.49606 0.8445 0.0
C922 C 0.15378 0.51772 0.86524 0.0
C923 C 0.12954 0.52833 0.85113 0.0
C924 C 0.11569 0.5348 0.91282 0.0
C925 C 0.13369 0.54886 0.80284 0.0
C926 C 0.11638 0.50884 0.82191 0.0
C927 C 0.13134 0.49059 0.81733 0.0
C928 C 0.12306 0.47026 0.79445 0.0
C929 C 0.0989 0.4686 0.77506 0.0
C930 C 0.08315 0.48704 0.77952 0.0
C931 C 0.09207 0.50741 0.80331 0.0
H932 H 0.02242 0.83606 0.34321 0.0
H933 H 0.94562 0.8235 0.30432 0.0
H934 H 0.93413 0.85489 0.37021 0.0
H935 H 0.01502 0.85652 0.50028 0.0
H936 H 0.03879 0.87843 0.48397 0.0
H937 H 0.0403 0.8525 0.44358 0.0
H938 H 0.04294 0.87551 0.3341 0.0
H939 H 0.04143 0.90146 0.37413 0.0
H940 H 0.0194 0.89517 0.31605 0.0
H941 H 0.93157 0.88929 0.43945 0.0
H942 H 0.93844 0.92366 0.49777 0.0
H943 H 0.01751 0.91739 0.46609 0.0
C944 C 0.00312 0.83975 0.3477 0.0
C945 C 0.98507 0.827 0.31781 0.0
C946 C 0.95997 0.83245 0.32746 0.0
C947 C 0.9532 0.85049 0.36445 0.0
C948 C 0.97173 0.86324 0.39049 0.0
C949 C 0.9962 0.85818 0.38175 0.0
C950 C 0.01297 0.87572 0.40816 0.0
C951 C 0.02762 0.86516 0.46221 0.0
C952 C 0.03019 0.88767 0.35494 0.0
C953 C 0.99414 0.89151 0.4334 0.0
C954 C 0.97043 0.8839 0.42428 0.0
C955 C 0.95013 0.89551 0.44618 0.0
C956 C 0.95428 0.91527 0.47872 0.0
C957 C 0.9786 0.92361 0.4876 0.0
C958 C 0.99861 0.91154 0.46295 0.0
H959 H 0.66451 0.04387 0.39305 0.0
H960 H 0.68418 0.9741 0.375 0.0
H961 H 0.64786 0.96122 0.44584 0.0
H962 H 0.64298 0.03788 0.55899 0.0
H963 H 0.61834 0.05703 0.54837 0.0
H964 H 0.64602 0.06047 0.49721 0.0
H965 H 0.61999 0.05832 0.3979 0.0
H966 H 0.59225 0.05468 0.4488 0.0
H967 H 0.5994 0.03412 0.39144 0.0
H968 H 0.60937 0.9562 0.52064 0.0
H969 H 0.57207 0.95942 0.59168 0.0
H970 H 0.57747 0.03254 0.55781 0.0
C971 C 0.66141 0.02588 0.40466 0.0
C972 C 0.67734 0.00999 0.37887 0.0
C973 C 0.67222 0.98658 0.39406 0.0
C974 C 0.65167 0.97912 0.43436 0.0
C975 C 0.6363 0.99527 0.4587 0.0
C976 C 0.64094 0.01817 0.4443 0.0
C977 C 0.62147 0.03211 0.47574 0.0
C978 C 0.63289 0.04779 0.52288 0.0
C979 C 0.60745 0.0456 0.42546 0.0
C980 C 0.60514 0.01351 0.51035 0.0
C981 C 0.61399 0.99237 0.50017 0.0
C982 C 0.60223 0.97267 0.52862 0.0
C983 C 0.58103 0.97467 0.56886 0.0
C984 C 0.57168 0.9962 0.58 0.0
C985 C 0.58391 0.0158 0.54976 0.0
H986 H 0.55617 0.65086 0.47962 0.0
H987 H 0.59123 0.63078 0.30262 0.0
H988 H 0.60144 0.59453 0.35642 0.0
H989 H 0.59544 0.61776 0.59436 0.0
H990 H 0.56881 0.6105 0.6474 0.0
H991 H 0.57087 0.63723 0.60108 0.0
H992 H 0.52888 0.62762 0.55451 0.0
H993 H 0.52684 0.60093 0.60012 0.0
H994 H 0.52496 0.60172 0.51462 0.0
H995 H 0.5997 0.55751 0.42158 0.0
H996 H 0.58606 0.52377 0.49255 0.0
H997 H 0.55014 0.56719 0.62401 0.0
C998 C 0.56667 0.63914 0.45261 0.0
C999 C 0.57293 0.64381 0.38686 0.0
C1000 C 0.58664 0.62794 0.35332 0.0
C1001 C 0.59245 0.60716 0.38349 0.0
C1002 C 0.58459 0.60252 0.44734 0.0
C1003 C 0.57221 0.61822 0.48174 0.0
C1004 C 0.56227 0.60799 0.5462 0.0
C1005 C 0.57512 0.61903 0.60047 0.0
C1006 C 0.53409 0.60965 0.55425 0.0
C1007 C 0.56963 0.58376 0.54109 0.0
C1008 C 0.58312 0.58099 0.48459 0.0
C1009 C 0.58976 0.55958 0.46673 0.0
C1010 C 0.58198 0.54054 0.50704 0.0
C1011 C 0.56753 0.5432 0.56366 0.0
C1012 C 0.56174 0.565 0.58143 0.0
H1013 H 0.88392 0.43343 0.38599 0.0
H1014 H 0.82002 0.45328 0.49807 0.0
H1015 H 0.84751 0.47042 0.57429 0.0
H1016 H 0.91864 0.41704 0.51716 0.0
H1017 H 0.94773 0.4268 0.47817 0.0
H1018 H 0.92291 0.41776 0.43136 0.0
H1019 H 0.92599 0.45653 0.36626 0.0
H1020 H 0.95081 0.46571 0.41307 0.0
H1021 H 0.92378 0.48226 0.40752 0.0
H1022 H 0.883 0.48529 0.63816 0.0
H1023 H 0.92244 0.49314 0.68836 0.0
H1024 H 0.96175 0.46152 0.53457 0.0
C1025 C 0.87571 0.44169 0.42608 0.0
C1026 C 0.84995 0.44242 0.4359 0.0
C1027 C 0.83979 0.45273 0.48981 0.0
C1028 C 0.85524 0.46256 0.53298 0.0
C1029 C 0.88069 0.46163 0.52162 0.0
C1030 C 0.89076 0.45123 0.46968 0.0
C1031 C 0.91847 0.45111 0.46968 0.0
C1032 C 0.92745 0.42674 0.47441 0.0
C1033 C 0.93046 0.46472 0.41063 0.0
C1034 C 0.92257 0.46297 0.52996 0.0
C1035 C 0.9007 0.46925 0.55905 0.0
C1036 C 0.9002 0.48042 0.61572 0.0
C1037 C 0.92263 0.48489 0.64374 0.0
C1038 C 0.94502 0.47782 0.61541 0.0
C1039 C 0.94487 0.46699 0.55752 0.0
loop_
_geom_bond_atom_site_label_1
_geom_bond_atom_site_label_2
_geom_bond_distance
_geom_bond_site_symmetry_2
_ccdc_geom_bond_type
P0 O11 1.490 . S
P0 C14 1.812 . S
P0 C20 1.803 . S
P0 C26 1.819 . S
H1 C15 0.941 . S
H2 C16 0.939 . S
H3 C18 0.940 . S
H4 C19 0.940 . S
H5 C21 0.939 . S
H6 C22 0.942 . S
H7 C24 0.940 . S
H8 C25 0.939 . S
H9 C27 0.941 . S
H10 C31 0.939 . S
O11 P0 1.490 . S
H12 C28 0.939 . S
H13 C30 0.940 1_556 S
C14 P0 1.812 . S
C14 C15 1.389 . S
C14 C19 1.391 . S
C15 H1 0.941 . S
C15 C14 1.389 . S
C15 C16 1.397 . S
C16 H2 0.939 . S
C16 C15 1.397 . S
C16 C17 1.378 . S
C17 C16 1.378 . S
C17 C18 1.378 . S
C18 H3 0.940 . S
C18 C17 1.378 . S
C18 C19 1.396 . S
C19 H4 0.940 . S
C19 C14 1.391 . S
C19 C18 1.396 . S
C20 P0 1.803 . S
C20 C21 1.378 . S
C20 C25 1.400 . S
C21 H5 0.939 . S
C21 C20 1.378 . S
C21 C22 1.361 . S
C22 H6 0.942 . S
C22 C21 1.361 . S
C22 C23 1.369 . S
C23 C22 1.369 . S
C23 C24 1.404 . S
C24 H7 0.940 . S
C24 C23 1.404 . S
C24 C25 1.389 . S
C25 H8 0.939 . S
C25 C20 1.400 . S
C25 C24 1.389 . S
C26 P0 1.819 . S
C26 C27 1.391 . S
C26 C31 1.391 . S
C27 H9 0.941 . S
C27 C26 1.391 . S
C27 C28 1.396 . S
C28 H12 0.939 . S
C28 C27 1.396 . S
C28 C29 1.397 . S
C29 C28 1.397 . S
C29 C30 1.385 . S
C30 H13 0.940 1_554 S
C30 C29 1.385 . S
C30 C31 1.388 . S
C31 H10 0.939 . S
C31 C26 1.391 . S
C31 C30 1.388 . S
P32 O43 1.489 . S
P32 C46 1.806 1_556 S
P32 C52 1.805 . S
P32 C58 1.823 . S
H33 C47 0.941 . S
H34 C48 0.939 . S
H35 C50 0.940 . S
H36 C51 0.940 . S
H37 C53 0.939 . S
H38 C54 0.942 . S
H39 C56 0.940 1_554 S
H40 C57 0.939 . S
H41 C59 0.941 . S
H42 C63 0.939 . S
O43 P32 1.489 . S
H44 C60 0.939 . S
H45 C62 0.940 . S
C46 P32 1.806 1_554 S
C46 C47 1.389 . S
C46 C51 1.391 . S
C47 H33 0.941 . S
C47 C46 1.389 . S
C47 C48 1.397 . S
C48 H34 0.939 . S
C48 C47 1.397 . S
C48 C49 1.378 . S
C49 C48 1.378 . S
C49 C50 1.378 . S
C50 H35 0.940 . S
C50 C49 1.378 . S
C50 C51 1.396 . S
C51 H36 0.940 . S
C51 C46 1.391 . S
C51 C50 1.396 . S
C52 P32 1.805 . S
C52 C53 1.378 . S
C52 C57 1.400 1_556 S
C53 H37 0.939 . S
C53 C52 1.378 . S
C53 C54 1.361 . S
C54 H38 0.942 . S
C54 C53 1.361 . S
C54 C55 1.369 . S
C55 C54 1.369 . S
C55 C56 1.404 . S
C56 H39 0.940 1_556 S
C56 C55 1.404 . S
C56 C57 1.389 1_556 S
C57 H40 0.939 . S
C57 C52 1.400 1_554 S
C57 C56 1.389 1_554 S
C58 P32 1.823 . S
C58 C59 1.391 . S
C58 C63 1.391 . S
C59 H41 0.941 . S
C59 C58 1.391 . S
C59 C60 1.396 . S
C60 H44 0.939 . S
C60 C59 1.396 . S
C60 C61 1.397 . S
C61 C60 1.397 . S
C61 C62 1.385 . S
C62 H45 0.940 . S
C62 C61 1.385 . S
C62 C63 1.388 . S
C63 H42 0.939 . S
C63 C58 1.391 . S
C63 C62 1.388 . S
P64 O75 1.490 . S
P64 C78 1.812 . S
P64 C84 1.803 . S
P64 C90 1.819 . S
H65 C79 0.941 . S
H66 C80 0.939 . S
H67 C82 0.940 . S
H68 C83 0.951 . S
H69 C85 0.939 . S
H70 C86 0.942 1_556 S
H71 C88 0.940 . S
H72 C89 0.957 . S
H73 C91 0.941 . S
H74 C95 0.928 1_565 S
O75 P64 1.490 . S
H76 C92 0.939 . S
H77 C94 0.940 . S
C78 P64 1.812 . S
C78 C79 1.389 . S
C78 C83 1.375 1_545 S
C79 H65 0.941 . S
C79 C78 1.389 . S
C79 C80 1.397 . S
C80 H66 0.939 . S
C80 C79 1.397 . S
C80 C81 1.378 . S
C81 C80 1.378 . S
C81 C82 1.378 1_545 S
C82 H67 0.940 . S
C82 C81 1.378 1_565 S
C82 C83 1.401 . S
C83 H68 0.951 . S
C83 C78 1.375 1_565 S
C83 C82 1.401 . S
C84 P64 1.803 . S
C84 C85 1.378 . S
C84 C89 1.369 1_545 S
C85 H69 0.939 . S
C85 C84 1.378 . S
C85 C86 1.361 . S
C86 H70 0.942 1_554 S
C86 C85 1.361 . S
C86 C87 1.369 . S
C87 C86 1.369 . S
C87 C88 1.404 1_545 S
C88 H71 0.940 . S
C88 C87 1.404 1_565 S
C88 C89 1.404 . S
C89 H72 0.957 . S
C89 C84 1.369 1_565 S
C89 C88 1.404 . S
C90 P64 1.819 . S
C90 C91 1.391 . S
C90 C95 1.391 1_554 S
C91 H73 0.941 . S
C91 C90 1.391 . S
C91 C92 1.396 1_554 S
C92 H76 0.939 . S
C92 C91 1.396 1_556 S
C92 C93 1.397 . S
C93 C92 1.397 . S
C93 C94 1.385 1_545 S
C94 H77 0.940 . S
C94 C93 1.385 1_565 S
C94 C95 1.388 1_565 S
C95 H74 0.928 1_545 S
C95 C90 1.391 1_556 S
C95 C94 1.388 1_545 S
P96 O107 1.490 . S
P96 C110 1.812 . S
P96 C116 1.803 . S
P96 C122 1.819 . S
H97 C111 0.941 . S
H98 C112 0.939 . S
H99 C114 0.940 . S
H100 C115 0.940 . S
H101 C117 0.939 . S
H102 C118 0.942 . S
H103 C120 0.940 . S
H104 C121 0.939 . S
H105 C123 0.941 . S
H106 C127 0.939 . S
O107 P96 1.490 . S
H108 C124 0.939 . S
H109 C126 0.940 . S
C110 P96 1.812 . S
C110 C111 1.389 . S
C110 C115 1.391 . S
C111 H97 0.941 . S
C111 C110 1.389 . S
C111 C112 1.397 . S
C112 H98 0.939 . S
C112 C111 1.397 . S
C112 C113 1.378 . S
C113 C112 1.378 . S
C113 C114 1.378 . S
C114 H99 0.940 . S
C114 C113 1.378 . S
C114 C115 1.396 . S
C115 H100 0.940 . S
C115 C110 1.391 . S
C115 C114 1.396 . S
C116 P96 1.803 . S
C116 C117 1.378 . S
C116 C121 1.400 . S
C117 H101 0.939 . S
C117 C116 1.378 . S
C117 C118 1.361 . S
C118 H102 0.942 . S
C118 C117 1.361 . S
C118 C119 1.369 . S
C119 C118 1.369 . S
C119 C120 1.404 . S
C120 H103 0.940 . S
C120 C119 1.404 . S
C120 C121 1.389 . S
C121 H104 0.939 . S
C121 C116 1.400 . S
C121 C120 1.389 . S
C122 P96 1.819 . S
C122 C123 1.391 . S
C122 C127 1.391 1_554 S
C123 H105 0.941 . S
C123 C122 1.391 . S
C123 C124 1.396 . S
C124 H108 0.939 . S
C124 C123 1.396 . S
C124 C125 1.397 1_554 S
C125 C124 1.397 1_556 S
C125 C126 1.385 . S
C126 H109 0.940 . S
C126 C125 1.385 . S
C126 C127 1.388 . S
C127 H106 0.939 . S
C127 C122 1.391 1_556 S
C127 C126 1.388 . S
P128 O139 1.490 . S
P128 C142 1.812 . S
P128 C148 1.803 . S
P128 C154 1.819 . S
H129 C143 0.941 . S
H130 C144 0.939 . S
H131 C146 0.940 . S
H132 C147 0.940 . S
H133 C149 0.939 . S
H134 C150 0.942 . S
H135 C152 0.940 . S
H136 C153 0.939 . S
H137 C155 0.941 . S
H138 C159 0.939 . S
O139 P128 1.490 . S
H140 C156 0.939 . S
H141 C158 0.940 . S
C142 P128 1.812 . S
C142 C143 1.389 . S
C142 C147 1.391 . S
C143 H129 0.941 . S
C143 C142 1.389 . S
C143 C144 1.397 . S
C144 H130 0.939 . S
C144 C143 1.397 . S
C144 C145 1.378 . S
C145 C144 1.378 . S
C145 C146 1.378 . S
C146 H131 0.940 . S
C146 C145 1.378 . S
C146 C147 1.396 . S
C147 H132 0.940 . S
C147 C142 1.391 . S
C147 C146 1.396 . S
C148 P128 1.803 . S
C148 C149 1.378 . S
C148 C153 1.400 . S
C149 H133 0.939 . S
C149 C148 1.378 . S
C149 C150 1.361 . S
C150 H134 0.942 . S
C150 C149 1.361 . S
C150 C151 1.369 . S
C151 C150 1.369 . S
C151 C152 1.404 . S
C152 H135 0.940 . S
C152 C151 1.404 . S
C152 C153 1.389 . S
C153 H136 0.939 . S
C153 C148 1.400 . S
C153 C152 1.389 . S
C154 P128 1.819 . S
C154 C155 1.391 . S
C154 C159 1.391 . S
C155 H137 0.941 . S
C155 C154 1.391 . S
C155 C156 1.396 . S
C156 H140 0.939 . S
C156 C155 1.396 . S
C156 C157 1.397 . S
C157 C156 1.397 . S
C157 C158 1.385 . S
C158 H141 0.940 . S
C158 C157 1.385 . S
C158 C159 1.388 . S
C159 H138 0.939 . S
C159 C154 1.391 . S
C159 C158 1.388 . S
P160 O171 1.490 . S
P160 C174 1.812 . S
P160 C180 1.803 . S
P160 C186 1.819 . S
H161 C175 0.941 . S
H162 C176 0.939 . S
H163 C178 0.940 . S
H164 C179 0.940 . S
H165 C181 0.939 . S
H166 C182 0.942 . S
H167 C184 0.940 . S
H168 C185 0.939 . S
H169 C187 0.941 . S
H170 C191 0.939 . S
O171 P160 1.490 . S
H172 C188 0.939 . S
H173 C190 0.940 . S
C174 P160 1.812 . S
C174 C175 1.389 . S
C174 C179 1.391 . S
C175 H161 0.941 . S
C175 C174 1.389 . S
C175 C176 1.397 . S
C176 H162 0.939 . S
C176 C175 1.397 . S
C176 C177 1.378 . S
C177 C176 1.378 . S
C177 C178 1.378 . S
C178 H163 0.940 . S
C178 C177 1.378 . S
C178 C179 1.396 . S
C179 H164 0.940 . S
C179 C174 1.391 . S
C179 C178 1.396 . S
C180 P160 1.803 . S
C180 C181 1.378 . S
C180 C185 1.400 . S
C181 H165 0.939 . S
C181 C180 1.378 . S
C181 C182 1.361 . S
C182 H166 0.942 . S
C182 C181 1.361 . S
C182 C183 1.369 . S
C183 C182 1.369 . S
C183 C184 1.404 . S
C184 H167 0.940 . S
C184 C183 1.404 . S
C184 C185 1.389 . S
C185 H168 0.939 . S
C185 C180 1.400 . S
C185 C184 1.389 . S
C186 P160 1.819 . S
C186 C187 1.391 . S
C186 C191 1.391 . S
C187 H169 0.941 . S
C187 C186 1.391 . S
C187 C188 1.396 . S
C188 H172 0.939 . S
C188 C187 1.396 . S
C188 C189 1.397 . S
C189 C188 1.397 . S
C189 C190 1.385 . S
C190 H173 0.940 . S
C190 C189 1.385 . S
C190 C191 1.388 . S
C191 H170 0.939 . S
C191 C186 1.391 . S
C191 C190 1.388 . S
P192 O203 1.490 . S
P192 C206 1.812 . S
P192 C212 1.803 . S
P192 C218 1.819 . S
H193 C207 0.941 . S
H194 C208 0.939 . S
H195 C210 0.940 . S
H196 C211 0.943 . S
H197 C213 0.939 . S
H198 C214 0.942 . S
H199 C216 0.940 . S
H200 C217 0.953 . S
H201 C219 0.941 . S
H202 C223 0.934 1_565 S
O203 P192 1.490 . S
H204 C220 0.939 . S
H205 C222 0.940 . S
C206 P192 1.812 . S
C206 C207 1.389 . S
C206 C211 1.385 1_545 S
C207 H193 0.941 . S
C207 C206 1.389 . S
C207 C208 1.397 . S
C208 H194 0.939 . S
C208 C207 1.397 . S
C208 C209 1.378 . S
C209 C208 1.378 . S
C209 C210 1.378 1_545 S
C210 H195 0.940 . S
C210 C209 1.378 1_565 S
C210 C211 1.399 . S
C211 H196 0.943 . S
C211 C206 1.385 1_565 S
C211 C210 1.399 . S
C212 P192 1.803 . S
C212 C213 1.378 . S
C212 C217 1.379 1_545 S
C213 H197 0.939 . S
C213 C212 1.378 . S
C213 C214 1.361 . S
C214 H198 0.942 . S
C214 C213 1.361 . S
C214 C215 1.369 . S
C215 C214 1.369 . S
C215 C216 1.404 1_545 S
C216 H199 0.940 . S
C216 C215 1.404 1_565 S
C216 C217 1.396 . S
C217 H200 0.953 . S
C217 C212 1.379 1_565 S
C217 C216 1.396 . S
C218 P192 1.819 . S
C218 C219 1.391 . S
C218 C223 1.391 . S
C219 H201 0.941 . S
C219 C218 1.391 . S
C219 C220 1.396 . S
C220 H204 0.939 . S
C220 C219 1.396 . S
C220 C221 1.397 . S
C221 C220 1.397 . S
C221 C222 1.385 1_545 S
C222 H205 0.940 . S
C222 C221 1.385 1_565 S
C222 C223 1.388 1_565 S
C223 H202 0.934 1_545 S
C223 C218 1.391 . S
C223 C222 1.388 1_545 S
P224 O235 1.490 . S
P224 C238 1.812 . S
P224 C244 1.803 . S
P224 C250 1.819 . S
H225 C239 0.941 . S
H226 C240 0.939 . S
H227 C242 0.940 . S
H228 C243 0.940 . S
H229 C245 0.939 . S
H230 C246 0.942 . S
H231 C248 0.940 . S
H232 C249 0.939 . S
H233 C251 0.941 . S
H234 C255 0.939 . S
O235 P224 1.490 . S
H236 C252 0.939 . S
H237 C254 0.940 . S
C238 P224 1.812 . S
C238 C239 1.389 . S
C238 C243 1.391 . S
C239 H225 0.941 . S
C239 C238 1.389 . S
C239 C240 1.397 . S
C240 H226 0.939 . S
C240 C239 1.397 . S
C240 C241 1.378 . S
C241 C240 1.378 . S
C241 C242 1.378 . S
C242 H227 0.940 . S
C242 C241 1.378 . S
C242 C243 1.396 . S
C243 H228 0.940 . S
C243 C238 1.391 . S
C243 C242 1.396 . S
C244 P224 1.803 . S
C244 C245 1.378 . S
C244 C249 1.400 . S
C245 H229 0.939 . S
C245 C244 1.378 . S
C245 C246 1.361 . S
C246 H230 0.942 . S
C246 C245 1.361 . S
C246 C247 1.369 . S
C247 C246 1.369 . S
C247 C248 1.404 . S
C248 H231 0.940 . S
C248 C247 1.404 . S
C248 C249 1.389 . S
C249 H232 0.939 . S
C249 C244 1.400 . S
C249 C248 1.389 . S
C250 P224 1.819 . S
C250 C251 1.391 . S
C250 C255 1.391 . S
C251 H233 0.941 . S
C251 C250 1.391 . S
C251 C252 1.396 . S
C252 H236 0.939 . S
C252 C251 1.396 . S
C252 C253 1.397 . S
C253 C252 1.397 . S
C253 C254 1.385 . S
C254 H237 0.940 . S
C254 C253 1.385 . S
C254 C255 1.388 . S
C255 H234 0.939 . S
C255 C250 1.391 . S
C255 C254 1.388 . S
C256 O272 1.251 . S
C256 O274 1.254 . S
N257 C258 1.330 1_655 S
N257 C262 1.318 . S
N257 Zn263 2.014 1_655 S
C258 N257 1.330 1_455 S
C258 C259 1.379 1_455 S
C258 H276 0.952 . S
C259 C258 1.379 1_655 S
C259 C260 1.390 . S
C259 H286 0.949 . S
C260 C259 1.390 . S
C260 C261 1.357 . S
C261 C260 1.357 . S
C261 C262 1.370 . S
C261 H287 0.950 . S
C262 N257 1.318 . S
C262 C261 1.370 . S
C262 H280 0.949 1_565 S
Zn263 N257 2.014 1_455 S
Zn263 O272 2.039 . S
Zn263 O278 2.034 . S
Zn263 O282 2.025 1_565 S
Zn263 O284 2.040 1_455 S
C264 O283 1.246 . S
C264 O284 1.227 1_545 S
N265 C266 1.307 . S
N265 C267 1.333 . S
N265 Zn271 2.020 . S
C266 N265 1.307 . S
C266 C270 1.370 . S
C266 H277 0.949 . S
C267 N265 1.333 . S
C267 C268 1.379 . S
C267 H275 0.952 . S
C268 C267 1.379 . S
C268 C269 1.390 . S
C268 H288 0.949 . S
C269 C268 1.390 . S
C269 C270 1.357 . S
C270 C266 1.370 . S
C270 C269 1.357 . S
C270 H289 0.950 . S
Zn271 N265 2.020 . S
Zn271 O274 2.025 1_545 S
Zn271 O279 2.024 . S
Zn271 O281 2.039 . S
Zn271 O283 2.034 1_455 S
O272 C256 1.251 . S
O272 Zn263 2.039 . S
C273 O278 1.246 . S
C273 O279 1.249 1_565 S
O274 C256 1.254 . S
O274 Zn271 2.025 1_565 S
H275 C267 0.952 . S
H276 C258 0.952 . S
H277 C266 0.949 . S
O278 Zn263 2.034 . S
O278 C273 1.246 . S
O279 Zn271 2.024 . S
O279 C273 1.249 1_545 S
H280 C262 0.949 1_545 S
O281 Zn271 2.039 . S
O281 C285 1.251 . S
O282 Zn263 2.025 1_545 S
O282 C285 1.254 . S
O283 C264 1.246 . S
O283 Zn271 2.034 1_655 S
O284 Zn263 2.040 1_655 S
O284 C264 1.227 1_565 S
C285 O281 1.251 . S
C285 O282 1.254 . S
H286 C259 0.949 . S
H287 C261 0.950 . S
H288 C268 0.949 . S
H289 C270 0.950 . S
C290 O306 1.251 1_565 S
C290 O308 1.254 . S
N291 C292 1.333 . S
N291 C296 1.307 . S
N291 Zn297 2.020 . S
C292 N291 1.333 . S
C292 C293 1.379 . S
C292 H310 0.952 . S
C293 C292 1.379 . S
C293 C294 1.390 . S
C293 H320 0.949 . S
C294 C293 1.390 . S
C294 C295 1.357 . S
C295 C294 1.357 . S
C295 C296 1.370 . S
C295 H321 0.950 . S
C296 N291 1.307 . S
C296 C295 1.370 . S
C296 H314 0.948 . S
Zn297 N291 2.020 . S
Zn297 O306 2.039 . S
Zn297 O312 2.034 . S
Zn297 O316 2.025 . S
Zn297 O318 2.024 . S
C298 O317 1.246 1_545 S
C298 O318 1.249 . S
N299 C300 1.307 . S
N299 C301 1.333 . S
N299 Zn305 2.020 . S
C300 N299 1.307 . S
C300 C304 1.370 . S
C300 H311 0.948 . S
C301 N299 1.333 . S
C301 C302 1.379 . S
C301 H309 0.952 . S
C302 C301 1.379 . S
C302 C303 1.390 . S
C302 H322 0.949 . S
C303 C302 1.390 . S
C303 C304 1.357 . S
C304 C300 1.370 . S
C304 C303 1.357 . S
C304 H323 0.950 . S
Zn305 N299 2.020 . S
Zn305 O308 2.025 . S
Zn305 O313 2.024 . S
Zn305 O315 2.039 . S
Zn305 O317 2.034 . S
O306 C290 1.251 1_545 S
O306 Zn297 2.039 . S
C307 O312 1.246 1_565 S
C307 O313 1.249 . S
O308 C290 1.254 . S
O308 Zn305 2.025 . S
H309 C301 0.952 . S
H310 C292 0.952 . S
H311 C300 0.948 . S
O312 Zn297 2.034 . S
O312 C307 1.246 1_545 S
O313 Zn305 2.024 . S
O313 C307 1.249 . S
H314 C296 0.948 . S
O315 Zn305 2.039 . S
O315 C319 1.251 1_565 S
O316 Zn297 2.025 . S
O316 C319 1.254 . S
O317 C298 1.246 1_565 S
O317 Zn305 2.034 . S
O318 Zn297 2.024 . S
O318 C298 1.249 . S
C319 O315 1.251 1_545 S
C319 O316 1.254 . S
H320 C293 0.949 . S
H321 C295 0.950 . S
H322 C302 0.949 . S
H323 C304 0.950 . S
C324 O340 1.251 . S
C324 O342 1.254 . S
N325 C326 1.333 . S
N325 C330 1.307 . S
N325 Zn331 2.020 . S
C326 N325 1.333 . S
C326 C327 1.379 . S
C326 H344 0.952 . S
C327 C326 1.379 . S
C327 C328 1.390 . S
C327 H354 0.949 . S
C328 C327 1.390 . S
C328 C329 1.357 . S
C329 C328 1.357 . S
C329 C330 1.370 . S
C329 H355 0.950 . S
C330 N325 1.307 . S
C330 C329 1.370 . S
C330 H348 0.948 . S
Zn331 N325 2.020 . S
Zn331 O340 2.039 . S
Zn331 O346 2.034 . S
Zn331 O350 2.025 . S
Zn331 O352 2.024 . S
C332 O351 1.246 . S
C332 O352 1.249 . S
N333 C334 1.307 . S
N333 C335 1.333 . S
N333 Zn339 2.020 . S
C334 N333 1.307 . S
C334 C338 1.370 . S
C334 H345 0.948 . S
C335 N333 1.333 . S
C335 C336 1.379 . S
C335 H343 0.952 . S
C336 C335 1.379 . S
C336 C337 1.390 . S
C336 H356 0.949 . S
C337 C336 1.390 . S
C337 C338 1.357 . S
C338 C334 1.370 . S
C338 C337 1.357 . S
C338 H357 0.950 . S
Zn339 N333 2.020 . S
Zn339 O342 2.025 . S
Zn339 O347 2.024 . S
Zn339 O349 2.039 . S
Zn339 O351 2.034 . S
O340 C324 1.251 . S
O340 Zn331 2.039 . S
C341 O346 1.246 . S
C341 O347 1.249 . S
O342 C324 1.254 . S
O342 Zn339 2.025 . S
H343 C335 0.952 . S
H344 C326 0.952 . S
H345 C334 0.948 . S
O346 Zn331 2.034 . S
O346 C341 1.246 . S
O347 Zn339 2.024 . S
O347 C341 1.249 . S
H348 C330 0.948 . S
O349 Zn339 2.039 . S
O349 C353 1.251 . S
O350 Zn331 2.025 . S
O350 C353 1.254 . S
O351 C332 1.246 . S
O351 Zn339 2.034 . S
O352 Zn331 2.024 . S
O352 C332 1.249 . S
C353 O349 1.251 . S
C353 O350 1.254 . S
H354 C327 0.949 . S
H355 C329 0.950 . S
H356 C336 0.949 . S
H357 C338 0.950 . S
C358 O374 1.251 . S
C358 O376 1.254 . S
N359 C360 1.333 . S
N359 C364 1.307 . S
N359 Zn365 2.020 . S
C360 N359 1.333 . S
C360 C361 1.379 . S
C360 H378 0.952 . S
C361 C360 1.379 . S
C361 C362 1.390 . S
C361 H388 0.949 . S
C362 C361 1.390 . S
C362 C363 1.357 . S
C363 C362 1.357 . S
C363 C364 1.370 . S
C363 H389 0.950 . S
C364 N359 1.307 . S
C364 C363 1.370 . S
C364 H382 0.948 . S
Zn365 N359 2.020 . S
Zn365 O374 2.039 . S
Zn365 O380 2.066 . S
Zn365 O384 2.025 1_455 S
Zn365 O386 2.024 . S
C366 O385 1.246 . S
C366 O386 1.249 . S
N367 C368 1.307 . S
N367 C369 1.333 1_455 S
N367 Zn373 2.020 . S
C368 N367 1.307 . S
C368 C372 1.370 . S
C368 H379 0.948 . S
C369 N367 1.333 1_655 S
C369 C370 1.379 . S
C369 H377 0.952 . S
C370 C369 1.379 . S
C370 C371 1.390 . S
C370 H390 0.949 . S
C371 C370 1.390 . S
C371 C372 1.357 1_655 S
C372 C368 1.370 . S
C372 C371 1.357 1_455 S
C372 H391 0.950 . S
Zn373 N367 2.020 . S
Zn373 O376 2.025 . S
Zn373 O381 2.024 1_455 S
Zn373 O383 2.039 1_455 S
Zn373 O385 2.034 . S
O374 C358 1.251 . S
O374 Zn365 2.039 . S
C375 O380 1.218 1_655 S
C375 O381 1.249 . S
O376 C358 1.254 . S
O376 Zn373 2.025 . S
H377 C369 0.952 . S
H378 C360 0.952 . S
H379 C368 0.948 . S
O380 Zn365 2.066 . S
O380 C375 1.218 1_455 S
O381 Zn373 2.024 1_655 S
O381 C375 1.249 . S
H382 C364 0.948 . S
O383 Zn373 2.039 1_655 S
O383 C387 1.251 . S
O384 Zn365 2.025 1_655 S
O384 C387 1.254 . S
O385 C366 1.246 . S
O385 Zn373 2.034 . S
O386 Zn365 2.024 . S
O386 C366 1.249 . S
C387 O383 1.251 . S
C387 O384 1.254 . S
H388 C361 0.949 . S
H389 C363 0.950 . S
H390 C370 0.949 . S
H391 C372 0.950 . S
H392 C404 0.930 . S
H393 C406 0.930 . S
H394 C407 0.930 . S
H395 C411 0.959 . S
H396 C411 0.959 . S
H397 C411 0.961 . S
H398 C412 0.960 . S
H399 C412 0.961 . S
H400 C412 0.959 . S
H401 C415 0.929 . S
H402 C416 0.931 . S
H403 C418 0.930 . S
C404 H392 0.930 . S
C404 C405 1.369 1_565 S
C404 C409 1.399 . S
C405 C404 1.369 1_545 S
C405 C406 1.415 . S
C406 H393 0.930 . S
C406 C405 1.415 . S
C406 C407 1.388 . S
C407 H394 0.930 . S
C407 C406 1.388 . S
C407 C408 1.390 . S
C408 C407 1.390 . S
C408 C409 1.394 1_545 S
C408 C414 1.465 . S
C409 C404 1.399 . S
C409 C408 1.394 1_565 S
C409 C410 1.516 . S
C410 C409 1.516 . S
C410 C411 1.502 . S
C410 C412 1.561 . S
C410 C413 1.526 . S
C411 H395 0.959 . S
C411 H396 0.959 . S
C411 H397 0.961 . S
C411 C410 1.502 . S
C412 H398 0.960 . S
C412 H399 0.961 . S
C412 H400 0.959 . S
C412 C410 1.561 . S
C413 C410 1.526 . S
C413 C414 1.396 1_565 S
C413 C418 1.390 . S
C414 C408 1.465 . S
C414 C413 1.396 1_545 S
C414 C415 1.399 . S
C415 H401 0.929 . S
C415 C414 1.399 . S
C415 C416 1.385 . S
C416 H402 0.931 . S
C416 C415 1.385 . S
C416 C417 1.389 1_545 S
C417 C416 1.389 1_565 S
C417 C418 1.387 . S
C418 H403 0.930 . S
C418 C413 1.390 . S
C418 C417 1.387 . S
H419 C431 0.930 . S
H420 C433 0.930 . S
H421 C434 0.930 . S
H422 C438 0.959 . S
H423 C438 0.959 . S
H424 C438 0.961 . S
H425 C439 0.960 . S
H426 C439 0.961 . S
H427 C439 0.959 . S
H428 C442 0.929 . S
H429 C443 0.931 . S
H430 C445 0.930 . S
C431 H419 0.930 . S
C431 C432 1.399 . S
C431 C436 1.399 . S
C432 C431 1.399 . S
C432 C433 1.376 . S
C433 H420 0.930 . S
C433 C432 1.376 . S
C433 C434 1.388 . S
C434 H421 0.930 . S
C434 C433 1.388 . S
C434 C435 1.390 . S
C435 C434 1.390 . S
C435 C436 1.394 . S
C435 C441 1.465 . S
C436 C431 1.399 . S
C436 C435 1.394 . S
C436 C437 1.516 . S
C437 C436 1.516 . S
C437 C438 1.502 . S
C437 C439 1.561 . S
C437 C440 1.526 . S
C438 H422 0.959 . S
C438 H423 0.959 . S
C438 H424 0.961 . S
C438 C437 1.502 . S
C439 H425 0.960 . S
C439 H426 0.961 . S
C439 H427 0.959 . S
C439 C437 1.561 . S
C440 C437 1.526 . S
C440 C441 1.396 . S
C440 C445 1.390 . S
C441 C435 1.465 . S
C441 C440 1.396 . S
C441 C442 1.399 . S
C442 H428 0.929 . S
C442 C441 1.399 . S
C442 C443 1.385 . S
C443 H429 0.931 . S
C443 C442 1.385 . S
C443 C444 1.389 . S
C444 C443 1.389 . S
C444 C445 1.387 . S
C445 H430 0.930 . S
C445 C440 1.390 . S
C445 C444 1.387 . S
H446 C458 0.930 . S
H447 C460 0.930 . S
H448 C461 0.930 . S
H449 C465 0.959 . S
H450 C465 0.959 . S
H451 C465 0.961 . S
H452 C466 0.960 . S
H453 C466 0.961 . S
H454 C466 0.959 . S
H455 C469 0.929 . S
H456 C470 0.931 . S
H457 C472 0.930 . S
C458 H446 0.930 . S
C458 C459 1.399 . S
C458 C463 1.399 . S
C459 C458 1.399 . S
C459 C460 1.376 . S
C460 H447 0.930 . S
C460 C459 1.376 . S
C460 C461 1.388 . S
C461 H448 0.930 . S
C461 C460 1.388 . S
C461 C462 1.390 . S
C462 C461 1.390 . S
C462 C463 1.394 . S
C462 C468 1.465 . S
C463 C458 1.399 . S
C463 C462 1.394 . S
C463 C464 1.516 . S
C464 C463 1.516 . S
C464 C465 1.502 . S
C464 C466 1.561 . S
C464 C467 1.526 . S
C465 H449 0.959 . S
C465 H450 0.959 . S
C465 H451 0.961 . S
C465 C464 1.502 . S
C466 H452 0.960 . S
C466 H453 0.961 . S
C466 H454 0.959 . S
C466 C464 1.561 . S
C467 C464 1.526 . S
C467 C468 1.396 . S
C467 C472 1.390 . S
C468 C462 1.465 . S
C468 C467 1.396 . S
C468 C469 1.399 . S
C469 H455 0.929 . S
C469 C468 1.399 . S
C469 C470 1.385 . S
C470 H456 0.931 . S
C470 C469 1.385 . S
C470 C471 1.389 . S
C471 C470 1.389 . S
C471 C472 1.387 . S
C472 H457 0.930 . S
C472 C467 1.390 . S
C472 C471 1.387 . S
H473 C485 0.930 . S
H474 C487 0.930 . S
H475 C488 0.930 . S
H476 C492 0.959 . S
H477 C492 0.959 . S
H478 C492 0.961 . S
H479 C493 0.960 . S
H480 C493 0.961 . S
H481 C493 0.959 . S
H482 C496 0.929 . S
H483 C497 0.931 . S
H484 C499 0.930 . S
C485 H473 0.930 . S
C485 C486 1.399 . S
C485 C490 1.399 . S
C486 C485 1.399 . S
C486 C487 1.376 . S
C487 H474 0.930 . S
C487 C486 1.376 . S
C487 C488 1.388 . S
C488 H475 0.930 . S
C488 C487 1.388 . S
C488 C489 1.390 . S
C489 C488 1.390 . S
C489 C490 1.394 . S
C489 C495 1.465 . S
C490 C485 1.399 . S
C490 C489 1.394 . S
C490 C491 1.516 . S
C491 C490 1.516 . S
C491 C492 1.502 . S
C491 C493 1.561 . S
C491 C494 1.526 . S
C492 H476 0.959 . S
C492 H477 0.959 . S
C492 H478 0.961 . S
C492 C491 1.502 . S
C493 H479 0.960 . S
C493 H480 0.961 . S
C493 H481 0.959 . S
C493 C491 1.561 . S
C494 C491 1.526 . S
C494 C495 1.396 . S
C494 C499 1.390 . S
C495 C489 1.465 . S
C495 C494 1.396 . S
C495 C496 1.399 . S
C496 H482 0.929 . S
C496 C495 1.399 . S
C496 C497 1.385 . S
C497 H483 0.931 . S
C497 C496 1.385 . S
C497 C498 1.389 . S
C498 C497 1.389 . S
C498 C499 1.387 . S
C499 H484 0.930 . S
C499 C494 1.390 . S
C499 C498 1.387 . S
H500 C512 0.930 . S
H501 C514 0.930 . S
H502 C515 0.930 . S
H503 C519 0.959 . S
H504 C519 0.959 . S
H505 C519 0.961 . S
H506 C520 0.960 . S
H507 C520 0.961 . S
H508 C520 0.959 . S
H509 C523 0.929 . S
H510 C524 0.931 . S
H511 C526 0.930 . S
C512 H500 0.930 . S
C512 C513 1.399 1_565 S
C512 C517 1.399 . S
C513 C512 1.399 1_545 S
C513 C514 1.376 . S
C514 H501 0.930 . S
C514 C513 1.376 . S
C514 C515 1.388 . S
C515 H502 0.930 . S
C515 C514 1.388 . S
C515 C516 1.390 . S
C516 C515 1.390 . S
C516 C517 1.394 1_545 S
C516 C522 1.465 . S
C517 C512 1.399 . S
C517 C516 1.394 1_565 S
C517 C518 1.516 . S
C518 C517 1.516 . S
C518 C519 1.502 . S
C518 C520 1.561 . S
C518 C521 1.526 . S
C519 H503 0.959 . S
C519 H504 0.959 . S
C519 H505 0.961 . S
C519 C518 1.502 . S
C520 H506 0.960 . S
C520 H507 0.961 . S
C520 H508 0.959 . S
C520 C518 1.561 . S
C521 C518 1.526 . S
C521 C522 1.396 1_565 S
C521 C526 1.390 . S
C522 C516 1.465 . S
C522 C521 1.396 1_545 S
C522 C523 1.399 . S
C523 H509 0.929 . S
C523 C522 1.399 . S
C523 C524 1.385 . S
C524 H510 0.931 . S
C524 C523 1.385 . S
C524 C525 1.389 . S
C525 C524 1.389 . S
C525 C526 1.387 1_545 S
C526 H511 0.930 . S
C526 C521 1.390 . S
C526 C525 1.387 1_565 S
H527 C539 0.930 . S
H528 C541 0.930 . S
H529 C542 0.930 . S
H530 C546 0.959 . S
H531 C546 0.959 . S
H532 C546 0.961 . S
H533 C547 0.960 . S
H534 C547 0.961 . S
H535 C547 0.959 . S
H536 C550 0.929 . S
H537 C551 0.931 . S
H538 C553 0.930 . S
C539 H527 0.930 . S
C539 C540 1.399 1_556 S
C539 C544 1.399 . S
C540 C539 1.399 1_554 S
C540 C541 1.376 . S
C541 H528 0.930 . S
C541 C540 1.376 . S
C541 C542 1.388 . S
C542 H529 0.930 . S
C542 C541 1.388 . S
C542 C543 1.390 1_554 S
C543 C542 1.390 1_556 S
C543 C544 1.394 . S
C543 C549 1.465 . S
C544 C539 1.399 . S
C544 C543 1.394 . S
C544 C545 1.516 . S
C545 C544 1.516 . S
C545 C546 1.502 . S
C545 C547 1.561 . S
C545 C548 1.526 . S
C546 H530 0.959 . S
C546 H531 0.959 . S
C546 H532 0.961 . S
C546 C545 1.502 . S
C547 H533 0.960 . S
C547 H534 0.961 . S
C547 H535 0.959 . S
C547 C545 1.561 . S
C548 C545 1.526 . S
C548 C549 1.396 . S
C548 C553 1.390 . S
C549 C543 1.465 . S
C549 C548 1.396 . S
C549 C550 1.399 . S
C550 H536 0.929 . S
C550 C549 1.399 . S
C550 C551 1.385 . S
C551 H537 0.931 . S
C551 C550 1.385 . S
C551 C552 1.389 . S
C552 C551 1.389 . S
C552 C553 1.387 . S
C553 H538 0.930 . S
C553 C548 1.390 . S
C553 C552 1.387 . S
H554 C566 0.930 . S
H555 C568 0.930 . S
H556 C569 0.930 . S
H557 C573 0.959 . S
H558 C573 0.959 . S
H559 C573 0.961 . S
H560 C574 0.960 1_554 S
H561 C574 0.961 . S
H562 C574 0.959 1_554 S
H563 C577 0.929 . S
H564 C578 0.931 . S
H565 C580 0.930 . S
C566 H554 0.930 . S
C566 C567 1.399 . S
C566 C571 1.399 1_554 S
C567 C566 1.399 . S
C567 C568 1.376 . S
C568 H555 0.930 . S
C568 C567 1.376 . S
C568 C569 1.388 . S
C569 H556 0.930 . S
C569 C568 1.388 . S
C569 C570 1.390 1_554 S
C570 C569 1.390 1_556 S
C570 C571 1.394 . S
C570 C576 1.465 . S
C571 C566 1.399 1_556 S
C571 C570 1.394 . S
C571 C572 1.516 . S
C572 C571 1.516 . S
C572 C573 1.502 . S
C572 C574 1.561 . S
C572 C575 1.526 . S
C573 H557 0.959 . S
C573 H558 0.959 . S
C573 H559 0.961 . S
C573 C572 1.502 . S
C574 H560 0.960 1_556 S
C574 H561 0.961 . S
C574 H562 0.959 1_556 S
C574 C572 1.561 . S
C575 C572 1.526 . S
C575 C576 1.396 . S
C575 C580 1.390 . S
C576 C570 1.465 . S
C576 C575 1.396 . S
C576 C577 1.399 . S
C577 H563 0.929 . S
C577 C576 1.399 . S
C577 C578 1.385 . S
C578 H564 0.931 . S
C578 C577 1.385 . S
C578 C579 1.389 . S
C579 C578 1.389 . S
C579 C580 1.387 . S
C580 H565 0.930 . S
C580 C575 1.390 . S
C580 C579 1.387 . S
H581 C593 0.930 . S
H582 C595 0.930 . S
H583 C596 0.930 . S
H584 C600 0.959 . S
H585 C600 0.959 . S
H586 C600 0.961 . S
H587 C601 0.960 . S
H588 C601 0.961 . S
H589 C601 0.959 . S
H590 C604 0.929 . S
H591 C605 0.931 . S
H592 C607 0.906 1_455 S
C593 H581 0.930 . S
C593 C594 1.399 . S
C593 C598 1.399 . S
C594 C593 1.399 . S
C594 C595 1.376 . S
C595 H582 0.930 . S
C595 C594 1.376 . S
C595 C596 1.388 . S
C596 H583 0.930 . S
C596 C595 1.388 . S
C596 C597 1.390 . S
C597 C596 1.390 . S
C597 C598 1.394 . S
C597 C603 1.465 . S
C598 C593 1.399 . S
C598 C597 1.394 . S
C598 C599 1.516 . S
C599 C598 1.516 . S
C599 C600 1.502 . S
C599 C601 1.561 1_655 S
C599 C602 1.526 . S
C600 H584 0.959 . S
C600 H585 0.959 . S
C600 H586 0.961 . S
C600 C599 1.502 . S
C601 H587 0.960 . S
C601 H588 0.961 . S
C601 H589 0.959 . S
C601 C599 1.561 1_455 S
C602 C599 1.526 . S
C602 C603 1.396 . S
C602 C607 1.390 . S
C603 C597 1.465 . S
C603 C602 1.396 . S
C603 C604 1.399 . S
C604 H590 0.929 . S
C604 C603 1.399 . S
C604 C605 1.385 . S
C605 H591 0.931 . S
C605 C604 1.385 . S
C605 C606 1.389 . S
C606 C605 1.389 . S
C606 C607 1.387 . S
C607 H592 0.906 1_655 S
C607 C602 1.390 . S
C607 C606 1.387 . S
H608 C620 0.930 . S
H609 C622 0.930 . S
H610 C623 0.930 . S
H611 C627 0.959 . S
H612 C627 0.959 . S
H613 C627 0.961 . S
H614 C628 0.960 . S
H615 C628 0.961 . S
H616 C628 0.959 . S
H617 C631 0.929 . S
H618 C632 0.931 . S
H619 C634 0.930 . S
C620 H608 0.930 . S
C620 C621 1.399 . S
C620 C625 1.399 . S
C621 C620 1.399 . S
C621 C622 1.376 . S
C622 H609 0.930 . S
C622 C621 1.376 . S
C622 C623 1.388 . S
C623 H610 0.930 . S
C623 C622 1.388 . S
C623 C624 1.390 . S
C624 C623 1.390 . S
C624 C625 1.394 . S
C624 C630 1.465 . S
C625 C620 1.399 . S
C625 C624 1.394 . S
C625 C626 1.516 . S
C626 C625 1.516 . S
C626 C627 1.502 . S
C626 C628 1.561 . S
C626 C629 1.526 . S
C627 H611 0.959 . S
C627 H612 0.959 . S
C627 H613 0.961 . S
C627 C626 1.502 . S
C628 H614 0.960 . S
C628 H615 0.961 . S
C628 H616 0.959 . S
C628 C626 1.561 . S
C629 C626 1.526 . S
C629 C630 1.396 . S
C629 C634 1.390 . S
C630 C624 1.465 . S
C630 C629 1.396 . S
C630 C631 1.399 . S
C631 H617 0.929 . S
C631 C630 1.399 . S
C631 C632 1.385 . S
C632 H618 0.931 . S
C632 C631 1.385 . S
C632 C633 1.389 . S
C633 C632 1.389 . S
C633 C634 1.387 . S
C634 H619 0.930 . S
C634 C629 1.390 . S
C634 C633 1.387 . S
H635 C647 0.930 . S
H636 C649 0.930 . S
H637 C650 0.930 . S
H638 C654 0.959 . S
H639 C654 0.959 . S
H640 C654 0.961 . S
H641 C655 0.960 . S
H642 C655 0.961 . S
H643 C655 0.959 . S
H644 C658 0.929 . S
H645 C659 0.931 . S
H646 C661 0.930 . S
C647 H635 0.930 . S
C647 C648 1.399 1_565 S
C647 C652 1.399 . S
C648 C647 1.399 1_545 S
C648 C649 1.376 . S
C649 H636 0.930 . S
C649 C648 1.376 . S
C649 C650 1.388 . S
C650 H637 0.930 . S
C650 C649 1.388 . S
C650 C651 1.390 . S
C651 C650 1.390 . S
C651 C652 1.394 1_545 S
C651 C657 1.465 . S
C652 C647 1.399 . S
C652 C651 1.394 1_565 S
C652 C653 1.516 . S
C653 C652 1.516 . S
C653 C654 1.502 . S
C653 C655 1.561 . S
C653 C656 1.526 . S
C654 H638 0.959 . S
C654 H639 0.959 . S
C654 H640 0.961 . S
C654 C653 1.502 . S
C655 H641 0.960 . S
C655 H642 0.961 . S
C655 H643 0.959 . S
C655 C653 1.561 . S
C656 C653 1.526 . S
C656 C657 1.396 1_565 S
C656 C661 1.390 . S
C657 C651 1.465 . S
C657 C656 1.396 1_545 S
C657 C658 1.399 . S
C658 H644 0.929 . S
C658 C657 1.399 . S
C658 C659 1.385 . S
C659 H645 0.931 . S
C659 C658 1.385 . S
C659 C660 1.389 1_545 S
C660 C659 1.389 1_565 S
C660 C661 1.387 . S
C661 H646 0.930 . S
C661 C656 1.390 . S
C661 C660 1.387 . S
H662 C674 0.930 . S
H663 C676 0.930 . S
H664 C677 0.930 . S
H665 C681 0.959 . S
H666 C681 0.959 . S
H667 C681 0.961 . S
H668 C682 0.960 . S
H669 C682 0.961 . S
H670 C682 0.959 . S
H671 C685 0.929 . S
H672 C686 0.931 . S
H673 C688 0.930 . S
C674 H662 0.930 . S
C674 C675 1.399 . S
C674 C679 1.399 . S
C675 C674 1.399 . S
C675 C676 1.376 . S
C676 H663 0.930 . S
C676 C675 1.376 . S
C676 C677 1.388 . S
C677 H664 0.930 . S
C677 C676 1.388 . S
C677 C678 1.390 . S
C678 C677 1.390 . S
C678 C679 1.394 . S
C678 C684 1.465 . S
C679 C674 1.399 . S
C679 C678 1.394 . S
C679 C680 1.516 . S
C680 C679 1.516 . S
C680 C681 1.502 . S
C680 C682 1.561 . S
C680 C683 1.526 . S
C681 H665 0.959 . S
C681 H666 0.959 . S
C681 H667 0.961 . S
C681 C680 1.502 . S
C682 H668 0.960 . S
C682 H669 0.961 . S
C682 H670 0.959 . S
C682 C680 1.561 . S
C683 C680 1.526 . S
C683 C684 1.396 . S
C683 C688 1.390 . S
C684 C678 1.465 . S
C684 C683 1.396 . S
C684 C685 1.399 . S
C685 H671 0.929 . S
C685 C684 1.399 . S
C685 C686 1.385 . S
C686 H672 0.931 . S
C686 C685 1.385 . S
C686 C687 1.389 . S
C687 C686 1.389 . S
C687 C688 1.387 . S
C688 H673 0.930 . S
C688 C683 1.390 . S
C688 C687 1.387 . S
H689 C701 0.930 . S
H690 C703 0.930 . S
H691 C704 0.930 . S
H692 C708 0.959 . S
H693 C708 0.959 . S
H694 C708 0.961 . S
H695 C709 0.960 . S
H696 C709 0.961 . S
H697 C709 0.959 . S
H698 C712 0.929 . S
H699 C713 0.931 . S
H700 C715 0.930 . S
C701 H689 0.930 . S
C701 C702 1.399 . S
C701 C706 1.399 . S
C702 C701 1.399 . S
C702 C703 1.376 . S
C703 H690 0.930 . S
C703 C702 1.376 . S
C703 C704 1.388 . S
C704 H691 0.930 . S
C704 C703 1.388 . S
C704 C705 1.390 . S
C705 C704 1.390 . S
C705 C706 1.394 . S
C705 C711 1.465 . S
C706 C701 1.399 . S
C706 C705 1.394 . S
C706 C707 1.516 . S
C707 C706 1.516 . S
C707 C708 1.502 . S
C707 C709 1.561 . S
C707 C710 1.526 . S
C708 H692 0.959 . S
C708 H693 0.959 . S
C708 H694 0.961 . S
C708 C707 1.502 . S
C709 H695 0.960 . S
C709 H696 0.961 . S
C709 H697 0.959 . S
C709 C707 1.561 . S
C710 C707 1.526 . S
C710 C711 1.396 . S
C710 C715 1.390 . S
C711 C705 1.465 . S
C711 C710 1.396 . S
C711 C712 1.399 . S
C712 H698 0.929 . S
C712 C711 1.399 . S
C712 C713 1.385 . S
C713 H699 0.931 . S
C713 C712 1.385 . S
C713 C714 1.389 . S
C714 C713 1.389 . S
C714 C715 1.387 . S
C715 H700 0.930 . S
C715 C710 1.390 . S
C715 C714 1.387 . S
H716 C728 0.930 . S
H717 C730 0.930 . S
H718 C731 0.930 . S
H719 C735 0.959 . S
H720 C735 0.959 . S
H721 C735 0.961 . S
H722 C736 0.960 . S
H723 C736 0.961 . S
H724 C736 0.959 . S
H725 C739 0.929 . S
H726 C740 0.931 . S
H727 C742 0.930 . S
C728 H716 0.930 . S
C728 C729 1.399 . S
C728 C733 1.399 . S
C729 C728 1.399 . S
C729 C730 1.376 . S
C730 H717 0.930 . S
C730 C729 1.376 . S
C730 C731 1.388 . S
C731 H718 0.930 . S
C731 C730 1.388 . S
C731 C732 1.390 . S
C732 C731 1.390 . S
C732 C733 1.394 . S
C732 C738 1.465 . S
C733 C728 1.399 . S
C733 C732 1.394 . S
C733 C734 1.516 . S
C734 C733 1.516 . S
C734 C735 1.502 . S
C734 C736 1.561 . S
C734 C737 1.526 . S
C735 H719 0.959 . S
C735 H720 0.959 . S
C735 H721 0.961 . S
C735 C734 1.502 . S
C736 H722 0.960 . S
C736 H723 0.961 . S
C736 H724 0.959 . S
C736 C734 1.561 . S
C737 C734 1.526 . S
C737 C738 1.396 . S
C737 C742 1.390 . S
C738 C732 1.465 . S
C738 C737 1.396 . S
C738 C739 1.399 . S
C739 H725 0.929 . S
C739 C738 1.399 . S
C739 C740 1.385 1_655 S
C740 H726 0.931 . S
C740 C739 1.385 1_455 S
C740 C741 1.389 . S
C741 C740 1.389 . S
C741 C742 1.387 1_455 S
C742 H727 0.930 . S
C742 C737 1.390 . S
C742 C741 1.387 1_655 S
H743 C755 0.930 . S
H744 C757 0.930 . S
H745 C758 0.930 . S
H746 C762 0.959 . S
H747 C762 0.959 . S
H748 C762 0.961 . S
H749 C763 0.960 . S
H750 C763 0.961 . S
H751 C763 0.959 . S
H752 C766 0.929 . S
H753 C767 0.931 . S
H754 C769 0.930 . S
C755 H743 0.930 . S
C755 C756 1.399 1_545 S
C755 C760 1.399 . S
C756 C755 1.399 1_565 S
C756 C757 1.376 . S
C757 H744 0.930 . S
C757 C756 1.376 . S
C757 C758 1.388 . S
C758 H745 0.930 . S
C758 C757 1.388 . S
C758 C759 1.390 . S
C759 C758 1.390 . S
C759 C760 1.394 1_565 S
C759 C765 1.465 . S
C760 C755 1.399 . S
C760 C759 1.394 1_545 S
C760 C761 1.516 . S
C761 C760 1.516 . S
C761 C762 1.502 . S
C761 C763 1.561 . S
C761 C764 1.526 . S
C762 H746 0.959 . S
C762 H747 0.959 . S
C762 H748 0.961 . S
C762 C761 1.502 . S
C763 H749 0.960 . S
C763 H750 0.961 . S
C763 H751 0.959 . S
C763 C761 1.561 . S
C764 C761 1.526 . S
C764 C765 1.396 1_545 S
C764 C769 1.390 . S
C765 C759 1.465 . S
C765 C764 1.396 1_565 S
C765 C766 1.399 . S
C766 H752 0.929 . S
C766 C765 1.399 . S
C766 C767 1.385 . S
C767 H753 0.931 . S
C767 C766 1.385 . S
C767 C768 1.389 1_565 S
C768 C767 1.389 1_545 S
C768 C769 1.387 . S
C769 H754 0.930 . S
C769 C764 1.390 . S
C769 C768 1.387 . S
H770 C782 0.930 . S
H771 C784 0.930 . S
H772 C785 0.930 . S
H773 C789 0.959 . S
H774 C789 0.959 . S
H775 C789 0.961 . S
H776 C790 0.960 . S
H777 C790 0.961 . S
H778 C790 0.959 . S
H779 C793 0.929 . S
H780 C794 0.931 . S
H781 C796 0.930 . S
C782 H770 0.930 . S
C782 C783 1.399 . S
C782 C787 1.399 . S
C783 C782 1.399 . S
C783 C784 1.376 . S
C784 H771 0.930 . S
C784 C783 1.376 . S
C784 C785 1.388 . S
C785 H772 0.930 . S
C785 C784 1.388 . S
C785 C786 1.390 . S
C786 C785 1.390 . S
C786 C787 1.394 . S
C786 C792 1.465 . S
C787 C782 1.399 . S
C787 C786 1.394 . S
C787 C788 1.516 . S
C788 C787 1.516 . S
C788 C789 1.502 . S
C788 C790 1.561 . S
C788 C791 1.526 . S
C789 H773 0.959 . S
C789 H774 0.959 . S
C789 H775 0.961 . S
C789 C788 1.502 . S
C790 H776 0.960 . S
C790 H777 0.961 . S
C790 H778 0.959 . S
C790 C788 1.561 . S
C791 C788 1.526 . S
C791 C792 1.396 . S
C791 C796 1.390 . S
C792 C786 1.465 . S
C792 C791 1.396 . S
C792 C793 1.399 . S
C793 H779 0.929 . S
C793 C792 1.399 . S
C793 C794 1.385 . S
C794 H780 0.931 . S
C794 C793 1.385 . S
C794 C795 1.389 . S
C795 C794 1.389 . S
C795 C796 1.387 . S
C796 H781 0.930 . S
C796 C791 1.390 . S
C796 C795 1.387 . S
H797 C809 0.930 . S
H798 C811 0.930 1_554 S
H799 C812 0.930 . S
H800 C816 0.959 . S
H801 C816 0.959 . S
H802 C816 0.961 . S
H803 C817 0.960 . S
H804 C817 0.961 . S
H805 C817 0.959 . S
H806 C820 0.929 . S
H807 C821 0.931 . S
H808 C823 0.930 . S
C809 H797 0.930 . S
C809 C810 1.399 . S
C809 C814 1.399 . S
C810 C809 1.399 . S
C810 C811 1.376 . S
C811 H798 0.930 1_556 S
C811 C810 1.376 . S
C811 C812 1.388 . S
C812 H799 0.930 . S
C812 C811 1.388 . S
C812 C813 1.390 . S
C813 C812 1.390 . S
C813 C814 1.394 . S
C813 C819 1.465 . S
C814 C809 1.399 . S
C814 C813 1.394 . S
C814 C815 1.516 . S
C815 C814 1.516 . S
C815 C816 1.502 . S
C815 C817 1.561 . S
C815 C818 1.526 . S
C816 H800 0.959 . S
C816 H801 0.959 . S
C816 H802 0.961 . S
C816 C815 1.502 . S
C817 H803 0.960 . S
C817 H804 0.961 . S
C817 H805 0.959 . S
C817 C815 1.561 . S
C818 C815 1.526 . S
C818 C819 1.396 . S
C818 C823 1.390 . S
C819 C813 1.465 . S
C819 C818 1.396 . S
C819 C820 1.399 . S
C820 H806 0.929 . S
C820 C819 1.399 . S
C820 C821 1.385 . S
C821 H807 0.931 . S
C821 C820 1.385 . S
C821 C822 1.389 . S
C822 C821 1.389 . S
C822 C823 1.387 . S
C823 H808 0.930 . S
C823 C818 1.390 . S
C823 C822 1.387 . S
H824 C836 0.930 . S
H825 C838 0.930 . S
H826 C839 0.930 . S
H827 C843 0.959 . S
H828 C843 0.959 . S
H829 C843 0.961 . S
H830 C844 0.960 . S
H831 C844 0.961 . S
H832 C844 0.959 . S
H833 C847 0.929 . S
H834 C848 0.931 . S
H835 C850 0.930 . S
C836 H824 0.930 . S
C836 C837 1.399 . S
C836 C841 1.399 . S
C837 C836 1.399 . S
C837 C838 1.376 . S
C838 H825 0.930 . S
C838 C837 1.376 . S
C838 C839 1.388 . S
C839 H826 0.930 . S
C839 C838 1.388 . S
C839 C840 1.390 . S
C840 C839 1.390 . S
C840 C841 1.394 . S
C840 C846 1.465 . S
C841 C836 1.399 . S
C841 C840 1.394 . S
C841 C842 1.516 . S
C842 C841 1.516 . S
C842 C843 1.502 . S
C842 C844 1.561 . S
C842 C845 1.526 . S
C843 H827 0.959 . S
C843 H828 0.959 . S
C843 H829 0.961 . S
C843 C842 1.502 . S
C844 H830 0.960 . S
C844 H831 0.961 . S
C844 H832 0.959 . S
C844 C842 1.561 . S
C845 C842 1.526 . S
C845 C846 1.396 . S
C845 C850 1.390 . S
C846 C840 1.465 . S
C846 C845 1.396 . S
C846 C847 1.399 1_554 S
C847 H833 0.929 . S
C847 C846 1.399 1_556 S
C847 C848 1.385 . S
C848 H834 0.931 . S
C848 C847 1.385 . S
C848 C849 1.389 . S
C849 C848 1.389 . S
C849 C850 1.387 1_556 S
C850 H835 0.930 . S
C850 C845 1.390 . S
C850 C849 1.387 1_554 S
H851 C863 0.930 . S
H852 C865 0.930 . S
H853 C866 0.930 . S
H854 C870 0.959 . S
H855 C870 0.959 . S
H856 C870 0.961 . S
H857 C871 0.960 . S
H858 C871 0.961 . S
H859 C871 0.950 1_554 S
H860 C874 0.929 . S
H861 C875 0.931 . S
H862 C877 0.930 . S
C863 H851 0.930 . S
C863 C864 1.371 1_545 S
C863 C868 1.399 1_554 S
C864 C863 1.371 1_565 S
C864 C865 1.414 . S
C865 H852 0.930 . S
C865 C864 1.414 . S
C865 C866 1.388 . S
C866 H853 0.930 . S
C866 C865 1.388 . S
C866 C867 1.390 . S
C867 C866 1.390 . S
C867 C868 1.394 1_564 S
C867 C873 1.465 1_554 S
C868 C863 1.399 1_556 S
C868 C867 1.394 1_546 S
C868 C869 1.516 . S
C869 C868 1.516 . S
C869 C870 1.502 . S
C869 C871 1.561 . S
C869 C872 1.526 . S
C870 H854 0.959 . S
C870 H855 0.959 . S
C870 H856 0.961 . S
C870 C869 1.502 . S
C871 H857 0.960 . S
C871 H858 0.961 . S
C871 H859 0.950 1_556 S
C871 C869 1.561 . S
C872 C869 1.526 . S
C872 C873 1.396 1_545 S
C872 C877 1.390 . S
C873 C867 1.465 1_556 S
C873 C872 1.396 1_565 S
C873 C874 1.399 . S
C874 H860 0.929 . S
C874 C873 1.399 . S
C874 C875 1.385 . S
C875 H861 0.931 . S
C875 C874 1.385 . S
C875 C876 1.389 1_565 S
C876 C875 1.389 1_545 S
C876 C877 1.387 . S
C877 H862 0.930 . S
C877 C872 1.390 . S
C877 C876 1.387 . S
H878 C890 0.930 . S
H879 C892 0.930 . S
H880 C893 0.930 . S
H881 C897 0.959 . S
H882 C897 0.959 1_556 S
H883 C897 0.961 . S
H884 C898 0.960 . S
H885 C898 0.961 . S
H886 C898 0.959 . S
H887 C901 0.929 . S
H888 C902 0.931 . S
H889 C904 0.930 . S
C890 H878 0.930 . S
C890 C891 1.399 . S
C890 C895 1.399 1_554 S
C891 C890 1.399 . S
C891 C892 1.376 . S
C892 H879 0.930 . S
C892 C891 1.376 . S
C892 C893 1.388 1_554 S
C893 H880 0.930 . S
C893 C892 1.388 1_556 S
C893 C894 1.390 . S
C894 C893 1.390 . S
C894 C895 1.394 . S
C894 C900 1.465 . S
C895 C890 1.399 1_556 S
C895 C894 1.394 . S
C895 C896 1.516 . S
C896 C895 1.516 . S
C896 C897 1.502 1_556 S
C896 C898 1.561 . S
C896 C899 1.526 . S
C897 H881 0.959 . S
C897 H882 0.959 1_554 S
C897 H883 0.961 . S
C897 C896 1.502 1_554 S
C898 H884 0.960 . S
C898 H885 0.961 . S
C898 H886 0.959 . S
C898 C896 1.561 . S
C899 C896 1.526 . S
C899 C900 1.396 . S
C899 C904 1.390 . S
C900 C894 1.465 . S
C900 C899 1.396 . S
C900 C901 1.399 . S
C901 H887 0.929 . S
C901 C900 1.399 . S
C901 C902 1.385 . S
C902 H888 0.931 . S
C902 C901 1.385 . S
C902 C903 1.389 . S
C903 C902 1.389 . S
C903 C904 1.387 . S
C904 H889 0.930 . S
C904 C899 1.390 . S
C904 C903 1.387 . S
H905 C917 0.930 . S
H906 C919 0.930 . S
H907 C920 0.930 . S
H908 C924 0.959 . S
H909 C924 0.959 . S
H910 C924 0.961 . S
H911 C925 0.960 . S
H912 C925 0.961 . S
H913 C925 0.959 . S
H914 C928 0.929 . S
H915 C929 0.931 . S
H916 C931 0.930 . S
C917 H905 0.930 . S
C917 C918 1.399 1_556 S
C917 C922 1.399 . S
C918 C917 1.399 1_554 S
C918 C919 1.376 . S
C919 H906 0.930 . S
C919 C918 1.376 . S
C919 C920 1.388 1_554 S
C920 H907 0.930 . S
C920 C919 1.388 1_556 S
C920 C921 1.390 . S
C921 C920 1.390 . S
C921 C922 1.394 . S
C921 C927 1.465 . S
C922 C917 1.399 . S
C922 C921 1.394 . S
C922 C923 1.516 . S
C923 C922 1.516 . S
C923 C924 1.502 . S
C923 C925 1.561 . S
C923 C926 1.526 . S
C924 H908 0.959 . S
C924 H909 0.959 . S
C924 H910 0.961 . S
C924 C923 1.502 . S
C925 H911 0.960 . S
C925 H912 0.961 . S
C925 H913 0.959 . S
C925 C923 1.561 . S
C926 C923 1.526 . S
C926 C927 1.396 . S
C926 C931 1.390 . S
C927 C921 1.465 . S
C927 C926 1.396 . S
C927 C928 1.399 . S
C928 H914 0.929 . S
C928 C927 1.399 . S
C928 C929 1.385 . S
C929 H915 0.931 . S
C929 C928 1.385 . S
C929 C930 1.389 . S
C930 C929 1.389 . S
C930 C931 1.387 . S
C931 H916 0.930 . S
C931 C926 1.390 . S
C931 C930 1.387 . S
H932 C944 0.930 . S
H933 C946 0.930 . S
H934 C947 0.930 . S
H935 C951 0.959 . S
H936 C951 0.959 . S
H937 C951 0.961 . S
H938 C952 0.960 . S
H939 C952 0.961 . S
H940 C952 0.959 . S
H941 C955 0.929 . S
H942 C956 0.931 . S
H943 C958 0.930 . S
C944 H932 0.930 . S
C944 C945 1.399 . S
C944 C949 1.399 . S
C945 C944 1.399 . S
C945 C946 1.376 . S
C946 H933 0.930 . S
C946 C945 1.376 . S
C946 C947 1.388 . S
C947 H934 0.930 . S
C947 C946 1.388 . S
C947 C948 1.390 . S
C948 C947 1.390 . S
C948 C949 1.394 . S
C948 C954 1.465 . S
C949 C944 1.399 . S
C949 C948 1.394 . S
C949 C950 1.516 . S
C950 C949 1.516 . S
C950 C951 1.502 . S
C950 C952 1.561 . S
C950 C953 1.526 . S
C951 H935 0.959 . S
C951 H936 0.959 . S
C951 H937 0.961 . S
C951 C950 1.502 . S
C952 H938 0.960 . S
C952 H939 0.961 . S
C952 H940 0.959 . S
C952 C950 1.561 . S
C953 C950 1.526 . S
C953 C954 1.396 . S
C953 C958 1.390 . S
C954 C948 1.465 . S
C954 C953 1.396 . S
C954 C955 1.399 . S
C955 H941 0.929 . S
C955 C954 1.399 . S
C955 C956 1.385 . S
C956 H942 0.931 . S
C956 C955 1.385 . S
C956 C957 1.389 . S
C957 C956 1.389 . S
C957 C958 1.387 . S
C958 H943 0.930 . S
C958 C953 1.390 . S
C958 C957 1.387 . S
H959 C971 0.930 . S
H960 C973 0.930 . S
H961 C974 0.930 . S
H962 C978 0.959 . S
H963 C978 0.959 . S
H964 C978 0.961 . S
H965 C979 0.960 . S
H966 C979 0.961 . S
H967 C979 0.959 . S
H968 C982 0.929 . S
H969 C983 0.931 . S
H970 C985 0.930 . S
C971 H959 0.930 . S
C971 C972 1.399 1_545 S
C971 C976 1.399 . S
C972 C971 1.399 1_565 S
C972 C973 1.376 . S
C973 H960 0.930 . S
C973 C972 1.376 . S
C973 C974 1.388 . S
C974 H961 0.930 . S
C974 C973 1.388 . S
C974 C975 1.390 . S
C975 C974 1.390 . S
C975 C976 1.394 1_565 S
C975 C981 1.465 . S
C976 C971 1.399 . S
C976 C975 1.394 1_545 S
C976 C977 1.516 . S
C977 C976 1.516 . S
C977 C978 1.502 . S
C977 C979 1.561 . S
C977 C980 1.526 . S
C978 H962 0.959 . S
C978 H963 0.959 . S
C978 H964 0.961 . S
C978 C977 1.502 . S
C979 H965 0.960 . S
C979 H966 0.961 . S
C979 H967 0.959 . S
C979 C977 1.561 . S
C980 C977 1.526 . S
C980 C981 1.396 1_545 S
C980 C985 1.390 . S
C981 C975 1.465 . S
C981 C980 1.396 1_565 S
C981 C982 1.399 . S
C982 H968 0.929 . S
C982 C981 1.399 . S
C982 C983 1.385 . S
C983 H969 0.931 . S
C983 C982 1.385 . S
C983 C984 1.389 . S
C984 C983 1.389 . S
C984 C985 1.387 1_565 S
C985 H970 0.930 . S
C985 C980 1.390 . S
C985 C984 1.387 1_545 S
H986 C998 0.930 . S
H987 C1000 0.930 . S
H988 C1001 0.930 . S
H989 C1005 0.959 . S
H990 C1005 0.959 . S
H991 C1005 0.961 . S
H992 C1006 0.960 . S
H993 C1006 0.961 . S
H994 C1006 0.959 . S
H995 C1009 0.929 . S
H996 C1010 0.931 . S
H997 C1012 0.930 . S
C998 H986 0.930 . S
C998 C999 1.399 . S
C998 C1003 1.399 . S
C999 C998 1.399 . S
C999 C1000 1.376 . S
C1000 H987 0.930 . S
C1000 C999 1.376 . S
C1000 C1001 1.388 . S
C1001 H988 0.930 . S
C1001 C1000 1.388 . S
C1001 C1002 1.390 . S
C1002 C1001 1.390 . S
C1002 C1003 1.394 . S
C1002 C1008 1.465 . S
C1003 C998 1.399 . S
C1003 C1002 1.394 . S
C1003 C1004 1.516 . S
C1004 C1003 1.516 . S
C1004 C1005 1.502 . S
C1004 C1006 1.561 . S
C1004 C1007 1.526 . S
C1005 H989 0.959 . S
C1005 H990 0.959 . S
C1005 H991 0.961 . S
C1005 C1004 1.502 . S
C1006 H992 0.960 . S
C1006 H993 0.961 . S
C1006 H994 0.959 . S
C1006 C1004 1.561 . S
C1007 C1004 1.526 . S
C1007 C1008 1.396 . S
C1007 C1012 1.390 . S
C1008 C1002 1.465 . S
C1008 C1007 1.396 . S
C1008 C1009 1.399 . S
C1009 H995 0.929 . S
C1009 C1008 1.399 . S
C1009 C1010 1.385 . S
C1010 H996 0.931 . S
C1010 C1009 1.385 . S
C1010 C1011 1.389 . S
C1011 C1010 1.389 . S
C1011 C1012 1.387 . S
C1012 H997 0.930 . S
C1012 C1007 1.390 . S
C1012 C1011 1.387 . S
H1013 C1025 0.930 . S
H1014 C1027 0.930 . S
H1015 C1028 0.930 . S
H1016 C1032 0.959 . S
H1017 C1032 0.959 . S
H1018 C1032 0.961 . S
H1019 C1033 0.960 . S
H1020 C1033 0.961 . S
H1021 C1033 0.959 . S
H1022 C1036 0.929 . S
H1023 C1037 0.931 . S
H1024 C1039 0.930 . S
C1025 H1013 0.930 . S
C1025 C1026 1.399 . S
C1025 C1030 1.399 . S
C1026 C1025 1.399 . S
C1026 C1027 1.376 . S
C1027 H1014 0.930 . S
C1027 C1026 1.376 . S
C1027 C1028 1.388 . S
C1028 H1015 0.930 . S
C1028 C1027 1.388 . S
C1028 C1029 1.390 . S
C1029 C1028 1.390 . S
C1029 C1030 1.394 . S
C1029 C1035 1.465 . S
C1030 C1025 1.399 . S
C1030 C1029 1.394 . S
C1030 C1031 1.516 . S
C1031 C1030 1.516 . S
C1031 C1032 1.502 . S
C1031 C1033 1.561 . S
C1031 C1034 1.526 . S
C1032 H1016 0.959 . S
C1032 H1017 0.959 . S
C1032 H1018 0.961 . S
C1032 C1031 1.502 . S
C1033 H1019 0.960 . S
C1033 H1020 0.961 . S
C1033 H1021 0.959 . S
C1033 C1031 1.561 . S
C1034 C1031 1.526 . S
C1034 C1035 1.396 . S
C1034 C1039 1.390 . S
C1035 C1029 1.465 . S
C1035 C1034 1.396 . S
C1035 C1036 1.399 . S
C1036 H1022 0.929 . S
C1036 C1035 1.399 . S
C1036 C1037 1.385 . S
C1037 H1023 0.931 . S
C1037 C1036 1.385 . S
C1037 C1038 1.389 . S
C1038 C1037 1.389 . S
C1038 C1039 1.387 . S
C1039 H1024 0.930 . S
C1039 C1034 1.390 . S
C1039 C1038 1.387 . S
C405 C215 1.796 . S
C417 C273 1.846 . S
C444 C294 1.658 . S
C432 C247 1.621 . S
C471 C328 1.499 . S
C459 C151 1.393 . S
C498 C362 1.645 . S
C486 C183 1.626 . S
C525 C264 1.859 . S
C513 C87 1.768 1_556 S
C540 C119 1.522 . S
C552 C303 1.637 . S
C567 C23 1.488 . S
C579 C337 1.466 . S
C594 C55 1.556 . S
C606 C371 1.617 . S
C633 C285 0.441 . S
C621 C189 0.640 . S
C660 C290 0.518 . S
C648 C221 0.501 . S
C687 C324 0.601 . S
C675 C253 0.662 . S
C702 C157 0.502 . S
C714 C358 0.236 . S
C729 C61 0.681 . S
C741 C256 0.646 . S
C768 C319 0.512 . S
C756 C93 0.668 1_565 S
C795 C353 0.708 . S
C783 C125 0.577 . S
C810 C29 0.174 1_556 S
C822 C387 0.211 . S
C837 C177 1.575 . S
C849 C269 1.552 . S
C864 C209 1.865 1_565 S
C876 C298 1.977 . S
C903 C332 1.719 . S
C891 C241 1.674 . S
C930 C366 1.762 . S
C918 C145 1.598 . S
C945 C49 1.508 . S
C957 C260 1.561 . S
C984 C307 1.979 . S
C972 C81 1.884 1_565 S
C1011 C341 1.723 . S
C999 C113 1.573 . S
C1026 C17 1.735 . S
C1038 C375 1.748 . S
