# Generated by pormake.
# Topology eea, (3,6)-cn, num edge types: 1
# Building blocks:
#     Node 0, Type 0, BuildingBlock: QEWDON_clean_linker_0, # of connection points: 3
#     Node 1, Type 0, BuildingBlock: QEWDON_clean_linker_0, # of connection points: 3
#     Node 2, Type 0, BuildingBlock: QEWDON_clean_linker_0, # of connection points: 3
#     Node 3, Type 0, BuildingBlock: QEWDON_clean_linker_0, # of connection points: 3
#     Node 4, Type 0, BuildingBlock: QEWDON_clean_linker_0, # of connection points: 3
#     Node 5, Type 0, BuildingBlock: QEWDON_clean_linker_0, # of connection points: 3
#     Node 6, Type 0, BuildingBlock: QEWDON_clean_linker_0, # of connection points: 3
#     Node 7, Type 0, BuildingBlock: QEWDON_clean_linker_0, # of connection points: 3
#     Node 8, Type 0, BuildingBlock: QEWDON_clean_linker_0, # of connection points: 3
#     Node 9, Type 0, BuildingBlock: QEWDON_clean_linker_0, # of connection points: 3
#     Node 10, Type 0, BuildingBlock: QEWDON_clean_linker_0, # of connection points: 3
#     Node 11, Type 0, BuildingBlock: QEWDON_clean_linker_0, # of connection points: 3
#     Node 12, Type 0, BuildingBlock: QEWDON_clean_linker_0, # of connection points: 3
#     Node 13, Type 0, BuildingBlock: QEWDON_clean_linker_0, # of connection points: 3
#     Node 14, Type 0, BuildingBlock: QEWDON_clean_linker_0, # of connection points: 3
#     Node 15, Type 0, BuildingBlock: QEWDON_clean_linker_0, # of connection points: 3
#     Node 16, Type 0, BuildingBlock: QEWDON_clean_linker_0, # of connection points: 3
#     Node 17, Type 0, BuildingBlock: QEWDON_clean_linker_0, # of connection points: 3
#     Node 18, Type 1, BuildingBlock: HISSIN_clean_sbu_0, # of connection points: 6
#     Node 19, Type 1, BuildingBlock: HISSIN_clean_sbu_0, # of connection points: 6
#     Node 20, Type 1, BuildingBlock: HISSIN_clean_sbu_0, # of connection points: 6
#     Node 21, Type 1, BuildingBlock: HISSIN_clean_sbu_0, # of connection points: 6
#     Node 22, Type 1, BuildingBlock: HISSIN_clean_sbu_0, # of connection points: 6
#     Node 23, Type 1, BuildingBlock: HISSIN_clean_sbu_0, # of connection points: 6
#     Node 24, Type 1, BuildingBlock: HISSIN_clean_sbu_0, # of connection points: 6
#     Node 25, Type 1, BuildingBlock: HISSIN_clean_sbu_0, # of connection points: 6
#     Node 26, Type 1, BuildingBlock: HISSIN_clean_sbu_0, # of connection points: 6
#     Edge 27, Type (0, 1), BuildingBlock: XIVTED_clean_linker_0, # of connection points: 2
#     Edge 28, Type (0, 1), BuildingBlock: XIVTED_clean_linker_0, # of connection points: 2
#     Edge 29, Type (0, 1), BuildingBlock: XIVTED_clean_linker_0, # of connection points: 2
#     Edge 30, Type (0, 1), BuildingBlock: XIVTED_clean_linker_0, # of connection points: 2
#     Edge 31, Type (0, 1), BuildingBlock: XIVTED_clean_linker_0, # of connection points: 2
#     Edge 32, Type (0, 1), BuildingBlock: XIVTED_clean_linker_0, # of connection points: 2
#     Edge 33, Type (0, 1), BuildingBlock: XIVTED_clean_linker_0, # of connection points: 2
#     Edge 34, Type (0, 1), BuildingBlock: XIVTED_clean_linker_0, # of connection points: 2
#     Edge 35, Type (0, 1), BuildingBlock: XIVTED_clean_linker_0, # of connection points: 2
#     Edge 36, Type (0, 1), BuildingBlock: XIVTED_clean_linker_0, # of connection points: 2
#     Edge 37, Type (0, 1), BuildingBlock: XIVTED_clean_linker_0, # of connection points: 2
#     Edge 38, Type (0, 1), BuildingBlock: XIVTED_clean_linker_0, # of connection points: 2
#     Edge 39, Type (0, 1), BuildingBlock: XIVTED_clean_linker_0, # of connection points: 2
#     Edge 40, Type (0, 1), BuildingBlock: XIVTED_clean_linker_0, # of connection points: 2
#     Edge 41, Type (0, 1), BuildingBlock: XIVTED_clean_linker_0, # of connection points: 2
#     Edge 42, Type (0, 1), BuildingBlock: XIVTED_clean_linker_0, # of connection points: 2
#     Edge 43, Type (0, 1), BuildingBlock: XIVTED_clean_linker_0, # of connection points: 2
#     Edge 44, Type (0, 1), BuildingBlock: XIVTED_clean_linker_0, # of connection points: 2
#     Edge 45, Type (0, 1), BuildingBlock: XIVTED_clean_linker_0, # of connection points: 2
#     Edge 46, Type (0, 1), BuildingBlock: XIVTED_clean_linker_0, # of connection points: 2
#     Edge 47, Type (0, 1), BuildingBlock: XIVTED_clean_linker_0, # of connection points: 2
#     Edge 48, Type (0, 1), BuildingBlock: XIVTED_clean_linker_0, # of connection points: 2
#     Edge 49, Type (0, 1), BuildingBlock: XIVTED_clean_linker_0, # of connection points: 2
#     Edge 50, Type (0, 1), BuildingBlock: XIVTED_clean_linker_0, # of connection points: 2
#     Edge 51, Type (0, 1), BuildingBlock: XIVTED_clean_linker_0, # of connection points: 2
#     Edge 52, Type (0, 1), BuildingBlock: XIVTED_clean_linker_0, # of connection points: 2
#     Edge 53, Type (0, 1), BuildingBlock: XIVTED_clean_linker_0, # of connection points: 2
#     Edge 54, Type (0, 1), BuildingBlock: XIVTED_clean_linker_0, # of connection points: 2
#     Edge 55, Type (0, 1), BuildingBlock: XIVTED_clean_linker_0, # of connection points: 2
#     Edge 56, Type (0, 1), BuildingBlock: XIVTED_clean_linker_0, # of connection points: 2
#     Edge 57, Type (0, 1), BuildingBlock: XIVTED_clean_linker_0, # of connection points: 2
#     Edge 58, Type (0, 1), BuildingBlock: XIVTED_clean_linker_0, # of connection points: 2
#     Edge 59, Type (0, 1), BuildingBlock: XIVTED_clean_linker_0, # of connection points: 2
#     Edge 60, Type (0, 1), BuildingBlock: XIVTED_clean_linker_0, # of connection points: 2
#     Edge 61, Type (0, 1), BuildingBlock: XIVTED_clean_linker_0, # of connection points: 2
#     Edge 62, Type (0, 1), BuildingBlock: XIVTED_clean_linker_0, # of connection points: 2
#     Edge 63, Type (0, 1), BuildingBlock: XIVTED_clean_linker_0, # of connection points: 2
#     Edge 64, Type (0, 1), BuildingBlock: XIVTED_clean_linker_0, # of connection points: 2
#     Edge 65, Type (0, 1), BuildingBlock: XIVTED_clean_linker_0, # of connection points: 2
#     Edge 66, Type (0, 1), BuildingBlock: XIVTED_clean_linker_0, # of connection points: 2
#     Edge 67, Type (0, 1), BuildingBlock: XIVTED_clean_linker_0, # of connection points: 2
#     Edge 68, Type (0, 1), BuildingBlock: XIVTED_clean_linker_0, # of connection points: 2
#     Edge 69, Type (0, 1), BuildingBlock: XIVTED_clean_linker_0, # of connection points: 2
#     Edge 70, Type (0, 1), BuildingBlock: XIVTED_clean_linker_0, # of connection points: 2
#     Edge 71, Type (0, 1), BuildingBlock: XIVTED_clean_linker_0, # of connection points: 2
#     Edge 72, Type (0, 1), BuildingBlock: XIVTED_clean_linker_0, # of connection points: 2
#     Edge 73, Type (0, 1), BuildingBlock: XIVTED_clean_linker_0, # of connection points: 2
#     Edge 74, Type (0, 1), BuildingBlock: XIVTED_clean_linker_0, # of connection points: 2
#     Edge 75, Type (0, 1), BuildingBlock: XIVTED_clean_linker_0, # of connection points: 2
#     Edge 76, Type (0, 1), BuildingBlock: XIVTED_clean_linker_0, # of connection points: 2
#     Edge 77, Type (0, 1), BuildingBlock: XIVTED_clean_linker_0, # of connection points: 2
#     Edge 78, Type (0, 1), BuildingBlock: XIVTED_clean_linker_0, # of connection points: 2
#     Edge 79, Type (0, 1), BuildingBlock: XIVTED_clean_linker_0, # of connection points: 2
#     Edge 80, Type (0, 1), BuildingBlock: XIVTED_clean_linker_0, # of connection points: 2
# Relax obj value: 0.087
# Max RMSD: 0.261
# Mean RMSD: 0.181
data_MOF--net-eea--node1-HISSIN_clean_sbu_0--node2-QEWDON_clean_linker_0--edge1-XIVTED_clean_linker_0
_symmetry_space_group_name_H-M    P1
_symmetry_Int_Tables_number       1
_symmetry_cell_setting            triclinic
loop_
_symmetry_equiv_pos_as_xyz
'x, y, z'
_cell_length_a     58.41714
_cell_length_b     59.063319
_cell_length_c     67.782854
_cell_angle_alpha  93.312401
_cell_angle_beta   93.255533
_cell_angle_gamma 119.96685
loop_
_atom_site_label
_atom_site_type_symbol
_atom_site_fract_x
_atom_site_fract_y
_atom_site_fract_z
_atom_type_partial_charge
H0 H 0.21467 0.12736 0.42425 0.0
C1 C 0.21808 0.11279 0.41669 0.0
C2 C 0.23844 0.10877 0.42443 0.0
C3 C 0.20159 0.09752 0.39958 0.0
H4 H 0.25817 0.08647 0.42066 0.0
C5 C 0.24258 0.0897 0.41462 0.0
C6 C 0.22598 0.07394 0.39768 0.0
C7 C 0.20561 0.07814 0.39024 0.0
C8 C 0.17973 0.1013 0.39158 0.0
H9 H 0.1924 0.06594 0.37735 0.0
C10 C 0.18439 0.12662 0.38892 0.0
C11 C 0.16417 0.1301 0.38007 0.0
C12 C 0.15433 0.07949 0.38585 0.0
H13 H 0.15013 0.05979 0.38797 0.0
C14 C 0.13411 0.08293 0.37733 0.0
H15 H 0.20402 0.14352 0.39297 0.0
C16 C 0.139 0.10807 0.37429 0.0
H17 H 0.12309 0.11033 0.36755 0.0
H18 H 0.11463 0.06605 0.37294 0.0
H19 H 0.90217 0.09988 0.42997 0.0
C20 C 0.91805 0.11642 0.42383 0.0
C21 C 0.92854 0.142 0.43323 0.0
C22 C 0.92824 0.11198 0.40671 0.0
H23 H 0.95837 0.18282 0.43284 0.0
C24 C 0.94951 0.16325 0.42522 0.0
C25 C 0.95989 0.15913 0.408 0.0
C26 C 0.94861 0.13347 0.3987 0.0
C27 C 0.91864 0.08494 0.39745 0.0
H28 H 0.95569 0.13009 0.38504 0.0
C29 C 0.89133 0.06613 0.39439 0.0
C30 C 0.88272 0.04122 0.38444 0.0
C31 C 0.9371 0.07806 0.39111 0.0
H32 H 0.95824 0.09189 0.39363 0.0
C33 C 0.92855 0.05327 0.38149 0.0
H34 H 0.8768 0.07111 0.39903 0.0
C35 C 0.90153 0.035 0.378 0.0
H36 H 0.89526 0.01587 0.3704 0.0
H37 H 0.94293 0.04824 0.37663 0.0
H38 H 0.92146 0.79822 0.44244 0.0
C39 C 0.90468 0.79738 0.434 0.0
C40 C 0.87916 0.78335 0.44043 0.0
C41 C 0.90897 0.81232 0.41778 0.0
H42 H 0.83837 0.77351 0.43533 0.0
C43 C 0.85785 0.78378 0.43004 0.0
C44 C 0.86169 0.79827 0.41357 0.0
C45 C 0.88738 0.81221 0.40745 0.0
C46 C 0.93627 0.83157 0.41361 0.0
H47 H 0.89092 0.82375 0.39492 0.0
C48 C 0.95451 0.82386 0.40819 0.0
C49 C 0.98043 0.84301 0.40471 0.0
C50 C 0.94416 0.85838 0.41539 0.0
H51 H 0.93047 0.86473 0.41961 0.0
C52 C 0.96982 0.87727 0.41207 0.0
H53 H 0.94862 0.80324 0.4067 0.0
C54 C 0.9879 0.86968 0.40683 0.0
H55 H 0.00773 0.88466 0.4042 0.0
H56 H 0.97573 0.89786 0.41357 0.0
H57 H 0.1214 0.21096 0.57702 0.0
C58 C 0.10586 0.21206 0.58427 0.0
C59 C 0.09726 0.22924 0.57823 0.0
C60 C 0.09368 0.19533 0.59899 0.0
H61 H 0.06989 0.24309 0.58304 0.0
C62 C 0.0768 0.2301 0.58769 0.0
C63 C 0.06459 0.2137 0.60266 0.0
C64 C 0.07323 0.1964 0.60815 0.0
C65 C 0.10016 0.17469 0.60327 0.0
H66 H 0.06343 0.183 0.61916 0.0
C67 C 0.12656 0.18073 0.60804 0.0
C68 C 0.13213 0.16055 0.61132 0.0
C69 C 0.07953 0.14838 0.60201 0.0
H70 H 0.05911 0.14321 0.59821 0.0
C71 C 0.08504 0.12842 0.60522 0.0
H72 H 0.14263 0.20095 0.6091 0.0
C73 C 0.11114 0.1344 0.60977 0.0
H74 H 0.11493 0.11857 0.61234 0.0
H75 H 0.06901 0.10822 0.60412 0.0
H76 H 0.78621 0.90555 0.60405 0.0
C77 C 0.78173 0.88755 0.61045 0.0
C78 C 0.76228 0.86322 0.60054 0.0
C79 C 0.79608 0.88868 0.6282 0.0
H80 H 0.74263 0.82113 0.60084 0.0
C81 C 0.75708 0.83995 0.6087 0.0
C82 C 0.77148 0.84077 0.62632 0.0
C83 C 0.79057 0.86524 0.63609 0.0
C84 C 0.8179 0.91412 0.63805 0.0
H85 H 0.80205 0.86608 0.64953 0.0
C86 C 0.8146 0.93607 0.64066 0.0
C87 C 0.83494 0.95975 0.65082 0.0
C88 C 0.84209 0.91636 0.6453 0.0
H89 H 0.84543 0.89996 0.64316 0.0
C90 C 0.86233 0.93986 0.65527 0.0
H91 H 0.79597 0.93452 0.63535 0.0
C92 C 0.85878 0.96142 0.65814 0.0
H93 H 0.87483 0.97954 0.66583 0.0
H94 H 0.88085 0.94138 0.66079 0.0
H95 H 0.08781 0.87267 0.58098 0.0
C96 C 0.10554 0.88892 0.58905 0.0
C97 C 0.13072 0.89542 0.58332 0.0
C98 C 0.10313 0.90414 0.60457 0.0
H99 H 0.1729 0.92198 0.58929 0.0
C100 C 0.1535 0.91683 0.59376 0.0
C101 C 0.15141 0.93241 0.60924 0.0
C102 C 0.12605 0.92579 0.61453 0.0
C103 C 0.0767 0.89916 0.60931 0.0
H104 H 0.12394 0.938 0.626 0.0
C105 C 0.05798 0.87508 0.61577 0.0
C106 C 0.0337 0.87153 0.6216 0.0
C107 C 0.0706 0.91925 0.60806 0.0
H108 H 0.0847 0.93787 0.60302 0.0
C109 C 0.04631 0.91552 0.61327 0.0
H110 H 0.06277 0.85968 0.61706 0.0
C111 C 0.02802 0.89191 0.6201 0.0
H112 H 0.00936 0.88956 0.62421 0.0
H113 H 0.04174 0.93108 0.6122 0.0
H114 H 0.87593 0.45844 0.75986 0.0
C115 C 0.87702 0.44257 0.75195 0.0
C116 C 0.89471 0.43484 0.75948 0.0
C117 C 0.86008 0.42929 0.73459 0.0
H118 H 0.90819 0.40705 0.75564 0.0
C119 C 0.89548 0.41381 0.74932 0.0
C120 C 0.87866 0.40038 0.73186 0.0
C121 C 0.86135 0.40863 0.72448 0.0
C122 C 0.83988 0.43579 0.72745 0.0
H123 H 0.84857 0.39885 0.71085 0.0
C124 C 0.84706 0.46171 0.7242 0.0
C125 C 0.82794 0.46726 0.71608 0.0
C126 C 0.81327 0.41567 0.72321 0.0
H127 H 0.80728 0.3956 0.72578 0.0
C128 C 0.79416 0.42126 0.71562 0.0
H129 H 0.86763 0.47725 0.72713 0.0
C130 C 0.80143 0.44685 0.71193 0.0
H131 H 0.78634 0.45074 0.70582 0.0
H132 H 0.7737 0.40566 0.71241 0.0
H133 H 0.56278 0.43587 0.75663 0.0
C134 C 0.57725 0.45316 0.75024 0.0
C135 C 0.58506 0.47828 0.7594 0.0
C136 C 0.58848 0.45022 0.7332 0.0
H137 H 0.61071 0.52 0.75837 0.0
C138 C 0.60421 0.5006 0.75118 0.0
C139 C 0.61567 0.49799 0.73412 0.0
C140 C 0.6074 0.47274 0.72515 0.0
C141 C 0.58151 0.42374 0.72419 0.0
H142 H 0.61634 0.47057 0.71213 0.0
C143 C 0.55496 0.40295 0.72156 0.0
C144 C 0.54856 0.37841 0.71207 0.0
C145 C 0.60157 0.41929 0.71781 0.0
H146 H 0.62224 0.43467 0.72003 0.0
C147 C 0.59525 0.39488 0.70858 0.0
H148 H 0.53921 0.40606 0.72621 0.0
C149 C 0.5689 0.3746 0.70556 0.0
H150 H 0.56438 0.35579 0.69831 0.0
H151 H 0.61084 0.39171 0.70369 0.0
H152 H 0.5852 0.11844 0.77248 0.0
C153 C 0.56881 0.11906 0.76473 0.0
C154 C 0.54295 0.10415 0.77047 0.0
C155 C 0.57383 0.13586 0.74967 0.0
H156 H 0.50259 0.09586 0.76591 0.0
C157 C 0.52215 0.10613 0.76075 0.0
C158 C 0.52673 0.12264 0.74549 0.0
C159 C 0.55266 0.13709 0.7399 0.0
C160 C 0.60144 0.15521 0.74611 0.0
H161 H 0.55675 0.14998 0.72821 0.0
C162 C 0.61961 0.14756 0.74028 0.0
C163 C 0.6458 0.16681 0.73743 0.0
C164 C 0.6097 0.18208 0.74891 0.0
H165 H 0.59613 0.18841 0.75347 0.0
C166 C 0.63558 0.20104 0.74618 0.0
H167 H 0.61346 0.12691 0.73801 0.0
C168 C 0.65355 0.19351 0.74054 0.0
H169 H 0.67354 0.20861 0.73839 0.0
H170 H 0.64174 0.22167 0.74846 0.0
H171 H 0.793 0.54629 0.91277 0.0
C172 C 0.77685 0.54696 0.91938 0.0
C173 C 0.76823 0.56397 0.91294 0.0
C174 C 0.76402 0.52996 0.93378 0.0
H175 H 0.74016 0.57721 0.91675 0.0
C176 C 0.74709 0.56436 0.9217 0.0
C177 C 0.73433 0.54775 0.93642 0.0
C178 C 0.74296 0.5306 0.94227 0.0
C179 C 0.77085 0.50982 0.93883 0.0
H180 H 0.73279 0.51707 0.95312 0.0
C181 C 0.79702 0.51667 0.94556 0.0
C182 C 0.80246 0.49724 0.95156 0.0
C183 C 0.75057 0.48335 0.93742 0.0
H184 H 0.73039 0.4776 0.93207 0.0
C185 C 0.75609 0.46406 0.94283 0.0
H186 H 0.81274 0.53706 0.94695 0.0
C187 C 0.78179 0.47093 0.95 0.0
H188 H 0.78556 0.45564 0.95439 0.0
H189 H 0.74033 0.44373 0.94167 0.0
H190 H 0.47054 0.24828 0.93347 0.0
C191 C 0.46767 0.2306 0.9396 0.0
C192 C 0.44871 0.20591 0.92995 0.0
C193 C 0.48329 0.23253 0.95686 0.0
H194 H 0.43086 0.16402 0.9303 0.0
C195 C 0.44531 0.18306 0.93783 0.0
C196 C 0.46108 0.18463 0.95488 0.0
C197 C 0.47983 0.20948 0.96436 0.0
C198 C 0.50368 0.25855 0.96694 0.0
H199 H 0.49222 0.21095 0.97744 0.0
C200 C 0.49795 0.27888 0.96998 0.0
C201 C 0.51684 0.3031 0.98034 0.0
C202 C 0.52882 0.26296 0.97406 0.0
H203 H 0.534 0.24785 0.97164 0.0
C204 C 0.54764 0.287 0.98428 0.0
H205 H 0.47853 0.27563 0.96483 0.0
C206 C 0.54169 0.30694 0.98751 0.0
H207 H 0.55667 0.32552 0.99536 0.0
H208 H 0.56692 0.2902 0.98969 0.0
H209 H 0.75402 0.20075 0.9152 0.0
C210 C 0.77086 0.2182 0.923 0.0
C211 C 0.7966 0.22713 0.91721 0.0
C212 C 0.76664 0.2325 0.93824 0.0
H213 H 0.83792 0.25772 0.92278 0.0
C214 C 0.81814 0.25001 0.92745 0.0
C215 C 0.81409 0.26437 0.94263 0.0
C216 C 0.78837 0.25554 0.94793 0.0
C217 C 0.73951 0.22498 0.94322 0.0
H218 H 0.78523 0.26686 0.95952 0.0
C219 C 0.72208 0.19981 0.94881 0.0
C220 C 0.69751 0.19419 0.95541 0.0
C221 C 0.73159 0.24389 0.94345 0.0
H222 H 0.74456 0.26328 0.93903 0.0
C223 C 0.70701 0.23809 0.94952 0.0
H224 H 0.72806 0.18515 0.94888 0.0
C225 C 0.69015 0.21349 0.95566 0.0
H226 H 0.67126 0.20946 0.96058 0.0
H227 H 0.70113 0.25281 0.9497 0.0
H228 H 0.5451 0.79027 0.08915 0.0
C229 C 0.54921 0.77631 0.08141 0.0
C230 C 0.57007 0.77295 0.08906 0.0
C231 C 0.53304 0.76102 0.06419 0.0
H232 H 0.59105 0.75193 0.08497 0.0
C233 C 0.57507 0.75463 0.07899 0.0
C234 C 0.55879 0.73885 0.06194 0.0
C235 C 0.53789 0.74234 0.05463 0.0
C236 C 0.51039 0.76371 0.05644 0.0
H237 H 0.52483 0.73004 0.04171 0.0
C238 C 0.51397 0.78854 0.05331 0.0
C239 C 0.49291 0.79084 0.04456 0.0
C240 C 0.48528 0.74124 0.05134 0.0
H241 H 0.48195 0.72191 0.05382 0.0
C242 C 0.46422 0.74351 0.043 0.0
H243 H 0.53338 0.80592 0.05688 0.0
C244 C 0.46801 0.76813 0.03947 0.0
H245 H 0.45145 0.76946 0.03286 0.0
H246 H 0.44496 0.72611 0.03912 0.0
H247 H 0.23362 0.76396 0.0986 0.0
C248 C 0.24726 0.7805 0.0911 0.0
C249 C 0.25393 0.80611 0.09827 0.0
C250 C 0.25866 0.77612 0.07468 0.0
H251 H 0.27751 0.84726 0.09416 0.0
C252 C 0.27201 0.82747 0.08857 0.0
C253 C 0.28362 0.82349 0.07206 0.0
C254 C 0.27654 0.79771 0.06517 0.0
C255 C 0.2533 0.74926 0.06813 0.0
H256 H 0.28561 0.79445 0.05265 0.0
C257 C 0.22756 0.72711 0.06738 0.0
C258 C 0.22282 0.70181 0.06109 0.0
C259 C 0.27427 0.74569 0.06272 0.0
H260 H 0.29439 0.76213 0.06361 0.0
C261 C 0.26966 0.72083 0.05631 0.0
H262 H 0.21131 0.72959 0.07167 0.0
C263 C 0.24419 0.69908 0.05536 0.0
H264 H 0.24124 0.68013 0.04991 0.0
H265 H 0.28593 0.71839 0.05201 0.0
H266 H 0.2546 0.45718 0.10697 0.0
C267 C 0.23772 0.45526 0.09789 0.0
C268 C 0.21205 0.4409 0.10399 0.0
C269 C 0.24195 0.46915 0.08106 0.0
H270 H 0.17106 0.42971 0.09788 0.0
C271 C 0.19061 0.44012 0.09276 0.0
C272 C 0.19434 0.45346 0.07561 0.0
C273 C 0.2202 0.46762 0.06979 0.0
C274 C 0.26915 0.48917 0.0773 0.0
H275 H 0.22384 0.47832 0.05679 0.0
C276 C 0.28812 0.48247 0.07185 0.0
C277 C 0.31392 0.50241 0.06877 0.0
C278 C 0.27611 0.51571 0.07947 0.0
H279 H 0.26182 0.52124 0.08368 0.0
C280 C 0.3016 0.53536 0.07652 0.0
H281 H 0.28291 0.46204 0.07007 0.0
C282 C 0.32042 0.52881 0.07127 0.0
H283 H 0.34007 0.54442 0.0689 0.0
H284 H 0.30679 0.55576 0.07831 0.0
H285 H 0.44942 0.87521 0.24133 0.0
C286 C 0.43437 0.87645 0.24918 0.0
C287 C 0.42489 0.89302 0.24331 0.0
C288 C 0.42313 0.85994 0.26418 0.0
H289 H 0.39647 0.9054 0.24831 0.0
C290 C 0.40415 0.89305 0.25297 0.0
C291 C 0.39277 0.87672 0.26816 0.0
C292 C 0.40282 0.86058 0.27381 0.0
C293 C 0.43019 0.83971 0.26829 0.0
H294 H 0.39465 0.84805 0.28561 0.0
C295 C 0.45665 0.84638 0.27359 0.0
C296 C 0.46272 0.82658 0.27703 0.0
C297 C 0.40999 0.8132 0.2666 0.0
H298 H 0.38953 0.80762 0.26245 0.0
C299 C 0.41601 0.79361 0.2699 0.0
H300 H 0.47235 0.86678 0.275 0.0
C301 C 0.44219 0.80019 0.27502 0.0
H302 H 0.44638 0.78465 0.27771 0.0
H303 H 0.40032 0.77324 0.26848 0.0
H304 H 0.13679 0.58295 0.26801 0.0
C305 C 0.13481 0.56555 0.27409 0.0
C306 C 0.11675 0.5406 0.26435 0.0
C307 C 0.15067 0.5682 0.29143 0.0
H308 H 0.10085 0.49891 0.26476 0.0
C309 C 0.11452 0.51819 0.27229 0.0
C310 C 0.13032 0.52049 0.28955 0.0
C311 C 0.1482 0.54558 0.29905 0.0
C312 C 0.17016 0.59454 0.30154 0.0
H313 H 0.16062 0.54758 0.31229 0.0
C314 C 0.16331 0.61413 0.30416 0.0
C315 C 0.18137 0.6387 0.31443 0.0
C316 C 0.19557 0.60005 0.30903 0.0
H317 H 0.20163 0.58555 0.30693 0.0
C318 C 0.21356 0.62444 0.31921 0.0
H319 H 0.14367 0.61004 0.29873 0.0
C320 C 0.20651 0.64365 0.322 0.0
H321 H 0.22085 0.66252 0.32981 0.0
H322 H 0.23306 0.62848 0.32491 0.0
H323 H 0.42376 0.53741 0.24736 0.0
C324 C 0.44167 0.55398 0.25496 0.0
C325 C 0.46653 0.56114 0.24818 0.0
C326 C 0.4398 0.56889 0.27104 0.0
H327 H 0.50864 0.58874 0.25266 0.0
C328 C 0.48952 0.58304 0.25797 0.0
C329 C 0.48795 0.5983 0.27394 0.0
C330 C 0.46296 0.59091 0.2804 0.0
C331 C 0.4137 0.56324 0.27729 0.0
H332 H 0.46127 0.60283 0.29235 0.0
C333 C 0.39581 0.53877 0.28373 0.0
C334 C 0.37247 0.535 0.29162 0.0
C335 C 0.40744 0.58335 0.27801 0.0
H336 H 0.42083 0.60226 0.27301 0.0
C337 C 0.38405 0.5794 0.28534 0.0
H338 H 0.40058 0.52323 0.28343 0.0
C339 C 0.36677 0.55549 0.29228 0.0
H340 H 0.34881 0.55292 0.29809 0.0
H341 H 0.37944 0.59503 0.28586 0.0
Eu342 Eu 0.48551 0.98683 0.98463 0.0
Eu343 Eu 0.5035 0.01262 0.03199 0.0
C344 C 0.48202 0.03748 1.00031 0.0
C345 C 0.4809 0.98344 0.92848 0.0
C346 C 0.49401 0.01095 0.92938 0.0
C347 C 0.48242 0.98134 0.8927 0.0
C348 C 0.50136 0.02358 0.91206 0.0
C349 C 0.47509 0.96873 0.91005 0.0
C350 C 0.49579 0.00895 0.89349 0.0
C351 C 0.47456 0.97017 0.94679 0.0
O352 O 0.45898 0.98695 0.02855 0.0
O353 O 0.45252 0.95824 1.00157 0.0
C354 C 0.44436 0.96442 0.01763 0.0
O355 O 0.5055 0.96688 0.99886 0.0
O356 O 0.49682 0.03016 0.05876 0.0
O357 O 0.52986 0.02311 0.05921 0.0
O358 O 0.49875 0.97243 0.03134 0.0
C359 C 0.50411 0.96034 0.0171 0.0
O360 O 0.52365 0.02519 0.98472 0.0
O361 O 0.54135 0.03054 0.01693 0.0
O362 O 0.49937 0.04263 0.01558 0.0
O363 O 0.49485 0.97246 0.95769 0.0
O364 O 0.45839 0.97355 0.95744 0.0
O365 O 0.47049 0.01495 0.98919 0.0
C366 C 0.50747 0.01664 0.08843 0.0
C367 C 0.51161 0.99592 0.09294 0.0
C368 C 0.48662 0.01281 0.11911 0.0
C369 C 0.50342 0.98386 0.11039 0.0
C370 C 0.49505 0.02505 0.10175 0.0
C371 C 0.49068 0.99205 0.12361 0.0
C372 C 0.51531 0.02917 0.06977 0.0
C373 C 0.54387 0.03625 0.99844 0.0
H374 H 0.49875 0.02265 0.94352 0.0
H375 H 0.47811 0.96946 0.87873 0.0
H376 H 0.51127 0.04482 0.91322 0.0
H377 H 0.4652 0.9475 0.90911 0.0
H378 H 0.52094 0.9888 0.08292 0.0
H379 H 0.47708 0.01972 0.1291 0.0
H380 H 0.50653 0.96771 0.11331 0.0
H381 H 0.49166 0.04098 0.09864 0.0
Eu382 Eu 0.01698 0.49405 0.9891 0.0
Eu383 Eu 0.99666 0.48483 0.03417 0.0
C384 C 0.96695 0.43968 0.99781 0.0
C385 C 0.01931 0.49906 0.93327 0.0
C386 C 0.02665 0.4892 0.91706 0.0
C387 C 0.98724 0.5025 0.91114 0.0
C388 C 0.01422 0.48573 0.89802 0.0
C389 C 0.99955 0.50576 0.93021 0.0
C390 C 0.99425 0.49222 0.89482 0.0
C391 C 0.03172 0.50118 0.95328 0.0
O392 O 0.03373 0.48224 0.03661 0.0
O393 O 0.03635 0.47336 0.0035 0.0
C394 C 0.04337 0.47436 0.02247 0.0
O395 O 0.05092 0.52481 0.00995 0.0
O396 O 0.98551 0.46234 0.05982 0.0
O397 O 0.98256 0.49743 0.05933 0.0
O398 O 0.02735 0.52803 0.03476 0.0
C399 C 0.04916 0.53746 0.02576 0.0
O400 O 0.99092 0.51217 0.99178 0.0
O401 O 0.9654 0.48717 0.01512 0.0
O402 O 0.9759 0.44479 0.0167 0.0
O403 O 0.03443 0.52005 0.966 0.0
O404 O 0.02365 0.47909 0.96115 0.0
O405 O 0.97658 0.45772 0.98538 0.0
C406 C 0.99423 0.4878 0.09019 0.0
C407 C 0.02182 0.49906 0.09378 0.0
C408 C 0.99127 0.49242 0.12559 0.0
C409 C 0.03406 0.50673 0.11321 0.0
C410 C 0.97905 0.48469 0.10615 0.0
C411 C 0.01891 0.50336 0.12937 0.0
C412 C 0.98114 0.47907 0.06988 0.0
C413 C 0.96924 0.50262 1.001 0.0
H414 H 0.04171 0.48373 0.91918 0.0
H415 H 0.97219 0.50801 0.90921 0.0
H416 H 0.0198 0.47731 0.88592 0.0
H417 H 0.99345 0.51326 0.94257 0.0
H418 H 0.03383 0.50162 0.08156 0.0
H419 H 0.97908 0.4899 0.13766 0.0
H420 H 0.05531 0.51474 0.11558 0.0
H421 H 0.95773 0.47617 0.10357 0.0
Eu422 Eu 0.53271 0.51819 0.02673 0.0
Eu423 Eu 0.5081 0.51574 0.9807 0.0
C424 C 0.53805 0.56874 0.00904 0.0
C425 C 0.53754 0.5179 0.08292 0.0
C426 C 0.51004 0.50702 0.0833 0.0
C427 C 0.54335 0.527 0.1188 0.0
C428 C 0.49926 0.50628 0.10134 0.0
C429 C 0.55407 0.52768 0.10077 0.0
C430 C 0.51582 0.51652 0.11933 0.0
C431 C 0.54937 0.52092 0.06397 0.0
O432 O 0.55191 0.53079 0.97922 0.0
O433 O 0.56306 0.51779 0.00789 0.0
C434 C 0.56829 0.52639 0.99028 0.0
O435 O 0.5056 0.47567 0.01555 0.0
O436 O 0.5094 0.53598 0.95449 0.0
O437 O 0.48033 0.49463 0.95435 0.0
O438 O 0.51129 0.47958 0.98262 0.0
C439 C 0.50541 0.46551 0.99777 0.0
O440 O 0.49482 0.51859 0.0297 0.0
O441 O 0.47266 0.50032 0.99871 0.0
O442 O 0.51629 0.5535 0.9973 0.0
O443 O 0.54002 0.49985 0.05158 0.0
O444 O 0.55256 0.54113 0.0551 0.0
O445 O 0.55163 0.55914 0.01749 0.0
C446 C 0.49916 0.50963 0.92407 0.0
C447 C 0.49633 0.48522 0.91765 0.0
C448 C 0.5182 0.52629 0.89342 0.0
C449 C 0.50443 0.48143 0.89932 0.0
C450 C 0.50993 0.53001 0.91167 0.0
C451 C 0.51569 0.50198 0.88702 0.0
C452 C 0.49176 0.5145 0.94375 0.0
C453 C 0.47286 0.50704 0.01762 0.0
H454 H 0.49697 0.49949 0.06961 0.0
H455 H 0.55679 0.53549 0.13226 0.0
H456 H 0.47797 0.49782 0.10117 0.0
H457 H 0.57537 0.53642 0.10072 0.0
H458 H 0.48805 0.46905 0.92682 0.0
H459 H 0.5271 0.5427 0.88453 0.0
H460 H 0.50174 0.46231 0.89477 0.0
H461 H 0.51234 0.54902 0.91626 0.0
Eu462 Eu 0.16054 0.32606 0.3198 0.0
Eu463 Eu 0.17598 0.35145 0.36721 0.0
C464 C 0.15367 0.37482 0.33493 0.0
C465 C 0.15619 0.32315 0.26377 0.0
C466 C 0.16388 0.34984 0.26462 0.0
C467 C 0.16165 0.3231 0.22849 0.0
C468 C 0.17035 0.36307 0.24752 0.0
C469 C 0.15509 0.30987 0.24561 0.0
C470 C 0.16942 0.34989 0.22923 0.0
C471 C 0.15088 0.3096 0.28195 0.0
O472 O 0.13161 0.32419 0.3626 0.0
O473 O 0.12881 0.29591 0.33665 0.0
C474 C 0.1189 0.30125 0.352 0.0
O475 O 0.18271 0.3085 0.3344 0.0
O476 O 0.16763 0.36813 0.39352 0.0
O477 O 0.20086 0.36144 0.39521 0.0
O478 O 0.1735 0.31217 0.36643 0.0
C479 C 0.18059 0.30131 0.35246 0.0
O480 O 0.19749 0.3654 0.32034 0.0
O481 O 0.21449 0.37178 0.35292 0.0
O482 O 0.17077 0.38065 0.35051 0.0
O483 O 0.1719 0.3137 0.29293 0.0
O484 O 0.13349 0.31086 0.29254 0.0
O485 O 0.14325 0.35232 0.32387 0.0
C486 C 0.17668 0.35369 0.42306 0.0
C487 C 0.15804 0.32671 0.42136 0.0
C488 C 0.1787 0.35424 0.45901 0.0
C489 C 0.14984 0.31356 0.43837 0.0
C490 C 0.1869 0.36738 0.44196 0.0
C491 C 0.16015 0.32711 0.45743 0.0
C492 C 0.18576 0.36735 0.40515 0.0
C493 C 0.21729 0.37726 0.33436 0.0
H494 H 0.1652 0.36054 0.27859 0.0
H495 H 0.16043 0.31229 0.21463 0.0
H496 H 0.17659 0.38376 0.2487 0.0
H497 H 0.14937 0.2893 0.24471 0.0
H498 H 0.14989 0.31582 0.40686 0.0
H499 H 0.18728 0.36523 0.47342 0.0
H500 H 0.13525 0.29279 0.43656 0.0
H501 H 0.20139 0.38819 0.44353 0.0
Eu502 Eu 0.68297 0.83198 0.32109 0.0
Eu503 Eu 0.66007 0.82442 0.36521 0.0
C504 C 0.63522 0.77613 0.33118 0.0
C505 C 0.68661 0.83469 0.26558 0.0
C506 C 0.66391 0.83694 0.26229 0.0
C507 C 0.68448 0.82382 0.23019 0.0
C508 C 0.65173 0.83291 0.24308 0.0
C509 C 0.69678 0.82808 0.24943 0.0
C510 C 0.66181 0.82623 0.22677 0.0
C511 C 0.69964 0.83913 0.28577 0.0
O512 O 0.68894 0.80938 0.36558 0.0
O513 O 0.71491 0.83286 0.34175 0.0
C514 C 0.71109 0.81898 0.35694 0.0
O515 O 0.69671 0.87197 0.33677 0.0
O516 O 0.64494 0.80135 0.39037 0.0
O517 O 0.64907 0.83996 0.39057 0.0
O518 O 0.69925 0.86228 0.36855 0.0
C519 C 0.70697 0.87927 0.3553 0.0
O520 O 0.64228 0.82648 0.31572 0.0
O521 O 0.63826 0.8402 0.34702 0.0
O522 O 0.6302 0.788 0.34586 0.0
O523 O 0.69961 0.85734 0.29756 0.0
O524 O 0.69413 0.81822 0.29463 0.0
O525 O 0.65705 0.78828 0.32228 0.0
C526 C 0.65649 0.82657 0.42145 0.0
C527 C 0.67946 0.85079 0.4277 0.0
C528 C 0.65654 0.81348 0.45478 0.0
C529 C 0.69074 0.85637 0.44738 0.0
C530 C 0.64515 0.808 0.43514 0.0
C531 C 0.67947 0.83777 0.46119 0.0
C532 C 0.6442 0.82021 0.40079 0.0
C533 C 0.63079 0.83489 0.32783 0.0
H534 H 0.65564 0.84194 0.27458 0.0
H535 H 0.6925 0.81824 0.21805 0.0
H536 H 0.63456 0.83529 0.24103 0.0
H537 H 0.71418 0.82609 0.25171 0.0
H538 H 0.6887 0.86544 0.4174 0.0
H539 H 0.64758 0.79847 0.46485 0.0
H540 H 0.70817 0.8754 0.45179 0.0
H541 H 0.62753 0.78914 0.4306 0.0
Eu542 Eu 0.19442 0.85028 0.36182 0.0
Eu543 Eu 0.17179 0.84989 0.31576 0.0
C544 C 0.20116 0.90197 0.34493 0.0
C545 C 0.19903 0.8488 0.41785 0.0
C546 C 0.17151 0.83763 0.41832 0.0
C547 C 0.20513 0.85889 0.45364 0.0
C548 C 0.16087 0.83721 0.43636 0.0
C549 C 0.21572 0.85918 0.43561 0.0
C550 C 0.17758 0.84815 0.45424 0.0
C551 C 0.21069 0.85151 0.39887 0.0
O552 O 0.21593 0.86575 0.31572 0.0
O553 O 0.22348 0.84772 0.34275 0.0
C554 C 0.23054 0.85857 0.3261 0.0
O555 O 0.16552 0.8084 0.35019 0.0
O556 O 0.17435 0.87048 0.28956 0.0
O557 O 0.14512 0.82916 0.28883 0.0
O558 O 0.17367 0.813 0.31777 0.0
C559 C 0.1661 0.7984 0.33258 0.0
O560 O 0.15696 0.85147 0.36474 0.0
O561 O 0.1358 0.83558 0.33314 0.0
O562 O 0.17984 0.8874 0.3326 0.0
O563 O 0.20032 0.83055 0.38625 0.0
O564 O 0.21507 0.8723 0.39032 0.0
O565 O 0.21407 0.89175 0.35353 0.0
C566 C 0.16609 0.84409 0.25982 0.0
C567 C 0.18691 0.83868 0.26025 0.0
C568 C 0.16335 0.8406 0.22378 0.0
C569 C 0.1959 0.83426 0.24257 0.0
C570 C 0.15436 0.84503 0.24152 0.0
C571 C 0.18423 0.83514 0.2241 0.0
C572 C 0.15706 0.84919 0.27848 0.0
C573 C 0.13551 0.84139 0.35216 0.0
H574 H 0.15832 0.82966 0.4047 0.0
H575 H 0.21868 0.86792 0.467 0.0
H576 H 0.13957 0.82852 0.43627 0.0
H577 H 0.23703 0.86815 0.43547 0.0
H578 H 0.19631 0.83803 0.27429 0.0
H579 H 0.15372 0.84113 0.20983 0.0
H580 H 0.21228 0.83052 0.24341 0.0
H581 H 0.13827 0.8492 0.24094 0.0
Eu582 Eu 0.82547 0.66409 0.65485 0.0
Eu583 Eu 0.84134 0.68749 0.70263 0.0
C584 C 0.81672 0.71008 0.67107 0.0
C585 C 0.82343 0.66375 0.59901 0.0
C586 C 0.8358 0.69125 0.60065 0.0
C587 C 0.827 0.66358 0.56347 0.0
C588 C 0.84342 0.7048 0.58378 0.0
C589 C 0.81924 0.65002 0.58037 0.0
C590 C 0.83898 0.69112 0.56496 0.0
C591 C 0.81504 0.64948 0.61673 0.0
O592 O 0.80474 0.64817 0.70164 0.0
O593 O 0.78702 0.64409 0.66962 0.0
C594 C 0.78444 0.63778 0.68804 0.0
O595 O 0.82955 0.63365 0.67007 0.0
O596 O 0.83084 0.70002 0.72982 0.0
O597 O 0.86866 0.70164 0.72976 0.0
O598 O 0.85605 0.65873 0.69829 0.0
C599 C 0.84558 0.63733 0.68581 0.0
O600 O 0.86981 0.69237 0.65883 0.0
O601 O 0.87258 0.71853 0.68629 0.0
O602 O 0.81592 0.70276 0.68908 0.0
O603 O 0.83364 0.64869 0.62774 0.0
O604 O 0.79993 0.65465 0.62733 0.0
O605 O 0.82709 0.70265 0.65734 0.0
C606 C 0.84633 0.68976 0.75866 0.0
C607 C 0.83157 0.66224 0.75729 0.0
C608 C 0.84854 0.69107 0.79463 0.0
C609 C 0.82514 0.6492 0.77447 0.0
C610 C 0.8549 0.70409 0.7774 0.0
C611 C 0.83341 0.66345 0.79338 0.0
C612 C 0.85176 0.70347 0.74057 0.0
C613 C 0.88248 0.71457 0.67042 0.0
H614 H 0.83945 0.70222 0.61498 0.0
H615 H 0.82309 0.65246 0.54918 0.0
H616 H 0.85293 0.72602 0.58549 0.0
H617 H 0.80979 0.62879 0.57886 0.0
H618 H 0.82466 0.65085 0.7429 0.0
H619 H 0.85555 0.70266 0.80892 0.0
H620 H 0.81314 0.62798 0.77289 0.0
H621 H 0.86631 0.72536 0.77871 0.0
Eu622 Eu 0.35122 0.1628 0.65514 0.0
Eu623 Eu 0.3292 0.15691 0.69934 0.0
C624 C 0.30315 0.10793 0.66607 0.0
C625 C 0.35582 0.16661 0.59974 0.0
C626 C 0.33501 0.17188 0.59686 0.0
C627 C 0.3528 0.15627 0.56419 0.0
C628 C 0.32327 0.1695 0.57775 0.0
C629 C 0.36467 0.15886 0.58332 0.0
C630 C 0.33191 0.16151 0.56118 0.0
C631 C 0.36799 0.16866 0.61981 0.0
O632 O 0.35717 0.14079 0.69978 0.0
O633 O 0.3832 0.1637 0.67584 0.0
C634 C 0.37925 0.14992 0.6911 0.0
O635 O 0.36428 0.20305 0.66982 0.0
O636 O 0.3149 0.13504 0.72517 0.0
O637 O 0.31876 0.17345 0.72442 0.0
O638 O 0.3685 0.19465 0.7017 0.0
C639 C 0.37542 0.21113 0.68809 0.0
O640 O 0.31105 0.15876 0.6496 0.0
O641 O 0.30726 0.17243 0.68104 0.0
O642 O 0.2984 0.1205 0.68041 0.0
O643 O 0.371 0.18795 0.6321 0.0
O644 O 0.35907 0.14682 0.62809 0.0
O645 O 0.32525 0.11938 0.65743 0.0
C646 C 0.32795 0.16188 0.75558 0.0
C647 C 0.35054 0.1867 0.76096 0.0
C648 C 0.33107 0.15029 0.78904 0.0
C649 C 0.36319 0.19329 0.78026 0.0
C650 C 0.31829 0.1438 0.76978 0.0
C651 C 0.35372 0.17512 0.79453 0.0
C652 C 0.31454 0.15437 0.73522 0.0
C653 C 0.29975 0.16728 0.66184 0.0
H654 H 0.32778 0.17778 0.60939 0.0
H655 H 0.35964 0.14961 0.55184 0.0
H656 H 0.30749 0.17402 0.57599 0.0
H657 H 0.38058 0.15453 0.5853 0.0
H658 H 0.35852 0.20102 0.75026 0.0
H659 H 0.32346 0.13561 0.79949 0.0
H660 H 0.38033 0.21271 0.78399 0.0
H661 H 0.30098 0.1245 0.7659 0.0
Eu662 Eu 0.86446 0.18338 0.69536 0.0
Eu663 Eu 0.83952 0.17948 0.64927 0.0
C664 C 0.86431 0.23204 0.67802 0.0
C665 C 0.87068 0.18654 0.75168 0.0
C666 C 0.85247 0.19524 0.75371 0.0
C667 C 0.8684 0.17767 0.78629 0.0
C668 C 0.84255 0.19547 0.77196 0.0
C669 C 0.87841 0.17757 0.76803 0.0
C670 C 0.85049 0.18682 0.78855 0.0
C671 C 0.88147 0.18651 0.73257 0.0
O672 O 0.88392 0.19783 0.64873 0.0
O673 O 0.89469 0.183 0.67638 0.0
C674 C 0.90024 0.1928 0.65921 0.0
O675 O 0.83844 0.14059 0.68452 0.0
O676 O 0.84029 0.19898 0.62276 0.0
O677 O 0.81309 0.1572 0.62257 0.0
O678 O 0.84402 0.14413 0.65159 0.0
C679 C 0.83824 0.13025 0.66683 0.0
O680 O 0.82558 0.18178 0.6983 0.0
O681 O 0.80383 0.16338 0.66713 0.0
O682 O 0.84363 0.21559 0.66573 0.0
O683 O 0.86903 0.1646 0.72102 0.0
O684 O 0.88772 0.20684 0.72279 0.0
O685 O 0.87956 0.22443 0.68679 0.0
C686 C 0.8338 0.17249 0.59348 0.0
C687 C 0.85406 0.16625 0.5943 0.0
C688 C 0.83392 0.1718 0.55762 0.0
C689 C 0.86416 0.16276 0.5769 0.0
C690 C 0.82379 0.17524 0.57507 0.0
C691 C 0.85424 0.16552 0.55833 0.0
C692 C 0.82397 0.17706 0.61192 0.0
C693 C 0.8037 0.16982 0.68608 0.0
H694 H 0.84612 0.20212 0.74122 0.0
H695 H 0.87463 0.17045 0.7986 0.0
H696 H 0.8291 0.203 0.77315 0.0
H697 H 0.89225 0.17053 0.76668 0.0
H698 H 0.86223 0.16431 0.60844 0.0
H699 H 0.82567 0.1738 0.54356 0.0
H700 H 0.88006 0.15835 0.57805 0.0
H701 H 0.80822 0.18015 0.57419 0.0
H702 H 0.29188 0.82789 0.03247 0.0
H703 H 0.42457 0.96821 0.05247 0.0
H704 H 0.32369 0.87067 0.09053 0.0
H705 H 0.40545 0.91669 0.9987 0.0
H706 H 0.38375 0.93554 0.06481 0.0
H707 H 0.32952 0.86305 0.01827 0.0
C708 C 0.30668 0.84468 0.04225 0.0
C709 C 0.30462 0.8461 0.06282 0.0
C710 C 0.38839 0.9314 0.05027 0.0
C711 C 0.34759 0.88663 0.04651 0.0
C712 C 0.41171 0.95011 0.04314 0.0
C713 C 0.41861 0.9452 0.02449 0.0
C714 C 0.37161 0.90755 0.03868 0.0
C715 C 0.40104 0.9213 0.01317 0.0
C716 C 0.32812 0.86477 0.03409 0.0
C717 C 0.32416 0.86871 0.07461 0.0
N718 N 0.37836 0.90333 0.02047 0.0
N719 N 0.34483 0.88797 0.0663 0.0
H720 H 0.19554 0.49372 0.05584 0.0
H721 H 0.04591 0.44892 0.05406 0.0
H722 H 0.14088 0.41564 0.07099 0.0
H723 H 0.08794 0.48579 0.0043 0.0
H724 H 0.08211 0.44119 0.06484 0.0
H725 H 0.15806 0.49588 0.04045 0.0
C726 C 0.17587 0.4768 0.05573 0.0
C727 C 0.1717 0.45441 0.06491 0.0
C728 C 0.0832 0.45071 0.05146 0.0
C729 C 0.12855 0.45756 0.04798 0.0
C730 C 0.06269 0.4552 0.04536 0.0
C731 C 0.06399 0.46787 0.02824 0.0
C732 C 0.10549 0.45977 0.04073 0.0
C733 C 0.08615 0.47573 0.01748 0.0
C734 C 0.15445 0.47824 0.04704 0.0
C735 C 0.14532 0.43362 0.06465 0.0
N736 N 0.10632 0.47196 0.0241 0.0
N737 N 0.12475 0.43588 0.05664 0.0
H738 H 0.57271 0.70685 0.08073 0.0
H739 H 0.52098 0.59836 0.9904 0.0
H740 H 0.55146 0.72069 0.02237 0.0
H741 H 0.57319 0.60216 0.03983 0.0
H742 H 0.53108 0.64281 1.0017 0.0
H743 H 0.57286 0.66839 0.06606 0.0
C744 C 0.56858 0.70221 0.06478 0.0
C745 C 0.56189 0.71711 0.05283 0.0
C746 C 0.54059 0.63401 0.00989 0.0
C747 C 0.56117 0.67235 0.03604 0.0
C748 C 0.53476 0.60863 0.0035 0.0
C749 C 0.54608 0.59647 0.01429 0.0
C750 C 0.55745 0.64705 0.02736 0.0
C751 C 0.56394 0.61074 0.03109 0.0
C752 C 0.5685 0.68005 0.05644 0.0
C753 C 0.55613 0.70951 0.03227 0.0
N754 N 0.56878 0.63514 0.03727 0.0
N755 N 0.55551 0.68744 0.02457 0.0
H756 H 0.81712 0.31183 0.94359 0.0
H757 H 0.95316 0.39252 0.01225 0.0
H758 H 0.86142 0.27489 0.96188 0.0
H759 H 0.92992 0.42707 0.96655 0.0
H760 H 0.91575 0.34905 0.99924 0.0
H761 H 0.85453 0.35452 0.95753 0.0
C762 C 0.8347 0.31277 0.95071 0.0
C763 C 0.83632 0.28996 0.95165 0.0
C764 C 0.91898 0.36622 0.99211 0.0
C765 C 0.87889 0.33846 0.96771 0.0
C766 C 0.94016 0.39095 0.99955 0.0
C767 C 0.94464 0.41335 0.9904 0.0
C768 C 0.90187 0.3641 0.9758 0.0
C769 C 0.92728 0.41027 0.97395 0.0
C770 C 0.85602 0.33705 0.95853 0.0
C771 C 0.85956 0.29214 0.96085 0.0
N772 N 0.90652 0.38614 0.96728 0.0
N773 N 0.87995 0.31601 0.9687 0.0
H774 H 0.72251 0.54352 0.97517 0.0
H775 H 0.58441 0.53995 0.95337 0.0
H776 H 0.69294 0.5503 0.9173 0.0
H777 H 0.60961 0.52376 0.0093 0.0
H778 H 0.62547 0.54697 0.94059 0.0
H779 H 0.6828 0.53944 0.98854 0.0
C780 C 0.70769 0.54416 0.96525 0.0
C781 C 0.7111 0.54714 0.94502 0.0
C782 C 0.62205 0.54193 0.95567 0.0
C783 C 0.66554 0.54268 0.96034 0.0
C784 C 0.59858 0.53795 0.96302 0.0
C785 C 0.59344 0.5312 0.98248 0.0
C786 C 0.64066 0.53926 0.96785 0.0
C787 C 0.61262 0.52885 0.99421 0.0
C788 C 0.68503 0.54191 0.97293 0.0
C789 C 0.69138 0.54832 0.93302 0.0
N790 N 0.63534 0.53287 0.98672 0.0
N791 N 0.66944 0.54599 0.94084 0.0
H792 H 0.45382 0.14086 0.93259 0.0
H793 H 0.49376 0.08308 0.0224 0.0
H794 H 0.46526 0.17363 0.99342 0.0
H795 H 0.45641 0.03833 0.96565 0.0
H796 H 0.48509 0.11737 0.01205 0.0
H797 H 0.45555 0.10353 0.94436 0.0
C798 C 0.45625 0.14006 0.94844 0.0
C799 C 0.45952 0.16059 0.96201 0.0
C800 C 0.47861 0.09992 1.00196 0.0
C801 C 0.4623 0.11811 0.97556 0.0
C802 C 0.48365 0.08041 0.00782 0.0
C803 C 0.47589 0.05786 0.99485 0.0
C804 C 0.46608 0.09698 0.98291 0.0
C805 C 0.46273 0.05536 0.97616 0.0
C806 C 0.45743 0.11878 0.95515 0.0
C807 C 0.46319 0.15857 0.98238 0.0
N808 N 0.45846 0.07479 0.97069 0.0
N809 N 0.46477 0.13786 0.98853 0.0
H810 H 0.67319 0.14535 0.93492 0.0
H811 H 0.58634 0.07419 0.02318 0.0
H812 H 0.68037 0.18541 0.99211 0.0
H813 H 0.56041 0.0458 0.96128 0.0
H814 H 0.62725 0.1108 0.01346 0.0
H815 H 0.63813 0.1043 0.94602 0.0
C816 C 0.66771 0.1453 0.94993 0.0
C817 C 0.67945 0.16863 0.96264 0.0
C818 C 0.61267 0.09638 1.00205 0.0
C819 C 0.6397 0.12215 0.97538 0.0
C820 C 0.58938 0.07544 0.00758 0.0
C821 C 0.5698 0.05704 0.99302 0.0
C822 C 0.61659 0.09874 0.98184 0.0
C823 C 0.57483 0.05969 0.973 0.0
C824 C 0.64766 0.12203 0.9562 0.0
C825 C 0.67161 0.16775 0.98189 0.0
N826 N 0.5977 0.0802 0.968 0.0
N827 N 0.65217 0.14491 0.98767 0.0
H828 H 0.81475 0.48576 0.98731 0.0
H829 H 0.96264 0.52363 0.96719 0.0
H830 H 0.85044 0.52339 0.93581 0.0
H831 H 0.92613 0.4927 0.02041 0.0
H832 H 0.92377 0.52706 0.95608 0.0
H833 H 0.85724 0.4916 1.00046 0.0
C834 C 0.83172 0.49549 0.97887 0.0
C835 C 0.82912 0.50394 0.96042 0.0
C836 C 0.92447 0.5198 0.97027 0.0
C837 C 0.87796 0.51044 0.97522 0.0
C838 C 0.94666 0.51787 0.97664 0.0
C839 C 0.94756 0.50761 0.99468 0.0
C840 C 0.90313 0.5114 0.98205 0.0
C841 C 0.92626 0.50043 0.00629 0.0
C842 C 0.85602 0.49885 0.98636 0.0
C843 C 0.85174 0.51664 0.95012 0.0
N844 N 0.90496 0.5023 0.99972 0.0
N845 N 0.87522 0.51922 0.95754 0.0
H846 H 0.52504 0.3335 0.01487 0.0
H847 H 0.4966 0.43523 0.96296 0.0
H848 H 0.49498 0.32124 0.95325 0.0
H849 H 0.5052 0.43486 0.02662 0.0
H850 H 0.49524 0.39318 0.95897 0.0
H851 H 0.5177 0.37067 0.0195 0.0
C852 C 0.51682 0.33863 1.00234 0.0
C853 C 0.51079 0.32447 0.98362 0.0
C854 C 0.4971 0.40215 0.97381 0.0
C855 C 0.50237 0.36691 0.98876 0.0
C856 C 0.49792 0.42618 0.9761 0.0
C857 C 0.50124 0.43868 0.99516 0.0
C858 C 0.5 0.39075 0.99068 0.0
C859 C 0.50268 0.42597 0.01165 0.0
C860 C 0.51247 0.35971 0.00501 0.0
C861 C 0.49982 0.33165 0.96793 0.0
N862 N 0.5024 0.40285 0.00903 0.0
N863 N 0.49623 0.35259 0.97079 0.0
H864 H 0.20952 0.65229 0.06999 0.0
H865 H 0.05331 0.5831 0.04254 0.0
H866 H 0.1742 0.69716 0.05007 0.0
H867 H 0.09956 0.54707 0.02805 0.0
H868 H 0.09491 0.62432 0.05428 0.0
H869 H 0.16611 0.61247 0.06405 0.0
C870 C 0.19268 0.65386 0.0644 0.0
C871 C 0.19578 0.67815 0.06005 0.0
C872 C 0.09575 0.60724 0.04864 0.0
C873 C 0.1458 0.63255 0.05382 0.0
C874 C 0.07217 0.58382 0.04205 0.0
C875 C 0.07319 0.56188 0.0342 0.0
C876 C 0.1202 0.6082 0.04787 0.0
C877 C 0.09801 0.56369 0.0338 0.0
C878 C 0.16789 0.63111 0.06115 0.0
C879 C 0.17287 0.67893 0.0536 0.0
N880 N 0.1205 0.58639 0.04062 0.0
N881 N 0.1488 0.65639 0.05053 0.0
H882 H 0.31216 0.4724 0.03563 0.0
H883 H 0.46641 0.5181 0.05589 0.0
H884 H 0.3628 0.52008 0.08789 0.0
H885 H 0.42232 0.48504 0.99826 0.0
H886 H 0.4263 0.51222 0.06925 0.0
H887 H 0.34979 0.46985 0.02333 0.0
C888 C 0.33104 0.48179 0.04469 0.0
C889 C 0.3345 0.49648 0.06277 0.0
C890 C 0.42529 0.50615 0.05368 0.0
C891 C 0.37746 0.49393 0.04882 0.0
C892 C 0.44828 0.50952 0.04598 0.0
C893 C 0.44793 0.50231 0.0258 0.0
C894 C 0.40154 0.49548 0.0412 0.0
C895 C 0.42362 0.49107 0.01386 0.0
C896 C 0.35253 0.48056 0.03761 0.0
C897 C 0.35939 0.50862 0.07385 0.0
N898 N 0.40141 0.48812 0.02172 0.0
N899 N 0.37989 0.50717 0.06668 0.0
H900 H 0.47931 0.80401 0.00974 0.0
H901 H 0.51129 0.94552 0.05345 0.0
H902 H 0.5159 0.83648 0.06935 0.0
H903 H 0.50189 0.92247 0.99054 0.0
H904 H 0.51111 0.90516 0.06012 0.0
H905 H 0.48498 0.84662 1.00286 0.0
C906 C 0.48851 0.82016 0.02137 0.0
C907 C 0.49702 0.81678 0.04016 0.0
C908 C 0.50935 0.9091 0.04487 0.0
C909 C 0.50356 0.86549 0.03244 0.0
C910 C 0.50939 0.93208 0.04104 0.0
C911 C 0.50649 0.93732 0.0214 0.0
C912 C 0.50597 0.89106 0.02896 0.0
C913 C 0.50421 0.91926 0.00591 0.0
C914 C 0.49192 0.84449 0.01741 0.0
C915 C 0.50915 0.83838 0.05466 0.0
N916 N 0.5037 0.8968 0.01003 0.0
N917 N 0.51184 0.86181 0.05056 0.0
H918 H 0.97208 0.21066 0.40649 0.0
H919 H 0.09413 0.24819 0.34192 0.0
H920 H 1.001 0.15803 0.39115 0.0
H921 H 0.08677 0.30695 0.37734 0.0
H922 H 0.05484 0.21399 0.35527 0.0
H923 H 0.0099 0.24571 0.39213 0.0
C924 C 0.98633 0.20642 0.40021 0.0
C925 C 0.98304 0.18114 0.3999 0.0
C926 C 0.06178 0.23439 0.36004 0.0
C927 C 0.02594 0.221 0.38304 0.0
C928 C 0.08409 0.25393 0.35232 0.0
C929 C 0.0938 0.28048 0.35855 0.0
C930 C 0.04886 0.24142 0.3739 0.0
C931 C 0.08004 0.28671 0.37219 0.0
C932 C 0.0078 0.22641 0.39191 0.0
C933 C 1.00213 0.17689 0.39131 0.0
N934 N 0.05823 0.26733 0.3794 0.0
N935 N 0.02257 0.1965 0.38315 0.0
H936 H 0.86386 0.84143 0.39833 0.0
H937 H 0.70789 0.78204 0.38122 0.0
H938 H 0.8084 0.76072 0.40702 0.0
H939 H 0.76349 0.84626 0.35053 0.0
H940 H 0.74436 0.77596 0.39416 0.0
H941 H 0.8272 0.84545 0.38371 0.0
C942 C 0.8441 0.82438 0.39695 0.0
C943 C 0.83943 0.80059 0.40388 0.0
C944 C 0.74847 0.79128 0.38452 0.0
C945 C 0.79707 0.80552 0.38767 0.0
C946 C 0.72773 0.79485 0.37721 0.0
C947 C 0.73265 0.81467 0.36476 0.0
C948 C 0.77435 0.80797 0.37963 0.0
C949 C 0.75874 0.83064 0.35999 0.0
C950 C 0.8231 0.82682 0.38872 0.0
C951 C 0.81305 0.77956 0.40218 0.0
N952 N 0.77862 0.82707 0.36755 0.0
N953 N 0.79286 0.78257 0.39437 0.0
H954 H 0.23821 0.04102 0.41677 0.0
H955 H 0.186 0.9328 0.32599 0.0
H956 H 0.21861 0.05556 0.35819 0.0
H957 H 0.23552 0.93437 0.37644 0.0
H958 H 0.197 0.97749 0.33739 0.0
H959 H 0.23727 0.00188 0.40232 0.0
C960 C 0.23421 0.03635 0.40082 0.0
C961 C 0.22831 0.05167 0.38873 0.0
C962 C 0.20571 0.96814 0.3458 0.0
C963 C 0.22637 0.0062 0.37218 0.0
C964 C 0.19936 0.94263 0.33935 0.0
C965 C 0.20968 0.92979 0.35038 0.0
C966 C 0.22209 0.98066 0.36356 0.0
C967 C 0.22705 0.94349 0.36751 0.0
C968 C 0.23351 0.01383 0.3926 0.0
C969 C 0.22268 0.04409 0.36818 0.0
N970 N 0.23241 0.96806 0.37373 0.0
N971 N 0.22149 0.02168 0.36058 0.0
H972 H 0.52935 0.63477 0.25519 0.0
H973 H 0.59215 0.74138 0.34919 0.0
H974 H 0.50123 0.6187 0.31318 0.0
H975 H 0.63238 0.74826 0.29644 0.0
H976 H 0.55793 0.69691 0.336 0.0
H977 H 0.56678 0.67664 0.26978 0.0
C978 C 0.53119 0.63978 0.27104 0.0
C979 C 0.51194 0.62304 0.28293 0.0
C980 C 0.57435 0.70808 0.32738 0.0
C981 C 0.55458 0.67149 0.29966 0.0
C982 C 0.59387 0.73352 0.33487 0.0
C983 C 0.61516 0.74864 0.32389 0.0
C984 C 0.57591 0.69776 0.30864 0.0
C985 C 0.61637 0.73733 0.30545 0.0
C986 C 0.55253 0.66385 0.27934 0.0
C987 C 0.51525 0.63108 0.30333 0.0
N988 N 0.5969 0.71268 0.29834 0.0
N989 N 0.536 0.65478 0.311 0.0
H990 H 0.38138 0.91639 0.27607 0.0
H991 H 0.25627 0.83178 0.33429 0.0
H992 H 0.35039 0.83366 0.28115 0.0
H993 H 0.26107 0.89362 0.30066 0.0
H994 H 0.2964 0.837 0.32068 0.0
H995 H 0.34224 0.91277 0.29035 0.0
C996 C 0.36647 0.89747 0.28009 0.0
C997 C 0.36949 0.87533 0.27737 0.0
C998 C 0.28867 0.84945 0.31635 0.0
C999 C 0.32509 0.87142 0.2943 0.0
C1000 C 0.26589 0.8466 0.32417 0.0
C1001 C 0.25531 0.86226 0.31855 0.0
C1002 C 0.30128 0.86846 0.30315 0.0
C1003 C 0.2685 0.88105 0.30528 0.0
C1004 C 0.34422 0.89552 0.28834 0.0
C1005 C 0.34954 0.8515 0.28334 0.0
N1006 N 0.29093 0.88375 0.2981 0.0
N1007 N 0.32835 0.85024 0.29161 0.0
H1008 H 0.13352 0.51 0.32832 0.0
H1009 H 0.12832 0.37437 0.29968 0.0
H1010 H 0.1254 0.47731 0.26792 0.0
H1011 H 0.16309 0.41993 0.35652 0.0
H1012 H 0.11903 0.40802 0.28924 0.0
H1013 H 0.13656 0.47316 0.34015 0.0
C1014 C 0.13231 0.49508 0.31753 0.0
C1015 C 0.12944 0.49694 0.29706 0.0
C1016 C 0.12857 0.41058 0.30403 0.0
C1017 C 0.13243 0.45456 0.31055 0.0
C1018 C 0.13381 0.39134 0.31005 0.0
C1019 C 0.14665 0.39442 0.32899 0.0
C1020 C 0.136 0.43298 0.31707 0.0
C1021 C 0.15335 0.41687 0.34174 0.0
C1022 C 0.13394 0.47404 0.32432 0.0
C1023 C 0.12732 0.47664 0.28382 0.0
N1024 N 0.14797 0.43535 0.33553 0.0
N1025 N 0.12895 0.45636 0.2908 0.0
H1026 H 0.35482 0.52862 0.32833 0.0
H1027 H 0.23475 0.38475 0.29749 0.0
H1028 H 0.34759 0.48508 0.2728 0.0
H1029 H 0.25851 0.41766 0.35869 0.0
H1030 H 0.27567 0.42131 0.28807 0.0
H1031 H 0.31971 0.48838 0.33988 0.0
C1032 C 0.34599 0.51044 0.31868 0.0
C1033 C 0.35394 0.51009 0.29957 0.0
C1034 C 0.2721 0.4204 0.30359 0.0
C1035 C 0.31352 0.46413 0.31252 0.0
C1036 C 0.24867 0.3996 0.30899 0.0
C1037 C 0.2431 0.39823 0.32892 0.0
C1038 C 0.28996 0.44031 0.31815 0.0
C1039 C 0.26198 0.41793 0.34316 0.0
C1040 C 0.32602 0.4875 0.32528 0.0
C1041 C 0.34202 0.48609 0.28765 0.0
N1042 N 0.28442 0.43836 0.33746 0.0
N1043 N 0.32209 0.4641 0.29421 0.0
H1044 H 0.49708 0.86057 0.30816 0.0
H1045 H 0.60729 0.821 0.28971 0.0
H1046 H 0.49036 0.80633 0.25971 0.0
H1047 H 0.60279 0.85448 0.34672 0.0
H1048 H 0.56885 0.82291 0.2763 0.0
H1049 H 0.54028 0.86597 0.32013 0.0
C1050 C 0.50496 0.85019 0.29988 0.0
C1051 C 0.49021 0.8329 0.283 0.0
C1052 C 0.5763 0.82994 0.29173 0.0
C1053 C 0.53924 0.83888 0.29653 0.0
C1054 C 0.59834 0.8289 0.29944 0.0
C1055 C 0.60823 0.83738 0.31948 0.0
C1056 C 0.564 0.83966 0.30405 0.0
C1057 C 0.59574 0.84754 0.33124 0.0
C1058 C 0.52943 0.8531 0.30678 0.0
C1059 C 0.50108 0.81969 0.27287 0.0
N1060 N 0.57419 0.84832 0.32336 0.0
N1061 N 0.52488 0.82292 0.27981 0.0
H1062 H 0.15893 0.65522 0.28648 0.0
H1063 H 0.16275 0.76681 0.36159 0.0
H1064 H 0.18738 0.66883 0.34858 0.0
H1065 H 0.16003 0.76892 0.29795 0.0
H1066 H 0.16188 0.72502 0.35737 0.0
H1067 H 0.14976 0.69133 0.29094 0.0
C1068 C 0.16296 0.66565 0.30109 0.0
C1069 C 0.17414 0.65928 0.31716 0.0
C1070 C 0.1612 0.73453 0.34433 0.0
C1071 C 0.16367 0.70035 0.32237 0.0
C1072 C 0.16155 0.75831 0.34671 0.0
C1073 C 0.16175 0.7715 0.3301 0.0
C1074 C 0.16083 0.72379 0.32522 0.0
C1075 C 0.16018 0.75953 0.31118 0.0
C1076 C 0.15784 0.68626 0.3036 0.0
C1077 C 0.17911 0.67343 0.33576 0.0
N1078 N 0.15994 0.7364 0.30925 0.0
N1079 N 0.17389 0.69335 0.33786 0.0
H1080 H 0.85539 0.01816 0.34846 0.0
H1081 H 0.73268 0.90282 0.39229 0.0
H1082 H 0.8458 0.01928 0.41101 0.0
H1083 H 0.73268 0.91735 0.33057 0.0
H1084 H 0.77324 0.94563 0.39994 0.0
H1085 H 0.80978 0.98155 0.34179 0.0
C1086 C 0.84344 0.01081 0.36075 0.0
C1087 C 0.85421 0.02154 0.38029 0.0
C1088 C 0.76411 0.93957 0.38478 0.0
C1089 C 0.80225 0.97942 0.37289 0.0
C1090 C 0.74099 0.91511 0.38039 0.0
C1091 C 0.7294 0.90633 0.36071 0.0
C1092 C 0.77586 0.95515 0.36936 0.0
C1093 C 0.74098 0.92317 0.34593 0.0
C1094 C 0.81744 0.98997 0.35697 0.0
C1095 C 0.83805 0.01147 0.39574 0.0
N1096 N 0.76373 0.94658 0.35052 0.0
N1097 N 0.81292 0.99064 0.39175 0.0
H1098 H 0.02709 0.85572 0.42527 0.0
H1099 H 0.08614 0.8226 0.33174 0.0
H1100 H 0.97916 0.81581 0.37017 0.0
H1101 H 0.12783 0.85046 0.39053 0.0
H1102 H 0.04611 0.81801 0.34531 0.0
H1103 H 0.06339 0.85145 0.41297 0.0
C1104 C 0.02413 0.84557 0.41069 0.0
C1105 C 1.00019 0.83596 0.39873 0.0
C1106 C 0.064 0.82493 0.35522 0.0
C1107 C 0.04186 0.83166 0.3842 0.0
C1108 C 0.08689 0.82763 0.34747 0.0
C1109 C 0.11055 0.83719 0.35993 0.0
C1110 C 0.06483 0.83194 0.37554 0.0
C1111 C 0.11023 0.84325 0.38024 0.0
C1112 C 0.04486 0.84323 0.4036 0.0
C1113 C 0.99732 0.82322 0.37987 0.0
N1114 N 0.08787 0.84069 0.38733 0.0
N1115 N 0.01807 0.82173 0.37304 0.0
H1116 H 0.1872 0.17453 0.40611 0.0
H1117 H 0.18165 0.2656 0.32556 0.0
H1118 H 0.15355 0.14583 0.34544 0.0
H1119 H 0.18487 0.28442 0.38856 0.0
H1120 H 0.18051 0.22492 0.33233 0.0
H1121 H 0.19502 0.21818 0.39951 0.0
C1122 C 0.18161 0.17752 0.39139 0.0
C1123 C 0.16954 0.15663 0.37631 0.0
C1124 C 0.18167 0.23807 0.34466 0.0
C1125 C 0.17863 0.20623 0.36865 0.0
C1126 C 0.1825 0.26138 0.34084 0.0
C1127 C 0.18317 0.27836 0.35652 0.0
C1128 C 0.18182 0.23182 0.3643 0.0
C1129 C 0.18415 0.27179 0.37602 0.0
C1130 C 0.18599 0.2023 0.38767 0.0
C1131 C 0.16259 0.16139 0.35751 0.0
N1132 N 0.18338 0.24897 0.37937 0.0
N1133 N 0.1673 0.18572 0.35418 0.0
H1134 H 0.62423 0.5088 0.69536 0.0
H1135 H 0.77158 0.62796 0.72577 0.0
H1136 H 0.65834 0.53986 0.7557 0.0
H1137 H 0.73738 0.60435 0.66475 0.0
H1138 H 0.72931 0.59641 0.73651 0.0
H1139 H 0.66416 0.54429 0.68347 0.0
C1140 C 0.64001 0.52321 0.70611 0.0
C1141 C 0.63797 0.52125 0.72658 0.0
C1142 C 0.73088 0.59809 0.72076 0.0
C1143 C 0.68368 0.56183 0.71306 0.0
C1144 C 0.75516 0.6161 0.71455 0.0
C1145 C 0.7582 0.61873 0.69425 0.0
C1146 C 0.70926 0.58224 0.70664 0.0
C1147 C 0.73598 0.60293 0.68053 0.0
C1148 C 0.66275 0.54348 0.6993 0.0
C1149 C 0.65886 0.54066 0.73981 0.0
N1150 N 0.71244 0.58519 0.68697 0.0
N1151 N 0.68088 0.55994 0.73282 0.0
H1152 H 0.53015 0.16771 0.7329 0.0
H1153 H 0.37488 0.11182 0.71455 0.0
H1154 H 0.47317 0.08616 0.73783 0.0
H1155 H 0.43193 0.17686 0.68533 0.0
H1156 H 0.41057 0.10438 0.72717 0.0
H1157 H 0.49431 0.17355 0.71899 0.0
C1158 C 0.51023 0.15087 0.73086 0.0
C1159 C 0.50493 0.12628 0.73649 0.0
C1160 C 0.41518 0.1202 0.71793 0.0
C1161 C 0.46349 0.1333 0.72114 0.0
C1162 C 0.39488 0.12455 0.71081 0.0
C1163 C 0.40042 0.14497 0.69884 0.0
C1164 C 0.44126 0.13673 0.71337 0.0
C1165 C 0.42671 0.1608 0.69441 0.0
C1166 C 0.48971 0.15436 0.72304 0.0
C1167 C 0.47835 0.10558 0.73401 0.0
N1168 N 0.44617 0.15648 0.7018 0.0
N1169 N 0.45863 0.1096 0.72665 0.0
H1170 H 0.835 0.35529 0.71431 0.0
H1171 H 0.90753 0.27339 0.69993 0.0
H1172 H 0.91991 0.39088 0.72737 0.0
H1173 H 0.83169 0.25137 0.66874 0.0
H1174 H 0.91257 0.31589 0.71141 0.0
H1175 H 0.83329 0.31627 0.69892 0.0
C1176 C 0.85341 0.35515 0.71371 0.0
C1177 C 0.87771 0.37667 0.72206 0.0
C1178 C 0.89498 0.30182 0.70188 0.0
C1179 C 0.87565 0.33138 0.70486 0.0
C1180 C 0.89206 0.27756 0.69535 0.0
C1181 C 0.86906 0.25873 0.68346 0.0
C1182 C 0.8746 0.30706 0.69671 0.0
C1183 C 0.84971 0.26523 0.67792 0.0
C1184 C 0.85235 0.3327 0.70499 0.0
C1185 C 0.90069 0.37473 0.72134 0.0
N1186 N 0.8528 0.28873 0.68477 0.0
N1187 N 0.89908 0.3524 0.713 0.0
H1188 H 0.16245 0.95274 0.64848 0.0
H1189 H 0.30127 0.07886 0.6324 0.0
H1190 H 0.19509 0.96787 0.59191 0.0
H1191 H 0.25796 0.0748 0.6829 0.0
H1192 H 0.26575 0.03492 0.61942 0.0
H1193 H 0.20043 0.9944 0.66321 0.0
C1194 C 0.17757 0.96473 0.63914 0.0
C1195 C 0.17539 0.95669 0.61885 0.0
C1196 C 0.26408 0.04361 0.63339 0.0
C1197 C 0.21916 0.00425 0.63577 0.0
C1198 C 0.28442 0.06867 0.64087 0.0
C1199 C 0.28257 0.08063 0.65875 0.0
C1200 C 0.2418 0.03025 0.64392 0.0
C1201 C 0.26017 0.06643 0.669 0.0
C1202 C 0.19929 0.98847 0.6476 0.0
C1203 C 0.19597 0.97291 0.60764 0.0
N1204 N 0.24065 0.042 0.66143 0.0
N1205 N 0.2169 0.99589 0.61623 0.0
H1206 H 0.05379 0.20954 0.64166 0.0
H1207 H 0.91579 0.20689 0.62229 0.0
H1208 H 0.02296 0.21657 0.58438 0.0
H1209 H 0.94192 0.19024 0.67764 0.0
H1210 H 0.95653 0.2139 0.60892 0.0
H1211 H 0.0146 0.20578 0.65578 0.0
C1212 C 0.03881 0.21032 0.63204 0.0
C1213 C 0.04173 0.21329 0.61175 0.0
C1214 C 0.95341 0.2088 0.62401 0.0
C1215 C 0.99677 0.2092 0.62791 0.0
C1216 C 0.93014 0.20485 0.63171 0.0
C1217 C 0.92534 0.19795 0.65117 0.0
C1218 C 0.97217 0.20594 0.63584 0.0
C1219 C 0.94468 0.19547 0.66256 0.0
C1220 C 0.01645 0.20825 0.64014 0.0
C1221 C 0.02181 0.21463 0.60012 0.0
N1222 N 0.9672 0.19945 0.65473 0.0
N1223 N 1.00018 0.21248 0.60835 0.0
H1224 H 0.76718 0.79881 0.60362 0.0
H1225 H 0.80135 0.73811 0.69549 0.0
H1226 H 0.7721 0.82765 0.66463 0.0
H1227 H 0.80532 0.7187 0.63383 0.0
H1228 H 0.78365 0.76604 0.68503 0.0
H1229 H 0.77252 0.76333 0.61506 0.0
C1230 C 0.76876 0.79737 0.61944 0.0
C1231 C 0.76951 0.81648 0.63318 0.0
C1232 C 0.78828 0.75549 0.67385 0.0
C1233 C 0.77658 0.77624 0.64643 0.0
C1234 C 0.7984 0.73962 0.67981 0.0
C1235 C 0.8052 0.72639 0.66554 0.0
C1236 C 0.78476 0.75784 0.65352 0.0
C1237 C 0.8008 0.72886 0.64541 0.0
C1238 C 0.77215 0.77723 0.62599 0.0
C1239 C 0.77199 0.81366 0.65352 0.0
N1240 N 0.79098 0.74431 0.64004 0.0
N1241 N 0.77581 0.79413 0.65956 0.0
H1242 H 0.01476 0.82018 0.60703 0.0
H1243 H 0.91415 0.76308 0.69067 0.0
H1244 H 0.00895 0.86755 0.65514 0.0
H1245 H 0.90823 0.71612 0.63726 0.0
H1246 H 0.95332 0.80017 0.67999 0.0
H1247 H 0.98013 0.78057 0.62001 0.0
C1248 C 0.00639 0.82219 0.62042 0.0
C1249 C 0.01447 0.84715 0.62991 0.0
C1250 C 0.94357 0.78173 0.67063 0.0
C1251 C 0.97506 0.80216 0.6448 0.0
C1252 C 0.92116 0.76046 0.67675 0.0
C1253 C 0.90767 0.73642 0.66479 0.0
C1254 C 0.9527 0.77909 0.6524 0.0
C1255 C 0.91791 0.73429 0.64694 0.0
C1256 C 0.98657 0.79965 0.62776 0.0
C1257 C 1.00297 0.84871 0.64718 0.0
N1258 N 0.93973 0.75541 0.64122 0.0
N1259 N 0.98384 0.82658 0.65401 0.0
H1260 H 0.15815 0.13913 0.59302 0.0
H1261 H 0.27346 0.18847 0.68107 0.0
H1262 H 0.16794 0.19405 0.64203 0.0
H1263 H 0.27472 0.15264 0.62408 0.0
H1264 H 0.23485 0.19064 0.66757 0.0
H1265 H 0.20095 0.1439 0.60438 0.0
C1266 C 0.16955 0.15244 0.60607 0.0
C1267 C 0.15957 0.16619 0.61664 0.0
C1268 C 0.24376 0.18252 0.658 0.0
C1269 C 0.20836 0.17143 0.62999 0.0
C1270 C 0.26574 0.18117 0.66572 0.0
C1271 C 0.2773 0.17018 0.65376 0.0
C1272 C 0.23305 0.17251 0.63827 0.0
C1273 C 0.26647 0.16118 0.63393 0.0
C1274 C 0.19396 0.15518 0.61256 0.0
C1275 C 0.17508 0.18323 0.63344 0.0
N1276 N 0.24487 0.16233 0.62689 0.0
N1277 N 0.19858 0.18511 0.63977 0.0
H1278 H 0.84542 0.99129 0.68511 0.0
H1279 H 0.82926 0.09972 0.63211 0.0
H1280 H 0.81676 0.98061 0.62328 0.0
H1281 H 0.83609 0.09907 0.69582 0.0
H1282 H 0.82481 0.05626 0.62837 0.0
H1283 H 0.84256 0.03116 0.68928 0.0
C1284 C 0.83844 0.99735 0.67243 0.0
C1285 C 0.83149 0.98282 0.6538 0.0
C1286 C 0.82702 0.06553 0.64315 0.0
C1287 C 0.82822 0.02836 0.65841 0.0
C1288 C 0.82963 0.09037 0.64531 0.0
C1289 C 0.83323 0.10311 0.66431 0.0
C1290 C 0.82837 0.05353 0.66012 0.0
C1291 C 0.8334 0.09 0.68089 0.0
C1292 C 0.83667 0.02 0.67483 0.0
C1293 C 0.82224 0.99127 0.6379 0.0
N1294 N 0.8313 0.06603 0.6784 0.0
N1295 N 0.82114 0.01368 0.64052 0.0
H1296 H 0.52184 0.35079 0.67686 0.0
H1297 H 0.40226 0.23658 0.72442 0.0
H1298 H 0.51244 0.3566 0.73923 0.0
H1299 H 0.39995 0.24765 0.66207 0.0
H1300 H 0.44253 0.27994 0.7307 0.0
H1301 H 0.47724 0.31226 0.67138 0.0
C1302 C 0.51021 0.34397 0.68937 0.0
C1303 C 0.52072 0.35669 0.70851 0.0
C1304 C 0.43296 0.27296 0.7157 0.0
C1305 C 0.46988 0.31249 0.70247 0.0
C1306 C 0.41002 0.24821 0.7121 0.0
C1307 C 0.39783 0.23836 0.69266 0.0
C1308 C 0.44392 0.28771 0.69972 0.0
C1309 C 0.4087 0.25433 0.67728 0.0
C1310 C 0.48476 0.32208 0.68625 0.0
C1311 C 0.50489 0.34727 0.72424 0.0
N1312 N 0.43128 0.27804 0.68111 0.0
N1313 N 0.48032 0.32545 0.72093 0.0
H1314 H 0.64389 0.13888 0.70297 0.0
H1315 H 0.79611 0.17772 0.72466 0.0
H1316 H 0.69327 0.18048 0.75722 0.0
H1317 H 0.75374 0.14985 0.6661 0.0
H1318 H 0.75592 0.17183 0.73785 0.0
H1319 H 0.68098 0.13548 0.69046 0.0
C1320 C 0.66233 0.14669 0.7124 0.0
C1321 C 0.66563 0.15993 0.73114 0.0
C1322 C 0.75529 0.16688 0.72212 0.0
C1323 C 0.70802 0.15647 0.71696 0.0
C1324 C 0.77834 0.17028 0.71451 0.0
C1325 C 0.77853 0.16458 0.69412 0.0
C1326 C 0.732 0.15773 0.70934 0.0
C1327 C 0.75462 0.15467 0.68188 0.0
C1328 C 0.68353 0.14499 0.70521 0.0
C1329 C 0.68998 0.17011 0.7427 0.0
N1330 N 0.73235 0.15172 0.68965 0.0
N1331 N 0.71023 0.16828 0.7354 0.0
H1332 H 0.81676 0.48095 0.68087 0.0
H1333 H 0.86392 0.62842 0.72123 0.0
H1334 H 0.85647 0.51402 0.73964 0.0
H1335 H 0.83693 0.59624 0.66005 0.0
H1336 H 0.86443 0.58835 0.72835 0.0
H1337 H 0.82642 0.52435 0.67295 0.0
C1338 C 0.82759 0.49747 0.6921 0.0
C1339 C 0.83556 0.49395 0.71099 0.0
C1340 C 0.85876 0.59029 0.71333 0.0
C1341 C 0.8467 0.54381 0.70211 0.0
C1342 C 0.85855 0.61317 0.70925 0.0
C1343 C 0.85 0.61549 0.69008 0.0
C1344 C 0.85031 0.56975 0.69813 0.0
C1345 C 0.84322 0.59514 0.67513 0.0
C1346 C 0.83325 0.52229 0.68756 0.0
C1347 C 0.84994 0.51603 0.72491 0.0
N1348 N 0.84328 0.57309 0.67951 0.0
N1349 N 0.85479 0.54006 0.72028 0.0
H1350 H 0.47648 0.91969 0.2337 0.0
H1351 H 0.44291 0.97616 0.13855 0.0
H1352 H 0.39742 0.90263 0.21382 0.0
H1353 H 0.51689 0.9773 0.15012 0.0
H1354 H 0.42734 0.95323 0.16818 0.0
H1355 H 0.49293 0.94446 0.205 0.0
C1356 C 0.46255 0.92109 0.22333 0.0
C1357 C 0.43548 0.90901 0.2263 0.0
C1358 C 0.44699 0.95851 0.16425 0.0
C1359 C 0.45432 0.9377 0.1935 0.0
C1360 C 0.45596 0.97176 0.14741 0.0
C1361 C 0.48124 0.97864 0.14184 0.0
C1362 C 0.46349 0.95227 0.17574 0.0
C1363 C 0.49716 0.97212 0.15375 0.0
C1364 C 0.47199 0.93533 0.20698 0.0
C1365 C 0.4185 0.91193 0.21245 0.0
N1366 N 0.48805 0.95936 0.17016 0.0
N1367 N 0.4282 0.92595 0.1967 0.0
H1368 H 0.13357 0.57026 0.23292 0.0
H1369 H 1.00046 0.47671 0.16204 0.0
H1370 H 0.06458 0.50438 0.2523 0.0
H1371 H 0.06687 0.54628 0.14393 0.0
H1372 H 0.02283 0.48774 0.19561 0.0
H1373 H 0.10869 0.56318 0.20078 0.0
C1374 C 0.11307 0.55452 0.23052 0.0
C1375 C 0.1012 0.53781 0.24532 0.0
C1376 C 0.03246 0.50068 0.18433 0.0
C1377 C 0.07272 0.52929 0.20838 0.0
C1378 C 0.01962 0.49447 0.16515 0.0
C1379 C 0.03182 0.51053 0.15007 0.0
C1380 C 0.05778 0.52308 0.1885 0.0
C1381 C 0.05689 0.53308 0.15498 0.0
C1382 C 0.09893 0.55038 0.2121 0.0
C1383 C 0.07468 0.51748 0.24122 0.0
N1384 N 0.06908 0.53861 0.17373 0.0
N1385 N 0.06141 0.51371 0.22312 0.0
H1386 H 0.43654 0.5478 0.21236 0.0
H1387 H 0.53067 0.50843 0.15632 0.0
H1388 H 0.50201 0.54455 0.24198 0.0
H1389 H 0.47577 0.52684 0.12615 0.0
H1390 H 0.51523 0.51426 0.18792 0.0
H1391 H 0.44505 0.53209 0.18092 0.0
C1392 C 0.45236 0.54325 0.21232 0.0
C1393 C 0.46871 0.54765 0.22978 0.0
C1394 C 0.50643 0.51683 0.17437 0.0
C1395 C 0.4788 0.53004 0.19383 0.0
C1396 C 0.51533 0.51364 0.15629 0.0
C1397 C 0.50477 0.51745 0.13847 0.0
C1398 C 0.48673 0.52382 0.17472 0.0
C1399 C 0.48443 0.52353 0.13942 0.0
C1400 C 0.45736 0.53452 0.19434 0.0
C1401 C 0.48913 0.54174 0.22881 0.0
N1402 N 0.47623 0.52671 0.15723 0.0
N1403 N 0.4937 0.53341 0.21113 0.0
H1404 H 0.94728 0.45136 0.76889 0.0
H1405 H 0.94135 0.4744 0.88491 0.0
H1406 H 0.87869 0.44593 0.79401 0.0
H1407 H 0.01481 0.49844 0.85869 0.0
H1408 H 0.91811 0.46393 0.85173 0.0
H1409 H 0.97247 0.46835 0.80164 0.0
C1410 C 0.9376 0.45391 0.78129 0.0
C1411 C 0.91088 0.44721 0.77877 0.0
C1412 C 0.93935 0.47168 0.85324 0.0
C1413 C 0.93944 0.46645 0.81623 0.0
C1414 C 0.95271 0.47783 0.87222 0.0
C1415 C 0.98014 0.48725 0.87468 0.0
C1416 C 0.95341 0.4747 0.83654 0.0
C1417 C 0.99359 0.49076 0.85756 0.0
C1418 C 0.95199 0.46369 0.79994 0.0
C1419 C 0.89932 0.45107 0.79527 0.0
N1420 N 0.98007 0.4843 0.83923 0.0
N1421 N 0.9136 0.46021 0.81334 0.0
H1422 H 0.57822 0.45107 0.792 0.0
H1423 H 0.51303 0.52184 0.8517 0.0
H1424 H 0.56732 0.5122 0.76941 0.0
H1425 H 0.54019 0.47365 0.87832 0.0
H1426 H 0.5297 0.51619 0.82064 0.0
H1427 H 0.56075 0.45634 0.82277 0.0
C1428 C 0.57196 0.46548 0.79346 0.0
C1429 C 0.57416 0.48117 0.77807 0.0
C1430 C 0.53199 0.50686 0.83329 0.0
C1431 C 0.55429 0.48744 0.81337 0.0
C1432 C 0.52259 0.51017 0.8511 0.0
C1433 C 0.52518 0.49824 0.86778 0.0
C1434 C 0.54395 0.49135 0.83203 0.0
C1435 C 0.53731 0.48291 0.86586 0.0
C1436 C 0.56216 0.4686 0.81109 0.0
C1437 C 0.56614 0.49983 0.78094 0.0
N1438 N 0.5462 0.47991 0.84834 0.0
N1439 N 0.55648 0.50239 0.79821 0.0
H1440 H 0.50069 0.05516 0.77387 0.0
H1441 H 0.54214 0.05421 0.88849 0.0
H1442 H 0.57291 0.1169 0.80646 0.0
H1443 H 0.46836 0.99445 0.85633 0.0
H1444 H 0.5549 0.0763 0.85824 0.0
H1445 H 0.48998 0.03126 0.80338 0.0
C1446 C 0.51437 0.06365 0.78721 0.0
C1447 C 0.53769 0.08817 0.78767 0.0
C1448 C 0.53594 0.05832 0.85778 0.0
C1449 C 0.52552 0.06084 0.82162 0.0
C1450 C 0.52854 0.04576 0.87511 0.0
C1451 C 0.50404 0.02243 0.87506 0.0
C1452 C 0.51875 0.04754 0.84019 0.0
C1453 C 0.48754 0.01221 0.8571 0.0
C1454 C 0.50826 0.04996 0.80407 0.0
C1455 C 0.55485 0.09798 0.80532 0.0
N1456 N 0.49515 0.02485 0.84046 0.0
N1457 N 0.54833 0.08438 0.82161 0.0
H1458 H 0.10994 0.28022 0.57397 0.0
H1459 H 0.15154 0.278 0.46344 0.0
H1460 H 0.10926 0.21378 0.54324 0.0
H1461 H 0.14973 0.34383 0.49279 0.0
H1462 H 0.13719 0.25476 0.49298 0.0
H1463 H 0.12578 0.30445 0.54491 0.0
C1464 C 0.11313 0.27071 0.56114 0.0
C1465 C 0.10827 0.24488 0.56113 0.0
C1466 C 0.13995 0.2743 0.49299 0.0
C1467 C 0.12655 0.2726 0.52779 0.0
C1468 C 0.14799 0.28755 0.47605 0.0
C1469 C 0.15176 0.31292 0.47553 0.0
C1470 C 0.13558 0.28643 0.50965 0.0
C1471 C 0.14735 0.32443 0.49254 0.0
C1472 C 0.12227 0.2846 0.54457 0.0
C1473 C 0.11309 0.23375 0.54412 0.0
N1474 N 0.13944 0.31109 0.50886 0.0
N1475 N 0.12187 0.24762 0.52817 0.0
H1476 H 0.70948 0.83302 0.58714 0.0
H1477 H 0.73252 0.86486 0.47479 0.0
H1478 H 0.78515 0.88975 0.56885 0.0
H1479 H 0.65454 0.82369 0.49538 0.0
H1480 H 0.75219 0.87328 0.50903 0.0
H1481 H 0.6889 0.82824 0.55349 0.0
C1482 C 0.72171 0.84458 0.57606 0.0
C1483 C 0.74904 0.86181 0.58078 0.0
C1484 C 0.73077 0.86251 0.50606 0.0
C1485 C 0.72574 0.85632 0.54226 0.0
C1486 C 0.71947 0.85779 0.48649 0.0
C1487 C 0.69175 0.84349 0.48208 0.0
C1488 C 0.7143 0.85269 0.52142 0.0
C1489 C 0.67599 0.8344 0.49795 0.0
C1490 C 0.70996 0.84191 0.55689 0.0
C1491 C 0.76396 0.87645 0.56591 0.0
N1492 N 0.68748 0.83904 0.51687 0.0
N1493 N 0.75216 0.8732 0.54728 0.0
H1494 H 0.16587 0.87804 0.57823 0.0
H1495 H 0.13718 0.85811 0.46032 0.0
H1496 H 0.10222 0.88278 0.54697 0.0
H1497 H 0.19313 0.84206 0.49173 0.0
H1498 H 0.12206 0.8642 0.49193 0.0
H1499 H 0.17427 0.86201 0.54693 0.0
C1500 C 0.15347 0.87541 0.5648 0.0
C1501 C 0.13342 0.8819 0.56519 0.0
C1502 C 0.13748 0.85911 0.49191 0.0
C1503 C 0.14304 0.86378 0.52927 0.0
C1504 C 0.14605 0.85545 0.47381 0.0
C1505 C 0.16665 0.84972 0.47328 0.0
C1506 C 0.14969 0.85724 0.50971 0.0
C1507 C 0.17759 0.84699 0.49138 0.0
C1508 C 0.15823 0.86622 0.54695 0.0
C1509 C 0.11776 0.87786 0.54739 0.0
N1510 N 0.16915 0.85099 0.50884 0.0
N1511 N 0.12312 0.86937 0.53013 0.0
H1512 H 0.62379 0.79774 0.09936 0.0
H1513 H 0.60837 0.8021 0.21518 0.0
H1514 H 0.54987 0.77765 0.12338 0.0
H1515 H 0.68466 0.83915 0.19166 0.0
H1516 H 0.58677 0.79348 0.18159 0.0
H1517 H 0.6468 0.81375 0.13288 0.0
C1518 C 0.61249 0.797 0.11168 0.0
C1519 C 0.58489 0.78628 0.10863 0.0
C1520 C 0.60825 0.80366 0.18378 0.0
C1521 C 0.61095 0.80424 0.14697 0.0
C1522 C 0.62065 0.80871 0.20301 0.0
C1523 C 0.64845 0.82137 0.20634 0.0
C1524 C 0.62368 0.81105 0.16766 0.0
C1525 C 0.66318 0.82893 0.18983 0.0
C1526 C 0.62561 0.80616 0.13079 0.0
C1527 C 0.57119 0.78594 0.12506 0.0
N1528 N 0.65061 0.82352 0.17121 0.0
N1529 N 0.58432 0.79449 0.14355 0.0
H1530 H 0.23604 0.84065 0.10574 0.0
H1531 H 0.19903 0.79869 0.21503 0.0
H1532 H 0.24729 0.78192 0.13253 0.0
H1533 H 0.19138 0.86056 0.19024 0.0
H1534 H 0.21578 0.79174 0.18449 0.0
H1535 H 0.2188 0.8478 0.13614 0.0
C1536 C 0.23495 0.8293 0.11801 0.0
C1537 C 0.24304 0.81056 0.1165 0.0
C1538 C 0.21043 0.80684 0.18569 0.0
C1539 C 0.22313 0.81852 0.1513 0.0
C1540 C 0.20098 0.81093 0.2032 0.0
C1541 C 0.19386 0.83034 0.2053 0.0
C1542 C 0.21282 0.82224 0.17004 0.0
C1543 C 0.19635 0.8452 0.18925 0.0
C1544 C 0.22499 0.83331 0.13533 0.0
C1545 C 0.24088 0.79624 0.13283 0.0
N1546 N 0.20567 0.84088 0.17233 0.0
N1547 N 0.23117 0.80053 0.1495 0.0
H1548 H 0.23161 0.41044 0.11807 0.0
H1549 H 0.15641 0.38583 0.21697 0.0
H1550 H 0.18262 0.44317 0.13319 0.0
H1551 H 0.19867 0.34632 0.20003 0.0
H1552 H 0.16824 0.40895 0.18718 0.0
H1553 H 0.22233 0.38883 0.1489 0.0
C1554 C 0.21902 0.41317 0.12791 0.0
C1555 C 0.20763 0.42838 0.12293 0.0
C1556 C 0.17496 0.39524 0.18995 0.0
C1557 C 0.19691 0.40375 0.15815 0.0
C1558 C 0.16832 0.38212 0.20705 0.0
C1559 C 0.17653 0.36406 0.21106 0.0
C1560 C 0.19002 0.39041 0.17668 0.0
C1561 C 0.19161 0.35981 0.19744 0.0
C1562 C 0.21362 0.40074 0.14544 0.0
C1563 C 0.19141 0.43121 0.13621 0.0
N1564 N 0.1979 0.37289 0.18089 0.0
N1565 N 0.18653 0.41902 0.15314 0.0
H1566 H 0.78001 0.61468 0.90871 0.0
H1567 H 0.83102 0.61718 0.8011 0.0
H1568 H 0.78325 0.54992 0.87884 0.0
H1569 H 0.81831 0.67785 0.82739 0.0
H1570 H 0.81665 0.59375 0.83058 0.0
H1571 H 0.79712 0.6396 0.88019 0.0
C1572 C 0.78431 0.60568 0.89619 0.0
C1573 C 0.78012 0.58009 0.89624 0.0
C1574 C 0.81706 0.61223 0.82993 0.0
C1575 C 0.79997 0.60867 0.86355 0.0
C1576 C 0.82515 0.62558 0.81303 0.0
C1577 C 0.82579 0.64953 0.81165 0.0
C1578 C 0.80956 0.62285 0.84566 0.0
C1579 C 0.81844 0.65963 0.82783 0.0
C1580 C 0.79419 0.61998 0.87992 0.0
C1581 C 0.78649 0.56967 0.87966 0.0
N1582 N 0.81058 0.64622 0.84411 0.0
N1583 N 0.796 0.58395 0.86401 0.0
H1584 H 0.39544 0.17404 0.91893 0.0
H1585 H 0.40741 0.20399 0.80569 0.0
H1586 H 0.46784 0.23258 0.89757 0.0
H1587 H 0.33204 0.16148 0.82999 0.0
H1588 H 0.42996 0.21386 0.83909 0.0
H1589 H 0.3718 0.16814 0.88631 0.0
C1590 C 0.4063 0.18575 0.90739 0.0
C1591 C 0.43363 0.20379 0.91092 0.0
C1592 C 0.40847 0.2025 0.83712 0.0
C1593 C 0.40683 0.19704 0.87358 0.0
C1594 C 0.39553 0.19694 0.81803 0.0
C1595 C 0.36769 0.18182 0.81492 0.0
C1596 C 0.39357 0.19267 0.85328 0.0
C1597 C 0.35351 0.1728 0.83156 0.0
C1598 C 0.39281 0.18245 0.88882 0.0
C1599 C 0.44673 0.21862 0.89552 0.0
N1600 N 0.36661 0.17824 0.84998 0.0
N1601 N 0.43326 0.21474 0.87747 0.0
H1602 H 0.76568 0.20795 0.88149 0.0
H1603 H 0.87805 0.19982 0.82555 0.0
H1604 H 0.8379 0.21836 0.91163 0.0
H1605 H 0.80082 0.17713 0.7966 0.0
H1606 H 0.86267 0.20437 0.85741 0.0
H1607 H 0.77675 0.19381 0.8507 0.0
C1608 C 0.7836 0.20677 0.88177 0.0
C1609 C 0.80099 0.21461 0.89921 0.0
C1610 C 0.849 0.19819 0.84412 0.0
C1611 C 0.81412 0.19901 0.86379 0.0
C1612 C 0.85774 0.19544 0.82586 0.0
C1613 C 0.8408 0.18819 0.80823 0.0
C1614 C 0.82316 0.19388 0.84484 0.0
C1615 C 0.81481 0.18326 0.80969 0.0
C1616 C 0.79003 0.19889 0.8641 0.0
C1617 C 0.82413 0.213 0.89849 0.0
N1618 N 0.80687 0.18638 0.82763 0.0
N1619 N 0.83015 0.20567 0.88105 0.0
H1620 H 0.29213 0.13209 0.43426 0.0
H1621 H 0.2789 0.14171 0.55016 0.0
H1622 H 0.21945 0.11587 0.45871 0.0
H1623 H 0.35449 0.17273 0.52588 0.0
H1624 H 0.25716 0.13381 0.51672 0.0
H1625 H 0.31584 0.1488 0.4675 0.0
C1626 C 0.28125 0.13234 0.44661 0.0
C1627 C 0.25378 0.12246 0.44377 0.0
C1628 C 0.27853 0.14255 0.5187 0.0
C1629 C 0.28064 0.14129 0.4818 0.0
C1630 C 0.29102 0.1472 0.53785 0.0
C1631 C 0.31862 0.15782 0.54091 0.0
C1632 C 0.29365 0.14829 0.5024 0.0
C1633 C 0.33312 0.16404 0.52424 0.0
C1634 C 0.29477 0.14191 0.46555 0.0
C1635 C 0.24066 0.12346 0.46022 0.0
N1636 N 0.32045 0.159 0.50571 0.0
N1637 N 0.25415 0.13239 0.47857 0.0
H1638 H 0.91782 0.18117 0.44373 0.0
H1639 H 0.86758 0.12824 0.54824 0.0
H1640 H 0.91556 0.11269 0.46503 0.0
H1641 H 0.86586 0.19456 0.52625 0.0
H1642 H 0.88618 0.12303 0.51812 0.0
H1643 H 0.90001 0.18731 0.47415 0.0
C1644 C 0.9137 0.1675 0.45483 0.0
C1645 C 0.91809 0.1463 0.45175 0.0
C1646 C 0.88173 0.13873 0.51985 0.0
C1647 C 0.89752 0.15311 0.48656 0.0
C1648 C 0.87123 0.1418 0.53712 0.0
C1649 C 0.86516 0.16191 0.53984 0.0
C1650 C 0.88634 0.15591 0.50512 0.0
C1651 C 0.86994 0.17861 0.52472 0.0
C1652 C 0.90339 0.17093 0.47215 0.0
C1653 C 0.91212 0.12906 0.46659 0.0
N1654 N 0.88029 0.17527 0.50805 0.0
N1655 N 0.90218 0.13285 0.48331 0.0
H1656 H 0.89677 0.75043 0.45241 0.0
H1657 H 0.83142 0.73147 0.5555 0.0
H1658 H 0.85225 0.78681 0.47097 0.0
H1659 H 0.86275 0.68356 0.5333 0.0
H1660 H 0.8427 0.75467 0.52575 0.0
H1661 H 0.88823 0.72838 0.48308 0.0
C1662 C 0.88529 0.75383 0.46296 0.0
C1663 C 0.87494 0.77023 0.45904 0.0
C1664 C 0.84715 0.7391 0.52735 0.0
C1665 C 0.8652 0.74525 0.49407 0.0
C1666 C 0.84087 0.72595 0.54442 0.0
C1667 C 0.84616 0.70553 0.54694 0.0
C1668 C 0.85897 0.73195 0.51261 0.0
C1669 C 0.85807 0.69899 0.53189 0.0
C1670 C 0.88033 0.74118 0.48039 0.0
C1671 C 0.86018 0.77395 0.4732 0.0
N1672 N 0.86412 0.71218 0.51538 0.0
N1673 N 0.85579 0.7616 0.49003 0.0
loop_
_geom_bond_atom_site_label_1
_geom_bond_atom_site_label_2
_geom_bond_distance
_geom_bond_site_symmetry_2
_ccdc_geom_bond_type
H0 C1 0.949 . S
C1 H0 0.949 . S
C1 C2 1.395 . S
C1 C3 1.391 . S
C2 C1 1.395 . S
C2 C5 1.390 . S
C3 C1 1.391 . S
C3 C7 1.387 . S
C3 C8 1.491 . S
H4 C5 0.950 . S
C5 C2 1.390 . S
C5 H4 0.950 . S
C5 C6 1.378 . S
C6 C5 1.378 . S
C6 C7 1.409 . S
C7 C3 1.387 . S
C7 C6 1.409 . S
C7 H9 0.951 . S
C8 C3 1.491 . S
C8 C10 1.382 . S
C8 C12 1.404 . S
H9 C7 0.951 . S
C10 C8 1.382 . S
C10 C11 1.390 . S
C10 H15 0.949 . S
C11 C10 1.390 . S
C11 C16 1.399 . S
C12 C8 1.404 . S
C12 H13 0.950 . S
C12 C14 1.375 . S
H13 C12 0.950 . S
C14 C12 1.375 . S
C14 C16 1.382 . S
C14 H18 0.950 . S
H15 C10 0.949 . S
C16 C11 1.399 . S
C16 C14 1.382 . S
C16 H17 0.952 . S
H17 C16 0.952 . S
H18 C14 0.950 . S
H19 C20 0.949 . S
C20 H19 0.949 . S
C20 C21 1.395 . S
C20 C22 1.391 . S
C21 C20 1.395 . S
C21 C24 1.390 . S
C22 C20 1.391 . S
C22 C26 1.387 . S
C22 C27 1.491 . S
H23 C24 0.950 . S
C24 C21 1.390 . S
C24 H23 0.950 . S
C24 C25 1.378 . S
C25 C24 1.378 . S
C25 C26 1.409 . S
C26 C22 1.387 . S
C26 C25 1.409 . S
C26 H28 0.951 . S
C27 C22 1.491 . S
C27 C29 1.382 . S
C27 C31 1.404 . S
H28 C26 0.951 . S
C29 C27 1.382 . S
C29 C30 1.390 . S
C29 H34 0.949 . S
C30 C29 1.390 . S
C30 C35 1.399 . S
C31 C27 1.404 . S
C31 H32 0.950 . S
C31 C33 1.375 . S
H32 C31 0.950 . S
C33 C31 1.375 . S
C33 C35 1.382 . S
C33 H37 0.950 . S
H34 C29 0.949 . S
C35 C30 1.399 . S
C35 C33 1.382 . S
C35 H36 0.952 . S
H36 C35 0.952 . S
H37 C33 0.950 . S
H38 C39 0.949 . S
C39 H38 0.949 . S
C39 C40 1.395 . S
C39 C41 1.391 . S
C40 C39 1.395 . S
C40 C43 1.390 . S
C41 C39 1.391 . S
C41 C45 1.387 . S
C41 C46 1.491 . S
H42 C43 0.950 . S
C43 C40 1.390 . S
C43 H42 0.950 . S
C43 C44 1.378 . S
C44 C43 1.378 . S
C44 C45 1.409 . S
C45 C41 1.387 . S
C45 C44 1.409 . S
C45 H47 0.951 . S
C46 C41 1.491 . S
C46 C48 1.382 . S
C46 C50 1.404 . S
H47 C45 0.951 . S
C48 C46 1.382 . S
C48 C49 1.390 . S
C48 H53 0.949 . S
C49 C48 1.390 . S
C49 C54 1.399 . S
C50 C46 1.404 . S
C50 H51 0.950 . S
C50 C52 1.375 . S
H51 C50 0.950 . S
C52 C50 1.375 . S
C52 C54 1.382 . S
C52 H56 0.950 . S
H53 C48 0.949 . S
C54 C49 1.399 . S
C54 C52 1.382 . S
C54 H55 0.952 1_655 S
H55 C54 0.952 1_455 S
H56 C52 0.950 . S
H57 C58 0.949 . S
C58 H57 0.949 . S
C58 C59 1.395 . S
C58 C60 1.391 . S
C59 C58 1.395 . S
C59 C62 1.390 . S
C60 C58 1.391 . S
C60 C64 1.387 . S
C60 C65 1.491 . S
H61 C62 0.950 . S
C62 C59 1.390 . S
C62 H61 0.950 . S
C62 C63 1.378 . S
C63 C62 1.378 . S
C63 C64 1.409 . S
C64 C60 1.387 . S
C64 C63 1.409 . S
C64 H66 0.951 . S
C65 C60 1.491 . S
C65 C67 1.382 . S
C65 C69 1.404 . S
H66 C64 0.951 . S
C67 C65 1.382 . S
C67 C68 1.390 . S
C67 H72 0.949 . S
C68 C67 1.390 . S
C68 C73 1.399 . S
C69 C65 1.404 . S
C69 H70 0.950 . S
C69 C71 1.375 . S
H70 C69 0.950 . S
C71 C69 1.375 . S
C71 C73 1.382 . S
C71 H75 0.950 . S
H72 C67 0.949 . S
C73 C68 1.399 . S
C73 C71 1.382 . S
C73 H74 0.952 . S
H74 C73 0.952 . S
H75 C71 0.950 . S
H76 C77 0.949 . S
C77 H76 0.949 . S
C77 C78 1.395 . S
C77 C79 1.391 . S
C78 C77 1.395 . S
C78 C81 1.390 . S
C79 C77 1.391 . S
C79 C83 1.387 . S
C79 C84 1.491 . S
H80 C81 0.950 . S
C81 C78 1.390 . S
C81 H80 0.950 . S
C81 C82 1.378 . S
C82 C81 1.378 . S
C82 C83 1.409 . S
C83 C79 1.387 . S
C83 C82 1.409 . S
C83 H85 0.951 . S
C84 C79 1.491 . S
C84 C86 1.382 . S
C84 C88 1.404 . S
H85 C83 0.951 . S
C86 C84 1.382 . S
C86 C87 1.390 . S
C86 H91 0.949 . S
C87 C86 1.390 . S
C87 C92 1.399 . S
C88 C84 1.404 . S
C88 H89 0.950 . S
C88 C90 1.375 . S
H89 C88 0.950 . S
C90 C88 1.375 . S
C90 C92 1.382 . S
C90 H94 0.950 . S
H91 C86 0.949 . S
C92 C87 1.399 . S
C92 C90 1.382 . S
C92 H93 0.952 . S
H93 C92 0.952 . S
H94 C90 0.950 . S
H95 C96 0.949 . S
C96 H95 0.949 . S
C96 C97 1.395 . S
C96 C98 1.391 . S
C97 C96 1.395 . S
C97 C100 1.390 . S
C98 C96 1.391 . S
C98 C102 1.387 . S
C98 C103 1.491 . S
H99 C100 0.950 . S
C100 C97 1.390 . S
C100 H99 0.950 . S
C100 C101 1.378 . S
C101 C100 1.378 . S
C101 C102 1.409 . S
C102 C98 1.387 . S
C102 C101 1.409 . S
C102 H104 0.951 . S
C103 C98 1.491 . S
C103 C105 1.382 . S
C103 C107 1.404 . S
H104 C102 0.951 . S
C105 C103 1.382 . S
C105 C106 1.390 . S
C105 H110 0.949 . S
C106 C105 1.390 . S
C106 C111 1.399 . S
C107 C103 1.404 . S
C107 H108 0.950 . S
C107 C109 1.375 . S
H108 C107 0.950 . S
C109 C107 1.375 . S
C109 C111 1.382 . S
C109 H113 0.950 . S
H110 C105 0.949 . S
C111 C106 1.399 . S
C111 C109 1.382 . S
C111 H112 0.952 . S
H112 C111 0.952 . S
H113 C109 0.950 . S
H114 C115 0.949 . S
C115 H114 0.949 . S
C115 C116 1.395 . S
C115 C117 1.391 . S
C116 C115 1.395 . S
C116 C119 1.390 . S
C117 C115 1.391 . S
C117 C121 1.387 . S
C117 C122 1.491 . S
H118 C119 0.950 . S
C119 C116 1.390 . S
C119 H118 0.950 . S
C119 C120 1.378 . S
C120 C119 1.378 . S
C120 C121 1.409 . S
C121 C117 1.387 . S
C121 C120 1.409 . S
C121 H123 0.951 . S
C122 C117 1.491 . S
C122 C124 1.382 . S
C122 C126 1.404 . S
H123 C121 0.951 . S
C124 C122 1.382 . S
C124 C125 1.390 . S
C124 H129 0.949 . S
C125 C124 1.390 . S
C125 C130 1.399 . S
C126 C122 1.404 . S
C126 H127 0.950 . S
C126 C128 1.375 . S
H127 C126 0.950 . S
C128 C126 1.375 . S
C128 C130 1.382 . S
C128 H132 0.950 . S
H129 C124 0.949 . S
C130 C125 1.399 . S
C130 C128 1.382 . S
C130 H131 0.952 . S
H131 C130 0.952 . S
H132 C128 0.950 . S
H133 C134 0.949 . S
C134 H133 0.949 . S
C134 C135 1.395 . S
C134 C136 1.391 . S
C135 C134 1.395 . S
C135 C138 1.390 . S
C136 C134 1.391 . S
C136 C140 1.387 . S
C136 C141 1.491 . S
H137 C138 0.950 . S
C138 C135 1.390 . S
C138 H137 0.950 . S
C138 C139 1.378 . S
C139 C138 1.378 . S
C139 C140 1.409 . S
C140 C136 1.387 . S
C140 C139 1.409 . S
C140 H142 0.951 . S
C141 C136 1.491 . S
C141 C143 1.382 . S
C141 C145 1.404 . S
H142 C140 0.951 . S
C143 C141 1.382 . S
C143 C144 1.390 . S
C143 H148 0.949 . S
C144 C143 1.390 . S
C144 C149 1.399 . S
C145 C141 1.404 . S
C145 H146 0.950 . S
C145 C147 1.375 . S
H146 C145 0.950 . S
C147 C145 1.375 . S
C147 C149 1.382 . S
C147 H151 0.950 . S
H148 C143 0.949 . S
C149 C144 1.399 . S
C149 C147 1.382 . S
C149 H150 0.952 . S
H150 C149 0.952 . S
H151 C147 0.950 . S
H152 C153 0.949 . S
C153 H152 0.949 . S
C153 C154 1.395 . S
C153 C155 1.391 . S
C154 C153 1.395 . S
C154 C157 1.390 . S
C155 C153 1.391 . S
C155 C159 1.387 . S
C155 C160 1.491 . S
H156 C157 0.950 . S
C157 C154 1.390 . S
C157 H156 0.950 . S
C157 C158 1.378 . S
C158 C157 1.378 . S
C158 C159 1.409 . S
C159 C155 1.387 . S
C159 C158 1.409 . S
C159 H161 0.951 . S
C160 C155 1.491 . S
C160 C162 1.382 . S
C160 C164 1.404 . S
H161 C159 0.951 . S
C162 C160 1.382 . S
C162 C163 1.390 . S
C162 H167 0.949 . S
C163 C162 1.390 . S
C163 C168 1.399 . S
C164 C160 1.404 . S
C164 H165 0.950 . S
C164 C166 1.375 . S
H165 C164 0.950 . S
C166 C164 1.375 . S
C166 C168 1.382 . S
C166 H170 0.950 . S
H167 C162 0.949 . S
C168 C163 1.399 . S
C168 C166 1.382 . S
C168 H169 0.952 . S
H169 C168 0.952 . S
H170 C166 0.950 . S
H171 C172 0.949 . S
C172 H171 0.949 . S
C172 C173 1.395 . S
C172 C174 1.391 . S
C173 C172 1.395 . S
C173 C176 1.390 . S
C174 C172 1.391 . S
C174 C178 1.387 . S
C174 C179 1.491 . S
H175 C176 0.950 . S
C176 C173 1.390 . S
C176 H175 0.950 . S
C176 C177 1.378 . S
C177 C176 1.378 . S
C177 C178 1.409 . S
C178 C174 1.387 . S
C178 C177 1.409 . S
C178 H180 0.951 . S
C179 C174 1.491 . S
C179 C181 1.382 . S
C179 C183 1.404 . S
H180 C178 0.951 . S
C181 C179 1.382 . S
C181 C182 1.390 . S
C181 H186 0.949 . S
C182 C181 1.390 . S
C182 C187 1.399 . S
C183 C179 1.404 . S
C183 H184 0.950 . S
C183 C185 1.375 . S
H184 C183 0.950 . S
C185 C183 1.375 . S
C185 C187 1.382 . S
C185 H189 0.950 . S
H186 C181 0.949 . S
C187 C182 1.399 . S
C187 C185 1.382 . S
C187 H188 0.952 . S
H188 C187 0.952 . S
H189 C185 0.950 . S
H190 C191 0.949 . S
C191 H190 0.949 . S
C191 C192 1.395 . S
C191 C193 1.391 . S
C192 C191 1.395 . S
C192 C195 1.390 . S
C193 C191 1.391 . S
C193 C197 1.387 . S
C193 C198 1.491 . S
H194 C195 0.950 . S
C195 C192 1.390 . S
C195 H194 0.950 . S
C195 C196 1.378 . S
C196 C195 1.378 . S
C196 C197 1.409 . S
C197 C193 1.387 . S
C197 C196 1.409 . S
C197 H199 0.951 1_556 S
C198 C193 1.491 . S
C198 C200 1.382 . S
C198 C202 1.404 1_556 S
H199 C197 0.951 1_554 S
C200 C198 1.382 . S
C200 C201 1.390 1_556 S
C200 H205 0.949 . S
C201 C200 1.390 1_554 S
C201 C206 1.399 . S
C202 C198 1.404 1_554 S
C202 H203 0.950 . S
C202 C204 1.375 . S
H203 C202 0.950 . S
C204 C202 1.375 . S
C204 C206 1.382 . S
C204 H208 0.950 . S
H205 C200 0.949 . S
C206 C201 1.399 . S
C206 C204 1.382 . S
C206 H207 0.952 . S
H207 C206 0.952 . S
H208 C204 0.950 . S
H209 C210 0.949 . S
C210 H209 0.949 . S
C210 C211 1.395 . S
C210 C212 1.391 . S
C211 C210 1.395 . S
C211 C214 1.390 . S
C212 C210 1.391 . S
C212 C216 1.387 . S
C212 C217 1.491 . S
H213 C214 0.950 . S
C214 C211 1.390 . S
C214 H213 0.950 . S
C214 C215 1.378 . S
C215 C214 1.378 . S
C215 C216 1.409 . S
C216 C212 1.387 . S
C216 C215 1.409 . S
C216 H218 0.951 . S
C217 C212 1.491 . S
C217 C219 1.382 . S
C217 C221 1.404 . S
H218 C216 0.951 . S
C219 C217 1.382 . S
C219 C220 1.390 . S
C219 H224 0.949 . S
C220 C219 1.390 . S
C220 C225 1.399 . S
C221 C217 1.404 . S
C221 H222 0.950 . S
C221 C223 1.375 . S
H222 C221 0.950 . S
C223 C221 1.375 . S
C223 C225 1.382 . S
C223 H227 0.950 . S
H224 C219 0.949 . S
C225 C220 1.399 . S
C225 C223 1.382 . S
C225 H226 0.952 . S
H226 C225 0.952 . S
H227 C223 0.950 . S
H228 C229 0.949 . S
C229 H228 0.949 . S
C229 C230 1.395 . S
C229 C231 1.391 . S
C230 C229 1.395 . S
C230 C233 1.390 . S
C231 C229 1.391 . S
C231 C235 1.387 . S
C231 C236 1.491 . S
H232 C233 0.950 . S
C233 C230 1.390 . S
C233 H232 0.950 . S
C233 C234 1.378 . S
C234 C233 1.378 . S
C234 C235 1.409 . S
C235 C231 1.387 . S
C235 C234 1.409 . S
C235 H237 0.951 . S
C236 C231 1.491 . S
C236 C238 1.382 . S
C236 C240 1.404 . S
H237 C235 0.951 . S
C238 C236 1.382 . S
C238 C239 1.390 . S
C238 H243 0.949 . S
C239 C238 1.390 . S
C239 C244 1.399 . S
C240 C236 1.404 . S
C240 H241 0.950 . S
C240 C242 1.382 . S
H241 C240 0.950 . S
C242 C240 1.382 . S
C242 C244 1.383 . S
C242 H246 0.942 1_554 S
H243 C238 0.949 . S
C244 C239 1.399 . S
C244 C242 1.383 . S
C244 H245 0.952 1_554 S
H245 C244 0.952 1_556 S
H246 C242 0.942 1_556 S
H247 C248 0.949 . S
C248 H247 0.949 . S
C248 C249 1.395 . S
C248 C250 1.391 . S
C249 C248 1.395 . S
C249 C252 1.390 . S
C250 C248 1.391 . S
C250 C254 1.387 . S
C250 C255 1.491 . S
H251 C252 0.950 . S
C252 C249 1.390 . S
C252 H251 0.950 . S
C252 C253 1.378 . S
C253 C252 1.378 . S
C253 C254 1.409 . S
C254 C250 1.387 . S
C254 C253 1.409 . S
C254 H256 0.951 . S
C255 C250 1.491 . S
C255 C257 1.382 . S
C255 C259 1.404 . S
H256 C254 0.951 . S
C257 C255 1.382 . S
C257 C258 1.390 . S
C257 H262 0.949 . S
C258 C257 1.390 . S
C258 C263 1.399 . S
C259 C255 1.404 . S
C259 H260 0.950 . S
C259 C261 1.375 . S
H260 C259 0.950 . S
C261 C259 1.375 . S
C261 C263 1.382 . S
C261 H265 0.950 . S
H262 C257 0.949 . S
C263 C258 1.399 . S
C263 C261 1.382 . S
C263 H264 0.952 . S
H264 C263 0.952 . S
H265 C261 0.950 . S
H266 C267 0.949 . S
C267 H266 0.949 . S
C267 C268 1.395 . S
C267 C269 1.391 . S
C268 C267 1.395 . S
C268 C271 1.390 . S
C269 C267 1.391 . S
C269 C273 1.387 . S
C269 C274 1.491 . S
H270 C271 0.950 . S
C271 C268 1.390 . S
C271 H270 0.950 . S
C271 C272 1.378 . S
C272 C271 1.378 . S
C272 C273 1.409 . S
C273 C269 1.387 . S
C273 C272 1.409 . S
C273 H275 0.951 . S
C274 C269 1.491 . S
C274 C276 1.382 . S
C274 C278 1.404 . S
H275 C273 0.951 . S
C276 C274 1.382 . S
C276 C277 1.390 . S
C276 H281 0.949 . S
C277 C276 1.390 . S
C277 C282 1.399 . S
C278 C274 1.404 . S
C278 H279 0.950 . S
C278 C280 1.375 . S
H279 C278 0.950 . S
C280 C278 1.375 . S
C280 C282 1.382 . S
C280 H284 0.950 . S
H281 C276 0.949 . S
C282 C277 1.399 . S
C282 C280 1.382 . S
C282 H283 0.952 . S
H283 C282 0.952 . S
H284 C280 0.950 . S
H285 C286 0.949 . S
C286 H285 0.949 . S
C286 C287 1.395 . S
C286 C288 1.391 . S
C287 C286 1.395 . S
C287 C290 1.390 . S
C288 C286 1.391 . S
C288 C292 1.387 . S
C288 C293 1.491 . S
H289 C290 0.950 . S
C290 C287 1.390 . S
C290 H289 0.950 . S
C290 C291 1.378 . S
C291 C290 1.378 . S
C291 C292 1.409 . S
C292 C288 1.387 . S
C292 C291 1.409 . S
C292 H294 0.951 . S
C293 C288 1.491 . S
C293 C295 1.382 . S
C293 C297 1.404 . S
H294 C292 0.951 . S
C295 C293 1.382 . S
C295 C296 1.390 . S
C295 H300 0.949 . S
C296 C295 1.390 . S
C296 C301 1.399 . S
C297 C293 1.404 . S
C297 H298 0.950 . S
C297 C299 1.375 . S
H298 C297 0.950 . S
C299 C297 1.375 . S
C299 C301 1.382 . S
C299 H303 0.950 . S
H300 C295 0.949 . S
C301 C296 1.399 . S
C301 C299 1.382 . S
C301 H302 0.952 . S
H302 C301 0.952 . S
H303 C299 0.950 . S
H304 C305 0.949 . S
C305 H304 0.949 . S
C305 C306 1.395 . S
C305 C307 1.391 . S
C306 C305 1.395 . S
C306 C309 1.390 . S
C307 C305 1.391 . S
C307 C311 1.387 . S
C307 C312 1.491 . S
H308 C309 0.950 . S
C309 C306 1.390 . S
C309 H308 0.950 . S
C309 C310 1.378 . S
C310 C309 1.378 . S
C310 C311 1.409 . S
C311 C307 1.387 . S
C311 C310 1.409 . S
C311 H313 0.951 . S
C312 C307 1.491 . S
C312 C314 1.382 . S
C312 C316 1.404 . S
H313 C311 0.951 . S
C314 C312 1.382 . S
C314 C315 1.390 . S
C314 H319 0.949 . S
C315 C314 1.390 . S
C315 C320 1.399 . S
C316 C312 1.404 . S
C316 H317 0.950 . S
C316 C318 1.375 . S
H317 C316 0.950 . S
C318 C316 1.375 . S
C318 C320 1.382 . S
C318 H322 0.950 . S
H319 C314 0.949 . S
C320 C315 1.399 . S
C320 C318 1.382 . S
C320 H321 0.952 . S
H321 C320 0.952 . S
H322 C318 0.950 . S
H323 C324 0.949 . S
C324 H323 0.949 . S
C324 C325 1.395 . S
C324 C326 1.391 . S
C325 C324 1.395 . S
C325 C328 1.390 . S
C326 C324 1.391 . S
C326 C330 1.387 . S
C326 C331 1.491 . S
H327 C328 0.950 . S
C328 C325 1.390 . S
C328 H327 0.950 . S
C328 C329 1.378 . S
C329 C328 1.378 . S
C329 C330 1.409 . S
C330 C326 1.387 . S
C330 C329 1.409 . S
C330 H332 0.951 . S
C331 C326 1.491 . S
C331 C333 1.382 . S
C331 C335 1.404 . S
H332 C330 0.951 . S
C333 C331 1.382 . S
C333 C334 1.390 . S
C333 H338 0.949 . S
C334 C333 1.390 . S
C334 C339 1.399 . S
C335 C331 1.404 . S
C335 H336 0.950 . S
C335 C337 1.375 . S
H336 C335 0.950 . S
C337 C335 1.375 . S
C337 C339 1.382 . S
C337 H341 0.950 . S
H338 C333 0.949 . S
C339 C334 1.399 . S
C339 C337 1.382 . S
C339 H340 0.952 . S
H340 C339 0.952 . S
H341 C337 0.950 . S
Eu342 C351 2.828 1_565 S
Eu342 O353 2.392 . S
Eu342 O355 2.418 . S
Eu342 O360 2.373 1_565 S
Eu342 O363 2.488 . S
Eu342 O364 2.471 1_565 S
Eu342 O365 2.349 1_565 S
Eu343 O352 2.373 1_545 S
Eu343 O356 2.488 . S
Eu343 O357 2.471 1_545 S
Eu343 O358 2.349 1_545 S
Eu343 O361 2.392 . S
Eu343 O362 2.418 . S
Eu343 C372 2.828 1_545 S
C344 O362 1.244 . S
C344 O365 1.265 1_554 S
C345 C346 1.379 . S
C345 C349 1.373 . S
C345 C351 1.505 . S
C346 C345 1.379 . S
C346 C348 1.369 . S
C346 H374 0.930 . S
C347 C349 1.383 . S
C347 C350 1.382 . S
C347 H375 0.930 . S
C348 C346 1.369 . S
C348 C350 1.392 . S
C348 H376 0.930 . S
C349 C345 1.373 . S
C349 C347 1.383 . S
C349 H377 0.931 1_545 S
C350 C347 1.382 . S
C350 C348 1.392 . S
C351 Eu342 2.828 1_545 S
C351 C345 1.505 . S
C351 O363 1.249 1_545 S
C351 O364 1.244 . S
O352 Eu343 2.373 1_565 S
O352 C354 1.258 . S
O353 Eu342 2.392 . S
O353 C354 1.242 1_556 S
C354 O352 1.258 . S
C354 O353 1.242 1_554 S
O355 Eu342 2.418 . S
O355 C359 1.202 1_556 S
O356 Eu343 2.488 . S
O356 C372 1.249 1_545 S
O357 Eu343 2.471 1_565 S
O357 C372 1.244 . S
O358 Eu343 2.349 1_565 S
O358 C359 1.288 . S
C359 O355 1.202 1_554 S
C359 O358 1.288 . S
O360 Eu342 2.373 1_545 S
O360 C373 1.258 . S
O361 Eu343 2.392 . S
O361 C373 1.242 1_554 S
O362 Eu343 2.418 . S
O362 C344 1.244 . S
O363 Eu342 2.488 . S
O363 C351 1.249 1_565 S
O364 Eu342 2.471 1_545 S
O364 C351 1.244 . S
O365 Eu342 2.349 1_545 S
O365 C344 1.265 1_556 S
C366 C367 1.379 . S
C366 C370 1.373 1_565 S
C366 C372 1.505 . S
C367 C366 1.379 . S
C367 C369 1.369 . S
C367 H378 0.930 . S
C368 C370 1.383 1_565 S
C368 C371 1.382 . S
C368 H379 0.930 1_565 S
C369 C367 1.369 . S
C369 C371 1.392 . S
C369 H380 0.930 . S
C370 C366 1.373 1_545 S
C370 C368 1.383 1_545 S
C370 H381 0.931 . S
C371 C368 1.382 . S
C371 C369 1.392 . S
C372 Eu343 2.828 1_565 S
C372 O356 1.249 1_565 S
C372 O357 1.244 . S
C372 C366 1.505 . S
C373 O360 1.258 . S
C373 O361 1.242 1_556 S
H374 C346 0.930 . S
H375 C347 0.930 . S
H376 C348 0.930 . S
H377 C349 0.931 1_565 S
H378 C367 0.930 . S
H379 C368 0.930 1_545 S
H380 C369 0.930 . S
H381 C370 0.931 . S
Eu382 C391 2.828 1_455 S
Eu382 O393 2.392 1_556 S
Eu382 O395 2.418 . S
Eu382 O400 2.373 1_455 S
Eu382 O403 2.488 . S
Eu382 O404 2.471 1_455 S
Eu382 O405 2.349 1_455 S
Eu383 O392 2.373 1_655 S
Eu383 O396 2.488 . S
Eu383 O397 2.471 1_655 S
Eu383 O398 2.349 1_655 S
Eu383 O401 2.392 . S
Eu383 O402 2.418 . S
Eu383 C412 2.828 1_655 S
C384 O402 1.244 . S
C384 O405 1.265 1_554 S
C385 C386 1.379 . S
C385 C389 1.373 . S
C385 C391 1.505 . S
C386 C385 1.379 . S
C386 C388 1.369 . S
C386 H414 0.930 . S
C387 C389 1.383 . S
C387 C390 1.382 . S
C387 H415 0.930 . S
C388 C386 1.369 . S
C388 C390 1.392 . S
C388 H416 0.930 . S
C389 C385 1.373 . S
C389 C387 1.383 . S
C389 H417 0.931 1_655 S
C390 C387 1.382 . S
C390 C388 1.392 . S
C391 Eu382 2.828 1_655 S
C391 C385 1.505 . S
C391 O403 1.249 1_655 S
C391 O404 1.244 . S
O392 Eu383 2.373 1_455 S
O392 C394 1.258 . S
O393 Eu382 2.392 1_554 S
O393 C394 1.242 . S
C394 O392 1.258 . S
C394 O393 1.242 . S
O395 Eu382 2.418 . S
O395 C399 1.244 1_556 S
O396 Eu383 2.488 . S
O396 C412 1.249 1_655 S
O397 Eu383 2.471 1_455 S
O397 C412 1.244 . S
O398 Eu383 2.349 1_455 S
O398 C399 1.265 . S
C399 O395 1.244 1_554 S
C399 O398 1.265 . S
O400 Eu382 2.373 1_655 S
O400 C413 1.258 . S
O401 Eu383 2.392 . S
O401 C413 1.242 1_554 S
O402 Eu383 2.418 . S
O402 C384 1.244 . S
O403 Eu382 2.488 . S
O403 C391 1.249 1_455 S
O404 Eu382 2.471 1_655 S
O404 C391 1.244 . S
O405 Eu382 2.349 1_655 S
O405 C384 1.265 1_556 S
C406 C407 1.379 . S
C406 C410 1.373 . S
C406 C412 1.505 . S
C407 C406 1.379 . S
C407 C409 1.369 . S
C407 H418 0.930 . S
C408 C410 1.383 . S
C408 C411 1.382 . S
C408 H419 0.930 . S
C409 C407 1.369 . S
C409 C411 1.392 . S
C409 H420 0.930 . S
C410 C406 1.373 . S
C410 C408 1.383 . S
C410 H421 0.931 1_455 S
C411 C408 1.382 . S
C411 C409 1.392 . S
C412 Eu383 2.828 1_455 S
C412 O396 1.249 1_455 S
C412 O397 1.244 . S
C412 C406 1.505 . S
C413 O400 1.258 . S
C413 O401 1.242 1_556 S
H414 C386 0.930 . S
H415 C387 0.930 . S
H416 C388 0.930 . S
H417 C389 0.931 1_455 S
H418 C407 0.930 . S
H419 C408 0.930 . S
H420 C409 0.930 . S
H421 C410 0.931 1_655 S
Eu422 C431 2.828 . S
Eu422 O433 2.392 . S
Eu422 O435 2.418 . S
Eu422 O440 2.373 . S
Eu422 O443 2.488 . S
Eu422 O444 2.471 . S
Eu422 O445 2.349 . S
Eu423 O432 2.373 . S
Eu423 O436 2.488 . S
Eu423 O437 2.471 . S
Eu423 O438 2.349 1_556 S
Eu423 O441 2.392 1_556 S
Eu423 O442 2.418 . S
Eu423 C452 2.828 . S
C424 O442 1.244 1_554 S
C424 O445 1.265 . S
C425 C426 1.379 . S
C425 C429 1.373 . S
C425 C431 1.505 . S
C426 C425 1.379 . S
C426 C428 1.369 . S
C426 H454 0.930 . S
C427 C429 1.383 . S
C427 C430 1.382 . S
C427 H455 0.930 . S
C428 C426 1.369 . S
C428 C430 1.392 . S
C428 H456 0.930 . S
C429 C425 1.373 . S
C429 C427 1.383 . S
C429 H457 0.931 . S
C430 C427 1.382 . S
C430 C428 1.392 . S
C431 Eu422 2.828 . S
C431 C425 1.505 . S
C431 O443 1.249 . S
C431 O444 1.244 . S
O432 Eu423 2.373 . S
O432 C434 1.258 . S
O433 Eu422 2.392 . S
O433 C434 1.242 1_554 S
C434 O432 1.258 . S
C434 O433 1.242 1_556 S
O435 Eu422 2.418 . S
O435 C439 1.244 . S
O436 Eu423 2.488 . S
O436 C452 1.249 . S
O437 Eu423 2.471 . S
O437 C452 1.244 . S
O438 Eu423 2.349 1_554 S
O438 C439 1.265 . S
C439 O435 1.244 . S
C439 O438 1.265 . S
O440 Eu422 2.373 . S
O440 C453 1.258 . S
O441 Eu423 2.392 1_554 S
O441 C453 1.242 . S
O442 Eu423 2.418 . S
O442 C424 1.244 1_556 S
O443 Eu422 2.488 . S
O443 C431 1.249 . S
O444 Eu422 2.471 . S
O444 C431 1.244 . S
O445 Eu422 2.349 . S
O445 C424 1.265 . S
C446 C447 1.379 . S
C446 C450 1.373 . S
C446 C452 1.505 . S
C447 C446 1.379 . S
C447 C449 1.369 . S
C447 H458 0.930 . S
C448 C450 1.383 . S
C448 C451 1.382 . S
C448 H459 0.930 . S
C449 C447 1.369 . S
C449 C451 1.392 . S
C449 H460 0.930 . S
C450 C446 1.373 . S
C450 C448 1.383 . S
C450 H461 0.931 . S
C451 C448 1.382 . S
C451 C449 1.392 . S
C452 Eu423 2.828 . S
C452 O436 1.249 . S
C452 O437 1.244 . S
C452 C446 1.505 . S
C453 O440 1.258 . S
C453 O441 1.242 . S
H454 C426 0.930 . S
H455 C427 0.930 . S
H456 C428 0.930 . S
H457 C429 0.931 . S
H458 C447 0.930 . S
H459 C448 0.930 . S
H460 C449 0.930 . S
H461 C450 0.931 . S
Eu462 C471 2.828 . S
Eu462 O473 2.392 . S
Eu462 O475 2.418 . S
Eu462 O480 2.373 . S
Eu462 O483 2.488 . S
Eu462 O484 2.471 . S
Eu462 O485 2.349 . S
Eu463 O472 2.373 . S
Eu463 O476 2.488 . S
Eu463 O477 2.471 . S
Eu463 O478 2.349 . S
Eu463 O481 2.392 . S
Eu463 O482 2.418 . S
Eu463 C492 2.828 . S
C464 O482 1.244 . S
C464 O485 1.265 . S
C465 C466 1.379 . S
C465 C469 1.373 . S
C465 C471 1.505 . S
C466 C465 1.379 . S
C466 C468 1.369 . S
C466 H494 0.930 . S
C467 C469 1.383 . S
C467 C470 1.382 . S
C467 H495 0.930 . S
C468 C466 1.369 . S
C468 C470 1.392 . S
C468 H496 0.930 . S
C469 C465 1.373 . S
C469 C467 1.383 . S
C469 H497 0.931 . S
C470 C467 1.382 . S
C470 C468 1.392 . S
C471 Eu462 2.828 . S
C471 C465 1.505 . S
C471 O483 1.249 . S
C471 O484 1.244 . S
O472 Eu463 2.373 . S
O472 C474 1.258 . S
O473 Eu462 2.392 . S
O473 C474 1.242 . S
C474 O472 1.258 . S
C474 O473 1.242 . S
O475 Eu462 2.418 . S
O475 C479 1.244 . S
O476 Eu463 2.488 . S
O476 C492 1.249 . S
O477 Eu463 2.471 . S
O477 C492 1.244 . S
O478 Eu463 2.349 . S
O478 C479 1.265 . S
C479 O475 1.244 . S
C479 O478 1.265 . S
O480 Eu462 2.373 . S
O480 C493 1.258 . S
O481 Eu463 2.392 . S
O481 C493 1.242 . S
O482 Eu463 2.418 . S
O482 C464 1.244 . S
O483 Eu462 2.488 . S
O483 C471 1.249 . S
O484 Eu462 2.471 . S
O484 C471 1.244 . S
O485 Eu462 2.349 . S
O485 C464 1.265 . S
C486 C487 1.379 . S
C486 C490 1.373 . S
C486 C492 1.505 . S
C487 C486 1.379 . S
C487 C489 1.369 . S
C487 H498 0.930 . S
C488 C490 1.383 . S
C488 C491 1.382 . S
C488 H499 0.930 . S
C489 C487 1.369 . S
C489 C491 1.392 . S
C489 H500 0.930 . S
C490 C486 1.373 . S
C490 C488 1.383 . S
C490 H501 0.931 . S
C491 C488 1.382 . S
C491 C489 1.392 . S
C492 Eu463 2.828 . S
C492 O476 1.249 . S
C492 O477 1.244 . S
C492 C486 1.505 . S
C493 O480 1.258 . S
C493 O481 1.242 . S
H494 C466 0.930 . S
H495 C467 0.930 . S
H496 C468 0.930 . S
H497 C469 0.931 . S
H498 C487 0.930 . S
H499 C488 0.930 . S
H500 C489 0.930 . S
H501 C490 0.931 . S
Eu502 C511 2.828 . S
Eu502 O513 2.392 . S
Eu502 O515 2.418 . S
Eu502 O520 2.373 . S
Eu502 O523 2.488 . S
Eu502 O524 2.471 . S
Eu502 O525 2.349 . S
Eu503 O512 2.373 . S
Eu503 O516 2.488 . S
Eu503 O517 2.471 . S
Eu503 O518 2.349 . S
Eu503 O521 2.392 . S
Eu503 O522 2.418 . S
Eu503 C532 2.828 . S
C504 O522 1.244 . S
C504 O525 1.265 . S
C505 C506 1.379 . S
C505 C509 1.373 . S
C505 C511 1.505 . S
C506 C505 1.379 . S
C506 C508 1.369 . S
C506 H534 0.930 . S
C507 C509 1.383 . S
C507 C510 1.382 . S
C507 H535 0.930 . S
C508 C506 1.369 . S
C508 C510 1.392 . S
C508 H536 0.930 . S
C509 C505 1.373 . S
C509 C507 1.383 . S
C509 H537 0.931 . S
C510 C507 1.382 . S
C510 C508 1.392 . S
C511 Eu502 2.828 . S
C511 C505 1.505 . S
C511 O523 1.249 . S
C511 O524 1.244 . S
O512 Eu503 2.373 . S
O512 C514 1.258 . S
O513 Eu502 2.392 . S
O513 C514 1.242 . S
C514 O512 1.258 . S
C514 O513 1.242 . S
O515 Eu502 2.418 . S
O515 C519 1.244 . S
O516 Eu503 2.488 . S
O516 C532 1.249 . S
O517 Eu503 2.471 . S
O517 C532 1.244 . S
O518 Eu503 2.349 . S
O518 C519 1.265 . S
C519 O515 1.244 . S
C519 O518 1.265 . S
O520 Eu502 2.373 . S
O520 C533 1.258 . S
O521 Eu503 2.392 . S
O521 C533 1.242 . S
O522 Eu503 2.418 . S
O522 C504 1.244 . S
O523 Eu502 2.488 . S
O523 C511 1.249 . S
O524 Eu502 2.471 . S
O524 C511 1.244 . S
O525 Eu502 2.349 . S
O525 C504 1.265 . S
C526 C527 1.379 . S
C526 C530 1.373 . S
C526 C532 1.505 . S
C527 C526 1.379 . S
C527 C529 1.369 . S
C527 H538 0.930 . S
C528 C530 1.383 . S
C528 C531 1.382 . S
C528 H539 0.930 . S
C529 C527 1.369 . S
C529 C531 1.392 . S
C529 H540 0.930 . S
C530 C526 1.373 . S
C530 C528 1.383 . S
C530 H541 0.931 . S
C531 C528 1.382 . S
C531 C529 1.392 . S
C532 Eu503 2.828 . S
C532 O516 1.249 . S
C532 O517 1.244 . S
C532 C526 1.505 . S
C533 O520 1.258 . S
C533 O521 1.242 . S
H534 C506 0.930 . S
H535 C507 0.930 . S
H536 C508 0.930 . S
H537 C509 0.931 . S
H538 C527 0.930 . S
H539 C528 0.930 . S
H540 C529 0.930 . S
H541 C530 0.931 . S
Eu542 C551 2.828 . S
Eu542 O553 2.392 . S
Eu542 O555 2.418 . S
Eu542 O560 2.373 . S
Eu542 O563 2.488 . S
Eu542 O564 2.471 . S
Eu542 O565 2.349 . S
Eu543 O552 2.373 . S
Eu543 O556 2.488 . S
Eu543 O557 2.471 . S
Eu543 O558 2.349 . S
Eu543 O561 2.392 . S
Eu543 O562 2.418 . S
Eu543 C572 2.828 . S
C544 O562 1.244 . S
C544 O565 1.265 . S
C545 C546 1.379 . S
C545 C549 1.373 . S
C545 C551 1.505 . S
C546 C545 1.379 . S
C546 C548 1.369 . S
C546 H574 0.930 . S
C547 C549 1.383 . S
C547 C550 1.382 . S
C547 H575 0.930 . S
C548 C546 1.369 . S
C548 C550 1.392 . S
C548 H576 0.930 . S
C549 C545 1.373 . S
C549 C547 1.383 . S
C549 H577 0.931 . S
C550 C547 1.382 . S
C550 C548 1.392 . S
C551 Eu542 2.828 . S
C551 C545 1.505 . S
C551 O563 1.249 . S
C551 O564 1.244 . S
O552 Eu543 2.373 . S
O552 C554 1.258 . S
O553 Eu542 2.392 . S
O553 C554 1.242 . S
C554 O552 1.258 . S
C554 O553 1.242 . S
O555 Eu542 2.418 . S
O555 C559 1.244 . S
O556 Eu543 2.488 . S
O556 C572 1.249 . S
O557 Eu543 2.471 . S
O557 C572 1.244 . S
O558 Eu543 2.349 . S
O558 C559 1.265 . S
C559 O555 1.244 . S
C559 O558 1.265 . S
O560 Eu542 2.373 . S
O560 C573 1.258 . S
O561 Eu543 2.392 . S
O561 C573 1.242 . S
O562 Eu543 2.418 . S
O562 C544 1.244 . S
O563 Eu542 2.488 . S
O563 C551 1.249 . S
O564 Eu542 2.471 . S
O564 C551 1.244 . S
O565 Eu542 2.349 . S
O565 C544 1.265 . S
C566 C567 1.379 . S
C566 C570 1.373 . S
C566 C572 1.505 . S
C567 C566 1.379 . S
C567 C569 1.369 . S
C567 H578 0.930 . S
C568 C570 1.383 . S
C568 C571 1.382 . S
C568 H579 0.930 . S
C569 C567 1.369 . S
C569 C571 1.392 . S
C569 H580 0.930 . S
C570 C566 1.373 . S
C570 C568 1.383 . S
C570 H581 0.931 . S
C571 C568 1.382 . S
C571 C569 1.392 . S
C572 Eu543 2.828 . S
C572 O556 1.249 . S
C572 O557 1.244 . S
C572 C566 1.505 . S
C573 O560 1.258 . S
C573 O561 1.242 . S
H574 C546 0.930 . S
H575 C547 0.930 . S
H576 C548 0.930 . S
H577 C549 0.931 . S
H578 C567 0.930 . S
H579 C568 0.930 . S
H580 C569 0.930 . S
H581 C570 0.931 . S
Eu582 C591 2.828 . S
Eu582 O593 2.392 . S
Eu582 O595 2.418 . S
Eu582 O600 2.373 . S
Eu582 O603 2.488 . S
Eu582 O604 2.471 . S
Eu582 O605 2.349 . S
Eu583 O592 2.373 . S
Eu583 O596 2.488 . S
Eu583 O597 2.471 . S
Eu583 O598 2.349 . S
Eu583 O601 2.392 . S
Eu583 O602 2.418 . S
Eu583 C612 2.828 . S
C584 O602 1.244 . S
C584 O605 1.265 . S
C585 C586 1.379 . S
C585 C589 1.373 . S
C585 C591 1.505 . S
C586 C585 1.379 . S
C586 C588 1.369 . S
C586 H614 0.930 . S
C587 C589 1.383 . S
C587 C590 1.382 . S
C587 H615 0.930 . S
C588 C586 1.369 . S
C588 C590 1.392 . S
C588 H616 0.930 . S
C589 C585 1.373 . S
C589 C587 1.383 . S
C589 H617 0.931 . S
C590 C587 1.382 . S
C590 C588 1.392 . S
C591 Eu582 2.828 . S
C591 C585 1.505 . S
C591 O603 1.249 . S
C591 O604 1.244 . S
O592 Eu583 2.373 . S
O592 C594 1.258 . S
O593 Eu582 2.392 . S
O593 C594 1.242 . S
C594 O592 1.258 . S
C594 O593 1.242 . S
O595 Eu582 2.418 . S
O595 C599 1.244 . S
O596 Eu583 2.488 . S
O596 C612 1.249 . S
O597 Eu583 2.471 . S
O597 C612 1.244 . S
O598 Eu583 2.349 . S
O598 C599 1.265 . S
C599 O595 1.244 . S
C599 O598 1.265 . S
O600 Eu582 2.373 . S
O600 C613 1.258 . S
O601 Eu583 2.392 . S
O601 C613 1.242 . S
O602 Eu583 2.418 . S
O602 C584 1.244 . S
O603 Eu582 2.488 . S
O603 C591 1.249 . S
O604 Eu582 2.471 . S
O604 C591 1.244 . S
O605 Eu582 2.349 . S
O605 C584 1.265 . S
C606 C607 1.379 . S
C606 C610 1.373 . S
C606 C612 1.505 . S
C607 C606 1.379 . S
C607 C609 1.369 . S
C607 H618 0.930 . S
C608 C610 1.383 . S
C608 C611 1.382 . S
C608 H619 0.930 . S
C609 C607 1.369 . S
C609 C611 1.392 . S
C609 H620 0.930 . S
C610 C606 1.373 . S
C610 C608 1.383 . S
C610 H621 0.931 . S
C611 C608 1.382 . S
C611 C609 1.392 . S
C612 Eu583 2.828 . S
C612 O596 1.249 . S
C612 O597 1.244 . S
C612 C606 1.505 . S
C613 O600 1.258 . S
C613 O601 1.242 . S
H614 C586 0.930 . S
H615 C587 0.930 . S
H616 C588 0.930 . S
H617 C589 0.931 . S
H618 C607 0.930 . S
H619 C608 0.930 . S
H620 C609 0.930 . S
H621 C610 0.931 . S
Eu622 C631 2.828 . S
Eu622 O633 2.392 . S
Eu622 O635 2.418 . S
Eu622 O640 2.373 . S
Eu622 O643 2.488 . S
Eu622 O644 2.471 . S
Eu622 O645 2.349 . S
Eu623 O632 2.373 . S
Eu623 O636 2.488 . S
Eu623 O637 2.471 . S
Eu623 O638 2.349 . S
Eu623 O641 2.392 . S
Eu623 O642 2.418 . S
Eu623 C652 2.828 . S
C624 O642 1.244 . S
C624 O645 1.265 . S
C625 C626 1.379 . S
C625 C629 1.373 . S
C625 C631 1.505 . S
C626 C625 1.379 . S
C626 C628 1.369 . S
C626 H654 0.930 . S
C627 C629 1.383 . S
C627 C630 1.382 . S
C627 H655 0.930 . S
C628 C626 1.369 . S
C628 C630 1.392 . S
C628 H656 0.930 . S
C629 C625 1.373 . S
C629 C627 1.383 . S
C629 H657 0.931 . S
C630 C627 1.382 . S
C630 C628 1.392 . S
C631 Eu622 2.828 . S
C631 C625 1.505 . S
C631 O643 1.249 . S
C631 O644 1.244 . S
O632 Eu623 2.373 . S
O632 C634 1.258 . S
O633 Eu622 2.392 . S
O633 C634 1.242 . S
C634 O632 1.258 . S
C634 O633 1.242 . S
O635 Eu622 2.418 . S
O635 C639 1.244 . S
O636 Eu623 2.488 . S
O636 C652 1.249 . S
O637 Eu623 2.471 . S
O637 C652 1.244 . S
O638 Eu623 2.349 . S
O638 C639 1.265 . S
C639 O635 1.244 . S
C639 O638 1.265 . S
O640 Eu622 2.373 . S
O640 C653 1.258 . S
O641 Eu623 2.392 . S
O641 C653 1.242 . S
O642 Eu623 2.418 . S
O642 C624 1.244 . S
O643 Eu622 2.488 . S
O643 C631 1.249 . S
O644 Eu622 2.471 . S
O644 C631 1.244 . S
O645 Eu622 2.349 . S
O645 C624 1.265 . S
C646 C647 1.379 . S
C646 C650 1.373 . S
C646 C652 1.505 . S
C647 C646 1.379 . S
C647 C649 1.369 . S
C647 H658 0.930 . S
C648 C650 1.383 . S
C648 C651 1.382 . S
C648 H659 0.930 . S
C649 C647 1.369 . S
C649 C651 1.392 . S
C649 H660 0.930 . S
C650 C646 1.373 . S
C650 C648 1.383 . S
C650 H661 0.931 . S
C651 C648 1.382 . S
C651 C649 1.392 . S
C652 Eu623 2.828 . S
C652 O636 1.249 . S
C652 O637 1.244 . S
C652 C646 1.505 . S
C653 O640 1.258 . S
C653 O641 1.242 . S
H654 C626 0.930 . S
H655 C627 0.930 . S
H656 C628 0.930 . S
H657 C629 0.931 . S
H658 C647 0.930 . S
H659 C648 0.930 . S
H660 C649 0.930 . S
H661 C650 0.931 . S
Eu662 C671 2.828 . S
Eu662 O673 2.392 . S
Eu662 O675 2.418 . S
Eu662 O680 2.373 . S
Eu662 O683 2.488 . S
Eu662 O684 2.471 . S
Eu662 O685 2.349 . S
Eu663 O672 2.373 . S
Eu663 O676 2.488 . S
Eu663 O677 2.471 . S
Eu663 O678 2.349 . S
Eu663 O681 2.392 . S
Eu663 O682 2.418 . S
Eu663 C692 2.828 . S
C664 O682 1.244 . S
C664 O685 1.265 . S
C665 C666 1.379 . S
C665 C669 1.373 . S
C665 C671 1.505 . S
C666 C665 1.379 . S
C666 C668 1.369 . S
C666 H694 0.930 . S
C667 C669 1.383 . S
C667 C670 1.382 . S
C667 H695 0.930 . S
C668 C666 1.369 . S
C668 C670 1.392 . S
C668 H696 0.930 . S
C669 C665 1.373 . S
C669 C667 1.383 . S
C669 H697 0.931 . S
C670 C667 1.382 . S
C670 C668 1.392 . S
C671 Eu662 2.828 . S
C671 C665 1.505 . S
C671 O683 1.249 . S
C671 O684 1.244 . S
O672 Eu663 2.373 . S
O672 C674 1.258 . S
O673 Eu662 2.392 . S
O673 C674 1.242 . S
C674 O672 1.258 . S
C674 O673 1.242 . S
O675 Eu662 2.418 . S
O675 C679 1.244 . S
O676 Eu663 2.488 . S
O676 C692 1.249 . S
O677 Eu663 2.471 . S
O677 C692 1.244 . S
O678 Eu663 2.349 . S
O678 C679 1.265 . S
C679 O675 1.244 . S
C679 O678 1.265 . S
O680 Eu662 2.373 . S
O680 C693 1.258 . S
O681 Eu663 2.392 . S
O681 C693 1.242 . S
O682 Eu663 2.418 . S
O682 C664 1.244 . S
O683 Eu662 2.488 . S
O683 C671 1.249 . S
O684 Eu662 2.471 . S
O684 C671 1.244 . S
O685 Eu662 2.349 . S
O685 C664 1.265 . S
C686 C687 1.379 . S
C686 C690 1.373 . S
C686 C692 1.505 . S
C687 C686 1.379 . S
C687 C689 1.369 . S
C687 H698 0.930 . S
C688 C690 1.383 . S
C688 C691 1.382 . S
C688 H699 0.930 . S
C689 C687 1.369 . S
C689 C691 1.392 . S
C689 H700 0.930 . S
C690 C686 1.373 . S
C690 C688 1.383 . S
C690 H701 0.931 . S
C691 C688 1.382 . S
C691 C689 1.392 . S
C692 Eu663 2.828 . S
C692 O676 1.249 . S
C692 O677 1.244 . S
C692 C686 1.505 . S
C693 O680 1.258 . S
C693 O681 1.242 . S
H694 C666 0.930 . S
H695 C667 0.930 . S
H696 C668 0.930 . S
H697 C669 0.931 . S
H698 C687 0.930 . S
H699 C688 0.930 . S
H700 C689 0.930 . S
H701 C690 0.931 . S
H702 C708 0.930 . S
H703 C712 0.930 . S
H704 C717 0.929 . S
H705 C715 0.929 1_556 S
H706 C710 0.929 . S
H707 C716 0.929 . S
C708 H702 0.930 . S
C708 C709 1.367 . S
C708 C716 1.378 . S
C709 C708 1.367 . S
C709 C717 1.433 . S
C710 H706 0.929 . S
C710 C712 1.378 . S
C710 C714 1.350 . S
C711 C714 1.463 . S
C711 C716 1.350 . S
C711 N719 1.427 . S
C712 H703 0.930 . S
C712 C710 1.378 . S
C712 C713 1.367 . S
C713 C712 1.367 . S
C713 C715 1.433 . S
C714 C710 1.350 . S
C714 C711 1.463 . S
C714 N718 1.427 . S
C715 H705 0.929 1_554 S
C715 C713 1.433 . S
C715 N718 1.384 . S
C716 H707 0.929 . S
C716 C708 1.378 . S
C716 C711 1.350 . S
C717 H704 0.929 . S
C717 C709 1.433 . S
C717 N719 1.384 . S
N718 C714 1.427 . S
N718 C715 1.384 . S
N719 C711 1.427 . S
N719 C717 1.384 . S
H720 C726 0.930 . S
H721 C730 0.930 . S
H722 C735 0.929 . S
H723 C733 0.929 . S
H724 C728 0.929 . S
H725 C734 0.929 . S
C726 H720 0.930 . S
C726 C727 1.367 . S
C726 C734 1.378 . S
C727 C726 1.367 . S
C727 C735 1.433 . S
C728 H724 0.929 . S
C728 C730 1.378 . S
C728 C732 1.350 . S
C729 C732 1.463 . S
C729 C734 1.350 . S
C729 N737 1.427 . S
C730 H721 0.930 . S
C730 C728 1.378 . S
C730 C731 1.367 . S
C731 C730 1.367 . S
C731 C733 1.433 . S
C732 C728 1.350 . S
C732 C729 1.463 . S
C732 N736 1.427 . S
C733 H723 0.929 . S
C733 C731 1.433 . S
C733 N736 1.384 . S
C734 H725 0.929 . S
C734 C726 1.378 . S
C734 C729 1.350 . S
C735 H722 0.929 . S
C735 C727 1.433 . S
C735 N737 1.384 . S
N736 C732 1.427 . S
N736 C733 1.384 . S
N737 C729 1.427 . S
N737 C735 1.384 . S
H738 C744 0.930 . S
H739 C748 0.925 1_556 S
H740 C753 0.929 1_556 S
H741 C751 0.929 . S
H742 C746 0.929 1_556 S
H743 C752 0.929 . S
C744 H738 0.930 . S
C744 C745 1.367 . S
C744 C752 1.378 . S
C745 C744 1.367 . S
C745 C753 1.433 . S
C746 H742 0.929 1_554 S
C746 C748 1.378 . S
C746 C750 1.350 . S
C747 C750 1.463 . S
C747 C752 1.350 . S
C747 N755 1.427 . S
C748 H739 0.925 1_554 S
C748 C746 1.378 . S
C748 C749 1.372 . S
C749 C748 1.372 . S
C749 C751 1.433 . S
C750 C746 1.350 . S
C750 C747 1.463 . S
C750 N754 1.427 . S
C751 H741 0.929 . S
C751 C749 1.433 . S
C751 N754 1.384 . S
C752 H743 0.929 . S
C752 C744 1.378 . S
C752 C747 1.350 . S
C753 H740 0.929 1_554 S
C753 C745 1.433 . S
C753 N755 1.384 . S
N754 C750 1.427 . S
N754 C751 1.384 . S
N755 C747 1.427 . S
N755 C753 1.384 . S
H756 C762 0.930 . S
H757 C766 0.930 . S
H758 C771 0.929 . S
H759 C769 0.929 . S
H760 C764 0.921 1_554 S
H761 C770 0.929 . S
C762 H756 0.930 . S
C762 C763 1.367 . S
C762 C770 1.378 . S
C763 C762 1.367 . S
C763 C771 1.433 . S
C764 H760 0.921 1_556 S
C764 C766 1.377 1_556 S
C764 C768 1.358 . S
C765 C768 1.463 . S
C765 C770 1.350 . S
C765 N773 1.427 . S
C766 H757 0.930 . S
C766 C764 1.377 1_554 S
C766 C767 1.367 1_554 S
C767 C766 1.367 1_556 S
C767 C769 1.433 . S
C768 C764 1.358 . S
C768 C765 1.463 . S
C768 N772 1.427 . S
C769 H759 0.929 . S
C769 C767 1.433 . S
C769 N772 1.384 . S
C770 H761 0.929 . S
C770 C762 1.378 . S
C770 C765 1.350 . S
C771 H758 0.929 . S
C771 C763 1.433 . S
C771 N773 1.384 . S
N772 C768 1.427 . S
N772 C769 1.384 . S
N773 C765 1.427 . S
N773 C771 1.384 . S
H774 C780 0.930 . S
H775 C784 0.930 . S
H776 C789 0.929 . S
H777 C787 0.929 . S
H778 C782 0.929 . S
H779 C788 0.929 . S
C780 H774 0.930 . S
C780 C781 1.367 . S
C780 C788 1.378 . S
C781 C780 1.367 . S
C781 C789 1.433 . S
C782 H778 0.929 . S
C782 C784 1.378 . S
C782 C786 1.350 . S
C783 C786 1.463 . S
C783 C788 1.350 . S
C783 N791 1.427 . S
C784 H775 0.930 . S
C784 C782 1.378 . S
C784 C785 1.367 . S
C785 C784 1.367 . S
C785 C787 1.433 1_556 S
C786 C782 1.350 . S
C786 C783 1.463 . S
C786 N790 1.427 . S
C787 H777 0.929 . S
C787 C785 1.433 1_554 S
C787 N790 1.384 1_554 S
C788 H779 0.929 . S
C788 C780 1.378 . S
C788 C783 1.350 . S
C789 H776 0.929 . S
C789 C781 1.433 . S
C789 N791 1.384 . S
N790 C786 1.427 . S
N790 C787 1.384 1_556 S
N791 C783 1.427 . S
N791 C789 1.384 . S
H792 C798 0.930 . S
H793 C802 0.930 . S
H794 C807 0.929 . S
H795 C805 0.929 . S
H796 C800 0.929 . S
H797 C806 0.929 . S
C798 H792 0.930 . S
C798 C799 1.367 . S
C798 C806 1.378 . S
C799 C798 1.367 . S
C799 C807 1.433 1_556 S
C800 H796 0.929 . S
C800 C802 1.378 . S
C800 C804 1.350 1_554 S
C801 C804 1.463 . S
C801 C806 1.350 . S
C801 N809 1.427 1_556 S
C802 H793 0.930 . S
C802 C800 1.378 . S
C802 C803 1.369 1_554 S
C803 C802 1.369 1_556 S
C803 C805 1.430 . S
C804 C800 1.350 1_556 S
C804 C801 1.463 . S
C804 N808 1.427 . S
C805 H795 0.929 . S
C805 C803 1.430 . S
C805 N808 1.384 . S
C806 H797 0.929 . S
C806 C798 1.378 . S
C806 C801 1.350 . S
C807 H794 0.929 . S
C807 C799 1.433 1_554 S
C807 N809 1.384 . S
N808 C804 1.427 . S
N808 C805 1.384 . S
N809 C801 1.427 1_554 S
N809 C807 1.384 . S
H810 C816 0.930 . S
H811 C820 0.930 . S
H812 C825 0.929 1_554 S
H813 C823 0.929 . S
H814 C818 0.926 . S
H815 C824 0.929 . S
C816 H810 0.930 . S
C816 C817 1.367 . S
C816 C824 1.378 . S
C817 C816 1.367 . S
C817 C825 1.433 . S
C818 H814 0.926 . S
C818 C820 1.377 . S
C818 C822 1.353 1_554 S
C819 C822 1.463 . S
C819 C824 1.350 . S
C819 N827 1.427 . S
C820 H811 0.930 . S
C820 C818 1.377 . S
C820 C821 1.367 1_554 S
C821 C820 1.367 1_556 S
C821 C823 1.433 . S
C822 C818 1.353 1_556 S
C822 C819 1.463 . S
C822 N826 1.427 . S
C823 H813 0.929 . S
C823 C821 1.433 . S
C823 N826 1.384 . S
C824 H815 0.929 . S
C824 C816 1.378 . S
C824 C819 1.350 . S
C825 H812 0.929 1_556 S
C825 C817 1.433 . S
C825 N827 1.384 . S
N826 C822 1.427 . S
N826 C823 1.384 . S
N827 C819 1.427 . S
N827 C825 1.384 . S
H828 C834 0.930 . S
H829 C838 0.930 . S
H830 C843 0.929 . S
H831 C841 0.929 1_554 S
H832 C836 0.929 . S
H833 C842 0.929 . S
C834 H828 0.930 . S
C834 C835 1.367 . S
C834 C842 1.378 . S
C835 C834 1.367 . S
C835 C843 1.433 . S
C836 H832 0.929 . S
C836 C838 1.378 . S
C836 C840 1.350 . S
C837 C840 1.463 . S
C837 C842 1.350 . S
C837 N845 1.427 . S
C838 H829 0.930 . S
C838 C836 1.378 . S
C838 C839 1.367 . S
C839 C838 1.367 . S
C839 C841 1.433 . S
C840 C836 1.350 . S
C840 C837 1.463 . S
C840 N844 1.427 . S
C841 H831 0.929 1_556 S
C841 C839 1.433 . S
C841 N844 1.384 . S
C842 H833 0.929 . S
C842 C834 1.378 . S
C842 C837 1.350 . S
C843 H830 0.929 . S
C843 C835 1.433 . S
C843 N845 1.384 . S
N844 C840 1.427 . S
N844 C841 1.384 . S
N845 C837 1.427 . S
N845 C843 1.384 . S
H846 C852 0.930 . S
H847 C856 0.930 . S
H848 C861 0.929 . S
H849 C859 0.929 . S
H850 C854 0.929 . S
H851 C860 0.929 . S
C852 H846 0.930 . S
C852 C853 1.367 . S
C852 C860 1.378 . S
C853 C852 1.367 . S
C853 C861 1.433 1_554 S
C854 H850 0.929 . S
C854 C856 1.378 . S
C854 C858 1.350 1_556 S
C855 C858 1.463 . S
C855 C860 1.350 . S
C855 N863 1.427 1_554 S
C856 H847 0.930 . S
C856 C854 1.378 . S
C856 C857 1.367 1_556 S
C857 C856 1.367 1_554 S
C857 C859 1.433 . S
C858 C854 1.350 1_554 S
C858 C855 1.463 . S
C858 N862 1.427 . S
C859 H849 0.929 . S
C859 C857 1.433 . S
C859 N862 1.384 . S
C860 H851 0.929 . S
C860 C852 1.378 . S
C860 C855 1.350 . S
C861 H848 0.929 . S
C861 C853 1.433 1_556 S
C861 N863 1.384 . S
N862 C858 1.427 . S
N862 C859 1.384 . S
N863 C855 1.427 1_556 S
N863 C861 1.384 . S
H864 C870 0.930 . S
H865 C874 0.930 . S
H866 C879 0.929 . S
H867 C877 0.929 . S
H868 C872 0.929 . S
H869 C878 0.929 . S
C870 H864 0.930 . S
C870 C871 1.367 . S
C870 C878 1.378 . S
C871 C870 1.367 . S
C871 C879 1.433 . S
C872 H868 0.929 . S
C872 C874 1.378 . S
C872 C876 1.350 . S
C873 C876 1.463 . S
C873 C878 1.350 . S
C873 N881 1.427 . S
C874 H865 0.930 . S
C874 C872 1.378 . S
C874 C875 1.367 . S
C875 C874 1.367 . S
C875 C877 1.433 . S
C876 C872 1.350 . S
C876 C873 1.463 . S
C876 N880 1.427 . S
C877 H867 0.929 . S
C877 C875 1.433 . S
C877 N880 1.384 . S
C878 H869 0.929 . S
C878 C870 1.378 . S
C878 C873 1.350 . S
C879 H866 0.929 . S
C879 C871 1.433 . S
C879 N881 1.384 . S
N880 C876 1.427 . S
N880 C877 1.384 . S
N881 C873 1.427 . S
N881 C879 1.384 . S
H882 C888 0.930 . S
H883 C892 0.930 . S
H884 C897 0.929 . S
H885 C895 0.929 . S
H886 C890 0.929 . S
H887 C896 0.929 . S
C888 H882 0.930 . S
C888 C889 1.367 . S
C888 C896 1.378 . S
C889 C888 1.367 . S
C889 C897 1.433 . S
C890 H886 0.929 . S
C890 C892 1.378 . S
C890 C894 1.350 . S
C891 C894 1.463 . S
C891 C896 1.350 . S
C891 N899 1.427 . S
C892 H883 0.930 . S
C892 C890 1.378 . S
C892 C893 1.367 . S
C893 C892 1.367 . S
C893 C895 1.433 . S
C894 C890 1.350 . S
C894 C891 1.463 . S
C894 N898 1.427 . S
C895 H885 0.929 . S
C895 C893 1.433 . S
C895 N898 1.384 . S
C896 H887 0.929 . S
C896 C888 1.378 . S
C896 C891 1.350 . S
C897 H884 0.929 . S
C897 C889 1.433 . S
C897 N899 1.384 . S
N898 C894 1.427 . S
N898 C895 1.384 . S
N899 C891 1.427 . S
N899 C897 1.384 . S
H900 C906 0.906 1_556 S
H901 C910 0.930 . S
H902 C915 0.929 . S
H903 C913 0.929 . S
H904 C908 0.929 . S
H905 C914 0.965 . S
C906 H900 0.906 1_554 S
C906 C907 1.396 . S
C906 C914 1.373 1_554 S
C907 C906 1.396 . S
C907 C915 1.433 . S
C908 H904 0.929 . S
C908 C910 1.378 . S
C908 C912 1.350 . S
C909 C912 1.463 . S
C909 C914 1.320 1_554 S
C909 N917 1.427 . S
C910 H901 0.930 . S
C910 C908 1.378 . S
C910 C911 1.367 . S
C911 C910 1.367 . S
C911 C913 1.433 1_554 S
C912 C908 1.350 . S
C912 C909 1.463 . S
C912 N916 1.427 1_554 S
C913 H903 0.929 . S
C913 C911 1.433 1_556 S
C913 N916 1.384 . S
C914 H905 0.965 . S
C914 C906 1.373 1_556 S
C914 C909 1.320 1_556 S
C915 H902 0.929 . S
C915 C907 1.433 . S
C915 N917 1.384 . S
N916 C912 1.427 1_556 S
N916 C913 1.384 . S
N917 C909 1.427 . S
N917 C915 1.384 . S
H918 C924 0.930 . S
H919 C928 0.930 . S
H920 C933 0.929 . S
H921 C931 0.929 . S
H922 C926 0.929 . S
H923 C932 0.929 . S
C924 H918 0.930 . S
C924 C925 1.367 . S
C924 C932 1.378 . S
C925 C924 1.367 . S
C925 C933 1.433 . S
C926 H922 0.929 . S
C926 C928 1.378 . S
C926 C930 1.350 . S
C927 C930 1.463 1_655 S
C927 C932 1.350 . S
C927 N935 1.427 . S
C928 H919 0.930 . S
C928 C926 1.378 . S
C928 C929 1.367 . S
C929 C928 1.367 . S
C929 C931 1.433 . S
C930 C926 1.350 . S
C930 C927 1.463 1_455 S
C930 N934 1.427 . S
C931 H921 0.929 . S
C931 C929 1.433 . S
C931 N934 1.384 . S
C932 H923 0.929 . S
C932 C924 1.378 . S
C932 C927 1.350 . S
C933 H920 0.929 . S
C933 C925 1.433 . S
C933 N935 1.384 . S
N934 C930 1.427 . S
N934 C931 1.384 . S
N935 C927 1.427 . S
N935 C933 1.384 . S
H936 C942 0.930 . S
H937 C946 0.930 . S
H938 C951 0.929 . S
H939 C949 0.929 . S
H940 C944 0.929 . S
H941 C950 0.929 . S
C942 H936 0.930 . S
C942 C943 1.367 . S
C942 C950 1.378 . S
C943 C942 1.367 . S
C943 C951 1.433 . S
C944 H940 0.929 . S
C944 C946 1.378 . S
C944 C948 1.350 . S
C945 C948 1.463 . S
C945 C950 1.350 . S
C945 N953 1.427 . S
C946 H937 0.930 . S
C946 C944 1.378 . S
C946 C947 1.367 . S
C947 C946 1.367 . S
C947 C949 1.433 . S
C948 C944 1.350 . S
C948 C945 1.463 . S
C948 N952 1.427 . S
C949 H939 0.929 . S
C949 C947 1.433 . S
C949 N952 1.384 . S
C950 H941 0.929 . S
C950 C942 1.378 . S
C950 C945 1.350 . S
C951 H938 0.929 . S
C951 C943 1.433 . S
C951 N953 1.384 . S
N952 C948 1.427 . S
N952 C949 1.384 . S
N953 C945 1.427 . S
N953 C951 1.384 . S
H954 C960 0.930 . S
H955 C964 0.930 . S
H956 C969 0.929 . S
H957 C967 0.929 . S
H958 C962 0.929 . S
H959 C968 0.929 . S
C960 H954 0.930 . S
C960 C961 1.367 . S
C960 C968 1.378 . S
C961 C960 1.367 . S
C961 C969 1.433 . S
C962 H958 0.929 . S
C962 C964 1.378 1_545 S
C962 C966 1.350 . S
C963 C966 1.463 . S
C963 C968 1.350 . S
C963 N971 1.427 . S
C964 H955 0.930 . S
C964 C962 1.378 1_565 S
C964 C965 1.367 . S
C965 C964 1.367 . S
C965 C967 1.433 . S
C966 C962 1.350 . S
C966 C963 1.463 . S
C966 N970 1.427 1_545 S
C967 H957 0.929 . S
C967 C965 1.433 . S
C967 N970 1.384 . S
C968 H959 0.929 . S
C968 C960 1.378 . S
C968 C963 1.350 . S
C969 H956 0.929 . S
C969 C961 1.433 . S
C969 N971 1.384 . S
N970 C966 1.427 1_565 S
N970 C967 1.384 . S
N971 C963 1.427 . S
N971 C969 1.384 . S
H972 C978 0.930 . S
H973 C982 0.930 . S
H974 C987 0.929 . S
H975 C985 0.929 . S
H976 C980 0.929 . S
H977 C986 0.929 . S
C978 H972 0.930 . S
C978 C979 1.367 . S
C978 C986 1.378 . S
C979 C978 1.367 . S
C979 C987 1.433 . S
C980 H976 0.929 . S
C980 C982 1.378 . S
C980 C984 1.350 . S
C981 C984 1.463 . S
C981 C986 1.350 . S
C981 N989 1.427 . S
C982 H973 0.930 . S
C982 C980 1.378 . S
C982 C983 1.367 . S
C983 C982 1.367 . S
C983 C985 1.433 . S
C984 C980 1.350 . S
C984 C981 1.463 . S
C984 N988 1.427 . S
C985 H975 0.929 . S
C985 C983 1.433 . S
C985 N988 1.384 . S
C986 H977 0.929 . S
C986 C978 1.378 . S
C986 C981 1.350 . S
C987 H974 0.929 . S
C987 C979 1.433 . S
C987 N989 1.384 . S
N988 C984 1.427 . S
N988 C985 1.384 . S
N989 C981 1.427 . S
N989 C987 1.384 . S
H990 C996 0.930 . S
H991 C1000 0.930 . S
H992 C1005 0.929 . S
H993 C1003 0.929 . S
H994 C998 0.929 . S
H995 C1004 0.929 . S
C996 H990 0.930 . S
C996 C997 1.367 . S
C996 C1004 1.378 . S
C997 C996 1.367 . S
C997 C1005 1.433 . S
C998 H994 0.929 . S
C998 C1000 1.378 . S
C998 C1002 1.350 . S
C999 C1002 1.463 . S
C999 C1004 1.350 . S
C999 N1007 1.427 . S
C1000 H991 0.930 . S
C1000 C998 1.378 . S
C1000 C1001 1.367 . S
C1001 C1000 1.367 . S
C1001 C1003 1.433 . S
C1002 C998 1.350 . S
C1002 C999 1.463 . S
C1002 N1006 1.427 . S
C1003 H993 0.929 . S
C1003 C1001 1.433 . S
C1003 N1006 1.384 . S
C1004 H995 0.929 . S
C1004 C996 1.378 . S
C1004 C999 1.350 . S
C1005 H992 0.929 . S
C1005 C997 1.433 . S
C1005 N1007 1.384 . S
N1006 C1002 1.427 . S
N1006 C1003 1.384 . S
N1007 C999 1.427 . S
N1007 C1005 1.384 . S
H1008 C1014 0.930 . S
H1009 C1018 0.930 . S
H1010 C1023 0.929 . S
H1011 C1021 0.929 . S
H1012 C1016 0.929 . S
H1013 C1022 0.929 . S
C1014 H1008 0.930 . S
C1014 C1015 1.367 . S
C1014 C1022 1.378 . S
C1015 C1014 1.367 . S
C1015 C1023 1.433 . S
C1016 H1012 0.929 . S
C1016 C1018 1.378 . S
C1016 C1020 1.350 . S
C1017 C1020 1.463 . S
C1017 C1022 1.350 . S
C1017 N1025 1.427 . S
C1018 H1009 0.930 . S
C1018 C1016 1.378 . S
C1018 C1019 1.367 . S
C1019 C1018 1.367 . S
C1019 C1021 1.433 . S
C1020 C1016 1.350 . S
C1020 C1017 1.463 . S
C1020 N1024 1.427 . S
C1021 H1011 0.929 . S
C1021 C1019 1.433 . S
C1021 N1024 1.384 . S
C1022 H1013 0.929 . S
C1022 C1014 1.378 . S
C1022 C1017 1.350 . S
C1023 H1010 0.929 . S
C1023 C1015 1.433 . S
C1023 N1025 1.384 . S
N1024 C1020 1.427 . S
N1024 C1021 1.384 . S
N1025 C1017 1.427 . S
N1025 C1023 1.384 . S
H1026 C1032 0.930 . S
H1027 C1036 0.930 . S
H1028 C1041 0.929 . S
H1029 C1039 0.929 . S
H1030 C1034 0.929 . S
H1031 C1040 0.929 . S
C1032 H1026 0.930 . S
C1032 C1033 1.367 . S
C1032 C1040 1.378 . S
C1033 C1032 1.367 . S
C1033 C1041 1.433 . S
C1034 H1030 0.929 . S
C1034 C1036 1.378 . S
C1034 C1038 1.350 . S
C1035 C1038 1.463 . S
C1035 C1040 1.350 . S
C1035 N1043 1.427 . S
C1036 H1027 0.930 . S
C1036 C1034 1.378 . S
C1036 C1037 1.367 . S
C1037 C1036 1.367 . S
C1037 C1039 1.433 . S
C1038 C1034 1.350 . S
C1038 C1035 1.463 . S
C1038 N1042 1.427 . S
C1039 H1029 0.929 . S
C1039 C1037 1.433 . S
C1039 N1042 1.384 . S
C1040 H1031 0.929 . S
C1040 C1032 1.378 . S
C1040 C1035 1.350 . S
C1041 H1028 0.929 . S
C1041 C1033 1.433 . S
C1041 N1043 1.384 . S
N1042 C1038 1.427 . S
N1042 C1039 1.384 . S
N1043 C1035 1.427 . S
N1043 C1041 1.384 . S
H1044 C1050 0.930 . S
H1045 C1054 0.930 . S
H1046 C1059 0.929 . S
H1047 C1057 0.929 . S
H1048 C1052 0.929 . S
H1049 C1058 0.929 . S
C1050 H1044 0.930 . S
C1050 C1051 1.367 . S
C1050 C1058 1.378 . S
C1051 C1050 1.367 . S
C1051 C1059 1.433 . S
C1052 H1048 0.929 . S
C1052 C1054 1.378 . S
C1052 C1056 1.350 . S
C1053 C1056 1.463 . S
C1053 C1058 1.350 . S
C1053 N1061 1.427 . S
C1054 H1045 0.930 . S
C1054 C1052 1.378 . S
C1054 C1055 1.367 . S
C1055 C1054 1.367 . S
C1055 C1057 1.433 . S
C1056 C1052 1.350 . S
C1056 C1053 1.463 . S
C1056 N1060 1.427 . S
C1057 H1047 0.929 . S
C1057 C1055 1.433 . S
C1057 N1060 1.384 . S
C1058 H1049 0.929 . S
C1058 C1050 1.378 . S
C1058 C1053 1.350 . S
C1059 H1046 0.929 . S
C1059 C1051 1.433 . S
C1059 N1061 1.384 . S
N1060 C1056 1.427 . S
N1060 C1057 1.384 . S
N1061 C1053 1.427 . S
N1061 C1059 1.384 . S
H1062 C1068 0.930 . S
H1063 C1072 0.930 . S
H1064 C1077 0.929 . S
H1065 C1075 0.929 . S
H1066 C1070 0.929 . S
H1067 C1076 0.929 . S
C1068 H1062 0.930 . S
C1068 C1069 1.367 . S
C1068 C1076 1.378 . S
C1069 C1068 1.367 . S
C1069 C1077 1.433 . S
C1070 H1066 0.929 . S
C1070 C1072 1.378 . S
C1070 C1074 1.350 . S
C1071 C1074 1.463 . S
C1071 C1076 1.350 . S
C1071 N1079 1.427 . S
C1072 H1063 0.930 . S
C1072 C1070 1.378 . S
C1072 C1073 1.367 . S
C1073 C1072 1.367 . S
C1073 C1075 1.433 . S
C1074 C1070 1.350 . S
C1074 C1071 1.463 . S
C1074 N1078 1.427 . S
C1075 H1065 0.929 . S
C1075 C1073 1.433 . S
C1075 N1078 1.384 . S
C1076 H1067 0.929 . S
C1076 C1068 1.378 . S
C1076 C1071 1.350 . S
C1077 H1064 0.929 . S
C1077 C1069 1.433 . S
C1077 N1079 1.384 . S
N1078 C1074 1.427 . S
N1078 C1075 1.384 . S
N1079 C1071 1.427 . S
N1079 C1077 1.384 . S
H1080 C1086 0.930 1_545 S
H1081 C1090 0.930 . S
H1082 C1095 0.929 1_545 S
H1083 C1093 0.929 . S
H1084 C1088 0.929 . S
H1085 C1094 0.929 . S
C1086 H1080 0.930 1_565 S
C1086 C1087 1.367 1_565 S
C1086 C1094 1.378 . S
C1087 C1086 1.367 1_545 S
C1087 C1095 1.433 1_545 S
C1088 H1084 0.929 . S
C1088 C1090 1.378 . S
C1088 C1092 1.350 . S
C1089 C1092 1.463 . S
C1089 C1094 1.350 . S
C1089 N1097 1.427 . S
C1090 H1081 0.930 . S
C1090 C1088 1.378 . S
C1090 C1091 1.367 . S
C1091 C1090 1.367 . S
C1091 C1093 1.433 . S
C1092 C1088 1.350 . S
C1092 C1089 1.463 . S
C1092 N1096 1.427 . S
C1093 H1083 0.929 . S
C1093 C1091 1.433 . S
C1093 N1096 1.384 . S
C1094 H1085 0.929 . S
C1094 C1086 1.378 . S
C1094 C1089 1.350 . S
C1095 H1082 0.929 1_565 S
C1095 C1087 1.433 1_565 S
C1095 N1097 1.384 . S
N1096 C1092 1.427 . S
N1096 C1093 1.384 . S
N1097 C1089 1.427 . S
N1097 C1095 1.384 . S
H1098 C1104 0.930 . S
H1099 C1108 0.930 . S
H1100 C1113 0.929 . S
H1101 C1111 0.929 . S
H1102 C1106 0.929 . S
H1103 C1112 0.929 . S
C1104 H1098 0.930 . S
C1104 C1105 1.367 . S
C1104 C1112 1.378 . S
C1105 C1104 1.367 . S
C1105 C1113 1.433 . S
C1106 H1102 0.929 . S
C1106 C1108 1.378 . S
C1106 C1110 1.350 . S
C1107 C1110 1.463 . S
C1107 C1112 1.350 . S
C1107 N1115 1.427 . S
C1108 H1099 0.930 . S
C1108 C1106 1.378 . S
C1108 C1109 1.367 . S
C1109 C1108 1.367 . S
C1109 C1111 1.433 . S
C1110 C1106 1.350 . S
C1110 C1107 1.463 . S
C1110 N1114 1.427 . S
C1111 H1101 0.929 . S
C1111 C1109 1.433 . S
C1111 N1114 1.384 . S
C1112 H1103 0.929 . S
C1112 C1104 1.378 . S
C1112 C1107 1.350 . S
C1113 H1100 0.929 . S
C1113 C1105 1.433 . S
C1113 N1115 1.384 . S
N1114 C1110 1.427 . S
N1114 C1111 1.384 . S
N1115 C1107 1.427 . S
N1115 C1113 1.384 . S
H1116 C1122 0.930 . S
H1117 C1126 0.930 . S
H1118 C1131 0.929 . S
H1119 C1129 0.929 . S
H1120 C1124 0.929 . S
H1121 C1130 0.929 . S
C1122 H1116 0.930 . S
C1122 C1123 1.367 . S
C1122 C1130 1.378 . S
C1123 C1122 1.367 . S
C1123 C1131 1.433 . S
C1124 H1120 0.929 . S
C1124 C1126 1.378 . S
C1124 C1128 1.350 . S
C1125 C1128 1.463 . S
C1125 C1130 1.350 . S
C1125 N1133 1.427 . S
C1126 H1117 0.930 . S
C1126 C1124 1.378 . S
C1126 C1127 1.367 . S
C1127 C1126 1.367 . S
C1127 C1129 1.433 . S
C1128 C1124 1.350 . S
C1128 C1125 1.463 . S
C1128 N1132 1.427 . S
C1129 H1119 0.929 . S
C1129 C1127 1.433 . S
C1129 N1132 1.384 . S
C1130 H1121 0.929 . S
C1130 C1122 1.378 . S
C1130 C1125 1.350 . S
C1131 H1118 0.929 . S
C1131 C1123 1.433 . S
C1131 N1133 1.384 . S
N1132 C1128 1.427 . S
N1132 C1129 1.384 . S
N1133 C1125 1.427 . S
N1133 C1131 1.384 . S
H1134 C1140 0.930 . S
H1135 C1144 0.930 . S
H1136 C1149 0.929 . S
H1137 C1147 0.929 . S
H1138 C1142 0.929 . S
H1139 C1148 0.929 . S
C1140 H1134 0.930 . S
C1140 C1141 1.367 . S
C1140 C1148 1.378 . S
C1141 C1140 1.367 . S
C1141 C1149 1.433 . S
C1142 H1138 0.929 . S
C1142 C1144 1.378 . S
C1142 C1146 1.350 . S
C1143 C1146 1.463 . S
C1143 C1148 1.350 . S
C1143 N1151 1.427 . S
C1144 H1135 0.930 . S
C1144 C1142 1.378 . S
C1144 C1145 1.367 . S
C1145 C1144 1.367 . S
C1145 C1147 1.433 . S
C1146 C1142 1.350 . S
C1146 C1143 1.463 . S
C1146 N1150 1.427 . S
C1147 H1137 0.929 . S
C1147 C1145 1.433 . S
C1147 N1150 1.384 . S
C1148 H1139 0.929 . S
C1148 C1140 1.378 . S
C1148 C1143 1.350 . S
C1149 H1136 0.929 . S
C1149 C1141 1.433 . S
C1149 N1151 1.384 . S
N1150 C1146 1.427 . S
N1150 C1147 1.384 . S
N1151 C1143 1.427 . S
N1151 C1149 1.384 . S
H1152 C1158 0.930 . S
H1153 C1162 0.930 . S
H1154 C1167 0.929 . S
H1155 C1165 0.929 . S
H1156 C1160 0.929 . S
H1157 C1166 0.929 . S
C1158 H1152 0.930 . S
C1158 C1159 1.367 . S
C1158 C1166 1.378 . S
C1159 C1158 1.367 . S
C1159 C1167 1.433 . S
C1160 H1156 0.929 . S
C1160 C1162 1.378 . S
C1160 C1164 1.350 . S
C1161 C1164 1.463 . S
C1161 C1166 1.350 . S
C1161 N1169 1.427 . S
C1162 H1153 0.930 . S
C1162 C1160 1.378 . S
C1162 C1163 1.367 . S
C1163 C1162 1.367 . S
C1163 C1165 1.433 . S
C1164 C1160 1.350 . S
C1164 C1161 1.463 . S
C1164 N1168 1.427 . S
C1165 H1155 0.929 . S
C1165 C1163 1.433 . S
C1165 N1168 1.384 . S
C1166 H1157 0.929 . S
C1166 C1158 1.378 . S
C1166 C1161 1.350 . S
C1167 H1154 0.929 . S
C1167 C1159 1.433 . S
C1167 N1169 1.384 . S
N1168 C1164 1.427 . S
N1168 C1165 1.384 . S
N1169 C1161 1.427 . S
N1169 C1167 1.384 . S
H1170 C1176 0.930 . S
H1171 C1180 0.930 . S
H1172 C1185 0.929 . S
H1173 C1183 0.929 . S
H1174 C1178 0.929 . S
H1175 C1184 0.929 . S
C1176 H1170 0.930 . S
C1176 C1177 1.367 . S
C1176 C1184 1.378 . S
C1177 C1176 1.367 . S
C1177 C1185 1.433 . S
C1178 H1174 0.929 . S
C1178 C1180 1.378 . S
C1178 C1182 1.350 . S
C1179 C1182 1.463 . S
C1179 C1184 1.350 . S
C1179 N1187 1.427 . S
C1180 H1171 0.930 . S
C1180 C1178 1.378 . S
C1180 C1181 1.367 . S
C1181 C1180 1.367 . S
C1181 C1183 1.433 . S
C1182 C1178 1.350 . S
C1182 C1179 1.463 . S
C1182 N1186 1.427 . S
C1183 H1173 0.929 . S
C1183 C1181 1.433 . S
C1183 N1186 1.384 . S
C1184 H1175 0.929 . S
C1184 C1176 1.378 . S
C1184 C1179 1.350 . S
C1185 H1172 0.929 . S
C1185 C1177 1.433 . S
C1185 N1187 1.384 . S
N1186 C1182 1.427 . S
N1186 C1183 1.384 . S
N1187 C1179 1.427 . S
N1187 C1185 1.384 . S
H1188 C1194 0.930 . S
H1189 C1198 0.930 . S
H1190 C1203 0.929 . S
H1191 C1201 0.929 . S
H1192 C1196 0.929 . S
H1193 C1202 0.929 . S
C1194 H1188 0.930 . S
C1194 C1195 1.367 . S
C1194 C1202 1.378 . S
C1195 C1194 1.367 . S
C1195 C1203 1.433 . S
C1196 H1192 0.929 . S
C1196 C1198 1.378 . S
C1196 C1200 1.350 . S
C1197 C1200 1.463 1_565 S
C1197 C1202 1.350 . S
C1197 N1205 1.427 . S
C1198 H1189 0.930 . S
C1198 C1196 1.378 . S
C1198 C1199 1.367 . S
C1199 C1198 1.367 . S
C1199 C1201 1.433 . S
C1200 C1196 1.350 . S
C1200 C1197 1.463 1_545 S
C1200 N1204 1.427 . S
C1201 H1191 0.929 . S
C1201 C1199 1.433 . S
C1201 N1204 1.384 . S
C1202 H1193 0.929 . S
C1202 C1194 1.378 . S
C1202 C1197 1.350 . S
C1203 H1190 0.929 . S
C1203 C1195 1.433 . S
C1203 N1205 1.384 . S
N1204 C1200 1.427 . S
N1204 C1201 1.384 . S
N1205 C1197 1.427 . S
N1205 C1203 1.384 . S
H1206 C1212 0.930 . S
H1207 C1216 0.930 . S
H1208 C1221 0.929 . S
H1209 C1219 0.929 . S
H1210 C1214 0.929 . S
H1211 C1220 0.929 . S
C1212 H1206 0.930 . S
C1212 C1213 1.367 . S
C1212 C1220 1.378 . S
C1213 C1212 1.367 . S
C1213 C1221 1.433 . S
C1214 H1210 0.929 . S
C1214 C1216 1.378 . S
C1214 C1218 1.350 . S
C1215 C1218 1.463 1_455 S
C1215 C1220 1.350 . S
C1215 N1223 1.427 . S
C1216 H1207 0.930 . S
C1216 C1214 1.378 . S
C1216 C1217 1.367 . S
C1217 C1216 1.367 . S
C1217 C1219 1.433 . S
C1218 C1214 1.350 . S
C1218 C1215 1.463 1_655 S
C1218 N1222 1.427 . S
C1219 H1209 0.929 . S
C1219 C1217 1.433 . S
C1219 N1222 1.384 . S
C1220 H1211 0.929 . S
C1220 C1212 1.378 . S
C1220 C1215 1.350 . S
C1221 H1208 0.929 . S
C1221 C1213 1.433 . S
C1221 N1223 1.384 . S
N1222 C1218 1.427 . S
N1222 C1219 1.384 . S
N1223 C1215 1.427 . S
N1223 C1221 1.384 . S
H1224 C1230 0.930 . S
H1225 C1234 0.930 . S
H1226 C1239 0.929 . S
H1227 C1237 0.929 . S
H1228 C1232 0.929 . S
H1229 C1238 0.929 . S
C1230 H1224 0.930 . S
C1230 C1231 1.367 . S
C1230 C1238 1.378 . S
C1231 C1230 1.367 . S
C1231 C1239 1.433 . S
C1232 H1228 0.929 . S
C1232 C1234 1.378 . S
C1232 C1236 1.350 . S
C1233 C1236 1.463 . S
C1233 C1238 1.350 . S
C1233 N1241 1.427 . S
C1234 H1225 0.930 . S
C1234 C1232 1.378 . S
C1234 C1235 1.367 . S
C1235 C1234 1.367 . S
C1235 C1237 1.433 . S
C1236 C1232 1.350 . S
C1236 C1233 1.463 . S
C1236 N1240 1.427 . S
C1237 H1227 0.929 . S
C1237 C1235 1.433 . S
C1237 N1240 1.384 . S
C1238 H1229 0.929 . S
C1238 C1230 1.378 . S
C1238 C1233 1.350 . S
C1239 H1226 0.929 . S
C1239 C1231 1.433 . S
C1239 N1241 1.384 . S
N1240 C1236 1.427 . S
N1240 C1237 1.384 . S
N1241 C1233 1.427 . S
N1241 C1239 1.384 . S
H1242 C1248 0.930 . S
H1243 C1252 0.930 . S
H1244 C1257 0.925 1_455 S
H1245 C1255 0.929 . S
H1246 C1250 0.929 . S
H1247 C1256 0.929 . S
C1248 H1242 0.930 . S
C1248 C1249 1.367 1_655 S
C1248 C1256 1.378 . S
C1249 C1248 1.367 1_455 S
C1249 C1257 1.419 1_455 S
C1250 H1246 0.929 . S
C1250 C1252 1.378 . S
C1250 C1254 1.350 . S
C1251 C1254 1.463 . S
C1251 C1256 1.350 . S
C1251 N1259 1.427 . S
C1252 H1243 0.930 . S
C1252 C1250 1.378 . S
C1252 C1253 1.367 . S
C1253 C1252 1.367 . S
C1253 C1255 1.433 . S
C1254 C1250 1.350 . S
C1254 C1251 1.463 . S
C1254 N1258 1.427 . S
C1255 H1245 0.929 . S
C1255 C1253 1.433 . S
C1255 N1258 1.384 . S
C1256 H1247 0.929 . S
C1256 C1248 1.378 . S
C1256 C1251 1.350 . S
C1257 H1244 0.925 1_655 S
C1257 C1249 1.419 1_655 S
C1257 N1259 1.403 . S
N1258 C1254 1.427 . S
N1258 C1255 1.384 . S
N1259 C1251 1.427 . S
N1259 C1257 1.403 . S
H1260 C1266 0.930 . S
H1261 C1270 0.930 . S
H1262 C1275 0.929 . S
H1263 C1273 0.929 . S
H1264 C1268 0.929 . S
H1265 C1274 0.929 . S
C1266 H1260 0.930 . S
C1266 C1267 1.367 . S
C1266 C1274 1.378 . S
C1267 C1266 1.367 . S
C1267 C1275 1.433 . S
C1268 H1264 0.929 . S
C1268 C1270 1.378 . S
C1268 C1272 1.350 . S
C1269 C1272 1.463 . S
C1269 C1274 1.350 . S
C1269 N1277 1.427 . S
C1270 H1261 0.930 . S
C1270 C1268 1.378 . S
C1270 C1271 1.367 . S
C1271 C1270 1.367 . S
C1271 C1273 1.433 . S
C1272 C1268 1.350 . S
C1272 C1269 1.463 . S
C1272 N1276 1.427 . S
C1273 H1263 0.929 . S
C1273 C1271 1.433 . S
C1273 N1276 1.384 . S
C1274 H1265 0.929 . S
C1274 C1266 1.378 . S
C1274 C1269 1.350 . S
C1275 H1262 0.929 . S
C1275 C1267 1.433 . S
C1275 N1277 1.384 . S
N1276 C1272 1.427 . S
N1276 C1273 1.384 . S
N1277 C1269 1.427 . S
N1277 C1275 1.384 . S
H1278 C1284 0.930 . S
H1279 C1288 0.930 . S
H1280 C1293 0.929 1_565 S
H1281 C1291 0.929 . S
H1282 C1286 0.929 . S
H1283 C1292 0.929 . S
C1284 H1278 0.930 . S
C1284 C1285 1.367 1_545 S
C1284 C1292 1.378 . S
C1285 C1284 1.367 1_565 S
C1285 C1293 1.433 1_565 S
C1286 H1282 0.929 . S
C1286 C1288 1.378 . S
C1286 C1290 1.350 . S
C1287 C1290 1.463 . S
C1287 C1292 1.350 . S
C1287 N1295 1.427 . S
C1288 H1279 0.930 . S
C1288 C1286 1.378 . S
C1288 C1289 1.367 . S
C1289 C1288 1.367 . S
C1289 C1291 1.433 . S
C1290 C1286 1.350 . S
C1290 C1287 1.463 . S
C1290 N1294 1.427 . S
C1291 H1281 0.929 . S
C1291 C1289 1.433 . S
C1291 N1294 1.384 . S
C1292 H1283 0.929 . S
C1292 C1284 1.378 . S
C1292 C1287 1.350 . S
C1293 H1280 0.929 1_545 S
C1293 C1285 1.433 1_545 S
C1293 N1295 1.384 . S
N1294 C1290 1.427 . S
N1294 C1291 1.384 . S
N1295 C1287 1.427 . S
N1295 C1293 1.384 . S
H1296 C1302 0.930 . S
H1297 C1306 0.930 . S
H1298 C1311 0.929 . S
H1299 C1309 0.929 . S
H1300 C1304 0.929 . S
H1301 C1310 0.929 . S
C1302 H1296 0.930 . S
C1302 C1303 1.367 . S
C1302 C1310 1.378 . S
C1303 C1302 1.367 . S
C1303 C1311 1.433 . S
C1304 H1300 0.929 . S
C1304 C1306 1.378 . S
C1304 C1308 1.350 . S
C1305 C1308 1.463 . S
C1305 C1310 1.350 . S
C1305 N1313 1.427 . S
C1306 H1297 0.930 . S
C1306 C1304 1.378 . S
C1306 C1307 1.367 . S
C1307 C1306 1.367 . S
C1307 C1309 1.433 . S
C1308 C1304 1.350 . S
C1308 C1305 1.463 . S
C1308 N1312 1.427 . S
C1309 H1299 0.929 . S
C1309 C1307 1.433 . S
C1309 N1312 1.384 . S
C1310 H1301 0.929 . S
C1310 C1302 1.378 . S
C1310 C1305 1.350 . S
C1311 H1298 0.929 . S
C1311 C1303 1.433 . S
C1311 N1313 1.384 . S
N1312 C1308 1.427 . S
N1312 C1309 1.384 . S
N1313 C1305 1.427 . S
N1313 C1311 1.384 . S
H1314 C1320 0.930 . S
H1315 C1324 0.930 . S
H1316 C1329 0.929 . S
H1317 C1327 0.929 . S
H1318 C1322 0.929 . S
H1319 C1328 0.929 . S
C1320 H1314 0.930 . S
C1320 C1321 1.367 . S
C1320 C1328 1.378 . S
C1321 C1320 1.367 . S
C1321 C1329 1.433 . S
C1322 H1318 0.929 . S
C1322 C1324 1.378 . S
C1322 C1326 1.350 . S
C1323 C1326 1.463 . S
C1323 C1328 1.350 . S
C1323 N1331 1.427 . S
C1324 H1315 0.930 . S
C1324 C1322 1.378 . S
C1324 C1325 1.367 . S
C1325 C1324 1.367 . S
C1325 C1327 1.433 . S
C1326 C1322 1.350 . S
C1326 C1323 1.463 . S
C1326 N1330 1.427 . S
C1327 H1317 0.929 . S
C1327 C1325 1.433 . S
C1327 N1330 1.384 . S
C1328 H1319 0.929 . S
C1328 C1320 1.378 . S
C1328 C1323 1.350 . S
C1329 H1316 0.929 . S
C1329 C1321 1.433 . S
C1329 N1331 1.384 . S
N1330 C1326 1.427 . S
N1330 C1327 1.384 . S
N1331 C1323 1.427 . S
N1331 C1329 1.384 . S
H1332 C1338 0.930 . S
H1333 C1342 0.930 . S
H1334 C1347 0.929 . S
H1335 C1345 0.929 . S
H1336 C1340 0.929 . S
H1337 C1346 0.929 . S
C1338 H1332 0.930 . S
C1338 C1339 1.367 . S
C1338 C1346 1.378 . S
C1339 C1338 1.367 . S
C1339 C1347 1.433 . S
C1340 H1336 0.929 . S
C1340 C1342 1.378 . S
C1340 C1344 1.350 . S
C1341 C1344 1.463 . S
C1341 C1346 1.350 . S
C1341 N1349 1.427 . S
C1342 H1333 0.930 . S
C1342 C1340 1.378 . S
C1342 C1343 1.367 . S
C1343 C1342 1.367 . S
C1343 C1345 1.433 . S
C1344 C1340 1.350 . S
C1344 C1341 1.463 . S
C1344 N1348 1.427 . S
C1345 H1335 0.929 . S
C1345 C1343 1.433 . S
C1345 N1348 1.384 . S
C1346 H1337 0.929 . S
C1346 C1338 1.378 . S
C1346 C1341 1.350 . S
C1347 H1334 0.929 . S
C1347 C1339 1.433 . S
C1347 N1349 1.384 . S
N1348 C1344 1.427 . S
N1348 C1345 1.384 . S
N1349 C1341 1.427 . S
N1349 C1347 1.384 . S
H1350 C1356 0.930 . S
H1351 C1360 0.930 . S
H1352 C1365 0.929 . S
H1353 C1363 0.929 . S
H1354 C1358 0.929 . S
H1355 C1364 0.929 . S
C1356 H1350 0.930 . S
C1356 C1357 1.367 . S
C1356 C1364 1.378 . S
C1357 C1356 1.367 . S
C1357 C1365 1.433 . S
C1358 H1354 0.929 . S
C1358 C1360 1.378 . S
C1358 C1362 1.350 . S
C1359 C1362 1.463 . S
C1359 C1364 1.350 . S
C1359 N1367 1.427 . S
C1360 H1351 0.930 . S
C1360 C1358 1.378 . S
C1360 C1361 1.367 . S
C1361 C1360 1.367 . S
C1361 C1363 1.433 . S
C1362 C1358 1.350 . S
C1362 C1359 1.463 . S
C1362 N1366 1.427 . S
C1363 H1353 0.929 . S
C1363 C1361 1.433 . S
C1363 N1366 1.384 . S
C1364 H1355 0.929 . S
C1364 C1356 1.378 . S
C1364 C1359 1.350 . S
C1365 H1352 0.929 . S
C1365 C1357 1.433 . S
C1365 N1367 1.384 . S
N1366 C1362 1.427 . S
N1366 C1363 1.384 . S
N1367 C1359 1.427 . S
N1367 C1365 1.384 . S
H1368 C1374 0.930 . S
H1369 C1378 0.930 . S
H1370 C1383 0.929 . S
H1371 C1381 0.929 . S
H1372 C1376 0.929 . S
H1373 C1382 0.929 . S
C1374 H1368 0.930 . S
C1374 C1375 1.367 . S
C1374 C1382 1.378 . S
C1375 C1374 1.367 . S
C1375 C1383 1.433 . S
C1376 H1372 0.929 . S
C1376 C1378 1.378 . S
C1376 C1380 1.350 . S
C1377 C1380 1.463 . S
C1377 C1382 1.350 . S
C1377 N1385 1.427 . S
C1378 H1369 0.930 . S
C1378 C1376 1.378 . S
C1378 C1379 1.367 . S
C1379 C1378 1.367 . S
C1379 C1381 1.433 . S
C1380 C1376 1.350 . S
C1380 C1377 1.463 . S
C1380 N1384 1.427 . S
C1381 H1371 0.929 . S
C1381 C1379 1.433 . S
C1381 N1384 1.384 . S
C1382 H1373 0.929 . S
C1382 C1374 1.378 . S
C1382 C1377 1.350 . S
C1383 H1370 0.929 . S
C1383 C1375 1.433 . S
C1383 N1385 1.384 . S
N1384 C1380 1.427 . S
N1384 C1381 1.384 . S
N1385 C1377 1.427 . S
N1385 C1383 1.384 . S
H1386 C1392 0.930 . S
H1387 C1396 0.930 . S
H1388 C1401 0.929 . S
H1389 C1399 0.929 . S
H1390 C1394 0.929 . S
H1391 C1400 0.929 . S
C1392 H1386 0.930 . S
C1392 C1393 1.367 . S
C1392 C1400 1.378 . S
C1393 C1392 1.367 . S
C1393 C1401 1.433 . S
C1394 H1390 0.929 . S
C1394 C1396 1.378 . S
C1394 C1398 1.350 . S
C1395 C1398 1.463 . S
C1395 C1400 1.350 . S
C1395 N1403 1.427 . S
C1396 H1387 0.930 . S
C1396 C1394 1.378 . S
C1396 C1397 1.367 . S
C1397 C1396 1.367 . S
C1397 C1399 1.433 . S
C1398 C1394 1.350 . S
C1398 C1395 1.463 . S
C1398 N1402 1.427 . S
C1399 H1389 0.929 . S
C1399 C1397 1.433 . S
C1399 N1402 1.384 . S
C1400 H1391 0.929 . S
C1400 C1392 1.378 . S
C1400 C1395 1.350 . S
C1401 H1388 0.929 . S
C1401 C1393 1.433 . S
C1401 N1403 1.384 . S
N1402 C1398 1.427 . S
N1402 C1399 1.384 . S
N1403 C1395 1.427 . S
N1403 C1401 1.384 . S
H1404 C1410 0.930 . S
H1405 C1414 0.930 . S
H1406 C1419 0.929 . S
H1407 C1417 0.929 . S
H1408 C1412 0.929 . S
H1409 C1418 0.929 . S
C1410 H1404 0.930 . S
C1410 C1411 1.367 . S
C1410 C1418 1.378 . S
C1411 C1410 1.367 . S
C1411 C1419 1.433 . S
C1412 H1408 0.929 . S
C1412 C1414 1.378 . S
C1412 C1416 1.350 . S
C1413 C1416 1.463 . S
C1413 C1418 1.350 . S
C1413 N1421 1.427 . S
C1414 H1405 0.930 . S
C1414 C1412 1.378 . S
C1414 C1415 1.367 . S
C1415 C1414 1.367 . S
C1415 C1417 1.433 . S
C1416 C1412 1.350 . S
C1416 C1413 1.463 . S
C1416 N1420 1.427 . S
C1417 H1407 0.929 . S
C1417 C1415 1.433 . S
C1417 N1420 1.384 . S
C1418 H1409 0.929 . S
C1418 C1410 1.378 . S
C1418 C1413 1.350 . S
C1419 H1406 0.929 . S
C1419 C1411 1.433 . S
C1419 N1421 1.384 . S
N1420 C1416 1.427 . S
N1420 C1417 1.384 . S
N1421 C1413 1.427 . S
N1421 C1419 1.384 . S
H1422 C1428 0.930 . S
H1423 C1432 0.930 . S
H1424 C1437 0.929 . S
H1425 C1435 0.929 . S
H1426 C1430 0.929 . S
H1427 C1436 0.929 . S
C1428 H1422 0.930 . S
C1428 C1429 1.367 . S
C1428 C1436 1.378 . S
C1429 C1428 1.367 . S
C1429 C1437 1.433 . S
C1430 H1426 0.929 . S
C1430 C1432 1.378 . S
C1430 C1434 1.350 . S
C1431 C1434 1.463 . S
C1431 C1436 1.350 . S
C1431 N1439 1.427 . S
C1432 H1423 0.930 . S
C1432 C1430 1.378 . S
C1432 C1433 1.367 . S
C1433 C1432 1.367 . S
C1433 C1435 1.433 . S
C1434 C1430 1.350 . S
C1434 C1431 1.463 . S
C1434 N1438 1.427 . S
C1435 H1425 0.929 . S
C1435 C1433 1.433 . S
C1435 N1438 1.384 . S
C1436 H1427 0.929 . S
C1436 C1428 1.378 . S
C1436 C1431 1.350 . S
C1437 H1424 0.929 . S
C1437 C1429 1.433 . S
C1437 N1439 1.384 . S
N1438 C1434 1.427 . S
N1438 C1435 1.384 . S
N1439 C1431 1.427 . S
N1439 C1437 1.384 . S
H1440 C1446 0.930 . S
H1441 C1450 0.930 . S
H1442 C1455 0.929 . S
H1443 C1453 0.929 . S
H1444 C1448 0.929 . S
H1445 C1454 0.929 . S
C1446 H1440 0.930 . S
C1446 C1447 1.367 . S
C1446 C1454 1.378 . S
C1447 C1446 1.367 . S
C1447 C1455 1.433 . S
C1448 H1444 0.929 . S
C1448 C1450 1.378 . S
C1448 C1452 1.350 . S
C1449 C1452 1.463 . S
C1449 C1454 1.350 . S
C1449 N1457 1.427 . S
C1450 H1441 0.930 . S
C1450 C1448 1.378 . S
C1450 C1451 1.367 . S
C1451 C1450 1.367 . S
C1451 C1453 1.433 . S
C1452 C1448 1.350 . S
C1452 C1449 1.463 . S
C1452 N1456 1.427 . S
C1453 H1443 0.929 . S
C1453 C1451 1.433 . S
C1453 N1456 1.384 . S
C1454 H1445 0.929 . S
C1454 C1446 1.378 . S
C1454 C1449 1.350 . S
C1455 H1442 0.929 . S
C1455 C1447 1.433 . S
C1455 N1457 1.384 . S
N1456 C1452 1.427 . S
N1456 C1453 1.384 . S
N1457 C1449 1.427 . S
N1457 C1455 1.384 . S
H1458 C1464 0.930 . S
H1459 C1468 0.930 . S
H1460 C1473 0.929 . S
H1461 C1471 0.929 . S
H1462 C1466 0.929 . S
H1463 C1472 0.929 . S
C1464 H1458 0.930 . S
C1464 C1465 1.367 . S
C1464 C1472 1.378 . S
C1465 C1464 1.367 . S
C1465 C1473 1.433 . S
C1466 H1462 0.929 . S
C1466 C1468 1.378 . S
C1466 C1470 1.350 . S
C1467 C1470 1.463 . S
C1467 C1472 1.350 . S
C1467 N1475 1.427 . S
C1468 H1459 0.930 . S
C1468 C1466 1.378 . S
C1468 C1469 1.367 . S
C1469 C1468 1.367 . S
C1469 C1471 1.433 . S
C1470 C1466 1.350 . S
C1470 C1467 1.463 . S
C1470 N1474 1.427 . S
C1471 H1461 0.929 . S
C1471 C1469 1.433 . S
C1471 N1474 1.384 . S
C1472 H1463 0.929 . S
C1472 C1464 1.378 . S
C1472 C1467 1.350 . S
C1473 H1460 0.929 . S
C1473 C1465 1.433 . S
C1473 N1475 1.384 . S
N1474 C1470 1.427 . S
N1474 C1471 1.384 . S
N1475 C1467 1.427 . S
N1475 C1473 1.384 . S
H1476 C1482 0.930 . S
H1477 C1486 0.930 . S
H1478 C1491 0.929 . S
H1479 C1489 0.929 . S
H1480 C1484 0.929 . S
H1481 C1490 0.929 . S
C1482 H1476 0.930 . S
C1482 C1483 1.367 . S
C1482 C1490 1.378 . S
C1483 C1482 1.367 . S
C1483 C1491 1.433 . S
C1484 H1480 0.929 . S
C1484 C1486 1.378 . S
C1484 C1488 1.350 . S
C1485 C1488 1.463 . S
C1485 C1490 1.350 . S
C1485 N1493 1.427 . S
C1486 H1477 0.930 . S
C1486 C1484 1.378 . S
C1486 C1487 1.367 . S
C1487 C1486 1.367 . S
C1487 C1489 1.433 . S
C1488 C1484 1.350 . S
C1488 C1485 1.463 . S
C1488 N1492 1.427 . S
C1489 H1479 0.929 . S
C1489 C1487 1.433 . S
C1489 N1492 1.384 . S
C1490 H1481 0.929 . S
C1490 C1482 1.378 . S
C1490 C1485 1.350 . S
C1491 H1478 0.929 . S
C1491 C1483 1.433 . S
C1491 N1493 1.384 . S
N1492 C1488 1.427 . S
N1492 C1489 1.384 . S
N1493 C1485 1.427 . S
N1493 C1491 1.384 . S
H1494 C1500 0.930 . S
H1495 C1504 0.930 . S
H1496 C1509 0.929 . S
H1497 C1507 0.929 . S
H1498 C1502 0.929 . S
H1499 C1508 0.929 . S
C1500 H1494 0.930 . S
C1500 C1501 1.367 . S
C1500 C1508 1.378 . S
C1501 C1500 1.367 . S
C1501 C1509 1.433 . S
C1502 H1498 0.929 . S
C1502 C1504 1.378 . S
C1502 C1506 1.350 . S
C1503 C1506 1.463 . S
C1503 C1508 1.350 . S
C1503 N1511 1.427 . S
C1504 H1495 0.930 . S
C1504 C1502 1.378 . S
C1504 C1505 1.367 . S
C1505 C1504 1.367 . S
C1505 C1507 1.433 . S
C1506 C1502 1.350 . S
C1506 C1503 1.463 . S
C1506 N1510 1.427 . S
C1507 H1497 0.929 . S
C1507 C1505 1.433 . S
C1507 N1510 1.384 . S
C1508 H1499 0.929 . S
C1508 C1500 1.378 . S
C1508 C1503 1.350 . S
C1509 H1496 0.929 . S
C1509 C1501 1.433 . S
C1509 N1511 1.384 . S
N1510 C1506 1.427 . S
N1510 C1507 1.384 . S
N1511 C1503 1.427 . S
N1511 C1509 1.384 . S
H1512 C1518 0.930 . S
H1513 C1522 0.930 . S
H1514 C1527 0.929 . S
H1515 C1525 0.929 . S
H1516 C1520 0.929 . S
H1517 C1526 0.929 . S
C1518 H1512 0.930 . S
C1518 C1519 1.367 . S
C1518 C1526 1.378 . S
C1519 C1518 1.367 . S
C1519 C1527 1.433 . S
C1520 H1516 0.929 . S
C1520 C1522 1.378 . S
C1520 C1524 1.350 . S
C1521 C1524 1.463 . S
C1521 C1526 1.350 . S
C1521 N1529 1.427 . S
C1522 H1513 0.930 . S
C1522 C1520 1.378 . S
C1522 C1523 1.367 . S
C1523 C1522 1.367 . S
C1523 C1525 1.433 . S
C1524 C1520 1.350 . S
C1524 C1521 1.463 . S
C1524 N1528 1.427 . S
C1525 H1515 0.929 . S
C1525 C1523 1.433 . S
C1525 N1528 1.384 . S
C1526 H1517 0.929 . S
C1526 C1518 1.378 . S
C1526 C1521 1.350 . S
C1527 H1514 0.929 . S
C1527 C1519 1.433 . S
C1527 N1529 1.384 . S
N1528 C1524 1.427 . S
N1528 C1525 1.384 . S
N1529 C1521 1.427 . S
N1529 C1527 1.384 . S
H1530 C1536 0.930 . S
H1531 C1540 0.930 . S
H1532 C1545 0.929 . S
H1533 C1543 0.929 . S
H1534 C1538 0.929 . S
H1535 C1544 0.929 . S
C1536 H1530 0.930 . S
C1536 C1537 1.367 . S
C1536 C1544 1.378 . S
C1537 C1536 1.367 . S
C1537 C1545 1.433 . S
C1538 H1534 0.929 . S
C1538 C1540 1.378 . S
C1538 C1542 1.350 . S
C1539 C1542 1.463 . S
C1539 C1544 1.350 . S
C1539 N1547 1.427 . S
C1540 H1531 0.930 . S
C1540 C1538 1.378 . S
C1540 C1541 1.367 . S
C1541 C1540 1.367 . S
C1541 C1543 1.433 . S
C1542 C1538 1.350 . S
C1542 C1539 1.463 . S
C1542 N1546 1.427 . S
C1543 H1533 0.929 . S
C1543 C1541 1.433 . S
C1543 N1546 1.384 . S
C1544 H1535 0.929 . S
C1544 C1536 1.378 . S
C1544 C1539 1.350 . S
C1545 H1532 0.929 . S
C1545 C1537 1.433 . S
C1545 N1547 1.384 . S
N1546 C1542 1.427 . S
N1546 C1543 1.384 . S
N1547 C1539 1.427 . S
N1547 C1545 1.384 . S
H1548 C1554 0.930 . S
H1549 C1558 0.930 . S
H1550 C1563 0.929 . S
H1551 C1561 0.929 . S
H1552 C1556 0.929 . S
H1553 C1562 0.929 . S
C1554 H1548 0.930 . S
C1554 C1555 1.367 . S
C1554 C1562 1.378 . S
C1555 C1554 1.367 . S
C1555 C1563 1.433 . S
C1556 H1552 0.929 . S
C1556 C1558 1.378 . S
C1556 C1560 1.350 . S
C1557 C1560 1.463 . S
C1557 C1562 1.350 . S
C1557 N1565 1.427 . S
C1558 H1549 0.930 . S
C1558 C1556 1.378 . S
C1558 C1559 1.367 . S
C1559 C1558 1.367 . S
C1559 C1561 1.433 . S
C1560 C1556 1.350 . S
C1560 C1557 1.463 . S
C1560 N1564 1.427 . S
C1561 H1551 0.929 . S
C1561 C1559 1.433 . S
C1561 N1564 1.384 . S
C1562 H1553 0.929 . S
C1562 C1554 1.378 . S
C1562 C1557 1.350 . S
C1563 H1550 0.929 . S
C1563 C1555 1.433 . S
C1563 N1565 1.384 . S
N1564 C1560 1.427 . S
N1564 C1561 1.384 . S
N1565 C1557 1.427 . S
N1565 C1563 1.384 . S
H1566 C1572 0.930 . S
H1567 C1576 0.930 . S
H1568 C1581 0.929 . S
H1569 C1579 0.929 . S
H1570 C1574 0.929 . S
H1571 C1580 0.929 . S
C1572 H1566 0.930 . S
C1572 C1573 1.367 . S
C1572 C1580 1.378 . S
C1573 C1572 1.367 . S
C1573 C1581 1.433 . S
C1574 H1570 0.929 . S
C1574 C1576 1.378 . S
C1574 C1578 1.350 . S
C1575 C1578 1.463 . S
C1575 C1580 1.350 . S
C1575 N1583 1.427 . S
C1576 H1567 0.930 . S
C1576 C1574 1.378 . S
C1576 C1577 1.367 . S
C1577 C1576 1.367 . S
C1577 C1579 1.433 . S
C1578 C1574 1.350 . S
C1578 C1575 1.463 . S
C1578 N1582 1.427 . S
C1579 H1569 0.929 . S
C1579 C1577 1.433 . S
C1579 N1582 1.384 . S
C1580 H1571 0.929 . S
C1580 C1572 1.378 . S
C1580 C1575 1.350 . S
C1581 H1568 0.929 . S
C1581 C1573 1.433 . S
C1581 N1583 1.384 . S
N1582 C1578 1.427 . S
N1582 C1579 1.384 . S
N1583 C1575 1.427 . S
N1583 C1581 1.384 . S
H1584 C1590 0.930 . S
H1585 C1594 0.930 . S
H1586 C1599 0.929 . S
H1587 C1597 0.929 . S
H1588 C1592 0.929 . S
H1589 C1598 0.929 . S
C1590 H1584 0.930 . S
C1590 C1591 1.367 . S
C1590 C1598 1.378 . S
C1591 C1590 1.367 . S
C1591 C1599 1.433 . S
C1592 H1588 0.929 . S
C1592 C1594 1.378 . S
C1592 C1596 1.350 . S
C1593 C1596 1.463 . S
C1593 C1598 1.350 . S
C1593 N1601 1.427 . S
C1594 H1585 0.930 . S
C1594 C1592 1.378 . S
C1594 C1595 1.367 . S
C1595 C1594 1.367 . S
C1595 C1597 1.433 . S
C1596 C1592 1.350 . S
C1596 C1593 1.463 . S
C1596 N1600 1.427 . S
C1597 H1587 0.929 . S
C1597 C1595 1.433 . S
C1597 N1600 1.384 . S
C1598 H1589 0.929 . S
C1598 C1590 1.378 . S
C1598 C1593 1.350 . S
C1599 H1586 0.929 . S
C1599 C1591 1.433 . S
C1599 N1601 1.384 . S
N1600 C1596 1.427 . S
N1600 C1597 1.384 . S
N1601 C1593 1.427 . S
N1601 C1599 1.384 . S
H1602 C1608 0.930 . S
H1603 C1612 0.930 . S
H1604 C1617 0.929 . S
H1605 C1615 0.929 . S
H1606 C1610 0.929 . S
H1607 C1616 0.929 . S
C1608 H1602 0.930 . S
C1608 C1609 1.367 . S
C1608 C1616 1.378 . S
C1609 C1608 1.367 . S
C1609 C1617 1.433 . S
C1610 H1606 0.929 . S
C1610 C1612 1.378 . S
C1610 C1614 1.350 . S
C1611 C1614 1.463 . S
C1611 C1616 1.350 . S
C1611 N1619 1.427 . S
C1612 H1603 0.930 . S
C1612 C1610 1.378 . S
C1612 C1613 1.367 . S
C1613 C1612 1.367 . S
C1613 C1615 1.433 . S
C1614 C1610 1.350 . S
C1614 C1611 1.463 . S
C1614 N1618 1.427 . S
C1615 H1605 0.929 . S
C1615 C1613 1.433 . S
C1615 N1618 1.384 . S
C1616 H1607 0.929 . S
C1616 C1608 1.378 . S
C1616 C1611 1.350 . S
C1617 H1604 0.929 . S
C1617 C1609 1.433 . S
C1617 N1619 1.384 . S
N1618 C1614 1.427 . S
N1618 C1615 1.384 . S
N1619 C1611 1.427 . S
N1619 C1617 1.384 . S
H1620 C1626 0.930 . S
H1621 C1630 0.930 . S
H1622 C1635 0.929 . S
H1623 C1633 0.929 . S
H1624 C1628 0.929 . S
H1625 C1634 0.929 . S
C1626 H1620 0.930 . S
C1626 C1627 1.367 . S
C1626 C1634 1.378 . S
C1627 C1626 1.367 . S
C1627 C1635 1.433 . S
C1628 H1624 0.929 . S
C1628 C1630 1.378 . S
C1628 C1632 1.350 . S
C1629 C1632 1.463 . S
C1629 C1634 1.350 . S
C1629 N1637 1.427 . S
C1630 H1621 0.930 . S
C1630 C1628 1.378 . S
C1630 C1631 1.367 . S
C1631 C1630 1.367 . S
C1631 C1633 1.433 . S
C1632 C1628 1.350 . S
C1632 C1629 1.463 . S
C1632 N1636 1.427 . S
C1633 H1623 0.929 . S
C1633 C1631 1.433 . S
C1633 N1636 1.384 . S
C1634 H1625 0.929 . S
C1634 C1626 1.378 . S
C1634 C1629 1.350 . S
C1635 H1622 0.929 . S
C1635 C1627 1.433 . S
C1635 N1637 1.384 . S
N1636 C1632 1.427 . S
N1636 C1633 1.384 . S
N1637 C1629 1.427 . S
N1637 C1635 1.384 . S
H1638 C1644 0.930 . S
H1639 C1648 0.930 . S
H1640 C1653 0.929 . S
H1641 C1651 0.929 . S
H1642 C1646 0.929 . S
H1643 C1652 0.929 . S
C1644 H1638 0.930 . S
C1644 C1645 1.367 . S
C1644 C1652 1.378 . S
C1645 C1644 1.367 . S
C1645 C1653 1.433 . S
C1646 H1642 0.929 . S
C1646 C1648 1.378 . S
C1646 C1650 1.350 . S
C1647 C1650 1.463 . S
C1647 C1652 1.350 . S
C1647 N1655 1.427 . S
C1648 H1639 0.930 . S
C1648 C1646 1.378 . S
C1648 C1649 1.367 . S
C1649 C1648 1.367 . S
C1649 C1651 1.433 . S
C1650 C1646 1.350 . S
C1650 C1647 1.463 . S
C1650 N1654 1.427 . S
C1651 H1641 0.929 . S
C1651 C1649 1.433 . S
C1651 N1654 1.384 . S
C1652 H1643 0.929 . S
C1652 C1644 1.378 . S
C1652 C1647 1.350 . S
C1653 H1640 0.929 . S
C1653 C1645 1.433 . S
C1653 N1655 1.384 . S
N1654 C1650 1.427 . S
N1654 C1651 1.384 . S
N1655 C1647 1.427 . S
N1655 C1653 1.384 . S
H1656 C1662 0.930 . S
H1657 C1666 0.930 . S
H1658 C1671 0.929 . S
H1659 C1669 0.929 . S
H1660 C1664 0.929 . S
H1661 C1670 0.929 . S
C1662 H1656 0.930 . S
C1662 C1663 1.367 . S
C1662 C1670 1.378 . S
C1663 C1662 1.367 . S
C1663 C1671 1.433 . S
C1664 H1660 0.929 . S
C1664 C1666 1.378 . S
C1664 C1668 1.350 . S
C1665 C1668 1.463 . S
C1665 C1670 1.350 . S
C1665 N1673 1.427 . S
C1666 H1657 0.930 . S
C1666 C1664 1.378 . S
C1666 C1667 1.367 . S
C1667 C1666 1.367 . S
C1667 C1669 1.433 . S
C1668 C1664 1.350 . S
C1668 C1665 1.463 . S
C1668 N1672 1.427 . S
C1669 H1659 0.929 . S
C1669 C1667 1.433 . S
C1669 N1672 1.384 . S
C1670 H1661 0.929 . S
C1670 C1662 1.378 . S
C1670 C1665 1.350 . S
C1671 H1658 0.929 . S
C1671 C1663 1.433 . S
C1671 N1673 1.384 . S
N1672 C1668 1.427 . S
N1672 C1669 1.384 . S
N1673 C1665 1.427 . S
N1673 C1671 1.384 . S
C709 C253 1.730 . S
C713 C354 1.742 . S
C727 C272 1.846 . S
C731 C394 1.842 . S
C745 C234 1.610 . S
C749 C424 1.593 . S
C763 C215 1.477 . S
C767 C384 1.453 1_556 S
C785 C434 1.557 . S
C781 C177 1.565 . S
C799 C196 1.390 . S
C803 C344 1.387 1_556 S
C821 C373 1.707 . S
C817 C220 1.550 . S
C839 C413 1.663 . S
C835 C182 1.549 . S
C853 C201 1.623 . S
C857 C439 1.742 . S
C871 C258 1.430 . S
C875 C399 1.540 . S
C889 C277 1.328 . S
C893 C453 1.464 . S
C911 C359 1.553 . S
C907 C239 1.392 . S
C929 C474 1.739 . S
C925 C25 1.729 . S
C943 C44 1.847 . S
C947 C514 1.843 . S
C961 C6 1.609 . S
C965 C544 1.595 . S
C979 C329 1.477 . S
C983 C504 1.450 . S
C997 C291 1.564 . S
C1001 C554 1.555 . S
C1015 C310 1.399 . S
C1019 C464 1.393 . S
C1033 C334 1.531 . S
C1037 C493 1.705 . S
C1051 C296 1.547 . S
C1055 C533 1.662 . S
C1073 C559 1.732 . S
C1069 C315 1.632 . S
C1087 C30 1.452 . S
C1091 C519 1.542 . S
C1109 C573 1.460 . S
C1105 C49 1.331 1_455 S
C1123 C11 1.406 . S
C1127 C479 1.533 . S
C1145 C594 1.742 . S
C1141 C139 1.731 . S
C1159 C158 1.845 . S
C1163 C634 1.842 . S
C1181 C664 1.599 . S
C1177 C120 1.610 . S
C1199 C624 1.460 . S
C1195 C101 1.485 . S
C1217 C674 1.558 . S
C1213 C63 1.565 . S
C1231 C82 1.390 . S
C1235 C584 1.387 . S
C1249 C106 1.550 . S
C1253 C613 1.707 . S
C1267 C68 1.561 . S
C1271 C653 1.658 . S
C1289 C679 1.741 . S
C1285 C87 1.621 . S
C1303 C144 1.435 . S
C1307 C639 1.546 . S
C1321 C163 1.339 . S
C1325 C693 1.464 . S
C1339 C125 1.412 . S
C1343 C599 1.541 . S
C1357 C287 1.595 . S
C1361 C371 1.570 . S
C1379 C411 2.049 . S
C1375 C306 2.085 . S
C1393 C325 1.625 . S
C1397 C430 1.660 . S
C1411 C116 1.850 . S
C1415 C390 1.869 . S
C1429 C135 1.807 . S
C1433 C451 1.786 . S
C1451 C350 1.345 . S
C1447 C154 1.323 . S
C1465 C59 1.586 . S
C1469 C491 1.559 . S
C1483 C78 2.084 . S
C1487 C531 2.048 . S
C1501 C97 1.637 . S
C1505 C550 1.665 . S
C1519 C230 1.857 . S
C1523 C510 1.870 . S
C1541 C571 1.787 . S
C1537 C249 1.806 . S
C1555 C268 1.325 . S
C1559 C470 1.345 . S
C1573 C173 1.585 . S
C1577 C611 1.558 . S
C1591 C192 2.084 . S
C1595 C651 2.049 . S
C1613 C670 1.663 . S
C1609 C211 1.635 . S
C1627 C2 1.857 . S
C1631 C630 1.869 . S
C1645 C21 1.806 . S
C1649 C691 1.787 . S
C1663 C40 1.325 . S
C1667 C590 1.345 . S
