# Generated by pormake.
# Topology the, (3,8)-cn, num edge types: 1
# Building blocks:
#     Node 0, Type 0, BuildingBlock: MIDCAF_clean_linker_0, # of connection points: 3
#     Node 1, Type 0, BuildingBlock: MIDCAF_clean_linker_0, # of connection points: 3
#     Node 2, Type 0, BuildingBlock: MIDCAF_clean_linker_0, # of connection points: 3
#     Node 3, Type 0, BuildingBlock: MIDCAF_clean_linker_0, # of connection points: 3
#     Node 4, Type 0, BuildingBlock: MIDCAF_clean_linker_0, # of connection points: 3
#     Node 5, Type 0, BuildingBlock: MIDCAF_clean_linker_0, # of connection points: 3
#     Node 6, Type 0, BuildingBlock: MIDCAF_clean_linker_0, # of connection points: 3
#     Node 7, Type 0, BuildingBlock: MIDCAF_clean_linker_0, # of connection points: 3
#     Node 8, Type 1, BuildingBlock: GIZVER_clean_sbu_0, # of connection points: 8
#     Node 9, Type 1, BuildingBlock: GIZVER_clean_sbu_0, # of connection points: 8
#     Node 10, Type 1, BuildingBlock: GIZVER_clean_sbu_0, # of connection points: 8
#     Edge 11, Type (0, 1), BuildingBlock: EZIPEK_clean_linker_0, # of connection points: 2
#     Edge 12, Type (0, 1), BuildingBlock: EZIPEK_clean_linker_0, # of connection points: 2
#     Edge 13, Type (0, 1), BuildingBlock: EZIPEK_clean_linker_0, # of connection points: 2
#     Edge 14, Type (0, 1), BuildingBlock: EZIPEK_clean_linker_0, # of connection points: 2
#     Edge 15, Type (0, 1), BuildingBlock: EZIPEK_clean_linker_0, # of connection points: 2
#     Edge 16, Type (0, 1), BuildingBlock: EZIPEK_clean_linker_0, # of connection points: 2
#     Edge 17, Type (0, 1), BuildingBlock: EZIPEK_clean_linker_0, # of connection points: 2
#     Edge 18, Type (0, 1), BuildingBlock: EZIPEK_clean_linker_0, # of connection points: 2
#     Edge 19, Type (0, 1), BuildingBlock: EZIPEK_clean_linker_0, # of connection points: 2
#     Edge 20, Type (0, 1), BuildingBlock: EZIPEK_clean_linker_0, # of connection points: 2
#     Edge 21, Type (0, 1), BuildingBlock: EZIPEK_clean_linker_0, # of connection points: 2
#     Edge 22, Type (0, 1), BuildingBlock: EZIPEK_clean_linker_0, # of connection points: 2
#     Edge 23, Type (0, 1), BuildingBlock: EZIPEK_clean_linker_0, # of connection points: 2
#     Edge 24, Type (0, 1), BuildingBlock: EZIPEK_clean_linker_0, # of connection points: 2
#     Edge 25, Type (0, 1), BuildingBlock: EZIPEK_clean_linker_0, # of connection points: 2
#     Edge 26, Type (0, 1), BuildingBlock: EZIPEK_clean_linker_0, # of connection points: 2
#     Edge 27, Type (0, 1), BuildingBlock: EZIPEK_clean_linker_0, # of connection points: 2
#     Edge 28, Type (0, 1), BuildingBlock: EZIPEK_clean_linker_0, # of connection points: 2
#     Edge 29, Type (0, 1), BuildingBlock: EZIPEK_clean_linker_0, # of connection points: 2
#     Edge 30, Type (0, 1), BuildingBlock: EZIPEK_clean_linker_0, # of connection points: 2
#     Edge 31, Type (0, 1), BuildingBlock: EZIPEK_clean_linker_0, # of connection points: 2
#     Edge 32, Type (0, 1), BuildingBlock: EZIPEK_clean_linker_0, # of connection points: 2
#     Edge 33, Type (0, 1), BuildingBlock: EZIPEK_clean_linker_0, # of connection points: 2
#     Edge 34, Type (0, 1), BuildingBlock: EZIPEK_clean_linker_0, # of connection points: 2
# Relax obj value: 0.049
# Max RMSD: 0.137
# Mean RMSD: 0.073
data_MOF--net-the--node1-GIZVER_clean_sbu_0--node2-MIDCAF_clean_linker_0--edge1-EZIPEK_clean_linker_0
_symmetry_space_group_name_H-M    P1
_symmetry_Int_Tables_number       1
_symmetry_cell_setting            triclinic
loop_
_symmetry_equiv_pos_as_xyz
'x, y, z'
_cell_length_a     39.470737
_cell_length_b     37.319943
_cell_length_c     34.591706
_cell_angle_alpha  86.553117
_cell_angle_beta   95.452405
_cell_angle_gamma 104.2576
loop_
_atom_site_label
_atom_site_type_symbol
_atom_site_fract_x
_atom_site_fract_y
_atom_site_fract_z
_atom_type_partial_charge
C0 C 0.20922 0.38471 0.3996 0.0
C1 C 0.19927 0.37503 0.4373 0.0
C2 C 0.22007 0.35795 0.46385 0.0
C3 C 0.25112 0.35134 0.45277 0.0
H4 H 0.33741 0.29271 0.48124 0.0
H5 H 0.36105 0.23947 0.50508 0.0
H6 H 0.39574 0.23248 0.39183 0.0
H7 H 0.37352 0.28569 0.36835 0.0
H8 H 0.39834 0.36954 0.3262 0.0
H9 H 0.41352 0.38932 0.26148 0.0
H10 H 0.32434 0.4378 0.24378 0.0
H11 H 0.30873 0.41714 0.30815 0.0
H12 H 0.24731 0.38682 0.35943 0.0
H13 H 0.19339 0.39802 0.37889 0.0
H14 H 0.2127 0.35064 0.4932 0.0
H15 H 0.2672 0.33865 0.47376 0.0
N16 N 0.3104 0.33108 0.42119 0.0
N17 N 0.35306 0.34475 0.37614 0.0
N18 N 0.30898 0.37685 0.37179 0.0
C19 C 0.33949 0.32476 0.40753 0.0
C20 C 0.3382 0.37108 0.35831 0.0
C21 C 0.29504 0.3572 0.40326 0.0
C22 C 0.3539 0.29348 0.42309 0.0
C23 C 0.35028 0.27984 0.46164 0.0
C24 C 0.36369 0.24956 0.47523 0.0
C25 C 0.37996 0.23214 0.45007 0.0
C26 C 0.38327 0.24563 0.41161 0.0
C27 C 0.37069 0.27616 0.39835 0.0
C28 C 0.35072 0.38911 0.32138 0.0
C29 C 0.3812 0.38332 0.30791 0.0
C30 C 0.38929 0.39385 0.26997 0.0
C31 C 0.36614 0.40854 0.24347 0.0
C32 C 0.3394 0.42049 0.25966 0.0
C33 C 0.33114 0.40994 0.29776 0.0
C34 C 0.26177 0.36231 0.41529 0.0
C35 C 0.24021 0.37857 0.38872 0.0
C36 C 0.65877 0.20228 0.37396 0.0
C37 C 0.62269 0.18832 0.36439 0.0
C38 C 0.60571 0.20621 0.33452 0.0
C39 C 0.62416 0.23828 0.3155 0.0
H40 H 0.62277 0.30449 0.21402 0.0
H41 H 0.58951 0.33238 0.16262 0.0
H42 H 0.65876 0.43941 0.18362 0.0
H43 H 0.69264 0.41179 0.23508 0.0
H44 H 0.75548 0.4177 0.30681 0.0
H45 H 0.80955 0.45195 0.34192 0.0
H46 H 0.82808 0.34966 0.39318 0.0
H47 H 0.77371 0.31525 0.35901 0.0
H48 H 0.70473 0.24522 0.36415 0.0
H49 H 0.67236 0.18893 0.39699 0.0
H50 H 0.57788 0.19602 0.32679 0.0
H51 H 0.60994 0.25188 0.29332 0.0
N52 N 0.66309 0.3052 0.27757 0.0
N53 N 0.70992 0.35809 0.27978 0.0
N54 N 0.71014 0.30856 0.32507 0.0
C55 C 0.67855 0.33924 0.26268 0.0
C56 C 0.72604 0.3428 0.31085 0.0
C57 C 0.67856 0.28961 0.30873 0.0
C58 C 0.66034 0.3559 0.2291 0.0
C59 C 0.63134 0.33391 0.20753 0.0
C60 C 0.61237 0.34972 0.17786 0.0
C61 C 0.6218 0.38787 0.16917 0.0
C62 C 0.6513 0.40983 0.18966 0.0
C63 C 0.67054 0.39397 0.21918 0.0
C64 C 0.76001 0.36365 0.33018 0.0
C65 C 0.77113 0.40241 0.32534 0.0
C66 C 0.80206 0.42207 0.34542 0.0
C67 C 0.82287 0.40342 0.37032 0.0
C68 C 0.81242 0.36467 0.37428 0.0
C69 C 0.78123 0.34505 0.35474 0.0
C70 C 0.65997 0.25344 0.32624 0.0
C71 C 0.67718 0.23461 0.35526 0.0
C72 C 0.67349 0.66373 0.1874 0.0
C73 C 0.63717 0.66019 0.18121 0.0
C74 C 0.62108 0.67964 0.20447 0.0
C75 C 0.64079 0.70133 0.2343 0.0
H76 H 0.6736 0.81714 0.29185 0.0
H77 H 0.64942 0.86214 0.3218 0.0
H78 H 0.6741 0.81645 0.43544 0.0
H79 H 0.70014 0.7724 0.40549 0.0
H80 H 0.76872 0.72002 0.40018 0.0
H81 H 0.81898 0.69461 0.42446 0.0
H82 H 0.84507 0.69031 0.30685 0.0
H83 H 0.79431 0.7142 0.28246 0.0
H84 H 0.72091 0.68625 0.22226 0.0
H85 H 0.68642 0.64909 0.16964 0.0
H86 H 0.59309 0.67731 0.20012 0.0
H87 H 0.62743 0.71519 0.25239 0.0
N88 N 0.68477 0.74775 0.29449 0.0
N89 N 0.73191 0.7537 0.3427 0.0
N90 N 0.72739 0.71442 0.29087 0.0
C91 C 0.70209 0.76339 0.3276 0.0
C92 C 0.7449 0.72952 0.32402 0.0
C93 C 0.69713 0.72296 0.27612 0.0
C94 C 0.68865 0.79123 0.34635 0.0
C95 C 0.67421 0.81692 0.32324 0.0
C96 C 0.66053 0.84274 0.34032 0.0
C97 C 0.65996 0.84275 0.38087 0.0
C98 C 0.67449 0.81714 0.40413 0.0
C99 C 0.68928 0.792 0.38702 0.0
C100 C 0.77745 0.71873 0.33944 0.0
C101 C 0.78545 0.71404 0.37961 0.0
C102 C 0.81408 0.6995 0.39348 0.0
C103 C 0.83555 0.69022 0.36741 0.0
C104 C 0.82869 0.69697 0.32742 0.0
C105 C 0.79966 0.71055 0.31356 0.0
C106 C 0.67692 0.70357 0.24177 0.0
C107 C 0.69311 0.68495 0.21755 0.0
C108 C 0.1826 0.6654 0.35704 0.0
C109 C 0.17542 0.62752 0.36806 0.0
C110 C 0.20186 0.60848 0.36665 0.0
C111 C 0.23457 0.62675 0.35401 0.0
H112 H 0.29505 0.61533 0.26029 0.0
H113 H 0.32029 0.58405 0.21439 0.0
H114 H 0.41089 0.67607 0.21287 0.0
H115 H 0.386 0.70787 0.25893 0.0
H116 H 0.39764 0.76377 0.33386 0.0
H117 H 0.43142 0.8198 0.36578 0.0
H118 H 0.33587 0.84153 0.39828 0.0
H119 H 0.30183 0.78497 0.36727 0.0
H120 H 0.22074 0.7132 0.33764 0.0
H121 H 0.16252 0.68058 0.3574 0.0
H122 H 0.19696 0.57928 0.37479 0.0
H123 H 0.25429 0.61125 0.35272 0.0
N124 N 0.29127 0.66663 0.30476 0.0
N125 N 0.34093 0.71649 0.30603 0.0
N126 N 0.29415 0.71734 0.34303 0.0
C127 C 0.32324 0.683 0.29216 0.0
C128 C 0.32662 0.73386 0.33153 0.0
C129 C 0.27651 0.6836 0.32996 0.0
C130 C 0.33849 0.66422 0.26365 0.0
C131 C 0.3203 0.62917 0.25022 0.0
C132 C 0.33459 0.61119 0.22381 0.0
C133 C 0.36735 0.6278 0.21015 0.0
C134 C 0.38546 0.66289 0.22297 0.0
C135 C 0.37122 0.68093 0.24945 0.0
C136 C 0.34694 0.76957 0.34817 0.0
C137 C 0.38368 0.78055 0.34749 0.0
C138 C 0.4031 0.81263 0.36575 0.0
C139 C 0.38625 0.83482 0.38464 0.0
C140 C 0.34947 0.82477 0.38406 0.0
C141 C 0.33006 0.79234 0.36638 0.0
C142 C 0.24194 0.66471 0.3437 0.0
C143 C 0.2158 0.68399 0.34576 0.0
C144 C 0.21178 0.60467 0.67571 0.0
C145 C 0.19306 0.62356 0.64847 0.0
C146 C 0.20483 0.66208 0.64351 0.0
C147 C 0.2354 0.68124 0.66437 0.0
H148 H 0.31712 0.7723 0.64673 0.0
H149 H 0.35142 0.8287 0.61598 0.0
H150 H 0.42796 0.84205 0.71476 0.0
H151 H 0.39418 0.78561 0.74577 0.0
H152 H 0.39875 0.71702 0.79958 0.0
H153 H 0.43441 0.68708 0.84612 0.0
H154 H 0.3581 0.58306 0.83276 0.0
H155 H 0.32191 0.61271 0.78572 0.0
H156 H 0.25657 0.60841 0.71701 0.0
H157 H 0.20323 0.57491 0.67985 0.0
H158 H 0.19084 0.67719 0.62263 0.0
H159 H 0.24397 0.71086 0.65912 0.0
N160 N 0.30396 0.71792 0.69813 0.0
N161 N 0.35181 0.72026 0.74419 0.0
N162 N 0.30598 0.66649 0.74024 0.0
C163 C 0.33537 0.73687 0.71467 0.0
C164 C 0.33747 0.68521 0.75731 0.0
C165 C 0.28888 0.68286 0.71076 0.0
C166 C 0.35306 0.77399 0.69858 0.0
C167 C 0.34082 0.78758 0.66241 0.0
C168 C 0.36027 0.81996 0.64481 0.0
C169 C 0.39207 0.83959 0.66323 0.0
C170 C 0.40329 0.82746 0.7003 0.0
C171 C 0.38403 0.79497 0.7178 0.0
C172 C 0.35741 0.66729 0.78839 0.0
C173 C 0.38916 0.68782 0.80662 0.0
C174 C 0.40964 0.67082 0.83348 0.0
C175 C 0.39896 0.63289 0.8429 0.0
C176 C 0.36675 0.61243 0.82595 0.0
C177 C 0.34615 0.62945 0.79899 0.0
C178 C 0.25493 0.66241 0.69094 0.0
C179 C 0.24233 0.6239 0.69687 0.0
C180 C 0.19447 0.3454 0.68512 0.0
C181 C 0.18788 0.34816 0.64459 0.0
C182 C 0.2085 0.33451 0.62085 0.0
C183 C 0.23595 0.31938 0.63743 0.0
H184 H 0.28584 0.22708 0.63317 0.0
H185 H 0.31021 0.18267 0.60215 0.0
H186 H 0.39678 0.19841 0.69021 0.0
H187 H 0.37285 0.2425 0.72161 0.0
H188 H 0.35223 0.28699 0.81008 0.0
H189 H 0.3891 0.32272 0.86272 0.0
H190 H 0.37939 0.42426 0.80131 0.0
H191 H 0.34081 0.38861 0.75002 0.0
H192 H 0.22761 0.33061 0.73293 0.0
H193 H 0.17872 0.35548 0.70396 0.0
H194 H 0.2038 0.33631 0.58951 0.0
H195 H 0.25199 0.30983 0.61853 0.0
N196 N 0.2858 0.27884 0.68051 0.0
N197 N 0.33276 0.28588 0.72884 0.0
N198 N 0.29359 0.32419 0.72698 0.0
C199 C 0.31465 0.26813 0.69715 0.0
C200 C 0.32247 0.31402 0.7437 0.0
C201 C 0.27493 0.30655 0.69566 0.0
C202 C 0.32746 0.23877 0.67984 0.0
C203 C 0.30982 0.2208 0.64632 0.0
C204 C 0.32357 0.19524 0.62859 0.0
C205 C 0.35521 0.18725 0.644 0.0
C206 C 0.37223 0.20411 0.67803 0.0
C207 C 0.35851 0.22948 0.69583 0.0
C208 C 0.34378 0.33511 0.77609 0.0
C209 C 0.3577 0.31692 0.80817 0.0
C210 C 0.37865 0.33728 0.8382 0.0
C211 C 0.38723 0.37621 0.83587 0.0
C212 C 0.37309 0.39431 0.80383 0.0
C213 C 0.35112 0.37395 0.77456 0.0
C214 C 0.2437 0.31852 0.67794 0.0
C215 C 0.22243 0.33127 0.7016 0.0
C216 C 0.66582 0.21235 0.63519 0.0
C217 C 0.64522 0.18481 0.6584 0.0
C218 C 0.64834 0.18881 0.69887 0.0
C219 C 0.67017 0.22065 0.71548 0.0
H220 H 0.69249 0.3005 0.8202 0.0
H221 H 0.66825 0.32999 0.8692 0.0
H222 H 0.68662 0.4317 0.7996 0.0
H223 H 0.71295 0.40305 0.75207 0.0
H224 H 0.8004 0.40489 0.72245 0.0
H225 H 0.85157 0.43999 0.69045 0.0
H226 H 0.84555 0.34814 0.61833 0.0
H227 H 0.79406 0.31254 0.64998 0.0
H228 H 0.70348 0.26461 0.63311 0.0
H229 H 0.66393 0.20994 0.60396 0.0
H230 H 0.63294 0.16783 0.71741 0.0
H231 H 0.67121 0.22354 0.74657 0.0
N232 N 0.70053 0.29822 0.73902 0.0
N233 N 0.74797 0.35031 0.73562 0.0
N234 N 0.74151 0.30214 0.6929 0.0
C235 C 0.71842 0.33185 0.7522 0.0
C236 C 0.76011 0.3354 0.70639 0.0
C237 C 0.71176 0.28336 0.70906 0.0
C238 C 0.70453 0.34952 0.7824 0.0
C239 C 0.69164 0.32926 0.81568 0.0
C240 C 0.67784 0.34609 0.84365 0.0
C241 C 0.67522 0.38303 0.83798 0.0
C242 C 0.6883 0.40324 0.80471 0.0
C243 C 0.70331 0.38684 0.77755 0.0
C244 C 0.79271 0.35586 0.68864 0.0
C245 C 0.81005 0.3918 0.70013 0.0
C246 C 0.83951 0.41191 0.68206 0.0
C247 C 0.85251 0.39652 0.65235 0.0
C248 C 0.83613 0.36029 0.64156 0.0
C249 C 0.80651 0.34015 0.65951 0.0
C250 C 0.6903 0.2485 0.69214 0.0
C251 C 0.68844 0.24359 0.65192 0.0
C252 C 0.67779 0.65432 0.7766 0.0
C253 C 0.69417 0.62655 0.79149 0.0
C254 C 0.72521 0.62357 0.77687 0.0
C255 C 0.73958 0.64804 0.74721 0.0
H256 H 0.8154 0.66578 0.67203 0.0
H257 H 0.85879 0.64965 0.63511 0.0
H258 H 0.85181 0.73846 0.55149 0.0
H259 H 0.80821 0.7551 0.58804 0.0
H260 H 0.73197 0.77346 0.5755 0.0
H261 H 0.69875 0.81632 0.54425 0.0
H262 H 0.65337 0.82117 0.65183 0.0
H263 H 0.68574 0.77778 0.68314 0.0
H264 H 0.6786 0.69973 0.73586 0.0
H265 H 0.65377 0.65685 0.78773 0.0
H266 H 0.73805 0.60215 0.78819 0.0
H267 H 0.76339 0.64485 0.73614 0.0
N268 N 0.76609 0.69654 0.68309 0.0
N269 N 0.7602 0.74226 0.6353 0.0
N270 N 0.71966 0.72546 0.68238 0.0
C271 C 0.77796 0.71759 0.6515 0.0
C272 C 0.73116 0.74644 0.65063 0.0
C273 C 0.73699 0.70036 0.69877 0.0
C274 C 0.80791 0.71137 0.63268 0.0
C275 C 0.82344 0.6824 0.64622 0.0
C276 C 0.84829 0.67317 0.62529 0.0
C277 C 0.85813 0.6929 0.59079 0.0
C278 C 0.8444 0.72317 0.57825 0.0
C279 C 0.81942 0.73241 0.59912 0.0
C280 C 0.71152 0.77245 0.63184 0.0
C281 C 0.71499 0.78374 0.59254 0.0
C282 C 0.69605 0.80806 0.57459 0.0
C283 C 0.67402 0.82194 0.59595 0.0
C284 C 0.67046 0.81071 0.63508 0.0
C285 C 0.68889 0.78596 0.65285 0.0
C286 C 0.72301 0.67576 0.73172 0.0
C287 C 0.69209 0.67878 0.747 0.0
Co288 Co 0.07068 0.46875 0.53523 0.0
Co289 Co 0.0423 0.46082 0.46371 0.0
Co290 Co 1.00986 0.51697 0.50379 0.0
O291 O 0.02544 0.46966 0.50982 0.0
H292 H 1.00709 0.44882 0.51748 0.0
O293 O 0.99472 0.56421 0.4979 0.0
Co294 Co 0.95168 0.56714 0.4689 0.0
Co295 Co 0.97585 0.57325 0.54208 0.0
H296 H 0.01388 0.5853 0.49351 0.0
O297 O 0.04802 0.41537 0.4502 0.0
O298 O 0.08627 0.45836 0.48576 0.0
O299 O 0.04983 0.50041 0.42479 0.0
O300 O 0.04505 0.54231 0.46488 0.0
O301 O 0.97451 0.49437 0.46055 0.0
O302 O 0.91361 0.57345 0.44125 0.0
O303 O 0.96455 0.61557 0.45234 0.0
O304 O 0.93229 0.51646 0.4801 0.0
O305 O 0.97395 0.4919 0.54211 0.0
O306 O 0.96314 0.5336 0.57963 0.0
O307 O 0.93491 0.58143 0.51661 0.0
O308 O 0.97522 0.62017 0.55411 0.0
C309 C 0.09307 0.43018 0.56588 0.0
C310 C 0.07768 0.54039 0.54693 0.0
C311 C 0.05411 0.53403 0.43259 0.0
C312 C 0.07919 0.42791 0.46698 0.0
C313 C 0.93245 0.60693 0.43602 0.0
C314 C 0.94194 0.49353 0.46056 0.0
C315 C 0.95979 0.50036 0.57106 0.0
C316 C 0.94529 0.61298 0.53338 0.0
O317 O 0.11081 0.46396 0.55946 0.0
O318 O 0.06065 0.42016 0.5508 0.0
O319 O 0.04513 0.53952 0.54714 0.0
O320 O 0.08708 0.51947 0.5247 0.0
Co321 Co 0.55117 0.95101 0.4856 0.0
Co322 Co 0.56176 0.96473 0.55868 0.0
Co323 Co 0.51228 0.01387 0.51961 0.0
O324 O 0.5538 0.99328 0.51532 0.0
H325 H 0.57475 0.01235 0.51104 0.0
O326 O 0.47074 0.03517 0.52333 0.0
Co327 Co 0.47307 0.07892 0.55165 0.0
Co328 Co 0.46391 0.06302 0.47802 0.0
H329 H 0.44968 0.01617 0.52741 0.0
O330 O 0.60556 0.95907 0.57403 0.0
O331 O 0.56408 0.92339 0.53334 0.0
O332 O 0.52556 0.94945 0.59346 0.0
O333 O 0.48665 0.97195 0.55482 0.0
O334 O 0.53831 0.04115 0.56622 0.0
O335 O 0.47157 0.11761 0.57836 0.0
O336 O 0.42644 0.07143 0.55769 0.0
O337 O 0.52205 0.09309 0.55039 0.0
O338 O 0.53841 0.05588 0.48461 0.0
O339 O 0.49976 0.07445 0.44222 0.0
O340 O 0.46653 0.1067 0.50175 0.0
O341 O 0.42174 0.07437 0.46235 0.0
C342 C 0.58452 0.93214 0.45354 0.0
C343 C 0.48172 0.95005 0.47282 0.0
C344 C 0.49433 0.9514 0.58371 0.0
C345 C 0.59421 0.92943 0.55409 0.0
C346 C 0.4381 0.1028 0.57521 0.0
C347 C 0.54217 0.07573 0.57011 0.0
C348 C 0.53111 0.07445 0.4539 0.0
C349 C 0.43689 0.10426 0.48064 0.0
O350 O 0.55238 0.91357 0.45717 0.0
O351 O 0.5963 0.96235 0.47291 0.0
O352 O 0.48599 0.98519 0.47366 0.0
O353 O 0.503 0.93413 0.49259 0.0
Co354 Co 0.47431 0.53556 0.08278 0.0
Co355 Co 0.4606 0.46875 0.05917 0.0
Co356 Co 0.51645 0.51645 1.00724 0.0
O357 O 0.47292 0.51387 0.03354 0.0
H358 H 0.45361 0.51768 0.01575 0.0
O359 O 0.56043 0.51942 0.98149 0.0
Co360 Co 0.56278 0.48653 0.94166 0.0
Co361 Co 0.56938 0.55576 0.94323 0.0
H362 H 0.58056 0.52231 1.00031 0.0
O363 O 0.415 0.44853 0.06761 0.0
O364 O 0.45686 0.48498 0.10763 0.0
O365 O 0.49404 0.43816 0.066 0.0
O366 O 0.53741 0.48415 0.04746 0.0
O367 O 0.49013 0.47213 0.97736 0.0
O368 O 0.5682 0.45571 0.90701 0.0
O369 O 0.60726 0.48102 0.95535 0.0
O370 O 0.51628 0.48617 0.92252 0.0
O371 O 0.49517 0.54876 0.96692 0.0
O372 O 0.53189 0.57741 0.92331 0.0
O373 O 0.58109 0.52934 0.90558 0.0
O374 O 0.61449 0.57924 0.93583 0.0
C375 C 0.44106 0.55648 0.11239 0.0
C376 C 0.54381 0.55877 0.07517 0.0
C377 C 0.52648 0.45287 0.06496 0.0
C378 C 0.42593 0.46226 0.10147 0.0
C379 C 0.59883 0.45921 0.92588 0.0
C380 C 0.48997 0.46964 0.94071 0.0
C381 C 0.50212 0.57015 0.93681 0.0
C382 C 0.61045 0.55474 0.90949 0.0
O383 O 0.4726 0.55658 0.12709 0.0
O384 O 0.42996 0.54207 0.07854 0.0
O385 O 0.54211 0.56028 0.03801 0.0
O386 O 0.52177 0.53423 0.0931 0.0
C387 C 0.13566 0.36091 0.4503 0.0
C388 C 0.16872 0.38652 0.44916 0.0
C389 C 0.1412 0.43779 0.45123 0.0
C390 C 0.10882 0.41254 0.45833 0.0
N391 N 0.07557 0.34904 0.46692 0.0
N392 N 0.2042 0.4486 0.45733 0.0
C393 C 0.106 0.3737 0.45841 0.0
C394 C 0.17186 0.42469 0.45281 0.0
N395 N 0.13246 0.32469 0.44251 0.0
N396 N 0.14234 0.47374 0.43966 0.0
H397 H 0.22749 0.43989 0.45877 0.0
H398 H 0.20767 0.47631 0.46359 0.0
H399 H 0.11989 0.48367 0.4331 0.0
H400 H 0.16505 0.49224 0.43118 0.0
H401 H 0.10845 0.30554 0.43819 0.0
H402 H 0.15386 0.31429 0.43767 0.0
H403 H 0.07329 0.32071 0.47103 0.0
H404 H 0.05321 0.35678 0.47328 0.0
C405 C 0.58679 0.12224 0.37191 0.0
C406 C 0.60195 0.15725 0.38814 0.0
C407 C 0.57918 0.13321 0.45054 0.0
C408 C 0.55962 0.10009 0.433 0.0
N409 N 0.54391 0.06319 0.37629 0.0
N410 N 0.60704 0.1981 0.44103 0.0
C411 C 0.56325 0.09464 0.39341 0.0
C412 C 0.5968 0.16322 0.42702 0.0
N413 N 0.59557 0.11513 0.33638 0.0
N414 N 0.58134 0.13614 0.48982 0.0
H415 H 0.61937 0.2212 0.42469 0.0
H416 H 0.60018 0.20482 0.46754 0.0
H417 H 0.56973 0.1146 0.50808 0.0
H418 H 0.59808 0.15807 0.50454 0.0
H419 H 0.58822 0.08913 0.32444 0.0
H420 H 0.61275 0.13468 0.32009 0.0
H421 H 0.54195 0.05937 0.34652 0.0
H422 H 0.52845 0.04139 0.39183 0.0
C423 C 0.89367 0.69038 0.40533 0.0
C424 C 0.86402 0.67153 0.38164 0.0
C425 C 0.89029 0.61863 0.38152 0.0
C426 C 0.91551 0.63365 0.41197 0.0
N427 N 0.94325 0.68647 0.45078 0.0
N428 N 0.83196 0.61501 0.35135 0.0
C429 C 0.91814 0.67049 0.42303 0.0
C430 C 0.86187 0.63501 0.37055 0.0
N431 N 0.89903 0.72755 0.40987 0.0
N432 N 0.89388 0.58883 0.36262 0.0
H433 H 0.80973 0.62517 0.34414 0.0
H434 H 0.82798 0.58699 0.34618 0.0
H435 H 0.91557 0.57745 0.36868 0.0
H436 H 0.87782 0.57852 0.3381 0.0
H437 H 0.9219 0.7438 0.42334 0.0
H438 H 0.88191 0.74294 0.39698 0.0
H439 H 0.94284 0.7105 0.46435 0.0
H440 H 0.96444 0.67565 0.46064 0.0
C441 C 0.428 0.89842 0.38641 0.0
C442 C 0.40739 0.86753 0.40653 0.0
C443 C 0.42734 0.89878 0.468 0.0
C444 C 0.45221 0.92637 0.44883 0.0
N445 N 0.4784 0.95115 0.38972 0.0
N446 N 0.39163 0.83603 0.46776 0.0
C447 C 0.45291 0.92612 0.40789 0.0
C448 C 0.40793 0.86721 0.44769 0.0
N449 N 0.42333 0.90161 0.34683 0.0
N450 N 0.42192 0.90312 0.50564 0.0
H451 H 0.37799 0.81181 0.45433 0.0
H452 H 0.39449 0.83299 0.49795 0.0
H453 H 0.43471 0.92682 0.52047 0.0
H454 H 0.40212 0.88555 0.52042 0.0
H455 H 0.43511 0.92513 0.33077 0.0
H456 H 0.40509 0.88211 0.33031 0.0
H457 H 0.48299 0.94954 0.3608 0.0
H458 H 0.4965 0.97226 0.4043 0.0
C459 C 0.13006 0.58632 0.63803 0.0
C460 C 0.16271 0.60291 0.62284 0.0
C461 C 0.13679 0.58476 0.55746 0.0
C462 C 0.10535 0.56441 0.57312 0.0
N463 N 0.07521 0.53979 0.63025 0.0
N464 N 0.19915 0.6114 0.56924 0.0
C465 C 0.10266 0.5637 0.61395 0.0
C466 C 0.16662 0.60027 0.58284 0.0
N467 N 0.12497 0.59264 0.67528 0.0
N468 N 0.13789 0.59027 0.51816 0.0
H469 H 0.22178 0.62252 0.58689 0.0
H470 H 0.20425 0.60626 0.54137 0.0
H471 H 0.11616 0.58095 0.49861 0.0
H472 H 0.15915 0.6073 0.5052 0.0
H473 H 0.10059 0.5846 0.68662 0.0
H474 H 0.14447 0.60876 0.69379 0.0
H475 H 0.07402 0.53529 0.66016 0.0
H476 H 0.05524 0.52169 0.61423 0.0
C477 C 0.36755 0.12579 0.63203 0.0
C478 C 0.37275 0.16419 0.62281 0.0
C479 C 0.41784 0.1616 0.5796 0.0
C480 C 0.41385 0.12315 0.58982 0.0
N481 N 0.38845 0.06996 0.63007 0.0
N482 N 0.39654 0.21708 0.58189 0.0
C483 C 0.38915 0.10537 0.61666 0.0
C484 C 0.39607 0.18158 0.59486 0.0
N485 N 0.3414 0.1088 0.65497 0.0
N486 N 0.44357 0.17976 0.55664 0.0
H487 H 0.38185 0.23311 0.59312 0.0
H488 H 0.40915 0.22988 0.55781 0.0
H489 H 0.45843 0.16668 0.54173 0.0
H490 H 0.4517 0.20842 0.55357 0.0
H491 H 0.33329 0.08029 0.65962 0.0
H492 H 0.32569 0.12317 0.66711 0.0
H493 H 0.37402 0.05667 0.65268 0.0
H494 H 0.40459 0.05442 0.6209 0.0
C495 C 0.87039 0.44427 0.59957 0.0
C496 C 0.8803 0.42027 0.62938 0.0
C497 C 0.94233 0.44445 0.61661 0.0
C498 C 0.93263 0.47152 0.59018 0.0
N499 N 0.88733 0.49932 0.55874 0.0
N500 N 0.92531 0.39813 0.66837 0.0
C501 C 0.89663 0.47199 0.58234 0.0
C502 C 0.91621 0.42032 0.63832 0.0
N503 N 0.83574 0.43986 0.58688 0.0
N504 N 0.97645 0.44191 0.62093 0.0
H505 H 0.90676 0.3796 0.68404 0.0
H506 H 0.95106 0.39948 0.6793 0.0
H507 H 0.99626 0.45995 0.60649 0.0
H508 H 0.98482 0.4206 0.63672 0.0
H509 H 0.8271 0.45325 0.56198 0.0
H510 H 0.81558 0.42024 0.59909 0.0
H511 H 0.86235 0.50422 0.55631 0.0
H512 H 0.90504 0.51872 0.54321 0.0
C513 C 0.61703 0.83651 0.57369 0.0
C514 C 0.65404 0.84808 0.57779 0.0
C515 C 0.651 0.91074 0.5558 0.0
C516 C 0.61421 0.90058 0.55883 0.0
N517 N 0.56333 0.85475 0.57901 0.0
N518 N 0.70693 0.89712 0.57645 0.0
C519 C 0.59728 0.86358 0.56943 0.0
C520 C 0.67134 0.88539 0.56942 0.0
N521 N 0.6008 0.79967 0.57446 0.0
N522 N 0.66646 0.94443 0.53966 0.0
H523 H 0.72288 0.87948 0.58654 0.0
H524 H 0.72036 0.92488 0.57519 0.0
H525 H 0.65234 0.96365 0.529 0.0
H526 H 0.6926 0.95179 0.5333 0.0
H527 H 0.57387 0.78974 0.5681 0.0
H528 H 0.61473 0.77911 0.57744 0.0
H529 H 0.55106 0.8288 0.59035 0.0
H530 H 0.54879 0.87432 0.58037 0.0
C531 C 0.37188 0.16515 0.47174 0.0
C532 C 0.39449 0.20006 0.46322 0.0
C533 C 0.44368 0.17133 0.46247 0.0
C534 C 0.42199 0.13699 0.47458 0.0
N535 N 0.36708 0.10286 0.49837 0.0
N536 N 0.45341 0.2379 0.4609 0.0
C537 C 0.38653 0.13433 0.48152 0.0
C538 C 0.43093 0.20361 0.46198 0.0
N539 N 0.33633 0.16086 0.46857 0.0
N540 N 0.47582 0.17302 0.44975 0.0
H541 H 0.44492 0.26222 0.46144 0.0
H542 H 0.4806 0.24199 0.46368 0.0
H543 H 0.48563 0.14976 0.44764 0.0
H544 H 0.49111 0.19695 0.43726 0.0
H545 H 0.31858 0.13513 0.47013 0.0
H546 H 0.32438 0.18258 0.4611 0.0
H547 H 0.34261 0.10122 0.5083 0.0
H548 H 0.37654 0.07942 0.50564 0.0
C549 C 0.85589 0.4244 0.43451 0.0
C550 C 0.85494 0.42456 0.39332 0.0
C551 C 0.91263 0.46908 0.39584 0.0
C552 C 0.9145 0.46675 0.43711 0.0
N553 N 0.89212 0.43463 0.49525 0.0
N554 N 0.88583 0.44087 0.33543 0.0
C555 C 0.88736 0.44206 0.45626 0.0
C556 C 0.88439 0.44505 0.37416 0.0
N557 N 0.82628 0.40892 0.45289 0.0
N558 N 0.9368 0.4954 0.37723 0.0
H559 H 0.86591 0.42323 0.31876 0.0
H560 H 0.90809 0.45215 0.32072 0.0
H561 H 0.95791 0.51337 0.3919 0.0
H562 H 0.93437 0.50132 0.34743 0.0
H563 H 0.82456 0.41153 0.48242 0.0
H564 H 0.80236 0.39659 0.43812 0.0
H565 H 0.87462 0.41442 0.51039 0.0
H566 H 0.91558 0.4458 0.51148 0.0
C567 C 0.66143 0.89808 0.42103 0.0
C568 C 0.642 0.8682 0.39815 0.0
C569 C 0.58893 0.89052 0.40089 0.0
C570 C 0.60664 0.91658 0.4288 0.0
N571 N 0.6628 0.9561 0.45006 0.0
N572 N 0.5858 0.83262 0.37164 0.0
C573 C 0.64388 0.92353 0.43491 0.0
C574 C 0.6054 0.86366 0.38935 0.0
N575 N 0.69664 0.90195 0.42974 0.0
N576 N 0.55719 0.89329 0.38307 0.0
H577 H 0.59644 0.8114 0.36383 0.0
H578 H 0.55847 0.82615 0.36843 0.0
H579 H 0.54621 0.9153 0.38752 0.0
H580 H 0.54441 0.87709 0.36004 0.0
H581 H 0.71152 0.91944 0.45068 0.0
H582 H 0.71087 0.88604 0.41753 0.0
H583 H 0.69006 0.96403 0.453 0.0
H584 H 0.65177 0.97789 0.45462 0.0
C585 C 0.11936 0.57748 0.35757 0.0
C586 C 0.13997 0.60722 0.37987 0.0
C587 C 0.09207 0.599 0.42216 0.0
C588 C 0.07694 0.56339 0.40766 0.0
N589 N 0.06891 0.52475 0.35249 0.0
N590 N 0.14572 0.64574 0.43514 0.0
C591 C 0.08838 0.55441 0.37242 0.0
C592 C 0.12613 0.61812 0.41247 0.0
N593 N 0.1286 0.5725 0.32151 0.0
N594 N 0.07295 0.61566 0.44281 0.0
H595 H 0.17152 0.65927 0.43055 0.0
H596 H 0.13736 0.65277 0.46072 0.0
H597 H 0.04611 0.60481 0.44407 0.0
H598 H 0.08198 0.64259 0.45231 0.0
H599 H 0.11369 0.55318 0.30232 0.0
H600 H 0.15007 0.58996 0.30918 0.0
H601 H 0.07793 0.51291 0.33028 0.0
H602 H 0.04292 0.51252 0.35778 0.0
C603 C 0.41665 0.9068 0.64354 0.0
C604 C 0.41643 0.86886 0.6412 0.0
C605 C 0.46255 0.8854 0.59611 0.0
C606 C 0.46581 0.92354 0.60187 0.0
N607 N 0.4474 0.97116 0.63222 0.0
N608 N 0.44163 0.82192 0.61879 0.0
C609 C 0.443 0.93448 0.62566 0.0
C610 C 0.43999 0.85816 0.61836 0.0
N611 N 0.39142 0.91618 0.66249 0.0
N612 N 0.47994 0.87505 0.56804 0.0
H613 H 0.42474 0.80062 0.63343 0.0
H614 H 0.46146 0.81323 0.60702 0.0
H615 H 0.49706 0.89394 0.55132 0.0
H616 H 0.4751 0.84805 0.55887 0.0
H617 H 0.38779 0.94288 0.66225 0.0
H618 H 0.3724 0.89656 0.67645 0.0
H619 H 0.43417 0.981 0.65227 0.0
H620 H 0.46601 0.99196 0.61909 0.0
C621 C 0.16398 0.40491 0.63415 0.0
C622 C 0.16056 0.36712 0.62711 0.0
C623 C 0.10754 0.36705 0.5834 0.0
C624 C 0.11095 0.40497 0.59114 0.0
N625 N 0.13317 0.45285 0.63745 0.0
N626 N 0.12382 0.30964 0.60392 0.0
C627 C 0.13625 0.42158 0.62089 0.0
C628 C 0.13068 0.34735 0.60442 0.0
N629 N 0.1943 0.42559 0.65192 0.0
N630 N 0.08317 0.34981 0.5556 0.0
H631 H 0.13992 0.2944 0.61932 0.0
H632 H 0.10054 0.2932 0.59148 0.0
H633 H 0.06376 0.36136 0.54163 0.0
H634 H 0.08298 0.3241 0.54532 0.0
H635 H 0.19904 0.45416 0.65421 0.0
H636 H 0.21608 0.41508 0.66066 0.0
H637 H 0.14946 0.46439 0.66134 0.0
H638 H 0.11164 0.46431 0.63054 0.0
C639 C 0.63098 0.12836 0.61706 0.0
C640 C 0.61935 0.15279 0.63986 0.0
C641 C 0.55892 0.11638 0.62685 0.0
C642 C 0.56972 0.09705 0.59818 0.0
N643 N 0.61651 0.08606 0.56406 0.0
N644 N 0.57066 0.1732 0.66102 0.0
C645 C 0.60597 0.10306 0.593 0.0
C646 C 0.58288 0.14748 0.64363 0.0
N647 N 0.6658 0.1288 0.61901 0.0
N648 N 0.52578 0.10454 0.63856 0.0
H649 H 0.5869 0.1975 0.67197 0.0
H650 H 0.54403 0.17224 0.66087 0.0
H651 H 0.5082 0.0808 0.62788 0.0
H652 H 0.51733 0.11571 0.66172 0.0
H653 H 0.67545 0.10939 0.60586 0.0
H654 H 0.68464 0.1463 0.637 0.0
H655 H 0.64212 0.09277 0.55593 0.0
H656 H 0.59909 0.06708 0.54631 0.0
C657 C 0.86338 0.64814 0.54298 0.0
C658 C 0.87969 0.67868 0.56589 0.0
C659 C 0.93681 0.6749 0.54805 0.0
C660 C 0.92159 0.63865 0.53452 0.0
N661 N 0.86793 0.59296 0.51389 0.0
N662 N 0.9317 0.72287 0.58967 0.0
C663 C 0.88416 0.62618 0.52954 0.0
C664 C 0.91633 0.69299 0.56777 0.0
N665 N 0.82792 0.6404 0.53374 0.0
N666 N 0.97061 0.69227 0.5414 0.0
H667 H 0.91724 0.7375 0.60349 0.0
H668 H 0.95873 0.7317 0.59599 0.0
H669 H 0.98584 0.68075 0.52506 0.0
H670 H 0.98196 0.71978 0.5478 0.0
H671 H 0.81486 0.6211 0.51347 0.0
H672 H 0.81192 0.65589 0.54345 0.0
H673 H 0.842 0.57948 0.51795 0.0
H674 H 0.87936 0.57898 0.49594 0.0
C675 C 0.35635 0.43567 0.17385 0.0
C676 C 0.37245 0.41336 0.20063 0.0
C677 C 0.41665 0.41467 0.15562 0.0
C678 C 0.40646 0.44471 0.13469 0.0
N679 N 0.36358 0.48106 0.12046 0.0
N680 N 0.39699 0.36082 0.19732 0.0
C681 C 0.37524 0.45431 0.14258 0.0
C682 C 0.3966 0.39637 0.18585 0.0
N683 N 0.32126 0.43299 0.17343 0.0
N684 N 0.44549 0.40364 0.14706 0.0
H685 H 0.37901 0.34529 0.21587 0.0
H686 H 0.41176 0.34567 0.18481 0.0
H687 H 0.46007 0.41505 0.12388 0.0
H688 H 0.456 0.38464 0.16458 0.0
H689 H 0.30748 0.44653 0.15263 0.0
H690 H 0.30523 0.41214 0.18957 0.0
H691 H 0.34344 0.4921 0.12813 0.0
H692 H 0.37528 0.49343 0.09566 0.0
C693 C 0.44234 0.59303 0.85066 0.0
C694 C 0.42309 0.61435 0.86801 0.0
C695 C 0.45551 0.6069 0.93127 0.0
C696 C 0.47344 0.58398 0.91417 0.0
N697 N 0.47684 0.54746 0.85996 0.0
N698 N 0.40643 0.63605 0.92584 0.0
C699 C 0.46475 0.57477 0.87455 0.0
C700 C 0.42817 0.61955 0.90871 0.0
N701 N 0.44042 0.59139 0.8111 0.0
N702 N 0.46563 0.61794 0.96846 0.0
H703 H 0.38637 0.64572 0.91011 0.0
H704 H 0.40629 0.63735 0.95581 0.0
H705 H 0.48555 0.60943 0.98574 0.0
H706 H 0.45623 0.63772 0.98123 0.0
H707 H 0.45706 0.58002 0.79668 0.0
H708 H 0.42432 0.60422 0.79235 0.0
H709 H 0.46813 0.53663 0.83272 0.0
H710 H 0.49284 0.53289 0.87647 0.0
C711 C 0.40179 0.4244 0.88738 0.0
C712 C 0.41227 0.39815 0.86592 0.0
C713 C 0.46956 0.41225 0.90315 0.0
C714 C 0.46139 0.44278 0.91918 0.0
N715 N 0.42027 0.48009 0.92444 0.0
N716 N 0.45932 0.37268 0.84853 0.0
C717 C 0.42753 0.4494 0.91094 0.0
C718 C 0.447 0.39341 0.87261 0.0
N719 N 0.36717 0.4247 0.88624 0.0
N720 N 0.49849 0.40058 0.91791 0.0
H721 H 0.4445 0.36 0.82432 0.0
H722 H 0.48553 0.37147 0.85021 0.0
H723 H 0.51453 0.41279 0.9417 0.0
H724 H 0.50387 0.37629 0.90964 0.0
H725 H 0.35765 0.44091 0.90399 0.0
H726 H 0.3475 0.40604 0.87036 0.0
H727 H 0.3975 0.48874 0.91549 0.0
H728 H 0.43811 0.49829 0.94265 0.0
C729 C 0.62255 0.38463 0.87387 0.0
C730 C 0.65792 0.40044 0.86605 0.0
C731 C 0.65775 0.45418 0.90405 0.0
C732 C 0.62268 0.43754 0.91266 0.0
N733 N 0.57835 0.38075 0.91876 0.0
N734 N 0.71206 0.44495 0.88363 0.0
C735 C 0.60732 0.40069 0.90179 0.0
C736 C 0.67646 0.4336 0.8843 0.0
N737 N 0.60257 0.35575 0.8531 0.0
N738 N 0.67291 0.48994 0.91305 0.0
H739 H 0.72667 0.42998 0.87056 0.0
H740 H 0.72736 0.46696 0.89944 0.0
H741 H 0.66115 0.5053 0.92922 0.0
H742 H 0.6964 0.50493 0.90264 0.0
H743 H 0.57571 0.34581 0.85545 0.0
H744 H 0.61173 0.34439 0.83059 0.0
H745 H 0.56754 0.35276 0.91404 0.0
H746 H 0.5681 0.39113 0.9412 0.0
C747 C 0.64951 0.57022 0.8116 0.0
C748 C 0.67802 0.60028 0.82209 0.0
C749 C 0.67089 0.5841 0.89067 0.0
C750 C 0.63732 0.56088 0.88031 0.0
N751 N 0.59953 0.523 0.83121 0.0
N752 N 0.71759 0.6354 0.87131 0.0
C753 C 0.62828 0.55072 0.84087 0.0
C754 C 0.68968 0.60665 0.86157 0.0
N755 N 0.64333 0.56011 0.77372 0.0
N756 N 0.68493 0.58395 0.92832 0.0
H757 H 0.73258 0.65203 0.85073 0.0
H758 H 0.72453 0.64417 0.89962 0.0
H759 H 0.67227 0.56635 0.94991 0.0
H760 H 0.71052 0.59785 0.93711 0.0
H761 H 0.62493 0.53662 0.76412 0.0
H762 H 0.6586 0.57398 0.75185 0.0
H763 H 0.58762 0.51905 0.80314 0.0
H764 H 0.58858 0.50244 0.85107 0.0
C765 C 0.59854 0.64891 0.11851 0.0
C766 C 0.61561 0.6346 0.15173 0.0
C767 C 0.59236 0.57181 0.12831 0.0
C768 C 0.57116 0.58555 0.09845 0.0
N769 N 0.55031 0.63717 0.06846 0.0
N770 N 0.62407 0.58158 0.19163 0.0
C771 C 0.57342 0.62417 0.09415 0.0
C772 C 0.61139 0.59579 0.1575 0.0
N773 N 0.60678 0.68608 0.10984 0.0
N774 N 0.59499 0.53598 0.12823 0.0
H775 H 0.63747 0.598 0.21425 0.0
H776 H 0.6184 0.55338 0.199 0.0
H777 H 0.58244 0.5181 0.10642 0.0
H778 H 0.61249 0.52529 0.1472 0.0
H779 H 0.59786 0.69774 0.08392 0.0
H780 H 0.62521 0.70496 0.12688 0.0
H781 H 0.5482 0.6645 0.06735 0.0
H782 H 0.5311 0.62013 0.0505 0.0
C783 C 0.38334 0.61683 0.14362 0.0
C784 C 0.3836 0.60756 0.18403 0.0
C785 C 0.41449 0.55947 0.17497 0.0
C786 C 0.4182 0.57184 0.13552 0.0
N787 N 0.41009 0.6159 0.08352 0.0
N788 N 0.40288 0.57304 0.23937 0.0
C789 C 0.40334 0.60124 0.11997 0.0
C790 C 0.39995 0.57953 0.19999 0.0
N791 N 0.3636 0.64024 0.12776 0.0
N792 N 0.4241 0.5279 0.18842 0.0
H793 H 0.39229 0.58679 0.25875 0.0
H794 H 0.41821 0.55621 0.25316 0.0
H795 H 0.43514 0.51248 0.17133 0.0
H796 H 0.41809 0.51497 0.21529 0.0
H797 H 0.35922 0.64501 0.09795 0.0
H798 H 0.3491 0.65253 0.14431 0.0
H799 H 0.40341 0.64001 0.07235 0.0
H800 H 0.42501 0.60587 0.06542 0.0
C801 C 0.60251 0.40896 0.10143 0.0
C802 C 0.59827 0.40529 0.14195 0.0
C803 C 0.55017 0.4366 0.13201 0.0
C804 C 0.55183 0.43693 0.09108 0.0
N805 N 0.57765 0.42107 0.03617 0.0
N806 N 0.56501 0.41078 0.19537 0.0
C807 C 0.57765 0.42263 0.07557 0.0
C808 C 0.57119 0.4177 0.15705 0.0
N809 N 0.6306 0.39988 0.08787 0.0
N810 N 0.52988 0.45617 0.14724 0.0
H811 H 0.58051 0.39823 0.21521 0.0
H812 H 0.54285 0.41483 0.20688 0.0
H813 H 0.51477 0.47119 0.1301 0.0
H814 H 0.5307 0.46064 0.17678 0.0
H815 H 0.63742 0.40529 0.0594 0.0
H816 H 0.64868 0.38908 0.10594 0.0
H817 H 0.59338 0.40771 0.02279 0.0
H818 H 0.56007 0.43112 0.01661 0.0
loop_
_geom_bond_atom_site_label_1
_geom_bond_atom_site_label_2
_geom_bond_distance
_geom_bond_site_symmetry_2
_ccdc_geom_bond_type
C0 C1 1.384 . S
C0 H13 0.947 . S
C0 C35 1.382 . S
C1 C0 1.384 . S
C1 C2 1.378 . S
C2 C1 1.378 . S
C2 C3 1.378 . S
C2 H14 0.952 . S
C3 C2 1.378 . S
C3 H15 0.950 . S
C3 C34 1.383 . S
H4 C23 0.947 . S
H5 C24 0.946 . S
H6 C26 0.953 . S
H7 C27 0.945 . S
H8 C29 0.952 . S
H9 C30 0.949 . S
H10 C32 0.950 . S
H11 C33 0.948 . S
H12 C35 0.951 . S
H13 C0 0.947 . S
H14 C2 0.952 . S
H15 C3 0.950 . S
N16 C19 1.382 . S
N16 C21 1.363 . S
N17 C19 1.371 . S
N17 C20 1.372 . S
N18 C20 1.361 . S
N18 C21 1.377 . S
C19 N16 1.382 . S
C19 N17 1.371 . S
C19 C22 1.480 . S
C20 N17 1.372 . S
C20 N18 1.361 . S
C20 C28 1.457 . S
C21 N16 1.363 . S
C21 N18 1.377 . S
C21 C34 1.479 . S
C22 C19 1.480 . S
C22 C23 1.383 . S
C22 C27 1.385 . S
C23 H4 0.947 . S
C23 C22 1.383 . S
C23 C24 1.388 . S
C24 H5 0.946 . S
C24 C23 1.388 . S
C24 C25 1.384 . S
C25 C24 1.384 . S
C25 C26 1.377 . S
C26 H6 0.953 . S
C26 C25 1.377 . S
C26 C27 1.369 . S
C27 H7 0.945 . S
C27 C22 1.385 . S
C27 C26 1.369 . S
C28 C20 1.457 . S
C28 C29 1.372 . S
C28 C33 1.364 . S
C29 H8 0.952 . S
C29 C28 1.372 . S
C29 C30 1.389 . S
C30 H9 0.949 . S
C30 C29 1.389 . S
C30 C31 1.387 . S
C31 C30 1.387 . S
C31 C32 1.372 . S
C32 H10 0.950 . S
C32 C31 1.372 . S
C32 C33 1.379 . S
C33 H11 0.948 . S
C33 C28 1.364 . S
C33 C32 1.379 . S
C34 C3 1.383 . S
C34 C21 1.479 . S
C34 C35 1.398 . S
C35 C0 1.382 . S
C35 H12 0.951 . S
C35 C34 1.398 . S
C36 C37 1.384 . S
C36 H49 0.947 . S
C36 C71 1.382 . S
C37 C36 1.384 . S
C37 C38 1.378 . S
C38 C37 1.378 . S
C38 C39 1.378 . S
C38 H50 0.952 . S
C39 C38 1.378 . S
C39 H51 0.950 . S
C39 C70 1.383 . S
H40 C59 0.947 . S
H41 C60 0.946 . S
H42 C62 0.953 . S
H43 C63 0.945 . S
H44 C65 0.952 . S
H45 C66 0.949 . S
H46 C68 0.950 . S
H47 C69 0.948 . S
H48 C71 0.951 . S
H49 C36 0.947 . S
H50 C38 0.952 . S
H51 C39 0.950 . S
N52 C55 1.382 . S
N52 C57 1.363 . S
N53 C55 1.371 . S
N53 C56 1.372 . S
N54 C56 1.361 . S
N54 C57 1.377 . S
C55 N52 1.382 . S
C55 N53 1.371 . S
C55 C58 1.480 . S
C56 N53 1.372 . S
C56 N54 1.361 . S
C56 C64 1.457 . S
C57 N52 1.363 . S
C57 N54 1.377 . S
C57 C70 1.479 . S
C58 C55 1.480 . S
C58 C59 1.383 . S
C58 C63 1.385 . S
C59 H40 0.947 . S
C59 C58 1.383 . S
C59 C60 1.388 . S
C60 H41 0.946 . S
C60 C59 1.388 . S
C60 C61 1.384 . S
C61 C60 1.384 . S
C61 C62 1.377 . S
C62 H42 0.953 . S
C62 C61 1.377 . S
C62 C63 1.369 . S
C63 H43 0.945 . S
C63 C58 1.385 . S
C63 C62 1.369 . S
C64 C56 1.457 . S
C64 C65 1.372 . S
C64 C69 1.364 . S
C65 H44 0.952 . S
C65 C64 1.372 . S
C65 C66 1.389 . S
C66 H45 0.949 . S
C66 C65 1.389 . S
C66 C67 1.387 . S
C67 C66 1.387 . S
C67 C68 1.372 . S
C68 H46 0.950 . S
C68 C67 1.372 . S
C68 C69 1.379 . S
C69 H47 0.948 . S
C69 C64 1.364 . S
C69 C68 1.379 . S
C70 C39 1.383 . S
C70 C57 1.479 . S
C70 C71 1.398 . S
C71 C36 1.382 . S
C71 H48 0.951 . S
C71 C70 1.398 . S
C72 C73 1.384 . S
C72 H85 0.947 . S
C72 C107 1.382 . S
C73 C72 1.384 . S
C73 C74 1.378 . S
C74 C73 1.378 . S
C74 C75 1.378 . S
C74 H86 0.952 . S
C75 C74 1.378 . S
C75 H87 0.950 . S
C75 C106 1.383 . S
H76 C95 0.947 . S
H77 C96 0.946 . S
H78 C98 0.953 . S
H79 C99 0.945 . S
H80 C101 0.952 . S
H81 C102 0.949 . S
H82 C104 0.950 . S
H83 C105 0.948 . S
H84 C107 0.951 . S
H85 C72 0.947 . S
H86 C74 0.952 . S
H87 C75 0.950 . S
N88 C91 1.382 . S
N88 C93 1.363 . S
N89 C91 1.371 . S
N89 C92 1.372 . S
N90 C92 1.361 . S
N90 C93 1.377 . S
C91 N88 1.382 . S
C91 N89 1.371 . S
C91 C94 1.480 . S
C92 N89 1.372 . S
C92 N90 1.361 . S
C92 C100 1.457 . S
C93 N88 1.363 . S
C93 N90 1.377 . S
C93 C106 1.479 . S
C94 C91 1.480 . S
C94 C95 1.383 . S
C94 C99 1.385 . S
C95 H76 0.947 . S
C95 C94 1.383 . S
C95 C96 1.388 . S
C96 H77 0.946 . S
C96 C95 1.388 . S
C96 C97 1.384 . S
C97 C96 1.384 . S
C97 C98 1.377 . S
C98 H78 0.953 . S
C98 C97 1.377 . S
C98 C99 1.369 . S
C99 H79 0.945 . S
C99 C94 1.385 . S
C99 C98 1.369 . S
C100 C92 1.457 . S
C100 C101 1.372 . S
C100 C105 1.364 . S
C101 H80 0.952 . S
C101 C100 1.372 . S
C101 C102 1.389 . S
C102 H81 0.949 . S
C102 C101 1.389 . S
C102 C103 1.387 . S
C103 C102 1.387 . S
C103 C104 1.372 . S
C104 H82 0.950 . S
C104 C103 1.372 . S
C104 C105 1.379 . S
C105 H83 0.948 . S
C105 C100 1.364 . S
C105 C104 1.379 . S
C106 C75 1.383 . S
C106 C93 1.479 . S
C106 C107 1.398 . S
C107 C72 1.382 . S
C107 H84 0.951 . S
C107 C106 1.398 . S
C108 C109 1.384 . S
C108 H121 0.947 . S
C108 C143 1.382 . S
C109 C108 1.384 . S
C109 C110 1.378 . S
C110 C109 1.378 . S
C110 C111 1.378 . S
C110 H122 0.952 . S
C111 C110 1.378 . S
C111 H123 0.950 . S
C111 C142 1.383 . S
H112 C131 0.947 . S
H113 C132 0.946 . S
H114 C134 0.953 . S
H115 C135 0.945 . S
H116 C137 0.952 . S
H117 C138 0.949 . S
H118 C140 0.950 . S
H119 C141 0.948 . S
H120 C143 0.951 . S
H121 C108 0.947 . S
H122 C110 0.952 . S
H123 C111 0.950 . S
N124 C127 1.382 . S
N124 C129 1.363 . S
N125 C127 1.371 . S
N125 C128 1.372 . S
N126 C128 1.361 . S
N126 C129 1.377 . S
C127 N124 1.382 . S
C127 N125 1.371 . S
C127 C130 1.480 . S
C128 N125 1.372 . S
C128 N126 1.361 . S
C128 C136 1.457 . S
C129 N124 1.363 . S
C129 N126 1.377 . S
C129 C142 1.479 . S
C130 C127 1.480 . S
C130 C131 1.383 . S
C130 C135 1.385 . S
C131 H112 0.947 . S
C131 C130 1.383 . S
C131 C132 1.388 . S
C132 H113 0.946 . S
C132 C131 1.388 . S
C132 C133 1.384 . S
C133 C132 1.384 . S
C133 C134 1.377 . S
C134 H114 0.953 . S
C134 C133 1.377 . S
C134 C135 1.369 . S
C135 H115 0.945 . S
C135 C130 1.385 . S
C135 C134 1.369 . S
C136 C128 1.457 . S
C136 C137 1.372 . S
C136 C141 1.364 . S
C137 H116 0.952 . S
C137 C136 1.372 . S
C137 C138 1.389 . S
C138 H117 0.949 . S
C138 C137 1.389 . S
C138 C139 1.387 . S
C139 C138 1.387 . S
C139 C140 1.372 . S
C140 H118 0.950 . S
C140 C139 1.372 . S
C140 C141 1.379 . S
C141 H119 0.948 . S
C141 C136 1.364 . S
C141 C140 1.379 . S
C142 C111 1.383 . S
C142 C129 1.479 . S
C142 C143 1.398 . S
C143 C108 1.382 . S
C143 H120 0.951 . S
C143 C142 1.398 . S
C144 C145 1.384 . S
C144 H157 0.947 . S
C144 C179 1.382 . S
C145 C144 1.384 . S
C145 C146 1.378 . S
C146 C145 1.378 . S
C146 C147 1.378 . S
C146 H158 0.952 . S
C147 C146 1.378 . S
C147 H159 0.950 . S
C147 C178 1.383 . S
H148 C167 0.947 . S
H149 C168 0.946 . S
H150 C170 0.953 . S
H151 C171 0.945 . S
H152 C173 0.952 . S
H153 C174 0.949 . S
H154 C176 0.950 . S
H155 C177 0.948 . S
H156 C179 0.951 . S
H157 C144 0.947 . S
H158 C146 0.952 . S
H159 C147 0.950 . S
N160 C163 1.382 . S
N160 C165 1.363 . S
N161 C163 1.371 . S
N161 C164 1.372 . S
N162 C164 1.361 . S
N162 C165 1.377 . S
C163 N160 1.382 . S
C163 N161 1.371 . S
C163 C166 1.480 . S
C164 N161 1.372 . S
C164 N162 1.361 . S
C164 C172 1.457 . S
C165 N160 1.363 . S
C165 N162 1.377 . S
C165 C178 1.479 . S
C166 C163 1.480 . S
C166 C167 1.383 . S
C166 C171 1.385 . S
C167 H148 0.947 . S
C167 C166 1.383 . S
C167 C168 1.388 . S
C168 H149 0.946 . S
C168 C167 1.388 . S
C168 C169 1.384 . S
C169 C168 1.384 . S
C169 C170 1.377 . S
C170 H150 0.953 . S
C170 C169 1.377 . S
C170 C171 1.369 . S
C171 H151 0.945 . S
C171 C166 1.385 . S
C171 C170 1.369 . S
C172 C164 1.457 . S
C172 C173 1.372 . S
C172 C177 1.364 . S
C173 H152 0.952 . S
C173 C172 1.372 . S
C173 C174 1.389 . S
C174 H153 0.949 . S
C174 C173 1.389 . S
C174 C175 1.387 . S
C175 C174 1.387 . S
C175 C176 1.372 . S
C176 H154 0.950 . S
C176 C175 1.372 . S
C176 C177 1.379 . S
C177 H155 0.948 . S
C177 C172 1.364 . S
C177 C176 1.379 . S
C178 C147 1.383 . S
C178 C165 1.479 . S
C178 C179 1.398 . S
C179 C144 1.382 . S
C179 H156 0.951 . S
C179 C178 1.398 . S
C180 C181 1.384 . S
C180 H193 0.947 . S
C180 C215 1.382 . S
C181 C180 1.384 . S
C181 C182 1.378 . S
C182 C181 1.378 . S
C182 C183 1.378 . S
C182 H194 0.952 . S
C183 C182 1.378 . S
C183 H195 0.950 . S
C183 C214 1.383 . S
H184 C203 0.947 . S
H185 C204 0.946 . S
H186 C206 0.953 . S
H187 C207 0.945 . S
H188 C209 0.952 . S
H189 C210 0.949 . S
H190 C212 0.950 . S
H191 C213 0.948 . S
H192 C215 0.951 . S
H193 C180 0.947 . S
H194 C182 0.952 . S
H195 C183 0.950 . S
N196 C199 1.382 . S
N196 C201 1.363 . S
N197 C199 1.371 . S
N197 C200 1.372 . S
N198 C200 1.361 . S
N198 C201 1.377 . S
C199 N196 1.382 . S
C199 N197 1.371 . S
C199 C202 1.480 . S
C200 N197 1.372 . S
C200 N198 1.361 . S
C200 C208 1.457 . S
C201 N196 1.363 . S
C201 N198 1.377 . S
C201 C214 1.479 . S
C202 C199 1.480 . S
C202 C203 1.383 . S
C202 C207 1.385 . S
C203 H184 0.947 . S
C203 C202 1.383 . S
C203 C204 1.388 . S
C204 H185 0.946 . S
C204 C203 1.388 . S
C204 C205 1.384 . S
C205 C204 1.384 . S
C205 C206 1.377 . S
C206 H186 0.953 . S
C206 C205 1.377 . S
C206 C207 1.369 . S
C207 H187 0.945 . S
C207 C202 1.385 . S
C207 C206 1.369 . S
C208 C200 1.457 . S
C208 C209 1.372 . S
C208 C213 1.364 . S
C209 H188 0.952 . S
C209 C208 1.372 . S
C209 C210 1.389 . S
C210 H189 0.949 . S
C210 C209 1.389 . S
C210 C211 1.387 . S
C211 C210 1.387 . S
C211 C212 1.372 . S
C212 H190 0.950 . S
C212 C211 1.372 . S
C212 C213 1.379 . S
C213 H191 0.948 . S
C213 C208 1.364 . S
C213 C212 1.379 . S
C214 C183 1.383 . S
C214 C201 1.479 . S
C214 C215 1.398 . S
C215 C180 1.382 . S
C215 H192 0.951 . S
C215 C214 1.398 . S
C216 C217 1.384 . S
C216 H229 0.947 . S
C216 C251 1.382 . S
C217 C216 1.384 . S
C217 C218 1.378 . S
C218 C217 1.378 . S
C218 C219 1.378 . S
C218 H230 0.952 . S
C219 C218 1.378 . S
C219 H231 0.950 . S
C219 C250 1.383 . S
H220 C239 0.947 . S
H221 C240 0.946 . S
H222 C242 0.953 . S
H223 C243 0.945 . S
H224 C245 0.952 . S
H225 C246 0.949 . S
H226 C248 0.950 . S
H227 C249 0.948 . S
H228 C251 0.951 . S
H229 C216 0.947 . S
H230 C218 0.952 . S
H231 C219 0.950 . S
N232 C235 1.382 . S
N232 C237 1.363 . S
N233 C235 1.371 . S
N233 C236 1.372 . S
N234 C236 1.361 . S
N234 C237 1.377 . S
C235 N232 1.382 . S
C235 N233 1.371 . S
C235 C238 1.480 . S
C236 N233 1.372 . S
C236 N234 1.361 . S
C236 C244 1.457 . S
C237 N232 1.363 . S
C237 N234 1.377 . S
C237 C250 1.479 . S
C238 C235 1.480 . S
C238 C239 1.383 . S
C238 C243 1.385 . S
C239 H220 0.947 . S
C239 C238 1.383 . S
C239 C240 1.388 . S
C240 H221 0.946 . S
C240 C239 1.388 . S
C240 C241 1.384 . S
C241 C240 1.384 . S
C241 C242 1.377 . S
C242 H222 0.953 . S
C242 C241 1.377 . S
C242 C243 1.369 . S
C243 H223 0.945 . S
C243 C238 1.385 . S
C243 C242 1.369 . S
C244 C236 1.457 . S
C244 C245 1.372 . S
C244 C249 1.364 . S
C245 H224 0.952 . S
C245 C244 1.372 . S
C245 C246 1.389 . S
C246 H225 0.949 . S
C246 C245 1.389 . S
C246 C247 1.387 . S
C247 C246 1.387 . S
C247 C248 1.372 . S
C248 H226 0.950 . S
C248 C247 1.372 . S
C248 C249 1.379 . S
C249 H227 0.948 . S
C249 C244 1.364 . S
C249 C248 1.379 . S
C250 C219 1.383 . S
C250 C237 1.479 . S
C250 C251 1.398 . S
C251 C216 1.382 . S
C251 H228 0.951 . S
C251 C250 1.398 . S
C252 C253 1.384 . S
C252 H265 0.947 . S
C252 C287 1.382 . S
C253 C252 1.384 . S
C253 C254 1.378 . S
C254 C253 1.378 . S
C254 C255 1.378 . S
C254 H266 0.952 . S
C255 C254 1.378 . S
C255 H267 0.950 . S
C255 C286 1.383 . S
H256 C275 0.947 . S
H257 C276 0.946 . S
H258 C278 0.953 . S
H259 C279 0.945 . S
H260 C281 0.952 . S
H261 C282 0.949 . S
H262 C284 0.950 . S
H263 C285 0.948 . S
H264 C287 0.951 . S
H265 C252 0.947 . S
H266 C254 0.952 . S
H267 C255 0.950 . S
N268 C271 1.382 . S
N268 C273 1.363 . S
N269 C271 1.371 . S
N269 C272 1.372 . S
N270 C272 1.361 . S
N270 C273 1.377 . S
C271 N268 1.382 . S
C271 N269 1.371 . S
C271 C274 1.480 . S
C272 N269 1.372 . S
C272 N270 1.361 . S
C272 C280 1.457 . S
C273 N268 1.363 . S
C273 N270 1.377 . S
C273 C286 1.479 . S
C274 C271 1.480 . S
C274 C275 1.383 . S
C274 C279 1.385 . S
C275 H256 0.947 . S
C275 C274 1.383 . S
C275 C276 1.388 . S
C276 H257 0.946 . S
C276 C275 1.388 . S
C276 C277 1.384 . S
C277 C276 1.384 . S
C277 C278 1.377 . S
C278 H258 0.953 . S
C278 C277 1.377 . S
C278 C279 1.369 . S
C279 H259 0.945 . S
C279 C274 1.385 . S
C279 C278 1.369 . S
C280 C272 1.457 . S
C280 C281 1.372 . S
C280 C285 1.364 . S
C281 H260 0.952 . S
C281 C280 1.372 . S
C281 C282 1.389 . S
C282 H261 0.949 . S
C282 C281 1.389 . S
C282 C283 1.387 . S
C283 C282 1.387 . S
C283 C284 1.372 . S
C284 H262 0.950 . S
C284 C283 1.372 . S
C284 C285 1.379 . S
C285 H263 0.948 . S
C285 C280 1.364 . S
C285 C284 1.379 . S
C286 C255 1.383 . S
C286 C273 1.479 . S
C286 C287 1.398 . S
C287 C252 1.382 . S
C287 H264 0.951 . S
C287 C286 1.398 . S
Co288 O291 2.042 . S
Co288 O298 2.264 . S
Co288 O317 2.286 . S
Co288 O318 2.069 . S
Co288 O320 2.015 . S
Co289 O291 2.122 . S
Co289 O297 2.073 . S
Co289 O298 2.327 . S
Co289 O299 1.976 . S
Co290 O291 2.087 . S
Co290 O293 2.087 1_455 S
Co290 O300 2.111 . S
Co290 O301 2.143 1_455 S
Co290 O305 2.111 1_455 S
Co290 O319 2.143 . S
O291 Co288 2.042 . S
O291 Co289 2.122 . S
O291 Co290 2.087 . S
O291 H292 0.980 . S
H292 O291 0.980 . S
O293 Co290 2.087 1_655 S
O293 Co294 2.042 . S
O293 Co295 2.122 . S
O293 H296 0.980 . S
Co294 O293 2.042 . S
Co294 O302 2.286 . S
Co294 O303 2.069 . S
Co294 O304 2.015 . S
Co294 O307 2.264 . S
Co295 O293 2.122 . S
Co295 O306 1.976 . S
Co295 O307 2.327 . S
Co295 O308 2.073 . S
H296 O293 0.980 . S
O297 Co289 2.073 . S
O297 C312 1.245 . S
O298 Co288 2.264 . S
O298 Co289 2.327 . S
O298 C312 1.257 . S
O299 Co289 1.976 . S
O299 C311 1.251 . S
O300 Co290 2.111 . S
O300 C311 1.274 . S
O301 Co290 2.143 1_655 S
O301 C314 1.246 . S
O302 Co294 2.286 . S
O302 C313 1.259 . S
O303 Co294 2.069 . S
O303 C313 1.289 . S
O304 Co294 2.015 . S
O304 C314 1.257 . S
O305 Co290 2.111 1_655 S
O305 C315 1.274 . S
O306 Co295 1.976 . S
O306 C315 1.251 . S
O307 Co294 2.264 . S
O307 Co295 2.327 . S
O307 C316 1.257 . S
O308 Co295 2.073 . S
O308 C316 1.245 . S
C309 O317 1.259 . S
C309 O318 1.289 . S
C310 O319 1.246 . S
C310 O320 1.257 . S
C311 O299 1.251 . S
C311 O300 1.274 . S
C312 O297 1.245 . S
C312 O298 1.257 . S
C313 O302 1.259 . S
C313 O303 1.289 . S
C314 O301 1.246 . S
C314 O304 1.257 . S
C315 O305 1.274 . S
C315 O306 1.251 . S
C316 O307 1.257 . S
C316 O308 1.245 . S
O317 Co288 2.286 . S
O317 C309 1.259 . S
O318 Co288 2.069 . S
O318 C309 1.289 . S
O319 Co290 2.143 . S
O319 C310 1.246 . S
O320 Co288 2.015 . S
O320 C310 1.257 . S
Co321 O324 2.042 . S
Co321 O331 2.264 . S
Co321 O350 2.286 . S
Co321 O351 2.069 . S
Co321 O353 2.015 . S
Co322 O324 2.122 . S
Co322 O330 2.073 . S
Co322 O331 2.327 . S
Co322 O332 1.976 . S
Co323 O324 2.087 1_545 S
Co323 O326 2.087 . S
Co323 O333 2.111 1_545 S
Co323 O334 2.143 . S
Co323 O338 2.111 . S
Co323 O352 2.143 1_545 S
O324 Co321 2.042 . S
O324 Co322 2.122 . S
O324 Co323 2.087 1_565 S
O324 H325 0.980 . S
H325 O324 0.980 . S
O326 Co323 2.087 . S
O326 Co327 2.042 . S
O326 Co328 2.122 . S
O326 H329 0.980 . S
Co327 O326 2.042 . S
Co327 O335 2.286 . S
Co327 O336 2.069 . S
Co327 O337 2.015 . S
Co327 O340 2.264 . S
Co328 O326 2.122 . S
Co328 O339 1.976 . S
Co328 O340 2.327 . S
Co328 O341 2.073 . S
H329 O326 0.980 . S
O330 Co322 2.073 . S
O330 C345 1.245 . S
O331 Co321 2.264 . S
O331 Co322 2.327 . S
O331 C345 1.257 . S
O332 Co322 1.976 . S
O332 C344 1.251 . S
O333 Co323 2.111 1_565 S
O333 C344 1.274 . S
O334 Co323 2.143 . S
O334 C347 1.246 . S
O335 Co327 2.286 . S
O335 C346 1.259 . S
O336 Co327 2.069 . S
O336 C346 1.289 . S
O337 Co327 2.015 . S
O337 C347 1.257 . S
O338 Co323 2.111 . S
O338 C348 1.274 . S
O339 Co328 1.976 . S
O339 C348 1.251 . S
O340 Co327 2.264 . S
O340 Co328 2.327 . S
O340 C349 1.257 . S
O341 Co328 2.073 . S
O341 C349 1.245 . S
C342 O350 1.259 . S
C342 O351 1.289 . S
C343 O352 1.246 . S
C343 O353 1.257 . S
C344 O332 1.251 . S
C344 O333 1.274 . S
C345 O330 1.245 . S
C345 O331 1.257 . S
C346 O335 1.259 . S
C346 O336 1.289 . S
C347 O334 1.246 . S
C347 O337 1.257 . S
C348 O338 1.274 . S
C348 O339 1.251 . S
C349 O340 1.257 . S
C349 O341 1.245 . S
O350 Co321 2.286 . S
O350 C342 1.259 . S
O351 Co321 2.069 . S
O351 C342 1.289 . S
O352 Co323 2.143 1_565 S
O352 C343 1.246 . S
O353 Co321 2.015 . S
O353 C343 1.257 . S
Co354 O357 2.042 . S
Co354 O364 2.264 . S
Co354 O383 2.286 . S
Co354 O384 2.069 . S
Co354 O386 2.015 . S
Co355 O357 2.122 . S
Co355 O363 2.073 . S
Co355 O364 2.327 . S
Co355 O365 1.976 . S
Co356 O357 2.087 . S
Co356 O359 2.087 1_554 S
Co356 O366 2.111 . S
Co356 O367 2.143 1_554 S
Co356 O371 2.111 1_554 S
Co356 O385 2.143 . S
O357 Co354 2.042 . S
O357 Co355 2.122 . S
O357 Co356 2.087 . S
O357 H358 0.980 . S
H358 O357 0.980 . S
O359 Co356 2.087 1_556 S
O359 Co360 2.042 . S
O359 Co361 2.122 . S
O359 H362 0.980 . S
Co360 O359 2.042 . S
Co360 O368 2.286 . S
Co360 O369 2.069 . S
Co360 O370 2.015 . S
Co360 O373 2.264 . S
Co361 O359 2.122 . S
Co361 O372 1.976 . S
Co361 O373 2.327 . S
Co361 O374 2.073 . S
H362 O359 0.980 . S
O363 Co355 2.073 . S
O363 C378 1.245 . S
O364 Co354 2.264 . S
O364 Co355 2.327 . S
O364 C378 1.257 . S
O365 Co355 1.976 . S
O365 C377 1.251 . S
O366 Co356 2.111 . S
O366 C377 1.274 . S
O367 Co356 2.143 1_556 S
O367 C380 1.246 . S
O368 Co360 2.286 . S
O368 C379 1.259 . S
O369 Co360 2.069 . S
O369 C379 1.289 . S
O370 Co360 2.015 . S
O370 C380 1.257 . S
O371 Co356 2.111 1_556 S
O371 C381 1.274 . S
O372 Co361 1.976 . S
O372 C381 1.251 . S
O373 Co360 2.264 . S
O373 Co361 2.327 . S
O373 C382 1.257 . S
O374 Co361 2.073 . S
O374 C382 1.245 . S
C375 O383 1.259 . S
C375 O384 1.289 . S
C376 O385 1.246 . S
C376 O386 1.257 . S
C377 O365 1.251 . S
C377 O366 1.274 . S
C378 O363 1.245 . S
C378 O364 1.257 . S
C379 O368 1.259 . S
C379 O369 1.289 . S
C380 O367 1.246 . S
C380 O370 1.257 . S
C381 O371 1.274 . S
C381 O372 1.251 . S
C382 O373 1.257 . S
C382 O374 1.245 . S
O383 Co354 2.286 . S
O383 C375 1.259 . S
O384 Co354 2.069 . S
O384 C375 1.289 . S
O385 Co356 2.143 . S
O385 C376 1.246 . S
O386 Co354 2.015 . S
O386 C376 1.257 . S
C387 C388 1.363 . S
C387 C393 1.379 . S
C387 N395 1.356 . S
C388 C387 1.363 . S
C388 C394 1.363 . S
C389 C390 1.363 . S
C389 C394 1.379 . S
C389 N396 1.356 . S
C390 C389 1.363 . S
C390 C393 1.363 . S
N391 C393 1.356 . S
N391 H403 0.984 . S
N391 H404 0.985 . S
N392 C394 1.356 . S
N392 H397 0.984 . S
N392 H398 0.985 . S
C393 C387 1.379 . S
C393 C390 1.363 . S
C393 N391 1.356 . S
C394 C388 1.363 . S
C394 C389 1.379 . S
C394 N392 1.356 . S
N395 C387 1.356 . S
N395 H401 0.984 . S
N395 H402 0.984 . S
N396 C389 1.356 . S
N396 H399 0.984 . S
N396 H400 0.985 . S
H397 N392 0.984 . S
H398 N392 0.985 . S
H399 N396 0.984 . S
H400 N396 0.985 . S
H401 N395 0.984 . S
H402 N395 0.984 . S
H403 N391 0.984 . S
H404 N391 0.985 . S
C405 C406 1.363 . S
C405 C411 1.379 . S
C405 N413 1.356 . S
C406 C405 1.363 . S
C406 C412 1.363 . S
C407 C408 1.363 . S
C407 C412 1.379 . S
C407 N414 1.356 . S
C408 C407 1.363 . S
C408 C411 1.363 . S
N409 C411 1.356 . S
N409 H421 0.984 . S
N409 H422 0.985 . S
N410 C412 1.356 . S
N410 H415 0.984 . S
N410 H416 0.985 . S
C411 C405 1.379 . S
C411 C408 1.363 . S
C411 N409 1.356 . S
C412 C406 1.363 . S
C412 C407 1.379 . S
C412 N410 1.356 . S
N413 C405 1.356 . S
N413 H419 0.984 . S
N413 H420 0.984 . S
N414 C407 1.356 . S
N414 H417 0.984 . S
N414 H418 0.985 . S
H415 N410 0.984 . S
H416 N410 0.985 . S
H417 N414 0.984 . S
H418 N414 0.985 . S
H419 N413 0.984 . S
H420 N413 0.984 . S
H421 N409 0.984 . S
H422 N409 0.985 . S
C423 C424 1.363 . S
C423 C429 1.379 . S
C423 N431 1.356 . S
C424 C423 1.363 . S
C424 C430 1.363 . S
C425 C426 1.363 . S
C425 C430 1.379 . S
C425 N432 1.356 . S
C426 C425 1.363 . S
C426 C429 1.363 . S
N427 C429 1.356 . S
N427 H439 0.984 . S
N427 H440 0.985 . S
N428 C430 1.356 . S
N428 H433 0.984 . S
N428 H434 0.985 . S
C429 C423 1.379 . S
C429 C426 1.363 . S
C429 N427 1.356 . S
C430 C424 1.363 . S
C430 C425 1.379 . S
C430 N428 1.356 . S
N431 C423 1.356 . S
N431 H437 0.984 . S
N431 H438 0.984 . S
N432 C425 1.356 . S
N432 H435 0.984 . S
N432 H436 0.985 . S
H433 N428 0.984 . S
H434 N428 0.985 . S
H435 N432 0.984 . S
H436 N432 0.985 . S
H437 N431 0.984 . S
H438 N431 0.984 . S
H439 N427 0.984 . S
H440 N427 0.985 . S
C441 C442 1.363 . S
C441 C447 1.379 . S
C441 N449 1.356 . S
C442 C441 1.363 . S
C442 C448 1.363 . S
C443 C444 1.363 . S
C443 C448 1.379 . S
C443 N450 1.356 . S
C444 C443 1.363 . S
C444 C447 1.363 . S
N445 C447 1.356 . S
N445 H457 0.984 . S
N445 H458 0.985 . S
N446 C448 1.356 . S
N446 H451 0.984 . S
N446 H452 0.985 . S
C447 C441 1.379 . S
C447 C444 1.363 . S
C447 N445 1.356 . S
C448 C442 1.363 . S
C448 C443 1.379 . S
C448 N446 1.356 . S
N449 C441 1.356 . S
N449 H455 0.984 . S
N449 H456 0.984 . S
N450 C443 1.356 . S
N450 H453 0.984 . S
N450 H454 0.985 . S
H451 N446 0.984 . S
H452 N446 0.985 . S
H453 N450 0.984 . S
H454 N450 0.985 . S
H455 N449 0.984 . S
H456 N449 0.984 . S
H457 N445 0.984 . S
H458 N445 0.985 . S
C459 C460 1.363 . S
C459 C465 1.379 . S
C459 N467 1.356 . S
C460 C459 1.363 . S
C460 C466 1.363 . S
C461 C462 1.363 . S
C461 C466 1.379 . S
C461 N468 1.356 . S
C462 C461 1.363 . S
C462 C465 1.363 . S
N463 C465 1.356 . S
N463 H475 0.984 . S
N463 H476 0.985 . S
N464 C466 1.356 . S
N464 H469 0.984 . S
N464 H470 0.985 . S
C465 C459 1.379 . S
C465 C462 1.363 . S
C465 N463 1.356 . S
C466 C460 1.363 . S
C466 C461 1.379 . S
C466 N464 1.356 . S
N467 C459 1.356 . S
N467 H473 0.984 . S
N467 H474 0.984 . S
N468 C461 1.356 . S
N468 H471 0.984 . S
N468 H472 0.985 . S
H469 N464 0.984 . S
H470 N464 0.985 . S
H471 N468 0.984 . S
H472 N468 0.985 . S
H473 N467 0.984 . S
H474 N467 0.984 . S
H475 N463 0.984 . S
H476 N463 0.985 . S
C477 C478 1.363 . S
C477 C483 1.379 . S
C477 N485 1.356 . S
C478 C477 1.363 . S
C478 C484 1.363 . S
C479 C480 1.363 . S
C479 C484 1.379 . S
C479 N486 1.356 . S
C480 C479 1.363 . S
C480 C483 1.363 . S
N481 C483 1.356 . S
N481 H493 0.984 . S
N481 H494 0.985 . S
N482 C484 1.356 . S
N482 H487 0.984 . S
N482 H488 0.985 . S
C483 C477 1.379 . S
C483 C480 1.363 . S
C483 N481 1.356 . S
C484 C478 1.363 . S
C484 C479 1.379 . S
C484 N482 1.356 . S
N485 C477 1.356 . S
N485 H491 0.984 . S
N485 H492 0.984 . S
N486 C479 1.356 . S
N486 H489 0.984 . S
N486 H490 0.985 . S
H487 N482 0.984 . S
H488 N482 0.985 . S
H489 N486 0.984 . S
H490 N486 0.985 . S
H491 N485 0.984 . S
H492 N485 0.984 . S
H493 N481 0.984 . S
H494 N481 0.985 . S
C495 C496 1.363 . S
C495 C501 1.379 . S
C495 N503 1.356 . S
C496 C495 1.363 . S
C496 C502 1.363 . S
C497 C498 1.363 . S
C497 C502 1.379 . S
C497 N504 1.356 . S
C498 C497 1.363 . S
C498 C501 1.363 . S
N499 C501 1.356 . S
N499 H511 0.984 . S
N499 H512 0.985 . S
N500 C502 1.356 . S
N500 H505 0.984 . S
N500 H506 0.985 . S
C501 C495 1.379 . S
C501 C498 1.363 . S
C501 N499 1.356 . S
C502 C496 1.363 . S
C502 C497 1.379 . S
C502 N500 1.356 . S
N503 C495 1.356 . S
N503 H509 0.984 . S
N503 H510 0.984 . S
N504 C497 1.356 . S
N504 H507 0.984 . S
N504 H508 0.985 . S
H505 N500 0.984 . S
H506 N500 0.985 . S
H507 N504 0.984 . S
H508 N504 0.985 . S
H509 N503 0.984 . S
H510 N503 0.984 . S
H511 N499 0.984 . S
H512 N499 0.985 . S
C513 C514 1.363 . S
C513 C519 1.379 . S
C513 N521 1.356 . S
C514 C513 1.363 . S
C514 C520 1.363 . S
C515 C516 1.363 . S
C515 C520 1.379 . S
C515 N522 1.356 . S
C516 C515 1.363 . S
C516 C519 1.363 . S
N517 C519 1.356 . S
N517 H529 0.984 . S
N517 H530 0.985 . S
N518 C520 1.356 . S
N518 H523 0.984 . S
N518 H524 0.985 . S
C519 C513 1.379 . S
C519 C516 1.363 . S
C519 N517 1.356 . S
C520 C514 1.363 . S
C520 C515 1.379 . S
C520 N518 1.356 . S
N521 C513 1.356 . S
N521 H527 0.984 . S
N521 H528 0.984 . S
N522 C515 1.356 . S
N522 H525 0.984 . S
N522 H526 0.985 . S
H523 N518 0.984 . S
H524 N518 0.985 . S
H525 N522 0.984 . S
H526 N522 0.985 . S
H527 N521 0.984 . S
H528 N521 0.984 . S
H529 N517 0.984 . S
H530 N517 0.985 . S
C531 C532 1.363 . S
C531 C537 1.379 . S
C531 N539 1.356 . S
C532 C531 1.363 . S
C532 C538 1.363 . S
C533 C534 1.363 . S
C533 C538 1.379 . S
C533 N540 1.356 . S
C534 C533 1.363 . S
C534 C537 1.363 . S
N535 C537 1.356 . S
N535 H547 0.984 . S
N535 H548 0.985 . S
N536 C538 1.356 . S
N536 H541 0.984 . S
N536 H542 0.985 . S
C537 C531 1.379 . S
C537 C534 1.363 . S
C537 N535 1.356 . S
C538 C532 1.363 . S
C538 C533 1.379 . S
C538 N536 1.356 . S
N539 C531 1.356 . S
N539 H545 0.984 . S
N539 H546 0.984 . S
N540 C533 1.356 . S
N540 H543 0.984 . S
N540 H544 0.985 . S
H541 N536 0.984 . S
H542 N536 0.985 . S
H543 N540 0.984 . S
H544 N540 0.985 . S
H545 N539 0.984 . S
H546 N539 0.984 . S
H547 N535 0.984 . S
H548 N535 0.985 . S
C549 C550 1.363 . S
C549 C555 1.379 . S
C549 N557 1.356 . S
C550 C549 1.363 . S
C550 C556 1.363 . S
C551 C552 1.363 . S
C551 C556 1.379 . S
C551 N558 1.356 . S
C552 C551 1.363 . S
C552 C555 1.363 . S
N553 C555 1.356 . S
N553 H565 0.984 . S
N553 H566 0.985 . S
N554 C556 1.356 . S
N554 H559 0.984 . S
N554 H560 0.985 . S
C555 C549 1.379 . S
C555 C552 1.363 . S
C555 N553 1.356 . S
C556 C550 1.363 . S
C556 C551 1.379 . S
C556 N554 1.356 . S
N557 C549 1.356 . S
N557 H563 0.984 . S
N557 H564 0.984 . S
N558 C551 1.356 . S
N558 H561 0.984 . S
N558 H562 0.985 . S
H559 N554 0.984 . S
H560 N554 0.985 . S
H561 N558 0.984 . S
H562 N558 0.985 . S
H563 N557 0.984 . S
H564 N557 0.984 . S
H565 N553 0.984 . S
H566 N553 0.985 . S
C567 C568 1.363 . S
C567 C573 1.379 . S
C567 N575 1.356 . S
C568 C567 1.363 . S
C568 C574 1.363 . S
C569 C570 1.363 . S
C569 C574 1.379 . S
C569 N576 1.356 . S
C570 C569 1.363 . S
C570 C573 1.363 . S
N571 C573 1.356 . S
N571 H583 0.984 . S
N571 H584 0.985 . S
N572 C574 1.356 . S
N572 H577 0.984 . S
N572 H578 0.985 . S
C573 C567 1.379 . S
C573 C570 1.363 . S
C573 N571 1.356 . S
C574 C568 1.363 . S
C574 C569 1.379 . S
C574 N572 1.356 . S
N575 C567 1.356 . S
N575 H581 0.984 . S
N575 H582 0.984 . S
N576 C569 1.356 . S
N576 H579 0.984 . S
N576 H580 0.985 . S
H577 N572 0.984 . S
H578 N572 0.985 . S
H579 N576 0.984 . S
H580 N576 0.985 . S
H581 N575 0.984 . S
H582 N575 0.984 . S
H583 N571 0.984 . S
H584 N571 0.985 . S
C585 C586 1.363 . S
C585 C591 1.379 . S
C585 N593 1.356 . S
C586 C585 1.363 . S
C586 C592 1.363 . S
C587 C588 1.363 . S
C587 C592 1.379 . S
C587 N594 1.356 . S
C588 C587 1.363 . S
C588 C591 1.363 . S
N589 C591 1.356 . S
N589 H601 0.984 . S
N589 H602 0.985 . S
N590 C592 1.356 . S
N590 H595 0.984 . S
N590 H596 0.985 . S
C591 C585 1.379 . S
C591 C588 1.363 . S
C591 N589 1.356 . S
C592 C586 1.363 . S
C592 C587 1.379 . S
C592 N590 1.356 . S
N593 C585 1.356 . S
N593 H599 0.984 . S
N593 H600 0.984 . S
N594 C587 1.356 . S
N594 H597 0.984 . S
N594 H598 0.985 . S
H595 N590 0.984 . S
H596 N590 0.985 . S
H597 N594 0.984 . S
H598 N594 0.985 . S
H599 N593 0.984 . S
H600 N593 0.984 . S
H601 N589 0.984 . S
H602 N589 0.985 . S
C603 C604 1.363 . S
C603 C609 1.379 . S
C603 N611 1.356 . S
C604 C603 1.363 . S
C604 C610 1.363 . S
C605 C606 1.363 . S
C605 C610 1.379 . S
C605 N612 1.356 . S
C606 C605 1.363 . S
C606 C609 1.363 . S
N607 C609 1.356 . S
N607 H619 0.984 . S
N607 H620 0.985 . S
N608 C610 1.356 . S
N608 H613 0.984 . S
N608 H614 0.985 . S
C609 C603 1.379 . S
C609 C606 1.363 . S
C609 N607 1.356 . S
C610 C604 1.363 . S
C610 C605 1.379 . S
C610 N608 1.356 . S
N611 C603 1.356 . S
N611 H617 0.984 . S
N611 H618 0.984 . S
N612 C605 1.356 . S
N612 H615 0.984 . S
N612 H616 0.985 . S
H613 N608 0.984 . S
H614 N608 0.985 . S
H615 N612 0.984 . S
H616 N612 0.985 . S
H617 N611 0.984 . S
H618 N611 0.984 . S
H619 N607 0.984 . S
H620 N607 0.985 . S
C621 C622 1.363 . S
C621 C627 1.379 . S
C621 N629 1.356 . S
C622 C621 1.363 . S
C622 C628 1.363 . S
C623 C624 1.363 . S
C623 C628 1.379 . S
C623 N630 1.356 . S
C624 C623 1.363 . S
C624 C627 1.363 . S
N625 C627 1.356 . S
N625 H637 0.984 . S
N625 H638 0.985 . S
N626 C628 1.356 . S
N626 H631 0.984 . S
N626 H632 0.985 . S
C627 C621 1.379 . S
C627 C624 1.363 . S
C627 N625 1.356 . S
C628 C622 1.363 . S
C628 C623 1.379 . S
C628 N626 1.356 . S
N629 C621 1.356 . S
N629 H635 0.984 . S
N629 H636 0.984 . S
N630 C623 1.356 . S
N630 H633 0.984 . S
N630 H634 0.985 . S
H631 N626 0.984 . S
H632 N626 0.985 . S
H633 N630 0.984 . S
H634 N630 0.985 . S
H635 N629 0.984 . S
H636 N629 0.984 . S
H637 N625 0.984 . S
H638 N625 0.985 . S
C639 C640 1.363 . S
C639 C645 1.379 . S
C639 N647 1.356 . S
C640 C639 1.363 . S
C640 C646 1.363 . S
C641 C642 1.363 . S
C641 C646 1.379 . S
C641 N648 1.356 . S
C642 C641 1.363 . S
C642 C645 1.363 . S
N643 C645 1.356 . S
N643 H655 0.984 . S
N643 H656 0.985 . S
N644 C646 1.356 . S
N644 H649 0.984 . S
N644 H650 0.985 . S
C645 C639 1.379 . S
C645 C642 1.363 . S
C645 N643 1.356 . S
C646 C640 1.363 . S
C646 C641 1.379 . S
C646 N644 1.356 . S
N647 C639 1.356 . S
N647 H653 0.984 . S
N647 H654 0.984 . S
N648 C641 1.356 . S
N648 H651 0.984 . S
N648 H652 0.985 . S
H649 N644 0.984 . S
H650 N644 0.985 . S
H651 N648 0.984 . S
H652 N648 0.985 . S
H653 N647 0.984 . S
H654 N647 0.984 . S
H655 N643 0.984 . S
H656 N643 0.985 . S
C657 C658 1.363 . S
C657 C663 1.379 . S
C657 N665 1.356 . S
C658 C657 1.363 . S
C658 C664 1.363 . S
C659 C660 1.363 . S
C659 C664 1.379 . S
C659 N666 1.356 . S
C660 C659 1.363 . S
C660 C663 1.363 . S
N661 C663 1.356 . S
N661 H673 0.984 . S
N661 H674 0.985 . S
N662 C664 1.356 . S
N662 H667 0.984 . S
N662 H668 0.985 . S
C663 C657 1.379 . S
C663 C660 1.363 . S
C663 N661 1.356 . S
C664 C658 1.363 . S
C664 C659 1.379 . S
C664 N662 1.356 . S
N665 C657 1.356 . S
N665 H671 0.984 . S
N665 H672 0.984 . S
N666 C659 1.356 . S
N666 H669 0.984 . S
N666 H670 0.985 . S
H667 N662 0.984 . S
H668 N662 0.985 . S
H669 N666 0.984 . S
H670 N666 0.985 . S
H671 N665 0.984 . S
H672 N665 0.984 . S
H673 N661 0.984 . S
H674 N661 0.985 . S
C675 C676 1.363 . S
C675 C681 1.379 . S
C675 N683 1.356 . S
C676 C675 1.363 . S
C676 C682 1.363 . S
C677 C678 1.363 . S
C677 C682 1.379 . S
C677 N684 1.356 . S
C678 C677 1.363 . S
C678 C681 1.363 . S
N679 C681 1.356 . S
N679 H691 0.984 . S
N679 H692 0.985 . S
N680 C682 1.356 . S
N680 H685 0.984 . S
N680 H686 0.985 . S
C681 C675 1.379 . S
C681 C678 1.363 . S
C681 N679 1.356 . S
C682 C676 1.363 . S
C682 C677 1.379 . S
C682 N680 1.356 . S
N683 C675 1.356 . S
N683 H689 0.984 . S
N683 H690 0.984 . S
N684 C677 1.356 . S
N684 H687 0.984 . S
N684 H688 0.985 . S
H685 N680 0.984 . S
H686 N680 0.985 . S
H687 N684 0.984 . S
H688 N684 0.985 . S
H689 N683 0.984 . S
H690 N683 0.984 . S
H691 N679 0.984 . S
H692 N679 0.985 . S
C693 C694 1.363 . S
C693 C699 1.379 . S
C693 N701 1.356 . S
C694 C693 1.363 . S
C694 C700 1.363 . S
C695 C696 1.363 . S
C695 C700 1.379 . S
C695 N702 1.356 . S
C696 C695 1.363 . S
C696 C699 1.363 . S
N697 C699 1.356 . S
N697 H709 0.984 . S
N697 H710 0.985 . S
N698 C700 1.356 . S
N698 H703 0.984 . S
N698 H704 0.985 . S
C699 C693 1.379 . S
C699 C696 1.363 . S
C699 N697 1.356 . S
C700 C694 1.363 . S
C700 C695 1.379 . S
C700 N698 1.356 . S
N701 C693 1.356 . S
N701 H707 0.984 . S
N701 H708 0.984 . S
N702 C695 1.356 . S
N702 H705 0.984 . S
N702 H706 0.985 . S
H703 N698 0.984 . S
H704 N698 0.985 . S
H705 N702 0.984 . S
H706 N702 0.985 . S
H707 N701 0.984 . S
H708 N701 0.984 . S
H709 N697 0.984 . S
H710 N697 0.985 . S
C711 C712 1.363 . S
C711 C717 1.379 . S
C711 N719 1.356 . S
C712 C711 1.363 . S
C712 C718 1.363 . S
C713 C714 1.363 . S
C713 C718 1.379 . S
C713 N720 1.356 . S
C714 C713 1.363 . S
C714 C717 1.363 . S
N715 C717 1.356 . S
N715 H727 0.984 . S
N715 H728 0.985 . S
N716 C718 1.356 . S
N716 H721 0.984 . S
N716 H722 0.985 . S
C717 C711 1.379 . S
C717 C714 1.363 . S
C717 N715 1.356 . S
C718 C712 1.363 . S
C718 C713 1.379 . S
C718 N716 1.356 . S
N719 C711 1.356 . S
N719 H725 0.984 . S
N719 H726 0.984 . S
N720 C713 1.356 . S
N720 H723 0.984 . S
N720 H724 0.985 . S
H721 N716 0.984 . S
H722 N716 0.985 . S
H723 N720 0.984 . S
H724 N720 0.985 . S
H725 N719 0.984 . S
H726 N719 0.984 . S
H727 N715 0.984 . S
H728 N715 0.985 . S
C729 C730 1.363 . S
C729 C735 1.379 . S
C729 N737 1.356 . S
C730 C729 1.363 . S
C730 C736 1.363 . S
C731 C732 1.363 . S
C731 C736 1.379 . S
C731 N738 1.356 . S
C732 C731 1.363 . S
C732 C735 1.363 . S
N733 C735 1.356 . S
N733 H745 0.984 . S
N733 H746 0.985 . S
N734 C736 1.356 . S
N734 H739 0.984 . S
N734 H740 0.985 . S
C735 C729 1.379 . S
C735 C732 1.363 . S
C735 N733 1.356 . S
C736 C730 1.363 . S
C736 C731 1.379 . S
C736 N734 1.356 . S
N737 C729 1.356 . S
N737 H743 0.984 . S
N737 H744 0.984 . S
N738 C731 1.356 . S
N738 H741 0.984 . S
N738 H742 0.985 . S
H739 N734 0.984 . S
H740 N734 0.985 . S
H741 N738 0.984 . S
H742 N738 0.985 . S
H743 N737 0.984 . S
H744 N737 0.984 . S
H745 N733 0.984 . S
H746 N733 0.985 . S
C747 C748 1.363 . S
C747 C753 1.379 . S
C747 N755 1.356 . S
C748 C747 1.363 . S
C748 C754 1.363 . S
C749 C750 1.363 . S
C749 C754 1.379 . S
C749 N756 1.356 . S
C750 C749 1.363 . S
C750 C753 1.363 . S
N751 C753 1.356 . S
N751 H763 0.984 . S
N751 H764 0.985 . S
N752 C754 1.356 . S
N752 H757 0.984 . S
N752 H758 0.985 . S
C753 C747 1.379 . S
C753 C750 1.363 . S
C753 N751 1.356 . S
C754 C748 1.363 . S
C754 C749 1.379 . S
C754 N752 1.356 . S
N755 C747 1.356 . S
N755 H761 0.984 . S
N755 H762 0.984 . S
N756 C749 1.356 . S
N756 H759 0.984 . S
N756 H760 0.985 . S
H757 N752 0.984 . S
H758 N752 0.985 . S
H759 N756 0.984 . S
H760 N756 0.985 . S
H761 N755 0.984 . S
H762 N755 0.984 . S
H763 N751 0.984 . S
H764 N751 0.985 . S
C765 C766 1.363 . S
C765 C771 1.379 . S
C765 N773 1.356 . S
C766 C765 1.363 . S
C766 C772 1.363 . S
C767 C768 1.363 . S
C767 C772 1.379 . S
C767 N774 1.356 . S
C768 C767 1.363 . S
C768 C771 1.363 . S
N769 C771 1.356 . S
N769 H781 0.984 . S
N769 H782 0.985 . S
N770 C772 1.356 . S
N770 H775 0.984 . S
N770 H776 0.985 . S
C771 C765 1.379 . S
C771 C768 1.363 . S
C771 N769 1.356 . S
C772 C766 1.363 . S
C772 C767 1.379 . S
C772 N770 1.356 . S
N773 C765 1.356 . S
N773 H779 0.984 . S
N773 H780 0.984 . S
N774 C767 1.356 . S
N774 H777 0.984 . S
N774 H778 0.985 . S
H775 N770 0.984 . S
H776 N770 0.985 . S
H777 N774 0.984 . S
H778 N774 0.985 . S
H779 N773 0.984 . S
H780 N773 0.984 . S
H781 N769 0.984 . S
H782 N769 0.985 . S
C783 C784 1.363 . S
C783 C789 1.379 . S
C783 N791 1.356 . S
C784 C783 1.363 . S
C784 C790 1.363 . S
C785 C786 1.363 . S
C785 C790 1.379 . S
C785 N792 1.356 . S
C786 C785 1.363 . S
C786 C789 1.363 . S
N787 C789 1.356 . S
N787 H799 0.984 . S
N787 H800 0.985 . S
N788 C790 1.356 . S
N788 H793 0.984 . S
N788 H794 0.985 . S
C789 C783 1.379 . S
C789 C786 1.363 . S
C789 N787 1.356 . S
C790 C784 1.363 . S
C790 C785 1.379 . S
C790 N788 1.356 . S
N791 C783 1.356 . S
N791 H797 0.984 . S
N791 H798 0.984 . S
N792 C785 1.356 . S
N792 H795 0.984 . S
N792 H796 0.985 . S
H793 N788 0.984 . S
H794 N788 0.985 . S
H795 N792 0.984 . S
H796 N792 0.985 . S
H797 N791 0.984 . S
H798 N791 0.984 . S
H799 N787 0.984 . S
H800 N787 0.985 . S
C801 C802 1.363 . S
C801 C807 1.379 . S
C801 N809 1.356 . S
C802 C801 1.363 . S
C802 C808 1.363 . S
C803 C804 1.363 . S
C803 C808 1.379 . S
C803 N810 1.356 . S
C804 C803 1.363 . S
C804 C807 1.363 . S
N805 C807 1.356 . S
N805 H817 0.984 . S
N805 H818 0.985 . S
N806 C808 1.356 . S
N806 H811 0.984 . S
N806 H812 0.985 . S
C807 C801 1.379 . S
C807 C804 1.363 . S
C807 N805 1.356 . S
C808 C802 1.363 . S
C808 C803 1.379 . S
C808 N806 1.356 . S
N809 C801 1.356 . S
N809 H815 0.984 . S
N809 H816 0.984 . S
N810 C803 1.356 . S
N810 H813 0.984 . S
N810 H814 0.985 . S
H811 N806 0.984 . S
H812 N806 0.985 . S
H813 N810 0.984 . S
H814 N810 0.985 . S
H815 N809 0.984 . S
H816 N809 0.984 . S
H817 N805 0.984 . S
H818 N805 0.985 . S
C390 C312 1.190 . S
C388 C1 1.234 . S
C408 C348 1.675 . S
C406 C37 1.781 . S
C426 C313 1.455 . S
C424 C103 1.449 . S
C444 C343 1.594 . S
C442 C139 1.580 . S
C462 C310 1.536 . S
C460 C145 1.552 . S
C478 C205 1.717 . S
C480 C346 1.735 . S
C496 C247 1.295 . S
C498 C315 1.199 . S
C516 C345 1.534 . S
C514 C283 1.502 . S
C534 C349 1.535 . S
C532 C25 1.479 . S
C552 C314 1.544 . S
C550 C67 1.600 . S
C570 C342 1.728 . S
C568 C97 1.714 . S
C588 C311 1.193 . S
C586 C109 1.295 . S
C606 C344 1.666 . S
C604 C169 1.731 . S
C622 C181 1.444 . S
C624 C309 1.451 . S
C640 C217 1.555 . S
C642 C347 1.572 . S
C660 C316 1.182 . S
C658 C277 1.233 . S
C678 C378 1.602 . S
C676 C31 1.695 . S
C694 C175 1.988 . S
C696 C381 1.908 . S
C714 C380 1.737 . S
C712 C211 1.774 . S
C730 C241 1.977 . S
C732 C379 2.016 . S
C750 C382 1.581 . S
C748 C253 1.697 . S
C766 C73 1.760 . S
C768 C376 1.727 . S
C786 C375 2.010 . S
C784 C133 1.975 . S
C802 C61 2.032 . S
C804 C377 1.904 . S
