# Generated by pormake.
# Topology tsx, (6,3)-cn, num edge types: 1
# Building blocks:
#     Node 0, Type 0, BuildingBlock: FUNLAD_clean_sbu_0, # of connection points: 6
#     Node 1, Type 0, BuildingBlock: FUNLAD_clean_sbu_0, # of connection points: 6
#     Node 2, Type 1, BuildingBlock: INOVEN_clean_linker_0, # of connection points: 3
#     Node 3, Type 1, BuildingBlock: INOVEN_clean_linker_0, # of connection points: 3
#     Node 4, Type 1, BuildingBlock: INOVEN_clean_linker_0, # of connection points: 3
#     Node 5, Type 1, BuildingBlock: INOVEN_clean_linker_0, # of connection points: 3
#     Edge 6, Type (0, 1), BuildingBlock: EZIPEK_clean_linker_0, # of connection points: 2
#     Edge 7, Type (0, 1), BuildingBlock: EZIPEK_clean_linker_0, # of connection points: 2
#     Edge 8, Type (0, 1), BuildingBlock: EZIPEK_clean_linker_0, # of connection points: 2
#     Edge 9, Type (0, 1), BuildingBlock: EZIPEK_clean_linker_0, # of connection points: 2
#     Edge 10, Type (0, 1), BuildingBlock: EZIPEK_clean_linker_0, # of connection points: 2
#     Edge 11, Type (0, 1), BuildingBlock: EZIPEK_clean_linker_0, # of connection points: 2
#     Edge 12, Type (0, 1), BuildingBlock: EZIPEK_clean_linker_0, # of connection points: 2
#     Edge 13, Type (0, 1), BuildingBlock: EZIPEK_clean_linker_0, # of connection points: 2
#     Edge 14, Type (0, 1), BuildingBlock: EZIPEK_clean_linker_0, # of connection points: 2
#     Edge 15, Type (0, 1), BuildingBlock: EZIPEK_clean_linker_0, # of connection points: 2
#     Edge 16, Type (0, 1), BuildingBlock: EZIPEK_clean_linker_0, # of connection points: 2
#     Edge 17, Type (0, 1), BuildingBlock: EZIPEK_clean_linker_0, # of connection points: 2
# Relax obj value: 0.107
# Max RMSD: 0.114
# Mean RMSD: 0.110
data_MOF--net-tsx--node1-FUNLAD_clean_sbu_0--node2-INOVEN_clean_linker_0--edge1-EZIPEK_clean_linker_0
_symmetry_space_group_name_H-M    P1
_symmetry_Int_Tables_number       1
_symmetry_cell_setting            triclinic
loop_
_symmetry_equiv_pos_as_xyz
'x, y, z'
_cell_length_a     14.325214
_cell_length_b     14.926244
_cell_length_c     30.575582
_cell_angle_alpha  89.926809
_cell_angle_beta   100.21973
_cell_angle_gamma 90.525893
loop_
_atom_site_label
_atom_site_type_symbol
_atom_site_fract_x
_atom_site_fract_y
_atom_site_fract_z
_atom_type_partial_charge
C0 C 0.91435 0.80462 -0.00761 0.0
N1 N 0.06012 0.95185 0.09748 0.0
C2 C 0.97665 0.96061 0.11248 0.0
C3 C 0.97614 0.97723 0.15721 0.0
C4 C 0.06225 0.98397 0.18688 0.0
C5 C 0.1475 0.97084 0.1712 0.0
C6 C 0.14481 0.95512 0.12587 0.0
Zn7 Zn 0.05176 0.94539 0.03021 0.0
C8 C 0.17938 0.80913 -0.00114 0.0
N9 N 0.02544 0.93693 0.88974 0.0
C10 C 0.93783 0.92911 0.86411 0.0
C11 C 0.10391 0.95306 0.87142 0.0
C12 C 0.0952 0.96765 0.82582 0.0
C13 C 0.00508 0.96465 0.79912 0.0
C14 C 0.92602 0.94244 0.8183 0.0
Zn15 Zn 0.03799 0.93908 0.95705 0.0
O16 O 0.9463 0.84755 0.02762 0.0
C17 C 0.90098 0.0672 0.98366 0.0
O18 O 0.94005 0.8279 0.95613 0.0
H19 H 0.17286 0.9587 0.89244 0.0
H20 H 0.91006 0.9576 0.08947 0.0
H21 H 0.87648 0.91677 0.87944 0.0
O22 O 0.94459 0.04849 0.0225 0.0
O23 O 0.92556 0.03005 0.95035 0.0
H24 H 0.21021 0.94824 0.11316 0.0
O25 O 0.13988 0.04996 0.96095 0.0
O26 O 0.15938 0.04522 0.03369 0.0
O27 O 0.1454 0.8461 0.96228 0.0
O28 O 0.15581 0.83746 0.0348 0.0
C29 C 0.18041 0.07978 -0.0013 0.0
H30 H 0.90931 0.98687 0.16842 0.0
H31 H 0.2151 0.97551 0.19354 0.0
H32 H 0.15735 0.98489 0.81179 0.0
H33 H 0.85553 0.94001 0.79836 0.0
C34 C 0.35507 0.50349 0.4943 0.0
N35 N 0.54538 0.61899 0.59396 0.0
C36 C 0.47255 0.62799 0.61678 0.0
C37 C 0.48347 0.60217 0.66117 0.0
C38 C 0.56946 0.56517 0.68196 0.0
C39 C 0.64533 0.56117 0.65871 0.0
C40 C 0.63187 0.58941 0.61443 0.0
Zn41 Zn 0.51381 0.62967 0.52621 0.0
C42 C 0.61994 0.50401 0.47871 0.0
N43 N 0.43159 0.6398 0.38546 0.0
C44 C 0.34192 0.62145 0.36379 0.0
C45 C 0.50533 0.64763 0.36309 0.0
C46 C 0.49183 0.63031 0.31771 0.0
C47 C 0.40181 0.60463 0.29532 0.0
C48 C 0.32526 0.60329 0.31819 0.0
Zn49 Zn 0.4644 0.63574 0.45305 0.0
O50 O 0.41009 0.53449 0.52776 0.0
C51 C 0.36042 0.76639 0.49538 0.0
O52 O 0.36134 0.53119 0.45554 0.0
H53 H 0.57615 0.66118 0.38096 0.0
H54 H 0.40377 0.64963 0.59988 0.0
H55 H 0.28444 0.61538 0.38228 0.0
O56 O 0.41267 0.73539 0.53014 0.0
O57 O 0.36342 0.73188 0.45785 0.0
H58 H 0.68886 0.58271 0.59578 0.0
O59 O 0.5672 0.74245 0.45439 0.0
O60 O 0.61723 0.72668 0.52631 0.0
O61 O 0.56635 0.54049 0.44647 0.0
O62 O 0.61407 0.52606 0.51833 0.0
C63 C 0.61964 0.76829 0.49039 0.0
H64 H 0.42351 0.60552 0.67827 0.0
H65 H 0.71249 0.53256 0.67396 0.0
H66 H 0.55223 0.63113 0.30081 0.0
H67 H 0.25511 0.58291 0.30161 0.0
H68 H 0.08915 0.1475 0.49388 0.0
H69 H 0.1547 0.97612 0.39153 0.0
H70 H 0.95656 0.18968 0.35754 0.0
N71 N 0.95777 0.24282 0.44246 0.0
N72 N 0.87989 0.2639 0.41986 0.0
C73 C 0.07878 0.1291 0.45934 0.0
C74 C 0.12635 0.05479 0.44677 0.0
C75 C 0.01509 0.17651 0.42765 0.0
C76 C 0.00419 0.15263 0.38248 0.0
C77 C 0.05631 0.08147 0.36944 0.0
C78 C 0.11518 0.03172 0.40171 0.0
H79 H 0.86802 0.16703 0.49554 0.0
H80 H 0.84534 0.97084 0.59558 0.0
H81 H 0.04074 0.1908 0.62549 0.0
N82 N 0.01505 0.25459 0.54128 0.0
N83 N 0.09691 0.27313 0.56058 0.0
C84 C 0.89074 0.14206 0.52869 0.0
C85 C 0.85223 0.06191 0.54124 0.0
C86 C 0.96165 0.18689 0.55816 0.0
C87 C 0.98726 0.1557 0.60203 0.0
C88 C 0.94359 0.07901 0.61576 0.0
C89 C 0.87816 0.03103 0.58504 0.0
H90 H 0.50935 0.30826 0.96432 0.0
H91 H 0.67011 0.31557 0.8587 0.0
H92 H 0.4501 0.50802 0.86141 0.0
N93 N 0.41642 0.46395 0.94282 0.0
N94 N 0.40935 0.54742 0.94002 0.0
C95 C 0.52427 0.33996 0.93458 0.0
C96 C 0.59919 0.3072 0.91522 0.0
C97 C 0.47438 0.41674 0.91719 0.0
C98 C 0.49001 0.45085 0.87614 0.0
C99 C 0.55786 0.41212 0.85426 0.0
C100 C 0.61392 0.34193 0.87438 0.0
H101 H 0.53074 0.40005 0.01714 0.0
H102 H 0.34004 0.37029 0.1104 0.0
H103 H 0.55852 0.57302 0.12972 0.0
N104 N 0.62928 0.54054 0.05822 0.0
N105 N 0.65893 0.52656 0.0228 0.0
C106 C 0.50581 0.4204 0.0464 0.0
C107 C 0.42842 0.37569 0.0601 0.0
C108 C 0.5528 0.49191 0.07135 0.0
C109 C 0.52235 0.51823 0.11024 0.0
C110 C 0.44615 0.47447 0.12439 0.0
C111 C 0.39912 0.4038 0.09926 0.0
C112 C 0.22174 0.2435 -0.0075 0.0
C113 C 0.25184 0.15456 0.00313 0.0
C114 C 0.40975 0.21237 0.03762 0.0
C115 C 0.37403 0.30108 0.03386 0.0
N116 N 0.24566 0.40214 0.0084 0.0
N117 N 0.37553 0.05219 0.03318 0.0
C118 C 0.28035 0.31693 0.01079 0.0
C119 C 0.34676 0.13848 0.02444 0.0
N120 N 0.13682 0.25789 0.96519 0.0
N121 N 0.50359 0.19886 0.05423 0.0
H122 H 0.33352 0.99698 0.02117 0.0
H123 H 0.43916 0.03483 0.05333 0.0
H124 H 0.55061 0.25096 0.0655 0.0
H125 H 0.53684 0.13725 0.05392 0.0
H126 H 0.1149 0.3205 0.9525 0.0
H127 H 0.09132 0.20604 0.95196 0.0
H128 H 0.17454 0.41741 -0.00239 0.0
H129 H 0.28746 0.45784 0.01968 0.0
C130 C 0.33493 0.72885 0.01161 0.0
C131 C 0.23609 0.72681 -0.00336 0.0
C132 C 0.25061 0.59175 0.95211 0.0
C133 C 0.35055 0.59849 0.96376 0.0
N134 N 0.48868 0.67667 0.00119 0.0
N135 N 0.09682 0.64385 0.9634 0.0
C136 C 0.39269 0.66705 -0.00667 0.0
C137 C 0.19314 0.65378 0.97042 0.0
N138 N 0.37324 0.79029 0.04296 0.0
N139 N 0.21105 0.53126 0.9205 0.0
H140 H 0.05356 0.68876 0.97616 0.0
H141 H 0.06053 0.58774 0.94874 0.0
H142 H 0.25096 0.48596 0.90581 0.0
H143 H 0.13937 0.52931 0.90649 0.0
H144 H 0.44403 0.79099 0.05846 0.0
H145 H 0.33195 0.8363 0.05647 0.0
H146 H 0.52571 0.72995 0.01829 0.0
H147 H 0.53092 0.6324 -0.01223 0.0
C148 C 0.77088 0.70626 0.96493 0.0
C149 C 0.85573 0.7228 -0.00424 0.0
C150 C 0.81837 0.59567 0.04136 0.0
C151 C 0.73289 0.58156 0.0111 0.0
N152 N 0.64596 0.59968 0.93734 0.0
N153 N 0.9742 0.66492 0.0555 0.0
C154 C 0.71597 0.62872 0.97041 0.0
C155 C 0.88377 0.66201 0.03177 0.0
N156 N 0.73893 0.76703 0.93234 0.0
N157 N 0.83725 0.54461 0.07892 0.0
H158 H 0.02603 0.70938 0.04854 0.0
H159 H 0.00131 0.61739 0.0792 0.0
H160 H 0.79621 0.48862 0.08386 0.0
H161 H 0.89154 0.559 0.10549 0.0
H162 H 0.67239 0.76255 0.91214 0.0
H163 H 0.77447 0.82656 0.92793 0.0
H164 H 0.63198 0.62782 0.90571 0.0
H165 H 0.60719 0.54196 0.94127 0.0
C166 C 0.83433 0.22258 0.97921 0.0
C167 C 0.819 0.12878 0.97611 0.0
C168 C 0.65451 0.15132 0.93836 0.0
C169 C 0.67066 0.24517 0.9401 0.0
N170 N 0.76741 0.37156 0.96981 0.0
N171 N 0.71085 1.00349 0.96341 0.0
C172 C 0.75796 0.28116 0.96318 0.0
C173 C 0.72757 0.09311 0.95906 0.0
N174 N 0.92312 0.25543 -0.00453 0.0
N175 N 0.57082 0.11798 0.9154 0.0
H176 H 0.76281 0.96004 0.97926 0.0
H177 H 0.64422 0.97345 0.95514 0.0
H178 H 0.51513 0.15898 0.90098 0.0
H179 H 0.5581 0.05028 0.90848 0.0
H180 H 0.94284 0.32236 -0.00655 0.0
H181 H 0.97919 0.21452 0.00946 0.0
H182 H 0.82491 0.40188 -0.00984 0.0
H183 H 0.71398 0.41641 0.95737 0.0
C184 C 0.6382 0.92614 0.51862 0.0
C185 C 0.6688 0.85608 0.49277 0.0
C186 C 0.80267 0.94975 0.48023 0.0
C187 C 0.77787 1.01212 0.51093 0.0
N188 N 0.6545 0.08201 0.54121 0.0
N189 N 0.77445 0.80292 0.44543 0.0
C190 C 0.68875 1.00782 0.5235 0.0
C191 C 0.74821 0.8693 0.47144 0.0
N192 N 0.56515 0.91301 0.54119 0.0
N193 N 0.87657 0.96929 0.45916 0.0
H194 H 0.73604 0.74332 0.43874 0.0
H195 H 0.83543 0.80483 0.4314 0.0
H196 H 0.91044 0.03145 0.46288 0.0
H197 H 0.89917 0.92869 0.43558 0.0
H198 H 0.54839 0.95754 0.56476 0.0
H199 H 0.52444 0.85512 0.53857 0.0
H200 H 0.58552 0.08656 0.54745 0.0
H201 H 0.69264 0.14236 0.54491 0.0
C202 C 0.65847 0.35364 0.45067 0.0
C203 C 0.69013 0.43867 0.46856 0.0
C204 C 0.84701 0.41187 0.44959 0.0
C205 C 0.81791 0.32356 0.43654 0.0
N206 N 0.70206 0.20503 0.43006 0.0
N207 N 0.81592 0.5478 0.48798 0.0
C208 C 0.72534 0.293 0.43877 0.0
C209 C 0.78534 0.46713 0.46936 0.0
N210 N 0.56394 0.33244 0.44282 0.0
N211 N 0.93038 0.44468 0.4401 0.0
H212 H 0.77203 0.59099 0.50169 0.0
H213 H 0.88608 0.56974 0.49233 0.0
H214 H 0.97546 0.40636 0.42452 0.0
H215 H 0.95001 0.51192 0.44342 0.0
H216 H 0.53603 0.27512 0.42577 0.0
H217 H 0.51206 0.37615 0.44955 0.0
H218 H 0.63936 0.17567 0.43615 0.0
H219 H 0.74931 0.15958 0.42021 0.0
C220 C 0.31293 0.35319 0.52046 0.0
C221 C 0.28279 0.43825 0.5027 0.0
C222 C 0.13004 0.41772 0.52707 0.0
C223 C 0.15755 0.33005 0.54108 0.0
N224 N 0.26833 0.20917 0.54764 0.0
N225 N 0.16105 0.54982 0.48529 0.0
C226 C 0.24701 0.29632 0.53654 0.0
C227 C 0.1901 0.46945 0.50426 0.0
N228 N 0.40585 0.32894 0.52425 0.0
N229 N 0.05069 0.45362 0.53879 0.0
H230 H 0.20391 0.59 0.46895 0.0
H231 H 0.09266 0.57431 0.48314 0.0
H232 H 0.0077 0.41823 0.5571 0.0
H233 H 0.03294 0.52087 0.53454 0.0
H234 H 0.43452 0.27235 0.5413 0.0
H235 H 0.45671 0.36921 0.51329 0.0
H236 H 0.32867 0.17708 0.54124 0.0
H237 H 0.22203 0.16665 0.56078 0.0
C238 C 0.34346 0.92895 0.47522 0.0
C239 C 0.31051 0.85261 0.4964 0.0
C240 C 0.16643 0.93355 0.50417 0.0
C241 C 0.19636 1.00426 0.47879 0.0
N242 N 0.32563 0.08739 0.45866 0.0
N243 N 0.20219 0.78889 0.54012 0.0
C244 C 0.29019 1.00829 0.47154 0.0
C245 C 0.22611 0.85756 0.51452 0.0
N246 N 0.42146 0.92405 0.45546 0.0
N247 N 0.08031 0.93876 0.51701 0.0
H248 H 0.24371 0.73183 0.54703 0.0
H249 H 0.14436 0.78989 0.55642 0.0
H250 H 0.04256 0.99834 0.51431 0.0
H251 H 0.04762 0.88629 0.53108 0.0
H252 H 0.44153 0.97413 0.43516 0.0
H253 H 0.46285 0.86738 0.4568 0.0
H254 H 0.39676 0.09717 0.45644 0.0
H255 H 0.28515 0.14568 0.45498 0.0
C256 C 0.02446 0.94812 0.26209 0.0
C257 C 0.06204 1.0089 0.23384 0.0
C258 C 0.09865 0.1167 0.29498 0.0
C259 C 0.05287 0.05949 0.32187 0.0
N260 N 0.95696 0.92846 0.3288 0.0
N261 N 0.11728 0.15816 0.22046 0.0
C262 C 0.01117 0.97736 0.30473 0.0
C263 C 0.0942 0.09532 0.24943 0.0
N264 N 0.00443 0.86163 0.24874 0.0
N265 N 0.14963 0.18953 0.31328 0.0
H266 H 0.11421 0.14566 0.18668 0.0
H267 H 0.13118 0.22507 0.22909 0.0
H268 H 0.15514 0.20759 0.34658 0.0
H269 H 0.19321 0.22756 0.29641 0.0
H270 H 0.98611 0.81183 0.26964 0.0
H271 H 0.01456 0.83747 0.21793 0.0
H272 H 0.91698 0.8726 0.31625 0.0
H273 H 0.94484 0.94863 0.35995 0.0
C274 C 0.94916 0.07813 0.74033 0.0
C275 C -0.00789 0.99418 0.75218 0.0
C276 C 0.01547 0.97195 0.6755 0.0
C277 C 0.96286 0.05078 0.66291 0.0
N278 N 0.86455 0.17046 0.68159 0.0
N279 N 0.05537 0.85508 0.73067 0.0
C280 C 0.92555 0.10168 0.69484 0.0
C281 C 0.02256 0.93931 0.71966 0.0
N282 N 0.93373 0.13671 0.77262 0.0
N283 N 0.06056 0.92979 0.64557 0.0
H284 H 0.06157 0.82912 0.76274 0.0
H285 H 0.06921 0.80841 0.70741 0.0
H286 H 0.05718 0.95237 0.61302 0.0
H287 H 0.10772 0.87729 0.65394 0.0
H288 H 0.91209 0.20253 0.766 0.0
H289 H 0.95116 0.12268 0.8065 0.0
H290 H 0.82696 0.20318 0.70295 0.0
H291 H 0.84462 0.18971 0.64847 0.0
C292 C 0.5198 0.44254 0.72899 0.0
C293 C 0.57511 0.52099 0.72586 0.0
C294 C 0.63616 0.5139 0.80584 0.0
C295 C 0.56926 0.44507 0.80977 0.0
N296 N 0.44289 0.34616 0.77588 0.0
N297 N 0.6797 0.63715 0.7616 0.0
C298 C 0.50991 0.40981 0.77151 0.0
C299 C 0.6323 0.55803 0.76434 0.0
N300 N 0.47931 0.3977 0.69127 0.0
N301 N 0.70443 0.53568 0.84146 0.0
H302 H 0.67844 0.67145 0.73177 0.0
H303 H 0.71406 0.6723 0.78933 0.0
H304 H 0.71015 0.50324 0.87203 0.0
H305 H 0.76046 0.57963 0.83957 0.0
H306 H 0.44611 0.33541 0.69158 0.0
H307 H 0.48693 0.41837 0.65947 0.0
H308 H 0.38992 0.326 0.74978 0.0
H309 H 0.43626 0.31737 0.8063 0.0
C310 C 0.42367 0.47672 0.24627 0.0
C311 C 0.39302 0.56591 0.25024 0.0
C312 C 0.37288 0.5849 0.16958 0.0
C313 C 0.41842 0.50152 0.16683 0.0
N314 N 0.49477 0.3704 0.20268 0.0
N315 N 0.33871 0.70656 0.21689 0.0
C316 C 0.44466 0.4473 0.20509 0.0
C317 C 0.36649 0.6203 0.21212 0.0
N318 N 0.43281 0.42031 0.28204 0.0
N319 N 0.33528 0.62937 0.13146 0.0
H320 H 0.33026 0.73306 0.2475 0.0
H321 H 0.32853 0.75312 0.19115 0.0
H322 H 0.33868 0.60459 0.09988 0.0
H323 H 0.29411 0.68661 0.13083 0.0
H324 H 0.44543 0.35197 0.28006 0.0
H325 H 0.41893 0.44002 0.31297 0.0
H326 H 0.52582 0.33402 0.23047 0.0
H327 H 0.51196 0.34614 0.17317 0.0
loop_
_geom_bond_atom_site_label_1
_geom_bond_atom_site_label_2
_geom_bond_distance
_geom_bond_site_symmetry_2
_ccdc_geom_bond_type
C0 O16 1.261 . S
C0 O18 1.243 1_554 S
N1 C2 1.333 1_445 S
N1 C6 1.307 . S
N1 Zn7 2.020 . S
C2 N1 1.333 1_665 S
C2 C3 1.379 . S
C2 H20 0.952 . S
C3 C2 1.379 . S
C3 C4 1.390 1_665 S
C3 H30 0.949 . S
C4 C3 1.390 1_445 S
C4 C5 1.357 . S
C5 C4 1.357 . S
C5 C6 1.370 . S
C5 H31 0.950 . S
C6 N1 1.307 . S
C6 C5 1.370 . S
C6 H24 0.948 . S
Zn7 N1 2.020 . S
Zn7 O16 2.039 1_445 S
Zn7 O22 2.034 1_455 S
Zn7 O26 2.025 . S
Zn7 O28 2.024 1_545 S
C8 O27 1.246 1_554 S
C8 O28 1.249 . S
N9 C10 1.307 1_545 S
N9 C11 1.333 1_655 S
N9 Zn15 2.020 1_655 S
C10 N9 1.307 1_565 S
C10 C14 1.370 . S
C10 H21 0.948 . S
C11 N9 1.333 1_455 S
C11 C12 1.379 . S
C11 H19 0.952 . S
C12 C11 1.379 . S
C12 C13 1.390 1_455 S
C12 H32 0.949 . S
C13 C12 1.390 1_655 S
C13 C14 1.357 1_545 S
C14 C10 1.370 . S
C14 C13 1.357 1_565 S
C14 H33 0.950 . S
Zn15 N9 2.020 1_455 S
Zn15 O18 2.025 1_445 S
Zn15 O23 2.024 1_455 S
Zn15 O25 2.039 . S
Zn15 O27 2.034 1_545 S
O16 C0 1.261 . S
O16 Zn7 2.039 1_665 S
C17 O22 1.224 1_556 S
C17 O23 1.273 . S
O18 C0 1.243 1_556 S
O18 Zn15 2.025 1_665 S
H19 C11 0.952 . S
H20 C2 0.952 . S
H21 C10 0.948 . S
O22 Zn7 2.034 1_655 S
O22 C17 1.224 1_554 S
O23 Zn15 2.024 1_655 S
O23 C17 1.273 . S
H24 C6 0.948 . S
O25 Zn15 2.039 . S
O25 C29 1.251 1_556 S
O26 Zn7 2.025 . S
O26 C29 1.254 . S
O27 C8 1.246 1_556 S
O27 Zn15 2.034 1_565 S
O28 Zn7 2.024 1_565 S
O28 C8 1.249 . S
C29 O25 1.251 1_554 S
C29 O26 1.254 . S
H30 C3 0.949 . S
H31 C5 0.950 . S
H32 C12 0.949 . S
H33 C14 0.950 . S
C34 O50 1.251 . S
C34 O52 1.254 . S
N35 C36 1.333 . S
N35 C40 1.307 . S
N35 Zn41 2.020 . S
C36 N35 1.333 . S
C36 C37 1.379 . S
C36 H54 0.952 . S
C37 C36 1.379 . S
C37 C38 1.390 . S
C37 H64 0.949 . S
C38 C37 1.390 . S
C38 C39 1.357 . S
C39 C38 1.357 . S
C39 C40 1.370 . S
C39 H65 0.950 . S
C40 N35 1.307 . S
C40 C39 1.370 . S
C40 H58 0.948 . S
Zn41 N35 2.020 . S
Zn41 O50 2.039 . S
Zn41 O56 2.034 . S
Zn41 O60 2.025 . S
Zn41 O62 2.024 . S
C42 O61 1.246 . S
C42 O62 1.249 . S
N43 C44 1.307 . S
N43 C45 1.333 . S
N43 Zn49 2.020 . S
C44 N43 1.307 . S
C44 C48 1.370 . S
C44 H55 0.948 . S
C45 N43 1.333 . S
C45 C46 1.379 . S
C45 H53 0.952 . S
C46 C45 1.379 . S
C46 C47 1.390 . S
C46 H66 0.949 . S
C47 C46 1.390 . S
C47 C48 1.357 . S
C48 C44 1.370 . S
C48 C47 1.357 . S
C48 H67 0.950 . S
Zn49 N43 2.020 . S
Zn49 O52 2.025 . S
Zn49 O57 2.024 . S
Zn49 O59 2.039 . S
Zn49 O61 2.034 . S
O50 C34 1.251 . S
O50 Zn41 2.039 . S
C51 O56 1.246 . S
C51 O57 1.249 . S
O52 C34 1.254 . S
O52 Zn49 2.025 . S
H53 C45 0.952 . S
H54 C36 0.952 . S
H55 C44 0.948 . S
O56 Zn41 2.034 . S
O56 C51 1.246 . S
O57 Zn49 2.024 . S
O57 C51 1.249 . S
H58 C40 0.948 . S
O59 Zn49 2.039 . S
O59 C63 1.251 . S
O60 Zn41 2.025 . S
O60 C63 1.254 . S
O61 C42 1.246 . S
O61 Zn49 2.034 . S
O62 Zn41 2.024 . S
O62 C42 1.249 . S
C63 O59 1.251 . S
C63 O60 1.254 . S
H64 C37 0.949 . S
H65 C39 0.950 . S
H66 C46 0.949 . S
H67 C48 0.950 . S
H68 C73 0.929 . S
H69 C78 0.931 . S
H70 C76 0.930 1_655 S
N71 N72 1.234 . S
N71 C75 1.453 1_655 S
N72 N71 1.234 . S
C73 H68 0.929 . S
C73 C74 1.373 . S
C73 C75 1.368 1_565 S
C74 C73 1.373 . S
C74 C78 1.397 . S
C75 N71 1.453 1_455 S
C75 C73 1.368 1_545 S
C75 C76 1.373 . S
C76 H70 0.930 1_455 S
C76 C75 1.373 . S
C76 C77 1.371 1_545 S
C77 C76 1.371 1_565 S
C77 C78 1.383 . S
C78 H69 0.931 . S
C78 C74 1.397 . S
C78 C77 1.383 . S
H79 C84 0.929 . S
H80 C89 0.931 . S
H81 C87 0.930 . S
N82 N83 1.234 . S
N82 C86 1.453 . S
N83 N82 1.234 . S
C84 H79 0.929 . S
C84 C85 1.373 . S
C84 C86 1.368 1_665 S
C85 C84 1.373 . S
C85 C89 1.397 . S
C86 N82 1.453 . S
C86 C84 1.368 1_445 S
C86 C87 1.373 . S
C87 H81 0.930 . S
C87 C86 1.373 . S
C87 C88 1.371 1_455 S
C88 C87 1.371 1_655 S
C88 C89 1.383 1_545 S
C89 H80 0.931 . S
C89 C85 1.397 . S
C89 C88 1.383 1_565 S
H90 C95 0.929 . S
H91 C100 0.931 . S
H92 C98 0.930 . S
N93 N94 1.234 1_554 S
N93 C97 1.453 1_554 S
N94 N93 1.234 1_556 S
C95 H90 0.929 . S
C95 C96 1.373 1_554 S
C95 C97 1.368 1_554 S
C96 C95 1.373 1_556 S
C96 C100 1.397 . S
C97 N93 1.453 1_556 S
C97 C95 1.368 1_556 S
C97 C98 1.373 . S
C98 H92 0.930 . S
C98 C97 1.373 . S
C98 C99 1.371 . S
C99 C98 1.371 . S
C99 C100 1.383 . S
C100 H91 0.931 . S
C100 C96 1.397 . S
C100 C99 1.383 . S
H101 C106 0.929 1_556 S
H102 C111 0.931 . S
H103 C109 0.930 . S
N104 N105 1.234 1_556 S
N104 C108 1.453 1_556 S
N105 N104 1.234 1_554 S
C106 H101 0.929 1_554 S
C106 C107 1.373 . S
C106 C108 1.368 . S
C107 C106 1.373 . S
C107 C111 1.397 . S
C108 N104 1.453 1_554 S
C108 C106 1.368 . S
C108 C109 1.373 . S
C109 H103 0.930 . S
C109 C108 1.373 . S
C109 C110 1.371 . S
C110 C109 1.371 . S
C110 C111 1.383 . S
C111 H102 0.931 . S
C111 C107 1.397 . S
C111 C110 1.383 . S
C112 C113 1.363 1_556 S
C112 C118 1.379 . S
C112 N120 1.356 . S
C113 C112 1.363 1_554 S
C113 C119 1.363 . S
C114 C115 1.363 . S
C114 C119 1.379 . S
C114 N121 1.356 . S
C115 C114 1.363 . S
C115 C118 1.363 1_554 S
N116 C118 1.356 . S
N116 H128 0.984 . S
N116 H129 0.985 . S
N117 C119 1.356 . S
N117 H122 0.984 . S
N117 H123 0.985 . S
C118 C112 1.379 . S
C118 C115 1.363 1_556 S
C118 N116 1.356 . S
C119 C113 1.363 . S
C119 C114 1.379 . S
C119 N117 1.356 . S
N120 C112 1.356 . S
N120 H126 0.984 . S
N120 H127 0.984 . S
N121 C114 1.356 . S
N121 H124 0.984 . S
N121 H125 0.985 . S
H122 N117 0.984 . S
H123 N117 0.985 . S
H124 N121 0.984 . S
H125 N121 0.985 . S
H126 N120 0.984 . S
H127 N120 0.984 . S
H128 N116 0.984 . S
H129 N116 0.985 . S
C130 C131 1.363 . S
C130 C136 1.379 . S
C130 N138 1.356 . S
C131 C130 1.363 . S
C131 C137 1.363 1_554 S
C132 C133 1.363 1_556 S
C132 C137 1.379 . S
C132 N139 1.356 . S
C133 C132 1.363 1_554 S
C133 C136 1.363 . S
N134 C136 1.356 . S
N134 H146 0.984 . S
N134 H147 0.985 . S
N135 C137 1.356 . S
N135 H140 0.984 . S
N135 H141 0.985 . S
C136 C130 1.379 . S
C136 C133 1.363 . S
C136 N134 1.356 . S
C137 C131 1.363 1_556 S
C137 C132 1.379 . S
C137 N135 1.356 . S
N138 C130 1.356 . S
N138 H144 0.984 . S
N138 H145 0.984 . S
N139 C132 1.356 . S
N139 H142 0.984 . S
N139 H143 0.985 . S
H140 N135 0.984 . S
H141 N135 0.985 . S
H142 N139 0.984 . S
H143 N139 0.985 . S
H144 N138 0.984 . S
H145 N138 0.984 . S
H146 N134 0.984 . S
H147 N134 0.985 . S
C148 C149 1.364 1_556 S
C148 C154 1.379 . S
C148 N156 1.356 . S
C149 C148 1.364 1_554 S
C149 C155 1.362 . S
C150 C151 1.363 . S
C150 C155 1.379 . S
C150 N157 1.356 . S
C151 C150 1.363 . S
C151 C154 1.363 1_554 S
N152 C154 1.356 . S
N152 H164 0.984 . S
N152 H165 0.985 . S
N153 C155 1.356 . S
N153 H158 0.984 . S
N153 H159 0.985 . S
C154 C148 1.379 . S
C154 C151 1.363 1_556 S
C154 N152 1.356 . S
C155 C149 1.362 . S
C155 C150 1.379 . S
C155 N153 1.356 . S
N156 C148 1.356 . S
N156 H162 0.984 . S
N156 H163 0.984 . S
N157 C150 1.356 . S
N157 H160 0.984 . S
N157 H161 0.985 . S
H158 N153 0.984 . S
H159 N153 0.985 . S
H160 N157 0.984 . S
H161 N157 0.985 . S
H162 N156 0.984 . S
H163 N156 0.984 . S
H164 N152 0.984 . S
H165 N152 0.985 . S
C166 C167 1.363 . S
C166 C172 1.379 . S
C166 N174 1.356 . S
C167 C166 1.363 . S
C167 C173 1.363 1_556 S
C168 C169 1.363 1_554 S
C168 C173 1.379 . S
C168 N175 1.356 . S
C169 C168 1.363 1_556 S
C169 C172 1.363 . S
N170 C172 1.356 . S
N170 H182 0.984 . S
N170 H183 0.985 . S
N171 C173 1.356 . S
N171 H176 0.984 . S
N171 H177 0.985 . S
C172 C166 1.379 . S
C172 C169 1.363 . S
C172 N170 1.356 . S
C173 C167 1.363 1_554 S
C173 C168 1.379 . S
C173 N171 1.356 . S
N174 C166 1.356 . S
N174 H180 0.984 . S
N174 H181 0.984 . S
N175 C168 1.356 . S
N175 H178 0.984 . S
N175 H179 0.985 . S
H176 N171 0.984 . S
H177 N171 0.985 . S
H178 N175 0.984 . S
H179 N175 0.985 . S
H180 N174 0.984 . S
H181 N174 0.984 . S
H182 N170 0.984 . S
H183 N170 0.985 . S
C184 C185 1.363 . S
C184 C190 1.379 . S
C184 N192 1.356 . S
C185 C184 1.363 . S
C185 C191 1.363 . S
C186 C187 1.363 . S
C186 C191 1.379 . S
C186 N193 1.356 . S
C187 C186 1.363 . S
C187 C190 1.363 . S
N188 C190 1.356 . S
N188 H200 0.984 . S
N188 H201 0.985 . S
N189 C191 1.356 . S
N189 H194 0.984 . S
N189 H195 0.985 . S
C190 C184 1.379 . S
C190 C187 1.363 . S
C190 N188 1.356 . S
C191 C185 1.363 . S
C191 C186 1.379 . S
C191 N189 1.356 . S
N192 C184 1.356 . S
N192 H198 0.984 . S
N192 H199 0.984 . S
N193 C186 1.356 . S
N193 H196 0.984 . S
N193 H197 0.985 . S
H194 N189 0.984 . S
H195 N189 0.985 . S
H196 N193 0.984 . S
H197 N193 0.985 . S
H198 N192 0.984 . S
H199 N192 0.984 . S
H200 N188 0.984 . S
H201 N188 0.985 . S
C202 C203 1.363 . S
C202 C208 1.379 . S
C202 N210 1.356 . S
C203 C202 1.363 . S
C203 C209 1.363 . S
C204 C205 1.363 . S
C204 C209 1.379 . S
C204 N211 1.356 . S
C205 C204 1.363 . S
C205 C208 1.363 . S
N206 C208 1.356 . S
N206 H218 0.984 . S
N206 H219 0.985 . S
N207 C209 1.356 . S
N207 H212 0.984 . S
N207 H213 0.985 . S
C208 C202 1.379 . S
C208 C205 1.363 . S
C208 N206 1.356 . S
C209 C203 1.363 . S
C209 C204 1.379 . S
C209 N207 1.356 . S
N210 C202 1.356 . S
N210 H216 0.984 . S
N210 H217 0.984 . S
N211 C204 1.356 . S
N211 H214 0.984 . S
N211 H215 0.985 . S
H212 N207 0.984 . S
H213 N207 0.985 . S
H214 N211 0.984 . S
H215 N211 0.985 . S
H216 N210 0.984 . S
H217 N210 0.984 . S
H218 N206 0.984 . S
H219 N206 0.985 . S
C220 C221 1.363 . S
C220 C226 1.379 . S
C220 N228 1.356 . S
C221 C220 1.363 . S
C221 C227 1.363 . S
C222 C223 1.363 . S
C222 C227 1.379 . S
C222 N229 1.356 . S
C223 C222 1.363 . S
C223 C226 1.363 . S
N224 C226 1.356 . S
N224 H236 0.984 . S
N224 H237 0.985 . S
N225 C227 1.356 . S
N225 H230 0.984 . S
N225 H231 0.985 . S
C226 C220 1.379 . S
C226 C223 1.363 . S
C226 N224 1.356 . S
C227 C221 1.363 . S
C227 C222 1.379 . S
C227 N225 1.356 . S
N228 C220 1.356 . S
N228 H234 0.984 . S
N228 H235 0.984 . S
N229 C222 1.356 . S
N229 H232 0.984 . S
N229 H233 0.985 . S
H230 N225 0.984 . S
H231 N225 0.985 . S
H232 N229 0.984 . S
H233 N229 0.985 . S
H234 N228 0.984 . S
H235 N228 0.984 . S
H236 N224 0.984 . S
H237 N224 0.985 . S
C238 C239 1.363 . S
C238 C244 1.379 . S
C238 N246 1.356 . S
C239 C238 1.363 . S
C239 C245 1.363 . S
C240 C241 1.363 . S
C240 C245 1.379 . S
C240 N247 1.356 . S
C241 C240 1.363 . S
C241 C244 1.363 . S
N242 C244 1.356 . S
N242 H254 0.984 . S
N242 H255 0.985 . S
N243 C245 1.356 . S
N243 H248 0.984 . S
N243 H249 0.985 . S
C244 C238 1.379 . S
C244 C241 1.363 . S
C244 N242 1.356 . S
C245 C239 1.363 . S
C245 C240 1.379 . S
C245 N243 1.356 . S
N246 C238 1.356 . S
N246 H252 0.984 . S
N246 H253 0.984 . S
N247 C240 1.356 . S
N247 H250 0.984 . S
N247 H251 0.985 . S
H248 N243 0.984 . S
H249 N243 0.985 . S
H250 N247 0.984 . S
H251 N247 0.985 . S
H252 N246 0.984 . S
H253 N246 0.984 . S
H254 N242 0.984 . S
H255 N242 0.985 . S
C256 C257 1.363 1_565 S
C256 C262 1.379 . S
C256 N264 1.356 1_455 S
C257 C256 1.363 1_545 S
C257 C263 1.363 . S
C258 C259 1.363 . S
C258 C263 1.379 . S
C258 N265 1.356 . S
C259 C258 1.363 . S
C259 C262 1.363 1_545 S
N260 C262 1.356 1_655 S
N260 H272 0.984 . S
N260 H273 0.985 . S
N261 C263 1.356 . S
N261 H266 0.984 . S
N261 H267 0.985 . S
C262 C256 1.379 . S
C262 C259 1.363 1_565 S
C262 N260 1.356 1_455 S
C263 C257 1.363 . S
C263 C258 1.379 . S
C263 N261 1.356 . S
N264 C256 1.356 1_655 S
N264 H270 0.984 . S
N264 H271 0.984 . S
N265 C258 1.356 . S
N265 H268 0.984 . S
N265 H269 0.985 . S
H266 N261 0.984 . S
H267 N261 0.985 . S
H268 N265 0.984 . S
H269 N265 0.985 . S
H270 N264 0.984 . S
H271 N264 0.984 . S
H272 N260 0.984 . S
H273 N260 0.985 . S
C274 C275 1.363 . S
C274 C280 1.379 . S
C274 N282 1.356 . S
C275 C274 1.363 . S
C275 C281 1.363 1_645 S
C276 C277 1.363 1_465 S
C276 C281 1.379 . S
C276 N283 1.356 . S
C277 C276 1.363 1_645 S
C277 C280 1.363 . S
N278 C280 1.356 . S
N278 H290 0.984 . S
N278 H291 0.985 . S
N279 C281 1.356 . S
N279 H284 0.984 . S
N279 H285 0.985 . S
C280 C274 1.379 . S
C280 C277 1.363 . S
C280 N278 1.356 . S
C281 C275 1.363 1_465 S
C281 C276 1.379 . S
C281 N279 1.356 . S
N282 C274 1.356 . S
N282 H288 0.984 . S
N282 H289 0.984 . S
N283 C276 1.356 . S
N283 H286 0.984 . S
N283 H287 0.985 . S
H284 N279 0.984 . S
H285 N279 0.985 . S
H286 N283 0.984 . S
H287 N283 0.985 . S
H288 N282 0.984 . S
H289 N282 0.984 . S
H290 N278 0.984 . S
H291 N278 0.985 . S
C292 C293 1.363 . S
C292 C298 1.379 . S
C292 N300 1.356 . S
C293 C292 1.363 . S
C293 C299 1.363 . S
C294 C295 1.363 . S
C294 C299 1.379 . S
C294 N301 1.356 . S
C295 C294 1.363 . S
C295 C298 1.363 . S
N296 C298 1.356 . S
N296 H308 0.984 . S
N296 H309 0.985 . S
N297 C299 1.356 . S
N297 H302 0.984 . S
N297 H303 0.985 . S
C298 C292 1.379 . S
C298 C295 1.363 . S
C298 N296 1.356 . S
C299 C293 1.363 . S
C299 C294 1.379 . S
C299 N297 1.356 . S
N300 C292 1.356 . S
N300 H306 0.984 . S
N300 H307 0.984 . S
N301 C294 1.356 . S
N301 H304 0.984 . S
N301 H305 0.985 . S
H302 N297 0.984 . S
H303 N297 0.985 . S
H304 N301 0.984 . S
H305 N301 0.985 . S
H306 N300 0.984 . S
H307 N300 0.984 . S
H308 N296 0.984 . S
H309 N296 0.985 . S
C310 C311 1.363 . S
C310 C316 1.379 . S
C310 N318 1.356 . S
C311 C310 1.363 . S
C311 C317 1.363 . S
C312 C313 1.363 . S
C312 C317 1.379 . S
C312 N319 1.356 . S
C313 C312 1.363 . S
C313 C316 1.363 . S
N314 C316 1.356 . S
N314 H326 0.984 . S
N314 H327 0.985 . S
N315 C317 1.356 . S
N315 H320 0.984 . S
N315 H321 0.985 . S
C316 C310 1.379 . S
C316 C313 1.363 . S
C316 N314 1.356 . S
C317 C311 1.363 . S
C317 C312 1.379 . S
C317 N315 1.356 . S
N318 C310 1.356 . S
N318 H324 0.984 . S
N318 H325 0.984 . S
N319 C312 1.356 . S
N319 H322 0.984 . S
N319 H323 0.985 . S
H320 N315 0.984 . S
H321 N315 0.985 . S
H322 N319 0.984 . S
H323 N319 0.985 . S
H324 N318 0.984 . S
H325 N318 0.984 . S
H326 N314 0.984 . S
H327 N314 0.985 . S
C115 C107 1.472 . S
C113 C29 1.510 . S
C131 C8 1.459 . S
C133 N94 1.398 1_554 S
C149 C0 1.465 . S
C151 N105 1.403 . S
C167 C17 1.508 . S
C169 C96 1.475 . S
C185 C63 1.510 . S
C187 C85 1.473 . S
C203 C42 1.459 . S
C205 N72 1.398 . S
C223 N83 1.403 . S
C221 C34 1.462 . S
C241 C74 1.475 . S
C239 C51 1.510 . S
C257 C4 1.519 . S
C259 C77 1.513 1_545 S
C275 C13 1.511 . S
C277 C88 1.506 . S
C295 C99 1.513 . S
C293 C38 1.519 . S
C311 C47 1.511 . S
C313 C110 1.506 . S
