# Generated by pormake.
# Topology apo, (3,6)-cn, num edge types: 1
# Building blocks:
#     Node 0, Type 0, BuildingBlock: CUQRIR_clean_linker_1, # of connection points: 3
#     Node 1, Type 0, BuildingBlock: CUQRIR_clean_linker_1, # of connection points: 3
#     Node 2, Type 0, BuildingBlock: CUQRIR_clean_linker_1, # of connection points: 3
#     Node 3, Type 0, BuildingBlock: CUQRIR_clean_linker_1, # of connection points: 3
#     Node 4, Type 0, BuildingBlock: CUQRIR_clean_linker_1, # of connection points: 3
#     Node 5, Type 0, BuildingBlock: CUQRIR_clean_linker_1, # of connection points: 3
#     Node 6, Type 0, BuildingBlock: CUQRIR_clean_linker_1, # of connection points: 3
#     Node 7, Type 0, BuildingBlock: CUQRIR_clean_linker_1, # of connection points: 3
#     Node 8, Type 1, BuildingBlock: KUMBOL_clean_sbu_1, # of connection points: 6
#     Node 9, Type 1, BuildingBlock: KUMBOL_clean_sbu_1, # of connection points: 6
#     Node 10, Type 1, BuildingBlock: KUMBOL_clean_sbu_1, # of connection points: 6
#     Node 11, Type 1, BuildingBlock: KUMBOL_clean_sbu_1, # of connection points: 6
#     Edge 12, Type (0, 1), BuildingBlock: AJUNOK_clean_linker_0, # of connection points: 2
#     Edge 13, Type (0, 1), BuildingBlock: AJUNOK_clean_linker_0, # of connection points: 2
#     Edge 14, Type (0, 1), BuildingBlock: AJUNOK_clean_linker_0, # of connection points: 2
#     Edge 15, Type (0, 1), BuildingBlock: AJUNOK_clean_linker_0, # of connection points: 2
#     Edge 16, Type (0, 1), BuildingBlock: AJUNOK_clean_linker_0, # of connection points: 2
#     Edge 17, Type (0, 1), BuildingBlock: AJUNOK_clean_linker_0, # of connection points: 2
#     Edge 18, Type (0, 1), BuildingBlock: AJUNOK_clean_linker_0, # of connection points: 2
#     Edge 19, Type (0, 1), BuildingBlock: AJUNOK_clean_linker_0, # of connection points: 2
#     Edge 20, Type (0, 1), BuildingBlock: AJUNOK_clean_linker_0, # of connection points: 2
#     Edge 21, Type (0, 1), BuildingBlock: AJUNOK_clean_linker_0, # of connection points: 2
#     Edge 22, Type (0, 1), BuildingBlock: AJUNOK_clean_linker_0, # of connection points: 2
#     Edge 23, Type (0, 1), BuildingBlock: AJUNOK_clean_linker_0, # of connection points: 2
#     Edge 24, Type (0, 1), BuildingBlock: AJUNOK_clean_linker_0, # of connection points: 2
#     Edge 25, Type (0, 1), BuildingBlock: AJUNOK_clean_linker_0, # of connection points: 2
#     Edge 26, Type (0, 1), BuildingBlock: AJUNOK_clean_linker_0, # of connection points: 2
#     Edge 27, Type (0, 1), BuildingBlock: AJUNOK_clean_linker_0, # of connection points: 2
#     Edge 28, Type (0, 1), BuildingBlock: AJUNOK_clean_linker_0, # of connection points: 2
#     Edge 29, Type (0, 1), BuildingBlock: AJUNOK_clean_linker_0, # of connection points: 2
#     Edge 30, Type (0, 1), BuildingBlock: AJUNOK_clean_linker_0, # of connection points: 2
#     Edge 31, Type (0, 1), BuildingBlock: AJUNOK_clean_linker_0, # of connection points: 2
#     Edge 32, Type (0, 1), BuildingBlock: AJUNOK_clean_linker_0, # of connection points: 2
#     Edge 33, Type (0, 1), BuildingBlock: AJUNOK_clean_linker_0, # of connection points: 2
#     Edge 34, Type (0, 1), BuildingBlock: AJUNOK_clean_linker_0, # of connection points: 2
#     Edge 35, Type (0, 1), BuildingBlock: AJUNOK_clean_linker_0, # of connection points: 2
# Relax obj value: 0.043
# Max RMSD: 0.250
# Mean RMSD: 0.192
data_MOF--net-apo--node1-KUMBOL_clean_sbu_1--node2-CUQRIR_clean_linker_1--edge1-AJUNOK_clean_linker_0
_symmetry_space_group_name_H-M    P1
_symmetry_Int_Tables_number       1
_symmetry_cell_setting            triclinic
loop_
_symmetry_equiv_pos_as_xyz
'x, y, z'
_cell_length_a     19.001512
_cell_length_b     27.862463
_cell_length_c     35.210604
_cell_angle_alpha  90.223736
_cell_angle_beta   89.958931
_cell_angle_gamma 90.584703
loop_
_atom_site_label
_atom_site_type_symbol
_atom_site_fract_x
_atom_site_fract_y
_atom_site_fract_z
_atom_type_partial_charge
C0 C 0.26806 0.31452 0.42693 0.0
N1 N 0.30547 0.35626 0.42784 0.0
N2 N 0.24488 0.30509 0.3912 0.0
C3 C 0.24951 0.28498 0.4612 0.0
C4 C 0.26863 0.3429 0.37065 0.0
N5 N 0.30504 0.37386 0.39289 0.0
C6 C 0.25882 0.34927 0.32863 0.0
H7 H 0.19941 0.26494 0.45671 0.0
H8 H 0.24494 0.30803 0.48684 0.0
H9 H 0.29182 0.25863 0.46624 0.0
H10 H 0.23049 0.31861 0.3155 0.0
H11 H 0.31093 0.3538 0.31477 0.0
H12 H 0.22874 0.38253 0.32356 0.0
C13 C 0.27479 0.1711 0.92999 0.0
N14 N 0.23467 0.1309 0.9337 0.0
N15 N 0.27158 0.18811 0.89401 0.0
C16 C 0.31894 0.19253 0.96135 0.0
C17 C 0.22834 0.15654 0.87595 0.0
N18 N 0.20585 0.12182 0.90001 0.0
C19 C 0.20747 0.16007 0.83482 0.0
H20 H 0.2846 0.21375 0.98044 0.0
H21 H 0.36127 0.21615 0.95003 0.0
H22 H 0.34312 0.16385 0.97857 0.0
H23 H 0.24777 0.14207 0.8172 0.0
H24 H 0.20478 0.1982 0.82601 0.0
H25 H 0.156 0.14235 0.82925 0.0
C26 C 0.754 0.19877 0.65229 0.0
N27 N 0.80087 0.16255 0.64906 0.0
N28 N 0.72936 0.20186 0.68828 0.0
C29 C 0.73369 0.23186 0.62053 0.0
C30 C 0.76319 0.16678 0.70704 0.0
N31 N 0.80751 0.14332 0.6834 0.0
C32 C 0.75427 0.1564 0.74884 0.0
H33 H 0.78066 0.24158 0.60333 0.0
H34 H 0.70851 0.26497 0.63121 0.0
H35 H 0.69559 0.21303 0.60168 0.0
H36 H 0.70027 0.164 0.75872 0.0
H37 H 0.79052 0.17999 0.76527 0.0
H38 H 0.76623 0.11843 0.75535 0.0
C39 C 0.7643 0.30455 0.14886 0.0
N40 N 0.72524 0.34438 0.14359 0.0
N41 N 0.76857 0.29376 0.18627 0.0
C42 C 0.8042 0.27943 0.11775 0.0
C43 C 0.73148 0.32887 0.20351 0.0
N44 N 0.70566 0.35994 0.17769 0.0
C45 C 0.71824 0.33194 0.24561 0.0
H46 H 0.76955 0.25182 0.1045 0.0
H47 H 0.85178 0.26166 0.12897 0.0
H48 H 0.8202 0.3052 0.09531 0.0
H49 H 0.75946 0.35492 0.25891 0.0
H50 H 0.71994 0.29585 0.25877 0.0
H51 H 0.66632 0.34834 0.25142 0.0
C52 C 0.76446 0.66789 0.63828 0.0
N53 N 0.71934 0.62986 0.63691 0.0
N54 N 0.77282 0.68351 0.67448 0.0
C55 C 0.79781 0.69096 0.60415 0.0
C56 C 0.73103 0.65393 0.69505 0.0
N57 N 0.69807 0.62155 0.67232 0.0
C58 C 0.72278 0.65664 0.7374 0.0
H59 H 0.83949 0.6671 0.59304 0.0
H60 H 0.82164 0.72637 0.61129 0.0
H61 H 0.75803 0.69535 0.58139 0.0
H62 H 0.67866 0.68101 0.74413 0.0
H63 H 0.77135 0.67102 0.75093 0.0
H64 H 0.71011 0.62083 0.74926 0.0
C65 C 0.75672 0.8182 0.13948 0.0
N66 N 0.79244 0.86057 0.13741 0.0
N67 N 0.7328 0.81064 0.17521 0.0
C68 C 0.74094 0.78569 0.10632 0.0
C69 C 0.75459 0.84987 0.19477 0.0
N70 N 0.79041 0.88028 0.17187 0.0
C71 C 0.74416 0.85761 0.23672 0.0
H72 H 0.73411 0.80677 0.07993 0.0
H73 H 0.69276 0.76385 0.11154 0.0
H74 H 0.78569 0.76094 0.10219 0.0
H75 H 0.7947 0.86829 0.25026 0.0
H76 H 0.72313 0.82503 0.25063 0.0
H77 H 0.70648 0.88723 0.24125 0.0
C78 C 0.25511 0.80091 0.42464 0.0
N79 N 0.21379 0.84028 0.42724 0.0
N80 N 0.25204 0.78168 0.38934 0.0
C81 C 0.30376 0.784 0.45542 0.0
C82 C 0.20748 0.81057 0.37059 0.0
N83 N 0.18482 0.84668 0.39318 0.0
C84 C 0.18496 0.80269 0.33006 0.0
H85 H 0.35238 0.76859 0.44314 0.0
H86 H 0.27673 0.75549 0.472 0.0
H87 H 0.31819 0.81384 0.47498 0.0
H88 H 0.18078 0.76368 0.32406 0.0
H89 H 0.22488 0.81835 0.31061 0.0
H90 H 0.13348 0.81972 0.32443 0.0
C91 C 0.19337 0.66873 0.92525 0.0
N92 N 0.22774 0.62639 0.92792 0.0
N93 N 0.16228 0.67281 0.89082 0.0
C94 C 0.19388 0.70712 0.9555 0.0
C95 C 0.17852 0.63143 0.87285 0.0
N96 N 0.2181 0.60303 0.89518 0.0
C97 C 0.15986 0.61994 0.83224 0.0
H98 H 0.17996 0.69119 0.98339 0.0
H99 H 0.15749 0.73674 0.9492 0.0
H100 H 0.2476 0.72275 0.95777 0.0
H101 H 0.20401 0.63117 0.81353 0.0
H102 H 0.11168 0.63912 0.82343 0.0
H103 H 0.15159 0.58071 0.82851 0.0
C104 C 0.76624 0.10225 0.32002 0.0
C105 C 0.71785 0.0213 0.318 0.0
C106 C 0.77585 0.05297 0.32149 0.0
C107 C 0.65023 0.03995 0.31243 0.0
C108 C 0.69844 0.12114 0.31465 0.0
C109 C 0.6406 0.08972 0.31059 0.0
N110 N 0.82296 0.13173 0.32459 0.0
C111 C 0.81563 0.18037 0.32522 0.0
C112 C 0.69078 0.17108 0.31391 0.0
C113 C 0.74961 0.20081 0.31941 0.0
Gd114 Gd 0.08559 0.09069 0.24983 0.0
Gd115 Gd 0.9316 0.09422 0.33193 0.0
N116 N 0.84208 0.036 0.3261 0.0
C117 C 0.72967 0.97182 0.3199 0.0
C118 C 0.85367 0.98788 0.3294 0.0
C119 C 0.79784 0.95508 0.32579 0.0
H120 H 0.90631 0.9748 0.3335 0.0
H121 H 0.80743 0.91691 0.32744 0.0
H122 H 0.02503 0.1887 0.20252 0.0
H123 H 0.86084 0.2034 0.33024 0.0
H124 H 0.05425 0.27418 0.19691 0.0
H125 H 0.68658 0.9463 0.31698 0.0
H126 H 0.60506 0.01619 0.30943 0.0
H127 H 0.22919 0.03822 0.28274 0.0
H128 H 0.63962 0.18701 0.30966 0.0
H129 H 0.74406 0.23943 0.31943 0.0
H130 H 0.28071 0.28892 0.25522 0.0
H131 H 0.58811 0.10355 0.30635 0.0
H132 H 0.38857 0.14558 0.30046 0.0
H133 H 0.34937 0.06073 0.30347 0.0
N134 N 0.20043 0.10945 0.26936 0.0
C135 C 0.22123 0.15604 0.26673 0.0
C136 C 0.24563 0.07528 0.2819 0.0
C137 C 0.33571 0.13585 0.29159 0.0
C138 C 0.31378 0.08793 0.29336 0.0
C139 C 0.28944 0.17058 0.278 0.0
H140 H 0.36179 0.23084 0.28334 0.0
N141 N 0.11034 0.17316 0.23971 0.0
C142 C 0.17456 0.18896 0.25188 0.0
C143 C 0.15044 0.26867 0.22874 0.0
C144 C 0.19599 0.23723 0.24705 0.0
C145 C 0.06993 0.20249 0.21784 0.0
C146 C 0.08781 0.25092 0.2133 0.0
O147 O 0.90443 0.05367 0.27758 0.0
O148 O 0.00947 0.02839 0.25114 0.0
O149 O 0.0848 0.09442 0.18795 0.0
O150 O 0.15425 0.04546 0.21592 0.0
O151 O 0.00971 0.03467 0.33807 0.0
O152 O 0.09407 0.02751 0.28985 0.0
O153 O 0.11134 0.11417 0.31031 0.0
O154 O 0.01153 0.15413 0.32708 0.0
O155 O 0.97499 0.07611 0.387 0.0
O156 O 0.87879 0.11675 0.38376 0.0
O157 O 0.97813 0.12223 0.23743 0.0
O158 O 0.9545 0.15721 0.29458 0.0
C159 C 0.94047 0.02779 0.253 0.0
C160 C 0.06444 0.01393 0.32229 0.0
C161 C 0.19177 0.07712 0.15654 0.0
C162 C 0.23255 0.08713 0.09085 0.0
C163 C 0.3122 0.10217 0.14387 0.0
C164 C 0.25883 0.09081 0.1696 0.0
C165 C 0.29937 0.10026 0.10487 0.0
C166 C 0.1787 0.07555 0.11704 0.0
C167 C 0.13541 0.0639 0.18368 0.0
C168 C 0.26333 0.25208 0.25896 0.0
C169 C 0.30973 0.21893 0.27469 0.0
H170 H 0.16485 0.30602 0.22458 0.0
C171 C 0.07998 0.14868 0.32911 0.0
C172 C 0.94318 0.15328 0.2581 0.0
C173 C 0.95023 0.12912 0.43779 0.0
C174 C 0.94368 0.15083 0.50521 0.0
C175 C 0.01896 0.19631 0.46192 0.0
C176 C -0.00183 0.16683 0.43176 0.0
C177 C 0.99151 0.18879 0.49826 0.0
C178 C 0.92352 0.12098 0.47451 0.0
C179 C 0.92634 0.09866 0.40596 0.0
H180 H 0.36374 0.1127 0.1542 0.0
H181 H 0.27023 0.09259 0.19967 0.0
H182 H 0.34156 0.11003 0.08559 0.0
H183 H 0.12703 0.06498 0.10677 0.0
H184 H 0.05545 0.22573 0.45695 0.0
H185 H 0.01875 0.1738 0.4037 0.0
H186 H 0.00617 0.21373 0.5206 0.0
H187 H 0.88649 0.0917 0.47904 0.0
C188 C 0.68031 0.48872 0.81519 0.0
C189 C 0.64964 0.56843 0.83677 0.0
C190 C 0.63183 0.51964 0.83118 0.0
C191 C 0.71533 0.5859 0.82435 0.0
C192 C 0.74705 0.50568 0.80363 0.0
C193 C 0.76384 0.55462 0.80769 0.0
N194 N 0.66248 0.44162 0.81162 0.0
C195 C 0.71019 0.40895 0.79907 0.0
C196 C 0.79537 0.4727 0.78911 0.0
C197 C 0.7771 0.42402 0.78722 0.0
Gd198 Gd 0.41131 0.40482 0.74349 0.0
Gd199 Gd 0.54985 0.41891 0.83217 0.0
N200 N 0.56914 0.5014 0.8434 0.0
C201 C 0.60206 0.59776 0.85606 0.0
C202 C 0.52571 0.52885 0.86517 0.0
C203 C 0.54052 0.57761 0.87103 0.0
H204 H 0.48033 0.5131 0.87888 0.0
H205 H 0.50497 0.59942 0.88762 0.0
H206 H 0.41288 0.29042 0.71647 0.0
H207 H 0.69665 0.37124 0.79845 0.0
H208 H 0.33853 0.21706 0.72351 0.0
H209 H 0.61375 0.63542 0.86097 0.0
H210 H 0.72966 0.62337 0.82813 0.0
H211 H 0.29999 0.49812 0.74885 0.0
H212 H 0.84724 0.48428 0.77994 0.0
H213 H 0.81455 0.39811 0.77677 0.0
H214 H 0.12796 0.27466 0.78319 0.0
H215 H 0.81467 0.56847 0.79872 0.0
H216 H 0.10072 0.44536 0.78843 0.0
H217 H 0.17771 0.51317 0.76913 0.0
N218 N 0.29406 0.42303 0.75958 0.0
C219 C 0.25128 0.38509 0.76766 0.0
C220 C 0.26744 0.46838 0.7582 0.0
C221 C 0.15468 0.43863 0.78016 0.0
C222 C 0.19794 0.477 0.76924 0.0
C223 C 0.18067 0.39182 0.77866 0.0
H224 H 0.08349 0.35608 0.7951 0.0
N225 N 0.34178 0.33479 0.74652 0.0
C226 C 0.27599 0.33937 0.76085 0.0
C227 C 0.25532 0.25424 0.75269 0.0
C228 C 0.23125 0.29906 0.765 0.0
C229 C 0.3627 0.29234 0.73082 0.0
C230 C 0.32067 0.2511 0.73461 0.0
O231 O 0.57695 0.4447 0.77217 0.0
O232 O 0.47266 0.47376 0.74996 0.0
O233 O 0.4567 0.39661 0.6872 0.0
O234 O 0.3484 0.41755 0.693 0.0
O235 O 0.43878 0.44492 0.84063 0.0
O236 O 0.40721 0.47135 0.78116 0.0
O237 O 0.42383 0.34449 0.78575 0.0
O238 O 0.44444 0.38256 0.84241 0.0
O239 O 0.56665 0.43086 0.8923 0.0
O240 O 0.6068 0.36656 0.86609 0.0
O241 O 0.51667 0.36806 0.73727 0.0
O242 O 0.56324 0.35113 0.79736 0.0
C243 C 0.5416 0.4748 0.75086 0.0
C244 C 0.39991 0.47132 0.81832 0.0
C245 C 0.40646 0.43863 0.63605 0.0
C246 C 0.39746 0.44672 0.56716 0.0
C247 C 0.43019 0.51539 0.60653 0.0
C248 C 0.42583 0.48709 0.63914 0.0
C249 C 0.41566 0.49557 0.57074 0.0
C250 C 0.39256 0.41861 0.60017 0.0
C251 C 0.39924 0.408 0.66961 0.0
C252 C 0.16279 0.30526 0.77915 0.0
C253 C 0.13748 0.35163 0.78591 0.0
H254 H 0.22253 0.22238 0.75526 0.0
C255 C 0.4172 0.34691 0.82276 0.0
C256 C 0.55928 0.34474 0.7602 0.0
C257 C 0.66404 0.39629 0.92203 0.0
C258 C 0.71259 0.39604 0.9865 0.0
C259 C 0.78838 0.41181 0.93196 0.0
C260 C 0.73105 0.40666 0.90743 0.0
C261 C 0.77945 0.40638 0.97115 0.0
C262 C 0.65488 0.39181 0.96152 0.0
C263 C 0.60198 0.39182 0.89722 0.0
H264 H 0.4443 0.55288 0.60912 0.0
H265 H 0.43683 0.503 0.66666 0.0
H266 H 0.41889 0.51831 0.54591 0.0
H267 H 0.37643 0.38124 0.59808 0.0
H268 H 0.84011 0.41967 0.92054 0.0
H269 H 0.73907 0.41095 0.87724 0.0
H270 H 0.82521 0.40934 0.98936 0.0
H271 H 0.60252 0.38527 0.97272 0.0
C272 C 0.74626 0.89302 0.79581 0.0
C273 C 0.72252 0.80713 0.79694 0.0
C274 C 0.76944 0.84631 0.80116 0.0
C275 C 0.65215 0.81545 0.787 0.0
C276 C 0.67563 0.90143 0.78574 0.0
C277 C 0.62884 0.86243 0.78129 0.0
N278 N 0.79258 0.93014 0.80049 0.0
C279 C 0.7713 0.97652 0.79647 0.0
C280 C 0.65398 0.94884 0.78058 0.0
C281 C 0.70199 0.98651 0.78607 0.0
Gd282 Gd 0.06646 0.90883 0.74183 0.0
Gd283 Gd 0.90657 0.90868 0.81889 0.0
N284 N 0.83843 0.83914 0.80947 0.0
C285 C 0.74786 0.76071 0.80264 0.0
C286 C 0.86344 0.79403 0.81511 0.0
C287 C 0.8187 0.75412 0.81158 0.0
H288 H 0.91817 0.78881 0.82135 0.0
H289 H 0.83886 0.71832 0.81571 0.0
H290 H 0.06045 0.02812 0.73738 0.0
H291 H 0.8071 0.00606 0.80199 0.0
H292 H 0.13871 0.09825 0.74908 0.0
H293 H 0.71321 0.72977 0.80021 0.0
H294 H 0.6154 0.78577 0.7835 0.0
H295 H 0.16958 0.81279 0.73519 0.0
H296 H 0.60019 0.95676 0.77277 0.0
H297 H 0.68544 0.02332 0.78271 0.0
H298 H 0.36339 0.02755 0.77424 0.0
H299 H 0.5744 0.86824 0.77357 0.0
H300 H 0.38117 0.85667 0.76108 0.0
H301 H 0.2951 0.79269 0.74447 0.0
N302 N 0.18459 0.88664 0.74807 0.0
C303 C 0.23128 0.92253 0.75592 0.0
C304 C 0.20688 0.84072 0.743 0.0
C305 C 0.3262 0.86554 0.75742 0.0
C306 C 0.2778 0.82933 0.748 0.0
C307 C 0.30339 0.91297 0.76095 0.0
H308 H 0.40603 0.9444 0.77261 0.0
N309 N 0.13786 0.97719 0.75083 0.0
C310 C 0.20736 0.96931 0.75707 0.0
C311 C 0.22914 0.05473 0.761 0.0
C312 C 0.25475 0.00786 0.76292 0.0
C313 C 0.11378 0.02264 0.74611 0.0
C314 C 0.15848 0.06216 0.75202 0.0
O315 O 0.8903 0.87257 0.76104 0.0
O316 O 0.99756 0.84266 0.74215 0.0
O317 O 0.04419 0.9403 0.68666 0.0
O318 O 0.11018 0.8778 0.69034 0.0
O319 O 0.0058 0.86808 0.83356 0.0
O320 O 0.06151 0.84207 0.77845 0.0
O321 O 0.08885 0.94553 0.79912 0.0
O322 O 0.98276 0.97052 0.82466 0.0
O323 O 0.91192 0.87979 0.87587 0.0
O324 O 0.8441 0.93956 0.86466 0.0
O325 O 0.96169 0.94482 0.73255 0.0
O326 O 0.92453 0.97848 0.78796 0.0
C327 C 0.92845 0.84133 0.74197 0.0
C328 C 0.04604 0.83775 0.81498 0.0
C329 C 0.13267 0.93081 0.63962 0.0
C330 C 0.17902 0.93082 0.57446 0.0
C331 C 0.23399 0.9803 0.62369 0.0
C332 C 0.18478 0.96413 0.65023 0.0
C333 C 0.232 0.9633 0.58634 0.0
C334 C 0.1292 0.91488 0.60165 0.0
C335 C 0.08415 0.91036 0.66818 0.0
C336 C 0.32623 0.99843 0.76935 0.0
C337 C 0.3505 0.95108 0.7684 0.0
H338 H 0.264 0.08532 0.76501 0.0
C339 C 0.0519 0.97169 0.82326 0.0
C340 C 0.93809 0.98172 0.75149 0.0
C341 C 0.89399 0.93401 0.92615 0.0
C342 C 0.8938 0.93793 0.99546 0.0
C343 C 0.96388 0.99469 0.959 0.0
C344 C 0.94134 0.97282 0.92533 0.0
C345 C 0.93987 0.97758 0.99397 0.0
C346 C 0.87101 0.91612 0.9614 0.0
C347 C 0.86982 0.91135 0.89049 0.0
H348 H 0.27498 1.00529 0.63235 0.0
H349 H 0.18829 0.97704 0.67909 0.0
H350 H 0.27352 0.9746 0.56723 0.0
H351 H 0.08827 0.88949 0.59355 0.0
H352 H 0.0002 0.02486 0.95797 0.0
H353 H 0.96087 0.98585 0.89859 0.0
H354 H 0.95792 0.99482 1.01987 0.0
H355 H 0.83515 0.88562 0.96235 0.0
C356 C 0.7345 0.65327 0.29918 0.0
C357 C 0.71422 0.73864 0.30629 0.0
C358 C 0.6894 0.69075 0.30791 0.0
C359 C 0.78355 0.74821 0.29441 0.0
C360 C 0.80443 0.66276 0.28779 0.0
C361 C 0.82833 0.71042 0.28491 0.0
N362 N 0.71035 0.60745 0.30248 0.0
C363 C 0.75389 0.56954 0.29692 0.0
C364 C 0.8487 0.62395 0.28035 0.0
C365 C 0.82348 0.57713 0.28531 0.0
Gd366 Gd 0.42858 0.59563 0.24231 0.0
Gd367 Gd 0.59292 0.59771 0.32044 0.0
N368 N 0.6225 0.68032 0.31952 0.0
C369 C 0.66942 0.77541 0.31791 0.0
C370 C 0.58139 0.71584 0.33407 0.0
C371 C 0.60314 0.76386 0.33241 0.0
H372 H 0.53346 0.70762 0.34881 0.0
H373 H 0.56954 0.79182 0.34339 0.0
H374 H 0.40135 0.47709 0.23898 0.0
H375 H 0.735 0.53343 0.3019 0.0
H376 H 0.30608 0.41834 0.25287 0.0
H377 H 0.68658 0.8126 0.3174 0.0
H378 H 0.80366 0.78469 0.29326 0.0
H379 H 0.3549 0.70345 0.24537 0.0
H380 H 0.90278 0.62976 0.27155 0.0
H381 H 0.85775 0.54691 0.2805 0.0
H382 H 0.11293 0.51636 0.29333 0.0
H383 H 0.88185 0.71842 0.27618 0.0
H384 H 0.14277 0.68728 0.28519 0.0
H385 H 0.24127 0.7394 0.2636 0.0
N386 N 0.32122 0.63215 0.25719 0.0
C387 C 0.2674 0.60287 0.26789 0.0
C388 C 0.31217 0.68055 0.25492 0.0
C389 C 0.1926 0.67142 0.27742 0.0
C390 C 0.24797 0.70096 0.26522 0.0
C391 C 0.20156 0.62162 0.27836 0.0
H392 H 0.09555 0.60378 0.29669 0.0
N393 N 0.34084 0.53742 0.25474 0.0
C394 C 0.2772 0.55383 0.26624 0.0
C395 C 0.23241 0.47258 0.27015 0.0
C396 C 0.22142 0.5219 0.27464 0.0
C397 C 0.35093 0.48954 0.24864 0.0
C398 C 0.2973 0.45636 0.25678 0.0
O399 O 0.61364 0.62078 0.25948 0.0
O400 O 0.50897 0.65538 0.24387 0.0
O401 O 0.43752 0.56578 0.18496 0.0
O402 O 0.38625 0.63337 0.1938 0.0
O403 O 0.48563 0.62529 0.33731 0.0
O404 O 0.45574 0.65727 0.28052 0.0
O405 O 0.41265 0.55406 0.2969 0.0
O406 O 0.52155 0.53276 0.32162 0.0
O407 O 0.61203 0.61956 0.37889 0.0
O408 O 0.64992 0.55132 0.35934 0.0
O409 O 0.51567 0.54248 0.23129 0.0
O410 O 0.60278 0.53599 0.2786 0.0
C411 C 0.57744 0.6522 0.24004 0.0
C412 C 0.44432 0.6523 0.31689 0.0
C413 C 0.34075 0.58458 0.1451 0.0
C414 C 0.28465 0.57728 0.08247 0.0
C415 C 0.2171 0.56302 0.14035 0.0
C416 C 0.27671 0.57175 0.16218 0.0
C417 C 0.22051 0.56673 0.10103 0.0
C418 C 0.34496 0.58683 0.10506 0.0
C419 C 0.4004 0.5996 0.16951 0.0
C420 C 0.15633 0.54029 0.2864 0.0
C421 C 0.14645 0.59007 0.28833 0.0
H422 H 0.19085 0.44685 0.27628 0.0
C423 C 0.45289 0.52775 0.31887 0.0
C424 C 0.57283 0.52318 0.24591 0.0
C425 C 0.61586 0.55795 0.42422 0.0
C426 C 0.61542 0.55561 0.49378 0.0
C427 C 0.53358 0.50575 0.45765 0.0
C428 C 0.56057 0.52418 0.42372 0.0
C429 C 0.56065 0.52144 0.49248 0.0
C430 C 0.64349 0.5734 0.45944 0.0
C431 C 0.64175 0.57963 0.38848 0.0
H432 H 0.16748 0.55464 0.15406 0.0
H433 H 0.27196 0.57023 0.19254 0.0
H434 H 0.17189 0.56257 0.08532 0.0
H435 H 0.39441 0.5967 0.09173 0.0
H436 H 0.49101 0.47962 0.45695 0.0
H437 H 0.53778 0.51251 0.39713 0.0
H438 H 0.53888 0.50694 0.51849 0.0
H439 H 0.68526 0.60019 0.46017 0.0
C440 C 0.18949 0.91388 0.34843 0.0
C441 C 0.1556 0.89051 0.37876 0.0
C442 C 0.15912 0.95297 0.33024 0.0
C443 C 0.09456 0.97182 0.34246 0.0
H444 H 0.23952 0.90091 0.33808 0.0
H445 H 0.18676 0.96813 0.30625 0.0
S446 S 0.9874 0.9252 0.42329 0.0
N447 N 0.0554 0.88887 0.42115 0.0
N448 N -0.00036 0.96495 0.38918 0.0
C449 C 0.06149 0.94986 0.37417 0.0
C450 C 0.0918 0.90878 0.39189 0.0
C451 C 0.32641 0.58495 0.8606 0.0
C452 C 0.26558 0.56841 0.87941 0.0
C453 C 0.36745 0.55382 0.83868 0.0
C454 C 0.35113 0.50467 0.83674 0.0
H455 H 0.34041 0.62271 0.86169 0.0
H456 H 0.41298 0.56806 0.82385 0.0
S457 S 0.19291 0.44463 0.87627 0.0
N458 N 0.18498 0.50141 0.88901 0.0
N459 N 0.26842 0.44125 0.85318 0.0
C460 C 0.29038 0.48772 0.8551 0.0
C461 C 0.24603 0.52002 0.87521 0.0
C462 C 0.58812 0.59183 0.70132 0.0
C463 C 0.65422 0.58242 0.68522 0.0
C464 C 0.551 0.55626 0.72147 0.0
C465 C 0.57967 0.51041 0.72705 0.0
H466 H 0.56647 0.62755 0.69951 0.0
H467 H 0.5009 0.56538 0.73415 0.0
S468 S 0.7494 0.46739 0.68835 0.0
N469 N 0.74533 0.52385 0.67439 0.0
N470 N 0.67626 0.45682 0.71246 0.0
C471 C 0.64483 0.50024 0.71 0.0
C472 C 0.68192 0.5363 0.689 0.0
C473 C 0.90173 0.91931 0.19013 0.0
C474 C 0.82881 0.92186 0.18485 0.0
C475 C 0.93778 0.95443 0.2114 0.0
C476 C 0.90185 0.9932 0.22822 0.0
H477 H 0.93017 0.88853 0.17956 0.0
H478 H 0.99371 0.95001 0.21589 0.0
S479 S 0.71138 0.01867 0.21746 0.0
N480 N 0.72257 0.96735 0.19481 0.0
N481 N 0.78978 0.03441 0.23378 0.0
C482 C 0.82927 0.99736 0.22097 0.0
C483 C 0.79288 0.96141 0.19956 0.0
C484 C 0.83966 0.05795 0.68047 0.0
C485 C 0.85255 0.10456 0.69423 0.0
C486 C 0.87017 0.01807 0.69815 0.0
C487 C 0.91245 0.02388 0.73072 0.0
H488 H 0.80279 0.05225 0.65742 0.0
H489 H 0.85743 0.98244 0.68764 0.0
S490 S 0.96974 0.13931 0.77384 0.0
N491 N 0.91856 0.15482 0.73814 0.0
N492 N 0.97037 0.08005 0.77368 0.0
C493 C 0.92815 0.07052 0.74342 0.0
C494 C 0.89994 0.11087 0.72438 0.0
C495 C 0.7128 0.43823 0.20924 0.0
C496 C 0.67456 0.40538 0.18686 0.0
C497 C 0.6797 0.47678 0.22721 0.0
C498 C 0.60695 0.48423 0.22352 0.0
H499 H 0.76826 0.43249 0.21439 0.0
H500 H 0.71153 0.50045 0.24447 0.0
S501 S 0.48536 0.41121 0.16339 0.0
N502 N 0.56206 0.38434 0.15901 0.0
N503 N 0.49936 0.45791 0.19154 0.0
C504 C 0.56916 0.4535 0.19863 0.0
C505 C 0.60309 0.41377 0.18064 0.0
C506 C 0.31005 0.45664 0.3695 0.0
C507 C 0.34472 0.41454 0.37976 0.0
C508 C 0.3462 0.49379 0.35094 0.0
C509 C 0.41787 0.48947 0.34125 0.0
H510 H 0.25426 0.46016 0.37502 0.0
H511 H 0.31736 0.5257 0.34351 0.0
S512 S 0.53123 0.38519 0.36248 0.0
N513 N 0.45357 0.37033 0.38025 0.0
N514 N 0.52193 0.43918 0.34404 0.0
C515 C 0.45323 0.44757 0.35223 0.0
C516 C 0.41645 0.41026 0.37174 0.0
C517 C 0.19925 0.0396 0.87476 0.0
C518 C 0.16507 0.08026 0.88916 0.0
C519 C 0.16209 1.00406 0.85431 0.0
C520 C 0.08948 0.00836 0.847 0.0
H521 H 0.25575 0.0366 0.87775 0.0
H522 H 0.19091 0.97368 0.84333 0.0
S523 S 0.97696 0.10953 0.87887 0.0
N524 N 0.05583 0.12294 0.89566 0.0
N525 N 0.98544 0.05786 0.85632 0.0
C526 C 0.05476 0.04885 0.86212 0.0
C527 C 0.09265 0.08429 0.88346 0.0
C528 C 0.26923 0.07654 0.98499 0.0
C529 C 0.21936 0.1074 0.96916 0.0
C530 C 0.26969 0.06694 1.02415 0.0
C531 C 0.22024 0.08795 0.04892 0.0
H532 H 0.31161 0.06313 0.96745 0.0
H533 H 0.31175 0.04531 1.03549 0.0
S534 S 0.07457 0.16762 1.02024 0.0
N535 N 0.11619 0.15568 0.98014 0.0
N536 N 0.11624 0.13775 0.0537 0.0
C537 C 0.1666 0.11569 1.03275 0.0
C538 C 0.16643 0.12542 0.99287 0.0
C539 C 0.30872 0.42556 0.47159 0.0
C540 C 0.33406 0.38036 0.46073 0.0
C541 C 0.33141 0.44772 0.50539 0.0
C542 C 0.38019 0.42529 0.52945 0.0
H543 H 0.26929 0.44301 0.45445 0.0
H544 H 0.30858 0.48175 0.51344 0.0
S545 S 0.46961 0.30987 0.51035 0.0
N546 N 0.41529 0.31622 0.47414 0.0
N547 N 0.45845 0.35754 0.53768 0.0
C548 C 0.40842 0.38111 0.51772 0.0
C549 C 0.38522 0.3587 0.48335 0.0
C550 C 0.74208 0.40523 0.09366 0.0
C551 C 0.70709 0.3642 0.10725 0.0
C552 C 0.7406 0.41683 0.05479 0.0
C553 C 0.70446 0.38751 1.02821 0.0
H554 H 0.7743 0.4266 0.11278 0.0
H555 H 0.77026 0.44793 0.04528 0.0
S556 S 0.60136 0.27733 0.05107 0.0
N557 N 0.63185 0.29618 0.09246 0.0
N558 N 0.63028 0.31649 1.01948 0.0
C559 C 0.66619 0.34775 0.0422 0.0
C560 C 0.66727 0.33649 0.08168 0.0
C561 C 0.80244 0.13955 0.58147 0.0
C562 C 0.83928 0.14997 0.61513 0.0
C563 C 0.83708 0.13752 0.54631 0.0
C564 C 0.91029 0.14534 0.54348 0.0
H565 H 0.74577 0.13528 0.58218 0.0
H566 H 0.80551 0.13235 0.52101 0.0
S567 S 0.03204 0.16652 0.62454 0.0
N568 N 0.95318 0.16412 0.64423 0.0
N569 N 0.01952 0.15748 0.57862 0.0
C570 C 0.94841 0.15204 0.57754 0.0
C571 C 0.91269 0.15487 0.61325 0.0
C572 C 0.86775 0.85581 0.08025 0.0
C573 C 0.82188 0.88209 0.10362 0.0
C574 C 0.89077 0.874 0.04518 0.0
C575 C 0.86964 0.91947 1.03267 0.0
H576 H 0.88496 0.82062 0.08896 0.0
H577 H 0.92534 0.85245 1.02773 0.0
S578 S 0.74979 1.00229 0.08297 0.0
N579 N 0.7549 0.95521 0.11115 0.0
N580 N 0.80112 0.99054 0.04627 0.0
C581 C 0.82521 0.94655 0.0561 0.0
C582 C 0.8007 0.92763 0.09139 0.0
C583 C 0.73563 0.5825 0.57807 0.0
C584 C 0.69134 0.60777 0.60295 0.0
C585 C 0.71096 0.56568 0.54269 0.0
C586 C 0.64117 0.57365 0.53114 0.0
H587 H 0.78991 0.57644 0.58589 0.0
H588 H 0.74661 0.54639 0.52425 0.0
S589 S 0.50715 0.64237 0.58446 0.0
N590 N 0.57657 0.64269 0.61268 0.0
N591 N 0.52959 0.61078 0.54659 0.0
C592 C 0.59667 0.59909 0.5558 0.0
C593 C 0.62191 0.61623 0.59163 0.0
C594 C 0.30633 0.63263 0.98412 0.0
C595 C 0.25642 0.60663 0.96253 0.0
C596 C 0.31969 0.62104 1.02236 0.0
C597 C 0.28511 0.58204 0.04002 0.0
H598 H 0.33177 0.664 0.97212 0.0
H599 H 0.35364 0.64473 0.0387 0.0
S600 S 0.16078 0.49691 0.99316 0.0
N601 N 0.177 0.53826 0.96082 0.0
N602 N 0.20988 0.51181 1.03007 0.0
C603 C 0.24203 0.55236 1.01703 0.0
C604 C 0.22578 0.56574 0.97896 0.0
C605 C 0.17329 0.8395 0.49357 0.0
C606 C 0.19749 0.86565 0.46202 0.0
C607 C 0.16536 0.86113 0.52929 0.0
C608 C 0.17986 0.91034 0.53495 0.0
H609 H 0.16271 0.80139 0.4908 0.0
H610 H 0.15045 0.83842 0.55289 0.0
S611 S 0.23689 0.9961 0.45995 0.0
N612 N 0.23348 0.94362 0.43806 0.0
N613 N 0.21211 0.98573 0.50417 0.0
C614 C 0.20002 0.9376 0.50284 0.0
C615 C 0.21023 0.91501 0.46664 0.0
C616 C 0.13694 0.27298 0.36157 0.0
C617 C 0.2031 0.26506 0.37791 0.0
C618 C 0.09737 0.23498 0.34615 0.0
C619 C 0.12268 0.18764 0.34652 0.0
H620 H 0.11632 0.30903 0.36028 0.0
H621 H 0.04713 0.24295 0.33322 0.0
S622 S 0.29103 0.14797 0.3886 0.0
N623 N 0.29142 0.20677 0.39492 0.0
N624 N 0.2163 0.13474 0.36677 0.0
C625 C 0.18811 0.17915 0.36369 0.0
C626 C 0.22843 0.218 0.3793 0.0
C627 C 0.35083 0.22144 0.84519 0.0
C628 C 0.30902 0.22825 0.8776 0.0
C629 C 0.38572 0.26005 0.82791 0.0
C630 C 0.38146 0.30684 0.84275 0.0
H631 H 0.35656 0.18591 0.83313 0.0
H632 H 0.41673 0.25302 0.80287 0.0
S633 S 0.27924 0.34351 0.9276 0.0
N634 N 0.26379 0.28526 0.92359 0.0
N635 N 0.33336 0.35756 0.89253 0.0
C636 C 0.3412 0.31397 0.87578 0.0
C637 C 0.30397 0.27476 0.89282 0.0
C638 C 0.70937 0.28523 0.70849 0.0
C639 C 0.68482 0.23777 0.70455 0.0
C640 C 0.66835 0.31992 0.72676 0.0
C641 C 0.60283 0.3076 0.74265 0.0
H642 H 0.76065 0.2953 0.6975 0.0
H643 H 0.68801 0.35645 0.72849 0.0
S644 S 0.51465 0.18858 0.73848 0.0
N645 N 0.58979 0.18085 0.71573 0.0
N646 N 0.51482 0.24523 0.75251 0.0
C647 C 0.57781 0.26037 0.73867 0.0
C648 C 0.61844 0.22555 0.71904 0.0
C649 C 0.8597 0.27113 0.23235 0.0
C650 C 0.81092 0.25777 0.20414 0.0
C651 C 0.90161 0.23686 0.25008 0.0
C652 C 0.89749 0.18829 0.2394 0.0
H653 H 0.86593 0.30844 0.24044 0.0
H654 H 0.9386 0.24858 0.2717 0.0
S655 S 0.77721 0.13472 0.16784 0.0
N656 N 0.75844 0.1925 0.16771 0.0
N657 N 0.84101 0.12833 0.19922 0.0
C658 C 0.84958 0.17447 0.21103 0.0
C659 C 0.80531 0.20918 0.19381 0.0
C660 C 0.78147 0.76759 0.69592 0.0
C661 C 0.8138 0.72357 0.68835 0.0
C662 C 0.81956 0.80591 0.71218 0.0
C663 C 0.89117 0.8013 0.72195 0.0
H664 H 0.72613 0.77202 0.68966 0.0
H665 H 0.79228 0.83919 0.7176 0.0
S666 S -0.00152 0.69182 0.70836 0.0
N667 N 0.92008 0.67676 0.69159 0.0
N668 N 0.99221 0.74812 0.72277 0.0
C669 C 0.924 0.7572 0.71405 0.0
C670 C 0.88508 0.71843 0.69723 0.0
C671 C 0.72145 0.7247 0.19092 0.0
C672 C 0.69225 0.77074 0.18932 0.0
C673 C 0.68384 0.68624 0.20714 0.0
C674 C 0.61567 0.69269 0.22192 0.0
H675 H 0.77417 0.71883 0.18031 0.0
H676 H 0.70838 0.65135 0.20831 0.0
S677 S 0.51758 0.80745 0.22471 0.0
N678 N 0.59267 0.82114 0.20357 0.0
N679 N 0.52156 0.7496 0.23429 0.0
C680 C 0.58607 0.73884 0.22008 0.0
C681 C 0.62452 0.7777 0.20373 0.0
C682 C 0.34584 0.76451 0.34348 0.0
C683 C 0.30016 0.74852 0.37224 0.0
C684 C 0.39217 0.733 0.32561 0.0
C685 C 0.39494 0.68454 0.33629 0.0
H686 H 0.3457 0.80178 0.33487 0.0
H687 H 0.42652 0.74675 0.30352 0.0
S688 S 0.28558 0.62496 0.40973 0.0
N689 N 0.25948 0.6814 0.4103 0.0
N690 N 0.34816 0.62188 0.37721 0.0
C691 C 0.3502 0.66819 0.36534 0.0
C692 C 0.30233 0.70029 0.38323 0.0
C693 C 0.16675 0.73532 0.8419 0.0
C694 C 0.13361 0.71505 0.87367 0.0
C695 C 0.13803 0.77486 0.82341 0.0
C696 C 0.07609 0.79669 0.8364 0.0
H697 H 0.21504 0.7201 0.8311 0.0
H698 H 0.16524 0.78841 0.79896 0.0
S699 S 0.97037 0.75688 0.9198 0.0
N700 N 0.03532 0.71809 0.91733 0.0
N701 N 0.98408 0.79513 0.88482 0.0
C702 C 0.04372 0.77736 0.8692 0.0
C703 C 0.07174 0.73586 0.8872 0.0
loop_
_geom_bond_atom_site_label_1
_geom_bond_atom_site_label_2
_geom_bond_distance
_geom_bond_site_symmetry_2
_ccdc_geom_bond_type
C0 N1 1.317 . S
C0 N2 1.348 . S
C0 C3 1.485 . S
N1 C0 1.317 . S
N1 N5 1.370 . S
N2 C0 1.348 . S
N2 C4 1.346 . S
C3 C0 1.485 . S
C3 H7 0.960 . S
C3 H8 0.961 . S
C3 H9 0.960 . S
C4 N2 1.346 . S
C4 N5 1.307 . S
C4 C6 1.486 . S
N5 N1 1.370 . S
N5 C4 1.307 . S
C6 C4 1.486 . S
C6 H10 0.960 . S
C6 H11 0.960 . S
C6 H12 0.959 . S
H7 C3 0.960 . S
H8 C3 0.961 . S
H9 C3 0.960 . S
H10 C6 0.960 . S
H11 C6 0.960 . S
H12 C6 0.959 . S
C13 N14 1.317 . S
C13 N15 1.348 . S
C13 C16 1.485 . S
N14 C13 1.317 . S
N14 N18 1.370 . S
N15 C13 1.348 . S
N15 C17 1.346 . S
C16 C13 1.485 . S
C16 H20 0.960 . S
C16 H21 0.961 . S
C16 H22 0.960 . S
C17 N15 1.346 . S
C17 N18 1.307 . S
C17 C19 1.486 . S
N18 N14 1.370 . S
N18 C17 1.307 . S
C19 C17 1.486 . S
C19 H23 0.960 . S
C19 H24 0.960 . S
C19 H25 0.959 . S
H20 C16 0.960 . S
H21 C16 0.961 . S
H22 C16 0.960 . S
H23 C19 0.960 . S
H24 C19 0.960 . S
H25 C19 0.959 . S
C26 N27 1.317 . S
C26 N28 1.348 . S
C26 C29 1.485 . S
N27 C26 1.317 . S
N27 N31 1.370 . S
N28 C26 1.348 . S
N28 C30 1.346 . S
C29 C26 1.485 . S
C29 H33 0.960 . S
C29 H34 0.961 . S
C29 H35 0.960 . S
C30 N28 1.346 . S
C30 N31 1.307 . S
C30 C32 1.486 . S
N31 N27 1.370 . S
N31 C30 1.307 . S
C32 C30 1.486 . S
C32 H36 0.960 . S
C32 H37 0.960 . S
C32 H38 0.959 . S
H33 C29 0.960 . S
H34 C29 0.961 . S
H35 C29 0.960 . S
H36 C32 0.960 . S
H37 C32 0.960 . S
H38 C32 0.959 . S
C39 N40 1.317 . S
C39 N41 1.348 . S
C39 C42 1.485 . S
N40 C39 1.317 . S
N40 N44 1.370 . S
N41 C39 1.348 . S
N41 C43 1.346 . S
C42 C39 1.485 . S
C42 H46 0.960 . S
C42 H47 0.961 . S
C42 H48 0.960 . S
C43 N41 1.346 . S
C43 N44 1.307 . S
C43 C45 1.486 . S
N44 N40 1.370 . S
N44 C43 1.307 . S
C45 C43 1.486 . S
C45 H49 0.960 . S
C45 H50 0.960 . S
C45 H51 0.959 . S
H46 C42 0.960 . S
H47 C42 0.961 . S
H48 C42 0.960 . S
H49 C45 0.960 . S
H50 C45 0.960 . S
H51 C45 0.959 . S
C52 N53 1.317 . S
C52 N54 1.348 . S
C52 C55 1.485 . S
N53 C52 1.317 . S
N53 N57 1.370 . S
N54 C52 1.348 . S
N54 C56 1.346 . S
C55 C52 1.485 . S
C55 H59 0.960 . S
C55 H60 0.961 . S
C55 H61 0.960 . S
C56 N54 1.346 . S
C56 N57 1.307 . S
C56 C58 1.486 . S
N57 N53 1.370 . S
N57 C56 1.307 . S
C58 C56 1.486 . S
C58 H62 0.960 . S
C58 H63 0.960 . S
C58 H64 0.959 . S
H59 C55 0.960 . S
H60 C55 0.961 . S
H61 C55 0.960 . S
H62 C58 0.960 . S
H63 C58 0.960 . S
H64 C58 0.959 . S
C65 N66 1.317 . S
C65 N67 1.348 . S
C65 C68 1.485 . S
N66 C65 1.317 . S
N66 N70 1.370 . S
N67 C65 1.348 . S
N67 C69 1.346 . S
C68 C65 1.485 . S
C68 H72 0.960 . S
C68 H73 0.961 . S
C68 H74 0.960 . S
C69 N67 1.346 . S
C69 N70 1.307 . S
C69 C71 1.486 . S
N70 N66 1.370 . S
N70 C69 1.307 . S
C71 C69 1.486 . S
C71 H75 0.960 . S
C71 H76 0.960 . S
C71 H77 0.959 . S
H72 C68 0.960 . S
H73 C68 0.961 . S
H74 C68 0.960 . S
H75 C71 0.960 . S
H76 C71 0.960 . S
H77 C71 0.959 . S
C78 N79 1.317 . S
C78 N80 1.348 . S
C78 C81 1.485 . S
N79 C78 1.317 . S
N79 N83 1.370 . S
N80 C78 1.348 . S
N80 C82 1.346 . S
C81 C78 1.485 . S
C81 H85 0.960 . S
C81 H86 0.961 . S
C81 H87 0.960 . S
C82 N80 1.346 . S
C82 N83 1.307 . S
C82 C84 1.486 . S
N83 N79 1.370 . S
N83 C82 1.307 . S
C84 C82 1.486 . S
C84 H88 0.960 . S
C84 H89 0.960 . S
C84 H90 0.959 . S
H85 C81 0.960 . S
H86 C81 0.961 . S
H87 C81 0.960 . S
H88 C84 0.960 . S
H89 C84 0.960 . S
H90 C84 0.959 . S
C91 N92 1.317 . S
C91 N93 1.348 . S
C91 C94 1.485 . S
N92 C91 1.317 . S
N92 N96 1.370 . S
N93 C91 1.348 . S
N93 C95 1.346 . S
C94 C91 1.485 . S
C94 H98 0.960 . S
C94 H99 0.961 . S
C94 H100 0.960 . S
C95 N93 1.346 . S
C95 N96 1.307 . S
C95 C97 1.486 . S
N96 N92 1.370 . S
N96 C95 1.307 . S
C97 C95 1.486 . S
C97 H101 0.960 . S
C97 H102 0.960 . S
C97 H103 0.959 . S
H98 C94 0.960 . S
H99 C94 0.961 . S
H100 C94 0.960 . S
H101 C97 0.960 . S
H102 C97 0.960 . S
H103 C97 0.959 . S
C104 C106 1.422 . S
C104 C108 1.415 . S
C104 N110 1.369 . S
C105 C106 1.421 1_565 S
C105 C107 1.417 . S
C105 C117 1.422 . S
C106 C104 1.422 . S
C106 C105 1.421 1_545 S
C106 N116 1.359 . S
C107 C105 1.417 . S
C107 C109 1.329 1_565 S
C107 H126 0.930 . S
C108 C104 1.415 . S
C108 C109 1.437 . S
C108 C112 1.413 . S
C109 C107 1.329 1_545 S
C109 C108 1.437 . S
C109 H131 0.929 . S
N110 C104 1.369 . S
N110 C111 1.338 . S
N110 Gd115 2.622 . S
C111 N110 1.338 . S
C111 C113 1.378 . S
C111 H123 0.929 . S
C112 C108 1.413 . S
C112 C113 1.348 . S
C112 H128 0.931 . S
C113 C111 1.378 . S
C113 C112 1.348 . S
C113 H129 0.930 . S
Gd114 N134 2.622 . S
Gd114 N141 2.570 . S
Gd114 O148 2.353 1_455 S
Gd114 O149 2.468 . S
Gd114 O150 2.427 . S
Gd114 O152 2.388 . S
Gd114 O153 2.386 . S
Gd114 O157 2.307 1_455 S
Gd114 C167 2.805 . S
Gd115 N110 2.622 . S
Gd115 N116 2.570 . S
Gd115 O147 2.386 . S
Gd115 O151 2.307 1_655 S
Gd115 O154 2.353 1_655 S
Gd115 O155 2.468 . S
Gd115 O156 2.427 . S
Gd115 O158 2.388 . S
Gd115 C179 2.805 . S
N116 C106 1.359 . S
N116 Gd115 2.570 . S
N116 C118 1.343 1_545 S
C117 C105 1.422 . S
C117 C119 1.321 . S
C117 H125 0.931 . S
C118 N116 1.343 1_565 S
C118 C119 1.390 . S
C118 H120 0.931 . S
C119 C117 1.321 . S
C119 C118 1.390 . S
C119 H121 0.930 . S
H120 C118 0.931 . S
H121 C119 0.930 . S
H122 C145 0.931 . S
H123 C111 0.929 . S
H124 C146 0.930 . S
H125 C117 0.931 . S
H126 C107 0.930 . S
H127 C136 0.929 . S
H128 C112 0.931 . S
H129 C113 0.930 . S
H130 C168 0.930 . S
H131 C109 0.929 . S
H132 C137 0.931 . S
H133 C138 0.930 . S
N134 Gd114 2.622 . S
N134 C135 1.369 . S
N134 C136 1.338 . S
C135 N134 1.369 . S
C135 C139 1.415 . S
C135 C142 1.422 . S
C136 H127 0.929 . S
C136 N134 1.338 . S
C136 C138 1.378 . S
C137 H132 0.931 . S
C137 C138 1.348 . S
C137 C139 1.413 . S
C138 H133 0.930 . S
C138 C136 1.378 . S
C138 C137 1.348 . S
C139 C135 1.415 . S
C139 C137 1.413 . S
C139 C169 1.437 . S
H140 C169 0.929 . S
N141 Gd114 2.570 . S
N141 C142 1.359 . S
N141 C145 1.343 . S
C142 C135 1.422 . S
C142 N141 1.359 . S
C142 C144 1.421 . S
C143 C144 1.422 . S
C143 C146 1.321 . S
C143 H170 0.931 . S
C144 C142 1.421 . S
C144 C143 1.422 . S
C144 C168 1.417 . S
C145 H122 0.931 . S
C145 N141 1.343 . S
C145 C146 1.390 . S
C146 H124 0.930 . S
C146 C143 1.321 . S
C146 C145 1.390 . S
O147 Gd115 2.386 . S
O147 C159 1.265 . S
O148 Gd114 2.353 1_655 S
O148 C159 1.242 . S
O149 Gd114 2.468 . S
O149 C167 1.263 . S
O150 Gd114 2.427 . S
O150 C167 1.252 . S
O151 Gd115 2.307 1_455 S
O151 C160 1.261 . S
O152 Gd114 2.388 . S
O152 C160 1.252 . S
O153 Gd114 2.386 . S
O153 C171 1.265 . S
O154 Gd115 2.353 1_455 S
O154 C171 1.242 . S
O155 Gd115 2.468 . S
O155 C179 1.263 . S
O156 Gd115 2.427 . S
O156 C179 1.252 . S
O157 Gd114 2.307 1_655 S
O157 C172 1.261 . S
O158 Gd115 2.388 . S
O158 C172 1.252 . S
C159 O147 1.265 . S
C159 O148 1.242 . S
C160 O151 1.261 . S
C160 O152 1.252 . S
C161 C164 1.394 . S
C161 C166 1.370 . S
C161 C167 1.500 . S
C162 C165 1.383 . S
C162 C166 1.395 . S
C163 C164 1.396 . S
C163 C165 1.365 . S
C163 H180 0.929 1_545 S
C164 C161 1.394 . S
C164 C163 1.396 . S
C164 H181 0.930 . S
C165 C162 1.383 . S
C165 C163 1.365 . S
C165 H182 0.931 . S
C166 C161 1.370 . S
C166 C162 1.395 . S
C166 H183 0.930 . S
C167 Gd114 2.805 . S
C167 O149 1.263 . S
C167 O150 1.252 . S
C167 C161 1.500 . S
C168 H130 0.930 . S
C168 C144 1.417 . S
C168 C169 1.329 . S
C169 C139 1.437 . S
C169 H140 0.929 . S
C169 C168 1.329 . S
H170 C143 0.931 . S
C171 O153 1.265 . S
C171 O154 1.242 . S
C172 O157 1.261 . S
C172 O158 1.252 . S
C173 C176 1.394 . S
C173 C178 1.370 . S
C173 C179 1.500 . S
C174 C177 1.383 . S
C174 C178 1.395 . S
C175 C176 1.396 . S
C175 C177 1.365 . S
C175 H184 0.929 . S
C176 C173 1.394 . S
C176 C175 1.396 . S
C176 H185 0.930 . S
C177 C174 1.383 . S
C177 C175 1.365 . S
C177 H186 0.931 . S
C178 C173 1.370 . S
C178 C174 1.395 . S
C178 H187 0.930 . S
C179 Gd115 2.805 . S
C179 O155 1.263 . S
C179 O156 1.252 . S
C179 C173 1.500 . S
H180 C163 0.929 1_565 S
H181 C164 0.930 . S
H182 C165 0.931 . S
H183 C166 0.930 . S
H184 C175 0.929 . S
H185 C176 0.930 . S
H186 C177 0.931 . S
H187 C178 0.930 . S
C188 C190 1.422 . S
C188 C192 1.415 . S
C188 N194 1.369 . S
C189 C190 1.421 . S
C189 C191 1.417 . S
C189 C201 1.422 . S
C190 C188 1.422 . S
C190 C189 1.421 . S
C190 N200 1.359 . S
C191 C189 1.417 . S
C191 C193 1.329 . S
C191 H210 0.930 . S
C192 C188 1.415 . S
C192 C193 1.437 . S
C192 C196 1.413 . S
C193 C191 1.329 . S
C193 C192 1.437 . S
C193 H215 0.929 . S
N194 C188 1.369 . S
N194 C195 1.338 . S
N194 Gd199 2.622 . S
C195 N194 1.338 . S
C195 C197 1.378 . S
C195 H207 0.929 . S
C196 C192 1.413 . S
C196 C197 1.348 . S
C196 H212 0.931 . S
C197 C195 1.378 . S
C197 C196 1.348 . S
C197 H213 0.930 . S
Gd198 N218 2.622 . S
Gd198 N225 2.570 . S
Gd198 O232 2.353 . S
Gd198 O233 2.468 . S
Gd198 O234 2.427 . S
Gd198 O236 2.388 . S
Gd198 O237 2.386 . S
Gd198 O241 2.307 . S
Gd198 C251 2.805 . S
Gd199 N194 2.622 . S
Gd199 N200 2.570 . S
Gd199 O231 2.386 . S
Gd199 O235 2.307 . S
Gd199 O238 2.353 . S
Gd199 O239 2.468 . S
Gd199 O240 2.427 . S
Gd199 O242 2.388 . S
Gd199 C263 2.805 . S
N200 C190 1.359 . S
N200 Gd199 2.570 . S
N200 C202 1.343 . S
C201 C189 1.422 . S
C201 C203 1.321 . S
C201 H209 0.931 . S
C202 N200 1.343 . S
C202 C203 1.390 . S
C202 H204 0.931 . S
C203 C201 1.321 . S
C203 C202 1.390 . S
C203 H205 0.930 . S
H204 C202 0.931 . S
H205 C203 0.930 . S
H206 C229 0.931 . S
H207 C195 0.929 . S
H208 C230 0.930 . S
H209 C201 0.931 . S
H210 C191 0.930 . S
H211 C220 0.929 . S
H212 C196 0.931 . S
H213 C197 0.930 . S
H214 C252 0.930 . S
H215 C193 0.929 . S
H216 C221 0.931 . S
H217 C222 0.930 . S
N218 Gd198 2.622 . S
N218 C219 1.369 . S
N218 C220 1.338 . S
C219 N218 1.369 . S
C219 C223 1.415 . S
C219 C226 1.422 . S
C220 H211 0.929 . S
C220 N218 1.338 . S
C220 C222 1.378 . S
C221 H216 0.931 . S
C221 C222 1.348 . S
C221 C223 1.413 . S
C222 H217 0.930 . S
C222 C220 1.378 . S
C222 C221 1.348 . S
C223 C219 1.415 . S
C223 C221 1.413 . S
C223 C253 1.437 . S
H224 C253 0.929 . S
N225 Gd198 2.570 . S
N225 C226 1.359 . S
N225 C229 1.343 . S
C226 C219 1.422 . S
C226 N225 1.359 . S
C226 C228 1.421 . S
C227 C228 1.422 . S
C227 C230 1.321 . S
C227 H254 0.931 . S
C228 C226 1.421 . S
C228 C227 1.422 . S
C228 C252 1.417 . S
C229 H206 0.931 . S
C229 N225 1.343 . S
C229 C230 1.390 . S
C230 H208 0.930 . S
C230 C227 1.321 . S
C230 C229 1.390 . S
O231 Gd199 2.386 . S
O231 C243 1.265 . S
O232 Gd198 2.353 . S
O232 C243 1.242 . S
O233 Gd198 2.468 . S
O233 C251 1.263 . S
O234 Gd198 2.427 . S
O234 C251 1.252 . S
O235 Gd199 2.307 . S
O235 C244 1.261 . S
O236 Gd198 2.388 . S
O236 C244 1.252 . S
O237 Gd198 2.386 . S
O237 C255 1.265 . S
O238 Gd199 2.353 . S
O238 C255 1.242 . S
O239 Gd199 2.468 . S
O239 C263 1.263 . S
O240 Gd199 2.427 . S
O240 C263 1.252 . S
O241 Gd198 2.307 . S
O241 C256 1.261 . S
O242 Gd199 2.388 . S
O242 C256 1.252 . S
C243 O231 1.265 . S
C243 O232 1.242 . S
C244 O235 1.261 . S
C244 O236 1.252 . S
C245 C248 1.394 . S
C245 C250 1.370 . S
C245 C251 1.500 . S
C246 C249 1.383 . S
C246 C250 1.395 . S
C247 C248 1.396 . S
C247 C249 1.365 . S
C247 H264 0.929 . S
C248 C245 1.394 . S
C248 C247 1.396 . S
C248 H265 0.930 . S
C249 C246 1.383 . S
C249 C247 1.365 . S
C249 H266 0.931 . S
C250 C245 1.370 . S
C250 C246 1.395 . S
C250 H267 0.930 . S
C251 Gd198 2.805 . S
C251 O233 1.263 . S
C251 O234 1.252 . S
C251 C245 1.500 . S
C252 H214 0.930 . S
C252 C228 1.417 . S
C252 C253 1.329 . S
C253 C223 1.437 . S
C253 H224 0.929 . S
C253 C252 1.329 . S
H254 C227 0.931 . S
C255 O237 1.265 . S
C255 O238 1.242 . S
C256 O241 1.261 . S
C256 O242 1.252 . S
C257 C260 1.394 . S
C257 C262 1.370 . S
C257 C263 1.500 . S
C258 C261 1.383 . S
C258 C262 1.395 . S
C259 C260 1.396 . S
C259 C261 1.365 . S
C259 H268 0.929 . S
C260 C257 1.394 . S
C260 C259 1.396 . S
C260 H269 0.930 . S
C261 C258 1.383 . S
C261 C259 1.365 . S
C261 H270 0.931 . S
C262 C257 1.370 . S
C262 C258 1.395 . S
C262 H271 0.930 . S
C263 Gd199 2.805 . S
C263 O239 1.263 . S
C263 O240 1.252 . S
C263 C257 1.500 . S
H264 C247 0.929 . S
H265 C248 0.930 . S
H266 C249 0.931 . S
H267 C250 0.930 . S
H268 C259 0.929 . S
H269 C260 0.930 . S
H270 C261 0.931 . S
H271 C262 0.930 . S
C272 C274 1.422 . S
C272 C276 1.415 . S
C272 N278 1.369 . S
C273 C274 1.421 . S
C273 C275 1.417 . S
C273 C285 1.422 . S
C274 C272 1.422 . S
C274 C273 1.421 . S
C274 N284 1.359 . S
C275 C273 1.417 . S
C275 C277 1.329 . S
C275 H294 0.930 . S
C276 C272 1.415 . S
C276 C277 1.437 . S
C276 C280 1.413 . S
C277 C275 1.329 . S
C277 C276 1.437 . S
C277 H299 0.929 . S
N278 C272 1.369 . S
N278 C279 1.338 . S
N278 Gd283 2.622 . S
C279 N278 1.338 . S
C279 C281 1.378 . S
C279 H291 0.929 . S
C280 C276 1.413 . S
C280 C281 1.348 . S
C280 H296 0.931 . S
C281 C279 1.378 . S
C281 C280 1.348 . S
C281 H297 0.930 . S
Gd282 N302 2.622 . S
Gd282 N309 2.570 . S
Gd282 O316 2.353 . S
Gd282 O317 2.468 . S
Gd282 O318 2.427 . S
Gd282 O320 2.388 . S
Gd282 O321 2.386 . S
Gd282 O325 2.300 1_455 S
Gd282 C335 2.805 . S
Gd283 N278 2.622 . S
Gd283 N284 2.570 . S
Gd283 O315 2.386 . S
Gd283 O319 2.307 1_655 S
Gd283 O322 2.353 1_655 S
Gd283 O323 2.468 . S
Gd283 O324 2.427 . S
Gd283 O326 2.388 . S
Gd283 C347 2.805 . S
N284 C274 1.359 . S
N284 Gd283 2.570 . S
N284 C286 1.343 . S
C285 C273 1.422 . S
C285 C287 1.321 . S
C285 H293 0.931 . S
C286 N284 1.343 . S
C286 C287 1.390 . S
C286 H288 0.931 . S
C287 C285 1.321 . S
C287 C286 1.390 . S
C287 H289 0.930 . S
H288 C286 0.931 . S
H289 C287 0.930 . S
H290 C313 0.931 . S
H291 C279 0.929 . S
H292 C314 0.930 . S
H293 C285 0.931 . S
H294 C275 0.930 . S
H295 C304 0.929 . S
H296 C280 0.931 . S
H297 C281 0.930 . S
H298 C336 0.930 . S
H299 C277 0.929 . S
H300 C305 0.931 . S
H301 C306 0.930 . S
N302 Gd282 2.622 . S
N302 C303 1.369 . S
N302 C304 1.338 . S
C303 N302 1.369 . S
C303 C307 1.415 . S
C303 C310 1.422 . S
C304 H295 0.929 . S
C304 N302 1.338 . S
C304 C306 1.378 . S
C305 H300 0.931 . S
C305 C306 1.348 . S
C305 C307 1.413 . S
C306 H301 0.930 . S
C306 C304 1.378 . S
C306 C305 1.348 . S
C307 C303 1.415 . S
C307 C305 1.413 . S
C307 C337 1.437 . S
H308 C337 0.929 . S
N309 Gd282 2.570 . S
N309 C310 1.359 . S
N309 C313 1.343 1_565 S
C310 C303 1.422 . S
C310 N309 1.359 . S
C310 C312 1.421 1_565 S
C311 C312 1.422 . S
C311 C314 1.321 . S
C311 H338 0.931 . S
C312 C310 1.421 1_545 S
C312 C311 1.422 . S
C312 C336 1.417 . S
C313 H290 0.931 . S
C313 N309 1.343 1_545 S
C313 C314 1.390 . S
C314 H292 0.930 . S
C314 C311 1.321 . S
C314 C313 1.390 . S
O315 Gd283 2.386 . S
O315 C327 1.265 . S
O316 Gd282 2.353 . S
O316 C327 1.242 1_455 S
O317 Gd282 2.468 . S
O317 C335 1.263 . S
O318 Gd282 2.427 . S
O318 C335 1.252 . S
O319 Gd283 2.307 1_455 S
O319 C328 1.261 . S
O320 Gd282 2.388 . S
O320 C328 1.252 . S
O321 Gd282 2.386 . S
O321 C339 1.265 . S
O322 Gd283 2.353 1_455 S
O322 C339 1.242 . S
O323 Gd283 2.468 . S
O323 C347 1.263 . S
O324 Gd283 2.427 . S
O324 C347 1.252 . S
O325 Gd282 2.300 1_655 S
O325 C340 1.270 . S
O326 Gd283 2.388 . S
O326 C340 1.252 . S
C327 O315 1.265 . S
C327 O316 1.242 1_655 S
C328 O319 1.261 . S
C328 O320 1.252 . S
C329 C332 1.394 . S
C329 C334 1.370 . S
C329 C335 1.500 . S
C330 C333 1.383 . S
C330 C334 1.395 . S
C331 C332 1.396 . S
C331 C333 1.365 . S
C331 H348 0.929 . S
C332 C329 1.394 . S
C332 C331 1.396 . S
C332 H349 0.930 . S
C333 C330 1.383 . S
C333 C331 1.365 . S
C333 H350 0.931 . S
C334 C329 1.370 . S
C334 C330 1.395 . S
C334 H351 0.930 . S
C335 Gd282 2.805 . S
C335 O317 1.263 . S
C335 O318 1.252 . S
C335 C329 1.500 . S
C336 H298 0.930 . S
C336 C312 1.417 . S
C336 C337 1.329 1_545 S
C337 C307 1.437 . S
C337 H308 0.929 . S
C337 C336 1.329 1_565 S
H338 C311 0.931 . S
C339 O321 1.265 . S
C339 O322 1.242 . S
C340 O325 1.270 . S
C340 O326 1.252 . S
C341 C344 1.394 . S
C341 C346 1.370 . S
C341 C347 1.500 . S
C342 C345 1.383 . S
C342 C346 1.395 . S
C343 C344 1.396 . S
C343 C345 1.365 . S
C343 H352 0.929 1_565 S
C344 C341 1.394 . S
C344 C343 1.396 . S
C344 H353 0.930 . S
C345 C342 1.383 . S
C345 C343 1.365 . S
C345 H354 0.931 . S
C346 C341 1.370 . S
C346 C342 1.395 . S
C346 H355 0.930 . S
C347 Gd283 2.805 . S
C347 O323 1.263 . S
C347 O324 1.252 . S
C347 C341 1.500 . S
H348 C331 0.929 . S
H349 C332 0.930 . S
H350 C333 0.931 . S
H351 C334 0.930 . S
H352 C343 0.929 1_545 S
H353 C344 0.930 . S
H354 C345 0.931 . S
H355 C346 0.930 . S
C356 C358 1.422 . S
C356 C360 1.415 . S
C356 N362 1.369 . S
C357 C358 1.421 . S
C357 C359 1.417 . S
C357 C369 1.422 . S
C358 C356 1.422 . S
C358 C357 1.421 . S
C358 N368 1.359 . S
C359 C357 1.417 . S
C359 C361 1.329 . S
C359 H378 0.930 . S
C360 C356 1.415 . S
C360 C361 1.437 . S
C360 C364 1.413 . S
C361 C359 1.329 . S
C361 C360 1.437 . S
C361 H383 0.929 . S
N362 C356 1.369 . S
N362 C363 1.338 . S
N362 Gd367 2.622 . S
C363 N362 1.338 . S
C363 C365 1.378 . S
C363 H375 0.929 . S
C364 C360 1.413 . S
C364 C365 1.348 . S
C364 H380 0.931 . S
C365 C363 1.378 . S
C365 C364 1.348 . S
C365 H381 0.930 . S
Gd366 N386 2.622 . S
Gd366 N393 2.570 . S
Gd366 O400 2.353 . S
Gd366 O401 2.468 . S
Gd366 O402 2.427 . S
Gd366 O404 2.388 . S
Gd366 O405 2.386 . S
Gd366 O409 2.307 . S
Gd366 C419 2.805 . S
Gd367 N362 2.622 . S
Gd367 N368 2.570 . S
Gd367 O399 2.386 . S
Gd367 O403 2.307 . S
Gd367 O406 2.353 . S
Gd367 O407 2.468 . S
Gd367 O408 2.427 . S
Gd367 O410 2.388 . S
Gd367 C431 2.805 . S
N368 C358 1.359 . S
N368 Gd367 2.570 . S
N368 C370 1.343 . S
C369 C357 1.422 . S
C369 C371 1.321 . S
C369 H377 0.931 . S
C370 N368 1.343 . S
C370 C371 1.390 . S
C370 H372 0.931 . S
C371 C369 1.321 . S
C371 C370 1.390 . S
C371 H373 0.930 . S
H372 C370 0.931 . S
H373 C371 0.930 . S
H374 C397 0.931 . S
H375 C363 0.929 . S
H376 C398 0.930 . S
H377 C369 0.931 . S
H378 C359 0.930 . S
H379 C388 0.929 . S
H380 C364 0.931 . S
H381 C365 0.930 . S
H382 C420 0.930 . S
H383 C361 0.929 . S
H384 C389 0.931 . S
H385 C390 0.930 . S
N386 Gd366 2.622 . S
N386 C387 1.369 . S
N386 C388 1.338 . S
C387 N386 1.369 . S
C387 C391 1.415 . S
C387 C394 1.422 . S
C388 H379 0.929 . S
C388 N386 1.338 . S
C388 C390 1.378 . S
C389 H384 0.931 . S
C389 C390 1.348 . S
C389 C391 1.413 . S
C390 H385 0.930 . S
C390 C388 1.378 . S
C390 C389 1.348 . S
C391 C387 1.415 . S
C391 C389 1.413 . S
C391 C421 1.437 . S
H392 C421 0.929 . S
N393 Gd366 2.570 . S
N393 C394 1.359 . S
N393 C397 1.343 . S
C394 C387 1.422 . S
C394 N393 1.359 . S
C394 C396 1.421 . S
C395 C396 1.422 . S
C395 C398 1.321 . S
C395 H422 0.931 . S
C396 C394 1.421 . S
C396 C395 1.422 . S
C396 C420 1.417 . S
C397 H374 0.931 . S
C397 N393 1.343 . S
C397 C398 1.390 . S
C398 H376 0.930 . S
C398 C395 1.321 . S
C398 C397 1.390 . S
O399 Gd367 2.386 . S
O399 C411 1.265 . S
O400 Gd366 2.353 . S
O400 C411 1.242 . S
O401 Gd366 2.468 . S
O401 C419 1.263 . S
O402 Gd366 2.427 . S
O402 C419 1.252 . S
O403 Gd367 2.307 . S
O403 C412 1.261 . S
O404 Gd366 2.388 . S
O404 C412 1.252 . S
O405 Gd366 2.386 . S
O405 C423 1.265 . S
O406 Gd367 2.353 . S
O406 C423 1.242 . S
O407 Gd367 2.468 . S
O407 C431 1.263 . S
O408 Gd367 2.427 . S
O408 C431 1.252 . S
O409 Gd366 2.307 . S
O409 C424 1.261 . S
O410 Gd367 2.388 . S
O410 C424 1.252 . S
C411 O399 1.265 . S
C411 O400 1.242 . S
C412 O403 1.261 . S
C412 O404 1.252 . S
C413 C416 1.394 . S
C413 C418 1.370 . S
C413 C419 1.500 . S
C414 C417 1.383 . S
C414 C418 1.395 . S
C415 C416 1.396 . S
C415 C417 1.365 . S
C415 H432 0.929 . S
C416 C413 1.394 . S
C416 C415 1.396 . S
C416 H433 0.930 . S
C417 C414 1.383 . S
C417 C415 1.365 . S
C417 H434 0.931 . S
C418 C413 1.370 . S
C418 C414 1.395 . S
C418 H435 0.930 . S
C419 Gd366 2.805 . S
C419 O401 1.263 . S
C419 O402 1.252 . S
C419 C413 1.500 . S
C420 H382 0.930 . S
C420 C396 1.417 . S
C420 C421 1.329 . S
C421 C391 1.437 . S
C421 H392 0.929 . S
C421 C420 1.329 . S
H422 C395 0.931 . S
C423 O405 1.265 . S
C423 O406 1.242 . S
C424 O409 1.261 . S
C424 O410 1.252 . S
C425 C428 1.394 . S
C425 C430 1.370 . S
C425 C431 1.500 . S
C426 C429 1.383 . S
C426 C430 1.395 . S
C427 C428 1.396 . S
C427 C429 1.365 . S
C427 H436 0.929 . S
C428 C425 1.394 . S
C428 C427 1.396 . S
C428 H437 0.930 . S
C429 C426 1.383 . S
C429 C427 1.365 . S
C429 H438 0.931 . S
C430 C425 1.370 . S
C430 C426 1.395 . S
C430 H439 0.930 . S
C431 Gd367 2.805 . S
C431 O407 1.263 . S
C431 O408 1.252 . S
C431 C425 1.500 . S
H432 C415 0.929 . S
H433 C416 0.930 . S
H434 C417 0.931 . S
H435 C418 0.930 . S
H436 C427 0.929 . S
H437 C428 0.930 . S
H438 C429 0.931 . S
H439 C430 0.930 . S
C440 C441 1.369 . S
C440 C442 1.419 . S
C440 H444 0.930 . S
C441 C440 1.369 . S
C441 C450 1.429 . S
C442 C440 1.419 . S
C442 C443 1.363 . S
C442 H445 0.929 . S
C443 C442 1.363 . S
C443 C449 1.428 . S
H444 C440 0.930 . S
H445 C442 0.929 . S
S446 N447 1.613 1_655 S
S446 N448 1.610 1_655 S
N447 S446 1.613 1_455 S
N447 C450 1.350 . S
N448 S446 1.610 1_455 S
N448 C449 1.351 . S
C449 C443 1.428 . S
C449 N448 1.351 . S
C449 C450 1.434 . S
C450 C441 1.429 . S
C450 N447 1.350 . S
C450 C449 1.434 . S
C451 C452 1.369 . S
C451 C453 1.419 . S
C451 H455 0.930 . S
C452 C451 1.369 . S
C452 C461 1.429 . S
C453 C451 1.419 . S
C453 C454 1.363 . S
C453 H456 0.929 . S
C454 C453 1.363 . S
C454 C460 1.428 . S
H455 C451 0.930 . S
H456 C453 0.929 . S
S457 N458 1.613 . S
S457 N459 1.610 . S
N458 S457 1.613 . S
N458 C461 1.350 . S
N459 S457 1.610 . S
N459 C460 1.351 . S
C460 C454 1.428 . S
C460 N459 1.351 . S
C460 C461 1.434 . S
C461 C452 1.429 . S
C461 N458 1.350 . S
C461 C460 1.434 . S
C462 C463 1.369 . S
C462 C464 1.419 . S
C462 H466 0.930 . S
C463 C462 1.369 . S
C463 C472 1.429 . S
C464 C462 1.419 . S
C464 C465 1.363 . S
C464 H467 0.929 . S
C465 C464 1.363 . S
C465 C471 1.428 . S
H466 C462 0.930 . S
H467 C464 0.929 . S
S468 N469 1.613 . S
S468 N470 1.610 . S
N469 S468 1.613 . S
N469 C472 1.350 . S
N470 S468 1.610 . S
N470 C471 1.351 . S
C471 C465 1.428 . S
C471 N470 1.351 . S
C471 C472 1.434 . S
C472 C463 1.429 . S
C472 N469 1.350 . S
C472 C471 1.434 . S
C473 C474 1.369 . S
C473 C475 1.419 . S
C473 H477 0.930 . S
C474 C473 1.369 . S
C474 C483 1.429 . S
C475 C473 1.419 . S
C475 C476 1.363 . S
C475 H478 0.929 . S
C476 C475 1.363 . S
C476 C482 1.428 . S
H477 C473 0.930 . S
H478 C475 0.929 . S
S479 N480 1.613 . S
S479 N481 1.610 1_565 S
N480 S479 1.613 . S
N480 C483 1.350 . S
N481 S479 1.610 1_545 S
N481 C482 1.351 1_545 S
C482 C476 1.428 . S
C482 N481 1.351 1_565 S
C482 C483 1.434 . S
C483 C474 1.429 . S
C483 N480 1.350 . S
C483 C482 1.434 . S
C484 C485 1.369 . S
C484 C486 1.419 1_545 S
C484 H488 0.930 . S
C485 C484 1.369 . S
C485 C494 1.429 . S
C486 C484 1.419 1_565 S
C486 C487 1.363 1_565 S
C486 H489 0.929 . S
C487 C486 1.363 1_545 S
C487 C493 1.428 . S
H488 C484 0.930 . S
H489 C486 0.929 . S
S490 N491 1.613 . S
S490 N492 1.610 . S
N491 S490 1.613 . S
N491 C494 1.350 . S
N492 S490 1.610 . S
N492 C493 1.351 . S
C493 C487 1.428 . S
C493 N492 1.351 . S
C493 C494 1.434 . S
C494 C485 1.429 . S
C494 N491 1.350 . S
C494 C493 1.434 . S
C495 C496 1.369 . S
C495 C497 1.419 . S
C495 H499 0.930 . S
C496 C495 1.369 . S
C496 C505 1.429 . S
C497 C495 1.419 . S
C497 C498 1.363 . S
C497 H500 0.929 . S
C498 C497 1.363 . S
C498 C504 1.428 . S
H499 C495 0.930 . S
H500 C497 0.929 . S
S501 N502 1.613 . S
S501 N503 1.610 . S
N502 S501 1.613 . S
N502 C505 1.350 . S
N503 S501 1.610 . S
N503 C504 1.351 . S
C504 C498 1.428 . S
C504 N503 1.351 . S
C504 C505 1.434 . S
C505 C496 1.429 . S
C505 N502 1.350 . S
C505 C504 1.434 . S
C506 C507 1.369 . S
C506 C508 1.419 . S
C506 H510 0.930 . S
C507 C506 1.369 . S
C507 C516 1.429 . S
C508 C506 1.419 . S
C508 C509 1.363 . S
C508 H511 0.929 . S
C509 C508 1.363 . S
C509 C515 1.428 . S
H510 C506 0.930 . S
H511 C508 0.929 . S
S512 N513 1.613 . S
S512 N514 1.610 . S
N513 S512 1.613 . S
N513 C516 1.350 . S
N514 S512 1.610 . S
N514 C515 1.351 . S
C515 C509 1.428 . S
C515 N514 1.351 . S
C515 C516 1.434 . S
C516 C507 1.429 . S
C516 N513 1.350 . S
C516 C515 1.434 . S
C517 C518 1.369 . S
C517 C519 1.419 . S
C517 H521 0.930 . S
C518 C517 1.369 . S
C518 C527 1.429 . S
C519 C517 1.419 . S
C519 C520 1.363 . S
C519 H522 0.929 1_545 S
C520 C519 1.363 . S
C520 C526 1.428 . S
H521 C517 0.930 . S
H522 C519 0.929 1_565 S
S523 N524 1.613 1_655 S
S523 N525 1.610 1_655 S
N524 S523 1.613 1_455 S
N524 C527 1.350 . S
N525 S523 1.610 1_455 S
N525 C526 1.351 . S
C526 C520 1.428 . S
C526 N525 1.351 . S
C526 C527 1.434 . S
C527 C518 1.429 . S
C527 N524 1.350 . S
C527 C526 1.434 . S
C528 C529 1.369 . S
C528 C530 1.419 . S
C528 H532 0.930 . S
C529 C528 1.369 . S
C529 C538 1.429 . S
C530 C528 1.419 . S
C530 C531 1.363 1_556 S
C530 H533 0.929 . S
C531 C530 1.363 1_554 S
C531 C537 1.428 . S
H532 C528 0.930 . S
H533 C530 0.929 . S
S534 N535 1.613 1_554 S
S534 N536 1.610 . S
N535 S534 1.613 1_556 S
N535 C538 1.350 . S
N536 S534 1.610 . S
N536 C537 1.351 . S
C537 C531 1.428 . S
C537 N536 1.351 . S
C537 C538 1.434 1_554 S
C538 C529 1.429 . S
C538 N535 1.350 . S
C538 C537 1.434 1_556 S
C539 C540 1.369 . S
C539 C541 1.419 . S
C539 H543 0.930 . S
C540 C539 1.369 . S
C540 C549 1.429 . S
C541 C539 1.419 . S
C541 C542 1.363 . S
C541 H544 0.929 . S
C542 C541 1.363 . S
C542 C548 1.428 . S
H543 C539 0.930 . S
H544 C541 0.929 . S
S545 N546 1.613 . S
S545 N547 1.610 . S
N546 S545 1.613 . S
N546 C549 1.350 . S
N547 S545 1.610 . S
N547 C548 1.351 . S
C548 C542 1.428 . S
C548 N547 1.351 . S
C548 C549 1.434 . S
C549 C540 1.429 . S
C549 N546 1.350 . S
C549 C548 1.434 . S
C550 C551 1.369 . S
C550 C552 1.419 . S
C550 H554 0.930 . S
C551 C550 1.369 . S
C551 C560 1.429 . S
C552 C550 1.419 . S
C552 C553 1.363 1_554 S
C552 H555 0.929 1_554 S
C553 C552 1.363 1_556 S
C553 C559 1.428 1_556 S
H554 C550 0.930 . S
H555 C552 0.929 1_556 S
S556 N557 1.613 . S
S556 N558 1.610 . S
N557 S556 1.613 . S
N557 C560 1.350 . S
N558 S556 1.610 . S
N558 C559 1.351 . S
C559 C553 1.428 1_554 S
C559 N558 1.351 . S
C559 C560 1.434 . S
C560 C551 1.429 . S
C560 N557 1.350 . S
C560 C559 1.434 . S
C561 C562 1.369 . S
C561 C563 1.419 . S
C561 H565 0.930 . S
C562 C561 1.369 . S
C562 C571 1.429 . S
C563 C561 1.419 . S
C563 C564 1.363 . S
C563 H566 0.929 . S
C564 C563 1.363 . S
C564 C570 1.428 . S
H565 C561 0.930 . S
H566 C563 0.929 . S
S567 N568 1.613 1_455 S
S567 N569 1.610 1_455 S
N568 S567 1.613 1_655 S
N568 C571 1.350 . S
N569 S567 1.610 1_655 S
N569 C570 1.351 . S
C570 C564 1.428 . S
C570 N569 1.351 . S
C570 C571 1.434 . S
C571 C562 1.429 . S
C571 N568 1.350 . S
C571 C570 1.434 . S
C572 C573 1.369 . S
C572 C574 1.419 . S
C572 H576 0.930 . S
C573 C572 1.369 . S
C573 C582 1.429 . S
C574 C572 1.419 . S
C574 C575 1.363 1_554 S
C574 H577 0.929 . S
C575 C574 1.363 1_556 S
C575 C581 1.428 1_556 S
H576 C572 0.930 . S
H577 C574 0.929 . S
S578 N579 1.613 . S
S578 N580 1.610 1_554 S
N579 S578 1.613 . S
N579 C582 1.350 . S
N580 S578 1.610 1_556 S
N580 C581 1.351 1_556 S
C581 C575 1.428 1_554 S
C581 N580 1.351 1_554 S
C581 C582 1.434 . S
C582 C573 1.429 . S
C582 N579 1.350 . S
C582 C581 1.434 . S
C583 C584 1.369 . S
C583 C585 1.419 . S
C583 H587 0.930 . S
C584 C583 1.369 . S
C584 C593 1.429 . S
C585 C583 1.419 . S
C585 C586 1.363 . S
C585 H588 0.929 . S
C586 C585 1.363 . S
C586 C592 1.428 . S
H587 C583 0.930 . S
H588 C585 0.929 . S
S589 N590 1.613 . S
S589 N591 1.610 . S
N590 S589 1.613 . S
N590 C593 1.350 . S
N591 S589 1.610 . S
N591 C592 1.351 . S
C592 C586 1.428 . S
C592 N591 1.351 . S
C592 C593 1.434 . S
C593 C584 1.429 . S
C593 N590 1.350 . S
C593 C592 1.434 . S
C594 C595 1.369 . S
C594 C596 1.419 . S
C594 H598 0.930 . S
C595 C594 1.369 . S
C595 C604 1.429 . S
C596 C594 1.419 . S
C596 C597 1.363 1_556 S
C596 H599 0.929 . S
C597 C596 1.363 1_554 S
C597 C603 1.428 1_554 S
H598 C594 0.930 . S
H599 C596 0.929 . S
S600 N601 1.613 . S
S600 N602 1.610 1_556 S
N601 S600 1.613 . S
N601 C604 1.350 . S
N602 S600 1.610 1_554 S
N602 C603 1.351 1_554 S
C603 C597 1.428 1_556 S
C603 N602 1.351 1_556 S
C603 C604 1.434 . S
C604 C595 1.429 . S
C604 N601 1.350 . S
C604 C603 1.434 . S
C605 C606 1.369 . S
C605 C607 1.419 . S
C605 H609 0.930 . S
C606 C605 1.369 . S
C606 C615 1.429 . S
C607 C605 1.419 . S
C607 C608 1.363 . S
C607 H610 0.929 . S
C608 C607 1.363 . S
C608 C614 1.428 . S
H609 C605 0.930 . S
H610 C607 0.929 . S
S611 N612 1.613 1_545 S
S611 N613 1.610 1_545 S
N612 S611 1.613 1_565 S
N612 C615 1.350 . S
N613 S611 1.610 1_565 S
N613 C614 1.351 . S
C614 C608 1.428 . S
C614 N613 1.351 . S
C614 C615 1.434 . S
C615 C606 1.429 . S
C615 N612 1.350 . S
C615 C614 1.434 . S
C616 C617 1.369 . S
C616 C618 1.419 . S
C616 H620 0.930 . S
C617 C616 1.369 . S
C617 C626 1.429 . S
C618 C616 1.419 . S
C618 C619 1.363 . S
C618 H621 0.929 . S
C619 C618 1.363 . S
C619 C625 1.428 . S
H620 C616 0.930 . S
H621 C618 0.929 . S
S622 N623 1.613 . S
S622 N624 1.610 . S
N623 S622 1.613 . S
N623 C626 1.350 . S
N624 S622 1.610 . S
N624 C625 1.351 . S
C625 C619 1.428 . S
C625 N624 1.351 . S
C625 C626 1.434 . S
C626 C617 1.429 . S
C626 N623 1.350 . S
C626 C625 1.434 . S
C627 C628 1.369 . S
C627 C629 1.419 . S
C627 H631 0.930 . S
C628 C627 1.369 . S
C628 C637 1.429 . S
C629 C627 1.419 . S
C629 C630 1.363 . S
C629 H632 0.929 . S
C630 C629 1.363 . S
C630 C636 1.428 . S
H631 C627 0.930 . S
H632 C629 0.929 . S
S633 N634 1.613 . S
S633 N635 1.610 . S
N634 S633 1.613 . S
N634 C637 1.350 . S
N635 S633 1.610 . S
N635 C636 1.351 . S
C636 C630 1.428 . S
C636 N635 1.351 . S
C636 C637 1.434 . S
C637 C628 1.429 . S
C637 N634 1.350 . S
C637 C636 1.434 . S
C638 C639 1.369 . S
C638 C640 1.419 . S
C638 H642 0.930 . S
C639 C638 1.369 . S
C639 C648 1.429 . S
C640 C638 1.419 . S
C640 C641 1.363 . S
C640 H643 0.929 . S
C641 C640 1.363 . S
C641 C647 1.428 . S
H642 C638 0.930 . S
H643 C640 0.929 . S
S644 N645 1.613 . S
S644 N646 1.610 . S
N645 S644 1.613 . S
N645 C648 1.350 . S
N646 S644 1.610 . S
N646 C647 1.351 . S
C647 C641 1.428 . S
C647 N646 1.351 . S
C647 C648 1.434 . S
C648 C639 1.429 . S
C648 N645 1.350 . S
C648 C647 1.434 . S
C649 C650 1.369 . S
C649 C651 1.419 . S
C649 H653 0.930 . S
C650 C649 1.369 . S
C650 C659 1.429 . S
C651 C649 1.419 . S
C651 C652 1.363 . S
C651 H654 0.929 . S
C652 C651 1.363 . S
C652 C658 1.428 . S
H653 C649 0.930 . S
H654 C651 0.929 . S
S655 N656 1.613 . S
S655 N657 1.610 . S
N656 S655 1.613 . S
N656 C659 1.350 . S
N657 S655 1.610 . S
N657 C658 1.351 . S
C658 C652 1.428 . S
C658 N657 1.351 . S
C658 C659 1.434 . S
C659 C650 1.429 . S
C659 N656 1.350 . S
C659 C658 1.434 . S
C660 C661 1.369 . S
C660 C662 1.419 . S
C660 H664 0.930 . S
C661 C660 1.369 . S
C661 C670 1.429 . S
C662 C660 1.419 . S
C662 C663 1.363 . S
C662 H665 0.929 . S
C663 C662 1.363 . S
C663 C669 1.428 . S
H664 C660 0.930 . S
H665 C662 0.929 . S
S666 N667 1.613 . S
S666 N668 1.610 . S
N667 S666 1.613 . S
N667 C670 1.350 . S
N668 S666 1.610 . S
N668 C669 1.351 . S
C669 C663 1.428 . S
C669 N668 1.351 . S
C669 C670 1.434 . S
C670 C661 1.429 . S
C670 N667 1.350 . S
C670 C669 1.434 . S
C671 C672 1.369 . S
C671 C673 1.419 . S
C671 H675 0.930 . S
C672 C671 1.369 . S
C672 C681 1.429 . S
C673 C671 1.419 . S
C673 C674 1.363 . S
C673 H676 0.929 . S
C674 C673 1.363 . S
C674 C680 1.428 . S
H675 C671 0.930 . S
H676 C673 0.929 . S
S677 N678 1.613 . S
S677 N679 1.610 . S
N678 S677 1.613 . S
N678 C681 1.350 . S
N679 S677 1.610 . S
N679 C680 1.351 . S
C680 C674 1.428 . S
C680 N679 1.351 . S
C680 C681 1.434 . S
C681 C672 1.429 . S
C681 N678 1.350 . S
C681 C680 1.434 . S
C682 C683 1.369 . S
C682 C684 1.419 . S
C682 H686 0.930 . S
C683 C682 1.369 . S
C683 C692 1.429 . S
C684 C682 1.419 . S
C684 C685 1.363 . S
C684 H687 0.929 . S
C685 C684 1.363 . S
C685 C691 1.428 . S
H686 C682 0.930 . S
H687 C684 0.929 . S
S688 N689 1.613 . S
S688 N690 1.610 . S
N689 S688 1.613 . S
N689 C692 1.350 . S
N690 S688 1.610 . S
N690 C691 1.351 . S
C691 C685 1.428 . S
C691 N690 1.351 . S
C691 C692 1.434 . S
C692 C683 1.429 . S
C692 N689 1.350 . S
C692 C691 1.434 . S
C693 C694 1.369 . S
C693 C695 1.419 . S
C693 H697 0.930 . S
C694 C693 1.369 . S
C694 C703 1.429 . S
C695 C693 1.419 . S
C695 C696 1.363 . S
C695 H698 0.929 . S
C696 C695 1.363 . S
C696 C702 1.428 . S
H697 C693 0.930 . S
H698 C695 0.929 . S
S699 N700 1.613 . S
S699 N701 1.610 . S
N700 S699 1.613 . S
N700 C703 1.350 . S
N701 S699 1.610 . S
N701 C702 1.351 . S
C702 C696 1.428 . S
C702 N701 1.351 . S
C702 C703 1.434 . S
C703 C694 1.429 . S
C703 N700 1.350 . S
C703 C702 1.434 . S
C441 N83 1.626 . S
C443 C160 1.630 1_565 S
C454 C244 1.630 . S
C452 N96 1.628 . S
C465 C243 1.638 . S
C463 N57 1.622 . S
C474 N70 1.619 . S
C476 C159 1.638 1_565 S
C487 C340 1.629 1_545 S
C485 N31 1.627 . S
C498 C424 1.631 . S
C496 N44 1.630 . S
C507 N5 1.624 . S
C509 C423 1.639 . S
C518 N18 1.622 . S
C520 C339 1.639 1_545 S
C531 C162 1.446 . S
C529 N14 1.625 . S
C542 C246 1.452 . S
C540 N1 1.625 . S
C553 C258 1.346 . S
C551 N40 1.613 . S
C564 C174 1.352 . S
C562 N27 1.614 . S
C575 C342 1.441 . S
C573 N66 1.617 . S
C584 N53 1.616 . S
C586 C426 1.448 . S
C597 C414 1.346 . S
C595 N92 1.608 . S
C606 N79 1.608 . S
C608 C330 1.352 . S
C619 C171 1.526 . S
C617 N2 1.523 . S
C630 C255 1.525 . S
C628 N15 1.523 . S
C639 N28 1.520 . S
C641 C256 1.494 . S
C652 C172 1.496 . S
C650 N41 1.520 . S
C663 C327 1.526 . S
C661 N54 1.520 . S
C672 N67 1.519 . S
C674 C411 1.525 . S
C683 N80 1.515 . S
C685 C412 1.496 . S
C694 N93 1.517 . S
C696 C328 1.496 . S
