# Generated by pormake.
# Topology pyr, (3,6)-cn, num edge types: 1
# Building blocks:
#     Node 0, Type 0, BuildingBlock: ESEHIV_clean_linker_0, # of connection points: 3
#     Node 1, Type 0, BuildingBlock: ESEHIV_clean_linker_0, # of connection points: 3
#     Node 2, Type 0, BuildingBlock: ESEHIV_clean_linker_0, # of connection points: 3
#     Node 3, Type 0, BuildingBlock: ESEHIV_clean_linker_0, # of connection points: 3
#     Node 4, Type 0, BuildingBlock: ESEHIV_clean_linker_0, # of connection points: 3
#     Node 5, Type 0, BuildingBlock: ESEHIV_clean_linker_0, # of connection points: 3
#     Node 6, Type 0, BuildingBlock: ESEHIV_clean_linker_0, # of connection points: 3
#     Node 7, Type 0, BuildingBlock: ESEHIV_clean_linker_0, # of connection points: 3
#     Node 8, Type 1, BuildingBlock: MIDCAF_clean_sbu_0, # of connection points: 6
#     Node 9, Type 1, BuildingBlock: MIDCAF_clean_sbu_0, # of connection points: 6
#     Node 10, Type 1, BuildingBlock: MIDCAF_clean_sbu_0, # of connection points: 6
#     Node 11, Type 1, BuildingBlock: MIDCAF_clean_sbu_0, # of connection points: 6
#     Edge 12, Type (0, 1), BuildingBlock: TEMPAE_clean_linker_10, # of connection points: 2
#     Edge 13, Type (0, 1), BuildingBlock: TEMPAE_clean_linker_10, # of connection points: 2
#     Edge 14, Type (0, 1), BuildingBlock: TEMPAE_clean_linker_10, # of connection points: 2
#     Edge 15, Type (0, 1), BuildingBlock: TEMPAE_clean_linker_10, # of connection points: 2
#     Edge 16, Type (0, 1), BuildingBlock: TEMPAE_clean_linker_10, # of connection points: 2
#     Edge 17, Type (0, 1), BuildingBlock: TEMPAE_clean_linker_10, # of connection points: 2
#     Edge 18, Type (0, 1), BuildingBlock: TEMPAE_clean_linker_10, # of connection points: 2
#     Edge 19, Type (0, 1), BuildingBlock: TEMPAE_clean_linker_10, # of connection points: 2
#     Edge 20, Type (0, 1), BuildingBlock: TEMPAE_clean_linker_10, # of connection points: 2
#     Edge 21, Type (0, 1), BuildingBlock: TEMPAE_clean_linker_10, # of connection points: 2
#     Edge 22, Type (0, 1), BuildingBlock: TEMPAE_clean_linker_10, # of connection points: 2
#     Edge 23, Type (0, 1), BuildingBlock: TEMPAE_clean_linker_10, # of connection points: 2
#     Edge 24, Type (0, 1), BuildingBlock: TEMPAE_clean_linker_10, # of connection points: 2
#     Edge 25, Type (0, 1), BuildingBlock: TEMPAE_clean_linker_10, # of connection points: 2
#     Edge 26, Type (0, 1), BuildingBlock: TEMPAE_clean_linker_10, # of connection points: 2
#     Edge 27, Type (0, 1), BuildingBlock: TEMPAE_clean_linker_10, # of connection points: 2
#     Edge 28, Type (0, 1), BuildingBlock: TEMPAE_clean_linker_10, # of connection points: 2
#     Edge 29, Type (0, 1), BuildingBlock: TEMPAE_clean_linker_10, # of connection points: 2
#     Edge 30, Type (0, 1), BuildingBlock: TEMPAE_clean_linker_10, # of connection points: 2
#     Edge 31, Type (0, 1), BuildingBlock: TEMPAE_clean_linker_10, # of connection points: 2
#     Edge 32, Type (0, 1), BuildingBlock: TEMPAE_clean_linker_10, # of connection points: 2
#     Edge 33, Type (0, 1), BuildingBlock: TEMPAE_clean_linker_10, # of connection points: 2
#     Edge 34, Type (0, 1), BuildingBlock: TEMPAE_clean_linker_10, # of connection points: 2
#     Edge 35, Type (0, 1), BuildingBlock: TEMPAE_clean_linker_10, # of connection points: 2
# Relax obj value: 0.019
# Max RMSD: 0.062
# Mean RMSD: 0.024
data_MOF--net-pyr--node1-MIDCAF_clean_sbu_0--node2-ESEHIV_clean_linker_0--edge1-TEMPAE_clean_linker_10
_symmetry_space_group_name_H-M    P1
_symmetry_Int_Tables_number       1
_symmetry_cell_setting            triclinic
loop_
_symmetry_equiv_pos_as_xyz
'x, y, z'
_cell_length_a     34.013964
_cell_length_b     34.029675
_cell_length_c     34.045504
_cell_angle_alpha  90.046711
_cell_angle_beta   90.150285
_cell_angle_gamma 90.265984
loop_
_atom_site_label
_atom_site_type_symbol
_atom_site_fract_x
_atom_site_fract_y
_atom_site_fract_z
_atom_type_partial_charge
H0 H 0.1837 0.28459 0.27779 0.0
H1 H 0.2737 0.19678 0.27587 0.0
H2 H 0.27502 0.2901 0.19057 0.0
C3 C 0.21093 0.2736 0.26558 0.0
C4 C 0.22776 0.29202 0.23268 0.0
C5 C 0.22773 0.2396 0.28136 0.0
C6 C 0.26201 0.22419 0.26471 0.0
C7 C 0.27951 0.24234 0.23206 0.0
C8 C 0.26242 0.27659 0.2165 0.0
H9 H 0.25862 0.85545 0.77394 0.0
H10 H 0.34632 0.76397 0.7753 0.0
H11 H 0.26187 0.76959 0.68168 0.0
C12 C 0.27104 0.82869 0.76211 0.0
C13 C 0.25548 0.8135 0.72697 0.0
C14 C 0.30421 0.81142 0.78006 0.0
C15 C 0.32088 0.77795 0.7623 0.0
C16 C 0.30564 0.76271 0.72702 0.0
C17 C 0.27287 0.78047 0.7096 0.0
H18 H 0.77391 0.26528 0.85523 0.0
H19 H 0.77351 0.35246 0.76373 0.0
H20 H 0.68514 0.26163 0.76522 0.0
C21 C 0.76196 0.27661 0.82795 0.0
C22 C 0.72868 0.25864 0.81133 0.0
C23 C 0.77885 0.31006 0.81054 0.0
C24 C 0.76191 0.32551 0.77623 0.0
C25 C 0.72824 0.30802 0.75963 0.0
C26 C 0.71213 0.27415 0.77689 0.0
H27 H 0.75269 0.77607 0.34072 0.0
H28 H 0.84414 0.77528 0.25299 0.0
H29 H 0.75886 0.68193 0.25733 0.0
C30 C 0.76666 0.76316 0.31526 0.0
C31 C 0.75192 0.72751 0.30055 0.0
C32 C 0.80005 0.78107 0.29847 0.0
C33 C 0.81742 0.76317 0.26541 0.0
C34 C 0.80257 0.72765 0.25017 0.0
C35 C 0.76972 0.71002 0.26795 0.0
H36 H 0.87227 0.96146 0.84647 0.0
H37 H 0.95146 0.86735 0.87438 0.0
H38 H 0.85391 0.89222 0.95033 0.0
C39 C 0.88155 0.93806 0.86592 0.0
C40 C 0.85873 0.92902 0.89898 0.0
C41 C 0.91538 0.91615 0.857 0.0
C42 C 0.9266 0.88552 0.88219 0.0
C43 C 0.90456 0.87656 0.91594 0.0
C44 C 0.87094 0.89877 0.92427 0.0
H45 H 0.56011 0.1694 0.40224 0.0
H46 H 0.63118 0.06793 0.37974 0.0
H47 H 0.66548 0.151 0.4691 0.0
C48 C 0.58572 0.15174 0.40881 0.0
C49 C 0.61168 0.16381 0.43869 0.0
C50 C 0.59288 0.11767 0.38676 0.0
C51 C 0.62553 0.09429 0.39653 0.0
C52 C 0.65188 0.10552 0.42654 0.0
C53 C 0.64457 0.14057 0.44737 0.0
H54 H 0.38036 0.63949 0.06778 0.0
H55 H 0.39992 0.56454 0.16722 0.0
H56 H 0.47022 0.66857 0.1522 0.0
C57 C 0.3969 0.63237 0.09399 0.0
C58 C 0.42749 0.65751 0.10626 0.0
C59 C 0.38598 0.59937 0.11634 0.0
C60 C 0.40758 0.59043 0.15032 0.0
C61 C 0.43822 0.61512 0.16332 0.0
C62 C 0.44802 0.64849 0.14109 0.0
H63 H 0.07227 0.3651 0.63979 0.0
H64 H 0.17399 0.38368 0.56728 0.0
H65 H 0.15119 0.46103 0.66433 0.0
C66 C 0.09847 0.38184 0.63269 0.0
C67 C 0.10843 0.41478 0.65554 0.0
C68 C 0.12228 0.36999 0.60113 0.0
C69 C 0.15552 0.39264 0.59153 0.0
C70 C 0.16587 0.42595 0.61391 0.0
C71 C 0.14217 0.43669 0.6458 0.0
Zn72 Zn 0.9704 0.064 0.55203 0.0
Zn73 Zn 0.06265 0.97386 0.46915 0.0
Zn74 Zn 0.01388 0.01968 0.51011 0.0
C75 C 0.08594 0.05163 0.45623 0.0
C76 C 0.98534 0.96128 0.44056 0.0
O77 O 0.01833 0.00051 0.57257 0.0
O78 O 0.98474 0.04568 0.60467 0.0
C79 C 0.02053 0.11518 0.51593 0.0
O80 O 0.05638 0.05773 0.47904 0.0
O81 O 0.09602 0.017 0.44763 0.0
O82 O 0.02057 0.95059 0.43604 0.0
O83 O 0.97675 0.98753 0.46653 0.0
O84 O 0.98979 0.116 0.53648 0.0
O85 O 0.03444 0.08199 0.50416 0.0
O86 O 0.95213 0.01361 0.48799 0.0
O87 O 0.91886 0.04877 0.53123 0.0
C88 C 0.91932 0.0271 0.50123 0.0
O89 O 0.04513 0.97841 0.55063 0.0
O90 O 0.08312 0.94161 0.51295 0.0
C91 C 0.00562 0.01518 0.60509 0.0
C92 C 0.07053 0.95061 0.54658 0.0
Zn93 Zn 0.46931 0.0697 0.98492 0.0
Zn94 Zn 0.56131 0.97875 0.06501 0.0
Zn95 Zn 0.51457 0.02077 0.02492 0.0
C96 C 0.60756 0.00713 0.00684 0.0
C97 C 0.50233 0.92864 0.03908 0.0
O98 O 0.48552 0.0614 0.06688 0.0
O99 O 0.44746 0.09926 0.03008 0.0
C100 C 0.54506 0.0821 0.95742 0.0
O101 O 0.57513 0.02532 0.99955 0.0
O102 O 0.60927 0.98237 0.03426 0.0
O103 O 0.53078 0.92992 0.06283 0.0
O104 O 0.49211 0.9595 0.01969 0.0
O105 O 0.51063 0.09507 0.95297 0.0
O106 O 0.55175 0.05416 0.98219 0.0
O107 O 0.47004 0.9834 0.99369 0.0
O108 O 0.43764 0.02792 0.95923 0.0
C109 C 0.44341 0.99238 0.96815 0.0
O110 O 0.51371 0.04065 0.08798 0.0
O111 O 0.56249 0.00718 0.11464 0.0
C112 C 0.46029 0.08937 0.06342 0.0
C113 C 0.53625 0.03299 0.11754 0.0
Zn114 Zn 0.5618 0.56467 0.56549 0.0
Zn115 Zn 0.47354 0.47406 0.47511 0.0
Zn116 Zn 0.51594 0.51819 0.51899 0.0
C117 C 0.5192 0.42264 0.51657 0.0
C118 C 0.51389 0.52067 0.42355 0.0
O119 O 0.47714 0.55153 0.55928 0.0
O120 O 0.51759 0.58429 0.5987 0.0
C121 C 0.58559 0.48631 0.57623 0.0
O122 O 0.53431 0.45578 0.52739 0.0
O123 O 0.48895 0.42208 0.49508 0.0
O124 O 0.49348 0.48964 0.42317 0.0
O125 O 0.52407 0.53638 0.45656 0.0
O126 O 0.59538 0.52097 0.58549 0.0
O127 O 0.55656 0.48008 0.55255 0.0
O128 O 0.5494 0.55879 0.48081 0.0
O129 O 0.58187 0.59812 0.52154 0.0
C130 C 0.57296 0.58797 0.48691 0.0
O131 O 0.45351 0.5262 0.53646 0.0
O132 O 0.4214 0.49377 0.49011 0.0
C133 C 0.48301 0.57509 0.58844 0.0
C134 C 0.42092 0.51516 0.52038 0.0
Zn135 Zn 0.06655 0.57008 0.96868 0.0
Zn136 Zn 0.97997 0.4825 0.05482 0.0
Zn137 Zn 0.0256 0.52917 0.00891 0.0
C138 C 0.05863 0.47521 0.07999 0.0
C139 C 0.9709 0.45764 0.9764 0.0
O140 O 0.0017 0.58977 0.01061 0.0
O141 O 0.02799 0.61099 0.95541 0.0
C142 C 0.11371 0.5547 0.02916 0.0
O143 O 0.06453 0.49906 0.05122 0.0
O144 O 0.02427 0.46407 0.08873 0.0
O145 O 0.96087 0.44834 0.01087 0.0
O146 O 0.9945 0.48675 0.97033 0.0
O147 O 0.1085 0.5835 0.0065 0.0
O148 O 0.08724 0.52755 0.03138 0.0
O149 O 0.02365 0.50583 0.94796 0.0
O150 O 0.07945 0.53161 0.92735 0.0
C151 C 0.05116 0.5081 0.92211 0.0
O152 O 0.98318 0.5674 0.04001 0.0
O153 O 0.94573 0.52614 0.0739 0.0
C154 C 0.00398 0.61568 0.98314 0.0
C155 C 0.95442 0.5608 0.06373 0.0
C156 C 0.18472 0.18358 0.29879 0.0
C157 C 0.20608 0.2166 0.31093 0.0
C158 C 0.1643 0.16043 0.32597 0.0
C159 C 0.16577 0.17035 0.36638 0.0
C160 C 0.18682 0.20425 0.37872 0.0
C161 C 0.20674 0.22717 0.35066 0.0
C162 C 0.1417 0.12492 0.31148 0.0
C163 C 0.18946 0.21557 0.42151 0.0
C164 C 0.08734 0.11856 0.42619 0.0
C165 C 0.10741 0.0848 0.43829 0.0
C166 C 0.10675 0.14834 0.4052 0.0
C167 C 0.14689 0.14366 0.39537 0.0
C168 C 0.16769 0.1105 0.40924 0.0
C169 C 0.14763 0.08136 0.43037 0.0
C170 C 0.08376 0.1837 0.39174 0.0
C171 C 0.21068 0.10479 0.39999 0.0
H172 H 0.18416 0.17584 0.26787 0.0
H173 H 0.22337 0.25287 0.35979 0.0
H174 H 0.15469 0.09779 0.32396 0.0
H175 H 0.11074 0.12636 0.32153 0.0
H176 H 0.14189 0.12249 0.27894 0.0
H177 H 0.19886 0.24665 0.42535 0.0
H178 H 0.16088 0.21115 0.43647 0.0
H179 H 0.21128 0.19648 0.43635 0.0
H180 H 0.05608 0.12097 0.43171 0.0
H181 H 0.16322 0.05531 0.4399 0.0
H182 H 0.07915 0.18202 0.3595 0.0
H183 H 0.10039 0.21115 0.39793 0.0
H184 H 0.05461 0.18553 0.40627 0.0
H185 H 0.21422 0.09921 0.36807 0.0
H186 H 0.22353 0.0797 0.41638 0.0
H187 H 0.22763 0.13179 0.4072 0.0
C188 C 0.36458 0.83078 0.81898 0.0
C189 C 0.3234 0.83057 0.81492 0.0
C190 C 0.3833 0.85234 0.84893 0.0
C191 C 0.36056 0.87535 0.87493 0.0
C192 C 0.31902 0.87379 0.8724 0.0
C193 C 0.30098 0.85109 0.8428 0.0
C194 C 0.42765 0.85246 0.85113 0.0
C195 C 0.2936 0.89814 0.89923 0.0
C196 C 0.41182 0.92529 0.96189 0.0
C197 C 0.42136 0.96195 0.94578 0.0
C198 C 0.39153 0.89672 0.93954 0.0
C199 C 0.38032 0.90532 0.90033 0.0
C200 C 0.38901 0.94275 0.88442 0.0
C201 C 0.40939 0.97043 0.90724 0.0
C202 C 0.38246 0.85734 0.95768 0.0
C203 C 0.3772 0.95354 0.84299 0.0
H204 H 0.3826 0.81568 0.79764 0.0
H205 H 0.26919 0.85044 0.84087 0.0
H206 H 0.43909 0.88117 0.84064 0.0
H207 H 0.43763 0.84869 0.88194 0.0
H208 H 0.44074 0.82884 0.83287 0.0
H209 H 0.26211 0.88954 0.89736 0.0
H210 H 0.30348 0.89543 0.93017 0.0
H211 H 0.29629 0.92958 0.89097 0.0
H212 H 0.41951 0.91928 0.99209 0.0
H213 H 0.41652 0.99877 0.89451 0.0
H214 H 0.39918 0.83415 0.94218 0.0
H215 H 0.35081 0.85009 0.9543 0.0
H216 H 0.39011 0.8565 0.9894 0.0
H217 H 0.39241 0.93413 0.82175 0.0
H218 H 0.38452 0.98454 0.83571 0.0
H219 H 0.34512 0.94909 0.83888 0.0
C220 C 0.68674 0.36374 0.73842 0.0
C221 C 0.70625 0.32902 0.72868 0.0
C222 C 0.66593 0.38497 0.70999 0.0
C223 C 0.66522 0.37151 0.67059 0.0
C224 C 0.68444 0.33596 0.66069 0.0
C225 C 0.7046 0.3149 0.69005 0.0
C226 C 0.64521 0.42224 0.72207 0.0
C227 C 0.68499 0.32094 0.61898 0.0
C228 C 0.58626 0.42063 0.60905 0.0
C229 C 0.60681 0.45328 0.59457 0.0
C230 C 0.60551 0.39192 0.63159 0.0
C231 C 0.64614 0.39626 0.63996 0.0
C232 C 0.66742 0.42787 0.62312 0.0
C233 C 0.6474 0.45623 0.60099 0.0
C234 C 0.58186 0.35838 0.64848 0.0
C235 C 0.71095 0.433 0.63036 0.0
H236 H 0.68781 0.37427 0.76849 0.0
H237 H 0.71976 0.28794 0.68271 0.0
H238 H 0.65892 0.44784 0.70718 0.0
H239 H 0.61391 0.42104 0.71284 0.0
H240 H 0.64648 0.42725 0.7543 0.0
H241 H 0.69334 0.28944 0.61755 0.0
H242 H 0.65596 0.32469 0.60463 0.0
H243 H 0.70672 0.33818 0.60182 0.0
H244 H 0.55478 0.41853 0.60442 0.0
H245 H 0.66335 0.48137 0.58953 0.0
H246 H 0.57849 0.36276 0.6806 0.0
H247 H 0.5973 0.33008 0.64406 0.0
H248 H 0.55214 0.35621 0.635 0.0
H249 H 0.71602 0.44148 0.66144 0.0
H250 H 0.72403 0.45599 0.61121 0.0
H251 H 0.72656 0.40491 0.62521 0.0
C252 C 0.83521 0.66772 0.22373 0.0
C253 C 0.82391 0.70688 0.21841 0.0
C254 C 0.85679 0.64781 0.19493 0.0
C255 C 0.86673 0.66727 0.1595 0.0
C256 C 0.85483 0.70671 0.15367 0.0
C257 C 0.83407 0.72625 0.18351 0.0
C258 C 0.86937 0.606 0.2027 0.0
C259 C 0.86455 0.72882 0.11651 0.0
C260 C 0.95233 0.62017 0.10615 0.0
C261 C 0.93266 0.59342 0.08173 0.0
C262 C 0.93124 0.64633 0.13001 0.0
C263 C 0.88959 0.64575 0.12906 0.0
C264 C 0.86982 0.62073 0.10216 0.0
C265 C 0.89161 0.59431 0.07929 0.0
C266 C 0.95342 0.67268 0.15808 0.0
C267 C 0.82556 0.62047 0.09904 0.0
H268 H 0.82793 0.6529 0.25095 0.0
H269 H 0.82545 0.75661 0.17942 0.0
H270 H 0.85655 0.58613 0.18017 0.0
H271 H 0.90183 0.60371 0.20059 0.0
H272 H 0.86012 0.59547 0.23216 0.0
H273 H 0.84273 0.75231 0.11068 0.0
H274 H 0.89372 0.74309 0.12006 0.0
H275 H 0.86579 0.70914 0.09054 0.0
H276 H 0.98412 0.61904 0.10826 0.0
H277 H 0.8765 0.57348 0.06037 0.0
H278 H 0.9481 0.66279 0.18868 0.0
H279 H 0.94272 0.70332 0.1557 0.0
H280 H 0.9856 0.67246 0.15253 0.0
H281 H 0.81276 0.60778 0.12619 0.0
H282 H 0.815 0.60296 0.07352 0.0
H283 H 0.81444 0.65096 0.09622 0.0
C284 C 0.31091 0.21731 0.17075 0.0
C285 C 0.31255 0.22271 0.21152 0.0
C286 C 0.33971 0.19555 0.15109 0.0
C287 C 0.37122 0.17895 0.17265 0.0
C288 C 0.37382 0.18544 0.21368 0.0
C289 C 0.34421 0.20692 0.23269 0.0
C290 C 0.33567 0.1893 0.10732 0.0
C291 C 0.40677 0.1686 0.23804 0.0
C292 C 0.41439 0.09137 0.11968 0.0
C293 C 0.44436 0.10935 0.09807 0.0
C294 C 0.39213 0.1131 0.14666 0.0
C295 C 0.40012 0.15368 0.15182 0.0
C296 C 0.4326 0.17101 0.13237 0.0
C297 C 0.45406 0.1487 0.10521 0.0
C298 C 0.35832 0.09333 0.16749 0.0
C299 C 0.44301 0.21374 0.13835 0.0
H300 H 0.28618 0.22884 0.15432 0.0
H301 H 0.34566 0.21107 0.26424 0.0
H302 H 0.36256 0.19974 0.0921 0.0
H303 H 0.33242 0.15746 0.10094 0.0
H304 H 0.30992 0.20492 0.09478 0.0
H305 H 0.41292 0.18722 0.26419 0.0
H306 H 0.39779 0.13912 0.24871 0.0
H307 H 0.43428 0.16542 0.22093 0.0
H308 H 0.40687 0.06092 0.11377 0.0
H309 H 0.47726 0.16248 0.08823 0.0
H310 H 0.33012 0.10483 0.15585 0.0
H311 H 0.35936 0.10007 0.19936 0.0
H312 H 0.35859 0.06092 0.16356 0.0
H313 H 0.42007 0.23243 0.12472 0.0
H314 H 0.47186 0.22141 0.12512 0.0
H315 H 0.44391 0.22082 0.17018 0.0
C316 C 0.23323 0.85421 0.67069 0.0
C317 C 0.22417 0.83497 0.70582 0.0
C318 C 0.20427 0.87444 0.64954 0.0
C319 C 0.165 0.87471 0.66343 0.0
C320 C 0.1558 0.85575 0.69934 0.0
C321 C 0.18569 0.83632 0.72036 0.0
C322 C 0.21562 0.89495 0.61188 0.0
C323 C 0.11425 0.85463 0.71477 0.0
C324 C 0.10155 0.95151 0.61324 0.0
C325 C 0.08748 0.9302 0.58088 0.0
C326 C 0.12462 0.93321 0.64225 0.0
C327 C 0.13369 0.89273 0.63861 0.0
C328 C 0.11685 0.8706 0.60756 0.0
C329 C 0.09436 0.88971 0.57882 0.0
C330 C 0.14161 0.95781 0.67508 0.0
C331 C 0.12473 0.8272 0.60317 0.0
H332 H 0.26316 0.85342 0.6598 0.0
H333 H 0.17884 0.82137 0.74762 0.0
H334 H 0.20074 0.88054 0.58662 0.0
H335 H 0.20583 0.92601 0.6126 0.0
H336 H 0.24785 0.89443 0.6067 0.0
H337 H 0.11315 0.84542 0.74604 0.0
H338 H 0.1 0.88373 0.71183 0.0
H339 H 0.0967 0.83341 0.69715 0.0
H340 H 0.09651 0.98292 0.61466 0.0
H341 H 0.08328 0.8732 0.55384 0.0
H342 H 0.17348 0.96249 0.66981 0.0
H343 H 0.13857 0.9425 0.70366 0.0
H344 H 0.12717 0.98696 0.67718 0.0
H345 H 0.15571 0.82276 0.59413 0.0
H346 H 0.10526 0.81329 0.58084 0.0
H347 H 0.12053 0.81192 0.63164 0.0
C348 C 0.84562 0.34189 0.8104 0.0
C349 C 0.81134 0.33127 0.83064 0.0
C350 C 0.87634 0.36213 0.82955 0.0
C351 C 0.87197 0.37304 0.86949 0.0
C352 C 0.8371 0.36274 0.88979 0.0
C353 C 0.80743 0.34169 0.87023 0.0
C354 C 0.91287 0.37233 0.80658 0.0
C355 C 0.83087 0.3743 0.93218 0.0
C356 C 0.95447 0.39581 0.94098 0.0
C357 C 0.95225 0.43678 0.94337 0.0
C358 C 0.93081 0.3748 0.91434 0.0
C359 C 0.90337 0.39525 0.89069 0.0
C360 C 0.90267 0.43686 0.89157 0.0
C361 C 0.92729 0.45718 0.91789 0.0
C362 C 0.93359 0.33058 0.91304 0.0
C363 C 0.87402 0.45976 0.86673 0.0
H364 H 0.84859 0.33394 0.77971 0.0
H365 H 0.78066 0.33403 0.88572 0.0
H366 H 0.90936 0.40206 0.79376 0.0
H367 H 0.93956 0.37255 0.8254 0.0
H368 H 0.91746 0.3514 0.78197 0.0
H369 H 0.80165 0.36492 0.94335 0.0
H370 H 0.85392 0.36091 0.95092 0.0
H371 H 0.83346 0.40667 0.93538 0.0
H372 H 0.97379 0.38016 0.96087 0.0
H373 H 0.92536 0.4889 0.92021 0.0
H374 H 0.93524 0.32029 0.88214 0.0
H375 H 0.90678 0.31744 0.92622 0.0
H376 H 0.95965 0.31958 0.92933 0.0
H377 H 0.87532 0.44982 0.83573 0.0
H378 H 0.87994 0.49188 0.86776 0.0
H379 H 0.84366 0.45431 0.87736 0.0
C380 C 0.73348 0.68482 0.35638 0.0
C381 C 0.72191 0.70572 0.32301 0.0
C382 C 0.70584 0.66468 0.37931 0.0
C383 C 0.66552 0.66587 0.36879 0.0
C384 C 0.65378 0.68638 0.3345 0.0
C385 C 0.68227 0.70612 0.31187 0.0
C386 C 0.71974 0.64277 0.4153 0.0
C387 C 0.61114 0.68866 0.32243 0.0
C388 C 0.60418 0.58825 0.42051 0.0
C389 C 0.59158 0.60888 0.45376 0.0
C390 C 0.62592 0.60713 0.39093 0.0
C391 C 0.63599 0.64735 0.39527 0.0
C392 C 0.62165 0.66869 0.4279 0.0
C393 C 0.59981 0.64913 0.45687 0.0
C394 C 0.63986 0.58353 0.35616 0.0
C395 C 0.63107 0.71177 0.43326 0.0
H396 H 0.7643 0.68452 0.36464 0.0
H397 H 0.67354 0.72242 0.28595 0.0
H398 H 0.70694 0.65622 0.44205 0.0
H399 H 0.70953 0.61177 0.41409 0.0
H400 H 0.75227 0.64307 0.41823 0.0
H401 H 0.6078 0.69754 0.29121 0.0
H402 H 0.59602 0.66009 0.32688 0.0
H403 H 0.59606 0.7107 0.34102 0.0
H404 H 0.59847 0.55697 0.41838 0.0
H405 H 0.58994 0.66516 0.48253 0.0
H406 H 0.67205 0.57889 0.35858 0.0
H407 H 0.63436 0.59968 0.3284 0.0
H408 H 0.62508 0.55439 0.35436 0.0
H409 H 0.66296 0.71547 0.43927 0.0
H410 H 0.6144 0.72501 0.45793 0.0
H411 H 0.6243 0.72823 0.40598 0.0
C412 C 0.16639 0.32013 0.20415 0.0
C413 C 0.20658 0.32426 0.2124 0.0
C414 C 0.14607 0.34878 0.18279 0.0
C415 C 0.1663 0.38274 0.16955 0.0
C416 C 0.20674 0.38758 0.17856 0.0
C417 C 0.22652 0.35801 0.1995 0.0
C418 C 0.10305 0.34222 0.17359 0.0
C419 C 0.2298 0.42305 0.16514 0.0
C420 C 0.11587 0.43054 0.08258 0.0
C421 C 0.0918 0.45787 0.10143 0.0
C422 C 0.14236 0.40749 0.10417 0.0
C423 C 0.14476 0.41217 0.14545 0.0
C424 C 0.12246 0.44183 0.16409 0.0
C425 C 0.09568 0.46395 0.14189 0.0
C426 C 0.16586 0.37644 0.08316 0.0
C427 C 0.12539 0.4487 0.20779 0.0
H428 H 0.151 0.29375 0.21341 0.0
H429 H 0.25763 0.3613 0.20577 0.0
H430 H 0.08537 0.36692 0.18524 0.0
H431 H 0.09857 0.3414 0.1413 0.0
H432 H 0.09161 0.31437 0.18628 0.0
H433 H 0.25389 0.43013 0.18611 0.0
H434 H 0.24346 0.41629 0.13639 0.0
H435 H 0.21102 0.44938 0.16161 0.0
H436 H 0.1124 0.4257 0.05127 0.0
H437 H 0.07681 0.48508 0.15632 0.0
H438 H 0.15458 0.34691 0.09131 0.0
H439 H 0.19718 0.37797 0.09224 0.0
H440 H 0.16412 0.37958 0.05072 0.0
H441 H 0.11259 0.42322 0.22365 0.0
H442 H 0.10965 0.47569 0.21703 0.0
H443 H 0.1567 0.45125 0.21678 0.0
C444 C 0.70887 0.1885 0.82234 0.0
C445 C 0.70747 0.22804 0.83358 0.0
C446 C 0.68717 0.15989 0.84294 0.0
C447 C 0.6629 0.17155 0.87463 0.0
C448 C 0.66233 0.21147 0.88647 0.0
C449 C 0.6849 0.23916 0.86595 0.0
C450 C 0.68936 0.11747 0.8302 0.0
C451 C 0.63661 0.22527 0.9198 0.0
C452 C 0.56832 0.11757 0.89795 0.0
C453 C 0.5771 0.1003 0.93429 0.0
C454 C 0.59663 0.13924 0.87732 0.0
C455 C 0.635 0.14326 0.89306 0.0
C456 C 0.64474 0.12398 0.92863 0.0
C457 C 0.61535 0.10356 0.94934 0.0
C458 C 0.58477 0.15967 0.83976 0.0
C459 C 0.68561 0.12644 0.94583 0.0
H460 H 0.72669 0.18009 0.79738 0.0
H461 H 0.68407 0.26987 0.87447 0.0
H462 H 0.69334 0.09801 0.85604 0.0
H463 H 0.66136 0.10879 0.81576 0.0
H464 H 0.7138 0.11235 0.80926 0.0
H465 H 0.64075 0.25703 0.92629 0.0
H466 H 0.60524 0.22007 0.91228 0.0
H467 H 0.64308 0.20828 0.94682 0.0
H468 H 0.53876 0.11519 0.88616 0.0
H469 H 0.62196 0.09155 0.97802 0.0
H470 H 0.6055 0.15231 0.81581 0.0
H471 H 0.58607 0.19199 0.8441 0.0
H472 H 0.55455 0.15157 0.83021 0.0
H473 H 0.70814 0.12304 0.92258 0.0
H474 H 0.69048 0.10362 0.96863 0.0
H475 H 0.69002 0.15573 0.95952 0.0
C476 C 0.8401 0.84372 0.29567 0.0
C477 C 0.81939 0.81566 0.31786 0.0
C478 C 0.86346 0.87265 0.31395 0.0
C479 C 0.86548 0.87423 0.35547 0.0
C480 C 0.8421 0.84826 0.37801 0.0
C481 C 0.81989 0.81898 0.35905 0.0
C482 C 0.8881 0.89965 0.28879 0.0
C483 C 0.84266 0.84957 0.42235 0.0
C484 C 0.96177 0.90223 0.4043 0.0
C485 C 0.95453 0.9406 0.41747 0.0
C486 C 0.93338 0.88097 0.38325 0.0
C487 C 0.89645 0.89826 0.37529 0.0
C488 C 0.88917 0.93735 0.38761 0.0
C489 C 0.91852 0.95819 0.4083 0.0
C490 C 0.94275 0.83961 0.37016 0.0
C491 C 0.85022 0.95681 0.37969 0.0
H492 H 0.8392 0.8423 0.26389 0.0
H493 H 0.80465 0.79746 0.37687 0.0
H494 H 0.88621 0.9304 0.2994 0.0
H495 H 0.91938 0.89072 0.29081 0.0
H496 H 0.87903 0.89869 0.25743 0.0
H497 H 0.81853 0.83177 0.43535 0.0
H498 H 0.87109 0.83794 0.43326 0.0
H499 H 0.84005 0.88028 0.43297 0.0
H500 H 0.98962 0.88839 0.41104 0.0
H501 H 0.91357 0.98835 0.41672 0.0
H502 H 0.93768 0.83651 0.3381 0.0
H503 H 0.92295 0.81844 0.38517 0.0
H504 H 0.97364 0.83135 0.37671 0.0
H505 H 0.84172 0.95345 0.3484 0.0
H506 H 0.85084 0.9886 0.38711 0.0
H507 H 0.82707 0.94229 0.39747 0.0
C508 C 0.31148 0.69328 0.7027 0.0
C509 C 0.327 0.73136 0.70592 0.0
C510 C 0.33248 0.66349 0.68319 0.0
C511 C 0.36937 0.67244 0.66598 0.0
C512 C 0.38443 0.71129 0.66834 0.0
C513 C 0.36326 0.74012 0.68866 0.0
C514 C 0.31581 0.62231 0.682 0.0
C515 C 0.42318 0.72239 0.64974 0.0
C516 C 0.45162 0.59957 0.64967 0.0
C517 C 0.44978 0.59384 0.60897 0.0
C518 C 0.42357 0.62257 0.66911 0.0
C519 C 0.3936 0.64124 0.64712 0.0
C520 C 0.39036 0.63373 0.60625 0.0
C521 C 0.41846 0.60993 0.58767 0.0
C522 C 0.42743 0.62873 0.71287 0.0
C523 C 0.35899 0.65305 0.58163 0.0
H524 H 0.28334 0.68668 0.71611 0.0
H525 H 0.37494 0.76975 0.69093 0.0
H526 H 0.31665 0.61036 0.6517 0.0
H527 H 0.33413 0.60279 0.70056 0.0
H528 H 0.28505 0.62105 0.69282 0.0
H529 H 0.42944 0.75439 0.65196 0.0
H530 H 0.44744 0.70624 0.66428 0.0
H531 H 0.42319 0.7139 0.61826 0.0
H532 H 0.47573 0.5869 0.6662 0.0
H533 H 0.41722 0.60576 0.55611 0.0
H534 H 0.39848 0.62505 0.72738 0.0
H535 H 0.43772 0.65916 0.7188 0.0
H536 H 0.44864 0.60798 0.72639 0.0
H537 H 0.32987 0.65065 0.59602 0.0
H538 H 0.35692 0.63991 0.5518 0.0
H539 H 0.36592 0.6848 0.57858 0.0
C540 C 0.97891 0.92272 0.81961 0.0
C541 C 0.93761 0.92379 0.82021 0.0
C542 C 0.99989 0.93158 0.78519 0.0
C543 C 0.97904 0.94256 0.75092 0.0
C544 C 0.93737 0.94201 0.75097 0.0
C545 C 0.91726 0.9323 0.78544 0.0
C546 C 0.04423 0.9308 0.78634 0.0
C547 C 0.91384 0.95338 0.71503 0.0
C548 C 0.01084 0.01806 0.67751 0.0
C549 C 0.01167 0.99542 0.64314 0.0
C550 C 0.00466 0.00051 0.71412 0.0
C551 C 0.99963 0.9593 0.71629 0.0
C552 C 0.0061 0.93593 0.6825 0.0
C553 C 0.01128 0.95436 0.64595 0.0
C554 C 0.99903 0.02653 0.74959 0.0
C555 C 0.00379 0.89172 0.68422 0.0
H556 H 0.99495 0.91604 0.84631 0.0
H557 H 0.8854 0.93185 0.78524 0.0
H558 H 0.057 0.92456 0.75706 0.0
H559 H 0.05536 0.95985 0.7963 0.0
H560 H 0.0549 0.9084 0.80751 0.0
H561 H 0.88165 0.95033 0.71967 0.0
H562 H 0.92031 0.98437 0.70709 0.0
H563 H 0.92226 0.93476 0.68969 0.0
H564 H 0.01195 0.04985 0.67544 0.0
H565 H 0.01194 0.93669 0.61947 0.0
H566 H 0.01578 0.01503 0.77504 0.0
H567 H 0.96745 0.02673 0.75778 0.0
H568 H 0.00854 0.05729 0.74398 0.0
H569 H 0.01622 0.88054 0.71222 0.0
H570 H 0.0198 0.87809 0.65931 0.0
H571 H 0.97255 0.88235 0.68256 0.0
C572 C 0.55747 0.13916 0.32553 0.0
C573 C 0.56909 0.10872 0.3509 0.0
C574 C 0.54187 0.13098 0.28817 0.0
C575 C 0.53882 0.09154 0.27544 0.0
C576 C 0.54684 0.06073 0.3022 0.0
C577 C 0.56157 0.0697 0.33971 0.0
C578 C 0.53209 0.16465 0.26109 0.0
C579 C 0.54334 0.0182 0.29001 0.0
C580 C 0.49917 0.05921 0.1755 0.0
C581 C 0.53433 0.05505 0.15468 0.0
C582 C 0.49952 0.07319 0.21449 0.0
C583 C 0.53594 0.08261 0.23272 0.0
C584 C 0.57113 0.08049 0.21072 0.0
C585 C 0.5698 0.0668 0.17206 0.0
C586 C 0.46129 0.0753 0.23662 0.0
C587 C 0.61066 0.09036 0.2287 0.0
H588 H 0.56295 0.1695 0.33361 0.0
H589 H 0.56907 0.04599 0.35955 0.0
H590 H 0.55691 0.16961 0.24057 0.0
H591 H 0.50558 0.15782 0.24324 0.0
H592 H 0.527 0.19229 0.27766 0.0
H593 H 0.54578 0.99791 0.31544 0.0
H594 H 0.51485 0.01279 0.27501 0.0
H595 H 0.56707 0.01115 0.26885 0.0
H596 H 0.47187 0.04925 0.16234 0.0
H597 H 0.59698 0.06361 0.15578 0.0
H598 H 0.46172 0.09918 0.25882 0.0
H599 H 0.45629 0.04711 0.25219 0.0
H600 H 0.43615 0.07993 0.2163 0.0
H601 H 0.61036 0.1205 0.24111 0.0
H602 H 0.63498 0.0885 0.20706 0.0
H603 H 0.61703 0.06977 0.25316 0.0
C604 C 0.43498 0.59594 0.23403 0.0
C605 C 0.4577 0.60756 0.20175 0.0
C606 C 0.45248 0.58663 0.27006 0.0
C607 C 0.49385 0.58945 0.27428 0.0
C608 C 0.51691 0.60307 0.24245 0.0
C609 C 0.49855 0.61175 0.20641 0.0
C610 C 0.42663 0.57244 0.30325 0.0
C611 C 0.561 0.60706 0.24565 0.0
C612 C 0.51803 0.58111 0.38208 0.0
C613 C 0.52136 0.54025 0.38563 0.0
C614 C 0.51404 0.59867 0.34494 0.0
C615 C 0.51225 0.57455 0.31103 0.0
C616 C 0.52012 0.53391 0.31434 0.0
C617 C 0.52459 0.51725 0.35166 0.0
C618 C 0.50783 0.64243 0.34252 0.0
C619 C 0.51952 0.50725 0.27888 0.0
H620 H 0.40331 0.59381 0.23105 0.0
H621 H 0.51634 0.62083 0.18162 0.0
H622 H 0.43467 0.54191 0.3113 0.0
H623 H 0.4312 0.59109 0.32962 0.0
H624 H 0.3949 0.57291 0.29544 0.0
H625 H 0.57477 0.5789 0.23691 0.0
H626 H 0.57222 0.63031 0.22565 0.0
H627 H 0.57053 0.61398 0.27606 0.0
H628 H 0.51552 0.59905 0.40827 0.0
H629 H 0.52774 0.48566 0.35438 0.0
H630 H 0.47583 0.64861 0.34289 0.0
H631 H 0.52014 0.65466 0.31493 0.0
H632 H 0.5216 0.65779 0.36792 0.0
H633 H 0.48882 0.50394 0.26817 0.0
H634 H 0.5312 0.47758 0.28568 0.0
H635 H 0.5371 0.52019 0.2547 0.0
C636 C 0.0801 0.4638 0.70243 0.0
C637 C 0.086 0.42447 0.69172 0.0
C638 C 0.06602 0.47363 0.7398 0.0
C639 C 0.05716 0.44337 0.76695 0.0
C640 C 0.05909 0.40365 0.75491 0.0
C641 C 0.07387 0.3946 0.71752 0.0
C642 C 0.06391 0.51643 0.7513 0.0
C643 C 0.04858 0.37065 0.7826 0.0
C644 C 0.08619 0.47193 0.87009 0.0
C645 C 0.05046 0.48468 0.88574 0.0
C646 C 0.0882 0.45625 0.8322 0.0
C647 C 0.0535 0.45328 0.80929 0.0
C648 C 0.01683 0.46368 0.82591 0.0
C649 C 0.01578 0.47955 0.86407 0.0
C650 C 0.12795 0.44531 0.81582 0.0
C651 C 0.97916 0.46066 0.80267 0.0
H652 H 0.08829 0.48701 0.68222 0.0
H653 H 0.07817 0.36408 0.70959 0.0
H654 H 0.03558 0.52279 0.76599 0.0
H655 H 0.08781 0.52326 0.77254 0.0
H656 H 0.06709 0.53627 0.72559 0.0
H657 H 0.04455 0.34232 0.76683 0.0
H658 H 0.07245 0.36703 0.80456 0.0
H659 H 0.02121 0.3775 0.79887 0.0
H660 H 0.11301 0.47576 0.887 0.0
H661 H 0.98833 0.49034 0.87579 0.0
H662 H 0.13564 0.46542 0.79133 0.0
H663 H 0.12716 0.41502 0.80381 0.0
H664 H 0.15161 0.44707 0.83833 0.0
H665 H 0.97635 0.48682 0.78348 0.0
H666 H 0.95313 0.45963 0.82225 0.0
H667 H 0.97897 0.43423 0.78357 0.0
C668 C 0.81711 0.9901 0.90219 0.0
C669 C 0.82072 0.94917 0.90594 0.0
C670 C 0.78158 0.00902 0.91135 0.0
C671 C 0.74931 0.98643 0.92488 0.0
C672 C 0.75221 0.94494 0.92637 0.0
C673 C 0.78775 0.9269 0.91674 0.0
C674 C 0.77912 0.05318 0.90826 0.0
C675 C 0.71841 0.91956 0.94026 0.0
C676 C 0.67946 0.01522 0.00434 0.0
C677 C 0.64362 0.01405 0.98411 0.0
C678 C 0.71506 0.01101 0.98445 0.0
C679 C 0.71466 0.00537 0.94327 0.0
C680 C 0.67887 0.00922 0.92218 0.0
C681 C 0.64343 0.0131 0.94301 0.0
C682 C 0.75248 0.00777 0.00822 0.0
C683 C 0.67733 0.00527 0.87812 0.0
H684 H 0.8424 0.00747 0.89344 0.0
H685 H 0.78997 0.89516 0.91838 0.0
H686 H 0.75088 0.06205 0.8946 0.0
H687 H 0.78016 0.06632 0.93807 0.0
H688 H 0.80375 0.06563 0.89081 0.0
H689 H 0.72471 0.88768 0.9374 0.0
H690 H 0.71214 0.92599 0.97159 0.0
H691 H 0.69146 0.92622 0.92317 0.0
H692 H 0.67947 0.01664 0.03617 0.0
H693 H 0.61563 0.01258 0.92736 0.0
H694 H 0.77667 0.02457 0.99425 0.0
H695 H 0.76155 0.9765 0.00957 0.0
H696 H 0.74865 0.01865 0.03874 0.0
H697 H 0.70472 0.0163 0.86425 0.0
H698 H 0.65188 0.0215 0.86574 0.0
H699 H 0.67384 0.97379 0.87028 0.0
C700 C 0.70477 0.08097 0.47214 0.0
C701 C 0.68854 0.08251 0.4342 0.0
C702 C 0.74179 0.06423 0.47894 0.0
C703 C 0.7627 0.04719 0.44732 0.0
C704 C 0.74514 0.04557 0.40966 0.0
C705 C 0.70868 0.06382 0.40337 0.0
C706 C 0.75959 0.06708 0.51955 0.0
C707 C 0.76551 0.02573 0.37573 0.0
C708 C 0.8724 0.06042 0.45834 0.0
C709 C 0.88301 0.02597 0.47793 0.0
C710 C 0.83368 0.06656 0.44592 0.0
C711 C 0.80496 0.03707 0.45267 0.0
C712 C 0.81646 0.00057 0.46913 0.0
C713 C 0.85542 0.99569 0.48236 0.0
C714 C 0.82291 0.10611 0.42894 0.0
C715 C 0.78729 0.96764 0.47507 0.0
H716 H 0.68908 0.09397 0.49652 0.0
H717 H 0.69694 0.06475 0.37381 0.0
H718 H 0.76863 0.0376 0.52994 0.0
H719 H 0.78637 0.08582 0.5186 0.0
H720 H 0.73891 0.0798 0.54128 0.0
H721 H 0.74779 0.02666 0.34829 0.0
H722 H 0.79439 0.03988 0.37008 0.0
H723 H 0.77118 0.99457 0.38327 0.0
H724 H 0.89385 0.08394 0.4555 0.0
H725 H 0.8637 0.96917 0.49788 0.0
H726 H 0.80295 0.12165 0.44944 0.0
H727 H 0.80699 0.10239 0.40071 0.0
H728 H 0.8491 0.12501 0.42377 0.0
H729 H 0.7709 0.97261 0.50273 0.0
H730 H 0.80227 0.93878 0.4773 0.0
H731 H 0.76565 0.96639 0.45065 0.0
C732 C 0.33775 0.57178 0.06747 0.0
C733 C 0.34905 0.57763 0.10671 0.0
C734 C 0.29936 0.55994 0.05787 0.0
C735 C 0.27187 0.55303 0.08828 0.0
C736 C 0.28437 0.55439 0.12788 0.0
C737 C 0.32268 0.56715 0.1367 0.0
C738 C 0.28735 0.55817 0.01519 0.0
C739 C 0.25635 0.54558 0.16105 0.0
C740 C 0.16953 0.58735 0.06273 0.0
C741 C 0.15118 0.5524 0.05084 0.0
C742 C 0.20824 0.58749 0.07667 0.0
C743 C 0.2292 0.5517 0.07879 0.0
C744 C 0.21007 0.51593 0.06893 0.0
C745 C 0.17117 0.51674 0.05483 0.0
C746 C 0.22739 0.62635 0.08694 0.0
C747 C 0.23124 0.47716 0.07068 0.0
H748 H 0.35829 0.57852 0.04412 0.0
H749 H 0.33091 0.57143 0.16718 0.0
H750 H 0.2711 0.53053 0.00897 0.0
H751 H 0.26731 0.58297 0.00854 0.0
H752 H 0.31303 0.56006 0.99516 0.0
H753 H 0.2722 0.53983 0.18902 0.0
H754 H 0.23665 0.57108 0.16554 0.0
H755 H 0.23762 0.51975 0.15389 0.0
H756 H 0.15401 0.61495 0.05968 0.0
H757 H 0.15741 0.48987 0.04457 0.0
H758 H 0.25212 0.63224 0.06654 0.0
H759 H 0.23972 0.62531 0.11711 0.0
H760 H 0.20648 0.65127 0.08517 0.0
H761 H 0.24682 0.47226 0.04254 0.0
H762 H 0.21026 0.45247 0.07484 0.0
H763 H 0.25333 0.47663 0.09469 0.0
C764 C 0.23707 0.4277 0.59577 0.0
C765 C 0.20276 0.44807 0.60555 0.0
C766 C 0.27182 0.44777 0.58648 0.0
C767 C 0.27262 0.48942 0.58746 0.0
C768 C 0.23869 0.51024 0.59914 0.0
C769 C 0.20401 0.48932 0.60771 0.0
C770 C 0.30742 0.42428 0.57439 0.0
C771 C 0.23837 0.55454 0.60123 0.0
C772 C 0.37842 0.52139 0.57982 0.0
C773 C 0.38249 0.52252 0.5389 0.0
C774 C 0.34125 0.51589 0.59695 0.0
C775 C 0.30801 0.51023 0.57237 0.0
C776 C 0.31148 0.51634 0.53144 0.0
C777 C 0.34874 0.52257 0.51522 0.0
C778 C 0.33836 0.51198 0.64095 0.0
C779 C 0.27671 0.51152 0.50417 0.0
H780 H 0.23675 0.39585 0.59523 0.0
H781 H 0.17762 0.50536 0.61526 0.0
H782 H 0.31553 0.43159 0.54369 0.0
H783 H 0.33289 0.43193 0.59337 0.0
H784 H 0.30224 0.39208 0.5763 0.0
H785 H 0.21509 0.56525 0.62135 0.0
H786 H 0.26716 0.56639 0.61119 0.0
H787 H 0.23234 0.5666 0.57157 0.0
H788 H 0.4044 0.52132 0.59831 0.0
H789 H 0.3518 0.52416 0.48355 0.0
H790 H 0.33935 0.48041 0.64899 0.0
H791 H 0.31024 0.52417 0.65192 0.0
H792 H 0.36316 0.52726 0.65593 0.0
H793 H 0.269 0.47986 0.5018 0.0
H794 H 0.28303 0.52283 0.47423 0.0
H795 H 0.25068 0.52705 0.5159 0.0
C796 C 0.95445 0.8325 0.94719 0.0
C797 C 0.91492 0.84175 0.94021 0.0
C798 C 0.96504 0.79609 0.9631 0.0
C799 C 0.93534 0.76846 0.97272 0.0
C800 C 0.89535 0.77928 0.96984 0.0
C801 C 0.88555 0.81569 0.9532 0.0
C802 C 0.0081 0.7859 0.96622 0.0
C803 C 0.86291 0.75113 0.98118 0.0
C804 C 0.96627 0.66553 0.94673 0.0
C805 C 0.97952 0.65121 0.98289 0.0
C806 C 0.9496 0.70284 0.94363 0.0
C807 C 0.94614 0.72651 0.97766 0.0
C808 C 0.95697 0.71112 0.0148 0.0
C809 C 0.97383 0.6735 0.01695 0.0
C810 C 0.93819 0.71785 0.90342 0.0
C811 C 0.95337 0.73518 0.0518 0.0
H812 H 0.97726 0.853 0.93838 0.0
H813 H 0.85487 0.82251 0.94812 0.0
H814 H 0.01459 0.77233 0.9951 0.0
H815 H 0.01559 0.7641 0.94317 0.0
H816 H 0.02735 0.81207 0.96242 0.0
H817 H 0.83431 0.76637 0.98461 0.0
H818 H 0.85958 0.72838 0.95803 0.0
H819 H 0.87017 0.73588 0.00906 0.0
H820 H 0.97051 0.64808 0.92041 0.0
H821 H 0.98493 0.66276 0.04474 0.0
H822 H 0.95765 0.74278 0.89518 0.0
H823 H 0.90757 0.7289 0.9037 0.0
H824 H 0.94052 0.69482 0.88041 0.0
H825 H 0.97929 0.75491 0.05451 0.0
H826 H 0.95244 0.71614 0.07825 0.0
H827 H 0.92669 0.75378 0.05117 0.0
C828 C 0.47388 0.71038 0.08317 0.0
C829 C 0.43558 0.69499 0.08489 0.0
C830 C 0.48113 0.74806 0.06806 0.0
C831 C 0.44947 0.77058 0.05323 0.0
C832 C 0.4113 0.75404 0.05187 0.0
C833 C 0.40468 0.71675 0.0682 0.0
C834 C 0.52227 0.76477 0.07055 0.0
C835 C 0.37716 0.77637 0.03454 0.0
C836 C 0.46261 0.87895 0.07278 0.0
C837 C 0.47967 0.89193 0.0378 0.0
C838 C 0.45047 0.83992 0.07722 0.0
C839 C 0.45536 0.81324 0.04569 0.0
C840 C 0.46979 0.82701 0.00913 0.0
C841 C 0.48231 0.86635 0.00572 0.0
C842 C 0.43532 0.82663 0.11677 0.0
C843 C 0.47425 0.79983 0.97444 0.0
H844 H 0.49816 0.69348 0.09485 0.0
H845 H 0.37485 0.70559 0.06942 0.0
H846 H 0.53148 0.77656 0.04164 0.0
H847 H 0.52283 0.78955 0.09178 0.0
H848 H 0.54408 0.74255 0.0802 0.0
H849 H 0.34899 0.75992 0.0369 0.0
H850 H 0.37381 0.80521 0.04936 0.0
H851 H 0.38301 0.78224 0.00305 0.0
H852 H 0.46114 0.89886 0.09763 0.0
H853 H 0.49602 0.87648 0.97883 0.0
H854 H 0.45615 0.80528 0.12988 0.0
H855 H 0.40657 0.81149 0.11339 0.0
H856 H 0.43167 0.85148 0.1376 0.0
H857 H 0.50128 0.7821 0.97813 0.0
H858 H 0.4767 0.81644 0.94646 0.0
H859 H 0.44898 0.7792 0.97232 0.0
C860 C 0.10159 0.29947 0.60144 0.0
C861 C 0.11367 0.33255 0.58006 0.0
C862 C 0.09149 0.26429 0.58255 0.0
C863 C 0.09411 0.26169 0.5411 0.0
C864 C 0.10824 0.29427 0.51936 0.0
C865 C 0.11755 0.32947 0.53909 0.0
C866 C 0.07665 0.2303 0.60703 0.0
C867 C 0.11214 0.29282 0.47525 0.0
C868 C 0.08248 0.155 0.5133 0.0
C869 C 0.04151 0.15267 0.50959 0.0
C870 C 0.10122 0.19155 0.5185 0.0
C871 C 0.07816 0.22602 0.52127 0.0
C872 C 0.03744 0.22407 0.51297 0.0
C873 C 0.01962 0.18736 0.50717 0.0
C874 C 0.14508 0.19267 0.52485 0.0
C875 C 0.01188 0.26018 0.51457 0.0
H876 H 0.09971 0.30114 0.63317 0.0
H877 H 0.12693 0.35485 0.52226 0.0
H878 H 0.04599 0.22294 0.59844 0.0
H879 H 0.09485 0.20388 0.60168 0.0
H880 H 0.07719 0.23689 0.639 0.0
H881 H 0.1365 0.31215 0.46514 0.0
H882 H 0.11743 0.26256 0.46442 0.0
H883 H 0.08456 0.30364 0.46167 0.0
H884 H 0.09955 0.12824 0.51513 0.0
H885 H 0.98795 0.18559 0.50367 0.0
H886 H 0.15141 0.19118 0.5568 0.0
H887 H 0.15806 0.22033 0.51335 0.0
H888 H 0.15959 0.16731 0.5104 0.0
H889 H 0.00914 0.27009 0.54552 0.0
H890 H 0.98191 0.25449 0.50275 0.0
H891 H 0.02544 0.28451 0.49765 0.0
C892 C 0.60976 0.20591 0.49968 0.0
C893 C 0.60559 0.20214 0.45879 0.0
C894 C 0.60156 0.2417 0.5187 0.0
C895 C 0.58858 0.2742 0.49625 0.0
C896 C 0.58619 0.27095 0.45481 0.0
C897 C 0.59487 0.23511 0.43667 0.0
C898 C 0.60511 0.24384 0.56283 0.0
C899 C 0.57284 0.30491 0.42955 0.0
C900 C 0.51569 0.35066 0.52692 0.0
C901 C 0.53872 0.38481 0.52459 0.0
C902 C 0.53252 0.31347 0.52235 0.0
C903 C 0.57337 0.31047 0.51528 0.0
C904 C 0.59741 0.34447 0.51824 0.0
C905 C 0.57969 0.3815 0.52229 0.0
C906 C 0.50588 0.2779 0.52061 0.0
C907 C 0.64135 0.34231 0.51314 0.0
H908 H 0.61821 0.18057 0.51698 0.0
H909 H 0.59273 0.23274 0.40498 0.0
H910 H 0.61246 0.27396 0.57302 0.0
H911 H 0.57663 0.23519 0.57616 0.0
H912 H 0.62788 0.22326 0.57382 0.0
H913 H 0.57409 0.29799 0.39768 0.0
H914 H 0.54213 0.31275 0.43707 0.0
H915 H 0.59149 0.33113 0.43525 0.0
H916 H 0.48401 0.35317 0.52931 0.0
H917 H 0.59765 0.40782 0.52044 0.0
H918 H 0.51855 0.25335 0.53782 0.0
H919 H 0.50305 0.26791 0.48968 0.0
H920 H 0.47602 0.28432 0.53202 0.0
H921 H 0.65324 0.31477 0.52583 0.0
H922 H 0.65631 0.3678 0.52721 0.0
H923 H 0.6484 0.34264 0.48134 0.0
loop_
_geom_bond_atom_site_label_1
_geom_bond_atom_site_label_2
_geom_bond_distance
_geom_bond_site_symmetry_2
_ccdc_geom_bond_type
H0 C3 0.931 . S
H1 C6 0.928 . S
H2 C8 0.930 . S
C3 H0 0.931 . S
C3 C4 1.413 . S
C3 C5 1.360 . S
C4 C3 1.413 . S
C4 C8 1.429 . S
C5 C3 1.360 . S
C5 C6 1.372 . S
C6 H1 0.928 . S
C6 C5 1.372 . S
C6 C7 1.404 . S
C7 C6 1.404 . S
C7 C8 1.391 . S
C8 H2 0.930 . S
C8 C4 1.429 . S
C8 C7 1.391 . S
H9 C12 0.931 . S
H10 C15 0.928 . S
H11 C17 0.930 . S
C12 H9 0.931 . S
C12 C13 1.413 . S
C12 C14 1.360 . S
C13 C12 1.413 . S
C13 C17 1.429 . S
C14 C12 1.360 . S
C14 C15 1.372 . S
C15 H10 0.928 . S
C15 C14 1.372 . S
C15 C16 1.404 . S
C16 C15 1.404 . S
C16 C17 1.391 . S
C17 H11 0.930 . S
C17 C13 1.429 . S
C17 C16 1.391 . S
H18 C21 0.931 . S
H19 C24 0.928 . S
H20 C26 0.930 . S
C21 H18 0.931 . S
C21 C22 1.413 . S
C21 C23 1.360 . S
C22 C21 1.413 . S
C22 C26 1.429 . S
C23 C21 1.360 . S
C23 C24 1.372 . S
C24 H19 0.928 . S
C24 C23 1.372 . S
C24 C25 1.404 . S
C25 C24 1.404 . S
C25 C26 1.391 . S
C26 H20 0.930 . S
C26 C22 1.429 . S
C26 C25 1.391 . S
H27 C30 0.931 . S
H28 C33 0.928 . S
H29 C35 0.930 . S
C30 H27 0.931 . S
C30 C31 1.413 . S
C30 C32 1.360 . S
C31 C30 1.413 . S
C31 C35 1.429 . S
C32 C30 1.360 . S
C32 C33 1.372 . S
C33 H28 0.928 . S
C33 C32 1.372 . S
C33 C34 1.404 . S
C34 C33 1.404 . S
C34 C35 1.391 . S
C35 H29 0.930 . S
C35 C31 1.429 . S
C35 C34 1.391 . S
H36 C39 0.931 . S
H37 C42 0.928 . S
H38 C44 0.930 . S
C39 H36 0.931 . S
C39 C40 1.413 . S
C39 C41 1.360 . S
C40 C39 1.413 . S
C40 C44 1.429 . S
C41 C39 1.360 . S
C41 C42 1.372 . S
C42 H37 0.928 . S
C42 C41 1.372 . S
C42 C43 1.404 . S
C43 C42 1.404 . S
C43 C44 1.391 . S
C44 H38 0.930 . S
C44 C40 1.429 . S
C44 C43 1.391 . S
H45 C48 0.931 . S
H46 C51 0.928 . S
H47 C53 0.930 . S
C48 H45 0.931 . S
C48 C49 1.413 . S
C48 C50 1.360 . S
C49 C48 1.413 . S
C49 C53 1.429 . S
C50 C48 1.360 . S
C50 C51 1.372 . S
C51 H46 0.928 . S
C51 C50 1.372 . S
C51 C52 1.404 . S
C52 C51 1.404 . S
C52 C53 1.391 . S
C53 H47 0.930 . S
C53 C49 1.429 . S
C53 C52 1.391 . S
H54 C57 0.931 . S
H55 C60 0.928 . S
H56 C62 0.930 . S
C57 H54 0.931 . S
C57 C58 1.413 . S
C57 C59 1.360 . S
C58 C57 1.413 . S
C58 C62 1.429 . S
C59 C57 1.360 . S
C59 C60 1.372 . S
C60 H55 0.928 . S
C60 C59 1.372 . S
C60 C61 1.404 . S
C61 C60 1.404 . S
C61 C62 1.391 . S
C62 H56 0.930 . S
C62 C58 1.429 . S
C62 C61 1.391 . S
H63 C66 0.931 . S
H64 C69 0.928 . S
H65 C71 0.930 . S
C66 H63 0.931 . S
C66 C67 1.413 . S
C66 C68 1.360 . S
C67 C66 1.413 . S
C67 C71 1.429 . S
C68 C66 1.360 . S
C68 C69 1.372 . S
C69 H64 0.928 . S
C69 C68 1.372 . S
C69 C70 1.404 . S
C70 C69 1.404 . S
C70 C71 1.391 . S
C71 H65 0.930 . S
C71 C67 1.429 . S
C71 C70 1.391 . S
Zn72 O78 1.920 . S
Zn72 O84 1.898 . S
Zn72 O87 1.905 . S
Zn73 O81 1.905 1_565 S
Zn73 O82 1.898 . S
Zn73 O90 1.920 . S
Zn74 O77 2.080 1_455 S
Zn74 O80 2.114 . S
Zn74 O83 2.120 1_445 S
Zn74 O85 2.120 . S
Zn74 O86 2.114 1_455 S
Zn74 O89 2.080 . S
C75 O80 1.166 . S
C75 O81 1.182 . S
C76 O82 1.167 1_655 S
C76 O83 1.299 . S
O77 Zn74 2.080 1_655 S
O77 C91 1.305 . S
O78 Zn72 1.920 . S
O78 C91 1.234 . S
C79 O84 1.167 1_455 S
C79 O85 1.299 . S
O80 Zn74 2.114 . S
O80 C75 1.166 . S
O81 Zn73 1.905 1_545 S
O81 C75 1.182 . S
O82 Zn73 1.898 . S
O82 C76 1.167 1_455 S
O83 Zn74 2.120 1_665 S
O83 C76 1.299 . S
O84 Zn72 1.898 . S
O84 C79 1.167 1_655 S
O85 Zn74 2.120 . S
O85 C79 1.299 . S
O86 Zn74 2.114 1_655 S
O86 C88 1.166 . S
O87 Zn72 1.905 . S
O87 C88 1.182 . S
C88 O86 1.166 . S
C88 O87 1.182 . S
O89 Zn74 2.080 . S
O89 C92 1.305 1_545 S
O90 Zn73 1.920 . S
O90 C92 1.234 . S
C91 O77 1.305 . S
C91 O78 1.234 . S
C92 O89 1.305 1_565 S
C92 O90 1.234 . S
Zn93 O99 1.920 1_556 S
Zn93 O105 1.898 . S
Zn93 O108 1.905 . S
Zn94 O102 1.905 . S
Zn94 O103 1.898 . S
Zn94 O111 1.920 . S
Zn95 O98 2.080 . S
Zn95 O101 2.114 1_545 S
Zn95 O104 2.120 1_545 S
Zn95 O106 2.120 . S
Zn95 O107 2.114 1_544 S
Zn95 O110 2.080 . S
C96 O101 1.166 . S
C96 O102 1.182 . S
C97 O103 1.167 . S
C97 O104 1.299 . S
O98 Zn95 2.080 . S
O98 C112 1.305 . S
O99 Zn93 1.920 1_554 S
O99 C112 1.234 . S
C100 O105 1.167 . S
C100 O106 1.299 1_556 S
O101 Zn95 2.114 1_565 S
O101 C96 1.166 . S
O102 Zn94 1.905 . S
O102 C96 1.182 . S
O103 Zn94 1.898 . S
O103 C97 1.167 . S
O104 Zn95 2.120 1_565 S
O104 C97 1.299 . S
O105 Zn93 1.898 . S
O105 C100 1.167 . S
O106 Zn95 2.120 . S
O106 C100 1.299 1_554 S
O107 Zn95 2.114 1_566 S
O107 C109 1.166 . S
O108 Zn93 1.905 . S
O108 C109 1.182 1_545 S
C109 O107 1.166 . S
C109 O108 1.182 1_565 S
O110 Zn95 2.080 . S
O110 C113 1.305 . S
O111 Zn94 1.920 . S
O111 C113 1.234 1_565 S
C112 O98 1.305 . S
C112 O99 1.234 . S
C113 O110 1.305 . S
C113 O111 1.234 1_545 S
Zn114 O120 1.920 . S
Zn114 O126 1.898 . S
Zn114 O129 1.905 . S
Zn115 O123 1.905 . S
Zn115 O124 1.898 . S
Zn115 O132 1.920 . S
Zn116 O119 2.080 . S
Zn116 O122 2.114 . S
Zn116 O125 2.120 . S
Zn116 O127 2.120 . S
Zn116 O128 2.114 . S
Zn116 O131 2.080 . S
C117 O122 1.166 . S
C117 O123 1.182 . S
C118 O124 1.167 . S
C118 O125 1.299 . S
O119 Zn116 2.080 . S
O119 C133 1.305 . S
O120 Zn114 1.920 . S
O120 C133 1.234 . S
C121 O126 1.167 . S
C121 O127 1.299 . S
O122 Zn116 2.114 . S
O122 C117 1.166 . S
O123 Zn115 1.905 . S
O123 C117 1.182 . S
O124 Zn115 1.898 . S
O124 C118 1.167 . S
O125 Zn116 2.120 . S
O125 C118 1.299 . S
O126 Zn114 1.898 . S
O126 C121 1.167 . S
O127 Zn116 2.120 . S
O127 C121 1.299 . S
O128 Zn116 2.114 . S
O128 C130 1.166 . S
O129 Zn114 1.905 . S
O129 C130 1.182 . S
C130 O128 1.166 . S
C130 O129 1.182 . S
O131 Zn116 2.080 . S
O131 C134 1.305 . S
O132 Zn115 1.920 . S
O132 C134 1.234 . S
C133 O119 1.305 . S
C133 O120 1.234 . S
C134 O131 1.305 . S
C134 O132 1.234 . S
Zn135 O141 1.920 . S
Zn135 O147 1.898 . S
Zn135 O150 1.905 . S
Zn136 O144 1.905 1_655 S
Zn136 O145 1.898 . S
Zn136 O153 1.920 . S
Zn137 O140 2.080 1_554 S
Zn137 O143 2.114 . S
Zn137 O146 2.120 1_454 S
Zn137 O148 2.120 . S
Zn137 O149 2.114 1_554 S
Zn137 O152 2.080 . S
C138 O143 1.166 . S
C138 O144 1.182 . S
C139 O145 1.167 1_556 S
C139 O146 1.299 . S
O140 Zn137 2.080 1_556 S
O140 C154 1.305 . S
O141 Zn135 1.920 . S
O141 C154 1.234 . S
C142 O147 1.167 1_554 S
C142 O148 1.299 . S
O143 Zn137 2.114 . S
O143 C138 1.166 . S
O144 Zn136 1.905 1_455 S
O144 C138 1.182 . S
O145 Zn136 1.898 . S
O145 C139 1.167 1_554 S
O146 Zn137 2.120 1_656 S
O146 C139 1.299 . S
O147 Zn135 1.898 . S
O147 C142 1.167 1_556 S
O148 Zn137 2.120 . S
O148 C142 1.299 . S
O149 Zn137 2.114 1_556 S
O149 C151 1.166 . S
O150 Zn135 1.905 . S
O150 C151 1.182 . S
C151 O149 1.166 . S
C151 O150 1.182 . S
O152 Zn137 2.080 . S
O152 C155 1.305 1_455 S
O153 Zn136 1.920 . S
O153 C155 1.234 . S
C154 O140 1.305 . S
C154 O141 1.234 . S
C155 O152 1.305 1_655 S
C155 O153 1.234 . S
C156 C157 1.391 . S
C156 C158 1.394 . S
C156 H172 0.931 . S
C157 C156 1.391 . S
C157 C161 1.376 . S
C158 C156 1.394 . S
C158 C159 1.369 . S
C158 C162 1.531 . S
C159 C158 1.369 . S
C159 C160 1.410 . S
C159 C167 1.503 . S
C160 C159 1.410 . S
C160 C161 1.392 . S
C160 C163 1.511 . S
C161 C157 1.376 . S
C161 C160 1.392 . S
C161 H173 0.929 . S
C162 C158 1.531 . S
C162 H174 0.960 . S
C162 H175 0.962 . S
C162 H176 0.960 . S
C163 C160 1.511 . S
C163 H177 0.961 . S
C163 H178 0.961 . S
C163 H179 0.961 . S
C164 C165 1.370 . S
C164 C166 1.363 . S
C164 H180 0.931 . S
C165 C164 1.370 . S
C165 C169 1.408 . S
C166 C164 1.363 . S
C166 C167 1.370 . S
C166 C170 1.524 . S
C167 C159 1.503 . S
C167 C166 1.370 . S
C167 C168 1.403 . S
C168 C167 1.403 . S
C168 C169 1.404 . S
C168 C171 1.539 . S
C169 C165 1.408 . S
C169 C168 1.404 . S
C169 H181 0.930 . S
C170 C166 1.524 . S
C170 H182 0.956 . S
C170 H183 0.961 . S
C170 H184 0.961 . S
C171 C168 1.539 . S
C171 H185 0.958 . S
C171 H186 0.961 . S
C171 H187 0.960 . S
H172 C156 0.931 . S
H173 C161 0.929 . S
H174 C162 0.960 . S
H175 C162 0.962 . S
H176 C162 0.960 . S
H177 C163 0.961 . S
H178 C163 0.961 . S
H179 C163 0.961 . S
H180 C164 0.931 . S
H181 C169 0.930 . S
H182 C170 0.956 . S
H183 C170 0.961 . S
H184 C170 0.961 . S
H185 C171 0.958 . S
H186 C171 0.961 . S
H187 C171 0.960 . S
C188 C189 1.391 . S
C188 C190 1.394 . S
C188 H204 0.931 . S
C189 C188 1.391 . S
C189 C193 1.376 . S
C190 C188 1.394 . S
C190 C191 1.369 . S
C190 C194 1.531 . S
C191 C190 1.369 . S
C191 C192 1.410 . S
C191 C199 1.503 . S
C192 C191 1.410 . S
C192 C193 1.392 . S
C192 C195 1.511 . S
C193 C189 1.376 . S
C193 C192 1.392 . S
C193 H205 0.929 . S
C194 C190 1.531 . S
C194 H206 0.960 . S
C194 H207 0.962 . S
C194 H208 0.960 . S
C195 C192 1.511 . S
C195 H209 0.961 . S
C195 H210 0.961 . S
C195 H211 0.961 . S
C196 C197 1.370 . S
C196 C198 1.363 . S
C196 H212 0.931 . S
C197 C196 1.370 . S
C197 C201 1.408 . S
C198 C196 1.363 . S
C198 C199 1.370 . S
C198 C202 1.524 . S
C199 C191 1.503 . S
C199 C198 1.370 . S
C199 C200 1.403 . S
C200 C199 1.403 . S
C200 C201 1.404 . S
C200 C203 1.530 1_565 S
C201 C197 1.408 . S
C201 C200 1.404 . S
C201 H213 0.930 1_565 S
C202 C198 1.524 . S
C202 H214 0.956 . S
C202 H215 0.961 . S
C202 H216 0.961 . S
C203 C200 1.530 1_545 S
C203 H217 0.956 1_545 S
C203 H218 0.976 . S
C203 H219 0.956 1_545 S
H204 C188 0.931 . S
H205 C193 0.929 . S
H206 C194 0.960 . S
H207 C194 0.962 . S
H208 C194 0.960 . S
H209 C195 0.961 . S
H210 C195 0.961 . S
H211 C195 0.961 . S
H212 C196 0.931 . S
H213 C201 0.930 1_545 S
H214 C202 0.956 . S
H215 C202 0.961 . S
H216 C202 0.961 . S
H217 C203 0.956 1_565 S
H218 C203 0.976 . S
H219 C203 0.956 1_565 S
C220 C221 1.391 . S
C220 C222 1.394 . S
C220 H236 0.931 . S
C221 C220 1.391 . S
C221 C225 1.376 . S
C222 C220 1.394 . S
C222 C223 1.369 . S
C222 C226 1.531 . S
C223 C222 1.369 . S
C223 C224 1.410 . S
C223 C231 1.503 . S
C224 C223 1.410 . S
C224 C225 1.392 . S
C224 C227 1.511 . S
C225 C221 1.376 . S
C225 C224 1.392 . S
C225 H237 0.929 . S
C226 C222 1.531 . S
C226 H238 0.960 . S
C226 H239 0.962 . S
C226 H240 0.960 . S
C227 C224 1.511 . S
C227 H241 0.961 . S
C227 H242 0.961 . S
C227 H243 0.961 . S
C228 C229 1.370 . S
C228 C230 1.363 . S
C228 H244 0.931 . S
C229 C228 1.370 . S
C229 C233 1.408 . S
C230 C228 1.363 . S
C230 C231 1.370 . S
C230 C234 1.524 . S
C231 C223 1.503 . S
C231 C230 1.370 . S
C231 C232 1.403 . S
C232 C231 1.403 . S
C232 C233 1.404 . S
C232 C235 1.539 . S
C233 C229 1.408 . S
C233 C232 1.404 . S
C233 H245 0.930 . S
C234 C230 1.524 . S
C234 H246 0.956 . S
C234 H247 0.961 . S
C234 H248 0.961 . S
C235 C232 1.539 . S
C235 H249 0.958 . S
C235 H250 0.961 . S
C235 H251 0.960 . S
H236 C220 0.931 . S
H237 C225 0.929 . S
H238 C226 0.960 . S
H239 C226 0.962 . S
H240 C226 0.960 . S
H241 C227 0.961 . S
H242 C227 0.961 . S
H243 C227 0.961 . S
H244 C228 0.931 . S
H245 C233 0.930 . S
H246 C234 0.956 . S
H247 C234 0.961 . S
H248 C234 0.961 . S
H249 C235 0.958 . S
H250 C235 0.961 . S
H251 C235 0.960 . S
C252 C253 1.391 . S
C252 C254 1.394 . S
C252 H268 0.931 . S
C253 C252 1.391 . S
C253 C257 1.376 . S
C254 C252 1.394 . S
C254 C255 1.369 . S
C254 C258 1.531 . S
C255 C254 1.369 . S
C255 C256 1.410 . S
C255 C263 1.503 . S
C256 C255 1.410 . S
C256 C257 1.392 . S
C256 C259 1.511 . S
C257 C253 1.376 . S
C257 C256 1.392 . S
C257 H269 0.929 . S
C258 C254 1.531 . S
C258 H270 0.960 . S
C258 H271 0.962 . S
C258 H272 0.960 . S
C259 C256 1.511 . S
C259 H273 0.961 . S
C259 H274 0.961 . S
C259 H275 0.961 . S
C260 C261 1.370 . S
C260 C262 1.363 . S
C260 H276 0.931 1_655 S
C261 C260 1.370 . S
C261 C265 1.408 . S
C262 C260 1.363 . S
C262 C263 1.370 . S
C262 C266 1.524 . S
C263 C255 1.503 . S
C263 C262 1.370 . S
C263 C264 1.403 . S
C264 C263 1.403 . S
C264 C265 1.404 . S
C264 C267 1.539 . S
C265 C261 1.408 . S
C265 C264 1.404 . S
C265 H277 0.930 . S
C266 C262 1.524 . S
C266 H278 0.956 . S
C266 H279 0.961 . S
C266 H280 0.961 1_655 S
C267 C264 1.539 . S
C267 H281 0.958 . S
C267 H282 0.961 . S
C267 H283 0.960 . S
H268 C252 0.931 . S
H269 C257 0.929 . S
H270 C258 0.960 . S
H271 C258 0.962 . S
H272 C258 0.960 . S
H273 C259 0.961 . S
H274 C259 0.961 . S
H275 C259 0.961 . S
H276 C260 0.931 1_455 S
H277 C265 0.930 . S
H278 C266 0.956 . S
H279 C266 0.961 . S
H280 C266 0.961 1_455 S
H281 C267 0.958 . S
H282 C267 0.961 . S
H283 C267 0.960 . S
C284 C285 1.391 . S
C284 C286 1.394 . S
C284 H300 0.931 . S
C285 C284 1.391 . S
C285 C289 1.376 . S
C286 C284 1.394 . S
C286 C287 1.369 . S
C286 C290 1.531 . S
C287 C286 1.369 . S
C287 C288 1.410 . S
C287 C295 1.503 . S
C288 C287 1.410 . S
C288 C289 1.392 . S
C288 C291 1.511 . S
C289 C285 1.376 . S
C289 C288 1.392 . S
C289 H301 0.929 . S
C290 C286 1.531 . S
C290 H302 0.960 . S
C290 H303 0.962 . S
C290 H304 0.960 . S
C291 C288 1.511 . S
C291 H305 0.961 . S
C291 H306 0.961 . S
C291 H307 0.961 . S
C292 C293 1.370 . S
C292 C294 1.363 . S
C292 H308 0.931 . S
C293 C292 1.370 . S
C293 C297 1.408 . S
C294 C292 1.363 . S
C294 C295 1.370 . S
C294 C298 1.524 . S
C295 C287 1.503 . S
C295 C294 1.370 . S
C295 C296 1.403 . S
C296 C295 1.403 . S
C296 C297 1.404 . S
C296 C299 1.539 . S
C297 C293 1.408 . S
C297 C296 1.404 . S
C297 H309 0.930 . S
C298 C294 1.524 . S
C298 H310 0.956 . S
C298 H311 0.961 . S
C298 H312 0.961 . S
C299 C296 1.539 . S
C299 H313 0.958 . S
C299 H314 0.961 . S
C299 H315 0.960 . S
H300 C284 0.931 . S
H301 C289 0.929 . S
H302 C290 0.960 . S
H303 C290 0.962 . S
H304 C290 0.960 . S
H305 C291 0.961 . S
H306 C291 0.961 . S
H307 C291 0.961 . S
H308 C292 0.931 . S
H309 C297 0.930 . S
H310 C298 0.956 . S
H311 C298 0.961 . S
H312 C298 0.961 . S
H313 C299 0.958 . S
H314 C299 0.961 . S
H315 C299 0.960 . S
C316 C317 1.391 . S
C316 C318 1.394 . S
C316 H332 0.931 . S
C317 C316 1.391 . S
C317 C321 1.376 . S
C318 C316 1.394 . S
C318 C319 1.369 . S
C318 C322 1.531 . S
C319 C318 1.369 . S
C319 C320 1.410 . S
C319 C327 1.503 . S
C320 C319 1.410 . S
C320 C321 1.392 . S
C320 C323 1.511 . S
C321 C317 1.376 . S
C321 C320 1.392 . S
C321 H333 0.929 . S
C322 C318 1.531 . S
C322 H334 0.960 . S
C322 H335 0.962 . S
C322 H336 0.971 . S
C323 C320 1.511 . S
C323 H337 0.961 . S
C323 H338 0.961 . S
C323 H339 0.961 . S
C324 C325 1.370 . S
C324 C326 1.363 . S
C324 H340 0.931 . S
C325 C324 1.370 . S
C325 C329 1.408 . S
C326 C324 1.363 . S
C326 C327 1.370 . S
C326 C330 1.524 . S
C327 C319 1.503 . S
C327 C326 1.370 . S
C327 C328 1.403 . S
C328 C327 1.403 . S
C328 C329 1.404 . S
C328 C331 1.539 . S
C329 C325 1.408 . S
C329 C328 1.404 . S
C329 H341 0.930 . S
C330 C326 1.524 . S
C330 H342 0.956 . S
C330 H343 0.961 . S
C330 H344 0.961 . S
C331 C328 1.539 . S
C331 H345 0.958 . S
C331 H346 0.961 . S
C331 H347 0.960 . S
H332 C316 0.931 . S
H333 C321 0.929 . S
H334 C322 0.960 . S
H335 C322 0.962 . S
H336 C322 0.971 . S
H337 C323 0.961 . S
H338 C323 0.961 . S
H339 C323 0.961 . S
H340 C324 0.931 . S
H341 C329 0.930 . S
H342 C330 0.956 . S
H343 C330 0.961 . S
H344 C330 0.961 . S
H345 C331 0.958 . S
H346 C331 0.961 . S
H347 C331 0.960 . S
C348 C349 1.391 . S
C348 C350 1.394 . S
C348 H364 0.931 . S
C349 C348 1.391 . S
C349 C353 1.376 . S
C350 C348 1.394 . S
C350 C351 1.369 . S
C350 C354 1.531 . S
C351 C350 1.369 . S
C351 C352 1.410 . S
C351 C359 1.503 . S
C352 C351 1.410 . S
C352 C353 1.392 . S
C352 C355 1.511 . S
C353 C349 1.376 . S
C353 C352 1.392 . S
C353 H365 0.929 . S
C354 C350 1.531 . S
C354 H366 0.960 . S
C354 H367 0.962 . S
C354 H368 0.960 . S
C355 C352 1.511 . S
C355 H369 0.961 . S
C355 H370 0.961 . S
C355 H371 0.961 . S
C356 C357 1.370 . S
C356 C358 1.363 . S
C356 H372 0.916 1_556 S
C357 C356 1.370 . S
C357 C361 1.408 . S
C358 C356 1.363 . S
C358 C359 1.370 . S
C358 C362 1.524 . S
C359 C351 1.503 . S
C359 C358 1.370 . S
C359 C360 1.403 . S
C360 C359 1.403 . S
C360 C361 1.404 . S
C360 C363 1.539 . S
C361 C357 1.408 . S
C361 C360 1.404 . S
C361 H373 0.930 . S
C362 C358 1.524 . S
C362 H374 0.956 . S
C362 H375 0.961 . S
C362 H376 0.961 1_556 S
C363 C360 1.539 . S
C363 H377 0.958 . S
C363 H378 0.961 . S
C363 H379 0.960 . S
H364 C348 0.931 . S
H365 C353 0.929 . S
H366 C354 0.960 . S
H367 C354 0.962 . S
H368 C354 0.960 . S
H369 C355 0.961 . S
H370 C355 0.961 . S
H371 C355 0.961 . S
H372 C356 0.916 1_554 S
H373 C361 0.930 . S
H374 C362 0.956 . S
H375 C362 0.961 . S
H376 C362 0.961 1_554 S
H377 C363 0.958 . S
H378 C363 0.961 . S
H379 C363 0.960 . S
C380 C381 1.391 . S
C380 C382 1.394 . S
C380 H396 0.931 . S
C381 C380 1.391 . S
C381 C385 1.376 . S
C382 C380 1.394 . S
C382 C383 1.369 . S
C382 C386 1.531 . S
C383 C382 1.369 . S
C383 C384 1.410 . S
C383 C391 1.503 . S
C384 C383 1.410 . S
C384 C385 1.392 . S
C384 C387 1.511 . S
C385 C381 1.376 . S
C385 C384 1.392 . S
C385 H397 0.929 . S
C386 C382 1.531 . S
C386 H398 0.960 . S
C386 H399 0.962 . S
C386 H400 0.960 . S
C387 C384 1.511 . S
C387 H401 0.961 . S
C387 H402 0.961 . S
C387 H403 0.961 . S
C388 C389 1.370 . S
C388 C390 1.363 . S
C388 H404 0.931 . S
C389 C388 1.370 . S
C389 C393 1.408 . S
C390 C388 1.363 . S
C390 C391 1.370 . S
C390 C394 1.524 . S
C391 C383 1.503 . S
C391 C390 1.370 . S
C391 C392 1.403 . S
C392 C391 1.403 . S
C392 C393 1.404 . S
C392 C395 1.539 . S
C393 C389 1.408 . S
C393 C392 1.404 . S
C393 H405 0.930 . S
C394 C390 1.524 . S
C394 H406 0.956 . S
C394 H407 0.961 . S
C394 H408 0.961 . S
C395 C392 1.539 . S
C395 H409 0.958 . S
C395 H410 0.961 . S
C395 H411 0.960 . S
H396 C380 0.931 . S
H397 C385 0.929 . S
H398 C386 0.960 . S
H399 C386 0.962 . S
H400 C386 0.960 . S
H401 C387 0.961 . S
H402 C387 0.961 . S
H403 C387 0.961 . S
H404 C388 0.931 . S
H405 C393 0.930 . S
H406 C394 0.956 . S
H407 C394 0.961 . S
H408 C394 0.961 . S
H409 C395 0.958 . S
H410 C395 0.961 . S
H411 C395 0.960 . S
C412 C413 1.391 . S
C412 C414 1.394 . S
C412 H428 0.931 . S
C413 C412 1.391 . S
C413 C417 1.376 . S
C414 C412 1.394 . S
C414 C415 1.369 . S
C414 C418 1.531 . S
C415 C414 1.369 . S
C415 C416 1.410 . S
C415 C423 1.503 . S
C416 C415 1.410 . S
C416 C417 1.392 . S
C416 C419 1.511 . S
C417 C413 1.376 . S
C417 C416 1.392 . S
C417 H429 0.929 . S
C418 C414 1.531 . S
C418 H430 0.960 . S
C418 H431 0.962 . S
C418 H432 0.960 . S
C419 C416 1.511 . S
C419 H433 0.961 . S
C419 H434 0.961 . S
C419 H435 0.961 . S
C420 C421 1.370 . S
C420 C422 1.363 . S
C420 H436 0.931 . S
C421 C420 1.370 . S
C421 C425 1.408 . S
C422 C420 1.363 . S
C422 C423 1.370 . S
C422 C426 1.524 . S
C423 C415 1.503 . S
C423 C422 1.370 . S
C423 C424 1.403 . S
C424 C423 1.403 . S
C424 C425 1.404 . S
C424 C427 1.539 . S
C425 C421 1.408 . S
C425 C424 1.404 . S
C425 H437 0.930 . S
C426 C422 1.524 . S
C426 H438 0.956 . S
C426 H439 0.961 . S
C426 H440 0.961 . S
C427 C424 1.539 . S
C427 H441 0.958 . S
C427 H442 0.961 . S
C427 H443 0.960 . S
H428 C412 0.931 . S
H429 C417 0.929 . S
H430 C418 0.960 . S
H431 C418 0.962 . S
H432 C418 0.960 . S
H433 C419 0.961 . S
H434 C419 0.961 . S
H435 C419 0.961 . S
H436 C420 0.931 . S
H437 C425 0.930 . S
H438 C426 0.956 . S
H439 C426 0.961 . S
H440 C426 0.961 . S
H441 C427 0.958 . S
H442 C427 0.961 . S
H443 C427 0.960 . S
C444 C445 1.391 . S
C444 C446 1.394 . S
C444 H460 0.931 . S
C445 C444 1.391 . S
C445 C449 1.376 . S
C446 C444 1.394 . S
C446 C447 1.369 . S
C446 C450 1.531 . S
C447 C446 1.369 . S
C447 C448 1.410 . S
C447 C455 1.503 . S
C448 C447 1.410 . S
C448 C449 1.392 . S
C448 C451 1.511 . S
C449 C445 1.376 . S
C449 C448 1.392 . S
C449 H461 0.929 . S
C450 C446 1.531 . S
C450 H462 0.960 . S
C450 H463 0.962 . S
C450 H464 0.960 . S
C451 C448 1.511 . S
C451 H465 0.961 . S
C451 H466 0.961 . S
C451 H467 0.961 . S
C452 C453 1.370 . S
C452 C454 1.363 . S
C452 H468 0.931 . S
C453 C452 1.370 . S
C453 C457 1.408 . S
C454 C452 1.363 . S
C454 C455 1.370 . S
C454 C458 1.524 . S
C455 C447 1.503 . S
C455 C454 1.370 . S
C455 C456 1.403 . S
C456 C455 1.403 . S
C456 C457 1.404 . S
C456 C459 1.539 . S
C457 C453 1.408 . S
C457 C456 1.404 . S
C457 H469 0.930 . S
C458 C454 1.524 . S
C458 H470 0.956 . S
C458 H471 0.961 . S
C458 H472 0.961 . S
C459 C456 1.539 . S
C459 H473 0.958 . S
C459 H474 0.961 . S
C459 H475 0.960 . S
H460 C444 0.931 . S
H461 C449 0.929 . S
H462 C450 0.960 . S
H463 C450 0.962 . S
H464 C450 0.960 . S
H465 C451 0.961 . S
H466 C451 0.961 . S
H467 C451 0.961 . S
H468 C452 0.931 . S
H469 C457 0.930 . S
H470 C458 0.956 . S
H471 C458 0.961 . S
H472 C458 0.961 . S
H473 C459 0.958 . S
H474 C459 0.961 . S
H475 C459 0.960 . S
C476 C477 1.391 . S
C476 C478 1.394 . S
C476 H492 0.931 . S
C477 C476 1.391 . S
C477 C481 1.376 . S
C478 C476 1.394 . S
C478 C479 1.369 . S
C478 C482 1.531 . S
C479 C478 1.369 . S
C479 C480 1.410 . S
C479 C487 1.503 . S
C480 C479 1.410 . S
C480 C481 1.392 . S
C480 C483 1.511 . S
C481 C477 1.376 . S
C481 C480 1.392 . S
C481 H493 0.929 . S
C482 C478 1.531 . S
C482 H494 0.960 . S
C482 H495 0.962 . S
C482 H496 0.960 . S
C483 C480 1.511 . S
C483 H497 0.961 . S
C483 H498 0.961 . S
C483 H499 0.961 . S
C484 C485 1.370 . S
C484 C486 1.363 . S
C484 H500 0.931 1_655 S
C485 C484 1.370 . S
C485 C489 1.408 . S
C486 C484 1.363 . S
C486 C487 1.370 . S
C486 C490 1.524 . S
C487 C479 1.503 . S
C487 C486 1.370 . S
C487 C488 1.403 . S
C488 C487 1.403 . S
C488 C489 1.404 . S
C488 C491 1.539 . S
C489 C485 1.408 . S
C489 C488 1.404 . S
C489 H501 0.930 . S
C490 C486 1.524 . S
C490 H502 0.956 . S
C490 H503 0.961 . S
C490 H504 0.961 1_655 S
C491 C488 1.539 . S
C491 H505 0.958 . S
C491 H506 0.961 . S
C491 H507 0.960 . S
H492 C476 0.931 . S
H493 C481 0.929 . S
H494 C482 0.960 . S
H495 C482 0.962 . S
H496 C482 0.960 . S
H497 C483 0.961 . S
H498 C483 0.961 . S
H499 C483 0.961 . S
H500 C484 0.931 1_455 S
H501 C489 0.930 . S
H502 C490 0.956 . S
H503 C490 0.961 . S
H504 C490 0.961 1_455 S
H505 C491 0.958 . S
H506 C491 0.961 . S
H507 C491 0.960 . S
C508 C509 1.391 . S
C508 C510 1.394 . S
C508 H524 0.931 . S
C509 C508 1.391 . S
C509 C513 1.376 . S
C510 C508 1.394 . S
C510 C511 1.369 . S
C510 C514 1.531 . S
C511 C510 1.369 . S
C511 C512 1.410 . S
C511 C519 1.503 . S
C512 C511 1.410 . S
C512 C513 1.392 . S
C512 C515 1.511 . S
C513 C509 1.376 . S
C513 C512 1.392 . S
C513 H525 0.929 . S
C514 C510 1.531 . S
C514 H526 0.960 . S
C514 H527 0.962 . S
C514 H528 0.960 . S
C515 C512 1.511 . S
C515 H529 0.961 . S
C515 H530 0.961 . S
C515 H531 0.961 . S
C516 C517 1.370 . S
C516 C518 1.363 . S
C516 H532 0.931 . S
C517 C516 1.370 . S
C517 C521 1.408 . S
C518 C516 1.363 . S
C518 C519 1.370 . S
C518 C522 1.524 . S
C519 C511 1.503 . S
C519 C518 1.370 . S
C519 C520 1.403 . S
C520 C519 1.403 . S
C520 C521 1.404 . S
C520 C523 1.539 . S
C521 C517 1.408 . S
C521 C520 1.404 . S
C521 H533 0.930 . S
C522 C518 1.524 . S
C522 H534 0.956 . S
C522 H535 0.961 . S
C522 H536 0.961 . S
C523 C520 1.539 . S
C523 H537 0.958 . S
C523 H538 0.961 . S
C523 H539 0.960 . S
H524 C508 0.931 . S
H525 C513 0.929 . S
H526 C514 0.960 . S
H527 C514 0.962 . S
H528 C514 0.960 . S
H529 C515 0.961 . S
H530 C515 0.961 . S
H531 C515 0.961 . S
H532 C516 0.931 . S
H533 C521 0.930 . S
H534 C522 0.956 . S
H535 C522 0.961 . S
H536 C522 0.961 . S
H537 C523 0.958 . S
H538 C523 0.961 . S
H539 C523 0.960 . S
C540 C541 1.391 . S
C540 C542 1.394 . S
C540 H556 0.931 1_655 S
C541 C540 1.391 . S
C541 C545 1.376 . S
C542 C540 1.394 . S
C542 C543 1.369 . S
C542 C546 1.531 1_655 S
C543 C542 1.369 . S
C543 C544 1.410 . S
C543 C551 1.503 . S
C544 C543 1.410 . S
C544 C545 1.392 . S
C544 C547 1.511 . S
C545 C541 1.376 . S
C545 C544 1.392 . S
C545 H557 0.929 . S
C546 C542 1.531 1_455 S
C546 H558 0.960 . S
C546 H559 0.962 . S
C546 H560 0.960 . S
C547 C544 1.511 . S
C547 H561 0.961 . S
C547 H562 0.961 . S
C547 H563 0.961 . S
C548 C549 1.370 . S
C548 C550 1.363 . S
C548 H564 0.931 . S
C549 C548 1.370 . S
C549 C553 1.408 1_545 S
C550 C548 1.363 . S
C550 C551 1.370 1_545 S
C550 C554 1.524 . S
C551 C543 1.503 . S
C551 C550 1.370 1_565 S
C551 C552 1.403 . S
C552 C551 1.403 . S
C552 C553 1.404 . S
C552 C555 1.539 . S
C553 C549 1.408 1_565 S
C553 C552 1.404 . S
C553 H565 0.930 . S
C554 C550 1.524 . S
C554 H566 0.956 . S
C554 H567 0.961 . S
C554 H568 0.961 . S
C555 C552 1.539 . S
C555 H569 0.958 . S
C555 H570 0.961 . S
C555 H571 0.960 . S
H556 C540 0.931 1_455 S
H557 C545 0.929 . S
H558 C546 0.960 . S
H559 C546 0.962 . S
H560 C546 0.960 . S
H561 C547 0.961 . S
H562 C547 0.961 . S
H563 C547 0.961 . S
H564 C548 0.931 . S
H565 C553 0.930 . S
H566 C554 0.956 . S
H567 C554 0.961 . S
H568 C554 0.961 . S
H569 C555 0.958 . S
H570 C555 0.961 . S
H571 C555 0.960 . S
C572 C573 1.391 . S
C572 C574 1.394 . S
C572 H588 0.931 . S
C573 C572 1.391 . S
C573 C577 1.376 . S
C574 C572 1.394 . S
C574 C575 1.369 . S
C574 C578 1.531 . S
C575 C574 1.369 . S
C575 C576 1.410 . S
C575 C583 1.503 . S
C576 C575 1.410 . S
C576 C577 1.392 . S
C576 C579 1.511 1_545 S
C577 C573 1.376 . S
C577 C576 1.392 . S
C577 H589 0.929 . S
C578 C574 1.531 . S
C578 H590 0.960 . S
C578 H591 0.962 . S
C578 H592 0.960 . S
C579 C576 1.511 1_565 S
C579 H593 0.961 . S
C579 H594 0.961 . S
C579 H595 0.961 . S
C580 C581 1.370 . S
C580 C582 1.363 . S
C580 H596 0.931 . S
C581 C580 1.370 . S
C581 C585 1.408 . S
C582 C580 1.363 . S
C582 C583 1.370 . S
C582 C586 1.524 . S
C583 C575 1.503 . S
C583 C582 1.370 . S
C583 C584 1.403 . S
C584 C583 1.403 . S
C584 C585 1.404 . S
C584 C587 1.539 . S
C585 C581 1.408 . S
C585 C584 1.404 . S
C585 H597 0.930 . S
C586 C582 1.524 . S
C586 H598 0.956 . S
C586 H599 0.961 . S
C586 H600 0.961 . S
C587 C584 1.539 . S
C587 H601 0.958 . S
C587 H602 0.961 . S
C587 H603 0.960 . S
H588 C572 0.931 . S
H589 C577 0.929 . S
H590 C578 0.960 . S
H591 C578 0.962 . S
H592 C578 0.960 . S
H593 C579 0.961 . S
H594 C579 0.961 . S
H595 C579 0.961 . S
H596 C580 0.931 . S
H597 C585 0.930 . S
H598 C586 0.956 . S
H599 C586 0.961 . S
H600 C586 0.961 . S
H601 C587 0.958 . S
H602 C587 0.961 . S
H603 C587 0.960 . S
C604 C605 1.391 . S
C604 C606 1.394 . S
C604 H620 0.931 . S
C605 C604 1.391 . S
C605 C609 1.376 . S
C606 C604 1.394 . S
C606 C607 1.369 . S
C606 C610 1.531 . S
C607 C606 1.369 . S
C607 C608 1.410 . S
C607 C615 1.503 . S
C608 C607 1.410 . S
C608 C609 1.392 . S
C608 C611 1.511 . S
C609 C605 1.376 . S
C609 C608 1.392 . S
C609 H621 0.929 . S
C610 C606 1.531 . S
C610 H622 0.960 . S
C610 H623 0.962 . S
C610 H624 0.960 . S
C611 C608 1.511 . S
C611 H625 0.961 . S
C611 H626 0.961 . S
C611 H627 0.961 . S
C612 C613 1.370 . S
C612 C614 1.363 . S
C612 H628 0.931 . S
C613 C612 1.370 . S
C613 C617 1.408 . S
C614 C612 1.363 . S
C614 C615 1.370 . S
C614 C618 1.524 . S
C615 C607 1.503 . S
C615 C614 1.370 . S
C615 C616 1.403 . S
C616 C615 1.403 . S
C616 C617 1.404 . S
C616 C619 1.539 . S
C617 C613 1.408 . S
C617 C616 1.404 . S
C617 H629 0.930 . S
C618 C614 1.524 . S
C618 H630 0.956 . S
C618 H631 0.961 . S
C618 H632 0.961 . S
C619 C616 1.539 . S
C619 H633 0.958 . S
C619 H634 0.961 . S
C619 H635 0.960 . S
H620 C604 0.931 . S
H621 C609 0.929 . S
H622 C610 0.960 . S
H623 C610 0.962 . S
H624 C610 0.960 . S
H625 C611 0.961 . S
H626 C611 0.961 . S
H627 C611 0.961 . S
H628 C612 0.931 . S
H629 C617 0.930 . S
H630 C618 0.956 . S
H631 C618 0.961 . S
H632 C618 0.961 . S
H633 C619 0.958 . S
H634 C619 0.961 . S
H635 C619 0.960 . S
C636 C637 1.391 . S
C636 C638 1.394 . S
C636 H652 0.931 . S
C637 C636 1.391 . S
C637 C641 1.376 . S
C638 C636 1.394 . S
C638 C639 1.369 . S
C638 C642 1.531 . S
C639 C638 1.369 . S
C639 C640 1.410 . S
C639 C647 1.503 . S
C640 C639 1.410 . S
C640 C641 1.392 . S
C640 C643 1.511 . S
C641 C637 1.376 . S
C641 C640 1.392 . S
C641 H653 0.929 . S
C642 C638 1.531 . S
C642 H654 0.960 . S
C642 H655 0.962 . S
C642 H656 0.960 . S
C643 C640 1.511 . S
C643 H657 0.961 . S
C643 H658 0.961 . S
C643 H659 0.961 . S
C644 C645 1.370 . S
C644 C646 1.363 . S
C644 H660 0.931 . S
C645 C644 1.370 . S
C645 C649 1.408 . S
C646 C644 1.363 . S
C646 C647 1.370 . S
C646 C650 1.524 . S
C647 C639 1.503 . S
C647 C646 1.370 . S
C647 C648 1.403 . S
C648 C647 1.403 . S
C648 C649 1.404 . S
C648 C651 1.539 1_455 S
C649 C645 1.408 . S
C649 C648 1.404 . S
C649 H661 0.930 1_455 S
C650 C646 1.524 . S
C650 H662 0.956 . S
C650 H663 0.961 . S
C650 H664 0.961 . S
C651 C648 1.539 1_655 S
C651 H665 0.958 . S
C651 H666 0.961 . S
C651 H667 0.960 . S
H652 C636 0.931 . S
H653 C641 0.929 . S
H654 C642 0.960 . S
H655 C642 0.962 . S
H656 C642 0.960 . S
H657 C643 0.961 . S
H658 C643 0.961 . S
H659 C643 0.961 . S
H660 C644 0.931 . S
H661 C649 0.930 1_655 S
H662 C650 0.956 . S
H663 C650 0.961 . S
H664 C650 0.961 . S
H665 C651 0.958 . S
H666 C651 0.961 . S
H667 C651 0.960 . S
C668 C669 1.391 . S
C668 C670 1.394 . S
C668 H684 0.931 1_565 S
C669 C668 1.391 . S
C669 C673 1.376 . S
C670 C668 1.394 . S
C670 C671 1.369 . S
C670 C674 1.531 1_566 S
C671 C670 1.369 . S
C671 C672 1.410 . S
C671 C679 1.503 . S
C672 C671 1.410 . S
C672 C673 1.392 . S
C672 C675 1.511 . S
C673 C669 1.376 . S
C673 C672 1.392 . S
C673 H685 0.929 . S
C674 C670 1.531 1_544 S
C674 H686 0.960 . S
C674 H687 0.962 . S
C674 H688 0.960 . S
C675 C672 1.511 . S
C675 H689 0.961 . S
C675 H690 0.961 . S
C675 H691 0.961 . S
C676 C677 1.370 . S
C676 C678 1.363 . S
C676 H692 0.931 . S
C677 C676 1.370 . S
C677 C681 1.408 1_564 S
C678 C676 1.363 . S
C678 C679 1.370 1_554 S
C678 C682 1.524 . S
C679 C671 1.503 . S
C679 C678 1.370 1_556 S
C679 C680 1.403 1_565 S
C680 C679 1.403 1_545 S
C680 C681 1.404 . S
C680 C683 1.539 . S
C681 C677 1.408 1_546 S
C681 C680 1.404 . S
C681 H693 0.930 . S
C682 C678 1.524 . S
C682 H694 0.956 . S
C682 H695 0.961 . S
C682 H696 0.961 . S
C683 C680 1.539 . S
C683 H697 0.958 . S
C683 H698 0.961 . S
C683 H699 0.960 . S
H684 C668 0.931 1_545 S
H685 C673 0.929 . S
H686 C674 0.960 . S
H687 C674 0.962 . S
H688 C674 0.960 . S
H689 C675 0.961 . S
H690 C675 0.961 . S
H691 C675 0.961 . S
H692 C676 0.931 . S
H693 C681 0.930 . S
H694 C682 0.956 . S
H695 C682 0.961 . S
H696 C682 0.961 . S
H697 C683 0.958 . S
H698 C683 0.961 . S
H699 C683 0.960 . S
C700 C701 1.391 . S
C700 C702 1.394 . S
C700 H716 0.931 . S
C701 C700 1.391 . S
C701 C705 1.376 . S
C702 C700 1.394 . S
C702 C703 1.369 . S
C702 C706 1.531 . S
C703 C702 1.369 . S
C703 C704 1.410 . S
C703 C711 1.503 . S
C704 C703 1.410 . S
C704 C705 1.392 . S
C704 C707 1.511 . S
C705 C701 1.376 . S
C705 C704 1.392 . S
C705 H717 0.929 . S
C706 C702 1.531 . S
C706 H718 0.960 . S
C706 H719 0.962 . S
C706 H720 0.960 . S
C707 C704 1.511 . S
C707 H721 0.961 . S
C707 H722 0.961 . S
C707 H723 0.961 . S
C708 C709 1.370 . S
C708 C710 1.363 . S
C708 H724 0.931 . S
C709 C708 1.370 . S
C709 C713 1.408 . S
C710 C708 1.363 . S
C710 C711 1.370 . S
C710 C714 1.524 . S
C711 C703 1.503 . S
C711 C710 1.370 . S
C711 C712 1.403 . S
C712 C711 1.403 . S
C712 C713 1.404 . S
C712 C715 1.539 1_545 S
C713 C709 1.408 . S
C713 C712 1.404 . S
C713 H725 0.930 1_545 S
C714 C710 1.524 . S
C714 H726 0.956 . S
C714 H727 0.961 . S
C714 H728 0.961 . S
C715 C712 1.539 1_565 S
C715 H729 0.958 . S
C715 H730 0.961 . S
C715 H731 0.960 . S
H716 C700 0.931 . S
H717 C705 0.929 . S
H718 C706 0.960 . S
H719 C706 0.962 . S
H720 C706 0.960 . S
H721 C707 0.961 . S
H722 C707 0.961 . S
H723 C707 0.961 . S
H724 C708 0.931 . S
H725 C713 0.930 1_565 S
H726 C714 0.956 . S
H727 C714 0.961 . S
H728 C714 0.961 . S
H729 C715 0.958 . S
H730 C715 0.961 . S
H731 C715 0.960 . S
C732 C733 1.391 . S
C732 C734 1.394 . S
C732 H748 0.931 . S
C733 C732 1.391 . S
C733 C737 1.376 . S
C734 C732 1.394 . S
C734 C735 1.369 . S
C734 C738 1.531 1_554 S
C735 C734 1.369 . S
C735 C736 1.410 . S
C735 C743 1.503 . S
C736 C735 1.410 . S
C736 C737 1.392 . S
C736 C739 1.511 . S
C737 C733 1.376 . S
C737 C736 1.392 . S
C737 H749 0.929 . S
C738 C734 1.531 1_556 S
C738 H750 0.960 . S
C738 H751 0.962 . S
C738 H752 0.960 . S
C739 C736 1.511 . S
C739 H753 0.961 . S
C739 H754 0.961 . S
C739 H755 0.961 . S
C740 C741 1.370 . S
C740 C742 1.363 . S
C740 H756 0.931 . S
C741 C740 1.370 . S
C741 C745 1.408 . S
C742 C740 1.363 . S
C742 C743 1.370 . S
C742 C746 1.524 . S
C743 C735 1.503 . S
C743 C742 1.370 . S
C743 C744 1.403 . S
C744 C743 1.403 . S
C744 C745 1.404 . S
C744 C747 1.539 . S
C745 C741 1.408 . S
C745 C744 1.404 . S
C745 H757 0.930 . S
C746 C742 1.524 . S
C746 H758 0.956 . S
C746 H759 0.961 . S
C746 H760 0.961 . S
C747 C744 1.539 . S
C747 H761 0.958 . S
C747 H762 0.961 . S
C747 H763 0.960 . S
H748 C732 0.931 . S
H749 C737 0.929 . S
H750 C738 0.960 . S
H751 C738 0.962 . S
H752 C738 0.960 . S
H753 C739 0.961 . S
H754 C739 0.961 . S
H755 C739 0.961 . S
H756 C740 0.931 . S
H757 C745 0.930 . S
H758 C746 0.956 . S
H759 C746 0.961 . S
H760 C746 0.961 . S
H761 C747 0.958 . S
H762 C747 0.961 . S
H763 C747 0.960 . S
C764 C765 1.391 . S
C764 C766 1.394 . S
C764 H780 0.931 . S
C765 C764 1.391 . S
C765 C769 1.376 . S
C766 C764 1.394 . S
C766 C767 1.369 . S
C766 C770 1.531 . S
C767 C766 1.369 . S
C767 C768 1.410 . S
C767 C775 1.503 . S
C768 C767 1.410 . S
C768 C769 1.392 . S
C768 C771 1.511 . S
C769 C765 1.376 . S
C769 C768 1.392 . S
C769 H781 0.929 . S
C770 C766 1.531 . S
C770 H782 0.960 . S
C770 H783 0.962 . S
C770 H784 0.960 . S
C771 C768 1.511 . S
C771 H785 0.961 . S
C771 H786 0.961 . S
C771 H787 0.961 . S
C772 C773 1.370 . S
C772 C774 1.363 . S
C772 H788 0.931 . S
C773 C772 1.370 . S
C773 C777 1.408 . S
C774 C772 1.363 . S
C774 C775 1.370 . S
C774 C778 1.524 . S
C775 C767 1.503 . S
C775 C774 1.370 . S
C775 C776 1.403 . S
C776 C775 1.403 . S
C776 C777 1.404 . S
C776 C779 1.539 . S
C777 C773 1.408 . S
C777 C776 1.404 . S
C777 H789 0.930 . S
C778 C774 1.524 . S
C778 H790 0.956 . S
C778 H791 0.961 . S
C778 H792 0.961 . S
C779 C776 1.539 . S
C779 H793 0.958 . S
C779 H794 0.961 . S
C779 H795 0.960 . S
H780 C764 0.931 . S
H781 C769 0.929 . S
H782 C770 0.960 . S
H783 C770 0.962 . S
H784 C770 0.960 . S
H785 C771 0.961 . S
H786 C771 0.961 . S
H787 C771 0.961 . S
H788 C772 0.931 . S
H789 C777 0.930 . S
H790 C778 0.956 . S
H791 C778 0.961 . S
H792 C778 0.961 . S
H793 C779 0.958 . S
H794 C779 0.961 . S
H795 C779 0.960 . S
C796 C797 1.391 . S
C796 C798 1.394 1_655 S
C796 H812 0.931 1_655 S
C797 C796 1.391 . S
C797 C801 1.376 . S
C798 C796 1.394 1_455 S
C798 C799 1.369 1_455 S
C798 C802 1.531 . S
C799 C798 1.369 1_655 S
C799 C800 1.410 . S
C799 C807 1.503 . S
C800 C799 1.410 . S
C800 C801 1.392 . S
C800 C803 1.511 . S
C801 C797 1.376 . S
C801 C800 1.392 . S
C801 H813 0.929 . S
C802 C798 1.531 . S
C802 H814 0.960 1_556 S
C802 H815 0.962 . S
C802 H816 0.960 1_556 S
C803 C800 1.511 . S
C803 H817 0.961 . S
C803 H818 0.961 . S
C803 H819 0.961 . S
C804 C805 1.370 . S
C804 C806 1.363 1_455 S
C804 H820 0.931 . S
C805 C804 1.370 . S
C805 C809 1.408 1_456 S
C806 C804 1.363 1_655 S
C806 C807 1.370 . S
C806 C810 1.524 . S
C807 C799 1.503 . S
C807 C806 1.370 . S
C807 C808 1.403 1_556 S
C808 C807 1.403 1_554 S
C808 C809 1.404 . S
C808 C811 1.539 . S
C809 C805 1.408 1_654 S
C809 C808 1.404 . S
C809 H821 0.930 . S
C810 C806 1.524 . S
C810 H822 0.956 1_655 S
C810 H823 0.961 . S
C810 H824 0.961 1_655 S
C811 C808 1.539 . S
C811 H825 0.958 . S
C811 H826 0.961 . S
C811 H827 0.960 . S
H812 C796 0.931 1_455 S
H813 C801 0.929 . S
H814 C802 0.960 1_554 S
H815 C802 0.962 . S
H816 C802 0.960 1_554 S
H817 C803 0.961 . S
H818 C803 0.961 . S
H819 C803 0.961 . S
H820 C804 0.931 . S
H821 C809 0.930 . S
H822 C810 0.956 1_455 S
H823 C810 0.961 . S
H824 C810 0.961 1_455 S
H825 C811 0.958 . S
H826 C811 0.961 . S
H827 C811 0.960 . S
C828 C829 1.391 . S
C828 C830 1.394 . S
C828 H844 0.931 . S
C829 C828 1.391 . S
C829 C833 1.376 . S
C830 C828 1.394 . S
C830 C831 1.369 . S
C830 C834 1.531 . S
C831 C830 1.369 . S
C831 C832 1.410 . S
C831 C839 1.503 . S
C832 C831 1.410 . S
C832 C833 1.392 . S
C832 C835 1.511 . S
C833 C829 1.376 . S
C833 C832 1.392 . S
C833 H845 0.929 . S
C834 C830 1.531 . S
C834 H846 0.960 . S
C834 H847 0.962 . S
C834 H848 0.960 . S
C835 C832 1.511 . S
C835 H849 0.961 . S
C835 H850 0.961 . S
C835 H851 0.961 . S
C836 C837 1.370 . S
C836 C838 1.363 . S
C836 H852 0.931 . S
C837 C836 1.370 . S
C837 C841 1.408 . S
C838 C836 1.363 . S
C838 C839 1.370 . S
C838 C842 1.524 . S
C839 C831 1.503 . S
C839 C838 1.370 . S
C839 C840 1.403 . S
C840 C839 1.403 . S
C840 C841 1.404 . S
C840 C843 1.539 1_554 S
C841 C837 1.408 . S
C841 C840 1.404 . S
C841 H853 0.930 1_554 S
C842 C838 1.524 . S
C842 H854 0.956 . S
C842 H855 0.961 . S
C842 H856 0.961 . S
C843 C840 1.539 1_556 S
C843 H857 0.958 . S
C843 H858 0.961 . S
C843 H859 0.960 . S
H844 C828 0.931 . S
H845 C833 0.929 . S
H846 C834 0.960 . S
H847 C834 0.962 . S
H848 C834 0.960 . S
H849 C835 0.961 . S
H850 C835 0.961 . S
H851 C835 0.961 . S
H852 C836 0.931 . S
H853 C841 0.930 1_556 S
H854 C842 0.956 . S
H855 C842 0.961 . S
H856 C842 0.961 . S
H857 C843 0.958 . S
H858 C843 0.961 . S
H859 C843 0.960 . S
C860 C861 1.391 . S
C860 C862 1.394 . S
C860 H876 0.931 . S
C861 C860 1.391 . S
C861 C865 1.376 . S
C862 C860 1.394 . S
C862 C863 1.369 . S
C862 C866 1.531 . S
C863 C862 1.369 . S
C863 C864 1.410 . S
C863 C871 1.503 . S
C864 C863 1.410 . S
C864 C865 1.392 . S
C864 C867 1.511 . S
C865 C861 1.376 . S
C865 C864 1.392 . S
C865 H877 0.929 . S
C866 C862 1.531 . S
C866 H878 0.960 . S
C866 H879 0.962 . S
C866 H880 0.960 . S
C867 C864 1.511 . S
C867 H881 0.961 . S
C867 H882 0.961 . S
C867 H883 0.961 1_455 S
C868 C869 1.370 . S
C868 C870 1.363 . S
C868 H884 0.931 . S
C869 C868 1.370 . S
C869 C873 1.408 1_455 S
C870 C868 1.363 . S
C870 C871 1.370 . S
C870 C874 1.524 . S
C871 C863 1.503 . S
C871 C870 1.370 . S
C871 C872 1.403 . S
C872 C871 1.403 . S
C872 C873 1.404 1_455 S
C872 C875 1.539 1_455 S
C873 C869 1.408 1_655 S
C873 C872 1.404 1_655 S
C873 H885 0.930 . S
C874 C870 1.524 . S
C874 H886 0.956 . S
C874 H887 0.961 . S
C874 H888 0.961 . S
C875 C872 1.539 1_655 S
C875 H889 0.958 . S
C875 H890 0.961 . S
C875 H891 0.960 . S
H876 C860 0.931 . S
H877 C865 0.929 . S
H878 C866 0.960 . S
H879 C866 0.962 . S
H880 C866 0.960 . S
H881 C867 0.961 . S
H882 C867 0.961 . S
H883 C867 0.961 1_655 S
H884 C868 0.931 . S
H885 C873 0.930 . S
H886 C874 0.956 . S
H887 C874 0.961 . S
H888 C874 0.961 . S
H889 C875 0.958 . S
H890 C875 0.961 . S
H891 C875 0.960 . S
C892 C893 1.391 . S
C892 C894 1.394 . S
C892 H908 0.931 . S
C893 C892 1.391 . S
C893 C897 1.376 . S
C894 C892 1.394 . S
C894 C895 1.369 . S
C894 C898 1.531 . S
C895 C894 1.369 . S
C895 C896 1.410 . S
C895 C903 1.503 . S
C896 C895 1.410 . S
C896 C897 1.392 . S
C896 C899 1.511 . S
C897 C893 1.376 . S
C897 C896 1.392 . S
C897 H909 0.929 . S
C898 C894 1.531 . S
C898 H910 0.960 . S
C898 H911 0.962 . S
C898 H912 0.960 . S
C899 C896 1.511 . S
C899 H913 0.961 . S
C899 H914 0.961 . S
C899 H915 0.961 . S
C900 C901 1.370 . S
C900 C902 1.363 . S
C900 H916 0.931 . S
C901 C900 1.370 . S
C901 C905 1.408 . S
C902 C900 1.363 . S
C902 C903 1.370 . S
C902 C906 1.524 . S
C903 C895 1.503 . S
C903 C902 1.370 . S
C903 C904 1.403 . S
C904 C903 1.403 . S
C904 C905 1.404 . S
C904 C907 1.539 . S
C905 C901 1.408 . S
C905 C904 1.404 . S
C905 H917 0.930 . S
C906 C902 1.524 . S
C906 H918 0.956 . S
C906 H919 0.961 . S
C906 H920 0.961 . S
C907 C904 1.539 . S
C907 H921 0.958 . S
C907 H922 0.961 . S
C907 H923 0.960 . S
H908 C892 0.931 . S
H909 C897 0.929 . S
H910 C898 0.960 . S
H911 C898 0.962 . S
H912 C898 0.960 . S
H913 C899 0.961 . S
H914 C899 0.961 . S
H915 C899 0.961 . S
H916 C900 0.931 . S
H917 C905 0.930 . S
H918 C906 0.956 . S
H919 C906 0.961 . S
H920 C906 0.961 . S
H921 C907 0.958 . S
H922 C907 0.961 . S
H923 C907 0.960 . S
C157 C5 1.544 . S
C165 C75 1.425 . S
C189 C14 1.507 . S
C197 C109 1.391 . S
C229 C121 1.370 . S
C221 C25 1.486 . S
C253 C34 1.496 . S
C261 C155 1.401 . S
C293 C112 1.404 . S
C285 C7 1.514 . S
C325 C92 1.396 . S
C317 C13 1.517 . S
C357 C139 1.401 . S
C349 C23 1.489 . S
C389 C130 1.397 . S
C381 C31 1.503 . S
C413 C4 1.528 . S
C421 C138 1.430 . S
C453 C100 1.409 . S
C445 C22 1.498 . S
C477 C32 1.511 . S
C485 C76 1.418 . S
C509 C16 1.507 . S
C517 C133 1.407 . S
C549 C91 1.468 . S
C541 C41 1.527 . S
C573 C50 1.539 . S
C581 C113 1.446 . S
C605 C61 1.561 . S
C613 C118 1.449 . S
C637 C67 1.573 . S
C645 C151 1.495 . S
C669 C40 1.562 . S
C677 C96 1.494 . S
C709 C88 1.481 . S
C701 C52 1.580 . S
C741 C142 1.474 . S
C733 C59 1.566 . S
C773 C134 1.433 . S
C765 C70 1.545 . S
C797 C43 1.549 . S
C805 C154 1.466 . S
C837 C97 1.478 . S
C829 C58 1.568 . S
C869 C79 1.424 . S
C861 C68 1.543 . S
C893 C49 1.555 . S
C901 C117 1.487 . S
