# Generated by pormake.
# Topology rtl, (3,6)-cn, num edge types: 1
# Building blocks:
#     Node 0, Type 0, BuildingBlock: MIDCAF_clean_linker_0, # of connection points: 3
#     Node 1, Type 0, BuildingBlock: MIDCAF_clean_linker_0, # of connection points: 3
#     Node 2, Type 0, BuildingBlock: MIDCAF_clean_linker_0, # of connection points: 3
#     Node 3, Type 0, BuildingBlock: MIDCAF_clean_linker_0, # of connection points: 3
#     Node 4, Type 1, BuildingBlock: KUMBOL_clean_sbu_1, # of connection points: 6
#     Node 5, Type 1, BuildingBlock: KUMBOL_clean_sbu_1, # of connection points: 6
#     Edge 6, Type (0, 1), BuildingBlock: XUDNAN_clean_linker_2, # of connection points: 2
#     Edge 7, Type (0, 1), BuildingBlock: XUDNAN_clean_linker_2, # of connection points: 2
#     Edge 8, Type (0, 1), BuildingBlock: XUDNAN_clean_linker_2, # of connection points: 2
#     Edge 9, Type (0, 1), BuildingBlock: XUDNAN_clean_linker_2, # of connection points: 2
#     Edge 10, Type (0, 1), BuildingBlock: XUDNAN_clean_linker_2, # of connection points: 2
#     Edge 11, Type (0, 1), BuildingBlock: XUDNAN_clean_linker_2, # of connection points: 2
#     Edge 12, Type (0, 1), BuildingBlock: XUDNAN_clean_linker_2, # of connection points: 2
#     Edge 13, Type (0, 1), BuildingBlock: XUDNAN_clean_linker_2, # of connection points: 2
#     Edge 14, Type (0, 1), BuildingBlock: XUDNAN_clean_linker_2, # of connection points: 2
#     Edge 15, Type (0, 1), BuildingBlock: XUDNAN_clean_linker_2, # of connection points: 2
#     Edge 16, Type (0, 1), BuildingBlock: XUDNAN_clean_linker_2, # of connection points: 2
#     Edge 17, Type (0, 1), BuildingBlock: XUDNAN_clean_linker_2, # of connection points: 2
# Relax obj value: 0.018
# Max RMSD: 0.096
# Mean RMSD: 0.058
data_MOF--net-rtl--node1-KUMBOL_clean_sbu_1--node2-MIDCAF_clean_linker_0--edge1-XUDNAN_clean_linker_2
_symmetry_space_group_name_H-M    P1
_symmetry_Int_Tables_number       1
_symmetry_cell_setting            triclinic
loop_
_symmetry_equiv_pos_as_xyz
'x, y, z'
_cell_length_a     39.604524
_cell_length_b     40.24486
_cell_length_c     35.161621
_cell_angle_alpha  79.888145
_cell_angle_beta   99.573987
_cell_angle_gamma 90.317979
loop_
_atom_site_label
_atom_site_type_symbol
_atom_site_fract_x
_atom_site_fract_y
_atom_site_fract_z
_atom_type_partial_charge
C0 C 0.187 0.91216 0.12862 0.0
C1 C 0.19048 0.88639 0.16166 0.0
C2 C 0.20433 0.85483 0.15954 0.0
C3 C 0.21455 0.84918 0.12491 0.0
H4 H 0.27321 0.78334 0.07463 0.0
H5 H 0.30964 0.73655 0.0679 0.0
H6 H 0.32496 0.78992 0.95445 0.0
H7 H 0.28789 0.83581 0.96058 0.0
H8 H 0.22925 0.89117 0.91246 0.0
H9 H 0.19295 0.91181 0.84944 0.0
H10 H 0.1095 0.92868 0.9091 0.0
H11 H 0.1458 0.90855 0.97226 0.0
H12 H 0.19308 0.92659 0.06868 0.0
H13 H 0.17615 0.93663 0.12944 0.0
H14 H 0.20729 0.8346 0.18471 0.0
H15 H 0.22498 0.82456 0.12399 0.0
N16 N 0.24354 0.84477 0.05374 0.0
N17 N 0.23522 0.85781 0.98506 0.0
N18 N 0.20278 0.88637 0.01963 0.0
C19 C 0.25183 0.83956 0.01917 0.0
C20 C 0.21056 0.88107 0.98498 0.0
C21 C 0.21933 0.86857 0.05412 0.0
C22 C 0.27723 0.81306 0.01788 0.0
C23 C 0.2847 0.78518 0.04848 0.0
C24 C 0.30567 0.7584 0.04466 0.0
C25 C 0.31976 0.75917 0.01031 0.0
C26 C 0.31375 0.78799 0.9808 0.0
C27 C 0.29261 0.81444 0.98442 0.0
C28 C 0.19032 0.89798 0.94735 0.0
C29 C 0.20335 0.89984 0.9122 0.0
C30 C 0.18269 0.91183 0.87614 0.0
C31 C 0.14845 0.92164 0.87453 0.0
C32 C 0.13581 0.92111 0.90965 0.0
C33 C 0.15665 0.90971 0.94575 0.0
C34 C 0.21032 0.87475 0.09153 0.0
C35 C 0.19651 0.90631 0.09382 0.0
C36 C 0.62525 0.62194 0.51431 0.0
C37 C 0.61308 0.6441 0.47916 0.0
C38 C 0.61362 0.67901 0.47861 0.0
C39 C 0.62725 0.69169 0.51224 0.0
H40 H 0.69407 0.76633 0.53597 0.0
H41 H 0.73707 0.80683 0.51897 0.0
H42 H 0.78891 0.78844 0.63906 0.0
H43 H 0.74531 0.74757 0.65653 0.0
H44 H 0.67212 0.7188 0.71059 0.0
H45 H 0.65292 0.70032 0.77336 0.0
H46 H 0.62831 0.60313 0.74178 0.0
H47 H 0.64685 0.62167 0.67856 0.0
H48 H 0.64789 0.61723 0.57509 0.0
H49 H 0.62511 0.5949 0.51523 0.0
H50 H 0.60455 0.69652 0.45174 0.0
H51 H 0.62825 0.7188 0.51067 0.0
N52 N 0.67697 0.7109 0.57539 0.0
N53 N 0.68854 0.71163 0.64277 0.0
N54 N 0.65273 0.6704 0.6186 0.0
C55 C 0.69317 0.72482 0.60568 0.0
C56 C 0.66814 0.6845 0.64941 0.0
C57 C 0.65694 0.68377 0.58147 0.0
C58 C 0.71657 0.75316 0.59752 0.0
C59 C 0.71436 0.77103 0.55902 0.0
C60 C 0.73905 0.79428 0.54918 0.0
C61 C 0.76671 0.80031 0.5775 0.0
C62 C 0.76784 0.78425 0.61662 0.0
C63 C 0.74293 0.76083 0.62658 0.0
C64 C 0.66076 0.6718 0.68939 0.0
C65 C 0.66317 0.69329 0.71721 0.0
C66 C 0.65212 0.68278 0.75312 0.0
C67 C 0.63915 0.65033 0.76234 0.0
C68 C 0.63845 0.62819 0.7355 0.0
C69 C 0.64885 0.63892 0.69923 0.0
C70 C 0.63984 0.66969 0.54737 0.0
C71 C 0.63808 0.63467 0.54842 0.0
C72 C 0.85966 0.13005 0.93964 0.0
C73 C 0.83788 0.13976 0.90349 0.0
C74 C 0.80767 0.15842 0.90257 0.0
C75 C 0.79944 0.16691 0.93701 0.0
H76 H 0.72969 0.22528 0.98593 0.0
H77 H 0.68592 0.26644 0.99099 0.0
H78 H 0.73587 0.27139 0.10878 0.0
H79 H 0.77851 0.2301 0.10422 0.0
H80 H 0.81238 0.16102 0.15303 0.0
H81 H 0.83927 0.12827 0.21534 0.0
H82 H 0.89843 0.07142 0.1549 0.0
H83 H 0.87097 0.10371 0.09224 0.0
H84 H 0.86885 0.13018 1.00112 0.0
H85 H 0.88359 0.1165 0.94152 0.0
H86 H 0.7901 0.16608 0.87536 0.0
H87 H 0.77591 0.18107 0.93536 0.0
N88 N 0.78901 0.1894 0.00975 0.0
N89 N 0.79896 0.17932 0.07854 0.0
N90 N 0.82892 0.14743 0.04504 0.0
C91 C 0.78233 0.19696 0.04408 0.0
C92 C 0.82214 0.15446 0.07939 0.0
C93 C 0.81258 0.16472 0.01012 0.0
C94 C 0.75728 0.22398 0.04487 0.0
C95 C 0.73133 0.23538 0.01276 0.0
C96 C 0.70633 0.25901 0.01563 0.0
C97 C 0.707 0.27175 0.05058 0.0
C98 C 0.73391 0.26139 0.08186 0.0
C99 C 0.75853 0.23775 0.07914 0.0
C100 C 0.8394 0.13503 0.11744 0.0
C101 C 0.83116 0.14161 0.15286 0.0
C102 C 0.84676 0.12294 0.18873 0.0
C103 C 0.87104 0.09723 0.19015 0.0
C104 C 0.8795 0.09076 0.15481 0.0
C105 C 0.86387 0.10944 0.11886 0.0
C106 C 0.82108 0.15665 0.97315 0.0
C107 C 0.85128 0.13816 0.97395 0.0
C108 C 0.38719 0.36414 0.55266 0.0
C109 C 0.37351 0.35281 0.58695 0.0
C110 C 0.34926 0.32717 0.58674 0.0
C111 C 0.33826 0.31383 0.5528 0.0
H112 H 0.28998 0.2287 0.50566 0.0
H113 H 0.24495 0.18742 0.50659 0.0
H114 H 0.19754 0.23611 0.39037 0.0
H115 H 0.24404 0.2758 0.38873 0.0
H116 H 0.3006 0.31794 0.33752 0.0
H117 H 0.3176 0.34637 0.2766 0.0
H118 H 0.40765 0.3829 0.34244 0.0
H119 H 0.39081 0.35459 0.40342 0.0
H120 H 0.38685 0.36061 0.49262 0.0
H121 H 0.4063 0.3835 0.552 0.0
H122 H 0.33785 0.31812 0.61246 0.0
H123 H 0.31897 0.29466 0.55361 0.0
N124 N 0.31261 0.29011 0.4809 0.0
N125 N 0.30811 0.29495 0.41274 0.0
N126 N 0.34746 0.32755 0.447 0.0
C127 C 0.29797 0.28057 0.44686 0.0
C128 C 0.33317 0.31823 0.41266 0.0
C129 C 0.33723 0.31374 0.48123 0.0
C130 C 0.2706 0.2554 0.44707 0.0
C131 C 0.26997 0.2304 0.48027 0.0
C132 C 0.24387 0.20688 0.48087 0.0
C133 C 0.21719 0.20824 0.44863 0.0
C134 C 0.21786 0.23355 0.4155 0.0
C135 C 0.24445 0.25655 0.41456 0.0
C136 C 0.34421 0.33411 0.37545 0.0
C137 C 0.32415 0.33182 0.33908 0.0
C138 C 0.33378 0.34823 0.30416 0.0
C139 C 0.3639 0.36692 0.3048 0.0
C140 C 0.38444 0.36847 0.34104 0.0
C141 C 0.37461 0.35243 0.37598 0.0
C142 C 0.35114 0.32587 0.51812 0.0
C143 C 0.37615 0.35084 0.51865 0.0
C144 C 0.96846 0.10455 0.50248 0.0
C145 C 0.91212 0.1072 0.46242 0.0
C146 C 0.93881 0.08874 0.48914 0.0
C147 C 0.91659 0.1414 0.44757 0.0
C148 C 0.97241 0.13925 0.48914 0.0
C149 C 0.94674 0.15736 0.46079 0.0
N150 N 0.99224 0.08659 0.53075 0.0
C151 C 0.0193 0.10217 0.54901 0.0
C152 C 1.00132 0.15498 0.50597 0.0
C153 C 0.02452 0.13648 0.53654 0.0
Gd154 Gd 0.03985 0.95472 0.52012 0.0
Gd155 Gd 0.98199 0.02907 0.54864 0.0
N156 N 0.93521 0.05575 0.50421 0.0
C157 C 0.88137 0.09097 0.45238 0.0
C158 C 0.90466 0.0403 0.49634 0.0
C159 C 0.87752 0.05747 0.46971 0.0
H160 H 0.9016 0.01448 0.51002 0.0
H161 H 0.85362 0.04495 0.46275 0.0
H162 H 0.10681 0.0048 0.50065 0.0
H163 H 0.03685 0.08803 0.57324 0.0
H164 H 0.16298 0.0181 0.535 0.0
H165 H 0.86022 0.1043 0.43198 0.0
H166 H 0.89655 0.15592 0.42661 0.0
H167 H 0.01553 0.88473 0.57284 0.0
H168 H 0.00527 0.18163 0.49663 0.0
H169 H 0.04611 0.14876 0.55085 0.0
H170 H 0.18052 0.9362 0.65341 0.0
H171 H 0.94944 0.18398 0.4499 0.0
H172 H 0.09363 0.85468 0.67316 0.0
H173 H 0.03735 0.84524 0.63447 0.0
N174 N 0.05883 0.91603 0.57751 0.0
C175 C 0.09016 0.92121 0.59762 0.0
C176 C 0.04019 0.88874 0.58966 0.0
C177 C 0.0842 0.87195 0.64622 0.0
C178 C 0.05242 0.86651 0.62446 0.0
C179 C 0.10365 0.89933 0.63271 0.0
H180 H 0.14692 0.88876 0.67997 0.0
N181 N 0.09523 0.96866 0.54854 0.0
C182 C 0.10872 0.94849 0.58297 0.0
C183 C 0.16084 0.98017 0.58594 0.0
C184 C 0.14177 0.95392 0.60273 0.0
C185 C 0.11521 0.99198 0.53029 0.0
C186 C 0.14773 0.99889 0.54921 0.0
O187 O 0.96743 0.02156 0.4857 0.0
O188 O 0.00274 0.98174 0.4687 0.0
O189 O 0.07392 0.93974 0.48298 0.0
O190 O 0.03409 0.90673 0.5002 0.0
O191 O 0.95593 0.97878 0.54593 0.0
O192 O 0.98509 0.94041 0.51863 0.0
O193 O 0.02363 0.95676 0.57833 0.0
O194 O 0.03228 0.01069 0.58602 0.0
O195 O 0.9615 0.00653 0.6006 0.0
O196 O 0.96171 0.06088 0.5839 0.0
O197 O 0.04562 0.00876 0.49172 0.0
O198 O 0.03746 0.03538 0.54185 0.0
C199 C 0.9774 0.00438 0.46067 0.0
C200 C 0.95843 0.95049 0.53208 0.0
C201 C 0.04668 0.9079 0.4365 0.0
C202 C 0.06202 0.90357 0.37296 0.0
C203 C 0.0028 0.8979 0.38282 0.0
C204 C 0.01225 0.9026 0.42149 0.0
C205 C 0.02746 0.89827 0.35869 0.0
C206 C 0.07144 0.90847 0.41198 0.0
C207 C 0.057 0.91273 0.47754 0.0
C208 C 0.1552 0.93235 0.63786 0.0
C209 C 0.13613 0.90524 0.65292 0.0
H210 H 0.18626 0.98523 0.60028 0.0
C211 C 0.03657 0.97847 0.60004 0.0
C212 C 0.04726 0.03588 0.50791 0.0
C213 C 0.96497 0.03906 0.65104 0.0
C214 C 0.95035 0.05523 0.71021 0.0
C215 C 0.00706 0.03221 0.71054 0.0
C216 C 0.99811 0.02996 0.67104 0.0
C217 C 0.98339 0.0447 0.73012 0.0
C218 C 0.94123 0.05206 0.67057 0.0
C219 C 0.9549 0.03559 0.60978 0.0
H220 H 0.97622 0.89404 0.37148 0.0
H221 H 0.99253 0.90214 0.43953 0.0
H222 H 0.01942 0.89491 0.32865 0.0
H223 H 0.09805 0.91235 0.42341 0.0
H224 H 0.03252 0.02461 0.72593 0.0
H225 H 0.01704 0.02143 0.656 0.0
H226 H 0.99125 0.047 0.76054 0.0
H227 H 0.9157 0.0596 0.65495 0.0
C228 C 0.60574 0.54729 0.04443 0.0
C229 C 0.5988 0.6062 0.01332 0.0
C230 C 0.58539 0.57653 0.03242 0.0
C231 C 0.63247 0.60581 0.00563 0.0
C232 C 0.63967 0.54691 0.03719 0.0
C233 C 0.65284 0.57626 0.01754 0.0
N234 N 0.59203 0.519 0.06257 0.0
C235 C 0.61131 0.49008 0.07603 0.0
C236 C 0.6593 0.51697 0.04982 0.0
C237 C 0.64512 0.48851 0.06959 0.0
Gd238 Gd 0.46689 0.48391 0.99028 0.0
Gd239 Gd 0.53454 0.52339 0.06972 0.0
N240 N 0.55249 0.57586 0.03924 0.0
C241 C 0.57804 0.63546 1.00272 0.0
C242 C 0.53296 0.60487 0.03112 0.0
C243 C 0.54518 0.6349 0.01221 0.0
H244 H 0.50821 0.60537 0.03973 0.0
H245 H 0.52931 0.65768 0.00526 0.0
H246 H 0.50205 0.40437 0.0112 0.0
H247 H 0.60073 0.46831 0.09209 0.0
H248 H 0.49183 0.34945 0.04999 0.0
H249 H 0.58738 0.65875 0.98797 0.0
H250 H 0.64307 0.62829 0.99065 0.0
H251 H 0.39406 0.52876 0.97489 0.0
H252 H 0.68547 0.51565 0.04478 0.0
H253 H 0.66025 0.4654 0.07995 0.0
H254 H 0.38088 0.36337 0.08329 0.0
H255 H 0.67879 0.5764 0.01148 0.0
H256 H 0.32017 0.46841 0.03004 0.0
H257 H 0.33576 0.5222 0.99161 0.0
N258 N 0.41078 0.47926 0.00337 0.0
C259 C 0.40258 0.44926 0.02384 0.0
C260 C 0.38725 0.50519 0.99146 0.0
C261 C 0.34561 0.47109 0.02253 0.0
C262 C 0.35433 0.50152 1.00087 0.0
C263 C 0.36983 0.44447 0.03429 0.0
H264 H 0.33755 0.40949 0.0651 0.0
N265 N 0.45848 0.42882 0.02329 0.0
C266 C 0.42739 0.42355 0.03479 0.0
C267 C 0.44373 0.3655 0.06259 0.0
C268 C 0.41948 0.39195 0.05546 0.0
C269 C 0.48025 0.40198 0.02604 0.0
C270 C 0.47387 0.37032 0.04689 0.0
O271 O 0.54747 0.52116 0.0095 0.0
O272 O 0.49643 0.52869 0.96685 0.0
O273 O 0.47475 0.45761 0.94338 0.0
O274 O 0.43075 0.49086 0.93558 0.0
O275 O 0.4827 0.55073 0.04913 0.0
O276 O 0.46159 0.54028 0.98642 0.0
O277 O 0.45109 0.49229 0.04691 0.0
O278 O 0.50056 0.48136 0.09131 0.0
O279 O 0.52738 0.55295 0.11419 0.0
O280 O 0.56688 0.51385 0.1268 0.0
O281 O 0.52107 0.46182 0.00845 0.0
O282 O 0.53455 0.4671 0.07331 0.0
C283 C 0.52915 0.53452 0.97575 0.0
C284 C 0.46261 0.55833 0.01458 0.0
C285 C 0.42471 0.4439 0.90349 0.0
C286 C 0.40469 0.41687 0.84711 0.0
C287 C 0.38384 0.39892 0.90866 0.0
C288 C 0.40405 0.42276 0.9255 0.0
C289 C 0.38405 0.39597 0.86973 0.0
C290 C 0.42506 0.44083 0.86442 0.0
C291 C 0.44626 0.46902 0.92091 0.0
C292 C 0.38721 0.38735 0.06697 0.0
C293 C 0.36245 0.41354 0.05639 0.0
H294 H 0.43866 0.34084 0.07834 0.0
C295 C 0.46706 0.48182 0.08271 0.0
C296 C 0.53844 0.45209 0.04401 0.0
C297 C 0.57668 0.55984 0.1602 0.0
C298 C 0.59462 0.58509 0.21842 0.0
C299 C 0.6285 0.5923 0.16594 0.0
C300 C 0.60534 0.57322 0.1448 0.0
C301 C 0.62334 0.59809 0.20262 0.0
C302 C 0.57124 0.56608 0.19682 0.0
C303 C 0.55302 0.5381 0.13945 0.0
H304 H 0.36782 0.38279 0.92578 0.0
H305 H 0.40344 0.4247 0.95556 0.0
H306 H 0.36762 0.37768 0.8572 0.0
H307 H 0.44148 0.4569 0.8477 0.0
H308 H 0.65061 0.60251 0.15395 0.0
H309 H 0.61005 0.56863 0.11676 0.0
H310 H 0.64158 0.61307 0.21842 0.0
H311 H 0.54924 0.55548 0.20888 0.0
H312 H 0.18898 0.17734 0.51257 0.0
H313 H 0.1813 0.18189 0.38691 0.0
H314 H 0.13423 0.14185 0.38817 0.0
H315 H 0.17668 0.08741 0.53318 0.0
H316 H 0.15353 0.08974 0.57266 0.0
H317 H 0.18517 0.12064 0.56159 0.0
H318 H 0.13977 0.16889 0.5532 0.0
H319 H 0.10852 0.1378 0.56492 0.0
H320 H 0.10011 0.16799 0.51977 0.0
H321 H 0.08896 0.10008 0.40297 0.0
H322 H 0.05093 0.05709 0.43116 0.0
H323 H 0.09051 0.07682 0.54747 0.0
C324 C 0.17777 0.16985 0.48523 0.0
C325 C 0.18891 0.18344 0.44952 0.0
C326 C 0.17288 0.17286 0.41456 0.0
C327 C 0.14619 0.14983 0.41496 0.0
C328 C 0.13594 0.13712 0.4506 0.0
C329 C 0.15151 0.1464 0.48517 0.0
C330 C 0.13697 0.12753 0.51985 0.0
C331 C 0.16474 0.105 0.5485 0.0
C332 C 0.12033 0.15203 0.54063 0.0
C333 C 0.11044 0.10652 0.49927 0.0
C334 C 0.11025 0.1125 0.4593 0.0
C335 C 0.08878 0.0953 0.43419 0.0
C336 C 0.06731 0.07096 0.45043 0.0
C337 C 0.06744 0.06408 0.49134 0.0
C338 C 0.08914 0.08229 0.51598 0.0
H339 H 0.3666 0.71645 0.06383 0.0
H340 H 0.31582 0.73408 0.94238 0.0
H341 H 0.34758 0.68565 0.93051 0.0
H342 H 0.44879 0.69028 0.04667 0.0
H343 H 0.45643 0.65793 0.08983 0.0
H344 H 0.43026 0.69459 0.08911 0.0
H345 H 0.38055 0.65603 0.10712 0.0
H346 H 0.40664 0.61928 0.10801 0.0
H347 H 0.36523 0.62529 0.07708 0.0
H348 H 0.38454 0.63589 0.93112 0.0
H349 H 0.42366 0.58642 0.94469 0.0
H350 H 0.44928 0.59883 0.06641 0.0
C351 C 0.36202 0.71002 0.0348 0.0
C352 C 0.33898 0.72949 0.00392 0.0
C353 C 0.3339 0.7202 0.96632 0.0
C354 C 0.35164 0.69253 0.9593 0.0
C355 C 0.37428 0.67412 0.9902 0.0
C356 C 0.37947 0.68228 0.02726 0.0
C357 C 0.40502 0.65785 0.05532 0.0
C358 C 0.43702 0.67627 0.07116 0.0
C359 C 0.38836 0.63846 0.08886 0.0
C360 C 0.41326 0.63477 0.02816 0.0
C361 C 0.39529 0.64476 0.99073 0.0
C362 C 0.39869 0.6277 0.96035 0.0
C363 C 0.421 0.59956 0.96844 0.0
C364 C 0.43958 0.58856 0.00667 0.0
C365 C 0.43555 0.60654 0.03686 0.0
H366 H 0.80062 0.85114 0.61117 0.0
H367 H 0.79821 0.7953 0.51579 0.0
H368 H 0.84538 0.829 0.49304 0.0
H369 H 0.81877 0.93242 0.55633 0.0
H370 H 0.84719 0.94496 0.59669 0.0
H371 H 0.81297 0.91658 0.606 0.0
H372 H 0.85671 0.87276 0.65038 0.0
H373 H 0.89101 0.90109 0.64135 0.0
H374 H 0.89256 0.85884 0.63111 0.0
H375 H 0.89321 0.86694 0.48122 0.0
H376 H 0.93967 0.90788 0.48074 0.0
H377 H 0.91137 0.94111 0.58243 0.0
C378 C 0.81015 0.84605 0.58558 0.0
C379 C 0.79553 0.82082 0.565 0.0
C380 C 0.80862 0.81488 0.53159 0.0
C381 C 0.8355 0.83379 0.51852 0.0
C382 C 0.84906 0.85868 0.53906 0.0
C383 C 0.83695 0.86499 0.57183 0.0
C384 C 0.85642 0.89334 0.58834 0.0
C385 C 0.8324 0.92362 0.58673 0.0
C386 C 0.8753 0.88074 0.63028 0.0
C387 C 0.8814 0.9017 0.55982 0.0
C388 C 0.87665 0.88126 0.53174 0.0
C389 C 0.89714 0.88323 0.50292 0.0
C390 C 0.9235 0.9065 0.50296 0.0
C391 C 0.92905 0.9277 0.53147 0.0
C392 C 0.90742 0.92551 0.55998 0.0
H393 H 0.67435 0.3253 0.99694 0.0
H394 H 0.67694 0.27031 0.11536 0.0
H395 H 0.6341 0.3102 0.12604 0.0
H396 H 0.66514 0.40786 0.01819 0.0
H397 H 0.63589 0.42351 0.97368 0.0
H398 H 0.66651 0.39033 0.97465 0.0
H399 H 0.61728 0.35238 0.95046 0.0
H400 H 0.58657 0.38557 0.9493 0.0
H401 H 0.58222 0.34422 0.97734 0.0
H402 H 0.59354 0.35731 0.1256 0.0
H403 H 0.5545 0.40719 0.11221 0.0
H404 H 0.57537 0.4304 0.99324 0.0
C405 C 0.66557 0.32139 0.02491 0.0
C406 C 0.67944 0.29486 0.05548 0.0
C407 C 0.66737 0.29084 0.09177 0.0
C408 C 0.64284 0.31324 0.09808 0.0
C409 C 0.63022 0.33942 0.06771 0.0
C410 C 0.64083 0.34348 0.0317 0.0
C411 C 0.62311 0.37396 0.00414 0.0
C412 C 0.64923 0.40047 0.99196 0.0
C413 C 0.60098 0.36339 0.96818 0.0
C414 C 0.60114 0.38639 0.03045 0.0
C415 C 0.60583 0.36617 0.06706 0.0
C416 C 0.5894 0.3732 0.09694 0.0
C417 C 0.56744 0.40162 0.08915 0.0
C418 C 0.56191 0.42243 0.05171 0.0
C419 C 0.5789 0.41462 0.02199 0.0
H420 H 0.1459 0.8486 0.20171 0.0
H421 H 0.20711 0.93821 0.20164 0.0
H422 H 0.184 0.95028 0.2592 0.0
H423 H 0.07231 0.88511 0.22312 0.0
H424 H 0.06029 0.84754 0.25351 0.0
H425 H 0.08434 0.84405 0.21518 0.0
H426 H 0.13127 0.80825 0.26568 0.0
H427 H 0.10728 0.81152 0.30421 0.0
H428 H 0.15112 0.82468 0.3083 0.0
H429 H 0.15219 0.95374 0.31499 0.0
H430 H 0.11185 0.95011 0.36222 0.0
H431 H 0.07009 0.85927 0.32408 0.0
C432 C 0.15493 0.87034 0.2144 0.0
C433 C 0.17854 0.89231 0.1977 0.0
C434 C 0.18911 0.92106 0.21426 0.0
C435 C 0.17623 0.92801 0.24696 0.0
C436 C 0.15263 0.90607 0.2625 0.0
C437 C 0.14197 0.87789 0.24666 0.0
C438 C 0.11449 0.85975 0.26694 0.0
C439 C 0.08088 0.8591 0.23796 0.0
C440 C 0.12679 0.82393 0.28751 0.0
C441 C 0.11104 0.88233 0.29634 0.0
C442 C 0.13357 0.90865 0.29371 0.0
C443 C 0.13458 0.93312 0.31746 0.0
C444 C 0.1117 0.93079 0.34428 0.0
C445 C 0.08789 0.90444 0.34676 0.0
C446 C 0.0879 0.8798 0.32266 0.0
H447 H 0.65197 0.59364 0.81989 0.0
H448 H 0.58925 0.68531 0.78382 0.0
H449 H 0.5575 0.66767 0.83851 0.0
H450 H 0.58849 0.53869 0.84642 0.0
H451 H 0.61422 0.51424 0.88919 0.0
H452 H 0.6343 0.53532 0.84959 0.0
H453 H 0.67378 0.56601 0.89792 0.0
H454 H 0.65365 0.54541 0.93788 0.0
H455 H 0.65515 0.59083 0.92746 0.0
H456 H 0.52726 0.63665 0.89001 0.0
H457 H 0.50374 0.5963 0.93991 0.0
H458 H 0.58888 0.52682 0.94798 0.0
C459 C 0.63196 0.61018 0.82409 0.0
C460 C 0.62306 0.64089 0.7978 0.0
C461 C 0.59667 0.6619 0.80393 0.0
C462 C 0.57848 0.65207 0.83484 0.0
C463 C 0.58748 0.62146 0.85992 0.0
C464 C 0.61402 0.60108 0.85547 0.0
C465 C 0.61772 0.56899 0.88604 0.0
C466 C 0.61341 0.53746 0.86663 0.0
C467 C 0.65212 0.56774 0.91398 0.0
C468 C 0.58804 0.57378 0.90697 0.0
C469 C 0.57101 0.6043 0.89141 0.0
C470 C 0.54081 0.61306 0.90307 0.0
C471 C 0.52753 0.58996 0.93115 0.0
C472 C 0.54475 0.55881 0.94776 0.0
C473 C 0.57569 0.55084 0.93609 0.0
H474 H 0.89363 0.11979 0.25913 0.0
H475 H 0.88453 0.02893 0.20779 0.0
H476 H 0.91009 0.99525 0.27169 0.0
H477 H 0.97404 0.09698 0.32322 0.0
H478 H 0.9624 0.11546 0.3625 0.0
H479 H 0.94425 0.13244 0.31244 0.0
H480 H 0.88239 0.12337 0.32839 0.0
H481 H 0.90166 0.10837 0.37834 0.0
H482 H 0.8717 0.08244 0.35303 0.0
H483 H 0.93709 0.9716 0.34096 0.0
H484 H 0.9633 0.95962 0.41095 0.0
H485 H 0.95247 0.06546 0.41777 0.0
C486 C 0.89677 0.09278 0.26133 0.0
C487 C 0.88707 0.07702 0.22838 0.0
C488 C 0.89218 0.04165 0.23245 0.0
C489 C 0.90646 0.02227 0.26868 0.0
C490 C 0.91546 0.03862 0.30058 0.0
C491 C 0.91088 0.07306 0.29725 0.0
C492 C 0.92264 0.08446 0.33603 0.0
C493 C 0.95262 0.10877 0.33337 0.0
C494 C 0.89276 0.10056 0.34974 0.0
C495 C 0.93422 0.05096 0.3619 0.0
C496 C 0.93014 0.02488 0.34076 0.0
C497 C 0.94024 0.99178 0.35785 0.0
C498 C 0.95518 0.98523 0.39751 0.0
C499 C 0.95963 0.01155 0.41969 0.0
C500 C 0.94869 0.04476 0.40169 0.0
H501 H 0.38509 0.32162 0.66427 0.0
H502 H 0.3829 0.41999 0.58962 0.0
H503 H 0.3948 0.44683 0.64823 0.0
H504 H 0.34127 0.34694 0.73392 0.0
H505 H 0.36585 0.31995 0.77555 0.0
H506 H 0.3606 0.30815 0.7279 0.0
H507 H 0.42652 0.30367 0.73301 0.0
H508 H 0.43199 0.31534 0.78081 0.0
H509 H 0.45227 0.33925 0.74286 0.0
H510 H 0.40229 0.46335 0.71487 0.0
H511 H 0.40536 0.46815 0.78439 0.0
H512 H 0.40286 0.35897 0.81541 0.0
C513 C 0.3873 0.3488 0.66019 0.0
C514 C 0.38319 0.36866 0.62226 0.0
C515 C 0.38653 0.40414 0.61831 0.0
C516 C 0.39311 0.41966 0.65145 0.0
C517 C 0.39645 0.39936 0.68835 0.0
C518 C 0.39384 0.36468 0.6929 0.0
C519 C 0.39689 0.34874 0.7357 0.0
C520 C 0.3642 0.32984 0.74372 0.0
C521 C 0.42882 0.32537 0.74886 0.0
C522 C 0.40079 0.37994 0.75446 0.0
C523 C 0.40076 0.40887 0.7267 0.0
C524 C 0.40278 0.44083 0.73692 0.0
C525 C 0.40468 0.44329 0.77653 0.0
C526 C 0.40446 0.41395 0.80547 0.0
C527 C 0.40282 0.38191 0.79407 0.0
H528 H 0.65136 0.61015 0.44015 0.0
H529 H 0.54964 0.65177 0.43425 0.0
H530 H 0.53217 0.63671 0.36851 0.0
H531 H 0.65827 0.64274 0.34302 0.0
H532 H 0.68191 0.60714 0.33509 0.0
H533 H 0.68494 0.61657 0.38369 0.0
H534 H 0.66591 0.55612 0.40888 0.0
H535 H 0.66308 0.54639 0.36034 0.0
H536 H 0.62654 0.54076 0.38509 0.0
H537 H 0.52712 0.62043 0.3018 0.0
H538 H 0.53548 0.60667 0.23806 0.0
H539 H 0.64151 0.57839 0.2863 0.0
C540 C 0.62516 0.61513 0.42536 0.0
C541 C 0.60152 0.63141 0.4423 0.0
C542 C 0.56782 0.63881 0.42175 0.0
C543 C 0.55775 0.63035 0.38452 0.0
C544 C 0.58185 0.61484 0.36818 0.0
C545 C 0.6149 0.60737 0.38791 0.0
C546 C 0.63673 0.59354 0.36245 0.0
C547 C 0.66725 0.61637 0.35567 0.0
C548 C 0.64877 0.55703 0.38025 0.0
C549 C 0.61101 0.59497 0.32511 0.0
C550 C 0.57936 0.60679 0.3292 0.0
C551 C 0.55173 0.61092 0.29836 0.0
C552 C 0.55668 0.60299 0.26232 0.0
C553 C 0.58912 0.59153 0.25727 0.0
C554 C 0.61648 0.58729 0.28926 0.0
H555 H 0.8694 0.08121 0.89548 0.0
H556 H 0.82821 0.17789 0.8291 0.0
H557 H 0.84743 0.16413 0.77026 0.0
H558 H 0.94508 0.08348 0.85591 0.0
H559 H 0.94707 0.03878 0.85569 0.0
H560 H 0.92612 0.05431 0.89095 0.0
H561 H 0.87067 0.02401 0.8673 0.0
H562 H 0.89149 0.00836 0.8319 0.0
H563 H 0.8518 0.03235 0.81614 0.0
H564 H 0.87522 0.14148 0.71981 0.0
H565 H 0.91096 0.11294 0.68319 0.0
H566 H 0.93592 0.03256 0.7838 0.0
C567 C 0.86426 0.09957 0.86863 0.0
C568 C 0.84718 0.13068 0.86712 0.0
C569 C 0.84069 0.15365 0.83103 0.0
C570 C 0.85166 0.14612 0.79743 0.0
C571 C 0.86906 0.11552 0.8003 0.0
C572 C 0.87531 0.09263 0.83504 0.0
C573 C 0.89664 0.06263 0.83134 0.0
C574 C 0.93075 0.05965 0.86017 0.0
C575 C 0.87643 0.0299 0.837 0.0
C576 C 0.90222 0.07257 0.78936 0.0
C577 C 0.88565 0.10288 0.77168 0.0
C578 C 0.88802 0.11759 0.73327 0.0
C579 C 0.90825 0.10115 0.71264 0.0
C580 C 0.92616 0.07055 0.73065 0.0
C581 C 0.92261 0.05598 0.76932 0.0
H582 H 0.42676 0.36965 0.2809 0.0
H583 H 0.3218 0.40749 0.24574 0.0
H584 H 0.33706 0.44124 0.18551 0.0
H585 H 0.46751 0.44589 0.24676 0.0
H586 H 0.50075 0.4253 0.22939 0.0
H587 H 0.48162 0.40345 0.26946 0.0
H588 H 0.4657 0.35426 0.23149 0.0
H589 H 0.48508 0.3759 0.1915 0.0
H590 H 0.44116 0.36325 0.18268 0.0
H591 H 0.36407 0.47279 0.13092 0.0
H592 H 0.40028 0.49728 0.08297 0.0
H593 H 0.48742 0.43748 0.15177 0.0
C594 C 0.40704 0.38506 0.26048 0.0
C595 C 0.37307 0.38598 0.26794 0.0
C596 C 0.34787 0.40616 0.24038 0.0
C597 C 0.35633 0.42554 0.20623 0.0
C598 C 0.39006 0.42427 0.1999 0.0
C599 C 0.41497 0.40431 0.22599 0.0
C600 C 0.44921 0.40726 0.21185 0.0
C601 C 0.47637 0.42132 0.24111 0.0
C602 C 0.46097 0.37314 0.20391 0.0
C603 C 0.43975 0.43242 0.17409 0.0
C604 C 0.40551 0.4419 0.16783 0.0
C605 C 0.39082 0.46527 0.13531 0.0
C606 C 0.41157 0.47893 0.10815 0.0
C607 C 0.44647 0.46885 0.11329 0.0
C608 C 0.4608 0.44561 0.14702 0.0
H609 H 0.15763 0.96619 0.80837 0.0
H610 H 0.08736 0.89293 0.85459 0.0
H611 H 0.05054 0.90067 0.78955 0.0
H612 H 0.09216 0.02249 0.7442 0.0
H613 H 0.1163 0.03261 0.70467 0.0
H614 H 0.13812 0.02263 0.75467 0.0
H615 H 0.17349 0.97617 0.73885 0.0
H616 H 0.15307 0.98414 0.6883 0.0
H617 H 0.15283 0.94239 0.71737 0.0
H618 H 0.02452 0.91201 0.71901 0.0
H619 H 0.0069 0.93115 0.64776 0.0
H620 H 0.09169 0.99975 0.64705 0.0
C621 C 0.13424 0.95218 0.80477 0.0
C622 C 0.12516 0.92906 0.83638 0.0
C623 C 0.09447 0.91104 0.83077 0.0
C624 C 0.07352 0.91515 0.79395 0.0
C625 C 0.08338 0.93776 0.76323 0.0
C626 C 0.11264 0.95647 0.76832 0.0
C627 C 0.11741 0.97886 0.73022 0.0
C628 C 0.11586 0.01637 0.73361 0.0
C629 C 0.15118 0.96984 0.71789 0.0
C630 C 0.08656 0.9693 0.70281 0.0
C631 C 0.06747 0.94535 0.72252 0.0
C632 C 0.03887 0.93115 0.70332 0.0
C633 C 0.02917 0.942 0.66293 0.0
C634 C 0.04774 0.96711 0.64236 0.0
C635 C 0.0768 0.98092 0.66249 0.0
loop_
_geom_bond_atom_site_label_1
_geom_bond_atom_site_label_2
_geom_bond_distance
_geom_bond_site_symmetry_2
_ccdc_geom_bond_type
C0 C1 1.384 . S
C0 H13 0.947 . S
C0 C35 1.382 . S
C1 C0 1.384 . S
C1 C2 1.378 . S
C2 C1 1.378 . S
C2 C3 1.378 . S
C2 H14 0.952 . S
C3 C2 1.378 . S
C3 H15 0.950 . S
C3 C34 1.383 . S
H4 C23 0.947 . S
H5 C24 0.946 . S
H6 C26 0.953 . S
H7 C27 0.945 . S
H8 C29 0.952 . S
H9 C30 0.949 . S
H10 C32 0.950 . S
H11 C33 0.948 . S
H12 C35 0.951 . S
H13 C0 0.947 . S
H14 C2 0.952 . S
H15 C3 0.950 . S
N16 C19 1.382 . S
N16 C21 1.363 . S
N17 C19 1.371 1_556 S
N17 C20 1.372 . S
N18 C20 1.361 1_554 S
N18 C21 1.377 . S
C19 N16 1.382 . S
C19 N17 1.371 1_554 S
C19 C22 1.480 . S
C20 N17 1.372 . S
C20 N18 1.361 1_556 S
C20 C28 1.457 . S
C21 N16 1.363 . S
C21 N18 1.377 . S
C21 C34 1.479 . S
C22 C19 1.480 . S
C22 C23 1.383 . S
C22 C27 1.385 1_554 S
C23 H4 0.947 . S
C23 C22 1.383 . S
C23 C24 1.388 . S
C24 H5 0.946 . S
C24 C23 1.388 . S
C24 C25 1.384 . S
C25 C24 1.384 . S
C25 C26 1.377 1_554 S
C26 H6 0.953 . S
C26 C25 1.377 1_556 S
C26 C27 1.369 . S
C27 H7 0.945 . S
C27 C22 1.385 1_556 S
C27 C26 1.369 . S
C28 C20 1.457 . S
C28 C29 1.372 . S
C28 C33 1.364 . S
C29 H8 0.952 . S
C29 C28 1.372 . S
C29 C30 1.389 . S
C30 H9 0.949 . S
C30 C29 1.389 . S
C30 C31 1.387 . S
C31 C30 1.387 . S
C31 C32 1.372 . S
C32 H10 0.950 . S
C32 C31 1.372 . S
C32 C33 1.379 . S
C33 H11 0.948 . S
C33 C28 1.364 . S
C33 C32 1.379 . S
C34 C3 1.383 . S
C34 C21 1.479 . S
C34 C35 1.398 . S
C35 C0 1.382 . S
C35 H12 0.951 . S
C35 C34 1.398 . S
C36 C37 1.384 . S
C36 H49 0.947 . S
C36 C71 1.382 . S
C37 C36 1.384 . S
C37 C38 1.378 . S
C38 C37 1.378 . S
C38 C39 1.378 . S
C38 H50 0.952 . S
C39 C38 1.378 . S
C39 H51 0.950 . S
C39 C70 1.383 . S
H40 C59 0.947 . S
H41 C60 0.946 . S
H42 C62 0.953 . S
H43 C63 0.945 . S
H44 C65 0.952 . S
H45 C66 0.949 . S
H46 C68 0.950 . S
H47 C69 0.948 . S
H48 C71 0.951 . S
H49 C36 0.947 . S
H50 C38 0.952 . S
H51 C39 0.950 . S
N52 C55 1.382 . S
N52 C57 1.363 . S
N53 C55 1.371 . S
N53 C56 1.372 . S
N54 C56 1.361 . S
N54 C57 1.377 . S
C55 N52 1.382 . S
C55 N53 1.371 . S
C55 C58 1.480 . S
C56 N53 1.372 . S
C56 N54 1.361 . S
C56 C64 1.457 . S
C57 N52 1.363 . S
C57 N54 1.377 . S
C57 C70 1.479 . S
C58 C55 1.480 . S
C58 C59 1.383 . S
C58 C63 1.385 . S
C59 H40 0.947 . S
C59 C58 1.383 . S
C59 C60 1.388 . S
C60 H41 0.946 . S
C60 C59 1.388 . S
C60 C61 1.384 . S
C61 C60 1.384 . S
C61 C62 1.377 . S
C62 H42 0.953 . S
C62 C61 1.377 . S
C62 C63 1.369 . S
C63 H43 0.945 . S
C63 C58 1.385 . S
C63 C62 1.369 . S
C64 C56 1.457 . S
C64 C65 1.372 . S
C64 C69 1.364 . S
C65 H44 0.952 . S
C65 C64 1.372 . S
C65 C66 1.389 . S
C66 H45 0.949 . S
C66 C65 1.389 . S
C66 C67 1.387 . S
C67 C66 1.387 . S
C67 C68 1.372 . S
C68 H46 0.950 . S
C68 C67 1.372 . S
C68 C69 1.379 . S
C69 H47 0.948 . S
C69 C64 1.364 . S
C69 C68 1.379 . S
C70 C39 1.383 . S
C70 C57 1.479 . S
C70 C71 1.398 . S
C71 C36 1.382 . S
C71 H48 0.951 . S
C71 C70 1.398 . S
C72 C73 1.384 . S
C72 H85 0.947 . S
C72 C107 1.382 . S
C73 C72 1.384 . S
C73 C74 1.378 . S
C74 C73 1.378 . S
C74 C75 1.378 . S
C74 H86 0.952 . S
C75 C74 1.378 . S
C75 H87 0.950 . S
C75 C106 1.383 . S
H76 C95 0.947 . S
H77 C96 0.946 . S
H78 C98 0.953 . S
H79 C99 0.945 . S
H80 C101 0.952 . S
H81 C102 0.949 . S
H82 C104 0.950 . S
H83 C105 0.948 . S
H84 C107 0.951 1_554 S
H85 C72 0.947 . S
H86 C74 0.952 . S
H87 C75 0.950 . S
N88 C91 1.382 . S
N88 C93 1.363 . S
N89 C91 1.371 . S
N89 C92 1.372 . S
N90 C92 1.361 . S
N90 C93 1.377 . S
C91 N88 1.382 . S
C91 N89 1.371 . S
C91 C94 1.480 . S
C92 N89 1.372 . S
C92 N90 1.361 . S
C92 C100 1.457 . S
C93 N88 1.363 . S
C93 N90 1.377 . S
C93 C106 1.479 1_554 S
C94 C91 1.480 . S
C94 C95 1.383 1_554 S
C94 C99 1.385 . S
C95 H76 0.947 . S
C95 C94 1.383 1_556 S
C95 C96 1.388 . S
C96 H77 0.946 . S
C96 C95 1.388 . S
C96 C97 1.384 1_556 S
C97 C96 1.384 1_554 S
C97 C98 1.377 . S
C98 H78 0.953 . S
C98 C97 1.377 . S
C98 C99 1.369 . S
C99 H79 0.945 . S
C99 C94 1.385 . S
C99 C98 1.369 . S
C100 C92 1.457 . S
C100 C101 1.372 . S
C100 C105 1.364 . S
C101 H80 0.952 . S
C101 C100 1.372 . S
C101 C102 1.389 . S
C102 H81 0.949 . S
C102 C101 1.389 . S
C102 C103 1.387 . S
C103 C102 1.387 . S
C103 C104 1.372 . S
C104 H82 0.950 . S
C104 C103 1.372 . S
C104 C105 1.379 . S
C105 H83 0.948 . S
C105 C100 1.364 . S
C105 C104 1.379 . S
C106 C75 1.383 . S
C106 C93 1.479 1_556 S
C106 C107 1.398 . S
C107 C72 1.382 . S
C107 H84 0.951 1_556 S
C107 C106 1.398 . S
C108 C109 1.384 . S
C108 H121 0.947 . S
C108 C143 1.382 . S
C109 C108 1.384 . S
C109 C110 1.378 . S
C110 C109 1.378 . S
C110 C111 1.378 . S
C110 H122 0.952 . S
C111 C110 1.378 . S
C111 H123 0.950 . S
C111 C142 1.383 . S
H112 C131 0.947 . S
H113 C132 0.946 . S
H114 C134 0.953 . S
H115 C135 0.945 . S
H116 C137 0.952 . S
H117 C138 0.949 . S
H118 C140 0.950 . S
H119 C141 0.948 . S
H120 C143 0.951 . S
H121 C108 0.947 . S
H122 C110 0.952 . S
H123 C111 0.950 . S
N124 C127 1.382 . S
N124 C129 1.363 . S
N125 C127 1.371 . S
N125 C128 1.372 . S
N126 C128 1.361 . S
N126 C129 1.377 . S
C127 N124 1.382 . S
C127 N125 1.371 . S
C127 C130 1.480 . S
C128 N125 1.372 . S
C128 N126 1.361 . S
C128 C136 1.457 . S
C129 N124 1.363 . S
C129 N126 1.377 . S
C129 C142 1.479 . S
C130 C127 1.480 . S
C130 C131 1.383 . S
C130 C135 1.385 . S
C131 H112 0.947 . S
C131 C130 1.383 . S
C131 C132 1.388 . S
C132 H113 0.946 . S
C132 C131 1.388 . S
C132 C133 1.384 . S
C133 C132 1.384 . S
C133 C134 1.377 . S
C134 H114 0.953 . S
C134 C133 1.377 . S
C134 C135 1.369 . S
C135 H115 0.945 . S
C135 C130 1.385 . S
C135 C134 1.369 . S
C136 C128 1.457 . S
C136 C137 1.372 . S
C136 C141 1.364 . S
C137 H116 0.952 . S
C137 C136 1.372 . S
C137 C138 1.389 . S
C138 H117 0.949 . S
C138 C137 1.389 . S
C138 C139 1.387 . S
C139 C138 1.387 . S
C139 C140 1.372 . S
C140 H118 0.950 . S
C140 C139 1.372 . S
C140 C141 1.379 . S
C141 H119 0.948 . S
C141 C136 1.364 . S
C141 C140 1.379 . S
C142 C111 1.383 . S
C142 C129 1.479 . S
C142 C143 1.398 . S
C143 C108 1.382 . S
C143 H120 0.951 . S
C143 C142 1.398 . S
C144 C146 1.422 . S
C144 C148 1.415 . S
C144 N150 1.369 . S
C145 C146 1.421 . S
C145 C147 1.417 . S
C145 C157 1.422 . S
C146 C144 1.422 . S
C146 C145 1.421 . S
C146 N156 1.359 . S
C147 C145 1.417 . S
C147 C149 1.329 . S
C147 H166 0.930 . S
C148 C144 1.415 . S
C148 C149 1.437 . S
C148 C152 1.413 . S
C149 C147 1.329 . S
C149 C148 1.437 . S
C149 H171 0.929 . S
N150 C144 1.369 . S
N150 C151 1.318 1_655 S
N150 Gd155 2.622 . S
C151 N150 1.318 1_455 S
C151 C153 1.378 1_455 S
C151 H163 0.950 . S
C152 C148 1.413 . S
C152 C153 1.348 . S
C152 H168 0.931 . S
C153 C151 1.378 1_655 S
C153 C152 1.348 . S
C153 H169 0.930 1_655 S
Gd154 N174 2.622 . S
Gd154 N181 2.570 . S
Gd154 O188 2.370 1_455 S
Gd154 O189 2.468 . S
Gd154 O190 2.427 . S
Gd154 O192 2.388 1_455 S
Gd154 O193 2.386 . S
Gd154 O197 2.307 1_565 S
Gd154 C207 2.805 . S
Gd155 N150 2.622 . S
Gd155 N156 2.570 . S
Gd155 O187 2.386 . S
Gd155 O191 2.307 1_545 S
Gd155 O194 2.353 1_655 S
Gd155 O195 2.468 . S
Gd155 O196 2.427 . S
Gd155 O198 2.388 1_655 S
Gd155 C219 2.805 . S
N156 C146 1.359 . S
N156 Gd155 2.570 . S
N156 C158 1.343 . S
C157 C145 1.422 . S
C157 C159 1.321 . S
C157 H165 0.931 . S
C158 N156 1.343 . S
C158 C159 1.390 . S
C158 H160 0.931 . S
C159 C157 1.321 . S
C159 C158 1.390 . S
C159 H161 0.930 . S
H160 C158 0.931 . S
H161 C159 0.930 . S
H162 C185 0.931 . S
H163 C151 0.950 . S
H164 C186 0.930 . S
H165 C157 0.931 . S
H166 C147 0.930 . S
H167 C176 0.929 1_655 S
H168 C152 0.931 . S
H169 C153 0.930 1_455 S
H170 C208 0.930 . S
H171 C149 0.929 . S
H172 C177 0.931 . S
H173 C178 0.930 1_655 S
N174 Gd154 2.622 . S
N174 C175 1.369 . S
N174 C176 1.338 . S
C175 N174 1.369 . S
C175 C179 1.415 . S
C175 C182 1.422 . S
C176 H167 0.929 1_455 S
C176 N174 1.338 . S
C176 C178 1.378 . S
C177 H172 0.931 . S
C177 C178 1.348 . S
C177 C179 1.413 . S
C178 H173 0.930 1_455 S
C178 C176 1.378 . S
C178 C177 1.348 . S
C179 C175 1.415 . S
C179 C177 1.413 . S
C179 C209 1.437 . S
H180 C209 0.929 . S
N181 Gd154 2.570 . S
N181 C182 1.359 . S
N181 C185 1.343 . S
C182 C175 1.422 . S
C182 N181 1.359 . S
C182 C184 1.421 . S
C183 C184 1.422 . S
C183 C186 1.321 . S
C183 H210 0.931 . S
C184 C182 1.421 . S
C184 C183 1.422 . S
C184 C208 1.417 . S
C185 H162 0.931 . S
C185 N181 1.343 . S
C185 C186 1.390 . S
C186 H164 0.930 . S
C186 C183 1.321 . S
C186 C185 1.390 . S
O187 Gd155 2.386 . S
O187 C199 1.265 . S
O188 Gd154 2.370 1_655 S
O188 C199 1.215 1_565 S
O189 Gd154 2.468 . S
O189 C207 1.263 . S
O190 Gd154 2.427 . S
O190 C207 1.252 . S
O191 Gd155 2.307 1_565 S
O191 C200 1.261 . S
O192 Gd154 2.388 1_655 S
O192 C200 1.252 . S
O193 Gd154 2.386 . S
O193 C211 1.265 . S
O194 Gd155 2.353 1_455 S
O194 C211 1.242 1_545 S
O195 Gd155 2.468 . S
O195 C219 1.263 . S
O196 Gd155 2.427 . S
O196 C219 1.252 . S
O197 Gd154 2.307 1_545 S
O197 C212 1.261 . S
O198 Gd155 2.388 1_455 S
O198 C212 1.252 . S
C199 O187 1.265 . S
C199 O188 1.215 1_545 S
C200 O191 1.261 . S
C200 O192 1.252 . S
C201 C204 1.394 . S
C201 C206 1.370 . S
C201 C207 1.500 . S
C202 C205 1.383 . S
C202 C206 1.395 . S
C203 C204 1.396 . S
C203 C205 1.365 . S
C203 H220 0.929 . S
C204 C201 1.394 . S
C204 C203 1.396 . S
C204 H221 0.930 . S
C205 C202 1.383 . S
C205 C203 1.365 . S
C205 H222 0.931 . S
C206 C201 1.370 . S
C206 C202 1.395 . S
C206 H223 0.930 . S
C207 Gd154 2.805 . S
C207 O189 1.263 . S
C207 O190 1.252 . S
C207 C201 1.500 . S
C208 H170 0.930 . S
C208 C184 1.417 . S
C208 C209 1.329 . S
C209 C179 1.437 . S
C209 H180 0.929 . S
C209 C208 1.329 . S
H210 C183 0.931 . S
C211 O193 1.265 . S
C211 O194 1.242 1_565 S
C212 O197 1.261 . S
C212 O198 1.252 . S
C213 C216 1.394 . S
C213 C218 1.370 . S
C213 C219 1.500 . S
C214 C217 1.383 . S
C214 C218 1.395 . S
C215 C216 1.396 . S
C215 C217 1.365 . S
C215 H224 0.929 . S
C216 C213 1.394 . S
C216 C215 1.396 . S
C216 H225 0.930 . S
C217 C214 1.383 . S
C217 C215 1.365 . S
C217 H226 0.931 . S
C218 C213 1.370 . S
C218 C214 1.395 . S
C218 H227 0.930 . S
C219 Gd155 2.805 . S
C219 O195 1.263 . S
C219 O196 1.252 . S
C219 C213 1.500 . S
H220 C203 0.929 . S
H221 C204 0.930 . S
H222 C205 0.931 . S
H223 C206 0.930 . S
H224 C215 0.929 . S
H225 C216 0.930 . S
H226 C217 0.931 . S
H227 C218 0.930 . S
C228 C230 1.422 . S
C228 C232 1.415 . S
C228 N234 1.369 . S
C229 C230 1.421 . S
C229 C231 1.417 . S
C229 C241 1.422 . S
C230 C228 1.422 . S
C230 C229 1.421 . S
C230 N240 1.359 . S
C231 C229 1.417 . S
C231 C233 1.329 . S
C231 H250 0.930 . S
C232 C228 1.415 . S
C232 C233 1.437 . S
C232 C236 1.413 . S
C233 C231 1.329 . S
C233 C232 1.437 . S
C233 H255 0.929 . S
N234 C228 1.369 . S
N234 C235 1.338 . S
N234 Gd239 2.622 . S
C235 N234 1.338 . S
C235 C237 1.378 . S
C235 H247 0.929 . S
C236 C232 1.413 . S
C236 C237 1.348 . S
C236 H252 0.931 . S
C237 C235 1.378 . S
C237 C236 1.348 . S
C237 H253 0.930 . S
Gd238 N258 2.622 . S
Gd238 N265 2.570 1_556 S
Gd238 O272 2.353 . S
Gd238 O273 2.468 . S
Gd238 O274 2.427 . S
Gd238 O276 2.388 . S
Gd238 O277 2.386 1_556 S
Gd238 O281 2.307 1_556 S
Gd238 C291 2.805 . S
Gd239 N234 2.622 . S
Gd239 N240 2.570 . S
Gd239 O271 2.386 1_554 S
Gd239 O275 2.307 . S
Gd239 O278 2.353 . S
Gd239 O279 2.468 . S
Gd239 O280 2.427 . S
Gd239 O282 2.388 . S
Gd239 C303 2.805 . S
N240 C230 1.359 . S
N240 Gd239 2.570 . S
N240 C242 1.343 . S
C241 C229 1.422 . S
C241 C243 1.321 . S
C241 H249 0.931 . S
C242 N240 1.343 . S
C242 C243 1.390 . S
C242 H244 0.931 . S
C243 C241 1.321 . S
C243 C242 1.390 . S
C243 H245 0.930 . S
H244 C242 0.931 . S
H245 C243 0.930 . S
H246 C269 0.931 . S
H247 C235 0.929 . S
H248 C270 0.930 . S
H249 C241 0.931 . S
H250 C231 0.930 . S
H251 C260 0.929 . S
H252 C236 0.931 . S
H253 C237 0.930 . S
H254 C292 0.930 . S
H255 C233 0.929 . S
H256 C261 0.931 . S
H257 C262 0.930 . S
N258 Gd238 2.622 . S
N258 C259 1.369 1_556 S
N258 C260 1.338 . S
C259 N258 1.369 1_554 S
C259 C263 1.415 . S
C259 C266 1.422 . S
C260 H251 0.929 . S
C260 N258 1.338 . S
C260 C262 1.378 . S
C261 H256 0.931 . S
C261 C262 1.348 1_554 S
C261 C263 1.413 . S
C262 H257 0.930 . S
C262 C260 1.378 . S
C262 C261 1.348 1_556 S
C263 C259 1.415 . S
C263 C261 1.413 . S
C263 C293 1.437 . S
H264 C293 0.929 . S
N265 Gd238 2.570 1_554 S
N265 C266 1.359 . S
N265 C269 1.343 . S
C266 C259 1.422 . S
C266 N265 1.359 . S
C266 C268 1.421 . S
C267 C268 1.422 . S
C267 C270 1.321 . S
C267 H294 0.931 . S
C268 C266 1.421 . S
C268 C267 1.422 . S
C268 C292 1.417 . S
C269 H246 0.931 . S
C269 N265 1.343 . S
C269 C270 1.390 . S
C270 H248 0.930 . S
C270 C267 1.321 . S
C270 C269 1.390 . S
O271 Gd239 2.386 1_556 S
O271 C283 1.265 . S
O272 Gd238 2.353 . S
O272 C283 1.242 . S
O273 Gd238 2.468 . S
O273 C291 1.263 . S
O274 Gd238 2.427 . S
O274 C291 1.252 . S
O275 Gd239 2.307 . S
O275 C284 1.261 . S
O276 Gd238 2.388 . S
O276 C284 1.252 1_556 S
O277 Gd238 2.386 1_554 S
O277 C295 1.265 . S
O278 Gd239 2.353 . S
O278 C295 1.242 . S
O279 Gd239 2.468 . S
O279 C303 1.263 . S
O280 Gd239 2.427 . S
O280 C303 1.252 . S
O281 Gd238 2.307 1_554 S
O281 C296 1.261 . S
O282 Gd239 2.388 . S
O282 C296 1.252 . S
C283 O271 1.265 . S
C283 O272 1.242 . S
C284 O275 1.261 . S
C284 O276 1.252 1_554 S
C285 C288 1.394 . S
C285 C290 1.370 . S
C285 C291 1.500 . S
C286 C289 1.383 . S
C286 C290 1.395 . S
C287 C288 1.396 . S
C287 C289 1.365 . S
C287 H304 0.929 . S
C288 C285 1.394 . S
C288 C287 1.396 . S
C288 H305 0.930 . S
C289 C286 1.383 . S
C289 C287 1.365 . S
C289 H306 0.931 . S
C290 C285 1.370 . S
C290 C286 1.395 . S
C290 H307 0.930 . S
C291 Gd238 2.805 . S
C291 O273 1.263 . S
C291 O274 1.252 . S
C291 C285 1.500 . S
C292 H254 0.930 . S
C292 C268 1.417 . S
C292 C293 1.329 . S
C293 C263 1.437 . S
C293 H264 0.929 . S
C293 C292 1.329 . S
H294 C267 0.931 . S
C295 O277 1.265 . S
C295 O278 1.242 . S
C296 O281 1.261 . S
C296 O282 1.252 . S
C297 C300 1.394 . S
C297 C302 1.370 . S
C297 C303 1.500 . S
C298 C301 1.383 . S
C298 C302 1.395 . S
C299 C300 1.396 . S
C299 C301 1.365 . S
C299 H308 0.929 . S
C300 C297 1.394 . S
C300 C299 1.396 . S
C300 H309 0.930 . S
C301 C298 1.383 . S
C301 C299 1.365 . S
C301 H310 0.931 . S
C302 C297 1.370 . S
C302 C298 1.395 . S
C302 H311 0.930 . S
C303 Gd239 2.805 . S
C303 O279 1.263 . S
C303 O280 1.252 . S
C303 C297 1.500 . S
H304 C287 0.929 . S
H305 C288 0.930 . S
H306 C289 0.931 . S
H307 C290 0.930 . S
H308 C299 0.929 . S
H309 C300 0.930 . S
H310 C301 0.931 . S
H311 C302 0.930 . S
H312 C324 0.930 . S
H313 C326 0.930 . S
H314 C327 0.930 . S
H315 C331 0.959 . S
H316 C331 0.959 . S
H317 C331 0.961 . S
H318 C332 0.960 . S
H319 C332 0.961 . S
H320 C332 0.959 . S
H321 C335 0.929 . S
H322 C336 0.931 . S
H323 C338 0.930 . S
C324 H312 0.930 . S
C324 C325 1.399 . S
C324 C329 1.399 . S
C325 C324 1.399 . S
C325 C326 1.376 . S
C326 H313 0.930 . S
C326 C325 1.376 . S
C326 C327 1.388 . S
C327 H314 0.930 . S
C327 C326 1.388 . S
C327 C328 1.390 . S
C328 C327 1.390 . S
C328 C329 1.394 . S
C328 C334 1.465 . S
C329 C324 1.399 . S
C329 C328 1.394 . S
C329 C330 1.516 . S
C330 C329 1.516 . S
C330 C331 1.502 . S
C330 C332 1.561 . S
C330 C333 1.526 . S
C331 H315 0.959 . S
C331 H316 0.959 . S
C331 H317 0.961 . S
C331 C330 1.502 . S
C332 H318 0.960 . S
C332 H319 0.961 . S
C332 H320 0.959 . S
C332 C330 1.561 . S
C333 C330 1.526 . S
C333 C334 1.396 . S
C333 C338 1.390 . S
C334 C328 1.465 . S
C334 C333 1.396 . S
C334 C335 1.399 . S
C335 H321 0.929 . S
C335 C334 1.399 . S
C335 C336 1.385 . S
C336 H322 0.931 . S
C336 C335 1.385 . S
C336 C337 1.389 . S
C337 C336 1.389 . S
C337 C338 1.387 . S
C338 H323 0.930 . S
C338 C333 1.390 . S
C338 C337 1.387 . S
H339 C351 0.930 . S
H340 C353 0.930 . S
H341 C354 0.930 . S
H342 C358 0.959 . S
H343 C358 0.959 . S
H344 C358 0.961 . S
H345 C359 0.960 . S
H346 C359 0.961 . S
H347 C359 0.959 . S
H348 C362 0.929 . S
H349 C363 0.931 . S
H350 C365 0.930 . S
C351 H339 0.930 . S
C351 C352 1.399 . S
C351 C356 1.399 . S
C352 C351 1.399 . S
C352 C353 1.376 1_554 S
C353 H340 0.930 . S
C353 C352 1.376 1_556 S
C353 C354 1.388 . S
C354 H341 0.930 . S
C354 C353 1.388 . S
C354 C355 1.390 1_556 S
C355 C354 1.390 1_554 S
C355 C356 1.394 . S
C355 C361 1.465 . S
C356 C351 1.399 . S
C356 C355 1.394 . S
C356 C357 1.516 . S
C357 C356 1.516 . S
C357 C358 1.502 . S
C357 C359 1.561 . S
C357 C360 1.526 . S
C358 H342 0.959 . S
C358 H343 0.959 . S
C358 H344 0.961 . S
C358 C357 1.502 . S
C359 H345 0.960 . S
C359 H346 0.961 . S
C359 H347 0.959 . S
C359 C357 1.561 . S
C360 C357 1.526 . S
C360 C361 1.396 . S
C360 C365 1.390 . S
C361 C355 1.465 . S
C361 C360 1.396 . S
C361 C362 1.399 1_554 S
C362 H348 0.929 . S
C362 C361 1.399 1_556 S
C362 C363 1.385 . S
C363 H349 0.931 . S
C363 C362 1.385 . S
C363 C364 1.389 1_556 S
C364 C363 1.389 1_554 S
C364 C365 1.387 . S
C365 H350 0.930 . S
C365 C360 1.390 . S
C365 C364 1.387 . S
H366 C378 0.930 . S
H367 C380 0.930 . S
H368 C381 0.930 . S
H369 C385 0.959 . S
H370 C385 0.959 . S
H371 C385 0.961 . S
H372 C386 0.960 . S
H373 C386 0.961 . S
H374 C386 0.959 . S
H375 C389 0.929 . S
H376 C390 0.931 . S
H377 C392 0.930 . S
C378 H366 0.930 . S
C378 C379 1.399 . S
C378 C383 1.399 . S
C379 C378 1.399 . S
C379 C380 1.376 . S
C380 H367 0.930 . S
C380 C379 1.376 . S
C380 C381 1.388 . S
C381 H368 0.930 . S
C381 C380 1.388 . S
C381 C382 1.390 . S
C382 C381 1.390 . S
C382 C383 1.394 . S
C382 C388 1.465 . S
C383 C378 1.399 . S
C383 C382 1.394 . S
C383 C384 1.516 . S
C384 C383 1.516 . S
C384 C385 1.502 . S
C384 C386 1.561 . S
C384 C387 1.526 . S
C385 H369 0.959 . S
C385 H370 0.959 . S
C385 H371 0.961 . S
C385 C384 1.502 . S
C386 H372 0.960 . S
C386 H373 0.961 . S
C386 H374 0.959 . S
C386 C384 1.561 . S
C387 C384 1.526 . S
C387 C388 1.396 . S
C387 C392 1.390 . S
C388 C382 1.465 . S
C388 C387 1.396 . S
C388 C389 1.399 . S
C389 H375 0.929 . S
C389 C388 1.399 . S
C389 C390 1.385 . S
C390 H376 0.931 . S
C390 C389 1.385 . S
C390 C391 1.389 . S
C391 C390 1.389 . S
C391 C392 1.387 . S
C392 H377 0.930 . S
C392 C387 1.390 . S
C392 C391 1.387 . S
H393 C405 0.930 . S
H394 C407 0.930 . S
H395 C408 0.930 . S
H396 C412 0.959 . S
H397 C412 0.959 . S
H398 C412 0.961 . S
H399 C413 0.960 . S
H400 C413 0.961 . S
H401 C413 0.959 . S
H402 C416 0.929 . S
H403 C417 0.931 . S
H404 C419 0.917 1_556 S
C405 H393 0.930 . S
C405 C406 1.399 1_556 S
C405 C410 1.399 1_556 S
C406 C405 1.399 1_554 S
C406 C407 1.376 . S
C407 H394 0.930 . S
C407 C406 1.376 . S
C407 C408 1.388 . S
C408 H395 0.930 . S
C408 C407 1.388 . S
C408 C409 1.390 . S
C409 C408 1.390 . S
C409 C410 1.394 . S
C409 C415 1.465 . S
C410 C405 1.399 1_554 S
C410 C409 1.394 . S
C410 C411 1.516 1_554 S
C411 C410 1.516 1_556 S
C411 C412 1.502 . S
C411 C413 1.561 . S
C411 C414 1.526 1_556 S
C412 H396 0.959 . S
C412 H397 0.959 . S
C412 H398 0.961 . S
C412 C411 1.502 . S
C413 H399 0.960 . S
C413 H400 0.961 . S
C413 H401 0.959 . S
C413 C411 1.561 . S
C414 C411 1.526 1_554 S
C414 C415 1.396 . S
C414 C419 1.388 . S
C415 C409 1.465 . S
C415 C414 1.396 . S
C415 C416 1.399 . S
C416 H402 0.929 . S
C416 C415 1.399 . S
C416 C417 1.385 . S
C417 H403 0.931 . S
C417 C416 1.385 . S
C417 C418 1.389 . S
C418 C417 1.389 . S
C418 C419 1.401 . S
C419 H404 0.917 1_554 S
C419 C414 1.388 . S
C419 C418 1.401 . S
H420 C432 0.930 . S
H421 C434 0.930 . S
H422 C435 0.930 . S
H423 C439 0.959 . S
H424 C439 0.959 . S
H425 C439 0.961 . S
H426 C440 0.960 . S
H427 C440 0.961 . S
H428 C440 0.959 . S
H429 C443 0.908 1_545 S
H430 C444 0.931 1_545 S
H431 C446 0.930 . S
C432 H420 0.930 . S
C432 C433 1.399 . S
C432 C437 1.399 . S
C433 C432 1.399 . S
C433 C434 1.376 . S
C434 H421 0.930 . S
C434 C433 1.376 . S
C434 C435 1.388 . S
C435 H422 0.930 . S
C435 C434 1.388 . S
C435 C436 1.390 . S
C436 C435 1.390 . S
C436 C437 1.394 . S
C436 C442 1.465 . S
C437 C432 1.399 . S
C437 C436 1.394 . S
C437 C438 1.516 . S
C438 C437 1.516 . S
C438 C439 1.502 . S
C438 C440 1.561 . S
C438 C441 1.526 . S
C439 H423 0.959 . S
C439 H424 0.959 . S
C439 H425 0.961 . S
C439 C438 1.502 . S
C440 H426 0.960 . S
C440 H427 0.961 . S
C440 H428 0.959 . S
C440 C438 1.561 . S
C441 C438 1.526 . S
C441 C442 1.396 . S
C441 C446 1.390 . S
C442 C436 1.465 . S
C442 C441 1.396 . S
C442 C443 1.399 . S
C443 H429 0.908 1_565 S
C443 C442 1.399 . S
C443 C444 1.385 . S
C444 H430 0.931 1_565 S
C444 C443 1.385 . S
C444 C445 1.389 . S
C445 C444 1.389 . S
C445 C446 1.387 . S
C446 H431 0.930 . S
C446 C441 1.390 . S
C446 C445 1.387 . S
H447 C459 0.930 . S
H448 C461 0.930 . S
H449 C462 0.930 . S
H450 C466 0.959 . S
H451 C466 0.959 . S
H452 C466 0.961 . S
H453 C467 0.960 . S
H454 C467 0.961 . S
H455 C467 0.959 . S
H456 C470 0.929 . S
H457 C471 0.931 . S
H458 C473 0.930 . S
C459 H447 0.930 . S
C459 C460 1.399 . S
C459 C464 1.399 . S
C460 C459 1.399 . S
C460 C461 1.376 . S
C461 H448 0.930 . S
C461 C460 1.376 . S
C461 C462 1.388 . S
C462 H449 0.930 . S
C462 C461 1.388 . S
C462 C463 1.390 . S
C463 C462 1.390 . S
C463 C464 1.394 . S
C463 C469 1.465 . S
C464 C459 1.399 . S
C464 C463 1.394 . S
C464 C465 1.516 . S
C465 C464 1.516 . S
C465 C466 1.502 . S
C465 C467 1.561 . S
C465 C468 1.526 . S
C466 H450 0.959 . S
C466 H451 0.959 . S
C466 H452 0.961 . S
C466 C465 1.502 . S
C467 H453 0.960 . S
C467 H454 0.961 . S
C467 H455 0.959 . S
C467 C465 1.561 . S
C468 C465 1.526 . S
C468 C469 1.396 . S
C468 C473 1.390 . S
C469 C463 1.465 . S
C469 C468 1.396 . S
C469 C470 1.399 . S
C470 H456 0.929 . S
C470 C469 1.399 . S
C470 C471 1.385 . S
C471 H457 0.931 . S
C471 C470 1.385 . S
C471 C472 1.389 . S
C472 C471 1.389 . S
C472 C473 1.387 . S
C473 H458 0.930 . S
C473 C468 1.390 . S
C473 C472 1.387 . S
H474 C486 0.930 . S
H475 C488 0.930 . S
H476 C489 0.930 1_565 S
H477 C493 0.959 . S
H478 C493 0.959 . S
H479 C493 0.961 . S
H480 C494 0.960 . S
H481 C494 0.961 . S
H482 C494 0.959 . S
H483 C497 0.929 . S
H484 C498 0.957 . S
H485 C500 0.930 . S
C486 H474 0.930 . S
C486 C487 1.399 . S
C486 C491 1.399 . S
C487 C486 1.399 . S
C487 C488 1.376 . S
C488 H475 0.930 . S
C488 C487 1.376 . S
C488 C489 1.388 . S
C489 H476 0.930 1_545 S
C489 C488 1.388 . S
C489 C490 1.390 . S
C490 C489 1.390 . S
C490 C491 1.394 . S
C490 C496 1.465 . S
C491 C486 1.399 . S
C491 C490 1.394 . S
C491 C492 1.516 . S
C492 C491 1.516 . S
C492 C493 1.502 . S
C492 C494 1.561 . S
C492 C495 1.526 . S
C493 H477 0.959 . S
C493 H478 0.959 . S
C493 H479 0.961 . S
C493 C492 1.502 . S
C494 H480 0.960 . S
C494 H481 0.961 . S
C494 H482 0.959 . S
C494 C492 1.561 . S
C495 C492 1.526 . S
C495 C496 1.396 . S
C495 C500 1.390 . S
C496 C490 1.465 . S
C496 C495 1.396 . S
C496 C497 1.399 1_545 S
C497 H483 0.929 . S
C497 C496 1.399 1_565 S
C497 C498 1.393 . S
C498 H484 0.957 . S
C498 C497 1.393 . S
C498 C499 1.357 1_565 S
C499 C498 1.357 1_545 S
C499 C500 1.387 . S
C500 H485 0.930 . S
C500 C495 1.390 . S
C500 C499 1.387 . S
H501 C513 0.930 . S
H502 C515 0.930 . S
H503 C516 0.930 . S
H504 C520 0.959 . S
H505 C520 0.959 . S
H506 C520 0.961 . S
H507 C521 0.960 . S
H508 C521 0.961 . S
H509 C521 0.959 . S
H510 C524 0.929 . S
H511 C525 0.931 . S
H512 C527 0.930 . S
C513 H501 0.930 . S
C513 C514 1.399 . S
C513 C518 1.399 . S
C514 C513 1.399 . S
C514 C515 1.376 . S
C515 H502 0.930 . S
C515 C514 1.376 . S
C515 C516 1.388 . S
C516 H503 0.930 . S
C516 C515 1.388 . S
C516 C517 1.390 . S
C517 C516 1.390 . S
C517 C518 1.394 . S
C517 C523 1.465 . S
C518 C513 1.399 . S
C518 C517 1.394 . S
C518 C519 1.516 . S
C519 C518 1.516 . S
C519 C520 1.502 . S
C519 C521 1.561 . S
C519 C522 1.526 . S
C520 H504 0.959 . S
C520 H505 0.959 . S
C520 H506 0.961 . S
C520 C519 1.502 . S
C521 H507 0.960 . S
C521 H508 0.961 . S
C521 H509 0.959 . S
C521 C519 1.561 . S
C522 C519 1.526 . S
C522 C523 1.396 . S
C522 C527 1.390 . S
C523 C517 1.465 . S
C523 C522 1.396 . S
C523 C524 1.399 . S
C524 H510 0.929 . S
C524 C523 1.399 . S
C524 C525 1.385 . S
C525 H511 0.931 . S
C525 C524 1.385 . S
C525 C526 1.389 . S
C526 C525 1.389 . S
C526 C527 1.387 . S
C527 H512 0.930 . S
C527 C522 1.390 . S
C527 C526 1.387 . S
H528 C540 0.930 . S
H529 C542 0.930 . S
H530 C543 0.930 . S
H531 C547 0.959 . S
H532 C547 0.959 . S
H533 C547 0.961 . S
H534 C548 0.960 . S
H535 C548 0.961 . S
H536 C548 0.959 . S
H537 C551 0.929 . S
H538 C552 0.931 . S
H539 C554 0.930 . S
C540 H528 0.930 . S
C540 C541 1.399 . S
C540 C545 1.399 . S
C541 C540 1.399 . S
C541 C542 1.376 . S
C542 H529 0.930 . S
C542 C541 1.376 . S
C542 C543 1.388 . S
C543 H530 0.930 . S
C543 C542 1.388 . S
C543 C544 1.390 . S
C544 C543 1.390 . S
C544 C545 1.394 . S
C544 C550 1.465 . S
C545 C540 1.399 . S
C545 C544 1.394 . S
C545 C546 1.516 . S
C546 C545 1.516 . S
C546 C547 1.502 . S
C546 C548 1.561 . S
C546 C549 1.526 . S
C547 H531 0.959 . S
C547 H532 0.959 . S
C547 H533 0.961 . S
C547 C546 1.502 . S
C548 H534 0.960 . S
C548 H535 0.961 . S
C548 H536 0.959 . S
C548 C546 1.561 . S
C549 C546 1.526 . S
C549 C550 1.396 . S
C549 C554 1.390 . S
C550 C544 1.465 . S
C550 C549 1.396 . S
C550 C551 1.399 . S
C551 H537 0.929 . S
C551 C550 1.399 . S
C551 C552 1.385 . S
C552 H538 0.931 . S
C552 C551 1.385 . S
C552 C553 1.389 . S
C553 C552 1.389 . S
C553 C554 1.387 . S
C554 H539 0.930 . S
C554 C549 1.390 . S
C554 C553 1.387 . S
H555 C567 0.930 . S
H556 C569 0.930 . S
H557 C570 0.930 . S
H558 C574 0.959 . S
H559 C574 0.959 . S
H560 C574 0.961 . S
H561 C575 0.960 . S
H562 C575 0.961 . S
H563 C575 0.959 . S
H564 C578 0.929 . S
H565 C579 0.931 . S
H566 C581 0.930 . S
C567 H555 0.930 . S
C567 C568 1.399 . S
C567 C572 1.399 . S
C568 C567 1.399 . S
C568 C569 1.376 . S
C569 H556 0.930 . S
C569 C568 1.376 . S
C569 C570 1.388 . S
C570 H557 0.930 . S
C570 C569 1.388 . S
C570 C571 1.390 . S
C571 C570 1.390 . S
C571 C572 1.394 . S
C571 C577 1.465 . S
C572 C567 1.399 . S
C572 C571 1.394 . S
C572 C573 1.516 . S
C573 C572 1.516 . S
C573 C574 1.502 . S
C573 C575 1.561 1_545 S
C573 C576 1.526 . S
C574 H558 0.959 . S
C574 H559 0.959 . S
C574 H560 0.961 . S
C574 C573 1.502 . S
C575 H561 0.960 . S
C575 H562 0.961 . S
C575 H563 0.959 . S
C575 C573 1.561 1_565 S
C576 C573 1.526 . S
C576 C577 1.396 . S
C576 C581 1.390 . S
C577 C571 1.465 . S
C577 C576 1.396 . S
C577 C578 1.399 . S
C578 H564 0.929 . S
C578 C577 1.399 . S
C578 C579 1.385 . S
C579 H565 0.931 . S
C579 C578 1.385 . S
C579 C580 1.389 . S
C580 C579 1.389 . S
C580 C581 1.387 . S
C581 H566 0.930 . S
C581 C576 1.390 . S
C581 C580 1.387 . S
H582 C594 0.930 . S
H583 C596 0.930 . S
H584 C597 0.930 . S
H585 C601 0.959 . S
H586 C601 0.959 . S
H587 C601 0.961 . S
H588 C602 0.960 . S
H589 C602 0.961 . S
H590 C602 0.959 . S
H591 C605 0.929 . S
H592 C606 0.931 . S
H593 C608 0.930 . S
C594 H582 0.930 . S
C594 C595 1.399 . S
C594 C599 1.399 . S
C595 C594 1.399 . S
C595 C596 1.376 . S
C596 H583 0.930 . S
C596 C595 1.376 . S
C596 C597 1.388 . S
C597 H584 0.930 . S
C597 C596 1.388 . S
C597 C598 1.390 . S
C598 C597 1.390 . S
C598 C599 1.394 . S
C598 C604 1.465 . S
C599 C594 1.399 . S
C599 C598 1.394 . S
C599 C600 1.516 . S
C600 C599 1.516 . S
C600 C601 1.502 . S
C600 C602 1.561 . S
C600 C603 1.526 . S
C601 H585 0.959 . S
C601 H586 0.959 . S
C601 H587 0.961 . S
C601 C600 1.502 . S
C602 H588 0.960 . S
C602 H589 0.961 . S
C602 H590 0.959 . S
C602 C600 1.561 . S
C603 C600 1.526 . S
C603 C604 1.396 . S
C603 C608 1.390 . S
C604 C598 1.465 . S
C604 C603 1.396 . S
C604 C605 1.399 . S
C605 H591 0.929 . S
C605 C604 1.399 . S
C605 C606 1.385 . S
C606 H592 0.931 . S
C606 C605 1.385 . S
C606 C607 1.389 . S
C607 C606 1.389 . S
C607 C608 1.387 . S
C608 H593 0.930 . S
C608 C603 1.390 . S
C608 C607 1.387 . S
H609 C621 0.930 . S
H610 C623 0.930 . S
H611 C624 0.930 . S
H612 C628 0.959 1_565 S
H613 C628 0.959 . S
H614 C628 0.961 . S
H615 C629 0.960 . S
H616 C629 0.961 . S
H617 C629 0.959 . S
H618 C632 0.929 . S
H619 C633 0.931 . S
H620 C635 0.930 1_545 S
C621 H609 0.930 . S
C621 C622 1.399 . S
C621 C626 1.399 . S
C622 C621 1.399 . S
C622 C623 1.376 . S
C623 H610 0.930 . S
C623 C622 1.376 . S
C623 C624 1.388 . S
C624 H611 0.930 . S
C624 C623 1.388 . S
C624 C625 1.390 . S
C625 C624 1.390 . S
C625 C626 1.394 . S
C625 C631 1.465 . S
C626 C621 1.399 . S
C626 C625 1.394 . S
C626 C627 1.516 . S
C627 C626 1.516 . S
C627 C628 1.502 1_565 S
C627 C629 1.561 1_565 S
C627 C630 1.526 . S
C628 H612 0.959 1_545 S
C628 H613 0.959 . S
C628 H614 0.961 . S
C628 C627 1.502 1_545 S
C629 H615 0.960 . S
C629 H616 0.961 . S
C629 H617 0.959 . S
C629 C627 1.561 1_545 S
C630 C627 1.526 . S
C630 C631 1.396 . S
C630 C635 1.390 . S
C631 C625 1.465 . S
C631 C630 1.396 . S
C631 C632 1.399 . S
C632 H618 0.929 . S
C632 C631 1.399 . S
C632 C633 1.385 . S
C633 H619 0.931 . S
C633 C632 1.385 . S
C633 C634 1.389 . S
C634 C633 1.389 . S
C634 C635 1.387 . S
C635 H620 0.930 1_565 S
C635 C630 1.390 . S
C635 C634 1.387 . S
C337 C212 1.633 . S
C325 C133 1.647 . S
C352 C25 1.596 . S
C364 C284 1.591 . S
C379 C61 1.587 . S
C391 C200 1.609 . S
C406 C97 1.592 . S
C418 C296 1.590 . S
C445 C202 1.464 . S
C433 C1 1.557 . S
C472 C283 1.605 . S
C460 C67 1.599 . S
C487 C103 1.601 . S
C499 C199 1.606 . S
C514 C109 1.539 . S
C526 C286 1.350 . S
C553 C298 1.451 . S
C541 C37 1.538 . S
C580 C214 1.386 . S
C568 C73 1.539 . S
C607 C295 1.601 . S
C595 C139 1.591 . S
C622 C31 1.604 . S
C634 C211 1.615 . S
