# Generated by pormake.
# Topology pyr, (3,6)-cn, num edge types: 1
# Building blocks:
#     Node 0, Type 0, BuildingBlock: QEWDON_clean_linker_0, # of connection points: 3
#     Node 1, Type 0, BuildingBlock: QEWDON_clean_linker_0, # of connection points: 3
#     Node 2, Type 0, BuildingBlock: QEWDON_clean_linker_0, # of connection points: 3
#     Node 3, Type 0, BuildingBlock: QEWDON_clean_linker_0, # of connection points: 3
#     Node 4, Type 0, BuildingBlock: QEWDON_clean_linker_0, # of connection points: 3
#     Node 5, Type 0, BuildingBlock: QEWDON_clean_linker_0, # of connection points: 3
#     Node 6, Type 0, BuildingBlock: QEWDON_clean_linker_0, # of connection points: 3
#     Node 7, Type 0, BuildingBlock: QEWDON_clean_linker_0, # of connection points: 3
#     Node 8, Type 1, BuildingBlock: JUFBIX_clean_sbu_0, # of connection points: 6
#     Node 9, Type 1, BuildingBlock: JUFBIX_clean_sbu_0, # of connection points: 6
#     Node 10, Type 1, BuildingBlock: JUFBIX_clean_sbu_0, # of connection points: 6
#     Node 11, Type 1, BuildingBlock: JUFBIX_clean_sbu_0, # of connection points: 6
#     Edge 12, Type (0, 1), BuildingBlock: XIVTED_clean_linker_0, # of connection points: 2
#     Edge 13, Type (0, 1), BuildingBlock: XIVTED_clean_linker_0, # of connection points: 2
#     Edge 14, Type (0, 1), BuildingBlock: XIVTED_clean_linker_0, # of connection points: 2
#     Edge 15, Type (0, 1), BuildingBlock: XIVTED_clean_linker_0, # of connection points: 2
#     Edge 16, Type (0, 1), BuildingBlock: XIVTED_clean_linker_0, # of connection points: 2
#     Edge 17, Type (0, 1), BuildingBlock: XIVTED_clean_linker_0, # of connection points: 2
#     Edge 18, Type (0, 1), BuildingBlock: XIVTED_clean_linker_0, # of connection points: 2
#     Edge 19, Type (0, 1), BuildingBlock: XIVTED_clean_linker_0, # of connection points: 2
#     Edge 20, Type (0, 1), BuildingBlock: XIVTED_clean_linker_0, # of connection points: 2
#     Edge 21, Type (0, 1), BuildingBlock: XIVTED_clean_linker_0, # of connection points: 2
#     Edge 22, Type (0, 1), BuildingBlock: XIVTED_clean_linker_0, # of connection points: 2
#     Edge 23, Type (0, 1), BuildingBlock: XIVTED_clean_linker_0, # of connection points: 2
#     Edge 24, Type (0, 1), BuildingBlock: XIVTED_clean_linker_0, # of connection points: 2
#     Edge 25, Type (0, 1), BuildingBlock: XIVTED_clean_linker_0, # of connection points: 2
#     Edge 26, Type (0, 1), BuildingBlock: XIVTED_clean_linker_0, # of connection points: 2
#     Edge 27, Type (0, 1), BuildingBlock: XIVTED_clean_linker_0, # of connection points: 2
#     Edge 28, Type (0, 1), BuildingBlock: XIVTED_clean_linker_0, # of connection points: 2
#     Edge 29, Type (0, 1), BuildingBlock: XIVTED_clean_linker_0, # of connection points: 2
#     Edge 30, Type (0, 1), BuildingBlock: XIVTED_clean_linker_0, # of connection points: 2
#     Edge 31, Type (0, 1), BuildingBlock: XIVTED_clean_linker_0, # of connection points: 2
#     Edge 32, Type (0, 1), BuildingBlock: XIVTED_clean_linker_0, # of connection points: 2
#     Edge 33, Type (0, 1), BuildingBlock: XIVTED_clean_linker_0, # of connection points: 2
#     Edge 34, Type (0, 1), BuildingBlock: XIVTED_clean_linker_0, # of connection points: 2
#     Edge 35, Type (0, 1), BuildingBlock: XIVTED_clean_linker_0, # of connection points: 2
# Relax obj value: 0.181
# Max RMSD: 0.286
# Mean RMSD: 0.183
data_MOF--net-pyr--node1-JUFBIX_clean_sbu_0--node2-QEWDON_clean_linker_0--edge1-XIVTED_clean_linker_0
_symmetry_space_group_name_H-M    P1
_symmetry_Int_Tables_number       1
_symmetry_cell_setting            triclinic
loop_
_symmetry_equiv_pos_as_xyz
'x, y, z'
_cell_length_a     37.313596
_cell_length_b     35.535832
_cell_length_c     39.455645
_cell_angle_alpha  82.476102
_cell_angle_beta   87.186921
_cell_angle_gamma 98.514165
loop_
_atom_site_label
_atom_site_type_symbol
_atom_site_fract_x
_atom_site_fract_y
_atom_site_fract_z
_atom_type_partial_charge
H0 H 0.30749 0.24855 0.18615 0.0
C1 C 0.28935 0.23337 0.20751 0.0
C2 C 0.2938 0.19598 0.22149 0.0
C3 C 0.26298 0.25228 0.2217 0.0
H4 H 0.27459 0.14882 0.26163 0.0
C5 C 0.27123 0.17751 0.25051 0.0
C6 C 0.24392 0.19572 0.26479 0.0
C7 C 0.23994 0.23304 0.2498 0.0
C8 C 0.26351 0.29397 0.21041 0.0
H9 H 0.22047 0.24821 0.26136 0.0
C10 C 0.23248 0.30902 0.19895 0.0
C11 C 0.23421 0.34907 0.18961 0.0
C12 C 0.29589 0.31926 0.21213 0.0
H13 H 0.31995 0.30846 0.22104 0.0
C14 C 0.29747 0.35873 0.20311 0.0
H15 H 0.20737 0.28985 0.19735 0.0
C16 C 0.26687 0.37358 0.19205 0.0
H17 H 0.26882 0.40436 0.18493 0.0
H18 H 0.32253 0.37791 0.20474 0.0
H19 H 0.36565 0.87071 0.82018 0.0
C20 C 0.38041 0.85122 0.80827 0.0
C21 C 0.41823 0.85432 0.80991 0.0
C22 C 0.36126 0.82259 0.79211 0.0
H23 H 0.46628 0.83113 0.79535 0.0
C24 C 0.43706 0.82872 0.79443 0.0
C25 C 0.41797 0.80014 0.77763 0.0
C26 C 0.38004 0.79717 0.77701 0.0
C27 C 0.32184 0.82056 0.78902 0.0
H28 H 0.36508 0.776 0.7634 0.0
C29 C 0.3083 0.85236 0.77256 0.0
C30 C 0.27128 0.84999 0.7665 0.0
C31 C 0.29799 0.78639 0.80052 0.0
H32 H 0.30806 0.76149 0.81315 0.0
C33 C 0.26097 0.78421 0.79569 0.0
H34 H 0.32692 0.87862 0.76365 0.0
C35 C 0.24763 0.81569 0.77863 0.0
H36 H 0.21903 0.81275 0.77407 0.0
H37 H 0.24265 0.7578 0.80459 0.0
H38 H 0.74369 0.51681 0.96697 0.0
C39 C 0.73191 0.48666 0.97038 0.0
C40 C 0.75138 0.45899 0.98591 0.0
C41 C 0.69781 0.47564 0.95825 0.0
H42 H 0.75032 0.3991 1.00385 0.0
C43 C 0.73582 0.42002 0.99035 0.0
C44 C 0.70123 0.40837 0.97888 0.0
C45 C 0.68296 0.43656 0.96199 0.0
C46 C 0.67714 0.50508 0.94253 0.0
H47 H 0.65672 0.42837 0.95224 0.0
C48 C 0.66284 0.50217 0.9105 0.0
C49 C 0.64239 0.52961 0.89602 0.0
C50 C 0.67108 0.53589 0.95987 0.0
H51 H 0.68174 0.53861 0.98463 0.0
C52 C 0.65052 0.563 0.94571 0.0
H53 H 0.66762 0.47858 0.89689 0.0
C54 C 0.63611 0.55986 0.91403 0.0
H55 H 0.62061 0.58148 0.9033 0.0
H56 H 0.64578 0.58654 0.95931 0.0
H57 H 0.94593 0.77243 0.41571 0.0
C58 C 0.93272 0.75439 0.43847 0.0
C59 C 0.94613 0.75821 0.47091 0.0
C60 C 0.90036 0.72976 0.4355 0.0
H61 H 0.93626 0.7384 0.52543 0.0
C62 C 0.9278 0.7347 0.50005 0.0
C63 C 0.89649 0.70848 0.49697 0.0
C64 C 0.8832 0.70609 0.46459 0.0
C65 C 0.88156 0.73247 0.40326 0.0
H66 H 0.85775 0.68769 0.4623 0.0
C67 C 0.89969 0.72964 0.37194 0.0
C68 C 0.88143 0.73186 0.34148 0.0
C69 C 0.84507 0.73827 0.40389 0.0
H70 H 0.83062 0.74108 0.4277 0.0
C71 C 0.82701 0.74101 0.37376 0.0
H72 H 0.92759 0.72439 0.37156 0.0
C73 C 0.84498 0.73773 0.3427 0.0
H74 H 0.83042 0.73996 0.31962 0.0
H75 H 0.79897 0.74564 0.37449 0.0
H76 H 0.88246 0.85215 0.92706 0.0
C77 C 0.89459 0.87063 0.90406 0.0
C78 C 0.92998 0.86784 0.89154 0.0
C79 C 0.87347 0.89494 0.88591 0.0
H80 H 0.97098 0.88787 0.85 0.0
C81 C 0.94407 0.89029 0.86019 0.0
C82 C 0.92329 0.91479 0.84131 0.0
C83 C 0.888 0.91703 0.85474 0.0
C84 C 0.83394 0.89046 0.89562 0.0
H85 H 0.87119 0.93488 0.84041 0.0
C86 C 0.81792 0.91763 0.91207 0.0
C87 C 0.77988 0.91172 0.92014 0.0
C88 C 0.81189 0.85758 0.8879 0.0
H89 H 0.82366 0.83643 0.8754 0.0
C90 C 0.77458 0.85169 0.89594 0.0
H91 H 0.83471 0.9431 0.91818 0.0
C92 C 0.75867 0.87849 0.91182 0.0
H93 H 0.72957 0.87302 0.91794 0.0
H94 H 0.75787 0.82621 0.88981 0.0
H95 H 0.67866 0.19158 0.51167 0.0
C96 C 0.67232 0.18473 0.48644 0.0
C97 C 0.6959 0.16616 0.46805 0.0
C98 C 0.639 0.19134 0.47347 0.0
H99 H 0.70558 0.14264 0.42159 0.0
C100 C 0.68681 0.15616 0.43599 0.0
C101 C 0.65364 0.16232 0.42276 0.0
C102 C 0.6299 0.18018 0.44166 0.0
C103 C 0.61129 0.20465 0.49504 0.0
H104 H 0.60362 0.18402 0.4324 0.0
C105 C 0.61719 0.24118 0.50581 0.0
C106 C 0.58996 0.25312 0.52608 0.0
C107 C 0.57825 0.18019 0.50471 0.0
H108 H 0.5733 0.15194 0.49672 0.0
C109 C 0.55143 0.19177 0.52493 0.0
H110 H 0.64264 0.26017 0.49831 0.0
C111 C 0.55714 0.22794 0.53552 0.0
H112 H 0.53549 0.2365 0.55063 0.0
H113 H 0.52602 0.17275 0.53225 0.0
H114 H 0.43293 0.71677 0.23899 0.0
C115 C 0.40949 0.70993 0.22449 0.0
C116 C 0.39823 0.73892 0.20148 0.0
C117 C 0.39129 0.67179 0.228 0.0
H118 H 0.36005 0.75103 0.16371 0.0
C119 C 0.36816 0.72937 0.18248 0.0
C120 C 0.34925 0.69182 0.18602 0.0
C121 C 0.36114 0.66302 0.2086 0.0
C122 C 0.40526 0.64059 0.24997 0.0
H123 H 0.34671 0.63386 0.21133 0.0
C124 C 0.41535 0.64474 0.28351 0.0
C125 C 0.43005 0.61536 0.3031 0.0
C126 C 0.40967 0.60657 0.2367 0.0
H127 H 0.40256 0.60273 0.21094 0.0
C128 C 0.42419 0.57754 0.25612 0.0
H129 H 0.412 0.67066 0.29424 0.0
C130 C 0.43452 0.58194 0.28902 0.0
H131 H 0.4458 0.55906 0.30367 0.0
H132 H 0.42768 0.55162 0.24552 0.0
H133 H 0.11294 0.49836 0.64479 0.0
C134 C 0.10387 0.47386 0.63193 0.0
C135 C 0.12948 0.4529 0.6198 0.0
C136 C 0.06648 0.46181 0.62954 0.0
H137 H 0.1378 0.40433 0.59519 0.0
C138 C 0.11779 0.42091 0.60373 0.0
C139 C 0.08079 0.40861 0.60057 0.0
C140 C 0.05511 0.42933 0.61349 0.0
C141 C 0.03952 0.48052 0.64738 0.0
H142 H 0.02638 0.4193 0.61236 0.0
C143 C 0.04465 0.48813 0.68099 0.0
C144 C 0.0193 0.50496 0.69907 0.0
C145 C 1.00841 0.48992 0.63174 0.0
H146 H 1.00377 0.4843 0.60585 0.0
C147 C 0.98327 0.50717 0.64935 0.0
H148 H 0.06851 0.48069 0.69324 0.0
C149 C 0.98864 0.51477 0.6828 0.0
H150 H 0.96855 0.52766 0.6961 0.0
H151 H 0.95943 0.51453 0.63708 0.0
Co152 Co 0.03285 0.07061 0.53471 0.0
C153 C 0.05918 0.00201 0.53122 0.0
Co154 Co 0.08553 0.06807 0.55692 0.0
C155 C 0.95941 0.0855 0.52476 0.0
C156 C 0.98077 0.05727 0.48528 0.0
N157 N 0.98931 0.07162 0.51437 0.0
N158 N 0.9325 0.07987 0.50346 0.0
C159 C 0.94584 0.06209 0.47864 0.0
H160 H 0.95717 0.09878 0.5478 0.0
H161 H 0.99878 0.04397 0.46994 0.0
C162 C 0.05877 0.13716 0.55903 0.0
N163 N 0.12889 0.06673 0.57713 0.0
C164 C 0.13551 0.03914 0.60175 0.0
C165 C 0.16012 0.09186 0.57147 0.0
N166 N 0.16952 0.04592 0.61189 0.0
C167 C 0.18532 0.07897 0.59276 0.0
C168 C 0.09392 0.0958 0.48764 0.0
O169 O 0.03175 0.12004 0.54595 0.0
O170 O 0.08584 0.12003 0.56548 0.0
O171 O 0.11094 0.08624 0.51371 0.0
O172 O 0.05935 0.0925 0.49107 0.0
O173 O 0.08499 0.01615 0.5478 0.0
H174 H 0.16424 0.11781 0.55314 0.0
H175 H 0.11583 0.01409 0.61168 0.0
O176 O 0.03414 0.0213 0.5233 0.0
O177 O 1.00707 0.04841 0.57856 0.0
O178 O 0.06002 0.04971 0.60021 0.0
C179 C 0.02564 0.04205 0.60443 0.0
H180 H 0.93144 0.05354 0.45703 0.0
H181 H 0.21288 0.09297 0.59431 0.0
Co182 Co 0.53882 0.06675 0.05808 0.0
C183 C 0.52723 0.00119 0.10753 0.0
Co184 Co 0.57224 0.07024 0.10261 0.0
C185 C 0.51038 0.03146 1.002 0.0
C186 C 0.49093 0.08474 1.00468 0.0
N187 N 0.51172 0.0609 1.02053 0.0
N188 N 0.48983 0.03589 0.97496 0.0
C189 C 0.47742 0.06945 0.97667 0.0
H190 H 0.52512 0.00768 1.00788 0.0
H191 H 0.48629 0.11168 1.01272 0.0
C192 C 0.58414 0.13585 0.05367 0.0
N193 N 0.60044 0.07588 0.1398 0.0
C194 C 0.58991 0.08015 0.17219 0.0
C195 C 0.63694 0.07846 0.13946 0.0
N196 N 0.61834 0.085 0.19187 0.0
C197 C 0.64794 0.08377 0.17143 0.0
C198 C 0.6062 0.04137 0.04932 0.0
O199 O 0.55953 0.1176 0.03822 0.0
O200 O 0.59351 0.12022 0.082 0.0
O201 O 0.6101 0.04896 0.07966 0.0
O202 O 0.57715 0.04726 0.03555 0.0
O203 O 0.5512 0.02022 0.12302 0.0
H204 H 0.65475 0.07754 0.11723 0.0
H205 H 0.56202 0.07984 0.18125 0.0
O206 O 0.51818 0.01605 0.07869 0.0
O207 O 0.50071 0.08632 0.08045 0.0
O208 O 0.53327 0.09126 0.12485 0.0
C209 C 0.50395 0.09536 0.1104 0.0
H210 H 0.4598 0.08217 0.95905 0.0
H211 H 0.67568 0.0878 0.17877 0.0
Co212 Co 0.55275 0.58312 0.59519 0.0
C213 C 0.50328 0.58355 0.54458 0.0
Co214 Co 0.49988 0.54784 0.61195 0.0
C215 C 0.62983 0.60752 0.58861 0.0
C216 C 0.60075 0.65164 0.56731 0.0
N217 N 0.59617 0.61466 0.58206 0.0
N218 N 0.65519 0.63878 0.57904 0.0
C219 C 0.63705 0.66658 0.56547 0.0
H220 H 0.63546 0.58033 0.60133 0.0
H221 H 0.57896 0.66699 0.55929 0.0
C222 C 0.54955 0.54783 0.66218 0.0
N223 N 0.45664 0.5163 0.62628 0.0
C224 C 0.42249 0.52277 0.62111 0.0
C225 C 0.45282 0.48155 0.64554 0.0
N226 N 0.39739 0.49334 0.63646 0.0
C227 C 0.41652 0.4674 0.65188 0.0
C228 C 0.5503 0.50834 0.58309 0.0
O229 O 0.57035 0.5688 0.63849 0.0
O230 O 0.5171 0.53561 0.65616 0.0
O231 O 0.51854 0.5059 0.59711 0.0
O232 O 0.5709 0.54075 0.57816 0.0
O233 O 0.48278 0.56063 0.5675 0.0
H234 H 0.47505 0.46754 0.65467 0.0
H235 H 0.41632 0.54848 0.60616 0.0
O236 O 0.53504 0.59732 0.55162 0.0
O237 O 0.53443 0.62503 0.61309 0.0
O238 O 0.48149 0.58936 0.62735 0.0
C239 C 0.50223 0.62115 0.62667 0.0
H240 H 0.64917 0.69559 0.55494 0.0
H241 H 0.40523 0.44032 0.66716 0.0
Co242 Co 0.07745 0.58891 1.02413 0.0
C243 C 1.00351 0.56018 0.04162 0.0
Co244 Co 0.05568 0.60215 0.07332 0.0
C245 C 0.07465 0.5768 0.95356 0.0
C246 C 0.12481 0.56585 0.974 0.0
N247 N 0.09322 0.57783 0.98201 0.0
N248 N 0.09318 0.56414 0.92825 0.0
C249 C 0.12482 0.55731 0.94099 0.0
H250 H 0.04737 0.58356 0.952 0.0
H251 H 0.14598 0.56244 0.9914 0.0
C252 C 0.12939 0.63041 0.05724 0.0
N253 N 0.04161 0.61306 0.11605 0.0
C254 C 1.01534 0.63241 0.12614 0.0
C255 C 0.06058 0.60658 0.14394 0.0
N256 N 0.0178 0.63862 0.15903 0.0
C257 C 0.04606 0.62225 0.1703 0.0
C258 C 0.08552 0.53339 0.07791 0.0
O259 O 0.12528 0.61485 0.03016 0.0
O260 O 0.10216 0.62893 0.07808 0.0
O261 O 0.07016 0.55545 0.09471 0.0
O262 O 0.09081 0.54213 0.04563 0.0
O263 O 1.00897 0.5755 0.06865 0.0
H264 H 0.08456 0.59281 0.14467 0.0
H265 H 0.99607 0.64339 0.10931 0.0
O266 O 0.02971 0.56255 1.01912 0.0
O267 O 0.06378 0.63607 1.00242 0.0
O268 O 0.04136 0.64844 0.05145 0.0
C269 C 0.04741 0.6576 1.01915 0.0
H270 H 0.14621 0.54636 0.92761 0.0
H271 H 0.05594 0.62232 0.19565 0.0
H272 H 0.26443 0.15456 0.32279 0.0
H273 H 0.0685 0.12357 0.42604 0.0
H274 H 0.17085 0.19521 0.27967 0.0
H275 H 0.16672 0.0994 0.47191 0.0
H276 H 0.10398 0.14566 0.37103 0.0
H277 H 0.22741 0.12898 0.37601 0.0
C278 C 0.236 0.15772 0.32429 0.0
C279 C 0.2209 0.17724 0.29654 0.0
C280 C 0.11772 0.13551 0.39317 0.0
C281 C 0.17817 0.14826 0.35793 0.0
C282 C 0.09746 0.12289 0.42461 0.0
C283 C 0.11455 0.10968 0.45383 0.0
C284 C 0.15537 0.13467 0.39076 0.0
C285 C 0.15224 0.10942 0.45025 0.0
C286 C 0.21488 0.14337 0.35487 0.0
C287 C 0.18388 0.18084 0.30043 0.0
N288 N 0.17123 0.12161 0.41945 0.0
N289 N 0.16388 0.16658 0.33044 0.0
H290 H 0.4142 0.93087 0.80204 0.0
H291 H 0.49844 0.96046 0.97987 0.0
H292 H 0.46353 0.84443 0.86174 0.0
H293 H 0.46696 0.05279 0.91091 0.0
H294 H 0.48774 0.91829 0.93634 0.0
H295 H 0.4359 0.97685 0.84028 0.0
C296 C 0.43015 0.92183 0.82296 0.0
C297 C 0.43698 0.88383 0.82892 0.0
C298 C 0.4834 0.94786 0.93066 0.0
C299 C 0.46134 0.93601 0.87318 0.0
C300 C 0.48959 0.97214 0.95556 0.0
C301 C 0.48357 0.01051 0.94931 0.0
C302 C 0.47076 0.96178 0.89925 0.0
C303 C 0.47147 0.02343 0.91729 0.0
C304 C 0.44246 0.94802 0.84482 0.0
C305 C 0.45785 0.87353 0.85624 0.0
N306 N 0.46531 -0.00091 0.8936 0.0
N307 N 0.46888 0.89934 0.87769 0.0
H308 H 0.67948 0.51997 0.83716 0.0
H309 H 0.50884 0.52221 0.72261 0.0
H310 H 0.57345 0.53428 0.87721 0.0
H311 H 0.61971 0.555 0.68038 0.0
H312 H 0.53092 0.51361 0.78016 0.0
H313 H 0.65651 0.5199 0.77998 0.0
C314 C 0.65127 0.52269 0.83392 0.0
C315 C 0.62832 0.52731 0.8618 0.0
C316 C 0.55035 0.52247 0.75823 0.0
C317 C 0.60194 0.52711 0.79677 0.0
C318 C 0.53782 0.5272 0.72542 0.0
C319 C 0.56249 0.53955 0.69673 0.0
C320 C 0.58781 0.52957 0.76229 0.0
C321 C 0.59975 0.54571 0.70184 0.0
C322 C 0.63827 0.52286 0.80134 0.0
C323 C 0.59207 0.53103 0.85625 0.0
N324 N 0.6113 0.54063 0.73401 0.0
N325 N 0.57995 0.53078 0.82435 0.0
H326 H 0.95103 0.76127 0.31646 0.0
H327 H 0.94508 0.63809 0.1604 0.0
H328 H 0.85414 0.69015 0.29223 0.0
H329 H 0.04306 0.68839 0.20124 0.0
H330 H 0.9094 0.66869 0.19998 0.0
H331 H 0.9832 0.74621 0.2658 0.0
C332 C 0.93649 0.74262 0.30038 0.0
C333 C 0.90004 0.72645 0.30886 0.0
C334 C 0.93874 0.67337 0.19992 0.0
C335 C 0.93657 0.70928 0.25075 0.0
C336 C 0.95897 0.65614 0.1773 0.0
C337 C 0.99682 0.66035 0.17818 0.0
C338 C 0.95675 0.69516 0.22309 0.0
C339 C 1.01381 0.6839 0.20042 0.0
C340 C 0.95479 0.73418 0.27139 0.0
C341 C 0.88225 0.70326 0.28662 0.0
N342 N 0.99366 0.70021 0.22216 0.0
N343 N 0.90082 0.69499 0.25876 0.0
H344 H 0.30898 0.19196 0.15364 0.0
H345 H 0.49505 0.10677 0.1782 0.0
H346 H 0.34562 0.15865 0.25349 0.0
H347 H 0.44258 0.11633 0.0831 0.0
H348 H 0.44312 0.12878 0.20627 0.0
H349 H 0.35968 0.16706 0.1275 0.0
C350 C 0.32766 0.17923 0.17012 0.0
C351 C 0.32294 0.17749 0.20587 0.0
C352 C 0.44302 0.12599 0.17927 0.0
C353 C 0.38174 0.14903 0.1759 0.0
C354 C 0.47275 0.11359 0.16317 0.0
C355 C 0.47336 0.10966 0.12813 0.0
C356 C 0.41376 0.13495 0.16018 0.0
C357 C 0.44348 0.11882 0.11011 0.0
C358 C 0.35665 0.16494 0.15515 0.0
C359 C 0.34798 0.16036 0.22586 0.0
N360 N 0.41517 0.13109 0.12623 0.0
N361 N 0.37644 0.14712 0.21063 0.0
H362 H 0.30524 0.89647 0.70958 0.0
H363 H 0.13509 0.0017 0.66852 0.0
H364 H 0.2068 0.87725 0.77593 0.0
H365 H 0.23989 0.0351 0.61304 0.0
H366 H 0.16104 0.95661 0.70866 0.0
H367 H 0.28222 0.94811 0.67463 0.0
C368 C 0.27896 0.90341 0.71712 0.0
C369 C 0.25795 0.88244 0.74586 0.0
C370 C 0.17846 0.97397 0.68788 0.0
C371 C 0.2311 0.94118 0.70534 0.0
C372 C 0.16362 -0.00046 0.66485 0.0
C373 C 0.18533 0.02182 0.63723 0.0
C374 C 0.21525 0.97038 0.68308 0.0
C375 C 0.22228 0.01851 0.63405 0.0
C376 C 0.26576 0.93282 0.69698 0.0
C377 C 0.22374 0.89226 0.75378 0.0
N378 N 0.23602 0.99294 0.65652 0.0
N379 N 0.2113 0.92079 0.73352 0.0
H380 H 0.77218 0.51528 1.02515 0.0
H381 H 0.98388 0.51358 0.99331 0.0
H382 H 0.81384 0.43037 0.97227 0.0
H383 H 0.93915 0.56471 0.07596 0.0
H384 H 0.9222 0.48604 0.98195 0.0
H385 H 0.83367 0.53736 0.0409 0.0
C386 C 0.79433 0.50125 1.01697 0.0
C387 C 0.78804 0.47104 0.99736 0.0
C388 C 0.92597 0.50304 1.00274 0.0
C389 C 0.85837 0.4963 1.01496 0.0
C390 C 0.96112 0.51885 1.00917 0.0
C391 C 0.96667 0.54149 0.03562 0.0
C392 C 0.89614 0.5105 1.02248 0.0
C393 C 0.93617 0.54735 0.05538 0.0
C394 C 0.82933 0.51372 1.02606 0.0
C395 C 0.81759 0.45362 0.98758 0.0
N396 N 0.90221 0.53226 0.0482 0.0
N397 N 0.85158 0.46676 0.99618 0.0
H398 H 0.87271 0.74139 0.55067 0.0
H399 H 0.69715 0.58332 0.57462 0.0
H400 H 0.8648 0.63315 0.51117 0.0
H401 H 0.70084 0.70138 0.59096 0.0
H402 H 0.76369 0.59247 0.57132 0.0
H403 H 0.81697 0.71706 0.58675 0.0
C404 C 0.86009 0.7119 0.55068 0.0
C405 C 0.87274 0.68949 0.52734 0.0
C406 C 0.74989 0.61613 0.57633 0.0
C407 C 0.80853 0.66204 0.56758 0.0
C408 C 0.71198 0.61091 0.57821 0.0
C409 C 0.69367 0.64197 0.58213 0.0
C410 C 0.76941 0.6526 0.57852 0.0
C411 C 0.71406 0.67709 0.58683 0.0
C412 C 0.82801 0.69817 0.57099 0.0
C413 C 0.85531 0.65154 0.52835 0.0
N414 N 0.75087 0.68161 0.58444 0.0
N415 N 0.82348 0.63927 0.54746 0.0
H416 H 0.20129 0.34052 0.12996 0.0
H417 H 0.08777 0.51303 0.14714 0.0
H418 H 0.19806 0.39924 0.2186 0.0
H419 H 0.11633 0.47752 0.05017 0.0
H420 H 0.1171 0.46201 0.17633 0.0
H421 H 0.15896 0.38068 0.10339 0.0
C422 C 0.19081 0.36111 0.14417 0.0
C423 C 0.20292 0.36652 0.17654 0.0
C424 C 0.11667 0.46514 0.14869 0.0
C425 C 0.15512 0.41279 0.14631 0.0
C426 C 0.0998 0.49423 0.13196 0.0
C427 C 0.09976 0.49986 0.09605 0.0
C428 C 0.13351 0.44116 0.1295 0.0
C429 C 0.11585 0.47445 0.07786 0.0
C430 C 0.16702 0.38428 0.12891 0.0
C431 C 0.18918 0.39411 0.19366 0.0
N432 N 0.13221 0.44637 0.09475 0.0
N433 N 0.16618 0.41629 0.17832 0.0
H434 H 0.6283 0.37957 0.99205 0.0
H435 H 0.65292 0.16913 0.06226 0.0
H436 H 0.73327 0.3427 0.98236 0.0
H437 H 0.5563 0.191 1.0123 0.0
H438 H 0.68198 0.23476 0.0402 0.0
H439 H 0.60016 0.31255 1.00568 0.0
C440 C 0.64555 0.35762 0.99223 0.0
C441 C 0.68349 0.3673 0.9859 0.0
C442 C 0.65453 0.22506 0.03389 0.0
C443 C 0.6511 0.29032 1.00294 0.0
C444 C 0.63787 0.18778 0.04658 0.0
C445 C 0.60216 0.17478 0.0391 0.0
C446 C 0.63499 0.2498 1.01437 0.0
C447 C 0.58392 0.19997 1.01853 0.0
C448 C 0.62932 0.31929 1.00027 0.0
C449 C 0.70412 0.33707 0.98771 0.0
N450 N 0.60038 0.23658 1.00724 0.0
N451 N 0.68772 0.30002 0.99647 0.0
H452 H 0.99822 0.76168 0.51875 0.0
H453 H 0.04992 0.9884 0.46681 0.0
H454 H 0.9598 0.83012 0.43327 0.0
H455 H 0.06511 0.93166 0.56728 0.0
H456 H 0.0341 0.92608 0.44756 0.0
H457 H 0.03743 0.8195 0.53077 0.0
C458 C 0.99827 0.78851 0.5022 0.0
C459 C 0.9751 0.79073 0.4751 0.0
C460 C 0.04143 0.92703 0.4737 0.0
C461 C 0.02063 0.85657 0.4883 0.0
C462 C 0.0506 0.96258 0.48461 0.0
C463 C 0.05835 0.96485 0.51867 0.0
C464 C 0.03911 0.89342 0.49726 0.0
C465 C 0.05917 0.93079 0.54078 0.0
C466 C 0.02086 0.82139 0.50901 0.0
C467 C 0.97724 0.82625 0.45412 0.0
N468 N 0.04882 0.8962 0.52987 0.0
N469 N 0.99926 0.8576 0.46135 0.0
H470 H 0.47888 0.81819 0.73273 0.0
H471 H 0.4366 0.61849 0.66089 0.0
H472 H 0.39898 0.72287 0.77958 0.0
H473 H 0.54081 0.69078 0.63699 0.0
H474 H 0.4197 0.6621 0.69921 0.0
H475 H 0.50141 0.77606 0.69447 0.0
C476 C 0.4666 0.78827 0.73543 0.0
C477 C 0.43672 0.77408 0.75905 0.0
C478 C 0.44627 0.66856 0.68557 0.0
C479 C 0.46155 0.72639 0.71501 0.0
C480 C 0.45586 0.64381 0.66337 0.0
C481 C 0.4903 0.65082 0.64577 0.0
C482 C 0.47109 0.70091 0.6902 0.0
C483 C 0.51398 0.68426 0.65009 0.0
C484 C 0.47923 0.76441 0.71343 0.0
C485 C 0.42162 0.73519 0.76131 0.0
N486 N 0.50396 0.70813 0.67198 0.0
N487 N 0.43387 0.71291 0.73932 0.0
H488 H 0.99303 0.95078 0.8207 0.0
H489 H 0.95292 0.01605 0.62475 0.0
H490 H 0.88674 0.92752 0.78252 0.0
H491 H 0.0594 0.02934 0.66383 0.0
H492 H 0.92704 0.98671 0.68244 0.0
H493 H 1.01669 0.98256 0.76369 0.0
C494 C 0.97458 0.95223 0.80038 0.0
C495 C 0.93773 0.93615 0.80675 0.0
C496 C 0.95606 0.99617 0.67832 0.0
C497 C 0.96484 0.97318 0.74082 0.0
C498 C 0.97084 0.01299 0.64537 0.0
C499 C 1.00846 0.02525 0.63921 0.0
C500 C 0.97901 0.99166 0.7054 0.0
C501 C 0.03027 0.02039 0.6671 0.0
C502 C 0.98814 0.97062 0.76772 0.0
C503 C 0.91522 0.93979 0.7792 0.0
N504 N 1.0153 0.00407 0.69871 0.0
N505 N 0.9291 0.95773 0.74755 0.0
H506 H 0.66529 0.09465 0.40138 0.0
H507 H 0.57602 0.12859 0.22229 0.0
H508 H 0.61768 0.1963 0.37044 0.0
H509 H 0.66037 0.05916 0.24061 0.0
H510 H 0.58015 0.14553 0.28065 0.0
H511 H 0.65271 0.07321 0.34644 0.0
C512 C 0.65234 0.11263 0.38298 0.0
C513 C 0.64333 0.14786 0.39031 0.0
C514 C 0.59754 0.1264 0.27188 0.0
C515 C 0.62798 0.12277 0.32753 0.0
C516 C 0.59501 0.11654 0.23881 0.0
C517 C 0.61804 0.09262 0.22675 0.0
C518 C 0.6228 0.11161 0.29305 0.0
C519 C 0.64245 0.078 0.24891 0.0
C520 C 0.64496 0.10018 0.3517 0.0
C521 C 0.62523 0.16905 0.36588 0.0
N522 N 0.64416 0.08768 0.28099 0.0
N523 N 0.61831 0.15627 0.33544 0.0
H524 H 0.49833 0.62058 0.32481 0.0
H525 H 0.43421 0.5703 0.52272 0.0
H526 H 0.38676 0.61576 0.36105 0.0
H527 H 0.54468 0.61817 0.48661 0.0
H528 H 0.4158 0.58358 0.464 0.0
H529 H 0.51584 0.61716 0.38409 0.0
C530 C 0.47765 0.61942 0.34535 0.0
C531 C 0.44117 0.61879 0.33821 0.0
C532 C 0.444 0.59144 0.46905 0.0
C533 C 0.46069 0.61374 0.40609 0.0
C534 C 0.45456 0.58372 0.50251 0.0
C535 C 0.49109 0.59299 0.50963 0.0
C536 C 0.47024 0.60793 0.4424 0.0
C537 C 0.51623 0.6105 0.4824 0.0
C538 C 0.48758 0.61738 0.37913 0.0
C539 C 0.41524 0.61675 0.36563 0.0
N540 N 0.50542 0.61702 0.45002 0.0
N541 N 0.42542 0.61381 0.39847 0.0
H542 H 0.04331 0.45724 0.7501 0.0
H543 H 0.04764 0.60159 0.88962 0.0
H544 H 1.00903 0.56833 0.7296 0.0
H545 H 0.10908 0.50763 0.89307 0.0
H546 H 0.0257 0.58622 0.83459 0.0
H547 H 0.05936 0.47134 0.80668 0.0
C548 C 0.03918 0.48467 0.75749 0.0
C549 C 0.0254 0.51193 0.7348 0.0
C550 C 0.04401 0.56906 0.84745 0.0
C551 C 0.04335 0.52807 0.79991 0.0
C552 C 0.05641 0.57771 0.87883 0.0
C553 C 0.08038 0.55598 0.89578 0.0
C554 C 0.0553 0.53814 0.83328 0.0
C555 C 0.0911 0.52549 0.88063 0.0
C556 C 0.04827 0.49265 0.78986 0.0
C557 C 0.01957 0.54649 0.74625 0.0
N558 N 0.0784 0.51741 0.85034 0.0
N559 N 0.02879 0.5537 0.778 0.0
H560 H 0.79263 0.93919 0.98152 0.0
H561 H 0.60581 0.02614 0.98331 0.0
H562 H 0.72278 0.94522 0.89786 0.0
H563 H 0.67186 0.02193 0.07009 0.0
H564 H 0.65143 0.00055 0.95093 0.0
H565 H 0.75281 0.97432 1.01308 0.0
C566 C 0.76943 0.94869 0.9695 0.0
C567 C 0.76097 0.93923 0.93704 0.0
C568 C 0.65619 0.00524 0.97701 0.0
C569 C 0.71501 0.97872 0.97309 0.0
C570 C 0.62997 0.01987 0.99565 0.0
C571 C 0.63475 0.02613 0.02968 0.0
C572 C 0.68773 0.99642 0.99228 0.0
C573 C 0.66689 0.01748 0.044 0.0
C574 C 0.74652 0.96838 0.98763 0.0
C575 C 0.73026 0.95174 0.92287 0.0
N576 N 0.69207 0.00291 1.02531 0.0
N577 N 0.70842 0.97049 0.94098 0.0
H578 H 0.7542 0.20865 0.49308 0.0
H579 H 0.87037 0.03827 0.48895 0.0
H580 H 0.71101 0.09364 0.47655 0.0
H581 H 0.91328 0.14467 0.52393 0.0
H582 H 0.81061 0.05794 0.48801 0.0
H583 H 0.81137 0.18613 0.50892 0.0
C584 C 0.75659 0.1786 0.49342 0.0
C585 C 0.72827 0.15302 0.48301 0.0
C586 C 0.83288 0.07703 0.49621 0.0
C587 C 0.79304 0.12724 0.50068 0.0
C588 C 0.86702 0.0658 0.49657 0.0
C589 C 0.89671 0.09007 0.50618 0.0
C590 C 0.82833 0.1132 0.50497 0.0
C591 C 0.89092 0.12521 0.51639 0.0
C592 C 0.78913 0.16579 0.5023 0.0
C593 C 0.73252 0.11439 0.48384 0.0
N594 N 0.85741 0.13606 0.51505 0.0
N595 N 0.76435 0.10282 0.49211 0.0
H596 H 0.29316 0.7324 0.17741 0.0
H597 H 0.19459 0.60581 0.04482 0.0
H598 H 0.33315 0.6329 0.14753 0.0
H599 H 0.14548 0.6877 0.09563 0.0
H600 H 0.25026 0.62175 0.07444 0.0
H601 H 0.24284 0.72165 0.14092 0.0
C602 C 0.29129 0.70822 0.16313 0.0
C603 C 0.31736 0.68348 0.16554 0.0
C604 C 0.22744 0.63659 0.07864 0.0
C605 C 0.2597 0.67101 0.12342 0.0
C606 C 0.19593 0.62791 0.0614 0.0
C607 C 0.16551 0.64557 0.06778 0.0
C608 C 0.22845 0.66333 0.10204 0.0
C609 C 0.16834 0.67343 0.09002 0.0
C610 C 0.26254 0.70208 0.14228 0.0
C611 C 0.31342 0.65241 0.14665 0.0
N612 N 0.19911 0.68129 0.10641 0.0
N613 N 0.28516 0.6471 0.12626 0.0
H614 H 0.17084 0.40283 0.649 0.0
H615 H 0.35665 0.55084 0.62378 0.0
H616 H 0.17573 0.52191 0.60692 0.0
H617 H 0.34856 0.42765 0.64834 0.0
H618 H 0.29044 0.54329 0.62276 0.0
H619 H 0.2358 0.41425 0.65571 0.0
C620 C 0.18575 0.43148 0.64118 0.0
C621 C 0.16818 0.46134 0.62679 0.0
C622 C 0.3033 0.51802 0.62848 0.0
C623 C 0.2427 0.47475 0.63441 0.0
C624 C 0.34113 0.52224 0.62888 0.0
C625 C 0.35842 0.48981 0.63616 0.0
C626 C 0.2827 0.48117 0.63556 0.0
C627 C 0.33668 0.45357 0.6431 0.0
C628 C 0.22283 0.43802 0.64504 0.0
C629 C 0.18848 0.49813 0.61792 0.0
N630 N 0.30009 0.45029 0.64259 0.0
N631 N 0.22492 0.5038 0.62157 0.0
H632 H 0.97346 0.8211 0.86437 0.0
H633 H 1.01046 0.70924 0.0467 0.0
H634 H 0.934 0.84892 0.96124 0.0
H635 H 0.05192 0.68312 0.94989 0.0
H636 H 0.98438 0.76203 1.01601 0.0
H637 H 1.00454 0.7726 0.89519 0.0
C638 C 0.97163 0.81746 0.89211 0.0
C639 C 0.9509 0.83943 0.91008 0.0
C640 C 0.99934 0.74491 1.00145 0.0
C641 C 0.98622 0.78299 0.94578 0.0
C642 C 1.01435 0.71472 1.019 0.0
C643 C 0.03352 0.69152 1.00095 0.0
C644 C 1.00332 0.75211 0.96544 0.0
C645 C 0.03746 0.70015 0.96499 0.0
C646 C 0.98923 0.78942 0.90974 0.0
C647 C 0.94916 0.83251 0.94614 0.0
N648 N 0.02243 0.72954 0.9485 0.0
N649 N 0.96642 0.80497 0.96269 0.0
H650 H 0.47238 0.76257 0.19773 0.0
H651 H 0.46018 0.96519 0.09609 0.0
H652 H 0.37073 0.80652 0.19018 0.0
H653 H 0.55246 0.95021 0.15541 0.0
H654 H 0.4292 0.90245 0.12389 0.0
H655 H 0.50479 0.82765 0.17801 0.0
C656 C 0.45685 0.78586 0.19256 0.0
C657 C 0.41866 0.7788 0.19507 0.0
C658 C 0.4562 0.91298 0.13086 0.0
C659 C 0.45557 0.85275 0.17154 0.0
C660 C 0.47399 0.94858 0.11484 0.0
C661 C 0.50891 0.96284 0.12349 0.0
C662 C 0.47375 0.89106 0.15513 0.0
C663 C 0.52547 0.94023 0.14814 0.0
C664 C 0.47539 0.8229 0.18109 0.0
C665 C 0.4001 0.81025 0.18766 0.0
N666 N 0.50787 0.90516 0.16291 0.0
N667 N 0.41868 0.84564 0.17567 0.0
H668 H 0.1121 0.38186 0.54619 0.0
H669 H 1.00063 0.17144 0.57479 0.0
H670 H 0.02559 0.35003 0.62619 0.0
H671 H 0.11721 0.19384 0.55585 0.0
H672 H 1.00119 0.23941 0.58126 0.0
H673 H 0.10465 0.31523 0.53495 0.0
C674 C 0.09112 0.36102 0.56101 0.0
C675 C 0.06999 0.37139 0.58773 0.0
C676 C 0.02653 0.22926 0.57572 0.0
C677 C 0.06103 0.29549 0.57446 0.0
C678 C 0.0263 0.19069 0.57207 0.0
C679 C 0.059 0.17718 0.56502 0.0
C680 C 0.05953 0.25449 0.57118 0.0
C681 C 0.09152 0.20314 0.56164 0.0
C682 C 0.08702 0.3231 0.55461 0.0
C683 C 0.04252 0.34337 0.60542 0.0
N684 N 0.09094 0.24075 0.5644 0.0
N685 N 0.03899 0.30647 0.59866 0.0
H686 H 0.57396 0.27151 0.58937 0.0
H687 H 0.60381 0.4996 0.53484 0.0
H688 H 0.61584 0.3231 0.48735 0.0
H689 H 0.52579 0.43605 0.6139 0.0
H690 H 0.62128 0.43819 0.52213 0.0
H691 H 0.57083 0.33531 0.60455 0.0
C692 C 0.58285 0.29637 0.57024 0.0
C693 C 0.59447 0.29196 0.53685 0.0
C694 C 0.60051 0.43799 0.54234 0.0
C695 C 0.59091 0.36525 0.55407 0.0
C696 C 0.59061 0.47286 0.54961 0.0
C697 C 0.56304 0.4728 0.57517 0.0
C698 C 0.58327 0.40325 0.56142 0.0
C699 C 0.54681 0.43746 0.59365 0.0
C700 C 0.58103 0.33277 0.5789 0.0
C701 C 0.60653 0.32526 0.51334 0.0
N702 N 0.5572 0.40428 0.58646 0.0
N703 N 0.604 0.36063 0.52225 0.0
loop_
_geom_bond_atom_site_label_1
_geom_bond_atom_site_label_2
_geom_bond_distance
_geom_bond_site_symmetry_2
_ccdc_geom_bond_type
H0 C1 0.949 . S
C1 H0 0.949 . S
C1 C2 1.395 . S
C1 C3 1.391 . S
C2 C1 1.395 . S
C2 C5 1.390 . S
C3 C1 1.391 . S
C3 C7 1.387 . S
C3 C8 1.491 . S
H4 C5 0.950 . S
C5 C2 1.390 . S
C5 H4 0.950 . S
C5 C6 1.378 . S
C6 C5 1.378 . S
C6 C7 1.409 . S
C7 C3 1.387 . S
C7 C6 1.409 . S
C7 H9 0.951 . S
C8 C3 1.491 . S
C8 C10 1.382 . S
C8 C12 1.404 . S
H9 C7 0.951 . S
C10 C8 1.382 . S
C10 C11 1.390 . S
C10 H15 0.949 . S
C11 C10 1.390 . S
C11 C16 1.399 . S
C12 C8 1.404 . S
C12 H13 0.950 . S
C12 C14 1.375 . S
H13 C12 0.950 . S
C14 C12 1.375 . S
C14 C16 1.382 . S
C14 H18 0.950 . S
H15 C10 0.949 . S
C16 C11 1.399 . S
C16 C14 1.382 . S
C16 H17 0.952 . S
H17 C16 0.952 . S
H18 C14 0.950 . S
H19 C20 0.949 . S
C20 H19 0.949 . S
C20 C21 1.395 . S
C20 C22 1.391 . S
C21 C20 1.395 . S
C21 C24 1.390 . S
C22 C20 1.391 . S
C22 C26 1.387 . S
C22 C27 1.491 . S
H23 C24 0.950 . S
C24 C21 1.390 . S
C24 H23 0.950 . S
C24 C25 1.378 . S
C25 C24 1.378 . S
C25 C26 1.409 . S
C26 C22 1.387 . S
C26 C25 1.409 . S
C26 H28 0.951 . S
C27 C22 1.491 . S
C27 C29 1.382 . S
C27 C31 1.404 . S
H28 C26 0.951 . S
C29 C27 1.382 . S
C29 C30 1.390 . S
C29 H34 0.949 . S
C30 C29 1.390 . S
C30 C35 1.399 . S
C31 C27 1.404 . S
C31 H32 0.950 . S
C31 C33 1.375 . S
H32 C31 0.950 . S
C33 C31 1.375 . S
C33 C35 1.382 . S
C33 H37 0.950 . S
H34 C29 0.949 . S
C35 C30 1.399 . S
C35 C33 1.382 . S
C35 H36 0.952 . S
H36 C35 0.952 . S
H37 C33 0.950 . S
H38 C39 0.949 . S
C39 H38 0.949 . S
C39 C40 1.395 . S
C39 C41 1.391 . S
C40 C39 1.395 . S
C40 C43 1.390 . S
C41 C39 1.391 . S
C41 C45 1.387 . S
C41 C46 1.491 . S
H42 C43 0.950 . S
C43 C40 1.390 . S
C43 H42 0.950 . S
C43 C44 1.378 . S
C44 C43 1.378 . S
C44 C45 1.409 . S
C45 C41 1.387 . S
C45 C44 1.409 . S
C45 H47 0.951 . S
C46 C41 1.491 . S
C46 C48 1.382 . S
C46 C50 1.404 . S
H47 C45 0.951 . S
C48 C46 1.382 . S
C48 C49 1.390 . S
C48 H53 0.949 . S
C49 C48 1.390 . S
C49 C54 1.399 . S
C50 C46 1.404 . S
C50 H51 0.950 . S
C50 C52 1.375 . S
H51 C50 0.950 . S
C52 C50 1.375 . S
C52 C54 1.382 . S
C52 H56 0.950 . S
H53 C48 0.949 . S
C54 C49 1.399 . S
C54 C52 1.382 . S
C54 H55 0.952 . S
H55 C54 0.952 . S
H56 C52 0.950 . S
H57 C58 0.949 . S
C58 H57 0.949 . S
C58 C59 1.395 . S
C58 C60 1.391 . S
C59 C58 1.395 . S
C59 C62 1.390 . S
C60 C58 1.391 . S
C60 C64 1.387 . S
C60 C65 1.491 . S
H61 C62 0.950 . S
C62 C59 1.390 . S
C62 H61 0.950 . S
C62 C63 1.378 . S
C63 C62 1.378 . S
C63 C64 1.409 . S
C64 C60 1.387 . S
C64 C63 1.409 . S
C64 H66 0.951 . S
C65 C60 1.491 . S
C65 C67 1.382 . S
C65 C69 1.404 . S
H66 C64 0.951 . S
C67 C65 1.382 . S
C67 C68 1.390 . S
C67 H72 0.949 . S
C68 C67 1.390 . S
C68 C73 1.399 . S
C69 C65 1.404 . S
C69 H70 0.950 . S
C69 C71 1.375 . S
H70 C69 0.950 . S
C71 C69 1.375 . S
C71 C73 1.382 . S
C71 H75 0.950 . S
H72 C67 0.949 . S
C73 C68 1.399 . S
C73 C71 1.382 . S
C73 H74 0.952 . S
H74 C73 0.952 . S
H75 C71 0.950 . S
H76 C77 0.949 . S
C77 H76 0.949 . S
C77 C78 1.395 . S
C77 C79 1.391 . S
C78 C77 1.395 . S
C78 C81 1.390 . S
C79 C77 1.391 . S
C79 C83 1.387 . S
C79 C84 1.491 . S
H80 C81 0.950 . S
C81 C78 1.390 . S
C81 H80 0.950 . S
C81 C82 1.378 . S
C82 C81 1.378 . S
C82 C83 1.409 . S
C83 C79 1.387 . S
C83 C82 1.409 . S
C83 H85 0.951 . S
C84 C79 1.491 . S
C84 C86 1.382 . S
C84 C88 1.404 . S
H85 C83 0.951 . S
C86 C84 1.382 . S
C86 C87 1.390 . S
C86 H91 0.949 . S
C87 C86 1.390 . S
C87 C92 1.399 . S
C88 C84 1.404 . S
C88 H89 0.950 . S
C88 C90 1.375 . S
H89 C88 0.950 . S
C90 C88 1.375 . S
C90 C92 1.382 . S
C90 H94 0.950 . S
H91 C86 0.949 . S
C92 C87 1.399 . S
C92 C90 1.382 . S
C92 H93 0.952 . S
H93 C92 0.952 . S
H94 C90 0.950 . S
H95 C96 0.949 . S
C96 H95 0.949 . S
C96 C97 1.395 . S
C96 C98 1.391 . S
C97 C96 1.395 . S
C97 C100 1.390 . S
C98 C96 1.391 . S
C98 C102 1.387 . S
C98 C103 1.491 . S
H99 C100 0.950 . S
C100 C97 1.390 . S
C100 H99 0.950 . S
C100 C101 1.378 . S
C101 C100 1.378 . S
C101 C102 1.409 . S
C102 C98 1.387 . S
C102 C101 1.409 . S
C102 H104 0.951 . S
C103 C98 1.491 . S
C103 C105 1.382 . S
C103 C107 1.404 . S
H104 C102 0.951 . S
C105 C103 1.382 . S
C105 C106 1.390 . S
C105 H110 0.949 . S
C106 C105 1.390 . S
C106 C111 1.399 . S
C107 C103 1.404 . S
C107 H108 0.950 . S
C107 C109 1.375 . S
H108 C107 0.950 . S
C109 C107 1.375 . S
C109 C111 1.382 . S
C109 H113 0.950 . S
H110 C105 0.949 . S
C111 C106 1.399 . S
C111 C109 1.382 . S
C111 H112 0.952 . S
H112 C111 0.952 . S
H113 C109 0.950 . S
H114 C115 0.949 . S
C115 H114 0.949 . S
C115 C116 1.395 . S
C115 C117 1.391 . S
C116 C115 1.395 . S
C116 C119 1.390 . S
C117 C115 1.391 . S
C117 C121 1.387 . S
C117 C122 1.491 . S
H118 C119 0.950 . S
C119 C116 1.390 . S
C119 H118 0.950 . S
C119 C120 1.378 . S
C120 C119 1.378 . S
C120 C121 1.409 . S
C121 C117 1.387 . S
C121 C120 1.409 . S
C121 H123 0.951 . S
C122 C117 1.491 . S
C122 C124 1.382 . S
C122 C126 1.404 . S
H123 C121 0.951 . S
C124 C122 1.382 . S
C124 C125 1.390 . S
C124 H129 0.949 . S
C125 C124 1.390 . S
C125 C130 1.399 . S
C126 C122 1.404 . S
C126 H127 0.950 . S
C126 C128 1.375 . S
H127 C126 0.950 . S
C128 C126 1.375 . S
C128 C130 1.382 . S
C128 H132 0.950 . S
H129 C124 0.949 . S
C130 C125 1.399 . S
C130 C128 1.382 . S
C130 H131 0.952 . S
H131 C130 0.952 . S
H132 C128 0.950 . S
H133 C134 0.949 . S
C134 H133 0.949 . S
C134 C135 1.395 . S
C134 C136 1.391 . S
C135 C134 1.395 . S
C135 C138 1.390 . S
C136 C134 1.391 . S
C136 C140 1.387 . S
C136 C141 1.491 . S
H137 C138 0.950 . S
C138 C135 1.390 . S
C138 H137 0.950 . S
C138 C139 1.378 . S
C139 C138 1.378 . S
C139 C140 1.409 . S
C140 C136 1.387 . S
C140 C139 1.409 . S
C140 H142 0.951 . S
C141 C136 1.491 . S
C141 C143 1.382 . S
C141 C145 1.404 . S
H142 C140 0.951 . S
C143 C141 1.382 . S
C143 C144 1.390 . S
C143 H148 0.949 . S
C144 C143 1.390 . S
C144 C149 1.399 . S
C145 C141 1.404 . S
C145 H146 0.950 . S
C145 C147 1.375 . S
H146 C145 0.950 . S
C147 C145 1.375 . S
C147 C149 1.382 . S
C147 H151 0.950 . S
H148 C143 0.949 . S
C149 C144 1.399 . S
C149 C147 1.382 . S
C149 H150 0.952 . S
H150 C149 0.952 . S
H151 C147 0.950 . S
Co152 N157 2.057 . S
Co152 O169 2.016 1_655 S
Co152 O172 2.062 1_655 S
Co152 O176 2.117 . S
Co152 O177 2.020 . S
C153 O173 1.259 1_655 S
C153 O176 1.258 1_565 S
Co154 N163 2.057 . S
Co154 O170 2.117 . S
Co154 O171 2.020 . S
Co154 O173 2.021 1_545 S
Co154 O178 2.062 . S
C155 N157 1.316 . S
C155 N158 1.347 . S
C155 H160 0.931 . S
C156 N157 1.375 . S
C156 C159 1.350 . S
C156 H161 0.930 . S
N157 Co152 2.057 . S
N157 C155 1.316 . S
N157 C156 1.375 . S
N158 C155 1.347 . S
N158 C159 1.373 . S
C159 C156 1.350 . S
C159 N158 1.373 . S
C159 H180 0.931 . S
H160 C155 0.931 . S
H161 C156 0.930 . S
C162 O169 1.286 . S
C162 O170 1.258 . S
N163 Co154 2.057 . S
N163 C164 1.316 . S
N163 C165 1.375 . S
C164 N163 1.316 . S
C164 N166 1.347 . S
C164 H175 0.931 1_545 S
C165 N163 1.375 . S
C165 C167 1.350 . S
C165 H174 0.930 . S
N166 C164 1.347 . S
N166 C167 1.373 . S
C167 C165 1.350 . S
C167 N166 1.373 . S
C167 H181 0.931 . S
C168 O171 1.256 . S
C168 O172 1.255 . S
O169 Co152 2.016 1_455 S
O169 C162 1.286 . S
O170 Co154 2.117 . S
O170 C162 1.258 . S
O171 Co154 2.020 . S
O171 C168 1.256 . S
O172 Co152 2.062 1_455 S
O172 C168 1.255 . S
O173 C153 1.259 1_455 S
O173 Co154 2.021 1_565 S
H174 C165 0.930 . S
H175 C164 0.931 1_565 S
O176 Co152 2.117 . S
O176 C153 1.258 1_545 S
O177 Co152 2.020 . S
O177 C179 1.256 . S
O178 Co154 2.062 . S
O178 C179 1.255 1_455 S
C179 O177 1.256 . S
C179 O178 1.255 1_655 S
H180 C159 0.931 . S
H181 C167 0.931 . S
Co182 N187 2.057 1_554 S
Co182 O199 2.021 . S
Co182 O202 2.062 . S
Co182 O206 2.117 1_545 S
Co182 O207 2.020 . S
C183 O203 1.259 . S
C183 O206 1.258 . S
Co184 N193 2.057 . S
Co184 O200 2.117 . S
Co184 O201 2.020 . S
Co184 O203 2.021 1_545 S
Co184 O208 2.062 . S
C185 N187 1.316 . S
C185 N188 1.347 1_545 S
C185 H190 0.931 . S
C186 N187 1.375 1_565 S
C186 C189 1.350 . S
C186 H191 0.930 1_556 S
N187 Co182 2.057 1_556 S
N187 C185 1.316 . S
N187 C186 1.375 1_545 S
N188 C185 1.347 1_565 S
N188 C189 1.373 . S
C189 C186 1.350 . S
C189 N188 1.373 . S
C189 H210 0.931 . S
H190 C185 0.931 . S
H191 C186 0.930 1_554 S
C192 O199 1.259 . S
C192 O200 1.258 . S
N193 Co184 2.057 . S
N193 C194 1.316 . S
N193 C195 1.375 . S
C194 N193 1.316 . S
C194 N196 1.347 . S
C194 H205 0.931 . S
C195 N193 1.375 . S
C195 C197 1.350 . S
C195 H204 0.930 . S
N196 C194 1.347 . S
N196 C197 1.373 . S
C197 C195 1.350 . S
C197 N196 1.373 . S
C197 H211 0.931 . S
C198 O201 1.256 . S
C198 O202 1.255 . S
O199 Co182 2.021 . S
O199 C192 1.259 . S
O200 Co184 2.117 . S
O200 C192 1.258 . S
O201 Co184 2.020 . S
O201 C198 1.256 . S
O202 Co182 2.062 . S
O202 C198 1.255 . S
O203 C183 1.259 . S
O203 Co184 2.021 1_565 S
H204 C195 0.930 . S
H205 C194 0.931 . S
O206 Co182 2.117 1_565 S
O206 C183 1.258 . S
O207 Co182 2.020 . S
O207 C209 1.256 . S
O208 Co184 2.062 . S
O208 C209 1.255 . S
C209 O207 1.256 . S
C209 O208 1.255 . S
H210 C189 0.931 . S
H211 C197 0.931 . S
Co212 N217 2.057 . S
Co212 O229 2.021 . S
Co212 O232 2.062 . S
Co212 O236 2.117 . S
Co212 O237 2.020 . S
C213 O233 1.259 . S
C213 O236 1.258 . S
Co214 N223 2.057 . S
Co214 O230 2.117 . S
Co214 O231 2.020 . S
Co214 O233 2.021 . S
Co214 O238 2.062 . S
C215 N217 1.316 . S
C215 N218 1.347 . S
C215 H220 0.931 . S
C216 N217 1.375 . S
C216 C219 1.350 . S
C216 H221 0.930 . S
N217 Co212 2.057 . S
N217 C215 1.316 . S
N217 C216 1.375 . S
N218 C215 1.347 . S
N218 C219 1.373 . S
C219 C216 1.350 . S
C219 N218 1.373 . S
C219 H240 0.931 . S
H220 C215 0.931 . S
H221 C216 0.930 . S
C222 O229 1.259 . S
C222 O230 1.258 . S
N223 Co214 2.057 . S
N223 C224 1.316 . S
N223 C225 1.375 . S
C224 N223 1.316 . S
C224 N226 1.347 . S
C224 H235 0.931 . S
C225 N223 1.375 . S
C225 C227 1.350 . S
C225 H234 0.930 . S
N226 C224 1.347 . S
N226 C227 1.373 . S
C227 C225 1.350 . S
C227 N226 1.373 . S
C227 H241 0.931 . S
C228 O231 1.256 . S
C228 O232 1.255 . S
O229 Co212 2.021 . S
O229 C222 1.259 . S
O230 Co214 2.117 . S
O230 C222 1.258 . S
O231 Co214 2.020 . S
O231 C228 1.256 . S
O232 Co212 2.062 . S
O232 C228 1.255 . S
O233 C213 1.259 . S
O233 Co214 2.021 . S
H234 C225 0.930 . S
H235 C224 0.931 . S
O236 Co212 2.117 . S
O236 C213 1.258 . S
O237 Co212 2.020 . S
O237 C239 1.256 . S
O238 Co214 2.062 . S
O238 C239 1.255 . S
C239 O237 1.256 . S
C239 O238 1.255 . S
H240 C219 0.931 . S
H241 C227 0.931 . S
Co242 N247 2.057 . S
Co242 O259 2.021 1_556 S
Co242 O262 2.062 1_556 S
Co242 O266 2.117 1_455 S
Co242 O267 2.020 . S
C243 O263 1.259 . S
C243 O266 1.258 1_554 S
Co244 N253 2.057 . S
Co244 O260 2.117 . S
Co244 O261 2.020 . S
Co244 O263 2.021 1_455 S
Co244 O268 2.062 . S
C245 N247 1.316 . S
C245 N248 1.347 . S
C245 H250 0.931 . S
C246 N247 1.375 . S
C246 C249 1.350 . S
C246 H251 0.930 1_455 S
N247 Co242 2.057 . S
N247 C245 1.316 . S
N247 C246 1.375 . S
N248 C245 1.347 . S
N248 C249 1.373 . S
C249 C246 1.350 . S
C249 N248 1.373 . S
C249 H270 0.931 . S
H250 C245 0.931 . S
H251 C246 0.930 1_655 S
C252 O259 1.259 . S
C252 O260 1.258 . S
N253 Co244 2.057 . S
N253 C254 1.316 1_455 S
N253 C255 1.375 . S
C254 N253 1.316 1_655 S
C254 N256 1.347 . S
C254 H265 0.931 . S
C255 N253 1.375 . S
C255 C257 1.350 . S
C255 H264 0.930 . S
N256 C254 1.347 . S
N256 C257 1.373 1_655 S
C257 C255 1.350 . S
C257 N256 1.373 1_455 S
C257 H271 0.931 . S
C258 O261 1.256 . S
C258 O262 1.255 . S
O259 Co242 2.021 1_554 S
O259 C252 1.259 . S
O260 Co244 2.117 . S
O260 C252 1.258 . S
O261 Co244 2.020 . S
O261 C258 1.256 . S
O262 Co242 2.062 1_554 S
O262 C258 1.255 . S
O263 C243 1.259 . S
O263 Co244 2.021 1_655 S
H264 C255 0.930 . S
H265 C254 0.931 . S
O266 Co242 2.117 1_655 S
O266 C243 1.258 1_556 S
O267 Co242 2.020 . S
O267 C269 1.256 1_556 S
O268 Co244 2.062 . S
O268 C269 1.255 . S
C269 O267 1.256 1_554 S
C269 O268 1.255 . S
H270 C249 0.931 . S
H271 C257 0.931 . S
H272 C278 0.930 . S
H273 C282 0.930 . S
H274 C287 0.929 . S
H275 C285 0.929 . S
H276 C280 0.929 . S
H277 C286 0.929 . S
C278 H272 0.930 . S
C278 C279 1.367 . S
C278 C286 1.378 . S
C279 C278 1.367 . S
C279 C287 1.433 . S
C280 H276 0.929 . S
C280 C282 1.378 . S
C280 C284 1.350 . S
C281 C284 1.463 . S
C281 C286 1.350 . S
C281 N289 1.427 . S
C282 H273 0.930 . S
C282 C280 1.378 . S
C282 C283 1.367 . S
C283 C282 1.367 . S
C283 C285 1.433 . S
C284 C280 1.350 . S
C284 C281 1.463 . S
C284 N288 1.427 . S
C285 H275 0.929 . S
C285 C283 1.433 . S
C285 N288 1.384 . S
C286 H277 0.929 . S
C286 C278 1.378 . S
C286 C281 1.350 . S
C287 H274 0.929 . S
C287 C279 1.433 . S
C287 N289 1.384 . S
N288 C284 1.427 . S
N288 C285 1.384 . S
N289 C281 1.427 . S
N289 C287 1.384 . S
H290 C296 0.930 1_545 S
H291 C300 0.930 . S
H292 C305 0.929 . S
H293 C303 0.929 . S
H294 C298 0.929 . S
H295 C304 0.929 . S
C296 H290 0.930 1_565 S
C296 C297 1.367 . S
C296 C304 1.378 1_565 S
C297 C296 1.367 . S
C297 C305 1.433 . S
C298 H294 0.929 . S
C298 C300 1.378 . S
C298 C302 1.350 . S
C299 C302 1.463 . S
C299 C304 1.350 1_565 S
C299 N307 1.427 . S
C300 H291 0.930 . S
C300 C298 1.378 . S
C300 C301 1.367 . S
C301 C300 1.367 . S
C301 C303 1.433 1_565 S
C302 C298 1.350 . S
C302 C299 1.463 . S
C302 N306 1.427 1_565 S
C303 H293 0.929 . S
C303 C301 1.433 1_545 S
C303 N306 1.384 . S
C304 H295 0.929 . S
C304 C296 1.378 1_545 S
C304 C299 1.350 1_545 S
C305 H292 0.929 . S
C305 C297 1.433 . S
C305 N307 1.384 . S
N306 C302 1.427 1_545 S
N306 C303 1.384 . S
N307 C299 1.427 . S
N307 C305 1.384 . S
H308 C314 0.930 . S
H309 C318 0.930 . S
H310 C323 0.929 . S
H311 C321 0.929 . S
H312 C316 0.929 . S
H313 C322 0.929 . S
C314 H308 0.930 . S
C314 C315 1.367 . S
C314 C322 1.378 . S
C315 C314 1.367 . S
C315 C323 1.433 . S
C316 H312 0.929 . S
C316 C318 1.378 . S
C316 C320 1.350 . S
C317 C320 1.463 . S
C317 C322 1.350 . S
C317 N325 1.427 . S
C318 H309 0.930 . S
C318 C316 1.378 . S
C318 C319 1.367 . S
C319 C318 1.367 . S
C319 C321 1.433 . S
C320 C316 1.350 . S
C320 C317 1.463 . S
C320 N324 1.427 . S
C321 H311 0.929 . S
C321 C319 1.433 . S
C321 N324 1.384 . S
C322 H313 0.929 . S
C322 C314 1.378 . S
C322 C317 1.350 . S
C323 H310 0.929 . S
C323 C315 1.433 . S
C323 N325 1.384 . S
N324 C320 1.427 . S
N324 C321 1.384 . S
N325 C317 1.427 . S
N325 C323 1.384 . S
H326 C332 0.930 1_455 S
H327 C336 0.930 . S
H328 C341 0.929 . S
H329 C339 0.929 1_455 S
H330 C334 0.929 . S
H331 C340 0.929 1_455 S
C332 H326 0.930 1_655 S
C332 C333 1.367 . S
C332 C340 1.378 . S
C333 C332 1.367 . S
C333 C341 1.433 . S
C334 H330 0.929 . S
C334 C336 1.378 . S
C334 C338 1.350 . S
C335 C338 1.463 . S
C335 C340 1.350 . S
C335 N343 1.427 . S
C336 H327 0.930 . S
C336 C334 1.378 . S
C336 C337 1.367 . S
C337 C336 1.367 . S
C337 C339 1.433 . S
C338 C334 1.350 . S
C338 C335 1.463 . S
C338 N342 1.427 . S
C339 H329 0.929 1_655 S
C339 C337 1.433 . S
C339 N342 1.384 . S
C340 H331 0.929 1_655 S
C340 C332 1.378 . S
C340 C335 1.350 . S
C341 H328 0.929 . S
C341 C333 1.433 . S
C341 N343 1.384 . S
N342 C338 1.427 . S
N342 C339 1.384 . S
N343 C335 1.427 . S
N343 C341 1.384 . S
H344 C350 0.930 . S
H345 C354 0.930 . S
H346 C359 0.929 . S
H347 C357 0.929 . S
H348 C352 0.929 . S
H349 C358 0.929 . S
C350 H344 0.930 . S
C350 C351 1.367 . S
C350 C358 1.378 . S
C351 C350 1.367 . S
C351 C359 1.433 . S
C352 H348 0.929 . S
C352 C354 1.378 . S
C352 C356 1.350 . S
C353 C356 1.463 . S
C353 C358 1.350 . S
C353 N361 1.427 . S
C354 H345 0.930 . S
C354 C352 1.378 . S
C354 C355 1.367 . S
C355 C354 1.367 . S
C355 C357 1.433 . S
C356 C352 1.350 . S
C356 C353 1.463 . S
C356 N360 1.427 . S
C357 H347 0.929 . S
C357 C355 1.433 . S
C357 N360 1.384 . S
C358 H349 0.929 . S
C358 C350 1.378 . S
C358 C353 1.350 . S
C359 H346 0.929 . S
C359 C351 1.433 . S
C359 N361 1.384 . S
N360 C356 1.427 . S
N360 C357 1.384 . S
N361 C353 1.427 . S
N361 C359 1.384 . S
H362 C368 0.930 . S
H363 C372 0.930 . S
H364 C377 0.929 . S
H365 C375 0.929 . S
H366 C370 0.929 . S
H367 C376 0.929 . S
C368 H362 0.930 . S
C368 C369 1.367 1_545 S
C368 C376 1.378 . S
C369 C368 1.367 1_565 S
C369 C377 1.433 . S
C370 H366 0.929 . S
C370 C372 1.378 . S
C370 C374 1.350 1_565 S
C371 C374 1.463 1_565 S
C371 C376 1.350 1_565 S
C371 N379 1.427 . S
C372 H363 0.930 . S
C372 C370 1.378 . S
C372 C373 1.367 1_565 S
C373 C372 1.367 1_545 S
C373 C375 1.433 . S
C374 C370 1.350 1_545 S
C374 C371 1.463 1_545 S
C374 N378 1.427 . S
C375 H365 0.929 . S
C375 C373 1.433 . S
C375 N378 1.384 . S
C376 H367 0.929 . S
C376 C368 1.378 . S
C376 C371 1.350 1_545 S
C377 H364 0.929 . S
C377 C369 1.433 . S
C377 N379 1.384 . S
N378 C374 1.427 . S
N378 C375 1.384 . S
N379 C371 1.427 . S
N379 C377 1.384 . S
H380 C386 0.930 . S
H381 C390 0.930 . S
H382 C395 0.929 . S
H383 C393 0.932 . S
H384 C388 0.929 . S
H385 C394 0.929 . S
C386 H380 0.930 . S
C386 C387 1.367 . S
C386 C394 1.378 . S
C387 C386 1.367 . S
C387 C395 1.433 . S
C388 H384 0.929 . S
C388 C390 1.378 . S
C388 C392 1.350 . S
C389 C392 1.463 . S
C389 C394 1.350 . S
C389 N397 1.427 . S
C390 H381 0.930 . S
C390 C388 1.378 . S
C390 C391 1.370 . S
C391 C390 1.370 . S
C391 C393 1.434 . S
C392 C388 1.350 . S
C392 C389 1.463 . S
C392 N396 1.427 . S
C393 H383 0.932 . S
C393 C391 1.434 . S
C393 N396 1.384 . S
C394 H385 0.929 . S
C394 C386 1.378 . S
C394 C389 1.350 . S
C395 H382 0.929 . S
C395 C387 1.433 . S
C395 N397 1.384 . S
N396 C392 1.427 . S
N396 C393 1.384 . S
N397 C389 1.427 . S
N397 C395 1.384 . S
H398 C404 0.930 . S
H399 C408 0.930 . S
H400 C413 0.929 . S
H401 C411 0.929 . S
H402 C406 0.929 . S
H403 C412 0.929 . S
C404 H398 0.930 . S
C404 C405 1.367 . S
C404 C412 1.378 . S
C405 C404 1.367 . S
C405 C413 1.433 . S
C406 H402 0.929 . S
C406 C408 1.378 . S
C406 C410 1.350 . S
C407 C410 1.463 . S
C407 C412 1.350 . S
C407 N415 1.427 . S
C408 H399 0.930 . S
C408 C406 1.378 . S
C408 C409 1.367 . S
C409 C408 1.367 . S
C409 C411 1.433 . S
C410 C406 1.350 . S
C410 C407 1.463 . S
C410 N414 1.427 . S
C411 H401 0.929 . S
C411 C409 1.433 . S
C411 N414 1.384 . S
C412 H403 0.929 . S
C412 C404 1.378 . S
C412 C407 1.350 . S
C413 H400 0.929 . S
C413 C405 1.433 . S
C413 N415 1.384 . S
N414 C410 1.427 . S
N414 C411 1.384 . S
N415 C407 1.427 . S
N415 C413 1.384 . S
H416 C422 0.930 . S
H417 C426 0.930 . S
H418 C431 0.929 . S
H419 C429 0.929 . S
H420 C424 0.929 . S
H421 C430 0.929 . S
C422 H416 0.930 . S
C422 C423 1.367 . S
C422 C430 1.378 . S
C423 C422 1.367 . S
C423 C431 1.433 . S
C424 H420 0.929 . S
C424 C426 1.378 . S
C424 C428 1.350 . S
C425 C428 1.463 . S
C425 C430 1.350 . S
C425 N433 1.427 . S
C426 H417 0.930 . S
C426 C424 1.378 . S
C426 C427 1.367 . S
C427 C426 1.367 . S
C427 C429 1.433 . S
C428 C424 1.350 . S
C428 C425 1.463 . S
C428 N432 1.427 . S
C429 H419 0.929 . S
C429 C427 1.433 . S
C429 N432 1.384 . S
C430 H421 0.929 . S
C430 C422 1.378 . S
C430 C425 1.350 . S
C431 H418 0.929 . S
C431 C423 1.433 . S
C431 N433 1.384 . S
N432 C428 1.427 . S
N432 C429 1.384 . S
N433 C425 1.427 . S
N433 C431 1.384 . S
H434 C440 0.930 . S
H435 C444 0.930 . S
H436 C449 0.929 . S
H437 C447 0.929 . S
H438 C442 0.929 . S
H439 C448 0.929 . S
C440 H434 0.930 . S
C440 C441 1.367 . S
C440 C448 1.378 . S
C441 C440 1.367 . S
C441 C449 1.433 . S
C442 H438 0.929 . S
C442 C444 1.378 . S
C442 C446 1.350 . S
C443 C446 1.463 . S
C443 C448 1.350 1_554 S
C443 N451 1.427 . S
C444 H435 0.930 . S
C444 C442 1.378 . S
C444 C445 1.367 . S
C445 C444 1.367 . S
C445 C447 1.433 . S
C446 C442 1.350 . S
C446 C443 1.463 . S
C446 N450 1.427 . S
C447 H437 0.929 . S
C447 C445 1.433 . S
C447 N450 1.384 . S
C448 H439 0.929 . S
C448 C440 1.378 . S
C448 C443 1.350 1_556 S
C449 H436 0.929 . S
C449 C441 1.433 . S
C449 N451 1.384 1_556 S
N450 C446 1.427 . S
N450 C447 1.384 . S
N451 C443 1.427 . S
N451 C449 1.384 1_554 S
H452 C458 0.930 . S
H453 C462 0.930 . S
H454 C467 0.929 . S
H455 C465 0.929 . S
H456 C460 0.929 . S
H457 C466 0.929 . S
C458 H452 0.930 . S
C458 C459 1.367 . S
C458 C466 1.378 . S
C459 C458 1.367 . S
C459 C467 1.433 . S
C460 H456 0.929 . S
C460 C462 1.378 . S
C460 C464 1.350 . S
C461 C464 1.463 . S
C461 C466 1.350 . S
C461 N469 1.427 . S
C462 H453 0.930 . S
C462 C460 1.378 . S
C462 C463 1.367 . S
C463 C462 1.367 . S
C463 C465 1.433 . S
C464 C460 1.350 . S
C464 C461 1.463 . S
C464 N468 1.427 . S
C465 H455 0.929 . S
C465 C463 1.433 . S
C465 N468 1.384 . S
C466 H457 0.929 . S
C466 C458 1.378 . S
C466 C461 1.350 . S
C467 H454 0.929 . S
C467 C459 1.433 . S
C467 N469 1.384 . S
N468 C464 1.427 . S
N468 C465 1.384 . S
N469 C461 1.427 . S
N469 C467 1.384 . S
H470 C476 0.930 . S
H471 C480 0.930 . S
H472 C485 0.929 . S
H473 C483 0.929 . S
H474 C478 0.929 . S
H475 C484 0.929 . S
C476 H470 0.930 . S
C476 C477 1.367 . S
C476 C484 1.378 . S
C477 C476 1.367 . S
C477 C485 1.433 . S
C478 H474 0.929 . S
C478 C480 1.378 . S
C478 C482 1.350 . S
C479 C482 1.463 . S
C479 C484 1.350 . S
C479 N487 1.427 . S
C480 H471 0.930 . S
C480 C478 1.378 . S
C480 C481 1.367 . S
C481 C480 1.367 . S
C481 C483 1.433 . S
C482 C478 1.350 . S
C482 C479 1.463 . S
C482 N486 1.427 . S
C483 H473 0.929 . S
C483 C481 1.433 . S
C483 N486 1.384 . S
C484 H475 0.929 . S
C484 C476 1.378 . S
C484 C479 1.350 . S
C485 H472 0.929 . S
C485 C477 1.433 . S
C485 N487 1.384 . S
N486 C482 1.427 . S
N486 C483 1.384 . S
N487 C479 1.427 . S
N487 C485 1.384 . S
H488 C494 0.930 . S
H489 C498 0.930 . S
H490 C503 0.929 . S
H491 C501 0.929 . S
H492 C496 0.929 . S
H493 C502 0.938 . S
C494 H488 0.930 . S
C494 C495 1.367 1_545 S
C494 C502 1.378 . S
C495 C494 1.367 1_565 S
C495 C503 1.433 . S
C496 H492 0.929 . S
C496 C498 1.378 . S
C496 C500 1.350 . S
C497 C500 1.463 . S
C497 C502 1.350 1_565 S
C497 N505 1.427 . S
C498 H489 0.930 . S
C498 C496 1.378 . S
C498 C499 1.367 1_565 S
C499 C498 1.367 1_545 S
C499 C501 1.433 1_655 S
C500 C496 1.350 . S
C500 C497 1.463 . S
C500 N504 1.427 1_565 S
C501 H491 0.929 . S
C501 C499 1.433 1_455 S
C501 N504 1.384 1_455 S
C502 H493 0.938 . S
C502 C494 1.378 . S
C502 C497 1.350 1_545 S
C503 H490 0.929 . S
C503 C495 1.433 . S
C503 N505 1.384 . S
N504 C500 1.427 1_545 S
N504 C501 1.384 1_655 S
N505 C497 1.427 . S
N505 C503 1.384 . S
H506 C512 0.930 . S
H507 C516 0.930 . S
H508 C521 0.929 . S
H509 C519 0.929 . S
H510 C514 0.929 . S
H511 C520 0.929 . S
C512 H506 0.930 . S
C512 C513 1.367 . S
C512 C520 1.378 . S
C513 C512 1.367 . S
C513 C521 1.433 . S
C514 H510 0.929 . S
C514 C516 1.378 . S
C514 C518 1.350 . S
C515 C518 1.463 . S
C515 C520 1.350 . S
C515 N523 1.427 . S
C516 H507 0.930 . S
C516 C514 1.378 . S
C516 C517 1.367 . S
C517 C516 1.367 . S
C517 C519 1.433 . S
C518 C514 1.350 . S
C518 C515 1.463 . S
C518 N522 1.427 . S
C519 H509 0.929 . S
C519 C517 1.433 . S
C519 N522 1.384 . S
C520 H511 0.929 . S
C520 C512 1.378 . S
C520 C515 1.350 . S
C521 H508 0.929 . S
C521 C513 1.433 . S
C521 N523 1.384 . S
N522 C518 1.427 . S
N522 C519 1.384 . S
N523 C515 1.427 . S
N523 C521 1.384 . S
H524 C530 0.930 . S
H525 C534 0.930 . S
H526 C539 0.929 . S
H527 C537 0.929 . S
H528 C532 0.929 . S
H529 C538 0.929 . S
C530 H524 0.930 . S
C530 C531 1.367 . S
C530 C538 1.378 . S
C531 C530 1.367 . S
C531 C539 1.433 . S
C532 H528 0.929 . S
C532 C534 1.378 . S
C532 C536 1.350 . S
C533 C536 1.463 . S
C533 C538 1.350 . S
C533 N541 1.427 . S
C534 H525 0.930 . S
C534 C532 1.378 . S
C534 C535 1.367 . S
C535 C534 1.367 . S
C535 C537 1.433 . S
C536 C532 1.350 . S
C536 C533 1.463 . S
C536 N540 1.427 . S
C537 H527 0.929 . S
C537 C535 1.433 . S
C537 N540 1.384 . S
C538 H529 0.929 . S
C538 C530 1.378 . S
C538 C533 1.350 . S
C539 H526 0.929 . S
C539 C531 1.433 . S
C539 N541 1.384 . S
N540 C536 1.427 . S
N540 C537 1.384 . S
N541 C533 1.427 . S
N541 C539 1.384 . S
H542 C548 0.930 . S
H543 C552 0.930 . S
H544 C557 0.929 . S
H545 C555 0.929 . S
H546 C550 0.929 . S
H547 C556 0.929 . S
C548 H542 0.930 . S
C548 C549 1.367 . S
C548 C556 1.378 . S
C549 C548 1.367 . S
C549 C557 1.433 . S
C550 H546 0.929 . S
C550 C552 1.378 . S
C550 C554 1.350 . S
C551 C554 1.463 . S
C551 C556 1.350 . S
C551 N559 1.427 . S
C552 H543 0.930 . S
C552 C550 1.378 . S
C552 C553 1.367 . S
C553 C552 1.367 . S
C553 C555 1.433 . S
C554 C550 1.350 . S
C554 C551 1.463 . S
C554 N558 1.427 . S
C555 H545 0.929 . S
C555 C553 1.433 . S
C555 N558 1.384 . S
C556 H547 0.929 . S
C556 C548 1.378 . S
C556 C551 1.350 . S
C557 H544 0.929 . S
C557 C549 1.433 . S
C557 N559 1.384 . S
N558 C554 1.427 . S
N558 C555 1.384 . S
N559 C551 1.427 . S
N559 C557 1.384 . S
H560 C566 0.930 . S
H561 C570 0.930 1_556 S
H562 C575 0.929 . S
H563 C573 0.929 . S
H564 C568 0.929 . S
H565 C574 0.929 . S
C566 H560 0.930 . S
C566 C567 1.367 1_554 S
C566 C574 1.378 . S
C567 C566 1.367 1_556 S
C567 C575 1.433 1_565 S
C568 H564 0.929 . S
C568 C570 1.378 1_556 S
C568 C572 1.350 1_556 S
C569 C572 1.463 . S
C569 C574 1.350 1_545 S
C569 N577 1.427 1_554 S
C570 H561 0.930 1_554 S
C570 C568 1.378 1_554 S
C570 C571 1.367 . S
C571 C570 1.367 . S
C571 C573 1.433 . S
C572 C568 1.350 1_554 S
C572 C569 1.463 . S
C572 N576 1.427 . S
C573 H563 0.929 . S
C573 C571 1.433 . S
C573 N576 1.384 . S
C574 H565 0.929 . S
C574 C566 1.378 . S
C574 C569 1.350 1_565 S
C575 H562 0.929 . S
C575 C567 1.433 1_545 S
C575 N577 1.384 . S
N576 C572 1.427 . S
N576 C573 1.384 . S
N577 C569 1.427 1_556 S
N577 C575 1.384 . S
H578 C584 0.930 . S
H579 C588 0.930 . S
H580 C593 0.929 . S
H581 C591 0.929 . S
H582 C586 0.929 . S
H583 C592 0.929 . S
C584 H578 0.930 . S
C584 C585 1.367 . S
C584 C592 1.378 . S
C585 C584 1.367 . S
C585 C593 1.433 . S
C586 H582 0.929 . S
C586 C588 1.378 . S
C586 C590 1.350 . S
C587 C590 1.463 . S
C587 C592 1.350 . S
C587 N595 1.427 . S
C588 H579 0.930 . S
C588 C586 1.378 . S
C588 C589 1.367 . S
C589 C588 1.367 . S
C589 C591 1.433 . S
C590 C586 1.350 . S
C590 C587 1.463 . S
C590 N594 1.427 . S
C591 H581 0.929 . S
C591 C589 1.433 . S
C591 N594 1.384 . S
C592 H583 0.929 . S
C592 C584 1.378 . S
C592 C587 1.350 . S
C593 H580 0.929 . S
C593 C585 1.433 . S
C593 N595 1.384 . S
N594 C590 1.427 . S
N594 C591 1.384 . S
N595 C587 1.427 . S
N595 C593 1.384 . S
H596 C602 0.930 . S
H597 C606 0.930 . S
H598 C611 0.929 . S
H599 C609 0.929 . S
H600 C604 0.929 . S
H601 C610 0.929 . S
C602 H596 0.930 . S
C602 C603 1.367 . S
C602 C610 1.378 . S
C603 C602 1.367 . S
C603 C611 1.433 . S
C604 H600 0.929 . S
C604 C606 1.378 . S
C604 C608 1.350 . S
C605 C608 1.463 . S
C605 C610 1.350 . S
C605 N613 1.427 . S
C606 H597 0.930 . S
C606 C604 1.378 . S
C606 C607 1.367 . S
C607 C606 1.367 . S
C607 C609 1.433 . S
C608 C604 1.350 . S
C608 C605 1.463 . S
C608 N612 1.427 . S
C609 H599 0.929 . S
C609 C607 1.433 . S
C609 N612 1.384 . S
C610 H601 0.929 . S
C610 C602 1.378 . S
C610 C605 1.350 . S
C611 H598 0.929 . S
C611 C603 1.433 . S
C611 N613 1.384 . S
N612 C608 1.427 . S
N612 C609 1.384 . S
N613 C605 1.427 . S
N613 C611 1.384 . S
H614 C620 0.930 . S
H615 C624 0.930 . S
H616 C629 0.929 . S
H617 C627 0.929 . S
H618 C622 0.929 . S
H619 C628 0.929 . S
C620 H614 0.930 . S
C620 C621 1.367 . S
C620 C628 1.378 . S
C621 C620 1.367 . S
C621 C629 1.433 . S
C622 H618 0.929 . S
C622 C624 1.378 . S
C622 C626 1.350 . S
C623 C626 1.463 . S
C623 C628 1.350 . S
C623 N631 1.427 . S
C624 H615 0.930 . S
C624 C622 1.378 . S
C624 C625 1.367 . S
C625 C624 1.367 . S
C625 C627 1.433 . S
C626 C622 1.350 . S
C626 C623 1.463 . S
C626 N630 1.427 . S
C627 H617 0.929 . S
C627 C625 1.433 . S
C627 N630 1.384 . S
C628 H619 0.929 . S
C628 C620 1.378 . S
C628 C623 1.350 . S
C629 H616 0.929 . S
C629 C621 1.433 . S
C629 N631 1.384 . S
N630 C626 1.427 . S
N630 C627 1.384 . S
N631 C623 1.427 . S
N631 C629 1.384 . S
H632 C638 0.930 . S
H633 C642 0.930 . S
H634 C647 0.929 . S
H635 C645 0.929 . S
H636 C640 0.929 . S
H637 C646 0.929 . S
C638 H632 0.930 . S
C638 C639 1.367 . S
C638 C646 1.378 . S
C639 C638 1.367 . S
C639 C647 1.433 . S
C640 H636 0.929 . S
C640 C642 1.378 . S
C640 C644 1.350 1_554 S
C641 C644 1.463 . S
C641 C646 1.350 . S
C641 N649 1.427 . S
C642 H633 0.930 . S
C642 C640 1.378 . S
C642 C643 1.367 1_654 S
C643 C642 1.367 1_456 S
C643 C645 1.433 . S
C644 C640 1.350 1_556 S
C644 C641 1.463 . S
C644 N648 1.427 . S
C645 H635 0.929 . S
C645 C643 1.433 . S
C645 N648 1.384 1_455 S
C646 H637 0.929 . S
C646 C638 1.378 . S
C646 C641 1.350 . S
C647 H634 0.929 . S
C647 C639 1.433 . S
C647 N649 1.384 . S
N648 C644 1.427 . S
N648 C645 1.384 1_655 S
N649 C641 1.427 . S
N649 C647 1.384 . S
H650 C656 0.930 . S
H651 C660 0.930 . S
H652 C665 0.929 . S
H653 C663 0.929 . S
H654 C658 0.929 . S
H655 C664 0.929 . S
C656 H650 0.930 . S
C656 C657 1.367 . S
C656 C664 1.378 . S
C657 C656 1.367 . S
C657 C665 1.433 . S
C658 H654 0.929 . S
C658 C660 1.378 . S
C658 C662 1.350 . S
C659 C662 1.463 . S
C659 C664 1.350 . S
C659 N667 1.427 . S
C660 H651 0.930 . S
C660 C658 1.378 . S
C660 C661 1.367 . S
C661 C660 1.367 . S
C661 C663 1.433 . S
C662 C658 1.350 . S
C662 C659 1.463 . S
C662 N666 1.427 . S
C663 H653 0.929 . S
C663 C661 1.433 . S
C663 N666 1.384 . S
C664 H655 0.929 . S
C664 C656 1.378 . S
C664 C659 1.350 . S
C665 H652 0.929 . S
C665 C657 1.433 . S
C665 N667 1.384 . S
N666 C662 1.427 . S
N666 C663 1.384 . S
N667 C659 1.427 . S
N667 C665 1.384 . S
H668 C674 0.930 . S
H669 C678 0.930 . S
H670 C683 0.929 . S
H671 C681 0.929 . S
H672 C676 0.929 . S
H673 C682 0.929 . S
C674 H668 0.930 . S
C674 C675 1.367 . S
C674 C682 1.378 . S
C675 C674 1.367 . S
C675 C683 1.433 . S
C676 H672 0.929 . S
C676 C678 1.378 . S
C676 C680 1.350 . S
C677 C680 1.463 . S
C677 C682 1.350 . S
C677 N685 1.427 . S
C678 H669 0.930 . S
C678 C676 1.378 . S
C678 C679 1.367 . S
C679 C678 1.367 . S
C679 C681 1.433 . S
C680 C676 1.350 . S
C680 C677 1.463 . S
C680 N684 1.427 . S
C681 H671 0.929 . S
C681 C679 1.433 . S
C681 N684 1.384 . S
C682 H673 0.929 . S
C682 C674 1.378 . S
C682 C677 1.350 . S
C683 H670 0.929 . S
C683 C675 1.433 . S
C683 N685 1.384 . S
N684 C680 1.427 . S
N684 C681 1.384 . S
N685 C677 1.427 . S
N685 C683 1.384 . S
H686 C692 0.930 . S
H687 C696 0.930 . S
H688 C701 0.929 . S
H689 C699 0.929 . S
H690 C694 0.929 . S
H691 C700 0.929 . S
C692 H686 0.930 . S
C692 C693 1.367 . S
C692 C700 1.378 . S
C693 C692 1.367 . S
C693 C701 1.433 . S
C694 H690 0.929 . S
C694 C696 1.378 . S
C694 C698 1.350 . S
C695 C698 1.463 . S
C695 C700 1.350 . S
C695 N703 1.427 . S
C696 H687 0.930 . S
C696 C694 1.378 . S
C696 C697 1.367 . S
C697 C696 1.367 . S
C697 C699 1.433 . S
C698 C694 1.350 . S
C698 C695 1.463 . S
C698 N702 1.427 . S
C699 H689 0.929 . S
C699 C697 1.433 . S
C699 N702 1.384 . S
C700 H691 0.929 . S
C700 C692 1.378 . S
C700 C695 1.350 . S
C701 H688 0.929 . S
C701 C693 1.433 . S
C701 N703 1.384 . S
N702 C698 1.427 . S
N702 C699 1.384 . S
N703 C695 1.427 . S
N703 C701 1.384 . S
C279 C6 2.424 . S
C283 C168 2.453 . S
C297 C21 1.613 . S
C301 N188 1.610 . S
C319 C222 1.395 . S
C315 C49 1.334 . S
C333 C68 0.986 . S
C337 N256 1.071 . S
C355 C209 3.054 . S
C351 C2 3.027 . S
C373 N166 0.922 . S
C369 C30 0.874 . S
C391 C243 1.730 1_556 S
C387 C40 1.731 . S
C409 N218 0.923 . S
C405 C63 0.914 . S
C423 C11 1.605 . S
C427 C258 1.856 . S
C445 C192 1.828 . S
C441 C44 1.810 . S
C459 C59 0.999 . S
C463 C153 1.015 . S
C477 C25 1.729 . S
C481 C239 1.751 . S
C499 C179 2.633 . S
C495 C82 2.615 . S
C513 C101 1.328 . S
C517 N196 1.307 . S
C531 C125 1.746 . S
C535 C213 1.809 . S
C549 C144 0.840 . S
C553 N248 0.857 . S
C567 C87 1.861 . S
C571 C198 2.065 . S
C589 N158 1.750 . S
C585 C97 1.752 . S
C607 C252 1.749 . S
C603 C120 1.745 . S
C625 N226 0.981 . S
C621 C135 0.973 . S
C639 C78 2.149 . S
C643 C269 2.167 1_556 S
C661 C183 1.318 . S
C657 C116 1.305 . S
C679 C162 1.574 . S
C675 C139 1.558 . S
C693 C106 1.363 . S
C697 C228 1.458 . S
