# Generated by pormake.
# Topology eea, (3,6)-cn, num edge types: 1
# Building blocks:
#     Node 0, Type 0, BuildingBlock: BELTOD_clean_linker_0, # of connection points: 3
#     Node 1, Type 0, BuildingBlock: BELTOD_clean_linker_0, # of connection points: 3
#     Node 2, Type 0, BuildingBlock: BELTOD_clean_linker_0, # of connection points: 3
#     Node 3, Type 0, BuildingBlock: BELTOD_clean_linker_0, # of connection points: 3
#     Node 4, Type 0, BuildingBlock: BELTOD_clean_linker_0, # of connection points: 3
#     Node 5, Type 0, BuildingBlock: BELTOD_clean_linker_0, # of connection points: 3
#     Node 6, Type 0, BuildingBlock: BELTOD_clean_linker_0, # of connection points: 3
#     Node 7, Type 0, BuildingBlock: BELTOD_clean_linker_0, # of connection points: 3
#     Node 8, Type 0, BuildingBlock: BELTOD_clean_linker_0, # of connection points: 3
#     Node 9, Type 0, BuildingBlock: BELTOD_clean_linker_0, # of connection points: 3
#     Node 10, Type 0, BuildingBlock: BELTOD_clean_linker_0, # of connection points: 3
#     Node 11, Type 0, BuildingBlock: BELTOD_clean_linker_0, # of connection points: 3
#     Node 12, Type 0, BuildingBlock: BELTOD_clean_linker_0, # of connection points: 3
#     Node 13, Type 0, BuildingBlock: BELTOD_clean_linker_0, # of connection points: 3
#     Node 14, Type 0, BuildingBlock: BELTOD_clean_linker_0, # of connection points: 3
#     Node 15, Type 0, BuildingBlock: BELTOD_clean_linker_0, # of connection points: 3
#     Node 16, Type 0, BuildingBlock: BELTOD_clean_linker_0, # of connection points: 3
#     Node 17, Type 0, BuildingBlock: BELTOD_clean_linker_0, # of connection points: 3
#     Node 18, Type 1, BuildingBlock: CUKXOW_clean_sbu_0, # of connection points: 6
#     Node 19, Type 1, BuildingBlock: CUKXOW_clean_sbu_0, # of connection points: 6
#     Node 20, Type 1, BuildingBlock: CUKXOW_clean_sbu_0, # of connection points: 6
#     Node 21, Type 1, BuildingBlock: CUKXOW_clean_sbu_0, # of connection points: 6
#     Node 22, Type 1, BuildingBlock: CUKXOW_clean_sbu_0, # of connection points: 6
#     Node 23, Type 1, BuildingBlock: CUKXOW_clean_sbu_0, # of connection points: 6
#     Node 24, Type 1, BuildingBlock: CUKXOW_clean_sbu_0, # of connection points: 6
#     Node 25, Type 1, BuildingBlock: CUKXOW_clean_sbu_0, # of connection points: 6
#     Node 26, Type 1, BuildingBlock: CUKXOW_clean_sbu_0, # of connection points: 6
#     Edge 27, Type (0, 1), BuildingBlock: ZUJKAS_clean_linker_0, # of connection points: 2
#     Edge 28, Type (0, 1), BuildingBlock: ZUJKAS_clean_linker_0, # of connection points: 2
#     Edge 29, Type (0, 1), BuildingBlock: ZUJKAS_clean_linker_0, # of connection points: 2
#     Edge 30, Type (0, 1), BuildingBlock: ZUJKAS_clean_linker_0, # of connection points: 2
#     Edge 31, Type (0, 1), BuildingBlock: ZUJKAS_clean_linker_0, # of connection points: 2
#     Edge 32, Type (0, 1), BuildingBlock: ZUJKAS_clean_linker_0, # of connection points: 2
#     Edge 33, Type (0, 1), BuildingBlock: ZUJKAS_clean_linker_0, # of connection points: 2
#     Edge 34, Type (0, 1), BuildingBlock: ZUJKAS_clean_linker_0, # of connection points: 2
#     Edge 35, Type (0, 1), BuildingBlock: ZUJKAS_clean_linker_0, # of connection points: 2
#     Edge 36, Type (0, 1), BuildingBlock: ZUJKAS_clean_linker_0, # of connection points: 2
#     Edge 37, Type (0, 1), BuildingBlock: ZUJKAS_clean_linker_0, # of connection points: 2
#     Edge 38, Type (0, 1), BuildingBlock: ZUJKAS_clean_linker_0, # of connection points: 2
#     Edge 39, Type (0, 1), BuildingBlock: ZUJKAS_clean_linker_0, # of connection points: 2
#     Edge 40, Type (0, 1), BuildingBlock: ZUJKAS_clean_linker_0, # of connection points: 2
#     Edge 41, Type (0, 1), BuildingBlock: ZUJKAS_clean_linker_0, # of connection points: 2
#     Edge 42, Type (0, 1), BuildingBlock: ZUJKAS_clean_linker_0, # of connection points: 2
#     Edge 43, Type (0, 1), BuildingBlock: ZUJKAS_clean_linker_0, # of connection points: 2
#     Edge 44, Type (0, 1), BuildingBlock: ZUJKAS_clean_linker_0, # of connection points: 2
#     Edge 45, Type (0, 1), BuildingBlock: ZUJKAS_clean_linker_0, # of connection points: 2
#     Edge 46, Type (0, 1), BuildingBlock: ZUJKAS_clean_linker_0, # of connection points: 2
#     Edge 47, Type (0, 1), BuildingBlock: ZUJKAS_clean_linker_0, # of connection points: 2
#     Edge 48, Type (0, 1), BuildingBlock: ZUJKAS_clean_linker_0, # of connection points: 2
#     Edge 49, Type (0, 1), BuildingBlock: ZUJKAS_clean_linker_0, # of connection points: 2
#     Edge 50, Type (0, 1), BuildingBlock: ZUJKAS_clean_linker_0, # of connection points: 2
#     Edge 51, Type (0, 1), BuildingBlock: ZUJKAS_clean_linker_0, # of connection points: 2
#     Edge 52, Type (0, 1), BuildingBlock: ZUJKAS_clean_linker_0, # of connection points: 2
#     Edge 53, Type (0, 1), BuildingBlock: ZUJKAS_clean_linker_0, # of connection points: 2
#     Edge 54, Type (0, 1), BuildingBlock: ZUJKAS_clean_linker_0, # of connection points: 2
#     Edge 55, Type (0, 1), BuildingBlock: ZUJKAS_clean_linker_0, # of connection points: 2
#     Edge 56, Type (0, 1), BuildingBlock: ZUJKAS_clean_linker_0, # of connection points: 2
#     Edge 57, Type (0, 1), BuildingBlock: ZUJKAS_clean_linker_0, # of connection points: 2
#     Edge 58, Type (0, 1), BuildingBlock: ZUJKAS_clean_linker_0, # of connection points: 2
#     Edge 59, Type (0, 1), BuildingBlock: ZUJKAS_clean_linker_0, # of connection points: 2
#     Edge 60, Type (0, 1), BuildingBlock: ZUJKAS_clean_linker_0, # of connection points: 2
#     Edge 61, Type (0, 1), BuildingBlock: ZUJKAS_clean_linker_0, # of connection points: 2
#     Edge 62, Type (0, 1), BuildingBlock: ZUJKAS_clean_linker_0, # of connection points: 2
#     Edge 63, Type (0, 1), BuildingBlock: ZUJKAS_clean_linker_0, # of connection points: 2
#     Edge 64, Type (0, 1), BuildingBlock: ZUJKAS_clean_linker_0, # of connection points: 2
#     Edge 65, Type (0, 1), BuildingBlock: ZUJKAS_clean_linker_0, # of connection points: 2
#     Edge 66, Type (0, 1), BuildingBlock: ZUJKAS_clean_linker_0, # of connection points: 2
#     Edge 67, Type (0, 1), BuildingBlock: ZUJKAS_clean_linker_0, # of connection points: 2
#     Edge 68, Type (0, 1), BuildingBlock: ZUJKAS_clean_linker_0, # of connection points: 2
#     Edge 69, Type (0, 1), BuildingBlock: ZUJKAS_clean_linker_0, # of connection points: 2
#     Edge 70, Type (0, 1), BuildingBlock: ZUJKAS_clean_linker_0, # of connection points: 2
#     Edge 71, Type (0, 1), BuildingBlock: ZUJKAS_clean_linker_0, # of connection points: 2
#     Edge 72, Type (0, 1), BuildingBlock: ZUJKAS_clean_linker_0, # of connection points: 2
#     Edge 73, Type (0, 1), BuildingBlock: ZUJKAS_clean_linker_0, # of connection points: 2
#     Edge 74, Type (0, 1), BuildingBlock: ZUJKAS_clean_linker_0, # of connection points: 2
#     Edge 75, Type (0, 1), BuildingBlock: ZUJKAS_clean_linker_0, # of connection points: 2
#     Edge 76, Type (0, 1), BuildingBlock: ZUJKAS_clean_linker_0, # of connection points: 2
#     Edge 77, Type (0, 1), BuildingBlock: ZUJKAS_clean_linker_0, # of connection points: 2
#     Edge 78, Type (0, 1), BuildingBlock: ZUJKAS_clean_linker_0, # of connection points: 2
#     Edge 79, Type (0, 1), BuildingBlock: ZUJKAS_clean_linker_0, # of connection points: 2
#     Edge 80, Type (0, 1), BuildingBlock: ZUJKAS_clean_linker_0, # of connection points: 2
# Relax obj value: 0.016
# Max RMSD: 0.123
# Mean RMSD: 0.047
data_MOF--net-eea--node1-CUKXOW_clean_sbu_0--node2-BELTOD_clean_linker_0--edge1-ZUJKAS_clean_linker_0
_symmetry_space_group_name_H-M    P1
_symmetry_Int_Tables_number       1
_symmetry_cell_setting            triclinic
loop_
_symmetry_equiv_pos_as_xyz
'x, y, z'
_cell_length_a     79.057553
_cell_length_b     76.032126
_cell_length_c     84.6499
_cell_angle_alpha  93.384718
_cell_angle_beta   92.970832
_cell_angle_gamma 119.95499
loop_
_atom_site_label
_atom_site_type_symbol
_atom_site_fract_x
_atom_site_fract_y
_atom_site_fract_z
_atom_type_partial_charge
P0 P 0.2924 0.15845 0.42091 0.0
H1 H 0.29285 0.13591 0.39197 0.0
H2 H 0.27548 0.09961 0.38265 0.0
H3 H 0.24442 0.08615 0.42489 0.0
H4 H 0.26222 0.12244 0.43427 0.0
H5 H 0.30543 0.19886 0.41065 0.0
H6 H 0.28783 0.21544 0.4009 0.0
H7 H 0.23273 0.16169 0.40726 0.0
H8 H 0.25048 0.14506 0.41665 0.0
H9 H 0.3175 0.15084 0.44208 0.0
H10 H 0.27586 0.17134 0.44663 0.0
O11 O 0.3142 0.16918 0.4136 0.0
H12 H 0.32245 0.15269 0.471 0.0
H13 H 0.28052 0.17295 0.47557 0.0
C14 C 0.27912 0.13177 0.41395 0.0
C15 C 0.28235 0.12512 0.39924 0.0
C16 C 0.27227 0.10437 0.39386 0.0
C17 C 0.25863 0.08994 0.40306 0.0
C18 C 0.25509 0.0968 0.41765 0.0
C19 C 0.26522 0.11755 0.42302 0.0
C20 C 0.27924 0.1706 0.41405 0.0
C21 C 0.28956 0.19062 0.40987 0.0
C22 C 0.27947 0.20014 0.40443 0.0
C23 C 0.25884 0.18986 0.40323 0.0
C24 C 0.24858 0.1699 0.40776 0.0
C25 C 0.25872 0.16038 0.41317 0.0
C26 C 0.29653 0.16119 0.44223 0.0
C27 C 0.30952 0.15587 0.44933 0.0
C28 C 0.3122 0.15676 0.46584 0.0
C29 C 0.30184 0.16293 0.47558 0.0
C30 C 0.28889 0.16838 0.4684 0.0
C31 C 0.28618 0.16742 0.45184 0.0
P32 P 0.89793 0.10722 0.45566 0.0
H33 H 0.89146 0.0715 0.43568 0.0
H34 H 0.86281 0.04441 0.41934 0.0
H35 H 0.82999 0.07421 0.43084 0.0
H36 H 0.85892 0.10152 0.44693 0.0
H37 H 0.93452 0.14431 0.46629 0.0
H38 H 0.95944 0.17101 0.45213 0.0
H39 H 0.92319 0.14247 0.40787 0.0
H40 H 0.89846 0.11572 0.42207 0.0
H41 H 0.8805 0.08786 0.48359 0.0
H42 H 0.89615 0.14451 0.46392 0.0
O43 O 0.9102 0.09636 0.46281 0.0
H44 H 0.86893 0.09845 0.50645 0.0
H45 H 0.88453 0.15524 0.4868 0.0
C46 C 0.87712 0.08819 0.44282 0.0
C47 C 0.8781 0.07222 0.43466 0.0
C48 C 0.8617 0.05672 0.42536 0.0
C49 C 0.84402 0.05699 0.42399 0.0
C50 C 0.84339 0.07357 0.43163 0.0
C51 C 0.85985 0.0891 0.44093 0.0
C52 C 0.91465 0.1281 0.44526 0.0
C53 C 0.93183 0.144 0.45356 0.0
C54 C 0.94602 0.15929 0.44546 0.0
C55 C 0.94331 0.15883 0.42886 0.0
C56 C 0.92579 0.14312 0.42063 0.0
C57 C 0.91158 0.12787 0.42877 0.0
C58 C 0.88956 0.11558 0.47228 0.0
C59 C 0.8815 0.10262 0.48424 0.0
C60 C 0.87474 0.10863 0.49722 0.0
C61 C 0.87586 0.12771 0.49844 0.0
C62 C 0.88372 0.14058 0.48628 0.0
C63 C 0.89037 0.13446 0.47322 0.0
P64 P 0.85842 0.71001 0.42924 0.0
H65 H 0.83501 0.70542 0.39988 0.0
H66 H 0.81756 0.72254 0.39108 0.0
H67 H 0.83852 0.76185 0.43515 0.0
H68 H 0.85557 0.74423 0.44401 0.0
H69 H 0.88364 0.69474 0.41872 0.0
H70 H 0.91724 0.7116 0.4113 0.0
H71 H 0.92193 0.77031 0.42166 0.0
H72 H 0.88816 0.75327 0.4289 0.0
H73 H 0.82677 0.69916 0.44953 0.0
H74 H 0.88741 0.71492 0.45504 0.0
O75 O 0.84657 0.68642 0.42002 0.0
H76 H 0.82417 0.69393 0.47768 0.0
H77 H 0.8848 0.70921 0.48311 0.0
C78 C 0.84621 0.72328 0.42271 0.0
C79 C 0.83579 0.71768 0.40766 0.0
C80 C 0.82597 0.72762 0.40259 0.0
C81 C 0.82656 0.74354 0.41244 0.0
C82 C 0.83747 0.74943 0.42739 0.0
C83 C 0.84727 0.73942 0.43246 0.0
C84 C 0.88327 0.72273 0.424 0.0
C85 C 0.89186 0.71124 0.41932 0.0
C86 C 0.91114 0.72091 0.41523 0.0
C87 C 0.92223 0.7423 0.41583 0.0
C88 C 0.91366 0.7538 0.42083 0.0
C89 C 0.89437 0.74408 0.42499 0.0
C90 C 0.85735 0.70777 0.45025 0.0
C91 C 0.83957 0.70165 0.45684 0.0
C92 C 0.83806 0.69847 0.47291 0.0
C93 C 0.85427 0.7011 0.48266 0.0
C94 C 0.87212 0.70734 0.476 0.0
C95 C 0.87362 0.71056 0.45991 0.0
P96 P 0.13193 0.28894 0.57302 0.0
H97 H 0.11731 0.29387 0.6028 0.0
H98 H 0.08452 0.27822 0.61191 0.0
H99 H 0.06038 0.24186 0.56666 0.0
H100 H 0.09336 0.25744 0.55771 0.0
H101 H 0.17309 0.30093 0.57532 0.0
H102 H 0.19074 0.28338 0.58256 0.0
H103 H 0.13579 0.22957 0.58908 0.0
H104 H 0.11828 0.24736 0.58205 0.0
H105 H 0.12889 0.31779 0.55365 0.0
H106 H 0.13266 0.26334 0.54596 0.0
O107 O 0.14477 0.31263 0.58201 0.0
H108 H 0.12989 0.3216 0.52518 0.0
H109 H 0.13342 0.26686 0.51744 0.0
C110 C 0.10766 0.27715 0.57947 0.0
C111 C 0.10494 0.28262 0.59481 0.0
C112 C 0.08619 0.2737 0.59998 0.0
C113 C 0.06981 0.25897 0.58994 0.0
C114 C 0.07269 0.25312 0.57469 0.0
C115 C 0.0915 0.26213 0.56951 0.0
C116 C 0.14446 0.27559 0.57845 0.0
C117 C 0.16487 0.28538 0.57839 0.0
C118 C 0.17491 0.27526 0.58238 0.0
C119 C 0.16467 0.25507 0.58643 0.0
C120 C 0.14412 0.2452 0.58625 0.0
C121 C 0.13409 0.25536 0.58221 0.0
C122 C 0.13118 0.29059 0.55192 0.0
C123 C 0.12983 0.3066 0.5458 0.0
C124 C 0.13025 0.30866 0.52951 0.0
C125 C 0.13191 0.29462 0.51906 0.0
C126 C 0.1325 0.27813 0.52522 0.0
C127 C 0.13204 0.27608 0.54152 0.0
P128 P 0.78806 0.89168 0.5633 0.0
H129 H 0.81647 0.93489 0.5715 0.0
H130 H 0.8145 0.96254 0.58565 0.0
H131 H 0.75385 0.92083 0.59238 0.0
H132 H 0.75591 0.89311 0.57793 0.0
H133 H 0.77428 0.84859 0.5549 0.0
H134 H 0.77081 0.82137 0.57073 0.0
H135 H 0.78558 0.86181 0.61366 0.0
H136 H 0.78936 0.88909 0.5977 0.0
H137 H 0.79692 0.90231 0.53107 0.0
H138 H 0.74585 0.86428 0.55487 0.0
O139 O 0.81125 0.90032 0.55941 0.0
H140 H 0.77677 0.89178 0.50574 0.0
H141 H 0.7255 0.85339 0.52941 0.0
C142 C 0.78637 0.91194 0.57376 0.0
C143 C 0.80275 0.93163 0.57604 0.0
C144 C 0.80163 0.94743 0.58423 0.0
C145 C 0.78406 0.94385 0.59027 0.0
C146 C 0.76756 0.92409 0.58779 0.0
C147 C 0.76872 0.90825 0.5796 0.0
C148 C 0.78164 0.87072 0.57513 0.0
C149 C 0.77624 0.85143 0.56773 0.0
C150 C 0.77423 0.83586 0.57682 0.0
C151 C 0.77789 0.83941 0.59347 0.0
C152 C 0.78278 0.85863 0.60086 0.0
C153 C 0.78476 0.87419 0.59175 0.0
C154 C 0.77292 0.88375 0.54476 0.0
C155 C 0.78137 0.89153 0.53082 0.0
C156 C 0.76984 0.88543 0.51632 0.0
C157 C 0.74957 0.87154 0.51553 0.0
C158 C 0.74105 0.86413 0.52963 0.0
C159 C 0.75266 0.87025 0.54416 0.0
P160 P 0.14028 0.84294 0.58169 0.0
H161 H 0.1406 0.86477 0.61129 0.0
H162 H 0.15817 0.90093 0.62123 0.0
H163 H 0.18496 0.91601 0.57707 0.0
H164 H 0.16769 0.87994 0.56736 0.0
H165 H 0.11427 0.80221 0.59082 0.0
H166 H 0.08043 0.78514 0.59777 0.0
H167 H 0.07711 0.83891 0.58939 0.0
H168 H 0.11091 0.85576 0.58223 0.0
H169 H 0.16436 0.83207 0.56298 0.0
H170 H 0.11911 0.84715 0.5541 0.0
O171 O 0.15186 0.83279 0.5912 0.0
H172 H 0.16779 0.83013 0.53454 0.0
H173 H 0.12216 0.84484 0.52556 0.0
C174 C 0.15253 0.86968 0.58849 0.0
C175 C 0.15012 0.8759 0.60371 0.0
C176 C 0.16013 0.89657 0.60935 0.0
C177 C 0.17291 0.91136 0.59991 0.0
C178 C 0.17535 0.905 0.58468 0.0
C179 C 0.16532 0.88434 0.57906 0.0
C180 C 0.11518 0.83037 0.58633 0.0
C181 C 0.10626 0.81033 0.59051 0.0
C182 C 0.08694 0.80062 0.59454 0.0
C183 C 0.07614 0.81075 0.5943 0.0
C184 C 0.08499 0.83066 0.58963 0.0
C185 C 0.10435 0.84036 0.58564 0.0
C186 C 0.14124 0.83939 0.56062 0.0
C187 C 0.15489 0.83458 0.55488 0.0
C188 C 0.15681 0.83344 0.53859 0.0
C189 C 0.1452 0.83726 0.52776 0.0
C190 C 0.13143 0.84197 0.53359 0.0
C191 C 0.12952 0.84309 0.54989 0.0
P192 P 0.96344 0.49648 0.75215 0.0
H193 H 0.96418 0.47359 0.72355 0.0
H194 H 0.9469 0.4372 0.7145 0.0
H195 H 0.9171 0.42408 0.75739 0.0
H196 H 0.93402 0.4605 0.7661 0.0
H197 H 0.97131 0.53807 0.75715 0.0
H198 H 0.95372 0.55502 0.74804 0.0
H199 H 0.90836 0.49798 0.72328 0.0
H200 H 0.92608 0.4812 0.7323 0.0
H201 H 0.99336 0.49682 0.7739 0.0
H202 H 0.94204 0.50253 0.77727 0.0
O203 O 0.98511 0.50772 0.74465 0.0
H204 H 0.99833 0.49957 0.80288 0.0
H205 H 0.94721 0.50592 0.80624 0.0
C206 C 0.95072 0.46966 0.74565 0.0
C207 C 0.95398 0.46284 0.73102 0.0
C208 C 0.94413 0.44203 0.72589 0.0
C209 C 0.93075 0.42768 0.73529 0.0
C210 C 0.92721 0.4347 0.74981 0.0
C211 C 0.93703 0.45552 0.75489 0.0
C212 C 0.95001 0.50842 0.74544 0.0
C213 C 0.95755 0.52923 0.74979 0.0
C214 C 0.94743 0.53885 0.74465 0.0
C215 C 0.92962 0.52781 0.73497 0.0
C216 C 0.92213 0.50692 0.73061 0.0
C217 C 0.93223 0.4973 0.73583 0.0
C218 C 0.96762 0.49993 0.77348 0.0
C219 C 0.98336 0.49902 0.78091 0.0
C220 C 0.98621 0.50067 0.79747 0.0
C221 C 0.97325 0.50312 0.8069 0.0
C222 C 0.95739 0.50392 0.79935 0.0
C223 C 0.95454 0.5022 0.78278 0.0
P224 P 0.5616 0.43852 0.78476 0.0
H225 H 0.5509 0.39857 0.76926 0.0
H226 H 0.52217 0.37293 0.75227 0.0
H227 H 0.4978 0.41273 0.75374 0.0
H228 H 0.52658 0.43826 0.77104 0.0
H229 H 0.59611 0.47708 0.79649 0.0
H230 H 0.62172 0.50424 0.78322 0.0
H231 H 0.5905 0.47323 0.73759 0.0
H232 H 0.56524 0.44586 0.75096 0.0
H233 H 0.55288 0.42511 0.81637 0.0
H234 H 0.55186 0.47092 0.78928 0.0
O235 O 0.57352 0.42725 0.79179 0.0
H236 H 0.542 0.43695 0.83902 0.0
H237 H 0.5409 0.48287 0.81197 0.0
C238 C 0.54068 0.42013 0.77166 0.0
C239 C 0.53939 0.4018 0.76595 0.0
C240 C 0.52301 0.38721 0.75609 0.0
C241 C 0.50765 0.39075 0.75166 0.0
C242 C 0.50924 0.40941 0.75712 0.0
C243 C 0.52569 0.42402 0.76699 0.0
C244 C 0.57869 0.45959 0.77473 0.0
C245 C 0.59465 0.47631 0.78363 0.0
C246 C 0.60924 0.49187 0.77602 0.0
C247 C 0.60818 0.49093 0.75932 0.0
C248 C 0.59189 0.47431 0.75046 0.0
C249 C 0.57732 0.45872 0.7581 0.0
C250 C 0.55351 0.44739 0.80128 0.0
C251 C 0.55042 0.43781 0.81533 0.0
C252 C 0.54425 0.44461 0.82828 0.0
C253 C 0.54078 0.46096 0.82731 0.0
C254 C 0.54342 0.47022 0.81304 0.0
C255 C 0.54977 0.46348 0.80012 0.0
P256 P 0.52547 0.04549 0.76262 0.0
H257 H 0.51148 0.05064 0.73179 0.0
H258 H 0.49268 0.06668 0.72367 0.0
H259 H 0.49155 0.084 0.77302 0.0
H260 H 0.511 0.06867 0.78095 0.0
H261 H 0.55603 0.03497 0.76379 0.0
H262 H 0.58979 0.05227 0.75671 0.0
H263 H 0.58362 0.10308 0.7437 0.0
H264 H 0.55016 0.08599 0.75138 0.0
H265 H 0.49377 0.01729 0.77996 0.0
H266 H 0.55384 0.06546 0.79095 0.0
O267 O 0.51458 0.02264 0.7522 0.0
H268 H 0.49111 0.01167 0.80811 0.0
H269 H 0.5513 0.05989 0.81912 0.0
C270 C 0.51233 0.05817 0.75695 0.0
C271 C 0.50721 0.05797 0.74083 0.0
C272 C 0.49636 0.06704 0.73623 0.0
C273 C 0.49036 0.07644 0.7477 0.0
C274 C 0.49602 0.07705 0.76386 0.0
C275 C 0.50701 0.06809 0.76843 0.0
C276 C 0.55054 0.05907 0.75794 0.0
C277 C 0.56201 0.04988 0.75948 0.0
C278 C 0.58127 0.05975 0.75533 0.0
C279 C 0.58939 0.079 0.74947 0.0
C280 C 0.57792 0.08836 0.74829 0.0
C281 C 0.55867 0.0785 0.75255 0.0
C282 C 0.52408 0.04149 0.78335 0.0
C283 C 0.50641 0.02657 0.78844 0.0
C284 C 0.50488 0.02348 0.80452 0.0
C285 C 0.52103 0.0353 0.8158 0.0
C286 C 0.53871 0.05037 0.81066 0.0
C287 C 0.54016 0.05356 0.79456 0.0
P288 P 0.80456 0.62618 0.90924 0.0
H289 H 0.79076 0.62685 0.94023 0.0
H290 H 0.75819 0.61053 0.94978 0.0
H291 H 0.73256 0.58175 0.90238 0.0
H292 H 0.76531 0.59781 0.89301 0.0
H293 H 0.84603 0.63927 0.91173 0.0
H294 H 0.86446 0.62281 0.9198 0.0
H295 H 0.81023 0.56839 0.92675 0.0
H296 H 0.79192 0.58506 0.91881 0.0
H297 H 0.80007 0.65398 0.88958 0.0
H298 H 0.80691 0.60134 0.88238 0.0
O299 O 0.81683 0.64995 0.91812 0.0
H300 H 0.80121 0.65779 0.86112 0.0
H301 H 0.80782 0.60486 0.85386 0.0
C302 C 0.78038 0.61387 0.91588 0.0
C303 C 0.77811 0.61708 0.93189 0.0
C304 C 0.75947 0.60779 0.93731 0.0
C305 C 0.74273 0.59501 0.9268 0.0
C306 C 0.74514 0.59144 0.91079 0.0
C307 C 0.76385 0.60075 0.90539 0.0
C308 C 0.81769 0.61354 0.91498 0.0
C309 C 0.83813 0.62381 0.91504 0.0
C310 C 0.84863 0.61432 0.91953 0.0
C311 C 0.83882 0.59431 0.92398 0.0
C312 C 0.81824 0.58392 0.92362 0.0
C313 C 0.80775 0.59343 0.91906 0.0
C314 C 0.80386 0.62769 0.88811 0.0
C315 C 0.80171 0.64318 0.88184 0.0
C316 C 0.80222 0.64523 0.86555 0.0
C317 C 0.80478 0.63172 0.85523 0.0
C318 C 0.80619 0.61573 0.86153 0.0
C319 C 0.80563 0.61368 0.87783 0.0
P320 P 0.45665 0.22492 0.89452 0.0
H321 H 0.48562 0.25787 0.91715 0.0
H322 H 0.48545 0.28587 0.93274 0.0
H323 H 0.42481 0.26188 0.91542 0.0
H324 H 0.42501 0.23366 0.9001 0.0
H325 H 0.46292 0.19137 0.88585 0.0
H326 H 0.462 0.16414 0.90041 0.0
H327 H 0.44315 0.18494 0.94085 0.0
H328 H 0.44376 0.21193 0.92606 0.0
H329 H 0.45506 0.24604 0.86769 0.0
H330 H 0.41993 0.18649 0.88365 0.0
O331 O 0.47894 0.23567 0.88808 0.0
H332 H 0.43268 0.23574 0.8436 0.0
H333 H 0.39729 0.17606 0.85957 0.0
C334 C 0.4555 0.24405 0.90718 0.0
C335 C 0.47226 0.25858 0.9168 0.0
C336 C 0.47215 0.2746 0.92565 0.0
C337 C 0.45521 0.27628 0.9251 0.0
C338 C 0.43808 0.26101 0.91611 0.0
C339 C 0.43823 0.24496 0.90724 0.0
C340 C 0.45369 0.20379 0.90495 0.0
C341 C 0.45843 0.18994 0.8978 0.0
C342 C 0.45798 0.17446 0.90616 0.0
C343 C 0.45276 0.17257 0.92186 0.0
C344 C 0.44717 0.18596 0.92876 0.0
C345 C 0.44763 0.20148 0.92035 0.0
C346 C 0.43931 0.21695 0.8773 0.0
C347 C 0.44246 0.23075 0.86601 0.0
C348 C 0.42956 0.22488 0.85231 0.0
C349 C 0.41321 0.20505 0.84966 0.0
C350 C 0.40989 0.19134 0.86118 0.0
C351 C 0.4228 0.1973 0.87496 0.0
P352 P 0.80907 0.17777 0.91623 0.0
H353 H 0.83026 0.19609 0.94748 0.0
H354 H 0.84889 0.23136 0.95956 0.0
H355 H 0.83557 0.25177 0.91651 0.0
H356 H 0.81658 0.21644 0.90472 0.0
H357 H 0.78048 0.13571 0.92061 0.0
H358 H 0.74654 0.11919 0.92731 0.0
H359 H 0.74829 0.17697 0.92814 0.0
H360 H 0.7823 0.19341 0.92156 0.0
H361 H 0.84233 0.19657 0.89749 0.0
H362 H 0.77973 0.15686 0.88851 0.0
O363 O 0.81936 0.16516 0.92377 0.0
H364 H 0.84547 0.1956 0.86896 0.0
H365 H 0.78279 0.15529 0.85999 0.0
C366 C 0.82247 0.20375 0.92509 0.0
C367 C 0.8314 0.20819 0.94065 0.0
C368 C 0.84209 0.22836 0.94752 0.0
C369 C 0.84389 0.24443 0.93895 0.0
C370 C 0.8344 0.23978 0.92348 0.0
C371 C 0.8237 0.2196 0.91666 0.0
C372 C 0.78402 0.16584 0.92096 0.0
C373 C 0.77357 0.14483 0.9223 0.0
C374 C 0.75412 0.13538 0.92599 0.0
C375 C 0.74476 0.1468 0.92833 0.0
C376 C 0.7552 0.16783 0.92665 0.0
C377 C 0.77464 0.17724 0.92287 0.0
C378 C 0.81081 0.177 0.89511 0.0
C379 C 0.82926 0.18763 0.88935 0.0
C380 C 0.83104 0.18691 0.87304 0.0
C381 C 0.81438 0.17533 0.86215 0.0
C382 C 0.79589 0.1646 0.86801 0.0
C383 C 0.79413 0.16541 0.88436 0.0
P384 P 0.62837 0.82703 0.08749 0.0
H385 H 0.623 0.80608 0.05618 0.0
H386 H 0.60419 0.77008 0.04568 0.0
H387 H 0.58379 0.75379 0.09187 0.0
H388 H 0.60238 0.78976 0.10223 0.0
H389 H 0.64092 0.86604 0.07448 0.0
H390 H 0.62305 0.88257 0.06523 0.0
H391 H 0.569 0.83181 0.07747 0.0
H392 H 0.58699 0.81519 0.08641 0.0
H393 H 0.64634 0.81134 0.10898 0.0
H394 H 0.62044 0.84949 0.11295 0.0
O395 O 0.65003 0.83747 0.07996 0.0
H396 H 0.65191 0.81426 0.13791 0.0
H397 H 0.62646 0.85299 0.14182 0.0
C398 C 0.61452 0.80051 0.08006 0.0
C399 C 0.61453 0.79473 0.06404 0.0
C400 C 0.60368 0.77421 0.05804 0.0
C401 C 0.59266 0.75915 0.06801 0.0
C402 C 0.5924 0.76506 0.084 0.0
C403 C 0.60308 0.78561 0.08994 0.0
C404 C 0.6152 0.83925 0.08085 0.0
C405 C 0.62522 0.85843 0.0751 0.0
C406 C 0.61499 0.86794 0.06994 0.0
C407 C 0.59457 0.85848 0.07056 0.0
C408 C 0.58465 0.83935 0.07658 0.0
C409 C 0.59492 0.82986 0.08173 0.0
C410 C 0.6328 0.82999 0.10882 0.0
C411 C 0.64196 0.82045 0.1161 0.0
C412 C 0.64525 0.82226 0.13264 0.0
C413 C 0.63962 0.83386 0.14222 0.0
C414 C 0.63069 0.84367 0.13483 0.0
C415 C 0.62732 0.84175 0.11827 0.0
P416 P 0.22702 0.77372 0.11802 0.0
H417 H 0.21966 0.73844 0.09703 0.0
H418 H 0.19182 0.7142 0.07856 0.0
H419 H 0.16242 0.74815 0.08838 0.0
H420 H 0.19037 0.77223 0.10715 0.0
H421 H 0.26243 0.81032 0.13182 0.0
H422 H 0.28957 0.83808 0.12017 0.0
H423 H 0.26007 0.81145 0.07325 0.0
H424 H 0.23282 0.78415 0.085 0.0
H425 H 0.20794 0.75265 0.14491 0.0
H426 H 0.22543 0.81086 0.12732 0.0
O427 O 0.23758 0.76099 0.12479 0.0
H428 H 0.19612 0.7624 0.16803 0.0
H429 H 0.21358 0.82076 0.15048 0.0
C430 C 0.20684 0.75679 0.10372 0.0
C431 C 0.20724 0.74068 0.0952 0.0
C432 C 0.19137 0.72695 0.0845 0.0
C433 C 0.17483 0.72919 0.08201 0.0
C434 C 0.17481 0.74584 0.09019 0.0
C435 C 0.19076 0.75961 0.1009 0.0
C436 C 0.24553 0.79532 0.10932 0.0
C437 C 0.26167 0.8107 0.11904 0.0
C438 C 0.27725 0.82645 0.11235 0.0
C439 C 0.27705 0.82695 0.09576 0.0
C440 C 0.26059 0.8117 0.08607 0.0
C441 C 0.24499 0.79599 0.09279 0.0
C442 C 0.21799 0.78122 0.13465 0.0
C443 C 0.20925 0.76755 0.14605 0.0
C444 C 0.20235 0.77309 0.15919 0.0
C445 C 0.20401 0.7924 0.16112 0.0
C446 C 0.21238 0.8059 0.14943 0.0
C447 C 0.21916 0.80027 0.13621 0.0
P448 P 0.19569 0.37645 0.09476 0.0
H449 H 0.17483 0.37329 0.06437 0.0
H450 H 0.15626 0.38917 0.05526 0.0
H451 H 0.17051 0.42391 0.10112 0.0
H452 H 0.1889 0.40775 0.11019 0.0
H453 H 0.22343 0.36278 0.08909 0.0
H454 H 0.25722 0.38015 0.08216 0.0
H455 H 0.25677 0.43682 0.08273 0.0
H456 H 0.22312 0.41939 0.09017 0.0
H457 H 0.16281 0.36135 0.11405 0.0
H458 H 0.22514 0.38508 0.12152 0.0
O459 O 0.18457 0.35297 0.08537 0.0
H460 H 0.15978 0.35572 0.14212 0.0
H461 H 0.22217 0.3789 0.14946 0.0
C462 C 0.18281 0.38898 0.08806 0.0
C463 C 0.17393 0.38431 0.07246 0.0
C464 C 0.16345 0.39352 0.06724 0.0
C465 C 0.16178 0.4077 0.07751 0.0
C466 C 0.17121 0.41278 0.09302 0.0
C467 C 0.18175 0.40358 0.09821 0.0
C468 C 0.22066 0.3897 0.0898 0.0
C469 C 0.2306 0.37894 0.08768 0.0
C470 C 0.24991 0.38889 0.08365 0.0
C471 C 0.25967 0.40985 0.08168 0.0
C472 C 0.24975 0.4207 0.08423 0.0
C473 C 0.23044 0.41071 0.08834 0.0
C474 C 0.19419 0.37381 0.11572 0.0
C475 C 0.17586 0.36543 0.12176 0.0
C476 C 0.17413 0.36204 0.13779 0.0
C477 C 0.19072 0.36676 0.14806 0.0
C478 C 0.20913 0.37533 0.14195 0.0
C479 C 0.21084 0.37879 0.12591 0.0
P480 P 0.46747 0.95774 0.24147 0.0
H481 H 0.45224 0.96183 0.27113 0.0
H482 H 0.41922 0.94597 0.27979 0.0
H483 H 0.39598 0.91025 0.23422 0.0
H484 H 0.4292 0.92606 0.22571 0.0
H485 H 0.50898 0.97134 0.24548 0.0
H486 H 0.52727 0.95452 0.25284 0.0
H487 H 0.47275 0.89878 0.2565 0.0
H488 H 0.45456 0.91588 0.24937 0.0
H489 H 0.46408 0.98616 0.2218 0.0
H490 H 0.46941 0.93257 0.21467 0.0
O491 O 0.47972 0.98146 0.25045 0.0
H492 H 0.46587 0.99019 0.1934 0.0
H493 H 0.47094 0.93631 0.18621 0.0
C494 C 0.44307 0.94545 0.24768 0.0
C495 C 0.44003 0.95063 0.26299 0.0
C496 C 0.42114 0.94161 0.2679 0.0
C497 C 0.40494 0.92705 0.25761 0.0
C498 C 0.40815 0.92139 0.24242 0.0
C499 C 0.4271 0.93052 0.2375 0.0
C500 C 0.48048 0.94499 0.24721 0.0
C501 C 0.50098 0.95554 0.24798 0.0
C502 C 0.5114 0.94583 0.25204 0.0
C503 C 0.50147 0.9253 0.25528 0.0
C504 C 0.48084 0.91468 0.2543 0.0
C505 C 0.47042 0.92443 0.25021 0.0
C506 C 0.46709 0.95938 0.22036 0.0
C507 C 0.46552 0.97519 0.21409 0.0
C508 C 0.46639 0.97737 0.19783 0.0
C509 C 0.46873 0.96367 0.18755 0.0
C510 C 0.46951 0.94734 0.19385 0.0
C511 C 0.4686 0.94516 0.21012 0.0
P512 P 0.11915 0.55617 0.22779 0.0
H513 H 0.14809 0.59353 0.24668 0.0
H514 H 0.14575 0.62017 0.26212 0.0
H515 H 0.08266 0.58602 0.25209 0.0
H516 H 0.08527 0.55961 0.23621 0.0
H517 H 0.1286 0.52466 0.22022 0.0
H518 H 0.12865 0.49816 0.23516 0.0
H519 H 0.10674 0.51699 0.27456 0.0
H520 H 0.10638 0.54323 0.25938 0.0
H521 H 0.11524 0.57464 0.19995 0.0
H522 H 0.08327 0.51634 0.21865 0.0
O523 O 0.14117 0.56775 0.22087 0.0
H524 H 0.09244 0.56142 0.17593 0.0
H525 H 0.06063 0.50281 0.19445 0.0
C526 C 0.1169 0.57488 0.24004 0.0
C527 C 0.13376 0.59178 0.24781 0.0
C528 C 0.13236 0.60691 0.25678 0.0
C529 C 0.11401 0.6053 0.25832 0.0
C530 C 0.09704 0.58791 0.25093 0.0
C531 C 0.09849 0.57278 0.2419 0.0
C532 C 0.1178 0.53607 0.23879 0.0
C533 C 0.12375 0.52302 0.23205 0.0
C534 C 0.12384 0.50795 0.24063 0.0
C535 C 0.11794 0.50565 0.25613 0.0
C536 C 0.11131 0.51833 0.26263 0.0
C537 C 0.11122 0.53344 0.25401 0.0
C538 C 0.10117 0.54636 0.21089 0.0
C539 C 0.1033 0.55897 0.19886 0.0
C540 C 0.09031 0.55136 0.18511 0.0
C541 C 0.07491 0.53096 0.18318 0.0
C542 C 0.07233 0.51859 0.1956 0.0
C543 C 0.08536 0.52626 0.20939 0.0
P544 P 0.47266 0.51212 0.24636 0.0
H545 H 0.49976 0.5347 0.27454 0.0
H546 H 0.51848 0.57094 0.28392 0.0
H547 H 0.4933 0.58445 0.24312 0.0
H548 H 0.47488 0.54813 0.23368 0.0
H549 H 0.43935 0.47122 0.23873 0.0
H550 H 0.4057 0.45428 0.24618 0.0
H551 H 0.41782 0.51011 0.27305 0.0
H552 H 0.45121 0.527 0.26529 0.0
H553 H 0.50263 0.51273 0.22758 0.0
H554 H 0.44558 0.50649 0.21877 0.0
O555 O 0.48311 0.50032 0.25505 0.0
H556 H 0.50515 0.5102 0.19897 0.0
H557 H 0.44801 0.504 0.1901 0.0
C558 C 0.48628 0.53882 0.25326 0.0
C559 C 0.49835 0.54547 0.26757 0.0
C560 C 0.50891 0.56619 0.27299 0.0
C561 C 0.50745 0.58062 0.26424 0.0
C562 C 0.49501 0.57379 0.25001 0.0
C563 C 0.48445 0.55304 0.24461 0.0
C564 C 0.44771 0.50037 0.25133 0.0
C565 C 0.43467 0.47982 0.24611 0.0
C566 C 0.4155 0.47014 0.25047 0.0
C567 C 0.40907 0.48084 0.26024 0.0
C568 C 0.4222 0.50152 0.26534 0.0
C569 C 0.44137 0.51118 0.26095 0.0
C570 C 0.47376 0.50933 0.22526 0.0
C571 C 0.49058 0.51064 0.21946 0.0
C572 C 0.49205 0.50935 0.20312 0.0
C573 C 0.47674 0.50684 0.19228 0.0
C574 C 0.4599 0.50562 0.19815 0.0
C575 C 0.4585 0.50704 0.21453 0.0
Tb576 Tb 0.52182 0.01572 0.999 0.0
C577 C 0.51104 0.97328 0.01019 0.0
Tb578 Tb 0.4792 0.98741 0.00655 0.0
O579 O 0.53231 0.01866 0.02401 0.0
O580 O 0.50433 0.01377 0.01761 0.0
O581 O 0.52319 0.98836 0.00213 0.0
C582 C 0.44669 0.96383 0.02024 0.0
O583 O 0.49416 0.9712 0.01432 0.0
C584 C 0.48508 0.98807 0.97643 0.0
C585 C 0.49003 0.02984 0.99529 0.0
O586 O 0.46083 0.98155 0.02629 0.0
O587 O 0.45081 0.95941 0.00645 0.0
O588 O 0.46852 0.98429 0.98162 0.0
O589 O 0.49663 0.9894 0.98787 0.0
O590 O 0.47785 0.01486 0.00344 0.0
O591 O 0.50677 0.03168 0.99102 0.0
C592 C 0.55467 0.03888 0.98551 0.0
O593 O 0.54985 0.04413 0.99866 0.0
O594 O 0.541 0.02067 0.98 0.0
C595 C 0.51576 0.01505 0.0291 0.0
Tb596 Tb 0.98082 0.5022 0.99757 0.0
C597 C 0.02514 0.53855 0.00665 0.0
Tb598 Tb 0.01392 0.49249 0.00308 0.0
O599 O 0.97029 0.49195 0.02072 0.0
O600 O 0.99969 0.50409 0.0169 0.0
O601 O 0.00702 0.53301 0.00071 0.0
C602 C 0.03721 0.47976 0.01553 0.0
O603 O 0.03038 0.52505 0.01028 0.0
C604 C 0.00796 0.5001 0.97424 0.0
C605 C 0.96975 0.4562 0.99426 0.0
O606 O 0.03802 0.48618 0.00156 0.0
O607 O 0.02322 0.48037 0.02241 0.0
O608 O 0.02489 0.50356 0.98036 0.0
O609 O 0.9952 0.4908 0.98359 0.0
O610 O 0.98774 0.46193 0.00056 0.0
O611 O 0.96452 0.46956 0.99017 0.0
C612 C 0.95789 0.51531 0.98508 0.0
O613 O 0.95567 0.5069 0.9983 0.0
O614 O 0.97303 0.5164 0.97893 0.0
C615 C 0.98728 0.49532 0.02658 0.0
Tb616 Tb 0.47876 0.50208 0.00478 0.0
C617 C 0.48806 0.4691 0.99137 0.0
Tb618 Tb 0.52162 0.51535 0.99868 0.0
O619 O 0.46869 0.49546 0.9794 0.0
O620 O 0.49789 0.51651 0.98719 0.0
O621 O 0.47679 0.47252 0.00072 0.0
C622 C 0.55549 0.52444 0.9869 0.0
O623 O 0.50489 0.4841 0.98729 0.0
C624 C 0.51325 0.51008 0.02817 0.0
C625 C 0.51179 0.54924 0.00993 0.0
O626 O 0.54563 0.50927 0.99519 0.0
O627 O 0.54635 0.5345 0.98532 0.0
O628 O 0.53068 0.52236 0.02422 0.0
O629 O 0.5022 0.49998 0.01587 0.0
O630 O 0.52459 0.54518 0.00353 0.0
O631 O 0.49363 0.53489 0.01207 0.0
C632 C 0.44643 0.49325 0.01905 0.0
O633 O 0.46367 0.49975 0.02624 0.0
O634 O 0.4474 0.49182 0.00382 0.0
C635 C 0.48619 0.50658 0.97505 0.0
Tb636 Tb 0.18646 0.34798 0.33137 0.0
C637 C 0.17602 0.30507 0.34171 0.0
Tb638 Tb 0.1438 0.31886 0.33812 0.0
O639 O 0.19617 0.35107 0.35656 0.0
O640 O 0.16816 0.34572 0.34944 0.0
O641 O 0.18878 0.32123 0.33492 0.0
C642 C 0.11155 0.29519 0.35217 0.0
O643 O 0.15829 0.3017 0.34461 0.0
C644 C 0.15071 0.31929 0.30822 0.0
C645 C 0.15431 0.36134 0.32738 0.0
O646 O 0.12863 0.30792 0.35944 0.0
O647 O 0.11259 0.29572 0.33695 0.0
O648 O 0.13378 0.31493 0.3129 0.0
O649 O 0.16203 0.32116 0.32003 0.0
O650 O 0.14264 0.34663 0.33598 0.0
O651 O 0.17086 0.36308 0.32275 0.0
C652 C 0.21952 0.37209 0.31851 0.0
O653 O 0.21416 0.37686 0.33155 0.0
O654 O 0.20627 0.35381 0.31274 0.0
C655 C 0.17935 0.34722 0.36121 0.0
Tb656 Tb 0.64559 0.83758 0.33027 0.0
C657 C 0.68651 0.87033 0.3471 0.0
Tb658 Tb 0.67511 0.82394 0.33995 0.0
O659 O 0.64368 0.84545 0.3551 0.0
O660 O 0.6501 0.8226 0.34894 0.0
O661 O 0.67155 0.86733 0.33712 0.0
C662 C 0.70078 0.8156 0.35438 0.0
O663 O 0.68916 0.85519 0.35116 0.0
C664 C 0.6718 0.82887 0.30982 0.0
C665 C 0.63374 0.79075 0.32441 0.0
O666 O 0.70454 0.82799 0.34345 0.0
O667 O 0.68257 0.8079 0.35719 0.0
O668 O 0.67669 0.81613 0.31496 0.0
O669 O 0.67083 0.83928 0.32146 0.0
O670 O 0.64915 0.79427 0.33401 0.0
O671 O 0.63073 0.8056 0.3201 0.0
C672 C 0.62077 0.84646 0.31506 0.0
O673 O 0.61724 0.83617 0.32737 0.0
O674 O 0.63828 0.85173 0.31131 0.0
C675 C 0.64888 0.83304 0.36049 0.0
Tb676 Tb 0.14276 0.83201 0.34081 0.0
C677 C 0.15116 0.79859 0.32625 0.0
Tb678 Tb 0.185 0.84508 0.33234 0.0
O679 O 0.13134 0.82355 0.31571 0.0
O680 O 0.16036 0.84586 0.32228 0.0
O681 O 0.1398 0.80224 0.33528 0.0
C682 C 0.21713 0.85338 0.31802 0.0
O683 O 0.16821 0.81329 0.32227 0.0
C684 C 0.17977 0.84223 0.36256 0.0
C685 C 0.17666 0.87867 0.34642 0.0
O686 O 0.21049 0.84146 0.32928 0.0
O687 O 0.20571 0.86065 0.31486 0.0
O688 O 0.1968 0.85326 0.35739 0.0
O689 O 0.16744 0.83151 0.35099 0.0
O690 O 0.18789 0.87481 0.33737 0.0
O691 O 0.15969 0.86408 0.3507 0.0
C692 C 0.11023 0.82223 0.35497 0.0
O693 O 0.11749 0.83574 0.34483 0.0
O694 O 0.12126 0.81428 0.3571 0.0
C695 C 0.14825 0.83528 0.31059 0.0
Tb696 Tb 0.8539 0.68503 0.66621 0.0
C697 C 0.84458 0.64317 0.67757 0.0
Tb698 Tb 0.81157 0.65555 0.6738 0.0
O699 O 0.86456 0.68838 0.69122 0.0
O700 O 0.83619 0.68243 0.68484 0.0
O701 O 0.85596 0.65799 0.66897 0.0
C702 C 0.7791 0.63105 0.68717 0.0
O703 O 0.82782 0.64088 0.68222 0.0
C704 C 0.81764 0.65622 0.64371 0.0
C705 C 0.821 0.69767 0.66245 0.0
O706 O 0.78476 0.62609 0.67439 0.0
O707 O 0.79171 0.6498 0.69242 0.0
O708 O 0.80088 0.6519 0.64876 0.0
O709 O 0.82928 0.65807 0.65525 0.0
O710 O 0.80891 0.68217 0.67022 0.0
O711 O 0.8383 0.70059 0.65867 0.0
C712 C 0.8863 0.70857 0.6523 0.0
O713 O 0.87153 0.69146 0.64597 0.0
O714 O 0.88284 0.71252 0.66651 0.0
C715 C 0.84786 0.68418 0.69634 0.0
Tb716 Tb 0.3086 0.1687 0.6641 0.0
C717 C 0.35079 0.20197 0.67833 0.0
Tb718 Tb 0.33781 0.15475 0.67371 0.0
O719 O 0.30857 0.17859 0.68884 0.0
O720 O 0.31349 0.1545 0.68314 0.0
O721 O 0.33496 0.19847 0.66929 0.0
C722 C 0.36366 0.14677 0.68832 0.0
O723 O 0.35378 0.18709 0.68253 0.0
C724 C 0.33299 0.15779 0.64339 0.0
C725 C 0.29551 0.12136 0.66032 0.0
O726 O 0.3478 0.14446 0.69395 0.0
O727 O 0.36495 0.15355 0.67447 0.0
O728 O 0.33741 0.14483 0.64884 0.0
O729 O 0.33311 0.16928 0.65478 0.0
O730 O 0.31134 0.12516 0.66949 0.0
O731 O 0.29257 0.13609 0.65557 0.0
C732 C 0.28359 0.17721 0.64872 0.0
O733 O 0.28112 0.16923 0.66214 0.0
O734 O 0.30012 0.18035 0.64394 0.0
C735 C 0.31334 0.16595 0.69445 0.0
Tb736 Tb 0.81007 0.16891 0.67486 0.0
C737 C 0.81718 0.13492 0.65972 0.0
Tb738 Tb 0.85183 0.18118 0.6663 0.0
O739 O 0.79881 0.1607 0.64975 0.0
O740 O 0.8278 0.18315 0.65651 0.0
O741 O 0.806 0.13871 0.6689 0.0
C742 C 0.88369 0.18837 0.65201 0.0
O743 O 0.8344 0.14952 0.65592 0.0
C744 C 0.8461 0.17715 0.69636 0.0
C745 C 0.8447 0.21541 0.68069 0.0
O746 O 0.87727 0.17733 0.66381 0.0
O747 O 0.87222 0.19542 0.64833 0.0
O748 O 0.86302 0.1893 0.69143 0.0
O749 O 0.83402 0.1667 0.68461 0.0
O750 O 0.85581 0.21128 0.67173 0.0
O751 O 0.82741 0.20102 0.68466 0.0
C752 C 0.7781 0.16082 0.68933 0.0
O753 O 0.78376 0.17127 0.67714 0.0
O754 O 0.79046 0.155 0.69336 0.0
C755 C 0.81571 0.17279 0.64473 0.0
H756 H 0.27752 0.84764 0.07013 0.0
H757 H 0.30613 0.87155 0.05722 0.0
H758 H 0.34426 0.86604 0.09236 0.0
H759 H 0.31581 0.84161 0.10498 0.0
H760 H 0.33895 0.90897 0.06889 0.0
H761 H 0.36004 0.85188 0.0503 0.0
H762 H 0.33649 0.84481 0.05728 0.0
H763 H 0.35779 0.85407 0.07122 0.0
C764 C 0.29199 0.85143 0.07505 0.0
C765 C 0.29436 0.8426 0.08853 0.0
C766 C 0.30832 0.86519 0.06773 0.0
C767 C 0.32727 0.87029 0.07369 0.0
C768 C 0.32973 0.86202 0.08741 0.0
H769 H 0.43847 0.96987 0.05025 0.0
H770 H 0.40914 0.94751 0.06317 0.0
C771 C 0.31345 0.84824 0.09472 0.0
C772 C 0.34447 0.88407 0.06547 0.0
H773 H 0.38277 0.88642 0.04693 0.0
C774 C 0.34852 0.90406 0.06403 0.0
C775 C 0.35673 0.87749 0.05895 0.0
C776 C 0.35249 0.85584 0.05935 0.0
C777 C 0.36475 0.91781 0.05648 0.0
C778 C 0.37741 0.91144 0.05047 0.0
C779 C 0.37315 0.89133 0.05169 0.0
C780 C 0.39502 0.92525 0.04266 0.0
C781 C 0.368 0.93889 0.05477 0.0
C782 C 0.39704 0.91989 0.027 0.0
C783 C 0.41385 0.93251 0.01969 0.0
C784 C 0.42891 0.95067 0.02792 0.0
C785 C 0.42695 0.95602 0.0436 0.0
C786 C 0.41017 0.94333 0.05095 0.0
H787 H 0.35436 0.93949 0.056 0.0
H788 H 0.37924 0.94979 0.06424 0.0
H789 H 0.37331 0.94402 0.04308 0.0
H790 H 0.38558 0.90595 0.02042 0.0
H791 H 0.41505 0.92804 0.00759 0.0
H792 H 0.13615 0.41402 0.09411 0.0
H793 H 0.11555 0.42764 0.08483 0.0
H794 H 0.13938 0.43497 0.03942 0.0
H795 H 0.16041 0.42186 0.04873 0.0
H796 H 0.13693 0.46904 0.05243 0.0
H797 H 0.06672 0.39588 0.05246 0.0
H798 H 0.0822 0.40463 0.07084 0.0
H799 H 0.09023 0.39727 0.0535 0.0
C800 C 0.13718 0.41875 0.08221 0.0
C801 C 0.14985 0.41675 0.07213 0.0
C802 C 0.12525 0.42632 0.07687 0.0
C803 C 0.12573 0.43199 0.06136 0.0
C804 C 0.1387 0.43052 0.0514 0.0
H805 H 0.06628 0.47698 0.00181 0.0
H806 H 0.08809 0.46606 0.01357 0.0
C807 C 0.1506 0.42291 0.0567 0.0
C808 C 0.11265 0.43937 0.05543 0.0
H809 H 0.06452 0.42462 0.04631 0.0
C810 C 0.1211 0.45935 0.05108 0.0
C811 C 0.09201 0.42669 0.05375 0.0
C812 C 0.08218 0.40486 0.05775 0.0
C813 C 0.10943 0.46706 0.04516 0.0
C814 C 0.0888 0.45428 0.04326 0.0
C815 C 0.08034 0.43438 0.04779 0.0
C816 C 0.07573 0.46109 0.03622 0.0
C817 C 0.11929 0.4889 0.04121 0.0
C818 C 0.06122 0.46141 0.04492 0.0
C819 C 0.04865 0.46749 0.03818 0.0
C820 C 0.05035 0.47321 0.0226 0.0
C821 C 0.06475 0.47273 0.01387 0.0
C822 C 0.07729 0.46664 0.02061 0.0
H823 H 0.13428 0.49813 0.04742 0.0
H824 H 0.12062 0.48925 0.02823 0.0
H825 H 0.11058 0.49614 0.04446 0.0
H826 H 0.0597 0.45707 0.05695 0.0
H827 H 0.03765 0.46774 0.04516 0.0
H828 H 0.56875 0.74181 0.04037 0.0
H829 H 0.55149 0.7058 0.02987 0.0
H830 H 0.57543 0.69149 0.07085 0.0
H831 H 0.59228 0.72732 0.08154 0.0
H832 H 0.56589 0.68239 0.02111 0.0
H833 H 0.51884 0.64832 0.06951 0.0
H834 H 0.53198 0.67544 0.06797 0.0
H835 H 0.54419 0.66334 0.07693 0.0
C836 C 0.57021 0.73092 0.04716 0.0
C837 C 0.58176 0.73731 0.0618 0.0
C838 C 0.56031 0.71037 0.04118 0.0
C839 C 0.56185 0.69585 0.04971 0.0
C840 C 0.57351 0.70226 0.06429 0.0
H841 H 0.54906 0.58187 0.01305 0.0
H842 H 0.55975 0.61725 0.02185 0.0
C843 C 0.58321 0.72276 0.07035 0.0
C844 C 0.55223 0.67423 0.04295 0.0
H845 H 0.52327 0.62529 0.05184 0.0
C846 C 0.55638 0.66992 0.02776 0.0
C847 C 0.5395 0.65793 0.05147 0.0
C848 C 0.53319 0.66149 0.06729 0.0
C849 C 0.5488 0.64977 0.02112 0.0
C850 C 0.53722 0.63348 0.03012 0.0
C851 C 0.5324 0.63778 0.04504 0.0
C852 C 0.53053 0.61195 0.02453 0.0
C853 C 0.55324 0.64619 0.0045 0.0
C854 C 0.51057 0.59701 0.02361 0.0
C855 C 0.50441 0.57662 0.01881 0.0
C856 C 0.5181 0.57082 0.01481 0.0
C857 C 0.53808 0.58582 0.01582 0.0
C858 C 0.54422 0.60613 0.02076 0.0
H859 H 0.55627 0.6592 0.99749 0.0
H860 H 0.56651 0.64469 0.00515 0.0
H861 H 0.54089 0.63204 0.99807 0.0
H862 H 0.49976 0.60114 0.02659 0.0
H863 H 0.48892 0.56544 0.0182 0.0
H864 H 0.83584 0.27545 0.93713 0.0
H865 H 0.85673 0.31127 0.94754 0.0
H866 H 0.89985 0.29782 0.96741 0.0
H867 H 0.87943 0.26218 0.95661 0.0
H868 H 0.87168 0.32889 0.97901 0.0
H869 H 0.93136 0.34456 0.94034 0.0
H870 H 0.90734 0.32209 0.93671 0.0
H871 H 0.92487 0.32327 0.95177 0.0
C872 C 0.84984 0.28015 0.9436 0.0
C873 C 0.85602 0.26597 0.94593 0.0
C874 C 0.86168 0.30058 0.94964 0.0
C875 C 0.87995 0.30723 0.95803 0.0
C876 C 0.88595 0.29306 0.96073 0.0
H877 H 0.97529 0.42422 0.99975 0.0
H878 H 0.95275 0.388 0.99188 0.0
C879 C 0.87415 0.27264 0.9547 0.0
C880 C 0.89281 0.32904 0.96386 0.0
H881 H 0.9377 0.37054 0.96059 0.0
C882 C 0.88609 0.33804 0.97495 0.0
C883 C 0.91157 0.34091 0.95852 0.0
C884 C 0.91919 0.33231 0.94607 0.0
C885 C 0.89784 0.35856 0.98109 0.0
C886 C 0.91663 0.37039 0.97579 0.0
C887 C 0.92331 0.36139 0.96468 0.0
C888 C 0.92962 0.39223 0.98146 0.0
C889 C 0.89021 0.36731 0.9934 0.0
C890 C 0.92406 0.40661 0.97822 0.0
C891 C 0.93691 0.42737 0.98269 0.0
C892 C 0.95563 0.43413 0.9904 0.0
C893 C 0.96102 0.4196 0.99382 0.0
C894 C 0.94816 0.39887 0.98934 0.0
H895 H 0.87789 0.35514 0.99906 0.0
H896 H 0.90203 0.37747 0.00281 0.0
H897 H 0.88476 0.37648 0.98761 0.0
H898 H 0.90996 0.40184 0.97189 0.0
H899 H 0.9323 0.43812 0.97981 0.0
H900 H 0.7288 0.61302 0.94712 0.0
H901 H 0.6964 0.59781 0.95692 0.0
H902 H 0.67908 0.54106 0.92914 0.0
H903 H 0.71163 0.55612 0.91935 0.0
H904 H 0.65124 0.55364 0.9265 0.0
H905 H 0.67537 0.55579 0.9896 0.0
H906 H 0.68845 0.57998 0.98166 0.0
H907 H 0.69079 0.5589 0.97375 0.0
C908 C 0.71821 0.59721 0.94324 0.0
C909 C 0.72288 0.58573 0.93256 0.0
C910 C 0.69969 0.58855 0.94885 0.0
C911 C 0.68547 0.56821 0.94398 0.0
C912 C 0.68991 0.55676 0.93311 0.0
H913 H 0.57647 0.50499 0.9899 0.0
H914 H 0.60737 0.5136 0.97861 0.0
C915 C 0.70847 0.56542 0.92748 0.0
C916 C 0.66584 0.55915 0.94997 0.0
H917 H 0.6429 0.54991 0.98413 0.0
C918 C 0.64936 0.55263 0.93908 0.0
C919 C 0.6634 0.55755 0.96636 0.0
C920 C 0.68041 0.56323 0.97852 0.0
C921 C 0.63059 0.54531 0.94422 0.0
C922 C 0.62834 0.54479 0.96069 0.0
C923 C 0.64469 0.55053 0.97152 0.0
C924 C 0.6093 0.53906 0.967 0.0
C925 C 0.61335 0.53822 0.93198 0.0
C926 C 0.60027 0.55064 0.96433 0.0
C927 C 0.58271 0.54579 0.97076 0.0
C928 C 0.57394 0.52934 0.98006 0.0
C929 C 0.58295 0.51774 0.98275 0.0
C930 C 0.60056 0.52263 0.97632 0.0
H931 H 0.61644 0.53397 0.92014 0.0
H932 H 0.60002 0.52491 0.9356 0.0
H933 H 0.61021 0.55079 0.93074 0.0
H934 H 0.60698 0.56365 0.95746 0.0
H935 H 0.57607 0.555 0.96854 0.0
H936 H 0.4822 0.16377 0.92313 0.0
H937 H 0.48511 0.13908 0.93849 0.0
H938 H 0.43025 0.12292 0.95765 0.0
H939 H 0.427 0.14744 0.94199 0.0
H940 H 0.48527 0.13834 0.97277 0.0
H941 H 0.4244 0.06754 0.93931 0.0
H942 H 0.43545 0.09184 0.9311 0.0
H943 H 0.41914 0.08695 0.94634 0.0
C944 C 0.4706 0.15478 0.93044 0.0
C945 C 0.45426 0.15741 0.93122 0.0
C946 C 0.47237 0.14081 0.9393 0.0
C947 C 0.45782 0.12909 0.94907 0.0
C948 C 0.44152 0.13169 0.95002 0.0
H949 H 0.45651 0.03101 0.00022 0.0
H950 H 0.44751 0.05551 0.99109 0.0
C951 C 0.43976 0.14578 0.94117 0.0
C952 C 0.46011 0.11439 0.95833 0.0
H953 H 0.4433 0.06355 0.9596 0.0
C954 C 0.47597 0.12198 0.97003 0.0
C955 C 0.44784 0.09308 0.95479 0.0
C956 C 0.43078 0.08423 0.94215 0.0
C957 C 0.48028 0.10881 0.97797 0.0
C958 C 0.46864 0.08753 0.97385 0.0
C959 C 0.45222 0.07989 0.96268 0.0
C960 C 0.47425 0.07314 0.97997 0.0
C961 C 0.49741 0.11782 0.99055 0.0
C962 C 0.49216 0.07484 0.97659 0.0
C963 C 0.49735 0.06094 0.98175 0.0
C964 C 0.48466 0.04492 0.99034 0.0
C965 C 0.46668 0.04322 0.99371 0.0
C966 C 0.46148 0.05717 0.9885 0.0
H967 H 0.50077 0.1331 0.99577 0.0
H968 H 0.49453 0.10774 0.00025 0.0
H969 H 0.5106 0.11968 0.9851 0.0
H970 H 0.50203 0.08678 0.96971 0.0
H971 H 0.51125 0.06268 0.97883 0.0
H972 H 0.71359 0.11005 0.91598 0.0
H973 H 0.68036 0.09288 0.92438 0.0
H974 H 0.6966 0.14359 0.95937 0.0
H975 H 0.72982 0.16089 0.95099 0.0
H976 H 0.66993 0.08097 0.95393 0.0
H977 H 0.64551 0.13503 0.93788 0.0
H978 H 0.66687 0.13577 0.93054 0.0
H979 H 0.66824 0.14678 0.9503 0.0
C980 C 0.71005 0.11757 0.92542 0.0
C981 C 0.72432 0.13684 0.93281 0.0
C982 C 0.69105 0.10779 0.93016 0.0
C983 C 0.68593 0.11708 0.94234 0.0
C984 C 0.70009 0.13637 0.94967 0.0
H985 H 0.58496 0.07663 0.99657 0.0
H986 H 0.61665 0.09583 0.98555 0.0
C987 C 0.71908 0.14621 0.9449 0.0
C988 C 0.66613 0.10603 0.94801 0.0
H989 H 0.62528 0.10918 0.95398 0.0
C990 C 0.6601 0.08706 0.95382 0.0
C991 C 0.65338 0.11406 0.94792 0.0
C992 C 0.65872 0.13394 0.94119 0.0
C993 C 0.64181 0.07606 0.95981 0.0
C994 C 0.62911 0.08413 0.95979 0.0
C995 C 0.63509 0.10308 0.95398 0.0
C996 C 0.60959 0.07308 0.96586 0.0
C997 C 0.63637 0.0561 0.96645 0.0
C998 C 0.59505 0.05419 0.95822 0.0
C999 C 0.57701 0.04324 0.96446 0.0
C1000 C 0.57323 0.05106 0.97843 0.0
C1001 C 0.58757 0.07025 0.98581 0.0
C1002 C 0.60562 0.08122 0.97954 0.0
H1003 H 0.64935 0.05431 0.96887 0.0
H1004 H 0.62926 0.05486 0.97763 0.0
H1005 H 0.62579 0.04331 0.95771 0.0
H1006 H 0.59775 0.04782 0.94751 0.0
H1007 H 0.56613 0.02853 0.95849 0.0
H1008 H 0.87015 0.59517 0.9109 0.0
H1009 H 0.88959 0.58033 0.92037 0.0
H1010 H 0.85265 0.55676 0.95851 0.0
H1011 H 0.83315 0.57155 0.94913 0.0
H1012 H 0.91054 0.58893 0.94962 0.0
H1013 H 0.85394 0.50685 0.93988 0.0
H1014 H 0.85099 0.52632 0.93107 0.0
H1015 H 0.8466 0.52199 0.9515 0.0
C1016 C 0.86615 0.5868 0.92129 0.0
C1017 C 0.85008 0.58451 0.92925 0.0
C1018 C 0.87722 0.57826 0.92664 0.0
C1019 C 0.8724 0.56719 0.94 0.0
C1020 C 0.85634 0.56481 0.94794 0.0
H1021 H 0.92585 0.51372 0.99698 0.0
H1022 H 0.90525 0.52641 0.98569 0.0
C1023 C 0.84522 0.57329 0.94257 0.0
C1024 C 0.88478 0.55904 0.94609 0.0
H1025 H 0.8836 0.51528 0.95516 0.0
C1026 C 0.9047 0.57281 0.95072 0.0
C1027 C 0.87709 0.53801 0.94754 0.0
C1028 C 0.85603 0.52239 0.9421 0.0
C1029 C 0.91706 0.56618 0.9571 0.0
C1030 C 0.90934 0.54518 0.95866 0.0
C1031 C 0.88945 0.53138 0.95397 0.0
C1032 C 0.92166 0.53727 0.96528 0.0
C1033 C 0.93816 0.58176 0.96247 0.0
C1034 C 0.93753 0.53893 0.95741 0.0
C1035 C 0.94929 0.53171 0.96383 0.0
C1036 C 0.94531 0.52265 0.97819 0.0
C1037 C 0.92926 0.52072 0.98593 0.0
C1038 C 0.91749 0.52792 0.97949 0.0
H1039 H 0.94057 0.59749 0.96391 0.0
H1040 H 0.94286 0.57835 0.97393 0.0
H1041 H 0.94766 0.58128 0.95345 0.0
H1042 H 0.94078 0.54578 0.94629 0.0
H1043 H 0.96151 0.53325 0.95758 0.0
H1044 H 0.48421 0.31589 0.92547 0.0
H1045 H 0.48523 0.34628 0.93781 0.0
H1046 H 0.42852 0.30883 0.95451 0.0
H1047 H 0.42751 0.27811 0.94238 0.0
H1048 H 0.45582 0.35805 0.9309 0.0
H1049 H 0.46495 0.34692 0.99462 0.0
H1050 H 0.47071 0.33424 0.97888 0.0
H1051 H 0.44562 0.32589 0.98186 0.0
C1052 C 0.47208 0.31404 0.93198 0.0
C1053 C 0.45585 0.29457 0.93307 0.0
C1054 C 0.47262 0.33144 0.93892 0.0
C1055 C 0.45703 0.32975 0.94715 0.0
C1056 C 0.44079 0.31039 0.94833 0.0
H1057 H 0.45538 0.4336 0.99742 0.0
H1058 H 0.44517 0.39875 0.98655 0.0
C1059 C 0.44018 0.29291 0.94131 0.0
C1060 C 0.4578 0.3485 0.95403 0.0
H1061 H 0.46556 0.37718 0.9891 0.0
C1062 C 0.45774 0.36217 0.94363 0.0
C1063 C 0.46012 0.35368 0.97062 0.0
C1064 C 0.46047 0.33953 0.98223 0.0
C1065 C 0.46054 0.38119 0.94938 0.0
C1066 C 0.4639 0.38685 0.96596 0.0
C1067 C 0.46306 0.37281 0.9764 0.0
C1068 C 0.46985 0.40781 0.97256 0.0
C1069 C 0.4601 0.39517 0.93764 0.0
C1070 C 0.48725 0.42435 0.96849 0.0
C1071 C 0.49312 0.44419 0.97464 0.0
C1072 C 0.48177 0.44792 0.98511 0.0
C1073 C 0.46444 0.43127 0.98935 0.0
C1074 C 0.45857 0.41136 0.98317 0.0
H1075 H 0.45148 0.38648 0.92627 0.0
H1076 H 0.45372 0.40423 0.94252 0.0
H1077 H 0.47529 0.40591 0.93497 0.0
H1078 H 0.49639 0.4219 0.96059 0.0
H1079 H 0.50659 0.45658 0.97113 0.0
H1080 H 0.13615 0.71267 0.08731 0.0
H1081 H 0.10786 0.68352 0.07212 0.0
H1082 H 0.14564 0.68037 0.03851 0.0
H1083 H 0.17392 0.70996 0.05329 0.0
H1084 H 0.10832 0.67189 0.02441 0.0
H1085 H 0.10254 0.62719 0.07567 0.0
H1086 H 0.10123 0.64987 0.08004 0.0
H1087 H 0.12359 0.65194 0.07408 0.0
C1088 C 0.13839 0.70613 0.07646 0.0
C1089 C 0.15735 0.71346 0.07164 0.0
C1090 C 0.12222 0.68937 0.06787 0.0
C1091 C 0.12474 0.67958 0.05438 0.0
C1092 C 0.14341 0.68764 0.04896 0.0
H1093 H 0.06397 0.55556 0.01635 0.0
H1094 H 0.08694 0.59076 0.02662 0.0
C1095 C 0.15958 0.70443 0.0575 0.0
C1096 C 0.10843 0.65986 0.04679 0.0
H1097 H 0.08002 0.60988 0.0533 0.0
C1098 C 0.10196 0.65834 0.03073 0.0
C1099 C 0.10038 0.6422 0.05506 0.0
C1100 C 0.10734 0.64272 0.07212 0.0
C1101 C 0.08778 0.63948 0.02265 0.0
C1102 C 0.07989 0.62185 0.03092 0.0
C1103 C 0.08609 0.62349 0.04704 0.0
C1104 C 0.06625 0.6012 0.02295 0.0
C1105 C 0.08186 0.63837 0.00524 0.0
C1106 C 0.04704 0.59548 0.01721 0.0
C1107 C 0.03376 0.57523 0.01128 0.0
C1108 C 0.03949 0.56043 0.01113 0.0
C1109 C 0.05897 0.56648 0.01638 0.0
C1110 C 0.07217 0.58663 0.02225 0.0
H1111 H 0.09159 0.65273 -0.0 0.0
H1112 H 0.08215 0.62554 0.99851 0.0
H1113 H 0.06664 0.63549 0.00374 0.0
H1114 H 0.04213 0.60647 0.01784 0.0
H1115 H 0.01886 0.57107 0.00736 0.0
H1116 H 0.27491 0.39505 0.05983 0.0
H1117 H 0.3082 0.41175 0.05175 0.0
H1118 H 0.32359 0.46493 0.08367 0.0
H1119 H 0.29032 0.44816 0.0921 0.0
H1120 H 0.33525 0.47326 0.05232 0.0
H1121 H 0.35841 0.42249 0.07837 0.0
H1122 H 0.33553 0.40912 0.06611 0.0
H1123 H 0.33741 0.42386 0.08421 0.0
C1124 C 0.28542 0.41017 0.06534 0.0
C1125 C 0.27995 0.42018 0.07673 0.0
C1126 C 0.30444 0.41971 0.06068 0.0
C1127 C 0.31841 0.43943 0.0673 0.0
C1128 C 0.31301 0.44964 0.07849 0.0
H1129 H 0.44242 0.49337 0.05085 0.0
H1130 H 0.41209 0.48246 0.06376 0.0
C1131 C 0.29397 0.44008 0.08322 0.0
C1132 C 0.33848 0.4495 0.06214 0.0
H1133 H 0.37854 0.44393 0.05958 0.0
C1134 C 0.34482 0.467 0.05404 0.0
C1135 C 0.35103 0.44146 0.0646 0.0
C1136 C 0.34537 0.42331 0.07393 0.0
C1137 C 0.36308 0.47618 0.04775 0.0
C1138 C 0.37516 0.46746 0.04946 0.0
C1139 C 0.36917 0.45048 0.05815 0.0
C1140 C 0.39367 0.47515 0.04177 0.0
C1141 C 0.36925 0.49508 0.03927 0.0
C1142 C 0.39331 0.47453 0.02514 0.0
C1143 C 0.41056 0.48071 0.01777 0.0
C1144 C 0.42843 0.48753 0.0269 0.0
C1145 C 0.42882 0.48825 0.04355 0.0
C1146 C 0.41154 0.48202 0.05092 0.0
H1147 H 0.36134 0.50308 0.04294 0.0
H1148 H 0.38527 0.50585 0.04162 0.0
H1149 H 0.36576 0.49067 0.02628 0.0
H1150 H 0.37962 0.46885 0.01784 0.0
H1151 H 0.40985 0.4799 0.00492 0.0
H1152 H 0.60562 0.89889 0.0751 0.0
H1153 H 0.58832 0.91552 0.06477 0.0
H1154 H 0.54142 0.85745 0.04309 0.0
H1155 H 0.55897 0.84076 0.05292 0.0
H1156 H 0.55366 0.88747 0.02271 0.0
H1157 H 0.53996 0.91456 0.0802 0.0
H1158 H 0.56531 0.92235 0.07898 0.0
H1159 H 0.54742 0.89567 0.07856 0.0
C1160 C 0.59166 0.88965 0.0681 0.0
C1161 C 0.58368 0.86849 0.06484 0.0
C1162 C 0.58167 0.89914 0.06237 0.0
C1163 C 0.56344 0.88767 0.0534 0.0
C1164 C 0.5554 0.86655 0.05012 0.0
H1165 H 0.4916 0.94158 0.02836 0.0
H1166 H 0.50249 0.91883 0.03804 0.0
C1167 C 0.56539 0.85703 0.05583 0.0
C1168 C 0.55323 0.89789 0.04683 0.0
H1169 H 0.5358 0.92952 0.0573 0.0
C1170 C 0.54956 0.8965 0.03027 0.0
C1171 C 0.54762 0.90939 0.05672 0.0
C1172 C 0.55008 0.91044 0.07461 0.0
C1173 C 0.54112 0.90695 0.0233 0.0
C1174 C 0.53655 0.9194 0.03317 0.0
C1175 C 0.53951 0.92015 0.04974 0.0
C1176 C 0.52941 0.93237 0.02655 0.0
C1177 C 0.53717 0.90456 0.00545 0.0
C1178 C 0.54097 0.94757 0.01693 0.0
C1179 C 0.53479 0.96055 0.01133 0.0
C1180 C 0.51697 0.9587 0.01535 0.0
C1181 C 0.50535 0.94337 0.02494 0.0
C1182 C 0.51156 0.93037 0.03052 0.0
H1183 H 0.53577 0.89012 0.00014 0.0
H1184 H 0.52356 0.90476 0.00185 0.0
H1185 H 0.5496 0.91738 0.00044 0.0
H1186 H 0.55502 0.94971 0.01402 0.0
H1187 H 0.54419 0.97225 0.00407 0.0
H1188 H 0.96661 0.20003 0.43682 0.0
H1189 H 0.99454 0.22424 0.42339 0.0
H1190 H 0.98397 0.17601 0.38781 0.0
H1191 H 0.95633 0.15166 0.40131 0.0
H1192 H 0.02337 0.19948 0.40217 0.0
H1193 H 0.99475 0.24813 0.3804 0.0
H1194 H 0.99288 0.24404 0.4011 0.0
H1195 H 0.97895 0.22292 0.38626 0.0
C1196 C 0.97019 0.19462 0.4261 0.0
C1197 C 0.95923 0.17394 0.42011 0.0
C1198 C 0.98603 0.20849 0.41838 0.0
C1199 C 0.99117 0.20192 0.40454 0.0
C1200 C 0.98014 0.18138 0.39843 0.0
H1201 H 0.07457 0.2698 0.33817 0.0
H1202 H 0.04531 0.24748 0.35122 0.0
C1203 C 0.96426 0.16752 0.40609 0.0
C1204 C 0.00871 0.21618 0.39691 0.0
H1205 H 0.02808 0.25902 0.37722 0.0
C1206 C 0.02442 0.2125 0.39671 0.0
C1207 C 0.00993 0.23304 0.38973 0.0
C1208 C 0.9932 0.23727 0.38922 0.0
C1209 C 0.04143 0.22537 0.3896 0.0
C1210 C 0.04277 0.2424 0.38263 0.0
C1211 C 0.02701 0.246 0.38269 0.0
C1212 C 0.06032 0.25639 0.37491 0.0
C1213 C 0.05774 0.22051 0.38938 0.0
C1214 C 0.07832 0.26892 0.38398 0.0
C1215 C 0.09499 0.2817 0.37658 0.0
C1216 C 0.09388 0.28207 0.36 0.0
C1217 C 0.0758 0.26972 0.35096 0.0
C1218 C 0.05911 0.25703 0.35839 0.0
H1219 H 0.05292 0.20481 0.39252 0.0
H1220 H 0.06334 0.22216 0.37747 0.0
H1221 H 0.07007 0.23141 0.39813 0.0
H1222 H 0.07946 0.26876 0.39678 0.0
H1223 H 0.10877 0.29116 0.38381 0.0
H1224 H 0.82253 0.75432 0.38275 0.0
H1225 H 0.80249 0.76871 0.37384 0.0
H1226 H 0.78553 0.76996 0.4213 0.0
H1227 H 0.80524 0.75522 0.43028 0.0
H1228 H 0.76127 0.75045 0.37606 0.0
H1229 H 0.80333 0.82812 0.40824 0.0
H1230 H 0.81382 0.81201 0.40499 0.0
H1231 H 0.79751 0.80741 0.42022 0.0
C1232 C 0.81453 0.75763 0.3913 0.0
C1233 C 0.81546 0.75356 0.40723 0.0
C1234 C 0.80318 0.76596 0.38621 0.0
C1235 C 0.79271 0.77057 0.39695 0.0
C1236 C 0.79381 0.76685 0.4129 0.0
H1237 H 0.6934 0.78738 0.37538 0.0
H1238 H 0.71602 0.77689 0.38626 0.0
C1239 C 0.80511 0.75845 0.418 0.0
C1240 C 0.77973 0.77815 0.39124 0.0
H1241 H 0.77238 0.81877 0.39495 0.0
C1242 C 0.7637 0.76539 0.38016 0.0
C1243 C 0.78305 0.7977 0.39657 0.0
C1244 C 0.80044 0.81223 0.40806 0.0
C1245 C 0.75073 0.77157 0.37439 0.0
C1246 C 0.75383 0.79095 0.37994 0.0
C1247 C 0.77 0.80385 0.39085 0.0
C1248 C 0.74056 0.79814 0.37422 0.0
C1249 C 0.73392 0.75745 0.36226 0.0
C1250 C 0.74706 0.81384 0.36416 0.0
C1251 C 0.73418 0.81977 0.3579 0.0
C1252 C 0.71467 0.8102 0.36173 0.0
C1253 C 0.70836 0.79493 0.3722 0.0
C1254 C 0.72122 0.78892 0.37839 0.0
H1255 H 0.73563 0.74472 0.35709 0.0
H1256 H 0.72002 0.75084 0.36802 0.0
H1257 H 0.73267 0.76597 0.35248 0.0
H1258 H 0.76197 0.82114 0.36086 0.0
H1259 H 0.7394 0.83164 0.34989 0.0
H1260 H 0.25072 0.05827 0.42093 0.0
H1261 H 0.23499 0.022 0.4118 0.0
H1262 H 0.22844 0.03521 0.36377 0.0
H1263 H 0.24348 0.07146 0.37288 0.0
H1264 H 0.19504 0.00123 0.37246 0.0
H1265 H 0.26214 0.99695 0.38697 0.0
H1266 H 0.25453 0.00649 0.40339 0.0
H1267 H 0.26259 0.02087 0.38649 0.0
C1268 C 0.2457 0.05345 0.40846 0.0
C1269 C 0.24847 0.0678 0.39762 0.0
C1270 C 0.23691 0.03274 0.40324 0.0
C1271 C 0.23087 0.02598 0.38708 0.0
C1272 C 0.23314 0.04015 0.37628 0.0
H1273 H 0.20845 0.91284 0.33794 0.0
H1274 H 0.22047 0.94825 0.34779 0.0
C1275 C 0.24188 0.06087 0.38149 0.0
C1276 C 0.22245 0.00419 0.38136 0.0
H1277 H 0.23302 0.96581 0.37853 0.0
C1278 C 0.20331 0.99344 0.37378 0.0
C1279 C 0.23339 0.99419 0.38293 0.0
C1280 C 0.25436 0.00523 0.39025 0.0
C1281 C 0.19476 0.97288 0.36781 0.0
C1282 C 0.20556 0.96278 0.3697 0.0
C1283 C 0.22472 0.97356 0.37722 0.0
C1284 C 0.19761 0.94121 0.36346 0.0
C1285 C 0.17446 0.96232 0.35918 0.0
C1286 C 0.18077 0.92547 0.36905 0.0
C1287 C 0.17377 0.90513 0.36339 0.0
C1288 C 0.18361 0.90019 0.35214 0.0
C1289 C 0.20049 0.91604 0.3466 0.0
C1290 C 0.20741 0.93633 0.35222 0.0
H1291 H 0.17019 0.97341 0.35535 0.0
H1292 H 0.17347 0.95244 0.34856 0.0
H1293 H 0.16371 0.95254 0.36725 0.0
H1294 H 0.17322 0.92888 0.37798 0.0
H1295 H 0.16082 0.8933 0.36801 0.0
H1296 H 0.52709 0.61268 0.24649 0.0
H1297 H 0.54718 0.64891 0.25591 0.0
H1298 H 0.53472 0.63475 0.30403 0.0
H1299 H 0.5141 0.59856 0.29466 0.0
H1300 H 0.53211 0.66872 0.29589 0.0
H1301 H 0.6018 0.67407 0.28015 0.0
H1302 H 0.58276 0.66443 0.26405 0.0
H1303 H 0.57955 0.64997 0.28081 0.0
C1304 C 0.52842 0.61729 0.25905 0.0
C1305 C 0.51909 0.60271 0.26984 0.0
C1306 C 0.54006 0.63797 0.26443 0.0
C1307 C 0.54267 0.64444 0.28069 0.0
C1308 C 0.53299 0.63003 0.29144 0.0
H1309 H 0.63354 0.75617 0.33193 0.0
H1310 H 0.61071 0.72107 0.32112 0.0
C1311 C 0.52134 0.60935 0.28608 0.0
C1312 C 0.55572 0.6662 0.28658 0.0
H1313 H 0.60342 0.70477 0.2897 0.0
C1314 C 0.5477 0.67665 0.29452 0.0
C1315 C 0.57608 0.67638 0.28493 0.0
C1316 C 0.58565 0.66564 0.27715 0.0
C1317 C 0.5595 0.69709 0.30083 0.0
C1318 C 0.5798 0.70736 0.29894 0.0
C1319 C 0.58781 0.69689 0.29101 0.0
C1320 C 0.5932 0.72874 0.30565 0.0
C1321 C 0.55026 0.70734 0.30982 0.0
C1322 C 0.59097 0.74473 0.30047 0.0
C1323 C 0.60399 0.76489 0.30668 0.0
C1324 C 0.61956 0.7694 0.31808 0.0
C1325 C 0.62173 0.7533 0.32318 0.0
C1326 C 0.6087 0.7332 0.31701 0.0
H1327 H 0.53567 0.69608 0.31339 0.0
H1328 H 0.55983 0.71673 0.32064 0.0
H1329 H 0.54823 0.71757 0.30211 0.0
H1330 H 0.57932 0.74165 0.29148 0.0
H1331 H 0.60197 0.77691 0.30238 0.0
H1332 H 0.37529 0.88707 0.25345 0.0
H1333 H 0.34243 0.87256 0.26257 0.0
H1334 H 0.35632 0.93234 0.28236 0.0
H1335 H 0.3891 0.94691 0.27334 0.0
H1336 H 0.33974 0.90328 0.30324 0.0
H1337 H 0.29577 0.87678 0.24455 0.0
H1338 H 0.31238 0.8674 0.24771 0.0
H1339 H 0.32191 0.89423 0.24668 0.0
C1340 C 0.37124 0.89714 0.25958 0.0
C1341 C 0.38481 0.91813 0.26271 0.0
C1342 C 0.35246 0.88884 0.26476 0.0
C1343 C 0.34686 0.90141 0.27299 0.0
C1344 C 0.36034 0.92236 0.27604 0.0
H1345 H 0.23286 0.87928 0.2952 0.0
H1346 H 0.26414 0.88977 0.28404 0.0
C1347 C 0.3791 0.93065 0.27093 0.0
C1348 C 0.32724 0.89278 0.27899 0.0
H1349 H 0.27813 0.86765 0.26735 0.0
C1350 C 0.32626 0.89545 0.2954 0.0
C1351 C 0.3097 0.88276 0.26871 0.0
C1352 C 0.3099 0.88024 0.25092 0.0
C1353 C 0.30823 0.88844 0.30183 0.0
C1354 C 0.29066 0.87809 0.29159 0.0
C1355 C 0.29162 0.87541 0.27517 0.0
C1356 C 0.27122 0.87071 0.29767 0.0
C1357 C 0.30819 0.89269 0.31947 0.0
C1358 C 0.26464 0.85619 0.30876 0.0
C1359 C 0.24685 0.85028 0.31521 0.0
C1360 C 0.23531 0.85868 0.31056 0.0
C1361 C 0.24156 0.87267 0.29905 0.0
C1362 C 0.25938 0.87862 0.29264 0.0
H1363 H 0.32278 0.90497 0.32493 0.0
H1364 H 0.29714 0.89719 0.32194 0.0
H1365 H 0.30439 0.87866 0.32532 0.0
H1366 H 0.27337 0.84959 0.31256 0.0
H1367 H 0.24226 0.83933 0.32397 0.0
H1368 H 0.14804 0.49788 0.25841 0.0
H1369 H 0.15067 0.47289 0.27357 0.0
H1370 H 0.09453 0.45493 0.29097 0.0
H1371 H 0.09152 0.47968 0.27545 0.0
H1372 H 0.14966 0.4704 0.30718 0.0
H1373 H 0.08954 0.40063 0.27205 0.0
H1374 H 0.1005 0.4254 0.26461 0.0
H1375 H 0.08377 0.41943 0.27965 0.0
C1376 C 0.13612 0.48846 0.2653 0.0
C1377 C 0.11947 0.4906 0.2656 0.0
C1378 C 0.13773 0.47431 0.27405 0.0
C1379 C 0.12272 0.46196 0.28324 0.0
C1380 C 0.10616 0.46417 0.28377 0.0
H1381 H 0.12086 0.36242 0.33282 0.0
H1382 H 0.11182 0.38712 0.32422 0.0
C1383 C 0.10454 0.47841 0.27501 0.0
C1384 C 0.12472 0.44689 0.29223 0.0
H1385 H 0.10773 0.39589 0.29247 0.0
C1386 C 0.14036 0.45409 0.30411 0.0
C1387 C 0.11246 0.42565 0.28825 0.0
C1388 C 0.09567 0.41719 0.27539 0.0
C1389 C 0.14448 0.44062 0.31175 0.0
C1390 C 0.13285 0.41944 0.3072 0.0
C1391 C 0.11663 0.41216 0.29589 0.0
C1392 C 0.1384 0.40484 0.31293 0.0
C1393 C 0.16146 0.44919 0.32445 0.0
C1394 C 0.15621 0.40653 0.30925 0.0
C1395 C 0.16139 0.3925 0.31408 0.0
C1396 C 0.14882 0.3764 0.32266 0.0
C1397 C 0.13092 0.3747 0.32631 0.0
C1398 C 0.12572 0.38876 0.32141 0.0
H1399 H 0.16492 0.46442 0.32989 0.0
H1400 H 0.15832 0.43882 0.33397 0.0
H1401 H 0.17466 0.45101 0.31905 0.0
H1402 H 0.16601 0.41857 0.30242 0.0
H1403 H 0.17523 0.39425 0.31096 0.0
H1404 H 0.38906 0.44253 0.26993 0.0
H1405 H 0.35618 0.42532 0.27889 0.0
H1406 H 0.35104 0.4783 0.27215 0.0
H1407 H 0.38371 0.49542 0.26264 0.0
H1408 H 0.34322 0.43776 0.30477 0.0
H1409 H 0.30025 0.43155 0.24856 0.0
H1410 H 0.32543 0.43747 0.24927 0.0
H1411 H 0.31979 0.45689 0.25526 0.0
C1412 C 0.38082 0.45041 0.27008 0.0
C1413 C 0.38896 0.47031 0.26547 0.0
C1414 C 0.3621 0.44061 0.27533 0.0
C1415 C 0.3511 0.45044 0.276 0.0
C1416 C 0.35916 0.47031 0.27146 0.0
H1417 H 0.24875 0.41026 0.3299 0.0
H1418 H 0.28061 0.43048 0.31944 0.0
C1419 C 0.37791 0.48015 0.2662 0.0
C1420 C 0.33146 0.44006 0.28197 0.0
H1421 H 0.28282 0.42154 0.27139 0.0
C1422 C 0.33 0.43423 0.29749 0.0
C1423 C 0.31426 0.43532 0.27238 0.0
C1424 C 0.31489 0.44045 0.25539 0.0
C1425 C 0.31178 0.42376 0.3037 0.0
C1426 C 0.2946 0.41934 0.29421 0.0
C1427 C 0.29605 0.42514 0.27868 0.0
C1428 C 0.27492 0.40788 0.29998 0.0
C1429 C 0.31104 0.41703 0.3202 0.0
C1430 C 0.26093 0.38884 0.29215 0.0
C1431 C 0.24272 0.37738 0.29802 0.0
C1432 C 0.23821 0.38481 0.31178 0.0
C1433 C 0.25195 0.40414 0.31933 0.0
C1434 C 0.27016 0.41563 0.31342 0.0
H1435 H 0.32473 0.41725 0.32432 0.0
H1436 H 0.30921 0.42756 0.32864 0.0
H1437 H 0.29844 0.40139 0.32063 0.0
H1438 H 0.26429 0.38263 0.28171 0.0
H1439 H 0.23232 0.36255 0.29194 0.0
H1440 H 0.4946 0.89948 0.27849 0.0
H1441 H 0.51422 0.88436 0.2869 0.0
H1442 H 0.55328 0.91312 0.25096 0.0
H1443 H 0.53369 0.92816 0.24238 0.0
H1444 H 0.52484 0.85858 0.26936 0.0
H1445 H 0.58973 0.93306 0.29265 0.0
H1446 H 0.56578 0.92997 0.2881 0.0
H1447 H 0.58081 0.93166 0.2724 0.0
C1448 C 0.50723 0.90239 0.27224 0.0
C1449 C 0.51269 0.91518 0.25985 0.0
C1450 C 0.51846 0.89381 0.27711 0.0
C1451 C 0.53536 0.89791 0.26972 0.0
C1452 C 0.54051 0.91013 0.25703 0.0
H1453 H 0.62703 0.86841 0.28952 0.0
H1454 H 0.60558 0.87959 0.27737 0.0
C1455 C 0.52932 0.91872 0.25217 0.0
C1456 C 0.54781 0.88971 0.27547 0.0
H1457 H 0.59345 0.90411 0.29263 0.0
C1458 C 0.53984 0.8685 0.27446 0.0
C1459 C 0.56736 0.90273 0.2821 0.0
C1460 C 0.57644 0.92562 0.28403 0.0
C1461 C 0.55101 0.85993 0.27976 0.0
C1462 C 0.57052 0.87295 0.2865 0.0
C1463 C 0.57851 0.89417 0.2874 0.0
C1464 C 0.5828 0.86498 0.29313 0.0
C1465 C 0.54193 0.83705 0.2779 0.0
C1466 C 0.57709 0.85309 0.30602 0.0
C1467 C 0.58929 0.8467 0.31294 0.0
C1468 C 0.60745 0.85223 0.30717 0.0
C1469 C 0.61307 0.86394 0.29418 0.0
C1470 C 0.60086 0.87032 0.28724 0.0
H1471 H 0.52925 0.82973 0.26868 0.0
H1472 H 0.55284 0.83263 0.27466 0.0
H1473 H 0.53657 0.83096 0.28934 0.0
H1474 H 0.56342 0.84917 0.31097 0.0
H1475 H 0.58467 0.83776 0.32301 0.0
H1476 H 0.13519 0.62831 0.28593 0.0
H1477 H 0.1363 0.65877 0.29813 0.0
H1478 H 0.09096 0.65083 0.26293 0.0
H1479 H 0.09046 0.62087 0.25015 0.0
H1480 H 0.1212 0.68864 0.26529 0.0
H1481 H 0.10113 0.66796 0.32578 0.0
H1482 H 0.12099 0.66426 0.32084 0.0
H1483 H 0.09732 0.64926 0.30973 0.0
C1484 C 0.12538 0.63296 0.28081 0.0
C1485 C 0.11283 0.6222 0.26698 0.0
C1486 C 0.12582 0.65023 0.28796 0.0
C1487 C 0.11351 0.65693 0.2816 0.0
C1488 C 0.10049 0.64584 0.26811 0.0
H1489 H 0.1156 0.76431 0.32859 0.0
H1490 H 0.10439 0.72945 0.31724 0.0
C1491 C 0.10012 0.62862 0.26089 0.0
C1492 C 0.11568 0.67659 0.28807 0.0
H1493 H 0.11874 0.70402 0.32261 0.0
C1494 C 0.12036 0.69189 0.27778 0.0
C1495 C 0.11429 0.68077 0.30432 0.0
C1496 C 0.10794 0.6646 0.31575 0.0
C1497 C 0.12461 0.71151 0.28342 0.0
C1498 C 0.12467 0.71611 0.29987 0.0
C1499 C 0.11902 0.70056 0.31004 0.0
C1500 C 0.13137 0.73715 0.3068 0.0
C1501 C 0.12912 0.72715 0.27169 0.0
C1502 C 0.15037 0.75294 0.30495 0.0
C1503 C 0.15678 0.77284 0.31133 0.0
C1504 C 0.14441 0.77733 0.3199 0.0
C1505 C 0.12551 0.76139 0.32205 0.0
C1506 C 0.11906 0.74146 0.31557 0.0
H1507 H 0.12237 0.71976 0.25954 0.0
H1508 H 0.12378 0.73769 0.27525 0.0
H1509 H 0.14522 0.73626 0.27118 0.0
H1510 H 0.1603 0.74986 0.29859 0.0
H1511 H 0.17148 0.78467 0.30953 0.0
H1512 H 0.83109 0.01647 0.42482 0.0
H1513 H 0.80174 0.98759 0.41067 0.0
H1514 H 0.78658 0.02882 0.38974 0.0
H1515 H 0.81633 0.058 0.40362 0.0
H1516 H 0.76199 0.97815 0.41289 0.0
H1517 H 0.78441 0.99067 0.35133 0.0
H1518 H 0.8019 0.00244 0.36865 0.0
H1519 H 0.78586 0.01186 0.36325 0.0
C1520 C 0.8217 0.01946 0.41703 0.0
C1521 C 0.82615 0.03955 0.41523 0.0
C1522 C 0.80485 0.00292 0.40906 0.0
C1523 C 0.79211 0.00609 0.39906 0.0
C1524 C 0.79638 0.02609 0.39726 0.0
H1525 H 0.68915 0.90661 0.34054 0.0
H1526 H 0.71283 0.9409 0.35316 0.0
C1527 C 0.81327 0.04271 0.40529 0.0
C1528 C 0.77429 0.98824 0.39082 0.0
H1529 H 0.75437 0.96137 0.35448 0.0
C1530 C 0.76019 0.97458 0.4001 0.0
C1531 C 0.77193 0.98375 0.37413 0.0
C1532 C 0.78683 0.99783 0.36368 0.0
C1533 C 0.74412 0.95618 0.39318 0.0
C1534 C 0.74232 0.95117 0.37659 0.0
C1535 C 0.75585 0.96527 0.3672 0.0
C1536 C 0.72766 0.93058 0.36906 0.0
C1537 C 0.7294 0.94211 0.40375 0.0
C1538 C 0.72838 0.91355 0.37367 0.0
C1539 C 0.715 0.89407 0.36652 0.0
C1540 C 0.70063 0.89118 0.35449 0.0
C1541 C 0.69999 0.9083 0.34979 0.0
C1542 C 0.7135 0.92788 0.35697 0.0
H1543 H 0.72921 0.95063 0.4148 0.0
H1544 H 0.71439 0.93374 0.3975 0.0
H1545 H 0.73347 0.93077 0.40724 0.0
H1546 H 0.73946 0.91534 0.38274 0.0
H1547 H 0.71598 0.88129 0.37048 0.0
H1548 H 0.93932 0.77426 0.39757 0.0
H1549 H 0.97209 0.78953 0.38825 0.0
H1550 H 0.9837 0.74863 0.41372 0.0
H1551 H 0.95102 0.73333 0.42312 0.0
H1552 H 0.00983 0.80846 0.40506 0.0
H1553 H 0.99337 0.73818 0.36782 0.0
H1554 H 0.97447 0.74171 0.37589 0.0
H1555 H 0.98874 0.7345 0.38825 0.0
C1556 C 0.94893 0.76868 0.40133 0.0
C1557 C 0.94251 0.75245 0.41096 0.0
C1558 C 0.96761 0.77736 0.39595 0.0
C1559 C 0.98015 0.76995 0.40007 0.0
C1560 C 0.97406 0.75425 0.41011 0.0
H1561 H 0.0945 0.79448 0.37645 0.0
H1562 H 0.06337 0.7831 0.38806 0.0
C1563 C 0.95539 0.74553 0.41547 0.0
C1564 C 0.99948 0.77835 0.39362 0.0
H1565 H 0.02643 0.76512 0.37072 0.0
C1566 C 0.01347 0.79905 0.3975 0.0
C1567 C 0.00412 0.766 0.38371 0.0
C1568 C 0.98935 0.74391 0.37853 0.0
C1569 C 0.0322 0.80762 0.39202 0.0
C1570 C 0.03687 0.7952 0.38224 0.0
C1571 C 0.02282 0.77456 0.37829 0.0
C1572 C 0.05626 0.8032 0.37597 0.0
C1573 C 0.04697 0.82975 0.39702 0.0
C1574 C 0.06256 0.81829 0.36534 0.0
C1575 C 0.08034 0.82481 0.35869 0.0
C1576 C 0.09198 0.81622 0.36251 0.0
C1577 C 0.08577 0.80132 0.37329 0.0
C1578 C 0.06802 0.79482 0.37993 0.0
H1579 H 0.04278 0.83578 0.40745 0.0
H1580 H 0.06176 0.83186 0.39998 0.0
H1581 H 0.04788 0.83893 0.38704 0.0
H1582 H 0.05352 0.82468 0.36191 0.0
H1583 H 0.08479 0.83628 0.35036 0.0
H1584 H 0.22517 0.17281 0.383 0.0
H1585 H 0.20818 0.18968 0.37239 0.0
H1586 H 0.25159 0.24648 0.3985 0.0
H1587 H 0.26823 0.22959 0.40965 0.0
H1588 H 0.21364 0.23869 0.40039 0.0
H1589 H 0.22766 0.22868 0.33777 0.0
H1590 H 0.21533 0.20548 0.34718 0.0
H1591 H 0.24008 0.22445 0.35432 0.0
C1592 C 0.23097 0.18884 0.38665 0.0
C1593 C 0.24815 0.19989 0.39711 0.0
C1594 C 0.22137 0.1985 0.38042 0.0
C1595 C 0.22883 0.2194 0.38444 0.0
C1596 C 0.24568 0.23036 0.39515 0.0
H1597 H 0.21121 0.30715 0.33859 0.0
H1598 H 0.22231 0.28493 0.34877 0.0
C1599 C 0.25526 0.22072 0.40141 0.0
C1600 C 0.21924 0.23 0.37745 0.0
H1601 H 0.20815 0.24363 0.34237 0.0
C1602 C 0.21235 0.23971 0.3877 0.0
C1603 C 0.21777 0.23146 0.3609 0.0
C1604 C 0.22574 0.22213 0.34938 0.0
C1605 C 0.20417 0.25101 0.38187 0.0
C1606 C 0.20253 0.25229 0.36531 0.0
C1607 C 0.20927 0.24243 0.35504 0.0
C1608 C 0.19511 0.26493 0.35849 0.0
C1609 C 0.19802 0.26207 0.39354 0.0
C1610 C 0.17595 0.2608 0.36028 0.0
C1611 C 0.16953 0.27355 0.35451 0.0
C1612 C 0.18213 0.29057 0.34674 0.0
C1613 C 0.20109 0.29422 0.34453 0.0
C1614 C 0.20749 0.28152 0.35033 0.0
H1615 H 0.20433 0.26332 0.40587 0.0
H1616 H 0.20261 0.27764 0.39024 0.0
H1617 H 0.18181 0.25354 0.39341 0.0
H1618 H 0.16602 0.24782 0.36627 0.0
H1619 H 0.1548 0.27022 0.35637 0.0
H1620 H 0.62418 0.48512 0.73301 0.0
H1621 H 0.6524 0.51062 0.72074 0.0
H1622 H 0.65785 0.55764 0.75522 0.0
H1623 H 0.62938 0.53229 0.76744 0.0
H1624 H 0.65875 0.54795 0.70812 0.0
H1625 H 0.71235 0.56139 0.75923 0.0
H1626 H 0.68799 0.5393 0.75656 0.0
H1627 H 0.69155 0.56368 0.76385 0.0
C1628 C 0.63115 0.50093 0.73785 0.0
C1629 C 0.62454 0.50665 0.75126 0.0
C1630 C 0.64735 0.51545 0.73087 0.0
C1631 C 0.65733 0.53592 0.73723 0.0
C1632 C 0.65052 0.54183 0.75033 0.0
H1633 H 0.76571 0.6402 0.71363 0.0
H1634 H 0.73554 0.61779 0.72561 0.0
C1635 C 0.63428 0.52732 0.7573 0.0
C1636 C 0.67507 0.55097 0.73025 0.0
H1637 H 0.7247 0.5813 0.73783 0.0
C1638 C 0.67318 0.55529 0.7146 0.0
C1639 C 0.69382 0.56052 0.73879 0.0
C1640 C 0.6967 0.55594 0.7555 0.0
C1641 C 0.68959 0.56903 0.70724 0.0
C1642 C 0.70841 0.57829 0.71566 0.0
C1643 C 0.71025 0.57417 0.7314 0.0
C1644 C 0.72646 0.59191 0.70825 0.0
C1645 C 0.68658 0.57369 0.69059 0.0
C1646 C 0.73147 0.58468 0.69467 0.0
C1647 C 0.74861 0.59745 0.68779 0.0
C1648 C 0.7611 0.61759 0.69449 0.0
C1649 C 0.75625 0.62474 0.70821 0.0
C1650 C 0.73906 0.61198 0.71505 0.0
H1651 H 0.6713 0.57026 0.68768 0.0
H1652 H 0.69679 0.58995 0.68898 0.0
H1653 H 0.68942 0.5641 0.68198 0.0
H1654 H 0.72221 0.5691 0.68946 0.0
H1655 H 0.75212 0.59153 0.67729 0.0
H1656 H 0.49202 0.11148 0.76032 0.0
H1657 H 0.47056 0.12478 0.75275 0.0
H1658 H 0.43962 0.07486 0.71603 0.0
H1659 H 0.46025 0.0609 0.72401 0.0
H1660 H 0.46485 0.13781 0.72509 0.0
H1661 H 0.3949 0.07217 0.73872 0.0
H1662 H 0.41843 0.07527 0.74521 0.0
H1663 H 0.4074 0.06456 0.72528 0.0
C1664 C 0.48045 0.10315 0.75079 0.0
C1665 C 0.47782 0.08504 0.74284 0.0
C1666 C 0.4683 0.11086 0.7464 0.0
C1667 C 0.45324 0.10061 0.73402 0.0
C1668 C 0.45082 0.08277 0.72587 0.0
H1669 H 0.39444 0.1464 0.67579 0.0
H1670 H 0.41675 0.1366 0.68818 0.0
C1671 C 0.46286 0.07498 0.7303 0.0
C1672 C 0.44037 0.10879 0.7293 0.0
H1673 H 0.39236 0.09553 0.72232 0.0
C1674 C 0.44901 0.12865 0.72464 0.0
C1675 C 0.41971 0.097 0.72902 0.0
C1676 C 0.40957 0.07616 0.73499 0.0
C1677 C 0.43751 0.13674 0.7191 0.0
C1678 C 0.41682 0.12443 0.71783 0.0
C1679 C 0.40821 0.10488 0.72309 0.0
C1680 C 0.40379 0.13121 0.7106 0.0
C1681 C 0.44768 0.15842 0.71477 0.0
C1682 C 0.38873 0.13093 0.7189 0.0
C1683 C 0.37576 0.1362 0.71172 0.0
C1684 C 0.37765 0.14184 0.69613 0.0
C1685 C 0.39277 0.14226 0.68787 0.0
C1686 C 0.40562 0.13682 0.69499 0.0
H1687 H 0.46252 0.16762 0.72125 0.0
H1688 H 0.44949 0.15839 0.70186 0.0
H1689 H 0.43905 0.16594 0.71744 0.0
H1690 H 0.38696 0.12652 0.73091 0.0
H1691 H 0.36419 0.13576 0.71833 0.0
H1692 H 0.89248 0.39853 0.73775 0.0
H1693 H 0.87651 0.36185 0.72984 0.0
H1694 H 0.93014 0.37009 0.71261 0.0
H1695 H 0.94643 0.40655 0.72103 0.0
H1696 H 0.87068 0.34155 0.7001 0.0
H1697 H 0.91631 0.32488 0.74155 0.0
H1698 H 0.9161 0.34853 0.74358 0.0
H1699 H 0.93056 0.34485 0.72945 0.0
C1700 C 0.90095 0.39249 0.73247 0.0
C1701 C 0.92078 0.40548 0.73011 0.0
C1702 C 0.89176 0.37156 0.72786 0.0
C1703 C 0.90223 0.36321 0.72089 0.0
C1704 C 0.9219 0.37615 0.71827 0.0
H1705 H 0.88041 0.2485 0.67722 0.0
H1706 H 0.89295 0.28392 0.68741 0.0
C1707 C 0.93111 0.39705 0.7229 0.0
C1708 C 0.89254 0.34103 0.71602 0.0
H1709 H 0.8965 0.29888 0.72062 0.0
C1710 C 0.87617 0.33215 0.70471 0.0
C1711 C 0.89969 0.3288 0.72212 0.0
C1712 C 0.91651 0.33719 0.73496 0.0
C1713 C 0.86721 0.3115 0.69887 0.0
C1714 C 0.87476 0.29947 0.70463 0.0
C1715 C 0.89084 0.30822 0.71619 0.0
C1716 C 0.86671 0.27795 0.69833 0.0
C1717 C 0.85019 0.30284 0.68621 0.0
C1718 C 0.8478 0.26286 0.70121 0.0
C1719 C 0.84054 0.2425 0.69543 0.0
C1720 C 0.8521 0.23695 0.68667 0.0
C1721 C 0.87105 0.25219 0.68385 0.0
C1722 C 0.87829 0.27247 0.68968 0.0
H1723 H 0.84829 0.31495 0.68111 0.0
H1724 H 0.85225 0.29386 0.67645 0.0
H1725 H 0.8365 0.2924 0.69145 0.0
H1726 H 0.83875 0.2668 0.70805 0.0
H1727 H 0.82592 0.23116 0.69787 0.0
H1728 H 0.15953 0.93316 0.61669 0.0
H1729 H 0.17799 0.96927 0.6269 0.0
H1730 H 0.22963 0.9751 0.6073 0.0
H1731 H 0.21136 0.93908 0.59714 0.0
H1732 H 0.21132 0.98945 0.64813 0.0
H1733 H 0.22555 0.02208 0.59017 0.0
H1734 H 0.20752 0.99581 0.59196 0.0
H1735 H 0.23308 0.00357 0.59221 0.0
C1736 C 0.17483 0.94213 0.61459 0.0
C1737 C 0.18395 0.93329 0.60602 0.0
C1738 C 0.18532 0.96276 0.62036 0.0
C1739 C 0.20507 0.97493 0.61761 0.0
C1740 C 0.21426 0.96611 0.60921 0.0
H1741 H 0.29657 0.08711 0.66694 0.0
H1742 H 0.27315 0.05182 0.65704 0.0
C1743 C 0.2038 0.94551 0.60341 0.0
C1744 C 0.21631 0.99669 0.62397 0.0
H1745 H 0.24449 0.04478 0.61311 0.0
C1746 C 0.21843 0.00158 0.64047 0.0
C1747 C 0.22531 0.0125 0.61394 0.0
C1748 C 0.22261 0.00829 0.59608 0.0
C1749 C 0.22992 0.02183 0.64727 0.0
C1750 C 0.23979 0.03751 0.63729 0.0
C1751 C 0.23708 0.0327 0.62075 0.0
C1752 C 0.25353 0.05891 0.64377 0.0
C1753 C 0.23137 0.02623 0.66505 0.0
C1754 C 0.25048 0.07468 0.63935 0.0
C1755 C 0.26395 0.09497 0.6449 0.0
C1756 C 0.28078 0.09984 0.65492 0.0
C1757 C 0.28373 0.08395 0.65934 0.0
C1758 C 0.27027 0.06371 0.65377 0.0
H1759 H 0.21869 0.01397 0.67032 0.0
H1760 H 0.2449 0.02712 0.67046 0.0
H1761 H 0.23211 0.04099 0.66826 0.0
H1762 H 0.2377 0.07129 0.63154 0.0
H1763 H 0.26124 0.1068 0.64121 0.0
H1764 H 0.05405 0.27871 0.60598 0.0
H1765 H 0.02162 0.2639 0.61572 0.0
H1766 H 0.00783 0.20417 0.59589 0.0
H1767 H 0.04036 0.21891 0.58608 0.0
H1768 H 0.97749 0.21232 0.58986 0.0
H1769 H 0.00477 0.23019 0.65372 0.0
H1770 H 0.0156 0.25209 0.64269 0.0
H1771 H 0.0201 0.23144 0.63824 0.0
C1772 C 0.04419 0.26239 0.60381 0.0
C1773 C 0.04985 0.24995 0.5954 0.0
C1774 C 0.02567 0.25395 0.60938 0.0
C1775 C 0.01248 0.23289 0.60679 0.0
C1776 C 0.01785 0.22045 0.59808 0.0
H1777 H 0.90863 0.17433 0.65879 0.0
H1778 H 0.93906 0.1829 0.64682 0.0
C1779 C 0.0364 0.2289 0.59245 0.0
C1780 C 0.99305 0.22396 0.61315 0.0
H1781 H 0.97124 0.22028 0.6475 0.0
C1782 C 0.97608 0.21389 0.60247 0.0
C1783 C 0.99125 0.22573 0.62962 0.0
C1784 C 0.00889 0.23526 0.64176 0.0
C1785 C 0.95734 0.20615 0.6078 0.0
C1786 C 0.95562 0.20891 0.6242 0.0
C1787 C 0.97258 0.21836 0.63491 0.0
C1788 C 0.93647 0.20254 0.63055 0.0
C1789 C 0.93959 0.19502 0.59584 0.0
C1790 C 0.92492 0.21074 0.62539 0.0
C1791 C 0.90752 0.2058 0.63217 0.0
C1792 C 0.90152 0.19277 0.64434 0.0
C1793 C 0.91296 0.18442 0.64942 0.0
C1794 C 0.93032 0.18931 0.64259 0.0
H1795 H 0.94293 0.18882 0.58498 0.0
H1796 H 0.9272 0.18226 0.60096 0.0
H1797 H 0.93486 0.2058 0.59221 0.0
H1798 H 0.9296 0.22136 0.61639 0.0
H1799 H 0.89897 0.21248 0.62808 0.0
H1800 H 0.80491 0.84536 0.61773 0.0
H1801 H 0.80817 0.81946 0.63106 0.0
H1802 H 0.75577 0.77218 0.60372 0.0
H1803 H 0.75233 0.79807 0.5903 0.0
H1804 H 0.78337 0.78759 0.64887 0.0
H1805 H 0.7984 0.75886 0.59243 0.0
H1806 H 0.79835 0.78258 0.59461 0.0
H1807 H 0.77559 0.75874 0.59185 0.0
C1808 C 0.79381 0.82949 0.61477 0.0
C1809 C 0.77842 0.82377 0.60287 0.0
C1810 C 0.79575 0.8147 0.62237 0.0
C1811 C 0.78239 0.79392 0.61819 0.0
C1812 C 0.76644 0.78814 0.60689 0.0
H1813 H 0.78613 0.69641 0.66623 0.0
H1814 H 0.77542 0.71912 0.65611 0.0
C1815 C 0.76451 0.80294 0.59924 0.0
C1816 C 0.78598 0.77844 0.62499 0.0
H1817 H 0.7985 0.74253 0.61515 0.0
C1818 C 0.78653 0.7776 0.64152 0.0
C1819 C 0.79035 0.76566 0.61534 0.0
C1820 C 0.79083 0.76653 0.59759 0.0
C1821 C 0.79155 0.76443 0.64869 0.0
C1822 C 0.7959 0.75165 0.63903 0.0
C1823 C 0.79507 0.7523 0.62249 0.0
C1824 C 0.80245 0.73829 0.64581 0.0
C1825 C 0.79285 0.7648 0.66657 0.0
C1826 C 0.8211 0.74143 0.64324 0.0
C1827 C 0.82723 0.72847 0.64891 0.0
C1828 C 0.81479 0.71201 0.65725 0.0
C1829 C 0.79614 0.709 0.65995 0.0
C1830 C 0.79001 0.72201 0.65423 0.0
H1831 H 0.79309 0.77842 0.6724 0.0
H1832 H 0.7799 0.75099 0.67005 0.0
H1833 H 0.8062 0.76466 0.67113 0.0
H1834 H 0.8309 0.75389 0.63673 0.0
H1835 H 0.84166 0.73126 0.64657 0.0
H1836 H 0.06248 0.7883 0.6195 0.0
H1837 H 0.02914 0.77154 0.62753 0.0
H1838 H 0.01062 0.79382 0.58845 0.0
H1839 H 0.04402 0.81066 0.58029 0.0
H1840 H 0.99694 0.79897 0.61692 0.0
H1841 H 0.98199 0.71974 0.60544 0.0
H1842 H 0.00398 0.7358 0.61828 0.0
H1843 H 0.00243 0.74117 0.59801 0.0
C1844 C 0.05127 0.78944 0.61249 0.0
C1845 C 0.05586 0.80066 0.59917 0.0
C1846 C 0.03222 0.77985 0.6171 0.0
C1847 C 0.01733 0.78114 0.60842 0.0
C1848 C 0.02189 0.79257 0.59526 0.0
H1849 H 0.89399 0.70215 0.62224 0.0
H1850 H 0.92509 0.72092 0.61043 0.0
C1851 C 0.04098 0.80223 0.59065 0.0
C1852 C 0.9971 0.77079 0.61328 0.0
H1853 H 0.95966 0.72431 0.62064 0.0
C1854 C 0.9887 0.78263 0.61762 0.0
C1855 C 0.98627 0.74942 0.61393 0.0
C1856 C 0.99403 0.73575 0.60852 0.0
C1857 C 0.96996 0.77374 0.62309 0.0
C1858 C 0.95955 0.75251 0.62451 0.0
C1859 C 0.96773 0.74061 0.61969 0.0
C1860 C 0.94034 0.7423 0.63125 0.0
C1861 C 0.96146 0.78713 0.62719 0.0
C1862 C 0.93856 0.74814 0.64685 0.0
C1863 C 0.92079 0.73751 0.65358 0.0
C1864 C 0.90459 0.72073 0.64487 0.0
C1865 C 0.90628 0.71505 0.6292 0.0
C1866 C 0.92402 0.72574 0.62246 0.0
H1867 H 0.96832 0.80126 0.62102 0.0
H1868 H 0.94537 0.77894 0.62399 0.0
H1869 H 0.96429 0.79171 0.64018 0.0
H1870 H 0.95107 0.76056 0.65399 0.0
H1871 H 0.91988 0.7421 0.66572 0.0
H1872 H 0.19552 0.25558 0.57274 0.0
H1873 H 0.21454 0.23997 0.58145 0.0
H1874 H 0.1775 0.21541 0.61938 0.0
H1875 H 0.15846 0.23104 0.6108 0.0
H1876 H 0.23526 0.24794 0.6109 0.0
H1877 H 0.17897 0.16588 0.59963 0.0
H1878 H 0.17614 0.18559 0.59113 0.0
H1879 H 0.17137 0.18066 0.61141 0.0
C1880 C 0.19139 0.24682 0.58292 0.0
C1881 C 0.17548 0.24456 0.59109 0.0
C1882 C 0.20221 0.23782 0.58782 0.0
C1883 C 0.19727 0.2263 0.60093 0.0
C1884 C 0.18128 0.22383 0.60901 0.0
H1885 H 0.24964 0.17297 0.65857 0.0
H1886 H 0.22865 0.18443 0.64604 0.0
C1887 C 0.17043 0.23279 0.6041 0.0
C1888 C 0.20962 0.21802 0.60676 0.0
H1889 H 0.20841 0.17405 0.61523 0.0
C1890 C 0.22945 0.23177 0.61171 0.0
C1891 C 0.20197 0.19692 0.60784 0.0
C1892 C 0.18099 0.18137 0.60209 0.0
C1893 C 0.24173 0.22507 0.61812 0.0
C1894 C 0.23404 0.204 0.61935 0.0
C1895 C 0.21425 0.1902 0.61426 0.0
C1896 C 0.2462 0.1961 0.62633 0.0
C1897 C 0.26268 0.24067 0.62397 0.0
C1898 C 0.26276 0.19848 0.61919 0.0
C1899 C 0.27478 0.19199 0.62634 0.0
C1900 C 0.27033 0.18293 0.64067 0.0
C1901 C 0.25342 0.17998 0.64754 0.0
C1902 C 0.24142 0.18648 0.6404 0.0
H1903 H 0.26495 0.25634 0.62558 0.0
H1904 H 0.26705 0.23702 0.63545 0.0
H1905 H 0.27253 0.24055 0.61515 0.0
H1906 H 0.26649 0.20552 0.60817 0.0
H1907 H 0.28767 0.1943 0.62075 0.0
H1908 H 0.75464 0.95305 0.58776 0.0
H1909 H 0.75458 0.98272 0.60075 0.0
H1910 H 0.81148 0.00288 0.62506 0.0
H1911 H 0.81139 0.97306 0.61257 0.0
H1912 H 0.78564 0.00701 0.64441 0.0
H1913 H 0.789 0.04014 0.58694 0.0
H1914 H 0.7687 0.01487 0.588 0.0
H1915 H 0.79322 0.01911 0.58894 0.0
C1916 C 0.76699 0.96364 0.59607 0.0
C1917 C 0.78314 0.96085 0.59899 0.0
C1918 C 0.767 0.98066 0.60337 0.0
C1919 C 0.78317 0.99515 0.61365 0.0
C1920 C 0.79891 0.99194 0.61708 0.0
H1921 H 0.8353 0.12172 0.6396 0.0
H1922 H 0.82433 0.0869 0.62891 0.0
C1923 C 0.79891 0.97498 0.60983 0.0
C1924 C 0.78436 0.01423 0.62033 0.0
H1925 H 0.79007 0.0595 0.61002 0.0
C1926 C 0.78637 0.01842 0.63692 0.0
C1927 C 0.78548 0.02912 0.61049 0.0
C1928 C 0.78415 0.02576 0.5926 0.0
C1929 C 0.79005 0.03734 0.64395 0.0
C1930 C 0.79148 0.05233 0.63409 0.0
C1931 C 0.78886 0.0479 0.61752 0.0
C1932 C 0.79759 0.07337 0.64065 0.0
C1933 C 0.79333 0.04151 0.66182 0.0
C1934 C 0.78609 0.07736 0.65072 0.0
C1935 C 0.79238 0.09735 0.65696 0.0
C1936 C 0.81025 0.11368 0.65318 0.0
C1937 C 0.82154 0.10957 0.64289 0.0
C1938 C 0.81526 0.08965 0.6367 0.0
H1939 H 0.79533 0.0298 0.66752 0.0
H1940 H 0.80642 0.05673 0.66544 0.0
H1941 H 0.78043 0.04149 0.66641 0.0
H1942 H 0.77223 0.06503 0.65369 0.0
H1943 H 0.78326 0.09999 0.66475 0.0
H1944 H 0.50555 0.36587 0.72597 0.0
H1945 H 0.47618 0.33683 0.71198 0.0
H1946 H 0.43994 0.35025 0.74091 0.0
H1947 H 0.46932 0.37892 0.75541 0.0
H1948 H 0.43049 0.31096 0.74062 0.0
H1949 H 0.43481 0.33157 0.67881 0.0
H1950 H 0.45719 0.33352 0.68684 0.0
H1951 H 0.44918 0.34999 0.69552 0.0
C1952 C 0.49133 0.36273 0.72931 0.0
C1953 C 0.48979 0.37465 0.74188 0.0
C1954 C 0.47453 0.34629 0.72113 0.0
C1955 C 0.45584 0.34154 0.72523 0.0
C1956 C 0.45422 0.35376 0.73746 0.0
H1957 H 0.35017 0.23718 0.67381 0.0
H1958 H 0.37415 0.27193 0.68522 0.0
C1959 C 0.47103 0.37021 0.74567 0.0
C1960 C 0.43823 0.32262 0.71788 0.0
H1961 H 0.41471 0.29575 0.68217 0.0
C1962 C 0.42686 0.30778 0.72785 0.0
C1963 C 0.43331 0.31855 0.70124 0.0
C1964 C 0.44415 0.33436 0.69 0.0
C1965 C 0.41135 0.28861 0.72158 0.0
C1966 C 0.40736 0.28403 0.70491 0.0
C1967 C 0.418 0.29921 0.69495 0.0
C1968 C 0.393 0.2632 0.69765 0.0
C1969 C 0.39956 0.27332 0.73289 0.0
C1970 C 0.39592 0.24691 0.70059 0.0
C1971 C 0.38233 0.22712 0.69414 0.0
C1972 C 0.36556 0.2232 0.68448 0.0
C1973 C 0.36289 0.23964 0.68122 0.0
C1974 C 0.37656 0.25951 0.68772 0.0
H1975 H 0.40036 0.28097 0.74474 0.0
H1976 H 0.38393 0.26385 0.72815 0.0
H1977 H 0.40557 0.26306 0.73459 0.0
H1978 H 0.40874 0.2495 0.70793 0.0
H1979 H 0.38497 0.2149 0.69685 0.0
H1980 H 0.60661 0.06089 0.73322 0.0
H1981 H 0.63949 0.07704 0.72438 0.0
H1982 H 0.65028 0.13581 0.74389 0.0
H1983 H 0.61765 0.11965 0.75346 0.0
H1984 H 0.6549 0.10563 0.70351 0.0
H1985 H 0.69858 0.13533 0.76221 0.0
H1986 H 0.67267 0.11691 0.76015 0.0
H1987 H 0.68106 0.14346 0.7587 0.0
C1988 C 0.61607 0.07721 0.73593 0.0
C1989 C 0.60951 0.08893 0.74418 0.0
C1990 C 0.63482 0.08643 0.73073 0.0
C1991 C 0.64744 0.10758 0.73366 0.0
C1992 C 0.64093 0.11941 0.74177 0.0
H1993 H 0.75132 0.17243 0.68211 0.0
H1994 H 0.71992 0.16114 0.69331 0.0
C1995 C 0.62218 0.11017 0.74706 0.0
C1996 C 0.66712 0.11718 0.7277 0.0
H1997 H 0.71618 0.14516 0.73944 0.0
C1998 C 0.66831 0.11431 0.71136 0.0
C1999 C 0.68458 0.12831 0.738 0.0
C2000 C 0.68425 0.13107 0.75576 0.0
C2001 C 0.68646 0.12216 0.70501 0.0
C2002 C 0.70393 0.13362 0.71525 0.0
C2003 C 0.70276 0.13655 0.7316 0.0
C2004 C 0.72353 0.14181 0.7093 0.0
C2005 C 0.68675 0.11753 0.68746 0.0
C2006 C 0.73631 0.13535 0.71505 0.0
C2007 C 0.75432 0.14197 0.7088 0.0
C2008 C 0.75981 0.15513 0.69671 0.0
C2009 C 0.74733 0.16214 0.69134 0.0
C2010 C 0.72937 0.15561 0.69766 0.0
H2011 H 0.67252 0.10445 0.68215 0.0
H2012 H 0.6896 0.13105 0.68123 0.0
H2013 H 0.69852 0.11401 0.68527 0.0
H2014 H 0.73214 0.12478 0.72408 0.0
H2015 H 0.76373 0.13642 0.7132 0.0
H2016 H 0.91236 0.52374 0.70509 0.0
H2017 H 0.89633 0.54202 0.69542 0.0
H2018 H 0.907 0.57341 0.74217 0.0
H2019 H 0.92308 0.55524 0.75193 0.0
H2020 H 0.86403 0.54397 0.70506 0.0
H2021 H 0.93181 0.62 0.71379 0.0
H2022 H 0.93218 0.59652 0.71455 0.0
H2023 H 0.92572 0.60675 0.73136 0.0
C2024 C 0.91113 0.5344 0.71335 0.0
C2025 C 0.91912 0.53818 0.72925 0.0
C2026 C 0.90202 0.54486 0.70779 0.0
C2027 C 0.90078 0.5593 0.71802 0.0
C2028 C 0.90821 0.56267 0.734 0.0
H2029 H 0.83005 0.61589 0.69992 0.0
H2030 H 0.84281 0.59461 0.70948 0.0
C2031 C 0.91739 0.55228 0.73955 0.0
C2032 C 0.89196 0.57105 0.71187 0.0
H2033 H 0.90218 0.6194 0.70653 0.0
C2034 C 0.87234 0.56046 0.70535 0.0
C2035 C 0.90295 0.59253 0.71209 0.0
C2036 C 0.92438 0.60464 0.71818 0.0
C2037 C 0.86334 0.57083 0.69916 0.0
C2038 C 0.87419 0.59236 0.69977 0.0
C2039 C 0.89385 0.6029 0.70619 0.0
C2040 C 0.86569 0.60434 0.6935 0.0
C2041 C 0.84245 0.55864 0.69173 0.0
C2042 C 0.87448 0.61705 0.6815 0.0
C2043 C 0.86736 0.62935 0.67612 0.0
C2044 C 0.85128 0.62918 0.68264 0.0
C2045 C 0.84232 0.61622 0.69452 0.0
C2046 C 0.84954 0.60398 0.69996 0.0
H2047 H 0.838 0.54242 0.68851 0.0
H2048 H 0.83251 0.559 0.70036 0.0
H2049 H 0.84043 0.56518 0.6809 0.0
H2050 H 0.88699 0.61759 0.67638 0.0
H2051 H 0.8746 0.63912 0.66693 0.0
H2052 H 0.49472 0.96005 0.1695 0.0
H2053 H 0.50043 0.96764 0.14197 0.0
H2054 H 0.45449 0.98259 0.13951 0.0
H2055 H 0.44862 0.97494 0.16707 0.0
H2056 H 0.47509 0.95127 0.11372 0.0
H2057 H 0.50222 0.03407 0.1269 0.0
H2058 H 0.49946 0.01764 0.14231 0.0
H2059 H 0.47835 0.01735 0.13302 0.0
C2060 C 0.48564 0.96468 0.16305 0.0
C2061 C 0.47128 0.967 0.17051 0.0
C2062 C 0.48899 0.96911 0.14734 0.0
C2063 C 0.47811 0.976 0.13881 0.0
C2064 C 0.46334 0.97772 0.14602 0.0
H2065 H 0.48654 0.0165 0.04368 0.0
H2066 H 0.47613 0.00598 0.07002 0.0
C2067 C 0.46 0.97334 0.16175 0.0
C2068 C 0.48251 0.98168 0.12245 0.0
H2069 H 0.49938 0.02201 0.09998 0.0
C2070 C 0.48038 0.96672 0.1107 0.0
C2071 C 0.48939 0.00186 0.11857 0.0
C2072 C 0.49267 0.01874 0.13086 0.0
C2073 C 0.48493 0.9714 0.09513 0.0
C2074 C 0.49206 0.99163 0.09132 0.0
C2075 C 0.4939 0.00652 0.10299 0.0
C2076 C 0.49822 0.99779 0.07539 0.0
C2077 C 0.48191 0.95466 0.08282 0.0
C2078 C 0.51426 0.99696 0.06986 0.0
C2079 C 0.52018 0.00292 0.05487 0.0
C2080 C 0.5101 0.00973 0.04519 0.0
C2081 C 0.4943 0.01094 0.05085 0.0
C2082 C 0.48842 0.00504 0.06587 0.0
H2083 H 0.47197 0.93928 0.08654 0.0
H2084 H 0.47572 0.9561 0.07121 0.0
H2085 H 0.49625 0.95585 0.0811 0.0
H2086 H 0.52224 0.99177 0.07716 0.0
H2087 H 0.53243 0.00188 0.05075 0.0
H2088 H 0.08626 0.53715 0.15321 0.0
H2089 H 0.06562 0.52426 0.12808 0.0
H2090 H 0.01433 0.49207 0.1533 0.0
H2091 H 0.03492 0.50544 0.17869 0.0
H2092 H 0.03964 0.48297 0.11556 0.0
H2093 H 0.00116 0.52689 0.12476 0.0
H2094 H 0.02343 0.53312 0.13662 0.0
H2095 H 0.00068 0.5111 0.13995 0.0
C2096 C 0.07056 0.52752 0.15346 0.0
C2097 C 0.0622 0.52254 0.16796 0.0
C2098 C 0.05882 0.52001 0.13908 0.0
C2099 C 0.03846 0.50739 0.13885 0.0
C2100 C 0.03 0.50201 0.15325 0.0
H2101 H 0.9625 0.47681 0.04938 0.0
H2102 H 0.97179 0.47527 0.07727 0.0
C2103 C 0.04179 0.50953 0.16772 0.0
C2104 C 0.02635 0.50032 0.1234 0.0
H2105 H 0.99537 0.50886 0.09977 0.0
C2106 C 0.0297 0.48833 0.11217 0.0
C2107 C 0.01328 0.50722 0.11907 0.0
C2108 C 0.00941 0.52039 0.13064 0.0
C2109 C 0.02106 0.48388 0.09649 0.0
C2110 C 0.00902 0.4919 0.09189 0.0
C2111 C 0.00465 0.50277 0.10336 0.0
C2112 C 0.003 0.4915 0.07497 0.0
C2113 C 0.02539 0.47115 0.08485 0.0
C2114 C 0.01746 0.50137 0.0646 0.0
C2115 C 0.01223 0.50237 0.04886 0.0
C2116 C 0.99241 0.49351 0.04315 0.0
C2117 C 0.97787 0.48364 0.0535 0.0
C2118 C 0.98315 0.48272 0.06937 0.0
H2119 H 0.02897 0.46075 0.09102 0.0
H2120 H 0.01279 0.46192 0.07578 0.0
H2121 H 0.0383 0.48136 0.07865 0.0
H2122 H 0.03287 0.50876 0.0688 0.0
H2123 H 0.02377 0.51046 0.04126 0.0
H2124 H 0.50857 0.53088 0.17672 0.0
H2125 H 0.51195 0.52873 0.14825 0.0
H2126 H 0.45254 0.47828 0.14013 0.0
H2127 H 0.44901 0.48043 0.16867 0.0
H2128 H 0.50875 0.49625 0.12945 0.0
H2129 H 0.45332 0.51592 0.1075 0.0
H2130 H 0.46232 0.52013 0.12821 0.0
H2131 H 0.44437 0.49495 0.11955 0.0
C2132 C 0.49622 0.51931 0.16888 0.0
C2133 C 0.47853 0.50581 0.17493 0.0
C2134 C 0.49815 0.51815 0.15261 0.0
C2135 C 0.48243 0.50351 0.14205 0.0
C2136 C 0.46472 0.48999 0.14802 0.0
H2137 H 0.47997 0.47972 0.03883 0.0
H2138 H 0.47114 0.47646 0.06635 0.0
C2139 C 0.46274 0.49121 0.16432 0.0
C2140 C 0.48502 0.50207 0.1249 0.0
H2141 H 0.46898 0.50712 0.08809 0.0
C2142 C 0.50002 0.49858 0.12041 0.0
C2143 C 0.4735 0.50496 0.11311 0.0
C2144 C 0.45757 0.50937 0.11728 0.0
C2145 C 0.50404 0.49823 0.1045 0.0
C2146 C 0.49289 0.50166 0.0928 0.0
C2147 C 0.47748 0.50451 0.09715 0.0
C2148 C 0.49789 0.50362 0.07616 0.0
C2149 C 0.52026 0.4943 0.10032 0.0
C2150 C 0.51569 0.52009 0.07262 0.0
C2151 C 0.52062 0.5221 0.05698 0.0
C2152 C 0.5078 0.50771 0.04461 0.0
C2153 C 0.48996 0.49119 0.04814 0.0
C2154 C 0.48496 0.48926 0.06382 0.0
H2155 H 0.52404 0.48698 0.10978 0.0
H2156 H 0.51607 0.4844 0.08895 0.0
H2157 H 0.53359 0.50902 0.09884 0.0
H2158 H 0.52574 0.53146 0.08198 0.0
H2159 H 0.53444 0.535 0.05456 0.0
H2160 H 0.00768 0.52361 0.82619 0.0
H2161 H 0.01228 0.52413 0.85505 0.0
H2162 H 0.94976 0.48675 0.85642 0.0
H2163 H 0.94505 0.48546 0.82752 0.0
H2164 H 0.99773 0.5377 0.8794 0.0
H2165 H 0.97092 0.45478 0.87908 0.0
H2166 H 0.97696 0.46779 0.86128 0.0
H2167 H 0.95399 0.46071 0.86923 0.0
C2168 C 0.99491 0.51533 0.83261 0.0
C2169 C 0.97601 0.50434 0.82452 0.0
C2170 C 0.99756 0.51579 0.84911 0.0
C2171 C 0.98139 0.50523 0.85782 0.0
C2172 C 0.96246 0.49471 0.84987 0.0
H2173 H 0.97209 0.48546 0.95803 0.0
H2174 H 0.9651 0.48818 0.93002 0.0
C2175 C 0.9598 0.49418 0.83337 0.0
C2176 C 0.98438 0.50506 0.87522 0.0
H2177 H 0.978 0.4735 0.90422 0.0
C2178 C 0.99343 0.52368 0.88484 0.0
C2179 C 0.97875 0.48673 0.88226 0.0
C2180 C 0.96978 0.46637 0.87245 0.0
C2181 C 0.99689 0.52443 0.90137 0.0
C2182 C 0.99135 0.50612 0.90837 0.0
C2183 C 0.98213 0.4875 0.89878 0.0
C2184 C 0.9956 0.50592 0.92556 0.0
C2185 C 0.00625 0.54475 0.91125 0.0
C2186 C 0.01505 0.51501 0.93229 0.0
C2187 C 0.01908 0.51346 0.94825 0.0
C2188 C 0.00369 0.50276 0.9577 0.0
C2189 C 0.98422 0.49392 0.95102 0.0
C2190 C 0.98021 0.49542 0.93504 0.0
H2191 H 0.00515 0.55647 0.90475 0.0
H2192 H 0.99931 0.54336 0.92254 0.0
H2193 H 0.02202 0.55016 0.91426 0.0
H2194 H 0.02713 0.52286 0.92509 0.0
H2195 H 0.03421 0.52036 0.95313 0.0
H2196 H 0.55612 0.46828 0.85816 0.0
H2197 H 0.54515 0.47908 0.88139 0.0
H2198 H 0.50068 0.48124 0.85128 0.0
H2199 H 0.51152 0.4703 0.82789 0.0
H2200 H 0.54024 0.51689 0.88532 0.0
H2201 H 0.4728 0.44131 0.88746 0.0
H2202 H 0.49368 0.44377 0.87789 0.0
H2203 H 0.47828 0.45207 0.8687 0.0
C2204 C 0.54397 0.471 0.85648 0.0
C2205 C 0.53458 0.46832 0.84124 0.0
C2206 C 0.53782 0.47728 0.86973 0.0
C2207 C 0.52207 0.48082 0.86799 0.0
C2208 C 0.51282 0.47848 0.8528 0.0
H2209 H 0.46295 0.49762 0.9475 0.0
H2210 H 0.47101 0.49376 0.92035 0.0
C2211 C 0.51908 0.47235 0.83949 0.0
C2212 C 0.5152 0.48652 0.88225 0.0
H2213 H 0.48007 0.46668 0.90814 0.0
C2214 C 0.52698 0.50604 0.89025 0.0
C2215 C 0.49783 0.47233 0.88851 0.0
C2216 C 0.48485 0.45113 0.88031 0.0
C2217 C 0.52203 0.51163 0.90463 0.0
C2218 C 0.50516 0.49709 0.91135 0.0
C2219 C 0.493 0.47781 0.903 0.0
C2220 C 0.50064 0.50096 0.92754 0.0
C2221 C 0.53499 0.53305 0.91248 0.0
C2222 C 0.51449 0.50607 0.94059 0.0
C2223 C 0.50994 0.50845 0.95598 0.0
C2224 C 0.49145 0.50556 0.9587 0.0
C2225 C 0.47746 0.50021 0.94569 0.0
C2226 C 0.48204 0.498 0.93022 0.0
H2227 H 0.54264 0.54388 0.90358 0.0
H2228 H 0.52646 0.53845 0.91916 0.0
H2229 H 0.54638 0.53334 0.9209 0.0
H2230 H 0.52864 0.50758 0.93894 0.0
H2231 H 0.52052 0.51149 0.96576 0.0
H2232 H 0.49115 0.03014 0.83336 0.0
H2233 H 0.48783 0.02341 0.86128 0.0
H2234 H 0.54366 0.02604 0.86476 0.0
H2235 H 0.54703 0.03261 0.83672 0.0
H2236 H 0.51068 0.99053 0.87665 0.0
H2237 H 0.5201 0.06465 0.90106 0.0
H2238 H 0.50292 0.05257 0.88371 0.0
H2239 H 0.52846 0.06138 0.88223 0.0
C2240 C 0.50271 0.02927 0.84006 0.0
C2241 C 0.51935 0.0319 0.83287 0.0
C2242 C 0.50087 0.0256 0.85603 0.0
C2243 C 0.5156 0.02445 0.86507 0.0
C2244 C 0.53222 0.02703 0.85796 0.0
H2245 H 0.51543 0.9887 0.96194 0.0
H2246 H 0.52467 0.99836 0.93521 0.0
C2247 C 0.53416 0.03086 0.842 0.0
C2248 C 0.5132 0.01984 0.88181 0.0
H2249 H 0.50821 0.03799 0.91804 0.0
C2250 C 0.51034 0.00095 0.88578 0.0
C2251 C 0.51275 0.0335 0.89361 0.0
C2252 C 0.51638 0.05425 0.89004 0.0
C2253 C 0.50623 0.99498 0.90116 0.0
C2254 C 0.50542 0.00851 0.91292 0.0
C2255 C 0.50879 0.02762 0.909 0.0
C2256 C 0.50021 0.00283 0.92916 0.0
C2257 C 0.502 0.97395 0.90449 0.0
C2258 C 0.4837 0.0026 0.93475 0.0
C2259 C 0.47871 0.99756 0.95008 0.0
C2260 C 0.4902 0.99275 0.96013 0.0
C2261 C 0.50661 0.99279 0.95452 0.0
C2262 C 0.5117 0.99799 0.93919 0.0
H2263 H 0.49844 0.96377 0.89336 0.0
H2264 H 0.51514 0.97515 0.911 0.0
H2265 H 0.48959 0.96676 0.91197 0.0
H2266 H 0.47464 0.00631 0.92722 0.0
H2267 H 0.46598 0.99766 0.95414 0.0
H2268 H 0.11177 0.30649 0.49915 0.0
H2269 H 0.11684 0.31376 0.47142 0.0
H2270 H 0.1619 0.29752 0.47272 0.0
H2271 H 0.15698 0.29029 0.50036 0.0
H2272 H 0.15088 0.3425 0.46011 0.0
H2273 H 0.12846 0.26553 0.43179 0.0
H2274 H 0.12257 0.26966 0.45149 0.0
H2275 H 0.14648 0.27344 0.44846 0.0
C2276 C 0.12269 0.30438 0.49349 0.0
C2277 C 0.13393 0.29774 0.50194 0.0
C2278 C 0.12551 0.30846 0.47765 0.0
C2279 C 0.13953 0.30588 0.46994 0.0
C2280 C 0.15065 0.29911 0.4783 0.0
H2281 H 0.19628 0.33558 0.38386 0.0
H2282 H 0.18548 0.32571 0.41017 0.0
C2283 C 0.14782 0.29499 0.49411 0.0
C2284 C 0.14348 0.31151 0.45351 0.0
H2285 H 0.14689 0.29354 0.41659 0.0
C2286 C 0.14978 0.33174 0.45054 0.0
C2287 C 0.142 0.29743 0.44105 0.0
C2288 C 0.13432 0.27525 0.44329 0.0
C2289 C 0.15537 0.33848 0.43557 0.0
C2290 C 0.15443 0.32454 0.42327 0.0
C2291 C 0.1477 0.3042 0.42612 0.0
C2292 C 0.16101 0.33093 0.40749 0.0
C2293 C 0.16287 0.36059 0.43318 0.0
C2294 C 0.15082 0.33715 0.39733 0.0
C2295 C 0.15702 0.34286 0.38234 0.0
C2296 C 0.17337 0.34225 0.37728 0.0
C2297 C 0.18367 0.33624 0.38752 0.0
C2298 C 0.17746 0.3305 0.40248 0.0
H2299 H 0.16614 0.37013 0.44462 0.0
H2300 H 0.17637 0.36683 0.42685 0.0
H2301 H 0.1516 0.36184 0.42575 0.0
H2302 H 0.13797 0.33736 0.40092 0.0
H2303 H 0.14892 0.34755 0.37464 0.0
H2304 H 0.75857 0.86117 0.48702 0.0
H2305 H 0.73978 0.85267 0.4611 0.0
H2306 H 0.69443 0.85839 0.48288 0.0
H2307 H 0.71322 0.86705 0.50891 0.0
H2308 H 0.68029 0.82379 0.46003 0.0
H2309 H 0.73475 0.8956 0.43688 0.0
H2310 H 0.74482 0.88093 0.44463 0.0
H2311 H 0.73466 0.89191 0.45776 0.0
C2312 C 0.74464 0.86071 0.4863 0.0
C2313 C 0.73749 0.86503 0.49999 0.0
C2314 C 0.73391 0.85581 0.47149 0.0
C2315 C 0.71589 0.85524 0.47006 0.0
C2316 C 0.70835 0.85883 0.48375 0.0
H2317 H 0.65898 0.86392 0.38342 0.0
H2318 H 0.67395 0.86813 0.4104 0.0
C2319 C 0.71907 0.86371 0.49861 0.0
C2320 C 0.70521 0.85146 0.45421 0.0
H2321 H 0.70914 0.87089 0.41839 0.0
C2322 C 0.68654 0.83407 0.45091 0.0
C2323 C 0.71333 0.86508 0.44244 0.0
C2324 C 0.73291 0.88453 0.44559 0.0
C2325 C 0.67586 0.82977 0.43601 0.0
C2326 C 0.68425 0.8431 0.4241 0.0
C2327 C 0.70282 0.86061 0.4275 0.0
C2328 C 0.6739 0.8396 0.40812 0.0
C2329 C 0.65559 0.81125 0.43326 0.0
C2330 C 0.66879 0.82208 0.39792 0.0
C2331 C 0.66007 0.81958 0.38251 0.0
C2332 C 0.65663 0.83468 0.37705 0.0
C2333 C 0.66144 0.85201 0.38736 0.0
C2334 C 0.67006 0.85447 0.40274 0.0
H2335 H 0.6494 0.8057 0.44463 0.0
H2336 H 0.64543 0.8146 0.42626 0.0
H2337 H 0.65634 0.79876 0.42646 0.0
H2338 H 0.67189 0.81055 0.40175 0.0
H2339 H 0.65613 0.80593 0.37486 0.0
H2340 H 0.15082 0.81003 0.5094 0.0
H2341 H 0.15697 0.81071 0.48134 0.0
H2342 H 0.15142 0.86413 0.47896 0.0
H2343 H 0.14587 0.86396 0.50712 0.0
H2344 H 0.13351 0.80868 0.45454 0.0
H2345 H 0.20471 0.88146 0.462 0.0
H2346 H 0.19326 0.86748 0.47856 0.0
H2347 H 0.18487 0.88314 0.46993 0.0
C2348 C 0.15106 0.82203 0.50294 0.0
C2349 C 0.14797 0.83701 0.51053 0.0
C2350 C 0.15446 0.82231 0.48689 0.0
C2351 C 0.15495 0.83765 0.47816 0.0
C2352 C 0.15145 0.85237 0.48557 0.0
H2353 H 0.14813 0.8397 0.37579 0.0
H2354 H 0.14173 0.83753 0.40377 0.0
C2355 C 0.14804 0.8521 0.50162 0.0
C2356 C 0.15903 0.83817 0.46125 0.0
H2357 H 0.19101 0.86765 0.4355 0.0
C2358 C 0.14611 0.82153 0.45036 0.0
C2359 C 0.17562 0.85484 0.4559 0.0
C2360 C 0.19053 0.87268 0.46721 0.0
C2361 C 0.14914 0.82127 0.43417 0.0
C2362 C 0.16537 0.83825 0.42873 0.0
C2363 C 0.17849 0.85473 0.43968 0.0
C2364 C 0.16903 0.83923 0.41172 0.0
C2365 C 0.13509 0.80269 0.42309 0.0
C2366 C 0.18673 0.84155 0.40694 0.0
C2367 C 0.19025 0.84262 0.39091 0.0
C2368 C 0.17606 0.84123 0.37943 0.0
C2369 C 0.15866 0.83952 0.38427 0.0
C2370 C 0.15515 0.83853 0.40029 0.0
H2371 H 0.12685 0.78909 0.42965 0.0
H2372 H 0.12429 0.80568 0.41673 0.0
H2373 H 0.14296 0.79911 0.4141 0.0
H2374 H 0.19774 0.84239 0.41561 0.0
H2375 H 0.20393 0.84426 0.38745 0.0
H2376 H 0.61504 0.83327 0.16414 0.0
H2377 H 0.62013 0.83527 0.19308 0.0
H2378 H 0.67595 0.83894 0.1891 0.0
H2379 H 0.67142 0.83792 0.16025 0.0
H2380 H 0.62415 0.809 0.21074 0.0
H2381 H 0.69048 0.88547 0.22267 0.0
H2382 H 0.6758 0.87677 0.20378 0.0
H2383 H 0.69365 0.86926 0.20833 0.0
C2384 C 0.62859 0.83493 0.16943 0.0
C2385 C 0.64285 0.83551 0.15985 0.0
C2386 C 0.6314 0.83592 0.18597 0.0
C2387 C 0.64855 0.83757 0.19327 0.0
C2388 C 0.6628 0.83813 0.18376 0.0
H2389 H 0.66613 0.80221 0.28458 0.0
H2390 H 0.65964 0.80487 0.25651 0.0
C2391 C 0.66005 0.83724 0.16724 0.0
C2392 C 0.65109 0.83761 0.21076 0.0
H2393 H 0.68275 0.8637 0.24374 0.0
C2394 C 0.63687 0.82106 0.21798 0.0
C2395 C 0.66752 0.85352 0.22025 0.0
C2396 C 0.68262 0.87236 0.21339 0.0
C2397 C 0.63897 0.81962 0.23434 0.0
C2398 C 0.65598 0.83492 0.24365 0.0
C2399 C 0.66985 0.85185 0.23655 0.0
C2400 C 0.65989 0.83338 0.26067 0.0
C2401 C 0.6229 0.80176 0.24149 0.0
C2402 C 0.66286 0.84887 0.27229 0.0
C2403 C 0.66685 0.8475 0.28832 0.0
C2404 C 0.66787 0.8306 0.29296 0.0
C2405 C 0.66523 0.81531 0.28131 0.0
C2406 C 0.66135 0.81672 0.2653 0.0
H2407 H 0.60867 0.79515 0.23411 0.0
H2408 H 0.62678 0.78965 0.24216 0.0
H2409 H 0.621 0.8063 0.25369 0.0
H2410 H 0.66206 0.86199 0.26895 0.0
H2411 H 0.66937 0.85976 0.29704 0.0
H2412 H 0.22295 0.82884 0.1797 0.0
H2413 H 0.21326 0.83771 0.20462 0.0
H2414 H 0.16065 0.77862 0.1999 0.0
H2415 H 0.17022 0.76964 0.17504 0.0
H2416 H 0.17944 0.83892 0.21184 0.0
H2417 H 0.18688 0.78099 0.24361 0.0
H2418 H 0.19656 0.78844 0.22474 0.0
H2419 H 0.17088 0.77074 0.22554 0.0
C2420 C 0.2092 0.81784 0.18388 0.0
C2421 C 0.19744 0.79846 0.1755 0.0
C2422 C 0.20373 0.8229 0.19813 0.0
C2423 C 0.18645 0.80866 0.20425 0.0
C2424 C 0.17429 0.78964 0.19558 0.0
H2425 H 0.12802 0.80262 0.28865 0.0
H2426 H 0.13742 0.79738 0.26245 0.0
C2427 C 0.17977 0.78454 0.18138 0.0
C2428 C 0.18127 0.81351 0.21983 0.0
H2429 H 0.17222 0.79757 0.25692 0.0
C2430 C 0.17796 0.82998 0.22174 0.0
C2431 C 0.17946 0.80186 0.23273 0.0
C2432 C 0.18381 0.78464 0.23166 0.0
C2433 C 0.1723 0.83474 0.2361 0.0
C2434 C 0.17019 0.82286 0.24889 0.0
C2435 C 0.17375 0.80657 0.24704 0.0
C2436 C 0.16405 0.82681 0.2643 0.0
C2437 C 0.16813 0.85206 0.23734 0.0
C2438 C 0.17589 0.84514 0.27397 0.0
C2439 C 0.17048 0.84818 0.28891 0.0
C2440 C 0.15331 0.83286 0.29443 0.0
C2441 C 0.14131 0.81471 0.28463 0.0
C2442 C 0.1467 0.81166 0.26971 0.0
H2443 H 0.16599 0.85652 0.22546 0.0
H2444 H 0.15487 0.84789 0.24366 0.0
H2445 H 0.18073 0.86555 0.24421 0.0
H2446 H 0.18948 0.85691 0.2701 0.0
H2447 H 0.17973 0.86245 0.29617 0.0
H2448 H 0.2153 0.39007 0.17442 0.0
H2449 H 0.21183 0.38247 0.20216 0.0
H2450 H 0.15774 0.32636 0.18776 0.0
H2451 H 0.16152 0.33336 0.16002 0.0
H2452 H 0.18299 0.37768 0.22044 0.0
H2453 H 0.18674 0.30684 0.2158 0.0
H2454 H 0.19369 0.32385 0.20032 0.0
H2455 H 0.16827 0.30552 0.20174 0.0
C2456 C 0.20284 0.37595 0.17713 0.0
C2457 C 0.18871 0.36231 0.16496 0.0
C2458 C 0.20082 0.37169 0.193 0.0
C2459 C 0.18471 0.35368 0.19701 0.0
C2460 C 0.17053 0.34013 0.18492 0.0
H2461 H 0.13183 0.32802 0.28505 0.0
H2462 H 0.14165 0.33715 0.25845 0.0
C2463 C 0.17256 0.34432 0.16907 0.0
C2464 C 0.18217 0.34944 0.21387 0.0
H2465 H 0.17362 0.313 0.23907 0.0
C2466 C 0.18115 0.36364 0.22456 0.0
C2467 C 0.18014 0.33129 0.21932 0.0
C2468 C 0.18248 0.31611 0.20873 0.0
C2469 C 0.17734 0.3598 0.24038 0.0
C2470 C 0.17402 0.34104 0.24553 0.0
C2471 C 0.17587 0.32724 0.23504 0.0
C2472 C 0.16801 0.33522 0.26159 0.0
C2473 C 0.17696 0.37589 0.25142 0.0
C2474 C 0.17913 0.33027 0.27195 0.0
C2475 C 0.17334 0.32472 0.28707 0.0
C2476 C 0.15643 0.32414 0.29206 0.0
C2477 C 0.14504 0.32854 0.28154 0.0
C2478 C 0.15075 0.33397 0.26641 0.0
H2479 H 0.18563 0.3913 0.24731 0.0
H2480 H 0.1616 0.37247 0.25171 0.0
H2481 H 0.18282 0.37622 0.26371 0.0
H2482 H 0.19234 0.33083 0.26838 0.0
H2483 H 0.18202 0.32078 0.29482 0.0
H2484 H 0.78364 0.6421 0.83501 0.0
H2485 H 0.78857 0.64933 0.80727 0.0
H2486 H 0.83569 0.63614 0.80914 0.0
H2487 H 0.8309 0.62894 0.83681 0.0
H2488 H 0.82201 0.67905 0.79585 0.0
H2489 H 0.80303 0.60271 0.76834 0.0
H2490 H 0.79681 0.60662 0.78795 0.0
H2491 H 0.82119 0.61177 0.78503 0.0
C2492 C 0.795 0.64066 0.82949 0.0
C2493 C 0.80683 0.63487 0.8381 0.0
C2494 C 0.79774 0.64472 0.81363 0.0
C2495 C 0.8123 0.64297 0.80607 0.0
C2496 C 0.82404 0.63708 0.8146 0.0
H2497 H 0.86622 0.6732 0.71832 0.0
H2498 H 0.85667 0.66324 0.7449 0.0
C2499 C 0.82128 0.63297 0.83043 0.0
C2500 C 0.81602 0.64848 0.78957 0.0
H2501 H 0.81974 0.63061 0.7527 0.0
C2502 C 0.82131 0.6684 0.78636 0.0
C2503 C 0.81509 0.63455 0.77723 0.0
C2504 C 0.80854 0.61266 0.77974 0.0
C2505 C 0.82633 0.67499 0.77127 0.0
C2506 C 0.82581 0.66119 0.75903 0.0
C2507 C 0.8202 0.64117 0.76215 0.0
C2508 C 0.83151 0.66739 0.74301 0.0
C2509 C 0.83276 0.69683 0.76865 0.0
C2510 C 0.82048 0.67296 0.73316 0.0
C2511 C 0.82596 0.67872 0.71802 0.0
C2512 C 0.84244 0.67884 0.71248 0.0
C2513 C 0.8535 0.67333 0.72237 0.0
C2514 C 0.84801 0.66754 0.73748 0.0
H2515 H 0.83631 0.70654 0.78004 0.0
H2516 H 0.84582 0.70342 0.7618 0.0
H2517 H 0.82075 0.69733 0.76168 0.0
H2518 H 0.80757 0.67272 0.73714 0.0
H2519 H 0.81736 0.68317 0.71067 0.0
H2520 H 0.3976 0.16899 0.83072 0.0
H2521 H 0.37857 0.15999 0.80477 0.0
H2522 H 0.38044 0.21774 0.80872 0.0
H2523 H 0.39928 0.22679 0.83468 0.0
H2524 H 0.34199 0.15831 0.79506 0.0
H2525 H 0.40547 0.21694 0.76699 0.0
H2526 H 0.40808 0.20852 0.786 0.0
H2527 H 0.39967 0.22644 0.78459 0.0
C2528 C 0.39369 0.17963 0.82618 0.0
C2529 C 0.40013 0.1987 0.83467 0.0
C2530 C 0.38289 0.1745 0.81134 0.0
C2531 C 0.37844 0.18837 0.80475 0.0
C2532 C 0.3841 0.20702 0.81349 0.0
H2533 H 0.32632 0.19823 0.71663 0.0
H2534 H 0.34101 0.20212 0.74368 0.0
C2535 C 0.39487 0.21216 0.82829 0.0
C2536 C 0.36847 0.18374 0.78851 0.0
H2537 H 0.37471 0.20057 0.75161 0.0
C2538 C 0.34913 0.16743 0.7855 0.0
C2539 C 0.37792 0.19563 0.77609 0.0
C2540 C 0.39899 0.21276 0.77848 0.0
C2541 C 0.33872 0.16314 0.77048 0.0
C2542 C 0.34808 0.17531 0.75815 0.0
C2543 C 0.36754 0.19135 0.76111 0.0
C2544 C 0.33791 0.17211 0.74215 0.0
C2545 C 0.31765 0.14608 0.76805 0.0
C2546 C 0.33119 0.15389 0.73237 0.0
C2547 C 0.32265 0.1516 0.71693 0.0
C2548 C 0.32101 0.16759 0.71102 0.0
C2549 C 0.3274 0.18565 0.72092 0.0
C2550 C 0.33586 0.18791 0.73633 0.0
H2551 H 0.31131 0.14144 0.77954 0.0
H2552 H 0.3085 0.15063 0.76095 0.0
H2553 H 0.31687 0.1326 0.76146 0.0
H2554 H 0.3329 0.14162 0.73654 0.0
H2555 H 0.3175 0.13741 0.70957 0.0
H2556 H 0.84297 0.17268 0.84707 0.0
H2557 H 0.84694 0.17245 0.81866 0.0
H2558 H 0.79385 0.17453 0.80934 0.0
H2559 H 0.79021 0.17569 0.83784 0.0
H2560 H 0.82292 0.14516 0.79373 0.0
H2561 H 0.83311 0.22193 0.78673 0.0
H2562 H 0.83405 0.21318 0.80594 0.0
H2563 H 0.81081 0.20494 0.79498 0.0
C2564 C 0.83226 0.17337 0.83902 0.0
C2565 C 0.81638 0.17442 0.84478 0.0
C2566 C 0.83447 0.17306 0.82276 0.0
C2567 C 0.82086 0.17379 0.81191 0.0
C2568 C 0.80474 0.17436 0.81754 0.0
H2569 H 0.81452 0.14719 0.70901 0.0
H2570 H 0.80726 0.14598 0.73687 0.0
C2571 C 0.80255 0.17477 0.83382 0.0
C2572 C 0.82361 0.17388 0.79471 0.0
H2573 H 0.83073 0.20208 0.76319 0.0
C2574 C 0.82461 0.15758 0.78703 0.0
C2575 C 0.82605 0.19023 0.78607 0.0
C2576 C 0.82614 0.20867 0.79385 0.0
C2577 C 0.82797 0.15719 0.77092 0.0
C2578 C 0.83 0.17334 0.7622 0.0
C2579 C 0.829 0.18963 0.76988 0.0
C2580 C 0.83398 0.17409 0.74525 0.0
C2581 C 0.82989 0.13978 0.76354 0.0
C2582 C 0.85111 0.19054 0.74066 0.0
C2583 C 0.85504 0.19145 0.72474 0.0
C2584 C 0.84185 0.17597 0.71313 0.0
C2585 C 0.82472 0.15951 0.7177 0.0
C2586 C 0.82072 0.15865 0.73363 0.0
H2587 H 0.83301 0.13164 0.7727 0.0
H2588 H 0.81591 0.12865 0.7565 0.0
H2589 H 0.84175 0.14529 0.75544 0.0
H2590 H 0.86152 0.20263 0.74943 0.0
H2591 H 0.86836 0.20432 0.7215 0.0
H2592 H 0.30388 0.1345 0.49257 0.0
H2593 H 0.30887 0.13544 0.52141 0.0
H2594 H 0.3105 0.19302 0.52716 0.0
H2595 H 0.30554 0.19222 0.49825 0.0
H2596 H 0.3406 0.16509 0.54163 0.0
H2597 H 0.27074 0.15906 0.5578 0.0
H2598 H 0.27439 0.15323 0.53771 0.0
H2599 H 0.28481 0.1793 0.54581 0.0
C2600 C 0.30536 0.1474 0.49996 0.0
C2601 C 0.30435 0.16331 0.49313 0.0
C2602 C 0.30811 0.14786 0.51643 0.0
C2603 C 0.30982 0.16417 0.52642 0.0
C2604 C 0.3088 0.18008 0.51968 0.0
H2605 H 0.33212 0.18914 0.62993 0.0
H2606 H 0.3266 0.19162 0.60154 0.0
C2607 C 0.30599 0.17961 0.50317 0.0
C2608 C 0.31344 0.16477 0.54384 0.0
H2609 H 0.29389 0.1641 0.57902 0.0
C2610 C 0.33039 0.16488 0.5498 0.0
C2611 C 0.30014 0.16462 0.55448 0.0
C2612 C 0.2814 0.16388 0.54867 0.0
C2613 C 0.33438 0.16474 0.56611 0.0
C2614 C 0.32091 0.16417 0.5767 0.0
C2615 C 0.30416 0.1645 0.57082 0.0
C2616 C 0.32366 0.16249 0.59386 0.0
C2617 C 0.35306 0.16533 0.57189 0.0
C2618 C 0.32348 0.14515 0.5989 0.0
C2619 C 0.32645 0.14365 0.61505 0.0
C2620 C 0.3295 0.15939 0.62642 0.0
C2621 C 0.32947 0.17665 0.6214 0.0
C2622 C 0.32644 0.17814 0.60522 0.0
H2623 H 0.36407 0.1711 0.56306 0.0
H2624 H 0.35963 0.17514 0.5833 0.0
H2625 H 0.34971 0.14967 0.57392 0.0
H2626 H 0.32103 0.13277 0.59032 0.0
H2627 H 0.32632 0.13014 0.61863 0.0
H2628 H 0.89398 0.16496 0.51595 0.0
H2629 H 0.88382 0.17456 0.54033 0.0
H2630 H 0.83234 0.11468 0.53697 0.0
H2631 H 0.84237 0.10498 0.51267 0.0
H2632 H 0.84917 0.17479 0.54665 0.0
H2633 H 0.85906 0.12034 0.58131 0.0
H2634 H 0.86875 0.12711 0.56235 0.0
H2635 H 0.84327 0.10869 0.56323 0.0
C2636 C 0.88039 0.15393 0.52032 0.0
C2637 C 0.86908 0.13414 0.51251 0.0
C2638 C 0.87465 0.15941 0.53426 0.0
C2639 C 0.85755 0.14519 0.5406 0.0
C2640 C 0.84584 0.12571 0.53248 0.0
H2641 H 0.79631 0.13983 0.62291 0.0
H2642 H 0.80666 0.13452 0.59717 0.0
C2643 C 0.85159 0.1202 0.51861 0.0
C2644 C 0.85204 0.15051 0.55585 0.0
H2645 H 0.84286 0.13613 0.59334 0.0
C2646 C 0.84791 0.16646 0.55691 0.0
C2647 C 0.85054 0.13967 0.56923 0.0
C2648 C 0.85582 0.12313 0.56908 0.0
C2649 C 0.84166 0.1714 0.57087 0.0
C2650 C 0.83975 0.16024 0.5841 0.0
C2651 C 0.84421 0.14454 0.58312 0.0
C2652 C 0.83288 0.1643 0.59907 0.0
C2653 C 0.83665 0.18813 0.57123 0.0
C2654 C 0.84413 0.18287 0.60858 0.0
C2655 C 0.83818 0.18594 0.62326 0.0
C2656 C 0.82104 0.17043 0.62867 0.0
C2657 C 0.80955 0.15207 0.61896 0.0
C2658 C 0.81549 0.14898 0.60432 0.0
H2659 H 0.83483 0.19218 0.55912 0.0
H2660 H 0.82294 0.18352 0.57703 0.0
H2661 H 0.84865 0.20197 0.57825 0.0
H2662 H 0.85773 0.19477 0.60483 0.0
H2663 H 0.84708 0.20034 0.63046 0.0
H2664 H 0.88069 0.72277 0.50852 0.0
H2665 H 0.8774 0.71543 0.53635 0.0
H2666 H 0.82008 0.66303 0.52297 0.0
H2667 H 0.82352 0.66977 0.49514 0.0
H2668 H 0.84974 0.71377 0.55552 0.0
H2669 H 0.84663 0.63927 0.54962 0.0
H2670 H 0.85467 0.65652 0.5343 0.0
H2671 H 0.82892 0.6401 0.53602 0.0
C2672 C 0.8675 0.70951 0.51148 0.0
C2673 C 0.85238 0.69684 0.49959 0.0
C2674 C 0.8656 0.70541 0.52739 0.0
C2675 C 0.84863 0.6885 0.53169 0.0
C2676 C 0.83347 0.67592 0.51988 0.0
H2677 H 0.79895 0.66615 0.62126 0.0
H2678 H 0.80799 0.67476 0.59438 0.0
C2679 C 0.83536 0.67997 0.504 0.0
C2680 C 0.84635 0.68439 0.54857 0.0
H2681 H 0.836 0.64735 0.57356 0.0
C2682 C 0.84693 0.69933 0.55951 0.0
C2683 C 0.84301 0.66568 0.55381 0.0
C2684 C 0.84347 0.64955 0.54286 0.0
C2685 C 0.84349 0.69575 0.57542 0.0
C2686 C 0.83898 0.67657 0.58042 0.0
C2687 C 0.83919 0.66194 0.56964 0.0
C2688 C 0.83349 0.67119 0.59665 0.0
C2689 C 0.84474 0.71254 0.58674 0.0
C2690 C 0.84441 0.66561 0.60662 0.0
C2691 C 0.83911 0.66043 0.6219 0.0
C2692 C 0.82284 0.66081 0.62742 0.0
C2693 C 0.81164 0.66589 0.6173 0.0
C2694 C 0.81691 0.67101 0.60202 0.0
H2695 H 0.85378 0.72777 0.58245 0.0
H2696 H 0.82978 0.71008 0.58774 0.0
H2697 H 0.85107 0.7126 0.59878 0.0
H2698 H 0.85711 0.6654 0.60261 0.0
H2699 H 0.84767 0.65607 0.62938 0.0
loop_
_geom_bond_atom_site_label_1
_geom_bond_atom_site_label_2
_geom_bond_distance
_geom_bond_site_symmetry_2
_ccdc_geom_bond_type
P0 O11 1.490 . S
P0 C14 1.812 . S
P0 C20 1.803 . S
P0 C26 1.819 . S
H1 C15 0.941 . S
H2 C16 0.939 . S
H3 C18 0.940 . S
H4 C19 0.940 . S
H5 C21 0.939 . S
H6 C22 0.942 . S
H7 C24 0.940 . S
H8 C25 0.939 . S
H9 C27 0.941 . S
H10 C31 0.939 . S
O11 P0 1.490 . S
H12 C28 0.939 . S
H13 C30 0.940 . S
C14 P0 1.812 . S
C14 C15 1.389 . S
C14 C19 1.391 . S
C15 H1 0.941 . S
C15 C14 1.389 . S
C15 C16 1.397 . S
C16 H2 0.939 . S
C16 C15 1.397 . S
C16 C17 1.378 . S
C17 C16 1.378 . S
C17 C18 1.378 . S
C18 H3 0.940 . S
C18 C17 1.378 . S
C18 C19 1.396 . S
C19 H4 0.940 . S
C19 C14 1.391 . S
C19 C18 1.396 . S
C20 P0 1.803 . S
C20 C21 1.378 . S
C20 C25 1.400 . S
C21 H5 0.939 . S
C21 C20 1.378 . S
C21 C22 1.361 . S
C22 H6 0.942 . S
C22 C21 1.361 . S
C22 C23 1.369 . S
C23 C22 1.369 . S
C23 C24 1.404 . S
C24 H7 0.940 . S
C24 C23 1.404 . S
C24 C25 1.389 . S
C25 H8 0.939 . S
C25 C20 1.400 . S
C25 C24 1.389 . S
C26 P0 1.819 . S
C26 C27 1.391 . S
C26 C31 1.391 . S
C27 H9 0.941 . S
C27 C26 1.391 . S
C27 C28 1.396 . S
C28 H12 0.939 . S
C28 C27 1.396 . S
C28 C29 1.397 . S
C29 C28 1.397 . S
C29 C30 1.385 . S
C30 H13 0.940 . S
C30 C29 1.385 . S
C30 C31 1.388 . S
C31 H10 0.939 . S
C31 C26 1.391 . S
C31 C30 1.388 . S
P32 O43 1.490 . S
P32 C46 1.812 . S
P32 C52 1.803 . S
P32 C58 1.819 . S
H33 C47 0.941 . S
H34 C48 0.939 . S
H35 C50 0.940 . S
H36 C51 0.940 . S
H37 C53 0.939 . S
H38 C54 0.942 . S
H39 C56 0.940 . S
H40 C57 0.939 . S
H41 C59 0.941 . S
H42 C63 0.939 . S
O43 P32 1.490 . S
H44 C60 0.939 . S
H45 C62 0.940 . S
C46 P32 1.812 . S
C46 C47 1.389 . S
C46 C51 1.391 . S
C47 H33 0.941 . S
C47 C46 1.389 . S
C47 C48 1.397 . S
C48 H34 0.939 . S
C48 C47 1.397 . S
C48 C49 1.378 . S
C49 C48 1.378 . S
C49 C50 1.378 . S
C50 H35 0.940 . S
C50 C49 1.378 . S
C50 C51 1.396 . S
C51 H36 0.940 . S
C51 C46 1.391 . S
C51 C50 1.396 . S
C52 P32 1.803 . S
C52 C53 1.378 . S
C52 C57 1.400 . S
C53 H37 0.939 . S
C53 C52 1.378 . S
C53 C54 1.361 . S
C54 H38 0.942 . S
C54 C53 1.361 . S
C54 C55 1.369 . S
C55 C54 1.369 . S
C55 C56 1.404 . S
C56 H39 0.940 . S
C56 C55 1.404 . S
C56 C57 1.389 . S
C57 H40 0.939 . S
C57 C52 1.400 . S
C57 C56 1.389 . S
C58 P32 1.819 . S
C58 C59 1.391 . S
C58 C63 1.391 . S
C59 H41 0.941 . S
C59 C58 1.391 . S
C59 C60 1.396 . S
C60 H44 0.939 . S
C60 C59 1.396 . S
C60 C61 1.397 . S
C61 C60 1.397 . S
C61 C62 1.385 . S
C62 H45 0.940 . S
C62 C61 1.385 . S
C62 C63 1.388 . S
C63 H42 0.939 . S
C63 C58 1.391 . S
C63 C62 1.388 . S
P64 O75 1.490 . S
P64 C78 1.812 . S
P64 C84 1.803 . S
P64 C90 1.819 . S
H65 C79 0.941 . S
H66 C80 0.939 . S
H67 C82 0.940 . S
H68 C83 0.940 . S
H69 C85 0.939 . S
H70 C86 0.942 . S
H71 C88 0.940 . S
H72 C89 0.939 . S
H73 C91 0.941 . S
H74 C95 0.939 . S
O75 P64 1.490 . S
H76 C92 0.939 . S
H77 C94 0.940 . S
C78 P64 1.812 . S
C78 C79 1.389 . S
C78 C83 1.391 . S
C79 H65 0.941 . S
C79 C78 1.389 . S
C79 C80 1.397 . S
C80 H66 0.939 . S
C80 C79 1.397 . S
C80 C81 1.378 . S
C81 C80 1.378 . S
C81 C82 1.378 . S
C82 H67 0.940 . S
C82 C81 1.378 . S
C82 C83 1.396 . S
C83 H68 0.940 . S
C83 C78 1.391 . S
C83 C82 1.396 . S
C84 P64 1.803 . S
C84 C85 1.378 . S
C84 C89 1.400 . S
C85 H69 0.939 . S
C85 C84 1.378 . S
C85 C86 1.361 . S
C86 H70 0.942 . S
C86 C85 1.361 . S
C86 C87 1.369 . S
C87 C86 1.369 . S
C87 C88 1.404 . S
C88 H71 0.940 . S
C88 C87 1.404 . S
C88 C89 1.389 . S
C89 H72 0.939 . S
C89 C84 1.400 . S
C89 C88 1.389 . S
C90 P64 1.819 . S
C90 C91 1.391 . S
C90 C95 1.391 . S
C91 H73 0.941 . S
C91 C90 1.391 . S
C91 C92 1.396 . S
C92 H76 0.939 . S
C92 C91 1.396 . S
C92 C93 1.397 . S
C93 C92 1.397 . S
C93 C94 1.385 . S
C94 H77 0.940 . S
C94 C93 1.385 . S
C94 C95 1.388 . S
C95 H74 0.939 . S
C95 C90 1.391 . S
C95 C94 1.388 . S
P96 O107 1.490 . S
P96 C110 1.812 . S
P96 C116 1.803 . S
P96 C122 1.819 . S
H97 C111 0.941 . S
H98 C112 0.939 . S
H99 C114 0.940 . S
H100 C115 0.940 . S
H101 C117 0.939 . S
H102 C118 0.942 . S
H103 C120 0.940 . S
H104 C121 0.939 . S
H105 C123 0.941 . S
H106 C127 0.939 . S
O107 P96 1.490 . S
H108 C124 0.939 . S
H109 C126 0.940 . S
C110 P96 1.812 . S
C110 C111 1.389 . S
C110 C115 1.391 . S
C111 H97 0.941 . S
C111 C110 1.389 . S
C111 C112 1.397 . S
C112 H98 0.939 . S
C112 C111 1.397 . S
C112 C113 1.378 . S
C113 C112 1.378 . S
C113 C114 1.378 . S
C114 H99 0.940 . S
C114 C113 1.378 . S
C114 C115 1.396 . S
C115 H100 0.940 . S
C115 C110 1.391 . S
C115 C114 1.396 . S
C116 P96 1.803 . S
C116 C117 1.378 . S
C116 C121 1.400 . S
C117 H101 0.939 . S
C117 C116 1.378 . S
C117 C118 1.361 . S
C118 H102 0.942 . S
C118 C117 1.361 . S
C118 C119 1.369 . S
C119 C118 1.369 . S
C119 C120 1.404 . S
C120 H103 0.940 . S
C120 C119 1.404 . S
C120 C121 1.389 . S
C121 H104 0.939 . S
C121 C116 1.400 . S
C121 C120 1.389 . S
C122 P96 1.819 . S
C122 C123 1.391 . S
C122 C127 1.391 . S
C123 H105 0.941 . S
C123 C122 1.391 . S
C123 C124 1.396 . S
C124 H108 0.939 . S
C124 C123 1.396 . S
C124 C125 1.397 . S
C125 C124 1.397 . S
C125 C126 1.385 . S
C126 H109 0.940 . S
C126 C125 1.385 . S
C126 C127 1.388 . S
C127 H106 0.939 . S
C127 C122 1.391 . S
C127 C126 1.388 . S
P128 O139 1.490 . S
P128 C142 1.812 . S
P128 C148 1.803 . S
P128 C154 1.819 . S
H129 C143 0.941 . S
H130 C144 0.939 . S
H131 C146 0.940 . S
H132 C147 0.940 . S
H133 C149 0.939 . S
H134 C150 0.942 . S
H135 C152 0.940 . S
H136 C153 0.939 . S
H137 C155 0.941 . S
H138 C159 0.939 . S
O139 P128 1.490 . S
H140 C156 0.939 . S
H141 C158 0.940 . S
C142 P128 1.812 . S
C142 C143 1.389 . S
C142 C147 1.391 . S
C143 H129 0.941 . S
C143 C142 1.389 . S
C143 C144 1.397 . S
C144 H130 0.939 . S
C144 C143 1.397 . S
C144 C145 1.378 . S
C145 C144 1.378 . S
C145 C146 1.378 . S
C146 H131 0.940 . S
C146 C145 1.378 . S
C146 C147 1.396 . S
C147 H132 0.940 . S
C147 C142 1.391 . S
C147 C146 1.396 . S
C148 P128 1.803 . S
C148 C149 1.378 . S
C148 C153 1.400 . S
C149 H133 0.939 . S
C149 C148 1.378 . S
C149 C150 1.361 . S
C150 H134 0.942 . S
C150 C149 1.361 . S
C150 C151 1.369 . S
C151 C150 1.369 . S
C151 C152 1.404 . S
C152 H135 0.940 . S
C152 C151 1.404 . S
C152 C153 1.389 . S
C153 H136 0.939 . S
C153 C148 1.400 . S
C153 C152 1.389 . S
C154 P128 1.819 . S
C154 C155 1.391 . S
C154 C159 1.391 . S
C155 H137 0.941 . S
C155 C154 1.391 . S
C155 C156 1.396 . S
C156 H140 0.939 . S
C156 C155 1.396 . S
C156 C157 1.397 . S
C157 C156 1.397 . S
C157 C158 1.385 . S
C158 H141 0.940 . S
C158 C157 1.385 . S
C158 C159 1.388 . S
C159 H138 0.939 . S
C159 C154 1.391 . S
C159 C158 1.388 . S
P160 O171 1.490 . S
P160 C174 1.812 . S
P160 C180 1.803 . S
P160 C186 1.819 . S
H161 C175 0.941 . S
H162 C176 0.939 . S
H163 C178 0.940 . S
H164 C179 0.940 . S
H165 C181 0.939 . S
H166 C182 0.942 . S
H167 C184 0.940 . S
H168 C185 0.939 . S
H169 C187 0.941 . S
H170 C191 0.939 . S
O171 P160 1.490 . S
H172 C188 0.939 . S
H173 C190 0.940 . S
C174 P160 1.812 . S
C174 C175 1.389 . S
C174 C179 1.391 . S
C175 H161 0.941 . S
C175 C174 1.389 . S
C175 C176 1.397 . S
C176 H162 0.939 . S
C176 C175 1.397 . S
C176 C177 1.378 . S
C177 C176 1.378 . S
C177 C178 1.378 . S
C178 H163 0.940 . S
C178 C177 1.378 . S
C178 C179 1.396 . S
C179 H164 0.940 . S
C179 C174 1.391 . S
C179 C178 1.396 . S
C180 P160 1.803 . S
C180 C181 1.378 . S
C180 C185 1.400 . S
C181 H165 0.939 . S
C181 C180 1.378 . S
C181 C182 1.361 . S
C182 H166 0.942 . S
C182 C181 1.361 . S
C182 C183 1.369 . S
C183 C182 1.369 . S
C183 C184 1.404 . S
C184 H167 0.940 . S
C184 C183 1.404 . S
C184 C185 1.389 . S
C185 H168 0.939 . S
C185 C180 1.400 . S
C185 C184 1.389 . S
C186 P160 1.819 . S
C186 C187 1.391 . S
C186 C191 1.391 . S
C187 H169 0.941 . S
C187 C186 1.391 . S
C187 C188 1.396 . S
C188 H172 0.939 . S
C188 C187 1.396 . S
C188 C189 1.397 . S
C189 C188 1.397 . S
C189 C190 1.385 . S
C190 H173 0.940 . S
C190 C189 1.385 . S
C190 C191 1.388 . S
C191 H170 0.939 . S
C191 C186 1.391 . S
C191 C190 1.388 . S
P192 O203 1.490 . S
P192 C206 1.812 . S
P192 C212 1.803 . S
P192 C218 1.819 . S
H193 C207 0.941 . S
H194 C208 0.939 . S
H195 C210 0.940 . S
H196 C211 0.940 . S
H197 C213 0.939 . S
H198 C214 0.942 . S
H199 C216 0.940 . S
H200 C217 0.939 . S
H201 C219 0.941 . S
H202 C223 0.939 . S
O203 P192 1.490 . S
H204 C220 0.939 . S
H205 C222 0.940 . S
C206 P192 1.812 . S
C206 C207 1.389 . S
C206 C211 1.391 . S
C207 H193 0.941 . S
C207 C206 1.389 . S
C207 C208 1.397 . S
C208 H194 0.939 . S
C208 C207 1.397 . S
C208 C209 1.378 . S
C209 C208 1.378 . S
C209 C210 1.378 . S
C210 H195 0.940 . S
C210 C209 1.378 . S
C210 C211 1.396 . S
C211 H196 0.940 . S
C211 C206 1.391 . S
C211 C210 1.396 . S
C212 P192 1.803 . S
C212 C213 1.378 . S
C212 C217 1.400 . S
C213 H197 0.939 . S
C213 C212 1.378 . S
C213 C214 1.361 . S
C214 H198 0.942 . S
C214 C213 1.361 . S
C214 C215 1.369 . S
C215 C214 1.369 . S
C215 C216 1.404 . S
C216 H199 0.940 . S
C216 C215 1.404 . S
C216 C217 1.389 . S
C217 H200 0.939 . S
C217 C212 1.400 . S
C217 C216 1.389 . S
C218 P192 1.819 . S
C218 C219 1.391 . S
C218 C223 1.391 . S
C219 H201 0.941 . S
C219 C218 1.391 . S
C219 C220 1.396 . S
C220 H204 0.939 . S
C220 C219 1.396 . S
C220 C221 1.397 . S
C221 C220 1.397 . S
C221 C222 1.385 . S
C222 H205 0.940 . S
C222 C221 1.385 . S
C222 C223 1.388 . S
C223 H202 0.939 . S
C223 C218 1.391 . S
C223 C222 1.388 . S
P224 O235 1.490 . S
P224 C238 1.812 . S
P224 C244 1.803 . S
P224 C250 1.819 . S
H225 C239 0.941 . S
H226 C240 0.939 . S
H227 C242 0.940 . S
H228 C243 0.940 . S
H229 C245 0.939 . S
H230 C246 0.942 . S
H231 C248 0.940 . S
H232 C249 0.939 . S
H233 C251 0.941 . S
H234 C255 0.939 . S
O235 P224 1.490 . S
H236 C252 0.939 . S
H237 C254 0.940 . S
C238 P224 1.812 . S
C238 C239 1.389 . S
C238 C243 1.391 . S
C239 H225 0.941 . S
C239 C238 1.389 . S
C239 C240 1.397 . S
C240 H226 0.939 . S
C240 C239 1.397 . S
C240 C241 1.378 . S
C241 C240 1.378 . S
C241 C242 1.378 . S
C242 H227 0.940 . S
C242 C241 1.378 . S
C242 C243 1.396 . S
C243 H228 0.940 . S
C243 C238 1.391 . S
C243 C242 1.396 . S
C244 P224 1.803 . S
C244 C245 1.378 . S
C244 C249 1.400 . S
C245 H229 0.939 . S
C245 C244 1.378 . S
C245 C246 1.361 . S
C246 H230 0.942 . S
C246 C245 1.361 . S
C246 C247 1.369 . S
C247 C246 1.369 . S
C247 C248 1.404 . S
C248 H231 0.940 . S
C248 C247 1.404 . S
C248 C249 1.389 . S
C249 H232 0.939 . S
C249 C244 1.400 . S
C249 C248 1.389 . S
C250 P224 1.819 . S
C250 C251 1.391 . S
C250 C255 1.391 . S
C251 H233 0.941 . S
C251 C250 1.391 . S
C251 C252 1.396 . S
C252 H236 0.939 . S
C252 C251 1.396 . S
C252 C253 1.397 . S
C253 C252 1.397 . S
C253 C254 1.385 . S
C254 H237 0.940 . S
C254 C253 1.385 . S
C254 C255 1.388 . S
C255 H234 0.939 . S
C255 C250 1.391 . S
C255 C254 1.388 . S
P256 O267 1.490 . S
P256 C270 1.812 . S
P256 C276 1.803 . S
P256 C282 1.819 . S
H257 C271 0.941 . S
H258 C272 0.939 . S
H259 C274 0.940 . S
H260 C275 0.940 . S
H261 C277 0.939 . S
H262 C278 0.942 . S
H263 C280 0.940 . S
H264 C281 0.939 . S
H265 C283 0.941 . S
H266 C287 0.939 . S
O267 P256 1.490 . S
H268 C284 0.939 . S
H269 C286 0.940 . S
C270 P256 1.812 . S
C270 C271 1.389 . S
C270 C275 1.391 . S
C271 H257 0.941 . S
C271 C270 1.389 . S
C271 C272 1.397 . S
C272 H258 0.939 . S
C272 C271 1.397 . S
C272 C273 1.378 . S
C273 C272 1.378 . S
C273 C274 1.378 . S
C274 H259 0.940 . S
C274 C273 1.378 . S
C274 C275 1.396 . S
C275 H260 0.940 . S
C275 C270 1.391 . S
C275 C274 1.396 . S
C276 P256 1.803 . S
C276 C277 1.378 . S
C276 C281 1.400 . S
C277 H261 0.939 . S
C277 C276 1.378 . S
C277 C278 1.361 . S
C278 H262 0.942 . S
C278 C277 1.361 . S
C278 C279 1.369 . S
C279 C278 1.369 . S
C279 C280 1.404 . S
C280 H263 0.940 . S
C280 C279 1.404 . S
C280 C281 1.389 . S
C281 H264 0.939 . S
C281 C276 1.400 . S
C281 C280 1.389 . S
C282 P256 1.819 . S
C282 C283 1.391 . S
C282 C287 1.391 . S
C283 H265 0.941 . S
C283 C282 1.391 . S
C283 C284 1.396 . S
C284 H268 0.939 . S
C284 C283 1.396 . S
C284 C285 1.397 . S
C285 C284 1.397 . S
C285 C286 1.385 . S
C286 H269 0.940 . S
C286 C285 1.385 . S
C286 C287 1.388 . S
C287 H266 0.939 . S
C287 C282 1.391 . S
C287 C286 1.388 . S
P288 O299 1.490 . S
P288 C302 1.812 . S
P288 C308 1.803 . S
P288 C314 1.819 . S
H289 C303 0.941 . S
H290 C304 0.939 . S
H291 C306 0.940 . S
H292 C307 0.940 . S
H293 C309 0.939 . S
H294 C310 0.942 . S
H295 C312 0.940 . S
H296 C313 0.939 . S
H297 C315 0.941 . S
H298 C319 0.939 . S
O299 P288 1.490 . S
H300 C316 0.939 . S
H301 C318 0.940 . S
C302 P288 1.812 . S
C302 C303 1.389 . S
C302 C307 1.391 . S
C303 H289 0.941 . S
C303 C302 1.389 . S
C303 C304 1.397 . S
C304 H290 0.939 . S
C304 C303 1.397 . S
C304 C305 1.378 . S
C305 C304 1.378 . S
C305 C306 1.378 . S
C306 H291 0.940 . S
C306 C305 1.378 . S
C306 C307 1.396 . S
C307 H292 0.940 . S
C307 C302 1.391 . S
C307 C306 1.396 . S
C308 P288 1.803 . S
C308 C309 1.378 . S
C308 C313 1.400 . S
C309 H293 0.939 . S
C309 C308 1.378 . S
C309 C310 1.361 . S
C310 H294 0.942 . S
C310 C309 1.361 . S
C310 C311 1.369 . S
C311 C310 1.369 . S
C311 C312 1.404 . S
C312 H295 0.940 . S
C312 C311 1.404 . S
C312 C313 1.389 . S
C313 H296 0.939 . S
C313 C308 1.400 . S
C313 C312 1.389 . S
C314 P288 1.819 . S
C314 C315 1.391 . S
C314 C319 1.391 . S
C315 H297 0.941 . S
C315 C314 1.391 . S
C315 C316 1.396 . S
C316 H300 0.939 . S
C316 C315 1.396 . S
C316 C317 1.397 . S
C317 C316 1.397 . S
C317 C318 1.385 . S
C318 H301 0.940 . S
C318 C317 1.385 . S
C318 C319 1.388 . S
C319 H298 0.939 . S
C319 C314 1.391 . S
C319 C318 1.388 . S
P320 O331 1.490 . S
P320 C334 1.812 . S
P320 C340 1.803 . S
P320 C346 1.819 . S
H321 C335 0.941 . S
H322 C336 0.939 . S
H323 C338 0.940 . S
H324 C339 0.940 . S
H325 C341 0.939 . S
H326 C342 0.942 . S
H327 C344 0.940 . S
H328 C345 0.939 . S
H329 C347 0.941 . S
H330 C351 0.939 . S
O331 P320 1.490 . S
H332 C348 0.939 . S
H333 C350 0.940 . S
C334 P320 1.812 . S
C334 C335 1.389 . S
C334 C339 1.391 . S
C335 H321 0.941 . S
C335 C334 1.389 . S
C335 C336 1.397 . S
C336 H322 0.939 . S
C336 C335 1.397 . S
C336 C337 1.378 . S
C337 C336 1.378 . S
C337 C338 1.378 . S
C338 H323 0.940 . S
C338 C337 1.378 . S
C338 C339 1.396 . S
C339 H324 0.940 . S
C339 C334 1.391 . S
C339 C338 1.396 . S
C340 P320 1.803 . S
C340 C341 1.378 . S
C340 C345 1.400 . S
C341 H325 0.939 . S
C341 C340 1.378 . S
C341 C342 1.361 . S
C342 H326 0.942 . S
C342 C341 1.361 . S
C342 C343 1.369 . S
C343 C342 1.369 . S
C343 C344 1.404 . S
C344 H327 0.940 . S
C344 C343 1.404 . S
C344 C345 1.389 . S
C345 H328 0.939 . S
C345 C340 1.400 . S
C345 C344 1.389 . S
C346 P320 1.819 . S
C346 C347 1.391 . S
C346 C351 1.391 . S
C347 H329 0.941 . S
C347 C346 1.391 . S
C347 C348 1.396 . S
C348 H332 0.939 . S
C348 C347 1.396 . S
C348 C349 1.397 . S
C349 C348 1.397 . S
C349 C350 1.385 . S
C350 H333 0.940 . S
C350 C349 1.385 . S
C350 C351 1.388 . S
C351 H330 0.939 . S
C351 C346 1.391 . S
C351 C350 1.388 . S
P352 O363 1.490 . S
P352 C366 1.812 . S
P352 C372 1.803 . S
P352 C378 1.819 . S
H353 C367 0.941 . S
H354 C368 0.939 . S
H355 C370 0.940 . S
H356 C371 0.940 . S
H357 C373 0.939 . S
H358 C374 0.942 . S
H359 C376 0.940 . S
H360 C377 0.939 . S
H361 C379 0.941 . S
H362 C383 0.939 . S
O363 P352 1.490 . S
H364 C380 0.939 . S
H365 C382 0.940 . S
C366 P352 1.812 . S
C366 C367 1.389 . S
C366 C371 1.391 . S
C367 H353 0.941 . S
C367 C366 1.389 . S
C367 C368 1.397 . S
C368 H354 0.939 . S
C368 C367 1.397 . S
C368 C369 1.378 . S
C369 C368 1.378 . S
C369 C370 1.378 . S
C370 H355 0.940 . S
C370 C369 1.378 . S
C370 C371 1.396 . S
C371 H356 0.940 . S
C371 C366 1.391 . S
C371 C370 1.396 . S
C372 P352 1.803 . S
C372 C373 1.378 . S
C372 C377 1.400 . S
C373 H357 0.939 . S
C373 C372 1.378 . S
C373 C374 1.361 . S
C374 H358 0.942 . S
C374 C373 1.361 . S
C374 C375 1.369 . S
C375 C374 1.369 . S
C375 C376 1.404 . S
C376 H359 0.940 . S
C376 C375 1.404 . S
C376 C377 1.389 . S
C377 H360 0.939 . S
C377 C372 1.400 . S
C377 C376 1.389 . S
C378 P352 1.819 . S
C378 C379 1.391 . S
C378 C383 1.391 . S
C379 H361 0.941 . S
C379 C378 1.391 . S
C379 C380 1.396 . S
C380 H364 0.939 . S
C380 C379 1.396 . S
C380 C381 1.397 . S
C381 C380 1.397 . S
C381 C382 1.385 . S
C382 H365 0.940 . S
C382 C381 1.385 . S
C382 C383 1.388 . S
C383 H362 0.939 . S
C383 C378 1.391 . S
C383 C382 1.388 . S
P384 O395 1.490 . S
P384 C398 1.812 . S
P384 C404 1.803 . S
P384 C410 1.819 . S
H385 C399 0.941 . S
H386 C400 0.939 . S
H387 C402 0.940 . S
H388 C403 0.940 . S
H389 C405 0.939 . S
H390 C406 0.942 . S
H391 C408 0.940 . S
H392 C409 0.939 . S
H393 C411 0.941 . S
H394 C415 0.939 . S
O395 P384 1.490 . S
H396 C412 0.939 . S
H397 C414 0.940 . S
C398 P384 1.812 . S
C398 C399 1.389 . S
C398 C403 1.391 . S
C399 H385 0.941 . S
C399 C398 1.389 . S
C399 C400 1.397 . S
C400 H386 0.939 . S
C400 C399 1.397 . S
C400 C401 1.378 . S
C401 C400 1.378 . S
C401 C402 1.378 . S
C402 H387 0.940 . S
C402 C401 1.378 . S
C402 C403 1.396 . S
C403 H388 0.940 . S
C403 C398 1.391 . S
C403 C402 1.396 . S
C404 P384 1.803 . S
C404 C405 1.378 . S
C404 C409 1.400 . S
C405 H389 0.939 . S
C405 C404 1.378 . S
C405 C406 1.361 . S
C406 H390 0.942 . S
C406 C405 1.361 . S
C406 C407 1.369 . S
C407 C406 1.369 . S
C407 C408 1.404 . S
C408 H391 0.940 . S
C408 C407 1.404 . S
C408 C409 1.389 . S
C409 H392 0.939 . S
C409 C404 1.400 . S
C409 C408 1.389 . S
C410 P384 1.819 . S
C410 C411 1.391 . S
C410 C415 1.391 . S
C411 H393 0.941 . S
C411 C410 1.391 . S
C411 C412 1.396 . S
C412 H396 0.939 . S
C412 C411 1.396 . S
C412 C413 1.397 . S
C413 C412 1.397 . S
C413 C414 1.385 . S
C414 H397 0.940 . S
C414 C413 1.385 . S
C414 C415 1.388 . S
C415 H394 0.939 . S
C415 C410 1.391 . S
C415 C414 1.388 . S
P416 O427 1.490 . S
P416 C430 1.812 . S
P416 C436 1.803 . S
P416 C442 1.819 . S
H417 C431 0.941 . S
H418 C432 0.939 . S
H419 C434 0.940 . S
H420 C435 0.940 . S
H421 C437 0.939 . S
H422 C438 0.942 . S
H423 C440 0.940 . S
H424 C441 0.939 . S
H425 C443 0.941 . S
H426 C447 0.939 . S
O427 P416 1.490 . S
H428 C444 0.939 . S
H429 C446 0.940 . S
C430 P416 1.812 . S
C430 C431 1.389 . S
C430 C435 1.391 . S
C431 H417 0.941 . S
C431 C430 1.389 . S
C431 C432 1.397 . S
C432 H418 0.939 . S
C432 C431 1.397 . S
C432 C433 1.378 . S
C433 C432 1.378 . S
C433 C434 1.378 . S
C434 H419 0.940 . S
C434 C433 1.378 . S
C434 C435 1.396 . S
C435 H420 0.940 . S
C435 C430 1.391 . S
C435 C434 1.396 . S
C436 P416 1.803 . S
C436 C437 1.378 . S
C436 C441 1.400 . S
C437 H421 0.939 . S
C437 C436 1.378 . S
C437 C438 1.361 . S
C438 H422 0.942 . S
C438 C437 1.361 . S
C438 C439 1.369 . S
C439 C438 1.369 . S
C439 C440 1.404 . S
C440 H423 0.940 . S
C440 C439 1.404 . S
C440 C441 1.389 . S
C441 H424 0.939 . S
C441 C436 1.400 . S
C441 C440 1.389 . S
C442 P416 1.819 . S
C442 C443 1.391 . S
C442 C447 1.391 . S
C443 H425 0.941 . S
C443 C442 1.391 . S
C443 C444 1.396 . S
C444 H428 0.939 . S
C444 C443 1.396 . S
C444 C445 1.397 . S
C445 C444 1.397 . S
C445 C446 1.385 . S
C446 H429 0.940 . S
C446 C445 1.385 . S
C446 C447 1.388 . S
C447 H426 0.939 . S
C447 C442 1.391 . S
C447 C446 1.388 . S
P448 O459 1.490 . S
P448 C462 1.812 . S
P448 C468 1.803 . S
P448 C474 1.819 . S
H449 C463 0.941 . S
H450 C464 0.939 . S
H451 C466 0.940 . S
H452 C467 0.940 . S
H453 C469 0.939 . S
H454 C470 0.942 . S
H455 C472 0.940 . S
H456 C473 0.939 . S
H457 C475 0.941 . S
H458 C479 0.939 . S
O459 P448 1.490 . S
H460 C476 0.939 . S
H461 C478 0.940 . S
C462 P448 1.812 . S
C462 C463 1.389 . S
C462 C467 1.391 . S
C463 H449 0.941 . S
C463 C462 1.389 . S
C463 C464 1.397 . S
C464 H450 0.939 . S
C464 C463 1.397 . S
C464 C465 1.378 . S
C465 C464 1.378 . S
C465 C466 1.378 . S
C466 H451 0.940 . S
C466 C465 1.378 . S
C466 C467 1.396 . S
C467 H452 0.940 . S
C467 C462 1.391 . S
C467 C466 1.396 . S
C468 P448 1.803 . S
C468 C469 1.378 . S
C468 C473 1.400 . S
C469 H453 0.939 . S
C469 C468 1.378 . S
C469 C470 1.361 . S
C470 H454 0.942 . S
C470 C469 1.361 . S
C470 C471 1.369 . S
C471 C470 1.369 . S
C471 C472 1.404 . S
C472 H455 0.940 . S
C472 C471 1.404 . S
C472 C473 1.389 . S
C473 H456 0.939 . S
C473 C468 1.400 . S
C473 C472 1.389 . S
C474 P448 1.819 . S
C474 C475 1.391 . S
C474 C479 1.391 . S
C475 H457 0.941 . S
C475 C474 1.391 . S
C475 C476 1.396 . S
C476 H460 0.939 . S
C476 C475 1.396 . S
C476 C477 1.397 . S
C477 C476 1.397 . S
C477 C478 1.385 . S
C478 H461 0.940 . S
C478 C477 1.385 . S
C478 C479 1.388 . S
C479 H458 0.939 . S
C479 C474 1.391 . S
C479 C478 1.388 . S
P480 O491 1.490 . S
P480 C494 1.812 . S
P480 C500 1.803 . S
P480 C506 1.819 . S
H481 C495 0.941 . S
H482 C496 0.939 . S
H483 C498 0.940 . S
H484 C499 0.940 . S
H485 C501 0.939 . S
H486 C502 0.942 . S
H487 C504 0.940 . S
H488 C505 0.939 . S
H489 C507 0.941 . S
H490 C511 0.939 . S
O491 P480 1.490 . S
H492 C508 0.939 . S
H493 C510 0.940 . S
C494 P480 1.812 . S
C494 C495 1.389 . S
C494 C499 1.391 . S
C495 H481 0.941 . S
C495 C494 1.389 . S
C495 C496 1.397 . S
C496 H482 0.939 . S
C496 C495 1.397 . S
C496 C497 1.378 . S
C497 C496 1.378 . S
C497 C498 1.378 . S
C498 H483 0.940 . S
C498 C497 1.378 . S
C498 C499 1.396 . S
C499 H484 0.940 . S
C499 C494 1.391 . S
C499 C498 1.396 . S
C500 P480 1.803 . S
C500 C501 1.378 . S
C500 C505 1.400 . S
C501 H485 0.939 . S
C501 C500 1.378 . S
C501 C502 1.361 . S
C502 H486 0.942 . S
C502 C501 1.361 . S
C502 C503 1.369 . S
C503 C502 1.369 . S
C503 C504 1.404 . S
C504 H487 0.940 . S
C504 C503 1.404 . S
C504 C505 1.389 . S
C505 H488 0.939 . S
C505 C500 1.400 . S
C505 C504 1.389 . S
C506 P480 1.819 . S
C506 C507 1.391 . S
C506 C511 1.391 . S
C507 H489 0.941 . S
C507 C506 1.391 . S
C507 C508 1.396 . S
C508 H492 0.939 . S
C508 C507 1.396 . S
C508 C509 1.397 . S
C509 C508 1.397 . S
C509 C510 1.385 . S
C510 H493 0.940 . S
C510 C509 1.385 . S
C510 C511 1.388 . S
C511 H490 0.939 . S
C511 C506 1.391 . S
C511 C510 1.388 . S
P512 O523 1.490 . S
P512 C526 1.812 . S
P512 C532 1.803 . S
P512 C538 1.819 . S
H513 C527 0.941 . S
H514 C528 0.939 . S
H515 C530 0.940 . S
H516 C531 0.940 . S
H517 C533 0.939 . S
H518 C534 0.942 . S
H519 C536 0.940 . S
H520 C537 0.939 . S
H521 C539 0.941 . S
H522 C543 0.939 . S
O523 P512 1.490 . S
H524 C540 0.939 . S
H525 C542 0.940 . S
C526 P512 1.812 . S
C526 C527 1.389 . S
C526 C531 1.391 . S
C527 H513 0.941 . S
C527 C526 1.389 . S
C527 C528 1.397 . S
C528 H514 0.939 . S
C528 C527 1.397 . S
C528 C529 1.378 . S
C529 C528 1.378 . S
C529 C530 1.378 . S
C530 H515 0.940 . S
C530 C529 1.378 . S
C530 C531 1.396 . S
C531 H516 0.940 . S
C531 C526 1.391 . S
C531 C530 1.396 . S
C532 P512 1.803 . S
C532 C533 1.378 . S
C532 C537 1.400 . S
C533 H517 0.939 . S
C533 C532 1.378 . S
C533 C534 1.361 . S
C534 H518 0.942 . S
C534 C533 1.361 . S
C534 C535 1.369 . S
C535 C534 1.369 . S
C535 C536 1.404 . S
C536 H519 0.940 . S
C536 C535 1.404 . S
C536 C537 1.389 . S
C537 H520 0.939 . S
C537 C532 1.400 . S
C537 C536 1.389 . S
C538 P512 1.819 . S
C538 C539 1.391 . S
C538 C543 1.391 . S
C539 H521 0.941 . S
C539 C538 1.391 . S
C539 C540 1.396 . S
C540 H524 0.939 . S
C540 C539 1.396 . S
C540 C541 1.397 . S
C541 C540 1.397 . S
C541 C542 1.385 . S
C542 H525 0.940 . S
C542 C541 1.385 . S
C542 C543 1.388 . S
C543 H522 0.939 . S
C543 C538 1.391 . S
C543 C542 1.388 . S
P544 O555 1.490 . S
P544 C558 1.812 . S
P544 C564 1.803 . S
P544 C570 1.819 . S
H545 C559 0.941 . S
H546 C560 0.939 . S
H547 C562 0.940 . S
H548 C563 0.940 . S
H549 C565 0.939 . S
H550 C566 0.942 . S
H551 C568 0.940 . S
H552 C569 0.939 . S
H553 C571 0.941 . S
H554 C575 0.939 . S
O555 P544 1.490 . S
H556 C572 0.939 . S
H557 C574 0.940 . S
C558 P544 1.812 . S
C558 C559 1.389 . S
C558 C563 1.391 . S
C559 H545 0.941 . S
C559 C558 1.389 . S
C559 C560 1.397 . S
C560 H546 0.939 . S
C560 C559 1.397 . S
C560 C561 1.378 . S
C561 C560 1.378 . S
C561 C562 1.378 . S
C562 H547 0.940 . S
C562 C561 1.378 . S
C562 C563 1.396 . S
C563 H548 0.940 . S
C563 C558 1.391 . S
C563 C562 1.396 . S
C564 P544 1.803 . S
C564 C565 1.378 . S
C564 C569 1.400 . S
C565 H549 0.939 . S
C565 C564 1.378 . S
C565 C566 1.361 . S
C566 H550 0.942 . S
C566 C565 1.361 . S
C566 C567 1.369 . S
C567 C566 1.369 . S
C567 C568 1.404 . S
C568 H551 0.940 . S
C568 C567 1.404 . S
C568 C569 1.389 . S
C569 H552 0.939 . S
C569 C564 1.400 . S
C569 C568 1.389 . S
C570 P544 1.819 . S
C570 C571 1.391 . S
C570 C575 1.391 . S
C571 H553 0.941 . S
C571 C570 1.391 . S
C571 C572 1.396 . S
C572 H556 0.939 . S
C572 C571 1.396 . S
C572 C573 1.397 . S
C573 C572 1.397 . S
C573 C574 1.385 . S
C574 H557 0.940 . S
C574 C573 1.385 . S
C574 C575 1.388 . S
C575 H554 0.939 . S
C575 C570 1.391 . S
C575 C574 1.388 . S
Tb576 O579 2.453 . S
Tb576 O580 2.596 1_545 S
Tb576 O581 2.374 1_545 S
Tb576 O589 2.343 1_554 S
Tb576 O591 2.353 . S
Tb576 O593 2.427 1_554 S
Tb576 O594 2.513 1_554 S
C577 O581 1.251 . S
C577 O583 1.260 . S
Tb578 O580 2.343 1_556 S
Tb578 O583 2.354 1_556 S
Tb578 O586 2.427 1_556 S
Tb578 O587 2.513 1_556 S
Tb578 O588 2.453 . S
Tb578 O589 2.596 1_565 S
Tb578 O590 2.374 1_565 S
O579 Tb576 2.453 . S
O579 C595 1.245 . S
O580 Tb576 2.596 1_565 S
O580 Tb578 2.343 1_554 S
O580 C595 1.259 1_565 S
O581 Tb576 2.374 1_565 S
O581 C577 1.251 . S
C582 O586 1.275 . S
C582 O587 1.246 . S
O583 C577 1.260 . S
O583 Tb578 2.354 1_554 S
C584 O588 1.213 1_545 S
C584 O589 1.267 . S
C585 O590 1.250 . S
C585 O591 1.263 1_556 S
O586 Tb578 2.427 1_554 S
O586 C582 1.275 . S
O587 Tb578 2.513 1_554 S
O587 C582 1.246 . S
O588 Tb578 2.453 . S
O588 C584 1.213 1_565 S
O589 Tb576 2.343 1_556 S
O589 Tb578 2.596 1_545 S
O589 C584 1.267 . S
O590 Tb578 2.374 1_545 S
O590 C585 1.250 . S
O591 Tb576 2.353 . S
O591 C585 1.263 1_554 S
C592 O593 1.275 . S
C592 O594 1.246 . S
O593 Tb576 2.427 1_556 S
O593 C592 1.275 . S
O594 Tb576 2.513 1_556 S
O594 C592 1.246 . S
C595 O579 1.245 . S
C595 O580 1.259 1_545 S
Tb596 O599 2.453 . S
Tb596 O600 2.596 1_655 S
Tb596 O601 2.374 1_655 S
Tb596 O609 2.343 1_554 S
Tb596 O611 2.353 . S
Tb596 O613 2.427 1_554 S
Tb596 O614 2.513 1_554 S
C597 O601 1.251 . S
C597 O603 1.263 . S
Tb598 O600 2.343 1_556 S
Tb598 O603 2.353 1_556 S
Tb598 O606 2.427 1_556 S
Tb598 O607 2.513 1_556 S
Tb598 O608 2.453 . S
Tb598 O609 2.596 1_455 S
Tb598 O610 2.374 1_455 S
O599 Tb596 2.453 . S
O599 C615 1.245 1_655 S
O600 Tb596 2.596 1_455 S
O600 Tb598 2.343 1_554 S
O600 C615 1.259 . S
O601 Tb596 2.374 1_455 S
O601 C597 1.251 . S
C602 O606 1.275 . S
C602 O607 1.246 . S
O603 C597 1.263 . S
O603 Tb598 2.353 1_554 S
C604 O608 1.275 . S
C604 O609 1.249 1_455 S
C605 O610 1.250 . S
C605 O611 1.263 1_556 S
O606 Tb598 2.427 1_554 S
O606 C602 1.275 . S
O607 Tb598 2.513 1_554 S
O607 C602 1.246 . S
O608 Tb598 2.453 . S
O608 C604 1.275 . S
O609 Tb596 2.343 1_556 S
O609 Tb598 2.596 1_655 S
O609 C604 1.249 1_655 S
O610 Tb598 2.374 1_655 S
O610 C605 1.250 . S
O611 Tb596 2.353 . S
O611 C605 1.263 1_554 S
C612 O613 1.275 . S
C612 O614 1.246 . S
O613 Tb596 2.427 1_556 S
O613 C612 1.275 . S
O614 Tb596 2.513 1_556 S
O614 C612 1.246 . S
C615 O599 1.245 1_455 S
C615 O600 1.259 . S
Tb616 O619 2.453 . S
Tb616 O620 2.596 . S
Tb616 O621 2.374 . S
Tb616 O629 2.343 1_556 S
Tb616 O631 2.353 1_556 S
Tb616 O633 2.427 1_556 S
Tb616 O634 2.513 1_556 S
C617 O621 1.251 . S
C617 O623 1.263 1_556 S
Tb618 O620 2.343 1_554 S
Tb618 O623 2.353 . S
Tb618 O626 2.427 1_554 S
Tb618 O627 2.513 1_554 S
Tb618 O628 2.453 . S
Tb618 O629 2.596 . S
Tb618 O630 2.374 . S
O619 Tb616 2.453 . S
O619 C635 1.245 . S
O620 Tb616 2.596 . S
O620 Tb618 2.343 1_556 S
O620 C635 1.259 . S
O621 Tb616 2.374 . S
O621 C617 1.251 . S
C622 O626 1.275 . S
C622 O627 1.246 . S
O623 C617 1.263 1_554 S
O623 Tb618 2.353 . S
C624 O628 1.245 . S
C624 O629 1.259 . S
C625 O630 1.250 . S
C625 O631 1.263 . S
O626 Tb618 2.427 1_556 S
O626 C622 1.275 . S
O627 Tb618 2.513 1_556 S
O627 C622 1.246 . S
O628 Tb618 2.453 . S
O628 C624 1.245 . S
O629 Tb616 2.343 1_554 S
O629 Tb618 2.596 . S
O629 C624 1.259 . S
O630 Tb618 2.374 . S
O630 C625 1.250 . S
O631 Tb616 2.353 1_554 S
O631 C625 1.263 . S
C632 O633 1.275 . S
C632 O634 1.246 . S
O633 Tb616 2.427 1_554 S
O633 C632 1.275 . S
O634 Tb616 2.513 1_554 S
O634 C632 1.246 . S
C635 O619 1.245 . S
C635 O620 1.259 . S
Tb636 O639 2.453 . S
Tb636 O640 2.596 . S
Tb636 O641 2.374 . S
Tb636 O649 2.343 . S
Tb636 O651 2.353 . S
Tb636 O653 2.427 . S
Tb636 O654 2.513 . S
C637 O641 1.251 . S
C637 O643 1.263 . S
Tb638 O640 2.343 . S
Tb638 O643 2.353 . S
Tb638 O646 2.427 . S
Tb638 O647 2.513 . S
Tb638 O648 2.453 . S
Tb638 O649 2.596 . S
Tb638 O650 2.374 . S
O639 Tb636 2.453 . S
O639 C655 1.245 . S
O640 Tb636 2.596 . S
O640 Tb638 2.343 . S
O640 C655 1.259 . S
O641 Tb636 2.374 . S
O641 C637 1.251 . S
C642 O646 1.275 . S
C642 O647 1.246 . S
O643 C637 1.263 . S
O643 Tb638 2.353 . S
C644 O648 1.245 . S
C644 O649 1.259 . S
C645 O650 1.250 . S
C645 O651 1.263 . S
O646 Tb638 2.427 . S
O646 C642 1.275 . S
O647 Tb638 2.513 . S
O647 C642 1.246 . S
O648 Tb638 2.453 . S
O648 C644 1.245 . S
O649 Tb636 2.343 . S
O649 Tb638 2.596 . S
O649 C644 1.259 . S
O650 Tb638 2.374 . S
O650 C645 1.250 . S
O651 Tb636 2.353 . S
O651 C645 1.263 . S
C652 O653 1.275 . S
C652 O654 1.246 . S
O653 Tb636 2.427 . S
O653 C652 1.275 . S
O654 Tb636 2.513 . S
O654 C652 1.246 . S
C655 O639 1.245 . S
C655 O640 1.259 . S
Tb656 O659 2.453 . S
Tb656 O660 2.596 . S
Tb656 O661 2.374 . S
Tb656 O669 2.343 . S
Tb656 O671 2.353 . S
Tb656 O673 2.427 . S
Tb656 O674 2.513 . S
C657 O661 1.251 . S
C657 O663 1.263 . S
Tb658 O660 2.343 . S
Tb658 O663 2.353 . S
Tb658 O666 2.427 . S
Tb658 O667 2.513 . S
Tb658 O668 2.453 . S
Tb658 O669 2.596 . S
Tb658 O670 2.374 . S
O659 Tb656 2.453 . S
O659 C675 1.245 . S
O660 Tb656 2.596 . S
O660 Tb658 2.343 . S
O660 C675 1.259 . S
O661 Tb656 2.374 . S
O661 C657 1.251 . S
C662 O666 1.275 . S
C662 O667 1.246 . S
O663 C657 1.263 . S
O663 Tb658 2.353 . S
C664 O668 1.245 . S
C664 O669 1.259 . S
C665 O670 1.250 . S
C665 O671 1.263 . S
O666 Tb658 2.427 . S
O666 C662 1.275 . S
O667 Tb658 2.513 . S
O667 C662 1.246 . S
O668 Tb658 2.453 . S
O668 C664 1.245 . S
O669 Tb656 2.343 . S
O669 Tb658 2.596 . S
O669 C664 1.259 . S
O670 Tb658 2.374 . S
O670 C665 1.250 . S
O671 Tb656 2.353 . S
O671 C665 1.263 . S
C672 O673 1.275 . S
C672 O674 1.246 . S
O673 Tb656 2.427 . S
O673 C672 1.275 . S
O674 Tb656 2.513 . S
O674 C672 1.246 . S
C675 O659 1.245 . S
C675 O660 1.259 . S
Tb676 O679 2.453 . S
Tb676 O680 2.596 . S
Tb676 O681 2.374 . S
Tb676 O689 2.343 . S
Tb676 O691 2.353 . S
Tb676 O693 2.427 . S
Tb676 O694 2.513 . S
C677 O681 1.251 . S
C677 O683 1.263 . S
Tb678 O680 2.343 . S
Tb678 O683 2.353 . S
Tb678 O686 2.427 . S
Tb678 O687 2.513 . S
Tb678 O688 2.453 . S
Tb678 O689 2.596 . S
Tb678 O690 2.374 . S
O679 Tb676 2.453 . S
O679 C695 1.245 . S
O680 Tb676 2.596 . S
O680 Tb678 2.343 . S
O680 C695 1.259 . S
O681 Tb676 2.374 . S
O681 C677 1.251 . S
C682 O686 1.275 . S
C682 O687 1.246 . S
O683 C677 1.263 . S
O683 Tb678 2.353 . S
C684 O688 1.245 . S
C684 O689 1.259 . S
C685 O690 1.250 . S
C685 O691 1.263 . S
O686 Tb678 2.427 . S
O686 C682 1.275 . S
O687 Tb678 2.513 . S
O687 C682 1.246 . S
O688 Tb678 2.453 . S
O688 C684 1.245 . S
O689 Tb676 2.343 . S
O689 Tb678 2.596 . S
O689 C684 1.259 . S
O690 Tb678 2.374 . S
O690 C685 1.250 . S
O691 Tb676 2.353 . S
O691 C685 1.263 . S
C692 O693 1.275 . S
C692 O694 1.246 . S
O693 Tb676 2.427 . S
O693 C692 1.275 . S
O694 Tb676 2.513 . S
O694 C692 1.246 . S
C695 O679 1.245 . S
C695 O680 1.259 . S
Tb696 O699 2.453 . S
Tb696 O700 2.596 . S
Tb696 O701 2.374 . S
Tb696 O709 2.343 . S
Tb696 O711 2.353 . S
Tb696 O713 2.427 . S
Tb696 O714 2.513 . S
C697 O701 1.251 . S
C697 O703 1.263 . S
Tb698 O700 2.343 . S
Tb698 O703 2.353 . S
Tb698 O706 2.427 . S
Tb698 O707 2.513 . S
Tb698 O708 2.453 . S
Tb698 O709 2.596 . S
Tb698 O710 2.374 . S
O699 Tb696 2.453 . S
O699 C715 1.245 . S
O700 Tb696 2.596 . S
O700 Tb698 2.343 . S
O700 C715 1.259 . S
O701 Tb696 2.374 . S
O701 C697 1.251 . S
C702 O706 1.275 . S
C702 O707 1.246 . S
O703 C697 1.263 . S
O703 Tb698 2.353 . S
C704 O708 1.245 . S
C704 O709 1.259 . S
C705 O710 1.250 . S
C705 O711 1.263 . S
O706 Tb698 2.427 . S
O706 C702 1.275 . S
O707 Tb698 2.513 . S
O707 C702 1.246 . S
O708 Tb698 2.453 . S
O708 C704 1.245 . S
O709 Tb696 2.343 . S
O709 Tb698 2.596 . S
O709 C704 1.259 . S
O710 Tb698 2.374 . S
O710 C705 1.250 . S
O711 Tb696 2.353 . S
O711 C705 1.263 . S
C712 O713 1.275 . S
C712 O714 1.246 . S
O713 Tb696 2.427 . S
O713 C712 1.275 . S
O714 Tb696 2.513 . S
O714 C712 1.246 . S
C715 O699 1.245 . S
C715 O700 1.259 . S
Tb716 O719 2.453 . S
Tb716 O720 2.596 . S
Tb716 O721 2.374 . S
Tb716 O729 2.343 . S
Tb716 O731 2.353 . S
Tb716 O733 2.427 . S
Tb716 O734 2.513 . S
C717 O721 1.251 . S
C717 O723 1.263 . S
Tb718 O720 2.343 . S
Tb718 O723 2.353 . S
Tb718 O726 2.427 . S
Tb718 O727 2.513 . S
Tb718 O728 2.453 . S
Tb718 O729 2.596 . S
Tb718 O730 2.374 . S
O719 Tb716 2.453 . S
O719 C735 1.245 . S
O720 Tb716 2.596 . S
O720 Tb718 2.343 . S
O720 C735 1.259 . S
O721 Tb716 2.374 . S
O721 C717 1.251 . S
C722 O726 1.275 . S
C722 O727 1.246 . S
O723 C717 1.263 . S
O723 Tb718 2.353 . S
C724 O728 1.245 . S
C724 O729 1.259 . S
C725 O730 1.250 . S
C725 O731 1.263 . S
O726 Tb718 2.427 . S
O726 C722 1.275 . S
O727 Tb718 2.513 . S
O727 C722 1.246 . S
O728 Tb718 2.453 . S
O728 C724 1.245 . S
O729 Tb716 2.343 . S
O729 Tb718 2.596 . S
O729 C724 1.259 . S
O730 Tb718 2.374 . S
O730 C725 1.250 . S
O731 Tb716 2.353 . S
O731 C725 1.263 . S
C732 O733 1.275 . S
C732 O734 1.246 . S
O733 Tb716 2.427 . S
O733 C732 1.275 . S
O734 Tb716 2.513 . S
O734 C732 1.246 . S
C735 O719 1.245 . S
C735 O720 1.259 . S
Tb736 O739 2.453 . S
Tb736 O740 2.596 . S
Tb736 O741 2.374 . S
Tb736 O749 2.343 . S
Tb736 O751 2.353 . S
Tb736 O753 2.427 . S
Tb736 O754 2.513 . S
C737 O741 1.251 . S
C737 O743 1.263 . S
Tb738 O740 2.343 . S
Tb738 O743 2.353 . S
Tb738 O746 2.427 . S
Tb738 O747 2.513 . S
Tb738 O748 2.453 . S
Tb738 O749 2.596 . S
Tb738 O750 2.374 . S
O739 Tb736 2.453 . S
O739 C755 1.245 . S
O740 Tb736 2.596 . S
O740 Tb738 2.343 . S
O740 C755 1.259 . S
O741 Tb736 2.374 . S
O741 C737 1.251 . S
C742 O746 1.275 . S
C742 O747 1.246 . S
O743 C737 1.263 . S
O743 Tb738 2.353 . S
C744 O748 1.245 . S
C744 O749 1.259 . S
C745 O750 1.250 . S
C745 O751 1.263 . S
O746 Tb738 2.427 . S
O746 C742 1.275 . S
O747 Tb738 2.513 . S
O747 C742 1.246 . S
O748 Tb738 2.453 . S
O748 C744 1.245 . S
O749 Tb736 2.343 . S
O749 Tb738 2.596 . S
O749 C744 1.259 . S
O750 Tb738 2.374 . S
O750 C745 1.250 . S
O751 Tb736 2.353 . S
O751 C745 1.263 . S
C752 O753 1.275 . S
C752 O754 1.246 . S
O753 Tb736 2.427 . S
O753 C752 1.275 . S
O754 Tb736 2.513 . S
O754 C752 1.246 . S
C755 O739 1.245 . S
C755 O740 1.259 . S
H756 C764 0.929 . S
H757 C766 0.930 . S
H758 C768 0.930 . S
H759 C771 0.929 . S
H760 C774 0.930 . S
H761 C776 0.960 . S
H762 C776 0.960 . S
H763 C776 0.960 . S
C764 H756 0.929 . S
C764 C765 1.377 . S
C764 C766 1.384 . S
C765 C764 1.377 . S
C765 C771 1.390 . S
C766 H757 0.930 . S
C766 C764 1.384 . S
C766 C767 1.372 . S
C767 C766 1.372 . S
C767 C768 1.400 . S
C767 C772 1.490 . S
C768 H758 0.930 . S
C768 C767 1.400 . S
C768 C771 1.386 . S
H769 C785 0.930 . S
H770 C786 0.931 . S
C771 H759 0.929 . S
C771 C765 1.390 . S
C771 C768 1.386 . S
C772 C767 1.490 . S
C772 C774 1.395 . S
C772 C775 1.403 . S
H773 C779 0.930 . S
C774 H760 0.930 . S
C774 C772 1.395 . S
C774 C777 1.403 . S
C775 C772 1.403 . S
C775 C776 1.524 . S
C775 C779 1.400 . S
C776 H761 0.960 . S
C776 H762 0.960 . S
C776 H763 0.960 . S
C776 C775 1.524 . S
C777 C774 1.403 . S
C777 C778 1.392 . S
C777 C781 1.495 . S
C778 C777 1.392 . S
C778 C779 1.385 . S
C778 C780 1.478 . S
C779 H773 0.930 . S
C779 C775 1.400 . S
C779 C778 1.385 . S
C780 C778 1.478 . S
C780 C782 1.381 . S
C780 C786 1.383 . S
C781 C777 1.495 . S
C781 H787 0.959 . S
C781 H788 0.961 . S
C781 H789 0.960 . S
C782 C780 1.381 . S
C782 C783 1.394 . S
C782 H790 0.930 . S
C783 C782 1.394 . S
C783 C784 1.383 . S
C783 H791 0.929 . S
C784 C783 1.383 . S
C784 C785 1.377 . S
C785 H769 0.930 . S
C785 C784 1.377 . S
C785 C786 1.379 . S
C786 H770 0.931 . S
C786 C780 1.383 . S
C786 C785 1.379 . S
H787 C781 0.959 . S
H788 C781 0.961 . S
H789 C781 0.960 . S
H790 C782 0.930 . S
H791 C783 0.929 . S
H792 C800 0.929 . S
H793 C802 0.930 . S
H794 C804 0.930 . S
H795 C807 0.929 . S
H796 C810 0.930 . S
H797 C812 0.960 . S
H798 C812 0.960 . S
H799 C812 0.960 . S
C800 H792 0.929 . S
C800 C801 1.377 . S
C800 C802 1.384 . S
C801 C800 1.377 . S
C801 C807 1.390 . S
C802 H793 0.930 . S
C802 C800 1.384 . S
C802 C803 1.372 . S
C803 C802 1.372 . S
C803 C804 1.400 . S
C803 C808 1.490 . S
C804 H794 0.930 . S
C804 C803 1.400 . S
C804 C807 1.386 . S
H805 C821 0.930 . S
H806 C822 0.931 . S
C807 H795 0.929 . S
C807 C801 1.390 . S
C807 C804 1.386 . S
C808 C803 1.490 . S
C808 C810 1.395 . S
C808 C811 1.403 . S
H809 C815 0.930 . S
C810 H796 0.930 . S
C810 C808 1.395 . S
C810 C813 1.403 . S
C811 C808 1.403 . S
C811 C812 1.524 . S
C811 C815 1.400 . S
C812 H797 0.960 . S
C812 H798 0.960 . S
C812 H799 0.960 . S
C812 C811 1.524 . S
C813 C810 1.403 . S
C813 C814 1.392 . S
C813 C817 1.495 . S
C814 C813 1.392 . S
C814 C815 1.385 . S
C814 C816 1.478 . S
C815 H809 0.930 . S
C815 C811 1.400 . S
C815 C814 1.385 . S
C816 C814 1.478 . S
C816 C818 1.381 . S
C816 C822 1.383 . S
C817 C813 1.495 . S
C817 H823 0.959 . S
C817 H824 0.961 . S
C817 H825 0.960 . S
C818 C816 1.381 . S
C818 C819 1.394 . S
C818 H826 0.930 . S
C819 C818 1.394 . S
C819 C820 1.383 . S
C819 H827 0.929 . S
C820 C819 1.383 . S
C820 C821 1.377 . S
C821 H805 0.930 . S
C821 C820 1.377 . S
C821 C822 1.379 . S
C822 H806 0.931 . S
C822 C816 1.383 . S
C822 C821 1.379 . S
H823 C817 0.959 . S
H824 C817 0.961 . S
H825 C817 0.960 . S
H826 C818 0.930 . S
H827 C819 0.929 . S
H828 C836 0.929 . S
H829 C838 0.930 . S
H830 C840 0.930 . S
H831 C843 0.929 . S
H832 C846 0.930 . S
H833 C848 0.960 . S
H834 C848 0.960 . S
H835 C848 0.960 . S
C836 H828 0.929 . S
C836 C837 1.377 . S
C836 C838 1.384 . S
C837 C836 1.377 . S
C837 C843 1.390 . S
C838 H829 0.930 . S
C838 C836 1.384 . S
C838 C839 1.372 . S
C839 C838 1.372 . S
C839 C840 1.400 . S
C839 C844 1.490 . S
C840 H830 0.930 . S
C840 C839 1.400 . S
C840 C843 1.386 . S
H841 C857 0.930 . S
H842 C858 0.931 . S
C843 H831 0.929 . S
C843 C837 1.390 . S
C843 C840 1.386 . S
C844 C839 1.490 . S
C844 C846 1.395 . S
C844 C847 1.403 . S
H845 C851 0.930 . S
C846 H832 0.930 . S
C846 C844 1.395 . S
C846 C849 1.403 . S
C847 C844 1.403 . S
C847 C848 1.524 . S
C847 C851 1.400 . S
C848 H833 0.960 . S
C848 H834 0.960 . S
C848 H835 0.960 . S
C848 C847 1.524 . S
C849 C846 1.403 . S
C849 C850 1.392 . S
C849 C853 1.495 . S
C850 C849 1.392 . S
C850 C851 1.385 . S
C850 C852 1.478 . S
C851 H845 0.930 . S
C851 C847 1.400 . S
C851 C850 1.385 . S
C852 C850 1.478 . S
C852 C854 1.381 . S
C852 C858 1.383 . S
C853 C849 1.495 . S
C853 H859 0.959 1_554 S
C853 H860 0.961 . S
C853 H861 0.960 1_554 S
C854 C852 1.381 . S
C854 C855 1.394 . S
C854 H862 0.930 . S
C855 C854 1.394 . S
C855 C856 1.383 . S
C855 H863 0.929 . S
C856 C855 1.383 . S
C856 C857 1.377 . S
C857 H841 0.930 . S
C857 C856 1.377 . S
C857 C858 1.379 . S
C858 H842 0.931 . S
C858 C852 1.383 . S
C858 C857 1.379 . S
H859 C853 0.959 1_556 S
H860 C853 0.961 . S
H861 C853 0.960 1_556 S
H862 C854 0.930 . S
H863 C855 0.929 . S
H864 C872 0.929 . S
H865 C874 0.930 . S
H866 C876 0.930 . S
H867 C879 0.929 . S
H868 C882 0.930 . S
H869 C884 0.960 . S
H870 C884 0.960 . S
H871 C884 0.960 . S
C872 H864 0.929 . S
C872 C873 1.377 . S
C872 C874 1.384 . S
C873 C872 1.377 . S
C873 C879 1.390 . S
C874 H865 0.930 . S
C874 C872 1.384 . S
C874 C875 1.372 . S
C875 C874 1.372 . S
C875 C876 1.400 . S
C875 C880 1.490 . S
C876 H866 0.930 . S
C876 C875 1.400 . S
C876 C879 1.386 . S
H877 C893 0.930 . S
H878 C894 0.931 . S
C879 H867 0.929 . S
C879 C873 1.390 . S
C879 C876 1.386 . S
C880 C875 1.490 . S
C880 C882 1.395 . S
C880 C883 1.403 . S
H881 C887 0.930 . S
C882 H868 0.930 . S
C882 C880 1.395 . S
C882 C885 1.403 . S
C883 C880 1.403 . S
C883 C884 1.524 . S
C883 C887 1.400 . S
C884 H869 0.960 . S
C884 H870 0.960 . S
C884 H871 0.960 . S
C884 C883 1.524 . S
C885 C882 1.403 . S
C885 C886 1.392 . S
C885 C889 1.495 . S
C886 C885 1.392 . S
C886 C887 1.385 . S
C886 C888 1.478 . S
C887 H881 0.930 . S
C887 C883 1.400 . S
C887 C886 1.385 . S
C888 C886 1.478 . S
C888 C890 1.381 . S
C888 C894 1.383 . S
C889 C885 1.495 . S
C889 H895 0.959 . S
C889 H896 0.961 1_556 S
C889 H897 0.960 . S
C890 C888 1.381 . S
C890 C891 1.394 . S
C890 H898 0.930 . S
C891 C890 1.394 . S
C891 C892 1.383 . S
C891 H899 0.929 . S
C892 C891 1.383 . S
C892 C893 1.377 . S
C893 H877 0.930 . S
C893 C892 1.377 . S
C893 C894 1.379 . S
C894 H878 0.931 . S
C894 C888 1.383 . S
C894 C893 1.379 . S
H895 C889 0.959 . S
H896 C889 0.961 1_554 S
H897 C889 0.960 . S
H898 C890 0.930 . S
H899 C891 0.929 . S
H900 C908 0.929 . S
H901 C910 0.930 . S
H902 C912 0.930 . S
H903 C915 0.929 . S
H904 C918 0.930 . S
H905 C920 0.960 . S
H906 C920 0.960 . S
H907 C920 0.960 . S
C908 H900 0.929 . S
C908 C909 1.377 . S
C908 C910 1.384 . S
C909 C908 1.377 . S
C909 C915 1.390 . S
C910 H901 0.930 . S
C910 C908 1.384 . S
C910 C911 1.372 . S
C911 C910 1.372 . S
C911 C912 1.400 . S
C911 C916 1.490 . S
C912 H902 0.930 . S
C912 C911 1.400 . S
C912 C915 1.386 . S
H913 C929 0.930 . S
H914 C930 0.931 . S
C915 H903 0.929 . S
C915 C909 1.390 . S
C915 C912 1.386 . S
C916 C911 1.490 . S
C916 C918 1.395 . S
C916 C919 1.403 . S
H917 C923 0.930 . S
C918 H904 0.930 . S
C918 C916 1.395 . S
C918 C921 1.403 . S
C919 C916 1.403 . S
C919 C920 1.524 . S
C919 C923 1.400 . S
C920 H905 0.960 . S
C920 H906 0.960 . S
C920 H907 0.960 . S
C920 C919 1.524 . S
C921 C918 1.403 . S
C921 C922 1.392 . S
C921 C925 1.495 . S
C922 C921 1.392 . S
C922 C923 1.385 . S
C922 C924 1.478 . S
C923 H917 0.930 . S
C923 C919 1.400 . S
C923 C922 1.385 . S
C924 C922 1.478 . S
C924 C926 1.381 . S
C924 C930 1.383 . S
C925 C921 1.495 . S
C925 H931 0.959 . S
C925 H932 0.961 . S
C925 H933 0.960 . S
C926 C924 1.381 . S
C926 C927 1.394 . S
C926 H934 0.930 . S
C927 C926 1.394 . S
C927 C928 1.383 . S
C927 H935 0.929 . S
C928 C927 1.383 . S
C928 C929 1.377 . S
C929 H913 0.930 . S
C929 C928 1.377 . S
C929 C930 1.379 . S
C930 H914 0.931 . S
C930 C924 1.383 . S
C930 C929 1.379 . S
H931 C925 0.959 . S
H932 C925 0.961 . S
H933 C925 0.960 . S
H934 C926 0.930 . S
H935 C927 0.929 . S
H936 C944 0.929 . S
H937 C946 0.930 . S
H938 C948 0.930 . S
H939 C951 0.929 . S
H940 C954 0.930 . S
H941 C956 0.960 . S
H942 C956 0.960 . S
H943 C956 0.960 . S
C944 H936 0.929 . S
C944 C945 1.377 . S
C944 C946 1.384 . S
C945 C944 1.377 . S
C945 C951 1.390 . S
C946 H937 0.930 . S
C946 C944 1.384 . S
C946 C947 1.372 . S
C947 C946 1.372 . S
C947 C948 1.400 . S
C947 C952 1.490 . S
C948 H938 0.930 . S
C948 C947 1.400 . S
C948 C951 1.386 . S
H949 C965 0.930 1_554 S
H950 C966 0.931 . S
C951 H939 0.929 . S
C951 C945 1.390 . S
C951 C948 1.386 . S
C952 C947 1.490 . S
C952 C954 1.395 . S
C952 C955 1.403 . S
H953 C959 0.930 . S
C954 H940 0.930 . S
C954 C952 1.395 . S
C954 C957 1.403 . S
C955 C952 1.403 . S
C955 C956 1.524 . S
C955 C959 1.400 . S
C956 H941 0.960 . S
C956 H942 0.960 . S
C956 H943 0.960 . S
C956 C955 1.524 . S
C957 C954 1.403 . S
C957 C958 1.392 . S
C957 C961 1.495 . S
C958 C957 1.392 . S
C958 C959 1.385 . S
C958 C960 1.478 . S
C959 H953 0.930 . S
C959 C955 1.400 . S
C959 C958 1.385 . S
C960 C958 1.478 . S
C960 C962 1.381 . S
C960 C966 1.383 . S
C961 C957 1.495 . S
C961 H967 0.959 . S
C961 H968 0.961 . S
C961 H969 0.960 . S
C962 C960 1.381 . S
C962 C963 1.394 . S
C962 H970 0.930 . S
C963 C962 1.394 . S
C963 C964 1.383 . S
C963 H971 0.929 . S
C964 C963 1.383 . S
C964 C965 1.377 . S
C965 H949 0.930 1_556 S
C965 C964 1.377 . S
C965 C966 1.379 . S
C966 H950 0.931 . S
C966 C960 1.383 . S
C966 C965 1.379 . S
H967 C961 0.959 . S
H968 C961 0.961 . S
H969 C961 0.960 . S
H970 C962 0.930 . S
H971 C963 0.929 . S
H972 C980 0.929 . S
H973 C982 0.930 . S
H974 C984 0.930 . S
H975 C987 0.929 . S
H976 C990 0.930 . S
H977 C992 0.960 . S
H978 C992 0.960 . S
H979 C992 0.960 . S
C980 H972 0.929 . S
C980 C981 1.377 . S
C980 C982 1.384 . S
C981 C980 1.377 . S
C981 C987 1.390 . S
C982 H973 0.930 . S
C982 C980 1.384 . S
C982 C983 1.372 . S
C983 C982 1.372 . S
C983 C984 1.400 . S
C983 C988 1.490 . S
C984 H974 0.930 . S
C984 C983 1.400 . S
C984 C987 1.386 . S
H985 C1001 0.911 1_554 S
H986 C1002 0.931 . S
C987 H975 0.929 . S
C987 C981 1.390 . S
C987 C984 1.386 . S
C988 C983 1.490 . S
C988 C990 1.395 . S
C988 C991 1.403 . S
H989 C995 0.930 . S
C990 H976 0.930 . S
C990 C988 1.395 . S
C990 C993 1.403 . S
C991 C988 1.403 . S
C991 C992 1.524 . S
C991 C995 1.400 . S
C992 H977 0.960 . S
C992 H978 0.960 . S
C992 H979 0.960 . S
C992 C991 1.524 . S
C993 C990 1.403 . S
C993 C994 1.392 . S
C993 C997 1.495 . S
C994 C993 1.392 . S
C994 C995 1.385 . S
C994 C996 1.478 . S
C995 H989 0.930 . S
C995 C991 1.400 . S
C995 C994 1.385 . S
C996 C994 1.478 . S
C996 C998 1.381 . S
C996 C1002 1.383 . S
C997 C993 1.495 . S
C997 H1003 0.959 . S
C997 H1004 0.961 . S
C997 H1005 0.960 . S
C998 C996 1.381 . S
C998 C999 1.394 . S
C998 H1006 0.930 . S
C999 C998 1.394 . S
C999 C1000 1.383 . S
C999 H1007 0.929 . S
C1000 C999 1.383 . S
C1000 C1001 1.377 . S
C1001 H985 0.911 1_556 S
C1001 C1000 1.377 . S
C1001 C1002 1.379 . S
C1002 H986 0.931 . S
C1002 C996 1.383 . S
C1002 C1001 1.379 . S
H1003 C997 0.959 . S
H1004 C997 0.961 . S
H1005 C997 0.960 . S
H1006 C998 0.930 . S
H1007 C999 0.929 . S
H1008 C1016 0.929 . S
H1009 C1018 0.930 . S
H1010 C1020 0.930 . S
H1011 C1023 0.929 . S
H1012 C1026 0.930 . S
H1013 C1028 0.960 . S
H1014 C1028 0.960 . S
H1015 C1028 0.960 . S
C1016 H1008 0.929 . S
C1016 C1017 1.377 . S
C1016 C1018 1.384 . S
C1017 C1016 1.377 . S
C1017 C1023 1.390 . S
C1018 H1009 0.930 . S
C1018 C1016 1.384 . S
C1018 C1019 1.372 . S
C1019 C1018 1.372 . S
C1019 C1020 1.400 . S
C1019 C1024 1.490 . S
C1020 H1010 0.930 . S
C1020 C1019 1.400 . S
C1020 C1023 1.386 . S
H1021 C1037 0.930 . S
H1022 C1038 0.931 . S
C1023 H1011 0.929 . S
C1023 C1017 1.390 . S
C1023 C1020 1.386 . S
C1024 C1019 1.490 . S
C1024 C1026 1.395 . S
C1024 C1027 1.403 . S
H1025 C1031 0.930 . S
C1026 H1012 0.930 . S
C1026 C1024 1.395 . S
C1026 C1029 1.403 . S
C1027 C1024 1.403 . S
C1027 C1028 1.524 . S
C1027 C1031 1.400 . S
C1028 H1013 0.960 . S
C1028 H1014 0.960 . S
C1028 H1015 0.960 . S
C1028 C1027 1.524 . S
C1029 C1026 1.403 . S
C1029 C1030 1.392 . S
C1029 C1033 1.495 . S
C1030 C1029 1.392 . S
C1030 C1031 1.385 . S
C1030 C1032 1.478 . S
C1031 H1025 0.930 . S
C1031 C1027 1.400 . S
C1031 C1030 1.385 . S
C1032 C1030 1.478 . S
C1032 C1034 1.381 . S
C1032 C1038 1.383 . S
C1033 C1029 1.495 . S
C1033 H1039 0.959 . S
C1033 H1040 0.961 . S
C1033 H1041 0.960 . S
C1034 C1032 1.381 . S
C1034 C1035 1.394 . S
C1034 H1042 0.930 . S
C1035 C1034 1.394 . S
C1035 C1036 1.383 . S
C1035 H1043 0.929 . S
C1036 C1035 1.383 . S
C1036 C1037 1.377 . S
C1037 H1021 0.930 . S
C1037 C1036 1.377 . S
C1037 C1038 1.379 . S
C1038 H1022 0.931 . S
C1038 C1032 1.383 . S
C1038 C1037 1.379 . S
H1039 C1033 0.959 . S
H1040 C1033 0.961 . S
H1041 C1033 0.960 . S
H1042 C1034 0.930 . S
H1043 C1035 0.929 . S
H1044 C1052 0.929 . S
H1045 C1054 0.930 . S
H1046 C1056 0.930 . S
H1047 C1059 0.929 . S
H1048 C1062 0.930 . S
H1049 C1064 0.913 1_554 S
H1050 C1064 0.960 . S
H1051 C1064 0.960 . S
C1052 H1044 0.929 . S
C1052 C1053 1.377 . S
C1052 C1054 1.384 . S
C1053 C1052 1.377 . S
C1053 C1059 1.390 . S
C1054 H1045 0.930 . S
C1054 C1052 1.384 . S
C1054 C1055 1.372 . S
C1055 C1054 1.372 . S
C1055 C1056 1.400 . S
C1055 C1060 1.490 . S
C1056 H1046 0.930 . S
C1056 C1055 1.400 . S
C1056 C1059 1.386 . S
H1057 C1073 0.935 . S
H1058 C1074 0.931 . S
C1059 H1047 0.929 . S
C1059 C1053 1.390 . S
C1059 C1056 1.386 . S
C1060 C1055 1.490 . S
C1060 C1062 1.395 . S
C1060 C1063 1.403 . S
H1061 C1067 0.930 . S
C1062 H1048 0.930 . S
C1062 C1060 1.395 . S
C1062 C1065 1.403 . S
C1063 C1060 1.403 . S
C1063 C1064 1.524 . S
C1063 C1067 1.400 . S
C1064 H1049 0.913 1_556 S
C1064 H1050 0.960 . S
C1064 H1051 0.960 . S
C1064 C1063 1.524 . S
C1065 C1062 1.403 . S
C1065 C1066 1.392 . S
C1065 C1069 1.495 . S
C1066 C1065 1.392 . S
C1066 C1067 1.385 . S
C1066 C1068 1.478 . S
C1067 H1061 0.930 . S
C1067 C1063 1.400 . S
C1067 C1066 1.385 . S
C1068 C1066 1.478 . S
C1068 C1070 1.381 . S
C1068 C1074 1.383 . S
C1069 C1065 1.495 . S
C1069 H1075 0.959 . S
C1069 H1076 0.961 . S
C1069 H1077 0.960 . S
C1070 C1068 1.381 . S
C1070 C1071 1.394 . S
C1070 H1078 0.930 . S
C1071 C1070 1.394 . S
C1071 C1072 1.383 . S
C1071 H1079 0.929 . S
C1072 C1071 1.383 . S
C1072 C1073 1.377 . S
C1073 H1057 0.935 . S
C1073 C1072 1.377 . S
C1073 C1074 1.379 . S
C1074 H1058 0.931 . S
C1074 C1068 1.383 . S
C1074 C1073 1.379 . S
H1075 C1069 0.959 . S
H1076 C1069 0.961 . S
H1077 C1069 0.960 . S
H1078 C1070 0.930 . S
H1079 C1071 0.929 . S
H1080 C1088 0.929 . S
H1081 C1090 0.930 . S
H1082 C1092 0.930 . S
H1083 C1095 0.929 . S
H1084 C1098 0.930 . S
H1085 C1100 0.960 . S
H1086 C1100 0.960 . S
H1087 C1100 0.960 . S
C1088 H1080 0.929 . S
C1088 C1089 1.377 . S
C1088 C1090 1.384 . S
C1089 C1088 1.377 . S
C1089 C1095 1.390 . S
C1090 H1081 0.930 . S
C1090 C1088 1.384 . S
C1090 C1091 1.372 . S
C1091 C1090 1.372 . S
C1091 C1092 1.400 . S
C1091 C1096 1.490 . S
C1092 H1082 0.930 . S
C1092 C1091 1.400 . S
C1092 C1095 1.386 . S
H1093 C1109 0.930 . S
H1094 C1110 0.931 . S
C1095 H1083 0.929 . S
C1095 C1089 1.390 . S
C1095 C1092 1.386 . S
C1096 C1091 1.490 . S
C1096 C1098 1.395 . S
C1096 C1099 1.403 . S
H1097 C1103 0.930 . S
C1098 H1084 0.930 . S
C1098 C1096 1.395 . S
C1098 C1101 1.403 . S
C1099 C1096 1.403 . S
C1099 C1100 1.524 . S
C1099 C1103 1.400 . S
C1100 H1085 0.960 . S
C1100 H1086 0.960 . S
C1100 H1087 0.960 . S
C1100 C1099 1.524 . S
C1101 C1098 1.403 . S
C1101 C1102 1.392 . S
C1101 C1105 1.495 . S
C1102 C1101 1.392 . S
C1102 C1103 1.385 . S
C1102 C1104 1.478 . S
C1103 H1097 0.930 . S
C1103 C1099 1.400 . S
C1103 C1102 1.385 . S
C1104 C1102 1.478 . S
C1104 C1106 1.381 . S
C1104 C1110 1.383 . S
C1105 C1101 1.495 . S
C1105 H1111 0.959 . S
C1105 H1112 0.961 . S
C1105 H1113 0.960 . S
C1106 C1104 1.381 . S
C1106 C1107 1.394 . S
C1106 H1114 0.930 . S
C1107 C1106 1.394 . S
C1107 C1108 1.383 . S
C1107 H1115 0.929 . S
C1108 C1107 1.383 . S
C1108 C1109 1.377 . S
C1109 H1093 0.930 . S
C1109 C1108 1.377 . S
C1109 C1110 1.379 . S
C1110 H1094 0.931 . S
C1110 C1104 1.383 . S
C1110 C1109 1.379 . S
H1111 C1105 0.959 . S
H1112 C1105 0.961 . S
H1113 C1105 0.960 . S
H1114 C1106 0.930 . S
H1115 C1107 0.929 . S
H1116 C1124 0.929 . S
H1117 C1126 0.930 . S
H1118 C1128 0.930 . S
H1119 C1131 0.929 . S
H1120 C1134 0.930 . S
H1121 C1136 0.960 . S
H1122 C1136 0.960 . S
H1123 C1136 0.960 . S
C1124 H1116 0.929 . S
C1124 C1125 1.377 . S
C1124 C1126 1.384 . S
C1125 C1124 1.377 . S
C1125 C1131 1.390 . S
C1126 H1117 0.930 . S
C1126 C1124 1.384 . S
C1126 C1127 1.372 . S
C1127 C1126 1.372 . S
C1127 C1128 1.400 . S
C1127 C1132 1.490 . S
C1128 H1118 0.930 . S
C1128 C1127 1.400 . S
C1128 C1131 1.386 . S
H1129 C1145 0.930 . S
H1130 C1146 0.931 . S
C1131 H1119 0.929 . S
C1131 C1125 1.390 . S
C1131 C1128 1.386 . S
C1132 C1127 1.490 . S
C1132 C1134 1.395 . S
C1132 C1135 1.403 . S
H1133 C1139 0.930 . S
C1134 H1120 0.930 . S
C1134 C1132 1.395 . S
C1134 C1137 1.403 . S
C1135 C1132 1.403 . S
C1135 C1136 1.524 . S
C1135 C1139 1.400 . S
C1136 H1121 0.960 . S
C1136 H1122 0.960 . S
C1136 H1123 0.960 . S
C1136 C1135 1.524 . S
C1137 C1134 1.403 . S
C1137 C1138 1.392 . S
C1137 C1141 1.495 . S
C1138 C1137 1.392 . S
C1138 C1139 1.385 . S
C1138 C1140 1.478 . S
C1139 H1133 0.930 . S
C1139 C1135 1.400 . S
C1139 C1138 1.385 . S
C1140 C1138 1.478 . S
C1140 C1142 1.381 . S
C1140 C1146 1.383 . S
C1141 C1137 1.495 . S
C1141 H1147 0.959 . S
C1141 H1148 0.961 . S
C1141 H1149 0.960 . S
C1142 C1140 1.381 . S
C1142 C1143 1.394 . S
C1142 H1150 0.930 . S
C1143 C1142 1.394 . S
C1143 C1144 1.383 . S
C1143 H1151 0.929 . S
C1144 C1143 1.383 . S
C1144 C1145 1.377 . S
C1145 H1129 0.930 . S
C1145 C1144 1.377 . S
C1145 C1146 1.379 . S
C1146 H1130 0.931 . S
C1146 C1140 1.383 . S
C1146 C1145 1.379 . S
H1147 C1141 0.959 . S
H1148 C1141 0.961 . S
H1149 C1141 0.960 . S
H1150 C1142 0.930 . S
H1151 C1143 0.929 . S
H1152 C1160 0.929 . S
H1153 C1162 0.930 . S
H1154 C1164 0.930 . S
H1155 C1167 0.929 . S
H1156 C1170 0.930 . S
H1157 C1172 0.960 . S
H1158 C1172 0.960 . S
H1159 C1172 0.960 . S
C1160 H1152 0.929 . S
C1160 C1161 1.377 . S
C1160 C1162 1.384 . S
C1161 C1160 1.377 . S
C1161 C1167 1.390 . S
C1162 H1153 0.930 . S
C1162 C1160 1.384 . S
C1162 C1163 1.372 . S
C1163 C1162 1.372 . S
C1163 C1164 1.400 . S
C1163 C1168 1.490 . S
C1164 H1154 0.930 . S
C1164 C1163 1.400 . S
C1164 C1167 1.386 . S
H1165 C1181 0.930 . S
H1166 C1182 0.931 . S
C1167 H1155 0.929 . S
C1167 C1161 1.390 . S
C1167 C1164 1.386 . S
C1168 C1163 1.490 . S
C1168 C1170 1.395 . S
C1168 C1171 1.403 . S
H1169 C1175 0.930 . S
C1170 H1156 0.930 . S
C1170 C1168 1.395 . S
C1170 C1173 1.403 . S
C1171 C1168 1.403 . S
C1171 C1172 1.524 . S
C1171 C1175 1.400 . S
C1172 H1157 0.960 . S
C1172 H1158 0.960 . S
C1172 H1159 0.960 . S
C1172 C1171 1.524 . S
C1173 C1170 1.403 . S
C1173 C1174 1.392 . S
C1173 C1177 1.495 . S
C1174 C1173 1.392 . S
C1174 C1175 1.385 . S
C1174 C1176 1.478 . S
C1175 H1169 0.930 . S
C1175 C1171 1.400 . S
C1175 C1174 1.385 . S
C1176 C1174 1.478 . S
C1176 C1178 1.381 . S
C1176 C1182 1.383 . S
C1177 C1173 1.495 . S
C1177 H1183 0.959 . S
C1177 H1184 0.961 . S
C1177 H1185 0.960 . S
C1178 C1176 1.381 . S
C1178 C1179 1.394 . S
C1178 H1186 0.930 . S
C1179 C1178 1.394 . S
C1179 C1180 1.383 . S
C1179 H1187 0.929 . S
C1180 C1179 1.383 . S
C1180 C1181 1.377 . S
C1181 H1165 0.930 . S
C1181 C1180 1.377 . S
C1181 C1182 1.379 . S
C1182 H1166 0.931 . S
C1182 C1176 1.383 . S
C1182 C1181 1.379 . S
H1183 C1177 0.959 . S
H1184 C1177 0.961 . S
H1185 C1177 0.960 . S
H1186 C1178 0.930 . S
H1187 C1179 0.929 . S
H1188 C1196 0.929 . S
H1189 C1198 0.930 . S
H1190 C1200 0.930 . S
H1191 C1203 0.929 . S
H1192 C1206 0.930 . S
H1193 C1208 0.960 1_455 S
H1194 C1208 0.960 . S
H1195 C1208 0.960 . S
C1196 H1188 0.929 . S
C1196 C1197 1.377 . S
C1196 C1198 1.384 . S
C1197 C1196 1.377 . S
C1197 C1203 1.390 . S
C1198 H1189 0.930 . S
C1198 C1196 1.384 . S
C1198 C1199 1.372 . S
C1199 C1198 1.372 . S
C1199 C1200 1.400 . S
C1199 C1204 1.490 1_655 S
C1200 H1190 0.930 . S
C1200 C1199 1.400 . S
C1200 C1203 1.386 . S
H1201 C1217 0.930 . S
H1202 C1218 0.931 . S
C1203 H1191 0.929 . S
C1203 C1197 1.390 . S
C1203 C1200 1.386 . S
C1204 C1199 1.490 1_455 S
C1204 C1206 1.395 . S
C1204 C1207 1.403 . S
H1205 C1211 0.930 . S
C1206 H1192 0.930 . S
C1206 C1204 1.395 . S
C1206 C1209 1.403 . S
C1207 C1204 1.403 . S
C1207 C1208 1.524 1_455 S
C1207 C1211 1.400 . S
C1208 H1193 0.960 1_655 S
C1208 H1194 0.960 . S
C1208 H1195 0.960 . S
C1208 C1207 1.524 1_655 S
C1209 C1206 1.403 . S
C1209 C1210 1.392 . S
C1209 C1213 1.495 . S
C1210 C1209 1.392 . S
C1210 C1211 1.385 . S
C1210 C1212 1.478 . S
C1211 H1205 0.930 . S
C1211 C1207 1.400 . S
C1211 C1210 1.385 . S
C1212 C1210 1.478 . S
C1212 C1214 1.381 . S
C1212 C1218 1.383 . S
C1213 C1209 1.495 . S
C1213 H1219 0.959 . S
C1213 H1220 0.961 . S
C1213 H1221 0.960 . S
C1214 C1212 1.381 . S
C1214 C1215 1.394 . S
C1214 H1222 0.930 . S
C1215 C1214 1.394 . S
C1215 C1216 1.383 . S
C1215 H1223 0.929 . S
C1216 C1215 1.383 . S
C1216 C1217 1.377 . S
C1217 H1201 0.930 . S
C1217 C1216 1.377 . S
C1217 C1218 1.379 . S
C1218 H1202 0.931 . S
C1218 C1212 1.383 . S
C1218 C1217 1.379 . S
H1219 C1213 0.959 . S
H1220 C1213 0.961 . S
H1221 C1213 0.960 . S
H1222 C1214 0.930 . S
H1223 C1215 0.929 . S
H1224 C1232 0.929 . S
H1225 C1234 0.930 . S
H1226 C1236 0.930 . S
H1227 C1239 0.929 . S
H1228 C1242 0.930 . S
H1229 C1244 0.960 . S
H1230 C1244 0.960 . S
H1231 C1244 0.960 . S
C1232 H1224 0.929 . S
C1232 C1233 1.377 . S
C1232 C1234 1.384 . S
C1233 C1232 1.377 . S
C1233 C1239 1.390 . S
C1234 H1225 0.930 . S
C1234 C1232 1.384 . S
C1234 C1235 1.372 . S
C1235 C1234 1.372 . S
C1235 C1236 1.400 . S
C1235 C1240 1.490 . S
C1236 H1226 0.930 . S
C1236 C1235 1.400 . S
C1236 C1239 1.386 . S
H1237 C1253 0.930 . S
H1238 C1254 0.931 . S
C1239 H1227 0.929 . S
C1239 C1233 1.390 . S
C1239 C1236 1.386 . S
C1240 C1235 1.490 . S
C1240 C1242 1.395 . S
C1240 C1243 1.403 . S
H1241 C1247 0.930 . S
C1242 H1228 0.930 . S
C1242 C1240 1.395 . S
C1242 C1245 1.403 . S
C1243 C1240 1.403 . S
C1243 C1244 1.524 . S
C1243 C1247 1.400 . S
C1244 H1229 0.960 . S
C1244 H1230 0.960 . S
C1244 H1231 0.960 . S
C1244 C1243 1.524 . S
C1245 C1242 1.403 . S
C1245 C1246 1.392 . S
C1245 C1249 1.495 . S
C1246 C1245 1.392 . S
C1246 C1247 1.385 . S
C1246 C1248 1.478 . S
C1247 H1241 0.930 . S
C1247 C1243 1.400 . S
C1247 C1246 1.385 . S
C1248 C1246 1.478 . S
C1248 C1250 1.381 . S
C1248 C1254 1.383 . S
C1249 C1245 1.495 . S
C1249 H1255 0.959 . S
C1249 H1256 0.961 . S
C1249 H1257 0.960 . S
C1250 C1248 1.381 . S
C1250 C1251 1.394 . S
C1250 H1258 0.930 . S
C1251 C1250 1.394 . S
C1251 C1252 1.383 . S
C1251 H1259 0.929 . S
C1252 C1251 1.383 . S
C1252 C1253 1.377 . S
C1253 H1237 0.930 . S
C1253 C1252 1.377 . S
C1253 C1254 1.379 . S
C1254 H1238 0.931 . S
C1254 C1248 1.383 . S
C1254 C1253 1.379 . S
H1255 C1249 0.959 . S
H1256 C1249 0.961 . S
H1257 C1249 0.960 . S
H1258 C1250 0.930 . S
H1259 C1251 0.929 . S
H1260 C1268 0.929 . S
H1261 C1270 0.930 . S
H1262 C1272 0.930 . S
H1263 C1275 0.929 . S
H1264 C1278 0.930 . S
H1265 C1280 0.960 1_565 S
H1266 C1280 0.960 . S
H1267 C1280 0.960 . S
C1268 H1260 0.929 . S
C1268 C1269 1.377 . S
C1268 C1270 1.384 . S
C1269 C1268 1.377 . S
C1269 C1275 1.390 . S
C1270 H1261 0.930 . S
C1270 C1268 1.384 . S
C1270 C1271 1.372 . S
C1271 C1270 1.372 . S
C1271 C1272 1.400 . S
C1271 C1276 1.541 . S
C1272 H1262 0.930 . S
C1272 C1271 1.400 . S
C1272 C1275 1.386 . S
H1273 C1289 0.930 . S
H1274 C1290 0.931 . S
C1275 H1263 0.929 . S
C1275 C1269 1.390 . S
C1275 C1272 1.386 . S
C1276 C1271 1.541 . S
C1276 C1278 1.385 1_545 S
C1276 C1279 1.363 1_545 S
H1277 C1283 0.930 . S
C1278 H1264 0.930 . S
C1278 C1276 1.385 1_565 S
C1278 C1281 1.403 . S
C1279 C1276 1.363 1_565 S
C1279 C1280 1.524 1_565 S
C1279 C1283 1.400 . S
C1280 H1265 0.960 1_545 S
C1280 H1266 0.960 . S
C1280 H1267 0.960 . S
C1280 C1279 1.524 1_545 S
C1281 C1278 1.403 . S
C1281 C1282 1.392 . S
C1281 C1285 1.495 . S
C1282 C1281 1.392 . S
C1282 C1283 1.385 . S
C1282 C1284 1.478 . S
C1283 H1277 0.930 . S
C1283 C1279 1.400 . S
C1283 C1282 1.385 . S
C1284 C1282 1.478 . S
C1284 C1286 1.381 . S
C1284 C1290 1.383 . S
C1285 C1281 1.495 . S
C1285 H1291 0.959 . S
C1285 H1292 0.961 . S
C1285 H1293 0.960 . S
C1286 C1284 1.381 . S
C1286 C1287 1.394 . S
C1286 H1294 0.930 . S
C1287 C1286 1.394 . S
C1287 C1288 1.383 . S
C1287 H1295 0.929 . S
C1288 C1287 1.383 . S
C1288 C1289 1.377 . S
C1289 H1273 0.930 . S
C1289 C1288 1.377 . S
C1289 C1290 1.379 . S
C1290 H1274 0.931 . S
C1290 C1284 1.383 . S
C1290 C1289 1.379 . S
H1291 C1285 0.959 . S
H1292 C1285 0.961 . S
H1293 C1285 0.960 . S
H1294 C1286 0.930 . S
H1295 C1287 0.929 . S
H1296 C1304 0.929 . S
H1297 C1306 0.930 . S
H1298 C1308 0.930 . S
H1299 C1311 0.929 . S
H1300 C1314 0.930 . S
H1301 C1316 0.960 . S
H1302 C1316 0.960 . S
H1303 C1316 0.960 . S
C1304 H1296 0.929 . S
C1304 C1305 1.377 . S
C1304 C1306 1.384 . S
C1305 C1304 1.377 . S
C1305 C1311 1.390 . S
C1306 H1297 0.930 . S
C1306 C1304 1.384 . S
C1306 C1307 1.372 . S
C1307 C1306 1.372 . S
C1307 C1308 1.400 . S
C1307 C1312 1.490 . S
C1308 H1298 0.930 . S
C1308 C1307 1.400 . S
C1308 C1311 1.386 . S
H1309 C1325 0.930 . S
H1310 C1326 0.931 . S
C1311 H1299 0.929 . S
C1311 C1305 1.390 . S
C1311 C1308 1.386 . S
C1312 C1307 1.490 . S
C1312 C1314 1.395 . S
C1312 C1315 1.403 . S
H1313 C1319 0.930 . S
C1314 H1300 0.930 . S
C1314 C1312 1.395 . S
C1314 C1317 1.403 . S
C1315 C1312 1.403 . S
C1315 C1316 1.524 . S
C1315 C1319 1.400 . S
C1316 H1301 0.960 . S
C1316 H1302 0.960 . S
C1316 H1303 0.960 . S
C1316 C1315 1.524 . S
C1317 C1314 1.403 . S
C1317 C1318 1.392 . S
C1317 C1321 1.495 . S
C1318 C1317 1.392 . S
C1318 C1319 1.385 . S
C1318 C1320 1.478 . S
C1319 H1313 0.930 . S
C1319 C1315 1.400 . S
C1319 C1318 1.385 . S
C1320 C1318 1.478 . S
C1320 C1322 1.381 . S
C1320 C1326 1.383 . S
C1321 C1317 1.495 . S
C1321 H1327 0.959 . S
C1321 H1328 0.961 . S
C1321 H1329 0.960 . S
C1322 C1320 1.381 . S
C1322 C1323 1.394 . S
C1322 H1330 0.930 . S
C1323 C1322 1.394 . S
C1323 C1324 1.383 . S
C1323 H1331 0.929 . S
C1324 C1323 1.383 . S
C1324 C1325 1.377 . S
C1325 H1309 0.930 . S
C1325 C1324 1.377 . S
C1325 C1326 1.379 . S
C1326 H1310 0.931 . S
C1326 C1320 1.383 . S
C1326 C1325 1.379 . S
H1327 C1321 0.959 . S
H1328 C1321 0.961 . S
H1329 C1321 0.960 . S
H1330 C1322 0.930 . S
H1331 C1323 0.929 . S
H1332 C1340 0.929 . S
H1333 C1342 0.930 . S
H1334 C1344 0.930 . S
H1335 C1347 0.929 . S
H1336 C1350 0.930 . S
H1337 C1352 0.960 . S
H1338 C1352 0.960 . S
H1339 C1352 0.960 . S
C1340 H1332 0.929 . S
C1340 C1341 1.377 . S
C1340 C1342 1.384 . S
C1341 C1340 1.377 . S
C1341 C1347 1.390 . S
C1342 H1333 0.930 . S
C1342 C1340 1.384 . S
C1342 C1343 1.372 . S
C1343 C1342 1.372 . S
C1343 C1344 1.400 . S
C1343 C1348 1.490 . S
C1344 H1334 0.930 . S
C1344 C1343 1.400 . S
C1344 C1347 1.386 . S
H1345 C1361 0.930 . S
H1346 C1362 0.931 . S
C1347 H1335 0.929 . S
C1347 C1341 1.390 . S
C1347 C1344 1.386 . S
C1348 C1343 1.490 . S
C1348 C1350 1.395 . S
C1348 C1351 1.403 . S
H1349 C1355 0.930 . S
C1350 H1336 0.930 . S
C1350 C1348 1.395 . S
C1350 C1353 1.403 . S
C1351 C1348 1.403 . S
C1351 C1352 1.524 . S
C1351 C1355 1.400 . S
C1352 H1337 0.960 . S
C1352 H1338 0.960 . S
C1352 H1339 0.960 . S
C1352 C1351 1.524 . S
C1353 C1350 1.403 . S
C1353 C1354 1.392 . S
C1353 C1357 1.495 . S
C1354 C1353 1.392 . S
C1354 C1355 1.385 . S
C1354 C1356 1.478 . S
C1355 H1349 0.930 . S
C1355 C1351 1.400 . S
C1355 C1354 1.385 . S
C1356 C1354 1.478 . S
C1356 C1358 1.381 . S
C1356 C1362 1.383 . S
C1357 C1353 1.495 . S
C1357 H1363 0.959 . S
C1357 H1364 0.961 . S
C1357 H1365 0.960 . S
C1358 C1356 1.381 . S
C1358 C1359 1.394 . S
C1358 H1366 0.930 . S
C1359 C1358 1.394 . S
C1359 C1360 1.383 . S
C1359 H1367 0.929 . S
C1360 C1359 1.383 . S
C1360 C1361 1.377 . S
C1361 H1345 0.930 . S
C1361 C1360 1.377 . S
C1361 C1362 1.379 . S
C1362 H1346 0.931 . S
C1362 C1356 1.383 . S
C1362 C1361 1.379 . S
H1363 C1357 0.959 . S
H1364 C1357 0.961 . S
H1365 C1357 0.960 . S
H1366 C1358 0.930 . S
H1367 C1359 0.929 . S
H1368 C1376 0.929 . S
H1369 C1378 0.930 . S
H1370 C1380 0.930 . S
H1371 C1383 0.929 . S
H1372 C1386 0.930 . S
H1373 C1388 0.960 . S
H1374 C1388 0.960 . S
H1375 C1388 0.960 . S
C1376 H1368 0.929 . S
C1376 C1377 1.377 . S
C1376 C1378 1.384 . S
C1377 C1376 1.377 . S
C1377 C1383 1.390 . S
C1378 H1369 0.930 . S
C1378 C1376 1.384 . S
C1378 C1379 1.372 . S
C1379 C1378 1.372 . S
C1379 C1380 1.400 . S
C1379 C1384 1.490 . S
C1380 H1370 0.930 . S
C1380 C1379 1.400 . S
C1380 C1383 1.386 . S
H1381 C1397 0.930 . S
H1382 C1398 0.931 . S
C1383 H1371 0.929 . S
C1383 C1377 1.390 . S
C1383 C1380 1.386 . S
C1384 C1379 1.490 . S
C1384 C1386 1.395 . S
C1384 C1387 1.403 . S
H1385 C1391 0.930 . S
C1386 H1372 0.930 . S
C1386 C1384 1.395 . S
C1386 C1389 1.403 . S
C1387 C1384 1.403 . S
C1387 C1388 1.524 . S
C1387 C1391 1.400 . S
C1388 H1373 0.960 . S
C1388 H1374 0.960 . S
C1388 H1375 0.960 . S
C1388 C1387 1.524 . S
C1389 C1386 1.403 . S
C1389 C1390 1.392 . S
C1389 C1393 1.495 . S
C1390 C1389 1.392 . S
C1390 C1391 1.385 . S
C1390 C1392 1.478 . S
C1391 H1385 0.930 . S
C1391 C1387 1.400 . S
C1391 C1390 1.385 . S
C1392 C1390 1.478 . S
C1392 C1394 1.381 . S
C1392 C1398 1.383 . S
C1393 C1389 1.495 . S
C1393 H1399 0.959 . S
C1393 H1400 0.961 . S
C1393 H1401 0.960 . S
C1394 C1392 1.381 . S
C1394 C1395 1.394 . S
C1394 H1402 0.930 . S
C1395 C1394 1.394 . S
C1395 C1396 1.383 . S
C1395 H1403 0.929 . S
C1396 C1395 1.383 . S
C1396 C1397 1.377 . S
C1397 H1381 0.930 . S
C1397 C1396 1.377 . S
C1397 C1398 1.379 . S
C1398 H1382 0.931 . S
C1398 C1392 1.383 . S
C1398 C1397 1.379 . S
H1399 C1393 0.959 . S
H1400 C1393 0.961 . S
H1401 C1393 0.960 . S
H1402 C1394 0.930 . S
H1403 C1395 0.929 . S
H1404 C1412 0.929 . S
H1405 C1414 0.930 . S
H1406 C1416 0.930 . S
H1407 C1419 0.929 . S
H1408 C1422 0.930 . S
H1409 C1424 0.960 . S
H1410 C1424 0.960 . S
H1411 C1424 0.960 . S
C1412 H1404 0.929 . S
C1412 C1413 1.377 . S
C1412 C1414 1.384 . S
C1413 C1412 1.377 . S
C1413 C1419 1.390 . S
C1414 H1405 0.930 . S
C1414 C1412 1.384 . S
C1414 C1415 1.372 . S
C1415 C1414 1.372 . S
C1415 C1416 1.400 . S
C1415 C1420 1.490 . S
C1416 H1406 0.930 . S
C1416 C1415 1.400 . S
C1416 C1419 1.386 . S
H1417 C1433 0.930 . S
H1418 C1434 0.931 . S
C1419 H1407 0.929 . S
C1419 C1413 1.390 . S
C1419 C1416 1.386 . S
C1420 C1415 1.490 . S
C1420 C1422 1.395 . S
C1420 C1423 1.403 . S
H1421 C1427 0.930 . S
C1422 H1408 0.930 . S
C1422 C1420 1.395 . S
C1422 C1425 1.403 . S
C1423 C1420 1.403 . S
C1423 C1424 1.524 . S
C1423 C1427 1.400 . S
C1424 H1409 0.960 . S
C1424 H1410 0.960 . S
C1424 H1411 0.960 . S
C1424 C1423 1.524 . S
C1425 C1422 1.403 . S
C1425 C1426 1.392 . S
C1425 C1429 1.495 . S
C1426 C1425 1.392 . S
C1426 C1427 1.385 . S
C1426 C1428 1.478 . S
C1427 H1421 0.930 . S
C1427 C1423 1.400 . S
C1427 C1426 1.385 . S
C1428 C1426 1.478 . S
C1428 C1430 1.381 . S
C1428 C1434 1.383 . S
C1429 C1425 1.495 . S
C1429 H1435 0.959 . S
C1429 H1436 0.961 . S
C1429 H1437 0.960 . S
C1430 C1428 1.381 . S
C1430 C1431 1.394 . S
C1430 H1438 0.930 . S
C1431 C1430 1.394 . S
C1431 C1432 1.383 . S
C1431 H1439 0.929 . S
C1432 C1431 1.383 . S
C1432 C1433 1.377 . S
C1433 H1417 0.930 . S
C1433 C1432 1.377 . S
C1433 C1434 1.379 . S
C1434 H1418 0.931 . S
C1434 C1428 1.383 . S
C1434 C1433 1.379 . S
H1435 C1429 0.959 . S
H1436 C1429 0.961 . S
H1437 C1429 0.960 . S
H1438 C1430 0.930 . S
H1439 C1431 0.929 . S
H1440 C1448 0.929 . S
H1441 C1450 0.930 . S
H1442 C1452 0.930 . S
H1443 C1455 0.929 . S
H1444 C1458 0.930 . S
H1445 C1460 0.960 . S
H1446 C1460 0.960 . S
H1447 C1460 0.960 . S
C1448 H1440 0.929 . S
C1448 C1449 1.377 . S
C1448 C1450 1.384 . S
C1449 C1448 1.377 . S
C1449 C1455 1.390 . S
C1450 H1441 0.930 . S
C1450 C1448 1.384 . S
C1450 C1451 1.372 . S
C1451 C1450 1.372 . S
C1451 C1452 1.400 . S
C1451 C1456 1.490 . S
C1452 H1442 0.930 . S
C1452 C1451 1.400 . S
C1452 C1455 1.386 . S
H1453 C1469 0.930 . S
H1454 C1470 0.931 . S
C1455 H1443 0.929 . S
C1455 C1449 1.390 . S
C1455 C1452 1.386 . S
C1456 C1451 1.490 . S
C1456 C1458 1.395 . S
C1456 C1459 1.403 . S
H1457 C1463 0.930 . S
C1458 H1444 0.930 . S
C1458 C1456 1.395 . S
C1458 C1461 1.403 . S
C1459 C1456 1.403 . S
C1459 C1460 1.524 . S
C1459 C1463 1.400 . S
C1460 H1445 0.960 . S
C1460 H1446 0.960 . S
C1460 H1447 0.960 . S
C1460 C1459 1.524 . S
C1461 C1458 1.403 . S
C1461 C1462 1.392 . S
C1461 C1465 1.495 . S
C1462 C1461 1.392 . S
C1462 C1463 1.385 . S
C1462 C1464 1.478 . S
C1463 H1457 0.930 . S
C1463 C1459 1.400 . S
C1463 C1462 1.385 . S
C1464 C1462 1.478 . S
C1464 C1466 1.381 . S
C1464 C1470 1.383 . S
C1465 C1461 1.495 . S
C1465 H1471 0.959 . S
C1465 H1472 0.961 . S
C1465 H1473 0.960 . S
C1466 C1464 1.381 . S
C1466 C1467 1.394 . S
C1466 H1474 0.930 . S
C1467 C1466 1.394 . S
C1467 C1468 1.383 . S
C1467 H1475 0.929 . S
C1468 C1467 1.383 . S
C1468 C1469 1.377 . S
C1469 H1453 0.930 . S
C1469 C1468 1.377 . S
C1469 C1470 1.379 . S
C1470 H1454 0.931 . S
C1470 C1464 1.383 . S
C1470 C1469 1.379 . S
H1471 C1465 0.959 . S
H1472 C1465 0.961 . S
H1473 C1465 0.960 . S
H1474 C1466 0.930 . S
H1475 C1467 0.929 . S
H1476 C1484 0.929 . S
H1477 C1486 0.930 . S
H1478 C1488 0.930 . S
H1479 C1491 0.929 . S
H1480 C1494 0.930 . S
H1481 C1496 0.960 . S
H1482 C1496 0.960 . S
H1483 C1496 0.960 . S
C1484 H1476 0.929 . S
C1484 C1485 1.377 . S
C1484 C1486 1.384 . S
C1485 C1484 1.377 . S
C1485 C1491 1.390 . S
C1486 H1477 0.930 . S
C1486 C1484 1.384 . S
C1486 C1487 1.372 . S
C1487 C1486 1.372 . S
C1487 C1488 1.400 . S
C1487 C1492 1.490 . S
C1488 H1478 0.930 . S
C1488 C1487 1.400 . S
C1488 C1491 1.386 . S
H1489 C1505 0.930 . S
H1490 C1506 0.931 . S
C1491 H1479 0.929 . S
C1491 C1485 1.390 . S
C1491 C1488 1.386 . S
C1492 C1487 1.490 . S
C1492 C1494 1.395 . S
C1492 C1495 1.403 . S
H1493 C1499 0.930 . S
C1494 H1480 0.930 . S
C1494 C1492 1.395 . S
C1494 C1497 1.403 . S
C1495 C1492 1.403 . S
C1495 C1496 1.524 . S
C1495 C1499 1.400 . S
C1496 H1481 0.960 . S
C1496 H1482 0.960 . S
C1496 H1483 0.960 . S
C1496 C1495 1.524 . S
C1497 C1494 1.403 . S
C1497 C1498 1.392 . S
C1497 C1501 1.495 . S
C1498 C1497 1.392 . S
C1498 C1499 1.385 . S
C1498 C1500 1.478 . S
C1499 H1493 0.930 . S
C1499 C1495 1.400 . S
C1499 C1498 1.385 . S
C1500 C1498 1.478 . S
C1500 C1502 1.381 . S
C1500 C1506 1.383 . S
C1501 C1497 1.495 . S
C1501 H1507 0.959 . S
C1501 H1508 0.961 . S
C1501 H1509 0.960 . S
C1502 C1500 1.381 . S
C1502 C1503 1.394 . S
C1502 H1510 0.930 . S
C1503 C1502 1.394 . S
C1503 C1504 1.383 . S
C1503 H1511 0.929 . S
C1504 C1503 1.383 . S
C1504 C1505 1.377 . S
C1505 H1489 0.930 . S
C1505 C1504 1.377 . S
C1505 C1506 1.379 . S
C1506 H1490 0.931 . S
C1506 C1500 1.383 . S
C1506 C1505 1.379 . S
H1507 C1501 0.959 . S
H1508 C1501 0.961 . S
H1509 C1501 0.960 . S
H1510 C1502 0.930 . S
H1511 C1503 0.929 . S
H1512 C1520 0.929 . S
H1513 C1522 0.930 . S
H1514 C1524 0.930 . S
H1515 C1527 0.929 . S
H1516 C1530 0.930 . S
H1517 C1532 0.941 1_565 S
H1518 C1532 0.952 . S
H1519 C1532 1.002 . S
C1520 H1512 0.929 . S
C1520 C1521 1.377 . S
C1520 C1522 1.384 . S
C1521 C1520 1.377 . S
C1521 C1527 1.390 . S
C1522 H1513 0.930 . S
C1522 C1520 1.384 . S
C1522 C1523 1.372 . S
C1523 C1522 1.372 . S
C1523 C1524 1.400 . S
C1523 C1528 1.490 1_545 S
C1524 H1514 0.930 . S
C1524 C1523 1.400 . S
C1524 C1527 1.386 . S
H1525 C1541 0.930 . S
H1526 C1542 0.931 . S
C1527 H1515 0.929 . S
C1527 C1521 1.390 . S
C1527 C1524 1.386 . S
C1528 C1523 1.490 1_565 S
C1528 C1530 1.395 . S
C1528 C1531 1.403 . S
H1529 C1535 0.930 . S
C1530 H1516 0.930 . S
C1530 C1528 1.395 . S
C1530 C1533 1.403 . S
C1531 C1528 1.403 . S
C1531 C1532 1.511 1_565 S
C1531 C1535 1.400 . S
C1532 H1517 0.941 1_545 S
C1532 H1518 0.952 . S
C1532 H1519 1.002 . S
C1532 C1531 1.511 1_545 S
C1533 C1530 1.403 . S
C1533 C1534 1.392 . S
C1533 C1537 1.495 . S
C1534 C1533 1.392 . S
C1534 C1535 1.385 . S
C1534 C1536 1.478 . S
C1535 H1529 0.930 . S
C1535 C1531 1.400 . S
C1535 C1534 1.385 . S
C1536 C1534 1.478 . S
C1536 C1538 1.381 . S
C1536 C1542 1.383 . S
C1537 C1533 1.495 . S
C1537 H1543 0.959 . S
C1537 H1544 0.961 . S
C1537 H1545 0.960 . S
C1538 C1536 1.381 . S
C1538 C1539 1.394 . S
C1538 H1546 0.930 . S
C1539 C1538 1.394 . S
C1539 C1540 1.383 . S
C1539 H1547 0.929 . S
C1540 C1539 1.383 . S
C1540 C1541 1.377 . S
C1541 H1525 0.930 . S
C1541 C1540 1.377 . S
C1541 C1542 1.379 . S
C1542 H1526 0.931 . S
C1542 C1536 1.383 . S
C1542 C1541 1.379 . S
H1543 C1537 0.959 . S
H1544 C1537 0.961 . S
H1545 C1537 0.960 . S
H1546 C1538 0.930 . S
H1547 C1539 0.929 . S
H1548 C1556 0.929 . S
H1549 C1558 0.930 . S
H1550 C1560 0.930 1_455 S
H1551 C1563 0.929 . S
H1552 C1566 0.930 . S
H1553 C1568 0.960 . S
H1554 C1568 0.962 . S
H1555 C1568 0.960 . S
C1556 H1548 0.929 . S
C1556 C1557 1.377 . S
C1556 C1558 1.384 . S
C1557 C1556 1.377 . S
C1557 C1563 1.390 . S
C1558 H1549 0.930 . S
C1558 C1556 1.384 . S
C1558 C1559 1.372 . S
C1559 C1558 1.372 . S
C1559 C1560 1.400 . S
C1559 C1564 1.490 1_655 S
C1560 H1550 0.930 1_655 S
C1560 C1559 1.400 . S
C1560 C1563 1.386 . S
H1561 C1577 0.930 . S
H1562 C1578 0.931 . S
C1563 H1551 0.929 . S
C1563 C1557 1.390 . S
C1563 C1560 1.386 . S
C1564 C1559 1.490 1_455 S
C1564 C1566 1.395 . S
C1564 C1567 1.403 . S
H1565 C1571 0.930 . S
C1566 H1552 0.930 . S
C1566 C1564 1.395 . S
C1566 C1569 1.403 . S
C1567 C1564 1.403 . S
C1567 C1568 1.524 . S
C1567 C1571 1.400 . S
C1568 H1553 0.960 . S
C1568 H1554 0.962 . S
C1568 H1555 0.960 . S
C1568 C1567 1.524 . S
C1569 C1566 1.403 . S
C1569 C1570 1.392 . S
C1569 C1573 1.495 . S
C1570 C1569 1.392 . S
C1570 C1571 1.385 . S
C1570 C1572 1.478 . S
C1571 H1565 0.930 . S
C1571 C1567 1.400 . S
C1571 C1570 1.385 . S
C1572 C1570 1.478 . S
C1572 C1574 1.381 . S
C1572 C1578 1.383 . S
C1573 C1569 1.495 . S
C1573 H1579 0.959 . S
C1573 H1580 0.961 . S
C1573 H1581 0.960 . S
C1574 C1572 1.381 . S
C1574 C1575 1.394 . S
C1574 H1582 0.930 . S
C1575 C1574 1.394 . S
C1575 C1576 1.383 . S
C1575 H1583 0.929 . S
C1576 C1575 1.383 . S
C1576 C1577 1.377 . S
C1577 H1561 0.930 . S
C1577 C1576 1.377 . S
C1577 C1578 1.379 . S
C1578 H1562 0.931 . S
C1578 C1572 1.383 . S
C1578 C1577 1.379 . S
H1579 C1573 0.959 . S
H1580 C1573 0.961 . S
H1581 C1573 0.960 . S
H1582 C1574 0.930 . S
H1583 C1575 0.929 . S
H1584 C1592 0.929 . S
H1585 C1594 0.930 . S
H1586 C1596 0.930 . S
H1587 C1599 0.929 . S
H1588 C1602 0.930 . S
H1589 C1604 0.960 . S
H1590 C1604 0.960 . S
H1591 C1604 0.960 . S
C1592 H1584 0.929 . S
C1592 C1593 1.377 . S
C1592 C1594 1.384 . S
C1593 C1592 1.377 . S
C1593 C1599 1.390 . S
C1594 H1585 0.930 . S
C1594 C1592 1.384 . S
C1594 C1595 1.372 . S
C1595 C1594 1.372 . S
C1595 C1596 1.400 . S
C1595 C1600 1.490 . S
C1596 H1586 0.930 . S
C1596 C1595 1.400 . S
C1596 C1599 1.386 . S
H1597 C1613 0.930 . S
H1598 C1614 0.931 . S
C1599 H1587 0.929 . S
C1599 C1593 1.390 . S
C1599 C1596 1.386 . S
C1600 C1595 1.490 . S
C1600 C1602 1.395 . S
C1600 C1603 1.403 . S
H1601 C1607 0.930 . S
C1602 H1588 0.930 . S
C1602 C1600 1.395 . S
C1602 C1605 1.403 . S
C1603 C1600 1.403 . S
C1603 C1604 1.524 . S
C1603 C1607 1.400 . S
C1604 H1589 0.960 . S
C1604 H1590 0.960 . S
C1604 H1591 0.960 . S
C1604 C1603 1.524 . S
C1605 C1602 1.403 . S
C1605 C1606 1.392 . S
C1605 C1609 1.495 . S
C1606 C1605 1.392 . S
C1606 C1607 1.385 . S
C1606 C1608 1.478 . S
C1607 H1601 0.930 . S
C1607 C1603 1.400 . S
C1607 C1606 1.385 . S
C1608 C1606 1.478 . S
C1608 C1610 1.381 . S
C1608 C1614 1.383 . S
C1609 C1605 1.495 . S
C1609 H1615 0.959 . S
C1609 H1616 0.961 . S
C1609 H1617 0.960 . S
C1610 C1608 1.381 . S
C1610 C1611 1.394 . S
C1610 H1618 0.930 . S
C1611 C1610 1.394 . S
C1611 C1612 1.383 . S
C1611 H1619 0.929 . S
C1612 C1611 1.383 . S
C1612 C1613 1.377 . S
C1613 H1597 0.930 . S
C1613 C1612 1.377 . S
C1613 C1614 1.379 . S
C1614 H1598 0.931 . S
C1614 C1608 1.383 . S
C1614 C1613 1.379 . S
H1615 C1609 0.959 . S
H1616 C1609 0.961 . S
H1617 C1609 0.960 . S
H1618 C1610 0.930 . S
H1619 C1611 0.929 . S
H1620 C1628 0.929 . S
H1621 C1630 0.930 . S
H1622 C1632 0.930 . S
H1623 C1635 0.929 . S
H1624 C1638 0.930 . S
H1625 C1640 0.960 . S
H1626 C1640 0.960 . S
H1627 C1640 0.960 . S
C1628 H1620 0.929 . S
C1628 C1629 1.377 . S
C1628 C1630 1.384 . S
C1629 C1628 1.377 . S
C1629 C1635 1.390 . S
C1630 H1621 0.930 . S
C1630 C1628 1.384 . S
C1630 C1631 1.372 . S
C1631 C1630 1.372 . S
C1631 C1632 1.400 . S
C1631 C1636 1.490 . S
C1632 H1622 0.930 . S
C1632 C1631 1.400 . S
C1632 C1635 1.386 . S
H1633 C1649 0.930 . S
H1634 C1650 0.931 . S
C1635 H1623 0.929 . S
C1635 C1629 1.390 . S
C1635 C1632 1.386 . S
C1636 C1631 1.490 . S
C1636 C1638 1.395 . S
C1636 C1639 1.403 . S
H1637 C1643 0.930 . S
C1638 H1624 0.930 . S
C1638 C1636 1.395 . S
C1638 C1641 1.403 . S
C1639 C1636 1.403 . S
C1639 C1640 1.524 . S
C1639 C1643 1.400 . S
C1640 H1625 0.960 . S
C1640 H1626 0.960 . S
C1640 H1627 0.960 . S
C1640 C1639 1.524 . S
C1641 C1638 1.403 . S
C1641 C1642 1.392 . S
C1641 C1645 1.495 . S
C1642 C1641 1.392 . S
C1642 C1643 1.385 . S
C1642 C1644 1.478 . S
C1643 H1637 0.930 . S
C1643 C1639 1.400 . S
C1643 C1642 1.385 . S
C1644 C1642 1.478 . S
C1644 C1646 1.381 . S
C1644 C1650 1.383 . S
C1645 C1641 1.495 . S
C1645 H1651 0.959 . S
C1645 H1652 0.961 . S
C1645 H1653 0.960 . S
C1646 C1644 1.381 . S
C1646 C1647 1.394 . S
C1646 H1654 0.930 . S
C1647 C1646 1.394 . S
C1647 C1648 1.383 . S
C1647 H1655 0.929 . S
C1648 C1647 1.383 . S
C1648 C1649 1.377 . S
C1649 H1633 0.930 . S
C1649 C1648 1.377 . S
C1649 C1650 1.379 . S
C1650 H1634 0.931 . S
C1650 C1644 1.383 . S
C1650 C1649 1.379 . S
H1651 C1645 0.959 . S
H1652 C1645 0.961 . S
H1653 C1645 0.960 . S
H1654 C1646 0.930 . S
H1655 C1647 0.929 . S
H1656 C1664 0.929 . S
H1657 C1666 0.930 . S
H1658 C1668 0.930 . S
H1659 C1671 0.929 . S
H1660 C1674 0.930 . S
H1661 C1676 0.960 . S
H1662 C1676 0.960 . S
H1663 C1676 0.960 . S
C1664 H1656 0.929 . S
C1664 C1665 1.377 . S
C1664 C1666 1.384 . S
C1665 C1664 1.377 . S
C1665 C1671 1.390 . S
C1666 H1657 0.930 . S
C1666 C1664 1.384 . S
C1666 C1667 1.372 . S
C1667 C1666 1.372 . S
C1667 C1668 1.400 . S
C1667 C1672 1.490 . S
C1668 H1658 0.930 . S
C1668 C1667 1.400 . S
C1668 C1671 1.386 . S
H1669 C1685 0.930 . S
H1670 C1686 0.931 . S
C1671 H1659 0.929 . S
C1671 C1665 1.390 . S
C1671 C1668 1.386 . S
C1672 C1667 1.490 . S
C1672 C1674 1.395 . S
C1672 C1675 1.403 . S
H1673 C1679 0.930 . S
C1674 H1660 0.930 . S
C1674 C1672 1.395 . S
C1674 C1677 1.403 . S
C1675 C1672 1.403 . S
C1675 C1676 1.524 . S
C1675 C1679 1.400 . S
C1676 H1661 0.960 . S
C1676 H1662 0.960 . S
C1676 H1663 0.960 . S
C1676 C1675 1.524 . S
C1677 C1674 1.403 . S
C1677 C1678 1.392 . S
C1677 C1681 1.495 . S
C1678 C1677 1.392 . S
C1678 C1679 1.385 . S
C1678 C1680 1.478 . S
C1679 H1673 0.930 . S
C1679 C1675 1.400 . S
C1679 C1678 1.385 . S
C1680 C1678 1.478 . S
C1680 C1682 1.381 . S
C1680 C1686 1.383 . S
C1681 C1677 1.495 . S
C1681 H1687 0.959 . S
C1681 H1688 0.961 . S
C1681 H1689 0.960 . S
C1682 C1680 1.381 . S
C1682 C1683 1.394 . S
C1682 H1690 0.930 . S
C1683 C1682 1.394 . S
C1683 C1684 1.383 . S
C1683 H1691 0.929 . S
C1684 C1683 1.383 . S
C1684 C1685 1.377 . S
C1685 H1669 0.930 . S
C1685 C1684 1.377 . S
C1685 C1686 1.379 . S
C1686 H1670 0.931 . S
C1686 C1680 1.383 . S
C1686 C1685 1.379 . S
H1687 C1681 0.959 . S
H1688 C1681 0.961 . S
H1689 C1681 0.960 . S
H1690 C1682 0.930 . S
H1691 C1683 0.929 . S
H1692 C1700 0.929 . S
H1693 C1702 0.930 . S
H1694 C1704 0.930 . S
H1695 C1707 0.929 . S
H1696 C1710 0.930 . S
H1697 C1712 0.960 . S
H1698 C1712 0.960 . S
H1699 C1712 0.960 . S
C1700 H1692 0.929 . S
C1700 C1701 1.377 . S
C1700 C1702 1.384 . S
C1701 C1700 1.377 . S
C1701 C1707 1.390 . S
C1702 H1693 0.930 . S
C1702 C1700 1.384 . S
C1702 C1703 1.372 . S
C1703 C1702 1.372 . S
C1703 C1704 1.400 . S
C1703 C1708 1.490 . S
C1704 H1694 0.930 . S
C1704 C1703 1.400 . S
C1704 C1707 1.386 . S
H1705 C1721 0.930 . S
H1706 C1722 0.931 . S
C1707 H1695 0.929 . S
C1707 C1701 1.390 . S
C1707 C1704 1.386 . S
C1708 C1703 1.490 . S
C1708 C1710 1.395 . S
C1708 C1711 1.403 . S
H1709 C1715 0.930 . S
C1710 H1696 0.930 . S
C1710 C1708 1.395 . S
C1710 C1713 1.403 . S
C1711 C1708 1.403 . S
C1711 C1712 1.524 . S
C1711 C1715 1.400 . S
C1712 H1697 0.960 . S
C1712 H1698 0.960 . S
C1712 H1699 0.960 . S
C1712 C1711 1.524 . S
C1713 C1710 1.403 . S
C1713 C1714 1.392 . S
C1713 C1717 1.495 . S
C1714 C1713 1.392 . S
C1714 C1715 1.385 . S
C1714 C1716 1.478 . S
C1715 H1709 0.930 . S
C1715 C1711 1.400 . S
C1715 C1714 1.385 . S
C1716 C1714 1.478 . S
C1716 C1718 1.381 . S
C1716 C1722 1.383 . S
C1717 C1713 1.495 . S
C1717 H1723 0.959 . S
C1717 H1724 0.961 . S
C1717 H1725 0.960 . S
C1718 C1716 1.381 . S
C1718 C1719 1.394 . S
C1718 H1726 0.930 . S
C1719 C1718 1.394 . S
C1719 C1720 1.383 . S
C1719 H1727 0.929 . S
C1720 C1719 1.383 . S
C1720 C1721 1.377 . S
C1721 H1705 0.930 . S
C1721 C1720 1.377 . S
C1721 C1722 1.379 . S
C1722 H1706 0.931 . S
C1722 C1716 1.383 . S
C1722 C1721 1.379 . S
H1723 C1717 0.959 . S
H1724 C1717 0.961 . S
H1725 C1717 0.960 . S
H1726 C1718 0.930 . S
H1727 C1719 0.929 . S
H1728 C1736 0.929 . S
H1729 C1738 0.930 . S
H1730 C1740 0.930 . S
H1731 C1743 0.929 . S
H1732 C1746 0.930 1_565 S
H1733 C1748 0.960 . S
H1734 C1748 0.960 . S
H1735 C1748 0.960 . S
C1736 H1728 0.929 . S
C1736 C1737 1.377 . S
C1736 C1738 1.384 . S
C1737 C1736 1.377 . S
C1737 C1743 1.390 . S
C1738 H1729 0.930 . S
C1738 C1736 1.384 . S
C1738 C1739 1.372 . S
C1739 C1738 1.372 . S
C1739 C1740 1.400 . S
C1739 C1744 1.490 1_565 S
C1740 H1730 0.930 . S
C1740 C1739 1.400 . S
C1740 C1743 1.386 . S
H1741 C1757 0.930 . S
H1742 C1758 0.931 . S
C1743 H1731 0.929 . S
C1743 C1737 1.390 . S
C1743 C1740 1.386 . S
C1744 C1739 1.490 1_545 S
C1744 C1746 1.395 . S
C1744 C1747 1.403 . S
H1745 C1751 0.930 . S
C1746 H1732 0.930 1_545 S
C1746 C1744 1.395 . S
C1746 C1749 1.403 . S
C1747 C1744 1.403 . S
C1747 C1748 1.524 . S
C1747 C1751 1.400 . S
C1748 H1733 0.960 . S
C1748 H1734 0.960 . S
C1748 H1735 0.960 . S
C1748 C1747 1.524 . S
C1749 C1746 1.403 . S
C1749 C1750 1.392 . S
C1749 C1753 1.495 . S
C1750 C1749 1.392 . S
C1750 C1751 1.385 . S
C1750 C1752 1.478 . S
C1751 H1745 0.930 . S
C1751 C1747 1.400 . S
C1751 C1750 1.385 . S
C1752 C1750 1.478 . S
C1752 C1754 1.381 . S
C1752 C1758 1.383 . S
C1753 C1749 1.495 . S
C1753 H1759 0.959 . S
C1753 H1760 0.961 . S
C1753 H1761 0.960 . S
C1754 C1752 1.381 . S
C1754 C1755 1.394 . S
C1754 H1762 0.930 . S
C1755 C1754 1.394 . S
C1755 C1756 1.383 . S
C1755 H1763 0.929 . S
C1756 C1755 1.383 . S
C1756 C1757 1.377 . S
C1757 H1741 0.930 . S
C1757 C1756 1.377 . S
C1757 C1758 1.379 . S
C1758 H1742 0.931 . S
C1758 C1752 1.383 . S
C1758 C1757 1.379 . S
H1759 C1753 0.959 . S
H1760 C1753 0.961 . S
H1761 C1753 0.960 . S
H1762 C1754 0.930 . S
H1763 C1755 0.929 . S
H1764 C1772 0.929 . S
H1765 C1774 0.930 . S
H1766 C1776 0.930 . S
H1767 C1779 0.929 . S
H1768 C1782 0.930 . S
H1769 C1784 0.960 . S
H1770 C1784 0.960 . S
H1771 C1784 0.960 . S
C1772 H1764 0.929 . S
C1772 C1773 1.377 . S
C1772 C1774 1.384 . S
C1773 C1772 1.377 . S
C1773 C1779 1.390 . S
C1774 H1765 0.930 . S
C1774 C1772 1.384 . S
C1774 C1775 1.372 . S
C1775 C1774 1.372 . S
C1775 C1776 1.400 . S
C1775 C1780 1.490 1_455 S
C1776 H1766 0.930 . S
C1776 C1775 1.400 . S
C1776 C1779 1.386 . S
H1777 C1793 0.930 . S
H1778 C1794 0.931 . S
C1779 H1767 0.929 . S
C1779 C1773 1.390 . S
C1779 C1776 1.386 . S
C1780 C1775 1.490 1_655 S
C1780 C1782 1.395 . S
C1780 C1783 1.403 . S
H1781 C1787 0.930 . S
C1782 H1768 0.930 . S
C1782 C1780 1.395 . S
C1782 C1785 1.403 . S
C1783 C1780 1.403 . S
C1783 C1784 1.524 1_655 S
C1783 C1787 1.400 . S
C1784 H1769 0.960 . S
C1784 H1770 0.960 . S
C1784 H1771 0.960 . S
C1784 C1783 1.524 1_455 S
C1785 C1782 1.403 . S
C1785 C1786 1.392 . S
C1785 C1789 1.495 . S
C1786 C1785 1.392 . S
C1786 C1787 1.385 . S
C1786 C1788 1.478 . S
C1787 H1781 0.930 . S
C1787 C1783 1.400 . S
C1787 C1786 1.385 . S
C1788 C1786 1.478 . S
C1788 C1790 1.381 . S
C1788 C1794 1.383 . S
C1789 C1785 1.495 . S
C1789 H1795 0.959 . S
C1789 H1796 0.961 . S
C1789 H1797 0.960 . S
C1790 C1788 1.381 . S
C1790 C1791 1.394 . S
C1790 H1798 0.930 . S
C1791 C1790 1.394 . S
C1791 C1792 1.383 . S
C1791 H1799 0.929 . S
C1792 C1791 1.383 . S
C1792 C1793 1.377 . S
C1793 H1777 0.930 . S
C1793 C1792 1.377 . S
C1793 C1794 1.379 . S
C1794 H1778 0.931 . S
C1794 C1788 1.383 . S
C1794 C1793 1.379 . S
H1795 C1789 0.959 . S
H1796 C1789 0.961 . S
H1797 C1789 0.960 . S
H1798 C1790 0.930 . S
H1799 C1791 0.929 . S
H1800 C1808 0.929 . S
H1801 C1810 0.930 . S
H1802 C1812 0.930 . S
H1803 C1815 0.929 . S
H1804 C1818 0.930 . S
H1805 C1820 0.960 . S
H1806 C1820 0.960 . S
H1807 C1820 0.960 . S
C1808 H1800 0.929 . S
C1808 C1809 1.377 . S
C1808 C1810 1.384 . S
C1809 C1808 1.377 . S
C1809 C1815 1.390 . S
C1810 H1801 0.930 . S
C1810 C1808 1.384 . S
C1810 C1811 1.372 . S
C1811 C1810 1.372 . S
C1811 C1812 1.400 . S
C1811 C1816 1.490 . S
C1812 H1802 0.930 . S
C1812 C1811 1.400 . S
C1812 C1815 1.386 . S
H1813 C1829 0.930 . S
H1814 C1830 0.931 . S
C1815 H1803 0.929 . S
C1815 C1809 1.390 . S
C1815 C1812 1.386 . S
C1816 C1811 1.490 . S
C1816 C1818 1.395 . S
C1816 C1819 1.403 . S
H1817 C1823 0.930 . S
C1818 H1804 0.930 . S
C1818 C1816 1.395 . S
C1818 C1821 1.403 . S
C1819 C1816 1.403 . S
C1819 C1820 1.524 . S
C1819 C1823 1.400 . S
C1820 H1805 0.960 . S
C1820 H1806 0.960 . S
C1820 H1807 0.960 . S
C1820 C1819 1.524 . S
C1821 C1818 1.403 . S
C1821 C1822 1.392 . S
C1821 C1825 1.495 . S
C1822 C1821 1.392 . S
C1822 C1823 1.385 . S
C1822 C1824 1.478 . S
C1823 H1817 0.930 . S
C1823 C1819 1.400 . S
C1823 C1822 1.385 . S
C1824 C1822 1.478 . S
C1824 C1826 1.381 . S
C1824 C1830 1.383 . S
C1825 C1821 1.495 . S
C1825 H1831 0.959 . S
C1825 H1832 0.961 . S
C1825 H1833 0.960 . S
C1826 C1824 1.381 . S
C1826 C1827 1.394 . S
C1826 H1834 0.930 . S
C1827 C1826 1.394 . S
C1827 C1828 1.383 . S
C1827 H1835 0.929 . S
C1828 C1827 1.383 . S
C1828 C1829 1.377 . S
C1829 H1813 0.930 . S
C1829 C1828 1.377 . S
C1829 C1830 1.379 . S
C1830 H1814 0.931 . S
C1830 C1824 1.383 . S
C1830 C1829 1.379 . S
H1831 C1825 0.959 . S
H1832 C1825 0.961 . S
H1833 C1825 0.960 . S
H1834 C1826 0.930 . S
H1835 C1827 0.929 . S
H1836 C1844 0.929 . S
H1837 C1846 0.930 . S
H1838 C1848 0.930 . S
H1839 C1851 0.929 . S
H1840 C1854 0.930 1_455 S
H1841 C1856 0.960 . S
H1842 C1856 0.960 1_455 S
H1843 C1856 0.960 . S
C1844 H1836 0.929 . S
C1844 C1845 1.377 . S
C1844 C1846 1.384 . S
C1845 C1844 1.377 . S
C1845 C1851 1.390 . S
C1846 H1837 0.930 . S
C1846 C1844 1.384 . S
C1846 C1847 1.372 . S
C1847 C1846 1.372 . S
C1847 C1848 1.400 . S
C1847 C1852 1.490 . S
C1848 H1838 0.930 . S
C1848 C1847 1.400 . S
C1848 C1851 1.386 . S
H1849 C1865 0.930 . S
H1850 C1866 0.931 . S
C1851 H1839 0.929 . S
C1851 C1845 1.390 . S
C1851 C1848 1.386 . S
C1852 C1847 1.490 . S
C1852 C1854 1.395 1_455 S
C1852 C1855 1.403 1_455 S
H1853 C1859 0.930 . S
C1854 H1840 0.930 1_655 S
C1854 C1852 1.395 1_655 S
C1854 C1857 1.403 . S
C1855 C1852 1.403 1_655 S
C1855 C1856 1.524 . S
C1855 C1859 1.400 . S
C1856 H1841 0.960 . S
C1856 H1842 0.960 1_655 S
C1856 H1843 0.960 . S
C1856 C1855 1.524 . S
C1857 C1854 1.403 . S
C1857 C1858 1.392 . S
C1857 C1861 1.495 . S
C1858 C1857 1.392 . S
C1858 C1859 1.385 . S
C1858 C1860 1.478 . S
C1859 H1853 0.930 . S
C1859 C1855 1.400 . S
C1859 C1858 1.385 . S
C1860 C1858 1.478 . S
C1860 C1862 1.381 . S
C1860 C1866 1.383 . S
C1861 C1857 1.495 . S
C1861 H1867 0.959 . S
C1861 H1868 0.961 . S
C1861 H1869 0.960 . S
C1862 C1860 1.381 . S
C1862 C1863 1.394 . S
C1862 H1870 0.930 . S
C1863 C1862 1.394 . S
C1863 C1864 1.383 . S
C1863 H1871 0.929 . S
C1864 C1863 1.383 . S
C1864 C1865 1.377 . S
C1865 H1849 0.930 . S
C1865 C1864 1.377 . S
C1865 C1866 1.379 . S
C1866 H1850 0.931 . S
C1866 C1860 1.383 . S
C1866 C1865 1.379 . S
H1867 C1861 0.959 . S
H1868 C1861 0.961 . S
H1869 C1861 0.960 . S
H1870 C1862 0.930 . S
H1871 C1863 0.929 . S
H1872 C1880 0.929 . S
H1873 C1882 0.930 . S
H1874 C1884 0.930 . S
H1875 C1887 0.929 . S
H1876 C1890 0.930 . S
H1877 C1892 0.960 . S
H1878 C1892 0.960 . S
H1879 C1892 0.960 . S
C1880 H1872 0.929 . S
C1880 C1881 1.377 . S
C1880 C1882 1.384 . S
C1881 C1880 1.377 . S
C1881 C1887 1.390 . S
C1882 H1873 0.930 . S
C1882 C1880 1.384 . S
C1882 C1883 1.372 . S
C1883 C1882 1.372 . S
C1883 C1884 1.400 . S
C1883 C1888 1.490 . S
C1884 H1874 0.930 . S
C1884 C1883 1.400 . S
C1884 C1887 1.386 . S
H1885 C1901 0.930 . S
H1886 C1902 0.931 . S
C1887 H1875 0.929 . S
C1887 C1881 1.390 . S
C1887 C1884 1.386 . S
C1888 C1883 1.490 . S
C1888 C1890 1.395 . S
C1888 C1891 1.403 . S
H1889 C1895 0.930 . S
C1890 H1876 0.930 . S
C1890 C1888 1.395 . S
C1890 C1893 1.403 . S
C1891 C1888 1.403 . S
C1891 C1892 1.524 . S
C1891 C1895 1.400 . S
C1892 H1877 0.960 . S
C1892 H1878 0.960 . S
C1892 H1879 0.960 . S
C1892 C1891 1.524 . S
C1893 C1890 1.403 . S
C1893 C1894 1.392 . S
C1893 C1897 1.495 . S
C1894 C1893 1.392 . S
C1894 C1895 1.385 . S
C1894 C1896 1.478 . S
C1895 H1889 0.930 . S
C1895 C1891 1.400 . S
C1895 C1894 1.385 . S
C1896 C1894 1.478 . S
C1896 C1898 1.381 . S
C1896 C1902 1.383 . S
C1897 C1893 1.495 . S
C1897 H1903 0.959 . S
C1897 H1904 0.961 . S
C1897 H1905 0.960 . S
C1898 C1896 1.381 . S
C1898 C1899 1.394 . S
C1898 H1906 0.930 . S
C1899 C1898 1.394 . S
C1899 C1900 1.383 . S
C1899 H1907 0.929 . S
C1900 C1899 1.383 . S
C1900 C1901 1.377 . S
C1901 H1885 0.930 . S
C1901 C1900 1.377 . S
C1901 C1902 1.379 . S
C1902 H1886 0.931 . S
C1902 C1896 1.383 . S
C1902 C1901 1.379 . S
H1903 C1897 0.959 . S
H1904 C1897 0.961 . S
H1905 C1897 0.960 . S
H1906 C1898 0.930 . S
H1907 C1899 0.929 . S
H1908 C1916 0.929 . S
H1909 C1918 0.930 . S
H1910 C1920 0.930 . S
H1911 C1923 0.929 . S
H1912 C1926 0.930 1_565 S
H1913 C1928 0.960 . S
H1914 C1928 0.960 . S
H1915 C1928 0.960 . S
C1916 H1908 0.929 . S
C1916 C1917 1.377 . S
C1916 C1918 1.384 . S
C1917 C1916 1.377 . S
C1917 C1923 1.390 . S
C1918 H1909 0.930 . S
C1918 C1916 1.384 . S
C1918 C1919 1.372 . S
C1919 C1918 1.372 . S
C1919 C1920 1.400 . S
C1919 C1924 1.490 1_565 S
C1920 H1910 0.930 . S
C1920 C1919 1.400 . S
C1920 C1923 1.386 . S
H1921 C1937 0.930 . S
H1922 C1938 0.931 . S
C1923 H1911 0.929 . S
C1923 C1917 1.390 . S
C1923 C1920 1.386 . S
C1924 C1919 1.490 1_545 S
C1924 C1926 1.395 . S
C1924 C1927 1.403 . S
H1925 C1931 0.930 . S
C1926 H1912 0.930 1_545 S
C1926 C1924 1.395 . S
C1926 C1929 1.403 . S
C1927 C1924 1.403 . S
C1927 C1928 1.524 . S
C1927 C1931 1.400 . S
C1928 H1913 0.960 . S
C1928 H1914 0.960 . S
C1928 H1915 0.960 . S
C1928 C1927 1.524 . S
C1929 C1926 1.403 . S
C1929 C1930 1.392 . S
C1929 C1933 1.495 . S
C1930 C1929 1.392 . S
C1930 C1931 1.385 . S
C1930 C1932 1.478 . S
C1931 H1925 0.930 . S
C1931 C1927 1.400 . S
C1931 C1930 1.385 . S
C1932 C1930 1.478 . S
C1932 C1934 1.381 . S
C1932 C1938 1.383 . S
C1933 C1929 1.495 . S
C1933 H1939 0.959 . S
C1933 H1940 0.961 . S
C1933 H1941 0.960 . S
C1934 C1932 1.381 . S
C1934 C1935 1.394 . S
C1934 H1942 0.930 . S
C1935 C1934 1.394 . S
C1935 C1936 1.383 . S
C1935 H1943 0.929 . S
C1936 C1935 1.383 . S
C1936 C1937 1.377 . S
C1937 H1921 0.930 . S
C1937 C1936 1.377 . S
C1937 C1938 1.379 . S
C1938 H1922 0.931 . S
C1938 C1932 1.383 . S
C1938 C1937 1.379 . S
H1939 C1933 0.959 . S
H1940 C1933 0.961 . S
H1941 C1933 0.960 . S
H1942 C1934 0.930 . S
H1943 C1935 0.929 . S
H1944 C1952 0.929 . S
H1945 C1954 0.930 . S
H1946 C1956 0.930 . S
H1947 C1959 0.929 . S
H1948 C1962 0.930 . S
H1949 C1964 0.960 . S
H1950 C1964 0.960 . S
H1951 C1964 0.960 . S
C1952 H1944 0.929 . S
C1952 C1953 1.377 . S
C1952 C1954 1.384 . S
C1953 C1952 1.377 . S
C1953 C1959 1.390 . S
C1954 H1945 0.930 . S
C1954 C1952 1.384 . S
C1954 C1955 1.372 . S
C1955 C1954 1.372 . S
C1955 C1956 1.400 . S
C1955 C1960 1.490 . S
C1956 H1946 0.930 . S
C1956 C1955 1.400 . S
C1956 C1959 1.386 . S
H1957 C1973 0.930 . S
H1958 C1974 0.931 . S
C1959 H1947 0.929 . S
C1959 C1953 1.390 . S
C1959 C1956 1.386 . S
C1960 C1955 1.490 . S
C1960 C1962 1.395 . S
C1960 C1963 1.403 . S
H1961 C1967 0.930 . S
C1962 H1948 0.930 . S
C1962 C1960 1.395 . S
C1962 C1965 1.403 . S
C1963 C1960 1.403 . S
C1963 C1964 1.524 . S
C1963 C1967 1.400 . S
C1964 H1949 0.960 . S
C1964 H1950 0.960 . S
C1964 H1951 0.960 . S
C1964 C1963 1.524 . S
C1965 C1962 1.403 . S
C1965 C1966 1.392 . S
C1965 C1969 1.495 . S
C1966 C1965 1.392 . S
C1966 C1967 1.385 . S
C1966 C1968 1.478 . S
C1967 H1961 0.930 . S
C1967 C1963 1.400 . S
C1967 C1966 1.385 . S
C1968 C1966 1.478 . S
C1968 C1970 1.381 . S
C1968 C1974 1.383 . S
C1969 C1965 1.495 . S
C1969 H1975 0.959 . S
C1969 H1976 0.961 . S
C1969 H1977 0.960 . S
C1970 C1968 1.381 . S
C1970 C1971 1.394 . S
C1970 H1978 0.930 . S
C1971 C1970 1.394 . S
C1971 C1972 1.383 . S
C1971 H1979 0.929 . S
C1972 C1971 1.383 . S
C1972 C1973 1.377 . S
C1973 H1957 0.930 . S
C1973 C1972 1.377 . S
C1973 C1974 1.379 . S
C1974 H1958 0.931 . S
C1974 C1968 1.383 . S
C1974 C1973 1.379 . S
H1975 C1969 0.959 . S
H1976 C1969 0.961 . S
H1977 C1969 0.960 . S
H1978 C1970 0.930 . S
H1979 C1971 0.929 . S
H1980 C1988 0.929 . S
H1981 C1990 0.930 . S
H1982 C1992 0.930 . S
H1983 C1995 0.929 . S
H1984 C1998 0.930 . S
H1985 C2000 0.960 . S
H1986 C2000 0.960 . S
H1987 C2000 0.960 . S
C1988 H1980 0.929 . S
C1988 C1989 1.377 . S
C1988 C1990 1.384 . S
C1989 C1988 1.377 . S
C1989 C1995 1.390 . S
C1990 H1981 0.930 . S
C1990 C1988 1.384 . S
C1990 C1991 1.372 . S
C1991 C1990 1.372 . S
C1991 C1992 1.400 . S
C1991 C1996 1.490 . S
C1992 H1982 0.930 . S
C1992 C1991 1.400 . S
C1992 C1995 1.386 . S
H1993 C2009 0.930 . S
H1994 C2010 0.931 . S
C1995 H1983 0.929 . S
C1995 C1989 1.390 . S
C1995 C1992 1.386 . S
C1996 C1991 1.490 . S
C1996 C1998 1.395 . S
C1996 C1999 1.403 . S
H1997 C2003 0.930 . S
C1998 H1984 0.930 . S
C1998 C1996 1.395 . S
C1998 C2001 1.403 . S
C1999 C1996 1.403 . S
C1999 C2000 1.524 . S
C1999 C2003 1.400 . S
C2000 H1985 0.960 . S
C2000 H1986 0.960 . S
C2000 H1987 0.960 . S
C2000 C1999 1.524 . S
C2001 C1998 1.403 . S
C2001 C2002 1.392 . S
C2001 C2005 1.495 . S
C2002 C2001 1.392 . S
C2002 C2003 1.385 . S
C2002 C2004 1.478 . S
C2003 H1997 0.930 . S
C2003 C1999 1.400 . S
C2003 C2002 1.385 . S
C2004 C2002 1.478 . S
C2004 C2006 1.381 . S
C2004 C2010 1.383 . S
C2005 C2001 1.495 . S
C2005 H2011 0.959 . S
C2005 H2012 0.961 . S
C2005 H2013 0.960 . S
C2006 C2004 1.381 . S
C2006 C2007 1.394 . S
C2006 H2014 0.930 . S
C2007 C2006 1.394 . S
C2007 C2008 1.383 . S
C2007 H2015 0.929 . S
C2008 C2007 1.383 . S
C2008 C2009 1.377 . S
C2009 H1993 0.930 . S
C2009 C2008 1.377 . S
C2009 C2010 1.379 . S
C2010 H1994 0.931 . S
C2010 C2004 1.383 . S
C2010 C2009 1.379 . S
H2011 C2005 0.959 . S
H2012 C2005 0.961 . S
H2013 C2005 0.960 . S
H2014 C2006 0.930 . S
H2015 C2007 0.929 . S
H2016 C2024 0.929 . S
H2017 C2026 0.930 . S
H2018 C2028 0.930 . S
H2019 C2031 0.929 . S
H2020 C2034 0.930 . S
H2021 C2036 0.960 . S
H2022 C2036 0.960 . S
H2023 C2036 0.960 . S
C2024 H2016 0.929 . S
C2024 C2025 1.377 . S
C2024 C2026 1.384 . S
C2025 C2024 1.377 . S
C2025 C2031 1.390 . S
C2026 H2017 0.930 . S
C2026 C2024 1.384 . S
C2026 C2027 1.372 . S
C2027 C2026 1.372 . S
C2027 C2028 1.400 . S
C2027 C2032 1.490 . S
C2028 H2018 0.930 . S
C2028 C2027 1.400 . S
C2028 C2031 1.386 . S
H2029 C2045 0.930 . S
H2030 C2046 0.931 . S
C2031 H2019 0.929 . S
C2031 C2025 1.390 . S
C2031 C2028 1.386 . S
C2032 C2027 1.490 . S
C2032 C2034 1.395 . S
C2032 C2035 1.403 . S
H2033 C2039 0.930 . S
C2034 H2020 0.930 . S
C2034 C2032 1.395 . S
C2034 C2037 1.403 . S
C2035 C2032 1.403 . S
C2035 C2036 1.524 . S
C2035 C2039 1.400 . S
C2036 H2021 0.960 . S
C2036 H2022 0.960 . S
C2036 H2023 0.960 . S
C2036 C2035 1.524 . S
C2037 C2034 1.403 . S
C2037 C2038 1.392 . S
C2037 C2041 1.495 . S
C2038 C2037 1.392 . S
C2038 C2039 1.385 . S
C2038 C2040 1.478 . S
C2039 H2033 0.930 . S
C2039 C2035 1.400 . S
C2039 C2038 1.385 . S
C2040 C2038 1.478 . S
C2040 C2042 1.381 . S
C2040 C2046 1.383 . S
C2041 C2037 1.495 . S
C2041 H2047 0.959 . S
C2041 H2048 0.961 . S
C2041 H2049 0.960 . S
C2042 C2040 1.381 . S
C2042 C2043 1.394 . S
C2042 H2050 0.930 . S
C2043 C2042 1.394 . S
C2043 C2044 1.383 . S
C2043 H2051 0.929 . S
C2044 C2043 1.383 . S
C2044 C2045 1.377 . S
C2045 H2029 0.930 . S
C2045 C2044 1.377 . S
C2045 C2046 1.379 . S
C2046 H2030 0.931 . S
C2046 C2040 1.383 . S
C2046 C2045 1.379 . S
H2047 C2041 0.959 . S
H2048 C2041 0.961 . S
H2049 C2041 0.960 . S
H2050 C2042 0.930 . S
H2051 C2043 0.929 . S
H2052 C2060 0.929 . S
H2053 C2062 0.930 . S
H2054 C2064 0.930 . S
H2055 C2067 0.929 . S
H2056 C2070 0.930 . S
H2057 C2072 0.960 1_545 S
H2058 C2072 0.960 1_545 S
H2059 C2072 0.960 . S
C2060 H2052 0.929 . S
C2060 C2061 1.377 . S
C2060 C2062 1.384 . S
C2061 C2060 1.377 . S
C2061 C2067 1.390 . S
C2062 H2053 0.930 . S
C2062 C2060 1.384 . S
C2062 C2063 1.372 . S
C2063 C2062 1.372 . S
C2063 C2064 1.400 . S
C2063 C2068 1.490 . S
C2064 H2054 0.930 . S
C2064 C2063 1.400 . S
C2064 C2067 1.386 . S
H2065 C2081 0.930 . S
H2066 C2082 0.931 . S
C2067 H2055 0.929 . S
C2067 C2061 1.390 . S
C2067 C2064 1.386 . S
C2068 C2063 1.490 . S
C2068 C2070 1.395 . S
C2068 C2071 1.403 . S
H2069 C2075 0.930 . S
C2070 H2056 0.930 . S
C2070 C2068 1.395 . S
C2070 C2073 1.403 . S
C2071 C2068 1.403 . S
C2071 C2072 1.524 . S
C2071 C2075 1.400 . S
C2072 H2057 0.960 1_565 S
C2072 H2058 0.960 1_565 S
C2072 H2059 0.960 . S
C2072 C2071 1.524 . S
C2073 C2070 1.403 . S
C2073 C2074 1.392 . S
C2073 C2077 1.495 . S
C2074 C2073 1.392 . S
C2074 C2075 1.385 . S
C2074 C2076 1.478 . S
C2075 H2069 0.930 . S
C2075 C2071 1.400 . S
C2075 C2074 1.385 . S
C2076 C2074 1.478 . S
C2076 C2078 1.381 . S
C2076 C2082 1.383 . S
C2077 C2073 1.495 . S
C2077 H2083 0.959 . S
C2077 H2084 0.961 . S
C2077 H2085 0.960 . S
C2078 C2076 1.381 . S
C2078 C2079 1.394 . S
C2078 H2086 0.930 . S
C2079 C2078 1.394 . S
C2079 C2080 1.383 . S
C2079 H2087 0.929 . S
C2080 C2079 1.383 . S
C2080 C2081 1.377 . S
C2081 H2065 0.930 . S
C2081 C2080 1.377 . S
C2081 C2082 1.379 . S
C2082 H2066 0.931 . S
C2082 C2076 1.383 . S
C2082 C2081 1.379 . S
H2083 C2077 0.959 . S
H2084 C2077 0.961 . S
H2085 C2077 0.960 . S
H2086 C2078 0.930 . S
H2087 C2079 0.929 . S
H2088 C2096 0.929 . S
H2089 C2098 0.930 . S
H2090 C2100 0.930 . S
H2091 C2103 0.929 . S
H2092 C2106 0.930 . S
H2093 C2108 0.960 . S
H2094 C2108 0.960 1_455 S
H2095 C2108 0.960 . S
C2096 H2088 0.929 . S
C2096 C2097 1.377 . S
C2096 C2098 1.384 . S
C2097 C2096 1.377 . S
C2097 C2103 1.390 . S
C2098 H2089 0.930 . S
C2098 C2096 1.384 . S
C2098 C2099 1.372 . S
C2099 C2098 1.372 . S
C2099 C2100 1.400 . S
C2099 C2104 1.490 . S
C2100 H2090 0.930 . S
C2100 C2099 1.400 . S
C2100 C2103 1.386 . S
H2101 C2117 0.930 1_655 S
H2102 C2118 0.933 . S
C2103 H2091 0.929 . S
C2103 C2097 1.390 . S
C2103 C2100 1.386 . S
C2104 C2099 1.490 . S
C2104 C2106 1.395 . S
C2104 C2107 1.403 . S
H2105 C2111 0.930 . S
C2106 H2092 0.930 . S
C2106 C2104 1.395 . S
C2106 C2109 1.403 . S
C2107 C2104 1.403 . S
C2107 C2108 1.524 1_455 S
C2107 C2111 1.400 . S
C2108 H2093 0.960 . S
C2108 H2094 0.960 1_655 S
C2108 H2095 0.960 . S
C2108 C2107 1.524 1_655 S
C2109 C2106 1.403 . S
C2109 C2110 1.392 . S
C2109 C2113 1.495 . S
C2110 C2109 1.392 . S
C2110 C2111 1.385 . S
C2110 C2112 1.478 . S
C2111 H2105 0.930 . S
C2111 C2107 1.400 . S
C2111 C2110 1.385 . S
C2112 C2110 1.478 . S
C2112 C2114 1.381 . S
C2112 C2118 1.383 . S
C2113 C2109 1.495 . S
C2113 H2119 0.959 . S
C2113 H2120 0.961 . S
C2113 H2121 0.960 . S
C2114 C2112 1.381 . S
C2114 C2115 1.394 . S
C2114 H2122 0.930 . S
C2115 C2114 1.394 . S
C2115 C2116 1.383 . S
C2115 H2123 0.929 . S
C2116 C2115 1.383 . S
C2116 C2117 1.377 . S
C2117 H2101 0.930 1_455 S
C2117 C2116 1.377 . S
C2117 C2118 1.379 . S
C2118 H2102 0.933 . S
C2118 C2112 1.383 . S
C2118 C2117 1.379 . S
H2119 C2113 0.959 . S
H2120 C2113 0.961 . S
H2121 C2113 0.960 . S
H2122 C2114 0.930 . S
H2123 C2115 0.929 . S
H2124 C2132 0.929 . S
H2125 C2134 0.930 . S
H2126 C2136 0.930 . S
H2127 C2139 0.929 . S
H2128 C2142 0.930 . S
H2129 C2144 0.960 . S
H2130 C2144 0.960 . S
H2131 C2144 0.960 . S
C2132 H2124 0.929 . S
C2132 C2133 1.377 . S
C2132 C2134 1.384 . S
C2133 C2132 1.377 . S
C2133 C2139 1.390 . S
C2134 H2125 0.930 . S
C2134 C2132 1.384 . S
C2134 C2135 1.372 . S
C2135 C2134 1.372 . S
C2135 C2136 1.400 . S
C2135 C2140 1.490 . S
C2136 H2126 0.930 . S
C2136 C2135 1.400 . S
C2136 C2139 1.386 . S
H2137 C2153 0.930 . S
H2138 C2154 0.931 . S
C2139 H2127 0.929 . S
C2139 C2133 1.390 . S
C2139 C2136 1.386 . S
C2140 C2135 1.490 . S
C2140 C2142 1.395 . S
C2140 C2143 1.403 . S
H2141 C2147 0.930 . S
C2142 H2128 0.930 . S
C2142 C2140 1.395 . S
C2142 C2145 1.403 . S
C2143 C2140 1.403 . S
C2143 C2144 1.524 . S
C2143 C2147 1.400 . S
C2144 H2129 0.960 . S
C2144 H2130 0.960 . S
C2144 H2131 0.960 . S
C2144 C2143 1.524 . S
C2145 C2142 1.403 . S
C2145 C2146 1.392 . S
C2145 C2149 1.495 . S
C2146 C2145 1.392 . S
C2146 C2147 1.385 . S
C2146 C2148 1.478 . S
C2147 H2141 0.930 . S
C2147 C2143 1.400 . S
C2147 C2146 1.385 . S
C2148 C2146 1.478 . S
C2148 C2150 1.381 . S
C2148 C2154 1.383 . S
C2149 C2145 1.495 . S
C2149 H2155 0.959 . S
C2149 H2156 0.961 . S
C2149 H2157 0.960 . S
C2150 C2148 1.381 . S
C2150 C2151 1.394 . S
C2150 H2158 0.930 . S
C2151 C2150 1.394 . S
C2151 C2152 1.383 . S
C2151 H2159 0.929 . S
C2152 C2151 1.383 . S
C2152 C2153 1.377 . S
C2153 H2137 0.930 . S
C2153 C2152 1.377 . S
C2153 C2154 1.379 . S
C2154 H2138 0.931 . S
C2154 C2148 1.383 . S
C2154 C2153 1.379 . S
H2155 C2149 0.959 . S
H2156 C2149 0.961 . S
H2157 C2149 0.960 . S
H2158 C2150 0.930 . S
H2159 C2151 0.929 . S
H2160 C2168 0.929 . S
H2161 C2170 0.930 . S
H2162 C2172 0.930 . S
H2163 C2175 0.929 . S
H2164 C2178 0.930 1_455 S
H2165 C2180 0.960 . S
H2166 C2180 0.960 . S
H2167 C2180 0.960 . S
C2168 H2160 0.929 . S
C2168 C2169 1.377 . S
C2168 C2170 1.384 . S
C2169 C2168 1.377 . S
C2169 C2175 1.390 . S
C2170 H2161 0.930 . S
C2170 C2168 1.384 . S
C2170 C2171 1.372 . S
C2171 C2170 1.372 . S
C2171 C2172 1.400 . S
C2171 C2176 1.490 . S
C2172 H2162 0.930 . S
C2172 C2171 1.400 . S
C2172 C2175 1.386 . S
H2173 C2189 0.930 . S
H2174 C2190 0.931 . S
C2175 H2163 0.929 . S
C2175 C2169 1.390 . S
C2175 C2172 1.386 . S
C2176 C2171 1.490 . S
C2176 C2178 1.395 . S
C2176 C2179 1.403 . S
H2177 C2183 0.930 . S
C2178 H2164 0.930 1_655 S
C2178 C2176 1.395 . S
C2178 C2181 1.403 . S
C2179 C2176 1.403 . S
C2179 C2180 1.524 . S
C2179 C2183 1.400 . S
C2180 H2165 0.960 . S
C2180 H2166 0.960 . S
C2180 H2167 0.960 . S
C2180 C2179 1.524 . S
C2181 C2178 1.403 . S
C2181 C2182 1.392 . S
C2181 C2185 1.495 1_655 S
C2182 C2181 1.392 . S
C2182 C2183 1.385 . S
C2182 C2184 1.478 . S
C2183 H2177 0.930 . S
C2183 C2179 1.400 . S
C2183 C2182 1.385 . S
C2184 C2182 1.478 . S
C2184 C2186 1.381 1_655 S
C2184 C2190 1.383 . S
C2185 C2181 1.495 1_455 S
C2185 H2191 0.959 . S
C2185 H2192 0.961 . S
C2185 H2193 0.960 . S
C2186 C2184 1.381 1_455 S
C2186 C2187 1.394 . S
C2186 H2194 0.930 . S
C2187 C2186 1.394 . S
C2187 C2188 1.383 1_455 S
C2187 H2195 0.929 . S
C2188 C2187 1.383 1_655 S
C2188 C2189 1.377 . S
C2189 H2173 0.930 . S
C2189 C2188 1.377 . S
C2189 C2190 1.379 . S
C2190 H2174 0.931 . S
C2190 C2184 1.383 . S
C2190 C2189 1.379 . S
H2191 C2185 0.959 . S
H2192 C2185 0.961 . S
H2193 C2185 0.960 . S
H2194 C2186 0.930 . S
H2195 C2187 0.929 . S
H2196 C2204 0.929 . S
H2197 C2206 0.930 . S
H2198 C2208 0.930 . S
H2199 C2211 0.929 . S
H2200 C2214 0.930 . S
H2201 C2216 0.960 . S
H2202 C2216 0.960 . S
H2203 C2216 0.960 . S
C2204 H2196 0.929 . S
C2204 C2205 1.377 . S
C2204 C2206 1.384 . S
C2205 C2204 1.377 . S
C2205 C2211 1.390 . S
C2206 H2197 0.930 . S
C2206 C2204 1.384 . S
C2206 C2207 1.372 . S
C2207 C2206 1.372 . S
C2207 C2208 1.400 . S
C2207 C2212 1.490 . S
C2208 H2198 0.930 . S
C2208 C2207 1.400 . S
C2208 C2211 1.386 . S
H2209 C2225 0.930 . S
H2210 C2226 0.931 . S
C2211 H2199 0.929 . S
C2211 C2205 1.390 . S
C2211 C2208 1.386 . S
C2212 C2207 1.490 . S
C2212 C2214 1.395 . S
C2212 C2215 1.403 . S
H2213 C2219 0.930 . S
C2214 H2200 0.930 . S
C2214 C2212 1.395 . S
C2214 C2217 1.403 . S
C2215 C2212 1.403 . S
C2215 C2216 1.524 . S
C2215 C2219 1.400 . S
C2216 H2201 0.960 . S
C2216 H2202 0.960 . S
C2216 H2203 0.960 . S
C2216 C2215 1.524 . S
C2217 C2214 1.403 . S
C2217 C2218 1.392 . S
C2217 C2221 1.495 . S
C2218 C2217 1.392 . S
C2218 C2219 1.385 . S
C2218 C2220 1.478 . S
C2219 H2213 0.930 . S
C2219 C2215 1.400 . S
C2219 C2218 1.385 . S
C2220 C2218 1.478 . S
C2220 C2222 1.381 . S
C2220 C2226 1.383 . S
C2221 C2217 1.495 . S
C2221 H2227 0.959 . S
C2221 H2228 0.961 . S
C2221 H2229 0.960 . S
C2222 C2220 1.381 . S
C2222 C2223 1.394 . S
C2222 H2230 0.930 . S
C2223 C2222 1.394 . S
C2223 C2224 1.383 . S
C2223 H2231 0.929 . S
C2224 C2223 1.383 . S
C2224 C2225 1.377 . S
C2225 H2209 0.930 . S
C2225 C2224 1.377 . S
C2225 C2226 1.379 . S
C2226 H2210 0.931 . S
C2226 C2220 1.383 . S
C2226 C2225 1.379 . S
H2227 C2221 0.959 . S
H2228 C2221 0.961 . S
H2229 C2221 0.960 . S
H2230 C2222 0.930 . S
H2231 C2223 0.929 . S
H2232 C2240 0.929 . S
H2233 C2242 0.930 . S
H2234 C2244 0.930 . S
H2235 C2247 0.929 . S
H2236 C2250 0.930 . S
H2237 C2252 0.960 . S
H2238 C2252 0.960 . S
H2239 C2252 0.960 . S
C2240 H2232 0.929 . S
C2240 C2241 1.377 . S
C2240 C2242 1.384 . S
C2241 C2240 1.377 . S
C2241 C2247 1.390 . S
C2242 H2233 0.930 . S
C2242 C2240 1.384 . S
C2242 C2243 1.372 . S
C2243 C2242 1.372 . S
C2243 C2244 1.400 . S
C2243 C2248 1.490 . S
C2244 H2234 0.930 . S
C2244 C2243 1.400 . S
C2244 C2247 1.386 . S
H2245 C2261 0.930 . S
H2246 C2262 0.931 . S
C2247 H2235 0.929 . S
C2247 C2241 1.390 . S
C2247 C2244 1.386 . S
C2248 C2243 1.490 . S
C2248 C2250 1.395 . S
C2248 C2251 1.403 . S
H2249 C2255 0.930 . S
C2250 H2236 0.930 . S
C2250 C2248 1.395 . S
C2250 C2253 1.403 . S
C2251 C2248 1.403 . S
C2251 C2252 1.524 . S
C2251 C2255 1.400 . S
C2252 H2237 0.960 . S
C2252 H2238 0.960 . S
C2252 H2239 0.960 . S
C2252 C2251 1.524 . S
C2253 C2250 1.403 . S
C2253 C2254 1.392 . S
C2253 C2257 1.495 1_545 S
C2254 C2253 1.392 . S
C2254 C2255 1.385 . S
C2254 C2256 1.478 . S
C2255 H2249 0.930 . S
C2255 C2251 1.400 . S
C2255 C2254 1.385 . S
C2256 C2254 1.478 . S
C2256 C2258 1.381 . S
C2256 C2262 1.383 . S
C2257 C2253 1.495 1_565 S
C2257 H2263 0.959 . S
C2257 H2264 0.961 . S
C2257 H2265 0.960 . S
C2258 C2256 1.381 . S
C2258 C2259 1.406 . S
C2258 H2266 0.931 1_545 S
C2259 C2258 1.406 . S
C2259 C2260 1.380 . S
C2259 H2267 0.925 1_545 S
C2260 C2259 1.380 . S
C2260 C2261 1.377 . S
C2261 H2245 0.930 . S
C2261 C2260 1.377 . S
C2261 C2262 1.379 . S
C2262 H2246 0.931 . S
C2262 C2256 1.383 . S
C2262 C2261 1.379 . S
H2263 C2257 0.959 . S
H2264 C2257 0.961 . S
H2265 C2257 0.960 . S
H2266 C2258 0.931 1_565 S
H2267 C2259 0.925 1_565 S
H2268 C2276 0.929 . S
H2269 C2278 0.930 . S
H2270 C2280 0.930 . S
H2271 C2283 0.929 . S
H2272 C2286 0.930 . S
H2273 C2288 0.960 . S
H2274 C2288 0.960 . S
H2275 C2288 0.960 . S
C2276 H2268 0.929 . S
C2276 C2277 1.377 . S
C2276 C2278 1.384 . S
C2277 C2276 1.377 . S
C2277 C2283 1.390 . S
C2278 H2269 0.930 . S
C2278 C2276 1.384 . S
C2278 C2279 1.372 . S
C2279 C2278 1.372 . S
C2279 C2280 1.400 . S
C2279 C2284 1.490 . S
C2280 H2270 0.930 . S
C2280 C2279 1.400 . S
C2280 C2283 1.386 . S
H2281 C2297 0.930 . S
H2282 C2298 0.931 . S
C2283 H2271 0.929 . S
C2283 C2277 1.390 . S
C2283 C2280 1.386 . S
C2284 C2279 1.490 . S
C2284 C2286 1.395 . S
C2284 C2287 1.403 . S
H2285 C2291 0.930 . S
C2286 H2272 0.930 . S
C2286 C2284 1.395 . S
C2286 C2289 1.403 . S
C2287 C2284 1.403 . S
C2287 C2288 1.524 . S
C2287 C2291 1.400 . S
C2288 H2273 0.960 . S
C2288 H2274 0.960 . S
C2288 H2275 0.960 . S
C2288 C2287 1.524 . S
C2289 C2286 1.403 . S
C2289 C2290 1.392 . S
C2289 C2293 1.495 . S
C2290 C2289 1.392 . S
C2290 C2291 1.385 . S
C2290 C2292 1.478 . S
C2291 H2285 0.930 . S
C2291 C2287 1.400 . S
C2291 C2290 1.385 . S
C2292 C2290 1.478 . S
C2292 C2294 1.381 . S
C2292 C2298 1.383 . S
C2293 C2289 1.495 . S
C2293 H2299 0.959 . S
C2293 H2300 0.961 . S
C2293 H2301 0.960 . S
C2294 C2292 1.381 . S
C2294 C2295 1.394 . S
C2294 H2302 0.930 . S
C2295 C2294 1.394 . S
C2295 C2296 1.383 . S
C2295 H2303 0.929 . S
C2296 C2295 1.383 . S
C2296 C2297 1.377 . S
C2297 H2281 0.930 . S
C2297 C2296 1.377 . S
C2297 C2298 1.379 . S
C2298 H2282 0.931 . S
C2298 C2292 1.383 . S
C2298 C2297 1.379 . S
H2299 C2293 0.959 . S
H2300 C2293 0.961 . S
H2301 C2293 0.960 . S
H2302 C2294 0.930 . S
H2303 C2295 0.929 . S
H2304 C2312 0.929 . S
H2305 C2314 0.930 . S
H2306 C2316 0.930 . S
H2307 C2319 0.929 . S
H2308 C2322 0.930 . S
H2309 C2324 0.960 . S
H2310 C2324 0.960 . S
H2311 C2324 0.960 . S
C2312 H2304 0.929 . S
C2312 C2313 1.377 . S
C2312 C2314 1.384 . S
C2313 C2312 1.377 . S
C2313 C2319 1.390 . S
C2314 H2305 0.930 . S
C2314 C2312 1.384 . S
C2314 C2315 1.372 . S
C2315 C2314 1.372 . S
C2315 C2316 1.400 . S
C2315 C2320 1.490 . S
C2316 H2306 0.930 . S
C2316 C2315 1.400 . S
C2316 C2319 1.386 . S
H2317 C2333 0.930 . S
H2318 C2334 0.931 . S
C2319 H2307 0.929 . S
C2319 C2313 1.390 . S
C2319 C2316 1.386 . S
C2320 C2315 1.490 . S
C2320 C2322 1.395 . S
C2320 C2323 1.403 . S
H2321 C2327 0.930 . S
C2322 H2308 0.930 . S
C2322 C2320 1.395 . S
C2322 C2325 1.403 . S
C2323 C2320 1.403 . S
C2323 C2324 1.524 . S
C2323 C2327 1.400 . S
C2324 H2309 0.960 . S
C2324 H2310 0.960 . S
C2324 H2311 0.960 . S
C2324 C2323 1.524 . S
C2325 C2322 1.403 . S
C2325 C2326 1.392 . S
C2325 C2329 1.495 . S
C2326 C2325 1.392 . S
C2326 C2327 1.385 . S
C2326 C2328 1.478 . S
C2327 H2321 0.930 . S
C2327 C2323 1.400 . S
C2327 C2326 1.385 . S
C2328 C2326 1.478 . S
C2328 C2330 1.381 . S
C2328 C2334 1.383 . S
C2329 C2325 1.495 . S
C2329 H2335 0.959 . S
C2329 H2336 0.961 . S
C2329 H2337 0.960 . S
C2330 C2328 1.381 . S
C2330 C2331 1.394 . S
C2330 H2338 0.930 . S
C2331 C2330 1.394 . S
C2331 C2332 1.383 . S
C2331 H2339 0.929 . S
C2332 C2331 1.383 . S
C2332 C2333 1.377 . S
C2333 H2317 0.930 . S
C2333 C2332 1.377 . S
C2333 C2334 1.379 . S
C2334 H2318 0.931 . S
C2334 C2328 1.383 . S
C2334 C2333 1.379 . S
H2335 C2329 0.959 . S
H2336 C2329 0.961 . S
H2337 C2329 0.960 . S
H2338 C2330 0.930 . S
H2339 C2331 0.929 . S
H2340 C2348 0.929 . S
H2341 C2350 0.930 . S
H2342 C2352 0.930 . S
H2343 C2355 0.929 . S
H2344 C2358 0.930 . S
H2345 C2360 0.960 . S
H2346 C2360 0.960 . S
H2347 C2360 0.960 . S
C2348 H2340 0.929 . S
C2348 C2349 1.377 . S
C2348 C2350 1.384 . S
C2349 C2348 1.377 . S
C2349 C2355 1.390 . S
C2350 H2341 0.930 . S
C2350 C2348 1.384 . S
C2350 C2351 1.372 . S
C2351 C2350 1.372 . S
C2351 C2352 1.400 . S
C2351 C2356 1.490 . S
C2352 H2342 0.930 . S
C2352 C2351 1.400 . S
C2352 C2355 1.386 . S
H2353 C2369 0.930 . S
H2354 C2370 0.931 . S
C2355 H2343 0.929 . S
C2355 C2349 1.390 . S
C2355 C2352 1.386 . S
C2356 C2351 1.490 . S
C2356 C2358 1.395 . S
C2356 C2359 1.403 . S
H2357 C2363 0.930 . S
C2358 H2344 0.930 . S
C2358 C2356 1.395 . S
C2358 C2361 1.403 . S
C2359 C2356 1.403 . S
C2359 C2360 1.524 . S
C2359 C2363 1.400 . S
C2360 H2345 0.960 . S
C2360 H2346 0.960 . S
C2360 H2347 0.960 . S
C2360 C2359 1.524 . S
C2361 C2358 1.403 . S
C2361 C2362 1.392 . S
C2361 C2365 1.495 . S
C2362 C2361 1.392 . S
C2362 C2363 1.385 . S
C2362 C2364 1.478 . S
C2363 H2357 0.930 . S
C2363 C2359 1.400 . S
C2363 C2362 1.385 . S
C2364 C2362 1.478 . S
C2364 C2366 1.381 . S
C2364 C2370 1.383 . S
C2365 C2361 1.495 . S
C2365 H2371 0.959 . S
C2365 H2372 0.961 . S
C2365 H2373 0.960 . S
C2366 C2364 1.381 . S
C2366 C2367 1.394 . S
C2366 H2374 0.930 . S
C2367 C2366 1.394 . S
C2367 C2368 1.383 . S
C2367 H2375 0.929 . S
C2368 C2367 1.383 . S
C2368 C2369 1.377 . S
C2369 H2353 0.930 . S
C2369 C2368 1.377 . S
C2369 C2370 1.379 . S
C2370 H2354 0.931 . S
C2370 C2364 1.383 . S
C2370 C2369 1.379 . S
H2371 C2365 0.959 . S
H2372 C2365 0.961 . S
H2373 C2365 0.960 . S
H2374 C2366 0.930 . S
H2375 C2367 0.929 . S
H2376 C2384 0.929 . S
H2377 C2386 0.930 . S
H2378 C2388 0.930 . S
H2379 C2391 0.929 . S
H2380 C2394 0.930 . S
H2381 C2396 0.960 . S
H2382 C2396 0.960 . S
H2383 C2396 0.960 . S
C2384 H2376 0.929 . S
C2384 C2385 1.377 . S
C2384 C2386 1.384 . S
C2385 C2384 1.377 . S
C2385 C2391 1.390 . S
C2386 H2377 0.930 . S
C2386 C2384 1.384 . S
C2386 C2387 1.372 . S
C2387 C2386 1.372 . S
C2387 C2388 1.400 . S
C2387 C2392 1.490 . S
C2388 H2378 0.930 . S
C2388 C2387 1.400 . S
C2388 C2391 1.386 . S
H2389 C2405 0.930 . S
H2390 C2406 0.931 . S
C2391 H2379 0.929 . S
C2391 C2385 1.390 . S
C2391 C2388 1.386 . S
C2392 C2387 1.490 . S
C2392 C2394 1.395 . S
C2392 C2395 1.403 . S
H2393 C2399 0.930 . S
C2394 H2380 0.930 . S
C2394 C2392 1.395 . S
C2394 C2397 1.403 . S
C2395 C2392 1.403 . S
C2395 C2396 1.524 . S
C2395 C2399 1.400 . S
C2396 H2381 0.960 . S
C2396 H2382 0.960 . S
C2396 H2383 0.960 . S
C2396 C2395 1.524 . S
C2397 C2394 1.403 . S
C2397 C2398 1.392 . S
C2397 C2401 1.495 . S
C2398 C2397 1.392 . S
C2398 C2399 1.385 . S
C2398 C2400 1.478 . S
C2399 H2393 0.930 . S
C2399 C2395 1.400 . S
C2399 C2398 1.385 . S
C2400 C2398 1.478 . S
C2400 C2402 1.381 . S
C2400 C2406 1.383 . S
C2401 C2397 1.495 . S
C2401 H2407 0.959 . S
C2401 H2408 0.961 . S
C2401 H2409 0.960 . S
C2402 C2400 1.381 . S
C2402 C2403 1.394 . S
C2402 H2410 0.930 . S
C2403 C2402 1.394 . S
C2403 C2404 1.383 . S
C2403 H2411 0.929 . S
C2404 C2403 1.383 . S
C2404 C2405 1.377 . S
C2405 H2389 0.930 . S
C2405 C2404 1.377 . S
C2405 C2406 1.379 . S
C2406 H2390 0.931 . S
C2406 C2400 1.383 . S
C2406 C2405 1.379 . S
H2407 C2401 0.959 . S
H2408 C2401 0.961 . S
H2409 C2401 0.960 . S
H2410 C2402 0.930 . S
H2411 C2403 0.929 . S
H2412 C2420 0.929 . S
H2413 C2422 0.930 . S
H2414 C2424 0.930 . S
H2415 C2427 0.929 . S
H2416 C2430 0.930 . S
H2417 C2432 0.960 . S
H2418 C2432 0.960 . S
H2419 C2432 0.960 . S
C2420 H2412 0.929 . S
C2420 C2421 1.377 . S
C2420 C2422 1.384 . S
C2421 C2420 1.377 . S
C2421 C2427 1.390 . S
C2422 H2413 0.930 . S
C2422 C2420 1.384 . S
C2422 C2423 1.372 . S
C2423 C2422 1.372 . S
C2423 C2424 1.400 . S
C2423 C2428 1.490 . S
C2424 H2414 0.930 . S
C2424 C2423 1.400 . S
C2424 C2427 1.386 . S
H2425 C2441 0.930 . S
H2426 C2442 0.931 . S
C2427 H2415 0.929 . S
C2427 C2421 1.390 . S
C2427 C2424 1.386 . S
C2428 C2423 1.490 . S
C2428 C2430 1.395 . S
C2428 C2431 1.403 . S
H2429 C2435 0.930 . S
C2430 H2416 0.930 . S
C2430 C2428 1.395 . S
C2430 C2433 1.403 . S
C2431 C2428 1.403 . S
C2431 C2432 1.524 . S
C2431 C2435 1.400 . S
C2432 H2417 0.960 . S
C2432 H2418 0.960 . S
C2432 H2419 0.960 . S
C2432 C2431 1.524 . S
C2433 C2430 1.403 . S
C2433 C2434 1.392 . S
C2433 C2437 1.495 . S
C2434 C2433 1.392 . S
C2434 C2435 1.385 . S
C2434 C2436 1.478 . S
C2435 H2429 0.930 . S
C2435 C2431 1.400 . S
C2435 C2434 1.385 . S
C2436 C2434 1.478 . S
C2436 C2438 1.381 . S
C2436 C2442 1.383 . S
C2437 C2433 1.495 . S
C2437 H2443 0.959 . S
C2437 H2444 0.961 . S
C2437 H2445 0.960 . S
C2438 C2436 1.381 . S
C2438 C2439 1.394 . S
C2438 H2446 0.930 . S
C2439 C2438 1.394 . S
C2439 C2440 1.383 . S
C2439 H2447 0.929 . S
C2440 C2439 1.383 . S
C2440 C2441 1.377 . S
C2441 H2425 0.930 . S
C2441 C2440 1.377 . S
C2441 C2442 1.379 . S
C2442 H2426 0.931 . S
C2442 C2436 1.383 . S
C2442 C2441 1.379 . S
H2443 C2437 0.959 . S
H2444 C2437 0.961 . S
H2445 C2437 0.960 . S
H2446 C2438 0.930 . S
H2447 C2439 0.929 . S
H2448 C2456 0.929 . S
H2449 C2458 0.930 . S
H2450 C2460 0.930 . S
H2451 C2463 0.929 . S
H2452 C2466 0.930 . S
H2453 C2468 0.960 . S
H2454 C2468 0.960 . S
H2455 C2468 0.960 . S
C2456 H2448 0.929 . S
C2456 C2457 1.377 . S
C2456 C2458 1.384 . S
C2457 C2456 1.377 . S
C2457 C2463 1.390 . S
C2458 H2449 0.930 . S
C2458 C2456 1.384 . S
C2458 C2459 1.372 . S
C2459 C2458 1.372 . S
C2459 C2460 1.400 . S
C2459 C2464 1.490 . S
C2460 H2450 0.930 . S
C2460 C2459 1.400 . S
C2460 C2463 1.386 . S
H2461 C2477 0.930 . S
H2462 C2478 0.931 . S
C2463 H2451 0.929 . S
C2463 C2457 1.390 . S
C2463 C2460 1.386 . S
C2464 C2459 1.490 . S
C2464 C2466 1.395 . S
C2464 C2467 1.403 . S
H2465 C2471 0.930 . S
C2466 H2452 0.930 . S
C2466 C2464 1.395 . S
C2466 C2469 1.403 . S
C2467 C2464 1.403 . S
C2467 C2468 1.524 . S
C2467 C2471 1.400 . S
C2468 H2453 0.960 . S
C2468 H2454 0.960 . S
C2468 H2455 0.960 . S
C2468 C2467 1.524 . S
C2469 C2466 1.403 . S
C2469 C2470 1.392 . S
C2469 C2473 1.495 . S
C2470 C2469 1.392 . S
C2470 C2471 1.385 . S
C2470 C2472 1.478 . S
C2471 H2465 0.930 . S
C2471 C2467 1.400 . S
C2471 C2470 1.385 . S
C2472 C2470 1.478 . S
C2472 C2474 1.381 . S
C2472 C2478 1.383 . S
C2473 C2469 1.495 . S
C2473 H2479 0.959 . S
C2473 H2480 0.961 . S
C2473 H2481 0.960 . S
C2474 C2472 1.381 . S
C2474 C2475 1.394 . S
C2474 H2482 0.930 . S
C2475 C2474 1.394 . S
C2475 C2476 1.383 . S
C2475 H2483 0.929 . S
C2476 C2475 1.383 . S
C2476 C2477 1.377 . S
C2477 H2461 0.930 . S
C2477 C2476 1.377 . S
C2477 C2478 1.379 . S
C2478 H2462 0.931 . S
C2478 C2472 1.383 . S
C2478 C2477 1.379 . S
H2479 C2473 0.959 . S
H2480 C2473 0.961 . S
H2481 C2473 0.960 . S
H2482 C2474 0.930 . S
H2483 C2475 0.929 . S
H2484 C2492 0.929 . S
H2485 C2494 0.930 . S
H2486 C2496 0.930 . S
H2487 C2499 0.929 . S
H2488 C2502 0.930 . S
H2489 C2504 0.960 . S
H2490 C2504 0.960 . S
H2491 C2504 0.960 . S
C2492 H2484 0.929 . S
C2492 C2493 1.377 . S
C2492 C2494 1.384 . S
C2493 C2492 1.377 . S
C2493 C2499 1.390 . S
C2494 H2485 0.930 . S
C2494 C2492 1.384 . S
C2494 C2495 1.372 . S
C2495 C2494 1.372 . S
C2495 C2496 1.400 . S
C2495 C2500 1.490 . S
C2496 H2486 0.930 . S
C2496 C2495 1.400 . S
C2496 C2499 1.386 . S
H2497 C2513 0.930 . S
H2498 C2514 0.931 . S
C2499 H2487 0.929 . S
C2499 C2493 1.390 . S
C2499 C2496 1.386 . S
C2500 C2495 1.490 . S
C2500 C2502 1.395 . S
C2500 C2503 1.403 . S
H2501 C2507 0.930 . S
C2502 H2488 0.930 . S
C2502 C2500 1.395 . S
C2502 C2505 1.403 . S
C2503 C2500 1.403 . S
C2503 C2504 1.524 . S
C2503 C2507 1.400 . S
C2504 H2489 0.960 . S
C2504 H2490 0.960 . S
C2504 H2491 0.960 . S
C2504 C2503 1.524 . S
C2505 C2502 1.403 . S
C2505 C2506 1.392 . S
C2505 C2509 1.495 . S
C2506 C2505 1.392 . S
C2506 C2507 1.385 . S
C2506 C2508 1.478 . S
C2507 H2501 0.930 . S
C2507 C2503 1.400 . S
C2507 C2506 1.385 . S
C2508 C2506 1.478 . S
C2508 C2510 1.381 . S
C2508 C2514 1.383 . S
C2509 C2505 1.495 . S
C2509 H2515 0.959 . S
C2509 H2516 0.961 . S
C2509 H2517 0.960 . S
C2510 C2508 1.381 . S
C2510 C2511 1.394 . S
C2510 H2518 0.930 . S
C2511 C2510 1.394 . S
C2511 C2512 1.383 . S
C2511 H2519 0.929 . S
C2512 C2511 1.383 . S
C2512 C2513 1.377 . S
C2513 H2497 0.930 . S
C2513 C2512 1.377 . S
C2513 C2514 1.379 . S
C2514 H2498 0.931 . S
C2514 C2508 1.383 . S
C2514 C2513 1.379 . S
H2515 C2509 0.959 . S
H2516 C2509 0.961 . S
H2517 C2509 0.960 . S
H2518 C2510 0.930 . S
H2519 C2511 0.929 . S
H2520 C2528 0.929 . S
H2521 C2530 0.930 . S
H2522 C2532 0.930 . S
H2523 C2535 0.929 . S
H2524 C2538 0.930 . S
H2525 C2540 0.960 . S
H2526 C2540 0.960 . S
H2527 C2540 0.960 . S
C2528 H2520 0.929 . S
C2528 C2529 1.377 . S
C2528 C2530 1.384 . S
C2529 C2528 1.377 . S
C2529 C2535 1.390 . S
C2530 H2521 0.930 . S
C2530 C2528 1.384 . S
C2530 C2531 1.372 . S
C2531 C2530 1.372 . S
C2531 C2532 1.400 . S
C2531 C2536 1.490 . S
C2532 H2522 0.930 . S
C2532 C2531 1.400 . S
C2532 C2535 1.386 . S
H2533 C2549 0.930 . S
H2534 C2550 0.931 . S
C2535 H2523 0.929 . S
C2535 C2529 1.390 . S
C2535 C2532 1.386 . S
C2536 C2531 1.490 . S
C2536 C2538 1.395 . S
C2536 C2539 1.403 . S
H2537 C2543 0.930 . S
C2538 H2524 0.930 . S
C2538 C2536 1.395 . S
C2538 C2541 1.403 . S
C2539 C2536 1.403 . S
C2539 C2540 1.524 . S
C2539 C2543 1.400 . S
C2540 H2525 0.960 . S
C2540 H2526 0.960 . S
C2540 H2527 0.960 . S
C2540 C2539 1.524 . S
C2541 C2538 1.403 . S
C2541 C2542 1.392 . S
C2541 C2545 1.495 . S
C2542 C2541 1.392 . S
C2542 C2543 1.385 . S
C2542 C2544 1.478 . S
C2543 H2537 0.930 . S
C2543 C2539 1.400 . S
C2543 C2542 1.385 . S
C2544 C2542 1.478 . S
C2544 C2546 1.381 . S
C2544 C2550 1.383 . S
C2545 C2541 1.495 . S
C2545 H2551 0.959 . S
C2545 H2552 0.961 . S
C2545 H2553 0.960 . S
C2546 C2544 1.381 . S
C2546 C2547 1.394 . S
C2546 H2554 0.930 . S
C2547 C2546 1.394 . S
C2547 C2548 1.383 . S
C2547 H2555 0.929 . S
C2548 C2547 1.383 . S
C2548 C2549 1.377 . S
C2549 H2533 0.930 . S
C2549 C2548 1.377 . S
C2549 C2550 1.379 . S
C2550 H2534 0.931 . S
C2550 C2544 1.383 . S
C2550 C2549 1.379 . S
H2551 C2545 0.959 . S
H2552 C2545 0.961 . S
H2553 C2545 0.960 . S
H2554 C2546 0.930 . S
H2555 C2547 0.929 . S
H2556 C2564 0.929 . S
H2557 C2566 0.930 . S
H2558 C2568 0.930 . S
H2559 C2571 0.929 . S
H2560 C2574 0.930 . S
H2561 C2576 0.960 . S
H2562 C2576 0.960 . S
H2563 C2576 0.960 . S
C2564 H2556 0.929 . S
C2564 C2565 1.377 . S
C2564 C2566 1.384 . S
C2565 C2564 1.377 . S
C2565 C2571 1.390 . S
C2566 H2557 0.930 . S
C2566 C2564 1.384 . S
C2566 C2567 1.372 . S
C2567 C2566 1.372 . S
C2567 C2568 1.400 . S
C2567 C2572 1.490 . S
C2568 H2558 0.930 . S
C2568 C2567 1.400 . S
C2568 C2571 1.386 . S
H2569 C2585 0.930 . S
H2570 C2586 0.931 . S
C2571 H2559 0.929 . S
C2571 C2565 1.390 . S
C2571 C2568 1.386 . S
C2572 C2567 1.490 . S
C2572 C2574 1.395 . S
C2572 C2575 1.403 . S
H2573 C2579 0.930 . S
C2574 H2560 0.930 . S
C2574 C2572 1.395 . S
C2574 C2577 1.403 . S
C2575 C2572 1.403 . S
C2575 C2576 1.524 . S
C2575 C2579 1.400 . S
C2576 H2561 0.960 . S
C2576 H2562 0.960 . S
C2576 H2563 0.960 . S
C2576 C2575 1.524 . S
C2577 C2574 1.403 . S
C2577 C2578 1.392 . S
C2577 C2581 1.495 . S
C2578 C2577 1.392 . S
C2578 C2579 1.385 . S
C2578 C2580 1.478 . S
C2579 H2573 0.930 . S
C2579 C2575 1.400 . S
C2579 C2578 1.385 . S
C2580 C2578 1.478 . S
C2580 C2582 1.381 . S
C2580 C2586 1.383 . S
C2581 C2577 1.495 . S
C2581 H2587 0.959 . S
C2581 H2588 0.961 . S
C2581 H2589 0.960 . S
C2582 C2580 1.381 . S
C2582 C2583 1.394 . S
C2582 H2590 0.930 . S
C2583 C2582 1.394 . S
C2583 C2584 1.383 . S
C2583 H2591 0.929 . S
C2584 C2583 1.383 . S
C2584 C2585 1.377 . S
C2585 H2569 0.930 . S
C2585 C2584 1.377 . S
C2585 C2586 1.379 . S
C2586 H2570 0.931 . S
C2586 C2580 1.383 . S
C2586 C2585 1.379 . S
H2587 C2581 0.959 . S
H2588 C2581 0.961 . S
H2589 C2581 0.960 . S
H2590 C2582 0.930 . S
H2591 C2583 0.929 . S
H2592 C2600 0.929 . S
H2593 C2602 0.930 . S
H2594 C2604 0.930 . S
H2595 C2607 0.929 . S
H2596 C2610 0.930 . S
H2597 C2612 0.960 . S
H2598 C2612 0.960 . S
H2599 C2612 0.960 . S
C2600 H2592 0.929 . S
C2600 C2601 1.377 . S
C2600 C2602 1.384 . S
C2601 C2600 1.377 . S
C2601 C2607 1.390 . S
C2602 H2593 0.930 . S
C2602 C2600 1.384 . S
C2602 C2603 1.372 . S
C2603 C2602 1.372 . S
C2603 C2604 1.400 . S
C2603 C2608 1.490 . S
C2604 H2594 0.930 . S
C2604 C2603 1.400 . S
C2604 C2607 1.386 . S
H2605 C2621 0.930 . S
H2606 C2622 0.931 . S
C2607 H2595 0.929 . S
C2607 C2601 1.390 . S
C2607 C2604 1.386 . S
C2608 C2603 1.490 . S
C2608 C2610 1.395 . S
C2608 C2611 1.403 . S
H2609 C2615 0.930 . S
C2610 H2596 0.930 . S
C2610 C2608 1.395 . S
C2610 C2613 1.403 . S
C2611 C2608 1.403 . S
C2611 C2612 1.524 . S
C2611 C2615 1.400 . S
C2612 H2597 0.960 . S
C2612 H2598 0.960 . S
C2612 H2599 0.960 . S
C2612 C2611 1.524 . S
C2613 C2610 1.403 . S
C2613 C2614 1.392 . S
C2613 C2617 1.495 . S
C2614 C2613 1.392 . S
C2614 C2615 1.385 . S
C2614 C2616 1.478 . S
C2615 H2609 0.930 . S
C2615 C2611 1.400 . S
C2615 C2614 1.385 . S
C2616 C2614 1.478 . S
C2616 C2618 1.381 . S
C2616 C2622 1.383 . S
C2617 C2613 1.495 . S
C2617 H2623 0.959 . S
C2617 H2624 0.961 . S
C2617 H2625 0.960 . S
C2618 C2616 1.381 . S
C2618 C2619 1.394 . S
C2618 H2626 0.930 . S
C2619 C2618 1.394 . S
C2619 C2620 1.383 . S
C2619 H2627 0.929 . S
C2620 C2619 1.383 . S
C2620 C2621 1.377 . S
C2621 H2605 0.930 . S
C2621 C2620 1.377 . S
C2621 C2622 1.379 . S
C2622 H2606 0.931 . S
C2622 C2616 1.383 . S
C2622 C2621 1.379 . S
H2623 C2617 0.959 . S
H2624 C2617 0.961 . S
H2625 C2617 0.960 . S
H2626 C2618 0.930 . S
H2627 C2619 0.929 . S
H2628 C2636 0.929 . S
H2629 C2638 0.930 . S
H2630 C2640 0.930 . S
H2631 C2643 0.929 . S
H2632 C2646 0.930 . S
H2633 C2648 0.960 . S
H2634 C2648 0.960 . S
H2635 C2648 0.960 . S
C2636 H2628 0.929 . S
C2636 C2637 1.377 . S
C2636 C2638 1.384 . S
C2637 C2636 1.377 . S
C2637 C2643 1.390 . S
C2638 H2629 0.930 . S
C2638 C2636 1.384 . S
C2638 C2639 1.372 . S
C2639 C2638 1.372 . S
C2639 C2640 1.400 . S
C2639 C2644 1.490 . S
C2640 H2630 0.930 . S
C2640 C2639 1.400 . S
C2640 C2643 1.386 . S
H2641 C2657 0.930 . S
H2642 C2658 0.931 . S
C2643 H2631 0.929 . S
C2643 C2637 1.390 . S
C2643 C2640 1.386 . S
C2644 C2639 1.490 . S
C2644 C2646 1.395 . S
C2644 C2647 1.403 . S
H2645 C2651 0.930 . S
C2646 H2632 0.930 . S
C2646 C2644 1.395 . S
C2646 C2649 1.403 . S
C2647 C2644 1.403 . S
C2647 C2648 1.524 . S
C2647 C2651 1.400 . S
C2648 H2633 0.960 . S
C2648 H2634 0.960 . S
C2648 H2635 0.960 . S
C2648 C2647 1.524 . S
C2649 C2646 1.403 . S
C2649 C2650 1.392 . S
C2649 C2653 1.495 . S
C2650 C2649 1.392 . S
C2650 C2651 1.385 . S
C2650 C2652 1.478 . S
C2651 H2645 0.930 . S
C2651 C2647 1.400 . S
C2651 C2650 1.385 . S
C2652 C2650 1.478 . S
C2652 C2654 1.381 . S
C2652 C2658 1.383 . S
C2653 C2649 1.495 . S
C2653 H2659 0.959 . S
C2653 H2660 0.961 . S
C2653 H2661 0.960 . S
C2654 C2652 1.381 . S
C2654 C2655 1.394 . S
C2654 H2662 0.930 . S
C2655 C2654 1.394 . S
C2655 C2656 1.383 . S
C2655 H2663 0.929 . S
C2656 C2655 1.383 . S
C2656 C2657 1.377 . S
C2657 H2641 0.930 . S
C2657 C2656 1.377 . S
C2657 C2658 1.379 . S
C2658 H2642 0.931 . S
C2658 C2652 1.383 . S
C2658 C2657 1.379 . S
H2659 C2653 0.959 . S
H2660 C2653 0.961 . S
H2661 C2653 0.960 . S
H2662 C2654 0.930 . S
H2663 C2655 0.929 . S
H2664 C2672 0.929 . S
H2665 C2674 0.930 . S
H2666 C2676 0.930 . S
H2667 C2679 0.929 . S
H2668 C2682 0.930 . S
H2669 C2684 0.960 . S
H2670 C2684 0.960 . S
H2671 C2684 0.960 . S
C2672 H2664 0.929 . S
C2672 C2673 1.377 . S
C2672 C2674 1.384 . S
C2673 C2672 1.377 . S
C2673 C2679 1.390 . S
C2674 H2665 0.930 . S
C2674 C2672 1.384 . S
C2674 C2675 1.372 . S
C2675 C2674 1.372 . S
C2675 C2676 1.400 . S
C2675 C2680 1.490 . S
C2676 H2666 0.930 . S
C2676 C2675 1.400 . S
C2676 C2679 1.386 . S
H2677 C2693 0.930 . S
H2678 C2694 0.931 . S
C2679 H2667 0.929 . S
C2679 C2673 1.390 . S
C2679 C2676 1.386 . S
C2680 C2675 1.490 . S
C2680 C2682 1.395 . S
C2680 C2683 1.403 . S
H2681 C2687 0.930 . S
C2682 H2668 0.930 . S
C2682 C2680 1.395 . S
C2682 C2685 1.403 . S
C2683 C2680 1.403 . S
C2683 C2684 1.524 . S
C2683 C2687 1.400 . S
C2684 H2669 0.960 . S
C2684 H2670 0.960 . S
C2684 H2671 0.960 . S
C2684 C2683 1.524 . S
C2685 C2682 1.403 . S
C2685 C2686 1.392 . S
C2685 C2689 1.495 . S
C2686 C2685 1.392 . S
C2686 C2687 1.385 . S
C2686 C2688 1.478 . S
C2687 H2681 0.930 . S
C2687 C2683 1.400 . S
C2687 C2686 1.385 . S
C2688 C2686 1.478 . S
C2688 C2690 1.381 . S
C2688 C2694 1.383 . S
C2689 C2685 1.495 . S
C2689 H2695 0.959 . S
C2689 H2696 0.961 . S
C2689 H2697 0.960 . S
C2690 C2688 1.381 . S
C2690 C2691 1.394 . S
C2690 H2698 0.930 . S
C2691 C2690 1.394 . S
C2691 C2692 1.383 . S
C2691 H2699 0.929 . S
C2692 C2691 1.383 . S
C2692 C2693 1.377 . S
C2693 H2677 0.930 . S
C2693 C2692 1.377 . S
C2693 C2694 1.379 . S
C2694 H2678 0.931 . S
C2694 C2688 1.383 . S
C2694 C2693 1.379 . S
H2695 C2689 0.959 . S
H2696 C2689 0.961 . S
H2697 C2689 0.960 . S
H2698 C2690 0.930 . S
H2699 C2691 0.929 . S
C765 C439 1.450 . S
C784 C582 1.488 . S
C801 C465 1.556 . S
C820 C602 1.538 . S
C837 C401 1.550 . S
C856 C625 1.519 . S
C873 C369 1.436 . S
C892 C605 1.417 . S
C928 C622 1.448 . S
C909 C305 1.440 . S
C945 C343 1.328 . S
C964 C585 1.388 . S
C1000 C592 1.505 . S
C981 C375 1.541 . S
C1036 C612 1.498 . S
C1017 C311 1.523 . S
C1053 C337 1.480 . S
C1072 C617 1.539 . S
C1089 C433 1.385 . S
C1108 C597 1.408 . S
C1125 C471 1.406 . S
C1144 C632 1.392 . S
C1180 C577 1.403 . S
C1161 C407 1.431 . S
C1216 C642 1.491 . S
C1197 C55 1.447 . S
C1233 C81 1.557 . S
C1252 C662 1.513 . S
C1269 C17 1.549 . S
C1288 C685 1.543 . S
C1305 C561 1.435 . S
C1324 C665 1.433 . S
C1341 C497 1.445 . S
C1360 C682 1.417 . S
C1377 C535 1.326 . S
C1396 C645 1.383 . S
C1413 C567 1.540 . S
C1432 C652 1.496 . S
C1449 C503 1.520 . S
C1468 C672 1.512 . S
C1504 C677 1.546 . S
C1485 C529 1.487 . S
C1521 C49 1.379 . S
C1540 C657 1.430 . S
C1576 C692 1.398 . S
C1557 C87 1.406 . S
C1593 C23 1.429 . S
C1612 C637 1.430 . S
C1648 C702 1.462 . S
C1629 C247 1.440 . S
C1665 C273 1.557 . S
C1684 C722 1.526 . S
C1720 C745 1.524 . S
C1701 C209 1.550 . S
C1756 C725 1.410 . S
C1737 C177 1.436 . S
C1792 C742 1.447 . S
C1773 C113 1.440 . S
C1809 C151 1.324 . S
C1828 C705 1.367 . S
C1845 C183 1.538 . S
C1864 C712 1.513 . S
C1881 C119 1.523 . S
C1900 C732 1.488 . S
C1936 C737 1.518 . S
C1917 C145 1.484 . S
C1953 C241 1.386 . S
C1972 C717 1.435 . S
C1989 C279 1.407 . S
C2008 C752 1.385 . S
C2025 C215 1.429 . S
C2044 C697 1.429 . S
C2061 C509 1.242 . S
C2080 C595 1.242 1_565 S
C2116 C615 1.619 . S
C2097 C541 1.584 . S
C2133 C573 1.484 . S
C2152 C624 1.415 . S
C2169 C221 1.696 . S
C2188 C604 1.603 1_655 S
C2205 C253 1.386 . S
C2224 C635 1.420 . S
C2260 C584 1.225 . S
C2241 C285 1.245 . S
C2277 C125 1.250 . S
C2296 C655 1.222 . S
C2313 C157 1.580 . S
C2332 C675 1.609 . S
C2349 C189 1.481 . S
C2368 C684 1.448 . S
C2385 C413 1.697 . S
C2404 C664 1.620 . S
C2440 C695 1.393 . S
C2421 C445 1.384 . S
C2457 C477 1.247 . S
C2476 C644 1.215 . S
C2493 C317 1.250 . S
C2512 C715 1.229 . S
C2529 C349 1.578 . S
C2548 C735 1.593 . S
C2584 C744 1.441 . S
C2565 C381 1.481 . S
C2601 C29 1.697 . S
C2620 C724 1.611 . S
C2637 C61 1.386 . S
C2656 C755 1.381 . S
C2673 C93 1.243 . S
C2692 C704 1.242 . S
