# Generated by pormake.
# Topology tsx, (6,3)-cn, num edge types: 1
# Building blocks:
#     Node 0, Type 0, BuildingBlock: MIDCAF_clean_sbu_0, # of connection points: 6
#     Node 1, Type 0, BuildingBlock: MIDCAF_clean_sbu_0, # of connection points: 6
#     Node 2, Type 1, BuildingBlock: BETDAH_clean_linker_0, # of connection points: 3
#     Node 3, Type 1, BuildingBlock: BETDAH_clean_linker_0, # of connection points: 3
#     Node 4, Type 1, BuildingBlock: BETDAH_clean_linker_0, # of connection points: 3
#     Node 5, Type 1, BuildingBlock: BETDAH_clean_linker_0, # of connection points: 3
#     Edge 6, Type (0, 1), BuildingBlock: KIFKEQ_clean_linker_1, # of connection points: 2
#     Edge 7, Type (0, 1), BuildingBlock: KIFKEQ_clean_linker_1, # of connection points: 2
#     Edge 8, Type (0, 1), BuildingBlock: KIFKEQ_clean_linker_1, # of connection points: 2
#     Edge 9, Type (0, 1), BuildingBlock: KIFKEQ_clean_linker_1, # of connection points: 2
#     Edge 10, Type (0, 1), BuildingBlock: KIFKEQ_clean_linker_1, # of connection points: 2
#     Edge 11, Type (0, 1), BuildingBlock: KIFKEQ_clean_linker_1, # of connection points: 2
#     Edge 12, Type (0, 1), BuildingBlock: KIFKEQ_clean_linker_1, # of connection points: 2
#     Edge 13, Type (0, 1), BuildingBlock: KIFKEQ_clean_linker_1, # of connection points: 2
#     Edge 14, Type (0, 1), BuildingBlock: KIFKEQ_clean_linker_1, # of connection points: 2
#     Edge 15, Type (0, 1), BuildingBlock: KIFKEQ_clean_linker_1, # of connection points: 2
#     Edge 16, Type (0, 1), BuildingBlock: KIFKEQ_clean_linker_1, # of connection points: 2
#     Edge 17, Type (0, 1), BuildingBlock: KIFKEQ_clean_linker_1, # of connection points: 2
# Relax obj value: 0.079
# Max RMSD: 0.149
# Mean RMSD: 0.109
data_MOF--net-tsx--node1-MIDCAF_clean_sbu_0--node2-BETDAH_clean_linker_0--edge1-KIFKEQ_clean_linker_1
_symmetry_space_group_name_H-M    P1
_symmetry_Int_Tables_number       1
_symmetry_cell_setting            triclinic
loop_
_symmetry_equiv_pos_as_xyz
'x, y, z'
_cell_length_a     20.580567
_cell_length_b     21.200925
_cell_length_c     35.72628
_cell_angle_alpha  90.357588
_cell_angle_beta   102.98507
_cell_angle_gamma 89.843259
loop_
_atom_site_label
_atom_site_type_symbol
_atom_site_fract_x
_atom_site_fract_y
_atom_site_fract_z
_atom_type_partial_charge
Zn0 Zn 0.94546 0.01337 0.95941 0.0
Zn1 Zn 0.17416 0.01444 0.06486 0.0
Zn2 Zn 0.05946 0.01863 0.01222 0.0
C3 C 0.14356 0.14194 0.04635 0.0
C4 C 0.19522 0.94607 0.00218 0.0
O5 O 0.98387 0.9662 0.03579 0.0
O6 O 0.89147 0.96784 0.99 0.0
C7 C 0.9784 0.14148 0.97533 0.0
O8 O 0.09234 0.11741 0.02353 0.0
O9 O 0.18612 0.1074 0.06786 0.0
O10 O 0.22645 0.96394 0.03507 0.0
O11 O 0.13388 0.96255 0.98944 0.0
O12 O 0.93572 0.10626 0.95425 0.0
O13 O 0.02859 0.11748 0.99916 0.0
O14 O 0.07791 0.97416 0.95935 0.0
O15 O 0.97931 0.96778 0.91903 0.0
C16 C 0.04159 0.95911 0.9262 0.0
O17 O 0.04031 0.9773 0.06555 0.0
O18 O 0.13907 0.97324 0.10584 0.0
C19 C 0.92206 0.95124 0.02318 0.0
C20 C 0.0769 0.96414 0.09887 0.0
Zn21 Zn 0.64799 0.50554 0.56245 0.0
Zn22 Zn 0.42278 0.51348 0.45793 0.0
Zn23 Zn 0.53695 0.51802 0.5091 0.0
C24 C 0.51633 0.45974 0.42261 0.0
C25 C 0.45844 0.64147 0.47278 0.0
O26 O 0.51716 0.47836 0.56312 0.0
O27 O 0.61449 0.46228 0.60325 0.0
C28 C 0.67151 0.44491 0.49808 0.0
O29 O 0.55427 0.4744 0.4554 0.0
O30 O 0.4541 0.4679 0.41688 0.0
O31 O 0.41455 0.60636 0.45257 0.0
O32 O 0.50883 0.61738 0.49636 0.0
O33 O 0.70154 0.45876 0.53195 0.0
O34 O 0.61066 0.46274 0.48518 0.0
O35 O 0.57074 0.61532 0.5224 0.0
O36 O 0.6605 0.59821 0.5686 0.0
C37 C 0.62099 0.63603 0.54762 0.0
O38 O 0.46104 0.46684 0.53262 0.0
O39 O 0.36732 0.46904 0.48791 0.0
C40 C 0.55168 0.46046 0.59611 0.0
C41 C 0.39897 0.45237 0.52083 0.0
H42 H 0.14899 0.94432 0.36373 0.0
H43 H 0.97942 0.05722 0.37312 0.0
H44 H 0.14139 0.03049 0.47178 0.0
C45 C 0.12326 0.97353 0.38085 0.0
C46 C 0.15324 0.98522 0.41951 0.0
C47 C 0.06033 -0.00147 0.364 0.0
C48 C 0.02773 0.03738 0.38608 0.0
C49 C 0.057 0.04861 0.4252 0.0
C50 C 0.11913 0.02179 0.4417 0.0
N51 N 0.02542 0.08572 0.44915 0.0
C52 C 0.97027 0.12422 0.43633 0.0
H53 H 0.97446 0.91575 0.66179 0.0
H54 H 0.11206 0.06376 0.65227 0.0
H55 H 0.94948 0.01966 0.55674 0.0
C56 C 0.99205 0.95125 0.64472 0.0
C57 C 0.95594 0.9624 0.60713 0.0
C58 C 0.04857 0.98713 0.66127 0.0
C59 C 0.06881 0.03553 0.63965 0.0
C60 C 0.03287 0.04712 0.60178 0.0
C61 C 0.97664 0.01065 0.58592 0.0
N62 N 0.05112 0.09503 0.57861 0.0
C63 C 0.10592 0.13444 0.58956 0.0
H64 H 0.67035 0.45102 0.86992 0.0
H65 H 0.48357 0.53229 0.8814 0.0
H66 H 0.64434 0.51042 0.98062 0.0
C67 C 0.63921 0.47182 0.88744 0.0
C68 C 0.66526 0.47845 0.92707 0.0
C69 C 0.57318 0.48943 0.87044 0.0
C70 C 0.53454 0.51847 0.89368 0.0
C71 C 0.56074 0.52673 0.93339 0.0
C72 C 0.62518 0.50526 0.94991 0.0
N73 N 0.52284 0.5541 0.95792 0.0
C74 C 0.47176 0.59752 0.94609 0.0
H75 H 0.44388 0.4636 0.15134 0.0
H76 H 0.63484 0.54254 0.14828 0.0
H77 H 0.497 0.49146 0.04298 0.0
C78 C 0.4784 0.48119 0.13498 0.0
C79 C 0.46161 0.47657 0.09478 0.0
C80 C 0.54063 0.50448 0.15462 0.0
C81 C 0.58652 0.52477 0.13346 0.0
C82 C 0.57033 0.52046 0.09307 0.0
C83 C 0.5086 0.49535 0.07404 0.0
N84 N 0.61627 0.53825 0.07087 0.0
C85 C 0.65593 0.59183 0.0783 0.0
H86 H 0.15051 0.21319 0.98425 0.0
H87 H 0.17496 0.22061 0.10724 0.0
H88 H 0.21264 0.3125 0.98657 0.0
H89 H 0.23508 0.31977 0.10967 0.0
H90 H 0.33892 0.4984 0.1098 0.0
H91 H 0.23932 0.43332 0.08987 0.0
H92 H 0.33785 0.32417 0.01646 0.0
H93 H 0.4378 0.38858 0.03677 0.0
C94 C 0.16638 0.2377 0.01147 0.0
C95 C 0.15831 0.20964 0.04561 0.0
C96 C 0.20237 0.29407 0.01285 0.0
C97 C 0.22921 0.32359 0.04832 0.0
C98 C 0.21466 0.29857 0.08186 0.0
C99 C 0.1802 0.24179 0.08055 0.0
C100 C 0.33884 0.46127 0.08881 0.0
C101 C 0.3968 0.44763 0.07556 0.0
C102 C 0.28169 0.42431 0.07727 0.0
C103 C 0.28107 0.37323 0.05199 0.0
C104 C 0.33662 0.36353 0.03577 0.0
C105 C 0.39403 0.40037 0.04749 0.0
H106 H 0.14036 0.85034 0.95337 0.0
H107 H 0.32708 0.9421 0.00295 0.0
H108 H 0.20067 0.76691 0.92752 0.0
H109 H 0.38716 0.85895 0.97785 0.0
H110 H 0.48638 0.71462 0.92073 0.0
H111 H 0.41168 0.80445 0.92205 0.0
H112 H 0.27361 0.68158 0.96116 0.0
H113 H 0.34817 0.59208 0.95922 0.0
C114 C 0.19403 0.85369 0.95773 0.0
C115 C 0.22909 0.90262 0.98019 0.0
C116 C 0.22861 0.80562 0.94329 0.0
C117 C 0.29876 0.80604 0.95082 0.0
C118 C 0.33318 0.85737 0.97112 0.0
C119 C 0.29878 0.90488 0.98577 0.0
C120 C 0.43908 0.70687 0.92851 0.0
C121 C 0.42246 0.64703 0.93979 0.0
C122 C 0.39655 0.75815 0.92949 0.0
C123 C 0.33689 0.75029 0.94197 0.0
C124 C 0.31868 0.6892 0.95095 0.0
C125 C 0.36135 0.638 0.95002 0.0
H126 H 0.97181 0.84967 0.06743 0.0
H127 H 0.79253 0.95842 0.02733 0.0
H128 H 0.90627 0.7664 0.08846 0.0
H129 H 0.72737 0.8772 0.04983 0.0
H130 H 0.62794 0.68385 0.0269 0.0
H131 H 0.69367 0.77759 0.02267 0.0
H132 H 0.83415 0.72364 0.12686 0.0
H133 H 0.76804 0.62809 0.13012 0.0
C134 C 0.91876 0.85676 0.06448 0.0
C135 C 0.88697 0.90989 0.04526 0.0
C136 C 0.88107 0.80906 0.07651 0.0
C137 C 0.81111 0.8142 0.06987 0.0
C138 C 0.78075 0.87058 0.05422 0.0
C139 C 0.81811 0.91748 0.04165 0.0
C140 C 0.67243 0.69264 0.04912 0.0
C141 C 0.69313 0.6495 0.07885 0.0
C142 C 0.70999 0.74661 0.04696 0.0
C143 C 0.76915 0.75881 0.07467 0.0
C144 C 0.78914 0.71566 0.10496 0.0
C145 C 0.7513 0.66129 0.10701 0.0
H146 H 0.94028 0.21218 0.9118 0.0
H147 H 0.98293 0.22278 0.03548 0.0
H148 H 0.88386 0.31344 0.90767 0.0
H149 H 0.92512 0.32491 0.03158 0.0
H150 H 0.70082 0.4044 0.99076 0.0
H151 H 0.80135 0.34041 0.00919 0.0
H152 H 0.88139 0.42768 0.92035 0.0
H153 H 0.78061 0.49176 0.90189 0.0
C154 C 0.93975 0.23764 0.93813 0.0
C155 C 0.96537 0.20978 0.9739 0.0
C156 C 0.90755 0.29583 0.93584 0.0
C157 C 0.89925 0.32694 0.96933 0.0
C158 C 0.93031 0.30173 0.0053 0.0
C159 C 0.96382 0.24368 0.00757 0.0
C160 C 0.74087 0.41162 0.97609 0.0
C161 C 0.73221 0.45204 0.94432 0.0
C162 C 0.79871 0.37506 0.98674 0.0
C163 C 0.84894 0.37829 0.96582 0.0
C164 C 0.84309 0.42344 0.9366 0.0
C165 C 0.78531 0.45992 0.92596 0.0
H166 H 0.63187 0.7168 0.49018 0.0
H167 H 0.65386 0.70403 0.61285 0.0
H168 H 0.70408 0.81054 0.49943 0.0
H169 H 0.72453 0.79749 0.62194 0.0
H170 H 0.94457 0.8354 0.61185 0.0
H171 H 0.84409 0.77187 0.59302 0.0
H172 H 0.73186 0.93619 0.54577 0.0
H173 H 0.83302 0.00119 0.56556 0.0
C174 C 0.649 0.73616 0.51883 0.0
C175 C 0.63829 0.70325 0.55091 0.0
C176 C 0.69031 0.78951 0.52409 0.0
C177 C 0.72014 0.81022 0.5614 0.0
C178 C 0.70207 0.78203 0.59296 0.0
C179 C 0.66161 0.72877 0.58776 0.0
C180 C 0.89865 0.8582 0.59743 0.0
C181 C 0.89642 0.92344 0.59082 0.0
C182 C 0.84134 0.82182 0.58656 0.0
C183 C 0.78056 0.84963 0.56853 0.0
C184 C 0.77841 0.91409 0.55979 0.0
C185 C 0.83616 0.95094 0.57097 0.0
H186 H 0.80256 0.44955 0.49798 0.0
H187 H 0.62094 0.35078 0.44685 0.0
H188 H 0.86669 0.37324 0.4702 0.0
H189 H 0.68549 0.27367 0.41858 0.0
H190 H 0.84738 0.10764 0.4489 0.0
H191 H 0.76553 0.19073 0.45125 0.0
H192 H 0.89201 0.32583 0.412 0.0
H193 H 0.97395 0.24244 0.41019 0.0
C194 C 0.77622 0.41225 0.47992 0.0
C195 C 0.70692 0.40587 0.47467 0.0
C196 C 0.8129 0.36871 0.46373 0.0
C197 C 0.78123 0.3172 0.44227 0.0
C198 C 0.71127 0.31274 0.43515 0.0
C199 C 0.6743 0.35705 0.45104 0.0
C200 C 0.85636 0.15477 0.43963 0.0
C201 C 0.91638 0.16919 0.42938 0.0
C202 C 0.80952 0.20228 0.4408 0.0
C203 C 0.82253 0.26499 0.43206 0.0
C204 C 0.88088 0.27811 0.41921 0.0
C205 C 0.92755 0.23052 0.41798 0.0
H206 H 0.26881 0.45863 0.52372 0.0
H207 H 0.45066 0.35638 0.56928 0.0
H208 H 0.20639 0.38313 0.55268 0.0
H209 H 0.38826 0.28089 0.5992 0.0
H210 H 0.22603 0.11678 0.57343 0.0
H211 H 0.30666 0.19919 0.56862 0.0
H212 H 0.18491 0.3363 0.61138 0.0
H213 H 0.10402 0.2535 0.61556 0.0
C214 C 0.29565 0.42082 0.54085 0.0
C215 C 0.3645 0.41336 0.54437 0.0
C216 C 0.26002 0.3778 0.55774 0.0
C217 C 0.29236 0.32591 0.57822 0.0
C218 C 0.36196 0.32028 0.58346 0.0
C219 C 0.39778 0.36381 0.56672 0.0
C220 C 0.21788 0.16424 0.58288 0.0
C221 C 0.15944 0.1794 0.59482 0.0
C222 C 0.26402 0.21138 0.5803 0.0
C223 C 0.25189 0.27439 0.58937 0.0
C224 C 0.19525 0.28832 0.60385 0.0
C225 C 0.14923 0.2411 0.60644 0.0
H226 H 0.46437 0.72592 0.53157 0.0
H227 H 0.42242 0.7093 0.40813 0.0
H228 H 0.40866 0.82923 0.52571 0.0
H229 H 0.36769 0.81128 0.40201 0.0
H230 H 0.26589 0.98962 0.39165 0.0
H231 H 0.36552 0.92434 0.4112 0.0
H232 H 0.28714 0.84906 0.50417 0.0
H233 H 0.18831 0.91553 0.48501 0.0
C234 C 0.44583 0.74568 0.50328 0.0
C235 C 0.44699 0.70991 0.47025 0.0
C236 C 0.41343 0.80437 0.49988 0.0
C237 C 0.38295 0.82817 0.46341 0.0
C238 C 0.39091 0.79492 0.43055 0.0
C239 C 0.42217 0.73626 0.43397 0.0
C240 C 0.27091 0.96023 0.41684 0.0
C241 C 0.21898 0.95655 0.43639 0.0
C242 C 0.32792 0.92297 0.42808 0.0
C243 C 0.33379 0.88068 0.45882 0.0
C244 C 0.28453 0.88141 0.48054 0.0
C245 C 0.22766 0.9192 0.46946 0.0
H246 H 0.12873 0.88696 0.15818 0.0
H247 H 0.9598 0.00703 0.11362 0.0
H248 H 0.09947 0.88553 0.22032 0.0
H249 H 0.93022 0.00605 0.17639 0.0
H250 H 0.01306 0.08145 0.30589 0.0
H251 H 0.99243 0.05892 0.23699 0.0
H252 H 0.02191 0.86018 0.26108 0.0
H253 H 0.04335 0.88302 0.32981 0.0
C254 C 0.08382 0.91115 0.16137 0.0
C255 C 0.04688 0.94746 0.13128 0.0
C256 C 0.06682 0.91027 0.19699 0.0
C257 C 0.01292 0.94639 0.20347 0.0
C258 C 0.97239 0.9783 0.17234 0.0
C259 C 0.98892 0.97834 0.13635 0.0
C260 C 0.01281 0.03285 0.29632 0.0
C261 C 0.03099 0.98411 0.32304 0.0
C262 C 1.00079 0.01981 0.25687 0.0
C263 C 0.0066 0.95778 0.24361 0.0
C264 C 0.0182 0.9085 0.27041 0.0
C265 C 0.03044 0.92156 0.30971 0.0
H266 H 0.99318 0.87819 0.86755 0.0
H267 H 0.1566 0.00503 0.91124 0.0
H268 H 0.02296 0.87606 0.80536 0.0
H269 H 0.18589 0.00402 0.84841 0.0
H270 H 0.08749 0.07443 0.71864 0.0
H271 H 0.11293 0.0541 0.7876 0.0
H272 H 0.10772 0.85364 0.76524 0.0
H273 H 0.08327 0.87394 0.69628 0.0
C274 C 0.03703 0.90373 0.86419 0.0
C275 C 0.07226 0.94209 0.89399 0.0
C276 C 0.05426 0.90248 0.82859 0.0
C277 C 0.10632 0.94053 0.82191 0.0
C278 C 0.14531 0.97459 0.85276 0.0
C279 C 0.12885 0.97476 0.88874 0.0
C280 C 0.0945 0.02613 0.72845 0.0
C281 C 0.08195 0.97579 0.70208 0.0
C282 C 0.10916 0.01442 0.76798 0.0
C283 C 0.1113 0.95221 0.78174 0.0
C284 C 0.10552 0.90201 0.75541 0.0
C285 C 0.09133 0.91369 0.71598 0.0
H286 H 0.49688 0.55316 0.6297 0.0
H287 H 0.54053 0.3544 0.63738 0.0
H288 H 0.48258 0.55409 0.69496 0.0
H289 H 0.51818 0.35232 0.70149 0.0
H290 H 0.59963 0.38769 0.82851 0.0
H291 H 0.57348 0.37444 0.76021 0.0
H292 H 0.44762 0.54061 0.74865 0.0
H293 H 0.48201 0.55847 0.81741 0.0
C294 C 0.49979 0.5088 0.64493 0.0
C295 C 0.52008 0.45383 0.62885 0.0
C296 C 0.49142 0.50904 0.68266 0.0
C297 C 0.50137 0.45362 0.7049 0.0
C298 C 0.51345 0.39686 0.68655 0.0
C299 C 0.52482 0.39738 0.64935 0.0
C300 C 0.56742 0.42237 0.81147 0.0
C301 C 0.54572 0.4759 0.82872 0.0
C302 C 0.55056 0.41373 0.77176 0.0
C303 C 0.50903 0.45701 0.74775 0.0
C304 C 0.48185 0.50728 0.76547 0.0
C305 C 0.5007 0.5171 0.80532 0.0
H306 H 0.63414 0.50088 0.40783 0.0
H307 H 0.45931 0.3896 0.36028 0.0
H308 H 0.65689 0.51035 0.34349 0.0
H309 H 0.48211 0.39927 0.29651 0.0
H310 H 0.65139 0.45487 0.2034 0.0
H311 H 0.66387 0.43292 0.27238 0.0
H312 H 0.47699 0.52724 0.26977 0.0
H313 H 0.46501 0.54998 0.20177 0.0
C314 C 0.60248 0.47593 0.38406 0.0
C315 C 0.54434 0.44527 0.38889 0.0
C316 C 0.61539 0.48167 0.34728 0.0
C317 C 0.57045 0.45649 0.31523 0.0
C318 C 0.51704 0.41956 0.32086 0.0
C319 C 0.50416 0.41388 0.35735 0.0
C320 C 0.6142 0.47255 0.21799 0.0
C321 C 0.55685 0.50356 0.19724 0.0
C322 C 0.62117 0.45963 0.25723 0.0
C323 C 0.5707 0.47744 0.27588 0.0
C324 C 0.51602 0.51226 0.25574 0.0
C325 C 0.50929 0.52541 0.21693 0.0
loop_
_geom_bond_atom_site_label_1
_geom_bond_atom_site_label_2
_geom_bond_distance
_geom_bond_site_symmetry_2
_ccdc_geom_bond_type
Zn0 O6 1.920 1_545 S
Zn0 O12 1.898 . S
Zn0 O15 1.905 1_545 S
Zn1 O9 1.905 . S
Zn1 O10 1.898 1_545 S
Zn1 O18 1.920 1_545 S
Zn2 O5 2.080 1_445 S
Zn2 O8 2.114 . S
Zn2 O11 2.120 1_545 S
Zn2 O13 2.120 1_455 S
Zn2 O14 2.114 1_554 S
Zn2 O17 2.080 . S
C3 O8 1.166 . S
C3 O9 1.182 . S
C4 O10 1.167 . S
C4 O11 1.299 . S
O5 Zn2 2.080 1_665 S
O5 C19 1.305 . S
O6 Zn0 1.920 1_565 S
O6 C19 1.234 1_556 S
C7 O12 1.167 . S
C7 O13 1.299 1_556 S
O8 Zn2 2.114 . S
O8 C3 1.166 . S
O9 Zn1 1.905 . S
O9 C3 1.182 . S
O10 Zn1 1.898 1_565 S
O10 C4 1.167 . S
O11 Zn2 2.120 1_565 S
O11 C4 1.299 . S
O12 Zn0 1.898 . S
O12 C7 1.167 . S
O13 Zn2 2.120 1_655 S
O13 C7 1.299 1_554 S
O14 Zn2 2.114 1_556 S
O14 C16 1.165 1_445 S
O15 Zn0 1.905 1_565 S
O15 C16 1.187 . S
C16 O14 1.165 1_665 S
C16 O15 1.187 . S
O17 Zn2 2.080 . S
O17 C20 1.305 1_545 S
O18 Zn1 1.920 1_565 S
O18 C20 1.234 . S
C19 O5 1.305 . S
C19 O6 1.234 1_554 S
C20 O17 1.305 1_565 S
C20 O18 1.234 . S
Zn21 O27 1.920 . S
Zn21 O33 1.898 . S
Zn21 O36 1.905 . S
Zn22 O30 1.905 . S
Zn22 O31 1.898 . S
Zn22 O39 1.920 . S
Zn23 O26 2.080 . S
Zn23 O29 2.114 . S
Zn23 O32 2.120 . S
Zn23 O34 2.120 . S
Zn23 O35 2.114 . S
Zn23 O38 2.080 . S
C24 O29 1.166 . S
C24 O30 1.182 . S
C25 O31 1.167 . S
C25 O32 1.299 . S
O26 Zn23 2.080 . S
O26 C40 1.305 . S
O27 Zn21 1.920 . S
O27 C40 1.234 . S
C28 O33 1.167 . S
C28 O34 1.299 . S
O29 Zn23 2.114 . S
O29 C24 1.166 . S
O30 Zn22 1.905 . S
O30 C24 1.182 . S
O31 Zn22 1.898 . S
O31 C25 1.167 . S
O32 Zn23 2.120 . S
O32 C25 1.299 . S
O33 Zn21 1.898 . S
O33 C28 1.167 . S
O34 Zn23 2.120 . S
O34 C28 1.299 . S
O35 Zn23 2.114 . S
O35 C37 1.166 . S
O36 Zn21 1.905 . S
O36 C37 1.182 . S
C37 O35 1.166 . S
C37 O36 1.182 . S
O38 Zn23 2.080 . S
O38 C41 1.305 . S
O39 Zn22 1.920 . S
O39 C41 1.234 . S
C40 O26 1.305 . S
C40 O27 1.234 . S
C41 O38 1.305 . S
C41 O39 1.234 . S
H42 C45 0.929 . S
H43 C48 0.929 . S
H44 C50 0.930 1_565 S
C45 H42 0.929 . S
C45 C46 1.398 . S
C45 C47 1.396 1_565 S
C46 C45 1.398 . S
C46 C50 1.407 1_565 S
C47 C45 1.396 1_545 S
C47 C48 1.394 . S
C48 H43 0.929 . S
C48 C47 1.394 . S
C48 C49 1.382 . S
C49 C48 1.382 . S
C49 C50 1.392 . S
C49 N51 1.420 . S
C50 H44 0.930 1_545 S
C50 C46 1.407 1_545 S
C50 C49 1.392 . S
N51 C49 1.420 . S
N51 C52 1.244 . S
C52 N51 1.244 . S
H53 C56 0.929 . S
H54 C59 0.929 . S
H55 C61 0.934 . S
C56 H53 0.929 . S
C56 C57 1.398 . S
C56 C58 1.396 1_565 S
C57 C56 1.398 . S
C57 C61 1.414 . S
C58 C56 1.396 1_545 S
C58 C59 1.394 1_655 S
C59 H54 0.929 . S
C59 C58 1.394 1_455 S
C59 C60 1.382 . S
C60 C59 1.382 . S
C60 C61 1.381 1_445 S
C60 N62 1.420 . S
C61 H55 0.934 . S
C61 C57 1.414 . S
C61 C60 1.381 1_665 S
N62 C60 1.420 . S
N62 C63 1.244 . S
C63 N62 1.244 . S
H64 C67 0.929 . S
H65 C70 0.929 . S
H66 C72 0.930 . S
C67 H64 0.929 . S
C67 C68 1.398 . S
C67 C69 1.396 . S
C68 C67 1.398 . S
C68 C72 1.407 . S
C69 C67 1.396 . S
C69 C70 1.394 . S
C70 H65 0.929 . S
C70 C69 1.394 . S
C70 C71 1.382 . S
C71 C70 1.382 . S
C71 C72 1.392 . S
C71 N73 1.420 . S
C72 H66 0.930 . S
C72 C68 1.407 . S
C72 C71 1.392 . S
N73 C71 1.420 . S
N73 C74 1.244 . S
C74 N73 1.244 . S
H75 C78 0.929 . S
H76 C81 0.929 . S
H77 C83 0.930 . S
C78 H75 0.929 . S
C78 C79 1.398 . S
C78 C80 1.396 . S
C79 C78 1.398 . S
C79 C83 1.407 . S
C80 C78 1.396 . S
C80 C81 1.394 . S
C81 H76 0.929 . S
C81 C80 1.394 . S
C81 C82 1.382 . S
C82 C81 1.382 . S
C82 C83 1.392 . S
C82 N84 1.420 . S
C83 H77 0.930 . S
C83 C79 1.407 . S
C83 C82 1.392 . S
N84 C82 1.420 . S
N84 C85 1.244 . S
C85 N84 1.244 . S
H86 C94 0.950 . S
H87 C99 0.950 . S
H88 C96 0.950 . S
H89 C98 0.950 . S
H90 C100 0.950 . S
H91 C102 0.950 . S
H92 C104 0.950 . S
H93 C105 0.950 . S
C94 H86 0.950 . S
C94 C95 1.386 . S
C94 C96 1.391 . S
C95 C94 1.386 . S
C95 C99 1.393 . S
C96 H88 0.950 . S
C96 C94 1.391 . S
C96 C97 1.400 . S
C97 C96 1.400 . S
C97 C98 1.398 . S
C97 C103 1.491 . S
C98 H89 0.950 . S
C98 C97 1.398 . S
C98 C99 1.391 . S
C99 H87 0.950 . S
C99 C95 1.393 . S
C99 C98 1.391 . S
C100 H90 0.950 . S
C100 C101 1.386 . S
C100 C102 1.391 . S
C101 C100 1.386 . S
C101 C105 1.393 . S
C102 H91 0.950 . S
C102 C100 1.391 . S
C102 C103 1.400 . S
C103 C97 1.491 . S
C103 C102 1.400 . S
C103 C104 1.398 . S
C104 H92 0.950 . S
C104 C103 1.398 . S
C104 C105 1.391 . S
C105 H93 0.950 . S
C105 C101 1.393 . S
C105 C104 1.391 . S
H106 C114 0.950 . S
H107 C119 0.950 . S
H108 C116 0.950 . S
H109 C118 0.950 . S
H110 C120 0.950 . S
H111 C122 0.950 . S
H112 C124 0.950 . S
H113 C125 0.950 1_554 S
C114 H106 0.950 . S
C114 C115 1.386 1_554 S
C114 C116 1.391 . S
C115 C114 1.386 1_556 S
C115 C119 1.393 . S
C116 H108 0.950 . S
C116 C114 1.391 . S
C116 C117 1.400 1_554 S
C117 C116 1.400 1_556 S
C117 C118 1.398 . S
C117 C123 1.491 . S
C118 H109 0.950 . S
C118 C117 1.398 . S
C118 C119 1.391 . S
C119 H107 0.950 . S
C119 C115 1.393 . S
C119 C118 1.391 . S
C120 H110 0.950 . S
C120 C121 1.386 . S
C120 C122 1.391 . S
C121 C120 1.386 . S
C121 C125 1.393 . S
C122 H111 0.950 . S
C122 C120 1.391 . S
C122 C123 1.400 . S
C123 C117 1.491 . S
C123 C122 1.400 . S
C123 C124 1.398 1_556 S
C124 H112 0.950 . S
C124 C123 1.398 1_554 S
C124 C125 1.391 1_554 S
C125 H113 0.950 1_556 S
C125 C121 1.393 . S
C125 C124 1.391 1_556 S
H126 C134 0.950 . S
H127 C139 0.950 . S
H128 C136 0.950 . S
H129 C138 0.950 . S
H130 C140 0.950 . S
H131 C142 0.950 . S
H132 C144 0.950 . S
H133 C145 0.950 . S
C134 H126 0.950 . S
C134 C135 1.386 . S
C134 C136 1.391 . S
C135 C134 1.386 . S
C135 C139 1.393 . S
C136 H128 0.950 . S
C136 C134 1.391 . S
C136 C137 1.400 . S
C137 C136 1.400 . S
C137 C138 1.398 . S
C137 C143 1.491 . S
C138 H129 0.950 . S
C138 C137 1.398 . S
C138 C139 1.391 . S
C139 H127 0.950 . S
C139 C135 1.393 . S
C139 C138 1.391 . S
C140 H130 0.950 . S
C140 C141 1.386 . S
C140 C142 1.391 . S
C141 C140 1.386 . S
C141 C145 1.393 . S
C142 H131 0.950 . S
C142 C140 1.391 . S
C142 C143 1.400 . S
C143 C137 1.491 . S
C143 C142 1.400 . S
C143 C144 1.398 . S
C144 H132 0.950 . S
C144 C143 1.398 . S
C144 C145 1.391 . S
C145 H133 0.950 . S
C145 C141 1.393 . S
C145 C144 1.391 . S
H146 C154 0.950 . S
H147 C159 0.950 . S
H148 C156 0.950 . S
H149 C158 0.950 . S
H150 C160 0.950 . S
H151 C162 0.950 1_554 S
H152 C164 0.950 . S
H153 C165 0.950 . S
C154 H146 0.950 . S
C154 C155 1.386 . S
C154 C156 1.391 . S
C155 C154 1.386 . S
C155 C159 1.393 1_556 S
C156 H148 0.950 . S
C156 C154 1.391 . S
C156 C157 1.400 . S
C157 C156 1.400 . S
C157 C158 1.398 1_556 S
C157 C163 1.491 . S
C158 H149 0.950 . S
C158 C157 1.398 1_554 S
C158 C159 1.391 . S
C159 H147 0.950 . S
C159 C155 1.393 1_554 S
C159 C158 1.391 . S
C160 H150 0.950 . S
C160 C161 1.386 . S
C160 C162 1.391 . S
C161 C160 1.386 . S
C161 C165 1.393 . S
C162 H151 0.950 1_556 S
C162 C160 1.391 . S
C162 C163 1.400 . S
C163 C157 1.491 . S
C163 C162 1.400 . S
C163 C164 1.398 . S
C164 H152 0.950 . S
C164 C163 1.398 . S
C164 C165 1.391 . S
C165 H153 0.950 . S
C165 C161 1.393 . S
C165 C164 1.391 . S
H166 C174 0.950 . S
H167 C179 0.950 . S
H168 C176 0.950 . S
H169 C178 0.950 . S
H170 C180 0.950 . S
H171 C182 0.950 . S
H172 C184 0.950 . S
H173 C185 0.950 . S
C174 H166 0.950 . S
C174 C175 1.386 . S
C174 C176 1.391 . S
C175 C174 1.386 . S
C175 C179 1.393 . S
C176 H168 0.950 . S
C176 C174 1.391 . S
C176 C177 1.400 . S
C177 C176 1.400 . S
C177 C178 1.398 . S
C177 C183 1.491 . S
C178 H169 0.950 . S
C178 C177 1.398 . S
C178 C179 1.391 . S
C179 H167 0.950 . S
C179 C175 1.393 . S
C179 C178 1.391 . S
C180 H170 0.950 . S
C180 C181 1.386 . S
C180 C182 1.391 . S
C181 C180 1.386 . S
C181 C185 1.393 . S
C182 H171 0.950 . S
C182 C180 1.391 . S
C182 C183 1.400 . S
C183 C177 1.491 . S
C183 C182 1.400 . S
C183 C184 1.398 . S
C184 H172 0.950 . S
C184 C183 1.398 . S
C184 C185 1.391 . S
C185 H173 0.950 . S
C185 C181 1.393 . S
C185 C184 1.391 . S
H186 C194 0.950 . S
H187 C199 0.950 . S
H188 C196 0.950 . S
H189 C198 0.950 . S
H190 C200 0.950 . S
H191 C202 0.950 . S
H192 C204 0.950 . S
H193 C205 0.950 . S
C194 H186 0.950 . S
C194 C195 1.386 . S
C194 C196 1.391 . S
C195 C194 1.386 . S
C195 C199 1.393 . S
C196 H188 0.950 . S
C196 C194 1.391 . S
C196 C197 1.400 . S
C197 C196 1.400 . S
C197 C198 1.398 . S
C197 C203 1.491 . S
C198 H189 0.950 . S
C198 C197 1.398 . S
C198 C199 1.391 . S
C199 H187 0.950 . S
C199 C195 1.393 . S
C199 C198 1.391 . S
C200 H190 0.950 . S
C200 C201 1.386 . S
C200 C202 1.391 . S
C201 C200 1.386 . S
C201 C205 1.393 . S
C202 H191 0.950 . S
C202 C200 1.391 . S
C202 C203 1.400 . S
C203 C197 1.491 . S
C203 C202 1.400 . S
C203 C204 1.398 . S
C204 H192 0.950 . S
C204 C203 1.398 . S
C204 C205 1.391 . S
C205 H193 0.950 . S
C205 C201 1.393 . S
C205 C204 1.391 . S
H206 C214 0.950 . S
H207 C219 0.950 . S
H208 C216 0.950 . S
H209 C218 0.950 . S
H210 C220 0.950 . S
H211 C222 0.950 . S
H212 C224 0.950 . S
H213 C225 0.950 . S
C214 H206 0.950 . S
C214 C215 1.386 . S
C214 C216 1.391 . S
C215 C214 1.386 . S
C215 C219 1.393 . S
C216 H208 0.950 . S
C216 C214 1.391 . S
C216 C217 1.400 . S
C217 C216 1.400 . S
C217 C218 1.398 . S
C217 C223 1.491 . S
C218 H209 0.950 . S
C218 C217 1.398 . S
C218 C219 1.391 . S
C219 H207 0.950 . S
C219 C215 1.393 . S
C219 C218 1.391 . S
C220 H210 0.950 . S
C220 C221 1.386 . S
C220 C222 1.391 . S
C221 C220 1.386 . S
C221 C225 1.393 . S
C222 H211 0.950 . S
C222 C220 1.391 . S
C222 C223 1.400 . S
C223 C217 1.491 . S
C223 C222 1.400 . S
C223 C224 1.398 . S
C224 H212 0.950 . S
C224 C223 1.398 . S
C224 C225 1.391 . S
C225 H213 0.950 . S
C225 C221 1.393 . S
C225 C224 1.391 . S
H226 C234 0.950 . S
H227 C239 0.950 . S
H228 C236 0.950 . S
H229 C238 0.950 . S
H230 C240 0.950 . S
H231 C242 0.950 . S
H232 C244 0.950 . S
H233 C245 0.950 . S
C234 H226 0.950 . S
C234 C235 1.386 . S
C234 C236 1.391 . S
C235 C234 1.386 . S
C235 C239 1.393 . S
C236 H228 0.950 . S
C236 C234 1.391 . S
C236 C237 1.400 . S
C237 C236 1.400 . S
C237 C238 1.398 . S
C237 C243 1.491 . S
C238 H229 0.950 . S
C238 C237 1.398 . S
C238 C239 1.391 . S
C239 H227 0.950 . S
C239 C235 1.393 . S
C239 C238 1.391 . S
C240 H230 0.950 . S
C240 C241 1.386 . S
C240 C242 1.391 . S
C241 C240 1.386 . S
C241 C245 1.393 . S
C242 H231 0.950 . S
C242 C240 1.391 . S
C242 C243 1.400 . S
C243 C237 1.491 . S
C243 C242 1.400 . S
C243 C244 1.398 . S
C244 H232 0.950 . S
C244 C243 1.398 . S
C244 C245 1.391 . S
C245 H233 0.950 . S
C245 C241 1.393 . S
C245 C244 1.391 . S
H246 C254 0.950 . S
H247 C259 0.950 . S
H248 C256 0.950 . S
H249 C258 0.950 . S
H250 C260 0.950 . S
H251 C262 0.950 . S
H252 C264 0.950 . S
H253 C265 0.950 . S
C254 H246 0.950 . S
C254 C255 1.386 . S
C254 C256 1.391 . S
C255 C254 1.386 . S
C255 C259 1.393 1_565 S
C256 H248 0.950 . S
C256 C254 1.391 . S
C256 C257 1.400 1_565 S
C257 C256 1.400 1_545 S
C257 C258 1.398 . S
C257 C263 1.491 . S
C258 H249 0.950 . S
C258 C257 1.398 . S
C258 C259 1.391 . S
C259 H247 0.950 . S
C259 C255 1.393 1_545 S
C259 C258 1.391 . S
C260 H250 0.950 . S
C260 C261 1.386 . S
C260 C262 1.391 . S
C261 C260 1.386 . S
C261 C265 1.393 1_545 S
C262 H251 0.950 . S
C262 C260 1.391 . S
C262 C263 1.400 . S
C263 C257 1.491 . S
C263 C262 1.400 . S
C263 C264 1.398 1_545 S
C264 H252 0.950 . S
C264 C263 1.398 1_565 S
C264 C265 1.391 . S
C265 H253 0.950 . S
C265 C261 1.393 1_565 S
C265 C264 1.391 . S
H266 C274 0.950 . S
H267 C279 0.950 . S
H268 C276 0.950 . S
H269 C278 0.950 . S
H270 C280 0.950 . S
H271 C282 0.950 . S
H272 C284 0.952 . S
H273 C285 0.950 . S
C274 H266 0.950 . S
C274 C275 1.386 . S
C274 C276 1.391 . S
C275 C274 1.386 . S
C275 C279 1.393 1_565 S
C276 H268 0.950 . S
C276 C274 1.391 . S
C276 C277 1.400 1_565 S
C277 C276 1.400 1_545 S
C277 C278 1.398 . S
C277 C283 1.491 . S
C278 H269 0.950 . S
C278 C277 1.398 . S
C278 C279 1.391 . S
C279 H267 0.950 . S
C279 C275 1.393 1_545 S
C279 C278 1.391 . S
C280 H270 0.950 . S
C280 C281 1.386 . S
C280 C282 1.391 . S
C281 C280 1.386 . S
C281 C285 1.393 1_445 S
C282 H271 0.950 . S
C282 C280 1.391 . S
C282 C283 1.400 . S
C283 C277 1.491 . S
C283 C282 1.400 . S
C283 C284 1.398 1_545 S
C284 H272 0.952 . S
C284 C283 1.398 1_565 S
C284 C285 1.391 1_455 S
C285 H273 0.950 . S
C285 C281 1.393 1_665 S
C285 C284 1.391 1_655 S
H286 C294 0.950 . S
H287 C299 0.950 . S
H288 C296 0.950 . S
H289 C298 0.950 . S
H290 C300 0.950 . S
H291 C302 0.950 . S
H292 C304 0.950 . S
H293 C305 0.950 . S
C294 H286 0.950 . S
C294 C295 1.386 . S
C294 C296 1.391 . S
C295 C294 1.386 . S
C295 C299 1.393 . S
C296 H288 0.950 . S
C296 C294 1.391 . S
C296 C297 1.400 . S
C297 C296 1.400 . S
C297 C298 1.398 . S
C297 C303 1.491 . S
C298 H289 0.950 . S
C298 C297 1.398 . S
C298 C299 1.391 . S
C299 H287 0.950 . S
C299 C295 1.393 . S
C299 C298 1.391 . S
C300 H290 0.950 . S
C300 C301 1.386 . S
C300 C302 1.391 . S
C301 C300 1.386 . S
C301 C305 1.393 . S
C302 H291 0.950 . S
C302 C300 1.391 . S
C302 C303 1.400 . S
C303 C297 1.491 . S
C303 C302 1.400 . S
C303 C304 1.398 . S
C304 H292 0.950 . S
C304 C303 1.398 . S
C304 C305 1.391 . S
C305 H293 0.950 . S
C305 C301 1.393 . S
C305 C304 1.391 . S
H306 C314 0.950 . S
H307 C319 0.950 . S
H308 C316 0.950 . S
H309 C318 0.950 . S
H310 C320 0.950 . S
H311 C322 0.950 . S
H312 C324 0.950 . S
H313 C325 0.950 . S
C314 H306 0.950 . S
C314 C315 1.386 . S
C314 C316 1.391 . S
C315 C314 1.386 . S
C315 C319 1.393 . S
C316 H308 0.950 . S
C316 C314 1.391 . S
C316 C317 1.400 . S
C317 C316 1.400 . S
C317 C318 1.398 . S
C317 C323 1.491 . S
C318 H309 0.950 . S
C318 C317 1.398 . S
C318 C319 1.391 . S
C319 H307 0.950 . S
C319 C315 1.393 . S
C319 C318 1.391 . S
C320 H310 0.950 . S
C320 C321 1.386 . S
C320 C322 1.391 . S
C321 C320 1.386 . S
C321 C325 1.393 . S
C322 H311 0.950 . S
C322 C320 1.391 . S
C322 C323 1.400 . S
C323 C317 1.491 . S
C323 C322 1.400 . S
C323 C324 1.398 . S
C324 H312 0.950 . S
C324 C323 1.398 . S
C324 C325 1.391 . S
C325 H313 0.950 . S
C325 C321 1.393 . S
C325 C324 1.391 . S
C101 C79 1.317 . S
C95 C3 1.238 . S
C115 C4 1.455 1_556 S
C121 C74 1.528 . S
C135 C19 1.477 . S
C141 C85 1.551 . S
C155 C7 1.195 . S
C161 C68 1.338 . S
C175 C37 1.222 . S
C181 C57 1.329 . S
C195 C28 1.423 . S
C201 C52 1.519 1_655 S
C221 C63 1.537 . S
C215 C41 1.463 . S
C241 C46 1.324 . S
C235 C25 1.240 . S
C255 C20 1.335 . S
C261 C47 1.485 . S
C275 C16 1.379 1_455 S
C281 C58 1.530 1_455 S
C301 C69 1.492 . S
C295 C40 1.377 . S
C315 C24 1.413 . S
C321 C80 1.526 . S
