# Generated by pormake.
# Topology pyr, (3,6)-cn, num edge types: 1
# Building blocks:
#     Node 0, Type 0, BuildingBlock: PAMTOO_clean_linker_0, # of connection points: 3
#     Node 1, Type 0, BuildingBlock: PAMTOO_clean_linker_0, # of connection points: 3
#     Node 2, Type 0, BuildingBlock: PAMTOO_clean_linker_0, # of connection points: 3
#     Node 3, Type 0, BuildingBlock: PAMTOO_clean_linker_0, # of connection points: 3
#     Node 4, Type 0, BuildingBlock: PAMTOO_clean_linker_0, # of connection points: 3
#     Node 5, Type 0, BuildingBlock: PAMTOO_clean_linker_0, # of connection points: 3
#     Node 6, Type 0, BuildingBlock: PAMTOO_clean_linker_0, # of connection points: 3
#     Node 7, Type 0, BuildingBlock: PAMTOO_clean_linker_0, # of connection points: 3
#     Node 8, Type 1, BuildingBlock: BETDIP_clean_sbu_0, # of connection points: 6
#     Node 9, Type 1, BuildingBlock: BETDIP_clean_sbu_0, # of connection points: 6
#     Node 10, Type 1, BuildingBlock: BETDIP_clean_sbu_0, # of connection points: 6
#     Node 11, Type 1, BuildingBlock: BETDIP_clean_sbu_0, # of connection points: 6
#     Edge 12, Type (0, 1), BuildingBlock: UVAHIK_clean_linker_0, # of connection points: 2
#     Edge 13, Type (0, 1), BuildingBlock: UVAHIK_clean_linker_0, # of connection points: 2
#     Edge 14, Type (0, 1), BuildingBlock: UVAHIK_clean_linker_0, # of connection points: 2
#     Edge 15, Type (0, 1), BuildingBlock: UVAHIK_clean_linker_0, # of connection points: 2
#     Edge 16, Type (0, 1), BuildingBlock: UVAHIK_clean_linker_0, # of connection points: 2
#     Edge 17, Type (0, 1), BuildingBlock: UVAHIK_clean_linker_0, # of connection points: 2
#     Edge 18, Type (0, 1), BuildingBlock: UVAHIK_clean_linker_0, # of connection points: 2
#     Edge 19, Type (0, 1), BuildingBlock: UVAHIK_clean_linker_0, # of connection points: 2
#     Edge 20, Type (0, 1), BuildingBlock: UVAHIK_clean_linker_0, # of connection points: 2
#     Edge 21, Type (0, 1), BuildingBlock: UVAHIK_clean_linker_0, # of connection points: 2
#     Edge 22, Type (0, 1), BuildingBlock: UVAHIK_clean_linker_0, # of connection points: 2
#     Edge 23, Type (0, 1), BuildingBlock: UVAHIK_clean_linker_0, # of connection points: 2
#     Edge 24, Type (0, 1), BuildingBlock: UVAHIK_clean_linker_0, # of connection points: 2
#     Edge 25, Type (0, 1), BuildingBlock: UVAHIK_clean_linker_0, # of connection points: 2
#     Edge 26, Type (0, 1), BuildingBlock: UVAHIK_clean_linker_0, # of connection points: 2
#     Edge 27, Type (0, 1), BuildingBlock: UVAHIK_clean_linker_0, # of connection points: 2
#     Edge 28, Type (0, 1), BuildingBlock: UVAHIK_clean_linker_0, # of connection points: 2
#     Edge 29, Type (0, 1), BuildingBlock: UVAHIK_clean_linker_0, # of connection points: 2
#     Edge 30, Type (0, 1), BuildingBlock: UVAHIK_clean_linker_0, # of connection points: 2
#     Edge 31, Type (0, 1), BuildingBlock: UVAHIK_clean_linker_0, # of connection points: 2
#     Edge 32, Type (0, 1), BuildingBlock: UVAHIK_clean_linker_0, # of connection points: 2
#     Edge 33, Type (0, 1), BuildingBlock: UVAHIK_clean_linker_0, # of connection points: 2
#     Edge 34, Type (0, 1), BuildingBlock: UVAHIK_clean_linker_0, # of connection points: 2
#     Edge 35, Type (0, 1), BuildingBlock: UVAHIK_clean_linker_0, # of connection points: 2
# Relax obj value: 0.144
# Max RMSD: 0.271
# Mean RMSD: 0.149
data_MOF--net-pyr--node1-BETDIP_clean_sbu_0--node2-PAMTOO_clean_linker_0--edge1-UVAHIK_clean_linker_0
_symmetry_space_group_name_H-M    P1
_symmetry_Int_Tables_number       1
_symmetry_cell_setting            triclinic
loop_
_symmetry_equiv_pos_as_xyz
'x, y, z'
_cell_length_a     44.400564
_cell_length_b     51.876909
_cell_length_c     50.797692
_cell_angle_alpha  88.571221
_cell_angle_beta   94.236688
_cell_angle_gamma 106.71136
loop_
_atom_site_label
_atom_site_type_symbol
_atom_site_fract_x
_atom_site_fract_y
_atom_site_fract_z
_atom_type_partial_charge
H0 H 0.3052 0.27809 0.23826 0.0
H1 H 0.35305 0.21716 0.25314 0.0
H2 H 0.34889 0.25081 0.17577 0.0
H3 H 0.32923 0.19034 0.18426 0.0
C4 C 0.34969 0.18946 0.19798 0.0
O5 O 0.36734 0.21525 0.20484 0.0
H6 H 0.34065 0.17806 0.21597 0.0
C7 C 0.31941 0.26598 0.23166 0.0
C8 C 0.32663 0.26725 0.20508 0.0
C9 C 0.32863 0.24786 0.24929 0.0
C10 C 0.34655 0.23196 0.24028 0.0
C11 C 0.35357 0.23299 0.21386 0.0
C12 C 0.34381 0.25065 0.19633 0.0
H13 H 0.2468 0.82596 0.70505 0.0
H14 H 0.18055 0.76412 0.65813 0.0
H15 H 0.25805 0.74643 0.70304 0.0
H16 H 0.21949 0.73772 0.63193 0.0
C17 C 0.21492 0.72012 0.64565 0.0
O18 O 0.20852 0.72703 0.67027 0.0
H19 H 0.19361 0.70508 0.63686 0.0
C20 C 0.23914 0.80562 0.69738 0.0
C21 C 0.25585 0.78736 0.7058 0.0
C22 C 0.21183 0.79757 0.68029 0.0
C23 C 0.20141 0.77078 0.67151 0.0
C24 C 0.2184 0.75257 0.67933 0.0
C25 C 0.24538 0.76075 0.69669 0.0
H26 H 0.70285 0.32482 0.89792 0.0
H27 H 0.63698 0.31053 0.82947 0.0
H28 H 0.70919 0.38602 0.83812 0.0
H29 H 0.6449 0.38769 0.82111 0.0
C30 C 0.63939 0.37193 0.80557 0.0
O31 O 0.66176 0.35794 0.8075 0.0
H32 H 0.61594 0.35781 0.8092 0.0
C33 C 0.69374 0.3318 0.87958 0.0
C34 C 0.70893 0.35767 0.87018 0.0
C35 C 0.66766 0.31446 0.86534 0.0
C36 C 0.65705 0.32339 0.84082 0.0
C37 C 0.67202 0.34926 0.83106 0.0
C38 C 0.69797 0.36614 0.84571 0.0
H39 H 0.89165 0.7264 0.39275 0.0
H40 H 0.88925 0.66334 0.33853 0.0
H41 H 0.96255 0.73883 0.33641 0.0
H42 H 0.93849 0.70905 0.28088 0.0
C43 C 0.93216 0.68807 0.2886 0.0
O44 O 0.94115 0.68886 0.31573 0.0
H45 H 0.90604 0.68023 0.28581 0.0
C46 C 0.90105 0.71948 0.3761 0.0
C47 C 0.92821 0.73672 0.36551 0.0
C48 C 0.88622 0.69325 0.36652 0.0
C49 C 0.89998 0.68351 0.346 0.0
C50 C 0.92745 0.69968 0.33472 0.0
C51 C 0.94147 0.72634 0.34475 0.0
H52 H 0.71317 0.82729 0.83679 0.0
H53 H 0.70552 0.7821 0.90928 0.0
H54 H 0.7493 0.75849 0.84528 0.0
H55 H 0.70397 0.71395 0.87871 0.0
C56 C 0.71385 0.72357 0.89803 0.0
O57 O 0.73453 0.74859 0.89402 0.0
H58 H 0.69413 0.72561 0.90931 0.0
C59 C 0.71616 0.81002 0.84799 0.0
C60 C 0.73207 0.79321 0.83749 0.0
C61 C 0.70648 0.80614 0.87381 0.0
C62 C 0.71221 0.78497 0.88908 0.0
C63 C 0.72708 0.76762 0.87854 0.0
C64 C 0.73691 0.77163 0.85283 0.0
H65 H 0.87827 0.22345 0.34039 0.0
H66 H 0.83618 0.28805 0.34702 0.0
H67 H 0.90522 0.2773 0.40654 0.0
H68 H 0.86273 0.30192 0.43148 0.0
C69 C 0.84771 0.30054 0.41276 0.0
O70 O 0.86692 0.30572 0.39192 0.0
H71 H 0.83127 0.27974 0.41176 0.0
C72 C 0.87671 0.24115 0.35047 0.0
C73 C 0.89456 0.24889 0.37439 0.0
C74 C 0.85536 0.255 0.34038 0.0
C75 C 0.85308 0.27752 0.35402 0.0
C76 C 0.87127 0.28561 0.37768 0.0
C77 C 0.89209 0.27145 0.38774 0.0
H78 H 0.38971 0.71942 0.16119 0.0
H79 H 0.38606 0.66173 0.22416 0.0
H80 H 0.45772 0.7377 0.22816 0.0
H81 H 0.47987 0.69208 0.25037 0.0
C82 C 0.45682 0.67814 0.25533 0.0
O83 O 0.43409 0.69174 0.25282 0.0
H84 H 0.45084 0.66122 0.241 0.0
C85 C 0.3995 0.71353 0.17977 0.0
C86 C 0.42589 0.73173 0.19285 0.0
C87 C 0.38487 0.68818 0.19066 0.0
C88 C 0.39677 0.68118 0.21542 0.0
C89 C 0.423 0.69895 0.22891 0.0
C90 C 0.43738 0.72421 0.21767 0.0
H91 H 0.1145 0.30891 0.76754 0.0
H92 H 0.1837 0.38652 0.75951 0.0
H93 H 0.18034 0.32303 0.7064 0.0
H94 H 0.24364 0.35573 0.72737 0.0
C95 C 0.23999 0.37597 0.7242 0.0
O96 O 0.20817 0.37318 0.71812 0.0
H97 H 0.24748 0.38708 0.74312 0.0
C98 C 0.134 0.32212 0.75774 0.0
C99 C 0.14588 0.31207 0.73582 0.0
C100 C 0.14737 0.34931 0.76686 0.0
C101 C 0.17278 0.36593 0.75328 0.0
C102 C 0.18468 0.35642 0.73171 0.0
C103 C 0.17119 0.32979 0.72331 0.0
Tb104 Tb 1.00527 1.01101 0.55781 0.0
Tb105 Tb 0.07525 0.03868 0.54154 0.0
C106 C 0.95156 0.97838 0.5605 0.0
C107 C 0.93296 0.96424 0.58185 0.0
C108 C 0.90261 0.94715 0.57593 0.0
C109 C 0.88539 0.93227 0.59596 0.0
C110 C 0.89839 0.93425 0.6222 0.0
C111 C 0.92869 0.95185 0.62806 0.0
C112 C 0.94585 0.96673 0.60802 0.0
C113 C 0.03423 0.0549 0.58805 0.0
C114 C 0.0626 0.9956 0.58783 0.0
C115 C 0.1287 0.07152 0.53804 0.0
C116 C 0.14727 0.08484 0.51635 0.0
C117 C 0.17681 0.10337 0.52193 0.0
C118 C 0.19377 0.11763 0.50147 0.0
C119 C 0.18135 0.11352 0.47513 0.0
C120 C 0.15189 0.0945 0.46963 0.0
C121 C 0.13495 0.08028 0.49011 0.0
C122 C 0.04647 0.99392 0.51245 0.0
C123 C 0.01806 0.05338 0.51045 0.0
O124 O 0.97694 0.97115 0.55698 0.0
O125 O 0.95665 1.00457 0.55966 0.0
O126 O 0.04444 0.04455 0.5695 0.0
O127 O 1.00611 0.03889 0.59071 0.0
O128 O 0.0318 0.98868 0.58174 0.0
O129 O 0.08269 0.01679 0.57742 0.0
O130 O 0.10307 0.07864 0.54073 0.0
O131 O 0.12399 0.04543 0.5401 0.0
O132 O 0.03597 1.0056 0.52972 0.0
O133 O 0.07526 1.00892 0.51061 0.0
O134 O 0.04897 0.05954 0.51555 0.0
O135 O 0.99759 0.03374 0.52254 0.0
H136 H 0.89246 0.94494 0.55576 0.0
H137 H 0.86227 0.91869 0.59079 0.0
H138 H 0.93915 0.95408 0.64812 0.0
H139 H 0.96933 0.9799 0.61285 0.0
H140 H 0.18654 0.10711 0.54214 0.0
H141 H 0.21655 0.13191 0.50628 0.0
H142 H 0.14152 0.09114 0.44958 0.0
H143 H 0.11199 0.06615 0.48555 0.0
Tb144 Tb 0.57924 0.03393 0.03931 0.0
Tb145 Tb 0.51803 1.00745 1.0105 0.0
C146 C 0.63433 0.06135 0.05342 0.0
C147 C 0.64909 0.08099 0.0743 0.0
C148 C 0.63521 0.10072 0.08149 0.0
C149 C 0.64913 0.11838 0.10222 0.0
C150 C 0.67681 0.11627 0.11625 0.0
C151 C 0.69074 0.09668 0.10878 0.0
C152 C 0.67704 0.07926 0.08792 0.0
C153 C 0.54559 0.98996 0.06246 0.0
C154 C 0.521 0.04638 0.05891 0.0
C155 C 0.46352 0.98005 0.99473 0.0
C156 C 0.45194 0.96223 0.97196 0.0
C157 C 0.42062 0.94611 0.96962 0.0
C158 C 0.40965 0.92919 0.94782 0.0
C159 C 0.42994 0.92817 0.92808 0.0
C160 C 0.46146 0.9442 0.93077 0.0
C161 C 0.47234 0.9611 0.9525 0.0
C162 C 0.552 0.05167 0.98771 0.0
C163 C 0.57612 0.99394 0.9917 0.0
O164 O 0.61656 0.06886 0.03483 0.0
O165 O 0.62179 0.03673 0.06149 0.0
O166 O 0.54856 0.99349 0.03798 0.0
O167 O 0.56313 1.01111 0.07493 0.0
O168 O 0.55187 0.05553 0.05812 0.0
O169 O 0.504 0.02596 0.04411 0.0
O170 O 0.48129 0.97164 0.01262 0.0
O171 O 0.47527 1.00554 0.98907 0.0
O172 O 0.54856 0.04786 1.01205 0.0
O173 O 0.5348 0.03054 0.97506 0.0
O174 O 0.54519 0.9857 0.99182 0.0
O175 O 0.59341 0.01398 1.00676 0.0
H176 H 0.61344 0.10226 0.07138 0.0
H177 H 0.63781 0.13317 0.10776 0.0
H178 H 0.71224 0.09481 0.11914 0.0
H179 H 0.68805 0.06416 0.08265 0.0
H180 H 0.40461 0.94676 0.98452 0.0
H181 H 0.38516 0.91733 0.94616 0.0
H182 H 0.47777 0.94363 0.9161 0.0
H183 H 0.49666 0.97337 0.95406 0.0
Tb184 Tb 0.5564 0.55876 0.54711 0.0
Tb185 Tb 0.54876 0.50672 0.52128 0.0
C186 C 0.54782 0.60208 0.56133 0.0
C187 C 0.52527 0.61028 0.57654 0.0
C188 C 0.51989 0.63522 0.57105 0.0
C189 C 0.49689 0.64278 0.58368 0.0
C190 C 0.47878 0.6255 0.6021 0.0
C191 C 0.48469 0.60064 0.60792 0.0
C192 C 0.50775 0.59308 0.59521 0.0
C193 C 0.58303 0.52604 0.57464 0.0
C194 C 0.4948 0.50884 0.55708 0.0
C195 C 0.55716 0.46361 0.50629 0.0
C196 C 0.58157 0.45623 0.49272 0.0
C197 C 0.61329 0.47149 0.49601 0.0
C198 C 0.63639 0.4638 0.48368 0.0
C199 C 0.62829 0.44047 0.46806 0.0
C200 C 0.59637 0.42547 0.46448 0.0
C201 C 0.57322 0.43334 0.47668 0.0
C202 C 0.52158 0.53919 0.49408 0.0
C203 C 0.61028 0.55665 0.51138 0.0
O204 O 0.53615 0.59014 0.53892 0.0
O205 O 0.56682 0.59037 0.57438 0.0
O206 O 0.55699 0.51972 0.56119 0.0
O207 O 0.59454 0.55204 0.57397 0.0
O208 O 0.50867 0.53524 0.55839 0.0
O209 O 0.50785 0.4929 0.54491 0.0
O210 O 0.56559 0.47354 0.53004 0.0
O211 O 0.5406 0.47685 0.49225 0.0
O212 O 0.54794 0.54568 0.50711 0.0
O213 O 0.50999 0.51322 0.49524 0.0
O214 O 0.59701 0.53015 0.51099 0.0
O215 O 0.59659 0.57263 0.5227 0.0
H216 H 0.53302 0.64863 0.55651 0.0
H217 H 0.49262 0.66182 0.5783 0.0
H218 H 0.47139 0.58695 0.62217 0.0
H219 H 0.51158 0.57369 0.59967 0.0
H220 H 0.62031 0.48912 0.50847 0.0
H221 H 0.66065 0.47605 0.48656 0.0
H222 H 0.58933 0.40719 0.45291 0.0
H223 H 0.54885 0.42128 0.47397 0.0
Tb224 Tb 0.04651 0.53648 0.01702 0.0
Tb225 Tb 0.04663 0.4914 0.0533 0.0
C226 C 0.02971 0.57137 0.98945 0.0
C227 C 1.0028 0.58241 0.99009 0.0
C228 C 0.97319 0.56583 0.99656 0.0
C229 C 0.94728 0.57599 0.99568 0.0
C230 C 0.95067 0.603 0.9888 0.0
C231 C 0.98056 0.61984 0.98336 0.0
C232 C 1.00644 0.60954 0.98386 0.0
C233 C 0.10259 0.53933 0.04037 0.0
C234 C 0.02465 0.53808 0.07671 0.0
C235 C 0.06257 0.45636 0.08137 0.0
C236 C 0.0859 0.44134 0.08012 0.0
C237 C 0.11649 0.45411 0.07261 0.0
C238 C 0.13924 0.44023 0.07394 0.0
C239 C 0.13162 0.41329 0.08239 0.0
C240 C 0.10061 0.4002 0.08866 0.0
C241 C 0.07796 0.41419 0.08765 0.0
C242 C 0.99071 0.48918 0.02988 0.0
C243 C 0.06734 0.48913 0.9933 0.0
O244 O 0.0226 0.546 0.98292 0.0
O245 O 0.05071 0.57738 1.00947 0.0
O246 O 0.07641 0.5315 0.05048 0.0
O247 O 0.09788 0.54756 0.01652 0.0
O248 O 0.02314 0.54636 0.05167 0.0
O249 O 0.03557 0.51724 0.08262 0.0
O250 O 0.07402 0.48227 0.08536 0.0
O251 O 0.03893 0.45057 0.06347 0.0
O252 O 0.01693 0.49658 0.01992 0.0
O253 O 0.99508 0.48093 0.0538 0.0
O254 O 0.06814 0.48025 0.01818 0.0
O255 O 0.05766 0.51069 0.98768 0.0
H256 H 0.96994 0.5449 1.00187 0.0
H257 H 0.92452 0.56272 1.00019 0.0
H258 H 0.98365 0.64071 0.97787 0.0
H259 H 0.02915 0.62264 0.979 0.0
H260 H 0.12307 0.475 0.06639 0.0
H261 H 0.16293 0.45066 0.0688 0.0
H262 H 0.09423 0.37949 0.09545 0.0
H263 H 0.05445 0.40401 0.09343 0.0
C264 C 0.28385 0.23988 0.27854 0.0
C265 C 0.31584 0.24241 0.27571 0.0
C266 C 0.27013 0.22991 0.30193 0.0
C267 C 0.24343 0.18746 0.3422 0.0
H268 H 0.28438 0.20141 0.41261 0.0
C269 C 0.19997 0.11747 0.4294 0.0
C270 C 0.19854 0.12961 0.4535 0.0
C271 C 0.21503 0.13284 0.40866 0.0
C272 C 0.27254 0.19746 0.39308 0.0
H273 H 0.35902 0.2384 0.29594 0.0
H274 H 0.33487 0.22043 0.33664 0.0
H275 H 0.30892 0.2279 0.37533 0.0
H276 H 0.21183 0.1674 0.47478 0.0
H277 H 0.23814 0.19426 0.43853 0.0
H278 H 0.20698 0.15722 0.35982 0.0
C279 C 0.32045 0.22629 0.32081 0.0
C280 C 0.28671 0.21248 0.37174 0.0
C281 C 0.33423 0.23637 0.29741 0.0
C282 C 0.21292 0.1574 0.45656 0.0
C283 C 0.22797 0.17279 0.4358 0.0
C284 C 0.22932 0.17248 0.36348 0.0
C285 C 0.28801 0.22212 0.32298 0.0
C286 C 0.27236 0.20754 0.34604 0.0
C287 C 0.22894 0.16071 0.41155 0.0
C288 C 0.24382 0.17714 0.38913 0.0
H289 H 0.26889 0.24408 0.26218 0.0
H290 H 0.2452 0.22739 0.30319 0.0
H291 H 0.23198 0.18283 0.32261 0.0
H292 H 0.18954 0.09603 0.42659 0.0
H293 H 0.21589 0.12286 0.39037 0.0
C294 C 0.30701 0.81994 0.72093 0.0
C295 C 0.28296 0.79627 0.7254 0.0
C296 C 0.32907 0.83169 0.74135 0.0
C297 C 0.35829 0.82236 0.8107 0.0
H298 H 0.36939 0.89917 0.81416 0.0
C299 C 0.39738 0.88509 0.90649 0.0
C300 C 0.41805 0.91115 0.90434 0.0
C301 C 0.3852 0.86962 0.88392 0.0
C302 C 0.36701 0.87783 0.81333 0.0
H303 H 0.26404 0.76534 0.75401 0.0
H304 H 0.30217 0.78615 0.79004 0.0
H305 H 0.34175 0.87419 0.77562 0.0
H306 H 0.44246 0.94128 0.87685 0.0
H307 H 0.42154 0.9142 0.83758 0.0
H308 H 0.38279 0.82615 0.84906 0.0
C309 C 0.30444 0.79546 0.77069 0.0
C310 C 0.35122 0.86346 0.79115 0.0
C311 C 0.28257 0.78352 0.7501 0.0
C312 C 0.42679 0.92119 0.87921 0.0
C313 C 0.41459 0.90578 0.85669 0.0
C314 C 0.37403 0.83679 0.83303 0.0
C315 C 0.32719 0.82024 0.76679 0.0
C316 C 0.34644 0.83552 0.78959 0.0
C317 C 0.39335 0.87997 0.85875 0.0
C318 C 0.37832 0.86465 0.83464 0.0
H319 H 0.30786 0.82998 0.70192 0.0
H320 H 0.34678 0.8504 0.73749 0.0
H321 H 0.35525 0.80091 0.81004 0.0
H322 H 0.39049 0.87668 0.92561 0.0
H323 H 0.36868 0.84989 0.88612 0.0
C324 C 0.61488 0.37312 0.75886 0.0
C325 C 0.63802 0.38528 0.7787 0.0
C326 C 0.61104 0.38688 0.73527 0.0
C327 C 0.64957 0.44622 0.69365 0.0
H328 H 0.56356 0.44025 0.66766 0.0
C329 C 0.61817 0.51874 0.61368 0.0
C330 C 0.59217 0.50849 0.59555 0.0
C331 C 0.6252 0.50279 0.63468 0.0
C332 C 0.58778 0.44192 0.67429 0.0
H333 H 0.67644 0.4208 0.78872 0.0
H334 H 0.66983 0.44496 0.74766 0.0
H335 H 0.57351 0.41409 0.70598 0.0
H336 H 0.55365 0.4731 0.58497 0.0
H337 H 0.56615 0.44517 0.62111 0.0
H338 H 0.66379 0.47426 0.66201 0.0
C339 C 0.65454 0.42477 0.7502 0.0
C340 C 0.59352 0.42682 0.69641 0.0
C341 C 0.65833 0.41097 0.77381 0.0
C342 C 0.57385 0.48167 0.59857 0.0
C343 C 0.58088 0.46571 0.61952 0.0
C344 C 0.64382 0.46132 0.67147 0.0
C345 C 0.63037 0.41317 0.73078 0.0
C346 C 0.6245 0.42876 0.70653 0.0
C347 C 0.60643 0.4761 0.63816 0.0
C348 C 0.61281 0.45949 0.66146 0.0
H349 H 0.59906 0.35324 0.76194 0.0
H350 H 0.59264 0.37698 0.72063 0.0
H351 H 0.67376 0.44807 0.70055 0.0
H352 H 0.63272 0.53934 0.61199 0.0
H353 H 0.64485 0.51172 0.64866 0.0
C354 C 0.93177 0.64303 0.26715 0.0
C355 C 0.94665 0.67073 0.27141 0.0
C356 C 0.94089 0.62843 0.24734 0.0
C357 C 0.98574 0.63875 0.1845 0.0
H358 H 0.97365 0.56196 0.19013 0.0
C359 C 1.00401 0.57577 0.09413 0.0
C360 C 0.01466 0.55276 0.09888 0.0
C361 C 0.99589 0.58975 0.11501 0.0
C362 C 0.97756 0.58345 0.18799 0.0
H363 H 0.9839 0.70415 0.25784 0.0
H364 H 1.00027 0.67901 0.22422 0.0
H365 H 0.9612 0.58611 0.22642 0.0
H366 H 0.02479 0.52698 0.13045 0.0
H367 H 0.01107 0.55097 0.16627 0.0
H368 H 1.00258 0.63618 0.14626 0.0
C369 C 0.98096 0.66836 0.23578 0.0
C370 C 0.96992 0.59748 0.20904 0.0
C371 C 0.97187 0.68289 0.25561 0.0
C372 C 0.0166 0.54436 0.1255 0.0
C373 C 0.00844 0.55826 0.14634 0.0
C374 C 0.99328 0.62471 0.16342 0.0
C375 C 0.96531 0.64084 0.23068 0.0
C376 C 0.97384 0.62556 0.20794 0.0
C377 C 0.99794 0.58142 0.14175 0.0
C378 C 0.98946 0.59665 0.16455 0.0
H379 H 0.91194 0.63282 0.2784 0.0
H380 H 0.92771 0.60753 0.24445 0.0
H381 H 0.98892 0.66013 0.18209 0.0
H382 H 1.00203 0.58317 0.07415 0.0
H383 H 0.98762 0.60705 0.10999 0.0
C384 C 0.40122 0.17875 0.19359 0.0
C385 C 0.36938 0.17487 0.18509 0.0
C386 C 0.4189 0.16427 0.18207 0.0
C387 C 0.41117 0.10201 0.14645 0.0
H388 H 0.49175 0.14006 0.11988 0.0
C389 C 0.47174 0.05331 0.0742 0.0
C390 C 0.50478 0.05969 0.07622 0.0
C391 C 0.45633 0.06658 0.08974 0.0
C392 C 0.46957 0.12903 0.12761 0.0
H393 H 0.33057 0.15184 0.15918 0.0
H394 H 0.36144 0.12642 0.13908 0.0
H395 H 0.46277 0.16481 0.14314 0.0
H396 H 0.54758 0.08452 0.09661 0.0
H397 H 0.52056 0.10731 0.12418 0.0
H398 H 0.41785 0.06622 0.13111 0.0
C399 C 0.37281 0.14092 0.15433 0.0
C400 C 0.45297 0.14325 0.14084 0.0
C401 C 0.35525 0.15559 0.16563 0.0
C402 C 0.52208 0.07927 0.09447 0.0
C403 C 0.50661 0.09243 0.11018 0.0
C404 C 0.42788 0.08775 0.13346 0.0
C405 C 0.40481 0.14521 0.16237 0.0
C406 C 0.42339 0.12992 0.14999 0.0
C407 C 0.47356 0.08637 0.10783 0.0
C408 C 0.45703 0.10117 0.12349 0.0
H409 H 0.41243 0.19294 0.20913 0.0
H410 H 0.44343 0.16766 0.18885 0.0
H411 H 0.38862 0.09121 0.15371 0.0
H412 H 0.45771 0.03842 0.06024 0.0
H413 H 0.43089 0.06174 0.08708 0.0
C414 C 0.16118 0.80993 0.67181 0.0
C415 C 0.19425 0.81722 0.67222 0.0
C416 C 0.14497 0.82906 0.66579 0.0
C417 C 0.15676 0.90258 0.66432 0.0
H418 H 0.0816 0.88516 0.61653 0.0
C419 C 0.10832 0.98275 0.61038 0.0
C420 C 0.07558 0.97734 0.60508 0.0
C421 C 0.12098 0.96347 0.62274 0.0
C422 C 0.10221 0.89023 0.63032 0.0
H423 H 0.23612 0.84998 0.66558 0.0
H424 H 0.20792 0.88322 0.65507 0.0
H425 H 0.10711 0.85043 0.62897 0.0
H426 H 0.03034 0.94803 0.61031 0.0
H427 H 0.05251 0.91457 0.63212 0.0
H428 H 0.1522 0.94251 0.66529 0.0
C429 C 0.19453 0.86292 0.65998 0.0
C430 C 0.11687 0.87032 0.63738 0.0
C431 C 0.21068 0.84385 0.66593 0.0
C432 C 0.05569 0.95284 0.61389 0.0
C433 C 0.06839 0.93355 0.62623 0.0
C434 C 0.14209 0.92247 0.65729 0.0
C435 C 0.16153 0.85584 0.6601 0.0
C436 C 0.14462 0.8764 0.65409 0.0
C437 C 0.1012 0.93835 0.63012 0.0
C438 C 0.11494 0.91665 0.63986 0.0
H439 H 0.14788 0.78965 0.67684 0.0
H440 H 0.11954 0.82302 0.66619 0.0
H441 H 0.17777 0.90775 0.67766 0.0
H442 H 0.12438 1.0014 0.60395 0.0
H443 H 0.14638 0.96778 0.62527 0.0
C444 C 0.76354 0.39055 0.87436 0.0
C445 C 0.73627 0.37546 0.88619 0.0
C446 C 0.78998 0.4055 0.88986 0.0
C447 C 0.82696 0.40812 0.95789 0.0
H448 H 0.87905 0.47813 0.93684 0.0
C449 C 0.93217 0.4682 0.02601 0.0
C450 C 0.96015 0.48091 0.01401 0.0
C451 C 0.90388 0.45779 1.01066 0.0
C452 C 0.86492 0.45849 0.94292 0.0
H453 H 0.7149 0.36561 0.92357 0.0
H454 H 0.76074 0.39155 0.95045 0.0
H455 H 0.83184 0.45533 0.9093 0.0
H456 H 0.98023 0.49357 0.97656 0.0
H457 H 0.93111 0.47523 0.94977 0.0
H458 H 0.8601 0.41093 0.99121 0.0
C459 C 0.76207 0.39137 0.92925 0.0
C460 C 0.83782 0.44541 0.9271 0.0
C461 C 0.73573 0.37648 0.91381 0.0
C462 C 0.95902 0.48392 0.98641 0.0
C463 C 0.93078 0.47347 0.97104 0.0
C464 C 0.85402 0.42113 0.97363 0.0
C465 C 0.78975 0.40573 0.91757 0.0
C466 C 0.81848 0.42003 0.93439 0.0
C467 C 0.90291 0.45978 0.9829 0.0
C468 C 0.87343 0.4465 0.9664 0.0
H469 H 0.76487 0.39007 0.85318 0.0
H470 H 0.81096 0.41616 0.88019 0.0
H471 H 0.81303 0.38838 0.9639 0.0
H472 H 0.93226 0.46574 0.04725 0.0
H473 H 0.88281 0.44789 0.02056 0.0
C474 C 0.85032 0.64882 0.38358 0.0
C475 C 0.85639 0.67665 0.37853 0.0
C476 C 0.82353 0.63431 0.39671 0.0
C477 C 0.74526 0.63983 0.41777 0.0
H478 H 0.75002 0.58145 0.46546 0.0
C479 C 0.65015 0.5971 0.49288 0.0
C480 C 0.63944 0.56902 0.49677 0.0
C481 C 0.67624 0.60886 0.47805 0.0
C482 C 0.7481 0.59756 0.45207 0.0
H483 H 0.83734 0.71035 0.38262 0.0
H484 H 0.7922 0.68581 0.40591 0.0
H485 H 0.79514 0.60387 0.44019 0.0
H486 H 0.64884 0.53152 0.48796 0.0
H487 H 0.69457 0.55202 0.46251 0.0
H488 H 0.69853 0.6339 0.43008 0.0
C489 C 0.80768 0.67479 0.3996 0.0
C490 C 0.77412 0.61047 0.43738 0.0
C491 C 0.83418 0.68914 0.38643 0.0
C492 C 0.65622 0.55316 0.48561 0.0
C493 C 0.68264 0.56499 0.47099 0.0
C494 C 0.71949 0.62715 0.43263 0.0
C495 C 0.80177 0.64708 0.40521 0.0
C496 C 0.77337 0.63208 0.42009 0.0
C497 C 0.69292 0.59306 0.46669 0.0
C498 C 0.72046 0.60593 0.45023 0.0
H499 H 0.86669 0.63831 0.37799 0.0
H500 H 0.81993 0.613 0.40014 0.0
H501 H 0.7429 0.65572 0.40429 0.0
H502 H 0.63805 0.61015 0.501 0.0
H503 H 0.68349 0.63052 0.47562 0.0
C504 C 0.31517 0.31048 0.19179 0.0
C505 C 0.3132 0.28369 0.18601 0.0
C506 C 0.29976 0.32505 0.17493 0.0
C507 C 0.22996 0.31432 0.13066 0.0
H508 H 0.26563 0.38872 0.11003 0.0
C509 C 0.15153 0.37315 0.07795 0.0
C510 C 0.15646 0.39952 0.08687 0.0
C511 C 0.17375 0.3593 0.08469 0.0
C512 C 0.25523 0.368 0.11577 0.0
H513 H 0.29421 0.25128 0.15792 0.0
H514 H 0.26695 0.2767 0.1286 0.0
H515 H 0.29956 0.36416 0.13247 0.0
H516 H 0.1886 0.43234 0.10929 0.0
H517 H 0.22682 0.40805 0.1218 0.0
H518 H 0.18541 0.31831 0.11556 0.0
C519 C 0.2806 0.28643 0.14604 0.0
C520 C 0.27472 0.35396 0.12849 0.0
C521 C 0.29634 0.27199 0.1627 0.0
C522 C 0.18442 0.41212 0.1019 0.0
C523 C 0.2064 0.39817 0.10896 0.0
C524 C 0.2104 0.32844 0.11832 0.0
C525 C 0.28177 0.31294 0.15223 0.0
C526 C 0.26213 0.32713 0.13638 0.0
C527 C 0.20109 0.3714 0.10087 0.0
C528 C 0.22266 0.35561 0.11112 0.0
H529 H 0.32811 0.31994 0.20961 0.0
H530 H 0.30078 0.34539 0.18025 0.0
H531 H 0.2196 0.29373 0.13685 0.0
H532 H 0.13026 0.36312 0.0661 0.0
H533 H 0.16918 0.33891 0.07763 0.0
C534 C 0.64301 0.26399 0.86068 0.0
C535 C 0.65223 0.28721 0.87653 0.0
C536 C 0.63153 0.23831 0.87201 0.0
C537 C 0.63337 0.20239 0.93621 0.0
H538 H 0.56413 0.14662 0.90316 0.0
C539 C 0.5765 0.10189 0.99011 0.0
C540 C 0.56542 0.07827 0.97503 0.0
C541 C 0.58736 0.12709 0.97781 0.0
C542 C 0.58381 0.16178 0.91255 0.0
H543 H 0.65455 0.30143 0.91665 0.0
H544 H 0.63479 0.25703 0.93621 0.0
H545 H 0.58162 0.19061 0.88193 0.0
H546 H 0.55775 0.06254 0.93523 0.0
H547 H 0.57724 0.10622 0.91381 0.0
H548 H 0.63586 0.17366 0.96669 0.0
C549 C 0.63713 0.2585 0.91512 0.0
C550 C 0.59381 0.18712 0.90033 0.0
C551 C 0.64845 0.28405 0.90383 0.0
C552 C 0.566 0.08038 0.94742 0.0
C553 C 0.57695 0.10552 0.93511 0.0
C554 C 0.6235 0.17706 0.94836 0.0
C555 C 0.62901 0.23518 0.89949 0.0
C556 C 0.61861 0.20786 0.91207 0.0
C557 C 0.58756 0.12935 0.95007 0.0
C558 C 0.59845 0.15635 0.93682 0.0
H559 H 0.64574 0.26557 0.83964 0.0
H560 H 0.62562 0.22084 0.85933 0.0
H561 H 0.65294 0.21764 0.94565 0.0
H562 H 0.5762 0.10097 1.01142 0.0
H563 H 0.59491 0.14487 0.99008 0.0
C564 C 0.97412 0.77744 0.3826 0.0
C565 C 0.94156 0.76508 0.37715 0.0
C566 C 0.98536 0.80227 0.39647 0.0
C567 C 0.95836 0.86087 0.42191 0.0
H568 H 0.03711 0.87607 0.46478 0.0
C569 C 1.00006 0.95311 0.4963 0.0
C570 C 0.03248 0.96713 0.49838 0.0
C571 C 0.98852 0.92869 0.48175 0.0
C572 C 0.0151 0.87245 0.45282 0.0
H573 H 0.89576 0.77113 0.38128 0.0
H574 H 0.91471 0.81276 0.40562 0.0
H575 H 0.01929 0.83497 0.43881 0.0
H576 H 0.0778 0.96571 0.4864 0.0
H577 H 0.05817 0.92389 0.46185 0.0
H578 H 0.95408 0.89826 0.43644 0.0
C579 C 0.93208 0.80379 0.39919 0.0
C580 C 1.00479 0.84858 0.43759 0.0
C581 C 0.92098 0.77927 0.38529 0.0
C582 C 0.05272 0.95569 0.48558 0.0
C583 C 0.04137 0.93134 0.47145 0.0
C584 C 0.96853 0.88459 0.43737 0.0
C585 C 0.96455 0.81591 0.4055 0.0
C586 C 0.97614 0.8421 0.42165 0.0
C587 C 0.00901 0.91721 0.46904 0.0
C588 C 0.99723 0.89105 0.45312 0.0
H589 H 0.991 0.76751 0.37689 0.0
H590 H 0.01057 0.81066 0.40013 0.0
H591 H 0.93654 0.85761 0.40979 0.0
H592 H 0.98352 0.96121 0.50549 0.0
H593 H 0.96345 0.91867 0.48067 0.0
C594 C 0.23786 0.68084 0.64882 0.0
C595 C 0.24261 0.70877 0.64769 0.0
C596 C 0.26347 0.67026 0.64883 0.0
C597 C 0.35035 0.68715 0.65952 0.0
H598 H 0.34105 0.63029 0.60879 0.0
C599 C 0.4563 0.65983 0.62087 0.0
C600 C 0.45282 0.63298 0.61399 0.0
C601 C 0.43084 0.66746 0.62924 0.0
C602 C 0.34396 0.64577 0.62346 0.0
H603 H 0.27762 0.74763 0.64741 0.0
H604 H 0.32258 0.7292 0.64737 0.0
H605 H 0.29623 0.64662 0.616 0.0
H606 H 0.42001 0.59288 0.61166 0.0
H607 H 0.37592 0.60601 0.62706 0.0
H608 H 0.39827 0.6865 0.66674 0.0
C609 C 0.29912 0.71544 0.64815 0.0
C610 C 0.31821 0.65518 0.62754 0.0
C611 C 0.27346 0.726 0.64799 0.0
C612 C 0.42364 0.6137 0.61692 0.0
C613 C 0.3982 0.62131 0.62543 0.0
C614 C 0.37612 0.67762 0.65554 0.0
C615 C 0.29434 0.68743 0.64801 0.0
C616 C 0.3212 0.6762 0.64536 0.0
C617 C 0.40127 0.64839 0.6311 0.0
C618 C 0.37335 0.65705 0.63718 0.0
H619 H 0.21427 0.6672 0.64902 0.0
H620 H 0.25909 0.64861 0.64917 0.0
H621 H 0.35327 0.70316 0.67361 0.0
H622 H 0.47859 0.67513 0.61928 0.0
H623 H 0.43408 0.68852 0.63326 0.0
C624 C 0.731 0.81025 0.79084 0.0
C625 C 0.74681 0.80044 0.81203 0.0
C626 C 0.74677 0.82124 0.76856 0.0
C627 C 0.82701 0.85508 0.7505 0.0
H628 H 0.78877 0.84833 0.67893 0.0
C629 C 0.89635 0.90472 0.6622 0.0
C630 C 0.88077 0.91746 0.64325 0.0
C631 C 0.87981 0.88865 0.68187 0.0
C632 C 0.79965 0.85057 0.69886 0.0
H633 H 0.79113 0.79327 0.82585 0.0
H634 H 0.81835 0.81177 0.78672 0.0
H635 H 0.75989 0.82179 0.7143 0.0
H636 H 0.83567 0.92352 0.63021 0.0
H637 H 0.80677 0.8955 0.66468 0.0
H638 H 0.86653 0.88408 0.73525 0.0
C639 C 0.79392 0.81139 0.78753 0.0
C640 C 0.78315 0.83533 0.71908 0.0
C641 C 0.77817 0.80044 0.8098 0.0
C642 C 0.84825 0.9137 0.64435 0.0
C643 C 0.83169 0.89762 0.66405 0.0
C644 C 0.84347 0.87028 0.73032 0.0
C645 C 0.77868 0.82262 0.76702 0.0
C646 C 0.79662 0.83751 0.74514 0.0
C647 C 0.84732 0.88495 0.68305 0.0
C648 C 0.82994 0.86829 0.7043 0.0
H649 H 0.70673 0.81027 0.79188 0.0
H650 H 0.73439 0.82981 0.75314 0.0
H651 H 0.83779 0.85767 0.77046 0.0
H652 H 0.92127 0.90683 0.66159 0.0
H653 H 0.89243 0.87883 0.69598 0.0
C654 C 0.82691 0.2614 0.29707 0.0
C655 C 0.83347 0.24427 0.31716 0.0
C656 C 0.80624 0.25083 0.27525 0.0
C657 C 0.74311 0.18978 0.2532 0.0
H658 H 0.76848 0.21211 0.1828 0.0
C659 C 0.6992 0.1223 0.16292 0.0
C660 C 0.69067 0.13372 0.13923 0.0
C661 C 0.71292 0.13854 0.18457 0.0
C662 C 0.76082 0.20601 0.20234 0.0
H663 H 0.82268 0.20279 0.3306 0.0
H664 H 0.78746 0.1844 0.29252 0.0
H665 H 0.7996 0.236 0.22116 0.0
H666 H 0.68956 0.171 0.11953 0.0
H667 H 0.7141 0.19965 0.15755 0.0
H668 H 0.70511 0.15913 0.23445 0.0
C669 C 0.79798 0.20598 0.29357 0.0
C670 C 0.77859 0.21968 0.22429 0.0
C671 C 0.81858 0.21649 0.31523 0.0
C672 C 0.69585 0.16173 0.13764 0.0
C673 C 0.70999 0.17808 0.15928 0.0
C674 C 0.72551 0.17607 0.23132 0.0
C675 C 0.79156 0.22298 0.27331 0.0
C676 C 0.77042 0.21119 0.24997 0.0
C677 C 0.71864 0.16659 0.18293 0.0
C678 C 0.73468 0.18357 0.20572 0.0
H679 H 0.83807 0.2829 0.29805 0.0
H680 H 0.80163 0.26443 0.25999 0.0
H681 H 0.73578 0.18316 0.27272 0.0
H682 H 0.6952 0.10074 0.16473 0.0
H683 H 0.71969 0.12917 0.20245 0.0
C684 C 0.48376 0.68045 0.30152 0.0
C685 C 0.45959 0.66693 0.28304 0.0
C686 C 0.48865 0.66859 0.32601 0.0
C687 C 0.45167 0.61328 0.37251 0.0
H688 H 0.53838 0.61982 0.39675 0.0
C689 C 0.48526 0.54521 0.45555 0.0
C690 C 0.512 0.55607 0.47275 0.0
C691 C 0.47766 0.56016 0.43397 0.0
C692 C 0.51401 0.61806 0.3906 0.0
H693 H 0.42055 0.63105 0.27631 0.0
H694 H 0.42901 0.6102 0.31893 0.0
H695 H 0.52707 0.64325 0.35682 0.0
H696 H 0.55122 0.59155 0.48116 0.0
H697 H 0.5378 0.61782 0.44383 0.0
H698 H 0.43863 0.58785 0.4062 0.0
C699 C 0.44428 0.63 0.31464 0.0
C700 C 0.50748 0.63157 0.36756 0.0
C701 C 0.43943 0.64188 0.29014 0.0
C702 C 0.53049 0.58255 0.46826 0.0
C703 C 0.5229 0.59753 0.44667 0.0
C704 C 0.4582 0.59977 0.39558 0.0
C705 C 0.46939 0.64292 0.33276 0.0
C706 C 0.4762 0.62929 0.35804 0.0
C707 C 0.49659 0.58645 0.42895 0.0
C708 C 0.48949 0.6018 0.40492 0.0
H709 H 0.4995 0.69989 0.29671 0.0
H710 H 0.50779 0.67948 0.33956 0.0
H711 H 0.4273 0.61129 0.36612 0.0
H712 H 0.47054 0.52484 0.45838 0.0
H713 H 0.45744 0.55072 0.42074 0.0
C714 C 0.12834 0.34734 0.81418 0.0
C715 C 0.13558 0.36128 0.79011 0.0
C716 C 0.12046 0.35992 0.83628 0.0
C717 C 0.09402 0.42033 0.85561 0.0
H718 H 0.12273 0.40545 0.9266 0.0
C719 C 0.07836 0.48471 0.94493 0.0
C720 C 0.07633 0.47414 0.97087 0.0
C721 C 0.08537 0.47062 0.92371 0.0
C722 C 0.11396 0.40984 0.90708 0.0
H723 H 0.13864 0.39975 0.77111 0.0
H724 H 0.125 0.42115 0.80875 0.0
H725 H 0.13377 0.38159 0.88931 0.0
H726 H 0.08044 0.43951 0.99395 0.0
H727 H 0.09185 0.41483 0.95734 0.0
H728 H 0.0737 0.44809 0.87304 0.0
C729 C 0.12544 0.40045 0.81089 0.0
C730 C 0.12045 0.39594 0.88536 0.0
C731 C 0.13363 0.38806 0.78904 0.0
C732 C 0.08187 0.44873 0.97455 0.0
C733 C 0.08865 0.43446 0.95322 0.0
C734 C 0.08729 0.43403 0.87726 0.0
C735 C 0.11892 0.38688 0.83522 0.0
C736 C 0.11089 0.40099 0.859 0.0
C737 C 0.09044 0.44493 0.9271 0.0
C738 C 0.09729 0.42943 0.90367 0.0
H739 H 0.12963 0.32686 0.81625 0.0
H740 H 0.11541 0.34832 0.85426 0.0
H741 H 0.08543 0.42477 0.83602 0.0
H742 H 0.0745 0.50415 0.94087 0.0
H743 H 0.08708 0.48029 0.90456 0.0
C744 C 0.70648 0.83858 0.90915 0.0
C745 C 0.69286 0.82565 0.88545 0.0
C746 C 0.69481 0.85813 0.91952 0.0
C747 C 0.64478 0.90318 0.90106 0.0
H748 H 0.64475 0.90919 0.97701 0.0
C749 C 0.57495 0.96193 0.95549 0.0
C750 C 0.59189 0.97877 0.97608 0.0
C751 C 0.58884 0.94528 0.94262 0.0
C752 C 0.64493 0.90786 0.95577 0.0
H753 H 0.65621 0.82242 0.85411 0.0
H754 H 0.63473 0.85575 0.87278 0.0
H755 H 0.66448 0.87476 0.95872 0.0
H756 H 0.6369 0.99208 0.99882 0.0
H757 H 0.66091 0.96248 0.97661 0.0
H758 H 0.62385 0.93572 0.89841 0.0
C759 C 0.65505 0.85151 0.88301 0.0
C760 C 0.65631 0.88822 0.94524 0.0
C761 C 0.66711 0.83227 0.87241 0.0
C762 C 0.6233 0.97935 0.98297 0.0
C763 C 0.63699 0.96237 0.9704 0.0
C764 C 0.63287 0.92254 0.91163 0.0
C765 C 0.6689 0.86484 0.90662 0.0
C766 C 0.6565 0.88566 0.91775 0.0
C767 C 0.61969 0.94491 0.95044 0.0
C768 C 0.63299 0.92507 0.93906 0.0
H769 H 0.72671 0.83407 0.9193 0.0
H770 H 0.70653 0.86832 0.93741 0.0
H771 H 0.64507 0.90216 0.87983 0.0
H772 H 0.55073 0.96116 0.9497 0.0
H773 H 0.57505 0.93188 0.92732 0.0
C774 C 0.934 0.2228 0.37325 0.0
C775 C 0.91212 0.23111 0.38701 0.0
C776 C 0.94773 0.20351 0.38427 0.0
C777 C 0.93002 0.14442 0.42376 0.0
H778 H 0.01872 0.15831 0.44561 0.0
C779 C 0.97478 0.07213 0.49273 0.0
C780 C 1.00561 0.07043 0.49141 0.0
C781 C 0.96403 0.09054 0.47699 0.0
C782 C 0.994 0.15381 0.43909 0.0
H783 H 0.88741 0.22604 0.42286 0.0
H784 H 0.91086 0.19181 0.4418 0.0
H785 H 0.99984 0.19381 0.42379 0.0
H786 H 0.04887 0.08568 0.47158 0.0
H787 H 0.02966 0.117 0.44321 0.0
H788 H 0.92386 0.10441 0.43827 0.0
C789 C 0.91772 0.20055 0.42278 0.0
C790 C 0.98326 0.17425 0.42679 0.0
C791 C 0.90455 0.2202 0.41206 0.0
C792 C 0.02504 0.08669 0.47318 0.0
C793 C 0.01409 0.10481 0.45707 0.0
C794 C 0.94079 0.12383 0.43553 0.0
C795 C 0.9391 0.19187 0.40884 0.0
C796 C 0.95111 0.16982 0.41959 0.0
C797 C 0.98365 0.10739 0.45916 0.0
C798 C 0.97281 0.12841 0.44396 0.0
H799 H 0.94001 0.23088 0.35384 0.0
H800 H 0.96417 0.19697 0.37324 0.0
H801 H 0.90513 0.14058 0.41805 0.0
H802 H 0.95932 0.06009 0.50677 0.0
H803 H 0.94069 0.0922 0.47964 0.0
C804 C 0.33078 0.65438 0.18903 0.0
C805 C 0.35717 0.6693 0.17595 0.0
C806 C 0.30417 0.63794 0.17479 0.0
C807 C 0.26444 0.62967 0.10745 0.0
H808 H 0.21632 0.56022 0.13336 0.0
C809 C 0.16071 0.56195 0.04346 0.0
C810 C 0.13319 0.54911 0.05604 0.0
C811 C 0.18887 0.57424 0.05826 0.0
C812 C 0.22932 0.57968 0.12593 0.0
H813 H 0.37671 0.67742 0.13769 0.0
H814 H 0.33058 0.64893 0.11301 0.0
H815 H 0.26354 0.58628 0.15904 0.0
H816 H 0.11391 0.53806 0.09404 0.0
H817 H 0.16291 0.55973 0.11993 0.0
H818 H 0.23022 0.62341 0.07459 0.0
C819 C 0.33006 0.65036 0.1342 0.0
C820 C 0.25643 0.59464 0.14068 0.0
C821 C 0.35658 0.66673 0.14839 0.0
C822 C 0.13476 0.54779 0.08376 0.0
C823 C 0.16292 0.56017 0.09861 0.0
C824 C 0.2374 0.61479 0.09277 0.0
C825 C 0.3033 0.63601 0.14712 0.0
C826 C 0.2744 0.61983 0.13159 0.0
C827 C 0.19021 0.5741 0.08605 0.0
C828 C 0.21944 0.58954 0.10172 0.0
H829 H 0.33027 0.65602 0.21019 0.0
H830 H 0.28392 0.62738 0.1854 0.0
H831 H 0.27724 0.64921 0.10005 0.0
H832 H 0.16031 0.56311 0.02212 0.0
H833 H 0.20952 0.5842 0.04786 0.0
C834 C 0.27193 0.3767 0.68415 0.0
C835 C 0.2609 0.39092 0.7027 0.0
C836 C 0.29483 0.39023 0.66689 0.0
C837 C 0.35768 0.45592 0.65917 0.0
H838 H 0.36093 0.42808 0.58971 0.0
C839 C 0.45252 0.51216 0.58704 0.0
C840 C 0.46567 0.49646 0.57166 0.0
C841 C 0.42641 0.50017 0.6019 0.0
C842 C 0.36071 0.43608 0.60915 0.0
H843 H 0.26437 0.43079 0.71657 0.0
H844 H 0.30362 0.45452 0.68619 0.0
H845 H 0.31757 0.40607 0.61668 0.0
H846 H 0.4608 0.45546 0.55995 0.0
H847 H 0.41578 0.43475 0.58562 0.0
H848 H 0.4009 0.4859 0.65161 0.0
C849 C 0.29527 0.43277 0.68533 0.0
C850 C 0.33564 0.42335 0.62476 0.0
C851 C 0.27237 0.41919 0.70261 0.0
C852 C 0.45147 0.4684 0.57136 0.0
C853 C 0.42535 0.45643 0.5861 0.0
C854 C 0.38272 0.46869 0.64352 0.0
C855 C 0.30744 0.41852 0.66746 0.0
C856 C 0.3337 0.43288 0.65018 0.0
C857 C 0.4124 0.47203 0.60182 0.0
C858 C 0.38488 0.45892 0.61827 0.0
H859 H 0.26372 0.35492 0.68369 0.0
H860 H 0.30348 0.37828 0.65377 0.0
H861 H 0.35767 0.4638 0.6787 0.0
H862 H 0.46256 0.53379 0.58786 0.0
H863 H 0.4171 0.51307 0.61336 0.0
C864 C 0.74664 0.71636 0.93842 0.0
C865 C 0.7314 0.70696 0.91382 0.0
C866 C 0.76668 0.70322 0.95167 0.0
C867 C 0.78915 0.64058 0.95682 0.0
H868 H 0.8743 0.68718 0.97006 0.0
C869 C 0.8961 0.5991 0.97004 0.0
C870 C 0.92276 0.61314 0.98582 0.0
C871 C 0.87043 0.60943 0.96558 0.0
C872 C 0.85057 0.67387 0.96716 0.0
H873 H 0.72347 0.67569 0.88449 0.0
H874 H 0.75811 0.65228 0.908 0.0
H875 H 0.8322 0.70656 0.95527 0.0
H876 H 0.94319 0.64828 1.01026 0.0
H877 H 0.89783 0.66599 1.00334 0.0
H878 H 0.80733 0.60785 0.96879 0.0
C879 C 0.75468 0.6699 0.91689 0.0
C880 C 0.82647 0.68503 0.95857 0.0
C881 C 0.73499 0.68329 0.90343 0.0
C882 C 0.92296 0.63727 0.99778 0.0
C883 C 0.89704 0.64741 0.99369 0.0
C884 C 0.81316 0.62942 0.96586 0.0
C885 C 0.77134 0.6802 0.94075 0.0
C886 C 0.79572 0.66844 0.9528 0.0
C887 C 0.87065 0.63386 0.97714 0.0
C888 C 0.84435 0.64587 0.97054 0.0
H889 H 0.74406 0.73456 0.94679 0.0
H890 H 0.77915 0.71142 0.97013 0.0
H891 H 0.76551 0.62744 0.95269 0.0
H892 H 0.89558 0.58058 0.96036 0.0
H893 H 0.85092 0.59867 0.95229 0.0
C894 C 0.45123 0.78225 0.19519 0.0
C895 C 0.44086 0.75842 0.18028 0.0
C896 C 0.46315 0.80734 0.18286 0.0
C897 C 0.49478 0.83897 0.11958 0.0
H898 H 0.47297 0.90082 0.14458 0.0
C899 C 0.52007 0.93978 0.06086 0.0
C900 C 0.53168 0.96365 0.07552 0.0
C901 C 0.50874 0.91487 0.07362 0.0
C902 C 0.47956 0.88384 0.13744 0.0
H903 H 0.43635 0.74253 0.14061 0.0
H904 H 0.45623 0.7859 0.11924 0.0
H905 H 0.45514 0.85764 0.16716 0.0
H906 H 0.53994 0.98011 0.11504 0.0
H907 H 0.52027 0.93689 0.13726 0.0
H908 H 0.51899 0.86516 0.08973 0.0
C909 C 0.45543 0.78538 0.1405 0.0
C910 C 0.46938 0.859 0.1505 0.0
C911 C 0.44358 0.76039 0.1528 0.0
C912 C 0.53113 0.9621 0.10316 0.0
C913 C 0.51968 0.93728 0.1159 0.0
C914 C 0.50484 0.86378 0.10647 0.0
C915 C 0.46516 0.80932 0.15526 0.0
C916 C 0.47677 0.83612 0.14176 0.0
C917 C 0.50856 0.91323 0.10137 0.0
C918 C 0.49738 0.88661 0.11518 0.0
H919 H 0.44939 0.78164 0.21635 0.0
H920 H 0.47081 0.8252 0.19502 0.0
H921 H 0.50151 0.82207 0.11244 0.0
H922 H 0.52019 0.94028 0.03953 0.0
H923 H 0.50002 0.89689 0.06171 0.0
C924 C 0.15366 0.26856 0.7193 0.0
C925 C 0.13288 0.28353 0.72487 0.0
C926 C 0.14319 0.2439 0.7055 0.0
C927 C 0.06931 0.18977 0.6792 0.0
H928 H 0.12926 0.16895 0.63893 0.0
C929 C 0.03428 0.08463 0.6268 0.0
C930 C 0.04856 0.08058 0.60393 0.0
C931 C 0.04484 0.1088 0.64136 0.0
C932 C 0.11183 0.17427 0.64974 0.0
H933 H 0.084 0.28319 0.71997 0.0
H934 H 0.06563 0.24062 0.69569 0.0
H935 H 0.14561 0.21077 0.66352 0.0
H936 H 0.08573 0.10003 0.57878 0.0
H937 H 0.10396 0.14225 0.60358 0.0
H938 H 0.03517 0.1539 0.66447 0.0
C939 C 0.09029 0.24763 0.70243 0.0
C940 C 0.12149 0.19848 0.66449 0.0
C941 C 0.10081 0.2723 0.71658 0.0
C942 C 0.07424 0.10188 0.59633 0.0
C943 C 0.08473 0.12636 0.61082 0.0
C944 C 0.05959 0.16567 0.66429 0.0
C945 C 0.11133 0.23296 0.69614 0.0
C946 C 0.10058 0.20684 0.67982 0.0
C947 C 0.07009 0.13055 0.63365 0.0
C948 C 0.08062 0.1571 0.64929 0.0
H949 H 0.17852 0.27624 0.72531 0.0
H950 H 0.16046 0.2335 0.70218 0.0
H951 H 0.05207 0.19472 0.69055 0.0
H952 H 0.01449 0.06891 0.63356 0.0
H953 H 0.03302 0.11016 0.65892 0.0
C954 C 0.80423 0.31851 0.39269 0.0
C955 C 0.82846 0.32007 0.41247 0.0
C956 C 0.78457 0.33519 0.39351 0.0
C957 C 0.77642 0.39613 0.42602 0.0
H958 H 0.68687 0.36056 0.41471 0.0
C959 C 0.68172 0.43289 0.47158 0.0
C960 C 0.65318 0.43106 0.45673 0.0
C961 C 0.70445 0.42263 0.46179 0.0
C962 C 0.7118 0.37096 0.41746 0.0
H963 H 0.85208 0.34077 0.44804 0.0
H964 H 0.8175 0.36957 0.44987 0.0
H965 H 0.72465 0.33666 0.40527 0.0
H966 H 0.62672 0.41786 0.41945 0.0
H967 H 0.66637 0.3995 0.40252 0.0
H968 H 0.76339 0.43008 0.4392 0.0
C969 C 0.81382 0.35581 0.43347 0.0
C970 C 0.73349 0.35727 0.41202 0.0
C971 C 0.83349 0.3392 0.43258 0.0
C972 C 0.64823 0.41921 0.43157 0.0
C973 C 0.67094 0.40878 0.42183 0.0
C974 C 0.75472 0.40977 0.43156 0.0
C975 C 0.7888 0.35371 0.41419 0.0
C976 C 0.76605 0.36948 0.41681 0.0
C977 C 0.69915 0.41015 0.43697 0.0
C978 C 0.72218 0.3971 0.42791 0.0
H979 H 0.80007 0.30393 0.37695 0.0
H980 H 0.7658 0.33332 0.37817 0.0
H981 H 0.80134 0.4063 0.42943 0.0
H982 H 0.68613 0.44142 0.49122 0.0
H983 H 0.72571 0.42356 0.47413 0.0
loop_
_geom_bond_atom_site_label_1
_geom_bond_atom_site_label_2
_geom_bond_distance
_geom_bond_site_symmetry_2
_ccdc_geom_bond_type
H0 C7 0.929 . S
H1 C10 0.930 . S
H2 C12 0.929 . S
H3 C4 0.969 . S
C4 H3 0.969 . S
C4 O5 1.550 . S
C4 H6 0.973 . S
O5 C4 1.550 . S
O5 C11 1.412 . S
H6 C4 0.973 . S
C7 H0 0.929 . S
C7 C8 1.400 . S
C7 C9 1.364 . S
C8 C7 1.400 . S
C8 C12 1.377 . S
C9 C7 1.364 . S
C9 C10 1.374 . S
C10 H1 0.930 . S
C10 C9 1.374 . S
C10 C11 1.383 . S
C11 O5 1.412 . S
C11 C10 1.383 . S
C11 C12 1.394 . S
C12 H2 0.929 . S
C12 C8 1.377 . S
C12 C11 1.394 . S
H13 C20 0.929 . S
H14 C23 0.930 . S
H15 C25 0.929 . S
H16 C17 0.969 . S
C17 H16 0.969 . S
C17 O18 1.550 . S
C17 H19 0.973 . S
O18 C17 1.550 . S
O18 C24 1.412 . S
H19 C17 0.973 . S
C20 H13 0.929 . S
C20 C21 1.400 . S
C20 C22 1.364 . S
C21 C20 1.400 . S
C21 C25 1.377 . S
C22 C20 1.364 . S
C22 C23 1.374 . S
C23 H14 0.930 . S
C23 C22 1.374 . S
C23 C24 1.383 . S
C24 O18 1.412 . S
C24 C23 1.383 . S
C24 C25 1.394 . S
C25 H15 0.929 . S
C25 C21 1.377 . S
C25 C24 1.394 . S
H26 C33 0.929 . S
H27 C36 0.930 . S
H28 C38 0.929 . S
H29 C30 0.969 . S
C30 H29 0.969 . S
C30 O31 1.550 . S
C30 H32 0.973 . S
O31 C30 1.550 . S
O31 C37 1.412 . S
H32 C30 0.973 . S
C33 H26 0.929 . S
C33 C34 1.400 . S
C33 C35 1.364 . S
C34 C33 1.400 . S
C34 C38 1.377 . S
C35 C33 1.364 . S
C35 C36 1.374 . S
C36 H27 0.930 . S
C36 C35 1.374 . S
C36 C37 1.383 . S
C37 O31 1.412 . S
C37 C36 1.383 . S
C37 C38 1.394 . S
C38 H28 0.929 . S
C38 C34 1.377 . S
C38 C37 1.394 . S
H39 C46 0.929 . S
H40 C49 0.930 . S
H41 C51 0.929 . S
H42 C43 0.969 . S
C43 H42 0.969 . S
C43 O44 1.550 . S
C43 H45 0.973 . S
O44 C43 1.550 . S
O44 C50 1.412 . S
H45 C43 0.973 . S
C46 H39 0.929 . S
C46 C47 1.400 . S
C46 C48 1.364 . S
C47 C46 1.400 . S
C47 C51 1.377 . S
C48 C46 1.364 . S
C48 C49 1.374 . S
C49 H40 0.930 . S
C49 C48 1.374 . S
C49 C50 1.383 . S
C50 O44 1.412 . S
C50 C49 1.383 . S
C50 C51 1.394 . S
C51 H41 0.929 . S
C51 C47 1.377 . S
C51 C50 1.394 . S
H52 C59 0.929 . S
H53 C62 0.930 . S
H54 C64 0.929 . S
H55 C56 0.969 . S
C56 H55 0.969 . S
C56 O57 1.550 . S
C56 H58 0.973 . S
O57 C56 1.550 . S
O57 C63 1.412 . S
H58 C56 0.973 . S
C59 H52 0.929 . S
C59 C60 1.400 . S
C59 C61 1.364 . S
C60 C59 1.400 . S
C60 C64 1.377 . S
C61 C59 1.364 . S
C61 C62 1.374 . S
C62 H53 0.930 . S
C62 C61 1.374 . S
C62 C63 1.383 . S
C63 O57 1.412 . S
C63 C62 1.383 . S
C63 C64 1.394 . S
C64 H54 0.929 . S
C64 C60 1.377 . S
C64 C63 1.394 . S
H65 C72 0.929 . S
H66 C75 0.930 . S
H67 C77 0.929 . S
H68 C69 0.969 . S
C69 H68 0.969 . S
C69 O70 1.550 . S
C69 H71 0.973 . S
O70 C69 1.550 . S
O70 C76 1.412 . S
H71 C69 0.973 . S
C72 H65 0.929 . S
C72 C73 1.400 . S
C72 C74 1.364 . S
C73 C72 1.400 . S
C73 C77 1.377 . S
C74 C72 1.364 . S
C74 C75 1.374 . S
C75 H66 0.930 . S
C75 C74 1.374 . S
C75 C76 1.383 . S
C76 O70 1.412 . S
C76 C75 1.383 . S
C76 C77 1.394 . S
C77 H67 0.929 . S
C77 C73 1.377 . S
C77 C76 1.394 . S
H78 C85 0.929 . S
H79 C88 0.930 . S
H80 C90 0.929 . S
H81 C82 0.969 . S
C82 H81 0.969 . S
C82 O83 1.550 . S
C82 H84 0.973 . S
O83 C82 1.550 . S
O83 C89 1.412 . S
H84 C82 0.973 . S
C85 H78 0.929 . S
C85 C86 1.400 . S
C85 C87 1.364 . S
C86 C85 1.400 . S
C86 C90 1.377 . S
C87 C85 1.364 . S
C87 C88 1.374 . S
C88 H79 0.930 . S
C88 C87 1.374 . S
C88 C89 1.383 . S
C89 O83 1.412 . S
C89 C88 1.383 . S
C89 C90 1.394 . S
C90 H80 0.929 . S
C90 C86 1.377 . S
C90 C89 1.394 . S
H91 C98 0.929 . S
H92 C101 0.930 . S
H93 C103 0.929 . S
H94 C95 0.969 . S
C95 H94 0.969 . S
C95 O96 1.550 . S
C95 H97 0.973 . S
O96 C95 1.550 . S
O96 C102 1.412 . S
H97 C95 0.973 . S
C98 H91 0.929 . S
C98 C99 1.400 . S
C98 C100 1.364 . S
C99 C98 1.400 . S
C99 C103 1.377 . S
C100 C98 1.364 . S
C100 C101 1.374 . S
C101 H92 0.930 . S
C101 C100 1.374 . S
C101 C102 1.383 . S
C102 O96 1.412 . S
C102 C101 1.383 . S
C102 C103 1.394 . S
C103 H93 0.929 . S
C103 C99 1.377 . S
C103 C102 1.394 . S
Tb104 C106 2.809 1_545 S
Tb104 O124 2.484 1_545 S
Tb104 O125 2.440 . S
Tb104 O126 2.658 1_655 S
Tb104 O127 2.409 1_655 S
Tb104 O128 2.378 1_645 S
Tb104 O132 2.325 1_545 S
Tb104 O135 2.341 . S
Tb105 C115 2.809 . S
Tb105 O126 2.325 . S
Tb105 O129 2.341 1_545 S
Tb105 O130 2.484 . S
Tb105 O131 2.440 . S
Tb105 O132 2.658 1_445 S
Tb105 O133 2.409 1_545 S
Tb105 O134 2.378 . S
C106 Tb104 2.809 1_565 S
C106 C107 1.514 . S
C106 O124 1.248 . S
C106 O125 1.266 1_565 S
C107 C106 1.514 . S
C107 C108 1.359 . S
C107 C112 1.348 . S
C108 C107 1.359 . S
C108 C109 1.380 . S
C108 H136 0.929 . S
C109 C108 1.380 . S
C109 C110 1.347 . S
C109 H137 0.931 . S
C110 C109 1.347 . S
C110 C111 1.369 . S
C111 C110 1.369 . S
C111 C112 1.408 . S
C111 H138 0.930 . S
C112 C107 1.348 . S
C112 C111 1.408 . S
C112 H139 0.930 . S
C113 O126 1.281 . S
C113 O127 1.254 . S
C114 O128 1.236 . S
C114 O129 1.266 . S
C115 Tb105 2.809 . S
C115 C116 1.514 . S
C115 O130 1.248 . S
C115 O131 1.266 . S
C116 C115 1.514 . S
C116 C117 1.359 . S
C116 C121 1.348 . S
C117 C116 1.359 . S
C117 C118 1.380 . S
C117 H140 0.929 . S
C118 C117 1.380 . S
C118 C119 1.347 . S
C118 H141 0.931 . S
C119 C118 1.347 . S
C119 C120 1.369 . S
C120 C119 1.369 . S
C120 C121 1.408 . S
C120 H142 0.930 . S
C121 C116 1.348 . S
C121 C120 1.408 . S
C121 H143 0.930 . S
C122 O132 1.281 . S
C122 O133 1.254 1_655 S
C123 O134 1.236 1_655 S
C123 O135 1.266 . S
O124 Tb104 2.484 1_565 S
O124 C106 1.248 . S
O125 Tb104 2.440 . S
O125 C106 1.266 1_545 S
O126 Tb104 2.658 1_455 S
O126 Tb105 2.325 . S
O126 C113 1.281 . S
O127 Tb104 2.409 1_455 S
O127 C113 1.254 . S
O128 Tb104 2.378 1_465 S
O128 C114 1.236 . S
O129 Tb105 2.341 1_565 S
O129 C114 1.266 . S
O130 Tb105 2.484 . S
O130 C115 1.248 . S
O131 Tb105 2.440 . S
O131 C115 1.266 . S
O132 Tb104 2.325 1_565 S
O132 Tb105 2.658 1_665 S
O132 C122 1.281 . S
O133 Tb105 2.409 1_565 S
O133 C122 1.254 1_455 S
O134 Tb105 2.378 . S
O134 C123 1.236 1_455 S
O135 Tb104 2.341 . S
O135 C123 1.266 . S
H136 C108 0.929 . S
H137 C109 0.931 . S
H138 C111 0.930 . S
H139 C112 0.930 . S
H140 C117 0.929 . S
H141 C118 0.931 . S
H142 C120 0.930 . S
H143 C121 0.930 . S
Tb144 C146 2.809 . S
Tb144 O164 2.484 . S
Tb144 O165 2.440 . S
Tb144 O166 2.658 1_545 S
Tb144 O167 2.409 1_545 S
Tb144 O168 2.378 . S
Tb144 O172 2.322 1_554 S
Tb144 O175 2.341 1_545 S
Tb145 C155 2.809 1_545 S
Tb145 O166 2.325 1_546 S
Tb145 O169 2.341 1_556 S
Tb145 O170 2.484 1_545 S
Tb145 O171 2.440 1_545 S
Tb145 O172 2.659 . S
Tb145 O173 2.409 . S
Tb145 O174 2.378 1_545 S
C146 Tb144 2.809 . S
C146 C147 1.514 . S
C146 O164 1.248 . S
C146 O165 1.266 . S
C147 C146 1.514 . S
C147 C148 1.359 . S
C147 C152 1.348 . S
C148 C147 1.359 . S
C148 C149 1.380 . S
C148 H176 0.929 . S
C149 C148 1.380 . S
C149 C150 1.347 . S
C149 H177 0.931 . S
C150 C149 1.347 . S
C150 C151 1.369 . S
C151 C150 1.369 . S
C151 C152 1.408 . S
C151 H178 0.930 . S
C152 C147 1.348 . S
C152 C151 1.408 . S
C152 H179 0.930 . S
C153 O166 1.281 . S
C153 O167 1.254 . S
C154 O168 1.236 . S
C154 O169 1.266 . S
C155 Tb145 2.809 1_565 S
C155 C156 1.514 . S
C155 O170 1.248 . S
C155 O171 1.266 . S
C156 C155 1.514 . S
C156 C157 1.359 . S
C156 C161 1.348 . S
C157 C156 1.359 . S
C157 C158 1.380 . S
C157 H180 0.929 . S
C158 C157 1.380 . S
C158 C159 1.347 . S
C158 H181 0.931 . S
C159 C158 1.347 . S
C159 C160 1.369 . S
C160 C159 1.369 . S
C160 C161 1.408 . S
C160 H182 0.930 . S
C161 C156 1.348 . S
C161 C160 1.408 . S
C161 H183 0.930 . S
C162 O172 1.284 . S
C162 O173 1.254 . S
C163 O174 1.236 . S
C163 O175 1.266 1_556 S
O164 Tb144 2.484 . S
O164 C146 1.248 . S
O165 Tb144 2.440 . S
O165 C146 1.266 . S
O166 Tb144 2.658 1_565 S
O166 Tb145 2.325 1_564 S
O166 C153 1.281 . S
O167 Tb144 2.409 1_565 S
O167 C153 1.254 . S
O168 Tb144 2.378 . S
O168 C154 1.236 . S
O169 Tb145 2.341 1_554 S
O169 C154 1.266 . S
O170 Tb145 2.484 1_565 S
O170 C155 1.248 . S
O171 Tb145 2.440 1_565 S
O171 C155 1.266 . S
O172 Tb144 2.322 1_556 S
O172 Tb145 2.659 . S
O172 C162 1.284 . S
O173 Tb145 2.409 . S
O173 C162 1.254 . S
O174 Tb145 2.378 1_565 S
O174 C163 1.236 . S
O175 Tb144 2.341 1_565 S
O175 C163 1.266 1_554 S
H176 C148 0.929 . S
H177 C149 0.931 . S
H178 C151 0.930 . S
H179 C152 0.930 . S
H180 C157 0.929 . S
H181 C158 0.931 . S
H182 C160 0.930 . S
H183 C161 0.930 . S
Tb184 C186 2.809 . S
Tb184 O204 2.484 . S
Tb184 O205 2.440 . S
Tb184 O206 2.658 . S
Tb184 O207 2.409 . S
Tb184 O208 2.378 . S
Tb184 O212 2.325 . S
Tb184 O215 2.341 . S
Tb185 C195 2.809 . S
Tb185 O206 2.325 . S
Tb185 O209 2.341 . S
Tb185 O210 2.484 . S
Tb185 O211 2.440 . S
Tb185 O212 2.658 . S
Tb185 O213 2.409 . S
Tb185 O214 2.378 . S
C186 Tb184 2.809 . S
C186 C187 1.514 . S
C186 O204 1.248 . S
C186 O205 1.266 . S
C187 C186 1.514 . S
C187 C188 1.359 . S
C187 C192 1.348 . S
C188 C187 1.359 . S
C188 C189 1.380 . S
C188 H216 0.929 . S
C189 C188 1.380 . S
C189 C190 1.347 . S
C189 H217 0.931 . S
C190 C189 1.347 . S
C190 C191 1.369 . S
C191 C190 1.369 . S
C191 C192 1.408 . S
C191 H218 0.930 . S
C192 C187 1.348 . S
C192 C191 1.408 . S
C192 H219 0.930 . S
C193 O206 1.281 . S
C193 O207 1.254 . S
C194 O208 1.236 . S
C194 O209 1.266 . S
C195 Tb185 2.809 . S
C195 C196 1.514 . S
C195 O210 1.248 . S
C195 O211 1.266 . S
C196 C195 1.514 . S
C196 C197 1.359 . S
C196 C201 1.348 . S
C197 C196 1.359 . S
C197 C198 1.380 . S
C197 H220 0.929 . S
C198 C197 1.380 . S
C198 C199 1.347 . S
C198 H221 0.931 . S
C199 C198 1.347 . S
C199 C200 1.369 . S
C200 C199 1.369 . S
C200 C201 1.408 . S
C200 H222 0.930 . S
C201 C196 1.348 . S
C201 C200 1.408 . S
C201 H223 0.930 . S
C202 O212 1.281 . S
C202 O213 1.254 . S
C203 O214 1.236 . S
C203 O215 1.266 . S
O204 Tb184 2.484 . S
O204 C186 1.248 . S
O205 Tb184 2.440 . S
O205 C186 1.266 . S
O206 Tb184 2.658 . S
O206 Tb185 2.325 . S
O206 C193 1.281 . S
O207 Tb184 2.409 . S
O207 C193 1.254 . S
O208 Tb184 2.378 . S
O208 C194 1.236 . S
O209 Tb185 2.341 . S
O209 C194 1.266 . S
O210 Tb185 2.484 . S
O210 C195 1.248 . S
O211 Tb185 2.440 . S
O211 C195 1.266 . S
O212 Tb184 2.325 . S
O212 Tb185 2.658 . S
O212 C202 1.281 . S
O213 Tb185 2.409 . S
O213 C202 1.254 . S
O214 Tb185 2.378 . S
O214 C203 1.236 . S
O215 Tb184 2.341 . S
O215 C203 1.266 . S
H216 C188 0.929 . S
H217 C189 0.931 . S
H218 C191 0.930 . S
H219 C192 0.930 . S
H220 C197 0.929 . S
H221 C198 0.931 . S
H222 C200 0.930 . S
H223 C201 0.930 . S
Tb224 C226 2.809 1_455 S
Tb224 O244 2.484 1_455 S
Tb224 O245 2.440 . S
Tb224 O246 2.658 . S
Tb224 O247 2.409 . S
Tb224 O248 2.378 . S
Tb224 O252 2.325 1_455 S
Tb224 O255 2.341 . S
Tb225 C235 2.809 . S
Tb225 O246 2.325 . S
Tb225 O249 2.341 1_455 S
Tb225 O250 2.484 . S
Tb225 O251 2.440 . S
Tb225 O252 2.658 1_455 S
Tb225 O253 2.409 1_455 S
Tb225 O254 2.378 . S
C226 Tb224 2.809 1_655 S
C226 C227 1.514 . S
C226 O244 1.248 . S
C226 O245 1.266 1_655 S
C227 C226 1.514 . S
C227 C228 1.359 . S
C227 C232 1.348 . S
C228 C227 1.359 . S
C228 C229 1.380 1_554 S
C228 H256 0.929 . S
C229 C228 1.380 1_556 S
C229 C230 1.348 . S
C229 H257 0.931 . S
C230 C229 1.348 . S
C230 C231 1.365 1_556 S
C231 C230 1.365 1_554 S
C231 C232 1.408 . S
C231 H258 0.930 . S
C232 C227 1.348 . S
C232 C231 1.408 . S
C232 H259 0.930 1_655 S
C233 O246 1.281 . S
C233 O247 1.254 . S
C234 O248 1.236 1_655 S
C234 O249 1.266 . S
C235 Tb225 2.809 . S
C235 C236 1.514 . S
C235 O250 1.248 . S
C235 O251 1.266 . S
C236 C235 1.514 . S
C236 C237 1.359 . S
C236 C241 1.348 . S
C237 C236 1.359 . S
C237 C238 1.380 . S
C237 H260 0.929 . S
C238 C237 1.380 . S
C238 C239 1.347 . S
C238 H261 0.931 . S
C239 C238 1.347 . S
C239 C240 1.369 . S
C240 C239 1.369 . S
C240 C241 1.408 . S
C240 H262 0.930 . S
C241 C236 1.348 . S
C241 C240 1.408 . S
C241 H263 0.930 . S
C242 O252 1.281 . S
C242 O253 1.254 . S
C243 O254 1.236 . S
C243 O255 1.266 . S
O244 Tb224 2.484 1_655 S
O244 C226 1.248 . S
O245 Tb224 2.440 . S
O245 C226 1.266 1_455 S
O246 Tb224 2.658 . S
O246 Tb225 2.325 . S
O246 C233 1.281 . S
O247 Tb224 2.409 . S
O247 C233 1.254 . S
O248 Tb224 2.378 . S
O248 C234 1.236 1_455 S
O249 Tb225 2.341 1_655 S
O249 C234 1.266 . S
O250 Tb225 2.484 . S
O250 C235 1.248 . S
O251 Tb225 2.440 . S
O251 C235 1.266 . S
O252 Tb224 2.325 1_655 S
O252 Tb225 2.658 1_655 S
O252 C242 1.281 . S
O253 Tb225 2.409 1_655 S
O253 C242 1.254 . S
O254 Tb225 2.378 . S
O254 C243 1.236 . S
O255 Tb224 2.341 . S
O255 C243 1.266 . S
H256 C228 0.929 . S
H257 C229 0.931 . S
H258 C231 0.930 . S
H259 C232 0.930 1_455 S
H260 C237 0.929 . S
H261 C238 0.931 . S
H262 C240 0.930 . S
H263 C241 0.930 . S
C264 C265 1.349 . S
C264 C266 1.327 . S
C264 H289 0.950 . S
C265 C264 1.349 . S
C265 C281 1.349 . S
C266 C264 1.327 . S
C266 C285 1.429 . S
C266 H290 0.950 . S
C267 C284 1.574 . S
C267 C286 1.368 . S
C267 H291 0.949 . S
H268 C272 0.949 . S
C269 C270 1.349 . S
C269 C271 1.327 . S
C269 H292 0.950 . S
C270 C269 1.349 . S
C270 C282 1.349 . S
C271 C269 1.327 . S
C271 C287 1.429 . S
C271 H293 0.950 . S
C272 H268 0.949 . S
C272 C280 1.574 . S
C272 C288 1.368 . S
H273 C281 0.950 . S
H274 C279 0.950 . S
H275 C280 0.949 . S
H276 C282 0.950 . S
H277 C283 0.950 . S
H278 C284 0.949 . S
C279 H274 0.950 . S
C279 C281 1.327 . S
C279 C285 1.429 . S
C280 C272 1.574 . S
C280 H275 0.949 . S
C280 C286 1.368 . S
C281 C265 1.349 . S
C281 H273 0.950 . S
C281 C279 1.327 . S
C282 C270 1.349 . S
C282 H276 0.950 . S
C282 C283 1.327 . S
C283 H277 0.950 . S
C283 C282 1.327 . S
C283 C287 1.429 . S
C284 C267 1.574 . S
C284 H278 0.949 . S
C284 C288 1.368 . S
C285 C266 1.429 . S
C285 C279 1.429 . S
C285 C286 1.523 . S
C286 C267 1.368 . S
C286 C280 1.368 . S
C286 C285 1.523 . S
C287 C271 1.429 . S
C287 C283 1.429 . S
C287 C288 1.523 . S
C288 C272 1.368 . S
C288 C284 1.368 . S
C288 C287 1.523 . S
H289 C264 0.950 . S
H290 C266 0.950 . S
H291 C267 0.949 . S
H292 C269 0.950 . S
H293 C271 0.950 . S
C294 C295 1.349 . S
C294 C296 1.327 . S
C294 H319 0.950 . S
C295 C294 1.349 . S
C295 C311 1.349 . S
C296 C294 1.327 . S
C296 C315 1.429 . S
C296 H320 0.950 . S
C297 C314 1.574 . S
C297 C316 1.368 . S
C297 H321 0.949 . S
H298 C302 0.949 . S
C299 C300 1.349 . S
C299 C301 1.327 . S
C299 H322 0.950 . S
C300 C299 1.349 . S
C300 C312 1.349 . S
C301 C299 1.327 . S
C301 C317 1.429 . S
C301 H323 0.950 . S
C302 H298 0.949 . S
C302 C310 1.574 . S
C302 C318 1.368 . S
H303 C311 0.950 . S
H304 C309 0.950 . S
H305 C310 0.949 . S
H306 C312 0.950 . S
H307 C313 0.950 . S
H308 C314 0.949 . S
C309 H304 0.950 . S
C309 C311 1.327 . S
C309 C315 1.429 . S
C310 C302 1.574 . S
C310 H305 0.949 . S
C310 C316 1.368 . S
C311 C295 1.349 . S
C311 H303 0.950 . S
C311 C309 1.327 . S
C312 C300 1.349 . S
C312 H306 0.950 . S
C312 C313 1.327 . S
C313 H307 0.950 . S
C313 C312 1.327 . S
C313 C317 1.429 . S
C314 C297 1.574 . S
C314 H308 0.949 . S
C314 C318 1.368 . S
C315 C296 1.429 . S
C315 C309 1.429 . S
C315 C316 1.523 . S
C316 C297 1.368 . S
C316 C310 1.368 . S
C316 C315 1.523 . S
C317 C301 1.429 . S
C317 C313 1.429 . S
C317 C318 1.523 . S
C318 C302 1.368 . S
C318 C314 1.368 . S
C318 C317 1.523 . S
H319 C294 0.950 . S
H320 C296 0.950 . S
H321 C297 0.949 . S
H322 C299 0.950 . S
H323 C301 0.950 . S
C324 C325 1.349 . S
C324 C326 1.327 . S
C324 H349 0.950 . S
C325 C324 1.349 . S
C325 C341 1.349 . S
C326 C324 1.327 . S
C326 C345 1.429 . S
C326 H350 0.950 . S
C327 C344 1.574 . S
C327 C346 1.368 . S
C327 H351 0.949 . S
H328 C332 0.949 . S
C329 C330 1.349 . S
C329 C331 1.327 . S
C329 H352 0.950 . S
C330 C329 1.349 . S
C330 C342 1.349 . S
C331 C329 1.327 . S
C331 C347 1.429 . S
C331 H353 0.950 . S
C332 H328 0.949 . S
C332 C340 1.574 . S
C332 C348 1.368 . S
H333 C341 0.950 . S
H334 C339 0.950 . S
H335 C340 0.949 . S
H336 C342 0.950 . S
H337 C343 0.950 . S
H338 C344 0.949 . S
C339 H334 0.950 . S
C339 C341 1.327 . S
C339 C345 1.429 . S
C340 C332 1.574 . S
C340 H335 0.949 . S
C340 C346 1.368 . S
C341 C325 1.349 . S
C341 H333 0.950 . S
C341 C339 1.327 . S
C342 C330 1.349 . S
C342 H336 0.950 . S
C342 C343 1.327 . S
C343 H337 0.950 . S
C343 C342 1.327 . S
C343 C347 1.429 . S
C344 C327 1.574 . S
C344 H338 0.949 . S
C344 C348 1.368 . S
C345 C326 1.429 . S
C345 C339 1.429 . S
C345 C346 1.523 . S
C346 C327 1.368 . S
C346 C340 1.368 . S
C346 C345 1.523 . S
C347 C331 1.429 . S
C347 C343 1.429 . S
C347 C348 1.523 . S
C348 C332 1.368 . S
C348 C344 1.368 . S
C348 C347 1.523 . S
H349 C324 0.950 . S
H350 C326 0.950 . S
H351 C327 0.949 . S
H352 C329 0.950 . S
H353 C331 0.950 . S
C354 C355 1.349 . S
C354 C356 1.327 . S
C354 H379 0.950 . S
C355 C354 1.349 . S
C355 C371 1.349 . S
C356 C354 1.327 . S
C356 C375 1.429 . S
C356 H380 0.950 . S
C357 C374 1.574 . S
C357 C376 1.368 . S
C357 H381 0.949 . S
H358 C362 0.949 . S
C359 C360 1.349 . S
C359 C361 1.327 . S
C359 H382 0.950 . S
C360 C359 1.349 . S
C360 C372 1.349 . S
C361 C359 1.327 . S
C361 C377 1.429 . S
C361 H383 0.950 . S
C362 H358 0.949 . S
C362 C370 1.574 . S
C362 C378 1.368 . S
H363 C371 0.950 . S
H364 C369 0.950 . S
H365 C370 0.949 . S
H366 C372 0.950 . S
H367 C373 0.950 . S
H368 C374 0.949 . S
C369 H364 0.950 . S
C369 C371 1.327 . S
C369 C375 1.429 . S
C370 C362 1.574 . S
C370 H365 0.949 . S
C370 C376 1.368 . S
C371 C355 1.349 . S
C371 H363 0.950 . S
C371 C369 1.327 . S
C372 C360 1.349 . S
C372 H366 0.950 . S
C372 C373 1.327 . S
C373 H367 0.950 . S
C373 C372 1.327 . S
C373 C377 1.429 . S
C374 C357 1.574 . S
C374 H368 0.949 . S
C374 C378 1.368 . S
C375 C356 1.429 . S
C375 C369 1.429 . S
C375 C376 1.523 . S
C376 C357 1.368 . S
C376 C370 1.368 . S
C376 C375 1.523 . S
C377 C361 1.429 . S
C377 C373 1.429 . S
C377 C378 1.523 . S
C378 C362 1.368 . S
C378 C374 1.368 . S
C378 C377 1.523 . S
H379 C354 0.950 . S
H380 C356 0.950 . S
H381 C357 0.949 . S
H382 C359 0.950 . S
H383 C361 0.950 . S
C384 C385 1.349 . S
C384 C386 1.327 . S
C384 H409 0.950 . S
C385 C384 1.349 . S
C385 C401 1.349 . S
C386 C384 1.327 . S
C386 C405 1.429 . S
C386 H410 0.950 . S
C387 C404 1.574 . S
C387 C406 1.368 . S
C387 H411 0.949 . S
H388 C392 0.949 . S
C389 C390 1.349 . S
C389 C391 1.327 . S
C389 H412 0.950 . S
C390 C389 1.349 . S
C390 C402 1.349 . S
C391 C389 1.327 . S
C391 C407 1.429 . S
C391 H413 0.950 . S
C392 H388 0.949 . S
C392 C400 1.574 . S
C392 C408 1.368 . S
H393 C401 0.950 . S
H394 C399 0.950 . S
H395 C400 0.949 . S
H396 C402 0.950 . S
H397 C403 0.950 . S
H398 C404 0.949 . S
C399 H394 0.950 . S
C399 C401 1.327 . S
C399 C405 1.429 . S
C400 C392 1.574 . S
C400 H395 0.949 . S
C400 C406 1.368 . S
C401 C385 1.349 . S
C401 H393 0.950 . S
C401 C399 1.327 . S
C402 C390 1.349 . S
C402 H396 0.950 . S
C402 C403 1.327 . S
C403 H397 0.950 . S
C403 C402 1.327 . S
C403 C407 1.429 . S
C404 C387 1.574 . S
C404 H398 0.949 . S
C404 C408 1.368 . S
C405 C386 1.429 . S
C405 C399 1.429 . S
C405 C406 1.523 . S
C406 C387 1.368 . S
C406 C400 1.368 . S
C406 C405 1.523 . S
C407 C391 1.429 . S
C407 C403 1.429 . S
C407 C408 1.523 . S
C408 C392 1.368 . S
C408 C404 1.368 . S
C408 C407 1.523 . S
H409 C384 0.950 . S
H410 C386 0.950 . S
H411 C387 0.949 . S
H412 C389 0.950 . S
H413 C391 0.950 . S
C414 C415 1.349 . S
C414 C416 1.327 . S
C414 H439 0.950 . S
C415 C414 1.349 . S
C415 C431 1.349 . S
C416 C414 1.327 . S
C416 C435 1.429 . S
C416 H440 0.950 . S
C417 C434 1.574 . S
C417 C436 1.368 . S
C417 H441 0.949 . S
H418 C422 0.949 . S
C419 C420 1.349 . S
C419 C421 1.327 . S
C419 H442 0.950 . S
C420 C419 1.349 . S
C420 C432 1.349 . S
C421 C419 1.327 . S
C421 C437 1.429 . S
C421 H443 0.950 . S
C422 H418 0.949 . S
C422 C430 1.574 . S
C422 C438 1.368 . S
H423 C431 0.950 . S
H424 C429 0.950 . S
H425 C430 0.949 . S
H426 C432 0.950 . S
H427 C433 0.950 . S
H428 C434 0.949 . S
C429 H424 0.950 . S
C429 C431 1.327 . S
C429 C435 1.429 . S
C430 C422 1.574 . S
C430 H425 0.949 . S
C430 C436 1.368 . S
C431 C415 1.349 . S
C431 H423 0.950 . S
C431 C429 1.327 . S
C432 C420 1.349 . S
C432 H426 0.950 . S
C432 C433 1.327 . S
C433 H427 0.950 . S
C433 C432 1.327 . S
C433 C437 1.429 . S
C434 C417 1.574 . S
C434 H428 0.949 . S
C434 C438 1.368 . S
C435 C416 1.429 . S
C435 C429 1.429 . S
C435 C436 1.523 . S
C436 C417 1.368 . S
C436 C430 1.368 . S
C436 C435 1.523 . S
C437 C421 1.429 . S
C437 C433 1.429 . S
C437 C438 1.523 . S
C438 C422 1.368 . S
C438 C434 1.368 . S
C438 C437 1.523 . S
H439 C414 0.950 . S
H440 C416 0.950 . S
H441 C417 0.949 . S
H442 C419 0.950 . S
H443 C421 0.950 . S
C444 C445 1.349 . S
C444 C446 1.327 . S
C444 H469 0.950 . S
C445 C444 1.349 . S
C445 C461 1.349 . S
C446 C444 1.327 . S
C446 C465 1.429 . S
C446 H470 0.950 . S
C447 C464 1.574 . S
C447 C466 1.368 . S
C447 H471 0.949 . S
H448 C452 0.949 . S
C449 C450 1.349 . S
C449 C451 1.327 1_554 S
C449 H472 0.950 . S
C450 C449 1.349 . S
C450 C462 1.349 1_554 S
C451 C449 1.327 1_556 S
C451 C467 1.429 . S
C451 H473 0.950 . S
C452 H448 0.949 . S
C452 C460 1.574 . S
C452 C468 1.368 . S
H453 C461 0.950 . S
H454 C459 0.950 . S
H455 C460 0.949 . S
H456 C462 0.950 . S
H457 C463 0.950 . S
H458 C464 0.949 . S
C459 H454 0.950 . S
C459 C461 1.327 . S
C459 C465 1.429 . S
C460 C452 1.574 . S
C460 H455 0.949 . S
C460 C466 1.368 . S
C461 C445 1.349 . S
C461 H453 0.950 . S
C461 C459 1.327 . S
C462 C450 1.349 1_556 S
C462 H456 0.950 . S
C462 C463 1.327 . S
C463 H457 0.950 . S
C463 C462 1.327 . S
C463 C467 1.429 . S
C464 C447 1.574 . S
C464 H458 0.949 . S
C464 C468 1.368 . S
C465 C446 1.429 . S
C465 C459 1.429 . S
C465 C466 1.523 . S
C466 C447 1.368 . S
C466 C460 1.368 . S
C466 C465 1.523 . S
C467 C451 1.429 . S
C467 C463 1.429 . S
C467 C468 1.523 . S
C468 C452 1.368 . S
C468 C464 1.368 . S
C468 C467 1.523 . S
H469 C444 0.950 . S
H470 C446 0.950 . S
H471 C447 0.949 . S
H472 C449 0.950 . S
H473 C451 0.950 . S
C474 C475 1.349 . S
C474 C476 1.327 . S
C474 H499 0.950 . S
C475 C474 1.349 . S
C475 C491 1.349 . S
C476 C474 1.327 . S
C476 C495 1.429 . S
C476 H500 0.950 . S
C477 C494 1.574 . S
C477 C496 1.368 . S
C477 H501 0.949 . S
H478 C482 0.949 . S
C479 C480 1.349 . S
C479 C481 1.327 . S
C479 H502 0.950 . S
C480 C479 1.349 . S
C480 C492 1.349 . S
C481 C479 1.327 . S
C481 C497 1.429 . S
C481 H503 0.950 . S
C482 H478 0.949 . S
C482 C490 1.574 . S
C482 C498 1.368 . S
H483 C491 0.950 . S
H484 C489 0.950 . S
H485 C490 0.949 . S
H486 C492 0.950 . S
H487 C493 0.950 . S
H488 C494 0.949 . S
C489 H484 0.950 . S
C489 C491 1.327 . S
C489 C495 1.429 . S
C490 C482 1.574 . S
C490 H485 0.949 . S
C490 C496 1.368 . S
C491 C475 1.349 . S
C491 H483 0.950 . S
C491 C489 1.327 . S
C492 C480 1.349 . S
C492 H486 0.950 . S
C492 C493 1.327 . S
C493 H487 0.950 . S
C493 C492 1.327 . S
C493 C497 1.429 . S
C494 C477 1.574 . S
C494 H488 0.949 . S
C494 C498 1.368 . S
C495 C476 1.429 . S
C495 C489 1.429 . S
C495 C496 1.523 . S
C496 C477 1.368 . S
C496 C490 1.368 . S
C496 C495 1.523 . S
C497 C481 1.429 . S
C497 C493 1.429 . S
C497 C498 1.523 . S
C498 C482 1.368 . S
C498 C494 1.368 . S
C498 C497 1.523 . S
H499 C474 0.950 . S
H500 C476 0.950 . S
H501 C477 0.949 . S
H502 C479 0.950 . S
H503 C481 0.950 . S
C504 C505 1.349 . S
C504 C506 1.327 . S
C504 H529 0.950 . S
C505 C504 1.349 . S
C505 C521 1.349 . S
C506 C504 1.327 . S
C506 C525 1.429 . S
C506 H530 0.950 . S
C507 C524 1.574 . S
C507 C526 1.368 . S
C507 H531 0.949 . S
H508 C512 0.949 . S
C509 C510 1.349 . S
C509 C511 1.327 . S
C509 H532 0.950 . S
C510 C509 1.349 . S
C510 C522 1.349 . S
C511 C509 1.327 . S
C511 C527 1.429 . S
C511 H533 0.950 . S
C512 H508 0.949 . S
C512 C520 1.574 . S
C512 C528 1.368 . S
H513 C521 0.950 . S
H514 C519 0.950 . S
H515 C520 0.949 . S
H516 C522 0.950 . S
H517 C523 0.950 . S
H518 C524 0.949 . S
C519 H514 0.950 . S
C519 C521 1.327 . S
C519 C525 1.429 . S
C520 C512 1.574 . S
C520 H515 0.949 . S
C520 C526 1.368 . S
C521 C505 1.349 . S
C521 H513 0.950 . S
C521 C519 1.327 . S
C522 C510 1.349 . S
C522 H516 0.950 . S
C522 C523 1.327 . S
C523 H517 0.950 . S
C523 C522 1.327 . S
C523 C527 1.429 . S
C524 C507 1.574 . S
C524 H518 0.949 . S
C524 C528 1.368 . S
C525 C506 1.429 . S
C525 C519 1.429 . S
C525 C526 1.523 . S
C526 C507 1.368 . S
C526 C520 1.368 . S
C526 C525 1.523 . S
C527 C511 1.429 . S
C527 C523 1.429 . S
C527 C528 1.523 . S
C528 C512 1.368 . S
C528 C524 1.368 . S
C528 C527 1.523 . S
H529 C504 0.950 . S
H530 C506 0.950 . S
H531 C507 0.949 . S
H532 C509 0.950 . S
H533 C511 0.950 . S
C534 C535 1.349 . S
C534 C536 1.327 . S
C534 H559 0.950 . S
C535 C534 1.349 . S
C535 C551 1.349 . S
C536 C534 1.327 . S
C536 C555 1.429 . S
C536 H560 0.950 . S
C537 C554 1.574 . S
C537 C556 1.368 . S
C537 H561 0.949 . S
H538 C542 0.949 . S
C539 C540 1.349 . S
C539 C541 1.327 . S
C539 H562 0.950 . S
C540 C539 1.349 . S
C540 C552 1.349 . S
C541 C539 1.327 . S
C541 C557 1.429 . S
C541 H563 0.950 . S
C542 H538 0.949 . S
C542 C550 1.574 . S
C542 C558 1.368 . S
H543 C551 0.950 . S
H544 C549 0.950 . S
H545 C550 0.949 . S
H546 C552 0.950 . S
H547 C553 0.950 . S
H548 C554 0.949 . S
C549 H544 0.950 . S
C549 C551 1.327 . S
C549 C555 1.429 . S
C550 C542 1.574 . S
C550 H545 0.949 . S
C550 C556 1.368 . S
C551 C535 1.349 . S
C551 H543 0.950 . S
C551 C549 1.327 . S
C552 C540 1.349 . S
C552 H546 0.950 . S
C552 C553 1.327 . S
C553 H547 0.950 . S
C553 C552 1.327 . S
C553 C557 1.429 . S
C554 C537 1.574 . S
C554 H548 0.949 . S
C554 C558 1.368 . S
C555 C536 1.429 . S
C555 C549 1.429 . S
C555 C556 1.523 . S
C556 C537 1.368 . S
C556 C550 1.368 . S
C556 C555 1.523 . S
C557 C541 1.429 . S
C557 C553 1.429 . S
C557 C558 1.523 . S
C558 C542 1.368 . S
C558 C554 1.368 . S
C558 C557 1.523 . S
H559 C534 0.950 . S
H560 C536 0.950 . S
H561 C537 0.949 . S
H562 C539 0.950 . S
H563 C541 0.950 . S
C564 C565 1.349 . S
C564 C566 1.327 . S
C564 H589 0.950 . S
C565 C564 1.349 . S
C565 C581 1.349 . S
C566 C564 1.327 . S
C566 C585 1.429 . S
C566 H590 0.950 . S
C567 C584 1.574 . S
C567 C586 1.368 . S
C567 H591 0.949 . S
H568 C572 0.949 . S
C569 C570 1.349 . S
C569 C571 1.327 . S
C569 H592 0.950 . S
C570 C569 1.349 . S
C570 C582 1.349 . S
C571 C569 1.327 . S
C571 C587 1.429 . S
C571 H593 0.950 . S
C572 H568 0.949 . S
C572 C580 1.574 . S
C572 C588 1.368 . S
H573 C581 0.950 . S
H574 C579 0.950 . S
H575 C580 0.949 . S
H576 C582 0.950 1_455 S
H577 C583 0.950 . S
H578 C584 0.949 . S
C579 H574 0.950 . S
C579 C581 1.327 . S
C579 C585 1.429 . S
C580 C572 1.574 . S
C580 H575 0.949 . S
C580 C586 1.368 . S
C581 C565 1.349 . S
C581 H573 0.950 . S
C581 C579 1.327 . S
C582 C570 1.349 . S
C582 H576 0.950 1_655 S
C582 C583 1.327 . S
C583 H577 0.950 . S
C583 C582 1.327 . S
C583 C587 1.429 . S
C584 C567 1.574 . S
C584 H578 0.949 . S
C584 C588 1.368 . S
C585 C566 1.429 . S
C585 C579 1.429 . S
C585 C586 1.523 . S
C586 C567 1.368 . S
C586 C580 1.368 . S
C586 C585 1.523 . S
C587 C571 1.429 . S
C587 C583 1.429 . S
C587 C588 1.523 . S
C588 C572 1.368 . S
C588 C584 1.368 . S
C588 C587 1.523 . S
H589 C564 0.950 . S
H590 C566 0.950 . S
H591 C567 0.949 . S
H592 C569 0.950 . S
H593 C571 0.950 . S
C594 C595 1.349 . S
C594 C596 1.327 . S
C594 H619 0.950 . S
C595 C594 1.349 . S
C595 C611 1.349 . S
C596 C594 1.327 . S
C596 C615 1.429 . S
C596 H620 0.950 . S
C597 C614 1.574 . S
C597 C616 1.368 . S
C597 H621 0.949 . S
H598 C602 0.949 . S
C599 C600 1.349 . S
C599 C601 1.327 . S
C599 H622 0.950 . S
C600 C599 1.349 . S
C600 C612 1.349 . S
C601 C599 1.327 . S
C601 C617 1.429 . S
C601 H623 0.950 . S
C602 H598 0.949 . S
C602 C610 1.574 . S
C602 C618 1.368 . S
H603 C611 0.950 . S
H604 C609 0.950 . S
H605 C610 0.949 . S
H606 C612 0.950 . S
H607 C613 0.950 . S
H608 C614 0.949 . S
C609 H604 0.950 . S
C609 C611 1.327 . S
C609 C615 1.429 . S
C610 C602 1.574 . S
C610 H605 0.949 . S
C610 C616 1.368 . S
C611 C595 1.349 . S
C611 H603 0.950 . S
C611 C609 1.327 . S
C612 C600 1.349 . S
C612 H606 0.950 . S
C612 C613 1.327 . S
C613 H607 0.950 . S
C613 C612 1.327 . S
C613 C617 1.429 . S
C614 C597 1.574 . S
C614 H608 0.949 . S
C614 C618 1.368 . S
C615 C596 1.429 . S
C615 C609 1.429 . S
C615 C616 1.523 . S
C616 C597 1.368 . S
C616 C610 1.368 . S
C616 C615 1.523 . S
C617 C601 1.429 . S
C617 C613 1.429 . S
C617 C618 1.523 . S
C618 C602 1.368 . S
C618 C614 1.368 . S
C618 C617 1.523 . S
H619 C594 0.950 . S
H620 C596 0.950 . S
H621 C597 0.949 . S
H622 C599 0.950 . S
H623 C601 0.950 . S
C624 C625 1.349 . S
C624 C626 1.327 . S
C624 H649 0.950 . S
C625 C624 1.349 . S
C625 C641 1.349 . S
C626 C624 1.327 . S
C626 C645 1.429 . S
C626 H650 0.950 . S
C627 C644 1.574 . S
C627 C646 1.368 . S
C627 H651 0.949 . S
H628 C632 0.949 . S
C629 C630 1.349 . S
C629 C631 1.327 . S
C629 H652 0.950 . S
C630 C629 1.349 . S
C630 C642 1.349 . S
C631 C629 1.327 . S
C631 C647 1.429 . S
C631 H653 0.950 . S
C632 H628 0.949 . S
C632 C640 1.574 . S
C632 C648 1.368 . S
H633 C641 0.950 . S
H634 C639 0.950 . S
H635 C640 0.949 . S
H636 C642 0.950 . S
H637 C643 0.950 . S
H638 C644 0.949 . S
C639 H634 0.950 . S
C639 C641 1.327 . S
C639 C645 1.429 . S
C640 C632 1.574 . S
C640 H635 0.949 . S
C640 C646 1.368 . S
C641 C625 1.349 . S
C641 H633 0.950 . S
C641 C639 1.327 . S
C642 C630 1.349 . S
C642 H636 0.950 . S
C642 C643 1.327 . S
C643 H637 0.950 . S
C643 C642 1.327 . S
C643 C647 1.429 . S
C644 C627 1.574 . S
C644 H638 0.949 . S
C644 C648 1.368 . S
C645 C626 1.429 . S
C645 C639 1.429 . S
C645 C646 1.523 . S
C646 C627 1.368 . S
C646 C640 1.368 . S
C646 C645 1.523 . S
C647 C631 1.429 . S
C647 C643 1.429 . S
C647 C648 1.523 . S
C648 C632 1.368 . S
C648 C644 1.368 . S
C648 C647 1.523 . S
H649 C624 0.950 . S
H650 C626 0.950 . S
H651 C627 0.949 . S
H652 C629 0.950 . S
H653 C631 0.950 . S
C654 C655 1.349 . S
C654 C656 1.327 . S
C654 H679 0.950 . S
C655 C654 1.349 . S
C655 C671 1.349 . S
C656 C654 1.327 . S
C656 C675 1.429 . S
C656 H680 0.950 . S
C657 C674 1.574 . S
C657 C676 1.368 . S
C657 H681 0.949 . S
H658 C662 0.949 . S
C659 C660 1.349 . S
C659 C661 1.327 . S
C659 H682 0.950 . S
C660 C659 1.349 . S
C660 C672 1.349 . S
C661 C659 1.327 . S
C661 C677 1.429 . S
C661 H683 0.950 . S
C662 H658 0.949 . S
C662 C670 1.574 . S
C662 C678 1.368 . S
H663 C671 0.950 . S
H664 C669 0.950 . S
H665 C670 0.949 . S
H666 C672 0.950 . S
H667 C673 0.950 . S
H668 C674 0.949 . S
C669 H664 0.950 . S
C669 C671 1.327 . S
C669 C675 1.429 . S
C670 C662 1.574 . S
C670 H665 0.949 . S
C670 C676 1.368 . S
C671 C655 1.349 . S
C671 H663 0.950 . S
C671 C669 1.327 . S
C672 C660 1.349 . S
C672 H666 0.950 . S
C672 C673 1.327 . S
C673 H667 0.950 . S
C673 C672 1.327 . S
C673 C677 1.429 . S
C674 C657 1.574 . S
C674 H668 0.949 . S
C674 C678 1.368 . S
C675 C656 1.429 . S
C675 C669 1.429 . S
C675 C676 1.523 . S
C676 C657 1.368 . S
C676 C670 1.368 . S
C676 C675 1.523 . S
C677 C661 1.429 . S
C677 C673 1.429 . S
C677 C678 1.523 . S
C678 C662 1.368 . S
C678 C674 1.368 . S
C678 C677 1.523 . S
H679 C654 0.950 . S
H680 C656 0.950 . S
H681 C657 0.949 . S
H682 C659 0.950 . S
H683 C661 0.950 . S
C684 C685 1.349 . S
C684 C686 1.327 . S
C684 H709 0.950 . S
C685 C684 1.349 . S
C685 C701 1.349 . S
C686 C684 1.327 . S
C686 C705 1.429 . S
C686 H710 0.950 . S
C687 C704 1.574 . S
C687 C706 1.368 . S
C687 H711 0.949 . S
H688 C692 0.949 . S
C689 C690 1.349 . S
C689 C691 1.327 . S
C689 H712 0.950 . S
C690 C689 1.349 . S
C690 C702 1.349 . S
C691 C689 1.327 . S
C691 C707 1.429 . S
C691 H713 0.950 . S
C692 H688 0.949 . S
C692 C700 1.574 . S
C692 C708 1.368 . S
H693 C701 0.950 . S
H694 C699 0.950 . S
H695 C700 0.949 . S
H696 C702 0.950 . S
H697 C703 0.950 . S
H698 C704 0.949 . S
C699 H694 0.950 . S
C699 C701 1.327 . S
C699 C705 1.429 . S
C700 C692 1.574 . S
C700 H695 0.949 . S
C700 C706 1.368 . S
C701 C685 1.349 . S
C701 H693 0.950 . S
C701 C699 1.327 . S
C702 C690 1.349 . S
C702 H696 0.950 . S
C702 C703 1.327 . S
C703 H697 0.950 . S
C703 C702 1.327 . S
C703 C707 1.429 . S
C704 C687 1.574 . S
C704 H698 0.949 . S
C704 C708 1.368 . S
C705 C686 1.429 . S
C705 C699 1.429 . S
C705 C706 1.523 . S
C706 C687 1.368 . S
C706 C700 1.368 . S
C706 C705 1.523 . S
C707 C691 1.429 . S
C707 C703 1.429 . S
C707 C708 1.523 . S
C708 C692 1.368 . S
C708 C704 1.368 . S
C708 C707 1.523 . S
H709 C684 0.950 . S
H710 C686 0.950 . S
H711 C687 0.949 . S
H712 C689 0.950 . S
H713 C691 0.950 . S
C714 C715 1.349 . S
C714 C716 1.327 . S
C714 H739 0.950 . S
C715 C714 1.349 . S
C715 C731 1.349 . S
C716 C714 1.327 . S
C716 C735 1.429 . S
C716 H740 0.950 . S
C717 C734 1.574 . S
C717 C736 1.368 . S
C717 H741 0.949 . S
H718 C722 0.949 . S
C719 C720 1.349 . S
C719 C721 1.327 . S
C719 H742 0.950 . S
C720 C719 1.349 . S
C720 C732 1.349 . S
C721 C719 1.327 . S
C721 C737 1.429 . S
C721 H743 0.950 . S
C722 H718 0.949 . S
C722 C730 1.574 . S
C722 C738 1.368 . S
H723 C731 0.950 . S
H724 C729 0.950 . S
H725 C730 0.949 . S
H726 C732 0.950 . S
H727 C733 0.950 . S
H728 C734 0.949 . S
C729 H724 0.950 . S
C729 C731 1.327 . S
C729 C735 1.429 . S
C730 C722 1.574 . S
C730 H725 0.949 . S
C730 C736 1.368 . S
C731 C715 1.349 . S
C731 H723 0.950 . S
C731 C729 1.327 . S
C732 C720 1.349 . S
C732 H726 0.950 . S
C732 C733 1.327 . S
C733 H727 0.950 . S
C733 C732 1.327 . S
C733 C737 1.429 . S
C734 C717 1.574 . S
C734 H728 0.949 . S
C734 C738 1.368 . S
C735 C716 1.429 . S
C735 C729 1.429 . S
C735 C736 1.523 . S
C736 C717 1.368 . S
C736 C730 1.368 . S
C736 C735 1.523 . S
C737 C721 1.429 . S
C737 C733 1.429 . S
C737 C738 1.523 . S
C738 C722 1.368 . S
C738 C734 1.368 . S
C738 C737 1.523 . S
H739 C714 0.950 . S
H740 C716 0.950 . S
H741 C717 0.949 . S
H742 C719 0.950 . S
H743 C721 0.950 . S
C744 C745 1.349 . S
C744 C746 1.327 . S
C744 H769 0.950 . S
C745 C744 1.349 . S
C745 C761 1.349 . S
C746 C744 1.327 . S
C746 C765 1.429 . S
C746 H770 0.950 . S
C747 C764 1.574 . S
C747 C766 1.368 . S
C747 H771 0.949 . S
H748 C752 0.949 . S
C749 C750 1.349 . S
C749 C751 1.327 . S
C749 H772 0.950 . S
C750 C749 1.349 . S
C750 C762 1.349 . S
C751 C749 1.327 . S
C751 C767 1.429 . S
C751 H773 0.950 . S
C752 H748 0.949 . S
C752 C760 1.574 . S
C752 C768 1.368 . S
H753 C761 0.950 . S
H754 C759 0.950 . S
H755 C760 0.949 . S
H756 C762 0.950 . S
H757 C763 0.950 . S
H758 C764 0.949 . S
C759 H754 0.950 . S
C759 C761 1.327 . S
C759 C765 1.429 . S
C760 C752 1.574 . S
C760 H755 0.949 . S
C760 C766 1.368 . S
C761 C745 1.349 . S
C761 H753 0.950 . S
C761 C759 1.327 . S
C762 C750 1.349 . S
C762 H756 0.950 . S
C762 C763 1.327 . S
C763 H757 0.950 . S
C763 C762 1.327 . S
C763 C767 1.429 . S
C764 C747 1.574 . S
C764 H758 0.949 . S
C764 C768 1.368 . S
C765 C746 1.429 . S
C765 C759 1.429 . S
C765 C766 1.523 . S
C766 C747 1.368 . S
C766 C760 1.368 . S
C766 C765 1.523 . S
C767 C751 1.429 . S
C767 C763 1.429 . S
C767 C768 1.523 . S
C768 C752 1.368 . S
C768 C764 1.368 . S
C768 C767 1.523 . S
H769 C744 0.950 . S
H770 C746 0.950 . S
H771 C747 0.949 . S
H772 C749 0.950 . S
H773 C751 0.950 . S
C774 C775 1.349 . S
C774 C776 1.327 . S
C774 H799 0.950 . S
C775 C774 1.349 . S
C775 C791 1.349 . S
C776 C774 1.327 . S
C776 C795 1.429 . S
C776 H800 0.950 . S
C777 C794 1.574 . S
C777 C796 1.368 . S
C777 H801 0.949 . S
H778 C782 0.949 . S
C779 C780 1.349 . S
C779 C781 1.327 . S
C779 H802 0.950 . S
C780 C779 1.349 . S
C780 C792 1.349 . S
C781 C779 1.327 . S
C781 C797 1.429 . S
C781 H803 0.950 . S
C782 H778 0.949 . S
C782 C790 1.574 . S
C782 C798 1.368 . S
H783 C791 0.950 . S
H784 C789 0.950 . S
H785 C790 0.949 . S
H786 C792 0.950 1_455 S
H787 C793 0.950 1_455 S
H788 C794 0.949 . S
C789 H784 0.950 . S
C789 C791 1.327 . S
C789 C795 1.429 . S
C790 C782 1.574 . S
C790 H785 0.949 . S
C790 C796 1.368 . S
C791 C775 1.349 . S
C791 H783 0.950 . S
C791 C789 1.327 . S
C792 C780 1.349 . S
C792 H786 0.950 1_655 S
C792 C793 1.327 . S
C793 H787 0.950 1_655 S
C793 C792 1.327 . S
C793 C797 1.429 . S
C794 C777 1.574 . S
C794 H788 0.949 . S
C794 C798 1.368 . S
C795 C776 1.429 . S
C795 C789 1.429 . S
C795 C796 1.523 . S
C796 C777 1.368 . S
C796 C790 1.368 . S
C796 C795 1.523 . S
C797 C781 1.429 . S
C797 C793 1.429 . S
C797 C798 1.523 . S
C798 C782 1.368 . S
C798 C794 1.368 . S
C798 C797 1.523 . S
H799 C774 0.950 . S
H800 C776 0.950 . S
H801 C777 0.949 . S
H802 C779 0.950 . S
H803 C781 0.950 . S
C804 C805 1.349 . S
C804 C806 1.327 . S
C804 H829 0.950 . S
C805 C804 1.349 . S
C805 C821 1.349 . S
C806 C804 1.327 . S
C806 C825 1.429 . S
C806 H830 0.950 . S
C807 C824 1.574 . S
C807 C826 1.368 . S
C807 H831 0.949 . S
H808 C812 0.949 . S
C809 C810 1.349 . S
C809 C811 1.327 . S
C809 H832 0.950 . S
C810 C809 1.349 . S
C810 C822 1.349 . S
C811 C809 1.327 . S
C811 C827 1.429 . S
C811 H833 0.950 . S
C812 H808 0.949 . S
C812 C820 1.574 . S
C812 C828 1.368 . S
H813 C821 0.950 . S
H814 C819 0.950 . S
H815 C820 0.949 . S
H816 C822 0.950 . S
H817 C823 0.950 . S
H818 C824 0.949 . S
C819 H814 0.950 . S
C819 C821 1.327 . S
C819 C825 1.429 . S
C820 C812 1.574 . S
C820 H815 0.949 . S
C820 C826 1.368 . S
C821 C805 1.349 . S
C821 H813 0.950 . S
C821 C819 1.327 . S
C822 C810 1.349 . S
C822 H816 0.950 . S
C822 C823 1.327 . S
C823 H817 0.950 . S
C823 C822 1.327 . S
C823 C827 1.429 . S
C824 C807 1.574 . S
C824 H818 0.949 . S
C824 C828 1.368 . S
C825 C806 1.429 . S
C825 C819 1.429 . S
C825 C826 1.523 . S
C826 C807 1.368 . S
C826 C820 1.368 . S
C826 C825 1.523 . S
C827 C811 1.429 . S
C827 C823 1.429 . S
C827 C828 1.523 . S
C828 C812 1.368 . S
C828 C824 1.368 . S
C828 C827 1.523 . S
H829 C804 0.950 . S
H830 C806 0.950 . S
H831 C807 0.949 . S
H832 C809 0.950 . S
H833 C811 0.950 . S
C834 C835 1.349 . S
C834 C836 1.327 . S
C834 H859 0.950 . S
C835 C834 1.349 . S
C835 C851 1.349 . S
C836 C834 1.327 . S
C836 C855 1.429 . S
C836 H860 0.950 . S
C837 C854 1.574 . S
C837 C856 1.368 . S
C837 H861 0.949 . S
H838 C842 0.949 . S
C839 C840 1.349 . S
C839 C841 1.327 . S
C839 H862 0.950 . S
C840 C839 1.349 . S
C840 C852 1.349 . S
C841 C839 1.327 . S
C841 C857 1.429 . S
C841 H863 0.950 . S
C842 H838 0.949 . S
C842 C850 1.574 . S
C842 C858 1.368 . S
H843 C851 0.950 . S
H844 C849 0.950 . S
H845 C850 0.949 . S
H846 C852 0.950 . S
H847 C853 0.950 . S
H848 C854 0.949 . S
C849 H844 0.950 . S
C849 C851 1.327 . S
C849 C855 1.429 . S
C850 C842 1.574 . S
C850 H845 0.949 . S
C850 C856 1.368 . S
C851 C835 1.349 . S
C851 H843 0.950 . S
C851 C849 1.327 . S
C852 C840 1.349 . S
C852 H846 0.950 . S
C852 C853 1.327 . S
C853 H847 0.950 . S
C853 C852 1.327 . S
C853 C857 1.429 . S
C854 C837 1.574 . S
C854 H848 0.949 . S
C854 C858 1.368 . S
C855 C836 1.429 . S
C855 C849 1.429 . S
C855 C856 1.523 . S
C856 C837 1.368 . S
C856 C850 1.368 . S
C856 C855 1.523 . S
C857 C841 1.429 . S
C857 C853 1.429 . S
C857 C858 1.523 . S
C858 C842 1.368 . S
C858 C854 1.368 . S
C858 C857 1.523 . S
H859 C834 0.950 . S
H860 C836 0.950 . S
H861 C837 0.949 . S
H862 C839 0.950 . S
H863 C841 0.950 . S
C864 C865 1.349 . S
C864 C866 1.327 . S
C864 H889 0.950 . S
C865 C864 1.349 . S
C865 C881 1.349 . S
C866 C864 1.327 . S
C866 C885 1.429 . S
C866 H890 0.950 . S
C867 C884 1.574 . S
C867 C886 1.368 . S
C867 H891 0.949 . S
H868 C872 0.949 . S
C869 C870 1.349 . S
C869 C871 1.327 . S
C869 H892 0.950 . S
C870 C869 1.349 . S
C870 C882 1.349 1_556 S
C871 C869 1.327 . S
C871 C887 1.429 . S
C871 H893 0.950 . S
C872 H868 0.949 . S
C872 C880 1.574 . S
C872 C888 1.368 . S
H873 C881 0.950 . S
H874 C879 0.950 . S
H875 C880 0.949 . S
H876 C882 0.950 . S
H877 C883 0.950 . S
H878 C884 0.949 . S
C879 H874 0.950 . S
C879 C881 1.327 . S
C879 C885 1.429 . S
C880 C872 1.574 . S
C880 H875 0.949 . S
C880 C886 1.368 . S
C881 C865 1.349 . S
C881 H873 0.950 . S
C881 C879 1.327 . S
C882 C870 1.349 1_554 S
C882 H876 0.950 . S
C882 C883 1.327 1_554 S
C883 H877 0.950 . S
C883 C882 1.327 1_556 S
C883 C887 1.429 . S
C884 C867 1.574 . S
C884 H878 0.949 . S
C884 C888 1.368 . S
C885 C866 1.429 . S
C885 C879 1.429 . S
C885 C886 1.523 . S
C886 C867 1.368 . S
C886 C880 1.368 . S
C886 C885 1.523 . S
C887 C871 1.429 . S
C887 C883 1.429 . S
C887 C888 1.523 . S
C888 C872 1.368 . S
C888 C884 1.368 . S
C888 C887 1.523 . S
H889 C864 0.950 . S
H890 C866 0.950 . S
H891 C867 0.949 . S
H892 C869 0.950 . S
H893 C871 0.950 . S
C894 C895 1.349 . S
C894 C896 1.327 . S
C894 H919 0.950 . S
C895 C894 1.349 . S
C895 C911 1.349 . S
C896 C894 1.327 . S
C896 C915 1.429 . S
C896 H920 0.950 . S
C897 C914 1.574 . S
C897 C916 1.368 . S
C897 H921 0.949 . S
H898 C902 0.949 . S
C899 C900 1.349 . S
C899 C901 1.327 . S
C899 H922 0.950 . S
C900 C899 1.349 . S
C900 C912 1.349 . S
C901 C899 1.327 . S
C901 C917 1.429 . S
C901 H923 0.950 . S
C902 H898 0.949 . S
C902 C910 1.574 . S
C902 C918 1.368 . S
H903 C911 0.950 . S
H904 C909 0.950 . S
H905 C910 0.949 . S
H906 C912 0.950 . S
H907 C913 0.950 . S
H908 C914 0.949 . S
C909 H904 0.950 . S
C909 C911 1.327 . S
C909 C915 1.429 . S
C910 C902 1.574 . S
C910 H905 0.949 . S
C910 C916 1.368 . S
C911 C895 1.349 . S
C911 H903 0.950 . S
C911 C909 1.327 . S
C912 C900 1.349 . S
C912 H906 0.950 . S
C912 C913 1.327 . S
C913 H907 0.950 . S
C913 C912 1.327 . S
C913 C917 1.429 . S
C914 C897 1.574 . S
C914 H908 0.949 . S
C914 C918 1.368 . S
C915 C896 1.429 . S
C915 C909 1.429 . S
C915 C916 1.523 . S
C916 C897 1.368 . S
C916 C910 1.368 . S
C916 C915 1.523 . S
C917 C901 1.429 . S
C917 C913 1.429 . S
C917 C918 1.523 . S
C918 C902 1.368 . S
C918 C914 1.368 . S
C918 C917 1.523 . S
H919 C894 0.950 . S
H920 C896 0.950 . S
H921 C897 0.949 . S
H922 C899 0.950 . S
H923 C901 0.950 . S
C924 C925 1.349 . S
C924 C926 1.327 . S
C924 H949 0.950 . S
C925 C924 1.349 . S
C925 C941 1.349 . S
C926 C924 1.327 . S
C926 C945 1.429 . S
C926 H950 0.950 . S
C927 C944 1.574 . S
C927 C946 1.368 . S
C927 H951 0.949 . S
H928 C932 0.949 . S
C929 C930 1.349 . S
C929 C931 1.327 . S
C929 H952 0.950 . S
C930 C929 1.349 . S
C930 C942 1.349 . S
C931 C929 1.327 . S
C931 C947 1.429 . S
C931 H953 0.950 . S
C932 H928 0.949 . S
C932 C940 1.574 . S
C932 C948 1.368 . S
H933 C941 0.950 . S
H934 C939 0.950 . S
H935 C940 0.949 . S
H936 C942 0.950 . S
H937 C943 0.950 . S
H938 C944 0.949 . S
C939 H934 0.950 . S
C939 C941 1.327 . S
C939 C945 1.429 . S
C940 C932 1.574 . S
C940 H935 0.949 . S
C940 C946 1.368 . S
C941 C925 1.349 . S
C941 H933 0.950 . S
C941 C939 1.327 . S
C942 C930 1.349 . S
C942 H936 0.950 . S
C942 C943 1.327 . S
C943 H937 0.950 . S
C943 C942 1.327 . S
C943 C947 1.429 . S
C944 C927 1.574 . S
C944 H938 0.949 . S
C944 C948 1.368 . S
C945 C926 1.429 . S
C945 C939 1.429 . S
C945 C946 1.523 . S
C946 C927 1.368 . S
C946 C940 1.368 . S
C946 C945 1.523 . S
C947 C931 1.429 . S
C947 C943 1.429 . S
C947 C948 1.523 . S
C948 C932 1.368 . S
C948 C944 1.368 . S
C948 C947 1.523 . S
H949 C924 0.950 . S
H950 C926 0.950 . S
H951 C927 0.949 . S
H952 C929 0.950 . S
H953 C931 0.950 . S
C954 C955 1.349 . S
C954 C956 1.327 . S
C954 H979 0.950 . S
C955 C954 1.349 . S
C955 C971 1.349 . S
C956 C954 1.327 . S
C956 C975 1.429 . S
C956 H980 0.950 . S
C957 C974 1.574 . S
C957 C976 1.368 . S
C957 H981 0.949 . S
H958 C962 0.949 . S
C959 C960 1.349 . S
C959 C961 1.327 . S
C959 H982 0.950 . S
C960 C959 1.349 . S
C960 C972 1.349 . S
C961 C959 1.327 . S
C961 C977 1.429 . S
C961 H983 0.950 . S
C962 H958 0.949 . S
C962 C970 1.574 . S
C962 C978 1.368 . S
H963 C971 0.950 . S
H964 C969 0.950 . S
H965 C970 0.949 . S
H966 C972 0.950 . S
H967 C973 0.950 . S
H968 C974 0.949 . S
C969 H964 0.950 . S
C969 C971 1.327 . S
C969 C975 1.429 . S
C970 C962 1.574 . S
C970 H965 0.949 . S
C970 C976 1.368 . S
C971 C955 1.349 . S
C971 H963 0.950 . S
C971 C969 1.327 . S
C972 C960 1.349 . S
C972 H966 0.950 . S
C972 C973 1.327 . S
C973 H967 0.950 . S
C973 C972 1.327 . S
C973 C977 1.429 . S
C974 C957 1.574 . S
C974 H968 0.949 . S
C974 C978 1.368 . S
C975 C956 1.429 . S
C975 C969 1.429 . S
C975 C976 1.523 . S
C976 C957 1.368 . S
C976 C970 1.368 . S
C976 C975 1.523 . S
C977 C961 1.429 . S
C977 C973 1.429 . S
C977 C978 1.523 . S
C978 C962 1.368 . S
C978 C974 1.368 . S
C978 C977 1.523 . S
H979 C954 0.950 . S
H980 C956 0.950 . S
H981 C957 0.949 . S
H982 C959 0.950 . S
H983 C961 0.950 . S
C265 C9 1.694 . S
C270 C119 1.713 . S
C295 C21 0.967 . S
C300 C159 0.982 . S
C330 C193 1.858 . S
C325 C30 1.822 . S
C355 C43 2.342 . S
C360 C234 2.367 . S
C390 C154 1.327 . S
C385 C4 1.226 . S
C420 C114 2.656 . S
C415 C22 2.590 . S
C450 C242 1.134 . S
C445 C34 1.134 . S
C480 C203 1.535 . S
C475 C48 1.570 . S
C505 C8 1.263 . S
C510 C239 1.276 . S
C540 C162 1.866 . S
C535 C35 1.895 . S
C565 C47 2.589 . S
C570 C122 2.485 . S
C595 C17 1.337 . S
C600 C190 1.396 . S
C630 C110 1.149 . S
C625 C60 1.144 . S
C655 C74 1.126 . S
C660 C150 1.147 . S
C685 C82 1.470 . S
C690 C202 1.530 . S
C715 C100 3.011 . S
C720 C243 2.952 1_556 S
C745 C61 1.801 . S
C750 C163 1.834 . S
C780 C123 2.014 . S
C775 C73 1.951 . S
C810 C233 1.670 . S
C805 C87 1.716 . S
C840 C194 1.473 . S
C835 C95 1.529 . S
C865 C56 1.102 . S
C870 C230 1.103 . S
C900 C153 2.101 . S
C895 C86 2.147 . S
C930 C113 2.418 . S
C925 C99 2.480 . S
C955 C69 1.191 . S
C960 C199 1.312 . S
