# Generated by pormake.
# Topology ctn, (3,4)-cn, num edge types: 1
# Building blocks:
#     Node 0, Type 0, BuildingBlock: MIDCAF_clean_linker_0, # of connection points: 3
#     Node 1, Type 0, BuildingBlock: MIDCAF_clean_linker_0, # of connection points: 3
#     Node 2, Type 0, BuildingBlock: MIDCAF_clean_linker_0, # of connection points: 3
#     Node 3, Type 0, BuildingBlock: MIDCAF_clean_linker_0, # of connection points: 3
#     Node 4, Type 0, BuildingBlock: MIDCAF_clean_linker_0, # of connection points: 3
#     Node 5, Type 0, BuildingBlock: MIDCAF_clean_linker_0, # of connection points: 3
#     Node 6, Type 0, BuildingBlock: MIDCAF_clean_linker_0, # of connection points: 3
#     Node 7, Type 0, BuildingBlock: MIDCAF_clean_linker_0, # of connection points: 3
#     Node 8, Type 0, BuildingBlock: MIDCAF_clean_linker_0, # of connection points: 3
#     Node 9, Type 0, BuildingBlock: MIDCAF_clean_linker_0, # of connection points: 3
#     Node 10, Type 0, BuildingBlock: MIDCAF_clean_linker_0, # of connection points: 3
#     Node 11, Type 0, BuildingBlock: MIDCAF_clean_linker_0, # of connection points: 3
#     Node 12, Type 0, BuildingBlock: MIDCAF_clean_linker_0, # of connection points: 3
#     Node 13, Type 0, BuildingBlock: MIDCAF_clean_linker_0, # of connection points: 3
#     Node 14, Type 0, BuildingBlock: MIDCAF_clean_linker_0, # of connection points: 3
#     Node 15, Type 0, BuildingBlock: MIDCAF_clean_linker_0, # of connection points: 3
#     Node 16, Type 1, BuildingBlock: NAHDIM_clean_sbu_0, # of connection points: 4
#     Node 17, Type 1, BuildingBlock: NAHDIM_clean_sbu_0, # of connection points: 4
#     Node 18, Type 1, BuildingBlock: NAHDIM_clean_sbu_0, # of connection points: 4
#     Node 19, Type 1, BuildingBlock: NAHDIM_clean_sbu_0, # of connection points: 4
#     Node 20, Type 1, BuildingBlock: NAHDIM_clean_sbu_0, # of connection points: 4
#     Node 21, Type 1, BuildingBlock: NAHDIM_clean_sbu_0, # of connection points: 4
#     Node 22, Type 1, BuildingBlock: NAHDIM_clean_sbu_0, # of connection points: 4
#     Node 23, Type 1, BuildingBlock: NAHDIM_clean_sbu_0, # of connection points: 4
#     Node 24, Type 1, BuildingBlock: NAHDIM_clean_sbu_0, # of connection points: 4
#     Node 25, Type 1, BuildingBlock: NAHDIM_clean_sbu_0, # of connection points: 4
#     Node 26, Type 1, BuildingBlock: NAHDIM_clean_sbu_0, # of connection points: 4
#     Node 27, Type 1, BuildingBlock: NAHDIM_clean_sbu_0, # of connection points: 4
#     Edge 28, Type (0, 1), BuildingBlock: UVAHIK_clean_linker_0, # of connection points: 2
#     Edge 29, Type (0, 1), BuildingBlock: UVAHIK_clean_linker_0, # of connection points: 2
#     Edge 30, Type (0, 1), BuildingBlock: UVAHIK_clean_linker_0, # of connection points: 2
#     Edge 31, Type (0, 1), BuildingBlock: UVAHIK_clean_linker_0, # of connection points: 2
#     Edge 32, Type (0, 1), BuildingBlock: UVAHIK_clean_linker_0, # of connection points: 2
#     Edge 33, Type (0, 1), BuildingBlock: UVAHIK_clean_linker_0, # of connection points: 2
#     Edge 34, Type (0, 1), BuildingBlock: UVAHIK_clean_linker_0, # of connection points: 2
#     Edge 35, Type (0, 1), BuildingBlock: UVAHIK_clean_linker_0, # of connection points: 2
#     Edge 36, Type (0, 1), BuildingBlock: UVAHIK_clean_linker_0, # of connection points: 2
#     Edge 37, Type (0, 1), BuildingBlock: UVAHIK_clean_linker_0, # of connection points: 2
#     Edge 38, Type (0, 1), BuildingBlock: UVAHIK_clean_linker_0, # of connection points: 2
#     Edge 39, Type (0, 1), BuildingBlock: UVAHIK_clean_linker_0, # of connection points: 2
#     Edge 40, Type (0, 1), BuildingBlock: UVAHIK_clean_linker_0, # of connection points: 2
#     Edge 41, Type (0, 1), BuildingBlock: UVAHIK_clean_linker_0, # of connection points: 2
#     Edge 42, Type (0, 1), BuildingBlock: UVAHIK_clean_linker_0, # of connection points: 2
#     Edge 43, Type (0, 1), BuildingBlock: UVAHIK_clean_linker_0, # of connection points: 2
#     Edge 44, Type (0, 1), BuildingBlock: UVAHIK_clean_linker_0, # of connection points: 2
#     Edge 45, Type (0, 1), BuildingBlock: UVAHIK_clean_linker_0, # of connection points: 2
#     Edge 46, Type (0, 1), BuildingBlock: UVAHIK_clean_linker_0, # of connection points: 2
#     Edge 47, Type (0, 1), BuildingBlock: UVAHIK_clean_linker_0, # of connection points: 2
#     Edge 48, Type (0, 1), BuildingBlock: UVAHIK_clean_linker_0, # of connection points: 2
#     Edge 49, Type (0, 1), BuildingBlock: UVAHIK_clean_linker_0, # of connection points: 2
#     Edge 50, Type (0, 1), BuildingBlock: UVAHIK_clean_linker_0, # of connection points: 2
#     Edge 51, Type (0, 1), BuildingBlock: UVAHIK_clean_linker_0, # of connection points: 2
#     Edge 52, Type (0, 1), BuildingBlock: UVAHIK_clean_linker_0, # of connection points: 2
#     Edge 53, Type (0, 1), BuildingBlock: UVAHIK_clean_linker_0, # of connection points: 2
#     Edge 54, Type (0, 1), BuildingBlock: UVAHIK_clean_linker_0, # of connection points: 2
#     Edge 55, Type (0, 1), BuildingBlock: UVAHIK_clean_linker_0, # of connection points: 2
#     Edge 56, Type (0, 1), BuildingBlock: UVAHIK_clean_linker_0, # of connection points: 2
#     Edge 57, Type (0, 1), BuildingBlock: UVAHIK_clean_linker_0, # of connection points: 2
#     Edge 58, Type (0, 1), BuildingBlock: UVAHIK_clean_linker_0, # of connection points: 2
#     Edge 59, Type (0, 1), BuildingBlock: UVAHIK_clean_linker_0, # of connection points: 2
#     Edge 60, Type (0, 1), BuildingBlock: UVAHIK_clean_linker_0, # of connection points: 2
#     Edge 61, Type (0, 1), BuildingBlock: UVAHIK_clean_linker_0, # of connection points: 2
#     Edge 62, Type (0, 1), BuildingBlock: UVAHIK_clean_linker_0, # of connection points: 2
#     Edge 63, Type (0, 1), BuildingBlock: UVAHIK_clean_linker_0, # of connection points: 2
#     Edge 64, Type (0, 1), BuildingBlock: UVAHIK_clean_linker_0, # of connection points: 2
#     Edge 65, Type (0, 1), BuildingBlock: UVAHIK_clean_linker_0, # of connection points: 2
#     Edge 66, Type (0, 1), BuildingBlock: UVAHIK_clean_linker_0, # of connection points: 2
#     Edge 67, Type (0, 1), BuildingBlock: UVAHIK_clean_linker_0, # of connection points: 2
#     Edge 68, Type (0, 1), BuildingBlock: UVAHIK_clean_linker_0, # of connection points: 2
#     Edge 69, Type (0, 1), BuildingBlock: UVAHIK_clean_linker_0, # of connection points: 2
#     Edge 70, Type (0, 1), BuildingBlock: UVAHIK_clean_linker_0, # of connection points: 2
#     Edge 71, Type (0, 1), BuildingBlock: UVAHIK_clean_linker_0, # of connection points: 2
#     Edge 72, Type (0, 1), BuildingBlock: UVAHIK_clean_linker_0, # of connection points: 2
#     Edge 73, Type (0, 1), BuildingBlock: UVAHIK_clean_linker_0, # of connection points: 2
#     Edge 74, Type (0, 1), BuildingBlock: UVAHIK_clean_linker_0, # of connection points: 2
#     Edge 75, Type (0, 1), BuildingBlock: UVAHIK_clean_linker_0, # of connection points: 2
# Relax obj value: 0.001
# Max RMSD: 0.034
# Mean RMSD: 0.016
data_MOF--net-ctn--node1-NAHDIM_clean_sbu_0--node2-MIDCAF_clean_linker_0--edge1-UVAHIK_clean_linker_0
_symmetry_space_group_name_H-M    P1
_symmetry_Int_Tables_number       1
_symmetry_cell_setting            triclinic
loop_
_symmetry_equiv_pos_as_xyz
'x, y, z'
_cell_length_a     83.678956
_cell_length_b     84.021932
_cell_length_c     83.309712
_cell_angle_alpha  91.108349
_cell_angle_beta   90.046323
_cell_angle_gamma 92.060208
loop_
_atom_site_label
_atom_site_type_symbol
_atom_site_fract_x
_atom_site_fract_y
_atom_site_fract_z
_atom_type_partial_charge
C0 C 0.98642 0.04404 0.07905 0.0
C1 C 0.98906 0.03204 0.09017 0.0
C2 C 0.00194 0.022 0.08772 0.0
C3 C 0.012 0.02395 0.07447 0.0
H4 H 0.04932 0.00368 0.05071 0.0
H5 H 0.0716 0.98627 0.04645 0.0
H6 H 0.08804 0.01522 0.00704 0.0
H7 H 0.0656 0.03244 0.011 0.0
H8 H 0.04297 0.05863 -0.00211 0.0
H9 H 0.03878 0.08055 0.97985 0.0
H10 H 0.0032 0.09893 0.01215 0.0
H11 H 0.00704 0.07685 0.02998 0.0
H12 H 0.99404 0.05538 0.05752 0.0
H13 H 0.97646 0.05182 0.08047 0.0
H14 H 0.0044 0.01276 0.09617 0.0
H15 H 0.02187 0.01604 0.07302 0.0
N16 N 0.03231 0.02823 0.0467 0.0
N17 N 0.03987 0.04249 0.02384 0.0
N18 N 0.01797 0.05035 0.03919 0.0
C19 C 0.04223 0.03029 0.03395 0.0
C20 C 0.02777 0.05257 0.02638 0.0
C21 C 0.02014 0.03821 0.0494 0.0
C22 C 0.05564 0.01951 0.03122 0.0
C23 C 0.05764 0.00634 0.0411 0.0
C24 C 0.07048 0.99638 0.03872 0.0
C25 C 0.08162 -0.00063 0.02643 0.0
C26 C 0.07955 0.01246 0.01647 0.0
C27 C 0.06671 0.02239 0.01882 0.0
C28 C 0.02532 0.06593 0.0154 0.0
C29 C 0.03423 0.06733 0.00116 0.0
C30 C 0.0319 0.07995 0.99084 0.0
C31 C 0.02065 0.09149 0.99455 0.0
C32 C 0.01178 0.0901 0.0088 0.0
C33 C 0.01405 0.07746 0.01908 0.0
C34 C 0.00941 0.036 0.06338 0.0
C35 C 0.99648 0.04601 0.06583 0.0
C36 C 0.26079 0.6512 0.22422 0.0
C37 C 0.24895 0.64704 0.21277 0.0
C38 C 0.24715 0.65677 0.19942 0.0
C39 C 0.25684 0.67051 0.19766 0.0
H40 H 0.25725 0.71513 0.17659 0.0
H41 H 0.25099 0.73457 0.15648 0.0
H42 H 0.29768 0.75744 0.16329 0.0
H43 H 0.3037 0.73838 0.18383 0.0
H44 H 0.31818 0.73409 0.22011 0.0
H45 H 0.3397 0.73998 0.23927 0.0
H46 H 0.33347 0.69278 0.25844 0.0
H47 H 0.31204 0.68675 0.23924 0.0
H48 H 0.27949 0.66774 0.23153 0.0
H49 H 0.26257 0.64382 0.23454 0.0
H50 H 0.23803 0.65392 0.19048 0.0
H51 H 0.25502 0.67782 0.18729 0.0
N52 N 0.27552 0.70006 0.19589 0.0
N53 N 0.29687 0.71676 0.20486 0.0
N54 N 0.29098 0.69278 0.21785 0.0
C55 C 0.28459 0.71369 0.19446 0.0
C56 C 0.30014 0.70637 0.2166 0.0
C57 C 0.27867 0.68952 0.20753 0.0
C58 C 0.28096 0.72522 0.18187 0.0
C59 C 0.2662 0.72429 0.17378 0.0
C60 C 0.26264 0.7354 0.16217 0.0
C61 C 0.27381 0.74761 0.15825 0.0
C62 C 0.28866 0.7484 0.16621 0.0
C63 C 0.29216 0.73739 0.17794 0.0
C64 C 0.31335 0.70993 0.22811 0.0
C65 C 0.32139 0.72493 0.22837 0.0
C66 C 0.33366 0.72836 0.23941 0.0
C67 C 0.33823 0.71685 0.25035 0.0
C68 C 0.33029 0.70184 0.25004 0.0
C69 C 0.31795 0.69843 0.23908 0.0
C70 C 0.26861 0.67477 0.20918 0.0
C71 C 0.27054 0.66488 0.22242 0.0
C72 C 0.99595 0.42165 0.99602 0.0
C73 C 0.98679 0.41933 0.98198 0.0
C74 C 0.97505 0.43028 0.97841 0.0
C75 C 0.97235 0.44313 0.98881 0.0
H76 H 0.93808 0.47533 0.00056 0.0
H77 H 0.91451 0.49109 -0.00271 0.0
H78 H 0.93144 0.52339 0.0351 0.0
H79 H 0.95478 0.5074 0.03872 0.0
H80 H 0.98011 0.49432 0.06312 0.0
H81 H 0.99585 0.49753 0.08759 0.0
H82 H 0.02738 0.46125 0.07061 0.0
H83 H 0.01146 0.45773 0.04628 0.0
H84 H 0.00053 0.43589 0.01715 0.0
H85 H 0.00521 0.41351 -0.00102 0.0
H86 H 0.96771 0.4287 0.96774 0.0
H87 H 0.96307 0.45123 0.98577 0.0
N88 N 0.96556 0.4681 0.01188 0.0
N89 N 0.97184 0.48258 0.03551 0.0
N90 N 0.98753 0.46132 0.02747 0.0
C91 C 0.96233 0.4801 0.02242 0.0
C92 C 0.98446 0.47325 0.03813 0.0
C93 C 0.97816 0.45868 0.0143 0.0
C94 C 0.94832 0.49005 0.01995 0.0
C95 C 0.93683 0.48582 0.00815 0.0
C96 C 0.92333 0.49491 0.00622 0.0
C97 C 0.92106 0.50848 0.01596 0.0
C98 C 0.93267 0.51284 0.02759 0.0
C99 C 0.94612 0.50371 0.02959 0.0
C100 C 0.99445 0.47572 0.05272 0.0
C101 C 0.99042 0.48705 0.06454 0.0
C102 C -0.0005 0.48896 0.07856 0.0
C103 C 0.01285 0.47962 0.08107 0.0
C104 C 0.01702 0.46846 0.06915 0.0
C105 C 0.00793 0.46651 0.05515 0.0
C106 C 0.98137 0.44537 0.00298 0.0
C107 C 0.99331 0.43454 0.00638 0.0
C108 C 0.72772 0.78508 0.14605 0.0
C109 C 0.72055 0.76977 0.14428 0.0
C110 C 0.70805 0.76521 0.15466 0.0
C111 C 0.70277 0.77576 0.1665 0.0
H112 H 0.67423 0.77828 0.20722 0.0
H113 H 0.65179 0.77062 0.22449 0.0
H114 H 0.64542 0.82004 0.23716 0.0
H115 H 0.66789 0.82778 0.22 0.0
H116 H 0.70277 0.84857 0.21925 0.0
H117 H 0.71778 0.87357 0.22425 0.0
H118 H 0.74454 0.86624 0.1806 0.0
H119 H 0.72952 0.84129 0.17545 0.0
H120 H 0.72829 0.80733 0.15893 0.0
H121 H 0.7375 0.78887 0.13834 0.0
H122 H 0.70215 0.75356 0.15346 0.0
H123 H 0.69306 0.77184 0.17423 0.0
N124 N 0.69174 0.7981 0.19038 0.0
N125 N 0.69394 0.82286 0.20381 0.0
N126 N 0.71158 0.8169 0.18289 0.0
C127 C 0.68649 0.80833 0.20187 0.0
C128 C 0.70652 0.82723 0.19439 0.0
C129 C 0.70426 0.80232 0.1808 0.0
C130 C 0.67285 0.80365 0.21224 0.0
C131 C 0.66804 0.78752 0.21366 0.0
C132 C 0.65526 0.78311 0.2236 0.0
C133 C 0.64691 0.79475 0.23211 0.0
C134 C 0.65161 0.81086 0.23061 0.0
C135 C 0.66452 0.81526 0.22087 0.0
C136 C 0.71499 0.84285 0.19699 0.0
C137 C 0.71176 0.85231 0.21063 0.0
C138 C 0.7204 0.8666 0.21356 0.0
C139 C 0.73235 0.87181 0.20285 0.0
C140 C 0.7353 0.86258 0.189 0.0
C141 C 0.72675 0.84823 0.18612 0.0
C142 C 0.70991 0.7911 0.16827 0.0
C143 C 0.72248 0.79563 0.15792 0.0
C144 C 0.0392 0.93306 0.50095 0.0
C145 C 0.02806 0.92079 0.49667 0.0
C146 C 0.01967 0.92175 0.48212 0.0
C147 C 0.02229 0.93472 0.47211 0.0
H148 H 0.00405 0.95577 0.43298 0.0
H149 H 0.98657 0.95907 0.41009 0.0
H150 H 0.01356 0.00176 0.39736 0.0
H151 H 0.03094 -0.0013 0.42048 0.0
H152 H 0.05928 0.01136 0.44288 0.0
H153 H 0.08102 0.03059 0.44904 0.0
H154 H 0.09319 0.00386 0.49083 0.0
H155 H 0.07136 0.98482 0.48493 0.0
H156 H 0.05048 0.95528 0.49466 0.0
H157 H 0.0457 0.93279 0.51218 0.0
H158 H 0.01118 0.91238 0.47835 0.0
H159 H 0.01562 0.93503 0.46098 0.0
N160 N 0.02688 0.96255 0.45264 0.0
N161 N 0.04113 0.98616 0.44644 0.0
N162 N 0.04794 0.97189 0.4692 0.0
C163 C 0.02927 0.97518 0.44289 0.0
C164 C 0.05053 0.98459 0.45958 0.0
C165 C 0.03615 0.96081 0.46581 0.0
C166 C 0.01891 0.97699 0.42865 0.0
C167 C 0.00633 0.96586 0.42532 0.0
C168 C 0.99634 0.96769 0.41211 0.0
C169 C -0.00132 0.98067 0.4019 0.0
C170 C 0.01133 0.99174 0.40512 0.0
C171 C 0.02134 0.98992 0.41835 0.0
C172 C 0.06355 0.99649 0.46338 0.0
C173 C 0.06654 0.0096 0.45342 0.0
C174 C 0.07905 0.0206 0.4569 0.0
C175 C 0.08882 0.01875 0.47042 0.0
C176 C 0.08574 0.00575 0.48045 0.0
C177 C 0.07326 0.99476 0.47698 0.0
C178 C 0.03342 0.94702 0.4764 0.0
C179 C 0.04187 0.94601 0.49092 0.0
C180 C 0.21476 0.74103 0.8589 0.0
C181 C 0.20444 0.75314 0.86345 0.0
C182 C 0.1898 0.75422 0.8553 0.0
C183 C 0.1856 0.74343 0.84288 0.0
H184 H 0.15682 0.73818 0.80232 0.0
H185 H 0.1353 0.74334 0.78359 0.0
H186 H 0.14203 0.69776 0.76018 0.0
H187 H 0.16338 0.69244 0.77894 0.0
H188 H 0.19705 0.67623 0.7841 0.0
H189 H 0.21492 0.65444 0.77874 0.0
H190 H 0.23851 0.66402 0.8242 0.0
H191 H 0.22066 0.68567 0.8297 0.0
H192 H 0.21887 0.7211 0.8434 0.0
H193 H 0.22626 0.74003 0.86469 0.0
H194 H 0.18147 0.76328 0.85864 0.0
H195 H 0.17422 0.74457 0.83689 0.0
N196 N 0.17903 0.72229 0.81542 0.0
N197 N 0.18455 0.69911 0.80059 0.0
N198 N 0.20065 0.70693 0.82256 0.0
C199 C 0.17539 0.71196 0.80309 0.0
C200 C 0.19719 0.6965 0.81031 0.0
C201 C 0.19166 0.71984 0.82522 0.0
C202 C 0.1619 0.71491 0.79213 0.0
C203 C 0.15367 0.7292 0.79325 0.0
C204 C 0.1414 0.73221 0.78247 0.0
C205 C 0.13701 0.72097 0.77041 0.0
C206 C 0.14503 0.70658 0.76946 0.0
C207 C 0.15735 0.70359 0.78017 0.0
C208 C 0.20745 0.68276 0.8073 0.0
C209 C 0.20596 0.67363 0.79302 0.0
C210 C 0.21624 0.6612 0.78989 0.0
C211 C 0.22811 0.65757 0.80104 0.0
C212 C 0.22937 0.66645 0.81546 0.0
C213 C 0.21919 0.67894 0.81854 0.0
C214 C 0.19593 0.73128 0.83841 0.0
C215 C 0.21054 0.7302 0.84659 0.0
C216 C 0.994 0.58748 0.50105 0.0
C217 C 0.98484 0.5905 0.51482 0.0
C218 C 0.97256 0.5795 0.519 0.0
C219 C 0.96942 0.56585 0.50951 0.0
H220 H 0.93666 0.52891 0.50276 0.0
H221 H 0.91403 0.51098 0.50875 0.0
H222 H 0.92824 0.47899 0.4706 0.0
H223 H 0.95099 0.49679 0.46462 0.0
H224 H 0.97621 0.50967 0.43902 0.0
H225 H 0.99142 0.50618 0.41435 0.0
H226 H 0.02141 0.54741 0.42712 0.0
H227 H 0.00611 0.55114 0.45158 0.0
H228 H -0.0019 0.57203 0.48096 0.0
H229 H 0.0034 0.59583 0.49739 0.0
H230 H 0.96542 0.58139 0.52965 0.0
H231 H 0.95983 0.55766 0.51305 0.0
N232 N 0.96268 0.53832 0.48889 0.0
N233 N 0.96814 0.52293 0.46589 0.0
N234 N 0.98369 0.54603 0.47186 0.0
C235 C 0.95923 0.5254 0.47928 0.0
C236 C 0.9804 0.53321 0.4621 0.0
C237 C 0.97492 0.54868 0.48528 0.0
C238 C 0.94566 0.51433 0.48317 0.0
C239 C 0.93504 0.51803 0.49566 0.0
C240 C 0.92201 0.50781 0.49906 0.0
C241 C 0.91936 0.49362 0.49012 0.0
C242 C 0.93007 0.48979 0.47778 0.0
C243 C 0.94305 0.50005 0.47431 0.0
C244 C 0.98988 0.53072 0.4473 0.0
C245 C 0.98606 0.51799 0.4366 0.0
C246 C 0.99481 0.51594 0.42248 0.0
C247 C 0.00757 0.52656 0.41876 0.0
C248 C 0.01148 0.53918 0.42951 0.0
C249 C 0.00274 0.54124 0.44361 0.0
C250 C 0.97849 0.56291 0.49563 0.0
C251 C 0.99087 0.57385 0.49157 0.0
C252 C 0.84329 0.77215 0.76138 0.0
C253 C 0.8456 0.78358 0.74944 0.0
C254 C 0.83584 0.79683 0.74938 0.0
C255 C 0.8239 0.79854 0.76092 0.0
H256 H 0.78511 0.82477 0.77155 0.0
H257 H 0.76652 0.84628 0.76959 0.0
H258 H 0.74415 0.83173 0.8139 0.0
H259 H 0.7628 0.81026 0.81604 0.0
H260 H 0.76786 0.77387 0.8261 0.0
H261 H 0.76326 0.75314 0.84579 0.0
H262 H 0.80951 0.7344 0.83507 0.0
H263 H 0.81422 0.75514 0.81536 0.0
H264 H 0.82991 0.76478 0.78193 0.0
H265 H 0.85078 0.76192 0.76187 0.0
H266 H 0.83724 0.80576 0.74023 0.0
H267 H 0.81651 0.80884 0.7604 0.0
N268 N 0.79856 0.80099 0.78418 0.0
N269 N 0.78425 0.79106 0.80621 0.0
N270 N 0.80621 0.77746 0.79622 0.0
C271 C 0.78642 0.80233 0.79488 0.0
C272 C 0.7941 0.7786 0.80697 0.0
C273 C 0.80852 0.7886 0.78477 0.0
C274 C 0.77544 0.81571 0.79393 0.0
C275 C 0.77629 0.82615 0.78094 0.0
C276 C 0.76559 0.83844 0.77975 0.0
C277 C 0.75386 0.84063 0.79156 0.0
C278 C 0.75316 0.83039 0.80469 0.0
C279 C 0.7638 0.81803 0.80584 0.0
C280 C 0.79141 0.76618 0.81913 0.0
C281 C 0.77709 0.76537 0.82794 0.0
C282 C 0.77439 0.75344 0.83915 0.0
C283 C 0.78601 0.74216 0.8419 0.0
C284 C 0.80039 0.74302 0.83324 0.0
C285 C 0.80304 0.75486 0.82191 0.0
C286 C 0.82147 0.78703 0.7728 0.0
C287 C 0.83138 0.77386 0.77294 0.0
C288 C 0.3377 0.26979 0.25228 0.0
C289 C 0.34038 0.28155 0.24073 0.0
C290 C 0.33078 0.29493 0.24088 0.0
C291 C 0.31874 0.29651 0.25234 0.0
H292 H 0.28677 0.32836 0.27062 0.0
H293 H 0.26942 0.35102 0.26983 0.0
H294 H 0.2365 0.32734 0.3022 0.0
H295 H 0.2538 0.30461 0.30304 0.0
H296 H 0.26925 0.27743 0.32465 0.0
H297 H 0.26647 0.25807 0.34591 0.0
H298 H 0.30246 0.22967 0.32334 0.0
H299 H 0.30518 0.24889 0.30191 0.0
H300 H 0.32402 0.2621 0.2725 0.0
H301 H 0.34505 0.25945 0.2526 0.0
H302 H 0.33246 0.30411 0.23202 0.0
H303 H 0.31156 0.30697 0.25208 0.0
N304 N 0.29379 0.29917 0.27603 0.0
N305 N 0.28003 0.28954 0.29854 0.0
N306 N 0.30115 0.27533 0.28762 0.0
C307 C 0.28208 0.30078 0.28716 0.0
C308 C 0.28953 0.27679 0.29887 0.0
C309 C 0.30335 0.28646 0.27615 0.0
C310 C 0.27167 0.31464 0.28687 0.0
C311 C 0.27585 0.32795 0.27758 0.0
C312 C 0.26597 0.34098 0.2772 0.0
C313 C 0.25164 0.34091 0.28596 0.0
C314 C 0.24744 0.32764 0.29525 0.0
C315 C 0.2574 0.31467 0.29578 0.0
C316 C 0.28749 0.26477 0.31156 0.0
C317 C 0.27655 0.26704 0.32414 0.0
C318 C 0.27501 0.256 0.33639 0.0
C319 C 0.2843 0.2424 0.33632 0.0
C320 C 0.29504 0.23997 0.32364 0.0
C321 C 0.29665 0.25106 0.31141 0.0
C322 C 0.31607 0.28476 0.26394 0.0
C323 C 0.32569 0.27138 0.26376 0.0
C324 C 0.49956 0.92697 0.48997 0.0
C325 C 0.48971 0.92411 0.47649 0.0
C326 C 0.47699 0.93421 0.4738 0.0
C327 C 0.47382 0.94653 0.48471 0.0
H328 H 0.44127 0.9809 0.49495 0.0
H329 H 0.41706 0.99594 0.49239 0.0
H330 H 0.42406 0.01513 0.54047 0.0
H331 H 0.44838 0.00046 0.54296 0.0
H332 H 0.47427 0.98589 0.56513 0.0
H333 H 0.48897 0.98704 0.5903 0.0
H334 H 0.52901 0.96521 0.56693 0.0
H335 H 0.51402 0.96346 0.54186 0.0
H336 H 0.5041 0.94093 0.51127 0.0
H337 H 0.5096 0.91953 0.49222 0.0
H338 H 0.46912 0.93222 0.46358 0.0
H339 H 0.46366 0.95381 0.48249 0.0
N340 N 0.46589 0.96983 0.50915 0.0
N341 N 0.47039 0.98176 0.53448 0.0
N342 N 0.48796 0.96288 0.52454 0.0
C343 C 0.46147 0.98023 0.52088 0.0
C344 C 0.48367 0.97318 0.53638 0.0
C345 C 0.47913 0.96111 0.51088 0.0
C346 C 0.44683 0.98946 0.51915 0.0
C347 C 0.43769 0.98836 0.50497 0.0
C348 C 0.42375 0.9969 0.50353 0.0
C349 C 0.41864 0.00673 0.51623 0.0
C350 C 0.42779 0.00785 0.53038 0.0
C351 C 0.44172 -0.00065 0.53182 0.0
C352 C 0.49295 0.97454 0.55149 0.0
C353 C 0.48624 0.98139 0.56533 0.0
C354 C 0.49472 0.98213 0.57977 0.0
C355 C 0.5102 0.97622 0.58068 0.0
C356 C 0.51701 0.96961 0.56675 0.0
C357 C 0.50845 0.96869 0.55234 0.0
C358 C 0.48332 0.94903 0.49853 0.0
C359 C 0.49643 0.9393 0.50085 0.0
C360 C 0.21971 0.28656 0.64145 0.0
C361 C 0.2136 0.27077 0.64153 0.0
C362 C 0.20285 0.26613 0.65364 0.0
C363 C 0.19831 0.27704 0.66547 0.0
H364 H 0.17023 0.28133 0.7056 0.0
H365 H 0.1484 0.2743 0.72381 0.0
H366 H 0.14521 0.3237 0.73824 0.0
H367 H 0.16713 0.33083 0.72009 0.0
H368 H 0.20409 0.34904 0.71837 0.0
H369 H 0.22173 0.37225 0.72373 0.0
H370 H 0.24445 0.36536 0.67773 0.0
H371 H 0.22681 0.34218 0.67225 0.0
H372 H 0.22029 0.30951 0.65301 0.0
H373 H 0.22811 0.29041 0.6323 0.0
H374 H 0.19783 0.25407 0.65389 0.0
H375 H 0.19002 0.27304 0.67465 0.0
N376 N 0.18777 0.30058 0.68844 0.0
N377 N 0.19205 0.32494 0.70223 0.0
N378 N 0.20822 0.31839 0.68027 0.0
C379 C 0.18367 0.31088 0.70036 0.0
C380 C 0.20436 0.32878 0.69223 0.0
C381 C 0.19998 0.30427 0.67829 0.0
C382 C 0.17042 0.30665 0.71139 0.0
C383 C 0.16488 0.29072 0.71262 0.0
C384 C 0.15246 0.28666 0.72311 0.0
C385 C 0.14517 0.29847 0.7324 0.0
C386 C 0.15059 0.3144 0.73111 0.0
C387 C 0.16318 0.31845 0.72079 0.0
C388 C 0.2141 0.34365 0.69492 0.0
C389 C 0.21271 0.35254 0.7093 0.0
C390 C 0.22287 0.36579 0.71243 0.0
C391 C 0.23451 0.37053 0.70119 0.0
C392 C 0.23551 0.36203 0.68657 0.0
C393 C 0.22546 0.34869 0.68349 0.0
C394 C 0.20453 0.29282 0.66552 0.0
C395 C 0.21528 0.29746 0.65336 0.0
C396 C 0.75543 0.15408 0.72868 0.0
C397 C 0.74453 0.1495 0.71647 0.0
C398 C 0.74413 0.15847 0.70244 0.0
C399 C 0.75433 0.17184 0.7007 0.0
H400 H 0.7565 0.21719 0.67948 0.0
H401 H 0.75237 0.23546 0.65753 0.0
H402 H 0.8012 0.25329 0.66218 0.0
H403 H 0.80538 0.23517 0.68427 0.0
H404 H 0.81701 0.23398 0.72318 0.0
H405 H 0.83811 0.23978 0.74281 0.0
H406 H 0.82924 0.1937 0.76376 0.0
H407 H 0.80819 0.18776 0.7441 0.0
H408 H 0.77398 0.17056 0.73656 0.0
H409 H 0.75609 0.14728 0.73956 0.0
H410 H 0.73574 0.1553 0.6929 0.0
H411 H 0.75364 0.17852 0.68975 0.0
N412 N 0.77391 0.20075 0.69878 0.0
N413 N 0.79573 0.21681 0.70775 0.0
N414 N 0.78804 0.19386 0.72177 0.0
C415 C 0.78373 0.21381 0.69701 0.0
C416 C 0.79794 0.2069 0.72019 0.0
C417 C 0.77602 0.19068 0.71109 0.0
C418 C 0.78127 0.22475 0.68362 0.0
C419 C 0.76638 0.22498 0.67582 0.0
C420 C 0.76397 0.23547 0.66332 0.0
C421 C 0.77647 0.24574 0.65822 0.0
C422 C 0.79141 0.24541 0.66587 0.0
C423 C 0.79375 0.23511 0.67855 0.0
C424 C 0.81087 0.21039 0.73203 0.0
C425 C 0.81954 0.22505 0.73193 0.0
C426 C 0.83157 0.22843 0.74325 0.0
C427 C 0.83528 0.21721 0.75482 0.0
C428 C 0.82671 0.20253 0.75489 0.0
C429 C 0.8146 0.19917 0.74365 0.0
C430 C 0.76525 0.17646 0.71291 0.0
C431 C 0.76573 0.16737 0.7269 0.0
C432 C 0.4853 0.5411 0.57521 0.0
C433 C 0.49069 0.53303 0.5887 0.0
C434 C 0.5058 0.52621 0.58809 0.0
C435 C 0.5153 0.52752 0.57437 0.0
H436 H 0.5501 0.50385 0.54817 0.0
H437 H 0.57324 0.48742 0.54477 0.0
H438 H 0.59067 0.51794 0.50696 0.0
H439 H 0.56731 0.53413 0.51002 0.0
H440 H 0.54231 0.55775 0.49465 0.0
H441 H 0.53816 0.57986 0.47675 0.0
H442 H 0.50138 0.59708 0.50826 0.0
H443 H 0.50553 0.57513 0.52625 0.0
H444 H 0.49038 0.54895 0.55143 0.0
H445 H 0.47361 0.54623 0.57512 0.0
H446 H 0.51047 0.52013 0.59833 0.0
H447 H 0.52694 0.52229 0.5744 0.0
N448 N 0.53307 0.52845 0.54448 0.0
N449 N 0.53986 0.54213 0.52105 0.0
N450 N 0.51752 0.54939 0.53608 0.0
C451 C 0.54284 0.53048 0.53162 0.0
C452 C 0.5272 0.55163 0.52319 0.0
C453 C 0.52036 0.53784 0.54677 0.0
C454 C 0.55682 0.52035 0.52938 0.0
C455 C 0.55884 0.50706 0.5391 0.0
C456 C 0.57217 0.49768 0.53722 0.0
C457 C 0.58385 0.50139 0.52563 0.0
C458 C 0.58179 0.51461 0.51585 0.0
C459 C 0.56841 0.52395 0.51767 0.0
C460 C 0.5243 0.56466 0.51194 0.0
C461 C 0.53331 0.56621 0.49777 0.0
C462 C 0.53088 0.57882 0.48746 0.0
C463 C 0.5195 0.59021 0.49116 0.0
C464 C 0.51038 0.58859 0.50522 0.0
C465 C 0.51271 0.57593 0.51546 0.0
C466 C 0.51001 0.53585 0.56102 0.0
C467 C 0.49489 0.54258 0.56157 0.0
C468 C 0.54209 0.43097 -0.00208 0.0
C469 C 0.53131 0.41846 0.99343 0.0
C470 C 0.52297 0.41938 0.97884 0.0
C471 C 0.52515 0.43262 0.9691 0.0
H472 H 0.50372 0.45544 0.93266 0.0
H473 H 0.48522 0.45917 0.9107 0.0
H474 H 0.51197 0.50179 0.89725 0.0
H475 H 0.53032 0.49832 0.9195 0.0
H476 H 0.55687 0.51271 0.94343 0.0
H477 H 0.57715 0.53317 0.95059 0.0
H478 H 0.5928 0.50449 0.9897 0.0
H479 H 0.57242 0.4842 0.98283 0.0
H480 H 0.55259 0.45369 0.99211 0.0
H481 H 0.54855 0.43074 0.00918 0.0
H482 H 0.51477 0.40982 0.9749 0.0
H483 H 0.51845 0.43294 0.95799 0.0
N484 N 0.52799 0.46139 0.9508 0.0
N485 N 0.54084 0.48598 0.94548 0.0
N486 N 0.54899 0.47101 0.9673 0.0
C487 C 0.52947 0.47457 0.94166 0.0
C488 C 0.55066 0.48427 0.95829 0.0
C489 C 0.53771 0.45951 0.96362 0.0
C490 C 0.51852 0.47661 0.92792 0.0
C491 C 0.50573 0.4656 0.92502 0.0
C492 C 0.49515 0.46768 0.91235 0.0
C493 C 0.49711 0.48077 0.90221 0.0
C494 C 0.50999 0.4917 0.90498 0.0
C495 C 0.52056 0.48965 0.9177 0.0
C496 C 0.56298 0.49677 0.96254 0.0
C497 C 0.5646 0.51076 0.95358 0.0
C498 C 0.57627 0.52247 0.95764 0.0
C499 C 0.58655 0.52047 0.97074 0.0
C500 C 0.5849 0.50652 0.9797 0.0
C501 C 0.57326 0.49482 0.97567 0.0
C502 C 0.53578 0.44523 0.9737 0.0
C503 C 0.54433 0.44419 0.98816 0.0
C504 C 0.71535 0.24684 0.35421 0.0
C505 C 0.70528 0.25965 0.3568 0.0
C506 C 0.69067 0.25983 0.3485 0.0
C507 C 0.68631 0.24753 0.33766 0.0
H508 H 0.65568 0.23692 0.30053 0.0
H509 H 0.63428 0.24073 0.28136 0.0
H510 H 0.64332 0.19512 0.25904 0.0
H511 H 0.66462 0.19111 0.27833 0.0
H512 H 0.69714 0.17468 0.28636 0.0
H513 H 0.71553 0.15311 0.28236 0.0
H514 H 0.74062 0.16762 0.32584 0.0
H515 H 0.72222 0.18908 0.33 0.0
H516 H 0.71907 0.22485 0.34174 0.0
H517 H 0.72658 0.24629 0.36061 0.0
H518 H 0.68272 0.26962 0.35018 0.0
H519 H 0.67503 0.24812 0.33136 0.0
N520 N 0.67927 0.22325 0.31334 0.0
N521 N 0.68489 0.19893 0.30066 0.0
N522 N 0.70124 0.20896 0.32163 0.0
C523 C 0.67557 0.2118 0.30207 0.0
C524 C 0.69771 0.1974 0.31044 0.0
C525 C 0.69208 0.22191 0.32318 0.0
C526 C 0.66198 0.21373 0.29095 0.0
C527 C 0.65309 0.22763 0.29162 0.0
C528 C 0.64086 0.22987 0.28057 0.0
C529 C 0.6372 0.21827 0.26864 0.0
C530 C 0.64579 0.20421 0.26819 0.0
C531 C 0.65807 0.20197 0.2792 0.0
C532 C 0.70823 0.1837 0.30846 0.0
C533 C 0.70648 0.17322 0.29515 0.0
C534 C 0.71707 0.16091 0.2928 0.0
C535 C 0.72954 0.15874 0.30375 0.0
C536 C 0.73103 0.16892 0.31727 0.0
C537 C 0.72053 0.18129 0.31958 0.0
C538 C 0.69643 0.23474 0.33499 0.0
C539 C 0.71096 0.2345 0.34347 0.0
C540 C 0.4957 0.08877 -0.00281 0.0
C541 C 0.48643 0.09175 0.01089 0.0
C542 C 0.47403 0.0808 0.01485 0.0
C543 C 0.47088 0.06724 0.00524 0.0
H544 H 0.43818 0.03037 -0.00177 0.0
H545 H 0.4152 0.01278 0.00368 0.0
H546 H 0.42882 0.98154 0.96462 0.0
H547 H 0.45162 -0.00071 0.95887 0.0
H548 H 0.4772 0.01256 0.93369 0.0
H549 H 0.49334 0.00852 0.90975 0.0
H550 H 0.52674 0.04578 0.92614 0.0
H551 H 0.51046 0.05013 0.94984 0.0
H552 H 0.49991 0.07342 0.97703 0.0
H553 H 0.5052 0.09709 0.99368 0.0
H554 H 0.4668 0.08265 0.02546 0.0
H555 H 0.46121 0.05909 0.00863 0.0
N556 N 0.464 0.04005 0.98423 0.0
N557 N 0.46989 0.02451 0.96146 0.0
N558 N 0.48574 0.04729 0.9679 0.0
C559 C 0.46059 0.02718 0.97453 0.0
C560 C 0.48249 0.03451 0.95807 0.0
C561 C 0.47657 0.05016 0.981 0.0
C562 C 0.44677 0.0163 0.97808 0.0
C563 C 0.43633 0.01975 0.99079 0.0
C564 C 0.42318 0.00961 0.99399 0.0
C565 C 0.42018 0.99576 0.98459 0.0
C566 C 0.43067 0.99224 0.97195 0.0
C567 C 0.4438 0.0024 0.96871 0.0
C568 C 0.49248 0.03171 0.94369 0.0
C569 C 0.48799 0.01988 0.93222 0.0
C570 C 0.49729 0.01751 0.91851 0.0
C571 C 0.51131 0.02686 0.91601 0.0
C572 C 0.51586 0.03856 0.92756 0.0
C573 C 0.50655 0.04099 0.94121 0.0
C574 C 0.48008 0.06433 0.99144 0.0
C575 C 0.49258 0.07523 0.98758 0.0
C576 C 0.22132 0.90593 0.00633 0.0
O577 O 0.22727 0.90311 0.992 0.0
O578 O 0.24393 0.87303 0.99572 0.0
Zn579 Zn 0.24717 0.88682 0.01556 0.0
O580 O 0.26679 0.90094 0.01292 0.0
C581 C 0.24 0.86109 0.03664 0.0
O582 O 0.22849 0.85823 0.02611 0.0
O583 O 0.22802 0.90022 0.01852 0.0
C584 C 0.28062 0.89546 0.01472 0.0
O585 O 0.28193 0.88047 0.01854 0.0
C586 C 0.25068 0.85982 0.99381 0.0
O587 O 0.26036 0.85499 0.00499 0.0
O588 O 0.24953 0.87302 0.03476 0.0
C589 C 0.14913 0.47275 0.26571 0.0
O590 O 0.15342 0.48718 0.27079 0.0
O591 O 0.10861 0.49308 0.27334 0.0
Zn592 Zn 0.12259 0.48942 0.25417 0.0
O593 O 0.13705 0.50859 0.2505 0.0
C594 C 0.10238 0.49731 0.22833 0.0
O595 O 0.10472 0.51154 0.23492 0.0
O596 O 0.13603 0.47059 0.25811 0.0
C597 C 0.14488 0.50964 0.23749 0.0
O598 O 0.14333 0.49812 0.22665 0.0
C599 C 0.10483 0.50697 0.27787 0.0
O600 O 0.11027 0.51934 0.26987 0.0
O601 O 0.10885 0.48549 0.23464 0.0
C602 C 0.78218 0.60264 0.99698 0.0
O603 O 0.77516 0.60328 0.9829 0.0
O604 O 0.76388 0.6368 0.98306 0.0
Zn605 Zn 0.75957 0.62612 0.00416 0.0
O606 O 0.73873 0.61356 0.00323 0.0
C607 C 0.75765 0.65741 0.01876 0.0
O608 O 0.75785 0.66184 0.00373 0.0
O609 O 0.77737 0.61143 0.00844 0.0
C610 C 0.72557 0.62064 0.00307 0.0
O611 O 0.72577 0.63629 0.00362 0.0
C612 C 0.7556 0.6342 0.97043 0.0
O613 O 0.74354 0.62376 0.97065 0.0
O614 O 0.75846 0.64271 0.02189 0.0
C615 C 0.84687 0.04115 0.27256 0.0
O616 O 0.84882 0.02955 0.28266 0.0
O617 O 0.88096 0.01689 0.27215 0.0
Zn618 Zn 0.86643 0.02142 0.25375 0.0
O619 O 0.85074 0.00319 0.24965 0.0
C620 C 0.88515 0.01296 0.22663 0.0
O621 O 0.88159 -0.00134 0.23195 0.0
O622 O 0.85379 0.04061 0.25901 0.0
C623 C 0.84214 0.00353 0.2371 0.0
O624 O 0.84401 0.01557 0.22736 0.0
C625 C 0.88485 0.00284 0.27541 0.0
O626 O 0.87892 0.9908 0.26675 0.0
O627 O 0.87981 0.025 0.23406 0.0
C628 C 0.27854 0.09961 0.50141 0.0
O629 O 0.2661 0.09447 0.49291 0.0
O630 O 0.26777 0.14165 0.48269 0.0
Zn631 Zn 0.26164 0.12884 0.50188 0.0
O632 O 0.24105 0.11677 0.49702 0.0
C633 C 0.25129 0.15677 0.51757 0.0
O634 O 0.24665 0.15949 0.50284 0.0
O635 O 0.27911 0.11389 0.50674 0.0
C636 C 0.2315 0.11248 0.50809 0.0
O637 O 0.23526 0.11591 0.52311 0.0
C638 C 0.26806 0.13562 0.46861 0.0
O639 O 0.26472 0.12032 0.46649 0.0
O640 O 0.25829 0.14395 0.52042 0.0
C641 C 0.34614 0.54073 0.76941 0.0
O642 O 0.34729 0.52863 0.77906 0.0
O643 O 0.38064 0.5174 0.77125 0.0
Zn644 Zn 0.36747 0.522 0.75173 0.0
O645 O 0.35198 0.50382 0.74621 0.0
C646 C 0.39495 0.51903 0.73152 0.0
O647 O 0.39864 0.50862 0.74236 0.0
O648 O 0.35427 0.54091 0.75654 0.0
C649 C 0.35518 0.49204 0.73713 0.0
O650 O 0.36959 0.49106 0.73105 0.0
C651 C 0.38276 0.50343 0.77622 0.0
O652 O 0.3759 0.49118 0.76859 0.0
O653 O 0.38207 0.52648 0.73302 0.0
C654 C 0.72251 0.40602 0.50747 0.0
O655 O 0.72944 0.40472 0.49338 0.0
O656 O 0.74144 0.37193 0.49407 0.0
Zn657 Zn 0.74602 0.38387 0.51485 0.0
O658 O 0.76632 0.39743 0.51346 0.0
C659 C 0.75313 0.35444 0.52975 0.0
O660 O 0.75765 0.35074 0.51509 0.0
O661 O 0.72771 0.39812 0.5191 0.0
C662 C 0.78009 0.39172 0.51498 0.0
O663 O 0.78128 0.37644 0.51753 0.0
C664 C 0.75084 0.37149 0.48211 0.0
O665 O 0.76471 0.37929 0.48286 0.0
O666 O 0.74761 0.36811 0.53263 0.0
C667 C 0.64435 0.96605 0.76819 0.0
O668 O 0.64266 0.97755 0.77891 0.0
O669 O 0.61066 0.99015 0.76999 0.0
Zn670 Zn 0.62399 0.9856 0.75041 0.0
O671 O 0.63902 0.00415 0.74552 0.0
C672 C 0.59623 0.98711 0.73022 0.0
O673 O 0.59158 0.99684 0.74168 0.0
O674 O 0.63724 0.96679 0.75477 0.0
C675 C 0.63477 0.01599 0.73749 0.0
O676 O 0.62 0.01637 0.73221 0.0
C677 C 0.60986 0.00389 0.77651 0.0
O678 O 0.61804 0.01593 0.7704 0.0
O679 O 0.60969 0.98068 0.73143 0.0
C680 C 0.9952 0.22411 0.89182 0.0
O681 O 0.98109 0.23047 0.89138 0.0
O682 O 0.98075 0.24409 0.8582 0.0
Zn683 Zn 0.00184 0.24849 0.86944 0.0
O684 O 0.00117 0.26816 0.88361 0.0
C685 C 0.01612 0.25698 0.83932 0.0
O686 O 0.00137 0.26067 0.83598 0.0
O687 O 0.00641 0.2299 0.88321 0.0
C688 C 0.00247 0.28209 0.87796 0.0
O689 O 0.00418 0.28379 0.86242 0.0
C690 C 0.96877 0.25289 0.85958 0.0
O691 O 0.96977 0.26565 0.86893 0.0
O692 O 0.01922 0.25132 0.85297 0.0
C693 C 0.49469 0.72438 0.39063 0.0
O694 O 0.48012 0.72924 0.38841 0.0
O695 O 0.48138 0.74513 0.35745 0.0
Zn696 Zn 0.50206 0.74982 0.36929 0.0
O697 O 0.50114 0.76998 0.38268 0.0
C698 C 0.51694 0.75702 0.33915 0.0
O699 O 0.50222 0.7603 0.33529 0.0
O700 O 0.5063 0.73153 0.38366 0.0
C701 C 0.50126 0.78359 0.37627 0.0
O702 O 0.50176 0.78451 0.36056 0.0
C703 C 0.46887 0.75318 0.35885 0.0
O704 O 0.46884 0.76545 0.36886 0.0
O705 O 0.51985 0.75212 0.35317 0.0
C706 C -0.00145 0.78793 0.60045 0.0
O707 O 0.98425 0.78099 0.60098 0.0
O708 O 0.98392 0.76872 0.6354 0.0
Zn709 Zn 0.00408 0.76434 0.62329 0.0
O710 O 0.00091 0.74463 0.60956 0.0
C711 C 0.02096 0.74851 0.64741 0.0
O712 O 0.0093 0.73791 0.64469 0.0
O713 O 0.00957 0.7828 0.60925 0.0
C714 C 0.01275 0.73746 0.60374 0.0
O715 O 0.0273 0.74327 0.60657 0.0
C716 C 0.97333 0.75784 0.63791 0.0
O717 O 0.97545 0.74339 0.63221 0.0
O718 O 0.0215 0.7612 0.63935 0.0
C719 C 0.50016 0.28745 0.09911 0.0
O720 O 0.4859 0.28038 0.09911 0.0
O721 O 0.48443 0.26825 0.13374 0.0
Zn722 Zn 0.50484 0.26386 0.12205 0.0
O723 O 0.50177 0.24443 0.10792 0.0
C724 C 0.52132 0.24706 0.14578 0.0
O725 O 0.50978 0.23651 0.1424 0.0
O726 O 0.51087 0.28243 0.10836 0.0
C727 C 0.51368 0.23754 0.10188 0.0
O728 O 0.52816 0.24348 0.10474 0.0
C729 C 0.47376 0.25734 0.13582 0.0
O730 O 0.47605 0.24295 0.13005 0.0
O731 O 0.5219 0.26013 0.13834 0.0
C732 C 0.2057 0.78083 0.8755 0.0
C733 C 0.20903 0.7646 0.8766 0.0
C734 C 0.21041 0.79162 0.88773 0.0
C735 C 0.23936 0.79731 0.9206 0.0
H736 H 0.20966 0.82779 0.93745 0.0
C737 C 0.252 0.83386 0.97874 0.0
C738 C 0.24693 0.84961 0.97957 0.0
C739 C 0.2478 0.82397 0.96563 0.0
C740 C 0.21819 0.81953 0.93272 0.0
H741 H 0.21954 0.74695 0.89167 0.0
H742 H 0.22797 0.76582 0.91283 0.0
H743 H 0.20135 0.80968 0.91554 0.0
H744 H 0.23385 0.86749 0.9671 0.0
H745 H 0.22685 0.85034 0.94407 0.0
H746 H 0.25627 0.80719 0.93763 0.0
C747 C 0.22188 0.7702 0.90241 0.0
C748 C 0.2134 0.80913 0.9202 0.0
C749 C 0.21707 0.75941 0.89027 0.0
C750 C 0.23785 0.85537 0.96687 0.0
C751 C 0.23375 0.84551 0.95371 0.0
C752 C 0.2442 0.80778 0.93303 0.0
C753 C 0.21865 0.78642 0.90124 0.0
C754 C 0.22389 0.79783 0.91412 0.0
C755 C 0.23855 0.82964 0.953 0.0
C756 C 0.23363 0.81893 0.93934 0.0
H757 H 0.19974 0.78528 0.86504 0.0
H758 H 0.2079 0.80409 0.88646 0.0
H759 H 0.24777 0.78887 0.91597 0.0
H760 H 0.25894 0.82905 0.98837 0.0
H761 H 0.2515 0.81175 0.9656 0.0
C762 C 0.02121 0.50934 0.39839 0.0
C763 C 0.0168 0.52454 0.4037 0.0
C764 C 0.03023 0.50753 0.38441 0.0
C765 C 0.05796 0.52969 0.35802 0.0
H766 H 0.04823 0.49507 0.32771 0.0
C767 C 0.08985 0.52441 0.29687 0.0
C768 C 0.0944 0.50913 0.292 0.0
C769 C 0.08001 0.52642 0.31025 0.0
C770 C 0.05119 0.50471 0.33615 0.0
H771 H 0.01799 0.5497 0.39826 0.0
H772 H 0.03377 0.54654 0.37391 0.0
H773 H 0.03162 0.49828 0.35153 0.0
H774 H 0.0922 0.48396 0.29734 0.0
H775 H 0.07521 0.48749 0.32075 0.0
H776 H 0.07758 0.53605 0.34272 0.0
C777 C 0.03048 0.53606 0.38069 0.0
C778 C 0.04168 0.50654 0.34978 0.0
C779 C 0.02145 0.53786 0.39464 0.0
C780 C 0.08888 0.49589 0.30075 0.0
C781 C 0.07905 0.49791 0.31411 0.0
C782 C 0.06748 0.52784 0.34441 0.0
C783 C 0.03504 0.52089 0.37547 0.0
C784 C 0.04498 0.51903 0.36087 0.0
C785 C 0.07452 0.51319 0.31902 0.0
C786 C 0.06423 0.5153 0.33334 0.0
H787 H 0.01799 0.49887 0.40521 0.0
H788 H 0.03374 0.49571 0.3808 0.0
H789 H 0.06095 0.53929 0.36648 0.0
H790 H 0.09385 0.53484 0.29036 0.0
H791 H 0.07657 0.53833 0.31361 0.0
C792 C 0.76844 0.72098 0.85419 0.0
C793 C 0.78313 0.72957 0.85384 0.0
C794 C 0.76558 0.70933 0.86567 0.0
C795 C 0.78613 0.68434 0.89506 0.0
H796 H 0.7443 0.68192 0.91509 0.0
C797 C 0.7733 0.65284 0.95484 0.0
C798 C 0.75916 0.64337 0.95584 0.0
C799 C 0.77638 0.66207 0.94136 0.0
C800 C 0.75597 0.68233 0.90946 0.0
H801 H 0.80636 0.73279 0.8652 0.0
H802 H 0.80129 0.71271 0.88549 0.0
H803 H 0.74939 0.70064 0.89357 0.0
H804 H 0.73725 0.63598 0.94341 0.0
H805 H 0.7426 0.65228 0.9199 0.0
H806 H 0.79278 0.66633 0.91139 0.0
C807 C 0.79208 0.71466 0.87667 0.0
C808 C 0.7589 0.69302 0.8971 0.0
C809 C 0.79498 0.72621 0.8651 0.0
C810 C 0.74826 0.64315 0.94299 0.0
C811 C 0.75127 0.65252 0.92958 0.0
C812 C 0.78323 0.67374 0.90753 0.0
C813 C 0.77732 0.70612 0.87715 0.0
C814 C 0.77404 0.69424 0.88982 0.0
C815 C 0.76531 0.66214 0.92869 0.0
C816 C 0.76816 0.67272 0.91491 0.0
H817 H 0.75918 0.72318 0.8455 0.0
H818 H 0.75419 0.70278 0.8655 0.0
H819 H 0.79784 0.68476 0.88953 0.0
H820 H 0.78195 0.65324 0.96453 0.0
H821 H 0.78723 0.66949 0.94106 0.0
C822 C 0.98239 0.96964 0.37867 0.0
C823 C 0.98774 0.9828 0.38814 0.0
C824 C 0.97162 0.97156 0.36609 0.0
C825 C 0.95574 0.00168 0.33932 0.0
H826 H 0.91985 0.97145 0.3345 0.0
C827 C 0.90255 0.0131 0.2978 0.0
C828 C 0.89638 0.00019 0.28845 0.0
C829 C 0.91382 0.01072 0.3098 0.0
C830 C 0.92991 0.97988 0.33556 0.0
H831 H 0.98597 0.0083 0.39184 0.0
H832 H 0.96723 0.01166 0.36986 0.0
H833 H 0.93961 0.96777 0.35551 0.0
H834 H 0.89711 0.97463 0.28446 0.0
H835 H 0.9169 0.97051 0.30535 0.0
H836 H 0.94604 0.01381 0.3194 0.0
C837 C 0.97151 -0.00012 0.37203 0.0
C838 C 0.94123 0.97777 0.34759 0.0
C839 C 0.98226 -0.00204 0.38462 0.0
C840 C 0.9016 0.98482 0.29148 0.0
C841 C 0.91289 0.98245 0.30349 0.0
C842 C 0.94444 0.00378 0.32728 0.0
C843 C 0.966 0.98669 0.3627 0.0
C844 C 0.95422 0.98869 0.34965 0.0
C845 C 0.91918 0.99539 0.31272 0.0
C846 C 0.93135 0.99295 0.32532 0.0
H847 H 0.98659 0.95784 0.38091 0.0
H848 H 0.96778 0.96121 0.35895 0.0
H849 H 0.96576 0.01016 0.34045 0.0
H850 H 0.89873 0.02509 0.29583 0.0
H851 H 0.91824 0.0209 0.31688 0.0
C852 C 0.21864 0.26328 0.61279 0.0
C853 C 0.21843 0.25914 0.62903 0.0
C854 C 0.22289 0.2522 0.60098 0.0
C855 C 0.22631 0.20883 0.59385 0.0
H856 H 0.25102 0.22241 0.55687 0.0
C857 C 0.25089 0.16465 0.54672 0.0
C858 C 0.24834 0.16847 0.53059 0.0
C859 C 0.24782 0.17569 0.55899 0.0
C860 C 0.24403 0.21848 0.56709 0.0
H861 H 0.22286 0.24034 0.64574 0.0
H862 H 0.23056 0.22105 0.62517 0.0
H863 H 0.24477 0.24178 0.57792 0.0
H864 H 0.24075 0.18691 0.51467 0.0
H865 H 0.2355 0.20618 0.5361 0.0
H866 H 0.22573 0.1855 0.58302 0.0
C867 C 0.22708 0.23272 0.62148 0.0
C868 C 0.24041 0.22957 0.57912 0.0
C869 C 0.22271 0.24377 0.63327 0.0
C870 C 0.24282 0.18359 0.52698 0.0
C871 C 0.2399 0.19467 0.53923 0.0
C872 C 0.23005 0.19773 0.58187 0.0
C873 C 0.22714 0.23677 0.60518 0.0
C874 C 0.2314 0.2249 0.5926 0.0
C875 C 0.24231 0.19081 0.55536 0.0
C876 C 0.23885 0.20247 0.56833 0.0
H877 H 0.21521 0.275 0.60918 0.0
H878 H 0.22254 0.25564 0.58853 0.0
H879 H 0.21913 0.20487 0.60392 0.0
H880 H 0.25513 0.15309 0.54989 0.0
H881 H 0.24989 0.17246 0.57133 0.0
C882 C 0.48044 0.51805 0.61266 0.0
C883 C 0.48072 0.53191 0.60343 0.0
C884 C 0.47135 0.51716 0.62668 0.0
C885 C 0.43654 0.53334 0.64657 0.0
H886 H 0.45607 0.51884 0.68564 0.0
C887 C 0.40308 0.53418 0.70708 0.0
C888 C 0.40523 0.52134 0.7173 0.0
C889 C 0.4126 0.53608 0.69342 0.0
C890 C 0.45035 0.52271 0.6748 0.0
H891 H 0.47168 0.55575 0.60189 0.0
H892 H 0.45545 0.55394 0.62613 0.0
H893 H 0.47186 0.52059 0.66112 0.0
H894 H 0.41898 0.50036 0.72122 0.0
H895 H 0.4352 0.50335 0.69721 0.0
H896 H 0.41491 0.53505 0.66002 0.0
C897 C 0.46229 0.5438 0.62243 0.0
C898 C 0.45943 0.52375 0.66078 0.0
C899 C 0.47153 0.54478 0.60851 0.0
C900 C 0.41711 0.51046 0.71364 0.0
C901 C 0.42649 0.51224 0.6999 0.0
C902 C 0.42739 0.53211 0.66054 0.0
C903 C 0.4622 0.53002 0.63168 0.0
C904 C 0.4526 0.52906 0.64655 0.0
C905 C 0.42435 0.52506 0.6896 0.0
C906 C 0.43417 0.52674 0.67483 0.0
H907 H 0.48711 0.5078 0.60898 0.0
H908 H 0.47131 0.50632 0.63352 0.0
H909 H 0.43096 0.53732 0.63569 0.0
H910 H 0.39408 0.54282 0.70965 0.0
H911 H 0.4108 0.54625 0.68593 0.0
C912 C 0.78461 0.25754 0.63202 0.0
C913 C 0.77392 0.25681 0.64497 0.0
C914 C 0.78214 0.26793 0.61945 0.0
C915 C 0.75098 0.29254 0.60125 0.0
H916 H 0.78761 0.31288 0.58053 0.0
C917 C 0.74689 0.34497 0.55742 0.0
C918 C 0.75507 0.34307 0.54283 0.0
C919 C 0.74889 0.33426 0.56982 0.0
C920 C 0.77729 0.3072 0.58617 0.0
H921 H 0.75246 0.26647 0.65517 0.0
H922 H 0.7484 0.28506 0.63356 0.0
H923 H 0.79178 0.2948 0.60255 0.0
H924 H 0.77182 0.32855 0.52979 0.0
H925 H 0.77555 0.31004 0.55162 0.0
H926 H 0.73655 0.30544 0.58508 0.0
C927 C 0.75843 0.27729 0.63277 0.0
C928 C 0.77965 0.29677 0.59873 0.0
C929 C 0.76077 0.26671 0.64521 0.0
C930 C 0.76532 0.33029 0.54088 0.0
C931 C 0.76753 0.31975 0.55337 0.0
C932 C 0.74863 0.30317 0.58886 0.0
C933 C 0.76905 0.27801 0.61969 0.0
C934 C 0.76653 0.28923 0.60639 0.0
C935 C 0.75932 0.32164 0.56794 0.0
C936 C 0.76177 0.31053 0.58117 0.0
H937 H 0.79475 0.24988 0.63151 0.0
H938 H 0.7904 0.26789 0.60946 0.0
H939 H 0.74059 0.28675 0.60663 0.0
H940 H 0.73888 0.35469 0.55924 0.0
H941 H 0.7425 0.33599 0.58099 0.0
C942 C 0.51781 0.98984 0.60686 0.0
C943 C 0.51909 0.97679 0.59616 0.0
C944 C 0.5258 0.99018 0.62158 0.0
C945 C 0.56019 0.9747 0.64218 0.0
H946 H 0.53713 0.98532 0.68108 0.0
C947 C 0.59001 0.97245 0.70441 0.0
C948 C 0.58651 0.98461 0.71553 0.0
C949 C 0.58128 0.97059 0.69015 0.0
C950 C 0.54381 0.98253 0.67032 0.0
H951 H 0.52979 0.9538 0.59269 0.0
H952 H 0.54412 0.95467 0.61821 0.0
H953 H 0.52311 0.98423 0.65538 0.0
H954 H 0.57107 0.00429 0.72051 0.0
H955 H 0.55618 0.00137 0.69549 0.0
H956 H 0.58099 0.97346 0.65692 0.0
C957 C 0.53689 0.96461 0.61513 0.0
C958 C 0.53575 0.98185 0.65563 0.0
C959 C 0.52874 0.96417 0.60048 0.0
C960 C 0.57399 0.99474 0.71222 0.0
C961 C 0.56538 0.993 0.69789 0.0
C962 C 0.5683 0.97556 0.65685 0.0
C963 C 0.53541 0.97757 0.62584 0.0
C964 C 0.54388 0.97798 0.64143 0.0
C965 C 0.56898 0.98097 0.68663 0.0
C966 C 0.56022 0.97954 0.6711 0.0
H967 H 0.51075 -9e-05 0.60381 0.0
H968 H 0.52465 0.00041 0.62955 0.0
H969 H 0.56676 0.97184 0.63137 0.0
H970 H 0.59953 0.96438 0.70668 0.0
H971 H 0.58419 0.961 0.68191 0.0
C972 C 0.85943 0.20937 0.77017 0.0
C973 C 0.84811 0.22079 0.76675 0.0
C974 C 0.87172 0.21286 0.78117 0.0
C975 C 0.89386 0.24681 0.80072 0.0
H976 H 0.90846 0.2143 0.82913 0.0
C977 C 0.9417 0.25989 0.84968 0.0
C978 C 0.95404 0.24902 0.8503 0.0
C979 C 0.92806 0.25646 0.84038 0.0
C980 C 0.90455 0.22347 0.82121 0.0
H981 H 0.84052 0.24463 0.77245 0.0
H982 H 0.86184 0.25066 0.79185 0.0
H983 H 0.88582 0.20832 0.81128 0.0
H984 H 0.96162 0.22586 0.84192 0.0
H985 H 0.9378 0.21988 0.82574 0.0
H986 H 0.9126 0.26195 0.81071 0.0
C987 C 0.86144 0.23914 0.78577 0.0
C988 C 0.89162 0.22004 0.81095 0.0
C989 C 0.84922 0.23569 0.77469 0.0
C990 C 0.95233 0.23451 0.84167 0.0
C991 C 0.93865 0.23103 0.83249 0.0
C992 C 0.90672 0.25026 0.81105 0.0
C993 C 0.8729 0.2278 0.78908 0.0
C994 C 0.88621 0.23163 0.80048 0.0
C995 C 0.92644 0.24202 0.83164 0.0
C996 C 0.91228 0.23858 0.82129 0.0
H997 H 0.85898 0.19786 0.76408 0.0
H998 H 0.88049 0.20394 0.78322 0.0
H999 H 0.89018 0.25594 0.79264 0.0
H1000 H 0.94264 0.27117 0.85621 0.0
H1001 H 0.91875 0.26508 0.84005 0.0
C1002 C 0.49087 0.91128 0.44904 0.0
C1003 C 0.49213 0.91009 0.46579 0.0
C1004 C 0.49243 0.89782 0.4391 0.0
C1005 C 0.4881 0.85422 0.43973 0.0
H1006 H 0.51316 0.85558 0.40062 0.0
C1007 C 0.50122 0.79738 0.40317 0.0
C1008 C 0.50058 0.79821 0.38636 0.0
C1009 C 0.5005 0.81119 0.4127 0.0
C1010 C 0.50596 0.85505 0.41141 0.0
H1011 H 0.49599 0.89389 0.48527 0.0
H1012 H 0.49888 0.87049 0.46794 0.0
H1013 H 0.5114 0.87955 0.41748 0.0
H1014 H 0.49868 0.8142 0.36635 0.0
H1015 H 0.49714 0.83826 0.383 0.0
H1016 H 0.48248 0.82983 0.43365 0.0
C1017 C 0.49661 0.88179 0.46249 0.0
C1018 C 0.50498 0.86877 0.42106 0.0
C1019 C 0.49514 0.89523 0.47239 0.0
C1020 C 0.49925 0.81315 0.37928 0.0
C1021 C 0.49846 0.82696 0.38881 0.0
C1022 C 0.48901 0.84054 0.43006 0.0
C1023 C 0.49515 0.88291 0.44576 0.0
C1024 C 0.4961 0.86846 0.43536 0.0
C1025 C 0.49905 0.82613 0.40564 0.0
C1026 C 0.498 0.84077 0.41582 0.0
H1027 H 0.48866 0.92261 0.44361 0.0
H1028 H 0.49116 0.89902 0.42625 0.0
H1029 H 0.48093 0.8537 0.45055 0.0
H1030 H 0.50234 0.78606 0.409 0.0
H1031 H 0.50124 0.81015 0.42562 0.0
C1032 C 0.13331 0.28147 0.75397 0.0
C1033 C 0.13191 0.29414 0.74338 0.0
C1034 C 0.12076 0.27731 0.76428 0.0
C1035 C 0.08347 0.29278 0.78189 0.0
H1036 H 0.07466 0.24825 0.79114 0.0
C1037 C 0.02658 0.27041 0.81477 0.0
C1038 C 0.0291 0.26038 0.82776 0.0
C1039 C 0.03906 0.27428 0.80427 0.0
C1040 C 0.07706 0.26073 0.78871 0.0
H1041 H 0.1163 0.31225 0.73504 0.0
H1042 H 0.09416 0.30473 0.75268 0.0
H1043 H 0.0965 0.25559 0.77306 0.0
H1044 H 0.04654 0.24622 0.83974 0.0
H1045 H 0.06829 0.25281 0.82117 0.0
H1046 H 0.06373 0.2978 0.7973 0.0
C1047 C 0.10509 0.29826 0.75339 0.0
C1048 C 0.08961 0.26496 0.77842 0.0
C1049 C 0.11773 0.30255 0.74324 0.0
C1050 C 0.04425 0.25401 0.82985 0.0
C1051 C 0.05667 0.25772 0.8192 0.0
C1052 C 0.0708 0.28851 0.79201 0.0
C1053 C 0.10645 0.2856 0.76407 0.0
C1054 C 0.09301 0.28105 0.77492 0.0
C1055 C 0.05422 0.26802 0.80643 0.0
C1056 C 0.06752 0.27246 0.79554 0.0
H1057 H 0.14422 0.27492 0.75442 0.0
H1058 H 0.12238 0.2677 0.77254 0.0
H1059 H 0.08591 0.30529 0.77974 0.0
H1060 H 0.01505 0.27552 0.81286 0.0
H1061 H 0.03684 0.28215 0.79442 0.0
C1062 C 0.51607 0.61934 0.48715 0.0
C1063 C 0.51729 0.60391 0.48056 0.0
C1064 C 0.514 0.63229 0.47721 0.0
C1065 C 0.49931 0.64272 0.43747 0.0
H1066 H 0.52384 0.6822 0.44515 0.0
C1067 C 0.48455 0.70155 0.40705 0.0
C1068 C 0.49751 0.71061 0.40089 0.0
C1069 C 0.48718 0.6884 0.41658 0.0
C1070 C 0.51697 0.67123 0.44281 0.0
H1071 H 0.51719 0.58991 0.45843 0.0
H1072 H 0.51357 0.6126 0.44101 0.0
H1073 H 0.52827 0.65932 0.46202 0.0
H1074 H 0.5234 0.71303 0.39998 0.0
H1075 H 0.52796 0.69009 0.41669 0.0
H1076 H 0.48804 0.65462 0.41824 0.0
C1077 C 0.51419 0.61464 0.45387 0.0
C1078 C 0.51941 0.65819 0.45254 0.0
C1079 C 0.51639 0.60169 0.46382 0.0
C1080 C 0.51315 0.7063 0.40455 0.0
C1081 C 0.51578 0.69321 0.41417 0.0
C1082 C 0.49679 0.6558 0.42781 0.0
C1083 C 0.51299 0.63007 0.46048 0.0
C1084 C 0.51058 0.64381 0.44998 0.0
C1085 C 0.50282 0.68411 0.42024 0.0
C1086 C 0.50559 0.67019 0.4304 0.0
H1087 H 0.51688 0.62142 0.5 0.0
H1088 H 0.51297 0.64403 0.48264 0.0
H1089 H 0.49226 0.63183 0.43531 0.0
H1090 H 0.47234 0.70455 0.40446 0.0
H1091 H 0.47696 0.6817 0.42124 0.0
C1092 C 0.86788 0.79465 0.73238 0.0
C1093 C 0.85809 0.7816 0.73702 0.0
C1094 C 0.87975 0.79273 0.7208 0.0
C1095 C 0.89216 0.76604 0.68776 0.0
H1096 H 0.93418 0.7856 0.69565 0.0
C1097 C 0.94805 0.74902 0.65166 0.0
C1098 C 0.95918 0.76126 0.64782 0.0
C1099 C 0.93511 0.7521 0.66169 0.0
C1100 C 0.92245 0.78025 0.69314 0.0
H1101 H 0.85286 0.75638 0.73295 0.0
H1102 H 0.87377 0.75296 0.71294 0.0
H1103 H 0.91272 0.78992 0.71481 0.0
H1104 H 0.96522 0.78646 0.6511 0.0
H1105 H 0.94254 0.79185 0.66845 0.0
H1106 H 0.90194 0.75626 0.66614 0.0
C1107 C 0.87218 0.7647 0.71815 0.0
C1108 C 0.91016 0.78272 0.70413 0.0
C1109 C 0.86034 0.76662 0.72975 0.0
C1110 C 0.95691 0.77673 0.65392 0.0
C1111 C 0.94397 0.77981 0.66393 0.0
C1112 C 0.90445 0.76358 0.67675 0.0
C1113 C 0.88205 0.77772 0.7136 0.0
C1114 C 0.89492 0.77555 0.70161 0.0
C1115 C 0.93302 0.7675 0.66806 0.0
C1116 C 0.91976 0.77058 0.67938 0.0
H1117 H 0.86651 0.80632 0.73786 0.0
H1118 H 0.88709 0.80301 0.71744 0.0
H1119 H 0.88046 0.76055 0.68538 0.0
H1120 H 0.94946 0.73697 0.64717 0.0
H1121 H 0.92698 0.74232 0.66479 0.0
C1122 C 0.03794 0.90016 0.51531 0.0
C1123 C 0.02516 0.90707 0.50737 0.0
C1124 C 0.03517 0.88731 0.52544 0.0
C1125 C 0.00331 0.86699 0.54891 0.0
H1126 H 0.03231 0.832 0.54837 0.0
C1127 C 0.98924 0.80799 0.58106 0.0
C1128 C 0.00174 0.80155 0.58982 0.0
C1129 C 0.9922 0.82092 0.57107 0.0
C1130 C 0.0242 0.84176 0.54876 0.0
H1131 H -0.00057 0.90595 0.50397 0.0
H1132 H 0.99466 0.88327 0.52129 0.0
H1133 H 0.03726 0.85446 0.5307 0.0
H1134 H 0.02718 0.80359 0.59493 0.0
H1135 H 0.03232 0.82618 0.57747 0.0
H1136 H 0.99018 0.8542 0.56686 0.0
C1137 C 0.0068 0.88792 0.51986 0.0
C1138 C 0.02704 0.85463 0.53866 0.0
C1139 C 0.00956 0.9008 0.50976 0.0
C1140 C 0.01728 0.80827 0.58833 0.0
C1141 C 0.02025 0.82115 0.57827 0.0
C1142 C 0.00044 0.85409 0.55895 0.0
C1143 C 0.01957 0.88104 0.52783 0.0
C1144 C 0.01662 0.86739 0.53861 0.0
C1145 C 0.00773 0.82762 0.56957 0.0
C1146 C 0.01084 0.84134 0.55897 0.0
H1147 H 0.05011 0.9046 0.51359 0.0
H1148 H 0.04526 0.88239 0.53154 0.0
H1149 H 0.9952 0.87675 0.54936 0.0
H1150 H 0.97713 0.80307 0.58192 0.0
H1151 H 0.98234 0.82554 0.56436 0.0
C1152 C 0.11291 0.71253 0.75404 0.0
C1153 C 0.12441 0.72437 0.75857 0.0
C1154 C 0.10143 0.71555 0.74241 0.0
C1155 C 0.09426 0.74118 0.70816 0.0
H1156 H 0.05 0.72701 0.71354 0.0
C1157 C 0.04464 0.75777 0.66396 0.0
C1158 C 0.03299 0.74588 0.65999 0.0
C1159 C 0.05573 0.75538 0.67614 0.0
C1160 C 0.06235 0.73088 0.71177 0.0
H1161 H 0.13289 0.74865 0.75453 0.0
H1162 H 0.11274 0.75397 0.73431 0.0
H1163 H 0.06932 0.72251 0.73476 0.0
H1164 H 0.02398 0.72207 0.66553 0.0
H1165 H 0.04349 0.71782 0.68657 0.0
H1166 H 0.08737 0.74939 0.68511 0.0
C1167 C 0.11267 0.74233 0.73969 0.0
C1168 C 0.0734 0.72833 0.72394 0.0
C1169 C 0.12409 0.73935 0.75137 0.0
C1170 C 0.03276 0.73151 0.66835 0.0
C1171 C 0.04387 0.72911 0.68049 0.0
C1172 C 0.08323 0.74368 0.69596 0.0
C1173 C 0.10128 0.73043 0.73502 0.0
C1174 C 0.08947 0.73342 0.72225 0.0
C1175 C 0.05545 0.74104 0.68458 0.0
C1176 C 0.06715 0.73853 0.69761 0.0
H1177 H 0.11278 0.70093 0.75948 0.0
H1178 H 0.09288 0.70611 0.73897 0.0
H1179 H 0.10662 0.74503 0.70642 0.0
H1180 H 0.0451 0.769 0.65779 0.0
H1181 H 0.06437 0.76489 0.67913 0.0
C1182 C 0.97507 0.61405 0.5304 0.0
C1183 C 0.98788 0.60526 0.52458 0.0
C1184 C 0.97792 0.62825 0.53909 0.0
C1185 C 0.00886 0.65085 0.56257 0.0
H1186 H 0.98286 0.68687 0.55338 0.0
C1187 C 0.02316 0.71405 0.58846 0.0
C1188 C 0.01014 0.72252 0.59431 0.0
C1189 C 0.02063 0.69975 0.57984 0.0
C1190 C 0.99012 0.67688 0.55619 0.0
H1191 H 0.01373 0.60428 0.52362 0.0
H1192 H 0.01871 0.62922 0.53853 0.0
H1193 H 0.97804 0.66173 0.53881 0.0
H1194 H 0.98423 0.72265 0.59565 0.0
H1195 H 0.97985 0.6977 0.58069 0.0
H1196 H 0.02096 0.66604 0.57994 0.0
C1197 C 0.00646 0.62507 0.53649 0.0
C1198 C 0.98734 0.66247 0.54786 0.0
C1199 C 0.00361 0.61087 0.5278 0.0
C1200 C 0.99454 0.71644 0.59127 0.0
C1201 C 0.99201 0.70218 0.58262 0.0
C1202 C 0.01165 0.66527 0.57089 0.0
C1203 C 0.99364 0.63397 0.54214 0.0
C1204 C 0.99665 0.64928 0.55099 0.0
C1205 C 0.00502 0.69366 0.57685 0.0
C1206 C 0.00228 0.67842 0.56782 0.0
H1207 H 0.96282 0.61013 0.52799 0.0
H1208 H 0.96779 0.63473 0.54345 0.0
H1209 H 0.0161 0.64084 0.5654 0.0
H1210 H 0.03533 0.71842 0.59059 0.0
H1211 H 0.03089 0.69353 0.57538 0.0
C1212 C 0.74853 0.88927 0.22185 0.0
C1213 C 0.74216 0.88647 0.20641 0.0
C1214 C 0.75847 0.90265 0.22507 0.0
C1215 C 0.78475 0.93218 0.20474 0.0
H1216 H 0.78331 0.95447 0.24589 0.0
C1217 C 0.82207 0.98997 0.21871 0.0
C1218 C 0.83017 0.9906 0.23351 0.0
C1219 C 0.81077 0.97773 0.21528 0.0
C1220 C 0.7839 0.94828 0.23439 0.0
H1221 H 0.74078 0.89569 0.18236 0.0
H1222 H 0.75795 0.91923 0.18802 0.0
H1223 H 0.76414 0.93255 0.24006 0.0
H1224 H 0.83272 0.97896 0.25635 0.0
H1225 H 0.81294 0.95762 0.25034 0.0
H1226 H 0.80447 0.94801 0.19907 0.0
C1227 C 0.75556 0.91091 0.19757 0.0
C1228 C 0.77295 0.93572 0.23105 0.0
C1229 C 0.74569 0.89746 0.19432 0.0
C1230 C 0.82669 0.9788 0.24483 0.0
C1231 C 0.81529 0.96664 0.24145 0.0
C1232 C 0.79562 0.94482 0.20804 0.0
C1233 C 0.7622 0.91358 0.21294 0.0
C1234 C 0.77333 0.92743 0.21623 0.0
C1235 C 0.80726 0.96596 0.22662 0.0
C1236 C 0.79539 0.95291 0.22294 0.0
H1237 H 0.74619 0.88087 0.23135 0.0
H1238 H 0.76359 0.90417 0.23697 0.0
H1239 H 0.78557 0.92589 0.19332 0.0
H1240 H 0.82448 -0.00111 0.20973 0.0
H1241 H 0.80466 0.97757 0.20381 0.0
C1242 C 0.74641 0.13676 0.31339 0.0
C1243 C 0.74133 0.14628 0.30081 0.0
C1244 C 0.758 0.12546 0.3107 0.0
C1245 C 0.79115 0.11606 0.28372 0.0
H1246 H 0.78575 0.07346 0.30045 0.0
C1247 C 0.83184 0.06507 0.26483 0.0
C1248 C 0.83592 0.05407 0.27651 0.0
C1249 C 0.82075 0.07667 0.26826 0.0
C1250 C 0.78756 0.08538 0.2959 0.0
H1251 H 0.74442 0.15147 0.27558 0.0
H1252 H 0.7646 0.13165 0.27087 0.0
H1253 H 0.76526 0.09285 0.30552 0.0
H1254 H 0.83191 0.04691 0.3011 0.0
H1255 H 0.8128 0.06736 0.3072 0.0
H1256 H 0.81347 0.10868 0.27419 0.0
C1257 C 0.75966 0.13298 0.28281 0.0
C1258 C 0.7758 0.09646 0.29877 0.0
C1259 C 0.74799 0.14419 0.28547 0.0
C1260 C 0.82895 0.05515 0.29181 0.0
C1261 C 0.81791 0.06681 0.29527 0.0
C1262 C 0.80295 0.10502 0.28093 0.0
C1263 C 0.76484 0.12356 0.29542 0.0
C1264 C 0.77743 0.11187 0.29263 0.0
C1265 C 0.81355 0.07759 0.28348 0.0
C1266 C 0.80126 0.08952 0.2869 0.0
H1267 H 0.7414 0.13804 0.32531 0.0
H1268 H 0.76184 0.11842 0.32066 0.0
H1269 H 0.79283 0.12795 0.27906 0.0
H1270 H 0.83695 0.06451 0.2529 0.0
H1271 H 0.81751 0.08466 0.25884 0.0
C1272 C 0.40155 0.98172 0.00372 0.0
C1273 C 0.40606 0.98511 0.98786 0.0
C1274 C 0.38812 0.9719 0.00679 0.0
C1275 C 0.35053 0.95637 0.98816 0.0
H1276 H 0.35141 0.92572 0.02233 0.0
C1277 C 0.29367 0.92198 0.00884 0.0
C1278 C 0.29506 0.90577 0.01219 0.0
C1279 C 0.30728 0.93165 0.00614 0.0
C1280 C 0.35101 0.93414 0.01267 0.0
H1281 H 0.39996 0.98086 0.96279 0.0
H1282 H 0.37677 0.96342 0.96813 0.0
H1283 H 0.37522 0.94225 0.01677 0.0
H1284 H 0.31184 0.88699 0.01542 0.0
H1285 H 0.33558 0.90382 0.01048 0.0
H1286 H 0.32646 0.94801 0.9838 0.0
C1287 C 0.3835 0.96852 0.97821 0.0
C1288 C 0.3646 0.94374 0.0096 0.0
C1289 C 0.3969 0.97836 0.97514 0.0
C1290 C 0.31036 0.89945 0.01291 0.0
C1291 C 0.32398 0.90911 0.01017 0.0
C1292 C 0.33696 0.94676 0.9912 0.0
C1293 C 0.37891 0.96523 0.99407 0.0
C1294 C 0.36451 0.95497 -0.00269 0.0
C1295 C 0.32259 0.92531 0.00669 0.0
C1296 C 0.33703 0.93554 0.0035 0.0
H1297 H 0.40845 0.98659 0.01379 0.0
H1298 H 0.38482 0.96973 0.01914 0.0
H1299 H 0.35 0.96503 0.97873 0.0
H1300 H 0.28206 0.92724 0.00828 0.0
H1301 H 0.30581 0.94414 0.00374 0.0
C1302 C 0.22452 0.35199 0.2825 0.0
C1303 C 0.24099 0.35455 0.28517 0.0
C1304 C 0.21455 0.36487 0.28115 0.0
C1305 C 0.21581 0.40799 0.27261 0.0
H1306 H 0.17256 0.40579 0.28934 0.0
C1307 C 0.17515 0.46202 0.27448 0.0
C1308 C 0.15951 0.45925 0.26866 0.0
C1309 C 0.18508 0.44931 0.27702 0.0
C1310 C 0.18458 0.40651 0.28453 0.0
H1311 H 0.2599 0.37251 0.28901 0.0
H1312 H 0.24247 0.39504 0.28704 0.0
H1313 H 0.19003 0.38355 0.29323 0.0
H1314 H 0.14193 0.44099 0.26115 0.0
H1315 H 0.15929 0.41876 0.26575 0.0
H1316 H 0.21036 0.43107 0.26411 0.0
C1317 C 0.23728 0.38311 0.28555 0.0
C1318 C 0.19458 0.39377 0.28671 0.0
C1319 C 0.24727 0.37022 0.28674 0.0
C1320 C 0.15394 0.4435 0.26562 0.0
C1321 C 0.16382 0.43078 0.26833 0.0
C1322 C 0.20586 0.42078 0.27058 0.0
C1323 C 0.22082 0.3806 0.28259 0.0
C1324 C 0.21029 0.39431 0.28069 0.0
C1325 C 0.17951 0.43358 0.27397 0.0
C1326 C 0.19013 0.42013 0.27644 0.0
H1327 H 0.21941 0.34002 0.28105 0.0
H1328 H 0.20199 0.36249 0.2786 0.0
H1329 H 0.22772 0.40871 0.26755 0.0
H1330 H 0.17979 0.47402 0.27694 0.0
H1331 H 0.19709 0.45178 0.28151 0.0
C1332 C 0.10589 0.03515 0.48973 0.0
C1333 C 0.10246 0.03007 0.47389 0.0
C1334 C 0.11927 0.04505 0.49311 0.0
C1335 C 0.15872 0.05647 0.4767 0.0
H1336 H 0.15758 0.09073 0.50852 0.0
C1337 C 0.21251 0.09993 0.48796 0.0
C1338 C 0.21634 0.10374 0.50404 0.0
C1339 C 0.19827 0.09157 0.48408 0.0
C1340 C 0.1581 0.08111 0.49971 0.0
H1341 H 0.11026 0.03162 0.44912 0.0
H1342 H 0.13345 0.04916 0.45498 0.0
H1343 H 0.13309 0.0753 0.50192 0.0
H1344 H 0.20818 0.10185 0.52866 0.0
H1345 H 0.18335 0.08713 0.52188 0.0
H1346 H 0.18372 0.06218 0.47456 0.0
C1347 C 0.12589 0.04532 0.46482 0.0
C1348 C 0.14409 0.07229 0.49592 0.0
C1349 C 0.1125 0.03542 0.46144 0.0
C1350 C 0.20557 0.09911 0.51616 0.0
C1351 C 0.1913 0.09076 0.51227 0.0
C1352 C 0.17271 0.06529 0.48048 0.0
C1353 C 0.12953 0.05009 0.48071 0.0
C1354 C 0.14426 0.05984 0.48441 0.0
C1355 C 0.18753 0.08685 0.49619 0.0
C1356 C 0.17257 0.07767 0.49206 0.0
H1357 H 0.09827 0.03139 0.49956 0.0
H1358 H 0.12181 0.04842 0.50549 0.0
H1359 H 0.15931 0.04677 0.46799 0.0
H1360 H 0.22052 0.10337 0.47832 0.0
H1361 H 0.19561 0.08892 0.47157 0.0
C1362 C 0.72514 0.13333 0.73289 0.0
C1363 C 0.73348 0.13551 0.71843 0.0
C1364 C 0.7145 0.1203 0.73466 0.0
C1365 C 0.70495 0.08002 0.71898 0.0
H1366 H 0.66327 0.08658 0.73782 0.0
C1367 C 0.66239 0.02842 0.73879 0.0
C1368 C 0.64617 0.02947 0.73466 0.0
C1369 C 0.67311 0.04126 0.73635 0.0
C1370 C 0.67483 0.08459 0.73246 0.0
H1371 H 0.73745 0.12568 0.69458 0.0
H1372 H 0.71881 0.10287 0.69767 0.0
H1373 H 0.68193 0.10929 0.73443 0.0
H1374 H 0.62851 0.04478 0.72466 0.0
H1375 H 0.64726 0.06723 0.72048 0.0
H1376 H 0.69783 0.05531 0.717 0.0
C1377 C 0.72053 0.11124 0.70763 0.0
C1378 C 0.68555 0.09755 0.73066 0.0
C1379 C 0.73108 0.12434 0.70581 0.0
C1380 C 0.64092 0.0436 0.72797 0.0
C1381 C 0.65163 0.05648 0.72566 0.0
C1382 C 0.69428 0.06703 0.72091 0.0
C1383 C 0.71209 0.10914 0.72204 0.0
C1384 C 0.70072 0.09538 0.7239 0.0
C1385 C 0.66782 0.05544 0.72985 0.0
C1386 C 0.67911 0.0692 0.72766 0.0
H1387 H 0.72667 0.14183 0.74277 0.0
H1388 H 0.70825 0.11889 0.74595 0.0
H1389 H 0.71661 0.078 0.71384 0.0
H1390 H 0.66681 0.01769 0.74395 0.0
H1391 H 0.6855 0.04019 0.73982 0.0
C1392 C 0.40324 0.03146 0.52082 0.0
C1393 C 0.40379 0.01575 0.51481 0.0
C1394 C 0.3892 0.03986 0.51981 0.0
C1395 C 0.35137 0.04125 0.49752 0.0
H1396 H 0.33813 0.06696 0.53399 0.0
C1397 C 0.29159 0.0734 0.49807 0.0
C1398 C 0.29208 0.08915 0.50408 0.0
C1399 C 0.30469 0.06375 0.49998 0.0
C1400 C 0.34174 0.05994 0.52366 0.0
H1401 H 0.38998 0.9965 0.50309 0.0
H1402 H 0.36546 0.01125 0.50122 0.0
H1403 H 0.36214 0.05148 0.53595 0.0
H1404 H 0.30662 0.10706 0.51702 0.0
H1405 H 0.3295 0.09031 0.52017 0.0
H1406 H 0.3311 0.04985 0.48515 0.0
C1407 C 0.37596 0.01709 0.50659 0.0
C1408 C 0.35548 0.05108 0.52478 0.0
C1409 C 0.39001 0.00867 0.50764 0.0
C1410 C 0.30584 0.09497 0.51227 0.0
C1411 C 0.31893 0.08533 0.51416 0.0
C1412 C 0.33764 0.05014 0.49638 0.0
C1413 C 0.3754 0.03276 0.51273 0.0
C1414 C 0.36051 0.04174 0.51169 0.0
C1415 C 0.31855 0.06965 0.50794 0.0
C1416 C 0.33274 0.05967 0.5094 0.0
H1417 H 0.41372 0.03736 0.52617 0.0
H1418 H 0.38921 0.05202 0.52439 0.0
H1419 H 0.35505 0.03431 0.48717 0.0
H1420 H 0.28114 0.06853 0.49176 0.0
H1421 H 0.30394 0.05165 0.49524 0.0
C1422 C 0.60441 0.48806 0.50859 0.0
C1423 C 0.5982 0.4916 0.52387 0.0
C1424 C 0.618 0.47898 0.50697 0.0
C1425 C 0.64156 0.44965 0.52778 0.0
H1426 H 0.67526 0.46308 0.49856 0.0
C1427 C 0.70194 0.41869 0.52488 0.0
C1428 C 0.70862 0.41623 0.50961 0.0
C1429 C 0.68865 0.42813 0.52681 0.0
C1430 C 0.66588 0.45906 0.50663 0.0
H1431 H 0.60157 0.48852 0.54945 0.0
H1432 H 0.62514 0.47249 0.54657 0.0
H1433 H 0.65154 0.47892 0.50142 0.0
H1434 H 0.70659 0.42173 0.48436 0.0
H1435 H 0.68326 0.43794 0.48767 0.0
H1436 H 0.65575 0.42968 0.53284 0.0
C1437 C 0.61938 0.47663 0.53585 0.0
C1438 C 0.65231 0.46815 0.50828 0.0
C1439 C 0.60586 0.48579 0.53749 0.0
C1440 C 0.70178 0.42345 0.49631 0.0
C1441 C 0.68845 0.43283 0.49822 0.0
C1442 C 0.65509 0.4405 0.52606 0.0
C1443 C 0.62561 0.47317 0.52058 0.0
C1444 C 0.64002 0.46353 0.51886 0.0
C1445 C 0.68171 0.43527 0.51349 0.0
C1446 C 0.6674 0.44509 0.51546 0.0
H1447 H 0.59866 0.49212 0.49784 0.0
H1448 H 0.62241 0.47631 0.49503 0.0
H1449 H 0.63217 0.4457 0.53588 0.0
H1450 H 0.70699 0.41334 0.53538 0.0
H1451 H 0.6839 0.42996 0.53876 0.0
C1452 C 0.69897 0.27864 0.37928 0.0
C1453 C 0.71002 0.27275 0.36817 0.0
C1454 C 0.70361 0.29062 0.39035 0.0
C1455 C 0.73947 0.30863 0.41021 0.0
H1456 H 0.71038 0.34149 0.42293 0.0
C1457 C 0.75741 0.35917 0.4554 0.0
C1458 C 0.74628 0.36185 0.4677 0.0
C1459 C 0.75321 0.34948 0.44212 0.0
C1460 C 0.7186 0.33234 0.41952 0.0
H1461 H 0.73441 0.27514 0.35956 0.0
H1462 H 0.74248 0.29619 0.37877 0.0
H1463 H 0.70262 0.32239 0.40164 0.0
H1464 H 0.72192 0.35678 0.47554 0.0
H1465 H 0.71465 0.3399 0.4524 0.0
H1466 H 0.75541 0.31856 0.42817 0.0
C1467 C 0.73033 0.29132 0.37917 0.0
C1468 C 0.71415 0.32139 0.40737 0.0
C1469 C 0.72571 0.27928 0.36816 0.0
C1470 C 0.73079 0.35493 0.46629 0.0
C1471 C 0.72657 0.34534 0.45298 0.0
C1472 C 0.74396 0.31964 0.4223 0.0
C1473 C 0.71937 0.29703 0.39049 0.0
C1474 C 0.72445 0.30928 0.40272 0.0
C1475 C 0.73778 0.3424 0.44084 0.0
C1476 C 0.73348 0.33148 0.42722 0.0
H1477 H 0.68685 0.2737 0.37967 0.0
H1478 H 0.69493 0.29456 0.39906 0.0
H1479 H 0.7476 0.29932 0.40709 0.0
H1480 H 0.76943 0.36436 0.45612 0.0
H1481 H 0.76204 0.34751 0.43286 0.0
C1482 C 0.52805 0.03762 0.89344 0.0
C1483 C 0.52114 0.02447 0.90139 0.0
C1484 C 0.53751 0.03541 0.87985 0.0
C1485 C 0.5457 0.00668 0.84736 0.0
H1486 H 0.58584 0.0309 0.84377 0.0
C1487 C 0.59179 0.99323 0.798 0.0
C1488 C 0.59969 0.00628 0.79078 0.0
C1489 C 0.58215 0.99548 0.81147 0.0
C1490 C 0.57457 0.02419 0.84449 0.0
H1491 H 0.51884 -0.00134 0.90132 0.0
H1492 H 0.53525 0.99482 0.87746 0.0
H1493 H 0.56896 0.0348 0.86726 0.0
H1494 H 0.60359 0.03194 0.79198 0.0
H1495 H 0.58657 0.03589 0.81532 0.0
H1496 H 0.55122 0.99615 0.82455 0.0
C1497 C 0.53321 0.00685 0.8817 0.0
C1498 C 0.56492 0.02641 0.85795 0.0
C1499 C 0.5238 0.00905 0.89534 0.0
C1500 C 0.59773 0.02163 0.7973 0.0
C1501 C 0.58804 0.02389 0.81074 0.0
C1502 C 0.55531 0.0045 0.83386 0.0
C1503 C 0.54021 0.02 0.87386 0.0
C1504 C 0.5504 0.01767 0.85953 0.0
C1505 C 0.58014 0.01083 0.81798 0.0
C1506 C 0.56987 0.01322 0.83228 0.0
H1507 H 0.526 0.04967 0.89761 0.0
H1508 H 0.54256 0.04578 0.8739 0.0
H1509 H 0.53446 -7e-05 0.84816 0.0
H1510 H 0.59311 0.98123 0.79332 0.0
H1511 H 0.57643 0.98515 0.81689 0.0
C1512 C 0.28232 0.23651 0.36559 0.0
C1513 C 0.28299 0.23096 0.34961 0.0
C1514 C 0.28106 0.22581 0.37816 0.0
C1515 C 0.28738 0.18393 0.38845 0.0
H1516 H 0.25939 0.19376 0.42409 0.0
C1517 C 0.27123 0.1396 0.43901 0.0
C1518 C 0.27106 0.14599 0.45472 0.0
C1519 C 0.27318 0.14962 0.42589 0.0
C1520 C 0.26737 0.19092 0.4143 0.0
H1521 H 0.28278 0.20985 0.33422 0.0
H1522 H 0.28042 0.19109 0.3562 0.0
H1523 H 0.26158 0.21184 0.40167 0.0
H1524 H 0.27321 0.16785 0.46902 0.0
H1525 H 0.27666 0.18524 0.44618 0.0
H1526 H 0.29305 0.1629 0.40113 0.0
C1527 C 0.28112 0.20373 0.35903 0.0
C1528 C 0.26864 0.20129 0.40145 0.0
C1529 C 0.28245 0.21446 0.34645 0.0
C1530 C 0.27321 0.16254 0.45707 0.0
C1531 C 0.27509 0.17252 0.44398 0.0
C1532 C 0.28606 0.1735 0.4013 0.0
C1533 C 0.28036 0.2093 0.37502 0.0
C1534 C 0.27875 0.19799 0.38844 0.0
C1535 C 0.27491 0.1662 0.42825 0.0
C1536 C 0.27613 0.17698 0.41441 0.0
H1537 H 0.283 0.24916 0.36841 0.0
H1538 H 0.28082 0.23049 0.39036 0.0
H1539 H 0.29541 0.18113 0.37869 0.0
H1540 H 0.26962 0.1269 0.43681 0.0
H1541 H 0.27291 0.14443 0.41388 0.0
C1542 C 0.48032 0.49843 0.88566 0.0
C1543 C 0.48559 0.48314 0.88897 0.0
C1544 C 0.46915 0.5006 0.8735 0.0
C1545 C 0.43745 0.47934 0.85023 0.0
H1546 H 0.44325 0.51429 0.82083 0.0
C1547 C 0.39797 0.48558 0.79395 0.0
C1548 C 0.39369 0.50099 0.78983 0.0
C1549 C 0.40893 0.48336 0.8063 0.0
C1550 C 0.44133 0.5046 0.82907 0.0
H1551 H 0.48352 0.45817 0.88183 0.0
H1552 H 0.46392 0.46196 0.8607 0.0
H1553 H 0.46306 0.51054 0.84175 0.0
H1554 H 0.39722 0.52615 0.79572 0.0
H1555 H 0.41609 0.52225 0.81742 0.0
H1556 H 0.41567 0.47346 0.83766 0.0
C1557 C 0.4683 0.47224 0.86766 0.0
C1558 C 0.45271 0.50244 0.84103 0.0
C1559 C 0.47951 0.47008 0.87977 0.0
C1560 C 0.40035 0.51412 0.79852 0.0
C1561 C 0.41125 0.51189 0.8109 0.0
C1562 C 0.42603 0.48154 0.83832 0.0
C1563 C 0.46296 0.48751 0.86443 0.0
C1564 C 0.4509 0.48978 0.85172 0.0
C1565 C 0.41579 0.4965 0.81483 0.0
C1566 C 0.42784 0.4942 0.8276 0.0
H1567 H 0.48455 0.50871 0.89269 0.0
H1568 H 0.46511 0.51249 0.87142 0.0
H1569 H 0.43563 0.46961 0.85845 0.0
H1570 H 0.39309 0.47522 0.78745 0.0
H1571 H 0.4123 0.47135 0.8089 0.0
C1572 C 0.72769 0.74243 0.13475 0.0
C1573 C 0.72595 0.75864 0.13154 0.0
C1574 C 0.73234 0.73187 0.12263 0.0
C1575 C 0.73256 0.72687 0.07874 0.0
H1576 H 0.76275 0.69403 0.08706 0.0
C1577 C 0.75501 0.68559 0.02833 0.0
C1578 C 0.75573 0.66933 0.03183 0.0
C1579 C 0.75247 0.69682 0.04055 0.0
C1580 C 0.7542 0.70305 0.08459 0.0
H1581 H 0.72775 0.77648 0.1131 0.0
H1582 H 0.73608 0.75807 0.09197 0.0
H1583 H 0.75629 0.7131 0.10835 0.0
H1584 H 0.75462 0.65214 0.05094 0.0
H1585 H 0.74998 0.67174 0.07223 0.0
H1586 H 0.7303 0.71675 0.05507 0.0
C1587 C 0.73373 0.75352 0.10385 0.0
C1588 C 0.75051 0.71397 0.09678 0.0
C1589 C 0.72912 0.76409 0.11598 0.0
C1590 C 0.75415 0.66458 0.04785 0.0
C1591 C 0.75158 0.67582 0.06007 0.0
C1592 C 0.73623 0.71595 0.06657 0.0
C1593 C 0.7353 0.73728 0.10702 0.0
C1594 C 0.7396 0.72595 0.09399 0.0
C1595 C 0.75056 0.69204 0.05653 0.0
C1596 C 0.74705 0.70389 0.06937 0.0
H1597 H 0.72549 0.73791 0.14667 0.0
H1598 H 0.73331 0.7194 0.12541 0.0
H1599 H 0.72392 0.7358 0.0763 0.0
H1600 H 0.75628 0.68966 0.01613 0.0
H1601 H 0.75199 0.70925 0.03746 0.0
C1602 C 0.97307 0.04344 0.11282 0.0
C1603 C 0.97839 0.03005 0.10426 0.0
C1604 C 0.96291 0.04159 0.12599 0.0
C1605 C 0.94972 0.01263 0.15626 0.0
H1606 H 0.91366 0.04005 0.16118 0.0
C1607 C 0.90099 0.00161 0.20398 0.0
C1608 C 0.89545 0.01499 0.21236 0.0
C1609 C 0.91097 0.00346 0.19068 0.0
C1610 C 0.92378 0.03242 0.16008 0.0
H1611 H 0.97709 0.00424 0.10275 0.0
H1612 H 0.95941 0.00102 0.1258 0.0
H1613 H 0.93148 0.04325 0.13823 0.0
H1614 H 0.89598 0.04083 0.21331 0.0
H1615 H 0.91355 0.04406 0.19019 0.0
H1616 H 0.94208 0.00184 0.17813 0.0
C1617 C 0.96326 0.01293 0.12242 0.0
C1618 C 0.93398 0.03425 0.14693 0.0
C1619 C 0.97339 0.01478 0.10923 0.0
C1620 C 0.90001 0.03027 0.20709 0.0
C1621 C 0.91001 0.03213 0.19379 0.0
C1622 C 0.93955 0.01082 0.16942 0.0
C1623 C 0.95788 0.02632 0.13092 0.0
C1624 C 0.94706 0.02437 0.14488 0.0
C1625 C 0.91565 0.01874 0.18547 0.0
C1626 C 0.92645 0.02068 0.17147 0.0
H1627 H 0.97692 0.05536 0.10946 0.0
H1628 H 0.95918 0.05212 0.13245 0.0
H1629 H 0.95984 0.005 0.15514 0.0
H1630 H 0.89764 0.98966 0.20769 0.0
H1631 H 0.91491 0.99291 0.18439 0.0
C1632 C 0.26114 0.75498 0.13216 0.0
C1633 C 0.26997 0.75953 0.14599 0.0
C1634 C 0.25746 0.76621 0.12071 0.0
C1635 C 0.271 0.80458 0.10487 0.0
H1636 H 0.22775 0.80658 0.08849 0.0
C1637 C 0.25303 0.85423 0.06251 0.0
C1638 C 0.24249 0.85001 0.04987 0.0
C1639 C 0.25589 0.84349 0.07468 0.0
C1640 C 0.23993 0.80606 0.09277 0.0
H1641 H 0.28164 0.77958 0.15865 0.0
H1642 H 0.27555 0.79905 0.13842 0.0
H1643 H 0.23387 0.787 0.10863 0.0
H1644 H 0.22665 0.83125 0.04009 0.0
H1645 H 0.23198 0.81236 0.06105 0.0
H1646 H 0.27724 0.82329 0.0888 0.0
C1647 C 0.27155 0.78676 0.13648 0.0
C1648 C 0.24341 0.79487 0.10434 0.0
C1649 C 0.27508 0.77558 0.14802 0.0
C1650 C 0.23476 0.83489 0.04973 0.0
C1651 C 0.23775 0.82409 0.06181 0.0
C1652 C 0.26758 0.81564 0.09318 0.0
C1653 C 0.26268 0.78219 0.12275 0.0
C1654 C 0.25897 0.79405 0.11051 0.0
C1655 C 0.24843 0.82822 0.0744 0.0
C1656 C 0.252 0.81654 0.08699 0.0
H1657 H 0.25724 0.74269 0.13005 0.0
H1658 H 0.25076 0.76234 0.11012 0.0
H1659 H 0.28315 0.80405 0.1093 0.0
H1660 H 0.25909 0.86584 0.063 0.0
H1661 H 0.26394 0.84721 0.08434 0.0
C1662 C 0.02562 0.49648 0.10308 0.0
C1663 C 0.02222 0.48135 0.09617 0.0
C1664 C 0.03419 0.49806 0.11745 0.0
C1665 C 0.06212 0.47722 0.14313 0.0
H1666 H 0.04786 0.50653 0.17622 0.0
C1667 C 0.08989 0.48001 0.20658 0.0
C1668 C 0.09276 0.49522 0.21351 0.0
C1669 C 0.08104 0.47813 0.1924 0.0
C1670 C 0.0521 0.49843 0.16703 0.0
H1671 H 0.025 0.45598 0.09904 0.0
H1672 H 0.04006 0.45876 0.12406 0.0
H1673 H 0.03307 0.50371 0.15104 0.0
H1674 H 0.08858 0.5204 0.21102 0.0
H1675 H 0.07335 0.51714 0.1862 0.0
H1676 H 0.08122 0.47201 0.15905 0.0
C1677 C 0.03626 0.46941 0.11825 0.0
C1678 C 0.04362 0.49681 0.15262 0.0
C1679 C 0.02766 0.46783 0.10391 0.0
C1680 C 0.08653 0.5085 0.20602 0.0
C1681 C 0.07772 0.50663 0.19184 0.0
C1682 C 0.07063 0.47887 0.15753 0.0
C1683 C 0.03957 0.48454 0.12519 0.0
C1684 C 0.04856 0.48621 0.14051 0.0
C1685 C 0.0749 0.49143 0.18484 0.0
C1686 C 0.06573 0.48951 0.16963 0.0
H1687 H 0.02182 0.50714 0.09729 0.0
H1688 H 0.03677 0.50989 0.1224 0.0
H1689 H 0.06633 0.46911 0.13393 0.0
H1690 H 0.09448 0.46953 0.21209 0.0
H1691 H 0.0789 0.46624 0.18743 0.0
C1692 C 0.35202 0.73505 0.27059 0.0
C1693 C 0.35129 0.72047 0.26202 0.0
C1694 C 0.36437 0.73847 0.28155 0.0
C1695 C 0.40539 0.72795 0.29106 0.0
H1696 H 0.39654 0.7463 0.33305 0.0
C1697 C 0.45416 0.73492 0.33947 0.0
C1698 C 0.45474 0.74906 0.34876 0.0
C1699 C 0.44117 0.73127 0.32939 0.0
C1700 C 0.39923 0.74136 0.3213 0.0
H1701 H 0.36293 0.69809 0.25811 0.0
H1702 H 0.38449 0.70404 0.2773 0.0
H1703 H 0.37456 0.74038 0.31433 0.0
H1704 H 0.44204 0.77038 0.35493 0.0
H1705 H 0.41946 0.76415 0.33708 0.0
H1706 H 0.43003 0.7291 0.29784 0.0
C1707 C 0.37554 0.71284 0.2755 0.0
C1708 C 0.38664 0.73795 0.31061 0.0
C1709 C 0.36313 0.70937 0.26463 0.0
C1710 C 0.44192 0.75936 0.34795 0.0
C1711 C 0.42895 0.75576 0.33778 0.0
C1712 C 0.41797 0.73144 0.3017 0.0
C1713 C 0.37629 0.72742 0.28405 0.0
C1714 C 0.3896 0.73115 0.2954 0.0
C1715 C 0.42849 0.74173 0.32827 0.0
C1716 C 0.41505 0.73812 0.31698 0.0
H1717 H 0.34297 0.74377 0.26891 0.0
H1718 H 0.36473 0.74985 0.28789 0.0
H1719 H 0.40805 0.72295 0.27932 0.0
H1720 H 0.46379 0.72665 0.33992 0.0
H1721 H 0.44106 0.72021 0.32248 0.0
C1722 C 0.99099 0.39019 0.97778 0.0
C1723 C 0.98922 0.40534 0.97128 0.0
C1724 C 0.99288 0.37691 0.96773 0.0
C1725 C 0.00512 0.36495 0.92701 0.0
H1726 H 0.98045 0.32614 0.93579 0.0
C1727 C 0.00145 0.31158 0.88235 0.0
C1728 C 0.00158 0.29622 0.88871 0.0
C1729 C 0.00031 0.32493 0.89248 0.0
C1730 C 0.98759 0.33681 0.93329 0.0
H1731 H 0.98835 0.41851 0.94919 0.0
H1732 H 0.99157 0.39525 0.9316 0.0
H1733 H 0.97791 0.3494 0.95341 0.0
H1734 H 0.00086 0.28283 0.91073 0.0
H1735 H -0.00084 0.30612 0.92842 0.0
H1736 H 0.01487 0.35235 0.90695 0.0
C1737 C 0.99154 0.39368 0.94447 0.0
C1738 C 0.98611 0.35014 0.94337 0.0
C1739 C 0.98955 0.40696 0.95453 0.0
C1740 C 0.0007 0.2945 0.90544 0.0
C1741 C -0.00036 0.30784 0.91557 0.0
C1742 C 0.00666 0.35159 0.91696 0.0
C1743 C 0.99314 0.37851 0.95097 0.0
C1744 C 0.99484 0.36435 0.94032 0.0
C1745 C -0.00064 0.32321 0.90921 0.0
C1746 C -0.00211 0.33737 0.91997 0.0
H1747 H 0.99063 0.38856 0.99064 0.0
H1748 H 0.99423 0.36539 0.97308 0.0
H1749 H 0.01215 0.37569 0.92449 0.0
H1750 H 0.00205 0.31332 0.86951 0.0
H1751 H -9e-05 0.33657 0.88718 0.0
C1752 C 0.61883 0.79791 0.24153 0.0
C1753 C 0.63334 0.79012 0.24259 0.0
C1754 C 0.60608 0.79372 0.25157 0.0
C1755 C 0.5911 0.76188 0.27871 0.0
H1756 H 0.56446 0.79538 0.29501 0.0
C1757 C 0.54529 0.75383 0.33037 0.0
C1758 C 0.53008 0.75981 0.32761 0.0
C1759 C 0.55779 0.75691 0.31963 0.0
C1760 C 0.57174 0.7859 0.29045 0.0
H1761 H 0.646 0.77196 0.25496 0.0
H1762 H 0.62392 0.76493 0.27287 0.0
H1763 H 0.58662 0.80205 0.27715 0.0
H1764 H 0.516 0.77361 0.31141 0.0
H1765 H 0.53792 0.77917 0.29281 0.0
H1766 H 0.57635 0.74584 0.29248 0.0
C1767 C 0.62218 0.77398 0.26402 0.0
C1768 C 0.5844 0.78968 0.28015 0.0
C1769 C 0.63487 0.77803 0.25382 0.0
C1770 C 0.52758 0.76882 0.31386 0.0
C1771 C 0.54013 0.77208 0.30326 0.0
C1772 C 0.57854 0.75814 0.28919 0.0
C1773 C 0.60763 0.7818 0.26305 0.0
C1774 C 0.5942 0.77772 0.27408 0.0
C1775 C 0.55535 0.76621 0.30608 0.0
C1776 C 0.56872 0.77011 0.29508 0.0
H1777 H 0.6173 0.80713 0.23281 0.0
H1778 H 0.59496 0.79977 0.25023 0.0
H1779 H 0.59822 0.75232 0.27408 0.0
H1780 H 0.54756 0.74681 0.34084 0.0
H1781 H 0.56946 0.75233 0.3221 0.0
C1782 C 0.0027 0.11027 0.98079 0.0
C1783 C 0.01817 0.10494 0.98363 0.0
C1784 C 0.00037 0.12311 0.97077 0.0
C1785 C 0.01893 0.14584 0.93804 0.0
H1786 H 0.99015 0.17861 0.95171 0.0
C1787 C 0.01337 0.20448 0.90383 0.0
C1788 C -0.00203 0.21042 0.90222 0.0
C1789 C 0.01597 0.1916 0.91375 0.0
C1790 C -0.00193 0.16946 0.94762 0.0
H1791 H 0.04333 0.10901 0.97821 0.0
H1792 H 0.03921 0.13133 0.96054 0.0
H1793 H 0.99437 0.15602 0.96894 0.0
H1794 H 0.97321 0.20742 0.90961 0.0
H1795 H 0.97769 0.18479 0.92666 0.0
H1796 H 0.02252 0.15917 0.91665 0.0
C1797 C 0.02889 0.12546 0.96599 0.0
C1798 C 0.0005 0.15654 0.95751 0.0
C1799 C 0.03124 0.11266 0.97608 0.0
C1800 C 0.98523 0.20318 0.91066 0.0
C1801 C 0.98782 0.19026 0.92051 0.0
C1802 C 0.01644 0.15872 0.92811 0.0
C1803 C 0.01344 0.13085 0.9633 0.0
C1804 C 0.01094 0.14459 0.95281 0.0
C1805 C 0.00322 0.18435 0.9222 0.0
C1806 C 0.00596 0.17068 0.93278 0.0
H1807 H 0.99235 0.10441 0.98617 0.0
H1808 H 0.9883 0.12685 0.96871 0.0
H1809 H 0.0269 0.1367 0.93403 0.0
H1810 H 0.02345 0.20984 0.89754 0.0
H1811 H 0.02801 0.18748 0.91495 0.0
C1812 C 0.35575 0.26512 0.22108 0.0
C1813 C 0.35326 0.27991 0.22866 0.0
C1814 C 0.36814 0.26345 0.21004 0.0
C1815 C 0.40701 0.28157 0.19873 0.0
H1816 H 0.40099 0.25594 0.15983 0.0
C1817 C 0.45674 0.27608 0.15137 0.0
C1818 C 0.45919 0.2607 0.14513 0.0
C1819 C 0.44327 0.2791 0.16068 0.0
C1820 C 0.40288 0.26303 0.17071 0.0
H1821 H 0.36178 0.30456 0.23058 0.0
H1822 H 0.38331 0.30169 0.21111 0.0
H1823 H 0.37837 0.26002 0.17774 0.0
H1824 H 0.44931 0.23649 0.14355 0.0
H1825 H 0.42591 0.24173 0.15994 0.0
H1826 H 0.43153 0.28442 0.19184 0.0
C1827 C 0.37574 0.29136 0.21381 0.0
C1828 C 0.38994 0.26537 0.18095 0.0
C1829 C 0.36332 0.29304 0.22483 0.0
C1830 C 0.44776 0.24847 0.14817 0.0
C1831 C 0.4343 0.2515 0.15748 0.0
C1832 C 0.41994 0.27922 0.1885 0.0
C1833 C 0.37834 0.27653 0.20637 0.0
C1834 C 0.39189 0.27457 0.19513 0.0
C1835 C 0.43197 0.26681 0.16394 0.0
C1836 C 0.41805 0.26983 0.17443 0.0
H1837 H 0.34808 0.25482 0.22365 0.0
H1838 H 0.36994 0.25183 0.20462 0.0
H1839 H 0.40895 0.28852 0.20969 0.0
H1840 H 0.46528 0.28579 0.14918 0.0
H1841 H 0.4417 0.29108 0.1653 0.0
C1842 C 0.54122 0.39807 0.01235 0.0
C1843 C 0.52848 0.4047 0.0041 0.0
C1844 C 0.53844 0.38538 0.02269 0.0
C1845 C 0.50631 0.36554 0.0462 0.0
H1846 H 0.53544 0.3307 0.0473 0.0
C1847 C 0.49144 0.30725 0.07918 0.0
C1848 C 0.50367 0.30097 0.08844 0.0
C1849 C 0.49471 0.32 0.06906 0.0
C1850 C 0.5273 0.34043 0.04724 0.0
H1851 H 0.50281 0.4032 0.00029 0.0
H1852 H 0.49803 0.3808 0.01794 0.0
H1853 H 0.5407 0.35269 0.02911 0.0
H1854 H 0.52894 0.30311 0.09431 0.0
H1855 H 0.53462 0.32542 0.0766 0.0
H1856 H 0.49283 0.35319 0.0642 0.0
C1857 C 0.51015 0.38555 0.01661 0.0
C1858 C 0.53031 0.35303 0.03684 0.0
C1859 C 0.51292 0.39826 0.00632 0.0
C1860 C 0.51926 0.30769 0.08733 0.0
C1861 C 0.52254 0.32039 0.07713 0.0
C1862 C 0.50327 0.35291 0.05653 0.0
C1863 C 0.52286 0.37902 0.02499 0.0
C1864 C 0.51982 0.3657 0.03616 0.0
C1865 C 0.51029 0.3267 0.06792 0.0
C1866 C 0.5137 0.34021 0.05712 0.0
H1867 H 0.55337 0.40265 0.01078 0.0
H1868 H 0.54848 0.38071 0.02907 0.0
H1869 H 0.49816 0.37526 0.0462 0.0
H1870 H 0.47932 0.30233 0.07973 0.0
H1871 H 0.48507 0.3245 0.06196 0.0
C1872 C 0.6138 0.20884 0.25167 0.0
C1873 C 0.62479 0.22107 0.2564 0.0
C1874 C 0.60231 0.21148 0.23993 0.0
C1875 C 0.58183 0.24374 0.21951 0.0
H1876 H 0.57255 0.21108 0.18695 0.0
C1877 C 0.54487 0.25558 0.16284 0.0
C1878 C 0.53326 0.24386 0.15828 0.0
C1879 C 0.55592 0.25264 0.1749 0.0
C1880 C 0.57491 0.22025 0.19606 0.0
H1881 H 0.63255 0.24557 0.25236 0.0
H1882 H 0.6126 0.25015 0.23182 0.0
H1883 H 0.59193 0.20622 0.20803 0.0
H1884 H 0.52423 0.2198 0.16269 0.0
H1885 H 0.54352 0.2147 0.18376 0.0
H1886 H 0.5649 0.25781 0.20743 0.0
C1887 C 0.61262 0.23862 0.2374 0.0
C1888 C 0.58598 0.21746 0.20815 0.0
C1889 C 0.62406 0.23599 0.24916 0.0
C1890 C 0.53303 0.22909 0.16593 0.0
C1891 C 0.54412 0.22613 0.17793 0.0
C1892 C 0.57081 0.24654 0.20739 0.0
C1893 C 0.60162 0.22639 0.23263 0.0
C1894 C 0.5896 0.22919 0.21998 0.0
C1895 C 0.55564 0.2379 0.1826 0.0
C1896 C 0.56726 0.23485 0.19552 0.0
H1897 H 0.61396 0.19727 0.25718 0.0
H1898 H 0.59386 0.20188 0.23668 0.0
H1899 H 0.58415 0.25292 0.2286 0.0
H1900 H 0.54539 0.26708 0.15717 0.0
H1901 H 0.56478 0.26187 0.17811 0.0
C1902 C 0.47675 0.11514 0.0268 0.0
C1903 C 0.48952 0.10637 0.02084 0.0
C1904 C 0.47965 0.12912 0.03582 0.0
C1905 C 0.51034 0.16078 0.0435 0.0
H1906 H 0.4849 0.16957 0.08132 0.0
C1907 C 0.52432 0.21438 0.08639 0.0
C1908 C 0.51121 0.22268 0.09228 0.0
C1909 C 0.52193 0.2001 0.0777 0.0
C1910 C 0.49199 0.16737 0.07068 0.0
H1911 H 0.51537 0.10522 0.02001 0.0
H1912 H 0.52043 0.12969 0.03572 0.0
H1913 H 0.48025 0.14466 0.06628 0.0
H1914 H 0.4853 0.22263 0.0935 0.0
H1915 H 0.48114 0.19787 0.0782 0.0
H1916 H 0.522 0.18354 0.04784 0.0
C1917 C 0.50817 0.12584 0.03321 0.0
C1918 C 0.48933 0.15309 0.06209 0.0
C1919 C 0.50527 0.11184 0.02421 0.0
C1920 C 0.49566 0.21649 0.08919 0.0
C1921 C 0.49328 0.20224 0.0805 0.0
C1922 C 0.51298 0.17507 0.05208 0.0
C1923 C 0.49539 0.13466 0.03906 0.0
C1924 C 0.49844 0.14967 0.04837 0.0
C1925 C 0.50638 0.19383 0.07474 0.0
C1926 C 0.50378 0.17855 0.06574 0.0
H1927 H 0.46448 0.11138 0.0242 0.0
H1928 H 0.46955 0.13578 0.03997 0.0
H1929 H 0.5174 0.15856 0.03285 0.0
H1930 H 0.53645 0.21882 0.08861 0.0
H1931 H 0.53227 0.19382 0.07356 0.0
C1932 C 0.24996 0.39538 0.6936 0.0
C1933 C 0.24611 0.38377 0.70502 0.0
C1934 C 0.26146 0.40743 0.69704 0.0
C1935 C 0.29671 0.41615 0.72211 0.0
H1936 H 0.28938 0.46032 0.71266 0.0
C1937 C 0.34659 0.46548 0.72529 0.0
C1938 C 0.34269 0.47966 0.73335 0.0
C1939 C 0.33474 0.45381 0.7217 0.0
C1940 C 0.29156 0.44803 0.7154 0.0
H1941 H 0.25126 0.37563 0.72895 0.0
H1942 H 0.27136 0.3967 0.73496 0.0
H1943 H 0.26847 0.43994 0.70681 0.0
H1944 H 0.32329 0.49277 0.74388 0.0
H1945 H 0.30261 0.47243 0.73749 0.0
H1946 H 0.31977 0.42423 0.73072 0.0
C1947 C 0.26548 0.39646 0.72336 0.0
C1948 C 0.27966 0.43638 0.71194 0.0
C1949 C 0.25388 0.38452 0.71998 0.0
C1950 C 0.32669 0.48197 0.73767 0.0
C1951 C 0.31483 0.47038 0.73394 0.0
C1952 C 0.30866 0.42777 0.72541 0.0
C1953 C 0.26945 0.40798 0.71189 0.0
C1954 C 0.2821 0.42034 0.71535 0.0
C1955 C 0.31874 0.45618 0.72594 0.0
C1956 C 0.30617 0.44383 0.72216 0.0
H1957 H 0.24408 0.39512 0.682 0.0
H1958 H 0.26436 0.41612 0.68796 0.0
H1959 H 0.29895 0.40385 0.72471 0.0
H1960 H 0.35881 0.46334 0.7218 0.0
H1961 H 0.33806 0.44302 0.71541 0.0
C1962 C 0.24688 0.64391 0.78235 0.0
C1963 C 0.23953 0.64491 0.79747 0.0
C1964 C 0.25833 0.63256 0.77927 0.0
C1965 C 0.28643 0.60699 0.80009 0.0
H1966 H 0.28841 0.58532 0.75866 0.0
C1967 C 0.32644 0.55358 0.78763 0.0
C1968 C 0.33477 0.55337 0.77299 0.0
C1969 C 0.31509 0.56502 0.79071 0.0
C1970 C 0.2881 0.59141 0.77023 0.0
H1971 H 0.23797 0.63448 0.82104 0.0
H1972 H 0.2578 0.61449 0.8156 0.0
H1973 H 0.26755 0.6043 0.76377 0.0
H1974 H 0.33791 0.56516 0.7502 0.0
H1975 H 0.31806 0.58515 0.75562 0.0
H1976 H 0.30689 0.59394 0.80658 0.0
C1977 C 0.255 0.62272 0.80624 0.0
C1978 C 0.27616 0.60228 0.77316 0.0
C1979 C 0.24361 0.63412 0.80934 0.0
C1980 C 0.33168 0.56499 0.76159 0.0
C1981 C 0.32025 0.57637 0.76464 0.0
C1982 C 0.29831 0.59606 0.79718 0.0
C1983 C 0.26262 0.62191 0.79122 0.0
C1984 C 0.27519 0.61021 0.78813 0.0
C1985 C 0.31177 0.57643 0.77918 0.0
C1986 C 0.29927 0.58817 0.78222 0.0
H1987 H 0.24411 0.65221 0.77304 0.0
H1988 H 0.26412 0.63242 0.76765 0.0
H1989 H 0.2862 0.61311 0.81165 0.0
H1990 H 0.32855 0.54479 0.79666 0.0
H1991 H 0.30864 0.5647 0.80197 0.0
C1992 C 0.90691 0.46639 0.4941 0.0
C1993 C 0.90533 0.48296 0.4935 0.0
C1994 C 0.89362 0.45636 0.4971 0.0
C1995 C 0.85243 0.45642 0.51342 0.0
H1996 H 0.84739 0.41653 0.48942 0.0
C1997 C 0.79344 0.41864 0.5119 0.0
C1998 C 0.79462 0.40208 0.51334 0.0
C1999 C 0.80717 0.42838 0.51009 0.0
C2000 C 0.84873 0.42756 0.49634 0.0
H2001 H 0.88858 0.502 0.49536 0.0
H2002 H 0.86535 0.4845 0.50038 0.0
H2003 H 0.87096 0.4338 0.48506 0.0
H2004 H 0.81114 0.38277 0.5141 0.0
H2005 H 0.8351 0.39982 0.51089 0.0
H2006 H 0.83002 0.45024 0.52449 0.0
C2007 C 0.8769 0.47926 0.49889 0.0
C2008 C 0.86224 0.43744 0.49387 0.0
C2009 C 0.8902 0.48929 0.49598 0.0
C2010 C 0.80982 0.39548 0.513 0.0
C2011 C 0.82354 0.40522 0.51108 0.0
C2012 C 0.83887 0.44657 0.51582 0.0
C2013 C 0.87844 0.46267 0.49947 0.0
C2014 C 0.86423 0.45201 0.50235 0.0
C2015 C 0.82235 0.42176 0.50958 0.0
C2016 C 0.83687 0.43207 0.50727 0.0
H2017 H 0.91847 0.4612 0.49243 0.0
H2018 H 0.89528 0.44366 0.49772 0.0
H2019 H 0.85372 0.46742 0.52035 0.0
H2020 H 0.78191 0.42409 0.51211 0.0
H2021 H 0.80589 0.44107 0.5088 0.0
C2022 C 0.73831 0.86302 0.80325 0.0
C2023 C 0.74218 0.85334 0.78998 0.0
C2024 C 0.72725 0.87497 0.8017 0.0
C2025 C 0.69375 0.88694 0.77661 0.0
H2026 H 0.70358 0.92927 0.79411 0.0
C2027 C 0.65776 0.94118 0.75953 0.0
C2028 C 0.65475 0.95265 0.77154 0.0
C2029 C 0.66791 0.92875 0.76253 0.0
C2030 C 0.70053 0.91746 0.78936 0.0
H2031 H 0.73737 0.84838 0.76477 0.0
H2032 H 0.71815 0.86931 0.76202 0.0
H2033 H 0.7223 0.9081 0.79809 0.0
H2034 H 0.65982 0.95994 0.7962 0.0
H2035 H 0.67735 0.93809 0.80151 0.0
H2036 H 0.67201 0.89623 0.76789 0.0
C2037 C 0.72361 0.86763 0.77363 0.0
C2038 C 0.71127 0.90535 0.79162 0.0
C2039 C 0.73473 0.85577 0.77516 0.0
C2040 C 0.66196 0.95133 0.78667 0.0
C2041 C 0.67208 0.93886 0.78969 0.0
C2042 C 0.68298 0.89902 0.77442 0.0
C2043 C 0.71976 0.87736 0.78687 0.0
C2044 C 0.70806 0.89002 0.78513 0.0
C2045 C 0.67523 0.92747 0.77763 0.0
C2046 C 0.68632 0.91446 0.78062 0.0
H2047 H 0.74395 0.86147 0.81479 0.0
H2048 H 0.72443 0.88224 0.81212 0.0
H2049 H 0.69085 0.87516 0.77169 0.0
H2050 H 0.65244 0.94189 0.74772 0.0
H2051 H 0.67027 0.92033 0.7529 0.0
C2052 C 0.60838 0.54001 0.96279 0.0
C2053 C 0.59921 0.53268 0.97489 0.0
C2054 C 0.62091 0.55081 0.96674 0.0
C2055 C 0.649 0.56098 -0.00055 0.0
H2056 H 0.65811 0.5989 0.97477 0.0
C2057 C 0.7101 0.59464 0.00122 0.0
C2058 C 0.71029 0.61138 0.00137 0.0
C2059 C 0.69577 0.58584 -0.00096 0.0
C2060 C 0.65563 0.58845 0.98188 0.0
H2061 H 0.59557 0.53148 0.00062 0.0
H2062 H 0.6175 0.55028 0.00753 0.0
H2063 H 0.63401 0.58253 0.96897 0.0
H2064 H 0.69556 0.632 -0.00043 0.0
H2065 H 0.6705 0.61658 0.99579 0.0
H2066 H 0.67061 0.56686 0.01234 0.0
C2067 C 0.61514 0.54748 0.99499 0.0
C2068 C 0.64193 0.57899 0.97845 0.0
C2069 C 0.6026 0.5367 0.99103 0.0
C2070 C 0.69581 0.61912 -0.00051 0.0
C2071 C 0.68148 0.6103 -0.00276 0.0
C2072 C 0.66272 0.5704 0.00283 0.0
C2073 C 0.62455 0.5545 0.98289 0.0
C2074 C 0.63855 0.56508 0.9871 0.0
C2075 C 0.68133 0.59357 0.99692 0.0
C2076 C 0.66627 0.58413 0.99398 0.0
H2077 H 0.6062 0.53702 0.95025 0.0
H2078 H 0.62807 0.55586 0.95716 0.0
H2079 H 0.64681 0.55025 0.00623 0.0
H2080 H 0.72104 0.58831 0.00262 0.0
H2081 H 0.69607 0.57296 -0.00134 0.0
C2082 C 0.23152 0.62962 0.23002 0.0
C2083 C 0.23833 0.63277 0.21494 0.0
C2084 C 0.22133 0.61631 0.23208 0.0
C2085 C 0.21082 0.57674 0.21499 0.0
H2086 H 0.17151 0.58138 0.239 0.0
C2087 C 0.16304 0.52568 0.21965 0.0
C2088 C 0.15555 0.52368 0.2346 0.0
C2089 C 0.17305 0.53901 0.21691 0.0
C2090 C 0.18253 0.57983 0.23243 0.0
H2091 H 0.23998 0.62434 0.19026 0.0
H2092 H 0.22209 0.60103 0.19386 0.0
H2093 H 0.18926 0.60457 0.2349 0.0
H2094 H 0.15281 0.53402 0.25846 0.0
H2095 H 0.17049 0.55709 0.2538 0.0
H2096 H 0.20422 0.55196 0.21269 0.0
C2097 C 0.22469 0.60887 0.20407 0.0
C2098 C 0.19267 0.59313 0.23006 0.0
C2099 C 0.23481 0.62227 0.20198 0.0
C2100 C 0.15833 0.53525 0.24678 0.0
C2101 C 0.1684 0.54854 0.24407 0.0
C2102 C 0.20071 0.56341 0.21743 0.0
C2103 C 0.21781 0.6058 0.21913 0.0
C2104 C 0.20694 0.59171 0.22137 0.0
C2105 C 0.17584 0.5506 0.22909 0.0
C2106 C 0.18648 0.56479 0.22624 0.0
H2107 H 0.2339 0.63759 0.24018 0.0
H2108 H 0.21632 0.61415 0.24385 0.0
H2109 H 0.22183 0.57527 0.20839 0.0
H2110 H 0.16109 0.51701 0.20999 0.0
H2111 H 0.17844 0.54035 0.20517 0.0
C2112 C 0.8988 0.52421 0.02773 0.0
C2113 C 0.90654 0.51796 0.01415 0.0
C2114 C 0.88514 0.53309 0.02606 0.0
C2115 C 0.85205 0.54011 -0.00153 0.0
H2116 H 0.84855 0.5797 0.0227 0.0
C2117 C 0.80254 0.58426 0.98607 0.0
C2118 C 0.79584 0.59225 -0.00074 0.0
C2119 C 0.81578 0.57484 0.9881 0.0
C2120 C 0.84922 0.56856 0.01602 0.0
H2121 H 0.90604 0.51635 0.98812 0.0
H2122 H 0.88204 0.53169 0.98523 0.0
H2123 H 0.87219 0.56394 0.02586 0.0
H2124 H 0.79758 0.59641 0.025 0.0
H2125 H 0.82047 0.57971 0.0286 0.0
H2126 H 0.82904 0.54462 0.98872 0.0
C2127 C 0.88652 0.52957 -0.00282 0.0
C2128 C 0.86279 0.55956 0.0178 0.0
C2129 C 0.90024 0.52077 -0.00116 0.0
C2130 C 0.80252 0.59047 0.01457 0.0
C2131 C 0.81571 0.58098 0.01662 0.0
C2132 C 0.83843 0.54906 0.99675 0.0
C2133 C 0.87885 0.53584 0.01077 0.0
C2134 C 0.86437 0.54528 0.009 0.0
C2135 C 0.82256 0.57314 0.00338 0.0
C2136 C 0.83688 0.56342 0.00546 0.0
H2137 H 0.90315 0.52203 0.03971 0.0
H2138 H 0.87935 0.53761 0.03675 0.0
H2139 H 0.85286 0.52903 0.9917 0.0
H2140 H 0.79772 0.58544 0.9741 0.0
H2141 H 0.82089 0.56917 0.97761 0.0
C2142 C 0.1039 0.98363 0.03749 0.0
C2143 C 0.0955 0.98906 0.02415 0.0
C2144 C 0.1172 0.97424 0.03536 0.0
C2145 C 0.14824 0.96458 0.00595 0.0
H2146 H 0.15431 0.92807 0.03278 0.0
C2147 C 0.19886 0.92087 0.99468 0.0
C2148 C 0.20687 0.9154 0.00822 0.0
C2149 C 0.18508 0.92965 0.99646 0.0
C2150 C 0.15288 0.93834 0.02531 0.0
H2151 H 0.09428 0.98855 -0.00186 0.0
H2152 H 0.11757 0.97224 0.99443 0.0
H2153 H 0.13048 0.94366 0.03618 0.0
H2154 H 0.20678 0.91493 0.03425 0.0
H2155 H 0.18291 0.93044 0.03735 0.0
H2156 H 0.17069 0.95937 0.99517 0.0
C2157 C 0.11397 0.97543 0.00652 0.0
C2158 C 0.13922 0.94724 0.02725 0.0
C2159 C 0.10064 0.98478 0.00865 0.0
C2160 C 0.20086 0.91893 0.02357 0.0
C2161 C 0.18711 0.92773 0.02535 0.0
C2162 C 0.16192 0.9557 0.00404 0.0
C2163 C 0.12242 0.97011 0.01985 0.0
C2164 C 0.13677 0.96048 0.01761 0.0
C2165 C 0.17905 0.93317 0.01182 0.0
C2166 C 0.16442 0.9425 0.01372 0.0
H2167 H 0.10041 0.98692 0.04958 0.0
H2168 H 0.1236 0.97051 0.04586 0.0
H2169 H 0.1468 0.97486 -0.0015 0.0
H2170 H 0.20314 0.9183 0.98268 0.0
H2171 H 0.17904 0.93349 0.98578 0.0
loop_
_geom_bond_atom_site_label_1
_geom_bond_atom_site_label_2
_geom_bond_distance
_geom_bond_site_symmetry_2
_ccdc_geom_bond_type
C0 C1 1.384 . S
C0 H13 0.947 . S
C0 C35 1.382 1_655 S
C1 C0 1.384 . S
C1 C2 1.378 1_655 S
C2 C1 1.378 1_455 S
C2 C3 1.378 . S
C2 H14 0.952 . S
C3 C2 1.378 . S
C3 H15 0.950 . S
C3 C34 1.383 . S
H4 C23 0.947 . S
H5 C24 0.946 1_565 S
H6 C26 0.953 . S
H7 C27 0.945 . S
H8 C29 0.952 . S
H9 C30 0.949 . S
H10 C32 0.950 . S
H11 C33 0.948 . S
H12 C35 0.951 . S
H13 C0 0.947 . S
H14 C2 0.952 . S
H15 C3 0.950 . S
N16 C19 1.382 . S
N16 C21 1.363 . S
N17 C19 1.371 . S
N17 C20 1.372 . S
N18 C20 1.361 . S
N18 C21 1.377 . S
C19 N16 1.382 . S
C19 N17 1.371 . S
C19 C22 1.480 . S
C20 N17 1.372 . S
C20 N18 1.361 . S
C20 C28 1.457 . S
C21 N16 1.363 . S
C21 N18 1.377 . S
C21 C34 1.479 . S
C22 C19 1.480 . S
C22 C23 1.383 . S
C22 C27 1.385 . S
C23 H4 0.947 . S
C23 C22 1.383 . S
C23 C24 1.388 . S
C24 H5 0.946 1_545 S
C24 C23 1.388 . S
C24 C25 1.384 . S
C25 C24 1.384 . S
C25 C26 1.377 . S
C26 H6 0.953 . S
C26 C25 1.377 . S
C26 C27 1.369 . S
C27 H7 0.945 . S
C27 C22 1.385 . S
C27 C26 1.369 . S
C28 C20 1.457 . S
C28 C29 1.372 . S
C28 C33 1.364 . S
C29 H8 0.952 . S
C29 C28 1.372 . S
C29 C30 1.389 1_554 S
C30 H9 0.949 . S
C30 C29 1.389 1_556 S
C30 C31 1.387 1_556 S
C31 C30 1.387 1_554 S
C31 C32 1.372 . S
C32 H10 0.950 . S
C32 C31 1.372 . S
C32 C33 1.379 . S
C33 H11 0.948 . S
C33 C28 1.364 . S
C33 C32 1.379 . S
C34 C3 1.383 . S
C34 C21 1.479 . S
C34 C35 1.398 . S
C35 C0 1.382 1_455 S
C35 H12 0.951 . S
C35 C34 1.398 . S
C36 C37 1.384 . S
C36 H49 0.947 . S
C36 C71 1.382 . S
C37 C36 1.384 . S
C37 C38 1.378 . S
C38 C37 1.378 . S
C38 C39 1.378 . S
C38 H50 0.952 . S
C39 C38 1.378 . S
C39 H51 0.950 . S
C39 C70 1.383 . S
H40 C59 0.947 . S
H41 C60 0.946 . S
H42 C62 0.953 . S
H43 C63 0.945 . S
H44 C65 0.952 . S
H45 C66 0.949 . S
H46 C68 0.950 . S
H47 C69 0.948 . S
H48 C71 0.951 . S
H49 C36 0.947 . S
H50 C38 0.952 . S
H51 C39 0.950 . S
N52 C55 1.382 . S
N52 C57 1.363 . S
N53 C55 1.371 . S
N53 C56 1.372 . S
N54 C56 1.361 . S
N54 C57 1.377 . S
C55 N52 1.382 . S
C55 N53 1.371 . S
C55 C58 1.480 . S
C56 N53 1.372 . S
C56 N54 1.361 . S
C56 C64 1.457 . S
C57 N52 1.363 . S
C57 N54 1.377 . S
C57 C70 1.479 . S
C58 C55 1.480 . S
C58 C59 1.383 . S
C58 C63 1.385 . S
C59 H40 0.947 . S
C59 C58 1.383 . S
C59 C60 1.388 . S
C60 H41 0.946 . S
C60 C59 1.388 . S
C60 C61 1.384 . S
C61 C60 1.384 . S
C61 C62 1.377 . S
C62 H42 0.953 . S
C62 C61 1.377 . S
C62 C63 1.369 . S
C63 H43 0.945 . S
C63 C58 1.385 . S
C63 C62 1.369 . S
C64 C56 1.457 . S
C64 C65 1.372 . S
C64 C69 1.364 . S
C65 H44 0.952 . S
C65 C64 1.372 . S
C65 C66 1.389 . S
C66 H45 0.949 . S
C66 C65 1.389 . S
C66 C67 1.387 . S
C67 C66 1.387 . S
C67 C68 1.372 . S
C68 H46 0.950 . S
C68 C67 1.372 . S
C68 C69 1.379 . S
C69 H47 0.948 . S
C69 C64 1.364 . S
C69 C68 1.379 . S
C70 C39 1.383 . S
C70 C57 1.479 . S
C70 C71 1.398 . S
C71 C36 1.382 . S
C71 H48 0.951 . S
C71 C70 1.398 . S
C72 C73 1.384 1_554 S
C72 H85 0.947 . S
C72 C107 1.382 . S
C73 C72 1.384 1_556 S
C73 C74 1.378 . S
C74 C73 1.378 . S
C74 C75 1.408 . S
C74 H86 0.952 . S
C75 C74 1.408 . S
C75 H87 0.967 . S
C75 C106 1.338 1_556 S
H76 C95 0.947 . S
H77 C96 0.946 . S
H78 C98 0.953 . S
H79 C99 0.945 . S
H80 C101 0.952 . S
H81 C102 0.949 . S
H82 C104 0.950 . S
H83 C105 0.948 . S
H84 C107 0.951 . S
H85 C72 0.947 . S
H86 C74 0.952 . S
H87 C75 0.967 . S
N88 C91 1.382 . S
N88 C93 1.363 . S
N89 C91 1.371 . S
N89 C92 1.372 . S
N90 C92 1.361 . S
N90 C93 1.377 . S
C91 N88 1.382 . S
C91 N89 1.371 . S
C91 C94 1.480 . S
C92 N89 1.372 . S
C92 N90 1.361 . S
C92 C100 1.457 . S
C93 N88 1.363 . S
C93 N90 1.377 . S
C93 C106 1.479 . S
C94 C91 1.480 . S
C94 C95 1.383 . S
C94 C99 1.385 . S
C95 H76 0.947 . S
C95 C94 1.383 . S
C95 C96 1.388 . S
C96 H77 0.946 . S
C96 C95 1.388 . S
C96 C97 1.384 . S
C97 C96 1.384 . S
C97 C98 1.377 . S
C98 H78 0.953 . S
C98 C97 1.377 . S
C98 C99 1.369 . S
C99 H79 0.945 . S
C99 C94 1.385 . S
C99 C98 1.369 . S
C100 C92 1.457 . S
C100 C101 1.372 . S
C100 C105 1.364 1_655 S
C101 H80 0.952 . S
C101 C100 1.372 . S
C101 C102 1.389 . S
C102 H81 0.949 . S
C102 C101 1.389 . S
C102 C103 1.387 1_655 S
C103 C102 1.387 1_455 S
C103 C104 1.372 . S
C104 H82 0.950 . S
C104 C103 1.372 . S
C104 C105 1.379 . S
C105 H83 0.948 . S
C105 C100 1.364 1_455 S
C105 C104 1.379 . S
C106 C75 1.338 1_554 S
C106 C93 1.479 . S
C106 C107 1.398 . S
C107 C72 1.382 . S
C107 H84 0.951 . S
C107 C106 1.398 . S
C108 C109 1.384 . S
C108 H121 0.947 . S
C108 C143 1.382 . S
C109 C108 1.384 . S
C109 C110 1.378 . S
C110 C109 1.378 . S
C110 C111 1.378 . S
C110 H122 0.952 . S
C111 C110 1.378 . S
C111 H123 0.950 . S
C111 C142 1.383 . S
H112 C131 0.947 . S
H113 C132 0.946 . S
H114 C134 0.953 . S
H115 C135 0.945 . S
H116 C137 0.952 . S
H117 C138 0.949 . S
H118 C140 0.950 . S
H119 C141 0.948 . S
H120 C143 0.951 . S
H121 C108 0.947 . S
H122 C110 0.952 . S
H123 C111 0.950 . S
N124 C127 1.382 . S
N124 C129 1.363 . S
N125 C127 1.371 . S
N125 C128 1.372 . S
N126 C128 1.361 . S
N126 C129 1.377 . S
C127 N124 1.382 . S
C127 N125 1.371 . S
C127 C130 1.480 . S
C128 N125 1.372 . S
C128 N126 1.361 . S
C128 C136 1.457 . S
C129 N124 1.363 . S
C129 N126 1.377 . S
C129 C142 1.479 . S
C130 C127 1.480 . S
C130 C131 1.383 . S
C130 C135 1.385 . S
C131 H112 0.947 . S
C131 C130 1.383 . S
C131 C132 1.388 . S
C132 H113 0.946 . S
C132 C131 1.388 . S
C132 C133 1.384 . S
C133 C132 1.384 . S
C133 C134 1.377 . S
C134 H114 0.953 . S
C134 C133 1.377 . S
C134 C135 1.369 . S
C135 H115 0.945 . S
C135 C130 1.385 . S
C135 C134 1.369 . S
C136 C128 1.457 . S
C136 C137 1.372 . S
C136 C141 1.364 . S
C137 H116 0.952 . S
C137 C136 1.372 . S
C137 C138 1.389 . S
C138 H117 0.949 . S
C138 C137 1.389 . S
C138 C139 1.387 . S
C139 C138 1.387 . S
C139 C140 1.372 . S
C140 H118 0.950 . S
C140 C139 1.372 . S
C140 C141 1.379 . S
C141 H119 0.948 . S
C141 C136 1.364 . S
C141 C140 1.379 . S
C142 C111 1.383 . S
C142 C129 1.479 . S
C142 C143 1.398 . S
C143 C108 1.382 . S
C143 H120 0.951 . S
C143 C142 1.398 . S
C144 C145 1.384 . S
C144 H157 0.947 . S
C144 C179 1.382 . S
C145 C144 1.384 . S
C145 C146 1.378 . S
C146 C145 1.378 . S
C146 C147 1.378 . S
C146 H158 0.952 . S
C147 C146 1.378 . S
C147 H159 0.950 . S
C147 C178 1.383 . S
H148 C167 0.947 . S
H149 C168 0.946 . S
H150 C170 0.953 1_545 S
H151 C171 0.945 . S
H152 C173 0.952 . S
H153 C174 0.949 . S
H154 C176 0.950 . S
H155 C177 0.948 . S
H156 C179 0.951 . S
H157 C144 0.947 . S
H158 C146 0.952 . S
H159 C147 0.950 . S
N160 C163 1.382 . S
N160 C165 1.363 . S
N161 C163 1.371 . S
N161 C164 1.372 . S
N162 C164 1.361 . S
N162 C165 1.377 . S
C163 N160 1.382 . S
C163 N161 1.371 . S
C163 C166 1.480 . S
C164 N161 1.372 . S
C164 N162 1.361 . S
C164 C172 1.457 . S
C165 N160 1.363 . S
C165 N162 1.377 . S
C165 C178 1.479 . S
C166 C163 1.480 . S
C166 C167 1.383 . S
C166 C171 1.385 . S
C167 H148 0.947 . S
C167 C166 1.383 . S
C167 C168 1.388 1_455 S
C168 H149 0.946 . S
C168 C167 1.388 1_655 S
C168 C169 1.384 . S
C169 C168 1.384 . S
C169 C170 1.377 1_655 S
C170 H150 0.953 1_565 S
C170 C169 1.377 1_455 S
C170 C171 1.369 . S
C171 H151 0.945 . S
C171 C166 1.385 . S
C171 C170 1.369 . S
C172 C164 1.457 . S
C172 C173 1.372 1_565 S
C172 C177 1.364 . S
C173 H152 0.952 . S
C173 C172 1.372 1_545 S
C173 C174 1.389 . S
C174 H153 0.949 . S
C174 C173 1.389 . S
C174 C175 1.387 . S
C175 C174 1.387 . S
C175 C176 1.372 1_545 S
C176 H154 0.950 . S
C176 C175 1.372 1_565 S
C176 C177 1.379 . S
C177 H155 0.948 . S
C177 C172 1.364 . S
C177 C176 1.379 . S
C178 C147 1.383 . S
C178 C165 1.479 . S
C178 C179 1.398 . S
C179 C144 1.382 . S
C179 H156 0.951 . S
C179 C178 1.398 . S
C180 C181 1.384 . S
C180 H193 0.947 . S
C180 C215 1.382 . S
C181 C180 1.384 . S
C181 C182 1.378 . S
C182 C181 1.378 . S
C182 C183 1.378 . S
C182 H194 0.952 . S
C183 C182 1.378 . S
C183 H195 0.950 . S
C183 C214 1.383 . S
H184 C203 0.947 . S
H185 C204 0.946 . S
H186 C206 0.953 . S
H187 C207 0.945 . S
H188 C209 0.952 . S
H189 C210 0.949 . S
H190 C212 0.950 . S
H191 C213 0.948 . S
H192 C215 0.951 . S
H193 C180 0.947 . S
H194 C182 0.952 . S
H195 C183 0.950 . S
N196 C199 1.382 . S
N196 C201 1.363 . S
N197 C199 1.371 . S
N197 C200 1.372 . S
N198 C200 1.361 . S
N198 C201 1.377 . S
C199 N196 1.382 . S
C199 N197 1.371 . S
C199 C202 1.480 . S
C200 N197 1.372 . S
C200 N198 1.361 . S
C200 C208 1.457 . S
C201 N196 1.363 . S
C201 N198 1.377 . S
C201 C214 1.479 . S
C202 C199 1.480 . S
C202 C203 1.383 . S
C202 C207 1.385 . S
C203 H184 0.947 . S
C203 C202 1.383 . S
C203 C204 1.388 . S
C204 H185 0.946 . S
C204 C203 1.388 . S
C204 C205 1.384 . S
C205 C204 1.384 . S
C205 C206 1.377 . S
C206 H186 0.953 . S
C206 C205 1.377 . S
C206 C207 1.369 . S
C207 H187 0.945 . S
C207 C202 1.385 . S
C207 C206 1.369 . S
C208 C200 1.457 . S
C208 C209 1.372 . S
C208 C213 1.364 . S
C209 H188 0.952 . S
C209 C208 1.372 . S
C209 C210 1.389 . S
C210 H189 0.949 . S
C210 C209 1.389 . S
C210 C211 1.387 . S
C211 C210 1.387 . S
C211 C212 1.372 . S
C212 H190 0.950 . S
C212 C211 1.372 . S
C212 C213 1.379 . S
C213 H191 0.948 . S
C213 C208 1.364 . S
C213 C212 1.379 . S
C214 C183 1.383 . S
C214 C201 1.479 . S
C214 C215 1.398 . S
C215 C180 1.382 . S
C215 H192 0.951 . S
C215 C214 1.398 . S
C216 C217 1.384 . S
C216 H229 0.947 . S
C216 C251 1.382 . S
C217 C216 1.384 . S
C217 C218 1.378 . S
C218 C217 1.378 . S
C218 C219 1.378 . S
C218 H230 0.952 . S
C219 C218 1.378 . S
C219 H231 0.950 . S
C219 C250 1.383 . S
H220 C239 0.947 . S
H221 C240 0.946 . S
H222 C242 0.953 . S
H223 C243 0.945 . S
H224 C245 0.952 . S
H225 C246 0.949 . S
H226 C248 0.950 . S
H227 C249 0.963 . S
H228 C251 0.951 . S
H229 C216 0.947 . S
H230 C218 0.952 . S
H231 C219 0.950 . S
N232 C235 1.382 . S
N232 C237 1.363 . S
N233 C235 1.371 . S
N233 C236 1.372 . S
N234 C236 1.361 . S
N234 C237 1.377 . S
C235 N232 1.382 . S
C235 N233 1.371 . S
C235 C238 1.480 . S
C236 N233 1.372 . S
C236 N234 1.361 . S
C236 C244 1.457 . S
C237 N232 1.363 . S
C237 N234 1.377 . S
C237 C250 1.479 . S
C238 C235 1.480 . S
C238 C239 1.383 . S
C238 C243 1.385 . S
C239 H220 0.947 . S
C239 C238 1.383 . S
C239 C240 1.388 . S
C240 H221 0.946 . S
C240 C239 1.388 . S
C240 C241 1.384 . S
C241 C240 1.384 . S
C241 C242 1.377 . S
C242 H222 0.953 . S
C242 C241 1.377 . S
C242 C243 1.369 . S
C243 H223 0.945 . S
C243 C238 1.385 . S
C243 C242 1.369 . S
C244 C236 1.457 . S
C244 C245 1.372 . S
C244 C249 1.314 1_655 S
C245 H224 0.952 . S
C245 C244 1.372 . S
C245 C246 1.389 . S
C246 H225 0.949 . S
C246 C245 1.389 . S
C246 C247 1.387 1_655 S
C247 C246 1.387 1_455 S
C247 C248 1.372 . S
C248 H226 0.950 . S
C248 C247 1.372 . S
C248 C249 1.417 . S
C249 H227 0.963 . S
C249 C244 1.314 1_455 S
C249 C248 1.417 . S
C250 C219 1.383 . S
C250 C237 1.479 . S
C250 C251 1.398 . S
C251 C216 1.382 . S
C251 H228 0.951 . S
C251 C250 1.398 . S
C252 C253 1.384 . S
C252 H265 0.947 . S
C252 C287 1.382 . S
C253 C252 1.384 . S
C253 C254 1.378 . S
C254 C253 1.378 . S
C254 C255 1.378 . S
C254 H266 0.952 . S
C255 C254 1.378 . S
C255 H267 0.950 . S
C255 C286 1.383 . S
H256 C275 0.947 . S
H257 C276 0.946 . S
H258 C278 0.953 . S
H259 C279 0.945 . S
H260 C281 0.952 . S
H261 C282 0.949 . S
H262 C284 0.950 . S
H263 C285 0.948 . S
H264 C287 0.951 . S
H265 C252 0.947 . S
H266 C254 0.952 . S
H267 C255 0.950 . S
N268 C271 1.382 . S
N268 C273 1.363 . S
N269 C271 1.371 . S
N269 C272 1.372 . S
N270 C272 1.361 . S
N270 C273 1.377 . S
C271 N268 1.382 . S
C271 N269 1.371 . S
C271 C274 1.480 . S
C272 N269 1.372 . S
C272 N270 1.361 . S
C272 C280 1.457 . S
C273 N268 1.363 . S
C273 N270 1.377 . S
C273 C286 1.479 . S
C274 C271 1.480 . S
C274 C275 1.383 . S
C274 C279 1.385 . S
C275 H256 0.947 . S
C275 C274 1.383 . S
C275 C276 1.388 . S
C276 H257 0.946 . S
C276 C275 1.388 . S
C276 C277 1.384 . S
C277 C276 1.384 . S
C277 C278 1.377 . S
C278 H258 0.953 . S
C278 C277 1.377 . S
C278 C279 1.369 . S
C279 H259 0.945 . S
C279 C274 1.385 . S
C279 C278 1.369 . S
C280 C272 1.457 . S
C280 C281 1.372 . S
C280 C285 1.364 . S
C281 H260 0.952 . S
C281 C280 1.372 . S
C281 C282 1.389 . S
C282 H261 0.949 . S
C282 C281 1.389 . S
C282 C283 1.387 . S
C283 C282 1.387 . S
C283 C284 1.372 . S
C284 H262 0.950 . S
C284 C283 1.372 . S
C284 C285 1.379 . S
C285 H263 0.948 . S
C285 C280 1.364 . S
C285 C284 1.379 . S
C286 C255 1.383 . S
C286 C273 1.479 . S
C286 C287 1.398 . S
C287 C252 1.382 . S
C287 H264 0.951 . S
C287 C286 1.398 . S
C288 C289 1.384 . S
C288 H301 0.947 . S
C288 C323 1.382 . S
C289 C288 1.384 . S
C289 C290 1.378 . S
C290 C289 1.378 . S
C290 C291 1.378 . S
C290 H302 0.952 . S
C291 C290 1.378 . S
C291 H303 0.950 . S
C291 C322 1.383 . S
H292 C311 0.947 . S
H293 C312 0.946 . S
H294 C314 0.953 . S
H295 C315 0.945 . S
H296 C317 0.952 . S
H297 C318 0.949 . S
H298 C320 0.950 . S
H299 C321 0.948 . S
H300 C323 0.951 . S
H301 C288 0.947 . S
H302 C290 0.952 . S
H303 C291 0.950 . S
N304 C307 1.382 . S
N304 C309 1.363 . S
N305 C307 1.371 . S
N305 C308 1.372 . S
N306 C308 1.361 . S
N306 C309 1.377 . S
C307 N304 1.382 . S
C307 N305 1.371 . S
C307 C310 1.480 . S
C308 N305 1.372 . S
C308 N306 1.361 . S
C308 C316 1.457 . S
C309 N304 1.363 . S
C309 N306 1.377 . S
C309 C322 1.479 . S
C310 C307 1.480 . S
C310 C311 1.383 . S
C310 C315 1.385 . S
C311 H292 0.947 . S
C311 C310 1.383 . S
C311 C312 1.388 . S
C312 H293 0.946 . S
C312 C311 1.388 . S
C312 C313 1.384 . S
C313 C312 1.384 . S
C313 C314 1.377 . S
C314 H294 0.953 . S
C314 C313 1.377 . S
C314 C315 1.369 . S
C315 H295 0.945 . S
C315 C310 1.385 . S
C315 C314 1.369 . S
C316 C308 1.457 . S
C316 C317 1.372 . S
C316 C321 1.364 . S
C317 H296 0.952 . S
C317 C316 1.372 . S
C317 C318 1.389 . S
C318 H297 0.949 . S
C318 C317 1.389 . S
C318 C319 1.387 . S
C319 C318 1.387 . S
C319 C320 1.372 . S
C320 H298 0.950 . S
C320 C319 1.372 . S
C320 C321 1.379 . S
C321 H299 0.948 . S
C321 C316 1.364 . S
C321 C320 1.379 . S
C322 C291 1.383 . S
C322 C309 1.479 . S
C322 C323 1.398 . S
C323 C288 1.382 . S
C323 H300 0.951 . S
C323 C322 1.398 . S
C324 C325 1.384 . S
C324 H337 0.947 . S
C324 C359 1.382 . S
C325 C324 1.384 . S
C325 C326 1.378 . S
C326 C325 1.378 . S
C326 C327 1.378 . S
C326 H338 0.952 . S
C327 C326 1.378 . S
C327 H339 0.950 . S
C327 C358 1.383 . S
H328 C347 0.947 . S
H329 C348 0.946 . S
H330 C350 0.953 . S
H331 C351 0.945 . S
H332 C353 0.952 . S
H333 C354 0.949 . S
H334 C356 0.950 . S
H335 C357 0.948 . S
H336 C359 0.951 . S
H337 C324 0.947 . S
H338 C326 0.952 . S
H339 C327 0.950 . S
N340 C343 1.382 . S
N340 C345 1.363 . S
N341 C343 1.371 . S
N341 C344 1.372 . S
N342 C344 1.361 . S
N342 C345 1.377 . S
C343 N340 1.382 . S
C343 N341 1.371 . S
C343 C346 1.480 . S
C344 N341 1.372 . S
C344 N342 1.361 . S
C344 C352 1.457 . S
C345 N340 1.363 . S
C345 N342 1.377 . S
C345 C358 1.479 . S
C346 C343 1.480 . S
C346 C347 1.383 . S
C346 C351 1.385 1_565 S
C347 H328 0.947 . S
C347 C346 1.383 . S
C347 C348 1.388 . S
C348 H329 0.946 . S
C348 C347 1.388 . S
C348 C349 1.384 1_565 S
C349 C348 1.384 1_545 S
C349 C350 1.377 . S
C350 H330 0.953 . S
C350 C349 1.377 . S
C350 C351 1.369 . S
C351 H331 0.945 . S
C351 C346 1.385 1_545 S
C351 C350 1.369 . S
C352 C344 1.457 . S
C352 C353 1.372 . S
C352 C357 1.364 . S
C353 H332 0.952 . S
C353 C352 1.372 . S
C353 C354 1.389 . S
C354 H333 0.949 . S
C354 C353 1.389 . S
C354 C355 1.387 . S
C355 C354 1.387 . S
C355 C356 1.372 . S
C356 H334 0.950 . S
C356 C355 1.372 . S
C356 C357 1.379 . S
C357 H335 0.948 . S
C357 C352 1.364 . S
C357 C356 1.379 . S
C358 C327 1.383 . S
C358 C345 1.479 . S
C358 C359 1.398 . S
C359 C324 1.382 . S
C359 H336 0.951 . S
C359 C358 1.398 . S
C360 C361 1.384 . S
C360 H373 0.947 . S
C360 C395 1.382 . S
C361 C360 1.384 . S
C361 C362 1.378 . S
C362 C361 1.378 . S
C362 C363 1.378 . S
C362 H374 0.952 . S
C363 C362 1.378 . S
C363 H375 0.950 . S
C363 C394 1.383 . S
H364 C383 0.947 . S
H365 C384 0.946 . S
H366 C386 0.953 . S
H367 C387 0.945 . S
H368 C389 0.952 . S
H369 C390 0.949 . S
H370 C392 0.950 . S
H371 C393 0.948 . S
H372 C395 0.951 . S
H373 C360 0.947 . S
H374 C362 0.952 . S
H375 C363 0.950 . S
N376 C379 1.382 . S
N376 C381 1.363 . S
N377 C379 1.371 . S
N377 C380 1.372 . S
N378 C380 1.361 . S
N378 C381 1.377 . S
C379 N376 1.382 . S
C379 N377 1.371 . S
C379 C382 1.480 . S
C380 N377 1.372 . S
C380 N378 1.361 . S
C380 C388 1.457 . S
C381 N376 1.363 . S
C381 N378 1.377 . S
C381 C394 1.479 . S
C382 C379 1.480 . S
C382 C383 1.383 . S
C382 C387 1.385 . S
C383 H364 0.947 . S
C383 C382 1.383 . S
C383 C384 1.388 . S
C384 H365 0.946 . S
C384 C383 1.388 . S
C384 C385 1.384 . S
C385 C384 1.384 . S
C385 C386 1.377 . S
C386 H366 0.953 . S
C386 C385 1.377 . S
C386 C387 1.369 . S
C387 H367 0.945 . S
C387 C382 1.385 . S
C387 C386 1.369 . S
C388 C380 1.457 . S
C388 C389 1.372 . S
C388 C393 1.364 . S
C389 H368 0.952 . S
C389 C388 1.372 . S
C389 C390 1.389 . S
C390 H369 0.949 . S
C390 C389 1.389 . S
C390 C391 1.387 . S
C391 C390 1.387 . S
C391 C392 1.372 . S
C392 H370 0.950 . S
C392 C391 1.372 . S
C392 C393 1.379 . S
C393 H371 0.948 . S
C393 C388 1.364 . S
C393 C392 1.379 . S
C394 C363 1.383 . S
C394 C381 1.479 . S
C394 C395 1.398 . S
C395 C360 1.382 . S
C395 H372 0.951 . S
C395 C394 1.398 . S
C396 C397 1.384 . S
C396 H409 0.947 . S
C396 C431 1.382 . S
C397 C396 1.384 . S
C397 C398 1.378 . S
C398 C397 1.378 . S
C398 C399 1.378 . S
C398 H410 0.952 . S
C399 C398 1.378 . S
C399 H411 0.950 . S
C399 C430 1.383 . S
H400 C419 0.947 . S
H401 C420 0.946 . S
H402 C422 0.953 . S
H403 C423 0.945 . S
H404 C425 0.952 . S
H405 C426 0.949 . S
H406 C428 0.950 . S
H407 C429 0.948 . S
H408 C431 0.951 . S
H409 C396 0.947 . S
H410 C398 0.952 . S
H411 C399 0.950 . S
N412 C415 1.382 . S
N412 C417 1.363 . S
N413 C415 1.371 . S
N413 C416 1.372 . S
N414 C416 1.361 . S
N414 C417 1.377 . S
C415 N412 1.382 . S
C415 N413 1.371 . S
C415 C418 1.480 . S
C416 N413 1.372 . S
C416 N414 1.361 . S
C416 C424 1.457 . S
C417 N412 1.363 . S
C417 N414 1.377 . S
C417 C430 1.479 . S
C418 C415 1.480 . S
C418 C419 1.383 . S
C418 C423 1.385 . S
C419 H400 0.947 . S
C419 C418 1.383 . S
C419 C420 1.388 . S
C420 H401 0.946 . S
C420 C419 1.388 . S
C420 C421 1.384 . S
C421 C420 1.384 . S
C421 C422 1.377 . S
C422 H402 0.953 . S
C422 C421 1.377 . S
C422 C423 1.369 . S
C423 H403 0.945 . S
C423 C418 1.385 . S
C423 C422 1.369 . S
C424 C416 1.457 . S
C424 C425 1.372 . S
C424 C429 1.364 . S
C425 H404 0.952 . S
C425 C424 1.372 . S
C425 C426 1.389 . S
C426 H405 0.949 . S
C426 C425 1.389 . S
C426 C427 1.387 . S
C427 C426 1.387 . S
C427 C428 1.372 . S
C428 H406 0.950 . S
C428 C427 1.372 . S
C428 C429 1.379 . S
C429 H407 0.948 . S
C429 C424 1.364 . S
C429 C428 1.379 . S
C430 C399 1.383 . S
C430 C417 1.479 . S
C430 C431 1.398 . S
C431 C396 1.382 . S
C431 H408 0.951 . S
C431 C430 1.398 . S
C432 C433 1.384 . S
C432 H445 0.947 . S
C432 C467 1.382 . S
C433 C432 1.384 . S
C433 C434 1.378 . S
C434 C433 1.378 . S
C434 C435 1.378 . S
C434 H446 0.952 . S
C435 C434 1.378 . S
C435 H447 0.950 . S
C435 C466 1.383 . S
H436 C455 0.947 . S
H437 C456 0.946 . S
H438 C458 0.953 . S
H439 C459 0.945 . S
H440 C461 0.952 . S
H441 C462 0.949 . S
H442 C464 0.950 . S
H443 C465 0.948 . S
H444 C467 0.951 . S
H445 C432 0.947 . S
H446 C434 0.952 . S
H447 C435 0.950 . S
N448 C451 1.382 . S
N448 C453 1.363 . S
N449 C451 1.371 . S
N449 C452 1.372 . S
N450 C452 1.361 . S
N450 C453 1.377 . S
C451 N448 1.382 . S
C451 N449 1.371 . S
C451 C454 1.480 . S
C452 N449 1.372 . S
C452 N450 1.361 . S
C452 C460 1.457 . S
C453 N448 1.363 . S
C453 N450 1.377 . S
C453 C466 1.479 . S
C454 C451 1.480 . S
C454 C455 1.383 . S
C454 C459 1.385 . S
C455 H436 0.947 . S
C455 C454 1.383 . S
C455 C456 1.388 . S
C456 H437 0.946 . S
C456 C455 1.388 . S
C456 C457 1.384 . S
C457 C456 1.384 . S
C457 C458 1.377 . S
C458 H438 0.953 . S
C458 C457 1.377 . S
C458 C459 1.369 . S
C459 H439 0.945 . S
C459 C454 1.385 . S
C459 C458 1.369 . S
C460 C452 1.457 . S
C460 C461 1.372 . S
C460 C465 1.364 . S
C461 H440 0.952 . S
C461 C460 1.372 . S
C461 C462 1.389 . S
C462 H441 0.949 . S
C462 C461 1.389 . S
C462 C463 1.387 . S
C463 C462 1.387 . S
C463 C464 1.372 . S
C464 H442 0.950 . S
C464 C463 1.372 . S
C464 C465 1.379 . S
C465 H443 0.948 . S
C465 C460 1.364 . S
C465 C464 1.379 . S
C466 C435 1.383 . S
C466 C453 1.479 . S
C466 C467 1.398 . S
C467 C432 1.382 . S
C467 H444 0.951 . S
C467 C466 1.398 . S
C468 C469 1.378 1_554 S
C468 H481 0.947 . S
C468 C503 1.382 1_554 S
C469 C468 1.378 1_556 S
C469 C470 1.413 . S
C470 C469 1.413 . S
C470 C471 1.378 . S
C470 H482 0.952 . S
C471 C470 1.378 . S
C471 H483 0.950 . S
C471 C502 1.383 . S
H472 C491 0.947 . S
H473 C492 0.946 . S
H474 C494 0.953 . S
H475 C495 0.945 . S
H476 C497 0.952 . S
H477 C498 0.949 . S
H478 C500 0.950 . S
H479 C501 0.948 . S
H480 C503 0.951 . S
H481 C468 0.947 . S
H482 C470 0.952 . S
H483 C471 0.950 . S
N484 C487 1.382 . S
N484 C489 1.363 . S
N485 C487 1.371 . S
N485 C488 1.372 . S
N486 C488 1.361 . S
N486 C489 1.377 . S
C487 N484 1.382 . S
C487 N485 1.371 . S
C487 C490 1.480 . S
C488 N485 1.372 . S
C488 N486 1.361 . S
C488 C496 1.457 . S
C489 N484 1.363 . S
C489 N486 1.377 . S
C489 C502 1.479 . S
C490 C487 1.480 . S
C490 C491 1.383 . S
C490 C495 1.385 . S
C491 H472 0.947 . S
C491 C490 1.383 . S
C491 C492 1.388 . S
C492 H473 0.946 . S
C492 C491 1.388 . S
C492 C493 1.384 . S
C493 C492 1.384 . S
C493 C494 1.377 . S
C494 H474 0.953 . S
C494 C493 1.377 . S
C494 C495 1.369 . S
C495 H475 0.945 . S
C495 C490 1.385 . S
C495 C494 1.369 . S
C496 C488 1.457 . S
C496 C497 1.372 . S
C496 C501 1.364 . S
C497 H476 0.952 . S
C497 C496 1.372 . S
C497 C498 1.389 . S
C498 H477 0.949 . S
C498 C497 1.389 . S
C498 C499 1.387 . S
C499 C498 1.387 . S
C499 C500 1.372 . S
C500 H478 0.950 . S
C500 C499 1.372 . S
C500 C501 1.379 . S
C501 H479 0.948 . S
C501 C496 1.364 . S
C501 C500 1.379 . S
C502 C471 1.383 . S
C502 C489 1.479 . S
C502 C503 1.398 . S
C503 C468 1.382 1_556 S
C503 H480 0.951 . S
C503 C502 1.398 . S
C504 C505 1.384 . S
C504 H517 0.947 . S
C504 C539 1.382 . S
C505 C504 1.384 . S
C505 C506 1.378 . S
C506 C505 1.378 . S
C506 C507 1.378 . S
C506 H518 0.952 . S
C507 C506 1.378 . S
C507 H519 0.950 . S
C507 C538 1.383 . S
H508 C527 0.947 . S
H509 C528 0.946 . S
H510 C530 0.953 . S
H511 C531 0.945 . S
H512 C533 0.952 . S
H513 C534 0.949 . S
H514 C536 0.950 . S
H515 C537 0.948 . S
H516 C539 0.951 . S
H517 C504 0.947 . S
H518 C506 0.952 . S
H519 C507 0.950 . S
N520 C523 1.382 . S
N520 C525 1.363 . S
N521 C523 1.371 . S
N521 C524 1.372 . S
N522 C524 1.361 . S
N522 C525 1.377 . S
C523 N520 1.382 . S
C523 N521 1.371 . S
C523 C526 1.480 . S
C524 N521 1.372 . S
C524 N522 1.361 . S
C524 C532 1.457 . S
C525 N520 1.363 . S
C525 N522 1.377 . S
C525 C538 1.479 . S
C526 C523 1.480 . S
C526 C527 1.383 . S
C526 C531 1.385 . S
C527 H508 0.947 . S
C527 C526 1.383 . S
C527 C528 1.388 . S
C528 H509 0.946 . S
C528 C527 1.388 . S
C528 C529 1.384 . S
C529 C528 1.384 . S
C529 C530 1.377 . S
C530 H510 0.953 . S
C530 C529 1.377 . S
C530 C531 1.369 . S
C531 H511 0.945 . S
C531 C526 1.385 . S
C531 C530 1.369 . S
C532 C524 1.457 . S
C532 C533 1.372 . S
C532 C537 1.364 . S
C533 H512 0.952 . S
C533 C532 1.372 . S
C533 C534 1.389 . S
C534 H513 0.949 . S
C534 C533 1.389 . S
C534 C535 1.387 . S
C535 C534 1.387 . S
C535 C536 1.372 . S
C536 H514 0.950 . S
C536 C535 1.372 . S
C536 C537 1.379 . S
C537 H515 0.948 . S
C537 C532 1.364 . S
C537 C536 1.379 . S
C538 C507 1.383 . S
C538 C525 1.479 . S
C538 C539 1.398 . S
C539 C504 1.382 . S
C539 H516 0.951 . S
C539 C538 1.398 . S
C540 C541 1.384 1_556 S
C540 H553 0.947 . S
C540 C575 1.382 . S
C541 C540 1.384 1_554 S
C541 C542 1.378 . S
C542 C541 1.378 . S
C542 C543 1.378 . S
C542 H554 0.952 . S
C543 C542 1.378 . S
C543 H555 0.950 . S
C543 C574 1.383 1_554 S
H544 C563 0.947 . S
H545 C564 0.946 . S
H546 C566 0.953 . S
H547 C567 0.945 . S
H548 C569 0.952 . S
H549 C570 0.949 . S
H550 C572 0.950 . S
H551 C573 0.948 . S
H552 C575 0.951 . S
H553 C540 0.947 . S
H554 C542 0.952 . S
H555 C543 0.950 . S
N556 C559 1.382 . S
N556 C561 1.363 . S
N557 C559 1.371 . S
N557 C560 1.372 . S
N558 C560 1.361 . S
N558 C561 1.377 . S
C559 N556 1.382 . S
C559 N557 1.371 . S
C559 C562 1.480 . S
C560 N557 1.372 . S
C560 N558 1.361 . S
C560 C568 1.457 . S
C561 N556 1.363 . S
C561 N558 1.377 . S
C561 C574 1.479 . S
C562 C559 1.480 . S
C562 C563 1.383 . S
C562 C567 1.385 . S
C563 H544 0.947 . S
C563 C562 1.383 . S
C563 C564 1.388 . S
C564 H545 0.946 . S
C564 C563 1.388 . S
C564 C565 1.342 1_545 S
C565 C564 1.342 1_565 S
C565 C566 1.390 . S
C566 H546 0.953 . S
C566 C565 1.390 . S
C566 C567 1.369 1_565 S
C567 H547 0.945 . S
C567 C562 1.385 . S
C567 C566 1.369 1_545 S
C568 C560 1.457 . S
C568 C569 1.372 . S
C568 C573 1.364 . S
C569 H548 0.952 . S
C569 C568 1.372 . S
C569 C570 1.389 . S
C570 H549 0.949 . S
C570 C569 1.389 . S
C570 C571 1.387 . S
C571 C570 1.387 . S
C571 C572 1.372 . S
C572 H550 0.950 . S
C572 C571 1.372 . S
C572 C573 1.379 . S
C573 H551 0.948 . S
C573 C568 1.364 . S
C573 C572 1.379 . S
C574 C543 1.383 1_556 S
C574 C561 1.479 . S
C574 C575 1.398 . S
C575 C540 1.382 . S
C575 H552 0.951 . S
C575 C574 1.398 . S
C576 O577 1.160 1_554 S
C576 O583 1.185 . S
O577 C576 1.160 1_556 S
O578 Zn579 1.899 1_556 S
O578 C586 1.284 . S
Zn579 O578 1.899 1_554 S
Zn579 O580 2.032 . S
Zn579 O583 2.086 . S
Zn579 O588 1.977 . S
O580 Zn579 2.032 . S
O580 C584 1.278 . S
C581 O582 1.203 . S
C581 O588 1.267 . S
O582 C581 1.203 . S
O583 C576 1.185 . S
O583 Zn579 2.086 . S
C584 O580 1.278 . S
C584 O585 1.211 . S
O585 C584 1.211 . S
C586 O578 1.284 . S
C586 O587 1.273 . S
O587 C586 1.273 . S
O588 Zn579 1.977 . S
O588 C581 1.267 . S
C589 O590 1.160 . S
C589 O596 1.185 . S
O590 C589 1.160 . S
O591 Zn592 1.899 . S
O591 C599 1.284 . S
Zn592 O591 1.899 . S
Zn592 O593 2.032 . S
Zn592 O596 2.086 . S
Zn592 O601 1.977 . S
O593 Zn592 2.032 . S
O593 C597 1.278 . S
C594 O595 1.203 . S
C594 O601 1.267 . S
O595 C594 1.203 . S
O596 C589 1.185 . S
O596 Zn592 2.086 . S
C597 O593 1.278 . S
C597 O598 1.211 . S
O598 C597 1.211 . S
C599 O591 1.284 . S
C599 O600 1.273 . S
O600 C599 1.273 . S
O601 Zn592 1.977 . S
O601 C594 1.267 . S
C602 O603 1.160 1_554 S
C602 O609 1.185 . S
O603 C602 1.160 1_556 S
O604 Zn605 1.899 1_556 S
O604 C612 1.284 . S
Zn605 O604 1.899 1_554 S
Zn605 O606 2.032 1_554 S
Zn605 O609 2.086 . S
Zn605 O614 1.977 . S
O606 Zn605 2.032 1_556 S
O606 C610 1.278 . S
C607 O608 1.203 . S
C607 O614 1.267 . S
O608 C607 1.203 . S
O609 C602 1.185 . S
O609 Zn605 2.086 . S
C610 O606 1.278 . S
C610 O611 1.211 1_556 S
O611 C610 1.211 1_554 S
C612 O604 1.284 . S
C612 O613 1.273 . S
O613 C612 1.273 . S
O614 Zn605 1.977 . S
O614 C607 1.267 . S
C615 O616 1.160 . S
C615 O622 1.185 . S
O616 C615 1.160 . S
O617 Zn618 1.899 . S
O617 C625 1.284 . S
Zn618 O617 1.899 . S
Zn618 O619 2.032 . S
Zn618 O622 2.086 . S
Zn618 O627 1.977 . S
O619 Zn618 2.032 . S
O619 C623 1.278 1_545 S
C620 O621 1.203 . S
C620 O627 1.267 . S
O621 C620 1.203 . S
O622 C615 1.185 . S
O622 Zn618 2.086 . S
C623 O619 1.278 1_565 S
C623 O624 1.211 . S
O624 C623 1.211 . S
C625 O617 1.284 . S
C625 O626 1.273 1_545 S
O626 C625 1.273 1_565 S
O627 Zn618 1.977 . S
O627 C620 1.267 . S
C628 O629 1.160 . S
C628 O635 1.185 . S
O629 C628 1.160 . S
O630 Zn631 1.899 . S
O630 C638 1.284 . S
Zn631 O630 1.899 . S
Zn631 O632 2.032 . S
Zn631 O635 2.086 . S
Zn631 O640 1.977 . S
O632 Zn631 2.032 . S
O632 C636 1.278 . S
C633 O634 1.203 . S
C633 O640 1.267 . S
O634 C633 1.203 . S
O635 C628 1.185 . S
O635 Zn631 2.086 . S
C636 O632 1.278 . S
C636 O637 1.211 . S
O637 C636 1.211 . S
C638 O630 1.284 . S
C638 O639 1.273 . S
O639 C638 1.273 . S
O640 Zn631 1.977 . S
O640 C633 1.267 . S
C641 O642 1.160 . S
C641 O648 1.185 . S
O642 C641 1.160 . S
O643 Zn644 1.899 . S
O643 C651 1.284 . S
Zn644 O643 1.899 . S
Zn644 O645 2.032 . S
Zn644 O648 2.086 . S
Zn644 O653 1.977 . S
O645 Zn644 2.032 . S
O645 C649 1.278 . S
C646 O647 1.203 . S
C646 O653 1.267 . S
O647 C646 1.203 . S
O648 C641 1.185 . S
O648 Zn644 2.086 . S
C649 O645 1.278 . S
C649 O650 1.211 . S
O650 C649 1.211 . S
C651 O643 1.284 . S
C651 O652 1.273 . S
O652 C651 1.273 . S
O653 Zn644 1.977 . S
O653 C646 1.267 . S
C654 O655 1.160 . S
C654 O661 1.185 . S
O655 C654 1.160 . S
O656 Zn657 1.899 . S
O656 C664 1.284 . S
Zn657 O656 1.899 . S
Zn657 O658 2.032 . S
Zn657 O661 2.086 . S
Zn657 O666 1.977 . S
O658 Zn657 2.032 . S
O658 C662 1.278 . S
C659 O660 1.203 . S
C659 O666 1.267 . S
O660 C659 1.203 . S
O661 C654 1.185 . S
O661 Zn657 2.086 . S
C662 O658 1.278 . S
C662 O663 1.211 . S
O663 C662 1.211 . S
C664 O656 1.284 . S
C664 O665 1.273 . S
O665 C664 1.273 . S
O666 Zn657 1.977 . S
O666 C659 1.267 . S
C667 O668 1.160 . S
C667 O674 1.185 . S
O668 C667 1.160 . S
O669 Zn670 1.899 . S
O669 C677 1.284 1_565 S
Zn670 O669 1.899 . S
Zn670 O671 2.032 1_565 S
Zn670 O674 2.086 . S
Zn670 O679 1.977 . S
O671 Zn670 2.032 1_545 S
O671 C675 1.278 . S
C672 O673 1.203 1_565 S
C672 O679 1.267 . S
O673 C672 1.203 1_545 S
O674 C667 1.185 . S
O674 Zn670 2.086 . S
C675 O671 1.278 . S
C675 O676 1.211 . S
O676 C675 1.211 . S
C677 O669 1.284 1_545 S
C677 O678 1.273 . S
O678 C677 1.273 . S
O679 Zn670 1.977 . S
O679 C672 1.267 . S
C680 O681 1.160 1_455 S
C680 O687 1.185 . S
O681 C680 1.160 1_655 S
O682 Zn683 1.899 1_655 S
O682 C690 1.284 . S
Zn683 O682 1.899 1_455 S
Zn683 O684 2.016 1_455 S
Zn683 O687 2.086 . S
Zn683 O692 1.977 . S
O684 Zn683 2.016 1_655 S
O684 C688 1.274 1_655 S
C685 O686 1.203 . S
C685 O692 1.267 . S
O686 C685 1.203 . S
O687 C680 1.185 . S
O687 Zn683 2.086 . S
C688 O684 1.274 1_455 S
C688 O689 1.231 . S
O689 C688 1.231 . S
C690 O682 1.284 . S
C690 O691 1.273 . S
O691 C690 1.273 . S
O692 Zn683 1.977 . S
O692 C685 1.267 . S
C693 O694 1.160 . S
C693 O700 1.185 . S
O694 C693 1.160 . S
O695 Zn696 1.899 . S
O695 C703 1.284 . S
Zn696 O695 1.899 . S
Zn696 O697 2.032 . S
Zn696 O700 2.086 . S
Zn696 O705 1.977 . S
O697 Zn696 2.032 . S
O697 C701 1.278 . S
C698 O699 1.203 . S
C698 O705 1.267 . S
O699 C698 1.203 . S
O700 C693 1.185 . S
O700 Zn696 2.086 . S
C701 O697 1.278 . S
C701 O702 1.211 . S
O702 C701 1.211 . S
C703 O695 1.284 . S
C703 O704 1.273 . S
O704 C703 1.273 . S
O705 Zn696 1.977 . S
O705 C698 1.267 . S
C706 O707 1.160 1_455 S
C706 O713 1.185 . S
O707 C706 1.160 1_655 S
O708 Zn709 1.899 1_655 S
O708 C716 1.284 . S
Zn709 O708 1.899 1_455 S
Zn709 O710 2.026 1_455 S
Zn709 O713 2.086 . S
Zn709 O718 1.977 . S
O710 Zn709 2.026 1_655 S
O710 C714 1.269 1_655 S
C711 O712 1.203 . S
C711 O718 1.267 . S
O712 C711 1.203 . S
O713 C706 1.185 . S
O713 Zn709 2.086 . S
C714 O710 1.269 1_455 S
C714 O715 1.238 . S
O715 C714 1.238 . S
C716 O708 1.284 . S
C716 O717 1.273 . S
O717 C716 1.273 . S
O718 Zn709 1.977 . S
O718 C711 1.267 . S
C719 O720 1.160 . S
C719 O726 1.185 . S
O720 C719 1.160 . S
O721 Zn722 1.899 . S
O721 C729 1.284 . S
Zn722 O721 1.899 . S
Zn722 O723 2.032 . S
Zn722 O726 2.086 . S
Zn722 O731 1.977 . S
O723 Zn722 2.032 . S
O723 C727 1.278 . S
C724 O725 1.203 . S
C724 O731 1.267 . S
O725 C724 1.203 . S
O726 C719 1.185 . S
O726 Zn722 2.086 . S
C727 O723 1.278 . S
C727 O728 1.211 . S
O728 C727 1.211 . S
C729 O721 1.284 . S
C729 O730 1.273 . S
O730 C729 1.273 . S
O731 Zn722 1.977 . S
O731 C724 1.267 . S
C732 C733 1.349 . S
C732 C734 1.327 . S
C732 H757 0.950 . S
C733 C732 1.349 . S
C733 C749 1.349 . S
C734 C732 1.327 . S
C734 C753 1.429 . S
C734 H758 0.950 . S
C735 C752 1.574 . S
C735 C754 1.368 . S
C735 H759 0.949 . S
H736 C740 0.949 . S
C737 C738 1.349 . S
C737 C739 1.327 . S
C737 H760 0.950 . S
C738 C737 1.349 . S
C738 C750 1.349 . S
C739 C737 1.327 . S
C739 C755 1.429 . S
C739 H761 0.950 . S
C740 H736 0.949 . S
C740 C748 1.574 . S
C740 C756 1.368 . S
H741 C749 0.950 . S
H742 C747 0.950 . S
H743 C748 0.949 . S
H744 C750 0.950 . S
H745 C751 0.950 . S
H746 C752 0.949 . S
C747 H742 0.950 . S
C747 C749 1.327 . S
C747 C753 1.429 . S
C748 C740 1.574 . S
C748 H743 0.949 . S
C748 C754 1.368 . S
C749 C733 1.349 . S
C749 H741 0.950 . S
C749 C747 1.327 . S
C750 C738 1.349 . S
C750 H744 0.950 . S
C750 C751 1.327 . S
C751 H745 0.950 . S
C751 C750 1.327 . S
C751 C755 1.429 . S
C752 C735 1.574 . S
C752 H746 0.949 . S
C752 C756 1.368 . S
C753 C734 1.429 . S
C753 C747 1.429 . S
C753 C754 1.523 . S
C754 C735 1.368 . S
C754 C748 1.368 . S
C754 C753 1.523 . S
C755 C739 1.429 . S
C755 C751 1.429 . S
C755 C756 1.523 . S
C756 C740 1.368 . S
C756 C752 1.368 . S
C756 C755 1.523 . S
H757 C732 0.950 . S
H758 C734 0.950 . S
H759 C735 0.949 . S
H760 C737 0.950 . S
H761 C739 0.950 . S
C762 C763 1.349 . S
C762 C764 1.327 . S
C762 H787 0.950 . S
C763 C762 1.349 . S
C763 C779 1.349 . S
C764 C762 1.327 . S
C764 C783 1.429 . S
C764 H788 0.950 . S
C765 C782 1.574 . S
C765 C784 1.368 . S
C765 H789 0.949 . S
H766 C770 0.949 . S
C767 C768 1.349 . S
C767 C769 1.327 . S
C767 H790 0.950 . S
C768 C767 1.349 . S
C768 C780 1.349 . S
C769 C767 1.327 . S
C769 C785 1.429 . S
C769 H791 0.950 . S
C770 H766 0.949 . S
C770 C778 1.574 . S
C770 C786 1.368 . S
H771 C779 0.950 . S
H772 C777 0.950 . S
H773 C778 0.949 . S
H774 C780 0.950 . S
H775 C781 0.950 . S
H776 C782 0.949 . S
C777 H772 0.950 . S
C777 C779 1.327 . S
C777 C783 1.429 . S
C778 C770 1.574 . S
C778 H773 0.949 . S
C778 C784 1.368 . S
C779 C763 1.349 . S
C779 H771 0.950 . S
C779 C777 1.327 . S
C780 C768 1.349 . S
C780 H774 0.950 . S
C780 C781 1.327 . S
C781 H775 0.950 . S
C781 C780 1.327 . S
C781 C785 1.429 . S
C782 C765 1.574 . S
C782 H776 0.949 . S
C782 C786 1.368 . S
C783 C764 1.429 . S
C783 C777 1.429 . S
C783 C784 1.523 . S
C784 C765 1.368 . S
C784 C778 1.368 . S
C784 C783 1.523 . S
C785 C769 1.429 . S
C785 C781 1.429 . S
C785 C786 1.523 . S
C786 C770 1.368 . S
C786 C782 1.368 . S
C786 C785 1.523 . S
H787 C762 0.950 . S
H788 C764 0.950 . S
H789 C765 0.949 . S
H790 C767 0.950 . S
H791 C769 0.950 . S
C792 C793 1.349 . S
C792 C794 1.327 . S
C792 H817 0.950 . S
C793 C792 1.349 . S
C793 C809 1.349 . S
C794 C792 1.327 . S
C794 C813 1.429 . S
C794 H818 0.950 . S
C795 C812 1.574 . S
C795 C814 1.368 . S
C795 H819 0.949 . S
H796 C800 0.949 . S
C797 C798 1.349 . S
C797 C799 1.327 . S
C797 H820 0.950 . S
C798 C797 1.349 . S
C798 C810 1.349 . S
C799 C797 1.327 . S
C799 C815 1.429 . S
C799 H821 0.950 . S
C800 H796 0.949 . S
C800 C808 1.574 . S
C800 C816 1.368 . S
H801 C809 0.950 . S
H802 C807 0.950 . S
H803 C808 0.949 . S
H804 C810 0.950 . S
H805 C811 0.950 . S
H806 C812 0.949 . S
C807 H802 0.950 . S
C807 C809 1.327 . S
C807 C813 1.429 . S
C808 C800 1.574 . S
C808 H803 0.949 . S
C808 C814 1.368 . S
C809 C793 1.349 . S
C809 H801 0.950 . S
C809 C807 1.327 . S
C810 C798 1.349 . S
C810 H804 0.950 . S
C810 C811 1.327 . S
C811 H805 0.950 . S
C811 C810 1.327 . S
C811 C815 1.429 . S
C812 C795 1.574 . S
C812 H806 0.949 . S
C812 C816 1.368 . S
C813 C794 1.429 . S
C813 C807 1.429 . S
C813 C814 1.523 . S
C814 C795 1.368 . S
C814 C808 1.368 . S
C814 C813 1.523 . S
C815 C799 1.429 . S
C815 C811 1.429 . S
C815 C816 1.523 . S
C816 C800 1.368 . S
C816 C812 1.368 . S
C816 C815 1.523 . S
H817 C792 0.950 . S
H818 C794 0.950 . S
H819 C795 0.949 . S
H820 C797 0.950 . S
H821 C799 0.950 . S
C822 C823 1.349 . S
C822 C824 1.327 . S
C822 H847 0.950 . S
C823 C822 1.349 . S
C823 C839 1.351 1_565 S
C824 C822 1.327 . S
C824 C843 1.429 . S
C824 H848 0.950 . S
C825 C842 1.574 . S
C825 C844 1.368 1_545 S
C825 H849 0.949 . S
H826 C830 0.949 . S
C827 C828 1.349 . S
C827 C829 1.327 . S
C827 H850 0.950 . S
C828 C827 1.349 . S
C828 C840 1.349 1_545 S
C829 C827 1.327 . S
C829 C845 1.429 . S
C829 H851 0.950 . S
C830 H826 0.949 . S
C830 C838 1.574 . S
C830 C846 1.410 . S
H831 C839 0.948 . S
H832 C837 0.950 . S
H833 C838 0.949 . S
H834 C840 0.950 . S
H835 C841 0.950 . S
H836 C842 0.949 . S
C837 H832 0.950 . S
C837 C839 1.327 . S
C837 C843 1.429 1_545 S
C838 C830 1.574 . S
C838 H833 0.949 . S
C838 C844 1.368 . S
C839 C823 1.351 1_545 S
C839 H831 0.948 . S
C839 C837 1.327 . S
C840 C828 1.349 1_565 S
C840 H834 0.950 . S
C840 C841 1.327 . S
C841 H835 0.950 . S
C841 C840 1.327 . S
C841 C845 1.429 1_565 S
C842 C825 1.574 . S
C842 H836 0.949 . S
C842 C846 1.334 1_545 S
C843 C824 1.429 . S
C843 C837 1.429 1_565 S
C843 C844 1.523 . S
C844 C825 1.368 1_565 S
C844 C838 1.368 . S
C844 C843 1.523 . S
C845 C829 1.429 . S
C845 C841 1.429 1_545 S
C845 C846 1.514 1_545 S
C846 C830 1.410 . S
C846 C842 1.334 1_565 S
C846 C845 1.514 1_565 S
H847 C822 0.950 . S
H848 C824 0.950 . S
H849 C825 0.949 . S
H850 C827 0.950 . S
H851 C829 0.950 . S
C852 C853 1.349 . S
C852 C854 1.327 . S
C852 H877 0.950 . S
C853 C852 1.349 . S
C853 C869 1.349 . S
C854 C852 1.327 . S
C854 C873 1.429 . S
C854 H878 0.950 . S
C855 C872 1.574 . S
C855 C874 1.368 . S
C855 H879 0.949 . S
H856 C860 0.949 . S
C857 C858 1.349 . S
C857 C859 1.327 . S
C857 H880 0.950 . S
C858 C857 1.349 . S
C858 C870 1.349 . S
C859 C857 1.327 . S
C859 C875 1.429 . S
C859 H881 0.950 . S
C860 H856 0.949 . S
C860 C868 1.574 . S
C860 C876 1.368 . S
H861 C869 0.950 . S
H862 C867 0.950 . S
H863 C868 0.949 . S
H864 C870 0.950 . S
H865 C871 0.950 . S
H866 C872 0.949 . S
C867 H862 0.950 . S
C867 C869 1.327 . S
C867 C873 1.429 . S
C868 C860 1.574 . S
C868 H863 0.949 . S
C868 C874 1.368 . S
C869 C853 1.349 . S
C869 H861 0.950 . S
C869 C867 1.327 . S
C870 C858 1.349 . S
C870 H864 0.950 . S
C870 C871 1.327 . S
C871 H865 0.950 . S
C871 C870 1.327 . S
C871 C875 1.429 . S
C872 C855 1.574 . S
C872 H866 0.949 . S
C872 C876 1.368 . S
C873 C854 1.429 . S
C873 C867 1.429 . S
C873 C874 1.523 . S
C874 C855 1.368 . S
C874 C868 1.368 . S
C874 C873 1.523 . S
C875 C859 1.429 . S
C875 C871 1.429 . S
C875 C876 1.523 . S
C876 C860 1.368 . S
C876 C872 1.368 . S
C876 C875 1.523 . S
H877 C852 0.950 . S
H878 C854 0.950 . S
H879 C855 0.949 . S
H880 C857 0.950 . S
H881 C859 0.950 . S
C882 C883 1.349 . S
C882 C884 1.327 . S
C882 H907 0.950 . S
C883 C882 1.349 . S
C883 C899 1.349 . S
C884 C882 1.327 . S
C884 C903 1.429 . S
C884 H908 0.950 . S
C885 C902 1.574 . S
C885 C904 1.368 . S
C885 H909 0.949 . S
H886 C890 0.949 . S
C887 C888 1.349 . S
C887 C889 1.327 . S
C887 H910 0.950 . S
C888 C887 1.349 . S
C888 C900 1.349 . S
C889 C887 1.327 . S
C889 C905 1.429 . S
C889 H911 0.950 . S
C890 H886 0.949 . S
C890 C898 1.574 . S
C890 C906 1.368 . S
H891 C899 0.950 . S
H892 C897 0.950 . S
H893 C898 0.949 . S
H894 C900 0.950 . S
H895 C901 0.950 . S
H896 C902 0.949 . S
C897 H892 0.950 . S
C897 C899 1.327 . S
C897 C903 1.429 . S
C898 C890 1.574 . S
C898 H893 0.949 . S
C898 C904 1.368 . S
C899 C883 1.349 . S
C899 H891 0.950 . S
C899 C897 1.327 . S
C900 C888 1.349 . S
C900 H894 0.950 . S
C900 C901 1.327 . S
C901 H895 0.950 . S
C901 C900 1.327 . S
C901 C905 1.429 . S
C902 C885 1.574 . S
C902 H896 0.949 . S
C902 C906 1.368 . S
C903 C884 1.429 . S
C903 C897 1.429 . S
C903 C904 1.523 . S
C904 C885 1.368 . S
C904 C898 1.368 . S
C904 C903 1.523 . S
C905 C889 1.429 . S
C905 C901 1.429 . S
C905 C906 1.523 . S
C906 C890 1.368 . S
C906 C902 1.368 . S
C906 C905 1.523 . S
H907 C882 0.950 . S
H908 C884 0.950 . S
H909 C885 0.949 . S
H910 C887 0.950 . S
H911 C889 0.950 . S
C912 C913 1.349 . S
C912 C914 1.327 . S
C912 H937 0.950 . S
C913 C912 1.349 . S
C913 C929 1.349 . S
C914 C912 1.327 . S
C914 C933 1.429 . S
C914 H938 0.950 . S
C915 C932 1.574 . S
C915 C934 1.368 . S
C915 H939 0.949 . S
H916 C920 0.949 . S
C917 C918 1.349 . S
C917 C919 1.327 . S
C917 H940 0.950 . S
C918 C917 1.349 . S
C918 C930 1.349 . S
C919 C917 1.327 . S
C919 C935 1.429 . S
C919 H941 0.950 . S
C920 H916 0.949 . S
C920 C928 1.574 . S
C920 C936 1.368 . S
H921 C929 0.950 . S
H922 C927 0.950 . S
H923 C928 0.949 . S
H924 C930 0.950 . S
H925 C931 0.950 . S
H926 C932 0.949 . S
C927 H922 0.950 . S
C927 C929 1.327 . S
C927 C933 1.429 . S
C928 C920 1.574 . S
C928 H923 0.949 . S
C928 C934 1.368 . S
C929 C913 1.349 . S
C929 H921 0.950 . S
C929 C927 1.327 . S
C930 C918 1.349 . S
C930 H924 0.950 . S
C930 C931 1.327 . S
C931 H925 0.950 . S
C931 C930 1.327 . S
C931 C935 1.429 . S
C932 C915 1.574 . S
C932 H926 0.949 . S
C932 C936 1.368 . S
C933 C914 1.429 . S
C933 C927 1.429 . S
C933 C934 1.523 . S
C934 C915 1.368 . S
C934 C928 1.368 . S
C934 C933 1.523 . S
C935 C919 1.429 . S
C935 C931 1.429 . S
C935 C936 1.523 . S
C936 C920 1.368 . S
C936 C932 1.368 . S
C936 C935 1.523 . S
H937 C912 0.950 . S
H938 C914 0.950 . S
H939 C915 0.949 . S
H940 C917 0.950 . S
H941 C919 0.950 . S
C942 C943 1.349 . S
C942 C944 1.327 . S
C942 H967 0.947 1_565 S
C943 C942 1.349 . S
C943 C959 1.349 . S
C944 C942 1.327 . S
C944 C963 1.429 . S
C944 H968 0.950 1_565 S
C945 C962 1.574 . S
C945 C964 1.368 . S
C945 H969 0.949 . S
H946 C950 0.949 . S
C947 C948 1.349 . S
C947 C949 1.327 . S
C947 H970 0.950 . S
C948 C947 1.349 . S
C948 C960 1.349 1_565 S
C949 C947 1.327 . S
C949 C965 1.429 . S
C949 H971 0.950 . S
C950 H946 0.949 . S
C950 C958 1.570 1_545 S
C950 C966 1.368 1_545 S
H951 C959 0.950 . S
H952 C957 0.950 . S
H953 C958 0.910 1_545 S
H954 C960 0.950 . S
H955 C961 0.950 . S
H956 C962 0.949 . S
C957 H952 0.950 . S
C957 C959 1.327 . S
C957 C963 1.429 . S
C958 C950 1.570 1_565 S
C958 H953 0.910 1_565 S
C958 C964 1.418 . S
C959 C943 1.349 . S
C959 H951 0.950 . S
C959 C957 1.327 . S
C960 C948 1.349 1_545 S
C960 H954 0.950 . S
C960 C961 1.327 . S
C961 H955 0.950 . S
C961 C960 1.327 . S
C961 C965 1.429 1_545 S
C962 C945 1.574 . S
C962 H956 0.949 . S
C962 C966 1.368 . S
C963 C944 1.429 . S
C963 C957 1.429 . S
C963 C964 1.523 . S
C964 C945 1.368 . S
C964 C958 1.418 . S
C964 C963 1.523 . S
C965 C949 1.429 . S
C965 C961 1.429 1_565 S
C965 C966 1.523 . S
C966 C950 1.368 1_565 S
C966 C962 1.368 . S
C966 C965 1.523 . S
H967 C942 0.947 1_545 S
H968 C944 0.950 1_545 S
H969 C945 0.949 . S
H970 C947 0.950 . S
H971 C949 0.950 . S
C972 C973 1.349 . S
C972 C974 1.327 . S
C972 H997 0.950 . S
C973 C972 1.349 . S
C973 C989 1.349 . S
C974 C972 1.327 . S
C974 C993 1.429 . S
C974 H998 0.950 . S
C975 C992 1.574 . S
C975 C994 1.368 . S
C975 H999 0.949 . S
H976 C980 0.949 . S
C977 C978 1.349 . S
C977 C979 1.327 . S
C977 H1000 0.950 . S
C978 C977 1.349 . S
C978 C990 1.349 . S
C979 C977 1.327 . S
C979 C995 1.429 . S
C979 H1001 0.950 . S
C980 H976 0.949 . S
C980 C988 1.574 . S
C980 C996 1.368 . S
H981 C989 0.950 . S
H982 C987 0.950 . S
H983 C988 0.949 . S
H984 C990 0.950 . S
H985 C991 0.950 . S
H986 C992 0.949 . S
C987 H982 0.950 . S
C987 C989 1.327 . S
C987 C993 1.429 . S
C988 C980 1.574 . S
C988 H983 0.949 . S
C988 C994 1.368 . S
C989 C973 1.349 . S
C989 H981 0.950 . S
C989 C987 1.327 . S
C990 C978 1.349 . S
C990 H984 0.950 . S
C990 C991 1.327 . S
C991 H985 0.950 . S
C991 C990 1.327 . S
C991 C995 1.429 . S
C992 C975 1.574 . S
C992 H986 0.949 . S
C992 C996 1.368 . S
C993 C974 1.429 . S
C993 C987 1.429 . S
C993 C994 1.523 . S
C994 C975 1.368 . S
C994 C988 1.368 . S
C994 C993 1.523 . S
C995 C979 1.429 . S
C995 C991 1.429 . S
C995 C996 1.523 . S
C996 C980 1.368 . S
C996 C992 1.368 . S
C996 C995 1.523 . S
H997 C972 0.950 . S
H998 C974 0.950 . S
H999 C975 0.949 . S
H1000 C977 0.950 . S
H1001 C979 0.950 . S
C1002 C1003 1.349 . S
C1002 C1004 1.327 . S
C1002 H1027 0.950 . S
C1003 C1002 1.349 . S
C1003 C1019 1.349 . S
C1004 C1002 1.327 . S
C1004 C1023 1.429 . S
C1004 H1028 0.950 . S
C1005 C1022 1.574 . S
C1005 C1024 1.368 . S
C1005 H1029 0.949 . S
H1006 C1010 0.949 . S
C1007 C1008 1.349 . S
C1007 C1009 1.327 . S
C1007 H1030 0.950 . S
C1008 C1007 1.349 . S
C1008 C1020 1.349 . S
C1009 C1007 1.327 . S
C1009 C1025 1.429 . S
C1009 H1031 0.950 . S
C1010 H1006 0.949 . S
C1010 C1018 1.574 . S
C1010 C1026 1.368 . S
H1011 C1019 0.950 . S
H1012 C1017 0.950 . S
H1013 C1018 0.949 . S
H1014 C1020 0.950 . S
H1015 C1021 0.950 . S
H1016 C1022 0.949 . S
C1017 H1012 0.950 . S
C1017 C1019 1.327 . S
C1017 C1023 1.429 . S
C1018 C1010 1.574 . S
C1018 H1013 0.949 . S
C1018 C1024 1.368 . S
C1019 C1003 1.349 . S
C1019 H1011 0.950 . S
C1019 C1017 1.327 . S
C1020 C1008 1.349 . S
C1020 H1014 0.950 . S
C1020 C1021 1.327 . S
C1021 H1015 0.950 . S
C1021 C1020 1.327 . S
C1021 C1025 1.429 . S
C1022 C1005 1.574 . S
C1022 H1016 0.949 . S
C1022 C1026 1.368 . S
C1023 C1004 1.429 . S
C1023 C1017 1.429 . S
C1023 C1024 1.523 . S
C1024 C1005 1.368 . S
C1024 C1018 1.368 . S
C1024 C1023 1.523 . S
C1025 C1009 1.429 . S
C1025 C1021 1.429 . S
C1025 C1026 1.523 . S
C1026 C1010 1.368 . S
C1026 C1022 1.368 . S
C1026 C1025 1.523 . S
H1027 C1002 0.950 . S
H1028 C1004 0.950 . S
H1029 C1005 0.949 . S
H1030 C1007 0.950 . S
H1031 C1009 0.950 . S
C1032 C1033 1.349 . S
C1032 C1034 1.327 . S
C1032 H1057 0.950 . S
C1033 C1032 1.349 . S
C1033 C1049 1.349 . S
C1034 C1032 1.327 . S
C1034 C1053 1.429 . S
C1034 H1058 0.950 . S
C1035 C1052 1.574 . S
C1035 C1054 1.368 . S
C1035 H1059 0.949 . S
H1036 C1040 0.949 . S
C1037 C1038 1.349 . S
C1037 C1039 1.327 . S
C1037 H1060 0.950 . S
C1038 C1037 1.349 . S
C1038 C1050 1.349 . S
C1039 C1037 1.327 . S
C1039 C1055 1.429 . S
C1039 H1061 0.950 . S
C1040 H1036 0.949 . S
C1040 C1048 1.574 . S
C1040 C1056 1.368 . S
H1041 C1049 0.950 . S
H1042 C1047 0.950 . S
H1043 C1048 0.949 . S
H1044 C1050 0.950 . S
H1045 C1051 0.950 . S
H1046 C1052 0.949 . S
C1047 H1042 0.950 . S
C1047 C1049 1.327 . S
C1047 C1053 1.429 . S
C1048 C1040 1.574 . S
C1048 H1043 0.949 . S
C1048 C1054 1.368 . S
C1049 C1033 1.349 . S
C1049 H1041 0.950 . S
C1049 C1047 1.327 . S
C1050 C1038 1.349 . S
C1050 H1044 0.950 . S
C1050 C1051 1.327 . S
C1051 H1045 0.950 . S
C1051 C1050 1.327 . S
C1051 C1055 1.429 . S
C1052 C1035 1.574 . S
C1052 H1046 0.949 . S
C1052 C1056 1.368 . S
C1053 C1034 1.429 . S
C1053 C1047 1.429 . S
C1053 C1054 1.523 . S
C1054 C1035 1.368 . S
C1054 C1048 1.368 . S
C1054 C1053 1.523 . S
C1055 C1039 1.429 . S
C1055 C1051 1.429 . S
C1055 C1056 1.523 . S
C1056 C1040 1.368 . S
C1056 C1052 1.368 . S
C1056 C1055 1.523 . S
H1057 C1032 0.950 . S
H1058 C1034 0.950 . S
H1059 C1035 0.949 . S
H1060 C1037 0.950 . S
H1061 C1039 0.950 . S
C1062 C1063 1.349 . S
C1062 C1064 1.327 . S
C1062 H1087 0.950 . S
C1063 C1062 1.349 . S
C1063 C1079 1.349 . S
C1064 C1062 1.327 . S
C1064 C1083 1.429 . S
C1064 H1088 0.950 . S
C1065 C1082 1.574 . S
C1065 C1084 1.368 . S
C1065 H1089 0.949 . S
H1066 C1070 0.949 . S
C1067 C1068 1.349 . S
C1067 C1069 1.327 . S
C1067 H1090 0.950 . S
C1068 C1067 1.349 . S
C1068 C1080 1.349 . S
C1069 C1067 1.327 . S
C1069 C1085 1.429 . S
C1069 H1091 0.950 . S
C1070 H1066 0.949 . S
C1070 C1078 1.574 . S
C1070 C1086 1.368 . S
H1071 C1079 0.950 . S
H1072 C1077 0.950 . S
H1073 C1078 0.949 . S
H1074 C1080 0.950 . S
H1075 C1081 0.950 . S
H1076 C1082 0.949 . S
C1077 H1072 0.950 . S
C1077 C1079 1.327 . S
C1077 C1083 1.429 . S
C1078 C1070 1.574 . S
C1078 H1073 0.949 . S
C1078 C1084 1.368 . S
C1079 C1063 1.349 . S
C1079 H1071 0.950 . S
C1079 C1077 1.327 . S
C1080 C1068 1.349 . S
C1080 H1074 0.950 . S
C1080 C1081 1.327 . S
C1081 H1075 0.950 . S
C1081 C1080 1.327 . S
C1081 C1085 1.429 . S
C1082 C1065 1.574 . S
C1082 H1076 0.949 . S
C1082 C1086 1.368 . S
C1083 C1064 1.429 . S
C1083 C1077 1.429 . S
C1083 C1084 1.523 . S
C1084 C1065 1.368 . S
C1084 C1078 1.368 . S
C1084 C1083 1.523 . S
C1085 C1069 1.429 . S
C1085 C1081 1.429 . S
C1085 C1086 1.523 . S
C1086 C1070 1.368 . S
C1086 C1082 1.368 . S
C1086 C1085 1.523 . S
H1087 C1062 0.950 . S
H1088 C1064 0.950 . S
H1089 C1065 0.949 . S
H1090 C1067 0.950 . S
H1091 C1069 0.950 . S
C1092 C1093 1.349 . S
C1092 C1094 1.327 . S
C1092 H1117 0.950 . S
C1093 C1092 1.349 . S
C1093 C1109 1.349 . S
C1094 C1092 1.327 . S
C1094 C1113 1.429 . S
C1094 H1118 0.950 . S
C1095 C1112 1.574 . S
C1095 C1114 1.368 . S
C1095 H1119 0.949 . S
H1096 C1100 0.949 . S
C1097 C1098 1.349 . S
C1097 C1099 1.327 . S
C1097 H1120 0.950 . S
C1098 C1097 1.349 . S
C1098 C1110 1.349 . S
C1099 C1097 1.327 . S
C1099 C1115 1.429 . S
C1099 H1121 0.950 . S
C1100 H1096 0.949 . S
C1100 C1108 1.574 . S
C1100 C1116 1.368 . S
H1101 C1109 0.950 . S
H1102 C1107 0.950 . S
H1103 C1108 0.949 . S
H1104 C1110 0.950 . S
H1105 C1111 0.950 . S
H1106 C1112 0.949 . S
C1107 H1102 0.950 . S
C1107 C1109 1.327 . S
C1107 C1113 1.429 . S
C1108 C1100 1.574 . S
C1108 H1103 0.949 . S
C1108 C1114 1.368 . S
C1109 C1093 1.349 . S
C1109 H1101 0.950 . S
C1109 C1107 1.327 . S
C1110 C1098 1.349 . S
C1110 H1104 0.950 . S
C1110 C1111 1.327 . S
C1111 H1105 0.950 . S
C1111 C1110 1.327 . S
C1111 C1115 1.429 . S
C1112 C1095 1.574 . S
C1112 H1106 0.949 . S
C1112 C1116 1.368 . S
C1113 C1094 1.429 . S
C1113 C1107 1.429 . S
C1113 C1114 1.523 . S
C1114 C1095 1.368 . S
C1114 C1108 1.368 . S
C1114 C1113 1.523 . S
C1115 C1099 1.429 . S
C1115 C1111 1.429 . S
C1115 C1116 1.523 . S
C1116 C1100 1.368 . S
C1116 C1112 1.368 . S
C1116 C1115 1.523 . S
H1117 C1092 0.950 . S
H1118 C1094 0.950 . S
H1119 C1095 0.949 . S
H1120 C1097 0.950 . S
H1121 C1099 0.950 . S
C1122 C1123 1.349 . S
C1122 C1124 1.327 . S
C1122 H1147 0.950 . S
C1123 C1122 1.349 . S
C1123 C1139 1.349 . S
C1124 C1122 1.327 . S
C1124 C1143 1.429 . S
C1124 H1148 0.950 . S
C1125 C1142 1.574 . S
C1125 C1144 1.368 . S
C1125 H1149 0.949 . S
H1126 C1130 0.949 . S
C1127 C1128 1.349 . S
C1127 C1129 1.327 . S
C1127 H1150 0.950 1_455 S
C1128 C1127 1.349 . S
C1128 C1140 1.349 . S
C1129 C1127 1.327 . S
C1129 C1145 1.429 . S
C1129 H1151 0.949 . S
C1130 H1126 0.949 . S
C1130 C1138 1.574 . S
C1130 C1146 1.368 . S
H1131 C1139 0.950 . S
H1132 C1137 0.950 . S
H1133 C1138 0.949 . S
H1134 C1140 0.950 . S
H1135 C1141 0.950 . S
H1136 C1142 0.949 . S
C1137 H1132 0.950 . S
C1137 C1139 1.327 . S
C1137 C1143 1.429 . S
C1138 C1130 1.574 . S
C1138 H1133 0.949 . S
C1138 C1144 1.368 . S
C1139 C1123 1.349 . S
C1139 H1131 0.950 . S
C1139 C1137 1.327 . S
C1140 C1128 1.349 . S
C1140 H1134 0.950 . S
C1140 C1141 1.327 . S
C1141 H1135 0.950 . S
C1141 C1140 1.327 . S
C1141 C1145 1.429 . S
C1142 C1125 1.574 . S
C1142 H1136 0.949 . S
C1142 C1146 1.368 . S
C1143 C1124 1.429 . S
C1143 C1137 1.429 . S
C1143 C1144 1.523 . S
C1144 C1125 1.368 . S
C1144 C1138 1.368 . S
C1144 C1143 1.523 . S
C1145 C1129 1.429 . S
C1145 C1141 1.429 . S
C1145 C1146 1.523 . S
C1146 C1130 1.368 . S
C1146 C1142 1.368 . S
C1146 C1145 1.523 . S
H1147 C1122 0.950 . S
H1148 C1124 0.950 . S
H1149 C1125 0.949 . S
H1150 C1127 0.950 1_655 S
H1151 C1129 0.949 . S
C1152 C1153 1.349 . S
C1152 C1154 1.327 . S
C1152 H1177 0.950 . S
C1153 C1152 1.349 . S
C1153 C1169 1.349 . S
C1154 C1152 1.327 . S
C1154 C1173 1.429 . S
C1154 H1178 0.950 . S
C1155 C1172 1.574 . S
C1155 C1174 1.368 . S
C1155 H1179 0.949 . S
H1156 C1160 0.949 . S
C1157 C1158 1.349 . S
C1157 C1159 1.327 . S
C1157 H1180 0.950 . S
C1158 C1157 1.349 . S
C1158 C1170 1.349 . S
C1159 C1157 1.327 . S
C1159 C1175 1.429 . S
C1159 H1181 0.950 . S
C1160 H1156 0.949 . S
C1160 C1168 1.574 . S
C1160 C1176 1.368 . S
H1161 C1169 0.950 . S
H1162 C1167 0.950 . S
H1163 C1168 0.949 . S
H1164 C1170 0.950 . S
H1165 C1171 0.950 . S
H1166 C1172 0.949 . S
C1167 H1162 0.950 . S
C1167 C1169 1.327 . S
C1167 C1173 1.429 . S
C1168 C1160 1.574 . S
C1168 H1163 0.949 . S
C1168 C1174 1.368 . S
C1169 C1153 1.349 . S
C1169 H1161 0.950 . S
C1169 C1167 1.327 . S
C1170 C1158 1.349 . S
C1170 H1164 0.950 . S
C1170 C1171 1.327 . S
C1171 H1165 0.950 . S
C1171 C1170 1.327 . S
C1171 C1175 1.429 . S
C1172 C1155 1.574 . S
C1172 H1166 0.949 . S
C1172 C1176 1.368 . S
C1173 C1154 1.429 . S
C1173 C1167 1.429 . S
C1173 C1174 1.523 . S
C1174 C1155 1.368 . S
C1174 C1168 1.368 . S
C1174 C1173 1.523 . S
C1175 C1159 1.429 . S
C1175 C1171 1.429 . S
C1175 C1176 1.523 . S
C1176 C1160 1.368 . S
C1176 C1172 1.368 . S
C1176 C1175 1.523 . S
H1177 C1152 0.950 . S
H1178 C1154 0.950 . S
H1179 C1155 0.949 . S
H1180 C1157 0.950 . S
H1181 C1159 0.950 . S
C1182 C1183 1.349 . S
C1182 C1184 1.327 . S
C1182 H1207 0.950 . S
C1183 C1182 1.349 . S
C1183 C1199 1.349 . S
C1184 C1182 1.327 . S
C1184 C1203 1.429 . S
C1184 H1208 0.950 . S
C1185 C1202 1.574 1_655 S
C1185 C1204 1.368 . S
C1185 H1209 0.949 1_655 S
H1186 C1190 0.949 . S
C1187 C1188 1.349 1_455 S
C1187 C1189 1.327 . S
C1187 H1210 0.950 . S
C1188 C1187 1.349 1_655 S
C1188 C1200 1.349 . S
C1189 C1187 1.327 . S
C1189 C1205 1.429 1_455 S
C1189 H1211 0.950 . S
C1190 H1186 0.949 . S
C1190 C1198 1.574 . S
C1190 C1206 1.368 . S
H1191 C1199 0.950 . S
H1192 C1197 0.950 1_455 S
H1193 C1198 0.949 . S
H1194 C1200 0.950 . S
H1195 C1201 0.950 . S
H1196 C1202 0.949 . S
C1197 H1192 0.950 1_655 S
C1197 C1199 1.327 . S
C1197 C1203 1.429 . S
C1198 C1190 1.574 . S
C1198 H1193 0.949 . S
C1198 C1204 1.368 . S
C1199 C1183 1.349 . S
C1199 H1191 0.950 . S
C1199 C1197 1.327 . S
C1200 C1188 1.349 . S
C1200 H1194 0.950 . S
C1200 C1201 1.327 . S
C1201 H1195 0.950 . S
C1201 C1200 1.327 . S
C1201 C1205 1.429 . S
C1202 C1185 1.574 1_455 S
C1202 H1196 0.949 . S
C1202 C1206 1.368 1_455 S
C1203 C1184 1.429 . S
C1203 C1197 1.429 . S
C1203 C1204 1.523 . S
C1204 C1185 1.368 . S
C1204 C1198 1.368 . S
C1204 C1203 1.523 . S
C1205 C1189 1.429 1_655 S
C1205 C1201 1.429 . S
C1205 C1206 1.523 . S
C1206 C1190 1.368 . S
C1206 C1202 1.368 1_655 S
C1206 C1205 1.523 . S
H1207 C1182 0.950 . S
H1208 C1184 0.950 . S
H1209 C1185 0.949 1_455 S
H1210 C1187 0.950 . S
H1211 C1189 0.950 . S
C1212 C1213 1.349 . S
C1212 C1214 1.327 . S
C1212 H1237 0.950 . S
C1213 C1212 1.349 . S
C1213 C1229 1.349 . S
C1214 C1212 1.327 . S
C1214 C1233 1.429 . S
C1214 H1238 0.950 . S
C1215 C1232 1.574 . S
C1215 C1234 1.368 . S
C1215 H1239 0.949 . S
H1216 C1220 0.949 . S
C1217 C1218 1.349 . S
C1217 C1219 1.327 . S
C1217 H1240 0.950 . S
C1218 C1217 1.349 . S
C1218 C1230 1.349 . S
C1219 C1217 1.327 . S
C1219 C1235 1.429 . S
C1219 H1241 0.950 . S
C1220 H1216 0.949 . S
C1220 C1228 1.574 . S
C1220 C1236 1.368 . S
H1221 C1229 0.950 . S
H1222 C1227 0.950 . S
H1223 C1228 0.949 . S
H1224 C1230 0.950 . S
H1225 C1231 0.950 . S
H1226 C1232 0.949 . S
C1227 H1222 0.950 . S
C1227 C1229 1.327 . S
C1227 C1233 1.429 . S
C1228 C1220 1.574 . S
C1228 H1223 0.949 . S
C1228 C1234 1.368 . S
C1229 C1213 1.349 . S
C1229 H1221 0.950 . S
C1229 C1227 1.327 . S
C1230 C1218 1.349 . S
C1230 H1224 0.950 . S
C1230 C1231 1.327 . S
C1231 H1225 0.950 . S
C1231 C1230 1.327 . S
C1231 C1235 1.429 . S
C1232 C1215 1.574 . S
C1232 H1226 0.949 . S
C1232 C1236 1.368 . S
C1233 C1214 1.429 . S
C1233 C1227 1.429 . S
C1233 C1234 1.523 . S
C1234 C1215 1.368 . S
C1234 C1228 1.368 . S
C1234 C1233 1.523 . S
C1235 C1219 1.429 . S
C1235 C1231 1.429 . S
C1235 C1236 1.523 . S
C1236 C1220 1.368 . S
C1236 C1232 1.368 . S
C1236 C1235 1.523 . S
H1237 C1212 0.950 . S
H1238 C1214 0.950 . S
H1239 C1215 0.949 . S
H1240 C1217 0.950 . S
H1241 C1219 0.950 . S
C1242 C1243 1.349 . S
C1242 C1244 1.327 . S
C1242 H1267 0.950 . S
C1243 C1242 1.349 . S
C1243 C1259 1.349 . S
C1244 C1242 1.327 . S
C1244 C1263 1.429 . S
C1244 H1268 0.950 . S
C1245 C1262 1.574 . S
C1245 C1264 1.368 . S
C1245 H1269 0.949 . S
H1246 C1250 0.949 . S
C1247 C1248 1.349 . S
C1247 C1249 1.327 . S
C1247 H1270 0.950 . S
C1248 C1247 1.349 . S
C1248 C1260 1.349 . S
C1249 C1247 1.327 . S
C1249 C1265 1.429 . S
C1249 H1271 0.950 . S
C1250 H1246 0.949 . S
C1250 C1258 1.574 . S
C1250 C1266 1.368 . S
H1251 C1259 0.950 . S
H1252 C1257 0.950 . S
H1253 C1258 0.949 . S
H1254 C1260 0.950 . S
H1255 C1261 0.950 . S
H1256 C1262 0.949 . S
C1257 H1252 0.950 . S
C1257 C1259 1.327 . S
C1257 C1263 1.429 . S
C1258 C1250 1.574 . S
C1258 H1253 0.949 . S
C1258 C1264 1.368 . S
C1259 C1243 1.349 . S
C1259 H1251 0.950 . S
C1259 C1257 1.327 . S
C1260 C1248 1.349 . S
C1260 H1254 0.950 . S
C1260 C1261 1.327 . S
C1261 H1255 0.950 . S
C1261 C1260 1.327 . S
C1261 C1265 1.429 . S
C1262 C1245 1.574 . S
C1262 H1256 0.949 . S
C1262 C1266 1.368 . S
C1263 C1244 1.429 . S
C1263 C1257 1.429 . S
C1263 C1264 1.523 . S
C1264 C1245 1.368 . S
C1264 C1258 1.368 . S
C1264 C1263 1.523 . S
C1265 C1249 1.429 . S
C1265 C1261 1.429 . S
C1265 C1266 1.523 . S
C1266 C1250 1.368 . S
C1266 C1262 1.368 . S
C1266 C1265 1.523 . S
H1267 C1242 0.950 . S
H1268 C1244 0.950 . S
H1269 C1245 0.949 . S
H1270 C1247 0.950 . S
H1271 C1249 0.950 . S
C1272 C1273 1.349 . S
C1272 C1274 1.327 . S
C1272 H1297 0.950 1_556 S
C1273 C1272 1.349 . S
C1273 C1289 1.349 . S
C1274 C1272 1.327 . S
C1274 C1293 1.429 . S
C1274 H1298 0.950 1_556 S
C1275 C1292 1.574 . S
C1275 C1294 1.368 . S
C1275 H1299 0.949 . S
H1276 C1280 0.949 . S
C1277 C1278 1.349 1_556 S
C1277 C1279 1.327 . S
C1277 H1300 0.950 . S
C1278 C1277 1.349 1_554 S
C1278 C1290 1.349 . S
C1279 C1277 1.327 . S
C1279 C1295 1.429 . S
C1279 H1301 0.950 . S
C1280 H1276 0.949 . S
C1280 C1288 1.574 . S
C1280 C1296 1.368 1_554 S
H1281 C1289 0.950 . S
H1282 C1287 0.950 . S
H1283 C1288 0.949 . S
H1284 C1290 0.950 . S
H1285 C1291 0.950 . S
H1286 C1292 0.949 . S
C1287 H1282 0.950 . S
C1287 C1289 1.327 . S
C1287 C1293 1.429 . S
C1288 C1280 1.574 . S
C1288 H1283 0.949 . S
C1288 C1294 1.368 1_554 S
C1289 C1273 1.349 . S
C1289 H1281 0.950 . S
C1289 C1287 1.327 . S
C1290 C1278 1.349 . S
C1290 H1284 0.950 . S
C1290 C1291 1.327 . S
C1291 H1285 0.950 . S
C1291 C1290 1.327 . S
C1291 C1295 1.429 1_554 S
C1292 C1275 1.574 . S
C1292 H1286 0.949 . S
C1292 C1296 1.368 . S
C1293 C1274 1.429 . S
C1293 C1287 1.429 . S
C1293 C1294 1.523 . S
C1294 C1275 1.368 . S
C1294 C1288 1.368 1_556 S
C1294 C1293 1.523 . S
C1295 C1279 1.429 . S
C1295 C1291 1.429 1_556 S
C1295 C1296 1.523 . S
C1296 C1280 1.368 1_556 S
C1296 C1292 1.368 . S
C1296 C1295 1.523 . S
H1297 C1272 0.950 1_554 S
H1298 C1274 0.950 1_554 S
H1299 C1275 0.949 . S
H1300 C1277 0.950 . S
H1301 C1279 0.950 . S
C1302 C1303 1.349 . S
C1302 C1304 1.327 . S
C1302 H1327 0.950 . S
C1303 C1302 1.349 . S
C1303 C1319 1.349 . S
C1304 C1302 1.327 . S
C1304 C1323 1.429 . S
C1304 H1328 0.950 . S
C1305 C1322 1.574 . S
C1305 C1324 1.368 . S
C1305 H1329 0.949 . S
H1306 C1310 0.949 . S
C1307 C1308 1.349 . S
C1307 C1309 1.327 . S
C1307 H1330 0.950 . S
C1308 C1307 1.349 . S
C1308 C1320 1.349 . S
C1309 C1307 1.327 . S
C1309 C1325 1.429 . S
C1309 H1331 0.950 . S
C1310 H1306 0.949 . S
C1310 C1318 1.574 . S
C1310 C1326 1.368 . S
H1311 C1319 0.950 . S
H1312 C1317 0.950 . S
H1313 C1318 0.949 . S
H1314 C1320 0.950 . S
H1315 C1321 0.950 . S
H1316 C1322 0.949 . S
C1317 H1312 0.950 . S
C1317 C1319 1.327 . S
C1317 C1323 1.429 . S
C1318 C1310 1.574 . S
C1318 H1313 0.949 . S
C1318 C1324 1.368 . S
C1319 C1303 1.349 . S
C1319 H1311 0.950 . S
C1319 C1317 1.327 . S
C1320 C1308 1.349 . S
C1320 H1314 0.950 . S
C1320 C1321 1.327 . S
C1321 H1315 0.950 . S
C1321 C1320 1.327 . S
C1321 C1325 1.429 . S
C1322 C1305 1.574 . S
C1322 H1316 0.949 . S
C1322 C1326 1.368 . S
C1323 C1304 1.429 . S
C1323 C1317 1.429 . S
C1323 C1324 1.523 . S
C1324 C1305 1.368 . S
C1324 C1318 1.368 . S
C1324 C1323 1.523 . S
C1325 C1309 1.429 . S
C1325 C1321 1.429 . S
C1325 C1326 1.523 . S
C1326 C1310 1.368 . S
C1326 C1322 1.368 . S
C1326 C1325 1.523 . S
H1327 C1302 0.950 . S
H1328 C1304 0.950 . S
H1329 C1305 0.949 . S
H1330 C1307 0.950 . S
H1331 C1309 0.950 . S
C1332 C1333 1.349 . S
C1332 C1334 1.327 . S
C1332 H1357 0.950 . S
C1333 C1332 1.349 . S
C1333 C1349 1.349 . S
C1334 C1332 1.327 . S
C1334 C1353 1.429 . S
C1334 H1358 0.950 . S
C1335 C1352 1.574 . S
C1335 C1354 1.368 . S
C1335 H1359 0.949 . S
H1336 C1340 0.949 . S
C1337 C1338 1.349 . S
C1337 C1339 1.327 . S
C1337 H1360 0.950 . S
C1338 C1337 1.349 . S
C1338 C1350 1.349 . S
C1339 C1337 1.327 . S
C1339 C1355 1.429 . S
C1339 H1361 0.950 . S
C1340 H1336 0.949 . S
C1340 C1348 1.574 . S
C1340 C1356 1.368 . S
H1341 C1349 0.950 . S
H1342 C1347 0.950 . S
H1343 C1348 0.949 . S
H1344 C1350 0.950 . S
H1345 C1351 0.950 . S
H1346 C1352 0.949 . S
C1347 H1342 0.950 . S
C1347 C1349 1.327 . S
C1347 C1353 1.429 . S
C1348 C1340 1.574 . S
C1348 H1343 0.949 . S
C1348 C1354 1.368 . S
C1349 C1333 1.349 . S
C1349 H1341 0.950 . S
C1349 C1347 1.327 . S
C1350 C1338 1.349 . S
C1350 H1344 0.950 . S
C1350 C1351 1.327 . S
C1351 H1345 0.950 . S
C1351 C1350 1.327 . S
C1351 C1355 1.429 . S
C1352 C1335 1.574 . S
C1352 H1346 0.949 . S
C1352 C1356 1.368 . S
C1353 C1334 1.429 . S
C1353 C1347 1.429 . S
C1353 C1354 1.523 . S
C1354 C1335 1.368 . S
C1354 C1348 1.368 . S
C1354 C1353 1.523 . S
C1355 C1339 1.429 . S
C1355 C1351 1.429 . S
C1355 C1356 1.523 . S
C1356 C1340 1.368 . S
C1356 C1352 1.368 . S
C1356 C1355 1.523 . S
H1357 C1332 0.950 . S
H1358 C1334 0.950 . S
H1359 C1335 0.949 . S
H1360 C1337 0.950 . S
H1361 C1339 0.950 . S
C1362 C1363 1.349 . S
C1362 C1364 1.327 . S
C1362 H1387 0.950 . S
C1363 C1362 1.349 . S
C1363 C1379 1.349 . S
C1364 C1362 1.327 . S
C1364 C1383 1.429 . S
C1364 H1388 0.950 . S
C1365 C1382 1.574 . S
C1365 C1384 1.368 . S
C1365 H1389 0.949 . S
H1366 C1370 0.949 . S
C1367 C1368 1.349 . S
C1367 C1369 1.327 . S
C1367 H1390 0.950 . S
C1368 C1367 1.349 . S
C1368 C1380 1.349 . S
C1369 C1367 1.327 . S
C1369 C1385 1.429 . S
C1369 H1391 0.950 . S
C1370 H1366 0.949 . S
C1370 C1378 1.574 . S
C1370 C1386 1.368 . S
H1371 C1379 0.950 . S
H1372 C1377 0.950 . S
H1373 C1378 0.949 . S
H1374 C1380 0.950 . S
H1375 C1381 0.950 . S
H1376 C1382 0.949 . S
C1377 H1372 0.950 . S
C1377 C1379 1.327 . S
C1377 C1383 1.429 . S
C1378 C1370 1.574 . S
C1378 H1373 0.949 . S
C1378 C1384 1.368 . S
C1379 C1363 1.349 . S
C1379 H1371 0.950 . S
C1379 C1377 1.327 . S
C1380 C1368 1.349 . S
C1380 H1374 0.950 . S
C1380 C1381 1.327 . S
C1381 H1375 0.950 . S
C1381 C1380 1.327 . S
C1381 C1385 1.429 . S
C1382 C1365 1.574 . S
C1382 H1376 0.949 . S
C1382 C1386 1.368 . S
C1383 C1364 1.429 . S
C1383 C1377 1.429 . S
C1383 C1384 1.523 . S
C1384 C1365 1.368 . S
C1384 C1378 1.368 . S
C1384 C1383 1.523 . S
C1385 C1369 1.429 . S
C1385 C1381 1.429 . S
C1385 C1386 1.523 . S
C1386 C1370 1.368 . S
C1386 C1382 1.368 . S
C1386 C1385 1.523 . S
H1387 C1362 0.950 . S
H1388 C1364 0.950 . S
H1389 C1365 0.949 . S
H1390 C1367 0.950 . S
H1391 C1369 0.950 . S
C1392 C1393 1.349 . S
C1392 C1394 1.327 . S
C1392 H1417 0.950 . S
C1393 C1392 1.349 . S
C1393 C1409 1.349 . S
C1394 C1392 1.327 . S
C1394 C1413 1.429 . S
C1394 H1418 0.950 . S
C1395 C1412 1.574 . S
C1395 C1414 1.368 . S
C1395 H1419 0.949 . S
H1396 C1400 0.949 . S
C1397 C1398 1.349 . S
C1397 C1399 1.327 . S
C1397 H1420 0.950 . S
C1398 C1397 1.349 . S
C1398 C1410 1.349 . S
C1399 C1397 1.327 . S
C1399 C1415 1.429 . S
C1399 H1421 0.950 . S
C1400 H1396 0.949 . S
C1400 C1408 1.574 . S
C1400 C1416 1.368 . S
H1401 C1409 0.950 . S
H1402 C1407 0.950 . S
H1403 C1408 0.949 . S
H1404 C1410 0.950 . S
H1405 C1411 0.950 . S
H1406 C1412 0.949 . S
C1407 H1402 0.950 . S
C1407 C1409 1.327 . S
C1407 C1413 1.429 . S
C1408 C1400 1.574 . S
C1408 H1403 0.949 . S
C1408 C1414 1.368 . S
C1409 C1393 1.349 . S
C1409 H1401 0.950 . S
C1409 C1407 1.327 . S
C1410 C1398 1.349 . S
C1410 H1404 0.950 . S
C1410 C1411 1.327 . S
C1411 H1405 0.950 . S
C1411 C1410 1.327 . S
C1411 C1415 1.429 . S
C1412 C1395 1.574 . S
C1412 H1406 0.949 . S
C1412 C1416 1.368 . S
C1413 C1394 1.429 . S
C1413 C1407 1.429 . S
C1413 C1414 1.523 . S
C1414 C1395 1.368 . S
C1414 C1408 1.368 . S
C1414 C1413 1.523 . S
C1415 C1399 1.429 . S
C1415 C1411 1.429 . S
C1415 C1416 1.523 . S
C1416 C1400 1.368 . S
C1416 C1412 1.368 . S
C1416 C1415 1.523 . S
H1417 C1392 0.950 . S
H1418 C1394 0.950 . S
H1419 C1395 0.949 . S
H1420 C1397 0.950 . S
H1421 C1399 0.950 . S
C1422 C1423 1.349 . S
C1422 C1424 1.327 . S
C1422 H1447 0.950 . S
C1423 C1422 1.349 . S
C1423 C1439 1.349 . S
C1424 C1422 1.327 . S
C1424 C1443 1.429 . S
C1424 H1448 0.950 . S
C1425 C1442 1.574 . S
C1425 C1444 1.368 . S
C1425 H1449 0.949 . S
H1426 C1430 0.949 . S
C1427 C1428 1.349 . S
C1427 C1429 1.327 . S
C1427 H1450 0.950 . S
C1428 C1427 1.349 . S
C1428 C1440 1.349 . S
C1429 C1427 1.327 . S
C1429 C1445 1.429 . S
C1429 H1451 0.950 . S
C1430 H1426 0.949 . S
C1430 C1438 1.574 . S
C1430 C1446 1.368 . S
H1431 C1439 0.950 . S
H1432 C1437 0.950 . S
H1433 C1438 0.949 . S
H1434 C1440 0.950 . S
H1435 C1441 0.950 . S
H1436 C1442 0.949 . S
C1437 H1432 0.950 . S
C1437 C1439 1.327 . S
C1437 C1443 1.429 . S
C1438 C1430 1.574 . S
C1438 H1433 0.949 . S
C1438 C1444 1.368 . S
C1439 C1423 1.349 . S
C1439 H1431 0.950 . S
C1439 C1437 1.327 . S
C1440 C1428 1.349 . S
C1440 H1434 0.950 . S
C1440 C1441 1.327 . S
C1441 H1435 0.950 . S
C1441 C1440 1.327 . S
C1441 C1445 1.429 . S
C1442 C1425 1.574 . S
C1442 H1436 0.949 . S
C1442 C1446 1.368 . S
C1443 C1424 1.429 . S
C1443 C1437 1.429 . S
C1443 C1444 1.523 . S
C1444 C1425 1.368 . S
C1444 C1438 1.368 . S
C1444 C1443 1.523 . S
C1445 C1429 1.429 . S
C1445 C1441 1.429 . S
C1445 C1446 1.523 . S
C1446 C1430 1.368 . S
C1446 C1442 1.368 . S
C1446 C1445 1.523 . S
H1447 C1422 0.950 . S
H1448 C1424 0.950 . S
H1449 C1425 0.949 . S
H1450 C1427 0.950 . S
H1451 C1429 0.950 . S
C1452 C1453 1.349 . S
C1452 C1454 1.327 . S
C1452 H1477 0.950 . S
C1453 C1452 1.349 . S
C1453 C1469 1.349 . S
C1454 C1452 1.327 . S
C1454 C1473 1.429 . S
C1454 H1478 0.950 . S
C1455 C1472 1.574 . S
C1455 C1474 1.368 . S
C1455 H1479 0.949 . S
H1456 C1460 0.949 . S
C1457 C1458 1.349 . S
C1457 C1459 1.327 . S
C1457 H1480 0.950 . S
C1458 C1457 1.349 . S
C1458 C1470 1.349 . S
C1459 C1457 1.327 . S
C1459 C1475 1.429 . S
C1459 H1481 0.950 . S
C1460 H1456 0.949 . S
C1460 C1468 1.574 . S
C1460 C1476 1.368 . S
H1461 C1469 0.950 . S
H1462 C1467 0.950 . S
H1463 C1468 0.949 . S
H1464 C1470 0.950 . S
H1465 C1471 0.950 . S
H1466 C1472 0.949 . S
C1467 H1462 0.950 . S
C1467 C1469 1.327 . S
C1467 C1473 1.429 . S
C1468 C1460 1.574 . S
C1468 H1463 0.949 . S
C1468 C1474 1.368 . S
C1469 C1453 1.349 . S
C1469 H1461 0.950 . S
C1469 C1467 1.327 . S
C1470 C1458 1.349 . S
C1470 H1464 0.950 . S
C1470 C1471 1.327 . S
C1471 H1465 0.950 . S
C1471 C1470 1.327 . S
C1471 C1475 1.429 . S
C1472 C1455 1.574 . S
C1472 H1466 0.949 . S
C1472 C1476 1.368 . S
C1473 C1454 1.429 . S
C1473 C1467 1.429 . S
C1473 C1474 1.523 . S
C1474 C1455 1.368 . S
C1474 C1468 1.368 . S
C1474 C1473 1.523 . S
C1475 C1459 1.429 . S
C1475 C1471 1.429 . S
C1475 C1476 1.523 . S
C1476 C1460 1.368 . S
C1476 C1472 1.368 . S
C1476 C1475 1.523 . S
H1477 C1452 0.950 . S
H1478 C1454 0.950 . S
H1479 C1455 0.949 . S
H1480 C1457 0.950 . S
H1481 C1459 0.950 . S
C1482 C1483 1.349 . S
C1482 C1484 1.327 . S
C1482 H1507 0.950 . S
C1483 C1482 1.349 . S
C1483 C1499 1.349 . S
C1484 C1482 1.327 . S
C1484 C1503 1.429 . S
C1484 H1508 0.950 . S
C1485 C1502 1.574 . S
C1485 C1504 1.368 . S
C1485 H1509 0.975 . S
H1486 C1490 0.949 . S
C1487 C1488 1.349 1_565 S
C1487 C1489 1.326 . S
C1487 H1510 0.950 . S
C1488 C1487 1.349 1_545 S
C1488 C1500 1.349 . S
C1489 C1487 1.326 . S
C1489 C1505 1.432 1_565 S
C1489 H1511 0.946 . S
C1490 H1486 0.949 . S
C1490 C1498 1.574 . S
C1490 C1506 1.368 . S
H1491 C1499 0.950 . S
H1492 C1497 0.950 . S
H1493 C1498 0.949 . S
H1494 C1500 0.950 . S
H1495 C1501 0.950 . S
H1496 C1502 0.949 1_565 S
C1497 H1492 0.950 . S
C1497 C1499 1.327 . S
C1497 C1503 1.429 . S
C1498 C1490 1.574 . S
C1498 H1493 0.949 . S
C1498 C1504 1.368 . S
C1499 C1483 1.349 . S
C1499 H1491 0.950 . S
C1499 C1497 1.327 . S
C1500 C1488 1.349 . S
C1500 H1494 0.950 . S
C1500 C1501 1.327 . S
C1501 H1495 0.950 . S
C1501 C1500 1.327 . S
C1501 C1505 1.429 . S
C1502 C1485 1.574 . S
C1502 H1496 0.949 1_545 S
C1502 C1506 1.368 . S
C1503 C1484 1.429 . S
C1503 C1497 1.429 . S
C1503 C1504 1.523 . S
C1504 C1485 1.368 . S
C1504 C1498 1.368 . S
C1504 C1503 1.523 . S
C1505 C1489 1.432 1_545 S
C1505 C1501 1.429 . S
C1505 C1506 1.523 . S
C1506 C1490 1.368 . S
C1506 C1502 1.368 . S
C1506 C1505 1.523 . S
H1507 C1482 0.950 . S
H1508 C1484 0.950 . S
H1509 C1485 0.975 . S
H1510 C1487 0.950 . S
H1511 C1489 0.946 . S
C1512 C1513 1.349 . S
C1512 C1514 1.327 . S
C1512 H1537 0.950 . S
C1513 C1512 1.349 . S
C1513 C1529 1.349 . S
C1514 C1512 1.327 . S
C1514 C1533 1.429 . S
C1514 H1538 0.950 . S
C1515 C1532 1.574 . S
C1515 C1534 1.368 . S
C1515 H1539 0.949 . S
H1516 C1520 0.949 . S
C1517 C1518 1.349 . S
C1517 C1519 1.327 . S
C1517 H1540 0.950 . S
C1518 C1517 1.349 . S
C1518 C1530 1.349 . S
C1519 C1517 1.327 . S
C1519 C1535 1.429 . S
C1519 H1541 0.950 . S
C1520 H1516 0.949 . S
C1520 C1528 1.574 . S
C1520 C1536 1.368 . S
H1521 C1529 0.950 . S
H1522 C1527 0.950 . S
H1523 C1528 0.949 . S
H1524 C1530 0.950 . S
H1525 C1531 0.950 . S
H1526 C1532 0.949 . S
C1527 H1522 0.950 . S
C1527 C1529 1.327 . S
C1527 C1533 1.429 . S
C1528 C1520 1.574 . S
C1528 H1523 0.949 . S
C1528 C1534 1.368 . S
C1529 C1513 1.349 . S
C1529 H1521 0.950 . S
C1529 C1527 1.327 . S
C1530 C1518 1.349 . S
C1530 H1524 0.950 . S
C1530 C1531 1.327 . S
C1531 H1525 0.950 . S
C1531 C1530 1.327 . S
C1531 C1535 1.429 . S
C1532 C1515 1.574 . S
C1532 H1526 0.949 . S
C1532 C1536 1.368 . S
C1533 C1514 1.429 . S
C1533 C1527 1.429 . S
C1533 C1534 1.523 . S
C1534 C1515 1.368 . S
C1534 C1528 1.368 . S
C1534 C1533 1.523 . S
C1535 C1519 1.429 . S
C1535 C1531 1.429 . S
C1535 C1536 1.523 . S
C1536 C1520 1.368 . S
C1536 C1532 1.368 . S
C1536 C1535 1.523 . S
H1537 C1512 0.950 . S
H1538 C1514 0.950 . S
H1539 C1515 0.949 . S
H1540 C1517 0.950 . S
H1541 C1519 0.950 . S
C1542 C1543 1.349 . S
C1542 C1544 1.327 . S
C1542 H1567 0.950 . S
C1543 C1542 1.349 . S
C1543 C1559 1.349 . S
C1544 C1542 1.327 . S
C1544 C1563 1.429 . S
C1544 H1568 0.950 . S
C1545 C1562 1.574 . S
C1545 C1564 1.368 . S
C1545 H1569 0.949 . S
H1546 C1550 0.949 . S
C1547 C1548 1.349 . S
C1547 C1549 1.327 . S
C1547 H1570 0.950 . S
C1548 C1547 1.349 . S
C1548 C1560 1.349 . S
C1549 C1547 1.327 . S
C1549 C1565 1.429 . S
C1549 H1571 0.950 . S
C1550 H1546 0.949 . S
C1550 C1558 1.574 . S
C1550 C1566 1.368 . S
H1551 C1559 0.950 . S
H1552 C1557 0.950 . S
H1553 C1558 0.949 . S
H1554 C1560 0.950 . S
H1555 C1561 0.950 . S
H1556 C1562 0.949 . S
C1557 H1552 0.950 . S
C1557 C1559 1.327 . S
C1557 C1563 1.429 . S
C1558 C1550 1.574 . S
C1558 H1553 0.949 . S
C1558 C1564 1.368 . S
C1559 C1543 1.349 . S
C1559 H1551 0.950 . S
C1559 C1557 1.327 . S
C1560 C1548 1.349 . S
C1560 H1554 0.950 . S
C1560 C1561 1.327 . S
C1561 H1555 0.950 . S
C1561 C1560 1.327 . S
C1561 C1565 1.429 . S
C1562 C1545 1.574 . S
C1562 H1556 0.949 . S
C1562 C1566 1.368 . S
C1563 C1544 1.429 . S
C1563 C1557 1.429 . S
C1563 C1564 1.523 . S
C1564 C1545 1.368 . S
C1564 C1558 1.368 . S
C1564 C1563 1.523 . S
C1565 C1549 1.429 . S
C1565 C1561 1.429 . S
C1565 C1566 1.523 . S
C1566 C1550 1.368 . S
C1566 C1562 1.368 . S
C1566 C1565 1.523 . S
H1567 C1542 0.950 . S
H1568 C1544 0.950 . S
H1569 C1545 0.949 . S
H1570 C1547 0.950 . S
H1571 C1549 0.950 . S
C1572 C1573 1.349 . S
C1572 C1574 1.327 . S
C1572 H1597 0.950 . S
C1573 C1572 1.349 . S
C1573 C1589 1.349 . S
C1574 C1572 1.327 . S
C1574 C1593 1.429 . S
C1574 H1598 0.950 . S
C1575 C1592 1.574 . S
C1575 C1594 1.368 . S
C1575 H1599 0.949 . S
H1576 C1580 0.949 . S
C1577 C1578 1.349 . S
C1577 C1579 1.327 . S
C1577 H1600 0.950 . S
C1578 C1577 1.349 . S
C1578 C1590 1.349 . S
C1579 C1577 1.327 . S
C1579 C1595 1.429 . S
C1579 H1601 0.950 . S
C1580 H1576 0.949 . S
C1580 C1588 1.574 . S
C1580 C1596 1.368 . S
H1581 C1589 0.950 . S
H1582 C1587 0.950 . S
H1583 C1588 0.949 . S
H1584 C1590 0.950 . S
H1585 C1591 0.950 . S
H1586 C1592 0.949 . S
C1587 H1582 0.950 . S
C1587 C1589 1.327 . S
C1587 C1593 1.429 . S
C1588 C1580 1.574 . S
C1588 H1583 0.949 . S
C1588 C1594 1.368 . S
C1589 C1573 1.349 . S
C1589 H1581 0.950 . S
C1589 C1587 1.327 . S
C1590 C1578 1.349 . S
C1590 H1584 0.950 . S
C1590 C1591 1.327 . S
C1591 H1585 0.950 . S
C1591 C1590 1.327 . S
C1591 C1595 1.429 . S
C1592 C1575 1.574 . S
C1592 H1586 0.949 . S
C1592 C1596 1.368 . S
C1593 C1574 1.429 . S
C1593 C1587 1.429 . S
C1593 C1594 1.523 . S
C1594 C1575 1.368 . S
C1594 C1588 1.368 . S
C1594 C1593 1.523 . S
C1595 C1579 1.429 . S
C1595 C1591 1.429 . S
C1595 C1596 1.523 . S
C1596 C1580 1.368 . S
C1596 C1592 1.368 . S
C1596 C1595 1.523 . S
H1597 C1572 0.950 . S
H1598 C1574 0.950 . S
H1599 C1575 0.949 . S
H1600 C1577 0.950 . S
H1601 C1579 0.950 . S
C1602 C1603 1.349 . S
C1602 C1604 1.327 . S
C1602 H1627 0.950 . S
C1603 C1602 1.349 . S
C1603 C1619 1.349 . S
C1604 C1602 1.327 . S
C1604 C1623 1.429 . S
C1604 H1628 0.950 . S
C1605 C1622 1.574 . S
C1605 C1624 1.368 . S
C1605 H1629 0.949 . S
H1606 C1610 0.949 . S
C1607 C1608 1.349 . S
C1607 C1609 1.327 . S
C1607 H1630 0.950 1_545 S
C1608 C1607 1.349 . S
C1608 C1620 1.349 . S
C1609 C1607 1.327 . S
C1609 C1625 1.429 . S
C1609 H1631 0.950 . S
C1610 H1606 0.949 . S
C1610 C1618 1.574 . S
C1610 C1626 1.368 . S
H1611 C1619 0.950 . S
H1612 C1617 0.950 . S
H1613 C1618 0.949 . S
H1614 C1620 0.950 . S
H1615 C1621 0.950 . S
H1616 C1622 0.949 . S
C1617 H1612 0.950 . S
C1617 C1619 1.327 . S
C1617 C1623 1.429 . S
C1618 C1610 1.574 . S
C1618 H1613 0.949 . S
C1618 C1624 1.368 . S
C1619 C1603 1.349 . S
C1619 H1611 0.950 . S
C1619 C1617 1.327 . S
C1620 C1608 1.349 . S
C1620 H1614 0.950 . S
C1620 C1621 1.327 . S
C1621 H1615 0.950 . S
C1621 C1620 1.327 . S
C1621 C1625 1.429 . S
C1622 C1605 1.574 . S
C1622 H1616 0.949 . S
C1622 C1626 1.368 . S
C1623 C1604 1.429 . S
C1623 C1617 1.429 . S
C1623 C1624 1.523 . S
C1624 C1605 1.368 . S
C1624 C1618 1.368 . S
C1624 C1623 1.523 . S
C1625 C1609 1.429 . S
C1625 C1621 1.429 . S
C1625 C1626 1.523 . S
C1626 C1610 1.368 . S
C1626 C1622 1.368 . S
C1626 C1625 1.523 . S
H1627 C1602 0.950 . S
H1628 C1604 0.950 . S
H1629 C1605 0.949 . S
H1630 C1607 0.950 1_565 S
H1631 C1609 0.950 . S
C1632 C1633 1.349 . S
C1632 C1634 1.327 . S
C1632 H1657 0.950 . S
C1633 C1632 1.349 . S
C1633 C1649 1.349 . S
C1634 C1632 1.327 . S
C1634 C1653 1.429 . S
C1634 H1658 0.950 . S
C1635 C1652 1.574 . S
C1635 C1654 1.368 . S
C1635 H1659 0.949 . S
H1636 C1640 0.949 . S
C1637 C1638 1.349 . S
C1637 C1639 1.327 . S
C1637 H1660 0.950 . S
C1638 C1637 1.349 . S
C1638 C1650 1.349 . S
C1639 C1637 1.327 . S
C1639 C1655 1.429 . S
C1639 H1661 0.950 . S
C1640 H1636 0.949 . S
C1640 C1648 1.574 . S
C1640 C1656 1.368 . S
H1641 C1649 0.950 . S
H1642 C1647 0.950 . S
H1643 C1648 0.949 . S
H1644 C1650 0.950 . S
H1645 C1651 0.950 . S
H1646 C1652 0.949 . S
C1647 H1642 0.950 . S
C1647 C1649 1.327 . S
C1647 C1653 1.429 . S
C1648 C1640 1.574 . S
C1648 H1643 0.949 . S
C1648 C1654 1.368 . S
C1649 C1633 1.349 . S
C1649 H1641 0.950 . S
C1649 C1647 1.327 . S
C1650 C1638 1.349 . S
C1650 H1644 0.950 . S
C1650 C1651 1.327 . S
C1651 H1645 0.950 . S
C1651 C1650 1.327 . S
C1651 C1655 1.429 . S
C1652 C1635 1.574 . S
C1652 H1646 0.949 . S
C1652 C1656 1.368 . S
C1653 C1634 1.429 . S
C1653 C1647 1.429 . S
C1653 C1654 1.523 . S
C1654 C1635 1.368 . S
C1654 C1648 1.368 . S
C1654 C1653 1.523 . S
C1655 C1639 1.429 . S
C1655 C1651 1.429 . S
C1655 C1656 1.523 . S
C1656 C1640 1.368 . S
C1656 C1652 1.368 . S
C1656 C1655 1.523 . S
H1657 C1632 0.950 . S
H1658 C1634 0.950 . S
H1659 C1635 0.949 . S
H1660 C1637 0.950 . S
H1661 C1639 0.950 . S
C1662 C1663 1.349 . S
C1662 C1664 1.327 . S
C1662 H1687 0.950 . S
C1663 C1662 1.349 . S
C1663 C1679 1.349 . S
C1664 C1662 1.327 . S
C1664 C1683 1.429 . S
C1664 H1688 0.950 . S
C1665 C1682 1.574 . S
C1665 C1684 1.368 . S
C1665 H1689 0.949 . S
H1666 C1670 0.949 . S
C1667 C1668 1.349 . S
C1667 C1669 1.327 . S
C1667 H1690 0.950 . S
C1668 C1667 1.349 . S
C1668 C1680 1.349 . S
C1669 C1667 1.327 . S
C1669 C1685 1.429 . S
C1669 H1691 0.950 . S
C1670 H1666 0.949 . S
C1670 C1678 1.574 . S
C1670 C1686 1.368 . S
H1671 C1679 0.950 . S
H1672 C1677 0.950 . S
H1673 C1678 0.949 . S
H1674 C1680 0.950 . S
H1675 C1681 0.950 . S
H1676 C1682 0.949 . S
C1677 H1672 0.950 . S
C1677 C1679 1.327 . S
C1677 C1683 1.429 . S
C1678 C1670 1.574 . S
C1678 H1673 0.949 . S
C1678 C1684 1.368 . S
C1679 C1663 1.349 . S
C1679 H1671 0.950 . S
C1679 C1677 1.327 . S
C1680 C1668 1.349 . S
C1680 H1674 0.950 . S
C1680 C1681 1.327 . S
C1681 H1675 0.950 . S
C1681 C1680 1.327 . S
C1681 C1685 1.429 . S
C1682 C1665 1.574 . S
C1682 H1676 0.949 . S
C1682 C1686 1.368 . S
C1683 C1664 1.429 . S
C1683 C1677 1.429 . S
C1683 C1684 1.523 . S
C1684 C1665 1.368 . S
C1684 C1678 1.368 . S
C1684 C1683 1.523 . S
C1685 C1669 1.429 . S
C1685 C1681 1.429 . S
C1685 C1686 1.523 . S
C1686 C1670 1.368 . S
C1686 C1682 1.368 . S
C1686 C1685 1.523 . S
H1687 C1662 0.950 . S
H1688 C1664 0.950 . S
H1689 C1665 0.949 . S
H1690 C1667 0.950 . S
H1691 C1669 0.950 . S
C1692 C1693 1.349 . S
C1692 C1694 1.327 . S
C1692 H1717 0.950 . S
C1693 C1692 1.349 . S
C1693 C1709 1.349 . S
C1694 C1692 1.327 . S
C1694 C1713 1.429 . S
C1694 H1718 0.950 . S
C1695 C1712 1.574 . S
C1695 C1714 1.368 . S
C1695 H1719 0.949 . S
H1696 C1700 0.949 . S
C1697 C1698 1.349 . S
C1697 C1699 1.327 . S
C1697 H1720 0.950 . S
C1698 C1697 1.349 . S
C1698 C1710 1.349 . S
C1699 C1697 1.327 . S
C1699 C1715 1.429 . S
C1699 H1721 0.950 . S
C1700 H1696 0.949 . S
C1700 C1708 1.574 . S
C1700 C1716 1.368 . S
H1701 C1709 0.950 . S
H1702 C1707 0.950 . S
H1703 C1708 0.949 . S
H1704 C1710 0.950 . S
H1705 C1711 0.950 . S
H1706 C1712 0.949 . S
C1707 H1702 0.950 . S
C1707 C1709 1.327 . S
C1707 C1713 1.429 . S
C1708 C1700 1.574 . S
C1708 H1703 0.949 . S
C1708 C1714 1.368 . S
C1709 C1693 1.349 . S
C1709 H1701 0.950 . S
C1709 C1707 1.327 . S
C1710 C1698 1.349 . S
C1710 H1704 0.950 . S
C1710 C1711 1.327 . S
C1711 H1705 0.950 . S
C1711 C1710 1.327 . S
C1711 C1715 1.429 . S
C1712 C1695 1.574 . S
C1712 H1706 0.949 . S
C1712 C1716 1.368 . S
C1713 C1694 1.429 . S
C1713 C1707 1.429 . S
C1713 C1714 1.523 . S
C1714 C1695 1.368 . S
C1714 C1708 1.368 . S
C1714 C1713 1.523 . S
C1715 C1699 1.429 . S
C1715 C1711 1.429 . S
C1715 C1716 1.523 . S
C1716 C1700 1.368 . S
C1716 C1712 1.368 . S
C1716 C1715 1.523 . S
H1717 C1692 0.950 . S
H1718 C1694 0.950 . S
H1719 C1695 0.949 . S
H1720 C1697 0.950 . S
H1721 C1699 0.950 . S
C1722 C1723 1.349 . S
C1722 C1724 1.327 . S
C1722 H1747 0.930 1_556 S
C1723 C1722 1.349 . S
C1723 C1739 1.349 . S
C1724 C1722 1.327 . S
C1724 C1743 1.429 . S
C1724 H1748 0.950 . S
C1725 C1742 1.574 . S
C1725 C1744 1.368 . S
C1725 H1749 0.949 . S
H1726 C1730 0.949 . S
C1727 C1728 1.349 . S
C1727 C1729 1.327 . S
C1727 H1750 0.938 1_655 S
C1728 C1727 1.349 . S
C1728 C1740 1.349 . S
C1729 C1727 1.327 . S
C1729 C1745 1.429 . S
C1729 H1751 0.950 . S
C1730 H1726 0.949 . S
C1730 C1738 1.574 . S
C1730 C1746 1.368 . S
H1731 C1739 0.950 . S
H1732 C1737 0.950 . S
H1733 C1738 0.949 . S
H1734 C1740 0.950 . S
H1735 C1741 0.950 . S
H1736 C1742 0.949 . S
C1737 H1732 0.950 . S
C1737 C1739 1.327 . S
C1737 C1743 1.429 . S
C1738 C1730 1.574 . S
C1738 H1733 0.949 . S
C1738 C1744 1.368 . S
C1739 C1723 1.349 . S
C1739 H1731 0.950 . S
C1739 C1737 1.327 . S
C1740 C1728 1.349 . S
C1740 H1734 0.950 . S
C1740 C1741 1.327 . S
C1741 H1735 0.950 . S
C1741 C1740 1.327 . S
C1741 C1745 1.429 . S
C1742 C1725 1.574 . S
C1742 H1736 0.949 . S
C1742 C1746 1.368 . S
C1743 C1724 1.429 . S
C1743 C1737 1.429 . S
C1743 C1744 1.523 . S
C1744 C1725 1.368 . S
C1744 C1738 1.368 . S
C1744 C1743 1.523 . S
C1745 C1729 1.429 . S
C1745 C1741 1.429 . S
C1745 C1746 1.523 . S
C1746 C1730 1.368 . S
C1746 C1742 1.368 . S
C1746 C1745 1.523 . S
H1747 C1722 0.930 1_554 S
H1748 C1724 0.950 . S
H1749 C1725 0.949 . S
H1750 C1727 0.938 1_455 S
H1751 C1729 0.950 . S
C1752 C1753 1.349 . S
C1752 C1754 1.327 . S
C1752 H1777 0.950 . S
C1753 C1752 1.349 . S
C1753 C1769 1.349 . S
C1754 C1752 1.327 . S
C1754 C1773 1.429 . S
C1754 H1778 0.950 . S
C1755 C1772 1.574 . S
C1755 C1774 1.368 . S
C1755 H1779 0.949 . S
H1756 C1760 0.949 . S
C1757 C1758 1.349 . S
C1757 C1759 1.327 . S
C1757 H1780 0.950 . S
C1758 C1757 1.349 . S
C1758 C1770 1.349 . S
C1759 C1757 1.327 . S
C1759 C1775 1.429 . S
C1759 H1781 0.950 . S
C1760 H1756 0.949 . S
C1760 C1768 1.574 . S
C1760 C1776 1.368 . S
H1761 C1769 0.950 . S
H1762 C1767 0.950 . S
H1763 C1768 0.949 . S
H1764 C1770 0.950 . S
H1765 C1771 0.950 . S
H1766 C1772 0.949 . S
C1767 H1762 0.950 . S
C1767 C1769 1.327 . S
C1767 C1773 1.429 . S
C1768 C1760 1.574 . S
C1768 H1763 0.949 . S
C1768 C1774 1.368 . S
C1769 C1753 1.349 . S
C1769 H1761 0.950 . S
C1769 C1767 1.327 . S
C1770 C1758 1.349 . S
C1770 H1764 0.950 . S
C1770 C1771 1.327 . S
C1771 H1765 0.950 . S
C1771 C1770 1.327 . S
C1771 C1775 1.429 . S
C1772 C1755 1.574 . S
C1772 H1766 0.949 . S
C1772 C1776 1.368 . S
C1773 C1754 1.429 . S
C1773 C1767 1.429 . S
C1773 C1774 1.523 . S
C1774 C1755 1.368 . S
C1774 C1768 1.368 . S
C1774 C1773 1.523 . S
C1775 C1759 1.429 . S
C1775 C1771 1.429 . S
C1775 C1776 1.523 . S
C1776 C1760 1.368 . S
C1776 C1772 1.368 . S
C1776 C1775 1.523 . S
H1777 C1752 0.950 . S
H1778 C1754 0.950 . S
H1779 C1755 0.949 . S
H1780 C1757 0.950 . S
H1781 C1759 0.950 . S
C1782 C1783 1.349 . S
C1782 C1784 1.327 . S
C1782 H1807 0.950 . S
C1783 C1782 1.349 . S
C1783 C1799 1.349 . S
C1784 C1782 1.327 . S
C1784 C1803 1.429 . S
C1784 H1808 0.950 1_455 S
C1785 C1802 1.574 . S
C1785 C1804 1.368 . S
C1785 H1809 0.949 . S
H1786 C1790 0.949 1_655 S
C1787 C1788 1.349 . S
C1787 C1789 1.327 . S
C1787 H1810 0.950 . S
C1788 C1787 1.349 . S
C1788 C1800 1.349 1_455 S
C1789 C1787 1.327 . S
C1789 C1805 1.429 . S
C1789 H1811 0.950 . S
C1790 H1786 0.949 1_455 S
C1790 C1798 1.574 . S
C1790 C1806 1.368 . S
H1791 C1799 0.950 . S
H1792 C1797 0.950 . S
H1793 C1798 0.949 1_655 S
H1794 C1800 0.950 . S
H1795 C1801 0.950 . S
H1796 C1802 0.949 . S
C1797 H1792 0.950 . S
C1797 C1799 1.327 . S
C1797 C1803 1.429 . S
C1798 C1790 1.574 . S
C1798 H1793 0.949 1_455 S
C1798 C1804 1.368 . S
C1799 C1783 1.349 . S
C1799 H1791 0.950 . S
C1799 C1797 1.327 . S
C1800 C1788 1.349 1_655 S
C1800 H1794 0.950 . S
C1800 C1801 1.327 . S
C1801 H1795 0.950 . S
C1801 C1800 1.327 . S
C1801 C1805 1.429 1_655 S
C1802 C1785 1.574 . S
C1802 H1796 0.949 . S
C1802 C1806 1.368 . S
C1803 C1784 1.429 . S
C1803 C1797 1.429 . S
C1803 C1804 1.523 . S
C1804 C1785 1.368 . S
C1804 C1798 1.368 . S
C1804 C1803 1.523 . S
C1805 C1789 1.429 . S
C1805 C1801 1.429 1_455 S
C1805 C1806 1.523 . S
C1806 C1790 1.368 . S
C1806 C1802 1.368 . S
C1806 C1805 1.523 . S
H1807 C1782 0.950 . S
H1808 C1784 0.950 1_655 S
H1809 C1785 0.949 . S
H1810 C1787 0.950 . S
H1811 C1789 0.950 . S
C1812 C1813 1.349 . S
C1812 C1814 1.327 . S
C1812 H1837 0.950 . S
C1813 C1812 1.349 . S
C1813 C1829 1.349 . S
C1814 C1812 1.327 . S
C1814 C1833 1.429 . S
C1814 H1838 0.950 . S
C1815 C1832 1.574 . S
C1815 C1834 1.368 . S
C1815 H1839 0.949 . S
H1816 C1820 0.949 . S
C1817 C1818 1.349 . S
C1817 C1819 1.327 . S
C1817 H1840 0.950 . S
C1818 C1817 1.349 . S
C1818 C1830 1.349 . S
C1819 C1817 1.327 . S
C1819 C1835 1.429 . S
C1819 H1841 0.950 . S
C1820 H1816 0.949 . S
C1820 C1828 1.574 . S
C1820 C1836 1.368 . S
H1821 C1829 0.950 . S
H1822 C1827 0.950 . S
H1823 C1828 0.949 . S
H1824 C1830 0.950 . S
H1825 C1831 0.950 . S
H1826 C1832 0.949 . S
C1827 H1822 0.950 . S
C1827 C1829 1.327 . S
C1827 C1833 1.429 . S
C1828 C1820 1.574 . S
C1828 H1823 0.949 . S
C1828 C1834 1.368 . S
C1829 C1813 1.349 . S
C1829 H1821 0.950 . S
C1829 C1827 1.327 . S
C1830 C1818 1.349 . S
C1830 H1824 0.950 . S
C1830 C1831 1.327 . S
C1831 H1825 0.950 . S
C1831 C1830 1.327 . S
C1831 C1835 1.429 . S
C1832 C1815 1.574 . S
C1832 H1826 0.949 . S
C1832 C1836 1.368 . S
C1833 C1814 1.429 . S
C1833 C1827 1.429 . S
C1833 C1834 1.523 . S
C1834 C1815 1.368 . S
C1834 C1828 1.368 . S
C1834 C1833 1.523 . S
C1835 C1819 1.429 . S
C1835 C1831 1.429 . S
C1835 C1836 1.523 . S
C1836 C1820 1.368 . S
C1836 C1832 1.368 . S
C1836 C1835 1.523 . S
H1837 C1812 0.950 . S
H1838 C1814 0.950 . S
H1839 C1815 0.949 . S
H1840 C1817 0.950 . S
H1841 C1819 0.950 . S
C1842 C1843 1.349 . S
C1842 C1844 1.327 . S
C1842 H1867 0.950 . S
C1843 C1842 1.349 . S
C1843 C1859 1.349 . S
C1844 C1842 1.327 . S
C1844 C1863 1.429 . S
C1844 H1868 0.950 . S
C1845 C1862 1.574 . S
C1845 C1864 1.368 . S
C1845 H1869 0.949 . S
H1846 C1850 0.949 . S
C1847 C1848 1.349 . S
C1847 C1849 1.327 . S
C1847 H1870 0.950 . S
C1848 C1847 1.349 . S
C1848 C1860 1.349 . S
C1849 C1847 1.327 . S
C1849 C1865 1.429 . S
C1849 H1871 0.950 . S
C1850 H1846 0.949 . S
C1850 C1858 1.574 . S
C1850 C1866 1.368 . S
H1851 C1859 0.950 . S
H1852 C1857 0.950 . S
H1853 C1858 0.949 . S
H1854 C1860 0.950 . S
H1855 C1861 0.950 . S
H1856 C1862 0.949 . S
C1857 H1852 0.950 . S
C1857 C1859 1.327 . S
C1857 C1863 1.429 . S
C1858 C1850 1.574 . S
C1858 H1853 0.949 . S
C1858 C1864 1.368 . S
C1859 C1843 1.349 . S
C1859 H1851 0.950 . S
C1859 C1857 1.327 . S
C1860 C1848 1.349 . S
C1860 H1854 0.950 . S
C1860 C1861 1.327 . S
C1861 H1855 0.950 . S
C1861 C1860 1.327 . S
C1861 C1865 1.429 . S
C1862 C1845 1.574 . S
C1862 H1856 0.949 . S
C1862 C1866 1.368 . S
C1863 C1844 1.429 . S
C1863 C1857 1.429 . S
C1863 C1864 1.523 . S
C1864 C1845 1.368 . S
C1864 C1858 1.368 . S
C1864 C1863 1.523 . S
C1865 C1849 1.429 . S
C1865 C1861 1.429 . S
C1865 C1866 1.523 . S
C1866 C1850 1.368 . S
C1866 C1862 1.368 . S
C1866 C1865 1.523 . S
H1867 C1842 0.950 . S
H1868 C1844 0.950 . S
H1869 C1845 0.949 . S
H1870 C1847 0.950 . S
H1871 C1849 0.950 . S
C1872 C1873 1.349 . S
C1872 C1874 1.327 . S
C1872 H1897 0.950 . S
C1873 C1872 1.349 . S
C1873 C1889 1.349 . S
C1874 C1872 1.327 . S
C1874 C1893 1.429 . S
C1874 H1898 0.950 . S
C1875 C1892 1.574 . S
C1875 C1894 1.368 . S
C1875 H1899 0.949 . S
H1876 C1880 0.949 . S
C1877 C1878 1.349 . S
C1877 C1879 1.327 . S
C1877 H1900 0.950 . S
C1878 C1877 1.349 . S
C1878 C1890 1.349 . S
C1879 C1877 1.327 . S
C1879 C1895 1.429 . S
C1879 H1901 0.950 . S
C1880 H1876 0.949 . S
C1880 C1888 1.574 . S
C1880 C1896 1.368 . S
H1881 C1889 0.950 . S
H1882 C1887 0.950 . S
H1883 C1888 0.949 . S
H1884 C1890 0.950 . S
H1885 C1891 0.950 . S
H1886 C1892 0.949 . S
C1887 H1882 0.950 . S
C1887 C1889 1.327 . S
C1887 C1893 1.429 . S
C1888 C1880 1.574 . S
C1888 H1883 0.949 . S
C1888 C1894 1.368 . S
C1889 C1873 1.349 . S
C1889 H1881 0.950 . S
C1889 C1887 1.327 . S
C1890 C1878 1.349 . S
C1890 H1884 0.950 . S
C1890 C1891 1.327 . S
C1891 H1885 0.950 . S
C1891 C1890 1.327 . S
C1891 C1895 1.429 . S
C1892 C1875 1.574 . S
C1892 H1886 0.949 . S
C1892 C1896 1.368 . S
C1893 C1874 1.429 . S
C1893 C1887 1.429 . S
C1893 C1894 1.523 . S
C1894 C1875 1.368 . S
C1894 C1888 1.368 . S
C1894 C1893 1.523 . S
C1895 C1879 1.429 . S
C1895 C1891 1.429 . S
C1895 C1896 1.523 . S
C1896 C1880 1.368 . S
C1896 C1892 1.368 . S
C1896 C1895 1.523 . S
H1897 C1872 0.950 . S
H1898 C1874 0.950 . S
H1899 C1875 0.949 . S
H1900 C1877 0.950 . S
H1901 C1879 0.950 . S
C1902 C1903 1.349 . S
C1902 C1904 1.327 . S
C1902 H1927 0.950 . S
C1903 C1902 1.349 . S
C1903 C1919 1.349 . S
C1904 C1902 1.327 . S
C1904 C1923 1.429 . S
C1904 H1928 0.950 . S
C1905 C1922 1.574 . S
C1905 C1924 1.368 . S
C1905 H1929 0.949 . S
H1906 C1910 0.949 . S
C1907 C1908 1.349 . S
C1907 C1909 1.327 . S
C1907 H1930 0.950 . S
C1908 C1907 1.349 . S
C1908 C1920 1.349 . S
C1909 C1907 1.327 . S
C1909 C1925 1.429 . S
C1909 H1931 0.950 . S
C1910 H1906 0.949 . S
C1910 C1918 1.574 . S
C1910 C1926 1.368 . S
H1911 C1919 0.950 . S
H1912 C1917 0.950 . S
H1913 C1918 0.949 . S
H1914 C1920 0.950 . S
H1915 C1921 0.950 . S
H1916 C1922 0.949 . S
C1917 H1912 0.950 . S
C1917 C1919 1.327 . S
C1917 C1923 1.429 . S
C1918 C1910 1.574 . S
C1918 H1913 0.949 . S
C1918 C1924 1.368 . S
C1919 C1903 1.349 . S
C1919 H1911 0.950 . S
C1919 C1917 1.327 . S
C1920 C1908 1.349 . S
C1920 H1914 0.950 . S
C1920 C1921 1.327 . S
C1921 H1915 0.950 . S
C1921 C1920 1.327 . S
C1921 C1925 1.429 . S
C1922 C1905 1.574 . S
C1922 H1916 0.949 . S
C1922 C1926 1.368 . S
C1923 C1904 1.429 . S
C1923 C1917 1.429 . S
C1923 C1924 1.523 . S
C1924 C1905 1.368 . S
C1924 C1918 1.368 . S
C1924 C1923 1.523 . S
C1925 C1909 1.429 . S
C1925 C1921 1.429 . S
C1925 C1926 1.523 . S
C1926 C1910 1.368 . S
C1926 C1922 1.368 . S
C1926 C1925 1.523 . S
H1927 C1902 0.950 . S
H1928 C1904 0.950 . S
H1929 C1905 0.949 . S
H1930 C1907 0.950 . S
H1931 C1909 0.950 . S
C1932 C1933 1.349 . S
C1932 C1934 1.327 . S
C1932 H1957 0.950 . S
C1933 C1932 1.349 . S
C1933 C1949 1.349 . S
C1934 C1932 1.327 . S
C1934 C1953 1.429 . S
C1934 H1958 0.950 . S
C1935 C1952 1.574 . S
C1935 C1954 1.368 . S
C1935 H1959 0.949 . S
H1936 C1940 0.949 . S
C1937 C1938 1.349 . S
C1937 C1939 1.327 . S
C1937 H1960 0.950 . S
C1938 C1937 1.349 . S
C1938 C1950 1.349 . S
C1939 C1937 1.327 . S
C1939 C1955 1.429 . S
C1939 H1961 0.950 . S
C1940 H1936 0.949 . S
C1940 C1948 1.574 . S
C1940 C1956 1.368 . S
H1941 C1949 0.950 . S
H1942 C1947 0.950 . S
H1943 C1948 0.949 . S
H1944 C1950 0.950 . S
H1945 C1951 0.950 . S
H1946 C1952 0.949 . S
C1947 H1942 0.950 . S
C1947 C1949 1.327 . S
C1947 C1953 1.429 . S
C1948 C1940 1.574 . S
C1948 H1943 0.949 . S
C1948 C1954 1.368 . S
C1949 C1933 1.349 . S
C1949 H1941 0.950 . S
C1949 C1947 1.327 . S
C1950 C1938 1.349 . S
C1950 H1944 0.950 . S
C1950 C1951 1.327 . S
C1951 H1945 0.950 . S
C1951 C1950 1.327 . S
C1951 C1955 1.429 . S
C1952 C1935 1.574 . S
C1952 H1946 0.949 . S
C1952 C1956 1.368 . S
C1953 C1934 1.429 . S
C1953 C1947 1.429 . S
C1953 C1954 1.523 . S
C1954 C1935 1.368 . S
C1954 C1948 1.368 . S
C1954 C1953 1.523 . S
C1955 C1939 1.429 . S
C1955 C1951 1.429 . S
C1955 C1956 1.523 . S
C1956 C1940 1.368 . S
C1956 C1952 1.368 . S
C1956 C1955 1.523 . S
H1957 C1932 0.950 . S
H1958 C1934 0.950 . S
H1959 C1935 0.949 . S
H1960 C1937 0.950 . S
H1961 C1939 0.950 . S
C1962 C1963 1.349 . S
C1962 C1964 1.327 . S
C1962 H1987 0.950 . S
C1963 C1962 1.349 . S
C1963 C1979 1.349 . S
C1964 C1962 1.327 . S
C1964 C1983 1.429 . S
C1964 H1988 0.950 . S
C1965 C1982 1.574 . S
C1965 C1984 1.368 . S
C1965 H1989 0.949 . S
H1966 C1970 0.949 . S
C1967 C1968 1.349 . S
C1967 C1969 1.327 . S
C1967 H1990 0.950 . S
C1968 C1967 1.349 . S
C1968 C1980 1.349 . S
C1969 C1967 1.327 . S
C1969 C1985 1.429 . S
C1969 H1991 0.950 . S
C1970 H1966 0.949 . S
C1970 C1978 1.574 . S
C1970 C1986 1.368 . S
H1971 C1979 0.950 . S
H1972 C1977 0.950 . S
H1973 C1978 0.949 . S
H1974 C1980 0.950 . S
H1975 C1981 0.950 . S
H1976 C1982 0.949 . S
C1977 H1972 0.950 . S
C1977 C1979 1.327 . S
C1977 C1983 1.429 . S
C1978 C1970 1.574 . S
C1978 H1973 0.949 . S
C1978 C1984 1.368 . S
C1979 C1963 1.349 . S
C1979 H1971 0.950 . S
C1979 C1977 1.327 . S
C1980 C1968 1.349 . S
C1980 H1974 0.950 . S
C1980 C1981 1.327 . S
C1981 H1975 0.950 . S
C1981 C1980 1.327 . S
C1981 C1985 1.429 . S
C1982 C1965 1.574 . S
C1982 H1976 0.949 . S
C1982 C1986 1.368 . S
C1983 C1964 1.429 . S
C1983 C1977 1.429 . S
C1983 C1984 1.523 . S
C1984 C1965 1.368 . S
C1984 C1978 1.368 . S
C1984 C1983 1.523 . S
C1985 C1969 1.429 . S
C1985 C1981 1.429 . S
C1985 C1986 1.523 . S
C1986 C1970 1.368 . S
C1986 C1982 1.368 . S
C1986 C1985 1.523 . S
H1987 C1962 0.950 . S
H1988 C1964 0.950 . S
H1989 C1965 0.949 . S
H1990 C1967 0.950 . S
H1991 C1969 0.950 . S
C1992 C1993 1.349 . S
C1992 C1994 1.327 . S
C1992 H2017 0.950 . S
C1993 C1992 1.349 . S
C1993 C2009 1.349 . S
C1994 C1992 1.327 . S
C1994 C2013 1.429 . S
C1994 H2018 0.950 . S
C1995 C2012 1.574 . S
C1995 C2014 1.368 . S
C1995 H2019 0.949 . S
H1996 C2000 0.949 . S
C1997 C1998 1.349 . S
C1997 C1999 1.327 . S
C1997 H2020 0.950 . S
C1998 C1997 1.349 . S
C1998 C2010 1.349 . S
C1999 C1997 1.327 . S
C1999 C2015 1.429 . S
C1999 H2021 0.950 . S
C2000 H1996 0.949 . S
C2000 C2008 1.574 . S
C2000 C2016 1.368 . S
H2001 C2009 0.950 . S
H2002 C2007 0.950 . S
H2003 C2008 0.949 . S
H2004 C2010 0.950 . S
H2005 C2011 0.950 . S
H2006 C2012 0.949 . S
C2007 H2002 0.950 . S
C2007 C2009 1.327 . S
C2007 C2013 1.429 . S
C2008 C2000 1.574 . S
C2008 H2003 0.949 . S
C2008 C2014 1.368 . S
C2009 C1993 1.349 . S
C2009 H2001 0.950 . S
C2009 C2007 1.327 . S
C2010 C1998 1.349 . S
C2010 H2004 0.950 . S
C2010 C2011 1.327 . S
C2011 H2005 0.950 . S
C2011 C2010 1.327 . S
C2011 C2015 1.429 . S
C2012 C1995 1.574 . S
C2012 H2006 0.949 . S
C2012 C2016 1.368 . S
C2013 C1994 1.429 . S
C2013 C2007 1.429 . S
C2013 C2014 1.523 . S
C2014 C1995 1.368 . S
C2014 C2008 1.368 . S
C2014 C2013 1.523 . S
C2015 C1999 1.429 . S
C2015 C2011 1.429 . S
C2015 C2016 1.523 . S
C2016 C2000 1.368 . S
C2016 C2012 1.368 . S
C2016 C2015 1.523 . S
H2017 C1992 0.950 . S
H2018 C1994 0.950 . S
H2019 C1995 0.949 . S
H2020 C1997 0.950 . S
H2021 C1999 0.950 . S
C2022 C2023 1.349 . S
C2022 C2024 1.327 . S
C2022 H2047 0.950 . S
C2023 C2022 1.349 . S
C2023 C2039 1.349 . S
C2024 C2022 1.327 . S
C2024 C2043 1.429 . S
C2024 H2048 0.950 . S
C2025 C2042 1.574 . S
C2025 C2044 1.368 . S
C2025 H2049 0.949 . S
H2026 C2030 0.949 . S
C2027 C2028 1.349 . S
C2027 C2029 1.327 . S
C2027 H2050 0.950 . S
C2028 C2027 1.349 . S
C2028 C2040 1.349 . S
C2029 C2027 1.327 . S
C2029 C2045 1.429 . S
C2029 H2051 0.950 . S
C2030 H2026 0.949 . S
C2030 C2038 1.574 . S
C2030 C2046 1.368 . S
H2031 C2039 0.950 . S
H2032 C2037 0.950 . S
H2033 C2038 0.949 . S
H2034 C2040 0.950 . S
H2035 C2041 0.950 . S
H2036 C2042 0.949 . S
C2037 H2032 0.950 . S
C2037 C2039 1.327 . S
C2037 C2043 1.429 . S
C2038 C2030 1.574 . S
C2038 H2033 0.949 . S
C2038 C2044 1.368 . S
C2039 C2023 1.349 . S
C2039 H2031 0.950 . S
C2039 C2037 1.327 . S
C2040 C2028 1.349 . S
C2040 H2034 0.950 . S
C2040 C2041 1.327 . S
C2041 H2035 0.950 . S
C2041 C2040 1.327 . S
C2041 C2045 1.429 . S
C2042 C2025 1.574 . S
C2042 H2036 0.949 . S
C2042 C2046 1.368 . S
C2043 C2024 1.429 . S
C2043 C2037 1.429 . S
C2043 C2044 1.523 . S
C2044 C2025 1.368 . S
C2044 C2038 1.368 . S
C2044 C2043 1.523 . S
C2045 C2029 1.429 . S
C2045 C2041 1.429 . S
C2045 C2046 1.523 . S
C2046 C2030 1.368 . S
C2046 C2042 1.368 . S
C2046 C2045 1.523 . S
H2047 C2022 0.950 . S
H2048 C2024 0.950 . S
H2049 C2025 0.949 . S
H2050 C2027 0.950 . S
H2051 C2029 0.950 . S
C2052 C2053 1.349 . S
C2052 C2054 1.327 . S
C2052 H2077 0.950 . S
C2053 C2052 1.349 . S
C2053 C2069 1.349 . S
C2054 C2052 1.327 . S
C2054 C2073 1.429 . S
C2054 H2078 0.950 . S
C2055 C2072 1.574 . S
C2055 C2074 1.368 . S
C2055 H2079 0.993 . S
H2056 C2060 0.949 . S
C2057 C2058 1.349 1_554 S
C2057 C2059 1.327 . S
C2057 H2080 0.950 . S
C2058 C2057 1.349 1_556 S
C2058 C2070 1.349 . S
C2059 C2057 1.327 . S
C2059 C2075 1.427 1_554 S
C2059 H2081 0.951 . S
C2060 H2056 0.949 . S
C2060 C2068 1.574 . S
C2060 C2076 1.368 . S
H2061 C2069 0.950 . S
H2062 C2067 0.950 . S
H2063 C2068 0.949 . S
H2064 C2070 0.950 . S
H2065 C2071 0.950 . S
H2066 C2072 0.949 1_554 S
C2067 H2062 0.950 . S
C2067 C2069 1.327 . S
C2067 C2073 1.429 . S
C2068 C2060 1.574 . S
C2068 H2063 0.949 . S
C2068 C2074 1.368 . S
C2069 C2053 1.349 . S
C2069 H2061 0.950 . S
C2069 C2067 1.327 . S
C2070 C2058 1.349 . S
C2070 H2064 0.950 . S
C2070 C2071 1.327 . S
C2071 H2065 0.950 . S
C2071 C2070 1.327 . S
C2071 C2075 1.429 . S
C2072 C2055 1.574 . S
C2072 H2066 0.949 1_556 S
C2072 C2076 1.368 . S
C2073 C2054 1.429 . S
C2073 C2067 1.429 . S
C2073 C2074 1.523 . S
C2074 C2055 1.368 . S
C2074 C2068 1.368 . S
C2074 C2073 1.523 . S
C2075 C2059 1.427 1_556 S
C2075 C2071 1.429 . S
C2075 C2076 1.523 . S
C2076 C2060 1.368 . S
C2076 C2072 1.368 . S
C2076 C2075 1.523 . S
H2077 C2052 0.950 . S
H2078 C2054 0.950 . S
H2079 C2055 0.993 . S
H2080 C2057 0.950 . S
H2081 C2059 0.951 . S
C2082 C2083 1.349 . S
C2082 C2084 1.327 . S
C2082 H2107 0.950 . S
C2083 C2082 1.349 . S
C2083 C2099 1.349 . S
C2084 C2082 1.327 . S
C2084 C2103 1.429 . S
C2084 H2108 0.950 . S
C2085 C2102 1.574 . S
C2085 C2104 1.368 . S
C2085 H2109 0.949 . S
H2086 C2090 0.949 . S
C2087 C2088 1.349 . S
C2087 C2089 1.327 . S
C2087 H2110 0.950 . S
C2088 C2087 1.349 . S
C2088 C2100 1.349 . S
C2089 C2087 1.327 . S
C2089 C2105 1.429 . S
C2089 H2111 0.950 . S
C2090 H2086 0.949 . S
C2090 C2098 1.574 . S
C2090 C2106 1.368 . S
H2091 C2099 0.950 . S
H2092 C2097 0.950 . S
H2093 C2098 0.949 . S
H2094 C2100 0.950 . S
H2095 C2101 0.950 . S
H2096 C2102 0.949 . S
C2097 H2092 0.950 . S
C2097 C2099 1.327 . S
C2097 C2103 1.429 . S
C2098 C2090 1.574 . S
C2098 H2093 0.949 . S
C2098 C2104 1.368 . S
C2099 C2083 1.349 . S
C2099 H2091 0.950 . S
C2099 C2097 1.327 . S
C2100 C2088 1.349 . S
C2100 H2094 0.950 . S
C2100 C2101 1.327 . S
C2101 H2095 0.950 . S
C2101 C2100 1.327 . S
C2101 C2105 1.429 . S
C2102 C2085 1.574 . S
C2102 H2096 0.949 . S
C2102 C2106 1.368 . S
C2103 C2084 1.429 . S
C2103 C2097 1.429 . S
C2103 C2104 1.523 . S
C2104 C2085 1.368 . S
C2104 C2098 1.368 . S
C2104 C2103 1.523 . S
C2105 C2089 1.429 . S
C2105 C2101 1.429 . S
C2105 C2106 1.523 . S
C2106 C2090 1.368 . S
C2106 C2102 1.368 . S
C2106 C2105 1.523 . S
H2107 C2082 0.950 . S
H2108 C2084 0.950 . S
H2109 C2085 0.949 . S
H2110 C2087 0.950 . S
H2111 C2089 0.950 . S
C2112 C2113 1.349 . S
C2112 C2114 1.327 . S
C2112 H2137 0.950 . S
C2113 C2112 1.349 . S
C2113 C2129 1.349 . S
C2114 C2112 1.327 . S
C2114 C2133 1.429 . S
C2114 H2138 0.950 . S
C2115 C2132 1.570 1_554 S
C2115 C2134 1.368 . S
C2115 H2139 0.949 1_554 S
H2116 C2120 0.949 . S
C2117 C2118 1.349 1_556 S
C2117 C2119 1.327 . S
C2117 H2140 0.950 . S
C2118 C2117 1.349 1_554 S
C2118 C2130 1.349 . S
C2119 C2117 1.327 . S
C2119 C2135 1.429 1_556 S
C2119 H2141 0.950 . S
C2120 H2116 0.949 . S
C2120 C2128 1.574 . S
C2120 C2136 1.368 . S
H2121 C2129 1.000 . S
H2122 C2127 0.950 1_556 S
H2123 C2128 0.949 . S
H2124 C2130 0.950 . S
H2125 C2131 0.950 . S
H2126 C2132 0.973 . S
C2127 H2122 0.950 1_554 S
C2127 C2129 1.327 . S
C2127 C2133 1.429 . S
C2128 C2120 1.574 . S
C2128 H2123 0.949 . S
C2128 C2134 1.368 . S
C2129 C2113 1.349 . S
C2129 H2121 1.000 . S
C2129 C2127 1.327 . S
C2130 C2118 1.349 . S
C2130 H2124 0.950 . S
C2130 C2131 1.327 . S
C2131 H2125 0.950 . S
C2131 C2130 1.327 . S
C2131 C2135 1.429 . S
C2132 C2115 1.570 1_556 S
C2132 H2126 0.973 . S
C2132 C2136 1.346 1_556 S
C2133 C2114 1.429 . S
C2133 C2127 1.429 . S
C2133 C2134 1.523 . S
C2134 C2115 1.368 . S
C2134 C2128 1.368 . S
C2134 C2133 1.523 . S
C2135 C2119 1.429 1_554 S
C2135 C2131 1.429 . S
C2135 C2136 1.523 . S
C2136 C2120 1.368 . S
C2136 C2132 1.346 1_554 S
C2136 C2135 1.523 . S
H2137 C2112 0.950 . S
H2138 C2114 0.950 . S
H2139 C2115 0.949 1_556 S
H2140 C2117 0.950 . S
H2141 C2119 0.950 . S
C2142 C2143 1.349 . S
C2142 C2144 1.327 . S
C2142 H2167 0.950 . S
C2143 C2142 1.349 . S
C2143 C2159 1.349 . S
C2144 C2142 1.327 . S
C2144 C2163 1.429 . S
C2144 H2168 0.950 . S
C2145 C2162 1.574 . S
C2145 C2164 1.368 . S
C2145 H2169 0.949 . S
H2146 C2150 0.949 . S
C2147 C2148 1.349 . S
C2147 C2149 1.327 . S
C2147 H2170 0.950 1_554 S
C2148 C2147 1.349 . S
C2148 C2160 1.349 . S
C2149 C2147 1.327 . S
C2149 C2165 1.429 . S
C2149 H2171 0.950 1_554 S
C2150 H2146 0.949 . S
C2150 C2158 1.574 . S
C2150 C2166 1.368 . S
H2151 C2159 0.950 1_545 S
H2152 C2157 0.950 . S
H2153 C2158 0.949 . S
H2154 C2160 0.950 . S
H2155 C2161 0.950 . S
H2156 C2162 0.948 . S
C2157 H2152 0.950 . S
C2157 C2159 1.327 . S
C2157 C2163 1.429 . S
C2158 C2150 1.574 . S
C2158 H2153 0.949 . S
C2158 C2164 1.368 . S
C2159 C2143 1.349 . S
C2159 H2151 0.950 1_565 S
C2159 C2157 1.327 . S
C2160 C2148 1.349 . S
C2160 H2154 0.950 . S
C2160 C2161 1.327 . S
C2161 H2155 0.950 . S
C2161 C2160 1.327 . S
C2161 C2165 1.429 . S
C2162 C2145 1.574 . S
C2162 H2156 0.948 . S
C2162 C2166 1.368 . S
C2163 C2144 1.429 . S
C2163 C2157 1.429 . S
C2163 C2164 1.523 . S
C2164 C2145 1.368 . S
C2164 C2158 1.368 . S
C2164 C2163 1.523 . S
C2165 C2149 1.429 . S
C2165 C2161 1.429 . S
C2165 C2166 1.523 . S
C2166 C2150 1.368 . S
C2166 C2162 1.368 . S
C2166 C2165 1.523 . S
H2167 C2142 0.950 . S
H2168 C2144 0.950 . S
H2169 C2145 0.949 . S
H2170 C2147 0.950 1_556 S
H2171 C2149 0.950 1_556 S
C738 C586 1.391 . S
C733 C181 1.399 . S
C768 C599 1.616 . S
C763 C247 1.628 . S
C793 C283 1.449 . S
C798 C612 1.444 . S
C828 C625 1.530 . S
C823 C169 1.536 . S
C858 C633 1.466 . S
C853 C361 1.493 . S
C888 C646 1.404 . S
C883 C433 1.420 . S
C913 C421 1.515 . S
C918 C659 1.493 . S
C948 C672 1.511 . S
C943 C355 1.528 . S
C973 C427 1.438 . S
C978 C690 1.430 . S
C1008 C701 1.523 . S
C1003 C325 1.551 . S
C1033 C385 1.449 . S
C1038 C685 1.425 . S
C1068 C693 1.464 . S
C1063 C463 1.486 . S
C1093 C253 1.503 . S
C1098 C716 1.495 . S
C1123 C145 1.522 . S
C1128 C706 1.495 . S
C1153 C205 1.489 . S
C1158 C711 1.463 . S
C1183 C217 1.573 . S
C1188 C714 1.529 1_655 S
C1213 C139 1.452 . S
C1218 C623 1.427 . S
C1243 C535 1.408 . S
C1248 C615 1.389 . S
C1278 C584 1.540 . S
C1273 C565 1.593 . S
C1308 C589 1.490 . S
C1303 C313 1.507 . S
C1333 C175 1.561 . S
C1338 C636 1.537 . S
C1368 C675 1.505 . S
C1363 C397 1.528 . S
C1398 C628 1.489 . S
C1393 C349 1.514 . S
C1428 C654 1.457 . S
C1423 C457 1.481 . S
C1458 C664 1.391 . S
C1453 C505 1.399 . S
C1483 C571 1.628 . S
C1488 C677 1.616 . S
C1513 C319 1.449 . S
C1518 C638 1.440 . S
C1548 C651 1.530 . S
C1543 C493 1.536 . S
C1573 C109 1.493 . S
C1578 C607 1.462 . S
C1608 C620 1.404 . S
C1603 C1 1.420 . S
C1638 C581 1.493 . S
C1633 C61 1.515 . S
C1668 C594 1.511 . S
C1663 C103 1.528 . S
C1693 C67 1.438 . S
C1698 C703 1.430 . S
C1723 C73 1.551 . S
C1728 C688 1.508 1_655 S
C1753 C133 1.449 . S
C1758 C698 1.425 . S
C1783 C31 1.486 1_556 S
C1788 C680 1.464 . S
C1818 C729 1.495 . S
C1813 C289 1.503 . S
C1848 C719 1.494 . S
C1843 C469 1.494 1_554 S
C1878 C724 1.463 . S
C1873 C529 1.489 . S
C1903 C541 1.573 . S
C1908 C727 1.543 . S
C1933 C391 1.452 . S
C1938 C649 1.427 . S
C1968 C641 1.389 . S
C1963 C211 1.408 . S
C1998 C662 1.540 . S
C1993 C241 1.566 . S
C2028 C667 1.491 . S
C2023 C277 1.510 . S
C2053 C499 1.561 . S
C2058 C610 1.538 . S
C2088 C597 1.505 . S
C2083 C37 1.531 . S
C2113 C97 1.514 . S
C2118 C602 1.487 . S
C2148 C576 1.456 . S
C2143 C25 1.481 1_565 S
