# Generated by pormake.
# Topology tsx, (6,3)-cn, num edge types: 1
# Building blocks:
#     Node 0, Type 0, BuildingBlock: CIFDUS_clean_sbu_1, # of connection points: 6
#     Node 1, Type 0, BuildingBlock: CIFDUS_clean_sbu_1, # of connection points: 6
#     Node 2, Type 1, BuildingBlock: BETDAH_clean_linker_0, # of connection points: 3
#     Node 3, Type 1, BuildingBlock: BETDAH_clean_linker_0, # of connection points: 3
#     Node 4, Type 1, BuildingBlock: BETDAH_clean_linker_0, # of connection points: 3
#     Node 5, Type 1, BuildingBlock: BETDAH_clean_linker_0, # of connection points: 3
#     Edge 6, Type (0, 1), BuildingBlock: EZIPEK_clean_linker_0, # of connection points: 2
#     Edge 7, Type (0, 1), BuildingBlock: EZIPEK_clean_linker_0, # of connection points: 2
#     Edge 8, Type (0, 1), BuildingBlock: EZIPEK_clean_linker_0, # of connection points: 2
#     Edge 9, Type (0, 1), BuildingBlock: EZIPEK_clean_linker_0, # of connection points: 2
#     Edge 10, Type (0, 1), BuildingBlock: EZIPEK_clean_linker_0, # of connection points: 2
#     Edge 11, Type (0, 1), BuildingBlock: EZIPEK_clean_linker_0, # of connection points: 2
#     Edge 12, Type (0, 1), BuildingBlock: EZIPEK_clean_linker_0, # of connection points: 2
#     Edge 13, Type (0, 1), BuildingBlock: EZIPEK_clean_linker_0, # of connection points: 2
#     Edge 14, Type (0, 1), BuildingBlock: EZIPEK_clean_linker_0, # of connection points: 2
#     Edge 15, Type (0, 1), BuildingBlock: EZIPEK_clean_linker_0, # of connection points: 2
#     Edge 16, Type (0, 1), BuildingBlock: EZIPEK_clean_linker_0, # of connection points: 2
#     Edge 17, Type (0, 1), BuildingBlock: EZIPEK_clean_linker_0, # of connection points: 2
# Relax obj value: 0.093
# Max RMSD: 0.138
# Mean RMSD: 0.104
data_MOF--net-tsx--node1-CIFDUS_clean_sbu_1--node2-BETDAH_clean_linker_0--edge1-EZIPEK_clean_linker_0
_symmetry_space_group_name_H-M    P1
_symmetry_Int_Tables_number       1
_symmetry_cell_setting            triclinic
loop_
_symmetry_equiv_pos_as_xyz
'x, y, z'
_cell_length_a     13.415531
_cell_length_b     16.457056
_cell_length_c     25.293916
_cell_angle_alpha  96.802183
_cell_angle_beta   102.82856
_cell_angle_gamma 91.432377
loop_
_atom_site_label
_atom_site_type_symbol
_atom_site_fract_x
_atom_site_fract_y
_atom_site_fract_z
_atom_type_partial_charge
O0 O 0.97234 0.09682 0.98583 0.0
Mn1 Mn 0.04002 0.98303 0.98041 0.0
O2 O 0.81924 0.08183 0.92556 0.0
Mn3 Mn 0.82873 0.97292 0.89805 0.0
O4 O 0.10621 0.86738 0.96915 0.0
O5 O 0.17762 0.04269 0.01144 0.0
Mn6 Mn 0.25769 0.97715 0.05026 0.0
O7 O 0.03065 0.97024 0.06095 0.0
O8 O 0.27527 0.88832 0.00313 0.0
O9 O 0.05365 0.9978 0.90086 0.0
O10 O 0.90136 0.95892 0.84382 0.0
O11 O 0.33468 0.07303 0.05683 0.0
O12 O 0.19405 0.95631 0.1053 0.0
C13 C 0.82054 0.87928 0.94957 0.0
C14 C 0.88839 0.12545 0.96118 0.0
C15 C 0.19901 0.84437 0.97446 0.0
C16 C 0.25254 0.0976 0.02689 0.0
C17 C 0.09875 0.96024 0.10422 0.0
C18 C 0.99619 0.97991 0.85259 0.0
O19 O 0.90032 0.92662 0.95262 0.0
O20 O 0.74341 0.89101 0.91085 0.0
O21 O 0.49313 0.668 0.50399 0.0
Mn22 Mn 0.58958 0.57159 0.50185 0.0
O23 O 0.34001 0.62033 0.45043 0.0
Mn24 Mn 0.37586 0.51458 0.43069 0.0
O25 O 0.68356 0.47184 0.49698 0.0
O26 O 0.70795 0.65722 0.51946 0.0
Mn27 Mn 0.81195 0.61505 0.56085 0.0
O28 O 0.60368 0.56492 0.58446 0.0
O29 O 0.84324 0.52672 0.51728 0.0
O30 O 0.57994 0.57824 0.41858 0.0
O31 O 0.43752 0.50493 0.3721 0.0
O32 O 0.85987 0.71733 0.55456 0.0
O33 O 0.77134 0.59273 0.62341 0.0
C34 C 0.40531 0.43097 0.49028 0.0
C35 C 0.40005 0.67776 0.48007 0.0
C36 C 0.77932 0.46637 0.49849 0.0
C37 C 0.76877 0.72182 0.52475 0.0
C38 C 0.68026 0.57227 0.62577 0.0
C39 C 0.52146 0.54397 0.37379 0.0
O40 O 0.46853 0.48987 0.48681 0.0
O41 O 0.32068 0.4248 0.45332 0.0
H42 H 0.15197 0.87021 0.33977 0.0
H43 H 1.01656 0.10396 0.33335 0.0
H44 H 0.19434 0.04276 0.48475 0.0
C45 C 0.13148 0.92655 0.36067 0.0
C46 C 0.1713 0.94668 0.4172 0.0
C47 C 0.07632 0.9835 0.3301 0.0
C48 C 0.05413 0.0581 0.35707 0.0
C49 C 0.09866 0.08004 0.41255 0.0
C50 C 0.15672 0.02436 0.44238 0.0
N51 N 0.10454 0.16249 0.43598 0.0
C52 C 0.02105 0.2108 0.43376 0.0
H53 H 0.93396 0.93348 0.62012 0.0
H54 H 0.1738 0.12203 0.65144 0.0
H55 H 0.95867 0.08595 0.4963 0.0
C56 C 0.97466 0.98038 0.60514 0.0
C57 C 0.93899 0.99916 0.55155 0.0
C58 C 0.05566 0.02665 0.64169 0.0
C59 C 0.1115 0.08596 0.62306 0.0
C60 C 0.07824 0.10526 0.56966 0.0
C61 C 0.98931 0.06458 0.53514 0.0
N62 N 0.12553 0.17062 0.55082 0.0
C63 C 0.22462 0.20533 0.57108 0.0
H64 H 0.7789 0.41973 0.84883 0.0
H65 H 0.49011 0.52879 0.82182 0.0
H66 H 0.57853 0.39925 0.95916 0.0
C67 C 0.71329 0.43692 0.86495 0.0
C68 C 0.69906 0.41199 0.91468 0.0
C69 C 0.63956 0.48066 0.83284 0.0
C70 C 0.5483 0.49816 0.84816 0.0
C71 C 0.52749 0.46921 0.89411 0.0
C72 C 0.60112 0.42495 0.92631 0.0
N73 N 0.42842 0.47586 0.90483 0.0
C74 C 0.37639 0.54831 0.90576 0.0
H75 H 0.41292 0.4077 0.15555 0.0
H76 H 0.59247 0.61304 0.12826 0.0
H77 H 0.40639 0.45509 -0.0071 0.0
C78 C 0.4375 0.4447 0.12758 0.0
C79 C 0.4041 0.42221 0.07107 0.0
C80 C 0.50309 0.5148 0.14812 0.0
C81 C 0.54004 0.56026 0.11213 0.0
C82 C 0.50558 0.5387 0.0555 0.0
C83 C 0.43444 0.4722 0.03591 0.0
N84 N 0.54035 0.58121 0.01677 0.0
C85 C 0.62162 0.63955 0.02784 0.0
C86 C 0.20686 0.24294 0.04894 0.0
C87 C 0.25037 0.18405 0.01628 0.0
C88 C 0.38589 0.28312 0.01439 0.0
C89 C 0.34493 0.34272 0.04806 0.0
N90 N 0.19764 0.38696 0.08142 0.0
N91 N 0.3526 0.15855 0.95035 0.0
C92 C 0.24863 0.32531 0.05989 0.0
C93 C 0.32845 0.20911 -0.00807 0.0
N94 N 0.13053 0.2192 0.0723 0.0
N95 N 0.48385 0.29286 0.00859 0.0
H96 H 0.31137 0.10293 0.93463 0.0
H97 H 0.40524 0.17584 0.92846 0.0
H98 H 0.5329 0.34109 0.03044 0.0
H99 H 0.51971 0.24829 -0.01224 0.0
H100 H 0.10342 0.25707 0.10143 0.0
H101 H 0.09851 0.15961 0.06436 0.0
H102 H 0.12324 0.37889 0.08654 0.0
H103 H 0.22622 0.44781 0.08906 0.0
C104 C 0.19301 0.68898 0.96026 0.0
C105 C 0.22352 0.76523 0.94609 0.0
C106 C 0.35213 0.6977 0.9029 0.0
C107 C 0.31928 0.62111 0.91517 0.0
N108 N 0.19537 0.54044 0.94558 0.0
N109 N 0.31322 0.83861 0.89219 0.0
C110 C 0.23489 0.61566 0.94031 0.0
C111 C 0.29671 0.76807 0.91333 0.0
N112 N 0.12978 0.68706 -0.0043 0.0
N113 N 0.43938 0.70438 0.88395 0.0
H114 H 0.27366 0.89126 0.89891 0.0
H115 H 0.35797 0.84234 0.86368 0.0
H116 H 0.48243 0.65446 0.87615 0.0
H117 H 0.47386 0.7603 0.88044 0.0
H118 H 0.11419 0.63484 0.01265 0.0
H119 H 0.09794 0.73923 0.0112 0.0
H120 H 0.12825 0.53204 0.95893 0.0
H121 H 0.22512 0.48574 0.93225 0.0
C122 C 0.83034 0.73924 0.97837 0.0
C123 C 0.80837 0.8224 -0.01094 0.0
C124 C 0.6861 0.78507 0.04227 0.0
C125 C 0.70016 0.70147 0.0266 0.0
N126 N 0.80737 0.59923 -0.00313 0.0
N127 N 0.74329 0.92731 0.04438 0.0
C128 C 0.78037 0.67872 0.00066 0.0
C129 C 0.74601 0.84613 0.02604 0.0
N130 N 0.89322 0.718 0.94387 0.0
N131 N 0.61199 0.80563 0.07003 0.0
H132 H 0.78783 0.97208 0.03285 0.0
H133 H 0.70491 0.9494 0.0742 0.0
H134 H 0.57028 0.76179 0.08414 0.0
H135 H 0.58958 0.86517 0.07759 0.0
H136 H 0.90388 0.65774 0.92928 0.0
H137 H 0.93255 0.76179 0.92843 0.0
H138 H 0.8717 0.58011 0.9833 0.0
H139 H 0.77095 0.55423 0.01277 0.0
C140 C 0.79332 0.24162 -0.00304 0.0
C141 C 0.87119 0.21451 0.97046 0.0
C142 C 0.87612 0.34805 0.93653 0.0
C143 C 0.77889 0.36218 0.94861 0.0
N144 N 0.72009 0.36326 0.03165 0.0
N145 N 1.00706 0.25089 0.92783 0.0
C146 C 0.75736 0.32118 -0.00874 0.0
C147 C 0.92055 0.27129 0.94513 0.0
N148 N 0.75312 0.1917 0.02714 0.0
N149 N 0.9301 0.41079 0.92315 0.0
H150 H 0.0444 0.19768 0.93674 0.0
H151 H 0.03988 0.28517 0.90343 0.0
H152 H 0.90322 0.46973 0.92333 0.0
H153 H 1.00478 0.40707 0.91803 0.0
H154 H 0.69015 0.20702 0.04346 0.0
H155 H 0.78135 0.13443 0.03411 0.0
H156 H 0.71465 0.33874 0.06716 0.0
H157 H 0.70766 0.42571 0.0323 0.0
C158 C 0.71273 0.86259 0.5366 0.0
C159 C 0.7425 0.79889 0.5018 0.0
C160 C 0.84943 0.8967 0.47039 0.0
C161 C 0.84423 0.95242 0.51699 0.0
N162 N 0.73576 0.00694 0.57444 0.0
N163 N 0.80535 0.75816 0.4222 0.0
C164 C 0.76128 0.942 0.54223 0.0
C165 C 0.79704 0.81822 0.46284 0.0
N166 N 0.64764 0.84418 0.56841 0.0
N167 N 0.90407 0.91846 0.43438 0.0
H168 H 0.76558 0.70134 0.41744 0.0
H169 H 0.84914 0.76401 0.39358 0.0
H170 H 0.93753 0.97694 0.43776 0.0
H171 H 0.91138 0.88109 0.39947 0.0
H172 H 0.62914 0.88555 0.59872 0.0
H173 H 0.61355 0.78541 0.56438 0.0
H174 H 0.67395 0.00551 0.59299 0.0
H175 H 0.77363 0.06447 0.57885 0.0
C176 C 0.92089 0.37453 0.51802 0.0
C177 C 0.82382 0.38676 0.48512 0.0
C178 C 0.84757 0.26866 0.42072 0.0
C179 C 0.95209 0.27111 0.44818 0.0
N180 N 0.0931 0.34374 0.51456 0.0
N181 N 0.69238 0.34338 0.40313 0.0
C182 C 0.99031 0.32888 0.49446 0.0
C183 C 0.7852 0.33254 0.43604 0.0
N184 N 0.94684 0.40677 0.57184 0.0
N185 N 0.80848 0.20613 0.38034 0.0
H186 H 0.64295 0.38713 0.41336 0.0
H187 H 0.66664 0.3116 0.3641 0.0
H188 H 0.85364 0.16034 0.36765 0.0
H189 H 0.73066 0.19669 0.36238 0.0
H190 H 1.01528 0.39469 0.59794 0.0
H191 H 0.89467 0.43699 0.59128 0.0
H192 H 0.12303 0.39104 0.54576 0.0
H193 H 0.14738 0.31578 0.49571 0.0
C194 C 0.37139 0.39997 0.5785 0.0
C195 C 0.41769 0.37729 0.53414 0.0
C196 C 0.38211 0.2322 0.5394 0.0
C197 C 0.31735 0.25605 0.57499 0.0
N198 N 0.27736 0.35531 0.64324 0.0
N199 N 0.49806 0.27564 0.48484 0.0
C200 C 0.32304 0.33777 0.6004 0.0
C201 C 0.43503 0.29409 0.51964 0.0
N202 N 0.36696 0.48119 0.59607 0.0
N203 N 0.38746 0.15083 0.52255 0.0
H204 H 0.5367 0.32178 0.47102 0.0
H205 H 0.5166 0.21658 0.47232 0.0
H206 H 0.3526 0.10586 0.5393 0.0
H207 H 0.42664 0.1278 0.49335 0.0
H208 H 0.32775 0.50383 0.62534 0.0
H209 H 0.40354 0.52645 0.58042 0.0
H210 H 0.28013 0.4131 0.66535 0.0
H211 H 0.24172 0.30926 0.65873 0.0
C212 C 0.27613 0.77888 0.50245 0.0
C213 C 0.36222 0.76115 0.48019 0.0
C214 C 0.34206 0.88538 0.43526 0.0
C215 C 0.2443 0.89239 0.44735 0.0
N216 N 0.1253 0.85804 0.50083 0.0
N217 N 0.4819 0.79838 0.42717 0.0
C218 C 0.21409 0.84354 0.48432 0.0
C219 C 0.39834 0.81586 0.44831 0.0
N220 N 0.25479 0.73349 0.54087 0.0
N221 N 0.381 0.94586 0.41176 0.0
H222 H 0.52709 0.74922 0.43649 0.0
H223 H 0.50356 0.82987 0.39782 0.0
H224 H 0.34161 0.99812 0.4026 0.0
H225 H 0.45582 0.94863 0.4066 0.0
H226 H 0.19692 0.74523 0.56165 0.0
H227 H 0.30103 0.6869 0.555 0.0
H228 H 0.09181 0.81987 0.52272 0.0
H229 H 0.08462 0.90966 0.49239 0.0
C230 C 1.00989 0.9146 0.1755 0.0
C231 C 0.07405 0.97163 0.15882 0.0
C232 C 0.14117 0.03086 0.25364 0.0
C233 C 0.07258 0.97815 0.27066 0.0
N234 N 0.93112 0.8777 0.24799 0.0
N235 N 0.17704 0.0989 0.18046 0.0
C236 C 1.00316 0.92241 0.23155 0.0
C237 C 0.13132 0.03476 0.19747 0.0
N238 N 0.95953 0.8514 0.13861 0.0
N239 N 0.22019 0.07395 0.29089 0.0
H240 H 0.17366 0.10353 0.13947 0.0
H241 H 0.20972 0.1511 0.20667 0.0
H242 H 0.23431 0.07102 0.33279 0.0
H243 H 0.27872 0.10587 0.27968 0.0
H244 H 0.91928 0.80322 0.14914 0.0
H245 H 0.96309 0.84487 0.09756 0.0
H246 H 0.87244 0.84142 0.22098 0.0
H247 H 0.92607 0.8816 0.2888 0.0
C248 C 0.08773 0.94215 0.77711 0.0
C249 C 0.03381 0.99969 0.80472 0.0
C250 C 1.01031 0.08233 0.72896 0.0
C251 C 0.06403 0.02473 0.701 0.0
N252 N 0.17081 0.90961 0.70141 0.0
N253 N 0.96182 0.13198 0.81311 0.0
C254 C 0.10889 0.95791 0.72634 0.0
C255 C 1.00199 0.07258 0.78272 0.0
N256 N 0.11346 0.8707 0.79799 0.0
N257 N 0.9604 0.14284 0.70263 0.0
H258 H 0.9484 0.12457 0.85129 0.0
H259 H 0.94886 0.19066 0.80248 0.0
H260 H 0.96471 0.15354 0.66341 0.0
H261 H 0.90848 0.17936 0.718 0.0
H262 H 0.1435 0.82216 0.77739 0.0
H263 H 0.09958 0.85822 0.8353 0.0
H264 H 0.21279 0.86374 0.7194 0.0
H265 H 0.18655 0.92014 0.66411 0.0
C266 C 0.63736 0.46723 0.68185 0.0
C267 C 0.66496 0.54985 0.67814 0.0
C268 C 0.68801 0.5843 0.7771 0.0
C269 C 0.65299 0.50333 0.78002 0.0
N270 N 0.57658 0.37172 0.73486 0.0
N271 N 0.70122 0.69018 0.71954 0.0
C272 C 0.62233 0.44591 0.73227 0.0
C273 C 0.68627 0.60939 0.7251 0.0
N274 N 0.63074 0.40826 0.63808 0.0
N275 N 0.72399 0.63662 0.82413 0.0
H276 H 0.69886 0.71067 0.68181 0.0
H277 H 0.70726 0.73769 0.75133 0.0
H278 H 0.72411 0.62057 0.86284 0.0
H279 H 0.7605 0.69358 0.8253 0.0
H280 H 0.62184 0.3458 0.64029 0.0
H281 H 0.64261 0.42069 0.60041 0.0
H282 H 0.54089 0.33183 0.70034 0.0
H283 H 0.56709 0.35255 0.77138 0.0
C284 C 0.61791 0.51822 0.29983 0.0
C285 C 0.54115 0.55994 0.32064 0.0
C286 C 0.46574 0.59754 0.22997 0.0
C287 C 0.52883 0.54156 0.20772 0.0
N288 N 0.6694 0.45223 0.21969 0.0
N289 N 0.40067 0.64925 0.3091 0.0
C290 C 0.60765 0.50401 0.24226 0.0
C291 C 0.46883 0.60404 0.28679 0.0
N292 N 0.6999 0.49253 0.33516 0.0
N293 N 0.40198 0.64312 0.19649 0.0
H294 H 0.40563 0.65907 0.35113 0.0
H295 H 0.33799 0.67539 0.28651 0.0
H296 H 0.39606 0.63806 0.15442 0.0
H297 H 0.35998 0.68999 0.21037 0.0
H298 H 0.7624 0.46628 0.32311 0.0
H299 H 0.70982 0.50492 0.37743 0.0
H300 H 0.72051 0.41542 0.24191 0.0
H301 H 0.66633 0.44354 0.1778 0.0
loop_
_geom_bond_atom_site_label_1
_geom_bond_atom_site_label_2
_geom_bond_distance
_geom_bond_site_symmetry_2
_ccdc_geom_bond_type
O0 Mn1 2.163 1_654 S
O0 C14 1.243 1_554 S
Mn1 O0 2.163 1_456 S
Mn1 O4 2.160 1_545 S
Mn1 O5 2.221 1_556 S
Mn1 O7 2.163 1_556 S
Mn1 O9 2.160 . S
Mn1 O19 2.221 1_445 S
O2 Mn3 2.087 1_545 S
O2 C14 1.256 . S
Mn3 O2 2.087 1_565 S
Mn3 O10 2.089 1_565 S
Mn3 O19 2.290 . S
Mn3 O20 2.251 . S
O4 Mn1 2.160 1_565 S
O4 C15 1.239 1_556 S
O5 Mn1 2.221 1_554 S
O5 Mn6 2.290 . S
O5 C16 1.278 . S
Mn6 O5 2.290 . S
Mn6 O8 2.089 1_545 S
Mn6 O11 2.251 . S
Mn6 O12 2.087 . S
O7 Mn1 2.163 1_554 S
O7 C17 1.244 . S
O8 Mn6 2.089 1_565 S
O8 C15 1.256 . S
O9 Mn1 2.160 . S
O9 C18 1.239 . S
O10 Mn3 2.089 1_545 S
O10 C18 1.256 1_655 S
O11 Mn6 2.251 . S
O11 C16 1.241 . S
O12 Mn6 2.087 . S
O12 C17 1.256 . S
C13 O19 1.278 . S
C13 O20 1.241 . S
C14 O0 1.243 1_556 S
C14 O2 1.256 . S
C15 O4 1.239 1_554 S
C15 O8 1.256 . S
C16 O5 1.278 . S
C16 O11 1.241 . S
C17 O7 1.244 . S
C17 O12 1.256 . S
C18 O9 1.239 . S
C18 O10 1.256 1_455 S
O19 Mn1 2.221 1_665 S
O19 Mn3 2.290 . S
O19 C13 1.278 . S
O20 Mn3 2.251 . S
O20 C13 1.241 . S
O21 Mn22 2.163 . S
O21 C35 1.244 . S
Mn22 O21 2.163 . S
Mn22 O25 2.160 . S
Mn22 O26 2.221 . S
Mn22 O28 2.163 . S
Mn22 O30 2.160 . S
Mn22 O40 2.221 . S
O23 Mn24 2.087 . S
O23 C35 1.256 . S
Mn24 O23 2.087 . S
Mn24 O31 2.089 . S
Mn24 O40 2.290 . S
Mn24 O41 2.251 . S
O25 Mn22 2.160 . S
O25 C36 1.239 . S
O26 Mn22 2.221 . S
O26 Mn27 2.290 . S
O26 C37 1.278 . S
Mn27 O26 2.290 . S
Mn27 O29 2.089 . S
Mn27 O32 2.251 . S
Mn27 O33 2.087 . S
O28 Mn22 2.163 . S
O28 C38 1.244 . S
O29 Mn27 2.089 . S
O29 C36 1.256 . S
O30 Mn22 2.160 . S
O30 C39 1.239 . S
O31 Mn24 2.089 . S
O31 C39 1.256 . S
O32 Mn27 2.251 . S
O32 C37 1.241 . S
O33 Mn27 2.087 . S
O33 C38 1.256 . S
C34 O40 1.278 . S
C34 O41 1.241 . S
C35 O21 1.244 . S
C35 O23 1.256 . S
C36 O25 1.239 . S
C36 O29 1.256 . S
C37 O26 1.278 . S
C37 O32 1.241 . S
C38 O28 1.244 . S
C38 O33 1.256 . S
C39 O30 1.239 . S
C39 O31 1.256 . S
O40 Mn22 2.221 . S
O40 Mn24 2.290 . S
O40 C34 1.278 . S
O41 Mn24 2.251 . S
O41 C34 1.241 . S
H42 C45 0.929 . S
H43 C48 0.929 1_655 S
H44 C50 0.930 . S
C45 H42 0.929 . S
C45 C46 1.398 . S
C45 C47 1.396 . S
C46 C45 1.398 . S
C46 C50 1.407 . S
C47 C45 1.396 . S
C47 C48 1.394 1_565 S
C48 H43 0.929 1_455 S
C48 C47 1.394 1_545 S
C48 C49 1.382 . S
C49 C48 1.382 . S
C49 C50 1.392 1_545 S
C49 N51 1.420 1_455 S
C50 H44 0.930 . S
C50 C46 1.407 . S
C50 C49 1.392 1_565 S
N51 C49 1.420 1_655 S
N51 C52 1.244 . S
C52 N51 1.244 . S
H53 C56 0.929 . S
H54 C59 0.929 . S
H55 C61 0.930 1_565 S
C56 H53 0.929 . S
C56 C57 1.398 . S
C56 C58 1.396 1_565 S
C57 C56 1.398 . S
C57 C61 1.407 1_565 S
C58 C56 1.396 1_545 S
C58 C59 1.394 1_655 S
C59 H54 0.929 . S
C59 C58 1.394 1_455 S
C59 C60 1.382 . S
C60 C59 1.382 . S
C60 C61 1.392 1_455 S
C60 N62 1.420 . S
C61 H55 0.930 1_545 S
C61 C57 1.407 1_545 S
C61 C60 1.392 1_655 S
N62 C60 1.420 . S
N62 C63 1.244 . S
C63 N62 1.244 . S
H64 C67 0.929 . S
H65 C70 0.929 . S
H66 C72 0.930 1_554 S
C67 H64 0.929 . S
C67 C68 1.398 . S
C67 C69 1.396 . S
C68 C67 1.398 . S
C68 C72 1.407 . S
C69 C67 1.396 . S
C69 C70 1.394 . S
C70 H65 0.929 . S
C70 C69 1.394 . S
C70 C71 1.382 . S
C71 C70 1.382 . S
C71 C72 1.392 . S
C71 N73 1.420 . S
C72 H66 0.930 1_556 S
C72 C68 1.407 . S
C72 C71 1.392 . S
N73 C71 1.420 . S
N73 C74 1.244 . S
C74 N73 1.244 . S
H75 C78 0.929 . S
H76 C81 0.929 . S
H77 C83 0.930 1_556 S
C78 H75 0.929 . S
C78 C79 1.398 . S
C78 C80 1.396 . S
C79 C78 1.398 . S
C79 C83 1.407 . S
C80 C78 1.396 . S
C80 C81 1.394 . S
C81 H76 0.929 . S
C81 C80 1.394 . S
C81 C82 1.382 . S
C82 C81 1.382 . S
C82 C83 1.392 . S
C82 N84 1.420 . S
C83 H77 0.930 1_554 S
C83 C79 1.407 . S
C83 C82 1.392 . S
N84 C82 1.420 . S
N84 C85 1.244 . S
C85 N84 1.244 . S
C86 C87 1.363 . S
C86 C92 1.379 . S
C86 N94 1.356 . S
C87 C86 1.363 . S
C87 C93 1.363 . S
C88 C89 1.363 . S
C88 C93 1.379 . S
C88 N95 1.356 . S
C89 C88 1.363 . S
C89 C92 1.363 . S
N90 C92 1.356 . S
N90 H102 0.984 . S
N90 H103 0.985 . S
N91 C93 1.356 1_556 S
N91 H96 0.984 . S
N91 H97 0.985 . S
C92 C86 1.379 . S
C92 C89 1.363 . S
C92 N90 1.356 . S
C93 C87 1.363 . S
C93 C88 1.379 . S
C93 N91 1.356 1_554 S
N94 C86 1.356 . S
N94 H100 0.984 . S
N94 H101 0.984 . S
N95 C88 1.356 . S
N95 H98 0.984 . S
N95 H99 0.985 1_554 S
H96 N91 0.984 . S
H97 N91 0.985 . S
H98 N95 0.984 . S
H99 N95 0.985 1_556 S
H100 N94 0.984 . S
H101 N94 0.984 . S
H102 N90 0.984 . S
H103 N90 0.985 . S
C104 C105 1.363 1_556 S
C104 C110 1.379 . S
C104 N112 1.356 . S
C105 C104 1.363 1_554 S
C105 C111 1.363 . S
C106 C107 1.365 . S
C106 C111 1.379 . S
C106 N113 1.356 . S
C107 C106 1.365 . S
C107 C110 1.362 1_554 S
N108 C110 1.356 . S
N108 H120 0.984 . S
N108 H121 0.985 . S
N109 C111 1.356 . S
N109 H114 0.984 . S
N109 H115 0.985 . S
C110 C104 1.379 . S
C110 C107 1.362 1_556 S
C110 N108 1.356 . S
C111 C105 1.363 . S
C111 C106 1.379 . S
C111 N109 1.356 . S
N112 C104 1.356 . S
N112 H118 0.984 . S
N112 H119 0.984 . S
N113 C106 1.356 . S
N113 H116 0.984 . S
N113 H117 0.985 . S
H114 N109 0.984 . S
H115 N109 0.985 . S
H116 N113 0.984 . S
H117 N113 0.985 . S
H118 N112 0.984 . S
H119 N112 0.984 . S
H120 N108 0.984 . S
H121 N108 0.985 . S
C122 C123 1.363 1_556 S
C122 C128 1.379 . S
C122 N130 1.356 . S
C123 C122 1.363 1_554 S
C123 C129 1.363 . S
C124 C125 1.363 . S
C124 C129 1.379 . S
C124 N131 1.356 . S
C125 C124 1.363 . S
C125 C128 1.363 1_554 S
N126 C128 1.356 . S
N126 H138 0.984 . S
N126 H139 0.985 . S
N127 C129 1.356 . S
N127 H132 0.984 . S
N127 H133 0.985 . S
C128 C122 1.379 . S
C128 C125 1.363 1_556 S
C128 N126 1.356 . S
C129 C123 1.363 . S
C129 C124 1.379 . S
C129 N127 1.356 . S
N130 C122 1.356 . S
N130 H136 0.984 . S
N130 H137 0.984 . S
N131 C124 1.356 . S
N131 H134 0.984 . S
N131 H135 0.985 . S
H132 N127 0.984 . S
H133 N127 0.985 . S
H134 N131 0.984 . S
H135 N131 0.985 . S
H136 N130 0.984 . S
H137 N130 0.984 . S
H138 N126 0.984 . S
H139 N126 0.985 . S
C140 C141 1.363 1_554 S
C140 C146 1.379 . S
C140 N148 1.356 . S
C141 C140 1.363 1_556 S
C141 C147 1.363 . S
C142 C143 1.363 . S
C142 C147 1.379 . S
C142 N149 1.356 . S
C143 C142 1.363 . S
C143 C146 1.363 1_556 S
N144 C146 1.356 . S
N144 H156 0.984 . S
N144 H157 0.985 . S
N145 C147 1.356 . S
N145 H150 0.984 . S
N145 H151 0.985 . S
C146 C140 1.379 . S
C146 C143 1.363 1_554 S
C146 N144 1.356 . S
C147 C141 1.363 . S
C147 C142 1.379 . S
C147 N145 1.356 . S
N148 C140 1.356 . S
N148 H154 0.984 . S
N148 H155 0.984 . S
N149 C142 1.356 . S
N149 H152 0.984 . S
N149 H153 0.985 . S
H150 N145 0.984 . S
H151 N145 0.985 . S
H152 N149 0.984 . S
H153 N149 0.985 . S
H154 N148 0.984 . S
H155 N148 0.984 . S
H156 N144 0.984 . S
H157 N144 0.985 . S
C158 C159 1.363 . S
C158 C164 1.379 . S
C158 N166 1.356 . S
C159 C158 1.363 . S
C159 C165 1.363 . S
C160 C161 1.363 . S
C160 C165 1.379 . S
C160 N167 1.356 . S
C161 C160 1.363 . S
C161 C164 1.363 . S
N162 C164 1.356 . S
N162 H174 0.984 . S
N162 H175 0.985 . S
N163 C165 1.356 . S
N163 H168 0.984 . S
N163 H169 0.985 . S
C164 C158 1.379 . S
C164 C161 1.363 . S
C164 N162 1.356 . S
C165 C159 1.363 . S
C165 C160 1.379 . S
C165 N163 1.356 . S
N166 C158 1.356 . S
N166 H172 0.984 . S
N166 H173 0.984 . S
N167 C160 1.356 . S
N167 H170 0.984 . S
N167 H171 0.985 . S
H168 N163 0.984 . S
H169 N163 0.985 . S
H170 N167 0.984 . S
H171 N167 0.985 . S
H172 N166 0.984 . S
H173 N166 0.984 . S
H174 N162 0.984 . S
H175 N162 0.985 . S
C176 C177 1.363 . S
C176 C182 1.379 . S
C176 N184 1.356 . S
C177 C176 1.363 . S
C177 C183 1.363 . S
C178 C179 1.363 . S
C178 C183 1.379 . S
C178 N185 1.356 . S
C179 C178 1.363 . S
C179 C182 1.363 . S
N180 C182 1.356 1_455 S
N180 H192 0.984 . S
N180 H193 0.985 . S
N181 C183 1.356 . S
N181 H186 0.984 . S
N181 H187 0.985 . S
C182 C176 1.379 . S
C182 C179 1.363 . S
C182 N180 1.356 1_655 S
C183 C177 1.363 . S
C183 C178 1.379 . S
C183 N181 1.356 . S
N184 C176 1.356 . S
N184 H190 0.984 . S
N184 H191 0.984 . S
N185 C178 1.356 . S
N185 H188 0.984 . S
N185 H189 0.985 . S
H186 N181 0.984 . S
H187 N181 0.985 . S
H188 N185 0.984 . S
H189 N185 0.985 . S
H190 N184 0.984 . S
H191 N184 0.984 . S
H192 N180 0.984 . S
H193 N180 0.985 . S
C194 C195 1.363 . S
C194 C200 1.379 . S
C194 N202 1.356 . S
C195 C194 1.363 . S
C195 C201 1.363 . S
C196 C197 1.363 . S
C196 C201 1.379 . S
C196 N203 1.356 . S
C197 C196 1.363 . S
C197 C200 1.363 . S
N198 C200 1.356 . S
N198 H210 0.984 . S
N198 H211 0.985 . S
N199 C201 1.356 . S
N199 H204 0.984 . S
N199 H205 0.985 . S
C200 C194 1.379 . S
C200 C197 1.363 . S
C200 N198 1.356 . S
C201 C195 1.363 . S
C201 C196 1.379 . S
C201 N199 1.356 . S
N202 C194 1.356 . S
N202 H208 0.984 . S
N202 H209 0.984 . S
N203 C196 1.356 . S
N203 H206 0.984 . S
N203 H207 0.985 . S
H204 N199 0.984 . S
H205 N199 0.985 . S
H206 N203 0.984 . S
H207 N203 0.985 . S
H208 N202 0.984 . S
H209 N202 0.984 . S
H210 N198 0.984 . S
H211 N198 0.985 . S
C212 C213 1.363 . S
C212 C218 1.379 . S
C212 N220 1.356 . S
C213 C212 1.363 . S
C213 C219 1.363 . S
C214 C215 1.363 . S
C214 C219 1.379 . S
C214 N221 1.356 . S
C215 C214 1.363 . S
C215 C218 1.363 . S
N216 C218 1.356 . S
N216 H228 0.984 . S
N216 H229 0.985 . S
N217 C219 1.356 . S
N217 H222 0.984 . S
N217 H223 0.985 . S
C218 C212 1.379 . S
C218 C215 1.363 . S
C218 N216 1.356 . S
C219 C213 1.363 . S
C219 C214 1.379 . S
C219 N217 1.356 . S
N220 C212 1.356 . S
N220 H226 0.984 . S
N220 H227 0.984 . S
N221 C214 1.356 . S
N221 H224 0.984 . S
N221 H225 0.985 . S
H222 N217 0.984 . S
H223 N217 0.985 . S
H224 N221 0.984 . S
H225 N221 0.985 . S
H226 N220 0.984 . S
H227 N220 0.984 . S
H228 N216 0.984 . S
H229 N216 0.985 . S
C230 C231 1.363 . S
C230 C236 1.379 . S
C230 N238 1.356 . S
C231 C230 1.363 . S
C231 C237 1.363 1_565 S
C232 C233 1.363 1_545 S
C232 C237 1.379 . S
C232 N239 1.356 . S
C233 C232 1.363 1_565 S
C233 C236 1.363 . S
N234 C236 1.356 . S
N234 H246 0.984 1_455 S
N234 H247 0.985 . S
N235 C237 1.356 . S
N235 H240 0.984 . S
N235 H241 0.985 . S
C236 C230 1.379 . S
C236 C233 1.363 . S
C236 N234 1.356 . S
C237 C231 1.363 1_545 S
C237 C232 1.379 . S
C237 N235 1.356 . S
N238 C230 1.356 . S
N238 H244 0.984 1_455 S
N238 H245 0.984 . S
N239 C232 1.356 . S
N239 H242 0.984 . S
N239 H243 0.985 . S
H240 N235 0.984 . S
H241 N235 0.985 . S
H242 N239 0.984 . S
H243 N239 0.985 . S
H244 N238 0.984 1_655 S
H245 N238 0.984 . S
H246 N234 0.984 1_655 S
H247 N234 0.985 . S
C248 C249 1.363 1_565 S
C248 C254 1.379 . S
C248 N256 1.356 . S
C249 C248 1.363 1_545 S
C249 C255 1.363 1_455 S
C250 C251 1.363 . S
C250 C255 1.379 . S
C250 N257 1.356 . S
C251 C250 1.363 . S
C251 C254 1.363 1_645 S
N252 C254 1.356 . S
N252 H264 0.984 . S
N252 H265 0.985 . S
N253 C255 1.356 . S
N253 H258 0.984 . S
N253 H259 0.985 . S
C254 C248 1.379 . S
C254 C251 1.363 1_465 S
C254 N252 1.356 . S
C255 C249 1.363 1_655 S
C255 C250 1.379 . S
C255 N253 1.356 . S
N256 C248 1.356 . S
N256 H262 0.984 . S
N256 H263 0.984 . S
N257 C250 1.356 . S
N257 H260 0.984 . S
N257 H261 0.985 . S
H258 N253 0.984 . S
H259 N253 0.985 . S
H260 N257 0.984 . S
H261 N257 0.985 . S
H262 N256 0.984 . S
H263 N256 0.984 . S
H264 N252 0.984 . S
H265 N252 0.985 . S
C266 C267 1.363 . S
C266 C272 1.379 . S
C266 N274 1.356 . S
C267 C266 1.363 . S
C267 C273 1.363 . S
C268 C269 1.363 . S
C268 C273 1.379 . S
C268 N275 1.356 . S
C269 C268 1.363 . S
C269 C272 1.363 . S
N270 C272 1.356 . S
N270 H282 0.984 . S
N270 H283 0.985 . S
N271 C273 1.356 . S
N271 H276 0.984 . S
N271 H277 0.985 . S
C272 C266 1.379 . S
C272 C269 1.363 . S
C272 N270 1.356 . S
C273 C267 1.363 . S
C273 C268 1.379 . S
C273 N271 1.356 . S
N274 C266 1.356 . S
N274 H280 0.984 . S
N274 H281 0.984 . S
N275 C268 1.356 . S
N275 H278 0.984 . S
N275 H279 0.985 . S
H276 N271 0.984 . S
H277 N271 0.985 . S
H278 N275 0.984 . S
H279 N275 0.985 . S
H280 N274 0.984 . S
H281 N274 0.984 . S
H282 N270 0.984 . S
H283 N270 0.985 . S
C284 C285 1.363 . S
C284 C290 1.379 . S
C284 N292 1.356 . S
C285 C284 1.363 . S
C285 C291 1.363 . S
C286 C287 1.363 . S
C286 C291 1.379 . S
C286 N293 1.356 . S
C287 C286 1.363 . S
C287 C290 1.363 . S
N288 C290 1.356 . S
N288 H300 0.984 . S
N288 H301 0.985 . S
N289 C291 1.356 . S
N289 H294 0.984 . S
N289 H295 0.985 . S
C290 C284 1.379 . S
C290 C287 1.363 . S
C290 N288 1.356 . S
C291 C285 1.363 . S
C291 C286 1.379 . S
C291 N289 1.356 . S
N292 C284 1.356 . S
N292 H298 0.984 . S
N292 H299 0.984 . S
N293 C286 1.356 . S
N293 H296 0.984 . S
N293 H297 0.985 . S
H294 N289 0.984 . S
H295 N289 0.985 . S
H296 N293 0.984 . S
H297 N293 0.985 . S
H298 N292 0.984 . S
H299 N292 0.984 . S
H300 N288 0.984 . S
H301 N288 0.985 . S
C89 C79 1.470 . S
C87 C16 1.367 . S
C105 C15 1.473 . S
C107 C74 1.449 1_554 S
C123 C13 1.277 1_554 S
C125 C85 1.454 . S
C141 C14 1.438 . S
C143 C68 1.466 . S
C159 C37 1.367 . S
C161 C57 1.470 . S
C177 C36 1.473 . S
C179 C52 1.451 . S
C197 C63 1.454 . S
C195 C34 1.277 . S
C215 C46 1.466 . S
C213 C35 1.438 . S
C231 C17 1.574 1_565 S
C233 C47 1.610 . S
C249 C18 1.400 . S
C251 C58 1.430 . S
C269 C69 1.610 . S
C267 C38 1.574 . S
C285 C39 1.400 . S
C287 C80 1.430 . S
