# Generated by pormake.
# Topology zzz, (3,6)-cn, num edge types: 1
# Building blocks:
#     Node 0, Type 0, BuildingBlock: PAMTOO_clean_linker_0, # of connection points: 3
#     Node 1, Type 0, BuildingBlock: PAMTOO_clean_linker_0, # of connection points: 3
#     Node 2, Type 0, BuildingBlock: PAMTOO_clean_linker_0, # of connection points: 3
#     Node 3, Type 0, BuildingBlock: PAMTOO_clean_linker_0, # of connection points: 3
#     Node 4, Type 0, BuildingBlock: PAMTOO_clean_linker_0, # of connection points: 3
#     Node 5, Type 0, BuildingBlock: PAMTOO_clean_linker_0, # of connection points: 3
#     Node 6, Type 0, BuildingBlock: PAMTOO_clean_linker_0, # of connection points: 3
#     Node 7, Type 0, BuildingBlock: PAMTOO_clean_linker_0, # of connection points: 3
#     Node 8, Type 1, BuildingBlock: KUMBOL_clean_sbu_0, # of connection points: 6
#     Node 9, Type 1, BuildingBlock: KUMBOL_clean_sbu_0, # of connection points: 6
#     Node 10, Type 1, BuildingBlock: KUMBOL_clean_sbu_0, # of connection points: 6
#     Node 11, Type 1, BuildingBlock: KUMBOL_clean_sbu_0, # of connection points: 6
#     Edge 12, Type (0, 1), BuildingBlock: UVAHIK_clean_linker_0, # of connection points: 2
#     Edge 13, Type (0, 1), BuildingBlock: UVAHIK_clean_linker_0, # of connection points: 2
#     Edge 14, Type (0, 1), BuildingBlock: UVAHIK_clean_linker_0, # of connection points: 2
#     Edge 15, Type (0, 1), BuildingBlock: UVAHIK_clean_linker_0, # of connection points: 2
#     Edge 16, Type (0, 1), BuildingBlock: UVAHIK_clean_linker_0, # of connection points: 2
#     Edge 17, Type (0, 1), BuildingBlock: UVAHIK_clean_linker_0, # of connection points: 2
#     Edge 18, Type (0, 1), BuildingBlock: UVAHIK_clean_linker_0, # of connection points: 2
#     Edge 19, Type (0, 1), BuildingBlock: UVAHIK_clean_linker_0, # of connection points: 2
#     Edge 20, Type (0, 1), BuildingBlock: UVAHIK_clean_linker_0, # of connection points: 2
#     Edge 21, Type (0, 1), BuildingBlock: UVAHIK_clean_linker_0, # of connection points: 2
#     Edge 22, Type (0, 1), BuildingBlock: UVAHIK_clean_linker_0, # of connection points: 2
#     Edge 23, Type (0, 1), BuildingBlock: UVAHIK_clean_linker_0, # of connection points: 2
#     Edge 24, Type (0, 1), BuildingBlock: UVAHIK_clean_linker_0, # of connection points: 2
#     Edge 25, Type (0, 1), BuildingBlock: UVAHIK_clean_linker_0, # of connection points: 2
#     Edge 26, Type (0, 1), BuildingBlock: UVAHIK_clean_linker_0, # of connection points: 2
#     Edge 27, Type (0, 1), BuildingBlock: UVAHIK_clean_linker_0, # of connection points: 2
#     Edge 28, Type (0, 1), BuildingBlock: UVAHIK_clean_linker_0, # of connection points: 2
#     Edge 29, Type (0, 1), BuildingBlock: UVAHIK_clean_linker_0, # of connection points: 2
#     Edge 30, Type (0, 1), BuildingBlock: UVAHIK_clean_linker_0, # of connection points: 2
#     Edge 31, Type (0, 1), BuildingBlock: UVAHIK_clean_linker_0, # of connection points: 2
#     Edge 32, Type (0, 1), BuildingBlock: UVAHIK_clean_linker_0, # of connection points: 2
#     Edge 33, Type (0, 1), BuildingBlock: UVAHIK_clean_linker_0, # of connection points: 2
#     Edge 34, Type (0, 1), BuildingBlock: UVAHIK_clean_linker_0, # of connection points: 2
#     Edge 35, Type (0, 1), BuildingBlock: UVAHIK_clean_linker_0, # of connection points: 2
# Relax obj value: 0.145
# Max RMSD: 0.152
# Mean RMSD: 0.111
data_MOF--net-zzz--node1-KUMBOL_clean_sbu_0--node2-PAMTOO_clean_linker_0--edge1-UVAHIK_clean_linker_0
_symmetry_space_group_name_H-M    P1
_symmetry_Int_Tables_number       1
_symmetry_cell_setting            triclinic
loop_
_symmetry_equiv_pos_as_xyz
'x, y, z'
_cell_length_a     65.279133
_cell_length_b     65.395667
_cell_length_c     19.032489
_cell_angle_alpha  90.741534
_cell_angle_beta   89.964254
_cell_angle_gamma 90.019339
loop_
_atom_site_label
_atom_site_type_symbol
_atom_site_fract_x
_atom_site_fract_y
_atom_site_fract_z
_atom_type_partial_charge
H0 H 0.80482 0.5736 0.18511 0.0
H1 H 0.74744 0.57034 0.07517 0.0
H2 H 0.75292 0.54455 0.28159 0.0
H3 H 0.71894 0.52231 0.17921 0.0
C4 C 0.72041 0.53465 0.13992 0.0
O5 O 0.72723 0.55225 0.17437 0.0
H6 H 0.73191 0.52931 0.10053 0.0
C7 C 0.78865 0.56973 0.18466 0.0
C8 C 0.78039 0.5592 0.24166 0.0
C9 C 0.77707 0.57341 0.12416 0.0
C10 C 0.7564 0.56768 0.12209 0.0
C11 C 0.74742 0.55756 0.17877 0.0
C12 C 0.75958 0.55292 0.2385 0.0
H13 H 0.96066 0.80775 0.20953 0.0
H14 H 0.96825 0.75035 0.10046 0.0
H15 H 0.99815 0.76078 0.29957 0.0
H16 H 0.96474 0.718 0.19747 0.0
C17 C 0.98157 0.7155 0.20132 0.0
O18 O 0.9921 0.73383 0.19168 0.0
H19 H 0.98476 0.71023 0.25551 0.0
C20 C 0.9663 0.79215 0.20873 0.0
C21 C 0.97917 0.78593 0.26331 0.0
C22 C 0.96242 0.77965 0.14971 0.0
C23 C 0.97086 0.75998 0.14636 0.0
C24 C 0.98333 0.75273 0.2004 0.0
C25 C 0.98781 0.7659 0.25898 0.0
H26 H 0.72363 0.96233 0.21518 0.0
H27 H 0.78321 0.96298 0.1187 0.0
H28 H 0.77377 0.99258 0.31986 0.0
H29 H 0.81382 0.01146 0.22619 0.0
C30 C 0.80944 0.99992 0.18558 0.0
O31 O 0.80142 0.98294 0.21929 0.0
H32 H 0.79755 1.00732 0.15245 0.0
C33 C 0.7398 0.96613 0.21759 0.0
C34 C 0.74698 0.97746 0.2754 0.0
C35 C 0.75254 0.96111 0.1605 0.0
C36 C 0.77323 0.9668 0.16246 0.0
C37 C 0.78109 0.97804 0.2195 0.0
C38 C 0.76784 0.98368 0.276 0.0
H39 H 0.57922 0.73339 0.20424 0.0
H40 H 0.57584 0.79427 0.12265 0.0
H41 H 0.55387 0.78199 0.33138 0.0
H42 H 0.53336 0.82623 0.25395 0.0
C43 C 0.54171 0.81913 0.20902 0.0
O44 O 0.55983 0.81083 0.23407 0.0
H45 H 0.53147 0.80689 0.18778 0.0
C46 C 0.57592 0.74951 0.21208 0.0
C47 C 0.56693 0.75589 0.27562 0.0
C48 C 0.57892 0.76305 0.15633 0.0
C49 C 0.57371 0.78368 0.16539 0.0
C50 C 0.56473 0.79065 0.228 0.0
C51 C 0.56104 0.77667 0.28319 0.0
H52 H 0.23038 0.45935 0.03656 0.0
H53 H 0.28602 0.4665 0.15463 0.0
H54 H 0.28002 0.49483 0.95252 0.0
H55 H 0.32851 0.48034 0.99718 0.0
C56 C 0.32285 0.47702 0.05092 0.0
O57 O 0.3051 0.48836 0.06256 0.0
H58 H 0.31943 0.46034 0.05283 0.0
C59 C 0.24609 0.4647 0.03971 0.0
C60 C 0.25369 0.47707 0.9861 0.0
C61 C 0.25745 0.46101 0.10074 0.0
C62 C 0.2773 0.46895 0.10703 0.0
C63 C 0.28588 0.48056 0.0531 0.0
C64 C 0.27387 0.48502 0.99279 0.0
H65 H 0.07131 0.22683 0.03585 0.0
H66 H 0.06552 0.28244 0.15705 0.0
H67 H 0.03013 0.27395 0.9679 0.0
H68 H 0.03974 0.32429 0.0133 0.0
C69 C 0.04718 0.3185 0.06156 0.0
O70 O 0.0386 0.29954 0.07729 0.0
H71 H 0.06378 0.31662 0.04939 0.0
C72 C 0.06535 0.24225 0.0414 0.0
C73 C 0.05078 0.24893 0.99277 0.0
C74 C 0.07051 0.25393 0.1012 0.0
C75 C 0.06189 0.27344 0.11048 0.0
C76 C 0.04772 0.28111 0.06228 0.0
C77 C 0.0418 0.2686 1.00359 0.0
H78 H 0.30987 0.07286 0.01251 0.0
H79 H 0.25157 0.07414 0.11801 0.0
H80 H 0.25778 0.04328 0.91752 0.0
H81 H 0.23624 0.02795 0.07818 0.0
C82 C 0.22378 0.03639 0.05096 0.0
O83 O 0.23159 0.05411 0.02131 0.0
H84 H 0.21823 0.02622 0.00785 0.0
C85 C 0.2936 0.06944 0.01286 0.0
C86 C 0.28545 0.05788 0.95722 0.0
C87 C 0.28172 0.07518 0.0713 0.0
C88 C 0.2609 0.06985 0.07306 0.0
C89 C 0.25202 0.05856 0.01785 0.0
C90 C 0.26443 0.0523 0.95981 0.0
H91 H 0.45663 0.30514 0.01554 0.0
H92 H 0.46303 0.2495 0.13141 0.0
H93 H 0.49008 0.25446 0.92606 0.0
H94 H 0.47734 0.20576 0.97242 0.0
C95 C 0.47291 0.21224 0.02449 0.0
O96 O 0.48411 0.23004 0.0362 0.0
H97 H 0.45621 0.2157 0.02265 0.0
C98 C 0.46147 0.28929 0.0178 0.0
C99 C 0.47318 0.28116 0.96243 0.0
C100 C 0.45796 0.27817 0.07923 0.0
C101 C 0.4653 0.25808 0.0837 0.0
C102 C 0.47631 0.24918 0.02804 0.0
C103 C 0.48061 0.26088 0.96754 0.0
Gd104 Gd 0.99655 0.0246 0.54836 0.0
Gd105 Gd 0.03434 0.01386 0.68358 0.0
C106 C 0.05013 0.06869 0.82818 0.0
C107 C 0.08527 0.07595 0.79556 0.0
C108 C 0.0668 0.04779 0.73924 0.0
C109 C 0.0496 0.0524 0.77848 0.0
C110 C 0.08501 0.05922 0.74868 0.0
C111 C 0.06787 0.08064 0.83538 0.0
C112 C 0.03292 0.07239 0.86991 0.0
C113 C 0.01583 0.05987 0.86245 0.0
N114 N 0.03253 0.04074 0.76951 0.0
C115 C 0.01589 0.0441 0.81226 0.0
H116 H 1.00212 0.03534 0.80754 0.0
C117 C 0.08405 0.02421 0.66563 0.0
N118 N 0.0662 0.03133 0.69527 0.0
C119 C 0.1023 0.03521 0.67218 0.0
C120 C 0.1027 0.05304 0.71287 0.0
H121 H 0.08425 0.00991 0.63651 0.0
H122 H 0.06841 0.09332 0.87258 0.0
H123 H 0.03145 1.00525 0.42867 0.0
H124 H 0.03273 0.08474 0.90843 0.0
H125 H 1.00242 0.06252 0.89478 0.0
H126 H 0.09904 0.08498 0.80292 0.0
H127 H 0.94622 0.0269 0.58832 0.0
H128 H 1.0038 0.95622 0.31603 0.0
H129 H 0.03356 0.97847 0.34019 0.0
H130 H 0.93503 0.95527 0.40086 0.0
H131 H 0.11611 0.02973 0.64669 0.0
H132 H 0.11693 0.06143 0.7187 0.0
H133 H 0.96732 0.94746 0.33995 0.0
H134 H 0.91442 1.00813 0.56193 0.0
N135 N 1.00055 0.99895 0.45905 0.0
C136 C 1.00267 0.96819 0.35577 0.0
C137 C 0.01946 0.9807 0.36924 0.0
C138 C 0.98447 0.97154 0.39263 0.0
C139 C 0.98377 0.98734 0.44413 0.0
C140 C 0.0181 0.99611 0.42056 0.0
N141 N 0.96526 1.00714 0.52655 0.0
C142 C 0.96566 0.99149 0.47914 0.0
C143 C 0.92874 1.00314 0.53869 0.0
C144 C 0.92923 0.9861 0.49413 0.0
C145 C 0.94686 0.01373 0.55337 0.0
C146 C 0.94772 0.9803 0.46263 0.0
H147 H 0.91515 0.97792 0.48267 0.0
O148 O 0.97303 0.04633 0.52159 0.0
O149 O 0.01836 0.03903 0.62647 0.0
O150 O 1.00247 1.00877 0.73019 0.0
O151 O 0.97858 0.01129 0.63984 0.0
O152 O 0.98857 0.04981 0.62594 0.0
O153 O 0.99903 0.04217 0.45225 0.0
O154 O 0.05819 0.99539 0.73007 0.0
O155 O 0.01255 0.99971 0.60573 0.0
O156 O 0.02825 0.03312 0.50507 0.0
O157 O 0.05194 0.01966 0.58323 0.0
O158 O 0.04138 0.987 0.61094 0.0
O159 O 0.02751 0.99415 0.77161 0.0
C160 C 1.00653 0.05259 0.65243 0.0
C161 C 0.94859 0.96414 0.41352 0.0
C162 C 0.96694 0.95975 0.37869 0.0
C163 C 0.98253 0.05277 0.46621 0.0
C164 C 0.98319 0.07516 0.45872 0.0
C165 C 0.96495 0.08631 0.46808 0.0
C166 C 1.00128 0.08553 0.4407 0.0
C167 C 1.00091 0.10675 0.43049 0.0
C168 C 0.96471 0.10744 0.45931 0.0
C169 C 0.98256 0.11762 0.44006 0.0
C170 C 0.9834 1.00766 0.7062 0.0
C171 C 0.02361 0.98521 0.58192 0.0
C172 C 0.0456 0.98575 0.77078 0.0
C173 C 0.04646 0.96318 0.76746 0.0
C174 C 0.06406 0.95315 0.74187 0.0
C175 C 0.02956 0.95147 0.78882 0.0
C176 C 0.03003 0.93005 0.7833 0.0
C177 C 0.06458 0.93186 0.73634 0.0
C178 C 0.04765 0.92035 0.75661 0.0
C179 C 0.04732 0.02845 0.52322 0.0
H180 H 0.95082 0.07863 0.48178 0.0
H181 H 0.01543 0.07716 0.43256 0.0
H182 H 0.95059 0.11589 0.46651 0.0
H183 H 0.98204 0.134 0.43218 0.0
H184 H 0.07742 0.96173 0.7257 0.0
H185 H 0.01594 0.95898 0.80902 0.0
H186 H 0.07817 0.92427 0.71652 0.0
H187 H 0.0485 0.90382 0.7529 0.0
Gd188 Gd 0.51114 0.99816 0.54955 0.0
Gd189 Gd 0.52097 0.03569 0.68885 0.0
C190 C 0.46457 0.04391 0.83234 0.0
C191 C 0.45306 0.078 0.80302 0.0
C192 C 0.48351 0.06355 0.74715 0.0
C193 C 0.48099 0.04573 0.78423 0.0
C194 C 0.46985 0.0801 0.75763 0.0
C195 C 0.45044 0.05993 0.84039 0.0
C196 C 0.46289 0.02612 0.87161 0.0
C197 C 0.47762 0.01091 0.86388 0.0
N198 N 0.49475 0.03034 0.77439 0.0
C199 C 0.49356 0.01335 0.81567 0.0
H200 H 0.50468 1.00137 0.8131 0.0
C201 C 0.50482 0.08388 0.67666 0.0
N202 N 0.49991 0.06516 0.70387 0.0
C203 C 0.49166 0.10058 0.68466 0.0
C204 C 0.47384 0.09857 0.72416 0.0
H205 H 0.51903 0.08607 0.64871 0.0
H206 H 0.43763 0.05864 0.8763 0.0
H207 H 0.52819 0.03297 0.42868 0.0
H208 H 0.45051 0.02414 0.90887 0.0
H209 H 0.47675 0.99723 0.8952 0.0
H210 H 0.44231 0.09044 0.81096 0.0
H211 H 0.51166 0.94766 0.58516 0.0
H212 H 0.58156 0.00951 0.32938 0.0
H213 H 0.55613 0.03705 0.34636 0.0
H214 H 0.58784 0.94209 0.42009 0.0
H215 H 0.49546 0.11509 0.66115 0.0
H216 H 0.46375 0.1116 0.73091 0.0
H217 H 0.59339 0.9743 0.35787 0.0
H218 H 0.53423 0.9179 0.56907 0.0
N219 N 0.53739 1.00346 0.46419 0.0
C220 C 0.56919 1.00758 0.36671 0.0
C221 C 0.55492 0.02314 0.3763 0.0
C222 C 0.56705 0.9895 0.40417 0.0
C223 C 0.55068 0.98777 0.45252 0.0
C224 C 0.53898 0.02075 0.42456 0.0
N225 N 0.53134 0.96828 0.5314 0.0
C226 C 0.54769 0.96974 0.48787 0.0
C227 C 0.53844 0.93246 0.54687 0.0
C228 C 0.55624 0.93423 0.50704 0.0
C229 C 0.52587 0.94953 0.55689 0.0
C230 C 0.56078 0.95284 0.47534 0.0
H231 H 0.56588 0.92093 0.49868 0.0
O232 O 0.49228 0.97346 0.50887 0.0
O233 O 0.49639 0.01972 0.62719 0.0
O234 O 0.52971 1.00408 0.72915 0.0
O235 O 0.51808 0.97993 0.64736 0.0
O236 O 0.48484 0.99022 0.6213 0.0
O237 O 0.49278 1.0024 0.45557 0.0
O238 O 0.53831 0.06112 0.73231 0.0
O239 O 0.53569 0.01407 0.61142 0.0
O240 O 0.50206 0.02982 0.51049 0.0
O241 O 0.5156 0.05364 0.58964 0.0
O242 O 0.54763 0.04335 0.61818 0.0
O243 O 0.54023 0.03152 0.78062 0.0
C244 C 0.48235 1.00805 0.64978 0.0
C245 C 0.57752 0.95481 0.42965 0.0
C246 C 0.58064 0.97311 0.39406 0.0
C247 C 0.48379 0.98469 0.46129 0.0
C248 C 0.46118 0.98417 0.45918 0.0
C249 C 0.45102 0.96546 0.46835 0.0
C250 C 0.44957 1.002 0.44848 0.0
C251 C 0.42802 1.00112 0.44587 0.0
C252 C 0.42971 0.96452 0.46702 0.0
C253 C 0.41826 0.98215 0.45551 0.0
C254 C 0.52606 0.9849 0.70913 0.0
C255 C 0.54997 0.02554 0.58938 0.0
C256 C 0.54811 0.04978 0.77656 0.0
C257 C 0.5707 0.05144 0.7749 0.0
C258 C 0.57992 0.07027 0.75938 0.0
C259 C 0.5832 0.03436 0.78745 0.0
C260 C 0.60468 0.03603 0.78519 0.0
C261 C 0.60118 0.07197 0.75591 0.0
C262 C 0.61352 0.05503 0.76891 0.0
C263 C 0.50665 0.04888 0.52942 0.0
H264 H 0.4596 0.95151 0.47659 0.0
H265 H 0.45727 0.01654 0.44232 0.0
H266 H 0.42203 0.95002 0.474 0.0
H267 H 0.40176 0.98076 0.45234 0.0
H268 H 0.57068 0.0837 0.74961 0.0
H269 H 0.57623 0.01972 0.79869 0.0
H270 H 0.60814 0.08654 0.74388 0.0
H271 H 0.62998 0.057 0.768 0.0
Gd272 Gd 0.4969 0.52571 0.66784 0.0
Gd273 Gd 0.53874 0.50816 0.55393 0.0
C274 C 0.60132 0.50026 0.65947 0.0
C275 C 0.622 0.52554 0.59981 0.0
C276 C 0.58607 0.52099 0.56873 0.0
C277 C 0.58418 0.50586 0.61858 0.0
C278 C 0.6052 0.53051 0.55735 0.0
C279 C 0.62004 0.51047 0.65086 0.0
C280 C 0.59925 0.48439 0.70735 0.0
C281 C 0.58062 0.47416 0.71249 0.0
N282 N 0.5658 0.49634 0.62622 0.0
C283 C 0.56406 0.48021 0.67113 0.0
H284 H 0.54991 0.4721 0.67771 0.0
C285 C 0.57186 0.53777 0.47101 0.0
N286 N 0.56957 0.5256 0.52866 0.0
C287 C 0.59046 0.54757 0.45774 0.0
C288 C 0.60711 0.54424 0.50197 0.0
H289 H 0.55899 0.54051 0.43657 0.0
H290 H 0.63324 0.50652 0.68242 0.0
H291 H 0.48633 0.55778 0.52991 0.0
H292 H 0.612 0.47973 0.73983 0.0
H293 H 0.57891 0.46169 0.74887 0.0
H294 H 0.6367 0.53289 0.59239 0.0
H295 H 0.47693 0.49538 0.7897 0.0
H296 H 0.42222 0.5575 0.49359 0.0
H297 H 0.45682 0.57041 0.46681 0.0
H298 H 0.3962 0.51056 0.66186 0.0
H299 H 0.59192 0.55769 0.41349 0.0
H300 H 0.62154 0.55182 0.49153 0.0
H301 H 0.39983 0.53507 0.56587 0.0
H302 H 0.44345 0.48137 0.82464 0.0
N303 N 0.46936 0.53783 0.59694 0.0
C304 C 0.43525 0.55194 0.52294 0.0
C305 C 0.45472 0.55934 0.50799 0.0
C306 C 0.43282 0.53753 0.57574 0.0
C307 C 0.45034 0.53069 0.6123 0.0
C308 C 0.47158 0.55224 0.54566 0.0
N309 N 0.46533 0.51079 0.70034 0.0
C310 C 0.4483 0.51668 0.66537 0.0
C311 C 0.44458 0.49106 0.77915 0.0
C312 C 0.42707 0.49623 0.74157 0.0
C313 C 0.46357 0.49881 0.75854 0.0
C314 C 0.42871 0.50942 0.6846 0.0
H315 H 0.41231 0.49041 0.75809 0.0
O316 O 0.49189 0.53122 0.77954 0.0
O317 O 0.53091 0.5227 0.65655 0.0
O318 O 0.52346 0.48023 0.60335 0.0
O319 O 0.49536 0.49104 0.6707 0.0
O320 O 0.51832 0.51308 0.74995 0.0
O321 O 0.49434 0.55702 0.70706 0.0
O322 O 0.54537 0.50355 0.44349 0.0
O323 O 0.50471 0.5105 0.56581 0.0
O324 O 0.51083 0.55337 0.61368 0.0
O325 O 0.54103 0.54293 0.55845 0.0
O326 O 0.51679 0.51907 0.47047 0.0
O327 O 0.54721 0.47797 0.5148 0.0
C328 C 0.53526 0.51622 0.71711 0.0
C329 C 0.41133 0.51598 0.64787 0.0
C330 C 0.4134 0.52997 0.5934 0.0
C331 C 0.4919 0.55089 0.77146 0.0
C332 C 0.48902 0.56516 0.83038 0.0
C333 C 0.47511 0.56068 0.88416 0.0
C334 C 0.50148 0.58252 0.83587 0.0
C335 C 0.50029 0.59544 0.89526 0.0
C336 C 0.47352 0.57364 0.94269 0.0
C337 C 0.48602 0.59092 0.94841 0.0
C338 C 0.50763 0.47653 0.64543 0.0
C339 C 0.5 0.5162 0.50461 0.0
C340 C 0.54837 0.484 0.44975 0.0
C341 C 0.53914 0.47104 0.39468 0.0
C342 C 0.54636 0.47301 0.3256 0.0
C343 C 0.52343 0.45698 0.40906 0.0
C344 C 0.51509 0.44505 0.35435 0.0
C345 C 0.53797 0.46121 0.27128 0.0
C346 C 0.52237 0.4473 0.28547 0.0
C347 C 0.52783 0.55732 0.57811 0.0
H348 H 0.46557 0.54713 0.88096 0.0
H349 H 0.51274 0.58542 0.79526 0.0
H350 H 0.46269 0.57022 0.984 0.0
H351 H 0.48444 0.60077 0.99427 0.0
H352 H 0.5585 0.48373 0.31369 0.0
H353 H 0.51766 0.45535 0.46205 0.0
H354 H 0.54364 0.46279 0.21817 0.0
H355 H 0.51616 0.43806 0.24288 0.0
Gd356 Gd 1.00687 0.50068 0.68152 0.0
Gd357 Gd 0.02608 0.5385 0.56467 0.0
C358 C 0.03278 0.599 0.68801 0.0
C359 C 1.0048 0.61927 0.64235 0.0
C360 C 0.01075 0.58468 0.59769 0.0
C361 C 0.02697 0.58255 0.64336 0.0
C362 C 0.99988 0.60335 0.59517 0.0
C363 C 0.02128 0.61712 0.68859 0.0
C364 C 0.05017 0.59686 0.73004 0.0
C365 C 0.06158 0.5789 0.72556 0.0
N366 N 0.03751 0.56465 0.64267 0.0
C367 C 0.05518 0.56305 0.68073 0.0
H368 H 0.06483 0.54988 0.67586 0.0
C369 C 0.99369 0.57249 0.49657 0.0
N370 N 1.00661 0.5691 0.55212 0.0
C371 C 0.98225 0.59049 0.49263 0.0
C372 C 0.98501 0.60583 0.5432 0.0
H373 H 0.99208 0.56121 0.45491 0.0
H374 H 0.02528 0.62973 0.72348 0.0
H375 H 0.95997 0.48647 0.60545 0.0
H376 H 0.05514 0.60911 0.76493 0.0
H377 H 0.07545 0.57729 0.75618 0.0
H378 H 0.99642 0.63357 0.64183 0.0
H379 H 0.04658 0.47787 0.76468 0.0
H380 H 0.96848 0.4301 0.49746 0.0
H381 H 0.94716 0.46008 0.52719 0.0
H382 H 0.03336 0.40684 0.57821 0.0
H383 H 0.97158 0.59265 0.44987 0.0
H384 H 0.97634 0.6199 0.53954 0.0
H385 H 1.00048 0.41037 0.5172 0.0
H386 H 0.06779 0.44731 0.75215 0.0
N387 N 0.99056 0.47436 0.61253 0.0
C388 C 0.97473 0.44225 0.53026 0.0
C389 C 0.96273 0.4592 0.54646 0.0
C390 C 0.99418 0.44062 0.55987 0.0
C391 C 1.00176 0.457 0.60181 0.0
C392 C 0.9706 0.47477 0.58955 0.0
N393 N 0.02714 0.47063 0.6774 0.0
C394 C 0.02052 0.45512 0.6351 0.0
C395 C 0.05486 0.44948 0.71746 0.0
C396 C 0.04954 0.43435 0.66878 0.0
C397 C 0.04305 0.46723 0.72274 0.0
C398 C 0.03181 0.4367 0.62863 0.0
H399 H 0.05857 0.42048 0.66533 0.0
O400 O 0.01203 0.49895 0.79437 0.0
O401 O 0.01698 0.53369 0.67685 0.0
O402 O 0.0531 0.52006 0.60532 0.0
O403 O 0.0399 0.50883 0.71044 0.0
O404 O 0.98829 0.52786 0.71902 0.0
O405 O 0.98687 0.48248 0.74644 0.0
O406 O 0.03219 0.55219 0.46354 0.0
O407 O 0.02302 0.5045 0.57852 0.0
O408 O 0.97876 0.51434 0.62958 0.0
O409 O 0.99196 0.53467 0.54094 0.0
O410 O 0.01425 0.51618 0.48245 0.0
O411 O 0.05733 0.54222 0.52734 0.0
C412 C 1.00157 0.54201 0.70703 0.0
C413 C 0.02471 0.42089 0.58455 0.0
C414 C 1.00597 0.42288 0.55002 0.0
C415 C 0.99571 0.488 0.80488 0.0
C416 C 0.98203 0.49482 0.86181 0.0
C417 C 0.98616 0.48885 0.93085 0.0
C418 C 0.96463 0.50676 0.84792 0.0
C419 C 0.95149 0.51264 0.90276 0.0
C420 C 0.97299 0.49463 0.98547 0.0
C421 C 0.95567 0.50645 0.97156 0.0
C422 C 0.05569 0.5122 0.66838 0.0
C423 C 0.0166 0.49955 0.51739 0.0
C424 C 0.05174 0.54884 0.46622 0.0
C425 C 0.06092 0.53903 0.40342 0.0
C426 C 0.05416 0.54471 0.33633 0.0
C427 C 0.07633 0.52411 0.40931 0.0
C428 C 0.08447 0.51462 0.3489 0.0
C429 C 0.06225 0.5353 0.27627 0.0
C430 C 0.07724 0.52024 0.28239 0.0
C431 C 0.9764 0.52594 0.57365 0.0
H432 H 0.99947 0.47959 0.94237 0.0
H433 H 0.96103 0.51117 0.79469 0.0
H434 H 0.97618 0.4899 0.03864 0.0
H435 H 0.94557 0.5108 0.01438 0.0
H436 H 0.04253 0.55638 0.33036 0.0
H437 H 0.08191 0.51969 0.46054 0.0
H438 H 0.05693 0.53975 0.22482 0.0
H439 H 0.08352 0.51328 0.23511 0.0
C440 C 0.19007 0.05415 0.08911 0.0
C441 C 0.20597 0.0401 0.10226 0.0
C442 C 0.17239 0.05489 0.13222 0.0
C443 C 0.14245 0.02147 0.25302 0.0
H444 H 0.11555 0.07111 0.31722 0.0
C445 C 0.082 0.01905 0.47423 0.0
C446 C 0.06452 0.03162 0.47167 0.0
C447 C 0.09821 0.02135 0.42654 0.0
C448 C 0.12269 0.05706 0.29914 0.0
H449 H 0.21529 0.01567 0.17086 0.0
H450 H 0.18502 0.01702 0.24536 0.0
H451 H 0.14566 0.07319 0.24 0.0
H452 H 0.05061 0.05659 0.41529 0.0
H453 H 0.07907 0.06071 0.33165 0.0
H454 H 0.11973 1.00527 0.31131 0.0
C455 C 0.18604 0.02757 0.2021 0.0
C456 C 0.14004 0.05826 0.25474 0.0
C457 C 0.20363 0.02696 0.15969 0.0
C458 C 0.0638 0.04664 0.41919 0.0
C459 C 0.08023 0.04907 0.37141 0.0
C460 C 0.12522 0.02027 0.29696 0.0
C461 C 0.1699 0.04126 0.18863 0.0
C462 C 0.15047 0.04045 0.23206 0.0
C463 C 0.09768 0.0363 0.37392 0.0
C464 C 0.11521 0.03801 0.32213 0.0
H465 H 0.19106 0.06419 0.04443 0.0
H466 H 0.16032 0.06559 0.11963 0.0
H467 H 0.14954 1.00734 0.23535 0.0
H468 H 0.08307 1.00701 0.51249 0.0
H469 H 0.11133 0.01134 0.4314 0.0
C470 C 0.49064 0.19835 0.1355 0.0
C471 C 0.47642 0.19602 0.08036 0.0
C472 C 0.4935 0.18273 0.18481 0.0
C473 C 0.46907 0.13501 0.25501 0.0
H474 H 0.52362 0.12436 0.32567 0.0
C475 C 0.48828 0.06328 0.4235 0.0
C476 C 0.50235 0.06579 0.47903 0.0
C477 C 0.48467 0.07915 0.37573 0.0
C478 C 0.5082 0.12722 0.3073 0.0
H479 H 0.45422 0.17532 0.03415 0.0
H480 H 0.45928 0.14811 0.11898 0.0
H481 H 0.51827 0.1519 0.24279 0.0
H482 H 0.52401 0.08707 0.52592 0.0
H483 H 0.51749 0.11462 0.44439 0.0
H484 H 0.45905 0.11019 0.31933 0.0
C485 C 0.46803 0.16208 0.12528 0.0
C486 C 0.50511 0.14314 0.25953 0.0
C487 C 0.4652 0.17767 0.07616 0.0
C488 C 0.51275 0.0846 0.48499 0.0
C489 C 0.50923 0.10039 0.43725 0.0
C490 C 0.47217 0.11905 0.30273 0.0
C491 C 0.48226 0.16428 0.18049 0.0
C492 C 0.48549 0.14735 0.23249 0.0
C493 C 0.49519 0.09796 0.38159 0.0
C494 C 0.49179 0.1149 0.32984 0.0
H495 H 0.4996 0.21222 0.14077 0.0
H496 H 0.50441 0.18523 0.22684 0.0
H497 H 0.45365 0.13785 0.23659 0.0
H498 H 0.48 0.04903 0.41687 0.0
H499 H 0.47389 0.07651 0.33336 0.0
C500 C 0.35936 0.47257 0.09189 0.0
C501 C 0.34004 0.48147 0.10382 0.0
C502 C 0.37568 0.47568 0.13888 0.0
C503 C 0.38898 0.49382 0.32207 0.0
H504 H 0.44328 0.49834 0.24153 0.0
C505 C 0.46483 0.4993 0.49134 0.0
C506 C 0.48016 0.51255 0.46653 0.0
C507 C 0.44698 0.49539 0.45124 0.0
C508 C 0.42826 0.49728 0.26532 0.0
H509 H 0.32269 0.50022 0.17734 0.0
H510 H 0.35128 0.50614 0.25871 0.0
H511 H 0.41409 0.49244 0.16521 0.0
H512 H 0.48866 0.53188 0.37982 0.0
H513 H 0.45801 0.52519 0.3107 0.0
H514 H 0.40342 0.49918 0.42243 0.0
C515 C 0.35383 0.49655 0.21275 0.0
C516 C 0.41138 0.49358 0.22123 0.0
C517 C 0.33739 0.49333 0.16555 0.0
C518 C 0.4772 0.52163 0.40074 0.0
C519 C 0.45958 0.51767 0.36075 0.0
C520 C 0.40597 0.49751 0.36643 0.0
C521 C 0.37335 0.48791 0.19995 0.0
C522 C 0.39137 0.49182 0.2485 0.0
C523 C 0.44422 0.50431 0.38463 0.0
C524 C 0.42591 0.49949 0.33866 0.0
H525 H 0.36186 0.46302 0.04572 0.0
H526 H 0.39013 0.46824 0.12737 0.0
H527 H 0.37397 0.49235 0.34569 0.0
H528 H 0.46675 0.49174 0.5412 0.0
H529 H 0.43564 0.48493 0.47156 0.0
C530 C 0.02713 0.33633 0.16276 0.0
C531 C 0.04473 0.33483 0.12014 0.0
C532 C 0.02441 0.35297 0.21024 0.0
C533 C 0.05253 0.39851 0.29335 0.0
H534 H 0.99755 0.41699 0.33576 0.0
C535 C 0.03754 0.46761 0.48799 0.0
C536 C 0.01989 0.47963 0.47861 0.0
C537 C 0.04076 0.44958 0.44757 0.0
C538 C 0.01311 0.41236 0.32416 0.0
H539 H 0.07279 0.35046 0.09283 0.0
H540 H 0.06805 0.37923 0.17325 0.0
H541 H 1.00258 0.38722 0.26038 0.0
H542 H 0.99264 0.4828 0.41532 0.0
H543 H 0.9982 0.45195 0.3447 0.0
H544 H 0.06307 0.42423 0.35447 0.0
C545 C 0.05656 0.36731 0.17287 0.0
C546 C 0.01602 0.3948 0.28134 0.0
C547 C 0.05931 0.35067 0.12607 0.0
C548 C 1.00608 0.47359 0.42555 0.0
C549 C 1.00928 0.45567 0.38512 0.0
C550 C 0.04962 0.4162 0.33558 0.0
C551 C 0.039 0.36897 0.21597 0.0
C552 C 0.03581 0.3875 0.26449 0.0
C553 C 0.0266 0.4431 0.39545 0.0
C554 C 0.02983 0.42365 0.35164 0.0
H555 H 0.0153 0.32477 0.15878 0.0
H556 H 0.01073 0.35323 0.24236 0.0
H557 H 0.06808 0.39351 0.28363 0.0
H558 H 0.04887 0.47213 0.52675 0.0
H559 H 0.05428 0.44058 0.45833 0.0
C560 C 0.8256 0.98945 0.06827 0.0
C561 C 0.82804 0.99471 0.13968 0.0
C562 C 0.84263 0.98797 0.02301 0.0
C563 C 0.90036 0.98512 0.01719 0.0
H564 H 0.89297 1.00853 0.83303 0.0
C565 C 0.96945 1.00347 0.8304 0.0
C566 C 0.96642 1.00257 0.75701 0.0
C567 C 0.95305 1.00057 0.87757 0.0
C568 C 0.8954 1.00159 0.88367 0.0
H569 H 0.85058 1.00125 0.22016 0.0
H570 H 0.88026 0.99864 0.14177 0.0
H571 H 0.86404 1.00636 0.91283 0.0
H572 H 0.94373 0.99561 0.67749 0.0
H573 H 0.91545 0.99063 0.75823 0.0
H574 H 0.93183 0.98047 0.98788 0.0
C575 C 0.86519 0.99569 0.12023 0.0
C576 C 0.87863 1.00034 0.92988 0.0
C577 C 0.84812 0.99721 0.16544 0.0
C578 C 0.94667 0.99746 0.73289 0.0
C579 C 0.93031 0.9945 0.77982 0.0
C580 C 0.91717 0.98631 0.97075 0.0
C581 C 0.86272 0.9916 0.04771 0.0
C582 C 0.88075 0.99214 0.99763 0.0
C583 C 0.93304 0.99644 0.85312 0.0
C584 C 0.91503 0.99464 0.90305 0.0
H585 H 0.81038 0.98728 0.04676 0.0
H586 H 0.83997 0.98429 0.96816 0.0
H587 H 0.90273 0.97847 0.06834 0.0
H588 H 0.98444 1.00687 0.85184 0.0
H589 H 0.95603 1.00218 0.9333 0.0
C590 C 0.53749 0.83296 0.08537 0.0
C591 C 0.5454 0.83544 0.15367 0.0
C592 C 0.53816 0.84901 0.03705 0.0
C593 C 0.54351 0.9061 0.02861 0.0
H594 H 0.54605 0.89516 0.82822 0.0
C595 C 0.54275 0.97142 0.82005 0.0
C596 C 0.53065 0.96802 0.75966 0.0
C597 C 0.54651 0.95559 0.86795 0.0
C598 C 0.54516 0.89855 0.88399 0.0
H599 H 0.56088 0.85662 0.22373 0.0
H600 H 0.56267 0.88451 0.13904 0.0
H601 H 0.54983 0.86714 0.91017 0.0
H602 H 0.51245 0.94511 0.70505 0.0
H603 H 0.51928 0.91772 0.78659 0.0
H604 H 0.53889 0.9376 1.00192 0.0
C605 C 0.55548 0.87029 0.12297 0.0
C606 C 0.5473 0.88237 0.93134 0.0
C607 C 0.55471 0.8542 0.17147 0.0
C608 C 0.52239 0.94832 0.74913 0.0
C609 C 0.52626 0.93251 0.7965 0.0
C610 C 0.54151 0.92233 0.98114 0.0
C611 C 0.54687 0.86812 0.05519 0.0
C612 C 0.54617 0.88576 1.0046 0.0
C613 C 0.53836 0.93583 0.85681 0.0
C614 C 0.54197 0.91878 0.90797 0.0
H615 H 0.53007 0.81878 0.06998 0.0
H616 H 0.53109 0.8466 0.9862 0.0
H617 H 0.54227 0.90951 0.08425 0.0
H618 H 0.54937 0.98635 0.83042 0.0
H619 H 0.556 0.9588 0.91342 0.0
C620 C 0.68231 0.52743 0.12324 0.0
C621 C 0.70007 0.53782 0.10169 0.0
C622 C 0.66439 0.52761 0.08234 0.0
C623 C 0.64611 0.53696 0.89803 0.0
H624 H 0.59268 0.53109 0.98424 0.0
C625 C 0.56899 0.53506 0.7372 0.0
C626 C 0.5547 0.52005 0.75705 0.0
C627 C 0.58674 0.53876 0.77774 0.0
C628 C 0.60748 0.53257 0.95904 0.0
H629 H 0.71251 0.55721 0.02103 0.0
H630 H 0.68112 0.55808 0.95037 0.0
H631 H 0.6228 0.53568 0.05804 0.0
H632 H 0.5475 0.49794 0.83696 0.0
H633 H 0.57807 0.50444 0.90753 0.0
H634 H 0.6305 0.534 0.79881 0.0
C635 C 0.6811 0.54935 0.99829 0.0
C636 C 0.6249 0.53517 1.00163 0.0
C637 C 0.69909 0.54911 0.03931 0.0
C638 C 0.55829 0.50942 0.81961 0.0
C639 C 0.57582 0.51324 0.86036 0.0
C640 C 0.6286 0.53453 0.85533 0.0
C641 C 0.6635 0.53826 0.01834 0.0
C642 C 0.64463 0.53707 0.97213 0.0
C643 C 0.59038 0.52796 0.84029 0.0
C644 C 0.60903 0.53195 0.88519 0.0
H645 H 0.68252 0.51844 0.17064 0.0
H646 H 0.65147 0.51863 0.09985 0.0
H647 H 0.66089 0.53811 0.87266 0.0
H648 H 0.56643 0.54395 0.69041 0.0
H649 H 0.59744 0.55035 0.76076 0.0
C650 C 0.99056 0.70236 0.07613 0.0
C651 C 0.98724 0.69852 0.14795 0.0
C652 C 0.99329 0.68611 0.0271 0.0
C653 C 1.00355 0.6289 0.01552 0.0
H654 H 0.98412 0.63445 0.82452 0.0
C655 C 0.01675 0.56428 0.80391 0.0
C656 C 1.00161 0.56095 0.75246 0.0
C657 C 0.0157 0.58125 0.85042 0.0
C658 C 0.98952 0.63245 0.87776 0.0
H659 H 0.98315 0.67424 0.22285 0.0
H660 H 0.98764 0.64626 0.1388 0.0
H661 H 0.9809 0.66309 0.90715 0.0
H662 H 0.9728 0.57223 0.71282 0.0
H663 H 0.97093 0.6018 0.79284 0.0
H664 H 0.01159 0.59809 0.98686 0.0
C665 C 0.98899 0.66174 0.11988 0.0
C666 C 0.98793 0.64914 0.92536 0.0
C667 C 0.98637 0.67792 0.16861 0.0
C668 C 0.98505 0.57469 0.7504 0.0
C669 C 0.98404 0.59174 0.79644 0.0
C670 C 1.00511 0.61223 0.96802 0.0
C671 C 0.99247 0.6654 0.04791 0.0
C672 C 0.9948 0.64771 0.99552 0.0
C673 C 0.99935 0.59541 0.84754 0.0
C674 C 0.99805 0.61358 0.89816 0.0
H675 H 0.99078 0.71794 0.05762 0.0
H676 H 0.99604 0.68986 0.9727 0.0
H677 H 1.00939 0.62696 0.06821 0.0
H678 H 0.02936 0.55363 0.80863 0.0
H679 H 0.02792 0.58335 0.8882 0.0
C680 C 0.07214 0.24353 0.22635 0.0
C681 C 0.08127 0.24359 0.15955 0.0
C682 C 0.0764 0.22783 0.27304 0.0
C683 C 0.08453 0.17426 0.24352 0.0
H684 H 0.06849 0.17262 0.4395 0.0
C685 C 0.01839 0.12752 0.34063 0.0
C686 C 0.01921 0.11757 0.40526 0.0
C687 C 0.03487 0.13924 0.31815 0.0
C688 C 0.0735 0.17261 0.38522 0.0
H689 H 0.10489 0.22971 0.09464 0.0
H690 H 0.11235 0.20222 0.17636 0.0
H691 H 0.08533 0.20311 0.39405 0.0
H692 H 0.0378 0.11146 0.49677 0.0
H693 H 0.06675 0.13276 0.4581 0.0
H694 H 0.07132 0.14443 0.23354 0.0
C695 C 0.10148 0.21395 0.19191 0.0
C696 C 0.08303 0.19011 0.35908 0.0
C697 C 0.09723 0.2297 0.14517 0.0
C698 C 0.03698 0.11903 0.44654 0.0
C699 C 0.05344 0.13115 0.42456 0.0
C700 C 0.075 0.15686 0.26959 0.0
C701 C 0.08985 0.21192 0.25365 0.0
C702 C 0.0874 0.19162 0.28693 0.0
C703 C 0.05241 0.14148 0.36035 0.0
C704 C 0.06825 0.15641 0.33954 0.0
H705 H 0.05984 0.25404 0.2393 0.0
H706 H 0.06717 0.22688 0.3202 0.0
H707 H 0.08757 0.1748 0.18764 0.0
H708 H 1.00479 0.12654 0.30813 0.0
H709 H 0.03349 0.14733 0.26905 0.0
C710 C 0.30834 0.09795 0.12538 0.0
C711 C 0.29233 0.08378 0.13389 0.0
C712 C 0.32353 0.09994 0.1766 0.0
C713 C 0.35906 0.07699 0.23982 0.0
H714 H 0.35713 0.07209 0.44235 0.0
C715 C 0.4226 0.03368 0.37929 0.0
C716 C 0.41569 0.01959 0.42925 0.0
C717 C 0.40982 0.04939 0.35657 0.0
C718 C 0.35796 0.07336 0.38577 0.0
H719 H 0.27778 0.06327 0.20727 0.0
H720 H 0.30403 0.06706 0.29709 0.0
H721 H 0.32833 0.08752 0.38042 0.0
H722 H 0.39054 0.01223 0.49912 0.0
H723 H 0.36786 0.03857 0.45645 0.0
H724 H 0.38747 0.06114 0.24313 0.0
C725 C 0.30506 0.0764 0.25062 0.0
C726 C 0.34154 0.08241 0.35057 0.0
C727 C 0.28996 0.07424 0.19907 0.0
C728 C 0.39618 0.02243 0.45911 0.0
C729 C 0.38327 0.03789 0.43549 0.0
C730 C 0.37523 0.06763 0.27466 0.0
C731 C 0.32271 0.08805 0.23742 0.0
C732 C 0.34167 0.08368 0.27704 0.0
C733 C 0.38966 0.0512 0.38224 0.0
C734 C 0.37457 0.06496 0.34788 0.0
H735 H 0.31025 0.10586 0.07614 0.0
H736 H 0.33684 0.10927 0.16572 0.0
H737 H 0.35944 0.07741 0.18293 0.0
H738 H 0.43752 0.03202 0.35496 0.0
H739 H 0.4155 0.05963 0.31677 0.0
C740 C 0.43346 0.30262 0.13669 0.0
C741 C 0.45018 0.28922 0.14215 0.0
C742 C 0.4304 0.31798 0.18731 0.0
C743 C 0.45305 0.34147 0.35137 0.0
H744 H 0.45117 0.39032 0.23858 0.0
C745 C 0.50525 0.41042 0.39404 0.0
C746 C 0.4994 0.42947 0.36799 0.0
C747 C 0.49173 0.39387 0.39038 0.0
C748 C 0.45119 0.37705 0.27201 0.0
H749 H 0.47524 0.27973 0.20872 0.0
H750 H 0.47031 0.30663 0.29578 0.0
H751 H 0.43921 0.35842 0.18939 0.0
H752 H 0.47461 0.44701 0.32368 0.0
H753 H 0.45059 0.4183 0.31934 0.0
H754 H 0.46648 0.3602 0.43236 0.0
C755 C 0.45931 0.30532 0.2534 0.0
C756 C 0.44424 0.35858 0.2436 0.0
C757 C 0.4622 0.28983 0.20325 0.0
C758 C 0.47934 0.43234 0.34393 0.0
C759 C 0.46571 0.41588 0.3411 0.0
C760 C 0.46008 0.36003 0.37988 0.0
C761 C 0.44424 0.3204 0.24352 0.0
C762 C 0.44599 0.34036 0.28157 0.0
C763 C 0.4721 0.39621 0.36082 0.0
C764 C 0.46009 0.37784 0.33922 0.0
H765 H 0.42379 0.30225 0.09044 0.0
H766 H 0.41826 0.32898 0.1792 0.0
H767 H 0.45426 0.32779 0.38256 0.0
H768 H 0.52078 0.40795 0.4122 0.0
H769 H 0.49729 0.37896 0.40536 0.0
C770 C 0.24486 0.46404 0.22349 0.0
C771 C 0.24667 0.45224 0.16169 0.0
C772 C 0.22859 0.46069 0.26955 0.0
C773 C 0.17615 0.44661 0.23891 0.0
H774 H 0.16901 0.46621 0.43037 0.0
C775 C 0.09954 0.48048 0.31989 0.0
C776 C 0.10112 0.49948 0.35446 0.0
C777 C 0.11635 0.46732 0.31666 0.0
C778 C 0.17072 0.46064 0.37687 0.0
H779 H 0.23529 0.42559 0.10548 0.0
H780 H 0.2071 0.41939 0.18684 0.0
H781 H 0.20266 0.45419 0.39125 0.0
H782 H 0.12091 0.51924 0.41627 0.0
H783 H 0.15061 0.49677 0.40816 0.0
H784 H 0.14494 0.45444 0.22211 0.0
C785 C 0.2178 0.43162 0.19874 0.0
C786 C 0.18996 0.45364 0.35466 0.0
C787 C 0.23398 0.43507 0.15238 0.0
C788 C 0.11936 0.50462 0.38936 0.0
C789 C 0.13632 0.49163 0.3851 0.0
C790 C 0.15705 0.45369 0.26084 0.0
C791 C 0.21398 0.44543 0.25447 0.0
C792 C 0.19306 0.44733 0.28456 0.0
C793 C 0.13523 0.47312 0.3466 0.0
C794 C 0.15426 0.46158 0.32924 0.0
H795 H 0.25446 0.47737 0.23191 0.0
H796 H 0.22618 0.4716 0.31204 0.0
H797 H 0.17796 0.44226 0.18416 0.0
H798 H 0.08546 0.47609 0.29359 0.0
H799 H 0.11479 0.45298 0.28809 0.0
C800 C 0.96356 0.78786 0.02244 0.0
C801 C 0.9531 0.78911 0.08694 0.0
C802 C 0.96103 0.80317 0.97282 0.0
C803 C 0.94799 0.84534 0.89024 0.0
H804 H 0.9874 0.87759 0.99684 0.0
C805 C 1.00546 0.90099 0.7679 0.0
C806 C 0.01252 0.91772 0.80798 0.0
C807 C 0.99081 0.88774 0.79527 0.0
C808 C 0.97593 0.86924 0.96703 0.0
H809 H 0.92881 0.80472 0.14385 0.0
H810 H 0.92518 0.83201 0.05838 0.0
H811 H 0.97213 0.84755 0.04898 0.0
H812 H 1.00887 0.93459 0.906 0.0
H813 H 0.98308 0.9116 0.9536 0.0
H814 H 0.95231 0.86681 0.80721 0.0
C815 C 0.9352 0.81924 0.04622 0.0
C816 C 0.96728 0.85199 0.99687 0.0
C817 C 0.93745 0.80373 0.0953 0.0
C818 C 1.00369 0.92178 0.87399 0.0
C819 C 0.98904 0.90855 0.90137 0.0
C820 C 0.9565 0.86288 0.86039 0.0
C821 C 0.94811 0.81981 0.98749 0.0
C822 C 0.95365 0.8397 0.95821 0.0
C823 C 0.98298 0.89098 0.86332 0.0
C824 C 0.97101 0.87467 0.8979 0.0
H825 H 0.97566 0.77676 0.01409 0.0
H826 H 0.97123 0.80347 0.92788 0.0
H827 H 0.93758 0.83588 0.8597 0.0
H828 H 0.01179 0.89776 0.7163 0.0
H829 H 0.98659 0.87431 0.76473 0.0
C830 C 0.7458 0.96357 0.03213 0.0
C831 C 0.74296 0.95303 0.09528 0.0
C832 C 0.7311 0.96213 0.97898 0.0
C833 C 0.69355 0.9564 0.87815 0.0
H834 H 0.65074 0.9814 0.9915 0.0
C835 C 0.63679 0.01523 0.7696 0.0
C836 C 0.61791 0.01839 0.8036 0.0
C837 C 0.65045 1.00044 0.79354 0.0
C838 C 0.66205 0.97388 0.95854 0.0
H839 H 0.72488 0.92987 0.14711 0.0
H840 H 0.69892 0.92783 0.05501 0.0
H841 H 0.67903 0.96454 0.04831 0.0
H842 H 0.59801 1.00738 0.88642 0.0
H843 H 0.62122 0.98093 0.92533 0.0
H844 H 0.67666 0.96609 0.7881 0.0
C845 C 0.71234 0.93726 0.04679 0.0
C846 C 0.67836 0.96422 0.99139 0.0
C847 C 0.72713 0.93851 0.09952 0.0
C848 C 0.61238 1.00539 0.85872 0.0
C849 C 0.62588 0.99037 0.88181 0.0
C850 C 0.6769 0.96571 0.84493 0.0
C851 C 0.71346 0.95023 0.98878 0.0
C852 C 0.69451 0.95592 0.95169 0.0
C853 C 0.64543 0.98824 0.85141 0.0
C854 C 0.66128 0.97518 0.88487 0.0
H855 H 0.75789 0.97481 0.0272 0.0
H856 H 0.73226 0.97229 0.93462 0.0
H857 H 0.70596 0.95021 0.84665 0.0
H858 H 0.64131 0.02462 0.72578 0.0
H859 H 0.66536 0.9994 0.7688 0.0
C860 C 0.59717 0.73798 0.07841 0.0
C861 C 0.58338 0.75439 0.0857 0.0
C862 C 0.59426 0.72335 0.02522 0.0
C863 C 0.54881 0.70121 0.98823 0.0
H864 H 0.574 0.66301 0.8568 0.0
C865 C 0.52256 0.61864 0.96793 0.0
C866 C 0.51416 0.61332 0.90223 0.0
C867 C 0.53464 0.6361 0.97548 0.0
C868 C 0.56688 0.67368 0.89327 0.0
H869 H 0.55879 0.77084 0.03474 0.0
H870 H 0.5538 0.74537 0.9424 0.0
H871 H 0.59081 0.69617 0.88265 0.0
H872 H 0.51262 0.62175 0.79229 0.0
H873 H 0.5341 0.6522 0.80583 0.0
H874 H 0.52559 0.67865 1.00242 0.0
C875 C 0.56664 0.74364 0.9779 0.0
C876 C 0.57637 0.69253 0.90762 0.0
C877 C 0.56951 0.75823 0.03104 0.0
C878 C 0.51896 0.62534 0.84355 0.0
C879 C 0.53126 0.64271 0.85105 0.0
C880 C 0.53967 0.68239 0.97522 0.0
C881 C 0.57763 0.72521 0.97916 0.0
C882 C 0.56729 0.70639 0.95513 0.0
C883 C 0.53876 0.64843 0.91737 0.0
C884 C 0.54867 0.66843 0.9282 0.0
H885 H 0.60832 0.73496 0.11913 0.0
H886 H 0.60299 0.70928 0.02685 0.0
H887 H 0.54181 0.71148 0.02643 0.0
H888 H 0.51964 0.60944 0.01377 0.0
H889 H 0.54039 0.64027 0.02711 0.0
C890 C 0.80148 0.59596 0.06025 0.0
C891 C 0.78809 0.57918 0.05966 0.0
C892 C 0.81729 0.59709 0.01086 0.0
C893 C 0.84271 0.56618 0.86535 0.0
H894 H 0.89099 0.5784 0.97666 0.0
C895 C 0.91384 0.51583 0.88751 0.0
C896 C 0.93321 0.52504 0.8885 0.0
C897 C 0.89625 0.52781 0.88154 0.0
C898 C 0.87774 0.57532 0.94396 0.0
H899 H 0.77906 0.55177 1.00299 0.0
H900 H 0.80685 0.55303 0.91946 0.0
H901 H 0.85819 0.59187 0.01341 0.0
H902 H 0.94982 0.55358 0.88134 0.0
H903 H 0.9188 0.5748 0.87362 0.0
H904 H 0.86244 0.54764 0.80058 0.0
C905 C 0.80525 0.56572 0.95606 0.0
C906 C 0.85878 0.58316 0.96472 0.0
C907 C 0.78918 0.56491 1.00427 0.0
C908 C 0.93491 0.54628 0.88074 0.0
C909 C 0.91728 0.55833 0.8761 0.0
C910 C 0.86165 0.55791 0.84563 0.0
C911 C 0.82037 0.58106 0.96172 0.0
C912 C 0.84079 0.57787 0.92777 0.0
C913 C 0.89779 0.5492 0.87773 0.0
C914 C 0.87913 0.56176 0.88656 0.0
H915 H 0.80077 0.60725 0.10235 0.0
H916 H 0.82808 0.60962 0.01517 0.0
H917 H 0.82939 0.56229 0.83407 0.0
H918 H 0.91232 0.49945 0.89358 0.0
H919 H 0.8814 0.52045 0.88412 0.0
C920 C 0.05919 0.224 0.89423 0.0
C921 C 0.04427 0.2335 0.93736 0.0
C922 C 0.05507 0.2056 0.85741 0.0
C923 C 0.02033 0.16 0.86575 0.0
H924 H 0.04462 0.14512 0.68642 0.0
C925 C 0.99777 0.08417 0.72292 0.0
C926 C 0.01236 0.07313 0.68341 0.0
C927 C 1.00214 0.10367 0.75107 0.0
C928 C 0.03788 0.14881 0.73698 0.0
H929 H 0.01298 0.23096 0.97322 0.0
H930 H 1.00552 0.19923 0.90803 0.0
H931 H 0.05039 0.17927 0.73656 0.0
H932 H 0.04274 0.07496 0.63843 0.0
H933 H 0.05066 0.10894 0.68846 0.0
H934 H 1.00813 0.12959 0.8672 0.0
C935 C 0.02061 0.20592 0.90305 0.0
C936 C 0.04115 0.1686 0.76587 0.0
C937 C 0.02473 0.22445 0.93953 0.0
C938 C 0.03131 0.0827 0.6703 0.0
C939 C 0.03573 0.10238 0.69849 0.0
C940 C 0.01715 0.14027 0.83715 0.0
C941 C 0.0359 0.19579 0.86292 0.0
C942 C 0.03228 0.17467 0.83065 0.0
C943 C 0.02125 0.11321 0.74011 0.0
C944 C 0.02566 0.13426 0.77179 0.0
H945 H 0.07456 0.23023 0.89231 0.0
H946 H 0.06738 0.19849 0.82786 0.0
H947 H 0.01365 0.16361 0.91648 0.0
H948 H 0.98283 0.07757 0.73278 0.0
H949 H 0.99024 0.11141 0.78075 0.0
C950 C 0.30843 0.03126 0.90146 0.0
C951 C 0.30029 0.05117 0.90124 0.0
C952 C 0.32685 0.02662 0.86586 0.0
C953 C 0.37418 0.05275 0.79693 0.0
H954 H 0.38712 0.99859 0.72527 0.0
C955 C 0.45256 0.03314 0.65895 0.0
C956 C 0.46164 0.01434 0.67641 0.0
C957 C 0.43252 0.03802 0.68167 0.0
C958 C 0.3839 0.0138 0.74554 0.0
H959 H 0.30495 0.08161 0.86121 0.0
H960 H 0.3363 0.07345 0.7966 0.0
H961 H 0.35279 1.00586 0.76926 0.0
H962 H 0.45623 0.98558 0.72803 0.0
H963 H 0.42165 0.99398 0.76772 0.0
H964 H 0.40537 0.06062 0.77282 0.0
C965 C 0.32884 0.06138 0.82541 0.0
C966 C 0.36406 0.018 0.77104 0.0
C967 C 0.31052 0.06601 0.86129 0.0
C968 C 0.44987 1.00033 0.71473 0.0
C969 C 0.4299 1.00512 0.73705 0.0
C970 C 0.394 0.04856 0.77099 0.0
C971 C 0.33779 0.04177 0.82895 0.0
C972 C 0.35881 0.03751 0.79792 0.0
C973 C 0.42082 0.02404 0.72107 0.0
C974 C 0.3993 0.02894 0.74555 0.0
H975 H 0.30136 0.01964 0.93347 0.0
H976 H 0.3331 0.01139 0.87096 0.0
H977 H 0.37115 0.06789 0.81808 0.0
H978 H 0.46092 0.04402 0.62748 0.0
H979 H 0.42608 0.05264 0.66733 0.0
C980 C 0.46452 0.30419 0.86184 0.0
C981 C 0.47942 0.29557 0.90599 0.0
C982 C 0.46876 0.32192 0.82329 0.0
C983 C 0.49978 0.36847 0.83903 0.0
H984 H 0.48341 0.37948 0.64735 0.0
C985 C 0.49433 0.45088 0.73235 0.0
C986 C 0.50385 0.45491 0.66759 0.0
C987 C 0.49176 0.4308 0.75592 0.0
C988 C 0.48814 0.37662 0.70087 0.0
H989 H 0.51054 0.29872 0.94326 0.0
H990 H 0.51797 0.32968 0.8765 0.0
H991 H 0.47885 0.34503 0.69537 0.0
H992 H 0.51802 0.44047 0.57673 0.0
H993 H 0.51292 0.4053 0.61688 0.0
H994 H 0.50851 0.40007 0.84554 0.0
C995 C 0.50306 0.32259 0.8709 0.0
C996 C 0.48544 0.3569 0.7285 0.0
C997 C 0.49892 0.30465 0.90838 0.0
C998 C 0.51047 0.43806 0.62655 0.0
C999 C 0.50752 0.41786 0.64955 0.0
C1000 C 0.50208 0.3882 0.81198 0.0
C1001 C 0.48786 0.33182 0.82937 0.0
C1002 C 0.49128 0.35253 0.79802 0.0
C1003 C 0.49838 0.41397 0.71514 0.0
C1004 C 0.49628 0.39262 0.74258 0.0
H1005 H 0.44918 0.29786 0.86034 0.0
H1006 H 0.45663 0.32862 0.79234 0.0
H1007 H 0.50422 0.3658 0.89297 0.0
H1008 H 0.48942 0.46327 0.76632 0.0
H1009 H 0.48457 0.42845 0.8065 0.0
C1010 C 0.22866 0.46733 0.89071 0.0
C1011 C 0.23881 0.4828 0.92946 0.0
C1012 C 0.21047 0.47141 0.85381 0.0
C1013 C 0.16627 0.50732 0.85987 0.0
H1014 H 0.14984 0.47979 0.68734 0.0
C1015 C 0.08123 0.50643 0.76664 0.0
C1016 C 0.07713 0.50859 0.69447 0.0
C1017 C 0.10135 0.50361 0.79121 0.0
C1018 C 0.15415 0.48774 0.73536 0.0
H1019 H 0.23794 0.51493 0.95732 0.0
H1020 H 0.20644 0.52223 0.89206 0.0
H1021 H 0.18461 0.47525 0.73248 0.0
H1022 H 0.09141 0.50923 0.59166 0.0
H1023 H 0.12638 0.50427 0.6343 0.0
H1024 H 0.13586 0.51975 0.86306 0.0
C1025 C 0.21248 0.50681 0.89051 0.0
C1026 C 0.17415 0.48499 0.76167 0.0
C1027 C 0.23082 0.50275 0.92694 0.0
C1028 C 0.09385 0.50766 0.64761 0.0
C1029 C 0.11399 0.50467 0.67214 0.0
C1030 C 0.14626 0.50991 0.83396 0.0
C1031 C 0.20162 0.49107 0.85517 0.0
C1032 C 0.18057 0.49472 0.82453 0.0
C1033 C 0.11814 0.50275 0.74451 0.0
C1034 C 0.13977 0.50011 0.77139 0.0
H1035 H 0.23413 0.45171 0.89269 0.0
H1036 H 0.20268 0.45879 0.8279 0.0
H1037 H 0.17036 0.51488 0.90883 0.0
H1038 H 0.06887 0.50719 0.80458 0.0
H1039 H 0.10372 0.50194 0.84714 0.0
C1040 C 1.0042 0.80999 0.32507 0.0
C1041 C 0.98425 0.80204 0.31845 0.0
C1042 C 1.00783 0.82889 0.36005 0.0
C1043 C 0.98012 0.87748 0.416 0.0
H1044 H 0.03183 0.89035 0.50561 0.0
C1045 C 0.03148 0.95277 0.51508 0.0
C1046 C 0.01688 0.96502 0.55024 0.0
C1047 C 0.02666 0.93301 0.49011 0.0
C1048 C 0.01732 0.88719 0.48023 0.0
H1049 H 0.95262 0.80762 0.3471 0.0
H1050 H 0.9589 0.8398 0.40965 0.0
H1051 H 0.02559 0.85586 0.46079 0.0
H1052 H 0.98567 0.96537 0.58861 0.0
H1053 H 0.97699 0.93093 0.5435 0.0
H1054 H 0.97191 0.90895 0.43609 0.0
C1055 C 0.97185 0.83186 0.3865 0.0
C1056 C 0.01371 0.86721 0.45416 0.0
C1057 C 0.96825 0.81306 0.35158 0.0
C1058 C 0.99718 0.95668 0.56015 0.0
C1059 C 0.99225 0.93682 0.53442 0.0
C1060 C 0.9837 0.89748 0.44249 0.0
C1061 C 0.99162 0.84056 0.38964 0.0
C1062 C 0.99512 0.86191 0.42076 0.0
C1063 C 1.00704 0.9245 0.49968 0.0
C1064 C 1.00249 0.90281 0.47439 0.0
H1065 H 0.01685 0.80232 0.29896 0.0
H1066 H 0.0233 0.83483 0.36038 0.0
H1067 H 0.96568 0.87445 0.38998 0.0
H1068 H 0.04686 0.95851 0.50699 0.0
H1069 H 0.03846 0.92438 0.4629 0.0
C1070 C 0.72401 1.00325 0.33665 0.0
C1071 C 0.73144 0.98313 0.33063 0.0
C1072 C 0.70551 1.00752 0.37246 0.0
C1073 C 0.65705 0.98112 0.43195 0.0
H1074 H 0.64556 0.03376 0.51874 0.0
C1075 C 0.57928 0.99994 0.57628 0.0
C1076 C 0.57056 0.01913 0.56183 0.0
C1077 C 0.59921 0.99496 0.55252 0.0
C1078 C 0.6484 0.01899 0.49431 0.0
H1079 H 0.72549 0.95185 0.36005 0.0
H1080 H 0.69406 0.95925 0.42496 0.0
H1081 H 0.67974 0.02659 0.47317 0.0
H1082 H 0.57655 0.04846 0.51481 0.0
H1083 H 0.61099 0.03996 0.47398 0.0
H1084 H 0.62564 0.97355 0.45399 0.0
C1085 C 0.70206 0.97183 0.40072 0.0
C1086 C 0.66814 0.01485 0.46778 0.0
C1087 C 0.72042 0.96759 0.36458 0.0
C1088 C 0.58261 0.03341 0.52572 0.0
C1089 C 0.60249 0.02856 0.5027 0.0
C1090 C 0.63734 0.98521 0.45912 0.0
C1091 C 0.69384 0.99178 0.4035 0.0
C1092 C 0.67286 0.99591 0.43534 0.0
C1093 C 0.61118 0.00925 0.51544 0.0
C1094 C 0.63259 1.00431 0.49 0.0
H1095 H 0.73175 0.0155 0.30953 0.0
H1096 H 0.69986 0.02307 0.3723 0.0
H1097 H 0.65965 0.96646 0.40651 0.0
H1098 H 0.57073 0.98881 0.60606 0.0
H1099 H 0.60537 0.98002 0.56424 0.0
C1100 C 0.5432 0.7348 0.35191 0.0
C1101 C 0.56315 0.73977 0.32971 0.0
C1102 C 0.53931 0.71638 0.38759 0.0
C1103 C 0.56178 0.66424 0.40491 0.0
H1104 H 0.5218 0.65702 0.55295 0.0
C1105 C 0.55185 0.58538 0.53811 0.0
C1106 C 0.53212 0.57912 0.55843 0.0
C1107 C 0.5556 0.60546 0.51568 0.0
C1108 C 0.53287 0.65861 0.51102 0.0
H1109 H 0.59475 0.72979 0.33185 0.0
H1110 H 0.58815 0.69822 0.39465 0.0
H1111 H 0.52805 0.69113 0.50624 0.0
H1112 H 0.50099 0.58987 0.57384 0.0
H1113 H 0.50732 0.6245 0.53347 0.0
H1114 H 0.56637 0.63187 0.408 0.0
C1115 C 0.57535 0.70819 0.38341 0.0
C1116 C 0.53649 0.67831 0.48427 0.0
C1117 C 0.5792 0.72649 0.34811 0.0
C1118 C 0.51638 0.59389 0.55798 0.0
C1119 C 0.52008 0.61396 0.53513 0.0
C1120 C 0.55807 0.6446 0.43118 0.0
C1121 C 0.55527 0.70242 0.40165 0.0
C1122 C 0.55111 0.68148 0.431 0.0
C1123 C 0.53973 0.62008 0.51264 0.0
C1124 C 0.54362 0.64135 0.48498 0.0
H1125 H 0.53043 0.74447 0.33769 0.0
H1126 H 0.52364 0.71257 0.40061 0.0
H1127 H 0.57282 0.66581 0.36284 0.0
H1128 H 0.56456 0.57482 0.54012 0.0
H1129 H 0.5711 0.6095 0.50113 0.0
C1130 C 0.80385 0.53392 0.29879 0.0
C1131 C 0.795 0.55351 0.29883 0.0
C1132 C 0.82205 0.53013 0.33617 0.0
C1133 C 0.85795 0.55062 0.47376 0.0
H1134 H 0.89918 0.52119 0.36623 0.0
C1135 C 0.93782 0.5271 0.58987 0.0
C1136 C 0.95511 0.52934 0.54619 0.0
C1137 C 0.91785 0.53006 0.56376 0.0
C1138 C 0.88792 0.5295 0.39712 0.0
H1139 H 0.79812 0.58433 0.34002 0.0
H1140 H 0.82933 0.57761 0.40738 0.0
H1141 H 0.86492 0.52564 0.31757 0.0
H1142 H 0.96458 0.53625 0.44001 0.0
H1143 H 0.92999 0.54131 0.39463 0.0
H1144 H 0.8811 0.55453 0.55325 0.0
C1145 C 0.82224 0.56508 0.37865 0.0
C1146 C 0.8681 0.53186 0.36943 0.0
C1147 C 0.80421 0.56893 0.34046 0.0
C1148 C 0.95177 0.53459 0.4756 0.0
C1149 C 0.93182 0.5373 0.4493 0.0
C1150 C 0.87774 0.548 0.50197 0.0
C1151 C 0.83189 0.54581 0.37507 0.0
C1152 C 0.85278 0.54254 0.40702 0.0
C1153 C 0.9145 0.53504 0.49281 0.0
C1154 C 0.89312 0.53753 0.46383 0.0
H1155 H 0.79749 0.52188 0.26583 0.0
H1156 H 0.82881 0.51504 0.33263 0.0
H1157 H 0.84663 0.5589 0.5045 0.0
H1158 H 0.93971 0.52312 0.64456 0.0
H1159 H 0.90499 0.52804 0.59895 0.0
loop_
_geom_bond_atom_site_label_1
_geom_bond_atom_site_label_2
_geom_bond_distance
_geom_bond_site_symmetry_2
_ccdc_geom_bond_type
H0 C7 0.929 . S
H1 C10 0.930 . S
H2 C12 0.929 . S
H3 C4 0.969 . S
C4 H3 0.969 . S
C4 O5 1.550 . S
C4 H6 0.973 . S
O5 C4 1.550 . S
O5 C11 1.412 . S
H6 C4 0.973 . S
C7 H0 0.929 . S
C7 C8 1.400 . S
C7 C9 1.364 . S
C8 C7 1.400 . S
C8 C12 1.377 . S
C9 C7 1.364 . S
C9 C10 1.374 . S
C10 H1 0.930 . S
C10 C9 1.374 . S
C10 C11 1.383 . S
C11 O5 1.412 . S
C11 C10 1.383 . S
C11 C12 1.394 . S
C12 H2 0.929 . S
C12 C8 1.377 . S
C12 C11 1.394 . S
H13 C20 0.929 . S
H14 C23 0.930 . S
H15 C25 0.929 . S
H16 C17 0.969 . S
C17 H16 0.969 . S
C17 O18 1.550 . S
C17 H19 0.973 . S
O18 C17 1.550 . S
O18 C24 1.412 . S
H19 C17 0.973 . S
C20 H13 0.929 . S
C20 C21 1.400 . S
C20 C22 1.364 . S
C21 C20 1.400 . S
C21 C25 1.377 . S
C22 C20 1.364 . S
C22 C23 1.374 . S
C23 H14 0.930 . S
C23 C22 1.374 . S
C23 C24 1.383 . S
C24 O18 1.412 . S
C24 C23 1.383 . S
C24 C25 1.394 . S
C25 H15 0.929 . S
C25 C21 1.377 . S
C25 C24 1.394 . S
H26 C33 0.929 . S
H27 C36 0.930 . S
H28 C38 0.929 . S
H29 C30 0.969 . S
C30 H29 0.969 . S
C30 O31 1.550 . S
C30 H32 0.973 . S
O31 C30 1.550 . S
O31 C37 1.412 . S
H32 C30 0.973 . S
C33 H26 0.929 . S
C33 C34 1.400 . S
C33 C35 1.364 . S
C34 C33 1.400 . S
C34 C38 1.377 . S
C35 C33 1.364 . S
C35 C36 1.374 . S
C36 H27 0.930 . S
C36 C35 1.374 . S
C36 C37 1.383 . S
C37 O31 1.412 . S
C37 C36 1.383 . S
C37 C38 1.394 . S
C38 H28 0.929 . S
C38 C34 1.377 . S
C38 C37 1.394 . S
H39 C46 0.929 . S
H40 C49 0.930 . S
H41 C51 0.929 . S
H42 C43 0.969 . S
C43 H42 0.969 . S
C43 O44 1.550 . S
C43 H45 0.973 . S
O44 C43 1.550 . S
O44 C50 1.412 . S
H45 C43 0.973 . S
C46 H39 0.929 . S
C46 C47 1.400 . S
C46 C48 1.364 . S
C47 C46 1.400 . S
C47 C51 1.377 . S
C48 C46 1.364 . S
C48 C49 1.374 . S
C49 H40 0.930 . S
C49 C48 1.374 . S
C49 C50 1.383 . S
C50 O44 1.412 . S
C50 C49 1.383 . S
C50 C51 1.394 . S
C51 H41 0.929 . S
C51 C47 1.377 . S
C51 C50 1.394 . S
H52 C59 0.929 . S
H53 C62 0.930 . S
H54 C64 0.929 . S
H55 C56 0.969 . S
C56 H55 0.969 . S
C56 O57 1.550 . S
C56 H58 0.973 . S
O57 C56 1.550 . S
O57 C63 1.412 . S
H58 C56 0.973 . S
C59 H52 0.929 . S
C59 C60 1.400 . S
C59 C61 1.364 1_556 S
C60 C59 1.400 . S
C60 C64 1.377 . S
C61 C59 1.364 1_554 S
C61 C62 1.374 . S
C62 H53 0.930 . S
C62 C61 1.374 . S
C62 C63 1.383 . S
C63 O57 1.412 . S
C63 C62 1.383 . S
C63 C64 1.394 1_554 S
C64 H54 0.929 . S
C64 C60 1.377 . S
C64 C63 1.394 1_556 S
H65 C72 0.929 . S
H66 C75 0.930 . S
H67 C77 0.929 . S
H68 C69 0.969 . S
C69 H68 0.969 . S
C69 O70 1.550 . S
C69 H71 0.973 . S
O70 C69 1.550 . S
O70 C76 1.412 . S
H71 C69 0.973 . S
C72 H65 0.929 . S
C72 C73 1.400 . S
C72 C74 1.364 1_556 S
C73 C72 1.400 . S
C73 C77 1.377 . S
C74 C72 1.364 1_554 S
C74 C75 1.374 . S
C75 H66 0.930 . S
C75 C74 1.374 . S
C75 C76 1.383 . S
C76 O70 1.412 . S
C76 C75 1.383 . S
C76 C77 1.394 1_554 S
C77 H67 0.929 . S
C77 C73 1.377 . S
C77 C76 1.394 1_556 S
H78 C85 0.929 . S
H79 C88 0.930 . S
H80 C90 0.929 . S
H81 C82 0.969 . S
C82 H81 0.969 . S
C82 O83 1.550 . S
C82 H84 0.973 . S
O83 C82 1.550 . S
O83 C89 1.412 . S
H84 C82 0.973 . S
C85 H78 0.929 . S
C85 C86 1.400 . S
C85 C87 1.364 1_556 S
C86 C85 1.400 . S
C86 C90 1.377 . S
C87 C85 1.364 1_554 S
C87 C88 1.374 . S
C88 H79 0.930 . S
C88 C87 1.374 . S
C88 C89 1.383 . S
C89 O83 1.412 . S
C89 C88 1.383 . S
C89 C90 1.394 1_554 S
C90 H80 0.929 . S
C90 C86 1.377 . S
C90 C89 1.394 1_556 S
H91 C98 0.929 . S
H92 C101 0.930 . S
H93 C103 0.929 . S
H94 C95 0.969 . S
C95 H94 0.969 . S
C95 O96 1.550 . S
C95 H97 0.973 . S
O96 C95 1.550 . S
O96 C102 1.412 . S
H97 C95 0.973 . S
C98 H91 0.929 . S
C98 C99 1.400 . S
C98 C100 1.364 1_556 S
C99 C98 1.400 . S
C99 C103 1.377 . S
C100 C98 1.364 1_554 S
C100 C101 1.374 . S
C101 H92 0.930 . S
C101 C100 1.374 . S
C101 C102 1.383 . S
C102 O96 1.412 . S
C102 C101 1.383 . S
C102 C103 1.394 1_554 S
C103 H93 0.929 . S
C103 C99 1.377 . S
C103 C102 1.394 1_556 S
Gd104 N135 2.661 . S
Gd104 N141 2.601 . S
Gd104 O148 2.545 . S
Gd104 O149 2.606 1_655 S
Gd104 O151 2.429 . S
Gd104 O152 2.545 1_655 S
Gd104 O153 2.413 1_655 S
Gd104 O155 2.362 1_545 S
Gd104 O156 2.324 1_655 S
Gd104 C163 2.828 . S
Gd105 N114 2.661 1_565 S
Gd105 N118 2.598 1_565 S
Gd105 O149 2.362 1_565 S
Gd105 O150 2.324 1_455 S
Gd105 O154 2.545 . S
Gd105 O155 2.606 1_455 S
Gd105 O157 2.429 . S
Gd105 O158 2.545 . S
Gd105 O159 2.412 . S
Gd105 C172 2.828 . S
C106 C109 1.417 . S
C106 C111 1.431 . S
C106 C112 1.412 . S
C107 C110 1.437 . S
C107 C111 1.317 . S
C107 H126 0.929 . S
C108 C109 1.426 . S
C108 C110 1.413 . S
C108 N118 1.367 . S
C109 C106 1.417 . S
C109 C108 1.426 . S
C109 N114 1.350 . S
C110 C107 1.437 . S
C110 C108 1.413 . S
C110 C120 1.391 . S
C111 C106 1.431 . S
C111 C107 1.317 . S
C111 H122 0.930 . S
C112 C106 1.412 . S
C112 C113 1.355 . S
C112 H124 0.930 . S
C113 C112 1.355 . S
C113 C115 1.402 . S
C113 H125 0.930 1_455 S
N114 Gd105 2.661 1_545 S
N114 C109 1.350 . S
N114 C115 1.307 . S
C115 C113 1.402 . S
C115 N114 1.307 . S
C115 H116 0.930 1_455 S
H116 C115 0.930 1_655 S
C117 N118 1.329 1_565 S
C117 C119 1.394 . S
C117 H121 0.930 . S
N118 Gd105 2.598 1_545 S
N118 C108 1.367 . S
N118 C117 1.329 1_545 S
C119 C117 1.394 . S
C119 C120 1.359 1_565 S
C119 H131 0.930 . S
C120 C110 1.391 . S
C120 C119 1.359 1_545 S
C120 H132 0.929 . S
H121 C117 0.930 . S
H122 C111 0.930 . S
H123 C140 0.930 . S
H124 C112 0.930 . S
H125 C113 0.930 1_655 S
H126 C107 0.929 . S
H127 C145 0.930 . S
H128 C136 0.930 . S
H129 C137 0.930 . S
H130 C161 0.929 . S
H131 C119 0.930 . S
H132 C120 0.929 . S
H133 C162 0.930 . S
H134 C143 0.930 . S
N135 Gd104 2.661 . S
N135 C139 1.341 1_545 S
N135 C140 1.307 1_645 S
C136 H128 0.930 . S
C136 C137 1.355 1_655 S
C136 C138 1.412 . S
C137 H129 0.930 . S
C137 C136 1.355 1_455 S
C137 C140 1.402 . S
C138 C136 1.412 . S
C138 C139 1.449 . S
C138 C162 1.431 . S
C139 N135 1.341 1_565 S
C139 C138 1.449 . S
C139 C142 1.406 1_565 S
C140 H123 0.930 . S
C140 N135 1.307 1_465 S
C140 C137 1.402 . S
N141 Gd104 2.601 . S
N141 C142 1.359 . S
N141 C145 1.334 . S
C142 C139 1.406 1_545 S
C142 N141 1.359 . S
C142 C146 1.413 . S
C143 H134 0.930 . S
C143 C144 1.359 . S
C143 C145 1.394 . S
C144 C143 1.359 . S
C144 C146 1.391 . S
C144 H147 0.929 . S
C145 H127 0.930 . S
C145 N141 1.334 . S
C145 C143 1.394 . S
C146 C142 1.413 . S
C146 C144 1.391 . S
C146 C161 1.437 1_545 S
H147 C144 0.929 . S
O148 Gd104 2.545 . S
O148 C163 1.258 . S
O149 Gd104 2.606 1_455 S
O149 Gd105 2.362 1_545 S
O149 C160 1.284 . S
O150 Gd105 2.324 1_655 S
O150 C170 1.254 1_565 S
O151 Gd104 2.429 . S
O151 C170 1.268 . S
O152 Gd104 2.545 1_455 S
O152 C160 1.250 . S
O153 Gd104 2.413 1_455 S
O153 C163 1.254 1_455 S
O154 Gd105 2.545 . S
O154 C172 1.258 . S
O155 Gd104 2.362 1_565 S
O155 Gd105 2.606 1_655 S
O155 C171 1.284 . S
O156 Gd104 2.324 1_455 S
O156 C179 1.254 . S
O157 Gd105 2.429 . S
O157 C179 1.268 1_565 S
O158 Gd105 2.545 . S
O158 C171 1.250 1_455 S
O159 Gd105 2.412 . S
O159 C172 1.252 . S
C160 O149 1.284 . S
C160 O152 1.250 . S
C161 H130 0.929 . S
C161 C146 1.437 1_565 S
C161 C162 1.317 . S
C162 H133 0.930 . S
C162 C138 1.431 . S
C162 C161 1.317 . S
C163 Gd104 2.828 . S
C163 O148 1.258 . S
C163 O153 1.254 1_655 S
C163 C164 1.497 . S
C164 C163 1.497 . S
C164 C165 1.395 . S
C164 C166 1.343 1_655 S
C165 C164 1.395 . S
C165 C168 1.398 . S
C165 H180 0.930 . S
C166 C164 1.343 1_455 S
C166 C167 1.389 1_455 S
C166 H181 0.971 . S
C167 C166 1.389 1_655 S
C167 C169 1.402 . S
C168 C165 1.398 . S
C168 C169 1.380 . S
C168 H182 0.930 . S
C169 C167 1.402 . S
C169 C168 1.380 . S
C169 H183 0.930 . S
C170 O150 1.254 1_545 S
C170 O151 1.268 . S
C171 O155 1.284 . S
C171 O158 1.250 1_655 S
C172 Gd105 2.828 . S
C172 O154 1.258 . S
C172 O159 1.252 . S
C172 C173 1.497 . S
C173 C172 1.497 . S
C173 C174 1.395 . S
C173 C175 1.380 . S
C174 C173 1.395 . S
C174 C177 1.398 . S
C174 H184 0.930 . S
C175 C173 1.380 . S
C175 C176 1.391 . S
C175 H185 0.930 1_455 S
C176 C175 1.391 . S
C176 C178 1.387 . S
C177 C174 1.398 . S
C177 C178 1.380 . S
C177 H186 0.930 . S
C178 C176 1.387 . S
C178 C177 1.380 . S
C178 H187 0.930 . S
C179 O156 1.254 . S
C179 O157 1.268 1_545 S
H180 C165 0.930 . S
H181 C166 0.971 . S
H182 C168 0.930 . S
H183 C169 0.930 . S
H184 C174 0.930 . S
H185 C175 0.930 1_655 S
H186 C177 0.930 . S
H187 C178 0.930 . S
Gd188 N219 2.661 . S
Gd188 N225 2.601 . S
Gd188 O232 2.545 . S
Gd188 O233 2.606 1_565 S
Gd188 O235 2.429 . S
Gd188 O236 2.545 1_565 S
Gd188 O237 2.412 1_565 S
Gd188 O239 2.362 . S
Gd188 O240 2.324 1_565 S
Gd188 C247 2.828 . S
Gd189 N198 2.661 . S
Gd189 N202 2.601 . S
Gd189 O233 2.362 . S
Gd189 O234 2.324 1_545 S
Gd189 O238 2.545 . S
Gd189 O239 2.605 1_545 S
Gd189 O241 2.429 . S
Gd189 O242 2.545 . S
Gd189 O243 2.412 . S
Gd189 C256 2.828 . S
C190 C193 1.417 . S
C190 C195 1.431 . S
C190 C196 1.412 . S
C191 C194 1.437 . S
C191 C195 1.317 . S
C191 H210 0.929 . S
C192 C193 1.426 . S
C192 C194 1.413 . S
C192 N202 1.359 . S
C193 C190 1.417 . S
C193 C192 1.426 . S
C193 N198 1.350 . S
C194 C191 1.437 . S
C194 C192 1.413 . S
C194 C204 1.391 . S
C195 C190 1.431 . S
C195 C191 1.317 . S
C195 H206 0.930 . S
C196 C190 1.412 . S
C196 C197 1.355 . S
C196 H208 0.930 . S
C197 C196 1.355 . S
C197 C199 1.402 . S
C197 H209 0.930 1_545 S
N198 Gd189 2.661 . S
N198 C193 1.350 . S
N198 C199 1.307 . S
C199 C197 1.402 . S
C199 N198 1.307 . S
C199 H200 0.930 1_545 S
H200 C199 0.930 1_565 S
C201 N202 1.334 . S
C201 C203 1.394 . S
C201 H205 0.930 . S
N202 Gd189 2.601 . S
N202 C192 1.359 . S
N202 C201 1.334 . S
C203 C201 1.394 . S
C203 C204 1.359 . S
C203 H215 0.930 . S
C204 C194 1.391 . S
C204 C203 1.359 . S
C204 H216 0.929 . S
H205 C201 0.930 . S
H206 C195 0.930 . S
H207 C224 0.930 . S
H208 C196 0.930 . S
H209 C197 0.930 1_565 S
H210 C191 0.929 . S
H211 C229 0.930 . S
H212 C220 0.930 . S
H213 C221 0.930 . S
H214 C245 0.929 . S
H215 C203 0.930 . S
H216 C204 0.929 . S
H217 C246 0.930 . S
H218 C227 0.930 . S
N219 Gd188 2.661 . S
N219 C223 1.350 . S
N219 C224 1.307 1_565 S
C220 H212 0.930 . S
C220 C221 1.355 1_565 S
C220 C222 1.412 . S
C221 H213 0.930 . S
C221 C220 1.355 1_545 S
C221 C224 1.402 . S
C222 C220 1.412 . S
C222 C223 1.417 . S
C222 C246 1.431 . S
C223 N219 1.350 . S
C223 C222 1.417 . S
C223 C226 1.426 . S
C224 H207 0.930 . S
C224 N219 1.307 1_545 S
C224 C221 1.402 . S
N225 Gd188 2.601 . S
N225 C226 1.359 . S
N225 C229 1.334 . S
C226 C223 1.426 . S
C226 N225 1.359 . S
C226 C230 1.413 . S
C227 H218 0.930 . S
C227 C228 1.359 . S
C227 C229 1.394 . S
C228 C227 1.359 . S
C228 C230 1.391 . S
C228 H231 0.929 . S
C229 H211 0.930 . S
C229 N225 1.334 . S
C229 C227 1.394 . S
C230 C226 1.413 . S
C230 C228 1.391 . S
C230 C245 1.437 . S
H231 C228 0.929 . S
O232 Gd188 2.545 . S
O232 C247 1.258 . S
O233 Gd188 2.606 1_545 S
O233 Gd189 2.362 . S
O233 C244 1.284 . S
O234 Gd189 2.324 1_565 S
O234 C254 1.254 . S
O235 Gd188 2.429 . S
O235 C254 1.268 . S
O236 Gd188 2.545 1_545 S
O236 C244 1.250 . S
O237 Gd188 2.412 1_545 S
O237 C247 1.252 1_545 S
O238 Gd189 2.545 . S
O238 C256 1.258 . S
O239 Gd188 2.362 . S
O239 Gd189 2.605 1_565 S
O239 C255 1.284 1_565 S
O240 Gd188 2.324 1_545 S
O240 C263 1.254 . S
O241 Gd189 2.429 . S
O241 C263 1.268 . S
O242 Gd189 2.545 . S
O242 C255 1.256 . S
O243 Gd189 2.412 . S
O243 C256 1.252 . S
C244 O233 1.284 . S
C244 O236 1.250 . S
C245 H214 0.929 . S
C245 C230 1.437 . S
C245 C246 1.317 . S
C246 H217 0.930 . S
C246 C222 1.431 . S
C246 C245 1.317 . S
C247 Gd188 2.828 . S
C247 O232 1.258 . S
C247 O237 1.252 1_565 S
C247 C248 1.497 . S
C248 C247 1.497 . S
C248 C249 1.395 . S
C248 C250 1.380 1_565 S
C249 C248 1.395 . S
C249 C252 1.398 . S
C249 H264 0.930 . S
C250 C248 1.380 1_545 S
C250 C251 1.391 . S
C250 H265 0.930 . S
C251 C250 1.391 . S
C251 C253 1.387 1_545 S
C252 C249 1.398 . S
C252 C253 1.380 . S
C252 H266 0.930 . S
C253 C251 1.387 1_565 S
C253 C252 1.380 . S
C253 H267 0.930 . S
C254 O234 1.254 . S
C254 O235 1.268 . S
C255 O239 1.284 1_545 S
C255 O242 1.256 . S
C256 Gd189 2.828 . S
C256 O238 1.258 . S
C256 O243 1.252 . S
C256 C257 1.497 . S
C257 C256 1.497 . S
C257 C258 1.395 . S
C257 C259 1.380 . S
C258 C257 1.395 . S
C258 C261 1.398 . S
C258 H268 0.930 . S
C259 C257 1.380 . S
C259 C260 1.391 . S
C259 H269 0.930 . S
C260 C259 1.391 . S
C260 C262 1.387 . S
C261 C258 1.398 . S
C261 C262 1.380 . S
C261 H270 0.930 . S
C262 C260 1.387 . S
C262 C261 1.380 . S
C262 H271 0.930 . S
C263 O240 1.254 . S
C263 O241 1.268 . S
H264 C249 0.930 . S
H265 C250 0.930 . S
H266 C252 0.930 . S
H267 C253 0.930 . S
H268 C258 0.930 . S
H269 C259 0.930 . S
H270 C261 0.930 . S
H271 C262 0.930 . S
Gd272 N303 2.661 . S
Gd272 N309 2.601 . S
Gd272 O316 2.545 . S
Gd272 O317 2.606 . S
Gd272 O319 2.429 . S
Gd272 O320 2.545 . S
Gd272 O321 2.412 . S
Gd272 O323 2.362 . S
Gd272 O324 2.324 . S
Gd272 C331 2.828 . S
Gd273 N282 2.661 . S
Gd273 N286 2.601 . S
Gd273 O317 2.362 . S
Gd273 O318 2.324 . S
Gd273 O322 2.545 . S
Gd273 O323 2.606 . S
Gd273 O325 2.429 . S
Gd273 O326 2.545 . S
Gd273 O327 2.412 . S
Gd273 C340 2.828 . S
C274 C277 1.417 . S
C274 C279 1.431 . S
C274 C280 1.412 . S
C275 C278 1.437 . S
C275 C279 1.317 . S
C275 H294 0.929 . S
C276 C277 1.426 . S
C276 C278 1.413 . S
C276 N286 1.359 . S
C277 C274 1.417 . S
C277 C276 1.426 . S
C277 N282 1.350 . S
C278 C275 1.437 . S
C278 C276 1.413 . S
C278 C288 1.391 . S
C279 C274 1.431 . S
C279 C275 1.317 . S
C279 H290 0.930 . S
C280 C274 1.412 . S
C280 C281 1.355 . S
C280 H292 0.930 . S
C281 C280 1.355 . S
C281 C283 1.402 . S
C281 H293 0.930 . S
N282 Gd273 2.661 . S
N282 C277 1.350 . S
N282 C283 1.307 . S
C283 C281 1.402 . S
C283 N282 1.307 . S
C283 H284 0.930 . S
H284 C283 0.930 . S
C285 N286 1.334 . S
C285 C287 1.394 . S
C285 H289 0.930 . S
N286 Gd273 2.601 . S
N286 C276 1.359 . S
N286 C285 1.334 . S
C287 C285 1.394 . S
C287 C288 1.359 . S
C287 H299 0.930 . S
C288 C278 1.391 . S
C288 C287 1.359 . S
C288 H300 0.929 . S
H289 C285 0.930 . S
H290 C279 0.930 . S
H291 C308 0.930 . S
H292 C280 0.930 . S
H293 C281 0.930 . S
H294 C275 0.929 . S
H295 C313 0.930 . S
H296 C304 0.930 . S
H297 C305 0.930 . S
H298 C329 0.929 . S
H299 C287 0.930 . S
H300 C288 0.929 . S
H301 C330 0.930 . S
H302 C311 0.930 . S
N303 Gd272 2.661 . S
N303 C307 1.350 . S
N303 C308 1.307 . S
C304 H296 0.930 . S
C304 C305 1.355 . S
C304 C306 1.412 . S
C305 H297 0.930 . S
C305 C304 1.355 . S
C305 C308 1.402 . S
C306 C304 1.412 . S
C306 C307 1.417 . S
C306 C330 1.431 . S
C307 N303 1.350 . S
C307 C306 1.417 . S
C307 C310 1.426 . S
C308 H291 0.930 . S
C308 N303 1.307 . S
C308 C305 1.402 . S
N309 Gd272 2.601 . S
N309 C310 1.359 . S
N309 C313 1.334 . S
C310 C307 1.426 . S
C310 N309 1.359 . S
C310 C314 1.413 . S
C311 H302 0.930 . S
C311 C312 1.359 . S
C311 C313 1.394 . S
C312 C311 1.359 . S
C312 C314 1.391 . S
C312 H315 0.929 . S
C313 H295 0.930 . S
C313 N309 1.334 . S
C313 C311 1.394 . S
C314 C310 1.413 . S
C314 C312 1.391 . S
C314 C329 1.437 . S
H315 C312 0.929 . S
O316 Gd272 2.545 . S
O316 C331 1.258 . S
O317 Gd272 2.606 . S
O317 Gd273 2.362 . S
O317 C328 1.284 . S
O318 Gd273 2.324 . S
O318 C338 1.254 . S
O319 Gd272 2.429 . S
O319 C338 1.268 . S
O320 Gd272 2.545 . S
O320 C328 1.250 . S
O321 Gd272 2.412 . S
O321 C331 1.252 . S
O322 Gd273 2.545 . S
O322 C340 1.258 . S
O323 Gd272 2.362 . S
O323 Gd273 2.606 . S
O323 C339 1.284 . S
O324 Gd272 2.324 . S
O324 C347 1.254 . S
O325 Gd273 2.429 . S
O325 C347 1.268 . S
O326 Gd273 2.545 . S
O326 C339 1.250 . S
O327 Gd273 2.412 . S
O327 C340 1.252 . S
C328 O317 1.284 . S
C328 O320 1.250 . S
C329 H298 0.929 . S
C329 C314 1.437 . S
C329 C330 1.317 . S
C330 H301 0.930 . S
C330 C306 1.431 . S
C330 C329 1.317 . S
C331 Gd272 2.828 . S
C331 O316 1.258 . S
C331 O321 1.252 . S
C331 C332 1.497 . S
C332 C331 1.497 . S
C332 C333 1.395 . S
C332 C334 1.380 . S
C333 C332 1.395 . S
C333 C336 1.398 . S
C333 H348 0.930 . S
C334 C332 1.380 . S
C334 C335 1.391 . S
C334 H349 0.930 . S
C335 C334 1.391 . S
C335 C337 1.387 . S
C336 C333 1.398 . S
C336 C337 1.380 . S
C336 H350 0.930 1_556 S
C337 C335 1.387 . S
C337 C336 1.380 . S
C337 H351 0.930 . S
C338 O318 1.254 . S
C338 O319 1.268 . S
C339 O323 1.284 . S
C339 O326 1.250 . S
C340 Gd273 2.828 . S
C340 O322 1.258 . S
C340 O327 1.252 . S
C340 C341 1.497 . S
C341 C340 1.497 . S
C341 C342 1.395 . S
C341 C343 1.380 . S
C342 C341 1.395 . S
C342 C345 1.398 . S
C342 H352 0.930 . S
C343 C341 1.380 . S
C343 C344 1.391 . S
C343 H353 0.930 . S
C344 C343 1.391 . S
C344 C346 1.387 . S
C345 C342 1.398 . S
C345 C346 1.380 . S
C345 H354 0.930 . S
C346 C344 1.387 . S
C346 C345 1.380 . S
C346 H355 0.930 . S
C347 O324 1.254 . S
C347 O325 1.268 . S
H348 C333 0.930 . S
H349 C334 0.930 . S
H350 C336 0.930 1_554 S
H351 C337 0.930 . S
H352 C342 0.930 . S
H353 C343 0.930 . S
H354 C345 0.930 . S
H355 C346 0.930 . S
Gd356 N387 2.661 . S
Gd356 N393 2.601 . S
Gd356 O400 2.545 . S
Gd356 O401 2.606 1_655 S
Gd356 O403 2.429 1_655 S
Gd356 O404 2.545 . S
Gd356 O405 2.412 . S
Gd356 O407 2.362 1_655 S
Gd356 O408 2.324 . S
Gd356 C415 2.828 . S
Gd357 N366 2.661 . S
Gd357 N370 2.601 . S
Gd357 O401 2.362 . S
Gd357 O402 2.324 . S
Gd357 O406 2.545 . S
Gd357 O407 2.606 . S
Gd357 O409 2.429 1_455 S
Gd357 O410 2.545 . S
Gd357 O411 2.412 . S
Gd357 C424 2.828 . S
C358 C361 1.417 . S
C358 C363 1.431 . S
C358 C364 1.412 . S
C359 C362 1.437 . S
C359 C363 1.317 . S
C359 H378 0.929 . S
C360 C361 1.426 . S
C360 C362 1.413 . S
C360 N370 1.359 . S
C361 C358 1.417 . S
C361 C360 1.426 . S
C361 N366 1.350 . S
C362 C359 1.437 . S
C362 C360 1.413 . S
C362 C372 1.391 . S
C363 C358 1.431 . S
C363 C359 1.317 . S
C363 H374 0.930 . S
C364 C358 1.412 . S
C364 C365 1.355 . S
C364 H376 0.930 . S
C365 C364 1.355 . S
C365 C367 1.402 . S
C365 H377 0.930 . S
N366 Gd357 2.661 . S
N366 C361 1.350 . S
N366 C367 1.307 . S
C367 C365 1.402 . S
C367 N366 1.307 . S
C367 H368 0.930 . S
H368 C367 0.930 . S
C369 N370 1.334 . S
C369 C371 1.394 . S
C369 H373 0.930 1_455 S
N370 Gd357 2.601 . S
N370 C360 1.359 . S
N370 C369 1.334 . S
C371 C369 1.394 . S
C371 C372 1.359 . S
C371 H383 0.930 1_455 S
C372 C362 1.391 . S
C372 C371 1.359 . S
C372 H384 0.929 . S
H373 C369 0.930 1_655 S
H374 C363 0.930 . S
H375 C392 0.930 . S
H376 C364 0.930 . S
H377 C365 0.930 . S
H378 C359 0.929 . S
H379 C397 0.930 . S
H380 C388 0.930 . S
H381 C389 0.930 . S
H382 C413 0.929 . S
H383 C371 0.930 1_655 S
H384 C372 0.929 . S
H385 C414 0.930 . S
H386 C395 0.930 . S
N387 Gd356 2.661 . S
N387 C391 1.350 . S
N387 C392 1.307 . S
C388 H380 0.930 . S
C388 C389 1.355 . S
C388 C390 1.412 . S
C389 H381 0.930 . S
C389 C388 1.355 . S
C389 C392 1.402 . S
C390 C388 1.412 . S
C390 C391 1.417 . S
C390 C414 1.431 . S
C391 N387 1.350 . S
C391 C390 1.417 . S
C391 C394 1.426 . S
C392 H375 0.930 . S
C392 N387 1.307 . S
C392 C389 1.402 . S
N393 Gd356 2.601 . S
N393 C394 1.359 . S
N393 C397 1.334 1_655 S
C394 C391 1.426 . S
C394 N393 1.359 . S
C394 C398 1.413 . S
C395 H386 0.930 . S
C395 C396 1.359 . S
C395 C397 1.394 . S
C396 C395 1.359 . S
C396 C398 1.391 1_455 S
C396 H399 0.929 . S
C397 H379 0.930 . S
C397 N393 1.334 1_455 S
C397 C395 1.394 . S
C398 C394 1.413 . S
C398 C396 1.391 1_655 S
C398 C413 1.437 . S
H399 C396 0.929 . S
O400 Gd356 2.545 . S
O400 C415 1.258 . S
O401 Gd356 2.606 1_455 S
O401 Gd357 2.362 . S
O401 C412 1.284 1_455 S
O402 Gd357 2.324 . S
O402 C422 1.254 . S
O403 Gd356 2.429 1_455 S
O403 C422 1.268 . S
O404 Gd356 2.545 . S
O404 C412 1.250 . S
O405 Gd356 2.412 . S
O405 C415 1.252 . S
O406 Gd357 2.545 . S
O406 C424 1.258 . S
O407 Gd356 2.362 1_455 S
O407 Gd357 2.606 . S
O407 C423 1.284 . S
O408 Gd356 2.324 . S
O408 C431 1.254 . S
O409 Gd357 2.429 1_655 S
O409 C431 1.268 . S
O410 Gd357 2.545 . S
O410 C423 1.250 . S
O411 Gd357 2.412 . S
O411 C424 1.252 . S
C412 O401 1.284 1_655 S
C412 O404 1.250 . S
C413 H382 0.929 . S
C413 C398 1.437 . S
C413 C414 1.317 . S
C414 H385 0.930 . S
C414 C390 1.431 . S
C414 C413 1.317 . S
C415 Gd356 2.828 . S
C415 O400 1.258 . S
C415 O405 1.252 . S
C415 C416 1.497 . S
C416 C415 1.497 . S
C416 C417 1.395 . S
C416 C418 1.380 . S
C417 C416 1.395 . S
C417 C420 1.398 . S
C417 H432 0.930 . S
C418 C416 1.380 . S
C418 C419 1.391 . S
C418 H433 0.930 . S
C419 C418 1.391 . S
C419 C421 1.387 . S
C420 C417 1.398 . S
C420 C421 1.380 . S
C420 H434 0.930 1_556 S
C421 C419 1.387 . S
C421 C420 1.380 . S
C421 H435 0.930 . S
C422 O402 1.254 . S
C422 O403 1.268 . S
C423 O407 1.284 . S
C423 O410 1.250 . S
C424 Gd357 2.828 . S
C424 O406 1.258 . S
C424 O411 1.252 . S
C424 C425 1.497 . S
C425 C424 1.497 . S
C425 C426 1.395 . S
C425 C427 1.380 . S
C426 C425 1.395 . S
C426 C429 1.398 . S
C426 H436 0.930 . S
C427 C425 1.380 . S
C427 C428 1.391 . S
C427 H437 0.930 . S
C428 C427 1.391 . S
C428 C430 1.387 . S
C429 C426 1.398 . S
C429 C430 1.380 . S
C429 H438 0.930 . S
C430 C428 1.387 . S
C430 C429 1.380 . S
C430 H439 0.930 . S
C431 O408 1.254 . S
C431 O409 1.268 . S
H432 C417 0.930 . S
H433 C418 0.930 . S
H434 C420 0.930 1_554 S
H435 C421 0.930 . S
H436 C426 0.930 . S
H437 C427 0.930 . S
H438 C429 0.930 . S
H439 C430 0.930 . S
C440 C441 1.349 . S
C440 C442 1.327 . S
C440 H465 0.950 . S
C441 C440 1.349 . S
C441 C457 1.349 . S
C442 C440 1.327 . S
C442 C461 1.429 . S
C442 H466 0.950 . S
C443 C460 1.574 . S
C443 C462 1.368 . S
C443 H467 0.949 . S
H444 C448 0.949 . S
C445 C446 1.349 . S
C445 C447 1.327 . S
C445 H468 0.950 1_545 S
C446 C445 1.349 . S
C446 C458 1.349 . S
C447 C445 1.327 . S
C447 C463 1.429 . S
C447 H469 0.950 . S
C448 H444 0.949 . S
C448 C456 1.574 . S
C448 C464 1.368 . S
H449 C457 0.950 . S
H450 C455 0.950 . S
H451 C456 0.949 . S
H452 C458 0.950 . S
H453 C459 0.950 . S
H454 C460 0.949 . S
C455 H450 0.950 . S
C455 C457 1.327 . S
C455 C461 1.429 . S
C456 C448 1.574 . S
C456 H451 0.949 . S
C456 C462 1.368 . S
C457 C441 1.349 . S
C457 H449 0.950 . S
C457 C455 1.327 . S
C458 C446 1.349 . S
C458 H452 0.950 . S
C458 C459 1.327 . S
C459 H453 0.950 . S
C459 C458 1.327 . S
C459 C463 1.429 . S
C460 C443 1.574 . S
C460 H454 0.949 . S
C460 C464 1.368 . S
C461 C442 1.429 . S
C461 C455 1.429 . S
C461 C462 1.523 . S
C462 C443 1.368 . S
C462 C456 1.368 . S
C462 C461 1.523 . S
C463 C447 1.429 . S
C463 C459 1.429 . S
C463 C464 1.523 . S
C464 C448 1.368 . S
C464 C460 1.368 . S
C464 C463 1.523 . S
H465 C440 0.950 . S
H466 C442 0.950 . S
H467 C443 0.949 . S
H468 C445 0.950 1_565 S
H469 C447 0.950 . S
C470 C471 1.349 . S
C470 C472 1.327 . S
C470 H495 0.950 . S
C471 C470 1.349 . S
C471 C487 1.349 . S
C472 C470 1.327 . S
C472 C491 1.429 . S
C472 H496 0.950 . S
C473 C490 1.574 . S
C473 C492 1.368 . S
C473 H497 0.949 . S
H474 C478 0.949 . S
C475 C476 1.349 . S
C475 C477 1.327 . S
C475 H498 0.950 . S
C476 C475 1.349 . S
C476 C488 1.349 . S
C477 C475 1.327 . S
C477 C493 1.429 . S
C477 H499 0.950 . S
C478 H474 0.949 . S
C478 C486 1.574 . S
C478 C494 1.368 . S
H479 C487 0.950 . S
H480 C485 0.950 . S
H481 C486 0.949 . S
H482 C488 0.950 . S
H483 C489 0.950 . S
H484 C490 0.949 . S
C485 H480 0.950 . S
C485 C487 1.327 . S
C485 C491 1.429 . S
C486 C478 1.574 . S
C486 H481 0.949 . S
C486 C492 1.368 . S
C487 C471 1.349 . S
C487 H479 0.950 . S
C487 C485 1.327 . S
C488 C476 1.349 . S
C488 H482 0.950 . S
C488 C489 1.327 . S
C489 H483 0.950 . S
C489 C488 1.327 . S
C489 C493 1.429 . S
C490 C473 1.574 . S
C490 H484 0.949 . S
C490 C494 1.368 . S
C491 C472 1.429 . S
C491 C485 1.429 . S
C491 C492 1.523 . S
C492 C473 1.368 . S
C492 C486 1.368 . S
C492 C491 1.523 . S
C493 C477 1.429 . S
C493 C489 1.429 . S
C493 C494 1.523 . S
C494 C478 1.368 . S
C494 C490 1.368 . S
C494 C493 1.523 . S
H495 C470 0.950 . S
H496 C472 0.950 . S
H497 C473 0.949 . S
H498 C475 0.950 . S
H499 C477 0.950 . S
C500 C501 1.349 . S
C500 C502 1.327 . S
C500 H525 0.950 . S
C501 C500 1.349 . S
C501 C517 1.349 . S
C502 C500 1.327 . S
C502 C521 1.429 . S
C502 H526 0.950 . S
C503 C520 1.574 . S
C503 C522 1.368 . S
C503 H527 0.949 . S
H504 C508 0.949 . S
C505 C506 1.349 . S
C505 C507 1.327 . S
C505 H528 0.950 . S
C506 C505 1.349 . S
C506 C518 1.349 . S
C507 C505 1.327 . S
C507 C523 1.429 . S
C507 H529 0.950 . S
C508 H504 0.949 . S
C508 C516 1.574 . S
C508 C524 1.368 . S
H509 C517 0.950 . S
H510 C515 0.950 . S
H511 C516 0.949 . S
H512 C518 0.950 . S
H513 C519 0.950 . S
H514 C520 0.949 . S
C515 H510 0.950 . S
C515 C517 1.327 . S
C515 C521 1.429 . S
C516 C508 1.574 . S
C516 H511 0.949 . S
C516 C522 1.368 . S
C517 C501 1.349 . S
C517 H509 0.950 . S
C517 C515 1.327 . S
C518 C506 1.349 . S
C518 H512 0.950 . S
C518 C519 1.327 . S
C519 H513 0.950 . S
C519 C518 1.327 . S
C519 C523 1.429 . S
C520 C503 1.574 . S
C520 H514 0.949 . S
C520 C524 1.368 . S
C521 C502 1.429 . S
C521 C515 1.429 . S
C521 C522 1.523 . S
C522 C503 1.368 . S
C522 C516 1.368 . S
C522 C521 1.523 . S
C523 C507 1.429 . S
C523 C519 1.429 . S
C523 C524 1.523 . S
C524 C508 1.368 . S
C524 C520 1.368 . S
C524 C523 1.523 . S
H525 C500 0.950 . S
H526 C502 0.950 . S
H527 C503 0.949 . S
H528 C505 0.950 . S
H529 C507 0.950 . S
C530 C531 1.349 . S
C530 C532 1.327 . S
C530 H555 0.950 . S
C531 C530 1.349 . S
C531 C547 1.349 . S
C532 C530 1.327 . S
C532 C551 1.429 . S
C532 H556 0.950 . S
C533 C550 1.574 . S
C533 C552 1.368 . S
C533 H557 0.949 . S
H534 C538 0.949 . S
C535 C536 1.349 . S
C535 C537 1.327 . S
C535 H558 0.950 . S
C536 C535 1.349 . S
C536 C548 1.349 . S
C537 C535 1.327 . S
C537 C553 1.429 . S
C537 H559 0.950 . S
C538 H534 0.949 . S
C538 C546 1.574 . S
C538 C554 1.368 . S
H539 C547 0.950 . S
H540 C545 0.950 . S
H541 C546 0.949 . S
H542 C548 0.950 1_655 S
H543 C549 0.935 1_655 S
H544 C550 0.949 . S
C545 H540 0.950 . S
C545 C547 1.327 . S
C545 C551 1.429 . S
C546 C538 1.574 . S
C546 H541 0.949 . S
C546 C552 1.368 . S
C547 C531 1.349 . S
C547 H539 0.950 . S
C547 C545 1.327 . S
C548 C536 1.349 . S
C548 H542 0.950 1_455 S
C548 C549 1.327 . S
C549 H543 0.935 1_455 S
C549 C548 1.327 . S
C549 C553 1.429 . S
C550 C533 1.574 . S
C550 H544 0.949 . S
C550 C554 1.368 . S
C551 C532 1.429 . S
C551 C545 1.429 . S
C551 C552 1.523 . S
C552 C533 1.368 . S
C552 C546 1.368 . S
C552 C551 1.523 . S
C553 C537 1.429 . S
C553 C549 1.429 . S
C553 C554 1.523 . S
C554 C538 1.368 . S
C554 C550 1.368 . S
C554 C553 1.523 . S
H555 C530 0.950 . S
H556 C532 0.950 . S
H557 C533 0.949 . S
H558 C535 0.950 . S
H559 C537 0.950 . S
C560 C561 1.349 . S
C560 C562 1.327 . S
C560 H585 0.950 . S
C561 C560 1.349 . S
C561 C577 1.349 . S
C562 C560 1.327 . S
C562 C581 1.429 . S
C562 H586 0.950 1_554 S
C563 C580 1.574 . S
C563 C582 1.368 . S
C563 H587 0.949 1_556 S
H564 C568 0.949 . S
C565 C566 1.349 1_545 S
C565 C567 1.323 1_545 S
C565 H588 0.950 . S
C566 C565 1.349 1_565 S
C566 C578 1.349 . S
C567 C565 1.323 1_565 S
C567 C583 1.442 . S
C567 H589 0.941 1_565 S
C568 H564 0.949 . S
C568 C576 1.574 . S
C568 C584 1.368 . S
H569 C577 0.950 . S
H570 C575 0.950 . S
H571 C576 0.949 . S
H572 C578 0.950 . S
H573 C579 0.950 . S
H574 C580 0.953 1_545 S
C575 H570 0.950 . S
C575 C577 1.327 . S
C575 C581 1.429 . S
C576 C568 1.574 . S
C576 H571 0.949 . S
C576 C582 1.368 . S
C577 C561 1.349 . S
C577 H569 0.950 . S
C577 C575 1.327 . S
C578 C566 1.349 . S
C578 H572 0.950 . S
C578 C579 1.327 . S
C579 H573 0.950 . S
C579 C578 1.327 . S
C579 C583 1.429 . S
C580 C563 1.574 . S
C580 H574 0.953 1_565 S
C580 C584 1.368 . S
C581 C562 1.429 . S
C581 C575 1.429 . S
C581 C582 1.523 1_554 S
C582 C563 1.368 . S
C582 C576 1.368 . S
C582 C581 1.523 1_556 S
C583 C567 1.442 . S
C583 C579 1.429 . S
C583 C584 1.523 . S
C584 C568 1.368 . S
C584 C580 1.368 . S
C584 C583 1.523 . S
H585 C560 0.950 . S
H586 C562 0.950 1_556 S
H587 C563 0.949 1_554 S
H588 C565 0.950 . S
H589 C567 0.941 1_545 S
C590 C591 1.349 . S
C590 C592 1.327 . S
C590 H615 0.950 . S
C591 C590 1.349 . S
C591 C607 1.349 . S
C592 C590 1.327 . S
C592 C611 1.429 . S
C592 H616 0.950 1_554 S
C593 C610 1.574 . S
C593 C612 1.368 . S
C593 H617 0.949 1_556 S
H594 C598 0.949 . S
C595 C596 1.349 . S
C595 C597 1.327 . S
C595 H618 0.950 . S
C596 C595 1.349 . S
C596 C608 1.349 . S
C597 C595 1.327 . S
C597 C613 1.429 . S
C597 H619 0.950 . S
C598 H594 0.949 . S
C598 C606 1.574 . S
C598 C614 1.368 . S
H599 C607 0.950 . S
H600 C605 0.950 . S
H601 C606 0.949 . S
H602 C608 0.950 . S
H603 C609 0.950 . S
H604 C610 0.949 . S
C605 H600 0.950 . S
C605 C607 1.327 . S
C605 C611 1.429 . S
C606 C598 1.574 . S
C606 H601 0.949 . S
C606 C612 1.368 . S
C607 C591 1.349 . S
C607 H599 0.950 . S
C607 C605 1.327 . S
C608 C596 1.349 . S
C608 H602 0.950 . S
C608 C609 1.327 . S
C609 H603 0.950 . S
C609 C608 1.327 . S
C609 C613 1.429 . S
C610 C593 1.574 . S
C610 H604 0.949 . S
C610 C614 1.368 . S
C611 C592 1.429 . S
C611 C605 1.429 . S
C611 C612 1.523 1_554 S
C612 C593 1.368 . S
C612 C606 1.368 . S
C612 C611 1.523 1_556 S
C613 C597 1.429 . S
C613 C609 1.429 . S
C613 C614 1.523 . S
C614 C598 1.368 . S
C614 C610 1.368 . S
C614 C613 1.523 . S
H615 C590 0.950 . S
H616 C592 0.950 1_556 S
H617 C593 0.949 1_554 S
H618 C595 0.950 . S
H619 C597 0.950 . S
C620 C621 1.349 . S
C620 C622 1.327 . S
C620 H645 0.950 . S
C621 C620 1.349 . S
C621 C637 1.349 . S
C622 C620 1.327 . S
C622 C641 1.429 . S
C622 H646 0.950 . S
C623 C640 1.574 . S
C623 C642 1.368 . S
C623 H647 0.949 . S
H624 C628 0.949 . S
C625 C626 1.349 . S
C625 C627 1.327 . S
C625 H648 0.950 . S
C626 C625 1.349 . S
C626 C638 1.349 . S
C627 C625 1.327 . S
C627 C643 1.429 . S
C627 H649 0.950 . S
C628 H624 0.949 . S
C628 C636 1.574 . S
C628 C644 1.368 . S
H629 C637 0.950 . S
H630 C635 0.950 1_556 S
H631 C636 0.949 1_554 S
H632 C638 0.950 . S
H633 C639 0.950 . S
H634 C640 0.949 . S
C635 H630 0.950 1_554 S
C635 C637 1.327 . S
C635 C641 1.429 . S
C636 C628 1.574 . S
C636 H631 0.949 1_556 S
C636 C642 1.368 . S
C637 C621 1.349 . S
C637 H629 0.950 . S
C637 C635 1.327 . S
C638 C626 1.349 . S
C638 H632 0.950 . S
C638 C639 1.327 . S
C639 H633 0.950 . S
C639 C638 1.327 . S
C639 C643 1.429 . S
C640 C623 1.574 . S
C640 H634 0.949 . S
C640 C644 1.368 . S
C641 C622 1.429 . S
C641 C635 1.429 . S
C641 C642 1.523 1_554 S
C642 C623 1.368 . S
C642 C636 1.368 . S
C642 C641 1.523 1_556 S
C643 C627 1.429 . S
C643 C639 1.429 . S
C643 C644 1.523 . S
C644 C628 1.368 . S
C644 C640 1.368 . S
C644 C643 1.523 . S
H645 C620 0.950 . S
H646 C622 0.950 . S
H647 C623 0.949 . S
H648 C625 0.950 . S
H649 C627 0.950 . S
C650 C651 1.349 . S
C650 C652 1.327 . S
C650 H675 0.950 . S
C651 C650 1.349 . S
C651 C667 1.349 . S
C652 C650 1.327 . S
C652 C671 1.429 . S
C652 H676 0.950 1_554 S
C653 C670 1.573 1_554 S
C653 C672 1.368 1_554 S
C653 H677 0.950 . S
H654 C658 0.949 . S
C655 C656 1.349 . S
C655 C657 1.327 . S
C655 H678 0.950 . S
C656 C655 1.349 . S
C656 C668 1.349 . S
C657 C655 1.327 . S
C657 C673 1.429 . S
C657 H679 0.950 . S
C658 H654 0.949 . S
C658 C666 1.574 . S
C658 C674 1.368 . S
H659 C667 0.950 . S
H660 C665 0.950 . S
H661 C666 0.949 . S
H662 C668 0.950 . S
H663 C669 0.950 . S
H664 C670 0.949 . S
C665 H660 0.950 . S
C665 C667 1.327 . S
C665 C671 1.429 . S
C666 C658 1.574 . S
C666 H661 0.949 . S
C666 C672 1.368 . S
C667 C651 1.349 . S
C667 H659 0.950 . S
C667 C665 1.327 . S
C668 C656 1.349 . S
C668 H662 0.950 . S
C668 C669 1.327 . S
C669 H663 0.950 . S
C669 C668 1.327 . S
C669 C673 1.429 . S
C670 C653 1.573 1_556 S
C670 H664 0.949 . S
C670 C674 1.368 . S
C671 C652 1.429 . S
C671 C665 1.429 . S
C671 C672 1.523 1_554 S
C672 C653 1.368 1_556 S
C672 C666 1.368 . S
C672 C671 1.523 1_556 S
C673 C657 1.429 . S
C673 C669 1.429 . S
C673 C674 1.523 . S
C674 C658 1.368 . S
C674 C670 1.368 . S
C674 C673 1.523 . S
H675 C650 0.950 . S
H676 C652 0.950 1_556 S
H677 C653 0.950 . S
H678 C655 0.950 . S
H679 C657 0.950 . S
C680 C681 1.349 . S
C680 C682 1.327 . S
C680 H705 0.950 . S
C681 C680 1.349 . S
C681 C697 1.349 . S
C682 C680 1.327 . S
C682 C701 1.429 . S
C682 H706 0.950 . S
C683 C700 1.574 . S
C683 C702 1.368 . S
C683 H707 0.949 . S
H684 C688 0.949 . S
C685 C686 1.349 . S
C685 C687 1.327 . S
C685 H708 0.950 . S
C686 C685 1.349 . S
C686 C698 1.349 . S
C687 C685 1.327 . S
C687 C703 1.429 . S
C687 H709 0.950 . S
C688 H684 0.949 . S
C688 C696 1.574 . S
C688 C704 1.368 . S
H689 C697 0.950 1_556 S
H690 C695 0.950 . S
H691 C696 0.949 . S
H692 C698 0.950 . S
H693 C699 0.950 . S
H694 C700 0.949 . S
C695 H690 0.950 . S
C695 C697 1.327 . S
C695 C701 1.429 . S
C696 C688 1.574 . S
C696 H691 0.949 . S
C696 C702 1.368 . S
C697 C681 1.349 . S
C697 H689 0.950 1_554 S
C697 C695 1.327 . S
C698 C686 1.349 . S
C698 H692 0.950 . S
C698 C699 1.327 . S
C699 H693 0.950 . S
C699 C698 1.327 . S
C699 C703 1.429 . S
C700 C683 1.574 . S
C700 H694 0.949 . S
C700 C704 1.368 . S
C701 C682 1.429 . S
C701 C695 1.429 . S
C701 C702 1.523 . S
C702 C683 1.368 . S
C702 C696 1.368 . S
C702 C701 1.523 . S
C703 C687 1.429 . S
C703 C699 1.429 . S
C703 C704 1.523 . S
C704 C688 1.368 . S
C704 C700 1.368 . S
C704 C703 1.523 . S
H705 C680 0.950 . S
H706 C682 0.950 . S
H707 C683 0.949 . S
H708 C685 0.950 . S
H709 C687 0.950 . S
C710 C711 1.349 . S
C710 C712 1.327 . S
C710 H735 0.950 . S
C711 C710 1.349 . S
C711 C727 1.349 . S
C712 C710 1.327 . S
C712 C731 1.429 . S
C712 H736 0.950 . S
C713 C730 1.574 . S
C713 C732 1.368 . S
C713 H737 0.949 . S
H714 C718 0.949 . S
C715 C716 1.349 . S
C715 C717 1.327 . S
C715 H738 0.950 1_545 S
C716 C715 1.349 . S
C716 C728 1.349 . S
C717 C715 1.327 . S
C717 C733 1.429 . S
C717 H739 0.950 . S
C718 H714 0.949 . S
C718 C726 1.574 . S
C718 C734 1.368 . S
H719 C727 0.950 . S
H720 C725 0.950 . S
H721 C726 0.949 . S
H722 C728 0.950 . S
H723 C729 0.950 . S
H724 C730 0.949 . S
C725 H720 0.950 . S
C725 C727 1.327 . S
C725 C731 1.429 . S
C726 C718 1.574 . S
C726 H721 0.949 . S
C726 C732 1.368 . S
C727 C711 1.349 . S
C727 H719 0.950 . S
C727 C725 1.327 . S
C728 C716 1.349 . S
C728 H722 0.950 . S
C728 C729 1.327 . S
C729 H723 0.950 . S
C729 C728 1.327 . S
C729 C733 1.429 . S
C730 C713 1.574 . S
C730 H724 0.949 . S
C730 C734 1.368 . S
C731 C712 1.429 . S
C731 C725 1.429 . S
C731 C732 1.523 . S
C732 C713 1.368 . S
C732 C726 1.368 . S
C732 C731 1.523 . S
C733 C717 1.429 . S
C733 C729 1.429 . S
C733 C734 1.523 . S
C734 C718 1.368 . S
C734 C730 1.368 . S
C734 C733 1.523 . S
H735 C710 0.950 . S
H736 C712 0.950 . S
H737 C713 0.949 . S
H738 C715 0.950 1_565 S
H739 C717 0.950 . S
C740 C741 1.349 . S
C740 C742 1.327 . S
C740 H765 0.950 . S
C741 C740 1.349 . S
C741 C757 1.349 . S
C742 C740 1.327 . S
C742 C761 1.429 . S
C742 H766 0.950 . S
C743 C760 1.574 . S
C743 C762 1.368 . S
C743 H767 0.949 . S
H744 C748 0.949 . S
C745 C746 1.349 . S
C745 C747 1.327 . S
C745 H768 0.950 . S
C746 C745 1.349 . S
C746 C758 1.349 . S
C747 C745 1.327 . S
C747 C763 1.429 . S
C747 H769 0.950 . S
C748 H744 0.949 . S
C748 C756 1.574 . S
C748 C764 1.368 . S
H749 C757 0.950 . S
H750 C755 0.950 . S
H751 C756 0.949 . S
H752 C758 0.950 . S
H753 C759 0.950 . S
H754 C760 0.949 . S
C755 H750 0.950 . S
C755 C757 1.327 . S
C755 C761 1.429 . S
C756 C748 1.574 . S
C756 H751 0.949 . S
C756 C762 1.368 . S
C757 C741 1.349 . S
C757 H749 0.950 . S
C757 C755 1.327 . S
C758 C746 1.349 . S
C758 H752 0.950 . S
C758 C759 1.327 . S
C759 H753 0.950 . S
C759 C758 1.327 . S
C759 C763 1.429 . S
C760 C743 1.574 . S
C760 H754 0.949 . S
C760 C764 1.368 . S
C761 C742 1.429 . S
C761 C755 1.429 . S
C761 C762 1.523 . S
C762 C743 1.368 . S
C762 C756 1.368 . S
C762 C761 1.523 . S
C763 C747 1.429 . S
C763 C759 1.429 . S
C763 C764 1.523 . S
C764 C748 1.368 . S
C764 C760 1.368 . S
C764 C763 1.523 . S
H765 C740 0.950 . S
H766 C742 0.950 . S
H767 C743 0.949 . S
H768 C745 0.950 . S
H769 C747 0.950 . S
C770 C771 1.349 . S
C770 C772 1.327 . S
C770 H795 0.950 . S
C771 C770 1.349 . S
C771 C787 1.349 . S
C772 C770 1.327 . S
C772 C791 1.429 . S
C772 H796 0.950 . S
C773 C790 1.574 . S
C773 C792 1.368 . S
C773 H797 0.949 . S
H774 C778 0.949 . S
C775 C776 1.349 . S
C775 C777 1.327 . S
C775 H798 0.950 . S
C776 C775 1.349 . S
C776 C788 1.349 . S
C777 C775 1.327 . S
C777 C793 1.429 . S
C777 H799 0.950 . S
C778 H774 0.949 . S
C778 C786 1.574 . S
C778 C794 1.368 . S
H779 C787 0.950 1_556 S
H780 C785 0.950 . S
H781 C786 0.949 . S
H782 C788 0.950 . S
H783 C789 0.950 . S
H784 C790 0.949 . S
C785 H780 0.950 . S
C785 C787 1.327 . S
C785 C791 1.429 . S
C786 C778 1.574 . S
C786 H781 0.949 . S
C786 C792 1.368 . S
C787 C771 1.349 . S
C787 H779 0.950 1_554 S
C787 C785 1.327 . S
C788 C776 1.349 . S
C788 H782 0.950 . S
C788 C789 1.327 . S
C789 H783 0.950 . S
C789 C788 1.327 . S
C789 C793 1.429 . S
C790 C773 1.574 . S
C790 H784 0.949 . S
C790 C794 1.368 . S
C791 C772 1.429 . S
C791 C785 1.429 . S
C791 C792 1.523 . S
C792 C773 1.368 . S
C792 C786 1.368 . S
C792 C791 1.523 . S
C793 C777 1.429 . S
C793 C789 1.429 . S
C793 C794 1.523 . S
C794 C778 1.368 . S
C794 C790 1.368 . S
C794 C793 1.523 . S
H795 C770 0.950 . S
H796 C772 0.950 . S
H797 C773 0.949 . S
H798 C775 0.950 . S
H799 C777 0.950 . S
C800 C801 1.349 . S
C800 C802 1.327 . S
C800 H825 0.950 . S
C801 C800 1.349 . S
C801 C817 1.349 . S
C802 C800 1.327 . S
C802 C821 1.429 . S
C802 H826 0.950 . S
C803 C820 1.574 . S
C803 C822 1.368 1_556 S
C803 H827 0.949 . S
H804 C808 0.949 1_455 S
C805 C806 1.349 1_655 S
C805 C807 1.327 . S
C805 H828 0.950 . S
C806 C805 1.349 1_455 S
C806 C818 1.349 . S
C807 C805 1.327 . S
C807 C823 1.429 . S
C807 H829 0.950 . S
C808 H804 0.949 1_655 S
C808 C816 1.574 . S
C808 C824 1.368 1_554 S
H809 C817 0.950 . S
H810 C815 0.950 . S
H811 C816 0.949 . S
H812 C818 0.950 . S
H813 C819 0.950 . S
H814 C820 0.949 . S
C815 H810 0.950 . S
C815 C817 1.327 . S
C815 C821 1.429 . S
C816 C808 1.574 . S
C816 H811 0.949 . S
C816 C822 1.368 . S
C817 C801 1.349 . S
C817 H809 0.950 . S
C817 C815 1.327 . S
C818 C806 1.349 . S
C818 H812 0.950 . S
C818 C819 1.327 . S
C819 H813 0.950 . S
C819 C818 1.327 . S
C819 C823 1.429 1_455 S
C820 C803 1.574 . S
C820 H814 0.949 . S
C820 C824 1.368 . S
C821 C802 1.429 . S
C821 C815 1.429 . S
C821 C822 1.523 . S
C822 C803 1.368 1_554 S
C822 C816 1.368 . S
C822 C821 1.523 . S
C823 C807 1.429 . S
C823 C819 1.429 1_655 S
C823 C824 1.523 . S
C824 C808 1.368 1_556 S
C824 C820 1.368 . S
C824 C823 1.523 . S
H825 C800 0.950 . S
H826 C802 0.950 . S
H827 C803 0.949 . S
H828 C805 0.950 . S
H829 C807 0.950 . S
C830 C831 1.349 . S
C830 C832 1.327 . S
C830 H855 0.950 . S
C831 C830 1.349 . S
C831 C847 1.349 . S
C832 C830 1.327 . S
C832 C851 1.429 . S
C832 H856 0.950 . S
C833 C850 1.574 . S
C833 C852 1.368 1_556 S
C833 H857 0.949 . S
H834 C838 0.949 1_545 S
C835 C836 1.349 1_565 S
C835 C837 1.327 . S
C835 H858 0.950 . S
C836 C835 1.349 1_545 S
C836 C848 1.349 . S
C837 C835 1.327 . S
C837 C853 1.429 . S
C837 H859 0.950 . S
C838 H834 0.949 1_565 S
C838 C846 1.574 . S
C838 C854 1.368 1_554 S
H839 C847 0.950 . S
H840 C845 0.950 . S
H841 C846 0.949 . S
H842 C848 0.950 . S
H843 C849 0.950 . S
H844 C850 0.949 . S
C845 H840 0.950 . S
C845 C847 1.327 . S
C845 C851 1.429 . S
C846 C838 1.574 . S
C846 H841 0.949 . S
C846 C852 1.368 . S
C847 C831 1.349 . S
C847 H839 0.950 . S
C847 C845 1.327 . S
C848 C836 1.349 . S
C848 H842 0.950 . S
C848 C849 1.327 . S
C849 H843 0.950 . S
C849 C848 1.327 . S
C849 C853 1.429 1_545 S
C850 C833 1.574 . S
C850 H844 0.949 . S
C850 C854 1.368 . S
C851 C832 1.429 . S
C851 C845 1.429 . S
C851 C852 1.523 . S
C852 C833 1.368 1_554 S
C852 C846 1.368 . S
C852 C851 1.523 . S
C853 C837 1.429 . S
C853 C849 1.429 1_565 S
C853 C854 1.523 . S
C854 C838 1.368 1_556 S
C854 C850 1.368 . S
C854 C853 1.523 . S
H855 C830 0.950 . S
H856 C832 0.950 . S
H857 C833 0.949 . S
H858 C835 0.950 . S
H859 C837 0.950 . S
C860 C861 1.349 . S
C860 C862 1.327 . S
C860 H885 0.950 . S
C861 C860 1.349 . S
C861 C877 1.349 . S
C862 C860 1.327 . S
C862 C881 1.429 . S
C862 H886 0.950 1_554 S
C863 C880 1.574 . S
C863 C882 1.368 . S
C863 H887 0.949 . S
H864 C868 0.949 . S
C865 C866 1.349 . S
C865 C867 1.327 . S
C865 H888 0.950 . S
C866 C865 1.349 . S
C866 C878 1.349 . S
C867 C865 1.327 . S
C867 C883 1.429 . S
C867 H889 0.950 1_556 S
C868 H864 0.949 . S
C868 C876 1.574 . S
C868 C884 1.368 . S
H869 C877 0.950 . S
H870 C875 0.950 . S
H871 C876 0.949 . S
H872 C878 0.950 . S
H873 C879 0.950 . S
H874 C880 0.949 . S
C875 H870 0.950 . S
C875 C877 1.327 . S
C875 C881 1.429 . S
C876 C868 1.574 . S
C876 H871 0.949 . S
C876 C882 1.368 1_556 S
C877 C861 1.349 . S
C877 H869 0.950 . S
C877 C875 1.327 . S
C878 C866 1.349 . S
C878 H872 0.950 . S
C878 C879 1.327 . S
C879 H873 0.950 . S
C879 C878 1.327 . S
C879 C883 1.429 . S
C880 C863 1.574 . S
C880 H874 0.949 . S
C880 C884 1.368 1_554 S
C881 C862 1.429 . S
C881 C875 1.429 . S
C881 C882 1.523 . S
C882 C863 1.368 . S
C882 C876 1.368 1_554 S
C882 C881 1.523 . S
C883 C867 1.429 . S
C883 C879 1.429 . S
C883 C884 1.523 . S
C884 C868 1.368 . S
C884 C880 1.368 1_556 S
C884 C883 1.523 . S
H885 C860 0.950 . S
H886 C862 0.950 1_556 S
H887 C863 0.949 . S
H888 C865 0.950 . S
H889 C867 0.950 1_554 S
C890 C891 1.349 . S
C890 C892 1.327 . S
C890 H915 0.950 . S
C891 C890 1.349 . S
C891 C907 1.349 . S
C892 C890 1.327 . S
C892 C911 1.429 . S
C892 H916 0.950 . S
C893 C910 1.574 1_554 S
C893 C912 1.368 . S
C893 H917 0.949 . S
H894 C898 0.949 . S
C895 C896 1.349 . S
C895 C897 1.327 . S
C895 H918 0.950 . S
C896 C895 1.349 . S
C896 C908 1.349 . S
C897 C895 1.327 . S
C897 C913 1.429 . S
C897 H919 0.950 . S
C898 H894 0.949 . S
C898 C906 1.574 1_556 S
C898 C914 1.368 . S
H899 C907 0.950 . S
H900 C905 0.950 . S
H901 C906 0.949 . S
H902 C908 0.950 . S
H903 C909 0.950 . S
H904 C910 0.949 . S
C905 H900 0.950 . S
C905 C907 1.327 . S
C905 C911 1.429 . S
C906 C898 1.574 1_554 S
C906 H901 0.949 . S
C906 C912 1.368 . S
C907 C891 1.349 . S
C907 H899 0.950 . S
C907 C905 1.327 . S
C908 C896 1.349 . S
C908 H902 0.950 . S
C908 C909 1.327 . S
C909 H903 0.950 . S
C909 C908 1.327 . S
C909 C913 1.429 . S
C910 C893 1.574 1_556 S
C910 H904 0.949 . S
C910 C914 1.368 . S
C911 C892 1.429 . S
C911 C905 1.429 . S
C911 C912 1.523 . S
C912 C893 1.368 . S
C912 C906 1.368 . S
C912 C911 1.523 . S
C913 C897 1.429 . S
C913 C909 1.429 . S
C913 C914 1.523 . S
C914 C898 1.368 . S
C914 C910 1.368 . S
C914 C913 1.523 . S
H915 C890 0.950 . S
H916 C892 0.950 . S
H917 C893 0.949 . S
H918 C895 0.950 . S
H919 C897 0.950 . S
C920 C921 1.349 . S
C920 C922 1.327 . S
C920 H945 0.950 . S
C921 C920 1.349 . S
C921 C937 1.349 . S
C922 C920 1.327 . S
C922 C941 1.429 . S
C922 H946 0.950 . S
C923 C940 1.574 . S
C923 C942 1.368 . S
C923 H947 0.949 . S
H924 C928 0.949 . S
C925 C926 1.349 . S
C925 C927 1.327 . S
C925 H948 0.950 . S
C926 C925 1.349 . S
C926 C938 1.349 . S
C927 C925 1.327 . S
C927 C943 1.429 . S
C927 H949 0.950 . S
C928 H924 0.949 . S
C928 C936 1.574 . S
C928 C944 1.368 . S
H929 C937 0.950 . S
H930 C935 0.950 . S
H931 C936 0.949 . S
H932 C938 0.950 . S
H933 C939 0.950 . S
H934 C940 0.949 . S
C935 H930 0.950 . S
C935 C937 1.327 . S
C935 C941 1.429 . S
C936 C928 1.574 . S
C936 H931 0.949 . S
C936 C942 1.368 . S
C937 C921 1.349 . S
C937 H929 0.950 . S
C937 C935 1.327 . S
C938 C926 1.349 . S
C938 H932 0.950 . S
C938 C939 1.327 . S
C939 H933 0.950 . S
C939 C938 1.327 . S
C939 C943 1.429 . S
C940 C923 1.574 . S
C940 H934 0.949 . S
C940 C944 1.368 . S
C941 C922 1.429 . S
C941 C935 1.429 . S
C941 C942 1.523 . S
C942 C923 1.368 . S
C942 C936 1.368 . S
C942 C941 1.523 . S
C943 C927 1.429 . S
C943 C939 1.429 . S
C943 C944 1.523 . S
C944 C928 1.368 . S
C944 C940 1.368 . S
C944 C943 1.523 . S
H945 C920 0.950 . S
H946 C922 0.950 . S
H947 C923 0.949 . S
H948 C925 0.950 . S
H949 C927 0.950 . S
C950 C951 1.349 . S
C950 C952 1.327 . S
C950 H975 0.950 . S
C951 C950 1.349 . S
C951 C967 1.349 . S
C952 C950 1.327 . S
C952 C971 1.429 . S
C952 H976 0.950 . S
C953 C970 1.574 . S
C953 C972 1.368 . S
C953 H977 0.949 . S
H954 C958 0.949 . S
C955 C956 1.349 . S
C955 C957 1.327 . S
C955 H978 0.950 . S
C956 C955 1.349 . S
C956 C968 1.349 . S
C957 C955 1.327 . S
C957 C973 1.429 . S
C957 H979 0.950 . S
C958 H954 0.949 . S
C958 C966 1.574 . S
C958 C974 1.368 . S
H959 C967 0.950 . S
H960 C965 0.950 . S
H961 C966 0.949 . S
H962 C968 0.950 1_565 S
H963 C969 0.950 . S
H964 C970 0.949 . S
C965 H960 0.950 . S
C965 C967 1.327 . S
C965 C971 1.429 . S
C966 C958 1.574 . S
C966 H961 0.949 . S
C966 C972 1.368 . S
C967 C951 1.349 . S
C967 H959 0.950 . S
C967 C965 1.327 . S
C968 C956 1.349 . S
C968 H962 0.950 1_545 S
C968 C969 1.327 . S
C969 H963 0.950 . S
C969 C968 1.327 . S
C969 C973 1.429 . S
C970 C953 1.574 . S
C970 H964 0.949 . S
C970 C974 1.368 . S
C971 C952 1.429 . S
C971 C965 1.429 . S
C971 C972 1.523 . S
C972 C953 1.368 . S
C972 C966 1.368 . S
C972 C971 1.523 . S
C973 C957 1.429 . S
C973 C969 1.429 . S
C973 C974 1.523 . S
C974 C958 1.368 . S
C974 C970 1.368 . S
C974 C973 1.523 . S
H975 C950 0.950 . S
H976 C952 0.950 . S
H977 C953 0.949 . S
H978 C955 0.950 . S
H979 C957 0.950 . S
C980 C981 1.349 . S
C980 C982 1.327 . S
C980 H1005 0.950 . S
C981 C980 1.349 . S
C981 C997 1.349 . S
C982 C980 1.327 . S
C982 C1001 1.429 . S
C982 H1006 0.950 . S
C983 C1000 1.574 . S
C983 C1002 1.368 . S
C983 H1007 0.949 . S
H984 C988 0.949 . S
C985 C986 1.349 . S
C985 C987 1.327 . S
C985 H1008 0.950 . S
C986 C985 1.349 . S
C986 C998 1.349 . S
C987 C985 1.327 . S
C987 C1003 1.429 . S
C987 H1009 0.950 . S
C988 H984 0.949 . S
C988 C996 1.574 . S
C988 C1004 1.368 . S
H989 C997 0.950 . S
H990 C995 0.950 . S
H991 C996 0.949 . S
H992 C998 0.950 . S
H993 C999 0.950 . S
H994 C1000 0.949 . S
C995 H990 0.950 . S
C995 C997 1.327 . S
C995 C1001 1.429 . S
C996 C988 1.574 . S
C996 H991 0.949 . S
C996 C1002 1.368 . S
C997 C981 1.349 . S
C997 H989 0.950 . S
C997 C995 1.327 . S
C998 C986 1.349 . S
C998 H992 0.950 . S
C998 C999 1.327 . S
C999 H993 0.950 . S
C999 C998 1.327 . S
C999 C1003 1.429 . S
C1000 C983 1.574 . S
C1000 H994 0.949 . S
C1000 C1004 1.368 . S
C1001 C982 1.429 . S
C1001 C995 1.429 . S
C1001 C1002 1.523 . S
C1002 C983 1.368 . S
C1002 C996 1.368 . S
C1002 C1001 1.523 . S
C1003 C987 1.429 . S
C1003 C999 1.429 . S
C1003 C1004 1.523 . S
C1004 C988 1.368 . S
C1004 C1000 1.368 . S
C1004 C1003 1.523 . S
H1005 C980 0.950 . S
H1006 C982 0.950 . S
H1007 C983 0.949 . S
H1008 C985 0.950 . S
H1009 C987 0.950 . S
C1010 C1011 1.349 . S
C1010 C1012 1.327 . S
C1010 H1035 0.950 . S
C1011 C1010 1.349 . S
C1011 C1027 1.349 . S
C1012 C1010 1.327 . S
C1012 C1031 1.429 . S
C1012 H1036 0.950 . S
C1013 C1030 1.574 . S
C1013 C1032 1.368 . S
C1013 H1037 0.949 . S
H1014 C1018 0.949 . S
C1015 C1016 1.349 . S
C1015 C1017 1.327 . S
C1015 H1038 0.950 . S
C1016 C1015 1.349 . S
C1016 C1028 1.349 . S
C1017 C1015 1.327 . S
C1017 C1033 1.429 . S
C1017 H1039 0.950 . S
C1018 H1014 0.949 . S
C1018 C1026 1.574 . S
C1018 C1034 1.368 . S
H1019 C1027 0.950 . S
H1020 C1025 0.950 . S
H1021 C1026 0.949 . S
H1022 C1028 0.950 . S
H1023 C1029 0.950 . S
H1024 C1030 0.949 . S
C1025 H1020 0.950 . S
C1025 C1027 1.327 . S
C1025 C1031 1.429 . S
C1026 C1018 1.574 . S
C1026 H1021 0.949 . S
C1026 C1032 1.368 . S
C1027 C1011 1.349 . S
C1027 H1019 0.950 . S
C1027 C1025 1.327 . S
C1028 C1016 1.349 . S
C1028 H1022 0.950 . S
C1028 C1029 1.327 . S
C1029 H1023 0.950 . S
C1029 C1028 1.327 . S
C1029 C1033 1.429 . S
C1030 C1013 1.574 . S
C1030 H1024 0.949 . S
C1030 C1034 1.368 . S
C1031 C1012 1.429 . S
C1031 C1025 1.429 . S
C1031 C1032 1.523 . S
C1032 C1013 1.368 . S
C1032 C1026 1.368 . S
C1032 C1031 1.523 . S
C1033 C1017 1.429 . S
C1033 C1029 1.429 . S
C1033 C1034 1.523 . S
C1034 C1018 1.368 . S
C1034 C1030 1.368 . S
C1034 C1033 1.523 . S
H1035 C1010 0.950 . S
H1036 C1012 0.950 . S
H1037 C1013 0.949 . S
H1038 C1015 0.950 . S
H1039 C1017 0.950 . S
C1040 C1041 1.349 . S
C1040 C1042 1.327 . S
C1040 H1065 0.950 . S
C1041 C1040 1.349 . S
C1041 C1057 1.349 . S
C1042 C1040 1.327 . S
C1042 C1061 1.429 . S
C1042 H1066 0.950 . S
C1043 C1060 1.574 . S
C1043 C1062 1.368 . S
C1043 H1067 0.949 . S
H1044 C1048 0.949 . S
C1045 C1046 1.349 . S
C1045 C1047 1.327 . S
C1045 H1068 0.950 . S
C1046 C1045 1.349 . S
C1046 C1058 1.349 . S
C1047 C1045 1.327 . S
C1047 C1063 1.429 . S
C1047 H1069 0.950 . S
C1048 H1044 0.949 . S
C1048 C1056 1.574 . S
C1048 C1064 1.368 . S
H1049 C1057 0.950 . S
H1050 C1055 0.950 . S
H1051 C1056 0.949 . S
H1052 C1058 0.950 . S
H1053 C1059 0.950 . S
H1054 C1060 0.949 . S
C1055 H1050 0.950 . S
C1055 C1057 1.327 . S
C1055 C1061 1.429 . S
C1056 C1048 1.574 . S
C1056 H1051 0.949 . S
C1056 C1062 1.368 . S
C1057 C1041 1.349 . S
C1057 H1049 0.950 . S
C1057 C1055 1.327 . S
C1058 C1046 1.349 . S
C1058 H1052 0.950 . S
C1058 C1059 1.327 . S
C1059 H1053 0.950 . S
C1059 C1058 1.327 . S
C1059 C1063 1.429 . S
C1060 C1043 1.574 . S
C1060 H1054 0.949 . S
C1060 C1064 1.368 . S
C1061 C1042 1.429 . S
C1061 C1055 1.429 . S
C1061 C1062 1.523 . S
C1062 C1043 1.368 . S
C1062 C1056 1.368 . S
C1062 C1061 1.523 . S
C1063 C1047 1.429 . S
C1063 C1059 1.429 . S
C1063 C1064 1.523 . S
C1064 C1048 1.368 . S
C1064 C1060 1.368 . S
C1064 C1063 1.523 . S
H1065 C1040 0.950 . S
H1066 C1042 0.950 . S
H1067 C1043 0.949 . S
H1068 C1045 0.950 . S
H1069 C1047 0.950 . S
C1070 C1071 1.349 . S
C1070 C1072 1.327 . S
C1070 H1095 0.950 . S
C1071 C1070 1.349 . S
C1071 C1087 1.349 . S
C1072 C1070 1.327 . S
C1072 C1091 1.429 . S
C1072 H1096 0.950 . S
C1073 C1090 1.574 . S
C1073 C1092 1.368 . S
C1073 H1097 0.949 . S
H1074 C1078 0.949 1_545 S
C1075 C1076 1.349 . S
C1075 C1077 1.327 . S
C1075 H1098 0.950 . S
C1076 C1075 1.349 . S
C1076 C1088 1.349 1_565 S
C1077 C1075 1.327 . S
C1077 C1093 1.429 . S
C1077 H1099 0.950 . S
C1078 H1074 0.949 1_565 S
C1078 C1086 1.574 . S
C1078 C1094 1.368 . S
H1079 C1087 0.950 . S
H1080 C1085 0.950 . S
H1081 C1086 0.949 . S
H1082 C1088 0.950 . S
H1083 C1089 0.950 1_545 S
H1084 C1090 0.949 . S
C1085 H1080 0.950 . S
C1085 C1087 1.327 . S
C1085 C1091 1.429 . S
C1086 C1078 1.574 . S
C1086 H1081 0.949 . S
C1086 C1092 1.368 . S
C1087 C1071 1.349 . S
C1087 H1079 0.950 . S
C1087 C1085 1.327 . S
C1088 C1076 1.349 1_545 S
C1088 H1082 0.950 . S
C1088 C1089 1.327 1_545 S
C1089 H1083 0.950 1_565 S
C1089 C1088 1.327 1_565 S
C1089 C1093 1.429 . S
C1090 C1073 1.574 . S
C1090 H1084 0.949 . S
C1090 C1094 1.368 . S
C1091 C1072 1.429 . S
C1091 C1085 1.429 . S
C1091 C1092 1.523 . S
C1092 C1073 1.368 . S
C1092 C1086 1.368 . S
C1092 C1091 1.523 . S
C1093 C1077 1.429 . S
C1093 C1089 1.429 . S
C1093 C1094 1.523 . S
C1094 C1078 1.368 . S
C1094 C1090 1.368 . S
C1094 C1093 1.523 . S
H1095 C1070 0.950 . S
H1096 C1072 0.950 . S
H1097 C1073 0.949 . S
H1098 C1075 0.950 . S
H1099 C1077 0.950 . S
C1100 C1101 1.349 . S
C1100 C1102 1.327 . S
C1100 H1125 0.950 . S
C1101 C1100 1.349 . S
C1101 C1117 1.349 . S
C1102 C1100 1.327 . S
C1102 C1121 1.429 . S
C1102 H1126 0.950 . S
C1103 C1120 1.574 . S
C1103 C1122 1.368 . S
C1103 H1127 0.949 . S
H1104 C1108 0.949 . S
C1105 C1106 1.349 . S
C1105 C1107 1.327 . S
C1105 H1128 0.950 . S
C1106 C1105 1.349 . S
C1106 C1118 1.349 . S
C1107 C1105 1.327 . S
C1107 C1123 1.429 . S
C1107 H1129 0.950 . S
C1108 H1104 0.949 . S
C1108 C1116 1.574 . S
C1108 C1124 1.368 . S
H1109 C1117 0.950 . S
H1110 C1115 0.950 . S
H1111 C1116 0.949 . S
H1112 C1118 0.950 . S
H1113 C1119 0.950 . S
H1114 C1120 0.949 . S
C1115 H1110 0.950 . S
C1115 C1117 1.327 . S
C1115 C1121 1.429 . S
C1116 C1108 1.574 . S
C1116 H1111 0.949 . S
C1116 C1122 1.368 . S
C1117 C1101 1.349 . S
C1117 H1109 0.950 . S
C1117 C1115 1.327 . S
C1118 C1106 1.349 . S
C1118 H1112 0.950 . S
C1118 C1119 1.327 . S
C1119 H1113 0.950 . S
C1119 C1118 1.327 . S
C1119 C1123 1.429 . S
C1120 C1103 1.574 . S
C1120 H1114 0.949 . S
C1120 C1124 1.368 . S
C1121 C1102 1.429 . S
C1121 C1115 1.429 . S
C1121 C1122 1.523 . S
C1122 C1103 1.368 . S
C1122 C1116 1.368 . S
C1122 C1121 1.523 . S
C1123 C1107 1.429 . S
C1123 C1119 1.429 . S
C1123 C1124 1.523 . S
C1124 C1108 1.368 . S
C1124 C1120 1.368 . S
C1124 C1123 1.523 . S
H1125 C1100 0.950 . S
H1126 C1102 0.950 . S
H1127 C1103 0.949 . S
H1128 C1105 0.950 . S
H1129 C1107 0.950 . S
C1130 C1131 1.349 . S
C1130 C1132 1.327 . S
C1130 H1155 0.950 . S
C1131 C1130 1.349 . S
C1131 C1147 1.349 . S
C1132 C1130 1.327 . S
C1132 C1151 1.429 . S
C1132 H1156 0.950 . S
C1133 C1150 1.574 . S
C1133 C1152 1.368 . S
C1133 H1157 0.949 . S
H1134 C1138 0.949 . S
C1135 C1136 1.349 . S
C1135 C1137 1.327 . S
C1135 H1158 0.950 . S
C1136 C1135 1.349 . S
C1136 C1148 1.349 . S
C1137 C1135 1.327 . S
C1137 C1153 1.429 . S
C1137 H1159 0.950 . S
C1138 H1134 0.949 . S
C1138 C1146 1.574 . S
C1138 C1154 1.368 . S
H1139 C1147 0.950 . S
H1140 C1145 0.950 . S
H1141 C1146 0.949 . S
H1142 C1148 0.950 . S
H1143 C1149 0.950 . S
H1144 C1150 0.949 . S
C1145 H1140 0.950 . S
C1145 C1147 1.327 . S
C1145 C1151 1.429 . S
C1146 C1138 1.574 . S
C1146 H1141 0.949 . S
C1146 C1152 1.368 . S
C1147 C1131 1.349 . S
C1147 H1139 0.950 . S
C1147 C1145 1.327 . S
C1148 C1136 1.349 . S
C1148 H1142 0.950 . S
C1148 C1149 1.327 . S
C1149 H1143 0.950 . S
C1149 C1148 1.327 . S
C1149 C1153 1.429 . S
C1150 C1133 1.574 . S
C1150 H1144 0.949 . S
C1150 C1154 1.368 . S
C1151 C1132 1.429 . S
C1151 C1145 1.429 . S
C1151 C1152 1.523 . S
C1152 C1133 1.368 . S
C1152 C1146 1.368 . S
C1152 C1151 1.523 . S
C1153 C1137 1.429 . S
C1153 C1149 1.429 . S
C1153 C1154 1.523 . S
C1154 C1138 1.368 . S
C1154 C1150 1.368 . S
C1154 C1153 1.523 . S
H1155 C1130 0.950 . S
H1156 C1132 0.950 . S
H1157 C1133 0.949 . S
H1158 C1135 0.950 . S
H1159 C1137 0.950 . S
C441 C82 1.707 . S
C446 C179 1.847 . S
C476 C263 1.877 . S
C471 C95 1.739 . S
C506 C339 1.889 . S
C501 C56 1.851 . S
C536 C423 1.863 . S
C531 C69 1.822 . S
C566 C170 1.847 1_565 S
C561 C30 1.646 . S
C591 C43 1.672 . S
C596 C254 1.877 . S
C621 C4 1.779 . S
C626 C328 1.889 . S
C651 C17 1.755 . S
C656 C412 1.863 . S
C686 C167 0.520 1_455 S
C681 C74 0.500 . S
C716 C251 0.519 . S
C711 C87 0.470 . S
C746 C344 0.509 . S
C741 C100 0.449 . S
C771 C61 0.476 . S
C776 C428 0.521 . S
C801 C22 0.505 . S
C806 C176 0.535 . S
C836 C260 0.519 . S
C831 C35 0.476 . S
C866 C335 0.509 . S
C861 C48 0.456 . S
C891 C9 0.481 . S
C896 C419 0.521 . S
C921 C73 1.950 . S
C926 C160 1.987 . S
C951 C86 1.915 . S
C956 C244 1.951 . S
C986 C338 1.939 . S
C981 C99 1.813 . S
C1016 C422 1.972 . S
C1011 C60 1.844 . S
C1041 C21 1.944 . S
C1046 C171 1.987 . S
C1076 C255 1.948 1_565 S
C1071 C34 1.909 . S
C1106 C347 1.939 . S
C1101 C47 1.807 . S
C1131 C8 1.837 . S
C1136 C431 1.972 . S
