# Generated by pormake.
# Topology eea, (3,6)-cn, num edge types: 1
# Building blocks:
#     Node 0, Type 0, BuildingBlock: VETTIZ_charged_linker_0, # of connection points: 3
#     Node 1, Type 0, BuildingBlock: VETTIZ_charged_linker_0, # of connection points: 3
#     Node 2, Type 0, BuildingBlock: VETTIZ_charged_linker_0, # of connection points: 3
#     Node 3, Type 0, BuildingBlock: VETTIZ_charged_linker_0, # of connection points: 3
#     Node 4, Type 0, BuildingBlock: VETTIZ_charged_linker_0, # of connection points: 3
#     Node 5, Type 0, BuildingBlock: VETTIZ_charged_linker_0, # of connection points: 3
#     Node 6, Type 0, BuildingBlock: VETTIZ_charged_linker_0, # of connection points: 3
#     Node 7, Type 0, BuildingBlock: VETTIZ_charged_linker_0, # of connection points: 3
#     Node 8, Type 0, BuildingBlock: VETTIZ_charged_linker_0, # of connection points: 3
#     Node 9, Type 0, BuildingBlock: VETTIZ_charged_linker_0, # of connection points: 3
#     Node 10, Type 0, BuildingBlock: VETTIZ_charged_linker_0, # of connection points: 3
#     Node 11, Type 0, BuildingBlock: VETTIZ_charged_linker_0, # of connection points: 3
#     Node 12, Type 0, BuildingBlock: VETTIZ_charged_linker_0, # of connection points: 3
#     Node 13, Type 0, BuildingBlock: VETTIZ_charged_linker_0, # of connection points: 3
#     Node 14, Type 0, BuildingBlock: VETTIZ_charged_linker_0, # of connection points: 3
#     Node 15, Type 0, BuildingBlock: VETTIZ_charged_linker_0, # of connection points: 3
#     Node 16, Type 0, BuildingBlock: VETTIZ_charged_linker_0, # of connection points: 3
#     Node 17, Type 0, BuildingBlock: VETTIZ_charged_linker_0, # of connection points: 3
#     Node 18, Type 1, BuildingBlock: CIFDUS_clean_sbu_1, # of connection points: 6
#     Node 19, Type 1, BuildingBlock: CIFDUS_clean_sbu_1, # of connection points: 6
#     Node 20, Type 1, BuildingBlock: CIFDUS_clean_sbu_1, # of connection points: 6
#     Node 21, Type 1, BuildingBlock: CIFDUS_clean_sbu_1, # of connection points: 6
#     Node 22, Type 1, BuildingBlock: CIFDUS_clean_sbu_1, # of connection points: 6
#     Node 23, Type 1, BuildingBlock: CIFDUS_clean_sbu_1, # of connection points: 6
#     Node 24, Type 1, BuildingBlock: CIFDUS_clean_sbu_1, # of connection points: 6
#     Node 25, Type 1, BuildingBlock: CIFDUS_clean_sbu_1, # of connection points: 6
#     Node 26, Type 1, BuildingBlock: CIFDUS_clean_sbu_1, # of connection points: 6
#     Edge 27, Type (0, 1), None
#     Edge 28, Type (0, 1), None
#     Edge 29, Type (0, 1), None
#     Edge 30, Type (0, 1), None
#     Edge 31, Type (0, 1), None
#     Edge 32, Type (0, 1), None
#     Edge 33, Type (0, 1), None
#     Edge 34, Type (0, 1), None
#     Edge 35, Type (0, 1), None
#     Edge 36, Type (0, 1), None
#     Edge 37, Type (0, 1), None
#     Edge 38, Type (0, 1), None
#     Edge 39, Type (0, 1), None
#     Edge 40, Type (0, 1), None
#     Edge 41, Type (0, 1), None
#     Edge 42, Type (0, 1), None
#     Edge 43, Type (0, 1), None
#     Edge 44, Type (0, 1), None
#     Edge 45, Type (0, 1), None
#     Edge 46, Type (0, 1), None
#     Edge 47, Type (0, 1), None
#     Edge 48, Type (0, 1), None
#     Edge 49, Type (0, 1), None
#     Edge 50, Type (0, 1), None
#     Edge 51, Type (0, 1), None
#     Edge 52, Type (0, 1), None
#     Edge 53, Type (0, 1), None
#     Edge 54, Type (0, 1), None
#     Edge 55, Type (0, 1), None
#     Edge 56, Type (0, 1), None
#     Edge 57, Type (0, 1), None
#     Edge 58, Type (0, 1), None
#     Edge 59, Type (0, 1), None
#     Edge 60, Type (0, 1), None
#     Edge 61, Type (0, 1), None
#     Edge 62, Type (0, 1), None
#     Edge 63, Type (0, 1), None
#     Edge 64, Type (0, 1), None
#     Edge 65, Type (0, 1), None
#     Edge 66, Type (0, 1), None
#     Edge 67, Type (0, 1), None
#     Edge 68, Type (0, 1), None
#     Edge 69, Type (0, 1), None
#     Edge 70, Type (0, 1), None
#     Edge 71, Type (0, 1), None
#     Edge 72, Type (0, 1), None
#     Edge 73, Type (0, 1), None
#     Edge 74, Type (0, 1), None
#     Edge 75, Type (0, 1), None
#     Edge 76, Type (0, 1), None
#     Edge 77, Type (0, 1), None
#     Edge 78, Type (0, 1), None
#     Edge 79, Type (0, 1), None
#     Edge 80, Type (0, 1), None
# Relax obj value: 0.101
# Max RMSD: 0.186
# Mean RMSD: 0.095
data_MOF--net-eea--node1-CIFDUS_clean_sbu_1--node2-VETTIZ_charged_linker_0--edge1-none
_symmetry_space_group_name_H-M    P1
_symmetry_Int_Tables_number       1
_symmetry_cell_setting            triclinic
loop_
_symmetry_equiv_pos_as_xyz
'x, y, z'
_cell_length_a     35.87192
_cell_length_b     35.850987
_cell_length_c     37.12752
_cell_angle_alpha  90.409152
_cell_angle_beta   90.336193
_cell_angle_gamma 120.11557
loop_
_atom_site_label
_atom_site_type_symbol
_atom_site_fract_x
_atom_site_fract_y
_atom_site_fract_z
_atom_type_partial_charge
C0 C 0.18362 0.18517 0.34482 0.0
C1 C 0.19463 0.22672 0.35597 0.0
C2 C 0.21632 0.24289 0.3892 0.0
C3 C 0.21864 0.17668 0.39752 0.0
C4 C 0.19613 0.16121 0.36543 0.0
C5 C 0.18843 0.11768 0.35491 0.0
H6 H 0.20907 0.94595 0.38943 0.0
C7 C 0.22744 0.14302 0.41121 0.0
C8 C 0.2084 0.10814 0.38667 0.0
H9 H 0.15129 0.96901 0.2964 0.0
H10 H 0.16147 0.03474 0.32339 0.0
H11 H 0.28733 0.03863 0.38991 0.0
H12 H 0.17163 0.978 0.451 0.0
H13 H 0.20879 0.02034 0.47908 0.0
H14 H 0.21946 0.9783 0.46532 0.0
H15 H 0.27624 -0.00014 0.42454 0.0
H16 H 0.30199 0.05672 0.4347 0.0
C17 C 0.21391 0.12237 0.31993 0.0
C18 C 0.139 0.08642 0.35166 0.0
C19 C 0.31407 0.16446 0.5264 0.0
C20 C 0.32475 0.13731 0.54561 0.0
C21 C 0.31222 0.09607 0.53192 0.0
C22 C 0.28946 0.08214 0.49908 0.0
C23 C 0.27846 0.10943 0.48043 0.0
C24 C 0.29065 0.14985 0.49416 0.0
C25 C 0.27424 0.17356 0.47157 0.0
C26 C 0.25043 0.14071 0.44171 0.0
C27 C 0.25335 0.10346 0.44712 0.0
C28 C 0.31336 0.21503 0.45731 0.0
C29 C 0.24345 0.18195 0.49475 0.0
C30 C 0.19613 0.96388 0.37608 0.0
C31 C 0.17799 0.95189 0.34147 0.0
C32 C 0.16384 0.97711 0.32372 0.0
C33 C 0.17086 0.01582 0.33913 0.0
C34 C 0.19289 0.02962 0.37232 0.0
C35 C 0.20457 0.00351 0.39041 0.0
C36 C 0.23141 0.02527 0.42335 0.0
C37 C 0.23328 0.06831 0.42251 0.0
C38 C 0.2107 0.07057 0.39268 0.0
C39 C 0.27661 0.03029 0.41825 0.0
C40 C 0.20674 -0.00091 0.4565 0.0
H41 H 0.24584 0.23187 0.43488 0.0
H42 H 0.16723 0.17209 0.31926 0.0
H43 H 0.12045 0.09862 0.36669 0.0
H44 H 0.1288 0.05452 0.36354 0.0
H45 H 0.12797 0.08187 0.32312 0.0
H46 H 0.24611 0.15223 0.32101 0.0
H47 H 0.19646 0.12433 0.29587 0.0
H48 H 0.22075 0.09585 0.31577 0.0
H49 H 0.32297 0.19621 0.53678 0.0
H50 H 0.31994 0.07476 0.5466 0.0
H51 H 0.28047 0.05029 0.48981 0.0
H52 H 0.33812 0.20792 0.44671 0.0
H53 H 0.32861 0.23963 0.47914 0.0
H54 H 0.30484 0.22937 0.43483 0.0
H55 H 0.22283 0.15349 0.51163 0.0
H56 H 0.22082 0.18731 0.47844 0.0
H57 H 0.26184 0.2101 0.5131 0.0
H58 H 0.22592 0.27543 0.39786 0.0
C59 C 0.22841 0.21787 0.41022 0.0
C60 C 0.00378 0.21231 0.33734 0.0
C61 C 0.02884 0.25493 0.35035 0.0
C62 C 0.01582 0.26776 0.3815 0.0
C63 C 0.95497 0.19632 0.38772 0.0
C64 C 0.96636 0.18363 0.3564 0.0
C65 C 0.93391 0.13743 0.34671 0.0
H66 H 0.74446 0.95614 0.38107 0.0
C67 C 0.91626 0.1591 0.40239 0.0
C68 C 0.90341 0.12431 0.37879 0.0
H69 H 0.82974 0.98557 0.29047 0.0
H70 H 0.8819 0.0517 0.31869 0.0
H71 H 0.82819 0.99391 0.44215 0.0
H72 H 0.75906 0.05369 0.39758 0.0
H73 H 0.76147 0.05569 0.44553 0.0
H74 H 0.73289 0.00447 0.42275 0.0
H75 H 0.77419 0.97779 0.4554 0.0
H76 H 0.82006 0.02418 0.47548 0.0
C77 C 0.95774 0.11143 0.34463 0.0
C78 C 0.91132 0.13799 0.31115 0.0
C79 C 0.87237 0.17561 0.5265 0.0
C80 C 0.84433 0.14744 0.55254 0.0
C81 C 0.81393 0.10489 0.54159 0.0
C82 C 0.81393 0.09049 0.50579 0.0
C83 C 0.8449 0.11895 0.4811 0.0
C84 C 0.87277 0.16087 0.492 0.0
C85 C 0.90553 0.18705 0.46449 0.0
C86 C 0.89416 0.154 0.43505 0.0
C87 C 0.85825 0.11413 0.44411 0.0
C88 C 0.95096 0.20204 0.48085 0.0
C89 C 0.89743 0.22394 0.45275 0.0
C90 C 0.77494 0.97654 0.36804 0.0
C91 C 0.78309 0.96605 0.33342 0.0
C92 C 0.82285 0.99324 0.31703 0.0
C93 C 0.85292 0.03196 0.33322 0.0
C94 C 0.84336 0.04389 0.3663 0.0
C95 C 0.80584 0.01595 0.3841 0.0
C96 C 0.80341 0.03437 0.42025 0.0
C97 C 0.84356 0.07896 0.41928 0.0
C98 C 0.86653 0.08411 0.38724 0.0
C99 C 0.80635 0.00612 0.45009 0.0
C100 C 0.76188 0.03716 0.42181 0.0
H101 H 0.9721 0.25119 0.42377 0.0
H102 H 0.0127 0.20187 0.31309 0.0
H103 H 0.90544 0.16567 0.31098 0.0
H104 H 0.87918 0.10925 0.30722 0.0
H105 H 0.93155 0.14133 0.28749 0.0
H106 H 0.98634 0.12538 0.36297 0.0
H107 H 0.96923 0.11138 0.31693 0.0
H108 H 0.93764 0.07777 0.35363 0.0
H109 H 0.89578 0.20888 0.53298 0.0
H110 H 0.79095 0.08281 0.56072 0.0
H111 H 0.79043 0.0578 0.49872 0.0
H112 H 0.94968 0.17842 0.5008 0.0
H113 H 0.96418 0.23387 0.49459 0.0
H114 H 0.97462 0.20388 0.46103 0.0
H115 H 0.86287 0.21436 0.45529 0.0
H116 H 0.90469 0.23227 0.424 0.0
H117 H 0.91643 0.25338 0.4696 0.0
H118 H 0.03434 0.30047 0.3919 0.0
C119 C 0.97932 0.23896 0.40007 0.0
C120 C 0.01004 0.78911 0.36047 0.0
C121 C 0.0363 0.7754 0.37793 0.0
C122 C 0.01693 0.74123 0.40267 0.0
C123 C 0.95075 0.74205 0.39946 0.0
C124 C 0.96656 0.77122 0.3716 0.0
C125 C 0.93131 0.77881 0.35681 0.0
H126 H 0.73527 0.76013 0.39323 0.0
C127 C 0.90801 0.73404 0.40941 0.0
C128 C 0.89537 0.75494 0.3843 0.0
H129 H 0.80203 0.80483 0.29268 0.0
H130 H 0.86093 0.79488 0.31628 0.0
H131 H 0.74085 0.68038 0.39764 0.0
H132 H 0.8195 0.80659 0.44404 0.0
H133 H 0.81323 0.76985 0.47752 0.0
H134 H 0.76594 0.76923 0.45866 0.0
H135 H 0.7235 0.69896 0.4355 0.0
H136 H 0.75385 0.67177 0.44124 0.0
C137 C 0.9182 0.7574 0.31917 0.0
C138 C 0.94735 0.82748 0.35623 0.0
C139 C 0.8483 0.6648 0.53061 0.0
C140 C 0.81418 0.66094 0.55169 0.0
C141 C 0.78754 0.67602 0.53828 0.0
C142 C 0.79436 0.6939 0.50369 0.0
C143 C 0.82906 0.69794 0.48288 0.0
C144 C 0.85559 0.68397 0.49678 0.0
C145 C 0.89289 0.6939 0.47262 0.0
C146 C 0.88382 0.71537 0.4411 0.0
C147 C 0.84643 0.71713 0.44722 0.0
C148 C 0.88998 0.65065 0.46142 0.0
C149 C 0.93463 0.72552 0.49373 0.0
C150 C 0.76248 0.76794 0.37598 0.0
C151 C 0.76392 0.78288 0.34124 0.0
C152 C 0.80023 0.79314 0.31979 0.0
C153 C 0.83386 0.78675 0.33329 0.0
C154 C 0.83019 0.76922 0.36799 0.0
C155 C 0.79439 0.76008 0.38809 0.0
C156 C 0.7928 0.74003 0.42326 0.0
C157 C 0.83207 0.73575 0.42116 0.0
C158 C 0.85549 0.75411 0.38941 0.0
C159 C 0.75056 0.69559 0.42487 0.0
C160 C 0.79781 0.77277 0.4527 0.0
H161 H 0.96281 0.69951 0.43271 0.0
H162 H 0.02312 0.81343 0.33982 0.0
H163 H 0.9595 0.84212 0.38334 0.0
H164 H 0.92142 0.83403 0.34852 0.0
H165 H 0.97399 0.84405 0.33673 0.0
H166 H 0.91324 0.72419 0.31977 0.0
H167 H 0.94372 0.77619 0.29925 0.0
H168 H 0.88761 0.7541 0.30942 0.0
H169 H 0.87004 0.65456 0.54091 0.0
H170 H 0.76164 0.67406 0.55453 0.0
H171 H 0.77255 0.70426 0.49471 0.0
H172 H 0.85733 0.62245 0.46593 0.0
H173 H 0.91328 0.64511 0.47698 0.0
H174 H 0.89562 0.64927 0.43222 0.0
H175 H 0.9313 0.75195 0.50631 0.0
H176 H 0.96358 0.74165 0.477 0.0
H177 H 0.94124 0.7086 0.51563 0.0
H178 H 0.03484 0.72756 0.41491 0.0
C179 C 0.97472 0.7246 0.41324 0.0
C180 C 0.21777 0.20316 0.64598 0.0
C181 C 0.26042 0.22347 0.63254 0.0
C182 C 0.27675 0.26354 0.61511 0.0
C183 C 0.20629 0.25387 0.61182 0.0
C184 C 0.1913 0.22046 0.6359 0.0
C185 C 0.14732 0.21058 0.64951 0.0
H186 H 0.97049 0.22957 0.6092 0.0
C187 C 0.17199 0.26139 0.60108 0.0
C188 C 0.13694 0.23791 0.62407 0.0
H189 H 0.98847 0.17975 0.70897 0.0
H190 H 0.05861 0.19162 0.68757 0.0
H191 H 0.04811 0.30731 0.61365 0.0
H192 H 0.02003 0.19298 0.55345 0.0
H193 H 0.04045 0.23738 0.52431 0.0
H194 H 0.99285 0.22329 0.5493 0.0
H195 H 0.02693 0.29914 0.56867 0.0
H196 H 0.08436 0.32645 0.57785 0.0
C197 C 0.15323 0.22701 0.68881 0.0
C198 C 0.11472 0.16208 0.64573 0.0
C199 C 0.17522 0.31317 0.47205 0.0
C200 C 0.14631 0.32263 0.45389 0.0
C201 C 0.11207 0.32146 0.47367 0.0
C202 C 0.1049 0.30887 0.50918 0.0
C203 C 0.13157 0.29653 0.52617 0.0
C204 C 0.16749 0.30095 0.50874 0.0
C205 C 0.19576 0.29348 0.53455 0.0
C206 C 0.16775 0.27977 0.56872 0.0
C207 C 0.12973 0.28011 0.56257 0.0
C208 C 0.23896 0.33658 0.53932 0.0
C209 C 0.2023 0.25692 0.51958 0.0
C210 C 0.98904 0.22045 0.62648 0.0
C211 C 0.97407 0.20366 0.66044 0.0
C212 C 0.99942 0.1927 0.68238 0.0
C213 C 0.04024 0.20036 0.67025 0.0
C214 C 0.05582 0.22031 0.63663 0.0
C215 C 0.0298 0.22999 0.61589 0.0
C216 C 0.05095 0.25494 0.58308 0.0
C217 C 0.09497 0.25979 0.58685 0.0
C218 C 0.09801 0.23864 0.61774 0.0
C219 C 0.05255 0.29913 0.58562 0.0
C220 C 0.02503 0.22607 0.55056 0.0
H221 H 0.26346 0.30988 0.59295 0.0
H222 H 0.20541 0.17471 0.6625 0.0
H223 H 0.11296 0.15119 0.61734 0.0
H224 H 0.08202 0.15452 0.65366 0.0
H225 H 0.12434 0.1431 0.66305 0.0
H226 H 0.18148 0.26019 0.69135 0.0
H227 H 0.15878 0.20577 0.70703 0.0
H228 H 0.12536 0.22899 0.69858 0.0
H229 H 0.20285 0.31548 0.45835 0.0
H230 H 0.0895 0.32961 0.4617 0.0
H231 H 0.07798 0.30847 0.52165 0.0
H232 H 0.2444 0.35998 0.51765 0.0
H233 H 0.2671 0.33165 0.538 0.0
H234 H 0.23996 0.35291 0.56517 0.0
H235 H 0.17079 0.22677 0.51573 0.0
H236 H 0.22233 0.24992 0.538 0.0
H237 H 0.21889 0.26596 0.49322 0.0
H238 H 0.31043 0.28256 0.60791 0.0
C239 C 0.24984 0.27887 0.60503 0.0
C240 C 0.82706 0.82246 0.6628 0.0
C241 C 0.82644 0.78536 0.64986 0.0
C242 C 0.80981 0.76969 0.61512 0.0
C243 C 0.78526 0.82134 0.61096 0.0
C244 C 0.80464 0.83862 0.64381 0.0
C245 C 0.79053 0.86825 0.65925 0.0
H246 H 0.78245 0.0388 0.62231 0.0
C247 C 0.76169 0.84324 0.59964 0.0
C248 C 0.76511 0.87111 0.62733 0.0
H249 H 0.77911 0.98219 0.72623 0.0
H250 H 0.75377 0.91376 0.69783 0.0
H251 H 0.81644 0.98432 0.5653 0.0
H252 H 0.68533 0.94135 0.60005 0.0
H253 H 0.6899 0.93545 0.55326 0.0
H254 H 0.71389 0.98868 0.5729 0.0
H255 H 0.79281 0.01775 0.55946 0.0
H256 H 0.77782 0.97262 0.53001 0.0
C257 C 0.83136 0.91186 0.66916 0.0
C258 C 0.76082 0.8456 0.69193 0.0
C259 C 0.71189 0.82419 0.47115 0.0
C260 C 0.70011 0.84659 0.44712 0.0
C261 C 0.7016 0.88473 0.45945 0.0
C262 C 0.71371 0.8992 0.49559 0.0
C263 C 0.72457 0.87535 0.51922 0.0
C264 C 0.72391 0.83884 0.50628 0.0
C265 C 0.7385 0.81804 0.53322 0.0
C266 C 0.74545 0.84598 0.56562 0.0
C267 C 0.7374 0.8798 0.55791 0.0
C268 C 0.7813 0.82186 0.52022 0.0
C269 C 0.70158 0.77121 0.53941 0.0
C270 C 0.77831 0.01208 0.63861 0.0
C271 C 0.78611 0.017 0.67634 0.0
C272 C 0.776 0.98043 0.69714 0.0
C273 C 0.76199 0.94079 0.68092 0.0
C274 C 0.76054 0.93798 0.64362 0.0
C275 C 0.76436 0.9712 0.62279 0.0
C276 C 0.75003 0.95551 0.58427 0.0
C277 C 0.74345 0.90988 0.58583 0.0
C278 C 0.75277 0.90212 0.62079 0.0
C279 C 0.78619 0.98411 0.55816 0.0
C280 C 0.70758 0.95531 0.57693 0.0
H281 H 0.7708 0.76959 0.57239 0.0
H282 H 0.83734 0.83334 0.69031 0.0
H283 H 0.75058 0.81076 0.69337 0.0
H284 H 0.73013 0.84598 0.69015 0.0
H285 H 0.77723 0.86067 0.71789 0.0
H286 H 0.85758 0.90719 0.68014 0.0
H287 H 0.82548 0.92974 0.69057 0.0
H288 H 0.8442 0.93271 0.64513 0.0
H289 H 0.71226 0.79533 0.46288 0.0
H290 H 0.6931 0.90298 0.44142 0.0
H291 H 0.71478 0.92849 0.50372 0.0
H292 H 0.79151 0.83756 0.49357 0.0
H293 H 0.77806 0.78969 0.51772 0.0
H294 H 0.80882 0.84173 0.5387 0.0
H295 H 0.67004 0.76999 0.54145 0.0
H296 H 0.70566 0.75777 0.56488 0.0
H297 H 0.69926 0.74965 0.5168 0.0
H298 H 0.80736 0.74003 0.60522 0.0
C299 C 0.78805 0.78671 0.59609 0.0
C300 C 0.99305 0.78315 0.64388 0.0
C301 C 0.96975 0.74139 0.62823 0.0
C302 C 0.99056 0.72909 0.60245 0.0
C303 C 0.05239 0.8001 0.6031 0.0
C304 C 0.03497 0.81197 0.631 0.0
C305 C 0.06665 0.85736 0.64399 0.0
H306 H 0.25608 0.04404 0.61322 0.0
C307 C 0.09354 0.83719 0.59256 0.0
C308 C 0.1028 0.87134 0.61645 0.0
H309 H 0.17693 0.01293 0.70754 0.0
H310 H 0.12399 0.94472 0.68027 0.0
H311 H 0.25295 0.95721 0.61293 0.0
H312 H 0.18225 0.00284 0.55221 0.0
H313 H 0.18566 0.96515 0.52401 0.0
H314 H 0.23434 0.01288 0.53901 0.0
H315 H 0.27591 -0.00376 0.57776 0.0
H316 H 0.25004 0.93924 0.56821 0.0
C317 C 0.08208 0.85434 0.68229 0.0
C318 C 0.04465 0.88487 0.64215 0.0
C319 C 0.15919 0.82848 0.47434 0.0
C320 C 0.19421 0.8586 0.4541 0.0
C321 C 0.22103 0.90017 0.4685 0.0
C322 C 0.21255 0.91143 0.50276 0.0
C323 C 0.17618 0.88121 0.52205 0.0
C324 C 0.15048 0.84048 0.50769 0.0
C325 C 0.11294 0.81237 0.53115 0.0
C326 C 0.11982 0.84329 0.56215 0.0
C327 C 0.15663 0.88343 0.55661 0.0
C328 C 0.11755 0.7734 0.54315 0.0
C329 C 0.07121 0.79991 0.50925 0.0
C330 C 0.22611 0.02371 0.62705 0.0
C331 C 0.21981 0.0345 0.66187 0.0
C332 C 0.18161 0.00589 0.68006 0.0
C333 C 0.15161 0.96579 0.66465 0.0
C334 C 0.16056 0.95373 0.63114 0.0
C335 C 0.19725 0.98277 0.61297 0.0
C336 C 0.20479 0.96317 0.5801 0.0
C337 C 0.16715 0.91774 0.58133 0.0
C338 C 0.14063 0.91209 0.61104 0.0
C339 C 0.2483 0.96413 0.58461 0.0
C340 C 0.20192 0.98732 0.54698 0.0
H341 H 0.04403 0.74621 0.5699 0.0
H342 H 0.97892 0.79321 0.66476 0.0
H343 H 0.02846 0.88045 0.61554 0.0
H344 H 0.06764 0.91968 0.64523 0.0
H345 H 0.01988 0.87526 0.66338 0.0
H346 H 0.08559 0.82531 0.68468 0.0
H347 H 0.0587 0.85195 0.70292 0.0
H348 H 0.11424 0.88182 0.68909 0.0
H349 H 0.13814 0.79615 0.46398 0.0
H350 H 0.24822 0.9238 0.45327 0.0
H351 H 0.23395 0.94355 0.51262 0.0
H352 H 0.15038 0.77856 0.53828 0.0
H353 H 0.09445 0.74344 0.52838 0.0
H354 H 0.11275 0.76778 0.57254 0.0
H355 H 0.07338 0.82889 0.49644 0.0
H356 H 0.04187 0.78601 0.52564 0.0
H357 H 0.06613 0.77632 0.48749 0.0
H358 H 0.97506 0.69692 0.59077 0.0
C359 C 0.03121 0.75791 0.59002 0.0
C360 C 0.85028 0.5185 0.67815 0.0
C361 C 0.86129 0.56005 0.68931 0.0
C362 C 0.88299 0.57622 0.72254 0.0
C363 C 0.88531 0.51001 0.73085 0.0
C364 C 0.8628 0.49454 0.69876 0.0
C365 C 0.85509 0.45101 0.68824 0.0
H366 H 0.87573 0.27927 0.72277 0.0
C367 C 0.89411 0.47635 0.74454 0.0
C368 C 0.87507 0.44147 0.72 0.0
H369 H 0.81791 0.30232 0.62976 0.0
H370 H 0.82811 0.36806 0.65673 0.0
H371 H 0.954 0.37196 0.72324 0.0
H372 H 0.83831 0.31133 0.78434 0.0
H373 H 0.87546 0.35368 0.81242 0.0
H374 H 0.88614 0.31165 0.79866 0.0
H375 H 0.94291 0.33319 0.75786 0.0
H376 H 0.96866 0.39005 0.76803 0.0
C377 C 0.88057 0.45569 0.65327 0.0
C378 C 0.80566 0.41975 0.68499 0.0
C379 C 0.98074 0.4978 0.85973 0.0
C380 C 0.99142 0.47065 0.87894 0.0
C381 C 0.97889 0.42941 0.86525 0.0
C382 C 0.95614 0.41548 0.83241 0.0
C383 C 0.94513 0.44276 0.81375 0.0
C384 C 0.95732 0.48318 0.82749 0.0
C385 C 0.9409 0.50689 0.8049 0.0
C386 C 0.9171 0.47405 0.77504 0.0
C387 C 0.92002 0.43679 0.78045 0.0
C388 C 0.98003 0.54836 0.79064 0.0
C389 C 0.91011 0.51528 0.82808 0.0
C390 C 0.86278 0.2972 0.70942 0.0
C391 C 0.84463 0.28521 0.67481 0.0
C392 C 0.83048 0.31042 0.65707 0.0
C393 C 0.8375 0.34914 0.67247 0.0
C394 C 0.85955 0.36294 0.70566 0.0
C395 C 0.87123 0.33684 0.72375 0.0
C396 C 0.89808 0.3586 0.75669 0.0
C397 C 0.89995 0.40164 0.75584 0.0
C398 C 0.87736 0.4039 0.72601 0.0
C399 C 0.94328 0.36362 0.75158 0.0
C400 C 0.87342 0.33243 0.78984 0.0
H401 H 0.9125 0.5652 0.76821 0.0
H402 H 0.8339 0.50543 0.65259 0.0
H403 H 0.78711 0.43195 0.70002 0.0
H404 H 0.79546 0.38786 0.69688 0.0
H405 H 0.79463 0.41519 0.65645 0.0
H406 H 0.91277 0.48555 0.65434 0.0
H407 H 0.86312 0.45767 0.6292 0.0
H408 H 0.88739 0.42917 0.6491 0.0
H409 H 0.98963 0.52955 0.87011 0.0
H410 H 0.98661 0.4081 0.87993 0.0
H411 H 0.94715 0.38363 0.82314 0.0
H412 H 0.00478 0.54126 0.78004 0.0
H413 H 0.99527 0.57296 0.81247 0.0
H414 H 0.9715 0.5627 0.76816 0.0
H415 H 0.8895 0.48682 0.84496 0.0
H416 H 0.88748 0.52064 0.81177 0.0
H417 H 0.92851 0.54343 0.84643 0.0
H418 H 0.89258 0.60876 0.7312 0.0
C419 C 0.89507 0.5512 0.74355 0.0
C420 C 0.67044 0.54564 0.67068 0.0
C421 C 0.6955 0.58827 0.68368 0.0
C422 C 0.68248 0.6011 0.71483 0.0
C423 C 0.62164 0.52966 0.72105 0.0
C424 C 0.63302 0.51696 0.68973 0.0
C425 C 0.60057 0.47076 0.68004 0.0
H426 H 0.41113 0.28947 0.71441 0.0
C427 C 0.58292 0.49244 0.73572 0.0
C428 C 0.57007 0.45764 0.71213 0.0
H429 H 0.49641 0.3189 0.62381 0.0
H430 H 0.54857 0.38503 0.65203 0.0
H431 H 0.49487 0.32724 0.77549 0.0
H432 H 0.42572 0.38701 0.73091 0.0
H433 H 0.42814 0.38902 0.77887 0.0
H434 H 0.39956 0.3378 0.75609 0.0
H435 H 0.44086 0.31111 0.78874 0.0
H436 H 0.48672 0.35751 0.80882 0.0
C437 C 0.62441 0.44477 0.67797 0.0
C438 C 0.57799 0.47132 0.64448 0.0
C439 C 0.53904 0.50894 0.85984 0.0
C440 C 0.51099 0.48076 0.88588 0.0
C441 C 0.48059 0.43822 0.87492 0.0
C442 C 0.48059 0.42382 0.83912 0.0
C443 C 0.51156 0.45228 0.81444 0.0
C444 C 0.53943 0.4942 0.82534 0.0
C445 C 0.57219 0.52038 0.79783 0.0
C446 C 0.56083 0.48733 0.76839 0.0
C447 C 0.52491 0.44746 0.77745 0.0
C448 C 0.61762 0.53537 0.81419 0.0
C449 C 0.56409 0.55727 0.78609 0.0
C450 C 0.44161 0.30987 0.70137 0.0
C451 C 0.44976 0.29938 0.66676 0.0
C452 C 0.48952 0.32657 0.65037 0.0
C453 C 0.51959 0.36529 0.66656 0.0
C454 C 0.51003 0.37722 0.69963 0.0
C455 C 0.47251 0.34928 0.71744 0.0
C456 C 0.47007 0.3677 0.75359 0.0
C457 C 0.51023 0.41229 0.75262 0.0
C458 C 0.53319 0.41744 0.72058 0.0
C459 C 0.47302 0.33945 0.78342 0.0
C460 C 0.42855 0.37049 0.75514 0.0
H461 H 0.63876 0.58452 0.75711 0.0
H462 H 0.67936 0.5352 0.64642 0.0
H463 H 0.5721 0.499 0.64432 0.0
H464 H 0.54585 0.44257 0.64056 0.0
H465 H 0.59821 0.47467 0.62082 0.0
H466 H 0.65301 0.45872 0.6963 0.0
H467 H 0.6359 0.44471 0.65026 0.0
H468 H 0.60431 0.41111 0.68697 0.0
H469 H 0.56245 0.5422 0.86632 0.0
H470 H 0.45761 0.41614 0.89405 0.0
H471 H 0.45709 0.39113 0.83205 0.0
H472 H 0.61635 0.51175 0.83413 0.0
H473 H 0.63085 0.5672 0.82793 0.0
H474 H 0.64128 0.53722 0.79437 0.0
H475 H 0.52953 0.54769 0.78863 0.0
H476 H 0.57135 0.5656 0.75734 0.0
H477 H 0.58309 0.58671 0.80294 0.0
H478 H 0.701 0.6338 0.72523 0.0
C479 C 0.64598 0.5723 0.73341 0.0
C480 C 0.67671 0.12245 0.6938 0.0
C481 C 0.70297 0.10874 0.71126 0.0
C482 C 0.6836 0.07457 0.73599 0.0
C483 C 0.61742 0.07539 0.7328 0.0
C484 C 0.63323 0.10455 0.70493 0.0
C485 C 0.59798 0.11214 0.69015 0.0
H486 H 0.40193 0.09345 0.72657 0.0
C487 C 0.57468 0.06737 0.74274 0.0
C488 C 0.56204 0.08827 0.71763 0.0
H489 H 0.46869 0.13816 0.62602 0.0
H490 H 0.52759 0.12822 0.64962 0.0
H491 H 0.40751 0.0137 0.73097 0.0
H492 H 0.48615 0.13991 0.77738 0.0
H493 H 0.4799 0.10318 0.81085 0.0
H494 H 0.4326 0.10255 0.792 0.0
H495 H 0.39017 0.03228 0.76883 0.0
H496 H 0.42051 0.00509 0.77457 0.0
C497 C 0.58486 0.09074 0.65251 0.0
C498 C 0.61402 0.16082 0.68956 0.0
C499 C 0.51497 -0.00187 0.86394 0.0
C500 C 0.48085 0.99428 0.88503 0.0
C501 C 0.45421 0.00935 0.87161 0.0
C502 C 0.46103 0.02723 0.83703 0.0
C503 C 0.49573 0.03127 0.81622 0.0
C504 C 0.52226 0.0173 0.83011 0.0
C505 C 0.55956 0.02723 0.80595 0.0
C506 C 0.55049 0.0487 0.77443 0.0
C507 C 0.5131 0.05046 0.78055 0.0
C508 C 0.55665 0.98399 0.79475 0.0
C509 C 0.6013 0.05885 0.82706 0.0
C510 C 0.42914 0.10127 0.70931 0.0
C511 C 0.43058 0.11621 0.67457 0.0
C512 C 0.46689 0.12647 0.65312 0.0
C513 C 0.50052 0.12008 0.66662 0.0
C514 C 0.49685 0.10255 0.70133 0.0
C515 C 0.46105 0.09341 0.72143 0.0
C516 C 0.45946 0.07335 0.75659 0.0
C517 C 0.49874 0.06908 0.75449 0.0
C518 C 0.52216 0.08744 0.72274 0.0
C519 C 0.41723 0.02891 0.7582 0.0
C520 C 0.46447 0.10609 0.78604 0.0
H521 H 0.62948 0.03285 0.76604 0.0
H522 H 0.68979 0.14677 0.67315 0.0
H523 H 0.62616 0.17545 0.71667 0.0
H524 H 0.58808 0.16737 0.68186 0.0
H525 H 0.64065 0.17738 0.67006 0.0
H526 H 0.57991 0.05752 0.6531 0.0
H527 H 0.61039 0.10952 0.63259 0.0
H528 H 0.55428 0.08743 0.64275 0.0
H529 H 0.53671 0.98789 0.87424 0.0
H530 H 0.42831 0.00739 0.88786 0.0
H531 H 0.43921 0.03758 0.82804 0.0
H532 H 0.52401 0.95578 0.79926 0.0
H533 H 0.57995 0.97844 0.81031 0.0
H534 H 0.56229 0.98261 0.76555 0.0
H535 H 0.59797 0.08529 0.83964 0.0
H536 H 0.63025 0.07498 0.81033 0.0
H537 H 0.60791 0.04193 0.84897 0.0
H538 H 0.70152 0.0609 0.74824 0.0
C539 C 0.64139 0.05794 0.74657 0.0
C540 C 0.88443 0.5365 0.97932 0.0
C541 C 0.92709 0.55681 0.96587 0.0
C542 C 0.94341 0.59689 0.94845 0.0
C543 C 0.87296 0.58722 0.94516 0.0
C544 C 0.85797 0.55381 0.96924 0.0
C545 C 0.81399 0.54392 0.98285 0.0
H546 H 0.63715 0.56289 0.94254 0.0
C547 C 0.83866 0.59473 0.93442 0.0
C548 C 0.80361 0.57125 0.95741 0.0
H549 H 0.65514 0.51307 0.04231 0.0
H550 H 0.72528 0.52495 0.02091 0.0
H551 H 0.71476 0.64063 0.94699 0.0
H552 H 0.68671 0.52632 0.88678 0.0
H553 H 0.70711 0.57072 0.85765 0.0
H554 H 0.65951 0.55662 0.88264 0.0
H555 H 0.69359 0.63247 0.90201 0.0
H556 H 0.75101 0.65978 0.9112 0.0
C557 C 0.8199 0.56035 0.02215 0.0
C558 C 0.78139 0.49541 0.97907 0.0
C559 C 0.84188 0.64651 0.80539 0.0
C560 C 0.81297 0.65597 0.78723 0.0
C561 C 0.77874 0.6548 0.80701 0.0
C562 C 0.77156 0.64221 0.84252 0.0
C563 C 0.79823 0.62987 0.85951 0.0
C564 C 0.83415 0.63429 0.84208 0.0
C565 C 0.86243 0.62681 0.86789 0.0
C566 C 0.83442 0.61311 0.90206 0.0
C567 C 0.7964 0.61345 0.89591 0.0
C568 C 0.90563 0.66992 0.87266 0.0
C569 C 0.86896 0.59026 0.85293 0.0
C570 C 0.6557 0.55378 0.95982 0.0
C571 C 0.64073 0.53698 0.99378 0.0
C572 C 0.66608 0.52602 0.01572 0.0
C573 C 0.70691 0.53369 0.00359 0.0
C574 C 0.72249 0.55364 0.96997 0.0
C575 C 0.69647 0.56332 0.94923 0.0
C576 C 0.71762 0.58828 0.91642 0.0
C577 C 0.76163 0.59313 0.9202 0.0
C578 C 0.76468 0.57198 0.95108 0.0
C579 C 0.71921 0.63246 0.91896 0.0
C580 C 0.69169 0.5594 0.8839 0.0
H581 H 0.93013 0.64323 0.92629 0.0
H582 H 0.87208 0.50805 0.99583 0.0
H583 H 0.77963 0.48453 0.95068 0.0
H584 H 0.74869 0.48786 0.987 0.0
H585 H 0.79101 0.47644 0.99639 0.0
H586 H 0.84815 0.59352 0.02469 0.0
H587 H 0.82545 0.53911 0.04037 0.0
H588 H 0.79203 0.56233 0.03191 0.0
H589 H 0.8695 0.64881 0.79169 0.0
H590 H 0.75616 0.66295 0.79504 0.0
H591 H 0.74465 0.64182 0.855 0.0
H592 H 0.91106 0.69331 0.85099 0.0
H593 H 0.93376 0.66499 0.87134 0.0
H594 H 0.90662 0.68625 0.89851 0.0
H595 H 0.83745 0.56011 0.84907 0.0
H596 H 0.88899 0.58326 0.87134 0.0
H597 H 0.88555 0.59929 0.82656 0.0
H598 H 0.97709 0.6159 0.94125 0.0
C599 C 0.91651 0.61221 0.93837 0.0
C600 C 0.49375 0.1558 0.99613 0.0
C601 C 0.49313 0.1187 0.98319 0.0
C602 C 0.47649 0.10303 0.94844 0.0
C603 C 0.45195 0.15468 0.94429 0.0
C604 C 0.47133 0.17196 0.97713 0.0
C605 C 0.45721 0.20159 0.99258 0.0
H606 H 0.44909 0.37212 0.95565 0.0
C607 C 0.42837 0.17658 0.93297 0.0
C608 C 0.43179 0.20444 0.96066 0.0
H609 H 0.44578 0.31553 0.05956 0.0
H610 H 0.42046 0.2471 0.03117 0.0
H611 H 0.4831 0.31766 0.89864 0.0
H612 H 0.35198 0.27466 0.93339 0.0
H613 H 0.35656 0.26876 0.8866 0.0
H614 H 0.38053 0.32199 0.90624 0.0
H615 H 0.45946 0.35108 0.89279 0.0
H616 H 0.44448 0.30595 0.86334 0.0
C617 C 0.49805 0.2452 0.00248 0.0
C618 C 0.42752 0.17894 0.02526 0.0
C619 C 0.37856 0.15752 0.80448 0.0
C620 C 0.36677 0.17992 0.78045 0.0
C621 C 0.36826 0.21806 0.79278 0.0
C622 C 0.38038 0.23253 0.82892 0.0
C623 C 0.39124 0.20868 0.85256 0.0
C624 C 0.39058 0.17217 0.83961 0.0
C625 C 0.40517 0.15137 0.86655 0.0
C626 C 0.41212 0.17931 0.89895 0.0
C627 C 0.40407 0.21313 0.89125 0.0
C628 C 0.44798 0.1552 0.85355 0.0
C629 C 0.36825 0.10454 0.87274 0.0
C630 C 0.44496 0.34541 0.97194 0.0
C631 C 0.45277 0.35032 0.00967 0.0
C632 C 0.44267 0.31376 0.03047 0.0
C633 C 0.42867 0.27412 0.01426 0.0
C634 C 0.42721 0.27131 0.97696 0.0
C635 C 0.43102 0.30453 0.95612 0.0
C636 C 0.41669 0.28884 0.91761 0.0
C637 C 0.41012 0.24321 0.91916 0.0
C638 C 0.41945 0.23545 0.95412 0.0
C639 C 0.45285 0.31744 0.89149 0.0
C640 C 0.37423 0.28863 0.91027 0.0
H641 H 0.43748 0.10292 0.90572 0.0
H642 H 0.50403 0.16669 0.02363 0.0
H643 H 0.41728 0.1441 0.0267 0.0
H644 H 0.39683 0.17932 0.02348 0.0
H645 H 0.44392 0.19401 0.05122 0.0
H646 H 0.52426 0.24054 0.01347 0.0
H647 H 0.49217 0.26309 0.02389 0.0
H648 H 0.51089 0.26605 0.97845 0.0
H649 H 0.37893 0.12867 0.79621 0.0
H650 H 0.35976 0.23631 0.77476 0.0
H651 H 0.38144 0.26182 0.83705 0.0
H652 H 0.45818 0.17089 0.8269 0.0
H653 H 0.44473 0.12303 0.85105 0.0
H654 H 0.47549 0.17507 0.87203 0.0
H655 H 0.33672 0.10333 0.87478 0.0
H656 H 0.37234 0.0911 0.89822 0.0
H657 H 0.36594 0.08298 0.85013 0.0
H658 H 0.47404 0.07337 0.93855 0.0
C659 C 0.45473 0.12005 0.92942 0.0
C660 C 0.65972 0.11649 0.97722 0.0
C661 C 0.63642 0.07473 0.96156 0.0
C662 C 0.65723 0.06243 0.93578 0.0
C663 C 0.71905 0.13344 0.93643 0.0
C664 C 0.70164 0.14531 0.96433 0.0
C665 C 0.73332 0.1907 0.97733 0.0
H666 H 0.92274 0.37738 0.94655 0.0
C667 C 0.76021 0.17052 0.92589 0.0
C668 C 0.76947 0.20468 0.94978 0.0
H669 H 0.8436 0.34627 0.04087 0.0
H670 H 0.79066 0.27806 0.0136 0.0
H671 H 0.91962 0.29055 0.94626 0.0
H672 H 0.84891 0.33617 0.88554 0.0
H673 H 0.85232 0.29849 0.85734 0.0
H674 H 0.90101 0.34622 0.87234 0.0
H675 H 0.94258 0.32958 0.91109 0.0
H676 H 0.9167 0.27257 0.90154 0.0
C677 C 0.74875 0.18767 0.01562 0.0
C678 C 0.71132 0.21821 0.97548 0.0
C679 C 0.82585 0.16182 0.80767 0.0
C680 C 0.86088 0.19195 0.78743 0.0
C681 C 0.8877 0.23351 0.80183 0.0
C682 C 0.87922 0.24477 0.83609 0.0
C683 C 0.84285 0.21455 0.85538 0.0
C684 C 0.81715 0.17382 0.84102 0.0
C685 C 0.77961 0.14571 0.86448 0.0
C686 C 0.78649 0.17662 0.89548 0.0
C687 C 0.82329 0.21677 0.88994 0.0
C688 C 0.78422 0.10674 0.87648 0.0
C689 C 0.73788 0.13325 0.84258 0.0
C690 C 0.89277 0.35705 0.96038 0.0
C691 C 0.88647 0.36784 0.99521 0.0
C692 C 0.84828 0.33922 0.01339 0.0
C693 C 0.81828 0.29913 0.99798 0.0
C694 C 0.82722 0.28706 0.96447 0.0
C695 C 0.86391 0.31611 0.9463 0.0
C696 C 0.87145 0.29651 0.91343 0.0
C697 C 0.83382 0.25107 0.91466 0.0
C698 C 0.8073 0.24543 0.94437 0.0
C699 C 0.91497 0.29747 0.91794 0.0
C700 C 0.86858 0.32065 0.88032 0.0
H701 H 0.7107 0.07955 0.90323 0.0
H702 H 0.64559 0.12654 0.9981 0.0
H703 H 0.69513 0.21378 0.94888 0.0
H704 H 0.73431 0.25302 0.97856 0.0
H705 H 0.68655 0.2086 0.99671 0.0
H706 H 0.75226 0.15865 0.01801 0.0
H707 H 0.72537 0.18529 0.03625 0.0
H708 H 0.78092 0.21515 0.02242 0.0
H709 H 0.80481 0.12949 0.79731 0.0
H710 H 0.91489 0.25715 0.78661 0.0
H711 H 0.90062 0.27689 0.84596 0.0
H712 H 0.81705 0.11189 0.8716 0.0
H713 H 0.76112 0.07678 0.8617 0.0
H714 H 0.77941 0.10111 0.90587 0.0
H715 H 0.74005 0.16223 0.82977 0.0
H716 H 0.70854 0.11935 0.85897 0.0
H717 H 0.73279 0.10966 0.82082 0.0
H718 H 0.64172 0.03026 0.9241 0.0
C719 C 0.69788 0.09124 0.92335 0.0
C720 C 0.51697 0.85185 0.01149 0.0
C721 C 0.52797 0.89339 0.02264 0.0
C722 C 0.54966 0.90956 0.05587 0.0
C723 C 0.55199 0.84336 0.06419 0.0
C724 C 0.52948 0.82789 0.03209 0.0
C725 C 0.52179 0.78437 0.02157 0.0
H726 H 0.54242 0.61263 0.05608 0.0
C727 C 0.56079 0.8097 0.07787 0.0
C728 C 0.54176 0.77483 0.05333 0.0
H729 H 0.48468 0.63572 0.96304 0.0
H730 H 0.49486 0.70145 0.99003 0.0
H731 H 0.62067 0.70525 0.05659 0.0
H732 H 0.50493 0.64478 0.11765 0.0
H733 H 0.54218 0.68701 0.14575 0.0
H734 H 0.55266 0.64487 0.13191 0.0
H735 H 0.60958 0.66653 0.09125 0.0
H736 H 0.63533 0.7234 0.10136 0.0
C737 C 0.54728 0.78907 0.98659 0.0
C738 C 0.47236 0.7531 0.01831 0.0
C739 C 0.64741 0.83113 0.19307 0.0
C740 C 0.65809 0.80398 0.21227 0.0
C741 C 0.64556 0.76274 0.19859 0.0
C742 C 0.62281 0.74881 0.16574 0.0
C743 C 0.6118 0.7761 0.14709 0.0
C744 C 0.62399 0.81652 0.16082 0.0
C745 C 0.60758 0.84023 0.13823 0.0
C746 C 0.58378 0.80739 0.10837 0.0
C747 C 0.5867 0.77013 0.11378 0.0
C748 C 0.6467 0.8817 0.12398 0.0
C749 C 0.57678 0.84861 0.16142 0.0
C750 C 0.52949 0.63056 0.04272 0.0
C751 C 0.51136 0.61858 0.00811 0.0
C752 C 0.49723 0.64381 0.99036 0.0
C753 C 0.50424 0.68253 0.00576 0.0
C754 C 0.52626 0.69631 0.03897 0.0
C755 C 0.53793 0.67019 0.05706 0.0
C756 C 0.56475 0.69195 0.09001 0.0
C757 C 0.56663 0.73499 0.08916 0.0
C758 C 0.54406 0.73726 0.05933 0.0
C759 C 0.60995 0.69695 0.08493 0.0
C760 C 0.54005 0.66576 0.12314 0.0
H761 H 0.57918 0.89855 0.10155 0.0
H762 H 0.50058 0.83878 0.98592 0.0
H763 H 0.45381 0.76529 0.03334 0.0
H764 H 0.46216 0.7212 0.03018 0.0
H765 H 0.46134 0.74856 0.98976 0.0
H766 H 0.57947 0.81894 0.98767 0.0
H767 H 0.52983 0.79103 0.96253 0.0
H768 H 0.55414 0.76257 0.98243 0.0
H769 H 0.6563 0.86288 0.20345 0.0
H770 H 0.65329 0.74143 0.21326 0.0
H771 H 0.61382 0.71696 0.15647 0.0
H772 H 0.67146 0.8746 0.11338 0.0
H773 H 0.66195 0.9063 0.14582 0.0
H774 H 0.63818 0.89605 0.1015 0.0
H775 H 0.55617 0.82015 0.17829 0.0
H776 H 0.55415 0.85398 0.1451 0.0
H777 H 0.59517 0.87676 0.17977 0.0
H778 H 0.55925 0.9421 0.06454 0.0
C779 C 0.56175 0.88454 0.07689 0.0
C780 C 0.33711 0.87898 0.00402 0.0
C781 C 0.36217 0.92161 0.01702 0.0
C782 C 0.34915 0.93443 0.04817 0.0
C783 C 0.28831 0.86299 0.05439 0.0
C784 C 0.29969 0.8503 0.02307 0.0
C785 C 0.26724 0.8041 0.01338 0.0
H786 H 0.0778 0.62281 0.04774 0.0
C787 C 0.24959 0.82577 0.06906 0.0
C788 C 0.23674 0.79098 0.04547 0.0
H789 H 0.16308 0.65224 0.95715 0.0
H790 H 0.21524 0.71836 0.98537 0.0
H791 H 0.16152 0.66057 0.10883 0.0
H792 H 0.09239 0.72035 0.06425 0.0
H793 H 0.0948 0.72236 0.1122 0.0
H794 H 0.06622 0.67114 0.08942 0.0
H795 H 0.10752 0.64445 0.12208 0.0
H796 H 0.1534 0.69085 0.14216 0.0
C797 C 0.29108 0.7781 0.01131 0.0
C798 C 0.24466 0.80466 0.97782 0.0
C799 C 0.2057 0.84227 0.19318 0.0
C800 C 0.17766 0.8141 0.21921 0.0
C801 C 0.14726 0.77156 0.20826 0.0
C802 C 0.14726 0.75716 0.17246 0.0
C803 C 0.17823 0.78562 0.14777 0.0
C804 C 0.20609 0.82754 0.15868 0.0
C805 C 0.23886 0.85372 0.13117 0.0
C806 C 0.22749 0.82067 0.10173 0.0
C807 C 0.19158 0.7808 0.11078 0.0
C808 C 0.28429 0.86871 0.14753 0.0
C809 C 0.23076 0.89061 0.11942 0.0
C810 C 0.10827 0.64321 0.03471 0.0
C811 C 0.11643 0.63272 9e-05 0.0
C812 C 0.15619 0.65991 0.98371 0.0
C813 C 0.18626 0.69862 -0.00011 0.0
C814 C 0.1767 0.71056 0.03297 0.0
C815 C 0.13917 0.68261 0.05078 0.0
C816 C 0.13674 0.70104 0.08692 0.0
C817 C 0.1769 0.74562 0.08595 0.0
C818 C 0.19986 0.75077 0.05391 0.0
C819 C 0.13968 0.67278 0.11676 0.0
C820 C 0.09522 0.70383 0.08848 0.0
H821 H 0.30543 0.91786 0.09045 0.0
H822 H 0.34603 0.86854 0.97976 0.0
H823 H 0.23877 0.83233 0.97766 0.0
H824 H 0.21252 0.77591 0.97389 0.0
H825 H 0.26489 0.80801 0.95416 0.0
H826 H 0.31968 0.79206 0.02964 0.0
H827 H 0.30256 0.77804 0.9836 0.0
H828 H 0.27098 0.74445 0.02031 0.0
H829 H 0.22911 0.87554 0.19966 0.0
H830 H 0.12428 0.74947 0.22739 0.0
H831 H 0.12376 0.72446 0.16539 0.0
H832 H 0.28301 0.84509 0.16747 0.0
H833 H 0.29751 0.90053 0.16126 0.0
H834 H 0.30795 0.87055 0.12771 0.0
H835 H 0.19619 0.88103 0.12196 0.0
H836 H 0.23802 0.89894 0.09067 0.0
H837 H 0.24975 0.92004 0.13628 0.0
H838 H 0.36767 0.96714 0.05857 0.0
C839 C 0.31265 0.90563 0.06675 0.0
C840 C 0.34338 0.45579 0.02713 0.0
C841 C 0.36964 0.44208 0.04459 0.0
C842 C 0.35027 0.40791 0.06932 0.0
C843 C 0.28409 0.40873 0.06612 0.0
C844 C 0.2999 0.4379 0.03826 0.0
C845 C 0.26465 0.44549 0.02348 0.0
H846 H 0.0686 0.42679 0.0599 0.0
C847 C 0.24135 0.40072 0.07607 0.0
C848 C 0.2287 0.42161 0.05096 0.0
H849 H 0.13536 0.47151 0.95935 0.0
H850 H 0.19426 0.46156 0.98295 0.0
H851 H 0.07418 0.34705 0.0643 0.0
H852 H 0.15283 0.47326 0.11071 0.0
H853 H 0.14656 0.43652 0.14418 0.0
H854 H 0.09927 0.43589 0.12532 0.0
H855 H 0.05683 0.36562 0.10216 0.0
H856 H 0.08718 0.33843 0.1079 0.0
C857 C 0.25153 0.42409 0.98584 0.0
C858 C 0.28069 0.49416 0.02289 0.0
C859 C 0.18164 0.33147 0.19727 0.0
C860 C 0.14752 0.32761 0.21835 0.0
C861 C 0.12088 0.34268 0.20494 0.0
C862 C 0.12769 0.36057 0.17036 0.0
C863 C 0.1624 0.36461 0.14954 0.0
C864 C 0.18893 0.35064 0.16344 0.0
C865 C 0.22623 0.36057 0.13928 0.0
C866 C 0.21715 0.38204 0.10776 0.0
C867 C 0.17976 0.3838 0.11388 0.0
C868 C 0.22332 0.31733 0.12808 0.0
C869 C 0.26797 0.39219 0.16039 0.0
C870 C 0.09581 0.43461 0.04264 0.0
C871 C 0.09725 0.44955 0.0079 0.0
C872 C 0.13356 0.45981 0.98645 0.0
C873 C 0.16719 0.45343 -5e-05 0.0
C874 C 0.16352 0.43589 0.03466 0.0
C875 C 0.12772 0.42675 0.05476 0.0
C876 C 0.12613 0.40669 0.08992 0.0
C877 C 0.16541 0.40242 0.08782 0.0
C878 C 0.18883 0.42078 0.05607 0.0
C879 C 0.08389 0.36225 0.09154 0.0
C880 C 0.13114 0.43943 0.11937 0.0
H881 H 0.29615 0.36619 0.09937 0.0
H882 H 0.35646 0.48011 0.00649 0.0
H883 H 0.29283 0.50879 0.05001 0.0
H884 H 0.25476 0.50071 0.01519 0.0
H885 H 0.30733 0.51073 0.0034 0.0
H886 H 0.24658 0.39087 0.98643 0.0
H887 H 0.27706 0.44288 0.96592 0.0
H888 H 0.22095 0.42078 0.97608 0.0
H889 H 0.20338 0.32122 0.20757 0.0
H890 H 0.09498 0.34072 0.22119 0.0
H891 H 0.10588 0.37092 0.16138 0.0
H892 H 0.19068 0.28912 0.13259 0.0
H893 H 0.24662 0.31178 0.14363 0.0
H894 H 0.22895 0.31595 0.09888 0.0
H895 H 0.26464 0.41862 0.17297 0.0
H896 H 0.29692 0.40832 0.14366 0.0
H897 H 0.27458 0.37527 0.18229 0.0
H898 H 0.36818 0.39424 0.08157 0.0
C899 C 0.30806 0.39128 0.0799 0.0
C900 C 0.5511 0.86983 0.31265 0.0
C901 C 0.59375 0.89013 0.29921 0.0
C902 C 0.61007 0.93021 0.28178 0.0
C903 C 0.53962 0.92054 0.27849 0.0
C904 C 0.52463 0.88713 0.30257 0.0
C905 C 0.48065 0.87724 0.31618 0.0
H906 H 0.30382 0.89623 0.27588 0.0
C907 C 0.50532 0.92806 0.26776 0.0
C908 C 0.47027 0.90457 0.29075 0.0
H909 H 0.3218 0.84641 0.37565 0.0
H910 H 0.39194 0.85828 0.35425 0.0
H911 H 0.38144 0.97397 0.28032 0.0
H912 H 0.35336 0.85965 0.22012 0.0
H913 H 0.37377 0.90404 0.19099 0.0
H914 H 0.32618 0.88995 0.21597 0.0
H915 H 0.36026 0.96581 0.23534 0.0
H916 H 0.41768 0.99311 0.24453 0.0
C917 C 0.48656 0.89368 0.35548 0.0
C918 C 0.44805 0.82874 0.3124 0.0
C919 C 0.50855 0.97984 0.13872 0.0
C920 C 0.47964 0.9893 0.12056 0.0
C921 C 0.4454 0.98813 0.14034 0.0
C922 C 0.43823 0.97554 0.17586 0.0
C923 C 0.46489 0.96319 0.19285 0.0
C924 C 0.50082 0.96762 0.17541 0.0
C925 C 0.52909 0.96014 0.20123 0.0
C926 C 0.50108 0.94643 0.23539 0.0
C927 C 0.46306 0.94677 0.22924 0.0
C928 C 0.57229 0.00325 0.20599 0.0
C929 C 0.53563 0.92359 0.18626 0.0
C930 C 0.32237 0.88711 0.29315 0.0
C931 C 0.3074 0.87032 0.32712 0.0
C932 C 0.33275 0.85936 0.34906 0.0
C933 C 0.37357 0.86702 0.33693 0.0
C934 C 0.38915 0.88697 0.3033 0.0
C935 C 0.36313 0.89665 0.28257 0.0
C936 C 0.38428 0.92161 0.24975 0.0
C937 C 0.4283 0.92645 0.25353 0.0
C938 C 0.43134 0.90531 0.28441 0.0
C939 C 0.38588 0.96579 0.25229 0.0
C940 C 0.35836 0.89273 0.21724 0.0
H941 H 0.59679 0.97655 0.25962 0.0
H942 H 0.53874 0.84138 0.32917 0.0
H943 H 0.44629 0.81785 0.28401 0.0
H944 H 0.41535 0.82119 0.32033 0.0
H945 H 0.45767 0.80977 0.32972 0.0
H946 H 0.51481 0.92685 0.35802 0.0
H947 H 0.49212 0.87243 0.3737 0.0
H948 H 0.45869 0.89566 0.36525 0.0
H949 H 0.53617 0.98215 0.12503 0.0
H950 H 0.42283 -0.00372 0.12837 0.0
H951 H 0.41131 0.97514 0.18833 0.0
H952 H 0.57773 0.02665 0.18433 0.0
H953 H 0.60043 -0.00168 0.20467 0.0
H954 H 0.57329 0.01957 0.23184 0.0
H955 H 0.50412 0.89344 0.1824 0.0
H956 H 0.55566 0.91659 0.20467 0.0
H957 H 0.55222 0.93263 0.1599 0.0
H958 H 0.64375 0.94922 0.27458 0.0
C959 C 0.58317 0.94553 0.2717 0.0
C960 C 0.1604 0.48913 0.32946 0.0
C961 C 0.15978 0.45203 0.31652 0.0
C962 C 0.14314 0.43636 0.28177 0.0
C963 C 0.11859 0.488 0.27762 0.0
C964 C 0.13798 0.50528 0.31047 0.0
C965 C 0.12387 0.53491 0.32591 0.0
H966 H 0.11577 0.70546 0.28898 0.0
C967 C 0.09502 0.5099 0.26631 0.0
C968 C 0.09845 0.53777 0.29399 0.0
H969 H 0.11244 0.64885 0.3929 0.0
H970 H 0.08711 0.58042 0.3645 0.0
H971 H 0.14977 0.65099 0.23197 0.0
H972 H 0.01865 0.608 0.26672 0.0
H973 H 0.02323 0.6021 0.21993 0.0
H974 H 0.04721 0.65534 0.23957 0.0
H975 H 0.12613 0.68441 0.22613 0.0
H976 H 0.11115 0.63928 0.19668 0.0
C977 C 0.1647 0.57852 0.33582 0.0
C978 C 0.09417 0.51226 0.3586 0.0
C979 C 0.04522 0.49085 0.13781 0.0
C980 C 0.03343 0.51325 0.11379 0.0
C981 C 0.03493 0.5514 0.12611 0.0
C982 C 0.04704 0.56586 0.16226 0.0
C983 C 0.0579 0.54201 0.18589 0.0
C984 C 0.05724 0.5055 0.17294 0.0
C985 C 0.07182 0.4847 0.19988 0.0
C986 C 0.07878 0.51264 0.23229 0.0
C987 C 0.07073 0.54646 0.22458 0.0
C988 C 0.11463 0.48852 0.18689 0.0
C989 C 0.03491 0.43787 0.20608 0.0
C990 C 0.11164 0.67874 0.30527 0.0
C991 C 0.11944 0.68366 0.34301 0.0
C992 C 0.10933 0.64709 0.36381 0.0
C993 C 0.09532 0.60745 0.34759 0.0
C994 C 0.09387 0.60464 0.31029 0.0
C995 C 0.09769 0.63786 0.28945 0.0
C996 C 0.08336 0.62217 0.25094 0.0
C997 C 0.07678 0.57654 0.2525 0.0
C998 C 0.0861 0.56878 0.28746 0.0
C999 C 0.11952 0.65077 0.22483 0.0
C1000 C 0.0409 0.62197 0.2436 0.0
H1001 H 0.10413 0.43625 0.23905 0.0
H1002 H 0.17068 0.50001 0.35697 0.0
H1003 H 0.08393 0.47743 0.36004 0.0
H1004 H 0.06348 0.51264 0.35681 0.0
H1005 H 0.11057 0.52734 0.38455 0.0
H1006 H 0.19092 0.57386 0.3468 0.0
H1007 H 0.15882 0.59641 0.35723 0.0
H1008 H 0.17754 0.59937 0.31179 0.0
H1009 H 0.04558 0.462 0.12954 0.0
H1010 H 0.02643 0.56965 0.10809 0.0
H1011 H 0.04811 0.59516 0.17038 0.0
H1012 H 0.12483 0.50422 0.16024 0.0
H1013 H 0.11138 0.45635 0.18438 0.0
H1014 H 0.14214 0.50839 0.20536 0.0
H1015 H 0.00337 0.43666 0.20812 0.0
H1016 H 0.03899 0.42443 0.23155 0.0
H1017 H 0.03259 0.41631 0.18346 0.0
H1018 H 0.14069 0.40669 0.27188 0.0
C1019 C 0.12138 0.45338 0.26275 0.0
C1020 C 0.32639 0.44982 0.31054 0.0
C1021 C 0.30309 0.40806 0.29489 0.0
C1022 C 0.3239 0.39576 0.2691 0.0
C1023 C 0.38572 0.46677 0.26975 0.0
C1024 C 0.36831 0.47864 0.29765 0.0
C1025 C 0.39999 0.52403 0.31065 0.0
H1026 H 0.58942 0.71071 0.27988 0.0
C1027 C 0.42688 0.50386 0.25922 0.0
C1028 C 0.43614 0.53801 0.2831 0.0
H1029 H 0.51027 0.67959 0.37421 0.0
H1030 H 0.45733 0.61139 0.34693 0.0
H1031 H 0.5863 0.62388 0.27958 0.0
H1032 H 0.51555 0.66948 0.21887 0.0
H1033 H 0.51902 0.63184 0.19066 0.0
H1034 H 0.56767 0.67958 0.20569 0.0
H1035 H 0.60925 0.66291 0.24442 0.0
H1036 H 0.58337 0.60591 0.23486 0.0
C1037 C 0.41542 0.521 0.34895 0.0
C1038 C 0.37799 0.55154 0.30881 0.0
C1039 C 0.49253 0.49515 0.141 0.0
C1040 C 0.52755 0.52527 0.12076 0.0
C1041 C 0.55438 0.56684 0.13516 0.0
C1042 C 0.54589 0.5781 0.16942 0.0
C1043 C 0.50952 0.54789 0.18871 0.0
C1044 C 0.48382 0.50716 0.17435 0.0
C1045 C 0.44628 0.47905 0.19781 0.0
C1046 C 0.45316 0.50996 0.22881 0.0
C1047 C 0.48996 0.5501 0.22326 0.0
C1048 C 0.45089 0.44007 0.20981 0.0
C1049 C 0.40455 0.46658 0.17591 0.0
C1050 C 0.55944 0.69038 0.29372 0.0
C1051 C 0.55314 0.70117 0.32854 0.0
C1052 C 0.51495 0.67255 0.34672 0.0
C1053 C 0.48495 0.63246 0.33131 0.0
C1054 C 0.4939 0.6204 0.2978 0.0
C1055 C 0.53059 0.64944 0.27963 0.0
C1056 C 0.53812 0.62984 0.24676 0.0
C1057 C 0.50049 0.58441 0.24799 0.0
C1058 C 0.47397 0.57876 0.27769 0.0
C1059 C 0.58164 0.63081 0.25126 0.0
C1060 C 0.53525 0.65399 0.21365 0.0
H1061 H 0.37736 0.41288 0.23655 0.0
H1062 H 0.31226 0.45987 0.33142 0.0
H1063 H 0.3618 0.54711 0.2822 0.0
H1064 H 0.40098 0.58635 0.31189 0.0
H1065 H 0.35322 0.54193 0.33004 0.0
H1066 H 0.41893 0.49198 0.35134 0.0
H1067 H 0.39204 0.51862 0.36958 0.0
H1068 H 0.44759 0.54848 0.35575 0.0
H1069 H 0.47149 0.46282 0.13064 0.0
H1070 H 0.58156 0.59047 0.11993 0.0
H1071 H 0.56729 0.61022 0.17928 0.0
H1072 H 0.48372 0.44523 0.20494 0.0
H1073 H 0.42779 0.41011 0.19503 0.0
H1074 H 0.44608 0.43445 0.2392 0.0
H1075 H 0.40673 0.49556 0.16309 0.0
H1076 H 0.37521 0.4527 0.19229 0.0
H1077 H 0.39947 0.44299 0.15415 0.0
H1078 H 0.30839 0.36359 0.25742 0.0
C1079 C 0.36455 0.42458 0.25667 0.0
O1080 O 0.43689 0.95462 0.00773 0.0
Mn1081 Mn 0.50313 0.00242 0.00283 0.0
O1082 O 0.40435 0.99056 0.99706 0.0
Mn1083 Mn 0.44701 0.0276 0.02799 0.0
O1084 O 0.56941 0.04541 0.99586 0.0
O1085 O 0.51475 0.95086 0.0032 0.0
Mn1086 Mn 0.52402 0.95849 0.95591 0.0
O1087 O 0.49365 0.00671 0.94719 0.0
O1088 O 0.5734 0.01036 0.94758 0.0
O1089 O 0.50995 0.00207 0.05948 0.0
O1090 O 0.45126 0.00558 0.07096 0.0
O1091 O 0.5337 0.91577 0.96254 0.0
O1092 O 0.47777 0.94438 0.92618 0.0
C1093 C 0.48555 0.08634 0.01008 0.0
C1094 C 0.40202 0.95464 8e-05 0.0
C1095 C 0.59063 0.04251 0.96917 0.0
C1096 C 0.52449 0.92086 0.99533 0.0
C1097 C 0.47715 0.97861 0.92204 0.0
C1098 C 0.48151 -0.00012 0.08163 0.0
O1099 O 0.495 0.05586 0.00352 0.0
O1100 O 0.45553 0.07996 0.03279 0.0
O1101 O 0.0561 0.48373 -0.00175 0.0
Mn1102 Mn 0.00501 0.49762 0.99624 0.0
O1103 O 0.02347 0.41392 0.00184 0.0
Mn1104 Mn 0.98755 0.42153 0.03239 0.0
O1105 O 0.95923 0.51756 0.99274 0.0
O1106 O 0.05419 0.56089 0.98778 0.0
Mn1107 Mn 0.03719 0.55762 0.94218 0.0
O1108 O 0.99137 0.47571 0.94205 0.0
O1109 O 0.98274 0.55102 0.94028 0.0
O1110 O 0.01494 0.51519 0.05099 0.0
O1111 O 0.01181 0.45603 0.07264 0.0
O1112 O 0.07999 0.61134 0.94417 0.0
O1113 O 0.04741 0.52244 0.91323 0.0
C1114 C 0.92551 0.3957 0.01643 0.0
C1115 C 0.05754 0.44888 0.99586 0.0
C1116 C 0.95621 0.53871 0.9662 0.0
C1117 C 0.08221 0.59999 0.97687 0.0
C1118 C 0.0141 0.48617 0.91362 0.0
C1119 C 0.01915 0.4943 0.07705 0.0
O1120 O 0.95442 0.4351 0.00647 0.0
O1121 O 0.93624 0.37577 0.03963 0.0
O1122 O 0.56512 0.50428 0.00165 0.0
Mn1123 Mn 0.50125 0.49338 0.00483 0.0
O1124 O 0.60452 0.57421 0.00045 0.0
Mn1125 Mn 0.56315 0.5705 0.96866 0.0
O1126 O 0.43641 0.47641 0.01004 0.0
O1127 O 0.4827 0.42827 0.01249 0.0
Mn1128 Mn 0.48151 0.4439 0.05821 0.0
O1129 O 0.51398 0.51893 0.05842 0.0
O1130 O 0.43626 0.45424 0.0655 0.0
O1131 O 0.4921 0.47637 0.94962 0.0
O1132 O 0.54989 0.53519 0.92863 0.0
O1133 O 0.46281 0.38921 0.06398 0.0
O1134 O 0.53278 0.47723 0.08238 0.0
C1135 C 0.52573 0.5946 0.98624 0.0
C1136 C 0.60206 0.53832 0.00532 0.0
C1137 C 0.41685 0.46089 0.03977 0.0
C1138 C 0.46729 0.39121 0.0293 0.0
C1139 C 0.53303 0.51205 0.08437 0.0
C1140 C 0.51727 0.49775 0.92362 0.0
O1141 O 0.51614 0.55518 0.99354 0.0
O1142 O 0.55729 0.61693 0.96455 0.0
O1143 O 0.10356 0.28795 0.34106 0.0
Mn1144 Mn 0.1698 0.33575 0.33616 0.0
O1145 O 0.07102 0.32389 0.33038 0.0
Mn1146 Mn 0.11368 0.36092 0.36131 0.0
O1147 O 0.23608 0.37874 0.32918 0.0
O1148 O 0.18141 0.28419 0.33653 0.0
Mn1149 Mn 0.1907 0.29182 0.28924 0.0
O1150 O 0.16032 0.34004 0.28051 0.0
O1151 O 0.24007 0.34369 0.2809 0.0
O1152 O 0.17662 0.3354 0.3928 0.0
O1153 O 0.11793 0.3389 0.40428 0.0
O1154 O 0.20036 0.24909 0.29587 0.0
O1155 O 0.14445 0.27771 0.2595 0.0
C1156 C 0.15222 0.41966 0.3434 0.0
C1157 C 0.06869 0.28797 0.33341 0.0
C1158 C 0.2573 0.37584 0.3025 0.0
C1159 C 0.19116 0.25418 0.32866 0.0
C1160 C 0.14382 0.31194 0.25537 0.0
C1161 C 0.14818 0.33321 0.41495 0.0
O1162 O 0.16167 0.38919 0.33684 0.0
O1163 O 0.1222 0.41328 0.36612 0.0
O1164 O 0.72277 0.81706 0.33158 0.0
Mn1165 Mn 0.67168 0.83095 0.32957 0.0
O1166 O 0.69014 0.74726 0.33518 0.0
Mn1167 Mn 0.65422 0.75486 0.36573 0.0
O1168 O 0.6259 0.85088 0.32607 0.0
O1169 O 0.72085 0.89423 0.32112 0.0
Mn1170 Mn 0.70385 0.89095 0.27551 0.0
O1171 O 0.65804 0.80904 0.27538 0.0
O1172 O 0.6494 0.88434 0.27361 0.0
O1173 O 0.68161 0.84852 0.38432 0.0
O1174 O 0.67848 0.78937 0.40597 0.0
O1175 O 0.74665 0.94466 0.2775 0.0
O1176 O 0.71408 0.85577 0.24657 0.0
C1177 C 0.59218 0.72903 0.34976 0.0
C1178 C 0.72421 0.78221 0.32919 0.0
C1179 C 0.62287 0.87203 0.29953 0.0
C1180 C 0.74887 0.93332 0.3102 0.0
C1181 C 0.68077 0.8195 0.24696 0.0
C1182 C 0.68582 0.82763 0.41038 0.0
O1183 O 0.62109 0.76843 0.3398 0.0
O1184 O 0.60292 0.7091 0.37296 0.0
O1185 O 0.23178 0.83761 0.33499 0.0
Mn1186 Mn 0.16791 0.82671 0.33817 0.0
O1187 O 0.27118 0.90755 0.33378 0.0
Mn1188 Mn 0.22981 0.90384 0.302 0.0
O1189 O 0.10307 0.80973 0.34338 0.0
O1190 O 0.14937 0.7616 0.34583 0.0
Mn1191 Mn 0.14818 0.77723 0.39155 0.0
O1192 O 0.18064 0.85226 0.39176 0.0
O1193 O 0.10292 0.78756 0.39884 0.0
O1194 O 0.15877 0.80971 0.28296 0.0
O1195 O 0.21655 0.86854 0.26196 0.0
O1196 O 0.12949 0.72254 0.39732 0.0
O1197 O 0.19945 0.81057 0.41572 0.0
C1198 C 0.19238 0.92792 0.31959 0.0
C1199 C 0.26873 0.87166 0.33866 0.0
C1200 C 0.08352 0.79421 0.37311 0.0
C1201 C 0.13397 0.72454 0.36263 0.0
C1202 C 0.19969 0.84538 0.41771 0.0
C1203 C 0.18394 0.83109 0.25696 0.0
O1204 O 0.1828 0.8885 0.32688 0.0
O1205 O 0.22393 0.95026 0.2979 0.0
O1206 O 0.77022 0.62129 0.6744 0.0
Mn1207 Mn 0.83646 0.66908 0.6695 0.0
O1208 O 0.73768 0.65723 0.66372 0.0
Mn1209 Mn 0.78034 0.69425 0.69465 0.0
O1210 O 0.90274 0.71207 0.66252 0.0
O1211 O 0.84807 0.61752 0.66987 0.0
Mn1212 Mn 0.85735 0.62515 0.62258 0.0
O1213 O 0.82698 0.67338 0.61385 0.0
O1214 O 0.90673 0.67702 0.61424 0.0
O1215 O 0.84328 0.66873 0.72614 0.0
O1216 O 0.78459 0.67223 0.73762 0.0
O1217 O 0.86702 0.58243 0.62921 0.0
O1218 O 0.81111 0.61104 0.59284 0.0
C1219 C 0.81888 0.753 0.67675 0.0
C1220 C 0.73535 0.6213 0.66674 0.0
C1221 C 0.92396 0.70917 0.63584 0.0
C1222 C 0.85782 0.58751 0.662 0.0
C1223 C 0.81048 0.64528 0.58871 0.0
C1224 C 0.81484 0.66654 0.74829 0.0
O1225 O 0.82833 0.72252 0.67018 0.0
O1226 O 0.78886 0.74662 0.69946 0.0
O1227 O 0.38943 0.15039 0.66492 0.0
Mn1228 Mn 0.33834 0.16428 0.6629 0.0
O1229 O 0.3568 0.08058 0.66851 0.0
Mn1230 Mn 0.32088 0.0882 0.69907 0.0
O1231 O 0.29256 0.18422 0.65941 0.0
O1232 O 0.38752 0.22756 0.65445 0.0
Mn1233 Mn 0.37052 0.22428 0.60885 0.0
O1234 O 0.3247 0.14237 0.60872 0.0
O1235 O 0.31607 0.21768 0.60695 0.0
O1236 O 0.34827 0.18185 0.71766 0.0
O1237 O 0.34514 0.1227 0.73931 0.0
O1238 O 0.41333 0.278 0.61083 0.0
O1239 O 0.38074 0.1891 0.5799 0.0
C1240 C 0.25884 0.06236 0.6831 0.0
C1241 C 0.39087 0.11554 0.66253 0.0
C1242 C 0.28954 0.20537 0.63287 0.0
C1243 C 0.41555 0.26665 0.64354 0.0
C1244 C 0.34743 0.15283 0.58029 0.0
C1245 C 0.35248 0.16096 0.74372 0.0
O1246 O 0.28776 0.10176 0.67314 0.0
O1247 O 0.26958 0.04243 0.7063 0.0
O1248 O 0.89846 0.17096 0.66833 0.0
Mn1249 Mn 0.83459 0.16005 0.6715 0.0
O1250 O 0.93786 0.2409 0.66709 0.0
Mn1251 Mn 0.89649 0.2372 0.63532 0.0
O1252 O 0.76974 0.14307 0.67671 0.0
O1253 O 0.81604 0.09494 0.67916 0.0
Mn1254 Mn 0.81485 0.11057 0.72489 0.0
O1255 O 0.84731 0.1856 0.72509 0.0
O1256 O 0.76959 0.1209 0.73217 0.0
O1257 O 0.82545 0.14305 0.61629 0.0
O1258 O 0.88321 0.20189 0.59528 0.0
O1259 O 0.79617 0.05588 0.73065 0.0
O1260 O 0.86612 0.14391 0.74905 0.0
C1261 C 0.85904 0.26126 0.65293 0.0
C1262 C 0.9354 0.20501 0.67198 0.0
C1263 C 0.75019 0.12755 0.70644 0.0
C1264 C 0.80064 0.05788 0.69597 0.0
C1265 C 0.86637 0.17873 0.75104 0.0
C1266 C 0.85061 0.16443 0.59028 0.0
O1267 O 0.84948 0.22184 0.6602 0.0
O1268 O 0.89059 0.28361 0.63124 0.0
loop_
_geom_bond_atom_site_label_1
_geom_bond_atom_site_label_2
_geom_bond_distance
_geom_bond_site_symmetry_2
_ccdc_geom_bond_type
C0 C1 1.391 . S
C0 C4 1.391 . S
C0 H42 0.948 . S
C1 C0 1.391 . S
C1 C2 1.391 . S
C2 C1 1.391 . S
C2 H58 0.947 . S
C2 C59 1.392 . S
C3 C4 1.391 . S
C3 C7 1.397 . S
C3 C59 1.419 . S
C4 C0 1.391 . S
C4 C3 1.391 . S
C4 C5 1.399 . S
C5 C4 1.399 . S
C5 C8 1.396 . S
C5 C17 1.453 . S
C5 C18 1.684 . S
H6 C30 0.948 . S
C7 C3 1.397 . S
C7 C8 1.394 . S
C7 C26 1.723 . S
C8 C5 1.396 . S
C8 C7 1.394 . S
C8 C38 1.723 . S
H9 C32 0.947 1_565 S
H10 C33 0.948 . S
H11 C39 0.982 . S
H12 C40 0.979 . S
H13 C40 0.980 . S
H14 C40 0.983 1_565 S
H15 C39 0.979 . S
H16 C39 0.977 . S
C17 C5 1.453 . S
C17 H46 0.982 . S
C17 H47 0.979 . S
C17 H48 0.977 . S
C18 C5 1.684 . S
C18 H43 0.979 . S
C18 H44 0.980 . S
C18 H45 0.983 . S
C19 C20 1.391 . S
C19 C24 1.391 . S
C19 H49 0.948 . S
C20 C19 1.391 . S
C20 C21 1.391 . S
C21 C20 1.391 . S
C21 C22 1.392 . S
C21 H50 0.947 . S
C22 C21 1.392 . S
C22 C23 1.419 . S
C22 H51 0.948 . S
C23 C22 1.419 . S
C23 C24 1.391 . S
C23 C27 1.397 . S
C24 C19 1.391 . S
C24 C23 1.391 . S
C24 C25 1.399 . S
C25 C24 1.399 . S
C25 C26 1.396 . S
C25 C28 1.453 . S
C25 C29 1.684 . S
C26 C7 1.723 . S
C26 C25 1.396 . S
C26 C27 1.394 . S
C27 C23 1.397 . S
C27 C26 1.394 . S
C27 C37 1.723 . S
C28 C25 1.453 . S
C28 H52 0.982 . S
C28 H53 0.979 . S
C28 H54 0.977 . S
C29 C25 1.684 . S
C29 H55 0.979 . S
C29 H56 0.980 . S
C29 H57 0.983 . S
C30 H6 0.948 . S
C30 C31 1.391 . S
C30 C35 1.391 1_565 S
C31 C30 1.391 . S
C31 C32 1.391 1_565 S
C32 H9 0.947 1_545 S
C32 C31 1.391 1_545 S
C32 C33 1.392 . S
C33 H10 0.948 . S
C33 C32 1.392 . S
C33 C34 1.419 . S
C34 C33 1.419 . S
C34 C35 1.391 . S
C34 C38 1.397 . S
C35 C30 1.391 1_545 S
C35 C34 1.391 . S
C35 C36 1.399 . S
C36 C35 1.399 . S
C36 C37 1.396 . S
C36 C39 1.453 . S
C36 C40 1.684 . S
C37 C27 1.723 . S
C37 C36 1.396 . S
C37 C38 1.394 . S
C38 C8 1.723 . S
C38 C34 1.397 . S
C38 C37 1.394 . S
C39 H11 0.982 . S
C39 H15 0.979 . S
C39 H16 0.977 . S
C39 C36 1.453 . S
C40 H12 0.979 . S
C40 H13 0.980 . S
C40 H14 0.983 1_545 S
C40 C36 1.684 . S
H41 C59 0.948 . S
H42 C0 0.948 . S
H43 C18 0.979 . S
H44 C18 0.980 . S
H45 C18 0.983 . S
H46 C17 0.982 . S
H47 C17 0.979 . S
H48 C17 0.977 . S
H49 C19 0.948 . S
H50 C21 0.947 . S
H51 C22 0.948 . S
H52 C28 0.982 . S
H53 C28 0.979 . S
H54 C28 0.977 . S
H55 C29 0.979 . S
H56 C29 0.980 . S
H57 C29 0.983 . S
H58 C2 0.947 . S
C59 C2 1.392 . S
C59 C3 1.419 . S
C59 H41 0.948 . S
C60 C61 1.391 1_655 S
C60 C64 1.391 . S
C60 H102 0.948 . S
C61 C60 1.391 1_455 S
C61 C62 1.391 . S
C62 C61 1.391 . S
C62 H118 0.947 . S
C62 C119 1.392 1_455 S
C63 C64 1.391 . S
C63 C67 1.397 . S
C63 C119 1.419 . S
C64 C60 1.391 . S
C64 C63 1.391 . S
C64 C65 1.399 . S
C65 C64 1.399 . S
C65 C68 1.396 . S
C65 C77 1.453 . S
C65 C78 1.684 . S
H66 C90 0.948 . S
C67 C63 1.397 . S
C67 C68 1.394 . S
C67 C86 1.723 . S
C68 C65 1.396 . S
C68 C67 1.394 . S
C68 C98 1.723 . S
H69 C92 0.947 1_565 S
H70 C93 0.948 . S
H71 C99 0.982 . S
H72 C100 0.979 . S
H73 C100 0.980 . S
H74 C100 0.983 . S
H75 C99 0.979 1_565 S
H76 C99 0.977 . S
C77 C65 1.453 . S
C77 H106 0.982 . S
C77 H107 0.979 . S
C77 H108 0.977 . S
C78 C65 1.684 . S
C78 H103 0.979 . S
C78 H104 0.980 . S
C78 H105 0.983 . S
C79 C80 1.391 . S
C79 C84 1.391 . S
C79 H109 0.948 . S
C80 C79 1.391 . S
C80 C81 1.391 . S
C81 C80 1.391 . S
C81 C82 1.392 . S
C81 H110 0.947 . S
C82 C81 1.392 . S
C82 C83 1.419 . S
C82 H111 0.948 . S
C83 C82 1.419 . S
C83 C84 1.391 . S
C83 C87 1.397 . S
C84 C79 1.391 . S
C84 C83 1.391 . S
C84 C85 1.399 . S
C85 C84 1.399 . S
C85 C86 1.396 . S
C85 C88 1.453 . S
C85 C89 1.684 . S
C86 C67 1.723 . S
C86 C85 1.396 . S
C86 C87 1.394 . S
C87 C83 1.397 . S
C87 C86 1.394 . S
C87 C97 1.723 . S
C88 C85 1.453 . S
C88 H112 0.982 . S
C88 H113 0.979 . S
C88 H114 0.977 . S
C89 C85 1.684 . S
C89 H115 0.979 . S
C89 H116 0.980 . S
C89 H117 0.983 . S
C90 H66 0.948 . S
C90 C91 1.391 . S
C90 C95 1.391 1_565 S
C91 C90 1.391 . S
C91 C92 1.391 1_565 S
C92 H69 0.947 1_545 S
C92 C91 1.391 1_545 S
C92 C93 1.392 . S
C93 H70 0.948 . S
C93 C92 1.392 . S
C93 C94 1.419 . S
C94 C93 1.419 . S
C94 C95 1.391 . S
C94 C98 1.397 . S
C95 C90 1.391 1_545 S
C95 C94 1.391 . S
C95 C96 1.399 . S
C96 C95 1.399 . S
C96 C97 1.396 . S
C96 C99 1.453 . S
C96 C100 1.684 . S
C97 C87 1.723 . S
C97 C96 1.396 . S
C97 C98 1.394 . S
C98 C68 1.723 . S
C98 C94 1.397 . S
C98 C97 1.394 . S
C99 H71 0.982 . S
C99 H75 0.979 1_545 S
C99 H76 0.977 . S
C99 C96 1.453 . S
C100 H72 0.979 . S
C100 H73 0.980 . S
C100 H74 0.983 . S
C100 C96 1.684 . S
H101 C119 0.948 . S
H102 C60 0.948 . S
H103 C78 0.979 . S
H104 C78 0.980 . S
H105 C78 0.983 . S
H106 C77 0.982 . S
H107 C77 0.979 . S
H108 C77 0.977 . S
H109 C79 0.948 . S
H110 C81 0.947 . S
H111 C82 0.948 . S
H112 C88 0.982 . S
H113 C88 0.979 . S
H114 C88 0.977 . S
H115 C89 0.979 . S
H116 C89 0.980 . S
H117 C89 0.983 . S
H118 C62 0.947 . S
C119 C62 1.392 1_655 S
C119 C63 1.419 . S
C119 H101 0.948 . S
C120 C121 1.391 1_655 S
C120 C124 1.391 . S
C120 H162 0.948 . S
C121 C120 1.391 1_455 S
C121 C122 1.391 . S
C122 C121 1.391 . S
C122 H178 0.947 . S
C122 C179 1.392 1_455 S
C123 C124 1.391 . S
C123 C127 1.397 . S
C123 C179 1.419 . S
C124 C120 1.391 . S
C124 C123 1.391 . S
C124 C125 1.399 . S
C125 C124 1.399 . S
C125 C128 1.396 . S
C125 C137 1.453 . S
C125 C138 1.684 . S
H126 C150 0.948 . S
C127 C123 1.397 . S
C127 C128 1.394 . S
C127 C146 1.723 . S
C128 C125 1.396 . S
C128 C127 1.394 . S
C128 C158 1.723 . S
H129 C152 0.947 . S
H130 C153 0.948 . S
H131 C159 0.982 . S
H132 C160 0.979 . S
H133 C160 0.980 . S
H134 C160 0.983 . S
H135 C159 0.979 . S
H136 C159 0.977 . S
C137 C125 1.453 . S
C137 H166 0.982 . S
C137 H167 0.979 . S
C137 H168 0.977 . S
C138 C125 1.684 . S
C138 H163 0.979 . S
C138 H164 0.980 . S
C138 H165 0.983 . S
C139 C140 1.391 . S
C139 C144 1.391 . S
C139 H169 0.948 . S
C140 C139 1.391 . S
C140 C141 1.391 . S
C141 C140 1.391 . S
C141 C142 1.392 . S
C141 H170 0.947 . S
C142 C141 1.392 . S
C142 C143 1.419 . S
C142 H171 0.948 . S
C143 C142 1.419 . S
C143 C144 1.391 . S
C143 C147 1.397 . S
C144 C139 1.391 . S
C144 C143 1.391 . S
C144 C145 1.399 . S
C145 C144 1.399 . S
C145 C146 1.396 . S
C145 C148 1.453 . S
C145 C149 1.684 . S
C146 C127 1.723 . S
C146 C145 1.396 . S
C146 C147 1.394 . S
C147 C143 1.397 . S
C147 C146 1.394 . S
C147 C157 1.723 . S
C148 C145 1.453 . S
C148 H172 0.982 . S
C148 H173 0.979 . S
C148 H174 0.977 . S
C149 C145 1.684 . S
C149 H175 0.979 . S
C149 H176 0.980 . S
C149 H177 0.983 . S
C150 H126 0.948 . S
C150 C151 1.391 . S
C150 C155 1.391 . S
C151 C150 1.391 . S
C151 C152 1.391 . S
C152 H129 0.947 . S
C152 C151 1.391 . S
C152 C153 1.392 . S
C153 H130 0.948 . S
C153 C152 1.392 . S
C153 C154 1.419 . S
C154 C153 1.419 . S
C154 C155 1.391 . S
C154 C158 1.397 . S
C155 C150 1.391 . S
C155 C154 1.391 . S
C155 C156 1.399 . S
C156 C155 1.399 . S
C156 C157 1.396 . S
C156 C159 1.453 . S
C156 C160 1.684 . S
C157 C147 1.723 . S
C157 C156 1.396 . S
C157 C158 1.394 . S
C158 C128 1.723 . S
C158 C154 1.397 . S
C158 C157 1.394 . S
C159 H131 0.982 . S
C159 H135 0.979 . S
C159 H136 0.977 . S
C159 C156 1.453 . S
C160 H132 0.979 . S
C160 H133 0.980 . S
C160 H134 0.983 . S
C160 C156 1.684 . S
H161 C179 0.948 . S
H162 C120 0.948 . S
H163 C138 0.979 . S
H164 C138 0.980 . S
H165 C138 0.983 . S
H166 C137 0.982 . S
H167 C137 0.979 . S
H168 C137 0.977 . S
H169 C139 0.948 . S
H170 C141 0.947 . S
H171 C142 0.948 . S
H172 C148 0.982 . S
H173 C148 0.979 . S
H174 C148 0.977 . S
H175 C149 0.979 . S
H176 C149 0.980 . S
H177 C149 0.983 . S
H178 C122 0.947 . S
C179 C122 1.392 1_655 S
C179 C123 1.419 . S
C179 H161 0.948 . S
C180 C181 1.391 . S
C180 C184 1.391 . S
C180 H222 0.948 . S
C181 C180 1.391 . S
C181 C182 1.391 . S
C182 C181 1.391 . S
C182 H238 0.947 . S
C182 C239 1.392 . S
C183 C184 1.391 . S
C183 C187 1.397 . S
C183 C239 1.419 . S
C184 C180 1.391 . S
C184 C183 1.391 . S
C184 C185 1.399 . S
C185 C184 1.399 . S
C185 C188 1.396 . S
C185 C197 1.453 . S
C185 C198 1.684 . S
H186 C210 0.948 . S
C187 C183 1.397 . S
C187 C188 1.394 . S
C187 C206 1.723 . S
C188 C185 1.396 . S
C188 C187 1.394 . S
C188 C218 1.723 . S
H189 C212 0.947 . S
H190 C213 0.948 . S
H191 C219 0.982 . S
H192 C220 0.979 . S
H193 C220 0.980 . S
H194 C220 0.983 1_655 S
H195 C219 0.979 . S
H196 C219 0.977 . S
C197 C185 1.453 . S
C197 H226 0.982 . S
C197 H227 0.979 . S
C197 H228 0.977 . S
C198 C185 1.684 . S
C198 H223 0.979 . S
C198 H224 0.980 . S
C198 H225 0.983 . S
C199 C200 1.391 . S
C199 C204 1.391 . S
C199 H229 0.948 . S
C200 C199 1.391 . S
C200 C201 1.391 . S
C201 C200 1.391 . S
C201 C202 1.392 . S
C201 H230 0.947 . S
C202 C201 1.392 . S
C202 C203 1.419 . S
C202 H231 0.948 . S
C203 C202 1.419 . S
C203 C204 1.391 . S
C203 C207 1.397 . S
C204 C199 1.391 . S
C204 C203 1.391 . S
C204 C205 1.399 . S
C205 C204 1.399 . S
C205 C206 1.396 . S
C205 C208 1.453 . S
C205 C209 1.684 . S
C206 C187 1.723 . S
C206 C205 1.396 . S
C206 C207 1.394 . S
C207 C203 1.397 . S
C207 C206 1.394 . S
C207 C217 1.723 . S
C208 C205 1.453 . S
C208 H232 0.982 . S
C208 H233 0.979 . S
C208 H234 0.977 . S
C209 C205 1.684 . S
C209 H235 0.979 . S
C209 H236 0.980 . S
C209 H237 0.983 . S
C210 H186 0.948 . S
C210 C211 1.391 . S
C210 C215 1.391 1_655 S
C211 C210 1.391 . S
C211 C212 1.391 1_655 S
C212 H189 0.947 . S
C212 C211 1.391 1_455 S
C212 C213 1.392 . S
C213 H190 0.948 . S
C213 C212 1.392 . S
C213 C214 1.419 . S
C214 C213 1.419 . S
C214 C215 1.391 . S
C214 C218 1.397 . S
C215 C210 1.391 1_455 S
C215 C214 1.391 . S
C215 C216 1.399 . S
C216 C215 1.399 . S
C216 C217 1.396 . S
C216 C219 1.453 . S
C216 C220 1.684 . S
C217 C207 1.723 . S
C217 C216 1.396 . S
C217 C218 1.394 . S
C218 C188 1.723 . S
C218 C214 1.397 . S
C218 C217 1.394 . S
C219 H191 0.982 . S
C219 H195 0.979 . S
C219 H196 0.977 . S
C219 C216 1.453 . S
C220 H192 0.979 . S
C220 H193 0.980 . S
C220 H194 0.983 1_455 S
C220 C216 1.684 . S
H221 C239 0.948 . S
H222 C180 0.948 . S
H223 C198 0.979 . S
H224 C198 0.980 . S
H225 C198 0.983 . S
H226 C197 0.982 . S
H227 C197 0.979 . S
H228 C197 0.977 . S
H229 C199 0.948 . S
H230 C201 0.947 . S
H231 C202 0.948 . S
H232 C208 0.982 . S
H233 C208 0.979 . S
H234 C208 0.977 . S
H235 C209 0.979 . S
H236 C209 0.980 . S
H237 C209 0.983 . S
H238 C182 0.947 . S
C239 C182 1.392 . S
C239 C183 1.419 . S
C239 H221 0.948 . S
C240 C241 1.391 . S
C240 C244 1.391 . S
C240 H282 0.948 . S
C241 C240 1.391 . S
C241 C242 1.391 . S
C242 C241 1.391 . S
C242 H298 0.947 . S
C242 C299 1.392 . S
C243 C244 1.391 . S
C243 C247 1.397 . S
C243 C299 1.419 . S
C244 C240 1.391 . S
C244 C243 1.391 . S
C244 C245 1.399 . S
C245 C244 1.399 . S
C245 C248 1.396 . S
C245 C257 1.453 . S
C245 C258 1.684 . S
H246 C270 0.948 . S
C247 C243 1.397 . S
C247 C248 1.394 . S
C247 C266 1.723 . S
C248 C245 1.396 . S
C248 C247 1.394 . S
C248 C278 1.723 . S
H249 C272 0.947 1_545 S
H250 C273 0.948 . S
H251 C279 0.982 . S
H252 C280 0.979 . S
H253 C280 0.980 . S
H254 C280 0.983 . S
H255 C279 0.979 1_545 S
H256 C279 0.977 . S
C257 C245 1.453 . S
C257 H286 0.982 . S
C257 H287 0.979 . S
C257 H288 0.977 . S
C258 C245 1.684 . S
C258 H283 0.979 . S
C258 H284 0.980 . S
C258 H285 0.983 . S
C259 C260 1.391 . S
C259 C264 1.391 . S
C259 H289 0.948 . S
C260 C259 1.391 . S
C260 C261 1.391 . S
C261 C260 1.391 . S
C261 C262 1.392 . S
C261 H290 0.947 . S
C262 C261 1.392 . S
C262 C263 1.419 . S
C262 H291 0.948 . S
C263 C262 1.419 . S
C263 C264 1.391 . S
C263 C267 1.397 . S
C264 C259 1.391 . S
C264 C263 1.391 . S
C264 C265 1.399 . S
C265 C264 1.399 . S
C265 C266 1.396 . S
C265 C268 1.453 . S
C265 C269 1.684 . S
C266 C247 1.723 . S
C266 C265 1.396 . S
C266 C267 1.394 . S
C267 C263 1.397 . S
C267 C266 1.394 . S
C267 C277 1.723 . S
C268 C265 1.453 . S
C268 H292 0.982 . S
C268 H293 0.979 . S
C268 H294 0.977 . S
C269 C265 1.684 . S
C269 H295 0.979 . S
C269 H296 0.980 . S
C269 H297 0.983 . S
C270 H246 0.948 . S
C270 C271 1.391 . S
C270 C275 1.391 1_545 S
C271 C270 1.391 . S
C271 C272 1.391 1_545 S
C272 H249 0.947 1_565 S
C272 C271 1.391 1_565 S
C272 C273 1.392 . S
C273 H250 0.948 . S
C273 C272 1.392 . S
C273 C274 1.419 . S
C274 C273 1.419 . S
C274 C275 1.391 . S
C274 C278 1.397 . S
C275 C270 1.391 1_565 S
C275 C274 1.391 . S
C275 C276 1.399 . S
C276 C275 1.399 . S
C276 C277 1.396 . S
C276 C279 1.453 . S
C276 C280 1.684 . S
C277 C267 1.723 . S
C277 C276 1.396 . S
C277 C278 1.394 . S
C278 C248 1.723 . S
C278 C274 1.397 . S
C278 C277 1.394 . S
C279 H251 0.982 . S
C279 H255 0.979 1_565 S
C279 H256 0.977 . S
C279 C276 1.453 . S
C280 H252 0.979 . S
C280 H253 0.980 . S
C280 H254 0.983 . S
C280 C276 1.684 . S
H281 C299 0.948 . S
H282 C240 0.948 . S
H283 C258 0.979 . S
H284 C258 0.980 . S
H285 C258 0.983 . S
H286 C257 0.982 . S
H287 C257 0.979 . S
H288 C257 0.977 . S
H289 C259 0.948 . S
H290 C261 0.947 . S
H291 C262 0.948 . S
H292 C268 0.982 . S
H293 C268 0.979 . S
H294 C268 0.977 . S
H295 C269 0.979 . S
H296 C269 0.980 . S
H297 C269 0.983 . S
H298 C242 0.947 . S
C299 C242 1.392 . S
C299 C243 1.419 . S
C299 H281 0.948 . S
C300 C301 1.391 1_455 S
C300 C304 1.391 . S
C300 H342 0.948 . S
C301 C300 1.391 1_655 S
C301 C302 1.391 . S
C302 C301 1.391 . S
C302 H358 0.947 . S
C302 C359 1.392 1_655 S
C303 C304 1.391 . S
C303 C307 1.397 . S
C303 C359 1.419 . S
C304 C300 1.391 . S
C304 C303 1.391 . S
C304 C305 1.399 . S
C305 C304 1.399 . S
C305 C308 1.396 . S
C305 C317 1.453 . S
C305 C318 1.684 . S
H306 C330 0.948 . S
C307 C303 1.397 . S
C307 C308 1.394 . S
C307 C326 1.723 . S
C308 C305 1.396 . S
C308 C307 1.394 . S
C308 C338 1.723 . S
H309 C332 0.947 1_545 S
H310 C333 0.948 . S
H311 C339 0.982 . S
H312 C340 0.979 . S
H313 C340 0.980 . S
H314 C340 0.983 1_545 S
H315 C339 0.979 . S
H316 C339 0.977 . S
C317 C305 1.453 . S
C317 H346 0.982 . S
C317 H347 0.979 . S
C317 H348 0.977 . S
C318 C305 1.684 . S
C318 H343 0.979 . S
C318 H344 0.980 . S
C318 H345 0.983 . S
C319 C320 1.391 . S
C319 C324 1.391 . S
C319 H349 0.948 . S
C320 C319 1.391 . S
C320 C321 1.391 . S
C321 C320 1.391 . S
C321 C322 1.392 . S
C321 H350 0.947 . S
C322 C321 1.392 . S
C322 C323 1.419 . S
C322 H351 0.948 . S
C323 C322 1.419 . S
C323 C324 1.391 . S
C323 C327 1.397 . S
C324 C319 1.391 . S
C324 C323 1.391 . S
C324 C325 1.399 . S
C325 C324 1.399 . S
C325 C326 1.396 . S
C325 C328 1.453 . S
C325 C329 1.684 . S
C326 C307 1.723 . S
C326 C325 1.396 . S
C326 C327 1.394 . S
C327 C323 1.397 . S
C327 C326 1.394 . S
C327 C337 1.723 . S
C328 C325 1.453 . S
C328 H352 0.982 . S
C328 H353 0.979 . S
C328 H354 0.977 . S
C329 C325 1.684 . S
C329 H355 0.979 . S
C329 H356 0.980 . S
C329 H357 0.983 . S
C330 H306 0.948 . S
C330 C331 1.391 . S
C330 C335 1.391 1_545 S
C331 C330 1.391 . S
C331 C332 1.391 1_545 S
C332 H309 0.947 1_565 S
C332 C331 1.391 1_565 S
C332 C333 1.392 . S
C333 H310 0.948 . S
C333 C332 1.392 . S
C333 C334 1.419 . S
C334 C333 1.419 . S
C334 C335 1.391 . S
C334 C338 1.397 . S
C335 C330 1.391 1_565 S
C335 C334 1.391 . S
C335 C336 1.399 . S
C336 C335 1.399 . S
C336 C337 1.396 . S
C336 C339 1.453 . S
C336 C340 1.684 . S
C337 C327 1.723 . S
C337 C336 1.396 . S
C337 C338 1.394 . S
C338 C308 1.723 . S
C338 C334 1.397 . S
C338 C337 1.394 . S
C339 H311 0.982 . S
C339 H315 0.979 . S
C339 H316 0.977 . S
C339 C336 1.453 . S
C340 H312 0.979 . S
C340 H313 0.980 . S
C340 H314 0.983 1_565 S
C340 C336 1.684 . S
H341 C359 0.948 . S
H342 C300 0.948 . S
H343 C318 0.979 . S
H344 C318 0.980 . S
H345 C318 0.983 . S
H346 C317 0.982 . S
H347 C317 0.979 . S
H348 C317 0.977 . S
H349 C319 0.948 . S
H350 C321 0.947 . S
H351 C322 0.948 . S
H352 C328 0.982 . S
H353 C328 0.979 . S
H354 C328 0.977 . S
H355 C329 0.979 . S
H356 C329 0.980 . S
H357 C329 0.983 . S
H358 C302 0.947 . S
C359 C302 1.392 1_455 S
C359 C303 1.419 . S
C359 H341 0.948 . S
C360 C361 1.391 . S
C360 C364 1.391 . S
C360 H402 0.948 . S
C361 C360 1.391 . S
C361 C362 1.391 . S
C362 C361 1.391 . S
C362 H418 0.947 . S
C362 C419 1.392 . S
C363 C364 1.391 . S
C363 C367 1.397 . S
C363 C419 1.419 . S
C364 C360 1.391 . S
C364 C363 1.391 . S
C364 C365 1.399 . S
C365 C364 1.399 . S
C365 C368 1.396 . S
C365 C377 1.453 . S
C365 C378 1.684 . S
H366 C390 0.948 . S
C367 C363 1.397 . S
C367 C368 1.394 . S
C367 C386 1.723 . S
C368 C365 1.396 . S
C368 C367 1.394 . S
C368 C398 1.723 . S
H369 C392 0.947 . S
H370 C393 0.948 . S
H371 C399 0.982 . S
H372 C400 0.979 . S
H373 C400 0.980 . S
H374 C400 0.983 . S
H375 C399 0.979 . S
H376 C399 0.977 . S
C377 C365 1.453 . S
C377 H406 0.982 . S
C377 H407 0.979 . S
C377 H408 0.977 . S
C378 C365 1.684 . S
C378 H403 0.979 . S
C378 H404 0.980 . S
C378 H405 0.983 . S
C379 C380 1.391 . S
C379 C384 1.391 . S
C379 H409 0.948 . S
C380 C379 1.391 . S
C380 C381 1.391 . S
C381 C380 1.391 . S
C381 C382 1.392 . S
C381 H410 0.947 . S
C382 C381 1.392 . S
C382 C383 1.419 . S
C382 H411 0.948 . S
C383 C382 1.419 . S
C383 C384 1.391 . S
C383 C387 1.397 . S
C384 C379 1.391 . S
C384 C383 1.391 . S
C384 C385 1.399 . S
C385 C384 1.399 . S
C385 C386 1.396 . S
C385 C388 1.453 . S
C385 C389 1.684 . S
C386 C367 1.723 . S
C386 C385 1.396 . S
C386 C387 1.394 . S
C387 C383 1.397 . S
C387 C386 1.394 . S
C387 C397 1.723 . S
C388 C385 1.453 . S
C388 H412 0.982 1_655 S
C388 H413 0.979 . S
C388 H414 0.977 . S
C389 C385 1.684 . S
C389 H415 0.979 . S
C389 H416 0.980 . S
C389 H417 0.983 . S
C390 H366 0.948 . S
C390 C391 1.391 . S
C390 C395 1.391 . S
C391 C390 1.391 . S
C391 C392 1.391 . S
C392 H369 0.947 . S
C392 C391 1.391 . S
C392 C393 1.392 . S
C393 H370 0.948 . S
C393 C392 1.392 . S
C393 C394 1.419 . S
C394 C393 1.419 . S
C394 C395 1.391 . S
C394 C398 1.397 . S
C395 C390 1.391 . S
C395 C394 1.391 . S
C395 C396 1.399 . S
C396 C395 1.399 . S
C396 C397 1.396 . S
C396 C399 1.453 . S
C396 C400 1.684 . S
C397 C387 1.723 . S
C397 C396 1.396 . S
C397 C398 1.394 . S
C398 C368 1.723 . S
C398 C394 1.397 . S
C398 C397 1.394 . S
C399 H371 0.982 . S
C399 H375 0.979 . S
C399 H376 0.977 . S
C399 C396 1.453 . S
C400 H372 0.979 . S
C400 H373 0.980 . S
C400 H374 0.983 . S
C400 C396 1.684 . S
H401 C419 0.948 . S
H402 C360 0.948 . S
H403 C378 0.979 . S
H404 C378 0.980 . S
H405 C378 0.983 . S
H406 C377 0.982 . S
H407 C377 0.979 . S
H408 C377 0.977 . S
H409 C379 0.948 . S
H410 C381 0.947 . S
H411 C382 0.948 . S
H412 C388 0.982 1_455 S
H413 C388 0.979 . S
H414 C388 0.977 . S
H415 C389 0.979 . S
H416 C389 0.980 . S
H417 C389 0.983 . S
H418 C362 0.947 . S
C419 C362 1.392 . S
C419 C363 1.419 . S
C419 H401 0.948 . S
C420 C421 1.391 . S
C420 C424 1.391 . S
C420 H462 0.948 . S
C421 C420 1.391 . S
C421 C422 1.391 . S
C422 C421 1.391 . S
C422 H478 0.947 . S
C422 C479 1.392 . S
C423 C424 1.391 . S
C423 C427 1.397 . S
C423 C479 1.419 . S
C424 C420 1.391 . S
C424 C423 1.391 . S
C424 C425 1.399 . S
C425 C424 1.399 . S
C425 C428 1.396 . S
C425 C437 1.453 . S
C425 C438 1.684 . S
H426 C450 0.948 . S
C427 C423 1.397 . S
C427 C428 1.394 . S
C427 C446 1.723 . S
C428 C425 1.396 . S
C428 C427 1.394 . S
C428 C458 1.723 . S
H429 C452 0.947 . S
H430 C453 0.948 . S
H431 C459 0.982 . S
H432 C460 0.979 . S
H433 C460 0.980 . S
H434 C460 0.983 . S
H435 C459 0.979 . S
H436 C459 0.977 . S
C437 C425 1.453 . S
C437 H466 0.982 . S
C437 H467 0.979 . S
C437 H468 0.977 . S
C438 C425 1.684 . S
C438 H463 0.979 . S
C438 H464 0.980 . S
C438 H465 0.983 . S
C439 C440 1.391 . S
C439 C444 1.391 . S
C439 H469 0.948 . S
C440 C439 1.391 . S
C440 C441 1.391 . S
C441 C440 1.391 . S
C441 C442 1.392 . S
C441 H470 0.947 . S
C442 C441 1.392 . S
C442 C443 1.419 . S
C442 H471 0.948 . S
C443 C442 1.419 . S
C443 C444 1.391 . S
C443 C447 1.397 . S
C444 C439 1.391 . S
C444 C443 1.391 . S
C444 C445 1.399 . S
C445 C444 1.399 . S
C445 C446 1.396 . S
C445 C448 1.453 . S
C445 C449 1.684 . S
C446 C427 1.723 . S
C446 C445 1.396 . S
C446 C447 1.394 . S
C447 C443 1.397 . S
C447 C446 1.394 . S
C447 C457 1.723 . S
C448 C445 1.453 . S
C448 H472 0.982 . S
C448 H473 0.979 . S
C448 H474 0.977 . S
C449 C445 1.684 . S
C449 H475 0.979 . S
C449 H476 0.980 . S
C449 H477 0.983 . S
C450 H426 0.948 . S
C450 C451 1.391 . S
C450 C455 1.391 . S
C451 C450 1.391 . S
C451 C452 1.391 . S
C452 H429 0.947 . S
C452 C451 1.391 . S
C452 C453 1.392 . S
C453 H430 0.948 . S
C453 C452 1.392 . S
C453 C454 1.419 . S
C454 C453 1.419 . S
C454 C455 1.391 . S
C454 C458 1.397 . S
C455 C450 1.391 . S
C455 C454 1.391 . S
C455 C456 1.399 . S
C456 C455 1.399 . S
C456 C457 1.396 . S
C456 C459 1.453 . S
C456 C460 1.684 . S
C457 C447 1.723 . S
C457 C456 1.396 . S
C457 C458 1.394 . S
C458 C428 1.723 . S
C458 C454 1.397 . S
C458 C457 1.394 . S
C459 H431 0.982 . S
C459 H435 0.979 . S
C459 H436 0.977 . S
C459 C456 1.453 . S
C460 H432 0.979 . S
C460 H433 0.980 . S
C460 H434 0.983 . S
C460 C456 1.684 . S
H461 C479 0.948 . S
H462 C420 0.948 . S
H463 C438 0.979 . S
H464 C438 0.980 . S
H465 C438 0.983 . S
H466 C437 0.982 . S
H467 C437 0.979 . S
H468 C437 0.977 . S
H469 C439 0.948 . S
H470 C441 0.947 . S
H471 C442 0.948 . S
H472 C448 0.982 . S
H473 C448 0.979 . S
H474 C448 0.977 . S
H475 C449 0.979 . S
H476 C449 0.980 . S
H477 C449 0.983 . S
H478 C422 0.947 . S
C479 C422 1.392 . S
C479 C423 1.419 . S
C479 H461 0.948 . S
C480 C481 1.391 . S
C480 C484 1.391 . S
C480 H522 0.948 . S
C481 C480 1.391 . S
C481 C482 1.391 . S
C482 C481 1.391 . S
C482 H538 0.947 . S
C482 C539 1.392 . S
C483 C484 1.391 . S
C483 C487 1.397 . S
C483 C539 1.419 . S
C484 C480 1.391 . S
C484 C483 1.391 . S
C484 C485 1.399 . S
C485 C484 1.399 . S
C485 C488 1.396 . S
C485 C497 1.453 . S
C485 C498 1.684 . S
H486 C510 0.948 . S
C487 C483 1.397 . S
C487 C488 1.394 . S
C487 C506 1.723 . S
C488 C485 1.396 . S
C488 C487 1.394 . S
C488 C518 1.723 . S
H489 C512 0.947 . S
H490 C513 0.948 . S
H491 C519 0.982 . S
H492 C520 0.979 . S
H493 C520 0.980 . S
H494 C520 0.983 . S
H495 C519 0.979 . S
H496 C519 0.977 . S
C497 C485 1.453 . S
C497 H526 0.982 . S
C497 H527 0.979 . S
C497 H528 0.977 . S
C498 C485 1.684 . S
C498 H523 0.979 . S
C498 H524 0.980 . S
C498 H525 0.983 . S
C499 C500 1.391 . S
C499 C504 1.391 . S
C499 H529 0.948 . S
C500 C499 1.391 . S
C500 C501 1.391 . S
C501 C500 1.391 . S
C501 C502 1.392 . S
C501 H530 0.947 . S
C502 C501 1.392 . S
C502 C503 1.419 . S
C502 H531 0.948 . S
C503 C502 1.419 . S
C503 C504 1.391 . S
C503 C507 1.397 . S
C504 C499 1.391 . S
C504 C503 1.391 . S
C504 C505 1.399 . S
C505 C504 1.399 . S
C505 C506 1.396 . S
C505 C508 1.453 . S
C505 C509 1.684 . S
C506 C487 1.723 . S
C506 C505 1.396 . S
C506 C507 1.394 . S
C507 C503 1.397 . S
C507 C506 1.394 . S
C507 C517 1.723 . S
C508 C505 1.453 . S
C508 H532 0.982 1_545 S
C508 H533 0.979 . S
C508 H534 0.977 . S
C509 C505 1.684 . S
C509 H535 0.979 . S
C509 H536 0.980 . S
C509 H537 0.983 . S
C510 H486 0.948 . S
C510 C511 1.391 . S
C510 C515 1.391 . S
C511 C510 1.391 . S
C511 C512 1.391 . S
C512 H489 0.947 . S
C512 C511 1.391 . S
C512 C513 1.392 . S
C513 H490 0.948 . S
C513 C512 1.392 . S
C513 C514 1.419 . S
C514 C513 1.419 . S
C514 C515 1.391 . S
C514 C518 1.397 . S
C515 C510 1.391 . S
C515 C514 1.391 . S
C515 C516 1.399 . S
C516 C515 1.399 . S
C516 C517 1.396 . S
C516 C519 1.453 . S
C516 C520 1.684 . S
C517 C507 1.723 . S
C517 C516 1.396 . S
C517 C518 1.394 . S
C518 C488 1.723 . S
C518 C514 1.397 . S
C518 C517 1.394 . S
C519 H491 0.982 . S
C519 H495 0.979 . S
C519 H496 0.977 . S
C519 C516 1.453 . S
C520 H492 0.979 . S
C520 H493 0.980 . S
C520 H494 0.983 . S
C520 C516 1.684 . S
H521 C539 0.948 . S
H522 C480 0.948 . S
H523 C498 0.979 . S
H524 C498 0.980 . S
H525 C498 0.983 . S
H526 C497 0.982 . S
H527 C497 0.979 . S
H528 C497 0.977 . S
H529 C499 0.948 . S
H530 C501 0.947 . S
H531 C502 0.948 . S
H532 C508 0.982 1_565 S
H533 C508 0.979 . S
H534 C508 0.977 . S
H535 C509 0.979 . S
H536 C509 0.980 . S
H537 C509 0.983 . S
H538 C482 0.947 . S
C539 C482 1.392 . S
C539 C483 1.419 . S
C539 H521 0.948 . S
C540 C541 1.381 1_554 S
C540 C544 1.391 1_554 S
C540 H582 0.948 . S
C541 C540 1.381 1_556 S
C541 C542 1.415 . S
C542 C541 1.415 . S
C542 H598 0.947 . S
C542 C599 1.392 . S
C543 C544 1.391 . S
C543 C547 1.397 . S
C543 C599 1.419 . S
C544 C540 1.391 1_556 S
C544 C543 1.391 . S
C544 C545 1.399 1_556 S
C545 C544 1.399 1_554 S
C545 C548 1.396 1_554 S
C545 C557 1.453 . S
C545 C558 1.684 . S
H546 C570 0.948 . S
C547 C543 1.397 . S
C547 C548 1.394 . S
C547 C566 1.723 . S
C548 C545 1.396 1_556 S
C548 C547 1.394 . S
C548 C578 1.723 . S
H549 C572 0.947 . S
H550 C573 0.948 . S
H551 C579 0.982 . S
H552 C580 0.979 . S
H553 C580 0.980 . S
H554 C580 0.983 . S
H555 C579 0.979 . S
H556 C579 0.977 . S
C557 C545 1.453 . S
C557 H586 0.982 . S
C557 H587 0.979 . S
C557 H588 0.977 . S
C558 C545 1.684 . S
C558 H583 0.979 . S
C558 H584 0.980 . S
C558 H585 0.983 . S
C559 C560 1.391 . S
C559 C564 1.391 . S
C559 H589 0.948 . S
C560 C559 1.391 . S
C560 C561 1.391 . S
C561 C560 1.391 . S
C561 C562 1.392 . S
C561 H590 0.947 . S
C562 C561 1.392 . S
C562 C563 1.419 . S
C562 H591 0.948 . S
C563 C562 1.419 . S
C563 C564 1.391 . S
C563 C567 1.397 . S
C564 C559 1.391 . S
C564 C563 1.391 . S
C564 C565 1.399 . S
C565 C564 1.399 . S
C565 C566 1.396 . S
C565 C568 1.453 . S
C565 C569 1.684 . S
C566 C547 1.723 . S
C566 C565 1.396 . S
C566 C567 1.394 . S
C567 C563 1.397 . S
C567 C566 1.394 . S
C567 C577 1.723 . S
C568 C565 1.453 . S
C568 H592 0.982 . S
C568 H593 0.979 . S
C568 H594 0.977 . S
C569 C565 1.684 . S
C569 H595 0.979 . S
C569 H596 0.980 . S
C569 H597 0.983 . S
C570 H546 0.948 . S
C570 C571 1.391 1_556 S
C570 C575 1.391 . S
C571 C570 1.391 1_554 S
C571 C572 1.391 . S
C572 H549 0.947 . S
C572 C571 1.391 . S
C572 C573 1.392 . S
C573 H550 0.948 . S
C573 C572 1.392 . S
C573 C574 1.419 1_554 S
C574 C573 1.419 1_556 S
C574 C575 1.391 . S
C574 C578 1.397 . S
C575 C570 1.391 . S
C575 C574 1.391 . S
C575 C576 1.399 . S
C576 C575 1.399 . S
C576 C577 1.396 . S
C576 C579 1.453 . S
C576 C580 1.684 . S
C577 C567 1.723 . S
C577 C576 1.396 . S
C577 C578 1.394 . S
C578 C548 1.723 . S
C578 C574 1.397 . S
C578 C577 1.394 . S
C579 H551 0.982 . S
C579 H555 0.979 . S
C579 H556 0.977 . S
C579 C576 1.453 . S
C580 H552 0.979 . S
C580 H553 0.980 . S
C580 H554 0.983 . S
C580 C576 1.684 . S
H581 C599 0.948 . S
H582 C540 0.948 . S
H583 C558 0.979 . S
H584 C558 0.980 . S
H585 C558 0.983 . S
H586 C557 0.982 . S
H587 C557 0.979 . S
H588 C557 0.977 . S
H589 C559 0.948 . S
H590 C561 0.947 . S
H591 C562 0.948 . S
H592 C568 0.982 . S
H593 C568 0.979 . S
H594 C568 0.977 . S
H595 C569 0.979 . S
H596 C569 0.980 . S
H597 C569 0.983 . S
H598 C542 0.947 . S
C599 C542 1.392 . S
C599 C543 1.419 . S
C599 H581 0.948 . S
C600 C601 1.391 . S
C600 C604 1.391 1_554 S
C600 H642 0.948 . S
C601 C600 1.391 . S
C601 C602 1.391 1_554 S
C602 C601 1.391 1_556 S
C602 H658 0.947 . S
C602 C659 1.392 . S
C603 C604 1.391 . S
C603 C607 1.397 . S
C603 C659 1.419 . S
C604 C600 1.391 1_556 S
C604 C603 1.391 . S
C604 C605 1.399 1_556 S
C605 C604 1.399 1_554 S
C605 C608 1.396 1_554 S
C605 C617 1.453 . S
C605 C618 1.684 . S
H606 C630 0.948 . S
C607 C603 1.397 . S
C607 C608 1.394 . S
C607 C626 1.723 . S
C608 C605 1.396 1_556 S
C608 C607 1.394 . S
C608 C638 1.723 . S
H609 C632 0.947 . S
H610 C633 0.948 . S
H611 C639 0.982 . S
H612 C640 0.979 . S
H613 C640 0.980 . S
H614 C640 0.983 . S
H615 C639 0.979 . S
H616 C639 0.977 . S
C617 C605 1.453 . S
C617 H646 0.982 1_554 S
C617 H647 0.979 . S
C617 H648 0.977 . S
C618 C605 1.684 . S
C618 H643 0.979 . S
C618 H644 0.980 . S
C618 H645 0.983 . S
C619 C620 1.391 . S
C619 C624 1.391 . S
C619 H649 0.948 . S
C620 C619 1.391 . S
C620 C621 1.391 . S
C621 C620 1.391 . S
C621 C622 1.392 . S
C621 H650 0.947 . S
C622 C621 1.392 . S
C622 C623 1.419 . S
C622 H651 0.948 . S
C623 C622 1.419 . S
C623 C624 1.391 . S
C623 C627 1.397 . S
C624 C619 1.391 . S
C624 C623 1.391 . S
C624 C625 1.399 . S
C625 C624 1.399 . S
C625 C626 1.396 . S
C625 C628 1.453 . S
C625 C629 1.684 . S
C626 C607 1.723 . S
C626 C625 1.396 . S
C626 C627 1.394 . S
C627 C623 1.397 . S
C627 C626 1.394 . S
C627 C637 1.723 . S
C628 C625 1.453 . S
C628 H652 0.982 . S
C628 H653 0.979 . S
C628 H654 0.977 . S
C629 C625 1.684 . S
C629 H655 0.979 . S
C629 H656 0.980 . S
C629 H657 0.983 . S
C630 H606 0.948 . S
C630 C631 1.391 1_556 S
C630 C635 1.391 . S
C631 C630 1.391 1_554 S
C631 C632 1.391 . S
C632 H609 0.947 . S
C632 C631 1.391 . S
C632 C633 1.392 . S
C633 H610 0.948 . S
C633 C632 1.392 . S
C633 C634 1.419 1_554 S
C634 C633 1.419 1_556 S
C634 C635 1.391 . S
C634 C638 1.397 . S
C635 C630 1.391 . S
C635 C634 1.391 . S
C635 C636 1.399 . S
C636 C635 1.399 . S
C636 C637 1.396 . S
C636 C639 1.453 . S
C636 C640 1.684 . S
C637 C627 1.723 . S
C637 C636 1.396 . S
C637 C638 1.394 . S
C638 C608 1.723 . S
C638 C634 1.397 . S
C638 C637 1.394 . S
C639 H611 0.982 . S
C639 H615 0.979 . S
C639 H616 0.977 . S
C639 C636 1.453 . S
C640 H612 0.979 . S
C640 H613 0.980 . S
C640 H614 0.983 . S
C640 C636 1.684 . S
H641 C659 0.948 . S
H642 C600 0.948 . S
H643 C618 0.979 . S
H644 C618 0.980 . S
H645 C618 0.983 . S
H646 C617 0.982 1_556 S
H647 C617 0.979 . S
H648 C617 0.977 . S
H649 C619 0.948 . S
H650 C621 0.947 . S
H651 C622 0.948 . S
H652 C628 0.982 . S
H653 C628 0.979 . S
H654 C628 0.977 . S
H655 C629 0.979 . S
H656 C629 0.980 . S
H657 C629 0.983 . S
H658 C602 0.947 . S
C659 C602 1.392 . S
C659 C603 1.419 . S
C659 H641 0.948 . S
C660 C661 1.391 1_554 S
C660 C664 1.391 1_554 S
C660 H702 0.948 . S
C661 C660 1.391 1_556 S
C661 C662 1.391 . S
C662 C661 1.391 . S
C662 H718 0.947 . S
C662 C719 1.392 . S
C663 C664 1.391 . S
C663 C667 1.397 . S
C663 C719 1.419 . S
C664 C660 1.391 1_556 S
C664 C663 1.391 . S
C664 C665 1.399 . S
C665 C664 1.399 . S
C665 C668 1.396 . S
C665 C677 1.453 1_556 S
C665 C678 1.684 1_556 S
H666 C690 0.948 . S
C667 C663 1.397 . S
C667 C668 1.394 . S
C667 C686 1.723 . S
C668 C665 1.396 . S
C668 C667 1.394 . S
C668 C698 1.723 . S
H669 C692 0.947 . S
H670 C693 0.948 . S
H671 C699 0.982 . S
H672 C700 0.979 . S
H673 C700 0.980 . S
H674 C700 0.983 . S
H675 C699 0.979 . S
H676 C699 0.977 . S
C677 C665 1.453 1_554 S
C677 H706 0.982 . S
C677 H707 0.979 . S
C677 H708 0.977 . S
C678 C665 1.684 1_554 S
C678 H703 0.979 . S
C678 H704 0.980 . S
C678 H705 0.983 . S
C679 C680 1.391 . S
C679 C684 1.391 . S
C679 H709 0.948 . S
C680 C679 1.391 . S
C680 C681 1.391 . S
C681 C680 1.391 . S
C681 C682 1.392 . S
C681 H710 0.947 . S
C682 C681 1.392 . S
C682 C683 1.419 . S
C682 H711 0.948 . S
C683 C682 1.419 . S
C683 C684 1.391 . S
C683 C687 1.397 . S
C684 C679 1.391 . S
C684 C683 1.391 . S
C684 C685 1.399 . S
C685 C684 1.399 . S
C685 C686 1.396 . S
C685 C688 1.453 . S
C685 C689 1.684 . S
C686 C667 1.723 . S
C686 C685 1.396 . S
C686 C687 1.394 . S
C687 C683 1.397 . S
C687 C686 1.394 . S
C687 C697 1.723 . S
C688 C685 1.453 . S
C688 H712 0.982 . S
C688 H713 0.979 . S
C688 H714 0.977 . S
C689 C685 1.684 . S
C689 H715 0.979 . S
C689 H716 0.980 . S
C689 H717 0.983 . S
C690 H666 0.948 . S
C690 C691 1.391 1_556 S
C690 C695 1.391 . S
C691 C690 1.391 1_554 S
C691 C692 1.391 . S
C692 H669 0.947 . S
C692 C691 1.391 . S
C692 C693 1.392 . S
C693 H670 0.948 . S
C693 C692 1.392 . S
C693 C694 1.419 1_554 S
C694 C693 1.419 1_556 S
C694 C695 1.391 . S
C694 C698 1.397 . S
C695 C690 1.391 . S
C695 C694 1.391 . S
C695 C696 1.399 . S
C696 C695 1.399 . S
C696 C697 1.396 . S
C696 C699 1.453 . S
C696 C700 1.684 . S
C697 C687 1.723 . S
C697 C696 1.396 . S
C697 C698 1.394 . S
C698 C668 1.723 . S
C698 C694 1.397 . S
C698 C697 1.394 . S
C699 H671 0.982 . S
C699 H675 0.979 . S
C699 H676 0.977 . S
C699 C696 1.453 . S
C700 H672 0.979 . S
C700 H673 0.980 . S
C700 H674 0.983 . S
C700 C696 1.684 . S
H701 C719 0.948 . S
H702 C660 0.948 . S
H703 C678 0.979 . S
H704 C678 0.980 . S
H705 C678 0.983 . S
H706 C677 0.982 . S
H707 C677 0.979 . S
H708 C677 0.977 . S
H709 C679 0.948 . S
H710 C681 0.947 . S
H711 C682 0.948 . S
H712 C688 0.982 . S
H713 C688 0.979 . S
H714 C688 0.977 . S
H715 C689 0.979 . S
H716 C689 0.980 . S
H717 C689 0.983 . S
H718 C662 0.947 . S
C719 C662 1.392 . S
C719 C663 1.419 . S
C719 H701 0.948 . S
C720 C721 1.391 1_556 S
C720 C724 1.391 1_556 S
C720 H762 0.948 . S
C721 C720 1.391 1_554 S
C721 C722 1.391 . S
C722 C721 1.391 . S
C722 H778 0.947 . S
C722 C779 1.392 . S
C723 C724 1.391 . S
C723 C727 1.397 . S
C723 C779 1.419 . S
C724 C720 1.391 1_554 S
C724 C723 1.391 . S
C724 C725 1.399 . S
C725 C724 1.399 . S
C725 C728 1.396 . S
C725 C737 1.453 1_554 S
C725 C738 1.684 1_554 S
H726 C750 0.948 . S
C727 C723 1.397 . S
C727 C728 1.394 . S
C727 C746 1.723 . S
C728 C725 1.396 . S
C728 C727 1.394 . S
C728 C758 1.723 . S
H729 C752 0.947 . S
H730 C753 0.948 . S
H731 C759 0.982 . S
H732 C760 0.979 . S
H733 C760 0.980 . S
H734 C760 0.983 . S
H735 C759 0.979 . S
H736 C759 0.977 . S
C737 C725 1.453 1_556 S
C737 H766 0.982 . S
C737 H767 0.979 . S
C737 H768 0.977 . S
C738 C725 1.684 1_556 S
C738 H763 0.979 1_556 S
C738 H764 0.980 . S
C738 H765 0.983 . S
C739 C740 1.391 . S
C739 C744 1.391 . S
C739 H769 0.948 . S
C740 C739 1.391 . S
C740 C741 1.391 . S
C741 C740 1.391 . S
C741 C742 1.392 . S
C741 H770 0.947 . S
C742 C741 1.392 . S
C742 C743 1.419 . S
C742 H771 0.948 . S
C743 C742 1.419 . S
C743 C744 1.391 . S
C743 C747 1.397 . S
C744 C739 1.391 . S
C744 C743 1.391 . S
C744 C745 1.399 . S
C745 C744 1.399 . S
C745 C746 1.396 . S
C745 C748 1.453 . S
C745 C749 1.684 . S
C746 C727 1.723 . S
C746 C745 1.396 . S
C746 C747 1.394 . S
C747 C743 1.397 . S
C747 C746 1.394 . S
C747 C757 1.723 . S
C748 C745 1.453 . S
C748 H772 0.982 . S
C748 H773 0.979 . S
C748 H774 0.977 . S
C749 C745 1.684 . S
C749 H775 0.979 . S
C749 H776 0.980 . S
C749 H777 0.983 . S
C750 H726 0.948 . S
C750 C751 1.391 1_554 S
C750 C755 1.391 . S
C751 C750 1.391 1_556 S
C751 C752 1.391 . S
C752 H729 0.947 . S
C752 C751 1.391 . S
C752 C753 1.392 . S
C753 H730 0.948 . S
C753 C752 1.392 . S
C753 C754 1.419 1_556 S
C754 C753 1.419 1_554 S
C754 C755 1.391 . S
C754 C758 1.397 . S
C755 C750 1.391 . S
C755 C754 1.391 . S
C755 C756 1.399 . S
C756 C755 1.399 . S
C756 C757 1.396 . S
C756 C759 1.453 . S
C756 C760 1.684 . S
C757 C747 1.723 . S
C757 C756 1.396 . S
C757 C758 1.394 . S
C758 C728 1.723 . S
C758 C754 1.397 . S
C758 C757 1.394 . S
C759 H731 0.982 . S
C759 H735 0.979 . S
C759 H736 0.977 . S
C759 C756 1.453 . S
C760 H732 0.979 . S
C760 H733 0.980 . S
C760 H734 0.983 . S
C760 C756 1.684 . S
H761 C779 0.948 . S
H762 C720 0.948 . S
H763 C738 0.979 1_554 S
H764 C738 0.980 . S
H765 C738 0.983 . S
H766 C737 0.982 . S
H767 C737 0.979 . S
H768 C737 0.977 . S
H769 C739 0.948 . S
H770 C741 0.947 . S
H771 C742 0.948 . S
H772 C748 0.982 . S
H773 C748 0.979 . S
H774 C748 0.977 . S
H775 C749 0.979 . S
H776 C749 0.980 . S
H777 C749 0.983 . S
H778 C722 0.947 . S
C779 C722 1.392 . S
C779 C723 1.419 . S
C779 H761 0.948 . S
C780 C781 1.391 1_556 S
C780 C784 1.391 1_556 S
C780 H822 0.948 . S
C781 C780 1.391 1_554 S
C781 C782 1.391 . S
C782 C781 1.391 . S
C782 H838 0.947 . S
C782 C839 1.392 . S
C783 C784 1.391 . S
C783 C787 1.397 . S
C783 C839 1.419 . S
C784 C780 1.391 1_554 S
C784 C783 1.391 . S
C784 C785 1.399 1_554 S
C785 C784 1.399 1_556 S
C785 C788 1.395 1_556 S
C785 C797 1.454 . S
C785 C798 1.686 . S
H786 C810 0.948 . S
C787 C783 1.397 . S
C787 C788 1.394 . S
C787 C806 1.723 . S
C788 C785 1.395 1_554 S
C788 C787 1.394 . S
C788 C818 1.723 . S
H789 C812 0.947 . S
H790 C813 0.948 . S
H791 C819 0.982 . S
H792 C820 0.979 . S
H793 C820 0.980 . S
H794 C820 0.983 . S
H795 C819 0.979 . S
H796 C819 0.977 . S
C797 C785 1.454 . S
C797 H826 0.982 1_556 S
C797 H827 0.979 . S
C797 H828 0.977 . S
C798 C785 1.686 . S
C798 H823 0.979 . S
C798 H824 0.980 . S
C798 H825 0.983 . S
C799 C800 1.391 . S
C799 C804 1.391 . S
C799 H829 0.948 . S
C800 C799 1.391 . S
C800 C801 1.391 . S
C801 C800 1.391 . S
C801 C802 1.392 . S
C801 H830 0.947 . S
C802 C801 1.392 . S
C802 C803 1.419 . S
C802 H831 0.948 . S
C803 C802 1.419 . S
C803 C804 1.391 . S
C803 C807 1.397 . S
C804 C799 1.391 . S
C804 C803 1.391 . S
C804 C805 1.399 . S
C805 C804 1.399 . S
C805 C806 1.396 . S
C805 C808 1.453 . S
C805 C809 1.684 . S
C806 C787 1.723 . S
C806 C805 1.396 . S
C806 C807 1.394 . S
C807 C803 1.397 . S
C807 C806 1.394 . S
C807 C817 1.723 . S
C808 C805 1.453 . S
C808 H832 0.982 . S
C808 H833 0.979 . S
C808 H834 0.977 . S
C809 C805 1.684 . S
C809 H835 0.979 . S
C809 H836 0.980 . S
C809 H837 0.983 . S
C810 H786 0.948 . S
C810 C811 1.391 1_554 S
C810 C815 1.391 . S
C811 C810 1.391 1_556 S
C811 C812 1.391 . S
C812 H789 0.947 . S
C812 C811 1.391 . S
C812 C813 1.392 . S
C813 H790 0.948 . S
C813 C812 1.392 . S
C813 C814 1.419 1_556 S
C814 C813 1.419 1_554 S
C814 C815 1.391 . S
C814 C818 1.397 . S
C815 C810 1.391 . S
C815 C814 1.391 . S
C815 C816 1.399 . S
C816 C815 1.399 . S
C816 C817 1.396 . S
C816 C819 1.453 . S
C816 C820 1.684 . S
C817 C807 1.723 . S
C817 C816 1.396 . S
C817 C818 1.394 . S
C818 C788 1.723 . S
C818 C814 1.397 . S
C818 C817 1.394 . S
C819 H791 0.982 . S
C819 H795 0.979 . S
C819 H796 0.977 . S
C819 C816 1.453 . S
C820 H792 0.979 . S
C820 H793 0.980 . S
C820 H794 0.983 . S
C820 C816 1.684 . S
H821 C839 0.948 . S
H822 C780 0.948 . S
H823 C798 0.979 . S
H824 C798 0.980 . S
H825 C798 0.983 . S
H826 C797 0.982 1_554 S
H827 C797 0.979 . S
H828 C797 0.977 . S
H829 C799 0.948 . S
H830 C801 0.947 . S
H831 C802 0.948 . S
H832 C808 0.982 . S
H833 C808 0.979 . S
H834 C808 0.977 . S
H835 C809 0.979 . S
H836 C809 0.980 . S
H837 C809 0.983 . S
H838 C782 0.947 . S
C839 C782 1.392 . S
C839 C783 1.419 . S
C839 H821 0.948 . S
C840 C841 1.391 1_556 S
C840 C844 1.391 1_556 S
C840 H882 0.948 . S
C841 C840 1.391 1_554 S
C841 C842 1.391 . S
C842 C841 1.391 . S
C842 H898 0.947 . S
C842 C899 1.392 . S
C843 C844 1.391 . S
C843 C847 1.397 . S
C843 C899 1.419 . S
C844 C840 1.391 1_554 S
C844 C843 1.391 . S
C844 C845 1.399 . S
C845 C844 1.399 . S
C845 C848 1.396 . S
C845 C857 1.453 1_554 S
C845 C858 1.684 1_554 S
H846 C870 0.948 . S
C847 C843 1.397 . S
C847 C848 1.394 . S
C847 C866 1.723 . S
C848 C845 1.396 . S
C848 C847 1.394 . S
C848 C878 1.723 . S
H849 C872 0.947 . S
H850 C873 0.948 . S
H851 C879 0.982 . S
H852 C880 0.979 . S
H853 C880 0.980 . S
H854 C880 0.983 . S
H855 C879 0.979 . S
H856 C879 0.977 . S
C857 C845 1.453 1_556 S
C857 H886 0.982 . S
C857 H887 0.979 . S
C857 H888 0.977 . S
C858 C845 1.684 1_556 S
C858 H883 0.979 1_556 S
C858 H884 0.980 . S
C858 H885 0.983 . S
C859 C860 1.391 . S
C859 C864 1.391 . S
C859 H889 0.948 . S
C860 C859 1.391 . S
C860 C861 1.391 . S
C861 C860 1.391 . S
C861 C862 1.392 . S
C861 H890 0.947 . S
C862 C861 1.392 . S
C862 C863 1.419 . S
C862 H891 0.948 . S
C863 C862 1.419 . S
C863 C864 1.391 . S
C863 C867 1.397 . S
C864 C859 1.391 . S
C864 C863 1.391 . S
C864 C865 1.399 . S
C865 C864 1.399 . S
C865 C866 1.396 . S
C865 C868 1.453 . S
C865 C869 1.684 . S
C866 C847 1.723 . S
C866 C865 1.396 . S
C866 C867 1.394 . S
C867 C863 1.397 . S
C867 C866 1.394 . S
C867 C877 1.723 . S
C868 C865 1.453 . S
C868 H892 0.982 . S
C868 H893 0.979 . S
C868 H894 0.977 . S
C869 C865 1.684 . S
C869 H895 0.979 . S
C869 H896 0.980 . S
C869 H897 0.983 . S
C870 H846 0.948 . S
C870 C871 1.398 . S
C870 C875 1.391 . S
C871 C870 1.398 . S
C871 C872 1.388 1_554 S
C872 H849 0.947 . S
C872 C871 1.388 1_556 S
C872 C873 1.392 . S
C873 H850 0.948 . S
C873 C872 1.392 . S
C873 C874 1.419 1_556 S
C874 C873 1.419 1_554 S
C874 C875 1.391 . S
C874 C878 1.397 . S
C875 C870 1.391 . S
C875 C874 1.391 . S
C875 C876 1.399 . S
C876 C875 1.399 . S
C876 C877 1.396 . S
C876 C879 1.453 . S
C876 C880 1.684 . S
C877 C867 1.723 . S
C877 C876 1.396 . S
C877 C878 1.394 . S
C878 C848 1.723 . S
C878 C874 1.397 . S
C878 C877 1.394 . S
C879 H851 0.982 . S
C879 H855 0.979 . S
C879 H856 0.977 . S
C879 C876 1.453 . S
C880 H852 0.979 . S
C880 H853 0.980 . S
C880 H854 0.983 . S
C880 C876 1.684 . S
H881 C899 0.948 . S
H882 C840 0.948 . S
H883 C858 0.979 1_554 S
H884 C858 0.980 . S
H885 C858 0.983 . S
H886 C857 0.982 . S
H887 C857 0.979 . S
H888 C857 0.977 . S
H889 C859 0.948 . S
H890 C861 0.947 . S
H891 C862 0.948 . S
H892 C868 0.982 . S
H893 C868 0.979 . S
H894 C868 0.977 . S
H895 C869 0.979 . S
H896 C869 0.980 . S
H897 C869 0.983 . S
H898 C842 0.947 . S
C899 C842 1.392 . S
C899 C843 1.419 . S
C899 H881 0.948 . S
C900 C901 1.391 . S
C900 C904 1.391 . S
C900 H942 0.948 . S
C901 C900 1.391 . S
C901 C902 1.391 . S
C902 C901 1.391 . S
C902 H958 0.947 . S
C902 C959 1.392 . S
C903 C904 1.391 . S
C903 C907 1.397 . S
C903 C959 1.419 . S
C904 C900 1.391 . S
C904 C903 1.391 . S
C904 C905 1.399 . S
C905 C904 1.399 . S
C905 C908 1.396 . S
C905 C917 1.453 . S
C905 C918 1.684 . S
H906 C930 0.948 . S
C907 C903 1.397 . S
C907 C908 1.394 . S
C907 C926 1.723 . S
C908 C905 1.396 . S
C908 C907 1.394 . S
C908 C938 1.723 . S
H909 C932 0.947 . S
H910 C933 0.948 . S
H911 C939 0.983 . S
H912 C940 0.979 . S
H913 C940 0.980 . S
H914 C940 0.983 . S
H915 C939 0.979 . S
H916 C939 0.977 . S
C917 C905 1.453 . S
C917 H946 0.982 . S
C917 H947 0.979 . S
C917 H948 0.977 . S
C918 C905 1.684 . S
C918 H943 0.979 . S
C918 H944 0.980 . S
C918 H945 0.983 . S
C919 C920 1.391 1_565 S
C919 C924 1.391 . S
C919 H949 0.948 . S
C920 C919 1.391 1_545 S
C920 C921 1.391 1_545 S
C921 C920 1.391 1_565 S
C921 C922 1.392 . S
C921 H950 0.947 1_565 S
C922 C921 1.392 . S
C922 C923 1.419 . S
C922 H951 0.948 . S
C923 C922 1.419 . S
C923 C924 1.391 . S
C923 C927 1.397 . S
C924 C919 1.391 . S
C924 C923 1.391 . S
C924 C925 1.399 . S
C925 C924 1.399 . S
C925 C926 1.396 . S
C925 C928 1.453 . S
C925 C929 1.684 . S
C926 C907 1.723 . S
C926 C925 1.396 . S
C926 C927 1.394 . S
C927 C923 1.397 . S
C927 C926 1.394 . S
C927 C937 1.723 . S
C928 C925 1.453 . S
C928 H952 0.982 1_565 S
C928 H953 0.979 1_565 S
C928 H954 0.977 . S
C929 C925 1.684 . S
C929 H955 0.979 . S
C929 H956 0.980 . S
C929 H957 0.983 . S
C930 H906 0.948 . S
C930 C931 1.391 . S
C930 C935 1.391 . S
C931 C930 1.391 . S
C931 C932 1.391 . S
C932 H909 0.947 . S
C932 C931 1.391 . S
C932 C933 1.392 . S
C933 H910 0.948 . S
C933 C932 1.392 . S
C933 C934 1.419 . S
C934 C933 1.419 . S
C934 C935 1.391 . S
C934 C938 1.397 . S
C935 C930 1.391 . S
C935 C934 1.391 . S
C935 C936 1.399 . S
C936 C935 1.399 . S
C936 C937 1.396 . S
C936 C939 1.453 . S
C936 C940 1.684 . S
C937 C927 1.723 . S
C937 C936 1.396 . S
C937 C938 1.394 . S
C938 C908 1.723 . S
C938 C934 1.397 . S
C938 C937 1.394 . S
C939 H911 0.983 . S
C939 H915 0.979 . S
C939 H916 0.977 . S
C939 C936 1.453 . S
C940 H912 0.979 . S
C940 H913 0.980 . S
C940 H914 0.983 . S
C940 C936 1.684 . S
H941 C959 0.948 . S
H942 C900 0.948 . S
H943 C918 0.979 . S
H944 C918 0.980 . S
H945 C918 0.983 . S
H946 C917 0.982 . S
H947 C917 0.979 . S
H948 C917 0.977 . S
H949 C919 0.948 . S
H950 C921 0.947 1_545 S
H951 C922 0.948 . S
H952 C928 0.982 1_545 S
H953 C928 0.979 1_545 S
H954 C928 0.977 . S
H955 C929 0.979 . S
H956 C929 0.980 . S
H957 C929 0.983 . S
H958 C902 0.947 . S
C959 C902 1.392 . S
C959 C903 1.419 . S
C959 H941 0.948 . S
C960 C961 1.391 . S
C960 C964 1.391 . S
C960 H1002 0.948 . S
C961 C960 1.391 . S
C961 C962 1.391 . S
C962 C961 1.391 . S
C962 H1018 0.947 . S
C962 C1019 1.392 . S
C963 C964 1.391 . S
C963 C967 1.397 . S
C963 C1019 1.419 . S
C964 C960 1.391 . S
C964 C963 1.391 . S
C964 C965 1.399 . S
C965 C964 1.399 . S
C965 C968 1.396 . S
C965 C977 1.453 . S
C965 C978 1.684 . S
H966 C990 0.948 . S
C967 C963 1.397 . S
C967 C968 1.394 . S
C967 C986 1.723 . S
C968 C965 1.396 . S
C968 C967 1.394 . S
C968 C998 1.723 . S
H969 C992 0.947 . S
H970 C993 0.948 . S
H971 C999 0.982 . S
H972 C1000 0.979 1_655 S
H973 C1000 0.980 . S
H974 C1000 0.983 . S
H975 C999 0.979 . S
H976 C999 0.977 . S
C977 C965 1.453 . S
C977 H1006 0.982 . S
C977 H1007 0.979 . S
C977 H1008 0.977 . S
C978 C965 1.684 . S
C978 H1003 0.979 . S
C978 H1004 0.980 . S
C978 H1005 0.983 . S
C979 C980 1.404 . S
C979 C984 1.391 . S
C979 H1009 0.948 . S
C980 C979 1.404 . S
C980 C981 1.384 . S
C981 C980 1.384 . S
C981 C982 1.392 . S
C981 H1010 0.947 . S
C982 C981 1.392 . S
C982 C983 1.419 . S
C982 H1011 0.948 . S
C983 C982 1.419 . S
C983 C984 1.391 . S
C983 C987 1.397 . S
C984 C979 1.391 . S
C984 C983 1.391 . S
C984 C985 1.399 . S
C985 C984 1.399 . S
C985 C986 1.396 . S
C985 C988 1.453 . S
C985 C989 1.684 . S
C986 C967 1.723 . S
C986 C985 1.396 . S
C986 C987 1.394 . S
C987 C983 1.397 . S
C987 C986 1.394 . S
C987 C997 1.723 . S
C988 C985 1.453 . S
C988 H1012 0.982 . S
C988 H1013 0.979 . S
C988 H1014 0.977 . S
C989 C985 1.684 . S
C989 H1015 0.979 1_455 S
C989 H1016 0.980 . S
C989 H1017 0.983 . S
C990 H966 0.948 . S
C990 C991 1.391 . S
C990 C995 1.391 . S
C991 C990 1.391 . S
C991 C992 1.391 . S
C992 H969 0.947 . S
C992 C991 1.391 . S
C992 C993 1.392 . S
C993 H970 0.948 . S
C993 C992 1.392 . S
C993 C994 1.419 . S
C994 C993 1.419 . S
C994 C995 1.391 . S
C994 C998 1.397 . S
C995 C990 1.391 . S
C995 C994 1.391 . S
C995 C996 1.399 . S
C996 C995 1.399 . S
C996 C997 1.396 . S
C996 C999 1.453 . S
C996 C1000 1.684 . S
C997 C987 1.723 . S
C997 C996 1.396 . S
C997 C998 1.394 . S
C998 C968 1.723 . S
C998 C994 1.397 . S
C998 C997 1.394 . S
C999 H971 0.982 . S
C999 H975 0.979 . S
C999 H976 0.977 . S
C999 C996 1.453 . S
C1000 H972 0.979 1_455 S
C1000 H973 0.980 . S
C1000 H974 0.983 . S
C1000 C996 1.684 . S
H1001 C1019 0.948 . S
H1002 C960 0.948 . S
H1003 C978 0.979 . S
H1004 C978 0.980 . S
H1005 C978 0.983 . S
H1006 C977 0.982 . S
H1007 C977 0.979 . S
H1008 C977 0.977 . S
H1009 C979 0.948 . S
H1010 C981 0.947 . S
H1011 C982 0.948 . S
H1012 C988 0.982 . S
H1013 C988 0.979 . S
H1014 C988 0.977 . S
H1015 C989 0.979 1_655 S
H1016 C989 0.980 . S
H1017 C989 0.983 . S
H1018 C962 0.947 . S
C1019 C962 1.392 . S
C1019 C963 1.419 . S
C1019 H1001 0.948 . S
C1020 C1021 1.391 . S
C1020 C1024 1.391 . S
C1020 H1062 0.948 . S
C1021 C1020 1.391 . S
C1021 C1022 1.391 . S
C1022 C1021 1.391 . S
C1022 H1078 0.947 . S
C1022 C1079 1.392 . S
C1023 C1024 1.391 . S
C1023 C1027 1.397 . S
C1023 C1079 1.419 . S
C1024 C1020 1.391 . S
C1024 C1023 1.391 . S
C1024 C1025 1.399 . S
C1025 C1024 1.399 . S
C1025 C1028 1.396 . S
C1025 C1037 1.453 . S
C1025 C1038 1.684 . S
H1026 C1050 0.948 . S
C1027 C1023 1.397 . S
C1027 C1028 1.394 . S
C1027 C1046 1.723 . S
C1028 C1025 1.396 . S
C1028 C1027 1.394 . S
C1028 C1058 1.723 . S
H1029 C1052 0.947 . S
H1030 C1053 0.948 . S
H1031 C1059 0.982 . S
H1032 C1060 0.979 . S
H1033 C1060 0.980 . S
H1034 C1060 0.983 . S
H1035 C1059 0.979 . S
H1036 C1059 0.977 . S
C1037 C1025 1.453 . S
C1037 H1066 0.982 . S
C1037 H1067 0.979 . S
C1037 H1068 0.977 . S
C1038 C1025 1.684 . S
C1038 H1063 0.979 . S
C1038 H1064 0.980 . S
C1038 H1065 0.983 . S
C1039 C1040 1.391 . S
C1039 C1044 1.391 . S
C1039 H1069 0.948 . S
C1040 C1039 1.391 . S
C1040 C1041 1.391 . S
C1041 C1040 1.391 . S
C1041 C1042 1.392 . S
C1041 H1070 0.947 . S
C1042 C1041 1.392 . S
C1042 C1043 1.419 . S
C1042 H1071 0.948 . S
C1043 C1042 1.419 . S
C1043 C1044 1.391 . S
C1043 C1047 1.397 . S
C1044 C1039 1.391 . S
C1044 C1043 1.391 . S
C1044 C1045 1.399 . S
C1045 C1044 1.399 . S
C1045 C1046 1.396 . S
C1045 C1048 1.453 . S
C1045 C1049 1.684 . S
C1046 C1027 1.723 . S
C1046 C1045 1.396 . S
C1046 C1047 1.394 . S
C1047 C1043 1.397 . S
C1047 C1046 1.394 . S
C1047 C1057 1.723 . S
C1048 C1045 1.453 . S
C1048 H1072 0.982 . S
C1048 H1073 0.979 . S
C1048 H1074 0.977 . S
C1049 C1045 1.684 . S
C1049 H1075 0.979 . S
C1049 H1076 0.980 . S
C1049 H1077 0.983 . S
C1050 H1026 0.948 . S
C1050 C1051 1.391 . S
C1050 C1055 1.391 . S
C1051 C1050 1.391 . S
C1051 C1052 1.391 . S
C1052 H1029 0.947 . S
C1052 C1051 1.391 . S
C1052 C1053 1.392 . S
C1053 H1030 0.948 . S
C1053 C1052 1.392 . S
C1053 C1054 1.419 . S
C1054 C1053 1.419 . S
C1054 C1055 1.391 . S
C1054 C1058 1.397 . S
C1055 C1050 1.391 . S
C1055 C1054 1.391 . S
C1055 C1056 1.399 . S
C1056 C1055 1.399 . S
C1056 C1057 1.396 . S
C1056 C1059 1.453 . S
C1056 C1060 1.684 . S
C1057 C1047 1.723 . S
C1057 C1056 1.396 . S
C1057 C1058 1.394 . S
C1058 C1028 1.723 . S
C1058 C1054 1.397 . S
C1058 C1057 1.394 . S
C1059 H1031 0.982 . S
C1059 H1035 0.979 . S
C1059 H1036 0.977 . S
C1059 C1056 1.453 . S
C1060 H1032 0.979 . S
C1060 H1033 0.980 . S
C1060 H1034 0.983 . S
C1060 C1056 1.684 . S
H1061 C1079 0.948 . S
H1062 C1020 0.948 . S
H1063 C1038 0.979 . S
H1064 C1038 0.980 . S
H1065 C1038 0.983 . S
H1066 C1037 0.982 . S
H1067 C1037 0.979 . S
H1068 C1037 0.977 . S
H1069 C1039 0.948 . S
H1070 C1041 0.947 . S
H1071 C1042 0.948 . S
H1072 C1048 0.982 . S
H1073 C1048 0.979 . S
H1074 C1048 0.977 . S
H1075 C1049 0.979 . S
H1076 C1049 0.980 . S
H1077 C1049 0.983 . S
H1078 C1022 0.947 . S
C1079 C1022 1.392 . S
C1079 C1023 1.419 . S
C1079 H1061 0.948 . S
O1080 Mn1081 2.163 1_565 S
O1080 C1094 1.244 . S
Mn1081 O1080 2.163 1_545 S
Mn1081 O1084 2.160 . S
Mn1081 O1085 2.221 1_545 S
Mn1081 O1087 2.163 1_554 S
Mn1081 O1089 2.160 . S
Mn1081 O1099 2.221 . S
O1082 Mn1083 2.087 1_565 S
O1082 C1094 1.256 . S
Mn1083 O1082 2.087 1_545 S
Mn1083 O1090 2.089 . S
Mn1083 O1099 2.290 . S
Mn1083 O1100 2.251 . S
O1084 Mn1081 2.160 . S
O1084 C1095 1.239 1_554 S
O1085 Mn1081 2.221 1_565 S
O1085 Mn1086 2.290 1_554 S
O1085 C1096 1.278 1_554 S
Mn1086 O1085 2.290 1_556 S
Mn1086 O1088 2.089 1_565 S
Mn1086 O1091 2.251 . S
Mn1086 O1092 2.087 . S
O1087 Mn1081 2.163 1_556 S
O1087 C1097 1.243 . S
O1088 Mn1086 2.089 1_545 S
O1088 C1095 1.256 . S
O1089 Mn1081 2.160 . S
O1089 C1098 1.239 . S
O1090 Mn1083 2.089 . S
O1090 C1098 1.256 . S
O1091 Mn1086 2.251 . S
O1091 C1096 1.241 . S
O1092 Mn1086 2.087 . S
O1092 C1097 1.257 1_565 S
C1093 O1099 1.278 1_556 S
C1093 O1100 1.241 1_556 S
C1094 O1080 1.244 . S
C1094 O1082 1.256 . S
C1095 O1084 1.239 1_556 S
C1095 O1088 1.256 . S
C1096 O1085 1.278 1_556 S
C1096 O1091 1.241 . S
C1097 O1087 1.243 . S
C1097 O1092 1.257 1_545 S
C1098 O1089 1.239 . S
C1098 O1090 1.256 . S
O1099 Mn1081 2.221 . S
O1099 Mn1083 2.290 . S
O1099 C1093 1.278 1_554 S
O1100 Mn1083 2.251 . S
O1100 C1093 1.241 1_554 S
O1101 Mn1102 2.137 1_455 S
O1101 C1115 1.244 . S
Mn1102 O1101 2.137 1_655 S
Mn1102 O1105 2.185 . S
Mn1102 O1106 2.219 1_655 S
Mn1102 O1108 2.162 1_554 S
Mn1102 O1110 2.162 . S
Mn1102 O1120 2.225 . S
O1103 Mn1104 2.087 1_455 S
O1103 C1115 1.256 . S
Mn1104 O1103 2.087 1_655 S
Mn1104 O1111 2.089 1_655 S
Mn1104 O1120 2.290 . S
Mn1104 O1121 2.251 . S
O1105 Mn1102 2.185 . S
O1105 C1116 1.239 1_554 S
O1106 Mn1102 2.219 1_455 S
O1106 Mn1107 2.290 1_554 S
O1106 C1117 1.278 1_554 S
Mn1107 O1106 2.290 1_556 S
Mn1107 O1109 2.089 1_455 S
Mn1107 O1112 2.251 . S
Mn1107 O1113 2.087 . S
O1108 Mn1102 2.162 1_556 S
O1108 C1118 1.244 1_655 S
O1109 Mn1107 2.089 1_655 S
O1109 C1116 1.256 . S
O1110 Mn1102 2.162 . S
O1110 C1119 1.239 1_655 S
O1111 Mn1104 2.089 1_455 S
O1111 C1119 1.256 . S
O1112 Mn1107 2.251 . S
O1112 C1117 1.241 . S
O1113 Mn1107 2.087 . S
O1113 C1118 1.256 . S
C1114 O1120 1.278 1_556 S
C1114 O1121 1.241 1_556 S
C1115 O1101 1.244 . S
C1115 O1103 1.256 . S
C1116 O1105 1.239 1_556 S
C1116 O1109 1.256 . S
C1117 O1106 1.278 1_556 S
C1117 O1112 1.241 . S
C1118 O1108 1.244 1_455 S
C1118 O1113 1.256 . S
C1119 O1110 1.239 1_455 S
C1119 O1111 1.256 . S
O1120 Mn1102 2.225 . S
O1120 Mn1104 2.290 . S
O1120 C1114 1.278 1_554 S
O1121 Mn1104 2.251 . S
O1121 C1114 1.241 1_554 S
O1122 Mn1123 2.163 . S
O1122 C1136 1.244 . S
Mn1123 O1122 2.163 . S
Mn1123 O1126 2.159 1_556 S
Mn1123 O1127 2.221 1_556 S
Mn1123 O1129 2.163 1_556 S
Mn1123 O1131 2.160 . S
Mn1123 O1141 2.221 . S
O1124 Mn1125 2.087 . S
O1124 C1136 1.256 . S
Mn1125 O1124 2.087 . S
Mn1125 O1132 2.089 . S
Mn1125 O1141 2.290 . S
Mn1125 O1142 2.228 1_556 S
O1126 Mn1123 2.159 1_554 S
O1126 C1137 1.250 . S
O1127 Mn1123 2.221 1_554 S
O1127 Mn1128 2.290 . S
O1127 C1138 1.278 . S
Mn1128 O1127 2.290 . S
Mn1128 O1130 2.089 . S
Mn1128 O1133 2.251 . S
Mn1128 O1134 2.087 . S
O1129 Mn1123 2.163 1_554 S
O1129 C1139 1.244 . S
O1130 Mn1128 2.089 . S
O1130 C1137 1.256 . S
O1131 Mn1123 2.160 . S
O1131 C1140 1.239 . S
O1132 Mn1125 2.089 . S
O1132 C1140 1.256 . S
O1133 Mn1128 2.251 . S
O1133 C1138 1.241 . S
O1134 Mn1128 2.087 . S
O1134 C1139 1.256 . S
C1135 O1141 1.278 1_554 S
C1135 O1142 1.249 . S
C1136 O1122 1.244 . S
C1136 O1124 1.256 . S
C1137 O1126 1.250 . S
C1137 O1130 1.256 . S
C1138 O1127 1.278 . S
C1138 O1133 1.241 . S
C1139 O1129 1.244 . S
C1139 O1134 1.256 . S
C1140 O1131 1.239 . S
C1140 O1132 1.256 . S
O1141 Mn1123 2.221 . S
O1141 Mn1125 2.290 . S
O1141 C1135 1.278 1_556 S
O1142 Mn1125 2.228 1_554 S
O1142 C1135 1.249 . S
O1143 Mn1144 2.163 . S
O1143 C1157 1.244 . S
Mn1144 O1143 2.163 . S
Mn1144 O1147 2.160 . S
Mn1144 O1148 2.221 . S
Mn1144 O1150 2.163 . S
Mn1144 O1152 2.160 . S
Mn1144 O1162 2.221 . S
O1145 Mn1146 2.087 . S
O1145 C1157 1.256 . S
Mn1146 O1145 2.087 . S
Mn1146 O1153 2.089 . S
Mn1146 O1162 2.290 . S
Mn1146 O1163 2.251 . S
O1147 Mn1144 2.160 . S
O1147 C1158 1.239 . S
O1148 Mn1144 2.221 . S
O1148 Mn1149 2.290 . S
O1148 C1159 1.278 . S
Mn1149 O1148 2.290 . S
Mn1149 O1151 2.089 . S
Mn1149 O1154 2.251 . S
Mn1149 O1155 2.087 . S
O1150 Mn1144 2.163 . S
O1150 C1160 1.244 . S
O1151 Mn1149 2.089 . S
O1151 C1158 1.256 . S
O1152 Mn1144 2.160 . S
O1152 C1161 1.239 . S
O1153 Mn1146 2.089 . S
O1153 C1161 1.256 . S
O1154 Mn1149 2.251 . S
O1154 C1159 1.241 . S
O1155 Mn1149 2.087 . S
O1155 C1160 1.256 . S
C1156 O1162 1.278 . S
C1156 O1163 1.241 . S
C1157 O1143 1.244 . S
C1157 O1145 1.256 . S
C1158 O1147 1.239 . S
C1158 O1151 1.256 . S
C1159 O1148 1.278 . S
C1159 O1154 1.241 . S
C1160 O1150 1.244 . S
C1160 O1155 1.256 . S
C1161 O1152 1.239 . S
C1161 O1153 1.256 . S
O1162 Mn1144 2.221 . S
O1162 Mn1146 2.290 . S
O1162 C1156 1.278 . S
O1163 Mn1146 2.251 . S
O1163 C1156 1.241 . S
O1164 Mn1165 2.163 . S
O1164 C1178 1.244 . S
Mn1165 O1164 2.163 . S
Mn1165 O1168 2.160 . S
Mn1165 O1169 2.221 . S
Mn1165 O1171 2.163 . S
Mn1165 O1173 2.160 . S
Mn1165 O1183 2.221 . S
O1166 Mn1167 2.087 . S
O1166 C1178 1.256 . S
Mn1167 O1166 2.087 . S
Mn1167 O1174 2.089 . S
Mn1167 O1183 2.290 . S
Mn1167 O1184 2.251 . S
O1168 Mn1165 2.160 . S
O1168 C1179 1.239 . S
O1169 Mn1165 2.221 . S
O1169 Mn1170 2.290 . S
O1169 C1180 1.278 . S
Mn1170 O1169 2.290 . S
Mn1170 O1172 2.089 . S
Mn1170 O1175 2.251 . S
Mn1170 O1176 2.087 . S
O1171 Mn1165 2.163 . S
O1171 C1181 1.244 . S
O1172 Mn1170 2.089 . S
O1172 C1179 1.256 . S
O1173 Mn1165 2.160 . S
O1173 C1182 1.239 . S
O1174 Mn1167 2.089 . S
O1174 C1182 1.256 . S
O1175 Mn1170 2.251 . S
O1175 C1180 1.241 . S
O1176 Mn1170 2.087 . S
O1176 C1181 1.256 . S
C1177 O1183 1.278 . S
C1177 O1184 1.241 . S
C1178 O1164 1.244 . S
C1178 O1166 1.256 . S
C1179 O1168 1.239 . S
C1179 O1172 1.256 . S
C1180 O1169 1.278 . S
C1180 O1175 1.241 . S
C1181 O1171 1.244 . S
C1181 O1176 1.256 . S
C1182 O1173 1.239 . S
C1182 O1174 1.256 . S
O1183 Mn1165 2.221 . S
O1183 Mn1167 2.290 . S
O1183 C1177 1.278 . S
O1184 Mn1167 2.251 . S
O1184 C1177 1.241 . S
O1185 Mn1186 2.163 . S
O1185 C1199 1.244 . S
Mn1186 O1185 2.163 . S
Mn1186 O1189 2.160 . S
Mn1186 O1190 2.221 . S
Mn1186 O1192 2.163 . S
Mn1186 O1194 2.160 . S
Mn1186 O1204 2.221 . S
O1187 Mn1188 2.087 . S
O1187 C1199 1.256 . S
Mn1188 O1187 2.087 . S
Mn1188 O1195 2.089 . S
Mn1188 O1204 2.290 . S
Mn1188 O1205 2.251 . S
O1189 Mn1186 2.160 . S
O1189 C1200 1.239 . S
O1190 Mn1186 2.221 . S
O1190 Mn1191 2.290 . S
O1190 C1201 1.278 . S
Mn1191 O1190 2.290 . S
Mn1191 O1193 2.089 . S
Mn1191 O1196 2.251 . S
Mn1191 O1197 2.087 . S
O1192 Mn1186 2.163 . S
O1192 C1202 1.244 . S
O1193 Mn1191 2.089 . S
O1193 C1200 1.256 . S
O1194 Mn1186 2.160 . S
O1194 C1203 1.239 . S
O1195 Mn1188 2.089 . S
O1195 C1203 1.256 . S
O1196 Mn1191 2.251 . S
O1196 C1201 1.241 . S
O1197 Mn1191 2.087 . S
O1197 C1202 1.256 . S
C1198 O1204 1.278 . S
C1198 O1205 1.241 . S
C1199 O1185 1.244 . S
C1199 O1187 1.256 . S
C1200 O1189 1.239 . S
C1200 O1193 1.256 . S
C1201 O1190 1.278 . S
C1201 O1196 1.241 . S
C1202 O1192 1.244 . S
C1202 O1197 1.256 . S
C1203 O1194 1.239 . S
C1203 O1195 1.256 . S
O1204 Mn1186 2.221 . S
O1204 Mn1188 2.290 . S
O1204 C1198 1.278 . S
O1205 Mn1188 2.251 . S
O1205 C1198 1.241 . S
O1206 Mn1207 2.163 . S
O1206 C1220 1.244 . S
Mn1207 O1206 2.163 . S
Mn1207 O1210 2.160 . S
Mn1207 O1211 2.221 . S
Mn1207 O1213 2.163 . S
Mn1207 O1215 2.160 . S
Mn1207 O1225 2.221 . S
O1208 Mn1209 2.087 . S
O1208 C1220 1.256 . S
Mn1209 O1208 2.087 . S
Mn1209 O1216 2.089 . S
Mn1209 O1225 2.290 . S
Mn1209 O1226 2.251 . S
O1210 Mn1207 2.160 . S
O1210 C1221 1.239 . S
O1211 Mn1207 2.221 . S
O1211 Mn1212 2.290 . S
O1211 C1222 1.278 . S
Mn1212 O1211 2.290 . S
Mn1212 O1214 2.089 . S
Mn1212 O1217 2.251 . S
Mn1212 O1218 2.087 . S
O1213 Mn1207 2.163 . S
O1213 C1223 1.244 . S
O1214 Mn1212 2.089 . S
O1214 C1221 1.256 . S
O1215 Mn1207 2.160 . S
O1215 C1224 1.239 . S
O1216 Mn1209 2.089 . S
O1216 C1224 1.256 . S
O1217 Mn1212 2.251 . S
O1217 C1222 1.241 . S
O1218 Mn1212 2.087 . S
O1218 C1223 1.256 . S
C1219 O1225 1.278 . S
C1219 O1226 1.241 . S
C1220 O1206 1.244 . S
C1220 O1208 1.256 . S
C1221 O1210 1.239 . S
C1221 O1214 1.256 . S
C1222 O1211 1.278 . S
C1222 O1217 1.241 . S
C1223 O1213 1.244 . S
C1223 O1218 1.256 . S
C1224 O1215 1.239 . S
C1224 O1216 1.256 . S
O1225 Mn1207 2.221 . S
O1225 Mn1209 2.290 . S
O1225 C1219 1.278 . S
O1226 Mn1209 2.251 . S
O1226 C1219 1.241 . S
O1227 Mn1228 2.163 . S
O1227 C1241 1.244 . S
Mn1228 O1227 2.163 . S
Mn1228 O1231 2.160 . S
Mn1228 O1232 2.221 . S
Mn1228 O1234 2.163 . S
Mn1228 O1236 2.160 . S
Mn1228 O1246 2.221 . S
O1229 Mn1230 2.087 . S
O1229 C1241 1.256 . S
Mn1230 O1229 2.087 . S
Mn1230 O1237 2.089 . S
Mn1230 O1246 2.290 . S
Mn1230 O1247 2.251 . S
O1231 Mn1228 2.160 . S
O1231 C1242 1.239 . S
O1232 Mn1228 2.221 . S
O1232 Mn1233 2.290 . S
O1232 C1243 1.278 . S
Mn1233 O1232 2.290 . S
Mn1233 O1235 2.089 . S
Mn1233 O1238 2.251 . S
Mn1233 O1239 2.087 . S
O1234 Mn1228 2.163 . S
O1234 C1244 1.244 . S
O1235 Mn1233 2.089 . S
O1235 C1242 1.256 . S
O1236 Mn1228 2.160 . S
O1236 C1245 1.239 . S
O1237 Mn1230 2.089 . S
O1237 C1245 1.256 . S
O1238 Mn1233 2.251 . S
O1238 C1243 1.241 . S
O1239 Mn1233 2.087 . S
O1239 C1244 1.256 . S
C1240 O1246 1.278 . S
C1240 O1247 1.241 . S
C1241 O1227 1.244 . S
C1241 O1229 1.256 . S
C1242 O1231 1.239 . S
C1242 O1235 1.256 . S
C1243 O1232 1.278 . S
C1243 O1238 1.241 . S
C1244 O1234 1.244 . S
C1244 O1239 1.256 . S
C1245 O1236 1.239 . S
C1245 O1237 1.256 . S
O1246 Mn1228 2.221 . S
O1246 Mn1230 2.290 . S
O1246 C1240 1.278 . S
O1247 Mn1230 2.251 . S
O1247 C1240 1.241 . S
O1248 Mn1249 2.163 . S
O1248 C1262 1.244 . S
Mn1249 O1248 2.163 . S
Mn1249 O1252 2.160 . S
Mn1249 O1253 2.221 . S
Mn1249 O1255 2.163 . S
Mn1249 O1257 2.160 . S
Mn1249 O1267 2.221 . S
O1250 Mn1251 2.087 . S
O1250 C1262 1.256 . S
Mn1251 O1250 2.087 . S
Mn1251 O1258 2.089 . S
Mn1251 O1267 2.290 . S
Mn1251 O1268 2.251 . S
O1252 Mn1249 2.160 . S
O1252 C1263 1.239 . S
O1253 Mn1249 2.221 . S
O1253 Mn1254 2.290 . S
O1253 C1264 1.278 . S
Mn1254 O1253 2.290 . S
Mn1254 O1256 2.089 . S
Mn1254 O1259 2.251 . S
Mn1254 O1260 2.087 . S
O1255 Mn1249 2.163 . S
O1255 C1265 1.244 . S
O1256 Mn1254 2.089 . S
O1256 C1263 1.256 . S
O1257 Mn1249 2.160 . S
O1257 C1266 1.239 . S
O1258 Mn1251 2.089 . S
O1258 C1266 1.256 . S
O1259 Mn1254 2.251 . S
O1259 C1264 1.241 . S
O1260 Mn1254 2.087 . S
O1260 C1265 1.256 . S
C1261 O1267 1.278 . S
C1261 O1268 1.241 . S
C1262 O1248 1.244 . S
C1262 O1250 1.256 . S
C1263 O1252 1.239 . S
C1263 O1256 1.256 . S
C1264 O1253 1.278 . S
C1264 O1259 1.241 . S
C1265 O1255 1.244 . S
C1265 O1260 1.256 . S
C1266 O1257 1.239 . S
C1266 O1258 1.256 . S
O1267 Mn1249 2.221 . S
O1267 Mn1251 2.290 . S
O1267 C1261 1.278 . S
O1268 Mn1251 2.251 . S
O1268 C1261 1.241 . S
C781 C1094 1.736 . S
C871 C1115 1.761 . S
C751 C1135 1.204 1_556 S
C691 C1114 1.227 1_554 S
C1136 C571 1.846 1_556 S
C601 C1093 1.222 1_554 S
C1095 C661 1.520 . S
C1116 C541 1.536 . S
C631 C1138 1.480 . S
C811 C1117 1.371 . S
C841 C1137 1.430 . S
C1096 C721 1.270 1_556 S
C1157 C61 1.736 . S
C151 C1178 1.758 . S
C31 C1198 1.204 . S
C1051 C1177 1.226 . S
C931 C1199 1.846 . S
C961 C1156 1.222 . S
C1021 C1158 1.520 . S
C901 C1179 1.528 . S
C1201 C991 1.480 . S
C91 C1180 1.371 . S
C1200 C121 1.430 . S
C1 C1159 1.270 . S
C1220 C421 1.736 . S
C511 C1241 1.759 . S
C1261 C391 1.204 . S
C1240 C331 1.227 . S
C1262 C211 1.846 . S
C241 C1219 1.222 . S
C301 C1221 1.520 . S
C181 C1242 1.528 . S
C1264 C271 1.480 . S
C451 C1243 1.371 . S
C481 C1263 1.430 . S
C361 C1222 1.270 . S
C920 C1098 1.324 . S
C1119 C980 1.537 . S
C1040 C1139 1.569 . S
C380 C1118 1.580 1_655 S
C440 C1140 1.525 . S
C1097 C500 1.595 . S
C200 C1161 1.324 . S
C260 C1182 1.532 . S
C320 C1202 1.569 . S
C740 C1181 1.580 . S
C1203 C800 1.525 . S
C860 C1160 1.595 . S
C560 C1224 1.324 . S
C620 C1245 1.532 . S
C1265 C680 1.569 . S
C20 C1244 1.580 . S
C80 C1266 1.525 . S
C140 C1223 1.595 . S
