# Generated by pormake.
# Topology ptr, (4,4)-cn, num edge types: 1
# Building blocks:
#     Node 0, Type 0, BuildingBlock: TATPOV_clean_sbu_0, # of connection points: 4
#     Node 1, Type 0, BuildingBlock: TATPOV_clean_sbu_0, # of connection points: 4
#     Node 2, Type 0, BuildingBlock: TATPOV_clean_sbu_0, # of connection points: 4
#     Node 3, Type 0, BuildingBlock: TATPOV_clean_sbu_0, # of connection points: 4
#     Node 4, Type 0, BuildingBlock: TATPOV_clean_sbu_0, # of connection points: 4
#     Node 5, Type 0, BuildingBlock: TATPOV_clean_sbu_0, # of connection points: 4
#     Node 6, Type 0, BuildingBlock: TATPOV_clean_sbu_0, # of connection points: 4
#     Node 7, Type 0, BuildingBlock: TATPOV_clean_sbu_0, # of connection points: 4
#     Node 8, Type 0, BuildingBlock: TATPOV_clean_sbu_0, # of connection points: 4
#     Node 9, Type 0, BuildingBlock: TATPOV_clean_sbu_0, # of connection points: 4
#     Node 10, Type 0, BuildingBlock: TATPOV_clean_sbu_0, # of connection points: 4
#     Node 11, Type 0, BuildingBlock: TATPOV_clean_sbu_0, # of connection points: 4
#     Node 12, Type 0, BuildingBlock: TATPOV_clean_sbu_0, # of connection points: 4
#     Node 13, Type 0, BuildingBlock: TATPOV_clean_sbu_0, # of connection points: 4
#     Node 14, Type 0, BuildingBlock: TATPOV_clean_sbu_0, # of connection points: 4
#     Node 15, Type 0, BuildingBlock: TATPOV_clean_sbu_0, # of connection points: 4
#     Node 16, Type 0, BuildingBlock: TATPOV_clean_sbu_0, # of connection points: 4
#     Node 17, Type 0, BuildingBlock: TATPOV_clean_sbu_0, # of connection points: 4
#     Node 18, Type 1, BuildingBlock: AZAVOO_clean_linker_0, # of connection points: 4
#     Node 19, Type 1, BuildingBlock: AZAVOO_clean_linker_0, # of connection points: 4
#     Node 20, Type 1, BuildingBlock: AZAVOO_clean_linker_0, # of connection points: 4
#     Node 21, Type 1, BuildingBlock: AZAVOO_clean_linker_0, # of connection points: 4
#     Node 22, Type 1, BuildingBlock: AZAVOO_clean_linker_0, # of connection points: 4
#     Node 23, Type 1, BuildingBlock: AZAVOO_clean_linker_0, # of connection points: 4
#     Node 24, Type 1, BuildingBlock: AZAVOO_clean_linker_0, # of connection points: 4
#     Node 25, Type 1, BuildingBlock: AZAVOO_clean_linker_0, # of connection points: 4
#     Node 26, Type 1, BuildingBlock: AZAVOO_clean_linker_0, # of connection points: 4
#     Node 27, Type 1, BuildingBlock: AZAVOO_clean_linker_0, # of connection points: 4
#     Node 28, Type 1, BuildingBlock: AZAVOO_clean_linker_0, # of connection points: 4
#     Node 29, Type 1, BuildingBlock: AZAVOO_clean_linker_0, # of connection points: 4
#     Node 30, Type 1, BuildingBlock: AZAVOO_clean_linker_0, # of connection points: 4
#     Node 31, Type 1, BuildingBlock: AZAVOO_clean_linker_0, # of connection points: 4
#     Node 32, Type 1, BuildingBlock: AZAVOO_clean_linker_0, # of connection points: 4
#     Node 33, Type 1, BuildingBlock: AZAVOO_clean_linker_0, # of connection points: 4
#     Node 34, Type 1, BuildingBlock: AZAVOO_clean_linker_0, # of connection points: 4
#     Node 35, Type 1, BuildingBlock: AZAVOO_clean_linker_0, # of connection points: 4
#     Edge 36, Type (0, 1), BuildingBlock: UVAHIK_clean_linker_0, # of connection points: 2
#     Edge 37, Type (0, 1), BuildingBlock: UVAHIK_clean_linker_0, # of connection points: 2
#     Edge 38, Type (0, 1), BuildingBlock: UVAHIK_clean_linker_0, # of connection points: 2
#     Edge 39, Type (0, 1), BuildingBlock: UVAHIK_clean_linker_0, # of connection points: 2
#     Edge 40, Type (0, 1), BuildingBlock: UVAHIK_clean_linker_0, # of connection points: 2
#     Edge 41, Type (0, 1), BuildingBlock: UVAHIK_clean_linker_0, # of connection points: 2
#     Edge 42, Type (0, 1), BuildingBlock: UVAHIK_clean_linker_0, # of connection points: 2
#     Edge 43, Type (0, 1), BuildingBlock: UVAHIK_clean_linker_0, # of connection points: 2
#     Edge 44, Type (0, 1), BuildingBlock: UVAHIK_clean_linker_0, # of connection points: 2
#     Edge 45, Type (0, 1), BuildingBlock: UVAHIK_clean_linker_0, # of connection points: 2
#     Edge 46, Type (0, 1), BuildingBlock: UVAHIK_clean_linker_0, # of connection points: 2
#     Edge 47, Type (0, 1), BuildingBlock: UVAHIK_clean_linker_0, # of connection points: 2
#     Edge 48, Type (0, 1), BuildingBlock: UVAHIK_clean_linker_0, # of connection points: 2
#     Edge 49, Type (0, 1), BuildingBlock: UVAHIK_clean_linker_0, # of connection points: 2
#     Edge 50, Type (0, 1), BuildingBlock: UVAHIK_clean_linker_0, # of connection points: 2
#     Edge 51, Type (0, 1), BuildingBlock: UVAHIK_clean_linker_0, # of connection points: 2
#     Edge 52, Type (0, 1), BuildingBlock: UVAHIK_clean_linker_0, # of connection points: 2
#     Edge 53, Type (0, 1), BuildingBlock: UVAHIK_clean_linker_0, # of connection points: 2
#     Edge 54, Type (0, 1), BuildingBlock: UVAHIK_clean_linker_0, # of connection points: 2
#     Edge 55, Type (0, 1), BuildingBlock: UVAHIK_clean_linker_0, # of connection points: 2
#     Edge 56, Type (0, 1), BuildingBlock: UVAHIK_clean_linker_0, # of connection points: 2
#     Edge 57, Type (0, 1), BuildingBlock: UVAHIK_clean_linker_0, # of connection points: 2
#     Edge 58, Type (0, 1), BuildingBlock: UVAHIK_clean_linker_0, # of connection points: 2
#     Edge 59, Type (0, 1), BuildingBlock: UVAHIK_clean_linker_0, # of connection points: 2
#     Edge 60, Type (0, 1), BuildingBlock: UVAHIK_clean_linker_0, # of connection points: 2
#     Edge 61, Type (0, 1), BuildingBlock: UVAHIK_clean_linker_0, # of connection points: 2
#     Edge 62, Type (0, 1), BuildingBlock: UVAHIK_clean_linker_0, # of connection points: 2
#     Edge 63, Type (0, 1), BuildingBlock: UVAHIK_clean_linker_0, # of connection points: 2
#     Edge 64, Type (0, 1), BuildingBlock: UVAHIK_clean_linker_0, # of connection points: 2
#     Edge 65, Type (0, 1), BuildingBlock: UVAHIK_clean_linker_0, # of connection points: 2
#     Edge 66, Type (0, 1), BuildingBlock: UVAHIK_clean_linker_0, # of connection points: 2
#     Edge 67, Type (0, 1), BuildingBlock: UVAHIK_clean_linker_0, # of connection points: 2
#     Edge 68, Type (0, 1), BuildingBlock: UVAHIK_clean_linker_0, # of connection points: 2
#     Edge 69, Type (0, 1), BuildingBlock: UVAHIK_clean_linker_0, # of connection points: 2
#     Edge 70, Type (0, 1), BuildingBlock: UVAHIK_clean_linker_0, # of connection points: 2
#     Edge 71, Type (0, 1), BuildingBlock: UVAHIK_clean_linker_0, # of connection points: 2
#     Edge 72, Type (0, 1), BuildingBlock: UVAHIK_clean_linker_0, # of connection points: 2
#     Edge 73, Type (0, 1), BuildingBlock: UVAHIK_clean_linker_0, # of connection points: 2
#     Edge 74, Type (0, 1), BuildingBlock: UVAHIK_clean_linker_0, # of connection points: 2
#     Edge 75, Type (0, 1), BuildingBlock: UVAHIK_clean_linker_0, # of connection points: 2
#     Edge 76, Type (0, 1), BuildingBlock: UVAHIK_clean_linker_0, # of connection points: 2
#     Edge 77, Type (0, 1), BuildingBlock: UVAHIK_clean_linker_0, # of connection points: 2
#     Edge 78, Type (0, 1), BuildingBlock: UVAHIK_clean_linker_0, # of connection points: 2
#     Edge 79, Type (0, 1), BuildingBlock: UVAHIK_clean_linker_0, # of connection points: 2
#     Edge 80, Type (0, 1), BuildingBlock: UVAHIK_clean_linker_0, # of connection points: 2
#     Edge 81, Type (0, 1), BuildingBlock: UVAHIK_clean_linker_0, # of connection points: 2
#     Edge 82, Type (0, 1), BuildingBlock: UVAHIK_clean_linker_0, # of connection points: 2
#     Edge 83, Type (0, 1), BuildingBlock: UVAHIK_clean_linker_0, # of connection points: 2
#     Edge 84, Type (0, 1), BuildingBlock: UVAHIK_clean_linker_0, # of connection points: 2
#     Edge 85, Type (0, 1), BuildingBlock: UVAHIK_clean_linker_0, # of connection points: 2
#     Edge 86, Type (0, 1), BuildingBlock: UVAHIK_clean_linker_0, # of connection points: 2
#     Edge 87, Type (0, 1), BuildingBlock: UVAHIK_clean_linker_0, # of connection points: 2
#     Edge 88, Type (0, 1), BuildingBlock: UVAHIK_clean_linker_0, # of connection points: 2
#     Edge 89, Type (0, 1), BuildingBlock: UVAHIK_clean_linker_0, # of connection points: 2
#     Edge 90, Type (0, 1), BuildingBlock: UVAHIK_clean_linker_0, # of connection points: 2
#     Edge 91, Type (0, 1), BuildingBlock: UVAHIK_clean_linker_0, # of connection points: 2
#     Edge 92, Type (0, 1), BuildingBlock: UVAHIK_clean_linker_0, # of connection points: 2
#     Edge 93, Type (0, 1), BuildingBlock: UVAHIK_clean_linker_0, # of connection points: 2
#     Edge 94, Type (0, 1), BuildingBlock: UVAHIK_clean_linker_0, # of connection points: 2
#     Edge 95, Type (0, 1), BuildingBlock: UVAHIK_clean_linker_0, # of connection points: 2
#     Edge 96, Type (0, 1), BuildingBlock: UVAHIK_clean_linker_0, # of connection points: 2
#     Edge 97, Type (0, 1), BuildingBlock: UVAHIK_clean_linker_0, # of connection points: 2
#     Edge 98, Type (0, 1), BuildingBlock: UVAHIK_clean_linker_0, # of connection points: 2
#     Edge 99, Type (0, 1), BuildingBlock: UVAHIK_clean_linker_0, # of connection points: 2
#     Edge 100, Type (0, 1), BuildingBlock: UVAHIK_clean_linker_0, # of connection points: 2
#     Edge 101, Type (0, 1), BuildingBlock: UVAHIK_clean_linker_0, # of connection points: 2
#     Edge 102, Type (0, 1), BuildingBlock: UVAHIK_clean_linker_0, # of connection points: 2
#     Edge 103, Type (0, 1), BuildingBlock: UVAHIK_clean_linker_0, # of connection points: 2
#     Edge 104, Type (0, 1), BuildingBlock: UVAHIK_clean_linker_0, # of connection points: 2
#     Edge 105, Type (0, 1), BuildingBlock: UVAHIK_clean_linker_0, # of connection points: 2
#     Edge 106, Type (0, 1), BuildingBlock: UVAHIK_clean_linker_0, # of connection points: 2
#     Edge 107, Type (0, 1), BuildingBlock: UVAHIK_clean_linker_0, # of connection points: 2
# Relax obj value: 0.090
# Max RMSD: 0.269
# Mean RMSD: 0.172
data_MOF--net-ptr--node1-TATPOV_clean_sbu_0--node2-AZAVOO_clean_linker_0--edge1-UVAHIK_clean_linker_0
_symmetry_space_group_name_H-M    P1
_symmetry_Int_Tables_number       1
_symmetry_cell_setting            triclinic
loop_
_symmetry_equiv_pos_as_xyz
'x, y, z'
_cell_length_a     100.94811
_cell_length_b     101.15982
_cell_length_c     84.68603
_cell_angle_alpha  92.177121
_cell_angle_beta   92.88999
_cell_angle_gamma 121.57995
loop_
_atom_site_label
_atom_site_type_symbol
_atom_site_fract_x
_atom_site_fract_y
_atom_site_fract_z
_atom_type_partial_charge
Zn0 Zn 0.97649 0.36567 0.00488 0.0
Zn1 Zn 0.00035 0.36385 0.01777 0.0
O2 O 0.98483 0.34173 0.00778 0.0
O3 O 0.96551 0.34311 0.99653 0.0
O4 O 0.01654 0.36104 0.02944 0.0
O5 O 0.97242 0.37189 0.02608 0.0
O6 O 0.99307 0.37205 0.036 0.0
C7 C 0.97173 0.33531 0.9996 0.0
C8 C 0.00639 0.3862 0.99229 0.0
O9 O 0.01156 0.37973 0.00119 0.0
O10 O 0.99231 0.38253 0.99216 0.0
C11 C 0.02767 0.36083 0.02332 0.0
O12 O 0.02959 0.36317 0.00823 0.0
C13 C 0.982 0.37444 0.03775 0.0
Zn14 Zn 0.63232 0.59779 0.04872 0.0
Zn15 Zn 0.63327 0.62281 0.06214 0.0
O16 O 0.65577 0.63086 0.05675 0.0
O17 O 0.65554 0.61027 0.04702 0.0
O18 O 0.63587 0.64224 0.07284 0.0
O19 O 0.62348 0.58632 0.06819 0.0
O20 O 0.62499 0.60713 0.07934 0.0
C21 C 0.66292 0.62472 0.05105 0.0
C22 C 0.61337 0.6069 0.03101 0.0
O23 O 0.6178 0.61718 0.04253 0.0
O24 O 0.6181 0.5975 0.03086 0.0
C25 C 0.63758 0.6533 0.06478 0.0
O26 O 0.63664 0.65153 0.04924 0.0
C27 C 0.62158 0.59312 0.07993 0.0
Zn28 Zn 0.37955 0.97286 0.02275 0.0
Zn29 Zn 0.38287 0.00102 0.0208 0.0
O30 O 0.36013 0.98613 0.02563 0.0
O31 O 0.35732 0.96332 0.0285 0.0
O32 O 0.3829 0.02076 0.01792 0.0
O33 O 0.38418 0.97284 -0.00017 0.0
O34 O 0.38911 0.99675 0.99928 0.0
C35 C 0.35171 0.97195 0.02866 0.0
C36 C 0.40341 0.99736 0.04549 0.0
O37 O 0.39891 0.00591 0.03954 0.0
O38 O 0.39729 0.98333 0.0401 0.0
C39 C 0.37535 0.02441 0.02682 0.0
O40 O 0.36888 0.01604 0.0388 0.0
C41 C 0.3886 0.98499 0.99254 0.0
Zn42 Zn 0.02954 0.63999 0.06201 0.0
Zn43 Zn 0.0052 0.64095 0.04856 0.0
O44 O 0.02105 0.6631 0.05852 0.0
O45 O 0.04114 0.66276 0.06932 0.0
O46 O 0.98941 0.64472 0.0376 0.0
O47 O 0.03235 0.63232 0.04065 0.0
O48 O 0.01196 0.63243 0.03032 0.0
C49 C 0.03439 0.67007 0.06626 0.0
C50 C 0.99962 0.61985 0.07513 0.0
O51 O 0.9939 0.62474 0.06478 0.0
O52 O 0.01403 0.62466 0.07624 0.0
C53 C 0.97581 0.63471 0.03143 0.0
O54 O 0.97046 0.61982 0.0323 0.0
C55 C 0.02281 0.62966 0.02888 0.0
Zn56 Zn 0.36247 0.40478 0.01478 0.0
Zn57 Zn 0.36571 0.38094 0.0044 0.0
O58 O 0.34286 0.37101 0.00935 0.0
O59 O 0.33931 0.39005 0.0163 0.0
O60 O 0.36551 0.36213 0.99542 0.0
O61 O 0.37013 0.41486 0.99426 0.0
O62 O 0.37332 0.39574 0.98649 0.0
C63 C 0.33396 0.37566 0.0136 0.0
C64 C 0.38446 0.40019 0.03451 0.0
O65 O 0.38102 0.38919 0.02412 0.0
O66 O 0.3781 0.40814 0.03323 0.0
C67 C 0.35989 0.35012 0.00325 0.0
O68 O 0.35563 0.35082 0.01751 0.0
C69 C 0.3743 0.40857 0.98407 0.0
Zn70 Zn 0.63619 0.04073 0.04505 0.0
Zn71 Zn 0.62817 0.01065 0.04656 0.0
O72 O 0.65132 0.0232 0.0427 0.0
O73 O 0.65897 0.04795 0.04317 0.0
O74 O 0.6256 0.98991 0.05015 0.0
O75 O 0.62823 0.04028 0.06665 0.0
O76 O 0.6218 0.01592 0.0674 0.0
C77 C 0.66204 0.03735 0.04186 0.0
C78 C 0.61265 0.01812 0.02004 0.0
O79 O 0.6138 0.00782 0.02712 0.0
O80 O 0.62089 0.03233 0.02523 0.0
C81 C 0.63165 0.98438 0.04133 0.0
O82 O 0.63764 0.9912 0.02841 0.0
C83 C 0.62244 0.02788 0.07377 0.0
Zn84 Zn 0.63549 0.69625 0.33906 0.0
Zn85 Zn 0.66194 0.69915 0.35129 0.0
O86 O 0.64794 0.67612 0.34253 0.0
O87 O 0.62592 0.67353 0.33316 0.0
O88 O 0.67983 0.69885 0.36258 0.0
O89 O 0.63195 0.70374 0.35995 0.0
O90 O 0.65426 0.70698 0.3694 0.0
C91 C 0.63419 0.66771 0.33573 0.0
C92 C 0.6635 0.7176 0.32345 0.0
O93 O 0.67091 0.71449 0.3338 0.0
O94 O 0.64885 0.71138 0.32343 0.0
C95 C 0.68932 0.69646 0.35558 0.0
O96 O 0.68837 0.69523 0.34001 0.0
C97 C 0.64238 0.70802 0.37126 0.0
Zn98 Zn 0.27938 0.92396 0.38527 0.0
Zn99 Zn 0.2894 0.95267 0.39762 0.0
O100 O 0.30869 0.95522 0.38767 0.0
O101 O 0.30011 0.93202 0.37602 0.0
O102 O 0.29736 0.97437 0.40725 0.0
O103 O 0.2763 0.9161 0.40695 0.0
O104 O 0.28276 0.93929 0.417 0.0
C105 C 0.31101 0.94606 0.37917 0.0
C106 C 0.26151 0.93614 0.37243 0.0
O107 O 0.27167 0.94837 0.38088 0.0
O108 O 0.26173 0.92376 0.37277 0.0
C109 C 0.29925 0.98514 0.39861 0.0
O110 O 0.29566 0.98194 0.38325 0.0
C111 C 0.27821 0.9251 0.4188 0.0
Zn112 Zn 0.05738 0.30734 0.36236 0.0
Zn113 Zn 0.06058 0.33491 0.35607 0.0
O114 O 0.03804 0.32134 0.36197 0.0
O115 O 0.03476 0.29857 0.36646 0.0
O116 O 0.06061 0.35373 0.34927 0.0
O117 O 0.06264 0.30478 0.34016 0.0
O118 O 0.06636 0.32778 0.33587 0.0
C119 C 0.02939 0.30739 0.36564 0.0
C120 C 0.08098 0.33444 0.38324 0.0
O121 O 0.07678 0.34215 0.37505 0.0
O122 O 0.07468 0.31991 0.38004 0.0
C123 C 0.06168 0.36458 0.35837 0.0
O124 O 0.06407 0.36458 0.37377 0.0
C125 C 0.06641 0.3157 0.33114 0.0
Zn126 Zn 0.69773 0.96435 0.39927 0.0
Zn127 Zn 0.67318 0.96297 0.38418 0.0
O128 O 0.6875 0.9861 0.3925 0.0
O129 O 0.70854 0.98747 0.4032 0.0
O130 O 0.65577 0.96315 0.37158 0.0
O131 O 0.70158 0.95513 0.37995 0.0
O132 O 0.68189 0.9549 0.36727 0.0
C133 C 0.70119 0.99405 0.39949 0.0
C134 C 0.66874 0.94492 0.41345 0.0
O135 O 0.66264 0.94803 0.40175 0.0
O136 O 0.68334 0.9507 0.41508 0.0
C137 C 0.64898 0.96958 0.37744 0.0
O138 O 0.65291 0.9755 0.39222 0.0
C139 C 0.69297 0.95229 0.36734 0.0
Zn140 Zn 0.03678 0.74511 0.35509 0.0
Zn141 Zn 0.03914 0.72113 0.34363 0.0
O142 O 0.01635 0.71095 0.34881 0.0
O143 O 0.01402 0.73005 0.3585 0.0
O144 O 0.03938 0.70281 0.33395 0.0
O145 O 0.04285 0.75503 0.3343 0.0
O146 O 0.04604 0.73611 0.32583 0.0
C147 C 0.00806 0.7157 0.35466 0.0
C148 C 0.05952 0.74081 0.37314 0.0
O149 O 0.05478 0.7291 0.36325 0.0
O150 O 0.0539 0.74941 0.37198 0.0
C151 C 0.0343 0.69054 0.3413 0.0
O152 O 0.02977 0.69038 0.3556 0.0
C153 C 0.04674 0.74885 0.32367 0.0
Zn154 Zn 0.28019 0.36276 0.36905 0.0
Zn155 Zn 0.28069 0.33739 0.37747 0.0
O156 O 0.30224 0.352 0.3699 0.0
O157 O 0.30237 0.3727 0.36263 0.0
O158 O 0.28314 0.32003 0.38472 0.0
O159 O 0.27624 0.36637 0.39152 0.0
O160 O 0.27542 0.34502 0.39767 0.0
C161 C 0.30924 0.36529 0.3643 0.0
C162 C 0.2571 0.33354 0.35105 0.0
O163 O 0.26328 0.32762 0.3594 0.0
O164 O 0.26197 0.34791 0.35319 0.0
C165 C 0.28904 0.31428 0.37598 0.0
O166 O 0.29234 0.31894 0.36165 0.0
C167 C 0.27431 0.35668 0.40157 0.0
Zn168 Zn 0.30358 0.03385 0.66883 0.0
Zn169 Zn 0.32946 0.03624 0.68207 0.0
O170 O 0.31418 0.01275 0.67629 0.0
O171 O 0.29191 0.01052 0.66852 0.0
O172 O 0.34786 0.03655 0.69308 0.0
O173 O 0.303 0.04627 0.68766 0.0
O174 O 0.32286 0.04606 0.69935 0.0
C175 C 0.29973 0.00431 0.6717 0.0
C176 C 0.33068 0.0508 0.65101 0.0
O177 O 0.33799 0.04939 0.6629 0.0
O178 O 0.31602 0.0446 0.65042 0.0
C179 C 0.35225 0.02767 0.68769 0.0
O180 O 0.3453 0.01909 0.67437 0.0
C181 C 0.31248 0.04962 0.69969 0.0
Zn182 Zn 0.95908 0.25425 0.71068 0.0
Zn183 Zn 0.95943 0.2795 0.72224 0.0
O184 O 0.98211 0.28788 0.71696 0.0
O185 O 0.98186 0.26731 0.70709 0.0
O186 O 0.96131 0.29885 0.73236 0.0
O187 O 0.95262 0.24436 0.73134 0.0
O188 O 0.95125 0.26438 0.74003 0.0
C189 C 0.98919 0.28179 0.71094 0.0
C190 C 0.9386 0.26115 0.69226 0.0
O191 O 0.94398 0.27279 0.70241 0.0
O192 O 0.94296 0.25151 0.6935 0.0
C193 C 0.95939 0.30847 0.72488 0.0
O194 O 0.9553 0.30564 0.70957 0.0
C195 C 0.94956 0.25117 0.74208 0.0
Zn196 Zn 0.72468 0.64299 0.6933 0.0
Zn197 Zn 0.72386 0.66851 0.68696 0.0
O198 O 0.70235 0.65316 0.69448 0.0
O199 O 0.70258 0.63218 0.69981 0.0
O200 O 0.72056 0.68557 0.68053 0.0
O201 O 0.72847 0.64032 0.67051 0.0
O202 O 0.72953 0.66217 0.66614 0.0
C203 C 0.69554 0.63947 0.6992 0.0
C204 C 0.74752 0.67157 0.71268 0.0
O205 O 0.74136 0.67789 0.705 0.0
O206 O 0.74272 0.6573 0.70959 0.0
C207 C 0.7184 0.69399 0.69028 0.0
O208 O 0.71973 0.69264 0.70556 0.0
C209 C 0.73055 0.65068 0.66127 0.0
Zn210 Zn 0.36171 0.29595 0.73061 0.0
Zn211 Zn 0.34052 0.30009 0.71478 0.0
O212 O 0.35578 0.32115 0.72723 0.0
O213 O 0.37275 0.31777 0.7409 0.0
O214 O 0.32645 0.3054 0.70254 0.0
O215 O 0.36809 0.29141 0.70993 0.0
O216 O 0.34963 0.29324 0.69718 0.0
C217 C 0.36769 0.32642 0.73711 0.0
C218 C 0.32985 0.275 0.73821 0.0
O219 O 0.3264 0.2824 0.72867 0.0
O220 O 0.3438 0.27841 0.74073 0.0
C221 C 0.31221 0.29609 0.69772 0.0
O222 O 0.30537 0.28138 0.70071 0.0
C223 C 0.3606 0.29048 0.69706 0.0
Zn224 Zn 0.7205 0.07978 0.67908 0.0
Zn225 Zn 0.71397 0.05177 0.66824 0.0
O226 O 0.69296 0.04802 0.67485 0.0
O227 O 0.69799 0.07125 0.68288 0.0
O228 O 0.70786 0.03044 0.65902 0.0
O229 O 0.72891 0.08878 0.65875 0.0
O230 O 0.72337 0.06565 0.64943 0.0
C231 C 0.6884 0.05676 0.6803 0.0
C232 C 0.73733 0.06867 0.69711 0.0
O233 O 0.72983 0.05662 0.68742 0.0
O234 O 0.73532 0.07996 0.69595 0.0
C235 C 0.6999 0.0185 0.66665 0.0
O236 O 0.69629 0.02031 0.68093 0.0
C237 C 0.72889 0.08005 0.64764 0.0
Zn238 Zn 0.95226 0.70075 0.7023 0.0
Zn239 Zn 0.94872 0.67313 0.70939 0.0
O240 O 0.9708 0.68621 0.70266 0.0
O241 O 0.97461 0.7089 0.69697 0.0
O242 O 0.949 0.65427 0.71542 0.0
O243 O 0.9473 0.70353 0.72455 0.0
O244 O 0.94438 0.68106 0.73003 0.0
C245 C 0.9796 0.69977 0.69813 0.0
C246 C 0.92745 0.67349 0.68292 0.0
O247 O 0.93174 0.66578 0.69097 0.0
O248 O 0.93423 0.68812 0.68562 0.0
C249 C 0.93767 0.64045 0.71641 0.0
O250 O 0.92331 0.63705 0.71319 0.0
C251 C 0.94421 0.69321 0.73419 0.0
H252 H 0.16529 0.32444 0.03918 0.0
H253 H 0.21108 0.24613 0.15961 0.0
H254 H 0.15801 0.32648 0.1231 0.0
H255 H 0.14214 0.33578 0.11104 0.0
H256 H 0.10038 0.29157 0.117 0.0
H257 H 0.11642 0.28228 0.12898 0.0
H258 H 0.17944 0.31935 0.10568 0.0
H259 H 0.17793 0.32531 0.07816 0.0
H260 H 0.13073 0.28551 0.07111 0.0
H261 H 0.13249 0.27955 0.0986 0.0
H262 H 0.19873 0.3077 0.1275 0.0
H263 H 0.21604 0.30931 0.10752 0.0
H264 H 0.17635 0.27403 0.07735 0.0
H265 H 0.15902 0.27168 0.09791 0.0
H266 H 0.19581 0.30284 0.16027 0.0
H267 H 0.21267 0.29335 0.16881 0.0
H268 H 0.1812 0.2493 0.14223 0.0
H269 H 0.16432 0.25887 0.13395 0.0
H270 H 0.17553 0.31384 0.17483 0.0
H271 H 0.18413 0.31347 0.20226 0.0
H272 H 0.16044 0.26337 0.19661 0.0
H273 H 0.1519 0.26382 0.169 0.0
H274 H 0.15079 0.32127 0.15766 0.0
H275 H 0.13665 0.3248 0.17831 0.0
H276 H 0.11458 0.27599 0.18665 0.0
H277 H 0.12779 0.27243 0.16516 0.0
O278 O 0.16564 0.32186 0.05002 0.0
O279 O 0.14134 0.3014 0.04707 0.0
O280 O 0.22038 0.273 0.16996 0.0
O281 O 0.20461 0.25017 0.15644 0.0
C282 C 0.14826 0.29748 0.13195 0.0
C283 C 0.15709 0.29534 0.12081 0.0
C284 C 0.16714 0.29015 0.12562 0.0
C285 C 0.16837 0.28713 0.1416 0.0
C286 C 0.15982 0.28961 0.15282 0.0
C287 C 0.14952 0.29449 0.14795 0.0
C288 C 0.13837 0.30366 0.12678 0.0
C289 C 0.14542 0.31886 0.12195 0.0
C290 C 0.13636 0.32412 0.115 0.0
C291 C 0.12004 0.31433 0.11291 0.0
C292 C 0.11293 0.29938 0.11851 0.0
C293 C 0.12205 0.29406 0.12535 0.0
C294 C 0.1561 0.29898 0.10409 0.0
C295 C 0.16882 0.3119 0.09814 0.0
C296 C 0.1679 0.31529 0.08243 0.0
C297 C 0.15421 0.30588 0.07243 0.0
C298 C 0.14145 0.29299 0.07849 0.0
C299 C 0.14241 0.28957 0.09418 0.0
C300 C 0.17759 0.28951 0.11425 0.0
C301 C 0.19378 0.29987 0.11688 0.0
C302 C 0.20364 0.30083 0.10544 0.0
C303 C 0.19746 0.29175 0.091 0.0
C304 C 0.18133 0.28108 0.08847 0.0
C305 C 0.17147 0.27978 0.10015 0.0
C306 C 0.17877 0.28149 0.14662 0.0
C307 C 0.19252 0.29111 0.15641 0.0
C308 C 0.20216 0.28568 0.16121 0.0
C309 C 0.19826 0.27054 0.15623 0.0
C310 C 0.18453 0.261 0.14631 0.0
C311 C 0.17488 0.26643 0.14154 0.0
C312 C 0.16313 0.28887 0.16995 0.0
C313 C 0.17198 0.30277 0.17959 0.0
C314 C 0.17696 0.30255 0.19518 0.0
C315 C 0.17305 0.2884 0.20146 0.0
C316 C 0.16356 0.2744 0.19203 0.0
C317 C 0.15871 0.27465 0.17632 0.0
C318 C 0.14026 0.29656 0.15981 0.0
C319 C 0.14259 0.31128 0.16369 0.0
C320 C 0.13466 0.31331 0.1757 0.0
C321 C 0.12447 0.30071 0.1843 0.0
C322 C 0.12205 0.28594 0.18016 0.0
C323 C 0.12974 0.28388 0.16797 0.0
C324 C 0.15328 0.30952 0.05574 0.0
C325 C 0.20845 0.26471 0.16132 0.0
H326 H 0.67578 0.83649 0.05769 0.0
H327 H 0.73539 0.96419 0.19 0.0
H328 H 0.67747 0.82965 0.142 0.0
H329 H 0.66958 0.80364 0.13103 0.0
H330 H 0.71611 0.81339 0.14296 0.0
H331 H 0.72411 0.83975 0.1536 0.0
H332 H 0.67817 0.85335 0.12504 0.0
H333 H 0.67278 0.84556 0.09664 0.0
H334 H 0.719 0.85312 0.09498 0.0
H335 H 0.7243 0.86107 0.12338 0.0
H336 H 0.68012 0.87629 0.14993 0.0
H337 H 0.67117 0.89007 0.13395 0.0
H338 H 0.7136 0.91029 0.10988 0.0
H339 H 0.72231 0.89597 0.12585 0.0
H340 H 0.69199 0.88656 0.1832 0.0
H341 H 0.69605 0.91146 0.19348 0.0
H342 H 0.73934 0.9357 0.171 0.0
H343 H 0.73522 0.91069 0.16097 0.0
H344 H 0.69089 0.85894 0.19742 0.0
H345 H 0.69244 0.8687 0.22463 0.0
H346 H 0.74031 0.90533 0.22078 0.0
H347 H 0.73864 0.89536 0.19341 0.0
H348 H 0.68442 0.83153 0.17935 0.0
H349 H 0.68325 0.81519 0.2005 0.0
H350 H 0.73344 0.8428 0.20888 0.0
H351 H 0.73453 0.85934 0.18775 0.0
O352 O 0.67819 0.83969 0.0689 0.0
O353 O 0.70204 0.84369 0.0687 0.0
O354 O 0.71117 0.94116 0.19746 0.0
O355 O 0.73347 0.95418 0.18606 0.0
C356 C 0.70611 0.85271 0.15415 0.0
C357 C 0.70503 0.86262 0.14349 0.0
C358 C 0.70693 0.87682 0.14931 0.0
C359 C 0.71116 0.88173 0.16555 0.0
C360 C 0.71257 0.87203 0.17619 0.0
C361 C 0.70989 0.85743 0.17052 0.0
C362 C 0.70143 0.83669 0.14834 0.0
C363 C 0.68601 0.82624 0.14214 0.0
C364 C 0.68152 0.81141 0.1359 0.0
C365 C 0.69229 0.8066 0.13601 0.0
C366 C 0.70761 0.81685 0.14274 0.0
C367 C 0.71218 0.83185 0.14879 0.0
C368 C 0.7017 0.85798 0.12622 0.0
C369 C 0.68717 0.85349 0.11849 0.0
C370 C 0.6841 0.84896 0.10228 0.0
C371 C 0.69548 0.84876 0.09352 0.0
C372 C 0.70999 0.85318 0.10136 0.0
C373 C 0.71305 0.85773 0.11757 0.0
C374 C 0.70189 0.88525 0.13911 0.0
C375 C 0.68749 0.88371 0.1412 0.0
C376 C 0.68244 0.89166 0.13212 0.0
C377 C 0.69176 0.90145 0.12077 0.0
C378 C 0.70612 0.90278 0.11848 0.0
C379 C 0.71116 0.89471 0.1276 0.0
C380 C 0.71341 0.89685 0.1715 0.0
C381 C 0.70238 0.89726 0.18059 0.0
C382 C 0.70471 0.9115 0.1864 0.0
C383 C 0.71806 0.92558 0.1831 0.0
C384 C 0.72896 0.92508 0.1738 0.0
C385 C 0.72664 0.91083 0.16803 0.0
C386 C 0.71469 0.87635 0.19349 0.0
C387 C 0.70189 0.86874 0.20262 0.0
C388 C 0.70279 0.87437 0.21817 0.0
C389 C 0.71649 0.88783 0.22484 0.0
C390 C 0.72956 0.89503 0.2159 0.0
C391 C 0.72867 0.8893 0.20034 0.0
C392 C 0.70956 0.84657 0.18201 0.0
C393 C 0.69518 0.83391 0.18558 0.0
C394 C 0.69453 0.82469 0.1977 0.0
C395 C 0.70826 0.82785 0.20634 0.0
C396 C 0.72272 0.84014 0.20234 0.0
C397 C 0.72335 0.84955 0.19033 0.0
C398 C 0.69216 0.84391 0.0763 0.0
C399 C 0.72063 0.94074 0.18932 0.0
H400 H 0.13988 0.86145 0.05292 0.0
H401 H 0.26454 0.97098 0.18004 0.0
H402 H 0.12742 0.8638 0.1367 0.0
H403 H 0.10624 0.83737 0.1275 0.0
H404 H 0.13304 0.81915 0.14803 0.0
H405 H 0.15367 0.84541 0.1576 0.0
H406 H 0.15664 0.89301 0.11657 0.0
H407 H 0.14893 0.88326 0.08868 0.0
H408 H 0.15596 0.84552 0.09796 0.0
H409 H 0.16386 0.85552 0.12574 0.0
H410 H 0.19211 0.9238 0.13229 0.0
H411 H 0.21295 0.93538 0.11423 0.0
H412 H 0.21298 0.8926 0.11084 0.0
H413 H 0.19333 0.8818 0.12976 0.0
H414 H 0.18671 0.92871 0.17038 0.0
H415 H 0.21089 0.95361 0.17794 0.0
H416 H 0.23758 0.93252 0.16752 0.0
H417 H 0.21333 0.90767 0.16017 0.0
H418 H 0.15831 0.90112 0.19231 0.0
H419 H 0.1658 0.91047 0.22046 0.0
H420 H 0.20703 0.90795 0.21797 0.0
H421 H 0.19919 0.89797 0.19017 0.0
H422 H 0.13035 0.87028 0.17404 0.0
H423 H 0.11428 0.85302 0.19378 0.0
H424 H 0.15214 0.84702 0.2094 0.0
H425 H 0.16813 0.86445 0.18984 0.0
O426 O 0.14301 0.86513 0.06399 0.0
O427 O 0.14671 0.8459 0.06941 0.0
O428 O 0.24054 0.97155 0.18235 0.0
O429 O 0.2548 0.96128 0.17711 0.0
C430 C 0.15558 0.87243 0.15204 0.0
C431 C 0.16525 0.88092 0.14013 0.0
C432 C 0.17953 0.89504 0.1443 0.0
C433 C 0.18353 0.90132 0.16025 0.0
C434 C 0.17365 0.89299 0.17216 0.0
C435 C 0.15986 0.87838 0.16806 0.0
C436 C 0.142 0.85647 0.14787 0.0
C437 C 0.1285 0.85402 0.13942 0.0
C438 C 0.11651 0.83893 0.13406 0.0
C439 C 0.11791 0.82607 0.13696 0.0
C440 C 0.13135 0.82866 0.14582 0.0
C441 C 0.14322 0.84368 0.15127 0.0
C442 C 0.16061 0.87487 0.12321 0.0
C443 C 0.1565 0.88264 0.11254 0.0
C444 C 0.15209 0.87703 0.09663 0.0
C445 C 0.15176 0.86357 0.0911 0.0
C446 C 0.15601 0.85588 0.10184 0.0
C447 C 0.16045 0.86152 0.11773 0.0
C448 C 0.19118 0.90194 0.13234 0.0
C449 C 0.1967 0.91701 0.12764 0.0
C450 C 0.20852 0.92354 0.11721 0.0
C451 C 0.21482 0.91501 0.11116 0.0
C452 C 0.20878 0.89972 0.11554 0.0
C453 C 0.1973 0.89338 0.12616 0.0
C454 C 0.19827 0.91643 0.16461 0.0
C455 C 0.1978 0.92951 0.16973 0.0
C456 C 0.21162 0.94371 0.17403 0.0
C457 C 0.22617 0.94506 0.1733 0.0
C458 C 0.22658 0.9319 0.16818 0.0
C459 C 0.21275 0.9177 0.16392 0.0
C460 C 0.17831 0.89904 0.1891 0.0
C461 C 0.16895 0.90256 0.19786 0.0
C462 C 0.17322 0.90791 0.21388 0.0
C463 C 0.18707 0.91008 0.22126 0.0
C464 C 0.19644 0.90662 0.21246 0.0
C465 C 0.192 0.90097 0.19659 0.0
C466 C 0.15041 0.86867 0.1806 0.0
C467 C 0.13517 0.86531 0.18184 0.0
C468 C 0.12599 0.85538 0.19303 0.0
C469 C 0.13192 0.84862 0.20316 0.0
C470 C 0.14729 0.8522 0.20197 0.0
C471 C 0.15644 0.86213 0.19079 0.0
C472 C 0.14702 0.85762 0.0742 0.0
C473 C 0.24089 0.96012 0.17787 0.0
H474 H 0.30423 0.17047 0.00917 0.0
H475 H 0.31717 0.0638 0.88859 0.0
H476 H 0.28197 0.16133 0.92678 0.0
H477 H 0.28678 0.18678 0.93631 0.0
H478 H 0.32956 0.20933 0.91284 0.0
H479 H 0.32458 0.18392 0.90332 0.0
H480 H 0.28492 0.13583 0.94698 0.0
H481 H 0.28894 0.14668 0.97435 0.0
H482 H 0.33355 0.18601 0.96432 0.0
H483 H 0.32947 0.17492 0.93704 0.0
H484 H 0.28718 0.10671 0.93307 0.0
H485 H 0.29682 0.09469 0.95128 0.0
H486 H 0.34304 0.13589 0.95323 0.0
H487 H 0.33339 0.14766 0.93491 0.0
H488 H 0.27738 0.09938 0.89453 0.0
H489 H 0.27772 0.07575 0.88827 0.0
H490 H 0.32771 0.1016 0.89943 0.0
H491 H 0.32721 0.12517 0.90547 0.0
H492 H 0.274 0.11973 0.8702 0.0
H493 H 0.27329 0.10945 0.84314 0.0
H494 H 0.32305 0.129 0.84936 0.0
H495 H 0.32362 0.13909 0.87623 0.0
H496 H 0.27499 0.15374 0.88847 0.0
H497 H 0.27129 0.16667 0.86612 0.0
H498 H 0.31493 0.17611 0.84948 0.0
H499 H 0.31892 0.1639 0.8721 0.0
O500 O 0.30294 0.16632 0.99832 0.0
O501 O 0.32575 0.18632 0.99253 0.0
O502 O 0.29101 0.06022 0.8853 0.0
O503 O 0.3167 0.07296 0.89098 0.0
C504 C 0.30152 0.1556 0.91084 0.0
C505 C 0.30414 0.14811 0.92335 0.0
C506 C 0.30453 0.13456 0.91999 0.0
C507 C 0.30192 0.12824 0.90419 0.0
C508 C 0.29947 0.13577 0.89169 0.0
C509 C 0.29921 0.14944 0.89498 0.0
C510 C 0.30293 0.1708 0.91437 0.0
C511 C 0.2922 0.1718 0.92345 0.0
C512 C 0.29504 0.18632 0.92897 0.0
C513 C 0.30862 0.20008 0.92544 0.0
C514 C 0.3189 0.19899 0.91563 0.0
C515 C 0.31608 0.18448 0.91017 0.0
C516 C 0.30684 0.15465 0.94002 0.0
C517 C 0.29557 0.14676 0.95075 0.0
C518 C 0.29789 0.153 0.96636 0.0
C519 C 0.31154 0.16725 0.97151 0.0
C520 C 0.32289 0.17505 0.96073 0.0
C521 C 0.32057 0.16876 0.94514 0.0
C522 C 0.30959 0.12805 0.9327 0.0
C523 C 0.29932 0.1132 0.93766 0.0
C524 C 0.30483 0.10639 0.94807 0.0
C525 C 0.32071 0.11432 0.95356 0.0
C526 C 0.3308 0.12944 0.94904 0.0
C527 C 0.32528 0.13623 0.93871 0.0
C528 C 0.30224 0.11393 0.90057 0.0
C529 C 0.28838 0.09989 0.89562 0.0
C530 C 0.28862 0.08643 0.89206 0.0
C531 C 0.30275 0.08678 0.89339 0.0
C532 C 0.31663 0.10091 0.89832 0.0
C533 C 0.31638 0.11438 0.90183 0.0
C534 C 0.29886 0.13013 0.8751 0.0
C535 C 0.28472 0.12184 0.86562 0.0
C536 C 0.28434 0.11596 0.85026 0.0
C537 C 0.29814 0.11851 0.84417 0.0
C538 C 0.31228 0.12704 0.85367 0.0
C539 C 0.31262 0.13272 0.86902 0.0
C540 C 0.29708 0.1576 0.88175 0.0
C541 C 0.28378 0.15869 0.88004 0.0
C542 C 0.28168 0.16604 0.86733 0.0
C543 C 0.29272 0.17215 0.85602 0.0
C544 C 0.30612 0.17124 0.8579 0.0
C545 C 0.30838 0.16422 0.87076 0.0
C546 C 0.3139 0.17392 0.98807 0.0
C547 C 0.30307 0.0725 0.88963 0.0
H548 H 0.83817 0.14391 0.01565 0.0
H549 H 0.76488 0.01382 0.88688 0.0
H550 H 0.84262 0.15134 0.93146 0.0
H551 H 0.86197 0.17825 0.94073 0.0
H552 H 0.89894 0.17055 0.93 0.0
H553 H 0.87935 0.14336 0.92105 0.0
H554 H 0.81925 0.12435 0.94829 0.0
H555 H 0.82318 0.13262 0.97653 0.0
H556 H 0.86645 0.13333 0.97975 0.0
H557 H 0.86226 0.12485 0.95152 0.0
H558 H 0.79485 0.09361 0.92468 0.0
H559 H 0.77682 0.07989 0.94474 0.0
H560 H 0.81316 0.07835 0.97207 0.0
H561 H 0.83103 0.09124 0.95136 0.0
H562 H 0.79624 0.09072 0.8909 0.0
H563 H 0.77495 0.06455 0.88135 0.0
H564 H 0.79922 0.04511 0.90492 0.0
H565 H 0.82052 0.07136 0.91423 0.0
H566 H 0.82209 0.12244 0.87746 0.0
H567 H 0.8144 0.11551 0.84918 0.0
H568 H 0.82525 0.07955 0.85127 0.0
H569 H 0.8333 0.08683 0.87974 0.0
H570 H 0.84738 0.15193 0.89709 0.0
H571 H 0.863 0.16996 0.87764 0.0
H572 H 0.87902 0.13951 0.86371 0.0
H573 H 0.86396 0.12184 0.88373 0.0
O574 O 0.83686 0.14065 0.0045 0.0
O575 O 0.85909 0.14099 0.00549 0.0
O576 O 0.7612 0.03489 0.8785 0.0
O577 O 0.77316 0.0243 0.89046 0.0
C578 C 0.84758 0.12912 0.91993 0.0
C579 C 0.83791 0.11867 0.93077 0.0
C580 C 0.82556 0.10354 0.92526 0.0
C581 C 0.82298 0.09884 0.90888 0.0
C582 C 0.83249 0.1094 0.89799 0.0
C583 C 0.8449 0.12451 0.90354 0.0
C584 C 0.85959 0.1454 0.92566 0.0
C585 C 0.8549 0.15543 0.93123 0.0
C586 C 0.86597 0.17082 0.93637 0.0
C587 C 0.88198 0.17654 0.936 0.0
C588 C 0.88668 0.16643 0.93053 0.0
C589 C 0.87555 0.15097 0.92535 0.0
C590 C 0.84042 0.12389 0.9479 0.0
C591 C 0.82953 0.12623 0.95514 0.0
C592 C 0.83182 0.13099 0.97126 0.0
C593 C 0.84511 0.13361 0.98041 0.0
C594 C 0.85607 0.13139 0.97306 0.0
C595 C 0.85373 0.12657 0.95694 0.0
C596 C 0.81425 0.09335 0.93646 0.0
C597 C 0.7988 0.0898 0.93465 0.0
C598 C 0.78854 0.08206 0.94614 0.0
C599 C 0.79368 0.0781 0.95983 0.0
C600 C 0.809 0.08127 0.96153 0.0
C601 C 0.81915 0.08862 0.94976 0.0
C602 C 0.80999 0.08294 0.90313 0.0
C603 C 0.79699 0.0808 0.89388 0.0
C604 C 0.78482 0.06584 0.8885 0.0
C605 C 0.7854 0.05273 0.89235 0.0
C606 C 0.79841 0.05494 0.90171 0.0
C607 C 0.81059 0.06991 0.90706 0.0
C608 C 0.8284 0.10526 0.88064 0.0
C609 C 0.82307 0.11324 0.87179 0.0
C610 C 0.81868 0.10927 0.85564 0.0
C611 C 0.81934 0.09707 0.848 0.0
C612 C 0.82461 0.08899 0.85688 0.0
C613 C 0.82922 0.09314 0.87308 0.0
C614 C 0.8547 0.13567 0.89202 0.0
C615 C 0.85454 0.14932 0.89012 0.0
C616 C 0.86338 0.15955 0.87898 0.0
C617 C 0.87218 0.15608 0.86926 0.0
C618 C 0.87227 0.14238 0.87107 0.0
C619 C 0.86371 0.13233 0.88247 0.0
C620 C 0.8475 0.13864 0.99755 0.0
C621 C 0.7725 0.03681 0.88666 0.0
H622 H 0.86801 0.70431 0.03037 0.0
H623 H 0.7579 0.70788 0.90618 0.0
H624 H 0.88413 0.72108 0.95048 0.0
H625 H 0.90113 0.71232 0.96062 0.0
H626 H 0.8741 0.66961 0.93058 0.0
H627 H 0.85673 0.67818 0.92113 0.0
H628 H 0.85841 0.72461 0.96939 0.0
H629 H 0.86377 0.72049 0.99667 0.0
H630 H 0.84973 0.67323 0.98183 0.0
H631 H 0.84421 0.67745 0.95466 0.0
H632 H 0.82831 0.72644 0.95392 0.0
H633 H 0.80825 0.72044 0.97242 0.0
H634 H 0.79755 0.67302 0.97166 0.0
H635 H 0.81663 0.67884 0.9525 0.0
H636 H 0.8343 0.73572 0.91659 0.0
H637 H 0.81294 0.73988 0.90992 0.0
H638 H 0.77956 0.6916 0.91668 0.0
H639 H 0.80103 0.68757 0.92316 0.0
H640 H 0.85774 0.73299 0.89323 0.0
H641 H 0.84969 0.73532 0.8661 0.0
H642 H 0.80742 0.69023 0.86682 0.0
H643 H 0.81548 0.68808 0.89374 0.0
H644 H 0.88507 0.72538 0.91297 0.0
H645 H 0.90024 0.72373 0.8923 0.0
H646 H 0.85785 0.68504 0.86823 0.0
H647 H 0.84321 0.68585 0.88975 0.0
O648 O 0.86578 0.70568 0.01951 0.0
O649 O 0.85854 0.68151 0.01125 0.0
O650 O 0.7842 0.73127 0.9054 0.0
O651 O 0.76656 0.70656 0.90878 0.0
C652 C 0.85708 0.70416 0.9314 0.0
C653 C 0.84784 0.70404 0.94348 0.0
C654 C 0.83522 0.70605 0.93985 0.0
C655 C 0.83227 0.70893 0.92427 0.0
C656 C 0.84146 0.70906 0.91214 0.0
C657 C 0.85383 0.70656 0.91566 0.0
C658 C 0.86915 0.70024 0.93513 0.0
C659 C 0.88206 0.70994 0.94591 0.0
C660 C 0.8918 0.70492 0.95164 0.0
C661 C 0.88889 0.69015 0.94656 0.0
C662 C 0.87649 0.6809 0.935 0.0
C663 C 0.86668 0.68587 0.9294 0.0
C664 C 0.85107 0.70139 0.96003 0.0
C665 C 0.85649 0.71338 0.97207 0.0
C666 C 0.85956 0.71099 0.98763 0.0
C667 C 0.85723 0.69654 0.99143 0.0
C668 C 0.8517 0.68452 0.97931 0.0
C669 C 0.8486 0.68691 0.96377 0.0
C670 C 0.82393 0.70307 0.95188 0.0
C671 C 0.82156 0.71477 0.95777 0.0
C672 C 0.81019 0.71134 0.96842 0.0
C673 C 0.80115 0.6962 0.97343 0.0
C674 C 0.80397 0.68471 0.96779 0.0
C675 C 0.81507 0.68806 0.957 0.0
C676 C 0.81921 0.71139 0.92048 0.0
C677 C 0.82237 0.72607 0.91664 0.0
C678 C 0.81015 0.72841 0.91284 0.0
C679 C 0.79453 0.71607 0.91281 0.0
C680 C 0.79144 0.70135 0.91664 0.0
C681 C 0.80367 0.69903 0.9204 0.0
C682 C 0.83712 0.71044 0.89551 0.0
C683 C 0.84678 0.72364 0.88746 0.0
C684 C 0.84218 0.72492 0.87199 0.0
C685 C 0.82782 0.71304 0.86439 0.0
C686 C 0.81836 0.69975 0.87245 0.0
C687 C 0.82298 0.69846 0.88781 0.0
C688 C 0.86299 0.70585 0.90281 0.0
C689 C 0.87913 0.71646 0.90328 0.0
C690 C 0.88775 0.71559 0.89132 0.0
C691 C 0.88034 0.70428 0.87844 0.0
C692 C 0.86411 0.69372 0.87804 0.0
C693 C 0.85561 0.69435 0.89021 0.0
C694 C 0.86053 0.69406 0.00796 0.0
C695 C 0.78151 0.71849 0.90877 0.0
H696 H 0.82744 0.65568 0.36713 0.0
H697 H 0.88377 0.59414 0.49676 0.0
H698 H 0.8212 0.66226 0.45081 0.0
H699 H 0.80474 0.67062 0.4382 0.0
H700 H 0.76365 0.62669 0.44636 0.0
H701 H 0.78029 0.6182 0.45871 0.0
H702 H 0.84292 0.65644 0.43477 0.0
H703 H 0.84068 0.66016 0.40661 0.0
H704 H 0.79541 0.61749 0.40111 0.0
H705 H 0.79789 0.61381 0.42926 0.0
H706 H 0.86389 0.65054 0.45971 0.0
H707 H 0.88362 0.65328 0.44241 0.0
H708 H 0.84849 0.61272 0.41312 0.0
H709 H 0.82869 0.60979 0.43089 0.0
H710 H 0.861 0.64517 0.49231 0.0
H711 H 0.87978 0.63858 0.50251 0.0
H712 H 0.85215 0.59305 0.47744 0.0
H713 H 0.83335 0.59972 0.46748 0.0
H714 H 0.83729 0.65341 0.50484 0.0
H715 H 0.84685 0.65537 0.53242 0.0
H716 H 0.82945 0.60613 0.52904 0.0
H717 H 0.81968 0.6042 0.50131 0.0
H718 H 0.81234 0.65776 0.48586 0.0
H719 H 0.79732 0.66069 0.50592 0.0
H720 H 0.77827 0.61271 0.51624 0.0
H721 H 0.79236 0.60966 0.49537 0.0
O722 O 0.8281 0.65395 0.37823 0.0
O723 O 0.80483 0.632 0.37606 0.0
O724 O 0.89027 0.62057 0.50563 0.0
O725 O 0.87652 0.59704 0.49291 0.0
C726 C 0.81227 0.63415 0.46157 0.0
C727 C 0.82195 0.63253 0.45113 0.0
C728 C 0.83305 0.62905 0.45701 0.0
C729 C 0.83417 0.62673 0.47324 0.0
C730 C 0.82457 0.62839 0.4837 0.0
C731 C 0.81345 0.6319 0.47786 0.0
C732 C 0.80195 0.63955 0.45549 0.0
C733 C 0.80864 0.65443 0.4499 0.0
C734 C 0.79925 0.65918 0.44269 0.0
C735 C 0.78295 0.64923 0.44116 0.0
C736 C 0.77619 0.63458 0.44741 0.0
C737 C 0.78565 0.62973 0.45445 0.0
C738 C 0.82062 0.63479 0.43401 0.0
C739 C 0.83258 0.64785 0.42743 0.0
C740 C 0.83124 0.64998 0.41136 0.0
C741 C 0.81787 0.63911 0.4016 0.0
C742 C 0.80587 0.62607 0.40828 0.0
C743 C 0.80725 0.62394 0.42435 0.0
C744 C 0.84489 0.62987 0.44668 0.0
C745 C 0.86048 0.64203 0.44977 0.0
C746 C 0.87173 0.64358 0.43987 0.0
C747 C 0.8676 0.63313 0.4265 0.0
C748 C 0.85196 0.62092 0.42337 0.0
C749 C 0.84069 0.61922 0.43348 0.0
C750 C 0.84573 0.62285 0.4793 0.0
C751 C 0.85897 0.63374 0.48913 0.0
C752 C 0.8697 0.62997 0.49489 0.0
C753 C 0.86744 0.61526 0.49082 0.0
C754 C 0.85423 0.60446 0.48083 0.0
C755 C 0.84348 0.60823 0.47512 0.0
C756 C 0.82783 0.62868 0.50107 0.0
C757 C 0.83519 0.64297 0.51014 0.0
C758 C 0.84077 0.64409 0.52583 0.0
C759 C 0.83908 0.63094 0.53276 0.0
C760 C 0.83088 0.61643 0.52397 0.0
C761 C 0.82533 0.61532 0.50818 0.0
C762 C 0.80336 0.63346 0.48904 0.0
C763 C 0.80456 0.64778 0.49216 0.0
C764 C 0.79614 0.64949 0.50383 0.0
C765 C 0.78659 0.63698 0.51286 0.0
C766 C 0.78522 0.62256 0.50942 0.0
C767 C 0.7934 0.6208 0.49756 0.0
C768 C 0.81648 0.64142 0.38453 0.0
C769 C 0.87879 0.61118 0.49693 0.0
H770 H 0.33831 0.1732 0.38911 0.0
H771 H 0.39806 0.29577 0.5273 0.0
H772 H 0.34177 0.16286 0.47203 0.0
H773 H 0.33476 0.13729 0.46053 0.0
H774 H 0.38176 0.14838 0.47251 0.0
H775 H 0.38889 0.17432 0.48364 0.0
H776 H 0.34128 0.18733 0.45726 0.0
H777 H 0.33562 0.1806 0.42866 0.0
H778 H 0.38198 0.18891 0.42545 0.0
H779 H 0.38755 0.1958 0.45405 0.0
H780 H 0.34361 0.21024 0.48389 0.0
H781 H 0.33425 0.22409 0.4686 0.0
H782 H 0.37538 0.2435 0.4425 0.0
H783 H 0.38458 0.22926 0.45786 0.0
H784 H 0.35536 0.21823 0.51695 0.0
H785 H 0.35933 0.24255 0.52898 0.0
H786 H 0.40187 0.26844 0.50556 0.0
H787 H 0.39787 0.244 0.4938 0.0
H788 H 0.35587 0.19098 0.53017 0.0
H789 H 0.35782 0.20171 0.55709 0.0
H790 H 0.40494 0.23904 0.55135 0.0
H791 H 0.40283 0.2282 0.52433 0.0
H792 H 0.34921 0.16272 0.50838 0.0
H793 H 0.34912 0.14413 0.52595 0.0
H794 H 0.3989 0.17457 0.53673 0.0
H795 H 0.39884 0.19324 0.51903 0.0
O796 O 0.34082 0.17596 0.40038 0.0
O797 O 0.36475 0.18031 0.39939 0.0
O798 O 0.37429 0.27211 0.53452 0.0
O799 O 0.39615 0.28598 0.52261 0.0
C800 C 0.36996 0.18621 0.48505 0.0
C801 C 0.36839 0.19631 0.47505 0.0
C802 C 0.37001 0.21016 0.48162 0.0
C803 C 0.37441 0.21457 0.49793 0.0
C804 C 0.37638 0.20472 0.50792 0.0
C805 C 0.37385 0.19039 0.50155 0.0
C806 C 0.36591 0.17058 0.47842 0.0
C807 C 0.35064 0.15989 0.47198 0.0
C808 C 0.34664 0.14528 0.46546 0.0
C809 C 0.35776 0.14093 0.46551 0.0
C810 C 0.37297 0.15147 0.47233 0.0
C811 C 0.37705 0.16625 0.47865 0.0
C812 C 0.36489 0.19223 0.45769 0.0
C813 C 0.35025 0.18784 0.45033 0.0
C814 C 0.34702 0.18393 0.43401 0.0
C815 C 0.35836 0.18425 0.42476 0.0
C816 C 0.373 0.18857 0.43222 0.0
C817 C 0.37621 0.19251 0.44854 0.0
C818 C 0.36481 0.21886 0.47206 0.0
C819 C 0.35064 0.21755 0.47492 0.0
C820 C 0.34536 0.22553 0.46622 0.0
C821 C 0.35415 0.23505 0.45445 0.0
C822 C 0.36831 0.23621 0.45145 0.0
C823 C 0.37362 0.22817 0.46022 0.0
C824 C 0.37642 0.22937 0.50465 0.0
C825 C 0.36555 0.22917 0.51448 0.0
C826 C 0.36783 0.24307 0.5213 0.0
C827 C 0.38096 0.25744 0.51828 0.0
C828 C 0.39167 0.25758 0.50817 0.0
C829 C 0.3894 0.24365 0.50141 0.0
C830 C 0.3792 0.20881 0.5253 0.0
C831 C 0.36682 0.20113 0.53494 0.0
C832 C 0.36794 0.20733 0.55031 0.0
C833 C 0.38146 0.22136 0.55627 0.0
C834 C 0.39428 0.22837 0.54699 0.0
C835 C 0.39317 0.22211 0.53163 0.0
C836 C 0.37405 0.17923 0.5123 0.0
C837 C 0.36012 0.16531 0.51442 0.0
C838 C 0.36012 0.15469 0.52441 0.0
C839 C 0.37405 0.15779 0.53259 0.0
C840 C 0.38799 0.17187 0.53062 0.0
C841 C 0.38799 0.18251 0.52051 0.0
C842 C 0.3549 0.18007 0.40742 0.0
C843 C 0.38354 0.27224 0.52564 0.0
H844 H 0.80845 0.18751 0.37243 0.0
H845 H 0.92996 0.30581 0.4956 0.0
H846 H 0.79692 0.19111 0.4544 0.0
H847 H 0.77722 0.16409 0.44531 0.0
H848 H 0.8038 0.14863 0.47174 0.0
H849 H 0.82379 0.17554 0.47976 0.0
H850 H 0.82341 0.22046 0.43521 0.0
H851 H 0.81609 0.20985 0.40754 0.0
H852 H 0.82697 0.17496 0.41836 0.0
H853 H 0.83444 0.1858 0.44592 0.0
H854 H 0.85643 0.25222 0.44869 0.0
H855 H 0.87655 0.26433 0.42978 0.0
H856 H 0.88407 0.22608 0.43195 0.0
H857 H 0.8641 0.21419 0.45051 0.0
H858 H 0.85254 0.2578 0.48891 0.0
H859 H 0.8755 0.28386 0.49553 0.0
H860 H 0.90535 0.26662 0.4842 0.0
H861 H 0.88232 0.24061 0.47781 0.0
H862 H 0.82975 0.23091 0.51436 0.0
H863 H 0.84024 0.24038 0.54209 0.0
H864 H 0.88007 0.23681 0.53317 0.0
H865 H 0.86952 0.22728 0.50584 0.0
H866 H 0.79923 0.19598 0.49413 0.0
H867 H 0.78487 0.17722 0.51365 0.0
H868 H 0.8268 0.17827 0.52933 0.0
H869 H 0.84091 0.19653 0.50955 0.0
O870 O 0.81144 0.19154 0.38342 0.0
O871 O 0.81714 0.17381 0.38961 0.0
O872 O 0.90483 0.30389 0.4988 0.0
O873 O 0.92068 0.29563 0.49305 0.0
C874 C 0.82479 0.20167 0.47163 0.0
C875 C 0.83373 0.21037 0.45936 0.0
C876 C 0.84745 0.22508 0.46305 0.0
C877 C 0.85172 0.23158 0.47889 0.0
C878 C 0.84293 0.22284 0.49123 0.0
C879 C 0.82952 0.2078 0.48762 0.0
C880 C 0.81177 0.1853 0.46778 0.0
C881 C 0.79837 0.18183 0.45829 0.0
C882 C 0.7871 0.16639 0.45319 0.0
C883 C 0.78901 0.15418 0.45763 0.0
C884 C 0.80212 0.15774 0.46777 0.0
C885 C 0.81345 0.17312 0.47261 0.0
C886 C 0.82927 0.20379 0.4426 0.0
C887 C 0.82419 0.21052 0.43157 0.0
C888 C 0.82001 0.20443 0.41578 0.0
C889 C 0.82089 0.19152 0.41075 0.0
C890 C 0.8261 0.18488 0.42184 0.0
C891 C 0.83031 0.191 0.43761 0.0
C892 C 0.85872 0.23225 0.45082 0.0
C893 C 0.86233 0.24643 0.44487 0.0
C894 C 0.87384 0.25333 0.43415 0.0
C895 C 0.8818 0.24609 0.42923 0.0
C896 C 0.87793 0.2318 0.43514 0.0
C897 C 0.86654 0.22499 0.44581 0.0
C898 C 0.86575 0.24738 0.4827 0.0
C899 C 0.86405 0.2597 0.48784 0.0
C900 C 0.87718 0.27456 0.49161 0.0
C901 C 0.89227 0.27733 0.49034 0.0
C902 C 0.89391 0.26491 0.48525 0.0
C903 C 0.88077 0.25005 0.48151 0.0
C904 C 0.84902 0.22868 0.50801 0.0
C905 C 0.84076 0.23225 0.51845 0.0
C906 C 0.84673 0.2376 0.53424 0.0
C907 C 0.86109 0.23957 0.53972 0.0
C908 C 0.86918 0.2358 0.52922 0.0
C909 C 0.86317 0.23035 0.51359 0.0
C910 C 0.82119 0.19782 0.50056 0.0
C911 C 0.80533 0.19227 0.5019 0.0
C912 C 0.79714 0.18151 0.51295 0.0
C913 C 0.80475 0.17635 0.52299 0.0
C914 C 0.8207 0.18222 0.52187 0.0
C915 C 0.8288 0.19273 0.51067 0.0
C916 C 0.81639 0.18505 0.39398 0.0
C917 C 0.90625 0.2931 0.49433 0.0
H918 H 0.00386 0.51792 0.34276 0.0
H919 H 0.01626 0.41596 0.21636 0.0
H920 H 0.97675 0.50784 0.26107 0.0
H921 H 0.97967 0.53217 0.2716 0.0
H922 H 0.02172 0.55817 0.24749 0.0
H923 H 0.01853 0.53376 0.23684 0.0
H924 H 0.98226 0.48417 0.28011 0.0
H925 H 0.98732 0.49461 0.30777 0.0
H926 H 0.03101 0.53452 0.29661 0.0
H927 H 0.02589 0.52385 0.26904 0.0
H928 H 0.98179 0.4548 0.26183 0.0
H929 H 0.98912 0.44057 0.27939 0.0
H930 H 0.03602 0.4807 0.28662 0.0
H931 H 0.02866 0.49479 0.26883 0.0
H932 H 0.97399 0.44855 0.22558 0.0
H933 H 0.97536 0.42572 0.21808 0.0
H934 H 0.02542 0.45302 0.22869 0.0
H935 H 0.02389 0.47581 0.23593 0.0
H936 H 0.96716 0.46812 0.20534 0.0
H937 H 0.96309 0.45456 0.17919 0.0
H938 H 0.01283 0.47456 0.17905 0.0
H939 H 0.01674 0.48802 0.20503 0.0
H940 H 0.96901 0.50216 0.22528 0.0
H941 H 0.9626 0.51486 0.20468 0.0
H942 H 0.00331 0.52409 0.18135 0.0
H943 H 0.01022 0.51225 0.2024 0.0
O944 O 0.00214 0.51395 0.33178 0.0
O945 O 0.02445 0.53427 0.32541 0.0
O946 O 0.98964 0.41133 0.2138 0.0
O947 O 0.01539 0.42481 0.21922 0.0
C948 C 0.997 0.50448 0.24385 0.0
C949 C 0.00043 0.49699 0.25576 0.0
C950 C 0.00082 0.48356 0.25167 0.0
C951 C 0.99797 0.4777 0.23567 0.0
C952 C 0.99459 0.48517 0.22376 0.0
C953 C 0.99393 0.49849 0.22781 0.0
C954 C 0.99746 0.51906 0.24826 0.0
C955 C 0.98643 0.5188 0.25787 0.0
C956 C 0.98819 0.53271 0.26395 0.0
C957 C 0.00103 0.54712 0.26053 0.0
C958 C 0.01164 0.54729 0.25025 0.0
C959 C 0.00985 0.53336 0.24416 0.0
C960 C 0.00368 0.50327 0.27259 0.0
C961 C 0.99294 0.49513 0.28369 0.0
C962 C 0.99585 0.50114 0.29947 0.0
C963 C 0.00956 0.51542 0.3044 0.0
C964 C 0.02033 0.52351 0.29321 0.0
C965 C 0.01743 0.51746 0.27746 0.0
C966 C 0.00471 0.47579 0.264 0.0
C967 C 0.99359 0.46057 0.26736 0.0
C968 C 0.9978 0.45246 0.27733 0.0
C969 C 0.01316 0.45951 0.28426 0.0
C970 C 0.02407 0.47504 0.28152 0.0
C971 C 0.0199 0.48309 0.27139 0.0
C972 C 0.99884 0.46381 0.23128 0.0
C973 C 0.98524 0.44958 0.22621 0.0
C974 C 0.98606 0.43656 0.22198 0.0
C975 C 0.00052 0.43754 0.22279 0.0
C976 C 0.01411 0.45185 0.22792 0.0
C977 C 0.01328 0.46487 0.2321 0.0
C978 C 0.99223 0.47904 0.20701 0.0
C979 C 0.97716 0.46981 0.19946 0.0
C980 C 0.97486 0.462 0.18464 0.0
C981 C 0.98764 0.46346 0.17713 0.0
C982 C 0.00278 0.47333 0.18445 0.0
C983 C 0.00504 0.481 0.19928 0.0
C984 C 0.99003 0.50615 0.21531 0.0
C985 C 0.97663 0.50705 0.21581 0.0
C986 C 0.97295 0.51423 0.20406 0.0
C987 C 0.98241 0.52026 0.19145 0.0
C988 C 0.99577 0.51933 0.1909 0.0
C989 C 0.99967 0.51253 0.20286 0.0
C990 C 0.01256 0.52183 0.32114 0.0
C991 C 0.00145 0.42374 0.21832 0.0
H992 H 0.49612 0.47847 0.34589 0.0
H993 H 0.41817 0.35948 0.20604 0.0
H994 H 0.50824 0.49104 0.26272 0.0
H995 H 0.52937 0.51672 0.27357 0.0
H996 H 0.56275 0.50308 0.26618 0.0
H997 H 0.54135 0.47714 0.25551 0.0
H998 H 0.48178 0.46556 0.27724 0.0
H999 H 0.48428 0.47185 0.30583 0.0
H1000 H 0.52171 0.46298 0.31131 0.0
H1001 H 0.51897 0.45655 0.2827 0.0
H1002 H 0.45727 0.4405 0.25002 0.0
H1003 H 0.43506 0.42651 0.26581 0.0
H1004 H 0.46067 0.41127 0.29419 0.0
H1005 H 0.48293 0.42514 0.27796 0.0
H1006 H 0.46052 0.43699 0.21686 0.0
H1007 H 0.43761 0.41324 0.20436 0.0
H1008 H 0.45266 0.3857 0.22822 0.0
H1009 H 0.47565 0.40957 0.24046 0.0
H1010 H 0.49056 0.46666 0.20645 0.0
H1011 H 0.48262 0.46015 0.17815 0.0
H1012 H 0.48557 0.41921 0.1807 0.0
H1013 H 0.49418 0.42615 0.20906 0.0
H1014 H 0.51298 0.49162 0.22809 0.0
H1015 H 0.53116 0.51028 0.2107 0.0
H1016 H 0.54891 0.48028 0.2013 0.0
H1017 H 0.5303 0.46146 0.21846 0.0
O1018 O 0.4953 0.47589 0.33462 0.0
O1019 O 0.51454 0.47127 0.33679 0.0
O1020 O 0.41999 0.38376 0.19873 0.0
O1021 O 0.42714 0.36906 0.21081 0.0
C1022 C 0.51031 0.46699 0.25116 0.0
C1023 C 0.49859 0.45663 0.26058 0.0
C1024 C 0.48521 0.44302 0.25338 0.0
C1025 C 0.48389 0.43943 0.23686 0.0
C1026 C 0.49562 0.44982 0.2274 0.0
C1027 C 0.50877 0.46367 0.23457 0.0
C1028 C 0.52328 0.48224 0.25842 0.0
C1029 C 0.52009 0.49353 0.26362 0.0
C1030 C 0.53218 0.50822 0.26967 0.0
C1031 C 0.54772 0.51193 0.2706 0.0
C1032 C 0.55088 0.50049 0.26567 0.0
C1033 C 0.53872 0.48574 0.25955 0.0
C1034 C 0.50009 0.46045 0.27794 0.0
C1035 C 0.49044 0.46488 0.28465 0.0
C1036 C 0.49192 0.46851 0.30098 0.0
C1037 C 0.50317 0.46789 0.31086 0.0
C1038 C 0.51291 0.46355 0.30404 0.0
C1039 C 0.51138 0.45988 0.28772 0.0
C1040 C 0.47163 0.43368 0.26271 0.0
C1041 C 0.45799 0.43388 0.25942 0.0
C1042 C 0.44533 0.4259 0.26846 0.0
C1043 C 0.44611 0.41771 0.28114 0.0
C1044 C 0.45979 0.41751 0.28448 0.0
C1045 C 0.47245 0.42536 0.27523 0.0
C1046 C 0.46983 0.425 0.22942 0.0
C1047 C 0.4589 0.42582 0.21927 0.0
C1048 C 0.4458 0.41224 0.2122 0.0
C1049 C 0.44332 0.39756 0.21525 0.0
C1050 C 0.45423 0.3968 0.22558 0.0
C1051 C 0.46736 0.4104 0.2326 0.0
C1052 C 0.49312 0.44698 0.20982 0.0
C1053 C 0.49009 0.45661 0.20082 0.0
C1054 C 0.48547 0.45284 0.18466 0.0
C1055 C 0.48348 0.43918 0.17726 0.0
C1056 C 0.487 0.42978 0.18615 0.0
C1057 C 0.49194 0.43375 0.20229 0.0
C1058 C 0.52039 0.47524 0.22456 0.0
C1059 C 0.52092 0.48917 0.22239 0.0
C1060 C 0.53137 0.49985 0.21249 0.0
C1061 C 0.54154 0.49682 0.20461 0.0
C1062 C 0.5411 0.48289 0.20702 0.0
C1063 C 0.53057 0.47217 0.21687 0.0
C1064 C 0.50473 0.47177 0.3282 0.0
C1065 C 0.42944 0.38309 0.20774 0.0
H1066 H 0.51306 0.00247 0.36115 0.0
H1067 H 0.40552 0.99469 0.22564 0.0
H1068 H 0.53531 0.0256 0.28247 0.0
H1069 H 0.55508 0.02118 0.29452 0.0
H1070 H 0.53449 0.97754 0.2661 0.0
H1071 H 0.51456 0.98192 0.25438 0.0
H1072 H 0.50589 0.02304 0.2994 0.0
H1073 H 0.5097 0.01862 0.32703 0.0
H1074 H 0.50121 0.97331 0.31195 0.0
H1075 H 0.49723 0.9778 0.28441 0.0
H1076 H 0.47738 0.02393 0.27974 0.0
H1077 H 0.45609 0.01787 0.29648 0.0
H1078 H 0.44631 0.97094 0.29844 0.0
H1079 H 0.467 0.97689 0.28106 0.0
H1080 H 0.48242 0.03185 0.24394 0.0
H1081 H 0.4594 0.03247 0.23468 0.0
H1082 H 0.43042 0.98293 0.23907 0.0
H1083 H 0.45356 0.98245 0.24815 0.0
H1084 H 0.50949 0.03549 0.22614 0.0
H1085 H 0.50351 0.03937 0.19883 0.0
H1086 H 0.46729 0.99068 0.19191 0.0
H1087 H 0.47339 0.98694 0.21908 0.0
H1088 H 0.53762 0.03214 0.24489 0.0
H1089 H 0.55564 0.03533 0.22493 0.0
H1090 H 0.52062 0.99067 0.20162 0.0
H1091 H 0.50293 0.98743 0.22187 0.0
O1092 O 0.51148 0.00396 0.35015 0.0
O1093 O 0.50713 0.98081 0.34177 0.0
O1094 O 0.43024 0.02021 0.22713 0.0
O1095 O 0.41482 0.99477 0.22925 0.0
C1096 C 0.51008 0.0055 0.26229 0.0
C1097 C 0.4991 0.00356 0.27317 0.0
C1098 C 0.48584 0.00408 0.26809 0.0
C1099 C 0.48367 0.00678 0.25219 0.0
C1100 C 0.49463 0.00874 0.24134 0.0
C1101 C 0.50778 0.00801 0.24634 0.0
C1102 C 0.5235 0.00407 0.26757 0.0
C1103 C 0.53526 0.01523 0.27865 0.0
C1104 C 0.54656 0.0127 0.28549 0.0
C1105 C 0.54629 0.99894 0.28136 0.0
C1106 C 0.53489 0.98814 0.2697 0.0
C1107 C 0.52361 0.99069 0.26286 0.0
C1108 C 0.50138 0.00079 0.28992 0.0
C1109 C 0.50483 0.01216 0.30211 0.0
C1110 C 0.50702 0.00961 0.31787 0.0
C1111 C 0.50579 0.99562 0.3217 0.0
C1112 C 0.50227 0.98422 0.30941 0.0
C1113 C 0.50005 0.98678 0.29367 0.0
C1114 C 0.47371 0.00084 0.27917 0.0
C1115 C 0.47061 0.01235 0.28381 0.0
C1116 C 0.45853 0.0089 0.29348 0.0
C1117 C 0.44942 0.99388 0.29876 0.0
C1118 C 0.45288 0.98253 0.29437 0.0
C1119 C 0.46482 0.98595 0.28459 0.0
C1120 C 0.46964 0.00712 0.24674 0.0
C1121 C 0.47109 0.02115 0.24286 0.0
C1122 C 0.45792 0.02146 0.2376 0.0
C1123 C 0.44306 0.00774 0.23615 0.0
C1124 C 0.44168 0.9937 0.24006 0.0
C1125 C 0.45486 0.9934 0.24528 0.0
C1126 C 0.49187 0.01094 0.22453 0.0
C1127 C 0.50039 0.02567 0.21863 0.0
C1128 C 0.4969 0.02787 0.20311 0.0
C1129 C 0.48494 0.01533 0.19324 0.0
C1130 C 0.47669 0.00053 0.19915 0.0
C1131 C 0.4801 0.99837 0.21466 0.0
C1132 C 0.51897 0.0096 0.23476 0.0
C1133 C 0.53394 0.023 0.23555 0.0
C1134 C 0.54416 0.02484 0.22408 0.0
C1135 C 0.53955 0.01327 0.21165 0.0
C1136 C 0.52462 0.99971 0.21113 0.0
C1137 C 0.51444 0.99788 0.2226 0.0
C1138 C 0.50816 0.99296 0.33845 0.0
C1139 C 0.42903 0.00801 0.23057 0.0
H1140 H 0.50333 0.02012 0.70867 0.0
H1141 H 0.5844 0.9788 0.83405 0.0
H1142 H 0.49626 0.0219 0.79529 0.0
H1143 H 0.47602 0.02545 0.78293 0.0
H1144 H 0.4426 0.97614 0.7834 0.0
H1145 H 0.46304 0.9727 0.7958 0.0
H1146 H 0.52117 0.02215 0.77592 0.0
H1147 H 0.51732 0.02583 0.74804 0.0
H1148 H 0.47861 0.97811 0.74121 0.0
H1149 H 0.48272 0.97455 0.76908 0.0
H1150 H 0.54645 0.0209 0.79696 0.0
H1151 H 0.56618 0.02656 0.77836 0.0
H1152 H 0.53541 0.98165 0.75308 0.0
H1153 H 0.51575 0.97597 0.77203 0.0
H1154 H 0.54496 0.01503 0.83233 0.0
H1155 H 0.56787 0.01434 0.84185 0.0
H1156 H 0.54918 0.96998 0.81525 0.0
H1157 H 0.52624 0.97073 0.80597 0.0
H1158 H 0.51539 0.01337 0.84798 0.0
H1159 H 0.52358 0.01354 0.87559 0.0
H1160 H 0.51958 0.96931 0.86528 0.0
H1161 H 0.51027 0.96876 0.83792 0.0
H1162 H 0.49043 0.01546 0.82749 0.0
H1163 H 0.47281 0.01425 0.84687 0.0
H1164 H 0.46015 0.96723 0.85512 0.0
H1165 H 0.47704 0.96826 0.83493 0.0
O1166 O 0.50468 0.0184 0.71964 0.0
O1167 O 0.48481 0.99382 0.71678 0.0
O1168 O 0.58454 0.00217 0.84396 0.0
O1169 O 0.57547 0.97937 0.83046 0.0
C1170 C 0.49391 0.99491 0.80216 0.0
C1171 C 0.50458 0.99587 0.7914 0.0
C1172 C 0.51764 0.99519 0.79681 0.0
C1173 C 0.5199 0.99321 0.81293 0.0
C1174 C 0.5091 0.992 0.82372 0.0
C1175 C 0.49607 0.99285 0.81831 0.0
C1176 C 0.48107 0.99706 0.79646 0.0
C1177 C 0.4845 0.01191 0.79295 0.0
C1178 C 0.47292 0.01392 0.78595 0.0
C1179 C 0.45773 0.00107 0.78218 0.0
C1180 C 0.45424 0.98622 0.78607 0.0
C1181 C 0.46583 0.98425 0.79324 0.0
C1182 C 0.50227 0.99807 0.77446 0.0
C1183 C 0.51193 0.01249 0.76835 0.0
C1184 C 0.50967 0.01456 0.75244 0.0
C1185 C 0.49766 0.00226 0.74239 0.0
C1186 C 0.48798 0.98782 0.74862 0.0
C1187 C 0.49028 0.98576 0.76452 0.0
C1188 C 0.52973 0.99803 0.78585 0.0
C1189 C 0.54404 0.01223 0.7875 0.0
C1190 C 0.55521 0.01549 0.77678 0.0
C1191 C 0.55227 0.0046 0.76417 0.0
C1192 C 0.53801 0.99022 0.76272 0.0
C1193 C 0.52678 0.98698 0.77346 0.0
C1194 C 0.53391 0.99289 0.81854 0.0
C1195 C 0.54581 0.00515 0.82863 0.0
C1196 C 0.55889 0.00474 0.83402 0.0
C1197 C 0.56034 0.99209 0.82933 0.0
C1198 C 0.54843 0.97989 0.81911 0.0
C1199 C 0.53533 0.98029 0.81376 0.0
C1200 C 0.51225 0.99108 0.84089 0.0
C1201 C 0.51587 0.00352 0.85179 0.0
C1202 C 0.5208 0.00369 0.86753 0.0
C1203 C 0.52255 0.99157 0.87267 0.0
C1204 C 0.51828 0.9788 0.86185 0.0
C1205 C 0.51306 0.9785 0.84615 0.0
C1206 C 0.48489 0.99189 0.82966 0.0
C1207 C 0.48356 0.00478 0.83322 0.0
C1208 C 0.47365 0.00413 0.8445 0.0
C1209 C 0.46505 0.99065 0.85265 0.0
C1210 C 0.46635 0.97771 0.84892 0.0
C1211 C 0.4761 0.9783 0.83748 0.0
C1212 C 0.49528 0.00451 0.7255 0.0
C1213 C 0.5742 0.99157 0.83505 0.0
H1214 H 0.95955 0.47078 0.72981 0.0
H1215 H 0.01776 0.60399 0.85594 0.0
H1216 H 0.97326 0.46996 0.8139 0.0
H1217 H 0.96898 0.44549 0.80203 0.0
H1218 H 0.01855 0.46403 0.80779 0.0
H1219 H 0.02282 0.48876 0.81942 0.0
H1220 H 0.96793 0.49206 0.79679 0.0
H1221 H 0.95993 0.48205 0.76901 0.0
H1222 H 0.00686 0.49342 0.76228 0.0
H1223 H 0.01474 0.50356 0.79005 0.0
H1224 H 0.97099 0.51888 0.81908 0.0
H1225 H 0.96197 0.53215 0.80221 0.0
H1226 H 0.00216 0.54771 0.77518 0.0
H1227 H 0.01132 0.53473 0.79251 0.0
H1228 H 0.98318 0.52671 0.85322 0.0
H1229 H 0.98464 0.55049 0.86321 0.0
H1230 H 0.02453 0.57765 0.83644 0.0
H1231 H 0.02307 0.55378 0.82674 0.0
H1232 H 0.98948 0.50438 0.8692 0.0
H1233 H 0.99372 0.51763 0.89548 0.0
H1234 H 0.03802 0.55566 0.88308 0.0
H1235 H 0.0337 0.5423 0.85687 0.0
H1236 H 0.98758 0.47317 0.84854 0.0
H1237 H 0.99515 0.45945 0.86662 0.0
H1238 H 0.04182 0.49986 0.87345 0.0
H1239 H 0.03447 0.5133 0.85468 0.0
O1240 O 0.96298 0.47488 0.74073 0.0
O1241 O 0.98727 0.4809 0.73792 0.0
O1242 O 0.99644 0.57991 0.86578 0.0
O1243 O 0.0169 0.5944 0.85214 0.0
C1244 C 0.00075 0.49646 0.82296 0.0
C1245 C 0.99678 0.50455 0.81232 0.0
C1246 C 0.99738 0.51822 0.81776 0.0
C1247 C 0.00248 0.52414 0.83368 0.0
C1248 C 0.0069 0.51636 0.84425 0.0
C1249 C 0.00602 0.50247 0.83895 0.0
C1250 C 0.99836 0.48119 0.81736 0.0
C1251 C 0.9832 0.46874 0.81264 0.0
C1252 C 0.98078 0.45481 0.80584 0.0
C1253 C 0.99346 0.45295 0.80385 0.0
C1254 C 0.00859 0.46518 0.80923 0.0
C1255 C 0.01104 0.47926 0.81586 0.0
C1256 C 0.99193 0.49863 0.79539 0.0
C1257 C 0.97649 0.49249 0.78926 0.0
C1258 C 0.97194 0.48673 0.7734 0.0
C1259 C 0.98276 0.48694 0.76341 0.0
C1260 C 0.99823 0.49309 0.76964 0.0
C1261 C 0.00277 0.49888 0.78549 0.0
C1262 C 0.99184 0.52593 0.80705 0.0
C1263 C 0.97784 0.52518 0.80952 0.0
C1264 C 0.97264 0.53264 0.79977 0.0
C1265 C 0.98132 0.54096 0.78731 0.0
C1266 C 0.99528 0.54154 0.78477 0.0
C1267 C 0.0005 0.53407 0.79457 0.0
C1268 C 0.00309 0.53856 0.83935 0.0
C1269 C 0.99226 0.53782 0.84958 0.0
C1270 C 0.9931 0.55141 0.85523 0.0
C1271 C 0.00473 0.56599 0.85064 0.0
C1272 C 0.01545 0.56664 0.84023 0.0
C1273 C 0.01463 0.55303 0.83464 0.0
C1274 C 0.01128 0.5224 0.86115 0.0
C1275 C 0.00032 0.51532 0.87236 0.0
C1276 C 0.00268 0.52297 0.88727 0.0
C1277 C 0.01611 0.53776 0.89123 0.0
C1278 C 0.02761 0.54425 0.88039 0.0
C1279 C 0.02518 0.53664 0.86544 0.0
C1280 C 0.01049 0.49421 0.85016 0.0
C1281 C 0.9995 0.479 0.85373 0.0
C1282 C 0.00381 0.47119 0.86404 0.0
C1283 C 0.01906 0.47862 0.8713 0.0
C1284 C 0.02999 0.49392 0.86797 0.0
C1285 C 0.02578 0.50159 0.85733 0.0
C1286 C 0.97787 0.48075 0.74659 0.0
C1287 C 0.00572 0.58048 0.85667 0.0
H1288 H 0.48658 0.5171 0.71924 0.0
H1289 H 0.59389 0.63236 0.86776 0.0
H1290 H 0.4637 0.51988 0.81233 0.0
H1291 H 0.44381 0.49271 0.80349 0.0
H1292 H 0.48022 0.48274 0.7988 0.0
H1293 H 0.4998 0.50959 0.80788 0.0
H1294 H 0.48519 0.53971 0.78337 0.0
H1295 H 0.48207 0.53072 0.75542 0.0
H1296 H 0.521 0.52439 0.76335 0.0
H1297 H 0.52386 0.53322 0.7913 0.0
H1298 H 0.52119 0.57302 0.78612 0.0
H1299 H 0.54248 0.58431 0.7684 0.0
H1300 H 0.56877 0.5713 0.79888 0.0
H1301 H 0.54751 0.55991 0.81623 0.0
H1302 H 0.52776 0.59105 0.82097 0.0
H1303 H 0.55026 0.61631 0.83121 0.0
H1304 H 0.56729 0.59293 0.85984 0.0
H1305 H 0.54487 0.56777 0.84935 0.0
H1306 H 0.50893 0.5772 0.85256 0.0
H1307 H 0.51672 0.58764 0.88035 0.0
H1308 H 0.52348 0.54999 0.89073 0.0
H1309 H 0.51603 0.53985 0.86302 0.0
H1310 H 0.47642 0.54127 0.84964 0.0
H1311 H 0.45893 0.5238 0.86835 0.0
H1312 H 0.47482 0.49227 0.85846 0.0
H1313 H 0.49312 0.51043 0.84097 0.0
O1314 O 0.48803 0.52062 0.73033 0.0
O1315 O 0.50816 0.51765 0.73501 0.0
O1316 O 0.57575 0.63399 0.84838 0.0
O1317 O 0.58492 0.62253 0.86345 0.0
C1318 C 0.49537 0.53286 0.81653 0.0
C1319 C 0.50653 0.54262 0.80628 0.0
C1320 C 0.51952 0.55713 0.8123 0.0
C1321 C 0.52085 0.56232 0.82834 0.0
C1322 C 0.50951 0.55273 0.83859 0.0
C1323 C 0.4969 0.53784 0.83274 0.0
C1324 C 0.48318 0.5167 0.81064 0.0
C1325 C 0.46731 0.51179 0.80934 0.0
C1326 C 0.45601 0.49633 0.80426 0.0
C1327 C 0.46047 0.48559 0.80057 0.0
C1328 C 0.4764 0.49067 0.80179 0.0
C1329 C 0.48762 0.50604 0.80679 0.0
C1330 C 0.50485 0.53728 0.7893 0.0
C1331 C 0.49304 0.5364 0.77903 0.0
C1332 C 0.49129 0.53126 0.76308 0.0
C1333 C 0.50132 0.52688 0.75713 0.0
C1334 C 0.51311 0.52772 0.76752 0.0
C1335 C 0.51482 0.53282 0.78347 0.0
C1336 C 0.53285 0.56569 0.80246 0.0
C1337 C 0.53166 0.57282 0.78902 0.0
C1338 C 0.54379 0.57926 0.77896 0.0
C1339 C 0.55718 0.57851 0.78219 0.0
C1340 C 0.55849 0.57182 0.79596 0.0
C1341 C 0.54644 0.56547 0.80598 0.0
C1342 C 0.53461 0.57761 0.83454 0.0
C1343 C 0.53638 0.59143 0.82944 0.0
C1344 C 0.54923 0.60582 0.83532 0.0
C1345 C 0.56055 0.60664 0.8464 0.0
C1346 C 0.55878 0.59273 0.85138 0.0
C1347 C 0.54595 0.57835 0.84545 0.0
C1348 C 0.51186 0.55773 0.85577 0.0
C1349 C 0.51184 0.57108 0.86092 0.0
C1350 C 0.51633 0.57704 0.87675 0.0
C1351 C 0.52069 0.56961 0.8877 0.0
C1352 C 0.51996 0.55583 0.88264 0.0
C1353 C 0.51568 0.55001 0.8668 0.0
C1354 C 0.48591 0.52704 0.84378 0.0
C1355 C 0.47614 0.53061 0.85162 0.0
C1356 C 0.46603 0.52051 0.86219 0.0
C1357 C 0.46535 0.50651 0.86494 0.0
C1358 C 0.47514 0.503 0.85693 0.0
C1359 C 0.48546 0.51326 0.84667 0.0
C1360 C 0.49943 0.52143 0.74018 0.0
C1361 C 0.57417 0.6219 0.85276 0.0
H1362 H 0.63053 0.82948 0.67956 0.0
H1363 H 0.64864 0.72629 0.56077 0.0
H1364 H 0.61474 0.82579 0.59637 0.0
H1365 H 0.61985 0.8516 0.60506 0.0
H1366 H 0.66407 0.87297 0.58423 0.0
H1367 H 0.65886 0.84728 0.57564 0.0
H1368 H 0.61485 0.79785 0.61603 0.0
H1369 H 0.61719 0.80744 0.64362 0.0
H1370 H 0.66301 0.84687 0.63716 0.0
H1371 H 0.6606 0.83705 0.60966 0.0
H1372 H 0.61718 0.76792 0.59992 0.0
H1373 H 0.62491 0.75399 0.61759 0.0
H1374 H 0.67041 0.7957 0.62749 0.0
H1375 H 0.66283 0.80937 0.60949 0.0
H1376 H 0.6105 0.76383 0.56148 0.0
H1377 H 0.61065 0.74009 0.55519 0.0
H1378 H 0.65924 0.76386 0.57281 0.0
H1379 H 0.659 0.78757 0.57881 0.0
H1380 H 0.60972 0.78829 0.53803 0.0
H1381 H 0.6101 0.77861 0.51118 0.0
H1382 H 0.65741 0.79012 0.5227 0.0
H1383 H 0.65719 0.80062 0.54889 0.0
H1384 H 0.60745 0.8153 0.55682 0.0
H1385 H 0.60528 0.83078 0.53632 0.0
H1386 H 0.65244 0.84677 0.52528 0.0
H1387 H 0.65448 0.83122 0.54567 0.0
O1388 O 0.62989 0.82585 0.66864 0.0
O1389 O 0.65337 0.84594 0.66469 0.0
O1390 O 0.62335 0.7239 0.55395 0.0
O1391 O 0.64828 0.73553 0.56306 0.0
C1392 C 0.63438 0.8192 0.58161 0.0
C1393 C 0.63587 0.81099 0.59404 0.0
C1394 C 0.63601 0.7973 0.59052 0.0
C1395 C 0.63448 0.79173 0.57453 0.0
C1396 C 0.63304 0.79996 0.5621 0.0
C1397 C 0.6327 0.81352 0.56565 0.0
C1398 C 0.63638 0.83467 0.58529 0.0
C1399 C 0.62541 0.83608 0.5935 0.0
C1400 C 0.6284 0.85081 0.59853 0.0
C1401 C 0.64239 0.86435 0.59535 0.0
C1402 C 0.65308 0.86282 0.58666 0.0
C1403 C 0.65012 0.84814 0.58173 0.0
C1404 C 0.6375 0.81681 0.61083 0.0
C1405 C 0.62539 0.80853 0.62062 0.0
C1406 C 0.62675 0.81406 0.63636 0.0
C1407 C 0.64027 0.82796 0.64259 0.0
C1408 C 0.65243 0.83616 0.63274 0.0
C1409 C 0.65107 0.8306 0.61701 0.0
C1410 C 0.63945 0.78966 0.60339 0.0
C1411 C 0.62871 0.77411 0.60614 0.0
C1412 C 0.63314 0.76617 0.61616 0.0
C1413 C 0.64827 0.77378 0.62384 0.0
C1414 C 0.65864 0.78961 0.62185 0.0
C1415 C 0.6543 0.79745 0.61161 0.0
C1416 C 0.6347 0.77737 0.57071 0.0
C1417 C 0.62117 0.76388 0.56394 0.0
C1418 C 0.62129 0.75034 0.56038 0.0
C1419 C 0.63496 0.75007 0.56354 0.0
C1420 C 0.64851 0.76366 0.57026 0.0
C1421 C 0.6484 0.7772 0.57375 0.0
C1422 C 0.63339 0.79506 0.54543 0.0
C1423 C 0.62023 0.78895 0.53458 0.0
C1424 C 0.62043 0.78327 0.51931 0.0
C1425 C 0.63376 0.78347 0.51471 0.0
C1426 C 0.64702 0.78997 0.5256 0.0
C1427 C 0.64687 0.79584 0.5407 0.0
C1428 C 0.63111 0.82216 0.55268 0.0
C1429 C 0.61723 0.82204 0.54984 0.0
C1430 C 0.61599 0.83081 0.53814 0.0
C1431 C 0.62872 0.83999 0.52929 0.0
C1432 C 0.64251 0.83988 0.53203 0.0
C1433 C 0.64367 0.83098 0.54358 0.0
C1434 C 0.64163 0.83384 0.65929 0.0
C1435 C 0.63512 0.73569 0.55987 0.0
H1436 H 0.15671 0.80272 0.68537 0.0
H1437 H 0.09771 0.69058 0.53911 0.0
H1438 H 0.17334 0.82166 0.60199 0.0
H1439 H 0.19156 0.84687 0.61601 0.0
H1440 H 0.22813 0.83664 0.61534 0.0
H1441 H 0.20972 0.81147 0.60074 0.0
H1442 H 0.14757 0.79337 0.61617 0.0
H1443 H 0.14765 0.7978 0.64479 0.0
H1444 H 0.18761 0.79305 0.65236 0.0
H1445 H 0.18727 0.78845 0.62371 0.0
H1446 H 0.12568 0.7675 0.58773 0.0
H1447 H 0.10377 0.75215 0.60346 0.0
H1448 H 0.13225 0.7408 0.63267 0.0
H1449 H 0.15417 0.75589 0.61642 0.0
H1450 H 0.13074 0.76701 0.55552 0.0
H1451 H 0.11021 0.7427 0.54129 0.0
H1452 H 0.13003 0.71827 0.5632 0.0
H1453 H 0.15063 0.74272 0.5772 0.0
H1454 H 0.15788 0.79925 0.54876 0.0
H1455 H 0.15087 0.79496 0.52034 0.0
H1456 H 0.16269 0.75961 0.51768 0.0
H1457 H 0.16968 0.76402 0.54643 0.0
H1458 H 0.1796 0.8241 0.56919 0.0
H1459 H 0.19766 0.84456 0.55315 0.0
H1460 H 0.22139 0.81978 0.54584 0.0
H1461 H 0.20285 0.79912 0.56151 0.0
O1462 O 0.15688 0.80093 0.67409 0.0
O1463 O 0.1775 0.79851 0.67734 0.0
O1464 O 0.09605 0.71349 0.53354 0.0
O1465 O 0.10572 0.70037 0.54457 0.0
C1466 C 0.17883 0.79947 0.59207 0.0
C1467 C 0.16722 0.7877 0.60053 0.0
C1468 C 0.15512 0.77374 0.59235 0.0
C1469 C 0.1549 0.77144 0.57574 0.0
C1470 C 0.16638 0.78337 0.56724 0.0
C1471 C 0.17838 0.79736 0.57545 0.0
C1472 C 0.19023 0.81478 0.60044 0.0
C1473 C 0.18529 0.82488 0.60489 0.0
C1474 C 0.19571 0.83922 0.61302 0.0
C1475 C 0.21129 0.84371 0.61701 0.0
C1476 C 0.21625 0.83357 0.61238 0.0
C1477 C 0.20578 0.8192 0.60411 0.0
C1478 C 0.16733 0.79046 0.61791 0.0
C1479 C 0.15627 0.7932 0.62405 0.0
C1480 C 0.15637 0.79577 0.64039 0.0
C1481 C 0.16761 0.79575 0.65087 0.0
C1482 C 0.17877 0.79311 0.64463 0.0
C1483 C 0.17862 0.7905 0.62828 0.0
C1484 C 0.14148 0.76269 0.60081 0.0
C1485 C 0.12707 0.76129 0.59718 0.0
C1486 C 0.11458 0.75257 0.60622 0.0
C1487 C 0.11632 0.74527 0.61925 0.0
C1488 C 0.13064 0.74635 0.62269 0.0
C1489 C 0.14311 0.7549 0.61342 0.0
C1490 C 0.14228 0.75665 0.56723 0.0
C1491 C 0.1307 0.75642 0.55712 0.0
C1492 C 0.11895 0.74251 0.54906 0.0
C1493 C 0.11851 0.72854 0.55107 0.0
C1494 C 0.13005 0.72881 0.56135 0.0
C1495 C 0.14182 0.74275 0.56937 0.0
C1496 C 0.16445 0.78208 0.54964 0.0
C1497 C 0.15942 0.79091 0.54199 0.0
C1498 C 0.1554 0.78842 0.52571 0.0
C1499 C 0.15625 0.77696 0.51669 0.0
C1500 C 0.1618 0.76844 0.52431 0.0
C1501 C 0.1659 0.77101 0.54068 0.0
C1502 C 0.18996 0.81017 0.56649 0.0
C1503 C 0.1888 0.8232 0.56423 0.0
C1504 C 0.1992 0.83491 0.55513 0.0
C1505 C 0.21101 0.83384 0.54817 0.0
C1506 C 0.2123 0.82088 0.5508 0.0
C1507 C 0.2018 0.80911 0.55982 0.0
C1508 C 0.16768 0.79847 0.66823 0.0
C1509 C 0.10606 0.71372 0.54251 0.0
H1510 H 0.20541 0.37097 0.70194 0.0
H1511 H 0.09056 0.36499 0.57606 0.0
H1512 H 0.22019 0.38471 0.62122 0.0
H1513 H 0.23776 0.37642 0.63102 0.0
H1514 H 0.21017 0.33303 0.60214 0.0
H1515 H 0.19236 0.34114 0.59302 0.0
H1516 H 0.1935 0.38821 0.64005 0.0
H1517 H 0.19964 0.38535 0.66756 0.0
H1518 H 0.18763 0.3384 0.65439 0.0
H1519 H 0.18131 0.34133 0.62699 0.0
H1520 H 0.16128 0.3874 0.6239 0.0
H1521 H 0.13992 0.38013 0.64097 0.0
H1522 H 0.13305 0.33427 0.64267 0.0
H1523 H 0.15331 0.34119 0.62469 0.0
H1524 H 0.16758 0.39641 0.58685 0.0
H1525 H 0.14535 0.39911 0.5797 0.0
H1526 H 0.11379 0.35065 0.58744 0.0
H1527 H 0.13611 0.34808 0.59439 0.0
H1528 H 0.19181 0.39459 0.56396 0.0
H1529 H 0.18345 0.39596 0.5366 0.0
H1530 H 0.14237 0.3501 0.53793 0.0
H1531 H 0.15084 0.34879 0.56504 0.0
H1532 H 0.21891 0.39095 0.58141 0.0
H1533 H 0.23367 0.39047 0.55945 0.0
H1534 H 0.1944 0.34543 0.54179 0.0
H1535 H 0.17986 0.34595 0.56381 0.0
O1536 O 0.20288 0.37184 0.691 0.0
O1537 O 0.19666 0.34779 0.6836 0.0
O1538 O 0.11628 0.38909 0.57498 0.0
O1539 O 0.09955 0.36425 0.57884 0.0
C1540 C 0.19271 0.36715 0.60274 0.0
C1541 C 0.18342 0.36695 0.61483 0.0
C1542 C 0.17033 0.3682 0.61105 0.0
C1543 C 0.16703 0.37052 0.59533 0.0
C1544 C 0.17638 0.37088 0.58328 0.0
C1545 C 0.18914 0.36907 0.58696 0.0
C1546 C 0.205 0.36354 0.60641 0.0
C1547 C 0.21813 0.37354 0.61682 0.0
C1548 C 0.22817 0.36878 0.62237 0.0
C1549 C 0.22527 0.35397 0.61751 0.0
C1550 C 0.21258 0.34438 0.60637 0.0
C1551 C 0.20251 0.34909 0.60094 0.0
C1552 C 0.18712 0.36505 0.6315 0.0
C1553 C 0.1922 0.37732 0.64314 0.0
C1554 C 0.19571 0.37566 0.65884 0.0
C1555 C 0.19418 0.36166 0.66317 0.0
C1556 C 0.18899 0.34935 0.65145 0.0
C1557 C 0.18544 0.35102 0.63578 0.0
C1558 C 0.15886 0.36482 0.62301 0.0
C1559 C 0.15514 0.37581 0.62802 0.0
C1560 C 0.143 0.37166 0.63787 0.0
C1561 C 0.13456 0.35652 0.64304 0.0
C1562 C 0.13894 0.34588 0.63859 0.0
C1563 C 0.15075 0.34991 0.62852 0.0
C1564 C 0.15345 0.37209 0.59126 0.0
C1565 C 0.15585 0.38641 0.58701 0.0
C1566 C 0.14314 0.38791 0.58293 0.0
C1567 C 0.12778 0.37509 0.58303 0.0
C1568 C 0.12545 0.36075 0.58728 0.0
C1569 C 0.13817 0.35926 0.59131 0.0
C1570 C 0.17184 0.37166 0.56653 0.0
C1571 C 0.18106 0.38484 0.55827 0.0
C1572 C 0.17629 0.38559 0.54268 0.0
C1573 C 0.16216 0.37322 0.53522 0.0
C1574 C 0.15315 0.35995 0.54348 0.0
C1575 C 0.15798 0.35915 0.55893 0.0
C1576 C 0.19832 0.36852 0.57412 0.0
C1577 C 0.21358 0.38096 0.57284 0.0
C1578 C 0.22194 0.38069 0.56028 0.0
C1579 C 0.21518 0.36791 0.54891 0.0
C1580 C 0.19998 0.35535 0.55046 0.0
C1581 C 0.19163 0.35567 0.56294 0.0
C1582 C 0.19796 0.35995 0.67984 0.0
C1583 C 0.11424 0.37663 0.5787 0.0
C1584 C 0.99177 0.38479 0.06606 0.0
C1585 C 0.98093 0.38127 0.05306 0.0
C1586 C 0.99156 0.39253 0.07999 0.0
C1587 C 0.96722 0.40358 0.10163 0.0
H1588 H 0.00726 0.43687 0.12103 0.0
C1589 C 0.99507 0.46054 0.14999 0.0
C1590 C 0.98527 0.45396 0.16228 0.0
C1591 C 0.99381 0.45125 0.13667 0.0
C1592 C 0.99597 0.42771 0.11568 0.0
H1593 H 0.96106 0.3827 0.04474 0.0
H1594 H 0.96085 0.39636 0.06886 0.0
H1595 H 0.00631 0.42098 0.0982 0.0
H1596 H 0.96634 0.43254 0.17019 0.0
H1597 H 0.96418 0.41629 0.14698 0.0
H1598 H 0.95688 0.41066 0.11883 0.0
C1599 C 0.9694 0.39298 0.0684 0.0
C1600 C 0.99543 0.41843 0.10273 0.0
C1601 C 0.96958 0.38521 0.05451 0.0
C1602 C 0.9739 0.43797 0.16079 0.0
C1603 C 0.97269 0.42866 0.1475 0.0
C1604 C 0.96775 0.4129 0.11457 0.0
C1605 C 0.98054 0.39695 0.08123 0.0
C1606 C 0.98105 0.4063 0.0955 0.0
C1607 C 0.98279 0.43516 0.13539 0.0
C1608 C 0.98214 0.42514 0.12169 0.0
H1609 H 0.00063 0.38185 0.06538 0.0
H1610 H 0.00014 0.39519 0.08975 0.0
H1611 H 0.95595 0.39424 0.09643 0.0
H1612 H 0.00381 0.47287 0.15074 0.0
H1613 H 0.00155 0.45669 0.12741 0.0
C1614 C 0.61392 0.592 0.10788 0.0
C1615 C 0.61519 0.58457 0.09418 0.0
C1616 C 0.60767 0.5837 0.12118 0.0
C1617 C 0.59831 0.54712 0.13924 0.0
H1618 H 0.56908 0.55325 0.16149 0.0
C1619 C 0.55454 0.50233 0.1791 0.0
C1620 C 0.55212 0.50788 0.19347 0.0
C1621 C 0.56381 0.51267 0.16825 0.0
C1622 C 0.57738 0.55156 0.15553 0.0
H1623 H 0.61087 0.56258 0.08374 0.0
H1624 H 0.59975 0.54814 0.10666 0.0
H1625 H 0.58236 0.56965 0.14017 0.0
H1626 H 0.55804 0.52875 0.20789 0.0
H1627 H 0.574 0.54678 0.18874 0.0
H1628 H 0.59294 0.5287 0.15431 0.0
C1629 C 0.60386 0.56043 0.10733 0.0
C1630 C 0.58502 0.56098 0.14334 0.0
C1631 C 0.61015 0.56871 0.0941 0.0
C1632 C 0.55942 0.52405 0.19682 0.0
C1633 C 0.5686 0.53439 0.18589 0.0
C1634 C 0.5906 0.53765 0.15135 0.0
C1635 C 0.60253 0.5678 0.12103 0.0
C1636 C 0.59539 0.5587 0.13487 0.0
C1637 C 0.5708 0.52879 0.17145 0.0
C1638 C 0.57989 0.53963 0.15947 0.0
H1639 H 0.61776 0.60422 0.10835 0.0
H1640 H 0.60696 0.58976 0.1316 0.0
H1641 H 0.60648 0.54528 0.13321 0.0
H1642 H 0.54889 0.48996 0.176 0.0
H1643 H 0.56512 0.508 0.15711 0.0
C1644 C 0.42199 0.99475 0.06373 0.0
C1645 C 0.41543 0.00343 0.05907 0.0
C1646 C 0.43247 0.99964 0.07715 0.0
C1647 C 0.44266 0.02208 0.11533 0.0
H1648 H 0.47707 0.01523 0.11712 0.0
C1649 C 0.47763 0.00678 0.16434 0.0
C1650 C 0.48066 0.01762 0.177 0.0
C1651 C 0.47236 0.00816 0.14929 0.0
C1652 C 0.4675 0.0172 0.11682 0.0
H1653 H 0.4151 0.02435 0.06464 0.0
H1654 H 0.43347 0.03291 0.08828 0.0
H1655 H 0.46306 0.01235 0.09165 0.0
H1656 H 0.48087 0.03862 0.18375 0.0
H1657 H 0.47168 0.04107 0.15737 0.0
H1658 H 0.44678 0.02644 0.14058 0.0
C1659 C 0.43039 0.02226 0.0815 0.0
C1660 C 0.45949 0.01557 0.10223 0.0
C1661 C 0.41994 0.0174 0.06793 0.0
C1662 C 0.47872 0.03014 0.17419 0.0
C1663 C 0.47334 0.03147 0.15913 0.0
C1664 C 0.45069 0.02373 0.12994 0.0
C1665 C 0.43665 0.01333 0.08632 0.0
C1666 C 0.44668 0.01753 0.10138 0.0
C1667 C 0.46992 0.02038 0.14656 0.0
C1668 C 0.46291 0.02086 0.13089 0.0
H1669 H 0.41883 0.98396 0.05716 0.0
H1670 H 0.43687 0.99236 0.08064 0.0
H1671 H 0.43276 0.02354 0.1151 0.0
H1672 H 0.47914 0.99708 0.16611 0.0
H1673 H 0.46966 0.99931 0.13993 0.0
C1674 C 0.40421 -2e-05 0.97047 0.0
C1675 C 0.39384 0.98565 0.97644 0.0
C1676 C 0.41034 0.00044 0.9559 0.0
C1677 C 0.41693 0.97549 0.92816 0.0
H1678 H 0.42847 0.00904 0.90065 0.0
C1679 C 0.44109 0.97648 0.86767 0.0
C1680 C 0.45521 0.99026 0.86537 0.0
C1681 C 0.43236 0.97587 0.88022 0.0
C1682 C 0.4253 0.99962 0.90826 0.0
H1683 H 0.38102 0.96061 0.97145 0.0
H1684 H 0.39112 0.9614 0.94581 0.0
H1685 H 0.41496 0.00787 0.92419 0.0
H1686 H 0.47104 0.01429 0.87447 0.0
H1687 H 0.45554 0.01328 0.89606 0.0
H1688 H 0.42713 0.96717 0.91209 0.0
C1689 C 0.39506 0.9723 0.95258 0.0
C1690 C 0.41764 0.99897 0.92178 0.0
C1691 C 0.38916 0.97183 0.96725 0.0
C1692 C 0.46011 0.00354 0.87567 0.0
C1693 C 0.45127 0.00298 0.88809 0.0
C1694 C 0.42438 0.97602 0.91455 0.0
C1695 C 0.40603 0.98659 0.94688 0.0
C1696 C 0.41347 0.98696 0.932 0.0
C1697 C 0.43744 0.98908 0.89062 0.0
C1698 C 0.42876 0.98816 0.90454 0.0
H1699 H 0.40808 0.01082 0.97734 0.0
H1700 H 0.41888 0.01167 0.95203 0.0
H1701 H 0.41428 0.96627 0.93589 0.0
H1702 H 0.43677 0.96611 0.8598 0.0
H1703 H 0.42164 0.96505 0.88183 0.0
C1704 C 0.0207 0.3931 0.96794 0.0
C1705 C 0.01636 0.39777 0.98154 0.0
C1706 C 0.02628 0.4029 0.95552 0.0
C1707 C 0.04105 0.44263 0.94342 0.0
H1708 H 0.01168 0.42211 0.90645 0.0
C1709 C 0.02898 0.47692 0.89829 0.0
C1710 C 0.02337 0.4705 0.88267 0.0
C1711 C 0.03175 0.46863 0.90945 0.0
C1712 C 0.02032 0.42805 0.91641 0.0
H1713 H 0.01528 0.41643 0.99345 0.0
H1714 H 0.02559 0.43381 0.97205 0.0
H1715 H 0.01164 0.40689 0.92792 0.0
H1716 H 0.01706 0.4509 0.86612 0.0
H1717 H 0.02262 0.43668 0.88532 0.0
H1718 H 0.04974 0.46382 0.93201 0.0
C1719 C 0.02468 0.42265 0.97089 0.0
C1720 C 0.02025 0.41926 0.92876 0.0
C1721 C 0.01879 0.41274 0.98312 0.0
C1722 C 0.02122 0.45597 0.87818 0.0
C1723 C 0.02432 0.44782 0.88924 0.0
C1724 C 0.04135 0.45141 0.9309 0.0
C1725 C 0.02784 0.41757 0.95671 0.0
C1726 C 0.03027 0.42652 0.94257 0.0
C1727 C 0.02926 0.45384 0.90515 0.0
C1728 C 0.03063 0.44431 0.91744 0.0
H1729 H 0.01865 0.38147 0.96642 0.0
H1730 H 0.02861 0.39873 0.94467 0.0
H1731 H 0.04893 0.44847 0.95394 0.0
H1732 H 0.03062 0.48808 0.90202 0.0
H1733 H 0.03524 0.4736 0.92158 0.0
C1734 C 0.60276 0.59866 0.00281 0.0
C1735 C 0.60318 0.60609 0.01735 0.0
C1736 C 0.59335 0.5978 0.98972 0.0
C1737 C 0.55762 0.59565 0.97769 0.0
H1738 H 0.5754 0.60607 0.93712 0.0
C1739 C 0.52325 0.56769 0.91702 0.0
C1740 C 0.52737 0.57685 0.90397 0.0
C1741 C 0.53128 0.57404 0.93193 0.0
C1742 C 0.57026 0.60335 0.94837 0.0
H1743 H 0.59395 0.61839 0.02959 0.0
H1744 H 0.57699 0.61645 0.00657 0.0
H1745 H 0.59247 0.61232 0.96122 0.0
H1746 H 0.54263 0.60001 0.89644 0.0
H1747 H 0.55665 0.6111 0.9225 0.0
H1748 H 0.53529 0.58599 0.96468 0.0
C1749 C 0.58417 0.61148 0.00542 0.0
C1750 C 0.58003 0.60684 0.96214 0.0
C1751 C 0.59388 0.61261 0.01853 0.0
C1752 C 0.53911 0.59269 0.9063 0.0
C1753 C 0.54722 0.59901 0.92118 0.0
C1754 C 0.54778 0.59197 0.96384 0.0
C1755 C 0.58395 0.60415 0.99088 0.0
C1756 C 0.57378 0.60268 0.97686 0.0
C1757 C 0.54368 0.58964 0.93404 0.0
C1758 C 0.55399 0.59548 0.949 0.0
H1759 H 0.60983 0.59358 0.00147 0.0
H1760 H 0.59325 0.59194 0.97869 0.0
H1761 H 0.55253 0.59227 0.98891 0.0
H1762 H 0.51416 0.55548 0.91558 0.0
H1763 H 0.52836 0.56649 0.94158 0.0
C1764 C 0.01119 0.61597 0.00194 0.0
C1765 C 0.02362 0.62228 0.0138 0.0
C1766 C 0.01129 0.60772 0.98836 0.0
C1767 C 0.02934 0.58621 0.9738 0.0
H1768 H 0.0109 0.58739 0.933 0.0
C1769 C 0.03145 0.55543 0.91551 0.0
C1770 C 0.01739 0.54705 0.90584 0.0
C1771 C 0.0328 0.56495 0.9287 0.0
C1772 C 0.016 0.58687 0.94435 0.0
H1773 H 0.04621 0.62544 0.02036 0.0
H1774 H 0.04658 0.61146 0.9965 0.0
H1775 H 0.01266 0.6041 0.95556 0.0
H1776 H 0.99377 0.54217 0.90229 0.0
H1777 H 0.9961 0.55871 0.92532 0.0
H1778 H 0.03278 0.56905 0.96246 0.0
C1779 C 0.03654 0.61249 0.99787 0.0
C1780 C 0.01698 0.59643 0.9573 0.0
C1781 C 0.03639 0.62062 0.01151 0.0
C1782 C 0.00469 0.54831 0.90966 0.0
C1783 C 0.00608 0.55793 0.92272 0.0
C1784 C 0.02847 0.57676 0.96081 0.0
C1785 C 0.02388 0.60571 0.98624 0.0
C1786 C 0.02353 0.59612 0.97224 0.0
C1787 C 0.02017 0.56642 0.93233 0.0
C1788 C 0.02165 0.57687 0.94599 0.0
H1789 H 0.00113 0.61696 0.00335 0.0
H1790 H 0.00123 0.60251 0.97978 0.0
H1791 H 0.03421 0.58544 0.98517 0.0
H1792 H 0.04142 0.55467 0.91283 0.0
H1793 H 0.04382 0.57142 0.93586 0.0
C1794 C 0.39181 0.41425 0.96213 0.0
C1795 C 0.38115 0.41667 0.96977 0.0
C1796 C 0.39947 0.42307 0.94959 0.0
C1797 C 0.40941 0.46008 0.932 0.0
H1798 H 0.42373 0.44416 0.89892 0.0
C1799 C 0.43992 0.4938 0.87784 0.0
C1800 C 0.45461 0.49566 0.87619 0.0
C1801 C 0.42993 0.48365 0.88845 0.0
C1802 C 0.41977 0.44871 0.9081 0.0
H1803 H 0.36948 0.42955 0.96977 0.0
H1804 H 0.38218 0.44435 0.9474 0.0
H1805 H 0.40737 0.42683 0.9183 0.0
H1806 H 0.47028 0.48836 0.88478 0.0
H1807 H 0.45252 0.47018 0.90268 0.0
H1808 H 0.42158 0.48188 0.92142 0.0
C1809 C 0.38519 0.43615 0.95145 0.0
C1810 C 0.41049 0.43884 0.91928 0.0
C1811 C 0.37779 0.42757 0.9642 0.0
C1812 C 0.45895 0.487 0.88537 0.0
C1813 C 0.44884 0.47664 0.89572 0.0
C1814 C 0.41842 0.46984 0.92062 0.0
C1815 C 0.39641 0.43428 0.94419 0.0
C1816 C 0.40537 0.44445 0.93156 0.0
C1817 C 0.43428 0.47492 0.89738 0.0
C1818 C 0.42386 0.46429 0.90873 0.0
H1819 H 0.39471 0.406 0.96625 0.0
H1820 H 0.40819 0.42142 0.94454 0.0
H1821 H 0.40603 0.46498 0.94141 0.0
H1822 H 0.436 0.50002 0.8708 0.0
H1823 H 0.4187 0.48243 0.88951 0.0
C1824 C 0.59109 0.99806 0.00049 0.0
C1825 C 0.60177 0.01374 0.00567 0.0
C1826 C 0.58078 0.99417 0.98696 0.0
C1827 C 0.56384 0.0112 0.96063 0.0
H1828 H 0.55597 0.97793 0.92995 0.0
C1829 C 0.54183 0.00728 0.89586 0.0
C1830 C 0.5297 0.99276 0.88892 0.0
C1831 C 0.54892 0.00853 0.91087 0.0
C1832 C 0.5579 0.98711 0.93853 0.0
H1833 H 0.61015 0.0376 0.0005 0.0
H1834 H 0.59259 0.03088 0.97692 0.0
H1835 H 0.57169 0.98251 0.95481 0.0
H1836 H 0.51552 0.96814 0.89256 0.0
H1837 H 0.52831 0.97033 0.91869 0.0
H1838 H 0.55055 0.01616 0.9441 0.0
C1839 C 0.59181 0.02153 0.98346 0.0
C1840 C 0.56687 0.98973 0.95278 0.0
C1841 C 0.602 0.0254 0.99696 0.0
C1842 C 0.52493 0.97949 0.89742 0.0
C1843 C 0.5322 0.98072 0.9124 0.0
C1844 C 0.55502 0.00868 0.94637 0.0
C1845 C 0.58099 0.00589 0.97832 0.0
C1846 C 0.57022 0.00202 0.96386 0.0
C1847 C 0.54423 0.99528 0.91928 0.0
C1848 C 0.55221 0.99681 0.93504 0.0
H1849 H 0.59059 0.98879 0.00694 0.0
H1850 H 0.57254 0.982 0.9834 0.0
H1851 H 0.56582 0.0205 0.96906 0.0
H1852 H 0.54616 0.01771 0.88957 0.0
H1853 H 0.55837 0.01986 0.91576 0.0
C1854 C 0.61637 0.04022 0.09621 0.0
C1855 C 0.61588 0.02712 0.08921 0.0
C1856 C 0.60943 0.03931 0.11031 0.0
C1857 C 0.59443 0.0158 0.14486 0.0
H1858 H 0.56967 0.03482 0.14714 0.0
C1859 C 0.55111 0.00312 0.19268 0.0
C1860 C 0.55 0.01555 0.19891 0.0
C1861 C 0.56024 0.00505 0.18007 0.0
C1862 C 0.57672 0.02964 0.14681 0.0
H1863 H 0.608 0.00288 0.09179 0.0
H1864 H 0.59576 0.00127 0.11633 0.0
H1865 H 0.58368 0.03726 0.1238 0.0
H1866 H 0.55777 0.03983 0.19688 0.0
H1867 H 0.57393 0.04328 0.17511 0.0
H1868 H 0.58731 0.00806 0.16785 0.0
C1869 C 0.60165 0.01228 0.11097 0.0
C1870 C 0.58475 0.03103 0.13341 0.0
C1871 C 0.6086 0.01319 0.09685 0.0
C1872 C 0.55848 0.03005 0.19246 0.0
C1873 C 0.5676 0.03198 0.17985 0.0
C1874 C 0.58639 0.01441 0.15828 0.0
C1875 C 0.60183 0.02528 0.11776 0.0
C1876 C 0.59367 0.0241 0.13225 0.0
C1877 C 0.56844 0.01946 0.17339 0.0
C1878 C 0.5774 0.02128 0.15938 0.0
H1879 H 0.62196 0.05116 0.0907 0.0
H1880 H 0.60999 0.0496 0.11537 0.0
H1881 H 0.60135 0.01049 0.14441 0.0
H1882 H 0.54485 0.99184 0.19751 0.0
H1883 H 0.56053 0.99513 0.1753 0.0
C1884 C 0.98023 0.59248 0.08004 0.0
C1885 C 0.98969 0.60813 0.08577 0.0
C1886 C 0.97424 0.58077 0.09064 0.0
C1887 C 0.96734 0.57206 0.13236 0.0
H1888 H 0.98437 0.54601 0.12499 0.0
C1889 C 0.97836 0.54125 0.18263 0.0
C1890 C 0.97855 0.52774 0.17891 0.0
C1891 C 0.97607 0.54912 0.17059 0.0
C1892 C 0.97911 0.5528 0.12715 0.0
H1893 H 0.99965 0.62405 0.10678 0.0
H1894 H 0.98871 0.60365 0.12536 0.0
H1895 H 0.98533 0.56286 0.10489 0.0
H1896 H 0.97572 0.51129 0.15999 0.0
H1897 H 0.97087 0.52444 0.13897 0.0
H1898 H 0.96107 0.56204 0.15462 0.0
C1899 C 0.98591 0.60037 0.11275 0.0
C1900 C 0.97972 0.56252 0.11557 0.0
C1901 C 0.99215 0.61203 0.10216 0.0
C1902 C 0.97576 0.52181 0.16307 0.0
C1903 C 0.97312 0.52944 0.15105 0.0
C1904 C 0.96643 0.56208 0.14385 0.0
C1905 C 0.97746 0.58462 0.10709 0.0
C1906 C 0.9742 0.57252 0.11822 0.0
C1907 C 0.97362 0.54344 0.15457 0.0
C1908 C 0.97271 0.55262 0.1416 0.0
H1909 H 0.97845 0.58926 0.06741 0.0
H1910 H 0.96777 0.56871 0.086 0.0
H1911 H 0.96297 0.57965 0.13465 0.0
H1912 H 0.98058 0.54606 0.19481 0.0
H1913 H 0.97684 0.55996 0.17385 0.0
C1914 C 0.40492 0.39688 0.04869 0.0
C1915 C 0.39593 0.40381 0.04814 0.0
C1916 C 0.41587 0.40054 0.06151 0.0
C1917 C 0.43826 0.4303 0.09508 0.0
H1918 H 0.44319 0.39805 0.11237 0.0
C1919 C 0.48169 0.44476 0.14893 0.0
C1920 C 0.47638 0.43417 0.16074 0.0
C1921 C 0.47364 0.44066 0.13391 0.0
C1922 C 0.44191 0.40719 0.10773 0.0
H1923 H 0.39124 0.41979 0.06079 0.0
H1924 H 0.40995 0.42582 0.08324 0.0
H1925 H 0.42517 0.39171 0.08905 0.0
H1926 H 0.45877 0.41086 0.16605 0.0
H1927 H 0.44447 0.40379 0.14001 0.0
H1928 H 0.45431 0.4456 0.11416 0.0
C1929 C 0.40889 0.41789 0.0736 0.0
C1930 C 0.43171 0.40359 0.09422 0.0
C1931 C 0.39805 0.41434 0.06075 0.0
C1932 C 0.46323 0.41918 0.15708 0.0
C1933 C 0.45505 0.41514 0.14212 0.0
C1934 C 0.44833 0.43386 0.10863 0.0
C1935 C 0.41801 0.41112 0.07412 0.0
C1936 C 0.42959 0.41506 0.08787 0.0
C1937 C 0.45995 0.42595 0.13046 0.0
C1938 C 0.45017 0.42232 0.11526 0.0
H1939 H 0.40361 0.38876 0.03913 0.0
H1940 H 0.4228 0.39523 0.06143 0.0
H1941 H 0.43715 0.43951 0.09036 0.0
H1942 H 0.4919 0.45634 0.15143 0.0
H1943 H 0.47797 0.44916 0.12513 0.0
C1944 C 0.62641 0.71176 0.39053 0.0
C1945 C 0.64101 0.71484 0.38639 0.0
C1946 C 0.62517 0.71876 0.40446 0.0
C1947 C 0.64758 0.74101 0.44259 0.0
H1948 H 0.61629 0.75229 0.44272 0.0
C1949 C 0.64755 0.78263 0.49107 0.0
C1950 C 0.63377 0.77637 0.49894 0.0
C1951 C 0.64802 0.77513 0.47712 0.0
C1952 C 0.62503 0.74913 0.44283 0.0
H1953 H 0.66578 0.72769 0.39354 0.0
H1954 H 0.66379 0.74045 0.41743 0.0
H1955 H 0.61815 0.73914 0.41895 0.0
H1956 H 0.60951 0.75745 0.49783 0.0
H1957 H 0.61024 0.74479 0.47304 0.0
H1958 H 0.65479 0.75166 0.46633 0.0
C1959 C 0.65316 0.73223 0.41028 0.0
C1960 C 0.62605 0.74149 0.42927 0.0
C1961 C 0.65435 0.72498 0.3965 0.0
C1962 C 0.62027 0.76277 0.49205 0.0
C1963 C 0.62069 0.75543 0.47791 0.0
C1964 C 0.64674 0.74893 0.45601 0.0
C1965 C 0.63856 0.72927 0.41444 0.0
C1966 C 0.63734 0.73729 0.42896 0.0
C1967 C 0.63465 0.76139 0.47052 0.0
C1968 C 0.63546 0.75303 0.45625 0.0
H1969 H 0.6159 0.70388 0.38301 0.0
H1970 H 0.61368 0.71586 0.40739 0.0
H1971 H 0.65619 0.7377 0.44301 0.0
H1972 H 0.65807 0.79328 0.49574 0.0
H1973 H 0.65886 0.78004 0.47148 0.0
C1974 C 0.27432 0.92737 0.44774 0.0
C1975 C 0.27488 0.91879 0.4346 0.0
C1976 C 0.27035 0.92079 0.46235 0.0
C1977 C 0.26696 0.88831 0.48458 0.0
H1978 H 0.23465 0.89034 0.50539 0.0
C1979 C 0.22564 0.84137 0.52372 0.0
C1980 C 0.22142 0.84581 0.53761 0.0
C1981 C 0.23469 0.8524 0.51331 0.0
C1982 C 0.24388 0.88989 0.49989 0.0
H1983 H 0.27211 0.89675 0.42665 0.0
H1984 H 0.26516 0.88538 0.45184 0.0
H1985 H 0.24627 0.90627 0.48322 0.0
H1986 H 0.22388 0.86551 0.55162 0.0
H1987 H 0.23946 0.88475 0.53316 0.0
H1988 H 0.26412 0.87147 0.50081 0.0
C1989 C 0.26792 0.89721 0.45101 0.0
C1990 C 0.25056 0.89903 0.48721 0.0
C1991 C 0.27177 0.9037 0.43648 0.0
C1992 C 0.2267 0.86164 0.54091 0.0
C1993 C 0.23566 0.87267 0.53039 0.0
C1994 C 0.26025 0.87915 0.49718 0.0
C1995 C 0.26704 0.9056 0.46409 0.0
C1996 C 0.26182 0.89797 0.47911 0.0
C1997 C 0.23967 0.86814 0.51643 0.0
C1998 C 0.24833 0.8795 0.50467 0.0
H1999 H 0.27667 0.93903 0.44667 0.0
H2000 H 0.26984 0.92756 0.47224 0.0
H2001 H 0.27585 0.88749 0.4788 0.0
H2002 H 0.22154 0.82927 0.5206 0.0
H2003 H 0.23735 0.8485 0.5025 0.0
C2004 C 0.09838 0.33396 0.40501 0.0
C2005 C 0.09278 0.3422 0.39696 0.0
C2006 C 0.10863 0.34072 0.41862 0.0
C2007 C 0.11951 0.36994 0.45151 0.0
H2008 H 0.15186 0.36105 0.46152 0.0
C2009 C 0.14091 0.36904 0.51529 0.0
C2010 C 0.15665 0.37399 0.5189 0.0
C2011 C 0.13529 0.36852 0.49974 0.0
C2012 C 0.14306 0.36388 0.45885 0.0
H2013 H 0.09399 0.36424 0.39667 0.0
H2014 H 0.11195 0.37607 0.42055 0.0
H2015 H 0.13866 0.35409 0.43491 0.0
H2016 H 0.17897 0.38279 0.50913 0.0
H2017 H 0.16913 0.38195 0.48185 0.0
H2018 H 0.12373 0.37948 0.47553 0.0
C2019 C 0.10828 0.36432 0.41632 0.0
C2020 C 0.13538 0.35974 0.44364 0.0
C2021 C 0.09805 0.35756 0.40261 0.0
C2022 C 0.16679 0.37896 0.5067 0.0
C2023 C 0.16113 0.37837 0.49108 0.0
C2024 C 0.12718 0.37405 0.46673 0.0
C2025 C 0.11354 0.35589 0.42458 0.0
C2026 C 0.12323 0.36233 0.43993 0.0
C2027 C 0.14526 0.37292 0.4874 0.0
C2028 C 0.13875 0.37069 0.47069 0.0
H2029 H 0.09461 0.32212 0.40098 0.0
H2030 H 0.11227 0.33382 0.4248 0.0
H2031 H 0.11016 0.37204 0.44907 0.0
H2032 H 0.13287 0.36533 0.52448 0.0
H2033 H 0.12297 0.36411 0.49732 0.0
C2034 C 0.08104 0.32777 0.30751 0.0
C2035 C 0.07098 0.3144 0.31513 0.0
C2036 C 0.08594 0.32646 0.29269 0.0
C2037 C 0.0883 0.29779 0.26574 0.0
H2038 H 0.09828 0.3289 0.23547 0.0
C2039 C 0.10206 0.29109 0.20163 0.0
C2040 C 0.11695 0.30301 0.19797 0.0
C2041 C 0.09562 0.2927 0.21524 0.0
C2042 C 0.09551 0.32016 0.24386 0.0
H2043 H 0.05761 0.28919 0.31296 0.0
H2044 H 0.06542 0.28684 0.28684 0.0
H2045 H 0.08812 0.33098 0.26041 0.0
H2046 H 0.13646 0.32619 0.20577 0.0
H2047 H 0.12479 0.32918 0.2291 0.0
H2048 H 0.09527 0.28677 0.24883 0.0
C2049 C 0.07014 0.29839 0.29249 0.0
C2050 C 0.08981 0.32137 0.25821 0.0
C2051 C 0.06554 0.29971 0.30745 0.0
C2052 C 0.12488 0.31685 0.20797 0.0
C2053 C 0.11827 0.31857 0.22141 0.0
C2054 C 0.09367 0.29642 0.25128 0.0
C2055 C 0.08061 0.31174 0.28499 0.0
C2056 C 0.08623 0.31026 0.26943 0.0
C2057 C 0.10373 0.30639 0.2253 0.0
C2058 C 0.09743 0.30763 0.24027 0.0
H2059 H 0.08548 0.33926 0.31321 0.0
H2060 H 0.0942 0.33703 0.28749 0.0
H2061 H 0.08608 0.2892 0.27415 0.0
H2062 H 0.0954 0.28043 0.19406 0.0
H2063 H 0.0843 0.28322 0.21796 0.0
C2064 C 0.66354 0.72582 0.29626 0.0
C2065 C 0.67157 0.72837 0.31116 0.0
C2066 C 0.66983 0.73683 0.2851 0.0
C2067 C 0.70505 0.77284 0.27434 0.0
H2068 H 0.67364 0.77899 0.25388 0.0
C2069 C 0.71545 0.81103 0.22093 0.0
C2070 C 0.70721 0.81869 0.21994 0.0
C2071 C 0.71306 0.80113 0.23306 0.0
C2072 C 0.68265 0.77763 0.25961 0.0
H2073 H 0.6929 0.74401 0.32579 0.0
H2074 H 0.70382 0.76372 0.30631 0.0
H2075 H 0.66614 0.75943 0.27274 0.0
H2076 H 0.69105 0.82309 0.23137 0.0
H2077 H 0.68722 0.80629 0.25273 0.0
H2078 H 0.72163 0.79148 0.26131 0.0
C2079 C 0.69272 0.75303 0.30322 0.0
C2080 C 0.67829 0.76617 0.27026 0.0
C2081 C 0.68648 0.7418 0.31438 0.0
C2082 C 0.69728 0.81704 0.23172 0.0
C2083 C 0.69506 0.80737 0.2439 0.0
C2084 C 0.70947 0.78444 0.26364 0.0
C2085 C 0.68418 0.75086 0.28866 0.0
C2086 C 0.68935 0.76348 0.27764 0.0
C2087 C 0.70252 0.79889 0.24446 0.0
C2088 C 0.69828 0.78694 0.25614 0.0
H2089 H 0.65215 0.71542 0.29335 0.0
H2090 H 0.66317 0.73453 0.27382 0.0
H2091 H 0.71386 0.77104 0.27983 0.0
H2092 H 0.72319 0.81217 0.21197 0.0
H2093 H 0.71894 0.79474 0.23309 0.0
C2094 C 0.25531 0.9488 0.35103 0.0
C2095 C 0.2503 0.9365 0.3609 0.0
C2096 C 0.24574 0.94747 0.33773 0.0
C2097 C 0.21287 0.91608 0.31115 0.0
H2098 H 0.21732 0.95094 0.28916 0.0
C2099 C 0.18119 0.90745 0.24972 0.0
C2100 C 0.1916 0.91542 0.23826 0.0
C2101 C 0.18612 0.91129 0.26586 0.0
C2102 C 0.2159 0.94111 0.29526 0.0
H2103 H 0.23098 0.91389 0.36569 0.0
H2104 H 0.21383 0.91199 0.34329 0.0
H2105 H 0.22936 0.95541 0.31617 0.0
H2106 H 0.21495 0.93416 0.23454 0.0
H2107 H 0.2235 0.94108 0.26281 0.0
H2108 H 0.19937 0.90183 0.29024 0.0
C2109 C 0.2254 0.92232 0.34514 0.0
C2110 C 0.22288 0.94365 0.31069 0.0
C2111 C 0.23513 0.92346 0.35811 0.0
C2112 C 0.20675 0.92781 0.24319 0.0
C2113 C 0.21159 0.93183 0.25932 0.0
C2114 C 0.20566 0.91353 0.29591 0.0
C2115 C 0.23084 0.93394 0.33428 0.0
C2116 C 0.22178 0.9312 0.31873 0.0
C2117 C 0.20145 0.92335 0.27079 0.0
C2118 C 0.20739 0.92604 0.28768 0.0
H2119 H 0.26703 0.95892 0.35289 0.0
H2120 H 0.25049 0.95665 0.32969 0.0
H2121 H 0.21199 0.90619 0.31663 0.0
H2122 H 0.16948 0.8978 0.24619 0.0
H2123 H 0.17809 0.90459 0.2745 0.0
C2124 C 0.7085 0.94368 0.3529 0.0
C2125 C 0.69591 0.94598 0.35277 0.0
C2126 C 0.71138 0.93769 0.33928 0.0
C2127 C 0.70348 0.93221 0.29577 0.0
H2128 H 0.71561 0.90181 0.29973 0.0
C2129 C 0.70919 0.88568 0.25294 0.0
C2130 C 0.71654 0.895 0.24048 0.0
C2131 C 0.70767 0.89225 0.26701 0.0
C2132 C 0.71217 0.91024 0.29841 0.0
H2133 H 0.67647 0.94379 0.33818 0.0
H2134 H 0.68141 0.93314 0.3144 0.0
H2135 H 0.71019 0.91219 0.3233 0.0
H2136 H 0.72839 0.91859 0.23316 0.0
H2137 H 0.72608 0.93011 0.25788 0.0
H2138 H 0.70507 0.92996 0.27083 0.0
C2139 C 0.68917 0.93617 0.32502 0.0
C2140 C 0.70921 0.9163 0.31194 0.0
C2141 C 0.68628 0.94219 0.33867 0.0
C2142 C 0.72282 0.91112 0.24261 0.0
C2143 C 0.72129 0.91768 0.25668 0.0
C2144 C 0.70644 0.92614 0.28224 0.0
C2145 C 0.70173 0.93382 0.32519 0.0
C2146 C 0.70481 0.92735 0.31078 0.0
C2147 C 0.71346 0.90829 0.26893 0.0
C2148 C 0.71079 0.91507 0.2834 0.0
H2149 H 0.71621 0.94654 0.36352 0.0
H2150 H 0.7213 0.93626 0.33975 0.0
H2151 H 0.70028 0.94082 0.29449 0.0
H2152 H 0.70435 0.87325 0.25169 0.0
H2153 H 0.70148 0.88467 0.27617 0.0
C2154 C 0.05285 0.77055 0.30634 0.0
C2155 C 0.05298 0.75701 0.30918 0.0
C2156 C 0.05995 0.77907 0.29347 0.0
C2157 C 0.07 0.79123 0.26114 0.0
H2158 H 0.11156 0.79974 0.25534 0.0
C2159 C 0.10622 0.82645 0.21047 0.0
C2160 C 0.12204 0.83763 0.21471 0.0
C2161 C 0.09706 0.81584 0.2212 0.0
C2162 C 0.09998 0.7975 0.25684 0.0
H2163 H 0.0602 0.74151 0.30038 0.0
H2164 H 0.07263 0.75645 0.27787 0.0
H2165 H 0.09635 0.78217 0.27511 0.0
H2166 H 0.14053 0.84663 0.23371 0.0
H2167 H 0.12457 0.82803 0.25237 0.0
H2168 H 0.07381 0.80687 0.24311 0.0
C2169 C 0.06713 0.76051 0.28572 0.0
C2170 C 0.0912 0.78729 0.26803 0.0
C2171 C 0.05993 0.75191 0.29855 0.0
C2172 C 0.12845 0.838 0.22997 0.0
C2173 C 0.11932 0.82735 0.24066 0.0
C2174 C 0.07876 0.80138 0.24988 0.0
C2175 C 0.06741 0.7743 0.28318 0.0
C2176 C 0.07619 0.78419 0.27043 0.0
C2177 C 0.10354 0.81612 0.23637 0.0
C2178 C 0.09392 0.80477 0.24776 0.0
H2179 H 0.04756 0.77479 0.31426 0.0
H2180 H 0.06009 0.78973 0.29191 0.0
H2181 H 0.05842 0.78897 0.26265 0.0
H2182 H 0.10097 0.82569 0.19872 0.0
H2183 H 0.08497 0.80721 0.21751 0.0
C2184 C 0.24278 0.30993 0.33177 0.0
C2185 C 0.24484 0.32399 0.33815 0.0
C2186 C 0.23249 0.30199 0.3183 0.0
C2187 C 0.19992 0.2991 0.29291 0.0
H2188 H 0.21896 0.2908 0.25835 0.0
C2189 C 0.17002 0.27909 0.2289 0.0
C2190 C 0.17963 0.28849 0.21751 0.0
C2191 C 0.17635 0.28 0.2443 0.0
C2192 C 0.21343 0.29292 0.26793 0.0
H2193 H 0.23708 0.34024 0.33599 0.0
H2194 H 0.21913 0.32636 0.31266 0.0
H2195 H 0.23234 0.2984 0.28494 0.0
H2196 H 0.20339 0.30562 0.21297 0.0
H2197 H 0.21443 0.30713 0.23973 0.0
H2198 H 0.18132 0.29426 0.27571 0.0
C2199 C 0.22543 0.32147 0.31801 0.0
C2200 C 0.22102 0.29713 0.28318 0.0
C2201 C 0.23582 0.32949 0.33131 0.0
C2202 C 0.19571 0.29837 0.22159 0.0
C2203 C 0.20204 0.29912 0.23685 0.0
C2204 C 0.19225 0.29474 0.27768 0.0
C2205 C 0.22392 0.30784 0.31113 0.0
C2206 C 0.21457 0.30074 0.29573 0.0
C2207 C 0.19242 0.2901 0.24843 0.0
C2208 C 0.19918 0.2921 0.26495 0.0
H2209 H 0.24956 0.3054 0.33677 0.0
H2210 H 0.23149 0.29146 0.31329 0.0
H2211 H 0.19462 0.30169 0.3024 0.0
H2212 H 0.15758 0.27139 0.22601 0.0
H2213 H 0.16868 0.2729 0.25301 0.0
C2214 C 0.27117 0.37259 0.42268 0.0
C2215 C 0.27039 0.35877 0.41772 0.0
C2216 C 0.2668 0.37438 0.43762 0.0
C2217 C 0.25891 0.35804 0.47701 0.0
H2218 H 0.23466 0.3776 0.47946 0.0
C2219 C 0.22345 0.35433 0.53008 0.0
C2220 C 0.22367 0.36785 0.53515 0.0
C2221 C 0.23058 0.35396 0.5165 0.0
C2222 C 0.2416 0.3723 0.47902 0.0
H2223 H 0.26468 0.33607 0.4247 0.0
H2224 H 0.25672 0.33904 0.45065 0.0
H2225 H 0.24432 0.37545 0.45435 0.0
H2226 H 0.23173 0.39164 0.53009 0.0
H2227 H 0.24426 0.39102 0.50638 0.0
H2228 H 0.2558 0.35459 0.50169 0.0
C2229 C 0.26096 0.34862 0.44309 0.0
C2230 C 0.24716 0.37108 0.46463 0.0
C2231 C 0.26544 0.34688 0.42817 0.0
C2232 C 0.23147 0.3811 0.52654 0.0
C2233 C 0.23851 0.38069 0.5129 0.0
C2234 C 0.25325 0.35918 0.49141 0.0
C2235 C 0.26143 0.36234 0.44793 0.0
C2236 C 0.25587 0.36391 0.46341 0.0
C2237 C 0.23798 0.36707 0.50763 0.0
C2238 C 0.24451 0.3663 0.49255 0.0
H2239 H 0.27508 0.38205 0.41499 0.0
H2240 H 0.26762 0.38522 0.44107 0.0
H2241 H 0.26576 0.35265 0.47655 0.0
H2242 H 0.21764 0.34399 0.53657 0.0
H2243 H 0.22988 0.34326 0.51267 0.0
C2244 C 0.64365 0.92231 0.42157 0.0
C2245 C 0.65911 0.93463 0.42545 0.0
C2246 C 0.63548 0.91168 0.43281 0.0
C2247 C 0.63607 0.90623 0.47585 0.0
H2248 H 0.62163 0.86324 0.46318 0.0
C2249 C 0.64006 0.86586 0.5181 0.0
C2250 C 0.62793 0.85021 0.51771 0.0
C2251 C 0.63968 0.87557 0.50708 0.0
C2252 C 0.62527 0.87512 0.46686 0.0
H2253 H 0.67779 0.94605 0.44425 0.0
H2254 H 0.66359 0.92782 0.46373 0.0
H2255 H 0.62802 0.88189 0.44298 0.0
H2256 H 0.6058 0.83243 0.50563 0.0
H2257 H 0.60526 0.84948 0.48603 0.0
H2258 H 0.63416 0.8997 0.49975 0.0
C2259 C 0.65773 0.92623 0.45211 0.0
C2260 C 0.62889 0.88578 0.45529 0.0
C2261 C 0.66593 0.9366 0.44089 0.0
C2262 C 0.61528 0.84449 0.50618 0.0
C2263 C 0.61499 0.85419 0.49497 0.0
C2264 C 0.63248 0.89561 0.48737 0.0
C2265 C 0.64254 0.91348 0.44815 0.0
C2266 C 0.63499 0.90158 0.45975 0.0
C2267 C 0.62722 0.86984 0.49532 0.0
C2268 C 0.62771 0.88011 0.48304 0.0
H2269 H 0.63815 0.92053 0.40972 0.0
H2270 H 0.62377 0.90194 0.42946 0.0
H2271 H 0.6405 0.91829 0.47959 0.0
H2272 H 0.64987 0.87061 0.52696 0.0
H2273 H 0.6494 0.88751 0.50751 0.0
C2274 C 0.07387 0.73293 0.39182 0.0
C2275 C 0.07157 0.7445 0.38612 0.0
C2276 C 0.08461 0.73642 0.40483 0.0
C2277 C 0.10573 0.7661 0.43877 0.0
H2278 H 0.12908 0.74572 0.44389 0.0
C2279 C 0.15247 0.78517 0.4901 0.0
C2280 C 0.15015 0.77323 0.49973 0.0
C2281 C 0.14459 0.78163 0.47506 0.0
C2282 C 0.12261 0.75147 0.44257 0.0
H2283 H 0.0793 0.76895 0.38893 0.0
H2284 H 0.09842 0.7752 0.41101 0.0
H2285 H 0.11198 0.73976 0.4197 0.0
H2286 H 0.13847 0.74818 0.50065 0.0
H2287 H 0.12497 0.74205 0.47416 0.0
H2288 H 0.11652 0.77796 0.46148 0.0
C2289 C 0.09153 0.76327 0.40599 0.0
C2290 C 0.11274 0.74801 0.42878 0.0
C2291 C 0.08063 0.75972 0.39323 0.0
C2292 C 0.14063 0.75766 0.4935 0.0
C2293 C 0.13285 0.75413 0.47836 0.0
C2294 C 0.11573 0.76971 0.45236 0.0
C2295 C 0.09344 0.75162 0.41222 0.0
C2296 C 0.10416 0.75529 0.42671 0.0
C2297 C 0.13437 0.76609 0.46924 0.0
C2298 C 0.12425 0.76244 0.45442 0.0
H2299 H 0.06701 0.72108 0.38657 0.0
H2300 H 0.08562 0.72709 0.40935 0.0
H2301 H 0.09902 0.77162 0.43789 0.0
H2302 H 0.15999 0.79728 0.49439 0.0
H2303 H 0.14614 0.79107 0.46814 0.0
C2304 C 0.31938 0.05859 0.7286 0.0
C2305 C 0.31116 0.05737 0.71417 0.0
C2306 C 0.31756 0.06538 0.74236 0.0
C2307 C 0.30566 0.09217 0.75632 0.0
H2308 H 0.29906 0.0714 0.79531 0.0
C2309 C 0.30914 0.12102 0.81786 0.0
C2310 C 0.29789 0.11187 0.8282 0.0
C2311 C 0.3099 0.11444 0.80341 0.0
C2312 C 0.30077 0.07726 0.78448 0.0
H2313 H 0.2948 0.06257 0.70284 0.0
H2314 H 0.29175 0.07448 0.7268 0.0
H2315 H 0.30259 0.0599 0.77121 0.0
H2316 H 0.2784 0.08877 0.83141 0.0
H2317 H 0.27971 0.0772 0.80607 0.0
H2318 H 0.30387 0.10955 0.7696 0.0
C2319 C 0.29959 0.0702 0.72746 0.0
C2320 C 0.30297 0.07078 0.77075 0.0
C2321 C 0.30129 0.0633 0.71376 0.0
C2322 C 0.28712 0.0961 0.82361 0.0
C2323 C 0.28797 0.08946 0.80921 0.0
C2324 C 0.3036 0.09873 0.77009 0.0
C2325 C 0.30761 0.07121 0.74193 0.0
C2326 C 0.30544 0.07817 0.75653 0.0
C2327 C 0.2995 0.09853 0.79906 0.0
C2328 C 0.30114 0.09133 0.7843 0.0
H2329 H 0.32707 0.05413 0.72932 0.0
H2330 H 0.32401 0.06614 0.75333 0.0
H2331 H 0.30763 0.09816 0.74555 0.0
H2332 H 0.31752 0.13324 0.82109 0.0
H2333 H 0.31896 0.12169 0.79587 0.0
C2334 C 0.94734 0.23265 0.76189 0.0
C2335 C 0.94357 0.24339 0.75675 0.0
C2336 C 0.94083 0.22433 0.77505 0.0
C2337 C 0.91782 0.22199 0.80926 0.0
H2338 H 0.90803 0.17942 0.80696 0.0
C2339 C 0.89148 0.18245 0.86082 0.0
C2340 C 0.8809 0.16652 0.85692 0.0
C2341 C 0.89971 0.19227 0.8491 0.0
C2342 C 0.91047 0.19121 0.80775 0.0
H2343 H 0.93027 0.25413 0.76148 0.0
H2344 H 0.91826 0.23909 0.78402 0.0
H2345 H 0.92092 0.19574 0.78579 0.0
H2346 H 0.87023 0.14835 0.83781 0.0
H2347 H 0.884 0.16549 0.81722 0.0
H2348 H 0.90646 0.21708 0.83079 0.0
C2349 C 0.92662 0.23737 0.77823 0.0
C2350 C 0.91819 0.20073 0.7957 0.0
C2351 C 0.93343 0.24596 0.76525 0.0
C2352 C 0.87851 0.16058 0.84111 0.0
C2353 C 0.8865 0.17042 0.82935 0.0
C2354 C 0.90983 0.21236 0.82121 0.0
C2355 C 0.93006 0.22626 0.78317 0.0
C2356 C 0.92202 0.21627 0.79627 0.0
C2357 C 0.89731 0.1864 0.83318 0.0
C2358 C 0.90602 0.19681 0.82061 0.0
H2359 H 0.9553 0.2306 0.75568 0.0
H2360 H 0.94418 0.21628 0.77873 0.0
H2361 H 0.92072 0.23393 0.81027 0.0
H2362 H 0.89356 0.18725 0.87298 0.0
H2363 H 0.90811 0.20442 0.8526 0.0
C2364 C 0.76689 0.6735 0.7337 0.0
C2365 C 0.75967 0.68043 0.72594 0.0
C2366 C 0.77717 0.681 0.74717 0.0
C2367 C 0.78561 0.70951 0.78021 0.0
H2368 H 0.81979 0.70336 0.7905 0.0
C2369 C 0.80686 0.7093 0.84423 0.0
C2370 C 0.82257 0.71427 0.84808 0.0
C2371 C 0.80145 0.70896 0.82863 0.0
C2372 C 0.81049 0.70548 0.78778 0.0
H2373 H 0.75815 0.70104 0.72591 0.0
H2374 H 0.77628 0.71424 0.74948 0.0
H2375 H 0.807 0.69619 0.76377 0.0
H2376 H 0.8451 0.72346 0.83864 0.0
H2377 H 0.83571 0.72314 0.81136 0.0
H2378 H 0.78904 0.7187 0.80426 0.0
C2379 C 0.77379 0.70288 0.74519 0.0
C2380 C 0.80302 0.70118 0.77247 0.0
C2381 C 0.76348 0.69536 0.73163 0.0
C2382 C 0.83293 0.71959 0.83607 0.0
C2383 C 0.82751 0.71926 0.82041 0.0
C2384 C 0.79313 0.71387 0.79551 0.0
C2385 C 0.78057 0.69566 0.75327 0.0
C2386 C 0.79015 0.70266 0.76864 0.0
C2387 C 0.81163 0.71365 0.81645 0.0
C2388 C 0.80534 0.71144 0.79963 0.0
H2389 H 0.76428 0.66204 0.72965 0.0
H2390 H 0.78195 0.67497 0.75319 0.0
H2391 H 0.77572 0.71077 0.77772 0.0
H2392 H 0.79863 0.70537 0.85325 0.0
H2393 H 0.78913 0.7044 0.82605 0.0
C2394 C 0.74333 0.6628 0.63678 0.0
C2395 C 0.73438 0.64944 0.64489 0.0
C2396 C 0.74778 0.66158 0.62167 0.0
C2397 C 0.75134 0.63365 0.59476 0.0
H2398 H 0.75842 0.66358 0.56388 0.0
C2399 C 0.76432 0.62672 0.53045 0.0
C2400 C 0.77877 0.63909 0.52638 0.0
C2401 C 0.75781 0.62817 0.54408 0.0
C2402 C 0.75645 0.65516 0.57243 0.0
H2403 H 0.72238 0.62428 0.6433 0.0
H2404 H 0.72932 0.62201 0.61671 0.0
H2405 H 0.7486 0.6654 0.58916 0.0
H2406 H 0.79736 0.66293 0.53339 0.0
H2407 H 0.78554 0.66558 0.55676 0.0
H2408 H 0.75878 0.62319 0.57773 0.0
C2409 C 0.7336 0.63354 0.62218 0.0
C2410 C 0.75095 0.65624 0.58697 0.0
C2411 C 0.72948 0.6348 0.6374 0.0
C2412 C 0.78612 0.65321 0.53592 0.0
C2413 C 0.77942 0.65474 0.54938 0.0
C2414 C 0.7565 0.63239 0.58012 0.0
C2415 C 0.74308 0.64692 0.61419 0.0
C2416 C 0.74842 0.64556 0.59841 0.0
C2417 C 0.76539 0.64213 0.55375 0.0
C2418 C 0.75921 0.64318 0.56889 0.0
H2419 H 0.74734 0.67425 0.64232 0.0
H2420 H 0.75527 0.67218 0.61608 0.0
H2421 H 0.74997 0.62543 0.60332 0.0
H2422 H 0.7581 0.6158 0.52323 0.0
H2423 H 0.74688 0.61833 0.54716 0.0
C2424 C 0.35311 0.07449 0.64086 0.0
C2425 C 0.33906 0.06009 0.63791 0.0
C2426 C 0.35937 0.08445 0.62863 0.0
C2427 C 0.34548 0.09125 0.59029 0.0
H2428 H 0.38926 0.12169 0.5869 0.0
C2429 C 0.36445 0.1304 0.53897 0.0
C2430 C 0.37375 0.14643 0.54339 0.0
C2431 C 0.36246 0.11956 0.54978 0.0
C2432 C 0.377 0.11323 0.58776 0.0
H2433 H 0.32129 0.0441 0.61979 0.0
H2434 H 0.33258 0.06093 0.59834 0.0
H2435 H 0.3817 0.10273 0.60705 0.0
H2436 H 0.389 0.16365 0.56232 0.0
H2437 H 0.38556 0.14459 0.58124 0.0
H2438 H 0.34074 0.10164 0.57109 0.0
C2439 C 0.33844 0.065 0.61015 0.0
C2440 C 0.37266 0.10241 0.5993 0.0
C2441 C 0.33203 0.05527 0.62239 0.0
C2442 C 0.38181 0.15137 0.55855 0.0
C2443 C 0.37985 0.14048 0.56937 0.0
C2444 C 0.34982 0.10187 0.57871 0.0
C2445 C 0.35179 0.08 0.61322 0.0
C2446 C 0.35681 0.09127 0.6007 0.0
C2447 C 0.36977 0.12448 0.56523 0.0
C2448 C 0.36559 0.11298 0.57731 0.0
H2449 H 0.35871 0.07846 0.65279 0.0
H2450 H 0.36964 0.09592 0.63147 0.0
H2451 H 0.33315 0.08325 0.59128 0.0
H2452 H 0.35839 0.12622 0.52726 0.0
H2453 H 0.35484 0.10728 0.54618 0.0
C2454 C 0.92285 0.24663 0.667 0.0
C2455 C 0.92808 0.25925 0.67833 0.0
C2456 C 0.91438 0.24552 0.65296 0.0
C2457 C 0.90934 0.25404 0.62041 0.0
H2458 H 0.8731 0.25794 0.61671 0.0
C2459 C 0.88372 0.25597 0.55966 0.0
C2460 C 0.86768 0.24512 0.55638 0.0
C2461 C 0.89051 0.25957 0.5752 0.0
C2462 C 0.88323 0.25686 0.61761 0.0
H2463 H 0.92776 0.28015 0.68412 0.0
H2464 H 0.91277 0.27808 0.65943 0.0
H2465 H 0.88565 0.2599 0.64309 0.0
H2466 H 0.84599 0.2303 0.56691 0.0
H2467 H 0.85791 0.23664 0.59421 0.0
H2468 H 0.90699 0.25086 0.59514 0.0
C2469 C 0.91534 0.26913 0.66152 0.0
C2470 C 0.89043 0.25806 0.63265 0.0
C2471 C 0.92395 0.27033 0.67561 0.0
C2472 C 0.85837 0.23873 0.56909 0.0
C2473 C 0.86519 0.24236 0.58471 0.0
C2474 C 0.9023 0.25302 0.60547 0.0
C2475 C 0.91085 0.25692 0.64991 0.0
C2476 C 0.90344 0.25645 0.63416 0.0
C2477 C 0.88141 0.25243 0.58784 0.0
C2478 C 0.88911 0.25432 0.60387 0.0
H2479 H 0.92565 0.23779 0.66872 0.0
H2480 H 0.91084 0.23584 0.64432 0.0
H2481 H 0.91945 0.25291 0.62121 0.0
H2482 H 0.89113 0.26134 0.55014 0.0
H2483 H 0.90299 0.26761 0.57729 0.0
C2484 C 0.37712 0.28364 0.68193 0.0
C2485 C 0.36421 0.28541 0.68209 0.0
C2486 C 0.37999 0.27775 0.66823 0.0
C2487 C 0.37038 0.27001 0.6248 0.0
H2488 H 0.38281 0.23998 0.63018 0.0
C2489 C 0.37472 0.22093 0.5845 0.0
C2490 C 0.38153 0.22938 0.57136 0.0
C2491 C 0.37351 0.22833 0.59814 0.0
C2492 C 0.37926 0.24828 0.62845 0.0
H2493 H 0.3444 0.28274 0.66778 0.0
H2494 H 0.3493 0.27224 0.64386 0.0
H2495 H 0.37859 0.25187 0.65336 0.0
H2496 H 0.39249 0.25227 0.56231 0.0
H2497 H 0.39075 0.26523 0.58624 0.0
H2498 H 0.37062 0.26606 0.59984 0.0
C2499 C 0.35731 0.27559 0.65433 0.0
C2500 C 0.37702 0.25525 0.64177 0.0
C2501 C 0.35446 0.28155 0.66806 0.0
C2502 C 0.3874 0.24546 0.57231 0.0
C2503 C 0.38618 0.25285 0.58594 0.0
C2504 C 0.37261 0.26303 0.61148 0.0
C2505 C 0.36998 0.2734 0.65434 0.0
C2506 C 0.37253 0.26618 0.64011 0.0
C2507 C 0.37905 0.24434 0.59895 0.0
C2508 C 0.37704 0.25204 0.61314 0.0
H2509 H 0.38496 0.28663 0.69248 0.0
H2510 H 0.39003 0.27653 0.66857 0.0
H2511 H 0.36705 0.27848 0.62311 0.0
H2512 H 0.37015 0.20855 0.58416 0.0
H2513 H 0.36782 0.2214 0.60789 0.0
C2514 C 0.74813 0.10287 0.63405 0.0
C2515 C 0.73618 0.08709 0.63308 0.0
C2516 C 0.75515 0.10998 0.62056 0.0
C2517 C 0.74864 0.11127 0.57941 0.0
H2518 H 0.79371 0.13326 0.57943 0.0
C2519 C 0.7819 0.15085 0.52957 0.0
C2520 C 0.79612 0.16464 0.53442 0.0
C2521 C 0.77419 0.13947 0.54024 0.0
C2522 C 0.78113 0.12731 0.57927 0.0
H2523 H 0.72216 0.06634 0.61722 0.0
H2524 H 0.73423 0.07911 0.59322 0.0
H2525 H 0.78083 0.11635 0.60051 0.0
H2526 H 0.81319 0.17759 0.55426 0.0
H2527 H 0.79959 0.15809 0.57301 0.0
H2528 H 0.74892 0.12296 0.55876 0.0
C2529 C 0.73821 0.08578 0.6046 0.0
C2530 C 0.77377 0.1175 0.59124 0.0
C2531 C 0.73138 0.07851 0.61827 0.0
C2532 C 0.80234 0.16697 0.55017 0.0
C2533 C 0.79458 0.15572 0.56087 0.0
C2534 C 0.75602 0.1213 0.56751 0.0
C2535 C 0.75021 0.10156 0.60572 0.0
C2536 C 0.75752 0.10967 0.5916 0.0
C2537 C 0.78049 0.14173 0.55602 0.0
C2538 C 0.77241 0.12977 0.56755 0.0
H2539 H 0.75216 0.10976 0.64531 0.0
H2540 H 0.76431 0.12218 0.62166 0.0
H2541 H 0.73609 0.10544 0.57958 0.0
H2542 H 0.77694 0.14871 0.51742 0.0
H2543 H 0.76346 0.12881 0.53604 0.0
C2544 C 0.91215 0.65223 0.66125 0.0
C2545 C 0.91499 0.66574 0.66985 0.0
C2546 C 0.90194 0.64643 0.64744 0.0
C2547 C 0.8758 0.63377 0.62047 0.0
H2548 H 0.88018 0.66656 0.59478 0.0
C2549 C 0.83897 0.62287 0.56055 0.0
C2550 C 0.8469 0.63278 0.54867 0.0
C2551 C 0.84639 0.62543 0.57579 0.0
C2552 C 0.87889 0.65723 0.60172 0.0
H2553 H 0.90839 0.68294 0.67164 0.0
H2554 H 0.89027 0.67257 0.64805 0.0
H2555 H 0.89415 0.67329 0.62073 0.0
H2556 H 0.86904 0.65238 0.54302 0.0
H2557 H 0.88199 0.65671 0.56935 0.0
H2558 H 0.8609 0.61776 0.60095 0.0
C2559 C 0.89632 0.66677 0.65149 0.0
C2560 C 0.88672 0.66108 0.61677 0.0
C2561 C 0.90665 0.67268 0.66507 0.0
C2562 C 0.86252 0.64482 0.55207 0.0
C2563 C 0.86993 0.6473 0.56717 0.0
C2564 C 0.86796 0.62989 0.60529 0.0
C2565 C 0.89429 0.65395 0.64215 0.0
C2566 C 0.88533 0.64944 0.62635 0.0
C2567 C 0.86187 0.63789 0.57933 0.0
C2568 C 0.86956 0.64162 0.59569 0.0
H2569 H 0.91842 0.64666 0.66469 0.0
H2570 H 0.90069 0.63656 0.64051 0.0
H2571 H 0.87441 0.62452 0.62758 0.0
H2572 H 0.82692 0.61347 0.5582 0.0
H2573 H 0.83985 0.618 0.58491 0.0
C2574 C 0.93305 0.70402 0.75249 0.0
C2575 C 0.93982 0.6951 0.75011 0.0
C2576 C 0.92838 0.70553 0.76732 0.0
C2577 C 0.91963 0.68765 0.8061 0.0
H2578 H 0.91877 0.72457 0.81777 0.0
C2579 C 0.88484 0.68929 0.85714 0.0
C2580 C 0.88938 0.70358 0.86535 0.0
C2581 C 0.8926 0.68873 0.84419 0.0
C2582 C 0.91917 0.71427 0.81496 0.0
H2583 H 0.94739 0.68105 0.76143 0.0
H2584 H 0.94002 0.68433 0.78762 0.0
H2585 H 0.93012 0.72331 0.79377 0.0
H2586 H 0.90617 0.72849 0.86647 0.0
H2587 H 0.92037 0.72735 0.8448 0.0
H2588 H 0.90951 0.67899 0.82778 0.0
C2589 C 0.93775 0.68973 0.77792 0.0
C2590 C 0.92543 0.71341 0.80091 0.0
C2591 C 0.94209 0.68791 0.76293 0.0
C2592 C 0.90235 0.71721 0.86062 0.0
C2593 C 0.91036 0.7166 0.84791 0.0
C2594 C 0.91372 0.68867 0.82037 0.0
C2595 C 0.93071 0.69847 0.7803 0.0
C2596 C 0.92539 0.69993 0.79605 0.0
C2597 C 0.90541 0.70238 0.83929 0.0
C2598 C 0.91307 0.70185 0.82484 0.0
H2599 H 0.93099 0.70955 0.74276 0.0
H2600 H 0.92262 0.71198 0.76845 0.0
H2601 H 0.91924 0.677 0.80281 0.0
H2602 H 0.87518 0.67846 0.8606 0.0
H2603 H 0.88822 0.67755 0.83782 0.0
C2604 C 0.31331 0.26477 0.76076 0.0
C2605 C 0.31782 0.26198 0.74623 0.0
C2606 C 0.30561 0.25267 0.77073 0.0
C2607 C 0.30576 0.21786 0.77957 0.0
H2608 H 0.27523 0.21167 0.80911 0.0
C2609 C 0.29157 0.17462 0.82688 0.0
C2610 C 0.29049 0.17951 0.84223 0.0
C2611 C 0.29114 0.18254 0.81392 0.0
C2612 C 0.28383 0.21332 0.80099 0.0
H2613 H 0.31713 0.2445 0.73012 0.0
H2614 H 0.30333 0.22325 0.74726 0.0
H2615 H 0.28056 0.22944 0.78813 0.0
H2616 H 0.28751 0.19605 0.85609 0.0
H2617 H 0.28735 0.21035 0.8335 0.0
H2618 H 0.30971 0.2025 0.79264 0.0
C2619 C 0.30583 0.23472 0.75111 0.0
C2620 C 0.28682 0.22344 0.78894 0.0
C2621 C 0.31357 0.24681 0.74123 0.0
C2622 C 0.28832 0.19206 0.84433 0.0
C2623 C 0.28815 0.20018 0.83136 0.0
C2624 C 0.30288 0.20789 0.7916 0.0
C2625 C 0.30246 0.23767 0.76629 0.0
C2626 C 0.29791 0.22589 0.77817 0.0
C2627 C 0.28996 0.19575 0.81603 0.0
C2628 C 0.29198 0.20555 0.80257 0.0
H2629 H 0.31677 0.27649 0.76492 0.0
H2630 H 0.30327 0.25534 0.78238 0.0
H2631 H 0.31467 0.21977 0.77175 0.0
H2632 H 0.29301 0.16481 0.82496 0.0
H2633 H 0.29213 0.17851 0.80226 0.0
C2634 C 0.74577 0.05667 0.71771 0.0
C2635 C 0.7483 0.0698 0.71007 0.0
C2636 C 0.75497 0.05847 0.73158 0.0
C2637 C 0.77835 0.08848 0.7641 0.0
H2638 H 0.79242 0.06111 0.77685 0.0
C2639 C 0.81853 0.10429 0.82025 0.0
C2640 C 0.81403 0.09267 0.83094 0.0
C2641 C 0.81189 0.10055 0.80466 0.0
C2642 C 0.78848 0.06879 0.77343 0.0
H2643 H 0.76322 0.09486 0.71 0.0
H2644 H 0.77948 0.09793 0.73364 0.0
H2645 H 0.77817 0.05615 0.75077 0.0
H2646 H 0.79972 0.06788 0.83345 0.0
H2647 H 0.78798 0.0613 0.80606 0.0
H2648 H 0.78848 0.10108 0.78657 0.0
C2649 C 0.77008 0.08632 0.72943 0.0
C2650 C 0.78032 0.06594 0.75854 0.0
C2651 C 0.76081 0.08456 0.71582 0.0
C2652 C 0.80343 0.07707 0.82544 0.0
C2653 C 0.79673 0.0733 0.80978 0.0
C2654 C 0.78651 0.09134 0.77882 0.0
C2655 C 0.76691 0.0734 0.73785 0.0
C2656 C 0.77532 0.07589 0.75366 0.0
C2657 C 0.80053 0.08509 0.79939 0.0
C2658 C 0.79181 0.08166 0.78362 0.0
H2659 H 0.73618 0.04516 0.7135 0.0
H2660 H 0.75224 0.04828 0.73778 0.0
H2661 H 0.77426 0.0961 0.76096 0.0
H2662 H 0.8269 0.11638 0.82409 0.0
H2663 H 0.81532 0.10984 0.79683 0.0
C2664 C 0.0509 0.35799 0.0269 0.0
C2665 C 0.03778 0.35709 0.03299 0.0
C2666 C 0.06006 0.3539 0.0359 0.0
C2667 C 0.05819 0.33011 0.06844 0.0
H2668 H 0.10335 0.35563 0.07108 0.0
C2669 C 0.09675 0.31716 0.10982 0.0
C2670 C 0.11062 0.3195 0.10418 0.0
C2671 C 0.08796 0.32207 0.10148 0.0
C2672 C 0.09075 0.34825 0.07032 0.0
H2673 H 0.02408 0.35132 0.05341 0.0
H2674 H 0.04001 0.34413 0.06901 0.0
H2675 H 0.08797 0.36361 0.0557 0.0
H2676 H 0.12593 0.32843 0.08517 0.0
H2677 H 0.11053 0.33672 0.07047 0.0
H2678 H 0.06089 0.31458 0.08277 0.0
C2679 C 0.04317 0.34793 0.05725 0.0
C2680 C 0.08195 0.35286 0.06152 0.0
C2681 C 0.0341 0.35214 0.04833 0.0
C2682 C 0.11544 0.32673 0.08996 0.0
C2683 C 0.10661 0.33152 0.08156 0.0
C2684 C 0.06698 0.32542 0.07713 0.0
C2685 C 0.0562 0.34869 0.05111 0.0
C2686 C 0.06558 0.34384 0.06049 0.0
C2687 C 0.09278 0.32931 0.08721 0.0
C2688 C 0.08339 0.33442 0.07817 0.0
H2689 H 0.05406 0.36175 0.01513 0.0
H2690 H 0.06997 0.3545 0.03081 0.0
H2691 H 0.04558 0.32281 0.06769 0.0
H2692 H 0.09282 0.31173 0.12082 0.0
H2693 H 0.0775 0.32037 0.10632 0.0
C2694 C 0.64708 0.67185 0.08903 0.0
C2695 C 0.64193 0.66844 0.07282 0.0
C2696 C 0.65228 0.68657 0.09634 0.0
C2697 C 0.64978 0.72121 0.09299 0.0
H2698 H 0.68974 0.74288 0.11786 0.0
C2699 C 0.67941 0.78592 0.11373 0.0
C2700 C 0.68743 0.79098 0.12886 0.0
C2701 C 0.67406 0.77094 0.10716 0.0
C2702 C 0.67846 0.73693 0.11117 0.0
H2703 H 0.63783 0.67767 0.05168 0.0
H2704 H 0.64668 0.70329 0.06454 0.0
H2705 H 0.67938 0.71648 0.10628 0.0
H2706 H 0.69631 0.78446 0.14895 0.0
H2707 H 0.68662 0.75805 0.13768 0.0
H2708 H 0.64862 0.74141 0.09804 0.0
C2709 C 0.64674 0.69458 0.07155 0.0
C2710 C 0.67255 0.72182 0.1045 0.0
C2711 C 0.64173 0.67993 0.06418 0.0
C2712 C 0.69025 0.78085 0.13721 0.0
C2713 C 0.68472 0.76576 0.13072 0.0
C2714 C 0.65559 0.73623 0.09979 0.0
C2715 C 0.65225 0.6981 0.08765 0.0
C2716 C 0.65822 0.71387 0.09524 0.0
C2717 C 0.67643 0.76056 0.11565 0.0
C2718 C 0.67008 0.74436 0.10884 0.0
H2719 H 0.64742 0.66326 0.09601 0.0
H2720 H 0.65634 0.68894 0.1088 0.0
H2721 H 0.63861 0.71527 0.08607 0.0
H2722 H 0.6773 0.7936 0.10694 0.0
H2723 H 0.6681 0.76753 0.09538 0.0
C2724 C 0.32757 0.95134 0.03985 0.0
C2725 C 0.3357 0.96584 0.03338 0.0
C2726 C 0.31303 0.94607 0.04558 0.0
C2727 C 0.28878 0.96058 0.06053 0.0
H2728 H 0.25826 0.91638 0.06023 0.0
C2729 C 0.22892 0.93218 0.0893 0.0
C2730 C 0.2279 0.92195 0.10068 0.0
C2731 C 0.24102 0.93814 0.07917 0.0
C2732 C 0.26665 0.92876 0.06027 0.0
H2733 H 0.33467 0.98594 0.02727 0.0
H2734 H 0.30904 0.97652 0.03687 0.0
H2735 H 0.2809 0.92533 0.04492 0.0
H2736 H 0.23938 0.9107 0.1108 0.0
H2737 H 0.25989 0.92051 0.09272 0.0
H2738 H 0.2743 0.96383 0.07595 0.0
C2739 C 0.31408 0.96938 0.03787 0.0
C2740 C 0.27967 0.93391 0.05163 0.0
C2741 C 0.32873 0.97473 0.03227 0.0
C2742 C 0.23943 0.9181 0.10187 0.0
C2743 C 0.25126 0.92379 0.0916 0.0
C2744 C 0.27558 0.95541 0.06898 0.0
C2745 C 0.30614 0.95507 0.04482 0.0
C2746 C 0.29119 0.94984 0.05207 0.0
C2747 C 0.2521 0.93375 0.08011 0.0
C2748 C 0.26468 0.93944 0.06928 0.0
H2749 H 0.33263 0.94423 0.04097 0.0
H2750 H 0.30747 0.93515 0.05112 0.0
H2751 H 0.29745 0.97292 0.06129 0.0
H2752 H 0.22021 0.93532 0.08795 0.0
H2753 H 0.24152 0.94586 0.07039 0.0
C2754 C 0.37898 0.04562 0.00975 0.0
C2755 C 0.37191 0.03639 0.02236 0.0
C2756 C 0.37436 0.05562 0.00436 0.0
C2757 C 0.34035 0.05954 0.00198 0.0
H2758 H 0.36937 0.10088 0.9894 0.0
C2759 C 0.31918 0.09799 0.97589 0.0
C2760 C 0.327 0.10655 0.96318 0.0
C2761 C 0.32509 0.09047 0.98466 0.0
C2762 C 0.3611 0.0893 0.99271 0.0
H2763 H 0.35485 0.03087 0.03958 0.0
H2764 H 0.34678 0.04828 0.03011 0.0
H2765 H 0.37931 0.08616 0.00208 0.0
H2766 H 0.34694 0.11368 0.94946 0.0
H2767 H 0.35708 0.10041 0.96449 0.0
H2768 H 0.32214 0.06239 0.99218 0.0
C2769 C 0.35582 0.04769 0.02435 0.0
C2770 C 0.36681 0.0809 3e-05 0.0
C2771 C 0.36053 0.0378 0.02983 0.0
C2772 C 0.34081 0.10742 0.95939 0.0
C2773 C 0.34665 0.09983 0.96806 0.0
C2774 C 0.33463 0.06787 0.99455 0.0
C2775 C 0.36249 0.0565 0.01138 0.0
C2776 C 0.3565 0.06588 0.0046 0.0
C2777 C 0.33888 0.09125 0.9808 0.0
C2778 C 0.34494 0.08279 0.98965 0.0
H2779 H 0.38778 0.04482 0.00375 0.0
H2780 H 0.37964 0.06218 0.99427 0.0
H2781 H 0.33212 0.0479 0.00518 0.0
H2782 H 0.30857 0.09723 0.97914 0.0
H2783 H 0.3189 0.08413 0.99452 0.0
C2784 C 0.9701 0.30963 0.9971 0.0
C2785 C 0.964 0.31891 0.99313 0.0
C2786 C 0.96295 0.29429 0.99052 0.0
C2787 C 0.93695 0.26846 0.95634 0.0
H2788 H 0.92798 0.23486 0.98299 0.0
C2789 C 0.89101 0.20481 0.93682 0.0
C2790 C 0.89361 0.19306 0.94124 0.0
C2791 C 0.90136 0.22026 0.94244 0.0
C2792 C 0.93065 0.24413 0.97533 0.0
H2793 H 0.94554 0.31926 0.97922 0.0
H2794 H 0.93314 0.29261 0.96783 0.0
H2795 H 0.94279 0.26174 0.99446 0.0
H2796 H 0.90932 0.18835 0.95474 0.0
H2797 H 0.92761 0.21549 0.96443 0.0
H2798 H 0.92469 0.25094 0.93725 0.0
C2799 C 0.94352 0.29723 0.9759 0.0
C2800 C 0.9391 0.25952 0.98191 0.0
C2801 C 0.95057 0.31248 0.98253 0.0
C2802 C 0.90705 0.19717 0.95108 0.0
C2803 C 0.91743 0.21267 0.95674 0.0
C2804 C 0.92857 0.25312 0.94976 0.0
C2805 C 0.94966 0.28799 0.97974 0.0
C2806 C 0.94203 0.27181 0.97255 0.0
C2807 C 0.91461 0.22438 0.95259 0.0
C2808 C 0.92501 0.24074 0.95924 0.0
H2809 H 0.98044 0.31424 0.00522 0.0
H2810 H 0.96796 0.28745 0.99366 0.0
H2811 H 0.93931 0.27772 0.94877 0.0
H2812 H 0.88087 0.20204 0.92909 0.0
H2813 H 0.89872 0.22893 0.93915 0.0
C2814 C 0.68778 0.6508 0.05107 0.0
C2815 C 0.6796 0.63452 0.04813 0.0
C2816 C 0.70309 0.66005 0.04682 0.0
C2817 C 0.73672 0.6578 0.034 0.0
H2818 H 0.74534 0.69315 0.01024 0.0
C2819 C 0.7747 0.67735 0.98207 0.0
C2820 C 0.78855 0.69209 0.9842 0.0
C2821 C 0.76324 0.67285 0.99268 0.0
C2822 C 0.74319 0.68351 0.01713 0.0
H2823 H 0.68131 0.61518 0.03895 0.0
H2824 H 0.70767 0.63118 0.03134 0.0
H2825 H 0.72178 0.68022 0.02458 0.0
H2826 H 0.80083 0.71388 0.99889 0.0
H2827 H 0.78025 0.70605 0.01719 0.0
H2828 H 0.75754 0.66042 0.02548 0.0
C2829 C 0.70247 0.63688 0.03715 0.0
C2830 C 0.72976 0.67611 0.02537 0.0
C2831 C 0.68724 0.62768 0.0414 0.0
C2832 C 0.7903 0.70248 0.99686 0.0
C2833 C 0.77862 0.69802 0.00737 0.0
C2834 C 0.74999 0.66505 0.02561 0.0
C2835 C 0.71052 0.65319 0.03958 0.0
C2836 C 0.72609 0.66282 0.03343 0.0
C2837 C 0.76518 0.68305 0.00547 0.0
C2838 C 0.75306 0.67765 0.01676 0.0
H2839 H 0.68224 0.65644 0.05629 0.0
H2840 H 0.70902 0.67256 0.049 0.0
H2841 H 0.73445 0.64784 0.04038 0.0
H2842 H 0.77269 0.66921 0.97221 0.0
H2843 H 0.75281 0.66133 0.9909 0.0
C2844 C 0.95095 0.62937 0.01684 0.0
C2845 C 0.96646 0.63998 0.02278 0.0
C2846 C 0.94236 0.6345 0.00846 0.0
C2847 C 0.94193 0.67034 0.00121 0.0
H2848 H 0.91404 0.64538 0.96451 0.0
C2849 C 0.91416 0.6939 0.9584 0.0
C2850 C 0.89809 0.68403 0.95405 0.0
C2851 C 0.92249 0.68831 0.96639 0.0
C2852 C 0.92171 0.65242 0.9748 0.0
H2853 H 0.98511 0.6643 0.02446 0.0
H2854 H 0.97033 0.67313 0.00965 0.0
H2855 H 0.92836 0.63594 0.97949 0.0
H2856 H 0.87824 0.66049 0.95477 0.0
H2857 H 0.89287 0.65072 0.96841 0.0
H2858 H 0.93541 0.68689 0.99638 0.0
C2859 C 0.96463 0.6609 0.01172 0.0
C2860 C 0.92987 0.64699 0.98343 0.0
C2861 C 0.97316 0.6558 0.02016 0.0
C2862 C 0.89066 0.66836 0.95763 0.0
C2863 C 0.89902 0.66275 0.96551 0.0
C2864 C 0.93386 0.6758 0.99252 0.0
C2865 C 0.94911 0.65034 0.00577 0.0
C2866 C 0.94012 0.6559 0.99674 0.0
C2867 C 0.91499 0.67271 0.97014 0.0
C2868 C 0.92368 0.66692 0.97921 0.0
H2869 H 0.94543 0.61711 0.01869 0.0
H2870 H 0.93037 0.62606 0.00423 0.0
H2871 H 0.94947 0.67738 0.01156 0.0
H2872 H 0.92031 0.70597 0.95564 0.0
H2873 H 0.93485 0.69621 0.96961 0.0
C2874 C 0.3493 0.32158 0.00405 0.0
C2875 C 0.35636 0.33506 0.99568 0.0
C2876 C 0.34451 0.30708 0.99647 0.0
C2877 C 0.34931 0.28796 0.96092 0.0
H2878 H 0.30875 0.25329 0.96952 0.0
C2879 C 0.3196 0.22876 0.92428 0.0
C2880 C 0.31272 0.21543 0.93289 0.0
C2881 C 0.32463 0.24339 0.93172 0.0
C2882 C 0.32016 0.26282 0.96709 0.0
H2883 H 0.36437 0.34393 0.9729 0.0
H2884 H 0.35591 0.31862 0.95966 0.0
H2885 H 0.31881 0.27878 0.98324 0.0
H2886 H 0.30569 0.20703 0.95605 0.0
H2887 H 0.31434 0.2325 0.96896 0.0
H2888 H 0.3506 0.27198 0.94474 0.0
C2889 C 0.35418 0.31927 0.97212 0.0
C2890 C 0.32595 0.27742 0.97498 0.0
C2891 C 0.35899 0.33378 0.97971 0.0
C2892 C 0.31067 0.21701 0.949 0.0
C2893 C 0.31568 0.23162 0.95642 0.0
C2894 C 0.3435 0.27336 0.95301 0.0
C2895 C 0.34665 0.30571 0.98035 0.0
C2896 C 0.34061 0.29016 0.97203 0.0
C2897 C 0.32287 0.245 0.94791 0.0
C2898 C 0.32887 0.26061 0.95603 0.0
H2899 H 0.34716 0.32216 0.01638 0.0
H2900 H 0.33901 0.29691 0.00322 0.0
H2901 H 0.36072 0.29748 0.95851 0.0
H2902 H 0.32116 0.22789 0.91181 0.0
H2903 H 0.3299 0.25344 0.92478 0.0
C2904 C 0.6908 0.05632 0.04153 0.0
C2905 C 0.6778 0.04118 0.03828 0.0
C2906 C 0.70544 0.06009 0.037 0.0
C2907 C 0.72704 0.0424 0.02025 0.0
H2908 H 0.75149 0.08291 0.00373 0.0
C2909 C 0.76876 0.05824 0.97028 0.0
C2910 C 0.78337 0.07209 0.97284 0.0
C2911 C 0.7579 0.05392 0.98162 0.0
C2912 C 0.74491 0.07165 0.00854 0.0
H2913 H 0.66998 0.01802 0.02806 0.0
H2914 H 0.69513 0.0247 0.01942 0.0
H2915 H 0.72849 0.0767 0.01728 0.0
H2916 H 0.79841 0.09212 0.98922 0.0
H2917 H 0.77917 0.08477 0.00895 0.0
H2918 H 0.74301 0.03711 0.01023 0.0
C2919 C 0.69433 0.03362 0.02596 0.0
C2920 C 0.73173 0.06807 0.0164 0.0
C2921 C 0.6798 0.02979 0.0308 0.0
C2922 C 0.78725 0.08128 0.98714 0.0
C2923 C 0.77627 0.07714 0.99834 0.0
C2924 C 0.74005 0.04589 0.01205 0.0
C2925 C 0.70734 0.04889 0.02878 0.0
C2926 C 0.72241 0.05328 0.02211 0.0
C2927 C 0.7614 0.06359 0.99551 0.0
C2928 C 0.74893 0.06046 0.00594 0.0
H2929 H 0.68962 0.06529 0.04746 0.0
H2930 H 0.71521 0.07187 0.03976 0.0
H2931 H 0.72045 0.03104 0.02481 0.0
H2932 H 0.76554 0.05109 0.95924 0.0
H2933 H 0.74645 0.04351 0.97912 0.0
C2934 C 0.64331 0.96784 0.03861 0.0
C2935 C 0.63493 0.97273 0.04734 0.0
C2936 C 0.6488 0.95903 0.04547 0.0
C2937 C 0.66142 0.95371 0.08447 0.0
H2938 H 0.65961 0.91767 0.06434 0.0
C2939 C 0.67894 0.91694 0.11924 0.0
C2940 C 0.68641 0.91032 0.11165 0.0
C2941 C 0.67304 0.92452 0.1107 0.0
C2942 C 0.66044 0.92787 0.07002 0.0
H2943 H 0.62485 0.97129 0.06974 0.0
H2944 H 0.63444 0.956 0.08162 0.0
H2945 H 0.64753 0.92997 0.05036 0.0
H2946 H 0.69382 0.90678 0.08912 0.0
H2947 H 0.68391 0.92051 0.07422 0.0
H2948 H 0.67453 0.95195 0.10396 0.0
C2949 C 0.63693 0.95915 0.06957 0.0
C2950 C 0.65344 0.93484 0.06204 0.0
C2951 C 0.63135 0.96783 0.0627 0.0
C2952 C 0.6882 0.91183 0.09534 0.0
C2953 C 0.68235 0.91952 0.08677 0.0
C2954 C 0.66853 0.94688 0.09235 0.0
C2955 C 0.64609 0.95506 0.0612 0.0
C2956 C 0.65368 0.94769 0.06931 0.0
C2957 C 0.6746 0.92588 0.09434 0.0
C2958 C 0.66794 0.93373 0.08535 0.0
H2959 H 0.64624 0.97138 0.02674 0.0
H2960 H 0.65583 0.95603 0.03875 0.0
H2961 H 0.66212 0.96384 0.0902 0.0
H2962 H 0.67757 0.91622 0.13184 0.0
H2963 H 0.66698 0.92907 0.11693 0.0
C2964 C 0.05254 0.69216 0.08587 0.0
C2965 C 0.0416 0.68642 0.0726 0.0
C2966 C 0.05874 0.70729 0.09254 0.0
C2967 C 0.06941 0.7459 0.0841 0.0
H2968 H 0.06612 0.75217 0.12885 0.0
C2969 C 0.09861 0.80775 0.11477 0.0
C2970 C 0.10593 0.81011 0.13008 0.0
C2971 C 0.08856 0.7927 0.10771 0.0
C2972 C 0.06733 0.75068 0.11639 0.0
H2973 H 0.02882 0.69212 0.05567 0.0
H2974 H 0.04022 0.71892 0.06708 0.0
H2975 H 0.05341 0.72581 0.11631 0.0
H2976 H 0.10765 0.79835 0.15027 0.0
H2977 H 0.09096 0.77232 0.13774 0.0
H2978 H 0.08408 0.77061 0.08422 0.0
C2979 C 0.04372 0.71153 0.0724 0.0
C2980 C 0.05994 0.73558 0.10921 0.0
C2981 C 0.03722 0.69624 0.06592 0.0
C2982 C 0.10249 0.79703 0.13835 0.0
C2983 C 0.09265 0.78201 0.13121 0.0
C2984 C 0.07709 0.76102 0.09133 0.0
C2985 C 0.05438 0.71708 0.08588 0.0
C2986 C 0.06109 0.73307 0.09307 0.0
C2987 C 0.08572 0.77962 0.11569 0.0
C2988 C 0.07635 0.76362 0.10765 0.0
H2989 H 0.05607 0.68486 0.09135 0.0
H2990 H 0.06705 0.71139 0.10287 0.0
H2991 H 0.07053 0.7442 0.07164 0.0
H2992 H 0.10105 0.81752 0.10796 0.0
H2993 H 0.08322 0.79137 0.09588 0.0
C2994 C 0.30614 0.36798 0.01457 0.0
C2995 C 0.31765 0.36422 0.01643 0.0
C2996 C 0.291 0.35766 0.0186 0.0
C2997 C 0.26485 0.31735 0.0318 0.0
H2998 H 0.24495 0.33706 0.05136 0.0
C2999 C 0.22122 0.29402 0.08061 0.0
C3000 C 0.20781 0.29482 0.07815 0.0
C3001 C 0.23251 0.29969 0.06964 0.0
C3002 C 0.25026 0.33138 0.04571 0.0
H3003 H 0.32235 0.34665 0.02358 0.0
H3004 H 0.29633 0.32909 0.03157 0.0
H3005 H 0.26895 0.35283 0.03885 0.0
H3006 H 0.1953 0.30158 0.06222 0.0
H3007 H 0.21534 0.31198 0.04321 0.0
H3008 H 0.24654 0.29604 0.04003 0.0
C3009 C 0.29864 0.33965 0.02643 0.0
C3010 C 0.26402 0.3404 0.03841 0.0
C3011 C 0.31365 0.34979 0.02196 0.0
C3012 C 0.20549 0.3007 0.06423 0.0
C3013 C 0.21693 0.30668 0.05343 0.0
C3014 C 0.25126 0.30839 0.03948 0.0
C3015 C 0.28714 0.34355 0.02508 0.0
C3016 C 0.27165 0.33357 0.0315 0.0
C3017 C 0.23068 0.30654 0.05626 0.0
C3018 C 0.24397 0.31539 0.0466 0.0
H3019 H 0.30889 0.37896 0.01012 0.0
H3020 H 0.28242 0.36092 0.01688 0.0
H3021 H 0.27012 0.31156 0.02633 0.0
H3022 H 0.22325 0.28961 0.09134 0.0
H3023 H 0.24311 0.29962 0.07212 0.0
C3024 C 0.71175 0.69229 0.35766 0.0
C3025 C 0.70012 0.6934 0.36492 0.0
C3026 C 0.72117 0.68828 0.36629 0.0
C3027 C 0.72097 0.66695 0.40024 0.0
H3028 H 0.76584 0.68937 0.39842 0.0
C3029 C 0.76009 0.65275 0.43915 0.0
C3030 C 0.77318 0.65406 0.43259 0.0
C3031 C 0.75127 0.65785 0.43117 0.0
C3032 C 0.7533 0.68281 0.3989 0.0
H3033 H 0.68943 0.6914 0.38703 0.0
H3034 H 0.70575 0.68423 0.40197 0.0
H3035 H 0.75055 0.69794 0.38386 0.0
H3036 H 0.78702 0.66116 0.41234 0.0
H3037 H 0.77144 0.66957 0.39819 0.0
H3038 H 0.72355 0.65154 0.41488 0.0
C3039 C 0.70756 0.68646 0.38961 0.0
C3040 C 0.74457 0.6878 0.39059 0.0
C3041 C 0.69829 0.69067 0.38107 0.0
C3042 C 0.77712 0.66025 0.41778 0.0
C3043 C 0.76821 0.66515 0.40972 0.0
C3044 C 0.72967 0.66184 0.40839 0.0
C3045 C 0.719 0.68509 0.38228 0.0
C3046 C 0.72832 0.67992 0.3912 0.0
C3047 C 0.75525 0.66416 0.41636 0.0
C3048 C 0.74596 0.66969 0.40782 0.0
H3049 H 0.71346 0.69432 0.34526 0.0
H3050 H 0.72986 0.68723 0.36032 0.0
H3051 H 0.70843 0.66054 0.40075 0.0
H3052 H 0.75689 0.64813 0.45061 0.0
H3053 H 0.74152 0.65709 0.43678 0.0
C3054 C 0.31218 0.00542 0.42149 0.0
C3055 C 0.30564 0.00116 0.40571 0.0
C3056 C 0.31839 0.02062 0.42807 0.0
C3057 C 0.31579 0.05513 0.42388 0.0
H3058 H 0.35639 0.07753 0.44751 0.0
C3059 C 0.34514 0.12008 0.44333 0.0
C3060 C 0.35332 0.12541 0.45837 0.0
C3061 C 0.34003 0.10511 0.43689 0.0
C3062 C 0.34495 0.07138 0.44113 0.0
H3063 H 0.30044 0.00951 0.38448 0.0
H3064 H 0.3111 0.03596 0.39603 0.0
H3065 H 0.34581 0.05085 0.4366 0.0
H3066 H 0.36279 0.11939 0.4784 0.0
H3067 H 0.35353 0.09301 0.46735 0.0
H3068 H 0.31465 0.07538 0.42861 0.0
C3069 C 0.31142 0.02753 0.40331 0.0
C3070 C 0.33892 0.05611 0.43485 0.0
C3071 C 0.30538 0.0124 0.39668 0.0
C3072 C 0.3566 0.11558 0.46673 0.0
C3073 C 0.35131 0.1005 0.46036 0.0
C3074 C 0.32173 0.07031 0.43027 0.0
C3075 C 0.31801 0.03181 0.41906 0.0
C3076 C 0.32432 0.04788 0.42606 0.0
C3077 C 0.34279 0.09499 0.44543 0.0
C3078 C 0.33644 0.0787 0.43888 0.0
H3079 H 0.3126 0.99704 0.42876 0.0
H3080 H 0.32329 0.02356 0.44028 0.0
H3081 H 0.3044 0.04898 0.41738 0.0
H3082 H 0.34268 0.12752 0.43654 0.0
H3083 H 0.33387 0.10146 0.4252 0.0
C3084 C 0.00867 0.31194 0.37442 0.0
C3085 C 0.01317 0.30157 0.36936 0.0
C3086 C 0.99359 0.30633 0.37894 0.0
C3087 C 0.95961 0.27024 0.39175 0.0
H3088 H 0.93859 0.29293 0.38657 0.0
C3089 C 0.89668 0.24444 0.40722 0.0
C3090 C 0.89475 0.25358 0.4187 0.0
C3091 C 0.9102 0.25084 0.3992 0.0
C3092 C 0.94437 0.28652 0.38807 0.0
H3093 H 0.0052 0.27725 0.36425 0.0
H3094 H 0.97876 0.26748 0.37138 0.0
H3095 H 0.96401 0.30276 0.37606 0.0
H3096 H 0.90504 0.2769 0.42991 0.0
H3097 H 0.92857 0.28816 0.41552 0.0
H3098 H 0.93984 0.25388 0.40348 0.0
C3099 C 0.98699 0.27992 0.37253 0.0
C3100 C 0.95896 0.29216 0.38215 0.0
C3101 C 0.00213 0.28552 0.36833 0.0
C3102 C 0.90612 0.26956 0.42109 0.0
C3103 C 0.91961 0.27601 0.41289 0.0
C3104 C 0.94497 0.2645 0.39739 0.0
C3105 C 0.98258 0.29022 0.37822 0.0
C3106 C 0.96682 0.28411 0.38399 0.0
C3107 C 0.92198 0.26656 0.4023 0.0
C3108 C 0.93724 0.27259 0.39566 0.0
H3109 H 0.01696 0.32438 0.37539 0.0
H3110 H 0.99075 0.31463 0.38344 0.0
H3111 H 0.9654 0.26391 0.39382 0.0
H3112 H 0.88797 0.23218 0.40482 0.0
H3113 H 0.91167 0.24337 0.39089 0.0
C3114 C 0.05217 0.37354 0.33585 0.0
C3115 C 0.05838 0.37597 0.35167 0.0
C3116 C 0.04764 0.38332 0.32977 0.0
C3117 C 0.05326 0.42186 0.33383 0.0
H3118 H 0.01158 0.40139 0.31262 0.0
C3119 C 0.0271 0.45644 0.30795 0.0
C3120 C 0.01802 0.45033 0.2934 0.0
C3121 C 0.0319 0.44776 0.31626 0.0
C3122 C 0.02332 0.40732 0.31833 0.0
H3123 H 0.06526 0.39097 0.37333 0.0
H3124 H 0.05756 0.40835 0.36247 0.0
H3125 H 0.02083 0.38588 0.32461 0.0
H3126 H 0.00722 0.43061 0.27593 0.0
H3127 H 0.01583 0.41565 0.29013 0.0
H3128 H 0.05599 0.44328 0.32707 0.0
C3129 C 0.05612 0.39873 0.35491 0.0
C3130 C 0.02857 0.39842 0.32525 0.0
C3131 C 0.06048 0.38878 0.36111 0.0
C3132 C 0.01394 0.43547 0.28728 0.0
C3133 C 0.01885 0.42689 0.29547 0.0
C3134 C 0.04807 0.43079 0.3267 0.0
C3135 C 0.04937 0.39588 0.33928 0.0
C3136 C 0.04365 0.40557 0.33289 0.0
C3137 C 0.02785 0.43287 0.3101 0.0
C3138 C 0.0331 0.4236 0.31866 0.0
H3139 H 0.0504 0.36381 0.32823 0.0
H3140 H 0.04265 0.38099 0.31761 0.0
H3141 H 0.06496 0.42763 0.33961 0.0
H3142 H 0.03035 0.46785 0.31296 0.0
H3143 H 0.03866 0.45266 0.32757 0.0
C3144 C 0.63552 0.64349 0.3345 0.0
C3145 C 0.62815 0.65144 0.32976 0.0
C3146 C 0.62993 0.62832 0.32812 0.0
C3147 C 0.60842 0.60229 0.29291 0.0
H3148 H 0.59397 0.56785 0.31972 0.0
C3149 C 0.56031 0.54075 0.27093 0.0
C3150 C 0.56048 0.52788 0.2763 0.0
C3151 C 0.57162 0.55579 0.27692 0.0
C3152 C 0.59827 0.57735 0.31205 0.0
H3153 H 0.60919 0.64969 0.31462 0.0
H3154 H 0.59973 0.6235 0.30342 0.0
H3155 H 0.60849 0.59461 0.33175 0.0
H3156 H 0.57291 0.52066 0.29181 0.0
H3157 H 0.5929 0.54716 0.30229 0.0
H3158 H 0.598 0.58523 0.27325 0.0
C3159 C 0.60976 0.62896 0.31207 0.0
C3160 C 0.60654 0.59264 0.31895 0.0
C3161 C 0.61512 0.64392 0.31859 0.0
C3162 C 0.57253 0.5304 0.28745 0.0
C3163 C 0.58388 0.54553 0.29352 0.0
C3164 C 0.60031 0.58708 0.28602 0.0
C3165 C 0.61714 0.62105 0.31667 0.0
C3166 C 0.61115 0.60519 0.30945 0.0
C3167 C 0.58345 0.55838 0.28841 0.0
C3168 C 0.59459 0.57441 0.29554 0.0
H3169 H 0.64558 0.649 0.3431 0.0
H3170 H 0.63576 0.62238 0.33188 0.0
H3171 H 0.61208 0.61182 0.28533 0.0
H3172 H 0.55129 0.53918 0.26219 0.0
H3173 H 0.57077 0.56537 0.27288 0.0
C3174 C 0.32837 0.94189 0.36239 0.0
C3175 C 0.32629 0.95178 0.37268 0.0
C3176 C 0.34259 0.94721 0.35593 0.0
C3177 C 0.37846 0.98306 0.3468 0.0
H3178 H 0.39326 0.95488 0.34081 0.0
C3179 C 0.43705 0.00058 0.32026 0.0
C3180 C 0.43609 0.98988 0.30842 0.0
C3181 C 0.42443 0.99666 0.3293 0.0
C3182 C 0.38924 0.96286 0.34236 0.0
H3183 H 0.33764 0.97503 0.38434 0.0
H3184 H 0.36264 0.98428 0.37318 0.0
H3185 H 0.37 0.94676 0.35483 0.0
H3186 H 0.42088 0.96686 0.29654 0.0
H3187 H 0.39909 0.95998 0.31248 0.0
H3188 H 0.39779 0.99914 0.33425 0.0
C3189 C 0.35315 0.97245 0.36998 0.0
C3190 C 0.3759 0.9582 0.35035 0.0
C3191 C 0.33885 0.96712 0.37643 0.0
C3192 C 0.42219 0.97525 0.3058 0.0
C3193 C 0.40967 0.97131 0.3149 0.0
C3194 C 0.3919 0.98776 0.33888 0.0
C3195 C 0.35517 0.96254 0.35963 0.0
C3196 C 0.37016 0.96811 0.35239 0.0
C3197 C 0.41066 0.98194 0.32677 0.0
C3198 C 0.39724 0.97758 0.33631 0.0
H3199 H 0.31893 0.93003 0.35916 0.0
H3200 H 0.34362 0.93935 0.34776 0.0
H3201 H 0.37428 0.99093 0.34804 0.0
H3202 H 0.44763 0.01188 0.32271 0.0
H3203 H 0.42554 0.00504 0.33844 0.0
C3204 C 0.63454 0.96642 0.35119 0.0
C3205 C 0.63765 0.97139 0.36741 0.0
C3206 C 0.62454 0.96897 0.34155 0.0
C3207 C 0.60797 0.99401 0.33957 0.0
H3208 H 0.57928 0.96303 0.30658 0.0
C3209 C 0.57295 0.00716 0.29365 0.0
C3210 C 0.55722 0.99547 0.2899 0.0
C3211 C 0.58295 0.00404 0.3025 0.0
C3212 C 0.58716 0.97177 0.31579 0.0
H3213 H 0.63237 0.9826 0.38629 0.0
H3214 H 0.61477 0.98682 0.36954 0.0
H3215 H 0.59573 0.95754 0.32368 0.0
H3216 H 0.53966 0.97133 0.29256 0.0
H3217 H 0.55705 0.9659 0.30801 0.0
H3218 H 0.59915 0.00809 0.33196 0.0
C3219 C 0.62028 0.98121 0.36419 0.0
C3220 C 0.59671 0.96869 0.3255 0.0
C3221 C 0.63029 0.97869 0.37383 0.0
C3222 C 0.55178 0.98053 0.295 0.0
C3223 C 0.56176 0.97741 0.30388 0.0
C3224 C 0.59842 0.99709 0.32988 0.0
C3225 C 0.6174 0.97653 0.3479 0.0
C3226 C 0.60721 0.97976 0.33754 0.0
C3227 C 0.57744 0.98916 0.30785 0.0
C3228 C 0.58787 0.986 0.31789 0.0
H3229 H 0.64004 0.96081 0.34585 0.0
H3230 H 0.62272 0.96535 0.32902 0.0
H3231 H 0.61607 0.00289 0.34858 0.0
H3232 H 0.57754 0.01874 0.28972 0.0
H3233 H 0.59503 0.01329 0.30512 0.0
C3234 C 0.02627 0.66254 0.34128 0.0
C3235 C 0.03223 0.67623 0.33331 0.0
C3236 C 0.02328 0.64874 0.33342 0.0
C3237 C 0.03214 0.63309 0.29792 0.0
H3238 H 0.99381 0.59493 0.3053 0.0
C3239 C 0.00955 0.57535 0.26012 0.0
C3240 C 0.00389 0.56186 0.26842 0.0
C3241 C 0.01292 0.58936 0.26785 0.0
C3242 C 0.00463 0.60546 0.30321 0.0
H3243 H 0.04004 0.68622 0.31089 0.0
H3244 H 0.03466 0.66211 0.29714 0.0
H3245 H 0.00035 0.61933 0.31937 0.0
H3246 H 0.99751 0.55262 0.2914 0.0
H3247 H 0.00325 0.57698 0.30479 0.0
H3248 H 0.03634 0.61918 0.28169 0.0
C3249 C 0.03245 0.66207 0.30952 0.0
C3250 C 0.0084 0.61944 0.31131 0.0
C3251 C 0.03548 0.67589 0.3174 0.0
C3252 C 0.00154 0.56269 0.28456 0.0
C3253 C 0.00487 0.57668 0.29226 0.0
C3254 C 0.02834 0.6191 0.28979 0.0
C3255 C 0.02615 0.64829 0.31738 0.0
C3256 C 0.02223 0.63342 0.3088 0.0
C3257 C 0.01068 0.59019 0.28402 0.0
C3258 C 0.01456 0.60512 0.29238 0.0
H3259 H 0.02371 0.66241 0.35356 0.0
H3260 H 0.01868 0.63839 0.3399 0.0
H3261 H 0.04297 0.6436 0.29586 0.0
H3262 H 0.01131 0.57506 0.24764 0.0
H3263 H 0.01718 0.59953 0.26113 0.0
C3264 C 0.33192 0.36258 0.35888 0.0
C3265 C 0.32498 0.37154 0.35874 0.0
C3266 C 0.34604 0.36777 0.35215 0.0
C3267 C 0.36888 0.39314 0.32173 0.0
H3268 H 0.40128 0.38657 0.33857 0.0
C3269 C 0.41749 0.40124 0.2839 0.0
C3270 C 0.43279 0.41002 0.29108 0.0
C3271 C 0.40478 0.39575 0.29305 0.0
C3272 C 0.39236 0.38854 0.33378 0.0
H3273 H 0.32786 0.39337 0.35217 0.0
H3274 H 0.35256 0.4025 0.34061 0.0
H3275 H 0.37883 0.37977 0.35377 0.0
H3276 H 0.44682 0.41933 0.3135 0.0
H3277 H 0.4245 0.40976 0.32958 0.0
H3278 H 0.38238 0.40207 0.30188 0.0
C3279 C 0.34693 0.39131 0.34565 0.0
C3280 C 0.37947 0.38455 0.34241 0.0
C3281 C 0.33281 0.38611 0.35235 0.0
C3282 C 0.43513 0.41251 0.30769 0.0
C3283 C 0.42237 0.40704 0.31687 0.0
C3284 C 0.3817 0.39708 0.31312 0.0
C3285 C 0.35353 0.38204 0.34515 0.0
C3286 C 0.36758 0.38679 0.33645 0.0
C3287 C 0.40706 0.39897 0.30959 0.0
C3288 C 0.39354 0.39474 0.31897 0.0
H3289 H 0.32622 0.3513 0.36373 0.0
H3290 H 0.35075 0.36031 0.35185 0.0
H3291 H 0.35984 0.39481 0.31669 0.0
H3292 H 0.41537 0.39893 0.27113 0.0
H3293 H 0.39312 0.38924 0.28712 0.0
C3294 C 0.30116 0.29818 0.37323 0.0
C3295 C 0.29385 0.30392 0.38255 0.0
C3296 C 0.30701 0.2896 0.37987 0.0
C3297 C 0.30511 0.2678 0.41488 0.0
H3298 H 0.34612 0.27751 0.40446 0.0
C3299 C 0.34119 0.25042 0.45321 0.0
C3300 C 0.34833 0.24356 0.4454 0.0
C3301 C 0.33452 0.25733 0.44469 0.0
C3302 C 0.33459 0.27456 0.40735 0.0
H3303 H 0.2866 0.30481 0.40605 0.0
H3304 H 0.29694 0.29009 0.41765 0.0
H3305 H 0.33381 0.28976 0.39093 0.0
H3306 H 0.35448 0.23901 0.42253 0.0
H3307 H 0.34298 0.25135 0.40761 0.0
H3308 H 0.30605 0.25288 0.43154 0.0
C3309 C 0.29799 0.292 0.40516 0.0
C3310 C 0.32751 0.28153 0.39958 0.0
C3311 C 0.29212 0.30052 0.39852 0.0
C3312 C 0.34917 0.24429 0.4289 0.0
C3313 C 0.34254 0.25131 0.42036 0.0
C3314 C 0.31223 0.26092 0.4227 0.0
C3315 C 0.30568 0.2866 0.39598 0.0
C3316 C 0.31276 0.27837 0.4034 0.0
C3317 C 0.33491 0.25765 0.42815 0.0
C3318 C 0.32712 0.26438 0.41917 0.0
H3319 H 0.30264 0.30054 0.36087 0.0
H3320 H 0.31265 0.28541 0.37241 0.0
H3321 H 0.29363 0.26486 0.41789 0.0
H3322 H 0.34066 0.25038 0.46596 0.0
H3323 H 0.32904 0.26244 0.45107 0.0
C3324 C 0.69966 0.01795 0.40403 0.0
C3325 C 0.70848 0.01085 0.40401 0.0
C3326 C 0.70655 0.03354 0.4098 0.0
C3327 C 0.74011 0.06321 0.43643 0.0
H3328 H 0.73403 0.09337 0.41565 0.0
C3329 C 0.78361 0.12825 0.44702 0.0
C3330 C 0.77792 0.13786 0.45118 0.0
C3331 C 0.77341 0.11276 0.44156 0.0
C3332 C 0.73563 0.08498 0.42167 0.0
H3333 H 0.73159 0.01474 0.40921 0.0
H3334 H 0.74355 0.04174 0.41889 0.0
H3335 H 0.71928 0.066 0.40516 0.0
H3336 H 0.75697 0.13876 0.45226 0.0
H3337 H 0.73906 0.11154 0.44223 0.0
H3338 H 0.75683 0.08217 0.45255 0.0
C3339 C 0.73124 0.03525 0.41492 0.0
C3340 C 0.72721 0.06936 0.41569 0.0
C3341 C 0.7244 0.01977 0.40926 0.0
C3342 C 0.76174 0.1317 0.44913 0.0
C3343 C 0.75149 0.11615 0.44344 0.0
C3344 C 0.74856 0.07874 0.44228 0.0
C3345 C 0.72235 0.04223 0.41562 0.0
C3346 C 0.72972 0.05841 0.42277 0.0
C3347 C 0.75726 0.10651 0.43988 0.0
C3348 C 0.74671 0.08984 0.43473 0.0
H3349 H 0.68737 0.01136 0.40005 0.0
H3350 H 0.69941 0.03862 0.41018 0.0
H3351 H 0.74198 0.05498 0.44244 0.0
H3352 H 0.79601 0.1327 0.44794 0.0
H3353 H 0.77817 0.10564 0.43858 0.0
C3354 C 0.98226 0.70958 0.3635 0.0
C3355 C 0.99167 0.70438 0.35766 0.0
C3356 C 0.96717 0.69895 0.36741 0.0
C3357 C 0.94374 0.65962 0.38038 0.0
H3358 H 0.91019 0.66748 0.37444 0.0
C3359 C 0.89445 0.63943 0.42168 0.0
C3360 C 0.8796 0.6357 0.41557 0.0
C3361 C 0.90659 0.64434 0.4118 0.0
C3362 C 0.9193 0.6649 0.37596 0.0
H3363 H 0.99239 0.68387 0.35088 0.0
H3364 H 0.96599 0.6653 0.35774 0.0
H3365 H 0.9342 0.68312 0.36163 0.0
H3366 H 0.86554 0.63331 0.39421 0.0
H3367 H 0.8868 0.64181 0.37684 0.0
H3368 H 0.92896 0.64162 0.395 0.0
C3369 C 0.97038 0.67763 0.35938 0.0
C3370 C 0.93314 0.674 0.36877 0.0
C3371 C 0.98547 0.68827 0.35539 0.0
C3372 C 0.87687 0.63607 0.39921 0.0
C3373 C 0.88906 0.64107 0.38932 0.0
C3374 C 0.92991 0.65054 0.3876 0.0
C3375 C 0.96113 0.68286 0.36562 0.0
C3376 C 0.94568 0.67176 0.37127 0.0
C3377 C 0.90416 0.64567 0.3956 0.0
C3378 C 0.91771 0.65337 0.38584 0.0
H3379 H 0.98665 0.7219 0.36537 0.0
H3380 H 0.96045 0.70338 0.3724 0.0
H3381 H 0.9532 0.65764 0.38261 0.0
H3382 H 0.89683 0.63911 0.43423 0.0
H3383 H 0.91809 0.64791 0.41707 0.0
C3384 C 0.36705 0.01439 0.69222 0.0
C3385 C 0.36403 0.02596 0.69697 0.0
C3386 C 0.37734 0.01199 0.7015 0.0
C3387 C 0.39554 0.01916 0.7425 0.0
H3388 H 0.42247 0.00785 0.72287 0.0
C3389 C 0.44424 0.01573 0.77771 0.0
C3390 C 0.4459 0.00313 0.77343 0.0
C3391 C 0.43395 0.01835 0.76871 0.0
C3392 C 0.41489 0.01084 0.72852 0.0
H3393 H 0.36982 0.04438 0.71502 0.0
H3394 H 0.38805 0.04043 0.73104 0.0
H3395 H 0.40581 0.01343 0.70628 0.0
H3396 H 0.43797 0.98334 0.75648 0.0
H3397 H 0.41992 0.98787 0.74081 0.0
H3398 H 0.40482 0.01673 0.76477 0.0
C3399 C 0.3822 0.03297 0.7203 0.0
C3400 C 0.40533 0.01404 0.71902 0.0
C3401 C 0.37183 0.03532 0.71105 0.0
C3402 C 0.43683 0.99305 0.76015 0.0
C3403 C 0.42664 0.99575 0.75108 0.0
C3404 C 0.40518 0.01606 0.75201 0.0
C3405 C 0.38496 0.02116 0.71572 0.0
C3406 C 0.39548 0.01818 0.72587 0.0
C3407 C 0.4252 0.00852 0.75517 0.0
C3408 C 0.41491 0.01179 0.74512 0.0
H3409 H 0.36119 0.00691 0.68148 0.0
H3410 H 0.37901 0.00265 0.6977 0.0
H3411 H 0.38791 0.02205 0.7482 0.0
H3412 H 0.45101 0.02363 0.78795 0.0
H3413 H 0.43317 0.02834 0.77212 0.0
C3414 C 0.95849 0.3328 0.72578 0.0
C3415 C 0.96254 0.32308 0.73324 0.0
C3416 C 0.96186 0.34678 0.73357 0.0
C3417 C 0.98817 0.37655 0.76485 0.0
H3418 H 0.95661 0.3874 0.76489 0.0
C3419 C 0.99727 0.43033 0.80214 0.0
C3420 C 0.99078 0.43846 0.79564 0.0
C3421 C 0.99405 0.41627 0.79462 0.0
C3422 C 0.96566 0.3847 0.76481 0.0
H3423 H 0.97331 0.32044 0.75475 0.0
H3424 H 0.97928 0.34491 0.76826 0.0
H3425 H 0.95047 0.36289 0.75145 0.0
H3426 H 0.97644 0.43869 0.77588 0.0
H3427 H 0.97116 0.41448 0.76252 0.0
H3428 H 0.00349 0.39845 0.77791 0.0
C3429 C 0.97352 0.3417 0.75638 0.0
C3430 C 0.96209 0.37061 0.75714 0.0
C3431 C 0.97 0.32764 0.74867 0.0
C3432 C 0.98137 0.4325 0.78129 0.0
C3433 C 0.97829 0.41858 0.77369 0.0
C3434 C 0.9918 0.39073 0.77238 0.0
C3435 C 0.9695 0.35142 0.74891 0.0
C3436 C 0.9733 0.36638 0.75708 0.0
C3437 C 0.98442 0.41016 0.78034 0.0
C3438 C 0.98059 0.39501 0.77244 0.0
H3439 H 0.95274 0.32962 0.7139 0.0
H3440 H 0.95872 0.35411 0.72749 0.0
H3441 H 0.9971 0.37366 0.76484 0.0
H3442 H 0.00449 0.43464 0.81325 0.0
H3443 H 0.99883 0.41003 0.80019 0.0
C3444 C 0.67262 0.64116 0.70643 0.0
C3445 C 0.67974 0.63243 0.70485 0.0
C3446 C 0.65832 0.63492 0.7131 0.0
C3447 C 0.6347 0.60538 0.74025 0.0
H3448 H 0.60183 0.61211 0.72554 0.0
C3449 C 0.57589 0.57502 0.76711 0.0
C3450 C 0.56962 0.58413 0.77109 0.0
C3451 C 0.5884 0.58062 0.75767 0.0
C3452 C 0.61097 0.61026 0.72984 0.0
H3453 H 0.67702 0.61002 0.70833 0.0
H3454 H 0.65205 0.5991 0.71974 0.0
H3455 H 0.62538 0.62231 0.71125 0.0
H3456 H 0.57111 0.606 0.7678 0.0
H3457 H 0.59321 0.61591 0.75131 0.0
H3458 H 0.6205 0.59348 0.75888 0.0
C3459 C 0.65767 0.61089 0.71614 0.0
C3460 C 0.62444 0.61608 0.72167 0.0
C3461 C 0.67195 0.61713 0.70952 0.0
C3462 C 0.57572 0.59873 0.76488 0.0
C3463 C 0.58833 0.60438 0.75544 0.0
C3464 C 0.6213 0.59958 0.74838 0.0
C3465 C 0.65084 0.61982 0.71831 0.0
C3466 C 0.63642 0.61363 0.72675 0.0
C3467 C 0.595 0.59549 0.75202 0.0
C3468 C 0.60923 0.60186 0.74324 0.0
H3469 H 0.6783 0.65299 0.70294 0.0
H3470 H 0.65341 0.64213 0.7147 0.0
H3471 H 0.64386 0.60361 0.74473 0.0
H3472 H 0.57119 0.56357 0.77142 0.0
H3473 H 0.59302 0.57333 0.75493 0.0
C3474 C 0.71151 0.71432 0.6946 0.0
C3475 C 0.71236 0.70358 0.68433 0.0
C3476 C 0.70455 0.72236 0.68914 0.0
C3477 C 0.67493 0.71833 0.65967 0.0
H3478 H 0.69533 0.76321 0.66515 0.0
C3479 C 0.65166 0.75113 0.62561 0.0
C3480 C 0.65378 0.76496 0.63266 0.0
C3481 C 0.65818 0.74353 0.63309 0.0
C3482 C 0.6893 0.75064 0.66378 0.0
H3483 H 0.70684 0.69309 0.66019 0.0
H3484 H 0.69453 0.70692 0.65081 0.0
H3485 H 0.70836 0.75055 0.67609 0.0
H3486 H 0.66392 0.78145 0.65327 0.0
H3487 H 0.67487 0.76789 0.66669 0.0
H3488 H 0.65575 0.71822 0.64767 0.0
C3489 C 0.69925 0.70912 0.66306 0.0
C3490 C 0.69684 0.74343 0.66998 0.0
C3491 C 0.70641 0.70129 0.66842 0.0
C3492 C 0.66219 0.77083 0.64756 0.0
C3493 C 0.66855 0.76311 0.65516 0.0
C3494 C 0.66729 0.72549 0.65369 0.0
C3495 C 0.6981 0.71958 0.6734 0.0
C3496 C 0.68982 0.72724 0.66774 0.0
C3497 C 0.66683 0.74948 0.64791 0.0
C3498 C 0.67447 0.74177 0.65541 0.0
H3499 H 0.716 0.71634 0.70691 0.0
H3500 H 0.70379 0.73037 0.69734 0.0
H3501 H 0.66916 0.70578 0.65801 0.0
H3502 H 0.64547 0.74651 0.61399 0.0
H3503 H 0.65685 0.73327 0.62694 0.0
C3504 C 0.27598 0.97777 0.671 0.0
C3505 C 0.29203 0.98725 0.66946 0.0
C3506 C 0.26826 0.96174 0.6675 0.0
C3507 C 0.27422 0.92884 0.65833 0.0
H3508 H 0.23246 0.91025 0.63779 0.0
C3509 C 0.23768 0.86843 0.6217 0.0
C3510 C 0.22221 0.85906 0.62573 0.0
C3511 C 0.24731 0.88356 0.62879 0.0
C3512 C 0.24407 0.91528 0.64362 0.0
H3513 H 0.31275 0.98745 0.66352 0.0
H3514 H 0.29913 0.95945 0.65661 0.0
H3515 H 0.24709 0.9377 0.6466 0.0
H3516 H 0.20519 0.85782 0.64128 0.0
H3517 H 0.22181 0.88436 0.65313 0.0
H3518 H 0.27119 0.90624 0.65449 0.0
C3519 C 0.29254 0.9643 0.66095 0.0
C3520 C 0.25245 0.931 0.6488 0.0
C3521 C 0.30035 0.98035 0.66484 0.0
C3522 C 0.21688 0.86486 0.63756 0.0
C3523 C 0.2264 0.88 0.64445 0.0
C3524 C 0.26589 0.91309 0.65285 0.0
C3525 C 0.27631 0.95482 0.66193 0.0
C3526 C 0.26758 0.938 0.6564 0.0
C3527 C 0.24156 0.88957 0.63987 0.0
C3528 C 0.25069 0.90619 0.6456 0.0
H3529 H 0.26935 0.98278 0.6748 0.0
H3530 H 0.25588 0.95481 0.66894 0.0
H3531 H 0.28577 0.93375 0.66424 0.0
H3532 H 0.24213 0.86436 0.61258 0.0
H3533 H 0.25895 0.8908 0.62503 0.0
C3534 C 0.01426 0.30781 0.71121 0.0
C3535 C 0.00582 0.29158 0.70776 0.0
C3536 C 0.02973 0.31695 0.70731 0.0
C3537 C 0.06323 0.31392 0.69581 0.0
H3538 H 0.07528 0.35138 0.67437 0.0
C3539 C 0.10785 0.33614 0.64984 0.0
C3540 C 0.12082 0.35144 0.65245 0.0
C3541 C 0.09522 0.33088 0.65903 0.0
C3542 C 0.07214 0.34109 0.68059 0.0
H3543 H 0.0071 0.27225 0.69773 0.0
H3544 H 0.0337 0.28806 0.69075 0.0
H3545 H 0.0504 0.33811 0.68654 0.0
H3546 H 0.13027 0.37338 0.66649 0.0
H3547 H 0.10764 0.36419 0.68221 0.0
H3548 H 0.08449 0.31637 0.68896 0.0
C3549 C 0.0286 0.29378 0.69672 0.0
C3550 C 0.05795 0.33351 0.68759 0.0
C3551 C 0.01324 0.28469 0.70062 0.0
C3552 C 0.12048 0.36155 0.66411 0.0
C3553 C 0.10761 0.35631 0.67316 0.0
C3554 C 0.07725 0.32136 0.68866 0.0
C3555 C 0.03704 0.31003 0.69994 0.0
C3556 C 0.05311 0.31954 0.69482 0.0
C3557 C 0.09503 0.34085 0.67084 0.0
C3558 C 0.08161 0.33474 0.68062 0.0
H3559 H 0.00888 0.31347 0.71672 0.0
H3560 H 0.03594 0.32942 0.71004 0.0
H3561 H 0.06006 0.30343 0.70164 0.0
H3562 H 0.10739 0.32815 0.64063 0.0
H3563 H 0.08548 0.31898 0.65683 0.0
C3564 C 0.28748 0.2921 0.68428 0.0
C3565 C 0.30348 0.30193 0.68889 0.0
C3566 C 0.27929 0.29776 0.67609 0.0
C3567 C 0.28128 0.33448 0.66793 0.0
H3568 H 0.24989 0.30883 0.63378 0.0
C3569 C 0.251 0.35792 0.62807 0.0
C3570 C 0.23477 0.34809 0.62476 0.0
C3571 C 0.25972 0.35239 0.63539 0.0
C3572 C 0.25854 0.31609 0.64337 0.0
H3573 H 0.32346 0.32542 0.68833 0.0
H3574 H 0.30927 0.33518 0.6739 0.0
H3575 H 0.26433 0.2989 0.64758 0.0
H3576 H 0.21498 0.32479 0.62685 0.0
H3577 H 0.23018 0.31517 0.63943 0.0
H3578 H 0.27548 0.35166 0.6637 0.0
C3579 C 0.30296 0.32316 0.67683 0.0
C3580 C 0.26679 0.31039 0.65131 0.0
C3581 C 0.31112 0.31752 0.68504 0.0
C3582 C 0.2275 0.3326 0.62888 0.0
C3583 C 0.23621 0.32707 0.63614 0.0
C3584 C 0.27306 0.3402 0.65996 0.0
C3585 C 0.28693 0.31338 0.67229 0.0
C3586 C 0.27823 0.31949 0.66373 0.0
C3587 C 0.25241 0.33691 0.63953 0.0
C3588 C 0.26154 0.33104 0.64764 0.0
H3589 H 0.28122 0.28005 0.68709 0.0
H3590 H 0.26691 0.28995 0.67296 0.0
H3591 H 0.28983 0.34172 0.67759 0.0
H3592 H 0.25699 0.36987 0.62491 0.0
H3593 H 0.27222 0.36021 0.63769 0.0
C3594 C 0.69676 0.0006 0.64346 0.0
C3595 C 0.69404 0.00269 0.65922 0.0
C3596 C 0.6907 0.98565 0.63627 0.0
C3597 C 0.66014 0.94435 0.63968 0.0
H3598 H 0.68504 0.93625 0.61215 0.0
C3599 C 0.6435 0.88227 0.61746 0.0
C3600 C 0.64634 0.87999 0.60181 0.0
C3601 C 0.64851 0.8972 0.62403 0.0
C3602 C 0.67785 0.93836 0.61964 0.0
H3603 H 0.68299 0.99068 0.67983 0.0
H3604 H 0.67266 0.96465 0.66738 0.0
H3605 H 0.69573 0.96233 0.62464 0.0
H3606 H 0.65605 0.89155 0.58056 0.0
H3607 H 0.66481 0.9176 0.59203 0.0
H3608 H 0.64232 0.92031 0.63478 0.0
C3609 C 0.67924 0.97455 0.66048 0.0
C3610 C 0.68399 0.95332 0.62682 0.0
C3611 C 0.68527 0.9895 0.66766 0.0
C3612 C 0.6539 0.89294 0.59274 0.0
C3613 C 0.65894 0.90787 0.59931 0.0
C3614 C 0.65401 0.92937 0.63253 0.0
C3615 C 0.68181 0.97243 0.64467 0.0
C3616 C 0.67522 0.95651 0.63695 0.0
C3617 C 0.65652 0.91021 0.61512 0.0
C3618 C 0.66281 0.9262 0.62244 0.0
H3619 H 0.70341 0.01051 0.63658 0.0
H3620 H 0.69276 0.98446 0.62402 0.0
H3621 H 0.65296 0.94645 0.64721 0.0
H3622 H 0.63791 0.87258 0.62485 0.0
H3623 H 0.6466 0.89862 0.63629 0.0
C3624 C 0.00499 0.71896 0.68749 0.0
C3625 C 0.99532 0.70441 0.69346 0.0
C3626 C 0.01929 0.72274 0.68193 0.0
C3627 C 0.03862 0.70399 0.665 0.0
H3628 H 0.07554 0.74549 0.67094 0.0
C3629 C 0.10637 0.74146 0.64621 0.0
C3630 C 0.10349 0.73762 0.62977 0.0
C3631 C 0.09396 0.7361 0.65585 0.0
C3632 C 0.06541 0.73378 0.66936 0.0
H3633 H 0.9934 0.68268 0.69885 0.0
H3634 H 0.01832 0.68932 0.68921 0.0
H3635 H 0.05263 0.73932 0.68494 0.0
H3636 H 0.08554 0.72452 0.61062 0.0
H3637 H 0.06388 0.71515 0.62742 0.0
H3638 H 0.05129 0.69851 0.64924 0.0
C3639 C 0.01475 0.69771 0.68864 0.0
C3640 C 0.05223 0.73031 0.67723 0.0
C3641 C 0.0005 0.69395 0.69423 0.0
C3642 C 0.08806 0.7277 0.62326 0.0
C3643 C 0.07568 0.72226 0.6329 0.0
C3644 C 0.05175 0.70748 0.65708 0.0
C3645 C 0.02419 0.71204 0.6822 0.0
C3646 C 0.03862 0.71544 0.67494 0.0
C3647 C 0.07847 0.72671 0.64923 0.0
C3648 C 0.06519 0.72248 0.65897 0.0
H3649 H 0.00136 0.72729 0.68674 0.0
H3650 H 0.02624 0.73382 0.6769 0.0
H3651 H 0.02827 0.69246 0.66288 0.0
H3652 H 0.11816 0.7492 0.6515 0.0
H3653 H 0.09645 0.7396 0.66842 0.0
C3654 C 0.92877 0.61319 0.72332 0.0
C3655 C 0.94092 0.6285 0.72147 0.0
C3656 C 0.93209 0.60217 0.72853 0.0
C3657 C 0.96416 0.59442 0.73303 0.0
H3658 H 0.94052 0.56844 0.76595 0.0
C3659 C 0.98674 0.56442 0.77311 0.0
C3660 C 0.976 0.54937 0.77737 0.0
C3661 C 0.98164 0.57271 0.76457 0.0
C3662 C 0.94708 0.57543 0.75658 0.0
H3663 H 0.96611 0.64416 0.72348 0.0
H3664 H 0.97181 0.62512 0.73267 0.0
H3665 H 0.93286 0.58528 0.75404 0.0
H3666 H 0.95154 0.53101 0.77546 0.0
H3667 H 0.94264 0.54555 0.76063 0.0
H3668 H 0.9786 0.58484 0.73584 0.0
C3669 C 0.95973 0.62151 0.72991 0.0
C3670 C 0.94268 0.58507 0.74975 0.0
C3671 C 0.95643 0.63248 0.72474 0.0
C3672 C 0.96009 0.54269 0.77259 0.0
C3673 C 0.95498 0.551 0.76409 0.0
C3674 C 0.96857 0.58481 0.73989 0.0
C3675 C 0.94762 0.60624 0.73192 0.0
C3676 C 0.95134 0.59488 0.73809 0.0
C3677 C 0.96569 0.56616 0.76012 0.0
C3678 C 0.96025 0.5754 0.75192 0.0
H3679 H 0.9167 0.60974 0.72086 0.0
H3680 H 0.9225 0.59046 0.72984 0.0
H3681 H 0.97089 0.60161 0.72386 0.0
H3682 H 0.99905 0.57001 0.7768 0.0
H3683 H 0.99017 0.58446 0.7619 0.0
C3684 C 0.3716 0.35313 0.73888 0.0
C3685 C 0.37579 0.34268 0.74412 0.0
C3686 C 0.37969 0.3686 0.74525 0.0
C3687 C 0.41758 0.39808 0.76617 0.0
H3688 H 0.39682 0.42021 0.77603 0.0
C3689 C 0.45034 0.45721 0.80148 0.0
C3690 C 0.44872 0.46909 0.79548 0.0
C3691 C 0.44036 0.44178 0.79562 0.0
C3692 C 0.40276 0.41419 0.77321 0.0
H3693 H 0.39144 0.34018 0.76052 0.0
H3694 H 0.4053 0.36695 0.77172 0.0
H3695 H 0.38143 0.39317 0.76482 0.0
H3696 H 0.43492 0.47403 0.77912 0.0
H3697 H 0.41734 0.44689 0.76883 0.0
H3698 H 0.43885 0.41896 0.77458 0.0
C3699 C 0.39601 0.36334 0.76246 0.0
C3700 C 0.39397 0.39874 0.76677 0.0
C3701 C 0.388 0.34794 0.75607 0.0
C3702 C 0.4364 0.4651 0.784 0.0
C3703 C 0.42636 0.44959 0.77812 0.0
C3704 C 0.42631 0.41344 0.77263 0.0
C3705 C 0.39211 0.37391 0.75699 0.0
C3706 C 0.40129 0.39047 0.76333 0.0
C3707 C 0.4285 0.43783 0.78361 0.0
C3708 C 0.41901 0.42162 0.77638 0.0
H3709 H 0.36223 0.34944 0.72969 0.0
H3710 H 0.37646 0.37649 0.74071 0.0
H3711 H 0.42364 0.3922 0.7633 0.0
H3712 H 0.4595 0.45988 0.81059 0.0
H3713 H 0.44206 0.43292 0.80035 0.0
C3714 C 0.66285 0.03406 0.68709 0.0
C3715 C 0.67225 0.05 0.68483 0.0
C3716 C 0.64844 0.02819 0.69349 0.0
C3717 C 0.62893 0.04196 0.71894 0.0
H3718 H 0.59193 0.00133 0.70747 0.0
C3719 C 0.57191 0.02334 0.74684 0.0
C3720 C 0.56409 0.00847 0.75258 0.0
C3721 C 0.58392 0.02756 0.73693 0.0
C3722 C 0.60222 0.01266 0.71084 0.0
H3723 H 0.67342 0.07205 0.68635 0.0
H3724 H 0.64824 0.06179 0.69709 0.0
H3725 H 0.61503 0.01029 0.69263 0.0
H3726 H 0.5623 0.98614 0.75194 0.0
H3727 H 0.58344 0.99358 0.73459 0.0
H3728 H 0.61632 0.04436 0.73717 0.0
C3729 C 0.65216 0.05389 0.69442 0.0
C3730 C 0.61543 0.01779 0.70236 0.0
C3731 C 0.66656 0.05976 0.68818 0.0
C3732 C 0.5681 0.99767 0.74765 0.0
C3733 C 0.58017 0.00192 0.73771 0.0
C3734 C 0.61578 0.03687 0.72734 0.0
C3735 C 0.64315 0.03815 0.69763 0.0
C3736 C 0.62891 0.03254 0.70629 0.0
C3737 C 0.58842 0.01703 0.73253 0.0
C3738 C 0.60226 0.02221 0.72337 0.0
H3739 H 0.66692 0.02625 0.68462 0.0
H3740 H 0.64182 0.01603 0.69587 0.0
H3741 H 0.63924 0.0532 0.72259 0.0
H3742 H 0.56884 0.03179 0.75014 0.0
H3743 H 0.58982 0.03918 0.73285 0.0
loop_
_geom_bond_atom_site_label_1
_geom_bond_atom_site_label_2
_geom_bond_distance
_geom_bond_site_symmetry_2
_ccdc_geom_bond_type
Zn0 O3 2.031 . S
Zn0 O5 2.049 . S
Zn0 O10 2.067 . S
Zn1 O2 1.962 1_455 S
Zn1 O4 1.986 . S
Zn1 O6 1.996 1_455 S
Zn1 O9 1.943 . S
O2 Zn1 1.962 1_655 S
O2 C7 1.254 . S
O3 Zn0 2.031 . S
O3 C7 1.269 . S
O4 Zn1 1.986 . S
O4 C11 1.262 . S
O5 Zn0 2.049 . S
O5 C13 1.260 . S
O6 Zn1 1.996 1_655 S
O6 C13 1.257 . S
C7 O2 1.254 . S
C7 O3 1.269 . S
C8 O9 1.249 . S
C8 O10 1.270 1_455 S
O9 Zn1 1.943 . S
O9 C8 1.249 . S
O10 Zn0 2.067 . S
O10 C8 1.270 1_655 S
C11 O4 1.262 . S
C11 O12 1.232 . S
O12 C11 1.232 . S
C13 O5 1.260 . S
C13 O6 1.257 . S
Zn14 O17 2.031 . S
Zn14 O19 2.049 . S
Zn14 O24 2.067 . S
Zn15 O16 1.962 . S
Zn15 O18 1.986 . S
Zn15 O20 1.996 . S
Zn15 O23 1.943 . S
O16 Zn15 1.962 . S
O16 C21 1.254 . S
O17 Zn14 2.031 . S
O17 C21 1.269 . S
O18 Zn15 1.986 . S
O18 C25 1.262 . S
O19 Zn14 2.049 . S
O19 C27 1.260 . S
O20 Zn15 1.996 . S
O20 C27 1.257 . S
C21 O16 1.254 . S
C21 O17 1.269 . S
C22 O23 1.249 . S
C22 O24 1.270 . S
O23 Zn15 1.943 . S
O23 C22 1.249 . S
O24 Zn14 2.067 . S
O24 C22 1.270 . S
C25 O18 1.262 . S
C25 O26 1.232 . S
O26 C25 1.232 . S
C27 O19 1.260 . S
C27 O20 1.257 . S
Zn28 O31 2.031 . S
Zn28 O33 2.049 . S
Zn28 O38 2.070 1_565 S
Zn29 O30 1.962 1_545 S
Zn29 O32 1.986 . S
Zn29 O34 1.996 1_545 S
Zn29 O37 1.943 . S
O30 Zn29 1.962 1_565 S
O30 C35 1.254 . S
O31 Zn28 2.031 . S
O31 C35 1.269 . S
O32 Zn29 1.986 . S
O32 C39 1.262 . S
O33 Zn28 2.049 . S
O33 C41 1.287 . S
O34 Zn29 1.996 1_565 S
O34 C41 1.275 . S
C35 O30 1.254 . S
C35 O31 1.269 . S
C36 O37 1.249 . S
C36 O38 1.264 . S
O37 Zn29 1.943 . S
O37 C36 1.249 . S
O38 Zn28 2.070 1_545 S
O38 C36 1.264 . S
C39 O32 1.262 . S
C39 O40 1.232 . S
O40 C39 1.232 . S
C41 O33 1.287 . S
C41 O34 1.275 . S
Zn42 O45 2.031 . S
Zn42 O47 2.049 . S
Zn42 O52 2.067 . S
Zn43 O44 1.962 1_655 S
Zn43 O46 1.986 . S
Zn43 O48 1.996 1_655 S
Zn43 O51 1.943 . S
O44 Zn43 1.962 1_455 S
O44 C49 1.254 . S
O45 Zn42 2.031 . S
O45 C49 1.269 . S
O46 Zn43 1.986 . S
O46 C53 1.262 . S
O47 Zn42 2.049 . S
O47 C55 1.260 . S
O48 Zn43 1.996 1_455 S
O48 C55 1.257 . S
C49 O44 1.254 . S
C49 O45 1.269 . S
C50 O51 1.249 . S
C50 O52 1.270 1_655 S
O51 Zn43 1.943 . S
O51 C50 1.249 . S
O52 Zn42 2.067 . S
O52 C50 1.270 1_455 S
C53 O46 1.262 . S
C53 O54 1.232 . S
O54 C53 1.232 . S
C55 O47 1.260 . S
C55 O48 1.257 . S
Zn56 O59 2.031 . S
Zn56 O61 2.049 1_554 S
Zn56 O66 2.067 . S
Zn57 O58 1.962 . S
Zn57 O60 1.986 1_554 S
Zn57 O62 1.996 1_554 S
Zn57 O65 1.943 . S
O58 Zn57 1.962 . S
O58 C63 1.254 . S
O59 Zn56 2.031 . S
O59 C63 1.269 . S
O60 Zn57 1.986 1_556 S
O60 C67 1.262 . S
O61 Zn56 2.049 1_556 S
O61 C69 1.260 . S
O62 Zn57 1.996 1_556 S
O62 C69 1.257 . S
C63 O58 1.254 . S
C63 O59 1.269 . S
C64 O65 1.249 . S
C64 O66 1.270 . S
O65 Zn57 1.943 . S
O65 C64 1.249 . S
O66 Zn56 2.067 . S
O66 C64 1.270 . S
C67 O60 1.262 . S
C67 O68 1.232 1_556 S
O68 C67 1.232 1_554 S
C69 O61 1.260 . S
C69 O62 1.257 . S
Zn70 O73 2.031 . S
Zn70 O75 2.049 . S
Zn70 O80 2.067 . S
Zn71 O72 1.962 1_565 S
Zn71 O74 1.986 . S
Zn71 O76 1.996 1_565 S
Zn71 O79 1.943 . S
O72 Zn71 1.962 1_545 S
O72 C77 1.254 . S
O73 Zn70 2.031 . S
O73 C77 1.269 . S
O74 Zn71 1.986 . S
O74 C81 1.262 . S
O75 Zn70 2.049 . S
O75 C83 1.260 . S
O76 Zn71 1.996 1_545 S
O76 C83 1.257 . S
C77 O72 1.254 . S
C77 O73 1.269 . S
C78 O79 1.249 . S
C78 O80 1.270 1_565 S
O79 Zn71 1.943 . S
O79 C78 1.249 . S
O80 Zn70 2.067 . S
O80 C78 1.270 1_545 S
C81 O74 1.262 . S
C81 O82 1.232 . S
O82 C81 1.232 . S
C83 O75 1.260 . S
C83 O76 1.257 . S
Zn84 O87 2.031 . S
Zn84 O89 2.049 . S
Zn84 O94 2.067 . S
Zn85 O86 1.962 . S
Zn85 O88 1.986 . S
Zn85 O90 1.996 . S
Zn85 O93 1.943 . S
O86 Zn85 1.962 . S
O86 C91 1.254 . S
O87 Zn84 2.031 . S
O87 C91 1.269 . S
O88 Zn85 1.986 . S
O88 C95 1.262 . S
O89 Zn84 2.049 . S
O89 C97 1.260 . S
O90 Zn85 1.996 . S
O90 C97 1.257 . S
C91 O86 1.254 . S
C91 O87 1.269 . S
C92 O93 1.249 . S
C92 O94 1.270 . S
O93 Zn85 1.943 . S
O93 C92 1.249 . S
O94 Zn84 2.067 . S
O94 C92 1.270 . S
C95 O88 1.262 . S
C95 O96 1.232 . S
O96 C95 1.232 . S
C97 O89 1.260 . S
C97 O90 1.257 . S
Zn98 O101 2.031 . S
Zn98 O103 2.049 . S
Zn98 O108 2.067 . S
Zn99 O100 1.962 . S
Zn99 O102 1.986 . S
Zn99 O104 1.996 . S
Zn99 O107 1.943 . S
O100 Zn99 1.962 . S
O100 C105 1.254 . S
O101 Zn98 2.031 . S
O101 C105 1.269 . S
O102 Zn99 1.986 . S
O102 C109 1.262 . S
O103 Zn98 2.049 . S
O103 C111 1.260 . S
O104 Zn99 1.996 . S
O104 C111 1.257 . S
C105 O100 1.254 . S
C105 O101 1.269 . S
C106 O107 1.249 . S
C106 O108 1.270 . S
O107 Zn99 1.943 . S
O107 C106 1.249 . S
O108 Zn98 2.067 . S
O108 C106 1.270 . S
C109 O102 1.262 . S
C109 O110 1.232 . S
O110 C109 1.232 . S
C111 O103 1.260 . S
C111 O104 1.257 . S
Zn112 O115 2.031 . S
Zn112 O117 2.049 . S
Zn112 O122 2.067 . S
Zn113 O114 1.962 . S
Zn113 O116 1.986 . S
Zn113 O118 1.996 . S
Zn113 O121 1.943 . S
O114 Zn113 1.962 . S
O114 C119 1.254 . S
O115 Zn112 2.031 . S
O115 C119 1.269 . S
O116 Zn113 1.986 . S
O116 C123 1.262 . S
O117 Zn112 2.049 . S
O117 C125 1.260 . S
O118 Zn113 1.996 . S
O118 C125 1.257 . S
C119 O114 1.254 . S
C119 O115 1.269 . S
C120 O121 1.249 . S
C120 O122 1.270 . S
O121 Zn113 1.943 . S
O121 C120 1.249 . S
O122 Zn112 2.067 . S
O122 C120 1.270 . S
C123 O116 1.262 . S
C123 O124 1.232 . S
O124 C123 1.232 . S
C125 O117 1.260 . S
C125 O118 1.257 . S
Zn126 O129 2.031 . S
Zn126 O131 2.049 . S
Zn126 O136 2.067 . S
Zn127 O128 1.962 . S
Zn127 O130 1.986 . S
Zn127 O132 1.996 . S
Zn127 O135 1.943 . S
O128 Zn127 1.962 . S
O128 C133 1.254 . S
O129 Zn126 2.031 . S
O129 C133 1.269 . S
O130 Zn127 1.986 . S
O130 C137 1.262 . S
O131 Zn126 2.049 . S
O131 C139 1.260 . S
O132 Zn127 1.996 . S
O132 C139 1.257 . S
C133 O128 1.254 . S
C133 O129 1.269 . S
C134 O135 1.249 . S
C134 O136 1.270 . S
O135 Zn127 1.943 . S
O135 C134 1.249 . S
O136 Zn126 2.067 . S
O136 C134 1.270 . S
C137 O130 1.262 . S
C137 O138 1.232 . S
O138 C137 1.232 . S
C139 O131 1.260 . S
C139 O132 1.257 . S
Zn140 O143 2.031 . S
Zn140 O145 2.049 . S
Zn140 O150 2.067 . S
Zn141 O142 1.962 . S
Zn141 O144 1.986 . S
Zn141 O146 1.996 . S
Zn141 O149 1.943 . S
O142 Zn141 1.962 . S
O142 C147 1.254 . S
O143 Zn140 2.031 . S
O143 C147 1.269 . S
O144 Zn141 1.986 . S
O144 C151 1.262 . S
O145 Zn140 2.049 . S
O145 C153 1.260 . S
O146 Zn141 1.996 . S
O146 C153 1.257 . S
C147 O142 1.254 . S
C147 O143 1.269 . S
C148 O149 1.249 . S
C148 O150 1.270 . S
O149 Zn141 1.943 . S
O149 C148 1.249 . S
O150 Zn140 2.067 . S
O150 C148 1.270 . S
C151 O144 1.262 . S
C151 O152 1.232 . S
O152 C151 1.232 . S
C153 O145 1.260 . S
C153 O146 1.257 . S
Zn154 O157 2.031 . S
Zn154 O159 2.049 . S
Zn154 O164 2.067 . S
Zn155 O156 1.962 . S
Zn155 O158 1.986 . S
Zn155 O160 1.996 . S
Zn155 O163 1.943 . S
O156 Zn155 1.962 . S
O156 C161 1.254 . S
O157 Zn154 2.031 . S
O157 C161 1.269 . S
O158 Zn155 1.986 . S
O158 C165 1.262 . S
O159 Zn154 2.049 . S
O159 C167 1.260 . S
O160 Zn155 1.996 . S
O160 C167 1.257 . S
C161 O156 1.254 . S
C161 O157 1.269 . S
C162 O163 1.249 . S
C162 O164 1.270 . S
O163 Zn155 1.943 . S
O163 C162 1.249 . S
O164 Zn154 2.067 . S
O164 C162 1.270 . S
C165 O158 1.262 . S
C165 O166 1.232 . S
O166 C165 1.232 . S
C167 O159 1.260 . S
C167 O160 1.257 . S
Zn168 O171 2.031 . S
Zn168 O173 2.049 . S
Zn168 O178 2.067 . S
Zn169 O170 1.962 . S
Zn169 O172 1.986 . S
Zn169 O174 1.996 . S
Zn169 O177 1.943 . S
O170 Zn169 1.962 . S
O170 C175 1.254 . S
O171 Zn168 2.031 . S
O171 C175 1.269 . S
O172 Zn169 1.986 . S
O172 C179 1.262 . S
O173 Zn168 2.049 . S
O173 C181 1.260 . S
O174 Zn169 1.996 . S
O174 C181 1.257 . S
C175 O170 1.254 . S
C175 O171 1.269 . S
C176 O177 1.249 . S
C176 O178 1.270 . S
O177 Zn169 1.943 . S
O177 C176 1.249 . S
O178 Zn168 2.067 . S
O178 C176 1.270 . S
C179 O172 1.262 . S
C179 O180 1.232 . S
O180 C179 1.232 . S
C181 O173 1.260 . S
C181 O174 1.257 . S
Zn182 O185 2.031 . S
Zn182 O187 2.049 . S
Zn182 O192 2.067 . S
Zn183 O184 1.962 . S
Zn183 O186 1.986 . S
Zn183 O188 1.996 . S
Zn183 O191 1.943 . S
O184 Zn183 1.962 . S
O184 C189 1.254 . S
O185 Zn182 2.031 . S
O185 C189 1.269 . S
O186 Zn183 1.986 . S
O186 C193 1.262 . S
O187 Zn182 2.049 . S
O187 C195 1.260 . S
O188 Zn183 1.996 . S
O188 C195 1.257 . S
C189 O184 1.254 . S
C189 O185 1.269 . S
C190 O191 1.249 . S
C190 O192 1.270 . S
O191 Zn183 1.943 . S
O191 C190 1.249 . S
O192 Zn182 2.067 . S
O192 C190 1.270 . S
C193 O186 1.262 . S
C193 O194 1.232 . S
O194 C193 1.232 . S
C195 O187 1.260 . S
C195 O188 1.257 . S
Zn196 O199 2.031 . S
Zn196 O201 2.049 . S
Zn196 O206 2.067 . S
Zn197 O198 1.962 . S
Zn197 O200 1.986 . S
Zn197 O202 1.996 . S
Zn197 O205 1.943 . S
O198 Zn197 1.962 . S
O198 C203 1.254 . S
O199 Zn196 2.031 . S
O199 C203 1.269 . S
O200 Zn197 1.986 . S
O200 C207 1.262 . S
O201 Zn196 2.049 . S
O201 C209 1.260 . S
O202 Zn197 1.996 . S
O202 C209 1.257 . S
C203 O198 1.254 . S
C203 O199 1.269 . S
C204 O205 1.249 . S
C204 O206 1.270 . S
O205 Zn197 1.943 . S
O205 C204 1.249 . S
O206 Zn196 2.067 . S
O206 C204 1.270 . S
C207 O200 1.262 . S
C207 O208 1.232 . S
O208 C207 1.232 . S
C209 O201 1.260 . S
C209 O202 1.257 . S
Zn210 O213 2.031 . S
Zn210 O215 2.049 . S
Zn210 O220 2.067 . S
Zn211 O212 1.962 . S
Zn211 O214 1.986 . S
Zn211 O216 1.996 . S
Zn211 O219 1.943 . S
O212 Zn211 1.962 . S
O212 C217 1.254 . S
O213 Zn210 2.031 . S
O213 C217 1.269 . S
O214 Zn211 1.986 . S
O214 C221 1.262 . S
O215 Zn210 2.049 . S
O215 C223 1.260 . S
O216 Zn211 1.996 . S
O216 C223 1.257 . S
C217 O212 1.254 . S
C217 O213 1.269 . S
C218 O219 1.249 . S
C218 O220 1.270 . S
O219 Zn211 1.943 . S
O219 C218 1.249 . S
O220 Zn210 2.067 . S
O220 C218 1.270 . S
C221 O214 1.262 . S
C221 O222 1.232 . S
O222 C221 1.232 . S
C223 O215 1.260 . S
C223 O216 1.257 . S
Zn224 O227 2.031 . S
Zn224 O229 2.049 . S
Zn224 O234 2.067 . S
Zn225 O226 1.962 . S
Zn225 O228 1.986 . S
Zn225 O230 1.996 . S
Zn225 O233 1.943 . S
O226 Zn225 1.962 . S
O226 C231 1.254 . S
O227 Zn224 2.031 . S
O227 C231 1.269 . S
O228 Zn225 1.986 . S
O228 C235 1.262 . S
O229 Zn224 2.049 . S
O229 C237 1.260 . S
O230 Zn225 1.996 . S
O230 C237 1.257 . S
C231 O226 1.254 . S
C231 O227 1.269 . S
C232 O233 1.249 . S
C232 O234 1.270 . S
O233 Zn225 1.943 . S
O233 C232 1.249 . S
O234 Zn224 2.067 . S
O234 C232 1.270 . S
C235 O228 1.262 . S
C235 O236 1.232 . S
O236 C235 1.232 . S
C237 O229 1.260 . S
C237 O230 1.257 . S
Zn238 O241 2.031 . S
Zn238 O243 2.049 . S
Zn238 O248 2.067 . S
Zn239 O240 1.962 . S
Zn239 O242 1.986 . S
Zn239 O244 1.996 . S
Zn239 O247 1.943 . S
O240 Zn239 1.962 . S
O240 C245 1.254 . S
O241 Zn238 2.031 . S
O241 C245 1.269 . S
O242 Zn239 1.986 . S
O242 C249 1.262 . S
O243 Zn238 2.049 . S
O243 C251 1.260 . S
O244 Zn239 1.996 . S
O244 C251 1.257 . S
C245 O240 1.254 . S
C245 O241 1.269 . S
C246 O247 1.249 . S
C246 O248 1.270 . S
O247 Zn239 1.943 . S
O247 C246 1.249 . S
O248 Zn238 2.067 . S
O248 C246 1.270 . S
C249 O242 1.262 . S
C249 O250 1.232 . S
O250 C249 1.232 . S
C251 O243 1.260 . S
C251 O244 1.257 . S
H252 O278 0.856 . S
H253 O281 0.854 . S
H254 C289 0.930 . S
H255 C290 0.930 . S
H256 C292 0.930 . S
H257 C293 0.930 . S
H258 C295 0.931 . S
H259 C296 0.930 . S
H260 C298 0.930 . S
H261 C299 0.929 . S
H262 C301 0.930 . S
H263 C302 0.931 . S
H264 C304 0.930 . S
H265 C305 0.929 . S
H266 C307 0.931 . S
H267 C308 0.930 . S
H268 C310 0.930 . S
H269 C311 0.932 . S
H270 C313 0.930 . S
H271 C314 0.929 . S
H272 C316 0.931 . S
H273 C317 0.930 . S
H274 C319 0.929 . S
H275 C320 0.931 . S
H276 C322 0.930 . S
H277 C323 0.929 . S
O278 H252 0.856 . S
O278 C324 1.300 . S
O279 C324 1.209 . S
O280 C325 1.199 . S
O281 H253 0.854 . S
O281 C325 1.297 . S
C282 C283 1.404 . S
C282 C287 1.397 . S
C282 C288 1.492 . S
C283 C282 1.404 . S
C283 C284 1.396 . S
C283 C294 1.492 . S
C284 C283 1.396 . S
C284 C285 1.397 . S
C284 C300 1.509 . S
C285 C284 1.397 . S
C285 C286 1.412 . S
C285 C306 1.485 . S
C286 C285 1.412 . S
C286 C287 1.388 . S
C286 C312 1.490 . S
C287 C282 1.397 . S
C287 C286 1.388 . S
C287 C318 1.519 . S
C288 C282 1.492 . S
C288 C289 1.363 . S
C288 C293 1.390 . S
C289 H254 0.930 . S
C289 C288 1.363 . S
C289 C290 1.372 . S
C290 H255 0.930 . S
C290 C289 1.372 . S
C290 C291 1.383 . S
C291 C290 1.383 . S
C291 C292 1.395 . S
C292 H256 0.930 . S
C292 C291 1.395 . S
C292 C293 1.362 . S
C293 H257 0.930 . S
C293 C288 1.390 . S
C293 C292 1.362 . S
C294 C283 1.492 . S
C294 C295 1.377 . S
C294 C299 1.397 . S
C295 H258 0.931 . S
C295 C294 1.377 . S
C295 C296 1.376 . S
C296 H259 0.930 . S
C296 C295 1.376 . S
C296 C297 1.376 . S
C297 C296 1.376 . S
C297 C298 1.378 . S
C297 C324 1.486 . S
C298 H260 0.930 . S
C298 C297 1.378 . S
C298 C299 1.376 . S
C299 H261 0.929 . S
C299 C294 1.397 . S
C299 C298 1.376 . S
C300 C284 1.509 . S
C300 C301 1.391 . S
C300 C305 1.386 . S
C301 H262 0.930 . S
C301 C300 1.391 . S
C301 C302 1.375 . S
C302 H263 0.931 . S
C302 C301 1.375 . S
C302 C303 1.375 . S
C303 C302 1.375 . S
C303 C304 1.361 . S
C304 H264 0.930 . S
C304 C303 1.361 . S
C304 C305 1.399 . S
C305 H265 0.929 . S
C305 C300 1.386 . S
C305 C304 1.399 . S
C306 C285 1.485 . S
C306 C307 1.394 . S
C306 C311 1.360 . S
C307 H266 0.931 . S
C307 C306 1.394 . S
C307 C308 1.372 . S
C308 H267 0.930 . S
C308 C307 1.372 . S
C308 C309 1.397 . S
C309 C308 1.397 . S
C309 C310 1.390 . S
C309 C325 1.476 . S
C310 H268 0.930 . S
C310 C309 1.390 . S
C310 C311 1.366 . S
C311 H269 0.932 . S
C311 C306 1.360 . S
C311 C310 1.366 . S
C312 C286 1.490 . S
C312 C313 1.380 . S
C312 C317 1.386 . S
C313 H270 0.930 . S
C313 C312 1.380 . S
C313 C314 1.381 . S
C314 H271 0.929 . S
C314 C313 1.381 . S
C314 C315 1.371 . S
C315 C314 1.371 . S
C315 C316 1.380 . S
C316 H272 0.931 . S
C316 C315 1.380 . S
C316 C317 1.387 . S
C317 H273 0.930 . S
C317 C312 1.386 . S
C317 C316 1.387 . S
C318 C287 1.519 . S
C318 C319 1.377 . S
C318 C323 1.361 . S
C319 H274 0.929 . S
C319 C318 1.377 . S
C319 C320 1.386 . S
C320 H275 0.931 . S
C320 C319 1.386 . S
C320 C321 1.363 . S
C321 C320 1.363 . S
C321 C322 1.385 . S
C322 H276 0.930 . S
C322 C321 1.385 . S
C322 C323 1.396 . S
C323 H277 0.929 . S
C323 C318 1.361 . S
C323 C322 1.396 . S
C324 O278 1.300 . S
C324 O279 1.209 . S
C324 C297 1.486 . S
C325 O280 1.199 . S
C325 O281 1.297 . S
C325 C309 1.476 . S
H326 O352 0.856 . S
H327 O355 0.854 . S
H328 C363 0.930 . S
H329 C364 0.930 . S
H330 C366 0.930 . S
H331 C367 0.930 . S
H332 C369 0.931 . S
H333 C370 0.930 . S
H334 C372 0.930 . S
H335 C373 0.929 . S
H336 C375 0.930 . S
H337 C376 0.931 . S
H338 C378 0.930 . S
H339 C379 0.929 . S
H340 C381 0.931 . S
H341 C382 0.930 . S
H342 C384 0.930 . S
H343 C385 0.932 . S
H344 C387 0.930 . S
H345 C388 0.929 . S
H346 C390 0.931 . S
H347 C391 0.930 . S
H348 C393 0.929 . S
H349 C394 0.931 . S
H350 C396 0.930 . S
H351 C397 0.929 . S
O352 H326 0.856 . S
O352 C398 1.300 . S
O353 C398 1.209 . S
O354 C399 1.199 . S
O355 H327 0.854 . S
O355 C399 1.297 . S
C356 C357 1.404 . S
C356 C361 1.397 . S
C356 C362 1.492 . S
C357 C356 1.404 . S
C357 C358 1.396 . S
C357 C368 1.492 . S
C358 C357 1.396 . S
C358 C359 1.397 . S
C358 C374 1.509 . S
C359 C358 1.397 . S
C359 C360 1.412 . S
C359 C380 1.485 . S
C360 C359 1.412 . S
C360 C361 1.388 . S
C360 C386 1.490 . S
C361 C356 1.397 . S
C361 C360 1.388 . S
C361 C392 1.519 . S
C362 C356 1.492 . S
C362 C363 1.363 . S
C362 C367 1.390 . S
C363 H328 0.930 . S
C363 C362 1.363 . S
C363 C364 1.372 . S
C364 H329 0.930 . S
C364 C363 1.372 . S
C364 C365 1.383 . S
C365 C364 1.383 . S
C365 C366 1.395 . S
C366 H330 0.930 . S
C366 C365 1.395 . S
C366 C367 1.362 . S
C367 H331 0.930 . S
C367 C362 1.390 . S
C367 C366 1.362 . S
C368 C357 1.492 . S
C368 C369 1.377 . S
C368 C373 1.397 . S
C369 H332 0.931 . S
C369 C368 1.377 . S
C369 C370 1.376 . S
C370 H333 0.930 . S
C370 C369 1.376 . S
C370 C371 1.376 . S
C371 C370 1.376 . S
C371 C372 1.378 . S
C371 C398 1.486 . S
C372 H334 0.930 . S
C372 C371 1.378 . S
C372 C373 1.376 . S
C373 H335 0.929 . S
C373 C368 1.397 . S
C373 C372 1.376 . S
C374 C358 1.509 . S
C374 C375 1.391 . S
C374 C379 1.386 . S
C375 H336 0.930 . S
C375 C374 1.391 . S
C375 C376 1.375 . S
C376 H337 0.931 . S
C376 C375 1.375 . S
C376 C377 1.375 . S
C377 C376 1.375 . S
C377 C378 1.361 . S
C378 H338 0.930 . S
C378 C377 1.361 . S
C378 C379 1.399 . S
C379 H339 0.929 . S
C379 C374 1.386 . S
C379 C378 1.399 . S
C380 C359 1.485 . S
C380 C381 1.394 . S
C380 C385 1.360 . S
C381 H340 0.931 . S
C381 C380 1.394 . S
C381 C382 1.372 . S
C382 H341 0.930 . S
C382 C381 1.372 . S
C382 C383 1.397 . S
C383 C382 1.397 . S
C383 C384 1.390 . S
C383 C399 1.476 . S
C384 H342 0.930 . S
C384 C383 1.390 . S
C384 C385 1.366 . S
C385 H343 0.932 . S
C385 C380 1.360 . S
C385 C384 1.366 . S
C386 C360 1.490 . S
C386 C387 1.380 . S
C386 C391 1.386 . S
C387 H344 0.930 . S
C387 C386 1.380 . S
C387 C388 1.381 . S
C388 H345 0.929 . S
C388 C387 1.381 . S
C388 C389 1.371 . S
C389 C388 1.371 . S
C389 C390 1.380 . S
C390 H346 0.931 . S
C390 C389 1.380 . S
C390 C391 1.387 . S
C391 H347 0.930 . S
C391 C386 1.386 . S
C391 C390 1.387 . S
C392 C361 1.519 . S
C392 C393 1.377 . S
C392 C397 1.361 . S
C393 H348 0.929 . S
C393 C392 1.377 . S
C393 C394 1.386 . S
C394 H349 0.931 . S
C394 C393 1.386 . S
C394 C395 1.363 . S
C395 C394 1.363 . S
C395 C396 1.385 . S
C396 H350 0.930 . S
C396 C395 1.385 . S
C396 C397 1.396 . S
C397 H351 0.929 . S
C397 C392 1.361 . S
C397 C396 1.396 . S
C398 O352 1.300 . S
C398 O353 1.209 . S
C398 C371 1.486 . S
C399 O354 1.199 . S
C399 O355 1.297 . S
C399 C383 1.476 . S
H400 O426 0.856 . S
H401 O429 0.854 . S
H402 C437 0.930 . S
H403 C438 0.930 . S
H404 C440 0.930 . S
H405 C441 0.930 . S
H406 C443 0.931 . S
H407 C444 0.930 . S
H408 C446 0.930 . S
H409 C447 0.929 . S
H410 C449 0.930 . S
H411 C450 0.931 . S
H412 C452 0.930 . S
H413 C453 0.929 . S
H414 C455 0.931 . S
H415 C456 0.930 . S
H416 C458 0.930 . S
H417 C459 0.932 . S
H418 C461 0.930 . S
H419 C462 0.929 . S
H420 C464 0.931 . S
H421 C465 0.930 . S
H422 C467 0.929 . S
H423 C468 0.931 . S
H424 C470 0.930 . S
H425 C471 0.929 . S
O426 H400 0.856 . S
O426 C472 1.300 . S
O427 C472 1.209 . S
O428 C473 1.199 . S
O429 H401 0.854 . S
O429 C473 1.297 . S
C430 C431 1.404 . S
C430 C435 1.397 . S
C430 C436 1.492 . S
C431 C430 1.404 . S
C431 C432 1.396 . S
C431 C442 1.492 . S
C432 C431 1.396 . S
C432 C433 1.397 . S
C432 C448 1.509 . S
C433 C432 1.397 . S
C433 C434 1.412 . S
C433 C454 1.485 . S
C434 C433 1.412 . S
C434 C435 1.388 . S
C434 C460 1.490 . S
C435 C430 1.397 . S
C435 C434 1.388 . S
C435 C466 1.519 . S
C436 C430 1.492 . S
C436 C437 1.363 . S
C436 C441 1.390 . S
C437 H402 0.930 . S
C437 C436 1.363 . S
C437 C438 1.372 . S
C438 H403 0.930 . S
C438 C437 1.372 . S
C438 C439 1.383 . S
C439 C438 1.383 . S
C439 C440 1.395 . S
C440 H404 0.930 . S
C440 C439 1.395 . S
C440 C441 1.362 . S
C441 H405 0.930 . S
C441 C436 1.390 . S
C441 C440 1.362 . S
C442 C431 1.492 . S
C442 C443 1.377 . S
C442 C447 1.397 . S
C443 H406 0.931 . S
C443 C442 1.377 . S
C443 C444 1.376 . S
C444 H407 0.930 . S
C444 C443 1.376 . S
C444 C445 1.376 . S
C445 C444 1.376 . S
C445 C446 1.378 . S
C445 C472 1.486 . S
C446 H408 0.930 . S
C446 C445 1.378 . S
C446 C447 1.376 . S
C447 H409 0.929 . S
C447 C442 1.397 . S
C447 C446 1.376 . S
C448 C432 1.509 . S
C448 C449 1.391 . S
C448 C453 1.386 . S
C449 H410 0.930 . S
C449 C448 1.391 . S
C449 C450 1.375 . S
C450 H411 0.931 . S
C450 C449 1.375 . S
C450 C451 1.375 . S
C451 C450 1.375 . S
C451 C452 1.361 . S
C452 H412 0.930 . S
C452 C451 1.361 . S
C452 C453 1.399 . S
C453 H413 0.929 . S
C453 C448 1.386 . S
C453 C452 1.399 . S
C454 C433 1.485 . S
C454 C455 1.394 . S
C454 C459 1.360 . S
C455 H414 0.931 . S
C455 C454 1.394 . S
C455 C456 1.372 . S
C456 H415 0.930 . S
C456 C455 1.372 . S
C456 C457 1.397 . S
C457 C456 1.397 . S
C457 C458 1.390 . S
C457 C473 1.476 . S
C458 H416 0.930 . S
C458 C457 1.390 . S
C458 C459 1.366 . S
C459 H417 0.932 . S
C459 C454 1.360 . S
C459 C458 1.366 . S
C460 C434 1.490 . S
C460 C461 1.380 . S
C460 C465 1.386 . S
C461 H418 0.930 . S
C461 C460 1.380 . S
C461 C462 1.381 . S
C462 H419 0.929 . S
C462 C461 1.381 . S
C462 C463 1.371 . S
C463 C462 1.371 . S
C463 C464 1.380 . S
C464 H420 0.931 . S
C464 C463 1.380 . S
C464 C465 1.387 . S
C465 H421 0.930 . S
C465 C460 1.386 . S
C465 C464 1.387 . S
C466 C435 1.519 . S
C466 C467 1.377 . S
C466 C471 1.361 . S
C467 H422 0.929 . S
C467 C466 1.377 . S
C467 C468 1.386 . S
C468 H423 0.931 . S
C468 C467 1.386 . S
C468 C469 1.363 . S
C469 C468 1.363 . S
C469 C470 1.385 . S
C470 H424 0.930 . S
C470 C469 1.385 . S
C470 C471 1.396 . S
C471 H425 0.929 . S
C471 C466 1.361 . S
C471 C470 1.396 . S
C472 O426 1.300 . S
C472 O427 1.209 . S
C472 C445 1.486 . S
C473 O428 1.199 . S
C473 O429 1.297 . S
C473 C457 1.476 . S
H474 O500 0.856 . S
H475 O503 0.854 . S
H476 C511 0.930 . S
H477 C512 0.930 . S
H478 C514 0.930 . S
H479 C515 0.930 . S
H480 C517 0.931 . S
H481 C518 0.930 . S
H482 C520 0.930 . S
H483 C521 0.929 . S
H484 C523 0.930 . S
H485 C524 0.931 . S
H486 C526 0.930 . S
H487 C527 0.929 . S
H488 C529 0.931 . S
H489 C530 0.930 . S
H490 C532 0.930 . S
H491 C533 0.932 . S
H492 C535 0.930 . S
H493 C536 0.929 . S
H494 C538 0.931 . S
H495 C539 0.930 . S
H496 C541 0.929 . S
H497 C542 0.931 . S
H498 C544 0.930 . S
H499 C545 0.929 . S
O500 H474 0.856 . S
O500 C546 1.300 . S
O501 C546 1.209 . S
O502 C547 1.199 . S
O503 H475 0.854 . S
O503 C547 1.297 . S
C504 C505 1.404 . S
C504 C509 1.397 . S
C504 C510 1.492 . S
C505 C504 1.404 . S
C505 C506 1.396 . S
C505 C516 1.492 . S
C506 C505 1.396 . S
C506 C507 1.397 . S
C506 C522 1.509 . S
C507 C506 1.397 . S
C507 C508 1.412 . S
C507 C528 1.485 . S
C508 C507 1.412 . S
C508 C509 1.388 . S
C508 C534 1.490 . S
C509 C504 1.397 . S
C509 C508 1.388 . S
C509 C540 1.519 . S
C510 C504 1.492 . S
C510 C511 1.363 . S
C510 C515 1.390 . S
C511 H476 0.930 . S
C511 C510 1.363 . S
C511 C512 1.372 . S
C512 H477 0.930 . S
C512 C511 1.372 . S
C512 C513 1.383 . S
C513 C512 1.383 . S
C513 C514 1.395 . S
C514 H478 0.930 . S
C514 C513 1.395 . S
C514 C515 1.362 . S
C515 H479 0.930 . S
C515 C510 1.390 . S
C515 C514 1.362 . S
C516 C505 1.492 . S
C516 C517 1.377 . S
C516 C521 1.397 . S
C517 H480 0.931 . S
C517 C516 1.377 . S
C517 C518 1.376 . S
C518 H481 0.930 . S
C518 C517 1.376 . S
C518 C519 1.376 . S
C519 C518 1.376 . S
C519 C520 1.378 . S
C519 C546 1.486 . S
C520 H482 0.930 . S
C520 C519 1.378 . S
C520 C521 1.376 . S
C521 H483 0.929 . S
C521 C516 1.397 . S
C521 C520 1.376 . S
C522 C506 1.509 . S
C522 C523 1.391 . S
C522 C527 1.386 . S
C523 H484 0.930 . S
C523 C522 1.391 . S
C523 C524 1.375 . S
C524 H485 0.931 . S
C524 C523 1.375 . S
C524 C525 1.375 . S
C525 C524 1.375 . S
C525 C526 1.361 . S
C526 H486 0.930 . S
C526 C525 1.361 . S
C526 C527 1.399 . S
C527 H487 0.929 . S
C527 C522 1.386 . S
C527 C526 1.399 . S
C528 C507 1.485 . S
C528 C529 1.394 . S
C528 C533 1.360 . S
C529 H488 0.931 . S
C529 C528 1.394 . S
C529 C530 1.372 . S
C530 H489 0.930 . S
C530 C529 1.372 . S
C530 C531 1.397 . S
C531 C530 1.397 . S
C531 C532 1.390 . S
C531 C547 1.476 . S
C532 H490 0.930 . S
C532 C531 1.390 . S
C532 C533 1.366 . S
C533 H491 0.932 . S
C533 C528 1.360 . S
C533 C532 1.366 . S
C534 C508 1.490 . S
C534 C535 1.380 . S
C534 C539 1.386 . S
C535 H492 0.930 . S
C535 C534 1.380 . S
C535 C536 1.381 . S
C536 H493 0.929 . S
C536 C535 1.381 . S
C536 C537 1.371 . S
C537 C536 1.371 . S
C537 C538 1.380 . S
C538 H494 0.931 . S
C538 C537 1.380 . S
C538 C539 1.387 . S
C539 H495 0.930 . S
C539 C534 1.386 . S
C539 C538 1.387 . S
C540 C509 1.519 . S
C540 C541 1.377 . S
C540 C545 1.361 . S
C541 H496 0.929 . S
C541 C540 1.377 . S
C541 C542 1.386 . S
C542 H497 0.931 . S
C542 C541 1.386 . S
C542 C543 1.363 . S
C543 C542 1.363 . S
C543 C544 1.385 . S
C544 H498 0.930 . S
C544 C543 1.385 . S
C544 C545 1.396 . S
C545 H499 0.929 . S
C545 C540 1.361 . S
C545 C544 1.396 . S
C546 O500 1.300 . S
C546 O501 1.209 . S
C546 C519 1.486 . S
C547 O502 1.199 . S
C547 O503 1.297 . S
C547 C531 1.476 . S
H548 O574 0.856 1_554 S
H549 O577 0.854 . S
H550 C585 0.930 . S
H551 C586 0.930 . S
H552 C588 0.930 . S
H553 C589 0.930 . S
H554 C591 0.931 . S
H555 C592 0.930 . S
H556 C594 0.930 . S
H557 C595 0.929 . S
H558 C597 0.930 . S
H559 C598 0.931 . S
H560 C600 0.930 . S
H561 C601 0.929 . S
H562 C603 0.931 . S
H563 C604 0.930 . S
H564 C606 0.930 . S
H565 C607 0.932 . S
H566 C609 0.930 . S
H567 C610 0.929 . S
H568 C612 0.931 . S
H569 C613 0.930 . S
H570 C615 0.929 . S
H571 C616 0.931 . S
H572 C618 0.930 . S
H573 C619 0.929 . S
O574 H548 0.856 1_556 S
O574 C620 1.300 . S
O575 C620 1.209 . S
O576 C621 1.199 . S
O577 H549 0.854 . S
O577 C621 1.297 . S
C578 C579 1.404 . S
C578 C583 1.397 . S
C578 C584 1.492 . S
C579 C578 1.404 . S
C579 C580 1.396 . S
C579 C590 1.492 . S
C580 C579 1.396 . S
C580 C581 1.397 . S
C580 C596 1.509 . S
C581 C580 1.397 . S
C581 C582 1.412 . S
C581 C602 1.485 . S
C582 C581 1.412 . S
C582 C583 1.388 . S
C582 C608 1.490 . S
C583 C578 1.397 . S
C583 C582 1.388 . S
C583 C614 1.519 . S
C584 C578 1.492 . S
C584 C585 1.363 . S
C584 C589 1.390 . S
C585 H550 0.930 . S
C585 C584 1.363 . S
C585 C586 1.372 . S
C586 H551 0.930 . S
C586 C585 1.372 . S
C586 C587 1.383 . S
C587 C586 1.383 . S
C587 C588 1.395 . S
C588 H552 0.930 . S
C588 C587 1.395 . S
C588 C589 1.362 . S
C589 H553 0.930 . S
C589 C584 1.390 . S
C589 C588 1.362 . S
C590 C579 1.492 . S
C590 C591 1.377 . S
C590 C595 1.397 . S
C591 H554 0.931 . S
C591 C590 1.377 . S
C591 C592 1.376 . S
C592 H555 0.930 . S
C592 C591 1.376 . S
C592 C593 1.376 . S
C593 C592 1.376 . S
C593 C594 1.378 . S
C593 C620 1.486 . S
C594 H556 0.930 . S
C594 C593 1.378 . S
C594 C595 1.376 . S
C595 H557 0.929 . S
C595 C590 1.397 . S
C595 C594 1.376 . S
C596 C580 1.509 . S
C596 C597 1.391 . S
C596 C601 1.386 . S
C597 H558 0.930 . S
C597 C596 1.391 . S
C597 C598 1.375 . S
C598 H559 0.931 . S
C598 C597 1.375 . S
C598 C599 1.375 . S
C599 C598 1.375 . S
C599 C600 1.361 . S
C600 H560 0.930 . S
C600 C599 1.361 . S
C600 C601 1.399 . S
C601 H561 0.929 . S
C601 C596 1.386 . S
C601 C600 1.399 . S
C602 C581 1.485 . S
C602 C603 1.394 . S
C602 C607 1.360 . S
C603 H562 0.931 . S
C603 C602 1.394 . S
C603 C604 1.372 . S
C604 H563 0.930 . S
C604 C603 1.372 . S
C604 C605 1.397 . S
C605 C604 1.397 . S
C605 C606 1.390 . S
C605 C621 1.476 . S
C606 H564 0.930 . S
C606 C605 1.390 . S
C606 C607 1.366 . S
C607 H565 0.932 . S
C607 C602 1.360 . S
C607 C606 1.366 . S
C608 C582 1.490 . S
C608 C609 1.380 . S
C608 C613 1.386 . S
C609 H566 0.930 . S
C609 C608 1.380 . S
C609 C610 1.381 . S
C610 H567 0.929 . S
C610 C609 1.381 . S
C610 C611 1.371 . S
C611 C610 1.371 . S
C611 C612 1.380 . S
C612 H568 0.931 . S
C612 C611 1.380 . S
C612 C613 1.387 . S
C613 H569 0.930 . S
C613 C608 1.386 . S
C613 C612 1.387 . S
C614 C583 1.519 . S
C614 C615 1.377 . S
C614 C619 1.361 . S
C615 H570 0.929 . S
C615 C614 1.377 . S
C615 C616 1.386 . S
C616 H571 0.931 . S
C616 C615 1.386 . S
C616 C617 1.363 . S
C617 C616 1.363 . S
C617 C618 1.385 . S
C618 H572 0.930 . S
C618 C617 1.385 . S
C618 C619 1.396 . S
C619 H573 0.929 . S
C619 C614 1.361 . S
C619 C618 1.396 . S
C620 O574 1.300 . S
C620 O575 1.209 . S
C620 C593 1.486 . S
C621 O576 1.199 . S
C621 O577 1.297 . S
C621 C605 1.476 . S
H622 O648 0.856 . S
H623 O651 0.854 . S
H624 C659 0.930 . S
H625 C660 0.930 . S
H626 C662 0.930 . S
H627 C663 0.930 . S
H628 C665 0.931 . S
H629 C666 0.930 . S
H630 C668 0.930 . S
H631 C669 0.929 . S
H632 C671 0.930 . S
H633 C672 0.931 . S
H634 C674 0.930 . S
H635 C675 0.929 . S
H636 C677 0.931 . S
H637 C678 0.930 . S
H638 C680 0.930 . S
H639 C681 0.932 . S
H640 C683 0.930 . S
H641 C684 0.929 . S
H642 C686 0.931 . S
H643 C687 0.930 . S
H644 C689 0.929 . S
H645 C690 0.931 . S
H646 C692 0.930 . S
H647 C693 0.929 . S
O648 H622 0.856 . S
O648 C694 1.300 1_554 S
O649 C694 1.209 . S
O650 C695 1.199 . S
O651 H623 0.854 . S
O651 C695 1.297 . S
C652 C653 1.404 . S
C652 C657 1.397 . S
C652 C658 1.492 . S
C653 C652 1.404 . S
C653 C654 1.396 . S
C653 C664 1.492 . S
C654 C653 1.396 . S
C654 C655 1.397 . S
C654 C670 1.509 . S
C655 C654 1.397 . S
C655 C656 1.412 . S
C655 C676 1.485 . S
C656 C655 1.412 . S
C656 C657 1.388 . S
C656 C682 1.490 . S
C657 C652 1.397 . S
C657 C656 1.388 . S
C657 C688 1.519 . S
C658 C652 1.492 . S
C658 C659 1.363 . S
C658 C663 1.390 . S
C659 H624 0.930 . S
C659 C658 1.363 . S
C659 C660 1.372 . S
C660 H625 0.930 . S
C660 C659 1.372 . S
C660 C661 1.383 . S
C661 C660 1.383 . S
C661 C662 1.395 . S
C662 H626 0.930 . S
C662 C661 1.395 . S
C662 C663 1.362 . S
C663 H627 0.930 . S
C663 C658 1.390 . S
C663 C662 1.362 . S
C664 C653 1.492 . S
C664 C665 1.377 . S
C664 C669 1.397 . S
C665 H628 0.931 . S
C665 C664 1.377 . S
C665 C666 1.376 . S
C666 H629 0.930 . S
C666 C665 1.376 . S
C666 C667 1.376 . S
C667 C666 1.376 . S
C667 C668 1.378 . S
C667 C694 1.486 . S
C668 H630 0.930 . S
C668 C667 1.378 . S
C668 C669 1.376 . S
C669 H631 0.929 . S
C669 C664 1.397 . S
C669 C668 1.376 . S
C670 C654 1.509 . S
C670 C671 1.391 . S
C670 C675 1.386 . S
C671 H632 0.930 . S
C671 C670 1.391 . S
C671 C672 1.375 . S
C672 H633 0.931 . S
C672 C671 1.375 . S
C672 C673 1.375 . S
C673 C672 1.375 . S
C673 C674 1.361 . S
C674 H634 0.930 . S
C674 C673 1.361 . S
C674 C675 1.399 . S
C675 H635 0.929 . S
C675 C670 1.386 . S
C675 C674 1.399 . S
C676 C655 1.485 . S
C676 C677 1.394 . S
C676 C681 1.360 . S
C677 H636 0.931 . S
C677 C676 1.394 . S
C677 C678 1.372 . S
C678 H637 0.930 . S
C678 C677 1.372 . S
C678 C679 1.397 . S
C679 C678 1.397 . S
C679 C680 1.390 . S
C679 C695 1.476 . S
C680 H638 0.930 . S
C680 C679 1.390 . S
C680 C681 1.366 . S
C681 H639 0.932 . S
C681 C676 1.360 . S
C681 C680 1.366 . S
C682 C656 1.490 . S
C682 C683 1.380 . S
C682 C687 1.386 . S
C683 H640 0.930 . S
C683 C682 1.380 . S
C683 C684 1.381 . S
C684 H641 0.929 . S
C684 C683 1.381 . S
C684 C685 1.371 . S
C685 C684 1.371 . S
C685 C686 1.380 . S
C686 H642 0.931 . S
C686 C685 1.380 . S
C686 C687 1.387 . S
C687 H643 0.930 . S
C687 C682 1.386 . S
C687 C686 1.387 . S
C688 C657 1.519 . S
C688 C689 1.377 . S
C688 C693 1.361 . S
C689 H644 0.929 . S
C689 C688 1.377 . S
C689 C690 1.386 . S
C690 H645 0.931 . S
C690 C689 1.386 . S
C690 C691 1.363 . S
C691 C690 1.363 . S
C691 C692 1.385 . S
C692 H646 0.930 . S
C692 C691 1.385 . S
C692 C693 1.396 . S
C693 H647 0.929 . S
C693 C688 1.361 . S
C693 C692 1.396 . S
C694 O648 1.300 1_556 S
C694 O649 1.209 . S
C694 C667 1.486 . S
C695 O650 1.199 . S
C695 O651 1.297 . S
C695 C679 1.476 . S
H696 O722 0.856 . S
H697 O725 0.854 . S
H698 C733 0.930 . S
H699 C734 0.930 . S
H700 C736 0.930 . S
H701 C737 0.930 . S
H702 C739 0.931 . S
H703 C740 0.930 . S
H704 C742 0.930 . S
H705 C743 0.929 . S
H706 C745 0.930 . S
H707 C746 0.931 . S
H708 C748 0.930 . S
H709 C749 0.929 . S
H710 C751 0.931 . S
H711 C752 0.930 . S
H712 C754 0.930 . S
H713 C755 0.932 . S
H714 C757 0.930 . S
H715 C758 0.929 . S
H716 C760 0.931 . S
H717 C761 0.930 . S
H718 C763 0.929 . S
H719 C764 0.931 . S
H720 C766 0.930 . S
H721 C767 0.929 . S
O722 H696 0.856 . S
O722 C768 1.300 . S
O723 C768 1.209 . S
O724 C769 1.199 . S
O725 H697 0.854 . S
O725 C769 1.297 . S
C726 C727 1.404 . S
C726 C731 1.397 . S
C726 C732 1.492 . S
C727 C726 1.404 . S
C727 C728 1.396 . S
C727 C738 1.492 . S
C728 C727 1.396 . S
C728 C729 1.397 . S
C728 C744 1.509 . S
C729 C728 1.397 . S
C729 C730 1.412 . S
C729 C750 1.485 . S
C730 C729 1.412 . S
C730 C731 1.388 . S
C730 C756 1.490 . S
C731 C726 1.397 . S
C731 C730 1.388 . S
C731 C762 1.519 . S
C732 C726 1.492 . S
C732 C733 1.363 . S
C732 C737 1.390 . S
C733 H698 0.930 . S
C733 C732 1.363 . S
C733 C734 1.372 . S
C734 H699 0.930 . S
C734 C733 1.372 . S
C734 C735 1.383 . S
C735 C734 1.383 . S
C735 C736 1.395 . S
C736 H700 0.930 . S
C736 C735 1.395 . S
C736 C737 1.362 . S
C737 H701 0.930 . S
C737 C732 1.390 . S
C737 C736 1.362 . S
C738 C727 1.492 . S
C738 C739 1.377 . S
C738 C743 1.397 . S
C739 H702 0.931 . S
C739 C738 1.377 . S
C739 C740 1.376 . S
C740 H703 0.930 . S
C740 C739 1.376 . S
C740 C741 1.376 . S
C741 C740 1.376 . S
C741 C742 1.378 . S
C741 C768 1.486 . S
C742 H704 0.930 . S
C742 C741 1.378 . S
C742 C743 1.376 . S
C743 H705 0.929 . S
C743 C738 1.397 . S
C743 C742 1.376 . S
C744 C728 1.509 . S
C744 C745 1.391 . S
C744 C749 1.386 . S
C745 H706 0.930 . S
C745 C744 1.391 . S
C745 C746 1.375 . S
C746 H707 0.931 . S
C746 C745 1.375 . S
C746 C747 1.375 . S
C747 C746 1.375 . S
C747 C748 1.361 . S
C748 H708 0.930 . S
C748 C747 1.361 . S
C748 C749 1.399 . S
C749 H709 0.929 . S
C749 C744 1.386 . S
C749 C748 1.399 . S
C750 C729 1.485 . S
C750 C751 1.394 . S
C750 C755 1.360 . S
C751 H710 0.931 . S
C751 C750 1.394 . S
C751 C752 1.372 . S
C752 H711 0.930 . S
C752 C751 1.372 . S
C752 C753 1.397 . S
C753 C752 1.397 . S
C753 C754 1.390 . S
C753 C769 1.476 . S
C754 H712 0.930 . S
C754 C753 1.390 . S
C754 C755 1.366 . S
C755 H713 0.932 . S
C755 C750 1.360 . S
C755 C754 1.366 . S
C756 C730 1.490 . S
C756 C757 1.380 . S
C756 C761 1.386 . S
C757 H714 0.930 . S
C757 C756 1.380 . S
C757 C758 1.381 . S
C758 H715 0.929 . S
C758 C757 1.381 . S
C758 C759 1.371 . S
C759 C758 1.371 . S
C759 C760 1.380 . S
C760 H716 0.931 . S
C760 C759 1.380 . S
C760 C761 1.387 . S
C761 H717 0.930 . S
C761 C756 1.386 . S
C761 C760 1.387 . S
C762 C731 1.519 . S
C762 C763 1.377 . S
C762 C767 1.361 . S
C763 H718 0.929 . S
C763 C762 1.377 . S
C763 C764 1.386 . S
C764 H719 0.931 . S
C764 C763 1.386 . S
C764 C765 1.363 . S
C765 C764 1.363 . S
C765 C766 1.385 . S
C766 H720 0.930 . S
C766 C765 1.385 . S
C766 C767 1.396 . S
C767 H721 0.929 . S
C767 C762 1.361 . S
C767 C766 1.396 . S
C768 O722 1.300 . S
C768 O723 1.209 . S
C768 C741 1.486 . S
C769 O724 1.199 . S
C769 O725 1.297 . S
C769 C753 1.476 . S
H770 O796 0.856 . S
H771 O799 0.854 . S
H772 C807 0.930 . S
H773 C808 0.930 . S
H774 C810 0.930 . S
H775 C811 0.930 . S
H776 C813 0.931 . S
H777 C814 0.930 . S
H778 C816 0.930 . S
H779 C817 0.929 . S
H780 C819 0.930 . S
H781 C820 0.931 . S
H782 C822 0.930 . S
H783 C823 0.929 . S
H784 C825 0.931 . S
H785 C826 0.930 . S
H786 C828 0.930 . S
H787 C829 0.932 . S
H788 C831 0.930 . S
H789 C832 0.929 . S
H790 C834 0.931 . S
H791 C835 0.930 . S
H792 C837 0.929 . S
H793 C838 0.931 . S
H794 C840 0.930 . S
H795 C841 0.929 . S
O796 H770 0.856 . S
O796 C842 1.300 . S
O797 C842 1.209 . S
O798 C843 1.199 . S
O799 H771 0.854 . S
O799 C843 1.297 . S
C800 C801 1.404 . S
C800 C805 1.397 . S
C800 C806 1.492 . S
C801 C800 1.404 . S
C801 C802 1.396 . S
C801 C812 1.492 . S
C802 C801 1.396 . S
C802 C803 1.397 . S
C802 C818 1.509 . S
C803 C802 1.397 . S
C803 C804 1.412 . S
C803 C824 1.485 . S
C804 C803 1.412 . S
C804 C805 1.388 . S
C804 C830 1.490 . S
C805 C800 1.397 . S
C805 C804 1.388 . S
C805 C836 1.519 . S
C806 C800 1.492 . S
C806 C807 1.363 . S
C806 C811 1.390 . S
C807 H772 0.930 . S
C807 C806 1.363 . S
C807 C808 1.372 . S
C808 H773 0.930 . S
C808 C807 1.372 . S
C808 C809 1.383 . S
C809 C808 1.383 . S
C809 C810 1.395 . S
C810 H774 0.930 . S
C810 C809 1.395 . S
C810 C811 1.362 . S
C811 H775 0.930 . S
C811 C806 1.390 . S
C811 C810 1.362 . S
C812 C801 1.492 . S
C812 C813 1.377 . S
C812 C817 1.397 . S
C813 H776 0.931 . S
C813 C812 1.377 . S
C813 C814 1.376 . S
C814 H777 0.930 . S
C814 C813 1.376 . S
C814 C815 1.376 . S
C815 C814 1.376 . S
C815 C816 1.378 . S
C815 C842 1.486 . S
C816 H778 0.930 . S
C816 C815 1.378 . S
C816 C817 1.376 . S
C817 H779 0.929 . S
C817 C812 1.397 . S
C817 C816 1.376 . S
C818 C802 1.509 . S
C818 C819 1.391 . S
C818 C823 1.386 . S
C819 H780 0.930 . S
C819 C818 1.391 . S
C819 C820 1.375 . S
C820 H781 0.931 . S
C820 C819 1.375 . S
C820 C821 1.375 . S
C821 C820 1.375 . S
C821 C822 1.361 . S
C822 H782 0.930 . S
C822 C821 1.361 . S
C822 C823 1.399 . S
C823 H783 0.929 . S
C823 C818 1.386 . S
C823 C822 1.399 . S
C824 C803 1.485 . S
C824 C825 1.394 . S
C824 C829 1.360 . S
C825 H784 0.931 . S
C825 C824 1.394 . S
C825 C826 1.372 . S
C826 H785 0.930 . S
C826 C825 1.372 . S
C826 C827 1.397 . S
C827 C826 1.397 . S
C827 C828 1.390 . S
C827 C843 1.476 . S
C828 H786 0.930 . S
C828 C827 1.390 . S
C828 C829 1.366 . S
C829 H787 0.932 . S
C829 C824 1.360 . S
C829 C828 1.366 . S
C830 C804 1.490 . S
C830 C831 1.380 . S
C830 C835 1.386 . S
C831 H788 0.930 . S
C831 C830 1.380 . S
C831 C832 1.381 . S
C832 H789 0.929 . S
C832 C831 1.381 . S
C832 C833 1.371 . S
C833 C832 1.371 . S
C833 C834 1.380 . S
C834 H790 0.931 . S
C834 C833 1.380 . S
C834 C835 1.387 . S
C835 H791 0.930 . S
C835 C830 1.386 . S
C835 C834 1.387 . S
C836 C805 1.519 . S
C836 C837 1.377 . S
C836 C841 1.361 . S
C837 H792 0.929 . S
C837 C836 1.377 . S
C837 C838 1.386 . S
C838 H793 0.931 . S
C838 C837 1.386 . S
C838 C839 1.363 . S
C839 C838 1.363 . S
C839 C840 1.385 . S
C840 H794 0.930 . S
C840 C839 1.385 . S
C840 C841 1.396 . S
C841 H795 0.929 . S
C841 C836 1.361 . S
C841 C840 1.396 . S
C842 O796 1.300 . S
C842 O797 1.209 . S
C842 C815 1.486 . S
C843 O798 1.199 . S
C843 O799 1.297 . S
C843 C827 1.476 . S
H844 O870 0.856 . S
H845 O873 0.854 . S
H846 C881 0.930 . S
H847 C882 0.930 . S
H848 C884 0.930 . S
H849 C885 0.930 . S
H850 C887 0.931 . S
H851 C888 0.930 . S
H852 C890 0.930 . S
H853 C891 0.929 . S
H854 C893 0.930 . S
H855 C894 0.931 . S
H856 C896 0.930 . S
H857 C897 0.929 . S
H858 C899 0.931 . S
H859 C900 0.930 . S
H860 C902 0.930 . S
H861 C903 0.932 . S
H862 C905 0.930 . S
H863 C906 0.929 . S
H864 C908 0.931 . S
H865 C909 0.930 . S
H866 C911 0.929 . S
H867 C912 0.931 . S
H868 C914 0.930 . S
H869 C915 0.929 . S
O870 H844 0.856 . S
O870 C916 1.300 . S
O871 C916 1.209 . S
O872 C917 1.199 . S
O873 H845 0.854 . S
O873 C917 1.297 . S
C874 C875 1.404 . S
C874 C879 1.397 . S
C874 C880 1.492 . S
C875 C874 1.404 . S
C875 C876 1.396 . S
C875 C886 1.492 . S
C876 C875 1.396 . S
C876 C877 1.397 . S
C876 C892 1.509 . S
C877 C876 1.397 . S
C877 C878 1.412 . S
C877 C898 1.485 . S
C878 C877 1.412 . S
C878 C879 1.388 . S
C878 C904 1.490 . S
C879 C874 1.397 . S
C879 C878 1.388 . S
C879 C910 1.519 . S
C880 C874 1.492 . S
C880 C881 1.363 . S
C880 C885 1.390 . S
C881 H846 0.930 . S
C881 C880 1.363 . S
C881 C882 1.372 . S
C882 H847 0.930 . S
C882 C881 1.372 . S
C882 C883 1.383 . S
C883 C882 1.383 . S
C883 C884 1.395 . S
C884 H848 0.930 . S
C884 C883 1.395 . S
C884 C885 1.362 . S
C885 H849 0.930 . S
C885 C880 1.390 . S
C885 C884 1.362 . S
C886 C875 1.492 . S
C886 C887 1.377 . S
C886 C891 1.397 . S
C887 H850 0.931 . S
C887 C886 1.377 . S
C887 C888 1.376 . S
C888 H851 0.930 . S
C888 C887 1.376 . S
C888 C889 1.376 . S
C889 C888 1.376 . S
C889 C890 1.378 . S
C889 C916 1.486 . S
C890 H852 0.930 . S
C890 C889 1.378 . S
C890 C891 1.376 . S
C891 H853 0.929 . S
C891 C886 1.397 . S
C891 C890 1.376 . S
C892 C876 1.509 . S
C892 C893 1.391 . S
C892 C897 1.386 . S
C893 H854 0.930 . S
C893 C892 1.391 . S
C893 C894 1.375 . S
C894 H855 0.931 . S
C894 C893 1.375 . S
C894 C895 1.375 . S
C895 C894 1.375 . S
C895 C896 1.361 . S
C896 H856 0.930 . S
C896 C895 1.361 . S
C896 C897 1.399 . S
C897 H857 0.929 . S
C897 C892 1.386 . S
C897 C896 1.399 . S
C898 C877 1.485 . S
C898 C899 1.394 . S
C898 C903 1.360 . S
C899 H858 0.931 . S
C899 C898 1.394 . S
C899 C900 1.372 . S
C900 H859 0.930 . S
C900 C899 1.372 . S
C900 C901 1.397 . S
C901 C900 1.397 . S
C901 C902 1.390 . S
C901 C917 1.476 . S
C902 H860 0.930 . S
C902 C901 1.390 . S
C902 C903 1.366 . S
C903 H861 0.932 . S
C903 C898 1.360 . S
C903 C902 1.366 . S
C904 C878 1.490 . S
C904 C905 1.380 . S
C904 C909 1.386 . S
C905 H862 0.930 . S
C905 C904 1.380 . S
C905 C906 1.381 . S
C906 H863 0.929 . S
C906 C905 1.381 . S
C906 C907 1.371 . S
C907 C906 1.371 . S
C907 C908 1.380 . S
C908 H864 0.931 . S
C908 C907 1.380 . S
C908 C909 1.387 . S
C909 H865 0.930 . S
C909 C904 1.386 . S
C909 C908 1.387 . S
C910 C879 1.519 . S
C910 C911 1.377 . S
C910 C915 1.361 . S
C911 H866 0.929 . S
C911 C910 1.377 . S
C911 C912 1.386 . S
C912 H867 0.931 . S
C912 C911 1.386 . S
C912 C913 1.363 . S
C913 C912 1.363 . S
C913 C914 1.385 . S
C914 H868 0.930 . S
C914 C913 1.385 . S
C914 C915 1.396 . S
C915 H869 0.929 . S
C915 C910 1.361 . S
C915 C914 1.396 . S
C916 O870 1.300 . S
C916 O871 1.209 . S
C916 C889 1.486 . S
C917 O872 1.199 . S
C917 O873 1.297 . S
C917 C901 1.476 . S
H918 O944 0.856 . S
H919 O947 0.854 . S
H920 C955 0.930 . S
H921 C956 0.930 . S
H922 C958 0.930 . S
H923 C959 0.930 . S
H924 C961 0.931 . S
H925 C962 0.891 1_655 S
H926 C964 0.930 . S
H927 C965 0.929 . S
H928 C967 0.930 . S
H929 C968 0.907 1_655 S
H930 C970 0.930 . S
H931 C971 0.929 . S
H932 C973 0.931 . S
H933 C974 0.930 . S
H934 C976 0.930 . S
H935 C977 0.932 . S
H936 C979 0.930 . S
H937 C980 0.929 . S
H938 C982 0.931 . S
H939 C983 0.930 . S
H940 C985 0.929 . S
H941 C986 0.931 . S
H942 C988 0.930 . S
H943 C989 0.929 . S
O944 H918 0.856 . S
O944 C990 1.300 . S
O945 C990 1.209 . S
O946 C991 1.199 1_655 S
O947 H919 0.854 . S
O947 C991 1.297 . S
C948 C949 1.404 . S
C948 C953 1.393 . S
C948 C954 1.492 . S
C949 C948 1.404 . S
C949 C950 1.396 . S
C949 C960 1.492 . S
C950 C949 1.396 . S
C950 C951 1.397 . S
C950 C966 1.509 . S
C951 C950 1.397 . S
C951 C952 1.430 . S
C951 C972 1.485 . S
C952 C951 1.430 . S
C952 C953 1.399 . S
C952 C978 1.491 1_455 S
C953 C948 1.393 . S
C953 C952 1.399 . S
C953 C984 1.487 1_455 S
C954 C948 1.492 . S
C954 C955 1.363 1_455 S
C954 C959 1.390 . S
C955 H920 0.930 . S
C955 C954 1.363 1_655 S
C955 C956 1.372 . S
C956 H921 0.930 . S
C956 C955 1.372 . S
C956 C957 1.383 . S
C957 C956 1.383 . S
C957 C958 1.395 1_655 S
C958 H922 0.930 . S
C958 C957 1.395 1_455 S
C958 C959 1.362 . S
C959 H923 0.930 . S
C959 C954 1.390 . S
C959 C958 1.362 . S
C960 C949 1.492 . S
C960 C961 1.377 1_455 S
C960 C965 1.397 . S
C961 H924 0.931 . S
C961 C960 1.377 1_655 S
C961 C962 1.386 1_655 S
C962 H925 0.891 1_455 S
C962 C961 1.386 1_455 S
C962 C963 1.413 . S
C963 C962 1.413 . S
C963 C964 1.378 . S
C963 C990 1.486 . S
C964 H926 0.930 . S
C964 C963 1.378 . S
C964 C965 1.376 . S
C965 H927 0.929 . S
C965 C960 1.397 . S
C965 C964 1.376 . S
C966 C950 1.509 . S
C966 C967 1.391 1_455 S
C966 C971 1.386 . S
C967 H928 0.930 . S
C967 C966 1.391 1_655 S
C967 C968 1.338 1_655 S
C968 H929 0.907 1_455 S
C968 C967 1.338 1_455 S
C968 C969 1.441 . S
C969 C968 1.441 . S
C969 C970 1.361 . S
C970 H930 0.930 . S
C970 C969 1.361 . S
C970 C971 1.399 . S
C971 H931 0.929 . S
C971 C966 1.386 . S
C971 C970 1.399 . S
C972 C951 1.485 . S
C972 C973 1.394 1_455 S
C972 C977 1.360 . S
C973 H932 0.931 . S
C973 C972 1.394 1_655 S
C973 C974 1.372 . S
C974 H933 0.930 . S
C974 C973 1.372 . S
C974 C975 1.397 1_655 S
C975 C974 1.397 1_455 S
C975 C976 1.390 . S
C975 C991 1.476 . S
C976 H934 0.930 . S
C976 C975 1.390 . S
C976 C977 1.366 . S
C977 H935 0.932 . S
C977 C972 1.360 . S
C977 C976 1.366 . S
C978 C952 1.491 1_655 S
C978 C979 1.380 . S
C978 C983 1.386 1_655 S
C979 H936 0.930 . S
C979 C978 1.380 . S
C979 C980 1.381 . S
C980 H937 0.929 . S
C980 C979 1.381 . S
C980 C981 1.371 . S
C981 C980 1.371 . S
C981 C982 1.380 1_655 S
C982 H938 0.931 . S
C982 C981 1.380 1_455 S
C982 C983 1.387 . S
C983 H939 0.930 . S
C983 C978 1.386 1_455 S
C983 C982 1.387 . S
C984 C953 1.487 1_655 S
C984 C985 1.410 . S
C984 C989 1.340 1_655 S
C985 H940 0.929 . S
C985 C984 1.410 . S
C985 C986 1.386 . S
C986 H941 0.931 . S
C986 C985 1.386 . S
C986 C987 1.386 . S
C987 C986 1.386 . S
C987 C988 1.350 1_655 S
C988 H942 0.930 . S
C988 C987 1.350 1_455 S
C988 C989 1.396 . S
C989 H943 0.929 . S
C989 C984 1.340 1_455 S
C989 C988 1.396 . S
C990 O944 1.300 . S
C990 O945 1.209 . S
C990 C963 1.486 . S
C991 O946 1.199 1_455 S
C991 O947 1.297 . S
C991 C975 1.476 . S
H992 O1018 0.856 . S
H993 O1021 0.854 . S
H994 C1029 0.930 . S
H995 C1030 0.930 . S
H996 C1032 0.930 . S
H997 C1033 0.930 . S
H998 C1035 0.931 . S
H999 C1036 0.930 . S
H1000 C1038 0.930 . S
H1001 C1039 0.929 . S
H1002 C1041 0.930 . S
H1003 C1042 0.931 . S
H1004 C1044 0.930 . S
H1005 C1045 0.929 . S
H1006 C1047 0.931 . S
H1007 C1048 0.930 . S
H1008 C1050 0.930 . S
H1009 C1051 0.932 . S
H1010 C1053 0.930 . S
H1011 C1054 0.929 . S
H1012 C1056 0.931 . S
H1013 C1057 0.930 . S
H1014 C1059 0.929 . S
H1015 C1060 0.931 . S
H1016 C1062 0.930 . S
H1017 C1063 0.929 . S
O1018 H992 0.856 . S
O1018 C1064 1.300 . S
O1019 C1064 1.209 . S
O1020 C1065 1.199 . S
O1021 H993 0.854 . S
O1021 C1065 1.297 . S
C1022 C1023 1.404 . S
C1022 C1027 1.397 . S
C1022 C1028 1.492 . S
C1023 C1022 1.404 . S
C1023 C1024 1.396 . S
C1023 C1034 1.492 . S
C1024 C1023 1.396 . S
C1024 C1025 1.397 . S
C1024 C1040 1.509 . S
C1025 C1024 1.397 . S
C1025 C1026 1.412 . S
C1025 C1046 1.485 . S
C1026 C1025 1.412 . S
C1026 C1027 1.388 . S
C1026 C1052 1.490 . S
C1027 C1022 1.397 . S
C1027 C1026 1.388 . S
C1027 C1058 1.519 . S
C1028 C1022 1.492 . S
C1028 C1029 1.363 . S
C1028 C1033 1.390 . S
C1029 H994 0.930 . S
C1029 C1028 1.363 . S
C1029 C1030 1.372 . S
C1030 H995 0.930 . S
C1030 C1029 1.372 . S
C1030 C1031 1.383 . S
C1031 C1030 1.383 . S
C1031 C1032 1.395 . S
C1032 H996 0.930 . S
C1032 C1031 1.395 . S
C1032 C1033 1.362 . S
C1033 H997 0.930 . S
C1033 C1028 1.390 . S
C1033 C1032 1.362 . S
C1034 C1023 1.492 . S
C1034 C1035 1.377 . S
C1034 C1039 1.397 . S
C1035 H998 0.931 . S
C1035 C1034 1.377 . S
C1035 C1036 1.376 . S
C1036 H999 0.930 . S
C1036 C1035 1.376 . S
C1036 C1037 1.376 . S
C1037 C1036 1.376 . S
C1037 C1038 1.378 . S
C1037 C1064 1.486 . S
C1038 H1000 0.930 . S
C1038 C1037 1.378 . S
C1038 C1039 1.376 . S
C1039 H1001 0.929 . S
C1039 C1034 1.397 . S
C1039 C1038 1.376 . S
C1040 C1024 1.509 . S
C1040 C1041 1.391 . S
C1040 C1045 1.386 . S
C1041 H1002 0.930 . S
C1041 C1040 1.391 . S
C1041 C1042 1.375 . S
C1042 H1003 0.931 . S
C1042 C1041 1.375 . S
C1042 C1043 1.375 . S
C1043 C1042 1.375 . S
C1043 C1044 1.361 . S
C1044 H1004 0.930 . S
C1044 C1043 1.361 . S
C1044 C1045 1.399 . S
C1045 H1005 0.929 . S
C1045 C1040 1.386 . S
C1045 C1044 1.399 . S
C1046 C1025 1.485 . S
C1046 C1047 1.394 . S
C1046 C1051 1.360 . S
C1047 H1006 0.931 . S
C1047 C1046 1.394 . S
C1047 C1048 1.372 . S
C1048 H1007 0.930 . S
C1048 C1047 1.372 . S
C1048 C1049 1.397 . S
C1049 C1048 1.397 . S
C1049 C1050 1.390 . S
C1049 C1065 1.476 . S
C1050 H1008 0.930 . S
C1050 C1049 1.390 . S
C1050 C1051 1.366 . S
C1051 H1009 0.932 . S
C1051 C1046 1.360 . S
C1051 C1050 1.366 . S
C1052 C1026 1.490 . S
C1052 C1053 1.380 . S
C1052 C1057 1.386 . S
C1053 H1010 0.930 . S
C1053 C1052 1.380 . S
C1053 C1054 1.381 . S
C1054 H1011 0.929 . S
C1054 C1053 1.381 . S
C1054 C1055 1.371 . S
C1055 C1054 1.371 . S
C1055 C1056 1.380 . S
C1056 H1012 0.931 . S
C1056 C1055 1.380 . S
C1056 C1057 1.387 . S
C1057 H1013 0.930 . S
C1057 C1052 1.386 . S
C1057 C1056 1.387 . S
C1058 C1027 1.519 . S
C1058 C1059 1.377 . S
C1058 C1063 1.361 . S
C1059 H1014 0.929 . S
C1059 C1058 1.377 . S
C1059 C1060 1.386 . S
C1060 H1015 0.931 . S
C1060 C1059 1.386 . S
C1060 C1061 1.363 . S
C1061 C1060 1.363 . S
C1061 C1062 1.385 . S
C1062 H1016 0.930 . S
C1062 C1061 1.385 . S
C1062 C1063 1.396 . S
C1063 H1017 0.929 . S
C1063 C1058 1.361 . S
C1063 C1062 1.396 . S
C1064 O1018 1.300 . S
C1064 O1019 1.209 . S
C1064 C1037 1.486 . S
C1065 O1020 1.199 . S
C1065 O1021 1.297 . S
C1065 C1049 1.476 . S
H1066 O1092 0.856 . S
H1067 O1095 0.854 . S
H1068 C1103 0.930 . S
H1069 C1104 0.930 . S
H1070 C1106 0.930 . S
H1071 C1107 0.930 . S
H1072 C1109 0.931 . S
H1073 C1110 0.952 . S
H1074 C1112 0.930 . S
H1075 C1113 0.929 . S
H1076 C1115 0.930 . S
H1077 C1116 0.931 . S
H1078 C1118 0.930 . S
H1079 C1119 0.929 . S
H1080 C1121 0.931 . S
H1081 C1122 0.930 . S
H1082 C1124 0.930 . S
H1083 C1125 0.932 . S
H1084 C1127 0.930 . S
H1085 C1128 0.929 . S
H1086 C1130 0.931 . S
H1087 C1131 0.930 . S
H1088 C1133 0.929 . S
H1089 C1134 0.931 . S
H1090 C1136 0.930 . S
H1091 C1137 0.929 . S
O1092 H1066 0.856 . S
O1092 C1138 1.300 . S
O1093 C1138 1.209 . S
O1094 C1139 1.199 1_545 S
O1095 H1067 0.854 . S
O1095 C1139 1.297 . S
C1096 C1097 1.404 . S
C1096 C1101 1.412 . S
C1096 C1102 1.492 . S
C1097 C1096 1.404 . S
C1097 C1098 1.396 . S
C1097 C1108 1.492 . S
C1098 C1097 1.396 . S
C1098 C1099 1.397 . S
C1098 C1114 1.509 . S
C1099 C1098 1.397 . S
C1099 C1100 1.411 1_565 S
C1099 C1120 1.485 . S
C1100 C1099 1.411 1_545 S
C1100 C1101 1.365 1_545 S
C1100 C1126 1.489 . S
C1101 C1096 1.412 . S
C1101 C1100 1.365 1_565 S
C1101 C1132 1.534 . S
C1102 C1096 1.492 . S
C1102 C1103 1.363 1_565 S
C1102 C1107 1.390 . S
C1103 H1068 0.930 . S
C1103 C1102 1.363 1_545 S
C1103 C1104 1.372 . S
C1104 H1069 0.930 . S
C1104 C1103 1.372 . S
C1104 C1105 1.455 . S
C1105 C1104 1.455 . S
C1105 C1106 1.359 1_545 S
C1106 H1070 0.930 . S
C1106 C1105 1.359 1_565 S
C1106 C1107 1.362 . S
C1107 H1071 0.930 . S
C1107 C1102 1.390 . S
C1107 C1106 1.362 . S
C1108 C1097 1.492 . S
C1108 C1109 1.377 1_565 S
C1108 C1113 1.397 . S
C1109 H1072 0.931 . S
C1109 C1108 1.377 1_545 S
C1109 C1110 1.387 . S
C1110 H1073 0.952 . S
C1110 C1109 1.387 . S
C1110 C1111 1.342 1_545 S
C1111 C1110 1.342 1_565 S
C1111 C1112 1.378 . S
C1111 C1138 1.486 . S
C1112 H1074 0.930 . S
C1112 C1111 1.378 . S
C1112 C1113 1.376 . S
C1113 H1075 0.929 . S
C1113 C1108 1.397 . S
C1113 C1112 1.376 . S
C1114 C1098 1.509 . S
C1114 C1115 1.391 1_565 S
C1114 C1119 1.386 . S
C1115 H1076 0.930 . S
C1115 C1114 1.391 1_545 S
C1115 C1116 1.375 . S
C1116 H1077 0.931 . S
C1116 C1115 1.375 . S
C1116 C1117 1.375 1_545 S
C1117 C1116 1.375 1_565 S
C1117 C1118 1.361 . S
C1118 H1078 0.930 . S
C1118 C1117 1.361 . S
C1118 C1119 1.399 . S
C1119 H1079 0.929 . S
C1119 C1114 1.386 . S
C1119 C1118 1.399 . S
C1120 C1099 1.485 . S
C1120 C1121 1.394 1_565 S
C1120 C1125 1.360 . S
C1121 H1080 0.931 . S
C1121 C1120 1.394 1_545 S
C1121 C1122 1.372 . S
C1122 H1081 0.930 . S
C1122 C1121 1.372 . S
C1122 C1123 1.397 1_545 S
C1123 C1122 1.397 1_565 S
C1123 C1124 1.390 . S
C1123 C1139 1.476 . S
C1124 H1082 0.930 . S
C1124 C1123 1.390 . S
C1124 C1125 1.366 . S
C1125 H1083 0.932 . S
C1125 C1120 1.360 . S
C1125 C1124 1.366 . S
C1126 C1100 1.489 . S
C1126 C1127 1.380 . S
C1126 C1131 1.386 1_545 S
C1127 H1084 0.930 . S
C1127 C1126 1.380 . S
C1127 C1128 1.381 . S
C1128 H1085 0.929 . S
C1128 C1127 1.381 . S
C1128 C1129 1.371 . S
C1129 C1128 1.371 . S
C1129 C1130 1.380 1_545 S
C1130 H1086 0.931 . S
C1130 C1129 1.380 1_565 S
C1130 C1131 1.387 . S
C1131 H1087 0.930 . S
C1131 C1126 1.386 1_565 S
C1131 C1130 1.387 . S
C1132 C1101 1.534 . S
C1132 C1133 1.377 1_565 S
C1132 C1137 1.361 . S
C1133 H1088 0.929 . S
C1133 C1132 1.377 1_545 S
C1133 C1134 1.386 . S
C1134 H1089 0.931 . S
C1134 C1133 1.386 . S
C1134 C1135 1.363 1_545 S
C1135 C1134 1.363 1_565 S
C1135 C1136 1.385 . S
C1136 H1090 0.930 . S
C1136 C1135 1.385 . S
C1136 C1137 1.396 . S
C1137 H1091 0.929 . S
C1137 C1132 1.361 . S
C1137 C1136 1.396 . S
C1138 O1092 1.300 . S
C1138 O1093 1.209 . S
C1138 C1111 1.486 . S
C1139 O1094 1.199 1_565 S
C1139 O1095 1.297 . S
C1139 C1123 1.476 . S
H1140 O1166 0.856 . S
H1141 O1169 0.854 . S
H1142 C1177 0.930 . S
H1143 C1178 0.930 . S
H1144 C1180 0.930 . S
H1145 C1181 0.930 . S
H1146 C1183 0.931 . S
H1147 C1184 0.930 . S
H1148 C1186 0.930 . S
H1149 C1187 0.929 . S
H1150 C1189 0.930 . S
H1151 C1190 0.931 . S
H1152 C1192 0.930 . S
H1153 C1193 0.929 . S
H1154 C1195 0.931 . S
H1155 C1196 0.930 . S
H1156 C1198 0.930 . S
H1157 C1199 0.932 . S
H1158 C1201 0.930 . S
H1159 C1202 0.929 . S
H1160 C1204 0.931 . S
H1161 C1205 0.930 . S
H1162 C1207 0.929 . S
H1163 C1208 0.931 . S
H1164 C1210 0.930 . S
H1165 C1211 0.929 . S
O1166 H1140 0.856 . S
O1166 C1212 1.300 . S
O1167 C1212 1.209 1_565 S
O1168 C1213 1.199 1_545 S
O1169 H1141 0.854 . S
O1169 C1213 1.297 . S
C1170 C1171 1.404 . S
C1170 C1175 1.397 1_545 S
C1170 C1176 1.492 . S
C1171 C1170 1.404 . S
C1171 C1172 1.404 . S
C1171 C1182 1.492 . S
C1172 C1171 1.404 . S
C1172 C1173 1.379 1_545 S
C1172 C1188 1.503 1_545 S
C1173 C1172 1.379 1_565 S
C1173 C1174 1.410 . S
C1173 C1194 1.527 . S
C1174 C1173 1.410 . S
C1174 C1175 1.354 . S
C1174 C1200 1.488 . S
C1175 C1170 1.397 1_565 S
C1175 C1174 1.354 . S
C1175 C1206 1.519 . S
C1176 C1170 1.492 . S
C1176 C1177 1.363 . S
C1176 C1181 1.390 1_545 S
C1177 H1142 0.930 . S
C1177 C1176 1.363 . S
C1177 C1178 1.372 . S
C1178 H1143 0.930 . S
C1178 C1177 1.372 . S
C1178 C1179 1.383 . S
C1179 C1178 1.383 . S
C1179 C1180 1.395 1_545 S
C1180 H1144 0.930 . S
C1180 C1179 1.395 1_565 S
C1180 C1181 1.362 . S
C1181 H1145 0.930 . S
C1181 C1176 1.390 1_565 S
C1181 C1180 1.362 . S
C1182 C1171 1.492 . S
C1182 C1183 1.377 . S
C1182 C1187 1.397 1_545 S
C1183 H1146 0.931 . S
C1183 C1182 1.377 . S
C1183 C1184 1.376 . S
C1184 H1147 0.930 . S
C1184 C1183 1.376 . S
C1184 C1185 1.376 . S
C1185 C1184 1.376 . S
C1185 C1186 1.378 1_545 S
C1185 C1212 1.486 . S
C1186 H1148 0.930 . S
C1186 C1185 1.378 1_565 S
C1186 C1187 1.376 . S
C1187 H1149 0.929 . S
C1187 C1182 1.397 1_565 S
C1187 C1186 1.376 . S
C1188 C1172 1.503 1_565 S
C1188 C1189 1.391 1_565 S
C1188 C1193 1.388 . S
C1189 H1150 0.930 . S
C1189 C1188 1.391 1_545 S
C1189 C1190 1.375 . S
C1190 H1151 0.931 . S
C1190 C1189 1.375 . S
C1190 C1191 1.319 1_545 S
C1191 C1190 1.319 1_565 S
C1191 C1192 1.393 . S
C1192 H1152 0.930 . S
C1192 C1191 1.393 . S
C1192 C1193 1.399 . S
C1193 H1153 0.929 . S
C1193 C1188 1.388 . S
C1193 C1192 1.399 . S
C1194 C1173 1.527 . S
C1194 C1195 1.394 1_565 S
C1194 C1199 1.360 . S
C1195 H1154 0.931 . S
C1195 C1194 1.394 1_545 S
C1195 C1196 1.372 . S
C1196 H1155 0.930 . S
C1196 C1195 1.372 . S
C1196 C1197 1.397 1_545 S
C1197 C1196 1.397 1_565 S
C1197 C1198 1.390 . S
C1197 C1213 1.476 . S
C1198 H1156 0.930 . S
C1198 C1197 1.390 . S
C1198 C1199 1.366 . S
C1199 H1157 0.932 . S
C1199 C1194 1.360 . S
C1199 C1198 1.366 . S
C1200 C1174 1.488 . S
C1200 C1201 1.323 1_565 S
C1200 C1205 1.458 . S
C1201 H1158 0.930 . S
C1201 C1200 1.323 1_545 S
C1201 C1202 1.381 . S
C1202 H1159 0.929 . S
C1202 C1201 1.381 . S
C1202 C1203 1.376 1_545 S
C1203 C1202 1.376 1_565 S
C1203 C1204 1.376 . S
C1204 H1160 0.931 . S
C1204 C1203 1.376 . S
C1204 C1205 1.387 . S
C1205 H1161 0.930 . S
C1205 C1200 1.458 . S
C1205 C1204 1.387 . S
C1206 C1175 1.519 . S
C1206 C1207 1.377 1_565 S
C1206 C1211 1.361 . S
C1207 H1162 0.929 . S
C1207 C1206 1.377 1_545 S
C1207 C1208 1.386 . S
C1208 H1163 0.931 . S
C1208 C1207 1.386 . S
C1208 C1209 1.363 1_545 S
C1209 C1208 1.363 1_565 S
C1209 C1210 1.385 . S
C1210 H1164 0.930 . S
C1210 C1209 1.385 . S
C1210 C1211 1.396 . S
C1211 H1165 0.929 . S
C1211 C1206 1.361 . S
C1211 C1210 1.396 . S
C1212 O1166 1.300 . S
C1212 O1167 1.209 1_545 S
C1212 C1185 1.486 . S
C1213 O1168 1.199 1_565 S
C1213 O1169 1.297 . S
C1213 C1197 1.476 . S
H1214 O1240 0.856 . S
H1215 O1243 0.854 . S
H1216 C1251 0.930 . S
H1217 C1252 0.930 . S
H1218 C1254 0.930 . S
H1219 C1255 0.930 . S
H1220 C1257 0.931 . S
H1221 C1258 0.930 . S
H1222 C1260 0.930 . S
H1223 C1261 0.929 . S
H1224 C1263 0.930 . S
H1225 C1264 0.931 . S
H1226 C1266 0.930 . S
H1227 C1267 0.929 . S
H1228 C1269 0.931 . S
H1229 C1270 0.930 . S
H1230 C1272 0.930 . S
H1231 C1273 0.932 . S
H1232 C1275 0.930 . S
H1233 C1276 0.929 . S
H1234 C1278 0.931 . S
H1235 C1279 0.930 . S
H1236 C1281 0.929 . S
H1237 C1282 0.931 . S
H1238 C1284 0.930 . S
H1239 C1285 0.929 . S
O1240 H1214 0.856 . S
O1240 C1286 1.300 . S
O1241 C1286 1.209 1_455 S
O1242 C1287 1.199 1_655 S
O1243 H1215 0.854 . S
O1243 C1287 1.297 . S
C1244 C1245 1.404 . S
C1244 C1249 1.398 . S
C1244 C1250 1.492 . S
C1245 C1244 1.404 . S
C1245 C1246 1.396 . S
C1245 C1256 1.492 . S
C1246 C1245 1.396 . S
C1246 C1247 1.395 . S
C1246 C1262 1.509 . S
C1247 C1246 1.395 . S
C1247 C1248 1.396 1_655 S
C1247 C1268 1.521 1_655 S
C1248 C1247 1.396 1_455 S
C1248 C1249 1.399 1_455 S
C1248 C1274 1.486 . S
C1249 C1244 1.398 . S
C1249 C1248 1.399 1_655 S
C1249 C1280 1.522 1_655 S
C1250 C1244 1.492 . S
C1250 C1251 1.363 . S
C1250 C1255 1.390 1_655 S
C1251 H1216 0.930 . S
C1251 C1250 1.363 . S
C1251 C1252 1.372 . S
C1252 H1217 0.930 . S
C1252 C1251 1.372 . S
C1252 C1253 1.383 . S
C1253 C1252 1.383 . S
C1253 C1254 1.395 1_655 S
C1254 H1218 0.930 . S
C1254 C1253 1.395 1_455 S
C1254 C1255 1.362 . S
C1255 H1219 0.930 . S
C1255 C1250 1.390 1_455 S
C1255 C1254 1.362 . S
C1256 C1245 1.492 . S
C1256 C1257 1.377 . S
C1256 C1261 1.397 1_655 S
C1257 H1220 0.931 . S
C1257 C1256 1.377 . S
C1257 C1258 1.376 . S
C1258 H1221 0.930 . S
C1258 C1257 1.376 . S
C1258 C1259 1.376 . S
C1259 C1258 1.376 . S
C1259 C1260 1.378 1_655 S
C1259 C1286 1.486 . S
C1260 H1222 0.930 . S
C1260 C1259 1.378 1_455 S
C1260 C1261 1.376 . S
C1261 H1223 0.929 . S
C1261 C1256 1.397 1_455 S
C1261 C1260 1.376 . S
C1262 C1246 1.509 . S
C1262 C1263 1.391 . S
C1262 C1267 1.386 1_655 S
C1263 H1224 0.930 . S
C1263 C1262 1.391 . S
C1263 C1264 1.375 . S
C1264 H1225 0.931 . S
C1264 C1263 1.375 . S
C1264 C1265 1.375 . S
C1265 C1264 1.375 . S
C1265 C1266 1.361 1_655 S
C1266 H1226 0.930 . S
C1266 C1265 1.361 1_455 S
C1266 C1267 1.399 . S
C1267 H1227 0.929 . S
C1267 C1262 1.386 1_455 S
C1267 C1266 1.399 . S
C1268 C1247 1.521 1_455 S
C1268 C1269 1.349 1_455 S
C1268 C1273 1.379 . S
C1269 H1228 0.931 . S
C1269 C1268 1.349 1_655 S
C1269 C1270 1.372 . S
C1270 H1229 0.930 . S
C1270 C1269 1.372 . S
C1270 C1271 1.397 1_655 S
C1271 C1270 1.397 1_455 S
C1271 C1272 1.390 . S
C1271 C1287 1.476 . S
C1272 H1230 0.930 . S
C1272 C1271 1.390 . S
C1272 C1273 1.366 . S
C1273 H1231 0.932 . S
C1273 C1268 1.379 . S
C1273 C1272 1.366 . S
C1274 C1248 1.486 . S
C1274 C1275 1.380 1_455 S
C1274 C1279 1.386 . S
C1275 H1232 0.930 . S
C1275 C1274 1.380 1_655 S
C1275 C1276 1.381 . S
C1276 H1233 0.929 . S
C1276 C1275 1.381 . S
C1276 C1277 1.371 1_655 S
C1277 C1276 1.371 1_455 S
C1277 C1278 1.380 . S
C1278 H1234 0.931 . S
C1278 C1277 1.380 . S
C1278 C1279 1.387 . S
C1279 H1235 0.930 . S
C1279 C1274 1.386 . S
C1279 C1278 1.387 . S
C1280 C1249 1.522 1_455 S
C1280 C1281 1.377 1_455 S
C1280 C1285 1.361 . S
C1281 H1236 0.929 . S
C1281 C1280 1.377 1_655 S
C1281 C1282 1.386 . S
C1282 H1237 0.931 . S
C1282 C1281 1.386 . S
C1282 C1283 1.363 1_655 S
C1283 C1282 1.363 1_455 S
C1283 C1284 1.385 . S
C1284 H1238 0.930 . S
C1284 C1283 1.385 . S
C1284 C1285 1.396 . S
C1285 H1239 0.929 . S
C1285 C1280 1.361 . S
C1285 C1284 1.396 . S
C1286 O1240 1.300 . S
C1286 O1241 1.209 1_655 S
C1286 C1259 1.486 . S
C1287 O1242 1.199 1_455 S
C1287 O1243 1.297 . S
C1287 C1271 1.476 . S
H1288 O1314 0.856 . S
H1289 O1317 0.854 . S
H1290 C1325 0.930 . S
H1291 C1326 0.930 . S
H1292 C1328 0.930 . S
H1293 C1329 0.930 . S
H1294 C1331 0.931 . S
H1295 C1332 0.930 . S
H1296 C1334 0.930 . S
H1297 C1335 0.929 . S
H1298 C1337 0.930 . S
H1299 C1338 0.931 . S
H1300 C1340 0.930 . S
H1301 C1341 0.929 . S
H1302 C1343 0.931 . S
H1303 C1344 0.930 . S
H1304 C1346 0.930 . S
H1305 C1347 0.932 . S
H1306 C1349 0.930 . S
H1307 C1350 0.929 . S
H1308 C1352 0.931 . S
H1309 C1353 0.930 . S
H1310 C1355 0.929 . S
H1311 C1356 0.931 . S
H1312 C1358 0.930 . S
H1313 C1359 0.929 . S
O1314 H1288 0.856 . S
O1314 C1360 1.300 . S
O1315 C1360 1.209 . S
O1316 C1361 1.199 . S
O1317 H1289 0.854 . S
O1317 C1361 1.297 . S
C1318 C1319 1.404 . S
C1318 C1323 1.397 . S
C1318 C1324 1.492 . S
C1319 C1318 1.404 . S
C1319 C1320 1.396 . S
C1319 C1330 1.492 . S
C1320 C1319 1.396 . S
C1320 C1321 1.397 . S
C1320 C1336 1.509 . S
C1321 C1320 1.397 . S
C1321 C1322 1.412 . S
C1321 C1342 1.485 . S
C1322 C1321 1.412 . S
C1322 C1323 1.388 . S
C1322 C1348 1.490 . S
C1323 C1318 1.397 . S
C1323 C1322 1.388 . S
C1323 C1354 1.519 . S
C1324 C1318 1.492 . S
C1324 C1325 1.363 . S
C1324 C1329 1.390 . S
C1325 H1290 0.930 . S
C1325 C1324 1.363 . S
C1325 C1326 1.372 . S
C1326 H1291 0.930 . S
C1326 C1325 1.372 . S
C1326 C1327 1.383 . S
C1327 C1326 1.383 . S
C1327 C1328 1.395 . S
C1328 H1292 0.930 . S
C1328 C1327 1.395 . S
C1328 C1329 1.362 . S
C1329 H1293 0.930 . S
C1329 C1324 1.390 . S
C1329 C1328 1.362 . S
C1330 C1319 1.492 . S
C1330 C1331 1.377 . S
C1330 C1335 1.397 . S
C1331 H1294 0.931 . S
C1331 C1330 1.377 . S
C1331 C1332 1.376 . S
C1332 H1295 0.930 . S
C1332 C1331 1.376 . S
C1332 C1333 1.376 . S
C1333 C1332 1.376 . S
C1333 C1334 1.378 . S
C1333 C1360 1.486 . S
C1334 H1296 0.930 . S
C1334 C1333 1.378 . S
C1334 C1335 1.376 . S
C1335 H1297 0.929 . S
C1335 C1330 1.397 . S
C1335 C1334 1.376 . S
C1336 C1320 1.509 . S
C1336 C1337 1.391 . S
C1336 C1341 1.386 . S
C1337 H1298 0.930 . S
C1337 C1336 1.391 . S
C1337 C1338 1.375 . S
C1338 H1299 0.931 . S
C1338 C1337 1.375 . S
C1338 C1339 1.375 . S
C1339 C1338 1.375 . S
C1339 C1340 1.361 . S
C1340 H1300 0.930 . S
C1340 C1339 1.361 . S
C1340 C1341 1.399 . S
C1341 H1301 0.929 . S
C1341 C1336 1.386 . S
C1341 C1340 1.399 . S
C1342 C1321 1.485 . S
C1342 C1343 1.394 . S
C1342 C1347 1.360 . S
C1343 H1302 0.931 . S
C1343 C1342 1.394 . S
C1343 C1344 1.372 . S
C1344 H1303 0.930 . S
C1344 C1343 1.372 . S
C1344 C1345 1.397 . S
C1345 C1344 1.397 . S
C1345 C1346 1.390 . S
C1345 C1361 1.476 . S
C1346 H1304 0.930 . S
C1346 C1345 1.390 . S
C1346 C1347 1.366 . S
C1347 H1305 0.932 . S
C1347 C1342 1.360 . S
C1347 C1346 1.366 . S
C1348 C1322 1.490 . S
C1348 C1349 1.380 . S
C1348 C1353 1.386 . S
C1349 H1306 0.930 . S
C1349 C1348 1.380 . S
C1349 C1350 1.381 . S
C1350 H1307 0.929 . S
C1350 C1349 1.381 . S
C1350 C1351 1.371 . S
C1351 C1350 1.371 . S
C1351 C1352 1.380 . S
C1352 H1308 0.931 . S
C1352 C1351 1.380 . S
C1352 C1353 1.387 . S
C1353 H1309 0.930 . S
C1353 C1348 1.386 . S
C1353 C1352 1.387 . S
C1354 C1323 1.519 . S
C1354 C1355 1.377 . S
C1354 C1359 1.361 . S
C1355 H1310 0.929 . S
C1355 C1354 1.377 . S
C1355 C1356 1.386 . S
C1356 H1311 0.931 . S
C1356 C1355 1.386 . S
C1356 C1357 1.363 . S
C1357 C1356 1.363 . S
C1357 C1358 1.385 . S
C1358 H1312 0.930 . S
C1358 C1357 1.385 . S
C1358 C1359 1.396 . S
C1359 H1313 0.929 . S
C1359 C1354 1.361 . S
C1359 C1358 1.396 . S
C1360 O1314 1.300 . S
C1360 O1315 1.209 . S
C1360 C1333 1.486 . S
C1361 O1316 1.199 . S
C1361 O1317 1.297 . S
C1361 C1345 1.476 . S
H1362 O1388 0.856 . S
H1363 O1391 0.854 . S
H1364 C1399 0.930 . S
H1365 C1400 0.930 . S
H1366 C1402 0.930 . S
H1367 C1403 0.930 . S
H1368 C1405 0.931 . S
H1369 C1406 0.930 . S
H1370 C1408 0.930 . S
H1371 C1409 0.929 . S
H1372 C1411 0.930 . S
H1373 C1412 0.931 . S
H1374 C1414 0.930 . S
H1375 C1415 0.929 . S
H1376 C1417 0.931 . S
H1377 C1418 0.930 . S
H1378 C1420 0.930 . S
H1379 C1421 0.932 . S
H1380 C1423 0.930 . S
H1381 C1424 0.929 . S
H1382 C1426 0.931 . S
H1383 C1427 0.930 . S
H1384 C1429 0.929 . S
H1385 C1430 0.931 . S
H1386 C1432 0.930 . S
H1387 C1433 0.929 . S
O1388 H1362 0.856 . S
O1388 C1434 1.300 . S
O1389 C1434 1.209 . S
O1390 C1435 1.199 . S
O1391 H1363 0.854 . S
O1391 C1435 1.297 . S
C1392 C1393 1.404 . S
C1392 C1397 1.397 . S
C1392 C1398 1.492 . S
C1393 C1392 1.404 . S
C1393 C1394 1.396 . S
C1393 C1404 1.492 . S
C1394 C1393 1.396 . S
C1394 C1395 1.397 . S
C1394 C1410 1.509 . S
C1395 C1394 1.397 . S
C1395 C1396 1.412 . S
C1395 C1416 1.485 . S
C1396 C1395 1.412 . S
C1396 C1397 1.388 . S
C1396 C1422 1.490 . S
C1397 C1392 1.397 . S
C1397 C1396 1.388 . S
C1397 C1428 1.519 . S
C1398 C1392 1.492 . S
C1398 C1399 1.363 . S
C1398 C1403 1.390 . S
C1399 H1364 0.930 . S
C1399 C1398 1.363 . S
C1399 C1400 1.372 . S
C1400 H1365 0.930 . S
C1400 C1399 1.372 . S
C1400 C1401 1.383 . S
C1401 C1400 1.383 . S
C1401 C1402 1.395 . S
C1402 H1366 0.930 . S
C1402 C1401 1.395 . S
C1402 C1403 1.362 . S
C1403 H1367 0.930 . S
C1403 C1398 1.390 . S
C1403 C1402 1.362 . S
C1404 C1393 1.492 . S
C1404 C1405 1.377 . S
C1404 C1409 1.397 . S
C1405 H1368 0.931 . S
C1405 C1404 1.377 . S
C1405 C1406 1.376 . S
C1406 H1369 0.930 . S
C1406 C1405 1.376 . S
C1406 C1407 1.376 . S
C1407 C1406 1.376 . S
C1407 C1408 1.378 . S
C1407 C1434 1.486 . S
C1408 H1370 0.930 . S
C1408 C1407 1.378 . S
C1408 C1409 1.376 . S
C1409 H1371 0.929 . S
C1409 C1404 1.397 . S
C1409 C1408 1.376 . S
C1410 C1394 1.509 . S
C1410 C1411 1.391 . S
C1410 C1415 1.386 . S
C1411 H1372 0.930 . S
C1411 C1410 1.391 . S
C1411 C1412 1.375 . S
C1412 H1373 0.931 . S
C1412 C1411 1.375 . S
C1412 C1413 1.375 . S
C1413 C1412 1.375 . S
C1413 C1414 1.361 . S
C1414 H1374 0.930 . S
C1414 C1413 1.361 . S
C1414 C1415 1.399 . S
C1415 H1375 0.929 . S
C1415 C1410 1.386 . S
C1415 C1414 1.399 . S
C1416 C1395 1.485 . S
C1416 C1417 1.394 . S
C1416 C1421 1.360 . S
C1417 H1376 0.931 . S
C1417 C1416 1.394 . S
C1417 C1418 1.372 . S
C1418 H1377 0.930 . S
C1418 C1417 1.372 . S
C1418 C1419 1.397 . S
C1419 C1418 1.397 . S
C1419 C1420 1.390 . S
C1419 C1435 1.476 . S
C1420 H1378 0.930 . S
C1420 C1419 1.390 . S
C1420 C1421 1.366 . S
C1421 H1379 0.932 . S
C1421 C1416 1.360 . S
C1421 C1420 1.366 . S
C1422 C1396 1.490 . S
C1422 C1423 1.380 . S
C1422 C1427 1.386 . S
C1423 H1380 0.930 . S
C1423 C1422 1.380 . S
C1423 C1424 1.381 . S
C1424 H1381 0.929 . S
C1424 C1423 1.381 . S
C1424 C1425 1.371 . S
C1425 C1424 1.371 . S
C1425 C1426 1.380 . S
C1426 H1382 0.931 . S
C1426 C1425 1.380 . S
C1426 C1427 1.387 . S
C1427 H1383 0.930 . S
C1427 C1422 1.386 . S
C1427 C1426 1.387 . S
C1428 C1397 1.519 . S
C1428 C1429 1.377 . S
C1428 C1433 1.361 . S
C1429 H1384 0.929 . S
C1429 C1428 1.377 . S
C1429 C1430 1.386 . S
C1430 H1385 0.931 . S
C1430 C1429 1.386 . S
C1430 C1431 1.363 . S
C1431 C1430 1.363 . S
C1431 C1432 1.385 . S
C1432 H1386 0.930 . S
C1432 C1431 1.385 . S
C1432 C1433 1.396 . S
C1433 H1387 0.929 . S
C1433 C1428 1.361 . S
C1433 C1432 1.396 . S
C1434 O1388 1.300 . S
C1434 O1389 1.209 . S
C1434 C1407 1.486 . S
C1435 O1390 1.199 . S
C1435 O1391 1.297 . S
C1435 C1419 1.476 . S
H1436 O1462 0.856 . S
H1437 O1465 0.854 . S
H1438 C1473 0.930 . S
H1439 C1474 0.930 . S
H1440 C1476 0.930 . S
H1441 C1477 0.930 . S
H1442 C1479 0.931 . S
H1443 C1480 0.930 . S
H1444 C1482 0.930 . S
H1445 C1483 0.929 . S
H1446 C1485 0.930 . S
H1447 C1486 0.931 . S
H1448 C1488 0.930 . S
H1449 C1489 0.929 . S
H1450 C1491 0.931 . S
H1451 C1492 0.930 . S
H1452 C1494 0.930 . S
H1453 C1495 0.932 . S
H1454 C1497 0.930 . S
H1455 C1498 0.929 . S
H1456 C1500 0.931 . S
H1457 C1501 0.930 . S
H1458 C1503 0.929 . S
H1459 C1504 0.931 . S
H1460 C1506 0.930 . S
H1461 C1507 0.929 . S
O1462 H1436 0.856 . S
O1462 C1508 1.300 . S
O1463 C1508 1.209 . S
O1464 C1509 1.199 . S
O1465 H1437 0.854 . S
O1465 C1509 1.297 . S
C1466 C1467 1.404 . S
C1466 C1471 1.397 . S
C1466 C1472 1.492 . S
C1467 C1466 1.404 . S
C1467 C1468 1.396 . S
C1467 C1478 1.492 . S
C1468 C1467 1.396 . S
C1468 C1469 1.397 . S
C1468 C1484 1.509 . S
C1469 C1468 1.397 . S
C1469 C1470 1.412 . S
C1469 C1490 1.485 . S
C1470 C1469 1.412 . S
C1470 C1471 1.388 . S
C1470 C1496 1.490 . S
C1471 C1466 1.397 . S
C1471 C1470 1.388 . S
C1471 C1502 1.519 . S
C1472 C1466 1.492 . S
C1472 C1473 1.363 . S
C1472 C1477 1.390 . S
C1473 H1438 0.930 . S
C1473 C1472 1.363 . S
C1473 C1474 1.372 . S
C1474 H1439 0.930 . S
C1474 C1473 1.372 . S
C1474 C1475 1.383 . S
C1475 C1474 1.383 . S
C1475 C1476 1.395 . S
C1476 H1440 0.930 . S
C1476 C1475 1.395 . S
C1476 C1477 1.362 . S
C1477 H1441 0.930 . S
C1477 C1472 1.390 . S
C1477 C1476 1.362 . S
C1478 C1467 1.492 . S
C1478 C1479 1.377 . S
C1478 C1483 1.397 . S
C1479 H1442 0.931 . S
C1479 C1478 1.377 . S
C1479 C1480 1.376 . S
C1480 H1443 0.930 . S
C1480 C1479 1.376 . S
C1480 C1481 1.376 . S
C1481 C1480 1.376 . S
C1481 C1482 1.378 . S
C1481 C1508 1.486 . S
C1482 H1444 0.930 . S
C1482 C1481 1.378 . S
C1482 C1483 1.376 . S
C1483 H1445 0.929 . S
C1483 C1478 1.397 . S
C1483 C1482 1.376 . S
C1484 C1468 1.509 . S
C1484 C1485 1.391 . S
C1484 C1489 1.386 . S
C1485 H1446 0.930 . S
C1485 C1484 1.391 . S
C1485 C1486 1.375 . S
C1486 H1447 0.931 . S
C1486 C1485 1.375 . S
C1486 C1487 1.375 . S
C1487 C1486 1.375 . S
C1487 C1488 1.361 . S
C1488 H1448 0.930 . S
C1488 C1487 1.361 . S
C1488 C1489 1.399 . S
C1489 H1449 0.929 . S
C1489 C1484 1.386 . S
C1489 C1488 1.399 . S
C1490 C1469 1.485 . S
C1490 C1491 1.394 . S
C1490 C1495 1.360 . S
C1491 H1450 0.931 . S
C1491 C1490 1.394 . S
C1491 C1492 1.372 . S
C1492 H1451 0.930 . S
C1492 C1491 1.372 . S
C1492 C1493 1.397 . S
C1493 C1492 1.397 . S
C1493 C1494 1.390 . S
C1493 C1509 1.476 . S
C1494 H1452 0.930 . S
C1494 C1493 1.390 . S
C1494 C1495 1.366 . S
C1495 H1453 0.932 . S
C1495 C1490 1.360 . S
C1495 C1494 1.366 . S
C1496 C1470 1.490 . S
C1496 C1497 1.380 . S
C1496 C1501 1.386 . S
C1497 H1454 0.930 . S
C1497 C1496 1.380 . S
C1497 C1498 1.381 . S
C1498 H1455 0.929 . S
C1498 C1497 1.381 . S
C1498 C1499 1.371 . S
C1499 C1498 1.371 . S
C1499 C1500 1.380 . S
C1500 H1456 0.931 . S
C1500 C1499 1.380 . S
C1500 C1501 1.387 . S
C1501 H1457 0.930 . S
C1501 C1496 1.386 . S
C1501 C1500 1.387 . S
C1502 C1471 1.519 . S
C1502 C1503 1.377 . S
C1502 C1507 1.361 . S
C1503 H1458 0.929 . S
C1503 C1502 1.377 . S
C1503 C1504 1.386 . S
C1504 H1459 0.931 . S
C1504 C1503 1.386 . S
C1504 C1505 1.363 . S
C1505 C1504 1.363 . S
C1505 C1506 1.385 . S
C1506 H1460 0.930 . S
C1506 C1505 1.385 . S
C1506 C1507 1.396 . S
C1507 H1461 0.929 . S
C1507 C1502 1.361 . S
C1507 C1506 1.396 . S
C1508 O1462 1.300 . S
C1508 O1463 1.209 . S
C1508 C1481 1.486 . S
C1509 O1464 1.199 . S
C1509 O1465 1.297 . S
C1509 C1493 1.476 . S
H1510 O1536 0.856 . S
H1511 O1539 0.854 . S
H1512 C1547 0.930 . S
H1513 C1548 0.930 . S
H1514 C1550 0.930 . S
H1515 C1551 0.930 . S
H1516 C1553 0.931 . S
H1517 C1554 0.930 . S
H1518 C1556 0.930 . S
H1519 C1557 0.929 . S
H1520 C1559 0.930 . S
H1521 C1560 0.931 . S
H1522 C1562 0.930 . S
H1523 C1563 0.929 . S
H1524 C1565 0.931 . S
H1525 C1566 0.930 . S
H1526 C1568 0.930 . S
H1527 C1569 0.932 . S
H1528 C1571 0.930 . S
H1529 C1572 0.929 . S
H1530 C1574 0.931 . S
H1531 C1575 0.930 . S
H1532 C1577 0.929 . S
H1533 C1578 0.931 . S
H1534 C1580 0.930 . S
H1535 C1581 0.929 . S
O1536 H1510 0.856 . S
O1536 C1582 1.300 . S
O1537 C1582 1.209 . S
O1538 C1583 1.199 . S
O1539 H1511 0.854 . S
O1539 C1583 1.297 . S
C1540 C1541 1.404 . S
C1540 C1545 1.397 . S
C1540 C1546 1.492 . S
C1541 C1540 1.404 . S
C1541 C1542 1.396 . S
C1541 C1552 1.492 . S
C1542 C1541 1.396 . S
C1542 C1543 1.397 . S
C1542 C1558 1.509 . S
C1543 C1542 1.397 . S
C1543 C1544 1.412 . S
C1543 C1564 1.485 . S
C1544 C1543 1.412 . S
C1544 C1545 1.388 . S
C1544 C1570 1.490 . S
C1545 C1540 1.397 . S
C1545 C1544 1.388 . S
C1545 C1576 1.519 . S
C1546 C1540 1.492 . S
C1546 C1547 1.363 . S
C1546 C1551 1.390 . S
C1547 H1512 0.930 . S
C1547 C1546 1.363 . S
C1547 C1548 1.372 . S
C1548 H1513 0.930 . S
C1548 C1547 1.372 . S
C1548 C1549 1.383 . S
C1549 C1548 1.383 . S
C1549 C1550 1.395 . S
C1550 H1514 0.930 . S
C1550 C1549 1.395 . S
C1550 C1551 1.362 . S
C1551 H1515 0.930 . S
C1551 C1546 1.390 . S
C1551 C1550 1.362 . S
C1552 C1541 1.492 . S
C1552 C1553 1.377 . S
C1552 C1557 1.397 . S
C1553 H1516 0.931 . S
C1553 C1552 1.377 . S
C1553 C1554 1.376 . S
C1554 H1517 0.930 . S
C1554 C1553 1.376 . S
C1554 C1555 1.376 . S
C1555 C1554 1.376 . S
C1555 C1556 1.378 . S
C1555 C1582 1.486 . S
C1556 H1518 0.930 . S
C1556 C1555 1.378 . S
C1556 C1557 1.376 . S
C1557 H1519 0.929 . S
C1557 C1552 1.397 . S
C1557 C1556 1.376 . S
C1558 C1542 1.509 . S
C1558 C1559 1.391 . S
C1558 C1563 1.386 . S
C1559 H1520 0.930 . S
C1559 C1558 1.391 . S
C1559 C1560 1.375 . S
C1560 H1521 0.931 . S
C1560 C1559 1.375 . S
C1560 C1561 1.375 . S
C1561 C1560 1.375 . S
C1561 C1562 1.361 . S
C1562 H1522 0.930 . S
C1562 C1561 1.361 . S
C1562 C1563 1.399 . S
C1563 H1523 0.929 . S
C1563 C1558 1.386 . S
C1563 C1562 1.399 . S
C1564 C1543 1.485 . S
C1564 C1565 1.394 . S
C1564 C1569 1.360 . S
C1565 H1524 0.931 . S
C1565 C1564 1.394 . S
C1565 C1566 1.372 . S
C1566 H1525 0.930 . S
C1566 C1565 1.372 . S
C1566 C1567 1.397 . S
C1567 C1566 1.397 . S
C1567 C1568 1.390 . S
C1567 C1583 1.476 . S
C1568 H1526 0.930 . S
C1568 C1567 1.390 . S
C1568 C1569 1.366 . S
C1569 H1527 0.932 . S
C1569 C1564 1.360 . S
C1569 C1568 1.366 . S
C1570 C1544 1.490 . S
C1570 C1571 1.380 . S
C1570 C1575 1.386 . S
C1571 H1528 0.930 . S
C1571 C1570 1.380 . S
C1571 C1572 1.381 . S
C1572 H1529 0.929 . S
C1572 C1571 1.381 . S
C1572 C1573 1.371 . S
C1573 C1572 1.371 . S
C1573 C1574 1.380 . S
C1574 H1530 0.931 . S
C1574 C1573 1.380 . S
C1574 C1575 1.387 . S
C1575 H1531 0.930 . S
C1575 C1570 1.386 . S
C1575 C1574 1.387 . S
C1576 C1545 1.519 . S
C1576 C1577 1.377 . S
C1576 C1581 1.361 . S
C1577 H1532 0.929 . S
C1577 C1576 1.377 . S
C1577 C1578 1.386 . S
C1578 H1533 0.931 . S
C1578 C1577 1.386 . S
C1578 C1579 1.363 . S
C1579 C1578 1.363 . S
C1579 C1580 1.385 . S
C1580 H1534 0.930 . S
C1580 C1579 1.385 . S
C1580 C1581 1.396 . S
C1581 H1535 0.929 . S
C1581 C1576 1.361 . S
C1581 C1580 1.396 . S
C1582 O1536 1.300 . S
C1582 O1537 1.209 . S
C1582 C1555 1.486 . S
C1583 O1538 1.199 . S
C1583 O1539 1.297 . S
C1583 C1567 1.476 . S
C1584 C1585 1.339 1_455 S
C1584 C1586 1.286 1_455 S
C1584 H1609 0.980 . S
C1585 C1584 1.339 1_655 S
C1585 C1601 1.349 . S
C1586 C1584 1.286 1_655 S
C1586 C1605 1.467 . S
C1586 H1610 0.937 1_655 S
C1587 C1604 1.574 . S
C1587 C1606 1.368 . S
C1587 H1611 0.949 . S
H1588 C1592 0.949 . S
C1589 C1590 1.349 . S
C1589 C1591 1.327 . S
C1589 H1612 0.950 . S
C1590 C1589 1.349 . S
C1590 C1602 1.349 . S
C1591 C1589 1.327 . S
C1591 C1607 1.429 . S
C1591 H1613 0.950 . S
C1592 H1588 0.949 . S
C1592 C1600 1.574 . S
C1592 C1608 1.368 . S
H1593 C1601 0.950 . S
H1594 C1599 0.950 . S
H1595 C1600 0.926 1_455 S
H1596 C1602 0.950 . S
H1597 C1603 0.950 . S
H1598 C1604 0.949 . S
C1599 H1594 0.950 . S
C1599 C1601 1.327 . S
C1599 C1605 1.429 . S
C1600 C1592 1.574 . S
C1600 H1595 0.926 1_655 S
C1600 C1606 1.368 . S
C1601 C1585 1.349 . S
C1601 H1593 0.950 . S
C1601 C1599 1.327 . S
C1602 C1590 1.349 . S
C1602 H1596 0.950 . S
C1602 C1603 1.327 . S
C1603 H1597 0.950 . S
C1603 C1602 1.327 . S
C1603 C1607 1.429 . S
C1604 C1587 1.574 . S
C1604 H1598 0.949 . S
C1604 C1608 1.368 . S
C1605 C1586 1.467 . S
C1605 C1599 1.429 . S
C1605 C1606 1.523 . S
C1606 C1587 1.368 . S
C1606 C1600 1.368 . S
C1606 C1605 1.523 . S
C1607 C1591 1.429 . S
C1607 C1603 1.429 . S
C1607 C1608 1.523 . S
C1608 C1592 1.368 . S
C1608 C1604 1.368 . S
C1608 C1607 1.523 . S
H1609 C1584 0.980 . S
H1610 C1586 0.937 1_455 S
H1611 C1587 0.949 . S
H1612 C1589 0.950 . S
H1613 C1591 0.950 . S
C1614 C1615 1.349 . S
C1614 C1616 1.327 . S
C1614 H1639 0.950 . S
C1615 C1614 1.349 . S
C1615 C1631 1.349 . S
C1616 C1614 1.327 . S
C1616 C1635 1.429 . S
C1616 H1640 0.950 . S
C1617 C1634 1.574 . S
C1617 C1636 1.368 . S
C1617 H1641 0.949 . S
H1618 C1622 0.949 . S
C1619 C1620 1.349 . S
C1619 C1621 1.327 . S
C1619 H1642 0.950 . S
C1620 C1619 1.349 . S
C1620 C1632 1.349 . S
C1621 C1619 1.327 . S
C1621 C1637 1.429 . S
C1621 H1643 0.950 . S
C1622 H1618 0.949 . S
C1622 C1630 1.574 . S
C1622 C1638 1.368 . S
H1623 C1631 0.950 . S
H1624 C1629 0.950 . S
H1625 C1630 0.949 . S
H1626 C1632 0.950 . S
H1627 C1633 0.950 . S
H1628 C1634 0.949 . S
C1629 H1624 0.950 . S
C1629 C1631 1.327 . S
C1629 C1635 1.429 . S
C1630 C1622 1.574 . S
C1630 H1625 0.949 . S
C1630 C1636 1.368 . S
C1631 C1615 1.349 . S
C1631 H1623 0.950 . S
C1631 C1629 1.327 . S
C1632 C1620 1.349 . S
C1632 H1626 0.950 . S
C1632 C1633 1.327 . S
C1633 H1627 0.950 . S
C1633 C1632 1.327 . S
C1633 C1637 1.429 . S
C1634 C1617 1.574 . S
C1634 H1628 0.949 . S
C1634 C1638 1.368 . S
C1635 C1616 1.429 . S
C1635 C1629 1.429 . S
C1635 C1636 1.523 . S
C1636 C1617 1.368 . S
C1636 C1630 1.368 . S
C1636 C1635 1.523 . S
C1637 C1621 1.429 . S
C1637 C1633 1.429 . S
C1637 C1638 1.523 . S
C1638 C1622 1.368 . S
C1638 C1634 1.368 . S
C1638 C1637 1.523 . S
H1639 C1614 0.950 . S
H1640 C1616 0.950 . S
H1641 C1617 0.949 . S
H1642 C1619 0.950 . S
H1643 C1621 0.950 . S
C1644 C1645 1.349 . S
C1644 C1646 1.327 . S
C1644 H1669 0.950 . S
C1645 C1644 1.349 . S
C1645 C1661 1.349 . S
C1646 C1644 1.327 . S
C1646 C1665 1.429 . S
C1646 H1670 0.950 . S
C1647 C1664 1.572 1_545 S
C1647 C1666 1.367 . S
C1647 H1671 0.950 1_545 S
H1648 C1652 0.949 . S
C1649 C1650 1.358 . S
C1649 C1651 1.332 . S
C1649 H1672 0.935 1_545 S
C1650 C1649 1.358 . S
C1650 C1662 1.349 . S
C1651 C1649 1.332 . S
C1651 C1667 1.430 . S
C1651 H1673 0.949 1_545 S
C1652 H1648 0.949 . S
C1652 C1660 1.574 . S
C1652 C1668 1.368 . S
H1653 C1661 0.950 1_565 S
H1654 C1659 0.950 1_565 S
H1655 C1660 0.949 . S
H1656 C1662 0.950 . S
H1657 C1663 0.950 . S
H1658 C1664 0.955 . S
C1659 H1654 0.950 1_545 S
C1659 C1661 1.327 . S
C1659 C1665 1.429 . S
C1660 C1652 1.574 . S
C1660 H1655 0.949 . S
C1660 C1666 1.368 . S
C1661 C1645 1.349 . S
C1661 H1653 0.950 1_545 S
C1661 C1659 1.327 . S
C1662 C1650 1.349 . S
C1662 H1656 0.950 . S
C1662 C1663 1.327 . S
C1663 H1657 0.950 . S
C1663 C1662 1.327 . S
C1663 C1667 1.429 . S
C1664 C1647 1.572 1_565 S
C1664 H1658 0.955 . S
C1664 C1668 1.364 1_565 S
C1665 C1646 1.429 . S
C1665 C1659 1.429 . S
C1665 C1666 1.523 . S
C1666 C1647 1.367 . S
C1666 C1660 1.368 . S
C1666 C1665 1.523 . S
C1667 C1651 1.430 . S
C1667 C1663 1.429 . S
C1667 C1668 1.523 . S
C1668 C1652 1.368 . S
C1668 C1664 1.364 1_545 S
C1668 C1667 1.523 . S
H1669 C1644 0.950 . S
H1670 C1646 0.950 . S
H1671 C1647 0.950 1_565 S
H1672 C1649 0.935 1_565 S
H1673 C1651 0.949 1_565 S
C1674 C1675 1.349 1_545 S
C1674 C1676 1.327 . S
C1674 H1699 0.950 . S
C1675 C1674 1.349 1_565 S
C1675 C1691 1.349 . S
C1676 C1674 1.327 . S
C1676 C1695 1.429 1_545 S
C1676 H1700 0.950 . S
C1677 C1694 1.574 . S
C1677 C1696 1.368 . S
C1677 H1701 0.949 . S
H1678 C1682 0.949 . S
C1679 C1680 1.349 . S
C1679 C1681 1.327 . S
C1679 H1702 0.950 . S
C1680 C1679 1.349 . S
C1680 C1692 1.349 1_565 S
C1681 C1679 1.327 . S
C1681 C1697 1.429 . S
C1681 H1703 0.950 . S
C1682 H1678 0.949 . S
C1682 C1690 1.574 . S
C1682 C1698 1.368 1_545 S
H1683 C1691 0.950 . S
H1684 C1689 0.950 . S
H1685 C1690 0.949 . S
H1686 C1692 0.950 . S
H1687 C1693 0.950 . S
H1688 C1694 0.949 . S
C1689 H1684 0.950 . S
C1689 C1691 1.327 . S
C1689 C1695 1.429 . S
C1690 C1682 1.574 . S
C1690 H1685 0.949 . S
C1690 C1696 1.368 1_545 S
C1691 C1675 1.349 . S
C1691 H1683 0.950 . S
C1691 C1689 1.327 . S
C1692 C1680 1.349 1_545 S
C1692 H1686 0.950 . S
C1692 C1693 1.327 . S
C1693 H1687 0.950 . S
C1693 C1692 1.327 . S
C1693 C1697 1.429 1_545 S
C1694 C1677 1.574 . S
C1694 H1688 0.949 . S
C1694 C1698 1.368 . S
C1695 C1676 1.429 1_565 S
C1695 C1689 1.429 . S
C1695 C1696 1.523 . S
C1696 C1677 1.368 . S
C1696 C1690 1.368 1_565 S
C1696 C1695 1.523 . S
C1697 C1681 1.429 . S
C1697 C1693 1.429 1_565 S
C1697 C1698 1.523 . S
C1698 C1682 1.368 1_565 S
C1698 C1694 1.368 . S
C1698 C1697 1.523 . S
H1699 C1674 0.950 . S
H1700 C1676 0.950 . S
H1701 C1677 0.949 . S
H1702 C1679 0.950 . S
H1703 C1681 0.950 . S
C1704 C1705 1.349 . S
C1704 C1706 1.327 . S
C1704 H1729 0.950 1_455 S
C1705 C1704 1.349 . S
C1705 C1721 1.349 . S
C1706 C1704 1.327 . S
C1706 C1725 1.429 . S
C1706 H1730 0.950 1_455 S
C1707 C1724 1.574 . S
C1707 C1726 1.368 . S
C1707 H1731 0.949 . S
H1708 C1712 0.949 1_655 S
C1709 C1710 1.349 . S
C1709 C1711 1.327 . S
C1709 H1732 0.950 . S
C1710 C1709 1.349 . S
C1710 C1722 1.349 . S
C1711 C1709 1.327 . S
C1711 C1727 1.429 . S
C1711 H1733 0.950 . S
C1712 H1708 0.949 1_455 S
C1712 C1720 1.574 . S
C1712 C1728 1.368 . S
H1713 C1721 0.950 1_554 S
H1714 C1719 0.950 . S
H1715 C1720 0.949 1_655 S
H1716 C1722 0.950 1_655 S
H1717 C1723 0.950 1_655 S
H1718 C1724 0.949 . S
C1719 H1714 0.950 . S
C1719 C1721 1.327 . S
C1719 C1725 1.429 . S
C1720 C1712 1.574 . S
C1720 H1715 0.949 1_455 S
C1720 C1726 1.368 . S
C1721 C1705 1.349 . S
C1721 H1713 0.950 1_556 S
C1721 C1719 1.327 . S
C1722 C1710 1.349 . S
C1722 H1716 0.950 1_455 S
C1722 C1723 1.327 . S
C1723 H1717 0.950 1_455 S
C1723 C1722 1.327 . S
C1723 C1727 1.429 . S
C1724 C1707 1.574 . S
C1724 H1718 0.949 . S
C1724 C1728 1.368 . S
C1725 C1706 1.429 . S
C1725 C1719 1.429 . S
C1725 C1726 1.523 . S
C1726 C1707 1.368 . S
C1726 C1720 1.368 . S
C1726 C1725 1.523 . S
C1727 C1711 1.429 . S
C1727 C1723 1.429 . S
C1727 C1728 1.523 . S
C1728 C1712 1.368 . S
C1728 C1724 1.368 . S
C1728 C1727 1.523 . S
H1729 C1704 0.950 1_655 S
H1730 C1706 0.950 1_655 S
H1731 C1707 0.949 . S
H1732 C1709 0.950 . S
H1733 C1711 0.950 . S
C1734 C1735 1.349 . S
C1734 C1736 1.327 1_554 S
C1734 H1759 0.950 . S
C1735 C1734 1.349 . S
C1735 C1751 1.349 . S
C1736 C1734 1.327 1_556 S
C1736 C1755 1.429 . S
C1736 H1760 0.950 . S
C1737 C1754 1.574 . S
C1737 C1756 1.368 . S
C1737 H1761 0.949 . S
H1738 C1742 0.949 . S
C1739 C1740 1.349 . S
C1739 C1741 1.327 . S
C1739 H1762 0.950 . S
C1740 C1739 1.349 . S
C1740 C1752 1.349 . S
C1741 C1739 1.327 . S
C1741 C1757 1.429 . S
C1741 H1763 0.950 . S
C1742 H1738 0.949 . S
C1742 C1750 1.574 . S
C1742 C1758 1.368 . S
H1743 C1751 0.950 . S
H1744 C1749 0.950 . S
H1745 C1750 0.949 . S
H1746 C1752 0.950 . S
H1747 C1753 0.950 . S
H1748 C1754 0.949 . S
C1749 H1744 0.950 . S
C1749 C1751 1.327 . S
C1749 C1755 1.429 1_554 S
C1750 C1742 1.574 . S
C1750 H1745 0.949 . S
C1750 C1756 1.368 . S
C1751 C1735 1.349 . S
C1751 H1743 0.950 . S
C1751 C1749 1.327 . S
C1752 C1740 1.349 . S
C1752 H1746 0.950 . S
C1752 C1753 1.327 . S
C1753 H1747 0.950 . S
C1753 C1752 1.327 . S
C1753 C1757 1.429 . S
C1754 C1737 1.574 . S
C1754 H1748 0.949 . S
C1754 C1758 1.368 . S
C1755 C1736 1.429 . S
C1755 C1749 1.429 1_556 S
C1755 C1756 1.523 . S
C1756 C1737 1.368 . S
C1756 C1750 1.368 . S
C1756 C1755 1.523 . S
C1757 C1741 1.429 . S
C1757 C1753 1.429 . S
C1757 C1758 1.523 . S
C1758 C1742 1.368 . S
C1758 C1754 1.368 . S
C1758 C1757 1.523 . S
H1759 C1734 0.950 . S
H1760 C1736 0.950 . S
H1761 C1737 0.949 . S
H1762 C1739 0.950 . S
H1763 C1741 0.950 . S
C1764 C1765 1.349 1_656 S
C1764 C1766 1.327 . S
C1764 H1789 0.950 . S
C1765 C1764 1.349 1_454 S
C1765 C1781 1.349 . S
C1766 C1764 1.327 . S
C1766 C1785 1.429 1_655 S
C1766 H1790 0.950 . S
C1767 C1784 1.574 . S
C1767 C1786 1.368 . S
C1767 H1791 0.949 . S
H1768 C1772 0.949 . S
C1769 C1770 1.349 . S
C1769 C1771 1.327 . S
C1769 H1792 0.950 . S
C1770 C1769 1.349 . S
C1770 C1782 1.349 1_455 S
C1771 C1769 1.327 . S
C1771 C1787 1.429 . S
C1771 H1793 0.950 . S
C1772 H1768 0.949 . S
C1772 C1780 1.574 . S
C1772 C1788 1.368 1_655 S
H1773 C1781 0.950 . S
H1774 C1779 0.950 . S
H1775 C1780 0.949 . S
H1776 C1782 0.950 . S
H1777 C1783 0.950 . S
H1778 C1784 0.949 . S
C1779 H1774 0.950 . S
C1779 C1781 1.327 1_556 S
C1779 C1785 1.429 . S
C1780 C1772 1.574 . S
C1780 H1775 0.949 . S
C1780 C1786 1.368 1_655 S
C1781 C1765 1.349 . S
C1781 H1773 0.950 . S
C1781 C1779 1.327 1_554 S
C1782 C1770 1.349 1_655 S
C1782 H1776 0.950 . S
C1782 C1783 1.327 . S
C1783 H1777 0.950 . S
C1783 C1782 1.327 . S
C1783 C1787 1.429 1_655 S
C1784 C1767 1.574 . S
C1784 H1778 0.949 . S
C1784 C1788 1.368 . S
C1785 C1766 1.429 1_455 S
C1785 C1779 1.429 . S
C1785 C1786 1.523 . S
C1786 C1767 1.368 . S
C1786 C1780 1.368 1_455 S
C1786 C1785 1.523 . S
C1787 C1771 1.429 . S
C1787 C1783 1.429 1_455 S
C1787 C1788 1.523 . S
C1788 C1772 1.368 1_455 S
C1788 C1784 1.368 . S
C1788 C1787 1.523 . S
H1789 C1764 0.950 . S
H1790 C1766 0.950 . S
H1791 C1767 0.949 . S
H1792 C1769 0.950 . S
H1793 C1771 0.950 . S
C1794 C1795 1.349 . S
C1794 C1796 1.327 . S
C1794 H1819 0.950 . S
C1795 C1794 1.349 . S
C1795 C1811 1.349 . S
C1796 C1794 1.327 . S
C1796 C1815 1.429 . S
C1796 H1820 0.950 . S
C1797 C1814 1.574 . S
C1797 C1816 1.368 . S
C1797 H1821 0.949 . S
H1798 C1802 0.949 . S
C1799 C1800 1.349 . S
C1799 C1801 1.327 . S
C1799 H1822 0.950 . S
C1800 C1799 1.349 . S
C1800 C1812 1.349 . S
C1801 C1799 1.327 . S
C1801 C1817 1.429 . S
C1801 H1823 0.950 . S
C1802 H1798 0.949 . S
C1802 C1810 1.574 . S
C1802 C1818 1.368 . S
H1803 C1811 0.950 . S
H1804 C1809 0.950 . S
H1805 C1810 0.949 . S
H1806 C1812 0.950 . S
H1807 C1813 0.950 . S
H1808 C1814 0.949 . S
C1809 H1804 0.950 . S
C1809 C1811 1.327 . S
C1809 C1815 1.429 . S
C1810 C1802 1.574 . S
C1810 H1805 0.949 . S
C1810 C1816 1.368 . S
C1811 C1795 1.349 . S
C1811 H1803 0.950 . S
C1811 C1809 1.327 . S
C1812 C1800 1.349 . S
C1812 H1806 0.950 . S
C1812 C1813 1.327 . S
C1813 H1807 0.950 . S
C1813 C1812 1.327 . S
C1813 C1817 1.429 . S
C1814 C1797 1.574 . S
C1814 H1808 0.949 . S
C1814 C1818 1.368 . S
C1815 C1796 1.429 . S
C1815 C1809 1.429 . S
C1815 C1816 1.523 . S
C1816 C1797 1.368 . S
C1816 C1810 1.368 . S
C1816 C1815 1.523 . S
C1817 C1801 1.429 . S
C1817 C1813 1.429 . S
C1817 C1818 1.523 . S
C1818 C1802 1.368 . S
C1818 C1814 1.368 . S
C1818 C1817 1.523 . S
H1819 C1794 0.950 . S
H1820 C1796 0.950 . S
H1821 C1797 0.949 . S
H1822 C1799 0.950 . S
H1823 C1801 0.950 . S
C1824 C1825 1.349 . S
C1824 C1826 1.327 1_554 S
C1824 H1849 0.950 . S
C1825 C1824 1.349 . S
C1825 C1841 1.349 1_565 S
C1826 C1824 1.327 1_556 S
C1826 C1845 1.429 . S
C1826 H1850 0.950 . S
C1827 C1844 1.574 . S
C1827 C1846 1.368 1_545 S
C1827 H1851 0.949 . S
H1828 C1832 0.949 . S
C1829 C1830 1.352 . S
C1829 C1831 1.327 . S
C1829 H1852 0.950 . S
C1830 C1829 1.352 . S
C1830 C1842 1.341 1_545 S
C1831 C1829 1.327 . S
C1831 C1847 1.429 1_545 S
C1831 H1853 0.950 . S
C1832 H1828 0.949 . S
C1832 C1840 1.574 . S
C1832 C1848 1.368 . S
H1833 C1841 0.950 . S
H1834 C1839 0.950 . S
H1835 C1840 0.949 . S
H1836 C1842 0.950 . S
H1837 C1843 0.950 . S
H1838 C1844 0.949 . S
C1839 H1834 0.950 . S
C1839 C1841 1.327 1_556 S
C1839 C1845 1.429 1_545 S
C1840 C1832 1.574 . S
C1840 H1835 0.949 . S
C1840 C1846 1.368 . S
C1841 C1825 1.349 1_545 S
C1841 H1833 0.950 . S
C1841 C1839 1.327 1_554 S
C1842 C1830 1.341 1_565 S
C1842 H1836 0.950 . S
C1842 C1843 1.327 . S
C1843 H1837 0.950 . S
C1843 C1842 1.327 . S
C1843 C1847 1.429 . S
C1844 C1827 1.574 . S
C1844 H1838 0.949 . S
C1844 C1848 1.368 1_545 S
C1845 C1826 1.429 . S
C1845 C1839 1.429 1_565 S
C1845 C1846 1.523 . S
C1846 C1827 1.368 1_565 S
C1846 C1840 1.368 . S
C1846 C1845 1.523 . S
C1847 C1831 1.429 1_565 S
C1847 C1843 1.429 . S
C1847 C1848 1.523 . S
C1848 C1832 1.368 . S
C1848 C1844 1.368 1_565 S
C1848 C1847 1.523 . S
H1849 C1824 0.950 . S
H1850 C1826 0.950 . S
H1851 C1827 0.949 . S
H1852 C1829 0.950 . S
H1853 C1831 0.950 . S
C1854 C1855 1.349 . S
C1854 C1856 1.327 . S
C1854 H1879 0.950 . S
C1855 C1854 1.349 . S
C1855 C1871 1.349 1_545 S
C1856 C1854 1.327 . S
C1856 C1875 1.429 . S
C1856 H1880 0.950 . S
C1857 C1874 1.574 . S
C1857 C1876 1.368 1_565 S
C1857 H1881 0.949 . S
H1858 C1862 0.949 . S
C1859 C1860 1.406 . S
C1859 C1861 1.327 . S
C1859 H1882 0.950 . S
C1860 C1859 1.406 . S
C1860 C1872 1.306 1_565 S
C1861 C1859 1.327 . S
C1861 C1877 1.429 1_565 S
C1861 H1883 0.950 . S
C1862 H1858 0.949 . S
C1862 C1870 1.574 . S
C1862 C1878 1.368 . S
H1863 C1871 0.950 . S
H1864 C1869 0.950 . S
H1865 C1870 0.949 . S
H1866 C1872 0.950 . S
H1867 C1873 0.950 . S
H1868 C1874 0.949 . S
C1869 H1864 0.950 . S
C1869 C1871 1.327 . S
C1869 C1875 1.429 1_565 S
C1870 C1862 1.574 . S
C1870 H1865 0.949 . S
C1870 C1876 1.368 . S
C1871 C1855 1.349 1_565 S
C1871 H1863 0.950 . S
C1871 C1869 1.327 . S
C1872 C1860 1.306 1_545 S
C1872 H1866 0.950 . S
C1872 C1873 1.327 . S
C1873 H1867 0.950 . S
C1873 C1872 1.327 . S
C1873 C1877 1.429 . S
C1874 C1857 1.574 . S
C1874 H1868 0.949 . S
C1874 C1878 1.368 1_565 S
C1875 C1856 1.429 . S
C1875 C1869 1.429 1_545 S
C1875 C1876 1.523 . S
C1876 C1857 1.368 1_545 S
C1876 C1870 1.368 . S
C1876 C1875 1.523 . S
C1877 C1861 1.429 1_545 S
C1877 C1873 1.429 . S
C1877 C1878 1.523 . S
C1878 C1862 1.368 . S
C1878 C1874 1.368 1_545 S
C1878 C1877 1.523 . S
H1879 C1854 0.950 . S
H1880 C1856 0.950 . S
H1881 C1857 0.949 . S
H1882 C1859 0.950 . S
H1883 C1861 0.950 . S
C1884 C1885 1.349 . S
C1884 C1886 1.327 . S
C1884 H1909 0.929 1_655 S
C1885 C1884 1.349 . S
C1885 C1901 1.349 . S
C1886 C1884 1.327 . S
C1886 C1905 1.429 . S
C1886 H1910 0.950 1_655 S
C1887 C1904 1.574 . S
C1887 C1906 1.368 . S
C1887 H1911 0.949 . S
H1888 C1892 0.949 . S
C1889 C1890 1.388 . S
C1889 C1891 1.327 . S
C1889 H1912 0.950 . S
C1890 C1889 1.388 . S
C1890 C1902 1.330 1_655 S
C1891 C1889 1.327 . S
C1891 C1907 1.429 . S
C1891 H1913 0.950 . S
C1892 H1888 0.949 . S
C1892 C1900 1.590 . S
C1892 C1908 1.368 1_455 S
H1893 C1901 0.950 . S
H1894 C1899 0.950 . S
H1895 C1900 0.965 . S
H1896 C1902 0.950 . S
H1897 C1903 0.950 . S
H1898 C1904 0.949 . S
C1899 H1894 0.950 . S
C1899 C1901 1.327 . S
C1899 C1905 1.429 . S
C1900 C1892 1.590 . S
C1900 H1895 0.965 . S
C1900 C1906 1.336 1_455 S
C1901 C1885 1.349 . S
C1901 H1893 0.950 . S
C1901 C1899 1.327 . S
C1902 C1890 1.330 1_455 S
C1902 H1896 0.950 . S
C1902 C1903 1.327 . S
C1903 H1897 0.950 . S
C1903 C1902 1.327 . S
C1903 C1907 1.429 1_455 S
C1904 C1887 1.574 . S
C1904 H1898 0.949 . S
C1904 C1908 1.368 . S
C1905 C1886 1.429 . S
C1905 C1899 1.429 . S
C1905 C1906 1.523 . S
C1906 C1887 1.368 . S
C1906 C1900 1.336 1_655 S
C1906 C1905 1.523 . S
C1907 C1891 1.429 . S
C1907 C1903 1.429 1_655 S
C1907 C1908 1.523 . S
C1908 C1892 1.368 1_655 S
C1908 C1904 1.368 . S
C1908 C1907 1.523 . S
H1909 C1884 0.929 1_455 S
H1910 C1886 0.950 1_455 S
H1911 C1887 0.949 . S
H1912 C1889 0.950 . S
H1913 C1891 0.950 . S
C1914 C1915 1.349 . S
C1914 C1916 1.327 . S
C1914 H1939 0.950 . S
C1915 C1914 1.349 . S
C1915 C1931 1.349 . S
C1916 C1914 1.327 . S
C1916 C1935 1.429 . S
C1916 H1940 0.950 . S
C1917 C1934 1.574 . S
C1917 C1936 1.368 . S
C1917 H1941 0.949 . S
H1918 C1922 0.949 . S
C1919 C1920 1.349 . S
C1919 C1921 1.327 . S
C1919 H1942 0.950 . S
C1920 C1919 1.349 . S
C1920 C1932 1.349 . S
C1921 C1919 1.327 . S
C1921 C1937 1.429 . S
C1921 H1943 0.950 . S
C1922 H1918 0.949 . S
C1922 C1930 1.574 . S
C1922 C1938 1.368 . S
H1923 C1931 0.950 . S
H1924 C1929 0.950 . S
H1925 C1930 0.949 . S
H1926 C1932 0.950 . S
H1927 C1933 0.950 . S
H1928 C1934 0.949 . S
C1929 H1924 0.950 . S
C1929 C1931 1.327 . S
C1929 C1935 1.429 . S
C1930 C1922 1.574 . S
C1930 H1925 0.949 . S
C1930 C1936 1.368 . S
C1931 C1915 1.349 . S
C1931 H1923 0.950 . S
C1931 C1929 1.327 . S
C1932 C1920 1.349 . S
C1932 H1926 0.950 . S
C1932 C1933 1.327 . S
C1933 H1927 0.950 . S
C1933 C1932 1.327 . S
C1933 C1937 1.429 . S
C1934 C1917 1.574 . S
C1934 H1928 0.949 . S
C1934 C1938 1.368 . S
C1935 C1916 1.429 . S
C1935 C1929 1.429 . S
C1935 C1936 1.523 . S
C1936 C1917 1.368 . S
C1936 C1930 1.368 . S
C1936 C1935 1.523 . S
C1937 C1921 1.429 . S
C1937 C1933 1.429 . S
C1937 C1938 1.523 . S
C1938 C1922 1.368 . S
C1938 C1934 1.368 . S
C1938 C1937 1.523 . S
H1939 C1914 0.950 . S
H1940 C1916 0.950 . S
H1941 C1917 0.949 . S
H1942 C1919 0.950 . S
H1943 C1921 0.950 . S
C1944 C1945 1.349 . S
C1944 C1946 1.327 . S
C1944 H1969 0.950 . S
C1945 C1944 1.349 . S
C1945 C1961 1.349 . S
C1946 C1944 1.327 . S
C1946 C1965 1.429 . S
C1946 H1970 0.950 . S
C1947 C1964 1.574 . S
C1947 C1966 1.368 . S
C1947 H1971 0.949 . S
H1948 C1952 0.949 . S
C1949 C1950 1.349 . S
C1949 C1951 1.327 . S
C1949 H1972 0.950 . S
C1950 C1949 1.349 . S
C1950 C1962 1.349 . S
C1951 C1949 1.327 . S
C1951 C1967 1.429 . S
C1951 H1973 0.950 . S
C1952 H1948 0.949 . S
C1952 C1960 1.574 . S
C1952 C1968 1.368 . S
H1953 C1961 0.950 . S
H1954 C1959 0.950 . S
H1955 C1960 0.949 . S
H1956 C1962 0.950 . S
H1957 C1963 0.950 . S
H1958 C1964 0.949 . S
C1959 H1954 0.950 . S
C1959 C1961 1.327 . S
C1959 C1965 1.429 . S
C1960 C1952 1.574 . S
C1960 H1955 0.949 . S
C1960 C1966 1.368 . S
C1961 C1945 1.349 . S
C1961 H1953 0.950 . S
C1961 C1959 1.327 . S
C1962 C1950 1.349 . S
C1962 H1956 0.950 . S
C1962 C1963 1.327 . S
C1963 H1957 0.950 . S
C1963 C1962 1.327 . S
C1963 C1967 1.429 . S
C1964 C1947 1.574 . S
C1964 H1958 0.949 . S
C1964 C1968 1.368 . S
C1965 C1946 1.429 . S
C1965 C1959 1.429 . S
C1965 C1966 1.523 . S
C1966 C1947 1.368 . S
C1966 C1960 1.368 . S
C1966 C1965 1.523 . S
C1967 C1951 1.429 . S
C1967 C1963 1.429 . S
C1967 C1968 1.523 . S
C1968 C1952 1.368 . S
C1968 C1964 1.368 . S
C1968 C1967 1.523 . S
H1969 C1944 0.950 . S
H1970 C1946 0.950 . S
H1971 C1947 0.949 . S
H1972 C1949 0.950 . S
H1973 C1951 0.950 . S
C1974 C1975 1.349 . S
C1974 C1976 1.327 . S
C1974 H1999 0.950 . S
C1975 C1974 1.349 . S
C1975 C1991 1.349 . S
C1976 C1974 1.327 . S
C1976 C1995 1.429 . S
C1976 H2000 0.950 . S
C1977 C1994 1.574 . S
C1977 C1996 1.368 . S
C1977 H2001 0.949 . S
H1978 C1982 0.949 . S
C1979 C1980 1.349 . S
C1979 C1981 1.327 . S
C1979 H2002 0.950 . S
C1980 C1979 1.349 . S
C1980 C1992 1.349 . S
C1981 C1979 1.327 . S
C1981 C1997 1.429 . S
C1981 H2003 0.950 . S
C1982 H1978 0.949 . S
C1982 C1990 1.574 . S
C1982 C1998 1.368 . S
H1983 C1991 0.950 . S
H1984 C1989 0.950 . S
H1985 C1990 0.949 . S
H1986 C1992 0.950 . S
H1987 C1993 0.950 . S
H1988 C1994 0.949 . S
C1989 H1984 0.950 . S
C1989 C1991 1.327 . S
C1989 C1995 1.429 . S
C1990 C1982 1.574 . S
C1990 H1985 0.949 . S
C1990 C1996 1.368 . S
C1991 C1975 1.349 . S
C1991 H1983 0.950 . S
C1991 C1989 1.327 . S
C1992 C1980 1.349 . S
C1992 H1986 0.950 . S
C1992 C1993 1.327 . S
C1993 H1987 0.950 . S
C1993 C1992 1.327 . S
C1993 C1997 1.429 . S
C1994 C1977 1.574 . S
C1994 H1988 0.949 . S
C1994 C1998 1.368 . S
C1995 C1976 1.429 . S
C1995 C1989 1.429 . S
C1995 C1996 1.523 . S
C1996 C1977 1.368 . S
C1996 C1990 1.368 . S
C1996 C1995 1.523 . S
C1997 C1981 1.429 . S
C1997 C1993 1.429 . S
C1997 C1998 1.523 . S
C1998 C1982 1.368 . S
C1998 C1994 1.368 . S
C1998 C1997 1.523 . S
H1999 C1974 0.950 . S
H2000 C1976 0.950 . S
H2001 C1977 0.949 . S
H2002 C1979 0.950 . S
H2003 C1981 0.950 . S
C2004 C2005 1.349 . S
C2004 C2006 1.327 . S
C2004 H2029 0.950 . S
C2005 C2004 1.349 . S
C2005 C2021 1.349 . S
C2006 C2004 1.327 . S
C2006 C2025 1.429 . S
C2006 H2030 0.950 . S
C2007 C2024 1.574 . S
C2007 C2026 1.368 . S
C2007 H2031 0.949 . S
H2008 C2012 0.949 . S
C2009 C2010 1.349 . S
C2009 C2011 1.327 . S
C2009 H2032 0.950 . S
C2010 C2009 1.349 . S
C2010 C2022 1.349 . S
C2011 C2009 1.327 . S
C2011 C2027 1.429 . S
C2011 H2033 0.950 . S
C2012 H2008 0.949 . S
C2012 C2020 1.574 . S
C2012 C2028 1.368 . S
H2013 C2021 0.950 . S
H2014 C2019 0.950 . S
H2015 C2020 0.949 . S
H2016 C2022 0.950 . S
H2017 C2023 0.950 . S
H2018 C2024 0.949 . S
C2019 H2014 0.950 . S
C2019 C2021 1.327 . S
C2019 C2025 1.429 . S
C2020 C2012 1.574 . S
C2020 H2015 0.949 . S
C2020 C2026 1.368 . S
C2021 C2005 1.349 . S
C2021 H2013 0.950 . S
C2021 C2019 1.327 . S
C2022 C2010 1.349 . S
C2022 H2016 0.950 . S
C2022 C2023 1.327 . S
C2023 H2017 0.950 . S
C2023 C2022 1.327 . S
C2023 C2027 1.429 . S
C2024 C2007 1.574 . S
C2024 H2018 0.949 . S
C2024 C2028 1.368 . S
C2025 C2006 1.429 . S
C2025 C2019 1.429 . S
C2025 C2026 1.523 . S
C2026 C2007 1.368 . S
C2026 C2020 1.368 . S
C2026 C2025 1.523 . S
C2027 C2011 1.429 . S
C2027 C2023 1.429 . S
C2027 C2028 1.523 . S
C2028 C2012 1.368 . S
C2028 C2024 1.368 . S
C2028 C2027 1.523 . S
H2029 C2004 0.950 . S
H2030 C2006 0.950 . S
H2031 C2007 0.949 . S
H2032 C2009 0.950 . S
H2033 C2011 0.950 . S
C2034 C2035 1.349 . S
C2034 C2036 1.327 . S
C2034 H2059 0.950 . S
C2035 C2034 1.349 . S
C2035 C2051 1.349 . S
C2036 C2034 1.327 . S
C2036 C2055 1.429 . S
C2036 H2060 0.950 . S
C2037 C2054 1.574 . S
C2037 C2056 1.368 . S
C2037 H2061 0.949 . S
H2038 C2042 0.949 . S
C2039 C2040 1.349 . S
C2039 C2041 1.327 . S
C2039 H2062 0.950 . S
C2040 C2039 1.349 . S
C2040 C2052 1.349 . S
C2041 C2039 1.327 . S
C2041 C2057 1.429 . S
C2041 H2063 0.950 . S
C2042 H2038 0.949 . S
C2042 C2050 1.574 . S
C2042 C2058 1.368 . S
H2043 C2051 0.950 . S
H2044 C2049 0.950 . S
H2045 C2050 0.949 . S
H2046 C2052 0.950 . S
H2047 C2053 0.950 . S
H2048 C2054 0.949 . S
C2049 H2044 0.950 . S
C2049 C2051 1.327 . S
C2049 C2055 1.429 . S
C2050 C2042 1.574 . S
C2050 H2045 0.949 . S
C2050 C2056 1.368 . S
C2051 C2035 1.349 . S
C2051 H2043 0.950 . S
C2051 C2049 1.327 . S
C2052 C2040 1.349 . S
C2052 H2046 0.950 . S
C2052 C2053 1.327 . S
C2053 H2047 0.950 . S
C2053 C2052 1.327 . S
C2053 C2057 1.429 . S
C2054 C2037 1.574 . S
C2054 H2048 0.949 . S
C2054 C2058 1.368 . S
C2055 C2036 1.429 . S
C2055 C2049 1.429 . S
C2055 C2056 1.523 . S
C2056 C2037 1.368 . S
C2056 C2050 1.368 . S
C2056 C2055 1.523 . S
C2057 C2041 1.429 . S
C2057 C2053 1.429 . S
C2057 C2058 1.523 . S
C2058 C2042 1.368 . S
C2058 C2054 1.368 . S
C2058 C2057 1.523 . S
H2059 C2034 0.950 . S
H2060 C2036 0.950 . S
H2061 C2037 0.949 . S
H2062 C2039 0.950 . S
H2063 C2041 0.950 . S
C2064 C2065 1.349 . S
C2064 C2066 1.327 . S
C2064 H2089 0.950 . S
C2065 C2064 1.349 . S
C2065 C2081 1.349 . S
C2066 C2064 1.327 . S
C2066 C2085 1.429 . S
C2066 H2090 0.950 . S
C2067 C2084 1.574 . S
C2067 C2086 1.368 . S
C2067 H2091 0.949 . S
H2068 C2072 0.949 . S
C2069 C2070 1.349 . S
C2069 C2071 1.327 . S
C2069 H2092 0.950 . S
C2070 C2069 1.349 . S
C2070 C2082 1.349 . S
C2071 C2069 1.327 . S
C2071 C2087 1.429 . S
C2071 H2093 0.950 . S
C2072 H2068 0.949 . S
C2072 C2080 1.574 . S
C2072 C2088 1.368 . S
H2073 C2081 0.950 . S
H2074 C2079 0.950 . S
H2075 C2080 0.949 . S
H2076 C2082 0.950 . S
H2077 C2083 0.950 . S
H2078 C2084 0.949 . S
C2079 H2074 0.950 . S
C2079 C2081 1.327 . S
C2079 C2085 1.429 . S
C2080 C2072 1.574 . S
C2080 H2075 0.949 . S
C2080 C2086 1.368 . S
C2081 C2065 1.349 . S
C2081 H2073 0.950 . S
C2081 C2079 1.327 . S
C2082 C2070 1.349 . S
C2082 H2076 0.950 . S
C2082 C2083 1.327 . S
C2083 H2077 0.950 . S
C2083 C2082 1.327 . S
C2083 C2087 1.429 . S
C2084 C2067 1.574 . S
C2084 H2078 0.949 . S
C2084 C2088 1.368 . S
C2085 C2066 1.429 . S
C2085 C2079 1.429 . S
C2085 C2086 1.523 . S
C2086 C2067 1.368 . S
C2086 C2080 1.368 . S
C2086 C2085 1.523 . S
C2087 C2071 1.429 . S
C2087 C2083 1.429 . S
C2087 C2088 1.523 . S
C2088 C2072 1.368 . S
C2088 C2084 1.368 . S
C2088 C2087 1.523 . S
H2089 C2064 0.950 . S
H2090 C2066 0.950 . S
H2091 C2067 0.949 . S
H2092 C2069 0.950 . S
H2093 C2071 0.950 . S
C2094 C2095 1.349 . S
C2094 C2096 1.327 . S
C2094 H2119 0.950 . S
C2095 C2094 1.349 . S
C2095 C2111 1.349 . S
C2096 C2094 1.327 . S
C2096 C2115 1.429 . S
C2096 H2120 0.950 . S
C2097 C2114 1.574 . S
C2097 C2116 1.368 . S
C2097 H2121 0.949 . S
H2098 C2102 0.949 . S
C2099 C2100 1.349 . S
C2099 C2101 1.327 . S
C2099 H2122 0.950 . S
C2100 C2099 1.349 . S
C2100 C2112 1.349 . S
C2101 C2099 1.327 . S
C2101 C2117 1.429 . S
C2101 H2123 0.950 . S
C2102 H2098 0.949 . S
C2102 C2110 1.574 . S
C2102 C2118 1.368 . S
H2103 C2111 0.950 . S
H2104 C2109 0.950 . S
H2105 C2110 0.949 . S
H2106 C2112 0.950 . S
H2107 C2113 0.950 . S
H2108 C2114 0.949 . S
C2109 H2104 0.950 . S
C2109 C2111 1.327 . S
C2109 C2115 1.429 . S
C2110 C2102 1.574 . S
C2110 H2105 0.949 . S
C2110 C2116 1.368 . S
C2111 C2095 1.349 . S
C2111 H2103 0.950 . S
C2111 C2109 1.327 . S
C2112 C2100 1.349 . S
C2112 H2106 0.950 . S
C2112 C2113 1.327 . S
C2113 H2107 0.950 . S
C2113 C2112 1.327 . S
C2113 C2117 1.429 . S
C2114 C2097 1.574 . S
C2114 H2108 0.949 . S
C2114 C2118 1.368 . S
C2115 C2096 1.429 . S
C2115 C2109 1.429 . S
C2115 C2116 1.523 . S
C2116 C2097 1.368 . S
C2116 C2110 1.368 . S
C2116 C2115 1.523 . S
C2117 C2101 1.429 . S
C2117 C2113 1.429 . S
C2117 C2118 1.523 . S
C2118 C2102 1.368 . S
C2118 C2114 1.368 . S
C2118 C2117 1.523 . S
H2119 C2094 0.950 . S
H2120 C2096 0.950 . S
H2121 C2097 0.949 . S
H2122 C2099 0.950 . S
H2123 C2101 0.950 . S
C2124 C2125 1.349 . S
C2124 C2126 1.327 . S
C2124 H2149 0.950 . S
C2125 C2124 1.349 . S
C2125 C2141 1.349 . S
C2126 C2124 1.327 . S
C2126 C2145 1.429 . S
C2126 H2150 0.950 . S
C2127 C2144 1.574 . S
C2127 C2146 1.368 . S
C2127 H2151 0.949 . S
H2128 C2132 0.949 . S
C2129 C2130 1.349 . S
C2129 C2131 1.327 . S
C2129 H2152 0.950 . S
C2130 C2129 1.349 . S
C2130 C2142 1.349 . S
C2131 C2129 1.327 . S
C2131 C2147 1.429 . S
C2131 H2153 0.950 . S
C2132 H2128 0.949 . S
C2132 C2140 1.574 . S
C2132 C2148 1.368 . S
H2133 C2141 0.950 . S
H2134 C2139 0.950 . S
H2135 C2140 0.949 . S
H2136 C2142 0.950 . S
H2137 C2143 0.950 . S
H2138 C2144 0.949 . S
C2139 H2134 0.950 . S
C2139 C2141 1.327 . S
C2139 C2145 1.429 . S
C2140 C2132 1.574 . S
C2140 H2135 0.949 . S
C2140 C2146 1.368 . S
C2141 C2125 1.349 . S
C2141 H2133 0.950 . S
C2141 C2139 1.327 . S
C2142 C2130 1.349 . S
C2142 H2136 0.950 . S
C2142 C2143 1.327 . S
C2143 H2137 0.950 . S
C2143 C2142 1.327 . S
C2143 C2147 1.429 . S
C2144 C2127 1.574 . S
C2144 H2138 0.949 . S
C2144 C2148 1.368 . S
C2145 C2126 1.429 . S
C2145 C2139 1.429 . S
C2145 C2146 1.523 . S
C2146 C2127 1.368 . S
C2146 C2140 1.368 . S
C2146 C2145 1.523 . S
C2147 C2131 1.429 . S
C2147 C2143 1.429 . S
C2147 C2148 1.523 . S
C2148 C2132 1.368 . S
C2148 C2144 1.368 . S
C2148 C2147 1.523 . S
H2149 C2124 0.950 . S
H2150 C2126 0.950 . S
H2151 C2127 0.949 . S
H2152 C2129 0.950 . S
H2153 C2131 0.950 . S
C2154 C2155 1.349 . S
C2154 C2156 1.327 . S
C2154 H2179 0.950 . S
C2155 C2154 1.349 . S
C2155 C2171 1.349 . S
C2156 C2154 1.327 . S
C2156 C2175 1.429 . S
C2156 H2180 0.950 . S
C2157 C2174 1.574 . S
C2157 C2176 1.368 . S
C2157 H2181 0.949 . S
H2158 C2162 0.949 . S
C2159 C2160 1.349 . S
C2159 C2161 1.327 . S
C2159 H2182 0.950 . S
C2160 C2159 1.349 . S
C2160 C2172 1.349 . S
C2161 C2159 1.327 . S
C2161 C2177 1.429 . S
C2161 H2183 0.950 . S
C2162 H2158 0.949 . S
C2162 C2170 1.574 . S
C2162 C2178 1.368 . S
H2163 C2171 0.950 . S
H2164 C2169 0.950 . S
H2165 C2170 0.949 . S
H2166 C2172 0.950 . S
H2167 C2173 0.950 . S
H2168 C2174 0.949 . S
C2169 H2164 0.950 . S
C2169 C2171 1.327 . S
C2169 C2175 1.429 . S
C2170 C2162 1.574 . S
C2170 H2165 0.949 . S
C2170 C2176 1.368 . S
C2171 C2155 1.349 . S
C2171 H2163 0.950 . S
C2171 C2169 1.327 . S
C2172 C2160 1.349 . S
C2172 H2166 0.950 . S
C2172 C2173 1.327 . S
C2173 H2167 0.950 . S
C2173 C2172 1.327 . S
C2173 C2177 1.429 . S
C2174 C2157 1.574 . S
C2174 H2168 0.949 . S
C2174 C2178 1.368 . S
C2175 C2156 1.429 . S
C2175 C2169 1.429 . S
C2175 C2176 1.523 . S
C2176 C2157 1.368 . S
C2176 C2170 1.368 . S
C2176 C2175 1.523 . S
C2177 C2161 1.429 . S
C2177 C2173 1.429 . S
C2177 C2178 1.523 . S
C2178 C2162 1.368 . S
C2178 C2174 1.368 . S
C2178 C2177 1.523 . S
H2179 C2154 0.950 . S
H2180 C2156 0.950 . S
H2181 C2157 0.949 . S
H2182 C2159 0.950 . S
H2183 C2161 0.950 . S
C2184 C2185 1.349 . S
C2184 C2186 1.327 . S
C2184 H2209 0.950 . S
C2185 C2184 1.349 . S
C2185 C2201 1.349 . S
C2186 C2184 1.327 . S
C2186 C2205 1.429 . S
C2186 H2210 0.950 . S
C2187 C2204 1.574 . S
C2187 C2206 1.368 . S
C2187 H2211 0.949 . S
H2188 C2192 0.949 . S
C2189 C2190 1.349 . S
C2189 C2191 1.327 . S
C2189 H2212 0.950 . S
C2190 C2189 1.349 . S
C2190 C2202 1.349 . S
C2191 C2189 1.327 . S
C2191 C2207 1.429 . S
C2191 H2213 0.950 . S
C2192 H2188 0.949 . S
C2192 C2200 1.574 . S
C2192 C2208 1.368 . S
H2193 C2201 0.950 . S
H2194 C2199 0.950 . S
H2195 C2200 0.949 . S
H2196 C2202 0.950 . S
H2197 C2203 0.950 . S
H2198 C2204 0.949 . S
C2199 H2194 0.950 . S
C2199 C2201 1.327 . S
C2199 C2205 1.429 . S
C2200 C2192 1.574 . S
C2200 H2195 0.949 . S
C2200 C2206 1.368 . S
C2201 C2185 1.349 . S
C2201 H2193 0.950 . S
C2201 C2199 1.327 . S
C2202 C2190 1.349 . S
C2202 H2196 0.950 . S
C2202 C2203 1.327 . S
C2203 H2197 0.950 . S
C2203 C2202 1.327 . S
C2203 C2207 1.429 . S
C2204 C2187 1.574 . S
C2204 H2198 0.949 . S
C2204 C2208 1.368 . S
C2205 C2186 1.429 . S
C2205 C2199 1.429 . S
C2205 C2206 1.523 . S
C2206 C2187 1.368 . S
C2206 C2200 1.368 . S
C2206 C2205 1.523 . S
C2207 C2191 1.429 . S
C2207 C2203 1.429 . S
C2207 C2208 1.523 . S
C2208 C2192 1.368 . S
C2208 C2204 1.368 . S
C2208 C2207 1.523 . S
H2209 C2184 0.950 . S
H2210 C2186 0.950 . S
H2211 C2187 0.949 . S
H2212 C2189 0.950 . S
H2213 C2191 0.950 . S
C2214 C2215 1.349 . S
C2214 C2216 1.327 . S
C2214 H2239 0.950 . S
C2215 C2214 1.349 . S
C2215 C2231 1.349 . S
C2216 C2214 1.327 . S
C2216 C2235 1.429 . S
C2216 H2240 0.950 . S
C2217 C2234 1.574 . S
C2217 C2236 1.368 . S
C2217 H2241 0.949 . S
H2218 C2222 0.949 . S
C2219 C2220 1.349 . S
C2219 C2221 1.327 . S
C2219 H2242 0.950 . S
C2220 C2219 1.349 . S
C2220 C2232 1.349 . S
C2221 C2219 1.327 . S
C2221 C2237 1.429 . S
C2221 H2243 0.950 . S
C2222 H2218 0.949 . S
C2222 C2230 1.574 . S
C2222 C2238 1.368 . S
H2223 C2231 0.950 . S
H2224 C2229 0.950 . S
H2225 C2230 0.949 . S
H2226 C2232 0.950 . S
H2227 C2233 0.950 . S
H2228 C2234 0.949 . S
C2229 H2224 0.950 . S
C2229 C2231 1.327 . S
C2229 C2235 1.429 . S
C2230 C2222 1.574 . S
C2230 H2225 0.949 . S
C2230 C2236 1.368 . S
C2231 C2215 1.349 . S
C2231 H2223 0.950 . S
C2231 C2229 1.327 . S
C2232 C2220 1.349 . S
C2232 H2226 0.950 . S
C2232 C2233 1.327 . S
C2233 H2227 0.950 . S
C2233 C2232 1.327 . S
C2233 C2237 1.429 . S
C2234 C2217 1.574 . S
C2234 H2228 0.949 . S
C2234 C2238 1.368 . S
C2235 C2216 1.429 . S
C2235 C2229 1.429 . S
C2235 C2236 1.523 . S
C2236 C2217 1.368 . S
C2236 C2230 1.368 . S
C2236 C2235 1.523 . S
C2237 C2221 1.429 . S
C2237 C2233 1.429 . S
C2237 C2238 1.523 . S
C2238 C2222 1.368 . S
C2238 C2234 1.368 . S
C2238 C2237 1.523 . S
H2239 C2214 0.950 . S
H2240 C2216 0.950 . S
H2241 C2217 0.949 . S
H2242 C2219 0.950 . S
H2243 C2221 0.950 . S
C2244 C2245 1.349 . S
C2244 C2246 1.327 . S
C2244 H2269 0.950 . S
C2245 C2244 1.349 . S
C2245 C2261 1.349 . S
C2246 C2244 1.327 . S
C2246 C2265 1.429 . S
C2246 H2270 0.950 . S
C2247 C2264 1.574 . S
C2247 C2266 1.368 . S
C2247 H2271 0.949 . S
H2248 C2252 0.949 . S
C2249 C2250 1.349 . S
C2249 C2251 1.327 . S
C2249 H2272 0.950 . S
C2250 C2249 1.349 . S
C2250 C2262 1.349 . S
C2251 C2249 1.327 . S
C2251 C2267 1.429 . S
C2251 H2273 0.950 . S
C2252 H2248 0.949 . S
C2252 C2260 1.574 . S
C2252 C2268 1.368 . S
H2253 C2261 0.950 . S
H2254 C2259 0.950 . S
H2255 C2260 0.949 . S
H2256 C2262 0.950 . S
H2257 C2263 0.950 . S
H2258 C2264 0.949 . S
C2259 H2254 0.950 . S
C2259 C2261 1.327 . S
C2259 C2265 1.429 . S
C2260 C2252 1.574 . S
C2260 H2255 0.949 . S
C2260 C2266 1.368 . S
C2261 C2245 1.349 . S
C2261 H2253 0.950 . S
C2261 C2259 1.327 . S
C2262 C2250 1.349 . S
C2262 H2256 0.950 . S
C2262 C2263 1.327 . S
C2263 H2257 0.950 . S
C2263 C2262 1.327 . S
C2263 C2267 1.429 . S
C2264 C2247 1.574 . S
C2264 H2258 0.949 . S
C2264 C2268 1.368 . S
C2265 C2246 1.429 . S
C2265 C2259 1.429 . S
C2265 C2266 1.523 . S
C2266 C2247 1.368 . S
C2266 C2260 1.368 . S
C2266 C2265 1.523 . S
C2267 C2251 1.429 . S
C2267 C2263 1.429 . S
C2267 C2268 1.523 . S
C2268 C2252 1.368 . S
C2268 C2264 1.368 . S
C2268 C2267 1.523 . S
H2269 C2244 0.950 . S
H2270 C2246 0.950 . S
H2271 C2247 0.949 . S
H2272 C2249 0.950 . S
H2273 C2251 0.950 . S
C2274 C2275 1.349 . S
C2274 C2276 1.327 . S
C2274 H2299 0.950 . S
C2275 C2274 1.349 . S
C2275 C2291 1.349 . S
C2276 C2274 1.327 . S
C2276 C2295 1.429 . S
C2276 H2300 0.950 . S
C2277 C2294 1.574 . S
C2277 C2296 1.368 . S
C2277 H2301 0.949 . S
H2278 C2282 0.949 . S
C2279 C2280 1.349 . S
C2279 C2281 1.327 . S
C2279 H2302 0.950 . S
C2280 C2279 1.349 . S
C2280 C2292 1.349 . S
C2281 C2279 1.327 . S
C2281 C2297 1.429 . S
C2281 H2303 0.950 . S
C2282 H2278 0.949 . S
C2282 C2290 1.574 . S
C2282 C2298 1.368 . S
H2283 C2291 0.950 . S
H2284 C2289 0.950 . S
H2285 C2290 0.949 . S
H2286 C2292 0.950 . S
H2287 C2293 0.950 . S
H2288 C2294 0.949 . S
C2289 H2284 0.950 . S
C2289 C2291 1.327 . S
C2289 C2295 1.429 . S
C2290 C2282 1.574 . S
C2290 H2285 0.949 . S
C2290 C2296 1.368 . S
C2291 C2275 1.349 . S
C2291 H2283 0.950 . S
C2291 C2289 1.327 . S
C2292 C2280 1.349 . S
C2292 H2286 0.950 . S
C2292 C2293 1.327 . S
C2293 H2287 0.950 . S
C2293 C2292 1.327 . S
C2293 C2297 1.429 . S
C2294 C2277 1.574 . S
C2294 H2288 0.949 . S
C2294 C2298 1.368 . S
C2295 C2276 1.429 . S
C2295 C2289 1.429 . S
C2295 C2296 1.523 . S
C2296 C2277 1.368 . S
C2296 C2290 1.368 . S
C2296 C2295 1.523 . S
C2297 C2281 1.429 . S
C2297 C2293 1.429 . S
C2297 C2298 1.523 . S
C2298 C2282 1.368 . S
C2298 C2294 1.368 . S
C2298 C2297 1.523 . S
H2299 C2274 0.950 . S
H2300 C2276 0.950 . S
H2301 C2277 0.949 . S
H2302 C2279 0.950 . S
H2303 C2281 0.950 . S
C2304 C2305 1.349 . S
C2304 C2306 1.327 . S
C2304 H2329 0.950 . S
C2305 C2304 1.349 . S
C2305 C2321 1.349 . S
C2306 C2304 1.327 . S
C2306 C2325 1.429 . S
C2306 H2330 0.950 . S
C2307 C2324 1.574 . S
C2307 C2326 1.368 . S
C2307 H2331 0.949 . S
H2308 C2312 0.949 . S
C2309 C2310 1.349 . S
C2309 C2311 1.327 . S
C2309 H2332 0.950 . S
C2310 C2309 1.349 . S
C2310 C2322 1.349 . S
C2311 C2309 1.327 . S
C2311 C2327 1.429 . S
C2311 H2333 0.950 . S
C2312 H2308 0.949 . S
C2312 C2320 1.574 . S
C2312 C2328 1.368 . S
H2313 C2321 0.950 . S
H2314 C2319 0.950 . S
H2315 C2320 0.949 . S
H2316 C2322 0.950 . S
H2317 C2323 0.950 . S
H2318 C2324 0.949 . S
C2319 H2314 0.950 . S
C2319 C2321 1.327 . S
C2319 C2325 1.429 . S
C2320 C2312 1.574 . S
C2320 H2315 0.949 . S
C2320 C2326 1.368 . S
C2321 C2305 1.349 . S
C2321 H2313 0.950 . S
C2321 C2319 1.327 . S
C2322 C2310 1.349 . S
C2322 H2316 0.950 . S
C2322 C2323 1.327 . S
C2323 H2317 0.950 . S
C2323 C2322 1.327 . S
C2323 C2327 1.429 . S
C2324 C2307 1.574 . S
C2324 H2318 0.949 . S
C2324 C2328 1.368 . S
C2325 C2306 1.429 . S
C2325 C2319 1.429 . S
C2325 C2326 1.523 . S
C2326 C2307 1.368 . S
C2326 C2320 1.368 . S
C2326 C2325 1.523 . S
C2327 C2311 1.429 . S
C2327 C2323 1.429 . S
C2327 C2328 1.523 . S
C2328 C2312 1.368 . S
C2328 C2324 1.368 . S
C2328 C2327 1.523 . S
H2329 C2304 0.950 . S
H2330 C2306 0.950 . S
H2331 C2307 0.949 . S
H2332 C2309 0.950 . S
H2333 C2311 0.950 . S
C2334 C2335 1.349 . S
C2334 C2336 1.327 . S
C2334 H2359 0.950 . S
C2335 C2334 1.349 . S
C2335 C2351 1.349 . S
C2336 C2334 1.327 . S
C2336 C2355 1.429 . S
C2336 H2360 0.950 . S
C2337 C2354 1.574 . S
C2337 C2356 1.368 . S
C2337 H2361 0.949 . S
H2338 C2342 0.949 . S
C2339 C2340 1.349 . S
C2339 C2341 1.327 . S
C2339 H2362 0.950 . S
C2340 C2339 1.349 . S
C2340 C2352 1.349 . S
C2341 C2339 1.327 . S
C2341 C2357 1.429 . S
C2341 H2363 0.950 . S
C2342 H2338 0.949 . S
C2342 C2350 1.574 . S
C2342 C2358 1.368 . S
H2343 C2351 0.950 . S
H2344 C2349 0.950 . S
H2345 C2350 0.949 . S
H2346 C2352 0.950 . S
H2347 C2353 0.950 . S
H2348 C2354 0.949 . S
C2349 H2344 0.950 . S
C2349 C2351 1.327 . S
C2349 C2355 1.429 . S
C2350 C2342 1.574 . S
C2350 H2345 0.949 . S
C2350 C2356 1.368 . S
C2351 C2335 1.349 . S
C2351 H2343 0.950 . S
C2351 C2349 1.327 . S
C2352 C2340 1.349 . S
C2352 H2346 0.950 . S
C2352 C2353 1.327 . S
C2353 H2347 0.950 . S
C2353 C2352 1.327 . S
C2353 C2357 1.429 . S
C2354 C2337 1.574 . S
C2354 H2348 0.949 . S
C2354 C2358 1.368 . S
C2355 C2336 1.429 . S
C2355 C2349 1.429 . S
C2355 C2356 1.523 . S
C2356 C2337 1.368 . S
C2356 C2350 1.368 . S
C2356 C2355 1.523 . S
C2357 C2341 1.429 . S
C2357 C2353 1.429 . S
C2357 C2358 1.523 . S
C2358 C2342 1.368 . S
C2358 C2354 1.368 . S
C2358 C2357 1.523 . S
H2359 C2334 0.950 . S
H2360 C2336 0.950 . S
H2361 C2337 0.949 . S
H2362 C2339 0.950 . S
H2363 C2341 0.950 . S
C2364 C2365 1.349 . S
C2364 C2366 1.327 . S
C2364 H2389 0.950 . S
C2365 C2364 1.349 . S
C2365 C2381 1.349 . S
C2366 C2364 1.327 . S
C2366 C2385 1.429 . S
C2366 H2390 0.950 . S
C2367 C2384 1.574 . S
C2367 C2386 1.368 . S
C2367 H2391 0.949 . S
H2368 C2372 0.949 . S
C2369 C2370 1.349 . S
C2369 C2371 1.327 . S
C2369 H2392 0.950 . S
C2370 C2369 1.349 . S
C2370 C2382 1.349 . S
C2371 C2369 1.327 . S
C2371 C2387 1.429 . S
C2371 H2393 0.950 . S
C2372 H2368 0.949 . S
C2372 C2380 1.574 . S
C2372 C2388 1.368 . S
H2373 C2381 0.950 . S
H2374 C2379 0.950 . S
H2375 C2380 0.949 . S
H2376 C2382 0.950 . S
H2377 C2383 0.950 . S
H2378 C2384 0.949 . S
C2379 H2374 0.950 . S
C2379 C2381 1.327 . S
C2379 C2385 1.429 . S
C2380 C2372 1.574 . S
C2380 H2375 0.949 . S
C2380 C2386 1.368 . S
C2381 C2365 1.349 . S
C2381 H2373 0.950 . S
C2381 C2379 1.327 . S
C2382 C2370 1.349 . S
C2382 H2376 0.950 . S
C2382 C2383 1.327 . S
C2383 H2377 0.950 . S
C2383 C2382 1.327 . S
C2383 C2387 1.429 . S
C2384 C2367 1.574 . S
C2384 H2378 0.949 . S
C2384 C2388 1.368 . S
C2385 C2366 1.429 . S
C2385 C2379 1.429 . S
C2385 C2386 1.523 . S
C2386 C2367 1.368 . S
C2386 C2380 1.368 . S
C2386 C2385 1.523 . S
C2387 C2371 1.429 . S
C2387 C2383 1.429 . S
C2387 C2388 1.523 . S
C2388 C2372 1.368 . S
C2388 C2384 1.368 . S
C2388 C2387 1.523 . S
H2389 C2364 0.950 . S
H2390 C2366 0.950 . S
H2391 C2367 0.949 . S
H2392 C2369 0.950 . S
H2393 C2371 0.950 . S
C2394 C2395 1.349 . S
C2394 C2396 1.327 . S
C2394 H2419 0.950 . S
C2395 C2394 1.349 . S
C2395 C2411 1.349 . S
C2396 C2394 1.327 . S
C2396 C2415 1.429 . S
C2396 H2420 0.950 . S
C2397 C2414 1.574 . S
C2397 C2416 1.368 . S
C2397 H2421 0.949 . S
H2398 C2402 0.949 . S
C2399 C2400 1.349 . S
C2399 C2401 1.327 . S
C2399 H2422 0.950 . S
C2400 C2399 1.349 . S
C2400 C2412 1.349 . S
C2401 C2399 1.327 . S
C2401 C2417 1.429 . S
C2401 H2423 0.950 . S
C2402 H2398 0.949 . S
C2402 C2410 1.574 . S
C2402 C2418 1.368 . S
H2403 C2411 0.950 . S
H2404 C2409 0.950 . S
H2405 C2410 0.949 . S
H2406 C2412 0.950 . S
H2407 C2413 0.950 . S
H2408 C2414 0.949 . S
C2409 H2404 0.950 . S
C2409 C2411 1.327 . S
C2409 C2415 1.429 . S
C2410 C2402 1.574 . S
C2410 H2405 0.949 . S
C2410 C2416 1.368 . S
C2411 C2395 1.349 . S
C2411 H2403 0.950 . S
C2411 C2409 1.327 . S
C2412 C2400 1.349 . S
C2412 H2406 0.950 . S
C2412 C2413 1.327 . S
C2413 H2407 0.950 . S
C2413 C2412 1.327 . S
C2413 C2417 1.429 . S
C2414 C2397 1.574 . S
C2414 H2408 0.949 . S
C2414 C2418 1.368 . S
C2415 C2396 1.429 . S
C2415 C2409 1.429 . S
C2415 C2416 1.523 . S
C2416 C2397 1.368 . S
C2416 C2410 1.368 . S
C2416 C2415 1.523 . S
C2417 C2401 1.429 . S
C2417 C2413 1.429 . S
C2417 C2418 1.523 . S
C2418 C2402 1.368 . S
C2418 C2414 1.368 . S
C2418 C2417 1.523 . S
H2419 C2394 0.950 . S
H2420 C2396 0.950 . S
H2421 C2397 0.949 . S
H2422 C2399 0.950 . S
H2423 C2401 0.950 . S
C2424 C2425 1.349 . S
C2424 C2426 1.327 . S
C2424 H2449 0.950 . S
C2425 C2424 1.349 . S
C2425 C2441 1.349 . S
C2426 C2424 1.327 . S
C2426 C2445 1.429 . S
C2426 H2450 0.950 . S
C2427 C2444 1.574 . S
C2427 C2446 1.368 . S
C2427 H2451 0.949 . S
H2428 C2432 0.949 . S
C2429 C2430 1.349 . S
C2429 C2431 1.327 . S
C2429 H2452 0.950 . S
C2430 C2429 1.349 . S
C2430 C2442 1.349 . S
C2431 C2429 1.327 . S
C2431 C2447 1.429 . S
C2431 H2453 0.950 . S
C2432 H2428 0.949 . S
C2432 C2440 1.574 . S
C2432 C2448 1.368 . S
H2433 C2441 0.950 . S
H2434 C2439 0.950 . S
H2435 C2440 0.949 . S
H2436 C2442 0.950 . S
H2437 C2443 0.950 . S
H2438 C2444 0.949 . S
C2439 H2434 0.950 . S
C2439 C2441 1.327 . S
C2439 C2445 1.429 . S
C2440 C2432 1.574 . S
C2440 H2435 0.949 . S
C2440 C2446 1.368 . S
C2441 C2425 1.349 . S
C2441 H2433 0.950 . S
C2441 C2439 1.327 . S
C2442 C2430 1.349 . S
C2442 H2436 0.950 . S
C2442 C2443 1.327 . S
C2443 H2437 0.950 . S
C2443 C2442 1.327 . S
C2443 C2447 1.429 . S
C2444 C2427 1.574 . S
C2444 H2438 0.949 . S
C2444 C2448 1.368 . S
C2445 C2426 1.429 . S
C2445 C2439 1.429 . S
C2445 C2446 1.523 . S
C2446 C2427 1.368 . S
C2446 C2440 1.368 . S
C2446 C2445 1.523 . S
C2447 C2431 1.429 . S
C2447 C2443 1.429 . S
C2447 C2448 1.523 . S
C2448 C2432 1.368 . S
C2448 C2444 1.368 . S
C2448 C2447 1.523 . S
H2449 C2424 0.950 . S
H2450 C2426 0.950 . S
H2451 C2427 0.949 . S
H2452 C2429 0.950 . S
H2453 C2431 0.950 . S
C2454 C2455 1.349 . S
C2454 C2456 1.327 . S
C2454 H2479 0.950 . S
C2455 C2454 1.349 . S
C2455 C2471 1.349 . S
C2456 C2454 1.327 . S
C2456 C2475 1.429 . S
C2456 H2480 0.950 . S
C2457 C2474 1.574 . S
C2457 C2476 1.368 . S
C2457 H2481 0.949 . S
H2458 C2462 0.949 . S
C2459 C2460 1.349 . S
C2459 C2461 1.327 . S
C2459 H2482 0.950 . S
C2460 C2459 1.349 . S
C2460 C2472 1.349 . S
C2461 C2459 1.327 . S
C2461 C2477 1.429 . S
C2461 H2483 0.950 . S
C2462 H2458 0.949 . S
C2462 C2470 1.574 . S
C2462 C2478 1.368 . S
H2463 C2471 0.950 . S
H2464 C2469 0.950 . S
H2465 C2470 0.949 . S
H2466 C2472 0.950 . S
H2467 C2473 0.950 . S
H2468 C2474 0.949 . S
C2469 H2464 0.950 . S
C2469 C2471 1.327 . S
C2469 C2475 1.429 . S
C2470 C2462 1.574 . S
C2470 H2465 0.949 . S
C2470 C2476 1.368 . S
C2471 C2455 1.349 . S
C2471 H2463 0.950 . S
C2471 C2469 1.327 . S
C2472 C2460 1.349 . S
C2472 H2466 0.950 . S
C2472 C2473 1.327 . S
C2473 H2467 0.950 . S
C2473 C2472 1.327 . S
C2473 C2477 1.429 . S
C2474 C2457 1.574 . S
C2474 H2468 0.949 . S
C2474 C2478 1.368 . S
C2475 C2456 1.429 . S
C2475 C2469 1.429 . S
C2475 C2476 1.523 . S
C2476 C2457 1.368 . S
C2476 C2470 1.368 . S
C2476 C2475 1.523 . S
C2477 C2461 1.429 . S
C2477 C2473 1.429 . S
C2477 C2478 1.523 . S
C2478 C2462 1.368 . S
C2478 C2474 1.368 . S
C2478 C2477 1.523 . S
H2479 C2454 0.950 . S
H2480 C2456 0.950 . S
H2481 C2457 0.949 . S
H2482 C2459 0.950 . S
H2483 C2461 0.950 . S
C2484 C2485 1.349 . S
C2484 C2486 1.327 . S
C2484 H2509 0.950 . S
C2485 C2484 1.349 . S
C2485 C2501 1.349 . S
C2486 C2484 1.327 . S
C2486 C2505 1.429 . S
C2486 H2510 0.950 . S
C2487 C2504 1.574 . S
C2487 C2506 1.368 . S
C2487 H2511 0.949 . S
H2488 C2492 0.949 . S
C2489 C2490 1.349 . S
C2489 C2491 1.327 . S
C2489 H2512 0.950 . S
C2490 C2489 1.349 . S
C2490 C2502 1.349 . S
C2491 C2489 1.327 . S
C2491 C2507 1.429 . S
C2491 H2513 0.950 . S
C2492 H2488 0.949 . S
C2492 C2500 1.574 . S
C2492 C2508 1.368 . S
H2493 C2501 0.950 . S
H2494 C2499 0.950 . S
H2495 C2500 0.949 . S
H2496 C2502 0.950 . S
H2497 C2503 0.950 . S
H2498 C2504 0.949 . S
C2499 H2494 0.950 . S
C2499 C2501 1.327 . S
C2499 C2505 1.429 . S
C2500 C2492 1.574 . S
C2500 H2495 0.949 . S
C2500 C2506 1.368 . S
C2501 C2485 1.349 . S
C2501 H2493 0.950 . S
C2501 C2499 1.327 . S
C2502 C2490 1.349 . S
C2502 H2496 0.950 . S
C2502 C2503 1.327 . S
C2503 H2497 0.950 . S
C2503 C2502 1.327 . S
C2503 C2507 1.429 . S
C2504 C2487 1.574 . S
C2504 H2498 0.949 . S
C2504 C2508 1.368 . S
C2505 C2486 1.429 . S
C2505 C2499 1.429 . S
C2505 C2506 1.523 . S
C2506 C2487 1.368 . S
C2506 C2500 1.368 . S
C2506 C2505 1.523 . S
C2507 C2491 1.429 . S
C2507 C2503 1.429 . S
C2507 C2508 1.523 . S
C2508 C2492 1.368 . S
C2508 C2504 1.368 . S
C2508 C2507 1.523 . S
H2509 C2484 0.950 . S
H2510 C2486 0.950 . S
H2511 C2487 0.949 . S
H2512 C2489 0.950 . S
H2513 C2491 0.950 . S
C2514 C2515 1.349 . S
C2514 C2516 1.327 . S
C2514 H2539 0.950 . S
C2515 C2514 1.349 . S
C2515 C2531 1.349 . S
C2516 C2514 1.327 . S
C2516 C2535 1.429 . S
C2516 H2540 0.950 . S
C2517 C2534 1.574 . S
C2517 C2536 1.368 . S
C2517 H2541 0.949 . S
H2518 C2522 0.949 . S
C2519 C2520 1.349 . S
C2519 C2521 1.327 . S
C2519 H2542 0.950 . S
C2520 C2519 1.349 . S
C2520 C2532 1.349 . S
C2521 C2519 1.327 . S
C2521 C2537 1.429 . S
C2521 H2543 0.950 . S
C2522 H2518 0.949 . S
C2522 C2530 1.574 . S
C2522 C2538 1.368 . S
H2523 C2531 0.950 . S
H2524 C2529 0.950 . S
H2525 C2530 0.949 . S
H2526 C2532 0.950 . S
H2527 C2533 0.950 . S
H2528 C2534 0.949 . S
C2529 H2524 0.950 . S
C2529 C2531 1.327 . S
C2529 C2535 1.429 . S
C2530 C2522 1.574 . S
C2530 H2525 0.949 . S
C2530 C2536 1.368 . S
C2531 C2515 1.349 . S
C2531 H2523 0.950 . S
C2531 C2529 1.327 . S
C2532 C2520 1.349 . S
C2532 H2526 0.950 . S
C2532 C2533 1.327 . S
C2533 H2527 0.950 . S
C2533 C2532 1.327 . S
C2533 C2537 1.429 . S
C2534 C2517 1.574 . S
C2534 H2528 0.949 . S
C2534 C2538 1.368 . S
C2535 C2516 1.429 . S
C2535 C2529 1.429 . S
C2535 C2536 1.523 . S
C2536 C2517 1.368 . S
C2536 C2530 1.368 . S
C2536 C2535 1.523 . S
C2537 C2521 1.429 . S
C2537 C2533 1.429 . S
C2537 C2538 1.523 . S
C2538 C2522 1.368 . S
C2538 C2534 1.368 . S
C2538 C2537 1.523 . S
H2539 C2514 0.950 . S
H2540 C2516 0.950 . S
H2541 C2517 0.949 . S
H2542 C2519 0.950 . S
H2543 C2521 0.950 . S
C2544 C2545 1.349 . S
C2544 C2546 1.327 . S
C2544 H2569 0.950 . S
C2545 C2544 1.349 . S
C2545 C2561 1.349 . S
C2546 C2544 1.327 . S
C2546 C2565 1.429 . S
C2546 H2570 0.950 . S
C2547 C2564 1.574 . S
C2547 C2566 1.368 . S
C2547 H2571 0.949 . S
H2548 C2552 0.949 . S
C2549 C2550 1.349 . S
C2549 C2551 1.327 . S
C2549 H2572 0.950 . S
C2550 C2549 1.349 . S
C2550 C2562 1.349 . S
C2551 C2549 1.327 . S
C2551 C2567 1.429 . S
C2551 H2573 0.950 . S
C2552 H2548 0.949 . S
C2552 C2560 1.574 . S
C2552 C2568 1.368 . S
H2553 C2561 0.950 . S
H2554 C2559 0.950 . S
H2555 C2560 0.949 . S
H2556 C2562 0.950 . S
H2557 C2563 0.950 . S
H2558 C2564 0.949 . S
C2559 H2554 0.950 . S
C2559 C2561 1.327 . S
C2559 C2565 1.429 . S
C2560 C2552 1.574 . S
C2560 H2555 0.949 . S
C2560 C2566 1.368 . S
C2561 C2545 1.349 . S
C2561 H2553 0.950 . S
C2561 C2559 1.327 . S
C2562 C2550 1.349 . S
C2562 H2556 0.950 . S
C2562 C2563 1.327 . S
C2563 H2557 0.950 . S
C2563 C2562 1.327 . S
C2563 C2567 1.429 . S
C2564 C2547 1.574 . S
C2564 H2558 0.949 . S
C2564 C2568 1.368 . S
C2565 C2546 1.429 . S
C2565 C2559 1.429 . S
C2565 C2566 1.523 . S
C2566 C2547 1.368 . S
C2566 C2560 1.368 . S
C2566 C2565 1.523 . S
C2567 C2551 1.429 . S
C2567 C2563 1.429 . S
C2567 C2568 1.523 . S
C2568 C2552 1.368 . S
C2568 C2564 1.368 . S
C2568 C2567 1.523 . S
H2569 C2544 0.950 . S
H2570 C2546 0.950 . S
H2571 C2547 0.949 . S
H2572 C2549 0.950 . S
H2573 C2551 0.950 . S
C2574 C2575 1.349 . S
C2574 C2576 1.327 . S
C2574 H2599 0.950 . S
C2575 C2574 1.349 . S
C2575 C2591 1.349 . S
C2576 C2574 1.327 . S
C2576 C2595 1.429 . S
C2576 H2600 0.950 . S
C2577 C2594 1.574 . S
C2577 C2596 1.368 . S
C2577 H2601 0.949 . S
H2578 C2582 0.949 . S
C2579 C2580 1.349 . S
C2579 C2581 1.327 . S
C2579 H2602 0.950 . S
C2580 C2579 1.349 . S
C2580 C2592 1.349 . S
C2581 C2579 1.327 . S
C2581 C2597 1.429 . S
C2581 H2603 0.950 . S
C2582 H2578 0.949 . S
C2582 C2590 1.574 . S
C2582 C2598 1.368 . S
H2583 C2591 0.950 . S
H2584 C2589 0.950 . S
H2585 C2590 0.949 . S
H2586 C2592 0.950 . S
H2587 C2593 0.950 . S
H2588 C2594 0.949 . S
C2589 H2584 0.950 . S
C2589 C2591 1.327 . S
C2589 C2595 1.429 . S
C2590 C2582 1.574 . S
C2590 H2585 0.949 . S
C2590 C2596 1.368 . S
C2591 C2575 1.349 . S
C2591 H2583 0.950 . S
C2591 C2589 1.327 . S
C2592 C2580 1.349 . S
C2592 H2586 0.950 . S
C2592 C2593 1.327 . S
C2593 H2587 0.950 . S
C2593 C2592 1.327 . S
C2593 C2597 1.429 . S
C2594 C2577 1.574 . S
C2594 H2588 0.949 . S
C2594 C2598 1.368 . S
C2595 C2576 1.429 . S
C2595 C2589 1.429 . S
C2595 C2596 1.523 . S
C2596 C2577 1.368 . S
C2596 C2590 1.368 . S
C2596 C2595 1.523 . S
C2597 C2581 1.429 . S
C2597 C2593 1.429 . S
C2597 C2598 1.523 . S
C2598 C2582 1.368 . S
C2598 C2594 1.368 . S
C2598 C2597 1.523 . S
H2599 C2574 0.950 . S
H2600 C2576 0.950 . S
H2601 C2577 0.949 . S
H2602 C2579 0.950 . S
H2603 C2581 0.950 . S
C2604 C2605 1.349 . S
C2604 C2606 1.327 . S
C2604 H2629 0.950 . S
C2605 C2604 1.349 . S
C2605 C2621 1.349 . S
C2606 C2604 1.327 . S
C2606 C2625 1.429 . S
C2606 H2630 0.950 . S
C2607 C2624 1.574 . S
C2607 C2626 1.368 . S
C2607 H2631 0.949 . S
H2608 C2612 0.949 . S
C2609 C2610 1.349 . S
C2609 C2611 1.327 . S
C2609 H2632 0.950 . S
C2610 C2609 1.349 . S
C2610 C2622 1.349 . S
C2611 C2609 1.327 . S
C2611 C2627 1.429 . S
C2611 H2633 0.950 . S
C2612 H2608 0.949 . S
C2612 C2620 1.574 . S
C2612 C2628 1.368 . S
H2613 C2621 0.950 . S
H2614 C2619 0.950 . S
H2615 C2620 0.949 . S
H2616 C2622 0.950 . S
H2617 C2623 0.950 . S
H2618 C2624 0.949 . S
C2619 H2614 0.950 . S
C2619 C2621 1.327 . S
C2619 C2625 1.429 . S
C2620 C2612 1.574 . S
C2620 H2615 0.949 . S
C2620 C2626 1.368 . S
C2621 C2605 1.349 . S
C2621 H2613 0.950 . S
C2621 C2619 1.327 . S
C2622 C2610 1.349 . S
C2622 H2616 0.950 . S
C2622 C2623 1.327 . S
C2623 H2617 0.950 . S
C2623 C2622 1.327 . S
C2623 C2627 1.429 . S
C2624 C2607 1.574 . S
C2624 H2618 0.949 . S
C2624 C2628 1.368 . S
C2625 C2606 1.429 . S
C2625 C2619 1.429 . S
C2625 C2626 1.523 . S
C2626 C2607 1.368 . S
C2626 C2620 1.368 . S
C2626 C2625 1.523 . S
C2627 C2611 1.429 . S
C2627 C2623 1.429 . S
C2627 C2628 1.523 . S
C2628 C2612 1.368 . S
C2628 C2624 1.368 . S
C2628 C2627 1.523 . S
H2629 C2604 0.950 . S
H2630 C2606 0.950 . S
H2631 C2607 0.949 . S
H2632 C2609 0.950 . S
H2633 C2611 0.950 . S
C2634 C2635 1.349 . S
C2634 C2636 1.327 . S
C2634 H2659 0.950 . S
C2635 C2634 1.349 . S
C2635 C2651 1.349 . S
C2636 C2634 1.327 . S
C2636 C2655 1.429 . S
C2636 H2660 0.950 . S
C2637 C2654 1.574 . S
C2637 C2656 1.368 . S
C2637 H2661 0.949 . S
H2638 C2642 0.949 . S
C2639 C2640 1.349 . S
C2639 C2641 1.327 . S
C2639 H2662 0.950 . S
C2640 C2639 1.349 . S
C2640 C2652 1.349 . S
C2641 C2639 1.327 . S
C2641 C2657 1.429 . S
C2641 H2663 0.950 . S
C2642 H2638 0.949 . S
C2642 C2650 1.574 . S
C2642 C2658 1.368 . S
H2643 C2651 0.950 . S
H2644 C2649 0.950 . S
H2645 C2650 0.949 . S
H2646 C2652 0.950 . S
H2647 C2653 0.950 . S
H2648 C2654 0.949 . S
C2649 H2644 0.950 . S
C2649 C2651 1.327 . S
C2649 C2655 1.429 . S
C2650 C2642 1.574 . S
C2650 H2645 0.949 . S
C2650 C2656 1.368 . S
C2651 C2635 1.349 . S
C2651 H2643 0.950 . S
C2651 C2649 1.327 . S
C2652 C2640 1.349 . S
C2652 H2646 0.950 . S
C2652 C2653 1.327 . S
C2653 H2647 0.950 . S
C2653 C2652 1.327 . S
C2653 C2657 1.429 . S
C2654 C2637 1.574 . S
C2654 H2648 0.949 . S
C2654 C2658 1.368 . S
C2655 C2636 1.429 . S
C2655 C2649 1.429 . S
C2655 C2656 1.523 . S
C2656 C2637 1.368 . S
C2656 C2650 1.368 . S
C2656 C2655 1.523 . S
C2657 C2641 1.429 . S
C2657 C2653 1.429 . S
C2657 C2658 1.523 . S
C2658 C2642 1.368 . S
C2658 C2654 1.368 . S
C2658 C2657 1.523 . S
H2659 C2634 0.950 . S
H2660 C2636 0.950 . S
H2661 C2637 0.949 . S
H2662 C2639 0.950 . S
H2663 C2641 0.950 . S
C2664 C2665 1.349 . S
C2664 C2666 1.327 . S
C2664 H2689 0.950 . S
C2665 C2664 1.349 . S
C2665 C2681 1.349 . S
C2666 C2664 1.327 . S
C2666 C2685 1.429 . S
C2666 H2690 0.950 . S
C2667 C2684 1.574 . S
C2667 C2686 1.368 . S
C2667 H2691 0.949 . S
H2668 C2672 0.949 . S
C2669 C2670 1.349 . S
C2669 C2671 1.327 . S
C2669 H2692 0.950 . S
C2670 C2669 1.349 . S
C2670 C2682 1.349 . S
C2671 C2669 1.327 . S
C2671 C2687 1.429 . S
C2671 H2693 0.950 . S
C2672 H2668 0.949 . S
C2672 C2680 1.574 . S
C2672 C2688 1.368 . S
H2673 C2681 0.950 . S
H2674 C2679 0.950 . S
H2675 C2680 0.949 . S
H2676 C2682 0.950 . S
H2677 C2683 0.950 . S
H2678 C2684 0.949 . S
C2679 H2674 0.950 . S
C2679 C2681 1.327 . S
C2679 C2685 1.429 . S
C2680 C2672 1.574 . S
C2680 H2675 0.949 . S
C2680 C2686 1.368 . S
C2681 C2665 1.349 . S
C2681 H2673 0.950 . S
C2681 C2679 1.327 . S
C2682 C2670 1.349 . S
C2682 H2676 0.950 . S
C2682 C2683 1.327 . S
C2683 H2677 0.950 . S
C2683 C2682 1.327 . S
C2683 C2687 1.429 . S
C2684 C2667 1.574 . S
C2684 H2678 0.949 . S
C2684 C2688 1.368 . S
C2685 C2666 1.429 . S
C2685 C2679 1.429 . S
C2685 C2686 1.523 . S
C2686 C2667 1.368 . S
C2686 C2680 1.368 . S
C2686 C2685 1.523 . S
C2687 C2671 1.429 . S
C2687 C2683 1.429 . S
C2687 C2688 1.523 . S
C2688 C2672 1.368 . S
C2688 C2684 1.368 . S
C2688 C2687 1.523 . S
H2689 C2664 0.950 . S
H2690 C2666 0.950 . S
H2691 C2667 0.949 . S
H2692 C2669 0.950 . S
H2693 C2671 0.950 . S
C2694 C2695 1.349 . S
C2694 C2696 1.327 . S
C2694 H2719 0.950 . S
C2695 C2694 1.349 . S
C2695 C2711 1.349 . S
C2696 C2694 1.327 . S
C2696 C2715 1.429 . S
C2696 H2720 0.950 . S
C2697 C2714 1.574 . S
C2697 C2716 1.368 . S
C2697 H2721 0.949 . S
H2698 C2702 0.949 . S
C2699 C2700 1.349 . S
C2699 C2701 1.327 . S
C2699 H2722 0.950 . S
C2700 C2699 1.349 . S
C2700 C2712 1.349 . S
C2701 C2699 1.327 . S
C2701 C2717 1.429 . S
C2701 H2723 0.950 . S
C2702 H2698 0.949 . S
C2702 C2710 1.574 . S
C2702 C2718 1.368 . S
H2703 C2711 0.950 . S
H2704 C2709 0.950 . S
H2705 C2710 0.949 . S
H2706 C2712 0.950 . S
H2707 C2713 0.950 . S
H2708 C2714 0.949 . S
C2709 H2704 0.950 . S
C2709 C2711 1.327 . S
C2709 C2715 1.429 . S
C2710 C2702 1.574 . S
C2710 H2705 0.949 . S
C2710 C2716 1.368 . S
C2711 C2695 1.349 . S
C2711 H2703 0.950 . S
C2711 C2709 1.327 . S
C2712 C2700 1.349 . S
C2712 H2706 0.950 . S
C2712 C2713 1.327 . S
C2713 H2707 0.950 . S
C2713 C2712 1.327 . S
C2713 C2717 1.429 . S
C2714 C2697 1.574 . S
C2714 H2708 0.949 . S
C2714 C2718 1.368 . S
C2715 C2696 1.429 . S
C2715 C2709 1.429 . S
C2715 C2716 1.523 . S
C2716 C2697 1.368 . S
C2716 C2710 1.368 . S
C2716 C2715 1.523 . S
C2717 C2701 1.429 . S
C2717 C2713 1.429 . S
C2717 C2718 1.523 . S
C2718 C2702 1.368 . S
C2718 C2714 1.368 . S
C2718 C2717 1.523 . S
H2719 C2694 0.950 . S
H2720 C2696 0.950 . S
H2721 C2697 0.949 . S
H2722 C2699 0.950 . S
H2723 C2701 0.950 . S
C2724 C2725 1.349 . S
C2724 C2726 1.327 . S
C2724 H2749 0.950 . S
C2725 C2724 1.349 . S
C2725 C2741 1.349 . S
C2726 C2724 1.327 . S
C2726 C2745 1.429 . S
C2726 H2750 0.950 . S
C2727 C2744 1.574 . S
C2727 C2746 1.368 . S
C2727 H2751 0.949 . S
H2728 C2732 0.949 . S
C2729 C2730 1.349 . S
C2729 C2731 1.327 . S
C2729 H2752 0.950 . S
C2730 C2729 1.349 . S
C2730 C2742 1.349 . S
C2731 C2729 1.327 . S
C2731 C2747 1.429 . S
C2731 H2753 0.950 . S
C2732 H2728 0.949 . S
C2732 C2740 1.574 . S
C2732 C2748 1.368 . S
H2733 C2741 0.950 . S
H2734 C2739 0.950 . S
H2735 C2740 0.949 . S
H2736 C2742 0.950 . S
H2737 C2743 0.950 . S
H2738 C2744 0.949 . S
C2739 H2734 0.950 . S
C2739 C2741 1.327 . S
C2739 C2745 1.429 . S
C2740 C2732 1.574 . S
C2740 H2735 0.949 . S
C2740 C2746 1.368 . S
C2741 C2725 1.349 . S
C2741 H2733 0.950 . S
C2741 C2739 1.327 . S
C2742 C2730 1.349 . S
C2742 H2736 0.950 . S
C2742 C2743 1.327 . S
C2743 H2737 0.950 . S
C2743 C2742 1.327 . S
C2743 C2747 1.429 . S
C2744 C2727 1.574 . S
C2744 H2738 0.949 . S
C2744 C2748 1.368 . S
C2745 C2726 1.429 . S
C2745 C2739 1.429 . S
C2745 C2746 1.523 . S
C2746 C2727 1.368 . S
C2746 C2740 1.368 . S
C2746 C2745 1.523 . S
C2747 C2731 1.429 . S
C2747 C2743 1.429 . S
C2747 C2748 1.523 . S
C2748 C2732 1.368 . S
C2748 C2744 1.368 . S
C2748 C2747 1.523 . S
H2749 C2724 0.950 . S
H2750 C2726 0.950 . S
H2751 C2727 0.949 . S
H2752 C2729 0.950 . S
H2753 C2731 0.950 . S
C2754 C2755 1.349 1_556 S
C2754 C2756 1.327 . S
C2754 H2779 0.950 . S
C2755 C2754 1.349 1_554 S
C2755 C2771 1.349 . S
C2756 C2754 1.327 . S
C2756 C2775 1.429 . S
C2756 H2780 0.950 . S
C2757 C2774 1.574 . S
C2757 C2776 1.368 . S
C2757 H2781 0.949 . S
H2758 C2762 0.949 . S
C2759 C2760 1.349 . S
C2759 C2761 1.327 . S
C2759 H2782 0.950 . S
C2760 C2759 1.349 . S
C2760 C2772 1.349 . S
C2761 C2759 1.327 . S
C2761 C2777 1.429 . S
C2761 H2783 0.950 . S
C2762 H2758 0.949 . S
C2762 C2770 1.574 . S
C2762 C2778 1.368 . S
H2763 C2771 0.950 . S
H2764 C2769 0.950 . S
H2765 C2770 0.949 . S
H2766 C2772 0.950 . S
H2767 C2773 0.950 . S
H2768 C2774 0.949 . S
C2769 H2764 0.950 . S
C2769 C2771 1.327 . S
C2769 C2775 1.429 1_554 S
C2770 C2762 1.574 . S
C2770 H2765 0.949 . S
C2770 C2776 1.368 . S
C2771 C2755 1.349 . S
C2771 H2763 0.950 . S
C2771 C2769 1.327 . S
C2772 C2760 1.349 . S
C2772 H2766 0.950 . S
C2772 C2773 1.327 . S
C2773 H2767 0.950 . S
C2773 C2772 1.327 . S
C2773 C2777 1.429 . S
C2774 C2757 1.574 . S
C2774 H2768 0.949 . S
C2774 C2778 1.368 . S
C2775 C2756 1.429 . S
C2775 C2769 1.429 1_556 S
C2775 C2776 1.523 . S
C2776 C2757 1.368 . S
C2776 C2770 1.368 . S
C2776 C2775 1.523 . S
C2777 C2761 1.429 . S
C2777 C2773 1.429 . S
C2777 C2778 1.523 . S
C2778 C2762 1.368 . S
C2778 C2774 1.368 . S
C2778 C2777 1.523 . S
H2779 C2754 0.950 . S
H2780 C2756 0.950 . S
H2781 C2757 0.949 . S
H2782 C2759 0.950 . S
H2783 C2761 0.950 . S
C2784 C2785 1.349 . S
C2784 C2786 1.320 1_554 S
C2784 H2809 0.950 . S
C2785 C2784 1.349 . S
C2785 C2801 1.349 1_554 S
C2786 C2784 1.320 1_556 S
C2786 C2805 1.444 . S
C2786 H2810 0.941 1_556 S
C2787 C2804 1.574 . S
C2787 C2806 1.368 . S
C2787 H2811 0.949 . S
H2788 C2792 0.949 . S
C2789 C2790 1.349 . S
C2789 C2791 1.327 . S
C2789 H2812 0.950 . S
C2790 C2789 1.349 . S
C2790 C2802 1.349 . S
C2791 C2789 1.327 . S
C2791 C2807 1.429 . S
C2791 H2813 0.950 . S
C2792 H2788 0.949 . S
C2792 C2800 1.574 . S
C2792 C2808 1.368 . S
H2793 C2801 0.950 . S
H2794 C2799 0.950 . S
H2795 C2800 0.949 . S
H2796 C2802 0.950 . S
H2797 C2803 0.950 . S
H2798 C2804 0.949 . S
C2799 H2794 0.950 . S
C2799 C2801 1.327 . S
C2799 C2805 1.429 . S
C2800 C2792 1.574 . S
C2800 H2795 0.949 . S
C2800 C2806 1.368 . S
C2801 C2785 1.349 1_556 S
C2801 H2793 0.950 . S
C2801 C2799 1.327 . S
C2802 C2790 1.349 . S
C2802 H2796 0.950 . S
C2802 C2803 1.327 . S
C2803 H2797 0.950 . S
C2803 C2802 1.327 . S
C2803 C2807 1.429 . S
C2804 C2787 1.574 . S
C2804 H2798 0.949 . S
C2804 C2808 1.368 . S
C2805 C2786 1.444 . S
C2805 C2799 1.429 . S
C2805 C2806 1.523 . S
C2806 C2787 1.368 . S
C2806 C2800 1.368 . S
C2806 C2805 1.523 . S
C2807 C2791 1.429 . S
C2807 C2803 1.429 . S
C2807 C2808 1.523 . S
C2808 C2792 1.368 . S
C2808 C2804 1.368 . S
C2808 C2807 1.523 . S
H2809 C2784 0.950 . S
H2810 C2786 0.941 1_554 S
H2811 C2787 0.949 . S
H2812 C2789 0.950 . S
H2813 C2791 0.950 . S
C2814 C2815 1.349 . S
C2814 C2816 1.327 . S
C2814 H2839 0.950 . S
C2815 C2814 1.349 . S
C2815 C2831 1.349 . S
C2816 C2814 1.327 . S
C2816 C2835 1.429 . S
C2816 H2840 0.950 . S
C2817 C2834 1.574 1_554 S
C2817 C2836 1.368 . S
C2817 H2841 0.949 . S
H2818 C2822 0.949 . S
C2819 C2820 1.349 . S
C2819 C2821 1.327 . S
C2819 H2842 0.950 . S
C2820 C2819 1.349 . S
C2820 C2832 1.349 . S
C2821 C2819 1.327 . S
C2821 C2837 1.429 . S
C2821 H2843 0.950 . S
C2822 H2818 0.949 . S
C2822 C2830 1.574 . S
C2822 C2838 1.368 1_554 S
H2823 C2831 0.950 . S
H2824 C2829 0.950 . S
H2825 C2830 0.949 . S
H2826 C2832 0.950 . S
H2827 C2833 0.950 . S
H2828 C2834 0.949 . S
C2829 H2824 0.950 . S
C2829 C2831 1.327 . S
C2829 C2835 1.429 . S
C2830 C2822 1.574 . S
C2830 H2825 0.949 . S
C2830 C2836 1.368 . S
C2831 C2815 1.349 . S
C2831 H2823 0.950 . S
C2831 C2829 1.327 . S
C2832 C2820 1.349 . S
C2832 H2826 0.950 . S
C2832 C2833 1.327 . S
C2833 H2827 0.950 . S
C2833 C2832 1.327 . S
C2833 C2837 1.429 . S
C2834 C2817 1.574 1_556 S
C2834 H2828 0.949 . S
C2834 C2838 1.368 . S
C2835 C2816 1.429 . S
C2835 C2829 1.429 . S
C2835 C2836 1.523 . S
C2836 C2817 1.368 . S
C2836 C2830 1.368 . S
C2836 C2835 1.523 . S
C2837 C2821 1.429 . S
C2837 C2833 1.429 . S
C2837 C2838 1.523 . S
C2838 C2822 1.368 1_556 S
C2838 C2834 1.368 . S
C2838 C2837 1.523 . S
H2839 C2814 0.950 . S
H2840 C2816 0.950 . S
H2841 C2817 0.949 . S
H2842 C2819 0.950 . S
H2843 C2821 0.950 . S
C2844 C2845 1.349 . S
C2844 C2846 1.327 . S
C2844 H2869 0.950 . S
C2845 C2844 1.349 . S
C2845 C2861 1.349 . S
C2846 C2844 1.327 . S
C2846 C2865 1.429 1_554 S
C2846 H2870 0.950 1_554 S
C2847 C2864 1.574 . S
C2847 C2866 1.368 . S
C2847 H2871 0.949 . S
H2848 C2852 0.949 . S
C2849 C2850 1.349 . S
C2849 C2851 1.327 . S
C2849 H2872 0.950 . S
C2850 C2849 1.349 . S
C2850 C2862 1.349 . S
C2851 C2849 1.327 . S
C2851 C2867 1.429 . S
C2851 H2873 0.950 . S
C2852 H2848 0.949 . S
C2852 C2860 1.574 . S
C2852 C2868 1.368 . S
H2853 C2861 0.950 . S
H2854 C2859 0.950 . S
H2855 C2860 0.949 . S
H2856 C2862 0.950 . S
H2857 C2863 0.950 . S
H2858 C2864 0.949 . S
C2859 H2854 0.950 . S
C2859 C2861 1.327 . S
C2859 C2865 1.429 1_554 S
C2860 C2852 1.574 . S
C2860 H2855 0.949 . S
C2860 C2866 1.368 . S
C2861 C2845 1.349 . S
C2861 H2853 0.950 . S
C2861 C2859 1.327 . S
C2862 C2850 1.349 . S
C2862 H2856 0.950 . S
C2862 C2863 1.327 . S
C2863 H2857 0.950 . S
C2863 C2862 1.327 . S
C2863 C2867 1.429 . S
C2864 C2847 1.574 . S
C2864 H2858 0.949 . S
C2864 C2868 1.368 . S
C2865 C2846 1.429 1_556 S
C2865 C2859 1.429 1_556 S
C2865 C2866 1.523 . S
C2866 C2847 1.368 . S
C2866 C2860 1.368 . S
C2866 C2865 1.523 . S
C2867 C2851 1.429 . S
C2867 C2863 1.429 . S
C2867 C2868 1.523 . S
C2868 C2852 1.368 . S
C2868 C2864 1.368 . S
C2868 C2867 1.523 . S
H2869 C2844 0.950 . S
H2870 C2846 0.950 1_556 S
H2871 C2847 0.949 . S
H2872 C2849 0.950 . S
H2873 C2851 0.950 . S
C2874 C2875 1.349 . S
C2874 C2876 1.327 . S
C2874 H2899 0.950 . S
C2875 C2874 1.349 . S
C2875 C2891 1.349 . S
C2876 C2874 1.327 . S
C2876 C2895 1.429 . S
C2876 H2900 0.950 . S
C2877 C2894 1.574 . S
C2877 C2896 1.368 . S
C2877 H2901 0.949 . S
H2878 C2882 0.949 . S
C2879 C2880 1.349 . S
C2879 C2881 1.327 . S
C2879 H2902 0.950 . S
C2880 C2879 1.349 . S
C2880 C2892 1.349 . S
C2881 C2879 1.327 . S
C2881 C2897 1.429 . S
C2881 H2903 0.950 . S
C2882 H2878 0.949 . S
C2882 C2890 1.574 . S
C2882 C2898 1.368 . S
H2883 C2891 0.950 . S
H2884 C2889 0.950 . S
H2885 C2890 0.949 . S
H2886 C2892 0.950 . S
H2887 C2893 0.950 . S
H2888 C2894 0.949 . S
C2889 H2884 0.950 . S
C2889 C2891 1.327 . S
C2889 C2895 1.429 . S
C2890 C2882 1.574 . S
C2890 H2885 0.949 . S
C2890 C2896 1.368 . S
C2891 C2875 1.349 . S
C2891 H2883 0.950 . S
C2891 C2889 1.327 . S
C2892 C2880 1.349 . S
C2892 H2886 0.950 . S
C2892 C2893 1.327 . S
C2893 H2887 0.950 . S
C2893 C2892 1.327 . S
C2893 C2897 1.429 . S
C2894 C2877 1.574 . S
C2894 H2888 0.949 . S
C2894 C2898 1.368 . S
C2895 C2876 1.429 . S
C2895 C2889 1.429 . S
C2895 C2896 1.523 . S
C2896 C2877 1.368 . S
C2896 C2890 1.368 . S
C2896 C2895 1.523 . S
C2897 C2881 1.429 . S
C2897 C2893 1.429 . S
C2897 C2898 1.523 . S
C2898 C2882 1.368 . S
C2898 C2894 1.368 . S
C2898 C2897 1.523 . S
H2899 C2874 0.950 . S
H2900 C2876 0.950 . S
H2901 C2877 0.949 . S
H2902 C2879 0.950 . S
H2903 C2881 0.950 . S
C2904 C2905 1.349 . S
C2904 C2906 1.327 . S
C2904 H2929 0.950 . S
C2905 C2904 1.349 . S
C2905 C2921 1.349 . S
C2906 C2904 1.327 . S
C2906 C2925 1.429 . S
C2906 H2930 0.950 . S
C2907 C2924 1.574 . S
C2907 C2926 1.355 1_556 S
C2907 H2931 0.949 . S
H2908 C2912 0.949 . S
C2909 C2910 1.349 . S
C2909 C2911 1.327 . S
C2909 H2932 0.950 . S
C2910 C2909 1.349 . S
C2910 C2922 1.349 . S
C2911 C2909 1.327 . S
C2911 C2927 1.429 . S
C2911 H2933 0.950 . S
C2912 H2908 0.949 . S
C2912 C2920 1.574 1_556 S
C2912 C2928 1.368 . S
H2913 C2921 0.950 . S
H2914 C2919 0.972 . S
H2915 C2920 0.949 . S
H2916 C2922 0.950 . S
H2917 C2923 0.950 . S
H2918 C2924 0.949 . S
C2919 H2914 0.972 . S
C2919 C2921 1.327 . S
C2919 C2925 1.429 . S
C2920 C2912 1.574 1_554 S
C2920 H2915 0.949 . S
C2920 C2926 1.372 . S
C2921 C2905 1.349 . S
C2921 H2913 0.950 . S
C2921 C2919 1.327 . S
C2922 C2910 1.349 . S
C2922 H2916 0.950 . S
C2922 C2923 1.327 . S
C2923 H2917 0.950 . S
C2923 C2922 1.327 . S
C2923 C2927 1.429 . S
C2924 C2907 1.574 . S
C2924 H2918 0.949 . S
C2924 C2928 1.368 . S
C2925 C2906 1.429 . S
C2925 C2919 1.429 . S
C2925 C2926 1.536 . S
C2926 C2907 1.355 1_554 S
C2926 C2920 1.372 . S
C2926 C2925 1.536 . S
C2927 C2911 1.429 . S
C2927 C2923 1.429 . S
C2927 C2928 1.523 . S
C2928 C2912 1.368 . S
C2928 C2924 1.368 . S
C2928 C2927 1.523 . S
H2929 C2904 0.950 . S
H2930 C2906 0.950 . S
H2931 C2907 0.949 . S
H2932 C2909 0.950 . S
H2933 C2911 0.950 . S
C2934 C2935 1.349 . S
C2934 C2936 1.327 . S
C2934 H2959 0.950 . S
C2935 C2934 1.349 . S
C2935 C2951 1.349 . S
C2936 C2934 1.327 . S
C2936 C2955 1.429 . S
C2936 H2960 0.950 . S
C2937 C2954 1.574 . S
C2937 C2956 1.368 . S
C2937 H2961 0.949 . S
H2938 C2942 0.949 . S
C2939 C2940 1.349 . S
C2939 C2941 1.327 . S
C2939 H2962 0.950 . S
C2940 C2939 1.349 . S
C2940 C2952 1.349 . S
C2941 C2939 1.327 . S
C2941 C2957 1.429 . S
C2941 H2963 0.950 . S
C2942 H2938 0.949 . S
C2942 C2950 1.574 . S
C2942 C2958 1.368 . S
H2943 C2951 0.950 . S
H2944 C2949 0.950 . S
H2945 C2950 0.949 . S
H2946 C2952 0.950 . S
H2947 C2953 0.950 . S
H2948 C2954 0.949 . S
C2949 H2944 0.950 . S
C2949 C2951 1.327 . S
C2949 C2955 1.429 . S
C2950 C2942 1.574 . S
C2950 H2945 0.949 . S
C2950 C2956 1.368 . S
C2951 C2935 1.349 . S
C2951 H2943 0.950 . S
C2951 C2949 1.327 . S
C2952 C2940 1.349 . S
C2952 H2946 0.950 . S
C2952 C2953 1.327 . S
C2953 H2947 0.950 . S
C2953 C2952 1.327 . S
C2953 C2957 1.429 . S
C2954 C2937 1.574 . S
C2954 H2948 0.949 . S
C2954 C2958 1.368 . S
C2955 C2936 1.429 . S
C2955 C2949 1.429 . S
C2955 C2956 1.523 . S
C2956 C2937 1.368 . S
C2956 C2950 1.368 . S
C2956 C2955 1.523 . S
C2957 C2941 1.429 . S
C2957 C2953 1.429 . S
C2957 C2958 1.523 . S
C2958 C2942 1.368 . S
C2958 C2954 1.368 . S
C2958 C2957 1.523 . S
H2959 C2934 0.950 . S
H2960 C2936 0.950 . S
H2961 C2937 0.949 . S
H2962 C2939 0.950 . S
H2963 C2941 0.950 . S
C2964 C2965 1.349 . S
C2964 C2966 1.327 . S
C2964 H2989 0.950 . S
C2965 C2964 1.349 . S
C2965 C2981 1.349 . S
C2966 C2964 1.327 . S
C2966 C2985 1.429 . S
C2966 H2990 0.950 . S
C2967 C2984 1.574 . S
C2967 C2986 1.368 . S
C2967 H2991 0.949 . S
H2968 C2972 0.949 . S
C2969 C2970 1.349 . S
C2969 C2971 1.327 . S
C2969 H2992 0.950 . S
C2970 C2969 1.349 . S
C2970 C2982 1.349 . S
C2971 C2969 1.327 . S
C2971 C2987 1.429 . S
C2971 H2993 0.950 . S
C2972 H2968 0.949 . S
C2972 C2980 1.574 . S
C2972 C2988 1.368 . S
H2973 C2981 0.950 . S
H2974 C2979 0.950 . S
H2975 C2980 0.949 . S
H2976 C2982 0.950 . S
H2977 C2983 0.950 . S
H2978 C2984 0.949 . S
C2979 H2974 0.950 . S
C2979 C2981 1.327 . S
C2979 C2985 1.429 . S
C2980 C2972 1.574 . S
C2980 H2975 0.949 . S
C2980 C2986 1.368 . S
C2981 C2965 1.349 . S
C2981 H2973 0.950 . S
C2981 C2979 1.327 . S
C2982 C2970 1.349 . S
C2982 H2976 0.950 . S
C2982 C2983 1.327 . S
C2983 H2977 0.950 . S
C2983 C2982 1.327 . S
C2983 C2987 1.429 . S
C2984 C2967 1.574 . S
C2984 H2978 0.949 . S
C2984 C2988 1.368 . S
C2985 C2966 1.429 . S
C2985 C2979 1.429 . S
C2985 C2986 1.523 . S
C2986 C2967 1.368 . S
C2986 C2980 1.368 . S
C2986 C2985 1.523 . S
C2987 C2971 1.429 . S
C2987 C2983 1.429 . S
C2987 C2988 1.523 . S
C2988 C2972 1.368 . S
C2988 C2984 1.368 . S
C2988 C2987 1.523 . S
H2989 C2964 0.950 . S
H2990 C2966 0.950 . S
H2991 C2967 0.949 . S
H2992 C2969 0.950 . S
H2993 C2971 0.950 . S
C2994 C2995 1.349 . S
C2994 C2996 1.327 . S
C2994 H3019 0.950 . S
C2995 C2994 1.349 . S
C2995 C3011 1.349 . S
C2996 C2994 1.327 . S
C2996 C3015 1.429 . S
C2996 H3020 0.950 . S
C2997 C3014 1.574 . S
C2997 C3016 1.368 . S
C2997 H3021 0.949 . S
H2998 C3002 0.949 . S
C2999 C3000 1.349 . S
C2999 C3001 1.327 . S
C2999 H3022 0.950 . S
C3000 C2999 1.349 . S
C3000 C3012 1.349 . S
C3001 C2999 1.327 . S
C3001 C3017 1.429 . S
C3001 H3023 0.950 . S
C3002 H2998 0.949 . S
C3002 C3010 1.574 . S
C3002 C3018 1.368 . S
H3003 C3011 0.950 . S
H3004 C3009 0.950 . S
H3005 C3010 0.949 . S
H3006 C3012 0.950 . S
H3007 C3013 0.950 . S
H3008 C3014 0.949 . S
C3009 H3004 0.950 . S
C3009 C3011 1.327 . S
C3009 C3015 1.429 . S
C3010 C3002 1.574 . S
C3010 H3005 0.949 . S
C3010 C3016 1.368 . S
C3011 C2995 1.349 . S
C3011 H3003 0.950 . S
C3011 C3009 1.327 . S
C3012 C3000 1.349 . S
C3012 H3006 0.950 . S
C3012 C3013 1.327 . S
C3013 H3007 0.950 . S
C3013 C3012 1.327 . S
C3013 C3017 1.429 . S
C3014 C2997 1.574 . S
C3014 H3008 0.949 . S
C3014 C3018 1.368 . S
C3015 C2996 1.429 . S
C3015 C3009 1.429 . S
C3015 C3016 1.523 . S
C3016 C2997 1.368 . S
C3016 C3010 1.368 . S
C3016 C3015 1.523 . S
C3017 C3001 1.429 . S
C3017 C3013 1.429 . S
C3017 C3018 1.523 . S
C3018 C3002 1.368 . S
C3018 C3014 1.368 . S
C3018 C3017 1.523 . S
H3019 C2994 0.950 . S
H3020 C2996 0.950 . S
H3021 C2997 0.949 . S
H3022 C2999 0.950 . S
H3023 C3001 0.950 . S
C3024 C3025 1.349 . S
C3024 C3026 1.327 . S
C3024 H3049 0.950 . S
C3025 C3024 1.349 . S
C3025 C3041 1.349 . S
C3026 C3024 1.327 . S
C3026 C3045 1.429 . S
C3026 H3050 0.950 . S
C3027 C3044 1.574 . S
C3027 C3046 1.368 . S
C3027 H3051 0.949 . S
H3028 C3032 0.949 . S
C3029 C3030 1.349 . S
C3029 C3031 1.327 . S
C3029 H3052 0.950 . S
C3030 C3029 1.349 . S
C3030 C3042 1.349 . S
C3031 C3029 1.327 . S
C3031 C3047 1.429 . S
C3031 H3053 0.950 . S
C3032 H3028 0.949 . S
C3032 C3040 1.574 . S
C3032 C3048 1.368 . S
H3033 C3041 0.950 . S
H3034 C3039 0.950 . S
H3035 C3040 0.949 . S
H3036 C3042 0.950 . S
H3037 C3043 0.950 . S
H3038 C3044 0.949 . S
C3039 H3034 0.950 . S
C3039 C3041 1.327 . S
C3039 C3045 1.429 . S
C3040 C3032 1.574 . S
C3040 H3035 0.949 . S
C3040 C3046 1.368 . S
C3041 C3025 1.349 . S
C3041 H3033 0.950 . S
C3041 C3039 1.327 . S
C3042 C3030 1.349 . S
C3042 H3036 0.950 . S
C3042 C3043 1.327 . S
C3043 H3037 0.950 . S
C3043 C3042 1.327 . S
C3043 C3047 1.429 . S
C3044 C3027 1.574 . S
C3044 H3038 0.949 . S
C3044 C3048 1.368 . S
C3045 C3026 1.429 . S
C3045 C3039 1.429 . S
C3045 C3046 1.523 . S
C3046 C3027 1.368 . S
C3046 C3040 1.368 . S
C3046 C3045 1.523 . S
C3047 C3031 1.429 . S
C3047 C3043 1.429 . S
C3047 C3048 1.523 . S
C3048 C3032 1.368 . S
C3048 C3044 1.368 . S
C3048 C3047 1.523 . S
H3049 C3024 0.950 . S
H3050 C3026 0.950 . S
H3051 C3027 0.949 . S
H3052 C3029 0.950 . S
H3053 C3031 0.950 . S
C3054 C3055 1.349 . S
C3054 C3056 1.327 . S
C3054 H3079 0.950 . S
C3055 C3054 1.349 . S
C3055 C3071 1.349 . S
C3056 C3054 1.327 . S
C3056 C3075 1.429 . S
C3056 H3080 0.950 . S
C3057 C3074 1.574 . S
C3057 C3076 1.368 . S
C3057 H3081 0.949 . S
H3058 C3062 0.949 . S
C3059 C3060 1.349 . S
C3059 C3061 1.327 . S
C3059 H3082 0.950 . S
C3060 C3059 1.349 . S
C3060 C3072 1.349 . S
C3061 C3059 1.327 . S
C3061 C3077 1.429 . S
C3061 H3083 0.950 . S
C3062 H3058 0.949 . S
C3062 C3070 1.574 . S
C3062 C3078 1.368 . S
H3063 C3071 0.950 . S
H3064 C3069 0.950 . S
H3065 C3070 0.949 . S
H3066 C3072 0.950 . S
H3067 C3073 0.950 . S
H3068 C3074 0.949 . S
C3069 H3064 0.950 . S
C3069 C3071 1.327 . S
C3069 C3075 1.429 . S
C3070 C3062 1.574 . S
C3070 H3065 0.949 . S
C3070 C3076 1.368 . S
C3071 C3055 1.349 . S
C3071 H3063 0.950 . S
C3071 C3069 1.327 . S
C3072 C3060 1.349 . S
C3072 H3066 0.950 . S
C3072 C3073 1.327 . S
C3073 H3067 0.950 . S
C3073 C3072 1.327 . S
C3073 C3077 1.429 . S
C3074 C3057 1.574 . S
C3074 H3068 0.949 . S
C3074 C3078 1.368 . S
C3075 C3056 1.429 . S
C3075 C3069 1.429 . S
C3075 C3076 1.523 . S
C3076 C3057 1.368 . S
C3076 C3070 1.368 . S
C3076 C3075 1.523 . S
C3077 C3061 1.429 . S
C3077 C3073 1.429 . S
C3077 C3078 1.523 . S
C3078 C3062 1.368 . S
C3078 C3074 1.368 . S
C3078 C3077 1.523 . S
H3079 C3054 0.950 . S
H3080 C3056 0.950 . S
H3081 C3057 0.949 . S
H3082 C3059 0.950 . S
H3083 C3061 0.950 . S
C3084 C3085 1.349 . S
C3084 C3086 1.327 1_455 S
C3084 H3109 0.950 . S
C3085 C3084 1.349 . S
C3085 C3101 1.339 1_455 S
C3086 C3084 1.327 1_655 S
C3086 C3105 1.429 . S
C3086 H3110 0.950 . S
C3087 C3104 1.574 . S
C3087 C3106 1.368 . S
C3087 H3111 0.949 . S
H3088 C3092 0.949 . S
C3089 C3090 1.349 . S
C3089 C3091 1.327 . S
C3089 H3112 0.950 . S
C3090 C3089 1.349 . S
C3090 C3102 1.349 . S
C3091 C3089 1.327 . S
C3091 C3107 1.429 . S
C3091 H3113 0.950 . S
C3092 H3088 0.949 . S
C3092 C3100 1.574 . S
C3092 C3108 1.368 . S
H3093 C3101 0.903 1_455 S
H3094 C3099 0.950 . S
H3095 C3100 0.949 . S
H3096 C3102 0.950 . S
H3097 C3103 0.950 . S
H3098 C3104 0.949 . S
C3099 H3094 0.950 . S
C3099 C3101 1.390 . S
C3099 C3105 1.429 . S
C3100 C3092 1.574 . S
C3100 H3095 0.949 . S
C3100 C3106 1.368 . S
C3101 C3085 1.339 1_655 S
C3101 H3093 0.903 1_655 S
C3101 C3099 1.390 . S
C3102 C3090 1.349 . S
C3102 H3096 0.950 . S
C3102 C3103 1.327 . S
C3103 H3097 0.950 . S
C3103 C3102 1.327 . S
C3103 C3107 1.429 . S
C3104 C3087 1.574 . S
C3104 H3098 0.949 . S
C3104 C3108 1.368 . S
C3105 C3086 1.429 . S
C3105 C3099 1.429 . S
C3105 C3106 1.523 . S
C3106 C3087 1.368 . S
C3106 C3100 1.368 . S
C3106 C3105 1.523 . S
C3107 C3091 1.429 . S
C3107 C3103 1.429 . S
C3107 C3108 1.523 . S
C3108 C3092 1.368 . S
C3108 C3104 1.368 . S
C3108 C3107 1.523 . S
H3109 C3084 0.950 . S
H3110 C3086 0.950 . S
H3111 C3087 0.949 . S
H3112 C3089 0.950 . S
H3113 C3091 0.950 . S
C3114 C3115 1.349 . S
C3114 C3116 1.327 . S
C3114 H3139 0.950 . S
C3115 C3114 1.349 . S
C3115 C3131 1.349 . S
C3116 C3114 1.327 . S
C3116 C3135 1.429 . S
C3116 H3140 0.950 . S
C3117 C3134 1.574 . S
C3117 C3136 1.368 . S
C3117 H3141 0.949 . S
H3118 C3122 0.949 . S
C3119 C3120 1.349 . S
C3119 C3121 1.327 . S
C3119 H3142 0.950 . S
C3120 C3119 1.349 . S
C3120 C3132 1.349 . S
C3121 C3119 1.327 . S
C3121 C3137 1.429 . S
C3121 H3143 0.950 . S
C3122 H3118 0.949 . S
C3122 C3130 1.574 . S
C3122 C3138 1.368 . S
H3123 C3131 0.950 . S
H3124 C3129 0.950 . S
H3125 C3130 0.949 . S
H3126 C3132 0.945 . S
H3127 C3133 0.950 . S
H3128 C3134 0.949 . S
C3129 H3124 0.950 . S
C3129 C3131 1.327 . S
C3129 C3135 1.429 . S
C3130 C3122 1.574 . S
C3130 H3125 0.949 . S
C3130 C3136 1.368 . S
C3131 C3115 1.349 . S
C3131 H3123 0.950 . S
C3131 C3129 1.327 . S
C3132 C3120 1.349 . S
C3132 H3126 0.945 . S
C3132 C3133 1.327 . S
C3133 H3127 0.950 . S
C3133 C3132 1.327 . S
C3133 C3137 1.429 . S
C3134 C3117 1.574 . S
C3134 H3128 0.949 . S
C3134 C3138 1.368 . S
C3135 C3116 1.429 . S
C3135 C3129 1.429 . S
C3135 C3136 1.523 . S
C3136 C3117 1.368 . S
C3136 C3130 1.368 . S
C3136 C3135 1.523 . S
C3137 C3121 1.429 . S
C3137 C3133 1.429 . S
C3137 C3138 1.523 . S
C3138 C3122 1.368 . S
C3138 C3134 1.368 . S
C3138 C3137 1.523 . S
H3139 C3114 0.950 . S
H3140 C3116 0.950 . S
H3141 C3117 0.949 . S
H3142 C3119 0.950 . S
H3143 C3121 0.950 . S
C3144 C3145 1.349 . S
C3144 C3146 1.327 . S
C3144 H3169 0.950 . S
C3145 C3144 1.349 . S
C3145 C3161 1.349 . S
C3146 C3144 1.327 . S
C3146 C3165 1.429 . S
C3146 H3170 0.950 . S
C3147 C3164 1.574 . S
C3147 C3166 1.368 . S
C3147 H3171 0.949 . S
H3148 C3152 0.949 . S
C3149 C3150 1.349 . S
C3149 C3151 1.327 . S
C3149 H3172 0.950 . S
C3150 C3149 1.349 . S
C3150 C3162 1.349 . S
C3151 C3149 1.327 . S
C3151 C3167 1.429 . S
C3151 H3173 0.950 . S
C3152 H3148 0.949 . S
C3152 C3160 1.574 . S
C3152 C3168 1.368 . S
H3153 C3161 0.950 . S
H3154 C3159 0.950 . S
H3155 C3160 0.949 . S
H3156 C3162 0.950 . S
H3157 C3163 0.950 . S
H3158 C3164 0.949 . S
C3159 H3154 0.950 . S
C3159 C3161 1.327 . S
C3159 C3165 1.429 . S
C3160 C3152 1.574 . S
C3160 H3155 0.949 . S
C3160 C3166 1.368 . S
C3161 C3145 1.349 . S
C3161 H3153 0.950 . S
C3161 C3159 1.327 . S
C3162 C3150 1.349 . S
C3162 H3156 0.950 . S
C3162 C3163 1.327 . S
C3163 H3157 0.950 . S
C3163 C3162 1.327 . S
C3163 C3167 1.429 . S
C3164 C3147 1.574 . S
C3164 H3158 0.949 . S
C3164 C3168 1.368 . S
C3165 C3146 1.429 . S
C3165 C3159 1.429 . S
C3165 C3166 1.523 . S
C3166 C3147 1.368 . S
C3166 C3160 1.368 . S
C3166 C3165 1.523 . S
C3167 C3151 1.429 . S
C3167 C3163 1.429 . S
C3167 C3168 1.523 . S
C3168 C3152 1.368 . S
C3168 C3164 1.368 . S
C3168 C3167 1.523 . S
H3169 C3144 0.950 . S
H3170 C3146 0.950 . S
H3171 C3147 0.949 . S
H3172 C3149 0.950 . S
H3173 C3151 0.950 . S
C3174 C3175 1.349 . S
C3174 C3176 1.327 . S
C3174 H3199 0.950 . S
C3175 C3174 1.349 . S
C3175 C3191 1.349 . S
C3176 C3174 1.327 . S
C3176 C3195 1.429 . S
C3176 H3200 0.950 . S
C3177 C3194 1.574 . S
C3177 C3196 1.368 . S
C3177 H3201 0.949 . S
H3178 C3182 0.949 . S
C3179 C3180 1.349 . S
C3179 C3181 1.327 . S
C3179 H3202 0.950 1_565 S
C3180 C3179 1.349 . S
C3180 C3192 1.349 . S
C3181 C3179 1.327 . S
C3181 C3197 1.429 . S
C3181 H3203 0.950 1_565 S
C3182 H3178 0.949 . S
C3182 C3190 1.574 . S
C3182 C3198 1.368 . S
H3183 C3191 0.950 . S
H3184 C3189 0.950 . S
H3185 C3190 0.949 . S
H3186 C3192 0.950 . S
H3187 C3193 0.950 . S
H3188 C3194 0.949 1_545 S
C3189 H3184 0.950 . S
C3189 C3191 1.327 . S
C3189 C3195 1.429 . S
C3190 C3182 1.574 . S
C3190 H3185 0.949 . S
C3190 C3196 1.368 . S
C3191 C3175 1.349 . S
C3191 H3183 0.950 . S
C3191 C3189 1.327 . S
C3192 C3180 1.349 . S
C3192 H3186 0.950 . S
C3192 C3193 1.327 . S
C3193 H3187 0.950 . S
C3193 C3192 1.327 . S
C3193 C3197 1.429 . S
C3194 C3177 1.574 . S
C3194 H3188 0.949 1_565 S
C3194 C3198 1.368 . S
C3195 C3176 1.429 . S
C3195 C3189 1.429 . S
C3195 C3196 1.523 . S
C3196 C3177 1.368 . S
C3196 C3190 1.368 . S
C3196 C3195 1.523 . S
C3197 C3181 1.429 . S
C3197 C3193 1.429 . S
C3197 C3198 1.523 . S
C3198 C3182 1.368 . S
C3198 C3194 1.368 . S
C3198 C3197 1.523 . S
H3199 C3174 0.950 . S
H3200 C3176 0.950 . S
H3201 C3177 0.949 . S
H3202 C3179 0.950 1_545 S
H3203 C3181 0.950 1_545 S
C3204 C3205 1.349 . S
C3204 C3206 1.327 . S
C3204 H3229 0.950 . S
C3205 C3204 1.349 . S
C3205 C3221 1.349 . S
C3206 C3204 1.327 . S
C3206 C3225 1.429 . S
C3206 H3230 0.950 . S
C3207 C3224 1.574 1_565 S
C3207 C3226 1.368 . S
C3207 H3231 0.949 1_565 S
H3208 C3212 0.949 . S
C3209 C3210 1.330 1_545 S
C3209 C3211 1.327 . S
C3209 H3232 0.950 . S
C3210 C3209 1.330 1_565 S
C3210 C3222 1.407 . S
C3211 C3209 1.327 . S
C3211 C3227 1.429 1_545 S
C3211 H3233 0.950 . S
C3212 H3208 0.949 . S
C3212 C3220 1.574 . S
C3212 C3228 1.368 . S
H3213 C3221 0.950 . S
H3214 C3219 0.957 . S
H3215 C3220 0.949 . S
H3216 C3222 0.950 . S
H3217 C3223 0.950 . S
H3218 C3224 0.949 . S
C3219 H3214 0.957 . S
C3219 C3221 1.327 . S
C3219 C3225 1.429 . S
C3220 C3212 1.574 . S
C3220 H3215 0.949 . S
C3220 C3226 1.368 . S
C3221 C3205 1.349 . S
C3221 H3213 0.950 . S
C3221 C3219 1.327 . S
C3222 C3210 1.407 . S
C3222 H3216 0.950 . S
C3222 C3223 1.327 . S
C3223 H3217 0.950 . S
C3223 C3222 1.327 . S
C3223 C3227 1.429 . S
C3224 C3207 1.574 1_545 S
C3224 H3218 0.949 . S
C3224 C3228 1.368 1_545 S
C3225 C3206 1.429 . S
C3225 C3219 1.429 . S
C3225 C3226 1.523 . S
C3226 C3207 1.368 . S
C3226 C3220 1.368 . S
C3226 C3225 1.523 . S
C3227 C3211 1.429 1_565 S
C3227 C3223 1.429 . S
C3227 C3228 1.523 . S
C3228 C3212 1.368 . S
C3228 C3224 1.368 1_565 S
C3228 C3227 1.523 . S
H3229 C3204 0.950 . S
H3230 C3206 0.950 . S
H3231 C3207 0.949 1_545 S
H3232 C3209 0.950 . S
H3233 C3211 0.950 . S
C3234 C3235 1.349 . S
C3234 C3236 1.327 . S
C3234 H3259 0.950 . S
C3235 C3234 1.349 . S
C3235 C3251 1.349 . S
C3236 C3234 1.327 . S
C3236 C3255 1.429 . S
C3236 H3260 0.950 . S
C3237 C3254 1.574 . S
C3237 C3256 1.368 . S
C3237 H3261 0.949 . S
H3238 C3242 0.949 1_655 S
C3239 C3240 1.349 1_455 S
C3239 C3241 1.327 . S
C3239 H3262 0.950 . S
C3240 C3239 1.349 1_655 S
C3240 C3252 1.349 . S
C3241 C3239 1.327 . S
C3241 C3257 1.429 . S
C3241 H3263 0.950 . S
C3242 H3238 0.949 1_455 S
C3242 C3250 1.574 . S
C3242 C3258 1.368 . S
H3243 C3251 0.950 . S
H3244 C3249 0.950 . S
H3245 C3250 0.949 . S
H3246 C3252 0.950 . S
H3247 C3253 0.950 . S
H3248 C3254 0.949 . S
C3249 H3244 0.950 . S
C3249 C3251 1.327 . S
C3249 C3255 1.429 . S
C3250 C3242 1.574 . S
C3250 H3245 0.949 . S
C3250 C3256 1.368 . S
C3251 C3235 1.349 . S
C3251 H3243 0.950 . S
C3251 C3249 1.327 . S
C3252 C3240 1.349 . S
C3252 H3246 0.950 . S
C3252 C3253 1.327 . S
C3253 H3247 0.950 . S
C3253 C3252 1.327 . S
C3253 C3257 1.429 1_655 S
C3254 C3237 1.574 . S
C3254 H3248 0.949 . S
C3254 C3258 1.368 . S
C3255 C3236 1.429 . S
C3255 C3249 1.429 . S
C3255 C3256 1.523 . S
C3256 C3237 1.368 . S
C3256 C3250 1.368 . S
C3256 C3255 1.523 . S
C3257 C3241 1.429 . S
C3257 C3253 1.429 1_455 S
C3257 C3258 1.523 . S
C3258 C3242 1.368 . S
C3258 C3254 1.368 . S
C3258 C3257 1.523 . S
H3259 C3234 0.950 . S
H3260 C3236 0.950 . S
H3261 C3237 0.949 . S
H3262 C3239 0.950 . S
H3263 C3241 0.950 . S
C3264 C3265 1.349 . S
C3264 C3266 1.327 . S
C3264 H3289 0.950 . S
C3265 C3264 1.349 . S
C3265 C3281 1.349 . S
C3266 C3264 1.327 . S
C3266 C3285 1.429 . S
C3266 H3290 0.950 . S
C3267 C3284 1.574 . S
C3267 C3286 1.368 . S
C3267 H3291 0.949 . S
H3268 C3272 0.949 . S
C3269 C3270 1.349 . S
C3269 C3271 1.327 . S
C3269 H3292 0.950 . S
C3270 C3269 1.349 . S
C3270 C3282 1.349 . S
C3271 C3269 1.327 . S
C3271 C3287 1.429 . S
C3271 H3293 0.950 . S
C3272 H3268 0.949 . S
C3272 C3280 1.574 . S
C3272 C3288 1.368 . S
H3273 C3281 0.950 . S
H3274 C3279 0.950 . S
H3275 C3280 0.949 . S
H3276 C3282 0.950 . S
H3277 C3283 0.950 . S
H3278 C3284 0.949 . S
C3279 H3274 0.950 . S
C3279 C3281 1.327 . S
C3279 C3285 1.429 . S
C3280 C3272 1.574 . S
C3280 H3275 0.949 . S
C3280 C3286 1.368 . S
C3281 C3265 1.349 . S
C3281 H3273 0.950 . S
C3281 C3279 1.327 . S
C3282 C3270 1.349 . S
C3282 H3276 0.950 . S
C3282 C3283 1.327 . S
C3283 H3277 0.950 . S
C3283 C3282 1.327 . S
C3283 C3287 1.429 . S
C3284 C3267 1.574 . S
C3284 H3278 0.949 . S
C3284 C3288 1.368 . S
C3285 C3266 1.429 . S
C3285 C3279 1.429 . S
C3285 C3286 1.523 . S
C3286 C3267 1.368 . S
C3286 C3280 1.368 . S
C3286 C3285 1.523 . S
C3287 C3271 1.429 . S
C3287 C3283 1.429 . S
C3287 C3288 1.523 . S
C3288 C3272 1.368 . S
C3288 C3284 1.368 . S
C3288 C3287 1.523 . S
H3289 C3264 0.950 . S
H3290 C3266 0.950 . S
H3291 C3267 0.949 . S
H3292 C3269 0.950 . S
H3293 C3271 0.950 . S
C3294 C3295 1.349 . S
C3294 C3296 1.327 . S
C3294 H3319 0.950 . S
C3295 C3294 1.349 . S
C3295 C3311 1.349 . S
C3296 C3294 1.327 . S
C3296 C3315 1.429 . S
C3296 H3320 0.950 . S
C3297 C3314 1.574 . S
C3297 C3316 1.368 . S
C3297 H3321 0.949 . S
H3298 C3302 0.949 . S
C3299 C3300 1.349 . S
C3299 C3301 1.327 . S
C3299 H3322 0.950 . S
C3300 C3299 1.349 . S
C3300 C3312 1.349 . S
C3301 C3299 1.327 . S
C3301 C3317 1.429 . S
C3301 H3323 0.950 . S
C3302 H3298 0.949 . S
C3302 C3310 1.574 . S
C3302 C3318 1.368 . S
H3303 C3311 0.950 . S
H3304 C3309 0.950 . S
H3305 C3310 0.949 . S
H3306 C3312 0.950 . S
H3307 C3313 0.950 . S
H3308 C3314 0.949 . S
C3309 H3304 0.950 . S
C3309 C3311 1.327 . S
C3309 C3315 1.429 . S
C3310 C3302 1.574 . S
C3310 H3305 0.949 . S
C3310 C3316 1.368 . S
C3311 C3295 1.349 . S
C3311 H3303 0.950 . S
C3311 C3309 1.327 . S
C3312 C3300 1.349 . S
C3312 H3306 0.950 . S
C3312 C3313 1.327 . S
C3313 H3307 0.950 . S
C3313 C3312 1.327 . S
C3313 C3317 1.429 . S
C3314 C3297 1.574 . S
C3314 H3308 0.949 . S
C3314 C3318 1.368 . S
C3315 C3296 1.429 . S
C3315 C3309 1.429 . S
C3315 C3316 1.523 . S
C3316 C3297 1.368 . S
C3316 C3310 1.368 . S
C3316 C3315 1.523 . S
C3317 C3301 1.429 . S
C3317 C3313 1.429 . S
C3317 C3318 1.523 . S
C3318 C3302 1.368 . S
C3318 C3314 1.368 . S
C3318 C3317 1.523 . S
H3319 C3294 0.950 . S
H3320 C3296 0.950 . S
H3321 C3297 0.949 . S
H3322 C3299 0.950 . S
H3323 C3301 0.950 . S
C3324 C3325 1.349 . S
C3324 C3326 1.327 . S
C3324 H3349 0.950 . S
C3325 C3324 1.349 . S
C3325 C3341 1.349 . S
C3326 C3324 1.327 . S
C3326 C3345 1.429 . S
C3326 H3350 0.950 . S
C3327 C3344 1.574 . S
C3327 C3346 1.368 . S
C3327 H3351 0.949 . S
H3328 C3332 0.949 . S
C3329 C3330 1.349 . S
C3329 C3331 1.327 . S
C3329 H3352 0.950 . S
C3330 C3329 1.349 . S
C3330 C3342 1.349 . S
C3331 C3329 1.327 . S
C3331 C3347 1.429 . S
C3331 H3353 0.950 . S
C3332 H3328 0.949 . S
C3332 C3340 1.574 . S
C3332 C3348 1.368 . S
H3333 C3341 0.950 . S
H3334 C3339 0.950 . S
H3335 C3340 0.949 . S
H3336 C3342 0.950 . S
H3337 C3343 0.950 . S
H3338 C3344 0.949 . S
C3339 H3334 0.950 . S
C3339 C3341 1.327 . S
C3339 C3345 1.429 . S
C3340 C3332 1.574 . S
C3340 H3335 0.949 . S
C3340 C3346 1.368 . S
C3341 C3325 1.349 . S
C3341 H3333 0.950 . S
C3341 C3339 1.327 . S
C3342 C3330 1.349 . S
C3342 H3336 0.950 . S
C3342 C3343 1.327 . S
C3343 H3337 0.950 . S
C3343 C3342 1.327 . S
C3343 C3347 1.429 . S
C3344 C3327 1.574 . S
C3344 H3338 0.949 . S
C3344 C3348 1.368 . S
C3345 C3326 1.429 . S
C3345 C3339 1.429 . S
C3345 C3346 1.523 . S
C3346 C3327 1.368 . S
C3346 C3340 1.368 . S
C3346 C3345 1.523 . S
C3347 C3331 1.429 . S
C3347 C3343 1.429 . S
C3347 C3348 1.523 . S
C3348 C3332 1.368 . S
C3348 C3344 1.368 . S
C3348 C3347 1.523 . S
H3349 C3324 0.950 . S
H3350 C3326 0.950 . S
H3351 C3327 0.949 . S
H3352 C3329 0.950 . S
H3353 C3331 0.950 . S
C3354 C3355 1.349 . S
C3354 C3356 1.327 . S
C3354 H3379 0.950 . S
C3355 C3354 1.349 . S
C3355 C3371 1.349 . S
C3356 C3354 1.327 . S
C3356 C3375 1.429 . S
C3356 H3380 0.950 . S
C3357 C3374 1.574 . S
C3357 C3376 1.368 . S
C3357 H3381 0.949 . S
H3358 C3362 0.949 . S
C3359 C3360 1.349 . S
C3359 C3361 1.327 . S
C3359 H3382 0.950 . S
C3360 C3359 1.349 . S
C3360 C3372 1.349 . S
C3361 C3359 1.327 . S
C3361 C3377 1.429 . S
C3361 H3383 0.950 . S
C3362 H3358 0.949 . S
C3362 C3370 1.574 . S
C3362 C3378 1.368 . S
H3363 C3371 0.908 1_455 S
H3364 C3369 0.950 . S
H3365 C3370 0.949 . S
H3366 C3372 0.950 . S
H3367 C3373 0.950 . S
H3368 C3374 0.949 . S
C3369 H3364 0.950 . S
C3369 C3371 1.327 . S
C3369 C3375 1.429 . S
C3370 C3362 1.574 . S
C3370 H3365 0.949 . S
C3370 C3376 1.368 . S
C3371 C3355 1.349 . S
C3371 H3363 0.908 1_655 S
C3371 C3369 1.327 . S
C3372 C3360 1.349 . S
C3372 H3366 0.950 . S
C3372 C3373 1.327 . S
C3373 H3367 0.950 . S
C3373 C3372 1.327 . S
C3373 C3377 1.429 . S
C3374 C3357 1.574 . S
C3374 H3368 0.949 . S
C3374 C3378 1.368 . S
C3375 C3356 1.429 . S
C3375 C3369 1.429 . S
C3375 C3376 1.523 . S
C3376 C3357 1.368 . S
C3376 C3370 1.368 . S
C3376 C3375 1.523 . S
C3377 C3361 1.429 . S
C3377 C3373 1.429 . S
C3377 C3378 1.523 . S
C3378 C3362 1.368 . S
C3378 C3374 1.368 . S
C3378 C3377 1.523 . S
H3379 C3354 0.950 . S
H3380 C3356 0.950 . S
H3381 C3357 0.949 . S
H3382 C3359 0.950 . S
H3383 C3361 0.950 . S
C3384 C3385 1.349 . S
C3384 C3386 1.327 . S
C3384 H3409 0.950 . S
C3385 C3384 1.349 . S
C3385 C3401 1.349 . S
C3386 C3384 1.327 . S
C3386 C3405 1.429 . S
C3386 H3410 0.950 . S
C3387 C3404 1.574 . S
C3387 C3406 1.368 . S
C3387 H3411 0.949 . S
H3388 C3392 0.949 . S
C3389 C3390 1.349 . S
C3389 C3391 1.327 . S
C3389 H3412 0.950 . S
C3390 C3389 1.349 . S
C3390 C3402 1.349 . S
C3391 C3389 1.327 . S
C3391 C3407 1.429 . S
C3391 H3413 0.950 . S
C3392 H3388 0.949 . S
C3392 C3400 1.574 . S
C3392 C3408 1.368 . S
H3393 C3401 0.950 . S
H3394 C3399 0.950 . S
H3395 C3400 0.949 . S
H3396 C3402 0.950 . S
H3397 C3403 0.950 . S
H3398 C3404 0.949 . S
C3399 H3394 0.950 . S
C3399 C3401 1.327 . S
C3399 C3405 1.429 . S
C3400 C3392 1.574 . S
C3400 H3395 0.949 . S
C3400 C3406 1.368 . S
C3401 C3385 1.349 . S
C3401 H3393 0.950 . S
C3401 C3399 1.327 . S
C3402 C3390 1.349 . S
C3402 H3396 0.950 . S
C3402 C3403 1.327 . S
C3403 H3397 0.950 . S
C3403 C3402 1.327 . S
C3403 C3407 1.429 . S
C3404 C3387 1.574 . S
C3404 H3398 0.949 . S
C3404 C3408 1.368 . S
C3405 C3386 1.429 . S
C3405 C3399 1.429 . S
C3405 C3406 1.523 . S
C3406 C3387 1.368 . S
C3406 C3400 1.368 . S
C3406 C3405 1.523 . S
C3407 C3391 1.429 . S
C3407 C3403 1.429 . S
C3407 C3408 1.523 . S
C3408 C3392 1.368 . S
C3408 C3404 1.368 . S
C3408 C3407 1.523 . S
H3409 C3384 0.950 . S
H3410 C3386 0.950 . S
H3411 C3387 0.949 . S
H3412 C3389 0.950 . S
H3413 C3391 0.950 . S
C3414 C3415 1.349 . S
C3414 C3416 1.327 . S
C3414 H3439 0.950 . S
C3415 C3414 1.349 . S
C3415 C3431 1.349 . S
C3416 C3414 1.327 . S
C3416 C3435 1.429 . S
C3416 H3440 0.950 . S
C3417 C3434 1.574 . S
C3417 C3436 1.368 . S
C3417 H3441 0.949 . S
H3418 C3422 0.949 . S
C3419 C3420 1.349 . S
C3419 C3421 1.327 . S
C3419 H3442 0.950 1_655 S
C3420 C3419 1.349 . S
C3420 C3432 1.349 . S
C3421 C3419 1.327 . S
C3421 C3437 1.429 . S
C3421 H3443 0.950 . S
C3422 H3418 0.949 . S
C3422 C3430 1.574 . S
C3422 C3438 1.368 . S
H3423 C3431 0.950 . S
H3424 C3429 0.950 . S
H3425 C3430 0.949 . S
H3426 C3432 0.950 . S
H3427 C3433 0.950 . S
H3428 C3434 0.949 . S
C3429 H3424 0.950 . S
C3429 C3431 1.327 . S
C3429 C3435 1.429 . S
C3430 C3422 1.574 . S
C3430 H3425 0.949 . S
C3430 C3436 1.368 . S
C3431 C3415 1.349 . S
C3431 H3423 0.950 . S
C3431 C3429 1.327 . S
C3432 C3420 1.349 . S
C3432 H3426 0.950 . S
C3432 C3433 1.327 . S
C3433 H3427 0.950 . S
C3433 C3432 1.327 . S
C3433 C3437 1.429 . S
C3434 C3417 1.574 . S
C3434 H3428 0.949 . S
C3434 C3438 1.368 . S
C3435 C3416 1.429 . S
C3435 C3429 1.429 . S
C3435 C3436 1.523 . S
C3436 C3417 1.368 . S
C3436 C3430 1.368 . S
C3436 C3435 1.523 . S
C3437 C3421 1.429 . S
C3437 C3433 1.429 . S
C3437 C3438 1.523 . S
C3438 C3422 1.368 . S
C3438 C3434 1.368 . S
C3438 C3437 1.523 . S
H3439 C3414 0.950 . S
H3440 C3416 0.950 . S
H3441 C3417 0.949 . S
H3442 C3419 0.950 1_455 S
H3443 C3421 0.950 . S
C3444 C3445 1.349 . S
C3444 C3446 1.327 . S
C3444 H3469 0.950 . S
C3445 C3444 1.349 . S
C3445 C3461 1.349 . S
C3446 C3444 1.327 . S
C3446 C3465 1.429 . S
C3446 H3470 0.950 . S
C3447 C3464 1.574 . S
C3447 C3466 1.368 . S
C3447 H3471 0.949 . S
H3448 C3452 0.949 . S
C3449 C3450 1.349 . S
C3449 C3451 1.327 . S
C3449 H3472 0.950 . S
C3450 C3449 1.349 . S
C3450 C3462 1.349 . S
C3451 C3449 1.327 . S
C3451 C3467 1.429 . S
C3451 H3473 0.950 . S
C3452 H3448 0.949 . S
C3452 C3460 1.574 . S
C3452 C3468 1.368 . S
H3453 C3461 0.950 . S
H3454 C3459 0.950 . S
H3455 C3460 0.949 . S
H3456 C3462 0.950 . S
H3457 C3463 0.950 . S
H3458 C3464 0.949 . S
C3459 H3454 0.950 . S
C3459 C3461 1.327 . S
C3459 C3465 1.429 . S
C3460 C3452 1.574 . S
C3460 H3455 0.949 . S
C3460 C3466 1.368 . S
C3461 C3445 1.349 . S
C3461 H3453 0.950 . S
C3461 C3459 1.327 . S
C3462 C3450 1.349 . S
C3462 H3456 0.950 . S
C3462 C3463 1.327 . S
C3463 H3457 0.950 . S
C3463 C3462 1.327 . S
C3463 C3467 1.429 . S
C3464 C3447 1.574 . S
C3464 H3458 0.949 . S
C3464 C3468 1.368 . S
C3465 C3446 1.429 . S
C3465 C3459 1.429 . S
C3465 C3466 1.523 . S
C3466 C3447 1.368 . S
C3466 C3460 1.368 . S
C3466 C3465 1.523 . S
C3467 C3451 1.429 . S
C3467 C3463 1.429 . S
C3467 C3468 1.523 . S
C3468 C3452 1.368 . S
C3468 C3464 1.368 . S
C3468 C3467 1.523 . S
H3469 C3444 0.950 . S
H3470 C3446 0.950 . S
H3471 C3447 0.949 . S
H3472 C3449 0.950 . S
H3473 C3451 0.950 . S
C3474 C3475 1.349 . S
C3474 C3476 1.327 . S
C3474 H3499 0.950 . S
C3475 C3474 1.349 . S
C3475 C3491 1.349 . S
C3476 C3474 1.327 . S
C3476 C3495 1.429 . S
C3476 H3500 0.950 . S
C3477 C3494 1.574 . S
C3477 C3496 1.368 . S
C3477 H3501 0.949 . S
H3478 C3482 0.949 . S
C3479 C3480 1.349 . S
C3479 C3481 1.327 . S
C3479 H3502 0.950 . S
C3480 C3479 1.349 . S
C3480 C3492 1.349 . S
C3481 C3479 1.327 . S
C3481 C3497 1.429 . S
C3481 H3503 0.950 . S
C3482 H3478 0.949 . S
C3482 C3490 1.574 . S
C3482 C3498 1.368 . S
H3483 C3491 0.950 . S
H3484 C3489 0.950 . S
H3485 C3490 0.949 . S
H3486 C3492 0.950 . S
H3487 C3493 0.950 . S
H3488 C3494 0.949 . S
C3489 H3484 0.950 . S
C3489 C3491 1.327 . S
C3489 C3495 1.429 . S
C3490 C3482 1.574 . S
C3490 H3485 0.949 . S
C3490 C3496 1.368 . S
C3491 C3475 1.349 . S
C3491 H3483 0.950 . S
C3491 C3489 1.327 . S
C3492 C3480 1.349 . S
C3492 H3486 0.950 . S
C3492 C3493 1.327 . S
C3493 H3487 0.950 . S
C3493 C3492 1.327 . S
C3493 C3497 1.429 . S
C3494 C3477 1.574 . S
C3494 H3488 0.949 . S
C3494 C3498 1.368 . S
C3495 C3476 1.429 . S
C3495 C3489 1.429 . S
C3495 C3496 1.523 . S
C3496 C3477 1.368 . S
C3496 C3490 1.368 . S
C3496 C3495 1.523 . S
C3497 C3481 1.429 . S
C3497 C3493 1.429 . S
C3497 C3498 1.523 . S
C3498 C3482 1.368 . S
C3498 C3494 1.368 . S
C3498 C3497 1.523 . S
H3499 C3474 0.950 . S
H3500 C3476 0.950 . S
H3501 C3477 0.949 . S
H3502 C3479 0.950 . S
H3503 C3481 0.950 . S
C3504 C3505 1.349 . S
C3504 C3506 1.327 . S
C3504 H3529 0.950 . S
C3505 C3504 1.349 . S
C3505 C3521 1.349 . S
C3506 C3504 1.327 . S
C3506 C3525 1.429 . S
C3506 H3530 0.950 . S
C3507 C3524 1.574 . S
C3507 C3526 1.368 . S
C3507 H3531 0.949 . S
H3508 C3512 0.949 . S
C3509 C3510 1.349 . S
C3509 C3511 1.327 . S
C3509 H3532 0.950 . S
C3510 C3509 1.349 . S
C3510 C3522 1.349 . S
C3511 C3509 1.327 . S
C3511 C3527 1.429 . S
C3511 H3533 0.950 . S
C3512 H3508 0.949 . S
C3512 C3520 1.574 . S
C3512 C3528 1.368 . S
H3513 C3521 0.950 . S
H3514 C3519 0.950 . S
H3515 C3520 0.949 . S
H3516 C3522 0.950 . S
H3517 C3523 0.950 . S
H3518 C3524 0.949 . S
C3519 H3514 0.950 . S
C3519 C3521 1.327 . S
C3519 C3525 1.429 . S
C3520 C3512 1.574 . S
C3520 H3515 0.949 . S
C3520 C3526 1.368 . S
C3521 C3505 1.349 . S
C3521 H3513 0.950 . S
C3521 C3519 1.327 . S
C3522 C3510 1.349 . S
C3522 H3516 0.950 . S
C3522 C3523 1.327 . S
C3523 H3517 0.950 . S
C3523 C3522 1.327 . S
C3523 C3527 1.429 . S
C3524 C3507 1.574 . S
C3524 H3518 0.949 . S
C3524 C3528 1.368 . S
C3525 C3506 1.429 . S
C3525 C3519 1.429 . S
C3525 C3526 1.523 . S
C3526 C3507 1.368 . S
C3526 C3520 1.368 . S
C3526 C3525 1.523 . S
C3527 C3511 1.429 . S
C3527 C3523 1.429 . S
C3527 C3528 1.523 . S
C3528 C3512 1.368 . S
C3528 C3524 1.368 . S
C3528 C3527 1.523 . S
H3529 C3504 0.950 . S
H3530 C3506 0.950 . S
H3531 C3507 0.949 . S
H3532 C3509 0.950 . S
H3533 C3511 0.950 . S
C3534 C3535 1.349 . S
C3534 C3536 1.327 . S
C3534 H3559 0.950 . S
C3535 C3534 1.349 . S
C3535 C3551 1.349 . S
C3536 C3534 1.327 . S
C3536 C3555 1.429 . S
C3536 H3560 0.950 . S
C3537 C3554 1.574 . S
C3537 C3556 1.368 . S
C3537 H3561 0.949 . S
H3538 C3542 0.949 . S
C3539 C3540 1.349 . S
C3539 C3541 1.327 . S
C3539 H3562 0.950 . S
C3540 C3539 1.349 . S
C3540 C3552 1.349 . S
C3541 C3539 1.327 . S
C3541 C3557 1.429 . S
C3541 H3563 0.950 . S
C3542 H3538 0.949 . S
C3542 C3550 1.574 . S
C3542 C3558 1.368 . S
H3543 C3551 0.950 1_655 S
H3544 C3549 0.950 . S
H3545 C3550 0.949 . S
H3546 C3552 0.950 . S
H3547 C3553 0.950 . S
H3548 C3554 0.949 . S
C3549 H3544 0.950 . S
C3549 C3551 1.327 . S
C3549 C3555 1.429 . S
C3550 C3542 1.574 . S
C3550 H3545 0.949 . S
C3550 C3556 1.368 . S
C3551 C3535 1.349 . S
C3551 H3543 0.950 1_455 S
C3551 C3549 1.327 . S
C3552 C3540 1.349 . S
C3552 H3546 0.950 . S
C3552 C3553 1.327 . S
C3553 H3547 0.950 . S
C3553 C3552 1.327 . S
C3553 C3557 1.429 . S
C3554 C3537 1.574 . S
C3554 H3548 0.949 . S
C3554 C3558 1.368 . S
C3555 C3536 1.429 . S
C3555 C3549 1.429 . S
C3555 C3556 1.523 . S
C3556 C3537 1.368 . S
C3556 C3550 1.368 . S
C3556 C3555 1.523 . S
C3557 C3541 1.429 . S
C3557 C3553 1.429 . S
C3557 C3558 1.523 . S
C3558 C3542 1.368 . S
C3558 C3554 1.368 . S
C3558 C3557 1.523 . S
H3559 C3534 0.950 . S
H3560 C3536 0.950 . S
H3561 C3537 0.949 . S
H3562 C3539 0.950 . S
H3563 C3541 0.950 . S
C3564 C3565 1.349 . S
C3564 C3566 1.327 . S
C3564 H3589 0.950 . S
C3565 C3564 1.349 . S
C3565 C3581 1.349 . S
C3566 C3564 1.327 . S
C3566 C3585 1.429 . S
C3566 H3590 0.950 . S
C3567 C3584 1.574 . S
C3567 C3586 1.368 . S
C3567 H3591 0.949 . S
H3568 C3572 0.949 . S
C3569 C3570 1.349 . S
C3569 C3571 1.327 . S
C3569 H3592 0.950 . S
C3570 C3569 1.349 . S
C3570 C3582 1.349 . S
C3571 C3569 1.327 . S
C3571 C3587 1.429 . S
C3571 H3593 0.950 . S
C3572 H3568 0.949 . S
C3572 C3580 1.574 . S
C3572 C3588 1.368 . S
H3573 C3581 0.950 . S
H3574 C3579 0.950 . S
H3575 C3580 0.949 . S
H3576 C3582 0.950 . S
H3577 C3583 0.950 . S
H3578 C3584 0.949 . S
C3579 H3574 0.950 . S
C3579 C3581 1.327 . S
C3579 C3585 1.429 . S
C3580 C3572 1.574 . S
C3580 H3575 0.949 . S
C3580 C3586 1.368 . S
C3581 C3565 1.349 . S
C3581 H3573 0.950 . S
C3581 C3579 1.327 . S
C3582 C3570 1.349 . S
C3582 H3576 0.950 . S
C3582 C3583 1.327 . S
C3583 H3577 0.950 . S
C3583 C3582 1.327 . S
C3583 C3587 1.429 . S
C3584 C3567 1.574 . S
C3584 H3578 0.949 . S
C3584 C3588 1.368 . S
C3585 C3566 1.429 . S
C3585 C3579 1.429 . S
C3585 C3586 1.523 . S
C3586 C3567 1.368 . S
C3586 C3580 1.368 . S
C3586 C3585 1.523 . S
C3587 C3571 1.429 . S
C3587 C3583 1.429 . S
C3587 C3588 1.523 . S
C3588 C3572 1.368 . S
C3588 C3584 1.368 . S
C3588 C3587 1.523 . S
H3589 C3564 0.950 . S
H3590 C3566 0.950 . S
H3591 C3567 0.949 . S
H3592 C3569 0.950 . S
H3593 C3571 0.950 . S
C3594 C3595 1.349 . S
C3594 C3596 1.327 . S
C3594 H3619 0.950 . S
C3595 C3594 1.349 . S
C3595 C3611 1.349 . S
C3596 C3594 1.327 . S
C3596 C3615 1.429 . S
C3596 H3620 0.950 . S
C3597 C3614 1.574 . S
C3597 C3616 1.368 . S
C3597 H3621 0.949 . S
H3598 C3602 0.949 . S
C3599 C3600 1.349 . S
C3599 C3601 1.327 . S
C3599 H3622 0.950 . S
C3600 C3599 1.349 . S
C3600 C3612 1.349 . S
C3601 C3599 1.327 . S
C3601 C3617 1.429 . S
C3601 H3623 0.950 . S
C3602 H3598 0.949 . S
C3602 C3610 1.574 . S
C3602 C3618 1.368 . S
H3603 C3611 0.950 . S
H3604 C3609 0.950 . S
H3605 C3610 0.949 . S
H3606 C3612 0.950 . S
H3607 C3613 0.950 . S
H3608 C3614 0.949 . S
C3609 H3604 0.950 . S
C3609 C3611 1.327 . S
C3609 C3615 1.429 . S
C3610 C3602 1.574 . S
C3610 H3605 0.949 . S
C3610 C3616 1.368 . S
C3611 C3595 1.349 . S
C3611 H3603 0.950 . S
C3611 C3609 1.327 . S
C3612 C3600 1.349 . S
C3612 H3606 0.950 . S
C3612 C3613 1.327 . S
C3613 H3607 0.950 . S
C3613 C3612 1.327 . S
C3613 C3617 1.429 . S
C3614 C3597 1.574 . S
C3614 H3608 0.949 . S
C3614 C3618 1.368 . S
C3615 C3596 1.429 . S
C3615 C3609 1.429 . S
C3615 C3616 1.523 . S
C3616 C3597 1.368 . S
C3616 C3610 1.368 . S
C3616 C3615 1.523 . S
C3617 C3601 1.429 . S
C3617 C3613 1.429 . S
C3617 C3618 1.523 . S
C3618 C3602 1.368 . S
C3618 C3614 1.368 . S
C3618 C3617 1.523 . S
H3619 C3594 0.950 . S
H3620 C3596 0.950 . S
H3621 C3597 0.949 . S
H3622 C3599 0.950 . S
H3623 C3601 0.950 . S
C3624 C3625 1.349 . S
C3624 C3626 1.327 1_655 S
C3624 H3649 0.950 . S
C3625 C3624 1.349 . S
C3625 C3641 1.349 1_655 S
C3626 C3624 1.327 1_455 S
C3626 C3645 1.429 . S
C3626 H3650 0.950 . S
C3627 C3644 1.574 . S
C3627 C3646 1.368 . S
C3627 H3651 0.949 . S
H3628 C3632 0.949 . S
C3629 C3630 1.349 . S
C3629 C3631 1.327 . S
C3629 H3652 0.950 . S
C3630 C3629 1.349 . S
C3630 C3642 1.349 . S
C3631 C3629 1.327 . S
C3631 C3647 1.429 . S
C3631 H3653 0.950 . S
C3632 H3628 0.949 . S
C3632 C3640 1.574 . S
C3632 C3648 1.368 . S
H3633 C3641 0.950 . S
H3634 C3639 0.950 . S
H3635 C3640 0.949 . S
H3636 C3642 0.950 . S
H3637 C3643 0.950 . S
H3638 C3644 0.949 . S
C3639 H3634 0.950 . S
C3639 C3641 1.327 . S
C3639 C3645 1.429 . S
C3640 C3632 1.574 . S
C3640 H3635 0.949 . S
C3640 C3646 1.368 . S
C3641 C3625 1.349 1_455 S
C3641 H3633 0.950 . S
C3641 C3639 1.327 . S
C3642 C3630 1.349 . S
C3642 H3636 0.950 . S
C3642 C3643 1.327 . S
C3643 H3637 0.950 . S
C3643 C3642 1.327 . S
C3643 C3647 1.429 . S
C3644 C3627 1.574 . S
C3644 H3638 0.949 . S
C3644 C3648 1.368 . S
C3645 C3626 1.429 . S
C3645 C3639 1.429 . S
C3645 C3646 1.523 . S
C3646 C3627 1.368 . S
C3646 C3640 1.368 . S
C3646 C3645 1.523 . S
C3647 C3631 1.429 . S
C3647 C3643 1.429 . S
C3647 C3648 1.523 . S
C3648 C3632 1.368 . S
C3648 C3644 1.368 . S
C3648 C3647 1.523 . S
H3649 C3624 0.950 . S
H3650 C3626 0.950 . S
H3651 C3627 0.949 . S
H3652 C3629 0.950 . S
H3653 C3631 0.950 . S
C3654 C3655 1.349 . S
C3654 C3656 1.327 . S
C3654 H3679 0.950 . S
C3655 C3654 1.349 . S
C3655 C3671 1.349 . S
C3656 C3654 1.327 . S
C3656 C3675 1.429 . S
C3656 H3680 0.950 . S
C3657 C3674 1.574 . S
C3657 C3676 1.368 . S
C3657 H3681 0.949 . S
H3658 C3662 0.949 . S
C3659 C3660 1.349 1_455 S
C3659 C3661 1.327 . S
C3659 H3682 0.950 . S
C3660 C3659 1.349 1_655 S
C3660 C3672 1.349 . S
C3661 C3659 1.327 . S
C3661 C3677 1.429 1_455 S
C3661 H3683 0.950 . S
C3662 H3658 0.949 . S
C3662 C3670 1.574 . S
C3662 C3678 1.368 . S
H3663 C3671 0.950 . S
H3664 C3669 0.950 . S
H3665 C3670 0.949 . S
H3666 C3672 0.950 . S
H3667 C3673 0.950 . S
H3668 C3674 0.949 1_455 S
C3669 H3664 0.950 . S
C3669 C3671 1.327 . S
C3669 C3675 1.429 . S
C3670 C3662 1.574 . S
C3670 H3665 0.949 . S
C3670 C3676 1.368 . S
C3671 C3655 1.349 . S
C3671 H3663 0.950 . S
C3671 C3669 1.327 . S
C3672 C3660 1.349 . S
C3672 H3666 0.950 . S
C3672 C3673 1.327 . S
C3673 H3667 0.950 . S
C3673 C3672 1.327 . S
C3673 C3677 1.429 . S
C3674 C3657 1.574 . S
C3674 H3668 0.949 1_655 S
C3674 C3678 1.368 . S
C3675 C3656 1.429 . S
C3675 C3669 1.429 . S
C3675 C3676 1.523 . S
C3676 C3657 1.368 . S
C3676 C3670 1.368 . S
C3676 C3675 1.523 . S
C3677 C3661 1.429 1_655 S
C3677 C3673 1.429 . S
C3677 C3678 1.523 . S
C3678 C3662 1.368 . S
C3678 C3674 1.368 . S
C3678 C3677 1.523 . S
H3679 C3654 0.950 . S
H3680 C3656 0.950 . S
H3681 C3657 0.949 . S
H3682 C3659 0.950 . S
H3683 C3661 0.950 . S
C3684 C3685 1.349 . S
C3684 C3686 1.327 . S
C3684 H3709 0.950 . S
C3685 C3684 1.349 . S
C3685 C3701 1.349 . S
C3686 C3684 1.327 . S
C3686 C3705 1.429 . S
C3686 H3710 0.950 . S
C3687 C3704 1.574 . S
C3687 C3706 1.368 . S
C3687 H3711 0.949 . S
H3688 C3692 0.949 . S
C3689 C3690 1.349 . S
C3689 C3691 1.327 . S
C3689 H3712 0.950 . S
C3690 C3689 1.349 . S
C3690 C3702 1.349 . S
C3691 C3689 1.327 . S
C3691 C3707 1.429 . S
C3691 H3713 0.950 . S
C3692 H3688 0.949 . S
C3692 C3700 1.574 . S
C3692 C3708 1.368 . S
H3693 C3701 0.950 . S
H3694 C3699 0.950 . S
H3695 C3700 0.949 . S
H3696 C3702 0.950 . S
H3697 C3703 0.950 . S
H3698 C3704 0.949 . S
C3699 H3694 0.950 . S
C3699 C3701 1.327 . S
C3699 C3705 1.429 . S
C3700 C3692 1.574 . S
C3700 H3695 0.949 . S
C3700 C3706 1.368 . S
C3701 C3685 1.349 . S
C3701 H3693 0.950 . S
C3701 C3699 1.327 . S
C3702 C3690 1.349 . S
C3702 H3696 0.950 . S
C3702 C3703 1.327 . S
C3703 H3697 0.950 . S
C3703 C3702 1.327 . S
C3703 C3707 1.429 . S
C3704 C3687 1.574 . S
C3704 H3698 0.949 . S
C3704 C3708 1.368 . S
C3705 C3686 1.429 . S
C3705 C3699 1.429 . S
C3705 C3706 1.523 . S
C3706 C3687 1.368 . S
C3706 C3700 1.368 . S
C3706 C3705 1.523 . S
C3707 C3691 1.429 . S
C3707 C3703 1.429 . S
C3707 C3708 1.523 . S
C3708 C3692 1.368 . S
C3708 C3704 1.368 . S
C3708 C3707 1.523 . S
H3709 C3684 0.950 . S
H3710 C3686 0.950 . S
H3711 C3687 0.949 . S
H3712 C3689 0.950 . S
H3713 C3691 0.950 . S
C3714 C3715 1.349 . S
C3714 C3716 1.327 . S
C3714 H3739 0.950 . S
C3715 C3714 1.349 . S
C3715 C3731 1.349 . S
C3716 C3714 1.327 . S
C3716 C3735 1.429 . S
C3716 H3740 0.950 . S
C3717 C3734 1.574 . S
C3717 C3736 1.368 . S
C3717 H3741 0.949 . S
H3718 C3722 0.949 1_565 S
C3719 C3720 1.388 . S
C3719 C3721 1.327 . S
C3719 H3742 0.950 . S
C3720 C3719 1.388 . S
C3720 C3732 1.303 1_545 S
C3721 C3719 1.327 . S
C3721 C3737 1.429 . S
C3721 H3743 0.950 . S
C3722 H3718 0.949 1_545 S
C3722 C3730 1.574 . S
C3722 C3738 1.368 . S
H3723 C3731 0.950 . S
H3724 C3729 0.950 . S
H3725 C3730 0.929 1_565 S
H3726 C3732 0.950 . S
H3727 C3733 0.950 . S
H3728 C3734 0.949 . S
C3729 H3724 0.950 . S
C3729 C3731 1.327 . S
C3729 C3735 1.429 . S
C3730 C3722 1.574 . S
C3730 H3725 0.929 1_545 S
C3730 C3736 1.368 . S
C3731 C3715 1.349 . S
C3731 H3723 0.950 . S
C3731 C3729 1.327 . S
C3732 C3720 1.303 1_565 S
C3732 H3726 0.950 . S
C3732 C3733 1.327 . S
C3733 H3727 0.950 . S
C3733 C3732 1.327 . S
C3733 C3737 1.429 1_565 S
C3734 C3717 1.574 . S
C3734 H3728 0.949 . S
C3734 C3738 1.368 . S
C3735 C3716 1.429 . S
C3735 C3729 1.429 . S
C3735 C3736 1.523 . S
C3736 C3717 1.368 . S
C3736 C3730 1.368 . S
C3736 C3735 1.523 . S
C3737 C3721 1.429 . S
C3737 C3733 1.429 1_545 S
C3737 C3738 1.523 . S
C3738 C3722 1.368 . S
C3738 C3734 1.368 . S
C3738 C3737 1.523 . S
H3739 C3714 0.950 . S
H3740 C3716 0.950 . S
H3741 C3717 0.949 . S
H3742 C3719 0.950 . S
H3743 C3721 0.950 . S
C1585 C13 1.052 . S
C1590 C981 1.063 . S
C1615 C27 1.323 . S
C1620 C1061 1.368 . S
C1650 C1129 1.211 . S
C1645 C36 1.175 . S
C1675 C41 1.633 1_556 S
C1680 C1209 1.709 . S
C1705 C8 1.487 1_556 S
C1710 C1283 1.565 . S
C1735 C22 1.440 . S
C1740 C1351 1.430 . S
C1765 C55 0.997 . S
C1770 C1277 1.000 . S
C1800 C1357 1.288 . S
C1795 C69 1.236 . S
C1830 C1203 1.219 1_545 S
C1825 C78 1.166 . S
C1855 C83 1.648 . S
C1860 C1135 1.656 . S
C1890 C987 1.551 . S
C1885 C50 1.466 . S
C1915 C64 1.304 . S
C1920 C1055 1.338 . S
C1945 C97 1.286 . S
C1950 C1425 1.295 . S
C1975 C111 1.365 . S
C1980 C1505 1.410 . S
C2010 C1573 1.390 . S
C2005 C120 1.414 . S
C2035 C125 1.812 . S
C2040 C321 1.833 . S
C2065 C92 1.774 . S
C2070 C395 1.782 . S
C2095 C106 1.483 . S
C2100 C463 1.460 . S
C2125 C139 1.026 . S
C2130 C389 1.051 . S
C2155 C153 1.289 . S
C2160 C469 1.337 . S
C2190 C315 1.330 . S
C2185 C162 1.293 . S
C2220 C1579 1.851 . S
C2215 C167 1.797 . S
C2250 C1431 1.641 . S
C2245 C134 1.589 . S
C2280 C1499 1.388 . S
C2275 C148 1.363 . S
C2305 C181 1.196 . S
C2310 C537 1.200 . S
C2335 C195 1.381 . S
C2340 C617 1.414 . S
C2365 C204 1.456 . S
C2370 C685 1.439 . S
C2395 C209 1.900 . S
C2400 C765 1.926 . S
C2430 C839 1.763 . S
C2425 C176 1.761 . S
C2460 C907 1.492 . S
C2455 C190 1.522 . S
C2490 C833 1.172 . S
C2485 C223 1.136 . S
C2520 C913 1.326 . S
C2515 C237 1.269 . S
C2545 C246 1.226 . S
C2550 C759 1.254 . S
C2580 C691 1.734 . S
C2575 C251 1.690 . S
C2605 C218 1.624 . S
C2610 C543 1.684 . S
C2640 C611 1.369 . S
C2635 C232 1.338 . S
C2670 C291 1.903 . S
C2665 C11 1.892 . S
C2695 C25 1.231 . S
C2700 C365 1.239 . S
C2730 C451 1.363 . S
C2725 C35 1.368 . S
C2760 C525 1.086 . S
C2755 C39 1.080 . S
C2790 C587 1.613 . S
C2785 C7 1.631 . S
C2820 C673 1.438 . S
C2815 C21 1.446 . S
C2845 C53 2.055 . S
C2850 C661 2.028 . S
C2875 C67 1.418 . S
C2880 C513 1.381 . S
C2905 C77 1.556 . S
C2910 C599 1.516 . S
C2935 C81 1.332 . S
C2940 C377 1.321 . S
C2970 C439 1.717 . S
C2965 C49 1.791 . S
C2995 C63 1.656 . S
C3000 C303 1.608 . S
C3030 C735 1.841 . S
C3025 C95 1.842 . S
C3055 C109 1.371 1_545 S
C3060 C809 1.373 . S
C3085 C119 1.456 . S
C3090 C895 1.445 . S
C3120 C969 0.824 . S
C3115 C123 0.822 . S
C3145 C91 1.520 . S
C3150 C1031 1.505 . S
C3175 C105 1.232 . S
C3180 C1117 1.238 . S
C3205 C137 1.749 . S
C3210 C1105 1.648 1_565 S
C3235 C151 1.089 . S
C3240 C957 1.080 . S
C3270 C1043 1.443 . S
C3265 C161 1.478 . S
C3295 C165 1.309 . S
C3300 C821 1.285 . S
C3325 C133 1.825 1_545 S
C3330 C883 1.755 . S
C3360 C747 1.714 . S
C3355 C147 1.766 1_655 S
C3390 C1179 1.707 . S
C3385 C179 1.715 . S
C3415 C193 0.985 . S
C3420 C1253 0.985 . S
C3445 C203 1.296 . S
C3450 C1339 1.291 . S
C3480 C1413 1.060 . S
C3475 C207 1.060 . S
C3510 C1475 1.655 . S
C3505 C175 1.669 1_565 S
C3535 C189 1.560 1_455 S
C3540 C1561 1.550 . S
C3565 C221 2.002 . S
C3570 C1549 1.960 . S
C3595 C235 1.549 1_565 S
C3600 C1401 1.503 . S
C3630 C1487 1.592 . S
C3625 C245 1.639 . S
C3660 C1265 0.891 . S
C3655 C249 0.892 . S
C3690 C1327 1.621 . S
C3685 C217 1.683 . S
C3715 C231 1.347 . S
C3720 C1191 1.375 1_545 S
