# Generated by pormake.
# Topology wbl, (4,4)-cn, num edge types: 1
# Building blocks:
#     Node 0, Type 0, BuildingBlock: MIFKUJ_clean_linker_1, # of connection points: 4
#     Node 1, Type 0, BuildingBlock: MIFKUJ_clean_linker_1, # of connection points: 4
#     Node 2, Type 0, BuildingBlock: MIFKUJ_clean_linker_1, # of connection points: 4
#     Node 3, Type 0, BuildingBlock: MIFKUJ_clean_linker_1, # of connection points: 4
#     Node 4, Type 0, BuildingBlock: MIFKUJ_clean_linker_1, # of connection points: 4
#     Node 5, Type 0, BuildingBlock: MIFKUJ_clean_linker_1, # of connection points: 4
#     Node 6, Type 0, BuildingBlock: MIFKUJ_clean_linker_1, # of connection points: 4
#     Node 7, Type 0, BuildingBlock: MIFKUJ_clean_linker_1, # of connection points: 4
#     Node 8, Type 1, BuildingBlock: QUQFOY_clean_sbu_3, # of connection points: 4
#     Node 9, Type 1, BuildingBlock: QUQFOY_clean_sbu_3, # of connection points: 4
#     Node 10, Type 1, BuildingBlock: QUQFOY_clean_sbu_3, # of connection points: 4
#     Node 11, Type 1, BuildingBlock: QUQFOY_clean_sbu_3, # of connection points: 4
#     Node 12, Type 1, BuildingBlock: QUQFOY_clean_sbu_3, # of connection points: 4
#     Node 13, Type 1, BuildingBlock: QUQFOY_clean_sbu_3, # of connection points: 4
#     Node 14, Type 1, BuildingBlock: QUQFOY_clean_sbu_3, # of connection points: 4
#     Node 15, Type 1, BuildingBlock: QUQFOY_clean_sbu_3, # of connection points: 4
#     Edge 16, Type (0, 1), BuildingBlock: OJICUG_clean_linker_0, # of connection points: 2
#     Edge 17, Type (0, 1), BuildingBlock: OJICUG_clean_linker_0, # of connection points: 2
#     Edge 18, Type (0, 1), BuildingBlock: OJICUG_clean_linker_0, # of connection points: 2
#     Edge 19, Type (0, 1), BuildingBlock: OJICUG_clean_linker_0, # of connection points: 2
#     Edge 20, Type (0, 1), BuildingBlock: OJICUG_clean_linker_0, # of connection points: 2
#     Edge 21, Type (0, 1), BuildingBlock: OJICUG_clean_linker_0, # of connection points: 2
#     Edge 22, Type (0, 1), BuildingBlock: OJICUG_clean_linker_0, # of connection points: 2
#     Edge 23, Type (0, 1), BuildingBlock: OJICUG_clean_linker_0, # of connection points: 2
#     Edge 24, Type (0, 1), BuildingBlock: OJICUG_clean_linker_0, # of connection points: 2
#     Edge 25, Type (0, 1), BuildingBlock: OJICUG_clean_linker_0, # of connection points: 2
#     Edge 26, Type (0, 1), BuildingBlock: OJICUG_clean_linker_0, # of connection points: 2
#     Edge 27, Type (0, 1), BuildingBlock: OJICUG_clean_linker_0, # of connection points: 2
#     Edge 28, Type (0, 1), BuildingBlock: OJICUG_clean_linker_0, # of connection points: 2
#     Edge 29, Type (0, 1), BuildingBlock: OJICUG_clean_linker_0, # of connection points: 2
#     Edge 30, Type (0, 1), BuildingBlock: OJICUG_clean_linker_0, # of connection points: 2
#     Edge 31, Type (0, 1), BuildingBlock: OJICUG_clean_linker_0, # of connection points: 2
#     Edge 32, Type (0, 1), BuildingBlock: OJICUG_clean_linker_0, # of connection points: 2
#     Edge 33, Type (0, 1), BuildingBlock: OJICUG_clean_linker_0, # of connection points: 2
#     Edge 34, Type (0, 1), BuildingBlock: OJICUG_clean_linker_0, # of connection points: 2
#     Edge 35, Type (0, 1), BuildingBlock: OJICUG_clean_linker_0, # of connection points: 2
#     Edge 36, Type (0, 1), BuildingBlock: OJICUG_clean_linker_0, # of connection points: 2
#     Edge 37, Type (0, 1), BuildingBlock: OJICUG_clean_linker_0, # of connection points: 2
#     Edge 38, Type (0, 1), BuildingBlock: OJICUG_clean_linker_0, # of connection points: 2
#     Edge 39, Type (0, 1), BuildingBlock: OJICUG_clean_linker_0, # of connection points: 2
#     Edge 40, Type (0, 1), BuildingBlock: OJICUG_clean_linker_0, # of connection points: 2
#     Edge 41, Type (0, 1), BuildingBlock: OJICUG_clean_linker_0, # of connection points: 2
#     Edge 42, Type (0, 1), BuildingBlock: OJICUG_clean_linker_0, # of connection points: 2
#     Edge 43, Type (0, 1), BuildingBlock: OJICUG_clean_linker_0, # of connection points: 2
#     Edge 44, Type (0, 1), BuildingBlock: OJICUG_clean_linker_0, # of connection points: 2
#     Edge 45, Type (0, 1), BuildingBlock: OJICUG_clean_linker_0, # of connection points: 2
#     Edge 46, Type (0, 1), BuildingBlock: OJICUG_clean_linker_0, # of connection points: 2
#     Edge 47, Type (0, 1), BuildingBlock: OJICUG_clean_linker_0, # of connection points: 2
# Relax obj value: 0.160
# Max RMSD: 0.160
# Mean RMSD: 0.137
data_MOF--net-wbl--node1-QUQFOY_clean_sbu_3--node2-MIFKUJ_clean_linker_1--edge1-OJICUG_clean_linker_0
_symmetry_space_group_name_H-M    P1
_symmetry_Int_Tables_number       1
_symmetry_cell_setting            triclinic
loop_
_symmetry_equiv_pos_as_xyz
'x, y, z'
_cell_length_a     37.111875
_cell_length_b     36.969478
_cell_length_c     57.76583
_cell_angle_alpha  90.830476
_cell_angle_beta   90.344803
_cell_angle_gamma 90.022978
loop_
_atom_site_label
_atom_site_type_symbol
_atom_site_fract_x
_atom_site_fract_y
_atom_site_fract_z
_atom_type_partial_charge
H0 H -0.00253 0.10498 0.36017 0.0
H1 H 0.9577 0.13015 0.38981 0.0
H2 H 0.8719 0.06003 0.36548 0.0
H3 H 0.91213 0.0345 0.33605 0.0
H4 H 0.01243 0.03181 0.36328 0.0
H5 H 0.96731 0.11403 0.30585 0.0
H6 H 0.91545 0.14311 0.28751 0.0
H7 H 0.87898 0.03867 0.26213 0.0
H8 H 0.93101 0.01007 0.28016 0.0
H9 H 0.02521 0.93744 0.28473 0.0
H10 H 0.07297 0.89998 0.26717 0.0
H11 H 0.15209 0.97969 0.28842 0.0
H12 H 0.10466 0.01647 0.30601 0.0
H13 H 0.00469 0.01487 0.27808 0.0
H14 H 0.04778 0.93266 0.33551 0.0
H15 H 0.08315 0.90055 0.36449 0.0
H16 H 0.11483 0.00324 0.39528 0.0
H17 H 0.08179 0.03472 0.36544 0.0
C18 C 0.95779 0.0678 0.34599 0.0
C19 C 0.96975 0.09583 0.36078 0.0
C20 C 0.94691 0.11034 0.37763 0.0
C21 C 0.91177 0.0968 0.38013 0.0
C22 C 0.89898 0.07071 0.36411 0.0
C23 C 0.92183 0.0563 0.34717 0.0
C24 C -0.01569 0.0467 0.33228 0.0
C25 C 0.01138 0.02882 0.34456 0.0
C26 C -0.01845 0.04156 0.30804 0.0
C27 C 0.95285 0.05981 0.29454 0.0
C28 C 0.9483 0.09751 0.29608 0.0
C29 C 0.91858 0.11409 0.28566 0.0
C30 C 0.89287 0.0933 0.2734 0.0
C31 C 0.89845 0.05571 0.27109 0.0
C32 C 0.92818 0.0392 0.28146 0.0
C33 C 0.0615 0.97967 0.29664 0.0
C34 C 0.05282 0.94694 0.28528 0.0
C35 C 0.08007 0.92552 0.27542 0.0
C36 C 0.11619 0.93701 0.27634 0.0
C37 C 0.12446 0.97033 0.28715 0.0
C38 C 0.09744 -0.00867 0.29728 0.0
C39 C 0.03374 0.00088 0.30918 0.0
C40 C 0.00627 0.01846 0.29672 0.0
C41 C 0.03598 0.00583 0.33346 0.0
C42 C 0.0622 0.98618 0.34821 0.0
C43 C 0.06353 0.9482 0.34797 0.0
C44 C 0.08332 0.92983 0.36485 0.0
C45 C 0.10169 0.94911 0.38253 0.0
C46 C 0.10168 0.98719 0.38188 0.0
C47 C 0.08241 0.00542 0.36487 0.0
H48 H -0.01461 0.43407 0.52792 0.0
H49 H 0.9522 0.38139 0.51373 0.0
H50 H 0.85208 0.43271 0.53372 0.0
H51 H 0.88605 0.48463 0.54896 0.0
H52 H -0.01834 0.51465 0.52146 0.0
H53 H 0.96895 0.42012 0.58267 0.0
H54 H 0.94247 0.38313 0.61309 0.0
H55 H 0.8748 0.47293 0.63358 0.0
H56 H 0.9014 0.50966 0.60319 0.0
H57 H 0.01067 0.6115 0.58385 0.0
H58 H 0.04667 0.64273 0.61401 0.0
H59 H 0.09605 0.54111 0.63194 0.0
H60 H 0.06036 0.51028 0.60199 0.0
H61 H -0.01693 0.51533 0.60737 0.0
H62 H -0.01719 0.59809 0.52963 0.0
H63 H 0.01993 0.64655 0.51444 0.0
H64 H 0.11591 0.58561 0.53119 0.0
H65 H 0.07823 0.53798 0.54736 0.0
C66 C 0.93818 0.46318 0.53946 0.0
C67 C 0.95622 0.43428 0.52871 0.0
C68 C 0.93705 0.40414 0.52053 0.0
C69 C 0.89926 0.40243 0.52265 0.0
C70 C 0.88113 0.43259 0.53219 0.0
C71 C 0.90044 0.46254 0.54067 0.0
C72 C 0.95921 0.49108 0.55224 0.0
C73 C -0.01822 0.515 0.54024 0.0
C74 C 0.95897 0.49221 0.57667 0.0
C75 C 0.937 0.46751 0.59071 0.0
C76 C 0.94753 0.43135 0.5932 0.0
C77 C 0.93257 0.41038 0.61066 0.0
C78 C 0.9068 0.42528 0.62581 0.0
C79 C 0.89435 0.46062 0.62206 0.0
C80 C 0.90956 0.48166 0.60476 0.0
C81 C 0.03278 0.5586 0.59086 0.0
C82 C 0.0301 0.59627 0.59382 0.0
C83 C 0.05062 0.61402 0.611 0.0
C84 C 0.07367 0.59414 0.62544 0.0
C85 C 0.07813 0.55693 0.62121 0.0
C86 C 0.05787 0.53935 0.60409 0.0
C87 C 0.00618 0.53802 0.57678 0.0
C88 C -0.01757 0.51554 0.58857 0.0
C89 C 0.00515 0.53873 0.55236 0.0
C90 C 0.02779 0.56457 0.53961 0.0
C91 C 0.01184 0.59491 0.52957 0.0
C92 C 0.03324 0.62258 0.52079 0.0
C93 C 0.07114 0.62028 0.52162 0.0
C94 C 0.08693 0.58875 0.53062 0.0
C95 C 0.06545 0.56128 0.53966 0.0
H96 H 0.49353 0.56324 0.85932 0.0
H97 H 0.46114 0.59686 0.88931 0.0
H98 H 0.36058 0.55185 0.86431 0.0
H99 H 0.39337 0.51782 0.83416 0.0
H100 H 0.49062 0.48793 0.85935 0.0
H101 H 0.45788 0.58769 0.807 0.0
H102 H 0.40914 0.6235 0.78997 0.0
H103 H 0.36439 0.52595 0.75916 0.0
H104 H 0.41323 0.49083 0.7758 0.0
H105 H 0.51837 0.39434 0.79859 0.0
H106 H 0.56767 0.36032 0.78069 0.0
H107 H 0.61819 0.46115 0.7618 0.0
H108 H 0.56801 0.49444 0.77864 0.0
H109 H 0.4886 0.49215 0.77359 0.0
H110 H 0.49532 0.40837 0.85404 0.0
H111 H 0.5327 0.38086 0.88397 0.0
H112 H 0.62316 0.44565 0.86258 0.0
H113 H 0.5854 0.47322 0.83267 0.0
C114 C 0.44586 0.53794 0.84463 0.0
C115 C 0.46443 0.56109 0.86 0.0
C116 C 0.44595 0.58017 0.87715 0.0
C117 C 0.40848 0.5765 0.87928 0.0
C118 C 0.38948 0.55515 0.86296 0.0
C119 C 0.40813 0.53577 0.84577 0.0
C120 C 0.46692 0.51314 0.82959 0.0
C121 C 0.48991 0.48869 0.84057 0.0
C122 C 0.46554 0.51381 0.80515 0.0
C123 C 0.43898 0.53655 0.7928 0.0
C124 C 0.43773 0.57421 0.79632 0.0
C125 C 0.4098 0.59461 0.78664 0.0
C126 C 0.38272 0.5777 0.77319 0.0
C127 C 0.38503 0.54014 0.76901 0.0
C128 C 0.41292 0.51987 0.77862 0.0
C129 C 0.53964 0.44685 0.7899 0.0
C130 C 0.53973 0.40891 0.79006 0.0
C131 C 0.56815 0.38956 0.78 0.0
C132 C 0.5973 0.40784 0.7699 0.0
C133 C 0.5961 0.4459 0.76896 0.0
C134 C 0.56745 0.46513 0.77871 0.0
C135 C 0.51299 0.46771 0.80355 0.0
C136 C 0.4889 0.49119 0.79234 0.0
C137 C 0.51275 0.46591 0.82791 0.0
C138 C 0.53764 0.44278 0.84121 0.0
C139 C 0.52357 0.41564 0.85527 0.0
C140 C 0.54501 0.39987 0.87231 0.0
C141 C 0.58076 0.41138 0.87576 0.0
C142 C 0.5956 0.4365 0.86041 0.0
C143 C 0.57417 0.45208 0.84323 0.0
H144 H 0.48358 0.93546 0.02256 0.0
H145 H 0.4528 0.88317 0.00593 0.0
H146 H 0.35206 0.92138 0.03457 0.0
H147 H 0.38366 0.97347 0.05179 0.0
H148 H 0.47932 0.01032 0.02142 0.0
H149 H 0.46506 0.91352 0.07995 0.0
H150 H 0.43955 0.87494 0.1099 0.0
H151 H 0.37535 0.96478 0.13468 0.0
H152 H 0.40086 0.003 0.10473 0.0
H153 H 0.50971 0.10495 0.08468 0.0
H154 H 0.54713 0.13505 0.11456 0.0
H155 H 0.59522 0.03223 0.13123 0.0
H156 H 0.5579 0.00251 0.10168 0.0
H157 H 0.4807 0.00846 0.10726 0.0
H158 H 0.48225 0.09169 0.02841 0.0
H159 H 0.52043 0.13915 0.01299 0.0
H160 H 0.61519 0.07876 0.03301 0.0
H161 H 0.57644 0.03198 0.04919 0.0
C162 C 0.43601 0.95823 0.03852 0.0
C163 C 0.45471 0.93307 0.02479 0.0
C164 C 0.43691 0.90313 0.01521 0.0
C165 C 0.3998 0.89782 0.01892 0.0
C166 C 0.38071 0.92424 0.03164 0.0
C167 C 0.39867 0.95416 0.04138 0.0
C168 C 0.45657 0.98596 0.05185 0.0
C169 C 0.47934 0.01013 0.04019 0.0
C170 C 0.45638 0.98633 0.07632 0.0
C171 C 0.43474 0.96102 0.09015 0.0
C172 C 0.44456 0.92446 0.09133 0.0
C173 C 0.43016 0.90257 0.10853 0.0
C174 C 0.40569 0.91695 0.12475 0.0
C175 C 0.39386 0.95282 0.12233 0.0
C176 C 0.40848 0.97473 0.10527 0.0
C177 C 0.53093 0.05153 0.0912 0.0
C178 C 0.52904 0.08919 0.09439 0.0
C179 C 0.55041 0.1063 0.11139 0.0
C180 C 0.5736 0.0858 0.12539 0.0
C181 C 0.57716 0.04855 0.12091 0.0
C182 C 0.55598 0.03158 0.10402 0.0
C183 C 0.504 0.03175 0.07694 0.0
C184 C 0.47998 0.00924 0.08847 0.0
C185 C 0.50308 0.03311 0.05256 0.0
C186 C 0.52653 0.0585 0.04001 0.0
C187 C 0.51125 0.08839 0.02905 0.0
C188 C 0.53325 0.11547 0.02014 0.0
C189 C 0.57108 0.11301 0.02179 0.0
C190 C 0.58625 0.08195 0.03176 0.0
C191 C 0.56416 0.05502 0.04086 0.0
H192 H -0.00475 0.58855 0.90653 0.0
H193 H 0.03414 0.61439 0.8771 0.0
H194 H 0.12002 0.54258 0.8977 0.0
H195 H 0.08057 0.51633 0.92687 0.0
H196 H 0.97988 0.51375 0.90205 0.0
H197 H 0.01751 0.59853 0.96546 0.0
H198 H 0.06909 0.63101 0.98208 0.0
H199 H 0.12383 0.52902 0.99207 0.0
H200 H 0.07127 0.49695 0.97657 0.0
H201 H 0.9601 0.42671 0.98189 0.0
H202 H 0.90919 0.39593 1.00054 0.0
H203 H 0.8385 0.48241 0.97964 0.0
H204 H 0.88887 0.51238 0.96075 0.0
H205 H -0.01225 0.504 0.98749 0.0
H206 H 0.93444 0.42037 0.93363 0.0
H207 H 0.89481 0.38843 0.90664 0.0
H208 H 0.87757 0.48822 0.86979 0.0
H209 H 0.91353 0.52035 0.89838 0.0
C210 C 0.03503 0.55055 0.91885 0.0
C211 C 0.0228 0.57909 0.90512 0.0
C212 C 0.04514 0.59396 0.88838 0.0
C213 C 0.08009 0.58032 0.88493 0.0
C214 C 0.0931 0.55338 0.8998 0.0
C215 C 0.07072 0.53859 0.91662 0.0
C216 C 0.00888 0.52984 0.9327 0.0
C217 C -0.01901 0.51211 0.92078 0.0
C218 C 0.01177 0.52643 0.95693 0.0
C219 C 0.04069 0.54543 0.96988 0.0
C220 C 0.04037 0.58327 0.97178 0.0
C221 C 0.07008 0.60177 0.98106 0.0
C222 C 0.10099 0.58278 0.98823 0.0
C223 C 0.10046 0.54466 0.98711 0.0
C224 C 0.07046 0.52618 0.97816 0.0
C225 C 0.92811 0.47175 0.96997 0.0
C226 C 0.93367 0.43911 0.98162 0.0
C227 C 0.90466 0.4215 0.99209 0.0
C228 C 0.87005 0.43691 0.99157 0.0
C229 C 0.86498 0.47013 0.98049 0.0
C230 C 0.89366 0.48725 0.96968 0.0
C231 C 0.9574 0.48894 0.95679 0.0
C232 C -0.01387 0.50579 0.96879 0.0
C233 C 0.95511 0.49173 0.9324 0.0
C234 C 0.927 0.47293 0.9182 0.0
C235 C 0.9208 0.43566 0.92037 0.0
C236 C 0.89866 0.41719 0.90447 0.0
C237 C 0.88325 0.43531 0.88552 0.0
C238 C 0.88825 0.473 0.88413 0.0
C239 C 0.90942 0.49155 0.9004 0.0
H240 H 0.49046 0.57337 0.21754 0.0
H241 H 0.4659 0.6298 0.23334 0.0
H242 H 0.36156 0.57911 0.23984 0.0
H243 H 0.38661 0.52248 0.22392 0.0
H244 H 0.4746 0.4867 0.23868 0.0
H245 H 0.49052 0.55114 0.15432 0.0
H246 H 0.46741 0.59212 0.12539 0.0
H247 H 0.35913 0.57502 0.15043 0.0
H248 H 0.38273 0.53205 0.17865 0.0
H249 H 0.45941 0.40339 0.15353 0.0
H250 H 0.49255 0.36885 0.12421 0.0
H251 H 0.59297 0.4088 0.15293 0.0
H252 H 0.55964 0.44285 0.18237 0.0
H253 H 0.46776 0.47831 0.15295 0.0
H254 H 0.47235 0.38412 0.21089 0.0
H255 H 0.50849 0.33586 0.22772 0.0
H256 H 0.58692 0.41466 0.25142 0.0
H257 H 0.55032 0.46309 0.23447 0.0
C258 C 0.44039 0.54386 0.21979 0.0
C259 C 0.4625 0.57425 0.22282 0.0
C260 C 0.44838 0.60643 0.23185 0.0
C261 C 0.41176 0.60889 0.2379 0.0
C262 C 0.38979 0.57809 0.23523 0.0
C263 C 0.40409 0.54572 0.22634 0.0
C264 C 0.45453 0.5116 0.20754 0.0
C265 C 0.47274 0.48459 0.21997 0.0
C266 C 0.45281 0.5092 0.18316 0.0
C267 C 0.4384 0.5387 0.16869 0.0
C268 C 0.46186 0.5567 0.15384 0.0
C269 C 0.4485 0.58048 0.13739 0.0
C270 C 0.41125 0.5871 0.13547 0.0
C271 C 0.3879 0.5703 0.15119 0.0
C272 C 0.40137 0.5461 0.16758 0.0
C273 C 0.50706 0.42563 0.17011 0.0
C274 C 0.4886 0.4038 0.15392 0.0
C275 C 0.50756 0.38431 0.13709 0.0
C276 C 0.54535 0.3866 0.13602 0.0
C277 C 0.56391 0.40628 0.15337 0.0
C278 C 0.54489 0.42572 0.17025 0.0
C279 C 0.48705 0.45296 0.18392 0.0
C280 C 0.46847 0.47961 0.17174 0.0
C281 C 0.48921 0.45526 0.20832 0.0
C282 C 0.50861 0.42714 0.2215 0.0
C283 C 0.49695 0.39108 0.22013 0.0
C284 C 0.51761 0.36355 0.22982 0.0
C285 C 0.55059 0.37145 0.24092 0.0
C286 C 0.56173 0.40776 0.24289 0.0
C287 C 0.54073 0.43543 0.23341 0.0
H288 H 0.47585 0.90452 0.41878 0.0
H289 H 0.43664 0.87449 0.39014 0.0
H290 H 0.3668 0.9679 0.39029 0.0
H291 H 0.4059 -0.00246 0.41928 0.0
H292 H 0.4978 0.98716 0.40243 0.0
H293 H 0.46105 0.90673 0.46467 0.0
H294 H 0.41071 0.87685 0.48379 0.0
H295 H 0.36587 0.98154 0.5015 0.0
H296 H 0.41667 0.01098 0.48278 0.0
H297 H 0.52326 0.08194 0.4793 0.0
H298 H 0.57495 0.11336 0.49761 0.0
H299 H 0.64383 0.02396 0.4782 0.0
H300 H 0.59266 -0.00674 0.45975 0.0
H301 H 0.49654 0.00414 0.48779 0.0
H302 H 0.54368 0.08336 0.42888 0.0
H303 H 0.58253 0.11082 0.39995 0.0
H304 H 0.60344 0.00466 0.37049 0.0
H305 H 0.56678 0.97759 0.40019 0.0
C306 C 0.44349 0.95303 0.42117 0.0
C307 C 0.45138 0.91791 0.41325 0.0
C308 C 0.42898 0.90083 0.39693 0.0
C309 C 0.39884 0.91901 0.38797 0.0
C310 C 0.38995 0.9534 0.39692 0.0
C311 C 0.41208 0.97024 0.4135 0.0
C312 C 0.47107 0.974 0.43403 0.0
C313 C 0.49796 -0.00941 0.42113 0.0
C314 C 0.47031 0.97891 0.45825 0.0
C315 C 0.44235 0.96103 0.4722 0.0
C316 C 0.44053 0.92314 0.47295 0.0
C317 C 0.41168 0.90612 0.4838 0.0
C318 C 0.38407 0.92671 0.4941 0.0
C319 C 0.38686 0.96475 0.49408 0.0
C320 C 0.41581 0.98171 0.4833 0.0
C321 C 0.5543 0.03534 0.46825 0.0
C322 C 0.54951 0.06916 0.47919 0.0
C323 C 0.57895 0.08709 0.48948 0.0
C324 C 0.61322 0.07092 0.48941 0.0
C325 C 0.61762 0.03682 0.47874 0.0
C326 C 0.58849 0.01931 0.46816 0.0
C327 C 0.5242 0.01686 0.45611 0.0
C328 C 0.49666 0.00078 0.46911 0.0
C329 C 0.52474 0.01179 0.4318 0.0
C330 C 0.55236 0.02836 0.41677 0.0
C331 C 0.5577 0.06597 0.41667 0.0
C332 C 0.57952 0.0817 0.39986 0.0
C333 C 0.59603 0.06011 0.38265 0.0
C334 C 0.59182 0.02231 0.38356 0.0
C335 C 0.57046 0.00668 0.40047 0.0
H336 H 0.00371 0.08087 0.73265 0.0
H337 H 0.97604 0.13628 0.74749 0.0
H338 H 0.87044 0.09206 0.73222 0.0
H339 H 0.89865 0.03725 0.71656 0.0
H340 H -0.00383 0.00357 0.7416 0.0
H341 H 0.97234 0.09259 0.68145 0.0
H342 H 0.94226 0.1301 0.65241 0.0
H343 H 0.87924 0.03793 0.62982 0.0
H344 H 0.90831 0.00084 0.65922 0.0
H345 H 0.97429 0.91451 0.65926 0.0
H346 H 0.0054 0.87844 0.62975 0.0
H347 H 0.10755 0.9206 0.65419 0.0
H348 H 0.07629 0.95649 0.68373 0.0
H349 H 0.97853 0.98721 0.65689 0.0
H350 H -0.01282 0.90204 0.71822 0.0
H351 H 0.02133 0.85286 0.73545 0.0
H352 H 0.10862 0.92675 0.75126 0.0
H353 H 0.07384 0.97626 0.73387 0.0
C354 C 0.95323 0.05514 0.72341 0.0
C355 C 0.97459 0.0829 0.73294 0.0
C356 C 0.95862 0.11457 0.74148 0.0
C357 C 0.92089 0.11889 0.74093 0.0
C358 C 0.89954 0.09005 0.73249 0.0
C359 C 0.91558 0.05855 0.72374 0.0
C360 C 0.97038 0.02453 0.71093 0.0
C361 C -0.00751 0.00017 0.72306 0.0
C362 C 0.96472 0.01927 0.68688 0.0
C363 C 0.94252 0.04388 0.67255 0.0
C364 C 0.95111 0.08079 0.67085 0.0
C365 C 0.93406 0.10216 0.65423 0.0
C366 C 0.90874 0.08668 0.63887 0.0
C367 C 0.89885 0.05034 0.64142 0.0
C368 C 0.91543 0.0292 0.65818 0.0
C369 C 0.02296 0.93824 0.67363 0.0
C370 C 0.00346 0.91518 0.65867 0.0
C371 C 0.02124 0.89475 0.64176 0.0
C372 C 0.05885 0.89716 0.63944 0.0
C373 C 0.07858 0.91801 0.65565 0.0
C374 C 0.06074 0.9385 0.67258 0.0
C375 C 0.00376 0.96622 0.68743 0.0
C376 C -0.01829 -0.00964 0.6755 0.0
C377 C 0.00872 0.97065 0.71154 0.0
C378 C 0.02799 0.9427 0.72485 0.0
C379 C 0.01336 0.90781 0.72583 0.0
C380 C 0.03289 0.87977 0.73577 0.0
C381 C 0.06766 0.88594 0.7448 0.0
C382 C 0.08193 0.92121 0.74439 0.0
C383 C 0.06206 0.9495 0.73464 0.0
C384 C 0.37216 0.65231 0.04916 0.0
O385 O 0.39948 0.65894 0.03678 0.0
Cd386 Cd 0.39848 0.6702 0.99607 0.0
O387 O 0.34041 0.65351 0.04061 0.0
Cd388 Cd 0.31358 0.67058 1.00246 0.0
C389 C 0.35676 0.75173 0.99934 0.0
O390 O 0.35338 0.63092 0.9806 0.0
O391 O 0.31905 0.66439 0.95979 0.0
O392 O 0.26479 0.63016 0.01373 0.0
C393 C 0.34198 0.63907 0.96067 0.0
O394 O 0.38392 0.73369 0.99242 0.0
C395 C 0.23961 0.64933 0.00543 0.0
O396 O 0.32848 0.73581 0.00643 0.0
O397 O 0.24864 0.67936 0.99675 0.0
C398 C 0.3773 0.85703 0.21438 0.0
O399 O 0.40414 0.85587 0.22807 0.0
Cd400 Cd 0.40058 0.83997 0.26783 0.0
O401 O 0.3457 0.84982 0.22156 0.0
Cd402 Cd 0.31733 0.8317 0.25893 0.0
C403 C 0.36586 0.75436 0.25979 0.0
O404 O 0.35135 0.87256 0.28417 0.0
O405 O 0.32341 0.82973 0.30152 0.0
O406 O 0.27176 0.87515 0.24804 0.0
C407 C 0.34094 0.85912 0.30302 0.0
O408 O 0.39123 0.77503 0.26682 0.0
C409 C 0.24465 0.85713 0.25449 0.0
O410 O 0.33548 0.76749 0.25369 0.0
O411 O 0.25082 0.82543 0.26184 0.0
C412 C 0.14764 0.89347 0.47023 0.0
O413 O 0.15155 0.91894 0.48499 0.0
Cd414 Cd 0.16034 0.91155 0.52554 0.0
O415 O 0.14961 0.86046 0.47626 0.0
Cd416 Cd 0.1649 0.82953 0.51344 0.0
C417 C 0.24367 0.87594 0.51951 0.0
O418 O 0.12214 0.86315 0.53701 0.0
O419 O 0.16096 0.8323 0.55625 0.0
O420 O 0.12616 0.78086 0.49865 0.0
C421 C 0.13206 0.85054 0.55627 0.0
O422 O 0.22457 0.90083 0.52864 0.0
C423 C 0.14484 0.75518 0.50676 0.0
O424 O 0.22891 0.84775 0.51067 0.0
O425 O 0.17431 0.76386 0.51668 0.0
C426 C 0.14177 0.61504 0.79654 0.0
O427 O 0.14551 0.58874 0.78236 0.0
Cd428 Cd 0.16011 0.59348 0.7423 0.0
O429 O 0.14645 0.64756 0.79001 0.0
Cd430 Cd 0.16408 0.67871 0.7535 0.0
C431 C 0.24308 0.6323 0.75009 0.0
O432 O 0.12471 0.64242 0.7291 0.0
O433 O 0.16013 0.67718 0.71031 0.0
O434 O 0.12251 0.72515 0.76692 0.0
C435 C 0.13424 0.6548 0.70981 0.0
O436 O 0.22415 0.60627 0.74203 0.0
C437 C 0.14129 0.75201 0.7608 0.0
O438 O 0.22833 0.66133 0.7576 0.0
O439 O 0.17211 0.745 0.75234 0.0
C440 C 0.85143 0.12446 0.47027 0.0
O441 O 0.85159 0.09735 0.48355 0.0
Cd442 Cd 0.83771 0.09722 0.52375 0.0
O443 O 0.84318 0.15595 0.47795 0.0
Cd444 Cd 0.82366 0.18436 0.51563 0.0
C445 C 0.75055 0.12848 0.51717 0.0
O446 O 0.86612 0.15014 0.53807 0.0
O447 O 0.82962 0.18173 0.55869 0.0
O448 O 0.85883 0.23554 0.50208 0.0
C449 C 0.85623 0.1603 0.558 0.0
O450 O 0.77279 0.10404 0.52311 0.0
C451 C 0.83825 0.25986 0.51031 0.0
O452 O 0.76147 0.16009 0.51193 0.0
O453 O 0.80966 0.24919 0.52013 0.0
C454 C 0.87333 0.36714 0.71534 0.0
O455 O 0.8989 0.36723 0.73002 0.0
Cd456 Cd 0.89225 0.35089 0.76952 0.0
O457 O 0.84165 0.35775 0.72125 0.0
Cd458 Cd 0.81328 0.3358 0.75774 0.0
C459 C 0.86754 0.26306 0.76003 0.0
O460 O 0.83955 0.3804 0.78428 0.0
O461 O 0.81892 0.33254 0.80036 0.0
O462 O 0.76082 0.36999 0.74502 0.0
C463 C 0.83017 0.36475 0.80261 0.0
O464 O 0.89017 0.28497 0.76914 0.0
C465 C 0.73752 0.34784 0.75228 0.0
O466 O 0.83755 0.27447 0.7521 0.0
O467 O 0.74936 0.31876 0.76096 0.0
C468 C 0.63482 0.38195 0.96713 0.0
O469 O 0.63356 0.4087 0.98113 0.0
Cd470 Cd 0.64536 0.40574 0.0216 0.0
O471 O 0.64289 0.35045 0.97429 0.0
Cd472 Cd 0.66013 0.32291 0.01223 0.0
C473 C 0.73319 0.37772 0.01681 0.0
O474 O 0.61386 0.3538 0.03457 0.0
O475 O 0.6544 0.32707 0.05489 0.0
O476 O 0.62502 0.27222 0.99698 0.0
C477 C 0.62432 0.34324 0.05424 0.0
O478 O 0.7105 0.40152 0.02333 0.0
C479 C 0.64404 0.2476 0.006 0.0
O480 O 0.72263 0.34639 0.01013 0.0
O481 O 0.67239 0.25775 0.01672 0.0
C482 C 0.65176 0.10902 0.29581 0.0
O483 O 0.65895 0.08308 0.28195 0.0
Cd484 Cd 0.67046 0.08848 0.24152 0.0
O485 O 0.65157 0.14166 0.28893 0.0
Cd486 Cd 0.66584 0.17326 0.25202 0.0
C487 C 0.74925 0.13444 0.24825 0.0
O488 O 0.62962 0.13299 0.22815 0.0
O489 O 0.66175 0.17043 0.20897 0.0
O490 O 0.61917 0.21534 0.26443 0.0
C491 C 0.63763 0.14614 0.20877 0.0
O492 O 0.7328 0.10688 0.24003 0.0
C493 C 0.63517 0.24395 0.2583 0.0
O494 O 0.73178 0.1618 0.25596 0.0
O495 O 0.66694 0.24015 0.25049 0.0
C496 C 0.14895 0.87758 0.2733 0.0
C497 C 0.1458 0.91409 0.26709 0.0
H498 H 0.18284 0.83055 0.27408 0.0
C499 C 0.17322 0.92973 0.25391 0.0
H500 H 0.12824 0.86487 0.28353 0.0
C501 C 0.20424 0.91016 0.24842 0.0
C502 C 0.20872 0.87451 0.25611 0.0
H503 H 0.17127 0.95765 0.24859 0.0
H504 H 0.2255 0.92368 0.23913 0.0
C505 C 0.18022 0.85795 0.26791 0.0
C506 C 0.12501 0.66098 0.52777 0.0
C507 C 0.09373 0.65193 0.51501 0.0
H508 H 0.16611 0.70036 0.53483 0.0
C509 C 0.08256 0.67528 0.4973 0.0
H510 H 0.13435 0.64408 0.54173 0.0
C511 C 0.10047 0.708 0.49368 0.0
C512 C 0.13037 0.71788 0.50739 0.0
H513 H 0.05922 0.66887 0.48667 0.0
H514 H 0.09008 0.72616 0.4807 0.0
C515 C 0.14326 0.69343 0.52388 0.0
C516 C 0.33407 0.58875 0.74371 0.0
C517 C 0.35058 0.5981 0.76494 0.0
H518 H 0.28704 0.59264 0.72229 0.0
C519 C 0.33379 0.62413 0.7793 0.0
H520 H 0.34666 0.56964 0.7319 0.0
C521 C 0.29989 0.63808 0.77344 0.0
C522 C 0.28205 0.62587 0.75329 0.0
H523 H 0.34558 0.63188 0.79583 0.0
H524 H 0.28649 0.65613 0.78556 0.0
C525 C 0.30005 0.60219 0.73808 0.0
C526 C 0.35755 0.84565 0.02571 0.0
C527 C 0.38239 0.86323 0.01133 0.0
H528 H 0.32926 0.79646 0.03289 0.0
C529 C 0.39362 0.84543 0.99093 0.0
H530 H 0.34845 0.85831 0.04165 0.0
C531 C 0.38321 0.80978 0.98625 0.0
C532 C 0.36063 0.79138 1.00153 0.0
H533 H 0.41185 0.85843 0.97908 0.0
H534 H 0.39412 0.79604 0.97114 0.0
C535 C 0.34655 0.81012 0.02074 0.0
C536 C 0.15839 0.58837 0.01168 0.0
C537 C 0.13458 0.60253 0.99505 0.0
H538 H 0.21021 0.59214 0.0281 0.0
C539 C 0.14444 0.63448 0.9837 0.0
H540 H 0.15147 0.56431 0.02116 0.0
C541 C 0.17776 0.65089 0.98811 0.0
C542 C 0.20228 0.63547 1.00371 0.0
H543 H 0.12724 0.646 0.97052 0.0
H544 H 0.18501 0.67461 0.97838 0.0
C545 C 0.19196 0.6045 0.01583 0.0
C546 C 0.36408 0.65743 0.23706 0.0
C547 C 0.39672 0.64406 0.24607 0.0
H548 H 0.3284 0.70293 0.23439 0.0
C549 C 0.41652 0.66584 0.26166 0.0
H550 H 0.34829 0.6413 0.22492 0.0
C551 C 0.40525 0.70093 0.26701 0.0
C552 C 0.37383 0.71524 0.25692 0.0
H553 H 0.44136 0.65607 0.26927 0.0
H554 H 0.42193 0.7173 0.2785 0.0
C555 C 0.35271 0.69273 0.24245 0.0
C556 C 0.33516 0.87958 0.49132 0.0
C557 C 0.35114 0.90901 0.50327 0.0
H558 H 0.28876 0.84548 0.48736 0.0
C559 C 0.33359 0.92342 0.52282 0.0
H560 H 0.34775 0.86792 0.47609 0.0
C561 C 0.29963 0.91076 0.52912 0.0
C562 C 0.28252 0.88316 0.51615 0.0
H563 H 0.3455 0.94545 0.53278 0.0
H564 H 0.28606 0.92376 0.54356 0.0
C565 C 0.30127 0.86667 0.49777 0.0
C566 C 0.12503 0.84985 0.74525 0.0
C567 C 0.08943 0.85479 0.75289 0.0
H568 H 0.16966 0.81336 0.74191 0.0
C569 C 0.07334 0.82758 0.76606 0.0
H570 H 0.13809 0.87025 0.73496 0.0
C571 C 0.09132 0.79505 0.76998 0.0
C572 C 0.12582 0.78896 0.76082 0.0
H573 H 0.04617 0.83086 0.77251 0.0
H574 H 0.07739 0.774 0.77924 0.0
C575 C 0.14307 0.8172 0.74917 0.0
C576 C 0.65157 0.40082 0.74413 0.0
C577 C 0.63033 0.38794 0.76238 0.0
H578 H 0.7022 0.39813 0.72657 0.0
C579 C 0.6429 0.35801 0.77491 0.0
H580 H 0.64245 0.42309 0.73364 0.0
C581 C 0.67676 0.34302 0.77034 0.0
C582 C 0.69906 0.358 0.75344 0.0
H583 H 0.62769 0.34746 0.78925 0.0
H584 H 0.68643 0.32133 0.78116 0.0
C585 C 0.6857 0.38629 0.73989 0.0
C586 C 0.62437 0.15425 0.02841 0.0
C587 C 0.59412 0.14415 0.01494 0.0
H588 H 0.6644 0.19462 0.03581 0.0
C589 C 0.58417 0.16613 0.99627 0.0
H590 H 0.63274 0.13832 0.04307 0.0
C591 C 0.60203 0.19876 0.99239 0.0
C592 C 0.63064 0.20993 0.00684 0.0
H593 H 0.56167 0.15882 0.98514 0.0
H594 H 0.59242 0.21599 0.97865 0.0
C595 C 0.64257 0.18667 0.02429 0.0
C596 C 0.84331 0.09715 0.24372 0.0
C597 C 0.85902 0.1099 0.26448 0.0
H598 H 0.79634 0.09553 0.22211 0.0
C599 C 0.84026 0.13598 0.27774 0.0
H600 H 0.85733 0.07783 0.23275 0.0
C601 C 0.80544 0.14675 0.27133 0.0
C602 C 0.78865 0.13135 0.2517 0.0
H603 H 0.85142 0.1463 0.29389 0.0
H604 H 0.79072 0.16493 0.28271 0.0
C605 C 0.80847 0.10756 0.23749 0.0
C606 C 0.89159 0.34492 0.49903 0.0
C607 C 0.87959 0.36814 0.51692 0.0
H608 H 0.88789 0.29249 0.48289 0.0
C609 C 0.85062 0.3567 0.53069 0.0
H610 H 0.91313 0.35301 0.48766 0.0
C611 C 0.83549 0.32231 0.52748 0.0
C612 C 0.84935 0.29831 0.51072 0.0
H613 H 0.84082 0.37343 0.54483 0.0
H614 H 0.81441 0.31377 0.53908 0.0
C615 C 0.8769 0.31029 0.49613 0.0
C616 C 0.66745 0.06985 0.51495 0.0
C617 C 0.64491 0.08918 0.50001 0.0
H618 H 0.71798 0.06759 0.5326 0.0
C619 C 0.65504 0.12419 0.49342 0.0
H620 H 0.65999 0.04304 0.52055 0.0
C621 C 0.68859 0.1384 0.50025 0.0
C622 C 0.71234 0.11778 0.5138 0.0
H623 H 0.63805 0.13959 0.48187 0.0
H624 H 0.69673 0.1645 0.49379 0.0
C625 C 0.70067 0.08402 0.52184 0.0
C626 C 0.91917 0.1754 0.76574 0.0
C627 C 0.90427 0.15416 0.7477 0.0
H628 H 0.91915 0.22629 0.78383 0.0
C629 C 0.87481 0.16803 0.73515 0.0
H630 H 0.94128 0.16537 0.77614 0.0
C631 C 0.86161 0.20277 0.73991 0.0
C632 C 0.87788 0.22461 0.7571 0.0
H633 H 0.86289 0.15275 0.72092 0.0
H634 H 0.83979 0.21312 0.72937 0.0
C635 C 0.90631 0.21027 0.77027 0.0
C636 C 0.81529 0.43791 0.01632 0.0
C637 C 0.83858 0.41844 1.00175 0.0
H638 H 0.76428 0.43987 0.03305 0.0
C639 C 0.82928 0.38298 0.99491 0.0
H640 H 0.82207 0.46512 0.02206 0.0
C641 C 0.79582 0.36839 1.00107 0.0
C642 C 0.77133 0.38904 0.01425 0.0
H643 H 0.84682 0.36747 0.98361 0.0
H644 H 0.78836 0.34188 0.9944 0.0
C645 C 0.78217 0.42334 0.0226 0.0
C646 C 0.61081 0.34047 0.24325 0.0
C647 C 0.57401 0.34141 0.24892 0.0
H648 H 0.65926 0.30891 0.24188 0.0
C649 C 0.55896 0.31175 0.26033 0.0
H650 H 0.62314 0.36284 0.23433 0.0
C651 C 0.57961 0.28097 0.2647 0.0
C652 C 0.61578 0.27902 0.25765 0.0
H653 H 0.53083 0.31188 0.26522 0.0
H654 H 0.56668 0.25806 0.27267 0.0
C655 C 0.63149 0.30953 0.24753 0.0
C656 C 0.10104 0.8995 0.41214 0.0
C657 C 0.11775 0.93029 0.40283 0.0
H658 H 0.09797 0.86318 0.44078 0.0
C659 C 0.14757 0.94535 0.41467 0.0
H660 H 0.07782 0.88725 0.40375 0.0
C661 C 0.15816 0.93225 0.43619 0.0
C662 C 0.14004 0.903 0.44602 0.0
H663 H 0.16197 0.96823 0.40777 0.0
H664 H 0.17997 0.94564 0.44547 0.0
C665 C 0.11239 0.88574 0.43345 0.0
C666 C 0.08371 0.5938 0.668 0.0
C667 C 0.08943 0.61062 0.6467 0.0
H668 H 0.09308 0.59471 0.70446 0.0
C669 C 0.10964 0.64273 0.64617 0.0
H670 H 0.06777 0.5693 0.66893 0.0
C671 C 0.12457 0.65726 0.66666 0.0
C672 C 0.11882 0.64022 0.68795 0.0
H673 H 0.11429 0.6562 0.62993 0.0
H674 H 0.14038 0.68184 0.66587 0.0
C675 C 0.09804 0.6085 0.68837 0.0
C676 C 0.40491 0.5861 0.92192 0.0
C677 C 0.39029 0.59214 0.89984 0.0
H678 H 0.40097 0.59588 0.95831 0.0
C679 C 0.35886 0.61304 0.89779 0.0
H680 H 0.42882 0.56963 0.92401 0.0
C681 C 0.34291 0.62843 0.91755 0.0
C682 C 0.35787 0.62259 0.93963 0.0
H683 H 0.3471 0.61802 0.88093 0.0
H684 H 0.31897 0.64486 0.91556 0.0
C685 C 0.38881 0.60099 0.94158 0.0
C686 C 0.42454 0.88067 0.15883 0.0
C687 C 0.39675 0.89683 0.14601 0.0
H688 H 0.44015 0.85558 0.19042 0.0
C689 C 0.36165 0.89709 0.15505 0.0
H690 H 0.45196 0.88046 0.15249 0.0
C691 C 0.3548 0.88263 0.17688 0.0
C692 C 0.38309 0.86826 0.19019 0.0
H693 H 0.33971 0.90931 0.14551 0.0
H694 H 0.32773 0.88413 0.18373 0.0
C695 C 0.41783 0.86673 0.18069 0.0
C696 C 0.10111 0.62656 0.85634 0.0
C697 C 0.10062 0.59062 0.86402 0.0
H698 H 0.11492 0.66268 0.82905 0.0
C699 C 0.1166 0.56357 0.85019 0.0
H700 H 0.08921 0.64803 0.8667 0.0
C701 C 0.13108 0.57187 0.82868 0.0
C702 C 0.13015 0.60748 0.82048 0.0
H703 H 0.11627 0.53555 0.85541 0.0
H704 H 0.14208 0.55007 0.81817 0.0
C705 C 0.11593 0.63495 0.83482 0.0
C706 C 0.41754 0.6373 0.1068 0.0
C707 C 0.39716 0.60861 0.11571 0.0
H708 H 0.42568 0.6734 0.07867 0.0
C709 C 0.36541 0.59808 0.10391 0.0
H710 H 0.4415 0.64698 0.11571 0.0
C711 C 0.35578 0.61411 0.08296 0.0
C712 C 0.37803 0.64047 0.0732 0.0
H713 H 0.34912 0.57594 0.11005 0.0
H714 H 0.33225 0.60417 0.07366 0.0
C715 C 0.40837 0.65267 0.08565 0.0
C716 C 0.36859 0.86811 0.36608 0.0
C717 C 0.38004 0.90432 0.36722 0.0
H718 H 0.34644 0.82543 0.34482 0.0
C719 C 0.37659 0.9259 0.34753 0.0
H720 H 0.37108 0.85095 0.38105 0.0
C721 C 0.36324 0.91124 0.32682 0.0
C722 C 0.35252 0.87485 0.32547 0.0
H723 H 0.38566 0.95377 0.34787 0.0
H724 H 0.36181 0.92829 0.31174 0.0
C725 C 0.35451 0.85359 0.34541 0.0
C726 C 0.11028 0.86467 0.61987 0.0
C727 C 0.07668 0.88209 0.61851 0.0
H728 H 0.15413 0.84053 0.60118 0.0
C729 C 0.06106 0.88766 0.59663 0.0
H730 H 0.12289 0.85998 0.63652 0.0
C731 C 0.07893 0.87688 0.57654 0.0
C732 C 0.11278 0.86008 0.57781 0.0
H733 H 0.03551 0.90157 0.59496 0.0
H734 H 0.06637 0.8822 0.55996 0.0
C735 C 0.12808 0.85352 0.59968 0.0
C736 C 0.61545 0.42967 0.9111 0.0
C737 C 0.59999 0.40195 0.89744 0.0
H738 H 0.63844 0.44501 0.94378 0.0
C739 C 0.59912 0.3666 0.90612 0.0
H740 H 0.61608 0.45728 0.90507 0.0
C741 C 0.61215 0.35949 0.92842 0.0
C742 C 0.6256 0.38777 0.94253 0.0
H743 H 0.58738 0.34472 0.89593 0.0
H744 H 0.61009 0.33228 0.93499 0.0
C745 C 0.62792 0.42271 0.93341 0.0
C746 C 0.58692 0.08429 0.1676 0.0
C747 C 0.5907 0.10184 0.14636 0.0
H748 H 0.59857 0.08459 0.20379 0.0
C749 C 0.61002 0.1345 0.14565 0.0
H750 H 0.57165 0.05939 0.16872 0.0
C751 C 0.62579 0.14897 0.16588 0.0
C752 C 0.62184 0.13127 0.18712 0.0
H753 H 0.61323 0.14855 0.12946 0.0
H754 H 0.64071 0.17408 0.16496 0.0
C755 C 0.60216 0.09887 0.18773 0.0
C756 C 0.87566 0.07741 0.41405 0.0
C757 C 0.89108 0.10559 0.40141 0.0
H758 H 0.85112 0.06135 0.44561 0.0
C759 C 0.89026 0.14095 0.41073 0.0
H760 H 0.87627 0.04979 0.40755 0.0
C761 C 0.87572 0.14765 0.43272 0.0
C762 C 0.86229 0.11897 0.44586 0.0
H763 H 0.90182 0.16322 0.40132 0.0
H764 H 0.87652 0.17491 0.43982 0.0
C765 C 0.86159 0.08399 0.43603 0.0
C766 C 0.9243 0.3921 0.66143 0.0
C767 C 0.89695 0.40634 0.64734 0.0
H768 H 0.93825 0.36881 0.69389 0.0
C769 C 0.86115 0.40551 0.65517 0.0
H770 H 0.9522 0.39285 0.65604 0.0
C771 C 0.85306 0.39146 0.67695 0.0
C772 C 0.88075 0.37871 0.69141 0.0
H773 H 0.83957 0.41633 0.64464 0.0
H774 H 0.82538 0.39184 0.68278 0.0
C775 C 0.91633 0.37866 0.68324 0.0
C776 C 0.64347 0.05839 0.35172 0.0
C777 C 0.61469 0.07657 0.36256 0.0
H778 H 0.67747 0.05432 0.322 0.0
C779 C 0.60146 0.10847 0.3525 0.0
H780 H 0.65517 0.03442 0.35924 0.0
C781 C 0.61513 0.12049 0.33141 0.0
C782 C 0.64175 0.10046 0.3198 0.0
H783 H 0.57913 0.1231 0.36014 0.0
H784 H 0.60329 0.14413 0.32353 0.0
C785 C 0.65647 0.0699 0.33044 0.0
C786 C 0.87749 0.13975 0.62086 0.0
C787 C 0.8958 0.10669 0.61851 0.0
H788 H 0.84993 0.18266 0.60336 0.0
C789 C 0.9019 0.09218 0.59631 0.0
H790 H 0.87262 0.15141 0.63786 0.0
C791 C 0.88968 0.11014 0.57674 0.0
C792 C 0.87052 0.14275 0.57895 0.0
H793 H 0.9163 0.06688 0.59409 0.0
H794 H 0.89467 0.09804 0.55987 0.0
C795 C 0.86454 0.15749 0.60119 0.0
C796 C 0.83928 0.43173 0.85197 0.0
C797 C 0.86526 0.4149 0.86611 0.0
H798 H 0.80853 0.42919 0.82039 0.0
C799 C 0.87643 0.37952 0.86009 0.0
H800 H 0.82891 0.45832 0.85625 0.0
C801 C 0.86327 0.3623 0.84007 0.0
C802 C 0.83951 0.38042 0.82533 0.0
H803 H 0.89676 0.36562 0.87008 0.0
H804 H 0.87329 0.33566 0.83541 0.0
C805 C 0.82718 0.41497 0.83153 0.0
C806 C 0.55047 0.37855 0.09316 0.0
C807 C 0.56477 0.37256 0.11536 0.0
H808 H 0.55805 0.37412 0.05662 0.0
C809 C 0.59856 0.35565 0.11737 0.0
H810 H 0.52485 0.39213 0.09096 0.0
C811 C 0.61781 0.34541 0.09754 0.0
C812 C 0.60372 0.35225 0.07537 0.0
H813 H 0.6102 0.35058 0.13425 0.0
H814 H 0.64393 0.33275 0.09957 0.0
C815 C 0.5697 0.36855 0.07343 0.0
loop_
_geom_bond_atom_site_label_1
_geom_bond_atom_site_label_2
_geom_bond_distance
_geom_bond_site_symmetry_2
_ccdc_geom_bond_type
H0 C19 0.949 . S
H1 C20 0.950 . S
H2 C22 0.950 . S
H3 C23 0.950 . S
H4 C25 0.950 . S
H5 C28 0.950 . S
H6 C29 0.950 . S
H7 C31 0.951 . S
H8 C32 0.949 . S
H9 C34 0.949 . S
H10 C35 0.950 . S
H11 C37 0.950 . S
H12 C38 0.950 . S
H13 C40 0.950 . S
H14 C43 0.950 . S
H15 C44 0.950 . S
H16 C46 0.951 . S
H17 C47 0.949 1_545 S
C18 C19 1.376 . S
C18 C23 1.386 . S
C18 C24 1.483 . S
C19 H0 0.949 . S
C19 C18 1.376 . S
C19 C20 1.397 . S
C20 H1 0.950 . S
C20 C19 1.397 . S
C20 C21 1.391 . S
C21 C20 1.391 . S
C21 C22 1.405 . S
C22 H2 0.950 . S
C22 C21 1.405 . S
C22 C23 1.367 . S
C23 H3 0.950 . S
C23 C18 1.386 . S
C23 C22 1.367 . S
C24 C18 1.483 . S
C24 C25 1.382 1_655 S
C24 C26 1.403 . S
C25 H4 0.950 . S
C25 C24 1.382 1_455 S
C25 C41 1.411 1_545 S
C26 C24 1.403 . S
C26 C27 1.489 . S
C26 C40 1.411 1_655 S
C27 C26 1.489 . S
C27 C28 1.383 . S
C27 C32 1.382 . S
C28 H5 0.950 . S
C28 C27 1.383 . S
C28 C29 1.395 . S
C29 H6 0.950 . S
C29 C28 1.395 . S
C29 C30 1.288 . S
C30 C29 1.288 . S
C30 C31 1.392 . S
C31 H7 0.951 . S
C31 C30 1.392 . S
C31 C32 1.392 . S
C32 H8 0.949 . S
C32 C27 1.382 . S
C32 C31 1.392 . S
C33 C34 1.376 . S
C33 C38 1.386 . S
C33 C39 1.483 . S
C34 H9 0.949 . S
C34 C33 1.376 . S
C34 C35 1.397 . S
C35 H10 0.950 . S
C35 C34 1.397 . S
C35 C36 1.391 . S
C36 C35 1.391 . S
C36 C37 1.405 . S
C37 H11 0.950 . S
C37 C36 1.405 . S
C37 C38 1.367 . S
C38 H12 0.950 . S
C38 C33 1.386 . S
C38 C37 1.367 . S
C39 C33 1.483 . S
C39 C40 1.382 1_565 S
C39 C41 1.403 . S
C40 H13 0.950 . S
C40 C26 1.411 1_455 S
C40 C39 1.382 1_545 S
C41 C25 1.411 1_565 S
C41 C39 1.403 . S
C41 C42 1.489 . S
C42 C41 1.489 . S
C42 C43 1.383 . S
C42 C47 1.382 . S
C43 H14 0.950 . S
C43 C42 1.383 . S
C43 C44 1.395 . S
C44 H15 0.950 . S
C44 C43 1.395 . S
C44 C45 1.288 . S
C45 C44 1.288 . S
C45 C46 1.392 . S
C46 H16 0.951 . S
C46 C45 1.392 . S
C46 C47 1.392 . S
C47 H17 0.949 1_565 S
C47 C42 1.382 . S
C47 C46 1.392 . S
H48 C67 0.949 1_455 S
H49 C68 0.950 . S
H50 C70 0.950 . S
H51 C71 0.950 . S
H52 C73 0.950 . S
H53 C76 0.950 . S
H54 C77 0.950 . S
H55 C79 0.951 . S
H56 C80 0.949 . S
H57 C82 0.949 . S
H58 C83 0.950 . S
H59 C85 0.950 . S
H60 C86 0.950 . S
H61 C88 0.950 . S
H62 C91 0.950 . S
H63 C92 0.950 . S
H64 C94 0.951 . S
H65 C95 0.949 . S
C66 C67 1.376 . S
C66 C71 1.386 . S
C66 C72 1.483 . S
C67 H48 0.949 1_655 S
C67 C66 1.376 . S
C67 C68 1.397 . S
C68 H49 0.950 . S
C68 C67 1.397 . S
C68 C69 1.391 . S
C69 C68 1.391 . S
C69 C70 1.405 . S
C70 H50 0.950 . S
C70 C69 1.405 . S
C70 C71 1.367 . S
C71 H51 0.950 . S
C71 C66 1.386 . S
C71 C70 1.367 . S
C72 C66 1.483 . S
C72 C73 1.382 1_655 S
C72 C74 1.403 . S
C73 H52 0.950 . S
C73 C72 1.382 1_455 S
C73 C89 1.411 . S
C74 C72 1.403 . S
C74 C75 1.489 . S
C74 C88 1.411 1_655 S
C75 C74 1.489 . S
C75 C76 1.383 . S
C75 C80 1.382 . S
C76 H53 0.950 . S
C76 C75 1.383 . S
C76 C77 1.395 . S
C77 H54 0.950 . S
C77 C76 1.395 . S
C77 C78 1.288 . S
C78 C77 1.288 . S
C78 C79 1.392 . S
C79 H55 0.951 . S
C79 C78 1.392 . S
C79 C80 1.392 . S
C80 H56 0.949 . S
C80 C75 1.382 . S
C80 C79 1.392 . S
C81 C82 1.376 . S
C81 C86 1.386 . S
C81 C87 1.483 . S
C82 H57 0.949 . S
C82 C81 1.376 . S
C82 C83 1.397 . S
C83 H58 0.950 . S
C83 C82 1.397 . S
C83 C84 1.391 . S
C84 C83 1.391 . S
C84 C85 1.405 . S
C85 H59 0.950 . S
C85 C84 1.405 . S
C85 C86 1.367 . S
C86 H60 0.950 . S
C86 C81 1.386 . S
C86 C85 1.367 . S
C87 C81 1.483 . S
C87 C88 1.382 . S
C87 C89 1.403 . S
C88 H61 0.950 . S
C88 C74 1.411 1_455 S
C88 C87 1.382 . S
C89 C73 1.411 . S
C89 C87 1.403 . S
C89 C90 1.489 . S
C90 C89 1.489 . S
C90 C91 1.383 . S
C90 C95 1.382 . S
C91 H62 0.950 . S
C91 C90 1.383 . S
C91 C92 1.395 . S
C92 H63 0.950 . S
C92 C91 1.395 . S
C92 C93 1.288 . S
C93 C92 1.288 . S
C93 C94 1.392 . S
C94 H64 0.951 . S
C94 C93 1.392 . S
C94 C95 1.392 . S
C95 H65 0.949 . S
C95 C90 1.382 . S
C95 C94 1.392 . S
H96 C115 0.949 . S
H97 C116 0.950 . S
H98 C118 0.950 . S
H99 C119 0.950 . S
H100 C121 0.950 . S
H101 C124 0.950 . S
H102 C125 0.950 . S
H103 C127 0.951 . S
H104 C128 0.949 . S
H105 C130 0.949 . S
H106 C131 0.950 . S
H107 C133 0.950 . S
H108 C134 0.950 . S
H109 C136 0.950 . S
H110 C139 0.950 . S
H111 C140 0.950 . S
H112 C142 0.951 . S
H113 C143 0.949 . S
C114 C115 1.376 . S
C114 C119 1.386 . S
C114 C120 1.483 . S
C115 H96 0.949 . S
C115 C114 1.376 . S
C115 C116 1.397 . S
C116 H97 0.950 . S
C116 C115 1.397 . S
C116 C117 1.391 . S
C117 C116 1.391 . S
C117 C118 1.405 . S
C118 H98 0.950 . S
C118 C117 1.405 . S
C118 C119 1.367 . S
C119 H99 0.950 . S
C119 C114 1.386 . S
C119 C118 1.367 . S
C120 C114 1.483 . S
C120 C121 1.382 . S
C120 C122 1.403 . S
C121 H100 0.950 . S
C121 C120 1.382 . S
C121 C137 1.411 . S
C122 C120 1.403 . S
C122 C123 1.489 . S
C122 C136 1.411 . S
C123 C122 1.489 . S
C123 C124 1.383 . S
C123 C128 1.382 . S
C124 H101 0.950 . S
C124 C123 1.383 . S
C124 C125 1.395 . S
C125 H102 0.950 . S
C125 C124 1.395 . S
C125 C126 1.288 . S
C126 C125 1.288 . S
C126 C127 1.392 . S
C127 H103 0.951 . S
C127 C126 1.392 . S
C127 C128 1.392 . S
C128 H104 0.949 . S
C128 C123 1.382 . S
C128 C127 1.392 . S
C129 C130 1.376 . S
C129 C134 1.386 . S
C129 C135 1.483 . S
C130 H105 0.949 . S
C130 C129 1.376 . S
C130 C131 1.397 . S
C131 H106 0.950 . S
C131 C130 1.397 . S
C131 C132 1.391 . S
C132 C131 1.391 . S
C132 C133 1.405 . S
C133 H107 0.950 . S
C133 C132 1.405 . S
C133 C134 1.367 . S
C134 H108 0.950 . S
C134 C129 1.386 . S
C134 C133 1.367 . S
C135 C129 1.483 . S
C135 C136 1.382 . S
C135 C137 1.403 . S
C136 H109 0.950 . S
C136 C122 1.411 . S
C136 C135 1.382 . S
C137 C121 1.411 . S
C137 C135 1.403 . S
C137 C138 1.489 . S
C138 C137 1.489 . S
C138 C139 1.383 . S
C138 C143 1.382 . S
C139 H110 0.950 . S
C139 C138 1.383 . S
C139 C140 1.395 . S
C140 H111 0.950 . S
C140 C139 1.395 . S
C140 C141 1.288 . S
C141 C140 1.288 . S
C141 C142 1.392 . S
C142 H112 0.951 . S
C142 C141 1.392 . S
C142 C143 1.392 . S
C143 H113 0.949 . S
C143 C138 1.382 . S
C143 C142 1.392 . S
H144 C163 0.949 . S
H145 C164 0.950 . S
H146 C166 0.950 . S
H147 C167 0.950 . S
H148 C169 0.950 . S
H149 C172 0.950 . S
H150 C173 0.950 . S
H151 C175 0.951 . S
H152 C176 0.949 . S
H153 C178 0.949 . S
H154 C179 0.950 . S
H155 C181 0.950 . S
H156 C182 0.950 . S
H157 C184 0.950 . S
H158 C187 0.950 . S
H159 C188 0.950 . S
H160 C190 0.951 . S
H161 C191 0.949 . S
C162 C163 1.376 . S
C162 C167 1.386 . S
C162 C168 1.483 . S
C163 H144 0.949 . S
C163 C162 1.376 . S
C163 C164 1.397 . S
C164 H145 0.950 . S
C164 C163 1.397 . S
C164 C165 1.391 . S
C165 C164 1.391 . S
C165 C166 1.405 . S
C166 H146 0.950 . S
C166 C165 1.405 . S
C166 C167 1.367 . S
C167 H147 0.950 . S
C167 C162 1.386 . S
C167 C166 1.367 . S
C168 C162 1.483 . S
C168 C169 1.382 . S
C168 C170 1.403 . S
C169 H148 0.950 . S
C169 C168 1.382 . S
C169 C185 1.411 1_565 S
C170 C168 1.403 . S
C170 C171 1.489 . S
C170 C184 1.411 1_565 S
C171 C170 1.489 . S
C171 C172 1.383 . S
C171 C176 1.382 . S
C172 H149 0.950 . S
C172 C171 1.383 . S
C172 C173 1.395 . S
C173 H150 0.950 . S
C173 C172 1.395 . S
C173 C174 1.288 . S
C174 C173 1.288 . S
C174 C175 1.392 . S
C175 H151 0.951 . S
C175 C174 1.392 . S
C175 C176 1.392 . S
C176 H152 0.949 . S
C176 C171 1.382 . S
C176 C175 1.392 . S
C177 C178 1.376 . S
C177 C182 1.386 . S
C177 C183 1.483 . S
C178 H153 0.949 . S
C178 C177 1.376 . S
C178 C179 1.397 . S
C179 H154 0.950 . S
C179 C178 1.397 . S
C179 C180 1.391 . S
C180 C179 1.391 . S
C180 C181 1.405 . S
C181 H155 0.950 . S
C181 C180 1.405 . S
C181 C182 1.367 . S
C182 H156 0.950 . S
C182 C177 1.386 . S
C182 C181 1.367 . S
C183 C177 1.483 . S
C183 C184 1.382 . S
C183 C185 1.403 . S
C184 H157 0.950 . S
C184 C170 1.411 1_545 S
C184 C183 1.382 . S
C185 C169 1.411 1_545 S
C185 C183 1.403 . S
C185 C186 1.489 . S
C186 C185 1.489 . S
C186 C187 1.383 . S
C186 C191 1.382 . S
C187 H158 0.950 . S
C187 C186 1.383 . S
C187 C188 1.395 . S
C188 H159 0.950 . S
C188 C187 1.395 . S
C188 C189 1.288 . S
C189 C188 1.288 . S
C189 C190 1.392 . S
C190 H160 0.951 . S
C190 C189 1.392 . S
C190 C191 1.392 . S
C191 H161 0.949 . S
C191 C186 1.382 . S
C191 C190 1.392 . S
H192 C211 0.949 . S
H193 C212 0.950 . S
H194 C214 0.950 . S
H195 C215 0.950 . S
H196 C217 0.950 . S
H197 C220 0.950 . S
H198 C221 0.950 . S
H199 C223 0.951 . S
H200 C224 0.949 . S
H201 C226 0.949 . S
H202 C227 0.950 . S
H203 C229 0.950 . S
H204 C230 0.950 . S
H205 C232 0.950 . S
H206 C235 0.950 . S
H207 C236 0.950 . S
H208 C238 0.951 . S
H209 C239 0.949 . S
C210 C211 1.376 . S
C210 C215 1.386 . S
C210 C216 1.483 . S
C211 H192 0.949 . S
C211 C210 1.376 . S
C211 C212 1.397 . S
C212 H193 0.950 . S
C212 C211 1.397 . S
C212 C213 1.391 . S
C213 C212 1.391 . S
C213 C214 1.405 . S
C214 H194 0.950 . S
C214 C213 1.405 . S
C214 C215 1.367 . S
C215 H195 0.950 . S
C215 C210 1.386 . S
C215 C214 1.367 . S
C216 C210 1.483 . S
C216 C217 1.382 1_455 S
C216 C218 1.403 . S
C217 H196 0.950 . S
C217 C216 1.382 1_655 S
C217 C233 1.411 . S
C218 C216 1.403 . S
C218 C219 1.489 . S
C218 C232 1.411 . S
C219 C218 1.489 . S
C219 C220 1.383 . S
C219 C224 1.382 . S
C220 H197 0.950 . S
C220 C219 1.383 . S
C220 C221 1.395 . S
C221 H198 0.950 . S
C221 C220 1.395 . S
C221 C222 1.288 . S
C222 C221 1.288 . S
C222 C223 1.392 . S
C223 H199 0.951 . S
C223 C222 1.392 . S
C223 C224 1.392 . S
C224 H200 0.949 . S
C224 C219 1.382 . S
C224 C223 1.392 . S
C225 C226 1.376 . S
C225 C230 1.386 . S
C225 C231 1.483 . S
C226 H201 0.949 . S
C226 C225 1.376 . S
C226 C227 1.397 . S
C227 H202 0.950 . S
C227 C226 1.397 . S
C227 C228 1.391 . S
C228 C227 1.391 . S
C228 C229 1.405 . S
C229 H203 0.950 . S
C229 C228 1.405 . S
C229 C230 1.367 . S
C230 H204 0.950 . S
C230 C225 1.386 . S
C230 C229 1.367 . S
C231 C225 1.483 . S
C231 C232 1.382 1_655 S
C231 C233 1.403 . S
C232 H205 0.950 . S
C232 C218 1.411 . S
C232 C231 1.382 1_455 S
C233 C217 1.411 . S
C233 C231 1.403 . S
C233 C234 1.489 . S
C234 C233 1.489 . S
C234 C235 1.383 . S
C234 C239 1.382 . S
C235 H206 0.950 . S
C235 C234 1.383 . S
C235 C236 1.395 . S
C236 H207 0.950 . S
C236 C235 1.395 . S
C236 C237 1.288 . S
C237 C236 1.288 . S
C237 C238 1.392 . S
C238 H208 0.951 . S
C238 C237 1.392 . S
C238 C239 1.392 . S
C239 H209 0.949 . S
C239 C234 1.382 . S
C239 C238 1.392 . S
H240 C259 0.949 . S
H241 C260 0.950 . S
H242 C262 0.950 . S
H243 C263 0.950 . S
H244 C265 0.950 . S
H245 C268 0.950 . S
H246 C269 0.950 . S
H247 C271 0.951 . S
H248 C272 0.949 . S
H249 C274 0.949 . S
H250 C275 0.950 . S
H251 C277 0.950 . S
H252 C278 0.950 . S
H253 C280 0.950 . S
H254 C283 0.950 . S
H255 C284 0.950 . S
H256 C286 0.951 . S
H257 C287 0.949 . S
C258 C259 1.376 . S
C258 C263 1.386 . S
C258 C264 1.483 . S
C259 H240 0.949 . S
C259 C258 1.376 . S
C259 C260 1.397 . S
C260 H241 0.950 . S
C260 C259 1.397 . S
C260 C261 1.391 . S
C261 C260 1.391 . S
C261 C262 1.405 . S
C262 H242 0.950 . S
C262 C261 1.405 . S
C262 C263 1.367 . S
C263 H243 0.950 . S
C263 C258 1.386 . S
C263 C262 1.367 . S
C264 C258 1.483 . S
C264 C265 1.382 . S
C264 C266 1.403 . S
C265 H244 0.950 . S
C265 C264 1.382 . S
C265 C281 1.411 . S
C266 C264 1.403 . S
C266 C267 1.489 . S
C266 C280 1.411 . S
C267 C266 1.489 . S
C267 C268 1.383 . S
C267 C272 1.382 . S
C268 H245 0.950 . S
C268 C267 1.383 . S
C268 C269 1.395 . S
C269 H246 0.950 . S
C269 C268 1.395 . S
C269 C270 1.288 . S
C270 C269 1.288 . S
C270 C271 1.392 . S
C271 H247 0.951 . S
C271 C270 1.392 . S
C271 C272 1.392 . S
C272 H248 0.949 . S
C272 C267 1.382 . S
C272 C271 1.392 . S
C273 C274 1.376 . S
C273 C278 1.386 . S
C273 C279 1.483 . S
C274 H249 0.949 . S
C274 C273 1.376 . S
C274 C275 1.397 . S
C275 H250 0.950 . S
C275 C274 1.397 . S
C275 C276 1.391 . S
C276 C275 1.391 . S
C276 C277 1.405 . S
C277 H251 0.950 . S
C277 C276 1.405 . S
C277 C278 1.367 . S
C278 H252 0.950 . S
C278 C273 1.386 . S
C278 C277 1.367 . S
C279 C273 1.483 . S
C279 C280 1.382 . S
C279 C281 1.403 . S
C280 H253 0.950 . S
C280 C266 1.411 . S
C280 C279 1.382 . S
C281 C265 1.411 . S
C281 C279 1.403 . S
C281 C282 1.489 . S
C282 C281 1.489 . S
C282 C283 1.383 . S
C282 C287 1.382 . S
C283 H254 0.950 . S
C283 C282 1.383 . S
C283 C284 1.395 . S
C284 H255 0.950 . S
C284 C283 1.395 . S
C284 C285 1.288 . S
C285 C284 1.288 . S
C285 C286 1.392 . S
C286 H256 0.951 . S
C286 C285 1.392 . S
C286 C287 1.392 . S
C287 H257 0.949 . S
C287 C282 1.382 . S
C287 C286 1.392 . S
H288 C307 0.949 . S
H289 C308 0.950 . S
H290 C310 0.950 . S
H291 C311 0.950 . S
H292 C313 0.950 1_565 S
H293 C316 0.950 . S
H294 C317 0.950 . S
H295 C319 0.951 . S
H296 C320 0.949 1_545 S
H297 C322 0.949 . S
H298 C323 0.950 . S
H299 C325 0.950 . S
H300 C326 0.950 . S
H301 C328 0.950 . S
H302 C331 0.950 . S
H303 C332 0.950 . S
H304 C334 0.951 . S
H305 C335 0.949 . S
C306 C307 1.376 . S
C306 C311 1.386 . S
C306 C312 1.483 . S
C307 H288 0.949 . S
C307 C306 1.376 . S
C307 C308 1.397 . S
C308 H289 0.950 . S
C308 C307 1.397 . S
C308 C309 1.391 . S
C309 C308 1.391 . S
C309 C310 1.405 . S
C310 H290 0.950 . S
C310 C309 1.405 . S
C310 C311 1.367 . S
C311 H291 0.950 . S
C311 C306 1.386 . S
C311 C310 1.367 . S
C312 C306 1.483 . S
C312 C313 1.382 1_565 S
C312 C314 1.403 . S
C313 H292 0.950 1_545 S
C313 C312 1.382 1_545 S
C313 C329 1.411 . S
C314 C312 1.403 . S
C314 C315 1.489 . S
C314 C328 1.411 1_565 S
C315 C314 1.489 . S
C315 C316 1.383 . S
C315 C320 1.382 . S
C316 H293 0.950 . S
C316 C315 1.383 . S
C316 C317 1.395 . S
C317 H294 0.950 . S
C317 C316 1.395 . S
C317 C318 1.288 . S
C318 C317 1.288 . S
C318 C319 1.392 . S
C319 H295 0.951 . S
C319 C318 1.392 . S
C319 C320 1.392 . S
C320 H296 0.949 1_565 S
C320 C315 1.382 . S
C320 C319 1.392 . S
C321 C322 1.376 . S
C321 C326 1.386 . S
C321 C327 1.483 . S
C322 H297 0.949 . S
C322 C321 1.376 . S
C322 C323 1.397 . S
C323 H298 0.950 . S
C323 C322 1.397 . S
C323 C324 1.391 . S
C324 C323 1.391 . S
C324 C325 1.405 . S
C325 H299 0.950 . S
C325 C324 1.405 . S
C325 C326 1.367 . S
C326 H300 0.950 . S
C326 C321 1.386 . S
C326 C325 1.367 . S
C327 C321 1.483 . S
C327 C328 1.382 . S
C327 C329 1.403 . S
C328 H301 0.950 . S
C328 C314 1.411 1_545 S
C328 C327 1.382 . S
C329 C313 1.411 . S
C329 C327 1.403 . S
C329 C330 1.489 . S
C330 C329 1.489 . S
C330 C331 1.383 . S
C330 C335 1.382 . S
C331 H302 0.950 . S
C331 C330 1.383 . S
C331 C332 1.395 . S
C332 H303 0.950 . S
C332 C331 1.395 . S
C332 C333 1.288 . S
C333 C332 1.288 . S
C333 C334 1.392 . S
C334 H304 0.951 . S
C334 C333 1.392 . S
C334 C335 1.392 . S
C335 H305 0.949 . S
C335 C330 1.382 . S
C335 C334 1.392 . S
H336 C355 0.949 1_455 S
H337 C356 0.950 . S
H338 C358 0.950 . S
H339 C359 0.950 . S
H340 C361 0.950 . S
H341 C364 0.950 . S
H342 C365 0.950 . S
H343 C367 0.951 . S
H344 C368 0.949 . S
H345 C370 0.949 . S
H346 C371 0.950 . S
H347 C373 0.950 . S
H348 C374 0.950 . S
H349 C376 0.950 . S
H350 C379 0.950 . S
H351 C380 0.950 . S
H352 C382 0.951 . S
H353 C383 0.949 1_545 S
C354 C355 1.376 . S
C354 C359 1.386 . S
C354 C360 1.483 . S
C355 H336 0.949 1_655 S
C355 C354 1.376 . S
C355 C356 1.397 . S
C356 H337 0.950 . S
C356 C355 1.397 . S
C356 C357 1.391 . S
C357 C356 1.391 . S
C357 C358 1.405 . S
C358 H338 0.950 . S
C358 C357 1.405 . S
C358 C359 1.367 . S
C359 H339 0.950 . S
C359 C354 1.386 . S
C359 C358 1.367 . S
C360 C354 1.483 . S
C360 C361 1.382 1_655 S
C360 C362 1.403 . S
C361 H340 0.950 . S
C361 C360 1.382 1_455 S
C361 C377 1.411 . S
C362 C360 1.403 . S
C362 C363 1.489 . S
C362 C376 1.411 1_655 S
C363 C362 1.489 . S
C363 C364 1.383 . S
C363 C368 1.382 . S
C364 H341 0.950 . S
C364 C363 1.383 . S
C364 C365 1.395 . S
C365 H342 0.950 . S
C365 C364 1.395 . S
C365 C366 1.288 . S
C366 C365 1.288 . S
C366 C367 1.392 . S
C367 H343 0.951 . S
C367 C366 1.392 . S
C367 C368 1.392 . S
C368 H344 0.949 . S
C368 C363 1.382 . S
C368 C367 1.392 . S
C369 C370 1.376 . S
C369 C374 1.386 . S
C369 C375 1.483 . S
C370 H345 0.949 . S
C370 C369 1.376 . S
C370 C371 1.397 . S
C371 H346 0.950 . S
C371 C370 1.397 . S
C371 C372 1.391 . S
C372 C371 1.391 . S
C372 C373 1.405 . S
C373 H347 0.950 . S
C373 C372 1.405 . S
C373 C374 1.367 . S
C374 H348 0.950 . S
C374 C369 1.386 . S
C374 C373 1.367 . S
C375 C369 1.483 . S
C375 C376 1.382 1_565 S
C375 C377 1.403 1_565 S
C376 H349 0.950 . S
C376 C362 1.411 1_455 S
C376 C375 1.382 1_545 S
C377 C361 1.411 . S
C377 C375 1.403 1_545 S
C377 C378 1.489 1_545 S
C378 C377 1.489 1_565 S
C378 C379 1.383 . S
C378 C383 1.382 . S
C379 H350 0.950 . S
C379 C378 1.383 . S
C379 C380 1.395 . S
C380 H351 0.950 . S
C380 C379 1.395 . S
C380 C381 1.288 . S
C381 C380 1.288 . S
C381 C382 1.392 . S
C382 H352 0.951 . S
C382 C381 1.392 . S
C382 C383 1.392 . S
C383 H353 0.949 1_565 S
C383 C378 1.382 . S
C383 C382 1.392 . S
C384 O385 1.306 . S
C384 O387 1.160 . S
O385 C384 1.306 . S
O385 Cd386 2.228 . S
Cd386 O385 2.228 . S
Cd386 O390 2.273 1_554 S
Cd386 O394 2.277 . S
O387 C384 1.160 . S
O387 Cd388 2.203 . S
Cd388 O387 2.203 . S
Cd388 O390 2.411 1_554 S
Cd388 O391 2.333 1_554 S
Cd388 O392 2.350 1_554 S
Cd388 O396 2.277 . S
Cd388 O397 2.356 1_554 S
C389 O394 1.209 . S
C389 O396 1.226 . S
O390 Cd386 2.273 1_556 S
O390 Cd388 2.411 1_556 S
O390 C393 1.320 . S
O391 Cd388 2.333 1_556 S
O391 C393 1.214 . S
O392 Cd388 2.350 1_556 S
O392 C395 1.260 . S
C393 O390 1.320 . S
C393 O391 1.214 . S
O394 Cd386 2.277 . S
O394 C389 1.209 . S
C395 O392 1.260 . S
C395 O397 1.282 . S
O396 Cd388 2.277 . S
O396 C389 1.226 . S
O397 Cd388 2.356 1_556 S
O397 C395 1.282 . S
C398 O399 1.306 . S
C398 O401 1.160 . S
O399 C398 1.306 . S
O399 Cd400 2.228 . S
Cd400 O399 2.228 . S
Cd400 O404 2.273 . S
Cd400 O408 2.277 . S
O401 C398 1.160 . S
O401 Cd402 2.203 . S
Cd402 O401 2.203 . S
Cd402 O404 2.411 . S
Cd402 O405 2.333 . S
Cd402 O406 2.352 . S
Cd402 O410 2.277 . S
Cd402 O411 2.356 . S
C403 O408 1.209 . S
C403 O410 1.226 . S
O404 Cd400 2.273 . S
O404 Cd402 2.411 . S
O404 C407 1.320 . S
O405 Cd402 2.333 . S
O405 C407 1.214 . S
O406 Cd402 2.352 . S
O406 C409 1.258 . S
C407 O404 1.320 . S
C407 O405 1.214 . S
O408 Cd400 2.277 . S
O408 C403 1.209 . S
C409 O406 1.258 . S
C409 O411 1.282 . S
O410 Cd402 2.277 . S
O410 C403 1.226 . S
O411 Cd402 2.356 . S
O411 C409 1.282 . S
C412 O413 1.306 . S
C412 O415 1.160 . S
O413 C412 1.306 . S
O413 Cd414 2.228 . S
Cd414 O413 2.228 . S
Cd414 O418 2.273 . S
Cd414 O422 2.277 . S
O415 C412 1.160 . S
O415 Cd416 2.203 . S
Cd416 O415 2.203 . S
Cd416 O418 2.411 . S
Cd416 O419 2.333 . S
Cd416 O420 2.352 . S
Cd416 O424 2.277 . S
Cd416 O425 2.356 . S
C417 O422 1.209 . S
C417 O424 1.226 . S
O418 Cd414 2.273 . S
O418 Cd416 2.411 . S
O418 C421 1.320 . S
O419 Cd416 2.333 . S
O419 C421 1.214 . S
O420 Cd416 2.352 . S
O420 C423 1.258 . S
C421 O418 1.320 . S
C421 O419 1.214 . S
O422 Cd414 2.277 . S
O422 C417 1.209 . S
C423 O420 1.258 . S
C423 O425 1.282 . S
O424 Cd416 2.277 . S
O424 C417 1.226 . S
O425 Cd416 2.356 . S
O425 C423 1.282 . S
C426 O427 1.306 . S
C426 O429 1.160 . S
O427 C426 1.306 . S
O427 Cd428 2.228 . S
Cd428 O427 2.228 . S
Cd428 O432 2.273 . S
Cd428 O436 2.277 . S
O429 C426 1.160 . S
O429 Cd430 2.203 . S
Cd430 O429 2.203 . S
Cd430 O432 2.411 . S
Cd430 O433 2.333 . S
Cd430 O434 2.352 . S
Cd430 O438 2.277 . S
Cd430 O439 2.356 . S
C431 O436 1.209 . S
C431 O438 1.226 . S
O432 Cd428 2.273 . S
O432 Cd430 2.411 . S
O432 C435 1.320 . S
O433 Cd430 2.333 . S
O433 C435 1.214 . S
O434 Cd430 2.352 . S
O434 C437 1.258 . S
C435 O432 1.320 . S
C435 O433 1.214 . S
O436 Cd428 2.277 . S
O436 C431 1.209 . S
C437 O434 1.258 . S
C437 O439 1.282 . S
O438 Cd430 2.277 . S
O438 C431 1.226 . S
O439 Cd430 2.356 . S
O439 C437 1.282 . S
C440 O441 1.306 . S
C440 O443 1.160 . S
O441 C440 1.306 . S
O441 Cd442 2.228 . S
Cd442 O441 2.228 . S
Cd442 O446 2.273 . S
Cd442 O450 2.277 . S
O443 C440 1.160 . S
O443 Cd444 2.203 . S
Cd444 O443 2.203 . S
Cd444 O446 2.411 . S
Cd444 O447 2.333 . S
Cd444 O448 2.352 . S
Cd444 O452 2.277 . S
Cd444 O453 2.356 . S
C445 O450 1.209 . S
C445 O452 1.226 . S
O446 Cd442 2.273 . S
O446 Cd444 2.411 . S
O446 C449 1.320 . S
O447 Cd444 2.333 . S
O447 C449 1.214 . S
O448 Cd444 2.352 . S
O448 C451 1.258 . S
C449 O446 1.320 . S
C449 O447 1.214 . S
O450 Cd442 2.277 . S
O450 C445 1.209 . S
C451 O448 1.258 . S
C451 O453 1.282 . S
O452 Cd444 2.277 . S
O452 C445 1.226 . S
O453 Cd444 2.356 . S
O453 C451 1.282 . S
C454 O455 1.306 . S
C454 O457 1.160 . S
O455 C454 1.306 . S
O455 Cd456 2.228 . S
Cd456 O455 2.228 . S
Cd456 O460 2.273 . S
Cd456 O464 2.277 . S
O457 C454 1.160 . S
O457 Cd458 2.203 . S
Cd458 O457 2.203 . S
Cd458 O460 2.411 . S
Cd458 O461 2.333 . S
Cd458 O462 2.352 . S
Cd458 O466 2.277 . S
Cd458 O467 2.356 . S
C459 O464 1.209 . S
C459 O466 1.226 . S
O460 Cd456 2.273 . S
O460 Cd458 2.411 . S
O460 C463 1.320 . S
O461 Cd458 2.333 . S
O461 C463 1.214 . S
O462 Cd458 2.352 . S
O462 C465 1.258 . S
C463 O460 1.320 . S
C463 O461 1.214 . S
O464 Cd456 2.277 . S
O464 C459 1.209 . S
C465 O462 1.258 . S
C465 O467 1.282 . S
O466 Cd458 2.277 . S
O466 C459 1.226 . S
O467 Cd458 2.356 . S
O467 C465 1.282 . S
C468 O469 1.306 . S
C468 O471 1.160 . S
O469 C468 1.306 . S
O469 Cd470 2.264 . S
Cd470 O469 2.264 . S
Cd470 O474 2.243 1_556 S
Cd470 O478 2.282 . S
O471 C468 1.160 . S
O471 Cd472 2.203 1_556 S
Cd472 O471 2.203 1_554 S
Cd472 O474 2.411 . S
Cd472 O475 2.333 . S
Cd472 O476 2.352 . S
Cd472 O480 2.277 1_554 S
Cd472 O481 2.356 . S
C473 O478 1.209 . S
C473 O480 1.226 . S
O474 Cd470 2.243 1_554 S
O474 Cd472 2.411 . S
O474 C477 1.320 . S
O475 Cd472 2.333 . S
O475 C477 1.214 . S
O476 Cd472 2.352 . S
O476 C479 1.258 . S
C477 O474 1.320 . S
C477 O475 1.214 . S
O478 Cd470 2.282 . S
O478 C473 1.209 . S
C479 O476 1.258 . S
C479 O481 1.282 . S
O480 Cd472 2.277 1_556 S
O480 C473 1.226 . S
O481 Cd472 2.356 . S
O481 C479 1.282 . S
C482 O483 1.306 . S
C482 O485 1.160 . S
O483 C482 1.306 . S
O483 Cd484 2.228 . S
Cd484 O483 2.228 . S
Cd484 O488 2.273 . S
Cd484 O492 2.277 . S
O485 C482 1.160 . S
O485 Cd486 2.203 . S
Cd486 O485 2.203 . S
Cd486 O488 2.411 . S
Cd486 O489 2.333 . S
Cd486 O490 2.352 . S
Cd486 O494 2.277 . S
Cd486 O495 2.356 . S
C487 O492 1.209 . S
C487 O494 1.226 . S
O488 Cd484 2.273 . S
O488 Cd486 2.411 . S
O488 C491 1.320 . S
O489 Cd486 2.333 . S
O489 C491 1.214 . S
O490 Cd486 2.352 . S
O490 C493 1.258 . S
C491 O488 1.320 . S
C491 O489 1.214 . S
O492 Cd484 2.277 . S
O492 C487 1.209 . S
C493 O490 1.258 . S
C493 O495 1.282 . S
O494 Cd486 2.277 . S
O494 C487 1.226 . S
O495 Cd486 2.356 . S
O495 C493 1.282 . S
C496 C497 1.387 . S
C496 H500 0.950 . S
C496 C505 1.390 . S
C497 C496 1.387 . S
C497 C499 1.387 . S
H498 C505 0.950 . S
C499 C497 1.387 . S
C499 C501 1.390 . S
C499 H503 0.950 . S
H500 C496 0.950 . S
C501 C499 1.390 . S
C501 C502 1.387 . S
C501 H504 0.950 . S
C502 C501 1.387 . S
C502 C505 1.387 . S
H503 C499 0.950 . S
H504 C501 0.950 . S
C505 C496 1.390 . S
C505 H498 0.950 . S
C505 C502 1.387 . S
C506 C507 1.387 . S
C506 H510 0.950 . S
C506 C515 1.390 . S
C507 C506 1.387 . S
C507 C509 1.387 . S
H508 C515 0.950 . S
C509 C507 1.387 . S
C509 C511 1.390 . S
C509 H513 0.950 . S
H510 C506 0.950 . S
C511 C509 1.390 . S
C511 C512 1.387 . S
C511 H514 0.950 . S
C512 C511 1.387 . S
C512 C515 1.387 . S
H513 C509 0.950 . S
H514 C511 0.950 . S
C515 C506 1.390 . S
C515 H508 0.950 . S
C515 C512 1.387 . S
C516 C517 1.387 . S
C516 H520 0.950 . S
C516 C525 1.390 . S
C517 C516 1.387 . S
C517 C519 1.387 . S
H518 C525 0.950 . S
C519 C517 1.387 . S
C519 C521 1.390 . S
C519 H523 0.950 . S
H520 C516 0.950 . S
C521 C519 1.390 . S
C521 C522 1.387 . S
C521 H524 0.950 . S
C522 C521 1.387 . S
C522 C525 1.387 . S
H523 C519 0.950 . S
H524 C521 0.950 . S
C525 C516 1.390 . S
C525 H518 0.950 . S
C525 C522 1.387 . S
C526 C527 1.387 . S
C526 H530 0.950 . S
C526 C535 1.390 . S
C527 C526 1.387 . S
C527 C529 1.387 1_554 S
H528 C535 0.950 . S
C529 C527 1.387 1_556 S
C529 C531 1.390 . S
C529 H533 0.950 . S
H530 C526 0.950 . S
C531 C529 1.390 . S
C531 C532 1.387 1_556 S
C531 H534 0.950 . S
C532 C531 1.387 1_554 S
C532 C535 1.387 . S
H533 C529 0.950 . S
H534 C531 0.950 . S
C535 C526 1.390 . S
C535 H528 0.950 . S
C535 C532 1.387 . S
C536 C537 1.387 1_554 S
C536 H540 0.950 . S
C536 C545 1.390 . S
C537 C536 1.387 1_556 S
C537 C539 1.387 . S
H538 C545 0.950 . S
C539 C537 1.387 . S
C539 C541 1.390 . S
C539 H543 0.950 . S
H540 C536 0.950 . S
C541 C539 1.390 . S
C541 C542 1.387 . S
C541 H544 0.950 . S
C542 C541 1.387 . S
C542 C545 1.387 1_556 S
H543 C539 0.950 . S
H544 C541 0.950 . S
C545 C536 1.390 . S
C545 H538 0.950 . S
C545 C542 1.387 1_554 S
C546 C547 1.387 . S
C546 H550 0.950 . S
C546 C555 1.390 . S
C547 C546 1.387 . S
C547 C549 1.387 . S
H548 C555 0.950 . S
C549 C547 1.387 . S
C549 C551 1.390 . S
C549 H553 0.950 . S
H550 C546 0.950 . S
C551 C549 1.390 . S
C551 C552 1.387 . S
C551 H554 0.950 . S
C552 C551 1.387 . S
C552 C555 1.387 . S
H553 C549 0.950 . S
H554 C551 0.950 . S
C555 C546 1.390 . S
C555 H548 0.950 . S
C555 C552 1.387 . S
C556 C557 1.387 . S
C556 H560 0.950 . S
C556 C565 1.390 . S
C557 C556 1.387 . S
C557 C559 1.387 . S
H558 C565 0.950 . S
C559 C557 1.387 . S
C559 C561 1.390 . S
C559 H563 0.950 . S
H560 C556 0.950 . S
C561 C559 1.390 . S
C561 C562 1.387 . S
C561 H564 0.950 . S
C562 C561 1.387 . S
C562 C565 1.387 . S
H563 C559 0.950 . S
H564 C561 0.950 . S
C565 C556 1.390 . S
C565 H558 0.950 . S
C565 C562 1.387 . S
C566 C567 1.387 . S
C566 H570 0.950 . S
C566 C575 1.390 . S
C567 C566 1.387 . S
C567 C569 1.387 . S
H568 C575 0.950 . S
C569 C567 1.387 . S
C569 C571 1.390 . S
C569 H573 0.950 . S
H570 C566 0.950 . S
C571 C569 1.390 . S
C571 C572 1.387 . S
C571 H574 0.950 . S
C572 C571 1.387 . S
C572 C575 1.387 . S
H573 C569 0.950 . S
H574 C571 0.950 . S
C575 C566 1.390 . S
C575 H568 0.950 . S
C575 C572 1.387 . S
C576 C577 1.387 . S
C576 H580 0.950 . S
C576 C585 1.390 . S
C577 C576 1.387 . S
C577 C579 1.387 . S
H578 C585 0.950 . S
C579 C577 1.387 . S
C579 C581 1.390 . S
C579 H583 0.950 . S
H580 C576 0.950 . S
C581 C579 1.390 . S
C581 C582 1.387 . S
C581 H584 0.950 . S
C582 C581 1.387 . S
C582 C585 1.387 . S
H583 C579 0.950 . S
H584 C581 0.950 . S
C585 C576 1.390 . S
C585 H578 0.950 . S
C585 C582 1.387 . S
C586 C587 1.387 . S
C586 H590 0.950 . S
C586 C595 1.390 . S
C587 C586 1.387 . S
C587 C589 1.387 1_554 S
H588 C595 0.950 . S
C589 C587 1.387 1_556 S
C589 C591 1.390 . S
C589 H593 0.950 . S
H590 C586 0.950 . S
C591 C589 1.390 . S
C591 C592 1.387 1_556 S
C591 H594 0.950 . S
C592 C591 1.387 1_554 S
C592 C595 1.387 . S
H593 C589 0.950 . S
H594 C591 0.950 . S
C595 C586 1.390 . S
C595 H588 0.950 . S
C595 C592 1.387 . S
C596 C597 1.387 . S
C596 H600 0.950 . S
C596 C605 1.390 . S
C597 C596 1.387 . S
C597 C599 1.387 . S
H598 C605 0.950 . S
C599 C597 1.387 . S
C599 C601 1.390 . S
C599 H603 0.950 . S
H600 C596 0.950 . S
C601 C599 1.390 . S
C601 C602 1.387 . S
C601 H604 0.950 . S
C602 C601 1.387 . S
C602 C605 1.387 . S
H603 C599 0.950 . S
H604 C601 0.950 . S
C605 C596 1.390 . S
C605 H598 0.950 . S
C605 C602 1.387 . S
C606 C607 1.387 . S
C606 H610 0.950 . S
C606 C615 1.390 . S
C607 C606 1.387 . S
C607 C609 1.387 . S
H608 C615 0.950 . S
C609 C607 1.387 . S
C609 C611 1.390 . S
C609 H613 0.950 . S
H610 C606 0.950 . S
C611 C609 1.390 . S
C611 C612 1.387 . S
C611 H614 0.950 . S
C612 C611 1.387 . S
C612 C615 1.387 . S
H613 C609 0.950 . S
H614 C611 0.950 . S
C615 C606 1.390 . S
C615 H608 0.950 . S
C615 C612 1.387 . S
C616 C617 1.387 . S
C616 H620 0.950 . S
C616 C625 1.390 . S
C617 C616 1.387 . S
C617 C619 1.387 . S
H618 C625 0.950 . S
C619 C617 1.387 . S
C619 C621 1.390 . S
C619 H623 0.950 . S
H620 C616 0.950 . S
C621 C619 1.390 . S
C621 C622 1.387 . S
C621 H624 0.950 . S
C622 C621 1.387 . S
C622 C625 1.387 . S
H623 C619 0.950 . S
H624 C621 0.950 . S
C625 C616 1.390 . S
C625 H618 0.950 . S
C625 C622 1.387 . S
C626 C627 1.387 . S
C626 H630 0.950 . S
C626 C635 1.390 . S
C627 C626 1.387 . S
C627 C629 1.387 . S
H628 C635 0.950 . S
C629 C627 1.387 . S
C629 C631 1.390 . S
C629 H633 0.950 . S
H630 C626 0.950 . S
C631 C629 1.390 . S
C631 C632 1.387 . S
C631 H634 0.950 . S
C632 C631 1.387 . S
C632 C635 1.387 . S
H633 C629 0.950 . S
H634 C631 0.950 . S
C635 C626 1.390 . S
C635 H628 0.950 . S
C635 C632 1.387 . S
C636 C637 1.387 1_554 S
C636 H640 0.950 . S
C636 C645 1.390 . S
C637 C636 1.387 1_556 S
C637 C639 1.387 . S
H638 C645 0.950 . S
C639 C637 1.387 . S
C639 C641 1.390 . S
C639 H643 0.950 . S
H640 C636 0.950 . S
C641 C639 1.390 . S
C641 C642 1.387 . S
C641 H644 0.950 . S
C642 C641 1.387 . S
C642 C645 1.387 1_556 S
H643 C639 0.950 . S
H644 C641 0.950 . S
C645 C636 1.390 . S
C645 H638 0.950 . S
C645 C642 1.387 1_554 S
C646 C647 1.387 . S
C646 H650 0.950 . S
C646 C655 1.390 . S
C647 C646 1.387 . S
C647 C649 1.387 . S
H648 C655 0.950 . S
C649 C647 1.387 . S
C649 C651 1.390 . S
C649 H653 0.950 . S
H650 C646 0.950 . S
C651 C649 1.390 . S
C651 C652 1.387 . S
C651 H654 0.950 . S
C652 C651 1.387 . S
C652 C655 1.387 . S
H653 C649 0.950 . S
H654 C651 0.950 . S
C655 C646 1.390 . S
C655 H648 0.950 . S
C655 C652 1.387 . S
C656 C657 1.387 . S
C656 H660 0.950 . S
C656 C665 1.390 . S
C657 C656 1.387 . S
C657 C659 1.387 . S
H658 C665 0.950 . S
C659 C657 1.387 . S
C659 C661 1.390 . S
C659 H663 0.950 . S
H660 C656 0.950 . S
C661 C659 1.390 . S
C661 C662 1.387 . S
C661 H664 0.950 . S
C662 C661 1.387 . S
C662 C665 1.387 . S
H663 C659 0.950 . S
H664 C661 0.950 . S
C665 C656 1.390 . S
C665 H658 0.950 . S
C665 C662 1.387 . S
C666 C667 1.387 . S
C666 H670 0.950 . S
C666 C675 1.390 . S
C667 C666 1.387 . S
C667 C669 1.387 . S
H668 C675 0.950 . S
C669 C667 1.387 . S
C669 C671 1.390 . S
C669 H673 0.950 . S
H670 C666 0.950 . S
C671 C669 1.390 . S
C671 C672 1.387 . S
C671 H674 0.950 . S
C672 C671 1.387 . S
C672 C675 1.387 . S
H673 C669 0.950 . S
H674 C671 0.950 . S
C675 C666 1.390 . S
C675 H668 0.950 . S
C675 C672 1.387 . S
C676 C677 1.387 . S
C676 H680 0.950 . S
C676 C685 1.390 . S
C677 C676 1.387 . S
C677 C679 1.387 . S
H678 C685 0.950 . S
C679 C677 1.387 . S
C679 C681 1.390 . S
C679 H683 0.950 . S
H680 C676 0.950 . S
C681 C679 1.390 . S
C681 C682 1.387 . S
C681 H684 0.950 . S
C682 C681 1.387 . S
C682 C685 1.387 . S
H683 C679 0.950 . S
H684 C681 0.950 . S
C685 C676 1.390 . S
C685 H678 0.950 . S
C685 C682 1.387 . S
C686 C687 1.387 . S
C686 H690 0.950 . S
C686 C695 1.390 . S
C687 C686 1.387 . S
C687 C689 1.387 . S
H688 C695 0.950 . S
C689 C687 1.387 . S
C689 C691 1.390 . S
C689 H693 0.950 . S
H690 C686 0.950 . S
C691 C689 1.390 . S
C691 C692 1.387 . S
C691 H694 0.950 . S
C692 C691 1.387 . S
C692 C695 1.387 . S
H693 C689 0.950 . S
H694 C691 0.950 . S
C695 C686 1.390 . S
C695 H688 0.950 . S
C695 C692 1.387 . S
C696 C697 1.387 . S
C696 H700 0.950 . S
C696 C705 1.390 . S
C697 C696 1.387 . S
C697 C699 1.387 . S
H698 C705 0.950 . S
C699 C697 1.387 . S
C699 C701 1.390 . S
C699 H703 0.950 . S
H700 C696 0.950 . S
C701 C699 1.390 . S
C701 C702 1.387 . S
C701 H704 0.950 . S
C702 C701 1.387 . S
C702 C705 1.387 . S
H703 C699 0.950 . S
H704 C701 0.950 . S
C705 C696 1.390 . S
C705 H698 0.950 . S
C705 C702 1.387 . S
C706 C707 1.387 . S
C706 H710 0.950 . S
C706 C715 1.390 . S
C707 C706 1.387 . S
C707 C709 1.387 . S
H708 C715 0.950 . S
C709 C707 1.387 . S
C709 C711 1.390 . S
C709 H713 0.950 . S
H710 C706 0.950 . S
C711 C709 1.390 . S
C711 C712 1.387 . S
C711 H714 0.950 . S
C712 C711 1.387 . S
C712 C715 1.387 . S
H713 C709 0.950 . S
H714 C711 0.950 . S
C715 C706 1.390 . S
C715 H708 0.950 . S
C715 C712 1.387 . S
C716 C717 1.387 . S
C716 H720 0.950 . S
C716 C725 1.390 . S
C717 C716 1.387 . S
C717 C719 1.387 . S
H718 C725 0.950 . S
C719 C717 1.387 . S
C719 C721 1.390 . S
C719 H723 0.950 . S
H720 C716 0.950 . S
C721 C719 1.390 . S
C721 C722 1.387 . S
C721 H724 0.950 . S
C722 C721 1.387 . S
C722 C725 1.387 . S
H723 C719 0.950 . S
H724 C721 0.950 . S
C725 C716 1.390 . S
C725 H718 0.950 . S
C725 C722 1.387 . S
C726 C727 1.387 . S
C726 H730 0.950 . S
C726 C735 1.390 . S
C727 C726 1.387 . S
C727 C729 1.387 . S
H728 C735 0.950 . S
C729 C727 1.387 . S
C729 C731 1.390 . S
C729 H733 0.950 . S
H730 C726 0.950 . S
C731 C729 1.390 . S
C731 C732 1.387 . S
C731 H734 0.950 . S
C732 C731 1.387 . S
C732 C735 1.387 . S
H733 C729 0.950 . S
H734 C731 0.950 . S
C735 C726 1.390 . S
C735 H728 0.950 . S
C735 C732 1.387 . S
C736 C737 1.387 . S
C736 H740 0.950 . S
C736 C745 1.390 . S
C737 C736 1.387 . S
C737 C739 1.387 . S
H738 C745 0.950 . S
C739 C737 1.387 . S
C739 C741 1.390 . S
C739 H743 0.950 . S
H740 C736 0.950 . S
C741 C739 1.390 . S
C741 C742 1.387 . S
C741 H744 0.950 . S
C742 C741 1.387 . S
C742 C745 1.387 . S
H743 C739 0.950 . S
H744 C741 0.950 . S
C745 C736 1.390 . S
C745 H738 0.950 . S
C745 C742 1.387 . S
C746 C747 1.387 . S
C746 H750 0.950 . S
C746 C755 1.390 . S
C747 C746 1.387 . S
C747 C749 1.387 . S
H748 C755 0.950 . S
C749 C747 1.387 . S
C749 C751 1.390 . S
C749 H753 0.950 . S
H750 C746 0.950 . S
C751 C749 1.390 . S
C751 C752 1.387 . S
C751 H754 0.950 . S
C752 C751 1.387 . S
C752 C755 1.387 . S
H753 C749 0.950 . S
H754 C751 0.950 . S
C755 C746 1.390 . S
C755 H748 0.950 . S
C755 C752 1.387 . S
C756 C757 1.387 . S
C756 H760 0.950 . S
C756 C765 1.390 . S
C757 C756 1.387 . S
C757 C759 1.387 . S
H758 C765 0.950 . S
C759 C757 1.387 . S
C759 C761 1.390 . S
C759 H763 0.950 . S
H760 C756 0.950 . S
C761 C759 1.390 . S
C761 C762 1.387 . S
C761 H764 0.950 . S
C762 C761 1.387 . S
C762 C765 1.387 . S
H763 C759 0.950 . S
H764 C761 0.950 . S
C765 C756 1.390 . S
C765 H758 0.950 . S
C765 C762 1.387 . S
C766 C767 1.387 . S
C766 H770 0.950 . S
C766 C775 1.390 . S
C767 C766 1.387 . S
C767 C769 1.387 . S
H768 C775 0.950 . S
C769 C767 1.387 . S
C769 C771 1.390 . S
C769 H773 0.950 . S
H770 C766 0.950 . S
C771 C769 1.390 . S
C771 C772 1.387 . S
C771 H774 0.950 . S
C772 C771 1.387 . S
C772 C775 1.387 . S
H773 C769 0.950 . S
H774 C771 0.950 . S
C775 C766 1.390 . S
C775 H768 0.950 . S
C775 C772 1.387 . S
C776 C777 1.387 . S
C776 H780 0.950 . S
C776 C785 1.390 . S
C777 C776 1.387 . S
C777 C779 1.387 . S
H778 C785 0.950 . S
C779 C777 1.387 . S
C779 C781 1.390 . S
C779 H783 0.950 . S
H780 C776 0.950 . S
C781 C779 1.390 . S
C781 C782 1.387 . S
C781 H784 0.950 . S
C782 C781 1.387 . S
C782 C785 1.387 . S
H783 C779 0.950 . S
H784 C781 0.950 . S
C785 C776 1.390 . S
C785 H778 0.950 . S
C785 C782 1.387 . S
C786 C787 1.387 . S
C786 H790 0.950 . S
C786 C795 1.390 . S
C787 C786 1.387 . S
C787 C789 1.387 . S
H788 C795 0.950 . S
C789 C787 1.387 . S
C789 C791 1.390 . S
C789 H793 0.950 . S
H790 C786 0.950 . S
C791 C789 1.390 . S
C791 C792 1.387 . S
C791 H794 0.950 . S
C792 C791 1.387 . S
C792 C795 1.387 . S
H793 C789 0.950 . S
H794 C791 0.950 . S
C795 C786 1.390 . S
C795 H788 0.950 . S
C795 C792 1.387 . S
C796 C797 1.387 . S
C796 H800 0.950 . S
C796 C805 1.390 . S
C797 C796 1.387 . S
C797 C799 1.387 . S
H798 C805 0.950 . S
C799 C797 1.387 . S
C799 C801 1.390 . S
C799 H803 0.950 . S
H800 C796 0.950 . S
C801 C799 1.390 . S
C801 C802 1.387 . S
C801 H804 0.950 . S
C802 C801 1.387 . S
C802 C805 1.387 . S
H803 C799 0.950 . S
H804 C801 0.950 . S
C805 C796 1.390 . S
C805 H798 0.950 . S
C805 C802 1.387 . S
C806 C807 1.387 . S
C806 H810 0.950 . S
C806 C815 1.390 . S
C807 C806 1.387 . S
C807 C809 1.387 . S
H808 C815 0.950 . S
C809 C807 1.387 . S
C809 C811 1.390 . S
C809 H813 0.950 . S
H810 C806 0.950 . S
C811 C809 1.390 . S
C811 C812 1.387 . S
C811 H814 0.950 . S
C812 C811 1.387 . S
C812 C815 1.387 . S
H813 C809 0.950 . S
H814 C811 0.950 . S
C815 C806 1.390 . S
C815 H808 0.950 . S
C815 C812 1.387 . S
C502 C409 1.479 . S
C497 C36 1.404 . S
C512 C423 1.464 . S
C507 C93 1.420 . S
C522 C431 1.482 . S
C517 C126 1.440 . S
C527 C165 1.400 . S
C532 C389 1.463 . S
C537 C222 1.389 . S
C542 C395 1.446 . S
C547 C261 1.380 . S
C552 C403 1.446 . S
C562 C417 1.532 . S
C557 C318 1.466 . S
C572 C437 1.493 . S
C567 C381 1.450 . S
C577 C132 1.385 . S
C582 C465 1.453 . S
C592 C479 1.522 . S
C587 C189 1.471 . S
C597 C30 1.402 . S
C602 C487 1.454 . S
C612 C451 1.416 . S
C607 C69 1.349 . S
C617 C324 1.420 . S
C622 C445 1.484 . S
C627 C357 1.420 . S
C632 C459 1.475 . S
C642 C473 1.477 . S
C637 C228 1.423 . S
C647 C285 1.464 . S
C652 C493 1.512 . S
C662 C412 1.694 . S
C657 C45 1.730 . S
C672 C435 1.735 . S
C667 C84 1.751 . S
C677 C117 1.756 . S
C682 C393 1.755 . S
C687 C174 1.721 . S
C692 C398 1.730 . S
C697 C213 1.722 . S
C702 C426 1.679 . S
C712 C384 1.703 . S
C707 C270 1.707 . S
C722 C407 1.738 . S
C717 C309 1.742 . S
C732 C421 1.731 . S
C727 C372 1.752 . S
C742 C468 1.682 . S
C737 C141 1.726 . S
C752 C491 1.721 . S
C747 C180 1.732 . S
C757 C21 1.724 . S
C762 C440 1.690 . S
C772 C454 1.678 . S
C767 C78 1.686 . S
C782 C482 1.726 . S
C777 C333 1.774 . S
C787 C366 1.737 . S
C792 C449 1.771 . S
C802 C463 1.757 . S
C797 C237 1.778 . S
C812 C477 1.741 . S
C807 C276 1.755 . S
