# Generated by pormake.
# Topology zzz, (3,6)-cn, num edge types: 1
# Building blocks:
#     Node 0, Type 0, BuildingBlock: BELTOD_clean_linker_0, # of connection points: 3
#     Node 1, Type 0, BuildingBlock: BELTOD_clean_linker_0, # of connection points: 3
#     Node 2, Type 0, BuildingBlock: BELTOD_clean_linker_0, # of connection points: 3
#     Node 3, Type 0, BuildingBlock: BELTOD_clean_linker_0, # of connection points: 3
#     Node 4, Type 0, BuildingBlock: BELTOD_clean_linker_0, # of connection points: 3
#     Node 5, Type 0, BuildingBlock: BELTOD_clean_linker_0, # of connection points: 3
#     Node 6, Type 0, BuildingBlock: BELTOD_clean_linker_0, # of connection points: 3
#     Node 7, Type 0, BuildingBlock: BELTOD_clean_linker_0, # of connection points: 3
#     Node 8, Type 1, BuildingBlock: BETDIP_clean_sbu_0, # of connection points: 6
#     Node 9, Type 1, BuildingBlock: BETDIP_clean_sbu_0, # of connection points: 6
#     Node 10, Type 1, BuildingBlock: BETDIP_clean_sbu_0, # of connection points: 6
#     Node 11, Type 1, BuildingBlock: BETDIP_clean_sbu_0, # of connection points: 6
#     Edge 12, Type (0, 1), BuildingBlock: AJUNOK_clean_linker_0, # of connection points: 2
#     Edge 13, Type (0, 1), BuildingBlock: AJUNOK_clean_linker_0, # of connection points: 2
#     Edge 14, Type (0, 1), BuildingBlock: AJUNOK_clean_linker_0, # of connection points: 2
#     Edge 15, Type (0, 1), BuildingBlock: AJUNOK_clean_linker_0, # of connection points: 2
#     Edge 16, Type (0, 1), BuildingBlock: AJUNOK_clean_linker_0, # of connection points: 2
#     Edge 17, Type (0, 1), BuildingBlock: AJUNOK_clean_linker_0, # of connection points: 2
#     Edge 18, Type (0, 1), BuildingBlock: AJUNOK_clean_linker_0, # of connection points: 2
#     Edge 19, Type (0, 1), BuildingBlock: AJUNOK_clean_linker_0, # of connection points: 2
#     Edge 20, Type (0, 1), BuildingBlock: AJUNOK_clean_linker_0, # of connection points: 2
#     Edge 21, Type (0, 1), BuildingBlock: AJUNOK_clean_linker_0, # of connection points: 2
#     Edge 22, Type (0, 1), BuildingBlock: AJUNOK_clean_linker_0, # of connection points: 2
#     Edge 23, Type (0, 1), BuildingBlock: AJUNOK_clean_linker_0, # of connection points: 2
#     Edge 24, Type (0, 1), BuildingBlock: AJUNOK_clean_linker_0, # of connection points: 2
#     Edge 25, Type (0, 1), BuildingBlock: AJUNOK_clean_linker_0, # of connection points: 2
#     Edge 26, Type (0, 1), BuildingBlock: AJUNOK_clean_linker_0, # of connection points: 2
#     Edge 27, Type (0, 1), BuildingBlock: AJUNOK_clean_linker_0, # of connection points: 2
#     Edge 28, Type (0, 1), BuildingBlock: AJUNOK_clean_linker_0, # of connection points: 2
#     Edge 29, Type (0, 1), BuildingBlock: AJUNOK_clean_linker_0, # of connection points: 2
#     Edge 30, Type (0, 1), BuildingBlock: AJUNOK_clean_linker_0, # of connection points: 2
#     Edge 31, Type (0, 1), BuildingBlock: AJUNOK_clean_linker_0, # of connection points: 2
#     Edge 32, Type (0, 1), BuildingBlock: AJUNOK_clean_linker_0, # of connection points: 2
#     Edge 33, Type (0, 1), BuildingBlock: AJUNOK_clean_linker_0, # of connection points: 2
#     Edge 34, Type (0, 1), BuildingBlock: AJUNOK_clean_linker_0, # of connection points: 2
#     Edge 35, Type (0, 1), BuildingBlock: AJUNOK_clean_linker_0, # of connection points: 2
# Relax obj value: 0.495
# Max RMSD: 0.244
# Mean RMSD: 0.233
data_MOF--net-zzz--node1-BETDIP_clean_sbu_0--node2-BELTOD_clean_linker_0--edge1-AJUNOK_clean_linker_0
_symmetry_space_group_name_H-M    P1
_symmetry_Int_Tables_number       1
_symmetry_cell_setting            triclinic
loop_
_symmetry_equiv_pos_as_xyz
'x, y, z'
_cell_length_a     42.359249
_cell_length_b     42.242987
_cell_length_c     13.395029
_cell_angle_alpha  89.591538
_cell_angle_beta   89.741616
_cell_angle_gamma 90.114119
loop_
_atom_site_label
_atom_site_type_symbol
_atom_site_fract_x
_atom_site_fract_y
_atom_site_fract_z
_atom_type_partial_charge
P0 P 0.71005 0.48442 0.48033 0.0
H1 H 0.73983 0.46649 0.67071 0.0
H2 H 0.79232 0.47362 0.73505 0.0
H3 H 0.81161 0.54293 0.50425 0.0
H4 H 0.75756 0.53739 0.44481 0.0
H5 H 0.6643 0.4481 0.3738 0.0
H6 H 0.62468 0.45976 0.25004 0.0
H7 H 0.63697 0.55972 0.30466 0.0
H8 H 0.67897 0.54747 0.42558 0.0
H9 H 0.73708 0.42343 0.42212 0.0
H10 H 0.72988 0.51851 0.30428 0.0
O11 O 0.69837 0.45234 0.54413 0.0
H12 H 0.77569 0.41084 0.29285 0.0
H13 H 0.77113 0.50766 0.18509 0.0
C14 C 0.74365 0.50118 0.55141 0.0
C15 C 0.75469 0.48416 0.63518 0.0
C16 C 0.78577 0.48769 0.67098 0.0
C17 C 0.80787 0.508 0.62358 0.0
C18 C 0.79611 0.52674 0.5438 0.0
C19 C 0.76465 0.52358 0.50908 0.0
C20 C 0.67463 0.4968 0.41154 0.0
C21 C 0.65814 0.47269 0.36131 0.0
C22 C 0.63519 0.47943 0.28933 0.0
C23 C 0.62754 0.5108 0.26373 0.0
C24 C 0.64279 0.53517 0.31833 0.0
C25 C 0.66648 0.52829 0.3899 0.0
C26 C 0.73149 0.47203 0.37356 0.0
C27 C 0.74342 0.44136 0.36747 0.0
C28 C 0.76548 0.43432 0.294 0.0
C29 C 0.77679 0.45838 0.22995 0.0
C30 C 0.76259 0.48831 0.23128 0.0
C31 C 0.73945 0.49478 0.30125 0.0
P32 P 0.02786 0.71525 0.47801 0.0
H33 H 0.05422 0.75051 0.6452 0.0
H34 H 0.04624 0.80335 0.70088 0.0
H35 H 0.95615 0.80548 0.55004 0.0
H36 H 0.96731 0.75343 0.48008 0.0
H37 H 0.06759 0.66637 0.40001 0.0
H38 H 0.06096 0.62613 0.27532 0.0
H39 H 0.96058 0.64185 0.27691 0.0
H40 H 0.96718 0.68269 0.40734 0.0
H41 H 0.07528 0.76312 0.4414 0.0
H42 H 0.99712 0.72183 0.28175 0.0
O43 O 0.06221 0.70662 0.5325 0.0
H44 H 0.08489 0.79872 0.30154 0.0
H45 H 1.00877 0.75514 0.13795 0.0
C46 C 1.0114 0.74684 0.55753 0.0
C47 C 0.03229 0.76176 0.62429 0.0
C48 C 0.02759 0.79291 0.65717 0.0
C49 C 1.00099 0.81076 0.62836 0.0
C50 C 0.97821 0.79446 0.56983 0.0
C51 C 0.98382 0.76355 0.5325 0.0
C52 C 0.01785 0.67752 0.41733 0.0
C53 C 0.04369 0.66038 0.37897 0.0
C54 C 0.04003 0.63732 0.30561 0.0
C55 C 1.01032 0.63067 0.26524 0.0
C56 C 0.98383 0.6461 0.30726 0.0
C57 C 0.98754 0.66937 0.38264 0.0
C58 C 0.0366 0.73872 0.37033 0.0
C59 C 0.06109 0.76074 0.37479 0.0
C60 C 0.06678 0.78076 0.29433 0.0
C61 C 0.04856 0.77838 0.20719 0.0
C62 C 0.02369 0.75663 0.20326 0.0
C63 C 0.01735 0.73731 0.28527 0.0
P64 P 0.81264 0.03184 0.4908 0.0
H65 H 0.77318 0.06137 0.64272 0.0
H66 H 0.71893 0.05314 0.69513 0.0
H67 H 0.71744 0.96332 0.54651 0.0
H68 H 0.77223 0.97232 0.48772 0.0
H69 H 0.86613 0.06686 0.41636 0.0
H70 H 0.90617 0.05673 0.29124 0.0
H71 H 0.87666 0.95926 0.27915 0.0
H72 H 0.83746 0.96903 0.41273 0.0
H73 H 0.78063 0.08936 0.42614 0.0
H74 H 0.79552 0.99413 0.3197 0.0
O75 O 0.82328 0.06528 0.54746 0.0
H76 H 0.73998 0.09676 0.29916 0.0
H77 H 0.75609 1.00199 0.19245 0.0
C78 C 0.77824 0.01702 0.56323 0.0
C79 C 0.76219 0.03907 0.62393 0.0
C80 C 0.73065 0.03453 0.65411 0.0
C81 C 0.71377 1.00735 0.62722 0.0
C82 C 0.72984 0.9844 0.56997 0.0
C83 C 0.76152 0.98931 0.53751 0.0
C84 C 0.84913 0.01855 0.42899 0.0
C85 C 0.8695 0.04264 0.39336 0.0
C86 C 0.89219 0.03703 0.31915 0.0
C87 C 0.89471 1.00723 0.27467 0.0
C88 C 0.87538 0.98253 0.31225 0.0
C89 C 0.85313 0.988 0.3896 0.0
C90 C 0.79154 0.04151 0.38086 0.0
C91 C 0.77647 0.07076 0.37257 0.0
C92 C 0.75347 0.07499 0.30035 0.0
C93 C 0.74568 0.04994 0.23693 0.0
C94 C 0.76257 0.0217 0.23961 0.0
C95 C 0.78521 0.01736 0.3123 0.0
P96 P 0.48051 0.81293 0.48892 0.0
H97 H 0.45857 0.77732 0.66434 0.0
H98 H 0.46767 0.72355 0.72093 0.0
H99 H 0.5466 0.716 0.51875 0.0
H100 H 0.53707 0.77051 0.46013 0.0
H101 H 0.4453 0.86562 0.41344 0.0
H102 H 0.45554 0.90495 0.28459 0.0
H103 H 0.55369 0.87895 0.2818 0.0
H104 H 0.54344 0.83919 0.41473 0.0
H105 H 0.42425 0.77595 0.44517 0.0
H106 H 0.51212 0.80129 0.29952 0.0
O107 O 0.44821 0.82342 0.55242 0.0
H108 H 0.41551 0.73562 0.31794 0.0
H109 H 0.50267 0.76224 0.17233 0.0
C110 C 0.49757 0.77923 0.55887 0.0
C111 C 0.47877 0.76498 0.63406 0.0
C112 C 0.48366 0.73357 0.66595 0.0
C113 C 0.50781 0.71484 0.62501 0.0
C114 C 0.52794 0.72952 0.55364 0.0
C115 C 0.52273 0.76109 0.5205 0.0
C116 C 0.4937 0.84972 0.42777 0.0
C117 C 0.46957 0.86941 0.39053 0.0
C118 C 0.4753 0.89193 0.3154 0.0
C119 C 0.50547 0.89557 0.27385 0.0
C120 C 0.53029 0.87727 0.31424 0.0
C121 C 0.52451 0.85463 0.3909 0.0
C122 C 0.46844 0.79207 0.38076 0.0
C123 C 0.44065 0.7742 0.38323 0.0
C124 C 0.43556 0.75146 0.31061 0.0
C125 C 0.45824 0.74678 0.23577 0.0
C126 C 0.4846 0.76644 0.22823 0.0
C127 C 0.48989 0.78877 0.3013 0.0
P128 P 0.3035 0.48826 0.08344 0.0
H129 H 0.27576 0.45925 0.90356 0.0
H130 H 0.22381 0.46564 0.83025 0.0
H131 H 0.21306 0.55463 0.98182 0.0
H132 H 0.26491 0.54745 0.05901 0.0
H133 H 0.35572 0.44786 0.14624 0.0
H134 H 0.39939 0.4576 0.2579 0.0
H135 H 0.38611 0.55803 0.22289 0.0
H136 H 0.34299 0.54826 0.10345 0.0
H137 H 0.24656 0.46044 0.16463 0.0
H138 H 0.30999 0.53655 0.24406 0.0
O139 O 0.30268 0.44897 0.07073 0.0
H140 H 0.20664 0.48322 0.27485 0.0
H141 H 0.2708 0.55822 0.35279 0.0
C142 C 0.27518 0.50271 0.98825 0.0
C143 C 0.26305 0.4809 0.9187 0.0
C144 C 0.23275 0.48455 0.87629 0.0
C145 C 0.2133 0.51051 0.90045 0.0
C146 C 0.22668 0.53389 0.9626 0.0
C147 C 0.257 0.53014 1.00538 0.0
C148 C 0.34492 0.49723 0.11637 0.0
C149 C 0.36284 0.47218 0.15713 0.0
C150 C 0.38803 0.4777 0.22254 0.0
C151 C 0.39599 0.50852 0.25127 0.0
C152 C 0.38049 0.53388 0.20279 0.0
C153 C 0.35593 0.52827 0.13336 0.0
C154 C 0.28162 0.49642 0.19514 0.0
C155 C 0.25274 0.48078 0.20933 0.0
C156 C 0.22997 0.49376 0.27184 0.0
C157 C 0.23624 0.52218 0.32123 0.0
C158 C 0.26602 0.53599 0.31578 0.0
C159 C 0.28858 0.52329 0.25257 0.0
P160 P 0.04783 0.30728 0.07946 0.0
H161 H 0.06814 0.28284 0.88348 0.0
H162 H 0.06073 0.23079 0.81183 0.0
H163 H 0.98287 0.21348 0.01372 0.0
H164 H 0.9898 0.26649 0.0832 0.0
H165 H 0.08489 0.36422 0.11379 0.0
H166 H 0.07753 0.40644 0.23229 0.0
H167 H 0.97902 0.38239 0.26004 0.0
H168 H 0.98636 0.33945 0.13778 0.0
H169 H 0.06887 0.24337 0.12186 0.0
H170 H 0.02658 0.31915 0.29128 0.0
O171 O 0.08575 0.30958 0.04578 0.0
H172 H 0.04501 0.20496 0.2367 0.0
H173 H 1.00231 0.28086 0.4027 0.0
C174 C 0.02983 0.27931 0.9904 0.0
C175 C 0.04853 0.26862 0.91019 0.0
C176 C 0.04478 0.23801 0.87062 0.0
C177 C 0.02211 0.21663 0.9096 0.0
C178 C 1.00094 0.22869 0.98184 0.0
C179 C 1.00453 0.25959 0.02081 0.0
C180 C 0.0364 0.34769 0.11646 0.0
C181 C 0.06118 0.36848 0.14079 0.0
C182 C 0.05708 0.39272 0.2105 0.0
C183 C 0.02803 0.39716 0.25935 0.0
C184 C 1.00192 0.37942 0.22514 0.0
C185 C 1.00602 0.35501 0.15366 0.0
C186 C 0.04721 0.284 0.1922 0.0
C187 C 0.05535 0.25194 0.18494 0.0
C188 C 0.04147 0.23002 0.24939 0.0
C189 C 0.02083 0.24044 0.324 0.0
C190 C 0.01731 0.27267 0.34246 0.0
C191 C 0.03087 0.29451 0.27725 0.0
P192 P 0.21751 0.04687 0.07017 0.0
H193 H 0.24767 0.07269 0.88758 0.0
H194 H 0.30032 0.06493 0.81959 0.0
H195 H 0.30992 0.97963 0.9952 0.0
H196 H 0.25692 0.98755 0.06386 0.0
H197 H 0.16847 0.08616 0.15162 0.0
H198 H 0.12663 0.07569 0.26824 0.0
H199 H 0.13466 0.97557 0.2125 0.0
H200 H 0.17826 0.98644 0.09382 0.0
H201 H 0.26638 0.08458 0.16395 0.0
H202 H 0.21683 0.99683 0.2232 0.0
O203 O 0.21649 0.08559 0.04425 0.0
H204 H 0.30785 0.06765 0.27795 0.0
H205 H 0.25763 0.98029 0.33426 0.0
C206 C 0.2474 0.03093 0.98247 0.0
C207 C 0.26026 0.05147 0.90911 0.0
C208 C 0.29094 0.04707 0.8699 0.0
C209 C 0.31015 0.02175 0.90198 0.0
C210 C 0.29634 0.99973 0.96922 0.0
C211 C 0.26548 1.00404 1.00785 0.0
C212 C 0.17707 0.03727 0.11169 0.0
C213 C 0.16063 0.06188 0.15945 0.0
C214 C 0.13625 0.05581 0.22777 0.0
C215 C 0.12673 0.02472 0.25096 0.0
C216 C 0.14134 0.9999 0.19737 0.0
C217 C 0.16601 1.00613 0.12773 0.0
C218 C 0.23828 0.04221 0.18494 0.0
C219 C 0.26332 0.06271 0.20551 0.0
C220 C 0.28697 0.05302 0.27035 0.0
C221 C 0.28576 0.02264 0.31336 0.0
C222 C 0.25874 1.00403 0.30318 0.0
C223 C 0.23514 0.01373 0.2389 0.0
P224 P 0.48692 0.21995 0.07817 0.0
H225 H 0.46291 0.24393 0.88491 0.0
H226 H 0.46951 0.29651 0.80983 0.0
H227 H 0.55207 0.31186 0.98882 0.0
H228 H 0.54594 0.25898 0.06334 0.0
H229 H 0.44482 0.16905 0.1396 0.0
H230 H 0.45187 0.12638 0.25801 0.0
H231 H 0.55277 0.1363 0.23385 0.0
H232 H 0.54572 0.17953 0.11041 0.0
H233 H 0.46102 0.27958 0.14193 0.0
H234 H 0.52996 0.2128 0.25332 0.0
O235 O 0.44804 0.22145 0.05868 0.0
H236 H 0.48474 0.3205 0.24543 0.0
H237 H 0.55298 0.25326 0.35491 0.0
C238 C 0.50358 0.24684 0.98192 0.0
C239 C 0.48347 0.25768 0.90515 0.0
C240 C 0.48699 0.28819 0.86258 0.0
C241 C 0.51085 0.30884 0.89502 0.0
C242 C 0.53311 0.29679 0.96324 0.0
C243 C 0.52986 0.26608 1.00476 0.0
C244 C 0.49465 0.1786 0.11598 0.0
C245 C 0.46871 0.16151 0.15468 0.0
C246 C 0.47268 0.13688 0.22389 0.0
C247 C 0.50278 0.12829 0.25754 0.0
C248 C 0.52916 0.14239 0.20985 0.0
C249 C 0.52511 0.16702 0.13822 0.0
C250 C 0.4937 0.24298 0.18798 0.0
C251 C 0.48005 0.27313 0.19183 0.0
C252 C 0.49376 0.29655 0.24981 0.0
C253 C 0.52085 0.28968 0.30548 0.0
C254 C 0.53213 0.25877 0.31154 0.0
C255 C 0.51871 0.23551 0.25266 0.0
Tb256 Tb 0.03758 1.00919 0.81997 0.0
Tb257 Tb 0.97968 0.01926 0.71362 0.0
C258 C 0.07348 0.9921 0.95729 0.0
C259 C 0.07774 0.95926 0.99032 0.0
C260 C 0.0595 0.94793 0.07064 0.0
C261 C 0.05512 0.91564 0.08385 0.0
C262 C 0.06935 0.89424 0.01805 0.0
C263 C 0.08949 0.90528 0.94243 0.0
C264 C 0.09379 0.93766 0.92881 0.0
C265 C 0.05593 0.01558 0.62993 0.0
C266 C 1.0029 0.94917 0.72348 0.0
C267 C 0.93913 0.04248 0.60042 0.0
C268 C 0.94408 0.07363 0.55537 0.0
C269 C 0.9753 0.08407 0.54869 0.0
C270 C 0.98237 0.1146 0.52023 0.0
C271 C 0.9581 0.13586 0.49926 0.0
C272 C 0.92647 0.12582 0.50468 0.0
C273 C 0.91943 0.09472 0.5349 0.0
C274 C 0.96876 1.00026 0.89981 0.0
C275 C 0.01716 0.07992 0.80244 0.0
O276 O 0.04527 1.00334 0.9726 0.0
O277 O 0.08361 0.99885 0.86757 0.0
O278 O 0.02746 0.01694 0.66176 0.0
O279 O 0.07409 1.01127 0.70549 0.0
O280 O 0.02255 0.95955 0.79293 0.0
O281 O 0.98523 0.96952 0.67363 0.0
O282 O 0.95933 0.02101 0.57103 0.0
O283 O 0.93659 0.0432 0.69742 0.0
O284 O 0.98993 0.01985 0.87051 0.0
O285 O 0.95411 0.99032 0.82136 0.0
O286 O 0.99247 0.06861 0.75402 0.0
O287 O 0.03924 0.0606 0.83542 0.0
H288 H 0.04695 0.96404 0.11926 0.0
H289 H 0.04018 0.90739 0.14461 0.0
H290 H 0.10088 0.88898 0.89173 0.0
H291 H 0.10806 0.94567 0.86624 0.0
H292 H 0.99433 0.0688 0.57097 0.0
H293 H 1.00696 0.12165 0.51542 0.0
H294 H 0.90748 0.14213 0.48824 0.0
H295 H 0.89514 0.08756 0.54557 0.0
Tb296 Tb 0.51541 0.03881 0.81991 0.0
Tb297 Tb 0.50752 0.98424 0.69882 0.0
C298 C 0.535 0.07772 0.94263 0.0
C299 C 0.56447 0.07292 0.99521 0.0
C300 C 0.57384 0.04169 0.01692 0.0
C301 C 0.60435 0.03537 0.04699 0.0
C302 C 0.62585 0.06018 0.05389 0.0
C303 C 0.61686 0.0914 0.03282 0.0
C304 C 0.58609 0.0978 1.00317 0.0
C305 C 0.49915 0.05429 0.63385 0.0
C306 C 0.57744 1.00443 0.72965 0.0
C307 C 0.4917 0.95013 0.55629 0.0
C308 C 0.46392 0.9537 0.4934 0.0
C309 C 0.45842 0.9825 0.44396 0.0
C310 C 0.42868 0.98927 0.40744 0.0
C311 C 0.4041 0.9672 0.4184 0.0
C312 C 0.40994 0.93765 0.46242 0.0
C313 C 0.43966 0.93112 0.50097 0.0
C314 C 0.5142 0.96093 0.88322 0.0
C315 C 0.44699 0.01521 0.80121 0.0
O316 O 0.51277 0.05726 0.96449 0.0
O317 O 0.53886 0.08155 0.8466 0.0
O318 O 0.51823 0.03278 0.66041 0.0
O319 O 0.48771 0.06659 0.71435 0.0
O320 O 0.56561 0.0249 0.79457 0.0
O321 O 0.55863 0.98564 0.67902 0.0
O322 O 0.51343 0.97211 0.54832 0.0
O323 O 0.48473 0.94358 0.64905 0.0
O324 O 0.51465 0.99005 0.85931 0.0
O325 O 0.51357 0.94489 0.80214 0.0
O326 O 0.45817 1.00143 0.71974 0.0
O327 O 0.46679 0.0286 0.86335 0.0
H328 H 0.55804 0.02194 1.00604 0.0
H329 H 0.61122 1.01125 0.06443 0.0
H330 H 0.63359 0.11069 0.03994 0.0
H331 H 0.57947 0.12179 0.98336 0.0
H332 H 0.47635 1.00073 0.43918 0.0
H333 H 0.42453 1.01247 0.37508 0.0
H334 H 0.39134 0.92017 0.4703 0.0
H335 H 0.44324 0.90918 0.5417 0.0
Tb336 Tb 0.48359 0.5149 0.82213 0.0
Tb337 Tb 0.54079 0.50942 0.7073 0.0
C338 C 0.45049 0.52969 0.968 0.0
C339 C 0.45249 0.56016 0.01765 0.0
C340 C 0.48232 0.5729 0.04029 0.0
C341 C 0.48522 0.60455 0.06509 0.0
C342 C 0.45845 0.6238 0.06652 0.0
C343 C 0.42863 0.61123 0.04554 0.0
C344 C 0.42565 0.57943 0.02129 0.0
C345 C 0.46362 0.5095 0.63506 0.0
C346 C 0.51409 0.57762 0.72429 0.0
C347 C 0.58262 0.49062 0.59081 0.0
C348 C 0.58133 0.46046 0.53922 0.0
C349 C 0.55155 0.44741 0.52003 0.0
C350 C 0.54889 0.41738 0.48149 0.0
C351 C 0.57598 0.39956 0.46377 0.0
C352 C 0.60597 0.41201 0.48347 0.0
C353 C 0.60858 0.44249 0.52273 0.0
C354 C 0.5516 0.52581 0.89565 0.0
C355 C 0.50653 0.44579 0.79391 0.0
O356 O 0.47523 0.51141 0.97628 0.0
O357 O 0.44047 0.53179 0.8763 0.0
O358 O 0.49247 0.50947 0.6622 0.0
O359 O 0.44609 0.50913 0.71403 0.0
O360 O 0.49601 0.56538 0.79579 0.0
O361 O 0.53271 0.55923 0.67105 0.0
O362 O 0.56086 0.51093 0.56416 0.0
O363 O 0.58481 0.48777 0.68755 0.0
O364 O 0.53178 0.50573 0.86424 0.0
O365 O 0.56556 0.53781 0.81801 0.0
O366 O 0.52846 0.4586 0.73483 0.0
O367 O 0.48519 0.46374 0.83735 0.0
H368 H 0.50359 0.55881 0.03526 0.0
H369 H 0.50831 0.61409 0.08253 0.0
H370 H 0.40773 0.62595 0.04875 0.0
H371 H 0.40266 0.57018 1.00143 0.0
H372 H 0.53018 0.45988 0.53899 0.0
H373 H 0.52559 0.40776 0.46726 0.0
H374 H 0.62699 0.39809 0.47016 0.0
H375 H 0.63154 0.45169 0.54259 0.0
Tb376 Tb 1.00962 0.48456 0.81987 0.0
Tb377 Tb 0.01346 0.54027 0.69784 0.0
C378 C 0.99322 0.44446 0.94624 0.0
C379 C 0.96307 0.44556 0.99761 0.0
C380 C 0.94839 0.47513 1.00952 0.0
C381 C 0.91721 0.4768 0.04009 0.0
C382 C 0.90048 0.4489 0.05906 0.0
C383 C 0.91516 0.41934 0.04906 0.0
C384 C 0.94644 0.41766 0.01765 0.0
C385 C 0.02727 0.47145 0.63376 0.0
C386 C 0.945 0.51479 0.73018 0.0
C387 C 0.02691 0.57492 0.55272 0.0
C388 C 0.05709 0.57518 0.50006 0.0
C389 C 0.06982 0.54659 0.4655 0.0
C390 C 0.10149 0.5449 0.44035 0.0
C391 C 0.12066 0.57172 0.44882 0.0
C392 C 0.10809 0.60059 0.47924 0.0
C393 C 0.07636 0.60221 0.50601 0.0
C394 C 1.00557 0.56216 0.88236 0.0
C395 C 0.07646 0.51302 0.79874 0.0
O396 O 0.01234 0.4678 0.96699 0.0
O397 O 0.99066 0.43972 0.85044 0.0
O398 O 1.00637 0.49115 0.66078 0.0
O399 O 0.03939 0.45934 0.71388 0.0
O400 O 0.95869 0.49352 0.78941 0.0
O401 O 0.96221 0.5367 0.6849 0.0
O402 O 1.00967 0.54933 0.54413 0.0
O403 O 0.02921 0.58412 0.64505 0.0
O404 O 1.00708 0.53316 0.85821 0.0
O405 O 1.00581 0.5788 0.80163 0.0
O406 O 0.06425 0.5276 0.71974 0.0
O407 O 0.05782 0.49713 0.85978 0.0
H408 H 0.96065 0.49694 0.99142 0.0
H409 H 0.90622 0.49977 0.04911 0.0
H410 H 0.90225 0.39766 0.06427 0.0
H411 H 0.95729 0.39477 1.00608 0.0
H412 H 0.0559 0.52506 0.46316 0.0
H413 H 0.11127 0.52248 0.41636 0.0
H414 H 0.12294 0.62139 0.48526 0.0
H415 H 0.06727 0.624 0.53693 0.0
C416 C 0.11162 0.99627 0.41236 0.0
C417 C 0.10435 0.01886 0.33798 0.0
C418 C 0.09448 0.99447 0.50315 0.0
C419 C 0.06878 0.01475 0.5243 0.0
H420 H 0.13192 0.981 0.40309 0.0
H421 H 0.10224 0.97764 0.55923 0.0
S422 S 0.03918 0.07737 0.35323 0.0
N423 N 0.06832 0.06094 0.29021 0.0
N424 N 0.03709 0.05782 0.46017 0.0
C425 C 0.06047 0.03643 0.44874 0.0
C426 C 0.07794 0.03841 0.35623 0.0
C427 C 0.51634 0.07833 0.35898 0.0
C428 C 0.50517 0.10978 0.35387 0.0
C429 C 0.51477 0.06045 0.44934 0.0
C430 C 0.50153 0.07313 0.53764 0.0
H431 H 0.52568 0.06728 0.29242 0.0
H432 H 0.52353 0.03639 0.44957 0.0
S433 S 0.47222 0.15564 0.56494 0.0
N434 N 0.48303 0.15344 0.44676 0.0
N435 N 0.47941 0.12041 0.61354 0.0
C436 C 0.4913 0.10492 0.53314 0.0
C437 C 0.49327 0.123 0.44233 0.0
C438 C 0.40158 0.52305 0.43206 0.0
C439 C 0.416 0.51314 0.34291 0.0
C440 C 0.41777 0.52236 0.52381 0.0
C441 C 0.4495 0.51227 0.53172 0.0
H442 H 0.37699 0.53004 0.43182 0.0
H443 H 0.40486 0.52937 0.59004 0.0
S444 S 0.49931 0.48726 0.31771 0.0
N445 N 0.46454 0.49442 0.26688 0.0
N446 N 0.49546 0.49511 0.43789 0.0
C447 C 0.46482 0.5041 0.44188 0.0
C448 C 0.44796 0.50393 0.34827 0.0
C449 C 1.00578 0.44179 0.36902 0.0
C450 C 0.02704 0.41647 0.35423 0.0
C451 C 1.00625 0.46016 0.45775 0.0
C452 C 0.02781 0.45382 0.53582 0.0
H453 H 0.98892 0.44764 0.31127 0.0
H454 H 0.98938 0.47922 0.46563 0.0
S455 S 0.08714 0.38908 0.53642 0.0
N456 N 0.06921 0.3855 0.42802 0.0
N457 N 0.07045 0.41965 0.59125 0.0
C458 C 0.0489 0.42843 0.52148 0.0
C459 C 0.04839 0.40991 0.43209 0.0
C460 C 0.90067 0.99657 0.09033 0.0
C461 C 0.91481 1.00344 0.18247 0.0
C462 C 0.91844 0.99555 1.00103 0.0
C463 C 0.95134 1.00152 0.99866 0.0
H464 H 0.87542 0.99262 0.08679 0.0
H465 H 0.90594 0.99048 0.93262 0.0
S466 S 1.00008 0.01824 0.2217 0.0
N467 N 0.96393 0.01481 0.26715 0.0
N468 N 0.99716 1.01327 0.09996 0.0
C469 C 0.96576 1.00816 0.09085 0.0
C470 C 0.9476 1.00905 0.18219 0.0
C471 C 0.5173 0.9452 0.16907 0.0
C472 C 0.50884 0.91289 0.17602 0.0
C473 C 0.51858 0.96128 0.0754 0.0
C474 C 0.51184 0.94552 0.98518 0.0
H475 H 0.52262 0.95818 0.2364 0.0
H476 H 0.52482 0.98606 0.07408 0.0
S477 S 0.48409 0.86207 0.9662 0.0
N478 N 0.49058 0.86692 0.08646 0.0
N479 N 0.49325 0.89619 0.91275 0.0
C480 C 0.50227 0.91349 0.99298 0.0
C481 C 0.50073 0.89747 0.08746 0.0
C482 C 0.57989 0.4969 0.15431 0.0
C483 C 0.60567 0.51726 0.1758 0.0
C484 C 0.56157 0.50035 0.06647 0.0
C485 C 0.568 0.52439 0.99554 0.0
H486 H 0.574 0.4777 0.2051 0.0
H487 H 0.54283 0.48346 0.05281 0.0
S488 S 0.63141 0.58483 0.01538 0.0
N489 N 0.63574 0.56276 0.11645 0.0
N490 N 0.60092 0.56983 0.95581 0.0
C491 C 0.59275 0.54553 0.01779 0.0
C492 C 0.61156 0.54189 0.10635 0.0
C493 C 0.9929 0.58278 0.16138 0.0
C494 C 1.00869 0.61218 0.16934 0.0
C495 C 0.99283 0.56546 0.07047 0.0
C496 C 1.00813 0.57719 0.98379 0.0
H497 H 0.9807 0.57304 0.22586 0.0
H498 H 0.98001 0.54335 0.06753 0.0
S499 S 0.05414 0.65212 0.96702 0.0
N500 N 0.04097 0.65125 0.0831 0.0
N501 N 0.04068 0.61953 0.91494 0.0
C502 C 0.02439 0.60623 0.99232 0.0
C503 C 0.02471 0.62346 0.08401 0.0
C504 C 0.97685 0.2021 0.3241 0.0
C505 C 1.00089 0.21771 0.37626 0.0
C506 C 0.96003 0.17736 0.36915 0.0
C507 C 0.96719 0.16772 0.46681 0.0
H508 H 0.97209 0.20813 0.24682 0.0
H509 H 0.94328 0.16413 0.32489 0.0
S510 S 0.02651 0.20324 0.63484 0.0
N511 N 0.02963 0.22392 0.53039 0.0
N512 N 0.99801 0.17722 0.61654 0.0
C513 C 0.98967 0.18483 0.52155 0.0
C514 C 1.00669 0.2099 0.47559 0.0
C515 C 0.34028 1.00743 0.27482 0.0
C516 C 0.31506 1.00722 0.34309 0.0
C517 C 0.3684 0.99232 0.29734 0.0
C518 C 0.37224 0.97663 0.38901 0.0
H519 H 0.33827 0.01938 0.20324 0.0
H520 H 0.38764 0.99374 0.24387 0.0
S521 S 0.31161 0.96585 0.58734 0.0
N522 N 0.29406 0.9875 0.50077 0.0
N523 N 0.3477 0.95925 0.54515 0.0
C524 C 0.34652 0.97449 0.45554 0.0
C525 C 0.31768 0.98988 0.43212 0.0
C526 C 0.54461 0.31779 0.44842 0.0
C527 C 0.53986 0.31537 0.34532 0.0
C528 C 0.56007 0.34415 0.48725 0.0
C529 C 0.57148 0.36812 0.42343 0.0
H530 H 0.53482 0.3002 0.49913 0.0
H531 H 0.56115 0.34697 0.56748 0.0
S532 S 0.56833 0.37034 0.14787 0.0
N533 N 0.55039 0.33699 0.17977 0.0
N534 N 0.5794 0.38682 0.25359 0.0
C535 C 0.56889 0.36472 0.32019 0.0
C536 C 0.55299 0.33816 0.28074 0.0
C537 C 0.20252 0.54101 0.45986 0.0
C538 C 0.21006 0.54089 0.35807 0.0
C539 C 0.17441 0.5549 0.49215 0.0
C540 C 0.15372 0.56866 0.42287 0.0
H541 H 0.2174 0.52883 0.51328 0.0
H542 H 0.16767 0.5529 0.57005 0.0
S543 S 0.16613 0.57914 0.15194 0.0
N544 N 0.19744 0.55935 0.19067 0.0
N545 N 0.14417 0.58509 0.25213 0.0
C546 C 0.16254 0.5712 0.32279 0.0
C547 C 0.19097 0.55721 0.28994 0.0
C548 C 0.0278 0.82009 0.09504 0.0
C549 C 0.0534 0.80154 0.12673 0.0
C550 C 0.03311 0.8492 0.04832 0.0
C551 C 0.06405 0.86036 0.03338 0.0
H552 H 1.00381 0.81376 0.11541 0.0
H553 H 0.01307 0.86429 0.03218 0.0
S554 S 0.13825 0.81685 0.08134 0.0
N555 N 0.11001 0.79282 0.12079 0.0
N556 N 0.12016 0.8486 0.03773 0.0
C557 C 0.08952 0.8402 0.05274 0.0
C558 C 0.08408 0.81036 0.09842 0.0
C559 C 0.6882 0.05226 0.24523 0.0
C560 C 0.71561 0.05044 0.18652 0.0
C561 C 0.65884 0.05408 0.20054 0.0
C562 C 0.65643 0.05416 0.09655 0.0
H563 H 0.68959 0.05273 0.32603 0.0
H564 H 0.63799 0.05639 0.24717 0.0
S565 S 0.72083 0.04494 0.91218 0.0
N566 N 0.73873 0.04505 0.02146 0.0
N567 N 0.68271 0.04899 0.93583 0.0
C568 C 0.68337 0.05042 0.03703 0.0
C569 C 0.71336 0.04833 0.08279 0.0
C570 C 0.46965 0.69034 0.2433 0.0
C571 C 0.45949 0.71641 0.18686 0.0
C572 C 0.47052 0.66043 0.20143 0.0
C573 C 0.46107 0.65601 0.1025 0.0
H574 H 0.47651 0.69309 0.32067 0.0
H575 H 0.47755 0.6405 0.24758 0.0
S576 S 0.43642 0.71769 0.92155 0.0
N577 N 0.44287 0.73711 0.02622 0.0
N578 N 0.4439 0.68004 0.94635 0.0
C579 C 0.45222 0.68213 0.04388 0.0
C580 C 0.45167 0.71274 0.08654 0.0
C581 C 0.83182 0.4396 0.2314 0.0
C582 C 0.80712 0.45421 0.17856 0.0
C583 C 0.86184 0.43756 0.19062 0.0
C584 C 0.86835 0.45066 0.09677 0.0
H585 H 0.82831 0.43049 0.30645 0.0
H586 H 0.88036 0.42643 0.23401 0.0
S587 S 0.8131 0.49326 0.93038 0.0
N588 N 0.79137 0.48239 0.02738 0.0
N589 N 0.84903 0.47999 0.95288 0.0
C590 C 0.8444 0.466 0.04343 0.0
C591 C 0.81343 0.46745 0.08393 0.0
C592 C 0.99252 0.16555 0.8654 0.0
C593 C 0.0214 0.18185 0.87874 0.0
C594 C 0.99138 0.13317 0.8382 0.0
C595 C 0.01903 0.11499 0.82486 0.0
H596 H 0.97042 0.17801 0.87502 0.0
H597 H 0.96848 0.1221 0.82959 0.0
S598 S 0.10089 0.1456 0.84683 0.0
N599 N 0.07862 0.17645 0.8736 0.0
N600 N 0.07625 0.11629 0.82337 0.0
C601 C 0.04802 0.13091 0.83676 0.0
C602 C 0.04926 0.16396 0.86328 0.0
C603 C 0.36804 1.01241 0.94484 0.0
C604 C 0.34491 0.01958 0.87226 0.0
C605 C 0.40064 1.01128 0.92129 0.0
C606 C 0.41199 0.01636 0.82327 0.0
H607 H 0.36098 1.00829 0.02164 0.0
H608 H 0.41716 1.00605 0.98065 0.0
S609 S 0.3626 0.03821 0.60569 0.0
N610 N 0.3368 0.03364 0.69761 0.0
N611 N 0.39755 0.03035 0.65382 0.0
C612 C 0.38939 0.02362 0.74982 0.0
C613 C 0.35617 0.02558 0.77412 0.0
C614 C 0.51797 0.3551 0.77217 0.0
C615 C 0.51002 0.34369 0.86843 0.0
C616 C 0.5171 0.38794 0.74825 0.0
C617 C 0.50725 0.41074 0.81856 0.0
H618 H 0.52518 0.33853 0.71521 0.0
H619 H 0.52378 0.39544 0.6737 0.0
S620 S 0.48359 0.39302 0.08087 0.0
N621 N 0.49207 0.35798 0.03401 0.0
N622 N 0.48958 0.41883 0.98949 0.0
C623 C 0.4989 0.39938 0.91461 0.0
C624 C 0.50047 0.3662 0.93929 0.0
C625 C 0.15523 0.5213 0.93867 0.0
C626 C 0.17861 0.51198 0.86917 0.0
C627 C 0.12268 0.52188 0.9149 0.0
C628 C 0.11152 0.51363 0.81954 0.0
H629 H 0.16203 0.52718 0.0139 0.0
H630 H 0.10602 0.52881 0.97228 0.0
S631 S 0.16133 0.48396 0.61206 0.0
N632 N 0.18702 0.49213 0.70081 0.0
N633 N 0.12627 0.4935 0.65706 0.0
C634 C 0.13429 0.50385 0.74929 0.0
C635 C 0.16753 0.50285 0.77381 0.0
C636 C 0.01523 0.8585 0.73906 0.0
C637 C 0.99871 0.8461 0.65569 0.0
C638 C 0.01638 0.8913 0.76039 0.0
C639 C 1.00049 0.91396 0.70142 0.0
H640 H 0.02763 0.84287 0.78964 0.0
H641 H 0.02991 0.8989 0.82428 0.0
S642 S 0.95154 0.89559 0.47938 0.0
N643 N 0.96522 0.86085 0.51535 0.0
N644 N 0.96583 0.92132 0.5594 0.0
C645 C 0.98273 0.9021 0.62081 0.0
C646 C 0.98214 0.86874 0.59736 0.0
C647 C 0.65607 0.019 0.5913 0.0
C648 C 0.67899 1.00472 0.65305 0.0
C649 C 0.62352 0.01865 0.61663 0.0
C650 C 0.61231 1.00456 0.70591 0.0
H651 H 0.66341 0.03074 0.52284 0.0
H652 H 0.60697 0.02986 0.56618 0.0
S653 S 0.66223 0.96421 0.89437 0.0
N654 N 0.68774 0.97597 0.80788 0.0
N655 N 0.62708 0.97595 0.85605 0.0
C656 C 0.63494 0.99042 0.7686 0.0
C657 C 0.66805 0.99038 0.74216 0.0
C658 C 0.4828 0.66076 0.66002 0.0
C659 C 0.51026 0.67987 0.65271 0.0
C660 C 0.4842 0.62814 0.68496 0.0
C661 C 0.51312 0.61272 0.7027 0.0
H662 H 0.45989 0.67098 0.64481 0.0
H663 H 0.4624 0.6147 0.68815 0.0
S664 S 0.59154 0.6519 0.70688 0.0
N665 N 0.5671 0.68073 0.67573 0.0
N666 N 0.56966 0.61968 0.7192 0.0
C667 C 0.54065 0.63147 0.69791 0.0
C668 C 0.53924 0.66481 0.67377 0.0
C669 C 0.86065 0.53757 0.64519 0.0
C670 C 0.84275 0.50932 0.65529 0.0
C671 C 0.89313 0.53924 0.67043 0.0
C672 C 0.90974 0.51298 0.70942 0.0
H673 H 0.84953 0.55892 0.61763 0.0
H674 H 0.90533 0.56155 0.65934 0.0
S675 S 0.87562 0.43274 0.74855 0.0
N676 N 0.84596 0.45362 0.70355 0.0
N677 N 0.90562 0.45754 0.75592 0.0
C678 C 0.89229 0.48471 0.72145 0.0
C679 C 0.85939 0.4827 0.69345 0.0
loop_
_geom_bond_atom_site_label_1
_geom_bond_atom_site_label_2
_geom_bond_distance
_geom_bond_site_symmetry_2
_ccdc_geom_bond_type
P0 O11 1.490 . S
P0 C14 1.812 . S
P0 C20 1.803 . S
P0 C26 1.819 . S
H1 C15 0.941 . S
H2 C16 0.939 . S
H3 C18 0.940 . S
H4 C19 0.940 . S
H5 C21 0.939 . S
H6 C22 0.942 . S
H7 C24 0.940 . S
H8 C25 0.939 . S
H9 C27 0.941 . S
H10 C31 0.939 . S
O11 P0 1.490 . S
H12 C28 0.939 . S
H13 C30 0.940 . S
C14 P0 1.812 . S
C14 C15 1.389 . S
C14 C19 1.391 . S
C15 H1 0.941 . S
C15 C14 1.389 . S
C15 C16 1.397 . S
C16 H2 0.939 . S
C16 C15 1.397 . S
C16 C17 1.378 . S
C17 C16 1.378 . S
C17 C18 1.378 . S
C18 H3 0.940 . S
C18 C17 1.378 . S
C18 C19 1.396 . S
C19 H4 0.940 . S
C19 C14 1.391 . S
C19 C18 1.396 . S
C20 P0 1.803 . S
C20 C21 1.378 . S
C20 C25 1.400 . S
C21 H5 0.939 . S
C21 C20 1.378 . S
C21 C22 1.361 . S
C22 H6 0.942 . S
C22 C21 1.361 . S
C22 C23 1.369 . S
C23 C22 1.369 . S
C23 C24 1.404 . S
C24 H7 0.940 . S
C24 C23 1.404 . S
C24 C25 1.389 . S
C25 H8 0.939 . S
C25 C20 1.400 . S
C25 C24 1.389 . S
C26 P0 1.819 . S
C26 C27 1.391 . S
C26 C31 1.391 . S
C27 H9 0.941 . S
C27 C26 1.391 . S
C27 C28 1.396 . S
C28 H12 0.939 . S
C28 C27 1.396 . S
C28 C29 1.397 . S
C29 C28 1.397 . S
C29 C30 1.385 . S
C30 H13 0.940 . S
C30 C29 1.385 . S
C30 C31 1.388 . S
C31 H10 0.939 . S
C31 C26 1.391 . S
C31 C30 1.388 . S
P32 O43 1.490 . S
P32 C46 1.812 . S
P32 C52 1.803 . S
P32 C58 1.819 . S
H33 C47 0.941 . S
H34 C48 0.939 . S
H35 C50 0.940 . S
H36 C51 0.950 . S
H37 C53 0.939 . S
H38 C54 0.942 . S
H39 C56 0.940 . S
H40 C57 0.959 . S
H41 C59 0.941 . S
H42 C63 0.929 1_655 S
O43 P32 1.490 . S
H44 C60 0.939 . S
H45 C62 0.940 . S
C46 P32 1.812 . S
C46 C47 1.389 . S
C46 C51 1.375 1_455 S
C47 H33 0.941 . S
C47 C46 1.389 . S
C47 C48 1.397 . S
C48 H34 0.939 . S
C48 C47 1.397 . S
C48 C49 1.378 . S
C49 C48 1.378 . S
C49 C50 1.378 1_455 S
C50 H35 0.940 . S
C50 C49 1.378 1_655 S
C50 C51 1.403 . S
C51 H36 0.950 . S
C51 C46 1.375 1_655 S
C51 C50 1.403 . S
C52 P32 1.803 . S
C52 C53 1.378 . S
C52 C57 1.368 1_455 S
C53 H37 0.939 . S
C53 C52 1.378 . S
C53 C54 1.361 . S
C54 H38 0.942 . S
C54 C53 1.361 . S
C54 C55 1.369 . S
C55 C54 1.369 . S
C55 C56 1.404 1_455 S
C56 H39 0.940 . S
C56 C55 1.404 1_655 S
C56 C57 1.402 . S
C57 H40 0.959 . S
C57 C52 1.368 1_655 S
C57 C56 1.402 . S
C58 P32 1.819 . S
C58 C59 1.391 . S
C58 C63 1.391 . S
C59 H41 0.941 . S
C59 C58 1.391 . S
C59 C60 1.396 . S
C60 H44 0.939 . S
C60 C59 1.396 . S
C60 C61 1.397 . S
C61 C60 1.397 . S
C61 C62 1.385 1_455 S
C62 H45 0.940 . S
C62 C61 1.385 1_655 S
C62 C63 1.388 1_655 S
C63 H42 0.929 1_455 S
C63 C58 1.391 . S
C63 C62 1.388 1_455 S
P64 O75 1.490 . S
P64 C78 1.812 . S
P64 C84 1.803 . S
P64 C90 1.819 . S
H65 C79 0.941 . S
H66 C80 0.939 . S
H67 C82 0.940 . S
H68 C83 0.950 . S
H69 C85 0.939 . S
H70 C86 0.942 . S
H71 C88 0.940 . S
H72 C89 0.959 . S
H73 C91 0.941 . S
H74 C95 0.929 1_565 S
O75 P64 1.490 . S
H76 C92 0.939 . S
H77 C94 0.940 . S
C78 P64 1.812 . S
C78 C79 1.389 . S
C78 C83 1.375 1_545 S
C79 H65 0.941 . S
C79 C78 1.389 . S
C79 C80 1.397 . S
C80 H66 0.939 . S
C80 C79 1.397 . S
C80 C81 1.378 . S
C81 C80 1.378 . S
C81 C82 1.378 1_545 S
C82 H67 0.940 . S
C82 C81 1.378 1_565 S
C82 C83 1.402 . S
C83 H68 0.950 . S
C83 C78 1.375 1_565 S
C83 C82 1.402 . S
C84 P64 1.803 . S
C84 C85 1.378 . S
C84 C89 1.368 1_545 S
C85 H69 0.939 . S
C85 C84 1.378 . S
C85 C86 1.361 . S
C86 H70 0.942 . S
C86 C85 1.361 . S
C86 C87 1.369 . S
C87 C86 1.369 . S
C87 C88 1.404 1_545 S
C88 H71 0.940 . S
C88 C87 1.404 1_565 S
C88 C89 1.402 . S
C89 H72 0.959 . S
C89 C84 1.368 1_565 S
C89 C88 1.402 . S
C90 P64 1.819 . S
C90 C91 1.391 . S
C90 C95 1.391 . S
C91 H73 0.941 . S
C91 C90 1.391 . S
C91 C92 1.396 . S
C92 H76 0.939 . S
C92 C91 1.396 . S
C92 C93 1.397 . S
C93 C92 1.397 . S
C93 C94 1.385 1_545 S
C94 H77 0.940 . S
C94 C93 1.385 1_565 S
C94 C95 1.388 1_565 S
C95 H74 0.929 1_545 S
C95 C90 1.391 . S
C95 C94 1.388 1_545 S
P96 O107 1.490 . S
P96 C110 1.812 . S
P96 C116 1.803 . S
P96 C122 1.819 . S
H97 C111 0.941 . S
H98 C112 0.939 . S
H99 C114 0.940 . S
H100 C115 0.940 . S
H101 C117 0.939 . S
H102 C118 0.942 . S
H103 C120 0.940 . S
H104 C121 0.939 . S
H105 C123 0.941 . S
H106 C127 0.939 . S
O107 P96 1.490 . S
H108 C124 0.939 . S
H109 C126 0.940 . S
C110 P96 1.812 . S
C110 C111 1.389 . S
C110 C115 1.391 . S
C111 H97 0.941 . S
C111 C110 1.389 . S
C111 C112 1.397 . S
C112 H98 0.939 . S
C112 C111 1.397 . S
C112 C113 1.378 . S
C113 C112 1.378 . S
C113 C114 1.378 . S
C114 H99 0.940 . S
C114 C113 1.378 . S
C114 C115 1.396 . S
C115 H100 0.940 . S
C115 C110 1.391 . S
C115 C114 1.396 . S
C116 P96 1.803 . S
C116 C117 1.378 . S
C116 C121 1.400 . S
C117 H101 0.939 . S
C117 C116 1.378 . S
C117 C118 1.361 . S
C118 H102 0.942 . S
C118 C117 1.361 . S
C118 C119 1.369 . S
C119 C118 1.369 . S
C119 C120 1.404 . S
C120 H103 0.940 . S
C120 C119 1.404 . S
C120 C121 1.389 . S
C121 H104 0.939 . S
C121 C116 1.400 . S
C121 C120 1.389 . S
C122 P96 1.819 . S
C122 C123 1.391 . S
C122 C127 1.391 . S
C123 H105 0.941 . S
C123 C122 1.391 . S
C123 C124 1.396 . S
C124 H108 0.939 . S
C124 C123 1.396 . S
C124 C125 1.397 . S
C125 C124 1.397 . S
C125 C126 1.385 . S
C126 H109 0.940 . S
C126 C125 1.385 . S
C126 C127 1.388 . S
C127 H106 0.939 . S
C127 C122 1.391 . S
C127 C126 1.388 . S
P128 O139 1.490 . S
P128 C142 1.812 1_554 S
P128 C148 1.803 . S
P128 C154 1.819 . S
H129 C143 0.941 . S
H130 C144 0.939 . S
H131 C146 0.940 . S
H132 C147 0.940 . S
H133 C149 0.939 . S
H134 C150 0.942 . S
H135 C152 0.940 . S
H136 C153 0.939 . S
H137 C155 0.941 . S
H138 C159 0.939 . S
O139 P128 1.490 . S
H140 C156 0.939 . S
H141 C158 0.940 . S
C142 P128 1.812 1_556 S
C142 C143 1.389 . S
C142 C147 1.391 . S
C143 H129 0.941 . S
C143 C142 1.389 . S
C143 C144 1.397 . S
C144 H130 0.939 . S
C144 C143 1.397 . S
C144 C145 1.378 . S
C145 C144 1.378 . S
C145 C146 1.378 . S
C146 H131 0.940 . S
C146 C145 1.378 . S
C146 C147 1.396 . S
C147 H132 0.940 . S
C147 C142 1.391 . S
C147 C146 1.396 . S
C148 P128 1.803 . S
C148 C149 1.378 . S
C148 C153 1.400 . S
C149 H133 0.939 . S
C149 C148 1.378 . S
C149 C150 1.361 . S
C150 H134 0.942 . S
C150 C149 1.361 . S
C150 C151 1.369 . S
C151 C150 1.369 . S
C151 C152 1.404 . S
C152 H135 0.940 . S
C152 C151 1.404 . S
C152 C153 1.389 . S
C153 H136 0.939 . S
C153 C148 1.400 . S
C153 C152 1.389 . S
C154 P128 1.819 . S
C154 C155 1.391 . S
C154 C159 1.391 . S
C155 H137 0.941 . S
C155 C154 1.391 . S
C155 C156 1.396 . S
C156 H140 0.939 . S
C156 C155 1.396 . S
C156 C157 1.397 . S
C157 C156 1.397 . S
C157 C158 1.385 . S
C158 H141 0.940 . S
C158 C157 1.385 . S
C158 C159 1.388 . S
C159 H138 0.939 . S
C159 C154 1.391 . S
C159 C158 1.388 . S
P160 O171 1.490 . S
P160 C174 1.812 1_554 S
P160 C180 1.803 . S
P160 C186 1.819 . S
H161 C175 0.941 . S
H162 C176 0.939 . S
H163 C178 0.940 . S
H164 C179 0.945 . S
H165 C181 0.939 . S
H166 C182 0.942 . S
H167 C184 0.940 . S
H168 C185 0.954 . S
H169 C187 0.941 . S
H170 C191 0.932 1_655 S
O171 P160 1.490 . S
H172 C188 0.939 . S
H173 C190 0.940 . S
C174 P160 1.812 1_556 S
C174 C175 1.389 . S
C174 C179 1.383 1_455 S
C175 H161 0.941 . S
C175 C174 1.389 . S
C175 C176 1.397 . S
C176 H162 0.939 . S
C176 C175 1.397 . S
C176 C177 1.378 . S
C177 C176 1.378 . S
C177 C178 1.378 1_455 S
C178 H163 0.940 . S
C178 C177 1.378 1_655 S
C178 C179 1.400 . S
C179 H164 0.945 . S
C179 C174 1.383 1_655 S
C179 C178 1.400 . S
C180 P160 1.803 . S
C180 C181 1.378 . S
C180 C185 1.376 1_455 S
C181 H165 0.939 . S
C181 C180 1.378 . S
C181 C182 1.361 . S
C182 H166 0.942 . S
C182 C181 1.361 . S
C182 C183 1.369 . S
C183 C182 1.369 . S
C183 C184 1.404 1_455 S
C184 H167 0.940 . S
C184 C183 1.404 1_655 S
C184 C185 1.399 . S
C185 H168 0.954 . S
C185 C180 1.376 1_655 S
C185 C184 1.399 . S
C186 P160 1.819 . S
C186 C187 1.391 . S
C186 C191 1.391 . S
C187 H169 0.941 . S
C187 C186 1.391 . S
C187 C188 1.396 . S
C188 H172 0.939 . S
C188 C187 1.396 . S
C188 C189 1.397 . S
C189 C188 1.397 . S
C189 C190 1.385 1_455 S
C190 H173 0.940 . S
C190 C189 1.385 1_655 S
C190 C191 1.388 1_655 S
C191 H170 0.932 1_455 S
C191 C186 1.391 . S
C191 C190 1.388 1_455 S
P192 O203 1.490 . S
P192 C206 1.812 1_554 S
P192 C212 1.803 . S
P192 C218 1.819 . S
H193 C207 0.941 . S
H194 C208 0.939 . S
H195 C210 0.940 . S
H196 C211 0.945 . S
H197 C213 0.939 . S
H198 C214 0.942 . S
H199 C216 0.940 . S
H200 C217 0.954 . S
H201 C219 0.941 . S
H202 C223 0.932 1_565 S
O203 P192 1.490 . S
H204 C220 0.939 . S
H205 C222 0.940 . S
C206 P192 1.812 1_556 S
C206 C207 1.389 . S
C206 C211 1.383 1_545 S
C207 H193 0.941 . S
C207 C206 1.389 . S
C207 C208 1.397 . S
C208 H194 0.939 . S
C208 C207 1.397 . S
C208 C209 1.378 . S
C209 C208 1.378 . S
C209 C210 1.378 1_545 S
C210 H195 0.940 . S
C210 C209 1.378 1_565 S
C210 C211 1.400 . S
C211 H196 0.945 . S
C211 C206 1.383 1_565 S
C211 C210 1.400 . S
C212 P192 1.803 . S
C212 C213 1.378 . S
C212 C217 1.376 1_545 S
C213 H197 0.939 . S
C213 C212 1.378 . S
C213 C214 1.361 . S
C214 H198 0.942 . S
C214 C213 1.361 . S
C214 C215 1.369 . S
C215 C214 1.369 . S
C215 C216 1.404 1_545 S
C216 H199 0.940 . S
C216 C215 1.404 1_565 S
C216 C217 1.398 . S
C217 H200 0.954 . S
C217 C212 1.376 1_565 S
C217 C216 1.398 . S
C218 P192 1.819 . S
C218 C219 1.391 . S
C218 C223 1.391 . S
C219 H201 0.941 . S
C219 C218 1.391 . S
C219 C220 1.396 . S
C220 H204 0.939 . S
C220 C219 1.396 . S
C220 C221 1.397 . S
C221 C220 1.397 . S
C221 C222 1.385 1_545 S
C222 H205 0.940 . S
C222 C221 1.385 1_565 S
C222 C223 1.388 1_565 S
C223 H202 0.932 1_545 S
C223 C218 1.391 . S
C223 C222 1.388 1_545 S
P224 O235 1.490 . S
P224 C238 1.812 1_554 S
P224 C244 1.803 . S
P224 C250 1.819 . S
H225 C239 0.941 . S
H226 C240 0.939 . S
H227 C242 0.940 . S
H228 C243 0.940 . S
H229 C245 0.939 . S
H230 C246 0.942 . S
H231 C248 0.940 . S
H232 C249 0.939 . S
H233 C251 0.941 . S
H234 C255 0.939 . S
O235 P224 1.490 . S
H236 C252 0.939 . S
H237 C254 0.940 . S
C238 P224 1.812 1_556 S
C238 C239 1.389 . S
C238 C243 1.391 . S
C239 H225 0.941 . S
C239 C238 1.389 . S
C239 C240 1.397 . S
C240 H226 0.939 . S
C240 C239 1.397 . S
C240 C241 1.378 . S
C241 C240 1.378 . S
C241 C242 1.378 . S
C242 H227 0.940 . S
C242 C241 1.378 . S
C242 C243 1.396 . S
C243 H228 0.940 . S
C243 C238 1.391 . S
C243 C242 1.396 . S
C244 P224 1.803 . S
C244 C245 1.378 . S
C244 C249 1.400 . S
C245 H229 0.939 . S
C245 C244 1.378 . S
C245 C246 1.361 . S
C246 H230 0.942 . S
C246 C245 1.361 . S
C246 C247 1.369 . S
C247 C246 1.369 . S
C247 C248 1.404 . S
C248 H231 0.940 . S
C248 C247 1.404 . S
C248 C249 1.389 . S
C249 H232 0.939 . S
C249 C244 1.400 . S
C249 C248 1.389 . S
C250 P224 1.819 . S
C250 C251 1.391 . S
C250 C255 1.391 . S
C251 H233 0.941 . S
C251 C250 1.391 . S
C251 C252 1.396 . S
C252 H236 0.939 . S
C252 C251 1.396 . S
C252 C253 1.397 . S
C253 C252 1.397 . S
C253 C254 1.385 . S
C254 H237 0.940 . S
C254 C253 1.385 . S
C254 C255 1.388 . S
C255 H234 0.939 . S
C255 C250 1.391 . S
C255 C254 1.388 . S
Tb256 C258 2.809 . S
Tb256 O276 2.484 . S
Tb256 O277 2.440 . S
Tb256 O278 2.658 1_565 S
Tb256 O279 2.409 . S
Tb256 O280 2.378 . S
Tb256 O284 2.325 1_455 S
Tb256 O287 2.341 1_565 S
Tb257 C267 2.809 . S
Tb257 O278 2.325 1_655 S
Tb257 O281 2.341 1_545 S
Tb257 O282 2.484 . S
Tb257 O283 2.440 . S
Tb257 O284 2.658 1_545 S
Tb257 O285 2.409 . S
Tb257 O286 2.378 . S
C258 Tb256 2.809 . S
C258 C259 1.514 . S
C258 O276 1.248 . S
C258 O277 1.266 . S
C259 C258 1.514 . S
C259 C260 1.359 1_556 S
C259 C264 1.348 . S
C260 C259 1.359 1_554 S
C260 C261 1.380 . S
C260 H288 0.929 1_455 S
C261 C260 1.380 . S
C261 C262 1.347 . S
C261 H289 0.931 . S
C262 C261 1.347 . S
C262 C263 1.369 . S
C263 C262 1.369 . S
C263 C264 1.408 1_554 S
C263 H290 0.930 . S
C264 C259 1.348 . S
C264 C263 1.408 1_556 S
C264 H291 0.930 . S
C265 O278 1.281 1_565 S
C265 O279 1.254 . S
C266 O280 1.236 1_655 S
C266 O281 1.266 . S
C267 Tb257 2.809 . S
C267 C268 1.514 . S
C267 O282 1.248 . S
C267 O283 1.266 . S
C268 C267 1.514 . S
C268 C269 1.359 . S
C268 C273 1.348 . S
C269 C268 1.359 . S
C269 C270 1.380 . S
C269 H292 0.929 1_655 S
C270 C269 1.380 . S
C270 C271 1.347 . S
C270 H293 0.931 . S
C271 C270 1.347 . S
C271 C272 1.369 . S
C272 C271 1.369 . S
C272 C273 1.408 . S
C272 H294 0.930 . S
C273 C268 1.348 . S
C273 C272 1.408 . S
C273 H295 0.930 . S
C274 O284 1.281 1_545 S
C274 O285 1.254 . S
C275 O286 1.236 1_455 S
C275 O287 1.266 . S
O276 Tb256 2.484 . S
O276 C258 1.248 . S
O277 Tb256 2.440 . S
O277 C258 1.266 . S
O278 Tb256 2.658 1_545 S
O278 Tb257 2.325 1_455 S
O278 C265 1.281 1_545 S
O279 Tb256 2.409 . S
O279 C265 1.254 . S
O280 Tb256 2.378 . S
O280 C266 1.236 1_455 S
O281 Tb257 2.341 1_565 S
O281 C266 1.266 . S
O282 Tb257 2.484 . S
O282 C267 1.248 . S
O283 Tb257 2.440 . S
O283 C267 1.266 . S
O284 Tb256 2.325 1_655 S
O284 Tb257 2.658 1_565 S
O284 C274 1.281 1_565 S
O285 Tb257 2.409 . S
O285 C274 1.254 . S
O286 Tb257 2.378 . S
O286 C275 1.236 1_655 S
O287 Tb256 2.341 1_545 S
O287 C275 1.266 . S
H288 C260 0.929 1_655 S
H289 C261 0.931 . S
H290 C263 0.930 . S
H291 C264 0.930 . S
H292 C269 0.929 1_455 S
H293 C270 0.931 . S
H294 C272 0.930 . S
H295 C273 0.930 . S
Tb296 C298 2.809 . S
Tb296 O316 2.484 . S
Tb296 O317 2.440 . S
Tb296 O318 2.658 . S
Tb296 O319 2.409 . S
Tb296 O320 2.378 . S
Tb296 O324 2.325 1_545 S
Tb296 O327 2.341 . S
Tb297 C307 2.809 . S
Tb297 O318 2.325 1_565 S
Tb297 O321 2.341 . S
Tb297 O322 2.484 . S
Tb297 O323 2.440 . S
Tb297 O324 2.658 . S
Tb297 O325 2.409 . S
Tb297 O326 2.378 . S
C298 Tb296 2.809 . S
C298 C299 1.514 . S
C298 O316 1.248 . S
C298 O317 1.266 . S
C299 C298 1.514 . S
C299 C300 1.359 1_556 S
C299 C304 1.348 . S
C300 C299 1.359 1_554 S
C300 C301 1.380 . S
C300 H328 0.929 1_545 S
C301 C300 1.380 . S
C301 C302 1.347 . S
C301 H329 0.918 1_545 S
C302 C301 1.347 . S
C302 C303 1.369 . S
C303 C302 1.369 . S
C303 C304 1.408 1_554 S
C303 H330 0.930 . S
C304 C299 1.348 . S
C304 C303 1.408 1_556 S
C304 H331 0.930 . S
C305 O318 1.281 . S
C305 O319 1.254 . S
C306 O320 1.236 1_565 S
C306 O321 1.266 . S
C307 Tb297 2.809 . S
C307 C308 1.514 . S
C307 O322 1.248 . S
C307 O323 1.266 . S
C308 C307 1.514 . S
C308 C309 1.359 . S
C308 C313 1.348 . S
C309 C308 1.359 . S
C309 C310 1.380 . S
C309 H332 0.929 1_565 S
C310 C309 1.380 . S
C310 C311 1.347 . S
C310 H333 0.911 1_565 S
C311 C310 1.347 . S
C311 C312 1.369 . S
C312 C311 1.369 . S
C312 C313 1.408 . S
C312 H334 0.930 . S
C313 C308 1.348 . S
C313 C312 1.408 . S
C313 H335 0.930 . S
C314 O324 1.281 . S
C314 O325 1.254 . S
C315 O326 1.236 1_545 S
C315 O327 1.266 . S
O316 Tb296 2.484 . S
O316 C298 1.248 . S
O317 Tb296 2.440 . S
O317 C298 1.266 . S
O318 Tb296 2.658 . S
O318 Tb297 2.325 1_545 S
O318 C305 1.281 . S
O319 Tb296 2.409 . S
O319 C305 1.254 . S
O320 Tb296 2.378 . S
O320 C306 1.236 1_545 S
O321 Tb297 2.341 . S
O321 C306 1.266 . S
O322 Tb297 2.484 . S
O322 C307 1.248 . S
O323 Tb297 2.440 . S
O323 C307 1.266 . S
O324 Tb296 2.325 1_565 S
O324 Tb297 2.658 . S
O324 C314 1.281 . S
O325 Tb297 2.409 . S
O325 C314 1.254 . S
O326 Tb297 2.378 . S
O326 C315 1.236 1_565 S
O327 Tb296 2.341 . S
O327 C315 1.266 . S
H328 C300 0.929 1_565 S
H329 C301 0.918 1_565 S
H330 C303 0.930 . S
H331 C304 0.930 . S
H332 C309 0.929 1_545 S
H333 C310 0.911 1_545 S
H334 C312 0.930 . S
H335 C313 0.930 . S
Tb336 C338 2.809 . S
Tb336 O356 2.484 . S
Tb336 O357 2.440 . S
Tb336 O358 2.658 . S
Tb336 O359 2.409 . S
Tb336 O360 2.378 . S
Tb336 O364 2.325 . S
Tb336 O367 2.341 . S
Tb337 C347 2.809 . S
Tb337 O358 2.325 . S
Tb337 O361 2.341 . S
Tb337 O362 2.484 . S
Tb337 O363 2.440 . S
Tb337 O364 2.658 . S
Tb337 O365 2.409 . S
Tb337 O366 2.378 . S
C338 Tb336 2.809 . S
C338 C339 1.519 . S
C338 O356 1.248 . S
C338 O357 1.266 . S
C339 C338 1.519 . S
C339 C340 1.353 1_556 S
C339 C344 1.349 . S
C340 C339 1.353 1_554 S
C340 C341 1.380 . S
C340 H368 0.929 . S
C341 C340 1.380 . S
C341 C342 1.347 . S
C341 H369 0.931 . S
C342 C341 1.347 . S
C342 C343 1.369 . S
C343 C342 1.369 . S
C343 C344 1.408 1_554 S
C343 H370 0.930 . S
C344 C339 1.349 . S
C344 C343 1.408 1_556 S
C344 H371 0.930 . S
C345 O358 1.281 . S
C345 O359 1.254 . S
C346 O360 1.236 . S
C346 O361 1.266 . S
C347 Tb337 2.809 . S
C347 C348 1.514 . S
C347 O362 1.248 . S
C347 O363 1.266 . S
C348 C347 1.514 . S
C348 C349 1.359 . S
C348 C353 1.348 . S
C349 C348 1.359 . S
C349 C350 1.380 . S
C349 H372 0.929 . S
C350 C349 1.380 . S
C350 C351 1.347 . S
C350 H373 0.931 . S
C351 C350 1.347 . S
C351 C352 1.369 . S
C352 C351 1.369 . S
C352 C353 1.408 . S
C352 H374 0.930 . S
C353 C348 1.348 . S
C353 C352 1.408 . S
C353 H375 0.930 . S
C354 O364 1.281 . S
C354 O365 1.254 . S
C355 O366 1.236 . S
C355 O367 1.266 . S
O356 Tb336 2.484 . S
O356 C338 1.248 . S
O357 Tb336 2.440 . S
O357 C338 1.266 . S
O358 Tb336 2.658 . S
O358 Tb337 2.325 . S
O358 C345 1.281 . S
O359 Tb336 2.409 . S
O359 C345 1.254 . S
O360 Tb336 2.378 . S
O360 C346 1.236 . S
O361 Tb337 2.341 . S
O361 C346 1.266 . S
O362 Tb337 2.484 . S
O362 C347 1.248 . S
O363 Tb337 2.440 . S
O363 C347 1.266 . S
O364 Tb336 2.325 . S
O364 Tb337 2.658 . S
O364 C354 1.281 . S
O365 Tb337 2.409 . S
O365 C354 1.254 . S
O366 Tb337 2.378 . S
O366 C355 1.236 . S
O367 Tb336 2.341 . S
O367 C355 1.266 . S
H368 C340 0.929 . S
H369 C341 0.931 . S
H370 C343 0.930 . S
H371 C344 0.930 . S
H372 C349 0.929 . S
H373 C350 0.931 . S
H374 C352 0.930 . S
H375 C353 0.930 . S
Tb376 C378 2.809 . S
Tb376 O396 2.484 . S
Tb376 O397 2.440 . S
Tb376 O398 2.658 1_655 S
Tb376 O399 2.409 . S
Tb376 O400 2.378 . S
Tb376 O404 2.325 . S
Tb376 O407 2.341 1_655 S
Tb377 C387 2.809 . S
Tb377 O398 2.325 . S
Tb377 O401 2.341 1_455 S
Tb377 O402 2.484 . S
Tb377 O403 2.440 . S
Tb377 O404 2.658 1_455 S
Tb377 O405 2.409 . S
Tb377 O406 2.378 . S
C378 Tb376 2.809 . S
C378 C379 1.514 . S
C378 O396 1.248 . S
C378 O397 1.266 . S
C379 C378 1.514 . S
C379 C380 1.359 1_556 S
C379 C384 1.348 . S
C380 C379 1.359 1_554 S
C380 C381 1.380 . S
C380 H408 0.929 . S
C381 C380 1.380 . S
C381 C382 1.347 . S
C381 H409 0.931 . S
C382 C381 1.347 . S
C382 C383 1.369 . S
C383 C382 1.369 . S
C383 C384 1.408 1_554 S
C383 H410 0.930 . S
C384 C379 1.348 . S
C384 C383 1.408 1_556 S
C384 H411 0.930 . S
C385 O398 1.281 1_655 S
C385 O399 1.254 . S
C386 O400 1.236 . S
C386 O401 1.266 . S
C387 Tb377 2.809 . S
C387 C388 1.514 . S
C387 O402 1.248 . S
C387 O403 1.266 . S
C388 C387 1.514 . S
C388 C389 1.359 . S
C388 C393 1.348 . S
C389 C388 1.359 . S
C389 C390 1.380 . S
C389 H412 0.929 . S
C390 C389 1.380 . S
C390 C391 1.347 . S
C390 H413 0.931 . S
C391 C390 1.347 . S
C391 C392 1.369 . S
C392 C391 1.369 . S
C392 C393 1.408 . S
C392 H414 0.930 . S
C393 C388 1.348 . S
C393 C392 1.408 . S
C393 H415 0.930 . S
C394 O404 1.278 1_455 S
C394 O405 1.258 . S
C395 O406 1.236 . S
C395 O407 1.266 . S
O396 Tb376 2.484 . S
O396 C378 1.248 . S
O397 Tb376 2.440 . S
O397 C378 1.266 . S
O398 Tb376 2.658 1_455 S
O398 Tb377 2.325 . S
O398 C385 1.281 1_455 S
O399 Tb376 2.409 . S
O399 C385 1.254 . S
O400 Tb376 2.378 . S
O400 C386 1.236 . S
O401 Tb377 2.341 1_655 S
O401 C386 1.266 . S
O402 Tb377 2.484 . S
O402 C387 1.248 . S
O403 Tb377 2.440 . S
O403 C387 1.266 . S
O404 Tb376 2.325 . S
O404 Tb377 2.658 1_655 S
O404 C394 1.278 1_655 S
O405 Tb377 2.409 . S
O405 C394 1.258 . S
O406 Tb377 2.378 . S
O406 C395 1.236 . S
O407 Tb376 2.341 1_455 S
O407 C395 1.266 . S
H408 C380 0.929 . S
H409 C381 0.931 . S
H410 C383 0.930 . S
H411 C384 0.930 . S
H412 C389 0.929 . S
H413 C390 0.931 . S
H414 C392 0.930 . S
H415 C393 0.930 . S
C416 C417 1.361 1_565 S
C416 C418 1.419 . S
C416 H420 0.930 . S
C417 C416 1.361 1_545 S
C417 C426 1.437 . S
C418 C416 1.419 . S
C418 C419 1.364 1_565 S
C418 H421 0.929 . S
C419 C418 1.364 1_545 S
C419 C425 1.427 . S
H420 C416 0.930 . S
H421 C418 0.929 . S
S422 N423 1.613 . S
S422 N424 1.610 . S
N423 S422 1.613 . S
N423 C426 1.350 . S
N424 S422 1.610 . S
N424 C425 1.351 . S
C425 C419 1.427 . S
C425 N424 1.351 . S
C425 C426 1.434 . S
C426 C417 1.437 . S
C426 N423 1.350 . S
C426 C425 1.434 . S
C427 C428 1.369 . S
C427 C429 1.419 . S
C427 H431 0.930 . S
C428 C427 1.369 . S
C428 C437 1.429 . S
C429 C427 1.419 . S
C429 C430 1.363 . S
C429 H432 0.929 . S
C430 C429 1.363 . S
C430 C436 1.428 . S
H431 C427 0.930 . S
H432 C429 0.929 . S
S433 N434 1.613 . S
S433 N435 1.610 . S
N434 S433 1.613 . S
N434 C437 1.350 . S
N435 S433 1.610 . S
N435 C436 1.351 . S
C436 C430 1.428 . S
C436 N435 1.351 . S
C436 C437 1.434 . S
C437 C428 1.429 . S
C437 N434 1.350 . S
C437 C436 1.434 . S
C438 C439 1.369 . S
C438 C440 1.419 . S
C438 H442 0.930 . S
C439 C438 1.369 . S
C439 C448 1.429 . S
C440 C438 1.419 . S
C440 C441 1.363 . S
C440 H443 0.929 . S
C441 C440 1.363 . S
C441 C447 1.428 . S
H442 C438 0.930 . S
H443 C440 0.929 . S
S444 N445 1.613 . S
S444 N446 1.610 . S
N445 S444 1.613 . S
N445 C448 1.350 . S
N446 S444 1.610 . S
N446 C447 1.351 . S
C447 C441 1.428 . S
C447 N446 1.351 . S
C447 C448 1.434 . S
C448 C439 1.429 . S
C448 N445 1.350 . S
C448 C447 1.434 . S
C449 C450 1.350 1_655 S
C449 C451 1.419 . S
C449 H453 0.930 . S
C450 C449 1.350 1_455 S
C450 C459 1.449 . S
C451 C449 1.419 . S
C451 C452 1.363 1_655 S
C451 H454 0.929 . S
C452 C451 1.363 1_455 S
C452 C458 1.428 . S
H453 C449 0.930 . S
H454 C451 0.929 . S
S455 N456 1.613 . S
S455 N457 1.610 . S
N456 S455 1.613 . S
N456 C459 1.350 . S
N457 S455 1.610 . S
N457 C458 1.351 . S
C458 C452 1.428 . S
C458 N457 1.351 . S
C458 C459 1.434 . S
C459 C450 1.449 . S
C459 N456 1.350 . S
C459 C458 1.434 . S
C460 C461 1.371 . S
C460 C462 1.419 . S
C460 H464 0.930 . S
C461 C460 1.371 . S
C461 C470 1.427 1_545 S
C462 C460 1.419 . S
C462 C463 1.367 . S
C462 H465 0.929 . S
C463 C462 1.367 . S
C463 C469 1.425 1_545 S
H464 C460 0.930 . S
H465 C462 0.929 . S
S466 N467 1.613 1_455 S
S466 N468 1.610 1_455 S
N467 S466 1.613 1_655 S
N467 C470 1.350 . S
N468 S466 1.610 1_655 S
N468 C469 1.351 . S
C469 C463 1.425 1_565 S
C469 N468 1.351 . S
C469 C470 1.434 . S
C470 C461 1.427 1_565 S
C470 N467 1.350 . S
C470 C469 1.434 . S
C471 C472 1.369 . S
C471 C473 1.419 . S
C471 H475 0.930 . S
C472 C471 1.369 . S
C472 C481 1.429 . S
C473 C471 1.419 . S
C473 C474 1.363 . S
C473 H476 0.929 . S
C474 C473 1.363 . S
C474 C480 1.428 . S
H475 C471 0.930 . S
H476 C473 0.929 . S
S477 N478 1.613 . S
S477 N479 1.610 . S
N478 S477 1.613 . S
N478 C481 1.350 . S
N479 S477 1.610 . S
N479 C480 1.351 . S
C480 C474 1.428 . S
C480 N479 1.351 . S
C480 C481 1.434 . S
C481 C472 1.429 . S
C481 N478 1.350 . S
C481 C480 1.434 . S
C482 C483 1.369 . S
C482 C484 1.419 . S
C482 H486 0.930 . S
C483 C482 1.369 . S
C483 C492 1.429 . S
C484 C482 1.419 . S
C484 C485 1.363 . S
C484 H487 0.929 . S
C485 C484 1.363 . S
C485 C491 1.428 . S
H486 C482 0.930 . S
H487 C484 0.929 . S
S488 N489 1.613 . S
S488 N490 1.610 . S
N489 S488 1.613 . S
N489 C492 1.350 . S
N490 S488 1.610 . S
N490 C491 1.351 . S
C491 C485 1.428 . S
C491 N490 1.351 . S
C491 C492 1.434 . S
C492 C483 1.429 . S
C492 N489 1.350 . S
C492 C491 1.434 . S
C493 C494 1.378 . S
C493 C495 1.419 . S
C493 H497 0.930 . S
C494 C493 1.378 . S
C494 C503 1.420 1_655 S
C495 C493 1.419 . S
C495 C496 1.363 . S
C495 H498 0.929 . S
C496 C495 1.363 . S
C496 C502 1.428 1_655 S
H497 C493 0.930 . S
H498 C495 0.929 . S
S499 N500 1.613 . S
S499 N501 1.610 . S
N500 S499 1.613 . S
N500 C503 1.350 . S
N501 S499 1.610 . S
N501 C502 1.351 . S
C502 C496 1.428 1_455 S
C502 N501 1.351 . S
C502 C503 1.434 . S
C503 C494 1.420 1_455 S
C503 N500 1.350 . S
C503 C502 1.434 . S
C504 C505 1.377 . S
C504 C506 1.419 . S
C504 H508 0.930 . S
C505 C504 1.377 . S
C505 C514 1.427 1_655 S
C506 C504 1.419 . S
C506 C507 1.363 . S
C506 H509 0.929 . S
C507 C506 1.363 . S
C507 C513 1.428 . S
H508 C504 0.930 . S
H509 C506 0.929 . S
S510 N511 1.613 . S
S510 N512 1.610 1_455 S
N511 S510 1.613 . S
N511 C514 1.350 . S
N512 S510 1.610 1_655 S
N512 C513 1.351 . S
C513 C507 1.428 . S
C513 N512 1.351 . S
C513 C514 1.434 1_655 S
C514 C505 1.427 1_455 S
C514 N511 1.350 . S
C514 C513 1.434 1_455 S
C515 C516 1.368 1_545 S
C515 C517 1.419 1_545 S
C515 H519 0.930 . S
C516 C515 1.368 1_565 S
C516 C525 1.441 . S
C517 C515 1.419 1_565 S
C517 C518 1.363 . S
C517 H520 0.929 . S
C518 C517 1.363 . S
C518 C524 1.428 . S
H519 C515 0.930 . S
H520 C517 0.929 . S
S521 N522 1.613 . S
S521 N523 1.610 . S
N522 S521 1.613 . S
N522 C525 1.350 . S
N523 S521 1.610 . S
N523 C524 1.351 . S
C524 C518 1.428 . S
C524 N523 1.351 . S
C524 C525 1.434 . S
C525 C516 1.441 . S
C525 N522 1.350 . S
C525 C524 1.434 . S
C526 C527 1.369 . S
C526 C528 1.419 . S
C526 H530 0.930 . S
C527 C526 1.369 . S
C527 C536 1.429 . S
C528 C526 1.419 . S
C528 C529 1.363 . S
C528 H531 0.929 . S
C529 C528 1.363 . S
C529 C535 1.428 . S
H530 C526 0.930 . S
H531 C528 0.929 . S
S532 N533 1.613 . S
S532 N534 1.610 . S
N533 S532 1.613 . S
N533 C536 1.350 . S
N534 S532 1.610 . S
N534 C535 1.351 . S
C535 C529 1.428 . S
C535 N534 1.351 . S
C535 C536 1.434 . S
C536 C527 1.429 . S
C536 N533 1.350 . S
C536 C535 1.434 . S
C537 C538 1.369 . S
C537 C539 1.419 . S
C537 H541 0.930 . S
C538 C537 1.369 . S
C538 C547 1.429 . S
C539 C537 1.419 . S
C539 C540 1.363 . S
C539 H542 0.929 . S
C540 C539 1.363 . S
C540 C546 1.428 . S
H541 C537 0.930 . S
H542 C539 0.929 . S
S543 N544 1.613 . S
S543 N545 1.610 . S
N544 S543 1.613 . S
N544 C547 1.350 . S
N545 S543 1.610 . S
N545 C546 1.351 . S
C546 C540 1.428 . S
C546 N545 1.351 . S
C546 C547 1.434 . S
C547 C538 1.429 . S
C547 N544 1.350 . S
C547 C546 1.434 . S
C548 C549 1.365 1_655 S
C548 C550 1.419 1_655 S
C548 H552 0.930 . S
C549 C548 1.365 1_455 S
C549 C558 1.456 . S
C550 C548 1.419 1_455 S
C550 C551 1.363 . S
C550 H553 0.929 . S
C551 C550 1.363 . S
C551 C557 1.428 . S
H552 C548 0.930 . S
H553 C550 0.929 . S
S554 N555 1.613 . S
S554 N556 1.610 . S
N555 S554 1.613 . S
N555 C558 1.350 . S
N556 S554 1.610 . S
N556 C557 1.351 . S
C557 C551 1.428 . S
C557 N556 1.351 . S
C557 C558 1.434 . S
C558 C549 1.456 . S
C558 N555 1.350 . S
C558 C557 1.434 . S
C559 C560 1.379 . S
C559 C561 1.419 . S
C559 H563 0.930 . S
C560 C559 1.379 . S
C560 C569 1.432 . S
C561 C559 1.419 . S
C561 C562 1.363 . S
C561 H564 0.929 . S
C562 C561 1.363 . S
C562 C568 1.428 . S
H563 C559 0.930 . S
H564 C561 0.929 . S
S565 N566 1.613 1_546 S
S565 N567 1.610 . S
N566 S565 1.613 1_564 S
N566 C569 1.350 1_565 S
N567 S565 1.610 . S
N567 C568 1.351 1_556 S
C568 C562 1.428 . S
C568 N567 1.351 1_554 S
C568 C569 1.434 . S
C569 C560 1.432 . S
C569 N566 1.350 1_545 S
C569 C568 1.434 . S
C570 C571 1.369 . S
C570 C572 1.419 . S
C570 H574 0.930 . S
C571 C570 1.369 . S
C571 C580 1.429 . S
C572 C570 1.419 . S
C572 C573 1.363 . S
C572 H575 0.929 . S
C573 C572 1.363 . S
C573 C579 1.428 . S
H574 C570 0.930 . S
H575 C572 0.929 . S
S576 N577 1.613 1_556 S
S576 N578 1.610 . S
N577 S576 1.613 1_554 S
N577 C580 1.350 . S
N578 S576 1.610 . S
N578 C579 1.351 1_556 S
C579 C573 1.428 . S
C579 N578 1.351 1_554 S
C579 C580 1.434 . S
C580 C571 1.429 . S
C580 N577 1.350 . S
C580 C579 1.434 . S
C581 C582 1.369 . S
C581 C583 1.419 . S
C581 H585 0.930 . S
C582 C581 1.369 . S
C582 C591 1.429 . S
C583 C581 1.419 . S
C583 C584 1.363 . S
C583 H586 0.929 . S
C584 C583 1.363 . S
C584 C590 1.428 . S
H585 C581 0.930 . S
H586 C583 0.929 . S
S587 N588 1.613 1_556 S
S587 N589 1.610 . S
N588 S587 1.613 1_554 S
N588 C591 1.350 . S
N589 S587 1.610 . S
N589 C590 1.351 1_556 S
C590 C584 1.428 . S
C590 N589 1.351 1_554 S
C590 C591 1.434 . S
C591 C582 1.429 . S
C591 N588 1.350 . S
C591 C590 1.434 . S
C592 C593 1.369 1_655 S
C592 C594 1.419 . S
C592 H596 0.930 . S
C593 C592 1.369 1_455 S
C593 C602 1.429 . S
C594 C592 1.419 . S
C594 C595 1.363 1_655 S
C594 H597 0.929 . S
C595 C594 1.363 1_455 S
C595 C601 1.428 . S
H596 C592 0.930 . S
H597 C594 0.929 . S
S598 N599 1.613 . S
S598 N600 1.610 . S
N599 S598 1.613 . S
N599 C602 1.350 . S
N600 S598 1.610 . S
N600 C601 1.351 . S
C601 C595 1.428 . S
C601 N600 1.351 . S
C601 C602 1.434 . S
C602 C593 1.429 . S
C602 N599 1.350 . S
C602 C601 1.434 . S
C603 C604 1.369 . S
C603 C605 1.419 . S
C603 H607 0.930 . S
C604 C603 1.369 . S
C604 C613 1.429 . S
C605 C603 1.419 . S
C605 C606 1.363 . S
C605 H608 0.929 . S
C606 C605 1.363 . S
C606 C612 1.428 . S
H607 C603 0.930 . S
H608 C605 0.929 . S
S609 N610 1.613 . S
S609 N611 1.604 1_565 S
N610 S609 1.613 . S
N610 C613 1.346 1_565 S
N611 S609 1.604 1_545 S
N611 C612 1.351 . S
C612 C606 1.428 . S
C612 N611 1.351 . S
C612 C613 1.434 . S
C613 C604 1.429 . S
C613 N610 1.346 1_545 S
C613 C612 1.434 . S
C614 C615 1.369 . S
C614 C616 1.419 . S
C614 H618 0.930 . S
C615 C614 1.369 . S
C615 C624 1.429 . S
C616 C614 1.419 . S
C616 C617 1.363 . S
C616 H619 0.929 . S
C617 C616 1.363 . S
C617 C623 1.428 . S
H618 C614 0.930 . S
H619 C616 0.929 . S
S620 N621 1.613 1_554 S
S620 N622 1.610 1_554 S
N621 S620 1.613 1_556 S
N621 C624 1.350 . S
N622 S620 1.610 1_556 S
N622 C623 1.351 . S
C623 C617 1.428 . S
C623 N622 1.351 . S
C623 C624 1.434 . S
C624 C615 1.429 . S
C624 N621 1.350 . S
C624 C623 1.434 . S
C625 C626 1.369 . S
C625 C627 1.419 . S
C625 H629 0.930 . S
C626 C625 1.369 . S
C626 C635 1.429 . S
C627 C625 1.419 . S
C627 C628 1.363 . S
C627 H630 0.929 . S
C628 C627 1.363 . S
C628 C634 1.428 . S
H629 C625 0.930 . S
H630 C627 0.929 . S
S631 N632 1.613 . S
S631 N633 1.610 . S
N632 S631 1.613 . S
N632 C635 1.350 . S
N633 S631 1.610 . S
N633 C634 1.351 . S
C634 C628 1.428 . S
C634 N633 1.351 . S
C634 C635 1.434 . S
C635 C626 1.429 . S
C635 N632 1.350 . S
C635 C634 1.434 . S
C636 C637 1.369 1_455 S
C636 C638 1.419 . S
C636 H640 0.930 . S
C637 C636 1.369 1_655 S
C637 C646 1.429 . S
C638 C636 1.419 . S
C638 C639 1.363 1_455 S
C638 H641 0.929 . S
C639 C638 1.363 1_655 S
C639 C645 1.428 . S
H640 C636 0.930 . S
H641 C638 0.929 . S
S642 N643 1.613 . S
S642 N644 1.610 . S
N643 S642 1.613 . S
N643 C646 1.350 . S
N644 S642 1.610 . S
N644 C645 1.351 . S
C645 C639 1.428 . S
C645 N644 1.351 . S
C645 C646 1.434 . S
C646 C637 1.429 . S
C646 N643 1.350 . S
C646 C645 1.434 . S
C647 C648 1.369 1_545 S
C647 C649 1.419 . S
C647 H651 0.930 . S
C648 C647 1.369 1_565 S
C648 C657 1.429 . S
C649 C647 1.419 . S
C649 C650 1.363 1_545 S
C649 H652 0.929 . S
C650 C649 1.363 1_565 S
C650 C656 1.428 . S
H651 C647 0.930 . S
H652 C649 0.929 . S
S653 N654 1.613 . S
S653 N655 1.610 . S
N654 S653 1.613 . S
N654 C657 1.350 . S
N655 S653 1.610 . S
N655 C656 1.351 . S
C656 C650 1.428 . S
C656 N655 1.351 . S
C656 C657 1.434 . S
C657 C648 1.429 . S
C657 N654 1.350 . S
C657 C656 1.434 . S
C658 C659 1.369 . S
C658 C660 1.419 . S
C658 H662 0.930 . S
C659 C658 1.369 . S
C659 C668 1.429 . S
C660 C658 1.419 . S
C660 C661 1.363 . S
C660 H663 0.929 . S
C661 C660 1.363 . S
C661 C667 1.428 . S
H662 C658 0.930 . S
H663 C660 0.929 . S
S664 N665 1.613 . S
S664 N666 1.610 . S
N665 S664 1.613 . S
N665 C668 1.350 . S
N666 S664 1.610 . S
N666 C667 1.351 . S
C667 C661 1.428 . S
C667 N666 1.351 . S
C667 C668 1.434 . S
C668 C659 1.429 . S
C668 N665 1.350 . S
C668 C667 1.434 . S
C669 C670 1.369 . S
C669 C671 1.419 . S
C669 H673 0.930 . S
C670 C669 1.369 . S
C670 C679 1.429 . S
C671 C669 1.419 . S
C671 C672 1.363 . S
C671 H674 0.929 . S
C672 C671 1.363 . S
C672 C678 1.428 . S
H673 C669 0.930 . S
H674 C671 0.929 . S
S675 N676 1.613 . S
S675 N677 1.610 . S
N676 S675 1.613 . S
N676 C679 1.350 . S
N677 S675 1.610 . S
N677 C678 1.351 . S
C678 C672 1.428 . S
C678 N677 1.351 . S
C678 C679 1.434 . S
C679 C670 1.429 . S
C679 N676 1.350 . S
C679 C678 1.434 . S
C417 C215 2.294 . S
C419 C265 2.592 1_545 S
C430 C305 2.620 . S
C428 C247 2.293 . S
C441 C345 2.629 . S
C439 C151 2.309 . S
C452 C385 2.602 1_455 S
C450 C183 2.300 . S
C463 C274 2.592 1_554 S
C461 C87 2.299 . S
C472 C119 2.340 . S
C474 C314 2.621 1_554 S
C483 C23 2.361 . S
C485 C354 2.629 1_554 S
C494 C55 2.300 1_655 S
C496 C394 2.602 1_654 S
C507 C271 0.762 . S
C505 C189 0.787 1_655 S
C518 C311 0.770 . S
C516 C221 0.767 1_565 S
C529 C351 0.733 . S
C527 C253 0.714 . S
C538 C157 0.720 . S
C540 C391 0.736 . S
C549 C61 0.761 . S
C551 C262 0.784 . S
C562 C302 0.765 . S
C560 C93 0.765 . S
C573 C342 0.735 . S
C571 C125 0.728 . S
C582 C29 0.749 . S
C584 C382 0.732 . S
C593 C177 2.847 . S
C595 C275 3.264 . S
C604 C209 2.797 . S
C606 C315 3.216 . S
C617 C355 3.202 . S
C615 C241 2.755 . S
C628 C395 3.252 . S
C626 C145 2.812 . S
C637 C49 2.881 1_655 S
C639 C266 3.273 . S
C650 C306 3.218 . S
C648 C81 2.836 1_565 S
C661 C346 3.202 . S
C659 C113 2.839 . S
C670 C17 2.888 . S
C672 C386 3.255 . S
