# Generated by pormake.
# Topology pth, (4,4)-cn, num edge types: 1
# Building blocks:
#     Node 0, Type 0, BuildingBlock: KUFVIS_clean_sbu_0, # of connection points: 4
#     Node 1, Type 0, BuildingBlock: KUFVIS_clean_sbu_0, # of connection points: 4
#     Node 2, Type 0, BuildingBlock: KUFVIS_clean_sbu_0, # of connection points: 4
#     Node 3, Type 1, BuildingBlock: MUDLON_clean_linker_0, # of connection points: 4
#     Node 4, Type 1, BuildingBlock: MUDLON_clean_linker_0, # of connection points: 4
#     Node 5, Type 1, BuildingBlock: MUDLON_clean_linker_0, # of connection points: 4
#     Edge 6, Type (0, 1), BuildingBlock: TEMPAE_clean_linker_10, # of connection points: 2
#     Edge 7, Type (0, 1), BuildingBlock: TEMPAE_clean_linker_10, # of connection points: 2
#     Edge 8, Type (0, 1), BuildingBlock: TEMPAE_clean_linker_10, # of connection points: 2
#     Edge 9, Type (0, 1), BuildingBlock: TEMPAE_clean_linker_10, # of connection points: 2
#     Edge 10, Type (0, 1), BuildingBlock: TEMPAE_clean_linker_10, # of connection points: 2
#     Edge 11, Type (0, 1), BuildingBlock: TEMPAE_clean_linker_10, # of connection points: 2
#     Edge 12, Type (0, 1), BuildingBlock: TEMPAE_clean_linker_10, # of connection points: 2
#     Edge 13, Type (0, 1), BuildingBlock: TEMPAE_clean_linker_10, # of connection points: 2
#     Edge 14, Type (0, 1), BuildingBlock: TEMPAE_clean_linker_10, # of connection points: 2
#     Edge 15, Type (0, 1), BuildingBlock: TEMPAE_clean_linker_10, # of connection points: 2
#     Edge 16, Type (0, 1), BuildingBlock: TEMPAE_clean_linker_10, # of connection points: 2
#     Edge 17, Type (0, 1), BuildingBlock: TEMPAE_clean_linker_10, # of connection points: 2
# Relax obj value: 0.038
# Max RMSD: 0.104
# Mean RMSD: 0.093
data_MOF--net-pth--node1-KUFVIS_clean_sbu_0--node2-MUDLON_clean_linker_0--edge1-TEMPAE_clean_linker_10
_symmetry_space_group_name_H-M    P1
_symmetry_Int_Tables_number       1
_symmetry_cell_setting            triclinic
loop_
_symmetry_equiv_pos_as_xyz
'x, y, z'
_cell_length_a     33.63224
_cell_length_b     33.726433
_cell_length_c     69.477824
_cell_angle_alpha  90.424107
_cell_angle_beta   91.791212
_cell_angle_gamma 120.21803
loop_
_atom_site_label
_atom_site_type_symbol
_atom_site_fract_x
_atom_site_fract_y
_atom_site_fract_z
_atom_type_partial_charge
Mn0 Mn 0.02404 0.02781 0.02641 0.0
Mn1 Mn 0.95648 0.06428 0.00589 0.0
C2 C 0.97467 0.98686 0.00053 0.0
C3 C 0.03607 0.98648 0.05036 0.0
C4 C 0.05891 0.10798 0.99918 0.0
O5 O 0.02782 0.07506 0.046 0.0
O6 O 0.97498 0.08999 0.0326 0.0
C7 C 0.87606 0.01509 0.03033 0.0
N8 N 0.89414 0.02465 0.01256 0.0
C9 C 0.81943 0.97761 0.99707 0.0
C10 C 0.79988 0.96759 0.0152 0.0
C11 C 0.8284 0.98614 0.03191 0.0
C12 C 0.86722 0.00597 0.99643 0.0
H13 H 0.89789 0.02939 0.04319 0.0
C14 C 0.00352 0.09438 0.04623 0.0
O15 O 0.07032 0.0196 0.04178 0.0
O16 O 0.99506 0.97803 0.04525 0.0
N17 N 0.93543 0.04209 0.98003 0.0
C18 C 0.95988 0.05413 0.9637 0.0
C19 C 0.93656 0.03815 0.94571 0.0
C20 C 0.88834 0.01089 0.94468 0.0
C21 C 0.86389 0.99924 0.96167 0.0
C22 C 0.88903 0.01574 0.97919 0.0
H23 H 0.99686 0.0759 0.96437 0.0
O24 O 0.00907 0.98123 0.00528 0.0
O25 O 0.96935 0.01511 0.01147 0.0
O26 O 0.0655 0.07961 0.00883 0.0
O27 O 0.02004 0.10628 0.99781 0.0
C28 C 0.81554 0.97237 0.96193 0.0
C29 C 0.79337 0.96085 0.97961 0.0
H30 H 0.76308 0.94562 0.01646 0.0
H31 H 0.81363 0.97836 0.04596 0.0
H32 H 0.95566 0.04729 0.93266 0.0
H33 H 0.87045 0.99915 0.93075 0.0
H34 H 0.79504 0.96009 0.94859 0.0
H35 H 0.75625 0.93937 0.97961 0.0
Mn36 Mn 0.02003 0.04134 0.3614 0.0
Mn37 Mn 0.07234 0.14303 0.38584 0.0
C38 C 0.06778 0.05195 0.38795 0.0
C39 C 0.01857 0.99423 0.3363 0.0
C40 C 0.97198 0.07115 0.38992 0.0
O41 O 0.01245 0.08379 0.34286 0.0
O42 O 0.05193 0.15062 0.35969 0.0
C43 C 0.15445 0.19186 0.3623 0.0
N44 N 0.13576 0.17697 0.37973 0.0
C45 C 0.21062 0.21374 0.3958 0.0
C46 C 0.23073 0.22967 0.37803 0.0
C47 C 0.20251 0.21848 0.3612 0.0
C48 C 0.16257 0.18704 0.39598 0.0
H49 H 0.13283 0.18352 0.34935 0.0
C50 C 0.02872 0.12699 0.34469 0.0
O51 O 0.98099 0.98682 0.34417 0.0
O52 O 0.05669 0.02973 0.34264 0.0
N53 N 0.09423 0.14147 0.41139 0.0
C54 C 0.06949 0.12137 0.42718 0.0
C55 C 0.09256 0.12849 0.44518 0.0
C56 C 0.14066 0.15672 0.44679 0.0
C57 C 0.16539 0.17694 0.43032 0.0
C58 C 0.14054 0.1686 0.41278 0.0
H59 H 0.03244 0.10022 0.42606 0.0
O60 O 0.03741 0.01101 0.3817 0.0
O61 O 0.07024 0.08585 0.37814 0.0
O62 O 0.97136 0.04082 0.37862 0.0
O63 O 0.00756 0.11054 0.39334 0.0
C64 C 0.21372 0.20495 0.4306 0.0
C65 C 0.23634 0.22302 0.41333 0.0
H66 H 0.26777 0.25031 0.37713 0.0
H67 H 0.21777 0.23052 0.34742 0.0
H68 H 0.07328 0.11265 0.45782 0.0
H69 H 0.15823 0.16262 0.46075 0.0
H70 H 0.2339 0.21245 0.44397 0.0
H71 H 0.27356 0.24383 0.41368 0.0
Mn72 Mn 0.0299 0.03068 0.69772 0.0
Mn73 Mn 0.97442 0.07613 0.72069 0.0
C74 C 0.06488 0.07889 0.72445 0.0
C75 C 0.07699 0.03119 0.67366 0.0
C76 C 0.95264 0.97815 0.72568 0.0
O77 O 0.97902 0.02042 0.67812 0.0
O78 O 0.94666 0.05407 0.6944 0.0
C79 C 0.00199 0.15678 0.69626 0.0
N80 N 0.99938 0.13882 0.71398 0.0
C81 C 0.02966 0.2129 0.72957 0.0
C82 C 0.0326 0.23226 0.7115 0.0
C83 C 0.01898 0.20411 0.69477 0.0
C84 C 0.01319 0.16569 0.73012 0.0
H85 H 0.99102 0.13512 0.6834 0.0
C86 C 0.94931 0.03314 0.67948 0.0
O87 O 0.04758 0.99354 0.68168 0.0
O88 O 0.0784 0.0687 0.67931 0.0
N89 N 0.9968 0.09931 0.7463 0.0
C90 C 0.99339 0.07547 0.76251 0.0
C91 C 0.00518 0.0984 0.78053 0.0
C92 C 0.01964 0.14536 0.78171 0.0
C93 C 0.02354 0.16934 0.76481 0.0
C94 C 0.01117 0.14462 0.74728 0.0
H95 H 0.98112 0.0391 0.76172 0.0
O96 O 0.07778 0.0504 0.71892 0.0
O97 O 0.03228 0.07919 0.71392 0.0
O98 O 0.98274 0.98018 0.71441 0.0
O99 O 0.94651 0.01196 0.72892 0.0
C100 C 0.03882 0.21667 0.76467 0.0
C101 C 0.0424 0.23855 0.74705 0.0
H102 H 0.04535 0.26869 0.7103 0.0
H103 H 0.0212 0.2188 0.68077 0.0
H104 H 0.00237 0.07978 0.79352 0.0
H105 H 0.02768 0.16266 0.79568 0.0
H106 H 0.04832 0.23669 0.77802 0.0
H107 H 0.05493 0.27508 0.7471 0.0
H108 H 0.99569 0.71263 0.20158 0.0
N109 N 0.07816 0.7157 0.19818 0.0
H110 H 0.97729 0.75184 0.22642 0.0
H111 H 0.12684 0.75588 0.23061 0.0
H112 H 0.10859 0.79522 0.25564 0.0
H113 H 0.14508 0.79655 0.18723 0.0
H114 H 0.1426 0.84158 0.16018 0.0
H115 H 0.01015 0.68551 0.16977 0.0
H116 H 0.00742 0.7303 0.14265 0.0
H117 H 0.99974 0.64199 0.2124 0.0
H118 H 0.12054 0.67862 0.18009 0.0
H119 H 0.97846 0.5621 0.21037 0.0
H120 H 0.09753 0.59778 0.17676 0.0
H121 H 0.91539 0.30239 0.20205 0.0
H122 H 0.91804 0.25787 0.22929 0.0
H123 H 0.05461 0.36822 0.24566 0.0
H124 H 0.05198 0.41205 0.21854 0.0
H125 H 0.06272 0.37746 0.18785 0.0
H126 H 0.07865 0.33625 0.16298 0.0
H127 H 0.95523 0.30928 0.13094 0.0
H128 H 0.93816 0.34895 0.15634 0.0
H129 H 0.92796 0.41606 0.19044 0.0
H130 H 0.9491 0.49673 0.19117 0.0
H131 H 0.09314 0.53605 0.19267 0.0
N132 N 0.98334 0.38148 0.19006 0.0
H133 H 0.07123 0.45544 0.19042 0.0
C134 C 0.06295 0.73156 0.21421 0.0
C135 C 0.02028 0.73 0.21345 0.0
C136 C 0.00985 0.75259 0.22762 0.0
C137 C 0.04168 0.77699 0.24287 0.0
C138 C 0.08322 0.77644 0.24414 0.0
C139 C 0.09373 0.75402 0.22989 0.0
C140 C 0.07807 0.73779 0.18048 0.0
C141 C 0.11538 0.78161 0.1773 0.0
C142 C 0.11372 0.80733 0.16198 0.0
C143 C 0.07466 0.78955 0.14942 0.0
C144 C 0.03807 0.74472 0.15204 0.0
C145 C 0.0396 0.71911 0.16751 0.0
C146 C 0.06236 0.66707 0.19649 0.0
C147 C 0.02164 0.63315 0.20464 0.0
C148 C 0.00908 0.58684 0.20329 0.0
C149 C 0.03617 0.57292 0.19341 0.0
C150 C 0.0762 0.60686 0.18488 0.0
C151 C 0.08923 0.65321 0.18658 0.0
C152 C 0.98321 0.36055 0.20815 0.0
C153 C 0.9454 0.31734 0.21182 0.0
C154 C 0.94701 0.29197 0.22734 0.0
C155 C 0.98678 0.30936 0.23946 0.0
C156 C 0.02379 0.35363 0.23637 0.0
C157 C 0.02207 0.37902 0.2209 0.0
C158 C 0.99857 0.36556 0.17411 0.0
C159 C 0.03924 0.36324 0.17544 0.0
C160 C 0.04844 0.33973 0.16122 0.0
C161 C 0.01798 0.31949 0.1452 0.0
C162 C 0.97926 0.32479 0.14317 0.0
C163 C 0.96952 0.34739 0.1576 0.0
C164 C 0.9978 0.42964 0.19065 0.0
C165 C 0.96405 0.44228 0.19086 0.0
C166 C 0.97634 0.48852 0.19145 0.0
C167 C 0.02299 0.52343 0.19218 0.0
C168 C 0.05686 0.51049 0.19186 0.0
C169 C 0.04442 0.46417 0.19086 0.0
H170 H 0.66794 0.03391 0.5506 0.0
N171 N 0.62591 0.9613 0.52459 0.0
H172 H 0.72118 0.04276 0.57713 0.0
H173 H 0.64472 0.89853 0.53759 0.0
H174 H 0.69823 0.90716 0.56426 0.0
H175 H 0.61558 0.91224 0.4928 0.0
H176 H 0.66833 0.93457 0.46611 0.0
H177 H 0.69722 0.04803 0.51838 0.0
H178 H 0.75034 0.07003 0.49211 0.0
H179 H 0.62432 0.04199 0.52558 0.0
H180 H 0.53932 0.89484 0.52653 0.0
H181 H 0.55639 0.04969 0.52865 0.0
H182 H 0.47076 0.90173 0.52836 0.0
H183 H 0.25606 0.92187 0.5413 0.0
H184 H 0.21769 0.9374 0.5672 0.0
H185 H 0.33944 0.06989 0.57818 0.0
H186 H 0.3777 0.05389 0.55206 0.0
H187 H 0.27998 0.92415 0.49968 0.0
H188 H 0.24424 0.94528 0.47369 0.0
H189 H 0.32993 0.0883 0.49094 0.0
H190 H 0.36342 0.06625 0.5175 0.0
H191 H 0.41944 0.04259 0.51187 0.0
H192 H 0.49023 0.04004 0.51204 0.0
H193 H 0.42919 0.9218 0.54832 0.0
N194 N 0.33759 0.97872 0.52764 0.0
H195 H 0.3572 0.92284 0.54702 0.0
C196 C 0.65218 0.96533 0.54205 0.0
C197 C 0.67365 0.00575 0.55358 0.0
C198 C 0.70446 0.01095 0.56869 0.0
C199 C 0.71421 0.97582 0.57265 0.0
C200 C 0.69122 0.93472 0.56163 0.0
C201 C 0.66066 0.9297 0.54644 0.0
C202 C 0.6526 0.97811 0.50766 0.0
C203 C 0.64425 0.94709 0.49242 0.0
C204 C 0.67431 0.95985 0.47724 0.0
C205 C 0.71357 0.00382 0.47723 0.0
C206 C 0.72051 0.03577 0.49192 0.0
C207 C 0.69005 0.0232 0.50693 0.0
C208 C 0.58685 0.96765 0.52611 0.0
C209 C 0.59104 0.01129 0.5265 0.0
C210 C 0.55192 0.01559 0.52803 0.0
C211 C 0.50778 0.97636 0.5289 0.0
C212 C 0.50402 0.93285 0.52826 0.0
C213 C 0.54312 0.92869 0.52701 0.0
C214 C 0.31952 0.98657 0.54484 0.0
C215 C 0.27469 0.95387 0.54955 0.0
C216 C 0.25277 0.96299 0.56418 0.0
C217 C 0.27541 0.00509 0.5745 0.0
C218 C 0.32126 0.03716 0.57043 0.0
C219 C 0.34313 0.02809 0.55558 0.0
C220 C 0.3245 0.99347 0.51037 0.0
C221 C 0.2917 0.96009 0.49751 0.0
C222 C 0.27143 0.97236 0.48263 0.0
C223 C 0.28391 0.01858 0.48023 0.0
C224 C 0.31879 0.05232 0.49255 0.0
C225 C 0.33849 0.03987 0.50761 0.0
C226 C 0.38225 0.98228 0.52926 0.0
C227 C 0.42095 0.0161 0.51993 0.0
C228 C 0.46197 0.01485 0.52016 0.0
C229 C 0.46557 0.98031 0.52996 0.0
C230 C 0.42754 0.94815 0.54013 0.0
C231 C 0.38641 0.94896 0.53961 0.0
H232 H 0.72908 0.72205 0.85973 0.0
N233 N 0.71243 0.63322 0.8595 0.0
H234 H 0.76641 0.77905 0.88518 0.0
H235 H 0.73719 0.62129 0.89491 0.0
H236 H 0.77112 0.67779 0.92159 0.0
H237 H 0.79112 0.64762 0.84551 0.0
H238 H 0.8301 0.69347 0.81774 0.0
H239 H 0.67364 0.66289 0.83179 0.0
H240 H 0.71251 0.70919 0.80444 0.0
H241 H 0.64418 0.6524 0.86748 0.0
H242 H 0.66967 0.54335 0.85202 0.0
H243 H 0.56243 0.5974 0.86909 0.0
H244 H 0.58708 0.48795 0.85258 0.0
H245 H 0.33499 0.43385 0.89304 0.0
H246 H 0.29121 0.38647 0.91971 0.0
H247 H 0.32772 0.28515 0.90375 0.0
H248 H 0.37015 0.33189 0.87701 0.0
H249 H 0.3908 0.35299 0.84434 0.0
H250 H 0.34031 0.29957 0.81867 0.0
H251 H 0.25219 0.35826 0.82178 0.0
H252 H 0.3019 0.41013 0.84794 0.0
H253 H 0.41335 0.49584 0.85282 0.0
H254 H 0.49553 0.54999 0.85017 0.0
H255 H 0.52603 0.44944 0.87372 0.0
N256 N 0.37341 0.41112 0.86548 0.0
H257 H 0.444 0.39504 0.87534 0.0
C258 C 0.73127 0.6672 0.87513 0.0
C259 C 0.73852 0.71184 0.873 0.0
C260 C 0.75934 0.74459 0.88789 0.0
C261 C 0.77197 0.73342 0.90566 0.0
C262 C 0.76292 0.68818 0.90804 0.0
C263 C 0.74312 0.65563 0.89288 0.0
C264 C 0.72962 0.65176 0.84088 0.0
C265 C 0.77329 0.65983 0.83623 0.0
C266 C 0.79563 0.68638 0.82049 0.0
C267 C 0.77467 0.70555 0.80904 0.0
C268 C 0.72951 0.69468 0.81285 0.0
C269 C 0.70715 0.66804 0.82858 0.0
C270 C 0.66336 0.60184 0.85989 0.0
C271 C 0.63223 0.61658 0.86437 0.0
C272 C 0.58516 0.58499 0.86507 0.0
C273 C 0.5679 0.53803 0.861 0.0
C274 C 0.59908 0.52361 0.85617 0.0
C275 C 0.64625 0.55522 0.85568 0.0
C276 C 0.35594 0.38672 0.88302 0.0
C277 C 0.33444 0.40195 0.89564 0.0
C278 C 0.3095 0.37484 0.91087 0.0
C279 C 0.30559 0.33179 0.91372 0.0
C280 C 0.32947 0.31781 0.90175 0.0
C281 C 0.35426 0.34487 0.88652 0.0
C282 C 0.34958 0.38511 0.84819 0.0
C283 C 0.36091 0.35466 0.83933 0.0
C284 C 0.33215 0.32432 0.82457 0.0
C285 C 0.29181 0.32415 0.8184 0.0
C286 C 0.28241 0.35678 0.82649 0.0
C287 C 0.31092 0.38673 0.84129 0.0
C288 C 0.42235 0.44169 0.86448 0.0
C289 C 0.43792 0.48562 0.85737 0.0
C290 C 0.48494 0.51659 0.85601 0.0
C291 C 0.51767 0.50438 0.8619 0.0
C292 C 0.50193 0.45998 0.86885 0.0
C293 C 0.45476 0.4288 0.86999 0.0
C294 C 0.97062 0.12615 0.06913 0.0
C295 C 0.009 0.12475 0.06274 0.0
C296 C 0.97533 0.15766 0.08355 0.0
C297 C 0.01974 0.18959 0.09133 0.0
C298 C 0.05862 0.18786 0.08516 0.0
C299 C 0.05268 0.15492 0.07109 0.0
C300 C 0.93282 0.15743 0.09012 0.0
C301 C 0.10658 0.22199 0.09281 0.0
C302 C 0.02663 0.29759 0.11182 0.0
C303 C 0.02396 0.28923 0.13157 0.0
C304 C 0.028 0.2666 0.09863 0.0
C305 C 0.02517 0.22571 0.10536 0.0
C306 C 0.02352 0.21773 0.12537 0.0
C307 C 0.02347 0.24993 0.13827 0.0
C308 C 0.03089 0.27687 0.07744 0.0
C309 C 0.01927 0.17408 0.13309 0.0
H310 H 0.93679 0.1027 0.06274 0.0
H311 H 0.08243 0.15417 0.06598 0.0
H312 H 0.93153 0.15579 0.10605 0.0
H313 H 0.93404 0.1897 0.08596 0.0
H314 H 0.90061 0.12803 0.08376 0.0
H315 H 0.1329 0.21466 0.08724 0.0
H316 H 0.11537 0.25707 0.08859 0.0
H317 H 0.10833 0.22194 0.10877 0.0
H318 H 0.02711 0.32812 0.10671 0.0
H319 H 0.02088 0.24336 0.15357 0.0
H320 H 0.9979 0.2523 0.0698 0.0
H321 H 0.05834 0.27251 0.07106 0.0
H322 H 0.03803 0.31227 0.07479 0.0
H323 H 0.98557 0.14441 0.12817 0.0
H324 H 0.02177 0.17464 0.14908 0.0
H325 H 0.04645 0.16832 0.1274 0.0
C326 C 0.90008 0.01505 0.40589 0.0
C327 C 0.92993 0.06 0.40021 0.0
C328 C 0.86264 0.00509 0.41736 0.0
C329 C 0.85433 0.04075 0.42284 0.0
C330 C 0.8831 0.08574 0.41632 0.0
C331 C 0.92093 0.09495 0.4053 0.0
C332 C 0.83335 0.95689 0.42437 0.0
C333 C 0.87476 0.12447 0.42146 0.0
C334 C 0.73818 0.00756 0.44326 0.0
C335 C 0.74943 0.01481 0.46305 0.0
C336 C 0.77208 0.01648 0.4299 0.0
C337 C 0.81791 0.03187 0.43661 0.0
C338 C 0.82924 0.03894 0.45662 0.0
C339 C 0.79495 0.03074 0.46957 0.0
C340 C 0.75896 0.00955 0.40866 0.0
C341 C 0.87748 0.05451 0.46439 0.0
H342 H 0.90715 0.98804 0.40208 0.0
H343 H 0.94371 0.12967 0.40076 0.0
H344 H 0.83747 0.95689 0.44028 0.0
H345 H 0.79642 0.9442 0.42085 0.0
H346 H 0.84275 0.93258 0.41797 0.0
H347 H 0.89729 0.15622 0.41363 0.0
H348 H 0.83829 0.1142 0.41812 0.0
H349 H 0.88133 0.13238 0.43715 0.0
H350 H 0.70294 0.99528 0.43825 0.0
H351 H 0.80347 0.03566 0.48491 0.0
H352 H 0.76554 0.98312 0.40243 0.0
H353 H 0.78058 0.04188 0.40105 0.0
H354 H 0.72215 0.9987 0.40579 0.0
H355 H 0.88827 0.02997 0.45963 0.0
H356 H 0.88032 0.05733 0.48037 0.0
H357 H 0.90202 0.08844 0.45858 0.0
C358 C 0.89397 0.93283 0.74995 0.0
C359 C 0.92429 0.93495 0.73602 0.0
C360 C 0.86867 0.89313 0.76056 0.0
C361 C 0.87361 0.85442 0.75716 0.0
C362 C 0.90321 0.85581 0.74281 0.0
C363 C 0.92826 0.89606 0.73244 0.0
C364 C 0.8375 0.89304 0.77577 0.0
C365 C 0.90925 0.81515 0.73875 0.0
C366 C 0.8468 0.77529 0.79932 0.0
C367 C 0.80141 0.74063 0.79464 0.0
C368 C 0.87117 0.81166 0.78693 0.0
C369 C 0.84966 0.81358 0.76941 0.0
C370 C 0.80445 0.77793 0.76425 0.0
C371 C 0.78082 0.74189 0.77695 0.0
C372 C 0.9193 0.84906 0.79299 0.0
C373 C 0.78051 0.77866 0.74563 0.0
H374 H 0.89052 0.96255 0.75287 0.0
H375 H 0.95138 0.89714 0.72166 0.0
H376 H 0.80209 0.86358 0.7732 0.0
H377 H 0.84995 0.88889 0.79018 0.0
H378 H 0.83597 0.92518 0.77607 0.0
H379 H 0.9313 0.82066 0.72632 0.0
H380 H 0.92517 0.80849 0.75162 0.0
H381 H 0.87526 0.78388 0.73575 0.0
H382 H 0.86274 0.77508 0.8131 0.0
H383 H 0.74592 0.715 0.77316 0.0
H384 H 0.91973 0.88186 0.79533 0.0
H385 H 0.94346 0.85452 0.78144 0.0
H386 H 0.93217 0.841 0.80646 0.0
H387 H 0.77471 0.80826 0.74595 0.0
H388 H 0.74676 0.74672 0.74306 0.0
H389 H 0.80249 0.78323 0.7333 0.0
C390 C 0.08594 0.96134 0.06751 0.0
C391 C 0.04309 0.95861 0.06496 0.0
C392 C 0.09238 0.93376 0.08085 0.0
C393 C 0.05526 0.90322 0.09207 0.0
C394 C 0.01207 0.90068 0.08968 0.0
C395 C 0.00644 0.92819 0.07607 0.0
C396 C 0.13881 0.93709 0.08286 0.0
C397 C 0.97183 0.86901 0.10156 0.0
C398 C 0.05593 0.80198 0.11555 0.0
C399 C 0.071 0.81886 0.13446 0.0
C400 C 0.05147 0.82937 0.10148 0.0
C401 C 0.06168 0.8744 0.10656 0.0
C402 C 0.07694 0.89156 0.12564 0.0
C403 C 0.08164 0.86367 0.13932 0.0
C404 C 0.03562 0.81008 0.08122 0.0
C405 C 0.0875 0.9391 0.1317 0.0
H406 H 0.11432 0.98459 0.05888 0.0
H407 H 0.97326 0.92598 0.07421 0.0
H408 H 0.15313 0.94788 0.09782 0.0
H409 H 0.13505 0.90292 0.08005 0.0
H410 H 0.16388 0.96191 0.07281 0.0
H411 H 0.94065 0.8714 0.09806 0.0
H412 H 0.96323 0.83297 0.09912 0.0
H413 H 0.98115 0.87744 0.11711 0.0
H414 H 0.04797 0.76745 0.11174 0.0
H415 H 0.09265 0.87658 0.15401 0.0
H416 H 0.06116 0.83294 0.07086 0.0
H417 H 0.0026 0.80854 0.07738 0.0
H418 H 0.03066 0.77509 0.07945 0.0
H419 H 0.11435 0.9651 0.12261 0.0
H420 H 0.0996 0.9475 0.14704 0.0
H421 H 0.05623 0.94198 0.12955 0.0
C422 C 0.08754 0.0289 0.41894 0.0
C423 C 0.10208 0.05706 0.40295 0.0
C424 C 0.11946 0.02691 0.43178 0.0
C425 C 0.16714 0.05387 0.42854 0.0
C426 C 0.18205 0.08357 0.41273 0.0
C427 C 0.14921 0.08403 0.39986 0.0
C428 C 0.10198 0.9942 0.44826 0.0
C429 C 0.23255 0.11359 0.40902 0.0
C430 C 0.24666 0.06445 0.47083 0.0
C431 C 0.25793 0.03086 0.46604 0.0
C432 C 0.21868 0.07359 0.45844 0.0
C433 C 0.20084 0.04816 0.44091 0.0
C434 C 0.2129 0.01497 0.43573 0.0
C435 C 0.24161 0.00705 0.44826 0.0
C436 C 0.20734 0.10973 0.46433 0.0
C437 C 0.19406 0.98656 0.41729 0.0
H438 H 0.05096 0.00728 0.42104 0.0
H439 H 0.16032 0.10427 0.38702 0.0
H440 H 0.11147 0.96734 0.44635 0.0
H441 H 0.11831 0.01266 0.46211 0.0
H442 H 0.064 0.97717 0.44925 0.0
H443 H 0.23848 0.13681 0.39682 0.0
H444 H 0.25114 0.13469 0.42211 0.0
H445 H 0.24777 0.09192 0.40572 0.0
H446 H 0.25833 0.08261 0.48463 0.0
H447 H 0.25068 0.98158 0.44424 0.0
H448 H 0.16967 0.09392 0.46585 0.0
H449 H 0.21755 0.13549 0.45296 0.0
H450 H 0.22512 0.1276 0.47814 0.0
H451 H 0.15594 0.96581 0.41752 0.0
H452 H 0.20769 0.96299 0.41513 0.0
H453 H 0.20272 0.00922 0.40475 0.0
C454 C 0.10956 0.10189 0.75573 0.0
C455 C 0.09279 0.11404 0.73947 0.0
C456 C 0.14128 0.13549 0.76895 0.0
C457 C 0.1565 0.18237 0.76583 0.0
C458 C 0.139 0.19469 0.74956 0.0
C459 C 0.1081 0.1604 0.73636 0.0
C460 C 0.15939 0.1209 0.78598 0.0
C461 C 0.1536 0.24415 0.74591 0.0
C462 C 0.21064 0.26679 0.80828 0.0
C463 C 0.2577 0.28803 0.80472 0.0
C464 C 0.17753 0.23232 0.79585 0.0
C465 C 0.19154 0.21855 0.77934 0.0
C466 C 0.2391 0.23933 0.77577 0.0
C467 C 0.27165 0.27389 0.7885 0.0
C468 C 0.12751 0.21144 0.80027 0.0
C469 C 0.25558 0.22496 0.75854 0.0
H470 H 0.09846 0.06604 0.75789 0.0
H471 H 0.09685 0.16995 0.72331 0.0
H472 H 0.19731 0.13676 0.7854 0.0
H473 H 0.15225 0.13314 0.79959 0.0
H474 H 0.1438 0.08304 0.78643 0.0
H475 H 0.13567 0.24783 0.73294 0.0
H476 H 0.14627 0.2594 0.75855 0.0
H477 H 0.19127 0.26423 0.74396 0.0
H478 H 0.19958 0.27676 0.82101 0.0
H479 H 0.30797 0.29018 0.78566 0.0
H480 H 0.1096 0.17348 0.7989 0.0
H481 H 0.11119 0.22378 0.78969 0.0
H482 H 0.1226 0.22111 0.81495 0.0
H483 H 0.29374 0.24361 0.75808 0.0
H484 H 0.24139 0.23142 0.74507 0.0
H485 H 0.24284 0.18756 0.75882 0.0
C486 C 0.88132 0.03515 0.66497 0.0
C487 C 0.91569 0.02343 0.66318 0.0
C488 C 0.84898 0.02637 0.64993 0.0
C489 C 0.85094 0.00547 0.63255 0.0
C490 C 0.88546 0.99356 0.63054 0.0
C491 C 0.9174 0.0026 0.6459 0.0
C492 C 0.81268 0.03954 0.65267 0.0
C493 C 0.88871 0.97143 0.61215 0.0
C494 C 0.7412 0.9483 0.60087 0.0
C495 C 0.74958 0.98276 0.58773 0.0
C496 C 0.77432 0.9548 0.61529 0.0
C497 C 0.81693 0.99662 0.61648 0.0
C498 C 0.82591 0.03115 0.603 0.0
C499 C 0.79207 0.02386 0.58884 0.0
C500 C 0.76329 0.91736 0.62952 0.0
C501 C 0.87102 0.07609 0.60372 0.0
H502 H 0.87946 0.05124 0.67821 0.0
H503 H 0.94378 0.99346 0.64432 0.0
H504 H 0.81572 0.06454 0.64169 0.0
H505 H 0.77784 0.00885 0.65061 0.0
H506 H 0.81551 0.05501 0.66718 0.0
H507 H 0.9175 0.9642 0.61288 0.0
H508 H 0.85606 0.93875 0.60905 0.0
H509 H 0.89377 0.99417 0.59988 0.0
H510 H 0.70831 0.91658 0.60013 0.0
H511 H 0.79901 0.05028 0.5785 0.0
H512 H 0.76262 0.93001 0.64423 0.0
H513 H 0.79048 0.9079 0.62978 0.0
H514 H 0.72952 0.88605 0.62607 0.0
H515 H 0.87485 0.09495 0.61745 0.0
H516 H 0.87356 0.0984 0.59158 0.0
H517 H 0.90024 0.06964 0.60333 0.0
C518 C 0.95189 0.95247 0.96748 0.0
C519 C 0.93953 0.95531 0.98624 0.0
C520 C 0.92065 0.918 0.95446 0.0
C521 C 0.87713 0.88394 0.96077 0.0
C522 C 0.86422 0.88733 0.97967 0.0
C523 C 0.8955 0.92341 0.99213 0.0
C524 C 0.93476 0.91731 0.93411 0.0
C525 C 0.81878 0.85129 0.98719 0.0
C526 C 0.78621 0.80534 0.92306 0.0
C527 C 0.79575 0.76949 0.92122 0.0
C528 C 0.81214 0.84263 0.93586 0.0
C529 C 0.84696 0.84319 0.94801 0.0
C530 C 0.8548 0.8057 0.94719 0.0
C531 C 0.82979 0.76979 0.93358 0.0
C532 C 0.80281 0.88181 0.93596 0.0
C533 C 0.89057 0.8041 0.96032 0.0
H534 H 0.98618 0.9771 0.96306 0.0
H535 H 0.8865 0.92525 0.00683 0.0
H536 H 0.93986 0.88759 0.93187 0.0
H537 H 0.90718 0.91322 0.92368 0.0
H538 H 0.96719 0.94916 0.93086 0.0
H539 H 0.81224 0.8612 0.00153 0.0
H540 H 0.78997 0.84492 0.97705 0.0
H541 H 0.8187 0.81847 0.98847 0.0
H542 H 0.75889 0.80488 0.91421 0.0
H543 H 0.83801 0.74272 0.93231 0.0
H544 H 0.83556 0.91488 0.93532 0.0
H545 H 0.78625 0.88171 0.9495 0.0
H546 H 0.7797 0.87947 0.92368 0.0
H547 H 0.92548 0.83105 0.95636 0.0
H548 H 0.88876 0.77032 0.95946 0.0
H549 H 0.88605 0.81119 0.97548 0.0
C550 C 0.97902 0.91947 0.31762 0.0
C551 C 0.01858 0.96229 0.32156 0.0
C552 C 0.97978 0.88756 0.30473 0.0
C553 C 0.02096 0.89896 0.29544 0.0
C554 C 0.06066 0.94257 0.29903 0.0
C555 C 0.05904 0.9736 0.3121 0.0
C556 C 0.93684 0.84132 0.30135 0.0
C557 C 0.10509 0.95624 0.28925 0.0
C558 C 0.04273 0.80587 0.2764 0.0
C559 C 0.03312 0.80562 0.2566 0.0
C560 C 0.0376 0.83513 0.28929 0.0
C561 C 0.02298 0.86518 0.28218 0.0
C562 C 0.01238 0.86443 0.26225 0.0
C563 C 0.01745 0.83457 0.24972 0.0
C564 C 0.04876 0.83457 0.31047 0.0
C565 C 0.99711 0.89622 0.25408 0.0
H566 H 0.94769 0.91043 0.32494 0.0
H567 H 0.08972 0.00666 0.31503 0.0
H568 H 0.92692 0.83543 0.28576 0.0
H569 H 0.94367 0.81377 0.30591 0.0
H570 H 0.90733 0.83815 0.30935 0.0
H571 H 0.13239 0.992 0.2931 0.0
H572 H 0.11784 0.93275 0.29337 0.0
H573 H 0.09907 0.95309 0.27338 0.0
H574 H 0.05445 0.78326 0.28179 0.0
H575 H 0.01059 0.835 0.2344 0.0
H576 H 0.0192 0.82897 0.31906 0.0
H577 H 0.07857 0.86829 0.31515 0.0
H578 H 0.05719 0.8074 0.31382 0.0
H579 H 0.96681 0.89221 0.26167 0.0
H580 H 0.98801 0.88979 0.23841 0.0
H581 H 0.02509 0.93238 0.25638 0.0
C582 C 0.10969 0.99099 0.65535 0.0
C583 C 0.10829 0.03116 0.65913 0.0
C584 C 0.13942 0.9901 0.64186 0.0
C585 C 0.16825 0.03027 0.63175 0.0
C586 C 0.16717 0.07104 0.63553 0.0
C587 C 0.1373 0.07106 0.64925 0.0
C588 C 0.13966 0.94597 0.63832 0.0
C589 C 0.19711 0.11442 0.6249 0.0
C590 C 0.2689 0.0318 0.60747 0.0
C591 C 0.25006 0.01567 0.58884 0.0
C592 C 0.24321 0.03816 0.6215 0.0
C593 C 0.19793 0.02865 0.61666 0.0
C594 C 0.17964 0.01429 0.59762 0.0
C595 C 0.20583 0.00779 0.58399 0.0
C596 C 0.26378 0.05324 0.64168 0.0
C597 C 0.13178 0.00435 0.59179 0.0
H598 H 0.08761 0.96007 0.663 0.0
H599 H 0.13643 0.10224 0.65213 0.0
H600 H 0.1286 0.93393 0.62316 0.0
H601 H 0.17508 0.95193 0.64059 0.0
H602 H 0.11648 0.91828 0.64793 0.0
H603 H 0.19316 0.14358 0.62989 0.0
H604 H 0.23382 0.12423 0.62685 0.0
H605 H 0.18816 0.1084 0.60924 0.0
H606 H 0.30305 0.03782 0.61125 0.0
H607 H 0.1915 0.99605 0.56948 0.0
H608 H 0.24416 0.02512 0.65173 0.0
H609 H 0.26116 0.08322 0.64653 0.0
H610 H 0.30051 0.06251 0.64276 0.0
H611 H 0.10595 0.97431 0.59964 0.0
H612 H 0.12404 0.99692 0.57608 0.0
H613 H 0.1276 0.03394 0.59574 0.0
C614 C 0.14185 0.14884 0.99028 0.0
C615 C 0.09781 0.1438 0.98846 0.0
C616 C 0.17823 0.18093 0.97943 0.0
C617 C 0.1704 0.20855 0.96639 0.0
C618 C 0.12641 0.20446 0.96481 0.0
C619 C 0.09072 0.17226 0.97587 0.0
C620 C 0.22472 0.18444 0.98156 0.0
C621 C 0.11665 0.23321 0.95101 0.0
C622 C 0.27035 0.3158 0.94621 0.0
C623 C 0.27343 0.29986 0.92792 0.0
C624 C 0.23768 0.28625 0.9591 0.0
C625 C 0.20728 0.23977 0.95352 0.0
C626 C 0.21084 0.22332 0.93523 0.0
C627 C 0.24381 0.25352 0.92267 0.0
C628 C 0.23509 0.30493 0.97854 0.0
C629 C 0.17894 0.17405 0.92869 0.0
H630 H 0.14788 0.12729 2e-05 0.0
H631 H 0.05694 0.16879 0.97432 0.0
H632 H 0.23289 0.17356 0.96785 0.0
H633 H 0.25196 0.22057 0.98466 0.0
H634 H 0.22605 0.16276 0.99324 0.0
H635 H 0.08128 0.22749 0.95217 0.0
H636 H 0.1417 0.27019 0.95378 0.0
H637 H 0.12081 0.22486 0.936 0.0
H638 H 0.29338 0.35147 0.9504 0.0
H639 H 0.24536 0.2411 0.90844 0.0
H640 H 0.23788 0.28396 0.99015 0.0
H641 H 0.2012 0.30273 0.97967 0.0
H642 H 0.26265 0.34125 0.98107 0.0
H643 H 0.18068 0.15043 0.93926 0.0
H644 H 0.18741 0.16624 0.91434 0.0
H645 H 0.14286 0.16678 0.92791 0.0
C646 C 0.03262 0.19776 0.33162 0.0
C647 C 0.02034 0.1516 0.32886 0.0
C648 C 0.02528 0.22195 0.31696 0.0
C649 C 0.00541 0.19967 0.29898 0.0
C650 C 0.99266 0.15308 0.29606 0.0
C651 C 1.00015 0.12953 0.31106 0.0
C652 C 0.03919 0.27156 0.32068 0.0
C653 C 0.97164 0.1283 0.27701 0.0
C654 C 0.95448 0.25487 0.26669 0.0
C655 C 0.99085 0.2805 0.25455 0.0
C656 C 0.95835 0.22767 0.28101 0.0
C657 C 0.99943 0.22585 0.28312 0.0
C658 C 0.03588 0.25097 0.27065 0.0
C659 C 0.03118 0.27805 0.25656 0.0
C660 C 0.91888 0.20161 0.29414 0.0
C661 C 0.08011 0.2497 0.27234 0.0
H662 H 0.048 0.21522 0.34532 0.0
H663 H 0.99056 0.09394 0.30874 0.0
H664 H 0.06596 0.29377 0.31059 0.0
H665 H 0.00919 0.27634 0.31801 0.0
H666 H 0.05293 0.28345 0.33565 0.0
H667 H 0.9627 0.09179 0.27718 0.0
H668 H 0.94001 0.12962 0.2733 0.0
H669 H 0.99606 0.14563 0.26542 0.0
H670 H 0.92331 0.2568 0.26523 0.0
H671 H 0.05904 0.29707 0.24695 0.0
H672 H 0.93015 0.21443 0.30921 0.0
H673 H 0.90813 0.16465 0.29376 0.0
H674 H 0.88858 0.2051 0.2901 0.0
H675 H 0.09744 0.26394 0.28663 0.0
H676 H 0.10434 0.26964 0.26099 0.0
H677 H 0.07257 0.2137 0.27132 0.0
loop_
_geom_bond_atom_site_label_1
_geom_bond_atom_site_label_2
_geom_bond_distance
_geom_bond_site_symmetry_2
_ccdc_geom_bond_type
Mn0 O5 2.095 . S
Mn0 O15 2.162 1_545 S
Mn0 O16 2.297 1_545 S
Mn0 O24 2.385 1_545 S
Mn0 O25 2.209 1_455 S
Mn0 O26 2.094 . S
Mn1 O6 2.121 . S
Mn1 N8 2.257 . S
Mn1 N17 2.282 1_554 S
Mn1 O25 2.215 . S
Mn1 O27 2.117 1_654 S
C2 O24 1.234 1_655 S
C2 O25 1.283 1_565 S
C3 O15 1.281 . S
C3 O16 1.236 . S
C4 O26 1.277 . S
C4 O27 1.258 1_554 S
O5 Mn0 2.095 . S
O5 C14 1.250 . S
O6 Mn1 2.121 . S
O6 C14 1.258 1_655 S
C7 N8 1.326 . S
C7 C11 1.460 . S
C7 H13 0.929 . S
N8 Mn1 2.257 . S
N8 C7 1.326 . S
N8 C12 1.362 1_554 S
C9 C10 1.258 . S
C9 C12 1.431 . S
C9 C29 1.449 . S
C10 C9 1.258 . S
C10 C11 1.477 1_556 S
C10 H30 0.931 . S
C11 C7 1.460 . S
C11 C10 1.477 1_554 S
C11 H31 0.930 . S
C12 N8 1.362 1_556 S
C12 C9 1.431 . S
C12 C22 1.476 . S
H13 C7 0.929 . S
C14 O5 1.250 . S
C14 O6 1.258 1_455 S
O15 Mn0 2.162 1_565 S
O15 C3 1.281 . S
O16 Mn0 2.297 1_565 S
O16 C3 1.236 . S
N17 Mn1 2.282 1_556 S
N17 C18 1.328 . S
N17 C22 1.318 . S
C18 N17 1.328 . S
C18 C19 1.457 . S
C18 H23 0.929 1_655 S
C19 C18 1.457 . S
C19 C20 1.291 . S
C19 H32 0.931 . S
C20 C19 1.291 . S
C20 C21 1.373 . S
C20 H33 0.929 1_545 S
C21 C20 1.373 . S
C21 C22 1.396 . S
C21 C28 1.403 . S
C22 C12 1.476 . S
C22 N17 1.318 . S
C22 C21 1.396 . S
H23 C18 0.929 1_455 S
O24 Mn0 2.385 1_565 S
O24 C2 1.234 1_455 S
O25 Mn0 2.209 1_655 S
O25 Mn1 2.215 . S
O25 C2 1.283 1_545 S
O26 Mn0 2.094 . S
O26 C4 1.277 . S
O27 Mn1 2.117 1_456 S
O27 C4 1.258 1_556 S
C28 C21 1.403 . S
C28 C29 1.399 . S
C28 H34 0.929 1_545 S
C29 C9 1.449 . S
C29 C28 1.399 . S
C29 H35 0.930 . S
H30 C10 0.931 . S
H31 C11 0.930 . S
H32 C19 0.931 . S
H33 C20 0.929 1_565 S
H34 C28 0.929 1_565 S
H35 C29 0.930 . S
Mn36 O41 2.095 . S
Mn36 O51 2.162 1_545 S
Mn36 O52 2.297 1_645 S
Mn36 O60 2.385 1_645 S
Mn36 O61 2.209 1_655 S
Mn36 O62 2.094 1_545 S
Mn37 O42 2.121 . S
Mn37 N44 2.257 . S
Mn37 N53 2.282 . S
Mn37 O61 2.215 . S
Mn37 O63 2.117 1_455 S
C38 O60 1.234 1_545 S
C38 O61 1.283 . S
C39 O51 1.280 1_455 S
C39 O52 1.236 . S
C40 O62 1.240 1_545 S
C40 O63 1.264 . S
O41 Mn36 2.095 . S
O41 C50 1.250 1_655 S
O42 Mn37 2.121 . S
O42 C50 1.258 . S
C43 N44 1.326 . S
C43 C47 1.460 . S
C43 H49 0.929 . S
N44 Mn37 2.257 . S
N44 C43 1.326 . S
N44 C48 1.362 . S
C45 C46 1.258 . S
C45 C48 1.431 . S
C45 C65 1.449 . S
C46 C45 1.258 . S
C46 C47 1.477 . S
C46 H66 0.931 . S
C47 C43 1.460 . S
C47 C46 1.477 . S
C47 H67 0.930 . S
C48 N44 1.362 . S
C48 C45 1.431 . S
C48 C58 1.476 . S
H49 C43 0.929 . S
C50 O41 1.250 1_455 S
C50 O42 1.258 . S
O51 Mn36 2.162 1_565 S
O51 C39 1.280 1_655 S
O52 Mn36 2.297 1_465 S
O52 C39 1.236 . S
N53 Mn37 2.282 . S
N53 C54 1.328 . S
N53 C58 1.318 . S
C54 N53 1.328 . S
C54 C55 1.457 . S
C54 H59 0.929 . S
C55 C54 1.457 . S
C55 C56 1.291 . S
C55 H68 0.931 . S
C56 C55 1.291 . S
C56 C57 1.373 . S
C56 H69 0.929 . S
C57 C56 1.373 . S
C57 C58 1.396 . S
C57 C64 1.403 . S
C58 C48 1.476 . S
C58 N53 1.318 . S
C58 C57 1.396 . S
H59 C54 0.929 . S
O60 Mn36 2.385 1_465 S
O60 C38 1.234 1_565 S
O61 Mn36 2.209 1_455 S
O61 Mn37 2.215 . S
O61 C38 1.283 . S
O62 Mn36 2.094 1_565 S
O62 C40 1.240 1_565 S
O63 Mn37 2.117 1_655 S
O63 C40 1.264 . S
C64 C57 1.403 . S
C64 C65 1.399 . S
C64 H70 0.929 . S
C65 C45 1.449 . S
C65 C64 1.399 . S
C65 H71 0.930 . S
H66 C46 0.931 . S
H67 C47 0.930 . S
H68 C55 0.931 . S
H69 C56 0.929 . S
H70 C64 0.929 . S
H71 C65 0.930 . S
Mn72 O77 2.095 1_455 S
Mn72 O87 2.162 1_545 S
Mn72 O88 2.297 . S
Mn72 O96 2.385 . S
Mn72 O97 2.209 . S
Mn72 O98 2.094 1_445 S
Mn73 O78 2.121 . S
Mn73 N80 2.257 . S
Mn73 N89 2.282 . S
Mn73 O97 2.215 1_655 S
Mn73 O99 2.117 1_545 S
C74 O96 1.234 . S
C74 O97 1.283 . S
C75 O87 1.281 1_545 S
C75 O88 1.236 . S
C76 O98 1.240 . S
C76 O99 1.264 . S
O77 Mn72 2.095 1_655 S
O77 C86 1.250 . S
O78 Mn73 2.121 . S
O78 C86 1.258 . S
C79 N80 1.326 . S
C79 C83 1.460 . S
C79 H85 0.929 . S
N80 Mn73 2.257 . S
N80 C79 1.326 . S
N80 C84 1.362 1_655 S
C81 C82 1.258 . S
C81 C84 1.431 . S
C81 C101 1.449 . S
C82 C81 1.258 . S
C82 C83 1.477 1_455 S
C82 H102 0.931 . S
C83 C79 1.460 . S
C83 C82 1.477 1_655 S
C83 H103 0.930 . S
C84 N80 1.362 1_455 S
C84 C81 1.431 . S
C84 C94 1.476 . S
H85 C79 0.929 . S
C86 O77 1.250 . S
C86 O78 1.258 . S
O87 Mn72 2.162 1_565 S
O87 C75 1.281 1_565 S
O88 Mn72 2.297 . S
O88 C75 1.236 . S
N89 Mn73 2.282 . S
N89 C90 1.328 1_655 S
N89 C94 1.318 1_655 S
C90 N89 1.328 1_455 S
C90 C91 1.457 . S
C90 H95 0.929 1_455 S
C91 C90 1.457 . S
C91 C92 1.291 . S
C91 H104 0.931 . S
C92 C91 1.291 . S
C92 C93 1.373 . S
C92 H105 0.929 . S
C93 C92 1.373 . S
C93 C94 1.396 . S
C93 C100 1.403 . S
C94 C84 1.476 . S
C94 N89 1.318 1_455 S
C94 C93 1.396 . S
H95 C90 0.929 1_655 S
O96 Mn72 2.385 . S
O96 C74 1.234 . S
O97 Mn72 2.209 . S
O97 Mn73 2.215 1_455 S
O97 C74 1.283 . S
O98 Mn72 2.094 1_665 S
O98 C76 1.240 . S
O99 Mn73 2.117 1_565 S
O99 C76 1.264 . S
C100 C93 1.403 . S
C100 C101 1.399 . S
C100 H106 0.929 . S
C101 C81 1.449 . S
C101 C100 1.399 . S
C101 H107 0.930 . S
H102 C82 0.931 . S
H103 C83 0.930 . S
H104 C91 0.931 . S
H105 C92 0.929 . S
H106 C100 0.929 . S
H107 C101 0.930 . S
H108 C135 0.929 . S
N109 C134 1.433 1_655 S
N109 C140 1.435 1_655 S
N109 C146 1.423 . S
H110 C136 0.930 . S
H111 C139 0.931 . S
H112 C138 0.929 . S
H113 C141 0.930 . S
H114 C142 0.932 . S
H115 C145 0.929 . S
H116 C144 0.931 . S
H117 C147 0.929 . S
H118 C151 0.932 . S
H119 C148 0.931 . S
H120 C150 0.929 . S
H121 C153 0.929 . S
H122 C154 0.930 . S
H123 C156 0.929 . S
H124 C157 0.931 . S
H125 C159 0.930 . S
H126 C160 0.932 . S
H127 C162 0.931 . S
H128 C163 0.929 . S
H129 C165 0.929 . S
H130 C166 0.931 . S
H131 C168 0.929 . S
N132 C152 1.433 1_655 S
N132 C158 1.435 1_655 S
N132 C164 1.423 . S
H133 C169 0.932 . S
C134 N109 1.433 1_455 S
C134 C135 1.363 1_455 S
C134 C139 1.370 . S
C135 H108 0.929 . S
C135 C134 1.363 1_655 S
C135 C136 1.385 . S
C136 H110 0.930 . S
C136 C135 1.385 . S
C136 C137 1.357 1_655 S
C137 C136 1.357 1_455 S
C137 C138 1.406 . S
C138 H112 0.929 . S
C138 C137 1.406 . S
C138 C139 1.391 . S
C139 H111 0.931 . S
C139 C134 1.370 . S
C139 C138 1.391 . S
C140 N109 1.435 1_455 S
C140 C141 1.358 . S
C140 C145 1.371 1_455 S
C141 H113 0.930 . S
C141 C140 1.358 . S
C141 C142 1.405 . S
C142 H114 0.932 . S
C142 C141 1.405 . S
C142 C143 1.383 . S
C143 C142 1.383 . S
C143 C144 1.393 1_455 S
C144 H116 0.931 . S
C144 C143 1.393 1_655 S
C144 C145 1.382 . S
C145 H115 0.929 . S
C145 C140 1.371 1_655 S
C145 C144 1.382 . S
C146 N109 1.423 . S
C146 C147 1.362 . S
C146 C151 1.388 1_655 S
C147 H117 0.929 . S
C147 C146 1.362 . S
C147 C148 1.376 . S
C148 H119 0.931 . S
C148 C147 1.376 . S
C148 C149 1.396 . S
C149 C148 1.396 . S
C149 C150 1.348 1_655 S
C149 C167 1.472 . S
C150 H120 0.929 . S
C150 C149 1.348 1_455 S
C150 C151 1.443 . S
C151 H118 0.932 . S
C151 C146 1.388 1_455 S
C151 C150 1.443 . S
C152 N132 1.433 1_455 S
C152 C153 1.363 1_455 S
C152 C157 1.370 . S
C153 H121 0.929 . S
C153 C152 1.363 1_655 S
C153 C154 1.385 . S
C154 H122 0.930 . S
C154 C153 1.385 . S
C154 C155 1.357 1_655 S
C155 C154 1.357 1_455 S
C155 C156 1.406 . S
C156 H123 0.929 . S
C156 C155 1.406 . S
C156 C157 1.391 . S
C157 H124 0.931 . S
C157 C152 1.370 . S
C157 C156 1.391 . S
C158 N132 1.435 1_455 S
C158 C159 1.358 . S
C158 C163 1.371 1_455 S
C159 H125 0.930 . S
C159 C158 1.358 . S
C159 C160 1.405 . S
C160 H126 0.932 . S
C160 C159 1.405 . S
C160 C161 1.383 . S
C161 C160 1.383 . S
C161 C162 1.393 1_455 S
C162 H127 0.931 . S
C162 C161 1.393 1_655 S
C162 C163 1.382 . S
C163 H128 0.929 . S
C163 C158 1.371 1_655 S
C163 C162 1.382 . S
C164 N132 1.423 . S
C164 C165 1.362 . S
C164 C169 1.388 1_655 S
C165 H129 0.929 . S
C165 C164 1.362 . S
C165 C166 1.376 . S
C166 H130 0.931 . S
C166 C165 1.376 . S
C166 C167 1.396 . S
C167 C149 1.472 . S
C167 C166 1.396 . S
C167 C168 1.348 1_655 S
C168 H131 0.929 . S
C168 C167 1.348 1_455 S
C168 C169 1.443 . S
C169 H133 0.932 . S
C169 C164 1.388 1_455 S
C169 C168 1.443 . S
H170 C197 0.929 . S
N171 C196 1.433 . S
N171 C202 1.435 . S
N171 C208 1.423 . S
H172 C198 0.930 . S
H173 C201 0.931 . S
H174 C200 0.929 . S
H175 C203 0.930 . S
H176 C204 0.932 . S
H177 C207 0.929 . S
H178 C206 0.931 . S
H179 C209 0.929 . S
H180 C213 0.932 . S
H181 C210 0.931 . S
H182 C212 0.929 . S
H183 C215 0.929 . S
H184 C216 0.930 . S
H185 C218 0.929 . S
H186 C219 0.931 . S
H187 C221 0.930 . S
H188 C222 0.932 . S
H189 C224 0.931 . S
H190 C225 0.929 . S
H191 C227 0.929 . S
H192 C228 0.931 . S
H193 C230 0.929 . S
N194 C214 1.433 . S
N194 C220 1.435 . S
N194 C226 1.423 . S
H195 C231 0.932 . S
C196 N171 1.433 . S
C196 C197 1.363 . S
C196 C201 1.370 . S
C197 H170 0.929 . S
C197 C196 1.363 . S
C197 C198 1.385 . S
C198 H172 0.930 . S
C198 C197 1.385 . S
C198 C199 1.357 . S
C199 C198 1.357 . S
C199 C200 1.406 . S
C200 H174 0.929 . S
C200 C199 1.406 . S
C200 C201 1.391 . S
C201 H173 0.931 . S
C201 C196 1.370 . S
C201 C200 1.391 . S
C202 N171 1.435 . S
C202 C203 1.358 . S
C202 C207 1.371 . S
C203 H175 0.930 . S
C203 C202 1.358 . S
C203 C204 1.405 . S
C204 H176 0.932 . S
C204 C203 1.405 . S
C204 C205 1.383 . S
C205 C204 1.383 . S
C205 C206 1.393 . S
C206 H178 0.931 . S
C206 C205 1.393 . S
C206 C207 1.382 . S
C207 H177 0.929 . S
C207 C202 1.371 . S
C207 C206 1.382 . S
C208 N171 1.423 . S
C208 C209 1.362 . S
C208 C213 1.388 . S
C209 H179 0.929 . S
C209 C208 1.362 . S
C209 C210 1.376 . S
C210 H181 0.931 . S
C210 C209 1.376 . S
C210 C211 1.396 . S
C211 C210 1.396 . S
C211 C212 1.348 . S
C211 C229 1.472 . S
C212 H182 0.929 . S
C212 C211 1.348 . S
C212 C213 1.443 . S
C213 H180 0.932 . S
C213 C208 1.388 . S
C213 C212 1.443 . S
C214 N194 1.433 . S
C214 C215 1.363 . S
C214 C219 1.370 . S
C215 H183 0.929 . S
C215 C214 1.363 . S
C215 C216 1.385 . S
C216 H184 0.930 . S
C216 C215 1.385 . S
C216 C217 1.357 . S
C217 C216 1.357 . S
C217 C218 1.406 . S
C218 H185 0.929 . S
C218 C217 1.406 . S
C218 C219 1.391 . S
C219 H186 0.931 . S
C219 C214 1.370 . S
C219 C218 1.391 . S
C220 N194 1.435 . S
C220 C221 1.358 . S
C220 C225 1.371 . S
C221 H187 0.930 . S
C221 C220 1.358 . S
C221 C222 1.405 . S
C222 H188 0.932 . S
C222 C221 1.405 . S
C222 C223 1.383 . S
C223 C222 1.383 . S
C223 C224 1.393 . S
C224 H189 0.931 . S
C224 C223 1.393 . S
C224 C225 1.382 . S
C225 H190 0.929 . S
C225 C220 1.371 . S
C225 C224 1.382 . S
C226 N194 1.423 . S
C226 C227 1.362 . S
C226 C231 1.388 . S
C227 H191 0.929 . S
C227 C226 1.362 . S
C227 C228 1.376 . S
C228 H192 0.931 . S
C228 C227 1.376 . S
C228 C229 1.396 . S
C229 C211 1.472 . S
C229 C228 1.396 . S
C229 C230 1.348 . S
C230 H193 0.929 . S
C230 C229 1.348 . S
C230 C231 1.443 . S
C231 H195 0.932 . S
C231 C226 1.388 . S
C231 C230 1.443 . S
H232 C259 0.929 . S
N233 C258 1.433 . S
N233 C264 1.435 . S
N233 C270 1.423 . S
H234 C260 0.930 . S
H235 C263 0.931 . S
H236 C262 0.929 . S
H237 C265 0.930 . S
H238 C266 0.932 . S
H239 C269 0.929 . S
H240 C268 0.931 . S
H241 C271 0.929 . S
H242 C275 0.932 . S
H243 C272 0.931 . S
H244 C274 0.929 . S
H245 C277 0.929 . S
H246 C278 0.930 . S
H247 C280 0.929 . S
H248 C281 0.931 . S
H249 C283 0.930 . S
H250 C284 0.932 . S
H251 C286 0.931 . S
H252 C287 0.929 . S
H253 C289 0.929 . S
H254 C290 0.931 . S
H255 C292 0.929 . S
N256 C276 1.433 . S
N256 C282 1.435 . S
N256 C288 1.423 . S
H257 C293 0.932 . S
C258 N233 1.433 . S
C258 C259 1.363 . S
C258 C263 1.370 . S
C259 H232 0.929 . S
C259 C258 1.363 . S
C259 C260 1.385 . S
C260 H234 0.930 . S
C260 C259 1.385 . S
C260 C261 1.357 . S
C261 C260 1.357 . S
C261 C262 1.406 . S
C262 H236 0.929 . S
C262 C261 1.406 . S
C262 C263 1.391 . S
C263 H235 0.931 . S
C263 C258 1.370 . S
C263 C262 1.391 . S
C264 N233 1.435 . S
C264 C265 1.358 . S
C264 C269 1.371 . S
C265 H237 0.930 . S
C265 C264 1.358 . S
C265 C266 1.405 . S
C266 H238 0.932 . S
C266 C265 1.405 . S
C266 C267 1.383 . S
C267 C266 1.383 . S
C267 C268 1.393 . S
C268 H240 0.931 . S
C268 C267 1.393 . S
C268 C269 1.382 . S
C269 H239 0.929 . S
C269 C264 1.371 . S
C269 C268 1.382 . S
C270 N233 1.423 . S
C270 C271 1.362 . S
C270 C275 1.388 . S
C271 H241 0.929 . S
C271 C270 1.362 . S
C271 C272 1.376 . S
C272 H243 0.931 . S
C272 C271 1.376 . S
C272 C273 1.396 . S
C273 C272 1.396 . S
C273 C274 1.348 . S
C273 C291 1.472 . S
C274 H244 0.929 . S
C274 C273 1.348 . S
C274 C275 1.443 . S
C275 H242 0.932 . S
C275 C270 1.388 . S
C275 C274 1.443 . S
C276 N256 1.433 . S
C276 C277 1.363 . S
C276 C281 1.370 . S
C277 H245 0.929 . S
C277 C276 1.363 . S
C277 C278 1.385 . S
C278 H246 0.930 . S
C278 C277 1.385 . S
C278 C279 1.357 . S
C279 C278 1.357 . S
C279 C280 1.406 . S
C280 H247 0.929 . S
C280 C279 1.406 . S
C280 C281 1.391 . S
C281 H248 0.931 . S
C281 C276 1.370 . S
C281 C280 1.391 . S
C282 N256 1.435 . S
C282 C283 1.358 . S
C282 C287 1.371 . S
C283 H249 0.930 . S
C283 C282 1.358 . S
C283 C284 1.405 . S
C284 H250 0.932 . S
C284 C283 1.405 . S
C284 C285 1.383 . S
C285 C284 1.383 . S
C285 C286 1.393 . S
C286 H251 0.931 . S
C286 C285 1.393 . S
C286 C287 1.382 . S
C287 H252 0.929 . S
C287 C282 1.371 . S
C287 C286 1.382 . S
C288 N256 1.423 . S
C288 C289 1.362 . S
C288 C293 1.388 . S
C289 H253 0.929 . S
C289 C288 1.362 . S
C289 C290 1.376 . S
C290 H254 0.931 . S
C290 C289 1.376 . S
C290 C291 1.396 . S
C291 C273 1.472 . S
C291 C290 1.396 . S
C291 C292 1.348 . S
C292 H255 0.929 . S
C292 C291 1.348 . S
C292 C293 1.443 . S
C293 H257 0.932 . S
C293 C288 1.388 . S
C293 C292 1.443 . S
C294 C295 1.391 1_655 S
C294 C296 1.394 . S
C294 H310 0.931 . S
C295 C294 1.391 1_455 S
C295 C299 1.376 . S
C296 C294 1.394 . S
C296 C297 1.369 1_655 S
C296 C300 1.531 . S
C297 C296 1.369 1_455 S
C297 C298 1.410 . S
C297 C305 1.503 . S
C298 C297 1.410 . S
C298 C299 1.392 . S
C298 C301 1.511 . S
C299 C295 1.376 . S
C299 C298 1.392 . S
C299 H311 0.929 . S
C300 C296 1.531 . S
C300 H312 0.960 . S
C300 H313 0.962 . S
C300 H314 0.960 . S
C301 C298 1.511 . S
C301 H315 0.961 . S
C301 H316 0.961 . S
C301 H317 0.961 . S
C302 C303 1.370 . S
C302 C304 1.363 . S
C302 H318 0.931 1_455 S
C303 C302 1.370 . S
C303 C307 1.408 . S
C304 C302 1.363 . S
C304 C305 1.370 . S
C304 C308 1.524 1_455 S
C305 C297 1.503 . S
C305 C304 1.370 . S
C305 C306 1.403 . S
C306 C305 1.403 . S
C306 C307 1.404 . S
C306 C309 1.539 . S
C307 C303 1.408 . S
C307 C306 1.404 . S
C307 H319 0.930 . S
C308 C304 1.524 1_655 S
C308 H320 0.956 . S
C308 H321 0.960 1_655 S
C308 H322 0.961 . S
C309 C306 1.539 . S
C309 H323 0.958 . S
C309 H324 0.961 . S
C309 H325 0.960 . S
H310 C294 0.931 . S
H311 C299 0.929 . S
H312 C300 0.960 . S
H313 C300 0.962 . S
H314 C300 0.960 . S
H315 C301 0.961 . S
H316 C301 0.961 . S
H317 C301 0.961 . S
H318 C302 0.931 1_655 S
H319 C307 0.930 . S
H320 C308 0.956 . S
H321 C308 0.960 1_455 S
H322 C308 0.961 . S
H323 C309 0.958 . S
H324 C309 0.961 . S
H325 C309 0.960 . S
C326 C327 1.391 . S
C326 C328 1.394 . S
C326 H342 0.915 1_545 S
C327 C326 1.391 . S
C327 C331 1.376 . S
C328 C326 1.394 . S
C328 C329 1.369 . S
C328 C332 1.531 . S
C329 C328 1.369 . S
C329 C330 1.410 . S
C329 C337 1.503 . S
C330 C329 1.410 . S
C330 C331 1.392 . S
C330 C333 1.511 . S
C331 C327 1.376 . S
C331 C330 1.392 . S
C331 H343 0.929 . S
C332 C328 1.531 . S
C332 H344 0.960 . S
C332 H345 0.962 1_545 S
C332 H346 0.960 . S
C333 C330 1.511 . S
C333 H347 0.961 . S
C333 H348 0.961 . S
C333 H349 0.961 . S
C334 C335 1.370 . S
C334 C336 1.363 . S
C334 H350 0.931 1_545 S
C335 C334 1.370 . S
C335 C339 1.408 . S
C336 C334 1.363 . S
C336 C337 1.370 . S
C336 C340 1.524 1_545 S
C337 C329 1.503 . S
C337 C336 1.370 . S
C337 C338 1.403 . S
C338 C337 1.403 . S
C338 C339 1.404 . S
C338 C341 1.539 . S
C339 C335 1.408 . S
C339 C338 1.404 . S
C339 H351 0.930 . S
C340 C336 1.524 1_565 S
C340 H352 0.956 . S
C340 H353 0.961 . S
C340 H354 0.961 . S
C341 C338 1.539 . S
C341 H355 0.958 . S
C341 H356 0.961 . S
C341 H357 0.960 . S
H342 C326 0.915 1_565 S
H343 C331 0.929 . S
H344 C332 0.960 . S
H345 C332 0.962 1_565 S
H346 C332 0.960 . S
H347 C333 0.961 . S
H348 C333 0.961 . S
H349 C333 0.961 . S
H350 C334 0.931 1_565 S
H351 C339 0.930 . S
H352 C340 0.956 . S
H353 C340 0.961 . S
H354 C340 0.961 . S
H355 C341 0.958 . S
H356 C341 0.961 . S
H357 C341 0.960 . S
C358 C359 1.391 . S
C358 C360 1.394 . S
C358 H374 0.931 . S
C359 C358 1.391 . S
C359 C363 1.376 . S
C360 C358 1.394 . S
C360 C361 1.369 . S
C360 C364 1.531 . S
C361 C360 1.369 . S
C361 C362 1.410 . S
C361 C369 1.503 . S
C362 C361 1.410 . S
C362 C363 1.392 . S
C362 C365 1.511 . S
C363 C359 1.376 . S
C363 C362 1.392 . S
C363 H375 0.929 . S
C364 C360 1.531 . S
C364 H376 0.960 . S
C364 H377 0.962 . S
C364 H378 0.960 . S
C365 C362 1.511 . S
C365 H379 0.961 . S
C365 H380 0.961 . S
C365 H381 0.961 . S
C366 C367 1.370 . S
C366 C368 1.363 . S
C366 H382 0.931 . S
C367 C366 1.370 . S
C367 C371 1.408 . S
C368 C366 1.363 . S
C368 C369 1.370 . S
C368 C372 1.524 . S
C369 C361 1.503 . S
C369 C368 1.370 . S
C369 C370 1.403 . S
C370 C369 1.403 . S
C370 C371 1.404 . S
C370 C373 1.539 . S
C371 C367 1.408 . S
C371 C370 1.404 . S
C371 H383 0.930 . S
C372 C368 1.524 . S
C372 H384 0.956 . S
C372 H385 0.961 . S
C372 H386 0.961 . S
C373 C370 1.539 . S
C373 H387 0.958 . S
C373 H388 0.961 . S
C373 H389 0.960 . S
H374 C358 0.931 . S
H375 C363 0.929 . S
H376 C364 0.960 . S
H377 C364 0.962 . S
H378 C364 0.960 . S
H379 C365 0.961 . S
H380 C365 0.961 . S
H381 C365 0.961 . S
H382 C366 0.931 . S
H383 C371 0.930 . S
H384 C372 0.956 . S
H385 C372 0.961 . S
H386 C372 0.961 . S
H387 C373 0.958 . S
H388 C373 0.961 . S
H389 C373 0.960 . S
C390 C391 1.391 . S
C390 C392 1.394 . S
C390 H406 0.931 . S
C391 C390 1.391 . S
C391 C395 1.376 1_455 S
C392 C390 1.394 . S
C392 C393 1.369 . S
C392 C396 1.531 . S
C393 C392 1.369 . S
C393 C394 1.410 1_455 S
C393 C401 1.503 . S
C394 C393 1.410 1_655 S
C394 C395 1.392 . S
C394 C397 1.511 . S
C395 C391 1.376 1_655 S
C395 C394 1.392 . S
C395 H407 0.929 . S
C396 C392 1.531 . S
C396 H408 0.960 . S
C396 H409 0.962 . S
C396 H410 0.960 . S
C397 C394 1.511 . S
C397 H411 0.961 . S
C397 H412 0.961 . S
C397 H413 0.961 . S
C398 C399 1.370 . S
C398 C400 1.363 . S
C398 H414 0.931 . S
C399 C398 1.370 . S
C399 C403 1.408 . S
C400 C398 1.363 . S
C400 C401 1.370 . S
C400 C404 1.524 . S
C401 C393 1.503 . S
C401 C400 1.370 . S
C401 C402 1.403 . S
C402 C401 1.403 . S
C402 C403 1.404 . S
C402 C405 1.539 1_455 S
C403 C399 1.408 . S
C403 C402 1.404 . S
C403 H415 0.930 1_455 S
C404 C400 1.524 . S
C404 H416 0.956 . S
C404 H417 0.961 . S
C404 H418 0.961 . S
C405 C402 1.539 1_655 S
C405 H419 0.958 1_655 S
C405 H420 0.961 . S
C405 H421 0.960 . S
H406 C390 0.931 . S
H407 C395 0.929 . S
H408 C396 0.960 . S
H409 C396 0.962 . S
H410 C396 0.960 . S
H411 C397 0.961 . S
H412 C397 0.961 . S
H413 C397 0.961 . S
H414 C398 0.931 . S
H415 C403 0.930 1_655 S
H416 C404 0.956 . S
H417 C404 0.961 . S
H418 C404 0.961 . S
H419 C405 0.958 1_455 S
H420 C405 0.961 . S
H421 C405 0.960 . S
C422 C423 1.391 . S
C422 C424 1.394 . S
C422 H438 0.931 . S
C423 C422 1.391 . S
C423 C427 1.376 . S
C424 C422 1.394 . S
C424 C425 1.369 . S
C424 C428 1.531 . S
C425 C424 1.369 . S
C425 C426 1.410 . S
C425 C433 1.503 . S
C426 C425 1.410 . S
C426 C427 1.392 . S
C426 C429 1.511 . S
C427 C423 1.376 . S
C427 C426 1.392 . S
C427 H439 0.929 . S
C428 C424 1.531 . S
C428 H440 0.960 . S
C428 H441 0.962 . S
C428 H442 0.960 . S
C429 C426 1.511 . S
C429 H443 0.961 . S
C429 H444 0.961 . S
C429 H445 0.961 1_545 S
C430 C431 1.370 . S
C430 C432 1.363 . S
C430 H446 0.931 . S
C431 C430 1.370 . S
C431 C435 1.408 . S
C432 C430 1.363 . S
C432 C433 1.370 . S
C432 C436 1.524 . S
C433 C425 1.503 . S
C433 C432 1.370 . S
C433 C434 1.403 1_545 S
C434 C433 1.403 1_565 S
C434 C435 1.404 1_565 S
C434 C437 1.539 . S
C435 C431 1.408 . S
C435 C434 1.404 1_545 S
C435 H447 0.930 1_545 S
C436 C432 1.524 . S
C436 H448 0.956 . S
C436 H449 0.961 . S
C436 H450 0.961 . S
C437 C434 1.539 . S
C437 H451 0.958 . S
C437 H452 0.961 . S
C437 H453 0.960 . S
H438 C422 0.931 . S
H439 C427 0.929 . S
H440 C428 0.960 . S
H441 C428 0.962 . S
H442 C428 0.960 . S
H443 C429 0.961 . S
H444 C429 0.961 . S
H445 C429 0.961 1_565 S
H446 C430 0.931 . S
H447 C435 0.930 1_565 S
H448 C436 0.956 . S
H449 C436 0.961 . S
H450 C436 0.961 . S
H451 C437 0.958 . S
H452 C437 0.961 . S
H453 C437 0.960 . S
C454 C455 1.391 . S
C454 C456 1.394 . S
C454 H470 0.931 . S
C455 C454 1.391 . S
C455 C459 1.376 . S
C456 C454 1.394 . S
C456 C457 1.369 . S
C456 C460 1.531 . S
C457 C456 1.369 . S
C457 C458 1.410 . S
C457 C465 1.503 . S
C458 C457 1.410 . S
C458 C459 1.392 . S
C458 C461 1.511 . S
C459 C455 1.376 . S
C459 C458 1.392 . S
C459 H471 0.929 . S
C460 C456 1.531 . S
C460 H472 0.960 . S
C460 H473 0.962 . S
C460 H474 0.960 . S
C461 C458 1.511 . S
C461 H475 0.961 . S
C461 H476 0.961 . S
C461 H477 0.961 . S
C462 C463 1.370 . S
C462 C464 1.363 . S
C462 H478 0.931 . S
C463 C462 1.370 . S
C463 C467 1.408 . S
C464 C462 1.363 . S
C464 C465 1.370 . S
C464 C468 1.524 . S
C465 C457 1.503 . S
C465 C464 1.370 . S
C465 C466 1.403 . S
C466 C465 1.403 . S
C466 C467 1.404 . S
C466 C469 1.539 . S
C467 C463 1.408 . S
C467 C466 1.404 . S
C467 H479 0.930 . S
C468 C464 1.524 . S
C468 H480 0.956 . S
C468 H481 0.961 . S
C468 H482 0.961 . S
C469 C466 1.539 . S
C469 H483 0.958 . S
C469 H484 0.961 . S
C469 H485 0.960 . S
H470 C454 0.931 . S
H471 C459 0.929 . S
H472 C460 0.960 . S
H473 C460 0.962 . S
H474 C460 0.960 . S
H475 C461 0.961 . S
H476 C461 0.961 . S
H477 C461 0.961 . S
H478 C462 0.931 . S
H479 C467 0.930 . S
H480 C468 0.956 . S
H481 C468 0.961 . S
H482 C468 0.961 . S
H483 C469 0.958 . S
H484 C469 0.961 . S
H485 C469 0.960 . S
C486 C487 1.391 . S
C486 C488 1.394 . S
C486 H502 0.931 . S
C487 C486 1.391 . S
C487 C491 1.376 1_545 S
C488 C486 1.394 . S
C488 C489 1.369 . S
C488 C492 1.531 . S
C489 C488 1.369 . S
C489 C490 1.392 1_545 S
C489 C497 1.503 . S
C490 C489 1.392 1_565 S
C490 C491 1.401 . S
C490 C493 1.521 . S
C491 C487 1.376 1_565 S
C491 C490 1.401 . S
C491 H503 0.929 . S
C492 C488 1.531 . S
C492 H504 0.960 . S
C492 H505 0.962 . S
C492 H506 0.960 . S
C493 C490 1.521 . S
C493 H507 0.961 . S
C493 H508 0.961 . S
C493 H509 0.961 . S
C494 C495 1.370 . S
C494 C496 1.363 . S
C494 H510 0.931 . S
C495 C494 1.370 . S
C495 C499 1.408 . S
C496 C494 1.363 . S
C496 C497 1.370 . S
C496 C500 1.524 . S
C497 C489 1.503 . S
C497 C496 1.370 . S
C497 C498 1.403 . S
C498 C497 1.403 . S
C498 C499 1.404 . S
C498 C501 1.539 . S
C499 C495 1.408 . S
C499 C498 1.404 . S
C499 H511 0.930 . S
C500 C496 1.524 . S
C500 H512 0.956 . S
C500 H513 0.961 . S
C500 H514 0.961 . S
C501 C498 1.539 . S
C501 H515 0.958 . S
C501 H516 0.961 . S
C501 H517 0.960 . S
H502 C486 0.931 . S
H503 C491 0.929 . S
H504 C492 0.960 . S
H505 C492 0.962 . S
H506 C492 0.960 . S
H507 C493 0.961 . S
H508 C493 0.961 . S
H509 C493 0.961 . S
H510 C494 0.931 . S
H511 C499 0.930 . S
H512 C500 0.956 . S
H513 C500 0.961 . S
H514 C500 0.961 . S
H515 C501 0.958 . S
H516 C501 0.961 . S
H517 C501 0.960 . S
C518 C519 1.391 . S
C518 C520 1.394 . S
C518 H534 0.931 . S
C519 C518 1.391 . S
C519 C523 1.376 . S
C520 C518 1.394 . S
C520 C521 1.369 . S
C520 C524 1.531 . S
C521 C520 1.369 . S
C521 C522 1.410 . S
C521 C529 1.503 . S
C522 C521 1.410 . S
C522 C523 1.392 . S
C522 C525 1.511 . S
C523 C519 1.376 . S
C523 C522 1.392 . S
C523 H535 0.929 1_556 S
C524 C520 1.531 . S
C524 H536 0.960 . S
C524 H537 0.962 . S
C524 H538 0.960 . S
C525 C522 1.511 . S
C525 H539 0.961 . S
C525 H540 0.961 . S
C525 H541 0.961 1_556 S
C526 C527 1.370 . S
C526 C528 1.363 . S
C526 H542 0.931 . S
C527 C526 1.370 . S
C527 C531 1.408 . S
C528 C526 1.363 . S
C528 C529 1.370 . S
C528 C532 1.524 . S
C529 C521 1.503 . S
C529 C528 1.370 . S
C529 C530 1.403 . S
C530 C529 1.403 . S
C530 C531 1.404 . S
C530 C533 1.539 . S
C531 C527 1.408 . S
C531 C530 1.404 . S
C531 H543 0.930 . S
C532 C528 1.524 . S
C532 H544 0.956 . S
C532 H545 0.961 . S
C532 H546 0.961 . S
C533 C530 1.539 . S
C533 H547 0.958 . S
C533 H548 0.961 . S
C533 H549 0.960 . S
H534 C518 0.931 . S
H535 C523 0.929 1_554 S
H536 C524 0.960 . S
H537 C524 0.962 . S
H538 C524 0.960 . S
H539 C525 0.961 . S
H540 C525 0.961 . S
H541 C525 0.961 1_554 S
H542 C526 0.931 . S
H543 C531 0.930 . S
H544 C532 0.956 . S
H545 C532 0.961 . S
H546 C532 0.961 . S
H547 C533 0.958 . S
H548 C533 0.961 . S
H549 C533 0.960 . S
C550 C551 1.394 . S
C550 C552 1.394 . S
C550 H566 0.931 . S
C551 C550 1.394 . S
C551 C555 1.368 1_655 S
C552 C550 1.394 . S
C552 C553 1.374 . S
C552 C556 1.531 . S
C553 C552 1.374 . S
C553 C554 1.408 1_655 S
C553 C561 1.499 1_655 S
C554 C553 1.408 1_455 S
C554 C555 1.392 . S
C554 C557 1.511 . S
C555 C551 1.368 1_455 S
C555 C554 1.392 . S
C555 H567 0.929 . S
C556 C552 1.531 . S
C556 H568 0.960 . S
C556 H569 0.962 . S
C556 H570 0.960 . S
C557 C554 1.511 . S
C557 H571 0.961 . S
C557 H572 0.961 . S
C557 H573 0.961 . S
C558 C559 1.370 . S
C558 C560 1.363 . S
C558 H574 0.931 . S
C559 C558 1.370 . S
C559 C563 1.408 1_455 S
C560 C558 1.363 . S
C560 C561 1.370 . S
C560 C564 1.524 . S
C561 C553 1.499 1_455 S
C561 C560 1.370 . S
C561 C562 1.403 1_455 S
C562 C561 1.403 1_655 S
C562 C563 1.404 . S
C562 C565 1.539 . S
C563 C559 1.408 1_655 S
C563 C562 1.404 . S
C563 H575 0.930 . S
C564 C560 1.524 . S
C564 H576 0.956 . S
C564 H577 0.961 . S
C564 H578 0.961 . S
C565 C562 1.539 . S
C565 H579 0.958 . S
C565 H580 0.961 . S
C565 H581 0.960 . S
H566 C550 0.931 . S
H567 C555 0.929 . S
H568 C556 0.960 . S
H569 C556 0.962 . S
H570 C556 0.960 . S
H571 C557 0.961 . S
H572 C557 0.961 . S
H573 C557 0.961 . S
H574 C558 0.931 . S
H575 C563 0.930 . S
H576 C564 0.956 . S
H577 C564 0.961 . S
H578 C564 0.961 . S
H579 C565 0.958 . S
H580 C565 0.961 . S
H581 C565 0.960 . S
C582 C583 1.391 . S
C582 C584 1.394 . S
C582 H598 0.931 1_545 S
C583 C582 1.391 . S
C583 C587 1.376 . S
C584 C582 1.394 . S
C584 C585 1.369 . S
C584 C588 1.531 1_545 S
C585 C584 1.369 . S
C585 C586 1.410 . S
C585 C593 1.503 . S
C586 C585 1.410 . S
C586 C587 1.392 . S
C586 C589 1.511 . S
C587 C583 1.376 . S
C587 C586 1.392 . S
C587 H599 0.929 . S
C588 C584 1.531 1_565 S
C588 H600 0.960 1_565 S
C588 H601 0.962 . S
C588 H602 0.960 . S
C589 C586 1.511 . S
C589 H603 0.961 . S
C589 H604 0.961 . S
C589 H605 0.961 . S
C590 C591 1.370 . S
C590 C592 1.363 . S
C590 H606 0.931 1_545 S
C591 C590 1.370 . S
C591 C595 1.408 . S
C592 C590 1.363 . S
C592 C593 1.370 . S
C592 C596 1.524 1_545 S
C593 C585 1.503 . S
C593 C592 1.370 . S
C593 C594 1.403 . S
C594 C593 1.403 . S
C594 C595 1.404 . S
C594 C597 1.539 . S
C595 C591 1.408 . S
C595 C594 1.404 . S
C595 H607 0.930 . S
C596 C592 1.524 1_565 S
C596 H608 0.956 . S
C596 H609 0.961 . S
C596 H610 0.961 . S
C597 C594 1.539 . S
C597 H611 0.958 . S
C597 H612 0.961 . S
C597 H613 0.960 . S
H598 C582 0.931 1_565 S
H599 C587 0.929 . S
H600 C588 0.960 1_545 S
H601 C588 0.962 . S
H602 C588 0.960 . S
H603 C589 0.961 . S
H604 C589 0.961 . S
H605 C589 0.961 . S
H606 C590 0.931 1_565 S
H607 C595 0.930 . S
H608 C596 0.956 . S
H609 C596 0.961 . S
H610 C596 0.961 . S
H611 C597 0.958 . S
H612 C597 0.961 . S
H613 C597 0.960 . S
C614 C615 1.391 . S
C614 C616 1.394 . S
C614 H630 0.931 . S
C615 C614 1.391 . S
C615 C619 1.376 . S
C616 C614 1.394 . S
C616 C617 1.369 . S
C616 C620 1.531 . S
C617 C616 1.369 . S
C617 C618 1.410 . S
C617 C625 1.503 . S
C618 C617 1.410 . S
C618 C619 1.392 . S
C618 C621 1.511 . S
C619 C615 1.376 . S
C619 C618 1.392 . S
C619 H631 0.929 . S
C620 C616 1.531 . S
C620 H632 0.960 . S
C620 H633 0.962 . S
C620 H634 0.960 . S
C621 C618 1.511 . S
C621 H635 0.961 . S
C621 H636 0.961 . S
C621 H637 0.961 . S
C622 C623 1.370 . S
C622 C624 1.363 . S
C622 H638 0.931 . S
C623 C622 1.370 . S
C623 C627 1.408 . S
C624 C622 1.363 . S
C624 C625 1.370 . S
C624 C628 1.524 . S
C625 C617 1.503 . S
C625 C624 1.370 . S
C625 C626 1.403 . S
C626 C625 1.403 . S
C626 C627 1.404 . S
C626 C629 1.539 . S
C627 C623 1.408 . S
C627 C626 1.404 . S
C627 H639 0.930 . S
C628 C624 1.524 . S
C628 H640 0.956 . S
C628 H641 0.961 . S
C628 H642 0.961 . S
C629 C626 1.539 . S
C629 H643 0.958 . S
C629 H644 0.961 . S
C629 H645 0.960 . S
H630 C614 0.931 . S
H631 C619 0.929 . S
H632 C620 0.960 . S
H633 C620 0.962 . S
H634 C620 0.960 . S
H635 C621 0.961 . S
H636 C621 0.961 . S
H637 C621 0.961 . S
H638 C622 0.931 . S
H639 C627 0.930 . S
H640 C628 0.956 . S
H641 C628 0.961 . S
H642 C628 0.961 . S
H643 C629 0.958 . S
H644 C629 0.961 . S
H645 C629 0.960 . S
C646 C647 1.391 . S
C646 C648 1.394 . S
C646 H662 0.931 . S
C647 C646 1.391 . S
C647 C651 1.376 1_455 S
C648 C646 1.394 . S
C648 C649 1.369 . S
C648 C652 1.531 . S
C649 C648 1.369 . S
C649 C650 1.410 1_455 S
C649 C657 1.503 . S
C650 C649 1.410 1_655 S
C650 C651 1.392 . S
C650 C653 1.511 . S
C651 C647 1.376 1_655 S
C651 C650 1.392 . S
C651 H663 0.929 . S
C652 C648 1.531 . S
C652 H664 0.960 . S
C652 H665 0.962 . S
C652 H666 0.960 . S
C653 C650 1.511 . S
C653 H667 0.961 . S
C653 H668 0.961 . S
C653 H669 0.961 . S
C654 C655 1.370 . S
C654 C656 1.363 . S
C654 H670 0.931 1_455 S
C655 C654 1.370 . S
C655 C659 1.408 . S
C656 C654 1.363 . S
C656 C657 1.370 . S
C656 C660 1.524 1_455 S
C657 C649 1.503 . S
C657 C656 1.370 . S
C657 C658 1.403 . S
C658 C657 1.403 . S
C658 C659 1.404 . S
C658 C661 1.539 . S
C659 C655 1.408 . S
C659 C658 1.404 . S
C659 H671 0.930 . S
C660 C656 1.524 1_655 S
C660 H672 0.956 1_655 S
C660 H673 0.961 . S
C660 H674 0.961 . S
C661 C658 1.539 . S
C661 H675 0.958 . S
C661 H676 0.961 . S
C661 H677 0.960 . S
H662 C646 0.931 . S
H663 C651 0.929 . S
H664 C652 0.960 . S
H665 C652 0.962 . S
H666 C652 0.960 . S
H667 C653 0.961 . S
H668 C653 0.961 . S
H669 C653 0.961 . S
H670 C654 0.931 1_655 S
H671 C659 0.930 . S
H672 C660 0.956 1_455 S
H673 C660 0.961 . S
H674 C660 0.961 . S
H675 C661 0.958 . S
H676 C661 0.961 . S
H677 C661 0.960 . S
C303 C161 1.371 . S
C295 C14 1.367 . S
C327 C40 1.375 . S
C335 C205 1.411 . S
C359 C76 1.395 . S
C367 C267 1.400 . S
C391 C3 1.364 . S
C399 C143 1.360 . S
C431 C223 1.405 . S
C423 C38 1.375 . S
C455 C74 1.377 . S
C463 C285 1.383 . S
C495 C199 1.564 . S
C487 C86 1.632 . S
C519 C2 1.669 1_556 S
C527 C261 1.611 . S
C559 C137 1.571 . S
C551 C39 1.701 1_655 S
C591 C217 1.583 . S
C583 C75 1.683 . S
C623 C279 1.597 . S
C615 C4 1.648 1_556 S
C647 C50 1.644 . S
C655 C155 1.579 . S
