# Generated by pormake.
# Topology hwx, (6,3)-cn, num edge types: 1
# Building blocks:
#     Node 0, Type 0, BuildingBlock: OJICUG_clean_sbu_0, # of connection points: 6
#     Node 1, Type 0, BuildingBlock: OJICUG_clean_sbu_0, # of connection points: 6
#     Node 2, Type 0, BuildingBlock: OJICUG_clean_sbu_0, # of connection points: 6
#     Node 3, Type 0, BuildingBlock: OJICUG_clean_sbu_0, # of connection points: 6
#     Node 4, Type 1, BuildingBlock: BELTOD_clean_linker_0, # of connection points: 3
#     Node 5, Type 1, BuildingBlock: BELTOD_clean_linker_0, # of connection points: 3
#     Node 6, Type 1, BuildingBlock: BELTOD_clean_linker_0, # of connection points: 3
#     Node 7, Type 1, BuildingBlock: BELTOD_clean_linker_0, # of connection points: 3
#     Node 8, Type 1, BuildingBlock: BELTOD_clean_linker_0, # of connection points: 3
#     Node 9, Type 1, BuildingBlock: BELTOD_clean_linker_0, # of connection points: 3
#     Node 10, Type 1, BuildingBlock: BELTOD_clean_linker_0, # of connection points: 3
#     Node 11, Type 1, BuildingBlock: BELTOD_clean_linker_0, # of connection points: 3
#     Edge 12, Type (0, 1), None
#     Edge 13, Type (0, 1), None
#     Edge 14, Type (0, 1), None
#     Edge 15, Type (0, 1), None
#     Edge 16, Type (0, 1), None
#     Edge 17, Type (0, 1), None
#     Edge 18, Type (0, 1), None
#     Edge 19, Type (0, 1), None
#     Edge 20, Type (0, 1), None
#     Edge 21, Type (0, 1), None
#     Edge 22, Type (0, 1), None
#     Edge 23, Type (0, 1), None
#     Edge 24, Type (0, 1), None
#     Edge 25, Type (0, 1), None
#     Edge 26, Type (0, 1), None
#     Edge 27, Type (0, 1), None
#     Edge 28, Type (0, 1), None
#     Edge 29, Type (0, 1), None
#     Edge 30, Type (0, 1), None
#     Edge 31, Type (0, 1), None
#     Edge 32, Type (0, 1), None
#     Edge 33, Type (0, 1), None
#     Edge 34, Type (0, 1), None
#     Edge 35, Type (0, 1), None
# Relax obj value: 0.068
# Max RMSD: 0.096
# Mean RMSD: 0.088
data_MOF--net-hwx--node1-OJICUG_clean_sbu_0--node2-BELTOD_clean_linker_0--edge1-none
_symmetry_space_group_name_H-M    P1
_symmetry_Int_Tables_number       1
_symmetry_cell_setting            triclinic
loop_
_symmetry_equiv_pos_as_xyz
'x, y, z'
_cell_length_a     29.801607
_cell_length_b     29.799728
_cell_length_c     13.249812
_cell_angle_alpha  89.605405
_cell_angle_beta   90.400498
_cell_angle_gamma 90.055194
loop_
_atom_site_label
_atom_site_type_symbol
_atom_site_fract_x
_atom_site_fract_y
_atom_site_fract_z
_atom_type_partial_charge
Sc0 Sc 0.2 0.21629 0.12323 0.0
Sc1 Sc 0.13489 0.13682 -0.00498 0.0
Sc2 Sc 0.21421 0.20207 0.86677 0.0
O3 O 0.18303 0.18506 -0.00499 0.0
C4 C 0.20618 0.29689 0.96282 0.0
C5 C 0.09646 0.20852 0.151 0.0
C6 C 0.11181 0.19136 0.79851 0.0
C7 C 0.18953 0.11385 0.19149 0.0
C8 C 0.29482 0.20854 0.02708 0.0
C9 C 0.20669 0.09852 0.83908 0.0
O10 O 0.20796 0.28059 0.05162 0.0
O11 O 0.0944 0.17028 0.1087 0.0
O12 O 0.15321 0.19773 0.78053 0.0
O13 O 0.19588 0.15526 0.20944 0.0
O14 O 0.27849 0.21025 0.93831 0.0
O15 O 0.16844 0.0964 0.88133 0.0
O16 O 0.2705 0.20398 0.10492 0.0
O17 O 0.17053 0.09975 0.11123 0.0
O18 O 0.23066 0.13368 0.83953 0.0
O19 O 0.13158 0.23255 0.15061 0.0
O20 O 0.20168 0.27254 0.88501 0.0
O21 O 0.09774 0.17239 0.87882 0.0
Sc22 Sc 0.2824 0.70085 0.31073 0.0
Sc23 Sc 0.37622 0.65195 0.43455 0.0
Sc24 Sc 0.28657 0.6963 0.57449 0.0
O25 O 0.31508 0.6829 0.43977 0.0
C26 C 0.26727 0.78595 0.44936 0.0
C27 C 0.38471 0.72188 0.25414 0.0
C28 C 0.38981 0.71854 0.61906 0.0
C29 C 0.32073 0.60454 0.25617 0.0
C30 C 0.19887 0.67326 0.44919 0.0
C31 C 0.3271 0.59892 0.61146 0.0
O32 O 0.27233 0.76844 0.36283 0.0
O33 O 0.40233 0.69812 0.32377 0.0
O34 O 0.34807 0.72228 0.63517 0.0
O35 O 0.29065 0.63476 0.24808 0.0
O36 O 0.22111 0.67365 0.53109 0.0
O37 O 0.35731 0.60185 0.54447 0.0
O38 O 0.21667 0.68209 0.36438 0.0
O39 O 0.3537 0.6072 0.31751 0.0
O40 O 0.29963 0.63021 0.63019 0.0
O41 O 0.34264 0.72439 0.23961 0.0
O42 O 0.27022 0.76368 0.5312 0.0
O43 O 0.40581 0.69366 0.55058 0.0
Sc44 Sc 0.79249 0.78682 0.86271 0.0
Sc45 Sc 0.86103 0.8632 -0.00498 0.0
Sc46 Sc 0.78473 0.79457 0.1273 0.0
O47 O 0.81274 0.81486 -0.00499 0.0
C48 C 0.69972 0.79662 0.97942 0.0
C49 C 0.80328 0.89003 0.8012 0.0
C50 C 0.79373 0.90024 0.16074 0.0
C51 C 0.89814 0.79593 0.8293 0.0
C52 C 0.79463 0.70181 0.01057 0.0
C53 C 0.88792 0.80547 0.18884 0.0
O54 O 0.72262 0.79175 0.89978 0.0
O55 O 0.83101 0.89877 0.87143 0.0
O56 O 0.77638 0.86221 0.18029 0.0
O57 O 0.86013 0.77854 0.80974 0.0
O58 O 0.78973 0.72471 0.09022 0.0
O59 O 0.89664 0.83321 0.11863 0.0
O60 O 0.79662 0.71952 0.92307 0.0
O61 O 0.90357 0.82664 0.89429 0.0
O62 O 0.84932 0.78812 0.20152 0.0
O63 O 0.78596 0.85141 0.78851 0.0
O64 O 0.71743 0.79864 0.06693 0.0
O65 O 0.82444 0.9057 0.09576 0.0
Sc66 Sc 0.69876 0.28453 0.67917 0.0
Sc67 Sc 0.64997 0.3784 0.5553 0.0
Sc68 Sc 0.69423 0.28868 0.4154 0.0
O69 O 0.68085 0.31722 0.55011 0.0
C70 C 0.78384 0.26926 0.54058 0.0
C71 C 0.7199 0.38683 0.73574 0.0
C72 C 0.71657 0.3919 0.37082 0.0
C73 C 0.60249 0.32298 0.73369 0.0
C74 C 0.67107 0.20101 0.54073 0.0
C75 C 0.59689 0.32933 0.37837 0.0
O76 O 0.76633 0.27435 0.62711 0.0
O77 O 0.69615 0.40446 0.6661 0.0
O78 O 0.72027 0.35015 0.35472 0.0
O79 O 0.63267 0.29287 0.74181 0.0
O80 O 0.6715 0.22325 0.45882 0.0
O81 O 0.59986 0.35954 0.44536 0.0
O82 O 0.67991 0.21881 0.62553 0.0
O83 O 0.60519 0.35594 0.67233 0.0
O84 O 0.62816 0.30182 0.35966 0.0
O85 O 0.72237 0.34475 0.75027 0.0
O86 O 0.76158 0.27225 0.45873 0.0
O87 O 0.69171 0.40793 0.43929 0.0
P88 P 0.32187 0.45879 0.93806 0.0
H89 H 0.38705 0.48441 0.0934 0.0
H90 H 0.38681 0.54312 0.22049 0.0
H91 H 0.25112 0.57854 0.13342 0.0
H92 H 0.25153 0.51901 0.00767 0.0
H93 H 0.28061 0.40508 0.77985 0.0
H94 H 0.23243 0.33905 0.78861 0.0
H95 H 0.21518 0.3606 0.10864 0.0
H96 H 0.26371 0.426 0.09906 0.0
H97 H 0.39419 0.48818 0.80561 0.0
H98 H 0.25067 0.50409 0.8265 0.0
O99 O 0.3691 0.42902 0.94469 0.0
H100 H 0.39652 0.54568 0.67301 0.0
H101 H 0.25294 0.5624 0.69639 0.0
C102 C 0.31933 0.49745 0.04122 0.0
C103 C 0.35699 0.50427 0.10289 0.0
C104 C 0.35676 0.53796 0.17559 0.0
C105 C 0.31902 0.56584 0.18673 0.0
C106 C 0.28083 0.55792 0.12647 0.0
C107 C 0.281 0.5239 0.0545 0.0
C108 C 0.27572 0.42027 0.93877 0.0
C109 C 0.26503 0.39648 0.85103 0.0
C110 C 0.23725 0.3588 0.85616 0.0
C111 C 0.22055 0.34404 0.94974 0.0
C112 C 0.22776 0.3708 0.03548 0.0
C113 C 0.25562 0.40832 0.0302 0.0
C114 C 0.32223 0.49202 0.82536 0.0
C115 C 0.36307 0.50321 0.77978 0.0
C116 C 0.36439 0.53601 0.70417 0.0
C117 C 0.32498 0.55865 0.67563 0.0
C118 C 0.28384 0.54564 0.71791 0.0
C119 C 0.28248 0.51235 0.79199 0.0
P120 P 0.03279 0.76731 0.50151 0.0
H121 H 0.02961 0.83183 0.66564 0.0
H122 H 0.97423 0.84435 0.79598 0.0
H123 H 0.90922 0.71935 0.71865 0.0
H124 H 0.9663 0.70607 0.59043 0.0
H125 H 0.0663 0.72501 0.31997 0.0
H126 H 0.1373 0.68659 0.29697 0.0
H127 H 0.14761 0.66609 0.6198 0.0
H128 H 0.07682 0.70516 0.64165 0.0
H129 H 0.01558 0.84368 0.36848 0.0
H130 H 0.96184 0.71065 0.41473 0.0
O131 O 0.06869 0.81036 0.50203 0.0
H132 H 0.95686 0.85937 0.24484 0.0
H133 H 0.90129 0.72706 0.29375 0.0
C134 C 0.00167 0.76833 0.61711 0.0
C135 C 0.00444 0.80628 0.67872 0.0
C136 C 0.97255 0.8135 0.75334 0.0
C137 C 0.93673 0.78333 0.76604 0.0
C138 C 0.93602 0.74358 0.70938 0.0
C139 C 0.96861 0.73595 0.63606 0.0
C140 C 0.06663 0.71843 0.48265 0.0
C141 C 0.08256 0.71001 0.38532 0.0
C142 C 0.12347 0.68804 0.37227 0.0
C143 C 0.14922 0.67495 0.45686 0.0
C144 C 0.12925 0.67666 0.55292 0.0
C145 C 0.08845 0.69889 0.56578 0.0
C146 C 0.993 0.77604 0.40102 0.0
C147 C 0.99136 0.81766 0.35157 0.0
C148 C 0.95763 0.82667 0.28108 0.0
C149 C 0.92431 0.79455 0.26059 0.0
C150 C 0.92627 0.75258 0.30927 0.0
C151 C 0.96081 0.74321 0.3782 0.0
P152 P 0.81478 0.49898 0.05244 0.0
H153 H 0.83655 0.41372 0.96045 0.0
H154 H 0.79776 0.36765 0.83531 0.0
H155 H 0.69816 0.47163 0.79492 0.0
H156 H 0.73628 0.51687 0.92297 0.0
H157 H 0.79982 0.57007 0.20069 0.0
H158 H 0.79169 0.6512 0.18398 0.0
H159 H 0.80809 0.64043 0.86077 0.0
H160 H 0.81612 0.55934 0.87872 0.0
H161 H 0.8408 0.42281 0.17608 0.0
H162 H 0.73106 0.51693 0.16226 0.0
O163 O 0.86995 0.48948 0.05502 0.0
H164 H 0.80049 0.37834 0.30125 0.0
H165 H 0.69105 0.47313 0.2912 0.0
C166 C 0.79014 0.46928 0.94844 0.0
C167 C 0.80689 0.42697 0.92318 0.0
C168 C 0.78452 0.40057 0.85228 0.0
C169 C 0.74511 0.41623 0.80503 0.0
C170 C 0.72884 0.45905 0.82906 0.0
C171 C 0.75075 0.48502 0.90175 0.0
C172 C 0.80662 0.55854 0.0405 0.0
C173 C 0.80078 0.5851 0.12613 0.0
C174 C 0.79643 0.6316 0.11636 0.0
C175 C 0.79865 0.65242 0.02073 0.0
C176 C 0.80561 0.62559 0.93537 0.0
C177 C 0.80998 0.57914 0.94544 0.0
C178 C 0.78957 0.47391 0.16208 0.0
C179 C 0.80873 0.43482 0.20265 0.0
C180 C 0.7855 0.40922 0.27357 0.0
C181 C 0.74274 0.42242 0.30584 0.0
C182 C 0.72423 0.46261 0.26845 0.0
C183 C 0.74719 0.48776 0.19539 0.0
P184 P 0.98456 0.27519 0.49088 0.0
H185 H 0.02608 0.32194 0.3216 0.0
H186 H 0.07235 0.29471 0.18452 0.0
H187 H 0.03804 0.15809 0.26338 0.0
H188 H 0.99163 0.1858 0.40212 0.0
H189 H 0.92841 0.28223 0.66768 0.0
H190 H 0.84712 0.28073 0.68878 0.0
H191 H 0.83146 0.24482 0.37453 0.0
H192 H 0.91255 0.24639 0.35461 0.0
H193 H 0.07621 0.2924 0.54459 0.0
H194 H 0.97169 0.20185 0.64094 0.0
O195 O 0.99073 0.33078 0.49702 0.0
H196 H 0.1278 0.25857 0.66519 0.0
H197 H 0.02329 0.16814 0.76545 0.0
C198 C 0.00571 0.25583 0.3723 0.0
C199 C 0.02723 0.28621 0.30776 0.0
C200 C 0.05376 0.27058 0.22934 0.0
C201 C 0.05916 0.22428 0.21414 0.0
C202 C 0.03424 0.19395 0.27305 0.0
C203 C 0.00785 0.20971 0.35236 0.0
C204 C 0.92635 0.26372 0.51011 0.0
C205 C 0.90739 0.27273 0.60428 0.0
C206 C 0.86094 0.27199 0.61613 0.0
C207 C 0.83281 0.26302 0.53316 0.0
C208 C 0.85218 0.2521 0.43989 0.0
C209 C 0.89863 0.25269 0.42839 0.0
C210 C 0.01998 0.25049 0.58584 0.0
C211 C 0.06426 0.26549 0.59285 0.0
C212 C 0.0938 0.24575 0.6614 0.0
C213 C 0.07959 0.21055 0.72496 0.0
C214 C 0.03503 0.19535 0.71786 0.0
C215 C 0.00551 0.21481 0.64735 0.0
P216 P 0.76501 0.03489 0.48855 0.0
H217 H 0.82949 0.03177 0.32436 0.0
H218 H 0.84206 0.9764 0.19402 0.0
H219 H 0.71716 0.91124 0.27145 0.0
H220 H 0.70384 0.96832 0.39968 0.0
H221 H 0.72269 0.06841 0.67004 0.0
H222 H 0.68432 0.13944 0.69299 0.0
H223 H 0.66387 0.14973 0.37014 0.0
H224 H 0.70288 0.0789 0.34835 0.0
H225 H 0.84139 0.01773 0.62159 0.0
H226 H 0.70839 0.96391 0.57536 0.0
O227 O 0.80805 0.0708 0.48803 0.0
H228 H 0.85712 0.95901 0.74521 0.0
H229 H 0.72485 0.90336 0.69632 0.0
C230 C 0.76605 0.00375 0.37295 0.0
C231 C 0.80397 0.00657 0.31131 0.0
C232 C 0.81122 0.97468 0.23669 0.0
C233 C 0.7811 0.93882 0.22401 0.0
C234 C 0.74136 0.93807 0.2807 0.0
C235 C 0.7337 0.97066 0.35403 0.0
C236 C 0.71613 0.06872 0.50736 0.0
C237 C 0.70771 0.08467 0.60468 0.0
C238 C 0.68577 0.12561 0.6177 0.0
C239 C 0.67271 0.15135 0.53308 0.0
C240 C 0.67441 0.13137 0.43704 0.0
C241 C 0.69661 0.09055 0.42421 0.0
C242 C 0.77376 -0.00489 0.58906 0.0
C243 C 0.81539 0.99349 0.63849 0.0
C244 C 0.82442 0.95976 0.70897 0.0
C245 C 0.79232 0.92642 0.72947 0.0
C246 C 0.75035 0.92836 0.6808 0.0
C247 C 0.74095 0.9629 0.61189 0.0
P248 P 0.45675 0.32431 0.05175 0.0
H249 H 0.48248 0.38949 0.89649 0.0
H250 H 0.54119 0.38917 0.76943 0.0
H251 H 0.57636 0.25339 0.85633 0.0
H252 H 0.51683 0.25387 0.98205 0.0
H253 H 0.403 0.2831 0.20995 0.0
H254 H 0.33698 0.23491 0.20123 0.0
H255 H 0.35845 0.21768 0.88117 0.0
H256 H 0.42385 0.26623 0.89071 0.0
H257 H 0.48623 0.39658 0.1843 0.0
H258 H 0.50198 0.25304 0.1632 0.0
O259 O 0.42706 0.3716 0.04516 0.0
H260 H 0.54373 0.39882 0.3169 0.0
H261 H 0.5603 0.25522 0.2933 0.0
C262 C 0.49539 0.32173 0.94859 0.0
C263 C 0.50228 0.35939 0.88697 0.0
C264 C 0.53597 0.35912 0.81428 0.0
C265 C 0.56379 0.32132 0.8031 0.0
C266 C 0.5558 0.28314 0.86331 0.0
C267 C 0.52178 0.28335 0.93526 0.0
C268 C 0.41816 0.27822 0.05102 0.0
C269 C 0.39438 0.26754 0.13877 0.0
C270 C 0.35671 0.23974 0.13367 0.0
C271 C 0.34194 0.22303 0.0401 0.0
C272 C 0.36866 0.23027 0.95433 0.0
C273 C 0.40617 0.25813 0.95958 0.0
C274 C 0.48999 0.32461 0.16444 0.0
C275 C 0.50123 0.36543 0.21008 0.0
C276 C 0.53404 0.3667 0.28568 0.0
C277 C 0.55663 0.32726 0.31417 0.0
C278 C 0.54358 0.28614 0.27183 0.0
C279 C 0.51028 0.28484 0.19775 0.0
P280 P 0.27348 0.98669 0.49914 0.0
H281 H 0.32019 0.02838 0.66828 0.0
H282 H 0.29291 0.07461 0.8054 0.0
H283 H 0.15635 0.03999 0.72677 0.0
H284 H 0.1841 0.99362 0.588 0.0
H285 H 0.28047 0.93052 0.32235 0.0
H286 H 0.27884 0.84923 0.30121 0.0
H287 H 0.24295 0.8336 0.61547 0.0
H288 H 0.24466 0.9147 0.63543 0.0
H289 H 0.29074 0.07831 0.44513 0.0
H290 H 0.20005 0.9738 0.34934 0.0
O291 O 0.32906 0.99286 0.493 0.0
H292 H 0.25686 0.12987 0.3245 0.0
H293 H 0.16629 0.02537 0.22481 0.0
C294 C 0.25411 0.00786 0.61771 0.0
C295 C 0.28447 0.02945 0.68218 0.0
C296 C 0.26881 0.05596 0.76062 0.0
C297 C 0.22251 0.06125 0.7759 0.0
C298 C 0.19221 0.03626 0.71704 0.0
C299 C 0.20799 0.0099 0.63771 0.0
C300 C 0.26198 0.92848 0.47992 0.0
C301 C 0.27096 0.90951 0.38575 0.0
C302 C 0.27013 0.86306 0.37387 0.0
C303 C 0.26112 0.83493 0.45683 0.0
C304 C 0.25026 0.85432 0.55012 0.0
C305 C 0.25093 0.90077 0.56164 0.0
C306 C 0.24876 0.02208 0.40415 0.0
C307 C 0.2638 0.06635 0.39698 0.0
C308 C 0.24402 0.09587 0.32843 0.0
C309 C 0.20878 0.08165 0.26501 0.0
C310 C 0.19355 0.03711 0.27227 0.0
C311 C 0.21303 0.00761 0.3428 0.0
P312 P 0.4969 0.81671 0.93748 0.0
H313 H 0.41165 0.83851 0.02944 0.0
H314 H 0.36557 0.79975 0.15456 0.0
H315 H 0.4695 0.7001 0.19499 0.0
H316 H 0.51476 0.7382 0.06696 0.0
H317 H 0.56799 0.80172 0.78927 0.0
H318 H 0.64912 0.79363 0.806 0.0
H319 H 0.63833 0.81005 0.12921 0.0
H320 H 0.55725 0.81804 0.11124 0.0
H321 H 0.4208 0.84279 0.81371 0.0
H322 H 0.51482 0.73296 0.82774 0.0
O323 O 0.48742 0.87188 0.93492 0.0
H324 H 0.37633 0.8025 0.68851 0.0
H325 H 0.471 0.69295 0.69877 0.0
C326 C 0.46719 0.79208 0.04147 0.0
C327 C 0.42489 0.80885 0.06671 0.0
C328 C 0.39848 0.78649 0.1376 0.0
C329 C 0.41413 0.74707 0.18486 0.0
C330 C 0.45694 0.73078 0.16084 0.0
C331 C 0.48292 0.75268 0.08816 0.0
C332 C 0.55646 0.80854 0.94946 0.0
C333 C 0.58302 0.8027 0.86384 0.0
C334 C 0.62952 0.79837 0.87362 0.0
C335 C 0.65033 0.8006 0.96926 0.0
C336 C 0.6235 0.80755 0.05461 0.0
C337 C 0.57705 0.81191 0.04453 0.0
C338 C 0.47184 0.79151 0.82782 0.0
C339 C 0.43278 0.81069 0.78718 0.0
C340 C 0.40718 0.78747 0.71624 0.0
C341 C 0.42035 0.74469 0.68403 0.0
C342 C 0.46052 0.72616 0.72148 0.0
C343 C 0.48566 0.7491 0.79456 0.0
loop_
_geom_bond_atom_site_label_1
_geom_bond_atom_site_label_2
_geom_bond_distance
_geom_bond_site_symmetry_2
_ccdc_geom_bond_type
Sc0 O3 2.025 . S
Sc0 O10 2.105 . S
Sc0 O13 2.105 . S
Sc0 O16 2.105 . S
Sc0 O19 2.105 . S
Sc1 O3 2.025 . S
Sc1 O11 2.105 . S
Sc1 O15 2.105 1_554 S
Sc1 O17 2.105 . S
Sc1 O21 2.105 1_554 S
Sc2 O3 2.025 1_556 S
Sc2 O12 2.105 . S
Sc2 O14 2.105 . S
Sc2 O18 2.105 . S
Sc2 O20 2.105 . S
O3 Sc0 2.025 . S
O3 Sc1 2.025 . S
O3 Sc2 2.025 1_554 S
C4 O10 1.273 . S
C4 O20 1.263 1_554 S
C5 O11 1.268 . S
C5 O19 1.268 . S
C6 O12 1.268 . S
C6 O21 1.268 . S
C7 O13 1.268 . S
C7 O17 1.268 . S
C8 O14 1.268 1_554 S
C8 O16 1.268 . S
C9 O15 1.268 . S
C9 O18 1.268 . S
O10 Sc0 2.105 . S
O10 C4 1.273 . S
O11 Sc1 2.105 . S
O11 C5 1.268 . S
O12 Sc2 2.105 . S
O12 C6 1.268 . S
O13 Sc0 2.105 . S
O13 C7 1.268 . S
O14 Sc2 2.105 . S
O14 C8 1.268 1_556 S
O15 Sc1 2.105 1_556 S
O15 C9 1.268 . S
O16 Sc0 2.105 . S
O16 C8 1.268 . S
O17 Sc1 2.105 . S
O17 C7 1.268 . S
O18 Sc2 2.105 . S
O18 C9 1.268 . S
O19 Sc0 2.105 . S
O19 C5 1.268 . S
O20 Sc2 2.105 . S
O20 C4 1.263 1_556 S
O21 Sc1 2.105 1_556 S
O21 C6 1.268 . S
Sc22 O25 2.025 . S
Sc22 O32 2.105 . S
Sc22 O35 2.105 . S
Sc22 O38 2.105 . S
Sc22 O41 2.105 . S
Sc23 O25 2.025 . S
Sc23 O33 2.105 . S
Sc23 O37 2.105 . S
Sc23 O39 2.105 . S
Sc23 O43 2.105 . S
Sc24 O25 2.025 . S
Sc24 O34 2.105 . S
Sc24 O36 2.105 . S
Sc24 O40 2.105 . S
Sc24 O42 2.105 . S
O25 Sc22 2.025 . S
O25 Sc23 2.025 . S
O25 Sc24 2.025 . S
C26 O32 1.268 . S
C26 O42 1.268 . S
C27 O33 1.268 . S
C27 O41 1.268 . S
C28 O34 1.268 . S
C28 O43 1.268 . S
C29 O35 1.268 . S
C29 O39 1.268 . S
C30 O36 1.268 . S
C30 O38 1.268 . S
C31 O37 1.268 . S
C31 O40 1.268 . S
O32 Sc22 2.105 . S
O32 C26 1.268 . S
O33 Sc23 2.105 . S
O33 C27 1.268 . S
O34 Sc24 2.105 . S
O34 C28 1.268 . S
O35 Sc22 2.105 . S
O35 C29 1.268 . S
O36 Sc24 2.105 . S
O36 C30 1.268 . S
O37 Sc23 2.105 . S
O37 C31 1.268 . S
O38 Sc22 2.105 . S
O38 C30 1.268 . S
O39 Sc23 2.105 . S
O39 C29 1.268 . S
O40 Sc24 2.105 . S
O40 C31 1.268 . S
O41 Sc22 2.105 . S
O41 C27 1.268 . S
O42 Sc24 2.105 . S
O42 C26 1.268 . S
O43 Sc23 2.105 . S
O43 C28 1.268 . S
Sc44 O47 2.025 1_556 S
Sc44 O54 2.105 . S
Sc44 O57 2.105 . S
Sc44 O60 2.105 . S
Sc44 O63 2.105 . S
Sc45 O47 2.025 . S
Sc45 O55 2.105 1_554 S
Sc45 O59 2.105 . S
Sc45 O61 2.105 1_554 S
Sc45 O65 2.105 . S
Sc46 O47 2.025 . S
Sc46 O56 2.105 . S
Sc46 O58 2.105 . S
Sc46 O62 2.105 . S
Sc46 O64 2.105 . S
O47 Sc44 2.025 1_554 S
O47 Sc45 2.025 . S
O47 Sc46 2.025 . S
C48 O54 1.263 1_554 S
C48 O64 1.273 . S
C49 O55 1.268 . S
C49 O63 1.268 . S
C50 O56 1.268 . S
C50 O65 1.268 . S
C51 O57 1.268 . S
C51 O61 1.268 . S
C52 O58 1.268 . S
C52 O60 1.268 1_554 S
C53 O59 1.268 . S
C53 O62 1.268 . S
O54 Sc44 2.105 . S
O54 C48 1.263 1_556 S
O55 Sc45 2.105 1_556 S
O55 C49 1.268 . S
O56 Sc46 2.105 . S
O56 C50 1.268 . S
O57 Sc44 2.105 . S
O57 C51 1.268 . S
O58 Sc46 2.105 . S
O58 C52 1.268 . S
O59 Sc45 2.105 . S
O59 C53 1.268 . S
O60 Sc44 2.105 . S
O60 C52 1.268 1_556 S
O61 Sc45 2.105 1_556 S
O61 C51 1.268 . S
O62 Sc46 2.105 . S
O62 C53 1.268 . S
O63 Sc44 2.105 . S
O63 C49 1.268 . S
O64 Sc46 2.105 . S
O64 C48 1.273 . S
O65 Sc45 2.105 . S
O65 C50 1.268 . S
Sc66 O69 2.025 . S
Sc66 O76 2.105 . S
Sc66 O79 2.105 . S
Sc66 O82 2.105 . S
Sc66 O85 2.105 . S
Sc67 O69 2.025 . S
Sc67 O77 2.105 . S
Sc67 O81 2.105 . S
Sc67 O83 2.105 . S
Sc67 O87 2.105 . S
Sc68 O69 2.025 . S
Sc68 O78 2.105 . S
Sc68 O80 2.105 . S
Sc68 O84 2.105 . S
Sc68 O86 2.105 . S
O69 Sc66 2.025 . S
O69 Sc67 2.025 . S
O69 Sc68 2.025 . S
C70 O76 1.268 . S
C70 O86 1.268 . S
C71 O77 1.268 . S
C71 O85 1.268 . S
C72 O78 1.268 . S
C72 O87 1.268 . S
C73 O79 1.268 . S
C73 O83 1.268 . S
C74 O80 1.268 . S
C74 O82 1.268 . S
C75 O81 1.268 . S
C75 O84 1.268 . S
O76 Sc66 2.105 . S
O76 C70 1.268 . S
O77 Sc67 2.105 . S
O77 C71 1.268 . S
O78 Sc68 2.105 . S
O78 C72 1.268 . S
O79 Sc66 2.105 . S
O79 C73 1.268 . S
O80 Sc68 2.105 . S
O80 C74 1.268 . S
O81 Sc67 2.105 . S
O81 C75 1.268 . S
O82 Sc66 2.105 . S
O82 C74 1.268 . S
O83 Sc67 2.105 . S
O83 C73 1.268 . S
O84 Sc68 2.105 . S
O84 C75 1.268 . S
O85 Sc66 2.105 . S
O85 C71 1.268 . S
O86 Sc68 2.105 . S
O86 C70 1.268 . S
O87 Sc67 2.105 . S
O87 C72 1.268 . S
P88 O99 1.490 . S
P88 C102 1.812 . S
P88 C108 1.803 . S
P88 C114 1.819 1_554 S
H89 C103 0.941 . S
H90 C104 0.939 . S
H91 C106 0.940 . S
H92 C107 0.940 . S
H93 C109 0.939 . S
H94 C110 0.942 . S
H95 C112 0.940 . S
H96 C113 0.939 . S
H97 C115 0.941 . S
H98 C119 0.939 . S
O99 P88 1.490 . S
H100 C116 0.939 . S
H101 C118 0.940 . S
C102 P88 1.812 . S
C102 C103 1.389 . S
C102 C107 1.391 . S
C103 H89 0.941 . S
C103 C102 1.389 . S
C103 C104 1.397 . S
C104 H90 0.939 . S
C104 C103 1.397 . S
C104 C105 1.378 . S
C105 C104 1.378 . S
C105 C106 1.378 . S
C106 H91 0.940 . S
C106 C105 1.378 . S
C106 C107 1.396 . S
C107 H92 0.940 . S
C107 C102 1.391 . S
C107 C106 1.396 . S
C108 P88 1.803 . S
C108 C109 1.378 1_554 S
C108 C113 1.400 . S
C109 H93 0.939 . S
C109 C108 1.378 1_556 S
C109 C110 1.361 . S
C110 H94 0.942 . S
C110 C109 1.361 . S
C110 C111 1.369 1_556 S
C111 C110 1.369 1_554 S
C111 C112 1.404 . S
C112 H95 0.940 . S
C112 C111 1.404 . S
C112 C113 1.389 . S
C113 H96 0.939 . S
C113 C108 1.400 . S
C113 C112 1.389 . S
C114 P88 1.819 1_556 S
C114 C115 1.391 . S
C114 C119 1.391 . S
C115 H97 0.941 . S
C115 C114 1.391 . S
C115 C116 1.396 . S
C116 H100 0.939 . S
C116 C115 1.396 . S
C116 C117 1.397 . S
C117 C116 1.397 . S
C117 C118 1.385 . S
C118 H101 0.940 . S
C118 C117 1.385 . S
C118 C119 1.388 . S
C119 H98 0.939 . S
C119 C114 1.391 . S
C119 C118 1.388 . S
P120 O131 1.490 . S
P120 C134 1.812 . S
P120 C140 1.803 1_655 S
P120 C146 1.819 . S
H121 C135 0.941 . S
H122 C136 0.939 . S
H123 C138 0.940 . S
H124 C139 0.940 . S
H125 C141 0.939 . S
H126 C142 0.942 . S
H127 C144 0.940 . S
H128 C145 0.939 . S
H129 C147 0.941 . S
H130 C151 0.939 1_455 S
O131 P120 1.490 . S
H132 C148 0.939 . S
H133 C150 0.940 . S
C134 P120 1.812 . S
C134 C135 1.389 . S
C134 C139 1.391 . S
C135 H121 0.941 . S
C135 C134 1.389 . S
C135 C136 1.397 . S
C136 H122 0.939 . S
C136 C135 1.397 . S
C136 C137 1.378 . S
C137 C136 1.378 . S
C137 C138 1.378 . S
C138 H123 0.940 . S
C138 C137 1.378 . S
C138 C139 1.396 . S
C139 H124 0.940 . S
C139 C134 1.391 . S
C139 C138 1.396 . S
C140 P120 1.803 1_455 S
C140 C141 1.378 . S
C140 C145 1.400 . S
C141 H125 0.939 . S
C141 C140 1.378 . S
C141 C142 1.361 . S
C142 H126 0.942 . S
C142 C141 1.361 . S
C142 C143 1.369 . S
C143 C142 1.369 . S
C143 C144 1.404 . S
C144 H127 0.940 . S
C144 C143 1.404 . S
C144 C145 1.389 . S
C145 H128 0.939 . S
C145 C140 1.400 . S
C145 C144 1.389 . S
C146 P120 1.819 . S
C146 C147 1.391 . S
C146 C151 1.391 . S
C147 H129 0.941 . S
C147 C146 1.391 . S
C147 C148 1.396 . S
C148 H132 0.939 . S
C148 C147 1.396 . S
C148 C149 1.397 . S
C149 C148 1.397 . S
C149 C150 1.385 . S
C150 H133 0.940 . S
C150 C149 1.385 . S
C150 C151 1.388 . S
C151 H130 0.939 1_655 S
C151 C146 1.391 . S
C151 C150 1.388 . S
P152 O163 1.490 . S
P152 C166 1.812 . S
P152 C172 1.803 . S
P152 C178 1.819 1_556 S
H153 C167 0.941 . S
H154 C168 0.939 . S
H155 C170 0.940 . S
H156 C171 0.940 . S
H157 C173 0.939 . S
H158 C174 0.942 . S
H159 C176 0.940 . S
H160 C177 0.939 . S
H161 C179 0.941 . S
H162 C183 0.939 . S
O163 P152 1.490 . S
H164 C180 0.939 . S
H165 C182 0.940 . S
C166 P152 1.812 . S
C166 C167 1.389 . S
C166 C171 1.391 . S
C167 H153 0.941 . S
C167 C166 1.389 . S
C167 C168 1.397 . S
C168 H154 0.939 . S
C168 C167 1.397 . S
C168 C169 1.378 . S
C169 C168 1.378 . S
C169 C170 1.378 . S
C170 H155 0.940 . S
C170 C169 1.378 . S
C170 C171 1.396 . S
C171 H156 0.940 . S
C171 C166 1.391 . S
C171 C170 1.396 . S
C172 P152 1.803 . S
C172 C173 1.378 1_556 S
C172 C177 1.400 . S
C173 H157 0.939 . S
C173 C172 1.378 1_554 S
C173 C174 1.361 . S
C174 H158 0.942 . S
C174 C173 1.361 . S
C174 C175 1.369 . S
C175 C174 1.369 . S
C175 C176 1.404 1_554 S
C176 H159 0.940 . S
C176 C175 1.404 1_556 S
C176 C177 1.389 . S
C177 H160 0.939 . S
C177 C172 1.400 . S
C177 C176 1.389 . S
C178 P152 1.819 1_554 S
C178 C179 1.391 . S
C178 C183 1.391 . S
C179 H161 0.941 . S
C179 C178 1.391 . S
C179 C180 1.396 . S
C180 H164 0.939 . S
C180 C179 1.396 . S
C180 C181 1.397 . S
C181 C180 1.397 . S
C181 C182 1.385 . S
C182 H165 0.940 . S
C182 C181 1.385 . S
C182 C183 1.388 . S
C183 H162 0.939 . S
C183 C178 1.391 . S
C183 C182 1.388 . S
P184 O195 1.490 . S
P184 C198 1.812 . S
P184 C204 1.803 1_455 S
P184 C210 1.819 . S
H185 C199 0.941 . S
H186 C200 0.939 . S
H187 C202 0.940 . S
H188 C203 0.940 . S
H189 C205 0.939 . S
H190 C206 0.942 . S
H191 C208 0.940 . S
H192 C209 0.939 . S
H193 C211 0.941 . S
H194 C215 0.939 1_655 S
O195 P184 1.490 . S
H196 C212 0.939 . S
H197 C214 0.940 . S
C198 P184 1.812 . S
C198 C199 1.389 . S
C198 C203 1.391 . S
C199 H185 0.941 . S
C199 C198 1.389 . S
C199 C200 1.397 . S
C200 H186 0.939 . S
C200 C199 1.397 . S
C200 C201 1.378 . S
C201 C200 1.378 . S
C201 C202 1.378 . S
C202 H187 0.940 . S
C202 C201 1.378 . S
C202 C203 1.396 . S
C203 H188 0.940 . S
C203 C198 1.391 . S
C203 C202 1.396 . S
C204 P184 1.803 1_655 S
C204 C205 1.378 . S
C204 C209 1.400 . S
C205 H189 0.939 . S
C205 C204 1.378 . S
C205 C206 1.361 . S
C206 H190 0.942 . S
C206 C205 1.361 . S
C206 C207 1.369 . S
C207 C206 1.369 . S
C207 C208 1.404 . S
C208 H191 0.940 . S
C208 C207 1.404 . S
C208 C209 1.389 . S
C209 H192 0.939 . S
C209 C204 1.400 . S
C209 C208 1.389 . S
C210 P184 1.819 . S
C210 C211 1.391 . S
C210 C215 1.391 . S
C211 H193 0.941 . S
C211 C210 1.391 . S
C211 C212 1.396 . S
C212 H196 0.939 . S
C212 C211 1.396 . S
C212 C213 1.397 . S
C213 C212 1.397 . S
C213 C214 1.385 . S
C214 H197 0.940 . S
C214 C213 1.385 . S
C214 C215 1.388 . S
C215 H194 0.939 1_455 S
C215 C210 1.391 . S
C215 C214 1.388 . S
P216 O227 1.490 1_565 S
P216 C230 1.812 . S
P216 C236 1.803 1_565 S
P216 C242 1.819 . S
H217 C231 0.941 . S
H218 C232 0.939 . S
H219 C234 0.940 . S
H220 C235 0.940 . S
H221 C237 0.939 . S
H222 C238 0.942 . S
H223 C240 0.940 . S
H224 C241 0.939 . S
H225 C243 0.941 . S
H226 C247 0.939 1_545 S
O227 P216 1.490 1_545 S
H228 C244 0.939 . S
H229 C246 0.940 . S
C230 P216 1.812 . S
C230 C231 1.389 . S
C230 C235 1.391 . S
C231 H217 0.941 . S
C231 C230 1.389 . S
C231 C232 1.397 . S
C232 H218 0.939 . S
C232 C231 1.397 . S
C232 C233 1.378 . S
C233 C232 1.378 . S
C233 C234 1.378 . S
C234 H219 0.940 . S
C234 C233 1.378 . S
C234 C235 1.396 . S
C235 H220 0.940 . S
C235 C230 1.391 . S
C235 C234 1.396 . S
C236 P216 1.803 1_545 S
C236 C237 1.378 . S
C236 C241 1.400 . S
C237 H221 0.939 . S
C237 C236 1.378 . S
C237 C238 1.361 . S
C238 H222 0.942 . S
C238 C237 1.361 . S
C238 C239 1.369 . S
C239 C238 1.369 . S
C239 C240 1.404 . S
C240 H223 0.940 . S
C240 C239 1.404 . S
C240 C241 1.389 . S
C241 H224 0.939 . S
C241 C236 1.400 . S
C241 C240 1.389 . S
C242 P216 1.819 . S
C242 C243 1.391 . S
C242 C247 1.391 . S
C243 H225 0.941 . S
C243 C242 1.391 . S
C243 C244 1.396 . S
C244 H228 0.939 . S
C244 C243 1.396 . S
C244 C245 1.397 . S
C245 C244 1.397 . S
C245 C246 1.385 . S
C246 H229 0.940 . S
C246 C245 1.385 . S
C246 C247 1.388 . S
C247 H226 0.939 1_565 S
C247 C242 1.391 . S
C247 C246 1.388 . S
P248 O259 1.490 . S
P248 C262 1.812 . S
P248 C268 1.803 . S
P248 C274 1.819 1_556 S
H249 C263 0.941 . S
H250 C264 0.939 . S
H251 C266 0.940 . S
H252 C267 0.940 . S
H253 C269 0.939 . S
H254 C270 0.942 . S
H255 C272 0.940 . S
H256 C273 0.939 . S
H257 C275 0.941 . S
H258 C279 0.939 . S
O259 P248 1.490 . S
H260 C276 0.939 . S
H261 C278 0.940 . S
C262 P248 1.812 . S
C262 C263 1.389 . S
C262 C267 1.391 . S
C263 H249 0.941 . S
C263 C262 1.389 . S
C263 C264 1.397 . S
C264 H250 0.939 . S
C264 C263 1.397 . S
C264 C265 1.378 . S
C265 C264 1.378 . S
C265 C266 1.378 . S
C266 H251 0.940 . S
C266 C265 1.378 . S
C266 C267 1.396 . S
C267 H252 0.940 . S
C267 C262 1.391 . S
C267 C266 1.396 . S
C268 P248 1.803 . S
C268 C269 1.378 1_556 S
C268 C273 1.400 . S
C269 H253 0.939 . S
C269 C268 1.378 1_554 S
C269 C270 1.361 . S
C270 H254 0.942 . S
C270 C269 1.361 . S
C270 C271 1.369 . S
C271 C270 1.369 . S
C271 C272 1.404 1_554 S
C272 H255 0.940 . S
C272 C271 1.404 1_556 S
C272 C273 1.389 . S
C273 H256 0.939 . S
C273 C268 1.400 . S
C273 C272 1.389 . S
C274 P248 1.819 1_554 S
C274 C275 1.391 . S
C274 C279 1.391 . S
C275 H257 0.941 . S
C275 C274 1.391 . S
C275 C276 1.396 . S
C276 H260 0.939 . S
C276 C275 1.396 . S
C276 C277 1.397 . S
C277 C276 1.397 . S
C277 C278 1.385 . S
C278 H261 0.940 . S
C278 C277 1.385 . S
C278 C279 1.388 . S
C279 H258 0.939 . S
C279 C274 1.391 . S
C279 C278 1.388 . S
P280 O291 1.490 . S
P280 C294 1.812 . S
P280 C300 1.803 1_545 S
P280 C306 1.819 . S
H281 C295 0.941 . S
H282 C296 0.939 . S
H283 C298 0.940 . S
H284 C299 0.940 . S
H285 C301 0.939 . S
H286 C302 0.942 . S
H287 C304 0.940 . S
H288 C305 0.939 . S
H289 C307 0.941 . S
H290 C311 0.939 1_565 S
O291 P280 1.490 . S
H292 C308 0.939 . S
H293 C310 0.940 . S
C294 P280 1.812 . S
C294 C295 1.389 . S
C294 C299 1.391 . S
C295 H281 0.941 . S
C295 C294 1.389 . S
C295 C296 1.397 . S
C296 H282 0.939 . S
C296 C295 1.397 . S
C296 C297 1.378 . S
C297 C296 1.378 . S
C297 C298 1.378 . S
C298 H283 0.940 . S
C298 C297 1.378 . S
C298 C299 1.396 . S
C299 H284 0.940 . S
C299 C294 1.391 . S
C299 C298 1.396 . S
C300 P280 1.803 1_565 S
C300 C301 1.378 . S
C300 C305 1.400 . S
C301 H285 0.939 . S
C301 C300 1.378 . S
C301 C302 1.361 . S
C302 H286 0.942 . S
C302 C301 1.361 . S
C302 C303 1.369 . S
C303 C302 1.369 . S
C303 C304 1.404 . S
C304 H287 0.940 . S
C304 C303 1.404 . S
C304 C305 1.389 . S
C305 H288 0.939 . S
C305 C300 1.400 . S
C305 C304 1.389 . S
C306 P280 1.819 . S
C306 C307 1.391 . S
C306 C311 1.391 . S
C307 H289 0.941 . S
C307 C306 1.391 . S
C307 C308 1.396 . S
C308 H292 0.939 . S
C308 C307 1.396 . S
C308 C309 1.397 . S
C309 C308 1.397 . S
C309 C310 1.385 . S
C310 H293 0.940 . S
C310 C309 1.385 . S
C310 C311 1.388 . S
C311 H290 0.939 1_545 S
C311 C306 1.391 . S
C311 C310 1.388 . S
P312 O323 1.490 . S
P312 C326 1.812 . S
P312 C332 1.803 . S
P312 C338 1.819 1_554 S
H313 C327 0.941 . S
H314 C328 0.939 . S
H315 C330 0.940 . S
H316 C331 0.940 . S
H317 C333 0.939 . S
H318 C334 0.942 . S
H319 C336 0.940 . S
H320 C337 0.939 . S
H321 C339 0.941 . S
H322 C343 0.939 . S
O323 P312 1.490 . S
H324 C340 0.939 . S
H325 C342 0.940 . S
C326 P312 1.812 . S
C326 C327 1.389 . S
C326 C331 1.391 . S
C327 H313 0.941 . S
C327 C326 1.389 . S
C327 C328 1.397 . S
C328 H314 0.939 . S
C328 C327 1.397 . S
C328 C329 1.378 . S
C329 C328 1.378 . S
C329 C330 1.378 . S
C330 H315 0.940 . S
C330 C329 1.378 . S
C330 C331 1.396 . S
C331 H316 0.940 . S
C331 C326 1.391 . S
C331 C330 1.396 . S
C332 P312 1.803 . S
C332 C333 1.378 1_554 S
C332 C337 1.400 . S
C333 H317 0.939 . S
C333 C332 1.378 1_556 S
C333 C334 1.361 . S
C334 H318 0.942 . S
C334 C333 1.361 . S
C334 C335 1.369 1_556 S
C335 C334 1.369 1_554 S
C335 C336 1.404 . S
C336 H319 0.940 . S
C336 C335 1.404 . S
C336 C337 1.389 . S
C337 H320 0.939 . S
C337 C332 1.400 . S
C337 C336 1.389 . S
C338 P312 1.819 1_556 S
C338 C339 1.391 . S
C338 C343 1.391 . S
C339 H321 0.941 . S
C339 C338 1.391 . S
C339 C340 1.396 . S
C340 H324 0.939 . S
C340 C339 1.396 . S
C340 C341 1.397 . S
C341 C340 1.397 . S
C341 C342 1.385 . S
C342 H325 0.940 . S
C342 C341 1.385 . S
C342 C343 1.388 . S
C343 H322 0.939 . S
C343 C338 1.391 . S
C343 C342 1.388 . S
C5 C201 1.838 . S
C31 C117 1.561 . S
C149 C53 1.540 . S
C71 C169 1.812 . S
C277 C75 1.561 . S
C297 C9 1.839 . S
C329 C27 1.811 . S
C245 C49 1.541 . S
C51 C137 1.562 . S
C72 C181 1.880 . S
C6 C213 1.851 . S
C105 C29 1.542 . S
C28 C341 1.879 . S
C233 C50 1.563 . S
C265 C73 1.542 . S
C7 C309 1.852 . S
C111 C4 1.492 . S
C143 C30 1.491 . S
C52 C175 1.814 . S
C70 C207 1.813 . S
C239 C74 1.491 . S
C8 C271 1.491 . S
C26 C303 1.815 . S
C48 C335 1.813 . S
