# Generated by pormake.
# Topology csq, (4,8)-cn, num edge types: 1
# Building blocks:
#     Node 0, Type 0, BuildingBlock: NAHDIM_clean_linker_0, # of connection points: 4
#     Node 1, Type 0, BuildingBlock: NAHDIM_clean_linker_0, # of connection points: 4
#     Node 2, Type 0, BuildingBlock: NAHDIM_clean_linker_0, # of connection points: 4
#     Node 3, Type 0, BuildingBlock: NAHDIM_clean_linker_0, # of connection points: 4
#     Node 4, Type 0, BuildingBlock: NAHDIM_clean_linker_0, # of connection points: 4
#     Node 5, Type 0, BuildingBlock: NAHDIM_clean_linker_0, # of connection points: 4
#     Node 6, Type 1, BuildingBlock: TAGTUT_clean_sbu_1, # of connection points: 8
#     Node 7, Type 1, BuildingBlock: TAGTUT_clean_sbu_1, # of connection points: 8
#     Node 8, Type 1, BuildingBlock: TAGTUT_clean_sbu_1, # of connection points: 8
#     Edge 9, Type (0, 1), BuildingBlock: UVAHIK_clean_linker_0, # of connection points: 2
#     Edge 10, Type (0, 1), BuildingBlock: UVAHIK_clean_linker_0, # of connection points: 2
#     Edge 11, Type (0, 1), BuildingBlock: UVAHIK_clean_linker_0, # of connection points: 2
#     Edge 12, Type (0, 1), BuildingBlock: UVAHIK_clean_linker_0, # of connection points: 2
#     Edge 13, Type (0, 1), BuildingBlock: UVAHIK_clean_linker_0, # of connection points: 2
#     Edge 14, Type (0, 1), BuildingBlock: UVAHIK_clean_linker_0, # of connection points: 2
#     Edge 15, Type (0, 1), BuildingBlock: UVAHIK_clean_linker_0, # of connection points: 2
#     Edge 16, Type (0, 1), BuildingBlock: UVAHIK_clean_linker_0, # of connection points: 2
#     Edge 17, Type (0, 1), BuildingBlock: UVAHIK_clean_linker_0, # of connection points: 2
#     Edge 18, Type (0, 1), BuildingBlock: UVAHIK_clean_linker_0, # of connection points: 2
#     Edge 19, Type (0, 1), BuildingBlock: UVAHIK_clean_linker_0, # of connection points: 2
#     Edge 20, Type (0, 1), BuildingBlock: UVAHIK_clean_linker_0, # of connection points: 2
#     Edge 21, Type (0, 1), BuildingBlock: UVAHIK_clean_linker_0, # of connection points: 2
#     Edge 22, Type (0, 1), BuildingBlock: UVAHIK_clean_linker_0, # of connection points: 2
#     Edge 23, Type (0, 1), BuildingBlock: UVAHIK_clean_linker_0, # of connection points: 2
#     Edge 24, Type (0, 1), BuildingBlock: UVAHIK_clean_linker_0, # of connection points: 2
#     Edge 25, Type (0, 1), BuildingBlock: UVAHIK_clean_linker_0, # of connection points: 2
#     Edge 26, Type (0, 1), BuildingBlock: UVAHIK_clean_linker_0, # of connection points: 2
#     Edge 27, Type (0, 1), BuildingBlock: UVAHIK_clean_linker_0, # of connection points: 2
#     Edge 28, Type (0, 1), BuildingBlock: UVAHIK_clean_linker_0, # of connection points: 2
#     Edge 29, Type (0, 1), BuildingBlock: UVAHIK_clean_linker_0, # of connection points: 2
#     Edge 30, Type (0, 1), BuildingBlock: UVAHIK_clean_linker_0, # of connection points: 2
#     Edge 31, Type (0, 1), BuildingBlock: UVAHIK_clean_linker_0, # of connection points: 2
#     Edge 32, Type (0, 1), BuildingBlock: UVAHIK_clean_linker_0, # of connection points: 2
# Relax obj value: 0.050
# Max RMSD: 0.135
# Mean RMSD: 0.090
data_MOF--net-csq--node1-TAGTUT_clean_sbu_1--node2-NAHDIM_clean_linker_0--edge1-UVAHIK_clean_linker_0
_symmetry_space_group_name_H-M    P1
_symmetry_Int_Tables_number       1
_symmetry_cell_setting            triclinic
loop_
_symmetry_equiv_pos_as_xyz
'x, y, z'
_cell_length_a     81.628135
_cell_length_b     80.038468
_cell_length_c     32.268885
_cell_angle_alpha  92.213972
_cell_angle_beta   91.888178
_cell_angle_gamma 119.91812
loop_
_atom_site_label
_atom_site_type_symbol
_atom_site_fract_x
_atom_site_fract_y
_atom_site_fract_z
_atom_type_partial_charge
C0 C 0.27591 0.4591 0.41467 0.0
C1 C 0.28835 0.45355 0.38986 0.0
C2 C 0.28064 0.45864 0.31932 0.0
C3 C 0.26773 0.43955 0.30497 0.0
C4 C 0.25471 0.43564 0.27141 0.0
C5 C 0.25452 0.45115 0.25222 0.0
C6 C 0.2681 0.47041 0.26545 0.0
C7 C 0.28124 0.47388 0.29848 0.0
C8 C 0.24072 0.41492 0.25739 0.0
C9 C 0.26817 0.48729 0.24599 0.0
C10 C 0.16202 0.42188 0.39319 0.0
C11 C 0.15939 0.43607 0.36707 0.0
C12 C 0.16221 0.42995 0.2948 0.0
C13 C 0.17411 0.44843 0.28146 0.0
C14 C 0.18724 0.45132 0.25161 0.0
C15 C 0.18852 0.43538 0.23518 0.0
C16 C 0.17548 0.41652 0.2463 0.0
C17 C 0.16227 0.41402 0.27578 0.0
C18 C 0.20062 0.47158 0.23981 0.0
C19 C 0.17643 0.3992 0.22944 0.0
C20 C 0.15999 0.41492 0.9565 0.0
C21 C 0.1691 0.43393 0.97412 0.0
C22 C 0.18565 0.44103 0.00013 0.0
C23 C 0.19275 0.42861 0.0097 0.0
C24 C 0.18365 0.40951 0.99136 0.0
C25 C 0.16759 0.40308 0.96429 0.0
C26 C 0.19547 0.46176 0.01738 0.0
C27 C 0.1908 0.39581 0.00036 0.0
C28 C 0.32279 0.43894 0.98649 0.0
C29 C 0.31263 0.44306 0.95087 0.0
C30 C 0.29215 0.45313 0.98523 0.0
C31 C 0.28916 0.46863 0.9937 0.0
C32 C 0.27333 0.46618 0.01453 0.0
C33 C 0.26019 0.44772 0.02733 0.0
C34 C 0.26323 0.43199 0.01946 0.0
C35 C 0.27914 0.43483 0.99853 0.0
C36 C 0.27057 0.48327 0.02268 0.0
C37 C 0.24958 0.41213 0.03304 0.0
C38 C 0.23862 0.44715 0.22235 0.0
C39 C 0.22168 0.44344 0.23907 0.0
C40 C 0.20566 0.43891 0.2137 0.0
C41 C 0.20646 0.43801 0.17005 0.0
C42 C 0.19052 0.43306 0.14352 0.0
C43 C 0.19144 0.43196 0.10055 0.0
C44 C 0.20849 0.43631 0.08249 0.0
C45 C 0.20963 0.43541 0.03886 0.0
C46 C 0.2268 0.43979 0.0221 0.0
C47 C 0.2429 0.44462 0.04765 0.0
C48 C 0.24202 0.44545 0.09133 0.0
C49 C 0.25787 0.45 0.11799 0.0
C50 C 0.25678 0.45045 0.16094 0.0
C51 C 0.23988 0.44665 0.17882 0.0
C52 C 0.22372 0.44207 0.15256 0.0
C53 C 0.22477 0.4414 0.10876 0.0
C54 C 0.11052 0.39219 0.92939 0.0
C55 C 0.12922 0.41122 0.93707 0.0
O56 O 0.2927 0.46292 0.35311 0.0
O57 O 0.30767 0.45651 0.96439 0.0
O58 O 0.14394 0.4076 0.93153 0.0
O59 O 0.15157 0.42746 0.32786 0.0
H60 H 0.2806 0.43764 0.38321 0.0
H61 H 0.26235 0.45445 0.39662 0.0
H62 H 0.2832 0.47499 0.42146 0.0
H63 H 0.27259 0.45185 0.44442 0.0
H64 H 0.26772 0.42764 0.31973 0.0
H65 H 0.29149 0.48857 0.30948 0.0
H66 H 0.22647 0.41123 0.26728 0.0
H67 H 0.2446 0.40468 0.27079 0.0
H68 H 0.23979 0.41293 0.22297 0.0
H69 H 0.27968 0.5014 0.2599 0.0
H70 H 0.25438 0.48658 0.24993 0.0
H71 H 0.26993 0.48654 0.21214 0.0
H72 H 0.17388 0.44874 0.36508 0.0
H73 H 0.17308 0.41935 0.38013 0.0
H74 H 0.16668 0.4279 0.42579 0.0
H75 H 0.14875 0.40772 0.39279 0.0
H76 H 0.17362 0.46065 0.29568 0.0
H77 H 0.15283 0.39978 0.28611 0.0
H78 H 0.20211 0.47181 0.20571 0.0
H79 H 0.21484 0.47669 0.25518 0.0
H80 H 0.19576 0.4818 0.24943 0.0
H81 H 0.16436 0.3854 0.23847 0.0
H82 H 0.18982 0.40021 0.2414 0.0
H83 H 0.1765 0.399 0.19504 0.0
H84 H 0.12978 0.41652 0.96987 0.0
H85 H 0.16346 0.44328 0.96709 0.0
H86 H 0.16053 0.38851 0.94999 0.0
H87 H 0.19317 0.4622 0.05101 0.0
H88 H 0.19005 0.4703 0.00166 0.0
H89 H 0.21097 0.46873 0.01403 0.0
H90 H 0.18043 0.38068 0.98926 0.0
H91 H 0.19403 0.39622 0.03422 0.0
H92 H 0.20409 0.40033 0.98445 0.0
H93 H 0.29969 0.42932 0.93984 0.0
H94 H 0.3271 0.42847 0.97536 0.0
H95 H 0.31329 0.43263 0.01223 0.0
H96 H 0.33557 0.45244 0.99905 0.0
H97 H 0.29925 0.48271 0.9836 0.0
H98 H 0.28119 0.42263 0.9928 0.0
H99 H 0.26926 0.48524 0.05643 0.0
H100 H 0.25719 0.48051 0.00629 0.0
H101 H 0.28244 0.49685 0.01219 0.0
H102 H 0.25392 0.40137 0.02462 0.0
H103 H 0.23524 0.40708 0.01847 0.0
H104 H 0.24856 0.41277 0.06723 0.0
H105 H 0.22092 0.44397 0.2726 0.0
H106 H 0.17711 0.42978 0.15576 0.0
H107 H 0.17861 0.42777 0.08169 0.0
H108 H 0.22752 0.4389 0.98862 0.0
H109 H 0.27127 0.45316 0.10592 0.0
H110 H 0.26936 0.4539 0.18001 0.0
H111 H 0.10903 0.38623 0.89692 0.0
H112 H 0.09834 0.39437 0.93508 0.0
H113 H 0.1101 0.38149 0.95089 0.0
C114 C 0.84414 0.30591 0.37307 0.0
C115 C 0.85607 0.3116 0.33501 0.0
C116 C 0.83439 0.29209 0.27611 0.0
C117 C 0.84154 0.27976 0.26638 0.0
C118 C 0.83051 0.26242 0.24222 0.0
C119 C 0.81207 0.25742 0.22711 0.0
C120 C 0.80498 0.27 0.2361 0.0
C121 C 0.81635 0.28729 0.26019 0.0
C122 C 0.8386 0.24948 0.2325 0.0
C123 C 0.78542 0.26514 0.22019 0.0
C124 C 0.73118 0.11798 0.31619 0.0
C125 C 0.73152 0.13676 0.32914 0.0
C126 C 0.73996 0.1582 0.27128 0.0
C127 C 0.73319 0.16782 0.24716 0.0
C128 C 0.74528 0.18292 0.22326 0.0
C129 C 0.76457 0.18809 0.22256 0.0
C130 C 0.77142 0.17799 0.24587 0.0
C131 C 0.75905 0.16317 0.2702 0.0
C132 C 0.7375 0.19357 0.19943 0.0
C133 C 0.79183 0.18295 0.24528 0.0
C134 C 0.74365 0.1469 0.95238 0.0
C135 C 0.73583 0.15793 0.96737 0.0
C136 C 0.74721 0.17572 0.98978 0.0
C137 C 0.76675 0.18247 0.99774 0.0
C138 C 0.77476 0.17168 0.98142 0.0
C139 C 0.7631 0.15411 0.95844 0.0
C140 C 0.7383 0.1872 0.00531 0.0
C141 C 0.79556 0.17851 0.98902 0.0
C142 C 0.84679 0.33608 0.00316 0.0
C143 C 0.85477 0.32377 0.9855 0.0
C144 C 0.83106 0.29002 0.97255 0.0
C145 C 0.81134 0.2806 0.97176 0.0
C146 C 0.80099 0.26227 0.98731 0.0
C147 C 0.8107 0.25305 0.00269 0.0
C148 C 0.83057 0.26192 0.00021 0.0
C149 C 0.8406 0.28049 0.98558 0.0
C150 C 0.7798 0.25318 0.98907 0.0
C151 C 0.84128 0.25217 0.01473 0.0
C152 C 0.80035 0.23917 0.20133 0.0
C153 C 0.78881 0.22248 0.2215 0.0
C154 C 0.77769 0.20473 0.19917 0.0
C155 C 0.77837 0.2034 0.15548 0.0
C156 C 0.76797 0.18565 0.13218 0.0
C157 C 0.76827 0.18465 0.08905 0.0
C158 C 0.77886 0.20139 0.06755 0.0
C159 C 0.77871 0.20068 0.0236 0.0
C160 C 0.78952 0.21761 0.00333 0.0
C161 C 0.8004 0.23537 0.02577 0.0
C162 C 0.80065 0.23639 0.06966 0.0
C163 C 0.81129 0.2541 0.09314 0.0
C164 C 0.81144 0.255 0.13623 0.0
C165 C 0.80062 0.23831 0.15756 0.0
C166 C 0.78967 0.22033 0.13458 0.0
C167 C 0.78981 0.21935 0.09057 0.0
C168 C 0.71334 0.0963 0.94672 0.0
C169 C 0.71457 0.11583 0.94168 0.0
O170 O 0.84461 0.30888 0.29978 0.0
O171 O 0.84062 0.3084 0.96094 0.0
O172 O 0.73281 0.12924 0.93229 0.0
O173 O 0.7275 0.14417 0.29466 0.0
H174 H 0.86258 0.30232 0.33268 0.0
H175 H 0.83325 0.29033 0.36951 0.0
H176 H 0.83684 0.31442 0.37667 0.0
H177 H 0.85322 0.30836 0.40165 0.0
H178 H 0.85583 0.28374 0.27667 0.0
H179 H 0.81107 0.29704 0.26733 0.0
H180 H 0.8294 0.235 0.24419 0.0
H181 H 0.85319 0.25539 0.24658 0.0
H182 H 0.83885 0.2475 0.19832 0.0
H183 H 0.78183 0.27626 0.23065 0.0
H184 H 0.77474 0.25098 0.23108 0.0
H185 H 0.78442 0.26381 0.18571 0.0
H186 H 0.74574 0.14732 0.34379 0.0
H187 H 0.73452 0.11199 0.34361 0.0
H188 H 0.7419 0.12074 0.29312 0.0
H189 H 0.71701 0.1071 0.30197 0.0
H190 H 0.7184 0.16374 0.24798 0.0
H191 H 0.76435 0.15548 0.28795 0.0
H192 H 0.73787 0.19085 0.16559 0.0
H193 H 0.7464 0.20938 0.20682 0.0
H194 H 0.72266 0.18899 0.20651 0.0
H195 H 0.79441 0.17229 0.26094 0.0
H196 H 0.80102 0.19741 0.26134 0.0
H197 H 0.79608 0.18368 0.21275 0.0
H198 H 0.71125 0.1199 0.9724 0.0
H199 H 0.72087 0.1527 0.96148 0.0
H200 H 0.76902 0.14558 0.94623 0.0
H201 H 0.73827 0.18732 0.03971 0.0
H202 H 0.72349 0.18109 0.99249 0.0
H203 H 0.74672 0.20242 0.99686 0.0
H204 H 0.79941 0.16795 0.97606 0.0
H205 H 0.79944 0.18108 0.02291 0.0
H206 H 0.80407 0.19245 0.97459 0.0
H207 H 0.85956 0.31852 0.01223 0.0
H208 H 0.85763 0.34824 0.02401 0.0
H209 H 0.83444 0.3271 0.02154 0.0
H210 H 0.8421 0.34197 0.97765 0.0
H211 H 0.80418 0.28806 0.96083 0.0
H212 H 0.85588 0.2877 0.98476 0.0
H213 H 0.77577 0.25033 0.02168 0.0
H214 H 0.77267 0.23909 0.9707 0.0
H215 H 0.77447 0.26247 0.97675 0.0
H216 H 0.85587 0.2592 0.00377 0.0
H217 H 0.83367 0.23669 0.00356 0.0
H218 H 0.84227 0.25287 0.0492 0.0
H219 H 0.7883 0.22337 0.25504 0.0
H220 H 0.75945 0.17233 0.14708 0.0
H221 H 0.75995 0.17059 0.07274 0.0
H222 H 0.78921 0.21701 0.96965 0.0
H223 H 0.81966 0.26753 0.07858 0.0
H224 H 0.81997 0.26901 0.15257 0.0
H225 H 0.6987 0.08522 0.95336 0.0
H226 H 0.72306 0.09759 0.97314 0.0
H227 H 0.71749 0.09142 0.91829 0.0
C228 C 0.50077 0.80647 0.29338 0.0
C229 C 0.51875 0.81922 0.27118 0.0
C230 C 0.52477 0.80978 0.20368 0.0
C231 C 0.54461 0.81935 0.20691 0.0
C232 C 0.55451 0.81297 0.18225 0.0
C233 C 0.54431 0.79651 0.15434 0.0
C234 C 0.52426 0.78702 0.15068 0.0
C235 C 0.51478 0.7941 0.17481 0.0
C236 C 0.57587 0.82369 0.1864 0.0
C237 C 0.51279 0.76917 0.12202 0.0
C238 C 0.6199 0.72409 0.2219 0.0
C239 C 0.59987 0.71883 0.23305 0.0
C240 C 0.58436 0.7301 0.18426 0.0
C241 C 0.56777 0.72318 0.15911 0.0
C242 C 0.56235 0.73581 0.14304 0.0
C243 C 0.57424 0.75597 0.15128 0.0
C244 C 0.59098 0.76312 0.17717 0.0
C245 C 0.59586 0.75007 0.1936 0.0
C246 C 0.54415 0.72758 0.11628 0.0
C247 C 0.60401 0.78453 0.18624 0.0
C248 C 0.60427 0.74689 0.90316 0.0
C249 C 0.58558 0.73639 0.91493 0.0
C250 C 0.57612 0.74593 0.92894 0.0
C251 C 0.5859 0.76641 0.9329 0.0
C252 C 0.60441 0.77697 0.91882 0.0
C253 C 0.61322 0.76699 0.90333 0.0
C254 C 0.55599 0.73408 0.94137 0.0
C255 C 0.61524 0.79877 0.92208 0.0
C256 C 0.51033 0.84038 0.96169 0.0
C257 C 0.52686 0.84924 0.9332 0.0
C258 C 0.53526 0.82554 0.91011 0.0
C259 C 0.52527 0.80539 0.90811 0.0
C260 C 0.53423 0.79508 0.91985 0.0
C261 C 0.55366 0.8053 0.93314 0.0
C262 C 0.56424 0.82557 0.93079 0.0
C263 C 0.55487 0.83553 0.91936 0.0
C264 C 0.52264 0.77341 0.92116 0.0
C265 C 0.58511 0.83682 0.94333 0.0
C266 C 0.55455 0.78881 0.13021 0.0
C267 C 0.56074 0.77766 0.15063 0.0
C268 C 0.56994 0.76944 0.12956 0.0
C269 C 0.57336 0.77257 0.08716 0.0
C270 C 0.58325 0.76513 0.06557 0.0
C271 C 0.58526 0.76697 0.02317 0.0
C272 C 0.57723 0.77607 0.00053 0.0
C273 C 0.57781 0.77656 0.95676 0.0
C274 C 0.57014 0.78623 0.93538 0.0
C275 C 0.56189 0.79543 0.95678 0.0
C276 C 0.5609 0.79476 0.00046 0.0
C277 C 0.55251 0.8037 0.0229 0.0
C278 C 0.55091 0.80227 0.06556 0.0
C279 C 0.55729 0.79154 0.08738 0.0
C280 C 0.56647 0.78312 0.06569 0.0
C281 C 0.56832 0.78477 0.02223 0.0
C282 C 0.63417 0.72637 0.91437 0.0
C283 C 0.61396 0.72292 0.9117 0.0
O284 O 0.51493 0.81513 0.22869 0.0
O285 O 0.52557 0.83507 0.90495 0.0
O286 O 0.61407 0.73805 0.89186 0.0
O287 O 0.589 0.71705 0.19757 0.0
H288 H 0.52946 0.81538 0.28235 0.0
H289 H 0.49625 0.79102 0.28638 0.0
H290 H 0.48904 0.80887 0.28295 0.0
H291 H 0.50348 0.8096 0.32756 0.0
H292 H 0.55231 0.83179 0.22872 0.0
H293 H 0.49945 0.78692 0.1725 0.0
H294 H 0.58074 0.81453 0.20131 0.0
H295 H 0.58171 0.83753 0.20545 0.0
H296 H 0.58172 0.82673 0.15523 0.0
H297 H 0.49744 0.76194 0.1274 0.0
H298 H 0.51778 0.75868 0.12622 0.0
H299 H 0.51466 0.77318 0.08928 0.0
H300 H 0.60096 0.73043 0.25513 0.0
H301 H 0.62848 0.72496 0.25022 0.0
H302 H 0.62694 0.73837 0.20822 0.0
H303 H 0.61956 0.71322 0.19889 0.0
H304 H 0.55903 0.70775 0.1521 0.0
H305 H 0.60892 0.75558 0.21252 0.0
H306 H 0.5475 0.73002 0.08324 0.0
H307 H 0.53614 0.73494 0.12478 0.0
H308 H 0.53495 0.71181 0.11918 0.0
H309 H 0.61667 0.7878 0.20642 0.0
H310 H 0.59623 0.79084 0.2018 0.0
H311 H 0.60874 0.79168 0.15667 0.0
H312 H 0.60964 0.7228 0.94417 0.0
H313 H 0.57842 0.72076 0.91347 0.0
H314 H 0.62755 0.7749 0.89336 0.0
H315 H 0.55601 0.7329 0.97552 0.0
H316 H 0.54893 0.71922 0.92633 0.0
H317 H 0.54758 0.74102 0.93304 0.0
H318 H 0.62977 0.8048 0.91113 0.0
H319 H 0.61625 0.80415 0.95484 0.0
H320 H 0.60754 0.80428 0.90324 0.0
H321 H 0.53997 0.8552 0.95399 0.0
H322 H 0.51061 0.85177 0.983 0.0
H323 H 0.51156 0.82975 0.9808 0.0
H324 H 0.49651 0.83271 0.94346 0.0
H325 H 0.51018 0.79784 0.89999 0.0
H326 H 0.56271 0.85114 0.9191 0.0
H327 H 0.52113 0.7695 0.95401 0.0
H328 H 0.52997 0.76654 0.90581 0.0
H329 H 0.50828 0.76744 0.90573 0.0
H330 H 0.59185 0.85191 0.93373 0.0
H331 H 0.59244 0.82962 0.92938 0.0
H332 H 0.58713 0.83722 0.97762 0.0
H333 H 0.55796 0.77497 0.18306 0.0
H334 H 0.5894 0.75763 0.08112 0.0
H335 H 0.59295 0.76085 0.00834 0.0
H336 H 0.57047 0.78647 0.90183 0.0
H337 H 0.5469 0.81178 0.00779 0.0
H338 H 0.54425 0.80936 0.08108 0.0
H339 H 0.63492 0.71506 0.93188 0.0
H340 H 0.64383 0.74062 0.93089 0.0
H341 H 0.63916 0.7263 0.88275 0.0
C342 C 0.89737 0.60375 0.28332 0.0
C343 C 0.88022 0.5895 0.30622 0.0
C344 C 0.85277 0.57343 0.25552 0.0
C345 C 0.83956 0.55546 0.23658 0.0
C346 C 0.82399 0.55312 0.21205 0.0
C347 C 0.82187 0.56934 0.20566 0.0
C348 C 0.83529 0.58765 0.2244 0.0
C349 C 0.8506 0.58953 0.24934 0.0
C350 C 0.80983 0.53332 0.1929 0.0
C351 C 0.83349 0.60525 0.21775 0.0
C352 C 0.69864 0.56221 0.32765 0.0
C353 C 0.71478 0.56875 0.30014 0.0
C354 C 0.72884 0.55615 0.25126 0.0
C355 C 0.74232 0.57435 0.23842 0.0
C356 C 0.75653 0.57624 0.2124 0.0
C357 C 0.75731 0.55965 0.19886 0.0
C358 C 0.74341 0.54126 0.21057 0.0
C359 C 0.7293 0.53975 0.23648 0.0
C360 C 0.77102 0.59605 0.20015 0.0
C361 C 0.74379 0.52326 0.19656 0.0
C362 C 0.72459 0.54683 0.9218 0.0
C363 C 0.73836 0.56588 0.9346 0.0
C364 C 0.75419 0.56966 0.96021 0.0
C365 C 0.75625 0.55407 0.97297 0.0
C366 C 0.74256 0.53489 0.95951 0.0
C367 C 0.72696 0.53155 0.93367 0.0
C368 C 0.76883 0.59029 0.97332 0.0
C369 C 0.74443 0.51798 0.97245 0.0
C370 C 0.89623 0.58143 0.95137 0.0
C371 C 0.8792 0.56451 0.92725 0.0
C372 C 0.85169 0.56831 0.93556 0.0
C373 C 0.84883 0.58405 0.94056 0.0
C374 C 0.8339 0.58281 0.96321 0.0
C375 C 0.82131 0.56519 0.98039 0.0
C376 C 0.82374 0.54898 0.97407 0.0
C377 C 0.83895 0.55072 0.95178 0.0
C378 C 0.83159 0.60031 0.96879 0.0
C379 C 0.81014 0.52975 0.99048 0.0
C380 C 0.80566 0.56709 0.17912 0.0
C381 C 0.78966 0.5647 0.19857 0.0
C382 C 0.77357 0.56176 0.17546 0.0
C383 C 0.7733 0.56096 0.13154 0.0
C384 C 0.75727 0.55773 0.1072 0.0
C385 C 0.75712 0.55674 0.06399 0.0
C386 C 0.77301 0.55901 0.04354 0.0
C387 C 0.77295 0.55784 -0.00027 0.0
C388 C 0.78887 0.56002 0.9803 0.0
C389 C 0.80513 0.56349 0.00346 0.0
C390 C 0.80558 0.56487 0.04738 0.0
C391 C 0.82176 0.56858 0.07173 0.0
C392 C 0.82189 0.56947 0.11489 0.0
C393 C 0.80584 0.56671 0.13535 0.0
C394 C 0.78952 0.56343 0.11147 0.0
C395 C 0.78938 0.56248 0.06744 0.0
C396 C 0.68266 0.54065 0.92901 0.0
C397 C 0.69828 0.55137 0.89912 0.0
O398 O 0.86742 0.57449 0.2789 0.0
O399 O 0.86658 0.57035 0.91419 0.0
O400 O 0.70925 0.54265 0.89664 0.0
O401 O 0.71544 0.55387 0.27813 0.0
H402 H 0.87338 0.5972 0.32037 0.0
H403 H 0.89288 0.61003 0.25836 0.0
H404 H 0.90445 0.59637 0.26896 0.0
H405 H 0.90771 0.61575 0.30525 0.0
H406 H 0.84142 0.54317 0.24144 0.0
H407 H 0.86084 0.6036 0.26337 0.0
H408 H 0.79527 0.52961 0.20046 0.0
H409 H 0.81263 0.52193 0.20383 0.0
H410 H 0.81036 0.53331 0.15858 0.0
H411 H 0.84573 0.61869 0.23234 0.0
H412 H 0.82035 0.60332 0.23115 0.0
H413 H 0.83233 0.60696 0.18397 0.0
H414 H 0.72881 0.57971 0.31524 0.0
H415 H 0.70537 0.56666 0.36016 0.0
H416 H 0.69292 0.5463 0.3309 0.0
H417 H 0.68246 0.57316 0.30155 0.0
H418 H 0.74197 0.58717 0.2489 0.0
H419 H 0.71878 0.52576 0.24617 0.0
H420 H 0.77164 0.59607 0.16583 0.0
H421 H 0.78525 0.59979 0.21345 0.0
H422 H 0.76785 0.6074 0.21113 0.0
H423 H 0.73148 0.50994 0.20671 0.0
H424 H 0.75701 0.52413 0.20937 0.0
H425 H 0.74385 0.52218 0.16216 0.0
H426 H 0.70684 0.5667 0.91111 0.0
H427 H 0.73712 0.57786 0.92389 0.0
H428 H 0.71636 0.51694 0.92302 0.0
H429 H 0.77032 0.59229 0.00775 0.0
H430 H 0.76512 0.60081 0.96087 0.0
H431 H 0.7828 0.59353 0.96233 0.0
H432 H 0.73232 0.50391 0.96003 0.0
H433 H 0.74536 0.51808 0.00688 0.0
H434 H 0.75772 0.51929 0.96126 0.0
H435 H 0.87255 0.55269 0.94882 0.0
H436 H 0.90659 0.57706 0.9618 0.0
H437 H 0.89147 0.58599 0.97927 0.0
H438 H 0.90336 0.59397 0.9318 0.0
H439 H 0.85858 0.59747 0.9273 0.0
H440 H 0.84063 0.53824 0.94635 0.0
H441 H 0.83058 0.60331 0.00222 0.0
H442 H 0.8182 0.59738 0.95217 0.0
H443 H 0.8435 0.61337 0.95668 0.0
H444 H 0.81328 0.51824 0.98069 0.0
H445 H 0.7954 0.52526 0.97943 0.0
H446 H 0.81089 0.53115 0.02495 0.0
H447 H 0.78972 0.56506 0.23223 0.0
H448 H 0.74465 0.55584 0.12131 0.0
H449 H 0.74435 0.55412 0.04681 0.0
H450 H 0.78857 0.5589 0.94662 0.0
H451 H 0.83449 0.57075 0.05767 0.0
H452 H 0.83474 0.5723 0.13204 0.0
H453 H 0.6738 0.54753 0.9322 0.0
H454 H 0.68908 0.54113 0.96024 0.0
H455 H 0.67348 0.52529 0.91765 0.0
C456 C 0.28223 0.82133 0.82711 0.0
C457 C 0.29446 0.84098 0.85091 0.0
C458 C 0.28734 0.83139 0.92154 0.0
C459 C 0.27521 0.8385 0.93112 0.0
C460 C 0.2614 0.82968 0.96006 0.0
C461 C 0.25962 0.81334 0.97946 0.0
C462 C 0.27261 0.80691 0.9717 0.0
C463 C 0.28654 0.81626 0.94321 0.0
C464 C 0.24813 0.83726 0.96846 0.0
C465 C 0.27108 0.78947 0.9916 0.0
C466 C 0.14193 0.7269 0.80462 0.0
C467 C 0.15054 0.72266 0.84284 0.0
C468 C 0.1626 0.74177 0.90861 0.0
C469 C 0.1755 0.73574 0.92005 0.0
C470 C 0.19031 0.74656 0.95007 0.0
C471 C 0.19233 0.76382 0.96874 0.0
C472 C 0.17893 0.76954 0.95841 0.0
C473 C 0.16402 0.75821 0.92885 0.0
C474 C 0.20407 0.73979 0.96113 0.0
C475 C 0.18073 0.78793 0.97753 0.0
C476 C 0.15389 0.74086 0.22009 0.0
C477 C 0.16595 0.73364 0.21071 0.0
C478 C 0.18414 0.74587 0.19744 0.0
C479 C 0.19021 0.76563 0.19303 0.0
C480 C 0.17845 0.7731 0.20481 0.0
C481 C 0.1605 0.7606 0.2188 0.0
C482 C 0.19659 0.73757 0.18662 0.0
C483 C 0.18455 0.79412 0.20122 0.0
C484 C 0.31701 0.88971 0.26258 0.0
C485 C 0.31009 0.87517 0.29656 0.0
C486 C 0.28939 0.84423 0.25662 0.0
C487 C 0.28762 0.82663 0.24263 0.0
C488 C 0.27182 0.81301 0.21746 0.0
C489 C 0.25754 0.81728 0.20553 0.0
C490 C 0.25913 0.83499 0.21977 0.0
C491 C 0.27491 0.84819 0.24551 0.0
C492 C 0.27045 0.79414 0.20331 0.0
C493 C 0.24418 0.84004 0.20757 0.0
C494 C 0.24252 0.8013 0.00231 0.0
C495 C 0.22599 0.78868 0.97835 0.0
C496 C 0.2092 0.77655 0.99673 0.0
C497 C 0.20879 0.77674 0.04043 0.0
C498 C 0.19218 0.76446 0.05985 0.0
C499 C 0.19182 0.7649 0.10287 0.0
C500 C 0.20814 0.77746 0.1282 0.0
C501 C 0.20786 0.77796 0.17203 0.0
C502 C 0.22424 0.79079 0.19629 0.0
C503 C 0.24099 0.80333 0.17791 0.0
C504 C 0.24157 0.80296 0.13408 0.0
C505 C 0.25814 0.81542 0.11447 0.0
C506 C 0.25853 0.81492 0.07131 0.0
C507 C 0.24234 0.80203 0.04615 0.0
C508 C 0.22541 0.78956 0.06525 0.0
C509 C 0.22507 0.78994 0.10922 0.0
C510 C 0.10611 0.71073 0.19287 0.0
C511 C 0.12347 0.71086 0.21255 0.0
O512 O 0.29949 0.83844 0.89071 0.0
O513 O 0.3053 0.85691 0.28021 0.0
O514 O 0.13583 0.72921 0.23038 0.0
O515 O 0.14893 0.73231 0.87764 0.0
H516 H 0.28613 0.8485 0.8525 0.0
H517 H 0.26888 0.81272 0.84281 0.0
H518 H 0.2899 0.81311 0.82574 0.0
H519 H 0.27848 0.82329 0.79495 0.0
H520 H 0.27633 0.85077 0.91568 0.0
H521 H 0.29618 0.8111 0.93595 0.0
H522 H 0.23403 0.82725 0.95282 0.0
H523 H 0.25333 0.85184 0.95678 0.0
H524 H 0.24627 0.83794 0.00231 0.0
H525 H 0.28246 0.78648 0.98279 0.0
H526 H 0.25715 0.77657 0.98215 0.0
H527 H 0.27183 0.79168 0.02593 0.0
H528 H 0.16576 0.7284 0.83695 0.0
H529 H 0.1428 0.71903 0.7764 0.0
H530 H 0.1499 0.74262 0.79994 0.0
H531 H 0.12688 0.72258 0.80851 0.0
H532 H 0.17412 0.72268 0.9054 0.0
H533 H 0.15385 0.76259 0.92011 0.0
H534 H 0.21805 0.74974 0.94912 0.0
H535 H 0.19923 0.72494 0.94782 0.0
H536 H 0.2061 0.7401 0.99541 0.0
H537 H 0.16958 0.79075 0.96484 0.0
H538 H 0.19482 0.80037 0.97188 0.0
H539 H 0.17971 0.78703 0.01166 0.0
H540 H 0.13009 0.70699 0.18705 0.0
H541 H 0.16112 0.71845 0.21347 0.0
H542 H 0.15119 0.76606 0.22706 0.0
H543 H 0.19728 0.73667 0.15237 0.0
H544 H 0.19114 0.72287 0.19784 0.0
H545 H 0.21124 0.74713 0.20019 0.0
H546 H 0.17334 0.79743 0.20964 0.0
H547 H 0.18834 0.79824 0.16897 0.0
H548 H 0.19734 0.80315 0.22211 0.0
H549 H 0.29752 0.8747 0.31011 0.0
H550 H 0.32133 0.90441 0.27612 0.0
H551 H 0.30564 0.88581 0.23805 0.0
H552 H 0.32927 0.89009 0.24771 0.0
H553 H 0.29877 0.82361 0.25146 0.0
H554 H 0.2758 0.86158 0.25638 0.0
H555 H 0.2709 0.79328 0.16899 0.0
H556 H 0.25671 0.78187 0.21152 0.0
H557 H 0.28212 0.7925 0.21741 0.0
H558 H 0.24822 0.85501 0.21844 0.0
H559 H 0.2307 0.82989 0.22114 0.0
H560 H 0.24158 0.83843 0.17327 0.0
H561 H 0.2262 0.78829 0.9447 0.0
H562 H 0.17922 0.75442 0.04198 0.0
H563 H 0.17854 0.75522 0.11594 0.0
H564 H 0.22386 0.79124 0.22988 0.0
H565 H 0.27102 0.82567 0.13228 0.0
H566 H 0.27165 0.82478 0.05784 0.0
H567 H 0.09604 0.69625 0.17783 0.0
H568 H 0.11054 0.72146 0.16875 0.0
H569 H 0.09877 0.71453 0.2167 0.0
C570 C 0.41472 0.27993 0.44385 0.0
C571 C 0.42987 0.28565 0.4121 0.0
C572 C 0.42895 0.26872 0.34659 0.0
C573 C 0.44853 0.27578 0.34616 0.0
C574 C 0.45574 0.26732 0.31892 0.0
C575 C 0.44313 0.25147 0.29161 0.0
C576 C 0.42347 0.24478 0.2908 0.0
C577 C 0.41666 0.25366 0.31812 0.0
C578 C 0.47683 0.27508 0.3199 0.0
C579 C 0.40967 0.22796 0.26184 0.0
C580 C 0.4601 0.12506 0.34844 0.0
C581 C 0.45251 0.13763 0.33537 0.0
C582 C 0.4641 0.17107 0.31819 0.0
C583 C 0.4469 0.16747 0.29857 0.0
C584 C 0.44534 0.18237 0.28074 0.0
C585 C 0.46123 0.20124 0.28284 0.0
C586 C 0.47841 0.20501 0.3034 0.0
C587 C 0.47963 0.18981 0.32062 0.0
C588 C 0.42678 0.1779 0.25916 0.0
C589 C 0.49554 0.22504 0.30663 0.0
C590 C 0.50539 0.20281 0.04656 0.0
C591 C 0.48571 0.19501 0.04263 0.0
C592 C 0.47753 0.20596 0.05571 0.0
C593 C 0.48931 0.22495 0.07353 0.0
C594 C 0.50924 0.23333 0.07428 0.0
C595 C 0.51704 0.22215 0.06025 0.0
C596 C 0.45626 0.19683 0.05296 0.0
C597 C 0.52221 0.25365 0.09237 0.0
C598 C 0.44063 0.32747 0.05871 0.0
C599 C 0.45844 0.32929 0.04032 0.0
C600 C 0.45896 0.29896 0.04076 0.0
C601 C 0.44583 0.27923 0.036 0.0
C602 C 0.44944 0.26571 0.05445 0.0
C603 C 0.46681 0.27217 0.07751 0.0
C604 C 0.48056 0.29206 0.0807 0.0
C605 C 0.47651 0.30528 0.06218 0.0
C606 C 0.43455 0.24458 0.05003 0.0
C607 C 0.49942 0.29932 0.10413 0.0
C608 C 0.45045 0.2412 0.26583 0.0
C609 C 0.45268 0.22684 0.28405 0.0
C610 C 0.45997 0.21685 0.26224 0.0
C611 C 0.46541 0.22138 0.22122 0.0
C612 C 0.47314 0.21185 0.19873 0.0
C613 C 0.47846 0.2164 0.15844 0.0
C614 C 0.47589 0.23036 0.13862 0.0
C615 C 0.48089 0.23474 0.09724 0.0
C616 C 0.47794 0.2485 0.07825 0.0
C617 C 0.47019 0.25819 0.09974 0.0
C618 C 0.46537 0.25421 0.14137 0.0
C619 C 0.45781 0.26389 0.16411 0.0
C620 C 0.45307 0.2598 0.205 0.0
C621 C 0.45544 0.24568 0.22452 0.0
C622 C 0.46301 0.23575 0.20219 0.0
C623 C 0.46811 0.24013 0.16071 0.0
C624 C 0.52217 0.17496 0.08549 0.0
C625 C 0.50721 0.17373 0.05376 0.0
O626 O 0.42139 0.27585 0.37419 0.0
O627 O 0.45439 0.31136 0.02326 0.0
O628 O 0.51339 0.1918 0.0387 0.0
O629 O 0.46634 0.15691 0.33471 0.0
H630 H 0.43976 0.28097 0.42446 0.0
H631 H 0.40812 0.26424 0.44845 0.0
H632 H 0.40339 0.28287 0.43307 0.0
H633 H 0.42118 0.28801 0.47425 0.0
H634 H 0.45826 0.28781 0.3671 0.0
H635 H 0.4016 0.24847 0.31829 0.0
H636 H 0.47999 0.26396 0.331 0.0
H637 H 0.48487 0.28842 0.34059 0.0
H638 H 0.4819 0.27825 0.28807 0.0
H639 H 0.39482 0.22457 0.26483 0.0
H640 H 0.41064 0.21496 0.26848 0.0
H641 H 0.41339 0.23122 0.22921 0.0
H642 H 0.43973 0.13553 0.35121 0.0
H643 H 0.45353 0.11948 0.37867 0.0
H644 H 0.47473 0.1349 0.36331 0.0
H645 H 0.45508 0.10684 0.29549 0.0
H646 H 0.4347 0.15306 0.29668 0.0
H647 H 0.49281 0.19246 0.33593 0.0
H648 H 0.42901 0.18199 0.22646 0.0
H649 H 0.42133 0.18659 0.27475 0.0
H650 H 0.41588 0.16237 0.25927 0.0
H651 H 0.5074 0.22588 0.32625 0.0
H652 H 0.49172 0.23556 0.31991 0.0
H653 H 0.50048 0.22941 0.27513 0.0
H654 H 0.49402 0.16894 0.07056 0.0
H655 H 0.47676 0.18021 0.03039 0.0
H656 H 0.53225 0.2281 0.06227 0.0
H657 H 0.4509 0.19307 0.08439 0.0
H658 H 0.44934 0.18346 0.03208 0.0
H659 H 0.45208 0.20717 0.04154 0.0
H660 H 0.53738 0.25841 0.08867 0.0
H661 H 0.52 0.25451 0.12598 0.0
H662 H 0.51877 0.2638 0.07708 0.0
H663 H 0.46959 0.33456 0.06604 0.0
H664 H 0.44353 0.34167 0.07268 0.0
H665 H 0.43607 0.31704 0.08345 0.0
H666 H 0.42889 0.32222 0.03436 0.0
H667 H 0.43249 0.27449 0.01863 0.0
H668 H 0.48715 0.32045 0.0641 0.0
H669 H 0.43014 0.23916 0.08123 0.0
H670 H 0.44056 0.23615 0.03562 0.0
H671 H 0.42184 0.24189 0.03077 0.0
H672 H 0.50901 0.31507 0.10187 0.0
H673 H 0.50646 0.29149 0.09188 0.0
H674 H 0.49717 0.29634 0.1374 0.0
H675 H 0.44865 0.22337 0.31565 0.0
H676 H 0.47527 0.20083 0.21209 0.0
H677 H 0.48451 0.20867 0.14301 0.0
H678 H 0.48163 0.25165 0.04637 0.0
H679 H 0.45552 0.27478 0.1506 0.0
H680 H 0.44738 0.26774 0.22103 0.0
H681 H 0.51753 0.16059 0.0978 0.0
H682 H 0.52423 0.18528 0.11191 0.0
H683 H 0.53596 0.18007 0.07124 0.0
C684 C 0.99483 0.45595 0.72759 0.0
C685 C 0.05044 0.48658 0.67955 0.0
C686 C 0.0395 0.54751 0.68292 0.0
Mg687 Mg 0.00973 0.46663 0.63996 0.0
O688 O 0.00768 0.4883 0.65503 0.0
Mg689 Mg 0.02144 0.50324 0.70845 0.0
Mg690 Mg 0.01713 0.50996 0.61747 0.0
O691 O 0.02677 0.53168 0.57989 0.0
Mg692 Mg 0.02434 0.5531 0.59489 0.0
Mg693 Mg 0.01333 0.51684 0.52621 0.0
C694 C 0.99425 0.47222 0.55208 0.0
C695 C 0.04519 0.50569 0.55352 0.0
O696 O 0.00424 0.47399 0.73977 0.0
O697 O 0.99431 0.44988 0.68994 0.0
O698 O 0.04622 0.49728 0.70193 0.0
O699 O 0.03876 0.47428 0.65166 0.0
O700 O 0.99768 0.46171 0.57608 0.0
O701 O 0.99808 0.48942 0.56364 0.0
C702 C 0.98888 0.51368 0.68198 0.0
O703 O 0.99399 0.51547 0.64434 0.0
O704 O 0.99694 0.50907 0.71049 0.0
O705 O 0.03062 0.54624 0.49512 0.0
O706 O 0.03933 0.57016 0.54484 0.0
O707 O 0.98858 0.52282 0.53204 0.0
C708 C 0.03933 0.56429 0.50728 0.0
O709 O 0.99523 0.54496 0.58368 0.0
O710 O 0.03596 0.55796 0.65899 0.0
C711 C 0.98391 0.53299 0.55492 0.0
O712 O 0.03626 0.53056 0.67107 0.0
O713 O 0.03991 0.50409 0.59095 0.0
O714 O 0.03769 0.5107 0.52459 0.0
C715 C 0.48926 0.03515 0.73181 0.0
C716 C 0.46128 0.97835 0.66722 0.0
C717 C 0.53115 0.98792 0.66352 0.0
Mg718 Mg 0.48212 0.02014 0.63943 0.0
O719 O 0.50529 0.0211 0.65037 0.0
Mg720 Mg 0.50731 0.00719 0.69891 0.0
Mg721 Mg 0.51605 0.01118 0.60774 0.0
O722 O 0.52695 0.00133 0.56547 0.0
Mg723 Mg 0.5508 0.00431 0.57902 0.0
Mg724 Mg 0.52495 0.01507 0.51643 0.0
C725 C 0.50146 0.03547 0.55344 0.0
C726 C 0.48264 0.98222 0.53861 0.0
O727 O 0.49741 0.02518 0.73835 0.0
O728 O 0.48286 0.03595 0.69556 0.0
O729 O 0.47651 0.98241 0.68825 0.0
O730 O 0.46033 0.99052 0.64428 0.0
O731 O 0.48871 0.03292 0.57889 0.0
O732 O 0.51397 0.0305 0.56067 0.0
C733 C 0.54957 0.03978 0.67713 0.0
O734 O 0.54533 0.03465 0.63821 0.0
O735 O 0.53762 0.03172 0.70481 0.0
O736 O 0.53553 0.99712 0.47829 0.0
O737 O 0.55196 0.98935 0.52349 0.0
O738 O 0.55585 0.04039 0.52645 0.0
C739 C 0.54507 0.98868 0.48676 0.0
O740 O 0.57149 0.03419 0.57577 0.0
O741 O 0.54473 0.9917 0.63957 0.0
C742 C 0.57075 0.04544 0.54984 0.0
O743 O 0.51796 0.99171 0.65446 0.0
O744 O 0.48691 0.98765 0.5774 0.0
O745 O 0.4946 0.99016 0.51082 0.0
C746 C 0.52849 0.55596 0.47501 0.0
C747 C 0.55965 0.52952 0.5209 0.0
C748 C 0.49108 0.46848 0.54445 0.0
Mg749 Mg 0.541 0.55057 0.56279 0.0
O750 O 0.51736 0.52826 0.55622 0.0
Mg751 Mg 0.51213 0.51065 0.50552 0.0
Mg752 Mg 0.5096 0.50931 0.59997 0.0
O753 O 0.50169 0.49028 0.64365 0.0
Mg754 Mg 0.47783 0.46804 0.63711 0.0
Mg755 Mg 0.5069 0.50803 0.6942 0.0
C756 C 0.52715 0.55066 0.65425 0.0
C757 C 0.54663 0.5168 0.65577 0.0
O758 O 0.51969 0.53755 0.46677 0.0
O759 O 0.53699 0.56385 0.51041 0.0
O760 O 0.54336 0.51767 0.5033 0.0
O761 O 0.56187 0.54272 0.54782 0.0
O762 O 0.53827 0.55964 0.62557 0.0
O763 O 0.51445 0.53268 0.64961 0.0
C764 C 0.4723 0.50146 0.54424 0.0
O765 O 0.47933 0.50214 0.58086 0.0
O766 O 0.48185 0.50439 0.51184 0.0
O767 O 0.4993 0.48105 0.73248 0.0
O768 O 0.48153 0.45448 0.68997 0.0
O769 O 0.47582 0.50131 0.69643 0.0
C770 C 0.49025 0.46257 0.72516 0.0
O771 O 0.45722 0.47612 0.65238 0.0
O772 O 0.47966 0.45954 0.57277 0.0
C773 C 0.45952 0.48947 0.67891 0.0
O774 O 0.50466 0.48604 0.55037 0.0
O775 O 0.53989 0.51632 0.61896 0.0
O776 O 0.53692 0.51405 0.68782 0.0
C777 C 0.15253 0.46278 0.38595 0.0
C778 C 0.14726 0.4432 0.38712 0.0
C779 C 0.14194 0.46987 0.40515 0.0
C780 C 0.11064 0.46148 0.489 0.0
H781 H 0.09404 0.49186 0.42867 0.0
C782 C 0.05835 0.48346 0.55445 0.0
C783 C 0.05953 0.5006 0.54203 0.0
C784 C 0.07008 0.47709 0.53799 0.0
C785 C 0.09887 0.48377 0.44641 0.0
H786 H 0.12571 0.41539 0.40668 0.0
H787 H 0.10763 0.42798 0.44152 0.0
H788 H 0.11213 0.47937 0.39419 0.0
H789 H 0.07439 0.52509 0.50457 0.0
H790 H 0.09558 0.51465 0.47755 0.0
H791 H 0.09791 0.46627 0.54164 0.0
C792 C 0.12021 0.43785 0.4263 0.0
C793 C 0.10911 0.47648 0.42641 0.0
C794 C 0.13061 0.43067 0.4064 0.0
C795 C 0.0732 0.51176 0.51449 0.0
C796 C 0.08517 0.50563 0.49866 0.0
C797 C 0.10067 0.46906 0.50932 0.0
C798 C 0.12587 0.45753 0.42607 0.0
C799 C 0.11501 0.46521 0.44744 0.0
C800 C 0.08339 0.4879 0.50913 0.0
C801 C 0.09459 0.48028 0.48825 0.0
H802 H 0.16503 0.4727 0.37053 0.0
H803 H 0.14653 0.4851 0.40437 0.0
H804 H 0.11522 0.45297 0.50598 0.0
H805 H 0.04759 0.47438 0.57483 0.0
H806 H 0.06805 0.46326 0.54646 0.0
C807 C 0.72175 0.13401 0.40339 0.0
C808 C 0.71695 0.13299 0.36076 0.0
C809 C 0.70814 0.12984 0.43262 0.0
C810 C 0.66166 0.12561 0.44747 0.0
H811 H 0.6541 0.08574 0.52163 0.0
C812 C 0.58956 0.07306 0.50598 0.0
C813 C 0.58843 0.06341 0.54217 0.0
C814 C 0.60711 0.08698 0.49311 0.0
C815 C 0.65623 0.09729 0.50212 0.0
H816 H 0.6939 0.12611 0.31531 0.0
H817 H 0.67035 0.11924 0.36627 0.0
H818 H 0.68185 0.09974 0.4808 0.0
H819 H 0.60465 0.0625 0.59582 0.0
H820 H 0.63519 0.08724 0.57405 0.0
H821 H 0.63584 0.1229 0.468 0.0
C822 C 0.68472 0.12365 0.37714 0.0
C823 C 0.67214 0.10524 0.47854 0.0
C824 C 0.69821 0.12753 0.34796 0.0
C825 C 0.60503 0.06943 0.56742 0.0
C826 C 0.62258 0.08353 0.55477 0.0
C827 C 0.64585 0.11783 0.47142 0.0
C828 C 0.68952 0.12469 0.41972 0.0
C829 C 0.67463 0.11895 0.44989 0.0
C830 C 0.62392 0.09176 0.5164 0.0
C831 C 0.64254 0.10302 0.49785 0.0
H832 H 0.736 0.13786 0.41402 0.0
H833 H 0.71215 0.1306 0.46527 0.0
H834 H 0.66344 0.13641 0.42603 0.0
H835 H 0.57707 0.06889 0.48586 0.0
H836 H 0.6075 0.09288 0.46329 0.0
C837 C 0.58536 0.69915 0.29487 0.0
C838 C 0.59027 0.69982 0.25344 0.0
C839 C 0.57543 0.68147 0.31287 0.0
C840 C 0.56531 0.63141 0.30465 0.0
H841 H 0.52524 0.6232 0.3769 0.0
C842 C 0.52901 0.56399 0.40038 0.0
C843 C 0.52944 0.56895 0.4428 0.0
C844 C 0.5326 0.57766 0.37094 0.0
C845 C 0.53634 0.62525 0.35666 0.0
H846 H 0.58873 0.68257 0.1984 0.0
H847 H 0.57153 0.6516 0.2301 0.0
H848 H 0.54 0.65221 0.33801 0.0
H849 H 0.53262 0.5915 0.48744 0.0
H850 H 0.53876 0.61511 0.43654 0.0
H851 H 0.56213 0.60479 0.32456 0.0
C852 C 0.57541 0.66477 0.24861 0.0
C853 C 0.54484 0.64188 0.33458 0.0
C854 C 0.58526 0.68246 0.23053 0.0
C855 C 0.53237 0.58731 0.45499 0.0
C856 C 0.53571 0.60081 0.42573 0.0
C857 C 0.55682 0.61477 0.32686 0.0
C858 C 0.57025 0.66409 0.28986 0.0
C859 C 0.55979 0.6454 0.30932 0.0
C860 C 0.53633 0.59633 0.38353 0.0
C861 C 0.54266 0.61183 0.35407 0.0
H862 H 0.58902 0.71229 0.31323 0.0
H863 H 0.57193 0.68141 0.34497 0.0
H864 H 0.57684 0.63378 0.28551 0.0
H865 H 0.52679 0.54992 0.39018 0.0
H866 H 0.53289 0.57381 0.33854 0.0
C867 C 0.88959 0.58903 0.38162 0.0
C868 C 0.88649 0.5812 0.34049 0.0
C869 C 0.89583 0.58162 0.41307 0.0
C870 C 0.89998 0.53918 0.43851 0.0
H871 H 0.94411 0.57619 0.50744 0.0
C872 C 0.95496 0.52225 0.50803 0.0
C873 C 0.96611 0.53289 0.54391 0.0
C874 C 0.94075 0.52546 0.49203 0.0
C875 C 0.93148 0.56559 0.48936 0.0
H876 H 0.88811 0.55994 0.29977 0.0
H877 H 0.8989 0.54696 0.35459 0.0
H878 H 0.92802 0.58759 0.46175 0.0
H879 H 0.96964 0.55369 0.59367 0.0
H880 H 0.94452 0.55891 0.56624 0.0
H881 H 0.90379 0.51719 0.46519 0.0
C882 C 0.89606 0.55849 0.36276 0.0
C883 C 0.92231 0.57217 0.46301 0.0
C884 C 0.88998 0.56598 0.33134 0.0
C885 C 0.96149 0.54541 0.56566 0.0
C886 C 0.94717 0.54852 0.54978 0.0
C887 C 0.90908 0.53258 0.46507 0.0
C888 C 0.89909 0.56625 0.40392 0.0
C889 C 0.90685 0.55907 0.43636 0.0
C890 C 0.93725 0.53926 0.51176 0.0
C891 C 0.92532 0.54575 0.4898 0.0
H892 H 0.88726 0.60095 0.38937 0.0
H893 H 0.89813 0.58792 0.44453 0.0
H894 H 0.88788 0.52875 0.41876 0.0
H895 H 0.958 0.51236 0.49065 0.0
H896 H 0.93347 0.51811 0.46258 0.0
C897 C 0.34195 0.88052 0.32367 0.0
C898 C 0.3256 0.88161 0.33066 0.0
C899 C 0.3571 0.88823 0.35351 0.0
C900 C 0.37806 0.92479 0.44178 0.0
H901 H 0.41127 0.90346 0.45473 0.0
C902 C 0.44747 0.96364 0.5458 0.0
C903 C 0.46336 0.96668 0.5245 0.0
C904 C 0.42918 0.95049 0.52917 0.0
C905 C 0.40206 0.90952 0.45158 0.0
H906 H 0.31215 0.89127 0.37474 0.0
H907 H 0.33837 0.90425 0.42745 0.0
H908 H 0.38153 0.8853 0.41265 0.0
H909 H 0.47263 0.95761 0.47021 0.0
H910 H 0.44085 0.9346 0.44149 0.0
H911 H 0.39877 0.94913 0.48027 0.0
C912 C 0.33964 0.89772 0.39862 0.0
C913 C 0.38508 0.89919 0.42729 0.0
C914 C 0.32454 0.89015 0.36859 0.0
C915 C 0.46065 0.95566 0.48729 0.0
C916 C 0.44245 0.94236 0.47098 0.0
C917 C 0.39495 0.93502 0.46639 0.0
C918 C 0.35625 0.89716 0.39118 0.0
C919 C 0.3731 0.90693 0.42116 0.0
C920 C 0.42651 0.93995 0.49123 0.0
C921 C 0.40735 0.92772 0.47064 0.0
H922 H 0.34323 0.87419 0.29452 0.0
H923 H 0.36976 0.88781 0.34628 0.0
H924 H 0.36936 0.93136 0.43739 0.0
H925 H 0.4491 0.97204 0.57419 0.0
H926 H 0.41713 0.94886 0.54549 0.0
C927 C 0.45981 0.31835 0.41789 0.0
C928 C 0.44028 0.30725 0.40759 0.0
C929 C 0.46928 0.33841 0.41617 0.0
C930 C 0.46241 0.37972 0.38625 0.0
H931 H 0.49886 0.40626 0.47945 0.0
C932 C 0.47108 0.44341 0.48911 0.0
C933 C 0.48919 0.45725 0.50568 0.0
C934 C 0.4688 0.42879 0.4605 0.0
C935 C 0.48909 0.3992 0.45256 0.0
H936 H 0.41553 0.30832 0.38534 0.0
H937 H 0.43156 0.34332 0.38548 0.0
H938 H 0.48763 0.37243 0.46286 0.0
H939 H 0.51925 0.46789 0.50281 0.0
H940 H 0.51521 0.44177 0.45367 0.0
H941 H 0.46266 0.40642 0.37925 0.0
C942 C 0.43988 0.33667 0.3935 0.0
C943 C 0.4826 0.37969 0.44288 0.0
C944 C 0.43054 0.31656 0.39408 0.0
C945 C 0.50514 0.45739 0.49026 0.0
C946 C 0.50284 0.44246 0.46231 0.0
C947 C 0.46862 0.39919 0.39663 0.0
C948 C 0.45934 0.34795 0.40535 0.0
C949 C 0.46866 0.36945 0.41049 0.0
C950 C 0.48459 0.42755 0.44878 0.0
C951 C 0.48158 0.40891 0.43068 0.0
H952 H 0.46774 0.31154 0.42791 0.0
H953 H 0.48434 0.34642 0.42432 0.0
H954 H 0.45212 0.37256 0.3603 0.0
H955 H 0.45859 0.44309 0.50057 0.0
H956 H 0.45458 0.41742 0.4508 0.0
C957 C 0.54359 0.88379 0.91264 0.0
C958 C 0.52718 0.86547 0.91009 0.0
C959 C 0.54414 0.8988 0.89094 0.0
C960 C 0.51471 0.91629 0.84401 0.0
H961 H 0.55585 0.94241 0.77152 0.0
C962 C 0.5133 0.96376 0.715 0.0
C963 C 0.5306 0.97824 0.70171 0.0
C964 C 0.51303 0.95197 0.74615 0.0
C965 C 0.54448 0.93567 0.79231 0.0
H966 H 0.49873 0.84834 0.88157 0.0
H967 H 0.49955 0.87481 0.84451 0.0
H968 H 0.55517 0.9179 0.81463 0.0
H969 H 0.56107 0.99315 0.71299 0.0
H970 H 0.56065 0.97342 0.76891 0.0
H971 H 0.50409 0.9342 0.82223 0.0
C972 C 0.51185 0.87753 0.8638 0.0
C973 C 0.54406 0.9215 0.81677 0.0
C974 C 0.51139 0.86242 0.88497 0.0
C975 C 0.54755 0.98183 0.7223 0.0
C976 C 0.54728 0.97038 0.75405 0.0
C977 C 0.51528 0.93074 0.82002 0.0
C978 C 0.52825 0.89582 0.86651 0.0
C979 C 0.52907 0.91153 0.84243 0.0
C980 C 0.53008 0.95474 0.76512 0.0
C981 C 0.53008 0.94048 0.79345 0.0
H982 H 0.55604 0.88649 0.93131 0.0
H983 H 0.55697 0.91278 0.89338 0.0
H984 H 0.50307 0.90887 0.86391 0.0
H985 H 0.50003 0.9607 0.69945 0.0
H986 H 0.4995 0.94003 0.75354 0.0
C987 C 0.68203 0.56298 0.85003 0.0
C988 C 0.68963 0.5509 0.85659 0.0
C989 C 0.67178 0.56108 0.81297 0.0
C990 C 0.64238 0.5231 0.7328 0.0
H991 H 0.63326 0.56334 0.69517 0.0
C992 C 0.56939 0.51011 0.69343 0.0
C993 C 0.56582 0.51972 0.66209 0.0
C994 C 0.58764 0.51363 0.70241 0.0
C995 C 0.63592 0.55199 0.70436 0.0
H996 H 0.6932 0.52792 0.82826 0.0
H997 H 0.67613 0.52525 0.76306 0.0
H998 H 0.66191 0.57209 0.73806 0.0
H999 H 0.57837 0.54031 0.61507 0.0
H1000 H 0.61073 0.54678 0.6312 0.0
H1001 H 0.61614 0.50302 0.70021 0.0
C1002 C 0.67767 0.53589 0.78696 0.0
C1003 C 0.65219 0.55697 0.72945 0.0
C1004 C 0.6876 0.53753 0.82435 0.0
C1005 C 0.58078 0.53256 0.63897 0.0
C1006 C 0.59924 0.53633 0.64836 0.0
C1007 C 0.62627 0.51817 0.70747 0.0
C1008 C 0.66904 0.54715 0.78136 0.0
C1009 C 0.65501 0.54251 0.74597 0.0
C1010 C 0.60283 0.52701 0.68053 0.0
C1011 C 0.62232 0.53248 0.69519 0.0
H1012 H 0.68329 0.5733 0.87445 0.0
H1013 H 0.66509 0.56977 0.81027 0.0
H1014 H 0.64396 0.51151 0.74479 0.0
H1015 H 0.55807 0.50005 0.71158 0.0
H1016 H 0.58998 0.5065 0.72791 0.0
C1017 C 0.12155 0.69074 0.85609 0.0
C1018 C 0.14085 0.70118 0.84834 0.0
C1019 C 0.11212 0.6706 0.85603 0.0
C1020 C 0.11638 0.63028 0.80964 0.0
H1021 H 0.06884 0.60011 0.86104 0.0
C1022 C 0.06451 0.55571 0.73912 0.0
C1023 C 0.04834 0.55611 0.72444 0.0
C1024 C 0.07636 0.56888 0.77136 0.0
C1025 C 0.08227 0.60826 0.84702 0.0
H1026 H 0.16578 0.69894 0.83806 0.0
H1027 H 0.14959 0.66389 0.83972 0.0
H1028 H 0.0902 0.6336 0.88638 0.0
H1029 H 0.03043 0.56849 0.73494 0.0
H1030 H 0.05079 0.59112 0.79142 0.0
H1031 H 0.10813 0.60529 0.76923 0.0
C1032 C 0.1415 0.67111 0.84424 0.0
C1033 C 0.09443 0.62751 0.8612 0.0
C1034 C 0.15083 0.69121 0.8435 0.0
C1035 C 0.04294 0.56806 0.74563 0.0
C1036 C 0.05456 0.58093 0.77819 0.0
C1037 C 0.10436 0.61103 0.79588 0.0
C1038 C 0.12187 0.66047 0.84895 0.0
C1039 C 0.11118 0.63905 0.84122 0.0
C1040 C 0.07196 0.58231 0.78963 0.0
C1041 C 0.08675 0.60012 0.81299 0.0
H1042 H 0.11357 0.6981 0.86039 0.0
H1043 H 0.09698 0.66301 0.85929 0.0
H1044 H 0.129 0.63862 0.79305 0.0
H1045 H 0.06893 0.54659 0.72315 0.0
H1046 H 0.08965 0.56956 0.77982 0.0
C1047 C 0.5172 0.16319 0.98898 0.0
C1048 C 0.50361 0.15915 0.01844 0.0
C1049 C 0.51447 0.14917 0.95814 0.0
C1050 C 0.4781 0.10384 0.9027 0.0
H1051 H 0.52091 0.09711 0.88028 0.0
C1052 C 0.49705 0.04836 0.80603 0.0
C1053 C 0.48827 0.04707 0.76686 0.0
C1054 C 0.49759 0.06095 0.83797 0.0
C1055 C 0.50877 0.09868 0.88645 0.0
H1056 H 0.47654 0.13734 0.03873 0.0
H1057 H 0.47172 0.11281 0.98467 0.0
H1058 H 0.52458 0.12158 0.93291 0.0
H1059 H 0.47252 0.05748 0.7312 0.0
H1060 H 0.47357 0.07946 0.7869 0.0
H1061 H 0.46227 0.08081 0.85631 0.0
C1062 C 0.48437 0.12688 0.98517 0.0
C1063 C 0.51094 0.11286 0.91621 0.0
C1064 C 0.48714 0.14089 0.01614 0.0
C1065 C 0.47945 0.05814 0.76091 0.0
C1066 C 0.47995 0.07067 0.79291 0.0
C1067 C 0.47595 0.08969 0.87273 0.0
C1068 C 0.4981 0.13081 0.95613 0.0
C1069 C 0.49566 0.11566 0.92455 0.0
C1070 C 0.48933 0.07247 0.83154 0.0
C1071 C 0.49128 0.08698 0.86427 0.0
H1072 H 0.53007 0.17712 0.99024 0.0
H1073 H 0.5252 0.15269 0.93588 0.0
H1074 H 0.46609 0.10573 0.90832 0.0
H1075 H 0.5039 0.04 0.81183 0.0
H1076 H 0.50467 0.06181 0.86764 0.0
C1077 C 0.32131 0.43884 0.87812 0.0
C1078 C 0.32536 0.45054 0.91489 0.0
C1079 C 0.33385 0.44488 0.84628 0.0
C1080 C 0.3765 0.48744 0.80868 0.0
H1081 H 0.38476 0.44779 0.7578 0.0
C1082 C 0.4443 0.50195 0.72803 0.0
C1083 C 0.44254 0.48937 0.6943 0.0
C1084 C 0.42835 0.49914 0.74844 0.0
C1085 C 0.38241 0.45901 0.77105 0.0
H1086 H 0.34549 0.47798 0.94666 0.0
H1087 H 0.36774 0.48834 0.89162 0.0
H1088 H 0.36017 0.43899 0.80652 0.0
H1089 H 0.42234 0.4651 0.65316 0.0
H1090 H 0.39458 0.46031 0.68867 0.0
H1091 H 0.39945 0.50756 0.77419 0.0
C1092 C 0.35467 0.47465 0.88691 0.0
C1093 C 0.36825 0.45395 0.79907 0.0
C1094 C 0.34201 0.46868 0.91862 0.0
C1095 C 0.42429 0.47493 0.67932 0.0
C1096 C 0.40836 0.4721 0.69981 0.0
C1097 C 0.3908 0.49253 0.78079 0.0
C1098 C 0.35091 0.46268 0.8506 0.0
C1099 C 0.3652 0.46811 0.81861 0.0
C1100 C 0.4103 0.48369 0.73557 0.0
C1101 C 0.39402 0.47837 0.76196 0.0
H1102 H 0.30858 0.4248 0.87428 0.0
H1103 H 0.33027 0.43543 0.81846 0.0
H1104 H 0.37439 0.49869 0.82264 0.0
H1105 H 0.45811 0.5133 0.74028 0.0
H1106 H 0.43033 0.50831 0.77593 0.0
C1107 C 0.87003 0.33551 0.91701 0.0
C1108 C 0.8717 0.33589 0.96062 0.0
C1109 C 0.8856 0.34764 0.8949 0.0
C1110 C 0.92772 0.39433 0.90248 0.0
H1111 H 0.94277 0.37506 0.8076 0.0
C1112 C 0.98655 0.44628 0.80046 0.0
C1113 C 0.98337 0.44165 0.75742 0.0
C1114 C 0.97507 0.43287 0.82821 0.0
C1115 C 0.93865 0.38073 0.83374 0.0
H1116 H 0.89081 0.34953 0.01514 0.0
H1117 H 0.91797 0.37121 0.97628 0.0
H1118 H 0.91825 0.35235 0.85022 0.0
H1119 H 0.96569 0.41933 0.70976 0.0
H1120 H 0.94536 0.3964 0.75764 0.0
H1121 H 0.94721 0.4227 0.88496 0.0
C1122 C 0.90469 0.3612 0.95944 0.0
C1123 C 0.9247 0.36769 0.85823 0.0
C1124 C 0.88922 0.3488 0.98154 0.0
C1125 C 0.96865 0.42331 0.74275 0.0
C1126 C 0.95704 0.41006 0.77035 0.0
C1127 C 0.94145 0.40741 0.87756 0.0
C1128 C 0.90298 0.36071 0.91595 0.0
C1129 C 0.91894 0.37439 0.89242 0.0
C1130 C 0.96002 0.41466 0.81346 0.0
C1131 C 0.94685 0.40078 0.84241 0.0
H1132 H 0.85668 0.32604 0.89988 0.0
H1133 H 0.8839 0.34722 0.86137 0.0
H1134 H 0.92338 0.39981 0.92857 0.0
H1135 H 0.99788 0.46025 0.81273 0.0
H1136 H 0.97799 0.43682 0.8612 0.0
C1137 C 0.88681 0.54064 0.89215 0.0
C1138 C 0.88563 0.55751 0.89029 0.0
C1139 C 0.89447 0.53502 0.86013 0.0
C1140 C 0.92818 0.55537 0.77881 0.0
H1141 H 0.91001 0.50136 0.74817 0.0
C1142 C 0.97032 0.53095 0.67603 0.0
C1143 C 0.97325 0.51686 0.69385 0.0
C1144 C 0.95677 0.53515 0.6911 0.0
C1145 C 0.91522 0.51652 0.75627 0.0
H1146 H 0.89139 0.58164 0.85321 0.0
H1147 H 0.90475 0.57175 0.79686 0.0
H1148 H 0.89119 0.51026 0.79125 0.0
H1149 H 0.96383 0.49556 0.7402 0.0
H1150 H 0.9403 0.50276 0.7663 0.0
H1151 H 0.95251 0.56155 0.74494 0.0
C1152 C 0.89974 0.56288 0.8232 0.0
C1153 C 0.90447 0.52161 0.78103 0.0
C1154 C 0.892 0.56848 0.85526 0.0
C1155 C 0.96192 0.50654 0.72587 0.0
C1156 C 0.9483 0.51055 0.74059 0.0
C1157 C 0.93892 0.55026 0.75393 0.0
C1158 C 0.90128 0.54619 0.82551 0.0
C1159 C 0.91112 0.54105 0.79376 0.0
C1160 C 0.94578 0.52514 0.72395 0.0
C1161 C 0.93285 0.53074 0.74357 0.0
H1162 H 0.88225 0.53204 0.91897 0.0
H1163 H 0.89575 0.52229 0.86336 0.0
H1164 H 0.93379 0.57046 0.78826 0.0
H1165 H 0.97906 0.53933 0.65191 0.0
H1166 H 0.95512 0.54645 0.67762 0.0
C1167 C 0.31214 0.86619 0.79983 0.0
C1168 C 0.31201 0.85312 0.82784 0.0
C1169 C 0.328 0.87703 0.77726 0.0
C1170 C 0.37921 0.89613 0.78057 0.0
H1171 H 0.37432 0.90603 0.66537 0.0
C1172 C 0.44506 0.94562 0.69557 0.0
C1173 C 0.44392 0.95983 0.67344 0.0
C1174 C 0.4287 0.92973 0.70821 0.0
C1175 C 0.37592 0.90347 0.69757 0.0
H1176 H 0.32798 0.84034 0.8524 0.0
H1177 H 0.35588 0.85952 0.81334 0.0
H1178 H 0.34615 0.88396 0.70056 0.0
H1179 H 0.42456 0.96767 0.64438 0.0
H1180 H 0.39606 0.9402 0.66719 0.0
H1181 H 0.40878 0.91603 0.77831 0.0
C1182 C 0.34381 0.86162 0.80947 0.0
C1183 C 0.35979 0.89084 0.71771 0.0
C1184 C 0.32789 0.85069 0.83189 0.0
C1185 C 0.42596 0.95705 0.6616 0.0
C1186 C 0.40958 0.94122 0.67456 0.0
C1187 C 0.39529 0.90881 0.76056 0.0
C1188 C 0.34407 0.87497 0.78205 0.0
C1189 C 0.36125 0.88723 0.75959 0.0
C1190 C 0.41082 0.92774 0.6993 0.0
C1191 C 0.39384 0.91283 0.71895 0.0
H1192 H 0.29994 0.86805 0.7955 0.0
H1193 H 0.32782 0.8873 0.75664 0.0
H1194 H 0.38077 0.89387 0.813 0.0
H1195 H 0.45866 0.94713 0.7046 0.0
H1196 H 0.43014 0.91934 0.72623 0.0
C1197 C 0.45686 0.33838 0.96641 0.0
C1198 C 0.46499 0.34382 0.00725 0.0
C1199 C 0.46215 0.35208 0.93664 0.0
C1200 C 0.48095 0.40376 0.92605 0.0
H1201 H 0.48889 0.39189 0.81343 0.0
C1202 C 0.49941 0.45791 0.79728 0.0
C1203 C 0.48973 0.45001 0.75832 0.0
C1204 C 0.49859 0.44585 0.82841 0.0
C1205 C 0.48659 0.39538 0.84467 0.0
H1206 H 0.48453 0.36793 0.04923 0.0
H1207 H 0.4938 0.39199 0.99706 0.0
H1208 H 0.48335 0.36902 0.86642 0.0
H1209 H 0.47165 0.42316 0.72167 0.0
H1210 H 0.47001 0.40231 0.77583 0.0
H1211 H 0.48368 0.42988 0.9041 0.0
C1212 C 0.48349 0.37707 0.98807 0.0
C1213 C 0.48345 0.38229 0.87501 0.0
C1214 C 0.4783 0.36331 0.0178 0.0
C1215 C 0.47934 0.42981 0.75119 0.0
C1216 C 0.47851 0.4178 0.78222 0.0
C1217 C 0.48401 0.41683 0.89563 0.0
C1218 C 0.47544 0.37159 0.94719 0.0
C1219 C 0.4803 0.3862 0.91586 0.0
C1220 C 0.48808 0.42564 0.82123 0.0
C1221 C 0.48654 0.41264 0.85441 0.0
H1222 H 0.44621 0.32355 0.95762 0.0
H1223 H 0.45543 0.34749 0.9056 0.0
H1224 H 0.4784 0.40709 0.9572 0.0
H1225 H 0.50761 0.47341 0.8038 0.0
H1226 H 0.50627 0.45235 0.85801 0.0
C1227 C 0.11977 0.43543 0.91721 0.0
C1228 C 0.12983 0.42592 0.908 0.0
C1229 C 0.11797 0.44718 0.88875 0.0
C1230 C 0.11927 0.47584 0.83011 0.0
H1231 H 0.1108 0.45683 0.71472 0.0
C1232 C 0.08239 0.50112 0.71705 0.0
C1233 C 0.06791 0.48617 0.69119 0.0
C1234 C 0.09654 0.49859 0.73633 0.0
C1235 C 0.11302 0.46233 0.74681 0.0
H1236 H 0.14639 0.42167 0.86186 0.0
H1237 H 0.14413 0.44299 0.813 0.0
H1238 H 0.1223 0.44295 0.76531 0.0
H1239 H 0.05791 0.45758 0.66215 0.0
H1240 H 0.08169 0.45274 0.697 0.0
H1241 H 0.10816 0.49376 0.81262 0.0
C1242 C 0.13717 0.44102 0.84186 0.0
C1243 C 0.11998 0.45456 0.77591 0.0
C1244 C 0.13865 0.42893 0.87011 0.0
C1245 C 0.06882 0.46937 0.68205 0.0
C1246 C 0.08266 0.46666 0.70204 0.0
C1247 C 0.11186 0.48326 0.80124 0.0
C1248 C 0.12642 0.44996 0.85036 0.0
C1249 C 0.12249 0.46067 0.81829 0.0
C1250 C 0.09622 0.48087 0.73099 0.0
C1251 C 0.10791 0.47607 0.75941 0.0
H1252 H 0.11261 0.43313 0.94591 0.0
H1253 H 0.10918 0.45333 0.89628 0.0
H1254 H 0.12163 0.48144 0.86215 0.0
H1255 H 0.08225 0.51439 0.7241 0.0
H1256 H 0.10713 0.51019 0.75711 0.0
C1257 C 0.70085 0.10826 0.86692 0.0
C1258 C 0.70032 0.11422 0.90817 0.0
C1259 C 0.68629 0.10452 0.83739 0.0
C1260 C 0.63596 0.09144 0.83379 0.0
H1261 H 0.64174 0.09694 0.71542 0.0
C1262 C 0.57113 0.06777 0.72513 0.0
C1263 C 0.56886 0.05476 0.69202 0.0
C1264 C 0.58872 0.0791 0.74637 0.0
C1265 C 0.63996 0.09534 0.74841 0.0
H1266 H 0.68502 0.12255 0.94991 0.0
H1267 H 0.66008 0.11684 0.89825 0.0
H1268 H 0.66989 0.10964 0.76321 0.0
H1269 H 0.58329 0.04397 0.6539 0.0
H1270 H 0.61427 0.06389 0.69101 0.0
H1271 H 0.60617 0.07703 0.81928 0.0
C1272 C 0.67128 0.11423 0.88894 0.0
C1273 C 0.65605 0.10255 0.7758 0.0
C1274 C 0.68565 0.11766 0.91854 0.0
C1275 C 0.58478 0.05422 0.67865 0.0
C1276 C 0.60247 0.06554 0.70011 0.0
C1277 C 0.61999 0.08443 0.80661 0.0
C1278 C 0.67103 0.10697 0.84835 0.0
C1279 C 0.65423 0.10056 0.81887 0.0
C1280 C 0.6044 0.07748 0.73531 0.0
C1281 C 0.62175 0.0862 0.76362 0.0
H1282 H 0.71216 0.10577 0.85792 0.0
H1283 H 0.68659 0.0989 0.80655 0.0
H1284 H 0.63388 0.0891 0.86648 0.0
H1285 H 0.55904 0.06848 0.73594 0.0
H1286 H 0.58984 0.08844 0.77284 0.0
C1287 C 0.5957 0.68648 0.90925 0.0
C1288 C 0.60067 0.7035 0.88911 0.0
C1289 C 0.58491 0.66838 0.88805 0.0
C1290 C 0.57147 0.64624 0.78014 0.0
H1291 H 0.53679 0.59999 0.83369 0.0
C1292 C 0.52338 0.57702 0.6845 0.0
C1293 C 0.52792 0.56254 0.69076 0.0
C1294 C 0.52905 0.59225 0.71421 0.0
C1295 C 0.54648 0.61283 0.81858 0.0
H1296 H 0.59763 0.71475 0.831 0.0
H1297 H 0.57799 0.68334 0.79486 0.0
H1298 H 0.55288 0.63125 0.87382 0.0
H1299 H 0.54082 0.55171 0.73359 0.0
H1300 H 0.5507 0.57856 0.78653 0.0
H1301 H 0.56465 0.62793 0.72477 0.0
C1302 C 0.58297 0.68389 0.82667 0.0
C1303 C 0.55577 0.63072 0.84144 0.0
C1304 C 0.59409 0.70199 0.84759 0.0
C1305 C 0.53691 0.56261 0.72863 0.0
C1306 C 0.54258 0.57794 0.75867 0.0
C1307 C 0.56197 0.62853 0.75732 0.0
C1308 C 0.5786 0.66683 0.84624 0.0
C1309 C 0.56836 0.64769 0.82241 0.0
C1310 C 0.53942 0.59328 0.75068 0.0
C1311 C 0.54937 0.61171 0.77622 0.0
H1312 H 0.60068 0.68725 0.94119 0.0
H1313 H 0.58209 0.65567 0.90411 0.0
H1314 H 0.58146 0.65876 0.76456 0.0
H1315 H 0.51661 0.57729 0.65524 0.0
H1316 H 0.52643 0.60391 0.7075 0.0
C1317 C 0.43131 0.10317 0.3144 0.0
C1318 C 0.4491 0.12713 0.29705 0.0
C1319 C 0.44121 0.09011 0.33899 0.0
C1320 C 0.49302 0.09833 0.3782 0.0
H1321 H 0.45995 0.04524 0.40417 0.0
C1322 C 0.50769 0.06451 0.5175 0.0
C1323 C 0.5015 0.04473 0.5152 0.0
C1324 C 0.50427 0.07299 0.48382 0.0
C1325 C 0.46951 0.05995 0.3966 0.0
H1326 H 0.48305 0.14642 0.27083 0.0
H1327 H 0.49686 0.12337 0.30894 0.0
H1328 H 0.44818 0.06058 0.35767 0.0
H1329 H 0.48738 0.01819 0.47626 0.0
H1330 H 0.48149 0.03303 0.41666 0.0
H1331 H 0.51439 0.09765 0.41714 0.0
C1332 C 0.4821 0.11918 0.31034 0.0
C1333 C 0.46264 0.06888 0.37046 0.0
C1334 C 0.47351 0.13318 0.28484 0.0
C1335 C 0.49253 0.03358 0.47824 0.0
C1336 C 0.489 0.04204 0.44445 0.0
C1337 C 0.49993 0.08938 0.40419 0.0
C1338 C 0.46632 0.09845 0.33824 0.0
C1339 C 0.47417 0.08831 0.36185 0.0
C1340 C 0.49439 0.06175 0.44731 0.0
C1341 C 0.48811 0.07025 0.41458 0.0
H1342 H 0.41678 0.09942 0.31833 0.0
H1343 H 0.43204 0.07757 0.35545 0.0
H1344 H 0.50228 0.11336 0.37261 0.0
H1345 H 0.51436 0.07323 0.54612 0.0
H1346 H 0.50837 0.08811 0.48742 0.0
C1347 C 0.30715 0.4459 0.44179 0.0
C1348 C 0.30642 0.45904 0.41526 0.0
C1349 C 0.32387 0.45072 0.4649 0.0
C1350 C 0.37157 0.49243 0.49863 0.0
H1351 H 0.38572 0.45284 0.50164 0.0
C1352 C 0.44816 0.50754 0.51041 0.0
C1353 C 0.45269 0.49744 0.53886 0.0
C1354 C 0.42948 0.50332 0.50378 0.0
C1355 C 0.38181 0.46395 0.50164 0.0
H1356 H 0.32219 0.48809 0.39447 0.0
H1357 H 0.35154 0.49619 0.43292 0.0
H1358 H 0.35422 0.44443 0.47402 0.0
H1359 H 0.44142 0.47484 0.58205 0.0
H1360 H 0.40851 0.46719 0.57001 0.0
H1361 H 0.39973 0.51213 0.5239 0.0
C1362 C 0.33922 0.4822 0.43644 0.0
C1363 C 0.36374 0.45915 0.48594 0.0
C1364 C 0.32246 0.47746 0.4138 0.0
C1365 C 0.43829 0.48309 0.56072 0.0
C1366 C 0.41951 0.47862 0.55356 0.0
C1367 C 0.38973 0.49726 0.51369 0.0
C1368 C 0.34022 0.46882 0.46193 0.0
C1369 C 0.35854 0.47343 0.48334 0.0
C1370 C 0.41498 0.48867 0.52489 0.0
C1371 C 0.39509 0.48313 0.51451 0.0
H1372 H 0.29481 0.4318 0.44433 0.0
H1373 H 0.32398 0.44023 0.48493 0.0
H1374 H 0.36792 0.5037 0.49811 0.0
H1375 H 0.45906 0.51866 0.49319 0.0
H1376 H 0.42628 0.51109 0.48113 0.0
C1377 C 0.89043 0.33703 0.35008 0.0
C1378 C 0.8717 0.3325 0.34052 0.0
C1379 C 0.90469 0.35616 0.35883 0.0
C1380 C 0.91115 0.40192 0.40204 0.0
H1381 H 0.96319 0.42048 0.37533 0.0
C1382 C 0.97163 0.46809 0.49282 0.0
C1383 C 0.9846 0.46344 0.51101 0.0
C1384 C 0.95935 0.45654 0.45919 0.0
C1385 C 0.9487 0.4156 0.38276 0.0
H1386 H 0.85326 0.34447 0.33187 0.0
H1387 H 0.87828 0.37807 0.34737 0.0
H1388 H 0.93781 0.39083 0.33986 0.0
H1389 H 0.99632 0.44444 0.50579 0.0
H1390 H 0.97515 0.42448 0.44746 0.0
H1391 H 0.92208 0.42603 0.44656 0.0
C1392 C 0.88189 0.36677 0.34798 0.0
C1393 C 0.93419 0.3986 0.36255 0.0
C1394 C 0.86761 0.34759 0.339 0.0
C1395 C 0.98631 0.44823 0.49265 0.0
C1396 C 0.97425 0.43688 0.45892 0.0
C1397 C 0.92567 0.4189 0.42227 0.0
C1398 C 0.90055 0.37123 0.35856 0.0
C1399 C 0.91534 0.39115 0.37325 0.0
C1400 C 0.96009 0.44036 0.44293 0.0
C1401 C 0.94468 0.42547 0.41414 0.0
H1402 H 0.89397 0.3257 0.35185 0.0
H1403 H 0.91883 0.35904 0.36764 0.0
H1404 H 0.89681 0.39652 0.41121 0.0
H1405 H 0.97004 0.47977 0.50636 0.0
H1406 H 0.9487 0.45969 0.44722 0.0
C1407 C 0.5422 0.85117 0.30842 0.0
C1408 C 0.5258 0.84036 0.28219 0.0
C1409 C 0.54747 0.8699 0.32328 0.0
C1410 C 0.53803 0.91055 0.31225 0.0
H1411 H 0.55156 0.91915 0.43055 0.0
C1412 C 0.53392 0.96818 0.41971 0.0
C1413 C 0.54708 0.97646 0.45405 0.0
C1414 C 0.53403 0.95405 0.39291 0.0
C1415 C 0.54818 0.91723 0.39735 0.0
H1416 H 0.50259 0.84098 0.2492 0.0
H1417 H 0.51153 0.87361 0.27597 0.0
H1418 H 0.54696 0.88997 0.39417 0.0
H1419 H 0.57173 0.97778 0.485 0.0
H1420 H 0.5722 0.95358 0.43789 0.0
H1421 H 0.53877 0.93776 0.3161 0.0
C1422 C 0.52048 0.86773 0.28461 0.0
C1423 C 0.54553 0.90044 0.37641 0.0
C1424 C 0.51528 0.84901 0.26947 0.0
C1425 C 0.56118 0.97141 0.45925 0.0
C1426 C 0.5614 0.95748 0.43234 0.0
C1427 C 0.54067 0.92744 0.33332 0.0
C1428 C 0.53635 0.87817 0.31264 0.0
C1429 C 0.54032 0.8968 0.33367 0.0
C1430 C 0.54739 0.94808 0.39984 0.0
C1431 C 0.54569 0.93091 0.3762 0.0
H1432 H 0.55064 0.84492 0.31849 0.0
H1433 H 0.56001 0.8777 0.34409 0.0
H1434 H 0.53415 0.90824 0.27925 0.0
H1435 H 0.52287 0.97177 0.4149 0.0
H1436 H 0.523 0.94705 0.36825 0.0
C1437 C 0.7075 0.59421 0.31905 0.0
C1438 C 0.70483 0.57596 0.27793 0.0
C1439 C 0.69025 0.58503 0.35775 0.0
C1440 C 0.64316 0.53473 0.38744 0.0
H1441 H 0.63653 0.57315 0.44956 0.0
C1442 C 0.57512 0.51829 0.46949 0.0
C1443 C 0.57671 0.52987 0.50506 0.0
C1444 C 0.59122 0.52158 0.44901 0.0
C1445 C 0.63841 0.56219 0.43326 0.0
H1446 H 0.68 0.544 0.23693 0.0
H1447 H 0.65253 0.53168 0.29999 0.0
H1448 H 0.66163 0.58339 0.40208 0.0
H1449 H 0.59674 0.55276 0.54918 0.0
H1450 H 0.62474 0.5582 0.51395 0.0
H1451 H 0.61927 0.51347 0.41786 0.0
C1452 C 0.66537 0.54555 0.30427 0.0
C1453 C 0.65291 0.5681 0.40588 0.0
C1454 C 0.68186 0.55347 0.26372 0.0
C1455 C 0.59491 0.54369 0.52163 0.0
C1456 C 0.61099 0.54693 0.50122 0.0
C1457 C 0.62855 0.52878 0.41487 0.0
C1458 C 0.66986 0.56089 0.35104 0.0
C1459 C 0.65535 0.55446 0.38229 0.0
C1460 C 0.60929 0.53647 0.46372 0.0
C1461 C 0.62587 0.54246 0.43777 0.0
H1462 H 0.7205 0.6079 0.32453 0.0
H1463 H 0.69232 0.59414 0.38531 0.0
H1464 H 0.6448 0.52383 0.37022 0.0
H1465 H 0.56135 0.50745 0.4559 0.0
H1466 H 0.58934 0.51327 0.42019 0.0
C1467 C 0.11282 0.67699 0.23324 0.0
C1468 C 0.11748 0.69602 0.24486 0.0
C1469 C 0.10545 0.66265 0.26174 0.0
C1470 C 0.0803 0.65152 0.35893 0.0
H1471 H 0.09327 0.61109 0.36245 0.0
C1472 C 0.05726 0.59875 0.48877 0.0
C1473 C 0.04943 0.57901 0.47694 0.0
C1474 C 0.06616 0.61273 0.4602 0.0
C1475 C 0.08942 0.62221 0.36152 0.0
H1476 H 0.11787 0.71492 0.29535 0.0
H1477 H 0.10566 0.69012 0.34551 0.0
H1478 H 0.10828 0.63643 0.31374 0.0
H1479 H 0.04527 0.5586 0.42579 0.0
H1480 H 0.06095 0.58319 0.37576 0.0
H1481 H 0.0616 0.63743 0.4069 0.0
C1482 C 0.10749 0.68617 0.31424 0.0
C1483 C 0.09798 0.63671 0.33364 0.0
C1484 C 0.11472 0.70046 0.28567 0.0
C1485 C 0.05109 0.57365 0.43593 0.0
C1486 C 0.06014 0.58772 0.40733 0.0
C1487 C 0.07186 0.63713 0.3869 0.0
C1488 C 0.1025 0.66703 0.30248 0.0
C1489 C 0.09357 0.65159 0.33213 0.0
C1490 C 0.06757 0.60739 0.41911 0.0
C1491 C 0.07637 0.62237 0.38863 0.0
H1492 H 0.11446 0.67312 0.20174 0.0
H1493 H 0.10149 0.64802 0.25141 0.0
H1494 H 0.0762 0.66245 0.35796 0.0
H1495 H 0.05634 0.60347 0.52009 0.0
H1496 H 0.07199 0.6278 0.47034 0.0
loop_
_geom_bond_atom_site_label_1
_geom_bond_atom_site_label_2
_geom_bond_distance
_geom_bond_site_symmetry_2
_ccdc_geom_bond_type
C0 C1 1.560 . S
C0 H61 0.959 . S
C0 H62 0.959 . S
C0 H63 0.960 . S
C1 C0 1.560 . S
C1 O56 1.426 . S
C1 H60 0.980 . S
C2 C3 1.407 . S
C2 C7 1.418 . S
C2 O56 1.334 . S
C3 C2 1.407 . S
C3 C4 1.360 . S
C3 H64 0.929 . S
C4 C3 1.360 . S
C4 C5 1.401 . S
C4 C8 1.527 . S
C5 C4 1.401 . S
C5 C6 1.405 . S
C5 C38 1.587 . S
C6 C5 1.405 . S
C6 C7 1.332 . S
C6 C9 1.496 . S
C7 C2 1.418 . S
C7 C6 1.332 . S
C7 H65 0.929 . S
C8 C4 1.527 . S
C8 H66 0.959 . S
C8 H67 0.961 . S
C8 H68 0.961 . S
C9 C6 1.496 . S
C9 H69 0.960 . S
C9 H70 0.960 . S
C9 H71 0.961 . S
C10 C11 1.517 . S
C10 H73 0.961 . S
C10 H74 0.960 . S
C10 H75 0.959 . S
C11 C10 1.517 . S
C11 O59 1.468 . S
C11 H72 0.980 . S
C12 C13 1.349 . S
C12 C17 1.367 . S
C12 O59 1.408 . S
C13 C12 1.349 . S
C13 C14 1.407 . S
C13 H76 0.930 . S
C14 C13 1.407 . S
C14 C15 1.449 . S
C14 C18 1.535 . S
C15 C14 1.449 . S
C15 C16 1.384 . S
C15 C40 1.553 . S
C16 C15 1.384 . S
C16 C17 1.364 . S
C16 C19 1.450 . S
C17 C12 1.367 . S
C17 C16 1.364 . S
C17 H77 0.931 . S
C18 C14 1.535 . S
C18 H78 0.959 . S
C18 H79 0.961 . S
C18 H80 0.959 . S
C19 C16 1.450 . S
C19 H81 0.960 . S
C19 H82 0.960 . S
C19 H83 0.960 . S
C20 C21 1.309 . S
C20 C25 1.304 . S
C20 O58 1.435 1_554 S
C21 C20 1.309 . S
C21 C22 1.476 . S
C21 H85 0.930 . S
C22 C21 1.476 . S
C22 C23 1.400 . S
C22 C26 1.567 . S
C23 C22 1.400 . S
C23 C24 1.373 . S
C23 C45 1.432 . S
C24 C23 1.373 . S
C24 C25 1.339 . S
C24 C27 1.530 . S
C25 C20 1.304 . S
C25 C24 1.339 . S
C25 H86 0.930 . S
C26 C22 1.567 . S
C26 H87 0.961 . S
C26 H88 0.960 . S
C26 H89 0.958 . S
C27 C24 1.530 . S
C27 H90 0.961 . S
C27 H91 0.960 . S
C27 H92 0.960 . S
C28 C29 1.530 . S
C28 H94 0.961 . S
C28 H95 0.961 . S
C28 H96 0.959 . S
C29 C28 1.530 . S
C29 O57 1.412 . S
C29 H93 0.990 . S
C30 C31 1.288 . S
C30 C35 1.377 . S
C30 O57 1.393 1_554 S
C31 C30 1.288 . S
C31 C32 1.369 . S
C31 H97 0.932 . S
C32 C31 1.369 . S
C32 C33 1.398 . S
C32 C36 1.527 . S
C33 C32 1.398 . S
C33 C34 1.380 . S
C33 C47 1.497 . S
C34 C33 1.380 . S
C34 C35 1.383 . S
C34 C37 1.603 . S
C35 C30 1.377 . S
C35 C34 1.383 . S
C35 H98 0.929 . S
C36 C32 1.527 . S
C36 H99 0.961 . S
C36 H100 0.959 . S
C36 H101 0.959 . S
C37 C34 1.603 . S
C37 H102 0.960 . S
C37 H103 0.962 . S
C37 H104 0.961 . S
C38 C5 1.587 . S
C38 C39 1.360 . S
C38 C51 1.412 . S
C39 C38 1.360 . S
C39 C40 1.365 . S
C39 H105 0.929 . S
C40 C15 1.553 . S
C40 C39 1.365 . S
C40 C41 1.404 . S
C41 C40 1.404 . S
C41 C42 1.395 . S
C41 C52 1.451 . S
C42 C41 1.395 . S
C42 C43 1.322 . S
C42 H106 0.930 . S
C43 C42 1.322 . S
C43 C44 1.459 . S
C43 H107 0.929 . S
C44 C43 1.459 . S
C44 C45 1.445 . S
C44 C53 1.395 . S
C45 C23 1.432 . S
C45 C44 1.445 . S
C45 C46 1.370 . S
C46 C45 1.370 . S
C46 C47 1.438 . S
C46 H108 0.930 . S
C47 C33 1.497 . S
C47 C46 1.438 . S
C47 C48 1.360 . S
C48 C47 1.360 . S
C48 C49 1.401 . S
C48 C53 1.446 . S
C49 C48 1.401 . S
C49 C50 1.347 . S
C49 H109 0.929 . S
C50 C49 1.347 . S
C50 C51 1.455 . S
C50 H110 0.930 . S
C51 C38 1.412 . S
C51 C50 1.455 . S
C51 C52 1.331 . S
C52 C41 1.451 . S
C52 C51 1.331 . S
C52 C53 1.497 . S
C53 C44 1.395 . S
C53 C48 1.446 . S
C53 C52 1.497 . S
C54 C55 1.582 . S
C54 H111 0.962 . S
C54 H112 0.959 . S
C54 H113 0.958 . S
C55 C54 1.582 . S
C55 O58 1.458 . S
C55 H84 0.980 1_556 S
O56 C1 1.426 . S
O56 C2 1.334 . S
O57 C29 1.412 . S
O57 C30 1.393 1_556 S
O58 C20 1.435 1_556 S
O58 C55 1.458 . S
O59 C11 1.468 . S
O59 C12 1.408 . S
H60 C1 0.980 . S
H61 C0 0.959 . S
H62 C0 0.959 . S
H63 C0 0.960 . S
H64 C3 0.929 . S
H65 C7 0.929 . S
H66 C8 0.959 . S
H67 C8 0.961 . S
H68 C8 0.961 . S
H69 C9 0.960 . S
H70 C9 0.960 . S
H71 C9 0.961 . S
H72 C11 0.980 . S
H73 C10 0.961 . S
H74 C10 0.960 . S
H75 C10 0.959 . S
H76 C13 0.930 . S
H77 C17 0.931 . S
H78 C18 0.959 . S
H79 C18 0.961 . S
H80 C18 0.959 . S
H81 C19 0.960 . S
H82 C19 0.960 . S
H83 C19 0.960 . S
H84 C55 0.980 1_554 S
H85 C21 0.930 . S
H86 C25 0.930 . S
H87 C26 0.961 . S
H88 C26 0.960 . S
H89 C26 0.958 . S
H90 C27 0.961 . S
H91 C27 0.960 . S
H92 C27 0.960 . S
H93 C29 0.990 . S
H94 C28 0.961 . S
H95 C28 0.961 . S
H96 C28 0.959 . S
H97 C31 0.932 . S
H98 C35 0.929 . S
H99 C36 0.961 . S
H100 C36 0.959 . S
H101 C36 0.959 . S
H102 C37 0.960 . S
H103 C37 0.962 . S
H104 C37 0.961 . S
H105 C39 0.929 . S
H106 C42 0.930 . S
H107 C43 0.929 . S
H108 C46 0.930 . S
H109 C49 0.929 . S
H110 C50 0.930 . S
H111 C54 0.962 . S
H112 C54 0.959 . S
H113 C54 0.958 . S
C114 C115 1.560 . S
C114 H175 0.959 . S
C114 H176 0.959 . S
C114 H177 0.960 . S
C115 C114 1.560 . S
C115 O170 1.426 . S
C115 H174 0.980 . S
C116 C117 1.407 . S
C116 C121 1.418 . S
C116 O170 1.334 . S
C117 C116 1.407 . S
C117 C118 1.360 . S
C117 H178 0.929 . S
C118 C117 1.360 . S
C118 C119 1.401 . S
C118 C122 1.527 . S
C119 C118 1.401 . S
C119 C120 1.405 . S
C119 C152 1.587 . S
C120 C119 1.405 . S
C120 C121 1.332 . S
C120 C123 1.496 . S
C121 C116 1.418 . S
C121 C120 1.332 . S
C121 H179 0.929 . S
C122 C118 1.527 . S
C122 H180 0.959 . S
C122 H181 0.961 . S
C122 H182 0.961 . S
C123 C120 1.496 . S
C123 H183 0.960 . S
C123 H184 0.960 . S
C123 H185 0.961 . S
C124 C125 1.517 . S
C124 H187 0.961 . S
C124 H188 0.960 . S
C124 H189 0.959 . S
C125 C124 1.517 . S
C125 O173 1.468 . S
C125 H186 0.980 . S
C126 C127 1.349 . S
C126 C131 1.367 . S
C126 O173 1.408 . S
C127 C126 1.349 . S
C127 C128 1.407 . S
C127 H190 0.930 . S
C128 C127 1.407 . S
C128 C129 1.449 . S
C128 C132 1.535 . S
C129 C128 1.449 . S
C129 C130 1.384 . S
C129 C154 1.553 . S
C130 C129 1.384 . S
C130 C131 1.364 . S
C130 C133 1.450 . S
C131 C126 1.367 . S
C131 C130 1.364 . S
C131 H191 0.931 . S
C132 C128 1.535 . S
C132 H192 0.959 . S
C132 H193 0.961 . S
C132 H194 0.959 . S
C133 C130 1.450 . S
C133 H195 0.960 . S
C133 H196 0.960 . S
C133 H197 0.960 . S
C134 C135 1.309 . S
C134 C139 1.304 . S
C134 O172 1.435 . S
C135 C134 1.309 . S
C135 C136 1.476 1_556 S
C135 H199 0.930 . S
C136 C135 1.476 1_554 S
C136 C137 1.400 . S
C136 C140 1.567 . S
C137 C136 1.400 . S
C137 C138 1.373 . S
C137 C159 1.432 . S
C138 C137 1.373 . S
C138 C139 1.339 1_554 S
C138 C141 1.530 . S
C139 C134 1.304 . S
C139 C138 1.339 1_556 S
C139 H200 0.930 . S
C140 C136 1.567 . S
C140 H201 0.961 . S
C140 H202 0.960 . S
C140 H203 0.958 . S
C141 C138 1.530 . S
C141 H204 0.961 . S
C141 H205 0.960 . S
C141 H206 0.960 . S
C142 C143 1.530 . S
C142 H208 0.961 . S
C142 H209 0.961 . S
C142 H210 0.959 . S
C143 C142 1.530 . S
C143 O171 1.412 . S
C143 H207 0.980 . S
C144 C145 1.288 . S
C144 C149 1.377 . S
C144 O171 1.393 . S
C145 C144 1.288 . S
C145 C146 1.369 1_556 S
C145 H211 0.932 . S
C146 C145 1.369 1_554 S
C146 C147 1.398 . S
C146 C150 1.527 . S
C147 C146 1.398 . S
C147 C148 1.380 . S
C147 C161 1.497 . S
C148 C147 1.380 . S
C148 C149 1.383 1_554 S
C148 C151 1.603 . S
C149 C144 1.377 . S
C149 C148 1.383 1_556 S
C149 H212 0.929 . S
C150 C146 1.527 . S
C150 H213 0.961 . S
C150 H214 0.959 . S
C150 H215 0.959 . S
C151 C148 1.603 . S
C151 H216 0.960 . S
C151 H217 0.962 . S
C151 H218 0.961 . S
C152 C119 1.587 . S
C152 C153 1.360 . S
C152 C165 1.412 . S
C153 C152 1.360 . S
C153 C154 1.365 . S
C153 H219 0.929 . S
C154 C129 1.553 . S
C154 C153 1.365 . S
C154 C155 1.404 . S
C155 C154 1.404 . S
C155 C156 1.395 . S
C155 C166 1.451 . S
C156 C155 1.395 . S
C156 C157 1.322 . S
C156 H220 0.930 . S
C157 C156 1.322 . S
C157 C158 1.459 . S
C157 H221 0.929 . S
C158 C157 1.459 . S
C158 C159 1.445 . S
C158 C167 1.395 . S
C159 C137 1.432 . S
C159 C158 1.445 . S
C159 C160 1.370 . S
C160 C159 1.370 . S
C160 C161 1.438 . S
C160 H222 0.930 . S
C161 C147 1.497 . S
C161 C160 1.438 . S
C161 C162 1.360 . S
C162 C161 1.360 . S
C162 C163 1.401 . S
C162 C167 1.446 . S
C163 C162 1.401 . S
C163 C164 1.347 . S
C163 H223 0.929 . S
C164 C163 1.347 . S
C164 C165 1.455 . S
C164 H224 0.930 . S
C165 C152 1.412 . S
C165 C164 1.455 . S
C165 C166 1.331 . S
C166 C155 1.451 . S
C166 C165 1.331 . S
C166 C167 1.497 . S
C167 C158 1.395 . S
C167 C162 1.446 . S
C167 C166 1.497 . S
C168 C169 1.582 . S
C168 H225 0.962 . S
C168 H226 0.959 . S
C168 H227 0.958 . S
C169 C168 1.582 . S
C169 O172 1.458 . S
C169 H198 0.980 . S
O170 C115 1.426 . S
O170 C116 1.334 . S
O171 C143 1.412 . S
O171 C144 1.393 . S
O172 C134 1.435 . S
O172 C169 1.458 . S
O173 C125 1.468 . S
O173 C126 1.408 . S
H174 C115 0.980 . S
H175 C114 0.959 . S
H176 C114 0.959 . S
H177 C114 0.960 . S
H178 C117 0.929 . S
H179 C121 0.929 . S
H180 C122 0.959 . S
H181 C122 0.961 . S
H182 C122 0.961 . S
H183 C123 0.960 . S
H184 C123 0.960 . S
H185 C123 0.961 . S
H186 C125 0.980 . S
H187 C124 0.961 . S
H188 C124 0.960 . S
H189 C124 0.959 . S
H190 C127 0.930 . S
H191 C131 0.931 . S
H192 C132 0.959 . S
H193 C132 0.961 . S
H194 C132 0.959 . S
H195 C133 0.960 . S
H196 C133 0.960 . S
H197 C133 0.960 . S
H198 C169 0.980 . S
H199 C135 0.930 . S
H200 C139 0.930 . S
H201 C140 0.961 . S
H202 C140 0.960 . S
H203 C140 0.958 . S
H204 C141 0.961 . S
H205 C141 0.960 . S
H206 C141 0.960 . S
H207 C143 0.980 . S
H208 C142 0.961 . S
H209 C142 0.961 . S
H210 C142 0.959 . S
H211 C145 0.932 . S
H212 C149 0.929 . S
H213 C150 0.961 . S
H214 C150 0.959 . S
H215 C150 0.959 . S
H216 C151 0.960 . S
H217 C151 0.962 . S
H218 C151 0.961 . S
H219 C153 0.929 . S
H220 C156 0.930 . S
H221 C157 0.929 . S
H222 C160 0.930 . S
H223 C163 0.929 . S
H224 C164 0.930 . S
H225 C168 0.962 . S
H226 C168 0.959 . S
H227 C168 0.958 . S
C228 C229 1.560 . S
C228 H289 0.959 . S
C228 H290 0.959 . S
C228 H291 0.960 . S
C229 C228 1.560 . S
C229 O284 1.426 . S
C229 H288 0.980 . S
C230 C231 1.407 . S
C230 C235 1.418 . S
C230 O284 1.334 . S
C231 C230 1.407 . S
C231 C232 1.360 . S
C231 H292 0.929 . S
C232 C231 1.360 . S
C232 C233 1.401 . S
C232 C236 1.527 . S
C233 C232 1.401 . S
C233 C234 1.405 . S
C233 C266 1.587 . S
C234 C233 1.405 . S
C234 C235 1.332 . S
C234 C237 1.496 . S
C235 C230 1.418 . S
C235 C234 1.332 . S
C235 H293 0.929 . S
C236 C232 1.527 . S
C236 H294 0.959 . S
C236 H295 0.961 . S
C236 H296 0.961 . S
C237 C234 1.496 . S
C237 H297 0.960 . S
C237 H298 0.960 . S
C237 H299 0.961 . S
C238 C239 1.517 . S
C238 H301 0.961 . S
C238 H302 0.960 . S
C238 H303 0.959 . S
C239 C238 1.517 . S
C239 O287 1.468 . S
C239 H300 0.980 . S
C240 C241 1.349 . S
C240 C245 1.367 . S
C240 O287 1.408 . S
C241 C240 1.349 . S
C241 C242 1.407 . S
C241 H304 0.930 . S
C242 C241 1.407 . S
C242 C243 1.449 . S
C242 C246 1.535 . S
C243 C242 1.449 . S
C243 C244 1.384 . S
C243 C268 1.553 . S
C244 C243 1.384 . S
C244 C245 1.364 . S
C244 C247 1.450 . S
C245 C240 1.367 . S
C245 C244 1.364 . S
C245 H305 0.931 . S
C246 C242 1.535 . S
C246 H306 0.959 . S
C246 H307 0.961 . S
C246 H308 0.959 . S
C247 C244 1.450 . S
C247 H309 0.960 . S
C247 H310 0.960 . S
C247 H311 0.960 . S
C248 C249 1.309 . S
C248 C253 1.304 . S
C248 O286 1.435 . S
C249 C248 1.309 . S
C249 C250 1.476 . S
C249 H313 0.930 . S
C250 C249 1.476 . S
C250 C251 1.400 . S
C250 C254 1.567 . S
C251 C250 1.400 . S
C251 C252 1.373 . S
C251 C273 1.432 . S
C252 C251 1.373 . S
C252 C253 1.339 . S
C252 C255 1.530 . S
C253 C248 1.304 . S
C253 C252 1.339 . S
C253 H314 0.930 . S
C254 C250 1.567 . S
C254 H315 0.961 . S
C254 H316 0.960 . S
C254 H317 0.958 . S
C255 C252 1.530 . S
C255 H318 0.961 . S
C255 H319 0.960 . S
C255 H320 0.960 . S
C256 C257 1.530 . S
C256 H322 0.961 . S
C256 H323 0.961 . S
C256 H324 0.959 . S
C257 C256 1.530 . S
C257 O285 1.412 . S
C257 H321 0.980 . S
C258 C259 1.288 . S
C258 C263 1.377 . S
C258 O285 1.393 . S
C259 C258 1.288 . S
C259 C260 1.369 . S
C259 H325 0.932 . S
C260 C259 1.369 . S
C260 C261 1.398 . S
C260 C264 1.527 . S
C261 C260 1.398 . S
C261 C262 1.380 . S
C261 C275 1.497 . S
C262 C261 1.380 . S
C262 C263 1.383 . S
C262 C265 1.603 . S
C263 C258 1.377 . S
C263 C262 1.383 . S
C263 H326 0.929 . S
C264 C260 1.527 . S
C264 H327 0.961 . S
C264 H328 0.959 . S
C264 H329 0.959 . S
C265 C262 1.603 . S
C265 H330 0.960 . S
C265 H331 0.962 . S
C265 H332 0.961 . S
C266 C233 1.587 . S
C266 C267 1.360 . S
C266 C279 1.412 . S
C267 C266 1.360 . S
C267 C268 1.365 . S
C267 H333 0.929 . S
C268 C243 1.553 . S
C268 C267 1.365 . S
C268 C269 1.404 . S
C269 C268 1.404 . S
C269 C270 1.395 . S
C269 C280 1.451 . S
C270 C269 1.395 . S
C270 C271 1.322 . S
C270 H334 0.930 . S
C271 C270 1.322 . S
C271 C272 1.459 1_554 S
C271 H335 0.929 . S
C272 C271 1.459 1_556 S
C272 C273 1.445 . S
C272 C281 1.395 1_556 S
C273 C251 1.432 . S
C273 C272 1.445 . S
C273 C274 1.370 . S
C274 C273 1.370 . S
C274 C275 1.438 . S
C274 H336 0.930 . S
C275 C261 1.497 . S
C275 C274 1.438 . S
C275 C276 1.360 . S
C276 C275 1.360 . S
C276 C277 1.401 1_556 S
C276 C281 1.446 1_556 S
C277 C276 1.401 1_554 S
C277 C278 1.347 . S
C277 H337 0.929 . S
C278 C277 1.347 . S
C278 C279 1.455 . S
C278 H338 0.930 . S
C279 C266 1.412 . S
C279 C278 1.455 . S
C279 C280 1.331 . S
C280 C269 1.451 . S
C280 C279 1.331 . S
C280 C281 1.497 . S
C281 C272 1.395 1_554 S
C281 C276 1.446 1_554 S
C281 C280 1.497 . S
C282 C283 1.582 . S
C282 H339 0.962 . S
C282 H340 0.959 . S
C282 H341 0.958 . S
C283 C282 1.582 . S
C283 O286 1.458 . S
C283 H312 0.980 . S
O284 C229 1.426 . S
O284 C230 1.334 . S
O285 C257 1.412 . S
O285 C258 1.393 . S
O286 C248 1.435 . S
O286 C283 1.458 . S
O287 C239 1.468 . S
O287 C240 1.408 . S
H288 C229 0.980 . S
H289 C228 0.959 . S
H290 C228 0.959 . S
H291 C228 0.960 . S
H292 C231 0.929 . S
H293 C235 0.929 . S
H294 C236 0.959 . S
H295 C236 0.961 . S
H296 C236 0.961 . S
H297 C237 0.960 . S
H298 C237 0.960 . S
H299 C237 0.961 . S
H300 C239 0.980 . S
H301 C238 0.961 . S
H302 C238 0.960 . S
H303 C238 0.959 . S
H304 C241 0.930 . S
H305 C245 0.931 . S
H306 C246 0.959 . S
H307 C246 0.961 . S
H308 C246 0.959 . S
H309 C247 0.960 . S
H310 C247 0.960 . S
H311 C247 0.960 . S
H312 C283 0.980 . S
H313 C249 0.930 . S
H314 C253 0.930 . S
H315 C254 0.961 . S
H316 C254 0.960 . S
H317 C254 0.958 . S
H318 C255 0.961 . S
H319 C255 0.960 . S
H320 C255 0.960 . S
H321 C257 0.980 . S
H322 C256 0.961 . S
H323 C256 0.961 . S
H324 C256 0.959 . S
H325 C259 0.932 . S
H326 C263 0.929 . S
H327 C264 0.961 . S
H328 C264 0.959 . S
H329 C264 0.959 . S
H330 C265 0.960 . S
H331 C265 0.962 . S
H332 C265 0.961 . S
H333 C267 0.929 . S
H334 C270 0.930 . S
H335 C271 0.929 . S
H336 C274 0.930 . S
H337 C277 0.929 . S
H338 C278 0.930 . S
H339 C282 0.962 . S
H340 C282 0.959 . S
H341 C282 0.958 . S
C342 C343 1.560 . S
C342 H403 0.959 . S
C342 H404 0.959 . S
C342 H405 0.960 . S
C343 C342 1.560 . S
C343 O398 1.426 . S
C343 H402 0.980 . S
C344 C345 1.407 . S
C344 C349 1.418 . S
C344 O398 1.334 . S
C345 C344 1.407 . S
C345 C346 1.360 . S
C345 H406 0.929 . S
C346 C345 1.360 . S
C346 C347 1.401 . S
C346 C350 1.527 . S
C347 C346 1.401 . S
C347 C348 1.405 . S
C347 C380 1.587 . S
C348 C347 1.405 . S
C348 C349 1.332 . S
C348 C351 1.496 . S
C349 C344 1.418 . S
C349 C348 1.332 . S
C349 H407 0.929 . S
C350 C346 1.527 . S
C350 H408 0.959 . S
C350 H409 0.961 . S
C350 H410 0.961 . S
C351 C348 1.496 . S
C351 H411 0.960 . S
C351 H412 0.960 . S
C351 H413 0.961 . S
C352 C353 1.517 . S
C352 H415 0.961 . S
C352 H416 0.960 . S
C352 H417 0.959 . S
C353 C352 1.517 . S
C353 O401 1.468 . S
C353 H414 0.980 . S
C354 C355 1.349 . S
C354 C359 1.367 . S
C354 O401 1.408 . S
C355 C354 1.349 . S
C355 C356 1.407 . S
C355 H418 0.930 . S
C356 C355 1.407 . S
C356 C357 1.449 . S
C356 C360 1.535 . S
C357 C356 1.449 . S
C357 C358 1.384 . S
C357 C382 1.553 . S
C358 C357 1.384 . S
C358 C359 1.364 . S
C358 C361 1.450 . S
C359 C354 1.367 . S
C359 C358 1.364 . S
C359 H419 0.931 . S
C360 C356 1.535 . S
C360 H420 0.959 . S
C360 H421 0.961 . S
C360 H422 0.959 . S
C361 C358 1.450 . S
C361 H423 0.960 . S
C361 H424 0.960 . S
C361 H425 0.960 . S
C362 C363 1.309 . S
C362 C367 1.304 . S
C362 O400 1.435 . S
C363 C362 1.309 . S
C363 C364 1.476 . S
C363 H427 0.930 . S
C364 C363 1.476 . S
C364 C365 1.400 . S
C364 C368 1.567 . S
C365 C364 1.400 . S
C365 C366 1.373 . S
C365 C387 1.432 . S
C366 C365 1.373 . S
C366 C367 1.339 . S
C366 C369 1.530 . S
C367 C362 1.304 . S
C367 C366 1.339 . S
C367 H428 0.930 . S
C368 C364 1.567 . S
C368 H429 0.961 1_556 S
C368 H430 0.960 . S
C368 H431 0.958 . S
C369 C366 1.530 . S
C369 H432 0.961 . S
C369 H433 0.960 . S
C369 H434 0.960 . S
C370 C371 1.530 . S
C370 H436 0.961 . S
C370 H437 0.961 . S
C370 H438 0.959 . S
C371 C370 1.530 . S
C371 O399 1.412 . S
C371 H435 0.980 . S
C372 C373 1.288 . S
C372 C377 1.377 . S
C372 O399 1.393 . S
C373 C372 1.288 . S
C373 C374 1.369 . S
C373 H439 0.932 . S
C374 C373 1.369 . S
C374 C375 1.398 . S
C374 C378 1.527 . S
C375 C374 1.398 . S
C375 C376 1.380 . S
C375 C389 1.497 . S
C376 C375 1.380 . S
C376 C377 1.383 . S
C376 C379 1.603 . S
C377 C372 1.377 . S
C377 C376 1.383 . S
C377 H440 0.929 . S
C378 C374 1.527 . S
C378 H441 0.961 1_556 S
C378 H442 0.959 . S
C378 H443 0.959 . S
C379 C376 1.603 . S
C379 H444 0.960 . S
C379 H445 0.962 . S
C379 H446 0.961 . S
C380 C347 1.587 . S
C380 C381 1.360 . S
C380 C393 1.412 . S
C381 C380 1.360 . S
C381 C382 1.365 . S
C381 H447 0.929 . S
C382 C357 1.553 . S
C382 C381 1.365 . S
C382 C383 1.404 . S
C383 C382 1.404 . S
C383 C384 1.395 . S
C383 C394 1.451 . S
C384 C383 1.395 . S
C384 C385 1.322 . S
C384 H448 0.930 . S
C385 C384 1.322 . S
C385 C386 1.459 . S
C385 H449 0.929 . S
C386 C385 1.459 . S
C386 C387 1.445 1_554 S
C386 C395 1.395 . S
C387 C365 1.432 . S
C387 C386 1.445 1_556 S
C387 C388 1.370 . S
C388 C387 1.370 . S
C388 C389 1.438 . S
C388 H450 0.930 . S
C389 C375 1.497 . S
C389 C388 1.438 . S
C389 C390 1.360 1_556 S
C390 C389 1.360 1_554 S
C390 C391 1.401 . S
C390 C395 1.446 . S
C391 C390 1.401 . S
C391 C392 1.347 . S
C391 H451 0.929 . S
C392 C391 1.347 . S
C392 C393 1.455 . S
C392 H452 0.930 . S
C393 C380 1.412 . S
C393 C392 1.455 . S
C393 C394 1.331 . S
C394 C383 1.451 . S
C394 C393 1.331 . S
C394 C395 1.497 . S
C395 C386 1.395 . S
C395 C390 1.446 . S
C395 C394 1.497 . S
C396 C397 1.582 . S
C396 H453 0.962 . S
C396 H454 0.959 . S
C396 H455 0.958 . S
C397 C396 1.582 . S
C397 O400 1.458 . S
C397 H426 0.980 . S
O398 C343 1.426 . S
O398 C344 1.334 . S
O399 C371 1.412 . S
O399 C372 1.393 . S
O400 C362 1.435 . S
O400 C397 1.458 . S
O401 C353 1.468 . S
O401 C354 1.408 . S
H402 C343 0.980 . S
H403 C342 0.959 . S
H404 C342 0.959 . S
H405 C342 0.960 . S
H406 C345 0.929 . S
H407 C349 0.929 . S
H408 C350 0.959 . S
H409 C350 0.961 . S
H410 C350 0.961 . S
H411 C351 0.960 . S
H412 C351 0.960 . S
H413 C351 0.961 . S
H414 C353 0.980 . S
H415 C352 0.961 . S
H416 C352 0.960 . S
H417 C352 0.959 . S
H418 C355 0.930 . S
H419 C359 0.931 . S
H420 C360 0.959 . S
H421 C360 0.961 . S
H422 C360 0.959 . S
H423 C361 0.960 . S
H424 C361 0.960 . S
H425 C361 0.960 . S
H426 C397 0.980 . S
H427 C363 0.930 . S
H428 C367 0.930 . S
H429 C368 0.961 1_554 S
H430 C368 0.960 . S
H431 C368 0.958 . S
H432 C369 0.961 . S
H433 C369 0.960 . S
H434 C369 0.960 . S
H435 C371 0.980 . S
H436 C370 0.961 . S
H437 C370 0.961 . S
H438 C370 0.959 . S
H439 C373 0.932 . S
H440 C377 0.929 . S
H441 C378 0.961 1_554 S
H442 C378 0.959 . S
H443 C378 0.959 . S
H444 C379 0.960 . S
H445 C379 0.962 . S
H446 C379 0.961 . S
H447 C381 0.929 . S
H448 C384 0.930 . S
H449 C385 0.929 . S
H450 C388 0.930 . S
H451 C391 0.929 . S
H452 C392 0.930 . S
H453 C396 0.962 . S
H454 C396 0.959 . S
H455 C396 0.958 . S
C456 C457 1.560 . S
C456 H517 0.959 . S
C456 H518 0.959 . S
C456 H519 0.960 . S
C457 C456 1.560 . S
C457 O512 1.426 . S
C457 H516 0.980 . S
C458 C459 1.407 . S
C458 C463 1.418 . S
C458 O512 1.334 . S
C459 C458 1.407 . S
C459 C460 1.360 . S
C459 H520 0.929 . S
C460 C459 1.360 . S
C460 C461 1.401 . S
C460 C464 1.527 . S
C461 C460 1.401 . S
C461 C462 1.405 . S
C461 C494 1.587 . S
C462 C461 1.405 . S
C462 C463 1.332 . S
C462 C465 1.496 . S
C463 C458 1.418 . S
C463 C462 1.332 . S
C463 H521 0.929 . S
C464 C460 1.527 . S
C464 H522 0.959 . S
C464 H523 0.961 . S
C464 H524 0.961 . S
C465 C462 1.496 . S
C465 H525 0.960 . S
C465 H526 0.960 . S
C465 H527 0.961 1_556 S
C466 C467 1.517 . S
C466 H529 0.961 . S
C466 H530 0.960 . S
C466 H531 0.959 . S
C467 C466 1.517 . S
C467 O515 1.468 . S
C467 H528 0.980 . S
C468 C469 1.349 . S
C468 C473 1.367 . S
C468 O515 1.408 . S
C469 C468 1.349 . S
C469 C470 1.407 . S
C469 H532 0.930 . S
C470 C469 1.407 . S
C470 C471 1.449 . S
C470 C474 1.535 . S
C471 C470 1.449 . S
C471 C472 1.384 . S
C471 C496 1.553 . S
C472 C471 1.384 . S
C472 C473 1.364 . S
C472 C475 1.450 . S
C473 C468 1.367 . S
C473 C472 1.364 . S
C473 H533 0.931 . S
C474 C470 1.535 . S
C474 H534 0.959 . S
C474 H535 0.961 . S
C474 H536 0.959 . S
C475 C472 1.450 . S
C475 H537 0.960 . S
C475 H538 0.960 . S
C475 H539 0.960 1_556 S
C476 C477 1.309 . S
C476 C481 1.304 . S
C476 O514 1.435 . S
C477 C476 1.309 . S
C477 C478 1.476 . S
C477 H541 0.930 . S
C478 C477 1.476 . S
C478 C479 1.400 . S
C478 C482 1.567 . S
C479 C478 1.400 . S
C479 C480 1.373 . S
C479 C501 1.432 . S
C480 C479 1.373 . S
C480 C481 1.339 . S
C480 C483 1.530 . S
C481 C476 1.304 . S
C481 C480 1.339 . S
C481 H542 0.930 . S
C482 C478 1.567 . S
C482 H543 0.961 . S
C482 H544 0.960 . S
C482 H545 0.958 . S
C483 C480 1.530 . S
C483 H546 0.961 . S
C483 H547 0.960 . S
C483 H548 0.960 . S
C484 C485 1.530 . S
C484 H550 0.961 . S
C484 H551 0.961 . S
C484 H552 0.959 . S
C485 C484 1.530 . S
C485 O513 1.412 . S
C485 H549 0.980 . S
C486 C487 1.288 . S
C486 C491 1.377 . S
C486 O513 1.393 . S
C487 C486 1.288 . S
C487 C488 1.369 . S
C487 H553 0.932 . S
C488 C487 1.369 . S
C488 C489 1.398 . S
C488 C492 1.527 . S
C489 C488 1.398 . S
C489 C490 1.380 . S
C489 C503 1.497 . S
C490 C489 1.380 . S
C490 C491 1.383 . S
C490 C493 1.603 . S
C491 C486 1.377 . S
C491 C490 1.383 . S
C491 H554 0.929 . S
C492 C488 1.527 . S
C492 H555 0.961 . S
C492 H556 0.959 . S
C492 H557 0.959 . S
C493 C490 1.603 . S
C493 H558 0.960 . S
C493 H559 0.962 . S
C493 H560 0.961 . S
C494 C461 1.587 . S
C494 C495 1.360 . S
C494 C507 1.412 1_556 S
C495 C494 1.360 . S
C495 C496 1.365 . S
C495 H561 0.929 . S
C496 C471 1.553 . S
C496 C495 1.365 . S
C496 C497 1.404 1_556 S
C497 C496 1.404 1_554 S
C497 C498 1.395 . S
C497 C508 1.451 . S
C498 C497 1.395 . S
C498 C499 1.322 . S
C498 H562 0.930 . S
C499 C498 1.322 . S
C499 C500 1.459 . S
C499 H563 0.929 . S
C500 C499 1.459 . S
C500 C501 1.445 . S
C500 C509 1.395 . S
C501 C479 1.432 . S
C501 C500 1.445 . S
C501 C502 1.370 . S
C502 C501 1.370 . S
C502 C503 1.438 . S
C502 H564 0.930 . S
C503 C489 1.497 . S
C503 C502 1.438 . S
C503 C504 1.360 . S
C504 C503 1.360 . S
C504 C505 1.401 . S
C504 C509 1.446 . S
C505 C504 1.401 . S
C505 C506 1.347 . S
C505 H565 0.929 . S
C506 C505 1.347 . S
C506 C507 1.455 . S
C506 H566 0.930 . S
C507 C494 1.412 1_554 S
C507 C506 1.455 . S
C507 C508 1.331 . S
C508 C497 1.451 . S
C508 C507 1.331 . S
C508 C509 1.497 . S
C509 C500 1.395 . S
C509 C504 1.446 . S
C509 C508 1.497 . S
C510 C511 1.582 . S
C510 H567 0.962 . S
C510 H568 0.959 . S
C510 H569 0.958 . S
C511 C510 1.582 . S
C511 O514 1.458 . S
C511 H540 0.980 . S
O512 C457 1.426 . S
O512 C458 1.334 . S
O513 C485 1.412 . S
O513 C486 1.393 . S
O514 C476 1.435 . S
O514 C511 1.458 . S
O515 C467 1.468 . S
O515 C468 1.408 . S
H516 C457 0.980 . S
H517 C456 0.959 . S
H518 C456 0.959 . S
H519 C456 0.960 . S
H520 C459 0.929 . S
H521 C463 0.929 . S
H522 C464 0.959 . S
H523 C464 0.961 . S
H524 C464 0.961 . S
H525 C465 0.960 . S
H526 C465 0.960 . S
H527 C465 0.961 1_554 S
H528 C467 0.980 . S
H529 C466 0.961 . S
H530 C466 0.960 . S
H531 C466 0.959 . S
H532 C469 0.930 . S
H533 C473 0.931 . S
H534 C474 0.959 . S
H535 C474 0.961 . S
H536 C474 0.959 . S
H537 C475 0.960 . S
H538 C475 0.960 . S
H539 C475 0.960 1_554 S
H540 C511 0.980 . S
H541 C477 0.930 . S
H542 C481 0.930 . S
H543 C482 0.961 . S
H544 C482 0.960 . S
H545 C482 0.958 . S
H546 C483 0.961 . S
H547 C483 0.960 . S
H548 C483 0.960 . S
H549 C485 0.980 . S
H550 C484 0.961 . S
H551 C484 0.961 . S
H552 C484 0.959 . S
H553 C487 0.932 . S
H554 C491 0.929 . S
H555 C492 0.961 . S
H556 C492 0.959 . S
H557 C492 0.959 . S
H558 C493 0.960 . S
H559 C493 0.962 . S
H560 C493 0.961 . S
H561 C495 0.929 . S
H562 C498 0.930 . S
H563 C499 0.929 . S
H564 C502 0.930 . S
H565 C505 0.929 . S
H566 C506 0.930 . S
H567 C510 0.962 . S
H568 C510 0.959 . S
H569 C510 0.958 . S
C570 C571 1.560 . S
C570 H631 0.959 . S
C570 H632 0.959 . S
C570 H633 0.960 . S
C571 C570 1.560 . S
C571 O626 1.426 . S
C571 H630 0.980 . S
C572 C573 1.407 . S
C572 C577 1.418 . S
C572 O626 1.334 . S
C573 C572 1.407 . S
C573 C574 1.360 . S
C573 H634 0.929 . S
C574 C573 1.360 . S
C574 C575 1.401 . S
C574 C578 1.527 . S
C575 C574 1.401 . S
C575 C576 1.405 . S
C575 C608 1.587 . S
C576 C575 1.405 . S
C576 C577 1.332 . S
C576 C579 1.496 . S
C577 C572 1.418 . S
C577 C576 1.332 . S
C577 H635 0.929 . S
C578 C574 1.527 . S
C578 H636 0.959 . S
C578 H637 0.961 . S
C578 H638 0.961 . S
C579 C576 1.496 . S
C579 H639 0.960 . S
C579 H640 0.960 . S
C579 H641 0.961 . S
C580 C581 1.517 . S
C580 H643 0.961 . S
C580 H644 0.960 . S
C580 H645 0.959 . S
C581 C580 1.517 . S
C581 O629 1.468 . S
C581 H642 0.980 . S
C582 C583 1.349 . S
C582 C587 1.367 . S
C582 O629 1.408 . S
C583 C582 1.349 . S
C583 C584 1.407 . S
C583 H646 0.930 . S
C584 C583 1.407 . S
C584 C585 1.449 . S
C584 C588 1.535 . S
C585 C584 1.449 . S
C585 C586 1.384 . S
C585 C610 1.553 . S
C586 C585 1.384 . S
C586 C587 1.364 . S
C586 C589 1.450 . S
C587 C582 1.367 . S
C587 C586 1.364 . S
C587 H647 0.931 . S
C588 C584 1.535 . S
C588 H648 0.959 . S
C588 H649 0.961 . S
C588 H650 0.959 . S
C589 C586 1.450 . S
C589 H651 0.960 . S
C589 H652 0.960 . S
C589 H653 0.960 . S
C590 C591 1.309 . S
C590 C595 1.304 . S
C590 O628 1.435 . S
C591 C590 1.309 . S
C591 C592 1.476 . S
C591 H655 0.930 . S
C592 C591 1.476 . S
C592 C593 1.400 . S
C592 C596 1.567 . S
C593 C592 1.400 . S
C593 C594 1.373 . S
C593 C615 1.432 . S
C594 C593 1.373 . S
C594 C595 1.339 . S
C594 C597 1.530 . S
C595 C590 1.304 . S
C595 C594 1.339 . S
C595 H656 0.930 . S
C596 C592 1.567 . S
C596 H657 0.961 . S
C596 H658 0.960 . S
C596 H659 0.958 . S
C597 C594 1.530 . S
C597 H660 0.961 . S
C597 H661 0.960 . S
C597 H662 0.960 . S
C598 C599 1.530 1_556 S
C598 H664 0.961 . S
C598 H665 0.961 1_556 S
C598 H666 0.959 . S
C599 C598 1.530 1_554 S
C599 O627 1.412 . S
C599 H663 0.980 . S
C600 C601 1.288 . S
C600 C605 1.377 . S
C600 O627 1.393 . S
C601 C600 1.288 . S
C601 C602 1.369 . S
C601 H667 0.932 . S
C602 C601 1.369 . S
C602 C603 1.398 . S
C602 C606 1.527 . S
C603 C602 1.398 . S
C603 C604 1.380 . S
C603 C617 1.497 . S
C604 C603 1.380 . S
C604 C605 1.383 . S
C604 C607 1.603 . S
C605 C600 1.377 . S
C605 C604 1.383 . S
C605 H668 0.929 . S
C606 C602 1.527 . S
C606 H669 0.961 . S
C606 H670 0.959 . S
C606 H671 0.959 . S
C607 C604 1.603 . S
C607 H672 0.960 . S
C607 H673 0.962 . S
C607 H674 0.961 . S
C608 C575 1.587 . S
C608 C609 1.360 . S
C608 C621 1.412 . S
C609 C608 1.360 . S
C609 C610 1.365 . S
C609 H675 0.929 . S
C610 C585 1.553 . S
C610 C609 1.365 . S
C610 C611 1.404 . S
C611 C610 1.404 . S
C611 C612 1.395 . S
C611 C622 1.451 . S
C612 C611 1.395 . S
C612 C613 1.322 . S
C612 H676 0.930 . S
C613 C612 1.322 . S
C613 C614 1.459 . S
C613 H677 0.929 . S
C614 C613 1.459 . S
C614 C615 1.445 . S
C614 C623 1.395 . S
C615 C593 1.432 . S
C615 C614 1.445 . S
C615 C616 1.370 . S
C616 C615 1.370 . S
C616 C617 1.438 . S
C616 H678 0.930 . S
C617 C603 1.497 . S
C617 C616 1.438 . S
C617 C618 1.360 . S
C618 C617 1.360 . S
C618 C619 1.401 . S
C618 C623 1.446 . S
C619 C618 1.401 . S
C619 C620 1.347 . S
C619 H679 0.929 . S
C620 C619 1.347 . S
C620 C621 1.455 . S
C620 H680 0.930 . S
C621 C608 1.412 . S
C621 C620 1.455 . S
C621 C622 1.331 . S
C622 C611 1.451 . S
C622 C621 1.331 . S
C622 C623 1.497 . S
C623 C614 1.395 . S
C623 C618 1.446 . S
C623 C622 1.497 . S
C624 C625 1.582 1_556 S
C624 H681 0.962 . S
C624 H682 0.959 1_556 S
C624 H683 0.958 . S
C625 C624 1.582 1_554 S
C625 O628 1.458 . S
C625 H654 0.980 . S
O626 C571 1.426 . S
O626 C572 1.334 . S
O627 C599 1.412 . S
O627 C600 1.393 . S
O628 C590 1.435 . S
O628 C625 1.458 . S
O629 C581 1.468 . S
O629 C582 1.408 . S
H630 C571 0.980 . S
H631 C570 0.959 . S
H632 C570 0.959 . S
H633 C570 0.960 . S
H634 C573 0.929 . S
H635 C577 0.929 . S
H636 C578 0.959 . S
H637 C578 0.961 . S
H638 C578 0.961 . S
H639 C579 0.960 . S
H640 C579 0.960 . S
H641 C579 0.961 . S
H642 C581 0.980 . S
H643 C580 0.961 . S
H644 C580 0.960 . S
H645 C580 0.959 . S
H646 C583 0.930 . S
H647 C587 0.931 . S
H648 C588 0.959 . S
H649 C588 0.961 . S
H650 C588 0.959 . S
H651 C589 0.960 . S
H652 C589 0.960 . S
H653 C589 0.960 . S
H654 C625 0.980 . S
H655 C591 0.930 . S
H656 C595 0.930 . S
H657 C596 0.961 . S
H658 C596 0.960 . S
H659 C596 0.958 . S
H660 C597 0.961 . S
H661 C597 0.960 . S
H662 C597 0.960 . S
H663 C599 0.980 . S
H664 C598 0.961 . S
H665 C598 0.961 1_554 S
H666 C598 0.959 . S
H667 C601 0.932 . S
H668 C605 0.929 . S
H669 C606 0.961 . S
H670 C606 0.959 . S
H671 C606 0.959 . S
H672 C607 0.960 . S
H673 C607 0.962 . S
H674 C607 0.961 . S
H675 C609 0.929 . S
H676 C612 0.930 . S
H677 C613 0.929 . S
H678 C616 0.930 . S
H679 C619 0.929 . S
H680 C620 0.930 . S
H681 C624 0.962 . S
H682 C624 0.959 1_554 S
H683 C624 0.958 . S
C684 O696 1.241 . S
C684 O697 1.280 . S
C685 O698 1.277 . S
C685 O699 1.245 . S
C686 O710 1.247 . S
C686 O712 1.289 . S
Mg687 O688 1.926 . S
Mg687 O697 1.984 1_455 S
Mg687 O699 1.988 . S
Mg687 O700 2.061 1_455 S
O688 Mg687 1.926 . S
O688 Mg689 1.986 . S
O688 Mg690 1.917 . S
Mg689 O688 1.986 . S
Mg689 O696 2.042 1_455 S
Mg689 O698 2.041 . S
Mg689 O704 2.038 1_455 S
Mg689 O712 2.238 . S
Mg690 O688 1.917 . S
Mg690 O691 1.917 . S
Mg690 O701 2.106 1_455 S
Mg690 O703 2.079 1_455 S
Mg690 O712 2.106 . S
Mg690 O713 2.079 . S
O691 Mg690 1.917 . S
O691 Mg692 1.926 . S
O691 Mg693 1.986 . S
Mg692 O691 1.926 . S
Mg692 O706 1.984 . S
Mg692 O709 1.988 1_455 S
Mg692 O710 2.061 . S
Mg693 O691 1.986 . S
Mg693 O701 2.238 1_455 S
Mg693 O705 2.042 . S
Mg693 O707 2.041 1_455 S
Mg693 O714 2.038 . S
C694 O700 1.247 . S
C694 O701 1.289 . S
C695 O713 1.245 . S
C695 O714 1.274 . S
O696 C684 1.241 . S
O696 Mg689 2.042 1_655 S
O697 C684 1.280 . S
O697 Mg687 1.984 1_655 S
O698 C685 1.277 . S
O698 Mg689 2.041 . S
O699 C685 1.245 . S
O699 Mg687 1.988 . S
O700 Mg687 2.061 1_655 S
O700 C694 1.247 . S
O701 Mg690 2.106 1_655 S
O701 Mg693 2.238 1_655 S
O701 C694 1.289 . S
C702 O703 1.245 . S
C702 O704 1.274 . S
O703 Mg690 2.079 1_655 S
O703 C702 1.245 . S
O704 Mg689 2.038 1_655 S
O704 C702 1.274 . S
O705 Mg693 2.042 . S
O705 C708 1.241 . S
O706 Mg692 1.984 . S
O706 C708 1.280 . S
O707 Mg693 2.041 1_655 S
O707 C711 1.277 . S
C708 O705 1.241 . S
C708 O706 1.280 . S
O709 Mg692 1.988 1_655 S
O709 C711 1.245 . S
O710 C686 1.247 . S
O710 Mg692 2.061 . S
C711 O707 1.277 . S
C711 O709 1.245 . S
O712 C686 1.289 . S
O712 Mg689 2.238 . S
O712 Mg690 2.106 . S
O713 Mg690 2.079 . S
O713 C695 1.245 . S
O714 Mg693 2.038 . S
O714 C695 1.274 . S
C715 O727 1.241 . S
C715 O728 1.280 . S
C716 O729 1.277 . S
C716 O730 1.245 . S
C717 O741 1.247 . S
C717 O743 1.289 . S
Mg718 O719 1.926 . S
Mg718 O728 1.984 . S
Mg718 O730 1.988 1_545 S
Mg718 O731 2.061 . S
O719 Mg718 1.926 . S
O719 Mg720 1.986 . S
O719 Mg721 1.917 . S
Mg720 O719 1.986 . S
Mg720 O727 2.042 . S
Mg720 O729 2.041 1_545 S
Mg720 O735 2.038 . S
Mg720 O743 2.238 1_545 S
Mg721 O719 1.917 . S
Mg721 O722 1.929 . S
Mg721 O732 2.106 . S
Mg721 O734 2.079 . S
Mg721 O743 2.106 1_545 S
Mg721 O744 2.079 1_545 S
O722 Mg721 1.929 . S
O722 Mg723 1.913 1_545 S
O722 Mg724 1.997 . S
Mg723 O722 1.913 1_565 S
Mg723 O737 1.984 . S
Mg723 O740 1.988 1_565 S
Mg723 O741 2.061 . S
Mg724 O722 1.997 . S
Mg724 O732 2.238 . S
Mg724 O736 2.042 1_545 S
Mg724 O738 2.041 . S
Mg724 O745 2.038 1_545 S
C725 O731 1.247 . S
C725 O732 1.289 . S
C726 O744 1.245 . S
C726 O745 1.274 . S
O727 C715 1.241 . S
O727 Mg720 2.042 . S
O728 C715 1.280 . S
O728 Mg718 1.984 . S
O729 C716 1.277 . S
O729 Mg720 2.041 1_565 S
O730 C716 1.245 . S
O730 Mg718 1.988 1_565 S
O731 Mg718 2.061 . S
O731 C725 1.247 . S
O732 Mg721 2.106 . S
O732 Mg724 2.238 . S
O732 C725 1.289 . S
C733 O734 1.245 . S
C733 O735 1.274 . S
O734 Mg721 2.079 . S
O734 C733 1.245 . S
O735 Mg720 2.038 . S
O735 C733 1.274 . S
O736 Mg724 2.042 1_565 S
O736 C739 1.241 . S
O737 Mg723 1.984 . S
O737 C739 1.280 . S
O738 Mg724 2.041 . S
O738 C742 1.277 . S
C739 O736 1.241 . S
C739 O737 1.280 . S
O740 Mg723 1.988 1_545 S
O740 C742 1.245 . S
O741 C717 1.247 . S
O741 Mg723 2.061 . S
C742 O738 1.277 . S
C742 O740 1.245 . S
O743 C717 1.289 . S
O743 Mg720 2.238 1_565 S
O743 Mg721 2.106 1_565 S
O744 Mg721 2.079 1_565 S
O744 C726 1.245 . S
O745 Mg724 2.038 1_565 S
O745 C726 1.274 . S
C746 O758 1.241 . S
C746 O759 1.280 . S
C747 O760 1.277 . S
C747 O761 1.245 . S
C748 O772 1.247 . S
C748 O774 1.289 . S
Mg749 O750 1.926 . S
Mg749 O759 1.984 . S
Mg749 O761 1.988 . S
Mg749 O762 2.061 . S
O750 Mg749 1.926 . S
O750 Mg751 1.986 . S
O750 Mg752 1.917 . S
Mg751 O750 1.986 . S
Mg751 O758 2.042 . S
Mg751 O760 2.041 . S
Mg751 O766 2.038 . S
Mg751 O774 2.238 . S
Mg752 O750 1.917 . S
Mg752 O753 1.917 . S
Mg752 O763 2.106 . S
Mg752 O765 2.079 . S
Mg752 O774 2.106 . S
Mg752 O775 2.079 . S
O753 Mg752 1.917 . S
O753 Mg754 1.926 . S
O753 Mg755 1.986 . S
Mg754 O753 1.926 . S
Mg754 O768 1.984 . S
Mg754 O771 1.988 . S
Mg754 O772 2.061 . S
Mg755 O753 1.986 . S
Mg755 O763 2.238 . S
Mg755 O767 2.042 . S
Mg755 O769 2.041 . S
Mg755 O776 2.038 . S
C756 O762 1.247 . S
C756 O763 1.289 . S
C757 O775 1.245 . S
C757 O776 1.274 . S
O758 C746 1.241 . S
O758 Mg751 2.042 . S
O759 C746 1.280 . S
O759 Mg749 1.984 . S
O760 C747 1.277 . S
O760 Mg751 2.041 . S
O761 C747 1.245 . S
O761 Mg749 1.988 . S
O762 Mg749 2.061 . S
O762 C756 1.247 . S
O763 Mg752 2.106 . S
O763 Mg755 2.238 . S
O763 C756 1.289 . S
C764 O765 1.245 . S
C764 O766 1.274 . S
O765 Mg752 2.079 . S
O765 C764 1.245 . S
O766 Mg751 2.038 . S
O766 C764 1.274 . S
O767 Mg755 2.042 . S
O767 C770 1.241 . S
O768 Mg754 1.984 . S
O768 C770 1.280 . S
O769 Mg755 2.041 . S
O769 C773 1.277 . S
C770 O767 1.241 . S
C770 O768 1.280 . S
O771 Mg754 1.988 . S
O771 C773 1.245 . S
O772 C748 1.247 . S
O772 Mg754 2.061 . S
C773 O769 1.277 . S
C773 O771 1.245 . S
O774 C748 1.289 . S
O774 Mg751 2.238 . S
O774 Mg752 2.106 . S
O775 Mg752 2.079 . S
O775 C757 1.245 . S
O776 Mg755 2.038 . S
O776 C757 1.274 . S
C777 C778 1.349 . S
C777 C779 1.327 . S
C777 H802 0.950 . S
C778 C777 1.349 . S
C778 C794 1.349 . S
C779 C777 1.327 . S
C779 C798 1.429 . S
C779 H803 0.950 . S
C780 C797 1.574 . S
C780 C799 1.368 . S
C780 H804 0.949 . S
H781 C785 0.949 . S
C782 C783 1.349 . S
C782 C784 1.327 . S
C782 H805 0.950 . S
C783 C782 1.349 . S
C783 C795 1.349 . S
C784 C782 1.327 . S
C784 C800 1.429 . S
C784 H806 0.950 . S
C785 H781 0.949 . S
C785 C793 1.574 . S
C785 C801 1.368 . S
H786 C794 0.950 . S
H787 C792 0.950 . S
H788 C793 0.949 . S
H789 C795 0.950 . S
H790 C796 0.950 . S
H791 C797 0.949 . S
C792 H787 0.950 . S
C792 C794 1.327 . S
C792 C798 1.429 . S
C793 C785 1.574 . S
C793 H788 0.949 . S
C793 C799 1.368 . S
C794 C778 1.349 . S
C794 H786 0.950 . S
C794 C792 1.327 . S
C795 C783 1.349 . S
C795 H789 0.950 . S
C795 C796 1.327 . S
C796 H790 0.950 . S
C796 C795 1.327 . S
C796 C800 1.429 . S
C797 C780 1.574 . S
C797 H791 0.949 . S
C797 C801 1.368 . S
C798 C779 1.429 . S
C798 C792 1.429 . S
C798 C799 1.523 . S
C799 C780 1.368 . S
C799 C793 1.368 . S
C799 C798 1.523 . S
C800 C784 1.429 . S
C800 C796 1.429 . S
C800 C801 1.523 . S
C801 C785 1.368 . S
C801 C797 1.368 . S
C801 C800 1.523 . S
H802 C777 0.950 . S
H803 C779 0.950 . S
H804 C780 0.949 . S
H805 C782 0.950 . S
H806 C784 0.950 . S
C807 C808 1.349 . S
C807 C809 1.327 . S
C807 H832 0.950 . S
C808 C807 1.349 . S
C808 C824 1.349 . S
C809 C807 1.327 . S
C809 C828 1.429 . S
C809 H833 0.950 . S
C810 C827 1.574 . S
C810 C829 1.368 . S
C810 H834 0.949 . S
H811 C815 0.949 . S
C812 C813 1.349 . S
C812 C814 1.327 . S
C812 H835 0.950 . S
C813 C812 1.349 . S
C813 C825 1.349 . S
C814 C812 1.327 . S
C814 C830 1.429 . S
C814 H836 0.950 . S
C815 H811 0.949 . S
C815 C823 1.574 . S
C815 C831 1.368 . S
H816 C824 0.950 . S
H817 C822 0.950 . S
H818 C823 0.949 . S
H819 C825 0.950 . S
H820 C826 0.950 . S
H821 C827 0.949 . S
C822 H817 0.950 . S
C822 C824 1.327 . S
C822 C828 1.429 . S
C823 C815 1.574 . S
C823 H818 0.949 . S
C823 C829 1.368 . S
C824 C808 1.349 . S
C824 H816 0.950 . S
C824 C822 1.327 . S
C825 C813 1.349 . S
C825 H819 0.950 . S
C825 C826 1.327 . S
C826 H820 0.950 . S
C826 C825 1.327 . S
C826 C830 1.429 . S
C827 C810 1.574 . S
C827 H821 0.949 . S
C827 C831 1.368 . S
C828 C809 1.429 . S
C828 C822 1.429 . S
C828 C829 1.523 . S
C829 C810 1.368 . S
C829 C823 1.368 . S
C829 C828 1.523 . S
C830 C814 1.429 . S
C830 C826 1.429 . S
C830 C831 1.523 . S
C831 C815 1.368 . S
C831 C827 1.368 . S
C831 C830 1.523 . S
H832 C807 0.950 . S
H833 C809 0.950 . S
H834 C810 0.949 . S
H835 C812 0.950 . S
H836 C814 0.950 . S
C837 C838 1.349 . S
C837 C839 1.327 . S
C837 H862 0.950 . S
C838 C837 1.349 . S
C838 C854 1.349 . S
C839 C837 1.327 . S
C839 C858 1.429 . S
C839 H863 0.950 . S
C840 C857 1.574 . S
C840 C859 1.368 . S
C840 H864 0.949 . S
H841 C845 0.949 . S
C842 C843 1.349 . S
C842 C844 1.327 . S
C842 H865 0.950 . S
C843 C842 1.349 . S
C843 C855 1.349 . S
C844 C842 1.327 . S
C844 C860 1.429 . S
C844 H866 0.950 . S
C845 H841 0.949 . S
C845 C853 1.574 . S
C845 C861 1.368 . S
H846 C854 0.950 . S
H847 C852 0.950 . S
H848 C853 0.949 . S
H849 C855 0.950 . S
H850 C856 0.950 . S
H851 C857 0.949 . S
C852 H847 0.950 . S
C852 C854 1.327 . S
C852 C858 1.429 . S
C853 C845 1.574 . S
C853 H848 0.949 . S
C853 C859 1.368 . S
C854 C838 1.349 . S
C854 H846 0.950 . S
C854 C852 1.327 . S
C855 C843 1.349 . S
C855 H849 0.950 . S
C855 C856 1.327 . S
C856 H850 0.950 . S
C856 C855 1.327 . S
C856 C860 1.429 . S
C857 C840 1.574 . S
C857 H851 0.949 . S
C857 C861 1.368 . S
C858 C839 1.429 . S
C858 C852 1.429 . S
C858 C859 1.523 . S
C859 C840 1.368 . S
C859 C853 1.368 . S
C859 C858 1.523 . S
C860 C844 1.429 . S
C860 C856 1.429 . S
C860 C861 1.523 . S
C861 C845 1.368 . S
C861 C857 1.368 . S
C861 C860 1.523 . S
H862 C837 0.950 . S
H863 C839 0.950 . S
H864 C840 0.949 . S
H865 C842 0.950 . S
H866 C844 0.950 . S
C867 C868 1.349 . S
C867 C869 1.327 . S
C867 H892 0.950 . S
C868 C867 1.349 . S
C868 C884 1.349 . S
C869 C867 1.327 . S
C869 C888 1.429 . S
C869 H893 0.950 . S
C870 C887 1.574 . S
C870 C889 1.368 . S
C870 H894 0.949 . S
H871 C875 0.949 . S
C872 C873 1.349 . S
C872 C874 1.327 . S
C872 H895 0.950 . S
C873 C872 1.349 . S
C873 C885 1.349 . S
C874 C872 1.327 . S
C874 C890 1.429 . S
C874 H896 0.950 . S
C875 H871 0.949 . S
C875 C883 1.574 . S
C875 C891 1.368 . S
H876 C884 0.950 . S
H877 C882 0.950 . S
H878 C883 0.949 . S
H879 C885 0.950 . S
H880 C886 0.950 . S
H881 C887 0.949 . S
C882 H877 0.950 . S
C882 C884 1.327 . S
C882 C888 1.429 . S
C883 C875 1.574 . S
C883 H878 0.949 . S
C883 C889 1.368 . S
C884 C868 1.349 . S
C884 H876 0.950 . S
C884 C882 1.327 . S
C885 C873 1.349 . S
C885 H879 0.950 . S
C885 C886 1.327 . S
C886 H880 0.950 . S
C886 C885 1.327 . S
C886 C890 1.429 . S
C887 C870 1.574 . S
C887 H881 0.949 . S
C887 C891 1.368 . S
C888 C869 1.429 . S
C888 C882 1.429 . S
C888 C889 1.523 . S
C889 C870 1.368 . S
C889 C883 1.368 . S
C889 C888 1.523 . S
C890 C874 1.429 . S
C890 C886 1.429 . S
C890 C891 1.523 . S
C891 C875 1.368 . S
C891 C887 1.368 . S
C891 C890 1.523 . S
H892 C867 0.950 . S
H893 C869 0.950 . S
H894 C870 0.949 . S
H895 C872 0.950 . S
H896 C874 0.950 . S
C897 C898 1.349 . S
C897 C899 1.327 . S
C897 H922 0.950 . S
C898 C897 1.349 . S
C898 C914 1.349 . S
C899 C897 1.327 . S
C899 C918 1.429 . S
C899 H923 0.950 . S
C900 C917 1.574 . S
C900 C919 1.368 . S
C900 H924 0.949 . S
H901 C905 0.949 . S
C902 C903 1.349 . S
C902 C904 1.327 . S
C902 H925 0.950 . S
C903 C902 1.349 . S
C903 C915 1.349 . S
C904 C902 1.327 . S
C904 C920 1.429 . S
C904 H926 0.950 . S
C905 H901 0.949 . S
C905 C913 1.574 . S
C905 C921 1.368 . S
H906 C914 0.950 . S
H907 C912 0.950 . S
H908 C913 0.949 . S
H909 C915 0.950 . S
H910 C916 0.950 . S
H911 C917 0.949 . S
C912 H907 0.950 . S
C912 C914 1.327 . S
C912 C918 1.429 . S
C913 C905 1.574 . S
C913 H908 0.949 . S
C913 C919 1.368 . S
C914 C898 1.349 . S
C914 H906 0.950 . S
C914 C912 1.327 . S
C915 C903 1.349 . S
C915 H909 0.950 . S
C915 C916 1.327 . S
C916 H910 0.950 . S
C916 C915 1.327 . S
C916 C920 1.429 . S
C917 C900 1.574 . S
C917 H911 0.949 . S
C917 C921 1.368 . S
C918 C899 1.429 . S
C918 C912 1.429 . S
C918 C919 1.523 . S
C919 C900 1.368 . S
C919 C913 1.368 . S
C919 C918 1.523 . S
C920 C904 1.429 . S
C920 C916 1.429 . S
C920 C921 1.523 . S
C921 C905 1.368 . S
C921 C917 1.368 . S
C921 C920 1.523 . S
H922 C897 0.950 . S
H923 C899 0.950 . S
H924 C900 0.949 . S
H925 C902 0.950 . S
H926 C904 0.950 . S
C927 C928 1.349 . S
C927 C929 1.327 . S
C927 H952 0.950 . S
C928 C927 1.349 . S
C928 C944 1.349 . S
C929 C927 1.327 . S
C929 C948 1.429 . S
C929 H953 0.950 . S
C930 C947 1.574 . S
C930 C949 1.368 . S
C930 H954 0.949 . S
H931 C935 0.949 . S
C932 C933 1.349 . S
C932 C934 1.327 . S
C932 H955 0.950 . S
C933 C932 1.349 . S
C933 C945 1.349 . S
C934 C932 1.327 . S
C934 C950 1.429 . S
C934 H956 0.950 . S
C935 H931 0.949 . S
C935 C943 1.574 . S
C935 C951 1.368 . S
H936 C944 0.950 . S
H937 C942 0.950 . S
H938 C943 0.949 . S
H939 C945 0.950 . S
H940 C946 0.950 . S
H941 C947 0.949 . S
C942 H937 0.950 . S
C942 C944 1.327 . S
C942 C948 1.429 . S
C943 C935 1.574 . S
C943 H938 0.949 . S
C943 C949 1.368 . S
C944 C928 1.349 . S
C944 H936 0.950 . S
C944 C942 1.327 . S
C945 C933 1.349 . S
C945 H939 0.950 . S
C945 C946 1.327 . S
C946 H940 0.950 . S
C946 C945 1.327 . S
C946 C950 1.429 . S
C947 C930 1.574 . S
C947 H941 0.949 . S
C947 C951 1.368 . S
C948 C929 1.429 . S
C948 C942 1.429 . S
C948 C949 1.523 . S
C949 C930 1.368 . S
C949 C943 1.368 . S
C949 C948 1.523 . S
C950 C934 1.429 . S
C950 C946 1.429 . S
C950 C951 1.523 . S
C951 C935 1.368 . S
C951 C947 1.368 . S
C951 C950 1.523 . S
H952 C927 0.950 . S
H953 C929 0.950 . S
H954 C930 0.949 . S
H955 C932 0.950 . S
H956 C934 0.950 . S
C957 C958 1.349 . S
C957 C959 1.327 . S
C957 H982 0.950 . S
C958 C957 1.349 . S
C958 C974 1.349 . S
C959 C957 1.327 . S
C959 C978 1.429 . S
C959 H983 0.950 . S
C960 C977 1.574 . S
C960 C979 1.368 . S
C960 H984 0.949 . S
H961 C965 0.949 . S
C962 C963 1.349 . S
C962 C964 1.327 . S
C962 H985 0.950 . S
C963 C962 1.349 . S
C963 C975 1.349 . S
C964 C962 1.327 . S
C964 C980 1.429 . S
C964 H986 0.950 . S
C965 H961 0.949 . S
C965 C973 1.574 . S
C965 C981 1.368 . S
H966 C974 0.950 . S
H967 C972 0.950 . S
H968 C973 0.949 . S
H969 C975 0.950 . S
H970 C976 0.950 . S
H971 C977 0.949 . S
C972 H967 0.950 . S
C972 C974 1.327 . S
C972 C978 1.429 . S
C973 C965 1.574 . S
C973 H968 0.949 . S
C973 C979 1.368 . S
C974 C958 1.349 . S
C974 H966 0.950 . S
C974 C972 1.327 . S
C975 C963 1.349 . S
C975 H969 0.950 . S
C975 C976 1.327 . S
C976 H970 0.950 . S
C976 C975 1.327 . S
C976 C980 1.429 . S
C977 C960 1.574 . S
C977 H971 0.949 . S
C977 C981 1.368 . S
C978 C959 1.429 . S
C978 C972 1.429 . S
C978 C979 1.523 . S
C979 C960 1.368 . S
C979 C973 1.368 . S
C979 C978 1.523 . S
C980 C964 1.429 . S
C980 C976 1.429 . S
C980 C981 1.523 . S
C981 C965 1.368 . S
C981 C977 1.368 . S
C981 C980 1.523 . S
H982 C957 0.950 . S
H983 C959 0.950 . S
H984 C960 0.949 . S
H985 C962 0.950 . S
H986 C964 0.950 . S
C987 C988 1.349 . S
C987 C989 1.327 . S
C987 H1012 0.950 . S
C988 C987 1.349 . S
C988 C1004 1.349 . S
C989 C987 1.327 . S
C989 C1008 1.429 . S
C989 H1013 0.950 . S
C990 C1007 1.574 . S
C990 C1009 1.368 . S
C990 H1014 0.949 . S
H991 C995 0.949 . S
C992 C993 1.349 . S
C992 C994 1.327 . S
C992 H1015 0.950 . S
C993 C992 1.349 . S
C993 C1005 1.349 . S
C994 C992 1.327 . S
C994 C1010 1.429 . S
C994 H1016 0.950 . S
C995 H991 0.949 . S
C995 C1003 1.574 . S
C995 C1011 1.368 . S
H996 C1004 0.950 . S
H997 C1002 0.950 . S
H998 C1003 0.949 . S
H999 C1005 0.950 . S
H1000 C1006 0.950 . S
H1001 C1007 0.949 . S
C1002 H997 0.950 . S
C1002 C1004 1.327 . S
C1002 C1008 1.429 . S
C1003 C995 1.574 . S
C1003 H998 0.949 . S
C1003 C1009 1.368 . S
C1004 C988 1.349 . S
C1004 H996 0.950 . S
C1004 C1002 1.327 . S
C1005 C993 1.349 . S
C1005 H999 0.950 . S
C1005 C1006 1.327 . S
C1006 H1000 0.950 . S
C1006 C1005 1.327 . S
C1006 C1010 1.429 . S
C1007 C990 1.574 . S
C1007 H1001 0.949 . S
C1007 C1011 1.368 . S
C1008 C989 1.429 . S
C1008 C1002 1.429 . S
C1008 C1009 1.523 . S
C1009 C990 1.368 . S
C1009 C1003 1.368 . S
C1009 C1008 1.523 . S
C1010 C994 1.429 . S
C1010 C1006 1.429 . S
C1010 C1011 1.523 . S
C1011 C995 1.368 . S
C1011 C1007 1.368 . S
C1011 C1010 1.523 . S
H1012 C987 0.950 . S
H1013 C989 0.950 . S
H1014 C990 0.949 . S
H1015 C992 0.950 . S
H1016 C994 0.950 . S
C1017 C1018 1.349 . S
C1017 C1019 1.327 . S
C1017 H1042 0.950 . S
C1018 C1017 1.349 . S
C1018 C1034 1.349 . S
C1019 C1017 1.327 . S
C1019 C1038 1.429 . S
C1019 H1043 0.950 . S
C1020 C1037 1.574 . S
C1020 C1039 1.368 . S
C1020 H1044 0.949 . S
H1021 C1025 0.949 . S
C1022 C1023 1.349 . S
C1022 C1024 1.327 . S
C1022 H1045 0.950 . S
C1023 C1022 1.349 . S
C1023 C1035 1.349 . S
C1024 C1022 1.327 . S
C1024 C1040 1.429 . S
C1024 H1046 0.950 . S
C1025 H1021 0.949 . S
C1025 C1033 1.574 . S
C1025 C1041 1.368 . S
H1026 C1034 0.950 . S
H1027 C1032 0.950 . S
H1028 C1033 0.949 . S
H1029 C1035 0.950 . S
H1030 C1036 0.950 . S
H1031 C1037 0.949 . S
C1032 H1027 0.950 . S
C1032 C1034 1.327 . S
C1032 C1038 1.429 . S
C1033 C1025 1.574 . S
C1033 H1028 0.949 . S
C1033 C1039 1.368 . S
C1034 C1018 1.349 . S
C1034 H1026 0.950 . S
C1034 C1032 1.327 . S
C1035 C1023 1.349 . S
C1035 H1029 0.950 . S
C1035 C1036 1.327 . S
C1036 H1030 0.950 . S
C1036 C1035 1.327 . S
C1036 C1040 1.429 . S
C1037 C1020 1.574 . S
C1037 H1031 0.949 . S
C1037 C1041 1.368 . S
C1038 C1019 1.429 . S
C1038 C1032 1.429 . S
C1038 C1039 1.523 . S
C1039 C1020 1.368 . S
C1039 C1033 1.368 . S
C1039 C1038 1.523 . S
C1040 C1024 1.429 . S
C1040 C1036 1.429 . S
C1040 C1041 1.523 . S
C1041 C1025 1.368 . S
C1041 C1037 1.368 . S
C1041 C1040 1.523 . S
H1042 C1017 0.950 . S
H1043 C1019 0.950 . S
H1044 C1020 0.949 . S
H1045 C1022 0.950 . S
H1046 C1024 0.950 . S
C1047 C1048 1.349 . S
C1047 C1049 1.327 . S
C1047 H1072 0.950 . S
C1048 C1047 1.349 . S
C1048 C1064 1.349 . S
C1049 C1047 1.327 . S
C1049 C1068 1.429 . S
C1049 H1073 0.950 . S
C1050 C1067 1.574 . S
C1050 C1069 1.368 . S
C1050 H1074 0.949 . S
H1051 C1055 0.949 . S
C1052 C1053 1.349 . S
C1052 C1054 1.327 . S
C1052 H1075 0.950 . S
C1053 C1052 1.349 . S
C1053 C1065 1.349 . S
C1054 C1052 1.327 . S
C1054 C1070 1.429 . S
C1054 H1076 0.950 . S
C1055 H1051 0.949 . S
C1055 C1063 1.574 . S
C1055 C1071 1.368 . S
H1056 C1064 0.950 . S
H1057 C1062 0.950 . S
H1058 C1063 0.949 . S
H1059 C1065 0.950 . S
H1060 C1066 0.950 . S
H1061 C1067 0.949 . S
C1062 H1057 0.950 . S
C1062 C1064 1.327 . S
C1062 C1068 1.429 . S
C1063 C1055 1.574 . S
C1063 H1058 0.949 . S
C1063 C1069 1.368 . S
C1064 C1048 1.349 . S
C1064 H1056 0.950 . S
C1064 C1062 1.327 . S
C1065 C1053 1.349 . S
C1065 H1059 0.950 . S
C1065 C1066 1.327 . S
C1066 H1060 0.950 . S
C1066 C1065 1.327 . S
C1066 C1070 1.429 . S
C1067 C1050 1.574 . S
C1067 H1061 0.949 . S
C1067 C1071 1.368 . S
C1068 C1049 1.429 . S
C1068 C1062 1.429 . S
C1068 C1069 1.523 . S
C1069 C1050 1.368 . S
C1069 C1063 1.368 . S
C1069 C1068 1.523 . S
C1070 C1054 1.429 . S
C1070 C1066 1.429 . S
C1070 C1071 1.523 . S
C1071 C1055 1.368 . S
C1071 C1067 1.368 . S
C1071 C1070 1.523 . S
H1072 C1047 0.950 . S
H1073 C1049 0.950 . S
H1074 C1050 0.949 . S
H1075 C1052 0.950 . S
H1076 C1054 0.950 . S
C1077 C1078 1.349 . S
C1077 C1079 1.327 . S
C1077 H1102 0.950 . S
C1078 C1077 1.349 . S
C1078 C1094 1.349 . S
C1079 C1077 1.327 . S
C1079 C1098 1.429 . S
C1079 H1103 0.950 . S
C1080 C1097 1.574 . S
C1080 C1099 1.368 . S
C1080 H1104 0.949 . S
H1081 C1085 0.949 . S
C1082 C1083 1.349 . S
C1082 C1084 1.327 . S
C1082 H1105 0.950 . S
C1083 C1082 1.349 . S
C1083 C1095 1.349 . S
C1084 C1082 1.327 . S
C1084 C1100 1.429 . S
C1084 H1106 0.950 . S
C1085 H1081 0.949 . S
C1085 C1093 1.574 . S
C1085 C1101 1.368 . S
H1086 C1094 0.950 . S
H1087 C1092 0.950 . S
H1088 C1093 0.949 . S
H1089 C1095 0.950 . S
H1090 C1096 0.950 . S
H1091 C1097 0.949 . S
C1092 H1087 0.950 . S
C1092 C1094 1.327 . S
C1092 C1098 1.429 . S
C1093 C1085 1.574 . S
C1093 H1088 0.949 . S
C1093 C1099 1.368 . S
C1094 C1078 1.349 . S
C1094 H1086 0.950 . S
C1094 C1092 1.327 . S
C1095 C1083 1.349 . S
C1095 H1089 0.950 . S
C1095 C1096 1.327 . S
C1096 H1090 0.950 . S
C1096 C1095 1.327 . S
C1096 C1100 1.429 . S
C1097 C1080 1.574 . S
C1097 H1091 0.949 . S
C1097 C1101 1.368 . S
C1098 C1079 1.429 . S
C1098 C1092 1.429 . S
C1098 C1099 1.523 . S
C1099 C1080 1.368 . S
C1099 C1093 1.368 . S
C1099 C1098 1.523 . S
C1100 C1084 1.429 . S
C1100 C1096 1.429 . S
C1100 C1101 1.523 . S
C1101 C1085 1.368 . S
C1101 C1097 1.368 . S
C1101 C1100 1.523 . S
H1102 C1077 0.950 . S
H1103 C1079 0.950 . S
H1104 C1080 0.949 . S
H1105 C1082 0.950 . S
H1106 C1084 0.950 . S
C1107 C1108 1.349 . S
C1107 C1109 1.327 . S
C1107 H1132 0.950 . S
C1108 C1107 1.349 . S
C1108 C1124 1.349 . S
C1109 C1107 1.327 . S
C1109 C1128 1.429 . S
C1109 H1133 0.950 . S
C1110 C1127 1.574 . S
C1110 C1129 1.368 . S
C1110 H1134 0.949 . S
H1111 C1115 0.949 . S
C1112 C1113 1.349 . S
C1112 C1114 1.327 . S
C1112 H1135 0.950 . S
C1113 C1112 1.349 . S
C1113 C1125 1.349 . S
C1114 C1112 1.327 . S
C1114 C1130 1.429 . S
C1114 H1136 0.950 . S
C1115 H1111 0.949 . S
C1115 C1123 1.574 . S
C1115 C1131 1.368 . S
H1116 C1124 0.950 . S
H1117 C1122 0.950 . S
H1118 C1123 0.949 . S
H1119 C1125 0.950 . S
H1120 C1126 0.950 . S
H1121 C1127 0.949 . S
C1122 H1117 0.950 . S
C1122 C1124 1.327 . S
C1122 C1128 1.429 . S
C1123 C1115 1.574 . S
C1123 H1118 0.949 . S
C1123 C1129 1.368 . S
C1124 C1108 1.349 . S
C1124 H1116 0.950 . S
C1124 C1122 1.327 . S
C1125 C1113 1.349 . S
C1125 H1119 0.950 . S
C1125 C1126 1.327 . S
C1126 H1120 0.950 . S
C1126 C1125 1.327 . S
C1126 C1130 1.429 . S
C1127 C1110 1.574 . S
C1127 H1121 0.949 . S
C1127 C1131 1.368 . S
C1128 C1109 1.429 . S
C1128 C1122 1.429 . S
C1128 C1129 1.523 . S
C1129 C1110 1.368 . S
C1129 C1123 1.368 . S
C1129 C1128 1.523 . S
C1130 C1114 1.429 . S
C1130 C1126 1.429 . S
C1130 C1131 1.523 . S
C1131 C1115 1.368 . S
C1131 C1127 1.368 . S
C1131 C1130 1.523 . S
H1132 C1107 0.950 . S
H1133 C1109 0.950 . S
H1134 C1110 0.949 . S
H1135 C1112 0.950 . S
H1136 C1114 0.950 . S
C1137 C1138 1.349 . S
C1137 C1139 1.327 . S
C1137 H1162 0.950 . S
C1138 C1137 1.349 . S
C1138 C1154 1.349 . S
C1139 C1137 1.327 . S
C1139 C1158 1.429 . S
C1139 H1163 0.950 . S
C1140 C1157 1.574 . S
C1140 C1159 1.368 . S
C1140 H1164 0.949 . S
H1141 C1145 0.949 . S
C1142 C1143 1.349 . S
C1142 C1144 1.327 . S
C1142 H1165 0.950 . S
C1143 C1142 1.349 . S
C1143 C1155 1.349 . S
C1144 C1142 1.327 . S
C1144 C1160 1.429 . S
C1144 H1166 0.950 . S
C1145 H1141 0.949 . S
C1145 C1153 1.574 . S
C1145 C1161 1.368 . S
H1146 C1154 0.950 . S
H1147 C1152 0.950 . S
H1148 C1153 0.949 . S
H1149 C1155 0.950 . S
H1150 C1156 0.950 . S
H1151 C1157 0.949 . S
C1152 H1147 0.950 . S
C1152 C1154 1.327 . S
C1152 C1158 1.429 . S
C1153 C1145 1.574 . S
C1153 H1148 0.949 . S
C1153 C1159 1.368 . S
C1154 C1138 1.349 . S
C1154 H1146 0.950 . S
C1154 C1152 1.327 . S
C1155 C1143 1.349 . S
C1155 H1149 0.950 . S
C1155 C1156 1.327 . S
C1156 H1150 0.950 . S
C1156 C1155 1.327 . S
C1156 C1160 1.429 . S
C1157 C1140 1.574 . S
C1157 H1151 0.949 . S
C1157 C1161 1.368 . S
C1158 C1139 1.429 . S
C1158 C1152 1.429 . S
C1158 C1159 1.523 . S
C1159 C1140 1.368 . S
C1159 C1153 1.368 . S
C1159 C1158 1.523 . S
C1160 C1144 1.429 . S
C1160 C1156 1.429 . S
C1160 C1161 1.523 . S
C1161 C1145 1.368 . S
C1161 C1157 1.368 . S
C1161 C1160 1.523 . S
H1162 C1137 0.950 . S
H1163 C1139 0.950 . S
H1164 C1140 0.949 . S
H1165 C1142 0.950 . S
H1166 C1144 0.950 . S
C1167 C1168 1.349 . S
C1167 C1169 1.327 . S
C1167 H1192 0.950 . S
C1168 C1167 1.349 . S
C1168 C1184 1.349 . S
C1169 C1167 1.327 . S
C1169 C1188 1.429 . S
C1169 H1193 0.950 . S
C1170 C1187 1.574 . S
C1170 C1189 1.368 . S
C1170 H1194 0.949 . S
H1171 C1175 0.949 . S
C1172 C1173 1.349 . S
C1172 C1174 1.327 . S
C1172 H1195 0.950 . S
C1173 C1172 1.349 . S
C1173 C1185 1.349 . S
C1174 C1172 1.327 . S
C1174 C1190 1.429 . S
C1174 H1196 0.950 . S
C1175 H1171 0.949 . S
C1175 C1183 1.574 . S
C1175 C1191 1.368 . S
H1176 C1184 0.950 . S
H1177 C1182 0.950 . S
H1178 C1183 0.949 . S
H1179 C1185 0.950 . S
H1180 C1186 0.950 . S
H1181 C1187 0.949 . S
C1182 H1177 0.950 . S
C1182 C1184 1.327 . S
C1182 C1188 1.429 . S
C1183 C1175 1.574 . S
C1183 H1178 0.949 . S
C1183 C1189 1.368 . S
C1184 C1168 1.349 . S
C1184 H1176 0.950 . S
C1184 C1182 1.327 . S
C1185 C1173 1.349 . S
C1185 H1179 0.950 . S
C1185 C1186 1.327 . S
C1186 H1180 0.950 . S
C1186 C1185 1.327 . S
C1186 C1190 1.429 . S
C1187 C1170 1.574 . S
C1187 H1181 0.949 . S
C1187 C1191 1.368 . S
C1188 C1169 1.429 . S
C1188 C1182 1.429 . S
C1188 C1189 1.523 . S
C1189 C1170 1.368 . S
C1189 C1183 1.368 . S
C1189 C1188 1.523 . S
C1190 C1174 1.429 . S
C1190 C1186 1.429 . S
C1190 C1191 1.523 . S
C1191 C1175 1.368 . S
C1191 C1187 1.368 . S
C1191 C1190 1.523 . S
H1192 C1167 0.950 . S
H1193 C1169 0.950 . S
H1194 C1170 0.949 . S
H1195 C1172 0.950 . S
H1196 C1174 0.950 . S
C1197 C1198 1.349 . S
C1197 C1199 1.327 . S
C1197 H1222 0.950 . S
C1198 C1197 1.349 . S
C1198 C1214 1.349 . S
C1199 C1197 1.327 . S
C1199 C1218 1.429 . S
C1199 H1223 0.950 . S
C1200 C1217 1.574 . S
C1200 C1219 1.368 . S
C1200 H1224 0.949 . S
H1201 C1205 0.949 . S
C1202 C1203 1.349 . S
C1202 C1204 1.327 . S
C1202 H1225 0.950 . S
C1203 C1202 1.349 . S
C1203 C1215 1.349 . S
C1204 C1202 1.327 . S
C1204 C1220 1.429 . S
C1204 H1226 0.950 . S
C1205 H1201 0.949 . S
C1205 C1213 1.574 . S
C1205 C1221 1.368 . S
H1206 C1214 0.950 1_554 S
H1207 C1212 0.950 . S
H1208 C1213 0.949 . S
H1209 C1215 0.950 . S
H1210 C1216 0.950 . S
H1211 C1217 0.949 . S
C1212 H1207 0.950 . S
C1212 C1214 1.327 . S
C1212 C1218 1.429 . S
C1213 C1205 1.574 . S
C1213 H1208 0.949 . S
C1213 C1219 1.368 . S
C1214 C1198 1.349 . S
C1214 H1206 0.950 1_556 S
C1214 C1212 1.327 . S
C1215 C1203 1.349 . S
C1215 H1209 0.950 . S
C1215 C1216 1.327 . S
C1216 H1210 0.950 . S
C1216 C1215 1.327 . S
C1216 C1220 1.429 . S
C1217 C1200 1.574 . S
C1217 H1211 0.949 . S
C1217 C1221 1.368 . S
C1218 C1199 1.429 . S
C1218 C1212 1.429 . S
C1218 C1219 1.523 . S
C1219 C1200 1.368 . S
C1219 C1213 1.368 . S
C1219 C1218 1.523 . S
C1220 C1204 1.429 . S
C1220 C1216 1.429 . S
C1220 C1221 1.523 . S
C1221 C1205 1.368 . S
C1221 C1217 1.368 . S
C1221 C1220 1.523 . S
H1222 C1197 0.950 . S
H1223 C1199 0.950 . S
H1224 C1200 0.949 . S
H1225 C1202 0.950 . S
H1226 C1204 0.950 . S
C1227 C1228 1.349 . S
C1227 C1229 1.327 . S
C1227 H1252 0.950 . S
C1228 C1227 1.349 . S
C1228 C1244 1.349 . S
C1229 C1227 1.327 . S
C1229 C1248 1.429 . S
C1229 H1253 0.950 . S
C1230 C1247 1.574 . S
C1230 C1249 1.368 . S
C1230 H1254 0.949 . S
H1231 C1235 0.949 . S
C1232 C1233 1.349 . S
C1232 C1234 1.327 . S
C1232 H1255 0.950 . S
C1233 C1232 1.349 . S
C1233 C1245 1.349 . S
C1234 C1232 1.327 . S
C1234 C1250 1.429 . S
C1234 H1256 0.950 . S
C1235 H1231 0.949 . S
C1235 C1243 1.574 . S
C1235 C1251 1.368 . S
H1236 C1244 0.950 . S
H1237 C1242 0.950 . S
H1238 C1243 0.949 . S
H1239 C1245 0.950 . S
H1240 C1246 0.950 . S
H1241 C1247 0.949 . S
C1242 H1237 0.950 . S
C1242 C1244 1.327 . S
C1242 C1248 1.429 . S
C1243 C1235 1.574 . S
C1243 H1238 0.949 . S
C1243 C1249 1.368 . S
C1244 C1228 1.349 . S
C1244 H1236 0.950 . S
C1244 C1242 1.327 . S
C1245 C1233 1.349 . S
C1245 H1239 0.950 . S
C1245 C1246 1.327 . S
C1246 H1240 0.950 . S
C1246 C1245 1.327 . S
C1246 C1250 1.429 . S
C1247 C1230 1.574 . S
C1247 H1241 0.949 . S
C1247 C1251 1.368 . S
C1248 C1229 1.429 . S
C1248 C1242 1.429 . S
C1248 C1249 1.523 . S
C1249 C1230 1.368 . S
C1249 C1243 1.368 . S
C1249 C1248 1.523 . S
C1250 C1234 1.429 . S
C1250 C1246 1.429 . S
C1250 C1251 1.523 . S
C1251 C1235 1.368 . S
C1251 C1247 1.368 . S
C1251 C1250 1.523 . S
H1252 C1227 0.950 . S
H1253 C1229 0.950 . S
H1254 C1230 0.949 . S
H1255 C1232 0.950 . S
H1256 C1234 0.950 . S
C1257 C1258 1.349 . S
C1257 C1259 1.327 . S
C1257 H1282 0.950 . S
C1258 C1257 1.349 . S
C1258 C1274 1.349 . S
C1259 C1257 1.327 . S
C1259 C1278 1.429 . S
C1259 H1283 0.950 . S
C1260 C1277 1.574 . S
C1260 C1279 1.368 . S
C1260 H1284 0.949 . S
H1261 C1265 0.949 . S
C1262 C1263 1.349 . S
C1262 C1264 1.327 . S
C1262 H1285 0.950 . S
C1263 C1262 1.349 . S
C1263 C1275 1.349 . S
C1264 C1262 1.327 . S
C1264 C1280 1.429 . S
C1264 H1286 0.950 . S
C1265 H1261 0.949 . S
C1265 C1273 1.574 . S
C1265 C1281 1.368 . S
H1266 C1274 0.950 . S
H1267 C1272 0.950 . S
H1268 C1273 0.949 . S
H1269 C1275 0.950 . S
H1270 C1276 0.950 . S
H1271 C1277 0.949 . S
C1272 H1267 0.950 . S
C1272 C1274 1.327 . S
C1272 C1278 1.429 . S
C1273 C1265 1.574 . S
C1273 H1268 0.949 . S
C1273 C1279 1.368 . S
C1274 C1258 1.349 . S
C1274 H1266 0.950 . S
C1274 C1272 1.327 . S
C1275 C1263 1.349 . S
C1275 H1269 0.950 . S
C1275 C1276 1.327 . S
C1276 H1270 0.950 . S
C1276 C1275 1.327 . S
C1276 C1280 1.429 . S
C1277 C1260 1.574 . S
C1277 H1271 0.949 . S
C1277 C1281 1.368 . S
C1278 C1259 1.429 . S
C1278 C1272 1.429 . S
C1278 C1279 1.523 . S
C1279 C1260 1.368 . S
C1279 C1273 1.368 . S
C1279 C1278 1.523 . S
C1280 C1264 1.429 . S
C1280 C1276 1.429 . S
C1280 C1281 1.523 . S
C1281 C1265 1.368 . S
C1281 C1277 1.368 . S
C1281 C1280 1.523 . S
H1282 C1257 0.950 . S
H1283 C1259 0.950 . S
H1284 C1260 0.949 . S
H1285 C1262 0.950 . S
H1286 C1264 0.950 . S
C1287 C1288 1.349 . S
C1287 C1289 1.327 . S
C1287 H1312 0.950 . S
C1288 C1287 1.349 . S
C1288 C1304 1.349 . S
C1289 C1287 1.327 . S
C1289 C1308 1.429 . S
C1289 H1313 0.950 . S
C1290 C1307 1.574 . S
C1290 C1309 1.368 . S
C1290 H1314 0.949 . S
H1291 C1295 0.949 . S
C1292 C1293 1.349 . S
C1292 C1294 1.327 . S
C1292 H1315 0.950 . S
C1293 C1292 1.349 . S
C1293 C1305 1.349 . S
C1294 C1292 1.327 . S
C1294 C1310 1.429 . S
C1294 H1316 0.950 . S
C1295 H1291 0.949 . S
C1295 C1303 1.574 . S
C1295 C1311 1.368 . S
H1296 C1304 0.950 . S
H1297 C1302 0.950 . S
H1298 C1303 0.949 . S
H1299 C1305 0.950 . S
H1300 C1306 0.950 . S
H1301 C1307 0.949 . S
C1302 H1297 0.950 . S
C1302 C1304 1.327 . S
C1302 C1308 1.429 . S
C1303 C1295 1.574 . S
C1303 H1298 0.949 . S
C1303 C1309 1.368 . S
C1304 C1288 1.349 . S
C1304 H1296 0.950 . S
C1304 C1302 1.327 . S
C1305 C1293 1.349 . S
C1305 H1299 0.950 . S
C1305 C1306 1.327 . S
C1306 H1300 0.950 . S
C1306 C1305 1.327 . S
C1306 C1310 1.429 . S
C1307 C1290 1.574 . S
C1307 H1301 0.949 . S
C1307 C1311 1.368 . S
C1308 C1289 1.429 . S
C1308 C1302 1.429 . S
C1308 C1309 1.523 . S
C1309 C1290 1.368 . S
C1309 C1303 1.368 . S
C1309 C1308 1.523 . S
C1310 C1294 1.429 . S
C1310 C1306 1.429 . S
C1310 C1311 1.523 . S
C1311 C1295 1.368 . S
C1311 C1307 1.368 . S
C1311 C1310 1.523 . S
H1312 C1287 0.950 . S
H1313 C1289 0.950 . S
H1314 C1290 0.949 . S
H1315 C1292 0.950 . S
H1316 C1294 0.950 . S
C1317 C1318 1.349 . S
C1317 C1319 1.327 . S
C1317 H1342 0.950 . S
C1318 C1317 1.349 . S
C1318 C1334 1.349 . S
C1319 C1317 1.327 . S
C1319 C1338 1.429 . S
C1319 H1343 0.950 . S
C1320 C1337 1.574 . S
C1320 C1339 1.368 . S
C1320 H1344 0.949 . S
H1321 C1325 0.949 . S
C1322 C1323 1.349 . S
C1322 C1324 1.327 . S
C1322 H1345 0.950 . S
C1323 C1322 1.349 . S
C1323 C1335 1.349 . S
C1324 C1322 1.327 . S
C1324 C1340 1.429 . S
C1324 H1346 0.950 . S
C1325 H1321 0.949 . S
C1325 C1333 1.574 . S
C1325 C1341 1.368 . S
H1326 C1334 0.950 . S
H1327 C1332 0.950 . S
H1328 C1333 0.949 . S
H1329 C1335 0.950 . S
H1330 C1336 0.950 . S
H1331 C1337 0.949 . S
C1332 H1327 0.950 . S
C1332 C1334 1.327 . S
C1332 C1338 1.429 . S
C1333 C1325 1.574 . S
C1333 H1328 0.949 . S
C1333 C1339 1.368 . S
C1334 C1318 1.349 . S
C1334 H1326 0.950 . S
C1334 C1332 1.327 . S
C1335 C1323 1.349 . S
C1335 H1329 0.950 . S
C1335 C1336 1.327 . S
C1336 H1330 0.950 . S
C1336 C1335 1.327 . S
C1336 C1340 1.429 . S
C1337 C1320 1.574 . S
C1337 H1331 0.949 . S
C1337 C1341 1.368 . S
C1338 C1319 1.429 . S
C1338 C1332 1.429 . S
C1338 C1339 1.523 . S
C1339 C1320 1.368 . S
C1339 C1333 1.368 . S
C1339 C1338 1.523 . S
C1340 C1324 1.429 . S
C1340 C1336 1.429 . S
C1340 C1341 1.523 . S
C1341 C1325 1.368 . S
C1341 C1337 1.368 . S
C1341 C1340 1.523 . S
H1342 C1317 0.950 . S
H1343 C1319 0.950 . S
H1344 C1320 0.949 . S
H1345 C1322 0.950 . S
H1346 C1324 0.950 . S
C1347 C1348 1.349 . S
C1347 C1349 1.327 . S
C1347 H1372 0.950 . S
C1348 C1347 1.349 . S
C1348 C1364 1.349 . S
C1349 C1347 1.327 . S
C1349 C1368 1.429 . S
C1349 H1373 0.950 . S
C1350 C1367 1.574 . S
C1350 C1369 1.368 . S
C1350 H1374 0.949 . S
H1351 C1355 0.949 . S
C1352 C1353 1.349 . S
C1352 C1354 1.327 . S
C1352 H1375 0.950 . S
C1353 C1352 1.349 . S
C1353 C1365 1.349 . S
C1354 C1352 1.327 . S
C1354 C1370 1.429 . S
C1354 H1376 0.950 . S
C1355 H1351 0.949 . S
C1355 C1363 1.574 . S
C1355 C1371 1.368 . S
H1356 C1364 0.950 . S
H1357 C1362 0.950 . S
H1358 C1363 0.949 . S
H1359 C1365 0.950 . S
H1360 C1366 0.950 . S
H1361 C1367 0.949 . S
C1362 H1357 0.950 . S
C1362 C1364 1.327 . S
C1362 C1368 1.429 . S
C1363 C1355 1.574 . S
C1363 H1358 0.949 . S
C1363 C1369 1.368 . S
C1364 C1348 1.349 . S
C1364 H1356 0.950 . S
C1364 C1362 1.327 . S
C1365 C1353 1.349 . S
C1365 H1359 0.950 . S
C1365 C1366 1.327 . S
C1366 H1360 0.950 . S
C1366 C1365 1.327 . S
C1366 C1370 1.429 . S
C1367 C1350 1.574 . S
C1367 H1361 0.949 . S
C1367 C1371 1.368 . S
C1368 C1349 1.429 . S
C1368 C1362 1.429 . S
C1368 C1369 1.523 . S
C1369 C1350 1.368 . S
C1369 C1363 1.368 . S
C1369 C1368 1.523 . S
C1370 C1354 1.429 . S
C1370 C1366 1.429 . S
C1370 C1371 1.523 . S
C1371 C1355 1.368 . S
C1371 C1367 1.368 . S
C1371 C1370 1.523 . S
H1372 C1347 0.950 . S
H1373 C1349 0.950 . S
H1374 C1350 0.949 . S
H1375 C1352 0.950 . S
H1376 C1354 0.950 . S
C1377 C1378 1.349 . S
C1377 C1379 1.327 . S
C1377 H1402 0.950 . S
C1378 C1377 1.349 . S
C1378 C1394 1.349 . S
C1379 C1377 1.327 . S
C1379 C1398 1.429 . S
C1379 H1403 0.950 . S
C1380 C1397 1.574 . S
C1380 C1399 1.368 . S
C1380 H1404 0.949 . S
H1381 C1385 0.949 . S
C1382 C1383 1.349 . S
C1382 C1384 1.327 . S
C1382 H1405 0.950 . S
C1383 C1382 1.349 . S
C1383 C1395 1.349 . S
C1384 C1382 1.327 . S
C1384 C1400 1.429 . S
C1384 H1406 0.950 . S
C1385 H1381 0.949 . S
C1385 C1393 1.574 . S
C1385 C1401 1.368 . S
H1386 C1394 0.950 . S
H1387 C1392 0.950 . S
H1388 C1393 0.949 . S
H1389 C1395 0.950 . S
H1390 C1396 0.950 . S
H1391 C1397 0.949 . S
C1392 H1387 0.950 . S
C1392 C1394 1.327 . S
C1392 C1398 1.429 . S
C1393 C1385 1.574 . S
C1393 H1388 0.949 . S
C1393 C1399 1.368 . S
C1394 C1378 1.349 . S
C1394 H1386 0.950 . S
C1394 C1392 1.327 . S
C1395 C1383 1.349 . S
C1395 H1389 0.950 . S
C1395 C1396 1.327 . S
C1396 H1390 0.950 . S
C1396 C1395 1.327 . S
C1396 C1400 1.429 . S
C1397 C1380 1.574 . S
C1397 H1391 0.949 . S
C1397 C1401 1.368 . S
C1398 C1379 1.429 . S
C1398 C1392 1.429 . S
C1398 C1399 1.523 . S
C1399 C1380 1.368 . S
C1399 C1393 1.368 . S
C1399 C1398 1.523 . S
C1400 C1384 1.429 . S
C1400 C1396 1.429 . S
C1400 C1401 1.523 . S
C1401 C1385 1.368 . S
C1401 C1397 1.368 . S
C1401 C1400 1.523 . S
H1402 C1377 0.950 . S
H1403 C1379 0.950 . S
H1404 C1380 0.949 . S
H1405 C1382 0.950 . S
H1406 C1384 0.950 . S
C1407 C1408 1.349 . S
C1407 C1409 1.327 . S
C1407 H1432 0.950 . S
C1408 C1407 1.349 . S
C1408 C1424 1.349 . S
C1409 C1407 1.327 . S
C1409 C1428 1.429 . S
C1409 H1433 0.950 . S
C1410 C1427 1.574 . S
C1410 C1429 1.368 . S
C1410 H1434 0.949 . S
H1411 C1415 0.949 . S
C1412 C1413 1.349 . S
C1412 C1414 1.327 . S
C1412 H1435 0.950 . S
C1413 C1412 1.349 . S
C1413 C1425 1.349 . S
C1414 C1412 1.327 . S
C1414 C1430 1.429 . S
C1414 H1436 0.950 . S
C1415 H1411 0.949 . S
C1415 C1423 1.574 . S
C1415 C1431 1.368 . S
H1416 C1424 0.950 . S
H1417 C1422 0.950 . S
H1418 C1423 0.949 . S
H1419 C1425 0.950 . S
H1420 C1426 0.950 . S
H1421 C1427 0.949 . S
C1422 H1417 0.950 . S
C1422 C1424 1.327 . S
C1422 C1428 1.429 . S
C1423 C1415 1.574 . S
C1423 H1418 0.949 . S
C1423 C1429 1.368 . S
C1424 C1408 1.349 . S
C1424 H1416 0.950 . S
C1424 C1422 1.327 . S
C1425 C1413 1.349 . S
C1425 H1419 0.950 . S
C1425 C1426 1.327 . S
C1426 H1420 0.950 . S
C1426 C1425 1.327 . S
C1426 C1430 1.429 . S
C1427 C1410 1.574 . S
C1427 H1421 0.949 . S
C1427 C1431 1.368 . S
C1428 C1409 1.429 . S
C1428 C1422 1.429 . S
C1428 C1429 1.523 . S
C1429 C1410 1.368 . S
C1429 C1423 1.368 . S
C1429 C1428 1.523 . S
C1430 C1414 1.429 . S
C1430 C1426 1.429 . S
C1430 C1431 1.523 . S
C1431 C1415 1.368 . S
C1431 C1427 1.368 . S
C1431 C1430 1.523 . S
H1432 C1407 0.950 . S
H1433 C1409 0.950 . S
H1434 C1410 0.949 . S
H1435 C1412 0.950 . S
H1436 C1414 0.950 . S
C1437 C1438 1.349 . S
C1437 C1439 1.327 . S
C1437 H1462 0.950 . S
C1438 C1437 1.349 . S
C1438 C1454 1.349 . S
C1439 C1437 1.327 . S
C1439 C1458 1.429 . S
C1439 H1463 0.950 . S
C1440 C1457 1.574 . S
C1440 C1459 1.368 . S
C1440 H1464 0.949 . S
H1441 C1445 0.949 . S
C1442 C1443 1.349 . S
C1442 C1444 1.327 . S
C1442 H1465 0.950 . S
C1443 C1442 1.349 . S
C1443 C1455 1.349 . S
C1444 C1442 1.327 . S
C1444 C1460 1.429 . S
C1444 H1466 0.950 . S
C1445 H1441 0.949 . S
C1445 C1453 1.574 . S
C1445 C1461 1.368 . S
H1446 C1454 0.950 . S
H1447 C1452 0.950 . S
H1448 C1453 0.949 . S
H1449 C1455 0.950 . S
H1450 C1456 0.950 . S
H1451 C1457 0.949 . S
C1452 H1447 0.950 . S
C1452 C1454 1.327 . S
C1452 C1458 1.429 . S
C1453 C1445 1.574 . S
C1453 H1448 0.949 . S
C1453 C1459 1.368 . S
C1454 C1438 1.349 . S
C1454 H1446 0.950 . S
C1454 C1452 1.327 . S
C1455 C1443 1.349 . S
C1455 H1449 0.950 . S
C1455 C1456 1.327 . S
C1456 H1450 0.950 . S
C1456 C1455 1.327 . S
C1456 C1460 1.429 . S
C1457 C1440 1.574 . S
C1457 H1451 0.949 . S
C1457 C1461 1.368 . S
C1458 C1439 1.429 . S
C1458 C1452 1.429 . S
C1458 C1459 1.523 . S
C1459 C1440 1.368 . S
C1459 C1453 1.368 . S
C1459 C1458 1.523 . S
C1460 C1444 1.429 . S
C1460 C1456 1.429 . S
C1460 C1461 1.523 . S
C1461 C1445 1.368 . S
C1461 C1457 1.368 . S
C1461 C1460 1.523 . S
H1462 C1437 0.950 . S
H1463 C1439 0.950 . S
H1464 C1440 0.949 . S
H1465 C1442 0.950 . S
H1466 C1444 0.950 . S
C1467 C1468 1.349 . S
C1467 C1469 1.327 . S
C1467 H1492 0.950 . S
C1468 C1467 1.349 . S
C1468 C1484 1.349 . S
C1469 C1467 1.327 . S
C1469 C1488 1.429 . S
C1469 H1493 0.950 . S
C1470 C1487 1.574 . S
C1470 C1489 1.368 . S
C1470 H1494 0.949 . S
H1471 C1475 0.949 . S
C1472 C1473 1.349 . S
C1472 C1474 1.327 . S
C1472 H1495 0.950 . S
C1473 C1472 1.349 . S
C1473 C1485 1.349 . S
C1474 C1472 1.327 . S
C1474 C1490 1.429 . S
C1474 H1496 0.950 . S
C1475 H1471 0.949 . S
C1475 C1483 1.574 . S
C1475 C1491 1.368 . S
H1476 C1484 0.950 . S
H1477 C1482 0.950 . S
H1478 C1483 0.949 . S
H1479 C1485 0.950 . S
H1480 C1486 0.950 . S
H1481 C1487 0.949 . S
C1482 H1477 0.950 . S
C1482 C1484 1.327 . S
C1482 C1488 1.429 . S
C1483 C1475 1.574 . S
C1483 H1478 0.949 . S
C1483 C1489 1.368 . S
C1484 C1468 1.349 . S
C1484 H1476 0.950 . S
C1484 C1482 1.327 . S
C1485 C1473 1.349 . S
C1485 H1479 0.950 . S
C1485 C1486 1.327 . S
C1486 H1480 0.950 . S
C1486 C1485 1.327 . S
C1486 C1490 1.429 . S
C1487 C1470 1.574 . S
C1487 H1481 0.949 . S
C1487 C1491 1.368 . S
C1488 C1469 1.429 . S
C1488 C1482 1.429 . S
C1488 C1489 1.523 . S
C1489 C1470 1.368 . S
C1489 C1483 1.368 . S
C1489 C1488 1.523 . S
C1490 C1474 1.429 . S
C1490 C1486 1.429 . S
C1490 C1491 1.523 . S
C1491 C1475 1.368 . S
C1491 C1487 1.368 . S
C1491 C1490 1.523 . S
H1492 C1467 0.950 . S
H1493 C1469 0.950 . S
H1494 C1470 0.949 . S
H1495 C1472 0.950 . S
H1496 C1474 0.950 . S
C778 C11 1.480 . S
C783 C695 1.900 . S
C808 C125 1.232 . S
C813 C742 1.704 . S
C843 C746 2.031 . S
C838 C239 1.447 . S
C873 C711 1.455 . S
C868 C343 1.234 . S
C898 C485 1.389 . S
C903 C726 1.786 . S
C933 C748 0.682 . S
C928 C571 0.706 . S
C963 C717 1.301 . S
C958 C257 0.964 . S
C988 C397 0.914 . S
C993 C757 1.430 . S
C1023 C686 1.301 . S
C1018 C467 0.978 . S
C1048 C625 1.126 1_556 S
C1053 C715 1.571 . S
C1078 C29 1.675 . S
C1083 C773 2.075 . S
C1113 C684 1.556 . S
C1108 C143 1.180 . S
C1143 C702 1.791 . S
C1138 C371 1.570 . S
C1173 C716 1.455 . S
C1168 C457 1.157 . S
C1203 C770 1.879 . S
C1198 C599 1.661 1_556 S
C1233 C685 1.616 . S
C1228 C55 1.320 . S
C1263 C733 1.789 . S
C1258 C169 1.540 . S
C1288 C283 0.757 . S
C1293 C756 0.788 . S
C1323 C725 1.237 . S
C1318 C581 0.817 . S
C1353 C764 1.113 . S
C1348 C1 0.910 . S
C1383 C694 1.020 . S
C1378 C115 0.850 . S
C1413 C739 1.261 . S
C1408 C229 0.981 . S
C1438 C353 1.306 . S
C1443 C747 2.071 . S
C1468 C511 1.271 . S
C1473 C708 1.564 . S
