# Generated by pormake.
# Topology anh, (6,3)-cn, num edge types: 1
# Building blocks:
#     Node 0, Type 0, BuildingBlock: PAMTOO_clean_sbu_0, # of connection points: 6
#     Node 1, Type 0, BuildingBlock: PAMTOO_clean_sbu_0, # of connection points: 6
#     Node 2, Type 0, BuildingBlock: PAMTOO_clean_sbu_0, # of connection points: 6
#     Node 3, Type 1, BuildingBlock: PAMTOO_clean_linker_0, # of connection points: 3
#     Node 4, Type 1, BuildingBlock: PAMTOO_clean_linker_0, # of connection points: 3
#     Node 5, Type 1, BuildingBlock: PAMTOO_clean_linker_0, # of connection points: 3
#     Node 6, Type 1, BuildingBlock: PAMTOO_clean_linker_0, # of connection points: 3
#     Node 7, Type 1, BuildingBlock: PAMTOO_clean_linker_0, # of connection points: 3
#     Node 8, Type 1, BuildingBlock: PAMTOO_clean_linker_0, # of connection points: 3
#     Edge 9, Type (0, 1), BuildingBlock: MIFKUJ_clean_linker_0, # of connection points: 2
#     Edge 10, Type (0, 1), BuildingBlock: MIFKUJ_clean_linker_0, # of connection points: 2
#     Edge 11, Type (0, 1), BuildingBlock: MIFKUJ_clean_linker_0, # of connection points: 2
#     Edge 12, Type (0, 1), BuildingBlock: MIFKUJ_clean_linker_0, # of connection points: 2
#     Edge 13, Type (0, 1), BuildingBlock: MIFKUJ_clean_linker_0, # of connection points: 2
#     Edge 14, Type (0, 1), BuildingBlock: MIFKUJ_clean_linker_0, # of connection points: 2
#     Edge 15, Type (0, 1), BuildingBlock: MIFKUJ_clean_linker_0, # of connection points: 2
#     Edge 16, Type (0, 1), BuildingBlock: MIFKUJ_clean_linker_0, # of connection points: 2
#     Edge 17, Type (0, 1), BuildingBlock: MIFKUJ_clean_linker_0, # of connection points: 2
#     Edge 18, Type (0, 1), BuildingBlock: MIFKUJ_clean_linker_0, # of connection points: 2
#     Edge 19, Type (0, 1), BuildingBlock: MIFKUJ_clean_linker_0, # of connection points: 2
#     Edge 20, Type (0, 1), BuildingBlock: MIFKUJ_clean_linker_0, # of connection points: 2
#     Edge 21, Type (0, 1), BuildingBlock: MIFKUJ_clean_linker_0, # of connection points: 2
#     Edge 22, Type (0, 1), BuildingBlock: MIFKUJ_clean_linker_0, # of connection points: 2
#     Edge 23, Type (0, 1), BuildingBlock: MIFKUJ_clean_linker_0, # of connection points: 2
#     Edge 24, Type (0, 1), BuildingBlock: MIFKUJ_clean_linker_0, # of connection points: 2
#     Edge 25, Type (0, 1), BuildingBlock: MIFKUJ_clean_linker_0, # of connection points: 2
#     Edge 26, Type (0, 1), BuildingBlock: MIFKUJ_clean_linker_0, # of connection points: 2
# Relax obj value: 0.129
# Max RMSD: 0.148
# Mean RMSD: 0.113
data_MOF--net-anh--node1-PAMTOO_clean_sbu_0--node2-PAMTOO_clean_linker_0--edge1-MIFKUJ_clean_linker_0
_symmetry_space_group_name_H-M    P1
_symmetry_Int_Tables_number       1
_symmetry_cell_setting            triclinic
loop_
_symmetry_equiv_pos_as_xyz
'x, y, z'
_cell_length_a     38.97239
_cell_length_b     38.170136
_cell_length_c     64.004138
_cell_angle_alpha  87.423198
_cell_angle_beta   95.508478
_cell_angle_gamma 104.84102
loop_
_atom_site_label
_atom_site_type_symbol
_atom_site_fract_x
_atom_site_fract_y
_atom_site_fract_z
_atom_type_partial_charge
Dy0 Dy 0.10943 0.57873 0.14447 0.0
Dy1 Dy 0.08687 0.48967 0.1435 0.0
C2 C 0.09191 0.53821 0.10248 0.0
O3 O 1.05121 0.56546 0.14974 0.0
O4 O 1.03438 0.50494 0.14122 0.0
O5 O 0.12879 0.62874 0.12741 0.0
O6 O 0.11768 0.62993 0.15986 0.0
O7 O 0.08288 0.50399 0.1764 0.0
O8 O 0.12368 0.55913 0.17664 0.0
O9 O 0.14668 0.50381 0.14944 0.0
O10 O 0.15929 0.56316 0.13776 0.0
O11 O 0.0879 0.43656 0.15625 0.0
O12 O 1.05956 0.44214 0.12588 0.0
C13 C 1.02644 0.53512 0.14589 0.0
O14 O 0.08146 0.56107 0.11337 0.0
O15 O 0.10357 0.51204 0.11216 0.0
C16 C 0.16769 0.67445 0.14841 0.0
C17 C 0.2354 0.72309 0.1567 0.0
C18 C 0.22373 0.71019 0.13635 0.0
C19 C 0.19026 0.68628 0.13223 0.0
C20 C 0.17922 0.68753 0.16874 0.0
C21 C 0.21274 0.7115 0.17286 0.0
C22 C 0.13247 0.64853 0.14397 0.0
C23 C 0.10472 0.53108 0.18658 0.0
C24 C 0.16956 0.53355 0.14345 0.0
C25 C 1.03484 0.3914 0.14679 0.0
C26 C 0.97329 0.33779 0.15641 0.0
C27 C 0.99018 0.36489 0.1709 0.0
C28 C 1.02054 0.39156 0.16609 0.0
C29 C 1.0183 0.36432 0.13239 0.0
C30 C 0.98779 0.33785 0.1371 0.0
C31 C 1.06597 0.41993 0.14097 0.0
H32 H 0.24066 0.71826 0.12359 0.0
H33 H 0.18218 0.67693 0.11635 0.0
H34 H 0.16236 0.67926 0.18152 0.0
H35 H 0.22071 0.72137 0.18864 0.0
H36 H 0.98011 0.36543 0.18604 0.0
H37 H 1.03267 0.41236 0.17743 0.0
H38 H 1.02874 0.36394 0.11733 0.0
H39 H 0.97522 0.31784 0.12541 0.0
Dy40 Dy 0.6154 0.01861 0.51009 0.0
Dy41 Dy 0.70277 0.04284 0.51921 0.0
C42 C 0.65135 0.02091 0.55632 0.0
O43 O 0.63031 0.07696 0.5192 0.0
O44 O 0.68625 0.09266 0.5078 0.0
O45 O 0.56225 0.01143 0.51967 0.0
O46 O 0.56989 1.00091 0.48768 0.0
O47 O 0.6914 0.02978 0.48517 0.0
O48 O 0.63737 0.04327 0.48047 0.0
O49 O 0.6877 0.98323 0.52592 0.0
O50 O 0.63402 0.96873 0.50583 0.0
O51 O 0.75609 0.04287 0.51242 0.0
O52 O 0.74812 0.07258 0.53877 0.0
C53 C 0.65816 0.10169 0.51337 0.0
O54 O 0.62647 1.00162 0.54324 0.0
O55 O 0.67918 0.04424 0.54952 0.0
C56 C 0.51829 0.96552 0.50142 0.0
C57 C 0.46468 0.90011 0.49836 0.0
C58 C 0.4936 0.90385 0.51376 0.0
C59 C 0.5204 0.93628 0.51518 0.0
C60 C 0.48917 0.96203 0.48635 0.0
C61 C 0.46263 0.92963 0.48479 0.0
C62 C 0.54701 0.99905 0.50149 0.0
C63 C 0.66512 0.03696 0.4728 0.0
C64 C 0.66134 0.95933 0.51609 0.0
C65 C 0.79833 0.0985 0.52068 0.0
C66 C 0.84835 0.16288 0.51021 0.0
C67 C 0.82341 0.14385 0.49469 0.0
C68 C 0.79842 0.11203 0.49991 0.0
C69 C 0.82343 0.11726 0.53613 0.0
C70 C 0.84815 0.14925 0.53097 0.0
C71 C 0.77107 0.06629 0.52689 0.0
H72 H 0.49593 0.88142 0.52431 0.0
H73 H 0.54296 0.93835 0.52677 0.0
H74 H 0.48723 0.98427 0.47554 0.0
H75 H 0.44043 0.92767 0.47296 0.0
H76 H 0.82279 0.15397 0.47861 0.0
H77 H 0.77895 0.09833 0.48776 0.0
H78 H 0.82362 0.10737 0.55226 0.0
H79 H 0.86729 0.16319 0.54319 0.0
Dy80 Dy 0.66527 0.50066 0.83445 0.0
Dy81 Dy 0.57875 0.47842 0.8215 0.0
C82 C 0.63318 0.48721 0.787 0.0
O83 O 0.64618 0.54947 0.8404 0.0
O84 O 0.59902 0.53793 0.81551 0.0
O85 O 0.71636 0.53868 0.83217 0.0
O86 O 0.71232 0.48935 0.85106 0.0
O87 O 0.58506 0.49481 0.85507 0.0
O88 O 0.64082 0.48656 0.86471 0.0
O89 O 0.59176 0.42607 0.83117 0.0
O90 O 0.65141 0.44217 0.82594 0.0
O91 O 0.52416 0.45748 0.82896 0.0
O92 O 0.53562 0.47814 0.79769 0.0
C93 C 0.62221 0.56057 0.82793 0.0
O94 O 0.65698 0.50861 0.79976 0.0
O95 O 0.60408 0.46612 0.79382 0.0
C96 C 0.76641 0.51312 0.83533 0.0
C97 C 0.83411 0.5115 0.82395 0.0
C98 C 0.81174 0.52771 0.81042 0.0
C99 C 0.77815 0.52857 0.81607 0.0
C100 C 0.78796 0.4952 0.84823 0.0
C101 C 0.82137 0.49424 0.84256 0.0
C102 C 0.73358 0.51798 0.84319 0.0
C103 C 0.61026 0.49101 0.8695 0.0
C104 C 0.62177 0.41742 0.82897 0.0
C105 C 0.48816 0.49268 0.81186 0.0
C106 C 0.44498 0.5414 0.81259 0.0
C107 C 0.48189 0.55299 0.81785 0.0
C108 C 0.50324 0.5288 0.81758 0.0
C109 C 0.45136 0.48084 0.8067 0.0
C110 C 0.42983 0.50502 0.80715 0.0
C111 C 0.51131 0.46806 0.81089 0.0
H112 H 0.82093 0.54142 0.79604 0.0
H113 H 0.76205 0.54251 0.80575 0.0
H114 H 0.7795 0.48303 0.86312 0.0
H115 H 0.83782 0.48108 0.85315 0.0
H116 H 0.49421 0.58066 0.82245 0.0
H117 H 0.5316 0.53833 0.82178 0.0
H118 H 0.43935 0.45304 0.80223 0.0
H119 H 0.40145 0.49544 0.80298 0.0
H120 H 0.69423 0.07268 0.24908 0.0
H121 H 0.59949 0.98478 0.24201 0.0
H122 H 0.64289 0.04282 0.18758 0.0
H123 H 0.56388 0.02038 0.18175 0.0
C124 C 0.55996 1.00181 0.19571 0.0
O125 O 0.59098 0.99116 0.20116 0.0
H126 H 0.55344 0.0168 0.2087 0.0
C127 C 0.67316 0.05533 0.23915 0.0
C128 C 0.67182 0.06101 0.21731 0.0
C129 C 0.64745 0.02773 0.2483 0.0
C130 C 0.6198 0.00603 0.2353 0.0
C131 C 0.61821 0.01156 0.21347 0.0
C132 C 0.64446 0.03863 0.20447 0.0
H133 H 0.66225 0.59223 0.57089 0.0
H134 H 0.67331 0.48705 0.55604 0.0
H135 H 0.67101 0.56714 0.50696 0.0
H136 H 0.6482 0.48574 0.48801 0.0
C137 C 0.64845 0.47752 0.50489 0.0
O138 O 0.67675 0.50089 0.51585 0.0
H139 H 0.62244 0.47922 0.51012 0.0
C140 C 0.66497 0.57331 0.55939 0.0
C141 C 0.66579 0.584 0.53811 0.0
C142 C 0.66774 0.53853 0.56605 0.0
C143 C 0.67109 0.514 0.55117 0.0
C144 C 0.67248 0.52444 0.52994 0.0
C145 C 0.67008 0.55944 0.52343 0.0
H146 H 0.1527 0.63151 0.88539 0.0
H147 H 0.20709 0.73685 0.90893 0.0
H148 H 0.18359 0.7219 0.84252 0.0
H149 H 0.26166 0.78391 0.88981 0.0
C150 C 0.2511 0.78187 0.87301 0.0
O151 O 0.21444 0.7683 0.87172 0.0
H152 H 0.25722 0.80994 0.86636 0.0
C153 C 0.1664 0.6596 0.8825 0.0
C154 C 0.16653 0.67381 0.86189 0.0
C155 C 0.18073 0.68209 0.89958 0.0
C156 C 0.19606 0.71906 0.8959 0.0
C157 C 0.1981 0.73305 0.8753 0.0
C158 C 0.1831 0.71054 0.85835 0.0
H159 H 0.08484 0.46525 0.4118 0.0
H160 H 0.17087 0.5619 0.41889 0.0
H161 H 0.12933 0.50303 0.47335 0.0
H162 H 0.15134 0.5823 0.48125 0.0
C163 C 0.1654 0.59012 0.46677 0.0
O164 O 0.17468 0.5604 0.45979 0.0
H165 H 0.1469 0.59966 0.45481 0.0
C166 C 0.10425 0.48439 0.4217 0.0
C167 C 0.10451 0.47998 0.44363 0.0
C168 C 0.12815 0.51362 0.41243 0.0
C169 C 0.15194 0.53923 0.42552 0.0
C170 C 0.15186 0.53552 0.44739 0.0
C171 C 0.12847 0.50588 0.4564 0.0
H172 H 0.61486 0.9254 0.77318 0.0
H173 H 0.63401 0.03768 0.78854 0.0
H174 H 0.63083 0.95719 0.83787 0.0
H175 H 0.61639 0.03135 0.85558 0.0
C176 C 0.61325 0.03685 0.83842 0.0
O177 O 0.63974 0.02662 0.82916 0.0
H178 H 0.58635 0.02043 0.8325 0.0
C179 C 0.61895 0.9461 0.78488 0.0
C180 C 0.62154 0.93644 0.80631 0.0
C181 C 0.62345 0.98242 0.77828 0.0
C182 C 0.63043 0.00948 0.79336 0.0
C183 C 0.63284 1.00028 0.81477 0.0
C184 C 0.62874 0.96391 0.82125 0.0
H185 H 0.6632 0.52841 0.08893 0.0
H186 H 0.55847 0.5403 0.09645 0.0
H187 H 0.63104 0.53499 0.15094 0.0
H188 H 0.54551 0.50493 0.15957 0.0
C189 C 0.53832 0.51337 0.14323 0.0
O190 O 0.5658 0.54191 0.13711 0.0
H191 H 0.53529 0.4893 0.13333 0.0
C192 C 0.64341 0.53101 0.09915 0.0
C193 C 0.65173 0.53095 0.12102 0.0
C194 C 0.61007 0.53425 0.0901 0.0
C195 C 0.58425 0.53753 0.10319 0.0
C196 C 0.59145 0.5377 0.12507 0.0
C197 C 0.62541 0.5347 0.13405 0.0
H198 H 0.2235 0.5864 0.12732 0.0
H199 H 0.2861 0.58647 0.12629 0.0
H200 H 0.26615 0.48144 0.15727 0.0
H201 H 0.20335 0.48084 0.15791 0.0
H202 H 0.3078 0.48161 0.12813 0.0
H203 H 0.37218 0.6349 0.13867 0.0
H204 H 0.36012 0.68744 0.15498 0.0
H205 H 0.29748 0.61642 0.1988 0.0
H206 H 0.30957 0.56352 0.18301 0.0
H207 H 0.48978 0.51276 0.10882 0.0
H208 H 0.42891 0.52035 0.1078 0.0
H209 H 0.44495 0.54312 0.17391 0.0
H210 H 0.50593 0.53602 0.17481 0.0
H211 H 0.40559 0.58458 0.15498 0.0
H212 H 0.40057 0.45762 0.15529 0.0
H213 H 0.4121 0.40196 0.14264 0.0
H214 H 0.35505 0.41541 0.08326 0.0
H215 H 0.34358 0.47144 0.09547 0.0
C216 C 0.23235 0.56329 0.13398 0.0
C217 C 0.20805 0.53367 0.14281 0.0
C218 C 0.26841 0.56343 0.13345 0.0
C219 C 0.28147 0.53418 0.14197 0.0
C220 C 0.25713 0.50444 0.15057 0.0
C221 C 0.22103 0.50417 0.15099 0.0
C222 C 0.32023 0.53433 0.14188 0.0
C223 C 0.32906 0.5043 0.13393 0.0
C224 C 0.34848 0.56353 0.14968 0.0
C225 C 0.34149 0.59522 0.1595 0.0
C226 C 0.35594 0.63051 0.15183 0.0
C227 C 0.34908 0.66035 0.16097 0.0
C228 C 0.32795 0.65526 0.17784 0.0
C229 C 0.31373 0.62032 0.18567 0.0
C230 C 0.32056 0.5904 0.17663 0.0
C231 C 0.48047 0.51996 0.12304 0.0
C232 C 0.50264 0.52342 0.14193 0.0
C233 C 0.4455 0.52404 0.12251 0.0
C234 C 0.43167 0.53162 0.14088 0.0
C235 C 0.45458 0.53711 0.1595 0.0
C236 C 0.48955 0.53304 0.16002 0.0
C237 C 0.39306 0.53206 0.14097 0.0
C238 C 0.38428 0.56212 0.14897 0.0
C239 C 0.36478 0.5026 0.13358 0.0
C240 C 0.37155 0.4689 0.12622 0.0
C241 C 0.39071 0.44884 0.13948 0.0
C242 C 0.3972 0.41721 0.1324 0.0
C243 C 0.3844 0.40522 0.11214 0.0
C244 C 0.365 0.42477 0.09893 0.0
C245 C 0.35848 0.45645 0.10593 0.0
H246 H 0.38944 0.38072 0.10669 0.0
H247 H 0.32271 0.67839 0.18488 0.0
H248 H 0.88975 0.17531 0.47729 0.0
H249 H 0.93417 0.23093 0.46882 0.0
H250 H 0.9107 0.28257 0.52238 0.0
H251 H 0.86609 0.22695 0.53091 0.0
H252 H 0.91568 0.32636 0.48582 0.0
H253 H 0.9835 0.2551 0.52649 0.0
H254 H 1.00413 0.20022 0.53632 0.0
H255 H 1.04548 0.20305 0.47628 0.0
H256 H 1.0246 0.25767 0.46595 0.0
H257 H 1.06568 0.47794 0.47747 0.0
H258 H 1.02345 0.42542 0.49177 0.0
H259 H 1.04454 0.358 0.44472 0.0
H260 H 0.08764 0.40988 0.43092 0.0
H261 H 1.0415 0.32375 0.48166 0.0
H262 H 0.96997 0.39147 0.43982 0.0
H263 H 0.94839 0.4455 0.42913 0.0
H264 H 0.9133 0.44871 0.49043 0.0
H265 H 0.93514 0.39494 0.50158 0.0
C266 C 0.89391 0.1986 0.48717 0.0
C267 C 0.87461 0.19682 0.5048 0.0
C268 C 0.9194 0.23024 0.4824 0.0
C269 C 0.92592 0.26067 0.49511 0.0
C270 C 0.90614 0.25928 0.51245 0.0
C271 C 0.88087 0.2275 0.51736 0.0
C272 C 0.9536 0.29382 0.49026 0.0
C273 C 0.94333 0.32603 0.48525 0.0
C274 C 0.98948 0.29308 0.4892 0.0
C275 C 1.0022 0.26031 0.49538 0.0
C276 C 0.99673 0.24385 0.51531 0.0
C277 C 1.00851 0.21282 0.52099 0.0
C278 C 1.02603 0.19811 0.50692 0.0
C279 C 1.03187 0.21445 0.48716 0.0
C280 C 1.0201 0.24547 0.48139 0.0
C281 C 1.06164 0.45182 0.47036 0.0
C282 C 0.07979 0.44813 0.45294 0.0
C283 C 1.03726 0.42191 0.47842 0.0
C284 C 1.03047 0.38789 0.46912 0.0
C285 C 1.04923 0.38401 0.45209 0.0
C286 C 0.07362 0.41378 0.44409 0.0
C287 C 1.00352 0.35625 0.47681 0.0
C288 C 1.01393 0.32426 0.48241 0.0
C289 C 0.96774 0.35717 0.47829 0.0
C290 C 0.95457 0.38946 0.4716 0.0
C291 C 0.95792 0.40388 0.45107 0.0
C292 C 0.9456 0.43442 0.44492 0.0
C293 C 0.92959 0.4506 0.45911 0.0
C294 C 0.92578 0.4362 0.47947 0.0
C295 C 0.93811 0.40568 0.48571 0.0
H296 H 0.92005 0.47424 0.45432 0.0
H297 H 1.03515 0.17408 0.51135 0.0
H298 H 0.66229 0.61503 0.85323 0.0
H299 H 0.66095 0.6789 0.852 0.0
H300 H 0.57889 0.65747 0.80062 0.0
H301 H 0.57999 0.59376 0.8017 0.0
H302 H 0.63161 0.71757 0.7929 0.0
H303 H 0.55778 0.67008 0.848 0.0
H304 H 0.53993 0.63917 0.88122 0.0
H305 H 0.62573 0.71453 0.91532 0.0
H306 H 0.64403 0.74611 0.88214 0.0
H307 H 0.57301 0.87694 0.78997 0.0
H308 H 0.57276 0.81332 0.79634 0.0
H309 H 0.66141 0.84428 0.84326 0.0
H310 H 0.66232 0.90834 0.83669 0.0
H311 H 0.60756 0.78046 0.85401 0.0
H312 H 0.67993 0.82877 0.79748 0.0
H313 H 0.69214 0.86172 0.76387 0.0
H314 H 0.60557 0.7839 0.73209 0.0
H315 H 0.59243 0.75083 0.76559 0.0
C316 C 0.64393 0.62388 0.84168 0.0
C317 C 0.62135 0.59924 0.82752 0.0
C318 C 0.6431 0.66038 0.84106 0.0
C319 C 0.61975 0.67293 0.82625 0.0
C320 C 0.5972 0.64841 0.81212 0.0
C321 C 0.59783 0.61193 0.81281 0.0
C322 C 0.61921 0.71176 0.82516 0.0
C323 C 0.62604 0.73118 0.80622 0.0
C324 C 0.61262 0.72977 0.84265 0.0
C325 C 0.60255 0.71018 0.86256 0.0
C326 C 0.57319 0.67976 0.86254 0.0
C327 C 0.56287 0.66222 0.8814 0.0
C328 C 0.58183 0.6747 0.90041 0.0
C329 C 0.61111 0.70485 0.90058 0.0
C330 C 0.62138 0.72267 0.88175 0.0
C331 C 0.59238 0.87027 0.80174 0.0
C332 C 0.61807 0.89776 0.81259 0.0
C333 C 0.5921 0.83389 0.8054 0.0
C334 C 0.61742 0.82419 0.82002 0.0
C335 C 0.6417 0.85128 0.83186 0.0
C336 C 0.64211 0.88784 0.82814 0.0
C337 C 0.61989 0.78603 0.82179 0.0
C338 C 0.61345 0.76682 0.8408 0.0
C339 C 0.62668 0.76811 0.80434 0.0
C340 C 0.635 0.7875 0.78409 0.0
C341 C 0.66334 0.81882 0.78335 0.0
C342 C 0.67044 0.83751 0.76432 0.0
C343 C 0.64959 0.82496 0.74587 0.0
C344 C 0.62168 0.79361 0.7464 0.0
C345 C 0.6144 0.77487 0.76541 0.0
H346 H 0.65511 0.83949 0.73115 0.0
H347 H 0.57375 0.66116 0.91503 0.0
H348 H 0.99588 0.59285 0.14091 0.0
H349 H 0.93251 0.59192 0.13991 0.0
H350 H 0.90618 0.47642 0.15122 0.0
H351 H 0.96937 0.47695 0.15168 0.0
H352 H 0.86902 0.51767 0.17607 0.0
H353 H 0.86491 0.60298 0.10038 0.0
H354 H 0.89672 0.61845 0.06834 0.0
H355 H 0.92425 0.51624 0.07288 0.0
H356 H 0.89217 0.49997 0.10473 0.0
H357 H 0.69945 0.56978 0.15202 0.0
H358 H 0.76277 0.57012 0.15995 0.0
H359 H 0.75051 0.48547 0.11545 0.0
H360 H 0.68765 0.48404 0.1081 0.0
H361 H 0.8076 0.54576 0.10829 0.0
H362 H 0.76118 0.46562 0.16524 0.0
H363 H 0.72916 0.44877 0.19707 0.0
H364 H 0.80156 0.53763 0.22974 0.0
H365 H 0.83372 0.55532 0.19798 0.0
C366 C 0.97669 0.56724 0.14332 0.0
C367 C 0.98795 0.53496 0.1463 0.0
C368 C 0.94037 0.56676 0.14274 0.0
C369 C 0.91436 0.53412 0.14555 0.0
C370 C 0.9256 0.502 0.14911 0.0
C371 C 0.96182 0.50234 0.14925 0.0
C372 C 0.87539 0.53318 0.14363 0.0
C373 C 0.85567 0.52405 0.16128 0.0
C374 C 0.85762 0.54128 0.12437 0.0
C375 C 0.87653 0.5505 0.10507 0.0
C376 C 0.87768 0.58379 0.09449 0.0
C377 C 0.89575 0.59269 0.07637 0.0
C378 C 0.91262 0.5684 0.06863 0.0
C379 C 0.91132 0.5351 0.07894 0.0
C380 C 0.89324 0.52605 0.09705 0.0
C381 C 0.71003 0.55059 0.14436 0.0
C382 C 0.68829 0.52724 0.12919 0.0
C383 C 0.74638 0.551 0.14877 0.0
C384 C 0.76179 0.52819 0.13805 0.0
C385 C 0.73964 0.50373 0.12374 0.0
C386 C 0.70351 0.50297 0.11956 0.0
C387 C 0.80109 0.53052 0.14076 0.0
C388 C 0.82095 0.53987 0.12319 0.0
C389 C 0.81888 0.52267 0.16009 0.0
C390 C 0.79959 0.51204 0.17916 0.0
C391 C 0.77006 0.48178 0.17914 0.0
C392 C 0.75193 0.47202 0.19719 0.0
C393 C 0.76325 0.49218 0.2154 0.0
C394 C 0.79278 0.52208 0.21561 0.0
C395 C 0.81098 0.53197 0.1976 0.0
H396 H 0.74919 0.48458 0.22935 0.0
H397 H 0.92662 0.57535 0.05461 0.0
H398 H 0.43713 0.86424 0.46228 0.0
H399 H 0.38843 0.80948 0.458 0.0
H400 H 0.38025 0.80315 0.52489 0.0
H401 H 0.42954 0.85783 0.52929 0.0
H402 H 0.37228 0.73687 0.50936 0.0
H403 H 0.32276 0.83836 0.49188 0.0
H404 H 0.31864 0.89551 0.47349 0.0
H405 H 0.30246 0.84281 0.41417 0.0
H406 H 0.30699 0.78545 0.43219 0.0
H407 H 0.19695 0.61884 0.50463 0.0
H408 H 0.24979 0.6695 0.51082 0.0
H409 H 0.26103 0.67954 0.44422 0.0
H410 H 0.20772 0.62929 0.43802 0.0
H411 H 0.2673 0.74403 0.46053 0.0
H412 H 0.31664 0.64218 0.47829 0.0
H413 H 0.32084 0.58525 0.49691 0.0
H414 H 0.33675 0.63858 0.55602 0.0
H415 H 0.33216 0.69574 0.53776 0.0
C416 C 0.42496 0.85116 0.47608 0.0
C417 C 0.43678 0.86552 0.49609 0.0
C418 C 0.39715 0.81988 0.47362 0.0
C419 C 0.38021 0.80265 0.49108 0.0
C420 C 0.39285 0.81611 0.5112 0.0
C421 C 0.42097 0.8473 0.51369 0.0
C422 C 0.34862 0.7713 0.48817 0.0
C423 C 0.34911 0.73853 0.4989 0.0
C424 C 0.31865 0.77332 0.47424 0.0
C425 C 0.31552 0.80769 0.46338 0.0
C426 C 0.31855 0.83902 0.47491 0.0
C427 C 0.31611 0.87144 0.46455 0.0
C428 C 0.31037 0.87281 0.44268 0.0
C429 C 0.30694 0.84172 0.43111 0.0
C430 C 0.30941 0.80924 0.44139 0.0
C431 C 0.21082 0.63188 0.49136 0.0
C432 C 0.19832 0.62048 0.47083 0.0
C433 C 0.24107 0.66063 0.4949 0.0
C434 C 0.25956 0.67812 0.47799 0.0
C435 C 0.24719 0.66647 0.45749 0.0
C436 C 0.21688 0.63782 0.45395 0.0
C437 C 0.29104 0.70941 0.48155 0.0
C438 C 0.29046 0.74229 0.47098 0.0
C439 C 0.32081 0.70746 0.49567 0.0
C440 C 0.32371 0.67315 0.50667 0.0
C441 C 0.32075 0.6417 0.49527 0.0
C442 C 0.32325 0.6094 0.50576 0.0
C443 C 0.32896 0.60827 0.52764 0.0
C444 C 0.33228 0.63948 0.53907 0.0
C445 C 0.32977 0.67184 0.52866 0.0
H446 H 0.33089 0.58324 0.53573 0.0
H447 H 0.3085 0.89794 0.43469 0.0
H448 H 0.67956 0.3885 0.83146 0.0
H449 H 0.6797 0.32448 0.83223 0.0
H450 H 0.56474 0.2944 0.82752 0.0
H451 H 0.5644 0.35829 0.82737 0.0
H452 H 0.58891 0.25293 0.85559 0.0
H453 H 0.61434 0.29155 0.78506 0.0
H454 H 0.64714 0.33066 0.758 0.0
H455 H 0.74293 0.30065 0.7813 0.0
H456 H 0.71082 0.26185 0.80877 0.0
H457 H 0.55904 0.0698 0.82826 0.0
H458 H 0.56239 0.13477 0.82556 0.0
H459 H 0.67656 0.15895 0.83868 0.0
H460 H 0.67326 0.09379 0.84147 0.0
H461 H 0.65474 0.20333 0.80646 0.0
H462 H 0.62852 0.16474 0.87695 0.0
H463 H 0.59531 0.12621 0.90408 0.0
H464 H 0.49991 0.15634 0.88008 0.0
H465 H 0.53246 0.19466 0.8526 0.0
C466 C 0.65428 0.36828 0.83054 0.0
C467 C 0.62196 0.37858 0.82929 0.0
C468 C 0.65441 0.33163 0.83089 0.0
C469 C 0.62221 0.30452 0.82962 0.0
C470 C 0.58994 0.31477 0.8285 0.0
C471 C 0.58979 0.35137 0.82838 0.0
C472 C 0.62205 0.26545 0.8298 0.0
C473 C 0.60292 0.24208 0.84463 0.0
C474 C 0.64103 0.25128 0.81586 0.0
C475 C 0.66024 0.27406 0.7991 0.0
C476 C 0.64245 0.29346 0.78449 0.0
C477 C 0.66092 0.31556 0.76907 0.0
C478 C 0.69713 0.3182 0.76795 0.0
C479 C 0.71489 0.29862 0.7822 0.0
C480 C 0.69657 0.27655 0.7977 0.0
C481 C 0.58489 0.08898 0.83027 0.0
C482 C 0.61595 0.07679 0.83476 0.0
C483 C 0.58677 0.12606 0.82882 0.0
C484 C 0.61971 0.1517 0.83202 0.0
C485 C 0.65089 0.13963 0.83606 0.0
C486 C 0.649 0.10247 0.83763 0.0
C487 C 0.62128 0.191 0.83206 0.0
C488 C 0.64073 0.21433 0.81735 0.0
C489 C 0.60245 0.20517 0.84602 0.0
C490 C 0.58285 0.18228 0.86259 0.0
C491 C 0.60039 0.16291 0.87735 0.0
C492 C 0.5817 0.14116 0.89281 0.0
C493 C 0.5455 0.13875 0.89377 0.0
C494 C 0.52794 0.15819 0.8793 0.0
C495 C 0.5465 0.17995 0.86379 0.0
H496 H 0.53107 0.1219 0.90575 0.0
H497 H 0.71142 0.33537 0.75604 0.0
H498 H 0.71357 0.92938 0.53497 0.0
H499 H 0.71512 0.86577 0.53599 0.0
H500 H 0.61288 0.83781 0.49998 0.0
H501 H 0.61129 0.90146 0.49863 0.0
H502 H 0.67308 0.80783 0.55273 0.0
H503 H 0.60862 0.76535 0.46928 0.0
H504 H 0.60392 0.79257 0.43376 0.0
H505 H 0.70221 0.8725 0.44833 0.0
H506 H 0.70776 0.84546 0.48382 0.0
H507 H 0.61794 0.61866 0.54996 0.0
H508 H 0.61724 0.682 0.54336 0.0
H509 H 0.70572 0.69677 0.50539 0.0
H510 H 0.70645 0.63306 0.51192 0.0
H511 H 0.65716 0.73418 0.48888 0.0
H512 H 0.72159 0.7215 0.55529 0.0
H513 H 0.73014 0.69438 0.59049 0.0
H514 H 0.6407 0.72728 0.60965 0.0
H515 H 0.63127 0.75414 0.57444 0.0
C516 C 0.69142 0.90978 0.5272 0.0
C517 C 0.66233 0.92065 0.51668 0.0
C518 C 0.69233 0.87336 0.52783 0.0
C519 C 0.66429 0.847 0.51791 0.0
C520 C 0.63512 0.85771 0.50747 0.0
C521 C 0.63419 0.89415 0.5068 0.0
C522 C 0.66524 0.80823 0.51894 0.0
C523 C 0.66961 0.79181 0.53874 0.0
C524 C 0.66123 0.78732 0.5007 0.0
C525 C 0.65841 0.80354 0.47928 0.0
C526 C 0.6293 0.78863 0.46488 0.0
C527 C 0.62648 0.80405 0.44475 0.0
C528 C 0.65271 0.83428 0.43881 0.0
C529 C 0.68186 0.84914 0.45297 0.0
C530 C 0.68483 0.8338 0.47311 0.0
C531 C 0.63709 0.63531 0.54007 0.0
C532 C 0.6626 0.62103 0.5317 0.0
C533 C 0.63662 0.67149 0.53628 0.0
C534 C 0.66185 0.6943 0.5242 0.0
C535 C 0.68608 0.67966 0.51481 0.0
C536 C 0.68645 0.64328 0.51853 0.0
C537 C 0.66431 0.73382 0.52265 0.0
C538 C 0.6606 0.75032 0.50281 0.0
C539 C 0.66953 0.75504 0.54083 0.0
C540 C 0.67558 0.7396 0.56217 0.0
C541 C 0.70363 0.72279 0.56697 0.0
C542 C 0.70864 0.70747 0.58693 0.0
C543 C 0.68595 0.70906 0.60229 0.0
C544 C 0.65825 0.72606 0.59773 0.0
C545 C 0.65308 0.74137 0.57779 0.0
H546 H 0.68989 0.6972 0.61773 0.0
H547 H 0.6505 0.84612 0.42321 0.0
H548 H 0.86218 0.50418 0.78688 0.0
H549 H 0.92565 0.51561 0.78098 0.0
H550 H 0.95402 0.54294 0.84618 0.0
H551 H 0.89162 0.53114 0.8521 0.0
H552 H 0.9779 0.57336 0.78321 0.0
H553 H 1.02226 0.52117 0.8673 0.0
H554 H 1.00185 0.46791 0.89034 0.0
H555 H 0.94524 0.40698 0.83733 0.0
H556 H 0.96575 0.45966 0.81386 0.0
H557 H 0.11482 0.69138 0.83552 0.0
H558 H 0.06684 0.64975 0.81559 0.0
H559 H 0.11982 0.56372 0.82952 0.0
H560 H 0.16654 0.60523 0.85119 0.0
H561 H 1.06127 0.53846 0.83883 0.0
H562 H 0.09303 0.5933 0.77595 0.0
H563 H 0.11561 0.64025 0.74947 0.0
H564 H 1.02534 0.6841 0.75293 0.0
H565 H 1.0025 0.63797 0.77976 0.0
C566 C 0.88212 0.5122 0.79994 0.0
C567 C 0.87194 0.51617 0.82004 0.0
C568 C 0.91829 0.51867 0.79656 0.0
C569 C 0.94466 0.52922 0.81325 0.0
C570 C 0.93429 0.53348 0.8332 0.0
C571 C 0.89848 0.52678 0.83659 0.0
C572 C 0.98327 0.5387 0.81014 0.0
C573 C 0.99639 0.56549 0.79511 0.0
C574 C 1.0076 0.52643 0.82464 0.0
C575 C 0.99565 0.49446 0.83877 0.0
C576 C 1.00578 0.49633 0.86048 0.0
C577 C 0.99409 0.46625 0.87364 0.0
C578 C 0.97227 0.43409 0.8653 0.0
C579 C 0.96211 0.43193 0.84377 0.0
C580 C 0.97373 0.46191 0.83053 0.0
C581 C 0.11689 0.66393 0.83369 0.0
C582 C 0.14424 0.65144 0.84493 0.0
C583 C 0.08944 0.63997 0.82205 0.0
C584 C 0.08937 0.60322 0.82079 0.0
C585 C 0.11876 0.59169 0.83037 0.0
C586 C 0.14562 0.61544 0.84265 0.0
C587 C 1.05576 0.57635 0.81339 0.0
C588 C 1.04346 0.54584 0.82633 0.0
C589 C 1.03271 0.58405 0.79626 0.0
C590 C 1.04593 0.61191 0.7799 0.0
C591 C 0.078 0.613 0.77115 0.0
C592 C 0.09088 0.63953 0.75607 0.0
C593 C 0.07189 0.6651 0.7495 0.0
C594 C 1.03996 0.66419 0.75799 0.0
C595 C 1.02697 0.63776 0.77311 0.0
H596 H 0.08192 0.68563 0.73783 0.0
H597 H 0.96323 0.41084 0.87553 0.0
H598 H 0.26674 0.78113 0.13245 0.0
H599 H 0.32478 0.82383 0.13944 0.0
H600 H 0.34234 0.76667 0.19756 0.0
H601 H 0.28416 0.7237 0.19063 0.0
H602 H 0.35868 0.83888 0.20288 0.0
H603 H 0.38677 0.75911 0.1553 0.0
H604 H 0.37947 0.72455 0.12279 0.0
H605 H 0.39596 0.82349 0.08615 0.0
H606 H 0.40297 0.85863 0.11838 0.0
H607 H 0.53803 0.94211 0.22099 0.0
H608 H 0.4859 0.89061 0.21477 0.0
H609 H 0.45986 0.93792 0.15472 0.0
H610 H 0.51239 0.98886 0.16072 0.0
H611 H 0.45019 0.86655 0.15159 0.0
H612 H 0.41715 0.94561 0.19828 0.0
H613 H 0.42331 0.981 0.23034 0.0
H614 H 0.41486 0.88396 0.26826 0.0
H615 H 0.4091 0.84804 0.23641 0.0
C616 C 0.28311 0.77732 0.14659 0.0
C617 C 0.27087 0.74889 0.16094 0.0
C618 C 0.31631 0.80178 0.15057 0.0
C619 C 0.33811 0.79817 0.1689 0.0
C620 C 0.32596 0.76993 0.18331 0.0
C621 C 0.29267 0.74549 0.17936 0.0
C622 C 0.373 0.82475 0.17329 0.0
C623 C 0.37899 0.84445 0.19185 0.0
C624 C 0.39914 0.83257 0.15867 0.0
C625 C 0.39513 0.81149 0.13926 0.0
C626 C 0.38859 0.77348 0.1403 0.0
C627 C 0.38454 0.75379 0.12193 0.0
C628 C 0.38715 0.7718 0.10243 0.0
C629 C 0.39392 0.80957 0.10126 0.0
C630 C 0.398 0.82939 0.11958 0.0
C631 C 0.52135 0.94114 0.20638 0.0
C632 C 0.52931 0.96917 0.19125 0.0
C633 C 0.4915 0.91192 0.20288 0.0
C634 C 0.46874 0.91059 0.18436 0.0
C635 C 0.47706 0.93831 0.16909 0.0
C636 C 0.50701 0.96741 0.17253 0.0
C637 C 0.43569 0.88093 0.18107 0.0
C638 C 0.43004 0.86069 0.16272 0.0
C639 C 0.40976 0.87269 0.19583 0.0
C640 C 0.4131 0.89422 0.21498 0.0
C641 C 0.41689 0.93187 0.21347 0.0
C642 C 0.42026 0.95201 0.2316 0.0
C643 C 0.41959 0.93475 0.25133 0.0
C644 C 0.41544 0.89729 0.25297 0.0
C645 C 0.4121 0.87703 0.23488 0.0
H646 H 0.4222 0.95039 0.26535 0.0
H647 H 0.38399 0.7565 0.08823 0.0
H648 H 0.70243 0.15826 0.49378 0.0
H649 H 0.70234 0.22221 0.4933 0.0
H650 H 0.61456 0.19726 0.53239 0.0
H651 H 0.61362 0.13298 0.53222 0.0
H652 H 0.60299 0.24273 0.50324 0.0
H653 H 0.70423 0.23817 0.55139 0.0
H654 H 0.76121 0.22329 0.56277 0.0
H655 H 0.81123 0.29125 0.51325 0.0
H656 H 0.75441 0.30623 0.5014 0.0
H657 H 0.61427 0.42327 0.53087 0.0
H658 H 0.61817 0.36005 0.53358 0.0
H659 H 0.69584 0.38285 0.48784 0.0
H660 H 0.69193 0.44617 0.48514 0.0
H661 H 0.71328 0.33917 0.52076 0.0
H662 H 0.6115 0.34256 0.47255 0.0
H663 H 0.55428 0.35689 0.46116 0.0
H664 H 0.50532 0.29048 0.51155 0.0
H665 H 0.56242 0.27615 0.52342 0.0
C666 C 0.68311 0.16637 0.5023 0.0
C667 C 0.65806 0.14051 0.51308 0.0
C668 C 0.68324 0.20305 0.50212 0.0
C669 C 0.65888 0.21482 0.51314 0.0
C670 C 0.63369 0.18896 0.5238 0.0
C671 C 0.63319 0.15218 0.52371 0.0
C672 C 0.65908 0.25392 0.51317 0.0
C673 C 0.62704 0.26369 0.50742 0.0
C674 C 0.69061 0.28154 0.5181 0.0
C675 C 0.72497 0.27308 0.52541 0.0
C676 C 0.72733 0.24981 0.54286 0.0
C677 C 0.7596 0.24137 0.5494 0.0
C678 C 0.78979 0.25625 0.53871 0.0
C679 C 0.78781 0.27972 0.5215 0.0
C680 C 0.75559 0.28824 0.51489 0.0
C681 C 0.63217 0.4147 0.52144 0.0
C682 C 0.65224 0.43922 0.50745 0.0
C683 C 0.6344 0.37867 0.52298 0.0
C684 C 0.65689 0.36659 0.51066 0.0
C685 C 0.67819 0.39152 0.49741 0.0
C686 C 0.67585 0.42755 0.4958 0.0
C687 C 0.65717 0.3277 0.51102 0.0
C688 C 0.68927 0.31806 0.51673 0.0
C689 C 0.6257 0.30012 0.50616 0.0
C690 C 0.59132 0.30859 0.499 0.0
C691 C 0.5886 0.33125 0.4813 0.0
C692 C 0.55618 0.33933 0.47474 0.0
C693 C 0.52621 0.32469 0.48566 0.0
C694 C 0.52857 0.30185 0.50313 0.0
C695 C 0.56095 0.29372 0.50977 0.0
H696 H 0.50113 0.33097 0.48055 0.0
H697 H 0.81473 0.24966 0.5438 0.0
H698 H 0.4575 0.61062 0.79657 0.0
H699 H 0.42258 0.6547 0.7999 0.0
H700 H 0.34741 0.57482 0.83378 0.0
H701 H 0.38189 0.53051 0.83014 0.0
H702 H 0.31323 0.61261 0.80762 0.0
H703 H 0.41698 0.64177 0.85872 0.0
H704 H 0.48096 0.65991 0.87079 0.0
H705 H 0.4939 0.7565 0.83214 0.0
H706 H 0.43004 0.73877 0.81969 0.0
H707 H 0.26826 0.71932 0.88708 0.0
H708 H 0.29674 0.68101 0.8687 0.0
H709 H 0.30549 0.75533 0.81558 0.0
H710 H 0.27467 0.79266 0.83342 0.0
H711 H 0.37267 0.72696 0.84422 0.0
H712 H 0.26719 0.70144 0.79659 0.0
H713 H 0.20292 0.68421 0.78553 0.0
H714 H 0.19318 0.58088 0.81701 0.0
H715 H 0.25715 0.59814 0.82908 0.0
C716 C 0.43343 0.60248 0.80465 0.0
C717 C 0.4225 0.56724 0.81324 0.0
C718 C 0.41353 0.62767 0.80655 0.0
C719 C 0.38268 0.61825 0.81737 0.0
C720 C 0.37111 0.58269 0.82534 0.0
C721 C 0.3908 0.55739 0.82326 0.0
C722 C 0.36311 0.6456 0.82125 0.0
C723 C 0.32623 0.6376 0.81565 0.0
C724 C 0.38026 0.6788 0.8311 0.0
C725 C 0.41884 0.68875 0.8381 0.0
C726 C 0.43356 0.66667 0.85262 0.0
C727 C 0.46978 0.67693 0.85957 0.0
C728 C 0.49147 0.70933 0.85221 0.0
C729 C 0.47705 0.73142 0.8378 0.0
C730 C 0.44087 0.72129 0.83081 0.0
C731 C 0.27567 0.7271 0.87133 0.0
C732 C 0.26923 0.7588 0.8616 0.0
C733 C 0.29181 0.70523 0.86086 0.0
C734 C 0.30255 0.71512 0.8407 0.0
C735 C 0.29666 0.74699 0.83098 0.0
C736 C 0.27943 0.76836 0.84122 0.0
C737 C 0.3229 0.69351 0.831 0.0
C738 C 0.35989 0.70239 0.83571 0.0
C739 C 0.30585 0.66123 0.82034 0.0
C740 C 0.26694 0.65143 0.8141 0.0
C741 C 0.25122 0.67544 0.80165 0.0
C742 C 0.21484 0.66559 0.7951 0.0
C743 C 0.19395 0.63152 0.8006 0.0
C744 C 0.20937 0.60732 0.8128 0.0
C745 C 0.24566 0.61721 0.8196 0.0
H746 H 0.16585 0.62384 0.79534 0.0
H747 H 0.51937 0.71753 0.85777 0.0
H748 H 0.91769 0.34624 0.17728 0.0
H749 H 0.86475 0.29979 0.186 0.0
H750 H 0.90086 0.21974 0.15485 0.0
H751 H 0.95453 0.26566 0.14664 0.0
H752 H 0.82734 0.21727 0.14487 0.0
H753 H 0.91194 0.22048 0.20554 0.0
H754 H 0.95431 0.25036 0.23441 0.0
H755 H 0.87107 0.28619 0.25949 0.0
H756 H 0.8283 0.25694 0.23058 0.0
H757 H 0.71377 0.05702 0.18614 0.0
H758 H 0.76278 0.10515 0.1738 0.0
H759 H 0.73934 0.18011 0.21552 0.0
H760 H 0.6913 0.13173 0.22834 0.0
H761 H 0.80645 0.18613 0.21946 0.0
H762 H 0.72117 0.18364 0.16033 0.0
H763 H 0.6776 0.15642 0.1313 0.0
H764 H 0.75911 0.12264 0.10303 0.0
H765 H 0.80309 0.14924 0.13206 0.0
C766 C 0.91467 0.3187 0.17247 0.0
C767 C 0.94059 0.30972 0.16135 0.0
C768 C 0.88424 0.29226 0.17734 0.0
C769 C 0.87902 0.25637 0.17112 0.0
C770 C 0.90436 0.24737 0.15968 0.0
C771 C 0.93497 0.27371 0.15496 0.0
C772 C 0.84756 0.228 0.17706 0.0
C773 C 0.82285 0.21008 0.16116 0.0
C774 C 0.84138 0.21947 0.19831 0.0
C775 C 0.86702 0.23684 0.21578 0.0
C776 C 0.90274 0.23498 0.21712 0.0
C777 C 0.92682 0.25176 0.23351 0.0
C778 C 0.91542 0.27025 0.24874 0.0
C779 C 0.87988 0.2719 0.24766 0.0
C780 C 0.85571 0.25521 0.23128 0.0
C781 C 0.71888 0.08394 0.19241 0.0
C782 C 0.69896 0.09074 0.20821 0.0
C783 C 0.74678 0.11146 0.18533 0.0
C784 C 0.75467 0.14643 0.19361 0.0
C785 C 0.73395 0.15338 0.20896 0.0
C786 C 0.70649 0.12579 0.21625 0.0
C787 C 0.78573 0.17524 0.18727 0.0
C788 C 0.81059 0.19326 0.20313 0.0
C789 C 0.79172 0.18416 0.16597 0.0
C790 C 0.76535 0.16813 0.14849 0.0
C791 C 0.72974 0.17015 0.14801 0.0
C792 C 0.70498 0.15488 0.13154 0.0
C793 C 0.71556 0.13773 0.11536 0.0
C794 C 0.75095 0.13589 0.11559 0.0
C795 C 0.77581 0.15109 0.13204 0.0
H796 H 0.69635 0.12593 0.10262 0.0
H797 H 0.9341 0.28322 0.26142 0.0
H798 H 0.12473 0.505 0.07627 0.0
H799 H 0.13901 0.52399 0.04043 0.0
H800 H 0.08348 0.60801 0.04204 0.0
H801 H 0.06877 0.58905 0.0777 0.0
H802 H 0.07216 0.5759 0.00376 0.0
H803 H 0.17136 0.62735 0.05371 0.0
H804 H 0.21626 0.62353 0.08304 0.0
H805 H 0.26116 0.55824 0.04604 0.0
H806 H 0.21607 0.56115 0.0166 0.0
H807 H 0.15232 0.70804 0.93091 0.0
H808 H 0.13783 0.67856 0.9649 0.0
H809 H 0.18472 0.59257 0.95069 0.0
H810 H 0.19887 0.62175 0.91649 0.0
H811 H 0.20113 0.62026 0.99402 0.0
H812 H 0.10344 0.57223 0.94318 0.0
H813 H 1.05767 0.57582 0.91434 0.0
H814 H 1.00981 0.63524 0.95339 0.0
H815 H 1.0557 0.63252 0.98237 0.0
C816 C 0.115 0.52709 0.06886 0.0
C817 C 0.09599 0.54582 0.0799 0.0
C818 C 0.12331 0.53798 0.04842 0.0
C819 C 0.11279 0.56777 0.03876 0.0
C820 C 0.09195 0.58504 0.04927 0.0
C821 C 0.08369 0.57424 0.06968 0.0
C822 C 0.12553 0.58276 0.01837 0.0
C823 C 0.10033 0.58576 0.00166 0.0
C824 C 0.16235 0.59505 0.01558 0.0
C825 C 0.19012 0.59416 0.03303 0.0
C826 C 0.19069 0.61202 0.05187 0.0
C827 C 0.21617 0.61002 0.06851 0.0
C828 C 0.24149 0.59057 0.06643 0.0
C829 C 0.24148 0.57324 0.04765 0.0
C830 C 0.21598 0.57507 0.03097 0.0
C831 C 0.16017 0.68325 0.93524 0.0
C832 C 0.17666 0.66709 0.92116 0.0
C833 C 0.15173 0.66638 0.95455 0.0
C834 C 0.16003 0.63334 0.96014 0.0
C835 C 0.17814 0.61807 0.94659 0.0
C836 C 0.18609 0.63465 0.92711 0.0
C837 C 0.14771 0.61379 0.97958 0.0
C838 C 0.17299 0.61001 -0.00392 0.0
C839 C 0.11097 0.60089 0.98223 0.0
C840 C 0.08325 0.60251 0.96487 0.0
C841 C 0.08338 0.58638 0.94555 0.0
C842 C 1.05737 0.58819 0.92919 0.0
C843 C 1.03091 0.60584 0.93201 0.0
C844 C 1.03036 0.62163 0.95122 0.0
C845 C 1.05635 0.61994 0.96762 0.0
H846 H 1.01077 0.60719 0.91934 0.0
H847 H 0.26114 0.58898 0.07935 0.0
H848 H 0.61006 0.0365 0.44305 0.0
H849 H 0.6096 0.03157 0.40516 0.0
H850 H 0.72056 0.03079 0.41224 0.0
H851 H 0.72131 0.03552 0.4504 0.0
H852 H 0.70242 0.07697 0.37919 0.0
H853 H 0.66385 0.9546 0.40416 0.0
H854 H 0.62755 0.90444 0.42431 0.0
H855 H 0.53271 0.91668 0.38795 0.0
H856 H 0.56836 0.96755 0.36788 0.0
H857 H 0.7061 0.02638 0.27497 0.0
H858 H 0.71065 0.02422 0.31334 0.0
H859 H 0.59794 0.01559 0.31236 0.0
H860 H 0.5932 0.01763 0.27389 0.0
H861 H 0.61982 0.97192 0.3428 0.0
H862 H 0.65724 0.09644 0.31967 0.0
H863 H 0.69275 0.14772 0.29986 0.0
H864 H 0.789 0.13194 0.33296 0.0
H865 H 0.75407 0.08017 0.35275 0.0
C866 C 0.6345 0.03555 0.43661 0.0
C867 C 0.66574 0.03632 0.44975 0.0
C868 C 0.6341 0.03254 0.41495 0.0
C869 C 0.66492 0.03043 0.40598 0.0
C870 C 0.69647 0.03225 0.41893 0.0
C871 C 0.69682 0.03488 0.44069 0.0
C872 C 0.66385 0.02603 0.38306 0.0
C873 C 0.68485 0.05372 0.37124 0.0
C874 C 0.64031 0.99602 0.37275 0.0
C875 C 0.61877 0.96515 0.38463 0.0
C876 C 0.63522 0.94683 0.40057 0.0
C877 C 0.61477 0.91821 0.41196 0.0
C878 C 0.57785 0.90738 0.40742 0.0
C879 C 0.56131 0.92512 0.39146 0.0
C880 C 0.58164 0.95386 0.38007 0.0
C881 C 0.68226 0.02389 0.28294 0.0
C882 C 0.64936 0.02261 0.27145 0.0
C883 C 0.68489 0.0226 0.30484 0.0
C884 C 0.65475 0.02038 0.31569 0.0
C885 C 0.62154 0.01738 0.30428 0.0
C886 C 0.61885 0.0185 0.28232 0.0
C887 C 0.65822 0.02301 0.33887 0.0
C888 C 0.63761 0.99503 0.35075 0.0
C889 C 0.68204 0.05283 0.34925 0.0
C890 C 0.70307 0.0842 0.33753 0.0
C891 C 0.686 0.10374 0.32262 0.0
C892 C 0.70602 0.13291 0.3114 0.0
C893 C 0.74312 0.14302 0.31511 0.0
C894 C 0.76026 0.12404 0.33008 0.0
C895 C 0.74037 0.09479 0.34131 0.0
H896 H 0.75857 0.16561 0.30641 0.0
H897 H 0.56206 0.8852 0.41625 0.0
H898 H 0.59401 0.44229 0.75628 0.0
H899 H 0.60137 0.44667 0.7186 0.0
H900 H 0.69145 0.53896 0.72888 0.0
H901 H 0.68446 0.53479 0.76647 0.0
H902 H 0.64133 0.55058 0.69723 0.0
H903 H 0.7047 0.45963 0.7184 0.0
H904 H 0.7117 0.40164 0.73446 0.0
H905 H 0.62685 0.34334 0.69166 0.0
H906 H 0.61891 0.40101 0.67556 0.0
H907 H 0.70755 0.57645 0.59876 0.0
H908 H 0.70296 0.56305 0.63622 0.0
H909 H 0.62152 0.46485 0.62182 0.0
H910 H 0.62676 0.47781 0.58416 0.0
H911 H 0.66432 0.45403 0.6553 0.0
H912 H 0.59931 0.54183 0.63422 0.0
H913 H 0.58976 0.59839 0.61745 0.0
H914 H 0.67296 0.66091 0.65963 0.0
H915 H 0.68338 0.60467 0.67649 0.0
C916 C 0.61554 0.46336 0.75054 0.0
C917 C 0.63858 0.48826 0.76438 0.0
C918 C 0.61977 0.46573 0.72903 0.0
C919 C 0.64701 0.49309 0.72099 0.0
C920 C 0.67026 0.51767 0.73479 0.0
C921 C 0.66625 0.51516 0.75628 0.0
C922 C 0.65047 0.49721 0.69812 0.0
C923 C 0.64681 0.52966 0.6881 0.0
C924 C 0.65632 0.46935 0.68613 0.0
C925 C 0.66097 0.43468 0.69591 0.0
C926 C 0.68728 0.43447 0.71255 0.0
C927 C 0.69146 0.40165 0.72164 0.0
C928 C 0.6697 0.36884 0.71409 0.0
C929 C 0.64367 0.36878 0.69748 0.0
C930 C 0.63932 0.40152 0.68838 0.0
C931 C 0.68885 0.55188 0.60361 0.0
C932 C 0.66719 0.52837 0.58863 0.0
C933 C 0.6862 0.54428 0.62499 0.0
C934 C 0.6613 0.51338 0.63182 0.0
C935 C 0.64078 0.48894 0.6169 0.0
C936 C 0.64376 0.49634 0.59543 0.0
C937 C 0.65576 0.50766 0.65447 0.0
C938 C 0.65881 0.47493 0.66442 0.0
C939 C 0.64881 0.53506 0.6664 0.0
C940 C 0.64231 0.569 0.65652 0.0
C941 C 0.61572 0.56763 0.63985 0.0
C942 C 0.61013 0.59963 0.63033 0.0
C943 C 0.63077 0.63322 0.63745 0.0
C944 C 0.657 0.63487 0.65414 0.0
C945 C 0.66273 0.60293 0.6637 0.0
H946 H 0.62636 0.65795 0.63008 0.0
H947 H 0.67308 0.34344 0.72105 0.0
H948 H 0.59547 0.9793 0.57651 0.0
H949 H 0.58921 0.97497 0.61427 0.0
H950 H 0.69216 0.05031 0.6255 0.0
H951 H 0.69886 0.05458 0.58789 0.0
H952 H 0.68417 0.99303 0.65275 0.0
H953 H 0.61715 0.07817 0.62728 0.0
H954 H 0.57155 0.09947 0.60451 0.0
H955 H 0.48962 0.01232 0.62746 0.0
H956 H 0.53483 0.99018 0.65016 0.0
H957 H 0.67224 0.03343 0.75802 0.0
H958 H 0.67491 0.04269 0.71999 0.0
H959 H 0.57597 0.96085 0.70937 0.0
H960 H 0.57317 0.9515 0.74737 0.0
H961 H 0.58138 0.02194 0.68195 0.0
H962 H 0.64774 0.9359 0.70655 0.0
H963 H 0.69279 0.91381 0.72935 0.0
H964 H 0.77541 1.00186 0.70787 0.0
H965 H 0.73072 0.02481 0.68517 0.0
C966 C 0.61683 0.9949 0.58701 0.0
C967 C 0.64761 0.01739 0.57916 0.0
C968 C 0.61313 0.99251 0.60857 0.0
C969 C 0.64006 0.01264 0.62265 0.0
C970 C 0.67104 0.03461 0.6149 0.0
C971 C 0.67475 0.03707 0.59337 0.0
C972 C 0.63608 0.01081 0.6455 0.0
C973 C 0.66196 0.99984 0.65914 0.0
C974 C 0.60667 0.01892 0.65379 0.0
C975 C 0.57941 0.03232 0.64026 0.0
C976 C 0.58944 0.06338 0.62735 0.0
C977 C 0.56366 0.07564 0.61448 0.0
C978 C 0.52772 0.05721 0.6145 0.0
C979 C 0.51748 0.02654 0.62744 0.0
C980 C 0.54316 0.01414 0.64032 0.0
C981 C 0.65072 0.018 0.74756 0.0
C982 C 0.6226 0.99163 0.75556 0.0
C983 C 0.65237 0.02314 0.72589 0.0
C984 C 0.62581 1.00216 0.71194 0.0
C985 C 0.59672 0.97724 0.71991 0.0
C986 C 0.59525 0.97182 0.74155 0.0
C987 C 0.62957 1.00443 0.68911 0.0
C988 C 0.60364 0.01532 0.6755 0.0
C989 C 0.65887 0.99616 0.68082 0.0
C990 C 0.68584 0.9823 0.69434 0.0
C991 C 0.67548 0.95074 0.70682 0.0
C992 C 0.70095 0.93802 0.7197 0.0
C993 C 0.73693 0.95648 0.7201 0.0
C994 C 0.74752 0.98763 0.70757 0.0
C995 C 0.72213 1.00049 0.69469 0.0
H996 H 0.75662 0.9466 0.73008 0.0
H997 H 0.5078 0.06673 0.60452 0.0
H998 H 0.54787 0.47249 0.88857 0.0
H999 H 0.54059 0.47644 0.92597 0.0
H1000 H 0.65398 0.52175 0.93784 0.0
H1001 H 0.66144 0.51577 0.90094 0.0
H1002 H 0.63454 0.47707 0.96715 0.0
H1003 H 0.58626 0.57127 0.93293 0.0
H1004 H 0.54559 0.59471 0.90762 0.0
H1005 H 0.45569 0.53217 0.93819 0.0
H1006 H 0.49581 0.50697 0.96324 0.0
H1007 H 0.65353 0.56937 0.06063 0.0
H1008 H 0.6456 0.56015 0.0228 0.0
H1009 H 0.54168 0.48841 0.02894 0.0
H1010 H 0.54974 0.49681 0.06709 0.0
H1011 H 0.54915 0.53959 0.99164 0.0
H1012 H 0.60053 0.44828 0.02706 0.0
H1013 H 0.64342 0.42799 0.05255 0.0
H1014 H 0.7303 0.49148 0.01978 0.0
H1015 H 0.68792 0.51267 0.9943 0.0
C1016 C 0.57115 0.48321 0.89925 0.0
C1017 C 0.60521 0.49378 0.89189 0.0
C1018 C 0.56699 0.48563 0.9206 0.0
C1019 C 0.59667 0.49987 0.93481 0.0
C1020 C 0.63063 0.51049 0.92733 0.0
C1021 C 0.63489 0.50716 0.90618 0.0
C1022 C 0.59296 0.50389 0.95748 0.0
C1023 C 0.61597 0.49099 0.97238 0.0
C1024 C 0.56811 0.52118 0.96455 0.0
C1025 C 0.54403 0.53688 0.9498 0.0
C1026 C 0.55781 0.56228 0.93418 0.0
C1027 C 0.53483 0.57591 0.91987 0.0
C1028 C 0.49806 0.56512 0.92131 0.0
C1029 C 0.48418 0.54051 0.93707 0.0
C1030 C 0.50702 0.5264 0.95128 0.0
C1031 C 0.62886 0.55179 0.05395 0.0
C1032 C 0.60254 0.53326 0.0669 0.0
C1033 C 0.6243 0.54676 0.03233 0.0
C1034 C 0.59327 0.52327 0.02318 0.0
C1035 C 0.56582 0.50664 0.03577 0.0
C1036 C 0.57045 0.51151 0.05752 0.0
C1037 C 0.59138 0.51375 0.00087 0.0
C1038 C 0.56734 0.5254 0.98621 0.0
C1039 C 0.61556 0.49577 0.99391 0.0
C1040 C 0.64105 0.48225 0.00886 0.0
C1041 C 0.62879 0.45808 0.02536 0.0
C1042 C 0.65301 0.44641 0.0398 0.0
C1043 C 0.68957 0.45849 0.03781 0.0
C1044 C 0.70197 0.48216 0.02131 0.0
C1045 C 0.67786 0.49397 0.00685 0.0
H1046 H 0.70828 0.44946 0.04902 0.0
H1047 H 0.48035 0.57582 0.91021 0.0
H1048 H 0.08596 0.47213 0.21278 0.0
H1049 H 0.09126 0.4709 0.25113 0.0
H1050 H 0.13479 0.58691 0.25113 0.0
H1051 H 0.13099 0.58805 0.21279 0.0
H1052 H 0.17004 0.55854 0.28004 0.0
H1053 H 1.0459 0.54505 0.26127 0.0
H1054 H 0.98664 0.51867 0.24323 0.0
H1055 H 0.98449 0.41605 0.27417 0.0
H1056 H 1.04398 0.44169 0.29219 0.0
H1057 H 0.13756 0.57565 0.38771 0.0
H1058 H 0.1354 0.58034 0.34934 0.0
H1059 H 0.115 0.46418 0.34607 0.0
H1060 H 0.11852 0.45921 0.3843 0.0
H1061 H 0.06728 0.49524 0.31928 0.0
H1062 H 0.19371 0.5118 0.33769 0.0
H1063 H 0.25184 0.54131 0.35603 0.0
H1064 H 0.24722 0.64309 0.326 0.0
H1065 H 0.18877 0.61426 0.3077 0.0
C1066 C 0.09665 0.49737 0.22096 0.0
C1067 C 0.10793 0.5302 0.20978 0.0
C1068 C 0.0995 0.49668 0.24289 0.0
C1069 C 0.1128 0.52893 0.25407 0.0
C1070 C 0.1244 0.56168 0.2429 0.0
C1071 C 0.12215 0.5623 0.22097 0.0
C1072 C 0.11487 0.52845 0.2774 0.0
C1073 C 0.14736 0.54516 0.28857 0.0
C1074 C 0.08544 0.51069 0.28864 0.0
C1075 C 1.04955 0.49522 0.27793 0.0
C1076 C 1.0329 0.51679 0.26412 0.0
C1077 C 0.99925 0.50198 0.25391 0.0
C1078 C 0.98186 0.46569 0.25751 0.0
C1079 C 0.99802 0.44415 0.27138 0.0
C1080 C 1.03169 0.45882 0.28161 0.0
C1081 C 0.13319 0.55113 0.37887 0.0
C1082 C 0.12801 0.51702 0.38915 0.0
C1083 C 0.13176 0.55387 0.35695 0.0
C1084 C 0.12494 0.52258 0.34494 0.0
C1085 C 0.12 0.4886 0.35509 0.0
C1086 C 0.12184 0.48585 0.37696 0.0
C1087 C 0.12239 0.52502 0.32173 0.0
C1088 C 0.0898 0.50873 0.31064 0.0
C1089 C 0.15149 0.54367 0.31059 0.0
C1090 C 0.1867 0.56096 0.3215 0.0
C1091 C 0.20494 0.54054 0.33514 0.0
C1092 C 0.23797 0.55713 0.3455 0.0
C1093 C 0.25316 0.59407 0.34223 0.0
C1094 C 0.23539 0.61448 0.32854 0.0
C1095 C 0.20233 0.59803 0.31816 0.0
H1096 H 0.27874 0.60686 0.35027 0.0
H1097 H 0.95581 0.45427 0.24959 0.0
loop_
_geom_bond_atom_site_label_1
_geom_bond_atom_site_label_2
_geom_bond_distance
_geom_bond_site_symmetry_2
_ccdc_geom_bond_type
Dy0 O3 2.307 1_455 S
Dy0 O5 2.395 . S
Dy0 O6 2.379 . S
Dy0 O8 2.339 . S
Dy0 O10 2.298 . S
Dy0 O14 2.275 . S
Dy0 C22 2.738 . S
Dy1 O4 2.298 1_455 S
Dy1 O7 2.275 . S
Dy1 O9 2.307 . S
Dy1 O11 2.395 1_455 S
Dy1 O12 2.379 1_455 S
Dy1 O15 2.339 . S
Dy1 C31 2.738 1_455 S
C2 O14 1.254 . S
C2 O15 1.257 . S
O3 Dy0 2.307 1_655 S
O3 C13 1.266 . S
O4 Dy1 2.298 1_655 S
O4 C13 1.236 . S
O5 Dy0 2.395 . S
O5 C22 1.255 . S
O6 Dy0 2.379 . S
O6 C22 1.249 . S
O7 Dy1 2.275 . S
O7 C23 1.254 . S
O8 Dy0 2.339 . S
O8 C23 1.257 . S
O9 Dy1 2.307 . S
O9 C24 1.266 . S
O10 Dy0 2.298 . S
O10 C24 1.236 . S
O11 Dy1 2.395 1_655 S
O11 C31 1.255 . S
O12 Dy1 2.379 1_655 S
O12 C31 1.249 . S
C13 O3 1.266 . S
C13 O4 1.236 . S
O14 Dy0 2.275 . S
O14 C2 1.254 . S
O15 Dy1 2.339 . S
O15 C2 1.257 . S
C16 C19 1.344 . S
C16 C20 1.328 . S
C16 C22 1.516 . S
C17 C18 1.304 . S
C17 C21 1.323 . S
C18 C17 1.304 . S
C18 C19 1.371 . S
C18 H32 0.930 . S
C19 C16 1.344 . S
C19 C18 1.371 . S
C19 H33 0.931 . S
C20 C16 1.328 . S
C20 C21 1.433 . S
C20 H34 0.931 . S
C21 C17 1.323 . S
C21 C20 1.433 . S
C21 H35 0.933 . S
C22 Dy0 2.738 . S
C22 O5 1.255 . S
C22 O6 1.249 . S
C22 C16 1.516 . S
C23 O7 1.254 . S
C23 O8 1.257 . S
C24 O9 1.266 . S
C24 O10 1.236 . S
C25 C28 1.344 . S
C25 C29 1.328 . S
C25 C31 1.516 . S
C26 C27 1.304 . S
C26 C30 1.323 . S
C27 C26 1.304 . S
C27 C28 1.371 . S
C27 H36 0.930 . S
C28 C25 1.344 . S
C28 C27 1.371 . S
C28 H37 0.931 . S
C29 C25 1.328 . S
C29 C30 1.433 . S
C29 H38 0.931 . S
C30 C26 1.323 . S
C30 C29 1.433 . S
C30 H39 0.933 . S
C31 Dy1 2.738 1_655 S
C31 O11 1.255 . S
C31 O12 1.249 . S
C31 C25 1.516 . S
H32 C18 0.930 . S
H33 C19 0.931 . S
H34 C20 0.931 . S
H35 C21 0.933 . S
H36 C27 0.930 . S
H37 C28 0.931 . S
H38 C29 0.931 . S
H39 C30 0.933 . S
Dy40 O43 2.307 . S
Dy40 O45 2.395 1_545 S
Dy40 O46 2.379 1_545 S
Dy40 O48 2.339 . S
Dy40 O50 2.298 1_545 S
Dy40 O54 2.275 . S
Dy40 C62 2.738 1_545 S
Dy41 O44 2.298 . S
Dy41 O47 2.275 . S
Dy41 O49 2.307 1_545 S
Dy41 O51 2.395 . S
Dy41 O52 2.379 . S
Dy41 O55 2.339 . S
Dy41 C71 2.738 . S
C42 O54 1.254 . S
C42 O55 1.257 . S
O43 Dy40 2.307 . S
O43 C53 1.266 . S
O44 Dy41 2.298 . S
O44 C53 1.236 . S
O45 Dy40 2.395 1_565 S
O45 C62 1.255 . S
O46 Dy40 2.379 1_565 S
O46 C62 1.249 . S
O47 Dy41 2.275 . S
O47 C63 1.254 . S
O48 Dy40 2.339 . S
O48 C63 1.257 . S
O49 Dy41 2.307 1_565 S
O49 C64 1.266 . S
O50 Dy40 2.298 1_565 S
O50 C64 1.236 . S
O51 Dy41 2.395 . S
O51 C71 1.255 . S
O52 Dy41 2.379 . S
O52 C71 1.249 . S
C53 O43 1.266 . S
C53 O44 1.236 . S
O54 Dy40 2.275 . S
O54 C42 1.254 . S
O55 Dy41 2.339 . S
O55 C42 1.257 . S
C56 C59 1.344 . S
C56 C60 1.328 . S
C56 C62 1.516 . S
C57 C58 1.304 . S
C57 C61 1.323 . S
C58 C57 1.304 . S
C58 C59 1.371 . S
C58 H72 0.930 . S
C59 C56 1.344 . S
C59 C58 1.371 . S
C59 H73 0.931 . S
C60 C56 1.328 . S
C60 C61 1.433 . S
C60 H74 0.931 . S
C61 C57 1.323 . S
C61 C60 1.433 . S
C61 H75 0.933 . S
C62 Dy40 2.738 1_565 S
C62 O45 1.255 . S
C62 O46 1.249 . S
C62 C56 1.516 . S
C63 O47 1.254 . S
C63 O48 1.257 . S
C64 O49 1.266 . S
C64 O50 1.236 . S
C65 C68 1.344 . S
C65 C69 1.328 . S
C65 C71 1.516 . S
C66 C67 1.304 . S
C66 C70 1.323 . S
C67 C66 1.304 . S
C67 C68 1.371 . S
C67 H76 0.930 . S
C68 C65 1.344 . S
C68 C67 1.371 . S
C68 H77 0.931 . S
C69 C65 1.328 . S
C69 C70 1.433 . S
C69 H78 0.931 . S
C70 C66 1.323 . S
C70 C69 1.433 . S
C70 H79 0.933 . S
C71 Dy41 2.738 . S
C71 O51 1.255 . S
C71 O52 1.249 . S
C71 C65 1.516 . S
H72 C58 0.930 . S
H73 C59 0.931 . S
H74 C60 0.931 . S
H75 C61 0.933 . S
H76 C67 0.930 . S
H77 C68 0.931 . S
H78 C69 0.931 . S
H79 C70 0.933 . S
Dy80 O83 2.307 . S
Dy80 O85 2.395 . S
Dy80 O86 2.379 . S
Dy80 O88 2.339 . S
Dy80 O90 2.298 . S
Dy80 O94 2.275 . S
Dy80 C102 2.738 . S
Dy81 O84 2.298 . S
Dy81 O87 2.275 . S
Dy81 O89 2.307 . S
Dy81 O91 2.395 . S
Dy81 O92 2.379 . S
Dy81 O95 2.339 . S
Dy81 C111 2.738 . S
C82 O94 1.254 . S
C82 O95 1.257 . S
O83 Dy80 2.307 . S
O83 C93 1.266 . S
O84 Dy81 2.298 . S
O84 C93 1.236 . S
O85 Dy80 2.395 . S
O85 C102 1.255 . S
O86 Dy80 2.379 . S
O86 C102 1.249 . S
O87 Dy81 2.275 . S
O87 C103 1.254 . S
O88 Dy80 2.339 . S
O88 C103 1.257 . S
O89 Dy81 2.307 . S
O89 C104 1.266 . S
O90 Dy80 2.298 . S
O90 C104 1.236 . S
O91 Dy81 2.395 . S
O91 C111 1.255 . S
O92 Dy81 2.379 . S
O92 C111 1.249 . S
C93 O83 1.266 . S
C93 O84 1.236 . S
O94 Dy80 2.275 . S
O94 C82 1.254 . S
O95 Dy81 2.339 . S
O95 C82 1.257 . S
C96 C99 1.344 . S
C96 C100 1.328 . S
C96 C102 1.516 . S
C97 C98 1.304 . S
C97 C101 1.323 . S
C98 C97 1.304 . S
C98 C99 1.371 . S
C98 H112 0.930 . S
C99 C96 1.344 . S
C99 C98 1.371 . S
C99 H113 0.931 . S
C100 C96 1.328 . S
C100 C101 1.433 . S
C100 H114 0.931 . S
C101 C97 1.323 . S
C101 C100 1.433 . S
C101 H115 0.933 . S
C102 Dy80 2.738 . S
C102 O85 1.255 . S
C102 O86 1.249 . S
C102 C96 1.516 . S
C103 O87 1.254 . S
C103 O88 1.257 . S
C104 O89 1.266 . S
C104 O90 1.236 . S
C105 C108 1.344 . S
C105 C109 1.328 . S
C105 C111 1.516 . S
C106 C107 1.304 . S
C106 C110 1.323 . S
C107 C106 1.304 . S
C107 C108 1.371 . S
C107 H116 0.930 . S
C108 C105 1.344 . S
C108 C107 1.371 . S
C108 H117 0.931 . S
C109 C105 1.328 . S
C109 C110 1.433 . S
C109 H118 0.931 . S
C110 C106 1.323 . S
C110 C109 1.433 . S
C110 H119 0.933 . S
C111 Dy81 2.738 . S
C111 O91 1.255 . S
C111 O92 1.249 . S
C111 C105 1.516 . S
H112 C98 0.930 . S
H113 C99 0.931 . S
H114 C100 0.931 . S
H115 C101 0.933 . S
H116 C107 0.930 . S
H117 C108 0.931 . S
H118 C109 0.931 . S
H119 C110 0.933 . S
H120 C127 0.929 . S
H121 C130 0.930 . S
H122 C132 0.929 . S
H123 C124 0.969 1_545 S
C124 H123 0.969 1_565 S
C124 O125 1.550 1_565 S
C124 H126 0.973 . S
O125 C124 1.550 1_545 S
O125 C131 1.412 . S
H126 C124 0.973 . S
C127 H120 0.929 . S
C127 C128 1.400 . S
C127 C129 1.364 . S
C128 C127 1.400 . S
C128 C132 1.377 . S
C129 C127 1.364 . S
C129 C130 1.374 . S
C130 H121 0.930 . S
C130 C129 1.374 . S
C130 C131 1.383 . S
C131 O125 1.412 . S
C131 C130 1.383 . S
C131 C132 1.394 . S
C132 H122 0.929 . S
C132 C128 1.377 . S
C132 C131 1.394 . S
H133 C140 0.929 . S
H134 C143 0.930 . S
H135 C145 0.929 . S
H136 C137 0.969 . S
C137 H136 0.969 . S
C137 O138 1.550 . S
C137 H139 0.973 . S
O138 C137 1.550 . S
O138 C144 1.412 . S
H139 C137 0.973 . S
C140 H133 0.929 . S
C140 C141 1.400 . S
C140 C142 1.364 . S
C141 C140 1.400 . S
C141 C145 1.377 . S
C142 C140 1.364 . S
C142 C143 1.374 . S
C143 H134 0.930 . S
C143 C142 1.374 . S
C143 C144 1.383 . S
C144 O138 1.412 . S
C144 C143 1.383 . S
C144 C145 1.394 . S
C145 H135 0.929 . S
C145 C141 1.377 . S
C145 C144 1.394 . S
H146 C153 0.929 . S
H147 C156 0.930 . S
H148 C158 0.929 . S
H149 C150 0.969 . S
C150 H149 0.969 . S
C150 O151 1.550 . S
C150 H152 0.973 . S
O151 C150 1.550 . S
O151 C157 1.412 . S
H152 C150 0.973 . S
C153 H146 0.929 . S
C153 C154 1.400 . S
C153 C155 1.364 . S
C154 C153 1.400 . S
C154 C158 1.377 . S
C155 C153 1.364 . S
C155 C156 1.374 . S
C156 H147 0.930 . S
C156 C155 1.374 . S
C156 C157 1.383 . S
C157 O151 1.412 . S
C157 C156 1.383 . S
C157 C158 1.394 . S
C158 H148 0.929 . S
C158 C154 1.377 . S
C158 C157 1.394 . S
H159 C166 0.929 . S
H160 C169 0.930 . S
H161 C171 0.929 . S
H162 C163 0.969 . S
C163 H162 0.969 . S
C163 O164 1.550 . S
C163 H165 0.973 . S
O164 C163 1.550 . S
O164 C170 1.412 . S
H165 C163 0.973 . S
C166 H159 0.929 . S
C166 C167 1.400 . S
C166 C168 1.364 . S
C167 C166 1.400 . S
C167 C171 1.377 . S
C168 C166 1.364 . S
C168 C169 1.374 . S
C169 H160 0.930 . S
C169 C168 1.374 . S
C169 C170 1.383 . S
C170 O164 1.412 . S
C170 C169 1.383 . S
C170 C171 1.394 . S
C171 H161 0.929 . S
C171 C167 1.377 . S
C171 C170 1.394 . S
H172 C179 0.929 . S
H173 C182 0.930 . S
H174 C184 0.929 . S
H175 C176 0.969 . S
C176 H175 0.969 . S
C176 O177 1.550 . S
C176 H178 0.973 . S
O177 C176 1.550 . S
O177 C183 1.412 . S
H178 C176 0.973 . S
C179 H172 0.929 . S
C179 C180 1.400 . S
C179 C181 1.364 1_565 S
C180 C179 1.400 . S
C180 C184 1.377 . S
C181 C179 1.364 1_545 S
C181 C182 1.374 . S
C182 H173 0.930 . S
C182 C181 1.374 . S
C182 C183 1.383 . S
C183 O177 1.412 . S
C183 C182 1.383 . S
C183 C184 1.394 1_545 S
C184 H174 0.929 . S
C184 C180 1.377 . S
C184 C183 1.394 1_565 S
H185 C192 0.929 . S
H186 C195 0.930 . S
H187 C197 0.929 . S
H188 C189 0.969 . S
C189 H188 0.969 . S
C189 O190 1.550 . S
C189 H191 0.973 . S
O190 C189 1.550 . S
O190 C196 1.412 . S
H191 C189 0.973 . S
C192 H185 0.929 . S
C192 C193 1.400 . S
C192 C194 1.364 . S
C193 C192 1.400 . S
C193 C197 1.377 . S
C194 C192 1.364 . S
C194 C195 1.374 . S
C195 H186 0.930 . S
C195 C194 1.374 . S
C195 C196 1.383 . S
C196 O190 1.412 . S
C196 C195 1.383 . S
C196 C197 1.394 . S
C197 H187 0.929 . S
C197 C193 1.377 . S
C197 C196 1.394 . S
H198 C216 0.951 . S
H199 C218 0.951 . S
H200 C220 0.950 . S
H201 C221 0.950 . S
H202 C223 0.950 . S
H203 C226 0.950 . S
H204 C227 0.950 . S
H205 C229 0.950 . S
H206 C230 0.950 . S
H207 C231 0.951 . S
H208 C233 0.951 . S
H209 C235 0.950 . S
H210 C236 0.950 . S
H211 C238 0.950 . S
H212 C241 0.950 . S
H213 C242 0.950 . S
H214 C244 0.950 . S
H215 C245 0.950 . S
C216 H198 0.951 . S
C216 C217 1.366 . S
C216 C218 1.388 . S
C217 C216 1.366 . S
C217 C221 1.385 . S
C218 H199 0.951 . S
C218 C216 1.388 . S
C218 C219 1.366 . S
C219 C218 1.366 . S
C219 C220 1.414 . S
C219 C222 1.499 . S
C220 H200 0.950 . S
C220 C219 1.414 . S
C220 C221 1.374 . S
C221 H201 0.950 . S
C221 C217 1.385 . S
C221 C220 1.374 . S
C222 C219 1.499 . S
C222 C223 1.373 . S
C222 C224 1.389 . S
C223 H202 0.950 . S
C223 C222 1.373 . S
C223 C239 1.377 . S
C224 C222 1.389 . S
C224 C225 1.524 . S
C224 C238 1.377 . S
C225 C224 1.524 . S
C225 C226 1.397 . S
C225 C230 1.363 . S
C226 H203 0.950 . S
C226 C225 1.397 . S
C226 C227 1.334 . S
C227 H204 0.950 . S
C227 C226 1.334 . S
C227 C228 1.287 . S
C228 C227 1.287 . S
C228 C229 1.524 . S
C228 H247 0.913 . S
C229 H205 0.950 . S
C229 C228 1.524 . S
C229 C230 1.415 . S
C230 H206 0.950 . S
C230 C225 1.363 . S
C230 C229 1.415 . S
C231 H207 0.951 . S
C231 C232 1.366 . S
C231 C233 1.388 . S
C232 C231 1.366 . S
C232 C236 1.385 . S
C233 H208 0.951 . S
C233 C231 1.388 . S
C233 C234 1.366 . S
C234 C233 1.366 . S
C234 C235 1.414 . S
C234 C237 1.499 . S
C235 H209 0.950 . S
C235 C234 1.414 . S
C235 C236 1.374 . S
C236 H210 0.950 . S
C236 C232 1.385 . S
C236 C235 1.374 . S
C237 C234 1.499 . S
C237 C238 1.373 . S
C237 C239 1.389 . S
C238 H211 0.950 . S
C238 C224 1.377 . S
C238 C237 1.373 . S
C239 C223 1.377 . S
C239 C237 1.389 . S
C239 C240 1.524 . S
C240 C239 1.524 . S
C240 C241 1.397 . S
C240 C245 1.363 . S
C241 H212 0.950 . S
C241 C240 1.397 . S
C241 C242 1.334 . S
C242 H213 0.950 . S
C242 C241 1.334 . S
C242 C243 1.287 . S
C243 C242 1.287 . S
C243 C244 1.524 . S
C243 H246 0.999 . S
C244 H214 0.950 . S
C244 C243 1.524 . S
C244 C245 1.415 . S
C245 H215 0.950 . S
C245 C240 1.363 . S
C245 C244 1.415 . S
H246 C243 0.999 . S
H247 C228 0.913 . S
H248 C266 0.951 . S
H249 C268 0.951 . S
H250 C270 0.950 . S
H251 C271 0.950 . S
H252 C273 0.950 . S
H253 C276 0.950 . S
H254 C277 0.950 . S
H255 C279 0.950 . S
H256 C280 0.950 . S
H257 C281 0.957 1_455 S
H258 C283 0.951 . S
H259 C285 0.950 . S
H260 C286 0.950 . S
H261 C288 0.950 . S
H262 C291 0.950 . S
H263 C292 0.950 . S
H264 C294 0.950 . S
H265 C295 0.950 . S
C266 H248 0.951 . S
C266 C267 1.366 . S
C266 C268 1.388 . S
C267 C266 1.366 . S
C267 C271 1.385 . S
C268 H249 0.951 . S
C268 C266 1.388 . S
C268 C269 1.366 . S
C269 C268 1.366 . S
C269 C270 1.414 . S
C269 C272 1.499 . S
C270 H250 0.950 . S
C270 C269 1.414 . S
C270 C271 1.374 . S
C271 H251 0.950 . S
C271 C267 1.385 . S
C271 C270 1.374 . S
C272 C269 1.499 . S
C272 C273 1.373 . S
C272 C274 1.389 . S
C273 H252 0.950 . S
C273 C272 1.373 . S
C273 C289 1.377 . S
C274 C272 1.389 . S
C274 C275 1.524 . S
C274 C288 1.377 . S
C275 C274 1.524 . S
C275 C276 1.397 . S
C275 C280 1.363 . S
C276 H253 0.950 . S
C276 C275 1.397 . S
C276 C277 1.334 . S
C277 H254 0.950 . S
C277 C276 1.334 . S
C277 C278 1.287 . S
C278 C277 1.287 . S
C278 C279 1.524 . S
C278 H297 0.913 . S
C279 H255 0.950 . S
C279 C278 1.524 . S
C279 C280 1.415 . S
C280 H256 0.950 . S
C280 C275 1.363 . S
C280 C279 1.415 . S
C281 H257 0.957 1_655 S
C281 C282 1.343 1_655 S
C281 C283 1.405 . S
C282 C281 1.343 1_455 S
C282 C286 1.385 . S
C283 H258 0.951 . S
C283 C281 1.405 . S
C283 C284 1.366 . S
C284 C283 1.366 . S
C284 C285 1.414 . S
C284 C287 1.499 . S
C285 H259 0.950 . S
C285 C284 1.414 . S
C285 C286 1.374 1_655 S
C286 H260 0.950 . S
C286 C282 1.385 . S
C286 C285 1.374 1_455 S
C287 C284 1.499 . S
C287 C288 1.373 . S
C287 C289 1.389 . S
C288 H261 0.950 . S
C288 C274 1.377 . S
C288 C287 1.373 . S
C289 C273 1.377 . S
C289 C287 1.389 . S
C289 C290 1.524 . S
C290 C289 1.524 . S
C290 C291 1.397 . S
C290 C295 1.363 . S
C291 H262 0.950 . S
C291 C290 1.397 . S
C291 C292 1.334 . S
C292 H263 0.950 . S
C292 C291 1.334 . S
C292 C293 1.287 . S
C293 C292 1.287 . S
C293 C294 1.524 . S
C293 H296 0.999 . S
C294 H264 0.950 . S
C294 C293 1.524 . S
C294 C295 1.415 . S
C295 H265 0.950 . S
C295 C290 1.363 . S
C295 C294 1.415 . S
H296 C293 0.999 . S
H297 C278 0.913 . S
H298 C316 0.951 . S
H299 C318 0.951 . S
H300 C320 0.950 . S
H301 C321 0.950 . S
H302 C323 0.950 . S
H303 C326 0.950 . S
H304 C327 0.950 . S
H305 C329 0.950 . S
H306 C330 0.950 . S
H307 C331 0.951 . S
H308 C333 0.951 . S
H309 C335 0.950 . S
H310 C336 0.950 . S
H311 C338 0.950 . S
H312 C341 0.950 . S
H313 C342 0.950 . S
H314 C344 0.950 . S
H315 C345 0.950 . S
C316 H298 0.951 . S
C316 C317 1.366 . S
C316 C318 1.388 . S
C317 C316 1.366 . S
C317 C321 1.385 . S
C318 H299 0.951 . S
C318 C316 1.388 . S
C318 C319 1.366 . S
C319 C318 1.366 . S
C319 C320 1.414 . S
C319 C322 1.499 . S
C320 H300 0.950 . S
C320 C319 1.414 . S
C320 C321 1.374 . S
C321 H301 0.950 . S
C321 C317 1.385 . S
C321 C320 1.374 . S
C322 C319 1.499 . S
C322 C323 1.373 . S
C322 C324 1.389 . S
C323 H302 0.950 . S
C323 C322 1.373 . S
C323 C339 1.377 . S
C324 C322 1.389 . S
C324 C325 1.524 . S
C324 C338 1.377 . S
C325 C324 1.524 . S
C325 C326 1.397 . S
C325 C330 1.363 . S
C326 H303 0.950 . S
C326 C325 1.397 . S
C326 C327 1.334 . S
C327 H304 0.950 . S
C327 C326 1.334 . S
C327 C328 1.287 . S
C328 C327 1.287 . S
C328 C329 1.524 . S
C328 H347 0.913 . S
C329 H305 0.950 . S
C329 C328 1.524 . S
C329 C330 1.415 . S
C330 H306 0.950 . S
C330 C325 1.363 . S
C330 C329 1.415 . S
C331 H307 0.951 . S
C331 C332 1.366 . S
C331 C333 1.388 . S
C332 C331 1.366 . S
C332 C336 1.385 . S
C333 H308 0.951 . S
C333 C331 1.388 . S
C333 C334 1.366 . S
C334 C333 1.366 . S
C334 C335 1.414 . S
C334 C337 1.499 . S
C335 H309 0.950 . S
C335 C334 1.414 . S
C335 C336 1.374 . S
C336 H310 0.950 . S
C336 C332 1.385 . S
C336 C335 1.374 . S
C337 C334 1.499 . S
C337 C338 1.373 . S
C337 C339 1.389 . S
C338 H311 0.950 . S
C338 C324 1.377 . S
C338 C337 1.373 . S
C339 C323 1.377 . S
C339 C337 1.389 . S
C339 C340 1.524 . S
C340 C339 1.524 . S
C340 C341 1.397 . S
C340 C345 1.363 . S
C341 H312 0.950 . S
C341 C340 1.397 . S
C341 C342 1.334 . S
C342 H313 0.950 . S
C342 C341 1.334 . S
C342 C343 1.287 . S
C343 C342 1.287 . S
C343 C344 1.524 . S
C343 H346 0.999 . S
C344 H314 0.950 . S
C344 C343 1.524 . S
C344 C345 1.415 . S
C345 H315 0.950 . S
C345 C340 1.363 . S
C345 C344 1.415 . S
H346 C343 0.999 . S
H347 C328 0.913 . S
H348 C366 0.951 . S
H349 C368 0.951 . S
H350 C370 0.950 . S
H351 C371 0.950 . S
H352 C373 0.950 . S
H353 C376 0.950 . S
H354 C377 0.950 . S
H355 C379 0.950 . S
H356 C380 0.950 . S
H357 C381 0.951 . S
H358 C383 0.951 . S
H359 C385 0.950 . S
H360 C386 0.950 . S
H361 C388 0.950 . S
H362 C391 0.950 . S
H363 C392 0.950 . S
H364 C394 0.950 . S
H365 C395 0.950 . S
C366 H348 0.951 . S
C366 C367 1.366 . S
C366 C368 1.388 . S
C367 C366 1.366 . S
C367 C371 1.385 . S
C368 H349 0.951 . S
C368 C366 1.388 . S
C368 C369 1.366 . S
C369 C368 1.366 . S
C369 C370 1.414 . S
C369 C372 1.499 . S
C370 H350 0.950 . S
C370 C369 1.414 . S
C370 C371 1.374 . S
C371 H351 0.950 . S
C371 C367 1.385 . S
C371 C370 1.374 . S
C372 C369 1.499 . S
C372 C373 1.373 . S
C372 C374 1.389 . S
C373 H352 0.950 . S
C373 C372 1.373 . S
C373 C389 1.377 . S
C374 C372 1.389 . S
C374 C375 1.524 . S
C374 C388 1.377 . S
C375 C374 1.524 . S
C375 C376 1.397 . S
C375 C380 1.363 . S
C376 H353 0.950 . S
C376 C375 1.397 . S
C376 C377 1.334 . S
C377 H354 0.950 . S
C377 C376 1.334 . S
C377 C378 1.287 . S
C378 C377 1.287 . S
C378 C379 1.524 . S
C378 H397 0.913 . S
C379 H355 0.950 . S
C379 C378 1.524 . S
C379 C380 1.415 . S
C380 H356 0.950 . S
C380 C375 1.363 . S
C380 C379 1.415 . S
C381 H357 0.951 . S
C381 C382 1.366 . S
C381 C383 1.388 . S
C382 C381 1.366 . S
C382 C386 1.385 . S
C383 H358 0.951 . S
C383 C381 1.388 . S
C383 C384 1.366 . S
C384 C383 1.366 . S
C384 C385 1.414 . S
C384 C387 1.499 . S
C385 H359 0.950 . S
C385 C384 1.414 . S
C385 C386 1.374 . S
C386 H360 0.950 . S
C386 C382 1.385 . S
C386 C385 1.374 . S
C387 C384 1.499 . S
C387 C388 1.373 . S
C387 C389 1.389 . S
C388 H361 0.950 . S
C388 C374 1.377 . S
C388 C387 1.373 . S
C389 C373 1.377 . S
C389 C387 1.389 . S
C389 C390 1.524 . S
C390 C389 1.524 . S
C390 C391 1.397 . S
C390 C395 1.363 . S
C391 H362 0.950 . S
C391 C390 1.397 . S
C391 C392 1.334 . S
C392 H363 0.950 . S
C392 C391 1.334 . S
C392 C393 1.287 . S
C393 C392 1.287 . S
C393 C394 1.524 . S
C393 H396 0.999 . S
C394 H364 0.950 . S
C394 C393 1.524 . S
C394 C395 1.415 . S
C395 H365 0.950 . S
C395 C390 1.363 . S
C395 C394 1.415 . S
H396 C393 0.999 . S
H397 C378 0.913 . S
H398 C416 0.951 . S
H399 C418 0.951 . S
H400 C420 0.950 . S
H401 C421 0.950 . S
H402 C423 0.950 . S
H403 C426 0.950 . S
H404 C427 0.950 . S
H405 C429 0.950 . S
H406 C430 0.950 . S
H407 C431 0.951 . S
H408 C433 0.951 . S
H409 C435 0.950 . S
H410 C436 0.950 . S
H411 C438 0.950 . S
H412 C441 0.950 . S
H413 C442 0.950 . S
H414 C444 0.950 . S
H415 C445 0.950 . S
C416 H398 0.951 . S
C416 C417 1.366 . S
C416 C418 1.388 . S
C417 C416 1.366 . S
C417 C421 1.385 . S
C418 H399 0.951 . S
C418 C416 1.388 . S
C418 C419 1.366 . S
C419 C418 1.366 . S
C419 C420 1.414 . S
C419 C422 1.499 . S
C420 H400 0.950 . S
C420 C419 1.414 . S
C420 C421 1.374 . S
C421 H401 0.950 . S
C421 C417 1.385 . S
C421 C420 1.374 . S
C422 C419 1.499 . S
C422 C423 1.373 . S
C422 C424 1.389 . S
C423 H402 0.950 . S
C423 C422 1.373 . S
C423 C439 1.377 . S
C424 C422 1.389 . S
C424 C425 1.524 . S
C424 C438 1.377 . S
C425 C424 1.524 . S
C425 C426 1.397 . S
C425 C430 1.363 . S
C426 H403 0.950 . S
C426 C425 1.397 . S
C426 C427 1.334 . S
C427 H404 0.950 . S
C427 C426 1.334 . S
C427 C428 1.287 . S
C428 C427 1.287 . S
C428 C429 1.524 . S
C428 H447 0.913 . S
C429 H405 0.950 . S
C429 C428 1.524 . S
C429 C430 1.415 . S
C430 H406 0.950 . S
C430 C425 1.363 . S
C430 C429 1.415 . S
C431 H407 0.951 . S
C431 C432 1.366 . S
C431 C433 1.388 . S
C432 C431 1.366 . S
C432 C436 1.385 . S
C433 H408 0.951 . S
C433 C431 1.388 . S
C433 C434 1.366 . S
C434 C433 1.366 . S
C434 C435 1.414 . S
C434 C437 1.499 . S
C435 H409 0.950 . S
C435 C434 1.414 . S
C435 C436 1.374 . S
C436 H410 0.950 . S
C436 C432 1.385 . S
C436 C435 1.374 . S
C437 C434 1.499 . S
C437 C438 1.373 . S
C437 C439 1.389 . S
C438 H411 0.950 . S
C438 C424 1.377 . S
C438 C437 1.373 . S
C439 C423 1.377 . S
C439 C437 1.389 . S
C439 C440 1.524 . S
C440 C439 1.524 . S
C440 C441 1.397 . S
C440 C445 1.363 . S
C441 H412 0.950 . S
C441 C440 1.397 . S
C441 C442 1.334 . S
C442 H413 0.950 . S
C442 C441 1.334 . S
C442 C443 1.287 . S
C443 C442 1.287 . S
C443 C444 1.524 . S
C443 H446 0.999 . S
C444 H414 0.950 . S
C444 C443 1.524 . S
C444 C445 1.415 . S
C445 H415 0.950 . S
C445 C440 1.363 . S
C445 C444 1.415 . S
H446 C443 0.999 . S
H447 C428 0.913 . S
H448 C466 0.951 . S
H449 C468 0.951 . S
H450 C470 0.950 . S
H451 C471 0.950 . S
H452 C473 0.950 . S
H453 C476 0.950 . S
H454 C477 0.950 . S
H455 C479 0.950 . S
H456 C480 0.950 . S
H457 C481 0.951 . S
H458 C483 0.951 . S
H459 C485 0.950 . S
H460 C486 0.950 . S
H461 C488 0.950 . S
H462 C491 0.950 . S
H463 C492 0.950 . S
H464 C494 0.950 . S
H465 C495 0.950 . S
C466 H448 0.951 . S
C466 C467 1.366 . S
C466 C468 1.388 . S
C467 C466 1.366 . S
C467 C471 1.385 . S
C468 H449 0.951 . S
C468 C466 1.388 . S
C468 C469 1.366 . S
C469 C468 1.366 . S
C469 C470 1.414 . S
C469 C472 1.499 . S
C470 H450 0.950 . S
C470 C469 1.414 . S
C470 C471 1.374 . S
C471 H451 0.950 . S
C471 C467 1.385 . S
C471 C470 1.374 . S
C472 C469 1.499 . S
C472 C473 1.373 . S
C472 C474 1.389 . S
C473 H452 0.950 . S
C473 C472 1.373 . S
C473 C489 1.377 . S
C474 C472 1.389 . S
C474 C475 1.524 . S
C474 C488 1.377 . S
C475 C474 1.524 . S
C475 C476 1.397 . S
C475 C480 1.363 . S
C476 H453 0.950 . S
C476 C475 1.397 . S
C476 C477 1.334 . S
C477 H454 0.950 . S
C477 C476 1.334 . S
C477 C478 1.287 . S
C478 C477 1.287 . S
C478 C479 1.524 . S
C478 H497 0.913 . S
C479 H455 0.950 . S
C479 C478 1.524 . S
C479 C480 1.415 . S
C480 H456 0.950 . S
C480 C475 1.363 . S
C480 C479 1.415 . S
C481 H457 0.951 . S
C481 C482 1.366 . S
C481 C483 1.388 . S
C482 C481 1.366 . S
C482 C486 1.385 . S
C483 H458 0.951 . S
C483 C481 1.388 . S
C483 C484 1.366 . S
C484 C483 1.366 . S
C484 C485 1.414 . S
C484 C487 1.499 . S
C485 H459 0.950 . S
C485 C484 1.414 . S
C485 C486 1.374 . S
C486 H460 0.950 . S
C486 C482 1.385 . S
C486 C485 1.374 . S
C487 C484 1.499 . S
C487 C488 1.373 . S
C487 C489 1.389 . S
C488 H461 0.950 . S
C488 C474 1.377 . S
C488 C487 1.373 . S
C489 C473 1.377 . S
C489 C487 1.389 . S
C489 C490 1.524 . S
C490 C489 1.524 . S
C490 C491 1.397 . S
C490 C495 1.363 . S
C491 H462 0.950 . S
C491 C490 1.397 . S
C491 C492 1.334 . S
C492 H463 0.950 . S
C492 C491 1.334 . S
C492 C493 1.287 . S
C493 C492 1.287 . S
C493 C494 1.524 . S
C493 H496 0.999 . S
C494 H464 0.950 . S
C494 C493 1.524 . S
C494 C495 1.415 . S
C495 H465 0.950 . S
C495 C490 1.363 . S
C495 C494 1.415 . S
H496 C493 0.999 . S
H497 C478 0.913 . S
H498 C516 0.951 . S
H499 C518 0.951 . S
H500 C520 0.950 . S
H501 C521 0.950 . S
H502 C523 0.950 . S
H503 C526 0.950 . S
H504 C527 0.950 . S
H505 C529 0.950 . S
H506 C530 0.950 . S
H507 C531 0.951 . S
H508 C533 0.951 . S
H509 C535 0.950 . S
H510 C536 0.950 . S
H511 C538 0.950 . S
H512 C541 0.950 . S
H513 C542 0.950 . S
H514 C544 0.950 . S
H515 C545 0.950 . S
C516 H498 0.951 . S
C516 C517 1.366 . S
C516 C518 1.388 . S
C517 C516 1.366 . S
C517 C521 1.385 . S
C518 H499 0.951 . S
C518 C516 1.388 . S
C518 C519 1.366 . S
C519 C518 1.366 . S
C519 C520 1.414 . S
C519 C522 1.499 . S
C520 H500 0.950 . S
C520 C519 1.414 . S
C520 C521 1.374 . S
C521 H501 0.950 . S
C521 C517 1.385 . S
C521 C520 1.374 . S
C522 C519 1.499 . S
C522 C523 1.373 . S
C522 C524 1.389 . S
C523 H502 0.950 . S
C523 C522 1.373 . S
C523 C539 1.377 . S
C524 C522 1.389 . S
C524 C525 1.524 . S
C524 C538 1.377 . S
C525 C524 1.524 . S
C525 C526 1.397 . S
C525 C530 1.363 . S
C526 H503 0.950 . S
C526 C525 1.397 . S
C526 C527 1.334 . S
C527 H504 0.950 . S
C527 C526 1.334 . S
C527 C528 1.287 . S
C528 C527 1.287 . S
C528 C529 1.524 . S
C528 H547 0.913 . S
C529 H505 0.950 . S
C529 C528 1.524 . S
C529 C530 1.415 . S
C530 H506 0.950 . S
C530 C525 1.363 . S
C530 C529 1.415 . S
C531 H507 0.951 . S
C531 C532 1.366 . S
C531 C533 1.388 . S
C532 C531 1.366 . S
C532 C536 1.385 . S
C533 H508 0.951 . S
C533 C531 1.388 . S
C533 C534 1.366 . S
C534 C533 1.366 . S
C534 C535 1.414 . S
C534 C537 1.499 . S
C535 H509 0.950 . S
C535 C534 1.414 . S
C535 C536 1.374 . S
C536 H510 0.950 . S
C536 C532 1.385 . S
C536 C535 1.374 . S
C537 C534 1.499 . S
C537 C538 1.373 . S
C537 C539 1.389 . S
C538 H511 0.950 . S
C538 C524 1.377 . S
C538 C537 1.373 . S
C539 C523 1.377 . S
C539 C537 1.389 . S
C539 C540 1.524 . S
C540 C539 1.524 . S
C540 C541 1.397 . S
C540 C545 1.363 . S
C541 H512 0.950 . S
C541 C540 1.397 . S
C541 C542 1.334 . S
C542 H513 0.950 . S
C542 C541 1.334 . S
C542 C543 1.287 . S
C543 C542 1.287 . S
C543 C544 1.524 . S
C543 H546 0.999 . S
C544 H514 0.950 . S
C544 C543 1.524 . S
C544 C545 1.415 . S
C545 H515 0.950 . S
C545 C540 1.363 . S
C545 C544 1.415 . S
H546 C543 0.999 . S
H547 C528 0.913 . S
H548 C566 0.951 . S
H549 C568 0.951 . S
H550 C570 0.950 . S
H551 C571 0.950 . S
H552 C573 0.950 . S
H553 C576 0.950 . S
H554 C577 0.950 . S
H555 C579 0.950 . S
H556 C580 0.950 . S
H557 C581 0.951 . S
H558 C583 0.951 . S
H559 C585 0.950 . S
H560 C586 0.950 . S
H561 C588 0.950 . S
H562 C591 0.950 . S
H563 C592 0.950 1_455 S
H564 C594 0.950 . S
H565 C595 0.950 . S
C566 H548 0.951 . S
C566 C567 1.366 . S
C566 C568 1.388 . S
C567 C566 1.366 . S
C567 C571 1.385 . S
C568 H549 0.951 . S
C568 C566 1.388 . S
C568 C569 1.366 . S
C569 C568 1.366 . S
C569 C570 1.414 . S
C569 C572 1.499 . S
C570 H550 0.950 . S
C570 C569 1.414 . S
C570 C571 1.374 . S
C571 H551 0.950 . S
C571 C567 1.385 . S
C571 C570 1.374 . S
C572 C569 1.499 . S
C572 C573 1.373 . S
C572 C574 1.389 . S
C573 H552 0.950 . S
C573 C572 1.373 . S
C573 C589 1.377 . S
C574 C572 1.389 . S
C574 C575 1.524 . S
C574 C588 1.377 . S
C575 C574 1.524 . S
C575 C576 1.397 . S
C575 C580 1.363 . S
C576 H553 0.950 . S
C576 C575 1.397 . S
C576 C577 1.334 . S
C577 H554 0.950 . S
C577 C576 1.334 . S
C577 C578 1.287 . S
C578 C577 1.287 . S
C578 C579 1.524 . S
C578 H597 0.913 . S
C579 H555 0.950 . S
C579 C578 1.524 . S
C579 C580 1.415 . S
C580 H556 0.950 . S
C580 C575 1.363 . S
C580 C579 1.415 . S
C581 H557 0.951 . S
C581 C582 1.366 . S
C581 C583 1.388 1_455 S
C582 C581 1.366 . S
C582 C586 1.385 . S
C583 H558 0.951 . S
C583 C581 1.388 1_655 S
C583 C584 1.366 . S
C584 C583 1.366 . S
C584 C585 1.414 . S
C584 C587 1.499 . S
C585 H559 0.950 . S
C585 C584 1.414 . S
C585 C586 1.374 1_655 S
C586 H560 0.950 . S
C586 C582 1.385 . S
C586 C585 1.374 1_455 S
C587 C584 1.499 . S
C587 C588 1.373 . S
C587 C589 1.389 . S
C588 H561 0.950 . S
C588 C574 1.377 . S
C588 C587 1.373 . S
C589 C573 1.377 . S
C589 C587 1.389 . S
C589 C590 1.524 . S
C590 C589 1.524 . S
C590 C591 1.397 . S
C590 C595 1.363 . S
C591 H562 0.950 . S
C591 C590 1.397 . S
C591 C592 1.334 . S
C592 H563 0.950 1_655 S
C592 C591 1.334 . S
C592 C593 1.287 . S
C593 C592 1.287 . S
C593 C594 1.524 . S
C593 H596 0.999 . S
C594 H564 0.950 . S
C594 C593 1.524 . S
C594 C595 1.415 . S
C595 H565 0.950 . S
C595 C590 1.363 . S
C595 C594 1.415 . S
H596 C593 0.999 . S
H597 C578 0.913 . S
H598 C616 0.951 . S
H599 C618 0.951 . S
H600 C620 0.950 . S
H601 C621 0.950 . S
H602 C623 0.950 . S
H603 C626 0.950 . S
H604 C627 0.950 . S
H605 C629 0.950 . S
H606 C630 0.950 . S
H607 C631 0.951 . S
H608 C633 0.951 . S
H609 C635 0.950 . S
H610 C636 0.950 . S
H611 C638 0.950 . S
H612 C641 0.950 . S
H613 C642 0.950 . S
H614 C644 0.950 . S
H615 C645 0.950 . S
C616 H598 0.951 . S
C616 C617 1.366 . S
C616 C618 1.388 . S
C617 C616 1.366 . S
C617 C621 1.385 . S
C618 H599 0.951 . S
C618 C616 1.388 . S
C618 C619 1.366 . S
C619 C618 1.366 . S
C619 C620 1.414 . S
C619 C622 1.499 . S
C620 H600 0.950 . S
C620 C619 1.414 . S
C620 C621 1.374 . S
C621 H601 0.950 . S
C621 C617 1.385 . S
C621 C620 1.374 . S
C622 C619 1.499 . S
C622 C623 1.373 . S
C622 C624 1.389 . S
C623 H602 0.950 . S
C623 C622 1.373 . S
C623 C639 1.377 . S
C624 C622 1.389 . S
C624 C625 1.524 . S
C624 C638 1.377 . S
C625 C624 1.524 . S
C625 C626 1.397 . S
C625 C630 1.363 . S
C626 H603 0.950 . S
C626 C625 1.397 . S
C626 C627 1.334 . S
C627 H604 0.950 . S
C627 C626 1.334 . S
C627 C628 1.287 . S
C628 C627 1.287 . S
C628 C629 1.524 . S
C628 H647 0.913 . S
C629 H605 0.950 . S
C629 C628 1.524 . S
C629 C630 1.415 . S
C630 H606 0.950 . S
C630 C625 1.363 . S
C630 C629 1.415 . S
C631 H607 0.951 . S
C631 C632 1.366 . S
C631 C633 1.388 . S
C632 C631 1.366 . S
C632 C636 1.385 . S
C633 H608 0.951 . S
C633 C631 1.388 . S
C633 C634 1.366 . S
C634 C633 1.366 . S
C634 C635 1.414 . S
C634 C637 1.499 . S
C635 H609 0.950 . S
C635 C634 1.414 . S
C635 C636 1.374 . S
C636 H610 0.950 . S
C636 C632 1.385 . S
C636 C635 1.374 . S
C637 C634 1.499 . S
C637 C638 1.373 . S
C637 C639 1.389 . S
C638 H611 0.950 . S
C638 C624 1.377 . S
C638 C637 1.373 . S
C639 C623 1.377 . S
C639 C637 1.389 . S
C639 C640 1.524 . S
C640 C639 1.524 . S
C640 C641 1.397 . S
C640 C645 1.363 . S
C641 H612 0.950 . S
C641 C640 1.397 . S
C641 C642 1.334 . S
C642 H613 0.950 . S
C642 C641 1.334 . S
C642 C643 1.287 . S
C643 C642 1.287 . S
C643 C644 1.524 . S
C643 H646 0.999 . S
C644 H614 0.950 . S
C644 C643 1.524 . S
C644 C645 1.415 . S
C645 H615 0.950 . S
C645 C640 1.363 . S
C645 C644 1.415 . S
H646 C643 0.999 . S
H647 C628 0.913 . S
H648 C666 0.951 . S
H649 C668 0.951 . S
H650 C670 0.950 . S
H651 C671 0.950 . S
H652 C673 0.950 . S
H653 C676 0.950 . S
H654 C677 0.950 . S
H655 C679 0.950 . S
H656 C680 0.950 . S
H657 C681 0.951 . S
H658 C683 0.951 . S
H659 C685 0.950 . S
H660 C686 0.950 . S
H661 C688 0.950 . S
H662 C691 0.950 . S
H663 C692 0.950 . S
H664 C694 0.950 . S
H665 C695 0.950 . S
C666 H648 0.951 . S
C666 C667 1.366 . S
C666 C668 1.388 . S
C667 C666 1.366 . S
C667 C671 1.385 . S
C668 H649 0.951 . S
C668 C666 1.388 . S
C668 C669 1.366 . S
C669 C668 1.366 . S
C669 C670 1.414 . S
C669 C672 1.499 . S
C670 H650 0.950 . S
C670 C669 1.414 . S
C670 C671 1.374 . S
C671 H651 0.950 . S
C671 C667 1.385 . S
C671 C670 1.374 . S
C672 C669 1.499 . S
C672 C673 1.373 . S
C672 C674 1.389 . S
C673 H652 0.950 . S
C673 C672 1.373 . S
C673 C689 1.377 . S
C674 C672 1.389 . S
C674 C675 1.524 . S
C674 C688 1.377 . S
C675 C674 1.524 . S
C675 C676 1.397 . S
C675 C680 1.363 . S
C676 H653 0.950 . S
C676 C675 1.397 . S
C676 C677 1.334 . S
C677 H654 0.950 . S
C677 C676 1.334 . S
C677 C678 1.287 . S
C678 C677 1.287 . S
C678 C679 1.524 . S
C678 H697 0.913 . S
C679 H655 0.950 . S
C679 C678 1.524 . S
C679 C680 1.415 . S
C680 H656 0.950 . S
C680 C675 1.363 . S
C680 C679 1.415 . S
C681 H657 0.951 . S
C681 C682 1.366 . S
C681 C683 1.388 . S
C682 C681 1.366 . S
C682 C686 1.385 . S
C683 H658 0.951 . S
C683 C681 1.388 . S
C683 C684 1.366 . S
C684 C683 1.366 . S
C684 C685 1.414 . S
C684 C687 1.499 . S
C685 H659 0.950 . S
C685 C684 1.414 . S
C685 C686 1.374 . S
C686 H660 0.950 . S
C686 C682 1.385 . S
C686 C685 1.374 . S
C687 C684 1.499 . S
C687 C688 1.373 . S
C687 C689 1.389 . S
C688 H661 0.950 . S
C688 C674 1.377 . S
C688 C687 1.373 . S
C689 C673 1.377 . S
C689 C687 1.389 . S
C689 C690 1.524 . S
C690 C689 1.524 . S
C690 C691 1.397 . S
C690 C695 1.363 . S
C691 H662 0.950 . S
C691 C690 1.397 . S
C691 C692 1.334 . S
C692 H663 0.950 . S
C692 C691 1.334 . S
C692 C693 1.287 . S
C693 C692 1.287 . S
C693 C694 1.524 . S
C693 H696 0.999 . S
C694 H664 0.950 . S
C694 C693 1.524 . S
C694 C695 1.415 . S
C695 H665 0.950 . S
C695 C690 1.363 . S
C695 C694 1.415 . S
H696 C693 0.999 . S
H697 C678 0.913 . S
H698 C716 0.951 . S
H699 C718 0.951 . S
H700 C720 0.950 . S
H701 C721 0.950 . S
H702 C723 0.950 . S
H703 C726 0.950 . S
H704 C727 0.950 . S
H705 C729 0.950 . S
H706 C730 0.950 . S
H707 C731 0.951 . S
H708 C733 0.951 . S
H709 C735 0.950 . S
H710 C736 0.950 . S
H711 C738 0.950 . S
H712 C741 0.950 . S
H713 C742 0.950 . S
H714 C744 0.950 . S
H715 C745 0.950 . S
C716 H698 0.951 . S
C716 C717 1.366 . S
C716 C718 1.388 . S
C717 C716 1.366 . S
C717 C721 1.385 . S
C718 H699 0.951 . S
C718 C716 1.388 . S
C718 C719 1.366 . S
C719 C718 1.366 . S
C719 C720 1.414 . S
C719 C722 1.499 . S
C720 H700 0.950 . S
C720 C719 1.414 . S
C720 C721 1.374 . S
C721 H701 0.950 . S
C721 C717 1.385 . S
C721 C720 1.374 . S
C722 C719 1.499 . S
C722 C723 1.373 . S
C722 C724 1.389 . S
C723 H702 0.950 . S
C723 C722 1.373 . S
C723 C739 1.377 . S
C724 C722 1.389 . S
C724 C725 1.524 . S
C724 C738 1.377 . S
C725 C724 1.524 . S
C725 C726 1.397 . S
C725 C730 1.363 . S
C726 H703 0.950 . S
C726 C725 1.397 . S
C726 C727 1.334 . S
C727 H704 0.950 . S
C727 C726 1.334 . S
C727 C728 1.287 . S
C728 C727 1.287 . S
C728 C729 1.524 . S
C728 H747 0.913 . S
C729 H705 0.950 . S
C729 C728 1.524 . S
C729 C730 1.415 . S
C730 H706 0.950 . S
C730 C725 1.363 . S
C730 C729 1.415 . S
C731 H707 0.951 . S
C731 C732 1.366 . S
C731 C733 1.388 . S
C732 C731 1.366 . S
C732 C736 1.385 . S
C733 H708 0.951 . S
C733 C731 1.388 . S
C733 C734 1.366 . S
C734 C733 1.366 . S
C734 C735 1.414 . S
C734 C737 1.499 . S
C735 H709 0.950 . S
C735 C734 1.414 . S
C735 C736 1.374 . S
C736 H710 0.950 . S
C736 C732 1.385 . S
C736 C735 1.374 . S
C737 C734 1.499 . S
C737 C738 1.373 . S
C737 C739 1.389 . S
C738 H711 0.950 . S
C738 C724 1.377 . S
C738 C737 1.373 . S
C739 C723 1.377 . S
C739 C737 1.389 . S
C739 C740 1.524 . S
C740 C739 1.524 . S
C740 C741 1.397 . S
C740 C745 1.363 . S
C741 H712 0.950 . S
C741 C740 1.397 . S
C741 C742 1.334 . S
C742 H713 0.950 . S
C742 C741 1.334 . S
C742 C743 1.287 . S
C743 C742 1.287 . S
C743 C744 1.524 . S
C743 H746 0.999 . S
C744 H714 0.950 . S
C744 C743 1.524 . S
C744 C745 1.415 . S
C745 H715 0.950 . S
C745 C740 1.363 . S
C745 C744 1.415 . S
H746 C743 0.999 . S
H747 C728 0.913 . S
H748 C766 0.951 . S
H749 C768 0.951 . S
H750 C770 0.950 . S
H751 C771 0.950 . S
H752 C773 0.950 . S
H753 C776 0.950 . S
H754 C777 0.950 . S
H755 C779 0.950 . S
H756 C780 0.950 . S
H757 C781 0.951 . S
H758 C783 0.951 . S
H759 C785 0.950 . S
H760 C786 0.950 . S
H761 C788 0.950 . S
H762 C791 0.950 . S
H763 C792 0.950 . S
H764 C794 0.950 . S
H765 C795 0.950 . S
C766 H748 0.951 . S
C766 C767 1.366 . S
C766 C768 1.388 . S
C767 C766 1.366 . S
C767 C771 1.385 . S
C768 H749 0.951 . S
C768 C766 1.388 . S
C768 C769 1.366 . S
C769 C768 1.366 . S
C769 C770 1.414 . S
C769 C772 1.499 . S
C770 H750 0.950 . S
C770 C769 1.414 . S
C770 C771 1.374 . S
C771 H751 0.950 . S
C771 C767 1.385 . S
C771 C770 1.374 . S
C772 C769 1.499 . S
C772 C773 1.373 . S
C772 C774 1.389 . S
C773 H752 0.950 . S
C773 C772 1.373 . S
C773 C789 1.377 . S
C774 C772 1.389 . S
C774 C775 1.524 . S
C774 C788 1.377 . S
C775 C774 1.524 . S
C775 C776 1.397 . S
C775 C780 1.363 . S
C776 H753 0.950 . S
C776 C775 1.397 . S
C776 C777 1.334 . S
C777 H754 0.950 . S
C777 C776 1.334 . S
C777 C778 1.287 . S
C778 C777 1.287 . S
C778 C779 1.524 . S
C778 H797 0.913 . S
C779 H755 0.950 . S
C779 C778 1.524 . S
C779 C780 1.415 . S
C780 H756 0.950 . S
C780 C775 1.363 . S
C780 C779 1.415 . S
C781 H757 0.951 . S
C781 C782 1.366 . S
C781 C783 1.388 . S
C782 C781 1.366 . S
C782 C786 1.385 . S
C783 H758 0.951 . S
C783 C781 1.388 . S
C783 C784 1.366 . S
C784 C783 1.366 . S
C784 C785 1.414 . S
C784 C787 1.499 . S
C785 H759 0.950 . S
C785 C784 1.414 . S
C785 C786 1.374 . S
C786 H760 0.950 . S
C786 C782 1.385 . S
C786 C785 1.374 . S
C787 C784 1.499 . S
C787 C788 1.373 . S
C787 C789 1.389 . S
C788 H761 0.950 . S
C788 C774 1.377 . S
C788 C787 1.373 . S
C789 C773 1.377 . S
C789 C787 1.389 . S
C789 C790 1.524 . S
C790 C789 1.524 . S
C790 C791 1.397 . S
C790 C795 1.363 . S
C791 H762 0.950 . S
C791 C790 1.397 . S
C791 C792 1.334 . S
C792 H763 0.950 . S
C792 C791 1.334 . S
C792 C793 1.287 . S
C793 C792 1.287 . S
C793 C794 1.524 . S
C793 H796 0.999 . S
C794 H764 0.950 . S
C794 C793 1.524 . S
C794 C795 1.415 . S
C795 H765 0.950 . S
C795 C790 1.363 . S
C795 C794 1.415 . S
H796 C793 0.999 . S
H797 C778 0.913 . S
H798 C816 0.951 . S
H799 C818 0.951 . S
H800 C820 0.950 . S
H801 C821 0.950 . S
H802 C823 0.950 . S
H803 C826 0.950 . S
H804 C827 0.950 . S
H805 C829 0.950 . S
H806 C830 0.950 . S
H807 C831 0.951 . S
H808 C833 0.951 . S
H809 C835 0.950 . S
H810 C836 0.950 . S
H811 C838 0.950 . S
H812 C841 0.950 . S
H813 C842 0.950 . S
H814 C844 0.950 . S
H815 C845 0.950 . S
C816 H798 0.951 . S
C816 C817 1.366 . S
C816 C818 1.388 . S
C817 C816 1.366 . S
C817 C821 1.385 . S
C818 H799 0.951 . S
C818 C816 1.388 . S
C818 C819 1.366 . S
C819 C818 1.366 . S
C819 C820 1.414 . S
C819 C822 1.499 . S
C820 H800 0.950 . S
C820 C819 1.414 . S
C820 C821 1.374 . S
C821 H801 0.950 . S
C821 C817 1.385 . S
C821 C820 1.374 . S
C822 C819 1.499 . S
C822 C823 1.373 . S
C822 C824 1.389 . S
C823 H802 0.950 . S
C823 C822 1.373 . S
C823 C839 1.360 1_554 S
C824 C822 1.389 . S
C824 C825 1.524 . S
C824 C838 1.377 . S
C825 C824 1.524 . S
C825 C826 1.397 . S
C825 C830 1.363 . S
C826 H803 0.950 . S
C826 C825 1.397 . S
C826 C827 1.334 . S
C827 H804 0.950 . S
C827 C826 1.334 . S
C827 C828 1.287 . S
C828 C827 1.287 . S
C828 C829 1.524 . S
C828 H847 0.913 . S
C829 H805 0.950 . S
C829 C828 1.524 . S
C829 C830 1.415 . S
C830 H806 0.950 . S
C830 C825 1.363 . S
C830 C829 1.415 . S
C831 H807 0.951 . S
C831 C832 1.366 . S
C831 C833 1.388 . S
C832 C831 1.366 . S
C832 C836 1.385 . S
C833 H808 0.951 . S
C833 C831 1.388 . S
C833 C834 1.366 . S
C834 C833 1.366 . S
C834 C835 1.414 . S
C834 C837 1.499 . S
C835 H809 0.950 . S
C835 C834 1.414 . S
C835 C836 1.374 . S
C836 H810 0.950 . S
C836 C832 1.385 . S
C836 C835 1.374 . S
C837 C834 1.499 . S
C837 C838 1.373 1_556 S
C837 C839 1.397 . S
C838 H811 0.950 . S
C838 C824 1.377 . S
C838 C837 1.373 1_554 S
C839 C823 1.360 1_556 S
C839 C837 1.397 . S
C839 C840 1.533 1_455 S
C840 C839 1.533 1_655 S
C840 C841 1.397 . S
C840 C845 1.363 . S
C841 H812 0.950 . S
C841 C840 1.397 . S
C841 C842 1.334 . S
C842 H813 0.950 . S
C842 C841 1.334 . S
C842 C843 1.287 . S
C843 C842 1.287 . S
C843 C844 1.524 . S
C843 H846 0.999 . S
C844 H814 0.950 . S
C844 C843 1.524 . S
C844 C845 1.415 . S
C845 H815 0.950 . S
C845 C840 1.363 . S
C845 C844 1.415 . S
H846 C843 0.999 . S
H847 C828 0.913 . S
H848 C866 0.951 . S
H849 C868 0.951 . S
H850 C870 0.950 . S
H851 C871 0.950 . S
H852 C873 0.950 . S
H853 C876 0.950 . S
H854 C877 0.950 . S
H855 C879 0.950 . S
H856 C880 0.950 . S
H857 C881 0.951 . S
H858 C883 0.951 . S
H859 C885 0.950 . S
H860 C886 0.950 . S
H861 C888 0.950 . S
H862 C891 0.950 . S
H863 C892 0.950 . S
H864 C894 0.950 . S
H865 C895 0.950 . S
C866 H848 0.951 . S
C866 C867 1.366 . S
C866 C868 1.388 . S
C867 C866 1.366 . S
C867 C871 1.385 . S
C868 H849 0.951 . S
C868 C866 1.388 . S
C868 C869 1.366 . S
C869 C868 1.366 . S
C869 C870 1.414 . S
C869 C872 1.499 . S
C870 H850 0.950 . S
C870 C869 1.414 . S
C870 C871 1.374 . S
C871 H851 0.950 . S
C871 C867 1.385 . S
C871 C870 1.374 . S
C872 C869 1.499 . S
C872 C873 1.373 . S
C872 C874 1.389 . S
C873 H852 0.950 . S
C873 C872 1.373 . S
C873 C889 1.377 . S
C874 C872 1.389 . S
C874 C875 1.524 1_545 S
C874 C888 1.377 . S
C875 C874 1.524 1_565 S
C875 C876 1.397 . S
C875 C880 1.363 . S
C876 H853 0.950 . S
C876 C875 1.397 . S
C876 C877 1.334 . S
C877 H854 0.950 . S
C877 C876 1.334 . S
C877 C878 1.287 . S
C878 C877 1.287 . S
C878 C879 1.524 . S
C878 H897 0.913 . S
C879 H855 0.950 . S
C879 C878 1.524 . S
C879 C880 1.415 . S
C880 H856 0.950 . S
C880 C875 1.363 . S
C880 C879 1.415 . S
C881 H857 0.951 . S
C881 C882 1.366 . S
C881 C883 1.388 . S
C882 C881 1.366 . S
C882 C886 1.385 . S
C883 H858 0.951 . S
C883 C881 1.388 . S
C883 C884 1.366 . S
C884 C883 1.366 . S
C884 C885 1.414 . S
C884 C887 1.499 . S
C885 H859 0.950 . S
C885 C884 1.414 . S
C885 C886 1.374 . S
C886 H860 0.950 . S
C886 C882 1.385 . S
C886 C885 1.374 . S
C887 C884 1.499 . S
C887 C888 1.373 . S
C887 C889 1.389 . S
C888 H861 0.950 . S
C888 C874 1.377 . S
C888 C887 1.373 . S
C889 C873 1.377 . S
C889 C887 1.389 . S
C889 C890 1.524 . S
C890 C889 1.524 . S
C890 C891 1.397 . S
C890 C895 1.363 . S
C891 H862 0.950 . S
C891 C890 1.397 . S
C891 C892 1.334 . S
C892 H863 0.950 . S
C892 C891 1.334 . S
C892 C893 1.287 . S
C893 C892 1.287 . S
C893 C894 1.524 . S
C893 H896 0.999 . S
C894 H864 0.950 . S
C894 C893 1.524 . S
C894 C895 1.415 . S
C895 H865 0.950 . S
C895 C890 1.363 . S
C895 C894 1.415 . S
H896 C893 0.999 . S
H897 C878 0.913 . S
H898 C916 0.951 . S
H899 C918 0.951 . S
H900 C920 0.950 . S
H901 C921 0.950 . S
H902 C923 0.950 . S
H903 C926 0.950 . S
H904 C927 0.950 . S
H905 C929 0.950 . S
H906 C930 0.950 . S
H907 C931 0.951 . S
H908 C933 0.951 . S
H909 C935 0.950 . S
H910 C936 0.950 . S
H911 C938 0.950 . S
H912 C941 0.950 . S
H913 C942 0.950 . S
H914 C944 0.950 . S
H915 C945 0.950 . S
C916 H898 0.951 . S
C916 C917 1.366 . S
C916 C918 1.388 . S
C917 C916 1.366 . S
C917 C921 1.385 . S
C918 H899 0.951 . S
C918 C916 1.388 . S
C918 C919 1.366 . S
C919 C918 1.366 . S
C919 C920 1.414 . S
C919 C922 1.499 . S
C920 H900 0.950 . S
C920 C919 1.414 . S
C920 C921 1.374 . S
C921 H901 0.950 . S
C921 C917 1.385 . S
C921 C920 1.374 . S
C922 C919 1.499 . S
C922 C923 1.373 . S
C922 C924 1.389 . S
C923 H902 0.950 . S
C923 C922 1.373 . S
C923 C939 1.377 . S
C924 C922 1.389 . S
C924 C925 1.524 . S
C924 C938 1.377 . S
C925 C924 1.524 . S
C925 C926 1.397 . S
C925 C930 1.363 . S
C926 H903 0.950 . S
C926 C925 1.397 . S
C926 C927 1.334 . S
C927 H904 0.950 . S
C927 C926 1.334 . S
C927 C928 1.287 . S
C928 C927 1.287 . S
C928 C929 1.524 . S
C928 H947 0.913 . S
C929 H905 0.950 . S
C929 C928 1.524 . S
C929 C930 1.415 . S
C930 H906 0.950 . S
C930 C925 1.363 . S
C930 C929 1.415 . S
C931 H907 0.951 . S
C931 C932 1.366 . S
C931 C933 1.388 . S
C932 C931 1.366 . S
C932 C936 1.385 . S
C933 H908 0.951 . S
C933 C931 1.388 . S
C933 C934 1.366 . S
C934 C933 1.366 . S
C934 C935 1.414 . S
C934 C937 1.499 . S
C935 H909 0.950 . S
C935 C934 1.414 . S
C935 C936 1.374 . S
C936 H910 0.950 . S
C936 C932 1.385 . S
C936 C935 1.374 . S
C937 C934 1.499 . S
C937 C938 1.373 . S
C937 C939 1.389 . S
C938 H911 0.950 . S
C938 C924 1.377 . S
C938 C937 1.373 . S
C939 C923 1.377 . S
C939 C937 1.389 . S
C939 C940 1.524 . S
C940 C939 1.524 . S
C940 C941 1.397 . S
C940 C945 1.363 . S
C941 H912 0.950 . S
C941 C940 1.397 . S
C941 C942 1.334 . S
C942 H913 0.950 . S
C942 C941 1.334 . S
C942 C943 1.287 . S
C943 C942 1.287 . S
C943 C944 1.524 . S
C943 H946 0.999 . S
C944 H914 0.950 . S
C944 C943 1.524 . S
C944 C945 1.415 . S
C945 H915 0.950 . S
C945 C940 1.363 . S
C945 C944 1.415 . S
H946 C943 0.999 . S
H947 C928 0.913 . S
H948 C966 0.951 . S
H949 C968 0.951 . S
H950 C970 0.950 . S
H951 C971 0.950 . S
H952 C973 0.950 . S
H953 C976 0.950 . S
H954 C977 0.950 . S
H955 C979 0.950 . S
H956 C980 0.950 . S
H957 C981 0.951 . S
H958 C983 0.951 . S
H959 C985 0.950 . S
H960 C986 0.950 . S
H961 C988 0.950 . S
H962 C991 0.950 . S
H963 C992 0.950 . S
H964 C994 0.950 . S
H965 C995 0.950 . S
C966 H948 0.951 . S
C966 C967 1.366 1_565 S
C966 C968 1.388 . S
C967 C966 1.366 1_545 S
C967 C971 1.385 . S
C968 H949 0.951 . S
C968 C966 1.388 . S
C968 C969 1.366 1_565 S
C969 C968 1.366 1_545 S
C969 C970 1.414 . S
C969 C972 1.499 . S
C970 H950 0.950 . S
C970 C969 1.414 . S
C970 C971 1.374 . S
C971 H951 0.950 . S
C971 C967 1.385 . S
C971 C970 1.374 . S
C972 C969 1.499 . S
C972 C973 1.373 . S
C972 C974 1.389 . S
C973 H952 0.950 . S
C973 C972 1.373 . S
C973 C989 1.377 . S
C974 C972 1.389 . S
C974 C975 1.524 . S
C974 C988 1.377 . S
C975 C974 1.524 . S
C975 C976 1.397 . S
C975 C980 1.363 1_545 S
C976 H953 0.950 . S
C976 C975 1.397 . S
C976 C977 1.334 . S
C977 H954 0.950 . S
C977 C976 1.334 . S
C977 C978 1.287 . S
C978 C977 1.287 . S
C978 C979 1.524 1_545 S
C978 H997 0.913 . S
C979 H955 0.950 . S
C979 C978 1.524 1_565 S
C979 C980 1.415 . S
C980 H956 0.950 . S
C980 C975 1.363 1_565 S
C980 C979 1.415 . S
C981 H957 0.951 . S
C981 C982 1.366 . S
C981 C983 1.388 . S
C982 C981 1.366 . S
C982 C986 1.385 1_545 S
C983 H958 0.951 . S
C983 C981 1.388 . S
C983 C984 1.366 . S
C984 C983 1.366 . S
C984 C985 1.414 1_545 S
C984 C987 1.499 . S
C985 H959 0.950 . S
C985 C984 1.414 1_565 S
C985 C986 1.374 . S
C986 H960 0.950 . S
C986 C982 1.385 1_565 S
C986 C985 1.374 . S
C987 C984 1.499 . S
C987 C988 1.373 . S
C987 C989 1.389 . S
C988 H961 0.950 . S
C988 C974 1.377 . S
C988 C987 1.373 . S
C989 C973 1.377 . S
C989 C987 1.389 . S
C989 C990 1.524 . S
C990 C989 1.524 . S
C990 C991 1.397 1_545 S
C990 C995 1.363 . S
C991 H962 0.950 . S
C991 C990 1.397 1_565 S
C991 C992 1.334 . S
C992 H963 0.950 . S
C992 C991 1.334 . S
C992 C993 1.287 1_565 S
C993 C992 1.287 1_545 S
C993 C994 1.524 . S
C993 H996 0.999 . S
C994 H964 0.950 . S
C994 C993 1.524 . S
C994 C995 1.415 . S
C995 H965 0.950 . S
C995 C990 1.363 . S
C995 C994 1.415 . S
H996 C993 0.999 . S
H997 C978 0.913 . S
H998 C1016 0.951 . S
H999 C1018 0.951 . S
H1000 C1020 0.950 . S
H1001 C1021 0.950 . S
H1002 C1023 0.950 . S
H1003 C1026 0.950 . S
H1004 C1027 0.950 . S
H1005 C1029 0.950 . S
H1006 C1030 0.950 . S
H1007 C1031 0.951 . S
H1008 C1033 0.951 . S
H1009 C1035 0.950 . S
H1010 C1036 0.950 . S
H1011 C1038 0.950 . S
H1012 C1041 0.950 . S
H1013 C1042 0.950 . S
H1014 C1044 0.950 . S
H1015 C1045 0.950 1_556 S
C1016 H998 0.951 . S
C1016 C1017 1.366 . S
C1016 C1018 1.388 . S
C1017 C1016 1.366 . S
C1017 C1021 1.385 . S
C1018 H999 0.951 . S
C1018 C1016 1.388 . S
C1018 C1019 1.366 . S
C1019 C1018 1.366 . S
C1019 C1020 1.414 . S
C1019 C1022 1.499 . S
C1020 H1000 0.950 . S
C1020 C1019 1.414 . S
C1020 C1021 1.374 . S
C1021 H1001 0.950 . S
C1021 C1017 1.385 . S
C1021 C1020 1.374 . S
C1022 C1019 1.499 . S
C1022 C1023 1.373 . S
C1022 C1024 1.389 . S
C1023 H1002 0.950 . S
C1023 C1022 1.373 . S
C1023 C1039 1.377 . S
C1024 C1022 1.389 . S
C1024 C1025 1.524 . S
C1024 C1038 1.377 . S
C1025 C1024 1.524 . S
C1025 C1026 1.397 . S
C1025 C1030 1.363 . S
C1026 H1003 0.950 . S
C1026 C1025 1.397 . S
C1026 C1027 1.334 . S
C1027 H1004 0.950 . S
C1027 C1026 1.334 . S
C1027 C1028 1.287 . S
C1028 C1027 1.287 . S
C1028 C1029 1.524 . S
C1028 H1047 0.913 . S
C1029 H1005 0.950 . S
C1029 C1028 1.524 . S
C1029 C1030 1.415 . S
C1030 H1006 0.950 . S
C1030 C1025 1.363 . S
C1030 C1029 1.415 . S
C1031 H1007 0.951 . S
C1031 C1032 1.366 . S
C1031 C1033 1.388 . S
C1032 C1031 1.366 . S
C1032 C1036 1.385 . S
C1033 H1008 0.951 . S
C1033 C1031 1.388 . S
C1033 C1034 1.366 . S
C1034 C1033 1.366 . S
C1034 C1035 1.414 . S
C1034 C1037 1.499 . S
C1035 H1009 0.950 . S
C1035 C1034 1.414 . S
C1035 C1036 1.374 . S
C1036 H1010 0.950 . S
C1036 C1032 1.385 . S
C1036 C1035 1.374 . S
C1037 C1034 1.499 . S
C1037 C1038 1.373 1_554 S
C1037 C1039 1.389 1_554 S
C1038 H1011 0.950 . S
C1038 C1024 1.377 . S
C1038 C1037 1.373 1_556 S
C1039 C1023 1.377 . S
C1039 C1037 1.389 1_556 S
C1039 C1040 1.524 1_556 S
C1040 C1039 1.524 1_554 S
C1040 C1041 1.397 . S
C1040 C1045 1.363 . S
C1041 H1012 0.950 . S
C1041 C1040 1.397 . S
C1041 C1042 1.334 . S
C1042 H1013 0.950 . S
C1042 C1041 1.334 . S
C1042 C1043 1.287 . S
C1043 C1042 1.287 . S
C1043 C1044 1.524 . S
C1043 H1046 0.999 . S
C1044 H1014 0.950 . S
C1044 C1043 1.524 . S
C1044 C1045 1.415 . S
C1045 H1015 0.950 1_554 S
C1045 C1040 1.363 . S
C1045 C1044 1.415 . S
H1046 C1043 0.999 . S
H1047 C1028 0.913 . S
H1048 C1066 0.967 . S
H1049 C1068 0.951 1_655 S
H1050 C1070 0.950 . S
H1051 C1071 0.950 . S
H1052 C1073 0.950 . S
H1053 C1076 0.950 1_455 S
H1054 C1077 0.950 . S
H1055 C1079 0.950 . S
H1056 C1080 0.950 . S
H1057 C1081 0.951 . S
H1058 C1083 0.951 . S
H1059 C1085 0.950 . S
H1060 C1086 0.950 . S
H1061 C1088 0.950 1_655 S
H1062 C1091 0.950 . S
H1063 C1092 0.950 . S
H1064 C1094 0.950 . S
H1065 C1095 0.950 . S
C1066 H1048 0.967 . S
C1066 C1067 1.349 1_655 S
C1066 C1068 1.389 1_655 S
C1067 C1066 1.349 1_455 S
C1067 C1071 1.385 . S
C1068 H1049 0.951 1_455 S
C1068 C1066 1.389 1_455 S
C1068 C1069 1.366 . S
C1069 C1068 1.366 . S
C1069 C1070 1.414 . S
C1069 C1072 1.499 . S
C1070 H1050 0.950 . S
C1070 C1069 1.414 . S
C1070 C1071 1.374 . S
C1071 H1051 0.950 . S
C1071 C1067 1.385 . S
C1071 C1070 1.374 . S
C1072 C1069 1.499 . S
C1072 C1073 1.373 . S
C1072 C1074 1.389 . S
C1073 H1052 0.950 . S
C1073 C1072 1.373 . S
C1073 C1089 1.377 . S
C1074 C1072 1.389 . S
C1074 C1075 1.524 1_455 S
C1074 C1088 1.377 . S
C1075 C1074 1.524 1_655 S
C1075 C1076 1.397 . S
C1075 C1080 1.363 . S
C1076 H1053 0.950 1_655 S
C1076 C1075 1.397 . S
C1076 C1077 1.334 . S
C1077 H1054 0.950 . S
C1077 C1076 1.334 . S
C1077 C1078 1.287 . S
C1078 C1077 1.287 . S
C1078 C1079 1.524 . S
C1078 H1097 0.913 . S
C1079 H1055 0.950 . S
C1079 C1078 1.524 . S
C1079 C1080 1.415 . S
C1080 H1056 0.950 . S
C1080 C1075 1.363 . S
C1080 C1079 1.415 . S
C1081 H1057 0.951 . S
C1081 C1082 1.366 . S
C1081 C1083 1.388 . S
C1082 C1081 1.366 . S
C1082 C1086 1.385 . S
C1083 H1058 0.951 . S
C1083 C1081 1.388 . S
C1083 C1084 1.366 . S
C1084 C1083 1.366 . S
C1084 C1085 1.414 . S
C1084 C1087 1.499 . S
C1085 H1059 0.950 . S
C1085 C1084 1.414 . S
C1085 C1086 1.374 . S
C1086 H1060 0.950 . S
C1086 C1082 1.385 . S
C1086 C1085 1.374 . S
C1087 C1084 1.499 . S
C1087 C1088 1.373 . S
C1087 C1089 1.389 . S
C1088 H1061 0.950 1_455 S
C1088 C1074 1.377 . S
C1088 C1087 1.373 . S
C1089 C1073 1.377 . S
C1089 C1087 1.389 . S
C1089 C1090 1.524 . S
C1090 C1089 1.524 . S
C1090 C1091 1.397 . S
C1090 C1095 1.363 . S
C1091 H1062 0.950 . S
C1091 C1090 1.397 . S
C1091 C1092 1.334 . S
C1092 H1063 0.950 . S
C1092 C1091 1.334 . S
C1092 C1093 1.287 . S
C1093 C1092 1.287 . S
C1093 C1094 1.524 . S
C1093 H1096 0.999 . S
C1094 H1064 0.950 . S
C1094 C1093 1.524 . S
C1094 C1095 1.415 . S
C1095 H1065 0.950 . S
C1095 C1090 1.363 . S
C1095 C1094 1.415 . S
H1096 C1093 0.999 . S
H1097 C1078 0.913 . S
C217 C24 2.979 . S
C232 C189 2.791 . S
C267 C66 1.012 . S
C282 C167 1.018 . S
C317 C93 1.641 . S
C332 C180 1.623 . S
C367 C13 2.944 . S
C382 C193 2.908 . S
C432 C163 1.213 . S
C417 C57 1.292 . S
C482 C176 1.827 . S
C467 C104 1.989 . S
C517 C64 1.825 . S
C532 C141 1.792 . S
C567 C97 0.130 . S
C582 C154 0.234 . S
C617 C17 1.256 . S
C632 C124 1.181 . S
C682 C137 1.649 . S
C667 C53 1.788 . S
C732 C150 0.448 . S
C717 C106 0.296 . S
C767 C26 1.011 . S
C782 C128 1.014 . S
C832 C155 1.255 . S
C817 C2 1.240 . S
C867 C63 1.534 . S
C882 C129 1.607 . S
C917 C82 1.435 . S
C932 C142 1.457 . S
C982 C181 1.549 . S
C967 C42 1.526 . S
C1032 C194 1.709 . S
C1017 C103 1.689 . S
C1067 C23 1.523 . S
C1082 C168 1.581 . S
