# Generated by pormake.
# Topology apo, (3,6)-cn, num edge types: 1
# Building blocks:
#     Node 0, Type 0, BuildingBlock: PAMTOO_clean_linker_0, # of connection points: 3
#     Node 1, Type 0, BuildingBlock: PAMTOO_clean_linker_0, # of connection points: 3
#     Node 2, Type 0, BuildingBlock: PAMTOO_clean_linker_0, # of connection points: 3
#     Node 3, Type 0, BuildingBlock: PAMTOO_clean_linker_0, # of connection points: 3
#     Node 4, Type 0, BuildingBlock: PAMTOO_clean_linker_0, # of connection points: 3
#     Node 5, Type 0, BuildingBlock: PAMTOO_clean_linker_0, # of connection points: 3
#     Node 6, Type 0, BuildingBlock: PAMTOO_clean_linker_0, # of connection points: 3
#     Node 7, Type 0, BuildingBlock: PAMTOO_clean_linker_0, # of connection points: 3
#     Node 8, Type 1, BuildingBlock: MIDCAF_clean_sbu_0, # of connection points: 6
#     Node 9, Type 1, BuildingBlock: MIDCAF_clean_sbu_0, # of connection points: 6
#     Node 10, Type 1, BuildingBlock: MIDCAF_clean_sbu_0, # of connection points: 6
#     Node 11, Type 1, BuildingBlock: MIDCAF_clean_sbu_0, # of connection points: 6
#     Edge 12, Type (0, 1), BuildingBlock: UVAHIK_clean_linker_0, # of connection points: 2
#     Edge 13, Type (0, 1), BuildingBlock: UVAHIK_clean_linker_0, # of connection points: 2
#     Edge 14, Type (0, 1), BuildingBlock: UVAHIK_clean_linker_0, # of connection points: 2
#     Edge 15, Type (0, 1), BuildingBlock: UVAHIK_clean_linker_0, # of connection points: 2
#     Edge 16, Type (0, 1), BuildingBlock: UVAHIK_clean_linker_0, # of connection points: 2
#     Edge 17, Type (0, 1), BuildingBlock: UVAHIK_clean_linker_0, # of connection points: 2
#     Edge 18, Type (0, 1), BuildingBlock: UVAHIK_clean_linker_0, # of connection points: 2
#     Edge 19, Type (0, 1), BuildingBlock: UVAHIK_clean_linker_0, # of connection points: 2
#     Edge 20, Type (0, 1), BuildingBlock: UVAHIK_clean_linker_0, # of connection points: 2
#     Edge 21, Type (0, 1), BuildingBlock: UVAHIK_clean_linker_0, # of connection points: 2
#     Edge 22, Type (0, 1), BuildingBlock: UVAHIK_clean_linker_0, # of connection points: 2
#     Edge 23, Type (0, 1), BuildingBlock: UVAHIK_clean_linker_0, # of connection points: 2
#     Edge 24, Type (0, 1), BuildingBlock: UVAHIK_clean_linker_0, # of connection points: 2
#     Edge 25, Type (0, 1), BuildingBlock: UVAHIK_clean_linker_0, # of connection points: 2
#     Edge 26, Type (0, 1), BuildingBlock: UVAHIK_clean_linker_0, # of connection points: 2
#     Edge 27, Type (0, 1), BuildingBlock: UVAHIK_clean_linker_0, # of connection points: 2
#     Edge 28, Type (0, 1), BuildingBlock: UVAHIK_clean_linker_0, # of connection points: 2
#     Edge 29, Type (0, 1), BuildingBlock: UVAHIK_clean_linker_0, # of connection points: 2
#     Edge 30, Type (0, 1), BuildingBlock: UVAHIK_clean_linker_0, # of connection points: 2
#     Edge 31, Type (0, 1), BuildingBlock: UVAHIK_clean_linker_0, # of connection points: 2
#     Edge 32, Type (0, 1), BuildingBlock: UVAHIK_clean_linker_0, # of connection points: 2
#     Edge 33, Type (0, 1), BuildingBlock: UVAHIK_clean_linker_0, # of connection points: 2
#     Edge 34, Type (0, 1), BuildingBlock: UVAHIK_clean_linker_0, # of connection points: 2
#     Edge 35, Type (0, 1), BuildingBlock: UVAHIK_clean_linker_0, # of connection points: 2
# Relax obj value: 0.013
# Max RMSD: 0.061
# Mean RMSD: 0.057
data_MOF--net-apo--node1-MIDCAF_clean_sbu_0--node2-PAMTOO_clean_linker_0--edge1-UVAHIK_clean_linker_0
_symmetry_space_group_name_H-M    P1
_symmetry_Int_Tables_number       1
_symmetry_cell_setting            triclinic
loop_
_symmetry_equiv_pos_as_xyz
'x, y, z'
_cell_length_a     47.092186
_cell_length_b     54.094512
_cell_length_c     44.340874
_cell_angle_alpha  90.137313
_cell_angle_beta   89.931029
_cell_angle_gamma 90.164599
loop_
_atom_site_label
_atom_site_type_symbol
_atom_site_fract_x
_atom_site_fract_y
_atom_site_fract_z
_atom_type_partial_charge
H0 H 0.37894 0.3547 0.42796 0.0
H1 H 0.34877 0.33368 0.33993 0.0
H2 H 0.32422 0.29133 0.41755 0.0
H3 H 0.33988 0.26375 0.36105 0.0
C4 C 0.32767 0.27537 0.34497 0.0
O5 O 0.31814 0.29651 0.35913 0.0
H6 H 0.34198 0.28054 0.32601 0.0
C7 C 0.36639 0.34257 0.41371 0.0
C8 C 0.35173 0.32258 0.42668 0.0
C9 C 0.36576 0.34662 0.38244 0.0
C10 C 0.34998 0.33055 0.36402 0.0
C11 C 0.33493 0.31076 0.37674 0.0
C12 C 0.33604 0.30663 0.40794 0.0
H13 H 0.13578 0.14137 0.92619 0.0
H14 H 0.20287 0.19531 0.92068 0.0
H15 H 0.17045 0.16213 0.83977 0.0
H16 H 0.22967 0.16732 0.83573 0.0
C17 C 0.23375 0.18157 0.85334 0.0
O18 O 0.2084 0.19229 0.86188 0.0
H19 H 0.24371 0.17211 0.87294 0.0
C20 C 0.15031 0.15229 0.91269 0.0
C21 C 0.15044 0.14963 0.88109 0.0
C22 C 0.16882 0.16891 0.92721 0.0
C23 C 0.18815 0.18268 0.90985 0.0
C24 C 0.18896 0.1798 0.87843 0.0
C25 C 0.16986 0.1637 0.86412 0.0
H26 H 0.86857 0.13399 0.58064 0.0
H27 H 0.83566 0.15357 0.66803 0.0
H28 H 0.8136 0.19705 0.59067 0.0
H29 H 0.83089 0.22216 0.65207 0.0
C30 C 0.81613 0.21063 0.6658 0.0
O31 O 0.80594 0.19114 0.64882 0.0
H32 H 0.82819 0.20338 0.68541 0.0
C33 C 0.85553 0.14586 0.59468 0.0
C34 C 0.84121 0.16594 0.58165 0.0
C35 C 0.85402 0.14142 0.62584 0.0
C36 C 0.83751 0.15703 0.64404 0.0
C37 C 0.82294 0.17699 0.63133 0.0
C38 C 0.82506 0.18162 0.60028 0.0
H39 H 0.63879 0.358 0.08458 0.0
H40 H 0.70319 0.302 0.09026 0.0
H41 H 0.67377 0.33764 0.17088 0.0
H42 H 0.73462 0.33225 0.16865 0.0
C43 C 0.73662 0.31524 0.15464 0.0
O44 O 0.70986 0.3059 0.14879 0.0
H45 H 0.74737 0.32025 0.13314 0.0
C46 C 0.65301 0.34689 0.0981 0.0
C47 C 0.65363 0.34998 0.12964 0.0
C48 C 0.67052 0.32949 0.08368 0.0
C49 C 0.68931 0.31532 0.10103 0.0
C50 C 0.6908 0.31874 0.13233 0.0
C51 C 0.67275 0.33571 0.14659 0.0
H52 H 0.63772 0.64596 0.59115 0.0
H53 H 0.70632 0.69881 0.593 0.0
H54 H 0.68739 0.65568 0.67177 0.0
H55 H 0.697 0.70506 0.68646 0.0
C56 C 0.71111 0.7114 0.66787 0.0
O57 O 0.71874 0.69148 0.65011 0.0
H58 H 0.69911 0.72494 0.65396 0.0
C59 C 0.6548 0.65515 0.60318 0.0
C60 C 0.66059 0.64858 0.63315 0.0
C61 C 0.67155 0.67286 0.58826 0.0
C62 C 0.69367 0.68468 0.60397 0.0
C63 C 0.69899 0.67875 0.63423 0.0
C64 C 0.68299 0.66026 0.64846 0.0
H65 H 0.88886 0.85619 0.09765 0.0
H66 H 0.84451 0.83915 0.17999 0.0
H67 H 0.82413 0.79972 0.09858 0.0
H68 H 0.77522 0.81598 0.1363 0.0
C69 C 0.78455 0.81286 0.15901 0.0
O70 O 0.81224 0.80484 0.15615 0.0
H71 H 0.78434 0.83064 0.1717 0.0
C72 C 0.87308 0.84543 0.10973 0.0
C73 C 0.85734 0.82724 0.0944 0.0
C74 C 0.86852 0.8499 0.14055 0.0
C75 C 0.84825 0.83585 0.15619 0.0
C76 C 0.83202 0.81803 0.14097 0.0
C77 C 0.83652 0.81376 0.1101 0.0
H78 H 0.16004 0.86801 0.43449 0.0
H79 H 0.20974 0.80168 0.42607 0.0
H80 H 0.19137 0.84516 0.34752 0.0
H81 H 0.19449 0.79498 0.33202 0.0
C82 C 0.20696 0.78732 0.3511 0.0
O83 O 0.21845 0.80643 0.3678 0.0
H84 H 0.19239 0.77618 0.3655 0.0
C85 C 0.17212 0.85524 0.42064 0.0
C86 C 0.17387 0.859 0.38936 0.0
C87 C 0.18475 0.83455 0.43406 0.0
C88 C 0.19971 0.81765 0.41598 0.0
C89 C 0.20241 0.82174 0.38486 0.0
C90 C 0.18932 0.84225 0.3716 0.0
H91 H 0.38855 0.64714 0.92962 0.0
H92 H 0.34113 0.65546 0.84694 0.0
H93 H 0.31891 0.6981 0.92498 0.0
H94 H 0.27163 0.67909 0.88761 0.0
C95 C 0.28091 0.6824 0.86489 0.0
O96 O 0.30863 0.69042 0.86756 0.0
H97 H 0.28053 0.66475 0.85194 0.0
C98 C 0.37152 0.65544 0.91677 0.0
C99 C 0.35399 0.67292 0.93098 0.0
C100 C 0.36705 0.6485 0.88648 0.0
C101 C 0.34528 0.66029 0.87023 0.0
C102 C 0.32825 0.67826 0.884 0.0
C103 C 0.3323 0.68428 0.91445 0.0
Zn104 Zn 0.02355 0.12519 0.31721 0.0
Zn105 Zn 0.99547 0.11821 0.20228 0.0
Zn106 Zn 0.01119 0.12367 0.25956 0.0
C107 C 0.04724 0.14418 0.20278 0.0
C108 C 0.99952 0.07099 0.22446 0.0
O109 O 0.97621 0.14295 0.2848 0.0
O110 O 0.98943 0.14143 0.33269 0.0
C111 C 0.06634 0.15137 0.2857 0.0
O112 O 0.04472 0.14162 0.23158 0.0
O113 O 0.02855 0.13575 0.18514 0.0
O114 O 0.99474 0.08167 0.19973 0.0
O115 O 0.00578 0.08377 0.24816 0.0
O116 O 0.05779 0.14586 0.31185 0.0
O117 O 0.0522 0.14417 0.26237 0.0
O118 O 0.01855 0.08563 0.27662 0.0
O119 O 0.02831 0.08943 0.3252 0.0
C120 C 0.02522 0.07594 0.30219 0.0
O121 O 0.97004 0.14316 0.25382 0.0
O122 O 0.95887 0.13606 0.20609 0.0
C123 C 0.97164 0.14766 0.31295 0.0
C124 C 0.953 0.14576 0.23127 0.0
Zn125 Zn 0.52686 0.37755 0.69836 0.0
Zn126 Zn 0.49167 0.37593 0.8104 0.0
Zn127 Zn 0.51021 0.37647 0.75454 0.0
C128 C 0.49595 0.42535 0.79471 0.0
C129 C 0.45009 0.35267 0.77628 0.0
O130 O 0.55236 0.35781 0.75306 0.0
O131 O 0.56452 0.36276 0.70526 0.0
C132 C 0.5227 0.42643 0.71554 0.0
O133 O 0.50279 0.41533 0.7693 0.0
O134 O 0.49177 0.41202 0.81762 0.0
O135 O 0.45434 0.36047 0.80272 0.0
O136 O 0.46887 0.35617 0.75552 0.0
O137 O 0.52631 0.41367 0.69199 0.0
O138 O 0.51653 0.41574 0.74071 0.0
O139 O 0.47847 0.35663 0.72582 0.0
O140 O 0.49697 0.35687 0.67989 0.0
C141 C 0.47738 0.35056 0.69769 0.0
O142 O 0.54265 0.35777 0.78291 0.0
O143 O 0.52236 0.35558 0.82792 0.0
C144 C 0.57036 0.3551 0.73138 0.0
C145 C 0.54304 0.35091 0.81074 0.0
Zn146 Zn 0.03413 0.88062 0.8127 0.0
Zn147 Zn 0.99056 0.87254 0.70513 0.0
Zn148 Zn 0.01183 0.87505 0.75973 0.0
C149 C 0.99567 0.92224 0.71747 0.0
C150 C 0.95154 0.84992 0.74411 0.0
O151 O 0.05436 0.85732 0.75896 0.0
O152 O 0.07282 0.86895 0.80258 0.0
C153 C 0.0212 0.92749 0.79555 0.0
O154 O 1.00262 0.91289 0.74313 0.0
O155 O 0.99116 0.90834 0.69507 0.0
O156 O 0.95383 0.8577 0.7174 0.0
O157 O 0.97165 0.85368 0.76331 0.0
O158 O 0.02833 0.91643 0.81935 0.0
O159 O 0.01543 0.91509 0.77144 0.0
O160 O 0.98367 0.85518 0.79223 0.0
O161 O 0.00884 0.85739 0.8342 0.0
C162 C 0.98716 0.84972 0.82028 0.0
O163 O 0.04315 0.85647 0.72946 0.0
O164 O 0.01973 0.85091 0.68676 0.0
C165 C 0.07529 0.8578 0.77768 0.0
C166 C 0.04195 0.84805 0.70223 0.0
Zn167 Zn 0.53072 0.61951 0.2067 0.0
Zn168 Zn 0.48915 0.61859 0.31378 0.0
Zn169 Zn 0.50966 0.62145 0.2602 0.0
C170 C 0.5365 0.64869 0.31876 0.0
C171 C 0.49918 0.57084 0.29919 0.0
O172 O 0.47953 0.64117 0.22978 0.0
O173 O 0.50443 0.6431 0.18757 0.0
C174 C 0.57169 0.64197 0.24279 0.0
O175 O 0.53934 0.64159 0.29113 0.0
O176 O 0.51468 0.6426 0.33354 0.0
O177 O 0.49441 0.58307 0.32289 0.0
O178 O 0.50407 0.58213 0.27411 0.0
O179 O 0.56911 0.63169 0.21736 0.0
O180 O 0.55104 0.64133 0.2619 0.0
O181 O 0.51633 0.5824 0.24537 0.0
O182 O 0.5265 0.58399 0.19673 0.0
C183 C 0.52173 0.57145 0.22013 0.0
O184 O 0.46753 0.63995 0.25878 0.0
O185 O 0.45035 0.6297 0.30348 0.0
C186 C 0.48241 0.64861 0.20234 0.0
C187 C 0.44706 0.63982 0.27812 0.0
C188 C 0.13977 0.87635 0.35159 0.0
C189 C 0.15886 0.88013 0.37549 0.0
C190 C 0.12337 0.89593 0.34068 0.0
C191 C 0.09739 0.9577 0.36472 0.0
H192 H 0.07511 0.96406 0.28097 0.0
C193 C 0.02461 0.03661 0.33103 0.0
C194 C 0.03187 0.04943 0.30468 0.0
C195 C 0.03589 0.01325 0.33665 0.0
C196 C 0.08125 0.96265 0.30443 0.0
H197 H 0.17707 0.90744 0.40556 0.0
H198 H 0.14949 0.94181 0.38585 0.0
H199 H 0.10578 0.93001 0.29617 0.0
H200 H 0.05506 0.04745 0.26259 0.0
H201 H 0.07591 0.00708 0.27289 0.0
H202 H 0.07445 0.99086 0.37294 0.0
C203 C 0.14619 0.92362 0.3762 0.0
C204 C 0.09861 0.94293 0.31322 0.0
C205 C 0.1622 0.904 0.38738 0.0
C206 C 0.04908 0.03783 0.28305 0.0
C207 C 0.06097 0.01464 0.28899 0.0
C208 C 0.08043 0.97747 0.35592 0.0
C209 C 0.12601 0.91976 0.35324 0.0
C210 C 0.10712 0.94034 0.34348 0.0
C211 C 0.05545 0.00252 0.31649 0.0
C212 C 0.07211 0.98033 0.32565 0.0
H213 H 0.1367 0.85803 0.34219 0.0
H214 H 0.10793 0.89216 0.32318 0.0
H215 H 0.10288 0.9561 0.38834 0.0
H216 H 0.01107 0.0451 0.34787 0.0
H217 H 0.03021 0.00412 0.35752 0.0
C218 C 0.3945 0.60869 0.88964 0.0
C219 C 0.38466 0.62868 0.87227 0.0
C220 C 0.41099 0.59011 0.87662 0.0
C221 C 0.42248 0.55577 0.80903 0.0
H222 H 0.49458 0.53779 0.84484 0.0
C223 C 0.47997 0.46607 0.77354 0.0
C224 C 0.49106 0.45225 0.79756 0.0
C225 C 0.47179 0.49072 0.77794 0.0
C226 C 0.47442 0.54242 0.83463 0.0
H227 H 0.38482 0.64445 0.8272 0.0
H228 H 0.41242 0.61107 0.80428 0.0
H229 H 0.46995 0.57479 0.86221 0.0
H230 H 0.50275 0.45344 0.84477 0.0
H231 H 0.48769 0.4957 0.8528 0.0
H232 H 0.4257 0.52259 0.78298 0.0
C233 C 0.40755 0.61028 0.82814 0.0
C234 C 0.46047 0.56372 0.84448 0.0
C235 C 0.39154 0.62926 0.84131 0.0
C236 C 0.49445 0.46368 0.82577 0.0
C237 C 0.48604 0.4881 0.83026 0.0
C238 C 0.43617 0.53417 0.79954 0.0
C239 C 0.41755 0.59067 0.84578 0.0
C240 C 0.43408 0.57024 0.83227 0.0
C241 C 0.47409 0.50187 0.8066 0.0
C242 C 0.46194 0.52681 0.81287 0.0
H243 H 0.38909 0.60704 0.91328 0.0
H244 H 0.41809 0.57491 0.89057 0.0
H245 H 0.40205 0.56042 0.7994 0.0
H246 H 0.47659 0.45758 0.7517 0.0
H247 H 0.46299 0.50079 0.75909 0.0
C248 C 0.61358 0.63147 0.6493 0.0
C249 C 0.64325 0.62941 0.64829 0.0
C250 C 0.59708 0.61279 0.66234 0.0
C251 C 0.56593 0.56463 0.67175 0.0
H252 H 0.59636 0.52114 0.73293 0.0
C253 C 0.52577 0.46545 0.68603 0.0
C254 C 0.52825 0.45333 0.71385 0.0
C255 C 0.53549 0.48965 0.68254 0.0
C256 C 0.58713 0.5333 0.71629 0.0
H257 H 0.67909 0.60651 0.66015 0.0
H258 H 0.65046 0.57329 0.68151 0.0
H259 H 0.62183 0.55866 0.71992 0.0
H260 H 0.54229 0.45732 0.76011 0.0
H261 H 0.55785 0.50018 0.75458 0.0
H262 H 0.53076 0.53973 0.66883 0.0
C263 C 0.63972 0.58962 0.67336 0.0
C264 C 0.60211 0.55469 0.70836 0.0
C265 C 0.65622 0.60856 0.6609 0.0
C266 C 0.53955 0.46634 0.73854 0.0
C267 C 0.54893 0.49078 0.73518 0.0
C268 C 0.5507 0.54351 0.68008 0.0
C269 C 0.60985 0.59134 0.67405 0.0
C270 C 0.59219 0.57026 0.68528 0.0
C271 C 0.54779 0.50253 0.70687 0.0
C272 C 0.56154 0.52708 0.70172 0.0
H273 H 0.60315 0.64756 0.63999 0.0
H274 H 0.57427 0.61518 0.66302 0.0
H275 H 0.55751 0.57591 0.65375 0.0
H276 H 0.51735 0.45585 0.66651 0.0
H277 H 0.53463 0.4977 0.66024 0.0
C278 C 0.88079 0.89445 0.14644 0.0
C279 C 0.88417 0.86994 0.15599 0.0
C280 C 0.89545 0.91359 0.16082 0.0
C281 C 0.96018 0.92907 0.19807 0.0
H282 H 0.91933 0.9862 0.22828 0.0
C283 C 1.00192 0.02913 0.20119 0.0
C284 C 0.99521 0.04401 0.22617 0.0
C285 C 0.99261 0.00463 0.1998 0.0
C286 C 0.93104 0.97021 0.22046 0.0
H287 H 0.90551 0.84596 0.18766 0.0
H288 H 0.93224 0.87962 0.21226 0.0
H289 H 0.89296 0.94972 0.21128 0.0
H290 H 0.97484 0.04471 0.26998 0.0
H291 H 0.95786 0.00185 0.26721 0.0
H292 H 0.99821 0.95026 0.20535 0.0
C293 C 0.91784 0.88393 0.194 0.0
C294 C 0.91596 0.94946 0.21055 0.0
C295 C 0.9026 0.86479 0.18005 0.0
C296 C 0.9805 0.03354 0.25059 0.0
C297 C 0.97067 0.00912 0.24894 0.0
C298 C 0.97528 0.95006 0.20742 0.0
C299 C 0.91423 0.90849 0.18457 0.0
C300 C 0.93037 0.92893 0.19873 0.0
C301 C 0.97591 0.99472 0.2231 0.0
C302 C 0.96079 0.97099 0.21817 0.0
H303 H 0.86662 0.89879 0.12797 0.0
H304 H 0.89252 0.93238 0.15303 0.0
H305 H 0.9717 0.91346 0.18888 0.0
H306 H 0.01322 0.03682 0.18207 0.0
H307 H 0.99677 0.99401 0.17953 0.0
C308 C 0.86743 0.09677 0.62639 0.0
C309 C 0.86983 0.12045 0.63909 0.0
C310 C 0.88349 0.07719 0.63758 0.0
C311 C 0.9285 0.05736 0.70241 0.0
H312 H 0.95366 0.00905 0.64364 0.0
C313 C 0.99894 0.96111 0.6879 0.0
C314 C 0.99041 0.94892 0.71425 0.0
C315 C 0.98908 0.98485 0.68161 0.0
C316 C 0.94746 0.02254 0.66045 0.0
H317 H 0.89058 0.14227 0.67367 0.0
H318 H 0.9195 0.10823 0.69271 0.0
H319 H 0.92701 0.04448 0.62711 0.0
H320 H 0.96627 0.95225 0.75559 0.0
H321 H 0.94775 0.99322 0.74407 0.0
H322 H 0.95005 0.03571 0.73562 0.0
C323 C 0.90472 0.10456 0.67455 0.0
C324 C 0.93148 0.04272 0.65095 0.0
C325 C 0.88824 0.1241 0.66361 0.0
C326 C 0.97326 0.96141 0.73517 0.0
C327 C 0.96271 0.98496 0.72852 0.0
C328 C 0.94495 0.03727 0.7119 0.0
C329 C 0.90283 0.08088 0.66141 0.0
C330 C 0.92125 0.06017 0.6718 0.0
C331 C 0.96959 0.99659 0.70102 0.0
C332 C 0.95435 0.01936 0.69108 0.0
H333 H 0.85308 0.0934 0.60774 0.0
H334 H 0.88073 0.05913 0.62743 0.0
H335 H 0.92094 0.07033 0.7192 0.0
H336 H 0.01244 0.95189 0.6716 0.0
H337 H 0.99583 0.99352 0.66082 0.0
C338 C 0.60699 0.37237 0.13358 0.0
C339 C 0.63466 0.36841 0.1445 0.0
C340 C 0.59004 0.39112 0.14561 0.0
C341 C 0.57888 0.43258 0.21013 0.0
H342 H 0.55282 0.47895 0.14981 0.0
C343 C 0.54258 0.53209 0.23893 0.0
C344 C 0.52494 0.54443 0.21847 0.0
C345 C 0.55104 0.50772 0.23326 0.0
C346 C 0.55911 0.46599 0.16709 0.0
H347 H 0.66558 0.38058 0.1777 0.0
H348 H 0.63556 0.41292 0.19916 0.0
H349 H 0.57677 0.44153 0.13412 0.0
H350 H 0.50003 0.54059 0.17779 0.0
H351 H 0.51304 0.49766 0.16887 0.0
H352 H 0.56097 0.45692 0.24318 0.0
C353 C 0.62718 0.40146 0.18117 0.0
C354 C 0.57311 0.44455 0.15798 0.0
C355 C 0.64434 0.3829 0.16886 0.0
C356 C 0.51391 0.53146 0.19372 0.0
C357 C 0.52171 0.50695 0.18846 0.0
C358 C 0.56434 0.45389 0.21931 0.0
C359 C 0.60013 0.4061 0.16917 0.0
C360 C 0.58348 0.4278 0.17936 0.0
C361 C 0.5416 0.49514 0.20723 0.0
C362 C 0.55458 0.47111 0.1979 0.0
H363 H 0.59847 0.36118 0.11542 0.0
H364 H 0.56912 0.39414 0.13619 0.0
H365 H 0.58655 0.41983 0.22705 0.0
H366 H 0.55148 0.54185 0.2581 0.0
H367 H 0.56641 0.49946 0.24826 0.0
C368 C 0.37856 0.39144 0.38232 0.0
C369 C 0.38142 0.36788 0.36942 0.0
C370 C 0.39453 0.41131 0.37156 0.0
C371 C 0.4392 0.43287 0.30749 0.0
H372 H 0.46446 0.4799 0.36784 0.0
C373 C 0.47887 0.5315 0.27919 0.0
C374 C 0.49609 0.54377 0.30026 0.0
C375 C 0.46996 0.50717 0.28448 0.0
C376 C 0.45823 0.46679 0.35059 0.0
H377 H 0.40276 0.34663 0.33475 0.0
H378 H 0.43139 0.38132 0.31629 0.0
H379 H 0.43858 0.44354 0.38331 0.0
H380 H 0.52001 0.53979 0.34155 0.0
H381 H 0.5061 0.49695 0.34992 0.0
H382 H 0.45968 0.45601 0.27482 0.0
C383 C 0.41642 0.38456 0.33441 0.0
C384 C 0.44274 0.44606 0.35949 0.0
C385 C 0.40009 0.36468 0.34499 0.0
C386 C 0.50646 0.53072 0.32515 0.0
C387 C 0.49817 0.50627 0.33007 0.0
C388 C 0.45508 0.45357 0.29855 0.0
C389 C 0.41414 0.40806 0.3479 0.0
C390 C 0.43242 0.42911 0.33807 0.0
C391 C 0.47851 0.49462 0.31075 0.0
C392 C 0.46442 0.47104 0.31997 0.0
H393 H 0.36396 0.39449 0.40086 0.0
H394 H 0.39151 0.42925 0.38193 0.0
H395 H 0.43158 0.42022 0.29034 0.0
H396 H 0.47047 0.54131 0.2599 0.0
H397 H 0.45481 0.49897 0.26906 0.0
C398 C 0.14009 0.11715 0.84165 0.0
C399 C 0.13087 0.13165 0.86618 0.0
C400 C 0.12249 0.09879 0.82944 0.0
C401 C 0.06773 0.05623 0.85335 0.0
H402 H 0.05647 0.0427 0.76829 0.0
C403 C 0.01043 0.96792 0.81942 0.0
C404 C 0.02233 0.95467 0.79538 0.0
C405 C 0.01723 0.99281 0.82375 0.0
C406 C 0.05955 0.04607 0.79213 0.0
H407 H 0.09504 0.13918 0.89565 0.0
H408 H 0.06485 0.10661 0.87499 0.0
H409 H 0.08198 0.08007 0.78394 0.0
H410 H 0.04907 0.95708 0.75582 0.0
H411 H 0.06235 0.00018 0.76413 0.0
H412 H 0.0473 0.02188 0.862 0.0
C413 C 0.08577 0.10945 0.86536 0.0
C414 C 0.07406 0.06755 0.80104 0.0
C415 C 0.10318 0.12797 0.87732 0.0
C416 C 0.03954 0.96707 0.77446 0.0
C417 C 0.04707 0.99183 0.77927 0.0
C418 C 0.05375 0.03465 0.84452 0.0
C419 C 0.09543 0.09438 0.84168 0.0
C420 C 0.07843 0.07272 0.83176 0.0
C421 C 0.03702 0.00472 0.80482 0.0
C422 C 0.04958 0.02908 0.81378 0.0
H423 H 0.16134 0.11924 0.83265 0.0
H424 H 0.13057 0.08726 0.81138 0.0
H425 H 0.07122 0.05952 0.87718 0.0
H426 H 0.99688 0.95871 0.83568 0.0
H427 H 0.00807 0.00229 0.84294 0.0
C428 C 0.16774 0.15088 0.97916 0.0
C429 C 0.16743 0.17181 0.96047 0.0
C430 C 0.16327 0.15319 0.01021 0.0
C431 C 0.12459 0.1913 0.06331 0.0
H432 H 0.16366 0.1523 0.12354 0.0
C433 C 0.07394 0.17893 0.17941 0.0
C434 C 0.07306 0.15423 0.1888 0.0
C435 C 0.09322 0.18638 0.15707 0.0
C436 C 0.15245 0.16331 0.10706 0.0
H437 H 0.16312 0.21164 0.95965 0.0
H438 H 0.15473 0.21569 0.01408 0.0
H439 H 0.18273 0.15477 0.07239 0.0
H440 H 0.09227 0.11823 0.18381 0.0
H441 H 0.12552 0.13083 0.14485 0.0
H442 H 0.09324 0.1985 0.09695 0.0
C443 C 0.15864 0.19752 1.00465 0.0
C444 C 0.16347 0.16478 0.07777 0.0
C445 C 0.16358 0.19523 0.9736 0.0
C446 C 0.09304 0.13753 0.17731 0.0
C447 C 0.11211 0.14484 0.15488 0.0
C448 C 0.11335 0.18958 0.09244 0.0
C449 C 0.15799 0.17646 0.02321 0.0
C450 C 0.1492 0.17821 0.05536 0.0
C451 C 0.11153 0.16908 0.14334 0.0
C452 C 0.12662 0.17491 0.11451 0.0
H453 H 0.17079 0.13262 0.96962 0.0
H454 H 0.16261 0.1366 0.02383 0.0
H455 H 0.11295 0.20162 0.04648 0.0
H456 H 0.05835 0.192 0.18766 0.0
H457 H 0.09254 0.20532 0.14928 0.0
C458 C 0.36135 0.29532 0.47124 0.0
C459 C 0.35348 0.31847 0.45971 0.0
C460 C 0.3669 0.29247 0.50207 0.0
C461 C 0.35914 0.32187 0.57742 0.0
H462 H 0.4347 0.29626 0.59134 0.0
C463 C 0.42899 0.35278 0.67647 0.0
C464 C 0.45237 0.33834 0.68466 0.0
C465 C 0.40996 0.34431 0.65452 0.0
C466 C 0.4132 0.30282 0.58836 0.0
H467 H 0.34333 0.35631 0.47151 0.0
H468 H 0.35281 0.35134 0.52527 0.0
H469 H 0.41365 0.29252 0.54177 0.0
H470 H 0.47295 0.303 0.67899 0.0
H471 H 0.43876 0.28736 0.64218 0.0
H472 H 0.3589 0.33265 0.62392 0.0
C473 C 0.35478 0.3354 0.5106 0.0
C474 C 0.40116 0.30075 0.55969 0.0
C475 C 0.3496 0.33831 0.4798 0.0
C476 C 0.45488 0.31434 0.67306 0.0
C477 C 0.43553 0.30562 0.6516 0.0
C478 C 0.37103 0.32366 0.6063 0.0
C479 C 0.36427 0.31264 0.52197 0.0
C480 C 0.37442 0.31097 0.55363 0.0
C481 C 0.41389 0.3211 0.64058 0.0
C482 C 0.39867 0.31494 0.61192 0.0
H483 H 0.36457 0.27974 0.45623 0.0
H484 H 0.37406 0.27469 0.51022 0.0
H485 H 0.33831 0.32966 0.57347 0.0
H486 H 0.42699 0.37154 0.68482 0.0
H487 H 0.39378 0.35692 0.6467 0.0
C488 C 0.66959 0.3466 0.03126 0.0
C489 C 0.66849 0.32605 0.05055 0.0
C490 C 0.66434 0.34386 1.0004 0.0
C491 C 0.62139 0.30674 0.95056 0.0
H492 H 0.66135 0.341 0.88652 0.0
C493 C 0.56713 0.31642 0.83689 0.0
C494 C 0.5685 0.34018 0.8245 0.0
C495 C 0.58676 0.3091 0.85873 0.0
C496 C 0.64982 0.33139 0.90409 0.0
H497 H 0.66207 0.28645 0.05266 0.0
H498 H 0.65223 0.28171 0.99864 0.0
H499 H 0.6819 0.33952 0.93707 0.0
H500 H 0.59216 0.37443 0.82343 0.0
H501 H 0.62567 0.36235 0.86234 0.0
H502 H 0.5883 0.30016 0.9189 0.0
C503 C 0.65742 0.29987 1.00741 0.0
C504 C 0.66172 0.33044 0.93301 0.0
C505 C 0.66315 0.30255 0.03823 0.0
C506 C 0.59105 0.35583 0.8324 0.0
C507 C 0.61027 0.34881 0.85482 0.0
C508 C 0.60925 0.30805 0.92189 0.0
C509 C 0.65745 0.32058 0.98829 0.0
C510 C 0.6473 0.31856 0.95668 0.0
C511 C 0.60747 0.3258 0.86947 0.0
C512 C 0.62291 0.32092 0.89834 0.0
H513 H 0.67381 0.3649 0.0402 0.0
H514 H 0.66424 0.36019 0.9863 0.0
H515 H 0.60959 0.29773 0.96844 0.0
H516 H 0.54973 0.30412 0.83117 0.0
H517 H 0.58447 0.29091 0.86857 0.0
C518 C 0.85074 0.19397 0.53759 0.0
C519 C 0.8437 0.17042 0.54869 0.0
C520 C 0.85646 0.19738 0.50685 0.0
C521 C 0.85034 0.16824 0.431 0.0
H522 H 0.92351 0.19894 0.41672 0.0
C523 C 0.92289 0.14226 0.33216 0.0
C524 C 0.9449 0.15834 0.32384 0.0
C525 C 0.90293 0.14947 0.35384 0.0
C526 C 0.90263 0.19092 0.41984 0.0
H527 H 0.83535 0.13237 0.5361 0.0
H528 H 0.84529 0.13827 0.48259 0.0
H529 H 0.90256 0.20082 0.46656 0.0
H530 H 0.96195 0.19522 0.32909 0.0
H531 H 0.92611 0.20851 0.3655 0.0
H532 H 0.85076 0.15777 0.38438 0.0
C533 C 0.84642 0.15413 0.49752 0.0
C534 C 0.89065 0.19193 0.44866 0.0
C535 C 0.84101 0.15068 0.52822 0.0
C536 C 0.94489 0.18262 0.33495 0.0
C537 C 0.92464 0.19002 0.35623 0.0
C538 C 0.86219 0.16744 0.40201 0.0
C539 C 0.85491 0.17737 0.48657 0.0
C540 C 0.86484 0.17991 0.45484 0.0
C541 C 0.90458 0.17299 0.36748 0.0
C542 C 0.889 0.17804 0.39626 0.0
H543 H 0.85304 0.20951 0.55285 0.0
H544 H 0.86279 0.21555 0.49906 0.0
H545 H 0.83019 0.1591 0.43498 0.0
H546 H 0.9229 0.12326 0.32435 0.0
H547 H 0.88801 0.13571 0.36185 0.0
C548 C 0.89083 0.81597 0.053 0.0
C549 C 0.86324 0.82223 0.06215 0.0
C550 C 0.89713 0.81258 0.02249 0.0
C551 C 0.90011 0.79472 0.95704 0.0
H552 H 0.88744 0.85215 0.90676 0.0
C553 C 0.97459 0.82118 0.86178 0.0
C554 C 0.96554 0.83616 0.83788 0.0
C555 C 0.95552 0.81335 0.88384 0.0
C556 C 0.89048 0.8356 0.92002 0.0
H557 H 0.82048 0.82967 0.04684 0.0
H558 H 0.83178 0.82453 0.99297 0.0
H559 H 0.86597 0.85015 0.95678 0.0
H560 H 0.92902 0.85323 0.81702 0.0
H561 H 0.89522 0.83908 0.85549 0.0
H562 H 0.92507 0.78029 0.92078 0.0
C563 C 0.84835 0.82187 0.00957 0.0
C564 C 0.87825 0.83455 0.9488 0.0
C565 C 0.84189 0.82473 0.04026 0.0
C566 C 0.9365 0.84149 0.83507 0.0
C567 C 0.91726 0.83367 0.85735 0.0
C568 C 0.91196 0.79558 0.92814 0.0
C569 C 0.87609 0.81584 1.00042 0.0
C570 C 0.88396 0.81458 0.96803 0.0
C571 C 0.9268 0.82034 0.88268 0.0
C572 C 0.90845 0.81656 0.90978 0.0
H573 H 0.90761 0.81392 0.0695 0.0
H574 H 0.91876 0.80824 0.01606 0.0
H575 H 0.90448 0.77894 0.97128 0.0
H576 H 0.99688 0.8168 0.86449 0.0
H577 H 0.96392 0.80339 0.903 0.0
C578 C 0.63849 0.68641 0.54757 0.0
C579 C 0.66569 0.67869 0.55626 0.0
C580 C 0.63194 0.68964 0.51711 0.0
C581 C 0.64822 0.66446 0.44401 0.0
H582 H 0.60366 0.71946 0.4145 0.0
C583 C 0.58777 0.65554 0.33206 0.0
C584 C 0.5591 0.66218 0.33507 0.0
C585 C 0.60775 0.6635 0.3535 0.0
C586 C 0.61611 0.70394 0.42229 0.0
H587 H 0.70753 0.66863 0.54023 0.0
H588 H 0.69577 0.67357 0.48655 0.0
H589 H 0.62516 0.72173 0.4645 0.0
H590 H 0.52927 0.68395 0.36105 0.0
H591 H 0.56351 0.69755 0.39818 0.0
H592 H 0.63745 0.64579 0.40303 0.0
C593 C 0.67972 0.67749 0.50341 0.0
C594 C 0.62849 0.70532 0.4509 0.0
C595 C 0.68646 0.67477 0.534 0.0
C596 C 0.55126 0.67854 0.35821 0.0
C597 C 0.57106 0.68648 0.37947 0.0
C598 C 0.63545 0.6629 0.41556 0.0
C599 C 0.6523 0.68475 0.49468 0.0
C600 C 0.64385 0.68526 0.46244 0.0
C601 C 0.59934 0.67823 0.37823 0.0
C602 C 0.61827 0.68224 0.40482 0.0
H603 H 0.62214 0.6895 0.56436 0.0
H604 H 0.61054 0.69496 0.51103 0.0
H605 H 0.65985 0.64867 0.45242 0.0
H606 H 0.59432 0.64273 0.31461 0.0
H607 H 0.62944 0.65709 0.35155 0.0
C608 C 0.33717 0.67401 0.9846 0.0
C609 C 0.3585 0.67886 0.96322 0.0
C610 C 0.34278 0.67669 0.01548 0.0
C611 C 0.37286 0.66391 0.07556 0.0
H612 H 0.41483 0.71967 0.108 0.0
C613 C 0.4312 0.65455 0.18848 0.0
C614 C 0.45973 0.66193 0.1862 0.0
C615 C 0.41135 0.66247 0.16699 0.0
C616 C 0.40308 0.70394 0.09939 0.0
H617 H 0.40179 0.69132 0.95694 0.0
H618 H 0.4114 0.6967 0.01077 0.0
H619 H 0.39452 0.72216 0.05747 0.0
H620 H 0.48939 0.68494 0.16158 0.0
H621 H 0.45537 0.69851 0.12437 0.0
H622 H 0.38322 0.64487 0.11625 0.0
C623 C 0.39044 0.6907 1.00379 0.0
C624 C 0.39137 0.70544 0.07048 0.0
C625 C 0.38503 0.68752 0.97305 0.0
C626 C 0.4675 0.67897 0.16384 0.0
C627 C 0.44782 0.68688 0.14254 0.0
C628 C 0.38494 0.66224 0.10431 0.0
C629 C 0.36959 0.68482 0.02536 0.0
C630 C 0.37702 0.68513 0.05788 0.0
C631 C 0.41976 0.6779 0.14296 0.0
C632 C 0.40122 0.68188 0.11611 0.0
H633 H 0.31661 0.66714 0.97748 0.0
H634 H 0.32638 0.67201 0.03165 0.0
H635 H 0.362 0.64791 0.06633 0.0
H636 H 0.42473 0.64122 0.20534 0.0
H637 H 0.38981 0.65549 0.1683 0.0
C638 C 0.19105 0.84857 0.48734 0.0
C639 C 0.18138 0.83063 0.46688 0.0
C640 C 0.18458 0.84668 0.51804 0.0
C641 C 0.15096 0.80496 0.57602 0.0
H642 H 0.13093 0.86752 0.61306 0.0
C643 C 0.06358 0.81951 0.66476 0.0
C644 C 0.06718 0.83788 0.68687 0.0
C645 C 0.0851 0.8146 0.64392 0.0
C646 C 0.13701 0.8499 0.60339 0.0
H647 H 0.15808 0.79636 0.46223 0.0
H648 H 0.14552 0.79347 0.5155 0.0
H649 H 0.15383 0.86721 0.56411 0.0
H650 H 0.0968 0.86424 0.70604 0.0
H651 H 0.13445 0.85595 0.66913 0.0
H652 H 0.13189 0.78781 0.61473 0.0
C653 C 0.15895 0.80863 0.50834 0.0
C654 C 0.15025 0.84967 0.57518 0.0
C655 C 0.16598 0.81029 0.47771 0.0
C656 C 0.09359 0.84983 0.68937 0.0
C657 C 0.11501 0.84524 0.66812 0.0
C658 C 0.13724 0.80522 0.60409 0.0
C659 C 0.16759 0.82713 0.52889 0.0
C660 C 0.15686 0.82719 0.56069 0.0
C661 C 0.11048 0.8283 0.64443 0.0
C662 C 0.1296 0.8277 0.61775 0.0
H663 H 0.20312 0.86437 0.47943 0.0
H664 H 0.19234 0.86094 0.5331 0.0
H665 H 0.15625 0.78728 0.56605 0.0
H666 H 0.04337 0.81009 0.66233 0.0
H667 H 0.08088 0.80156 0.62588 0.0
C668 C 0.28331 0.25071 0.35464 0.0
C669 C 0.30251 0.26077 0.33381 0.0
C670 C 0.25942 0.2377 0.34475 0.0
C671 C 0.21244 0.2288 0.2786 0.0
H672 H 0.18511 0.17379 0.32657 0.0
C673 C 0.11175 0.16335 0.25889 0.0
C674 C 0.09292 0.16592 0.28332 0.0
C675 C 0.13862 0.17473 0.25972 0.0
C676 C 0.1927 0.18896 0.31278 0.0
H677 H 0.31194 0.26525 0.28632 0.0
H678 H 0.27036 0.24199 0.26886 0.0
H679 H 0.23062 0.19288 0.33872 0.0
H680 H 0.08686 0.18342 0.32698 0.0
H681 H 0.13356 0.20262 0.32855 0.0
H682 H 0.17396 0.22467 0.25289 0.0
C683 C 0.27356 0.2444 0.29286 0.0
C684 C 0.2186 0.20008 0.3199 0.0
C685 C 0.29745 0.25756 0.30282 0.0
C686 C 0.10094 0.18087 0.30788 0.0
C687 C 0.12763 0.19191 0.30883 0.0
C688 C 0.18654 0.21742 0.27128 0.0
C689 C 0.25423 0.23429 0.31373 0.0
C690 C 0.22841 0.22065 0.30354 0.0
C691 C 0.14693 0.1885 0.28516 0.0
C692 C 0.1762 0.19786 0.28887 0.0
H693 H 0.28669 0.25318 0.37863 0.0
H694 H 0.24472 0.2307 0.36149 0.0
H695 H 0.21924 0.24467 0.26561 0.0
H696 H 0.10644 0.15149 0.24009 0.0
H697 H 0.15334 0.17179 0.24128 0.0
C698 C 0.27402 0.21193 0.85995 0.0
C699 C 0.25366 0.20095 0.84112 0.0
C700 C 0.29294 0.22952 0.84854 0.0
C701 C 0.32451 0.25295 0.77748 0.0
H702 H 0.34588 0.30789 0.82892 0.0
C703 C 0.39816 0.34797 0.78242 0.0
C704 C 0.42367 0.33883 0.77054 0.0
C705 C 0.37437 0.33271 0.78479 0.0
C706 C 0.33988 0.29296 0.8139 0.0
H707 H 0.23622 0.2003 0.796 0.0
H708 H 0.26913 0.23141 0.77595 0.0
H709 H 0.31025 0.27881 0.84603 0.0
H710 H 0.44395 0.30729 0.74969 0.0
H711 H 0.40252 0.28009 0.75473 0.0
H712 H 0.35414 0.26745 0.74517 0.0
C713 C 0.27096 0.226 0.79936 0.0
C714 C 0.3197 0.27598 0.82402 0.0
C715 C 0.25204 0.20833 0.81082 0.0
C716 C 0.42439 0.31474 0.75878 0.0
C717 C 0.40063 0.2992 0.76172 0.0
C718 C 0.34474 0.27008 0.76724 0.0
C719 C 0.29172 0.23677 0.81809 0.0
C720 C 0.31202 0.25555 0.80618 0.0
C721 C 0.37577 0.30771 0.77613 0.0
C722 C 0.35283 0.29023 0.78545 0.0
H723 H 0.27552 0.20665 0.88345 0.0
H724 H 0.30884 0.23716 0.86355 0.0
H725 H 0.31921 0.23733 0.76321 0.0
H726 H 0.3971 0.36659 0.79141 0.0
H727 H 0.35532 0.34018 0.79498 0.0
C728 C 0.77383 0.21698 0.70004 0.0
C729 C 0.79159 0.22591 0.677 0.0
C730 C 0.75045 0.23082 0.70982 0.0
C731 C 0.70272 0.28053 0.68382 0.0
H732 H 0.68139 0.28634 0.76811 0.0
C733 C 0.62132 0.3515 0.71887 0.0
C734 C 0.59804 0.34289 0.73565 0.0
C735 C 0.64592 0.33746 0.71643 0.0
C736 C 0.68703 0.2847 0.7445 0.0
H737 H 0.79891 0.25611 0.64601 0.0
H738 H 0.75856 0.28051 0.66331 0.0
H739 H 0.72243 0.26097 0.75374 0.0
H740 H 0.58293 0.31374 0.76499 0.0
H741 H 0.62642 0.28879 0.76062 0.0
H742 H 0.66772 0.30427 0.67444 0.0
C743 C 0.76236 0.26273 0.67369 0.0
C744 C 0.71045 0.27016 0.73623 0.0
C745 C 0.7856 0.24887 0.66389 0.0
C746 C 0.60068 0.32082 0.75205 0.0
C747 C 0.62548 0.30655 0.74944 0.0
C748 C 0.67957 0.29505 0.69205 0.0
C749 C 0.74431 0.2538 0.69658 0.0
C750 C 0.7188 0.26823 0.70578 0.0
C751 C 0.64779 0.31429 0.73046 0.0
C752 C 0.67171 0.29765 0.72247 0.0
H753 H 0.77795 0.19918 0.71026 0.0
H754 H 0.73684 0.22326 0.72722 0.0
H755 H 0.70796 0.27891 0.6601 0.0
H756 H 0.61997 0.36862 0.70631 0.0
H757 H 0.66304 0.34422 0.7023 0.0
C758 C 0.77044 0.3028 0.19614 0.0
C759 C 0.75454 0.29626 0.17052 0.0
C760 C 0.78902 0.28583 0.2093 0.0
C761 C 0.80709 0.21921 0.21226 0.0
H762 H 0.88314 0.24283 0.22975 0.0
C763 C 0.9039 0.15543 0.2144 0.0
C764 C 0.92675 0.16058 0.23376 0.0
C765 C 0.88043 0.17106 0.2133 0.0
C766 C 0.86186 0.23597 0.22567 0.0
H767 H 0.74574 0.26707 0.13839 0.0
H768 H 0.77812 0.23731 0.16138 0.0
H769 H 0.84654 0.27211 0.21493 0.0
H770 H 0.9427 0.18592 0.26763 0.0
H771 H 0.90123 0.21315 0.26628 0.0
H772 H 0.82257 0.183 0.2223 0.0
C773 C 0.77586 0.25537 0.17169 0.0
C774 C 0.84087 0.25278 0.21707 0.0
C775 C 0.75739 0.27238 0.15845 0.0
C776 C 0.92515 0.18123 0.25294 0.0
C777 C 0.90159 0.19699 0.25182 0.0
C778 C 0.82804 0.20243 0.22097 0.0
C779 C 0.79214 0.26199 0.19707 0.0
C780 C 0.81343 0.24451 0.20953 0.0
C781 C 0.87922 0.19235 0.23148 0.0
C782 C 0.85589 0.21051 0.227 0.0
H783 H 0.76887 0.32119 0.20569 0.0
H784 H 0.80114 0.29145 0.22891 0.0
H785 H 0.78601 0.21233 0.20715 0.0
H786 H 0.90453 0.13965 0.19932 0.0
H787 H 0.86388 0.16704 0.19707 0.0
C788 C 0.73973 0.74936 0.681 0.0
C789 C 0.73688 0.72354 0.68168 0.0
C790 C 0.76232 0.76099 0.69569 0.0
C791 C 0.83453 0.75087 0.72413 0.0
H792 H 0.82095 0.81372 0.76385 0.0
C793 C 0.92723 0.8125 0.76519 0.0
C794 C 0.92568 0.83603 0.75202 0.0
C795 C 0.90321 0.79707 0.7656 0.0
C796 C 0.82507 0.79609 0.75306 0.0
H797 H 0.75494 0.68963 0.69885 0.0
H798 H 0.79494 0.71 0.72437 0.0
H799 H 0.78086 0.78929 0.74559 0.0
H800 H 0.89782 0.86269 0.73111 0.0
H801 H 0.856 0.83628 0.73247 0.0
H802 H 0.87886 0.75821 0.7306 0.0
C803 C 0.77981 0.7212 0.71216 0.0
C804 C 0.80213 0.78217 0.74244 0.0
C805 C 0.75702 0.70954 0.69753 0.0
C806 C 0.89946 0.84463 0.74148 0.0
C807 C 0.87549 0.8295 0.74236 0.0
C808 C 0.85753 0.76483 0.7348 0.0
C809 C 0.78256 0.7471 0.7116 0.0
C810 C 0.80664 0.75984 0.72687 0.0
C811 C 0.8773 0.80521 0.75336 0.0
C812 C 0.85307 0.78802 0.74841 0.0
H813 H 0.72431 0.76062 0.66928 0.0
H814 H 0.76406 0.78093 0.69437 0.0
H815 H 0.83873 0.73378 0.71219 0.0
H816 H 0.94735 0.80544 0.77323 0.0
H817 H 0.90516 0.77848 0.77437 0.0
C818 C 0.7451 0.80123 0.19499 0.0
C819 C 0.76672 0.79379 0.17511 0.0
C820 C 0.72683 0.78378 0.20796 0.0
C821 C 0.69913 0.72094 0.19386 0.0
H822 H 0.66893 0.7265 0.27505 0.0
C823 C 0.62361 0.64737 0.23668 0.0
C824 C 0.59791 0.65618 0.24851 0.0
C825 C 0.64707 0.66297 0.23412 0.0
C826 C 0.67718 0.72476 0.25233 0.0
H827 H 0.78591 0.76233 0.15281 0.0
H828 H 0.7547 0.73177 0.17606 0.0
H829 H 0.70468 0.75619 0.25743 0.0
H830 H 0.57713 0.68754 0.26931 0.0
H831 H 0.61826 0.7152 0.26442 0.0
H832 H 0.67158 0.68991 0.18841 0.0
C833 C 0.75165 0.75109 0.18158 0.0
C834 C 0.69758 0.74178 0.24218 0.0
C835 C 0.76975 0.76855 0.16847 0.0
C836 C 0.5968 0.6803 0.26024 0.0
C837 C 0.62033 0.69611 0.25737 0.0
C838 C 0.67896 0.70398 0.20399 0.0
C839 C 0.72966 0.75849 0.20114 0.0
C840 C 0.70876 0.74007 0.21276 0.0
C841 C 0.64523 0.6879 0.24288 0.0
C842 C 0.6677 0.70562 0.23331 0.0
H843 H 0.74195 0.82064 0.2 0.0
H844 H 0.70987 0.79022 0.22247 0.0
H845 H 0.70661 0.71939 0.17083 0.0
H846 H 0.62505 0.62875 0.22773 0.0
H847 H 0.66619 0.65588 0.22365 0.0
C848 C 0.23142 0.74608 0.34493 0.0
C849 C 0.23046 0.77145 0.33855 0.0
C850 C 0.25342 0.73147 0.3336 0.0
C851 C 0.31135 0.72928 0.27645 0.0
H852 H 0.34244 0.68098 0.33162 0.0
C853 C 0.41907 0.67663 0.26112 0.0
C854 C 0.41986 0.65243 0.27249 0.0
C855 C 0.39419 0.69073 0.26377 0.0
C856 C 0.33377 0.6941 0.3157 0.0
H857 H 0.25109 0.80136 0.31465 0.0
H858 H 0.29009 0.77593 0.2953 0.0
H859 H 0.30304 0.70657 0.34764 0.0
H860 H 0.39488 0.62311 0.29256 0.0
H861 H 0.3515 0.64724 0.2963 0.0
H862 H 0.34285 0.71688 0.24473 0.0
C863 C 0.2737 0.76724 0.30878 0.0
C864 C 0.31111 0.70881 0.32492 0.0
C865 C 0.25156 0.78184 0.32004 0.0
C866 C 0.39486 0.64182 0.28389 0.0
C867 C 0.3701 0.65572 0.28626 0.0
C868 C 0.33425 0.71452 0.26721 0.0
C869 C 0.27506 0.7419 0.3157 0.0
C870 C 0.29941 0.72648 0.30541 0.0
C871 C 0.36987 0.68071 0.27772 0.0
C872 C 0.34551 0.69659 0.28669 0.0
H873 H 0.21522 0.73755 0.35883 0.0
H874 H 0.25344 0.71194 0.33889 0.0
H875 H 0.30276 0.74263 0.26078 0.0
H876 H 0.43818 0.68524 0.25239 0.0
H877 H 0.39464 0.70992 0.25688 0.0
C878 C 0.24226 0.69484 0.82838 0.0
C879 C 0.26332 0.70175 0.84919 0.0
C880 C 0.2247 0.71268 0.81529 0.0
C881 C 0.19797 0.77575 0.82971 0.0
H882 H 0.17125 0.77206 0.74707 0.0
C883 C 0.12693 0.85152 0.78532 0.0
C884 C 0.10136 0.84333 0.77246 0.0
C885 C 0.14982 0.83545 0.78836 0.0
C886 C 0.17854 0.77328 0.77019 0.0
H887 H 0.2822 0.73264 0.87309 0.0
H888 H 0.2523 0.76385 0.84967 0.0
H889 H 0.20515 0.74135 0.76565 0.0
H890 H 0.08044 0.81264 0.75017 0.0
H891 H 0.12051 0.78422 0.75586 0.0
H892 H 0.17132 0.80732 0.83456 0.0
C893 C 0.24908 0.74466 0.84353 0.0
C894 C 0.19787 0.75567 0.78088 0.0
C895 C 0.26644 0.72683 0.85675 0.0
C896 C 0.09999 0.81943 0.76007 0.0
C897 C 0.12292 0.80316 0.7634 0.0
C898 C 0.17889 0.79331 0.81903 0.0
C899 C 0.22772 0.73782 0.82292 0.0
C900 C 0.20779 0.7567 0.81083 0.0
C901 C 0.1475 0.81069 0.77901 0.0
C902 C 0.16893 0.79236 0.78917 0.0
H903 H 0.23908 0.67556 0.82259 0.0
H904 H 0.20819 0.70667 0.79993 0.0
H905 H 0.20446 0.77681 0.8531 0.0
H906 H 0.12864 0.86997 0.79474 0.0
H907 H 0.16877 0.84201 0.7997 0.0
loop_
_geom_bond_atom_site_label_1
_geom_bond_atom_site_label_2
_geom_bond_distance
_geom_bond_site_symmetry_2
_ccdc_geom_bond_type
H0 C7 0.929 . S
H1 C10 0.930 . S
H2 C12 0.929 . S
H3 C4 0.969 . S
C4 H3 0.969 . S
C4 O5 1.550 . S
C4 H6 0.973 . S
O5 C4 1.550 . S
O5 C11 1.412 . S
H6 C4 0.973 . S
C7 H0 0.929 . S
C7 C8 1.400 . S
C7 C9 1.364 . S
C8 C7 1.400 . S
C8 C12 1.377 . S
C9 C7 1.364 . S
C9 C10 1.374 . S
C10 H1 0.930 . S
C10 C9 1.374 . S
C10 C11 1.383 . S
C11 O5 1.412 . S
C11 C10 1.383 . S
C11 C12 1.394 . S
C12 H2 0.929 . S
C12 C8 1.377 . S
C12 C11 1.394 . S
H13 C20 0.929 . S
H14 C23 0.930 . S
H15 C25 0.929 . S
H16 C17 0.969 . S
C17 H16 0.969 . S
C17 O18 1.550 . S
C17 H19 0.973 . S
O18 C17 1.550 . S
O18 C24 1.412 . S
H19 C17 0.973 . S
C20 H13 0.929 . S
C20 C21 1.400 . S
C20 C22 1.364 . S
C21 C20 1.400 . S
C21 C25 1.377 . S
C22 C20 1.364 . S
C22 C23 1.374 . S
C23 H14 0.930 . S
C23 C22 1.374 . S
C23 C24 1.383 . S
C24 O18 1.412 . S
C24 C23 1.383 . S
C24 C25 1.394 . S
C25 H15 0.929 . S
C25 C21 1.377 . S
C25 C24 1.394 . S
H26 C33 0.929 . S
H27 C36 0.930 . S
H28 C38 0.929 . S
H29 C30 0.969 . S
C30 H29 0.969 . S
C30 O31 1.550 . S
C30 H32 0.973 . S
O31 C30 1.550 . S
O31 C37 1.412 . S
H32 C30 0.973 . S
C33 H26 0.929 . S
C33 C34 1.400 . S
C33 C35 1.364 . S
C34 C33 1.400 . S
C34 C38 1.377 . S
C35 C33 1.364 . S
C35 C36 1.374 . S
C36 H27 0.930 . S
C36 C35 1.374 . S
C36 C37 1.383 . S
C37 O31 1.412 . S
C37 C36 1.383 . S
C37 C38 1.394 . S
C38 H28 0.929 . S
C38 C34 1.377 . S
C38 C37 1.394 . S
H39 C46 0.929 . S
H40 C49 0.930 . S
H41 C51 0.929 . S
H42 C43 0.969 . S
C43 H42 0.969 . S
C43 O44 1.550 . S
C43 H45 0.973 . S
O44 C43 1.550 . S
O44 C50 1.412 . S
H45 C43 0.973 . S
C46 H39 0.929 . S
C46 C47 1.400 . S
C46 C48 1.364 . S
C47 C46 1.400 . S
C47 C51 1.377 . S
C48 C46 1.364 . S
C48 C49 1.374 . S
C49 H40 0.930 . S
C49 C48 1.374 . S
C49 C50 1.383 . S
C50 O44 1.412 . S
C50 C49 1.383 . S
C50 C51 1.394 . S
C51 H41 0.929 . S
C51 C47 1.377 . S
C51 C50 1.394 . S
H52 C59 0.929 . S
H53 C62 0.930 . S
H54 C64 0.929 . S
H55 C56 0.969 . S
C56 H55 0.969 . S
C56 O57 1.550 . S
C56 H58 0.973 . S
O57 C56 1.550 . S
O57 C63 1.412 . S
H58 C56 0.973 . S
C59 H52 0.929 . S
C59 C60 1.400 . S
C59 C61 1.364 . S
C60 C59 1.400 . S
C60 C64 1.377 . S
C61 C59 1.364 . S
C61 C62 1.374 . S
C62 H53 0.930 . S
C62 C61 1.374 . S
C62 C63 1.383 . S
C63 O57 1.412 . S
C63 C62 1.383 . S
C63 C64 1.394 . S
C64 H54 0.929 . S
C64 C60 1.377 . S
C64 C63 1.394 . S
H65 C72 0.929 . S
H66 C75 0.930 . S
H67 C77 0.929 . S
H68 C69 0.969 . S
C69 H68 0.969 . S
C69 O70 1.550 . S
C69 H71 0.973 . S
O70 C69 1.550 . S
O70 C76 1.412 . S
H71 C69 0.973 . S
C72 H65 0.929 . S
C72 C73 1.400 . S
C72 C74 1.364 . S
C73 C72 1.400 . S
C73 C77 1.377 . S
C74 C72 1.364 . S
C74 C75 1.374 . S
C75 H66 0.930 . S
C75 C74 1.374 . S
C75 C76 1.383 . S
C76 O70 1.412 . S
C76 C75 1.383 . S
C76 C77 1.394 . S
C77 H67 0.929 . S
C77 C73 1.377 . S
C77 C76 1.394 . S
H78 C85 0.929 . S
H79 C88 0.930 . S
H80 C90 0.929 . S
H81 C82 0.969 . S
C82 H81 0.969 . S
C82 O83 1.550 . S
C82 H84 0.973 . S
O83 C82 1.550 . S
O83 C89 1.412 . S
H84 C82 0.973 . S
C85 H78 0.929 . S
C85 C86 1.400 . S
C85 C87 1.364 . S
C86 C85 1.400 . S
C86 C90 1.377 . S
C87 C85 1.364 . S
C87 C88 1.374 . S
C88 H79 0.930 . S
C88 C87 1.374 . S
C88 C89 1.383 . S
C89 O83 1.412 . S
C89 C88 1.383 . S
C89 C90 1.394 . S
C90 H80 0.929 . S
C90 C86 1.377 . S
C90 C89 1.394 . S
H91 C98 0.929 . S
H92 C101 0.930 . S
H93 C103 0.929 . S
H94 C95 0.969 . S
C95 H94 0.969 . S
C95 O96 1.550 . S
C95 H97 0.973 . S
O96 C95 1.550 . S
O96 C102 1.412 . S
H97 C95 0.973 . S
C98 H91 0.929 . S
C98 C99 1.400 . S
C98 C100 1.364 . S
C99 C98 1.400 . S
C99 C103 1.377 . S
C100 C98 1.364 . S
C100 C101 1.374 . S
C101 H92 0.930 . S
C101 C100 1.374 . S
C101 C102 1.383 . S
C102 O96 1.412 . S
C102 C101 1.383 . S
C102 C103 1.394 . S
C103 H93 0.929 . S
C103 C99 1.377 . S
C103 C102 1.394 . S
Zn104 O110 1.920 . S
Zn104 O116 1.898 . S
Zn104 O119 1.905 . S
Zn105 O113 1.905 1_655 S
Zn105 O114 1.898 . S
Zn105 O122 1.920 . S
Zn106 O109 2.080 1_455 S
Zn106 O112 2.114 . S
Zn106 O115 2.120 1_455 S
Zn106 O117 2.120 . S
Zn106 O118 2.114 . S
Zn106 O121 2.080 1_455 S
C107 O112 1.166 . S
C107 O113 1.182 . S
C108 O114 1.167 . S
C108 O115 1.299 . S
O109 Zn106 2.080 1_655 S
O109 C123 1.305 . S
O110 Zn104 1.920 . S
O110 C123 1.234 1_455 S
C111 O116 1.167 . S
C111 O117 1.299 . S
O112 Zn106 2.114 . S
O112 C107 1.166 . S
O113 Zn105 1.905 1_455 S
O113 C107 1.182 . S
O114 Zn105 1.898 . S
O114 C108 1.167 . S
O115 Zn106 2.120 1_655 S
O115 C108 1.299 . S
O116 Zn104 1.898 . S
O116 C111 1.167 . S
O117 Zn106 2.120 . S
O117 C111 1.299 . S
O118 Zn106 2.114 . S
O118 C120 1.166 . S
O119 Zn104 1.905 . S
O119 C120 1.182 . S
C120 O118 1.166 . S
C120 O119 1.182 . S
O121 Zn106 2.080 1_655 S
O121 C124 1.305 . S
O122 Zn105 1.920 . S
O122 C124 1.234 . S
C123 O109 1.305 . S
C123 O110 1.234 1_655 S
C124 O121 1.305 . S
C124 O122 1.234 . S
Zn125 O131 1.920 . S
Zn125 O137 1.898 . S
Zn125 O140 1.905 . S
Zn126 O134 1.905 . S
Zn126 O135 1.898 . S
Zn126 O143 1.920 . S
Zn127 O130 2.080 . S
Zn127 O133 2.114 . S
Zn127 O136 2.120 . S
Zn127 O138 2.120 . S
Zn127 O139 2.114 . S
Zn127 O142 2.080 . S
C128 O133 1.166 . S
C128 O134 1.182 . S
C129 O135 1.167 . S
C129 O136 1.299 . S
O130 Zn127 2.080 . S
O130 C144 1.305 . S
O131 Zn125 1.920 . S
O131 C144 1.234 . S
C132 O137 1.167 . S
C132 O138 1.299 . S
O133 Zn127 2.114 . S
O133 C128 1.166 . S
O134 Zn126 1.905 . S
O134 C128 1.182 . S
O135 Zn126 1.898 . S
O135 C129 1.167 . S
O136 Zn127 2.120 . S
O136 C129 1.299 . S
O137 Zn125 1.898 . S
O137 C132 1.167 . S
O138 Zn127 2.120 . S
O138 C132 1.299 . S
O139 Zn127 2.114 . S
O139 C141 1.166 . S
O140 Zn125 1.905 . S
O140 C141 1.182 . S
C141 O139 1.166 . S
C141 O140 1.182 . S
O142 Zn127 2.080 . S
O142 C145 1.305 . S
O143 Zn126 1.920 . S
O143 C145 1.234 . S
C144 O130 1.305 . S
C144 O131 1.234 . S
C145 O142 1.305 . S
C145 O143 1.234 . S
Zn146 O152 1.920 . S
Zn146 O158 1.898 . S
Zn146 O161 1.905 . S
Zn147 O155 1.905 . S
Zn147 O156 1.898 . S
Zn147 O164 1.920 1_655 S
Zn148 O151 2.080 . S
Zn148 O154 2.114 1_455 S
Zn148 O157 2.120 1_455 S
Zn148 O159 2.120 . S
Zn148 O160 2.114 1_455 S
Zn148 O163 2.080 . S
C149 O154 1.166 . S
C149 O155 1.182 . S
C150 O156 1.167 . S
C150 O157 1.299 . S
O151 Zn148 2.080 . S
O151 C165 1.305 . S
O152 Zn146 1.920 . S
O152 C165 1.234 . S
C153 O158 1.167 . S
C153 O159 1.299 . S
O154 Zn148 2.114 1_655 S
O154 C149 1.166 . S
O155 Zn147 1.905 . S
O155 C149 1.182 . S
O156 Zn147 1.898 . S
O156 C150 1.167 . S
O157 Zn148 2.120 1_655 S
O157 C150 1.299 . S
O158 Zn146 1.898 . S
O158 C153 1.167 . S
O159 Zn148 2.120 . S
O159 C153 1.299 . S
O160 Zn148 2.114 1_655 S
O160 C162 1.166 . S
O161 Zn146 1.905 . S
O161 C162 1.182 1_455 S
C162 O160 1.166 . S
C162 O161 1.182 1_655 S
O163 Zn148 2.080 . S
O163 C166 1.305 . S
O164 Zn147 1.920 1_455 S
O164 C166 1.234 . S
C165 O151 1.305 . S
C165 O152 1.234 . S
C166 O163 1.305 . S
C166 O164 1.234 . S
Zn167 O173 1.920 . S
Zn167 O179 1.898 . S
Zn167 O182 1.905 . S
Zn168 O176 1.905 . S
Zn168 O177 1.898 . S
Zn168 O185 1.920 . S
Zn169 O172 2.080 . S
Zn169 O175 2.114 . S
Zn169 O178 2.120 . S
Zn169 O180 2.120 . S
Zn169 O181 2.114 . S
Zn169 O184 2.080 . S
C170 O175 1.166 . S
C170 O176 1.182 . S
C171 O177 1.167 . S
C171 O178 1.299 . S
O172 Zn169 2.080 . S
O172 C186 1.305 . S
O173 Zn167 1.920 . S
O173 C186 1.234 . S
C174 O179 1.167 . S
C174 O180 1.299 . S
O175 Zn169 2.114 . S
O175 C170 1.166 . S
O176 Zn168 1.905 . S
O176 C170 1.182 . S
O177 Zn168 1.898 . S
O177 C171 1.167 . S
O178 Zn169 2.120 . S
O178 C171 1.299 . S
O179 Zn167 1.898 . S
O179 C174 1.167 . S
O180 Zn169 2.120 . S
O180 C174 1.299 . S
O181 Zn169 2.114 . S
O181 C183 1.166 . S
O182 Zn167 1.905 . S
O182 C183 1.182 . S
C183 O181 1.166 . S
C183 O182 1.182 . S
O184 Zn169 2.080 . S
O184 C187 1.305 . S
O185 Zn168 1.920 . S
O185 C187 1.234 . S
C186 O172 1.305 . S
C186 O173 1.234 . S
C187 O184 1.305 . S
C187 O185 1.234 . S
C188 C189 1.349 . S
C188 C190 1.327 . S
C188 H213 0.950 . S
C189 C188 1.349 . S
C189 C205 1.349 . S
C190 C188 1.327 . S
C190 C209 1.429 . S
C190 H214 0.950 . S
C191 C208 1.574 . S
C191 C210 1.368 . S
C191 H215 0.949 . S
H192 C196 0.949 . S
C193 C194 1.349 . S
C193 C195 1.327 . S
C193 H216 0.950 . S
C194 C193 1.349 . S
C194 C206 1.349 . S
C195 C193 1.327 . S
C195 C211 1.429 . S
C195 H217 0.950 . S
C196 H192 0.949 . S
C196 C204 1.574 . S
C196 C212 1.368 . S
H197 C205 0.950 . S
H198 C203 0.950 . S
H199 C204 0.949 . S
H200 C206 0.950 . S
H201 C207 0.950 . S
H202 C208 0.949 . S
C203 H198 0.950 . S
C203 C205 1.327 . S
C203 C209 1.429 . S
C204 C196 1.574 . S
C204 H199 0.949 . S
C204 C210 1.368 . S
C205 C189 1.349 . S
C205 H197 0.950 . S
C205 C203 1.327 . S
C206 C194 1.349 . S
C206 H200 0.950 . S
C206 C207 1.327 . S
C207 H201 0.950 . S
C207 C206 1.327 . S
C207 C211 1.429 . S
C208 C191 1.574 . S
C208 H202 0.949 . S
C208 C212 1.368 . S
C209 C190 1.429 . S
C209 C203 1.429 . S
C209 C210 1.523 . S
C210 C191 1.368 . S
C210 C204 1.368 . S
C210 C209 1.523 . S
C211 C195 1.429 . S
C211 C207 1.429 . S
C211 C212 1.523 1_545 S
C212 C196 1.368 . S
C212 C208 1.368 . S
C212 C211 1.523 1_565 S
H213 C188 0.950 . S
H214 C190 0.950 . S
H215 C191 0.949 . S
H216 C193 0.950 . S
H217 C195 0.950 . S
C218 C219 1.349 . S
C218 C220 1.327 . S
C218 H243 0.950 . S
C219 C218 1.349 . S
C219 C235 1.349 . S
C220 C218 1.327 . S
C220 C239 1.429 . S
C220 H244 0.950 . S
C221 C238 1.574 . S
C221 C240 1.368 . S
C221 H245 0.949 . S
H222 C226 0.949 . S
C223 C224 1.349 . S
C223 C225 1.327 . S
C223 H246 0.950 . S
C224 C223 1.349 . S
C224 C236 1.349 . S
C225 C223 1.327 . S
C225 C241 1.429 . S
C225 H247 0.950 . S
C226 H222 0.949 . S
C226 C234 1.574 . S
C226 C242 1.368 . S
H227 C235 0.950 . S
H228 C233 0.950 . S
H229 C234 0.949 . S
H230 C236 0.950 . S
H231 C237 0.950 . S
H232 C238 0.949 . S
C233 H228 0.950 . S
C233 C235 1.327 . S
C233 C239 1.429 . S
C234 C226 1.574 . S
C234 H229 0.949 . S
C234 C240 1.368 . S
C235 C219 1.349 . S
C235 H227 0.950 . S
C235 C233 1.327 . S
C236 C224 1.349 . S
C236 H230 0.950 . S
C236 C237 1.327 . S
C237 H231 0.950 . S
C237 C236 1.327 . S
C237 C241 1.429 . S
C238 C221 1.574 . S
C238 H232 0.949 . S
C238 C242 1.368 . S
C239 C220 1.429 . S
C239 C233 1.429 . S
C239 C240 1.523 . S
C240 C221 1.368 . S
C240 C234 1.368 . S
C240 C239 1.523 . S
C241 C225 1.429 . S
C241 C237 1.429 . S
C241 C242 1.523 . S
C242 C226 1.368 . S
C242 C238 1.368 . S
C242 C241 1.523 . S
H243 C218 0.950 . S
H244 C220 0.950 . S
H245 C221 0.949 . S
H246 C223 0.950 . S
H247 C225 0.950 . S
C248 C249 1.349 . S
C248 C250 1.327 . S
C248 H273 0.950 . S
C249 C248 1.349 . S
C249 C265 1.349 . S
C250 C248 1.327 . S
C250 C269 1.429 . S
C250 H274 0.950 . S
C251 C268 1.574 . S
C251 C270 1.368 . S
C251 H275 0.949 . S
H252 C256 0.949 . S
C253 C254 1.349 . S
C253 C255 1.327 . S
C253 H276 0.950 . S
C254 C253 1.349 . S
C254 C266 1.349 . S
C255 C253 1.327 . S
C255 C271 1.429 . S
C255 H277 0.950 . S
C256 H252 0.949 . S
C256 C264 1.574 . S
C256 C272 1.368 . S
H257 C265 0.950 . S
H258 C263 0.950 . S
H259 C264 0.949 . S
H260 C266 0.950 . S
H261 C267 0.950 . S
H262 C268 0.949 . S
C263 H258 0.950 . S
C263 C265 1.327 . S
C263 C269 1.429 . S
C264 C256 1.574 . S
C264 H259 0.949 . S
C264 C270 1.368 . S
C265 C249 1.349 . S
C265 H257 0.950 . S
C265 C263 1.327 . S
C266 C254 1.349 . S
C266 H260 0.950 . S
C266 C267 1.327 . S
C267 H261 0.950 . S
C267 C266 1.327 . S
C267 C271 1.429 . S
C268 C251 1.574 . S
C268 H262 0.949 . S
C268 C272 1.368 . S
C269 C250 1.429 . S
C269 C263 1.429 . S
C269 C270 1.523 . S
C270 C251 1.368 . S
C270 C264 1.368 . S
C270 C269 1.523 . S
C271 C255 1.429 . S
C271 C267 1.429 . S
C271 C272 1.523 . S
C272 C256 1.368 . S
C272 C268 1.368 . S
C272 C271 1.523 . S
H273 C248 0.950 . S
H274 C250 0.950 . S
H275 C251 0.949 . S
H276 C253 0.950 . S
H277 C255 0.950 . S
C278 C279 1.349 . S
C278 C280 1.327 . S
C278 H303 0.950 . S
C279 C278 1.349 . S
C279 C295 1.349 . S
C280 C278 1.327 . S
C280 C299 1.429 . S
C280 H304 0.950 . S
C281 C298 1.574 . S
C281 C300 1.368 . S
C281 H305 0.949 . S
H282 C286 0.949 1_545 S
C283 C284 1.349 . S
C283 C285 1.327 . S
C283 H306 0.950 . S
C284 C283 1.349 . S
C284 C296 1.349 . S
C285 C283 1.327 . S
C285 C301 1.429 . S
C285 H307 0.950 1_545 S
C286 H282 0.949 1_565 S
C286 C294 1.574 . S
C286 C302 1.368 . S
H287 C295 0.950 . S
H288 C293 0.950 . S
H289 C294 0.949 . S
H290 C296 0.950 . S
H291 C297 0.950 . S
H292 C298 0.949 . S
C293 H288 0.950 . S
C293 C295 1.327 . S
C293 C299 1.429 . S
C294 C286 1.574 . S
C294 H289 0.949 . S
C294 C300 1.368 . S
C295 C279 1.349 . S
C295 H287 0.950 . S
C295 C293 1.327 . S
C296 C284 1.349 . S
C296 H290 0.950 . S
C296 C297 1.327 . S
C297 H291 0.950 . S
C297 C296 1.327 . S
C297 C301 1.429 . S
C298 C281 1.574 . S
C298 H292 0.949 . S
C298 C302 1.368 . S
C299 C280 1.429 . S
C299 C293 1.429 . S
C299 C300 1.523 . S
C300 C281 1.368 . S
C300 C294 1.368 . S
C300 C299 1.523 . S
C301 C285 1.429 . S
C301 C297 1.429 . S
C301 C302 1.523 1_545 S
C302 C286 1.368 . S
C302 C298 1.368 . S
C302 C301 1.523 1_565 S
H303 C278 0.950 . S
H304 C280 0.950 . S
H305 C281 0.949 . S
H306 C283 0.950 . S
H307 C285 0.950 1_565 S
C308 C309 1.349 . S
C308 C310 1.327 . S
C308 H333 0.950 . S
C309 C308 1.349 . S
C309 C325 1.349 . S
C310 C308 1.327 . S
C310 C329 1.429 . S
C310 H334 0.950 . S
C311 C328 1.574 . S
C311 C330 1.368 . S
C311 H335 0.949 . S
H312 C316 0.949 1_565 S
C313 C314 1.349 . S
C313 C315 1.327 . S
C313 H336 0.950 . S
C314 C313 1.349 . S
C314 C326 1.349 . S
C315 C313 1.327 . S
C315 C331 1.429 . S
C315 H337 0.950 1_565 S
C316 H312 0.949 1_545 S
C316 C324 1.574 . S
C316 C332 1.368 . S
H317 C325 0.950 . S
H318 C323 0.950 . S
H319 C324 0.949 . S
H320 C326 0.950 . S
H321 C327 0.950 . S
H322 C328 0.949 . S
C323 H318 0.950 . S
C323 C325 1.327 . S
C323 C329 1.429 . S
C324 C316 1.574 . S
C324 H319 0.949 . S
C324 C330 1.368 . S
C325 C309 1.349 . S
C325 H317 0.950 . S
C325 C323 1.327 . S
C326 C314 1.349 . S
C326 H320 0.950 . S
C326 C327 1.327 . S
C327 H321 0.950 . S
C327 C326 1.327 . S
C327 C331 1.429 . S
C328 C311 1.574 . S
C328 H322 0.949 . S
C328 C332 1.368 . S
C329 C310 1.429 . S
C329 C323 1.429 . S
C329 C330 1.523 . S
C330 C311 1.368 . S
C330 C324 1.368 . S
C330 C329 1.523 . S
C331 C315 1.429 . S
C331 C327 1.429 . S
C331 C332 1.523 1_565 S
C332 C316 1.368 . S
C332 C328 1.368 . S
C332 C331 1.523 1_545 S
H333 C308 0.950 . S
H334 C310 0.950 . S
H335 C311 0.949 . S
H336 C313 0.950 . S
H337 C315 0.950 1_545 S
C338 C339 1.349 . S
C338 C340 1.327 . S
C338 H363 0.950 . S
C339 C338 1.349 . S
C339 C355 1.349 . S
C340 C338 1.327 . S
C340 C359 1.429 . S
C340 H364 0.950 . S
C341 C358 1.574 . S
C341 C360 1.368 . S
C341 H365 0.949 . S
H342 C346 0.949 . S
C343 C344 1.349 . S
C343 C345 1.327 . S
C343 H366 0.950 . S
C344 C343 1.349 . S
C344 C356 1.349 . S
C345 C343 1.327 . S
C345 C361 1.429 . S
C345 H367 0.950 . S
C346 H342 0.949 . S
C346 C354 1.574 . S
C346 C362 1.368 . S
H347 C355 0.950 . S
H348 C353 0.950 . S
H349 C354 0.949 . S
H350 C356 0.950 . S
H351 C357 0.950 . S
H352 C358 0.949 . S
C353 H348 0.950 . S
C353 C355 1.327 . S
C353 C359 1.429 . S
C354 C346 1.574 . S
C354 H349 0.949 . S
C354 C360 1.368 . S
C355 C339 1.349 . S
C355 H347 0.950 . S
C355 C353 1.327 . S
C356 C344 1.349 . S
C356 H350 0.950 . S
C356 C357 1.327 . S
C357 H351 0.950 . S
C357 C356 1.327 . S
C357 C361 1.429 . S
C358 C341 1.574 . S
C358 H352 0.949 . S
C358 C362 1.368 . S
C359 C340 1.429 . S
C359 C353 1.429 . S
C359 C360 1.523 . S
C360 C341 1.368 . S
C360 C354 1.368 . S
C360 C359 1.523 . S
C361 C345 1.429 . S
C361 C357 1.429 . S
C361 C362 1.523 . S
C362 C346 1.368 . S
C362 C358 1.368 . S
C362 C361 1.523 . S
H363 C338 0.950 . S
H364 C340 0.950 . S
H365 C341 0.949 . S
H366 C343 0.950 . S
H367 C345 0.950 . S
C368 C369 1.349 . S
C368 C370 1.327 . S
C368 H393 0.950 . S
C369 C368 1.349 . S
C369 C385 1.349 . S
C370 C368 1.327 . S
C370 C389 1.429 . S
C370 H394 0.950 . S
C371 C388 1.574 . S
C371 C390 1.368 . S
C371 H395 0.949 . S
H372 C376 0.949 . S
C373 C374 1.349 . S
C373 C375 1.327 . S
C373 H396 0.950 . S
C374 C373 1.349 . S
C374 C386 1.349 . S
C375 C373 1.327 . S
C375 C391 1.429 . S
C375 H397 0.950 . S
C376 H372 0.949 . S
C376 C384 1.574 . S
C376 C392 1.368 . S
H377 C385 0.950 . S
H378 C383 0.950 . S
H379 C384 0.949 . S
H380 C386 0.950 . S
H381 C387 0.950 . S
H382 C388 0.949 . S
C383 H378 0.950 . S
C383 C385 1.327 . S
C383 C389 1.429 . S
C384 C376 1.574 . S
C384 H379 0.949 . S
C384 C390 1.368 . S
C385 C369 1.349 . S
C385 H377 0.950 . S
C385 C383 1.327 . S
C386 C374 1.349 . S
C386 H380 0.950 . S
C386 C387 1.327 . S
C387 H381 0.950 . S
C387 C386 1.327 . S
C387 C391 1.429 . S
C388 C371 1.574 . S
C388 H382 0.949 . S
C388 C392 1.368 . S
C389 C370 1.429 . S
C389 C383 1.429 . S
C389 C390 1.523 . S
C390 C371 1.368 . S
C390 C384 1.368 . S
C390 C389 1.523 . S
C391 C375 1.429 . S
C391 C387 1.429 . S
C391 C392 1.523 . S
C392 C376 1.368 . S
C392 C388 1.368 . S
C392 C391 1.523 . S
H393 C368 0.950 . S
H394 C370 0.950 . S
H395 C371 0.949 . S
H396 C373 0.950 . S
H397 C375 0.950 . S
C398 C399 1.349 . S
C398 C400 1.327 . S
C398 H423 0.950 . S
C399 C398 1.349 . S
C399 C415 1.349 . S
C400 C398 1.327 . S
C400 C419 1.429 . S
C400 H424 0.950 . S
C401 C418 1.574 . S
C401 C420 1.368 . S
C401 H425 0.949 . S
H402 C406 0.949 . S
C403 C404 1.349 . S
C403 C405 1.327 . S
C403 H426 0.950 . S
C404 C403 1.349 . S
C404 C416 1.349 . S
C405 C403 1.327 . S
C405 C421 1.429 . S
C405 H427 0.950 . S
C406 H402 0.949 . S
C406 C414 1.574 . S
C406 C422 1.368 . S
H407 C415 0.950 . S
H408 C413 0.950 . S
H409 C414 0.949 . S
H410 C416 0.950 . S
H411 C417 0.950 . S
H412 C418 0.949 . S
C413 H408 0.950 . S
C413 C415 1.327 . S
C413 C419 1.429 . S
C414 C406 1.574 . S
C414 H409 0.949 . S
C414 C420 1.368 . S
C415 C399 1.349 . S
C415 H407 0.950 . S
C415 C413 1.327 . S
C416 C404 1.349 . S
C416 H410 0.950 . S
C416 C417 1.327 . S
C417 H411 0.950 . S
C417 C416 1.327 . S
C417 C421 1.429 . S
C418 C401 1.574 . S
C418 H412 0.949 . S
C418 C422 1.368 . S
C419 C400 1.429 . S
C419 C413 1.429 . S
C419 C420 1.523 . S
C420 C401 1.368 . S
C420 C414 1.368 . S
C420 C419 1.523 . S
C421 C405 1.429 . S
C421 C417 1.429 . S
C421 C422 1.523 1_565 S
C422 C406 1.368 . S
C422 C418 1.368 . S
C422 C421 1.523 1_545 S
H423 C398 0.950 . S
H424 C400 0.950 . S
H425 C401 0.949 . S
H426 C403 0.950 . S
H427 C405 0.950 . S
C428 C429 1.349 . S
C428 C430 1.327 . S
C428 H453 0.950 . S
C429 C428 1.349 . S
C429 C445 1.349 . S
C430 C428 1.327 . S
C430 C449 1.429 . S
C430 H454 0.950 . S
C431 C448 1.574 . S
C431 C450 1.368 . S
C431 H455 0.949 . S
H432 C436 0.949 . S
C433 C434 1.349 . S
C433 C435 1.327 . S
C433 H456 0.950 . S
C434 C433 1.349 . S
C434 C446 1.349 . S
C435 C433 1.327 . S
C435 C451 1.429 . S
C435 H457 0.950 . S
C436 H432 0.949 . S
C436 C444 1.574 . S
C436 C452 1.368 . S
H437 C445 0.950 . S
H438 C443 0.950 . S
H439 C444 0.949 . S
H440 C446 0.950 . S
H441 C447 0.950 . S
H442 C448 0.949 . S
C443 H438 0.950 . S
C443 C445 1.327 . S
C443 C449 1.429 . S
C444 C436 1.574 . S
C444 H439 0.949 . S
C444 C450 1.368 . S
C445 C429 1.349 . S
C445 H437 0.950 . S
C445 C443 1.327 . S
C446 C434 1.349 . S
C446 H440 0.950 . S
C446 C447 1.327 . S
C447 H441 0.950 . S
C447 C446 1.327 . S
C447 C451 1.429 . S
C448 C431 1.574 . S
C448 H442 0.949 . S
C448 C452 1.368 . S
C449 C430 1.429 . S
C449 C443 1.429 . S
C449 C450 1.523 1_556 S
C450 C431 1.368 . S
C450 C444 1.368 . S
C450 C449 1.523 1_554 S
C451 C435 1.429 . S
C451 C447 1.429 . S
C451 C452 1.523 . S
C452 C436 1.368 . S
C452 C448 1.368 . S
C452 C451 1.523 . S
H453 C428 0.950 . S
H454 C430 0.950 . S
H455 C431 0.949 . S
H456 C433 0.950 . S
H457 C435 0.950 . S
C458 C459 1.349 . S
C458 C460 1.327 . S
C458 H483 0.950 . S
C459 C458 1.349 . S
C459 C475 1.349 . S
C460 C458 1.327 . S
C460 C479 1.429 . S
C460 H484 0.950 . S
C461 C478 1.574 . S
C461 C480 1.368 . S
C461 H485 0.949 . S
H462 C466 0.949 . S
C463 C464 1.349 . S
C463 C465 1.327 . S
C463 H486 0.950 . S
C464 C463 1.349 . S
C464 C476 1.349 . S
C465 C463 1.327 . S
C465 C481 1.429 . S
C465 H487 0.950 . S
C466 H462 0.949 . S
C466 C474 1.574 . S
C466 C482 1.368 . S
H467 C475 0.950 . S
H468 C473 0.950 . S
H469 C474 0.949 . S
H470 C476 0.950 . S
H471 C477 0.950 . S
H472 C478 0.949 . S
C473 H468 0.950 . S
C473 C475 1.327 . S
C473 C479 1.429 . S
C474 C466 1.574 . S
C474 H469 0.949 . S
C474 C480 1.368 . S
C475 C459 1.349 . S
C475 H467 0.950 . S
C475 C473 1.327 . S
C476 C464 1.349 . S
C476 H470 0.950 . S
C476 C477 1.327 . S
C477 H471 0.950 . S
C477 C476 1.327 . S
C477 C481 1.429 . S
C478 C461 1.574 . S
C478 H472 0.949 . S
C478 C482 1.368 . S
C479 C460 1.429 . S
C479 C473 1.429 . S
C479 C480 1.523 . S
C480 C461 1.368 . S
C480 C474 1.368 . S
C480 C479 1.523 . S
C481 C465 1.429 . S
C481 C477 1.429 . S
C481 C482 1.523 . S
C482 C466 1.368 . S
C482 C478 1.368 . S
C482 C481 1.523 . S
H483 C458 0.950 . S
H484 C460 0.950 . S
H485 C461 0.949 . S
H486 C463 0.950 . S
H487 C465 0.950 . S
C488 C489 1.349 . S
C488 C490 1.327 . S
C488 H513 0.950 . S
C489 C488 1.349 . S
C489 C505 1.349 . S
C490 C488 1.327 . S
C490 C509 1.429 . S
C490 H514 0.950 1_554 S
C491 C508 1.574 . S
C491 C510 1.368 . S
C491 H515 0.949 . S
H492 C496 0.949 . S
C493 C494 1.349 . S
C493 C495 1.327 . S
C493 H516 0.950 . S
C494 C493 1.349 . S
C494 C506 1.349 . S
C495 C493 1.327 . S
C495 C511 1.429 . S
C495 H517 0.950 . S
C496 H492 0.949 . S
C496 C504 1.574 . S
C496 C512 1.368 . S
H497 C505 0.950 . S
H498 C503 0.950 . S
H499 C504 0.949 . S
H500 C506 0.950 . S
H501 C507 0.950 . S
H502 C508 0.949 . S
C503 H498 0.950 . S
C503 C505 1.327 . S
C503 C509 1.429 . S
C504 C496 1.574 . S
C504 H499 0.949 . S
C504 C510 1.368 . S
C505 C489 1.349 . S
C505 H497 0.950 . S
C505 C503 1.327 . S
C506 C494 1.349 . S
C506 H500 0.950 . S
C506 C507 1.327 . S
C507 H501 0.950 . S
C507 C506 1.327 . S
C507 C511 1.429 . S
C508 C491 1.574 . S
C508 H502 0.949 . S
C508 C512 1.368 . S
C509 C490 1.429 . S
C509 C503 1.429 . S
C509 C510 1.523 1_554 S
C510 C491 1.368 . S
C510 C504 1.368 . S
C510 C509 1.523 1_556 S
C511 C495 1.429 . S
C511 C507 1.429 . S
C511 C512 1.523 . S
C512 C496 1.368 . S
C512 C508 1.368 . S
C512 C511 1.523 . S
H513 C488 0.950 . S
H514 C490 0.950 1_556 S
H515 C491 0.949 . S
H516 C493 0.950 . S
H517 C495 0.950 . S
C518 C519 1.349 . S
C518 C520 1.327 . S
C518 H543 0.950 . S
C519 C518 1.349 . S
C519 C535 1.349 . S
C520 C518 1.327 . S
C520 C539 1.429 . S
C520 H544 0.950 . S
C521 C538 1.574 . S
C521 C540 1.368 . S
C521 H545 0.949 . S
H522 C526 0.949 . S
C523 C524 1.349 . S
C523 C525 1.327 . S
C523 H546 0.950 . S
C524 C523 1.349 . S
C524 C536 1.349 . S
C525 C523 1.327 . S
C525 C541 1.429 . S
C525 H547 0.950 . S
C526 H522 0.949 . S
C526 C534 1.574 . S
C526 C542 1.368 . S
H527 C535 0.950 . S
H528 C533 0.950 . S
H529 C534 0.949 . S
H530 C536 0.950 . S
H531 C537 0.950 . S
H532 C538 0.949 . S
C533 H528 0.950 . S
C533 C535 1.327 . S
C533 C539 1.429 . S
C534 C526 1.574 . S
C534 H529 0.949 . S
C534 C540 1.368 . S
C535 C519 1.349 . S
C535 H527 0.950 . S
C535 C533 1.327 . S
C536 C524 1.349 . S
C536 H530 0.950 . S
C536 C537 1.327 . S
C537 H531 0.950 . S
C537 C536 1.327 . S
C537 C541 1.429 . S
C538 C521 1.574 . S
C538 H532 0.949 . S
C538 C542 1.368 . S
C539 C520 1.429 . S
C539 C533 1.429 . S
C539 C540 1.523 . S
C540 C521 1.368 . S
C540 C534 1.368 . S
C540 C539 1.523 . S
C541 C525 1.429 . S
C541 C537 1.429 . S
C541 C542 1.523 . S
C542 C526 1.368 . S
C542 C538 1.368 . S
C542 C541 1.523 . S
H543 C518 0.950 . S
H544 C520 0.950 . S
H545 C521 0.949 . S
H546 C523 0.950 . S
H547 C525 0.950 . S
C548 C549 1.349 . S
C548 C550 1.327 . S
C548 H573 0.950 . S
C549 C548 1.349 . S
C549 C565 1.349 . S
C550 C548 1.327 . S
C550 C569 1.429 1_554 S
C550 H574 0.950 . S
C551 C568 1.574 . S
C551 C570 1.368 . S
C551 H575 0.949 . S
H552 C556 0.949 . S
C553 C554 1.349 . S
C553 C555 1.327 . S
C553 H576 0.950 . S
C554 C553 1.349 . S
C554 C566 1.349 . S
C555 C553 1.327 . S
C555 C571 1.429 . S
C555 H577 0.950 . S
C556 H552 0.949 . S
C556 C564 1.574 . S
C556 C572 1.368 . S
H557 C565 0.950 . S
H558 C563 0.950 . S
H559 C564 0.949 . S
H560 C566 0.950 . S
H561 C567 0.950 . S
H562 C568 0.949 . S
C563 H558 0.950 . S
C563 C565 1.327 1_556 S
C563 C569 1.429 . S
C564 C556 1.574 . S
C564 H559 0.949 . S
C564 C570 1.368 . S
C565 C549 1.349 . S
C565 H557 0.950 . S
C565 C563 1.327 1_554 S
C566 C554 1.349 . S
C566 H560 0.950 . S
C566 C567 1.327 . S
C567 H561 0.950 . S
C567 C566 1.327 . S
C567 C571 1.429 . S
C568 C551 1.574 . S
C568 H562 0.949 . S
C568 C572 1.368 . S
C569 C550 1.429 1_556 S
C569 C563 1.429 . S
C569 C570 1.523 . S
C570 C551 1.368 . S
C570 C564 1.368 . S
C570 C569 1.523 . S
C571 C555 1.429 . S
C571 C567 1.429 . S
C571 C572 1.523 . S
C572 C556 1.368 . S
C572 C568 1.368 . S
C572 C571 1.523 . S
H573 C548 0.950 . S
H574 C550 0.950 . S
H575 C551 0.949 . S
H576 C553 0.950 . S
H577 C555 0.950 . S
C578 C579 1.349 . S
C578 C580 1.327 . S
C578 H603 0.950 . S
C579 C578 1.349 . S
C579 C595 1.349 . S
C580 C578 1.327 . S
C580 C599 1.429 . S
C580 H604 0.950 . S
C581 C598 1.574 . S
C581 C600 1.368 . S
C581 H605 0.949 . S
H582 C586 0.949 . S
C583 C584 1.349 . S
C583 C585 1.327 . S
C583 H606 0.950 . S
C584 C583 1.349 . S
C584 C596 1.349 . S
C585 C583 1.327 . S
C585 C601 1.429 . S
C585 H607 0.950 . S
C586 H582 0.949 . S
C586 C594 1.574 . S
C586 C602 1.368 . S
H587 C595 0.950 . S
H588 C593 0.950 . S
H589 C594 0.949 . S
H590 C596 0.950 . S
H591 C597 0.950 . S
H592 C598 0.949 . S
C593 H588 0.950 . S
C593 C595 1.327 . S
C593 C599 1.429 . S
C594 C586 1.574 . S
C594 H589 0.949 . S
C594 C600 1.368 . S
C595 C579 1.349 . S
C595 H587 0.950 . S
C595 C593 1.327 . S
C596 C584 1.349 . S
C596 H590 0.950 . S
C596 C597 1.327 . S
C597 H591 0.950 . S
C597 C596 1.327 . S
C597 C601 1.429 . S
C598 C581 1.574 . S
C598 H592 0.949 . S
C598 C602 1.368 . S
C599 C580 1.429 . S
C599 C593 1.429 . S
C599 C600 1.523 . S
C600 C581 1.368 . S
C600 C594 1.368 . S
C600 C599 1.523 . S
C601 C585 1.429 . S
C601 C597 1.429 . S
C601 C602 1.523 . S
C602 C586 1.368 . S
C602 C598 1.368 . S
C602 C601 1.523 . S
H603 C578 0.950 . S
H604 C580 0.950 . S
H605 C581 0.949 . S
H606 C583 0.950 . S
H607 C585 0.950 . S
C608 C609 1.349 . S
C608 C610 1.327 1_556 S
C608 H633 0.950 . S
C609 C608 1.349 . S
C609 C625 1.349 . S
C610 C608 1.327 1_554 S
C610 C629 1.429 . S
C610 H634 0.950 . S
C611 C628 1.574 . S
C611 C630 1.368 . S
C611 H635 0.949 . S
H612 C616 0.949 . S
C613 C614 1.349 . S
C613 C615 1.327 . S
C613 H636 0.950 . S
C614 C613 1.349 . S
C614 C626 1.349 . S
C615 C613 1.327 . S
C615 C631 1.429 . S
C615 H637 0.950 . S
C616 H612 0.949 . S
C616 C624 1.574 . S
C616 C632 1.368 . S
H617 C625 0.950 . S
H618 C623 0.950 . S
H619 C624 0.949 . S
H620 C626 0.950 . S
H621 C627 0.950 . S
H622 C628 0.949 . S
C623 H618 0.950 . S
C623 C625 1.327 . S
C623 C629 1.429 1_556 S
C624 C616 1.574 . S
C624 H619 0.949 . S
C624 C630 1.368 . S
C625 C609 1.349 . S
C625 H617 0.950 . S
C625 C623 1.327 . S
C626 C614 1.349 . S
C626 H620 0.950 . S
C626 C627 1.327 . S
C627 H621 0.950 . S
C627 C626 1.327 . S
C627 C631 1.429 . S
C628 C611 1.574 . S
C628 H622 0.949 . S
C628 C632 1.368 . S
C629 C610 1.429 . S
C629 C623 1.429 1_554 S
C629 C630 1.523 . S
C630 C611 1.368 . S
C630 C624 1.368 . S
C630 C629 1.523 . S
C631 C615 1.429 . S
C631 C627 1.429 . S
C631 C632 1.523 . S
C632 C616 1.368 . S
C632 C628 1.368 . S
C632 C631 1.523 . S
H633 C608 0.950 . S
H634 C610 0.950 . S
H635 C611 0.949 . S
H636 C613 0.950 . S
H637 C615 0.950 . S
C638 C639 1.349 . S
C638 C640 1.327 . S
C638 H663 0.950 . S
C639 C638 1.349 . S
C639 C655 1.349 . S
C640 C638 1.327 . S
C640 C659 1.429 . S
C640 H664 0.950 . S
C641 C658 1.574 . S
C641 C660 1.368 . S
C641 H665 0.949 . S
H642 C646 0.949 . S
C643 C644 1.349 . S
C643 C645 1.327 . S
C643 H666 0.950 . S
C644 C643 1.349 . S
C644 C656 1.349 . S
C645 C643 1.327 . S
C645 C661 1.429 . S
C645 H667 0.950 . S
C646 H642 0.949 . S
C646 C654 1.574 . S
C646 C662 1.368 . S
H647 C655 0.950 . S
H648 C653 0.950 . S
H649 C654 0.949 . S
H650 C656 0.950 . S
H651 C657 0.950 . S
H652 C658 0.949 . S
C653 H648 0.950 . S
C653 C655 1.327 . S
C653 C659 1.429 . S
C654 C646 1.574 . S
C654 H649 0.949 . S
C654 C660 1.368 . S
C655 C639 1.349 . S
C655 H647 0.950 . S
C655 C653 1.327 . S
C656 C644 1.349 . S
C656 H650 0.950 . S
C656 C657 1.327 . S
C657 H651 0.950 . S
C657 C656 1.327 . S
C657 C661 1.429 . S
C658 C641 1.574 . S
C658 H652 0.949 . S
C658 C662 1.368 . S
C659 C640 1.429 . S
C659 C653 1.429 . S
C659 C660 1.523 . S
C660 C641 1.368 . S
C660 C654 1.368 . S
C660 C659 1.523 . S
C661 C645 1.429 . S
C661 C657 1.429 . S
C661 C662 1.523 . S
C662 C646 1.368 . S
C662 C658 1.368 . S
C662 C661 1.523 . S
H663 C638 0.950 . S
H664 C640 0.950 . S
H665 C641 0.949 . S
H666 C643 0.950 . S
H667 C645 0.950 . S
C668 C669 1.349 . S
C668 C670 1.327 . S
C668 H693 0.950 . S
C669 C668 1.349 . S
C669 C685 1.349 . S
C670 C668 1.327 . S
C670 C689 1.429 . S
C670 H694 0.950 . S
C671 C688 1.574 . S
C671 C690 1.368 . S
C671 H695 0.949 . S
H672 C676 0.949 . S
C673 C674 1.349 . S
C673 C675 1.327 . S
C673 H696 0.950 . S
C674 C673 1.349 . S
C674 C686 1.349 . S
C675 C673 1.327 . S
C675 C691 1.429 . S
C675 H697 0.950 . S
C676 H672 0.949 . S
C676 C684 1.574 . S
C676 C692 1.368 . S
H677 C685 0.950 . S
H678 C683 0.950 . S
H679 C684 0.949 . S
H680 C686 0.950 . S
H681 C687 0.950 . S
H682 C688 0.949 . S
C683 H678 0.950 . S
C683 C685 1.327 . S
C683 C689 1.429 . S
C684 C676 1.574 . S
C684 H679 0.949 . S
C684 C690 1.368 . S
C685 C669 1.349 . S
C685 H677 0.950 . S
C685 C683 1.327 . S
C686 C674 1.349 . S
C686 H680 0.950 . S
C686 C687 1.327 . S
C687 H681 0.950 . S
C687 C686 1.327 . S
C687 C691 1.429 . S
C688 C671 1.574 . S
C688 H682 0.949 . S
C688 C692 1.368 . S
C689 C670 1.429 . S
C689 C683 1.429 . S
C689 C690 1.523 . S
C690 C671 1.368 . S
C690 C684 1.368 . S
C690 C689 1.523 . S
C691 C675 1.429 . S
C691 C687 1.429 . S
C691 C692 1.523 . S
C692 C676 1.368 . S
C692 C688 1.368 . S
C692 C691 1.523 . S
H693 C668 0.950 . S
H694 C670 0.950 . S
H695 C671 0.949 . S
H696 C673 0.950 . S
H697 C675 0.950 . S
C698 C699 1.349 . S
C698 C700 1.327 . S
C698 H723 0.950 . S
C699 C698 1.349 . S
C699 C715 1.349 . S
C700 C698 1.327 . S
C700 C719 1.429 . S
C700 H724 0.950 . S
C701 C718 1.574 . S
C701 C720 1.368 . S
C701 H725 0.949 . S
H702 C706 0.949 . S
C703 C704 1.349 . S
C703 C705 1.327 . S
C703 H726 0.950 . S
C704 C703 1.349 . S
C704 C716 1.349 . S
C705 C703 1.327 . S
C705 C721 1.429 . S
C705 H727 0.950 . S
C706 H702 0.949 . S
C706 C714 1.574 . S
C706 C722 1.368 . S
H707 C715 0.950 . S
H708 C713 0.950 . S
H709 C714 0.949 . S
H710 C716 0.950 . S
H711 C717 0.950 . S
H712 C718 0.949 . S
C713 H708 0.950 . S
C713 C715 1.327 . S
C713 C719 1.429 . S
C714 C706 1.574 . S
C714 H709 0.949 . S
C714 C720 1.368 . S
C715 C699 1.349 . S
C715 H707 0.950 . S
C715 C713 1.327 . S
C716 C704 1.349 . S
C716 H710 0.950 . S
C716 C717 1.327 . S
C717 H711 0.950 . S
C717 C716 1.327 . S
C717 C721 1.429 . S
C718 C701 1.574 . S
C718 H712 0.949 . S
C718 C722 1.368 . S
C719 C700 1.429 . S
C719 C713 1.429 . S
C719 C720 1.523 . S
C720 C701 1.368 . S
C720 C714 1.368 . S
C720 C719 1.523 . S
C721 C705 1.429 . S
C721 C717 1.429 . S
C721 C722 1.523 . S
C722 C706 1.368 . S
C722 C718 1.368 . S
C722 C721 1.523 . S
H723 C698 0.950 . S
H724 C700 0.950 . S
H725 C701 0.949 . S
H726 C703 0.950 . S
H727 C705 0.950 . S
C728 C729 1.349 . S
C728 C730 1.327 . S
C728 H753 0.950 . S
C729 C728 1.349 . S
C729 C745 1.349 . S
C730 C728 1.327 . S
C730 C749 1.429 . S
C730 H754 0.950 . S
C731 C748 1.574 . S
C731 C750 1.368 . S
C731 H755 0.949 . S
H732 C736 0.949 . S
C733 C734 1.349 . S
C733 C735 1.327 . S
C733 H756 0.950 . S
C734 C733 1.349 . S
C734 C746 1.349 . S
C735 C733 1.327 . S
C735 C751 1.429 . S
C735 H757 0.950 . S
C736 H732 0.949 . S
C736 C744 1.574 . S
C736 C752 1.368 . S
H737 C745 0.950 . S
H738 C743 0.950 . S
H739 C744 0.949 . S
H740 C746 0.950 . S
H741 C747 0.950 . S
H742 C748 0.949 . S
C743 H738 0.950 . S
C743 C745 1.327 . S
C743 C749 1.429 . S
C744 C736 1.574 . S
C744 H739 0.949 . S
C744 C750 1.368 . S
C745 C729 1.349 . S
C745 H737 0.950 . S
C745 C743 1.327 . S
C746 C734 1.349 . S
C746 H740 0.950 . S
C746 C747 1.327 . S
C747 H741 0.950 . S
C747 C746 1.327 . S
C747 C751 1.429 . S
C748 C731 1.574 . S
C748 H742 0.949 . S
C748 C752 1.368 . S
C749 C730 1.429 . S
C749 C743 1.429 . S
C749 C750 1.523 . S
C750 C731 1.368 . S
C750 C744 1.368 . S
C750 C749 1.523 . S
C751 C735 1.429 . S
C751 C747 1.429 . S
C751 C752 1.523 . S
C752 C736 1.368 . S
C752 C748 1.368 . S
C752 C751 1.523 . S
H753 C728 0.950 . S
H754 C730 0.950 . S
H755 C731 0.949 . S
H756 C733 0.950 . S
H757 C735 0.950 . S
C758 C759 1.349 . S
C758 C760 1.327 . S
C758 H783 0.950 . S
C759 C758 1.349 . S
C759 C775 1.349 . S
C760 C758 1.327 . S
C760 C779 1.429 . S
C760 H784 0.950 . S
C761 C778 1.574 . S
C761 C780 1.368 . S
C761 H785 0.949 . S
H762 C766 0.949 . S
C763 C764 1.349 . S
C763 C765 1.327 . S
C763 H786 0.950 . S
C764 C763 1.349 . S
C764 C776 1.349 . S
C765 C763 1.327 . S
C765 C781 1.429 . S
C765 H787 0.950 . S
C766 H762 0.949 . S
C766 C774 1.574 . S
C766 C782 1.368 . S
H767 C775 0.950 . S
H768 C773 0.950 . S
H769 C774 0.949 . S
H770 C776 0.950 . S
H771 C777 0.950 . S
H772 C778 0.949 . S
C773 H768 0.950 . S
C773 C775 1.327 . S
C773 C779 1.429 . S
C774 C766 1.574 . S
C774 H769 0.949 . S
C774 C780 1.368 . S
C775 C759 1.349 . S
C775 H767 0.950 . S
C775 C773 1.327 . S
C776 C764 1.349 . S
C776 H770 0.950 . S
C776 C777 1.327 . S
C777 H771 0.950 . S
C777 C776 1.327 . S
C777 C781 1.429 . S
C778 C761 1.574 . S
C778 H772 0.949 . S
C778 C782 1.368 . S
C779 C760 1.429 . S
C779 C773 1.429 . S
C779 C780 1.523 . S
C780 C761 1.368 . S
C780 C774 1.368 . S
C780 C779 1.523 . S
C781 C765 1.429 . S
C781 C777 1.429 . S
C781 C782 1.523 . S
C782 C766 1.368 . S
C782 C778 1.368 . S
C782 C781 1.523 . S
H783 C758 0.950 . S
H784 C760 0.950 . S
H785 C761 0.949 . S
H786 C763 0.950 . S
H787 C765 0.950 . S
C788 C789 1.349 . S
C788 C790 1.327 . S
C788 H813 0.950 . S
C789 C788 1.349 . S
C789 C805 1.349 . S
C790 C788 1.327 . S
C790 C809 1.429 . S
C790 H814 0.950 . S
C791 C808 1.574 . S
C791 C810 1.368 . S
C791 H815 0.949 . S
H792 C796 0.949 . S
C793 C794 1.349 . S
C793 C795 1.327 . S
C793 H816 0.950 . S
C794 C793 1.349 . S
C794 C806 1.349 . S
C795 C793 1.327 . S
C795 C811 1.429 . S
C795 H817 0.950 . S
C796 H792 0.949 . S
C796 C804 1.574 . S
C796 C812 1.368 . S
H797 C805 0.950 . S
H798 C803 0.950 . S
H799 C804 0.949 . S
H800 C806 0.950 . S
H801 C807 0.950 . S
H802 C808 0.949 . S
C803 H798 0.950 . S
C803 C805 1.327 . S
C803 C809 1.429 . S
C804 C796 1.574 . S
C804 H799 0.949 . S
C804 C810 1.368 . S
C805 C789 1.349 . S
C805 H797 0.950 . S
C805 C803 1.327 . S
C806 C794 1.349 . S
C806 H800 0.950 . S
C806 C807 1.327 . S
C807 H801 0.950 . S
C807 C806 1.327 . S
C807 C811 1.429 . S
C808 C791 1.574 . S
C808 H802 0.949 . S
C808 C812 1.368 . S
C809 C790 1.429 . S
C809 C803 1.429 . S
C809 C810 1.523 . S
C810 C791 1.368 . S
C810 C804 1.368 . S
C810 C809 1.523 . S
C811 C795 1.429 . S
C811 C807 1.429 . S
C811 C812 1.523 . S
C812 C796 1.368 . S
C812 C808 1.368 . S
C812 C811 1.523 . S
H813 C788 0.950 . S
H814 C790 0.950 . S
H815 C791 0.949 . S
H816 C793 0.950 . S
H817 C795 0.950 . S
C818 C819 1.349 . S
C818 C820 1.327 . S
C818 H843 0.950 . S
C819 C818 1.349 . S
C819 C835 1.349 . S
C820 C818 1.327 . S
C820 C839 1.429 . S
C820 H844 0.950 . S
C821 C838 1.574 . S
C821 C840 1.368 . S
C821 H845 0.949 . S
H822 C826 0.949 . S
C823 C824 1.349 . S
C823 C825 1.327 . S
C823 H846 0.950 . S
C824 C823 1.349 . S
C824 C836 1.349 . S
C825 C823 1.327 . S
C825 C841 1.429 . S
C825 H847 0.950 . S
C826 H822 0.949 . S
C826 C834 1.574 . S
C826 C842 1.368 . S
H827 C835 0.950 . S
H828 C833 0.950 . S
H829 C834 0.949 . S
H830 C836 0.950 . S
H831 C837 0.950 . S
H832 C838 0.949 . S
C833 H828 0.950 . S
C833 C835 1.327 . S
C833 C839 1.429 . S
C834 C826 1.574 . S
C834 H829 0.949 . S
C834 C840 1.368 . S
C835 C819 1.349 . S
C835 H827 0.950 . S
C835 C833 1.327 . S
C836 C824 1.349 . S
C836 H830 0.950 . S
C836 C837 1.327 . S
C837 H831 0.950 . S
C837 C836 1.327 . S
C837 C841 1.429 . S
C838 C821 1.574 . S
C838 H832 0.949 . S
C838 C842 1.368 . S
C839 C820 1.429 . S
C839 C833 1.429 . S
C839 C840 1.523 . S
C840 C821 1.368 . S
C840 C834 1.368 . S
C840 C839 1.523 . S
C841 C825 1.429 . S
C841 C837 1.429 . S
C841 C842 1.523 . S
C842 C826 1.368 . S
C842 C838 1.368 . S
C842 C841 1.523 . S
H843 C818 0.950 . S
H844 C820 0.950 . S
H845 C821 0.949 . S
H846 C823 0.950 . S
H847 C825 0.950 . S
C848 C849 1.349 . S
C848 C850 1.327 . S
C848 H873 0.950 . S
C849 C848 1.349 . S
C849 C865 1.349 . S
C850 C848 1.327 . S
C850 C869 1.429 . S
C850 H874 0.950 . S
C851 C868 1.574 . S
C851 C870 1.368 . S
C851 H875 0.949 . S
H852 C856 0.949 . S
C853 C854 1.349 . S
C853 C855 1.327 . S
C853 H876 0.950 . S
C854 C853 1.349 . S
C854 C866 1.349 . S
C855 C853 1.327 . S
C855 C871 1.429 . S
C855 H877 0.950 . S
C856 H852 0.949 . S
C856 C864 1.574 . S
C856 C872 1.368 . S
H857 C865 0.950 . S
H858 C863 0.950 . S
H859 C864 0.949 . S
H860 C866 0.950 . S
H861 C867 0.950 . S
H862 C868 0.949 . S
C863 H858 0.950 . S
C863 C865 1.327 . S
C863 C869 1.429 . S
C864 C856 1.574 . S
C864 H859 0.949 . S
C864 C870 1.368 . S
C865 C849 1.349 . S
C865 H857 0.950 . S
C865 C863 1.327 . S
C866 C854 1.349 . S
C866 H860 0.950 . S
C866 C867 1.327 . S
C867 H861 0.950 . S
C867 C866 1.327 . S
C867 C871 1.429 . S
C868 C851 1.574 . S
C868 H862 0.949 . S
C868 C872 1.368 . S
C869 C850 1.429 . S
C869 C863 1.429 . S
C869 C870 1.523 . S
C870 C851 1.368 . S
C870 C864 1.368 . S
C870 C869 1.523 . S
C871 C855 1.429 . S
C871 C867 1.429 . S
C871 C872 1.523 . S
C872 C856 1.368 . S
C872 C868 1.368 . S
C872 C871 1.523 . S
H873 C848 0.950 . S
H874 C850 0.950 . S
H875 C851 0.949 . S
H876 C853 0.950 . S
H877 C855 0.950 . S
C878 C879 1.349 . S
C878 C880 1.327 . S
C878 H903 0.950 . S
C879 C878 1.349 . S
C879 C895 1.349 . S
C880 C878 1.327 . S
C880 C899 1.429 . S
C880 H904 0.950 . S
C881 C898 1.574 . S
C881 C900 1.368 . S
C881 H905 0.949 . S
H882 C886 0.949 . S
C883 C884 1.349 . S
C883 C885 1.327 . S
C883 H906 0.950 . S
C884 C883 1.349 . S
C884 C896 1.349 . S
C885 C883 1.327 . S
C885 C901 1.429 . S
C885 H907 0.950 . S
C886 H882 0.949 . S
C886 C894 1.574 . S
C886 C902 1.368 . S
H887 C895 0.950 . S
H888 C893 0.950 . S
H889 C894 0.949 . S
H890 C896 0.950 . S
H891 C897 0.950 . S
H892 C898 0.949 . S
C893 H888 0.950 . S
C893 C895 1.327 . S
C893 C899 1.429 . S
C894 C886 1.574 . S
C894 H889 0.949 . S
C894 C900 1.368 . S
C895 C879 1.349 . S
C895 H887 0.950 . S
C895 C893 1.327 . S
C896 C884 1.349 . S
C896 H890 0.950 . S
C896 C897 1.327 . S
C897 H891 0.950 . S
C897 C896 1.327 . S
C897 C901 1.429 . S
C898 C881 1.574 . S
C898 H892 0.949 . S
C898 C902 1.368 . S
C899 C880 1.429 . S
C899 C893 1.429 . S
C899 C900 1.523 . S
C900 C881 1.368 . S
C900 C894 1.368 . S
C900 C899 1.523 . S
C901 C885 1.429 . S
C901 C897 1.429 . S
C901 C902 1.523 . S
C902 C886 1.368 . S
C902 C898 1.368 . S
C902 C901 1.523 . S
H903 C878 0.950 . S
H904 C880 0.950 . S
H905 C881 0.949 . S
H906 C883 0.950 . S
H907 C885 0.950 . S
C189 C86 1.334 . S
C194 C120 1.251 . S
C224 C128 1.401 . S
C219 C100 1.462 . S
C254 C132 1.242 . S
C249 C60 1.333 . S
C279 C74 1.459 . S
C284 C108 1.389 . S
C314 C149 1.401 . S
C309 C35 1.463 . S
C344 C183 1.251 . S
C339 C47 1.332 . S
C369 C9 1.460 . S
C374 C171 1.389 . S
C399 C21 1.331 . S
C404 C153 1.242 . S
C434 C107 1.351 . S
C429 C22 1.461 . S
C464 C141 1.316 . S
C459 C8 1.447 . S
C494 C145 1.350 . S
C489 C48 1.463 . S
C524 C123 1.314 . S
C519 C34 1.448 . S
C554 C162 1.317 . S
C549 C73 1.445 . S
C579 C61 1.462 . S
C584 C170 1.351 . S
C614 C186 1.314 . S
C609 C99 1.446 . S
C639 C87 1.464 . S
C644 C166 1.350 . S
C674 C111 1.436 . S
C669 C4 1.568 . S
C704 C129 1.321 . S
C699 C17 1.424 . S
C729 C30 1.562 . S
C734 C144 1.437 . S
C764 C124 1.320 . S
C759 C43 1.415 . S
C794 C150 1.321 . S
C789 C56 1.442 . S
C819 C69 1.552 . S
C824 C174 1.436 . S
C849 C82 1.431 . S
C854 C187 1.320 . S
C879 C95 1.548 . S
C884 C165 1.437 . S
