# Generated by pormake.
# Topology pto, (3,4)-cn, num edge types: 1
# Building blocks:
#     Node 0, Type 0, BuildingBlock: ESEHIV_clean_linker_0, # of connection points: 3
#     Node 1, Type 0, BuildingBlock: ESEHIV_clean_linker_0, # of connection points: 3
#     Node 2, Type 0, BuildingBlock: ESEHIV_clean_linker_0, # of connection points: 3
#     Node 3, Type 0, BuildingBlock: ESEHIV_clean_linker_0, # of connection points: 3
#     Node 4, Type 0, BuildingBlock: ESEHIV_clean_linker_0, # of connection points: 3
#     Node 5, Type 0, BuildingBlock: ESEHIV_clean_linker_0, # of connection points: 3
#     Node 6, Type 0, BuildingBlock: ESEHIV_clean_linker_0, # of connection points: 3
#     Node 7, Type 0, BuildingBlock: ESEHIV_clean_linker_0, # of connection points: 3
#     Node 8, Type 1, BuildingBlock: NAWXER_clean_sbu_0, # of connection points: 4
#     Node 9, Type 1, BuildingBlock: NAWXER_clean_sbu_0, # of connection points: 4
#     Node 10, Type 1, BuildingBlock: NAWXER_clean_sbu_0, # of connection points: 4
#     Node 11, Type 1, BuildingBlock: NAWXER_clean_sbu_0, # of connection points: 4
#     Node 12, Type 1, BuildingBlock: NAWXER_clean_sbu_0, # of connection points: 4
#     Node 13, Type 1, BuildingBlock: NAWXER_clean_sbu_0, # of connection points: 4
#     Edge 14, Type (0, 1), BuildingBlock: AJUNOK_clean_linker_0, # of connection points: 2
#     Edge 15, Type (0, 1), BuildingBlock: AJUNOK_clean_linker_0, # of connection points: 2
#     Edge 16, Type (0, 1), BuildingBlock: AJUNOK_clean_linker_0, # of connection points: 2
#     Edge 17, Type (0, 1), BuildingBlock: AJUNOK_clean_linker_0, # of connection points: 2
#     Edge 18, Type (0, 1), BuildingBlock: AJUNOK_clean_linker_0, # of connection points: 2
#     Edge 19, Type (0, 1), BuildingBlock: AJUNOK_clean_linker_0, # of connection points: 2
#     Edge 20, Type (0, 1), BuildingBlock: AJUNOK_clean_linker_0, # of connection points: 2
#     Edge 21, Type (0, 1), BuildingBlock: AJUNOK_clean_linker_0, # of connection points: 2
#     Edge 22, Type (0, 1), BuildingBlock: AJUNOK_clean_linker_0, # of connection points: 2
#     Edge 23, Type (0, 1), BuildingBlock: AJUNOK_clean_linker_0, # of connection points: 2
#     Edge 24, Type (0, 1), BuildingBlock: AJUNOK_clean_linker_0, # of connection points: 2
#     Edge 25, Type (0, 1), BuildingBlock: AJUNOK_clean_linker_0, # of connection points: 2
#     Edge 26, Type (0, 1), BuildingBlock: AJUNOK_clean_linker_0, # of connection points: 2
#     Edge 27, Type (0, 1), BuildingBlock: AJUNOK_clean_linker_0, # of connection points: 2
#     Edge 28, Type (0, 1), BuildingBlock: AJUNOK_clean_linker_0, # of connection points: 2
#     Edge 29, Type (0, 1), BuildingBlock: AJUNOK_clean_linker_0, # of connection points: 2
#     Edge 30, Type (0, 1), BuildingBlock: AJUNOK_clean_linker_0, # of connection points: 2
#     Edge 31, Type (0, 1), BuildingBlock: AJUNOK_clean_linker_0, # of connection points: 2
#     Edge 32, Type (0, 1), BuildingBlock: AJUNOK_clean_linker_0, # of connection points: 2
#     Edge 33, Type (0, 1), BuildingBlock: AJUNOK_clean_linker_0, # of connection points: 2
#     Edge 34, Type (0, 1), BuildingBlock: AJUNOK_clean_linker_0, # of connection points: 2
#     Edge 35, Type (0, 1), BuildingBlock: AJUNOK_clean_linker_0, # of connection points: 2
#     Edge 36, Type (0, 1), BuildingBlock: AJUNOK_clean_linker_0, # of connection points: 2
#     Edge 37, Type (0, 1), BuildingBlock: AJUNOK_clean_linker_0, # of connection points: 2
# Relax obj value: 0.000
# Max RMSD: 0.005
# Mean RMSD: 0.003
data_MOF--net-pto--node1-NAWXER_clean_sbu_0--node2-ESEHIV_clean_linker_0--edge1-AJUNOK_clean_linker_0
_symmetry_space_group_name_H-M    P1
_symmetry_Int_Tables_number       1
_symmetry_cell_setting            triclinic
loop_
_symmetry_equiv_pos_as_xyz
'x, y, z'
_cell_length_a     28.481555
_cell_length_b     26.947044
_cell_length_c     25.455758
_cell_angle_alpha  90.134212
_cell_angle_beta   90.201189
_cell_angle_gamma 89.362111
loop_
_atom_site_label
_atom_site_type_symbol
_atom_site_fract_x
_atom_site_fract_y
_atom_site_fract_z
_atom_type_partial_charge
H0 H 0.26302 0.37531 0.16384 0.0
H1 H 0.31416 0.25034 0.25257 0.0
H2 H 0.16798 0.29147 0.25915 0.0
C3 C 0.25698 0.3452 0.19105 0.0
C4 C 0.21152 0.33798 0.21089 0.0
C5 C 0.29408 0.313 0.20502 0.0
C6 C 0.28519 0.27384 0.23983 0.0
C7 C 0.23967 0.26452 0.25831 0.0
C8 C 0.20301 0.29727 0.24403 0.0
H9 H 0.26043 0.70577 0.78873 0.0
H10 H 0.29429 0.84835 0.7244 0.0
H11 H 0.17126 0.77135 0.67087 0.0
C12 C 0.25262 0.73597 0.76192 0.0
C13 C 0.21321 0.73295 0.72878 0.0
C14 C 0.28205 0.77749 0.7608 0.0
C15 C 0.27124 0.81666 0.72623 0.0
C16 C 0.23184 0.81423 0.69266 0.0
C17 C 0.20268 0.77259 0.69495 0.0
H18 H 0.67414 0.83956 0.25903 0.0
H19 H 0.80514 0.77257 0.30674 0.0
H20 H 0.74658 0.74018 0.15439 0.0
C21 C 0.70392 0.81536 0.25094 0.0
C22 C 0.70635 0.79076 0.20247 0.0
C23 C 0.7395 0.80954 0.28874 0.0
C24 C 0.77745 0.77714 0.27789 0.0
C25 C 0.78013 0.75079 0.22996 0.0
C26 C 0.74469 0.75888 0.19202 0.0
H27 H 0.69634 0.23296 0.7821 0.0
H28 H 0.82875 0.25079 0.70359 0.0
H29 H 0.78087 0.36125 0.81364 0.0
C30 C 0.72716 0.2549 0.77401 0.0
C31 C 0.73403 0.29983 0.80109 0.0
C32 C 0.7615 0.23649 0.73937 0.0
C33 C 0.80207 0.26448 0.73043 0.0
C34 C 0.8089 0.3097 0.75651 0.0
C35 C 0.77492 0.32715 0.79203 0.0
H36 H 0.73552 0.78116 0.76758 0.0
H37 H 0.78158 0.66243 0.86843 0.0
H38 H 0.87718 0.72569 0.75686 0.0
C39 C 0.76302 0.75615 0.78117 0.0
C40 C 0.80778 0.7585 0.75839 0.0
C41 C 0.75333 0.72221 0.82135 0.0
C42 C 0.78866 0.68885 0.83748 0.0
C43 C 0.83339 0.68983 0.81437 0.0
C44 C 0.84298 0.72531 0.7754 0.0
H45 H 0.75111 0.18382 0.29526 0.0
H46 H 0.78251 0.33064 0.24009 0.0
H47 H 0.86566 0.26406 0.36322 0.0
C48 C 0.77181 0.21727 0.29693 0.0
C49 C 0.8084 0.22029 0.33391 0.0
C50 C 0.7618 0.25694 0.26279 0.0
C51 C 0.79017 0.29928 0.26542 0.0
C52 C 0.82805 0.30208 0.30094 0.0
C53 C 0.83695 0.26229 0.33524 0.0
H54 H 0.23604 0.25627 0.72114 0.0
H55 H 0.36233 0.182 0.77146 0.0
H56 H 0.30434 0.30184 0.86401 0.0
C57 C 0.26433 0.25218 0.74947 0.0
C58 C 0.26524 0.28282 0.79416 0.0
C59 C 0.29939 0.21612 0.74094 0.0
C60 C 0.336 0.21081 0.77739 0.0
C61 C 0.33811 0.24148 0.82201 0.0
C62 C 0.30243 0.27734 0.83027 0.0
H63 H 0.22213 0.76946 0.32714 0.0
H64 H 0.26944 0.66664 0.20896 0.0
H65 H 0.35422 0.79227 0.24988 0.0
C66 C 0.249 0.75705 0.29987 0.0
C67 C 0.28983 0.78518 0.2933 0.0
C68 C 0.24127 0.71468 0.26924 0.0
C69 C 0.27554 0.69923 0.23302 0.0
C70 C 0.3169 0.72637 0.22647 0.0
C71 C 0.3238 0.76941 0.25685 0.0
C72 C 0.94793 0.47556 0.28737 0.0
C73 C 0.06577 0.60652 0.27463 0.0
O74 O 0.96735 0.49741 0.326 0.0
Zn75 Zn 1.00405 0.54472 0.28484 0.0
O76 O 0.95637 0.49035 0.2407 0.0
Zn77 Zn 0.99656 0.54319 0.20042 0.0
O78 O 0.0363 0.49862 0.15846 0.0
O79 O 0.05122 0.49596 0.24383 0.0
O80 O 0.04805 0.59291 0.23062 0.0
O81 O 0.04983 0.58848 0.31715 0.0
O82 O 0.95259 0.59577 0.25483 0.0
O83 O 0.94863 0.58618 0.16877 0.0
C84 C 0.06018 0.48155 0.19694 0.0
C85 C 0.93446 0.60766 0.21042 0.0
C86 C 0.97814 0.42577 0.7453 0.0
C87 C 0.09323 0.55935 0.74203 0.0
O88 O 0.99518 0.43571 0.79073 0.0
Zn89 Zn 0.04529 0.48527 0.82475 0.0
O90 O 0.99327 0.44822 0.70496 0.0
Zn91 Zn 0.03816 0.4901 0.74097 0.0
O92 O 0.09237 0.44061 0.76756 0.0
O93 O 0.09296 0.44104 0.85414 0.0
O94 O 0.07293 0.53978 0.70262 0.0
O95 O 0.08577 0.54194 0.78805 0.0
O96 O 1.00493 0.52556 0.87022 0.0
O97 O 0.9912 0.53551 0.7852 0.0
C98 C 0.11004 0.42524 0.81107 0.0
C99 C 0.9818 0.54593 0.83307 0.0
C100 C 0.2157 0.97277 0.54157 0.0
C101 C 0.22589 0.10316 0.40835 0.0
O102 O 0.18095 0.99369 0.51866 0.0
Zn103 Zn 0.21827 0.03798 0.4755 0.0
O104 O 0.25773 0.9849 0.53013 0.0
Zn105 Zn 0.29377 0.03479 0.47933 0.0
O106 O 0.32611 0.07607 0.53074 0.0
O107 O 0.24897 0.08251 0.53484 0.0
O108 O 0.26605 0.08659 0.42349 0.0
O109 O 0.18868 0.08644 0.42886 0.0
O110 O 0.25116 0.98519 0.42441 0.0
O111 O 0.32798 0.98739 0.43582 0.0
C112 C 0.2895 0.09358 0.55291 0.0
C113 C 0.29233 0.9686 0.41335 0.0
C114 C 0.5543 0.79662 0.05217 0.0
C115 C 0.43671 0.77997 0.91194 0.0
O116 O 0.54644 0.75173 0.03859 0.0
Zn117 Zn 0.50398 0.71154 0.98391 0.0
O118 O 0.53201 0.83231 0.03035 0.0
Zn119 Zn 0.49497 0.79092 0.98333 0.0
O120 O 0.45206 0.7528 0.03805 0.0
O121 O 0.46648 0.67213 0.03173 0.0
O122 O 0.45018 0.81987 0.93377 0.0
O123 O 0.45416 0.73842 0.92741 0.0
O124 O 0.55331 0.68116 0.94114 0.0
O125 O 0.55035 0.76268 0.93559 0.0
C126 C 0.44454 0.70828 0.05294 0.0
C127 C 0.57018 0.72138 0.92352 0.0
C128 C 0.81815 0.91841 0.60726 0.0
C129 C 0.81594 0.05906 0.48444 0.0
O130 O 0.7771 0.93473 0.59517 0.0
Zn131 Zn 0.74476 0.99142 0.54936 0.0
O132 O 0.85428 0.93962 0.58889 0.0
Zn133 Zn 0.82082 0.98871 0.54576 0.0
O134 O 0.79205 0.03809 0.60317 0.0
O135 O 0.71469 0.03533 0.60064 0.0
O136 O 0.85298 0.03624 0.49969 0.0
O137 O 0.77589 0.04439 0.50015 0.0
O138 O 0.70858 0.9538 0.49862 0.0
O139 O 0.78535 0.94304 0.48973 0.0
C140 C 0.75209 0.05322 0.62017 0.0
C141 C 0.74327 0.93319 0.47558 0.0
C142 C 0.60869 0.25504 0.1103 0.0
C143 C 0.48967 0.2396 0.97305 0.0
O144 O 0.59084 0.21538 0.0926 0.0
Zn145 Zn 0.54857 0.24538 0.04185 0.0
O146 O 0.59422 0.29729 0.09328 0.0
Zn147 Zn 0.54253 0.32478 0.03862 0.0
O148 O 0.49479 0.35797 0.08225 0.0
O149 O 0.49421 0.27655 0.08877 0.0
O150 O 0.49837 0.2846 0.98554 0.0
O151 O 0.51141 0.20395 0.99548 0.0
O152 O 0.59408 0.2806 0.98693 0.0
O153 O 0.58025 0.36161 0.98868 0.0
C154 C 0.47633 0.31889 0.10061 0.0
C155 C 0.60244 0.32434 0.97003 0.0
C156 C 0.18093 0.42514 0.21177 0.0
C157 C 0.17367 0.37487 0.19955 0.0
C158 C 0.14438 0.46016 0.20751 0.0
C159 C 0.09962 0.44647 0.18961 0.0
H160 H 0.21448 0.43705 0.22722 0.0
H161 H 0.15068 0.49795 0.22016 0.0
S162 S 0.06324 0.32062 0.14887 0.0
N163 N 0.11891 0.31367 0.16621 0.0
N164 N 0.05035 0.38005 0.15743 0.0
C165 C 0.09238 0.39698 0.17481 0.0
C166 C 0.12941 0.361 0.18001 0.0
C167 C 0.16769 0.67017 0.77904 0.0
C168 C 0.18265 0.6886 0.73041 0.0
C169 C 0.13909 0.6284 0.78203 0.0
C170 C 0.12408 0.60317 0.73648 0.0
H171 H 0.17774 0.68853 0.81522 0.0
H172 H 0.12839 0.61615 0.82063 0.0
S173 S 0.15534 0.63539 0.59934 0.0
N174 N 0.18187 0.67764 0.63557 0.0
N175 N 0.12742 0.59937 0.64102 0.0
C176 C 0.13896 0.62111 0.68745 0.0
C177 C 0.16833 0.66374 0.68446 0.0
C178 C 0.86571 0.72622 0.23735 0.0
C179 C 0.81988 0.71489 0.22018 0.0
C180 C 0.90288 0.69181 0.23264 0.0
C181 C 0.89621 0.64523 0.2091 0.0
H182 H 0.87298 0.76181 0.25527 0.0
H183 H 0.93711 0.70159 0.24796 0.0
S184 S 0.78402 0.59584 0.15841 0.0
N185 N 0.77031 0.65196 0.18005 0.0
N186 N 0.84102 0.58896 0.16857 0.0
C187 C 0.85129 0.63365 0.19033 0.0
C188 C 0.81299 0.66808 0.19637 0.0
C189 C 0.85407 0.38176 0.72189 0.0
C190 C 0.85331 0.3368 0.74974 0.0
C191 C 0.89569 0.40898 0.71755 0.0
C192 C 0.93745 0.39251 0.74192 0.0
H193 H 0.82216 0.39625 0.70409 0.0
H194 H 0.89463 0.44427 0.69724 0.0
S195 S 0.95376 0.27639 0.81783 0.0
N196 N 0.89794 0.27598 0.79996 0.0
N197 N 0.97569 0.32798 0.79355 0.0
C198 C 0.93715 0.34723 0.76908 0.0
C199 C 0.89516 0.3191 0.77251 0.0
C200 C 0.20408 0.22605 0.33917 0.0
C201 C 0.23132 0.22097 0.29324 0.0
C202 C 0.20023 0.1868 0.37528 0.0
C203 C 0.22401 0.14149 0.36699 0.0
H204 H 0.18717 0.26117 0.34841 0.0
H205 H 0.18045 0.19278 0.41105 0.0
S206 S 0.29365 0.1062 0.24983 0.0
N207 N 0.27708 0.16414 0.23863 0.0
N208 N 0.2718 0.09186 0.30777 0.0
C209 C 0.24943 0.13509 0.32035 0.0
C210 C 0.25256 0.17442 0.28315 0.0
C211 C 0.33202 0.82108 0.82806 0.0
C212 C 0.32404 0.77943 0.79586 0.0
C213 C 0.36929 0.82169 0.8645 0.0
C214 C 0.39994 0.7806 0.87018 0.0
H215 H 0.30841 0.85283 0.82625 0.0
H216 H 0.37321 0.854 0.88945 0.0
S217 S 0.39778 0.66519 0.79002 0.0
N218 N 0.35263 0.69823 0.76831 0.0
N219 N 0.42204 0.69891 0.8368 0.0
C220 C 0.3934 0.73961 0.83655 0.0
C221 C 0.35567 0.73914 0.79945 0.0
C222 C 0.72354 0.88965 0.33654 0.0
C223 C 0.7374 0.83919 0.33837 0.0
C224 C 0.7228 0.91925 0.3819 0.0
C225 C 0.73643 0.89971 0.43065 0.0
H226 H 0.71455 0.90697 0.29945 0.0
H227 H 0.71346 0.9582 0.37842 0.0
S228 S 0.77226 0.76996 0.45866 0.0
N229 N 0.76149 0.7705 0.39484 0.0
N230 N 0.76249 0.82727 0.47939 0.0
C231 C 0.74951 0.84949 0.43365 0.0
C232 C 0.74944 0.81895 0.3877 0.0
C233 C 0.71631 0.31515 0.89571 0.0
C234 C 0.70098 0.31495 0.84311 0.0
C235 C 0.68434 0.32165 0.93705 0.0
C236 C 0.63631 0.32948 0.92701 0.0
H237 H 0.75282 0.30746 0.90501 0.0
H238 H 0.69691 0.31842 0.97715 0.0
S239 S 0.57915 0.33625 0.79631 0.0
N240 N 0.63516 0.32569 0.78318 0.0
N241 N 0.57521 0.33916 0.86102 0.0
C242 C 0.62093 0.33194 0.87465 0.0
C243 C 0.65329 0.3244 0.83259 0.0
C244 C 0.22407 0.90469 0.67011 0.0
C245 C 0.22178 0.85464 0.65429 0.0
C246 C 0.21838 0.94333 0.63368 0.0
C247 C 0.2095 0.93327 0.58044 0.0
H248 H 0.23143 0.91404 0.7107 0.0
H249 H 0.22281 0.98128 0.64684 0.0
S250 S 0.2012 0.80944 0.51823 0.0
N251 N 0.21066 0.79757 0.58104 0.0
N252 N 0.19911 0.87052 0.51322 0.0
C253 C 0.20585 0.88377 0.56422 0.0
C254 C 0.21207 0.84435 0.60103 0.0
C255 C 0.6207 0.79094 0.17994 0.0
C256 C 0.66754 0.79734 0.16385 0.0
C257 C 0.58343 0.79428 0.14394 0.0
C258 C 0.59163 0.80512 0.09091 0.0
H259 H 0.61295 0.78138 0.22029 0.0
H260 H 0.54818 0.78654 0.15724 0.0
S261 S 0.70692 0.82719 0.02895 0.0
N262 N 0.71958 0.81688 0.0914 0.0
N263 N 0.64925 0.82299 0.02386 0.0
C264 C 0.63788 0.81307 0.07451 0.0
C265 C 0.67594 0.80924 0.11097 0.0
C266 C 0.71636 0.17522 0.68472 0.0
C267 C 0.75653 0.18688 0.71448 0.0
C268 C 0.71359 0.13024 0.65669 0.0
C269 C 0.75088 0.09547 0.65768 0.0
H270 H 0.68781 0.20192 0.68127 0.0
H271 H 0.68317 0.12391 0.63202 0.0
S272 S 0.86015 0.10505 0.73692 0.0
N273 N 0.83161 0.15757 0.74845 0.0
N274 N 0.82667 0.07348 0.69599 0.0
C275 C 0.7898 0.1055 0.6901 0.0
C276 C 0.79258 0.15109 0.71841 0.0
C277 C 0.36364 0.2736 0.16188 0.0
C278 C 0.34139 0.31699 0.18046 0.0
C279 C 0.40753 0.27501 0.13776 0.0
C280 C 0.43141 0.31999 0.13038 0.0
H281 H 0.34655 0.238 0.16502 0.0
H282 H 0.42223 0.24023 0.12365 0.0
S283 S 0.38961 0.44428 0.17405 0.0
N284 N 0.34744 0.40635 0.19203 0.0
N285 N 0.42989 0.40921 0.14511 0.0
C286 C 0.40992 0.36385 0.14914 0.0
C287 C 0.36498 0.36233 0.17436 0.0
C288 C 0.91528 0.66655 0.84223 0.0
C289 C 0.86945 0.65205 0.82868 0.0
C290 C 0.95134 0.63116 0.8492 0.0
C291 C 0.94256 0.58035 0.84274 0.0
H292 H 0.92366 0.70555 0.84549 0.0
H293 H 0.9868 0.64378 0.85626 0.0
S294 S 0.829 0.523 0.80826 0.0
N295 N 0.8173 0.58316 0.81054 0.0
N296 N 0.88525 0.51702 0.8232 0.0
C297 C 0.8967 0.56529 0.8313 0.0
C298 C 0.86 0.60108 0.82449 0.0
C299 C 0.87588 0.36298 0.25174 0.0
C300 C 0.85903 0.34608 0.30016 0.0
C301 C 0.90432 0.40469 0.24864 0.0
C302 C 0.91743 0.4316 0.29386 0.0
H303 H 0.86726 0.34352 0.21573 0.0
H304 H 0.91629 0.4156 0.21005 0.0
S305 S 0.88184 0.40311 0.4305 0.0
N306 N 0.85668 0.35963 0.39462 0.0
N307 N 0.91098 0.43816 0.38891 0.0
C308 C 0.90107 0.415 0.3428 0.0
C309 C 0.87176 0.37223 0.34593 0.0
C310 C 0.21373 0.3508 0.75877 0.0
C311 C 0.22759 0.32105 0.80154 0.0
C312 C 0.17615 0.38446 0.76273 0.0
C313 C 0.15079 0.39025 0.80979 0.0
H314 H 0.23196 0.34783 0.72158 0.0
H315 H 0.16692 0.40609 0.72832 0.0
S316 S 0.17309 0.32151 0.93377 0.0
N317 N 0.21306 0.29955 0.89272 0.0
N318 N 0.14279 0.36371 0.90058 0.0
C319 C 0.16488 0.3616 0.8534 0.0
C320 C 0.20318 0.32689 0.84921 0.0
C321 C 0.17835 0.6698 0.31848 0.0
C322 C 0.19533 0.68954 0.27121 0.0
C323 C 0.13541 0.64458 0.31999 0.0
C324 C 0.10782 0.63877 0.27435 0.0
H325 H 0.19897 0.67278 0.35416 0.0
H326 H 0.12451 0.62839 0.35682 0.0
S327 S 0.13464 0.68992 0.14227 0.0
N328 N 0.17992 0.70568 0.17905 0.0
N329 N 0.09927 0.65923 0.18144 0.0
C330 C 0.12369 0.66067 0.22741 0.0
C331 C 0.16744 0.68577 0.22594 0.0
C332 C 0.78318 0.80013 0.67512 0.0
C333 C 0.81623 0.79525 0.71599 0.0
C334 C 0.78567 0.83891 0.63892 0.0
C335 C 0.82158 0.87426 0.64161 0.0
H336 H 0.7542 0.77457 0.67204 0.0
H337 H 0.75841 0.8419 0.60924 0.0
S338 S 0.9188 0.87636 0.73868 0.0
N339 N 0.88748 0.82769 0.75554 0.0
N340 N 0.89263 0.90035 0.6864 0.0
C341 C 0.85651 0.86834 0.68028 0.0
C342 C 0.85374 0.82886 0.71772 0.0
C343 C 0.72776 0.27371 0.17311 0.0
C344 C 0.7221 0.25457 0.22422 0.0
C345 C 0.69085 0.27354 0.1365 0.0
C346 C 0.64723 0.25305 0.14901 0.0
H347 H 0.76107 0.28894 0.1611 0.0
H348 H 0.69659 0.28921 0.09791 0.0
S349 S 0.61244 0.20039 0.27704 0.0
N350 N 0.66755 0.21706 0.28577 0.0
N351 N 0.59943 0.21418 0.21546 0.0
C352 C 0.64088 0.2333 0.19931 0.0
C353 C 0.67801 0.23459 0.23724 0.0
C354 C 0.33597 0.1788 0.6602 0.0
C355 C 0.2972 0.18351 0.69409 0.0
C356 C 0.33361 0.14942 0.6146 0.0
C357 C 0.29236 0.12393 0.60142 0.0
H358 H 0.36802 0.19866 0.66853 0.0
H359 H 0.36399 0.14729 0.58918 0.0
S360 S 0.18318 0.11968 0.68103 0.0
N361 N 0.21803 0.15721 0.71393 0.0
N362 N 0.21313 0.10233 0.62863 0.0
C363 C 0.25387 0.12732 0.63606 0.0
C364 C 0.2564 0.15703 0.68228 0.0
C365 C 0.33339 0.70625 0.13217 0.0
C366 C 0.35025 0.71317 0.18378 0.0
C367 C 0.36438 0.70076 0.08977 0.0
C368 C 0.41313 0.70108 0.09777 0.0
H369 H 0.29603 0.70792 0.12408 0.0
H370 H 0.35019 0.69877 0.05029 0.0
S371 S 0.47525 0.71367 0.22504 0.0
N372 N 0.419 0.7166 0.24054 0.0
N373 N 0.47708 0.70622 0.16063 0.0
C374 C 0.43046 0.70544 0.14918 0.0
C375 C 0.39904 0.71144 0.1923 0.0
C376 C 0.85226 0.14968 0.37736 0.0
C377 C 0.81294 0.18169 0.37477 0.0
C378 C 0.85428 0.11075 0.41422 0.0
C379 C 0.81707 0.10302 0.44947 0.0
H380 H 0.88082 0.1539 0.3498 0.0
H381 H 0.88428 0.0857 0.41393 0.0
S382 S 0.70958 0.18187 0.46248 0.0
N383 N 0.73845 0.20631 0.41297 0.0
N384 N 0.74211 0.13452 0.4826 0.0
C385 C 0.77882 0.1368 0.44866 0.0
C386 C 0.77677 0.17578 0.41118 0.0
C387 C 0.36857 0.23519 0.91432 0.0
C388 C 0.37761 0.2361 0.85998 0.0
C389 C 0.40537 0.23284 0.95098 0.0
C390 C 0.45234 0.23078 0.93454 0.0
H391 H 0.33282 0.23716 0.92864 0.0
H392 H 0.39713 0.23446 0.9925 0.0
S393 S 0.49531 0.23229 0.79762 0.0
N394 N 0.43755 0.2349 0.79192 0.0
N395 N 0.50642 0.22976 0.8613 0.0
C396 C 0.46203 0.23052 0.88068 0.0
C397 C 0.4247 0.23318 0.84324 0.0
C398 C 0.25625 0.86748 0.31882 0.0
C399 C 0.29408 0.83363 0.32067 0.0
C400 C 0.25735 0.91209 0.34682 0.0
C401 C 0.29633 0.92491 0.378 0.0
H402 H 0.22513 0.85909 0.29601 0.0
H403 H 0.22668 0.93619 0.34495 0.0
S404 S 0.40565 0.85004 0.39382 0.0
N405 N 0.3726 0.81656 0.35412 0.0
N406 N 0.37484 0.90083 0.40706 0.0
C407 C 0.33537 0.89235 0.37846 0.0
C408 C 0.33419 0.84664 0.34974 0.0
C409 C 0.68206 0.67776 0.8547 0.0
C410 C 0.70634 0.72235 0.8467 0.0
C411 C 0.6375 0.6776 0.87832 0.0
C412 C 0.61547 0.72208 0.89454 0.0
H413 H 0.69751 0.64272 0.84238 0.0
H414 H 0.62042 0.64235 0.88421 0.0
S415 S 0.66558 0.84875 0.88425 0.0
N416 N 0.70613 0.81176 0.85898 0.0
N417 N 0.62221 0.81212 0.90119 0.0
C418 C 0.63951 0.76698 0.88638 0.0
C419 C 0.68494 0.76694 0.86309 0.0
loop_
_geom_bond_atom_site_label_1
_geom_bond_atom_site_label_2
_geom_bond_distance
_geom_bond_site_symmetry_2
_ccdc_geom_bond_type
H0 C3 0.931 . S
H1 C6 0.928 . S
H2 C8 0.930 . S
C3 H0 0.931 . S
C3 C4 1.413 . S
C3 C5 1.360 . S
C4 C3 1.413 . S
C4 C8 1.429 . S
C5 C3 1.360 . S
C5 C6 1.372 . S
C6 H1 0.928 . S
C6 C5 1.372 . S
C6 C7 1.404 . S
C7 C6 1.404 . S
C7 C8 1.391 . S
C8 H2 0.930 . S
C8 C4 1.429 . S
C8 C7 1.391 . S
H9 C12 0.931 . S
H10 C15 0.928 . S
H11 C17 0.930 . S
C12 H9 0.931 . S
C12 C13 1.413 . S
C12 C14 1.360 . S
C13 C12 1.413 . S
C13 C17 1.429 . S
C14 C12 1.360 . S
C14 C15 1.372 . S
C15 H10 0.928 . S
C15 C14 1.372 . S
C15 C16 1.404 . S
C16 C15 1.404 . S
C16 C17 1.391 . S
C17 H11 0.930 . S
C17 C13 1.429 . S
C17 C16 1.391 . S
H18 C21 0.931 . S
H19 C24 0.928 . S
H20 C26 0.930 . S
C21 H18 0.931 . S
C21 C22 1.413 . S
C21 C23 1.360 . S
C22 C21 1.413 . S
C22 C26 1.429 . S
C23 C21 1.360 . S
C23 C24 1.372 . S
C24 H19 0.928 . S
C24 C23 1.372 . S
C24 C25 1.404 . S
C25 C24 1.404 . S
C25 C26 1.391 . S
C26 H20 0.930 . S
C26 C22 1.429 . S
C26 C25 1.391 . S
H27 C30 0.931 . S
H28 C33 0.928 . S
H29 C35 0.930 . S
C30 H27 0.931 . S
C30 C31 1.413 . S
C30 C32 1.360 . S
C31 C30 1.413 . S
C31 C35 1.429 . S
C32 C30 1.360 . S
C32 C33 1.372 . S
C33 H28 0.928 . S
C33 C32 1.372 . S
C33 C34 1.404 . S
C34 C33 1.404 . S
C34 C35 1.391 . S
C35 H29 0.930 . S
C35 C31 1.429 . S
C35 C34 1.391 . S
H36 C39 0.931 . S
H37 C42 0.928 . S
H38 C44 0.930 . S
C39 H36 0.931 . S
C39 C40 1.413 . S
C39 C41 1.360 . S
C40 C39 1.413 . S
C40 C44 1.429 . S
C41 C39 1.360 . S
C41 C42 1.372 . S
C42 H37 0.928 . S
C42 C41 1.372 . S
C42 C43 1.404 . S
C43 C42 1.404 . S
C43 C44 1.391 . S
C44 H38 0.930 . S
C44 C40 1.429 . S
C44 C43 1.391 . S
H45 C48 0.931 . S
H46 C51 0.928 . S
H47 C53 0.930 . S
C48 H45 0.931 . S
C48 C49 1.413 . S
C48 C50 1.360 . S
C49 C48 1.413 . S
C49 C53 1.429 . S
C50 C48 1.360 . S
C50 C51 1.372 . S
C51 H46 0.928 . S
C51 C50 1.372 . S
C51 C52 1.404 . S
C52 C51 1.404 . S
C52 C53 1.391 . S
C53 H47 0.930 . S
C53 C49 1.429 . S
C53 C52 1.391 . S
H54 C57 0.931 . S
H55 C60 0.928 . S
H56 C62 0.930 . S
C57 H54 0.931 . S
C57 C58 1.413 . S
C57 C59 1.360 . S
C58 C57 1.413 . S
C58 C62 1.429 . S
C59 C57 1.360 . S
C59 C60 1.372 . S
C60 H55 0.928 . S
C60 C59 1.372 . S
C60 C61 1.404 . S
C61 C60 1.404 . S
C61 C62 1.391 . S
C62 H56 0.930 . S
C62 C58 1.429 . S
C62 C61 1.391 . S
H63 C66 0.931 . S
H64 C69 0.928 . S
H65 C71 0.930 . S
C66 H63 0.931 . S
C66 C67 1.413 . S
C66 C68 1.360 . S
C67 C66 1.413 . S
C67 C71 1.429 . S
C68 C66 1.360 . S
C68 C69 1.372 . S
C69 H64 0.928 . S
C69 C68 1.372 . S
C69 C70 1.404 . S
C70 C69 1.404 . S
C70 C71 1.391 . S
C71 H65 0.930 . S
C71 C67 1.429 . S
C71 C70 1.391 . S
C72 O74 1.247 . S
C72 O76 1.258 . S
C73 O80 1.247 . S
C73 O81 1.258 . S
O74 C72 1.247 . S
O74 Zn75 2.028 1_655 S
Zn75 O74 2.028 1_455 S
Zn75 O79 2.035 . S
Zn75 O81 2.035 . S
Zn75 O82 2.028 1_455 S
O76 C72 1.258 . S
O76 Zn77 2.035 1_655 S
Zn77 O76 2.035 1_455 S
Zn77 O78 2.028 . S
Zn77 O80 2.028 . S
Zn77 O83 2.035 1_455 S
O78 Zn77 2.028 . S
O78 C84 1.247 . S
O79 Zn75 2.035 . S
O79 C84 1.258 . S
O80 C73 1.247 . S
O80 Zn77 2.028 . S
O81 C73 1.258 . S
O81 Zn75 2.035 . S
O82 Zn75 2.028 1_655 S
O82 C85 1.247 . S
O83 Zn77 2.035 1_655 S
O83 C85 1.258 . S
C84 O78 1.247 . S
C84 O79 1.258 . S
C85 O82 1.247 . S
C85 O83 1.258 . S
C86 O88 1.247 . S
C86 O90 1.258 . S
C87 O94 1.247 . S
C87 O95 1.258 . S
O88 C86 1.247 . S
O88 Zn89 2.028 1_655 S
Zn89 O88 2.028 1_455 S
Zn89 O93 2.035 . S
Zn89 O95 2.035 . S
Zn89 O96 2.028 1_455 S
O90 C86 1.258 . S
O90 Zn91 2.035 1_655 S
Zn91 O90 2.035 1_455 S
Zn91 O92 2.028 . S
Zn91 O94 2.028 . S
Zn91 O97 2.035 1_455 S
O92 Zn91 2.028 . S
O92 C98 1.247 . S
O93 Zn89 2.035 . S
O93 C98 1.258 . S
O94 C87 1.247 . S
O94 Zn91 2.028 . S
O95 C87 1.258 . S
O95 Zn89 2.035 . S
O96 Zn89 2.028 1_655 S
O96 C99 1.247 . S
O97 Zn91 2.035 1_655 S
O97 C99 1.258 . S
C98 O92 1.247 . S
C98 O93 1.258 . S
C99 O96 1.247 . S
C99 O97 1.258 . S
C100 O102 1.247 . S
C100 O104 1.258 . S
C101 O108 1.247 . S
C101 O109 1.258 . S
O102 C100 1.247 . S
O102 Zn103 2.024 1_565 S
Zn103 O102 2.024 1_545 S
Zn103 O107 2.039 . S
Zn103 O109 2.039 . S
Zn103 O110 2.024 1_545 S
O104 C100 1.258 . S
O104 Zn105 2.035 1_565 S
Zn105 O104 2.035 1_545 S
Zn105 O106 2.028 . S
Zn105 O108 2.028 . S
Zn105 O111 2.035 1_545 S
O106 Zn105 2.028 . S
O106 C112 1.247 . S
O107 Zn103 2.039 . S
O107 C112 1.258 . S
O108 C101 1.247 . S
O108 Zn105 2.028 . S
O109 C101 1.258 . S
O109 Zn103 2.039 . S
O110 Zn103 2.024 1_565 S
O110 C113 1.247 . S
O111 Zn105 2.035 1_565 S
O111 C113 1.258 . S
C112 O106 1.247 . S
C112 O107 1.258 . S
C113 O110 1.247 . S
C113 O111 1.258 . S
C114 O116 1.247 . S
C114 O118 1.258 . S
C115 O122 1.247 . S
C115 O123 1.258 . S
O116 C114 1.247 . S
O116 Zn117 2.029 1_554 S
Zn117 O116 2.029 1_556 S
Zn117 O121 2.036 1_556 S
Zn117 O123 2.034 . S
Zn117 O124 2.027 . S
O118 C114 1.258 . S
O118 Zn119 2.047 . S
Zn119 O118 2.047 . S
Zn119 O120 2.040 . S
Zn119 O122 2.016 1_554 S
Zn119 O125 2.023 1_554 S
O120 Zn119 2.040 . S
O120 C126 1.247 . S
O121 Zn117 2.036 1_554 S
O121 C126 1.258 . S
O122 C115 1.247 . S
O122 Zn119 2.016 1_556 S
O123 C115 1.258 . S
O123 Zn117 2.034 . S
O124 Zn117 2.027 . S
O124 C127 1.247 . S
O125 Zn119 2.023 1_556 S
O125 C127 1.258 . S
C126 O120 1.247 . S
C126 O121 1.258 . S
C127 O124 1.247 . S
C127 O125 1.258 . S
C128 O130 1.247 . S
C128 O132 1.258 . S
C129 O136 1.247 . S
C129 O137 1.258 . S
O130 C128 1.247 . S
O130 Zn131 2.027 . S
Zn131 O130 2.027 . S
Zn131 O135 2.036 1_565 S
Zn131 O137 2.036 1_565 S
Zn131 O138 2.027 . S
O132 C128 1.258 . S
O132 Zn133 2.022 1_565 S
Zn133 O132 2.022 1_545 S
Zn133 O134 2.041 . S
Zn133 O136 2.041 . S
Zn133 O139 2.022 1_545 S
O134 Zn133 2.041 . S
O134 C140 1.247 . S
O135 Zn131 2.036 1_545 S
O135 C140 1.258 . S
O136 C129 1.247 . S
O136 Zn133 2.041 . S
O137 C129 1.258 . S
O137 Zn131 2.036 1_545 S
O138 Zn131 2.027 . S
O138 C141 1.247 . S
O139 Zn133 2.022 1_565 S
O139 C141 1.258 . S
C140 O134 1.247 . S
C140 O135 1.258 . S
C141 O138 1.247 . S
C141 O139 1.258 . S
C142 O144 1.247 . S
C142 O146 1.258 . S
C143 O150 1.247 . S
C143 O151 1.258 . S
O144 C142 1.247 . S
O144 Zn145 2.028 . S
Zn145 O144 2.028 . S
Zn145 O149 2.035 . S
Zn145 O151 2.035 1_554 S
Zn145 O152 2.028 1_554 S
O146 C142 1.258 . S
O146 Zn147 2.035 . S
Zn147 O146 2.035 . S
Zn147 O148 2.028 . S
Zn147 O150 2.028 1_554 S
Zn147 O153 2.035 1_554 S
O148 Zn147 2.028 . S
O148 C154 1.247 . S
O149 Zn145 2.035 . S
O149 C154 1.258 . S
O150 C143 1.247 . S
O150 Zn147 2.028 1_556 S
O151 C143 1.258 . S
O151 Zn145 2.035 1_556 S
O152 Zn145 2.028 1_556 S
O152 C155 1.247 . S
O153 Zn147 2.035 1_556 S
O153 C155 1.258 . S
C154 O148 1.247 . S
C154 O149 1.258 . S
C155 O152 1.247 . S
C155 O153 1.258 . S
C156 C157 1.369 . S
C156 C158 1.419 . S
C156 H160 0.930 . S
C157 C156 1.369 . S
C157 C166 1.429 . S
C158 C156 1.419 . S
C158 C159 1.363 . S
C158 H161 0.929 . S
C159 C158 1.363 . S
C159 C165 1.428 . S
H160 C156 0.930 . S
H161 C158 0.929 . S
S162 N163 1.613 . S
S162 N164 1.610 . S
N163 S162 1.613 . S
N163 C166 1.350 . S
N164 S162 1.610 . S
N164 C165 1.351 . S
C165 C159 1.428 . S
C165 N164 1.351 . S
C165 C166 1.434 . S
C166 C157 1.429 . S
C166 N163 1.350 . S
C166 C165 1.434 . S
C167 C168 1.369 . S
C167 C169 1.419 . S
C167 H171 0.930 . S
C168 C167 1.369 . S
C168 C177 1.429 . S
C169 C167 1.419 . S
C169 C170 1.363 . S
C169 H172 0.929 . S
C170 C169 1.363 . S
C170 C176 1.428 . S
H171 C167 0.930 . S
H172 C169 0.929 . S
S173 N174 1.613 . S
S173 N175 1.610 . S
N174 S173 1.613 . S
N174 C177 1.350 . S
N175 S173 1.610 . S
N175 C176 1.351 . S
C176 C170 1.428 . S
C176 N175 1.351 . S
C176 C177 1.434 . S
C177 C168 1.429 . S
C177 N174 1.350 . S
C177 C176 1.434 . S
C178 C179 1.369 . S
C178 C180 1.419 . S
C178 H182 0.930 . S
C179 C178 1.369 . S
C179 C188 1.429 . S
C180 C178 1.419 . S
C180 C181 1.363 . S
C180 H183 0.929 . S
C181 C180 1.363 . S
C181 C187 1.428 . S
H182 C178 0.930 . S
H183 C180 0.929 . S
S184 N185 1.613 . S
S184 N186 1.610 . S
N185 S184 1.613 . S
N185 C188 1.350 . S
N186 S184 1.610 . S
N186 C187 1.351 . S
C187 C181 1.428 . S
C187 N186 1.351 . S
C187 C188 1.434 . S
C188 C179 1.429 . S
C188 N185 1.350 . S
C188 C187 1.434 . S
C189 C190 1.369 . S
C189 C191 1.419 . S
C189 H193 0.930 . S
C190 C189 1.369 . S
C190 C199 1.429 . S
C191 C189 1.419 . S
C191 C192 1.363 . S
C191 H194 0.929 . S
C192 C191 1.363 . S
C192 C198 1.428 . S
H193 C189 0.930 . S
H194 C191 0.929 . S
S195 N196 1.613 . S
S195 N197 1.610 . S
N196 S195 1.613 . S
N196 C199 1.350 . S
N197 S195 1.610 . S
N197 C198 1.351 . S
C198 C192 1.428 . S
C198 N197 1.351 . S
C198 C199 1.434 . S
C199 C190 1.429 . S
C199 N196 1.350 . S
C199 C198 1.434 . S
C200 C201 1.369 . S
C200 C202 1.419 . S
C200 H204 0.930 . S
C201 C200 1.369 . S
C201 C210 1.429 . S
C202 C200 1.419 . S
C202 C203 1.363 . S
C202 H205 0.929 . S
C203 C202 1.363 . S
C203 C209 1.428 . S
H204 C200 0.930 . S
H205 C202 0.929 . S
S206 N207 1.613 . S
S206 N208 1.610 . S
N207 S206 1.613 . S
N207 C210 1.350 . S
N208 S206 1.610 . S
N208 C209 1.351 . S
C209 C203 1.428 . S
C209 N208 1.351 . S
C209 C210 1.434 . S
C210 C201 1.429 . S
C210 N207 1.350 . S
C210 C209 1.434 . S
C211 C212 1.369 . S
C211 C213 1.419 . S
C211 H215 0.930 . S
C212 C211 1.369 . S
C212 C221 1.429 . S
C213 C211 1.419 . S
C213 C214 1.363 . S
C213 H216 0.929 . S
C214 C213 1.363 . S
C214 C220 1.428 . S
H215 C211 0.930 . S
H216 C213 0.929 . S
S217 N218 1.613 . S
S217 N219 1.610 . S
N218 S217 1.613 . S
N218 C221 1.350 . S
N219 S217 1.610 . S
N219 C220 1.351 . S
C220 C214 1.428 . S
C220 N219 1.351 . S
C220 C221 1.434 . S
C221 C212 1.429 . S
C221 N218 1.350 . S
C221 C220 1.434 . S
C222 C223 1.369 . S
C222 C224 1.419 . S
C222 H226 0.930 . S
C223 C222 1.369 . S
C223 C232 1.429 . S
C224 C222 1.419 . S
C224 C225 1.363 . S
C224 H227 0.929 . S
C225 C224 1.363 . S
C225 C231 1.428 . S
H226 C222 0.930 . S
H227 C224 0.929 . S
S228 N229 1.613 . S
S228 N230 1.610 . S
N229 S228 1.613 . S
N229 C232 1.350 . S
N230 S228 1.610 . S
N230 C231 1.351 . S
C231 C225 1.428 . S
C231 N230 1.351 . S
C231 C232 1.434 . S
C232 C223 1.429 . S
C232 N229 1.350 . S
C232 C231 1.434 . S
C233 C234 1.369 . S
C233 C235 1.419 . S
C233 H237 0.930 . S
C234 C233 1.369 . S
C234 C243 1.429 . S
C235 C233 1.419 . S
C235 C236 1.363 . S
C235 H238 0.929 . S
C236 C235 1.363 . S
C236 C242 1.428 . S
H237 C233 0.930 . S
H238 C235 0.929 . S
S239 N240 1.613 . S
S239 N241 1.610 . S
N240 S239 1.613 . S
N240 C243 1.350 . S
N241 S239 1.610 . S
N241 C242 1.351 . S
C242 C236 1.428 . S
C242 N241 1.351 . S
C242 C243 1.434 . S
C243 C234 1.429 . S
C243 N240 1.350 . S
C243 C242 1.434 . S
C244 C245 1.369 . S
C244 C246 1.419 . S
C244 H248 0.930 . S
C245 C244 1.369 . S
C245 C254 1.429 . S
C246 C244 1.419 . S
C246 C247 1.363 . S
C246 H249 0.929 . S
C247 C246 1.363 . S
C247 C253 1.428 . S
H248 C244 0.930 . S
H249 C246 0.929 . S
S250 N251 1.613 . S
S250 N252 1.610 . S
N251 S250 1.613 . S
N251 C254 1.350 . S
N252 S250 1.610 . S
N252 C253 1.351 . S
C253 C247 1.428 . S
C253 N252 1.351 . S
C253 C254 1.434 . S
C254 C245 1.429 . S
C254 N251 1.350 . S
C254 C253 1.434 . S
C255 C256 1.369 . S
C255 C257 1.419 . S
C255 H259 0.930 . S
C256 C255 1.369 . S
C256 C265 1.429 . S
C257 C255 1.419 . S
C257 C258 1.363 . S
C257 H260 0.929 . S
C258 C257 1.363 . S
C258 C264 1.428 . S
H259 C255 0.930 . S
H260 C257 0.929 . S
S261 N262 1.613 . S
S261 N263 1.610 . S
N262 S261 1.613 . S
N262 C265 1.350 . S
N263 S261 1.610 . S
N263 C264 1.351 . S
C264 C258 1.428 . S
C264 N263 1.351 . S
C264 C265 1.434 . S
C265 C256 1.429 . S
C265 N262 1.350 . S
C265 C264 1.434 . S
C266 C267 1.369 . S
C266 C268 1.419 . S
C266 H270 0.930 . S
C267 C266 1.369 . S
C267 C276 1.429 . S
C268 C266 1.419 . S
C268 C269 1.363 . S
C268 H271 0.929 . S
C269 C268 1.363 . S
C269 C275 1.428 . S
H270 C266 0.930 . S
H271 C268 0.929 . S
S272 N273 1.613 . S
S272 N274 1.610 . S
N273 S272 1.613 . S
N273 C276 1.350 . S
N274 S272 1.610 . S
N274 C275 1.351 . S
C275 C269 1.428 . S
C275 N274 1.351 . S
C275 C276 1.434 . S
C276 C267 1.429 . S
C276 N273 1.350 . S
C276 C275 1.434 . S
C277 C278 1.369 . S
C277 C279 1.419 . S
C277 H281 0.930 . S
C278 C277 1.369 . S
C278 C287 1.429 . S
C279 C277 1.419 . S
C279 C280 1.363 . S
C279 H282 0.929 . S
C280 C279 1.363 . S
C280 C286 1.428 . S
H281 C277 0.930 . S
H282 C279 0.929 . S
S283 N284 1.613 . S
S283 N285 1.610 . S
N284 S283 1.613 . S
N284 C287 1.350 . S
N285 S283 1.610 . S
N285 C286 1.351 . S
C286 C280 1.428 . S
C286 N285 1.351 . S
C286 C287 1.434 . S
C287 C278 1.429 . S
C287 N284 1.350 . S
C287 C286 1.434 . S
C288 C289 1.369 . S
C288 C290 1.419 . S
C288 H292 0.930 . S
C289 C288 1.369 . S
C289 C298 1.429 . S
C290 C288 1.419 . S
C290 C291 1.363 . S
C290 H293 0.929 . S
C291 C290 1.363 . S
C291 C297 1.428 . S
H292 C288 0.930 . S
H293 C290 0.929 . S
S294 N295 1.613 . S
S294 N296 1.610 . S
N295 S294 1.613 . S
N295 C298 1.350 . S
N296 S294 1.610 . S
N296 C297 1.351 . S
C297 C291 1.428 . S
C297 N296 1.351 . S
C297 C298 1.434 . S
C298 C289 1.429 . S
C298 N295 1.350 . S
C298 C297 1.434 . S
C299 C300 1.369 . S
C299 C301 1.419 . S
C299 H303 0.930 . S
C300 C299 1.369 . S
C300 C309 1.429 . S
C301 C299 1.419 . S
C301 C302 1.363 . S
C301 H304 0.929 . S
C302 C301 1.363 . S
C302 C308 1.428 . S
H303 C299 0.930 . S
H304 C301 0.929 . S
S305 N306 1.613 . S
S305 N307 1.610 . S
N306 S305 1.613 . S
N306 C309 1.350 . S
N307 S305 1.610 . S
N307 C308 1.351 . S
C308 C302 1.428 . S
C308 N307 1.351 . S
C308 C309 1.434 . S
C309 C300 1.429 . S
C309 N306 1.350 . S
C309 C308 1.434 . S
C310 C311 1.369 . S
C310 C312 1.419 . S
C310 H314 0.930 . S
C311 C310 1.369 . S
C311 C320 1.429 . S
C312 C310 1.419 . S
C312 C313 1.363 . S
C312 H315 0.929 . S
C313 C312 1.363 . S
C313 C319 1.428 . S
H314 C310 0.930 . S
H315 C312 0.929 . S
S316 N317 1.613 . S
S316 N318 1.610 . S
N317 S316 1.613 . S
N317 C320 1.350 . S
N318 S316 1.610 . S
N318 C319 1.351 . S
C319 C313 1.428 . S
C319 N318 1.351 . S
C319 C320 1.434 . S
C320 C311 1.429 . S
C320 N317 1.350 . S
C320 C319 1.434 . S
C321 C322 1.369 . S
C321 C323 1.419 . S
C321 H325 0.930 . S
C322 C321 1.369 . S
C322 C331 1.429 . S
C323 C321 1.419 . S
C323 C324 1.363 . S
C323 H326 0.929 . S
C324 C323 1.363 . S
C324 C330 1.428 . S
H325 C321 0.930 . S
H326 C323 0.929 . S
S327 N328 1.613 . S
S327 N329 1.610 . S
N328 S327 1.613 . S
N328 C331 1.350 . S
N329 S327 1.610 . S
N329 C330 1.351 . S
C330 C324 1.428 . S
C330 N329 1.351 . S
C330 C331 1.434 . S
C331 C322 1.429 . S
C331 N328 1.350 . S
C331 C330 1.434 . S
C332 C333 1.369 . S
C332 C334 1.419 . S
C332 H336 0.930 . S
C333 C332 1.369 . S
C333 C342 1.429 . S
C334 C332 1.419 . S
C334 C335 1.363 . S
C334 H337 0.929 . S
C335 C334 1.363 . S
C335 C341 1.428 . S
H336 C332 0.930 . S
H337 C334 0.929 . S
S338 N339 1.613 . S
S338 N340 1.610 . S
N339 S338 1.613 . S
N339 C342 1.350 . S
N340 S338 1.610 . S
N340 C341 1.351 . S
C341 C335 1.428 . S
C341 N340 1.351 . S
C341 C342 1.434 . S
C342 C333 1.429 . S
C342 N339 1.350 . S
C342 C341 1.434 . S
C343 C344 1.369 . S
C343 C345 1.419 . S
C343 H347 0.930 . S
C344 C343 1.369 . S
C344 C353 1.429 . S
C345 C343 1.419 . S
C345 C346 1.363 . S
C345 H348 0.929 . S
C346 C345 1.363 . S
C346 C352 1.428 . S
H347 C343 0.930 . S
H348 C345 0.929 . S
S349 N350 1.613 . S
S349 N351 1.610 . S
N350 S349 1.613 . S
N350 C353 1.350 . S
N351 S349 1.610 . S
N351 C352 1.351 . S
C352 C346 1.428 . S
C352 N351 1.351 . S
C352 C353 1.434 . S
C353 C344 1.429 . S
C353 N350 1.350 . S
C353 C352 1.434 . S
C354 C355 1.369 . S
C354 C356 1.419 . S
C354 H358 0.930 . S
C355 C354 1.369 . S
C355 C364 1.429 . S
C356 C354 1.419 . S
C356 C357 1.363 . S
C356 H359 0.929 . S
C357 C356 1.363 . S
C357 C363 1.428 . S
H358 C354 0.930 . S
H359 C356 0.929 . S
S360 N361 1.613 . S
S360 N362 1.610 . S
N361 S360 1.613 . S
N361 C364 1.350 . S
N362 S360 1.610 . S
N362 C363 1.351 . S
C363 C357 1.428 . S
C363 N362 1.351 . S
C363 C364 1.434 . S
C364 C355 1.429 . S
C364 N361 1.350 . S
C364 C363 1.434 . S
C365 C366 1.369 . S
C365 C367 1.419 . S
C365 H369 0.930 . S
C366 C365 1.369 . S
C366 C375 1.429 . S
C367 C365 1.419 . S
C367 C368 1.363 . S
C367 H370 0.929 . S
C368 C367 1.363 . S
C368 C374 1.428 . S
H369 C365 0.930 . S
H370 C367 0.929 . S
S371 N372 1.613 . S
S371 N373 1.610 . S
N372 S371 1.613 . S
N372 C375 1.350 . S
N373 S371 1.610 . S
N373 C374 1.351 . S
C374 C368 1.428 . S
C374 N373 1.351 . S
C374 C375 1.434 . S
C375 C366 1.429 . S
C375 N372 1.350 . S
C375 C374 1.434 . S
C376 C377 1.369 . S
C376 C378 1.419 . S
C376 H380 0.930 . S
C377 C376 1.369 . S
C377 C386 1.429 . S
C378 C376 1.419 . S
C378 C379 1.363 . S
C378 H381 0.929 . S
C379 C378 1.363 . S
C379 C385 1.428 . S
H380 C376 0.930 . S
H381 C378 0.929 . S
S382 N383 1.613 . S
S382 N384 1.610 . S
N383 S382 1.613 . S
N383 C386 1.350 . S
N384 S382 1.610 . S
N384 C385 1.351 . S
C385 C379 1.428 . S
C385 N384 1.351 . S
C385 C386 1.434 . S
C386 C377 1.429 . S
C386 N383 1.350 . S
C386 C385 1.434 . S
C387 C388 1.369 . S
C387 C389 1.419 . S
C387 H391 0.930 . S
C388 C387 1.369 . S
C388 C397 1.429 . S
C389 C387 1.419 . S
C389 C390 1.363 . S
C389 H392 0.929 . S
C390 C389 1.363 . S
C390 C396 1.428 . S
H391 C387 0.930 . S
H392 C389 0.929 . S
S393 N394 1.613 . S
S393 N395 1.610 . S
N394 S393 1.613 . S
N394 C397 1.350 . S
N395 S393 1.610 . S
N395 C396 1.351 . S
C396 C390 1.428 . S
C396 N395 1.351 . S
C396 C397 1.434 . S
C397 C388 1.429 . S
C397 N394 1.350 . S
C397 C396 1.434 . S
C398 C399 1.369 . S
C398 C400 1.419 . S
C398 H402 0.930 . S
C399 C398 1.369 . S
C399 C408 1.429 . S
C400 C398 1.419 . S
C400 C401 1.363 . S
C400 H403 0.929 . S
C401 C400 1.363 . S
C401 C407 1.428 . S
H402 C398 0.930 . S
H403 C400 0.929 . S
S404 N405 1.613 . S
S404 N406 1.610 . S
N405 S404 1.613 . S
N405 C408 1.350 . S
N406 S404 1.610 . S
N406 C407 1.351 . S
C407 C401 1.428 . S
C407 N406 1.351 . S
C407 C408 1.434 . S
C408 C399 1.429 . S
C408 N405 1.350 . S
C408 C407 1.434 . S
C409 C410 1.369 . S
C409 C411 1.419 . S
C409 H413 0.930 . S
C410 C409 1.369 . S
C410 C419 1.429 . S
C411 C409 1.419 . S
C411 C412 1.363 . S
C411 H414 0.929 . S
C412 C411 1.363 . S
C412 C418 1.428 . S
H413 C409 0.930 . S
H414 C411 0.929 . S
S415 N416 1.613 . S
S415 N417 1.610 . S
N416 S415 1.613 . S
N416 C419 1.350 . S
N417 S415 1.610 . S
N417 C418 1.351 . S
C418 C412 1.428 . S
C418 N417 1.351 . S
C418 C419 1.434 . S
C419 C410 1.429 . S
C419 N416 1.350 . S
C419 C418 1.434 . S
C159 C84 1.503 . S
C157 C4 1.504 . S
C170 C87 1.502 . S
C168 C13 1.504 . S
C181 C85 1.504 . S
C179 C25 1.506 . S
C192 C86 1.502 . S
C190 C34 1.504 . S
C203 C101 1.496 . S
C201 C7 1.498 . S
C214 C115 1.505 . S
C212 C14 1.507 . S
C223 C23 1.503 . S
C225 C141 1.502 . S
C236 C155 1.506 . S
C234 C31 1.510 . S
C247 C100 1.498 . S
C245 C16 1.498 . S
C256 C22 1.510 . S
C258 C114 1.508 . S
C269 C140 1.502 . S
C267 C32 1.502 . S
C280 C154 1.505 . S
C278 C5 1.507 . S
C289 C43 1.506 . S
C291 C99 1.506 . S
C302 C72 1.506 . S
C300 C52 1.508 . S
C311 C58 1.503 . S
C313 C98 1.502 . S
C322 C68 1.505 . S
C324 C73 1.504 . S
C335 C128 1.506 . S
C333 C40 1.507 . S
C346 C142 1.502 . S
C344 C50 1.506 . S
C357 C112 1.501 . S
C355 C59 1.502 . S
C366 C70 1.502 . S
C368 C126 1.498 . S
C379 C129 1.507 . S
C377 C49 1.508 . S
C390 C143 1.497 . S
C388 C61 1.501 . S
C401 C113 1.502 . S
C399 C67 1.504 . S
C410 C41 1.506 . S
C412 C127 1.503 . S
