# Generated by pormake.
# Topology ctn, (3,4)-cn, num edge types: 1
# Building blocks:
#     Node 0, Type 0, BuildingBlock: MIDCAF_clean_linker_0, # of connection points: 3
#     Node 1, Type 0, BuildingBlock: MIDCAF_clean_linker_0, # of connection points: 3
#     Node 2, Type 0, BuildingBlock: MIDCAF_clean_linker_0, # of connection points: 3
#     Node 3, Type 0, BuildingBlock: MIDCAF_clean_linker_0, # of connection points: 3
#     Node 4, Type 0, BuildingBlock: MIDCAF_clean_linker_0, # of connection points: 3
#     Node 5, Type 0, BuildingBlock: MIDCAF_clean_linker_0, # of connection points: 3
#     Node 6, Type 0, BuildingBlock: MIDCAF_clean_linker_0, # of connection points: 3
#     Node 7, Type 0, BuildingBlock: MIDCAF_clean_linker_0, # of connection points: 3
#     Node 8, Type 0, BuildingBlock: MIDCAF_clean_linker_0, # of connection points: 3
#     Node 9, Type 0, BuildingBlock: MIDCAF_clean_linker_0, # of connection points: 3
#     Node 10, Type 0, BuildingBlock: MIDCAF_clean_linker_0, # of connection points: 3
#     Node 11, Type 0, BuildingBlock: MIDCAF_clean_linker_0, # of connection points: 3
#     Node 12, Type 0, BuildingBlock: MIDCAF_clean_linker_0, # of connection points: 3
#     Node 13, Type 0, BuildingBlock: MIDCAF_clean_linker_0, # of connection points: 3
#     Node 14, Type 0, BuildingBlock: MIDCAF_clean_linker_0, # of connection points: 3
#     Node 15, Type 0, BuildingBlock: MIDCAF_clean_linker_0, # of connection points: 3
#     Node 16, Type 1, BuildingBlock: UXUYUI_clean_sbu_0, # of connection points: 4
#     Node 17, Type 1, BuildingBlock: UXUYUI_clean_sbu_0, # of connection points: 4
#     Node 18, Type 1, BuildingBlock: UXUYUI_clean_sbu_0, # of connection points: 4
#     Node 19, Type 1, BuildingBlock: UXUYUI_clean_sbu_0, # of connection points: 4
#     Node 20, Type 1, BuildingBlock: UXUYUI_clean_sbu_0, # of connection points: 4
#     Node 21, Type 1, BuildingBlock: UXUYUI_clean_sbu_0, # of connection points: 4
#     Node 22, Type 1, BuildingBlock: UXUYUI_clean_sbu_0, # of connection points: 4
#     Node 23, Type 1, BuildingBlock: UXUYUI_clean_sbu_0, # of connection points: 4
#     Node 24, Type 1, BuildingBlock: UXUYUI_clean_sbu_0, # of connection points: 4
#     Node 25, Type 1, BuildingBlock: UXUYUI_clean_sbu_0, # of connection points: 4
#     Node 26, Type 1, BuildingBlock: UXUYUI_clean_sbu_0, # of connection points: 4
#     Node 27, Type 1, BuildingBlock: UXUYUI_clean_sbu_0, # of connection points: 4
#     Edge 28, Type (0, 1), BuildingBlock: TEMPAE_clean_linker_10, # of connection points: 2
#     Edge 29, Type (0, 1), BuildingBlock: TEMPAE_clean_linker_10, # of connection points: 2
#     Edge 30, Type (0, 1), BuildingBlock: TEMPAE_clean_linker_10, # of connection points: 2
#     Edge 31, Type (0, 1), BuildingBlock: TEMPAE_clean_linker_10, # of connection points: 2
#     Edge 32, Type (0, 1), BuildingBlock: TEMPAE_clean_linker_10, # of connection points: 2
#     Edge 33, Type (0, 1), BuildingBlock: TEMPAE_clean_linker_10, # of connection points: 2
#     Edge 34, Type (0, 1), BuildingBlock: TEMPAE_clean_linker_10, # of connection points: 2
#     Edge 35, Type (0, 1), BuildingBlock: TEMPAE_clean_linker_10, # of connection points: 2
#     Edge 36, Type (0, 1), BuildingBlock: TEMPAE_clean_linker_10, # of connection points: 2
#     Edge 37, Type (0, 1), BuildingBlock: TEMPAE_clean_linker_10, # of connection points: 2
#     Edge 38, Type (0, 1), BuildingBlock: TEMPAE_clean_linker_10, # of connection points: 2
#     Edge 39, Type (0, 1), BuildingBlock: TEMPAE_clean_linker_10, # of connection points: 2
#     Edge 40, Type (0, 1), BuildingBlock: TEMPAE_clean_linker_10, # of connection points: 2
#     Edge 41, Type (0, 1), BuildingBlock: TEMPAE_clean_linker_10, # of connection points: 2
#     Edge 42, Type (0, 1), BuildingBlock: TEMPAE_clean_linker_10, # of connection points: 2
#     Edge 43, Type (0, 1), BuildingBlock: TEMPAE_clean_linker_10, # of connection points: 2
#     Edge 44, Type (0, 1), BuildingBlock: TEMPAE_clean_linker_10, # of connection points: 2
#     Edge 45, Type (0, 1), BuildingBlock: TEMPAE_clean_linker_10, # of connection points: 2
#     Edge 46, Type (0, 1), BuildingBlock: TEMPAE_clean_linker_10, # of connection points: 2
#     Edge 47, Type (0, 1), BuildingBlock: TEMPAE_clean_linker_10, # of connection points: 2
#     Edge 48, Type (0, 1), BuildingBlock: TEMPAE_clean_linker_10, # of connection points: 2
#     Edge 49, Type (0, 1), BuildingBlock: TEMPAE_clean_linker_10, # of connection points: 2
#     Edge 50, Type (0, 1), BuildingBlock: TEMPAE_clean_linker_10, # of connection points: 2
#     Edge 51, Type (0, 1), BuildingBlock: TEMPAE_clean_linker_10, # of connection points: 2
#     Edge 52, Type (0, 1), BuildingBlock: TEMPAE_clean_linker_10, # of connection points: 2
#     Edge 53, Type (0, 1), BuildingBlock: TEMPAE_clean_linker_10, # of connection points: 2
#     Edge 54, Type (0, 1), BuildingBlock: TEMPAE_clean_linker_10, # of connection points: 2
#     Edge 55, Type (0, 1), BuildingBlock: TEMPAE_clean_linker_10, # of connection points: 2
#     Edge 56, Type (0, 1), BuildingBlock: TEMPAE_clean_linker_10, # of connection points: 2
#     Edge 57, Type (0, 1), BuildingBlock: TEMPAE_clean_linker_10, # of connection points: 2
#     Edge 58, Type (0, 1), BuildingBlock: TEMPAE_clean_linker_10, # of connection points: 2
#     Edge 59, Type (0, 1), BuildingBlock: TEMPAE_clean_linker_10, # of connection points: 2
#     Edge 60, Type (0, 1), BuildingBlock: TEMPAE_clean_linker_10, # of connection points: 2
#     Edge 61, Type (0, 1), BuildingBlock: TEMPAE_clean_linker_10, # of connection points: 2
#     Edge 62, Type (0, 1), BuildingBlock: TEMPAE_clean_linker_10, # of connection points: 2
#     Edge 63, Type (0, 1), BuildingBlock: TEMPAE_clean_linker_10, # of connection points: 2
#     Edge 64, Type (0, 1), BuildingBlock: TEMPAE_clean_linker_10, # of connection points: 2
#     Edge 65, Type (0, 1), BuildingBlock: TEMPAE_clean_linker_10, # of connection points: 2
#     Edge 66, Type (0, 1), BuildingBlock: TEMPAE_clean_linker_10, # of connection points: 2
#     Edge 67, Type (0, 1), BuildingBlock: TEMPAE_clean_linker_10, # of connection points: 2
#     Edge 68, Type (0, 1), BuildingBlock: TEMPAE_clean_linker_10, # of connection points: 2
#     Edge 69, Type (0, 1), BuildingBlock: TEMPAE_clean_linker_10, # of connection points: 2
#     Edge 70, Type (0, 1), BuildingBlock: TEMPAE_clean_linker_10, # of connection points: 2
#     Edge 71, Type (0, 1), BuildingBlock: TEMPAE_clean_linker_10, # of connection points: 2
#     Edge 72, Type (0, 1), BuildingBlock: TEMPAE_clean_linker_10, # of connection points: 2
#     Edge 73, Type (0, 1), BuildingBlock: TEMPAE_clean_linker_10, # of connection points: 2
#     Edge 74, Type (0, 1), BuildingBlock: TEMPAE_clean_linker_10, # of connection points: 2
#     Edge 75, Type (0, 1), BuildingBlock: TEMPAE_clean_linker_10, # of connection points: 2
# Relax obj value: 0.000
# Max RMSD: 0.004
# Mean RMSD: 0.003
data_MOF--net-ctn--node1-UXUYUI_clean_sbu_0--node2-MIDCAF_clean_linker_0--edge1-TEMPAE_clean_linker_10
_symmetry_space_group_name_H-M    P1
_symmetry_Int_Tables_number       1
_symmetry_cell_setting            triclinic
loop_
_symmetry_equiv_pos_as_xyz
'x, y, z'
_cell_length_a     81.315199
_cell_length_b     81.318214
_cell_length_c     81.312177
_cell_angle_alpha  90.036552
_cell_angle_beta   90.034289
_cell_angle_gamma 90.09066
loop_
_atom_site_label
_atom_site_type_symbol
_atom_site_fract_x
_atom_site_fract_y
_atom_site_fract_z
_atom_type_partial_charge
C0 C 0.99128 0.03926 0.07897 0.0
C1 C 0.99489 0.02727 0.09087 0.0
C2 C 0.00909 0.01764 0.08897 0.0
C3 C 0.01947 0.01994 0.07546 0.0
H4 H 0.05947 1.00006 0.05256 0.0
H5 H 0.08273 0.98175 0.04829 0.0
H6 H 0.09687 0.00958 0.00533 0.0
H7 H 0.07347 0.02777 0.00936 0.0
H8 H 0.05343 0.05881 0.99922 0.0
H9 H 0.04912 0.08196 0.98076 0.0
H10 H 0.00572 0.09572 0.00805 0.0
H11 H 0.00981 0.07243 0.02642 0.0
H12 H 0.99855 0.05103 0.05662 0.0
H13 H 0.9805 0.04698 0.08019 0.0
H14 H 0.0121 0.00818 0.09784 0.0
H15 H 0.03029 0.01227 0.07442 0.0
N16 N 0.04003 0.02434 0.04683 0.0
N17 N 0.04763 0.03937 0.02345 0.0
N18 N 0.02449 0.04721 0.03873 0.0
C19 C 0.05037 0.02664 0.03391 0.0
C20 C 0.03472 0.04971 0.02576 0.0
C21 C 0.02706 0.03455 0.04934 0.0
C22 C 0.06454 0.01544 0.03131 0.0
C23 C 0.06749 0.00231 0.04218 0.0
C24 C 0.0809 0.99184 0.03979 0.0
C25 C 0.09166 0.99422 0.02649 0.0
C26 C 0.08869 0.0073 0.01559 0.0
C27 C 0.0753 0.01778 0.01797 0.0
C28 C 0.03199 0.06371 0.01437 0.0
C29 C 0.04293 0.06672 0.00131 0.0
C30 C 0.04053 0.08006 0.99075 0.0
C31 C 0.02711 0.0907 0.99297 0.0
C32 C 0.01609 0.08764 0.00592 0.0
C33 C 0.0185 0.07432 0.01651 0.0
C34 C 0.01593 0.032 0.06358 0.0
C35 C 0.00169 0.04163 0.0655 0.0
C36 C 0.259 0.6626 0.23578 0.0
C37 C 0.24478 0.6606 0.22616 0.0
C38 C 0.2411 0.67246 0.21415 0.0
C39 C 0.25145 0.686 0.21178 0.0
H40 H 0.25966 0.72446 0.1805 0.0
H41 H 0.2552 0.74279 0.15728 0.0
H42 H 0.29655 0.77246 0.17265 0.0
H43 H 0.30127 0.754 0.19572 0.0
H44 H 0.32089 0.74449 0.22762 0.0
H45 H 0.34426 0.74883 0.24583 0.0
H46 H 0.33489 0.70196 0.26902 0.0
H47 H 0.31127 0.69775 0.25112 0.0
H48 H 0.28015 0.6773 0.24114 0.0
H49 H 0.26206 0.65375 0.24525 0.0
H50 H 0.23032 0.67117 0.20643 0.0
H51 H 0.24824 0.69485 0.20237 0.0
N52 N 0.27387 0.71308 0.20636 0.0
N53 N 0.29686 0.72865 0.21419 0.0
N54 N 0.28974 0.70497 0.22901 0.0
C55 C 0.28389 0.72624 0.20391 0.0
C56 C 0.29988 0.71808 0.22677 0.0
C57 C 0.27669 0.70239 0.21888 0.0
C58 C 0.28087 0.73768 0.19001 0.0
C59 C 0.26781 0.7349 0.17899 0.0
C60 C 0.26518 0.74546 0.1657 0.0
C61 C 0.27552 0.75908 0.1631 0.0
C62 C 0.28849 0.76195 0.17418 0.0
C63 C 0.29113 0.75139 0.18748 0.0
C64 C 0.31414 0.72076 0.23787 0.0
C65 C 0.32377 0.73509 0.2366 0.0
C66 C 0.33725 0.73756 0.24699 0.0
C67 C 0.34148 0.72574 0.25888 0.0
C68 C 0.33184 0.71143 0.26016 0.0
C69 C 0.31833 0.70898 0.24982 0.0
C70 C 0.26569 0.68803 0.22141 0.0
C71 C 0.26932 0.67617 0.23347 0.0
C72 C 0.97876 0.40915 0.01338 0.0
C73 C 0.97511 0.40981 0.99645 0.0
C74 C 0.96867 0.42453 0.98998 0.0
C75 C 0.96581 0.43809 1.00016 0.0
H76 H 0.92597 0.4711 0.0135 0.0
H77 H 0.90278 0.48946 0.00867 0.0
H78 H 0.92368 0.52483 0.04235 0.0
H79 H 0.94692 0.50651 0.04727 0.0
H80 H 0.97178 0.49137 0.07477 0.0
H81 H 0.98983 0.4959 0.0983 0.0
H82 H 0.0197 0.45467 0.08335 0.0
H83 H 0.00185 0.45018 0.05974 0.0
H84 H 0.97924 0.42193 0.03641 0.0
H85 H 0.98336 0.39799 0.01896 0.0
H86 H 0.96602 0.42572 0.97699 0.0
H87 H 0.96088 0.44923 0.99479 0.0
N88 N 0.95472 0.46264 0.02433 0.0
N89 N 0.96208 0.47833 0.04742 0.0
N90 N 0.97676 0.45439 0.04099 0.0
C91 C 0.95212 0.47588 0.03419 0.0
C92 C 0.97445 0.46765 0.05089 0.0
C93 C 0.967 0.45185 0.02767 0.0
C94 C 0.93832 0.4873 0.03081 0.0
C95 C 0.92571 0.48282 0.01984 0.0
C96 C 0.91236 0.49328 0.01712 0.0
C97 C 0.91143 0.50854 0.02517 0.0
C98 C 0.92415 0.51318 0.03591 0.0
C99 C 0.93741 0.50263 0.03878 0.0
C100 C 0.98533 0.4704 0.0653 0.0
C101 C 0.9822 0.48326 0.07645 0.0
C102 C 0.99249 0.48582 0.09 0.0
C103 C 0.00619 0.47565 0.09266 0.0
C104 C 0.00934 0.46283 0.08152 0.0
C105 C 0.99902 0.46021 0.06803 0.0
C106 C 0.96971 0.43742 0.01696 0.0
C107 C 0.97628 0.42285 0.02345 0.0
C108 C 0.73658 0.75631 0.16333 0.0
C109 C 0.72453 0.745 0.15824 0.0
C110 C 0.70958 0.74425 0.16684 0.0
C111 C 0.7067 0.75462 0.18024 0.0
H112 H 0.68185 0.75663 0.22623 0.0
H113 H 0.65824 0.75194 0.24421 0.0
H114 H 0.6599 0.80267 0.25971 0.0
H115 H 0.6836 0.80744 0.24188 0.0
H116 H 0.72139 0.82284 0.24036 0.0
H117 H 0.73945 0.84617 0.24539 0.0
H118 H 0.76597 0.83535 0.20067 0.0
H119 H 0.74819 0.81174 0.19579 0.0
H120 H 0.74316 0.77547 0.18014 0.0
H121 H 0.74817 0.75723 0.15684 0.0
H122 H 0.70013 0.73553 0.16328 0.0
H123 H 0.69501 0.75372 0.18655 0.0
N124 N 0.70225 0.77484 0.20919 0.0
N125 N 0.70908 0.79835 0.22445 0.0
N126 N 0.72541 0.7905 0.20203 0.0
C127 C 0.69901 0.78527 0.22183 0.0
C128 C 0.72234 0.80104 0.21464 0.0
C129 C 0.71541 0.77738 0.1992 0.0
C130 C 0.68462 0.78241 0.23263 0.0
C131 C 0.67718 0.76681 0.23344 0.0
C132 C 0.66372 0.76408 0.24378 0.0
C133 C 0.65728 0.77695 0.2533 0.0
C134 C 0.66459 0.79258 0.25239 0.0
C135 C 0.6782 0.79526 0.24226 0.0
C136 C 0.7333 0.81535 0.21766 0.0
C137 C 0.73106 0.82539 0.23157 0.0
C138 C 0.74138 0.83885 0.23443 0.0
C139 C 0.75416 0.84266 0.22343 0.0
C140 C 0.7564 0.83263 0.20951 0.0
C141 C 0.74612 0.81913 0.20668 0.0
C142 C 0.71866 0.76611 0.18524 0.0
C143 C 0.73365 0.76682 0.17663 0.0
C144 C 0.03795 0.92127 0.50831 0.0
C145 C 0.02344 0.91192 0.50711 0.0
C146 C 0.01156 0.91646 0.4954 0.0
C147 C 0.01415 0.92997 0.4851 0.0
H148 H 0.99858 0.95012 0.44117 0.0
H149 H 0.9807 0.95483 0.41765 0.0
H150 H 0.00436 0.00165 0.40905 0.0
H151 H 0.02258 0.99678 0.43229 0.0
H152 H 0.05463 0.00574 0.45191 0.0
H153 H 0.07841 0.0235 0.45616 0.0
H154 H 0.09575 0.99125 0.49458 0.0
H155 H 0.0721 0.97332 0.49026 0.0
H156 H 0.05188 0.94169 0.49931 0.0
H157 H 0.04748 0.91798 0.51701 0.0
H158 H 1.00013 0.90968 0.49431 0.0
H159 H 0.00469 0.93311 0.47627 0.0
N160 N 0.02095 0.95681 0.46271 0.0
N161 N 0.03646 0.98 0.45538 0.0
N162 N 0.04446 0.96387 0.47788 0.0
C163 C 0.02339 0.96992 0.45265 0.0
C164 C 0.04706 0.97707 0.46796 0.0
C165 C 0.03141 0.95371 0.47538 0.0
C166 C 0.0121 0.97304 0.43864 0.0
C167 C 0.99998 0.96145 0.43431 0.0
C168 C 0.98964 0.96419 0.42085 0.0
C169 C 0.99109 0.97861 0.41143 0.0
C170 C 0.00308 0.99029 0.41587 0.0
C171 C 0.01347 0.98752 0.42928 0.0
C172 C 0.06141 0.98804 0.47072 0.0
C173 C 0.06348 0.00239 0.46128 0.0
C174 C 0.07707 0.01265 0.46377 0.0
C175 C 0.08895 0.00877 0.4757 0.0
C176 C 0.08689 0.99446 0.48517 0.0
C177 C 0.07327 0.98424 0.48274 0.0
C178 C 0.02865 0.93935 0.48631 0.0
C179 C 0.04051 0.93484 0.49807 0.0
C180 C 0.23702 0.7445 0.83752 0.0
C181 C 0.22673 0.75806 0.8405 0.0
C182 C 0.21366 0.76113 0.82962 0.0
C183 C 0.2109 0.75087 0.8161 0.0
H184 H 0.1827 0.74656 0.77449 0.0
H185 H 0.15952 0.75187 0.75633 0.0
H186 H 0.16682 0.70467 0.73303 0.0
H187 H 0.19029 0.69952 0.75086 0.0
H188 H 0.22513 0.68198 0.75663 0.0
H189 H 0.24271 0.65818 0.75202 0.0
H190 H 0.26701 0.66708 0.79841 0.0
H191 H 0.24938 0.69081 0.80318 0.0
H192 H 0.24246 0.72392 0.8221 0.0
H193 H 0.24732 0.74192 0.84556 0.0
H194 H 0.20538 0.77134 0.83169 0.0
H195 H 0.20065 0.7536 0.80805 0.0
N196 N 0.20543 0.72933 0.78839 0.0
N197 N 0.21232 0.70606 0.77284 0.0
N198 N 0.22786 0.713 0.79614 0.0
C199 C 0.20243 0.71928 0.77537 0.0
C200 C 0.22507 0.70283 0.78315 0.0
C201 C 0.2181 0.72628 0.79885 0.0
C202 C 0.1884 0.7226 0.76418 0.0
C203 C 0.17941 0.7373 0.76549 0.0
C204 C 0.16604 0.74032 0.75512 0.0
C205 C 0.16126 0.72868 0.74324 0.0
C206 C 0.1703 0.71401 0.74188 0.0
C207 C 0.18373 0.71102 0.75219 0.0
C208 C 0.2358 0.68836 0.78029 0.0
C209 C 0.23419 0.67889 0.76588 0.0
C210 C 0.24433 0.66529 0.76318 0.0
C211 C 0.25623 0.66077 0.77485 0.0
C212 C 0.25783 0.67017 0.78927 0.0
C213 C 0.24777 0.68384 0.79194 0.0
C214 C 0.22115 0.73727 0.81312 0.0
C215 C 0.23427 0.73423 0.82399 0.0
C216 C 0.98544 0.58905 0.49383 0.0
C217 C 0.97517 0.59167 0.50747 0.0
C218 C 0.96254 0.58032 0.51071 0.0
C219 C 0.96019 0.56667 0.5005 0.0
H220 H 0.92762 0.52927 0.49077 0.0
H221 H 0.90435 0.51088 0.49513 0.0
H222 H 0.92262 0.47853 0.45721 0.0
H223 H 0.94601 0.49677 0.45289 0.0
H224 H 0.97513 0.50863 0.43039 0.0
H225 H 0.99354 0.50416 0.40721 0.0
H226 H 0.021 0.54768 0.42054 0.0
H227 H 0.00283 0.55206 0.44389 0.0
H228 H 0.99132 0.57378 0.47327 0.0
H229 H 0.99541 0.59748 0.49112 0.0
H230 H 0.95432 0.58209 0.52103 0.0
H231 H 0.95029 0.55822 0.50336 0.0
N232 N 0.9552 0.53908 0.47857 0.0
N233 N 0.96333 0.5232 0.45591 0.0
N234 N 0.97834 0.54674 0.46317 0.0
C235 C 0.9528 0.52585 0.46861 0.0
C236 C 0.97613 0.53358 0.4531 0.0
C237 C 0.96796 0.54957 0.47595 0.0
C238 C 0.93873 0.51455 0.47145 0.0
C239 C 0.92674 0.51823 0.48337 0.0
C240 C 0.91334 0.50774 0.48582 0.0
C241 C 0.91164 0.49328 0.47649 0.0
C242 C 0.92368 0.48951 0.46469 0.0
C243 C 0.93704 0.50004 0.46217 0.0
C244 C 0.98744 0.53072 0.43906 0.0
C245 C 0.9851 0.51725 0.42844 0.0
C246 C 0.9956 0.51472 0.41508 0.0
C247 C 0.00871 0.52558 0.41201 0.0
C248 C 0.01113 0.53898 0.42267 0.0
C249 C 0.00063 0.54153 0.43602 0.0
C250 C 0.97046 0.56403 0.48683 0.0
C251 C 0.98314 0.57539 0.48365 0.0
C252 C 0.83671 0.76585 0.75477 0.0
C253 C 0.84074 0.77772 0.74287 0.0
C254 C 0.83095 0.79191 0.74166 0.0
C255 C 0.81748 0.79417 0.75209 0.0
H256 H 0.77372 0.82004 0.7561 0.0
H257 H 0.75518 0.84319 0.75185 0.0
H258 H 0.73327 0.8345 0.7994 0.0
H259 H 0.75181 0.81138 0.80379 0.0
H260 H 0.75711 0.77463 0.81881 0.0
H261 H 0.75317 0.75643 0.8423 0.0
H262 H 0.80127 0.73553 0.83426 0.0
H263 H 0.80533 0.75374 0.81078 0.0
H264 H 0.82058 0.75871 0.77427 0.0
H265 H 0.84382 0.75465 0.75588 0.0
H266 H 0.83383 0.80143 0.7328 0.0
H267 H 0.8103 0.80531 0.75084 0.0
N268 N 0.7887 0.79746 0.77277 0.0
N269 N 0.77352 0.78954 0.79597 0.0
N270 N 0.79693 0.77461 0.78828 0.0
C271 C 0.77576 0.7999 0.78305 0.0
C272 C 0.78404 0.77686 0.79867 0.0
C273 C 0.79935 0.78484 0.77529 0.0
C274 C 0.76431 0.81382 0.78031 0.0
C275 C 0.76496 0.82303 0.76567 0.0
C276 C 0.75428 0.83624 0.76317 0.0
C277 C 0.7428 0.84065 0.7753 0.0
C278 C 0.7421 0.83147 0.78991 0.0
C279 C 0.75268 0.81816 0.79236 0.0
C280 C 0.78156 0.76569 0.81287 0.0
C281 C 0.76688 0.76618 0.82201 0.0
C282 C 0.76456 0.75569 0.83543 0.0
C283 C 0.77692 0.74458 0.8401 0.0
C284 C 0.79159 0.74408 0.83102 0.0
C285 C 0.79386 0.75446 0.81751 0.0
C286 C 0.81352 0.78235 0.76407 0.0
C287 C 0.8233 0.76815 0.76528 0.0
C288 C 0.33684 0.26369 0.25456 0.0
C289 C 0.34177 0.27603 0.24348 0.0
C290 C 0.33276 0.29077 0.24294 0.0
C291 C 0.31916 0.2931 0.25316 0.0
H292 H 0.27845 0.32239 0.25884 0.0
H293 H 0.26017 0.34566 0.25447 0.0
H294 H 0.2314 0.33105 0.29665 0.0
H295 H 0.24944 0.30759 0.3009 0.0
H296 H 0.25868 0.276 0.32045 0.0
H297 H 0.25393 0.25754 0.3435 0.0
H298 H 0.29739 0.23 0.33048 0.0
H299 H 0.30205 0.24824 0.30721 0.0
H300 H 0.31986 0.25627 0.27321 0.0
H301 H 0.34332 0.25208 0.25513 0.0
H302 H 0.33636 0.30064 0.23476 0.0
H303 H 0.31259 0.30465 0.25244 0.0
N304 N 0.28971 0.29634 0.2729 0.0
N305 N 0.27375 0.28814 0.29544 0.0
N306 N 0.29689 0.27277 0.28784 0.0
C307 C 0.27657 0.29882 0.28291 0.0
C308 C 0.28384 0.27509 0.29802 0.0
C309 C 0.29992 0.28334 0.27526 0.0
C310 C 0.26546 0.31305 0.28023 0.0
C311 C 0.26823 0.32409 0.2672 0.0
C312 C 0.2578 0.3375 0.26473 0.0
C313 C 0.24433 0.34022 0.27522 0.0
C314 C 0.24154 0.32919 0.28822 0.0
C315 C 0.25197 0.31577 0.29071 0.0
C316 C 0.28078 0.26367 0.31193 0.0
C317 C 0.26724 0.266 0.32243 0.0
C318 C 0.26454 0.25546 0.33573 0.0
C319 C 0.2753 0.24232 0.33886 0.0
C320 C 0.28876 0.23989 0.3283 0.0
C321 C 0.29147 0.25043 0.31499 0.0
C322 C 0.31428 0.28079 0.2643 0.0
C323 C 0.3233 0.26606 0.26488 0.0
C324 C 0.48525 0.91339 0.50741 0.0
C325 C 0.47631 0.91184 0.49268 0.0
C326 C 0.46494 0.92417 0.48853 0.0
C327 C 0.46244 0.93762 0.49893 0.0
H328 H 0.43046 0.97559 0.50729 0.0
H329 H 0.40713 0.99376 0.50277 0.0
H330 H 0.4196 0.02081 0.54678 0.0
H331 H 0.44313 0.00289 0.55121 0.0
H332 H 0.47235 0.9912 0.57332 0.0
H333 H 0.49023 0.9954 0.597 0.0
H334 H 0.52156 0.95591 0.58041 0.0
H335 H 0.50384 0.95175 0.5566 0.0
H336 H 0.48984 0.92758 0.52907 0.0
H337 H 0.49394 0.90402 0.51111 0.0
H338 H 0.45803 0.9235 0.47715 0.0
H339 H 0.45355 0.94686 0.49533 0.0
N340 N 0.45572 0.96372 0.5222 0.0
N341 N 0.4629 0.97883 0.5457 0.0
N342 N 0.4784 0.95576 0.53811 0.0
C343 C 0.45283 0.97653 0.53254 0.0
C344 C 0.47573 0.96853 0.54856 0.0
C345 C 0.46846 0.95326 0.5249 0.0
C346 C 0.43872 0.98772 0.52964 0.0
C347 C 0.42829 0.98542 0.51602 0.0
C348 C 0.41484 0.99579 0.51345 0.0
C349 C 0.41148 0.00871 0.52443 0.0
C350 C 0.42196 0.01109 0.53798 0.0
C351 C 0.43541 0.00073 0.54056 0.0
C352 C 0.48662 0.97112 0.563 0.0
C353 C 0.48305 0.9834 0.57466 0.0
C354 C 0.49325 0.98576 0.58831 0.0
C355 C 0.50729 0.97598 0.59058 0.0
C356 C 0.51091 0.96376 0.57891 0.0
C357 C 0.50068 0.96133 0.5653 0.0
C358 C 0.47132 0.93914 0.51371 0.0
C359 C 0.48283 0.92689 0.51777 0.0
C360 C 0.23691 0.25687 0.66348 0.0
C361 C 0.22686 0.24297 0.66122 0.0
C362 C 0.21423 0.23989 0.67261 0.0
C363 C 0.21157 0.25056 0.68582 0.0
H364 H 0.18721 0.25557 0.73221 0.0
H365 H 0.16338 0.25148 0.75017 0.0
H366 H 0.16081 0.30376 0.75874 0.0
H367 H 0.18485 0.30792 0.74112 0.0
H368 H 0.22576 0.32183 0.74231 0.0
H369 H 0.24402 0.34516 0.74657 0.0
H370 H 0.26726 0.33556 0.69977 0.0
H371 H 0.24935 0.3119 0.69571 0.0
H372 H 0.24216 0.27822 0.67791 0.0
H373 H 0.24664 0.2597 0.65482 0.0
H374 H 0.20641 0.22916 0.67135 0.0
H375 H 0.20167 0.24781 0.69428 0.0
N376 N 0.20544 0.27377 0.71205 0.0
N377 N 0.2121 0.29795 0.72634 0.0
N378 N 0.22814 0.2896 0.7039 0.0
C379 C 0.20221 0.28461 0.72434 0.0
C380 C 0.22516 0.30049 0.71623 0.0
C381 C 0.21835 0.27621 0.70171 0.0
C382 C 0.1879 0.28207 0.73527 0.0
C383 C 0.18158 0.26619 0.73795 0.0
C384 C 0.16802 0.26382 0.74825 0.0
C385 C 0.16033 0.27732 0.75575 0.0
C386 C 0.16654 0.29319 0.75301 0.0
C387 C 0.18032 0.29554 0.74301 0.0
C388 C 0.23607 0.31493 0.71867 0.0
C389 C 0.23474 0.32468 0.7329 0.0
C390 C 0.24517 0.33814 0.73531 0.0
C391 C 0.25712 0.34227 0.72352 0.0
C392 C 0.25838 0.33259 0.70924 0.0
C393 C 0.24802 0.31905 0.70687 0.0
C394 C 0.2215 0.26459 0.68798 0.0
C395 C 0.23428 0.26755 0.67669 0.0
C396 C 0.75841 0.16425 0.73767 0.0
C397 C 0.74604 0.16014 0.7263 0.0
C398 C 0.74411 0.16995 0.7122 0.0
C399 C 0.75431 0.18353 0.70952 0.0
H400 H 0.76201 0.2219 0.67781 0.0
H401 H 0.75759 0.23972 0.65419 0.0
H402 H 0.79732 0.27113 0.67038 0.0
H403 H 0.80202 0.25317 0.69383 0.0
H404 H 0.8243 0.24203 0.72332 0.0
H405 H 0.84747 0.24691 0.74171 0.0
H406 H 0.83217 0.20598 0.77188 0.0
H407 H 0.80887 0.20118 0.75371 0.0
H408 H 0.77802 0.18058 0.74403 0.0
H409 H 0.76009 0.15709 0.74877 0.0
H410 H 0.73484 0.16699 0.70309 0.0
H411 H 0.7525 0.19073 0.69847 0.0
N412 N 0.7752 0.21201 0.70486 0.0
N413 N 0.79794 0.22801 0.71258 0.0
N414 N 0.79046 0.20505 0.7283 0.0
C415 C 0.78524 0.2251 0.7021 0.0
C416 C 0.80065 0.21805 0.72571 0.0
C417 C 0.77771 0.20193 0.71795 0.0
C418 C 0.7824 0.23604 0.68777 0.0
C419 C 0.76983 0.2326 0.67638 0.0
C420 C 0.76722 0.24287 0.66285 0.0
C421 C 0.7771 0.25686 0.66039 0.0
C422 C 0.78963 0.26034 0.67179 0.0
C423 C 0.79227 0.25005 0.6853 0.0
C424 C 0.81467 0.22119 0.73699 0.0
C425 C 0.82581 0.23407 0.73389 0.0
C426 C 0.83917 0.23683 0.74438 0.0
C427 C 0.84166 0.22682 0.75824 0.0
C428 C 0.83048 0.21403 0.76141 0.0
C429 C 0.81716 0.21123 0.75091 0.0
C430 C 0.76675 0.18761 0.72086 0.0
C431 C 0.76865 0.1778 0.73498 0.0
C432 C 0.49179 0.53821 0.58136 0.0
C433 C 0.4932 0.52393 0.59096 0.0
C434 C 0.50516 0.5122 0.58676 0.0
C435 C 0.51559 0.51478 0.57335 0.0
H436 H 0.55845 0.49805 0.55277 0.0
H437 H 0.58196 0.48007 0.54836 0.0
H438 H 0.59534 0.50796 0.50521 0.0
H439 H 0.57172 0.52584 0.50939 0.0
H440 H 0.5533 0.55914 0.50191 0.0
H441 H 0.54885 0.58268 0.48401 0.0
H442 H 0.5021 0.59175 0.50752 0.0
H443 H 0.5067 0.56849 0.52574 0.0
H444 H 0.50069 0.55193 0.56078 0.0
H445 H 0.48256 0.54739 0.58419 0.0
H446 H 0.50664 0.50114 0.59403 0.0
H447 H 0.52474 0.50553 0.57054 0.0
N448 N 0.53843 0.52183 0.54694 0.0
N449 N 0.54616 0.53747 0.52399 0.0
N450 N 0.52291 0.54487 0.53931 0.0
C451 C 0.54886 0.52449 0.53416 0.0
C452 C 0.5332 0.54771 0.52646 0.0
C453 C 0.52542 0.53197 0.54962 0.0
C454 C 0.56314 0.51345 0.53144 0.0
C455 C 0.56636 0.50038 0.54231 0.0
C456 C 0.5799 0.4901 0.53985 0.0
C457 C 0.59053 0.49261 0.52645 0.0
C458 C 0.58728 0.5056 0.51554 0.0
C459 C 0.57376 0.51591 0.51801 0.0
C460 C 0.53038 0.56189 0.51533 0.0
C461 C 0.54205 0.56612 0.50328 0.0
C462 C 0.53946 0.57959 0.49293 0.0
C463 C 0.52512 0.58912 0.49431 0.0
C464 C 0.5134 0.58483 0.50628 0.0
C465 C 0.51602 0.57142 0.51669 0.0
C466 C 0.51423 0.52911 0.56374 0.0
C467 C 0.50213 0.54075 0.56788 0.0
C468 C 0.53822 0.42233 0.01109 0.0
C469 C 0.52759 0.40948 0.00643 0.0
C470 C 0.51952 0.4105 0.99115 0.0
C471 C 0.52197 0.42403 0.98084 0.0
H472 H 0.49974 0.44969 0.94306 0.0
H473 H 0.48147 0.45439 0.91982 0.0
H474 H 0.51198 0.49495 0.90404 0.0
H475 H 0.53007 0.49054 0.92746 0.0
H476 H 0.55627 0.50492 0.95339 0.0
H477 H 0.57946 0.52329 0.95802 0.0
H478 H 0.60065 0.48806 0.99167 0.0
H479 H 0.57718 0.46994 0.98748 0.0
H480 H 0.54904 0.44546 0.00474 0.0
H481 H 0.54442 0.42212 0.02287 0.0
H482 H 0.51147 0.40071 0.98701 0.0
H483 H 0.51561 0.42433 0.96914 0.0
N484 N 0.52521 0.45382 0.9615 0.0
N485 N 0.54039 0.47725 0.95428 0.0
N486 N 0.54816 0.46157 0.97718 0.0
C487 C 0.52759 0.46688 0.95136 0.0
C488 C 0.55074 0.47468 0.96714 0.0
C489 C 0.5354 0.45109 0.97446 0.0
C490 C 0.51642 0.46973 0.93719 0.0
C491 C 0.50259 0.45963 0.93466 0.0
C492 C 0.49213 0.46226 0.92127 0.0
C493 C 0.49526 0.47503 0.91005 0.0
C494 C 0.50908 0.48514 0.91257 0.0
C495 C 0.51952 0.48254 0.92598 0.0
C496 C 0.56483 0.48593 0.97006 0.0
C497 C 0.56585 0.50108 0.9618 0.0
C498 C 0.57922 0.5116 0.96439 0.0
C499 C 0.59199 0.50716 0.97518 0.0
C500 C 0.59094 0.49201 0.98346 0.0
C501 C 0.57749 0.48156 0.98099 0.0
C502 C 0.53269 0.43681 0.98547 0.0
C503 C 0.5408 0.43578 0.00071 0.0
C504 C 0.73799 0.24615 0.33554 0.0
C505 C 0.72646 0.25843 0.33933 0.0
C506 C 0.71248 0.26012 0.32932 0.0
C507 C 0.71006 0.24974 0.31582 0.0
H508 H 0.68297 0.24516 0.2731 0.0
H509 H 0.65963 0.2495 0.25489 0.0
H510 H 0.66807 0.20202 0.23257 0.0
H511 H 0.69172 0.19786 0.25043 0.0
H512 H 0.72847 0.18274 0.25538 0.0
H513 H 0.74662 0.15926 0.25119 0.0
H514 H 0.76821 0.16733 0.29903 0.0
H515 H 0.75008 0.19078 0.30335 0.0
H516 H 0.74465 0.22633 0.31962 0.0
H517 H 0.74881 0.24445 0.34314 0.0
H518 H 0.70347 0.26959 0.33183 0.0
H519 H 0.69914 0.25142 0.30839 0.0
N520 N 0.70606 0.22868 0.28742 0.0
N521 N 0.71376 0.20554 0.27205 0.0
N522 N 0.72906 0.21322 0.29528 0.0
C523 C 0.70341 0.21843 0.27447 0.0
C524 C 0.72662 0.20286 0.28238 0.0
C525 C 0.71885 0.22618 0.29788 0.0
C526 C 0.68926 0.22115 0.26327 0.0
C527 C 0.67989 0.23563 0.2643 0.0
C528 C 0.66643 0.2381 0.25391 0.0
C529 C 0.66192 0.22609 0.24228 0.0
C530 C 0.67132 0.21163 0.24121 0.0
C531 C 0.68486 0.20921 0.25153 0.0
C532 C 0.73777 0.18868 0.27972 0.0
C533 C 0.73707 0.17955 0.26503 0.0
C534 C 0.74753 0.16614 0.26257 0.0
C535 C 0.75881 0.16147 0.27479 0.0
C536 C 0.75953 0.17057 0.28946 0.0
C537 C 0.74918 0.18406 0.29188 0.0
C538 C 0.72153 0.23736 0.31207 0.0
C539 C 0.73554 0.23571 0.3221 0.0
C540 C 0.48386 0.08958 0.99158 0.0
C541 C 0.47567 0.09064 0.00678 0.0
C542 C 0.46511 0.07775 0.01143 0.0
C543 C 0.46272 0.06419 0.00112 0.0
H544 H 0.42894 0.02753 0.99081 0.0
H545 H 0.40571 0.00915 0.99513 0.0
H546 H 0.42384 0.97708 0.95686 0.0
H547 H 0.44687 0.99564 0.95221 0.0
H548 H 0.47732 0.00633 0.93122 0.0
H549 H 0.49534 0.00201 0.90769 0.0
H550 H 0.51879 0.04879 0.91694 0.0
H551 H 0.50069 0.05328 0.94038 0.0
H552 H 0.48805 0.07561 0.96969 0.0
H553 H 0.49188 0.09939 0.98747 0.0
H554 H 0.45881 0.07801 0.02316 0.0
H555 H 0.45453 0.05449 0.00515 0.0
N556 N 0.45603 0.0379 0.97798 0.0
N557 N 0.46393 0.02223 0.95511 0.0
N558 N 0.47857 0.04612 0.96199 0.0
C559 C 0.45365 0.02465 0.96805 0.0
C560 C 0.47642 0.0329 0.95198 0.0
C561 C 0.46847 0.04868 0.97505 0.0
C562 C 0.4398 0.01314 0.97111 0.0
C563 C 0.42803 0.01655 0.98332 0.0
C564 C 0.41473 0.00595 0.98587 0.0
C565 C 0.41288 0.99164 0.97632 0.0
C566 C 0.42475 0.98813 0.96426 0.0
C567 C 0.43802 0.99875 0.96166 0.0
C568 C 0.4875 0.03018 0.93774 0.0
C569 C 0.4863 0.01573 0.92827 0.0
C570 C 0.49669 0.01319 0.91483 0.0
C571 C 0.50848 0.02506 0.91047 0.0
C572 C 0.50971 0.03949 0.9199 0.0
C573 C 0.49938 0.04201 0.9334 0.0
C574 C 0.47095 0.06311 0.98595 0.0
C575 C 0.48158 0.07595 0.98133 0.0
Li576 Li 0.26672 0.88551 0.99912 0.0
Li577 Li 0.25334 0.86512 0.01695 0.0
Li578 Li 0.24923 0.86504 0.98612 0.0
Li579 Li 0.23589 0.88589 0.00339 0.0
C580 C 0.28613 0.85859 0.99724 0.0
N581 N 0.31959 0.85388 0.9936 0.0
C582 C 0.29559 0.85314 0.01051 0.0
C583 C 0.29365 0.86139 0.98204 0.0
C584 C 0.31249 0.85089 0.00844 0.0
C585 C 0.31059 0.85902 0.98047 0.0
C586 C 0.25449 0.89394 0.03579 0.0
C587 C 0.24113 0.89767 0.06201 0.0
N588 N 0.2556 0.90293 0.06857 0.0
C589 C 0.26917 0.89962 0.04273 0.0
C590 C 0.2403 0.89315 0.04546 0.0
C591 C 0.2695 0.90402 0.05935 0.0
C592 C 0.28558 0.91095 0.9849 0.0
N593 N 0.28581 0.89893 0.9965 0.0
C594 C 0.31324 0.90621 0.00422 0.0
C595 C 0.29921 0.89651 0.0062 0.0
C596 C 0.3134 0.91867 0.99227 0.0
C597 C 0.2993 0.92102 0.98256 0.0
H598 H 0.2747 0.91277 0.97748 0.0
H599 H 0.29898 0.8871 0.01557 0.0
C600 C 0.24642 0.83802 0.03757 0.0
N601 N 0.25583 0.85177 0.03609 0.0
C602 C 0.24789 0.82795 0.0514 0.0
C603 C 0.269 0.84616 0.06177 0.0
C604 C 0.2671 0.85587 0.04775 0.0
C605 C 0.25928 0.832 0.06377 0.0
H606 H 0.23778 0.83482 0.02797 0.0
H607 H 0.27486 0.86651 0.04604 0.0
C608 C 0.24605 0.89157 0.96644 0.0
N609 N 0.24038 0.89561 0.93317 0.0
C610 C 0.23057 0.8965 0.96085 0.0
C611 C 0.25872 0.88896 0.95513 0.0
C612 C 0.22793 0.89841 0.94397 0.0
C613 C 0.25559 0.89099 0.93836 0.0
C614 C 0.21709 0.85749 0.00821 0.0
C615 C 0.20622 0.85132 0.99639 0.0
C616 C 0.21182 0.85922 0.02448 0.0
C617 C 0.19013 0.84738 0.00096 0.0
C618 C 0.19564 0.85514 0.02857 0.0
N619 N 0.18521 0.84937 0.01682 0.0
C620 C 0.25788 0.8397 0.96392 0.0
C621 C 0.23307 0.85346 0.95737 0.0
C622 C 0.25621 0.82956 0.95015 0.0
N623 N 0.24644 0.85143 0.9672 0.0
C624 C 0.23092 0.84362 0.94346 0.0
C625 C 0.24258 0.83146 0.93969 0.0
H626 H 0.26824 0.83812 0.97208 0.0
H627 H 0.22403 0.86272 0.96035 0.0
C628 C 0.21867 0.9137 0.01482 0.0
N629 N 0.21705 0.89962 0.00595 0.0
C630 C 0.2052 0.92408 0.01713 0.0
C631 C 0.18872 0.9055 0.00077 0.0
C632 C 0.20251 0.89549 0.99879 0.0
C633 C 0.18994 0.92 0.0101 0.0
H634 H 0.23045 0.91688 0.02013 0.0
H635 H 0.20165 0.88455 0.99131 0.0
O636 O 0.26958 0.86103 0.99908 0.0
O637 O 0.25397 0.88952 0.01955 0.0
O638 O 0.24882 0.88947 0.98291 0.0
O639 O 0.23286 0.86153 0.00391 0.0
H640 H 0.28996 0.85073 0.0223 0.0
H641 H 0.2865 0.86535 0.97158 0.0
H642 H 0.31997 0.84678 0.01864 0.0
H643 H 0.31658 0.86124 0.9688 0.0
H644 H 0.23024 0.89705 0.06963 0.0
H645 H 0.28021 0.90053 0.03542 0.0
H646 H 0.22873 0.8893 0.0402 0.0
H647 H 0.28082 0.9083 0.0649 0.0
H648 H 0.32376 0.90416 0.01214 0.0
H649 H 0.29895 0.93043 0.97315 0.0
H650 H 0.24009 0.8172 0.05246 0.0
H651 H 0.2782 0.84954 0.0708 0.0
H652 H 0.22068 0.89874 0.96941 0.0
H653 H 0.27083 0.88543 0.95924 0.0
H654 H 0.21597 0.90211 0.93947 0.0
H655 H 0.26525 0.88891 0.92947 0.0
H656 H 0.21012 0.84968 0.9838 0.0
H657 H 0.22017 0.86349 0.03388 0.0
H658 H 0.18156 0.84271 0.9919 0.0
H659 H 0.1914 0.85648 0.0411 0.0
H660 H 0.26535 0.82016 0.94788 0.0
H661 H 0.2203 0.84562 0.93567 0.0
H662 H 0.20669 0.93508 0.0245 0.0
H663 H 0.17729 0.90207 0.99482 0.0
Li664 Li 0.11624 0.50273 0.26707 0.0
Li665 Li 0.13653 0.48503 0.25342 0.0
Li666 Li 0.13679 0.51584 0.24909 0.0
Li667 Li 0.11584 0.49823 0.23626 0.0
C668 C 0.14482 0.50701 0.28538 0.0
N669 N 0.15316 0.51515 0.31733 0.0
C670 C 0.15111 0.49504 0.29599 0.0
C671 C 0.14306 0.52317 0.29094 0.0
C672 C 0.15517 0.49938 0.31212 0.0
C673 C 0.14727 0.52703 0.30715 0.0
C674 C 0.10946 0.46579 0.25702 0.0
C675 C 0.10854 0.43783 0.24713 0.0
N676 N 0.10432 0.43263 0.26245 0.0
C677 C 0.10491 0.46019 0.27262 0.0
C678 C 0.11111 0.45455 0.24412 0.0
C679 C 0.10244 0.44337 0.27514 0.0
C680 C 0.08908 0.51482 0.28485 0.0
N681 N 0.10291 0.50556 0.28617 0.0
C682 C 0.09719 0.50018 0.31451 0.0
C683 C 0.10702 0.49814 0.30058 0.0
C684 C 0.08293 0.50986 0.31357 0.0
C685 C 0.0789 0.51722 0.29846 0.0
H686 H 0.08587 0.52028 0.27316 0.0
H687 H 0.1178 0.49045 0.30123 0.0
C688 C 0.16169 0.46273 0.24464 0.0
N689 N 0.14993 0.46597 0.25606 0.0
C690 C 0.17179 0.44895 0.24627 0.0
C691 C 0.15761 0.44217 0.27149 0.0
C692 C 0.14781 0.45609 0.26937 0.0
C693 C 0.16982 0.43845 0.25985 0.0
H694 H 0.16338 0.47095 0.23434 0.0
H695 H 0.13858 0.45908 0.27844 0.0
C696 C 0.1086 0.53516 0.24802 0.0
N697 N 0.10079 0.56817 0.246 0.0
C698 C 0.10321 0.54187 0.23314 0.0
C699 C 0.1097 0.54518 0.26194 0.0
C700 C 0.09942 0.5586 0.23235 0.0
C701 C 0.10578 0.56185 0.26066 0.0
C702 C 0.14258 0.49533 0.21639 0.0
C703 C 0.14824 0.50816 0.20646 0.0
C704 C 0.13951 0.47992 0.20941 0.0
C705 C 0.15041 0.50545 0.18963 0.0
C706 C 0.14181 0.4777 0.19254 0.0
N707 N 0.14715 0.49041 0.18307 0.0
C708 C 0.16391 0.53658 0.25584 0.0
C709 C 0.14673 0.54592 0.23426 0.0
C710 C 0.17414 0.55026 0.25404 0.0
N711 N 0.1504 0.53476 0.24614 0.0
C712 C 0.15665 0.55975 0.23197 0.0
C713 C 0.17055 0.56208 0.24197 0.0
H714 H 0.16683 0.52732 0.26491 0.0
H715 H 0.13621 0.54398 0.22638 0.0
C716 C 0.08926 0.48473 0.21847 0.0
N717 N 0.10191 0.49563 0.21754 0.0
C718 C 0.07873 0.48246 0.20508 0.0
C719 C 0.09433 0.50282 0.19005 0.0
C720 C 0.10451 0.50473 0.20376 0.0
C721 C 0.08122 0.49155 0.19059 0.0
H722 H 0.08725 0.47787 0.22967 0.0
H723 H 0.11445 0.51355 0.20341 0.0
O724 O 0.14066 0.50293 0.26957 0.0
O725 O 0.11208 0.4822 0.25436 0.0
O726 O 0.11242 0.51879 0.24899 0.0
O727 O 0.14023 0.49781 0.23288 0.0
H728 H 0.15276 0.48253 0.29186 0.0
H729 H 0.13868 0.53267 0.28279 0.0
H730 H 0.15994 0.49022 0.32049 0.0
H731 H 0.14591 0.53949 0.31162 0.0
H732 H 0.10987 0.42899 0.23727 0.0
H733 H 0.10341 0.46871 0.2827 0.0
H734 H 0.11427 0.45868 0.23191 0.0
H735 H 0.09903 0.43887 0.28718 0.0
H736 H 0.10079 0.49432 0.32591 0.0
H737 H 0.06786 0.52452 0.29711 0.0
H738 H 0.18123 0.44672 0.23716 0.0
H739 H 0.15558 0.43437 0.28209 0.0
H740 H 0.10207 0.53428 0.22229 0.0
H741 H 0.11334 0.54013 0.27366 0.0
H742 H 0.09536 0.56397 0.22087 0.0
H743 H 0.10664 0.56975 0.27133 0.0
H744 H 0.15089 0.52011 0.21166 0.0
H745 H 0.13543 0.46978 0.21694 0.0
H746 H 0.15469 0.51531 0.18179 0.0
H747 H 0.13938 0.46585 0.18697 0.0
H748 H 0.18491 0.55143 0.2618 0.0
H749 H 0.15342 0.56858 0.22254 0.0
H750 H 0.06861 0.47387 0.20616 0.0
H751 H 0.09681 0.51 0.17912 0.0
Li752 Li 0.73643 0.61605 0.99729 0.0
Li753 Li 0.74983 0.63707 0.01422 0.0
Li754 Li 0.75363 0.63623 0.98435 0.0
Li755 Li 0.76616 0.61548 0.00216 0.0
C756 C 0.72719 0.65363 0.98905 0.0
N757 N 0.71712 0.68149 0.97242 0.0
C758 C 0.72944 0.66917 0.99607 0.0
C759 C 0.71976 0.65227 0.97359 0.0
C760 C 0.72426 0.6831 0.98747 0.0
C761 C 0.71479 0.6665 0.96537 0.0
C762 C 0.74417 0.6125 0.03451 0.0
C763 C 0.75131 0.61576 0.06313 0.0
N764 N 0.73536 0.61293 0.06733 0.0
C765 C 0.72787 0.60958 0.03911 0.0
C766 C 0.75602 0.61555 0.04661 0.0
C767 C 0.72366 0.60985 0.05576 0.0
C768 C 0.71822 0.58675 0.00067 0.0
N769 N 0.71741 0.6025 0.99514 0.0
C770 C 0.68981 0.59838 0.98592 0.0
C771 C 0.70355 0.60848 0.988 0.0
C772 C 0.69027 0.58199 0.99141 0.0
C773 C 0.70473 0.57624 0.99895 0.0
H774 H 0.72939 0.58236 0.0064 0.0
H775 H 0.7032 0.62106 0.98378 0.0
C776 C 0.75991 0.66048 0.03812 0.0
N777 N 0.74713 0.6511 0.03279 0.0
C778 C 0.75804 0.67073 0.05178 0.0
C779 C 0.72985 0.66153 0.05414 0.0
C780 C 0.73221 0.65162 0.04032 0.0
C781 C 0.74288 0.67124 0.06002 0.0
H782 H 0.77155 0.66006 0.03174 0.0
H783 H 0.72215 0.64431 0.03557 0.0
C784 C 0.74854 0.59851 0.97345 0.0
N785 N 0.7355 0.57043 0.95937 0.0
C786 C 0.75456 0.58304 0.97787 0.0
C787 C 0.73592 0.5997 0.96181 0.0
C788 C 0.74781 0.56899 0.97061 0.0
C789 C 0.72947 0.58535 0.95487 0.0
C790 C 0.78708 0.64028 0.00235 0.0
C791 C 0.7961 0.64329 0.98804 0.0
C792 C 0.79533 0.63739 0.01716 0.0
C793 C 0.81327 0.64326 0.98877 0.0
C794 C 0.8125 0.63743 0.01737 0.0
N795 N 0.82105 0.64034 0.00329 0.0
C796 C 0.7617 0.66552 0.96776 0.0
C797 C 0.75435 0.64349 0.95012 0.0
C798 C 0.7639 0.67595 0.95432 0.0
N799 N 0.75694 0.64966 0.96544 0.0
C800 C 0.75631 0.65352 0.93632 0.0
C801 C 0.76114 0.67002 0.93831 0.0
H802 H 0.76377 0.67004 0.98011 0.0
H803 H 0.75065 0.63083 0.94861 0.0
C804 C 0.78629 0.59235 0.01879 0.0
N805 N 0.78485 0.60164 0.00498 0.0
C806 C 0.80001 0.58231 0.02106 0.0
C807 C 0.81044 0.59146 0.99478 0.0
C808 C 0.79643 0.60118 0.99294 0.0
C809 C 0.81241 0.58184 0.00901 0.0
H810 H 0.77672 0.59265 0.02799 0.0
H811 H 0.79481 0.60847 0.98194 0.0
O812 O 0.73255 0.63987 0.99709 0.0
O813 O 0.74849 0.61257 0.01825 0.0
O814 O 0.75468 0.61239 0.98075 0.0
O815 O 0.77026 0.63999 0.00185 0.0
H816 H 0.73527 0.6705 0.00795 0.0
H817 H 0.71819 0.64037 0.96783 0.0
H818 H 0.72598 0.69521 0.99273 0.0
H819 H 0.70916 0.66563 0.95334 0.0
H820 H 0.76032 0.61821 0.07261 0.0
H821 H 0.71851 0.60734 0.02992 0.0
H822 H 0.76867 0.61793 0.04328 0.0
H823 H 0.71107 0.60769 0.05949 0.0
H824 H 0.67903 0.6033 0.97985 0.0
H825 H 0.70559 0.56381 0.00362 0.0
H826 H 0.76838 0.67803 0.05597 0.0
H827 H 0.7179 0.66179 0.06001 0.0
H828 H 0.76422 0.58186 0.98693 0.0
H829 H 0.7309 0.61154 0.95846 0.0
H830 H 0.75231 0.55694 0.97396 0.0
H831 H 0.71961 0.58608 0.94597 0.0
H832 H 0.78994 0.64541 0.97644 0.0
H833 H 0.78854 0.63494 0.02833 0.0
H834 H 0.82041 0.64549 0.97777 0.0
H835 H 0.81905 0.6351 0.02871 0.0
H836 H 0.7679 0.68848 0.95646 0.0
H837 H 0.75385 0.64845 0.92425 0.0
H838 H 0.80077 0.57483 0.03205 0.0
H839 H 0.81971 0.59165 0.98523 0.0
Li840 Li 0.86454 0.01575 0.25057 0.0
Li841 Li 0.88533 0.99912 0.26487 0.0
Li842 Li 0.88493 0.00235 0.23393 0.0
Li843 Li 0.86427 0.9857 0.24755 0.0
C844 C 0.89006 0.03559 0.25466 0.0
N845 N 0.89182 0.06882 0.26159 0.0
C846 C 0.89319 0.04093 0.2707 0.0
C847 C 0.88806 0.04715 0.2421 0.0
C848 C 0.89398 0.05779 0.27397 0.0
C849 C 0.88892 0.06389 0.24587 0.0
C850 C 0.85603 0.98897 0.28057 0.0
C851 C 0.85967 0.96497 0.29757 0.0
N852 N 0.84551 0.96864 0.30566 0.0
C853 C 0.84152 0.99252 0.28903 0.0
C854 C 0.8652 0.97509 0.28485 0.0
C855 C 0.83641 0.98209 0.30169 0.0
C856 C 0.84114 0.03976 0.24081 0.0
N857 N 0.85102 0.03466 0.2533 0.0
C858 C 0.84164 0.05661 0.27045 0.0
C859 C 0.85125 0.04261 0.26801 0.0
C860 C 0.83143 0.06226 0.25773 0.0
C861 C 0.83119 0.0536 0.24277 0.0
H862 H 0.84089 0.03303 0.22937 0.0
H863 H 0.8589 0.03802 0.27788 0.0
C864 C 0.91434 0.99127 0.28209 0.0
N865 N 0.8989 0.99737 0.28386 0.0
C866 C 0.92454 0.98943 0.29579 0.0
C867 C 0.9029 0.00065 0.3128 0.0
C868 C 0.89309 0.00217 0.29878 0.0
C869 C 0.91882 0.9941 0.31141 0.0
H870 H 0.91871 0.98781 0.27001 0.0
H871 H 0.8808 0.00714 0.29979 0.0
C872 C 0.85931 0.00414 0.2137 0.0
N873 N 0.85702 0.00709 0.17991 0.0
C874 C 0.8544 0.99071 0.20414 0.0
C875 C 0.86292 0.01911 0.20606 0.0
C876 C 0.85333 0.99244 0.18708 0.0
C877 C 0.86174 0.02034 0.18897 0.0
C878 C 0.89201 0.96647 0.24273 0.0
C879 C 0.886 0.96036 0.22784 0.0
C880 C 0.90128 0.95626 0.25298 0.0
C881 C 0.88949 0.94416 0.22333 0.0
C882 C 0.90454 0.94013 0.24803 0.0
N883 N 0.89863 0.93447 0.23343 0.0
C884 C 0.91107 0.01646 0.21616 0.0
C885 C 0.89753 0.99515 0.2016 0.0
C886 C 0.92171 0.01912 0.20294 0.0
N887 N 0.89917 0.00472 0.21523 0.0
C888 C 0.90785 0.99743 0.18808 0.0
C889 C 0.92014 0.00957 0.18861 0.0
H890 H 0.91234 0.02375 0.22719 0.0
H891 H 0.8881 0.98585 0.20104 0.0
C892 C 0.8353 0.9693 0.23856 0.0
N893 N 0.85007 0.96696 0.24602 0.0
C894 C 0.82442 0.95616 0.23647 0.0
C895 C 0.84383 0.93856 0.25045 0.0
C896 C 0.85436 0.95202 0.25221 0.0
C897 C 0.8287 0.9405 0.24233 0.0
H898 H 0.83202 0.98139 0.2341 0.0
H899 H 0.86599 0.95047 0.25841 0.0
O900 O 0.88894 0.01914 0.25128 0.0
O901 O 0.86112 0.99903 0.26809 0.0
O902 O 0.86052 0.00268 0.23044 0.0
O903 O 0.88852 0.98223 0.24748 0.0
H904 H 0.89485 0.03218 0.28055 0.0
H905 H 0.88586 0.04324 0.22959 0.0
H906 H 0.89628 0.06209 0.28635 0.0
H907 H 0.88729 0.07297 0.23628 0.0
H908 H 0.86664 0.95417 0.301 0.0
H909 H 0.83429 0.00322 0.28584 0.0
H910 H 0.87643 0.97213 0.27839 0.0
H911 H 0.8252 0.98468 0.30836 0.0
H912 H 0.84196 0.06278 0.28226 0.0
H913 H 0.8235 0.05758 0.23266 0.0
H914 H 0.93682 0.98456 0.29415 0.0
H915 H 0.89799 0.00431 0.32462 0.0
H916 H 0.85162 0.97899 0.20976 0.0
H917 H 0.86668 0.02965 0.21324 0.0
H918 H 0.84963 0.98211 0.17953 0.0
H919 H 0.86459 0.03184 0.1829 0.0
H920 H 0.87832 0.96788 0.22008 0.0
H921 H 0.90582 0.96068 0.26468 0.0
H922 H 0.88483 0.93926 0.21187 0.0
H923 H 0.91171 0.9321 0.25584 0.0
H924 H 0.93119 0.02843 0.20402 0.0
H925 H 0.90604 0.98991 0.17723 0.0
H926 H 0.81275 0.95826 0.23041 0.0
H927 H 0.84763 0.92668 0.25512 0.0
Li928 Li 0.24826 0.13608 0.51541 0.0
Li929 Li 0.23503 0.1154 0.49774 0.0
Li930 Li 0.26587 0.11527 0.50201 0.0
Li931 Li 0.25233 0.13583 0.48459 0.0
C932 C 0.24759 0.10716 0.53443 0.0
N933 N 0.24701 0.09789 0.56713 0.0
C934 C 0.23304 0.10136 0.54152 0.0
C935 C 0.26191 0.10792 0.5439 0.0
C936 C 0.23297 0.09683 0.55809 0.0
C937 C 0.26136 0.10327 0.56042 0.0
C938 C 0.21536 0.14205 0.49591 0.0
C939 C 0.1906 0.14109 0.47957 0.0
N940 N 0.18177 0.14624 0.49281 0.0
C941 C 0.20606 0.1475 0.5093 0.0
C942 C 0.2076 0.13898 0.48087 0.0
C943 C 0.18909 0.14948 0.5075 0.0
C944 C 0.25472 0.16371 0.53552 0.0
N945 N 0.24574 0.14963 0.53443 0.0
C946 C 0.23307 0.15515 0.56037 0.0
C947 C 0.23491 0.14533 0.54641 0.0
C948 C 0.24238 0.16963 0.56199 0.0
C949 C 0.2533 0.17389 0.54928 0.0
H950 H 0.263 0.16705 0.52567 0.0
H951 H 0.22745 0.13443 0.54501 0.0
C952 C 0.21616 0.08991 0.48352 0.0
N953 N 0.21602 0.10183 0.49525 0.0
C954 C 0.20247 0.07978 0.48125 0.0
C955 C 0.18875 0.09426 0.50326 0.0
C956 C 0.20274 0.10406 0.50515 0.0
C957 C 0.18847 0.08191 0.49116 0.0
H958 H 0.22697 0.08819 0.47599 0.0
H959 H 0.20299 0.11346 0.51454 0.0
C960 C 0.28427 0.14407 0.50705 0.0
N961 N 0.31569 0.15303 0.51651 0.0
C962 C 0.29529 0.15047 0.49551 0.0
C963 C 0.28915 0.14253 0.52346 0.0
C964 C 0.31114 0.15484 0.50051 0.0
C965 C 0.3051 0.14705 0.52798 0.0
C966 C 0.25576 0.10936 0.4651 0.0
C967 C 0.27129 0.10456 0.45956 0.0
C968 C 0.24313 0.11197 0.45374 0.0
C969 C 0.27402 0.10276 0.44269 0.0
C970 C 0.24634 0.11007 0.43698 0.0
N971 N 0.2616 0.10556 0.43184 0.0
C972 C 0.28345 0.0876 0.51334 0.0
C973 C 0.29935 0.10619 0.49751 0.0
C974 C 0.29708 0.07743 0.51562 0.0
N975 N 0.28486 0.10177 0.50459 0.0
C976 C 0.31329 0.09637 0.49943 0.0
C977 C 0.31228 0.0818 0.50864 0.0
H978 H 0.27169 0.08415 0.51851 0.0
H979 H 0.30007 0.11724 0.4902 0.0
C980 C 0.24342 0.16047 0.46167 0.0
N981 N 0.25514 0.14921 0.46553 0.0
C982 C 0.24519 0.17039 0.44777 0.0
C983 C 0.27111 0.15704 0.44213 0.0
C984 C 0.26885 0.14741 0.45615 0.0
C985 C 0.25919 0.16874 0.43777 0.0
H986 H 0.23276 0.16186 0.46947 0.0
H987 H 0.27807 0.13848 0.45957 0.0
O988 O 0.24784 0.1117 0.51821 0.0
O989 O 0.23197 0.13988 0.49749 0.0
O990 O 0.26871 0.13963 0.50233 0.0
O991 O 0.25292 0.11137 0.48157 0.0
H992 H 0.22188 0.10046 0.53436 0.0
H993 H 0.2734 0.11185 0.53852 0.0
H994 H 0.22176 0.09245 0.56376 0.0
H995 H 0.27236 0.10385 0.56789 0.0
H996 H 0.18443 0.13865 0.46803 0.0
H997 H 0.21187 0.15011 0.52097 0.0
H998 H 0.21461 0.13498 0.47033 0.0
H999 H 0.18174 0.1536 0.51779 0.0
H1000 H 0.22422 0.15159 0.56967 0.0
H1001 H 0.26078 0.18489 0.55003 0.0
H1002 H 0.20293 0.07022 0.47197 0.0
H1003 H 0.17821 0.09646 0.51109 0.0
H1004 H 0.29168 0.15197 0.48281 0.0
H1005 H 0.28066 0.13811 0.53265 0.0
H1006 H 0.31983 0.15969 0.49168 0.0
H1007 H 0.30904 0.14587 0.54064 0.0
H1008 H 0.28117 0.10232 0.46816 0.0
H1009 H 0.23099 0.11545 0.45782 0.0
H1010 H 0.28601 0.09915 0.43822 0.0
H1011 H 0.2367 0.11216 0.42805 0.0
H1012 H 0.29568 0.06615 0.52255 0.0
H1013 H 0.32476 0.10023 0.49387 0.0
H1014 H 0.23582 0.17944 0.44503 0.0
H1015 H 0.28202 0.15523 0.43471 0.0
Li1016 Li 0.38545 0.49992 0.76685 0.0
Li1017 Li 0.36494 0.51674 0.75347 0.0
Li1018 Li 0.36522 0.4865 0.75028 0.0
Li1019 Li 0.38622 0.50298 0.73652 0.0
C1020 C 0.35908 0.49741 0.78688 0.0
N1021 N 0.35532 0.49307 0.82039 0.0
C1022 C 0.35231 0.50993 0.79653 0.0
C1023 C 0.36373 0.48261 0.79427 0.0
C1024 C 0.35056 0.50751 0.81345 0.0
C1025 C 0.3618 0.48068 0.81122 0.0
C1026 C 0.39482 0.53284 0.76352 0.0
C1027 C 0.41584 0.55252 0.7708 0.0
N1028 N 0.40636 0.55786 0.7835 0.0
C1029 C 0.38529 0.53856 0.77662 0.0
C1030 C 0.41021 0.53991 0.76055 0.0
C1031 C 0.39133 0.5512 0.78658 0.0
C1032 C 0.41238 0.48722 0.78436 0.0
N1033 N 0.39947 0.49774 0.78573 0.0
C1034 C 0.40706 0.50416 0.81343 0.0
C1035 C 0.39677 0.50629 0.79986 0.0
C1036 C 0.42038 0.49323 0.81243 0.0
C1037 C 0.42303 0.48476 0.79761 0.0
H1038 H 0.41438 0.48067 0.77297 0.0
H1039 H 0.38656 0.51469 0.80072 0.0
C1040 C 0.33543 0.53332 0.76034 0.0
N1041 N 0.351 0.53551 0.75469 0.0
C1042 C 0.32484 0.54673 0.76193 0.0
C1043 C 0.34636 0.56433 0.75136 0.0
C1044 C 0.35656 0.55059 0.75007 0.0
C1045 C 0.33029 0.56253 0.75749 0.0
H1046 H 0.33133 0.52115 0.76383 0.0
H1047 H 0.36896 0.55198 0.74547 0.0
C1048 C 0.39062 0.46656 0.74653 0.0
N1049 N 0.39223 0.43332 0.73963 0.0
C1050 C 0.39248 0.46118 0.73032 0.0
C1051 C 0.38984 0.45505 0.75926 0.0
C1052 C 0.39321 0.44432 0.72707 0.0
C1053 C 0.3906 0.4383 0.75552 0.0
C1054 C 0.35752 0.51349 0.72026 0.0
C1055 C 0.34364 0.50975 0.71083 0.0
C1056 C 0.36665 0.52764 0.71678 0.0
C1057 C 0.33912 0.52027 0.69802 0.0
C1058 C 0.36172 0.53784 0.70388 0.0
N1059 N 0.34818 0.53398 0.69484 0.0
C1060 C 0.34243 0.46162 0.75977 0.0
C1061 C 0.35116 0.46068 0.732 0.0
C1062 C 0.33242 0.44786 0.75738 0.0
N1063 N 0.35163 0.46764 0.74719 0.0
C1064 C 0.34143 0.44682 0.72908 0.0
C1065 C 0.33185 0.44021 0.74187 0.0
H1066 H 0.34267 0.46761 0.77161 0.0
H1067 H 0.35838 0.46591 0.72213 0.0
C1068 C 0.41535 0.51053 0.71939 0.0
N1069 N 0.39982 0.50466 0.71754 0.0
C1070 C 0.42563 0.51226 0.70575 0.0
C1071 C 0.40384 0.50148 0.6886 0.0
C1072 C 0.39397 0.50003 0.70257 0.0
C1073 C 0.4199 0.50776 0.69005 0.0
H1074 H 0.41975 0.51387 0.73147 0.0
H1075 H 0.38164 0.49514 0.70149 0.0
O1076 O 0.36099 0.49959 0.77029 0.0
O1077 O 0.3891 0.5205 0.75357 0.0
O1078 O 0.38959 0.48301 0.74992 0.0
O1079 O 0.36202 0.50332 0.73287 0.0
H1080 H 0.34852 0.52143 0.79107 0.0
H1081 H 0.36888 0.47278 0.787 0.0
H1082 H 0.34543 0.51713 0.82107 0.0
H1083 H 0.36546 0.46932 0.8171 0.0
H1084 H 0.42774 0.55809 0.76864 0.0
H1085 H 0.37339 0.53324 0.77914 0.0
H1086 H 0.41775 0.53574 0.75044 0.0
H1087 H 0.38408 0.55568 0.79679 0.0
H1088 H 0.40471 0.51112 0.82454 0.0
H1089 H 0.43307 0.47612 0.79635 0.0
H1090 H 0.31264 0.54476 0.76688 0.0
H1091 H 0.351 0.57621 0.74753 0.0
H1092 H 0.39317 0.46989 0.72032 0.0
H1093 H 0.3887 0.45899 0.7719 0.0
H1094 H 0.39451 0.43998 0.71456 0.0
H1095 H 0.38992 0.42926 0.76524 0.0
H1096 H 0.33645 0.49883 0.71339 0.0
H1097 H 0.37743 0.53073 0.72395 0.0
H1098 H 0.3284 0.51753 0.69061 0.0
H1099 H 0.36867 0.54884 0.70105 0.0
H1100 H 0.32498 0.44344 0.7675 0.0
H1101 H 0.34151 0.44129 0.71696 0.0
H1102 H 0.43785 0.5173 0.70746 0.0
H1103 H 0.399 0.49757 0.67682 0.0
Li1104 Li 0.76646 0.3855 0.49817 0.0
Li1105 Li 0.75338 0.36482 0.51586 0.0
Li1106 Li 0.74914 0.36505 0.48507 0.0
Li1107 Li 0.73569 0.38564 0.50256 0.0
C1108 C 0.78619 0.35904 0.49622 0.0
N1109 N 0.8198 0.35521 0.49295 0.0
C1110 C 0.79565 0.35389 0.50962 0.0
C1111 C 0.7938 0.36199 0.4811 0.0
C1112 C 0.81263 0.35208 0.50773 0.0
C1113 C 0.81081 0.36006 0.47971 0.0
C1114 C 0.75376 0.3937 0.53494 0.0
C1115 C 0.73957 0.39727 0.56074 0.0
N1116 N 0.75372 0.40291 0.56767 0.0
C1117 C 0.7681 0.39976 0.54226 0.0
C1118 C 0.73933 0.39263 0.5442 0.0
C1119 C 0.76786 0.40426 0.55885 0.0
C1120 C 0.78547 0.41071 0.48367 0.0
N1121 N 0.78546 0.39907 0.49565 0.0
C1122 C 0.81257 0.40688 0.50397 0.0
C1123 C 0.79858 0.39709 0.50582 0.0
C1124 C 0.81301 0.41897 0.49163 0.0
C1125 C 0.79918 0.42083 0.48142 0.0
H1126 H 0.77479 0.41223 0.47592 0.0
H1127 H 0.79819 0.3879 0.5154 0.0
C1128 C 0.74736 0.33694 0.53565 0.0
N1129 N 0.75607 0.3512 0.53478 0.0
C1130 C 0.74902 0.32659 0.54924 0.0
C1131 C 0.76889 0.34557 0.56063 0.0
C1132 C 0.76682 0.35556 0.54683 0.0
C1133 C 0.75989 0.33087 0.562 0.0
H1134 H 0.73913 0.33358 0.52575 0.0
H1135 H 0.77405 0.36663 0.5456 0.0
C1136 C 0.74544 0.39154 0.46563 0.0
N1137 N 0.73915 0.39535 0.43245 0.0
C1138 C 0.72989 0.39652 0.4603 0.0
C1139 C 0.75787 0.38875 0.45409 0.0
C1140 C 0.72693 0.39833 0.44347 0.0
C1141 C 0.75442 0.39066 0.43737 0.0
C1142 C 0.71731 0.35671 0.50745 0.0
C1143 C 0.70631 0.3506 0.49572 0.0
C1144 C 0.71242 0.35781 0.52388 0.0
C1145 C 0.69046 0.34607 0.50057 0.0
C1146 C 0.69648 0.35314 0.52826 0.0
N1147 N 0.6859 0.34745 0.5166 0.0
C1148 C 0.7579 0.33994 0.46269 0.0
C1149 C 0.73291 0.35347 0.45633 0.0
C1150 C 0.75626 0.32985 0.44888 0.0
N1151 N 0.74635 0.35153 0.46608 0.0
C1152 C 0.73082 0.34372 0.44235 0.0
C1153 C 0.74259 0.33171 0.43848 0.0
H1154 H 0.76838 0.3385 0.47074 0.0
H1155 H 0.72374 0.36255 0.45945 0.0
C1156 C 0.71839 0.41348 0.51388 0.0
N1157 N 0.71675 0.39923 0.50529 0.0
C1158 C 0.70486 0.42376 0.51627 0.0
C1159 C 0.68827 0.40474 0.50053 0.0
C1160 C 0.70212 0.39483 0.49847 0.0
C1161 C 0.68951 0.41941 0.5096 0.0
H1162 H 0.73023 0.41687 0.51891 0.0
H1163 H 0.70124 0.38376 0.49119 0.0
O1164 O 0.76957 0.36105 0.49789 0.0
O1165 O 0.75381 0.38918 0.51871 0.0
O1166 O 0.74851 0.38952 0.48205 0.0
O1167 O 0.73287 0.36127 0.50288 0.0
H1168 H 0.78997 0.35139 0.52136 0.0
H1169 H 0.78666 0.36575 0.47055 0.0
H1170 H 0.82011 0.3482 0.51803 0.0
H1171 H 0.81686 0.36241 0.4681 0.0
H1172 H 0.72849 0.39645 0.56805 0.0
H1173 H 0.77933 0.40089 0.53526 0.0
H1174 H 0.728 0.38848 0.53864 0.0
H1175 H 0.77891 0.40885 0.56469 0.0
H1176 H 0.82299 0.4049 0.51203 0.0
H1177 H 0.79883 0.43017 0.47194 0.0
H1178 H 0.74177 0.31542 0.54981 0.0
H1179 H 0.77768 0.34917 0.56997 0.0
H1180 H 0.72017 0.3989 0.46904 0.0
H1181 H 0.77002 0.38512 0.458 0.0
H1182 H 0.71492 0.40208 0.43917 0.0
H1183 H 0.7639 0.38843 0.42831 0.0
H1184 H 0.70992 0.34945 0.48298 0.0
H1185 H 0.7209 0.36201 0.53321 0.0
H1186 H 0.68179 0.34144 0.49159 0.0
H1187 H 0.69253 0.35398 0.54093 0.0
H1188 H 0.76567 0.3208 0.44629 0.0
H1189 H 0.71997 0.34538 0.4348 0.0
H1190 H 0.70637 0.4349 0.52342 0.0
H1191 H 0.67678 0.40109 0.49486 0.0
Li1192 Li 0.63654 0.98595 0.75118 0.0
Li1193 Li 0.61582 0.00249 0.76548 0.0
Li1194 Li 0.61635 0.99971 0.73464 0.0
Li1195 Li 0.63713 0.01607 0.74847 0.0
C1196 C 0.61079 0.96626 0.75494 0.0
N1197 N 0.60854 0.93303 0.76168 0.0
C1198 C 0.60779 0.96089 0.77099 0.0
C1199 C 0.61239 0.95474 0.74228 0.0
C1200 C 0.60675 0.94403 0.77415 0.0
C1201 C 0.61129 0.938 0.74595 0.0
C1202 C 0.64482 0.01252 0.78157 0.0
C1203 C 0.64088 0.03661 0.79842 0.0
N1204 N 0.65469 0.03277 0.80704 0.0
C1205 C 0.65897 0.00881 0.79057 0.0
C1206 C 0.63569 0.02653 0.7855 0.0
C1207 C 0.66376 0.0192 0.80341 0.0
C1208 C 0.65987 0.9619 0.7413 0.0
N1209 N 0.64993 0.96693 0.75377 0.0
C1210 C 0.6592 0.94485 0.7708 0.0
C1211 C 0.64961 0.95888 0.76841 0.0
C1212 C 0.66949 0.9393 0.7581 0.0
C1213 C 0.66981 0.94805 0.74322 0.0
H1214 H 0.6602 0.96872 0.72992 0.0
H1215 H 0.64194 0.96341 0.77828 0.0
C1216 C 0.58667 0.01027 0.78235 0.0
N1217 N 0.60212 0.00425 0.78434 0.0
C1218 C 0.57633 0.01221 0.79591 0.0
C1219 C 0.59785 0.0013 0.81327 0.0
C1220 C 0.60779 0.99963 0.79937 0.0
C1221 C 0.5819 0.00777 0.81166 0.0
H1222 H 0.58243 0.01365 0.7702 0.0
H1223 H 0.62005 0.99463 0.80056 0.0
C1224 C 0.64221 0.99759 0.71453 0.0
N1225 N 0.64499 0.99437 0.68079 0.0
C1226 C 0.64782 0.01078 0.70501 0.0
C1227 C 0.63819 0.98272 0.70688 0.0
C1228 C 0.6491 0.00891 0.68798 0.0
C1229 C 0.63962 0.98135 0.68982 0.0
C1230 C 0.60881 0.03489 0.74242 0.0
C1231 C 0.61569 0.04059 0.72776 0.0
C1232 C 0.5981 0.045 0.75126 0.0
C1233 C 0.61155 0.05623 0.72202 0.0
C1234 C 0.59424 0.06057 0.74512 0.0
N1235 N 0.60098 0.06581 0.73073 0.0
C1236 C 0.58988 0.98639 0.7168 0.0
C1237 C 0.60424 0.00703 0.70211 0.0
C1238 C 0.57925 0.9839 0.70353 0.0
N1239 N 0.60217 0.99771 0.71585 0.0
C1240 C 0.59393 0.00493 0.68854 0.0
C1241 C 0.58124 0.9932 0.6891 0.0
H1242 H 0.58831 0.97927 0.72791 0.0
H1243 H 0.614 0.01597 0.7015 0.0
C1244 C 0.66627 0.03254 0.74019 0.0
N1245 N 0.65126 0.0348 0.74716 0.0
C1246 C 0.67704 0.04579 0.73829 0.0
C1247 C 0.65698 0.06334 0.7514 0.0
C1248 C 0.64656 0.04976 0.75296 0.0
C1249 C 0.67238 0.06147 0.74383 0.0
H1250 H 0.66981 0.02044 0.73595 0.0
H1251 H 0.63467 0.05125 0.75867 0.0
O1252 O 0.61212 0.98271 0.75165 0.0
O1253 O 0.64008 0.0025 0.76891 0.0
O1254 O 0.64078 0.9992 0.73124 0.0
O1255 O 0.61303 0.01977 0.74846 0.0
H1256 H 0.60644 0.96961 0.78092 0.0
H1257 H 0.61445 0.95868 0.72976 0.0
H1258 H 0.60456 0.9397 0.78653 0.0
H1259 H 0.61261 0.92895 0.73628 0.0
H1260 H 0.63393 0.04749 0.80159 0.0
H1261 H 0.66618 0.99801 0.78765 0.0
H1262 H 0.62471 0.02961 0.77865 0.0
H1263 H 0.67469 0.01648 0.81049 0.0
H1264 H 0.65882 0.9386 0.78256 0.0
H1265 H 0.67757 0.94415 0.73313 0.0
H1266 H 0.5642 0.01738 0.79409 0.0
H1267 H 0.60255 0.99744 0.82511 0.0
H1268 H 0.65099 0.02239 0.71065 0.0
H1269 H 0.63394 0.97237 0.71403 0.0
H1270 H 0.65332 0.01905 0.68047 0.0
H1271 H 0.63645 0.96993 0.68375 0.0
H1272 H 0.62449 0.03321 0.72114 0.0
H1273 H 0.59291 0.04094 0.76281 0.0
H1274 H 0.61684 0.06081 0.71071 0.0
H1275 H 0.58595 0.06851 0.75182 0.0
H1276 H 0.56947 0.97491 0.70462 0.0
H1277 H 0.59606 0.01223 0.67761 0.0
H1278 H 0.68892 0.04378 0.73262 0.0
H1279 H 0.65288 0.07523 0.75577 0.0
Li1280 Li 0.0164 0.25277 0.86412 0.0
Li1281 Li 0.99922 0.26546 0.88793 0.0
Li1282 Li 0.004 0.23563 0.88522 0.0
Li1283 Li 0.98641 0.24868 0.86676 0.0
C1284 C 0.03154 0.24595 0.89882 0.0
N1285 N 0.05252 0.22999 0.92025 0.0
C1286 C 0.02849 0.24624 0.91573 0.0
C1287 C 0.0453 0.23759 0.89281 0.0
C1288 C 0.03921 0.23806 0.92636 0.0
C1289 C 0.05576 0.22961 0.90385 0.0
C1290 C 0.98858 0.2778 0.85286 0.0
C1291 C 0.96582 0.29585 0.84695 0.0
N1292 N 0.96769 0.29274 0.83062 0.0
C1293 C 0.99031 0.27483 0.83602 0.0
C1294 C 0.97625 0.2884 0.85839 0.0
C1295 C 0.97961 0.28247 0.82498 0.0
C1296 C 0.03327 0.25221 0.83375 0.0
N1297 N 0.0345 0.25644 0.84987 0.0
C1298 C 0.06219 0.2655 0.84598 0.0
C1299 C 0.04851 0.26312 0.85608 0.0
C1300 C 0.06135 0.2613 0.8292 0.0
C1301 C 0.04653 0.25468 0.82312 0.0
H1302 H 0.02198 0.24685 0.82916 0.0
H1303 H 0.04912 0.26643 0.86895 0.0
C1304 C 0.99449 0.28131 0.91849 0.0
N1305 N 0.99738 0.28382 0.90223 0.0
C1306 C 0.99276 0.29468 0.92914 0.0
C1307 C 0.99665 0.31294 0.90603 0.0
C1308 C 0.9987 0.29922 0.89591 0.0
C1309 C 0.99364 0.31083 0.92295 0.0
H1310 H 0.99341 0.26891 0.92316 0.0
H1311 H 0.0011 0.30085 0.88294 0.0
C1312 C 0.00673 0.21641 0.85843 0.0
N1313 N 0.01324 0.18346 0.85341 0.0
C1314 C 0.99453 0.20464 0.86132 0.0
C1315 C 0.02218 0.21145 0.85277 0.0
C1316 C 0.99809 0.18803 0.85878 0.0
C1317 C 0.02524 0.19472 0.85035 0.0
C1318 C 0.96718 0.24601 0.89363 0.0
C1319 C 0.95914 0.23107 0.89081 0.0
C1320 C 0.95826 0.25954 0.89934 0.0
C1321 C 0.94221 0.22999 0.89347 0.0
C1322 C 0.94134 0.25795 0.90189 0.0
N1323 N 0.93373 0.24334 0.8989 0.0
C1324 C 0.99678 0.21386 0.91116 0.0
C1325 C 0.01992 0.20566 0.8955 0.0
C1326 C 0.99855 0.20025 0.92146 0.0
N1327 N 0.00733 0.21628 0.89841 0.0
C1328 C 0.02211 0.19185 0.90545 0.0
C1329 C 0.01134 0.18901 0.91864 0.0
H1330 H 0.98703 0.22257 0.91342 0.0
H1331 H 0.02843 0.20798 0.8856 0.0
C1332 C 0.9678 0.23571 0.84059 0.0
N1333 N 0.96696 0.24632 0.85349 0.0
C1334 C 0.9543 0.23355 0.83019 0.0
C1335 C 0.93931 0.25341 0.84638 0.0
C1336 C 0.95311 0.25521 0.85644 0.0
C1337 C 0.93978 0.24244 0.83304 0.0
H1338 H 0.97903 0.22904 0.83823 0.0
H1339 H 0.95277 0.26385 0.8665 0.0
O1340 O 0.02099 0.25359 0.88819 0.0
O1341 O 0.99871 0.27013 0.86388 0.0
O1342 O 0.00348 0.23272 0.86081 0.0
O1343 O 0.98376 0.2473 0.89115 0.0
H1344 H 0.01785 0.25254 0.92057 0.0
H1345 H 0.04771 0.23699 0.87974 0.0
H1346 H 0.03694 0.2381 0.93947 0.0
H1347 H 0.06639 0.22301 0.89936 0.0
H1348 H 0.95615 0.30399 0.85107 0.0
H1349 H 0.9997 0.26658 0.83154 0.0
H1350 H 0.97451 0.29061 0.87139 0.0
H1351 H 0.98076 0.28022 0.81192 0.0
H1352 H 0.07336 0.27034 0.85139 0.0
H1353 H 0.04509 0.25153 0.81027 0.0
H1354 H 0.9908 0.29231 0.94209 0.0
H1355 H 0.99715 0.32504 0.90052 0.0
H1356 H 0.98246 0.20831 0.8655 0.0
H1357 H 0.03176 0.2204 0.85047 0.0
H1358 H 0.98879 0.17878 0.86107 0.0
H1359 H 0.03718 0.19069 0.84609 0.0
H1360 H 0.96591 0.22044 0.88659 0.0
H1361 H 0.96429 0.27119 0.9016 0.0
H1362 H 0.9358 0.21853 0.89125 0.0
H1363 H 0.93426 0.26834 0.90619 0.0
H1364 H 0.98992 0.19847 0.93143 0.0
H1365 H 0.03231 0.18366 0.90302 0.0
H1366 H 0.95534 0.22519 0.81986 0.0
H1367 H 0.92836 0.26045 0.84911 0.0
Li1368 Li 0.51728 0.75208 0.36677 0.0
Li1369 Li 0.49933 0.76527 0.38729 0.0
Li1370 Li 0.50312 0.73444 0.38731 0.0
Li1371 Li 0.48666 0.74844 0.36642 0.0
C1372 C 0.53498 0.75155 0.39793 0.0
N1373 N 0.56603 0.75028 0.41176 0.0
C1374 C 0.54251 0.7659 0.40372 0.0
C1375 C 0.54322 0.73653 0.39931 0.0
C1376 C 0.55821 0.76501 0.41063 0.0
C1377 C 0.55891 0.73615 0.40631 0.0
C1378 C 0.49958 0.78541 0.36122 0.0
C1379 C 0.48533 0.81136 0.36255 0.0
N1380 N 0.49941 0.81924 0.35814 0.0
C1381 C 0.5139 0.79375 0.35661 0.0
C1382 C 0.48515 0.79426 0.36412 0.0
C1383 C 0.51356 0.81087 0.35514 0.0
C1384 C 0.5328 0.75559 0.33646 0.0
N1385 N 0.53604 0.75466 0.35284 0.0
C1386 C 0.56484 0.75788 0.34781 0.0
C1387 C 0.5517 0.75576 0.35864 0.0
C1388 C 0.56187 0.75905 0.33082 0.0
C1389 C 0.54557 0.75784 0.32519 0.0
H1390 H 0.52022 0.75476 0.33219 0.0
H1391 H 0.55412 0.75499 0.37162 0.0
C1392 C 0.48427 0.78438 0.41208 0.0
N1393 N 0.49679 0.78417 0.40101 0.0
C1394 C 0.48184 0.79809 0.42213 0.0
C1395 C 0.50526 0.81111 0.40926 0.0
C1396 C 0.50731 0.7971 0.39956 0.0
C1397 C 0.49237 0.81173 0.42072 0.0
H1398 H 0.47615 0.77389 0.4131 0.0
H1399 H 0.5173 0.79657 0.39082 0.0
C1400 C 0.51122 0.71748 0.3577 0.0
N1401 N 0.52572 0.68872 0.34692 0.0
C1402 C 0.50191 0.70572 0.34928 0.0
C1403 C 0.52795 0.71471 0.36045 0.0
C1404 C 0.50945 0.69123 0.34399 0.0
C1405 C 0.53504 0.70007 0.35495 0.0
C1406 C 0.46629 0.74443 0.39121 0.0
C1407 C 0.46062 0.72857 0.39466 0.0
C1408 C 0.455 0.75699 0.38807 0.0
C1409 C 0.44371 0.72548 0.39468 0.0
C1410 C 0.4382 0.7534 0.38819 0.0
N1411 N 0.43295 0.73785 0.39145 0.0
C1412 C 0.5109 0.71739 0.41636 0.0
C1413 C 0.50028 0.7004 0.39516 0.0
C1414 C 0.51294 0.70379 0.42663 0.0
N1415 N 0.50496 0.71542 0.40085 0.0
C1416 C 0.50197 0.68648 0.40506 0.0
C1417 C 0.50854 0.68807 0.42097 0.0
H1418 H 0.51419 0.72953 0.42069 0.0
H1419 H 0.49517 0.69921 0.38295 0.0
C1420 C 0.46288 0.75839 0.34289 0.0
N1421 N 0.46801 0.74572 0.35249 0.0
C1422 C 0.44911 0.75656 0.33278 0.0
C1423 C 0.44624 0.72862 0.34252 0.0
C1424 C 0.4601 0.73098 0.35239 0.0
C1425 C 0.44056 0.74152 0.33253 0.0
H1426 H 0.46954 0.76989 0.34301 0.0
H1427 H 0.46451 0.72108 0.36009 0.0
O1428 O 0.51956 0.75222 0.39118 0.0
O1429 O 0.4997 0.76866 0.36284 0.0
O1430 O 0.50399 0.73172 0.36298 0.0
O1431 O 0.4828 0.74761 0.39081 0.0
H1432 H 0.53633 0.77761 0.40285 0.0
H1433 H 0.5376 0.72525 0.39508 0.0
H1434 H 0.56419 0.77604 0.4151 0.0
H1435 H 0.56542 0.72461 0.40741 0.0
H1436 H 0.47428 0.81838 0.36487 0.0
H1437 H 0.52519 0.78712 0.35435 0.0
H1438 H 0.47397 0.78801 0.36771 0.0
H1439 H 0.52457 0.81749 0.35166 0.0
H1440 H 0.5772 0.75846 0.35272 0.0
H1441 H 0.54264 0.7589 0.31224 0.0
H1442 H 0.47169 0.79812 0.43076 0.0
H1443 H 0.51379 0.82127 0.40794 0.0
H1444 H 0.48897 0.70773 0.34691 0.0
H1445 H 0.53541 0.72378 0.36664 0.0
H1446 H 0.50236 0.68198 0.33754 0.0
H1447 H 0.54798 0.69776 0.35703 0.0
H1448 H 0.46919 0.71872 0.39715 0.0
H1449 H 0.45919 0.76934 0.38544 0.0
H1450 H 0.43915 0.71325 0.39724 0.0
H1451 H 0.42933 0.76298 0.38566 0.0
H1452 H 0.51778 0.70558 0.43891 0.0
H1453 H 0.49842 0.67457 0.40024 0.0
H1454 H 0.44534 0.76674 0.32508 0.0
H1455 H 0.43995 0.71688 0.34287 0.0
Li1456 Li 0.00224 0.76671 0.61456 0.0
Li1457 Li 0.98579 0.75312 0.63571 0.0
Li1458 Li 0.01603 0.74991 0.63598 0.0
Li1459 Li 0.99907 0.73639 0.6156 0.0
C1460 C 0.01293 0.78318 0.64311 0.0
N1461 N 0.03361 0.8086 0.65218 0.0
C1462 C 0.0093 0.79277 0.6569 0.0
C1463 C 0.02708 0.7865 0.63394 0.0
C1464 C 0.01991 0.80557 0.66128 0.0
C1465 C 0.03738 0.79941 0.63872 0.0
C1466 C 0.96578 0.75675 0.61032 0.0
C1467 C 0.93746 0.74789 0.61066 0.0
N1468 N 0.93257 0.76377 0.60877 0.0
C1469 C 0.96048 0.77295 0.60821 0.0
C1470 C 0.95419 0.74409 0.61139 0.0
C1471 C 0.94364 0.77626 0.60751 0.0
C1472 C 0.00975 0.78353 0.58525 0.0
N1473 N 0.00399 0.78557 0.60079 0.0
C1474 C 0.00117 0.81452 0.59653 0.0
C1475 C 0.99956 0.80064 0.60652 0.0
C1476 C 0.0074 0.81283 0.58051 0.0
C1477 C 0.01165 0.79707 0.57487 0.0
H1478 H 0.01282 0.77137 0.58091 0.0
H1479 H 0.99481 0.80189 0.61888 0.0
C1480 C 0.9611 0.7436 0.65859 0.0
N1481 N 0.96694 0.7562 0.64929 0.0
C1482 C 0.94727 0.74582 0.66851 0.0
C1483 C 0.94583 0.77403 0.65928 0.0
C1484 C 0.95976 0.77128 0.64963 0.0
C1485 C 0.93937 0.76119 0.6689 0.0
H1486 H 0.96725 0.73186 0.65847 0.0
H1487 H 0.96486 0.78118 0.64235 0.0
C1488 C 0.03185 0.7395 0.606 0.0
N1489 N 0.05642 0.71919 0.59423 0.0
C1490 C 0.03777 0.7266 0.61565 0.0
C1491 C 0.03848 0.74211 0.59036 0.0
C1492 C 0.05018 0.71646 0.60949 0.0
C1493 C 0.05087 0.7317 0.58462 0.0
C1494 C 0.99674 0.71656 0.64212 0.0
C1495 C 0.00932 0.70703 0.64893 0.0
C1496 C 0.98194 0.70905 0.63756 0.0
C1497 C 0.00696 0.69012 0.65084 0.0
C1498 C 0.98006 0.6921 0.63965 0.0
N1499 N 0.99251 0.68306 0.64618 0.0
C1500 C 0.03271 0.74325 0.66549 0.0
C1501 C 0.04995 0.75326 0.64422 0.0
C1502 C 0.04618 0.74159 0.67601 0.0
N1503 N 0.03486 0.74878 0.64988 0.0
C1504 C 0.06374 0.75193 0.65436 0.0
C1505 C 0.06197 0.74587 0.67044 0.0
H1506 H 0.02053 0.73994 0.66969 0.0
H1507 H 0.05131 0.75769 0.63176 0.0
C1508 C 0.98614 0.71857 0.58892 0.0
N1509 N 0.99679 0.71739 0.60176 0.0
C1510 C 0.98366 0.70522 0.57839 0.0
C1511 C 0.00332 0.68969 0.59433 0.0
C1512 C 0.00544 0.70335 0.60452 0.0
C1513 C 0.99228 0.6905 0.58106 0.0
H1514 H 0.97957 0.72992 0.58683 0.0
H1515 H 0.01387 0.7026 0.61473 0.0
O1516 O 0.00268 0.77055 0.63875 0.0
O1517 O 0.98221 0.75331 0.61133 0.0
O1518 O 0.01969 0.74959 0.61181 0.0
O1519 O 0.99885 0.73314 0.64008 0.0
H1520 H 0.99838 0.79033 0.66412 0.0
H1521 H 0.03009 0.77921 0.62322 0.0
H1522 H 0.01725 0.8131 0.67192 0.0
H1523 H 0.04837 0.80211 0.63174 0.0
H1524 H 0.92836 0.73822 0.61156 0.0
H1525 H 0.96926 0.7829 0.60731 0.0
H1526 H 0.95805 0.73145 0.61274 0.0
H1527 H 0.93937 0.78876 0.60602 0.0
H1528 H 0.99782 0.82646 0.60138 0.0
H1529 H 0.01624 0.79521 0.5625 0.0
H1530 H 0.94298 0.73568 0.67599 0.0
H1531 H 0.94011 0.78604 0.65909 0.0
H1532 H 0.03275 0.72432 0.62772 0.0
H1533 H 0.03414 0.75206 0.58271 0.0
H1534 H 0.05481 0.70639 0.61684 0.0
H1535 H 0.0561 0.73358 0.57253 0.0
H1536 H 0.02082 0.71259 0.65265 0.0
H1537 H 0.97206 0.71622 0.63237 0.0
H1538 H 0.01662 0.6826 0.65602 0.0
H1539 H 0.96871 0.68614 0.63607 0.0
H1540 H 0.04426 0.73708 0.6884 0.0
H1541 H 0.07572 0.75524 0.64956 0.0
H1542 H 0.97522 0.70648 0.56816 0.0
H1543 H 0.01009 0.67854 0.59698 0.0
Li1544 Li 0.50378 0.26492 0.11421 0.0
Li1545 Li 0.48606 0.25272 0.13527 0.0
Li1546 Li 0.5159 0.24874 0.13587 0.0
Li1547 Li 0.4987 0.23524 0.11515 0.0
C1548 C 0.50425 0.28612 0.13871 0.0
N1549 N 0.50523 0.32009 0.13819 0.0
C1550 C 0.49 0.2952 0.14183 0.0
C1551 C 0.519 0.29432 0.13541 0.0
C1552 C 0.49075 0.31237 0.14151 0.0
C1553 C 0.51924 0.31149 0.13516 0.0
C1554 C 0.47476 0.24733 0.0977 0.0
C1555 C 0.45595 0.22823 0.08493 0.0
N1556 N 0.46029 0.23414 0.0699 0.0
C1557 C 0.47902 0.25323 0.08213 0.0
C1558 C 0.4631 0.23476 0.09913 0.0
C1559 C 0.47155 0.24641 0.06822 0.0
C1560 C 0.52033 0.28448 0.09054 0.0
N1561 N 0.50663 0.28339 0.10006 0.0
C1562 C 0.49667 0.30897 0.08961 0.0
C1563 C 0.49476 0.29513 0.09958 0.0
C1564 C 0.51078 0.31052 0.07978 0.0
C1565 C 0.52265 0.29801 0.08022 0.0
H1566 H 0.52943 0.27483 0.09092 0.0
H1567 H 0.48381 0.29375 0.10699 0.0
C1568 C 0.4697 0.26111 0.16463 0.0
N1569 N 0.46726 0.2562 0.14883 0.0
C1570 C 0.45632 0.26337 0.17514 0.0
C1571 C 0.43818 0.2555 0.15291 0.0
C1572 C 0.4519 0.25352 0.14279 0.0
C1573 C 0.44031 0.26047 0.16932 0.0
H1574 H 0.48207 0.26316 0.16908 0.0
H1575 H 0.4503 0.24979 0.13015 0.0
C1576 C 0.53591 0.24263 0.1113 0.0
N1577 N 0.56862 0.23347 0.11177 0.0
C1578 C 0.5403 0.22621 0.10875 0.0
C1579 C 0.54817 0.2544 0.11401 0.0
C1580 C 0.5569 0.22183 0.10903 0.0
C1581 C 0.56463 0.24952 0.11424 0.0
C1582 C 0.49069 0.22637 0.15286 0.0
C1583 C 0.4978 0.22876 0.16834 0.0
C1584 C 0.47521 0.21895 0.15165 0.0
C1585 C 0.48926 0.22372 0.18237 0.0
C1586 C 0.46705 0.21413 0.16597 0.0
N1587 N 0.47419 0.21658 0.1809 0.0
C1588 C 0.54054 0.25899 0.15845 0.0
C1589 C 0.54168 0.23092 0.15072 0.0
C1590 C 0.55436 0.25711 0.16848 0.0
N1591 N 0.53461 0.24602 0.14973 0.0
C1592 C 0.55559 0.22851 0.16048 0.0
C1593 C 0.56215 0.24172 0.16953 0.0
H1594 H 0.53448 0.27078 0.15772 0.0
H1595 H 0.53654 0.22076 0.14382 0.0
C1596 C 0.50171 0.2169 0.08596 0.0
N1597 N 0.49632 0.21614 0.10176 0.0
C1598 C 0.49981 0.20341 0.0755 0.0
C1599 C 0.48691 0.18858 0.0978 0.0
C1600 C 0.48916 0.20233 0.10785 0.0
C1601 C 0.49223 0.189 0.08135 0.0
H1602 H 0.50746 0.22804 0.08149 0.0
H1603 H 0.48506 0.20203 0.12047 0.0
O1604 O 0.50371 0.2693 0.1387 0.0
O1605 O 0.48225 0.25355 0.11144 0.0
O1606 O 0.51971 0.24712 0.11138 0.0
O1607 O 0.49868 0.23159 0.139 0.0
H1608 H 0.47844 0.28909 0.14427 0.0
H1609 H 0.53011 0.28749 0.13284 0.0
H1610 H 0.47981 0.31955 0.14383 0.0
H1611 H 0.53055 0.31799 0.13251 0.0
H1612 H 0.44702 0.2184 0.08585 0.0
H1613 H 0.48809 0.26286 0.08076 0.0
H1614 H 0.45987 0.22983 0.11106 0.0
H1615 H 0.47478 0.25081 0.05609 0.0
H1616 H 0.48713 0.31825 0.08942 0.0
H1617 H 0.5337 0.29878 0.07284 0.0
H1618 H 0.45849 0.26709 0.18775 0.0
H1619 H 0.42601 0.25334 0.14791 0.0
H1620 H 0.53098 0.21691 0.10677 0.0
H1621 H 0.54499 0.26714 0.11613 0.0
H1622 H 0.56047 0.20916 0.10715 0.0
H1623 H 0.57423 0.25848 0.11644 0.0
H1624 H 0.5097 0.23459 0.16955 0.0
H1625 H 0.46939 0.21728 0.1398 0.0
H1626 H 0.49458 0.22554 0.19443 0.0
H1627 H 0.45501 0.20852 0.16522 0.0
H1628 H 0.55875 0.26756 0.17548 0.0
H1629 H 0.56125 0.21647 0.16078 0.0
H1630 H 0.50436 0.20423 0.06302 0.0
H1631 H 0.48083 0.17784 0.1028 0.0
C1632 C 0.2334 0.7621 0.87036 0.0
C1633 C 0.22952 0.76889 0.85498 0.0
C1634 C 0.23579 0.77216 0.8842 0.0
C1635 C 0.23425 0.78943 0.88262 0.0
C1636 C 0.23044 0.79637 0.86712 0.0
C1637 C 0.22813 0.78602 0.85349 0.0
C1638 C 0.23981 0.7643 0.90053 0.0
C1639 C 0.22874 0.81473 0.86495 0.0
C1640 C 0.22491 0.8144 0.92098 0.0
C1641 C 0.24046 0.82072 0.92503 0.0
C1642 C 0.22271 0.80423 0.9072 0.0
C1643 C 0.23641 0.80022 0.89725 0.0
C1644 C 0.25215 0.80653 0.90126 0.0
C1645 C 0.25398 0.81671 0.91509 0.0
C1646 C 0.20574 0.79771 0.90333 0.0
C1647 C 0.26704 0.80255 0.89092 0.0
H1648 H 0.23428 0.74887 0.87166 0.0
H1649 H 0.22537 0.79136 0.8416 0.0
H1650 H 0.25156 0.76931 0.90536 0.0
H1651 H 0.23011 0.7673 0.90963 0.0
H1652 H 0.24089 0.75072 0.89962 0.0
H1653 H 0.22588 0.81818 0.85205 0.0
H1654 H 0.21881 0.81944 0.87303 0.0
H1655 H 0.2403 0.82097 0.86868 0.0
H1656 H 0.21445 0.81724 0.92873 0.0
H1657 H 0.26599 0.82172 0.91801 0.0
H1658 H 0.20585 0.78407 0.90344 0.0
H1659 H 0.202 0.80162 0.89081 0.0
H1660 H 0.19636 0.80206 0.91225 0.0
H1661 H 0.26888 0.78904 0.89044 0.0
H1662 H 0.27843 0.80837 0.89576 0.0
H1663 H 0.26507 0.8068 0.87811 0.0
C1664 C 0.0132 0.51864 0.3823 0.0
C1665 C 0.01974 0.52303 0.39766 0.0
C1666 C 0.02344 0.51637 0.3686 0.0
C1667 C 0.04063 0.51856 0.37029 0.0
C1668 C 0.04732 0.52293 0.38576 0.0
C1669 C 0.0368 0.52512 0.39926 0.0
C1670 C 0.01584 0.51176 0.35228 0.0
C1671 C 0.0656 0.5253 0.38806 0.0
C1672 C 0.06856 0.49877 0.33851 0.0
C1673 C 0.0722 0.51211 0.32819 0.0
C1674 C 0.05835 0.5007 0.35228 0.0
C1675 C 0.05161 0.51635 0.35582 0.0
C1676 C 0.05527 0.52987 0.34549 0.0
C1677 C 0.06552 0.52759 0.3318 0.0
C1678 C 0.05468 0.48598 0.36298 0.0
C1679 C 0.04836 0.54676 0.34891 0.0
H1680 H 1.00002 0.51722 0.38093 0.0
H1681 H 0.04195 0.5283 0.41114 0.0
H1682 H 0.01868 0.52133 0.34299 0.0
H1683 H 0.02119 0.50005 0.34778 0.0
H1684 H 0.00228 0.51032 0.35307 0.0
H1685 H 0.06885 0.52869 0.40089 0.0
H1686 H 0.07221 0.51384 0.38477 0.0
H1687 H 0.07011 0.5351 0.3797 0.0
H1688 H 0.0735 0.48673 0.33567 0.0
H1689 H 0.06846 0.538 0.32401 0.0
H1690 H 0.04124 0.48357 0.36313 0.0
H1691 H 0.05849 0.4885 0.37584 0.0
H1692 H 0.06106 0.47471 0.35867 0.0
H1693 H 0.03472 0.54627 0.34891 0.0
H1694 H 0.0524 0.55599 0.33968 0.0
H1695 H 0.05227 0.55098 0.36129 0.0
C1696 C 0.787 0.73185 0.86626 0.0
C1697 C 0.77453 0.73359 0.85447 0.0
C1698 C 0.78488 0.72159 0.87997 0.0
C1699 C 0.76999 0.71274 0.88185 0.0
C1700 C 0.75738 0.71438 0.86994 0.0
C1701 C 0.75978 0.72485 0.85643 0.0
C1702 C 0.79852 0.72031 0.89251 0.0
C1703 C 0.74141 0.70501 0.87143 0.0
C1704 C 0.77045 0.67493 0.90927 0.0
C1705 C 0.76332 0.68095 0.92379 0.0
C1706 C 0.77258 0.6851 0.89549 0.0
C1707 C 0.7676 0.70176 0.89628 0.0
C1708 C 0.76043 0.70794 0.91089 0.0
C1709 C 0.7583 0.69745 0.92442 0.0
C1710 C 0.78021 0.67805 0.88011 0.0
C1711 C 0.75502 0.72565 0.91222 0.0
H1712 H 0.79834 0.73873 0.86488 0.0
H1713 H 0.75019 0.72603 0.84724 0.0
H1714 H 0.79394 0.72412 0.90478 0.0
H1715 H 0.80264 0.70735 0.89357 0.0
H1716 H 0.80931 0.72806 0.88928 0.0
H1717 H 0.73288 0.70759 0.86107 0.0
H1718 H 0.7439 0.6916 0.87176 0.0
H1719 H 0.73518 0.70825 0.88312 0.0
H1720 H 0.77459 0.66228 0.90873 0.0
H1721 H 0.75253 0.70215 0.93547 0.0
H1722 H 0.79174 0.68473 0.87717 0.0
H1723 H 0.77176 0.67969 0.86952 0.0
H1724 H 0.78307 0.66475 0.88136 0.0
H1725 H 0.76561 0.73394 0.90986 0.0
H1726 H 0.74984 0.72859 0.92451 0.0
H1727 H 0.74558 0.72833 0.90274 0.0
C1728 C 0.96359 0.97703 0.39741 0.0
C1729 C 0.9803 0.98136 0.39689 0.0
C1730 C 0.95338 0.97921 0.38366 0.0
C1731 C 0.95999 0.986 0.36905 0.0
C1732 C 0.97679 0.99056 0.36849 0.0
C1733 C 0.98675 0.98813 0.38238 0.0
C1734 C 0.93553 0.97418 0.38472 0.0
C1735 C 0.98428 0.99787 0.35315 0.0
C1736 C 0.93825 0.97749 0.32856 0.0
C1737 C 0.92937 0.99207 0.32618 0.0
C1738 C 0.9482 0.97533 0.3425 0.0
C1739 C 0.9494 0.9881 0.35428 0.0
C1740 C 0.94051 0.00287 0.35192 0.0
C1741 C 0.93056 0.00466 0.33792 0.0
C1742 C 0.95738 0.95934 0.34465 0.0
C1743 C 0.94159 0.01683 0.36414 0.0
H1744 H 0.95845 0.97202 0.40863 0.0
H1745 H 0.99969 0.99129 0.38177 0.0
H1746 H 0.92751 0.98491 0.38219 0.0
H1747 H 0.93278 0.96475 0.37524 0.0
H1748 H 0.93229 0.9691 0.39698 0.0
H1749 H 0.99742 0.00122 0.35487 0.0
H1750 H 0.98336 0.98896 0.34285 0.0
H1751 H 0.9774 0.00905 0.34946 0.0
H1752 H 0.9372 0.96764 0.31963 0.0
H1753 H 0.92387 0.01602 0.33603 0.0
H1754 H 0.95366 0.95339 0.35635 0.0
H1755 H 0.97079 0.96175 0.34543 0.0
H1756 H 0.95509 0.95061 0.33439 0.0
H1757 H 0.93758 0.01255 0.37645 0.0
H1758 H 0.9339 0.0275 0.3605 0.0
H1759 H 0.95454 0.02099 0.36532 0.0
C1760 C 0.21584 0.2259 0.638 0.0
C1761 C 0.22938 0.23188 0.64689 0.0
C1762 C 0.218 0.21563 0.62429 0.0
C1763 C 0.23409 0.21126 0.61933 0.0
C1764 C 0.24781 0.21719 0.62828 0.0
C1765 C 0.24529 0.22742 0.64196 0.0
C1766 C 0.20306 0.20956 0.61505 0.0
C1767 C 0.26516 0.21277 0.62337 0.0
C1768 C 0.23907 0.17335 0.59244 0.0
C1769 C 0.24054 0.18031 0.57672 0.0
C1770 C 0.23706 0.18328 0.60643 0.0
C1771 C 0.23655 0.20058 0.60467 0.0
C1772 C 0.23816 0.2077 0.58886 0.0
C1773 C 0.24011 0.19748 0.57509 0.0
C1774 C 0.2354 0.17524 0.62308 0.0
C1775 C 0.23766 0.22611 0.58649 0.0
H1776 H 0.20352 0.22948 0.64159 0.0
H1777 H 0.2558 0.23183 0.64889 0.0
H1778 H 0.20354 0.21387 0.60211 0.0
H1779 H 0.20295 0.19592 0.61476 0.0
H1780 H 0.19138 0.21389 0.62065 0.0
H1781 H 0.27449 0.21833 0.63167 0.0
H1782 H 0.26671 0.19921 0.62351 0.0
H1783 H 0.2676 0.21698 0.61063 0.0
H1784 H 0.23962 0.16011 0.59384 0.0
H1785 H 0.24102 0.20295 0.56297 0.0
H1786 H 0.22344 0.1786 0.6287 0.0
H1787 H 0.24521 0.17976 0.63144 0.0
H1788 H 0.23619 0.16162 0.62237 0.0
H1789 H 0.22567 0.23099 0.59077 0.0
H1790 H 0.23943 0.22971 0.57343 0.0
H1791 H 0.24738 0.23207 0.59401 0.0
C1792 C 0.47949 0.53418 0.61655 0.0
C1793 C 0.48233 0.52134 0.60539 0.0
C1794 C 0.46934 0.53191 0.63031 0.0
C1795 C 0.46175 0.51645 0.63293 0.0
C1796 C 0.46451 0.50345 0.62167 0.0
C1797 C 0.47482 0.50604 0.60807 0.0
C1798 C 0.46681 0.54603 0.64212 0.0
C1799 C 0.45651 0.48684 0.62397 0.0
C1800 C 0.44743 0.50605 0.67616 0.0
C1801 C 0.43058 0.50968 0.67531 0.0
C1802 C 0.4577 0.50814 0.66245 0.0
C1803 C 0.45095 0.51389 0.64747 0.0
C1804 C 0.43394 0.5174 0.64646 0.0
C1805 C 0.42398 0.51532 0.66039 0.0
C1806 C 0.4758 0.50429 0.66402 0.0
C1807 C 0.42629 0.52351 0.63068 0.0
H1808 H 0.48544 0.54597 0.61464 0.0
H1809 H 0.47683 0.49613 0.59937 0.0
H1810 H 0.45354 0.54903 0.64299 0.0
H1811 H 0.47098 0.54244 0.65461 0.0
H1812 H 0.4736 0.55726 0.63832 0.0
H1813 H 0.45987 0.47804 0.61407 0.0
H1814 H 0.46021 0.48152 0.63597 0.0
H1815 H 0.44294 0.48819 0.62416 0.0
H1816 H 0.4526 0.50144 0.68754 0.0
H1817 H 0.41103 0.51838 0.65967 0.0
H1818 H 0.48319 0.51541 0.6612 0.0
H1819 H 0.4793 0.4947 0.65498 0.0
H1820 H 0.47911 0.49993 0.67654 0.0
H1821 H 0.43192 0.53543 0.62713 0.0
H1822 H 0.41278 0.52522 0.63178 0.0
H1823 H 0.42875 0.51469 0.62056 0.0
C1824 C 0.75838 0.27189 0.641 0.0
C1825 C 0.77438 0.26775 0.64596 0.0
C1826 C 0.75565 0.28213 0.62738 0.0
C1827 C 0.76925 0.28842 0.61852 0.0
C1828 C 0.78543 0.28432 0.62346 0.0
C1829 C 0.78779 0.27402 0.6371 0.0
C1830 C 0.73822 0.28624 0.62249 0.0
C1831 C 0.80024 0.29078 0.61431 0.0
C1832 C 0.76284 0.30284 0.57455 0.0
C1833 C 0.76203 0.31997 0.57652 0.0
C1834 C 0.76507 0.29243 0.58812 0.0
C1835 C 0.76657 0.29929 0.60406 0.0
C1836 C 0.76569 0.31655 0.60615 0.0
C1837 C 0.76341 0.32668 0.59237 0.0
C1838 C 0.76596 0.27408 0.5854 0.0
C1839 C 0.76722 0.32433 0.62295 0.0
H1840 H 0.74796 0.26727 0.64791 0.0
H1841 H 0.80019 0.2707 0.6407 0.0
H1842 H 0.73635 0.29975 0.62295 0.0
H1843 H 0.73591 0.28226 0.60964 0.0
H1844 H 0.72899 0.28028 0.63061 0.0
H1845 H 0.81201 0.28653 0.6198 0.0
H1846 H 0.79978 0.28672 0.60129 0.0
H1847 H 0.80014 0.30442 0.6143 0.0
H1848 H 0.76201 0.29757 0.56233 0.0
H1849 H 0.76257 0.33987 0.59402 0.0
H1850 H 0.75637 0.26778 0.59279 0.0
H1851 H 0.77805 0.26937 0.5896 0.0
H1852 H 0.76427 0.27068 0.57227 0.0
H1853 H 0.7575 0.31948 0.63122 0.0
H1854 H 0.76618 0.33794 0.6225 0.0
H1855 H 0.77925 0.32108 0.62851 0.0
C1856 C 0.53526 0.97866 0.60328 0.0
C1857 C 0.51811 0.97849 0.60509 0.0
C1858 C 0.54563 0.98105 0.61688 0.0
C1859 C 0.53868 0.98327 0.63268 0.0
C1860 C 0.52138 0.98307 0.6346 0.0
C1861 C 0.5113 0.98072 0.62077 0.0
C1862 C 0.56402 0.9813 0.61433 0.0
C1863 C 0.51351 0.98528 0.65127 0.0
C1864 C 0.56551 0.97474 0.66998 0.0
C1865 C 0.57021 0.99066 0.67472 0.0
C1866 C 0.5552 0.97215 0.65636 0.0
C1867 C 0.54951 0.98582 0.64722 0.0
C1868 C 0.5542 0.00192 0.65193 0.0
C1869 C 0.56446 0.00414 0.66564 0.0
C1870 C 0.55047 0.9548 0.65171 0.0
C1871 C 0.54837 0.01679 0.64248 0.0
H1872 H 0.54058 0.97714 0.59115 0.0
H1873 H 0.49806 0.9804 0.62227 0.0
H1874 H 0.56914 0.99326 0.61846 0.0
H1875 H 0.56989 0.97158 0.62188 0.0
H1876 H 0.56747 0.97935 0.60125 0.0
H1877 H 0.49987 0.98483 0.65067 0.0
H1878 H 0.51782 0.97553 0.65977 0.0
H1879 H 0.51726 0.99726 0.65665 0.0
H1880 H 0.57008 0.96424 0.67679 0.0
H1881 H 0.56785 0.0165 0.66935 0.0
H1882 H 0.55479 0.95204 0.63906 0.0
H1883 H 0.53689 0.95349 0.65171 0.0
H1884 H 0.55575 0.94553 0.66024 0.0
H1885 H 0.55228 0.01586 0.62945 0.0
H1886 H 0.55322 0.02847 0.64768 0.0
H1887 H 0.53474 0.0173 0.64258 0.0
C1888 C 0.85407 0.22894 0.7864 0.0
C1889 C 0.85598 0.22959 0.76926 0.0
C1890 C 0.86754 0.23125 0.79695 0.0
C1891 C 0.88331 0.23424 0.7902 0.0
C1892 C 0.88531 0.23501 0.77293 0.0
C1893 C 0.87161 0.23269 0.76266 0.0
C1894 C 0.86491 0.23045 0.81531 0.0
C1895 C 0.90195 0.23809 0.76528 0.0
C1896 C 0.91596 0.25403 0.81722 0.0
C1897 C 0.92527 0.24035 0.8221 0.0
C1898 C 0.90224 0.25222 0.80688 0.0
C1899 C 0.89777 0.23636 0.80123 0.0
C1900 C 0.90711 0.22252 0.80608 0.0
C1901 C 0.92072 0.22467 0.81648 0.0
C1902 C 0.89258 0.26728 0.80196 0.0
C1903 C 0.90271 0.20541 0.8003 0.0
H1904 H 0.84198 0.22676 0.79157 0.0
H1905 H 0.8732 0.233 0.74943 0.0
H1906 H 0.87252 0.22047 0.82066 0.0
H1907 H 0.86893 0.24213 0.82112 0.0
H1908 H 0.85184 0.22819 0.81859 0.0
H1909 H 0.90137 0.23859 0.75164 0.0
H1910 H 0.90711 0.24986 0.76987 0.0
H1911 H 0.9106 0.2282 0.76891 0.0
H1912 H 0.91953 0.26621 0.82131 0.0
H1913 H 0.92771 0.21402 0.82037 0.0
H1914 H 0.87954 0.26587 0.80572 0.0
H1915 H 0.89274 0.26866 0.78839 0.0
H1916 H 0.89755 0.2787 0.80758 0.0
H1917 H 0.89007 0.20223 0.80435 0.0
H1918 H 0.91132 0.19595 0.80508 0.0
H1919 H 0.90282 0.20492 0.78667 0.0
C1920 C 0.4652 0.88974 0.47415 0.0
C1921 C 0.47872 0.89732 0.48178 0.0
C1922 C 0.46725 0.87594 0.464 0.0
C1923 C 0.4832 0.86945 0.4615 0.0
C1924 C 0.49691 0.87704 0.46913 0.0
C1925 C 0.49451 0.89091 0.47912 0.0
C1926 C 0.45234 0.86821 0.45603 0.0
C1927 C 0.51411 0.87046 0.46678 0.0
C1928 C 0.48683 0.82486 0.44803 0.0
C1929 C 0.48996 0.82651 0.43115 0.0
C1930 C 0.48466 0.83874 0.45806 0.0
C1931 C 0.48553 0.85464 0.45102 0.0
C1932 C 0.48861 0.85638 0.43397 0.0
C1933 C 0.49084 0.84229 0.42425 0.0
C1934 C 0.48155 0.8364 0.47622 0.0
C1935 C 0.48946 0.87312 0.42599 0.0
H1936 H 0.45293 0.89445 0.47633 0.0
H1937 H 0.50506 0.89682 0.48475 0.0
H1938 H 0.45395 0.86785 0.44248 0.0
H1939 H 0.45095 0.85533 0.46028 0.0
H1940 H 0.44084 0.875 0.45887 0.0
H1941 H 0.52344 0.87773 0.47363 0.0
H1942 H 0.51472 0.85749 0.47098 0.0
H1943 H 0.51736 0.87057 0.45353 0.0
H1944 H 0.48633 0.81269 0.45344 0.0
H1945 H 0.49307 0.84361 0.41118 0.0
H1946 H 0.46965 0.84208 0.47967 0.0
H1947 H 0.49128 0.84268 0.48345 0.0
H1948 H 0.48127 0.82321 0.47977 0.0
H1949 H 0.47771 0.87976 0.42789 0.0
H1950 H 0.49192 0.87235 0.41257 0.0
H1951 H 0.49931 0.88057 0.43181 0.0
C1952 C 0.13102 0.28296 0.76281 0.0
C1953 C 0.14578 0.27487 0.76637 0.0
C1954 C 0.11707 0.28067 0.77271 0.0
C1955 C 0.11808 0.27036 0.78671 0.0
C1956 C 0.13306 0.26229 0.79042 0.0
C1957 C 0.14669 0.26449 0.78007 0.0
C1958 C 0.10122 0.28916 0.76812 0.0
C1959 C 0.13474 0.25151 0.80544 0.0
C1960 C 0.08663 0.27702 0.82058 0.0
C1961 C 0.07584 0.26371 0.81818 0.0
C1962 C 0.10051 0.2792 0.81057 0.0
C1963 C 0.1035 0.26809 0.79752 0.0
C1964 C 0.09257 0.2548 0.79481 0.0
C1965 C 0.07902 0.25265 0.80529 0.0
C1966 C 0.11204 0.29338 0.81401 0.0
C1967 C 0.09519 0.24285 0.78083 0.0
H1968 H 0.13034 0.29089 0.75211 0.0
H1969 H 0.15819 0.25834 0.78284 0.0
H1970 H 0.09128 0.27993 0.76653 0.0
H1971 H 0.09738 0.29757 0.77814 0.0
H1972 H 0.10236 0.29638 0.75658 0.0
H1973 H 0.14732 0.24637 0.80675 0.0
H1974 H 0.13179 0.25871 0.81666 0.0
H1975 H 0.12584 0.24118 0.8048 0.0
H1976 H 0.08419 0.28586 0.83024 0.0
H1977 H 0.07104 0.24214 0.80345 0.0
H1978 H 0.11245 0.30176 0.80326 0.0
H1979 H 0.12471 0.28872 0.81598 0.0
H1980 H 0.10829 0.30058 0.825 0.0
H1981 H 0.0959 0.2496 0.769 0.0
H1982 H 0.08518 0.23357 0.77997 0.0
H1983 H 0.10704 0.23632 0.78248 0.0
C1984 C 0.5157 0.61814 0.48966 0.0
C1985 C 0.52243 0.60355 0.48337 0.0
C1986 C 0.51318 0.63187 0.47952 0.0
C1987 C 0.5176 0.63106 0.46271 0.0
C1988 C 0.52439 0.61639 0.45627 0.0
C1989 C 0.52667 0.6028 0.46666 0.0
C1990 C 0.50588 0.6473 0.48684 0.0
C1991 C 0.52928 0.61506 0.4384 0.0
C1992 C 0.49838 0.66157 0.433 0.0
C1993 C 0.51085 0.67342 0.4316 0.0
C1994 C 0.5004 0.64772 0.44311 0.0
C1995 C 0.51529 0.64563 0.4519 0.0
C1996 C 0.52795 0.6575 0.45044 0.0
C1997 C 0.52555 0.67129 0.44035 0.0
C1998 C 0.48656 0.6354 0.44448 0.0
C1999 C 0.54406 0.65562 0.45949 0.0
H2000 H 0.51262 0.61893 0.5026 0.0
H2001 H 0.53164 0.5915 0.46164 0.0
H2002 H 0.51471 0.65764 0.48563 0.0
H2003 H 0.49459 0.65078 0.48002 0.0
H2004 H 0.50273 0.6458 0.50004 0.0
H2005 H 0.53446 0.6028 0.43533 0.0
H2006 H 0.51846 0.61732 0.43042 0.0
H2007 H 0.53859 0.6246 0.43543 0.0
H2008 H 0.48693 0.66326 0.42639 0.0
H2009 H 0.53529 0.68032 0.43913 0.0
H2010 H 0.48252 0.6344 0.45747 0.0
H2011 H 0.4909 0.62305 0.44064 0.0
H2012 H 0.47579 0.6388 0.4368 0.0
H2013 H 0.54181 0.65509 0.47294 0.0
H2014 H 0.55271 0.66589 0.45693 0.0
H2015 H 0.55003 0.64389 0.45592 0.0
C2016 C 0.85423 0.77977 0.71515 0.0
C2017 C 0.85514 0.77535 0.73182 0.0
C2018 C 0.86776 0.77769 0.70463 0.0
C2019 C 0.88251 0.77091 0.71088 0.0
C2020 C 0.8835 0.76637 0.72765 0.0
C2021 C 0.86984 0.7687 0.73792 0.0
C2022 C 0.86625 0.78273 0.68682 0.0
C2023 C 0.89902 0.75905 0.73476 0.0
C2024 C 0.91264 0.75148 0.68094 0.0
C2025 C 0.92463 0.76382 0.67943 0.0
C2026 C 0.89886 0.75363 0.69111 0.0
C2027 C 0.89693 0.76855 0.69987 0.0
C2028 C 0.90887 0.78113 0.69827 0.0
C2029 C 0.9226 0.77859 0.68813 0.0
C2030 C 0.88641 0.73991 0.69254 0.0
C2031 C 0.90721 0.79723 0.70737 0.0
H2032 H 0.84286 0.78469 0.71026 0.0
H2033 H 0.87075 0.7655 0.75082 0.0
H2034 H 0.87582 0.79198 0.68379 0.0
H2035 H 0.86833 0.77194 0.67874 0.0
H2036 H 0.85399 0.78802 0.68394 0.0
H2037 H 0.89772 0.75597 0.748 0.0
H2038 H 0.90233 0.7477 0.72795 0.0
H2039 H 0.90938 0.76781 0.73332 0.0
H2040 H 0.91395 0.74013 0.67407 0.0
H2041 H 0.93191 0.7881 0.68724 0.0
H2042 H 0.87411 0.74434 0.68868 0.0
H2043 H 0.88538 0.73593 0.70555 0.0
H2044 H 0.88971 0.72906 0.68491 0.0
H2045 H 0.89533 0.80315 0.70421 0.0
H2046 H 0.91734 0.80594 0.70446 0.0
H2047 H 0.90715 0.79498 0.72082 0.0
C2048 C 0.02537 0.89802 0.53463 0.0
C2049 C 0.02075 0.89744 0.518 0.0
C2050 C 0.02313 0.88438 0.54497 0.0
C2051 C 0.01598 0.86984 0.53858 0.0
C2052 C 0.01114 0.86921 0.52186 0.0
C2053 C 0.01364 0.88298 0.51177 0.0
C2054 C 0.02847 0.88552 0.56273 0.0
C2055 C 0.00344 0.85392 0.51461 0.0
C2056 C 0.02403 0.82946 0.56061 0.0
C2057 C 0.00955 0.82744 0.56976 0.0
C2058 C 0.0263 0.84322 0.55045 0.0
C2059 C 0.01374 0.85521 0.54934 0.0
C2060 C 0.99907 0.85321 0.5585 0.0
C2061 C 0.99717 0.83938 0.56865 0.0
C2062 C 0.04218 0.84499 0.54099 0.0
C2063 C 0.98534 0.86566 0.55751 0.0
H2064 H 0.03063 0.90921 0.53962 0.0
H2065 H 0.01024 0.88233 0.49889 0.0
H2066 H 0.01781 0.88329 0.57094 0.0
H2067 H 0.03772 0.87587 0.56541 0.0
H2068 H 0.03388 0.8977 0.56577 0.0
H2069 H 0.99997 0.85557 0.5015 0.0
H2070 H 0.01216 0.84348 0.51552 0.0
H2071 H 0.99228 0.8505 0.52167 0.0
H2072 H 0.03372 0.82036 0.56159 0.0
H2073 H 0.98589 0.83777 0.57556 0.0
H2074 H 0.04843 0.8566 0.54452 0.0
H2075 H 0.03958 0.84568 0.52762 0.0
H2076 H 0.05073 0.83458 0.54323 0.0
H2077 H 0.9899 0.87794 0.56136 0.0
H2078 H 0.9747 0.86228 0.56539 0.0
H2079 H 0.98103 0.86679 0.54461 0.0
C2080 C 0.1325 0.73898 0.73881 0.0
C2081 C 0.14681 0.73174 0.73243 0.0
C2082 C 0.11869 0.74173 0.72883 0.0
C2083 C 0.11913 0.737 0.71208 0.0
C2084 C 0.13352 0.72976 0.70553 0.0
C2085 C 0.1472 0.72727 0.71576 0.0
C2086 C 0.10358 0.74953 0.73625 0.0
C2087 C 0.13444 0.72453 0.68773 0.0
C2088 C 0.0785 0.72923 0.69035 0.0
C2089 C 0.07653 0.74373 0.68123 0.0
C2090 C 0.09231 0.72688 0.70041 0.0
C2091 C 0.10441 0.73937 0.70147 0.0
C2092 C 0.10245 0.75409 0.69237 0.0
C2093 C 0.08856 0.75606 0.68231 0.0
C2094 C 0.09403 0.71096 0.70981 0.0
C2095 C 0.11502 0.76775 0.69331 0.0
H2096 H 0.13199 0.74225 0.75172 0.0
H2097 H 0.15827 0.72191 0.71066 0.0
H2098 H 0.10017 0.76071 0.72922 0.0
H2099 H 0.09304 0.74088 0.73545 0.0
H2100 H 0.10541 0.75298 0.74934 0.0
H2101 H 0.14655 0.71911 0.68453 0.0
H2102 H 0.1247 0.71532 0.68508 0.0
H2103 H 0.13218 0.73524 0.6796 0.0
H2104 H 0.06934 0.71957 0.68938 0.0
H2105 H 0.087 0.76735 0.67541 0.0
H2106 H 0.09492 0.71352 0.72319 0.0
H2107 H 0.10554 0.70464 0.70613 0.0
H2108 H 0.08352 0.70248 0.70767 0.0
H2109 H 0.11635 0.77197 0.70622 0.0
H2110 H 0.11162 0.77845 0.68554 0.0
H2111 H 0.12721 0.76315 0.68929 0.0
C2112 C 0.97692 0.60461 0.53542 0.0
C2113 C 0.97763 0.60623 0.51826 0.0
C2114 C 0.97928 0.61824 0.54575 0.0
C2115 C 0.98237 0.63388 0.53876 0.0
C2116 C 0.98306 0.63561 0.52145 0.0
C2117 C 0.9807 0.62176 0.51141 0.0
C2118 C 0.97855 0.6159 0.56416 0.0
C2119 C 0.98624 0.65211 0.51353 0.0
C2120 C 0.97391 0.6718 0.56472 0.0
C2121 C 0.98975 0.67605 0.57012 0.0
C2122 C 0.97133 0.65814 0.55448 0.0
C2123 C 0.98492 0.64844 0.54955 0.0
C2124 C 0.00093 0.65265 0.55495 0.0
C2125 C 0.00316 0.66642 0.56514 0.0
C2126 C 0.95407 0.65402 0.54898 0.0
C2127 C 0.01573 0.64263 0.54994 0.0
H2128 H 0.97476 0.5926 0.54079 0.0
H2129 H 0.98104 0.62312 0.49816 0.0
H2130 H 0.9904 0.61965 0.5698 0.0
H2131 H 0.96885 0.62387 0.56949 0.0
H2132 H 0.97594 0.60295 0.56764 0.0
H2133 H 0.98641 0.65136 0.49989 0.0
H2134 H 0.9766 0.66098 0.51729 0.0
H2135 H 0.99821 0.6571 0.51779 0.0
H2136 H 0.96346 0.67904 0.5687 0.0
H2137 H 0.01546 0.66975 0.56907 0.0
H2138 H 0.95067 0.64152 0.55328 0.0
H2139 H 0.9534 0.65392 0.53535 0.0
H2140 H 0.94486 0.66291 0.55374 0.0
H2141 H 0.01413 0.62968 0.55393 0.0
H2142 H 0.02734 0.64747 0.55529 0.0
H2143 H 0.01689 0.64254 0.53634 0.0
C2144 C 0.78206 0.85593 0.22353 0.0
C2145 C 0.76508 0.85705 0.22644 0.0
C2146 C 0.79248 0.86944 0.22621 0.0
C2147 C 0.78581 0.88442 0.23202 0.0
C2148 C 0.76871 0.88562 0.23507 0.0
C2149 C 0.75856 0.87194 0.23221 0.0
C2150 C 0.81065 0.8677 0.2228 0.0
C2151 C 0.76114 0.90139 0.24128 0.0
C2152 C 0.8147 0.91496 0.25254 0.0
C2153 C 0.81755 0.92623 0.2398 0.0
C2154 C 0.80433 0.90134 0.25021 0.0
C2155 C 0.79669 0.8989 0.23475 0.0
C2156 C 0.7995 0.91024 0.22185 0.0
C2157 C 0.80987 0.92378 0.22454 0.0
C2158 C 0.80154 0.88957 0.26429 0.0
C2159 C 0.79166 0.90799 0.20516 0.0
H2160 H 0.78724 0.84441 0.21931 0.0
H2161 H 0.74544 0.873 0.23427 0.0
H2162 H 0.81455 0.87687 0.21348 0.0
H2163 H 0.81779 0.87021 0.23416 0.0
H2164 H 0.81389 0.85523 0.21826 0.0
H2165 H 0.74769 0.90021 0.24337 0.0
H2166 H 0.76707 0.90514 0.25299 0.0
H2167 H 0.76329 0.91142 0.23229 0.0
H2168 H 0.82046 0.9169 0.26441 0.0
H2169 H 0.8122 0.93233 0.21458 0.0
H2170 H 0.8055 0.87702 0.26072 0.0
H2171 H 0.78823 0.8889 0.26723 0.0
H2172 H 0.80833 0.89326 0.27557 0.0
H2173 H 0.79552 0.89607 0.19977 0.0
H2174 H 0.795 0.91799 0.19647 0.0
H2175 H 0.77807 0.90764 0.20638 0.0
C2176 C 0.77822 0.14504 0.25742 0.0
C2177 C 0.76972 0.14707 0.27228 0.0
C2178 C 0.78853 0.13144 0.25488 0.0
C2179 C 0.79022 0.11951 0.26744 0.0
C2180 C 0.78164 0.12148 0.28246 0.0
C2181 C 0.77155 0.13529 0.28472 0.0
C2182 C 0.79762 0.12985 0.23877 0.0
C2183 C 0.783 0.10893 0.29607 0.0
C2184 C 0.80436 0.07668 0.25531 0.0
C2185 C 0.82092 0.07697 0.26011 0.0
C2186 C 0.79422 0.09044 0.25765 0.0
C2187 C 0.80086 0.10487 0.26482 0.0
C2188 C 0.81761 0.10527 0.26958 0.0
C2189 C 0.82742 0.09127 0.26724 0.0
C2190 C 0.77638 0.08947 0.25258 0.0
C2191 C 0.82517 0.12049 0.27709 0.0
H2192 H 0.77697 0.15423 0.24785 0.0
H2193 H 0.76485 0.13672 0.29615 0.0
H2194 H 0.81105 0.12914 0.24107 0.0
H2195 H 0.79395 0.1183 0.23249 0.0
H2196 H 0.79518 0.14034 0.23037 0.0
H2197 H 0.77553 0.11229 0.307 0.0
H2198 H 0.77887 0.09673 0.29155 0.0
H2199 H 0.79602 0.10764 0.29993 0.0
H2200 H 0.79925 0.06558 0.24996 0.0
H2201 H 0.84027 0.09158 0.2708 0.0
H2202 H 0.77362 0.09917 0.2434 0.0
H2203 H 0.76837 0.09174 0.26339 0.0
H2204 H 0.77313 0.07733 0.24721 0.0
H2205 H 0.82378 0.13105 0.26858 0.0
H2206 H 0.83844 0.11887 0.2799 0.0
H2207 H 0.81865 0.12371 0.28863 0.0
C2208 C 0.39031 0.97373 0.9652 0.0
C2209 C 0.39851 0.98057 0.97878 0.0
C2210 C 0.3766 0.96344 0.9673 0.0
C2211 C 0.37087 0.95997 0.98336 0.0
C2212 C 0.3791 0.96678 0.99713 0.0
C2213 C 0.39284 0.97696 0.99467 0.0
C2214 C 0.36815 0.9564 0.95231 0.0
C2215 C 0.37335 0.96336 0.01445 0.0
C2216 C 0.32644 0.9463 0.98818 0.0
C2217 C 0.32814 0.92924 0.99004 0.0
C2218 C 0.34025 0.95645 0.98608 0.0
C2219 C 0.35614 0.94936 0.98575 0.0
C2220 C 0.35794 0.93215 0.9876 0.0
C2221 C 0.34391 0.9223 0.98977 0.0
C2222 C 0.33785 0.97477 0.98427 0.0
C2223 C 0.37467 0.92412 0.98718 0.0
H2224 H 0.39445 0.97664 0.95287 0.0
H2225 H 0.39924 0.982 0.00523 0.0
H2226 H 0.36782 0.94278 0.95309 0.0
H2227 H 0.35523 0.96072 0.95182 0.0
H2228 H 0.37439 0.95996 0.94069 0.0
H2229 H 0.3811 0.96959 0.02382 0.0
H2230 H 0.36046 0.96754 0.01597 0.0
H2231 H 0.37353 0.94993 0.01685 0.0
H2232 H 0.31429 0.95175 0.98859 0.0
H2233 H 0.34527 0.9091 0.99101 0.0
H2234 H 0.34296 0.97898 0.97234 0.0
H2235 H 0.34463 0.98136 0.99412 0.0
H2236 H 0.32468 0.97835 0.98487 0.0
H2237 H 0.38075 0.9267 0.97525 0.0
H2238 H 0.37396 0.91059 0.9889 0.0
H2239 H 0.38261 0.92937 0.99698 0.0
C2240 C 0.21619 0.35278 0.27418 0.0
C2241 C 0.23329 0.35455 0.27266 0.0
C2242 C 0.20563 0.36624 0.27199 0.0
C2243 C 0.21233 0.38186 0.26816 0.0
C2244 C 0.22956 0.38372 0.26652 0.0
C2245 C 0.23983 0.37005 0.2688 0.0
C2246 C 0.18731 0.36377 0.27379 0.0
C2247 C 0.23717 0.40018 0.26248 0.0
C2248 C 0.18466 0.41392 0.24847 0.0
C2249 C 0.18059 0.42385 0.26199 0.0
C2250 C 0.19495 0.40019 0.2503 0.0
C2251 C 0.20132 0.39629 0.26603 0.0
C2252 C 0.19723 0.40623 0.27973 0.0
C2253 C 0.18693 0.41989 0.27754 0.0
C2254 C 0.19901 0.38987 0.23541 0.0
C2255 C 0.20381 0.40248 0.29669 0.0
H2256 H 0.21103 0.3408 0.27694 0.0
H2257 H 0.25304 0.37155 0.26781 0.0
H2258 H 0.18252 0.37181 0.28371 0.0
H2259 H 0.18097 0.36734 0.26225 0.0
H2260 H 0.18406 0.35082 0.27671 0.0
H2261 H 0.25077 0.39951 0.2614 0.0
H2262 H 0.23209 0.40489 0.25073 0.0
H2263 H 0.23403 0.40925 0.27218 0.0
H2264 H 0.17964 0.41678 0.23646 0.0
H2265 H 0.18404 0.42763 0.288 0.0
H2266 H 0.19497 0.37699 0.23744 0.0
H2267 H 0.21251 0.38964 0.23348 0.0
H2268 H 0.19305 0.39456 0.22405 0.0
H2269 H 0.2001 0.38989 0.30043 0.0
H2270 H 0.19933 0.41132 0.30608 0.0
H2271 H 0.21745 0.40283 0.29656 0.0
C2272 C 0.11924 0.01273 0.47994 0.0
C2273 C 0.10351 0.01956 0.47818 0.0
C2274 C 0.13313 0.02277 0.48211 0.0
C2275 C 0.13123 0.04007 0.4826 0.0
C2276 C 0.11537 0.04705 0.48092 0.0
C2277 C 0.10171 0.03671 0.4787 0.0
C2278 C 0.14985 0.01488 0.48375 0.0
C2279 C 0.11285 0.06543 0.48151 0.0
C2280 C 0.16504 0.0654 0.50269 0.0
C2281 C 0.17374 0.07125 0.48897 0.0
C2282 C 0.15114 0.05532 0.50079 0.0
C2283 C 0.14585 0.05087 0.48481 0.0
C2284 C 0.15457 0.0567 0.47091 0.0
C2285 C 0.16837 0.06685 0.47316 0.0
C2286 C 0.14215 0.04935 0.51591 0.0
C2287 C 0.14931 0.05222 0.45366 0.0
H2288 H 0.12073 0.9995 0.47934 0.0
H2289 H 0.08956 0.04204 0.47755 0.0
H2290 H 0.15804 0.01927 0.47376 0.0
H2291 H 0.15559 0.01853 0.49558 0.0
H2292 H 0.14921 0.00124 0.48321 0.0
H2293 H 0.09971 0.06889 0.48008 0.0
H2294 H 0.11741 0.07039 0.49338 0.0
H2295 H 0.12004 0.07144 0.4716 0.0
H2296 H 0.16923 0.06853 0.51495 0.0
H2297 H 0.17487 0.07149 0.46249 0.0
H2298 H 0.1423 0.03572 0.51632 0.0
H2299 H 0.12908 0.05322 0.51539 0.0
H2300 H 0.14768 0.05414 0.52746 0.0
H2301 H 0.1493 0.03866 0.45217 0.0
H2302 H 0.1575 0.05765 0.44417 0.0
H2303 H 0.13657 0.05653 0.45142 0.0
C2304 C 0.71834 0.14649 0.72575 0.0
C2305 C 0.73525 0.14562 0.72911 0.0
C2306 C 0.70804 0.13285 0.72823 0.0
C2307 C 0.71479 0.118 0.73428 0.0
C2308 C 0.73181 0.11706 0.73778 0.0
C2309 C 0.74184 0.13086 0.73512 0.0
C2310 C 0.68994 0.13433 0.72436 0.0
C2311 C 0.73945 0.10143 0.74425 0.0
C2312 C 0.68581 0.08722 0.75424 0.0
C2313 C 0.68342 0.07584 0.7415 0.0
C2314 C 0.69607 0.10096 0.7521 0.0
C2315 C 0.70404 0.1034 0.73682 0.0
C2316 C 0.70169 0.09194 0.72392 0.0
C2317 C 0.69144 0.07828 0.72643 0.0
C2318 C 0.69838 0.11285 0.76619 0.0
C2319 C 0.7099 0.09419 0.70741 0.0
H2320 H 0.71311 0.15791 0.72133 0.0
H2321 H 0.75492 0.13002 0.73753 0.0
H2322 H 0.6864 0.12504 0.71499 0.0
H2323 H 0.68257 0.13178 0.73555 0.0
H2324 H 0.68664 0.14672 0.71968 0.0
H2325 H 0.75284 0.10281 0.74665 0.0
H2326 H 0.73331 0.09767 0.75583 0.0
H2327 H 0.73764 0.09132 0.73526 0.0
H2328 H 0.67979 0.08529 0.76597 0.0
H2329 H 0.68946 0.06963 0.71647 0.0
H2330 H 0.69432 0.12532 0.76246 0.0
H2331 H 0.71161 0.11372 0.76944 0.0
H2332 H 0.69138 0.10913 0.77732 0.0
H2333 H 0.70599 0.10602 0.70187 0.0
H2334 H 0.70689 0.08409 0.6987 0.0
H2335 H 0.72344 0.09474 0.70897 0.0
C2336 C 0.39832 0.0366 0.52425 0.0
C2337 C 0.39701 0.01955 0.52186 0.0
C2338 C 0.38469 0.04694 0.52205 0.0
C2339 C 0.36938 0.04009 0.51734 0.0
C2340 C 0.36799 0.02291 0.51484 0.0
C2341 C 0.3818 0.01286 0.51714 0.0
C2342 C 0.38667 0.06521 0.52477 0.0
C2343 C 0.35185 0.01515 0.50985 0.0
C2344 C 0.33041 0.06419 0.52627 0.0
C2345 C 0.32695 0.07116 0.51088 0.0
C2346 C 0.34421 0.0541 0.52856 0.0
C2347 C 0.35479 0.05087 0.51512 0.0
C2348 C 0.35138 0.05787 0.49956 0.0
C2349 C 0.33751 0.06794 0.49762 0.0
C2350 C 0.34748 0.04691 0.54536 0.0
C2351 C 0.36234 0.05465 0.48492 0.0
H2352 H 0.41008 0.04188 0.52768 0.0
H2353 H 0.38064 0.99968 0.5155 0.0
H2354 H 0.38346 0.07198 0.51338 0.0
H2355 H 0.37811 0.0694 0.53453 0.0
H2356 H 0.39941 0.06859 0.52841 0.0
H2357 H 0.35288 0.00163 0.50817 0.0
H2358 H 0.34238 0.01764 0.51935 0.0
H2359 H 0.34743 0.02065 0.49818 0.0
H2360 H 0.32243 0.06681 0.53661 0.0
H2361 H 0.33478 0.07311 0.48565 0.0
H2362 H 0.35973 0.05095 0.54984 0.0
H2363 H 0.34771 0.03329 0.54462 0.0
H2364 H 0.33806 0.05062 0.55453 0.0
H2365 H 0.37509 0.05865 0.48768 0.0
H2366 H 0.35806 0.06115 0.47369 0.0
H2367 H 0.36275 0.04127 0.4823 0.0
C2368 C 0.60895 0.47598 0.50816 0.0
C2369 C 0.605 0.48176 0.52393 0.0
C2370 C 0.62262 0.46578 0.5056 0.0
C2371 C 0.6326 0.46126 0.51913 0.0
C2372 C 0.62869 0.46705 0.53507 0.0
C2373 C 0.61493 0.47721 0.53728 0.0
C2374 C 0.62636 0.45979 0.48842 0.0
C2375 C 0.63909 0.46257 0.54979 0.0
C2376 C 0.65947 0.42325 0.51545 0.0
C2377 C 0.67491 0.43014 0.51199 0.0
C2378 C 0.64559 0.43322 0.51775 0.0
C2379 C 0.64718 0.45052 0.5166 0.0
C2380 C 0.66272 0.45757 0.5131 0.0
C2381 C 0.67639 0.44729 0.51082 0.0
C2382 C 0.62922 0.42526 0.52149 0.0
C2383 C 0.6649 0.47596 0.51174 0.0
H2384 H 0.60121 0.47928 0.49782 0.0
H2385 H 0.61207 0.48181 0.54946 0.0
H2386 H 0.63887 0.46379 0.48473 0.0
H2387 H 0.62621 0.44615 0.48812 0.0
H2388 H 0.6174 0.46443 0.47922 0.0
H2389 H 0.63431 0.46799 0.56139 0.0
H2390 H 0.63955 0.44901 0.55119 0.0
H2391 H 0.65189 0.4669 0.54793 0.0
H2392 H 0.65827 0.41002 0.51659 0.0
H2393 H 0.68822 0.45271 0.50791 0.0
H2394 H 0.62001 0.42888 0.5121 0.0
H2395 H 0.62462 0.4296 0.53358 0.0
H2396 H 0.63001 0.41162 0.52177 0.0
H2397 H 0.65688 0.48086 0.50186 0.0
H2398 H 0.67782 0.47949 0.50903 0.0
H2399 H 0.66112 0.48197 0.52339 0.0
C2400 C 0.71586 0.27275 0.36447 0.0
C2401 C 0.72895 0.26937 0.35376 0.0
C2402 C 0.71805 0.28293 0.37824 0.0
C2403 C 0.73368 0.28998 0.38133 0.0
C2404 C 0.74693 0.28668 0.37053 0.0
C2405 C 0.74441 0.27637 0.3569 0.0
C2406 C 0.70366 0.28607 0.38954 0.0
C2407 C 0.76374 0.29406 0.37336 0.0
C2408 C 0.73553 0.32782 0.40872 0.0
C2409 C 0.74051 0.32106 0.42378 0.0
C2410 C 0.73337 0.31787 0.39477 0.0
C2411 C 0.73619 0.30073 0.39594 0.0
C2412 C 0.74126 0.29383 0.4111 0.0
C2413 C 0.7434 0.30409 0.42482 0.0
C2414 C 0.72808 0.32569 0.37879 0.0
C2415 C 0.74427 0.2756 0.41285 0.0
H2416 H 0.70394 0.2672 0.36221 0.0
H2417 H 0.75451 0.27395 0.34856 0.0
H2418 H 0.70666 0.28184 0.40216 0.0
H2419 H 0.70114 0.29945 0.39027 0.0
H2420 H 0.6923 0.27969 0.38538 0.0
H2421 H 0.7727 0.29038 0.36374 0.0
H2422 H 0.76289 0.30767 0.37355 0.0
H2423 H 0.76855 0.29016 0.38552 0.0
H2424 H 0.73348 0.34096 0.4078 0.0
H2425 H 0.74706 0.29877 0.43648 0.0
H2426 H 0.71622 0.3203 0.37468 0.0
H2427 H 0.73728 0.32308 0.36906 0.0
H2428 H 0.7266 0.33922 0.37988 0.0
H2429 H 0.73287 0.26869 0.40988 0.0
H2430 H 0.74827 0.2722 0.42546 0.0
H2431 H 0.75384 0.27159 0.40401 0.0
C2432 C 0.52224 0.03517 0.88482 0.0
C2433 C 0.5194 0.02241 0.89608 0.0
C2434 C 0.53242 0.03281 0.87109 0.0
C2435 C 0.53999 0.01734 0.86859 0.0
C2436 C 0.53723 0.00444 0.87994 0.0
C2437 C 0.52694 0.00712 0.89353 0.0
C2438 C 0.53497 0.04683 0.85919 0.0
C2439 C 0.5452 0.98782 0.87775 0.0
C2440 C 0.55431 0.00645 0.82547 0.0
C2441 C 0.57119 0.00999 0.82633 0.0
C2442 C 0.54402 0.00877 0.83913 0.0
C2443 C 0.55078 0.01467 0.85406 0.0
C2444 C 0.56782 0.01813 0.85507 0.0
C2445 C 0.5778 0.0158 0.84119 0.0
C2446 C 0.52591 0.00494 0.83757 0.0
C2447 C 0.57548 0.02443 0.87079 0.0
H2448 H 0.51629 0.04695 0.88663 0.0
H2449 H 0.52493 0.99728 0.90229 0.0
H2450 H 0.54825 0.04982 0.85827 0.0
H2451 H 0.53076 0.04316 0.84673 0.0
H2452 H 0.52823 0.0581 0.86293 0.0
H2453 H 0.54183 0.9791 0.88771 0.0
H2454 H 0.54148 0.9824 0.86579 0.0
H2455 H 0.55878 0.98918 0.87755 0.0
H2456 H 0.54914 0.00172 0.81412 0.0
H2457 H 0.59077 0.0188 0.84191 0.0
H2458 H 0.51857 0.01609 0.84033 0.0
H2459 H 0.52236 0.99541 0.84666 0.0
H2460 H 0.52258 0.00049 0.82508 0.0
H2461 H 0.56983 0.03634 0.87426 0.0
H2462 H 0.58898 0.02618 0.86966 0.0
H2463 H 0.57304 0.01568 0.88098 0.0
C2464 C 0.27474 0.21427 0.35172 0.0
C2465 C 0.27262 0.23133 0.35322 0.0
C2466 C 0.27244 0.2038 0.36525 0.0
C2467 C 0.26791 0.21054 0.38065 0.0
C2468 C 0.26567 0.22772 0.38223 0.0
C2469 C 0.26806 0.23791 0.36851 0.0
C2470 C 0.27491 0.18552 0.36308 0.0
C2471 C 0.26088 0.23537 0.39846 0.0
C2472 C 0.24813 0.18272 0.41258 0.0
C2473 C 0.26144 0.17931 0.42302 0.0
C2474 C 0.25007 0.19281 0.39871 0.0
C2475 C 0.2657 0.19964 0.39518 0.0
C2476 C 0.2792 0.19618 0.40561 0.0
C2477 C 0.2769 0.18608 0.4194 0.0
C2478 C 0.23539 0.1962 0.38786 0.0
C2479 C 0.29605 0.20325 0.40226 0.0
H2480 H 0.27805 0.20908 0.3399 0.0
H2481 H 0.26663 0.25109 0.36983 0.0
H2482 H 0.28474 0.18116 0.37147 0.0
H2483 H 0.26348 0.17884 0.3664 0.0
H2484 H 0.27832 0.18223 0.35027 0.0
H2485 H 0.25936 0.24892 0.39758 0.0
H2486 H 0.24916 0.22994 0.40289 0.0
H2487 H 0.27039 0.23269 0.40786 0.0
H2488 H 0.2362 0.17736 0.41517 0.0
H2489 H 0.2872 0.18369 0.42753 0.0
H2490 H 0.23796 0.19209 0.37511 0.0
H2491 H 0.23299 0.20962 0.38737 0.0
H2492 H 0.22409 0.1899 0.39227 0.0
H2493 H 0.30027 0.19953 0.38983 0.0
H2494 H 0.30532 0.19918 0.41143 0.0
H2495 H 0.29549 0.21688 0.40242 0.0
C2496 C 0.47982 0.49375 0.89099 0.0
C2497 C 0.4842 0.47775 0.89572 0.0
C2498 C 0.46947 0.4965 0.87744 0.0
C2499 C 0.46329 0.48292 0.86845 0.0
C2500 C 0.46762 0.46674 0.87318 0.0
C2501 C 0.47804 0.46436 0.88673 0.0
C2502 C 0.46511 0.51393 0.87278 0.0
C2503 C 0.46127 0.45195 0.86388 0.0
C2504 C 0.4248 0.48894 0.84263 0.0
C2505 C 0.43139 0.49065 0.82678 0.0
C2506 C 0.43504 0.48642 0.8563 0.0
C2507 C 0.45229 0.48563 0.85408 0.0
C2508 C 0.45902 0.48738 0.83812 0.0
C2509 C 0.44849 0.48985 0.82466 0.0
C2510 C 0.42739 0.48451 0.87312 0.0
C2511 C 0.47736 0.4867 0.83527 0.0
H2512 H 0.48434 0.50416 0.898 0.0
H2513 H 0.48155 0.45197 0.89016 0.0
H2514 H 0.46893 0.5164 0.85992 0.0
H2515 H 0.4516 0.51564 0.87339 0.0
H2516 H 0.47107 0.52314 0.88095 0.0
H2517 H 0.46565 0.44018 0.86925 0.0
H2518 H 0.44763 0.45192 0.86388 0.0
H2519 H 0.46531 0.45257 0.85086 0.0
H2520 H 0.41159 0.48933 0.84432 0.0
H2521 H 0.45366 0.49136 0.81247 0.0
H2522 H 0.43228 0.49405 0.88157 0.0
H2523 H 0.43071 0.47237 0.87837 0.0
H2524 H 0.41378 0.48553 0.87277 0.0
H2525 H 0.48356 0.49648 0.84251 0.0
H2526 H 0.48063 0.48829 0.8221 0.0
H2527 H 0.48228 0.47474 0.83957 0.0
C2528 C 0.71541 0.73238 0.13168 0.0
C2529 C 0.72746 0.73411 0.14389 0.0
C2530 C 0.71801 0.72219 0.11799 0.0
C2531 C 0.73296 0.7134 0.11658 0.0
C2532 C 0.74515 0.71505 0.12892 0.0
C2533 C 0.74229 0.72547 0.14239 0.0
C2534 C 0.70479 0.72091 0.105 0.0
C2535 C 0.76116 0.70573 0.12793 0.0
C2536 C 0.73301 0.67581 0.08881 0.0
C2537 C 0.74059 0.68196 0.0746 0.0
C2538 C 0.73064 0.68585 0.10265 0.0
C2539 C 0.73581 0.70249 0.10218 0.0
C2540 C 0.74349 0.70875 0.08786 0.0
C2541 C 0.74587 0.69837 0.07427 0.0
C2542 C 0.7226 0.67868 0.11777 0.0
C2543 C 0.74898 0.72646 0.08682 0.0
H2544 H 0.70401 0.7392 0.13272 0.0
H2545 H 0.75157 0.72667 0.1519 0.0
H2546 H 0.70981 0.72469 0.09289 0.0
H2547 H 0.70065 0.70796 0.1038 0.0
H2548 H 0.69394 0.72869 0.10785 0.0
H2549 H 0.76931 0.70826 0.13861 0.0
H2550 H 0.75868 0.69232 0.12739 0.0
H2551 H 0.76781 0.70907 0.1165 0.0
H2552 H 0.72909 0.66307 0.08915 0.0
H2553 H 0.75159 0.70319 0.06323 0.0
H2554 H 0.71105 0.68539 0.12051 0.0
H2555 H 0.73082 0.68017 0.12857 0.0
H2556 H 0.71966 0.66541 0.11629 0.0
H2557 H 0.73828 0.73473 0.08858 0.0
H2558 H 0.75483 0.72939 0.07483 0.0
H2559 H 0.75789 0.72921 0.09679 0.0
C2560 C 0.99054 0.02294 0.12107 0.0
C2561 C 0.98391 0.02483 0.10526 0.0
C2562 C 0.98033 0.02058 0.13478 0.0
C2563 C 0.96306 0.02002 0.1326 0.0
C2564 C 0.95628 0.02192 0.11668 0.0
C2565 C 0.96679 0.02435 0.1032 0.0
C2566 C 0.98801 0.01872 0.15159 0.0
C2567 C 0.93793 0.02128 0.11386 0.0
C2568 C 0.9374 0.99884 0.1654 0.0
C2569 C 0.93122 0.01226 0.17431 0.0
C2570 C 0.94773 0.00119 0.15178 0.0
C2571 C 0.95209 0.01735 0.147 0.0
C2572 C 0.94597 0.03096 0.15596 0.0
C2573 C 0.93558 0.02825 0.16948 0.0
C2574 C 0.95401 0.98637 0.14252 0.0
C2575 C 0.95035 0.04838 0.15124 0.0
H2576 H 0.00376 0.02352 0.12276 0.0
H2577 H 0.96161 0.02561 0.09098 0.0
H2578 H 0.98332 0.02843 0.15995 0.0
H2579 H 0.98449 0.0067 0.15699 0.0
H2580 H 0.00164 0.01953 0.15119 0.0
H2581 H 0.93463 0.02307 0.10072 0.0
H2582 H 0.93302 0.00923 0.11797 0.0
H2583 H 0.93175 0.03091 0.12127 0.0
H2584 H 0.93429 0.98644 0.16918 0.0
H2585 H 0.93068 0.0387 0.17614 0.0
H2586 H 0.96765 0.98616 0.14284 0.0
H2587 H 0.95028 0.98713 0.12942 0.0
H2588 H 0.94933 0.97463 0.14771 0.0
H2589 H 0.9639 0.05 0.15143 0.0
H2590 H 0.94475 0.05759 0.15961 0.0
H2591 H 0.94615 0.05091 0.13851 0.0
C2592 C 0.25702 0.77494 0.14418 0.0
C2593 C 0.27294 0.7701 0.14875 0.0
C2594 C 0.25441 0.78513 0.1305 0.0
C2595 C 0.26804 0.79063 0.12117 0.0
C2596 C 0.28414 0.78587 0.12576 0.0
C2597 C 0.28639 0.77566 0.13948 0.0
C2598 C 0.23706 0.78998 0.126 0.0
C2599 C 0.29898 0.79147 0.1161 0.0
C2600 C 0.26116 0.80421 0.07701 0.0
C2601 C 0.26123 0.82139 0.07853 0.0
C2602 C 0.26324 0.79405 0.0908 0.0
C2603 C 0.26547 0.80125 0.1065 0.0
C2604 C 0.26547 0.81858 0.10815 0.0
C2605 C 0.26333 0.82844 0.09415 0.0
C2606 C 0.26319 0.77561 0.08855 0.0
C2607 C 0.26778 0.8267 0.1247 0.0
H2608 H 0.24659 0.77087 0.15141 0.0
H2609 H 0.2987 0.77179 0.1428 0.0
H2610 H 0.23588 0.80357 0.12608 0.0
H2611 H 0.23417 0.78573 0.11335 0.0
H2612 H 0.22781 0.78473 0.13457 0.0
H2613 H 0.31069 0.78688 0.12143 0.0
H2614 H 0.29803 0.78708 0.10321 0.0
H2615 H 0.29944 0.8051 0.11572 0.0
H2616 H 0.25977 0.79867 0.06496 0.0
H2617 H 0.26317 0.8417 0.09546 0.0
H2618 H 0.25353 0.76997 0.09635 0.0
H2619 H 0.27516 0.77045 0.09256 0.0
H2620 H 0.26099 0.77196 0.07556 0.0
H2621 H 0.25809 0.8225 0.13333 0.0
H2622 H 0.26733 0.84033 0.12391 0.0
H2623 H 0.2798 0.82307 0.13002 0.0
C2624 C 0.01054 0.48135 0.12265 0.0
C2625 C 0.01717 0.47836 0.10702 0.0
C2626 C 0.02078 0.48364 0.13637 0.0
C2627 C 0.03807 0.48301 0.13438 0.0
C2628 C 0.04484 0.48014 0.1186 0.0
C2629 C 0.0343 0.47781 0.10512 0.0
C2630 C 0.01311 0.48657 0.15302 0.0
C2631 C 0.06321 0.47952 0.11596 0.0
C2632 C 0.06502 0.50302 0.16695 0.0
C2633 C 0.07014 0.48937 0.17618 0.0
C2634 C 0.0546 0.50113 0.1533 0.0
C2635 C 0.04909 0.48522 0.14883 0.0
C2636 C 0.05415 0.47141 0.15811 0.0
C2637 C 0.06465 0.47364 0.17164 0.0
C2638 C 0.04947 0.51616 0.14369 0.0
C2639 C 0.04853 0.45425 0.15371 0.0
H2640 H 0.9973 0.4816 0.12421 0.0
H2641 H 0.03949 0.47572 0.09302 0.0
H2642 H 0.01689 0.47671 0.16166 0.0
H2643 H 0.01755 0.49839 0.1582 0.0
H2644 H 0.99946 0.48687 0.15246 0.0
H2645 H 0.0665 0.47733 0.10289 0.0
H2646 H 0.0689 0.49126 0.11999 0.0
H2647 H 0.06865 0.46959 0.12355 0.0
H2648 H 0.06899 0.51524 0.17051 0.0
H2649 H 0.06873 0.46301 0.17855 0.0
H2650 H 0.03588 0.51736 0.14387 0.0
H2651 H 0.05323 0.51484 0.13064 0.0
H2652 H 0.05496 0.52764 0.14868 0.0
H2653 H 0.03489 0.45363 0.15381 0.0
H2654 H 0.05337 0.44484 0.16234 0.0
H2655 H 0.05262 0.45112 0.14108 0.0
C2656 C 0.35512 0.72404 0.28654 0.0
C2657 C 0.35593 0.72828 0.26983 0.0
C2658 C 0.36873 0.72619 0.29695 0.0
C2659 C 0.38349 0.73282 0.29054 0.0
C2660 C 0.38438 0.73723 0.27372 0.0
C2661 C 0.37061 0.73487 0.26357 0.0
C2662 C 0.36732 0.72134 0.31482 0.0
C2663 C 0.39991 0.74435 0.26643 0.0
C2664 C 0.41423 0.75188 0.3202 0.0
C2665 C 0.42587 0.73927 0.32184 0.0
C2666 C 0.40038 0.74996 0.31006 0.0
C2667 C 0.39807 0.73503 0.30139 0.0
C2668 C 0.40973 0.72223 0.30302 0.0
C2669 C 0.4235 0.72451 0.31319 0.0
C2670 C 0.38822 0.7639 0.30863 0.0
C2671 C 0.40769 0.70613 0.29397 0.0
H2672 H 0.34376 0.71917 0.29153 0.0
H2673 H 0.37143 0.73796 0.25063 0.0
H2674 H 0.37669 0.71191 0.31782 0.0
H2675 H 0.36977 0.73215 0.32279 0.0
H2676 H 0.35497 0.71634 0.31788 0.0
H2677 H 0.3985 0.74741 0.25319 0.0
H2678 H 0.40348 0.75568 0.27317 0.0
H2679 H 0.41016 0.73547 0.26778 0.0
H2680 H 0.41584 0.76323 0.32702 0.0
H2681 H 0.43255 0.71479 0.31419 0.0
H2682 H 0.37586 0.75972 0.31265 0.0
H2683 H 0.38712 0.76778 0.29559 0.0
H2684 H 0.39183 0.77474 0.31613 0.0
H2685 H 0.39579 0.70034 0.29734 0.0
H2686 H 0.41775 0.69732 0.29674 0.0
H2687 H 0.40743 0.70836 0.28052 0.0
C2688 C 0.99126 0.38458 0.98861 0.0
C2689 C 0.978 0.39524 0.98563 0.0
C2690 C 0.99393 0.37067 0.97874 0.0
C2691 C 0.98341 0.36757 0.96522 0.0
C2692 C 0.97019 0.37837 0.96193 0.0
C2693 C 0.9675 0.39191 0.9723 0.0
C2694 C 0.00798 0.35925 0.98284 0.0
C2695 C 0.95889 0.37565 0.94743 0.0
C2696 C 0.99962 0.34017 0.93103 0.0
C2697 C 0.99123 0.32533 0.93397 0.0
C2698 C 0.99705 0.35405 0.94097 0.0
C2699 C 0.98621 0.35298 0.95453 0.0
C2700 C 0.97796 0.33801 0.95783 0.0
C2701 C 0.98036 0.32448 0.94739 0.0
C2702 C 0.00583 0.3699 0.93686 0.0
C2703 C 0.96656 0.33629 0.97239 0.0
H2704 H 0.9997 0.38713 0.9986 0.0
H2705 H 0.95702 0.39978 0.97 0.0
H2706 H 0.00327 0.34655 0.98461 0.0
H2707 H 0.01684 0.35886 0.97248 0.0
H2708 H 0.01466 0.36306 0.99414 0.0
H2709 H 0.94963 0.38559 0.94614 0.0
H2710 H 0.96618 0.37497 0.93591 0.0
H2711 H 0.95234 0.36376 0.94878 0.0
H2712 H 0.00831 0.34098 0.92097 0.0
H2713 H 0.97352 0.31328 0.94968 0.0
H2714 H 0.01391 0.3736 0.94721 0.0
H2715 H 0.99673 0.3799 0.93506 0.0
H2716 H 0.01343 0.36885 0.92556 0.0
H2717 H 0.97311 0.33973 0.98387 0.0
H2718 H 0.96173 0.32358 0.97374 0.0
H2719 H 0.95601 0.34481 0.97105 0.0
C2720 C 0.62942 0.78461 0.26378 0.0
C2721 C 0.64302 0.77407 0.26427 0.0
C2722 C 0.61589 0.7821 0.27419 0.0
C2723 C 0.61613 0.7689 0.28554 0.0
C2724 C 0.62986 0.75823 0.28609 0.0
C2725 C 0.6431 0.76087 0.27534 0.0
C2726 C 0.60135 0.79358 0.27306 0.0
C2727 C 0.63068 0.74419 0.2982 0.0
C2728 C 0.58882 0.77212 0.32326 0.0
C2729 C 0.57571 0.76164 0.31912 0.0
C2730 C 0.60206 0.77453 0.31248 0.0
C2731 C 0.60214 0.76644 0.29707 0.0
C2732 C 0.5889 0.75599 0.2927 0.0
C2733 C 0.57589 0.75364 0.30381 0.0
C2734 C 0.616 0.78571 0.31761 0.0
C2735 C 0.5885 0.74724 0.27632 0.0
H2736 H 0.6293 0.79473 0.2551 0.0
H2737 H 0.6537 0.75281 0.27581 0.0
H2738 H 0.58997 0.78645 0.27057 0.0
H2739 H 0.59959 0.80001 0.28496 0.0
H2740 H 0.60289 0.80294 0.26324 0.0
H2741 H 0.6422 0.73696 0.29698 0.0
H2742 H 0.62991 0.74902 0.31094 0.0
H2743 H 0.62006 0.73581 0.29638 0.0
H2744 H 0.58866 0.77859 0.33491 0.0
H2745 H 0.56595 0.74536 0.30058 0.0
H2746 H 0.61716 0.79605 0.30879 0.0
H2747 H 0.62779 0.77886 0.31736 0.0
H2748 H 0.61421 0.79086 0.33014 0.0
H2749 H 0.58937 0.75631 0.26618 0.0
H2750 H 0.57712 0.73986 0.27463 0.0
H2751 H 0.59926 0.73893 0.27524 0.0
C2752 C 0.03813 0.11488 0.97733 0.0
C2753 C 0.02471 0.10502 0.98188 0.0
C2754 C 0.03605 0.12852 0.96698 0.0
C2755 C 0.02017 0.13239 0.961 0.0
C2756 C 0.00657 0.12247 0.9655 0.0
C2757 C 0.009 0.10892 0.9759 0.0
C2758 C 0.05084 0.13885 0.96251 0.0
C2759 C 0.98947 0.12617 0.95931 0.0
C2760 C 0.0121 0.17607 0.9466 0.0
C2761 C 0.01352 0.17448 0.92948 0.0
C2762 C 0.01421 0.16247 0.957 0.0
C2763 C 0.01778 0.14688 0.95011 0.0
C2764 C 0.01917 0.14518 0.93284 0.0
C2765 C 0.01705 0.159 0.92273 0.0
C2766 C 0.01271 0.16479 0.97536 0.0
C2767 C 0.02289 0.12874 0.92504 0.0
H2768 H 0.05026 0.11207 0.98209 0.0
H2769 H 0.99862 0.10123 0.97921 0.0
H2770 H 0.05237 0.13916 0.94896 0.0
H2771 H 0.04896 0.1517 0.96667 0.0
H2772 H 0.06237 0.13411 0.9681 0.0
H2773 H 0.98022 0.11721 0.96389 0.0
H2774 H 0.98573 0.13869 0.96323 0.0
H2775 H 0.98931 0.12599 0.94567 0.0
H2776 H 0.00958 0.18804 0.95189 0.0
H2777 H 0.01797 0.15766 0.9095 0.0
H2778 H 0.02439 0.16126 0.98146 0.0
H2779 H 0.00293 0.15665 0.9803 0.0
H2780 H 0.00978 0.1777 0.97875 0.0
H2781 H 0.03481 0.12401 0.92967 0.0
H2782 H 0.02348 0.12947 0.91141 0.0
H2783 H 0.0133 0.11966 0.9285 0.0
C2784 C 0.37044 0.26567 0.23848 0.0
C2785 C 0.35627 0.27356 0.23257 0.0
C2786 C 0.38419 0.26329 0.22833 0.0
C2787 C 0.38386 0.26907 0.21192 0.0
C2788 C 0.36964 0.27707 0.20588 0.0
C2789 C 0.356 0.27914 0.21624 0.0
C2790 C 0.39911 0.25464 0.23519 0.0
C2791 C 0.36883 0.28345 0.18846 0.0
C2792 C 0.4246 0.27661 0.19031 0.0
C2793 C 0.4259 0.26262 0.1803 0.0
C2794 C 0.41096 0.27888 0.20064 0.0
C2795 C 0.39841 0.2668 0.20107 0.0
C2796 C 0.39972 0.2526 0.19108 0.0
C2797 C 0.41342 0.25071 0.18076 0.0
C2798 C 0.40992 0.29427 0.21098 0.0
C2799 C 0.38668 0.23936 0.19133 0.0
H2800 H 0.37088 0.26154 0.25114 0.0
H2801 H 0.34503 0.285 0.21147 0.0
H2802 H 0.40208 0.24373 0.22756 0.0
H2803 H 0.40993 0.26296 0.23475 0.0
H2804 H 0.39728 0.25057 0.24811 0.0
H2805 H 0.35695 0.28958 0.18572 0.0
H2806 H 0.37895 0.29236 0.1863 0.0
H2807 H 0.37054 0.27317 0.17965 0.0
H2808 H 0.43414 0.28592 0.18986 0.0
H2809 H 0.41449 0.23979 0.17318 0.0
H2810 H 0.40906 0.29097 0.22419 0.0
H2811 H 0.39862 0.30121 0.20781 0.0
H2812 H 0.42072 0.30247 0.20924 0.0
H2813 H 0.38529 0.23446 0.20399 0.0
H2814 H 0.38962 0.22899 0.18293 0.0
H2815 H 0.37463 0.24461 0.18768 0.0
C2816 C 0.53816 0.38836 0.02635 0.0
C2817 C 0.52499 0.39504 0.0174 0.0
C2818 C 0.53589 0.37475 0.03672 0.0
C2819 C 0.52013 0.36747 0.03803 0.0
C2820 C 0.50679 0.37409 0.02902 0.0
C2821 C 0.50935 0.38784 0.01891 0.0
C2822 C 0.5504 0.36811 0.04621 0.0
C2823 C 0.48981 0.3666 0.03003 0.0
C2824 C 0.51784 0.32315 0.05262 0.0
C2825 C 0.51308 0.3251 0.06907 0.0
C2826 C 0.52005 0.33683 0.04234 0.0
C2827 C 0.51762 0.35285 0.04874 0.0
C2828 C 0.51287 0.35489 0.06537 0.0
C2829 C 0.51056 0.34097 0.07531 0.0
C2830 C 0.52489 0.33415 0.02462 0.0
C2831 C 0.51039 0.37177 0.07269 0.0
H2832 H 0.55034 0.39364 0.02509 0.0
H2833 H 0.49904 0.39304 0.01229 0.0
H2834 H 0.54759 0.36801 0.05957 0.0
H2835 H 0.55285 0.35521 0.04249 0.0
H2836 H 0.56175 0.37546 0.0442 0.0
H2837 H 0.4808 0.37308 0.02208 0.0
H2838 H 0.49027 0.35348 0.02629 0.0
H2839 H 0.48533 0.36698 0.04291 0.0
H2840 H 0.51963 0.31088 0.04773 0.0
H2841 H 0.50703 0.3425 0.08808 0.0
H2842 H 0.53679 0.34033 0.02207 0.0
H2843 H 0.51559 0.33973 0.01636 0.0
H2844 H 0.52609 0.3209 0.02151 0.0
H2845 H 0.5219 0.37904 0.07164 0.0
H2846 H 0.50675 0.37124 0.08585 0.0
H2847 H 0.50073 0.37846 0.06577 0.0
C2848 C 0.63295 0.23571 0.23765 0.0
C2849 C 0.64737 0.22858 0.23143 0.0
C2850 C 0.61911 0.23806 0.2276 0.0
C2851 C 0.61963 0.23301 0.21095 0.0
C2852 C 0.63412 0.22579 0.20458 0.0
C2853 C 0.64783 0.22372 0.21487 0.0
C2854 C 0.6039 0.24586 0.23483 0.0
C2855 C 0.63512 0.2202 0.18689 0.0
C2856 C 0.57897 0.22501 0.18931 0.0
C2857 C 0.57695 0.23945 0.18008 0.0
C2858 C 0.59286 0.2227 0.1993 0.0
C2859 C 0.60496 0.2352 0.20022 0.0
C2860 C 0.603 0.24982 0.19099 0.0
C2861 C 0.58907 0.25173 0.18098 0.0
C2862 C 0.59455 0.20691 0.20892 0.0
C2863 C 0.61562 0.26345 0.19171 0.0
H2864 H 0.63237 0.23927 0.25049 0.0
H2865 H 0.65898 0.21842 0.20988 0.0
H2866 H 0.60055 0.257 0.2277 0.0
H2867 H 0.59339 0.2372 0.23399 0.0
H2868 H 0.60561 0.24942 0.24792 0.0
H2869 H 0.64725 0.21471 0.18386 0.0
H2870 H 0.62539 0.21095 0.18437 0.0
H2871 H 0.63292 0.23076 0.17854 0.0
H2872 H 0.56957 0.21556 0.1889 0.0
H2873 H 0.58775 0.26282 0.17371 0.0
H2874 H 0.59503 0.20965 0.22228 0.0
H2875 H 0.60624 0.20071 0.20564 0.0
H2876 H 0.58421 0.19827 0.20659 0.0
H2877 H 0.61707 0.26778 0.20457 0.0
H2878 H 0.61221 0.2741 0.18387 0.0
H2879 H 0.62776 0.25877 0.18764 0.0
C2880 C 0.46488 0.11183 0.0265 0.0
C2881 C 0.47814 0.10513 0.01773 0.0
C2882 C 0.46704 0.12541 0.03694 0.0
C2883 C 0.48283 0.13261 0.03855 0.0
C2884 C 0.49625 0.12599 0.02968 0.0
C2885 C 0.49377 0.11229 0.01946 0.0
C2886 C 0.45244 0.13207 0.04627 0.0
C2887 C 0.51325 0.13338 0.03101 0.0
C2888 C 0.48541 0.17671 0.05382 0.0
C2889 C 0.48987 0.17453 0.07036 0.0
C2890 C 0.48318 0.16319 0.04331 0.0
C2891 C 0.48529 0.14707 0.04951 0.0
C2892 C 0.4897 0.14475 0.06619 0.0
C2893 C 0.49202 0.1585 0.07638 0.0
C2894 C 0.47855 0.16615 0.02557 0.0
C2895 C 0.49197 0.12774 0.07327 0.0
H2896 H 0.45271 0.10657 0.02506 0.0
H2897 H 0.50416 0.10707 0.01296 0.0
H2898 H 0.45498 0.13186 0.05967 0.0
H2899 H 0.45024 0.14507 0.04278 0.0
H2900 H 0.44104 0.12491 0.04387 0.0
H2901 H 0.52233 0.12695 0.0231 0.0
H2902 H 0.51291 0.14654 0.02743 0.0
H2903 H 0.51757 0.13284 0.04394 0.0
H2904 H 0.48345 0.18901 0.04911 0.0
H2905 H 0.49571 0.15667 0.08906 0.0
H2906 H 0.46654 0.16027 0.02285 0.0
H2907 H 0.4878 0.16045 0.01733 0.0
H2908 H 0.47767 0.17946 0.0226 0.0
H2909 H 0.48052 0.12047 0.07171 0.0
H2910 H 0.4952 0.12803 0.08654 0.0
H2911 H 0.50185 0.12119 0.06653 0.0
C2912 C 0.26222 0.37123 0.73303 0.0
C2913 C 0.26824 0.35661 0.72611 0.0
C2914 C 0.27258 0.3848 0.73567 0.0
C2915 C 0.28936 0.3838 0.73115 0.0
C2916 C 0.29552 0.36914 0.72409 0.0
C2917 C 0.28491 0.3557 0.72173 0.0
C2918 C 0.26557 0.40021 0.74329 0.0
C2919 C 0.31333 0.36764 0.71906 0.0
C2920 C 0.3124 0.42388 0.72422 0.0
C2921 C 0.32115 0.42561 0.73902 0.0
C2922 C 0.30215 0.41026 0.72144 0.0
C2923 C 0.30045 0.39813 0.7338 0.0
C2924 C 0.30924 0.39976 0.74874 0.0
C2925 C 0.31954 0.41343 0.75114 0.0
C2926 C 0.29303 0.40891 0.70531 0.0
C2927 C 0.30771 0.3871 0.76224 0.0
H2928 H 0.24931 0.37215 0.73622 0.0
H2929 H 0.28975 0.34439 0.71662 0.0
H2930 H 0.2724 0.40329 0.75471 0.0
H2931 H 0.26707 0.41072 0.73473 0.0
H2932 H 0.25232 0.39891 0.74633 0.0
H2933 H 0.31613 0.35546 0.71353 0.0
H2934 H 0.31645 0.37736 0.71001 0.0
H2935 H 0.3214 0.36948 0.7299 0.0
H2936 H 0.31335 0.43333 0.71488 0.0
H2937 H 0.32644 0.4145 0.7625 0.0
H2938 H 0.27958 0.40887 0.70756 0.0
H2939 H 0.29611 0.39712 0.69916 0.0
H2940 H 0.296 0.41918 0.6968 0.0
H2941 H 0.29469 0.38605 0.76617 0.0
H2942 H 0.31533 0.39021 0.77316 0.0
H2943 H 0.31152 0.37486 0.75759 0.0
C2944 C 0.26982 0.63495 0.78469 0.0
C2945 C 0.26696 0.64628 0.77201 0.0
C2946 C 0.27999 0.62124 0.78221 0.0
C2947 C 0.28755 0.61886 0.76671 0.0
C2948 C 0.2847 0.63024 0.75386 0.0
C2949 C 0.2744 0.6438 0.75665 0.0
C2950 C 0.28261 0.60928 0.79617 0.0
C2951 C 0.29266 0.62819 0.73721 0.0
C2952 C 0.32573 0.59204 0.76533 0.0
C2953 C 0.31937 0.57707 0.75949 0.0
C2954 C 0.31555 0.60578 0.76756 0.0
C2955 C 0.29855 0.60451 0.764 0.0
C2956 C 0.29205 0.58948 0.75806 0.0
C2957 C 0.30254 0.57597 0.75582 0.0
C2958 C 0.32296 0.62161 0.77388 0.0
C2959 C 0.27398 0.58765 0.75416 0.0
H2960 H 0.26394 0.63671 0.79651 0.0
H2961 H 0.27237 0.65262 0.74688 0.0
H2962 H 0.27866 0.59678 0.79238 0.0
H2963 H 0.29588 0.6086 0.79926 0.0
H2964 H 0.27571 0.61282 0.80741 0.0
H2965 H 0.28909 0.63807 0.72849 0.0
H2966 H 0.30624 0.62826 0.73854 0.0
H2967 H 0.28917 0.61615 0.73182 0.0
H2968 H 0.33866 0.59295 0.76844 0.0
H2969 H 0.29755 0.56454 0.75108 0.0
H2970 H 0.31727 0.62494 0.78582 0.0
H2971 H 0.32035 0.63178 0.76517 0.0
H2972 H 0.33648 0.62072 0.7756 0.0
H2973 H 0.26655 0.59022 0.76531 0.0
H2974 H 0.27086 0.57513 0.74963 0.0
H2975 H 0.27032 0.59673 0.74467 0.0
C2976 C 0.8814 0.4888 0.48035 0.0
C2977 C 0.89728 0.48225 0.47895 0.0
C2978 C 0.86768 0.47853 0.48247 0.0
C2979 C 0.8699 0.46129 0.48329 0.0
C2980 C 0.88591 0.45459 0.48198 0.0
C2981 C 0.89941 0.46515 0.47978 0.0
C2982 C 0.85079 0.48612 0.4837 0.0
C2983 C 0.88879 0.43628 0.48293 0.0
C2984 C 0.83615 0.43585 0.50325 0.0
C2985 C 0.82772 0.42966 0.48949 0.0
C2986 C 0.84996 0.44605 0.50141 0.0
C2987 C 0.85545 0.45025 0.48544 0.0
C2988 C 0.84704 0.44404 0.4715 0.0
C2989 C 0.83332 0.43378 0.4737 0.0
C2990 C 0.85863 0.45242 0.51657 0.0
C2991 C 0.85252 0.44825 0.45427 0.0
H2992 H 0.87967 0.50199 0.47951 0.0
H2993 H 0.91168 0.46004 0.47889 0.0
H2994 H 0.84283 0.48139 0.47366 0.0
H2995 H 0.84493 0.48259 0.4955 0.0
H2996 H 0.85117 0.49976 0.48292 0.0
H2997 H 0.90201 0.43305 0.4818 0.0
H2998 H 0.88412 0.43145 0.49481 0.0
H2999 H 0.88187 0.42994 0.47301 0.0
H3000 H 0.83178 0.43293 0.51549 0.0
H3001 H 0.82705 0.42886 0.46301 0.0
H3002 H 0.8582 0.46606 0.51678 0.0
H3003 H 0.87178 0.44882 0.51629 0.0
H3004 H 0.85304 0.44771 0.5281 0.0
H3005 H 0.85229 0.46178 0.4525 0.0
H3006 H 0.84461 0.44246 0.44474 0.0
H3007 H 0.86538 0.44416 0.45235 0.0
C3008 C 0.72335 0.85693 0.75783 0.0
C3009 C 0.7317 0.8549 0.77278 0.0
C3010 C 0.71292 0.87043 0.75526 0.0
C3011 C 0.71094 0.88225 0.76789 0.0
C3012 C 0.71935 0.88027 0.78301 0.0
C3013 C 0.72957 0.86657 0.7853 0.0
C3014 C 0.70402 0.87203 0.73904 0.0
C3015 C 0.71768 0.89271 0.7967 0.0
C3016 C 0.69666 0.92506 0.75589 0.0
C3017 C 0.68004 0.92463 0.76047 0.0
C3018 C 0.70686 0.91135 0.75826 0.0
C3019 C 0.70023 0.89683 0.76522 0.0
C3020 C 0.68342 0.89628 0.76974 0.0
C3021 C 0.67355 0.91023 0.76739 0.0
C3022 C 0.72476 0.91247 0.75346 0.0
C3023 C 0.67587 0.88096 0.77702 0.0
H3024 H 0.72484 0.84783 0.7482 0.0
H3025 H 0.73616 0.86513 0.79681 0.0
H3026 H 0.69056 0.87265 0.74115 0.0
H3027 H 0.7077 0.88364 0.73287 0.0
H3028 H 0.70664 0.8616 0.73061 0.0
H3029 H 0.725 0.88932 0.80773 0.0
H3030 H 0.7218 0.90497 0.79235 0.0
H3031 H 0.7046 0.89388 0.80036 0.0
H3032 H 0.70176 0.93623 0.75071 0.0
H3033 H 0.66066 0.90982 0.77078 0.0
H3034 H 0.72772 0.90286 0.74425 0.0
H3035 H 0.73264 0.91021 0.76437 0.0
H3036 H 0.728 0.92467 0.74823 0.0
H3037 H 0.67747 0.87046 0.76845 0.0
H3038 H 0.66255 0.88246 0.77962 0.0
H3039 H 0.68224 0.87772 0.78863 0.0
C3040 C 0.6132 0.52691 0.96442 0.0
C3041 C 0.60639 0.51823 0.9777 0.0
C3042 C 0.62676 0.53738 0.9666 0.0
C3043 C 0.63384 0.5391 0.98241 0.0
C3044 C 0.62711 0.53034 0.99586 0.0
C3045 C 0.61342 0.52009 0.99337 0.0
C3046 C 0.63353 0.5466 0.95196 0.0
C3047 C 0.63439 0.53179 0.0129 0.0
C3048 C 0.67796 0.55437 0.98496 0.0
C3049 C 0.67579 0.57095 0.98923 0.0
C3050 C 0.66443 0.54383 0.98285 0.0
C3051 C 0.64831 0.55006 0.98486 0.0
C3052 C 0.64601 0.56678 0.98912 0.0
C3053 C 0.65976 0.57699 0.99134 0.0
C3054 C 0.66738 0.52605 0.9784 0.0
C3055 C 0.629 0.57389 0.99129 0.0
H3056 H 0.60805 0.52536 0.95222 0.0
H3057 H 0.60812 0.51366 0.00376 0.0
H3058 H 0.63336 0.56002 0.95443 0.0
H3059 H 0.64652 0.54305 0.94984 0.0
H3060 H 0.62642 0.54415 0.94055 0.0
H3061 H 0.62786 0.52397 0.022 0.0
H3062 H 0.64754 0.52817 0.01266 0.0
H3063 H 0.63386 0.54475 0.01711 0.0
H3064 H 0.69026 0.54963 0.98304 0.0
H3065 H 0.65795 0.5897 0.9949 0.0
H3066 H 0.66159 0.52323 0.96636 0.0
H3067 H 0.66157 0.5179 0.98767 0.0
H3068 H 0.68068 0.52304 0.97765 0.0
H3069 H 0.62179 0.57229 0.97981 0.0
H3070 H 0.62931 0.58718 0.99445 0.0
H3071 H 0.62238 0.56722 0.00117 0.0
C3072 C 0.24049 0.63039 0.23053 0.0
C3073 C 0.23383 0.64617 0.2286 0.0
C3074 C 0.2303 0.61663 0.23274 0.0
C3075 C 0.21302 0.61871 0.23311 0.0
C3076 C 0.20621 0.63461 0.23123 0.0
C3077 C 0.2167 0.64815 0.22897 0.0
C3078 C 0.23801 0.59985 0.23459 0.0
C3079 C 0.18785 0.63733 0.23166 0.0
C3080 C 0.18587 0.58178 0.22387 0.0
C3081 C 0.18136 0.57665 0.2397 0.0
C3082 C 0.19617 0.59544 0.22154 0.0
C3083 C 0.20205 0.60423 0.23539 0.0
C3084 C 0.19751 0.59915 0.25141 0.0
C3085 C 0.18725 0.58539 0.25337 0.0
C3086 C 0.20083 0.60042 0.20427 0.0
C3087 C 0.20346 0.60827 0.26646 0.0
H3088 H 0.25371 0.62877 0.23005 0.0
H3089 H 0.21149 0.66034 0.22769 0.0
H3090 H 0.2343 0.5943 0.24648 0.0
H3091 H 0.23353 0.59156 0.2247 0.0
H3092 H 0.25165 0.60033 0.23406 0.0
H3093 H 0.18453 0.65049 0.2301 0.0
H3094 H 0.18183 0.6301 0.22176 0.0
H3095 H 0.18277 0.63293 0.24353 0.0
H3096 H 0.18153 0.57493 0.21327 0.0
H3097 H 0.18364 0.5816 0.26563 0.0
H3098 H 0.21439 0.60003 0.20283 0.0
H3099 H 0.1969 0.61326 0.20191 0.0
H3100 H 0.19518 0.59231 0.19482 0.0
H3101 H 0.2171 0.60822 0.26686 0.0
H3102 H 0.19874 0.60278 0.27805 0.0
H3103 H 0.19949 0.6213 0.26588 0.0
C3104 C 0.88106 0.51308 0.02352 0.0
C3105 C 0.89706 0.51945 0.02258 0.0
C3106 C 0.86731 0.52326 0.02134 0.0
C3107 C 0.86964 0.54017 0.01792 0.0
C3108 C 0.88578 0.54665 0.01682 0.0
C3109 C 0.89931 0.53622 0.01928 0.0
C3110 C 0.8503 0.51594 0.02283 0.0
C3111 C 0.88875 0.56457 0.01298 0.0
C3112 C 0.83415 0.56294 0.99783 0.0
C3113 C 0.82723 0.57132 0.01125 0.0
C3114 C 0.84808 0.55295 0.99978 0.0
C3115 C 0.85516 0.55109 0.01558 0.0
C3116 C 0.84826 0.55947 0.02918 0.0
C3117 C 0.83447 0.56956 0.02683 0.0
C3118 C 0.85516 0.5443 0.98496 0.0
C3119 C 0.8554 0.55771 0.04623 0.0
H3120 H 0.87929 0.50015 0.02626 0.0
H3121 H 0.91168 0.54113 0.01839 0.0
H3122 H 0.84338 0.5223 0.03272 0.0
H3123 H 0.84338 0.51779 0.01122 0.0
H3124 H 0.8506 0.50257 0.02562 0.0
H3125 H 0.90206 0.56762 0.01234 0.0
H3126 H 0.88296 0.56777 0.00104 0.0
H3127 H 0.88296 0.5724 0.02252 0.0
H3128 H 0.82853 0.56398 0.98579 0.0
H3129 H 0.82943 0.57619 0.03723 0.0
H3130 H 0.85449 0.53079 0.98671 0.0
H3131 H 0.86834 0.54756 0.98351 0.0
H3132 H 0.84857 0.5475 0.97342 0.0
H3133 H 0.85528 0.54459 0.04997 0.0
H3134 H 0.8485 0.56495 0.05554 0.0
H3135 H 0.86841 0.56183 0.0463 0.0
C3136 C 0.11567 0.97831 0.03746 0.0
C3137 C 0.10599 0.98316 0.02403 0.0
C3138 C 0.1293 0.96796 0.03531 0.0
C3139 C 0.13335 0.96232 0.01935 0.0
C3140 C 0.12361 0.96712 0.00574 0.0
C3141 C 0.11005 0.97748 0.00825 0.0
C3142 C 0.13943 0.96315 0.05011 0.0
C3143 C 0.1275 0.96129 0.98855 0.0
C3144 C 0.17709 0.948 0.01149 0.0
C3145 C 0.17542 0.93085 0.0124 0.0
C3146 C 0.1635 0.95838 0.0137 0.0
C3147 C 0.14784 0.95145 0.01688 0.0
C3148 C 0.14604 0.93416 0.01777 0.0
C3149 C 0.15985 0.92406 0.01553 0.0
C3150 C 0.16589 0.97677 0.01262 0.0
C3151 C 0.12955 0.92632 0.02117 0.0
H3152 H 0.11274 0.98283 0.04965 0.0
H3153 H 0.10249 0.981 0.99785 0.0
H3154 H 0.13975 0.94957 0.05131 0.0
H3155 H 0.1523 0.96739 0.0485 0.0
H3156 H 0.13453 0.96844 0.06172 0.0
H3157 H 0.11871 0.96615 0.97929 0.0
H3158 H 0.1401 0.96521 0.98506 0.0
H3159 H 0.12721 0.94766 0.98808 0.0
H3160 H 0.18903 0.95332 0.00884 0.0
H3161 H 0.1585 0.91084 0.01646 0.0
H3162 H 0.16202 0.98266 0.0243 0.0
H3163 H 0.15805 0.98188 0.0027 0.0
H3164 H 0.17888 0.9802 0.01012 0.0
H3165 H 0.12482 0.93055 0.03324 0.0
H3166 H 0.13019 0.91267 0.02127 0.0
H3167 H 0.12051 0.93016 0.0117 0.0
loop_
_geom_bond_atom_site_label_1
_geom_bond_atom_site_label_2
_geom_bond_distance
_geom_bond_site_symmetry_2
_ccdc_geom_bond_type
C0 C1 1.384 . S
C0 H13 0.947 . S
C0 C35 1.382 . S
C1 C0 1.384 . S
C1 C2 1.378 1_655 S
C2 C1 1.378 1_455 S
C2 C3 1.378 . S
C2 H14 0.952 . S
C3 C2 1.378 . S
C3 H15 0.950 . S
C3 C34 1.383 . S
H4 C23 0.947 . S
H5 C24 0.946 . S
H6 C26 0.953 . S
H7 C27 0.945 . S
H8 C29 0.952 . S
H9 C30 0.949 . S
H10 C32 0.950 . S
H11 C33 0.948 . S
H12 C35 0.951 . S
H13 C0 0.947 . S
H14 C2 0.952 . S
H15 C3 0.950 . S
N16 C19 1.382 . S
N16 C21 1.363 . S
N17 C19 1.371 . S
N17 C20 1.372 . S
N18 C20 1.361 . S
N18 C21 1.377 . S
C19 N16 1.382 . S
C19 N17 1.371 . S
C19 C22 1.480 . S
C20 N17 1.372 . S
C20 N18 1.361 . S
C20 C28 1.457 . S
C21 N16 1.363 . S
C21 N18 1.377 . S
C21 C34 1.479 . S
C22 C19 1.480 . S
C22 C23 1.383 1_545 S
C22 C27 1.385 . S
C23 H4 0.947 . S
C23 C22 1.383 1_565 S
C23 C24 1.388 . S
C24 H5 0.946 . S
C24 C23 1.388 . S
C24 C25 1.384 . S
C25 C24 1.384 . S
C25 C26 1.377 1_565 S
C26 H6 0.953 . S
C26 C25 1.377 1_545 S
C26 C27 1.369 . S
C27 H7 0.945 . S
C27 C22 1.385 . S
C27 C26 1.369 . S
C28 C20 1.457 . S
C28 C29 1.372 1_554 S
C28 C33 1.364 . S
C29 H8 0.952 . S
C29 C28 1.372 1_556 S
C29 C30 1.389 . S
C30 H9 0.949 . S
C30 C29 1.389 . S
C30 C31 1.387 . S
C31 C30 1.387 . S
C31 C32 1.372 1_556 S
C32 H10 0.950 . S
C32 C31 1.372 1_554 S
C32 C33 1.379 . S
C33 H11 0.948 . S
C33 C28 1.364 . S
C33 C32 1.379 . S
C34 C3 1.383 . S
C34 C21 1.479 . S
C34 C35 1.398 1_455 S
C35 C0 1.382 . S
C35 H12 0.951 . S
C35 C34 1.398 1_655 S
C36 C37 1.384 . S
C36 H49 0.947 . S
C36 C71 1.382 . S
C37 C36 1.384 . S
C37 C38 1.378 . S
C38 C37 1.378 . S
C38 C39 1.378 . S
C38 H50 0.952 . S
C39 C38 1.378 . S
C39 H51 0.950 . S
C39 C70 1.383 . S
H40 C59 0.947 . S
H41 C60 0.946 . S
H42 C62 0.953 . S
H43 C63 0.945 . S
H44 C65 0.952 . S
H45 C66 0.949 . S
H46 C68 0.950 . S
H47 C69 0.948 . S
H48 C71 0.951 . S
H49 C36 0.947 . S
H50 C38 0.952 . S
H51 C39 0.950 . S
N52 C55 1.382 . S
N52 C57 1.363 . S
N53 C55 1.371 . S
N53 C56 1.372 . S
N54 C56 1.361 . S
N54 C57 1.377 . S
C55 N52 1.382 . S
C55 N53 1.371 . S
C55 C58 1.480 . S
C56 N53 1.372 . S
C56 N54 1.361 . S
C56 C64 1.457 . S
C57 N52 1.363 . S
C57 N54 1.377 . S
C57 C70 1.479 . S
C58 C55 1.480 . S
C58 C59 1.383 . S
C58 C63 1.385 . S
C59 H40 0.947 . S
C59 C58 1.383 . S
C59 C60 1.388 . S
C60 H41 0.946 . S
C60 C59 1.388 . S
C60 C61 1.384 . S
C61 C60 1.384 . S
C61 C62 1.377 . S
C62 H42 0.953 . S
C62 C61 1.377 . S
C62 C63 1.369 . S
C63 H43 0.945 . S
C63 C58 1.385 . S
C63 C62 1.369 . S
C64 C56 1.457 . S
C64 C65 1.372 . S
C64 C69 1.364 . S
C65 H44 0.952 . S
C65 C64 1.372 . S
C65 C66 1.389 . S
C66 H45 0.949 . S
C66 C65 1.389 . S
C66 C67 1.387 . S
C67 C66 1.387 . S
C67 C68 1.372 . S
C68 H46 0.950 . S
C68 C67 1.372 . S
C68 C69 1.379 . S
C69 H47 0.948 . S
C69 C64 1.364 . S
C69 C68 1.379 . S
C70 C39 1.383 . S
C70 C57 1.479 . S
C70 C71 1.398 . S
C71 C36 1.382 . S
C71 H48 0.951 . S
C71 C70 1.398 . S
C72 C73 1.384 1_554 S
C72 H85 0.947 . S
C72 C107 1.382 . S
C73 C72 1.384 1_556 S
C73 C74 1.378 . S
C74 C73 1.378 . S
C74 C75 1.378 . S
C74 H86 0.952 . S
C75 C74 1.378 . S
C75 H87 0.950 . S
C75 C106 1.383 1_556 S
H76 C95 0.947 . S
H77 C96 0.946 . S
H78 C98 0.953 . S
H79 C99 0.945 . S
H80 C101 0.952 . S
H81 C102 0.949 . S
H82 C104 0.950 . S
H83 C105 0.948 . S
H84 C107 0.951 . S
H85 C72 0.947 . S
H86 C74 0.952 . S
H87 C75 0.950 . S
N88 C91 1.382 . S
N88 C93 1.363 . S
N89 C91 1.371 . S
N89 C92 1.372 . S
N90 C92 1.361 . S
N90 C93 1.377 . S
C91 N88 1.382 . S
C91 N89 1.371 . S
C91 C94 1.480 . S
C92 N89 1.372 . S
C92 N90 1.361 . S
C92 C100 1.457 . S
C93 N88 1.363 . S
C93 N90 1.377 . S
C93 C106 1.479 . S
C94 C91 1.480 . S
C94 C95 1.383 . S
C94 C99 1.385 . S
C95 H76 0.947 . S
C95 C94 1.383 . S
C95 C96 1.388 . S
C96 H77 0.946 . S
C96 C95 1.388 . S
C96 C97 1.384 . S
C97 C96 1.384 . S
C97 C98 1.377 . S
C98 H78 0.953 . S
C98 C97 1.377 . S
C98 C99 1.369 . S
C99 H79 0.945 . S
C99 C94 1.385 . S
C99 C98 1.369 . S
C100 C92 1.457 . S
C100 C101 1.372 . S
C100 C105 1.364 1_655 S
C101 H80 0.952 . S
C101 C100 1.372 . S
C101 C102 1.389 . S
C102 H81 0.949 . S
C102 C101 1.389 . S
C102 C103 1.387 1_655 S
C103 C102 1.387 1_455 S
C103 C104 1.372 . S
C104 H82 0.950 . S
C104 C103 1.372 . S
C104 C105 1.379 . S
C105 H83 0.948 . S
C105 C100 1.364 1_455 S
C105 C104 1.379 . S
C106 C75 1.383 1_554 S
C106 C93 1.479 . S
C106 C107 1.398 . S
C107 C72 1.382 . S
C107 H84 0.951 . S
C107 C106 1.398 . S
C108 C109 1.384 . S
C108 H121 0.947 . S
C108 C143 1.382 . S
C109 C108 1.384 . S
C109 C110 1.378 . S
C110 C109 1.378 . S
C110 C111 1.378 . S
C110 H122 0.952 . S
C111 C110 1.378 . S
C111 H123 0.950 . S
C111 C142 1.383 . S
H112 C131 0.947 . S
H113 C132 0.946 . S
H114 C134 0.953 . S
H115 C135 0.945 . S
H116 C137 0.952 . S
H117 C138 0.949 . S
H118 C140 0.950 . S
H119 C141 0.948 . S
H120 C143 0.951 . S
H121 C108 0.947 . S
H122 C110 0.952 . S
H123 C111 0.950 . S
N124 C127 1.382 . S
N124 C129 1.363 . S
N125 C127 1.371 . S
N125 C128 1.372 . S
N126 C128 1.361 . S
N126 C129 1.377 . S
C127 N124 1.382 . S
C127 N125 1.371 . S
C127 C130 1.480 . S
C128 N125 1.372 . S
C128 N126 1.361 . S
C128 C136 1.457 . S
C129 N124 1.363 . S
C129 N126 1.377 . S
C129 C142 1.479 . S
C130 C127 1.480 . S
C130 C131 1.383 . S
C130 C135 1.385 . S
C131 H112 0.947 . S
C131 C130 1.383 . S
C131 C132 1.388 . S
C132 H113 0.946 . S
C132 C131 1.388 . S
C132 C133 1.384 . S
C133 C132 1.384 . S
C133 C134 1.377 . S
C134 H114 0.953 . S
C134 C133 1.377 . S
C134 C135 1.369 . S
C135 H115 0.945 . S
C135 C130 1.385 . S
C135 C134 1.369 . S
C136 C128 1.457 . S
C136 C137 1.372 . S
C136 C141 1.364 . S
C137 H116 0.952 . S
C137 C136 1.372 . S
C137 C138 1.389 . S
C138 H117 0.949 . S
C138 C137 1.389 . S
C138 C139 1.387 . S
C139 C138 1.387 . S
C139 C140 1.372 . S
C140 H118 0.950 . S
C140 C139 1.372 . S
C140 C141 1.379 . S
C141 H119 0.948 . S
C141 C136 1.364 . S
C141 C140 1.379 . S
C142 C111 1.383 . S
C142 C129 1.479 . S
C142 C143 1.398 . S
C143 C108 1.382 . S
C143 H120 0.951 . S
C143 C142 1.398 . S
C144 C145 1.384 . S
C144 H157 0.947 . S
C144 C179 1.382 . S
C145 C144 1.384 . S
C145 C146 1.378 . S
C146 C145 1.378 . S
C146 C147 1.378 . S
C146 H158 0.952 . S
C147 C146 1.378 . S
C147 H159 0.950 . S
C147 C178 1.383 . S
H148 C167 0.947 . S
H149 C168 0.946 . S
H150 C170 0.953 . S
H151 C171 0.945 . S
H152 C173 0.952 . S
H153 C174 0.949 . S
H154 C176 0.950 . S
H155 C177 0.948 . S
H156 C179 0.951 . S
H157 C144 0.947 . S
H158 C146 0.952 . S
H159 C147 0.950 . S
N160 C163 1.382 . S
N160 C165 1.363 . S
N161 C163 1.371 . S
N161 C164 1.372 . S
N162 C164 1.361 . S
N162 C165 1.377 . S
C163 N160 1.382 . S
C163 N161 1.371 . S
C163 C166 1.480 . S
C164 N161 1.372 . S
C164 N162 1.361 . S
C164 C172 1.457 . S
C165 N160 1.363 . S
C165 N162 1.377 . S
C165 C178 1.479 . S
C166 C163 1.480 . S
C166 C167 1.383 1_455 S
C166 C171 1.385 . S
C167 H148 0.947 . S
C167 C166 1.383 1_655 S
C167 C168 1.388 . S
C168 H149 0.946 . S
C168 C167 1.388 . S
C168 C169 1.384 . S
C169 C168 1.384 . S
C169 C170 1.377 1_655 S
C170 H150 0.953 . S
C170 C169 1.377 1_455 S
C170 C171 1.369 . S
C171 H151 0.945 . S
C171 C166 1.385 . S
C171 C170 1.369 . S
C172 C164 1.457 . S
C172 C173 1.372 1_565 S
C172 C177 1.364 . S
C173 H152 0.952 . S
C173 C172 1.372 1_545 S
C173 C174 1.389 . S
C174 H153 0.949 . S
C174 C173 1.389 . S
C174 C175 1.387 . S
C175 C174 1.387 . S
C175 C176 1.372 1_545 S
C176 H154 0.950 . S
C176 C175 1.372 1_565 S
C176 C177 1.379 . S
C177 H155 0.948 . S
C177 C172 1.364 . S
C177 C176 1.379 . S
C178 C147 1.383 . S
C178 C165 1.479 . S
C178 C179 1.398 . S
C179 C144 1.382 . S
C179 H156 0.951 . S
C179 C178 1.398 . S
C180 C181 1.384 . S
C180 H193 0.947 . S
C180 C215 1.382 . S
C181 C180 1.384 . S
C181 C182 1.378 . S
C182 C181 1.378 . S
C182 C183 1.378 . S
C182 H194 0.952 . S
C183 C182 1.378 . S
C183 H195 0.950 . S
C183 C214 1.383 . S
H184 C203 0.947 . S
H185 C204 0.946 . S
H186 C206 0.953 . S
H187 C207 0.945 . S
H188 C209 0.952 . S
H189 C210 0.949 . S
H190 C212 0.950 . S
H191 C213 0.948 . S
H192 C215 0.951 . S
H193 C180 0.947 . S
H194 C182 0.952 . S
H195 C183 0.950 . S
N196 C199 1.382 . S
N196 C201 1.363 . S
N197 C199 1.371 . S
N197 C200 1.372 . S
N198 C200 1.361 . S
N198 C201 1.377 . S
C199 N196 1.382 . S
C199 N197 1.371 . S
C199 C202 1.480 . S
C200 N197 1.372 . S
C200 N198 1.361 . S
C200 C208 1.457 . S
C201 N196 1.363 . S
C201 N198 1.377 . S
C201 C214 1.479 . S
C202 C199 1.480 . S
C202 C203 1.383 . S
C202 C207 1.385 . S
C203 H184 0.947 . S
C203 C202 1.383 . S
C203 C204 1.388 . S
C204 H185 0.946 . S
C204 C203 1.388 . S
C204 C205 1.384 . S
C205 C204 1.384 . S
C205 C206 1.377 . S
C206 H186 0.953 . S
C206 C205 1.377 . S
C206 C207 1.369 . S
C207 H187 0.945 . S
C207 C202 1.385 . S
C207 C206 1.369 . S
C208 C200 1.457 . S
C208 C209 1.372 . S
C208 C213 1.364 . S
C209 H188 0.952 . S
C209 C208 1.372 . S
C209 C210 1.389 . S
C210 H189 0.949 . S
C210 C209 1.389 . S
C210 C211 1.387 . S
C211 C210 1.387 . S
C211 C212 1.372 . S
C212 H190 0.950 . S
C212 C211 1.372 . S
C212 C213 1.379 . S
C213 H191 0.948 . S
C213 C208 1.364 . S
C213 C212 1.379 . S
C214 C183 1.383 . S
C214 C201 1.479 . S
C214 C215 1.398 . S
C215 C180 1.382 . S
C215 H192 0.951 . S
C215 C214 1.398 . S
C216 C217 1.384 . S
C216 H229 0.947 . S
C216 C251 1.382 . S
C217 C216 1.384 . S
C217 C218 1.378 . S
C218 C217 1.378 . S
C218 C219 1.378 . S
C218 H230 0.952 . S
C219 C218 1.378 . S
C219 H231 0.950 . S
C219 C250 1.383 . S
H220 C239 0.947 . S
H221 C240 0.946 . S
H222 C242 0.953 . S
H223 C243 0.945 . S
H224 C245 0.952 . S
H225 C246 0.949 . S
H226 C248 0.950 . S
H227 C249 0.948 . S
H228 C251 0.951 . S
H229 C216 0.947 . S
H230 C218 0.952 . S
H231 C219 0.950 . S
N232 C235 1.382 . S
N232 C237 1.363 . S
N233 C235 1.371 . S
N233 C236 1.372 . S
N234 C236 1.361 . S
N234 C237 1.377 . S
C235 N232 1.382 . S
C235 N233 1.371 . S
C235 C238 1.480 . S
C236 N233 1.372 . S
C236 N234 1.361 . S
C236 C244 1.457 . S
C237 N232 1.363 . S
C237 N234 1.377 . S
C237 C250 1.479 . S
C238 C235 1.480 . S
C238 C239 1.383 . S
C238 C243 1.385 . S
C239 H220 0.947 . S
C239 C238 1.383 . S
C239 C240 1.388 . S
C240 H221 0.946 . S
C240 C239 1.388 . S
C240 C241 1.384 . S
C241 C240 1.384 . S
C241 C242 1.377 . S
C242 H222 0.953 . S
C242 C241 1.377 . S
C242 C243 1.369 . S
C243 H223 0.945 . S
C243 C238 1.385 . S
C243 C242 1.369 . S
C244 C236 1.457 . S
C244 C245 1.372 . S
C244 C249 1.364 1_655 S
C245 H224 0.952 . S
C245 C244 1.372 . S
C245 C246 1.389 . S
C246 H225 0.949 . S
C246 C245 1.389 . S
C246 C247 1.387 1_655 S
C247 C246 1.387 1_455 S
C247 C248 1.372 . S
C248 H226 0.950 . S
C248 C247 1.372 . S
C248 C249 1.379 . S
C249 H227 0.948 . S
C249 C244 1.364 1_455 S
C249 C248 1.379 . S
C250 C219 1.383 . S
C250 C237 1.479 . S
C250 C251 1.398 . S
C251 C216 1.382 . S
C251 H228 0.951 . S
C251 C250 1.398 . S
C252 C253 1.384 . S
C252 H265 0.947 . S
C252 C287 1.382 . S
C253 C252 1.384 . S
C253 C254 1.378 . S
C254 C253 1.378 . S
C254 C255 1.378 . S
C254 H266 0.952 . S
C255 C254 1.378 . S
C255 H267 0.950 . S
C255 C286 1.383 . S
H256 C275 0.947 . S
H257 C276 0.946 . S
H258 C278 0.953 . S
H259 C279 0.945 . S
H260 C281 0.952 . S
H261 C282 0.949 . S
H262 C284 0.950 . S
H263 C285 0.948 . S
H264 C287 0.951 . S
H265 C252 0.947 . S
H266 C254 0.952 . S
H267 C255 0.950 . S
N268 C271 1.382 . S
N268 C273 1.363 . S
N269 C271 1.371 . S
N269 C272 1.372 . S
N270 C272 1.361 . S
N270 C273 1.377 . S
C271 N268 1.382 . S
C271 N269 1.371 . S
C271 C274 1.480 . S
C272 N269 1.372 . S
C272 N270 1.361 . S
C272 C280 1.457 . S
C273 N268 1.363 . S
C273 N270 1.377 . S
C273 C286 1.479 . S
C274 C271 1.480 . S
C274 C275 1.383 . S
C274 C279 1.385 . S
C275 H256 0.947 . S
C275 C274 1.383 . S
C275 C276 1.388 . S
C276 H257 0.946 . S
C276 C275 1.388 . S
C276 C277 1.384 . S
C277 C276 1.384 . S
C277 C278 1.377 . S
C278 H258 0.953 . S
C278 C277 1.377 . S
C278 C279 1.369 . S
C279 H259 0.945 . S
C279 C274 1.385 . S
C279 C278 1.369 . S
C280 C272 1.457 . S
C280 C281 1.372 . S
C280 C285 1.364 . S
C281 H260 0.952 . S
C281 C280 1.372 . S
C281 C282 1.389 . S
C282 H261 0.949 . S
C282 C281 1.389 . S
C282 C283 1.387 . S
C283 C282 1.387 . S
C283 C284 1.372 . S
C284 H262 0.950 . S
C284 C283 1.372 . S
C284 C285 1.379 . S
C285 H263 0.948 . S
C285 C280 1.364 . S
C285 C284 1.379 . S
C286 C255 1.383 . S
C286 C273 1.479 . S
C286 C287 1.398 . S
C287 C252 1.382 . S
C287 H264 0.951 . S
C287 C286 1.398 . S
C288 C289 1.384 . S
C288 H301 0.947 . S
C288 C323 1.382 . S
C289 C288 1.384 . S
C289 C290 1.378 . S
C290 C289 1.378 . S
C290 C291 1.378 . S
C290 H302 0.952 . S
C291 C290 1.378 . S
C291 H303 0.950 . S
C291 C322 1.383 . S
H292 C311 0.947 . S
H293 C312 0.946 . S
H294 C314 0.953 . S
H295 C315 0.945 . S
H296 C317 0.952 . S
H297 C318 0.949 . S
H298 C320 0.950 . S
H299 C321 0.948 . S
H300 C323 0.951 . S
H301 C288 0.947 . S
H302 C290 0.952 . S
H303 C291 0.950 . S
N304 C307 1.382 . S
N304 C309 1.363 . S
N305 C307 1.371 . S
N305 C308 1.372 . S
N306 C308 1.361 . S
N306 C309 1.377 . S
C307 N304 1.382 . S
C307 N305 1.371 . S
C307 C310 1.480 . S
C308 N305 1.372 . S
C308 N306 1.361 . S
C308 C316 1.457 . S
C309 N304 1.363 . S
C309 N306 1.377 . S
C309 C322 1.479 . S
C310 C307 1.480 . S
C310 C311 1.383 . S
C310 C315 1.385 . S
C311 H292 0.947 . S
C311 C310 1.383 . S
C311 C312 1.388 . S
C312 H293 0.946 . S
C312 C311 1.388 . S
C312 C313 1.384 . S
C313 C312 1.384 . S
C313 C314 1.377 . S
C314 H294 0.953 . S
C314 C313 1.377 . S
C314 C315 1.369 . S
C315 H295 0.945 . S
C315 C310 1.385 . S
C315 C314 1.369 . S
C316 C308 1.457 . S
C316 C317 1.372 . S
C316 C321 1.364 . S
C317 H296 0.952 . S
C317 C316 1.372 . S
C317 C318 1.389 . S
C318 H297 0.949 . S
C318 C317 1.389 . S
C318 C319 1.387 . S
C319 C318 1.387 . S
C319 C320 1.372 . S
C320 H298 0.950 . S
C320 C319 1.372 . S
C320 C321 1.379 . S
C321 H299 0.948 . S
C321 C316 1.364 . S
C321 C320 1.379 . S
C322 C291 1.383 . S
C322 C309 1.479 . S
C322 C323 1.398 . S
C323 C288 1.382 . S
C323 H300 0.951 . S
C323 C322 1.398 . S
C324 C325 1.384 . S
C324 H337 0.947 . S
C324 C359 1.382 . S
C325 C324 1.384 . S
C325 C326 1.378 . S
C326 C325 1.378 . S
C326 C327 1.378 . S
C326 H338 0.952 . S
C327 C326 1.378 . S
C327 H339 0.950 . S
C327 C358 1.383 . S
H328 C347 0.947 . S
H329 C348 0.946 . S
H330 C350 0.953 . S
H331 C351 0.945 . S
H332 C353 0.952 . S
H333 C354 0.949 . S
H334 C356 0.950 . S
H335 C357 0.948 . S
H336 C359 0.951 . S
H337 C324 0.947 . S
H338 C326 0.952 . S
H339 C327 0.950 . S
N340 C343 1.382 . S
N340 C345 1.363 . S
N341 C343 1.371 . S
N341 C344 1.372 . S
N342 C344 1.361 . S
N342 C345 1.377 . S
C343 N340 1.382 . S
C343 N341 1.371 . S
C343 C346 1.480 . S
C344 N341 1.372 . S
C344 N342 1.361 . S
C344 C352 1.457 . S
C345 N340 1.363 . S
C345 N342 1.377 . S
C345 C358 1.479 . S
C346 C343 1.480 . S
C346 C347 1.383 . S
C346 C351 1.385 1_565 S
C347 H328 0.947 . S
C347 C346 1.383 . S
C347 C348 1.388 . S
C348 H329 0.946 . S
C348 C347 1.388 . S
C348 C349 1.384 1_565 S
C349 C348 1.384 1_545 S
C349 C350 1.377 . S
C350 H330 0.953 . S
C350 C349 1.377 . S
C350 C351 1.369 . S
C351 H331 0.945 . S
C351 C346 1.385 1_545 S
C351 C350 1.369 . S
C352 C344 1.457 . S
C352 C353 1.372 . S
C352 C357 1.364 . S
C353 H332 0.952 . S
C353 C352 1.372 . S
C353 C354 1.389 . S
C354 H333 0.949 . S
C354 C353 1.389 . S
C354 C355 1.387 . S
C355 C354 1.387 . S
C355 C356 1.372 . S
C356 H334 0.950 . S
C356 C355 1.372 . S
C356 C357 1.379 . S
C357 H335 0.948 . S
C357 C352 1.364 . S
C357 C356 1.379 . S
C358 C327 1.383 . S
C358 C345 1.479 . S
C358 C359 1.398 . S
C359 C324 1.382 . S
C359 H336 0.951 . S
C359 C358 1.398 . S
C360 C361 1.384 . S
C360 H373 0.947 . S
C360 C395 1.382 . S
C361 C360 1.384 . S
C361 C362 1.378 . S
C362 C361 1.378 . S
C362 C363 1.378 . S
C362 H374 0.952 . S
C363 C362 1.378 . S
C363 H375 0.950 . S
C363 C394 1.383 . S
H364 C383 0.947 . S
H365 C384 0.946 . S
H366 C386 0.953 . S
H367 C387 0.945 . S
H368 C389 0.952 . S
H369 C390 0.949 . S
H370 C392 0.950 . S
H371 C393 0.948 . S
H372 C395 0.951 . S
H373 C360 0.947 . S
H374 C362 0.952 . S
H375 C363 0.950 . S
N376 C379 1.382 . S
N376 C381 1.363 . S
N377 C379 1.371 . S
N377 C380 1.372 . S
N378 C380 1.361 . S
N378 C381 1.377 . S
C379 N376 1.382 . S
C379 N377 1.371 . S
C379 C382 1.480 . S
C380 N377 1.372 . S
C380 N378 1.361 . S
C380 C388 1.457 . S
C381 N376 1.363 . S
C381 N378 1.377 . S
C381 C394 1.479 . S
C382 C379 1.480 . S
C382 C383 1.383 . S
C382 C387 1.385 . S
C383 H364 0.947 . S
C383 C382 1.383 . S
C383 C384 1.388 . S
C384 H365 0.946 . S
C384 C383 1.388 . S
C384 C385 1.384 . S
C385 C384 1.384 . S
C385 C386 1.377 . S
C386 H366 0.953 . S
C386 C385 1.377 . S
C386 C387 1.369 . S
C387 H367 0.945 . S
C387 C382 1.385 . S
C387 C386 1.369 . S
C388 C380 1.457 . S
C388 C389 1.372 . S
C388 C393 1.364 . S
C389 H368 0.952 . S
C389 C388 1.372 . S
C389 C390 1.389 . S
C390 H369 0.949 . S
C390 C389 1.389 . S
C390 C391 1.387 . S
C391 C390 1.387 . S
C391 C392 1.372 . S
C392 H370 0.950 . S
C392 C391 1.372 . S
C392 C393 1.379 . S
C393 H371 0.948 . S
C393 C388 1.364 . S
C393 C392 1.379 . S
C394 C363 1.383 . S
C394 C381 1.479 . S
C394 C395 1.398 . S
C395 C360 1.382 . S
C395 H372 0.951 . S
C395 C394 1.398 . S
C396 C397 1.384 . S
C396 H409 0.947 . S
C396 C431 1.382 . S
C397 C396 1.384 . S
C397 C398 1.378 . S
C398 C397 1.378 . S
C398 C399 1.378 . S
C398 H410 0.952 . S
C399 C398 1.378 . S
C399 H411 0.950 . S
C399 C430 1.383 . S
H400 C419 0.947 . S
H401 C420 0.946 . S
H402 C422 0.953 . S
H403 C423 0.945 . S
H404 C425 0.952 . S
H405 C426 0.949 . S
H406 C428 0.950 . S
H407 C429 0.948 . S
H408 C431 0.951 . S
H409 C396 0.947 . S
H410 C398 0.952 . S
H411 C399 0.950 . S
N412 C415 1.382 . S
N412 C417 1.363 . S
N413 C415 1.371 . S
N413 C416 1.372 . S
N414 C416 1.361 . S
N414 C417 1.377 . S
C415 N412 1.382 . S
C415 N413 1.371 . S
C415 C418 1.480 . S
C416 N413 1.372 . S
C416 N414 1.361 . S
C416 C424 1.457 . S
C417 N412 1.363 . S
C417 N414 1.377 . S
C417 C430 1.479 . S
C418 C415 1.480 . S
C418 C419 1.383 . S
C418 C423 1.385 . S
C419 H400 0.947 . S
C419 C418 1.383 . S
C419 C420 1.388 . S
C420 H401 0.946 . S
C420 C419 1.388 . S
C420 C421 1.384 . S
C421 C420 1.384 . S
C421 C422 1.377 . S
C422 H402 0.953 . S
C422 C421 1.377 . S
C422 C423 1.369 . S
C423 H403 0.945 . S
C423 C418 1.385 . S
C423 C422 1.369 . S
C424 C416 1.457 . S
C424 C425 1.372 . S
C424 C429 1.364 . S
C425 H404 0.952 . S
C425 C424 1.372 . S
C425 C426 1.389 . S
C426 H405 0.949 . S
C426 C425 1.389 . S
C426 C427 1.387 . S
C427 C426 1.387 . S
C427 C428 1.372 . S
C428 H406 0.950 . S
C428 C427 1.372 . S
C428 C429 1.379 . S
C429 H407 0.948 . S
C429 C424 1.364 . S
C429 C428 1.379 . S
C430 C399 1.383 . S
C430 C417 1.479 . S
C430 C431 1.398 . S
C431 C396 1.382 . S
C431 H408 0.951 . S
C431 C430 1.398 . S
C432 C433 1.384 . S
C432 H445 0.947 . S
C432 C467 1.382 . S
C433 C432 1.384 . S
C433 C434 1.378 . S
C434 C433 1.378 . S
C434 C435 1.378 . S
C434 H446 0.952 . S
C435 C434 1.378 . S
C435 H447 0.950 . S
C435 C466 1.383 . S
H436 C455 0.947 . S
H437 C456 0.946 . S
H438 C458 0.953 . S
H439 C459 0.945 . S
H440 C461 0.952 . S
H441 C462 0.949 . S
H442 C464 0.950 . S
H443 C465 0.948 . S
H444 C467 0.951 . S
H445 C432 0.947 . S
H446 C434 0.952 . S
H447 C435 0.950 . S
N448 C451 1.382 . S
N448 C453 1.363 . S
N449 C451 1.371 . S
N449 C452 1.372 . S
N450 C452 1.361 . S
N450 C453 1.377 . S
C451 N448 1.382 . S
C451 N449 1.371 . S
C451 C454 1.480 . S
C452 N449 1.372 . S
C452 N450 1.361 . S
C452 C460 1.457 . S
C453 N448 1.363 . S
C453 N450 1.377 . S
C453 C466 1.479 . S
C454 C451 1.480 . S
C454 C455 1.383 . S
C454 C459 1.385 . S
C455 H436 0.947 . S
C455 C454 1.383 . S
C455 C456 1.388 . S
C456 H437 0.946 . S
C456 C455 1.388 . S
C456 C457 1.384 . S
C457 C456 1.384 . S
C457 C458 1.377 . S
C458 H438 0.953 . S
C458 C457 1.377 . S
C458 C459 1.369 . S
C459 H439 0.945 . S
C459 C454 1.385 . S
C459 C458 1.369 . S
C460 C452 1.457 . S
C460 C461 1.372 . S
C460 C465 1.364 . S
C461 H440 0.952 . S
C461 C460 1.372 . S
C461 C462 1.389 . S
C462 H441 0.949 . S
C462 C461 1.389 . S
C462 C463 1.387 . S
C463 C462 1.387 . S
C463 C464 1.372 . S
C464 H442 0.950 . S
C464 C463 1.372 . S
C464 C465 1.379 . S
C465 H443 0.948 . S
C465 C460 1.364 . S
C465 C464 1.379 . S
C466 C435 1.383 . S
C466 C453 1.479 . S
C466 C467 1.398 . S
C467 C432 1.382 . S
C467 H444 0.951 . S
C467 C466 1.398 . S
C468 C469 1.384 . S
C468 H481 0.947 . S
C468 C503 1.382 . S
C469 C468 1.384 . S
C469 C470 1.378 1_554 S
C470 C469 1.378 1_556 S
C470 C471 1.378 . S
C470 H482 0.952 . S
C471 C470 1.378 . S
C471 H483 0.950 . S
C471 C502 1.383 . S
H472 C491 0.947 . S
H473 C492 0.946 . S
H474 C494 0.953 . S
H475 C495 0.945 . S
H476 C497 0.952 . S
H477 C498 0.949 . S
H478 C500 0.950 . S
H479 C501 0.948 . S
H480 C503 0.951 . S
H481 C468 0.947 . S
H482 C470 0.952 . S
H483 C471 0.950 . S
N484 C487 1.382 . S
N484 C489 1.363 . S
N485 C487 1.371 . S
N485 C488 1.372 . S
N486 C488 1.361 . S
N486 C489 1.377 . S
C487 N484 1.382 . S
C487 N485 1.371 . S
C487 C490 1.480 . S
C488 N485 1.372 . S
C488 N486 1.361 . S
C488 C496 1.457 . S
C489 N484 1.363 . S
C489 N486 1.377 . S
C489 C502 1.479 . S
C490 C487 1.480 . S
C490 C491 1.383 . S
C490 C495 1.385 . S
C491 H472 0.947 . S
C491 C490 1.383 . S
C491 C492 1.388 . S
C492 H473 0.946 . S
C492 C491 1.388 . S
C492 C493 1.384 . S
C493 C492 1.384 . S
C493 C494 1.377 . S
C494 H474 0.953 . S
C494 C493 1.377 . S
C494 C495 1.369 . S
C495 H475 0.945 . S
C495 C490 1.385 . S
C495 C494 1.369 . S
C496 C488 1.457 . S
C496 C497 1.372 . S
C496 C501 1.364 . S
C497 H476 0.952 . S
C497 C496 1.372 . S
C497 C498 1.389 . S
C498 H477 0.949 . S
C498 C497 1.389 . S
C498 C499 1.387 . S
C499 C498 1.387 . S
C499 C500 1.372 . S
C500 H478 0.950 . S
C500 C499 1.372 . S
C500 C501 1.379 . S
C501 H479 0.948 . S
C501 C496 1.364 . S
C501 C500 1.379 . S
C502 C471 1.383 . S
C502 C489 1.479 . S
C502 C503 1.398 1_556 S
C503 C468 1.382 . S
C503 H480 0.951 . S
C503 C502 1.398 1_554 S
C504 C505 1.384 . S
C504 H517 0.947 . S
C504 C539 1.382 . S
C505 C504 1.384 . S
C505 C506 1.378 . S
C506 C505 1.378 . S
C506 C507 1.378 . S
C506 H518 0.952 . S
C507 C506 1.378 . S
C507 H519 0.950 . S
C507 C538 1.383 . S
H508 C527 0.947 . S
H509 C528 0.946 . S
H510 C530 0.953 . S
H511 C531 0.945 . S
H512 C533 0.952 . S
H513 C534 0.949 . S
H514 C536 0.950 . S
H515 C537 0.948 . S
H516 C539 0.951 . S
H517 C504 0.947 . S
H518 C506 0.952 . S
H519 C507 0.950 . S
N520 C523 1.382 . S
N520 C525 1.363 . S
N521 C523 1.371 . S
N521 C524 1.372 . S
N522 C524 1.361 . S
N522 C525 1.377 . S
C523 N520 1.382 . S
C523 N521 1.371 . S
C523 C526 1.480 . S
C524 N521 1.372 . S
C524 N522 1.361 . S
C524 C532 1.457 . S
C525 N520 1.363 . S
C525 N522 1.377 . S
C525 C538 1.479 . S
C526 C523 1.480 . S
C526 C527 1.383 . S
C526 C531 1.385 . S
C527 H508 0.947 . S
C527 C526 1.383 . S
C527 C528 1.388 . S
C528 H509 0.946 . S
C528 C527 1.388 . S
C528 C529 1.384 . S
C529 C528 1.384 . S
C529 C530 1.377 . S
C530 H510 0.953 . S
C530 C529 1.377 . S
C530 C531 1.369 . S
C531 H511 0.945 . S
C531 C526 1.385 . S
C531 C530 1.369 . S
C532 C524 1.457 . S
C532 C533 1.372 . S
C532 C537 1.364 . S
C533 H512 0.952 . S
C533 C532 1.372 . S
C533 C534 1.389 . S
C534 H513 0.949 . S
C534 C533 1.389 . S
C534 C535 1.387 . S
C535 C534 1.387 . S
C535 C536 1.372 . S
C536 H514 0.950 . S
C536 C535 1.372 . S
C536 C537 1.379 . S
C537 H515 0.948 . S
C537 C532 1.364 . S
C537 C536 1.379 . S
C538 C507 1.383 . S
C538 C525 1.479 . S
C538 C539 1.398 . S
C539 C504 1.382 . S
C539 H516 0.951 . S
C539 C538 1.398 . S
C540 C541 1.384 1_556 S
C540 H553 0.947 . S
C540 C575 1.382 . S
C541 C540 1.384 1_554 S
C541 C542 1.378 . S
C542 C541 1.378 . S
C542 C543 1.378 . S
C542 H554 0.952 . S
C543 C542 1.378 . S
C543 H555 0.950 . S
C543 C574 1.383 1_554 S
H544 C563 0.947 . S
H545 C564 0.946 . S
H546 C566 0.953 . S
H547 C567 0.945 . S
H548 C569 0.952 . S
H549 C570 0.949 . S
H550 C572 0.950 . S
H551 C573 0.948 . S
H552 C575 0.951 . S
H553 C540 0.947 . S
H554 C542 0.952 . S
H555 C543 0.950 . S
N556 C559 1.382 . S
N556 C561 1.363 . S
N557 C559 1.371 . S
N557 C560 1.372 . S
N558 C560 1.361 . S
N558 C561 1.377 . S
C559 N556 1.382 . S
C559 N557 1.371 . S
C559 C562 1.480 . S
C560 N557 1.372 . S
C560 N558 1.361 . S
C560 C568 1.457 . S
C561 N556 1.363 . S
C561 N558 1.377 . S
C561 C574 1.479 . S
C562 C559 1.480 . S
C562 C563 1.383 . S
C562 C567 1.385 1_545 S
C563 H544 0.947 . S
C563 C562 1.383 . S
C563 C564 1.388 . S
C564 H545 0.946 . S
C564 C563 1.388 . S
C564 C565 1.384 1_545 S
C565 C564 1.384 1_565 S
C565 C566 1.377 . S
C566 H546 0.953 . S
C566 C565 1.377 . S
C566 C567 1.369 . S
C567 H547 0.945 . S
C567 C562 1.385 1_565 S
C567 C566 1.369 . S
C568 C560 1.457 . S
C568 C569 1.372 . S
C568 C573 1.364 . S
C569 H548 0.952 . S
C569 C568 1.372 . S
C569 C570 1.389 . S
C570 H549 0.949 . S
C570 C569 1.389 . S
C570 C571 1.387 . S
C571 C570 1.387 . S
C571 C572 1.372 . S
C572 H550 0.950 . S
C572 C571 1.372 . S
C572 C573 1.379 . S
C573 H551 0.948 . S
C573 C568 1.364 . S
C573 C572 1.379 . S
C574 C543 1.383 1_556 S
C574 C561 1.479 . S
C574 C575 1.398 . S
C575 C540 1.382 . S
C575 H552 0.951 . S
C575 C574 1.398 . S
Li576 N593 1.990 . S
Li576 O636 1.956 . S
Li576 O637 1.970 1_556 S
Li576 O638 1.961 . S
Li577 N601 1.990 . S
Li577 O636 1.970 1_554 S
Li577 O637 1.956 . S
Li577 O639 1.961 . S
Li578 N623 1.990 . S
Li578 O636 1.961 . S
Li578 O638 1.956 . S
Li578 O639 1.970 1_556 S
Li579 N629 1.990 . S
Li579 O637 1.961 . S
Li579 O638 1.970 1_554 S
Li579 O639 1.956 . S
C580 C582 1.348 1_556 S
C580 C583 1.356 . S
C580 O636 1.325 . S
N581 C584 1.314 1_556 S
N581 C585 1.279 . S
C582 C580 1.348 1_554 S
C582 C584 1.353 . S
C582 H640 0.929 . S
C583 C580 1.356 . S
C583 C585 1.358 . S
C583 H641 0.930 . S
C584 N581 1.314 1_554 S
C584 C582 1.353 . S
C584 H642 0.930 . S
C585 N581 1.279 . S
C585 C583 1.358 . S
C585 H643 0.930 . S
C586 C589 1.348 . S
C586 C590 1.356 . S
C586 O637 1.325 . S
C587 N588 1.279 . S
C587 C590 1.358 . S
C587 H644 0.930 . S
N588 C587 1.279 . S
N588 C591 1.314 . S
C589 C586 1.348 . S
C589 C591 1.353 . S
C589 H645 0.929 . S
C590 C586 1.356 . S
C590 C587 1.358 . S
C590 H646 0.930 . S
C591 N588 1.314 . S
C591 C589 1.353 . S
C591 H647 0.930 . S
C592 N593 1.314 . S
C592 C597 1.353 . S
C592 H598 0.930 . S
N593 Li576 1.990 . S
N593 C592 1.314 . S
N593 C595 1.279 . S
C594 C595 1.358 . S
C594 C596 1.356 . S
C594 H648 0.930 . S
C595 N593 1.279 . S
C595 C594 1.358 . S
C595 H599 0.930 . S
C596 C594 1.356 . S
C596 C597 1.348 . S
C597 C592 1.353 . S
C597 C596 1.348 . S
C597 H649 0.929 . S
H598 C592 0.930 . S
H599 C595 0.930 . S
C600 N601 1.314 . S
C600 C602 1.353 . S
C600 H606 0.930 . S
N601 Li577 1.990 . S
N601 C600 1.314 . S
N601 C604 1.279 . S
C602 C600 1.353 . S
C602 C605 1.348 . S
C602 H650 0.929 . S
C603 C604 1.358 . S
C603 C605 1.356 . S
C603 H651 0.930 . S
C604 N601 1.279 . S
C604 C603 1.358 . S
C604 H607 0.930 . S
C605 C602 1.348 . S
C605 C603 1.356 . S
H606 C600 0.930 . S
H607 C604 0.930 . S
C608 C610 1.348 . S
C608 C611 1.356 . S
C608 O638 1.325 . S
N609 C612 1.314 . S
N609 C613 1.279 . S
C610 C608 1.348 . S
C610 C612 1.353 . S
C610 H652 0.929 . S
C611 C608 1.356 . S
C611 C613 1.358 . S
C611 H653 0.930 . S
C612 N609 1.314 . S
C612 C610 1.353 . S
C612 H654 0.930 . S
C613 N609 1.279 . S
C613 C611 1.358 . S
C613 H655 0.930 . S
C614 C615 1.348 1_554 S
C614 C616 1.356 . S
C614 O639 1.325 . S
C615 C614 1.348 1_556 S
C615 C617 1.353 . S
C615 H656 0.929 . S
C616 C614 1.356 . S
C616 C618 1.358 . S
C616 H657 0.930 . S
C617 C615 1.353 . S
C617 N619 1.314 1_556 S
C617 H658 0.930 . S
C618 C616 1.358 . S
C618 N619 1.279 . S
C618 H659 0.930 . S
N619 C617 1.314 1_554 S
N619 C618 1.279 . S
C620 C622 1.353 . S
C620 N623 1.314 . S
C620 H626 0.930 . S
C621 N623 1.279 . S
C621 C624 1.358 . S
C621 H627 0.930 . S
C622 C620 1.353 . S
C622 C625 1.348 . S
C622 H660 0.929 . S
N623 Li578 1.990 . S
N623 C620 1.314 . S
N623 C621 1.279 . S
C624 C621 1.358 . S
C624 C625 1.356 . S
C624 H661 0.930 . S
C625 C622 1.348 . S
C625 C624 1.356 . S
H626 C620 0.930 . S
H627 C621 0.930 . S
C628 N629 1.314 . S
C628 C630 1.353 . S
C628 H634 0.930 . S
N629 Li579 1.990 . S
N629 C628 1.314 . S
N629 C632 1.279 . S
C630 C628 1.353 . S
C630 C633 1.348 . S
C630 H662 0.929 . S
C631 C632 1.358 . S
C631 C633 1.356 . S
C631 H663 0.930 . S
C632 N629 1.279 . S
C632 C631 1.358 . S
C632 H635 0.930 . S
C633 C630 1.348 . S
C633 C631 1.356 . S
H634 C628 0.930 . S
H635 C632 0.930 . S
O636 Li576 1.956 . S
O636 Li577 1.970 1_556 S
O636 Li578 1.961 . S
O636 C580 1.325 . S
O637 Li576 1.970 1_554 S
O637 Li577 1.956 . S
O637 Li579 1.961 . S
O637 C586 1.325 . S
O638 Li576 1.961 . S
O638 Li578 1.956 . S
O638 Li579 1.970 1_556 S
O638 C608 1.325 . S
O639 Li577 1.961 . S
O639 Li578 1.970 1_554 S
O639 Li579 1.956 . S
O639 C614 1.325 . S
H640 C582 0.929 . S
H641 C583 0.930 . S
H642 C584 0.930 . S
H643 C585 0.930 . S
H644 C587 0.930 . S
H645 C589 0.929 . S
H646 C590 0.930 . S
H647 C591 0.930 . S
H648 C594 0.930 . S
H649 C597 0.929 . S
H650 C602 0.929 . S
H651 C603 0.930 . S
H652 C610 0.929 . S
H653 C611 0.930 . S
H654 C612 0.930 . S
H655 C613 0.930 . S
H656 C615 0.929 . S
H657 C616 0.930 . S
H658 C617 0.930 . S
H659 C618 0.930 . S
H660 C622 0.929 . S
H661 C624 0.930 . S
H662 C630 0.929 . S
H663 C631 0.930 . S
Li664 N681 1.990 . S
Li664 O724 1.956 . S
Li664 O725 1.970 . S
Li664 O726 1.961 . S
Li665 N689 1.990 . S
Li665 O724 1.970 . S
Li665 O725 1.956 . S
Li665 O727 1.961 . S
Li666 N711 1.990 . S
Li666 O724 1.961 . S
Li666 O726 1.956 . S
Li666 O727 1.970 . S
Li667 N717 1.990 . S
Li667 O725 1.961 . S
Li667 O726 1.970 . S
Li667 O727 1.956 . S
C668 C670 1.348 . S
C668 C671 1.356 . S
C668 O724 1.325 . S
N669 C672 1.314 . S
N669 C673 1.279 . S
C670 C668 1.348 . S
C670 C672 1.353 . S
C670 H728 0.929 . S
C671 C668 1.356 . S
C671 C673 1.358 . S
C671 H729 0.930 . S
C672 N669 1.314 . S
C672 C670 1.353 . S
C672 H730 0.930 . S
C673 N669 1.279 . S
C673 C671 1.358 . S
C673 H731 0.930 . S
C674 C677 1.348 . S
C674 C678 1.356 . S
C674 O725 1.325 . S
C675 N676 1.279 . S
C675 C678 1.358 . S
C675 H732 0.930 . S
N676 C675 1.279 . S
N676 C679 1.314 . S
C677 C674 1.348 . S
C677 C679 1.353 . S
C677 H733 0.929 . S
C678 C674 1.356 . S
C678 C675 1.358 . S
C678 H734 0.930 . S
C679 N676 1.314 . S
C679 C677 1.353 . S
C679 H735 0.930 . S
C680 N681 1.314 . S
C680 C685 1.353 . S
C680 H686 0.930 . S
N681 Li664 1.990 . S
N681 C680 1.314 . S
N681 C683 1.279 . S
C682 C683 1.358 . S
C682 C684 1.356 . S
C682 H736 0.930 . S
C683 N681 1.279 . S
C683 C682 1.358 . S
C683 H687 0.930 . S
C684 C682 1.356 . S
C684 C685 1.348 . S
C685 C680 1.353 . S
C685 C684 1.348 . S
C685 H737 0.929 . S
H686 C680 0.930 . S
H687 C683 0.930 . S
C688 N689 1.314 . S
C688 C690 1.353 . S
C688 H694 0.930 . S
N689 Li665 1.990 . S
N689 C688 1.314 . S
N689 C692 1.279 . S
C690 C688 1.353 . S
C690 C693 1.348 . S
C690 H738 0.929 . S
C691 C692 1.358 . S
C691 C693 1.356 . S
C691 H739 0.930 . S
C692 N689 1.279 . S
C692 C691 1.358 . S
C692 H695 0.930 . S
C693 C690 1.348 . S
C693 C691 1.356 . S
H694 C688 0.930 . S
H695 C692 0.930 . S
C696 C698 1.348 . S
C696 C699 1.356 . S
C696 O726 1.325 . S
N697 C700 1.314 . S
N697 C701 1.279 . S
C698 C696 1.348 . S
C698 C700 1.353 . S
C698 H740 0.929 . S
C699 C696 1.356 . S
C699 C701 1.358 . S
C699 H741 0.930 . S
C700 N697 1.314 . S
C700 C698 1.353 . S
C700 H742 0.930 . S
C701 N697 1.279 . S
C701 C699 1.358 . S
C701 H743 0.930 . S
C702 C703 1.348 . S
C702 C704 1.356 . S
C702 O727 1.325 . S
C703 C702 1.348 . S
C703 C705 1.353 . S
C703 H744 0.929 . S
C704 C702 1.356 . S
C704 C706 1.358 . S
C704 H745 0.930 . S
C705 C703 1.353 . S
C705 N707 1.314 . S
C705 H746 0.930 . S
C706 C704 1.358 . S
C706 N707 1.279 . S
C706 H747 0.930 . S
N707 C705 1.314 . S
N707 C706 1.279 . S
C708 C710 1.353 . S
C708 N711 1.314 . S
C708 H714 0.930 . S
C709 N711 1.279 . S
C709 C712 1.358 . S
C709 H715 0.930 . S
C710 C708 1.353 . S
C710 C713 1.348 . S
C710 H748 0.929 . S
N711 Li666 1.990 . S
N711 C708 1.314 . S
N711 C709 1.279 . S
C712 C709 1.358 . S
C712 C713 1.356 . S
C712 H749 0.930 . S
C713 C710 1.348 . S
C713 C712 1.356 . S
H714 C708 0.930 . S
H715 C709 0.930 . S
C716 N717 1.314 . S
C716 C718 1.353 . S
C716 H722 0.930 . S
N717 Li667 1.990 . S
N717 C716 1.314 . S
N717 C720 1.279 . S
C718 C716 1.353 . S
C718 C721 1.348 . S
C718 H750 0.929 . S
C719 C720 1.358 . S
C719 C721 1.356 . S
C719 H751 0.930 . S
C720 N717 1.279 . S
C720 C719 1.358 . S
C720 H723 0.930 . S
C721 C718 1.348 . S
C721 C719 1.356 . S
H722 C716 0.930 . S
H723 C720 0.930 . S
O724 Li664 1.956 . S
O724 Li665 1.970 . S
O724 Li666 1.961 . S
O724 C668 1.325 . S
O725 Li664 1.970 . S
O725 Li665 1.956 . S
O725 Li667 1.961 . S
O725 C674 1.325 . S
O726 Li664 1.961 . S
O726 Li666 1.956 . S
O726 Li667 1.970 . S
O726 C696 1.325 . S
O727 Li665 1.961 . S
O727 Li666 1.970 . S
O727 Li667 1.956 . S
O727 C702 1.325 . S
H728 C670 0.929 . S
H729 C671 0.930 . S
H730 C672 0.930 . S
H731 C673 0.930 . S
H732 C675 0.930 . S
H733 C677 0.929 . S
H734 C678 0.930 . S
H735 C679 0.930 . S
H736 C682 0.930 . S
H737 C685 0.929 . S
H738 C690 0.929 . S
H739 C691 0.930 . S
H740 C698 0.929 . S
H741 C699 0.930 . S
H742 C700 0.930 . S
H743 C701 0.930 . S
H744 C703 0.929 . S
H745 C704 0.930 . S
H746 C705 0.930 . S
H747 C706 0.930 . S
H748 C710 0.929 . S
H749 C712 0.930 . S
H750 C718 0.929 . S
H751 C719 0.930 . S
Li752 N769 1.990 . S
Li752 O812 1.956 . S
Li752 O813 1.970 1_556 S
Li752 O814 1.961 . S
Li753 N777 1.990 . S
Li753 O812 1.970 1_554 S
Li753 O813 1.956 . S
Li753 O815 1.961 . S
Li754 N799 1.990 . S
Li754 O812 1.961 . S
Li754 O814 1.956 . S
Li754 O815 1.970 1_556 S
Li755 N805 1.990 . S
Li755 O813 1.961 . S
Li755 O814 1.970 1_554 S
Li755 O815 1.956 . S
C756 C758 1.348 1_556 S
C756 C759 1.356 . S
C756 O812 1.325 . S
N757 C760 1.314 1_556 S
N757 C761 1.279 . S
C758 C756 1.348 1_554 S
C758 C760 1.353 . S
C758 H816 0.929 . S
C759 C756 1.356 . S
C759 C761 1.358 . S
C759 H817 0.930 . S
C760 N757 1.314 1_554 S
C760 C758 1.353 . S
C760 H818 0.930 . S
C761 N757 1.279 . S
C761 C759 1.358 . S
C761 H819 0.930 . S
C762 C765 1.348 . S
C762 C766 1.356 . S
C762 O813 1.325 . S
C763 N764 1.279 . S
C763 C766 1.358 . S
C763 H820 0.930 . S
N764 C763 1.279 . S
N764 C767 1.314 . S
C765 C762 1.348 . S
C765 C767 1.353 . S
C765 H821 0.929 . S
C766 C762 1.356 . S
C766 C763 1.358 . S
C766 H822 0.930 . S
C767 N764 1.314 . S
C767 C765 1.353 . S
C767 H823 0.930 . S
C768 N769 1.314 . S
C768 C773 1.353 . S
C768 H774 0.930 . S
N769 Li752 1.990 . S
N769 C768 1.314 . S
N769 C771 1.279 . S
C770 C771 1.358 . S
C770 C772 1.356 . S
C770 H824 0.930 . S
C771 N769 1.279 . S
C771 C770 1.358 . S
C771 H775 0.930 . S
C772 C770 1.356 . S
C772 C773 1.348 . S
C773 C768 1.353 . S
C773 C772 1.348 . S
C773 H825 0.929 . S
H774 C768 0.930 . S
H775 C771 0.930 . S
C776 N777 1.314 . S
C776 C778 1.353 . S
C776 H782 0.930 . S
N777 Li753 1.990 . S
N777 C776 1.314 . S
N777 C780 1.279 . S
C778 C776 1.353 . S
C778 C781 1.348 . S
C778 H826 0.929 . S
C779 C780 1.358 . S
C779 C781 1.356 . S
C779 H827 0.930 . S
C780 N777 1.279 . S
C780 C779 1.358 . S
C780 H783 0.930 . S
C781 C778 1.348 . S
C781 C779 1.356 . S
H782 C776 0.930 . S
H783 C780 0.930 . S
C784 C786 1.348 . S
C784 C787 1.356 . S
C784 O814 1.325 . S
N785 C788 1.314 . S
N785 C789 1.279 . S
C786 C784 1.348 . S
C786 C788 1.353 . S
C786 H828 0.929 . S
C787 C784 1.356 . S
C787 C789 1.358 . S
C787 H829 0.930 . S
C788 N785 1.314 . S
C788 C786 1.353 . S
C788 H830 0.930 . S
C789 N785 1.279 . S
C789 C787 1.358 . S
C789 H831 0.930 . S
C790 C791 1.348 1_554 S
C790 C792 1.356 . S
C790 O815 1.325 . S
C791 C790 1.348 1_556 S
C791 C793 1.353 . S
C791 H832 0.929 . S
C792 C790 1.356 . S
C792 C794 1.358 . S
C792 H833 0.930 . S
C793 C791 1.353 . S
C793 N795 1.314 1_556 S
C793 H834 0.930 . S
C794 C792 1.358 . S
C794 N795 1.279 . S
C794 H835 0.930 . S
N795 C793 1.314 1_554 S
N795 C794 1.279 . S
C796 C798 1.353 . S
C796 N799 1.314 . S
C796 H802 0.930 . S
C797 N799 1.279 . S
C797 C800 1.358 . S
C797 H803 0.930 . S
C798 C796 1.353 . S
C798 C801 1.348 . S
C798 H836 0.929 . S
N799 Li754 1.990 . S
N799 C796 1.314 . S
N799 C797 1.279 . S
C800 C797 1.358 . S
C800 C801 1.356 . S
C800 H837 0.930 . S
C801 C798 1.348 . S
C801 C800 1.356 . S
H802 C796 0.930 . S
H803 C797 0.930 . S
C804 N805 1.314 . S
C804 C806 1.353 . S
C804 H810 0.930 . S
N805 Li755 1.990 . S
N805 C804 1.314 . S
N805 C808 1.279 . S
C806 C804 1.353 . S
C806 C809 1.348 . S
C806 H838 0.929 . S
C807 C808 1.358 . S
C807 C809 1.356 . S
C807 H839 0.930 . S
C808 N805 1.279 . S
C808 C807 1.358 . S
C808 H811 0.930 . S
C809 C806 1.348 . S
C809 C807 1.356 . S
H810 C804 0.930 . S
H811 C808 0.930 . S
O812 Li752 1.956 . S
O812 Li753 1.970 1_556 S
O812 Li754 1.961 . S
O812 C756 1.325 . S
O813 Li752 1.970 1_554 S
O813 Li753 1.956 . S
O813 Li755 1.961 . S
O813 C762 1.325 . S
O814 Li752 1.961 . S
O814 Li754 1.956 . S
O814 Li755 1.970 1_556 S
O814 C784 1.325 . S
O815 Li753 1.961 . S
O815 Li754 1.970 1_554 S
O815 Li755 1.956 . S
O815 C790 1.325 . S
H816 C758 0.929 . S
H817 C759 0.930 . S
H818 C760 0.930 . S
H819 C761 0.930 . S
H820 C763 0.930 . S
H821 C765 0.929 . S
H822 C766 0.930 . S
H823 C767 0.930 . S
H824 C770 0.930 . S
H825 C773 0.929 . S
H826 C778 0.929 . S
H827 C779 0.930 . S
H828 C786 0.929 . S
H829 C787 0.930 . S
H830 C788 0.930 . S
H831 C789 0.930 . S
H832 C791 0.929 . S
H833 C792 0.930 . S
H834 C793 0.930 . S
H835 C794 0.930 . S
H836 C798 0.929 . S
H837 C800 0.930 . S
H838 C806 0.929 . S
H839 C807 0.930 . S
Li840 N857 1.990 . S
Li840 O900 1.956 . S
Li840 O901 1.970 1_545 S
Li840 O902 1.961 . S
Li841 N865 1.990 . S
Li841 O900 1.970 1_565 S
Li841 O901 1.956 . S
Li841 O903 1.961 . S
Li842 N887 1.990 . S
Li842 O900 1.961 . S
Li842 O902 1.956 . S
Li842 O903 1.970 1_545 S
Li843 N893 1.990 . S
Li843 O901 1.961 . S
Li843 O902 1.970 1_565 S
Li843 O903 1.956 . S
C844 C846 1.348 . S
C844 C847 1.356 . S
C844 O900 1.325 . S
N845 C848 1.314 . S
N845 C849 1.279 . S
C846 C844 1.348 . S
C846 C848 1.353 . S
C846 H904 0.929 . S
C847 C844 1.356 . S
C847 C849 1.358 . S
C847 H905 0.930 . S
C848 N845 1.314 . S
C848 C846 1.353 . S
C848 H906 0.930 . S
C849 N845 1.279 . S
C849 C847 1.358 . S
C849 H907 0.930 . S
C850 C853 1.348 1_565 S
C850 C854 1.356 . S
C850 O901 1.325 . S
C851 N852 1.279 . S
C851 C854 1.358 . S
C851 H908 0.930 . S
N852 C851 1.279 . S
N852 C855 1.314 1_565 S
C853 C850 1.348 1_545 S
C853 C855 1.353 . S
C853 H909 0.929 . S
C854 C850 1.356 . S
C854 C851 1.358 . S
C854 H910 0.930 . S
C855 N852 1.314 1_545 S
C855 C853 1.353 . S
C855 H911 0.930 . S
C856 N857 1.314 . S
C856 C861 1.353 . S
C856 H862 0.930 . S
N857 Li840 1.990 . S
N857 C856 1.314 . S
N857 C859 1.279 . S
C858 C859 1.358 . S
C858 C860 1.356 . S
C858 H912 0.930 . S
C859 N857 1.279 . S
C859 C858 1.358 . S
C859 H863 0.930 . S
C860 C858 1.356 . S
C860 C861 1.348 . S
C861 C856 1.353 . S
C861 C860 1.348 . S
C861 H913 0.929 . S
H862 C856 0.930 . S
H863 C859 0.930 . S
C864 N865 1.314 . S
C864 C866 1.353 . S
C864 H870 0.930 . S
N865 Li841 1.990 . S
N865 C864 1.314 . S
N865 C868 1.279 . S
C866 C864 1.353 . S
C866 C869 1.348 . S
C866 H914 0.929 . S
C867 C868 1.358 . S
C867 C869 1.356 . S
C867 H915 0.930 . S
C868 N865 1.279 . S
C868 C867 1.358 . S
C868 H871 0.930 . S
C869 C866 1.348 . S
C869 C867 1.356 . S
H870 C864 0.930 . S
H871 C868 0.930 . S
C872 C874 1.348 1_545 S
C872 C875 1.356 . S
C872 O902 1.325 . S
N873 C876 1.314 1_545 S
N873 C877 1.279 . S
C874 C872 1.348 1_565 S
C874 C876 1.353 . S
C874 H916 0.929 . S
C875 C872 1.356 . S
C875 C877 1.358 . S
C875 H917 0.930 . S
C876 N873 1.314 1_565 S
C876 C874 1.353 . S
C876 H918 0.930 . S
C877 N873 1.279 . S
C877 C875 1.358 . S
C877 H919 0.930 . S
C878 C879 1.348 . S
C878 C880 1.356 . S
C878 O903 1.325 . S
C879 C878 1.348 . S
C879 C881 1.353 . S
C879 H920 0.929 . S
C880 C878 1.356 . S
C880 C882 1.358 . S
C880 H921 0.930 . S
C881 C879 1.353 . S
C881 N883 1.314 . S
C881 H922 0.930 . S
C882 C880 1.358 . S
C882 N883 1.279 . S
C882 H923 0.930 . S
N883 C881 1.314 . S
N883 C882 1.279 . S
C884 C886 1.353 . S
C884 N887 1.314 . S
C884 H890 0.930 . S
C885 N887 1.279 . S
C885 C888 1.358 . S
C885 H891 0.930 . S
C886 C884 1.353 . S
C886 C889 1.348 . S
C886 H924 0.929 . S
N887 Li842 1.990 . S
N887 C884 1.314 . S
N887 C885 1.279 . S
C888 C885 1.358 . S
C888 C889 1.356 . S
C888 H925 0.930 . S
C889 C886 1.348 . S
C889 C888 1.356 . S
H890 C884 0.930 . S
H891 C885 0.930 . S
C892 N893 1.314 . S
C892 C894 1.353 . S
C892 H898 0.930 . S
N893 Li843 1.990 . S
N893 C892 1.314 . S
N893 C896 1.279 . S
C894 C892 1.353 . S
C894 C897 1.348 . S
C894 H926 0.929 . S
C895 C896 1.358 . S
C895 C897 1.356 . S
C895 H927 0.930 . S
C896 N893 1.279 . S
C896 C895 1.358 . S
C896 H899 0.930 . S
C897 C894 1.348 . S
C897 C895 1.356 . S
H898 C892 0.930 . S
H899 C896 0.930 . S
O900 Li840 1.956 . S
O900 Li841 1.970 1_545 S
O900 Li842 1.961 . S
O900 C844 1.325 . S
O901 Li840 1.970 1_565 S
O901 Li841 1.956 . S
O901 Li843 1.961 . S
O901 C850 1.325 . S
O902 Li840 1.961 . S
O902 Li842 1.956 . S
O902 Li843 1.970 1_545 S
O902 C872 1.325 . S
O903 Li841 1.961 . S
O903 Li842 1.970 1_565 S
O903 Li843 1.956 . S
O903 C878 1.325 . S
H904 C846 0.929 . S
H905 C847 0.930 . S
H906 C848 0.930 . S
H907 C849 0.930 . S
H908 C851 0.930 . S
H909 C853 0.929 . S
H910 C854 0.930 . S
H911 C855 0.930 . S
H912 C858 0.930 . S
H913 C861 0.929 . S
H914 C866 0.929 . S
H915 C867 0.930 . S
H916 C874 0.929 . S
H917 C875 0.930 . S
H918 C876 0.930 . S
H919 C877 0.930 . S
H920 C879 0.929 . S
H921 C880 0.930 . S
H922 C881 0.930 . S
H923 C882 0.930 . S
H924 C886 0.929 . S
H925 C888 0.930 . S
H926 C894 0.929 . S
H927 C895 0.930 . S
Li928 N945 1.990 . S
Li928 O988 1.956 . S
Li928 O989 1.970 . S
Li928 O990 1.961 . S
Li929 N953 1.990 . S
Li929 O988 1.970 . S
Li929 O989 1.956 . S
Li929 O991 1.961 . S
Li930 N975 1.990 . S
Li930 O988 1.961 . S
Li930 O990 1.956 . S
Li930 O991 1.970 . S
Li931 N981 1.990 . S
Li931 O989 1.961 . S
Li931 O990 1.970 . S
Li931 O991 1.956 . S
C932 C934 1.348 . S
C932 C935 1.356 . S
C932 O988 1.325 . S
N933 C936 1.314 . S
N933 C937 1.279 . S
C934 C932 1.348 . S
C934 C936 1.353 . S
C934 H992 0.929 . S
C935 C932 1.356 . S
C935 C937 1.358 . S
C935 H993 0.930 . S
C936 N933 1.314 . S
C936 C934 1.353 . S
C936 H994 0.930 . S
C937 N933 1.279 . S
C937 C935 1.358 . S
C937 H995 0.930 . S
C938 C941 1.348 . S
C938 C942 1.356 . S
C938 O989 1.325 . S
C939 N940 1.279 . S
C939 C942 1.358 . S
C939 H996 0.930 . S
N940 C939 1.279 . S
N940 C943 1.314 . S
C941 C938 1.348 . S
C941 C943 1.353 . S
C941 H997 0.929 . S
C942 C938 1.356 . S
C942 C939 1.358 . S
C942 H998 0.930 . S
C943 N940 1.314 . S
C943 C941 1.353 . S
C943 H999 0.930 . S
C944 N945 1.314 . S
C944 C949 1.353 . S
C944 H950 0.930 . S
N945 Li928 1.990 . S
N945 C944 1.314 . S
N945 C947 1.279 . S
C946 C947 1.358 . S
C946 C948 1.356 . S
C946 H1000 0.930 . S
C947 N945 1.279 . S
C947 C946 1.358 . S
C947 H951 0.930 . S
C948 C946 1.356 . S
C948 C949 1.348 . S
C949 C944 1.353 . S
C949 C948 1.348 . S
C949 H1001 0.929 . S
H950 C944 0.930 . S
H951 C947 0.930 . S
C952 N953 1.314 . S
C952 C954 1.353 . S
C952 H958 0.930 . S
N953 Li929 1.990 . S
N953 C952 1.314 . S
N953 C956 1.279 . S
C954 C952 1.353 . S
C954 C957 1.348 . S
C954 H1002 0.929 . S
C955 C956 1.358 . S
C955 C957 1.356 . S
C955 H1003 0.930 . S
C956 N953 1.279 . S
C956 C955 1.358 . S
C956 H959 0.930 . S
C957 C954 1.348 . S
C957 C955 1.356 . S
H958 C952 0.930 . S
H959 C956 0.930 . S
C960 C962 1.348 . S
C960 C963 1.356 . S
C960 O990 1.325 . S
N961 C964 1.314 . S
N961 C965 1.279 . S
C962 C960 1.348 . S
C962 C964 1.353 . S
C962 H1004 0.929 . S
C963 C960 1.356 . S
C963 C965 1.358 . S
C963 H1005 0.930 . S
C964 N961 1.314 . S
C964 C962 1.353 . S
C964 H1006 0.930 . S
C965 N961 1.279 . S
C965 C963 1.358 . S
C965 H1007 0.930 . S
C966 C967 1.348 . S
C966 C968 1.356 . S
C966 O991 1.325 . S
C967 C966 1.348 . S
C967 C969 1.353 . S
C967 H1008 0.929 . S
C968 C966 1.356 . S
C968 C970 1.358 . S
C968 H1009 0.930 . S
C969 C967 1.353 . S
C969 N971 1.314 . S
C969 H1010 0.930 . S
C970 C968 1.358 . S
C970 N971 1.279 . S
C970 H1011 0.930 . S
N971 C969 1.314 . S
N971 C970 1.279 . S
C972 C974 1.353 . S
C972 N975 1.314 . S
C972 H978 0.930 . S
C973 N975 1.279 . S
C973 C976 1.358 . S
C973 H979 0.930 . S
C974 C972 1.353 . S
C974 C977 1.348 . S
C974 H1012 0.929 . S
N975 Li930 1.990 . S
N975 C972 1.314 . S
N975 C973 1.279 . S
C976 C973 1.358 . S
C976 C977 1.356 . S
C976 H1013 0.930 . S
C977 C974 1.348 . S
C977 C976 1.356 . S
H978 C972 0.930 . S
H979 C973 0.930 . S
C980 N981 1.314 . S
C980 C982 1.353 . S
C980 H986 0.930 . S
N981 Li931 1.990 . S
N981 C980 1.314 . S
N981 C984 1.279 . S
C982 C980 1.353 . S
C982 C985 1.348 . S
C982 H1014 0.929 . S
C983 C984 1.358 . S
C983 C985 1.356 . S
C983 H1015 0.930 . S
C984 N981 1.279 . S
C984 C983 1.358 . S
C984 H987 0.930 . S
C985 C982 1.348 . S
C985 C983 1.356 . S
H986 C980 0.930 . S
H987 C984 0.930 . S
O988 Li928 1.956 . S
O988 Li929 1.970 . S
O988 Li930 1.961 . S
O988 C932 1.325 . S
O989 Li928 1.970 . S
O989 Li929 1.956 . S
O989 Li931 1.961 . S
O989 C938 1.325 . S
O990 Li928 1.961 . S
O990 Li930 1.956 . S
O990 Li931 1.970 . S
O990 C960 1.325 . S
O991 Li929 1.961 . S
O991 Li930 1.970 . S
O991 Li931 1.956 . S
O991 C966 1.325 . S
H992 C934 0.929 . S
H993 C935 0.930 . S
H994 C936 0.930 . S
H995 C937 0.930 . S
H996 C939 0.930 . S
H997 C941 0.929 . S
H998 C942 0.930 . S
H999 C943 0.930 . S
H1000 C946 0.930 . S
H1001 C949 0.929 . S
H1002 C954 0.929 . S
H1003 C955 0.930 . S
H1004 C962 0.929 . S
H1005 C963 0.930 . S
H1006 C964 0.930 . S
H1007 C965 0.930 . S
H1008 C967 0.929 . S
H1009 C968 0.930 . S
H1010 C969 0.930 . S
H1011 C970 0.930 . S
H1012 C974 0.929 . S
H1013 C976 0.930 . S
H1014 C982 0.929 . S
H1015 C983 0.930 . S
Li1016 N1033 1.990 . S
Li1016 O1076 1.956 . S
Li1016 O1077 1.970 . S
Li1016 O1078 1.961 . S
Li1017 N1041 1.990 . S
Li1017 O1076 1.970 . S
Li1017 O1077 1.956 . S
Li1017 O1079 1.961 . S
Li1018 N1063 1.990 . S
Li1018 O1076 1.961 . S
Li1018 O1078 1.956 . S
Li1018 O1079 1.970 . S
Li1019 N1069 1.990 . S
Li1019 O1077 1.961 . S
Li1019 O1078 1.970 . S
Li1019 O1079 1.956 . S
C1020 C1022 1.348 . S
C1020 C1023 1.356 . S
C1020 O1076 1.325 . S
N1021 C1024 1.314 . S
N1021 C1025 1.279 . S
C1022 C1020 1.348 . S
C1022 C1024 1.353 . S
C1022 H1080 0.929 . S
C1023 C1020 1.356 . S
C1023 C1025 1.358 . S
C1023 H1081 0.930 . S
C1024 N1021 1.314 . S
C1024 C1022 1.353 . S
C1024 H1082 0.930 . S
C1025 N1021 1.279 . S
C1025 C1023 1.358 . S
C1025 H1083 0.930 . S
C1026 C1029 1.348 . S
C1026 C1030 1.356 . S
C1026 O1077 1.325 . S
C1027 N1028 1.279 . S
C1027 C1030 1.358 . S
C1027 H1084 0.930 . S
N1028 C1027 1.279 . S
N1028 C1031 1.314 . S
C1029 C1026 1.348 . S
C1029 C1031 1.353 . S
C1029 H1085 0.929 . S
C1030 C1026 1.356 . S
C1030 C1027 1.358 . S
C1030 H1086 0.930 . S
C1031 N1028 1.314 . S
C1031 C1029 1.353 . S
C1031 H1087 0.930 . S
C1032 N1033 1.314 . S
C1032 C1037 1.353 . S
C1032 H1038 0.930 . S
N1033 Li1016 1.990 . S
N1033 C1032 1.314 . S
N1033 C1035 1.279 . S
C1034 C1035 1.358 . S
C1034 C1036 1.356 . S
C1034 H1088 0.930 . S
C1035 N1033 1.279 . S
C1035 C1034 1.358 . S
C1035 H1039 0.930 . S
C1036 C1034 1.356 . S
C1036 C1037 1.348 . S
C1037 C1032 1.353 . S
C1037 C1036 1.348 . S
C1037 H1089 0.929 . S
H1038 C1032 0.930 . S
H1039 C1035 0.930 . S
C1040 N1041 1.314 . S
C1040 C1042 1.353 . S
C1040 H1046 0.930 . S
N1041 Li1017 1.990 . S
N1041 C1040 1.314 . S
N1041 C1044 1.279 . S
C1042 C1040 1.353 . S
C1042 C1045 1.348 . S
C1042 H1090 0.929 . S
C1043 C1044 1.358 . S
C1043 C1045 1.356 . S
C1043 H1091 0.930 . S
C1044 N1041 1.279 . S
C1044 C1043 1.358 . S
C1044 H1047 0.930 . S
C1045 C1042 1.348 . S
C1045 C1043 1.356 . S
H1046 C1040 0.930 . S
H1047 C1044 0.930 . S
C1048 C1050 1.348 . S
C1048 C1051 1.356 . S
C1048 O1078 1.325 . S
N1049 C1052 1.314 . S
N1049 C1053 1.279 . S
C1050 C1048 1.348 . S
C1050 C1052 1.353 . S
C1050 H1092 0.929 . S
C1051 C1048 1.356 . S
C1051 C1053 1.358 . S
C1051 H1093 0.930 . S
C1052 N1049 1.314 . S
C1052 C1050 1.353 . S
C1052 H1094 0.930 . S
C1053 N1049 1.279 . S
C1053 C1051 1.358 . S
C1053 H1095 0.930 . S
C1054 C1055 1.348 . S
C1054 C1056 1.356 . S
C1054 O1079 1.325 . S
C1055 C1054 1.348 . S
C1055 C1057 1.353 . S
C1055 H1096 0.929 . S
C1056 C1054 1.356 . S
C1056 C1058 1.358 . S
C1056 H1097 0.930 . S
C1057 C1055 1.353 . S
C1057 N1059 1.314 . S
C1057 H1098 0.930 . S
C1058 C1056 1.358 . S
C1058 N1059 1.279 . S
C1058 H1099 0.930 . S
N1059 C1057 1.314 . S
N1059 C1058 1.279 . S
C1060 C1062 1.353 . S
C1060 N1063 1.314 . S
C1060 H1066 0.930 . S
C1061 N1063 1.279 . S
C1061 C1064 1.358 . S
C1061 H1067 0.930 . S
C1062 C1060 1.353 . S
C1062 C1065 1.348 . S
C1062 H1100 0.929 . S
N1063 Li1018 1.990 . S
N1063 C1060 1.314 . S
N1063 C1061 1.279 . S
C1064 C1061 1.358 . S
C1064 C1065 1.356 . S
C1064 H1101 0.930 . S
C1065 C1062 1.348 . S
C1065 C1064 1.356 . S
H1066 C1060 0.930 . S
H1067 C1061 0.930 . S
C1068 N1069 1.314 . S
C1068 C1070 1.353 . S
C1068 H1074 0.930 . S
N1069 Li1019 1.990 . S
N1069 C1068 1.314 . S
N1069 C1072 1.279 . S
C1070 C1068 1.353 . S
C1070 C1073 1.348 . S
C1070 H1102 0.929 . S
C1071 C1072 1.358 . S
C1071 C1073 1.356 . S
C1071 H1103 0.930 . S
C1072 N1069 1.279 . S
C1072 C1071 1.358 . S
C1072 H1075 0.930 . S
C1073 C1070 1.348 . S
C1073 C1071 1.356 . S
H1074 C1068 0.930 . S
H1075 C1072 0.930 . S
O1076 Li1016 1.956 . S
O1076 Li1017 1.970 . S
O1076 Li1018 1.961 . S
O1076 C1020 1.325 . S
O1077 Li1016 1.970 . S
O1077 Li1017 1.956 . S
O1077 Li1019 1.961 . S
O1077 C1026 1.325 . S
O1078 Li1016 1.961 . S
O1078 Li1018 1.956 . S
O1078 Li1019 1.970 . S
O1078 C1048 1.325 . S
O1079 Li1017 1.961 . S
O1079 Li1018 1.970 . S
O1079 Li1019 1.956 . S
O1079 C1054 1.325 . S
H1080 C1022 0.929 . S
H1081 C1023 0.930 . S
H1082 C1024 0.930 . S
H1083 C1025 0.930 . S
H1084 C1027 0.930 . S
H1085 C1029 0.929 . S
H1086 C1030 0.930 . S
H1087 C1031 0.930 . S
H1088 C1034 0.930 . S
H1089 C1037 0.929 . S
H1090 C1042 0.929 . S
H1091 C1043 0.930 . S
H1092 C1050 0.929 . S
H1093 C1051 0.930 . S
H1094 C1052 0.930 . S
H1095 C1053 0.930 . S
H1096 C1055 0.929 . S
H1097 C1056 0.930 . S
H1098 C1057 0.930 . S
H1099 C1058 0.930 . S
H1100 C1062 0.929 . S
H1101 C1064 0.930 . S
H1102 C1070 0.929 . S
H1103 C1071 0.930 . S
Li1104 N1121 1.990 . S
Li1104 O1164 1.956 . S
Li1104 O1165 1.970 . S
Li1104 O1166 1.961 . S
Li1105 N1129 1.990 . S
Li1105 O1164 1.970 . S
Li1105 O1165 1.956 . S
Li1105 O1167 1.961 . S
Li1106 N1151 1.990 . S
Li1106 O1164 1.961 . S
Li1106 O1166 1.956 . S
Li1106 O1167 1.970 . S
Li1107 N1157 1.990 . S
Li1107 O1165 1.961 . S
Li1107 O1166 1.970 . S
Li1107 O1167 1.956 . S
C1108 C1110 1.348 . S
C1108 C1111 1.356 . S
C1108 O1164 1.325 . S
N1109 C1112 1.314 . S
N1109 C1113 1.279 . S
C1110 C1108 1.348 . S
C1110 C1112 1.353 . S
C1110 H1168 0.929 . S
C1111 C1108 1.356 . S
C1111 C1113 1.358 . S
C1111 H1169 0.930 . S
C1112 N1109 1.314 . S
C1112 C1110 1.353 . S
C1112 H1170 0.930 . S
C1113 N1109 1.279 . S
C1113 C1111 1.358 . S
C1113 H1171 0.930 . S
C1114 C1117 1.348 . S
C1114 C1118 1.356 . S
C1114 O1165 1.325 . S
C1115 N1116 1.279 . S
C1115 C1118 1.358 . S
C1115 H1172 0.930 . S
N1116 C1115 1.279 . S
N1116 C1119 1.314 . S
C1117 C1114 1.348 . S
C1117 C1119 1.353 . S
C1117 H1173 0.929 . S
C1118 C1114 1.356 . S
C1118 C1115 1.358 . S
C1118 H1174 0.930 . S
C1119 N1116 1.314 . S
C1119 C1117 1.353 . S
C1119 H1175 0.930 . S
C1120 N1121 1.314 . S
C1120 C1125 1.353 . S
C1120 H1126 0.930 . S
N1121 Li1104 1.990 . S
N1121 C1120 1.314 . S
N1121 C1123 1.279 . S
C1122 C1123 1.358 . S
C1122 C1124 1.356 . S
C1122 H1176 0.930 . S
C1123 N1121 1.279 . S
C1123 C1122 1.358 . S
C1123 H1127 0.930 . S
C1124 C1122 1.356 . S
C1124 C1125 1.348 . S
C1125 C1120 1.353 . S
C1125 C1124 1.348 . S
C1125 H1177 0.929 . S
H1126 C1120 0.930 . S
H1127 C1123 0.930 . S
C1128 N1129 1.314 . S
C1128 C1130 1.353 . S
C1128 H1134 0.930 . S
N1129 Li1105 1.990 . S
N1129 C1128 1.314 . S
N1129 C1132 1.279 . S
C1130 C1128 1.353 . S
C1130 C1133 1.348 . S
C1130 H1178 0.929 . S
C1131 C1132 1.358 . S
C1131 C1133 1.356 . S
C1131 H1179 0.930 . S
C1132 N1129 1.279 . S
C1132 C1131 1.358 . S
C1132 H1135 0.930 . S
C1133 C1130 1.348 . S
C1133 C1131 1.356 . S
H1134 C1128 0.930 . S
H1135 C1132 0.930 . S
C1136 C1138 1.348 . S
C1136 C1139 1.356 . S
C1136 O1166 1.325 . S
N1137 C1140 1.314 . S
N1137 C1141 1.279 . S
C1138 C1136 1.348 . S
C1138 C1140 1.353 . S
C1138 H1180 0.929 . S
C1139 C1136 1.356 . S
C1139 C1141 1.358 . S
C1139 H1181 0.930 . S
C1140 N1137 1.314 . S
C1140 C1138 1.353 . S
C1140 H1182 0.930 . S
C1141 N1137 1.279 . S
C1141 C1139 1.358 . S
C1141 H1183 0.930 . S
C1142 C1143 1.348 . S
C1142 C1144 1.356 . S
C1142 O1167 1.325 . S
C1143 C1142 1.348 . S
C1143 C1145 1.353 . S
C1143 H1184 0.929 . S
C1144 C1142 1.356 . S
C1144 C1146 1.358 . S
C1144 H1185 0.930 . S
C1145 C1143 1.353 . S
C1145 N1147 1.314 . S
C1145 H1186 0.930 . S
C1146 C1144 1.358 . S
C1146 N1147 1.279 . S
C1146 H1187 0.930 . S
N1147 C1145 1.314 . S
N1147 C1146 1.279 . S
C1148 C1150 1.353 . S
C1148 N1151 1.314 . S
C1148 H1154 0.930 . S
C1149 N1151 1.279 . S
C1149 C1152 1.358 . S
C1149 H1155 0.930 . S
C1150 C1148 1.353 . S
C1150 C1153 1.348 . S
C1150 H1188 0.929 . S
N1151 Li1106 1.990 . S
N1151 C1148 1.314 . S
N1151 C1149 1.279 . S
C1152 C1149 1.358 . S
C1152 C1153 1.356 . S
C1152 H1189 0.930 . S
C1153 C1150 1.348 . S
C1153 C1152 1.356 . S
H1154 C1148 0.930 . S
H1155 C1149 0.930 . S
C1156 N1157 1.314 . S
C1156 C1158 1.353 . S
C1156 H1162 0.930 . S
N1157 Li1107 1.990 . S
N1157 C1156 1.314 . S
N1157 C1160 1.279 . S
C1158 C1156 1.353 . S
C1158 C1161 1.348 . S
C1158 H1190 0.929 . S
C1159 C1160 1.358 . S
C1159 C1161 1.356 . S
C1159 H1191 0.930 . S
C1160 N1157 1.279 . S
C1160 C1159 1.358 . S
C1160 H1163 0.930 . S
C1161 C1158 1.348 . S
C1161 C1159 1.356 . S
H1162 C1156 0.930 . S
H1163 C1160 0.930 . S
O1164 Li1104 1.956 . S
O1164 Li1105 1.970 . S
O1164 Li1106 1.961 . S
O1164 C1108 1.325 . S
O1165 Li1104 1.970 . S
O1165 Li1105 1.956 . S
O1165 Li1107 1.961 . S
O1165 C1114 1.325 . S
O1166 Li1104 1.961 . S
O1166 Li1106 1.956 . S
O1166 Li1107 1.970 . S
O1166 C1136 1.325 . S
O1167 Li1105 1.961 . S
O1167 Li1106 1.970 . S
O1167 Li1107 1.956 . S
O1167 C1142 1.325 . S
H1168 C1110 0.929 . S
H1169 C1111 0.930 . S
H1170 C1112 0.930 . S
H1171 C1113 0.930 . S
H1172 C1115 0.930 . S
H1173 C1117 0.929 . S
H1174 C1118 0.930 . S
H1175 C1119 0.930 . S
H1176 C1122 0.930 . S
H1177 C1125 0.929 . S
H1178 C1130 0.929 . S
H1179 C1131 0.930 . S
H1180 C1138 0.929 . S
H1181 C1139 0.930 . S
H1182 C1140 0.930 . S
H1183 C1141 0.930 . S
H1184 C1143 0.929 . S
H1185 C1144 0.930 . S
H1186 C1145 0.930 . S
H1187 C1146 0.930 . S
H1188 C1150 0.929 . S
H1189 C1152 0.930 . S
H1190 C1158 0.929 . S
H1191 C1159 0.930 . S
Li1192 N1209 1.990 . S
Li1192 O1252 1.956 . S
Li1192 O1253 1.970 1_565 S
Li1192 O1254 1.961 . S
Li1193 N1217 1.990 . S
Li1193 O1252 1.970 1_545 S
Li1193 O1253 1.956 . S
Li1193 O1255 1.961 . S
Li1194 N1239 1.990 . S
Li1194 O1252 1.961 . S
Li1194 O1254 1.956 . S
Li1194 O1255 1.970 1_565 S
Li1195 N1245 1.990 . S
Li1195 O1253 1.961 . S
Li1195 O1254 1.970 1_545 S
Li1195 O1255 1.956 . S
C1196 C1198 1.348 . S
C1196 C1199 1.356 . S
C1196 O1252 1.325 . S
N1197 C1200 1.314 . S
N1197 C1201 1.279 . S
C1198 C1196 1.348 . S
C1198 C1200 1.353 . S
C1198 H1256 0.929 . S
C1199 C1196 1.356 . S
C1199 C1201 1.358 . S
C1199 H1257 0.930 . S
C1200 N1197 1.314 . S
C1200 C1198 1.353 . S
C1200 H1258 0.930 . S
C1201 N1197 1.279 . S
C1201 C1199 1.358 . S
C1201 H1259 0.930 . S
C1202 C1205 1.348 1_545 S
C1202 C1206 1.356 . S
C1202 O1253 1.325 . S
C1203 N1204 1.279 . S
C1203 C1206 1.358 . S
C1203 H1260 0.930 . S
N1204 C1203 1.279 . S
N1204 C1207 1.314 1_545 S
C1205 C1202 1.348 1_565 S
C1205 C1207 1.353 . S
C1205 H1261 0.929 . S
C1206 C1202 1.356 . S
C1206 C1203 1.358 . S
C1206 H1262 0.930 . S
C1207 N1204 1.314 1_565 S
C1207 C1205 1.353 . S
C1207 H1263 0.930 . S
C1208 N1209 1.314 . S
C1208 C1213 1.353 . S
C1208 H1214 0.930 . S
N1209 Li1192 1.990 . S
N1209 C1208 1.314 . S
N1209 C1211 1.279 . S
C1210 C1211 1.358 . S
C1210 C1212 1.356 . S
C1210 H1264 0.930 . S
C1211 N1209 1.279 . S
C1211 C1210 1.358 . S
C1211 H1215 0.930 . S
C1212 C1210 1.356 . S
C1212 C1213 1.348 . S
C1213 C1208 1.353 . S
C1213 C1212 1.348 . S
C1213 H1265 0.929 . S
H1214 C1208 0.930 . S
H1215 C1211 0.930 . S
C1216 N1217 1.314 . S
C1216 C1218 1.353 . S
C1216 H1222 0.930 . S
N1217 Li1193 1.990 . S
N1217 C1216 1.314 . S
N1217 C1220 1.279 . S
C1218 C1216 1.353 . S
C1218 C1221 1.348 . S
C1218 H1266 0.929 . S
C1219 C1220 1.358 . S
C1219 C1221 1.356 . S
C1219 H1267 0.930 . S
C1220 N1217 1.279 . S
C1220 C1219 1.358 . S
C1220 H1223 0.930 . S
C1221 C1218 1.348 . S
C1221 C1219 1.356 . S
H1222 C1216 0.930 . S
H1223 C1220 0.930 . S
C1224 C1226 1.348 1_565 S
C1224 C1227 1.356 . S
C1224 O1254 1.325 . S
N1225 C1228 1.314 1_565 S
N1225 C1229 1.279 . S
C1226 C1224 1.348 1_545 S
C1226 C1228 1.353 . S
C1226 H1268 0.929 . S
C1227 C1224 1.356 . S
C1227 C1229 1.358 . S
C1227 H1269 0.930 . S
C1228 N1225 1.314 1_545 S
C1228 C1226 1.353 . S
C1228 H1270 0.930 . S
C1229 N1225 1.279 . S
C1229 C1227 1.358 . S
C1229 H1271 0.930 . S
C1230 C1231 1.348 . S
C1230 C1232 1.356 . S
C1230 O1255 1.325 . S
C1231 C1230 1.348 . S
C1231 C1233 1.353 . S
C1231 H1272 0.929 . S
C1232 C1230 1.356 . S
C1232 C1234 1.358 . S
C1232 H1273 0.930 . S
C1233 C1231 1.353 . S
C1233 N1235 1.314 . S
C1233 H1274 0.930 . S
C1234 C1232 1.358 . S
C1234 N1235 1.279 . S
C1234 H1275 0.930 . S
N1235 C1233 1.314 . S
N1235 C1234 1.279 . S
C1236 C1238 1.353 . S
C1236 N1239 1.314 . S
C1236 H1242 0.930 . S
C1237 N1239 1.279 . S
C1237 C1240 1.358 . S
C1237 H1243 0.930 . S
C1238 C1236 1.353 . S
C1238 C1241 1.348 . S
C1238 H1276 0.929 . S
N1239 Li1194 1.990 . S
N1239 C1236 1.314 . S
N1239 C1237 1.279 . S
C1240 C1237 1.358 . S
C1240 C1241 1.356 . S
C1240 H1277 0.930 . S
C1241 C1238 1.348 . S
C1241 C1240 1.356 . S
H1242 C1236 0.930 . S
H1243 C1237 0.930 . S
C1244 N1245 1.314 . S
C1244 C1246 1.353 . S
C1244 H1250 0.930 . S
N1245 Li1195 1.990 . S
N1245 C1244 1.314 . S
N1245 C1248 1.279 . S
C1246 C1244 1.353 . S
C1246 C1249 1.348 . S
C1246 H1278 0.929 . S
C1247 C1248 1.358 . S
C1247 C1249 1.356 . S
C1247 H1279 0.930 . S
C1248 N1245 1.279 . S
C1248 C1247 1.358 . S
C1248 H1251 0.930 . S
C1249 C1246 1.348 . S
C1249 C1247 1.356 . S
H1250 C1244 0.930 . S
H1251 C1248 0.930 . S
O1252 Li1192 1.956 . S
O1252 Li1193 1.970 1_565 S
O1252 Li1194 1.961 . S
O1252 C1196 1.325 . S
O1253 Li1192 1.970 1_545 S
O1253 Li1193 1.956 . S
O1253 Li1195 1.961 . S
O1253 C1202 1.325 . S
O1254 Li1192 1.961 . S
O1254 Li1194 1.956 . S
O1254 Li1195 1.970 1_565 S
O1254 C1224 1.325 . S
O1255 Li1193 1.961 . S
O1255 Li1194 1.970 1_545 S
O1255 Li1195 1.956 . S
O1255 C1230 1.325 . S
H1256 C1198 0.929 . S
H1257 C1199 0.930 . S
H1258 C1200 0.930 . S
H1259 C1201 0.930 . S
H1260 C1203 0.930 . S
H1261 C1205 0.929 . S
H1262 C1206 0.930 . S
H1263 C1207 0.930 . S
H1264 C1210 0.930 . S
H1265 C1213 0.929 . S
H1266 C1218 0.929 . S
H1267 C1219 0.930 . S
H1268 C1226 0.929 . S
H1269 C1227 0.930 . S
H1270 C1228 0.930 . S
H1271 C1229 0.930 . S
H1272 C1231 0.929 . S
H1273 C1232 0.930 . S
H1274 C1233 0.930 . S
H1275 C1234 0.930 . S
H1276 C1238 0.929 . S
H1277 C1240 0.930 . S
H1278 C1246 0.929 . S
H1279 C1247 0.930 . S
Li1280 N1297 1.990 . S
Li1280 O1340 1.956 . S
Li1280 O1341 1.970 1_455 S
Li1280 O1342 1.961 . S
Li1281 N1305 1.990 . S
Li1281 O1340 1.970 1_655 S
Li1281 O1341 1.956 . S
Li1281 O1343 1.961 . S
Li1282 N1327 1.990 . S
Li1282 O1340 1.961 . S
Li1282 O1342 1.956 . S
Li1282 O1343 1.970 1_455 S
Li1283 N1333 1.990 . S
Li1283 O1341 1.961 . S
Li1283 O1342 1.970 1_655 S
Li1283 O1343 1.956 . S
C1284 C1286 1.348 . S
C1284 C1287 1.356 . S
C1284 O1340 1.325 . S
N1285 C1288 1.314 . S
N1285 C1289 1.279 . S
C1286 C1284 1.348 . S
C1286 C1288 1.353 . S
C1286 H1344 0.929 . S
C1287 C1284 1.356 . S
C1287 C1289 1.358 . S
C1287 H1345 0.930 . S
C1288 N1285 1.314 . S
C1288 C1286 1.353 . S
C1288 H1346 0.930 . S
C1289 N1285 1.279 . S
C1289 C1287 1.358 . S
C1289 H1347 0.930 . S
C1290 C1293 1.348 1_655 S
C1290 C1294 1.356 . S
C1290 O1341 1.325 . S
C1291 N1292 1.279 . S
C1291 C1294 1.358 . S
C1291 H1348 0.930 . S
N1292 C1291 1.279 . S
N1292 C1295 1.314 1_655 S
C1293 C1290 1.348 1_455 S
C1293 C1295 1.353 . S
C1293 H1349 0.929 . S
C1294 C1290 1.356 . S
C1294 C1291 1.358 . S
C1294 H1350 0.930 . S
C1295 N1292 1.314 1_455 S
C1295 C1293 1.353 . S
C1295 H1351 0.930 . S
C1296 N1297 1.314 . S
C1296 C1301 1.353 . S
C1296 H1302 0.930 . S
N1297 Li1280 1.990 . S
N1297 C1296 1.314 . S
N1297 C1299 1.279 . S
C1298 C1299 1.358 . S
C1298 C1300 1.356 . S
C1298 H1352 0.930 . S
C1299 N1297 1.279 . S
C1299 C1298 1.358 . S
C1299 H1303 0.930 . S
C1300 C1298 1.356 . S
C1300 C1301 1.348 . S
C1301 C1296 1.353 . S
C1301 C1300 1.348 . S
C1301 H1353 0.929 . S
H1302 C1296 0.930 . S
H1303 C1299 0.930 . S
C1304 N1305 1.314 . S
C1304 C1306 1.353 . S
C1304 H1310 0.930 . S
N1305 Li1281 1.990 . S
N1305 C1304 1.314 . S
N1305 C1308 1.279 . S
C1306 C1304 1.353 . S
C1306 C1309 1.348 . S
C1306 H1354 0.929 . S
C1307 C1308 1.358 . S
C1307 C1309 1.356 . S
C1307 H1355 0.930 . S
C1308 N1305 1.279 . S
C1308 C1307 1.358 . S
C1308 H1311 0.930 . S
C1309 C1306 1.348 . S
C1309 C1307 1.356 . S
H1310 C1304 0.930 . S
H1311 C1308 0.930 . S
C1312 C1314 1.348 1_455 S
C1312 C1315 1.356 . S
C1312 O1342 1.325 . S
N1313 C1316 1.314 1_455 S
N1313 C1317 1.279 . S
C1314 C1312 1.348 1_655 S
C1314 C1316 1.353 . S
C1314 H1356 0.929 . S
C1315 C1312 1.356 . S
C1315 C1317 1.358 . S
C1315 H1357 0.930 . S
C1316 N1313 1.314 1_655 S
C1316 C1314 1.353 . S
C1316 H1358 0.930 . S
C1317 N1313 1.279 . S
C1317 C1315 1.358 . S
C1317 H1359 0.930 . S
C1318 C1319 1.348 . S
C1318 C1320 1.356 . S
C1318 O1343 1.325 . S
C1319 C1318 1.348 . S
C1319 C1321 1.353 . S
C1319 H1360 0.929 . S
C1320 C1318 1.356 . S
C1320 C1322 1.358 . S
C1320 H1361 0.930 . S
C1321 C1319 1.353 . S
C1321 N1323 1.314 . S
C1321 H1362 0.930 . S
C1322 C1320 1.358 . S
C1322 N1323 1.279 . S
C1322 H1363 0.930 . S
N1323 C1321 1.314 . S
N1323 C1322 1.279 . S
C1324 C1326 1.353 . S
C1324 N1327 1.314 . S
C1324 H1330 0.930 . S
C1325 N1327 1.279 . S
C1325 C1328 1.358 . S
C1325 H1331 0.930 . S
C1326 C1324 1.353 . S
C1326 C1329 1.348 . S
C1326 H1364 0.929 . S
N1327 Li1282 1.990 . S
N1327 C1324 1.314 . S
N1327 C1325 1.279 . S
C1328 C1325 1.358 . S
C1328 C1329 1.356 . S
C1328 H1365 0.930 . S
C1329 C1326 1.348 . S
C1329 C1328 1.356 . S
H1330 C1324 0.930 . S
H1331 C1325 0.930 . S
C1332 N1333 1.314 . S
C1332 C1334 1.353 . S
C1332 H1338 0.930 . S
N1333 Li1283 1.990 . S
N1333 C1332 1.314 . S
N1333 C1336 1.279 . S
C1334 C1332 1.353 . S
C1334 C1337 1.348 . S
C1334 H1366 0.929 . S
C1335 C1336 1.358 . S
C1335 C1337 1.356 . S
C1335 H1367 0.930 . S
C1336 N1333 1.279 . S
C1336 C1335 1.358 . S
C1336 H1339 0.930 . S
C1337 C1334 1.348 . S
C1337 C1335 1.356 . S
H1338 C1332 0.930 . S
H1339 C1336 0.930 . S
O1340 Li1280 1.956 . S
O1340 Li1281 1.970 1_455 S
O1340 Li1282 1.961 . S
O1340 C1284 1.325 . S
O1341 Li1280 1.970 1_655 S
O1341 Li1281 1.956 . S
O1341 Li1283 1.961 . S
O1341 C1290 1.325 . S
O1342 Li1280 1.961 . S
O1342 Li1282 1.956 . S
O1342 Li1283 1.970 1_455 S
O1342 C1312 1.325 . S
O1343 Li1281 1.961 . S
O1343 Li1282 1.970 1_655 S
O1343 Li1283 1.956 . S
O1343 C1318 1.325 . S
H1344 C1286 0.929 . S
H1345 C1287 0.930 . S
H1346 C1288 0.930 . S
H1347 C1289 0.930 . S
H1348 C1291 0.930 . S
H1349 C1293 0.929 . S
H1350 C1294 0.930 . S
H1351 C1295 0.930 . S
H1352 C1298 0.930 . S
H1353 C1301 0.929 . S
H1354 C1306 0.929 . S
H1355 C1307 0.930 . S
H1356 C1314 0.929 . S
H1357 C1315 0.930 . S
H1358 C1316 0.930 . S
H1359 C1317 0.930 . S
H1360 C1319 0.929 . S
H1361 C1320 0.930 . S
H1362 C1321 0.930 . S
H1363 C1322 0.930 . S
H1364 C1326 0.929 . S
H1365 C1328 0.930 . S
H1366 C1334 0.929 . S
H1367 C1335 0.930 . S
Li1368 N1385 1.990 . S
Li1368 O1428 1.956 . S
Li1368 O1429 1.970 . S
Li1368 O1430 1.961 . S
Li1369 N1393 1.990 . S
Li1369 O1428 1.970 . S
Li1369 O1429 1.956 . S
Li1369 O1431 1.961 . S
Li1370 N1415 1.990 . S
Li1370 O1428 1.961 . S
Li1370 O1430 1.956 . S
Li1370 O1431 1.970 . S
Li1371 N1421 1.990 . S
Li1371 O1429 1.961 . S
Li1371 O1430 1.970 . S
Li1371 O1431 1.956 . S
C1372 C1374 1.348 . S
C1372 C1375 1.356 . S
C1372 O1428 1.325 . S
N1373 C1376 1.314 . S
N1373 C1377 1.279 . S
C1374 C1372 1.348 . S
C1374 C1376 1.353 . S
C1374 H1432 0.929 . S
C1375 C1372 1.356 . S
C1375 C1377 1.358 . S
C1375 H1433 0.930 . S
C1376 N1373 1.314 . S
C1376 C1374 1.353 . S
C1376 H1434 0.930 . S
C1377 N1373 1.279 . S
C1377 C1375 1.358 . S
C1377 H1435 0.930 . S
C1378 C1381 1.348 . S
C1378 C1382 1.356 . S
C1378 O1429 1.325 . S
C1379 N1380 1.279 . S
C1379 C1382 1.358 . S
C1379 H1436 0.930 . S
N1380 C1379 1.279 . S
N1380 C1383 1.314 . S
C1381 C1378 1.348 . S
C1381 C1383 1.353 . S
C1381 H1437 0.929 . S
C1382 C1378 1.356 . S
C1382 C1379 1.358 . S
C1382 H1438 0.930 . S
C1383 N1380 1.314 . S
C1383 C1381 1.353 . S
C1383 H1439 0.930 . S
C1384 N1385 1.314 . S
C1384 C1389 1.353 . S
C1384 H1390 0.930 . S
N1385 Li1368 1.990 . S
N1385 C1384 1.314 . S
N1385 C1387 1.279 . S
C1386 C1387 1.358 . S
C1386 C1388 1.356 . S
C1386 H1440 0.930 . S
C1387 N1385 1.279 . S
C1387 C1386 1.358 . S
C1387 H1391 0.930 . S
C1388 C1386 1.356 . S
C1388 C1389 1.348 . S
C1389 C1384 1.353 . S
C1389 C1388 1.348 . S
C1389 H1441 0.929 . S
H1390 C1384 0.930 . S
H1391 C1387 0.930 . S
C1392 N1393 1.314 . S
C1392 C1394 1.353 . S
C1392 H1398 0.930 . S
N1393 Li1369 1.990 . S
N1393 C1392 1.314 . S
N1393 C1396 1.279 . S
C1394 C1392 1.353 . S
C1394 C1397 1.348 . S
C1394 H1442 0.929 . S
C1395 C1396 1.358 . S
C1395 C1397 1.356 . S
C1395 H1443 0.930 . S
C1396 N1393 1.279 . S
C1396 C1395 1.358 . S
C1396 H1399 0.930 . S
C1397 C1394 1.348 . S
C1397 C1395 1.356 . S
H1398 C1392 0.930 . S
H1399 C1396 0.930 . S
C1400 C1402 1.348 . S
C1400 C1403 1.356 . S
C1400 O1430 1.325 . S
N1401 C1404 1.314 . S
N1401 C1405 1.279 . S
C1402 C1400 1.348 . S
C1402 C1404 1.353 . S
C1402 H1444 0.929 . S
C1403 C1400 1.356 . S
C1403 C1405 1.358 . S
C1403 H1445 0.930 . S
C1404 N1401 1.314 . S
C1404 C1402 1.353 . S
C1404 H1446 0.930 . S
C1405 N1401 1.279 . S
C1405 C1403 1.358 . S
C1405 H1447 0.930 . S
C1406 C1407 1.348 . S
C1406 C1408 1.356 . S
C1406 O1431 1.325 . S
C1407 C1406 1.348 . S
C1407 C1409 1.353 . S
C1407 H1448 0.929 . S
C1408 C1406 1.356 . S
C1408 C1410 1.358 . S
C1408 H1449 0.930 . S
C1409 C1407 1.353 . S
C1409 N1411 1.314 . S
C1409 H1450 0.930 . S
C1410 C1408 1.358 . S
C1410 N1411 1.279 . S
C1410 H1451 0.930 . S
N1411 C1409 1.314 . S
N1411 C1410 1.279 . S
C1412 C1414 1.353 . S
C1412 N1415 1.314 . S
C1412 H1418 0.930 . S
C1413 N1415 1.279 . S
C1413 C1416 1.358 . S
C1413 H1419 0.930 . S
C1414 C1412 1.353 . S
C1414 C1417 1.348 . S
C1414 H1452 0.929 . S
N1415 Li1370 1.990 . S
N1415 C1412 1.314 . S
N1415 C1413 1.279 . S
C1416 C1413 1.358 . S
C1416 C1417 1.356 . S
C1416 H1453 0.930 . S
C1417 C1414 1.348 . S
C1417 C1416 1.356 . S
H1418 C1412 0.930 . S
H1419 C1413 0.930 . S
C1420 N1421 1.314 . S
C1420 C1422 1.353 . S
C1420 H1426 0.930 . S
N1421 Li1371 1.990 . S
N1421 C1420 1.314 . S
N1421 C1424 1.279 . S
C1422 C1420 1.353 . S
C1422 C1425 1.348 . S
C1422 H1454 0.929 . S
C1423 C1424 1.358 . S
C1423 C1425 1.356 . S
C1423 H1455 0.930 . S
C1424 N1421 1.279 . S
C1424 C1423 1.358 . S
C1424 H1427 0.930 . S
C1425 C1422 1.348 . S
C1425 C1423 1.356 . S
H1426 C1420 0.930 . S
H1427 C1424 0.930 . S
O1428 Li1368 1.956 . S
O1428 Li1369 1.970 . S
O1428 Li1370 1.961 . S
O1428 C1372 1.325 . S
O1429 Li1368 1.970 . S
O1429 Li1369 1.956 . S
O1429 Li1371 1.961 . S
O1429 C1378 1.325 . S
O1430 Li1368 1.961 . S
O1430 Li1370 1.956 . S
O1430 Li1371 1.970 . S
O1430 C1400 1.325 . S
O1431 Li1369 1.961 . S
O1431 Li1370 1.970 . S
O1431 Li1371 1.956 . S
O1431 C1406 1.325 . S
H1432 C1374 0.929 . S
H1433 C1375 0.930 . S
H1434 C1376 0.930 . S
H1435 C1377 0.930 . S
H1436 C1379 0.930 . S
H1437 C1381 0.929 . S
H1438 C1382 0.930 . S
H1439 C1383 0.930 . S
H1440 C1386 0.930 . S
H1441 C1389 0.929 . S
H1442 C1394 0.929 . S
H1443 C1395 0.930 . S
H1444 C1402 0.929 . S
H1445 C1403 0.930 . S
H1446 C1404 0.930 . S
H1447 C1405 0.930 . S
H1448 C1407 0.929 . S
H1449 C1408 0.930 . S
H1450 C1409 0.930 . S
H1451 C1410 0.930 . S
H1452 C1414 0.929 . S
H1453 C1416 0.930 . S
H1454 C1422 0.929 . S
H1455 C1423 0.930 . S
Li1456 N1473 1.990 . S
Li1456 O1516 1.956 . S
Li1456 O1517 1.970 1_455 S
Li1456 O1518 1.961 . S
Li1457 N1481 1.990 . S
Li1457 O1516 1.970 1_655 S
Li1457 O1517 1.956 . S
Li1457 O1519 1.961 . S
Li1458 N1503 1.990 . S
Li1458 O1516 1.961 . S
Li1458 O1518 1.956 . S
Li1458 O1519 1.970 1_455 S
Li1459 N1509 1.990 . S
Li1459 O1517 1.961 . S
Li1459 O1518 1.970 1_655 S
Li1459 O1519 1.956 . S
C1460 C1462 1.348 1_455 S
C1460 C1463 1.356 . S
C1460 O1516 1.325 . S
N1461 C1464 1.314 1_455 S
N1461 C1465 1.279 . S
C1462 C1460 1.348 1_655 S
C1462 C1464 1.353 . S
C1462 H1520 0.929 . S
C1463 C1460 1.356 . S
C1463 C1465 1.358 . S
C1463 H1521 0.930 . S
C1464 N1461 1.314 1_655 S
C1464 C1462 1.353 . S
C1464 H1522 0.930 . S
C1465 N1461 1.279 . S
C1465 C1463 1.358 . S
C1465 H1523 0.930 . S
C1466 C1469 1.348 . S
C1466 C1470 1.356 . S
C1466 O1517 1.325 . S
C1467 N1468 1.279 . S
C1467 C1470 1.358 . S
C1467 H1524 0.930 . S
N1468 C1467 1.279 . S
N1468 C1471 1.314 . S
C1469 C1466 1.348 . S
C1469 C1471 1.353 . S
C1469 H1525 0.929 . S
C1470 C1466 1.356 . S
C1470 C1467 1.358 . S
C1470 H1526 0.930 . S
C1471 N1468 1.314 . S
C1471 C1469 1.353 . S
C1471 H1527 0.930 . S
C1472 N1473 1.314 . S
C1472 C1477 1.353 . S
C1472 H1478 0.930 . S
N1473 Li1456 1.990 . S
N1473 C1472 1.314 . S
N1473 C1475 1.279 . S
C1474 C1475 1.358 . S
C1474 C1476 1.356 . S
C1474 H1528 0.930 . S
C1475 N1473 1.279 . S
C1475 C1474 1.358 . S
C1475 H1479 0.930 . S
C1476 C1474 1.356 . S
C1476 C1477 1.348 . S
C1477 C1472 1.353 . S
C1477 C1476 1.348 . S
C1477 H1529 0.929 . S
H1478 C1472 0.930 . S
H1479 C1475 0.930 . S
C1480 N1481 1.314 . S
C1480 C1482 1.353 . S
C1480 H1486 0.930 . S
N1481 Li1457 1.990 . S
N1481 C1480 1.314 . S
N1481 C1484 1.279 . S
C1482 C1480 1.353 . S
C1482 C1485 1.348 . S
C1482 H1530 0.929 . S
C1483 C1484 1.358 . S
C1483 C1485 1.356 . S
C1483 H1531 0.930 . S
C1484 N1481 1.279 . S
C1484 C1483 1.358 . S
C1484 H1487 0.930 . S
C1485 C1482 1.348 . S
C1485 C1483 1.356 . S
H1486 C1480 0.930 . S
H1487 C1484 0.930 . S
C1488 C1490 1.348 . S
C1488 C1491 1.356 . S
C1488 O1518 1.325 . S
N1489 C1492 1.314 . S
N1489 C1493 1.279 . S
C1490 C1488 1.348 . S
C1490 C1492 1.353 . S
C1490 H1532 0.929 . S
C1491 C1488 1.356 . S
C1491 C1493 1.358 . S
C1491 H1533 0.930 . S
C1492 N1489 1.314 . S
C1492 C1490 1.353 . S
C1492 H1534 0.930 . S
C1493 N1489 1.279 . S
C1493 C1491 1.358 . S
C1493 H1535 0.930 . S
C1494 C1495 1.348 1_655 S
C1494 C1496 1.356 . S
C1494 O1519 1.325 . S
C1495 C1494 1.348 1_455 S
C1495 C1497 1.353 . S
C1495 H1536 0.929 . S
C1496 C1494 1.356 . S
C1496 C1498 1.358 . S
C1496 H1537 0.930 . S
C1497 C1495 1.353 . S
C1497 N1499 1.314 1_455 S
C1497 H1538 0.930 . S
C1498 C1496 1.358 . S
C1498 N1499 1.279 . S
C1498 H1539 0.930 . S
N1499 C1497 1.314 1_655 S
N1499 C1498 1.279 . S
C1500 C1502 1.353 . S
C1500 N1503 1.314 . S
C1500 H1506 0.930 . S
C1501 N1503 1.279 . S
C1501 C1504 1.358 . S
C1501 H1507 0.930 . S
C1502 C1500 1.353 . S
C1502 C1505 1.348 . S
C1502 H1540 0.929 . S
N1503 Li1458 1.990 . S
N1503 C1500 1.314 . S
N1503 C1501 1.279 . S
C1504 C1501 1.358 . S
C1504 C1505 1.356 . S
C1504 H1541 0.930 . S
C1505 C1502 1.348 . S
C1505 C1504 1.356 . S
H1506 C1500 0.930 . S
H1507 C1501 0.930 . S
C1508 N1509 1.314 . S
C1508 C1510 1.353 . S
C1508 H1514 0.930 . S
N1509 Li1459 1.990 . S
N1509 C1508 1.314 . S
N1509 C1512 1.279 . S
C1510 C1508 1.353 . S
C1510 C1513 1.348 . S
C1510 H1542 0.929 . S
C1511 C1512 1.358 . S
C1511 C1513 1.356 . S
C1511 H1543 0.930 . S
C1512 N1509 1.279 . S
C1512 C1511 1.358 . S
C1512 H1515 0.930 . S
C1513 C1510 1.348 . S
C1513 C1511 1.356 . S
H1514 C1508 0.930 . S
H1515 C1512 0.930 . S
O1516 Li1456 1.956 . S
O1516 Li1457 1.970 1_455 S
O1516 Li1458 1.961 . S
O1516 C1460 1.325 . S
O1517 Li1456 1.970 1_655 S
O1517 Li1457 1.956 . S
O1517 Li1459 1.961 . S
O1517 C1466 1.325 . S
O1518 Li1456 1.961 . S
O1518 Li1458 1.956 . S
O1518 Li1459 1.970 1_455 S
O1518 C1488 1.325 . S
O1519 Li1457 1.961 . S
O1519 Li1458 1.970 1_655 S
O1519 Li1459 1.956 . S
O1519 C1494 1.325 . S
H1520 C1462 0.929 . S
H1521 C1463 0.930 . S
H1522 C1464 0.930 . S
H1523 C1465 0.930 . S
H1524 C1467 0.930 . S
H1525 C1469 0.929 . S
H1526 C1470 0.930 . S
H1527 C1471 0.930 . S
H1528 C1474 0.930 . S
H1529 C1477 0.929 . S
H1530 C1482 0.929 . S
H1531 C1483 0.930 . S
H1532 C1490 0.929 . S
H1533 C1491 0.930 . S
H1534 C1492 0.930 . S
H1535 C1493 0.930 . S
H1536 C1495 0.929 . S
H1537 C1496 0.930 . S
H1538 C1497 0.930 . S
H1539 C1498 0.930 . S
H1540 C1502 0.929 . S
H1541 C1504 0.930 . S
H1542 C1510 0.929 . S
H1543 C1511 0.930 . S
Li1544 N1561 1.990 . S
Li1544 O1604 1.956 . S
Li1544 O1605 1.970 . S
Li1544 O1606 1.961 . S
Li1545 N1569 1.990 . S
Li1545 O1604 1.970 . S
Li1545 O1605 1.956 . S
Li1545 O1607 1.961 . S
Li1546 N1591 1.990 . S
Li1546 O1604 1.961 . S
Li1546 O1606 1.956 . S
Li1546 O1607 1.970 . S
Li1547 N1597 1.990 . S
Li1547 O1605 1.961 . S
Li1547 O1606 1.970 . S
Li1547 O1607 1.956 . S
C1548 C1550 1.348 . S
C1548 C1551 1.356 . S
C1548 O1604 1.325 . S
N1549 C1552 1.314 . S
N1549 C1553 1.279 . S
C1550 C1548 1.348 . S
C1550 C1552 1.353 . S
C1550 H1608 0.929 . S
C1551 C1548 1.356 . S
C1551 C1553 1.358 . S
C1551 H1609 0.930 . S
C1552 N1549 1.314 . S
C1552 C1550 1.353 . S
C1552 H1610 0.930 . S
C1553 N1549 1.279 . S
C1553 C1551 1.358 . S
C1553 H1611 0.930 . S
C1554 C1557 1.348 . S
C1554 C1558 1.356 . S
C1554 O1605 1.325 . S
C1555 N1556 1.279 . S
C1555 C1558 1.358 . S
C1555 H1612 0.930 . S
N1556 C1555 1.279 . S
N1556 C1559 1.314 . S
C1557 C1554 1.348 . S
C1557 C1559 1.353 . S
C1557 H1613 0.929 . S
C1558 C1554 1.356 . S
C1558 C1555 1.358 . S
C1558 H1614 0.930 . S
C1559 N1556 1.314 . S
C1559 C1557 1.353 . S
C1559 H1615 0.930 . S
C1560 N1561 1.314 . S
C1560 C1565 1.353 . S
C1560 H1566 0.930 . S
N1561 Li1544 1.990 . S
N1561 C1560 1.314 . S
N1561 C1563 1.279 . S
C1562 C1563 1.358 . S
C1562 C1564 1.356 . S
C1562 H1616 0.930 . S
C1563 N1561 1.279 . S
C1563 C1562 1.358 . S
C1563 H1567 0.930 . S
C1564 C1562 1.356 . S
C1564 C1565 1.348 . S
C1565 C1560 1.353 . S
C1565 C1564 1.348 . S
C1565 H1617 0.929 . S
H1566 C1560 0.930 . S
H1567 C1563 0.930 . S
C1568 N1569 1.314 . S
C1568 C1570 1.353 . S
C1568 H1574 0.930 . S
N1569 Li1545 1.990 . S
N1569 C1568 1.314 . S
N1569 C1572 1.279 . S
C1570 C1568 1.353 . S
C1570 C1573 1.348 . S
C1570 H1618 0.929 . S
C1571 C1572 1.358 . S
C1571 C1573 1.356 . S
C1571 H1619 0.930 . S
C1572 N1569 1.279 . S
C1572 C1571 1.358 . S
C1572 H1575 0.930 . S
C1573 C1570 1.348 . S
C1573 C1571 1.356 . S
H1574 C1568 0.930 . S
H1575 C1572 0.930 . S
C1576 C1578 1.348 . S
C1576 C1579 1.356 . S
C1576 O1606 1.325 . S
N1577 C1580 1.314 . S
N1577 C1581 1.279 . S
C1578 C1576 1.348 . S
C1578 C1580 1.353 . S
C1578 H1620 0.929 . S
C1579 C1576 1.356 . S
C1579 C1581 1.358 . S
C1579 H1621 0.930 . S
C1580 N1577 1.314 . S
C1580 C1578 1.353 . S
C1580 H1622 0.930 . S
C1581 N1577 1.279 . S
C1581 C1579 1.358 . S
C1581 H1623 0.930 . S
C1582 C1583 1.348 . S
C1582 C1584 1.356 . S
C1582 O1607 1.325 . S
C1583 C1582 1.348 . S
C1583 C1585 1.353 . S
C1583 H1624 0.929 . S
C1584 C1582 1.356 . S
C1584 C1586 1.358 . S
C1584 H1625 0.930 . S
C1585 C1583 1.353 . S
C1585 N1587 1.314 . S
C1585 H1626 0.930 . S
C1586 C1584 1.358 . S
C1586 N1587 1.279 . S
C1586 H1627 0.930 . S
N1587 C1585 1.314 . S
N1587 C1586 1.279 . S
C1588 C1590 1.353 . S
C1588 N1591 1.314 . S
C1588 H1594 0.930 . S
C1589 N1591 1.279 . S
C1589 C1592 1.358 . S
C1589 H1595 0.930 . S
C1590 C1588 1.353 . S
C1590 C1593 1.348 . S
C1590 H1628 0.929 . S
N1591 Li1546 1.990 . S
N1591 C1588 1.314 . S
N1591 C1589 1.279 . S
C1592 C1589 1.358 . S
C1592 C1593 1.356 . S
C1592 H1629 0.930 . S
C1593 C1590 1.348 . S
C1593 C1592 1.356 . S
H1594 C1588 0.930 . S
H1595 C1589 0.930 . S
C1596 N1597 1.314 . S
C1596 C1598 1.353 . S
C1596 H1602 0.930 . S
N1597 Li1547 1.990 . S
N1597 C1596 1.314 . S
N1597 C1600 1.279 . S
C1598 C1596 1.353 . S
C1598 C1601 1.348 . S
C1598 H1630 0.929 . S
C1599 C1600 1.358 . S
C1599 C1601 1.356 . S
C1599 H1631 0.930 . S
C1600 N1597 1.279 . S
C1600 C1599 1.358 . S
C1600 H1603 0.930 . S
C1601 C1598 1.348 . S
C1601 C1599 1.356 . S
H1602 C1596 0.930 . S
H1603 C1600 0.930 . S
O1604 Li1544 1.956 . S
O1604 Li1545 1.970 . S
O1604 Li1546 1.961 . S
O1604 C1548 1.325 . S
O1605 Li1544 1.970 . S
O1605 Li1545 1.956 . S
O1605 Li1547 1.961 . S
O1605 C1554 1.325 . S
O1606 Li1544 1.961 . S
O1606 Li1546 1.956 . S
O1606 Li1547 1.970 . S
O1606 C1576 1.325 . S
O1607 Li1545 1.961 . S
O1607 Li1546 1.970 . S
O1607 Li1547 1.956 . S
O1607 C1582 1.325 . S
H1608 C1550 0.929 . S
H1609 C1551 0.930 . S
H1610 C1552 0.930 . S
H1611 C1553 0.930 . S
H1612 C1555 0.930 . S
H1613 C1557 0.929 . S
H1614 C1558 0.930 . S
H1615 C1559 0.930 . S
H1616 C1562 0.930 . S
H1617 C1565 0.929 . S
H1618 C1570 0.929 . S
H1619 C1571 0.930 . S
H1620 C1578 0.929 . S
H1621 C1579 0.930 . S
H1622 C1580 0.930 . S
H1623 C1581 0.930 . S
H1624 C1583 0.929 . S
H1625 C1584 0.930 . S
H1626 C1585 0.930 . S
H1627 C1586 0.930 . S
H1628 C1590 0.929 . S
H1629 C1592 0.930 . S
H1630 C1598 0.929 . S
H1631 C1599 0.930 . S
C1632 C1633 1.391 . S
C1632 C1634 1.394 . S
C1632 H1648 0.931 . S
C1633 C1632 1.391 . S
C1633 C1637 1.376 . S
C1634 C1632 1.394 . S
C1634 C1635 1.369 . S
C1634 C1638 1.531 . S
C1635 C1634 1.369 . S
C1635 C1636 1.410 . S
C1635 C1643 1.503 . S
C1636 C1635 1.410 . S
C1636 C1637 1.392 . S
C1636 C1639 1.511 . S
C1637 C1633 1.376 . S
C1637 C1636 1.392 . S
C1637 H1649 0.929 . S
C1638 C1634 1.531 . S
C1638 H1650 0.960 . S
C1638 H1651 0.962 . S
C1638 H1652 0.960 . S
C1639 C1636 1.511 . S
C1639 H1653 0.961 . S
C1639 H1654 0.961 . S
C1639 H1655 0.961 . S
C1640 C1641 1.370 . S
C1640 C1642 1.363 . S
C1640 H1656 0.931 . S
C1641 C1640 1.370 . S
C1641 C1645 1.408 . S
C1642 C1640 1.363 . S
C1642 C1643 1.370 . S
C1642 C1646 1.524 . S
C1643 C1635 1.503 . S
C1643 C1642 1.370 . S
C1643 C1644 1.403 . S
C1644 C1643 1.403 . S
C1644 C1645 1.404 . S
C1644 C1647 1.539 . S
C1645 C1641 1.408 . S
C1645 C1644 1.404 . S
C1645 H1657 0.930 . S
C1646 C1642 1.524 . S
C1646 H1658 0.956 . S
C1646 H1659 0.961 . S
C1646 H1660 0.961 . S
C1647 C1644 1.539 . S
C1647 H1661 0.958 . S
C1647 H1662 0.961 . S
C1647 H1663 0.960 . S
H1648 C1632 0.931 . S
H1649 C1637 0.929 . S
H1650 C1638 0.960 . S
H1651 C1638 0.962 . S
H1652 C1638 0.960 . S
H1653 C1639 0.961 . S
H1654 C1639 0.961 . S
H1655 C1639 0.961 . S
H1656 C1640 0.931 . S
H1657 C1645 0.930 . S
H1658 C1646 0.956 . S
H1659 C1646 0.961 . S
H1660 C1646 0.961 . S
H1661 C1647 0.958 . S
H1662 C1647 0.961 . S
H1663 C1647 0.960 . S
C1664 C1665 1.391 . S
C1664 C1666 1.394 . S
C1664 H1680 0.931 . S
C1665 C1664 1.391 . S
C1665 C1669 1.376 . S
C1666 C1664 1.394 . S
C1666 C1667 1.369 . S
C1666 C1670 1.531 . S
C1667 C1666 1.369 . S
C1667 C1668 1.410 . S
C1667 C1675 1.503 . S
C1668 C1667 1.410 . S
C1668 C1669 1.392 . S
C1668 C1671 1.511 . S
C1669 C1665 1.376 . S
C1669 C1668 1.392 . S
C1669 H1681 0.929 . S
C1670 C1666 1.531 . S
C1670 H1682 0.960 . S
C1670 H1683 0.962 . S
C1670 H1684 0.960 . S
C1671 C1668 1.511 . S
C1671 H1685 0.961 . S
C1671 H1686 0.961 . S
C1671 H1687 0.961 . S
C1672 C1673 1.370 . S
C1672 C1674 1.363 . S
C1672 H1688 0.931 . S
C1673 C1672 1.370 . S
C1673 C1677 1.408 . S
C1674 C1672 1.363 . S
C1674 C1675 1.370 . S
C1674 C1678 1.524 . S
C1675 C1667 1.503 . S
C1675 C1674 1.370 . S
C1675 C1676 1.403 . S
C1676 C1675 1.403 . S
C1676 C1677 1.404 . S
C1676 C1679 1.539 . S
C1677 C1673 1.408 . S
C1677 C1676 1.404 . S
C1677 H1689 0.930 . S
C1678 C1674 1.524 . S
C1678 H1690 0.956 . S
C1678 H1691 0.961 . S
C1678 H1692 0.961 . S
C1679 C1676 1.539 . S
C1679 H1693 0.958 . S
C1679 H1694 0.961 . S
C1679 H1695 0.960 . S
H1680 C1664 0.931 . S
H1681 C1669 0.929 . S
H1682 C1670 0.960 . S
H1683 C1670 0.962 . S
H1684 C1670 0.960 . S
H1685 C1671 0.961 . S
H1686 C1671 0.961 . S
H1687 C1671 0.961 . S
H1688 C1672 0.931 . S
H1689 C1677 0.930 . S
H1690 C1678 0.956 . S
H1691 C1678 0.961 . S
H1692 C1678 0.961 . S
H1693 C1679 0.958 . S
H1694 C1679 0.961 . S
H1695 C1679 0.960 . S
C1696 C1697 1.391 . S
C1696 C1698 1.394 . S
C1696 H1712 0.931 . S
C1697 C1696 1.391 . S
C1697 C1701 1.376 . S
C1698 C1696 1.394 . S
C1698 C1699 1.369 . S
C1698 C1702 1.531 . S
C1699 C1698 1.369 . S
C1699 C1700 1.410 . S
C1699 C1707 1.503 . S
C1700 C1699 1.410 . S
C1700 C1701 1.392 . S
C1700 C1703 1.511 . S
C1701 C1697 1.376 . S
C1701 C1700 1.392 . S
C1701 H1713 0.929 . S
C1702 C1698 1.531 . S
C1702 H1714 0.960 . S
C1702 H1715 0.962 . S
C1702 H1716 0.960 . S
C1703 C1700 1.511 . S
C1703 H1717 0.961 . S
C1703 H1718 0.961 . S
C1703 H1719 0.961 . S
C1704 C1705 1.370 . S
C1704 C1706 1.363 . S
C1704 H1720 0.931 . S
C1705 C1704 1.370 . S
C1705 C1709 1.408 . S
C1706 C1704 1.363 . S
C1706 C1707 1.370 . S
C1706 C1710 1.524 . S
C1707 C1699 1.503 . S
C1707 C1706 1.370 . S
C1707 C1708 1.403 . S
C1708 C1707 1.403 . S
C1708 C1709 1.404 . S
C1708 C1711 1.539 . S
C1709 C1705 1.408 . S
C1709 C1708 1.404 . S
C1709 H1721 0.930 . S
C1710 C1706 1.524 . S
C1710 H1722 0.956 . S
C1710 H1723 0.961 . S
C1710 H1724 0.961 . S
C1711 C1708 1.539 . S
C1711 H1725 0.958 . S
C1711 H1726 0.961 . S
C1711 H1727 0.960 . S
H1712 C1696 0.931 . S
H1713 C1701 0.929 . S
H1714 C1702 0.960 . S
H1715 C1702 0.962 . S
H1716 C1702 0.960 . S
H1717 C1703 0.961 . S
H1718 C1703 0.961 . S
H1719 C1703 0.961 . S
H1720 C1704 0.931 . S
H1721 C1709 0.930 . S
H1722 C1710 0.956 . S
H1723 C1710 0.961 . S
H1724 C1710 0.961 . S
H1725 C1711 0.958 . S
H1726 C1711 0.961 . S
H1727 C1711 0.960 . S
C1728 C1729 1.391 . S
C1728 C1730 1.394 . S
C1728 H1744 0.931 . S
C1729 C1728 1.391 . S
C1729 C1733 1.376 . S
C1730 C1728 1.394 . S
C1730 C1731 1.369 . S
C1730 C1734 1.531 . S
C1731 C1730 1.369 . S
C1731 C1732 1.410 . S
C1731 C1739 1.503 . S
C1732 C1731 1.410 . S
C1732 C1733 1.392 . S
C1732 C1735 1.511 . S
C1733 C1729 1.376 . S
C1733 C1732 1.392 . S
C1733 H1745 0.929 . S
C1734 C1730 1.531 . S
C1734 H1746 0.960 1_565 S
C1734 H1747 0.962 . S
C1734 H1748 0.960 1_565 S
C1735 C1732 1.511 . S
C1735 H1749 0.961 . S
C1735 H1750 0.961 . S
C1735 H1751 0.961 . S
C1736 C1737 1.370 . S
C1736 C1738 1.363 . S
C1736 H1752 0.931 . S
C1737 C1736 1.370 . S
C1737 C1741 1.408 1_565 S
C1738 C1736 1.363 . S
C1738 C1739 1.370 . S
C1738 C1742 1.524 . S
C1739 C1731 1.503 . S
C1739 C1738 1.370 . S
C1739 C1740 1.403 1_565 S
C1740 C1739 1.403 1_545 S
C1740 C1741 1.404 . S
C1740 C1743 1.539 . S
C1741 C1737 1.408 1_545 S
C1741 C1740 1.404 . S
C1741 H1753 0.930 . S
C1742 C1738 1.524 . S
C1742 H1754 0.956 . S
C1742 H1755 0.961 . S
C1742 H1756 0.961 . S
C1743 C1740 1.539 . S
C1743 H1757 0.958 . S
C1743 H1758 0.961 . S
C1743 H1759 0.960 . S
H1744 C1728 0.931 . S
H1745 C1733 0.929 . S
H1746 C1734 0.960 1_545 S
H1747 C1734 0.962 . S
H1748 C1734 0.960 1_545 S
H1749 C1735 0.961 . S
H1750 C1735 0.961 . S
H1751 C1735 0.961 . S
H1752 C1736 0.931 . S
H1753 C1741 0.930 . S
H1754 C1742 0.956 . S
H1755 C1742 0.961 . S
H1756 C1742 0.961 . S
H1757 C1743 0.958 . S
H1758 C1743 0.961 . S
H1759 C1743 0.960 . S
C1760 C1761 1.391 . S
C1760 C1762 1.394 . S
C1760 H1776 0.931 . S
C1761 C1760 1.391 . S
C1761 C1765 1.376 . S
C1762 C1760 1.394 . S
C1762 C1763 1.369 . S
C1762 C1766 1.531 . S
C1763 C1762 1.369 . S
C1763 C1764 1.410 . S
C1763 C1771 1.503 . S
C1764 C1763 1.410 . S
C1764 C1765 1.392 . S
C1764 C1767 1.511 . S
C1765 C1761 1.376 . S
C1765 C1764 1.392 . S
C1765 H1777 0.929 . S
C1766 C1762 1.531 . S
C1766 H1778 0.960 . S
C1766 H1779 0.962 . S
C1766 H1780 0.960 . S
C1767 C1764 1.511 . S
C1767 H1781 0.961 . S
C1767 H1782 0.961 . S
C1767 H1783 0.961 . S
C1768 C1769 1.370 . S
C1768 C1770 1.363 . S
C1768 H1784 0.931 . S
C1769 C1768 1.370 . S
C1769 C1773 1.408 . S
C1770 C1768 1.363 . S
C1770 C1771 1.370 . S
C1770 C1774 1.524 . S
C1771 C1763 1.503 . S
C1771 C1770 1.370 . S
C1771 C1772 1.403 . S
C1772 C1771 1.403 . S
C1772 C1773 1.404 . S
C1772 C1775 1.539 . S
C1773 C1769 1.408 . S
C1773 C1772 1.404 . S
C1773 H1785 0.930 . S
C1774 C1770 1.524 . S
C1774 H1786 0.956 . S
C1774 H1787 0.961 . S
C1774 H1788 0.961 . S
C1775 C1772 1.539 . S
C1775 H1789 0.958 . S
C1775 H1790 0.961 . S
C1775 H1791 0.960 . S
H1776 C1760 0.931 . S
H1777 C1765 0.929 . S
H1778 C1766 0.960 . S
H1779 C1766 0.962 . S
H1780 C1766 0.960 . S
H1781 C1767 0.961 . S
H1782 C1767 0.961 . S
H1783 C1767 0.961 . S
H1784 C1768 0.931 . S
H1785 C1773 0.930 . S
H1786 C1774 0.956 . S
H1787 C1774 0.961 . S
H1788 C1774 0.961 . S
H1789 C1775 0.958 . S
H1790 C1775 0.961 . S
H1791 C1775 0.960 . S
C1792 C1793 1.391 . S
C1792 C1794 1.394 . S
C1792 H1808 0.931 . S
C1793 C1792 1.391 . S
C1793 C1797 1.376 . S
C1794 C1792 1.394 . S
C1794 C1795 1.369 . S
C1794 C1798 1.531 . S
C1795 C1794 1.369 . S
C1795 C1796 1.410 . S
C1795 C1803 1.503 . S
C1796 C1795 1.410 . S
C1796 C1797 1.392 . S
C1796 C1799 1.511 . S
C1797 C1793 1.376 . S
C1797 C1796 1.392 . S
C1797 H1809 0.929 . S
C1798 C1794 1.531 . S
C1798 H1810 0.960 . S
C1798 H1811 0.962 . S
C1798 H1812 0.960 . S
C1799 C1796 1.511 . S
C1799 H1813 0.961 . S
C1799 H1814 0.961 . S
C1799 H1815 0.961 . S
C1800 C1801 1.370 . S
C1800 C1802 1.363 . S
C1800 H1816 0.931 . S
C1801 C1800 1.370 . S
C1801 C1805 1.408 . S
C1802 C1800 1.363 . S
C1802 C1803 1.370 . S
C1802 C1806 1.524 . S
C1803 C1795 1.503 . S
C1803 C1802 1.370 . S
C1803 C1804 1.403 . S
C1804 C1803 1.403 . S
C1804 C1805 1.404 . S
C1804 C1807 1.539 . S
C1805 C1801 1.408 . S
C1805 C1804 1.404 . S
C1805 H1817 0.930 . S
C1806 C1802 1.524 . S
C1806 H1818 0.956 . S
C1806 H1819 0.961 . S
C1806 H1820 0.961 . S
C1807 C1804 1.539 . S
C1807 H1821 0.958 . S
C1807 H1822 0.961 . S
C1807 H1823 0.960 . S
H1808 C1792 0.931 . S
H1809 C1797 0.929 . S
H1810 C1798 0.960 . S
H1811 C1798 0.962 . S
H1812 C1798 0.960 . S
H1813 C1799 0.961 . S
H1814 C1799 0.961 . S
H1815 C1799 0.961 . S
H1816 C1800 0.931 . S
H1817 C1805 0.930 . S
H1818 C1806 0.956 . S
H1819 C1806 0.961 . S
H1820 C1806 0.961 . S
H1821 C1807 0.958 . S
H1822 C1807 0.961 . S
H1823 C1807 0.960 . S
C1824 C1825 1.391 . S
C1824 C1826 1.394 . S
C1824 H1840 0.931 . S
C1825 C1824 1.391 . S
C1825 C1829 1.376 . S
C1826 C1824 1.394 . S
C1826 C1827 1.369 . S
C1826 C1830 1.531 . S
C1827 C1826 1.369 . S
C1827 C1828 1.410 . S
C1827 C1835 1.503 . S
C1828 C1827 1.410 . S
C1828 C1829 1.392 . S
C1828 C1831 1.511 . S
C1829 C1825 1.376 . S
C1829 C1828 1.392 . S
C1829 H1841 0.929 . S
C1830 C1826 1.531 . S
C1830 H1842 0.960 . S
C1830 H1843 0.962 . S
C1830 H1844 0.960 . S
C1831 C1828 1.511 . S
C1831 H1845 0.961 . S
C1831 H1846 0.961 . S
C1831 H1847 0.961 . S
C1832 C1833 1.370 . S
C1832 C1834 1.363 . S
C1832 H1848 0.931 . S
C1833 C1832 1.370 . S
C1833 C1837 1.408 . S
C1834 C1832 1.363 . S
C1834 C1835 1.370 . S
C1834 C1838 1.524 . S
C1835 C1827 1.503 . S
C1835 C1834 1.370 . S
C1835 C1836 1.403 . S
C1836 C1835 1.403 . S
C1836 C1837 1.404 . S
C1836 C1839 1.539 . S
C1837 C1833 1.408 . S
C1837 C1836 1.404 . S
C1837 H1849 0.930 . S
C1838 C1834 1.524 . S
C1838 H1850 0.956 . S
C1838 H1851 0.961 . S
C1838 H1852 0.961 . S
C1839 C1836 1.539 . S
C1839 H1853 0.958 . S
C1839 H1854 0.961 . S
C1839 H1855 0.960 . S
H1840 C1824 0.931 . S
H1841 C1829 0.929 . S
H1842 C1830 0.960 . S
H1843 C1830 0.962 . S
H1844 C1830 0.960 . S
H1845 C1831 0.961 . S
H1846 C1831 0.961 . S
H1847 C1831 0.961 . S
H1848 C1832 0.931 . S
H1849 C1837 0.930 . S
H1850 C1838 0.956 . S
H1851 C1838 0.961 . S
H1852 C1838 0.961 . S
H1853 C1839 0.958 . S
H1854 C1839 0.961 . S
H1855 C1839 0.960 . S
C1856 C1857 1.391 . S
C1856 C1858 1.394 . S
C1856 H1872 0.931 . S
C1857 C1856 1.391 . S
C1857 C1861 1.376 . S
C1858 C1856 1.394 . S
C1858 C1859 1.369 . S
C1858 C1862 1.531 . S
C1859 C1858 1.369 . S
C1859 C1860 1.410 . S
C1859 C1867 1.503 . S
C1860 C1859 1.410 . S
C1860 C1861 1.392 . S
C1860 C1863 1.511 . S
C1861 C1857 1.376 . S
C1861 C1860 1.392 . S
C1861 H1873 0.929 . S
C1862 C1858 1.531 . S
C1862 H1874 0.960 . S
C1862 H1875 0.962 . S
C1862 H1876 0.960 . S
C1863 C1860 1.511 . S
C1863 H1877 0.961 . S
C1863 H1878 0.961 . S
C1863 H1879 0.961 1_565 S
C1864 C1865 1.370 . S
C1864 C1866 1.363 . S
C1864 H1880 0.931 . S
C1865 C1864 1.370 . S
C1865 C1869 1.408 1_565 S
C1866 C1864 1.363 . S
C1866 C1867 1.370 . S
C1866 C1870 1.524 . S
C1867 C1859 1.503 . S
C1867 C1866 1.370 . S
C1867 C1868 1.403 1_565 S
C1868 C1867 1.403 1_545 S
C1868 C1869 1.404 . S
C1868 C1871 1.539 . S
C1869 C1865 1.408 1_545 S
C1869 C1868 1.404 . S
C1869 H1881 0.930 . S
C1870 C1866 1.524 . S
C1870 H1882 0.956 . S
C1870 H1883 0.961 . S
C1870 H1884 0.961 . S
C1871 C1868 1.539 . S
C1871 H1885 0.958 . S
C1871 H1886 0.961 . S
C1871 H1887 0.960 . S
H1872 C1856 0.931 . S
H1873 C1861 0.929 . S
H1874 C1862 0.960 . S
H1875 C1862 0.962 . S
H1876 C1862 0.960 . S
H1877 C1863 0.961 . S
H1878 C1863 0.961 . S
H1879 C1863 0.961 1_545 S
H1880 C1864 0.931 . S
H1881 C1869 0.930 . S
H1882 C1870 0.956 . S
H1883 C1870 0.961 . S
H1884 C1870 0.961 . S
H1885 C1871 0.958 . S
H1886 C1871 0.961 . S
H1887 C1871 0.960 . S
C1888 C1889 1.391 . S
C1888 C1890 1.394 . S
C1888 H1904 0.931 . S
C1889 C1888 1.391 . S
C1889 C1893 1.376 . S
C1890 C1888 1.394 . S
C1890 C1891 1.369 . S
C1890 C1894 1.531 . S
C1891 C1890 1.369 . S
C1891 C1892 1.410 . S
C1891 C1899 1.503 . S
C1892 C1891 1.410 . S
C1892 C1893 1.392 . S
C1892 C1895 1.511 . S
C1893 C1889 1.376 . S
C1893 C1892 1.392 . S
C1893 H1905 0.929 . S
C1894 C1890 1.531 . S
C1894 H1906 0.960 . S
C1894 H1907 0.962 . S
C1894 H1908 0.960 . S
C1895 C1892 1.511 . S
C1895 H1909 0.961 . S
C1895 H1910 0.961 . S
C1895 H1911 0.961 . S
C1896 C1897 1.370 . S
C1896 C1898 1.363 . S
C1896 H1912 0.931 . S
C1897 C1896 1.370 . S
C1897 C1901 1.408 . S
C1898 C1896 1.363 . S
C1898 C1899 1.370 . S
C1898 C1902 1.524 . S
C1899 C1891 1.503 . S
C1899 C1898 1.370 . S
C1899 C1900 1.403 . S
C1900 C1899 1.403 . S
C1900 C1901 1.404 . S
C1900 C1903 1.539 . S
C1901 C1897 1.408 . S
C1901 C1900 1.404 . S
C1901 H1913 0.930 . S
C1902 C1898 1.524 . S
C1902 H1914 0.956 . S
C1902 H1915 0.961 . S
C1902 H1916 0.961 . S
C1903 C1900 1.539 . S
C1903 H1917 0.958 . S
C1903 H1918 0.961 . S
C1903 H1919 0.960 . S
H1904 C1888 0.931 . S
H1905 C1893 0.929 . S
H1906 C1894 0.960 . S
H1907 C1894 0.962 . S
H1908 C1894 0.960 . S
H1909 C1895 0.961 . S
H1910 C1895 0.961 . S
H1911 C1895 0.961 . S
H1912 C1896 0.931 . S
H1913 C1901 0.930 . S
H1914 C1902 0.956 . S
H1915 C1902 0.961 . S
H1916 C1902 0.961 . S
H1917 C1903 0.958 . S
H1918 C1903 0.961 . S
H1919 C1903 0.960 . S
C1920 C1921 1.391 . S
C1920 C1922 1.394 . S
C1920 H1936 0.931 . S
C1921 C1920 1.391 . S
C1921 C1925 1.376 . S
C1922 C1920 1.394 . S
C1922 C1923 1.369 . S
C1922 C1926 1.531 . S
C1923 C1922 1.369 . S
C1923 C1924 1.410 . S
C1923 C1931 1.503 . S
C1924 C1923 1.410 . S
C1924 C1925 1.392 . S
C1924 C1927 1.511 . S
C1925 C1921 1.376 . S
C1925 C1924 1.392 . S
C1925 H1937 0.929 . S
C1926 C1922 1.531 . S
C1926 H1938 0.960 . S
C1926 H1939 0.962 . S
C1926 H1940 0.960 . S
C1927 C1924 1.511 . S
C1927 H1941 0.961 . S
C1927 H1942 0.961 . S
C1927 H1943 0.961 . S
C1928 C1929 1.370 . S
C1928 C1930 1.363 . S
C1928 H1944 0.931 . S
C1929 C1928 1.370 . S
C1929 C1933 1.408 . S
C1930 C1928 1.363 . S
C1930 C1931 1.370 . S
C1930 C1934 1.524 . S
C1931 C1923 1.503 . S
C1931 C1930 1.370 . S
C1931 C1932 1.403 . S
C1932 C1931 1.403 . S
C1932 C1933 1.404 . S
C1932 C1935 1.539 . S
C1933 C1929 1.408 . S
C1933 C1932 1.404 . S
C1933 H1945 0.930 . S
C1934 C1930 1.524 . S
C1934 H1946 0.956 . S
C1934 H1947 0.961 . S
C1934 H1948 0.961 . S
C1935 C1932 1.539 . S
C1935 H1949 0.958 . S
C1935 H1950 0.961 . S
C1935 H1951 0.960 . S
H1936 C1920 0.931 . S
H1937 C1925 0.929 . S
H1938 C1926 0.960 . S
H1939 C1926 0.962 . S
H1940 C1926 0.960 . S
H1941 C1927 0.961 . S
H1942 C1927 0.961 . S
H1943 C1927 0.961 . S
H1944 C1928 0.931 . S
H1945 C1933 0.930 . S
H1946 C1934 0.956 . S
H1947 C1934 0.961 . S
H1948 C1934 0.961 . S
H1949 C1935 0.958 . S
H1950 C1935 0.961 . S
H1951 C1935 0.960 . S
C1952 C1953 1.391 . S
C1952 C1954 1.394 . S
C1952 H1968 0.931 . S
C1953 C1952 1.391 . S
C1953 C1957 1.376 . S
C1954 C1952 1.394 . S
C1954 C1955 1.369 . S
C1954 C1958 1.531 . S
C1955 C1954 1.369 . S
C1955 C1956 1.410 . S
C1955 C1963 1.503 . S
C1956 C1955 1.410 . S
C1956 C1957 1.392 . S
C1956 C1959 1.511 . S
C1957 C1953 1.376 . S
C1957 C1956 1.392 . S
C1957 H1969 0.929 . S
C1958 C1954 1.531 . S
C1958 H1970 0.960 . S
C1958 H1971 0.962 . S
C1958 H1972 0.960 . S
C1959 C1956 1.511 . S
C1959 H1973 0.961 . S
C1959 H1974 0.961 . S
C1959 H1975 0.961 . S
C1960 C1961 1.370 . S
C1960 C1962 1.363 . S
C1960 H1976 0.931 . S
C1961 C1960 1.370 . S
C1961 C1965 1.408 . S
C1962 C1960 1.363 . S
C1962 C1963 1.370 . S
C1962 C1966 1.524 . S
C1963 C1955 1.503 . S
C1963 C1962 1.370 . S
C1963 C1964 1.403 . S
C1964 C1963 1.403 . S
C1964 C1965 1.404 . S
C1964 C1967 1.539 . S
C1965 C1961 1.408 . S
C1965 C1964 1.404 . S
C1965 H1977 0.930 . S
C1966 C1962 1.524 . S
C1966 H1978 0.956 . S
C1966 H1979 0.961 . S
C1966 H1980 0.961 . S
C1967 C1964 1.539 . S
C1967 H1981 0.958 . S
C1967 H1982 0.961 . S
C1967 H1983 0.960 . S
H1968 C1952 0.931 . S
H1969 C1957 0.929 . S
H1970 C1958 0.960 . S
H1971 C1958 0.962 . S
H1972 C1958 0.960 . S
H1973 C1959 0.961 . S
H1974 C1959 0.961 . S
H1975 C1959 0.961 . S
H1976 C1960 0.931 . S
H1977 C1965 0.930 . S
H1978 C1966 0.956 . S
H1979 C1966 0.961 . S
H1980 C1966 0.961 . S
H1981 C1967 0.958 . S
H1982 C1967 0.961 . S
H1983 C1967 0.960 . S
C1984 C1985 1.391 . S
C1984 C1986 1.394 . S
C1984 H2000 0.931 . S
C1985 C1984 1.391 . S
C1985 C1989 1.376 . S
C1986 C1984 1.394 . S
C1986 C1987 1.369 . S
C1986 C1990 1.531 . S
C1987 C1986 1.369 . S
C1987 C1988 1.410 . S
C1987 C1995 1.503 . S
C1988 C1987 1.410 . S
C1988 C1989 1.392 . S
C1988 C1991 1.511 . S
C1989 C1985 1.376 . S
C1989 C1988 1.392 . S
C1989 H2001 0.929 . S
C1990 C1986 1.531 . S
C1990 H2002 0.960 . S
C1990 H2003 0.962 . S
C1990 H2004 0.960 . S
C1991 C1988 1.511 . S
C1991 H2005 0.961 . S
C1991 H2006 0.961 . S
C1991 H2007 0.961 . S
C1992 C1993 1.370 . S
C1992 C1994 1.363 . S
C1992 H2008 0.931 . S
C1993 C1992 1.370 . S
C1993 C1997 1.408 . S
C1994 C1992 1.363 . S
C1994 C1995 1.370 . S
C1994 C1998 1.524 . S
C1995 C1987 1.503 . S
C1995 C1994 1.370 . S
C1995 C1996 1.403 . S
C1996 C1995 1.403 . S
C1996 C1997 1.404 . S
C1996 C1999 1.539 . S
C1997 C1993 1.408 . S
C1997 C1996 1.404 . S
C1997 H2009 0.930 . S
C1998 C1994 1.524 . S
C1998 H2010 0.956 . S
C1998 H2011 0.961 . S
C1998 H2012 0.961 . S
C1999 C1996 1.539 . S
C1999 H2013 0.958 . S
C1999 H2014 0.961 . S
C1999 H2015 0.960 . S
H2000 C1984 0.931 . S
H2001 C1989 0.929 . S
H2002 C1990 0.960 . S
H2003 C1990 0.962 . S
H2004 C1990 0.960 . S
H2005 C1991 0.961 . S
H2006 C1991 0.961 . S
H2007 C1991 0.961 . S
H2008 C1992 0.931 . S
H2009 C1997 0.930 . S
H2010 C1998 0.956 . S
H2011 C1998 0.961 . S
H2012 C1998 0.961 . S
H2013 C1999 0.958 . S
H2014 C1999 0.961 . S
H2015 C1999 0.960 . S
C2016 C2017 1.391 . S
C2016 C2018 1.394 . S
C2016 H2032 0.931 . S
C2017 C2016 1.391 . S
C2017 C2021 1.376 . S
C2018 C2016 1.394 . S
C2018 C2019 1.369 . S
C2018 C2022 1.531 . S
C2019 C2018 1.369 . S
C2019 C2020 1.410 . S
C2019 C2027 1.503 . S
C2020 C2019 1.410 . S
C2020 C2021 1.392 . S
C2020 C2023 1.511 . S
C2021 C2017 1.376 . S
C2021 C2020 1.392 . S
C2021 H2033 0.929 . S
C2022 C2018 1.531 . S
C2022 H2034 0.960 . S
C2022 H2035 0.962 . S
C2022 H2036 0.960 . S
C2023 C2020 1.511 . S
C2023 H2037 0.961 . S
C2023 H2038 0.961 . S
C2023 H2039 0.961 . S
C2024 C2025 1.370 . S
C2024 C2026 1.363 . S
C2024 H2040 0.931 . S
C2025 C2024 1.370 . S
C2025 C2029 1.408 . S
C2026 C2024 1.363 . S
C2026 C2027 1.370 . S
C2026 C2030 1.524 . S
C2027 C2019 1.503 . S
C2027 C2026 1.370 . S
C2027 C2028 1.403 . S
C2028 C2027 1.403 . S
C2028 C2029 1.404 . S
C2028 C2031 1.539 . S
C2029 C2025 1.408 . S
C2029 C2028 1.404 . S
C2029 H2041 0.930 . S
C2030 C2026 1.524 . S
C2030 H2042 0.956 . S
C2030 H2043 0.961 . S
C2030 H2044 0.961 . S
C2031 C2028 1.539 . S
C2031 H2045 0.958 . S
C2031 H2046 0.961 . S
C2031 H2047 0.960 . S
H2032 C2016 0.931 . S
H2033 C2021 0.929 . S
H2034 C2022 0.960 . S
H2035 C2022 0.962 . S
H2036 C2022 0.960 . S
H2037 C2023 0.961 . S
H2038 C2023 0.961 . S
H2039 C2023 0.961 . S
H2040 C2024 0.931 . S
H2041 C2029 0.930 . S
H2042 C2030 0.956 . S
H2043 C2030 0.961 . S
H2044 C2030 0.961 . S
H2045 C2031 0.958 . S
H2046 C2031 0.961 . S
H2047 C2031 0.960 . S
C2048 C2049 1.391 . S
C2048 C2050 1.394 . S
C2048 H2064 0.931 . S
C2049 C2048 1.391 . S
C2049 C2053 1.376 . S
C2050 C2048 1.394 . S
C2050 C2051 1.369 . S
C2050 C2054 1.531 . S
C2051 C2050 1.369 . S
C2051 C2052 1.410 . S
C2051 C2059 1.503 . S
C2052 C2051 1.410 . S
C2052 C2053 1.392 . S
C2052 C2055 1.511 1_455 S
C2053 C2049 1.376 . S
C2053 C2052 1.392 . S
C2053 H2065 0.929 . S
C2054 C2050 1.531 . S
C2054 H2066 0.960 . S
C2054 H2067 0.962 . S
C2054 H2068 0.960 . S
C2055 C2052 1.511 1_655 S
C2055 H2069 0.961 . S
C2055 H2070 0.961 . S
C2055 H2071 0.961 . S
C2056 C2057 1.370 . S
C2056 C2058 1.363 . S
C2056 H2072 0.931 . S
C2057 C2056 1.370 . S
C2057 C2061 1.386 1_455 S
C2058 C2056 1.363 . S
C2058 C2059 1.370 . S
C2058 C2062 1.524 . S
C2059 C2051 1.503 . S
C2059 C2058 1.370 . S
C2059 C2060 1.421 . S
C2060 C2059 1.421 . S
C2060 C2061 1.402 1_455 S
C2060 C2063 1.521 1_455 S
C2061 C2057 1.386 1_655 S
C2061 C2060 1.402 1_655 S
C2061 H2073 0.954 . S
C2062 C2058 1.524 . S
C2062 H2074 0.956 . S
C2062 H2075 0.961 . S
C2062 H2076 0.961 . S
C2063 C2060 1.521 1_655 S
C2063 H2077 0.958 . S
C2063 H2078 0.961 . S
C2063 H2079 0.960 . S
H2064 C2048 0.931 . S
H2065 C2053 0.929 . S
H2066 C2054 0.960 . S
H2067 C2054 0.962 . S
H2068 C2054 0.960 . S
H2069 C2055 0.961 . S
H2070 C2055 0.961 . S
H2071 C2055 0.961 . S
H2072 C2056 0.931 . S
H2073 C2061 0.954 . S
H2074 C2062 0.956 . S
H2075 C2062 0.961 . S
H2076 C2062 0.961 . S
H2077 C2063 0.958 . S
H2078 C2063 0.961 . S
H2079 C2063 0.960 . S
C2080 C2081 1.391 . S
C2080 C2082 1.394 . S
C2080 H2096 0.931 . S
C2081 C2080 1.391 . S
C2081 C2085 1.376 . S
C2082 C2080 1.394 . S
C2082 C2083 1.369 . S
C2082 C2086 1.531 . S
C2083 C2082 1.369 . S
C2083 C2084 1.410 . S
C2083 C2091 1.503 . S
C2084 C2083 1.410 . S
C2084 C2085 1.392 . S
C2084 C2087 1.511 . S
C2085 C2081 1.376 . S
C2085 C2084 1.392 . S
C2085 H2097 0.929 . S
C2086 C2082 1.531 . S
C2086 H2098 0.960 . S
C2086 H2099 0.962 . S
C2086 H2100 0.960 . S
C2087 C2084 1.511 . S
C2087 H2101 0.961 . S
C2087 H2102 0.961 . S
C2087 H2103 0.961 . S
C2088 C2089 1.370 . S
C2088 C2090 1.363 . S
C2088 H2104 0.931 . S
C2089 C2088 1.370 . S
C2089 C2093 1.408 . S
C2090 C2088 1.363 . S
C2090 C2091 1.370 . S
C2090 C2094 1.524 . S
C2091 C2083 1.503 . S
C2091 C2090 1.370 . S
C2091 C2092 1.403 . S
C2092 C2091 1.403 . S
C2092 C2093 1.404 . S
C2092 C2095 1.539 . S
C2093 C2089 1.408 . S
C2093 C2092 1.404 . S
C2093 H2105 0.930 . S
C2094 C2090 1.524 . S
C2094 H2106 0.956 . S
C2094 H2107 0.961 . S
C2094 H2108 0.961 . S
C2095 C2092 1.539 . S
C2095 H2109 0.958 . S
C2095 H2110 0.961 . S
C2095 H2111 0.960 . S
H2096 C2080 0.931 . S
H2097 C2085 0.929 . S
H2098 C2086 0.960 . S
H2099 C2086 0.962 . S
H2100 C2086 0.960 . S
H2101 C2087 0.961 . S
H2102 C2087 0.961 . S
H2103 C2087 0.961 . S
H2104 C2088 0.931 . S
H2105 C2093 0.930 . S
H2106 C2094 0.956 . S
H2107 C2094 0.961 . S
H2108 C2094 0.961 . S
H2109 C2095 0.958 . S
H2110 C2095 0.961 . S
H2111 C2095 0.960 . S
C2112 C2113 1.391 . S
C2112 C2114 1.394 . S
C2112 H2128 0.931 . S
C2113 C2112 1.391 . S
C2113 C2117 1.376 . S
C2114 C2112 1.394 . S
C2114 C2115 1.369 . S
C2114 C2118 1.531 . S
C2115 C2114 1.369 . S
C2115 C2116 1.410 . S
C2115 C2123 1.503 . S
C2116 C2115 1.410 . S
C2116 C2117 1.392 . S
C2116 C2119 1.511 1_655 S
C2117 C2113 1.376 . S
C2117 C2116 1.392 . S
C2117 H2129 0.929 1_655 S
C2118 C2114 1.531 . S
C2118 H2130 0.960 . S
C2118 H2131 0.962 . S
C2118 H2132 0.960 . S
C2119 C2116 1.511 1_455 S
C2119 H2133 0.961 . S
C2119 H2134 0.961 . S
C2119 H2135 0.961 . S
C2120 C2121 1.370 . S
C2120 C2122 1.363 . S
C2120 H2136 0.931 . S
C2121 C2120 1.370 . S
C2121 C2125 1.384 1_655 S
C2122 C2120 1.363 . S
C2122 C2123 1.370 . S
C2122 C2126 1.524 . S
C2123 C2115 1.503 . S
C2123 C2122 1.370 . S
C2123 C2124 1.417 . S
C2124 C2123 1.417 . S
C2124 C2125 1.402 1_655 S
C2124 C2127 1.525 1_655 S
C2125 C2121 1.384 1_455 S
C2125 C2124 1.402 1_455 S
C2125 H2137 0.957 . S
C2126 C2122 1.524 . S
C2126 H2138 0.956 . S
C2126 H2139 0.961 . S
C2126 H2140 0.961 . S
C2127 C2124 1.525 1_455 S
C2127 H2141 0.958 . S
C2127 H2142 0.961 . S
C2127 H2143 0.960 . S
H2128 C2112 0.931 . S
H2129 C2117 0.929 1_455 S
H2130 C2118 0.960 . S
H2131 C2118 0.962 . S
H2132 C2118 0.960 . S
H2133 C2119 0.961 . S
H2134 C2119 0.961 . S
H2135 C2119 0.961 . S
H2136 C2120 0.931 . S
H2137 C2125 0.957 . S
H2138 C2126 0.956 . S
H2139 C2126 0.961 . S
H2140 C2126 0.961 . S
H2141 C2127 0.958 . S
H2142 C2127 0.961 . S
H2143 C2127 0.960 . S
C2144 C2145 1.391 . S
C2144 C2146 1.394 . S
C2144 H2160 0.931 . S
C2145 C2144 1.391 . S
C2145 C2149 1.376 . S
C2146 C2144 1.394 . S
C2146 C2147 1.369 . S
C2146 C2150 1.531 . S
C2147 C2146 1.369 . S
C2147 C2148 1.410 . S
C2147 C2155 1.503 . S
C2148 C2147 1.410 . S
C2148 C2149 1.392 . S
C2148 C2151 1.511 . S
C2149 C2145 1.376 . S
C2149 C2148 1.392 . S
C2149 H2161 0.929 . S
C2150 C2146 1.531 . S
C2150 H2162 0.960 . S
C2150 H2163 0.962 . S
C2150 H2164 0.960 . S
C2151 C2148 1.511 . S
C2151 H2165 0.961 . S
C2151 H2166 0.961 . S
C2151 H2167 0.961 . S
C2152 C2153 1.370 . S
C2152 C2154 1.363 . S
C2152 H2168 0.931 . S
C2153 C2152 1.370 . S
C2153 C2157 1.408 . S
C2154 C2152 1.363 . S
C2154 C2155 1.370 . S
C2154 C2158 1.524 . S
C2155 C2147 1.503 . S
C2155 C2154 1.370 . S
C2155 C2156 1.403 . S
C2156 C2155 1.403 . S
C2156 C2157 1.404 . S
C2156 C2159 1.539 . S
C2157 C2153 1.408 . S
C2157 C2156 1.404 . S
C2157 H2169 0.930 . S
C2158 C2154 1.524 . S
C2158 H2170 0.956 . S
C2158 H2171 0.961 . S
C2158 H2172 0.961 . S
C2159 C2156 1.539 . S
C2159 H2173 0.958 . S
C2159 H2174 0.961 . S
C2159 H2175 0.960 . S
H2160 C2144 0.931 . S
H2161 C2149 0.929 . S
H2162 C2150 0.960 . S
H2163 C2150 0.962 . S
H2164 C2150 0.960 . S
H2165 C2151 0.961 . S
H2166 C2151 0.961 . S
H2167 C2151 0.961 . S
H2168 C2152 0.931 . S
H2169 C2157 0.930 . S
H2170 C2158 0.956 . S
H2171 C2158 0.961 . S
H2172 C2158 0.961 . S
H2173 C2159 0.958 . S
H2174 C2159 0.961 . S
H2175 C2159 0.960 . S
C2176 C2177 1.391 . S
C2176 C2178 1.394 . S
C2176 H2192 0.931 . S
C2177 C2176 1.391 . S
C2177 C2181 1.376 . S
C2178 C2176 1.394 . S
C2178 C2179 1.369 . S
C2178 C2182 1.531 . S
C2179 C2178 1.369 . S
C2179 C2180 1.410 . S
C2179 C2187 1.503 . S
C2180 C2179 1.410 . S
C2180 C2181 1.392 . S
C2180 C2183 1.511 . S
C2181 C2177 1.376 . S
C2181 C2180 1.392 . S
C2181 H2193 0.929 . S
C2182 C2178 1.531 . S
C2182 H2194 0.960 . S
C2182 H2195 0.962 . S
C2182 H2196 0.960 . S
C2183 C2180 1.511 . S
C2183 H2197 0.961 . S
C2183 H2198 0.961 . S
C2183 H2199 0.961 . S
C2184 C2185 1.370 . S
C2184 C2186 1.363 . S
C2184 H2200 0.931 . S
C2185 C2184 1.370 . S
C2185 C2189 1.408 . S
C2186 C2184 1.363 . S
C2186 C2187 1.370 . S
C2186 C2190 1.524 . S
C2187 C2179 1.503 . S
C2187 C2186 1.370 . S
C2187 C2188 1.403 . S
C2188 C2187 1.403 . S
C2188 C2189 1.404 . S
C2188 C2191 1.539 . S
C2189 C2185 1.408 . S
C2189 C2188 1.404 . S
C2189 H2201 0.930 . S
C2190 C2186 1.524 . S
C2190 H2202 0.956 . S
C2190 H2203 0.961 . S
C2190 H2204 0.961 . S
C2191 C2188 1.539 . S
C2191 H2205 0.958 . S
C2191 H2206 0.961 . S
C2191 H2207 0.960 . S
H2192 C2176 0.931 . S
H2193 C2181 0.929 . S
H2194 C2182 0.960 . S
H2195 C2182 0.962 . S
H2196 C2182 0.960 . S
H2197 C2183 0.961 . S
H2198 C2183 0.961 . S
H2199 C2183 0.961 . S
H2200 C2184 0.931 . S
H2201 C2189 0.930 . S
H2202 C2190 0.956 . S
H2203 C2190 0.961 . S
H2204 C2190 0.961 . S
H2205 C2191 0.958 . S
H2206 C2191 0.961 . S
H2207 C2191 0.960 . S
C2208 C2209 1.391 . S
C2208 C2210 1.394 . S
C2208 H2224 0.931 . S
C2209 C2208 1.391 . S
C2209 C2213 1.376 . S
C2210 C2208 1.394 . S
C2210 C2211 1.369 . S
C2210 C2214 1.531 . S
C2211 C2210 1.369 . S
C2211 C2212 1.410 . S
C2211 C2219 1.503 . S
C2212 C2211 1.410 . S
C2212 C2213 1.392 . S
C2212 C2215 1.511 1_556 S
C2213 C2209 1.376 . S
C2213 C2212 1.392 . S
C2213 H2225 0.929 . S
C2214 C2210 1.531 . S
C2214 H2226 0.960 . S
C2214 H2227 0.962 . S
C2214 H2228 0.960 . S
C2215 C2212 1.511 1_554 S
C2215 H2229 0.961 . S
C2215 H2230 0.961 . S
C2215 H2231 0.961 1_554 S
C2216 C2217 1.370 . S
C2216 C2218 1.363 . S
C2216 H2232 0.931 1_556 S
C2217 C2216 1.370 . S
C2217 C2221 1.408 . S
C2218 C2216 1.363 . S
C2218 C2219 1.370 . S
C2218 C2222 1.524 1_556 S
C2219 C2211 1.503 . S
C2219 C2218 1.370 . S
C2219 C2220 1.403 . S
C2220 C2219 1.403 . S
C2220 C2221 1.404 . S
C2220 C2223 1.539 . S
C2221 C2217 1.408 . S
C2221 C2220 1.404 . S
C2221 H2233 0.930 . S
C2222 C2218 1.524 1_554 S
C2222 H2234 0.955 1_554 S
C2222 H2235 0.961 . S
C2222 H2236 0.961 . S
C2223 C2220 1.539 . S
C2223 H2237 0.958 . S
C2223 H2238 0.961 . S
C2223 H2239 0.960 . S
H2224 C2208 0.931 . S
H2225 C2213 0.929 . S
H2226 C2214 0.960 . S
H2227 C2214 0.962 . S
H2228 C2214 0.960 . S
H2229 C2215 0.961 . S
H2230 C2215 0.961 . S
H2231 C2215 0.961 1_556 S
H2232 C2216 0.931 1_554 S
H2233 C2221 0.930 . S
H2234 C2222 0.955 1_556 S
H2235 C2222 0.961 . S
H2236 C2222 0.961 . S
H2237 C2223 0.958 . S
H2238 C2223 0.961 . S
H2239 C2223 0.960 . S
C2240 C2241 1.391 . S
C2240 C2242 1.394 . S
C2240 H2256 0.931 . S
C2241 C2240 1.391 . S
C2241 C2245 1.376 . S
C2242 C2240 1.394 . S
C2242 C2243 1.369 . S
C2242 C2246 1.531 . S
C2243 C2242 1.369 . S
C2243 C2244 1.410 . S
C2243 C2251 1.503 . S
C2244 C2243 1.410 . S
C2244 C2245 1.392 . S
C2244 C2247 1.511 . S
C2245 C2241 1.376 . S
C2245 C2244 1.392 . S
C2245 H2257 0.929 . S
C2246 C2242 1.531 . S
C2246 H2258 0.960 . S
C2246 H2259 0.962 . S
C2246 H2260 0.960 . S
C2247 C2244 1.511 . S
C2247 H2261 0.961 . S
C2247 H2262 0.961 . S
C2247 H2263 0.961 . S
C2248 C2249 1.370 . S
C2248 C2250 1.363 . S
C2248 H2264 0.931 . S
C2249 C2248 1.370 . S
C2249 C2253 1.408 . S
C2250 C2248 1.363 . S
C2250 C2251 1.370 . S
C2250 C2254 1.524 . S
C2251 C2243 1.503 . S
C2251 C2250 1.370 . S
C2251 C2252 1.403 . S
C2252 C2251 1.403 . S
C2252 C2253 1.404 . S
C2252 C2255 1.539 . S
C2253 C2249 1.408 . S
C2253 C2252 1.404 . S
C2253 H2265 0.930 . S
C2254 C2250 1.524 . S
C2254 H2266 0.956 . S
C2254 H2267 0.961 . S
C2254 H2268 0.961 . S
C2255 C2252 1.539 . S
C2255 H2269 0.958 . S
C2255 H2270 0.961 . S
C2255 H2271 0.960 . S
H2256 C2240 0.931 . S
H2257 C2245 0.929 . S
H2258 C2246 0.960 . S
H2259 C2246 0.962 . S
H2260 C2246 0.960 . S
H2261 C2247 0.961 . S
H2262 C2247 0.961 . S
H2263 C2247 0.961 . S
H2264 C2248 0.931 . S
H2265 C2253 0.930 . S
H2266 C2254 0.956 . S
H2267 C2254 0.961 . S
H2268 C2254 0.961 . S
H2269 C2255 0.958 . S
H2270 C2255 0.961 . S
H2271 C2255 0.960 . S
C2272 C2273 1.391 . S
C2272 C2274 1.394 . S
C2272 H2288 0.931 . S
C2273 C2272 1.391 . S
C2273 C2277 1.376 . S
C2274 C2272 1.394 . S
C2274 C2275 1.369 . S
C2274 C2278 1.531 . S
C2275 C2274 1.369 . S
C2275 C2276 1.410 . S
C2275 C2283 1.503 . S
C2276 C2275 1.410 . S
C2276 C2277 1.392 . S
C2276 C2279 1.511 . S
C2277 C2273 1.376 . S
C2277 C2276 1.392 . S
C2277 H2289 0.929 . S
C2278 C2274 1.531 . S
C2278 H2290 0.960 . S
C2278 H2291 0.962 . S
C2278 H2292 0.960 . S
C2279 C2276 1.511 . S
C2279 H2293 0.961 . S
C2279 H2294 0.961 . S
C2279 H2295 0.961 . S
C2280 C2281 1.370 . S
C2280 C2282 1.363 . S
C2280 H2296 0.931 . S
C2281 C2280 1.370 . S
C2281 C2285 1.408 . S
C2282 C2280 1.363 . S
C2282 C2283 1.370 . S
C2282 C2286 1.524 . S
C2283 C2275 1.503 . S
C2283 C2282 1.370 . S
C2283 C2284 1.403 . S
C2284 C2283 1.403 . S
C2284 C2285 1.404 . S
C2284 C2287 1.539 . S
C2285 C2281 1.408 . S
C2285 C2284 1.404 . S
C2285 H2297 0.930 . S
C2286 C2282 1.524 . S
C2286 H2298 0.956 . S
C2286 H2299 0.961 . S
C2286 H2300 0.961 . S
C2287 C2284 1.539 . S
C2287 H2301 0.958 . S
C2287 H2302 0.961 . S
C2287 H2303 0.960 . S
H2288 C2272 0.931 . S
H2289 C2277 0.929 . S
H2290 C2278 0.960 . S
H2291 C2278 0.962 . S
H2292 C2278 0.960 . S
H2293 C2279 0.961 . S
H2294 C2279 0.961 . S
H2295 C2279 0.961 . S
H2296 C2280 0.931 . S
H2297 C2285 0.930 . S
H2298 C2286 0.956 . S
H2299 C2286 0.961 . S
H2300 C2286 0.961 . S
H2301 C2287 0.958 . S
H2302 C2287 0.961 . S
H2303 C2287 0.960 . S
C2304 C2305 1.391 . S
C2304 C2306 1.394 . S
C2304 H2320 0.931 . S
C2305 C2304 1.391 . S
C2305 C2309 1.376 . S
C2306 C2304 1.394 . S
C2306 C2307 1.369 . S
C2306 C2310 1.531 . S
C2307 C2306 1.369 . S
C2307 C2308 1.410 . S
C2307 C2315 1.503 . S
C2308 C2307 1.410 . S
C2308 C2309 1.392 . S
C2308 C2311 1.511 . S
C2309 C2305 1.376 . S
C2309 C2308 1.392 . S
C2309 H2321 0.929 . S
C2310 C2306 1.531 . S
C2310 H2322 0.960 . S
C2310 H2323 0.962 . S
C2310 H2324 0.960 . S
C2311 C2308 1.511 . S
C2311 H2325 0.961 . S
C2311 H2326 0.961 . S
C2311 H2327 0.961 . S
C2312 C2313 1.370 . S
C2312 C2314 1.363 . S
C2312 H2328 0.931 . S
C2313 C2312 1.370 . S
C2313 C2317 1.408 . S
C2314 C2312 1.363 . S
C2314 C2315 1.370 . S
C2314 C2318 1.524 . S
C2315 C2307 1.503 . S
C2315 C2314 1.370 . S
C2315 C2316 1.403 . S
C2316 C2315 1.403 . S
C2316 C2317 1.404 . S
C2316 C2319 1.539 . S
C2317 C2313 1.408 . S
C2317 C2316 1.404 . S
C2317 H2329 0.930 . S
C2318 C2314 1.524 . S
C2318 H2330 0.956 . S
C2318 H2331 0.961 . S
C2318 H2332 0.961 . S
C2319 C2316 1.539 . S
C2319 H2333 0.958 . S
C2319 H2334 0.961 . S
C2319 H2335 0.960 . S
H2320 C2304 0.931 . S
H2321 C2309 0.929 . S
H2322 C2310 0.960 . S
H2323 C2310 0.962 . S
H2324 C2310 0.960 . S
H2325 C2311 0.961 . S
H2326 C2311 0.961 . S
H2327 C2311 0.961 . S
H2328 C2312 0.931 . S
H2329 C2317 0.930 . S
H2330 C2318 0.956 . S
H2331 C2318 0.961 . S
H2332 C2318 0.961 . S
H2333 C2319 0.958 . S
H2334 C2319 0.961 . S
H2335 C2319 0.960 . S
C2336 C2337 1.391 . S
C2336 C2338 1.394 . S
C2336 H2352 0.931 . S
C2337 C2336 1.391 . S
C2337 C2341 1.376 . S
C2338 C2336 1.394 . S
C2338 C2339 1.369 . S
C2338 C2342 1.531 . S
C2339 C2338 1.369 . S
C2339 C2340 1.410 . S
C2339 C2347 1.503 . S
C2340 C2339 1.410 . S
C2340 C2341 1.392 . S
C2340 C2343 1.511 . S
C2341 C2337 1.376 . S
C2341 C2340 1.392 . S
C2341 H2353 0.929 . S
C2342 C2338 1.531 . S
C2342 H2354 0.960 . S
C2342 H2355 0.962 . S
C2342 H2356 0.960 . S
C2343 C2340 1.511 . S
C2343 H2357 0.961 . S
C2343 H2358 0.961 . S
C2343 H2359 0.961 . S
C2344 C2345 1.370 . S
C2344 C2346 1.363 . S
C2344 H2360 0.931 . S
C2345 C2344 1.370 . S
C2345 C2349 1.408 . S
C2346 C2344 1.363 . S
C2346 C2347 1.370 . S
C2346 C2350 1.524 . S
C2347 C2339 1.503 . S
C2347 C2346 1.370 . S
C2347 C2348 1.403 . S
C2348 C2347 1.403 . S
C2348 C2349 1.404 . S
C2348 C2351 1.539 . S
C2349 C2345 1.408 . S
C2349 C2348 1.404 . S
C2349 H2361 0.930 . S
C2350 C2346 1.524 . S
C2350 H2362 0.956 . S
C2350 H2363 0.961 . S
C2350 H2364 0.961 . S
C2351 C2348 1.539 . S
C2351 H2365 0.958 . S
C2351 H2366 0.961 . S
C2351 H2367 0.960 . S
H2352 C2336 0.931 . S
H2353 C2341 0.929 . S
H2354 C2342 0.960 . S
H2355 C2342 0.962 . S
H2356 C2342 0.960 . S
H2357 C2343 0.961 . S
H2358 C2343 0.961 . S
H2359 C2343 0.961 . S
H2360 C2344 0.931 . S
H2361 C2349 0.930 . S
H2362 C2350 0.956 . S
H2363 C2350 0.961 . S
H2364 C2350 0.961 . S
H2365 C2351 0.958 . S
H2366 C2351 0.961 . S
H2367 C2351 0.960 . S
C2368 C2369 1.391 . S
C2368 C2370 1.394 . S
C2368 H2384 0.931 . S
C2369 C2368 1.391 . S
C2369 C2373 1.376 . S
C2370 C2368 1.394 . S
C2370 C2371 1.369 . S
C2370 C2374 1.531 . S
C2371 C2370 1.369 . S
C2371 C2372 1.410 . S
C2371 C2379 1.503 . S
C2372 C2371 1.410 . S
C2372 C2373 1.392 . S
C2372 C2375 1.511 . S
C2373 C2369 1.376 . S
C2373 C2372 1.392 . S
C2373 H2385 0.929 . S
C2374 C2370 1.531 . S
C2374 H2386 0.960 . S
C2374 H2387 0.962 . S
C2374 H2388 0.960 . S
C2375 C2372 1.511 . S
C2375 H2389 0.961 . S
C2375 H2390 0.961 . S
C2375 H2391 0.961 . S
C2376 C2377 1.370 . S
C2376 C2378 1.363 . S
C2376 H2392 0.931 . S
C2377 C2376 1.370 . S
C2377 C2381 1.408 . S
C2378 C2376 1.363 . S
C2378 C2379 1.370 . S
C2378 C2382 1.524 . S
C2379 C2371 1.503 . S
C2379 C2378 1.370 . S
C2379 C2380 1.403 . S
C2380 C2379 1.403 . S
C2380 C2381 1.404 . S
C2380 C2383 1.539 . S
C2381 C2377 1.408 . S
C2381 C2380 1.404 . S
C2381 H2393 0.930 . S
C2382 C2378 1.524 . S
C2382 H2394 0.956 . S
C2382 H2395 0.961 . S
C2382 H2396 0.961 . S
C2383 C2380 1.539 . S
C2383 H2397 0.958 . S
C2383 H2398 0.961 . S
C2383 H2399 0.960 . S
H2384 C2368 0.931 . S
H2385 C2373 0.929 . S
H2386 C2374 0.960 . S
H2387 C2374 0.962 . S
H2388 C2374 0.960 . S
H2389 C2375 0.961 . S
H2390 C2375 0.961 . S
H2391 C2375 0.961 . S
H2392 C2376 0.931 . S
H2393 C2381 0.930 . S
H2394 C2382 0.956 . S
H2395 C2382 0.961 . S
H2396 C2382 0.961 . S
H2397 C2383 0.958 . S
H2398 C2383 0.961 . S
H2399 C2383 0.960 . S
C2400 C2401 1.391 . S
C2400 C2402 1.394 . S
C2400 H2416 0.931 . S
C2401 C2400 1.391 . S
C2401 C2405 1.376 . S
C2402 C2400 1.394 . S
C2402 C2403 1.369 . S
C2402 C2406 1.531 . S
C2403 C2402 1.369 . S
C2403 C2404 1.410 . S
C2403 C2411 1.503 . S
C2404 C2403 1.410 . S
C2404 C2405 1.392 . S
C2404 C2407 1.511 . S
C2405 C2401 1.376 . S
C2405 C2404 1.392 . S
C2405 H2417 0.929 . S
C2406 C2402 1.531 . S
C2406 H2418 0.960 . S
C2406 H2419 0.962 . S
C2406 H2420 0.960 . S
C2407 C2404 1.511 . S
C2407 H2421 0.961 . S
C2407 H2422 0.961 . S
C2407 H2423 0.961 . S
C2408 C2409 1.370 . S
C2408 C2410 1.363 . S
C2408 H2424 0.931 . S
C2409 C2408 1.370 . S
C2409 C2413 1.408 . S
C2410 C2408 1.363 . S
C2410 C2411 1.370 . S
C2410 C2414 1.524 . S
C2411 C2403 1.503 . S
C2411 C2410 1.370 . S
C2411 C2412 1.403 . S
C2412 C2411 1.403 . S
C2412 C2413 1.404 . S
C2412 C2415 1.539 . S
C2413 C2409 1.408 . S
C2413 C2412 1.404 . S
C2413 H2425 0.930 . S
C2414 C2410 1.524 . S
C2414 H2426 0.956 . S
C2414 H2427 0.961 . S
C2414 H2428 0.961 . S
C2415 C2412 1.539 . S
C2415 H2429 0.958 . S
C2415 H2430 0.961 . S
C2415 H2431 0.960 . S
H2416 C2400 0.931 . S
H2417 C2405 0.929 . S
H2418 C2406 0.960 . S
H2419 C2406 0.962 . S
H2420 C2406 0.960 . S
H2421 C2407 0.961 . S
H2422 C2407 0.961 . S
H2423 C2407 0.961 . S
H2424 C2408 0.931 . S
H2425 C2413 0.930 . S
H2426 C2414 0.956 . S
H2427 C2414 0.961 . S
H2428 C2414 0.961 . S
H2429 C2415 0.958 . S
H2430 C2415 0.961 . S
H2431 C2415 0.960 . S
C2432 C2433 1.391 . S
C2432 C2434 1.394 . S
C2432 H2448 0.931 . S
C2433 C2432 1.391 . S
C2433 C2437 1.376 . S
C2434 C2432 1.394 . S
C2434 C2435 1.369 . S
C2434 C2438 1.531 . S
C2435 C2434 1.369 . S
C2435 C2436 1.410 . S
C2435 C2443 1.503 . S
C2436 C2435 1.410 . S
C2436 C2437 1.392 . S
C2436 C2439 1.511 1_545 S
C2437 C2433 1.376 . S
C2437 C2436 1.392 . S
C2437 H2449 0.891 1_545 S
C2438 C2434 1.531 . S
C2438 H2450 0.960 . S
C2438 H2451 0.962 . S
C2438 H2452 0.960 . S
C2439 C2436 1.511 1_565 S
C2439 H2453 0.961 . S
C2439 H2454 0.961 . S
C2439 H2455 0.961 . S
C2440 C2441 1.370 . S
C2440 C2442 1.363 . S
C2440 H2456 0.917 1_545 S
C2441 C2440 1.370 . S
C2441 C2445 1.408 . S
C2442 C2440 1.363 . S
C2442 C2443 1.370 . S
C2442 C2446 1.510 1_545 S
C2443 C2435 1.503 . S
C2443 C2442 1.370 . S
C2443 C2444 1.403 . S
C2444 C2443 1.403 . S
C2444 C2445 1.404 . S
C2444 C2447 1.539 . S
C2445 C2441 1.408 . S
C2445 C2444 1.404 . S
C2445 H2457 0.930 . S
C2446 C2442 1.510 1_565 S
C2446 H2458 0.930 1_565 S
C2446 H2459 0.982 . S
C2446 H2460 0.982 . S
C2447 C2444 1.539 . S
C2447 H2461 0.958 . S
C2447 H2462 0.961 . S
C2447 H2463 0.960 . S
H2448 C2432 0.931 . S
H2449 C2437 0.891 1_565 S
H2450 C2438 0.960 . S
H2451 C2438 0.962 . S
H2452 C2438 0.960 . S
H2453 C2439 0.961 . S
H2454 C2439 0.961 . S
H2455 C2439 0.961 . S
H2456 C2440 0.917 1_565 S
H2457 C2445 0.930 . S
H2458 C2446 0.930 1_545 S
H2459 C2446 0.982 . S
H2460 C2446 0.982 . S
H2461 C2447 0.958 . S
H2462 C2447 0.961 . S
H2463 C2447 0.960 . S
C2464 C2465 1.391 . S
C2464 C2466 1.394 . S
C2464 H2480 0.931 . S
C2465 C2464 1.391 . S
C2465 C2469 1.376 . S
C2466 C2464 1.394 . S
C2466 C2467 1.369 . S
C2466 C2470 1.531 . S
C2467 C2466 1.369 . S
C2467 C2468 1.410 . S
C2467 C2475 1.503 . S
C2468 C2467 1.410 . S
C2468 C2469 1.392 . S
C2468 C2471 1.511 . S
C2469 C2465 1.376 . S
C2469 C2468 1.392 . S
C2469 H2481 0.929 . S
C2470 C2466 1.531 . S
C2470 H2482 0.960 . S
C2470 H2483 0.962 . S
C2470 H2484 0.960 . S
C2471 C2468 1.511 . S
C2471 H2485 0.961 . S
C2471 H2486 0.961 . S
C2471 H2487 0.961 . S
C2472 C2473 1.370 . S
C2472 C2474 1.363 . S
C2472 H2488 0.931 . S
C2473 C2472 1.370 . S
C2473 C2477 1.408 . S
C2474 C2472 1.363 . S
C2474 C2475 1.370 . S
C2474 C2478 1.524 . S
C2475 C2467 1.503 . S
C2475 C2474 1.370 . S
C2475 C2476 1.403 . S
C2476 C2475 1.403 . S
C2476 C2477 1.404 . S
C2476 C2479 1.539 . S
C2477 C2473 1.408 . S
C2477 C2476 1.404 . S
C2477 H2489 0.930 . S
C2478 C2474 1.524 . S
C2478 H2490 0.956 . S
C2478 H2491 0.961 . S
C2478 H2492 0.961 . S
C2479 C2476 1.539 . S
C2479 H2493 0.958 . S
C2479 H2494 0.961 . S
C2479 H2495 0.960 . S
H2480 C2464 0.931 . S
H2481 C2469 0.929 . S
H2482 C2470 0.960 . S
H2483 C2470 0.962 . S
H2484 C2470 0.960 . S
H2485 C2471 0.961 . S
H2486 C2471 0.961 . S
H2487 C2471 0.961 . S
H2488 C2472 0.931 . S
H2489 C2477 0.930 . S
H2490 C2478 0.956 . S
H2491 C2478 0.961 . S
H2492 C2478 0.961 . S
H2493 C2479 0.958 . S
H2494 C2479 0.961 . S
H2495 C2479 0.960 . S
C2496 C2497 1.391 . S
C2496 C2498 1.394 . S
C2496 H2512 0.931 . S
C2497 C2496 1.391 . S
C2497 C2501 1.376 . S
C2498 C2496 1.394 . S
C2498 C2499 1.369 . S
C2498 C2502 1.531 . S
C2499 C2498 1.369 . S
C2499 C2500 1.410 . S
C2499 C2507 1.503 . S
C2500 C2499 1.410 . S
C2500 C2501 1.392 . S
C2500 C2503 1.511 . S
C2501 C2497 1.376 . S
C2501 C2500 1.392 . S
C2501 H2513 0.929 . S
C2502 C2498 1.531 . S
C2502 H2514 0.960 . S
C2502 H2515 0.962 . S
C2502 H2516 0.960 . S
C2503 C2500 1.511 . S
C2503 H2517 0.961 . S
C2503 H2518 0.961 . S
C2503 H2519 0.961 . S
C2504 C2505 1.370 . S
C2504 C2506 1.363 . S
C2504 H2520 0.931 . S
C2505 C2504 1.370 . S
C2505 C2509 1.408 . S
C2506 C2504 1.363 . S
C2506 C2507 1.370 . S
C2506 C2510 1.524 . S
C2507 C2499 1.503 . S
C2507 C2506 1.370 . S
C2507 C2508 1.403 . S
C2508 C2507 1.403 . S
C2508 C2509 1.404 . S
C2508 C2511 1.539 . S
C2509 C2505 1.408 . S
C2509 C2508 1.404 . S
C2509 H2521 0.930 . S
C2510 C2506 1.524 . S
C2510 H2522 0.956 . S
C2510 H2523 0.961 . S
C2510 H2524 0.961 . S
C2511 C2508 1.539 . S
C2511 H2525 0.958 . S
C2511 H2526 0.961 . S
C2511 H2527 0.960 . S
H2512 C2496 0.931 . S
H2513 C2501 0.929 . S
H2514 C2502 0.960 . S
H2515 C2502 0.962 . S
H2516 C2502 0.960 . S
H2517 C2503 0.961 . S
H2518 C2503 0.961 . S
H2519 C2503 0.961 . S
H2520 C2504 0.931 . S
H2521 C2509 0.930 . S
H2522 C2510 0.956 . S
H2523 C2510 0.961 . S
H2524 C2510 0.961 . S
H2525 C2511 0.958 . S
H2526 C2511 0.961 . S
H2527 C2511 0.960 . S
C2528 C2529 1.391 . S
C2528 C2530 1.394 . S
C2528 H2544 0.931 . S
C2529 C2528 1.391 . S
C2529 C2533 1.376 . S
C2530 C2528 1.394 . S
C2530 C2531 1.369 . S
C2530 C2534 1.531 . S
C2531 C2530 1.369 . S
C2531 C2532 1.410 . S
C2531 C2539 1.503 . S
C2532 C2531 1.410 . S
C2532 C2533 1.392 . S
C2532 C2535 1.511 . S
C2533 C2529 1.376 . S
C2533 C2532 1.392 . S
C2533 H2545 0.929 . S
C2534 C2530 1.531 . S
C2534 H2546 0.960 . S
C2534 H2547 0.962 . S
C2534 H2548 0.960 . S
C2535 C2532 1.511 . S
C2535 H2549 0.961 . S
C2535 H2550 0.961 . S
C2535 H2551 0.961 . S
C2536 C2537 1.370 . S
C2536 C2538 1.363 . S
C2536 H2552 0.931 . S
C2537 C2536 1.370 . S
C2537 C2541 1.408 . S
C2538 C2536 1.363 . S
C2538 C2539 1.370 . S
C2538 C2542 1.524 . S
C2539 C2531 1.503 . S
C2539 C2538 1.370 . S
C2539 C2540 1.403 . S
C2540 C2539 1.403 . S
C2540 C2541 1.404 . S
C2540 C2543 1.539 . S
C2541 C2537 1.408 . S
C2541 C2540 1.404 . S
C2541 H2553 0.930 . S
C2542 C2538 1.524 . S
C2542 H2554 0.956 . S
C2542 H2555 0.961 . S
C2542 H2556 0.961 . S
C2543 C2540 1.539 . S
C2543 H2557 0.958 . S
C2543 H2558 0.961 . S
C2543 H2559 0.960 . S
H2544 C2528 0.931 . S
H2545 C2533 0.929 . S
H2546 C2534 0.960 . S
H2547 C2534 0.962 . S
H2548 C2534 0.960 . S
H2549 C2535 0.961 . S
H2550 C2535 0.961 . S
H2551 C2535 0.961 . S
H2552 C2536 0.931 . S
H2553 C2541 0.930 . S
H2554 C2542 0.956 . S
H2555 C2542 0.961 . S
H2556 C2542 0.961 . S
H2557 C2543 0.958 . S
H2558 C2543 0.961 . S
H2559 C2543 0.960 . S
C2560 C2561 1.391 . S
C2560 C2562 1.394 . S
C2560 H2576 0.931 . S
C2561 C2560 1.391 . S
C2561 C2565 1.376 . S
C2562 C2560 1.394 . S
C2562 C2563 1.369 . S
C2562 C2566 1.531 . S
C2563 C2562 1.369 . S
C2563 C2564 1.410 . S
C2563 C2571 1.503 . S
C2564 C2563 1.410 . S
C2564 C2565 1.392 . S
C2564 C2567 1.511 . S
C2565 C2561 1.376 . S
C2565 C2564 1.392 . S
C2565 H2577 0.929 . S
C2566 C2562 1.531 . S
C2566 H2578 0.960 . S
C2566 H2579 0.962 . S
C2566 H2580 0.960 . S
C2567 C2564 1.511 . S
C2567 H2581 0.961 . S
C2567 H2582 0.961 . S
C2567 H2583 0.961 . S
C2568 C2569 1.348 1_565 S
C2568 C2570 1.359 1_565 S
C2568 H2584 0.959 . S
C2569 C2568 1.348 1_545 S
C2569 C2573 1.408 . S
C2570 C2568 1.359 1_545 S
C2570 C2571 1.370 . S
C2570 C2574 1.524 1_545 S
C2571 C2563 1.503 . S
C2571 C2570 1.370 . S
C2571 C2572 1.403 . S
C2572 C2571 1.403 . S
C2572 C2573 1.404 . S
C2572 C2575 1.539 . S
C2573 C2569 1.408 . S
C2573 C2572 1.404 . S
C2573 H2585 0.930 . S
C2574 C2570 1.524 1_565 S
C2574 H2586 0.956 . S
C2574 H2587 0.961 . S
C2574 H2588 0.961 . S
C2575 C2572 1.539 . S
C2575 H2589 0.958 . S
C2575 H2590 0.961 . S
C2575 H2591 0.960 . S
H2576 C2560 0.931 . S
H2577 C2565 0.929 . S
H2578 C2566 0.960 . S
H2579 C2566 0.962 . S
H2580 C2566 0.960 . S
H2581 C2567 0.961 . S
H2582 C2567 0.961 . S
H2583 C2567 0.961 . S
H2584 C2568 0.959 . S
H2585 C2573 0.930 . S
H2586 C2574 0.956 . S
H2587 C2574 0.961 . S
H2588 C2574 0.961 . S
H2589 C2575 0.958 . S
H2590 C2575 0.961 . S
H2591 C2575 0.960 . S
C2592 C2593 1.391 . S
C2592 C2594 1.394 . S
C2592 H2608 0.931 . S
C2593 C2592 1.391 . S
C2593 C2597 1.376 . S
C2594 C2592 1.394 . S
C2594 C2595 1.369 . S
C2594 C2598 1.531 . S
C2595 C2594 1.369 . S
C2595 C2596 1.410 . S
C2595 C2603 1.503 . S
C2596 C2595 1.410 . S
C2596 C2597 1.392 . S
C2596 C2599 1.511 . S
C2597 C2593 1.376 . S
C2597 C2596 1.392 . S
C2597 H2609 0.929 . S
C2598 C2594 1.531 . S
C2598 H2610 0.960 . S
C2598 H2611 0.962 . S
C2598 H2612 0.960 . S
C2599 C2596 1.511 . S
C2599 H2613 0.961 . S
C2599 H2614 0.961 . S
C2599 H2615 0.961 . S
C2600 C2601 1.370 . S
C2600 C2602 1.363 . S
C2600 H2616 0.931 . S
C2601 C2600 1.370 . S
C2601 C2605 1.408 . S
C2602 C2600 1.363 . S
C2602 C2603 1.370 . S
C2602 C2606 1.524 . S
C2603 C2595 1.503 . S
C2603 C2602 1.370 . S
C2603 C2604 1.403 . S
C2604 C2603 1.403 . S
C2604 C2605 1.404 . S
C2604 C2607 1.539 . S
C2605 C2601 1.408 . S
C2605 C2604 1.404 . S
C2605 H2617 0.930 . S
C2606 C2602 1.524 . S
C2606 H2618 0.956 . S
C2606 H2619 0.961 . S
C2606 H2620 0.961 . S
C2607 C2604 1.539 . S
C2607 H2621 0.958 . S
C2607 H2622 0.961 . S
C2607 H2623 0.960 . S
H2608 C2592 0.931 . S
H2609 C2597 0.929 . S
H2610 C2598 0.960 . S
H2611 C2598 0.962 . S
H2612 C2598 0.960 . S
H2613 C2599 0.961 . S
H2614 C2599 0.961 . S
H2615 C2599 0.961 . S
H2616 C2600 0.931 . S
H2617 C2605 0.930 . S
H2618 C2606 0.956 . S
H2619 C2606 0.961 . S
H2620 C2606 0.961 . S
H2621 C2607 0.958 . S
H2622 C2607 0.961 . S
H2623 C2607 0.960 . S
C2624 C2625 1.391 . S
C2624 C2626 1.394 . S
C2624 H2640 0.931 . S
C2625 C2624 1.391 . S
C2625 C2629 1.376 . S
C2626 C2624 1.394 . S
C2626 C2627 1.369 . S
C2626 C2630 1.531 . S
C2627 C2626 1.369 . S
C2627 C2628 1.410 . S
C2627 C2635 1.503 . S
C2628 C2627 1.410 . S
C2628 C2629 1.392 . S
C2628 C2631 1.511 . S
C2629 C2625 1.376 . S
C2629 C2628 1.392 . S
C2629 H2641 0.929 . S
C2630 C2626 1.531 . S
C2630 H2642 0.960 . S
C2630 H2643 0.962 . S
C2630 H2644 0.960 . S
C2631 C2628 1.511 . S
C2631 H2645 0.961 . S
C2631 H2646 0.961 . S
C2631 H2647 0.961 . S
C2632 C2633 1.370 . S
C2632 C2634 1.363 . S
C2632 H2648 0.931 . S
C2633 C2632 1.370 . S
C2633 C2637 1.408 . S
C2634 C2632 1.363 . S
C2634 C2635 1.370 . S
C2634 C2638 1.524 . S
C2635 C2627 1.503 . S
C2635 C2634 1.370 . S
C2635 C2636 1.403 . S
C2636 C2635 1.403 . S
C2636 C2637 1.404 . S
C2636 C2639 1.539 . S
C2637 C2633 1.408 . S
C2637 C2636 1.404 . S
C2637 H2649 0.930 . S
C2638 C2634 1.524 . S
C2638 H2650 0.956 . S
C2638 H2651 0.961 . S
C2638 H2652 0.961 . S
C2639 C2636 1.539 . S
C2639 H2653 0.958 . S
C2639 H2654 0.961 . S
C2639 H2655 0.960 . S
H2640 C2624 0.931 . S
H2641 C2629 0.929 . S
H2642 C2630 0.960 . S
H2643 C2630 0.962 . S
H2644 C2630 0.960 . S
H2645 C2631 0.961 . S
H2646 C2631 0.961 . S
H2647 C2631 0.961 . S
H2648 C2632 0.931 . S
H2649 C2637 0.930 . S
H2650 C2638 0.956 . S
H2651 C2638 0.961 . S
H2652 C2638 0.961 . S
H2653 C2639 0.958 . S
H2654 C2639 0.961 . S
H2655 C2639 0.960 . S
C2656 C2657 1.391 . S
C2656 C2658 1.394 . S
C2656 H2672 0.931 . S
C2657 C2656 1.391 . S
C2657 C2661 1.376 . S
C2658 C2656 1.394 . S
C2658 C2659 1.369 . S
C2658 C2662 1.531 . S
C2659 C2658 1.369 . S
C2659 C2660 1.410 . S
C2659 C2667 1.503 . S
C2660 C2659 1.410 . S
C2660 C2661 1.392 . S
C2660 C2663 1.511 . S
C2661 C2657 1.376 . S
C2661 C2660 1.392 . S
C2661 H2673 0.929 . S
C2662 C2658 1.531 . S
C2662 H2674 0.960 . S
C2662 H2675 0.962 . S
C2662 H2676 0.960 . S
C2663 C2660 1.511 . S
C2663 H2677 0.961 . S
C2663 H2678 0.961 . S
C2663 H2679 0.961 . S
C2664 C2665 1.370 . S
C2664 C2666 1.363 . S
C2664 H2680 0.931 . S
C2665 C2664 1.370 . S
C2665 C2669 1.408 . S
C2666 C2664 1.363 . S
C2666 C2667 1.370 . S
C2666 C2670 1.524 . S
C2667 C2659 1.503 . S
C2667 C2666 1.370 . S
C2667 C2668 1.403 . S
C2668 C2667 1.403 . S
C2668 C2669 1.404 . S
C2668 C2671 1.539 . S
C2669 C2665 1.408 . S
C2669 C2668 1.404 . S
C2669 H2681 0.930 . S
C2670 C2666 1.524 . S
C2670 H2682 0.956 . S
C2670 H2683 0.961 . S
C2670 H2684 0.961 . S
C2671 C2668 1.539 . S
C2671 H2685 0.958 . S
C2671 H2686 0.961 . S
C2671 H2687 0.960 . S
H2672 C2656 0.931 . S
H2673 C2661 0.929 . S
H2674 C2662 0.960 . S
H2675 C2662 0.962 . S
H2676 C2662 0.960 . S
H2677 C2663 0.961 . S
H2678 C2663 0.961 . S
H2679 C2663 0.961 . S
H2680 C2664 0.931 . S
H2681 C2669 0.930 . S
H2682 C2670 0.956 . S
H2683 C2670 0.961 . S
H2684 C2670 0.961 . S
H2685 C2671 0.958 . S
H2686 C2671 0.961 . S
H2687 C2671 0.960 . S
C2688 C2689 1.391 . S
C2688 C2690 1.394 . S
C2688 H2704 0.931 1_655 S
C2689 C2688 1.391 . S
C2689 C2693 1.376 . S
C2690 C2688 1.394 . S
C2690 C2691 1.369 . S
C2690 C2694 1.531 1_655 S
C2691 C2690 1.369 . S
C2691 C2692 1.410 . S
C2691 C2699 1.503 . S
C2692 C2691 1.410 . S
C2692 C2693 1.392 . S
C2692 C2695 1.511 . S
C2693 C2689 1.376 . S
C2693 C2692 1.392 . S
C2693 H2705 0.929 . S
C2694 C2690 1.531 1_455 S
C2694 H2706 0.960 . S
C2694 H2707 0.962 . S
C2694 H2708 0.960 . S
C2695 C2692 1.511 . S
C2695 H2709 0.961 . S
C2695 H2710 0.961 . S
C2695 H2711 0.961 . S
C2696 C2697 1.370 . S
C2696 C2698 1.363 . S
C2696 H2712 0.931 1_655 S
C2697 C2696 1.370 . S
C2697 C2701 1.408 . S
C2698 C2696 1.363 . S
C2698 C2699 1.370 . S
C2698 C2702 1.512 1_655 S
C2699 C2691 1.503 . S
C2699 C2698 1.370 . S
C2699 C2700 1.403 . S
C2700 C2699 1.403 . S
C2700 C2701 1.404 . S
C2700 C2703 1.539 . S
C2701 C2697 1.408 . S
C2701 C2700 1.404 . S
C2701 H2713 0.930 . S
C2702 C2698 1.512 1_455 S
C2702 H2714 0.979 . S
C2702 H2715 0.938 1_455 S
C2702 H2716 0.973 . S
C2703 C2700 1.539 . S
C2703 H2717 0.958 . S
C2703 H2718 0.961 . S
C2703 H2719 0.960 . S
H2704 C2688 0.931 1_455 S
H2705 C2693 0.929 . S
H2706 C2694 0.960 . S
H2707 C2694 0.962 . S
H2708 C2694 0.960 . S
H2709 C2695 0.961 . S
H2710 C2695 0.961 . S
H2711 C2695 0.961 . S
H2712 C2696 0.931 1_455 S
H2713 C2701 0.930 . S
H2714 C2702 0.979 . S
H2715 C2702 0.938 1_655 S
H2716 C2702 0.973 . S
H2717 C2703 0.958 . S
H2718 C2703 0.961 . S
H2719 C2703 0.960 . S
C2720 C2721 1.391 . S
C2720 C2722 1.394 . S
C2720 H2736 0.931 . S
C2721 C2720 1.391 . S
C2721 C2725 1.376 . S
C2722 C2720 1.394 . S
C2722 C2723 1.369 . S
C2722 C2726 1.531 . S
C2723 C2722 1.369 . S
C2723 C2724 1.410 . S
C2723 C2731 1.503 . S
C2724 C2723 1.410 . S
C2724 C2725 1.392 . S
C2724 C2727 1.511 . S
C2725 C2721 1.376 . S
C2725 C2724 1.392 . S
C2725 H2737 0.929 . S
C2726 C2722 1.531 . S
C2726 H2738 0.960 . S
C2726 H2739 0.962 . S
C2726 H2740 0.960 . S
C2727 C2724 1.511 . S
C2727 H2741 0.961 . S
C2727 H2742 0.961 . S
C2727 H2743 0.961 . S
C2728 C2729 1.370 . S
C2728 C2730 1.363 . S
C2728 H2744 0.931 . S
C2729 C2728 1.370 . S
C2729 C2733 1.408 . S
C2730 C2728 1.363 . S
C2730 C2731 1.370 . S
C2730 C2734 1.524 . S
C2731 C2723 1.503 . S
C2731 C2730 1.370 . S
C2731 C2732 1.403 . S
C2732 C2731 1.403 . S
C2732 C2733 1.404 . S
C2732 C2735 1.539 . S
C2733 C2729 1.408 . S
C2733 C2732 1.404 . S
C2733 H2745 0.930 . S
C2734 C2730 1.524 . S
C2734 H2746 0.956 . S
C2734 H2747 0.961 . S
C2734 H2748 0.961 . S
C2735 C2732 1.539 . S
C2735 H2749 0.958 . S
C2735 H2750 0.961 . S
C2735 H2751 0.960 . S
H2736 C2720 0.931 . S
H2737 C2725 0.929 . S
H2738 C2726 0.960 . S
H2739 C2726 0.962 . S
H2740 C2726 0.960 . S
H2741 C2727 0.961 . S
H2742 C2727 0.961 . S
H2743 C2727 0.961 . S
H2744 C2728 0.931 . S
H2745 C2733 0.930 . S
H2746 C2734 0.956 . S
H2747 C2734 0.961 . S
H2748 C2734 0.961 . S
H2749 C2735 0.958 . S
H2750 C2735 0.961 . S
H2751 C2735 0.960 . S
C2752 C2753 1.391 . S
C2752 C2754 1.394 . S
C2752 H2768 0.931 . S
C2753 C2752 1.391 . S
C2753 C2757 1.376 . S
C2754 C2752 1.394 . S
C2754 C2755 1.369 . S
C2754 C2758 1.531 . S
C2755 C2754 1.369 . S
C2755 C2756 1.410 . S
C2755 C2763 1.503 . S
C2756 C2755 1.410 . S
C2756 C2757 1.392 . S
C2756 C2759 1.511 1_455 S
C2757 C2753 1.376 . S
C2757 C2756 1.392 . S
C2757 H2769 0.929 1_455 S
C2758 C2754 1.531 . S
C2758 H2770 0.960 . S
C2758 H2771 0.962 . S
C2758 H2772 0.960 . S
C2759 C2756 1.511 1_655 S
C2759 H2773 0.961 . S
C2759 H2774 0.961 . S
C2759 H2775 0.961 . S
C2760 C2761 1.370 . S
C2760 C2762 1.363 . S
C2760 H2776 0.931 . S
C2761 C2760 1.370 . S
C2761 C2765 1.408 . S
C2762 C2760 1.363 . S
C2762 C2763 1.370 . S
C2762 C2766 1.524 . S
C2763 C2755 1.503 . S
C2763 C2762 1.370 . S
C2763 C2764 1.403 . S
C2764 C2763 1.403 . S
C2764 C2765 1.404 . S
C2764 C2767 1.539 . S
C2765 C2761 1.408 . S
C2765 C2764 1.404 . S
C2765 H2777 0.930 . S
C2766 C2762 1.524 . S
C2766 H2778 0.956 . S
C2766 H2779 0.961 . S
C2766 H2780 0.961 . S
C2767 C2764 1.539 . S
C2767 H2781 0.958 . S
C2767 H2782 0.961 1_455 S
C2767 H2783 0.971 . S
H2768 C2752 0.931 . S
H2769 C2757 0.929 1_655 S
H2770 C2758 0.960 . S
H2771 C2758 0.962 . S
H2772 C2758 0.960 . S
H2773 C2759 0.961 . S
H2774 C2759 0.961 . S
H2775 C2759 0.961 . S
H2776 C2760 0.931 . S
H2777 C2765 0.930 . S
H2778 C2766 0.956 . S
H2779 C2766 0.961 . S
H2780 C2766 0.961 . S
H2781 C2767 0.958 . S
H2782 C2767 0.961 1_655 S
H2783 C2767 0.971 . S
C2784 C2785 1.391 . S
C2784 C2786 1.394 . S
C2784 H2800 0.931 . S
C2785 C2784 1.391 . S
C2785 C2789 1.376 . S
C2786 C2784 1.394 . S
C2786 C2787 1.369 . S
C2786 C2790 1.531 . S
C2787 C2786 1.369 . S
C2787 C2788 1.410 . S
C2787 C2795 1.503 . S
C2788 C2787 1.410 . S
C2788 C2789 1.392 . S
C2788 C2791 1.511 . S
C2789 C2785 1.376 . S
C2789 C2788 1.392 . S
C2789 H2801 0.929 . S
C2790 C2786 1.531 . S
C2790 H2802 0.960 . S
C2790 H2803 0.962 . S
C2790 H2804 0.960 . S
C2791 C2788 1.511 . S
C2791 H2805 0.961 . S
C2791 H2806 0.961 . S
C2791 H2807 0.961 . S
C2792 C2793 1.370 . S
C2792 C2794 1.363 . S
C2792 H2808 0.931 . S
C2793 C2792 1.370 . S
C2793 C2797 1.408 . S
C2794 C2792 1.363 . S
C2794 C2795 1.370 . S
C2794 C2798 1.524 . S
C2795 C2787 1.503 . S
C2795 C2794 1.370 . S
C2795 C2796 1.403 . S
C2796 C2795 1.403 . S
C2796 C2797 1.404 . S
C2796 C2799 1.539 . S
C2797 C2793 1.408 . S
C2797 C2796 1.404 . S
C2797 H2809 0.930 . S
C2798 C2794 1.524 . S
C2798 H2810 0.956 . S
C2798 H2811 0.961 . S
C2798 H2812 0.961 . S
C2799 C2796 1.539 . S
C2799 H2813 0.958 . S
C2799 H2814 0.961 . S
C2799 H2815 0.960 . S
H2800 C2784 0.931 . S
H2801 C2789 0.929 . S
H2802 C2790 0.960 . S
H2803 C2790 0.962 . S
H2804 C2790 0.960 . S
H2805 C2791 0.961 . S
H2806 C2791 0.961 . S
H2807 C2791 0.961 . S
H2808 C2792 0.931 . S
H2809 C2797 0.930 . S
H2810 C2798 0.956 . S
H2811 C2798 0.961 . S
H2812 C2798 0.961 . S
H2813 C2799 0.958 . S
H2814 C2799 0.961 . S
H2815 C2799 0.960 . S
C2816 C2817 1.391 . S
C2816 C2818 1.394 . S
C2816 H2832 0.931 . S
C2817 C2816 1.391 . S
C2817 C2821 1.376 . S
C2818 C2816 1.394 . S
C2818 C2819 1.369 . S
C2818 C2822 1.531 . S
C2819 C2818 1.369 . S
C2819 C2820 1.410 . S
C2819 C2827 1.503 . S
C2820 C2819 1.410 . S
C2820 C2821 1.392 . S
C2820 C2823 1.511 . S
C2821 C2817 1.376 . S
C2821 C2820 1.392 . S
C2821 H2833 0.929 . S
C2822 C2818 1.531 . S
C2822 H2834 0.960 . S
C2822 H2835 0.962 . S
C2822 H2836 0.960 . S
C2823 C2820 1.511 . S
C2823 H2837 0.961 . S
C2823 H2838 0.961 . S
C2823 H2839 0.961 . S
C2824 C2825 1.370 . S
C2824 C2826 1.363 . S
C2824 H2840 0.931 . S
C2825 C2824 1.370 . S
C2825 C2829 1.408 . S
C2826 C2824 1.363 . S
C2826 C2827 1.370 . S
C2826 C2830 1.524 . S
C2827 C2819 1.503 . S
C2827 C2826 1.370 . S
C2827 C2828 1.403 . S
C2828 C2827 1.403 . S
C2828 C2829 1.404 . S
C2828 C2831 1.539 . S
C2829 C2825 1.408 . S
C2829 C2828 1.404 . S
C2829 H2841 0.930 . S
C2830 C2826 1.524 . S
C2830 H2842 0.956 . S
C2830 H2843 0.961 . S
C2830 H2844 0.961 . S
C2831 C2828 1.539 . S
C2831 H2845 0.958 . S
C2831 H2846 0.961 . S
C2831 H2847 0.960 . S
H2832 C2816 0.931 . S
H2833 C2821 0.929 . S
H2834 C2822 0.960 . S
H2835 C2822 0.962 . S
H2836 C2822 0.960 . S
H2837 C2823 0.961 . S
H2838 C2823 0.961 . S
H2839 C2823 0.961 . S
H2840 C2824 0.931 . S
H2841 C2829 0.930 . S
H2842 C2830 0.956 . S
H2843 C2830 0.961 . S
H2844 C2830 0.961 . S
H2845 C2831 0.958 . S
H2846 C2831 0.961 . S
H2847 C2831 0.960 . S
C2848 C2849 1.391 . S
C2848 C2850 1.394 . S
C2848 H2864 0.931 . S
C2849 C2848 1.391 . S
C2849 C2853 1.376 . S
C2850 C2848 1.394 . S
C2850 C2851 1.369 . S
C2850 C2854 1.531 . S
C2851 C2850 1.369 . S
C2851 C2852 1.410 . S
C2851 C2859 1.503 . S
C2852 C2851 1.410 . S
C2852 C2853 1.392 . S
C2852 C2855 1.511 . S
C2853 C2849 1.376 . S
C2853 C2852 1.392 . S
C2853 H2865 0.929 . S
C2854 C2850 1.531 . S
C2854 H2866 0.960 . S
C2854 H2867 0.962 . S
C2854 H2868 0.960 . S
C2855 C2852 1.511 . S
C2855 H2869 0.961 . S
C2855 H2870 0.961 . S
C2855 H2871 0.961 . S
C2856 C2857 1.370 . S
C2856 C2858 1.363 . S
C2856 H2872 0.931 . S
C2857 C2856 1.370 . S
C2857 C2861 1.408 . S
C2858 C2856 1.363 . S
C2858 C2859 1.370 . S
C2858 C2862 1.524 . S
C2859 C2851 1.503 . S
C2859 C2858 1.370 . S
C2859 C2860 1.403 . S
C2860 C2859 1.403 . S
C2860 C2861 1.404 . S
C2860 C2863 1.539 . S
C2861 C2857 1.408 . S
C2861 C2860 1.404 . S
C2861 H2873 0.930 . S
C2862 C2858 1.524 . S
C2862 H2874 0.956 . S
C2862 H2875 0.961 . S
C2862 H2876 0.961 . S
C2863 C2860 1.539 . S
C2863 H2877 0.958 . S
C2863 H2878 0.961 . S
C2863 H2879 0.960 . S
H2864 C2848 0.931 . S
H2865 C2853 0.929 . S
H2866 C2854 0.960 . S
H2867 C2854 0.962 . S
H2868 C2854 0.960 . S
H2869 C2855 0.961 . S
H2870 C2855 0.961 . S
H2871 C2855 0.961 . S
H2872 C2856 0.931 . S
H2873 C2861 0.930 . S
H2874 C2862 0.956 . S
H2875 C2862 0.961 . S
H2876 C2862 0.961 . S
H2877 C2863 0.958 . S
H2878 C2863 0.961 . S
H2879 C2863 0.960 . S
C2880 C2881 1.391 . S
C2880 C2882 1.394 . S
C2880 H2896 0.931 . S
C2881 C2880 1.391 . S
C2881 C2885 1.376 . S
C2882 C2880 1.394 . S
C2882 C2883 1.369 . S
C2882 C2886 1.531 . S
C2883 C2882 1.369 . S
C2883 C2884 1.410 . S
C2883 C2891 1.503 . S
C2884 C2883 1.410 . S
C2884 C2885 1.392 . S
C2884 C2887 1.511 . S
C2885 C2881 1.376 . S
C2885 C2884 1.392 . S
C2885 H2897 0.929 . S
C2886 C2882 1.531 . S
C2886 H2898 0.960 . S
C2886 H2899 0.962 . S
C2886 H2900 0.960 . S
C2887 C2884 1.511 . S
C2887 H2901 0.961 . S
C2887 H2902 0.961 . S
C2887 H2903 0.961 . S
C2888 C2889 1.370 . S
C2888 C2890 1.363 . S
C2888 H2904 0.931 . S
C2889 C2888 1.370 . S
C2889 C2893 1.408 . S
C2890 C2888 1.363 . S
C2890 C2891 1.370 . S
C2890 C2894 1.524 . S
C2891 C2883 1.503 . S
C2891 C2890 1.370 . S
C2891 C2892 1.403 . S
C2892 C2891 1.403 . S
C2892 C2893 1.404 . S
C2892 C2895 1.539 . S
C2893 C2889 1.408 . S
C2893 C2892 1.404 . S
C2893 H2905 0.930 . S
C2894 C2890 1.524 . S
C2894 H2906 0.956 . S
C2894 H2907 0.961 . S
C2894 H2908 0.961 . S
C2895 C2892 1.539 . S
C2895 H2909 0.958 . S
C2895 H2910 0.961 . S
C2895 H2911 0.960 . S
H2896 C2880 0.931 . S
H2897 C2885 0.929 . S
H2898 C2886 0.960 . S
H2899 C2886 0.962 . S
H2900 C2886 0.960 . S
H2901 C2887 0.961 . S
H2902 C2887 0.961 . S
H2903 C2887 0.961 . S
H2904 C2888 0.931 . S
H2905 C2893 0.930 . S
H2906 C2894 0.956 . S
H2907 C2894 0.961 . S
H2908 C2894 0.961 . S
H2909 C2895 0.958 . S
H2910 C2895 0.961 . S
H2911 C2895 0.960 . S
C2912 C2913 1.391 . S
C2912 C2914 1.394 . S
C2912 H2928 0.931 . S
C2913 C2912 1.391 . S
C2913 C2917 1.376 . S
C2914 C2912 1.394 . S
C2914 C2915 1.369 . S
C2914 C2918 1.531 . S
C2915 C2914 1.369 . S
C2915 C2916 1.410 . S
C2915 C2923 1.503 . S
C2916 C2915 1.410 . S
C2916 C2917 1.392 . S
C2916 C2919 1.511 . S
C2917 C2913 1.376 . S
C2917 C2916 1.392 . S
C2917 H2929 0.929 . S
C2918 C2914 1.531 . S
C2918 H2930 0.960 . S
C2918 H2931 0.962 . S
C2918 H2932 0.960 . S
C2919 C2916 1.511 . S
C2919 H2933 0.961 . S
C2919 H2934 0.961 . S
C2919 H2935 0.961 . S
C2920 C2921 1.370 . S
C2920 C2922 1.363 . S
C2920 H2936 0.931 . S
C2921 C2920 1.370 . S
C2921 C2925 1.408 . S
C2922 C2920 1.363 . S
C2922 C2923 1.370 . S
C2922 C2926 1.524 . S
C2923 C2915 1.503 . S
C2923 C2922 1.370 . S
C2923 C2924 1.403 . S
C2924 C2923 1.403 . S
C2924 C2925 1.404 . S
C2924 C2927 1.539 . S
C2925 C2921 1.408 . S
C2925 C2924 1.404 . S
C2925 H2937 0.930 . S
C2926 C2922 1.524 . S
C2926 H2938 0.956 . S
C2926 H2939 0.961 . S
C2926 H2940 0.961 . S
C2927 C2924 1.539 . S
C2927 H2941 0.958 . S
C2927 H2942 0.961 . S
C2927 H2943 0.960 . S
H2928 C2912 0.931 . S
H2929 C2917 0.929 . S
H2930 C2918 0.960 . S
H2931 C2918 0.962 . S
H2932 C2918 0.960 . S
H2933 C2919 0.961 . S
H2934 C2919 0.961 . S
H2935 C2919 0.961 . S
H2936 C2920 0.931 . S
H2937 C2925 0.930 . S
H2938 C2926 0.956 . S
H2939 C2926 0.961 . S
H2940 C2926 0.961 . S
H2941 C2927 0.958 . S
H2942 C2927 0.961 . S
H2943 C2927 0.960 . S
C2944 C2945 1.391 . S
C2944 C2946 1.394 . S
C2944 H2960 0.931 . S
C2945 C2944 1.391 . S
C2945 C2949 1.376 . S
C2946 C2944 1.394 . S
C2946 C2947 1.369 . S
C2946 C2950 1.531 . S
C2947 C2946 1.369 . S
C2947 C2948 1.410 . S
C2947 C2955 1.503 . S
C2948 C2947 1.410 . S
C2948 C2949 1.392 . S
C2948 C2951 1.511 . S
C2949 C2945 1.376 . S
C2949 C2948 1.392 . S
C2949 H2961 0.929 . S
C2950 C2946 1.531 . S
C2950 H2962 0.960 . S
C2950 H2963 0.962 . S
C2950 H2964 0.960 . S
C2951 C2948 1.511 . S
C2951 H2965 0.961 . S
C2951 H2966 0.961 . S
C2951 H2967 0.961 . S
C2952 C2953 1.370 . S
C2952 C2954 1.363 . S
C2952 H2968 0.931 . S
C2953 C2952 1.370 . S
C2953 C2957 1.408 . S
C2954 C2952 1.363 . S
C2954 C2955 1.370 . S
C2954 C2958 1.524 . S
C2955 C2947 1.503 . S
C2955 C2954 1.370 . S
C2955 C2956 1.403 . S
C2956 C2955 1.403 . S
C2956 C2957 1.404 . S
C2956 C2959 1.539 . S
C2957 C2953 1.408 . S
C2957 C2956 1.404 . S
C2957 H2969 0.930 . S
C2958 C2954 1.524 . S
C2958 H2970 0.956 . S
C2958 H2971 0.961 . S
C2958 H2972 0.961 . S
C2959 C2956 1.539 . S
C2959 H2973 0.958 . S
C2959 H2974 0.961 . S
C2959 H2975 0.960 . S
H2960 C2944 0.931 . S
H2961 C2949 0.929 . S
H2962 C2950 0.960 . S
H2963 C2950 0.962 . S
H2964 C2950 0.960 . S
H2965 C2951 0.961 . S
H2966 C2951 0.961 . S
H2967 C2951 0.961 . S
H2968 C2952 0.931 . S
H2969 C2957 0.930 . S
H2970 C2958 0.956 . S
H2971 C2958 0.961 . S
H2972 C2958 0.961 . S
H2973 C2959 0.958 . S
H2974 C2959 0.961 . S
H2975 C2959 0.960 . S
C2976 C2977 1.391 . S
C2976 C2978 1.394 . S
C2976 H2992 0.931 . S
C2977 C2976 1.391 . S
C2977 C2981 1.376 . S
C2978 C2976 1.394 . S
C2978 C2979 1.369 . S
C2978 C2982 1.531 . S
C2979 C2978 1.369 . S
C2979 C2980 1.410 . S
C2979 C2987 1.503 . S
C2980 C2979 1.410 . S
C2980 C2981 1.392 . S
C2980 C2983 1.511 . S
C2981 C2977 1.376 . S
C2981 C2980 1.392 . S
C2981 H2993 0.929 . S
C2982 C2978 1.531 . S
C2982 H2994 0.960 . S
C2982 H2995 0.962 . S
C2982 H2996 0.960 . S
C2983 C2980 1.511 . S
C2983 H2997 0.961 . S
C2983 H2998 0.961 . S
C2983 H2999 0.961 . S
C2984 C2985 1.370 . S
C2984 C2986 1.363 . S
C2984 H3000 0.931 . S
C2985 C2984 1.370 . S
C2985 C2989 1.408 . S
C2986 C2984 1.363 . S
C2986 C2987 1.370 . S
C2986 C2990 1.524 . S
C2987 C2979 1.503 . S
C2987 C2986 1.370 . S
C2987 C2988 1.403 . S
C2988 C2987 1.403 . S
C2988 C2989 1.404 . S
C2988 C2991 1.539 . S
C2989 C2985 1.408 . S
C2989 C2988 1.404 . S
C2989 H3001 0.930 . S
C2990 C2986 1.524 . S
C2990 H3002 0.956 . S
C2990 H3003 0.961 . S
C2990 H3004 0.961 . S
C2991 C2988 1.539 . S
C2991 H3005 0.958 . S
C2991 H3006 0.961 . S
C2991 H3007 0.960 . S
H2992 C2976 0.931 . S
H2993 C2981 0.929 . S
H2994 C2982 0.960 . S
H2995 C2982 0.962 . S
H2996 C2982 0.960 . S
H2997 C2983 0.961 . S
H2998 C2983 0.961 . S
H2999 C2983 0.961 . S
H3000 C2984 0.931 . S
H3001 C2989 0.930 . S
H3002 C2990 0.956 . S
H3003 C2990 0.961 . S
H3004 C2990 0.961 . S
H3005 C2991 0.958 . S
H3006 C2991 0.961 . S
H3007 C2991 0.960 . S
C3008 C3009 1.391 . S
C3008 C3010 1.394 . S
C3008 H3024 0.931 . S
C3009 C3008 1.391 . S
C3009 C3013 1.376 . S
C3010 C3008 1.394 . S
C3010 C3011 1.369 . S
C3010 C3014 1.531 . S
C3011 C3010 1.369 . S
C3011 C3012 1.410 . S
C3011 C3019 1.503 . S
C3012 C3011 1.410 . S
C3012 C3013 1.392 . S
C3012 C3015 1.511 . S
C3013 C3009 1.376 . S
C3013 C3012 1.392 . S
C3013 H3025 0.929 . S
C3014 C3010 1.531 . S
C3014 H3026 0.960 . S
C3014 H3027 0.962 . S
C3014 H3028 0.960 . S
C3015 C3012 1.511 . S
C3015 H3029 0.961 . S
C3015 H3030 0.961 . S
C3015 H3031 0.961 . S
C3016 C3017 1.370 . S
C3016 C3018 1.363 . S
C3016 H3032 0.931 . S
C3017 C3016 1.370 . S
C3017 C3021 1.408 . S
C3018 C3016 1.363 . S
C3018 C3019 1.370 . S
C3018 C3022 1.524 . S
C3019 C3011 1.503 . S
C3019 C3018 1.370 . S
C3019 C3020 1.403 . S
C3020 C3019 1.403 . S
C3020 C3021 1.404 . S
C3020 C3023 1.539 . S
C3021 C3017 1.408 . S
C3021 C3020 1.404 . S
C3021 H3033 0.930 . S
C3022 C3018 1.524 . S
C3022 H3034 0.956 . S
C3022 H3035 0.961 . S
C3022 H3036 0.961 . S
C3023 C3020 1.539 . S
C3023 H3037 0.958 . S
C3023 H3038 0.961 . S
C3023 H3039 0.960 . S
H3024 C3008 0.931 . S
H3025 C3013 0.929 . S
H3026 C3014 0.960 . S
H3027 C3014 0.962 . S
H3028 C3014 0.960 . S
H3029 C3015 0.961 . S
H3030 C3015 0.961 . S
H3031 C3015 0.961 . S
H3032 C3016 0.931 . S
H3033 C3021 0.930 . S
H3034 C3022 0.956 . S
H3035 C3022 0.961 . S
H3036 C3022 0.961 . S
H3037 C3023 0.958 . S
H3038 C3023 0.961 . S
H3039 C3023 0.960 . S
C3040 C3041 1.391 . S
C3040 C3042 1.394 . S
C3040 H3056 0.931 . S
C3041 C3040 1.391 . S
C3041 C3045 1.376 . S
C3042 C3040 1.394 . S
C3042 C3043 1.369 . S
C3042 C3046 1.531 . S
C3043 C3042 1.369 . S
C3043 C3044 1.410 . S
C3043 C3051 1.503 . S
C3044 C3043 1.410 . S
C3044 C3045 1.392 . S
C3044 C3047 1.511 1_556 S
C3045 C3041 1.376 . S
C3045 C3044 1.392 . S
C3045 H3057 0.929 1_556 S
C3046 C3042 1.531 . S
C3046 H3058 0.960 . S
C3046 H3059 0.962 . S
C3046 H3060 0.960 . S
C3047 C3044 1.511 1_554 S
C3047 H3061 0.961 . S
C3047 H3062 0.961 . S
C3047 H3063 0.961 . S
C3048 C3049 1.370 . S
C3048 C3050 1.363 . S
C3048 H3064 0.931 . S
C3049 C3048 1.370 . S
C3049 C3053 1.408 . S
C3050 C3048 1.363 . S
C3050 C3051 1.370 . S
C3050 C3054 1.524 . S
C3051 C3043 1.503 . S
C3051 C3050 1.370 . S
C3051 C3052 1.403 . S
C3052 C3051 1.403 . S
C3052 C3053 1.404 . S
C3052 C3055 1.539 . S
C3053 C3049 1.408 . S
C3053 C3052 1.404 . S
C3053 H3065 0.930 . S
C3054 C3050 1.524 . S
C3054 H3066 0.956 . S
C3054 H3067 0.961 . S
C3054 H3068 0.961 . S
C3055 C3052 1.539 . S
C3055 H3069 0.958 . S
C3055 H3070 0.961 1_556 S
C3055 H3071 0.968 . S
H3056 C3040 0.931 . S
H3057 C3045 0.929 1_554 S
H3058 C3046 0.960 . S
H3059 C3046 0.962 . S
H3060 C3046 0.960 . S
H3061 C3047 0.961 . S
H3062 C3047 0.961 . S
H3063 C3047 0.961 . S
H3064 C3048 0.931 . S
H3065 C3053 0.930 . S
H3066 C3054 0.956 . S
H3067 C3054 0.961 . S
H3068 C3054 0.961 . S
H3069 C3055 0.958 . S
H3070 C3055 0.961 1_554 S
H3071 C3055 0.968 . S
C3072 C3073 1.391 . S
C3072 C3074 1.394 . S
C3072 H3088 0.931 . S
C3073 C3072 1.391 . S
C3073 C3077 1.376 . S
C3074 C3072 1.394 . S
C3074 C3075 1.369 . S
C3074 C3078 1.531 . S
C3075 C3074 1.369 . S
C3075 C3076 1.410 . S
C3075 C3083 1.503 . S
C3076 C3075 1.410 . S
C3076 C3077 1.392 . S
C3076 C3079 1.511 . S
C3077 C3073 1.376 . S
C3077 C3076 1.392 . S
C3077 H3089 0.929 . S
C3078 C3074 1.531 . S
C3078 H3090 0.960 . S
C3078 H3091 0.962 . S
C3078 H3092 0.960 . S
C3079 C3076 1.511 . S
C3079 H3093 0.961 . S
C3079 H3094 0.961 . S
C3079 H3095 0.961 . S
C3080 C3081 1.370 . S
C3080 C3082 1.363 . S
C3080 H3096 0.931 . S
C3081 C3080 1.370 . S
C3081 C3085 1.408 . S
C3082 C3080 1.363 . S
C3082 C3083 1.370 . S
C3082 C3086 1.524 . S
C3083 C3075 1.503 . S
C3083 C3082 1.370 . S
C3083 C3084 1.403 . S
C3084 C3083 1.403 . S
C3084 C3085 1.404 . S
C3084 C3087 1.539 . S
C3085 C3081 1.408 . S
C3085 C3084 1.404 . S
C3085 H3097 0.930 . S
C3086 C3082 1.524 . S
C3086 H3098 0.956 . S
C3086 H3099 0.961 . S
C3086 H3100 0.961 . S
C3087 C3084 1.539 . S
C3087 H3101 0.958 . S
C3087 H3102 0.961 . S
C3087 H3103 0.960 . S
H3088 C3072 0.931 . S
H3089 C3077 0.929 . S
H3090 C3078 0.960 . S
H3091 C3078 0.962 . S
H3092 C3078 0.960 . S
H3093 C3079 0.961 . S
H3094 C3079 0.961 . S
H3095 C3079 0.961 . S
H3096 C3080 0.931 . S
H3097 C3085 0.930 . S
H3098 C3086 0.956 . S
H3099 C3086 0.961 . S
H3100 C3086 0.961 . S
H3101 C3087 0.958 . S
H3102 C3087 0.961 . S
H3103 C3087 0.960 . S
C3104 C3105 1.391 . S
C3104 C3106 1.394 . S
C3104 H3120 0.931 . S
C3105 C3104 1.391 . S
C3105 C3109 1.376 . S
C3106 C3104 1.394 . S
C3106 C3107 1.369 . S
C3106 C3110 1.531 . S
C3107 C3106 1.369 . S
C3107 C3108 1.410 . S
C3107 C3115 1.503 . S
C3108 C3107 1.410 . S
C3108 C3109 1.392 . S
C3108 C3111 1.511 . S
C3109 C3105 1.376 . S
C3109 C3108 1.392 . S
C3109 H3121 0.929 . S
C3110 C3106 1.531 . S
C3110 H3122 0.960 . S
C3110 H3123 0.962 . S
C3110 H3124 0.960 . S
C3111 C3108 1.511 . S
C3111 H3125 0.961 . S
C3111 H3126 0.961 . S
C3111 H3127 0.961 . S
C3112 C3113 1.317 1_556 S
C3112 C3114 1.354 1_556 S
C3112 H3128 0.997 . S
C3113 C3112 1.317 1_554 S
C3113 C3117 1.408 . S
C3114 C3112 1.354 1_554 S
C3114 C3115 1.370 . S
C3114 C3118 1.524 1_554 S
C3115 C3107 1.503 . S
C3115 C3114 1.370 . S
C3115 C3116 1.403 . S
C3116 C3115 1.403 . S
C3116 C3117 1.404 . S
C3116 C3119 1.539 . S
C3117 C3113 1.408 . S
C3117 C3116 1.404 . S
C3117 H3129 0.930 . S
C3118 C3114 1.524 1_556 S
C3118 H3130 0.956 . S
C3118 H3131 0.961 . S
C3118 H3132 0.961 . S
C3119 C3116 1.539 . S
C3119 H3133 0.958 . S
C3119 H3134 0.961 . S
C3119 H3135 0.960 . S
H3120 C3104 0.931 . S
H3121 C3109 0.929 . S
H3122 C3110 0.960 . S
H3123 C3110 0.962 . S
H3124 C3110 0.960 . S
H3125 C3111 0.961 . S
H3126 C3111 0.961 . S
H3127 C3111 0.961 . S
H3128 C3112 0.997 . S
H3129 C3117 0.930 . S
H3130 C3118 0.956 . S
H3131 C3118 0.961 . S
H3132 C3118 0.961 . S
H3133 C3119 0.958 . S
H3134 C3119 0.961 . S
H3135 C3119 0.960 . S
C3136 C3137 1.391 . S
C3136 C3138 1.394 . S
C3136 H3152 0.931 . S
C3137 C3136 1.391 . S
C3137 C3141 1.376 . S
C3138 C3136 1.394 . S
C3138 C3139 1.369 . S
C3138 C3142 1.531 . S
C3139 C3138 1.369 . S
C3139 C3140 1.410 . S
C3139 C3147 1.503 . S
C3140 C3139 1.410 . S
C3140 C3141 1.392 . S
C3140 C3143 1.506 1_554 S
C3141 C3137 1.376 . S
C3141 C3140 1.392 . S
C3141 H3153 0.929 . S
C3142 C3138 1.531 . S
C3142 H3154 0.960 . S
C3142 H3155 0.962 . S
C3142 H3156 0.960 . S
C3143 C3140 1.506 1_556 S
C3143 H3157 0.968 . S
C3143 H3158 0.965 . S
C3143 H3159 0.955 1_556 S
C3144 C3145 1.370 . S
C3144 C3146 1.363 . S
C3144 H3160 0.931 1_554 S
C3145 C3144 1.370 . S
C3145 C3149 1.408 . S
C3146 C3144 1.363 . S
C3146 C3147 1.370 . S
C3146 C3150 1.524 1_554 S
C3147 C3139 1.503 . S
C3147 C3146 1.370 . S
C3147 C3148 1.403 . S
C3148 C3147 1.403 . S
C3148 C3149 1.404 . S
C3148 C3151 1.539 . S
C3149 C3145 1.408 . S
C3149 C3148 1.404 . S
C3149 H3161 0.930 . S
C3150 C3146 1.524 1_556 S
C3150 H3162 0.956 . S
C3150 H3163 0.961 . S
C3150 H3164 0.961 . S
C3151 C3148 1.539 . S
C3151 H3165 0.958 . S
C3151 H3166 0.961 . S
C3151 H3167 0.960 . S
H3152 C3136 0.931 . S
H3153 C3141 0.929 . S
H3154 C3142 0.960 . S
H3155 C3142 0.962 . S
H3156 C3142 0.960 . S
H3157 C3143 0.968 . S
H3158 C3143 0.965 . S
H3159 C3143 0.955 1_554 S
H3160 C3144 0.931 1_556 S
H3161 C3149 0.930 . S
H3162 C3150 0.956 . S
H3163 C3150 0.961 . S
H3164 C3150 0.961 . S
H3165 C3151 0.958 . S
H3166 C3151 0.961 . S
H3167 C3151 0.960 . S
C1641 C625 1.497 . S
C1633 C181 1.493 . S
C1673 C684 1.518 . S
C1665 C247 1.514 . S
C1697 C283 1.506 . S
C1705 C801 1.521 . S
C1737 C869 1.519 . S
C1729 C169 1.505 . S
C1769 C948 1.512 . S
C1761 C361 1.496 . S
C1801 C1073 1.518 . S
C1793 C433 1.513 . S
C1825 C421 1.497 . S
C1833 C1133 1.505 . S
C1865 C1241 1.532 . S
C1857 C355 1.531 . S
C1889 C427 1.495 . S
C1897 C1337 1.525 . S
C1929 C1397 1.520 . S
C1921 C325 1.515 . S
C1953 C385 1.496 . S
C1961 C1300 1.508 . S
C1993 C1417 1.524 . S
C1985 C463 1.500 . S
C2017 C253 1.496 . S
C2025 C1485 1.522 . S
C2049 C145 1.521 . S
C2057 C1476 1.522 . S
C2081 C205 1.490 . S
C2089 C1505 1.488 . S
C2113 C217 1.507 . S
C2121 C1513 1.509 . S
C2145 C139 1.491 . S
C2153 C897 1.521 . S
C2177 C535 1.505 . S
C2185 C860 1.507 . S
C2217 C596 1.498 . S
C2209 C565 1.492 . S
C2249 C693 1.510 . S
C2241 C313 1.482 . S
C2273 C175 1.513 . S
C2281 C957 1.535 . S
C2313 C1249 1.507 . S
C2305 C397 1.474 . S
C2345 C977 1.519 . S
C2337 C349 1.515 . S
C2377 C1161 1.530 . S
C2369 C457 1.506 . S
C2409 C1153 1.499 . S
C2401 C505 1.483 . S
C2433 C571 1.512 . S
C2441 C1221 1.516 . S
C2465 C319 1.491 . S
C2473 C985 1.518 . S
C2505 C1036 1.520 . S
C2497 C493 1.494 . S
C2529 C109 1.496 . S
C2537 C781 1.507 . S
C2569 C889 1.520 . S
C2561 C1 1.500 . S
C2601 C605 1.504 . S
C2593 C61 1.505 . S
C2633 C721 1.531 . S
C2625 C103 1.527 . S
C2657 C67 1.495 . S
C2665 C1425 1.525 . S
C2689 C73 1.518 . S
C2697 C1309 1.523 . S
C2721 C133 1.496 . S
C2729 C1388 1.508 . S
C2753 C31 1.524 . S
C2761 C1329 1.523 . S
C2793 C1573 1.519 . S
C2785 C289 1.521 . S
C2825 C1564 1.521 . S
C2817 C469 1.517 . S
C2857 C1593 1.489 . S
C2849 C529 1.486 . S
C2881 C541 1.505 . S
C2889 C1601 1.509 . S
C2913 C391 1.518 . S
C2921 C1065 1.517 . S
C2953 C1045 1.509 . S
C2945 C211 1.496 . S
C2985 C1124 1.499 . S
C2977 C241 1.493 . S
C3017 C1212 1.507 . S
C3009 C277 1.512 . S
C3041 C499 1.534 . S
C3049 C772 1.534 . S
C3081 C713 1.504 . S
C3073 C37 1.504 . S
C3105 C97 1.513 . S
C3113 C809 1.518 . S
C3145 C633 1.528 . S
C3137 C25 1.517 . S
