# Generated by pormake.
# Topology nom, (4,4)-cn, num edge types: 1
# Building blocks:
#     Node 0, Type 0, BuildingBlock: MIFKUJ_clean_linker_1, # of connection points: 4
#     Node 1, Type 0, BuildingBlock: MIFKUJ_clean_linker_1, # of connection points: 4
#     Node 2, Type 0, BuildingBlock: MIFKUJ_clean_linker_1, # of connection points: 4
#     Node 3, Type 0, BuildingBlock: MIFKUJ_clean_linker_1, # of connection points: 4
#     Node 4, Type 0, BuildingBlock: MIFKUJ_clean_linker_1, # of connection points: 4
#     Node 5, Type 0, BuildingBlock: MIFKUJ_clean_linker_1, # of connection points: 4
#     Node 6, Type 1, BuildingBlock: CEKHIL_clean_sbu_0, # of connection points: 4
#     Node 7, Type 1, BuildingBlock: CEKHIL_clean_sbu_0, # of connection points: 4
#     Node 8, Type 1, BuildingBlock: CEKHIL_clean_sbu_0, # of connection points: 4
#     Node 9, Type 1, BuildingBlock: CEKHIL_clean_sbu_0, # of connection points: 4
#     Node 10, Type 1, BuildingBlock: CEKHIL_clean_sbu_0, # of connection points: 4
#     Node 11, Type 1, BuildingBlock: CEKHIL_clean_sbu_0, # of connection points: 4
#     Edge 12, Type (0, 1), BuildingBlock: OJICUG_clean_linker_0, # of connection points: 2
#     Edge 13, Type (0, 1), BuildingBlock: OJICUG_clean_linker_0, # of connection points: 2
#     Edge 14, Type (0, 1), BuildingBlock: OJICUG_clean_linker_0, # of connection points: 2
#     Edge 15, Type (0, 1), BuildingBlock: OJICUG_clean_linker_0, # of connection points: 2
#     Edge 16, Type (0, 1), BuildingBlock: OJICUG_clean_linker_0, # of connection points: 2
#     Edge 17, Type (0, 1), BuildingBlock: OJICUG_clean_linker_0, # of connection points: 2
#     Edge 18, Type (0, 1), BuildingBlock: OJICUG_clean_linker_0, # of connection points: 2
#     Edge 19, Type (0, 1), BuildingBlock: OJICUG_clean_linker_0, # of connection points: 2
#     Edge 20, Type (0, 1), BuildingBlock: OJICUG_clean_linker_0, # of connection points: 2
#     Edge 21, Type (0, 1), BuildingBlock: OJICUG_clean_linker_0, # of connection points: 2
#     Edge 22, Type (0, 1), BuildingBlock: OJICUG_clean_linker_0, # of connection points: 2
#     Edge 23, Type (0, 1), BuildingBlock: OJICUG_clean_linker_0, # of connection points: 2
#     Edge 24, Type (0, 1), BuildingBlock: OJICUG_clean_linker_0, # of connection points: 2
#     Edge 25, Type (0, 1), BuildingBlock: OJICUG_clean_linker_0, # of connection points: 2
#     Edge 26, Type (0, 1), BuildingBlock: OJICUG_clean_linker_0, # of connection points: 2
#     Edge 27, Type (0, 1), BuildingBlock: OJICUG_clean_linker_0, # of connection points: 2
#     Edge 28, Type (0, 1), BuildingBlock: OJICUG_clean_linker_0, # of connection points: 2
#     Edge 29, Type (0, 1), BuildingBlock: OJICUG_clean_linker_0, # of connection points: 2
#     Edge 30, Type (0, 1), BuildingBlock: OJICUG_clean_linker_0, # of connection points: 2
#     Edge 31, Type (0, 1), BuildingBlock: OJICUG_clean_linker_0, # of connection points: 2
#     Edge 32, Type (0, 1), BuildingBlock: OJICUG_clean_linker_0, # of connection points: 2
#     Edge 33, Type (0, 1), BuildingBlock: OJICUG_clean_linker_0, # of connection points: 2
#     Edge 34, Type (0, 1), BuildingBlock: OJICUG_clean_linker_0, # of connection points: 2
#     Edge 35, Type (0, 1), BuildingBlock: OJICUG_clean_linker_0, # of connection points: 2
# Relax obj value: 0.002
# Max RMSD: 0.101
# Mean RMSD: 0.066
data_MOF--net-nom--node1-CEKHIL_clean_sbu_0--node2-MIFKUJ_clean_linker_1--edge1-OJICUG_clean_linker_0
_symmetry_space_group_name_H-M    P1
_symmetry_Int_Tables_number       1
_symmetry_cell_setting            triclinic
loop_
_symmetry_equiv_pos_as_xyz
'x, y, z'
_cell_length_a     41.564303
_cell_length_b     41.066501
_cell_length_c     43.576495
_cell_angle_alpha  89.989564
_cell_angle_beta   89.996337
_cell_angle_gamma 121.13204
loop_
_atom_site_label
_atom_site_type_symbol
_atom_site_fract_x
_atom_site_fract_y
_atom_site_fract_z
_atom_type_partial_charge
H0 H 0.98728 0.47588 0.27551 0.0
H1 H 0.94387 0.44516 0.23303 0.0
H2 H 0.89268 0.51162 0.25203 0.0
H3 H 0.93747 0.54351 0.29424 0.0
H4 H 0.03991 0.54787 0.28677 0.0
H5 H 0.91844 0.4559 0.32831 0.0
H6 H 0.85207 0.42991 0.3374 0.0
H7 H 0.87855 0.528 0.39311 0.0
H8 H 0.94479 0.55582 0.38068 0.0
H9 H 0.04898 0.60162 0.41265 0.0
H10 H 0.09224 0.6215 0.45604 0.0
H11 H 0.13859 0.55621 0.42019 0.0
H12 H 0.09398 0.53499 0.37762 0.0
H13 H 0.99359 0.53669 0.39339 0.0
H14 H 0.10808 0.63304 0.34765 0.0
H15 H 0.1743 0.66875 0.33172 0.0
H16 H 0.16066 0.56817 0.28801 0.0
H17 H 0.09418 0.53252 0.30344 0.0
C18 C 0.96535 0.51163 0.28839 0.0
C19 C 0.96703 0.48423 0.27039 0.0
C20 C 0.94192 0.46641 0.24625 0.0
C21 C 0.91434 0.47544 0.23947 0.0
C22 C 0.91356 0.50402 0.25669 0.0
C23 C 0.93894 0.52205 0.28093 0.0
C24 C 0.99088 0.52809 0.31525 0.0
C25 C 0.02967 0.54512 0.31011 0.0
C26 C 0.97759 0.52581 0.34568 0.0
C27 C 0.93684 0.50845 0.35299 0.0
C28 C 0.90997 0.47233 0.34185 0.0
C29 C 0.87173 0.45704 0.34772 0.0
C30 C 0.85926 0.47659 0.36619 0.0
C31 C 0.88649 0.51226 0.3782 0.0
C32 C 0.92468 0.52806 0.37148 0.0
C33 C 0.06849 0.56725 0.39153 0.0
C34 C 0.06825 0.59135 0.41423 0.0
C35 C 0.09333 0.60301 0.4389 0.0
C36 C 0.11932 0.59085 0.4415 0.0
C37 C 0.11893 0.56602 0.41907 0.0
C38 C 0.0937 0.55423 0.39446 0.0
C39 C 0.04245 0.55569 0.36482 0.0
C40 C 1.0037 0.53963 0.37001 0.0
C41 C 0.05559 0.55944 0.33433 0.0
C42 C 0.09626 0.5801 0.32681 0.0
C43 C 0.11943 0.61853 0.33498 0.0
C44 C 0.15711 0.63888 0.32588 0.0
C45 C 0.17227 0.62097 0.30887 0.0
C46 C 0.14947 0.58233 0.30137 0.0
C47 C 0.11161 0.56211 0.31004 0.0
H48 H 0.39385 0.9174 0.49541 0.0
H49 H 0.35545 0.85057 0.51108 0.0
H50 H 0.45581 0.85164 0.53851 0.0
H51 H 0.4941 0.91886 0.52336 0.0
H52 H 0.48509 0.98139 0.54659 0.0
H53 H 0.42292 0.96911 0.42454 0.0
H54 H 0.39937 0.92516 0.3812 0.0
H55 H 0.46335 0.87535 0.41202 0.0
H56 H 0.48794 0.92047 0.45472 0.0
H57 H 0.55586 0.08125 0.43991 0.0
H58 H 0.58187 0.14781 0.42519 0.0
H59 H 0.52102 0.16179 0.49911 0.0
H60 H 0.49324 0.09465 0.51286 0.0
H61 H 0.49089 0.02368 0.439 0.0
H62 H 0.57909 0.0862 0.51897 0.0
H63 H 0.61169 0.13212 0.56 0.0
H64 H 0.50905 0.08066 0.61301 0.0
H65 H 0.47616 0.03545 0.57122 0.0
C66 C 0.44671 0.92291 0.50828 0.0
C67 C 0.40754 0.90317 0.50472 0.0
C68 C 0.38569 0.86513 0.51371 0.0
C69 C 0.40274 0.84606 0.52594 0.0
C70 C 0.44207 0.86568 0.52893 0.0
C71 C 0.46387 0.904 0.52049 0.0
C72 C 0.46941 0.96357 0.49974 0.0
C73 C 0.48652 0.9908 0.5231 0.0
C74 C 0.472 0.97551 0.46897 0.0
C75 C 0.45686 0.94787 0.44314 0.0
C76 C 0.43191 0.94876 0.42196 0.0
C77 C 0.41823 0.92335 0.3973 0.0
C78 C 0.42924 0.89646 0.39319 0.0
C79 C 0.45445 0.89579 0.41435 0.0
C80 C 0.46817 0.92128 0.43901 0.0
C81 C 0.52283 0.08283 0.47774 0.0
C82 C 0.54785 0.09846 0.45289 0.0
C83 C 0.56283 0.13647 0.44455 0.0
C84 C 0.55354 0.15973 0.4612 0.0
C85 C 0.52889 0.14441 0.48622 0.0
C86 C 0.5132 0.10613 0.49413 0.0
C87 C 0.50609 0.04199 0.48594 0.0
C88 C 0.48982 0.01456 0.46254 0.0
C89 C 0.50533 0.02992 0.51657 0.0
C90 C 0.5251 0.05748 0.54189 0.0
C91 C 0.56348 0.08498 0.53929 0.0
C92 C 0.58216 0.11107 0.5629 0.0
C93 C 0.56301 0.11003 0.58987 0.0
C94 C 0.52452 0.08253 0.59242 0.0
C95 C 0.50579 0.0564 0.56871 0.0
H96 H 0.52015 0.54809 0.70535 0.0
H97 H 0.51151 0.5823 0.74703 0.0
H98 H 0.39624 0.49 0.75722 0.0
H99 H 0.40486 0.45715 0.71391 0.0
H100 H 0.49916 0.46198 0.71002 0.0
H101 H 0.47539 0.55353 0.65472 0.0
H102 H 0.43641 0.5807 0.64385 0.0
H103 H 0.34311 0.46857 0.62183 0.0
H104 H 0.38276 0.44186 0.6321 0.0
H105 H 0.44448 0.39952 0.58551 0.0
H106 H 0.46614 0.38063 0.54066 0.0
H107 H 0.57998 0.44387 0.57513 0.0
H108 H 0.5584 0.46427 0.61909 0.0
H109 H 0.45543 0.4631 0.60429 0.0
H110 H 0.47019 0.36886 0.65323 0.0
H111 H 0.49873 0.33155 0.6674 0.0
H112 H 0.59403 0.43236 0.70554 0.0
H113 H 0.56522 0.46949 0.6916 0.0
C114 C 0.46322 0.50012 0.70671 0.0
C115 C 0.49303 0.53533 0.71658 0.0
C116 C 0.48802 0.55469 0.74068 0.0
C117 C 0.45325 0.53882 0.75607 0.0
C118 C 0.42329 0.50342 0.74589 0.0
C119 C 0.4282 0.48438 0.72129 0.0
C120 C 0.46925 0.48008 0.68116 0.0
C121 C 0.48988 0.46236 0.68683 0.0
C122 C 0.45538 0.47895 0.65134 0.0
C123 C 0.43187 0.49563 0.64451 0.0
C124 C 0.44648 0.53481 0.64771 0.0
C125 C 0.42403 0.55026 0.64158 0.0
C126 C 0.38638 0.52684 0.63215 0.0
C127 C 0.372 0.48758 0.6287 0.0
C128 C 0.39458 0.4722 0.63469 0.0
C129 C 0.49961 0.43289 0.60605 0.0
C130 C 0.47412 0.40939 0.58342 0.0
C131 C 0.48657 0.39834 0.55785 0.0
C132 C 0.52486 0.41047 0.55427 0.0
C133 C 0.55038 0.43418 0.57691 0.0
C134 C 0.53792 0.4454 0.60239 0.0
C135 C 0.48664 0.44586 0.63275 0.0
C136 C 0.46454 0.4622 0.62743 0.0
C137 C 0.4978 0.44427 0.66318 0.0
C138 C 0.51569 0.42203 0.67117 0.0
C139 C 0.4973 0.38295 0.66455 0.0
C140 C 0.51346 0.36161 0.67284 0.0
C141 C 0.54859 0.37905 0.68756 0.0
C142 C 0.56705 0.41822 0.69403 0.0
C143 C 0.55058 0.43943 0.68619 0.0
H144 H 0.04491 0.53735 0.77479 0.0
H145 H 0.08819 0.56813 0.73223 0.0
H146 H 0.14012 0.50239 0.75145 0.0
H147 H 0.09543 0.47041 0.79371 0.0
H148 H 0.99279 0.46501 0.78652 0.0
H149 H 0.1145 0.55833 0.82693 0.0
H150 H 0.18099 0.58404 0.83499 0.0
H151 H 0.15508 0.48704 0.892 0.0
H152 H 0.08869 0.45935 0.88045 0.0
H153 H 0.98534 0.41398 0.91278 0.0
H154 H 0.94244 0.39397 0.95638 0.0
H155 H 0.89493 0.45831 0.92078 0.0
H156 H 0.93925 0.47971 0.87793 0.0
H157 H 0.04006 0.47878 0.89301 0.0
H158 H 0.9214 0.3843 0.85386 0.0
H159 H 0.85501 0.34992 0.83865 0.0
H160 H 0.87531 0.44385 0.7808 0.0
H161 H 0.94133 0.47913 0.79696 0.0
C162 C 0.06721 0.50194 0.78776 0.0
C163 C 0.06527 0.52914 0.76967 0.0
C164 C 0.09033 0.54702 0.7455 0.0
C165 C 0.1181 0.53824 0.73878 0.0
C166 C 0.11908 0.5098 0.75606 0.0
C167 C 0.09375 0.49171 0.78032 0.0
C168 C 0.04193 0.48568 0.81481 0.0
C169 C 1.00309 0.46833 0.80988 0.0
C170 C 0.05553 0.48871 0.84519 0.0
C171 C 0.09635 0.50622 0.85222 0.0
C172 C 0.12312 0.54208 0.84054 0.0
C173 C 0.16145 0.55723 0.84581 0.0
C174 C 0.17415 0.53786 0.86426 0.0
C175 C 0.14701 0.50259 0.87699 0.0
C176 C 0.10871 0.48688 0.87081 0.0
C177 C 0.96529 0.44796 0.89176 0.0
C178 C 0.96595 0.42409 0.91448 0.0
C179 C 0.94104 0.41232 0.93927 0.0
C180 C 0.91477 0.42409 0.94197 0.0
C181 C 0.91481 0.44879 0.91958 0.0
C182 C 0.93991 0.46074 0.89485 0.0
C183 C 0.99085 0.4591 0.86474 0.0
C184 C 0.02968 0.47533 0.86968 0.0
C185 C 0.97729 0.45463 0.83427 0.0
C186 C 0.93646 0.43458 0.82683 0.0
C187 C 0.91147 0.39805 0.83859 0.0
C188 C 0.87363 0.37834 0.82986 0.0
C189 C 0.86039 0.39454 0.80881 0.0
C190 C 0.88507 0.43107 0.79726 0.0
C191 C 0.92273 0.45103 0.80634 0.0
H192 H 0.63156 0.08255 0.0306 0.0
H193 H 0.66988 0.14897 0.04607 0.0
H194 H 0.58775 0.17148 0.00666 0.0
H195 H 0.55035 0.10502 0.99012 0.0
H196 H 0.55513 0.02928 0.04695 0.0
H197 H 0.63135 0.09281 0.95729 0.0
H198 H 0.6554 0.138 0.91482 0.0
H199 H 0.54272 0.08857 0.87886 0.0
H200 H 0.51862 0.04449 0.92231 0.0
H201 H 0.46127 0.92592 0.95139 0.0
H202 H 0.43446 0.85878 0.93723 0.0
H203 H 0.52617 0.85828 0.98324 0.0
H204 H 0.55236 0.92497 0.99796 0.0
H205 H 0.53423 0.98967 0.93765 0.0
H206 H 0.45601 0.92712 0.02013 0.0
H207 H 0.42397 0.88195 0.06154 0.0
H208 H 0.5289 0.92866 0.11085 0.0
H209 H 0.56137 0.97308 0.06838 0.0
C210 C 0.58817 0.08893 0.00928 0.0
C211 C 0.62187 0.10185 0.02531 0.0
C212 C 0.64364 0.13986 0.03426 0.0
C213 C 0.63185 0.16571 0.02788 0.0
C214 C 0.59801 0.1526 0.01165 0.0
C215 C 0.57643 0.11456 1.00236 0.0
C216 C 0.56553 0.04848 0.99998 0.0
C217 C 0.55093 0.02056 0.02308 0.0
C218 C 0.55841 0.03736 0.96878 0.0
C219 C 0.57308 0.0655 0.94326 0.0
C220 C 0.6117 0.09213 0.94061 0.0
C221 C 0.62548 0.1177 0.91604 0.0
C222 C 0.60104 0.11691 0.89327 0.0
C223 C 0.56231 0.09037 0.89613 0.0
C224 C 0.54852 0.06489 0.92082 0.0
C225 C 0.50867 0.93025 0.97577 0.0
C226 C 0.4755 0.91127 0.95844 0.0
C227 C 0.46017 0.87301 0.95054 0.0
C228 C 0.47835 0.85357 0.9592 0.0
C229 C 0.51176 0.87276 0.97624 0.0
C230 C 0.52663 0.91071 0.98468 0.0
C231 C 0.52498 0.97058 0.98462 0.0
C232 C 0.53827 0.99841 0.96152 0.0
C233 C 0.53002 0.98168 0.0158 0.0
C234 C 0.51125 0.95332 0.04087 0.0
C235 C 0.47239 0.92722 0.0395 0.0
C236 C 0.45396 0.90166 0.06345 0.0
C237 C 0.47379 0.90185 0.08968 0.0
C238 C 0.51285 0.92756 0.09088 0.0
C239 C 0.53138 0.95317 0.06674 0.0
H240 H 0.51344 0.47879 0.21827 0.0
H241 H 0.5232 0.44432 0.25917 0.0
H242 H 0.64301 0.51044 0.24318 0.0
H243 H 0.63308 0.546 0.20281 0.0
H244 H 0.53674 0.55324 0.21096 0.0
H245 H 0.55798 0.45987 0.15616 0.0
H246 H 0.59652 0.43235 0.14454 0.0
H247 H 0.68808 0.54346 0.11775 0.0
H248 H 0.64877 0.57037 0.12852 0.0
H249 H 0.58618 0.61361 0.08602 0.0
H250 H 0.56316 0.63268 0.04214 0.0
H251 H 0.44994 0.56684 0.07753 0.0
H252 H 0.47299 0.54665 0.12078 0.0
H253 H 0.57534 0.54874 0.10406 0.0
H254 H 0.56258 0.6442 0.15342 0.0
H255 H 0.53383 0.68129 0.16763 0.0
H256 H 0.43983 0.58078 0.20749 0.0
H257 H 0.46889 0.54386 0.19352 0.0
C258 C 0.57243 0.51467 0.20715 0.0
C259 C 0.54186 0.48614 0.2237 0.0
C260 C 0.54749 0.46617 0.24691 0.0
C261 C 0.58387 0.47421 0.25419 0.0
C262 C 0.61465 0.50357 0.23819 0.0
C263 C 0.60897 0.52368 0.21492 0.0
C264 C 0.5654 0.53414 0.18151 0.0
C265 C 0.5449 0.55197 0.18754 0.0
C266 C 0.57771 0.53428 0.15116 0.0
C267 C 0.60061 0.51719 0.14338 0.0
C268 C 0.58634 0.47822 0.14772 0.0
C269 C 0.60858 0.46262 0.14126 0.0
C270 C 0.64568 0.48569 0.1304 0.0
C271 C 0.6596 0.52468 0.1257 0.0
C272 C 0.63722 0.54018 0.13196 0.0
C273 C 0.53149 0.57912 0.10702 0.0
C274 C 0.5564 0.60321 0.08434 0.0
C275 C 0.54317 0.61433 0.05935 0.0
C276 C 0.50467 0.60157 0.05639 0.0
C277 C 0.47969 0.57706 0.07896 0.0
C278 C 0.49295 0.5659 0.10395 0.0
C279 C 0.54545 0.56666 0.13334 0.0
C280 C 0.56735 0.55028 0.12747 0.0
C281 C 0.53565 0.56909 0.16401 0.0
C282 C 0.51775 0.59121 0.17225 0.0
C283 C 0.53573 0.63014 0.16516 0.0
C284 C 0.51944 0.65135 0.17345 0.0
C285 C 0.48462 0.6339 0.18864 0.0
C286 C 0.46658 0.59489 0.19561 0.0
C287 C 0.48319 0.57382 0.18776 0.0
Co288 Co 0.63793 0.37476 0.40433 0.0
O289 O 0.6763 0.37524 0.37937 0.0
O290 O 0.68566 0.42198 0.41042 0.0
C291 C 0.61509 0.31495 0.42175 0.0
O292 O 0.60546 0.38288 0.43521 0.0
Co293 Co 0.5537 0.31701 0.39179 0.0
O294 O 0.54705 0.33151 0.43366 0.0
C295 C 0.59535 0.38408 0.35141 0.0
C296 C 0.6996 0.40805 0.39137 0.0
C297 C 0.57197 0.36237 0.44629 0.0
O298 O 0.62384 0.39813 0.36972 0.0
O299 O 0.56618 0.35095 0.3551 0.0
O300 O 0.64412 0.3434 0.4348 0.0
O301 O 0.6026 0.32316 0.39769 0.0
Co302 Co 0.27445 0.63247 0.58886 0.0
O303 O 0.31049 0.631 0.61572 0.0
O304 O 0.27339 0.58498 0.58365 0.0
C305 C 0.31364 0.69206 0.57126 0.0
O306 O 0.23511 0.62471 0.55662 0.0
Co307 Co 0.24968 0.69127 0.59925 0.0
O308 O 0.22797 0.6754 0.5576 0.0
C309 C 0.22134 0.62459 0.6403 0.0
C310 C 0.30011 0.59796 0.60403 0.0
C311 C 0.22195 0.64457 0.54532 0.0
O312 O 0.23496 0.60969 0.62237 0.0
O313 O 0.22702 0.65807 0.63627 0.0
O314 O 0.31442 0.66344 0.55943 0.0
O315 O 0.29184 0.68417 0.59468 0.0
Co316 Co 0.6523 0.26804 0.74011 0.0
O317 O 0.65305 0.3051 0.71254 0.0
O318 O 0.60545 0.26764 0.74294 0.0
C319 C 0.71044 0.30709 0.75937 0.0
O320 O 0.6422 0.22808 0.77291 0.0
Co321 Co 0.70979 0.24168 0.73347 0.0
O322 O 0.6913 0.21937 0.77467 0.0
C323 C 0.64555 0.2123 0.69057 0.0
C324 C 0.61985 0.29495 0.72276 0.0
C325 C 0.66046 0.21401 0.78554 0.0
O326 O 0.63106 0.22805 0.70652 0.0
O327 O 0.67787 0.21697 0.69637 0.0
O328 O 0.68182 0.30808 0.77019 0.0
O329 O 0.70348 0.28499 0.73611 0.0
Co330 Co 0.39468 0.63811 0.90372 0.0
O331 O 0.35777 0.63755 0.87674 0.0
O332 O 0.34663 0.59115 0.90893 0.0
C333 C 0.41684 0.69803 0.92051 0.0
O334 O 0.42523 0.62999 0.93667 0.0
Co335 Co 0.47978 0.69507 0.89408 0.0
O336 O 0.48343 0.68171 0.93702 0.0
C337 C 0.44101 0.6259 0.85559 0.0
C338 C 0.33374 0.60498 0.88879 0.0
C339 C 0.45793 0.65077 0.9491 0.0
O340 O 0.41031 0.61408 0.87081 0.0
O341 O 0.47102 0.65801 0.86048 0.0
O342 O 0.38671 0.66973 0.93247 0.0
O343 O 0.43089 0.68971 0.8975 0.0
Co344 Co 0.75895 0.38095 0.08884 0.0
O345 O 0.72247 0.3823 0.1152 0.0
O346 O 0.75965 0.42818 0.08303 0.0
C347 C 0.72001 0.32107 0.07172 0.0
O348 O 0.7987 0.38886 0.05703 0.0
Co349 Co 0.78407 0.32263 0.09973 0.0
O350 O 0.80618 0.33842 0.05816 0.0
C351 C 0.81163 0.38936 0.14071 0.0
C352 C 0.73273 0.41519 0.10324 0.0
C353 C 0.81214 0.36922 0.04584 0.0
O354 O 0.79802 0.40414 0.12263 0.0
O355 O 0.80623 0.35598 0.13673 0.0
O356 O 0.71948 0.34949 0.05918 0.0
O357 O 0.74169 0.32939 0.09526 0.0
Co358 Co 0.381 0.74508 0.24047 0.0
O359 O 0.38033 0.70825 0.21271 0.0
O360 O 0.42749 0.74495 0.24377 0.0
C361 C 0.32244 0.70637 0.25917 0.0
O362 O 0.39087 0.78465 0.27358 0.0
Co363 Co 0.32456 0.77275 0.2334 0.0
O364 O 0.34102 0.79214 0.27563 0.0
C365 C 0.38979 0.80229 0.19145 0.0
C366 C 0.41326 0.71796 0.22333 0.0
C367 C 0.37181 0.79755 0.28665 0.0
O368 O 0.40333 0.7856 0.20733 0.0
O369 O 0.35767 0.7983 0.19699 0.0
O370 O 0.35063 0.70456 0.26993 0.0
O371 O 0.33003 0.72891 0.23609 0.0
C372 C 0.23923 0.63721 0.30806 0.0
C373 C 0.21103 0.64327 0.29702 0.0
H374 H 0.29708 0.65303 0.30504 0.0
C375 C 0.21968 0.67037 0.27396 0.0
H376 H 0.23299 0.61639 0.32591 0.0
C377 C 0.25594 0.69088 0.26177 0.0
C378 C 0.28436 0.68499 0.27271 0.0
H379 H 0.19818 0.67523 0.26504 0.0
H380 H 0.26162 0.71127 0.24369 0.0
C381 C 0.27575 0.65816 0.29616 0.0
C382 C 0.58967 0.2297 0.47213 0.0
C383 C 0.56858 0.19957 0.45169 0.0
H384 H 0.62158 0.29027 0.47848 0.0
C385 C 0.56211 0.20757 0.42181 0.0
H386 H 0.59499 0.22407 0.49529 0.0
C387 C 0.57653 0.24512 0.41244 0.0
C388 C 0.5984 0.2754 0.43257 0.0
H389 H 0.54573 0.1847 0.40575 0.0
H390 H 0.5712 0.25045 0.38919 0.0
C391 C 0.60488 0.26742 0.46252 0.0
C392 C 0.36592 0.5735 0.64391 0.0
C393 C 0.36243 0.54344 0.62585 0.0
H394 H 0.34892 0.61395 0.65131 0.0
C395 C 0.33642 0.53 0.60146 0.0
H396 H 0.38495 0.5841 0.66329 0.0
C397 C 0.31519 0.5468 0.5949 0.0
C398 C 0.31968 0.57759 0.61243 0.0
H399 H 0.33319 0.50718 0.58683 0.0
H400 H 0.29609 0.53639 0.57555 0.0
C401 C 0.34497 0.59045 0.6372 0.0
C402 C 0.8159 0.35602 0.76741 0.0
C403 C 0.82181 0.37211 0.79673 0.0
H404 H 0.77587 0.32244 0.73281 0.0
C405 C 0.79097 0.3667 0.81407 0.0
H406 H 0.83943 0.35992 0.75375 0.0
C407 C 0.75454 0.34571 0.80195 0.0
C408 C 0.74856 0.32937 0.77259 0.0
H409 H 0.79514 0.37897 0.83678 0.0
H410 H 0.7311 0.34203 0.81561 0.0
C411 C 0.77959 0.33458 0.75554 0.0
C412 C 0.42557 0.78573 0.95719 0.0
C413 C 0.46285 0.81349 0.95008 0.0
H414 H 0.382 0.72706 0.95394 0.0
C415 C 0.48527 0.80286 0.93397 0.0
H416 H 0.40787 0.79329 0.96977 0.0
C417 C 0.47037 0.76523 0.92449 0.0
C418 C 0.43306 0.73743 0.93155 0.0
H419 H 0.51408 0.82386 0.92817 0.0
H420 H 0.48805 0.75791 0.91164 0.0
C421 C 0.41091 0.74791 0.94831 0.0
C422 C 0.69489 0.48175 0.09922 0.0
C423 C 0.66965 0.4691 0.12415 0.0
H424 H 0.73492 0.47498 0.0732 0.0
C425 C 0.66715 0.44001 0.14295 0.0
H426 H 0.69736 0.50378 0.084 0.0
C427 C 0.6883 0.42325 0.13648 0.0
C428 C 0.71289 0.43537 0.11125 0.0
H429 H 0.64879 0.43009 0.16277 0.0
H430 H 0.68514 0.4005 0.15119 0.0
C431 C 0.7164 0.46519 0.09293 0.0
C432 C 0.34936 0.79615 0.55691 0.0
C433 C 0.37938 0.80626 0.53668 0.0
H434 H 0.30534 0.75224 0.58394 0.0
C435 C 0.3872 0.77834 0.52729 0.0
H436 H 0.34294 0.81724 0.56467 0.0
C437 C 0.36532 0.74092 0.53798 0.0
C438 C 0.33573 0.73101 0.55869 0.0
H439 H 0.41011 0.78544 0.51156 0.0
H440 H 0.37199 0.71993 0.53046 0.0
C441 C 0.32795 0.75899 0.56801 0.0
C442 C 0.60391 0.37028 0.68848 0.0
C443 C 0.56618 0.35664 0.69593 0.0
H444 H 0.6501 0.36123 0.69067 0.0
C445 C 0.54566 0.3218 0.71163 0.0
H446 H 0.6203 0.39683 0.67615 0.0
C447 C 0.56285 0.30144 0.72027 0.0
C448 C 0.60069 0.31525 0.7129 0.0
H449 H 0.51655 0.3107 0.71778 0.0
H450 H 0.54658 0.27502 0.73277 0.0
C451 C 0.62088 0.34971 0.69666 0.0
C452 C 0.23043 0.5314 0.87662 0.0
C453 C 0.21531 0.55464 0.87046 0.0
H454 H 0.2796 0.52898 0.88774 0.0
C455 C 0.24006 0.59438 0.87035 0.0
H456 H 0.21282 0.50072 0.87636 0.0
C457 C 0.27846 0.61025 0.87555 0.0
C458 C 0.29321 0.58705 0.88205 0.0
H459 H 0.22995 0.61363 0.86679 0.0
H460 H 0.29653 0.64095 0.87533 0.0
C461 C 0.26886 0.54749 0.88284 0.0
C462 C 0.65775 0.23612 0.02108 0.0
C463 C 0.65444 0.20583 0.0388 0.0
H464 H 0.68107 0.2964 0.01757 0.0
C465 C 0.67293 0.21412 0.06731 0.0
H466 H 0.64433 0.23092 0.99885 0.0
C467 C 0.69444 0.25156 0.07767 0.0
C468 C 0.69762 0.2817 0.06005 0.0
H469 H 0.67043 0.19162 0.08195 0.0
H470 H 0.70819 0.25679 0.09977 0.0
C471 C 0.67899 0.27367 0.03168 0.0
C472 C 0.48748 0.69124 0.21233 0.0
C473 C 0.46691 0.65618 0.19696 0.0
H474 H 0.48659 0.73821 0.23307 0.0
C475 C 0.42907 0.64228 0.18973 0.0
H476 H 0.51667 0.70252 0.2183 0.0
C477 C 0.41207 0.66286 0.19775 0.0
C478 C 0.43235 0.69756 0.21363 0.0
H479 H 0.41265 0.61554 0.17766 0.0
H480 H 0.38278 0.65119 0.19193 0.0
C481 C 0.47026 0.71158 0.22084 0.0
C482 C 0.8027 0.48248 0.37886 0.0
C483 C 0.81823 0.45951 0.37312 0.0
H484 H 0.75312 0.48435 0.38965 0.0
C485 C 0.79399 0.41972 0.37402 0.0
H486 H 0.81996 0.51317 0.37793 0.0
C487 C 0.75561 0.4035 0.37952 0.0
C488 C 0.74035 0.42641 0.3853 0.0
H489 H 0.8045 0.40074 0.37086 0.0
H490 H 0.73791 0.37276 0.37987 0.0
C491 C 0.76426 0.46606 0.38534 0.0
C492 C 0.16368 0.64239 0.47749 0.0
C493 C 0.14696 0.60461 0.46726 0.0
H494 H 0.20037 0.68453 0.50961 0.0
C495 C 0.15665 0.58033 0.48204 0.0
H496 H 0.15771 0.66221 0.46625 0.0
C497 C 0.1817 0.59334 0.50692 0.0
C498 C 0.19747 0.63086 0.51765 0.0
H499 H 0.14416 0.55098 0.47491 0.0
H500 H 0.18796 0.57374 0.51819 0.0
C501 C 0.18844 0.65528 0.50233 0.0
C502 C 0.56782 0.15398 0.63262 0.0
C503 C 0.58371 0.13658 0.61561 0.0
H504 H 0.57483 0.19183 0.66947 0.0
C505 C 0.61981 0.14448 0.62347 0.0
H506 H 0.54015 0.14869 0.627 0.0
C507 C 0.63965 0.16917 0.64753 0.0
C508 C 0.62399 0.18672 0.66461 0.0
H509 H 0.63266 0.13109 0.61128 0.0
H510 H 0.66732 0.17421 0.6528 0.0
C511 C 0.5878 0.17886 0.65684 0.0
C512 C 0.4145 0.55732 0.78861 0.0
C513 C 0.4488 0.55919 0.78272 0.0
H514 H 0.38489 0.57656 0.81657 0.0
C515 C 0.47942 0.58148 0.8023 0.0
H516 H 0.39032 0.54082 0.77399 0.0
C517 C 0.47649 0.60261 0.82602 0.0
C518 C 0.4426 0.60138 0.83145 0.0
H519 H 0.50593 0.58278 0.79938 0.0
H520 H 0.50091 0.61995 0.84025 0.0
C521 C 0.41134 0.57792 0.81294 0.0
C522 C 0.87708 0.43394 0.98259 0.0
C523 C 0.88719 0.41001 0.9678 0.0
H524 H 0.84544 0.43999 0.01873 0.0
C525 C 0.87097 0.37228 0.97809 0.0
H526 H 0.88917 0.46324 0.97543 0.0
C527 C 0.84626 0.35912 1.00298 0.0
C528 C 0.83676 0.38319 0.01827 0.0
H529 H 0.87728 0.35271 0.96685 0.0
H530 H 0.8347 0.32994 0.01031 0.0
C531 C 0.85207 0.42065 0.0075 0.0
C532 C 0.41836 0.87153 0.12504 0.0
C533 C 0.45312 0.87657 0.11612 0.0
H534 H 0.37148 0.84459 0.15534 0.0
C535 C 0.4675 0.85734 0.13257 0.0
H536 H 0.40677 0.88649 0.11337 0.0
C537 C 0.44716 0.83315 0.15708 0.0
C538 C 0.4121 0.82785 0.16568 0.0
H539 H 0.49414 0.86049 0.12619 0.0
H540 H 0.45881 0.81851 0.16913 0.0
C541 C 0.39815 0.84754 0.14935 0.0
C542 C 0.61833 0.46833 0.29971 0.0
C543 C 0.58911 0.45127 0.27798 0.0
H544 H 0.64342 0.46064 0.34003 0.0
C545 C 0.56385 0.41182 0.27957 0.0
H546 H 0.63823 0.49869 0.29918 0.0
C547 C 0.56667 0.39019 0.3029 0.0
C548 C 0.59496 0.40728 0.32535 0.0
H549 H 0.54159 0.39755 0.26279 0.0
H550 H 0.5462 0.35996 0.30347 0.0
C551 C 0.62125 0.44654 0.32317 0.0
C552 C 0.37672 0.85316 0.35774 0.0
C553 C 0.41438 0.8694 0.36686 0.0
H554 H 0.33386 0.8178 0.32574 0.0
C555 C 0.43768 0.8602 0.35021 0.0
H556 H 0.35773 0.85885 0.3704 0.0
C557 C 0.42382 0.83616 0.32456 0.0
C558 C 0.38642 0.82094 0.31495 0.0
H559 H 0.46691 0.8724 0.35646 0.0
H560 H 0.44267 0.8303 0.31185 0.0
C561 C 0.36298 0.82939 0.33214 0.0
C562 C 0.51566 0.36125 0.51528 0.0
C563 C 0.53791 0.39824 0.52708 0.0
H564 H 0.50886 0.32107 0.48101 0.0
C565 C 0.57235 0.42327 0.51249 0.0
H566 H 0.48943 0.34087 0.52623 0.0
C567 C 0.58385 0.4117 0.48652 0.0
C568 C 0.56108 0.37491 0.47444 0.0
H569 H 0.59011 0.45211 0.52073 0.0
H570 H 0.61025 0.43179 0.47564 0.0
C571 C 0.52699 0.34981 0.48934 0.0
C572 C 0.16197 0.59948 0.71219 0.0
C573 C 0.1465 0.56003 0.71455 0.0
H574 H 0.19752 0.65049 0.6874 0.0
C575 C 0.15768 0.54199 0.69325 0.0
H576 H 0.15476 0.61448 0.72864 0.0
C577 C 0.18271 0.56288 0.66942 0.0
C578 C 0.19699 0.60218 0.66649 0.0
H579 H 0.14623 0.5116 0.69445 0.0
H580 H 0.19009 0.5481 0.65292 0.0
C581 C 0.18672 0.62021 0.68852 0.0
C582 C 0.64975 0.14956 0.85216 0.0
C583 C 0.61619 0.14246 0.866 0.0
H584 H 0.68983 0.17735 0.81636 0.0
C585 C 0.59717 0.15936 0.85322 0.0
H586 H 0.66482 0.13652 0.86094 0.0
C587 C 0.61143 0.18276 0.82721 0.0
C588 C 0.64502 0.18974 0.81339 0.0
H589 H 0.57141 0.15479 0.86346 0.0
H590 H 0.59612 0.19532 0.81797 0.0
C591 C 0.66398 0.17287 0.82633 0.0
C592 C 0.45717 0.58885 0.01466 0.0
C593 C 0.49096 0.61417 0.02993 0.0
H594 H 0.42001 0.58035 0.97718 0.0
C595 C 0.51225 0.65183 0.01935 0.0
H596 H 0.44014 0.55956 0.02211 0.0
C597 C 0.50089 0.66359 0.99365 0.0
C598 C 0.46776 0.63812 0.97774 0.0
H599 H 0.5379 0.67237 0.03092 0.0
H600 H 0.51844 0.6928 0.98612 0.0
C601 C 0.44565 0.60072 0.98885 0.0
C602 C 0.87511 0.47192 0.19375 0.0
C603 C 0.88592 0.45375 0.21524 0.0
H604 H 0.84313 0.46595 0.15315 0.0
C605 C 0.87015 0.41424 0.21304 0.0
H606 H 0.88679 0.50235 0.19484 0.0
C607 C 0.84551 0.39359 0.18931 0.0
C608 C 0.83566 0.41173 0.16705 0.0
H609 H 0.87706 0.39917 0.22964 0.0
H610 H 0.8345 0.36326 0.18831 0.0
C611 C 0.85019 0.45109 0.16984 0.0
loop_
_geom_bond_atom_site_label_1
_geom_bond_atom_site_label_2
_geom_bond_distance
_geom_bond_site_symmetry_2
_ccdc_geom_bond_type
H0 C19 0.949 . S
H1 C20 0.950 . S
H2 C22 0.950 . S
H3 C23 0.950 . S
H4 C25 0.950 . S
H5 C28 0.950 . S
H6 C29 0.950 . S
H7 C31 0.951 . S
H8 C32 0.949 . S
H9 C34 0.949 . S
H10 C35 0.950 . S
H11 C37 0.950 . S
H12 C38 0.950 . S
H13 C40 0.950 1_655 S
H14 C43 0.950 . S
H15 C44 0.950 . S
H16 C46 0.951 . S
H17 C47 0.949 . S
C18 C19 1.376 . S
C18 C23 1.386 . S
C18 C24 1.483 . S
C19 H0 0.949 . S
C19 C18 1.376 . S
C19 C20 1.397 . S
C20 H1 0.950 . S
C20 C19 1.397 . S
C20 C21 1.391 . S
C21 C20 1.391 . S
C21 C22 1.405 . S
C22 H2 0.950 . S
C22 C21 1.405 . S
C22 C23 1.367 . S
C23 H3 0.950 . S
C23 C18 1.386 . S
C23 C22 1.367 . S
C24 C18 1.483 . S
C24 C25 1.382 1_655 S
C24 C26 1.403 . S
C25 H4 0.950 . S
C25 C24 1.382 1_455 S
C25 C41 1.411 . S
C26 C24 1.403 . S
C26 C27 1.489 . S
C26 C40 1.411 1_655 S
C27 C26 1.489 . S
C27 C28 1.383 . S
C27 C32 1.382 . S
C28 H5 0.950 . S
C28 C27 1.383 . S
C28 C29 1.395 . S
C29 H6 0.950 . S
C29 C28 1.395 . S
C29 C30 1.288 . S
C30 C29 1.288 . S
C30 C31 1.392 . S
C31 H7 0.951 . S
C31 C30 1.392 . S
C31 C32 1.392 . S
C32 H8 0.949 . S
C32 C27 1.382 . S
C32 C31 1.392 . S
C33 C34 1.376 . S
C33 C38 1.386 . S
C33 C39 1.483 . S
C34 H9 0.949 . S
C34 C33 1.376 . S
C34 C35 1.397 . S
C35 H10 0.950 . S
C35 C34 1.397 . S
C35 C36 1.391 . S
C36 C35 1.391 . S
C36 C37 1.405 . S
C37 H11 0.950 . S
C37 C36 1.405 . S
C37 C38 1.367 . S
C38 H12 0.950 . S
C38 C33 1.386 . S
C38 C37 1.367 . S
C39 C33 1.483 . S
C39 C40 1.382 . S
C39 C41 1.403 . S
C40 H13 0.950 1_455 S
C40 C26 1.411 1_455 S
C40 C39 1.382 . S
C41 C25 1.411 . S
C41 C39 1.403 . S
C41 C42 1.489 . S
C42 C41 1.489 . S
C42 C43 1.383 . S
C42 C47 1.382 . S
C43 H14 0.950 . S
C43 C42 1.383 . S
C43 C44 1.395 . S
C44 H15 0.950 . S
C44 C43 1.395 . S
C44 C45 1.288 . S
C45 C44 1.288 . S
C45 C46 1.392 . S
C46 H16 0.951 . S
C46 C45 1.392 . S
C46 C47 1.392 . S
C47 H17 0.949 . S
C47 C42 1.382 . S
C47 C46 1.392 . S
H48 C67 0.949 . S
H49 C68 0.950 . S
H50 C70 0.950 . S
H51 C71 0.950 . S
H52 C73 0.950 . S
H53 C76 0.950 . S
H54 C77 0.950 . S
H55 C79 0.951 . S
H56 C80 0.949 . S
H57 C82 0.949 . S
H58 C83 0.950 . S
H59 C85 0.950 . S
H60 C86 0.950 . S
H61 C88 0.950 . S
H62 C91 0.950 . S
H63 C92 0.950 . S
H64 C94 0.951 . S
H65 C95 0.949 . S
C66 C67 1.376 . S
C66 C71 1.386 . S
C66 C72 1.483 . S
C67 H48 0.949 . S
C67 C66 1.376 . S
C67 C68 1.397 . S
C68 H49 0.950 . S
C68 C67 1.397 . S
C68 C69 1.391 . S
C69 C68 1.391 . S
C69 C70 1.405 . S
C70 H50 0.950 . S
C70 C69 1.405 . S
C70 C71 1.367 . S
C71 H51 0.950 . S
C71 C66 1.386 . S
C71 C70 1.367 . S
C72 C66 1.483 . S
C72 C73 1.382 . S
C72 C74 1.403 . S
C73 H52 0.950 . S
C73 C72 1.382 . S
C73 C89 1.411 1_565 S
C74 C72 1.403 . S
C74 C75 1.489 . S
C74 C88 1.411 1_565 S
C75 C74 1.489 . S
C75 C76 1.383 . S
C75 C80 1.382 . S
C76 H53 0.950 . S
C76 C75 1.383 . S
C76 C77 1.395 . S
C77 H54 0.950 . S
C77 C76 1.395 . S
C77 C78 1.288 . S
C78 C77 1.288 . S
C78 C79 1.392 . S
C79 H55 0.951 . S
C79 C78 1.392 . S
C79 C80 1.392 . S
C80 H56 0.949 . S
C80 C75 1.382 . S
C80 C79 1.392 . S
C81 C82 1.376 . S
C81 C86 1.386 . S
C81 C87 1.483 . S
C82 H57 0.949 . S
C82 C81 1.376 . S
C82 C83 1.397 . S
C83 H58 0.950 . S
C83 C82 1.397 . S
C83 C84 1.391 . S
C84 C83 1.391 . S
C84 C85 1.405 . S
C85 H59 0.950 . S
C85 C84 1.405 . S
C85 C86 1.367 . S
C86 H60 0.950 . S
C86 C81 1.386 . S
C86 C85 1.367 . S
C87 C81 1.483 . S
C87 C88 1.382 . S
C87 C89 1.403 . S
C88 H61 0.950 . S
C88 C74 1.411 1_545 S
C88 C87 1.382 . S
C89 C73 1.411 1_545 S
C89 C87 1.403 . S
C89 C90 1.489 . S
C90 C89 1.489 . S
C90 C91 1.383 . S
C90 C95 1.382 . S
C91 H62 0.950 . S
C91 C90 1.383 . S
C91 C92 1.395 . S
C92 H63 0.950 . S
C92 C91 1.395 . S
C92 C93 1.288 . S
C93 C92 1.288 . S
C93 C94 1.392 . S
C94 H64 0.951 . S
C94 C93 1.392 . S
C94 C95 1.392 . S
C95 H65 0.949 . S
C95 C90 1.382 . S
C95 C94 1.392 . S
H96 C115 0.949 . S
H97 C116 0.950 . S
H98 C118 0.950 . S
H99 C119 0.950 . S
H100 C121 0.950 . S
H101 C124 0.950 . S
H102 C125 0.950 . S
H103 C127 0.951 . S
H104 C128 0.949 . S
H105 C130 0.949 . S
H106 C131 0.950 . S
H107 C133 0.950 . S
H108 C134 0.950 . S
H109 C136 0.950 . S
H110 C139 0.950 . S
H111 C140 0.950 . S
H112 C142 0.951 . S
H113 C143 0.949 . S
C114 C115 1.376 . S
C114 C119 1.386 . S
C114 C120 1.483 . S
C115 H96 0.949 . S
C115 C114 1.376 . S
C115 C116 1.397 . S
C116 H97 0.950 . S
C116 C115 1.397 . S
C116 C117 1.391 . S
C117 C116 1.391 . S
C117 C118 1.405 . S
C118 H98 0.950 . S
C118 C117 1.405 . S
C118 C119 1.367 . S
C119 H99 0.950 . S
C119 C114 1.386 . S
C119 C118 1.367 . S
C120 C114 1.483 . S
C120 C121 1.382 . S
C120 C122 1.403 . S
C121 H100 0.950 . S
C121 C120 1.382 . S
C121 C137 1.411 . S
C122 C120 1.403 . S
C122 C123 1.489 . S
C122 C136 1.411 . S
C123 C122 1.489 . S
C123 C124 1.383 . S
C123 C128 1.382 . S
C124 H101 0.950 . S
C124 C123 1.383 . S
C124 C125 1.395 . S
C125 H102 0.950 . S
C125 C124 1.395 . S
C125 C126 1.288 . S
C126 C125 1.288 . S
C126 C127 1.392 . S
C127 H103 0.951 . S
C127 C126 1.392 . S
C127 C128 1.392 . S
C128 H104 0.949 . S
C128 C123 1.382 . S
C128 C127 1.392 . S
C129 C130 1.376 . S
C129 C134 1.386 . S
C129 C135 1.483 . S
C130 H105 0.949 . S
C130 C129 1.376 . S
C130 C131 1.397 . S
C131 H106 0.950 . S
C131 C130 1.397 . S
C131 C132 1.391 . S
C132 C131 1.391 . S
C132 C133 1.405 . S
C133 H107 0.950 . S
C133 C132 1.405 . S
C133 C134 1.367 . S
C134 H108 0.950 . S
C134 C129 1.386 . S
C134 C133 1.367 . S
C135 C129 1.483 . S
C135 C136 1.382 . S
C135 C137 1.403 . S
C136 H109 0.950 . S
C136 C122 1.411 . S
C136 C135 1.382 . S
C137 C121 1.411 . S
C137 C135 1.403 . S
C137 C138 1.489 . S
C138 C137 1.489 . S
C138 C139 1.383 . S
C138 C143 1.382 . S
C139 H110 0.950 . S
C139 C138 1.383 . S
C139 C140 1.395 . S
C140 H111 0.950 . S
C140 C139 1.395 . S
C140 C141 1.288 . S
C141 C140 1.288 . S
C141 C142 1.392 . S
C142 H112 0.951 . S
C142 C141 1.392 . S
C142 C143 1.392 . S
C143 H113 0.949 . S
C143 C138 1.382 . S
C143 C142 1.392 . S
H144 C163 0.949 . S
H145 C164 0.950 . S
H146 C166 0.950 . S
H147 C167 0.950 . S
H148 C169 0.946 1_655 S
H149 C172 0.950 . S
H150 C173 0.950 . S
H151 C175 0.951 . S
H152 C176 0.949 . S
H153 C178 0.949 . S
H154 C179 0.950 . S
H155 C181 0.950 . S
H156 C182 0.950 . S
H157 C184 0.950 . S
H158 C187 0.950 . S
H159 C188 0.950 . S
H160 C190 0.951 . S
H161 C191 0.949 . S
C162 C163 1.376 . S
C162 C167 1.386 . S
C162 C168 1.483 . S
C163 H144 0.949 . S
C163 C162 1.376 . S
C163 C164 1.397 . S
C164 H145 0.950 . S
C164 C163 1.397 . S
C164 C165 1.391 . S
C165 C164 1.391 . S
C165 C166 1.405 . S
C166 H146 0.950 . S
C166 C165 1.405 . S
C166 C167 1.367 . S
C167 H147 0.950 . S
C167 C162 1.386 . S
C167 C166 1.367 . S
C168 C162 1.483 . S
C168 C169 1.393 . S
C168 C170 1.403 . S
C169 H148 0.946 1_455 S
C169 C168 1.393 . S
C169 C185 1.404 1_455 S
C170 C168 1.403 . S
C170 C171 1.489 . S
C170 C184 1.411 . S
C171 C170 1.489 . S
C171 C172 1.383 . S
C171 C176 1.382 . S
C172 H149 0.950 . S
C172 C171 1.383 . S
C172 C173 1.395 . S
C173 H150 0.950 . S
C173 C172 1.395 . S
C173 C174 1.288 . S
C174 C173 1.288 . S
C174 C175 1.392 . S
C175 H151 0.951 . S
C175 C174 1.392 . S
C175 C176 1.392 . S
C176 H152 0.949 . S
C176 C171 1.382 . S
C176 C175 1.392 . S
C177 C178 1.376 . S
C177 C182 1.386 . S
C177 C183 1.483 . S
C178 H153 0.949 . S
C178 C177 1.376 . S
C178 C179 1.397 . S
C179 H154 0.950 . S
C179 C178 1.397 . S
C179 C180 1.391 . S
C180 C179 1.391 . S
C180 C181 1.405 . S
C181 H155 0.950 . S
C181 C180 1.405 . S
C181 C182 1.367 . S
C182 H156 0.950 . S
C182 C177 1.386 . S
C182 C181 1.367 . S
C183 C177 1.483 . S
C183 C184 1.382 1_655 S
C183 C185 1.403 . S
C184 H157 0.950 . S
C184 C170 1.411 . S
C184 C183 1.382 1_455 S
C185 C169 1.404 1_655 S
C185 C183 1.403 . S
C185 C186 1.489 . S
C186 C185 1.489 . S
C186 C187 1.383 . S
C186 C191 1.382 . S
C187 H158 0.950 . S
C187 C186 1.383 . S
C187 C188 1.395 . S
C188 H159 0.950 . S
C188 C187 1.395 . S
C188 C189 1.288 . S
C189 C188 1.288 . S
C189 C190 1.392 . S
C190 H160 0.951 . S
C190 C189 1.392 . S
C190 C191 1.392 . S
C191 H161 0.949 . S
C191 C186 1.382 . S
C191 C190 1.392 . S
H192 C211 0.949 . S
H193 C212 0.950 . S
H194 C214 0.950 . S
H195 C215 0.950 1_556 S
H196 C217 0.950 . S
H197 C220 0.950 . S
H198 C221 0.950 . S
H199 C223 0.951 . S
H200 C224 0.949 . S
H201 C226 0.949 . S
H202 C227 0.950 . S
H203 C229 0.950 . S
H204 C230 0.971 . S
H205 C232 0.950 . S
H206 C235 0.950 . S
H207 C236 0.950 . S
H208 C238 0.951 . S
H209 C239 0.949 . S
C210 C211 1.376 . S
C210 C215 1.386 . S
C210 C216 1.481 1_554 S
C211 H192 0.949 . S
C211 C210 1.376 . S
C211 C212 1.397 . S
C212 H193 0.950 . S
C212 C211 1.397 . S
C212 C213 1.391 . S
C213 C212 1.391 . S
C213 C214 1.405 . S
C214 H194 0.950 . S
C214 C213 1.405 . S
C214 C215 1.367 . S
C215 H195 0.950 1_554 S
C215 C210 1.386 . S
C215 C214 1.367 . S
C216 C210 1.481 1_556 S
C216 C217 1.376 1_556 S
C216 C218 1.410 . S
C217 H196 0.950 . S
C217 C216 1.376 1_554 S
C217 C233 1.411 1_545 S
C218 C216 1.410 . S
C218 C219 1.489 . S
C218 C232 1.411 1_545 S
C219 C218 1.489 . S
C219 C220 1.383 . S
C219 C224 1.382 . S
C220 H197 0.950 . S
C220 C219 1.383 . S
C220 C221 1.395 . S
C221 H198 0.950 . S
C221 C220 1.395 . S
C221 C222 1.288 . S
C222 C221 1.288 . S
C222 C223 1.392 . S
C223 H199 0.951 . S
C223 C222 1.392 . S
C223 C224 1.392 . S
C224 H200 0.949 . S
C224 C219 1.382 . S
C224 C223 1.392 . S
C225 C226 1.376 . S
C225 C230 1.386 . S
C225 C231 1.483 . S
C226 H201 0.949 . S
C226 C225 1.376 . S
C226 C227 1.397 . S
C227 H202 0.950 . S
C227 C226 1.397 . S
C227 C228 1.391 . S
C228 C227 1.391 . S
C228 C229 1.405 . S
C229 H203 0.950 . S
C229 C228 1.405 . S
C229 C230 1.367 . S
C230 H204 0.971 . S
C230 C225 1.386 . S
C230 C229 1.367 . S
C231 C225 1.483 . S
C231 C232 1.382 . S
C231 C233 1.403 1_556 S
C232 H205 0.950 . S
C232 C218 1.411 1_565 S
C232 C231 1.382 . S
C233 C217 1.411 1_565 S
C233 C231 1.403 1_554 S
C233 C234 1.489 . S
C234 C233 1.489 . S
C234 C235 1.383 . S
C234 C239 1.382 . S
C235 H206 0.950 . S
C235 C234 1.383 . S
C235 C236 1.395 . S
C236 H207 0.950 . S
C236 C235 1.395 . S
C236 C237 1.288 . S
C237 C236 1.288 . S
C237 C238 1.392 . S
C238 H208 0.951 . S
C238 C237 1.392 . S
C238 C239 1.392 . S
C239 H209 0.949 . S
C239 C234 1.382 . S
C239 C238 1.392 . S
H240 C259 0.949 . S
H241 C260 0.950 . S
H242 C262 0.950 . S
H243 C263 0.950 . S
H244 C265 0.950 . S
H245 C268 0.950 . S
H246 C269 0.950 . S
H247 C271 0.951 . S
H248 C272 0.949 . S
H249 C274 0.949 . S
H250 C275 0.950 . S
H251 C277 0.950 . S
H252 C278 0.950 . S
H253 C280 0.950 . S
H254 C283 0.950 . S
H255 C284 0.950 . S
H256 C286 0.951 . S
H257 C287 0.949 . S
C258 C259 1.376 . S
C258 C263 1.386 . S
C258 C264 1.483 . S
C259 H240 0.949 . S
C259 C258 1.376 . S
C259 C260 1.397 . S
C260 H241 0.950 . S
C260 C259 1.397 . S
C260 C261 1.391 . S
C261 C260 1.391 . S
C261 C262 1.405 . S
C262 H242 0.950 . S
C262 C261 1.405 . S
C262 C263 1.367 . S
C263 H243 0.950 . S
C263 C258 1.386 . S
C263 C262 1.367 . S
C264 C258 1.483 . S
C264 C265 1.382 . S
C264 C266 1.403 . S
C265 H244 0.950 . S
C265 C264 1.382 . S
C265 C281 1.411 . S
C266 C264 1.403 . S
C266 C267 1.489 . S
C266 C280 1.411 . S
C267 C266 1.489 . S
C267 C268 1.383 . S
C267 C272 1.382 . S
C268 H245 0.950 . S
C268 C267 1.383 . S
C268 C269 1.395 . S
C269 H246 0.950 . S
C269 C268 1.395 . S
C269 C270 1.288 . S
C270 C269 1.288 . S
C270 C271 1.392 . S
C271 H247 0.951 . S
C271 C270 1.392 . S
C271 C272 1.392 . S
C272 H248 0.949 . S
C272 C267 1.382 . S
C272 C271 1.392 . S
C273 C274 1.376 . S
C273 C278 1.386 . S
C273 C279 1.483 . S
C274 H249 0.949 . S
C274 C273 1.376 . S
C274 C275 1.397 . S
C275 H250 0.950 . S
C275 C274 1.397 . S
C275 C276 1.391 . S
C276 C275 1.391 . S
C276 C277 1.405 . S
C277 H251 0.950 . S
C277 C276 1.405 . S
C277 C278 1.367 . S
C278 H252 0.950 . S
C278 C273 1.386 . S
C278 C277 1.367 . S
C279 C273 1.483 . S
C279 C280 1.382 . S
C279 C281 1.403 . S
C280 H253 0.950 . S
C280 C266 1.411 . S
C280 C279 1.382 . S
C281 C265 1.411 . S
C281 C279 1.403 . S
C281 C282 1.489 . S
C282 C281 1.489 . S
C282 C283 1.383 . S
C282 C287 1.382 . S
C283 H254 0.950 . S
C283 C282 1.383 . S
C283 C284 1.395 . S
C284 H255 0.950 . S
C284 C283 1.395 . S
C284 C285 1.288 . S
C285 C284 1.288 . S
C285 C286 1.392 . S
C286 H256 0.951 . S
C286 C285 1.392 . S
C286 C287 1.392 . S
C287 H257 0.949 . S
C287 C282 1.382 . S
C287 C286 1.392 . S
Co288 O289 2.216 . S
Co288 O290 2.091 . S
Co288 O292 2.004 . S
Co288 O298 2.021 . S
Co288 O300 2.137 . S
Co288 O301 2.244 . S
O289 Co288 2.216 . S
O289 C296 1.247 . S
O290 Co288 2.091 . S
O290 C296 1.261 . S
C291 O300 1.247 . S
C291 O301 1.272 . S
O292 Co288 2.004 . S
O292 C297 1.259 . S
Co293 O294 2.061 . S
Co293 O299 2.052 . S
Co293 O301 2.135 . S
O294 Co293 2.061 . S
O294 C297 1.235 . S
C295 O298 1.238 . S
C295 O299 1.241 . S
C296 O289 1.247 . S
C296 O290 1.261 . S
C297 O292 1.259 . S
C297 O294 1.235 . S
O298 Co288 2.021 . S
O298 C295 1.238 . S
O299 Co293 2.052 . S
O299 C295 1.241 . S
O300 Co288 2.137 . S
O300 C291 1.247 . S
O301 Co288 2.244 . S
O301 C291 1.272 . S
O301 Co293 2.135 . S
Co302 O303 2.216 . S
Co302 O304 2.091 . S
Co302 O306 2.004 . S
Co302 O312 2.021 . S
Co302 O314 2.137 . S
Co302 O315 2.244 . S
O303 Co302 2.216 . S
O303 C310 1.247 . S
O304 Co302 2.091 . S
O304 C310 1.261 . S
C305 O314 1.247 . S
C305 O315 1.272 . S
O306 Co302 2.004 . S
O306 C311 1.259 . S
Co307 O308 2.061 . S
Co307 O313 2.052 . S
Co307 O315 2.135 . S
O308 Co307 2.061 . S
O308 C311 1.235 . S
C309 O312 1.238 . S
C309 O313 1.241 . S
C310 O303 1.247 . S
C310 O304 1.261 . S
C311 O306 1.259 . S
C311 O308 1.235 . S
O312 Co302 2.021 . S
O312 C309 1.238 . S
O313 Co307 2.052 . S
O313 C309 1.241 . S
O314 Co302 2.137 . S
O314 C305 1.247 . S
O315 Co302 2.244 . S
O315 C305 1.272 . S
O315 Co307 2.135 . S
Co316 O317 2.216 . S
Co316 O318 2.091 . S
Co316 O320 2.004 . S
Co316 O326 2.021 . S
Co316 O328 2.137 . S
Co316 O329 2.244 . S
O317 Co316 2.216 . S
O317 C324 1.247 . S
O318 Co316 2.091 . S
O318 C324 1.261 . S
C319 O328 1.247 . S
C319 O329 1.272 . S
O320 Co316 2.004 . S
O320 C325 1.259 . S
Co321 O322 2.061 . S
Co321 O327 2.052 . S
Co321 O329 2.135 . S
O322 Co321 2.061 . S
O322 C325 1.235 . S
C323 O326 1.238 . S
C323 O327 1.241 . S
C324 O317 1.247 . S
C324 O318 1.261 . S
C325 O320 1.259 . S
C325 O322 1.235 . S
O326 Co316 2.021 . S
O326 C323 1.238 . S
O327 Co321 2.052 . S
O327 C323 1.241 . S
O328 Co316 2.137 . S
O328 C319 1.247 . S
O329 Co316 2.244 . S
O329 C319 1.272 . S
O329 Co321 2.135 . S
Co330 O331 2.216 . S
Co330 O332 2.091 . S
Co330 O334 2.004 . S
Co330 O340 2.021 . S
Co330 O342 2.137 . S
Co330 O343 2.244 . S
O331 Co330 2.216 . S
O331 C338 1.247 . S
O332 Co330 2.091 . S
O332 C338 1.261 . S
C333 O342 1.247 . S
C333 O343 1.272 . S
O334 Co330 2.004 . S
O334 C339 1.259 . S
Co335 O336 2.061 . S
Co335 O341 2.052 . S
Co335 O343 2.135 . S
O336 Co335 2.061 . S
O336 C339 1.235 . S
C337 O340 1.238 . S
C337 O341 1.241 . S
C338 O331 1.247 . S
C338 O332 1.261 . S
C339 O334 1.259 . S
C339 O336 1.235 . S
O340 Co330 2.021 . S
O340 C337 1.238 . S
O341 Co335 2.052 . S
O341 C337 1.241 . S
O342 Co330 2.137 . S
O342 C333 1.247 . S
O343 Co330 2.244 . S
O343 C333 1.272 . S
O343 Co335 2.135 . S
Co344 O345 2.216 . S
Co344 O346 2.091 . S
Co344 O348 2.004 . S
Co344 O354 2.021 . S
Co344 O356 2.137 . S
Co344 O357 2.244 . S
O345 Co344 2.216 . S
O345 C352 1.247 . S
O346 Co344 2.091 . S
O346 C352 1.261 . S
C347 O356 1.247 . S
C347 O357 1.272 . S
O348 Co344 2.004 . S
O348 C353 1.259 . S
Co349 O350 2.061 . S
Co349 O355 2.052 . S
Co349 O357 2.135 . S
O350 Co349 2.061 . S
O350 C353 1.235 . S
C351 O354 1.238 . S
C351 O355 1.241 . S
C352 O345 1.247 . S
C352 O346 1.261 . S
C353 O348 1.259 . S
C353 O350 1.235 . S
O354 Co344 2.021 . S
O354 C351 1.238 . S
O355 Co349 2.052 . S
O355 C351 1.241 . S
O356 Co344 2.137 . S
O356 C347 1.247 . S
O357 Co344 2.244 . S
O357 C347 1.272 . S
O357 Co349 2.135 . S
Co358 O359 2.216 . S
Co358 O360 2.091 . S
Co358 O362 2.004 . S
Co358 O368 2.021 . S
Co358 O370 2.137 . S
Co358 O371 2.244 . S
O359 Co358 2.216 . S
O359 C366 1.247 . S
O360 Co358 2.091 . S
O360 C366 1.261 . S
C361 O370 1.247 . S
C361 O371 1.272 . S
O362 Co358 2.004 . S
O362 C367 1.259 . S
Co363 O364 2.061 . S
Co363 O369 2.052 . S
Co363 O371 2.135 . S
O364 Co363 2.061 . S
O364 C367 1.235 . S
C365 O368 1.238 . S
C365 O369 1.241 . S
C366 O359 1.247 . S
C366 O360 1.261 . S
C367 O362 1.259 . S
C367 O364 1.235 . S
O368 Co358 2.021 . S
O368 C365 1.238 . S
O369 Co363 2.052 . S
O369 C365 1.241 . S
O370 Co358 2.137 . S
O370 C361 1.247 . S
O371 Co358 2.244 . S
O371 C361 1.272 . S
O371 Co363 2.135 . S
C372 C373 1.387 . S
C372 H376 0.950 . S
C372 C381 1.390 . S
C373 C372 1.387 . S
C373 C375 1.387 . S
H374 C381 0.950 . S
C375 C373 1.387 . S
C375 C377 1.390 . S
C375 H379 0.950 . S
H376 C372 0.950 . S
C377 C375 1.390 . S
C377 C378 1.387 . S
C377 H380 0.950 . S
C378 C377 1.387 . S
C378 C381 1.387 . S
H379 C375 0.950 . S
H380 C377 0.950 . S
C381 C372 1.390 . S
C381 H374 0.950 . S
C381 C378 1.387 . S
C382 C383 1.387 . S
C382 H386 0.950 . S
C382 C391 1.390 . S
C383 C382 1.387 . S
C383 C385 1.387 . S
H384 C391 0.950 . S
C385 C383 1.387 . S
C385 C387 1.390 . S
C385 H389 0.950 . S
H386 C382 0.950 . S
C387 C385 1.390 . S
C387 C388 1.387 . S
C387 H390 0.950 . S
C388 C387 1.387 . S
C388 C391 1.387 . S
H389 C385 0.950 . S
H390 C387 0.950 . S
C391 C382 1.390 . S
C391 H384 0.950 . S
C391 C388 1.387 . S
C392 C393 1.387 . S
C392 H396 0.950 . S
C392 C401 1.390 . S
C393 C392 1.387 . S
C393 C395 1.387 . S
H394 C401 0.950 . S
C395 C393 1.387 . S
C395 C397 1.390 . S
C395 H399 0.950 . S
H396 C392 0.950 . S
C397 C395 1.390 . S
C397 C398 1.387 . S
C397 H400 0.950 . S
C398 C397 1.387 . S
C398 C401 1.387 . S
H399 C395 0.950 . S
H400 C397 0.950 . S
C401 C392 1.390 . S
C401 H394 0.950 . S
C401 C398 1.387 . S
C402 C403 1.387 . S
C402 H406 0.950 . S
C402 C411 1.390 . S
C403 C402 1.387 . S
C403 C405 1.387 . S
H404 C411 0.950 . S
C405 C403 1.387 . S
C405 C407 1.390 . S
C405 H409 0.950 . S
H406 C402 0.950 . S
C407 C405 1.390 . S
C407 C408 1.387 . S
C407 H410 0.950 . S
C408 C407 1.387 . S
C408 C411 1.387 . S
H409 C405 0.950 . S
H410 C407 0.950 . S
C411 C402 1.390 . S
C411 H404 0.950 . S
C411 C408 1.387 . S
C412 C413 1.387 . S
C412 H416 0.950 . S
C412 C421 1.390 . S
C413 C412 1.387 . S
C413 C415 1.387 . S
H414 C421 0.950 . S
C415 C413 1.387 . S
C415 C417 1.390 . S
C415 H419 0.950 . S
H416 C412 0.950 . S
C417 C415 1.390 . S
C417 C418 1.387 . S
C417 H420 0.950 . S
C418 C417 1.387 . S
C418 C421 1.387 . S
H419 C415 0.950 . S
H420 C417 0.950 . S
C421 C412 1.390 . S
C421 H414 0.950 . S
C421 C418 1.387 . S
C422 C423 1.387 . S
C422 H426 0.950 . S
C422 C431 1.390 . S
C423 C422 1.387 . S
C423 C425 1.387 . S
H424 C431 0.950 . S
C425 C423 1.387 . S
C425 C427 1.390 . S
C425 H429 0.950 . S
H426 C422 0.950 . S
C427 C425 1.390 . S
C427 C428 1.387 . S
C427 H430 0.950 . S
C428 C427 1.387 . S
C428 C431 1.387 . S
H429 C425 0.950 . S
H430 C427 0.950 . S
C431 C422 1.390 . S
C431 H424 0.950 . S
C431 C428 1.387 . S
C432 C433 1.387 . S
C432 H436 0.950 . S
C432 C441 1.390 . S
C433 C432 1.387 . S
C433 C435 1.387 . S
H434 C441 0.950 . S
C435 C433 1.387 . S
C435 C437 1.390 . S
C435 H439 0.950 . S
H436 C432 0.950 . S
C437 C435 1.390 . S
C437 C438 1.387 . S
C437 H440 0.950 . S
C438 C437 1.387 . S
C438 C441 1.387 . S
H439 C435 0.950 . S
H440 C437 0.950 . S
C441 C432 1.390 . S
C441 H434 0.950 . S
C441 C438 1.387 . S
C442 C443 1.387 . S
C442 H446 0.950 . S
C442 C451 1.390 . S
C443 C442 1.387 . S
C443 C445 1.387 . S
H444 C451 0.950 . S
C445 C443 1.387 . S
C445 C447 1.390 . S
C445 H449 0.950 . S
H446 C442 0.950 . S
C447 C445 1.390 . S
C447 C448 1.387 . S
C447 H450 0.950 . S
C448 C447 1.387 . S
C448 C451 1.387 . S
H449 C445 0.950 . S
H450 C447 0.950 . S
C451 C442 1.390 . S
C451 H444 0.950 . S
C451 C448 1.387 . S
C452 C453 1.387 . S
C452 H456 0.950 . S
C452 C461 1.390 . S
C453 C452 1.387 . S
C453 C455 1.387 . S
H454 C461 0.950 . S
C455 C453 1.387 . S
C455 C457 1.390 . S
C455 H459 0.950 . S
H456 C452 0.950 . S
C457 C455 1.390 . S
C457 C458 1.387 . S
C457 H460 0.950 . S
C458 C457 1.387 . S
C458 C461 1.387 . S
H459 C455 0.950 . S
H460 C457 0.950 . S
C461 C452 1.390 . S
C461 H454 0.950 . S
C461 C458 1.387 . S
C462 C463 1.387 . S
C462 H466 0.950 1_554 S
C462 C471 1.390 . S
C463 C462 1.387 . S
C463 C465 1.387 . S
H464 C471 0.950 . S
C465 C463 1.387 . S
C465 C467 1.390 . S
C465 H469 0.950 . S
H466 C462 0.950 1_556 S
C467 C465 1.390 . S
C467 C468 1.387 . S
C467 H470 0.950 . S
C468 C467 1.387 . S
C468 C471 1.387 . S
H469 C465 0.950 . S
H470 C467 0.950 . S
C471 C462 1.390 . S
C471 H464 0.950 . S
C471 C468 1.387 . S
C472 C473 1.387 . S
C472 H476 0.950 . S
C472 C481 1.390 . S
C473 C472 1.387 . S
C473 C475 1.387 . S
H474 C481 0.950 . S
C475 C473 1.387 . S
C475 C477 1.390 . S
C475 H479 0.950 . S
H476 C472 0.950 . S
C477 C475 1.390 . S
C477 C478 1.387 . S
C477 H480 0.950 . S
C478 C477 1.387 . S
C478 C481 1.387 . S
H479 C475 0.950 . S
H480 C477 0.950 . S
C481 C472 1.390 . S
C481 H474 0.950 . S
C481 C478 1.387 . S
C482 C483 1.387 . S
C482 H486 0.950 . S
C482 C491 1.390 . S
C483 C482 1.387 . S
C483 C485 1.387 . S
H484 C491 0.950 . S
C485 C483 1.387 . S
C485 C487 1.390 . S
C485 H489 0.950 . S
H486 C482 0.950 . S
C487 C485 1.390 . S
C487 C488 1.387 . S
C487 H490 0.950 . S
C488 C487 1.387 . S
C488 C491 1.387 . S
H489 C485 0.950 . S
H490 C487 0.950 . S
C491 C482 1.390 . S
C491 H484 0.950 . S
C491 C488 1.387 . S
C492 C493 1.387 . S
C492 H496 0.950 . S
C492 C501 1.390 . S
C493 C492 1.387 . S
C493 C495 1.387 . S
H494 C501 0.950 . S
C495 C493 1.387 . S
C495 C497 1.390 . S
C495 H499 0.950 . S
H496 C492 0.950 . S
C497 C495 1.390 . S
C497 C498 1.387 . S
C497 H500 0.950 . S
C498 C497 1.387 . S
C498 C501 1.387 . S
H499 C495 0.950 . S
H500 C497 0.950 . S
C501 C492 1.390 . S
C501 H494 0.950 . S
C501 C498 1.387 . S
C502 C503 1.387 . S
C502 H506 0.950 . S
C502 C511 1.390 . S
C503 C502 1.387 . S
C503 C505 1.387 . S
H504 C511 0.950 . S
C505 C503 1.387 . S
C505 C507 1.390 . S
C505 H509 0.950 . S
H506 C502 0.950 . S
C507 C505 1.390 . S
C507 C508 1.387 . S
C507 H510 0.950 . S
C508 C507 1.387 . S
C508 C511 1.387 . S
H509 C505 0.950 . S
H510 C507 0.950 . S
C511 C502 1.390 . S
C511 H504 0.950 . S
C511 C508 1.387 . S
C512 C513 1.387 . S
C512 H516 0.950 . S
C512 C521 1.390 . S
C513 C512 1.387 . S
C513 C515 1.387 . S
H514 C521 0.950 . S
C515 C513 1.387 . S
C515 C517 1.390 . S
C515 H519 0.950 . S
H516 C512 0.950 . S
C517 C515 1.390 . S
C517 C518 1.387 . S
C517 H520 0.950 . S
C518 C517 1.387 . S
C518 C521 1.387 . S
H519 C515 0.950 . S
H520 C517 0.950 . S
C521 C512 1.390 . S
C521 H514 0.950 . S
C521 C518 1.387 . S
C522 C523 1.387 . S
C522 H526 0.950 . S
C522 C531 1.390 . S
C523 C522 1.387 . S
C523 C525 1.387 . S
H524 C531 0.950 1_554 S
C525 C523 1.387 . S
C525 C527 1.390 . S
C525 H529 0.950 . S
H526 C522 0.950 . S
C527 C525 1.390 . S
C527 C528 1.396 . S
C527 H530 0.950 . S
C528 C527 1.396 . S
C528 C531 1.390 . S
H529 C525 0.950 . S
H530 C527 0.950 . S
C531 C522 1.390 . S
C531 H524 0.950 1_556 S
C531 C528 1.390 . S
C532 C533 1.387 . S
C532 H536 0.950 . S
C532 C541 1.390 . S
C533 C532 1.387 . S
C533 C535 1.387 . S
H534 C541 0.950 . S
C535 C533 1.387 . S
C535 C537 1.390 . S
C535 H539 0.950 . S
H536 C532 0.950 . S
C537 C535 1.390 . S
C537 C538 1.387 . S
C537 H540 0.950 . S
C538 C537 1.387 . S
C538 C541 1.387 . S
H539 C535 0.950 . S
H540 C537 0.950 . S
C541 C532 1.390 . S
C541 H534 0.950 . S
C541 C538 1.387 . S
C542 C543 1.387 . S
C542 H546 0.950 . S
C542 C551 1.390 . S
C543 C542 1.387 . S
C543 C545 1.387 . S
H544 C551 0.950 . S
C545 C543 1.387 . S
C545 C547 1.390 . S
C545 H549 0.950 . S
H546 C542 0.950 . S
C547 C545 1.390 . S
C547 C548 1.387 . S
C547 H550 0.950 . S
C548 C547 1.387 . S
C548 C551 1.387 . S
H549 C545 0.950 . S
H550 C547 0.950 . S
C551 C542 1.390 . S
C551 H544 0.950 . S
C551 C548 1.387 . S
C552 C553 1.387 . S
C552 H556 0.950 . S
C552 C561 1.390 . S
C553 C552 1.387 . S
C553 C555 1.387 . S
H554 C561 0.950 . S
C555 C553 1.387 . S
C555 C557 1.390 . S
C555 H559 0.950 . S
H556 C552 0.950 . S
C557 C555 1.390 . S
C557 C558 1.387 . S
C557 H560 0.950 . S
C558 C557 1.387 . S
C558 C561 1.387 . S
H559 C555 0.950 . S
H560 C557 0.950 . S
C561 C552 1.390 . S
C561 H554 0.950 . S
C561 C558 1.387 . S
C562 C563 1.387 . S
C562 H566 0.950 . S
C562 C571 1.390 . S
C563 C562 1.387 . S
C563 C565 1.387 . S
H564 C571 0.950 . S
C565 C563 1.387 . S
C565 C567 1.390 . S
C565 H569 0.950 . S
H566 C562 0.950 . S
C567 C565 1.390 . S
C567 C568 1.387 . S
C567 H570 0.950 . S
C568 C567 1.387 . S
C568 C571 1.387 . S
H569 C565 0.950 . S
H570 C567 0.950 . S
C571 C562 1.390 . S
C571 H564 0.950 . S
C571 C568 1.387 . S
C572 C573 1.387 . S
C572 H576 0.950 . S
C572 C581 1.390 . S
C573 C572 1.387 . S
C573 C575 1.387 . S
H574 C581 0.950 . S
C575 C573 1.387 . S
C575 C577 1.390 . S
C575 H579 0.950 . S
H576 C572 0.950 . S
C577 C575 1.390 . S
C577 C578 1.387 . S
C577 H580 0.950 . S
C578 C577 1.387 . S
C578 C581 1.387 . S
H579 C575 0.950 . S
H580 C577 0.950 . S
C581 C572 1.390 . S
C581 H574 0.950 . S
C581 C578 1.387 . S
C582 C583 1.387 . S
C582 H586 0.950 . S
C582 C591 1.390 . S
C583 C582 1.387 . S
C583 C585 1.387 . S
H584 C591 0.950 . S
C585 C583 1.387 . S
C585 C587 1.390 . S
C585 H589 0.950 . S
H586 C582 0.950 . S
C587 C585 1.390 . S
C587 C588 1.387 . S
C587 H590 0.950 . S
C588 C587 1.387 . S
C588 C591 1.387 . S
H589 C585 0.950 . S
H590 C587 0.950 . S
C591 C582 1.390 . S
C591 H584 0.950 . S
C591 C588 1.387 . S
C592 C593 1.387 . S
C592 H596 0.950 . S
C592 C601 1.390 1_554 S
C593 C592 1.387 . S
C593 C595 1.387 . S
H594 C601 0.950 . S
C595 C593 1.387 . S
C595 C597 1.390 . S
C595 H599 0.950 . S
H596 C592 0.950 . S
C597 C595 1.390 . S
C597 C598 1.387 1_554 S
C597 H600 0.950 . S
C598 C597 1.387 1_556 S
C598 C601 1.387 . S
H599 C595 0.950 . S
H600 C597 0.950 . S
C601 C592 1.390 1_556 S
C601 H594 0.950 . S
C601 C598 1.387 . S
C602 C603 1.387 . S
C602 H606 0.950 . S
C602 C611 1.390 . S
C603 C602 1.387 . S
C603 C605 1.387 . S
H604 C611 0.950 . S
C605 C603 1.387 . S
C605 C607 1.390 . S
C605 H609 0.950 . S
H606 C602 0.950 . S
C607 C605 1.390 . S
C607 C608 1.387 . S
C607 H610 0.950 . S
C608 C607 1.387 . S
C608 C611 1.387 . S
H609 C605 0.950 . S
H610 C607 0.950 . S
C611 C602 1.390 . S
C611 H604 0.950 . S
C611 C608 1.387 . S
C378 C361 1.622 . S
C373 C45 1.628 . S
C383 C84 1.611 . S
C388 C291 1.614 . S
C393 C126 1.592 . S
C398 C310 1.643 . S
C403 C189 1.629 . S
C408 C319 1.623 . S
C418 C333 1.614 . S
C413 C228 1.611 . S
C423 C270 1.594 . S
C428 C352 1.644 . S
C433 C69 1.577 . S
C438 C305 1.597 . S
C443 C141 1.626 . S
C448 C324 1.624 . S
C453 C174 1.573 . S
C458 C338 1.618 . S
C468 C347 1.596 . S
C463 C213 1.574 . S
C478 C366 1.625 . S
C473 C285 1.627 . S
C488 C296 1.618 . S
C483 C30 1.573 . S
C493 C36 1.504 . S
C498 C311 1.490 . S
C503 C93 1.508 . S
C508 C323 1.490 . S
C518 C337 1.479 . S
C513 C117 1.502 . S
C523 C180 1.505 . S
C528 C353 1.481 1_556 S
C538 C365 1.491 . S
C533 C237 1.508 . S
C548 C295 1.477 . S
C543 C261 1.503 . S
C558 C367 1.496 . S
C553 C78 1.499 . S
C563 C132 1.512 . S
C568 C297 1.503 . S
C578 C309 1.489 . S
C573 C165 1.508 . S
C583 C222 1.501 . S
C588 C325 1.497 . S
C593 C276 1.512 . S
C598 C339 1.504 . S
C603 C21 1.508 . S
C608 C351 1.487 . S
