# Generated by pormake.
# Topology eea, (3,6)-cn, num edge types: 1
# Building blocks:
#     Node 0, Type 0, BuildingBlock: MIDCAF_clean_linker_0, # of connection points: 3
#     Node 1, Type 0, BuildingBlock: MIDCAF_clean_linker_0, # of connection points: 3
#     Node 2, Type 0, BuildingBlock: MIDCAF_clean_linker_0, # of connection points: 3
#     Node 3, Type 0, BuildingBlock: MIDCAF_clean_linker_0, # of connection points: 3
#     Node 4, Type 0, BuildingBlock: MIDCAF_clean_linker_0, # of connection points: 3
#     Node 5, Type 0, BuildingBlock: MIDCAF_clean_linker_0, # of connection points: 3
#     Node 6, Type 0, BuildingBlock: MIDCAF_clean_linker_0, # of connection points: 3
#     Node 7, Type 0, BuildingBlock: MIDCAF_clean_linker_0, # of connection points: 3
#     Node 8, Type 0, BuildingBlock: MIDCAF_clean_linker_0, # of connection points: 3
#     Node 9, Type 0, BuildingBlock: MIDCAF_clean_linker_0, # of connection points: 3
#     Node 10, Type 0, BuildingBlock: MIDCAF_clean_linker_0, # of connection points: 3
#     Node 11, Type 0, BuildingBlock: MIDCAF_clean_linker_0, # of connection points: 3
#     Node 12, Type 0, BuildingBlock: MIDCAF_clean_linker_0, # of connection points: 3
#     Node 13, Type 0, BuildingBlock: MIDCAF_clean_linker_0, # of connection points: 3
#     Node 14, Type 0, BuildingBlock: MIDCAF_clean_linker_0, # of connection points: 3
#     Node 15, Type 0, BuildingBlock: MIDCAF_clean_linker_0, # of connection points: 3
#     Node 16, Type 0, BuildingBlock: MIDCAF_clean_linker_0, # of connection points: 3
#     Node 17, Type 0, BuildingBlock: MIDCAF_clean_linker_0, # of connection points: 3
#     Node 18, Type 1, BuildingBlock: CUKXOW_clean_sbu_0, # of connection points: 6
#     Node 19, Type 1, BuildingBlock: CUKXOW_clean_sbu_0, # of connection points: 6
#     Node 20, Type 1, BuildingBlock: CUKXOW_clean_sbu_0, # of connection points: 6
#     Node 21, Type 1, BuildingBlock: CUKXOW_clean_sbu_0, # of connection points: 6
#     Node 22, Type 1, BuildingBlock: CUKXOW_clean_sbu_0, # of connection points: 6
#     Node 23, Type 1, BuildingBlock: CUKXOW_clean_sbu_0, # of connection points: 6
#     Node 24, Type 1, BuildingBlock: CUKXOW_clean_sbu_0, # of connection points: 6
#     Node 25, Type 1, BuildingBlock: CUKXOW_clean_sbu_0, # of connection points: 6
#     Node 26, Type 1, BuildingBlock: CUKXOW_clean_sbu_0, # of connection points: 6
#     Edge 27, Type (0, 1), BuildingBlock: XUDNAN_clean_linker_2, # of connection points: 2
#     Edge 28, Type (0, 1), BuildingBlock: XUDNAN_clean_linker_2, # of connection points: 2
#     Edge 29, Type (0, 1), BuildingBlock: XUDNAN_clean_linker_2, # of connection points: 2
#     Edge 30, Type (0, 1), BuildingBlock: XUDNAN_clean_linker_2, # of connection points: 2
#     Edge 31, Type (0, 1), BuildingBlock: XUDNAN_clean_linker_2, # of connection points: 2
#     Edge 32, Type (0, 1), BuildingBlock: XUDNAN_clean_linker_2, # of connection points: 2
#     Edge 33, Type (0, 1), BuildingBlock: XUDNAN_clean_linker_2, # of connection points: 2
#     Edge 34, Type (0, 1), BuildingBlock: XUDNAN_clean_linker_2, # of connection points: 2
#     Edge 35, Type (0, 1), BuildingBlock: XUDNAN_clean_linker_2, # of connection points: 2
#     Edge 36, Type (0, 1), BuildingBlock: XUDNAN_clean_linker_2, # of connection points: 2
#     Edge 37, Type (0, 1), BuildingBlock: XUDNAN_clean_linker_2, # of connection points: 2
#     Edge 38, Type (0, 1), BuildingBlock: XUDNAN_clean_linker_2, # of connection points: 2
#     Edge 39, Type (0, 1), BuildingBlock: XUDNAN_clean_linker_2, # of connection points: 2
#     Edge 40, Type (0, 1), BuildingBlock: XUDNAN_clean_linker_2, # of connection points: 2
#     Edge 41, Type (0, 1), BuildingBlock: XUDNAN_clean_linker_2, # of connection points: 2
#     Edge 42, Type (0, 1), BuildingBlock: XUDNAN_clean_linker_2, # of connection points: 2
#     Edge 43, Type (0, 1), BuildingBlock: XUDNAN_clean_linker_2, # of connection points: 2
#     Edge 44, Type (0, 1), BuildingBlock: XUDNAN_clean_linker_2, # of connection points: 2
#     Edge 45, Type (0, 1), BuildingBlock: XUDNAN_clean_linker_2, # of connection points: 2
#     Edge 46, Type (0, 1), BuildingBlock: XUDNAN_clean_linker_2, # of connection points: 2
#     Edge 47, Type (0, 1), BuildingBlock: XUDNAN_clean_linker_2, # of connection points: 2
#     Edge 48, Type (0, 1), BuildingBlock: XUDNAN_clean_linker_2, # of connection points: 2
#     Edge 49, Type (0, 1), BuildingBlock: XUDNAN_clean_linker_2, # of connection points: 2
#     Edge 50, Type (0, 1), BuildingBlock: XUDNAN_clean_linker_2, # of connection points: 2
#     Edge 51, Type (0, 1), BuildingBlock: XUDNAN_clean_linker_2, # of connection points: 2
#     Edge 52, Type (0, 1), BuildingBlock: XUDNAN_clean_linker_2, # of connection points: 2
#     Edge 53, Type (0, 1), BuildingBlock: XUDNAN_clean_linker_2, # of connection points: 2
#     Edge 54, Type (0, 1), BuildingBlock: XUDNAN_clean_linker_2, # of connection points: 2
#     Edge 55, Type (0, 1), BuildingBlock: XUDNAN_clean_linker_2, # of connection points: 2
#     Edge 56, Type (0, 1), BuildingBlock: XUDNAN_clean_linker_2, # of connection points: 2
#     Edge 57, Type (0, 1), BuildingBlock: XUDNAN_clean_linker_2, # of connection points: 2
#     Edge 58, Type (0, 1), BuildingBlock: XUDNAN_clean_linker_2, # of connection points: 2
#     Edge 59, Type (0, 1), BuildingBlock: XUDNAN_clean_linker_2, # of connection points: 2
#     Edge 60, Type (0, 1), BuildingBlock: XUDNAN_clean_linker_2, # of connection points: 2
#     Edge 61, Type (0, 1), BuildingBlock: XUDNAN_clean_linker_2, # of connection points: 2
#     Edge 62, Type (0, 1), BuildingBlock: XUDNAN_clean_linker_2, # of connection points: 2
#     Edge 63, Type (0, 1), BuildingBlock: XUDNAN_clean_linker_2, # of connection points: 2
#     Edge 64, Type (0, 1), BuildingBlock: XUDNAN_clean_linker_2, # of connection points: 2
#     Edge 65, Type (0, 1), BuildingBlock: XUDNAN_clean_linker_2, # of connection points: 2
#     Edge 66, Type (0, 1), BuildingBlock: XUDNAN_clean_linker_2, # of connection points: 2
#     Edge 67, Type (0, 1), BuildingBlock: XUDNAN_clean_linker_2, # of connection points: 2
#     Edge 68, Type (0, 1), BuildingBlock: XUDNAN_clean_linker_2, # of connection points: 2
#     Edge 69, Type (0, 1), BuildingBlock: XUDNAN_clean_linker_2, # of connection points: 2
#     Edge 70, Type (0, 1), BuildingBlock: XUDNAN_clean_linker_2, # of connection points: 2
#     Edge 71, Type (0, 1), BuildingBlock: XUDNAN_clean_linker_2, # of connection points: 2
#     Edge 72, Type (0, 1), BuildingBlock: XUDNAN_clean_linker_2, # of connection points: 2
#     Edge 73, Type (0, 1), BuildingBlock: XUDNAN_clean_linker_2, # of connection points: 2
#     Edge 74, Type (0, 1), BuildingBlock: XUDNAN_clean_linker_2, # of connection points: 2
#     Edge 75, Type (0, 1), BuildingBlock: XUDNAN_clean_linker_2, # of connection points: 2
#     Edge 76, Type (0, 1), BuildingBlock: XUDNAN_clean_linker_2, # of connection points: 2
#     Edge 77, Type (0, 1), BuildingBlock: XUDNAN_clean_linker_2, # of connection points: 2
#     Edge 78, Type (0, 1), BuildingBlock: XUDNAN_clean_linker_2, # of connection points: 2
#     Edge 79, Type (0, 1), BuildingBlock: XUDNAN_clean_linker_2, # of connection points: 2
#     Edge 80, Type (0, 1), BuildingBlock: XUDNAN_clean_linker_2, # of connection points: 2
# Relax obj value: 0.018
# Max RMSD: 0.126
# Mean RMSD: 0.056
data_MOF--net-eea--node1-CUKXOW_clean_sbu_0--node2-MIDCAF_clean_linker_0--edge1-XUDNAN_clean_linker_2
_symmetry_space_group_name_H-M    P1
_symmetry_Int_Tables_number       1
_symmetry_cell_setting            triclinic
loop_
_symmetry_equiv_pos_as_xyz
'x, y, z'
_cell_length_a     67.003335
_cell_length_b     63.941048
_cell_length_c     73.135585
_cell_angle_alpha  93.14446
_cell_angle_beta   93.038377
_cell_angle_gamma 119.98086
loop_
_atom_site_label
_atom_site_type_symbol
_atom_site_fract_x
_atom_site_fract_y
_atom_site_fract_z
_atom_type_partial_charge
C0 C 0.21674 0.0441 0.43083 0.0
C1 C 0.2111 0.03826 0.41178 0.0
C2 C 0.2148 0.05675 0.40051 0.0
C3 C 0.22334 0.08054 0.40826 0.0
H4 H 0.22966 0.14811 0.39745 0.0
H5 H 0.21752 0.17378 0.38229 0.0
H6 H 0.22976 0.21591 0.43398 0.0
H7 H 0.24226 0.19089 0.44919 0.0
H8 H 0.27999 0.18459 0.48034 0.0
H9 H 0.29456 0.19449 0.51271 0.0
H10 H 0.257 0.1182 0.52104 0.0
H11 H 0.24359 0.10838 0.48854 0.0
H12 H 0.2294 0.07155 0.45332 0.0
H13 H 0.21431 0.03025 0.43982 0.0
H14 H 0.21051 0.05268 0.38578 0.0
H15 H 0.22564 0.09433 0.39926 0.0
N16 N 0.23475 0.12773 0.42626 0.0
N17 N 0.24999 0.1559 0.45237 0.0
N18 N 0.24538 0.11727 0.45387 0.0
C19 C 0.24125 0.15013 0.43444 0.0
C20 C 0.25215 0.1396 0.46215 0.0
C21 C 0.23683 0.11121 0.43591 0.0
C22 C 0.23676 0.16727 0.42459 0.0
C23 C 0.23018 0.16312 0.40554 0.0
C24 C 0.22337 0.17782 0.39682 0.0
C25 C 0.22281 0.19669 0.40706 0.0
C26 C 0.23021 0.20148 0.42587 0.0
C27 C 0.23732 0.18708 0.43452 0.0
C28 C 0.2608 0.1457 0.48185 0.0
C29 C 0.27492 0.16997 0.48911 0.0
C30 C 0.28312 0.17563 0.50774 0.0
C31 C 0.27704 0.15718 0.51962 0.0
C32 C 0.26255 0.13292 0.51232 0.0
C33 C 0.25473 0.12725 0.49366 0.0
C34 C 0.22865 0.08632 0.42739 0.0
C35 C 0.22551 0.06785 0.43854 0.0
C36 C 0.95792 0.19992 0.42168 0.0
C37 C 0.9559 0.19708 0.40232 0.0
C38 C 0.9338 0.18257 0.39293 0.0
C39 C 0.91446 0.16994 0.40256 0.0
H40 H 0.85729 0.10625 0.39386 0.0
H41 H 0.83091 0.06789 0.3764 0.0
H42 H 0.79756 0.03922 0.42532 0.0
H43 H 0.82416 0.07812 0.44313 0.0
H44 H 0.8502 0.11347 0.48291 0.0
H45 H 0.84465 0.12383 0.51421 0.0
H46 H 0.89051 0.19968 0.50842 0.0
H47 H 0.89643 0.18944 0.47726 0.0
H48 H 0.94056 0.18899 0.44628 0.0
H49 H 0.97471 0.21098 0.42932 0.0
H50 H 0.9315 0.18052 0.37804 0.0
H51 H 0.89785 0.15837 0.39476 0.0
N52 N 0.87936 0.13435 0.42238 0.0
N53 N 0.85931 0.12346 0.44868 0.0
N54 N 0.89459 0.16041 0.44952 0.0
C55 C 0.86086 0.1183 0.4307 0.0
C56 C 0.87604 0.14459 0.45815 0.0
C57 C 0.89629 0.15531 0.43157 0.0
C58 C 0.84316 0.09527 0.42005 0.0
C59 C 0.84435 0.09193 0.40104 0.0
C60 C 0.82921 0.06986 0.39096 0.0
C61 C 0.8124 0.05042 0.39953 0.0
C62 C 0.81037 0.05393 0.41835 0.0
C63 C 0.82565 0.07616 0.42854 0.0
C64 C 0.87369 0.15063 0.47753 0.0
C65 C 0.85926 0.13235 0.48835 0.0
C66 C 0.85618 0.13824 0.50631 0.0
C67 C 0.86711 0.16255 0.5137 0.0
C68 C 0.8818 0.18079 0.50302 0.0
C69 C 0.88524 0.17489 0.4852 0.0
C70 C 0.91656 0.1716 0.42188 0.0
C71 C 0.93838 0.18731 0.43139 0.0
C72 C 0.81677 0.76873 0.4406 0.0
C73 C 0.81824 0.77733 0.42315 0.0
C74 C 0.83459 0.7773 0.41193 0.0
C75 C 0.84955 0.76938 0.4182 0.0
H76 H 0.91408 0.78059 0.41134 0.0
H77 H 0.94495 0.78693 0.39249 0.0
H78 H 0.96044 0.74143 0.42485 0.0
H79 H 0.9296 0.73536 0.44416 0.0
H80 H 0.90922 0.73643 0.48978 0.0
H81 H 0.90213 0.71528 0.51785 0.0
H82 H 0.82861 0.68404 0.50516 0.0
H83 H 0.83554 0.70558 0.47748 0.0
H84 H 0.8301 0.7543 0.46039 0.0
H85 H 0.80416 0.76832 0.44947 0.0
H86 H 0.83624 0.78399 0.39848 0.0
H87 H 0.86216 0.76994 0.40927 0.0
N88 N 0.88364 0.75857 0.43356 0.0
N89 N 0.89575 0.74074 0.45543 0.0
N90 N 0.86157 0.742 0.45818 0.0
C91 C 0.89916 0.75222 0.4398 0.0
C92 C 0.87694 0.73556 0.46466 0.0
C93 C 0.86485 0.75361 0.44266 0.0
C94 C 0.91912 0.75722 0.42919 0.0
C95 C 0.92404 0.77193 0.41456 0.0
C96 C 0.94171 0.7755 0.40365 0.0
C97 C 0.9549 0.76435 0.40697 0.0
C98 C 0.9506 0.7503 0.42197 0.0
C99 C 0.93287 0.74677 0.43299 0.0
C100 C 0.87293 0.72267 0.48146 0.0
C101 C 0.89156 0.72504 0.493 0.0
C102 C 0.88756 0.71307 0.50905 0.0
C103 C 0.86486 0.69806 0.5135 0.0
C104 C 0.84625 0.69547 0.5019 0.0
C105 C 0.85025 0.70786 0.48614 0.0
C106 C 0.84834 0.7611 0.43577 0.0
C107 C 0.83157 0.76059 0.4468 0.0
C108 C 0.0532 0.25212 0.58256 0.0
C109 C 0.05353 0.24766 0.60115 0.0
C110 C 0.07243 0.24657 0.60924 0.0
C111 C 0.09061 0.24989 0.59904 0.0
H112 H 0.17049 0.28583 0.59886 0.0
H113 H 0.19965 0.28241 0.61756 0.0
H114 H 0.191 0.22414 0.57885 0.0
H115 H 0.16302 0.22911 0.5595 0.0
H116 H 0.14578 0.24947 0.51397 0.0
H117 H 0.14624 0.25838 0.48196 0.0
H118 H 0.10773 0.2947 0.49326 0.0
H119 H 0.10608 0.28437 0.52474 0.0
H120 H 0.07065 0.25878 0.558 0.0
H121 H 0.03895 0.25326 0.57598 0.0
H122 H 0.07303 0.24271 0.62343 0.0
H123 H 0.10477 0.24873 0.60579 0.0
N124 N 0.12772 0.2564 0.5779 0.0
N125 N 0.14412 0.26037 0.54982 0.0
N126 N 0.10895 0.25997 0.55139 0.0
C127 C 0.14498 0.25798 0.56814 0.0
C128 C 0.12618 0.26166 0.54142 0.0
C129 C 0.10948 0.25706 0.56962 0.0
C130 C 0.16459 0.25767 0.57786 0.0
C131 C 0.17525 0.27264 0.59424 0.0
C132 C 0.19174 0.27043 0.60504 0.0
C133 C 0.1974 0.25257 0.60005 0.0
C134 C 0.18733 0.23824 0.58315 0.0
C135 C 0.17123 0.24097 0.57205 0.0
C136 C 0.12591 0.26622 0.52184 0.0
C137 C 0.13726 0.25916 0.50949 0.0
C138 C 0.13762 0.26443 0.49115 0.0
C139 C 0.12711 0.27741 0.48488 0.0
C140 C 0.11558 0.28421 0.49732 0.0
C141 C 0.11478 0.27846 0.51549 0.0
C142 C 0.09034 0.25428 0.58043 0.0
C143 C 0.07144 0.25541 0.57229 0.0
C144 C 0.76103 0.79654 0.58441 0.0
C145 C 0.77688 0.80282 0.59991 0.0
C146 C 0.79042 0.82722 0.60688 0.0
C147 C 0.78772 0.84502 0.59878 0.0
H148 H 0.77399 0.90247 0.61608 0.0
H149 H 0.78088 0.93871 0.63488 0.0
H150 H 0.78433 0.97433 0.58571 0.0
H151 H 0.77738 0.93829 0.5669 0.0
H152 H 0.74888 0.90312 0.53152 0.0
H153 H 0.73775 0.90064 0.49912 0.0
H154 H 0.73854 0.83378 0.48992 0.0
H155 H 0.7495 0.83597 0.52277 0.0
H156 H 0.74621 0.80909 0.56417 0.0
H157 H 0.75046 0.77779 0.57879 0.0
H158 H 0.80266 0.83242 0.6189 0.0
H159 H 0.79817 0.86368 0.60461 0.0
N160 N 0.77319 0.87795 0.58575 0.0
N161 N 0.76288 0.89248 0.5604 0.0
N162 N 0.76088 0.8548 0.55707 0.0
C163 C 0.77034 0.89544 0.57846 0.0
C164 C 0.75808 0.87228 0.54959 0.0
C165 C 0.76853 0.85762 0.57514 0.0
C166 C 0.77512 0.91748 0.58999 0.0
C167 C 0.77631 0.91806 0.60928 0.0
C168 C 0.78012 0.93872 0.62004 0.0
C169 C 0.78315 0.95926 0.61172 0.0
C170 C 0.78224 0.95879 0.59247 0.0
C171 C 0.77813 0.93808 0.58172 0.0
C172 C 0.75033 0.86986 0.52982 0.0
C173 C 0.74672 0.88781 0.52272 0.0
C174 C 0.74045 0.88649 0.50406 0.0
C175 C 0.73766 0.86723 0.49192 0.0
C176 C 0.7406 0.84885 0.49898 0.0
C177 C 0.74694 0.85017 0.51777 0.0
C178 C 0.77177 0.83879 0.58331 0.0
C179 C 0.75868 0.81442 0.57604 0.0
C180 C 0.188 0.95756 0.57687 0.0
C181 C 0.18748 0.96346 0.59554 0.0
C182 C 0.17171 0.94543 0.60583 0.0
C183 C 0.15609 0.92215 0.59735 0.0
H184 H 0.09391 0.85746 0.60401 0.0
H185 H 0.0597 0.82813 0.61804 0.0
H186 H 0.03459 0.78244 0.56675 0.0
H187 H 0.06864 0.81108 0.55294 0.0
H188 H 0.11151 0.82015 0.52484 0.0
H189 H 0.11604 0.81035 0.49329 0.0
H190 H 0.14857 0.88636 0.48417 0.0
H191 H 0.14541 0.8961 0.5161 0.0
H192 H 0.1734 0.93074 0.55396 0.0
H193 H 0.20014 0.97107 0.56867 0.0
H194 H 0.17092 0.94958 0.62024 0.0
H195 H 0.14377 0.90877 0.60552 0.0
N196 N 0.12072 0.87602 0.57752 0.0
N197 N 0.1076 0.84873 0.55093 0.0
N198 N 0.14123 0.8866 0.55131 0.0
C199 C 0.10484 0.85418 0.56851 0.0
C200 C 0.12569 0.86483 0.54224 0.0
C201 C 0.13905 0.89231 0.56899 0.0
C202 C 0.08422 0.83663 0.57736 0.0
C203 C 0.08111 0.84111 0.59576 0.0
C204 C 0.06143 0.82438 0.60378 0.0
C205 C 0.04447 0.80282 0.59358 0.0
C206 C 0.04751 0.79857 0.57515 0.0
C207 C 0.06709 0.81516 0.56719 0.0
C208 C 0.12818 0.85889 0.52296 0.0
C209 C 0.11968 0.83473 0.51606 0.0
C210 C 0.12213 0.82912 0.49786 0.0
C211 C 0.13263 0.84749 0.48593 0.0
C212 C 0.14086 0.87168 0.4929 0.0
C213 C 0.13892 0.87732 0.51123 0.0
C214 C 0.15617 0.91646 0.57848 0.0
C215 C 0.17264 0.93437 0.56847 0.0
C216 C 0.93025 0.39609 0.74327 0.0
C217 C 0.91305 0.38581 0.72845 0.0
C218 C 0.90077 0.39739 0.72351 0.0
C219 C 0.90581 0.41918 0.73315 0.0
H220 H 0.92276 0.49033 0.72293 0.0
H221 H 0.90991 0.51379 0.70623 0.0
H222 H 0.90757 0.5492 0.75735 0.0
H223 H 0.92055 0.52544 0.77445 0.0
H224 H 0.93191 0.50415 0.81384 0.0
H225 H 0.93737 0.50326 0.84728 0.0
H226 H 0.96408 0.45497 0.83792 0.0
H227 H 0.95875 0.45575 0.805 0.0
H228 H 0.94815 0.4251 0.7647 0.0
H229 H 0.93988 0.38732 0.74726 0.0
H230 H 0.88748 0.38972 0.71206 0.0
H231 H 0.8961 0.4278 0.72904 0.0
N232 N 0.92373 0.46825 0.75031 0.0
N233 N 0.93385 0.49269 0.77825 0.0
N234 N 0.93487 0.4564 0.77675 0.0
C235 C 0.92704 0.48871 0.75988 0.0
C236 C 0.93799 0.47657 0.78671 0.0
C237 C 0.92759 0.45206 0.75861 0.0
C238 C 0.92222 0.50561 0.75009 0.0
C239 C 0.9197 0.50319 0.73075 0.0
C240 C 0.91237 0.51665 0.72111 0.0
C241 C 0.90742 0.53296 0.73052 0.0
C242 C 0.9113 0.53668 0.74981 0.0
C243 C 0.91865 0.52305 0.75956 0.0
C244 C 0.94446 0.47964 0.80676 0.0
C245 C 0.93933 0.49372 0.81899 0.0
C246 C 0.94242 0.49322 0.83807 0.0
C247 C 0.95062 0.4786 0.84508 0.0
C248 C 0.95718 0.46592 0.83286 0.0
C249 C 0.95414 0.46641 0.81397 0.0
C250 C 0.92284 0.42941 0.74816 0.0
C251 C 0.93492 0.41758 0.75322 0.0
C252 C 0.62399 0.52701 0.75381 0.0
C253 C 0.62088 0.52235 0.73453 0.0
C254 C 0.59839 0.50671 0.72607 0.0
C255 C 0.57975 0.49499 0.73663 0.0
H256 H 0.51695 0.42859 0.73436 0.0
H257 H 0.48942 0.38637 0.72296 0.0
H258 H 0.47358 0.36907 0.77848 0.0
H259 H 0.50071 0.41105 0.78994 0.0
H260 H 0.52081 0.45124 0.82151 0.0
H261 H 0.51982 0.46468 0.85295 0.0
H262 H 0.5728 0.53751 0.84483 0.0
H263 H 0.57377 0.52413 0.81307 0.0
H264 H 0.60834 0.51891 0.77921 0.0
H265 H 0.64104 0.53875 0.76085 0.0
H266 H 0.59517 0.5032 0.71125 0.0
H267 H 0.56279 0.48256 0.72967 0.0
N268 N 0.54621 0.46236 0.75991 0.0
N269 N 0.52987 0.45618 0.78801 0.0
N270 N 0.56415 0.4924 0.78479 0.0
C271 C 0.52923 0.44807 0.77035 0.0
C272 C 0.5471 0.47834 0.79532 0.0
C273 C 0.56375 0.48451 0.76704 0.0
C274 C 0.51118 0.42318 0.76308 0.0
C275 C 0.50742 0.41584 0.74412 0.0
C276 C 0.4916 0.39176 0.73756 0.0
C277 C 0.47958 0.37456 0.74989 0.0
C278 C 0.48281 0.38201 0.76874 0.0
C279 C 0.4983 0.40608 0.77526 0.0
C280 C 0.54731 0.48663 0.81469 0.0
C281 C 0.53234 0.47013 0.82635 0.0
C282 C 0.53189 0.47778 0.84447 0.0
C283 C 0.54629 0.50212 0.85137 0.0
C284 C 0.56142 0.51865 0.83982 0.0
C285 C 0.56203 0.51095 0.82167 0.0
C286 C 0.58304 0.49894 0.7559 0.0
C287 C 0.60523 0.51556 0.76437 0.0
C288 C 0.4925 0.10418 0.7625 0.0
C289 C 0.49314 0.10563 0.7434 0.0
C290 C 0.50831 0.10037 0.73433 0.0
C291 C 0.52316 0.09479 0.74416 0.0
H292 H 0.58498 0.09651 0.73962 0.0
H293 H 0.61998 0.10282 0.72632 0.0
H294 H 0.6468 0.0951 0.779 0.0
H295 H 0.61172 0.08809 0.79212 0.0
H296 H 0.56522 0.04822 0.81548 0.0
H297 H 0.55868 0.03334 0.84563 0.0
H298 H 0.52262 0.07225 0.85715 0.0
H299 H 0.52802 0.08589 0.82635 0.0
H300 H 0.5067 0.0978 0.7871 0.0
H301 H 0.48114 0.10829 0.76993 0.0
H302 H 0.50885 0.10068 0.71956 0.0
H303 H 0.5348 0.09114 0.73669 0.0
N304 N 0.55875 0.09203 0.7659 0.0
N305 N 0.57022 0.08004 0.7922 0.0
N306 N 0.53601 0.08177 0.79088 0.0
C307 C 0.57422 0.0877 0.77514 0.0
C308 C 0.55121 0.07701 0.80014 0.0
C309 C 0.53962 0.0891 0.77365 0.0
C310 C 0.59544 0.09165 0.76692 0.0
C311 C 0.59833 0.09612 0.74835 0.0
C312 C 0.61846 0.09988 0.74074 0.0
C313 C 0.63616 0.09935 0.75156 0.0
C314 C 0.63333 0.09513 0.77016 0.0
C315 C 0.6132 0.09122 0.77772 0.0
C316 C 0.54714 0.06823 0.81858 0.0
C317 C 0.55589 0.05359 0.82446 0.0
C318 C 0.55229 0.04522 0.84187 0.0
C319 C 0.5403 0.05173 0.85404 0.0
C320 C 0.53162 0.06651 0.84812 0.0
C321 C 0.5348 0.07446 0.8305 0.0
C322 C 0.52301 0.09397 0.7633 0.0
C323 C 0.50724 0.09829 0.77235 0.0
C324 C 0.7202 0.5745 0.91382 0.0
C325 C 0.71953 0.56426 0.93049 0.0
C326 C 0.73624 0.55783 0.93506 0.0
C327 C 0.75348 0.56194 0.9235 0.0
H328 H 0.80433 0.54322 0.9131 0.0
H329 H 0.83542 0.53813 0.92709 0.0
H330 H 0.88526 0.59766 0.89936 0.0
H331 H 0.85411 0.60247 0.88494 0.0
H332 H 0.81615 0.59036 0.84005 0.0
H333 H 0.82059 0.60934 0.81142 0.0
H334 H 0.77916 0.6397 0.82905 0.0
H335 H 0.77438 0.62036 0.85783 0.0
H336 H 0.73782 0.58695 0.88961 0.0
H337 H 0.70758 0.57972 0.90996 0.0
H338 H 0.73595 0.54945 0.9476 0.0
H339 H 0.76607 0.5568 0.92767 0.0
N340 N 0.79025 0.57264 0.90093 0.0
N341 N 0.80972 0.58795 0.87491 0.0
N342 N 0.77523 0.58805 0.87921 0.0
C343 C 0.80833 0.57774 0.89092 0.0
C344 C 0.79317 0.593 0.86888 0.0
C345 C 0.77365 0.57775 0.89528 0.0
C346 C 0.82682 0.57329 0.89798 0.0
C347 C 0.82188 0.55501 0.90979 0.0
C348 C 0.8396 0.55201 0.91771 0.0
C349 C 0.86264 0.56754 0.91428 0.0
C350 C 0.86759 0.5855 0.9022 0.0
C351 C 0.84978 0.58816 0.89392 0.0
C352 C 0.79496 0.60391 0.85125 0.0
C353 C 0.80787 0.60098 0.83785 0.0
C354 C 0.81029 0.6117 0.82138 0.0
C355 C 0.80017 0.62592 0.81802 0.0
C356 C 0.78717 0.62885 0.83134 0.0
C357 C 0.78438 0.61771 0.84774 0.0
C358 C 0.75455 0.57264 0.907 0.0
C359 C 0.73757 0.5787 0.90221 0.0
C360 C 0.42641 0.13156 0.92358 0.0
C361 C 0.44173 0.14134 0.93965 0.0
C362 C 0.447 0.16408 0.94789 0.0
C363 C 0.43755 0.17701 0.9401 0.0
H364 H 0.41736 0.22716 0.95433 0.0
H365 H 0.43032 0.26576 0.97188 0.0
H366 H 0.42572 0.29698 0.92207 0.0
H367 H 0.4121 0.25782 0.90435 0.0
H368 H 0.36666 0.20391 0.87396 0.0
H369 H 0.34683 0.19153 0.84294 0.0
H370 H 0.37816 0.14791 0.83199 0.0
H371 H 0.39783 0.15997 0.8631 0.0
H372 H 0.40565 0.13685 0.90307 0.0
H373 H 0.42212 0.11408 0.91692 0.0
H374 H 0.45854 0.17194 0.9604 0.0
H375 H 0.44227 0.19459 0.94682 0.0
N376 N 0.41665 0.20257 0.92473 0.0
N377 N 0.39873 0.21041 0.89978 0.0
N378 N 0.40301 0.17599 0.89786 0.0
C379 C 0.40931 0.21677 0.91721 0.0
C380 C 0.39543 0.18993 0.89005 0.0
C381 C 0.41363 0.18221 0.91525 0.0
C382 C 0.41407 0.23948 0.92786 0.0
C383 C 0.41885 0.24213 0.94706 0.0
C384 C 0.42635 0.26432 0.95716 0.0
C385 C 0.42954 0.28461 0.94834 0.0
C386 C 0.42342 0.28168 0.92928 0.0
C387 C 0.41569 0.25927 0.91912 0.0
C388 C 0.38379 0.18288 0.87106 0.0
C389 C 0.36938 0.19172 0.86495 0.0
C390 C 0.35792 0.18454 0.84723 0.0
C391 C 0.36091 0.1687 0.8351 0.0
C392 C 0.37562 0.16019 0.84104 0.0
C393 C 0.38677 0.16702 0.85889 0.0
C394 C 0.4227 0.16765 0.92374 0.0
C395 C 0.4171 0.14467 0.91561 0.0
C396 C 0.83212 0.26581 0.94532 0.0
C397 C 0.84914 0.28547 0.93705 0.0
C398 C 0.84919 0.2837 0.91781 0.0
C399 C 0.83285 0.26239 0.9071 0.0
H400 H 0.76823 0.1625 0.93432 0.0
H401 H 0.7371 0.1354 0.95183 0.0
H402 H 0.68701 0.13409 0.91114 0.0
H403 H 0.71848 0.15964 0.89295 0.0
H404 H 0.76765 0.1489 0.85793 0.0
H405 H 0.77685 0.13912 0.82795 0.0
H406 H 0.82158 0.21532 0.82262 0.0
H407 H 0.81268 0.22526 0.85277 0.0
H408 H 0.80301 0.22993 0.94165 0.0
H409 H 0.83147 0.26674 0.96009 0.0
H410 H 0.8622 0.29856 0.91108 0.0
H411 H 0.8335 0.26145 0.89233 0.0
N412 N 0.78063 0.2025 0.91253 0.0
N413 N 0.76733 0.17682 0.88511 0.0
N414 N 0.80115 0.2151 0.88654 0.0
C415 C 0.76481 0.18127 0.90296 0.0
C416 C 0.78559 0.19364 0.87681 0.0
C417 C 0.79873 0.21966 0.90444 0.0
C418 C 0.74564 0.16306 0.91237 0.0
C419 C 0.75048 0.156 0.92904 0.0
C420 C 0.73257 0.14071 0.93918 0.0
C421 C 0.70932 0.13282 0.93325 0.0
C422 C 0.70454 0.13945 0.91618 0.0
C423 C 0.72254 0.15419 0.90574 0.0
C424 C 0.78951 0.18789 0.85784 0.0
C425 C 0.77925 0.16364 0.85032 0.0
C426 C 0.78459 0.15798 0.83319 0.0
C427 C 0.79998 0.17645 0.82301 0.0
C428 C 0.80956 0.20073 0.83014 0.0
C429 C 0.80454 0.20639 0.84744 0.0
C430 C 0.81596 0.24259 0.91544 0.0
C431 C 0.81571 0.24471 0.93467 0.0
C432 C 0.60262 0.73309 0.0749 0.0
C433 C 0.58494 0.72065 0.06056 0.0
C434 C 0.57064 0.72998 0.05548 0.0
C435 C 0.57391 0.75139 0.06466 0.0
H436 H 0.58005 0.82321 0.0562 0.0
H437 H 0.56278 0.84576 0.04325 0.0
H438 H 0.55442 0.86719 0.09797 0.0
H439 H 0.57196 0.84519 0.11099 0.0
H440 H 0.60523 0.84385 0.14324 0.0
H441 H 0.61526 0.84924 0.17626 0.0
H442 H 0.62957 0.79049 0.17173 0.0
H443 H 0.61982 0.78515 0.13854 0.0
H444 H 0.61911 0.76317 0.09554 0.0
H445 H 0.61378 0.72616 0.07912 0.0
H446 H 0.55696 0.72072 0.0444 0.0
H447 H 0.56246 0.75804 0.06059 0.0
N448 N 0.58571 0.79888 0.08244 0.0
N449 N 0.59538 0.82279 0.11053 0.0
N450 N 0.60238 0.79039 0.10793 0.0
C451 C 0.58672 0.81789 0.09261 0.0
C452 C 0.60335 0.80922 0.11829 0.0
C453 C 0.59356 0.78509 0.09003 0.0
C454 C 0.5773 0.83232 0.08462 0.0
C455 C 0.57467 0.83287 0.06547 0.0
C456 C 0.56494 0.84585 0.05805 0.0
C457 C 0.55726 0.85807 0.06965 0.0
C458 C 0.56014 0.8578 0.08876 0.0
C459 C 0.57025 0.84526 0.09618 0.0
C460 C 0.61145 0.81387 0.13817 0.0
C461 C 0.6107 0.83216 0.14918 0.0
C462 C 0.61634 0.83521 0.16816 0.0
C463 C 0.62294 0.8201 0.17662 0.0
C464 C 0.62464 0.80247 0.16559 0.0
C465 C 0.61892 0.79935 0.14657 0.0
C466 C 0.59122 0.76353 0.07935 0.0
C467 C 0.60559 0.7542 0.08432 0.0
C468 C 0.28012 0.85892 0.08394 0.0
C469 C 0.27939 0.85427 0.06481 0.0
C470 C 0.25798 0.83801 0.05495 0.0
C471 C 0.23806 0.82568 0.06405 0.0
H472 H 0.17221 0.7635 0.0562 0.0
H473 H 0.14774 0.72211 0.04157 0.0
H474 H 0.13017 0.69582 0.09477 0.0
H475 H 0.15412 0.73717 0.10952 0.0
H476 H 0.15884 0.78817 0.13769 0.0
H477 H 0.1552 0.79976 0.16894 0.0
H478 H 0.22865 0.85141 0.17614 0.0
H479 H 0.23208 0.84048 0.14448 0.0
H480 H 0.26132 0.85002 0.10788 0.0
H481 H 0.29633 0.87127 0.09196 0.0
H482 H 0.25663 0.83448 0.04015 0.0
H483 H 0.22202 0.81286 0.05599 0.0
N484 N 0.20106 0.79285 0.08429 0.0
N485 N 0.18093 0.78467 0.11062 0.0
N486 N 0.21652 0.82081 0.11049 0.0
C487 C 0.18246 0.77789 0.09306 0.0
C488 C 0.19777 0.80619 0.11938 0.0
C489 C 0.21817 0.81428 0.09286 0.0
C490 C 0.16522 0.7536 0.08404 0.0
C491 C 0.16276 0.74898 0.06477 0.0
C492 C 0.14869 0.72539 0.05637 0.0
C493 C 0.13715 0.70601 0.0671 0.0
C494 C 0.13885 0.71063 0.08626 0.0
C495 C 0.15254 0.73427 0.09466 0.0
C496 C 0.19576 0.81336 0.13854 0.0
C497 C 0.17425 0.802 0.14592 0.0
C498 C 0.17219 0.80856 0.16395 0.0
C499 C 0.19166 0.82644 0.17523 0.0
C500 C 0.2132 0.83782 0.16784 0.0
C501 C 0.2152 0.83146 0.14968 0.0
C502 C 0.23893 0.82945 0.08325 0.0
C503 C 0.26005 0.84668 0.09307 0.0
C504 C 0.14905 0.40794 0.08513 0.0
C505 C 0.1561 0.42284 0.07057 0.0
C506 C 0.17921 0.43343 0.06642 0.0
C507 C 0.19469 0.4286 0.07605 0.0
H508 H 0.2462 0.41247 0.06472 0.0
H509 H 0.28204 0.428 0.05026 0.0
H510 H 0.31932 0.43724 0.10289 0.0
H511 H 0.28298 0.42108 0.11751 0.0
H512 H 0.24817 0.39268 0.14988 0.0
H513 H 0.24327 0.38151 0.18133 0.0
H514 H 0.17367 0.36929 0.17587 0.0
H515 H 0.17832 0.38014 0.14436 0.0
H516 H 0.15877 0.39144 0.10595 0.0
H517 H 0.13134 0.39947 0.08864 0.0
H518 H 0.18545 0.44558 0.05567 0.0
H519 H 0.2123 0.43705 0.0723 0.0
N520 N 0.22399 0.41287 0.09231 0.0
N521 N 0.23691 0.40113 0.11801 0.0
N522 N 0.20095 0.39944 0.1168 0.0
C523 C 0.24028 0.40941 0.10108 0.0
C524 C 0.21714 0.3959 0.1259 0.0
C525 C 0.20437 0.40806 0.10002 0.0
C526 C 0.2618 0.41591 0.09233 0.0
C527 C 0.26196 0.41761 0.07326 0.0
C528 C 0.28255 0.42662 0.06496 0.0
C529 C 0.30358 0.43438 0.0755 0.0
C530 C 0.30335 0.43144 0.09442 0.0
C531 C 0.28258 0.42222 0.10279 0.0
C532 C 0.21371 0.38752 0.14459 0.0
C533 C 0.23172 0.38741 0.15528 0.0
C534 C 0.22898 0.38111 0.17335 0.0
C535 C 0.20814 0.37466 0.18109 0.0
C536 C 0.18987 0.37398 0.17023 0.0
C537 C 0.19263 0.38039 0.1522 0.0
C538 C 0.18762 0.41329 0.09032 0.0
C539 C 0.16471 0.40326 0.09498 0.0
C540 C 0.37061 0.9153 0.23237 0.0
C541 C 0.36641 0.90906 0.25048 0.0
C542 C 0.38207 0.90463 0.2607 0.0
C543 C 0.40167 0.90683 0.25311 0.0
H544 H 0.44744 0.87793 0.25156 0.0
H545 H 0.47081 0.86574 0.26938 0.0
H546 H 0.53264 0.92303 0.24968 0.0
H547 H 0.50887 0.93448 0.23101 0.0
H548 H 0.49803 0.95973 0.19388 0.0
H549 H 0.50871 0.98121 0.1661 0.0
H550 H 0.43681 0.95653 0.15048 0.0
H551 H 0.42609 0.93533 0.17819 0.0
H552 H 0.39305 0.92276 0.21091 0.0
H553 H 0.35867 0.91836 0.22397 0.0
H554 H 0.37954 0.90007 0.27475 0.0
H555 H 0.41356 0.90371 0.26152 0.0
N556 N 0.4415 0.91072 0.23643 0.0
N557 N 0.46842 0.92686 0.2145 0.0
N558 N 0.43427 0.92875 0.21192 0.0
C559 C 0.46179 0.91519 0.23 0.0
C560 C 0.45454 0.93349 0.20531 0.0
C561 C 0.42769 0.91754 0.22754 0.0
C562 C 0.47633 0.90733 0.24001 0.0
C563 C 0.46602 0.8879 0.25096 0.0
C564 C 0.4795 0.88101 0.26131 0.0
C565 C 0.50374 0.89366 0.26131 0.0
C566 C 0.51403 0.91274 0.24995 0.0
C567 C 0.50043 0.9194 0.23931 0.0
C568 C 0.46123 0.94588 0.18827 0.0
C569 C 0.48451 0.95883 0.18449 0.0
C570 C 0.49064 0.97124 0.16868 0.0
C571 C 0.47357 0.97055 0.15621 0.0
C572 C 0.45029 0.95727 0.15983 0.0
C573 C 0.4442 0.94524 0.17575 0.0
C574 C 0.40617 0.91369 0.23517 0.0
C575 C 0.39028 0.91768 0.22483 0.0
C576 C 0.10019 0.47242 0.25714 0.0
C577 C 0.11548 0.48374 0.2731 0.0
C578 C 0.12107 0.5073 0.27956 0.0
C579 C 0.11225 0.51963 0.26993 0.0
H580 H 0.10409 0.58085 0.27359 0.0
H581 H 0.11783 0.62312 0.28439 0.0
H582 H 0.10994 0.63861 0.22864 0.0
H583 H 0.09605 0.59642 0.21776 0.0
H584 H 0.07657 0.55337 0.18552 0.0
H585 H 0.0569 0.53799 0.15465 0.0
H586 H 0.02469 0.46479 0.17023 0.0
H587 H 0.04479 0.4801 0.20122 0.0
H588 H 0.08025 0.47583 0.23487 0.0
H589 H 0.09566 0.4543 0.2518 0.0
H590 H 0.13254 0.51635 0.29197 0.0
H591 H 0.11739 0.53796 0.27517 0.0
N592 N 0.09655 0.54598 0.24863 0.0
N593 N 0.08049 0.55062 0.221 0.0
N594 N 0.07897 0.51376 0.22534 0.0
C595 C 0.09159 0.5599 0.23807 0.0
C596 C 0.07397 0.52754 0.21459 0.0
C597 C 0.0904 0.52293 0.24238 0.0
C598 C 0.09905 0.58525 0.24479 0.0
C599 C 0.10519 0.59323 0.26363 0.0
C600 C 0.11292 0.61737 0.26985 0.0
C601 C 0.11501 0.63409 0.25733 0.0
C602 C 0.10866 0.6261 0.23855 0.0
C603 C 0.1006 0.60191 0.23236 0.0
C604 C 0.06219 0.51795 0.19582 0.0
C605 C 0.06536 0.53398 0.18239 0.0
C606 C 0.05424 0.5252 0.16468 0.0
C607 C 0.03937 0.50023 0.16009 0.0
C608 C 0.03607 0.48413 0.17348 0.0
C609 C 0.04761 0.49289 0.19114 0.0
C610 C 0.09773 0.50877 0.25351 0.0
C611 C 0.09146 0.48483 0.24741 0.0
C612 C 0.52625 0.62282 0.24931 0.0
C613 C 0.52051 0.63498 0.26275 0.0
C614 C 0.49714 0.62602 0.26549 0.0
C615 C 0.47987 0.60463 0.25555 0.0
H616 H 0.41211 0.54759 0.25789 0.0
H617 H 0.38092 0.52389 0.27649 0.0
H618 H 0.37511 0.45794 0.25162 0.0
H619 H 0.40599 0.48188 0.23232 0.0
H620 H 0.43545 0.48983 0.19381 0.0
H621 H 0.44315 0.47552 0.16472 0.0
H622 H 0.49118 0.54947 0.15498 0.0
H623 H 0.48371 0.56379 0.18391 0.0
H624 H 0.51399 0.59245 0.22914 0.0
H625 H 0.54417 0.62947 0.24691 0.0
H626 H 0.49231 0.63504 0.27583 0.0
H627 H 0.46204 0.59773 0.25835 0.0
N628 N 0.44818 0.5543 0.24141 0.0
N629 N 0.43587 0.52291 0.21775 0.0
N630 N 0.47098 0.55946 0.21702 0.0
C631 C 0.43226 0.53165 0.23388 0.0
C632 C 0.45512 0.53693 0.20911 0.0
C633 C 0.46764 0.56824 0.23317 0.0
C634 C 0.41173 0.51665 0.24377 0.0
C635 C 0.40411 0.52802 0.25627 0.0
C636 C 0.38628 0.51439 0.26706 0.0
C637 C 0.37579 0.48898 0.26592 0.0
C638 C 0.38275 0.47746 0.25286 0.0
C639 C 0.40048 0.49117 0.24182 0.0
C640 C 0.45903 0.52796 0.19126 0.0
C641 C 0.44756 0.50303 0.18541 0.0
C642 C 0.45202 0.49482 0.16881 0.0
C643 C 0.46771 0.51138 0.15756 0.0
C644 C 0.47882 0.53628 0.16325 0.0
C645 C 0.47465 0.54446 0.17993 0.0
C646 C 0.48563 0.59207 0.24242 0.0
C647 C 0.50897 0.60171 0.2391 0.0
Tb648 Tb 0.52348 0.01386 0.0027 0.0
C649 C 0.50438 0.96095 0.01486 0.0
Tb650 Tb 0.47035 0.98069 0.00357 0.0
O651 O 0.52497 0.03684 0.02685 0.0
O652 O 0.49957 0.00079 0.0227 0.0
O653 O 0.52252 0.98049 0.00953 0.0
C654 C 0.42793 0.9506 0.01259 0.0
O655 O 0.48327 0.95813 0.01448 0.0
C656 C 0.48587 0.98543 0.97101 0.0
C657 C 0.48994 0.03383 0.99319 0.0
O658 O 0.43842 0.94567 1.00009 0.0
O659 O 0.44124 0.97275 0.01994 0.0
O660 O 0.46521 0.98111 0.97373 0.0
O661 O 0.49576 0.98493 0.98592 0.0
O662 O 0.47311 0.01588 1.00105 0.0
O663 O 0.50972 0.03473 0.99025 0.0
C664 C 0.56657 0.03641 0.99281 0.0
O665 O 0.56096 0.03043 0.00927 0.0
O666 O 0.54798 0.02963 0.98203 0.0
C667 C 0.50611 0.02001 0.03275 0.0
Tb668 Tb 0.98501 0.50204 0.99844 0.0
C669 C 0.03837 0.53964 0.00991 0.0
Tb670 Tb 0.01828 0.4827 0.00566 0.0
O671 O 0.96816 0.48798 0.02359 0.0
O672 O 0.0026 0.49802 0.02151 0.0
O673 O 0.01798 0.53645 0.00341 0.0
C674 C 0.04951 0.47113 0.01708 0.0
O675 O 0.04198 0.5213 0.01233 0.0
C676 C 0.00445 0.48094 0.97107 0.0
C677 C 0.96569 0.44572 0.997 0.0
O678 O 0.04978 0.48158 0.00231 0.0
O679 O 0.03167 0.46735 0.02571 0.0
O680 O 0.00944 0.46547 0.97752 0.0
O681 O 0.00882 0.49725 0.98365 0.0
O682 O 0.98483 0.45029 0.00695 0.0
O683 O 0.96322 0.46316 0.99004 0.0
C684 C 0.9622 0.52159 0.98277 0.0
O685 O 0.96331 0.50325 0.97555 0.0
O686 O 0.97369 0.52877 0.99891 0.0
C687 C 0.98616 0.48814 0.03138 0.0
Tb688 Tb 0.49119 0.50036 0.00901 0.0
C689 C 0.49683 0.45376 1.00012 0.0
Tb690 Tb 0.53938 0.5066 0.00651 0.0
O691 O 0.49269 0.51632 0.98312 0.0
O692 O 0.51034 0.49759 0.98796 0.0
O693 O 0.48277 0.46225 0.00394 0.0
C694 C 0.58089 0.51891 0.99545 0.0
O695 O 0.5194 0.46791 0.99915 0.0
C696 C 0.5226 0.49723 0.03856 0.0
C697 C 0.53414 0.55289 0.01457 0.0
O698 O 0.57638 0.5197 0.01245 0.0
O699 O 0.562 0.51094 0.98474 0.0
O700 O 0.53689 0.49064 0.03284 0.0
O701 O 0.52034 0.51013 0.02726 0.0
O702 O 0.54651 0.54403 0.00742 0.0
O703 O 0.51281 0.53857 0.01912 0.0
C704 C 0.45044 0.4896 0.02075 0.0
O705 O 0.45903 0.50128 0.00657 0.0
O706 O 0.46466 0.48364 0.02824 0.0
C707 C 0.50755 0.51078 0.97717 0.0
Tb708 Tb 0.19688 0.35554 0.33776 0.0
C709 C 0.17643 0.30257 0.34869 0.0
Tb710 Tb 0.14304 0.32244 0.33585 0.0
O711 O 0.20044 0.35491 0.36756 0.0
O712 O 0.17 0.35017 0.35417 0.0
O713 O 0.19462 0.32105 0.34246 0.0
C714 C 0.09997 0.2926 0.34404 0.0
O715 O 0.15591 0.301 0.34879 0.0
C716 C 0.16063 0.32887 0.30409 0.0
C717 C 0.16306 0.3761 0.32701 0.0
O718 O 0.11073 0.28747 0.33192 0.0
O719 O 0.11328 0.31472 0.35126 0.0
O720 O 0.13913 0.3223 0.30584 0.0
O721 O 0.16996 0.32824 0.31934 0.0
O722 O 0.14474 0.35668 0.33214 0.0
O723 O 0.1839 0.37829 0.3268 0.0
C724 C 0.24055 0.38387 0.33014 0.0
O725 O 0.2299 0.38975 0.34188 0.0
O726 O 0.22675 0.36186 0.32284 0.0
C727 C 0.1792 0.34936 0.36941 0.0
Tb728 Tb 0.64653 0.84635 0.33604 0.0
C729 C 0.69924 0.88731 0.34336 0.0
Tb730 Tb 0.68377 0.83107 0.34219 0.0
O731 O 0.652 0.85954 0.36505 0.0
O732 O 0.65744 0.83137 0.35669 0.0
O733 O 0.67771 0.88228 0.33869 0.0
C734 C 0.71554 0.82557 0.36149 0.0
O735 O 0.70512 0.87051 0.34538 0.0
C736 C 0.67207 0.83224 0.30772 0.0
C737 C 0.63271 0.79065 0.33144 0.0
O738 O 0.70679 0.81585 0.34482 0.0
O739 O 0.7065 0.83829 0.36703 0.0
O740 O 0.68239 0.82051 0.31275 0.0
O741 O 0.67233 0.84519 0.32147 0.0
O742 O 0.65227 0.79616 0.34123 0.0
O743 O 0.62799 0.80751 0.32633 0.0
C744 C 0.6132 0.85495 0.32414 0.0
O745 O 0.61191 0.84145 0.33718 0.0
O746 O 0.63331 0.86373 0.31779 0.0
C747 C 0.65945 0.84542 0.37032 0.0
Tb748 Tb 0.13563 0.82367 0.33268 0.0
C749 C 0.15691 0.79519 0.31475 0.0
Tb750 Tb 0.188 0.85174 0.32822 0.0
O751 O 0.12822 0.81796 0.30278 0.0
O752 O 0.15782 0.84878 0.31506 0.0
O753 O 0.14024 0.79315 0.32489 0.0
C754 C 0.2284 0.87263 0.3136 0.0
O755 O 0.17537 0.8165 0.31256 0.0
C756 C 0.177 0.83776 0.36098 0.0
C757 C 0.16674 0.87982 0.34754 0.0
O758 O 0.22172 0.85521 0.32429 0.0
O759 O 0.21253 0.87846 0.31142 0.0
O760 O 0.1967 0.85635 0.358 0.0
O761 O 0.16597 0.82671 0.34577 0.0
O762 O 0.18429 0.88203 0.33853 0.0
O763 O 0.14725 0.8588 0.348 0.0
C764 C 0.09296 0.80412 0.34342 0.0
O765 O 0.09953 0.81447 0.32841 0.0
O766 O 0.1104 0.80461 0.35245 0.0
C767 C 0.14728 0.83725 0.29984 0.0
Tb768 Tb 0.85902 0.68232 0.66436 0.0
C769 C 0.84891 0.62975 0.6745 0.0
Tb770 Tb 0.80899 0.64115 0.66728 0.0
O771 O 0.86072 0.70012 0.69148 0.0
O772 O 0.83914 0.66287 0.6852 0.0
O773 O 0.86412 0.65154 0.6697 0.0
C774 C 0.76687 0.61263 0.67777 0.0
O775 O 0.82697 0.62286 0.67645 0.0
C776 C 0.82478 0.64353 0.63492 0.0
C777 C 0.81811 0.69298 0.65766 0.0
O778 O 0.77453 0.60903 0.6627 0.0
O779 O 0.78289 0.6325 0.68698 0.0
O780 O 0.80869 0.62359 0.64051 0.0
O781 O 0.829 0.66082 0.64643 0.0
O782 O 0.80398 0.6721 0.66427 0.0
O783 O 0.8397 0.69934 0.65433 0.0
C784 C 0.89937 0.70423 0.64961 0.0
O785 O 0.89305 0.71459 0.66202 0.0
O786 O 0.88311 0.68186 0.64576 0.0
C787 C 0.84399 0.68028 0.69685 0.0
Tb788 Tb 0.31631 0.17745 0.67607 0.0
C789 C 0.36767 0.21081 0.69328 0.0
Tb790 Tb 0.34789 0.15542 0.67841 0.0
O791 O 0.29576 0.15489 0.69712 0.0
O792 O 0.33027 0.1654 0.69689 0.0
O793 O 0.34868 0.2102 0.68621 0.0
C794 C 0.37958 0.14345 0.68749 0.0
O795 O 0.3702 0.19145 0.69275 0.0
C796 C 0.34096 0.16718 0.64585 0.0
C797 C 0.29698 0.12275 0.66164 0.0
O798 O 0.38143 0.1587 0.67579 0.0
O799 O 0.35952 0.13446 0.69409 0.0
O800 O 0.3449 0.14961 0.64838 0.0
O801 O 0.34274 0.17816 0.66119 0.0
O802 O 0.314 0.12266 0.67179 0.0
O803 O 0.29627 0.14286 0.65966 0.0
C804 C 0.29403 0.20007 0.66545 0.0
O805 O 0.30124 0.20028 0.68236 0.0
O806 O 0.29932 0.18716 0.65469 0.0
C807 C 0.3124 0.15244 0.70464 0.0
Tb808 Tb 0.81698 0.16645 0.67378 0.0
C809 C 0.82608 0.12222 0.66388 0.0
Tb810 Tb 0.86562 0.1762 0.66807 0.0
O811 O 0.81243 0.17766 0.64681 0.0
O812 O 0.83429 0.1636 0.65138 0.0
O813 O 0.81183 0.12956 0.66965 0.0
C814 C 0.90814 0.19269 0.65788 0.0
O815 O 0.84772 0.1375 0.66064 0.0
C816 C 0.85259 0.16813 0.70141 0.0
C817 C 0.85678 0.22008 0.67522 0.0
O818 O 0.90301 0.19436 0.67452 0.0
O819 O 0.88926 0.18139 0.64687 0.0
O820 O 0.86644 0.16169 0.69458 0.0
O821 O 0.84824 0.17974 0.69016 0.0
O822 O 0.86876 0.21178 0.66665 0.0
O823 O 0.83697 0.2053 0.68199 0.0
C824 C 0.77879 0.14892 0.69132 0.0
O825 O 0.78313 0.16288 0.67799 0.0
O826 O 0.79576 0.14502 0.69453 0.0
C827 C 0.82824 0.17405 0.64015 0.0
H828 H 0.31702 0.90103 0.07014 0.0
H829 H 0.29068 0.83184 0.03784 0.0
H830 H 0.32547 0.84931 0.02104 0.0
H831 H 0.34301 0.93882 0.03404 0.0
H832 H 0.36808 0.96159 0.04842 0.0
H833 H 0.34111 0.94385 0.05822 0.0
H834 H 0.36133 0.93017 0.08206 0.0
H835 H 0.38834 0.94828 0.07242 0.0
H836 H 0.37753 0.91644 0.07411 0.0
H837 H 0.36237 0.8738 0.00739 0.0
H838 H 0.40033 0.90406 0.99813 0.0
H839 H 0.40397 0.95752 0.03948 0.0
C840 C 0.31866 0.88952 0.05964 0.0
C841 C 0.30088 0.86511 0.05516 0.0
C842 C 0.30372 0.85072 0.04124 0.0
C843 C 0.32352 0.86042 0.03169 0.0
C844 C 0.34051 0.88453 0.03627 0.0
C845 C 0.33845 0.89891 0.04996 0.0
C846 C 0.35943 0.92431 0.05207 0.0
C847 C 0.35249 0.94326 0.04794 0.0
C848 C 0.37242 0.93013 0.07131 0.0
C849 C 0.37348 0.92189 0.03735 0.0
C850 C 0.36216 0.89875 0.02844 0.0
C851 C 0.37145 0.89198 0.01427 0.0
C852 C 0.39298 0.9093 0.00909 0.0
C853 C 0.40499 0.93307 0.01806 0.0
C854 C 0.39509 0.93946 0.03237 0.0
H855 H 0.12166 0.4309 0.08222 0.0
H856 H 0.15321 0.42453 0.03339 0.0
H857 H 0.12898 0.43572 0.01477 0.0
H858 H 0.06301 0.40555 0.05869 0.0
H859 H 0.05683 0.42566 0.07231 0.0
H860 H 0.07617 0.41635 0.08194 0.0
H861 H 0.10791 0.46143 0.08953 0.0
H862 H 0.08873 0.47082 0.07974 0.0
H863 H 0.11673 0.48137 0.07138 0.0
H864 H 0.10445 0.45087 0.00188 0.0
H865 H 0.07725 0.46521 0.99452 0.0
H866 H 0.05872 0.45892 0.05074 0.0
C867 C 0.12316 0.43143 0.06756 0.0
C868 C 0.13966 0.42723 0.05934 0.0
C869 C 0.14116 0.42828 0.04011 0.0
C870 C 0.12736 0.43445 0.02937 0.0
C871 C 0.1118 0.43914 0.03795 0.0
C872 C 0.10926 0.43732 0.05652 0.0
C873 C 0.09116 0.44346 0.06217 0.0
C874 C 0.07057 0.42144 0.06919 0.0
C875 C 0.10178 0.46559 0.07656 0.0
C876 C 0.08433 0.44939 0.04391 0.0
C877 C 0.09662 0.4469 0.03021 0.0
C878 C 0.09443 0.45256 0.01239 0.0
C879 C 0.07905 0.46079 0.00838 0.0
C880 C 0.06588 0.46298 0.02205 0.0
C881 C 0.06847 0.45715 0.04003 0.0
H882 H 0.54459 0.67696 0.0553 0.0
H883 H 0.61705 0.7126 0.04531 0.0
H884 H 0.61134 0.67383 0.0309 0.0
H885 H 0.54088 0.6223 0.06791 0.0
H886 H 0.51183 0.6028 0.05736 0.0
H887 H 0.52115 0.63364 0.06558 0.0
H888 H 0.50981 0.64137 0.03327 0.0
H889 H 0.5004 0.6105 0.02496 0.0
H890 H 0.52169 0.6352 0.01351 0.0
H891 H 0.59806 0.63126 0.01845 0.0
H892 H 0.5787 0.58726 0.00995 0.0
H893 H 0.51494 0.57878 0.02899 0.0
C894 C 0.55912 0.6766 0.0498 0.0
C895 C 0.58122 0.6977 0.05122 0.0
C896 C 0.60001 0.69656 0.04429 0.0
C897 C 0.5969 0.67469 0.03606 0.0
C898 C 0.57494 0.65414 0.035 0.0
C899 C 0.55638 0.65484 0.04176 0.0
C900 C 0.53493 0.62986 0.03986 0.0
C901 C 0.52673 0.62168 0.05881 0.0
C902 C 0.51556 0.6292 0.02714 0.0
C903 C 0.54435 0.61498 0.03106 0.0
C904 C 0.5674 0.6294 0.02823 0.0
C905 C 0.58 0.61978 0.02055 0.0
C906 C 0.56881 0.59472 0.01576 0.0
C907 C 0.54527 0.57948 0.01881 0.0
C908 C 0.53291 0.58989 0.02645 0.0
H909 H 0.86451 0.33353 0.93243 0.0
H910 H 0.8743 0.28664 0.96801 0.0
H911 H 0.9036 0.3225 0.98807 0.0
H912 H 0.92422 0.38177 0.93557 0.0
H913 H 0.9167 0.4052 0.93568 0.0
H914 H 0.89692 0.37556 0.92437 0.0
H915 H 0.86531 0.374 0.94439 0.0
H916 H 0.88574 0.40329 0.95604 0.0
H917 H 0.87061 0.3776 0.9691 0.0
H918 H 0.93258 0.3631 0.00369 0.0
H919 H 0.95994 0.40619 0.01377 0.0
H920 H 0.93106 0.42717 0.9686 0.0
C921 C 0.87294 0.33088 0.9444 0.0
C922 C 0.86711 0.30731 0.94871 0.0
C923 C 0.87833 0.30452 0.96458 0.0
C924 C 0.89501 0.32477 0.97602 0.0
C925 C 0.90021 0.34772 0.97151 0.0
C926 C 0.88953 0.35094 0.95611 0.0
C927 C 0.89838 0.37766 0.95447 0.0
C928 C 0.90975 0.38548 0.93645 0.0
C929 C 0.87884 0.38347 0.9561 0.0
C930 C 0.91609 0.38891 0.97109 0.0
C931 C 0.91673 0.37127 0.98077 0.0
C932 C 0.93216 0.3771 0.99629 0.0
C933 C 0.94764 0.40164 0.00191 0.0
C934 C 0.94757 0.42008 0.99207 0.0
C935 C 0.93131 0.41354 0.97661 0.0
H936 H 0.67289 0.54599 0.92198 0.0
H937 H 0.72591 0.57362 0.96792 0.0
H938 H 0.69622 0.56502 0.98951 0.0
H939 H 0.63838 0.56974 0.94107 0.0
H940 H 0.6112 0.54368 0.93213 0.0
H941 H 0.63661 0.55238 0.92015 0.0
H942 H 0.6311 0.50956 0.92161 0.0
H943 H 0.60579 0.50035 0.93381 0.0
H944 H 0.62949 0.49757 0.94357 0.0
H945 H 0.66076 0.55243 0.00619 0.0
H946 H 0.62183 0.53767 0.01674 0.0
H947 H 0.59195 0.51869 0.96007 0.0
C948 C 0.67829 0.55055 0.93656 0.0
C949 C 0.70171 0.56037 0.94327 0.0
C950 C 0.70802 0.56577 0.96248 0.0
C951 C 0.69131 0.56107 0.97485 0.0
C952 C 0.66835 0.55103 0.96781 0.0
C953 C 0.66181 0.54595 0.94912 0.0
C954 C 0.63589 0.53482 0.9452 0.0
C955 C 0.63019 0.55112 0.93397 0.0
C956 C 0.62493 0.50906 0.93547 0.0
C957 C 0.62889 0.53437 0.9646 0.0
C958 C 0.64789 0.5438 0.97744 0.0
C959 C 0.64576 0.54507 0.99628 0.0
C960 C 0.62362 0.53662 0.00214 0.0
C961 C 0.60399 0.52705 0.9892 0.0
C962 C 0.6067 0.52589 0.97023 0.0
H963 H 0.42141 0.0935 0.94715 0.0
H964 H 0.48752 0.16041 0.95016 0.0
H965 H 0.50669 0.1402 0.96453 0.0
H966 H 0.43094 0.07503 0.99058 0.0
H967 H 0.41672 0.0432 0.98284 0.0
H968 H 0.40806 0.06248 0.97211 0.0
H969 H 0.41555 0.04938 0.94022 0.0
H970 H 0.42403 0.02991 0.95085 0.0
H971 H 0.44345 0.05268 0.937 0.0
H972 H 0.51885 0.11305 0.97809 0.0
H973 H 0.52332 0.0805 0.99074 0.0
H974 H 0.44927 0.03121 0.98038 0.0
C975 C 0.43994 0.10377 0.9507 0.0
C976 C 0.45301 0.12853 0.94759 0.0
C977 C 0.47718 0.14149 0.95259 0.0
C978 C 0.48822 0.13016 0.96069 0.0
C979 C 0.47485 0.10586 0.9638 0.0
C980 C 0.45126 0.09276 0.959 0.0
C981 C 0.44098 0.06695 0.96423 0.0
C982 C 0.42312 0.06161 0.97828 0.0
C983 C 0.43038 0.04865 0.94705 0.0
C984 C 0.46247 0.06771 0.97282 0.0
C985 C 0.48182 0.09029 0.97223 0.0
C986 C 0.50382 0.09533 0.97873 0.0
C987 C 0.50618 0.07673 0.98589 0.0
C988 C 0.48662 0.05346 0.98672 0.0
C989 C 0.46445 0.04898 0.98023 0.0
H990 H 0.66318 0.09816 0.92303 0.0
H991 H 0.71219 0.13633 0.97112 0.0
H992 H 0.68176 0.11359 0.99113 0.0
H993 H 0.61619 0.10077 0.94232 0.0
H994 H 0.5943 0.07143 0.9316 0.0
H995 H 0.62046 0.08911 0.92078 0.0
H996 H 0.62814 0.0532 0.92017 0.0
H997 H 0.60205 0.03554 0.93111 0.0
H998 H 0.62932 0.04042 0.94129 0.0
H999 H 0.64614 0.08709 0.0063 0.0
H1000 H 0.60661 0.0612 0.01539 0.0
H1001 H 0.57985 0.04316 0.95791 0.0
C1002 C 0.66763 0.10191 0.93775 0.0
C1003 C 0.6905 0.11884 0.9453 0.0
C1004 C 0.69523 0.12292 0.96475 0.0
C1005 C 0.67794 0.11021 0.97635 0.0
C1006 C 0.65576 0.0937 0.96843 0.0
C1007 C 0.65043 0.08973 0.94959 0.0
C1008 C 0.62481 0.07207 0.9447 0.0
C1009 C 0.61327 0.08407 0.93424 0.0
C1010 C 0.62086 0.04893 0.93367 0.0
C1011 C 0.61666 0.06692 0.96375 0.0
C1012 C 0.63487 0.0793 0.97723 0.0
C1013 C 0.63171 0.07734 0.99588 0.0
C1014 C 0.60926 0.06257 1.00092 0.0
C1015 C 0.5903 0.05032 0.98736 0.0
C1016 C 0.5941 0.05241 0.96855 0.0
H1017 H 0.86769 0.52773 0.91587 0.0
H1018 H 0.89964 0.60374 0.9356 0.0
H1019 H 0.92938 0.60055 0.9548 0.0
H1020 H 0.87587 0.50646 0.95749 0.0
H1021 H 0.88245 0.48467 0.94708 0.0
H1022 H 0.8643 0.49312 0.93428 0.0
H1023 H 0.89182 0.50595 0.90814 0.0
H1024 H 0.90933 0.49657 0.92076 0.0
H1025 H 0.92228 0.52694 0.9138 0.0
H1026 H 0.95294 0.58797 0.97413 0.0
H1027 H 0.97177 0.56804 0.9897 0.0
H1028 H 0.9266 0.50109 0.95555 0.0
C1029 C 0.88115 0.54371 0.92409 0.0
C1030 C 0.88152 0.56599 0.92432 0.0
C1031 C 0.89929 0.5866 0.93517 0.0
C1032 C 0.91614 0.58492 0.94615 0.0
C1033 C 0.91515 0.5626 0.94583 0.0
C1034 C 0.89838 0.54247 0.93483 0.0
C1035 C 0.90119 0.52064 0.93705 0.0
C1036 C 0.87967 0.50001 0.94442 0.0
C1037 C 0.90649 0.51204 0.91886 0.0
C1038 C 0.92191 0.53153 0.95126 0.0
C1039 C 0.92953 0.55569 0.95628 0.0
C1040 C 0.9474 0.56919 0.9701 0.0
C1041 C 0.95789 0.55772 0.97892 0.0
C1042 C 0.95068 0.53319 0.97367 0.0
C1043 C 0.93257 0.51999 0.95962 0.0
H1044 H 0.41896 0.32137 0.94665 0.0
H1045 H 0.46697 0.30327 0.97358 0.0
H1046 H 0.48709 0.3433 0.9912 0.0
H1047 H 0.46082 0.38339 0.94208 0.0
H1048 H 0.44168 0.39486 0.94654 0.0
H1049 H 0.43004 0.36419 0.93655 0.0
H1050 H 0.40334 0.34837 0.96291 0.0
H1051 H 0.41502 0.37902 0.97304 0.0
H1052 H 0.41587 0.3566 0.98645 0.0
H1053 H 0.5037 0.38552 0.00441 0.0
H1054 H 0.51601 0.42842 0.01275 0.0
H1055 H 0.45728 0.42026 0.97845 0.0
C1056 C 0.43365 0.32585 0.95631 0.0
C1057 C 0.44115 0.30896 0.95891 0.0
C1058 C 0.46052 0.31558 0.97164 0.0
C1059 C 0.47217 0.33836 0.98167 0.0
C1060 C 0.46429 0.35445 0.97891 0.0
C1061 C 0.4455 0.34862 0.96659 0.0
C1062 C 0.44121 0.36979 0.966 0.0
C1063 C 0.44359 0.37858 0.94664 0.0
C1064 C 0.41745 0.36304 0.97249 0.0
C1065 C 0.46073 0.38845 0.97971 0.0
C1066 C 0.47376 0.37907 0.98695 0.0
C1067 C 0.49349 0.39301 0.99904 0.0
C1068 C 0.50036 0.41733 0.00368 0.0
C1069 C 0.48742 0.42745 0.99643 0.0
C1070 C 0.46713 0.41274 0.98451 0.0
H1071 H 0.09631 0.68075 0.04481 0.0
H1072 H 0.15282 0.67483 0.07054 0.0
H1073 H 0.13507 0.63266 0.05638 0.0
H1074 H 0.05191 0.62066 0.0519 0.0
H1075 H 0.03504 0.61574 0.03041 0.0
H1076 H 0.05299 0.64603 0.0414 0.0
H1077 H 0.07376 0.65941 0.01172 0.0
H1078 H 0.05595 0.62909 1.00069 0.0
H1079 H 0.08703 0.64334 0.00202 0.0
H1080 H 0.11146 0.59163 0.04009 0.0
H1081 H 0.08144 0.55216 0.02505 0.0
H1082 H 0.03846 0.58309 0.01068 0.0
C1083 C 0.10489 0.67049 0.04729 0.0
C1084 C 0.12592 0.68082 0.05862 0.0
C1085 C 0.13669 0.66703 0.06186 0.0
C1086 C 0.12681 0.6432 0.05381 0.0
C1087 C 0.10607 0.63342 0.04269 0.0
C1088 C 0.09503 0.64645 0.03956 0.0
C1089 C 0.07211 0.63092 0.02798 0.0
C1090 C 0.05182 0.62817 0.03856 0.0
C1091 C 0.07223 0.64132 0.00951 0.0
C1092 C 0.07193 0.60711 0.02531 0.0
C1093 C 0.0919 0.60919 0.03369 0.0
C1094 C 0.09574 0.58974 0.03345 0.0
C1095 C 0.07851 0.56734 0.0248 0.0
C1096 C 0.05745 0.56436 0.01664 0.0
C1097 C 0.05436 0.58472 0.01667 0.0
H1098 H 0.34152 0.42823 0.07995 0.0
H1099 H 0.31539 0.4686 0.05123 0.0
H1100 H 0.35055 0.48766 0.03489 0.0
H1101 H 0.40303 0.47695 0.08502 0.0
H1102 H 0.41282 0.4555 0.08163 0.0
H1103 H 0.38611 0.44662 0.09172 0.0
H1104 H 0.36536 0.41042 0.06633 0.0
H1105 H 0.39206 0.42022 0.05598 0.0
H1106 H 0.36697 0.4164 0.04248 0.0
H1107 H 0.38683 0.50046 0.02028 0.0
H1108 H 0.4237 0.50787 0.00909 0.0
H1109 H 0.42768 0.46066 0.04773 0.0
C1110 C 0.34339 0.44135 0.07043 0.0
C1111 C 0.32559 0.44672 0.06671 0.0
C1112 C 0.32859 0.46384 0.05403 0.0
C1113 C 0.34856 0.47491 0.04477 0.0
C1114 C 0.36554 0.46888 0.04844 0.0
C1115 C 0.36335 0.45269 0.06105 0.0
C1116 C 0.38407 0.44904 0.06199 0.0
C1117 C 0.39729 0.45756 0.08123 0.0
C1118 C 0.37666 0.42244 0.05635 0.0
C1119 C 0.39803 0.46549 0.04777 0.0
C1120 C 0.38694 0.47671 0.04016 0.0
C1121 C 0.39583 0.492 0.02624 0.0
C1122 C 0.4167 0.49601 0.01993 0.0
C1123 C 0.42845 0.48488 0.02759 0.0
C1124 C 0.41905 0.46949 0.04173 0.0
H1125 H 0.57269 0.89342 0.04562 0.0
H1126 H 0.51472 0.84988 0.07664 0.0
H1127 H 0.49429 0.87021 0.06467 0.0
H1128 H 0.57117 0.94826 0.05381 0.0
H1129 H 0.579 0.95822 0.03136 0.0
H1130 H 0.58851 0.93918 0.04132 0.0
H1131 H 0.56963 0.90805 0.01262 0.0
H1132 H 0.56005 0.927 0.00257 0.0
H1133 H 0.53939 0.89586 0.00547 0.0
H1134 H 0.48045 0.89522 0.04995 0.0
H1135 H 0.47452 0.92519 0.03468 0.0
H1136 H 0.5421 0.95433 0.01389 0.0
C1137 C 0.55559 0.88806 0.04968 0.0
C1138 C 0.54513 0.87006 0.06195 0.0
C1139 C 0.52294 0.8637 0.06727 0.0
C1140 C 0.51121 0.87505 0.06049 0.0
C1141 C 0.52201 0.89286 0.04852 0.0
C1142 C 0.54374 0.89951 0.04323 0.0
C1143 C 0.55184 0.92014 0.03098 0.0
C1144 C 0.57394 0.94279 0.03991 0.0
C1145 C 0.55544 0.91228 0.01177 0.0
C1146 C 0.53129 0.92406 0.0303 0.0
C1147 C 0.51422 0.90791 0.04037 0.0
C1148 C 0.49364 0.90793 0.04197 0.0
C1149 C 0.49043 0.92504 0.03316 0.0
C1150 C 0.50781 0.94213 0.02299 0.0
C1151 C 0.52848 0.94151 0.02152 0.0
H1152 H 0.99488 0.24295 0.40784 0.0
H1153 H 0.96396 0.17512 0.37294 0.0
H1154 H 0.99704 0.19247 0.35423 0.0
H1155 H 0.01824 0.28238 0.37225 0.0
H1156 H 0.04471 0.30401 0.38578 0.0
H1157 H 0.0188 0.28633 0.39691 0.0
H1158 H 0.04028 0.27069 0.41753 0.0
H1159 H 0.06628 0.28848 0.40653 0.0
H1160 H 0.05463 0.25631 0.40697 0.0
H1161 H 0.03287 0.21681 0.33897 0.0
H1162 H 0.07024 0.24685 0.3285 0.0
H1163 H 0.07864 0.29911 0.37304 0.0
C1164 C 0.9952 0.23171 0.39636 0.0
C1165 C 0.97662 0.20775 0.39173 0.0
C1166 C 0.97768 0.19368 0.37654 0.0
C1167 C 0.99649 0.20331 0.36587 0.0
C1168 C 0.01427 0.22704 0.37058 0.0
C1169 C 0.01395 0.24107 0.38551 0.0
C1170 C 0.03538 0.26614 0.38741 0.0
C1171 C 0.02888 0.28588 0.38547 0.0
C1172 C 0.05 0.27066 0.40569 0.0
C1173 C 0.0476 0.26398 0.37115 0.0
C1174 C 0.03511 0.24122 0.36168 0.0
C1175 C 0.04284 0.23471 0.34624 0.0
C1176 C 0.06403 0.25188 0.34038 0.0
C1177 C 0.07716 0.27526 0.34988 0.0
C1178 C 0.06879 0.2814 0.36542 0.0
H1179 H 0.794 0.76843 0.38935 0.0
H1180 H 0.80902 0.80852 0.44292 0.0
H1181 H 0.78504 0.82576 0.4326 0.0
H1182 H 0.79499 0.81452 0.36251 0.0
H1183 H 0.77133 0.79332 0.34619 0.0
H1184 H 0.78975 0.78414 0.3577 0.0
H1185 H 0.75396 0.74815 0.3695 0.0
H1186 H 0.73542 0.75716 0.35797 0.0
H1187 H 0.73465 0.75391 0.38229 0.0
H1188 H 0.76024 0.83923 0.41645 0.0
H1189 H 0.73414 0.84629 0.39603 0.0
H1190 H 0.73431 0.79693 0.35297 0.0
C1191 C 0.7923 0.78093 0.39886 0.0
C1192 C 0.80335 0.78715 0.41695 0.0
C1193 C 0.80051 0.80331 0.42908 0.0
C1194 C 0.78706 0.81331 0.42331 0.0
C1195 C 0.77649 0.80689 0.40538 0.0
C1196 C 0.77879 0.79094 0.39336 0.0
C1197 C 0.76515 0.78667 0.37496 0.0
C1198 C 0.78127 0.79518 0.35942 0.0
C1199 C 0.74617 0.75988 0.37095 0.0
C1200 C 0.75487 0.80275 0.37851 0.0
C1201 C 0.76179 0.81435 0.39613 0.0
C1202 C 0.75468 0.83022 0.40265 0.0
C1203 C 0.73987 0.83412 0.39094 0.0
C1204 C 0.73218 0.82207 0.37299 0.0
C1205 C 0.73994 0.80634 0.36665 0.0
H1206 H 0.22357 0.02065 0.382 0.0
H1207 H 0.17531 0.99832 0.42395 0.0
H1208 H 0.15828 0.95555 0.4116 0.0
H1209 H 0.18435 0.97635 0.34517 0.0
H1210 H 0.20621 0.97131 0.33602 0.0
H1211 H 0.21422 1.00029 0.34779 0.0
H1212 H 0.24352 0.99688 0.37021 0.0
H1213 H 0.23559 0.96789 0.35851 0.0
H1214 H 0.23366 0.97061 0.38293 0.0
H1215 H 0.14662 0.91545 0.39498 0.0
H1216 H 0.14167 0.88012 0.37564 0.0
H1217 H 0.19802 0.92803 0.34469 0.0
C1218 C 0.20927 0.00673 0.38844 0.0
C1219 C 0.20071 0.01273 0.40391 0.0
C1220 C 0.18221 0.99405 0.41217 0.0
C1221 C 0.17238 0.96975 0.40521 0.0
C1222 C 0.1813 0.96441 0.39003 0.0
C1223 C 0.19938 0.98231 0.38177 0.0
C1224 C 0.20614 0.97149 0.36597 0.0
C1225 C 0.2025 0.98039 0.34765 0.0
C1226 C 0.23121 0.97705 0.36963 0.0
C1227 C 0.18899 0.94475 0.36664 0.0
C1228 C 0.17477 0.94112 0.38057 0.0
C1229 C 0.15757 0.91805 0.38396 0.0
C1230 C 0.15484 0.8981 0.37283 0.0
C1231 C 0.16933 0.9013 0.35853 0.0
C1232 C 0.18665 0.92499 0.35547 0.0
H1233 H 0.52588 0.68033 0.26944 0.0
H1234 H 0.5566 0.63676 0.28298 0.0
H1235 H 0.58716 0.67113 0.30361 0.0
H1236 H 0.57994 0.73575 0.26788 0.0
H1237 H 0.56983 0.75496 0.27746 0.0
H1238 H 0.54971 0.72656 0.26449 0.0
H1239 H 0.52472 0.71345 0.29208 0.0
H1240 H 0.54487 0.74177 0.30517 0.0
H1241 H 0.53782 0.71348 0.31427 0.0
H1242 H 0.61417 0.70987 0.32266 0.0
H1243 H 0.63825 0.75176 0.33684 0.0
H1244 H 0.59113 0.77123 0.31007 0.0
C1245 C 0.53901 0.67809 0.27685 0.0
C1246 C 0.53894 0.65595 0.27472 0.0
C1247 C 0.5565 0.65366 0.2844 0.0
C1248 C 0.5738 0.673 0.29621 0.0
C1249 C 0.5734 0.69458 0.29806 0.0
C1250 C 0.55666 0.69739 0.2885 0.0
C1251 C 0.56101 0.72297 0.29224 0.0
C1252 C 0.56539 0.73581 0.27446 0.0
C1253 C 0.54091 0.7229 0.3015 0.0
C1254 C 0.58279 0.73406 0.30539 0.0
C1255 C 0.58945 0.71726 0.3087 0.0
C1256 C 0.60914 0.7232 0.32019 0.0
C1257 C 0.62268 0.7471 0.32823 0.0
C1258 C 0.61663 0.76489 0.32464 0.0
C1259 C 0.5962 0.75809 0.31323 0.0
H1260 H 0.33825 0.87617 0.27356 0.0
H1261 H 0.34864 0.93916 0.24642 0.0
H1262 H 0.31488 0.93702 0.26005 0.0
H1263 H 0.27647 0.84422 0.26874 0.0
H1264 H 0.27365 0.83284 0.29103 0.0
H1265 H 0.29861 0.83923 0.27905 0.0
H1266 H 0.32552 0.86788 0.30713 0.0
H1267 H 0.30063 0.8616 0.3192 0.0
H1268 H 0.3218 0.89246 0.316 0.0
H1269 H 0.27953 0.92755 0.27598 0.0
H1270 H 0.24515 0.91158 0.29357 0.0
H1271 H 0.25889 0.85609 0.31158 0.0
C1272 C 0.33361 0.88968 0.27061 0.0
C1273 C 0.34608 0.90776 0.2588 0.0
C1274 C 0.33915 0.92486 0.25513 0.0
C1275 C 0.32009 0.92393 0.26293 0.0
C1276 C 0.30823 0.9059 0.27448 0.0
C1277 C 0.31473 0.88913 0.27838 0.0
C1278 C 0.29897 0.87154 0.29121 0.0
C1279 C 0.28617 0.84541 0.28195 0.0
C1280 C 0.31254 0.8735 0.30947 0.0
C1281 C 0.28255 0.88101 0.29388 0.0
C1282 C 0.28817 0.90081 0.28406 0.0
C1283 C 0.27507 0.9122 0.28385 0.0
C1284 C 0.25563 0.90304 0.29388 0.0
C1285 C 0.24962 0.88283 0.30404 0.0
C1286 C 0.26334 0.8718 0.30412 0.0
H1287 H 0.09507 0.43654 0.28202 0.0
H1288 H 0.1611 0.50358 0.28509 0.0
H1289 H 0.18018 0.48367 0.30008 0.0
H1290 H 0.1048 0.4179 0.326 0.0
H1291 H 0.09041 0.38618 0.31788 0.0
H1292 H 0.08177 0.40578 0.30766 0.0
H1293 H 0.08881 0.39305 0.27547 0.0
H1294 H 0.09741 0.37339 0.28559 0.0
H1295 H 0.11663 0.39644 0.27182 0.0
H1296 H 0.19244 0.45615 0.31329 0.0
H1297 H 0.19688 0.4231 0.32501 0.0
H1298 H 0.12277 0.3741 0.31427 0.0
C1299 C 0.11354 0.44699 0.28586 0.0
C1300 C 0.1266 0.47164 0.28247 0.0
C1301 C 0.15071 0.48478 0.28779 0.0
C1302 C 0.16172 0.4736 0.29622 0.0
C1303 C 0.14837 0.44931 0.29936 0.0
C1304 C 0.12479 0.43617 0.29445 0.0
C1305 C 0.11452 0.41026 0.29934 0.0
C1306 C 0.09683 0.40471 0.31357 0.0
C1307 C 0.10371 0.39223 0.28202 0.0
C1308 C 0.13605 0.41087 0.30761 0.0
C1309 C 0.15539 0.43355 0.30742 0.0
C1310 C 0.17741 0.43836 0.31367 0.0
C1311 C 0.17975 0.41946 0.32027 0.0
C1312 C 0.16016 0.39608 0.32071 0.0
C1313 C 0.13803 0.39186 0.31438 0.0
H1314 H 0.33592 0.44388 0.25917 0.0
H1315 H 0.37642 0.50212 0.3023 0.0
H1316 H 0.34708 0.48062 0.32359 0.0
H1317 H 0.28036 0.43116 0.27038 0.0
H1318 H 0.26694 0.39873 0.26583 0.0
H1319 H 0.29138 0.41841 0.25389 0.0
H1320 H 0.31296 0.39672 0.2654 0.0
H1321 H 0.28849 0.3771 0.27739 0.0
H1322 H 0.31678 0.39478 0.28972 0.0
H1323 H 0.31226 0.45477 0.33958 0.0
H1324 H 0.27468 0.42465 0.34976 0.0
H1325 H 0.25775 0.38145 0.29744 0.0
C1326 C 0.33881 0.45196 0.27315 0.0
C1327 C 0.35841 0.47496 0.27889 0.0
C1328 C 0.36133 0.48489 0.29734 0.0
C1329 C 0.34484 0.4727 0.30964 0.0
C1330 C 0.32562 0.45034 0.30346 0.0
C1331 C 0.32258 0.43989 0.28574 0.0
C1332 C 0.30013 0.41572 0.28266 0.0
C1333 C 0.28375 0.41605 0.26727 0.0
C1334 C 0.30488 0.39484 0.27855 0.0
C1335 C 0.29087 0.41457 0.30129 0.0
C1336 C 0.30588 0.43477 0.31306 0.0
C1337 C 0.30052 0.43866 0.33062 0.0
C1338 C 0.27917 0.42152 0.33627 0.0
C1339 C 0.26361 0.40066 0.32449 0.0
C1340 C 0.26964 0.39701 0.30686 0.0
H1341 H 0.54426 0.89404 0.25463 0.0
H1342 H 0.4959 0.87927 0.29612 0.0
H1343 H 0.51825 0.86718 0.31616 0.0
H1344 H 0.55551 0.84583 0.26189 0.0
H1345 H 0.58595 0.86342 0.25898 0.0
H1346 H 0.56591 0.87048 0.24744 0.0
H1347 H 0.58957 0.91475 0.26238 0.0
H1348 H 0.60974 0.90786 0.2739 0.0
H1349 H 0.59551 0.92037 0.28705 0.0
H1350 H 0.54479 0.85534 0.33141 0.0
H1351 H 0.57585 0.84736 0.34185 0.0
H1352 H 0.6088 0.87261 0.29181 0.0
C1353 C 0.53845 0.8885 0.26799 0.0
C1354 C 0.518 0.88727 0.27358 0.0
C1355 C 0.51106 0.87974 0.2912 0.0
C1356 C 0.52376 0.873 0.3028 0.0
C1357 C 0.5436 0.87417 0.29677 0.0
C1358 C 0.55111 0.88197 0.27989 0.0
C1359 C 0.57337 0.882 0.27698 0.0
C1360 C 0.56997 0.86438 0.26033 0.0
C1361 C 0.59322 0.90778 0.27496 0.0
C1362 C 0.5771 0.87294 0.29485 0.0
C1363 C 0.55957 0.86833 0.30597 0.0
C1364 C 0.55873 0.85908 0.32291 0.0
C1365 C 0.57638 0.85456 0.3287 0.0
C1366 C 0.59471 0.85959 0.31769 0.0
C1367 C 0.59508 0.8689 0.30057 0.0
H1368 H 0.10223 0.6532 0.28591 0.0
H1369 H 0.14924 0.67331 0.24309 0.0
H1370 H 0.16559 0.71661 0.25364 0.0
H1371 H 0.09055 0.7021 0.28258 0.0
H1372 H 0.08912 0.70633 0.30695 0.0
H1373 H 0.08154 0.67689 0.29637 0.0
H1374 H 0.11177 0.67568 0.31923 0.0
H1375 H 0.11947 0.70515 0.32986 0.0
H1376 H 0.14144 0.70003 0.32104 0.0
H1377 H 0.17721 0.75739 0.26902 0.0
H1378 H 0.18183 0.79351 0.28693 0.0
H1379 H 0.1264 0.74727 0.31934 0.0
C1380 C 0.11606 0.66676 0.27886 0.0
C1381 C 0.12455 0.65999 0.26371 0.0
C1382 C 0.14242 0.67818 0.25464 0.0
C1383 C 0.15188 0.70277 0.26059 0.0
C1384 C 0.14313 0.70886 0.27555 0.0
C1385 C 0.12551 0.69143 0.28448 0.0
C1386 C 0.1188 0.70296 0.29983 0.0
C1387 C 0.0935 0.6967 0.29621 0.0
C1388 C 0.12314 0.69551 0.3186 0.0
C1389 C 0.13546 0.72958 0.29814 0.0
C1390 C 0.14945 0.73252 0.28414 0.0
C1391 C 0.16635 0.75534 0.28001 0.0
C1392 C 0.16888 0.77576 0.29034 0.0
C1393 C 0.1545 0.77326 0.30459 0.0
C1394 C 0.13761 0.7498 0.30852 0.0
H1395 H 0.7652 0.01874 0.39851 0.0
H1396 H 0.82768 0.02758 0.37665 0.0
H1397 H 0.80483 0.98826 0.35811 0.0
H1398 H 0.73844 0.95434 0.40193 0.0
H1399 H 0.70956 0.94811 0.39528 0.0
H1400 H 0.73075 0.97727 0.40666 0.0
H1401 H 0.72384 0.99823 0.37966 0.0
H1402 H 0.70281 0.96908 0.36812 0.0
H1403 H 0.72715 0.98989 0.35654 0.0
H1404 H 0.77616 0.94742 0.34337 0.0
H1405 H 0.74285 0.90681 0.33325 0.0
H1406 H 0.69808 0.92443 0.363 0.0
C1407 C 0.77401 0.01233 0.38984 0.0
C1408 C 0.79821 0.02634 0.38889 0.0
C1409 C 0.80913 0.01736 0.37736 0.0
C1410 C 0.79631 0.99501 0.36681 0.0
C1411 C 0.77252 0.98182 0.36784 0.0
C1412 C 0.7614 0.99003 0.37904 0.0
C1413 C 0.73562 0.97188 0.37774 0.0
C1414 C 0.72816 0.96234 0.39652 0.0
C1415 C 0.72153 0.98294 0.37005 0.0
C1416 C 0.73411 0.95221 0.36416 0.0
C1417 C 0.75567 0.95835 0.35872 0.0
C1418 C 0.75913 0.94252 0.34729 0.0
C1419 C 0.74013 0.91955 0.34159 0.0
C1420 C 0.71793 0.91276 0.34708 0.0
C1421 C 0.71479 0.92949 0.35819 0.0
H1422 H 0.99887 0.77208 0.41573 0.0
H1423 H 0.95058 0.76227 0.36952 0.0
H1424 H 0.98011 0.76907 0.3483 0.0
H1425 H 0.04887 0.81922 0.39956 0.0
H1426 H 0.06814 0.80892 0.40752 0.0
H1427 H 0.04281 0.80181 0.41919 0.0
H1428 H 0.02935 0.75605 0.41437 0.0
H1429 H 0.05472 0.76311 0.40271 0.0
H1430 H 0.02635 0.74221 0.39147 0.0
H1431 H 0.01521 0.7801 0.33234 0.0
H1432 H 0.05404 0.79342 0.3223 0.0
H1433 H 0.07965 0.79433 0.37825 0.0
C1434 C 0.9944 0.77095 0.40112 0.0
C1435 C 0.97246 0.76687 0.39431 0.0
C1436 C 0.96739 0.76582 0.3751 0.0
C1437 C 0.98398 0.76945 0.36291 0.0
C1438 C 0.00553 0.77387 0.37007 0.0
C1439 C 0.0108 0.77445 0.38868 0.0
C1440 C 0.03564 0.7804 0.39271 0.0
C1441 C 0.04969 0.80399 0.4055 0.0
C1442 C 0.03656 0.75917 0.40079 0.0
C1443 C 0.04356 0.7836 0.3735 0.0
C1444 C 0.02584 0.77966 0.36067 0.0
C1445 C 0.02915 0.78289 0.34218 0.0
C1446 C 0.05124 0.7905 0.33662 0.0
C1447 C 0.06963 0.79462 0.34948 0.0
C1448 C 0.0657 0.79087 0.36811 0.0
H1449 H 0.23969 0.2307 0.38196 0.0
H1450 H 0.18169 0.19166 0.41413 0.0
H1451 H 0.16298 0.21339 0.40154 0.0
H1452 H 0.24156 0.28774 0.38856 0.0
H1453 H 0.24928 0.29624 0.36578 0.0
H1454 H 0.2576 0.27662 0.37638 0.0
H1455 H 0.23704 0.2444 0.34846 0.0
H1456 H 0.22865 0.26393 0.33779 0.0
H1457 H 0.20697 0.2335 0.34157 0.0
H1458 H 0.15081 0.23904 0.38607 0.0
H1459 H 0.14631 0.26919 0.36985 0.0
H1460 H 0.21285 0.29361 0.34811 0.0
C1461 C 0.22295 0.22667 0.38612 0.0
C1462 C 0.21189 0.20947 0.39883 0.0
C1463 C 0.19023 0.20476 0.40432 0.0
C1464 C 0.17951 0.21695 0.39723 0.0
C1465 C 0.19082 0.23391 0.38479 0.0
C1466 C 0.2121 0.23897 0.37934 0.0
C1467 C 0.22087 0.25895 0.36645 0.0
C1468 C 0.24368 0.28121 0.3748 0.0
C1469 C 0.22353 0.24963 0.34744 0.0
C1470 C 0.20119 0.2643 0.36559 0.0
C1471 C 0.184 0.24942 0.37616 0.0
C1472 C 0.16409 0.25078 0.3777 0.0
C1473 C 0.1617 0.26796 0.36832 0.0
C1474 C 0.17916 0.28374 0.35754 0.0
C1475 C 0.19917 0.2818 0.35617 0.0
H1476 H 0.66054 0.5676 0.73972 0.0
H1477 H 0.62731 0.50009 0.70418 0.0
H1478 H 0.66053 0.51647 0.68563 0.0
H1479 H 0.68723 0.60769 0.70469 0.0
H1480 H 0.71361 0.62762 0.719 0.0
H1481 H 0.68677 0.61112 0.72928 0.0
H1482 H 0.70473 0.59199 0.75029 0.0
H1483 H 0.73161 0.60944 0.74037 0.0
H1484 H 0.71865 0.57698 0.73994 0.0
H1485 H 0.69694 0.5397 0.67084 0.0
H1486 H 0.73541 0.56817 0.6613 0.0
H1487 H 0.74656 0.61983 0.7073 0.0
C1488 C 0.66026 0.55617 0.7281 0.0
C1489 C 0.64104 0.53261 0.72333 0.0
C1490 C 0.64144 0.51841 0.7079 0.0
C1491 C 0.66035 0.52746 0.69733 0.0
C1492 C 0.67891 0.55068 0.70243 0.0
C1493 C 0.67915 0.56483 0.71749 0.0
C1494 C 0.70159 0.589 0.72015 0.0
C1495 C 0.69702 0.6101 0.71816 0.0
C1496 C 0.71493 0.592 0.73879 0.0
C1497 C 0.71394 0.58611 0.70427 0.0
C1498 C 0.7004 0.56392 0.69416 0.0
C1499 C 0.70776 0.5571 0.67866 0.0
C1500 C 0.72959 0.57339 0.67335 0.0
C1501 C 0.74386 0.5961 0.68359 0.0
C1502 C 0.73595 0.60253 0.69927 0.0
H1503 H 0.448 0.09406 0.74753 0.0
H1504 H 0.50609 0.13568 0.71582 0.0
H1505 H 0.48264 0.14828 0.6977 0.0
H1506 H 0.403 0.07378 0.71065 0.0
H1507 H 0.38304 0.07707 0.72445 0.0
H1508 H 0.4041 0.07069 0.73499 0.0
H1509 H 0.41943 0.10879 0.75814 0.0
H1510 H 0.39831 0.11517 0.74773 0.0
H1511 H 0.42859 0.13788 0.74962 0.0
H1512 H 0.45365 0.15645 0.68296 0.0
H1513 H 0.42066 0.16136 0.67308 0.0
H1514 H 0.38112 0.11583 0.71464 0.0
C1515 C 0.45584 0.10595 0.73686 0.0
C1516 C 0.47884 0.11356 0.73294 0.0
C1517 C 0.48837 0.12907 0.7188 0.0
C1518 C 0.47524 0.13648 0.70849 0.0
C1519 C 0.45264 0.12845 0.71256 0.0
C1520 C 0.44299 0.11372 0.72647 0.0
C1521 C 0.41835 0.10815 0.7281 0.0
C1522 C 0.40111 0.0808 0.72432 0.0
C1523 C 0.41604 0.1181 0.74702 0.0
C1524 C 0.41574 0.12204 0.71289 0.0
C1525 C 0.43577 0.13352 0.70412 0.0
C1526 C 0.43785 0.14758 0.6897 0.0
C1527 C 0.41901 0.15021 0.68418 0.0
C1528 C 0.39839 0.1389 0.69307 0.0
C1529 C 0.39666 0.12451 0.70755 0.0
H1530 H 0.87266 0.34239 0.72513 0.0
H1531 H 0.94247 0.37843 0.70863 0.0
H1532 H 0.93435 0.34041 0.69094 0.0
H1533 H 0.87043 0.28656 0.7324 0.0
H1534 H 0.84027 0.26775 0.72428 0.0
H1535 H 0.85098 0.29821 0.73433 0.0
H1536 H 0.83504 0.30789 0.7049 0.0
H1537 H 0.82438 0.27746 0.69471 0.0
H1538 H 0.84368 0.30299 0.68288 0.0
H1539 H 0.91896 0.2988 0.67567 0.0
H1540 H 0.89885 0.25509 0.66604 0.0
H1541 H 0.83932 0.24519 0.69375 0.0
C1542 C 0.88607 0.3422 0.7176 0.0
C1543 C 0.9081 0.36316 0.71798 0.0
C1544 C 0.9255 0.36241 0.70836 0.0
C1545 C 0.92099 0.34101 0.69825 0.0
C1546 C 0.89908 0.32057 0.69813 0.0
C1547 C 0.88198 0.32087 0.70772 0.0
C1548 C 0.86049 0.29594 0.70637 0.0
C1549 C 0.85525 0.28657 0.72548 0.0
C1550 C 0.83967 0.29609 0.69663 0.0
C1551 C 0.86826 0.28157 0.69462 0.0
C1552 C 0.89044 0.29624 0.68981 0.0
C1553 C 0.90158 0.28711 0.67931 0.0
C1554 C 0.88994 0.26221 0.67389 0.0
C1555 C 0.86748 0.24663 0.67916 0.0
C1556 C 0.85641 0.25659 0.68942 0.0
H1557 H 0.21665 0.98064 0.62776 0.0
H1558 H 0.19157 0.00357 0.58148 0.0
H1559 H 0.21659 0.04627 0.59377 0.0
H1560 H 0.22144 0.02666 0.66219 0.0
H1561 H 0.2478 0.0312 0.67401 0.0
H1562 H 0.22745 0.00214 0.66198 0.0
H1563 H 0.25976 0.00397 0.64301 0.0
H1564 H 0.28019 0.03306 0.65495 0.0
H1565 H 0.27579 0.0297 0.63019 0.0
H1566 H 0.24362 0.08579 0.61041 0.0
H1567 H 0.27257 0.1213 0.63044 0.0
H1568 H 0.28207 0.07435 0.6663 0.0
C1569 C 0.21637 0.99472 0.62036 0.0
C1570 C 0.20224 0.98888 0.60364 0.0
C1571 C 0.20243 0.00771 0.5942 0.0
C1572 C 0.2165 0.03198 0.6011 0.0
C1573 C 0.23039 0.03718 0.61745 0.0
C1574 C 0.23058 0.01922 0.62699 0.0
C1575 C 0.24775 0.03017 0.64403 0.0
C1576 C 0.23536 0.02206 0.66159 0.0
C1577 C 0.26701 0.02385 0.64297 0.0
C1578 C 0.25706 0.05704 0.64251 0.0
C1579 C 0.24659 0.06046 0.62708 0.0
C1580 C 0.25191 0.08339 0.62257 0.0
C1581 C 0.26834 0.10347 0.63416 0.0
C1582 C 0.27946 0.10065 0.6501 0.0
C1583 C 0.27384 0.07706 0.65425 0.0
H1584 H 0.00678 0.22129 0.59048 0.0
H1585 H 0.05656 0.26515 0.63677 0.0
H1586 H 0.02461 0.25605 0.65604 0.0
H1587 H 0.96392 0.23907 0.6009 0.0
H1588 H 0.93969 0.20933 0.59357 0.0
H1589 H 0.96648 0.22006 0.58315 0.0
H1590 H 0.96783 0.18196 0.59171 0.0
H1591 H 0.94116 0.17129 0.60228 0.0
H1592 H 0.96654 0.17513 0.61536 0.0
H1593 H 0.98787 0.24048 0.67076 0.0
H1594 H 0.94792 0.22119 0.67971 0.0
H1595 H 0.92162 0.1886 0.62375 0.0
C1596 C 0.01095 0.22934 0.60457 0.0
C1597 C 0.03419 0.24379 0.61216 0.0
C1598 C 0.03891 0.2537 0.63075 0.0
C1599 C 0.02089 0.24876 0.64177 0.0
C1600 C 0.99824 0.23407 0.63397 0.0
C1601 C 0.99315 0.2247 0.61577 0.0
C1602 C 0.96723 0.20913 0.61093 0.0
C1603 C 0.95884 0.22006 0.59627 0.0
C1604 C 0.9603 0.18282 0.60471 0.0
C1605 C 0.95865 0.21092 0.62937 0.0
C1606 C 0.97686 0.22541 0.64244 0.0
C1607 C 0.97343 0.22927 0.66064 0.0
C1608 C 0.95073 0.21818 0.66559 0.0
C1609 C 0.93182 0.2035 0.65239 0.0
C1610 C 0.93582 0.19983 0.63406 0.0
H1611 H 0.81591 0.80035 0.60822 0.0
H1612 H 0.74192 0.76283 0.61261 0.0
H1613 H 0.74487 0.7317 0.6293 0.0
H1614 H 0.81949 0.74617 0.59991 0.0
H1615 H 0.84737 0.75872 0.61273 0.0
H1616 H 0.8395 0.77839 0.60167 0.0
H1617 H 0.84773 0.80386 0.63288 0.0
H1618 H 0.85546 0.78414 0.64404 0.0
H1619 H 0.83317 0.78908 0.65237 0.0
H1620 H 0.75589 0.70534 0.64581 0.0
H1621 H 0.77342 0.68287 0.65866 0.0
H1622 H 0.84028 0.73658 0.64247 0.0
C1623 C 0.8004 0.78557 0.61277 0.0
C1624 C 0.77869 0.78388 0.60927 0.0
C1625 C 0.75865 0.76425 0.61515 0.0
C1626 C 0.76019 0.74663 0.6247 0.0
C1627 C 0.78187 0.74886 0.62805 0.0
C1628 C 0.80158 0.76762 0.62207 0.0
C1629 C 0.82255 0.76514 0.62677 0.0
C1630 C 0.83283 0.76191 0.60923 0.0
C1631 C 0.8408 0.78685 0.63979 0.0
C1632 C 0.81156 0.74212 0.63641 0.0
C1633 C 0.78813 0.73318 0.63713 0.0
C1634 C 0.7742 0.7121 0.64529 0.0
C1635 C 0.78439 0.6995 0.6526 0.0
C1636 C 0.80827 0.7079 0.65156 0.0
C1637 C 0.82202 0.72968 0.64353 0.0
H1638 H 0.01731 0.81048 0.61721 0.0
H1639 H 0.02472 0.75354 0.58893 0.0
H1640 H 0.98895 0.7227 0.60068 0.0
H1641 H 0.99496 0.77873 0.65817 0.0
H1642 H 0.97518 0.78984 0.66082 0.0
H1643 H 0.00179 0.80773 0.65055 0.0
H1644 H 0.97857 0.80934 0.6217 0.0
H1645 H 0.95192 0.79138 0.63186 0.0
H1646 H 0.95598 0.78142 0.60955 0.0
H1647 H 0.95158 0.69809 0.61362 0.0
H1648 H 0.91552 0.68066 0.62891 0.0
H1649 H 0.93243 0.7528 0.65044 0.0
C1650 C 0.0116 0.79153 0.61372 0.0
C1651 C 0.02376 0.78448 0.60195 0.0
C1652 C 0.01552 0.75945 0.59759 0.0
C1653 C 0.99527 0.74176 0.60429 0.0
C1654 C 0.9835 0.7493 0.61553 0.0
C1655 C 0.99139 0.77353 0.6204 0.0
C1656 C 0.97514 0.77654 0.63258 0.0
C1657 C 0.98751 0.78894 0.65166 0.0
C1658 C 0.9648 0.7905 0.62336 0.0
C1659 C 0.95684 0.75021 0.63362 0.0
C1660 C 0.96205 0.73489 0.62358 0.0
C1661 C 0.94744 0.70985 0.62172 0.0
C1662 C 0.92699 0.70014 0.63044 0.0
C1663 C 0.92137 0.71537 0.64101 0.0
C1664 C 0.93652 0.74075 0.64266 0.0
H1665 H 0.22825 0.23721 0.59185 0.0
H1666 H 0.20016 0.25653 0.63782 0.0
H1667 H 0.2242 0.24836 0.65937 0.0
H1668 H 0.2268 0.18664 0.61129 0.0
H1669 H 0.25303 0.19114 0.60223 0.0
H1670 H 0.2354 0.20092 0.59027 0.0
H1671 H 0.2708 0.24439 0.5916 0.0
H1672 H 0.28845 0.23465 0.60363 0.0
H1673 H 0.28634 0.25985 0.61352 0.0
H1674 H 0.25021 0.23688 0.67619 0.0
H1675 H 0.27465 0.22019 0.68683 0.0
H1676 H 0.28354 0.20542 0.63015 0.0
C1677 C 0.22709 0.23976 0.60642 0.0
C1678 C 0.2125 0.24803 0.613 0.0
C1679 C 0.21168 0.25106 0.63228 0.0
C1680 C 0.22517 0.24626 0.64472 0.0
C1681 C 0.23925 0.23813 0.63776 0.0
C1682 C 0.24018 0.23468 0.61907 0.0
C1683 C 0.25562 0.22423 0.61521 0.0
C1684 C 0.24188 0.19925 0.6041 0.0
C1685 C 0.27654 0.24184 0.60541 0.0
C1686 C 0.26294 0.22211 0.63466 0.0
C1687 C 0.25357 0.23055 0.64746 0.0
C1688 C 0.2577 0.23025 0.66631 0.0
C1689 C 0.27158 0.22079 0.67223 0.0
C1690 C 0.28084 0.21154 0.6593 0.0
C1691 C 0.27661 0.21239 0.64031 0.0
H1692 H 0.81633 0.00624 0.60885 0.0
H1693 H 0.75863 0.96157 0.63974 0.0
H1694 H 0.76389 0.99848 0.65731 0.0
H1695 H 0.85154 0.0512 0.64682 0.0
H1696 H 0.86245 0.07603 0.63253 0.0
H1697 H 0.85443 0.04604 0.62287 0.0
H1698 H 0.82643 0.04778 0.5979 0.0
H1699 H 0.83445 0.07776 0.6075 0.0
H1700 H 0.80445 0.05417 0.60484 0.0
H1701 H 0.77389 0.04059 0.66987 0.0
H1702 H 0.78958 0.08447 0.67794 0.0
H1703 H 0.84159 0.10101 0.63953 0.0
C1704 C 0.80485 0.00426 0.61935 0.0
C1705 C 0.78705 0.98115 0.62296 0.0
C1706 C 0.77249 0.97917 0.63691 0.0
C1707 C 0.77528 1.0 0.64687 0.0
C1708 C 0.79287 0.02257 0.64283 0.0
C1709 C 0.80756 0.02479 0.62953 0.0
C1710 C 0.82506 0.05107 0.62775 0.0
C1711 C 0.84984 0.05639 0.6328 0.0
C1712 C 0.82242 0.0581 0.60835 0.0
C1713 C 0.81775 0.06334 0.64197 0.0
C1714 C 0.79909 0.04665 0.65046 0.0
C1715 C 0.78867 0.05382 0.66347 0.0
C1716 C 0.79763 0.07873 0.66792 0.0
C1717 C 0.81692 0.09606 0.65951 0.0
C1718 C 0.82709 0.08817 0.64644 0.0
H1719 H 0.44389 0.35374 0.72235 0.0
H1720 H 0.48229 0.33702 0.76283 0.0
H1721 H 0.45815 0.29346 0.75229 0.0
H1722 H 0.38813 0.30172 0.72731 0.0
H1723 H 0.3782 0.29704 0.70325 0.0
H1724 H 0.39894 0.32706 0.71352 0.0
H1725 H 0.427 0.33098 0.68913 0.0
H1726 H 0.40635 0.30097 0.67879 0.0
H1727 H 0.43539 0.30833 0.68625 0.0
H1728 H 0.43076 0.25228 0.73725 0.0
H1729 H 0.39992 0.21503 0.7197 0.0
H1730 H 0.37762 0.25767 0.68967 0.0
C1731 C 0.4472 0.34084 0.72888 0.0
C1732 C 0.46489 0.34859 0.74337 0.0
C1733 C 0.46868 0.33131 0.75179 0.0
C1734 C 0.45516 0.30661 0.74585 0.0
C1735 C 0.4378 0.2995 0.7316 0.0
C1736 C 0.43361 0.316 0.72329 0.0
C1737 C 0.41333 0.30332 0.70864 0.0
C1738 C 0.39348 0.30754 0.71348 0.0
C1739 C 0.42098 0.31138 0.68957 0.0
C1740 C 0.40688 0.27714 0.71001 0.0
C1741 C 0.42139 0.27545 0.72323 0.0
C1742 C 0.41924 0.25333 0.72688 0.0
C1743 C 0.40172 0.23228 0.71677 0.0
C1744 C 0.38639 0.23346 0.7033 0.0
C1745 C 0.38901 0.25622 0.69993 0.0
H1746 H 0.66099 0.13153 0.7267 0.0
H1747 H 0.65951 0.07521 0.75824 0.0
H1748 H 0.69575 0.08215 0.7462 0.0
H1749 H 0.68254 0.11671 0.68636 0.0
H1750 H 0.70038 0.1479 0.68182 0.0
H1751 H 0.67429 0.13871 0.69299 0.0
H1752 H 0.69791 0.17134 0.72017 0.0
H1753 H 0.72407 0.18057 0.7091 0.0
H1754 H 0.72224 0.17155 0.73216 0.0
H1755 H 0.73241 0.0958 0.73187 0.0
H1756 H 0.76684 0.11404 0.71458 0.0
H1757 H 0.74411 0.16025 0.69085 0.0
C1758 C 0.66812 0.12044 0.73091 0.0
C1759 C 0.65747 0.10296 0.74358 0.0
C1760 C 0.66756 0.08905 0.74887 0.0
C1761 C 0.68806 0.09273 0.74201 0.0
C1762 C 0.6982 0.11025 0.72975 0.0
C1763 C 0.68854 0.12377 0.72409 0.0
C1764 C 0.70304 0.14139 0.71069 0.0
C1765 C 0.68923 0.13583 0.69185 0.0
C1766 C 0.71236 0.16777 0.7185 0.0
C1767 C 0.72235 0.13564 0.70975 0.0
C1768 C 0.71921 0.11771 0.72097 0.0
C1769 C 0.73498 0.10969 0.72291 0.0
C1770 C 0.75447 0.12017 0.71304 0.0
C1771 C 0.75793 0.13835 0.7013 0.0
C1772 C 0.74168 0.14619 0.69961 0.0
H1773 H 0.91975 0.58122 0.73182 0.0
H1774 H 0.86979 0.50964 0.70578 0.0
H1775 H 0.85101 0.52728 0.6874 0.0
H1776 H 0.88021 0.60377 0.73458 0.0
H1777 H 0.9009 0.63399 0.72953 0.0
H1778 H 0.91067 0.61582 0.74062 0.0
H1779 H 0.93758 0.62165 0.7148 0.0
H1780 H 0.9277 0.63964 0.70354 0.0
H1781 H 0.92545 0.61328 0.69116 0.0
H1782 H 0.83645 0.55162 0.67311 0.0
H1783 H 0.8269 0.58212 0.66318 0.0
H1784 H 0.88712 0.63871 0.69679 0.0
C1785 C 0.90483 0.56936 0.72226 0.0
C1786 C 0.89625 0.54412 0.72008 0.0
C1787 C 0.87675 0.52907 0.70744 0.0
C1788 C 0.86597 0.53889 0.69698 0.0
C1789 C 0.87497 0.56383 0.69922 0.0
C1790 C 0.89395 0.57894 0.71149 0.0
C1791 C 0.89988 0.60513 0.71119 0.0
C1792 C 0.89778 0.61526 0.7301 0.0
C1793 C 0.92409 0.62085 0.70479 0.0
C1794 C 0.88112 0.60223 0.69698 0.0
C1795 C 0.86694 0.57819 0.69035 0.0
C1796 C 0.84757 0.57056 0.67798 0.0
C1797 C 0.84229 0.58794 0.67242 0.0
C1798 C 0.85652 0.61263 0.67901 0.0
C1799 C 0.87637 0.61997 0.69123 0.0
H1800 H 0.45485 0.95256 0.12086 0.0
H1801 H 0.50681 0.01772 0.15379 0.0
H1802 H 0.51762 0.03937 0.12569 0.0
H1803 H 0.48873 0.95886 0.08409 0.0
H1804 H 0.46491 0.94686 0.06646 0.0
H1805 H 0.45984 0.93752 0.08932 0.0
H1806 H 0.42938 0.95122 0.09069 0.0
H1807 H 0.43465 0.9608 0.06786 0.0
H1808 H 0.43755 0.98192 0.08662 0.0
H1809 H 0.52413 0.05317 0.0938 0.0
H1810 H 0.52839 0.05673 0.06051 0.0
H1811 H 0.47272 0.98222 0.04867 0.0
C1812 C 0.46822 0.97151 0.12215 0.0
C1813 C 0.47991 0.9836 0.13945 0.0
C1814 C 0.49772 0.00819 0.14062 0.0
C1815 C 0.50381 0.02066 0.12478 0.0
C1816 C 0.49195 0.00821 0.1079 0.0
C1817 C 0.47466 0.98411 0.10647 0.0
C1818 C 0.46603 0.97426 0.08659 0.0
C1819 C 0.47014 0.95314 0.08131 0.0
C1820 C 0.44039 0.96661 0.08273 0.0
C1821 C 0.48143 0.99647 0.07705 0.0
C1822 C 0.49601 0.016 0.08955 0.0
C1823 C 0.51264 0.03808 0.08388 0.0
C1824 C 0.5149 0.03998 0.06497 0.0
C1825 C 0.50078 0.01982 0.05206 0.0
C1826 C 0.48347 0.99807 0.05821 0.0
H1827 H 0.05793 0.51024 0.12715 0.0
H1828 H 0.99285 0.47092 0.15123 0.0
H1829 H 0.9717 0.4602 0.12022 0.0
H1830 H 0.04014 0.53607 0.09449 0.0
H1831 H 0.05632 0.53324 0.07656 0.0
H1832 H 0.06631 0.53542 0.10027 0.0
H1833 H 0.06635 0.49503 0.09443 0.0
H1834 H 0.0566 0.493 0.07061 0.0
H1835 H 0.0404 0.46829 0.08428 0.0
H1836 H 0.9577 0.45864 0.08705 0.0
H1837 H 0.95222 0.46391 0.05414 0.0
H1838 H 0.0266 0.50236 0.05187 0.0
C1839 C 0.03925 0.49899 0.12581 0.0
C1840 C 0.02695 0.49135 0.14148 0.0
C1841 C 0.00254 0.47671 0.13931 0.0
C1842 C 0.99042 0.4706 0.12178 0.0
C1843 C 0.00305 0.47889 0.1066 0.0
C1844 C 0.02697 0.49241 0.10843 0.0
C1845 C 0.03644 0.50001 0.09009 0.0
C1846 C 0.05063 0.52783 0.09038 0.0
C1847 C 0.05079 0.48838 0.08453 0.0
C1848 C 0.01411 0.48949 0.07778 0.0
C1849 C 0.995 0.47728 0.08749 0.0
C1850 C 0.97252 0.46773 0.07923 0.0
C1851 C 0.96956 0.47086 0.06061 0.0
C1852 C 0.98896 0.48332 0.05053 0.0
C1853 C 0.01143 0.49239 0.0592 0.0
H1854 H 0.47005 0.52861 0.12375 0.0
H1855 H 0.47839 0.4755 0.15244 0.0
H1856 H 0.49134 0.46416 0.12444 0.0
H1857 H 0.44972 0.49276 0.07823 0.0
H1858 H 0.46468 0.51938 0.06614 0.0
H1859 H 0.45406 0.52141 0.08792 0.0
H1860 H 0.49556 0.5554 0.10044 0.0
H1861 H 0.50614 0.55305 0.07877 0.0
H1862 H 0.51918 0.54952 0.09969 0.0
H1863 H 0.50713 0.46161 0.09413 0.0
H1864 H 0.52208 0.46641 0.06339 0.0
H1865 H 0.5023 0.52037 0.05459 0.0
C1866 C 0.47435 0.51439 0.12405 0.0
C1867 C 0.47324 0.50292 0.14025 0.0
C1868 C 0.4789 0.48433 0.14011 0.0
C1869 C 0.48635 0.47785 0.1243 0.0
C1870 C 0.48771 0.48987 0.10866 0.0
C1871 C 0.48154 0.50752 0.10834 0.0
C1872 C 0.48517 0.51822 0.09001 0.0
C1873 C 0.46203 0.51262 0.07999 0.0
C1874 C 0.50255 0.54567 0.09238 0.0
C1875 C 0.49507 0.50442 0.08029 0.0
C1876 C 0.49632 0.48805 0.09119 0.0
C1877 C 0.50593 0.47412 0.08538 0.0
C1878 C 0.51445 0.477 0.06798 0.0
C1879 C 0.51319 0.4936 0.05664 0.0
C1880 C 0.50324 0.50731 0.06289 0.0
H1881 H 0.97065 0.51304 0.87497 0.0
H1882 H 0.93203 0.43547 0.85956 0.0
H1883 H 0.93781 0.42795 0.89149 0.0
H1884 H 0.01302 0.51426 0.90346 0.0
H1885 H 0.01579 0.53663 0.92109 0.0
H1886 H 0.00516 0.53651 0.89796 0.0
H1887 H 0.96764 0.53299 0.90956 0.0
H1888 H 0.97874 0.53387 0.93279 0.0
H1889 H 0.95084 0.50911 0.92372 0.0
H1890 H 0.95388 0.42859 0.92233 0.0
H1891 H 0.97559 0.43719 0.95264 0.0
H1892 H 0.00274 0.51424 0.94982 0.0
C1893 C 0.96278 0.49453 0.87855 0.0
C1894 C 0.95104 0.47481 0.86485 0.0
C1895 C 0.94128 0.45079 0.86986 0.0
C1896 C 0.94434 0.44633 0.88796 0.0
C1897 C 0.95689 0.46608 0.901 0.0
C1898 C 0.96558 0.48973 0.89673 0.0
C1899 C 0.98009 0.50753 0.9132 0.0
C1900 C 0.00498 0.52474 0.90864 0.0
C1901 C 0.96865 0.52173 0.92022 0.0
C1902 C 0.9793 0.49017 0.92686 0.0
C1903 C 0.96556 0.46636 0.91953 0.0
C1904 C 0.96397 0.44706 0.92856 0.0
C1905 C 0.97658 0.45214 0.94565 0.0
C1906 C 0.99057 0.47632 0.95352 0.0
C1907 C 0.99173 0.49557 0.94416 0.0
H1908 H 0.54417 0.47964 0.88262 0.0
H1909 H 0.54412 0.54235 0.86283 0.0
H1910 H 0.53728 0.55337 0.89385 0.0
H1911 H 0.49863 0.46316 0.91045 0.0
H1912 H 0.51084 0.45372 0.92854 0.0
H1913 H 0.518 0.45219 0.90532 0.0
H1914 H 0.5615 0.4786 0.9164 0.0
H1915 H 0.55473 0.48071 0.93972 0.0
H1916 H 0.57204 0.50788 0.92871 0.0
H1917 H 0.52565 0.55457 0.92581 0.0
H1918 H 0.51272 0.54741 0.95712 0.0
H1919 H 0.52184 0.48486 0.95635 0.0
C1920 C 0.54299 0.49585 0.88488 0.0
C1921 C 0.5447 0.51018 0.87035 0.0
C1922 C 0.54316 0.53131 0.87383 0.0
C1923 C 0.53917 0.53764 0.89137 0.0
C1924 C 0.53703 0.52279 0.90528 0.0
C1925 C 0.53914 0.50248 0.90228 0.0
C1926 C 0.53517 0.48898 0.91932 0.0
C1927 C 0.51443 0.46298 0.91568 0.0
C1928 C 0.55717 0.48903 0.92647 0.0
C1929 C 0.52993 0.50453 0.93226 0.0
C1930 C 0.53108 0.52394 0.9239 0.0
C1931 C 0.52513 0.53972 0.93262 0.0
C1932 C 0.51774 0.53548 0.95032 0.0
C1933 C 0.5166 0.5158 0.95909 0.0
C1934 C 0.52305 0.50034 0.95004 0.0
H1935 H 0.50261 0.03925 0.8739 0.0
H1936 H 0.56981 0.04411 0.87667 0.0
H1937 H 0.5625 0.02635 0.90631 0.0
H1938 H 0.50628 0.05679 0.92303 0.0
H1939 H 0.47569 0.03714 0.92431 0.0
H1940 H 0.48621 0.05009 0.90317 0.0
H1941 H 0.46529 0.00697 0.88593 0.0
H1942 H 0.455 0.99388 0.90705 0.0
H1943 H 0.47146 0.98437 0.89378 0.0
H1944 H 0.54669 0.00532 0.93453 0.0
H1945 H 0.52572 0.98779 0.96164 0.0
H1946 H 0.47101 1.00078 0.94202 0.0
C1947 C 0.51603 0.03702 0.88079 0.0
C1948 C 0.53664 0.04275 0.87264 0.0
C1949 C 0.55355 0.03921 0.88224 0.0
C1950 C 0.54965 0.02929 0.89918 0.0
C1951 C 0.52895 0.02338 0.90656 0.0
C1952 C 0.51264 0.02759 0.89788 0.0
C1953 C 0.49212 0.02028 0.90904 0.0
C1954 C 0.48996 0.04239 0.91526 0.0
C1955 C 0.46965 1.00018 0.8983 0.0
C1956 C 0.49927 0.01086 0.92516 0.0
C1957 C 0.52048 0.01263 0.92339 0.0
C1958 C 0.53028 0.00427 0.93625 0.0
C1959 C 0.51831 0.99442 0.95157 0.0
C1960 C 0.49716 0.99359 0.95406 0.0
C1961 C 0.48732 0.00147 0.94051 0.0
H1962 H 0.16359 0.28986 0.46371 0.0
H1963 H 0.09539 0.28242 0.46261 0.0
H1964 H 0.10095 0.29955 0.43269 0.0
H1965 H 0.19227 0.34412 0.44439 0.0
H1966 H 0.20919 0.33592 0.4305 0.0
H1967 H 0.19947 0.32192 0.45141 0.0
H1968 H 0.17969 0.27946 0.43335 0.0
H1969 H 0.18921 0.29311 0.41223 0.0
H1970 H 0.1589 0.2725 0.41399 0.0
H1971 H 0.11593 0.32179 0.40445 0.0
H1972 H 0.13761 0.34314 0.37857 0.0
H1973 H 0.19355 0.33139 0.39666 0.0
C1974 C 0.14947 0.29113 0.45707 0.0
C1975 C 0.12915 0.285 0.46581 0.0
C1976 C 0.11141 0.28754 0.45655 0.0
C1977 C 0.11429 0.29706 0.43943 0.0
C1978 C 0.13479 0.30346 0.4315 0.0
C1979 C 0.15184 0.3001 0.43984 0.0
C1980 C 0.17231 0.30855 0.42851 0.0
C1981 C 0.19462 0.32883 0.43936 0.0
C1982 C 0.1752 0.28713 0.42161 0.0
C1983 C 0.16449 0.31803 0.41286 0.0
C1984 C 0.14278 0.31493 0.41477 0.0
C1985 C 0.13265 0.32369 0.40254 0.0
C1986 C 0.14492 0.33557 0.38782 0.0
C1987 C 0.16677 0.33812 0.38534 0.0
C1988 C 0.17671 0.32943 0.39813 0.0
H1989 H 0.70534 0.82867 0.46802 0.0
H1990 H 0.75693 0.90522 0.47093 0.0
H1991 H 0.74435 0.9067 0.43904 0.0
H1992 H 0.70984 0.81411 0.41913 0.0
H1993 H 0.67922 0.79352 0.41414 0.0
H1994 H 0.69298 0.79698 0.43686 0.0
H1995 H 0.66494 0.80797 0.45142 0.0
H1996 H 0.65035 0.80405 0.42904 0.0
H1997 H 0.66163 0.83225 0.44323 0.0
H1998 H 0.72232 0.90205 0.4097 0.0
H1999 H 0.69483 0.89004 0.38217 0.0
H2000 H 0.65967 0.81559 0.39582 0.0
C2001 C 0.7144 0.84553 0.46174 0.0
C2002 C 0.73197 0.8669 0.472 0.0
C2003 C 0.74318 0.88874 0.46342 0.0
C2004 C 0.73628 0.88973 0.44528 0.0
C2005 C 0.71839 0.86863 0.43576 0.0
C2006 C 0.70782 0.84681 0.44349 0.0
C2007 C 0.68805 0.82723 0.43048 0.0
C2008 C 0.69281 0.80675 0.4248 0.0
C2009 C 0.66488 0.81731 0.43906 0.0
C2010 C 0.6889 0.84169 0.41446 0.0
C2011 C 0.70646 0.86558 0.41796 0.0
C2012 C 0.70902 0.88325 0.40647 0.0
C2013 C 0.6933 0.87631 0.39091 0.0
C2014 C 0.67568 0.85186 0.38673 0.0
C2015 C 0.6735 0.83426 0.39854 0.0
H2016 H 0.16752 0.87516 0.46431 0.0
H2017 H 0.10325 0.80624 0.4629 0.0
H2018 H 0.10831 0.79569 0.43128 0.0
H2019 H 0.157 0.88542 0.41709 0.0
H2020 H 0.18719 0.90009 0.4132 0.0
H2021 H 0.17886 0.902 0.43598 0.0
H2022 H 0.20388 0.88449 0.44845 0.0
H2023 H 0.21222 0.88238 0.42573 0.0
H2024 H 0.19898 0.85583 0.43819 0.0
H2025 H 0.12139 0.79182 0.40007 0.0
H2026 H 0.13967 0.79688 0.3708 0.0
H2027 H 0.1928 0.86975 0.39169 0.0
C2028 C 0.15422 0.85798 0.45739 0.0
C2029 C 0.13511 0.84146 0.46643 0.0
C2030 C 0.11844 0.81902 0.45666 0.0
C2031 C 0.12102 0.8129 0.43857 0.0
C2032 C 0.14017 0.82952 0.43023 0.0
C2033 C 0.15626 0.85177 0.43922 0.0
C2034 C 0.1749 0.86675 0.42698 0.0
C2035 C 0.17445 0.88993 0.42309 0.0
C2036 C 0.19891 0.8727 0.43534 0.0
C2037 C 0.16706 0.84922 0.40985 0.0
C2038 C 0.14703 0.8278 0.412 0.0
C2039 C 0.13686 0.80866 0.39815 0.0
C2040 C 0.14724 0.81172 0.38157 0.0
C2041 C 0.16724 0.83385 0.3789 0.0
C2042 C 0.17742 0.85266 0.39334 0.0
H2043 H 0.65783 0.81904 0.19761 0.0
H2044 H 0.5964 0.825 0.20158 0.0
H2045 H 0.60215 0.828 0.23539 0.0
H2046 H 0.64921 0.78255 0.23592 0.0
H2047 H 0.67956 0.79741 0.24371 0.0
H2048 H 0.67061 0.79545 0.2197 0.0
H2049 H 0.69565 0.84217 0.22013 0.0
H2050 H 0.70466 0.84427 0.24413 0.0
H2051 H 0.69134 0.8612 0.23665 0.0
H2052 H 0.61379 0.82959 0.26839 0.0
H2053 H 0.63181 0.83138 0.29901 0.0
H2054 H 0.68647 0.82576 0.27451 0.0
C2055 C 0.64553 0.82081 0.20561 0.0
C2056 C 0.62673 0.82192 0.19696 0.0
C2057 C 0.61112 0.82449 0.20791 0.0
C2058 C 0.61413 0.82602 0.22711 0.0
C2059 C 0.63283 0.82495 0.23519 0.0
C2060 C 0.64833 0.82247 0.22486 0.0
C2061 C 0.6672 0.82225 0.23714 0.0
C2062 C 0.6666 0.79796 0.23392 0.0
C2063 C 0.69113 0.84375 0.23435 0.0
C2064 C 0.65989 0.82509 0.25596 0.0
C2065 C 0.63995 0.82649 0.25442 0.0
C2066 C 0.62964 0.82897 0.26976 0.0
C2067 C 0.64022 0.83046 0.28716 0.0
C2068 C 0.66098 0.82983 0.28917 0.0
C2069 C 0.67071 0.82661 0.27334 0.0
H2070 H 0.1634 0.79638 0.19971 0.0
H2071 H 0.21448 0.87163 0.19468 0.0
H2072 H 0.20985 0.88253 0.22644 0.0
H2073 H 0.12544 0.80915 0.22399 0.0
H2074 H 0.11705 0.7844 0.23817 0.0
H2075 H 0.12569 0.78225 0.21558 0.0
H2076 H 0.15732 0.77394 0.22946 0.0
H2077 H 0.14814 0.77557 0.25192 0.0
H2078 H 0.17801 0.79475 0.24779 0.0
H2079 H 0.19864 0.88536 0.25877 0.0
H2080 H 0.18107 0.87969 0.28844 0.0
H2081 H 0.13641 0.8031 0.27135 0.0
C2082 C 0.17357 0.81521 0.20516 0.0
C2083 C 0.18936 0.8331 0.19457 0.0
C2084 C 0.20255 0.85745 0.20252 0.0
C2085 C 0.19994 0.86388 0.22055 0.0
C2086 C 0.184 0.84579 0.23046 0.0
C2087 C 0.17102 0.82197 0.223 0.0
C2088 C 0.15441 0.80609 0.23618 0.0
C2089 C 0.12915 0.79481 0.22799 0.0
C2090 C 0.15982 0.78644 0.24166 0.0
C2091 C 0.15997 0.82471 0.25221 0.0
C2092 C 0.17722 0.8475 0.24875 0.0
C2093 C 0.18517 0.86757 0.26162 0.0
C2094 C 0.17521 0.86421 0.27843 0.0
C2095 C 0.15753 0.84101 0.28212 0.0
C2096 C 0.14982 0.8211 0.2688 0.0
H2097 H 0.17116 0.33842 0.19627 0.0
H2098 H 0.23984 0.40083 0.21028 0.0
H2099 H 0.23557 0.39483 0.24317 0.0
H2100 H 0.14499 0.34978 0.23363 0.0
H2101 H 0.12685 0.31831 0.23733 0.0
H2102 H 0.13567 0.3266 0.21476 0.0
H2103 H 0.15295 0.29828 0.21376 0.0
H2104 H 0.14414 0.28986 0.23633 0.0
H2105 H 0.174 0.30202 0.23197 0.0
H2106 H 0.22291 0.38424 0.27436 0.0
H2107 H 0.20299 0.36858 0.30194 0.0
H2108 H 0.14335 0.31176 0.26839 0.0
C2109 C 0.18534 0.35072 0.20627 0.0
C2110 C 0.20591 0.37001 0.20073 0.0
C2111 C 0.22411 0.38569 0.2142 0.0
C2112 C 0.22182 0.38249 0.23291 0.0
C2113 C 0.2013 0.36341 0.23792 0.0
C2114 C 0.18341 0.34769 0.22503 0.0
C2115 C 0.16297 0.32902 0.23418 0.0
C2116 C 0.14134 0.33106 0.22971 0.0
C2117 C 0.15824 0.30327 0.22873 0.0
C2118 C 0.17208 0.33693 0.25423 0.0
C2119 C 0.19424 0.35679 0.25602 0.0
C2120 C 0.20588 0.36819 0.27313 0.0
C2121 C 0.19468 0.35885 0.28882 0.0
C2122 C 0.17236 0.33812 0.28741 0.0
C2123 C 0.16075 0.32726 0.26986 0.0
H2124 H 0.79461 0.60587 0.78282 0.0
H2125 H 0.81508 0.67381 0.81472 0.0
H2126 H 0.82606 0.69526 0.78653 0.0
H2127 H 0.83946 0.62783 0.75468 0.0
H2128 H 0.82243 0.60929 0.73407 0.0
H2129 H 0.81378 0.59895 0.75624 0.0
H2130 H 0.77334 0.59424 0.74807 0.0
H2131 H 0.78195 0.60411 0.72573 0.0
H2132 H 0.77176 0.61971 0.74032 0.0
H2133 H 0.83917 0.7098 0.7554 0.0
H2134 H 0.85076 0.71561 0.72355 0.0
H2135 H 0.8203 0.63785 0.71227 0.0
C2136 C 0.80104 0.6252 0.78378 0.0
C2137 C 0.80401 0.63824 0.80089 0.0
C2138 C 0.81247 0.6635 0.80168 0.0
C2139 C 0.8188 0.67581 0.78577 0.0
C2140 C 0.81618 0.6625 0.76916 0.0
C2141 C 0.80713 0.63766 0.76802 0.0
C2142 C 0.80692 0.62767 0.74873 0.0
C2143 C 0.82152 0.61521 0.74843 0.0
C2144 C 0.78201 0.61039 0.74022 0.0
C2145 C 0.81807 0.65085 0.73935 0.0
C2146 C 0.82319 0.67077 0.75126 0.0
C2147 C 0.83486 0.69428 0.74586 0.0
C2148 C 0.84144 0.69743 0.72782 0.0
C2149 C 0.83622 0.67718 0.71549 0.0
C2150 C 0.8242 0.65365 0.72133 0.0
H2151 H 0.37907 0.16942 0.80219 0.0
H2152 H 0.31493 0.15107 0.8258 0.0
H2153 H 0.29435 0.13981 0.79462 0.0
H2154 H 0.37006 0.19751 0.76529 0.0
H2155 H 0.3831 0.18708 0.74891 0.0
H2156 H 0.39212 0.19088 0.77305 0.0
H2157 H 0.38257 0.14615 0.77142 0.0
H2158 H 0.37334 0.14224 0.74725 0.0
H2159 H 0.35398 0.12225 0.76269 0.0
H2160 H 0.28132 0.13339 0.76097 0.0
H2161 H 0.27749 0.13531 0.72736 0.0
H2162 H 0.35016 0.15838 0.72557 0.0
C2163 C 0.3606 0.16254 0.80076 0.0
C2164 C 0.34851 0.16093 0.81637 0.0
C2165 C 0.32448 0.15247 0.81399 0.0
C2166 C 0.31263 0.14585 0.79636 0.0
C2167 C 0.32507 0.14785 0.78122 0.0
C2168 C 0.34856 0.1561 0.78322 0.0
C2169 C 0.35824 0.15865 0.76467 0.0
C2170 C 0.37698 0.1851 0.76288 0.0
C2171 C 0.36758 0.14129 0.76132 0.0
C2172 C 0.33664 0.15108 0.75198 0.0
C2173 C 0.31762 0.14453 0.76177 0.0
C2174 C 0.29603 0.13821 0.75313 0.0
C2175 C 0.29399 0.1393 0.73404 0.0
C2176 C 0.31348 0.14688 0.72389 0.0
C2177 C 0.33488 0.1522 0.73295 0.0
H2178 H 0.80092 0.19479 0.78971 0.0
H2179 H 0.81521 0.14452 0.81698 0.0
H2180 H 0.82896 0.13562 0.78848 0.0
H2181 H 0.78052 0.15864 0.74491 0.0
H2182 H 0.79297 0.18477 0.73198 0.0
H2183 H 0.78348 0.18682 0.75427 0.0
H2184 H 0.82419 0.22288 0.76557 0.0
H2185 H 0.83384 0.22129 0.7433 0.0
H2186 H 0.84918 0.21953 0.76362 0.0
H2187 H 0.84375 0.13439 0.75762 0.0
H2188 H 0.85647 0.13942 0.72613 0.0
H2189 H 0.83118 0.18926 0.71875 0.0
C2190 C 0.80684 0.18182 0.78961 0.0
C2191 C 0.80703 0.17033 0.80552 0.0
C2192 C 0.81475 0.15334 0.80487 0.0
C2193 C 0.82264 0.14824 0.78878 0.0
C2194 C 0.82241 0.16 0.77335 0.0
C2195 C 0.81444 0.17622 0.77355 0.0
C2196 C 0.81603 0.18641 0.75511 0.0
C2197 C 0.79181 0.1787 0.74603 0.0
C2198 C 0.83175 0.21417 0.75702 0.0
C2199 C 0.82692 0.17407 0.74476 0.0
C2200 C 0.83035 0.1588 0.75547 0.0
C2201 C 0.84092 0.1461 0.74904 0.0
C2202 C 0.84816 0.14911 0.7312 0.0
C2203 C 0.84471 0.16461 0.72005 0.0
C2204 C 0.83387 0.17712 0.72695 0.0
H2205 H 0.2893 0.13093 0.54145 0.0
H2206 H 0.28536 0.1968 0.54287 0.0
H2207 H 0.3017 0.20699 0.5753 0.0
H2208 H 0.27173 0.11707 0.58759 0.0
H2209 H 0.29032 0.10471 0.592 0.0
H2210 H 0.27844 0.10279 0.56887 0.0
H2211 H 0.31982 0.12439 0.55817 0.0
H2212 H 0.33186 0.12649 0.58125 0.0
H2213 H 0.34131 0.1535 0.5695 0.0
H2214 H 0.32029 0.21076 0.60746 0.0
H2215 H 0.33704 0.20619 0.63701 0.0
H2216 H 0.32546 0.13639 0.61471 0.0
C2217 C 0.29144 0.14732 0.54856 0.0
C2218 C 0.2861 0.16309 0.53942 0.0
C2219 C 0.28973 0.1846 0.54934 0.0
C2220 C 0.29884 0.19048 0.56785 0.0
C2221 C 0.30401 0.17455 0.57631 0.0
C2222 C 0.30015 0.15326 0.56703 0.0
C2223 C 0.30682 0.13899 0.57926 0.0
C2224 C 0.28556 0.11444 0.5821 0.0
C2225 C 0.3261 0.13566 0.57158 0.0
C2226 C 0.31553 0.15582 0.59678 0.0
C2227 C 0.31381 0.17626 0.59487 0.0
C2228 C 0.32143 0.19467 0.60916 0.0
C2229 C 0.33082 0.19191 0.62588 0.0
C2230 C 0.33211 0.17078 0.62815 0.0
C2231 C 0.32455 0.15268 0.61336 0.0
H2232 H 0.86922 0.14418 0.54648 0.0
H2233 H 0.85347 0.19522 0.52216 0.0
H2234 H 0.84313 0.20482 0.55216 0.0
H2235 H 0.8242 0.12093 0.57605 0.0
H2236 H 0.84121 0.11894 0.59507 0.0
H2237 H 0.84824 0.1166 0.57191 0.0
H2238 H 0.89015 0.15219 0.58065 0.0
H2239 H 0.8832 0.15434 0.60389 0.0
H2240 H 0.89465 0.1806 0.59108 0.0
H2241 H 0.8317 0.20659 0.58409 0.0
H2242 H 0.82242 0.20237 0.61647 0.0
H2243 H 0.84762 0.152 0.62067 0.0
C2244 C 0.86371 0.15746 0.54755 0.0
C2245 C 0.86212 0.16899 0.53203 0.0
C2246 C 0.85498 0.18637 0.53393 0.0
C2247 C 0.84901 0.19187 0.55089 0.0
C2248 C 0.85063 0.18012 0.5659 0.0
C2249 C 0.85809 0.16351 0.56449 0.0
C2250 C 0.85829 0.15351 0.58281 0.0
C2251 C 0.84201 0.12586 0.58136 0.0
C2252 C 0.88305 0.16059 0.59003 0.0
C2253 C 0.84915 0.16658 0.59455 0.0
C2254 C 0.84483 0.18183 0.58453 0.0
C2255 C 0.83529 0.19495 0.59215 0.0
C2256 C 0.83001 0.1924 0.6105 0.0
C2257 C 0.83448 0.17705 0.62103 0.0
C2258 C 0.84434 0.16414 0.61298 0.0
H2259 H 0.87822 0.71772 0.5492 0.0
H2260 H 0.84034 0.64933 0.51528 0.0
H2261 H 0.82953 0.62739 0.54322 0.0
H2262 H 0.89819 0.69563 0.58852 0.0
H2263 H 0.8938 0.71439 0.60522 0.0
H2264 H 0.90158 0.72421 0.58274 0.0
H2265 H 0.86529 0.72886 0.57838 0.0
H2266 H 0.85745 0.71877 0.60074 0.0
H2267 H 0.83714 0.70324 0.58079 0.0
H2268 H 0.82028 0.61322 0.57449 0.0
H2269 H 0.81141 0.60794 0.60689 0.0
H2270 H 0.85358 0.68573 0.62037 0.0
C2271 C 0.86818 0.69809 0.54777 0.0
C2272 C 0.86033 0.68505 0.53023 0.0
C2273 C 0.84661 0.65947 0.52869 0.0
C2274 C 0.8405 0.64692 0.54445 0.0
C2275 C 0.84814 0.66027 0.56161 0.0
C2276 C 0.86164 0.68531 0.56339 0.0
C2277 C 0.86552 0.69544 0.58332 0.0
C2278 C 0.89131 0.70816 0.59035 0.0
C2279 C 0.85576 0.71258 0.58595 0.0
C2280 C 0.85161 0.67225 0.59234 0.0
C2281 C 0.84211 0.65214 0.57964 0.0
C2282 C 0.8278 0.6288 0.5846 0.0
C2283 C 0.82283 0.62597 0.60299 0.0
C2284 C 0.8319 0.6464 0.61608 0.0
C2285 C 0.84667 0.66976 0.61069 0.0
loop_
_geom_bond_atom_site_label_1
_geom_bond_atom_site_label_2
_geom_bond_distance
_geom_bond_site_symmetry_2
_ccdc_geom_bond_type
C0 C1 1.384 . S
C0 H13 0.947 . S
C0 C35 1.382 . S
C1 C0 1.384 . S
C1 C2 1.378 . S
C2 C1 1.378 . S
C2 C3 1.378 . S
C2 H14 0.952 . S
C3 C2 1.378 . S
C3 H15 0.950 . S
C3 C34 1.383 . S
H4 C23 0.947 . S
H5 C24 0.946 . S
H6 C26 0.953 . S
H7 C27 0.945 . S
H8 C29 0.952 . S
H9 C30 0.949 . S
H10 C32 0.950 . S
H11 C33 0.948 . S
H12 C35 0.951 . S
H13 C0 0.947 . S
H14 C2 0.952 . S
H15 C3 0.950 . S
N16 C19 1.382 . S
N16 C21 1.363 . S
N17 C19 1.371 . S
N17 C20 1.372 . S
N18 C20 1.361 . S
N18 C21 1.377 . S
C19 N16 1.382 . S
C19 N17 1.371 . S
C19 C22 1.480 . S
C20 N17 1.372 . S
C20 N18 1.361 . S
C20 C28 1.457 . S
C21 N16 1.363 . S
C21 N18 1.377 . S
C21 C34 1.479 . S
C22 C19 1.480 . S
C22 C23 1.383 . S
C22 C27 1.385 . S
C23 H4 0.947 . S
C23 C22 1.383 . S
C23 C24 1.388 . S
C24 H5 0.946 . S
C24 C23 1.388 . S
C24 C25 1.384 . S
C25 C24 1.384 . S
C25 C26 1.377 . S
C26 H6 0.953 . S
C26 C25 1.377 . S
C26 C27 1.369 . S
C27 H7 0.945 . S
C27 C22 1.385 . S
C27 C26 1.369 . S
C28 C20 1.457 . S
C28 C29 1.372 . S
C28 C33 1.364 . S
C29 H8 0.952 . S
C29 C28 1.372 . S
C29 C30 1.389 . S
C30 H9 0.949 . S
C30 C29 1.389 . S
C30 C31 1.387 . S
C31 C30 1.387 . S
C31 C32 1.372 . S
C32 H10 0.950 . S
C32 C31 1.372 . S
C32 C33 1.379 . S
C33 H11 0.948 . S
C33 C28 1.364 . S
C33 C32 1.379 . S
C34 C3 1.383 . S
C34 C21 1.479 . S
C34 C35 1.398 . S
C35 C0 1.382 . S
C35 H12 0.951 . S
C35 C34 1.398 . S
C36 C37 1.384 . S
C36 H49 0.947 . S
C36 C71 1.382 . S
C37 C36 1.384 . S
C37 C38 1.378 . S
C38 C37 1.378 . S
C38 C39 1.378 . S
C38 H50 0.952 . S
C39 C38 1.378 . S
C39 H51 0.950 . S
C39 C70 1.383 . S
H40 C59 0.947 . S
H41 C60 0.946 . S
H42 C62 0.953 . S
H43 C63 0.945 . S
H44 C65 0.952 . S
H45 C66 0.949 . S
H46 C68 0.950 . S
H47 C69 0.948 . S
H48 C71 0.951 . S
H49 C36 0.947 . S
H50 C38 0.952 . S
H51 C39 0.950 . S
N52 C55 1.382 . S
N52 C57 1.363 . S
N53 C55 1.371 . S
N53 C56 1.372 . S
N54 C56 1.361 . S
N54 C57 1.377 . S
C55 N52 1.382 . S
C55 N53 1.371 . S
C55 C58 1.480 . S
C56 N53 1.372 . S
C56 N54 1.361 . S
C56 C64 1.457 . S
C57 N52 1.363 . S
C57 N54 1.377 . S
C57 C70 1.479 . S
C58 C55 1.480 . S
C58 C59 1.383 . S
C58 C63 1.385 . S
C59 H40 0.947 . S
C59 C58 1.383 . S
C59 C60 1.388 . S
C60 H41 0.946 . S
C60 C59 1.388 . S
C60 C61 1.384 . S
C61 C60 1.384 . S
C61 C62 1.377 . S
C62 H42 0.953 . S
C62 C61 1.377 . S
C62 C63 1.369 . S
C63 H43 0.945 . S
C63 C58 1.385 . S
C63 C62 1.369 . S
C64 C56 1.457 . S
C64 C65 1.372 . S
C64 C69 1.364 . S
C65 H44 0.952 . S
C65 C64 1.372 . S
C65 C66 1.389 . S
C66 H45 0.949 . S
C66 C65 1.389 . S
C66 C67 1.387 . S
C67 C66 1.387 . S
C67 C68 1.372 . S
C68 H46 0.950 . S
C68 C67 1.372 . S
C68 C69 1.379 . S
C69 H47 0.948 . S
C69 C64 1.364 . S
C69 C68 1.379 . S
C70 C39 1.383 . S
C70 C57 1.479 . S
C70 C71 1.398 . S
C71 C36 1.382 . S
C71 H48 0.951 . S
C71 C70 1.398 . S
C72 C73 1.384 . S
C72 H85 0.947 . S
C72 C107 1.382 . S
C73 C72 1.384 . S
C73 C74 1.378 . S
C74 C73 1.378 . S
C74 C75 1.378 . S
C74 H86 0.952 . S
C75 C74 1.378 . S
C75 H87 0.950 . S
C75 C106 1.383 . S
H76 C95 0.947 . S
H77 C96 0.946 . S
H78 C98 0.953 . S
H79 C99 0.945 . S
H80 C101 0.952 . S
H81 C102 0.949 . S
H82 C104 0.950 . S
H83 C105 0.948 . S
H84 C107 0.951 . S
H85 C72 0.947 . S
H86 C74 0.952 . S
H87 C75 0.950 . S
N88 C91 1.382 . S
N88 C93 1.363 . S
N89 C91 1.371 . S
N89 C92 1.372 . S
N90 C92 1.361 . S
N90 C93 1.377 . S
C91 N88 1.382 . S
C91 N89 1.371 . S
C91 C94 1.480 . S
C92 N89 1.372 . S
C92 N90 1.361 . S
C92 C100 1.457 . S
C93 N88 1.363 . S
C93 N90 1.377 . S
C93 C106 1.479 . S
C94 C91 1.480 . S
C94 C95 1.383 . S
C94 C99 1.385 . S
C95 H76 0.947 . S
C95 C94 1.383 . S
C95 C96 1.388 . S
C96 H77 0.946 . S
C96 C95 1.388 . S
C96 C97 1.384 . S
C97 C96 1.384 . S
C97 C98 1.377 . S
C98 H78 0.953 . S
C98 C97 1.377 . S
C98 C99 1.369 . S
C99 H79 0.945 . S
C99 C94 1.385 . S
C99 C98 1.369 . S
C100 C92 1.457 . S
C100 C101 1.372 . S
C100 C105 1.364 . S
C101 H80 0.952 . S
C101 C100 1.372 . S
C101 C102 1.389 . S
C102 H81 0.949 . S
C102 C101 1.389 . S
C102 C103 1.387 . S
C103 C102 1.387 . S
C103 C104 1.372 . S
C104 H82 0.950 . S
C104 C103 1.372 . S
C104 C105 1.379 . S
C105 H83 0.948 . S
C105 C100 1.364 . S
C105 C104 1.379 . S
C106 C75 1.383 . S
C106 C93 1.479 . S
C106 C107 1.398 . S
C107 C72 1.382 . S
C107 H84 0.951 . S
C107 C106 1.398 . S
C108 C109 1.384 . S
C108 H121 0.947 . S
C108 C143 1.382 . S
C109 C108 1.384 . S
C109 C110 1.378 . S
C110 C109 1.378 . S
C110 C111 1.378 . S
C110 H122 0.952 . S
C111 C110 1.378 . S
C111 H123 0.950 . S
C111 C142 1.383 . S
H112 C131 0.947 . S
H113 C132 0.946 . S
H114 C134 0.953 . S
H115 C135 0.945 . S
H116 C137 0.952 . S
H117 C138 0.949 . S
H118 C140 0.950 . S
H119 C141 0.948 . S
H120 C143 0.951 . S
H121 C108 0.947 . S
H122 C110 0.952 . S
H123 C111 0.950 . S
N124 C127 1.382 . S
N124 C129 1.363 . S
N125 C127 1.371 . S
N125 C128 1.372 . S
N126 C128 1.361 . S
N126 C129 1.377 . S
C127 N124 1.382 . S
C127 N125 1.371 . S
C127 C130 1.480 . S
C128 N125 1.372 . S
C128 N126 1.361 . S
C128 C136 1.457 . S
C129 N124 1.363 . S
C129 N126 1.377 . S
C129 C142 1.479 . S
C130 C127 1.480 . S
C130 C131 1.383 . S
C130 C135 1.385 . S
C131 H112 0.947 . S
C131 C130 1.383 . S
C131 C132 1.388 . S
C132 H113 0.946 . S
C132 C131 1.388 . S
C132 C133 1.384 . S
C133 C132 1.384 . S
C133 C134 1.377 . S
C134 H114 0.953 . S
C134 C133 1.377 . S
C134 C135 1.369 . S
C135 H115 0.945 . S
C135 C130 1.385 . S
C135 C134 1.369 . S
C136 C128 1.457 . S
C136 C137 1.372 . S
C136 C141 1.364 . S
C137 H116 0.952 . S
C137 C136 1.372 . S
C137 C138 1.389 . S
C138 H117 0.949 . S
C138 C137 1.389 . S
C138 C139 1.387 . S
C139 C138 1.387 . S
C139 C140 1.372 . S
C140 H118 0.950 . S
C140 C139 1.372 . S
C140 C141 1.379 . S
C141 H119 0.948 . S
C141 C136 1.364 . S
C141 C140 1.379 . S
C142 C111 1.383 . S
C142 C129 1.479 . S
C142 C143 1.398 . S
C143 C108 1.382 . S
C143 H120 0.951 . S
C143 C142 1.398 . S
C144 C145 1.384 . S
C144 H157 0.947 . S
C144 C179 1.382 . S
C145 C144 1.384 . S
C145 C146 1.378 . S
C146 C145 1.378 . S
C146 C147 1.378 . S
C146 H158 0.952 . S
C147 C146 1.378 . S
C147 H159 0.950 . S
C147 C178 1.383 . S
H148 C167 0.947 . S
H149 C168 0.946 . S
H150 C170 0.953 . S
H151 C171 0.945 . S
H152 C173 0.952 . S
H153 C174 0.949 . S
H154 C176 0.950 . S
H155 C177 0.948 . S
H156 C179 0.951 . S
H157 C144 0.947 . S
H158 C146 0.952 . S
H159 C147 0.950 . S
N160 C163 1.382 . S
N160 C165 1.363 . S
N161 C163 1.371 . S
N161 C164 1.372 . S
N162 C164 1.361 . S
N162 C165 1.377 . S
C163 N160 1.382 . S
C163 N161 1.371 . S
C163 C166 1.480 . S
C164 N161 1.372 . S
C164 N162 1.361 . S
C164 C172 1.457 . S
C165 N160 1.363 . S
C165 N162 1.377 . S
C165 C178 1.479 . S
C166 C163 1.480 . S
C166 C167 1.383 . S
C166 C171 1.385 . S
C167 H148 0.947 . S
C167 C166 1.383 . S
C167 C168 1.388 . S
C168 H149 0.946 . S
C168 C167 1.388 . S
C168 C169 1.384 . S
C169 C168 1.384 . S
C169 C170 1.377 . S
C170 H150 0.953 . S
C170 C169 1.377 . S
C170 C171 1.369 . S
C171 H151 0.945 . S
C171 C166 1.385 . S
C171 C170 1.369 . S
C172 C164 1.457 . S
C172 C173 1.372 . S
C172 C177 1.364 . S
C173 H152 0.952 . S
C173 C172 1.372 . S
C173 C174 1.389 . S
C174 H153 0.949 . S
C174 C173 1.389 . S
C174 C175 1.387 . S
C175 C174 1.387 . S
C175 C176 1.372 . S
C176 H154 0.950 . S
C176 C175 1.372 . S
C176 C177 1.379 . S
C177 H155 0.948 . S
C177 C172 1.364 . S
C177 C176 1.379 . S
C178 C147 1.383 . S
C178 C165 1.479 . S
C178 C179 1.398 . S
C179 C144 1.382 . S
C179 H156 0.951 . S
C179 C178 1.398 . S
C180 C181 1.384 . S
C180 H193 0.947 . S
C180 C215 1.382 . S
C181 C180 1.384 . S
C181 C182 1.378 . S
C182 C181 1.378 . S
C182 C183 1.378 . S
C182 H194 0.952 . S
C183 C182 1.378 . S
C183 H195 0.950 . S
C183 C214 1.383 . S
H184 C203 0.947 . S
H185 C204 0.946 . S
H186 C206 0.953 . S
H187 C207 0.945 . S
H188 C209 0.952 . S
H189 C210 0.949 . S
H190 C212 0.950 . S
H191 C213 0.948 . S
H192 C215 0.951 . S
H193 C180 0.947 . S
H194 C182 0.952 . S
H195 C183 0.950 . S
N196 C199 1.382 . S
N196 C201 1.363 . S
N197 C199 1.371 . S
N197 C200 1.372 . S
N198 C200 1.361 . S
N198 C201 1.377 . S
C199 N196 1.382 . S
C199 N197 1.371 . S
C199 C202 1.480 . S
C200 N197 1.372 . S
C200 N198 1.361 . S
C200 C208 1.457 . S
C201 N196 1.363 . S
C201 N198 1.377 . S
C201 C214 1.479 . S
C202 C199 1.480 . S
C202 C203 1.383 . S
C202 C207 1.385 . S
C203 H184 0.947 . S
C203 C202 1.383 . S
C203 C204 1.388 . S
C204 H185 0.946 . S
C204 C203 1.388 . S
C204 C205 1.384 . S
C205 C204 1.384 . S
C205 C206 1.377 . S
C206 H186 0.953 . S
C206 C205 1.377 . S
C206 C207 1.369 . S
C207 H187 0.945 . S
C207 C202 1.385 . S
C207 C206 1.369 . S
C208 C200 1.457 . S
C208 C209 1.372 . S
C208 C213 1.364 . S
C209 H188 0.952 . S
C209 C208 1.372 . S
C209 C210 1.389 . S
C210 H189 0.949 . S
C210 C209 1.389 . S
C210 C211 1.387 . S
C211 C210 1.387 . S
C211 C212 1.372 . S
C212 H190 0.950 . S
C212 C211 1.372 . S
C212 C213 1.379 . S
C213 H191 0.948 . S
C213 C208 1.364 . S
C213 C212 1.379 . S
C214 C183 1.383 . S
C214 C201 1.479 . S
C214 C215 1.398 . S
C215 C180 1.382 . S
C215 H192 0.951 . S
C215 C214 1.398 . S
C216 C217 1.384 . S
C216 H229 0.947 . S
C216 C251 1.382 . S
C217 C216 1.384 . S
C217 C218 1.378 . S
C218 C217 1.378 . S
C218 C219 1.378 . S
C218 H230 0.952 . S
C219 C218 1.378 . S
C219 H231 0.950 . S
C219 C250 1.383 . S
H220 C239 0.947 . S
H221 C240 0.946 . S
H222 C242 0.953 . S
H223 C243 0.945 . S
H224 C245 0.952 . S
H225 C246 0.949 . S
H226 C248 0.950 . S
H227 C249 0.948 . S
H228 C251 0.951 . S
H229 C216 0.947 . S
H230 C218 0.952 . S
H231 C219 0.950 . S
N232 C235 1.382 . S
N232 C237 1.363 . S
N233 C235 1.371 . S
N233 C236 1.372 . S
N234 C236 1.361 . S
N234 C237 1.377 . S
C235 N232 1.382 . S
C235 N233 1.371 . S
C235 C238 1.480 . S
C236 N233 1.372 . S
C236 N234 1.361 . S
C236 C244 1.457 . S
C237 N232 1.363 . S
C237 N234 1.377 . S
C237 C250 1.479 . S
C238 C235 1.480 . S
C238 C239 1.383 . S
C238 C243 1.385 . S
C239 H220 0.947 . S
C239 C238 1.383 . S
C239 C240 1.388 . S
C240 H221 0.946 . S
C240 C239 1.388 . S
C240 C241 1.384 . S
C241 C240 1.384 . S
C241 C242 1.377 . S
C242 H222 0.953 . S
C242 C241 1.377 . S
C242 C243 1.369 . S
C243 H223 0.945 . S
C243 C238 1.385 . S
C243 C242 1.369 . S
C244 C236 1.457 . S
C244 C245 1.372 . S
C244 C249 1.364 . S
C245 H224 0.952 . S
C245 C244 1.372 . S
C245 C246 1.389 . S
C246 H225 0.949 . S
C246 C245 1.389 . S
C246 C247 1.387 . S
C247 C246 1.387 . S
C247 C248 1.372 . S
C248 H226 0.950 . S
C248 C247 1.372 . S
C248 C249 1.379 . S
C249 H227 0.948 . S
C249 C244 1.364 . S
C249 C248 1.379 . S
C250 C219 1.383 . S
C250 C237 1.479 . S
C250 C251 1.398 . S
C251 C216 1.382 . S
C251 H228 0.951 . S
C251 C250 1.398 . S
C252 C253 1.384 . S
C252 H265 0.947 . S
C252 C287 1.382 . S
C253 C252 1.384 . S
C253 C254 1.378 . S
C254 C253 1.378 . S
C254 C255 1.378 . S
C254 H266 0.952 . S
C255 C254 1.378 . S
C255 H267 0.950 . S
C255 C286 1.383 . S
H256 C275 0.947 . S
H257 C276 0.946 . S
H258 C278 0.953 . S
H259 C279 0.945 . S
H260 C281 0.952 . S
H261 C282 0.949 . S
H262 C284 0.950 . S
H263 C285 0.948 . S
H264 C287 0.951 . S
H265 C252 0.947 . S
H266 C254 0.952 . S
H267 C255 0.950 . S
N268 C271 1.382 . S
N268 C273 1.363 . S
N269 C271 1.371 . S
N269 C272 1.372 . S
N270 C272 1.361 . S
N270 C273 1.377 . S
C271 N268 1.382 . S
C271 N269 1.371 . S
C271 C274 1.480 . S
C272 N269 1.372 . S
C272 N270 1.361 . S
C272 C280 1.457 . S
C273 N268 1.363 . S
C273 N270 1.377 . S
C273 C286 1.479 . S
C274 C271 1.480 . S
C274 C275 1.383 . S
C274 C279 1.385 . S
C275 H256 0.947 . S
C275 C274 1.383 . S
C275 C276 1.388 . S
C276 H257 0.946 . S
C276 C275 1.388 . S
C276 C277 1.384 . S
C277 C276 1.384 . S
C277 C278 1.377 . S
C278 H258 0.953 . S
C278 C277 1.377 . S
C278 C279 1.369 . S
C279 H259 0.945 . S
C279 C274 1.385 . S
C279 C278 1.369 . S
C280 C272 1.457 . S
C280 C281 1.372 . S
C280 C285 1.364 . S
C281 H260 0.952 . S
C281 C280 1.372 . S
C281 C282 1.389 . S
C282 H261 0.949 . S
C282 C281 1.389 . S
C282 C283 1.387 . S
C283 C282 1.387 . S
C283 C284 1.372 . S
C284 H262 0.950 . S
C284 C283 1.372 . S
C284 C285 1.379 . S
C285 H263 0.948 . S
C285 C280 1.364 . S
C285 C284 1.379 . S
C286 C255 1.383 . S
C286 C273 1.479 . S
C286 C287 1.398 . S
C287 C252 1.382 . S
C287 H264 0.951 . S
C287 C286 1.398 . S
C288 C289 1.384 . S
C288 H301 0.947 . S
C288 C323 1.382 . S
C289 C288 1.384 . S
C289 C290 1.378 . S
C290 C289 1.378 . S
C290 C291 1.378 . S
C290 H302 0.952 . S
C291 C290 1.378 . S
C291 H303 0.950 . S
C291 C322 1.383 . S
H292 C311 0.947 . S
H293 C312 0.946 . S
H294 C314 0.953 . S
H295 C315 0.945 . S
H296 C317 0.952 . S
H297 C318 0.949 . S
H298 C320 0.950 . S
H299 C321 0.948 . S
H300 C323 0.951 . S
H301 C288 0.947 . S
H302 C290 0.952 . S
H303 C291 0.950 . S
N304 C307 1.382 . S
N304 C309 1.363 . S
N305 C307 1.371 . S
N305 C308 1.372 . S
N306 C308 1.361 . S
N306 C309 1.377 . S
C307 N304 1.382 . S
C307 N305 1.371 . S
C307 C310 1.480 . S
C308 N305 1.372 . S
C308 N306 1.361 . S
C308 C316 1.457 . S
C309 N304 1.363 . S
C309 N306 1.377 . S
C309 C322 1.479 . S
C310 C307 1.480 . S
C310 C311 1.383 . S
C310 C315 1.385 . S
C311 H292 0.947 . S
C311 C310 1.383 . S
C311 C312 1.388 . S
C312 H293 0.946 . S
C312 C311 1.388 . S
C312 C313 1.384 . S
C313 C312 1.384 . S
C313 C314 1.377 . S
C314 H294 0.953 . S
C314 C313 1.377 . S
C314 C315 1.369 . S
C315 H295 0.945 . S
C315 C310 1.385 . S
C315 C314 1.369 . S
C316 C308 1.457 . S
C316 C317 1.372 . S
C316 C321 1.364 . S
C317 H296 0.952 . S
C317 C316 1.372 . S
C317 C318 1.389 . S
C318 H297 0.949 . S
C318 C317 1.389 . S
C318 C319 1.387 . S
C319 C318 1.387 . S
C319 C320 1.372 . S
C320 H298 0.950 . S
C320 C319 1.372 . S
C320 C321 1.379 . S
C321 H299 0.948 . S
C321 C316 1.364 . S
C321 C320 1.379 . S
C322 C291 1.383 . S
C322 C309 1.479 . S
C322 C323 1.398 . S
C323 C288 1.382 . S
C323 H300 0.951 . S
C323 C322 1.398 . S
C324 C325 1.384 . S
C324 H337 0.947 . S
C324 C359 1.382 . S
C325 C324 1.384 . S
C325 C326 1.378 . S
C326 C325 1.378 . S
C326 C327 1.378 . S
C326 H338 0.952 . S
C327 C326 1.378 . S
C327 H339 0.950 . S
C327 C358 1.383 . S
H328 C347 0.947 . S
H329 C348 0.946 . S
H330 C350 0.953 . S
H331 C351 0.945 . S
H332 C353 0.952 . S
H333 C354 0.949 . S
H334 C356 0.950 . S
H335 C357 0.948 . S
H336 C359 0.951 . S
H337 C324 0.947 . S
H338 C326 0.952 . S
H339 C327 0.950 . S
N340 C343 1.382 . S
N340 C345 1.363 . S
N341 C343 1.371 . S
N341 C344 1.372 . S
N342 C344 1.361 . S
N342 C345 1.377 . S
C343 N340 1.382 . S
C343 N341 1.371 . S
C343 C346 1.480 . S
C344 N341 1.372 . S
C344 N342 1.361 . S
C344 C352 1.457 . S
C345 N340 1.363 . S
C345 N342 1.377 . S
C345 C358 1.479 . S
C346 C343 1.480 . S
C346 C347 1.383 . S
C346 C351 1.385 . S
C347 H328 0.947 . S
C347 C346 1.383 . S
C347 C348 1.388 . S
C348 H329 0.946 . S
C348 C347 1.388 . S
C348 C349 1.384 . S
C349 C348 1.384 . S
C349 C350 1.377 . S
C350 H330 0.953 . S
C350 C349 1.377 . S
C350 C351 1.369 . S
C351 H331 0.945 . S
C351 C346 1.385 . S
C351 C350 1.369 . S
C352 C344 1.457 . S
C352 C353 1.372 . S
C352 C357 1.364 . S
C353 H332 0.952 . S
C353 C352 1.372 . S
C353 C354 1.389 . S
C354 H333 0.949 . S
C354 C353 1.389 . S
C354 C355 1.387 . S
C355 C354 1.387 . S
C355 C356 1.372 . S
C356 H334 0.950 . S
C356 C355 1.372 . S
C356 C357 1.379 . S
C357 H335 0.948 . S
C357 C352 1.364 . S
C357 C356 1.379 . S
C358 C327 1.383 . S
C358 C345 1.479 . S
C358 C359 1.398 . S
C359 C324 1.382 . S
C359 H336 0.951 . S
C359 C358 1.398 . S
C360 C361 1.384 . S
C360 H373 0.947 . S
C360 C395 1.382 . S
C361 C360 1.384 . S
C361 C362 1.378 . S
C362 C361 1.378 . S
C362 C363 1.378 . S
C362 H374 0.952 . S
C363 C362 1.378 . S
C363 H375 0.950 . S
C363 C394 1.383 . S
H364 C383 0.947 . S
H365 C384 0.946 . S
H366 C386 0.953 . S
H367 C387 0.945 . S
H368 C389 0.952 . S
H369 C390 0.949 . S
H370 C392 0.950 . S
H371 C393 0.948 . S
H372 C395 0.951 . S
H373 C360 0.947 . S
H374 C362 0.952 . S
H375 C363 0.950 . S
N376 C379 1.382 . S
N376 C381 1.363 . S
N377 C379 1.371 . S
N377 C380 1.372 . S
N378 C380 1.361 . S
N378 C381 1.377 . S
C379 N376 1.382 . S
C379 N377 1.371 . S
C379 C382 1.480 . S
C380 N377 1.372 . S
C380 N378 1.361 . S
C380 C388 1.457 . S
C381 N376 1.363 . S
C381 N378 1.377 . S
C381 C394 1.479 . S
C382 C379 1.480 . S
C382 C383 1.383 . S
C382 C387 1.385 . S
C383 H364 0.947 . S
C383 C382 1.383 . S
C383 C384 1.388 . S
C384 H365 0.946 . S
C384 C383 1.388 . S
C384 C385 1.384 . S
C385 C384 1.384 . S
C385 C386 1.377 . S
C386 H366 0.953 . S
C386 C385 1.377 . S
C386 C387 1.369 . S
C387 H367 0.945 . S
C387 C382 1.385 . S
C387 C386 1.369 . S
C388 C380 1.457 . S
C388 C389 1.372 . S
C388 C393 1.364 . S
C389 H368 0.952 . S
C389 C388 1.372 . S
C389 C390 1.389 . S
C390 H369 0.949 . S
C390 C389 1.389 . S
C390 C391 1.387 . S
C391 C390 1.387 . S
C391 C392 1.372 . S
C392 H370 0.950 . S
C392 C391 1.372 . S
C392 C393 1.379 . S
C393 H371 0.948 . S
C393 C388 1.364 . S
C393 C392 1.379 . S
C394 C363 1.383 . S
C394 C381 1.479 . S
C394 C395 1.398 . S
C395 C360 1.382 . S
C395 H372 0.951 . S
C395 C394 1.398 . S
C396 C397 1.384 . S
C396 H409 0.947 . S
C396 C431 1.382 . S
C397 C396 1.384 . S
C397 C398 1.378 . S
C398 C397 1.378 . S
C398 C399 1.378 . S
C398 H410 0.952 . S
C399 C398 1.378 . S
C399 H411 0.950 . S
C399 C430 1.383 . S
H400 C419 0.947 . S
H401 C420 0.946 . S
H402 C422 0.953 . S
H403 C423 0.945 . S
H404 C425 0.952 . S
H405 C426 0.949 . S
H406 C428 0.950 . S
H407 C429 0.948 . S
H408 C431 0.951 . S
H409 C396 0.947 . S
H410 C398 0.952 . S
H411 C399 0.950 . S
N412 C415 1.382 . S
N412 C417 1.363 . S
N413 C415 1.371 . S
N413 C416 1.372 . S
N414 C416 1.361 . S
N414 C417 1.377 . S
C415 N412 1.382 . S
C415 N413 1.371 . S
C415 C418 1.480 . S
C416 N413 1.372 . S
C416 N414 1.361 . S
C416 C424 1.457 . S
C417 N412 1.363 . S
C417 N414 1.377 . S
C417 C430 1.479 . S
C418 C415 1.480 . S
C418 C419 1.383 . S
C418 C423 1.385 . S
C419 H400 0.947 . S
C419 C418 1.383 . S
C419 C420 1.388 . S
C420 H401 0.946 . S
C420 C419 1.388 . S
C420 C421 1.384 . S
C421 C420 1.384 . S
C421 C422 1.377 . S
C422 H402 0.953 . S
C422 C421 1.377 . S
C422 C423 1.369 . S
C423 H403 0.945 . S
C423 C418 1.385 . S
C423 C422 1.369 . S
C424 C416 1.457 . S
C424 C425 1.372 . S
C424 C429 1.364 . S
C425 H404 0.952 . S
C425 C424 1.372 . S
C425 C426 1.389 . S
C426 H405 0.949 . S
C426 C425 1.389 . S
C426 C427 1.387 . S
C427 C426 1.387 . S
C427 C428 1.372 . S
C428 H406 0.950 . S
C428 C427 1.372 . S
C428 C429 1.379 . S
C429 H407 0.948 . S
C429 C424 1.364 . S
C429 C428 1.379 . S
C430 C399 1.383 . S
C430 C417 1.479 . S
C430 C431 1.398 . S
C431 C396 1.382 . S
C431 H408 0.951 . S
C431 C430 1.398 . S
C432 C433 1.384 . S
C432 H445 0.947 . S
C432 C467 1.382 . S
C433 C432 1.384 . S
C433 C434 1.378 . S
C434 C433 1.378 . S
C434 C435 1.378 . S
C434 H446 0.952 . S
C435 C434 1.378 . S
C435 H447 0.950 . S
C435 C466 1.383 . S
H436 C455 0.947 . S
H437 C456 0.946 . S
H438 C458 0.953 . S
H439 C459 0.945 . S
H440 C461 0.952 . S
H441 C462 0.949 . S
H442 C464 0.950 . S
H443 C465 0.948 . S
H444 C467 0.951 . S
H445 C432 0.947 . S
H446 C434 0.952 . S
H447 C435 0.950 . S
N448 C451 1.382 . S
N448 C453 1.363 . S
N449 C451 1.371 . S
N449 C452 1.372 . S
N450 C452 1.361 . S
N450 C453 1.377 . S
C451 N448 1.382 . S
C451 N449 1.371 . S
C451 C454 1.480 . S
C452 N449 1.372 . S
C452 N450 1.361 . S
C452 C460 1.457 . S
C453 N448 1.363 . S
C453 N450 1.377 . S
C453 C466 1.479 . S
C454 C451 1.480 . S
C454 C455 1.383 . S
C454 C459 1.385 . S
C455 H436 0.947 . S
C455 C454 1.383 . S
C455 C456 1.388 . S
C456 H437 0.946 . S
C456 C455 1.388 . S
C456 C457 1.384 . S
C457 C456 1.384 . S
C457 C458 1.377 . S
C458 H438 0.953 . S
C458 C457 1.377 . S
C458 C459 1.369 . S
C459 H439 0.945 . S
C459 C454 1.385 . S
C459 C458 1.369 . S
C460 C452 1.457 . S
C460 C461 1.372 . S
C460 C465 1.364 . S
C461 H440 0.952 . S
C461 C460 1.372 . S
C461 C462 1.389 . S
C462 H441 0.949 . S
C462 C461 1.389 . S
C462 C463 1.387 . S
C463 C462 1.387 . S
C463 C464 1.372 . S
C464 H442 0.950 . S
C464 C463 1.372 . S
C464 C465 1.379 . S
C465 H443 0.948 . S
C465 C460 1.364 . S
C465 C464 1.379 . S
C466 C435 1.383 . S
C466 C453 1.479 . S
C466 C467 1.398 . S
C467 C432 1.382 . S
C467 H444 0.951 . S
C467 C466 1.398 . S
C468 C469 1.384 . S
C468 H481 0.947 . S
C468 C503 1.382 . S
C469 C468 1.384 . S
C469 C470 1.378 . S
C470 C469 1.378 . S
C470 C471 1.378 . S
C470 H482 0.952 . S
C471 C470 1.378 . S
C471 H483 0.950 . S
C471 C502 1.383 . S
H472 C491 0.947 . S
H473 C492 0.946 . S
H474 C494 0.953 . S
H475 C495 0.945 . S
H476 C497 0.952 . S
H477 C498 0.949 . S
H478 C500 0.950 . S
H479 C501 0.948 . S
H480 C503 0.951 . S
H481 C468 0.947 . S
H482 C470 0.952 . S
H483 C471 0.950 . S
N484 C487 1.382 . S
N484 C489 1.363 . S
N485 C487 1.371 . S
N485 C488 1.372 . S
N486 C488 1.361 . S
N486 C489 1.377 . S
C487 N484 1.382 . S
C487 N485 1.371 . S
C487 C490 1.480 . S
C488 N485 1.372 . S
C488 N486 1.361 . S
C488 C496 1.457 . S
C489 N484 1.363 . S
C489 N486 1.377 . S
C489 C502 1.479 . S
C490 C487 1.480 . S
C490 C491 1.383 . S
C490 C495 1.385 . S
C491 H472 0.947 . S
C491 C490 1.383 . S
C491 C492 1.388 . S
C492 H473 0.946 . S
C492 C491 1.388 . S
C492 C493 1.384 . S
C493 C492 1.384 . S
C493 C494 1.377 . S
C494 H474 0.953 . S
C494 C493 1.377 . S
C494 C495 1.369 . S
C495 H475 0.945 . S
C495 C490 1.385 . S
C495 C494 1.369 . S
C496 C488 1.457 . S
C496 C497 1.372 . S
C496 C501 1.364 . S
C497 H476 0.952 . S
C497 C496 1.372 . S
C497 C498 1.389 . S
C498 H477 0.949 . S
C498 C497 1.389 . S
C498 C499 1.387 . S
C499 C498 1.387 . S
C499 C500 1.372 . S
C500 H478 0.950 . S
C500 C499 1.372 . S
C500 C501 1.379 . S
C501 H479 0.948 . S
C501 C496 1.364 . S
C501 C500 1.379 . S
C502 C471 1.383 . S
C502 C489 1.479 . S
C502 C503 1.398 . S
C503 C468 1.382 . S
C503 H480 0.951 . S
C503 C502 1.398 . S
C504 C505 1.384 . S
C504 H517 0.947 . S
C504 C539 1.382 . S
C505 C504 1.384 . S
C505 C506 1.378 . S
C506 C505 1.378 . S
C506 C507 1.378 . S
C506 H518 0.952 . S
C507 C506 1.378 . S
C507 H519 0.950 . S
C507 C538 1.383 . S
H508 C527 0.947 . S
H509 C528 0.946 . S
H510 C530 0.953 . S
H511 C531 0.945 . S
H512 C533 0.952 . S
H513 C534 0.949 . S
H514 C536 0.950 . S
H515 C537 0.948 . S
H516 C539 0.951 . S
H517 C504 0.947 . S
H518 C506 0.952 . S
H519 C507 0.950 . S
N520 C523 1.382 . S
N520 C525 1.363 . S
N521 C523 1.371 . S
N521 C524 1.372 . S
N522 C524 1.361 . S
N522 C525 1.377 . S
C523 N520 1.382 . S
C523 N521 1.371 . S
C523 C526 1.480 . S
C524 N521 1.372 . S
C524 N522 1.361 . S
C524 C532 1.457 . S
C525 N520 1.363 . S
C525 N522 1.377 . S
C525 C538 1.479 . S
C526 C523 1.480 . S
C526 C527 1.383 . S
C526 C531 1.385 . S
C527 H508 0.947 . S
C527 C526 1.383 . S
C527 C528 1.388 . S
C528 H509 0.946 . S
C528 C527 1.388 . S
C528 C529 1.384 . S
C529 C528 1.384 . S
C529 C530 1.377 . S
C530 H510 0.953 . S
C530 C529 1.377 . S
C530 C531 1.369 . S
C531 H511 0.945 . S
C531 C526 1.385 . S
C531 C530 1.369 . S
C532 C524 1.457 . S
C532 C533 1.372 . S
C532 C537 1.364 . S
C533 H512 0.952 . S
C533 C532 1.372 . S
C533 C534 1.389 . S
C534 H513 0.949 . S
C534 C533 1.389 . S
C534 C535 1.387 . S
C535 C534 1.387 . S
C535 C536 1.372 . S
C536 H514 0.950 . S
C536 C535 1.372 . S
C536 C537 1.379 . S
C537 H515 0.948 . S
C537 C532 1.364 . S
C537 C536 1.379 . S
C538 C507 1.383 . S
C538 C525 1.479 . S
C538 C539 1.398 . S
C539 C504 1.382 . S
C539 H516 0.951 . S
C539 C538 1.398 . S
C540 C541 1.384 . S
C540 H553 0.947 . S
C540 C575 1.382 . S
C541 C540 1.384 . S
C541 C542 1.378 . S
C542 C541 1.378 . S
C542 C543 1.378 . S
C542 H554 0.952 . S
C543 C542 1.378 . S
C543 H555 0.950 . S
C543 C574 1.383 . S
H544 C563 0.947 . S
H545 C564 0.946 . S
H546 C566 0.953 . S
H547 C567 0.945 . S
H548 C569 0.952 . S
H549 C570 0.949 . S
H550 C572 0.950 . S
H551 C573 0.948 . S
H552 C575 0.951 . S
H553 C540 0.947 . S
H554 C542 0.952 . S
H555 C543 0.950 . S
N556 C559 1.382 . S
N556 C561 1.363 . S
N557 C559 1.371 . S
N557 C560 1.372 . S
N558 C560 1.361 . S
N558 C561 1.377 . S
C559 N556 1.382 . S
C559 N557 1.371 . S
C559 C562 1.480 . S
C560 N557 1.372 . S
C560 N558 1.361 . S
C560 C568 1.457 . S
C561 N556 1.363 . S
C561 N558 1.377 . S
C561 C574 1.479 . S
C562 C559 1.480 . S
C562 C563 1.383 . S
C562 C567 1.385 . S
C563 H544 0.947 . S
C563 C562 1.383 . S
C563 C564 1.388 . S
C564 H545 0.946 . S
C564 C563 1.388 . S
C564 C565 1.384 . S
C565 C564 1.384 . S
C565 C566 1.377 . S
C566 H546 0.953 . S
C566 C565 1.377 . S
C566 C567 1.369 . S
C567 H547 0.945 . S
C567 C562 1.385 . S
C567 C566 1.369 . S
C568 C560 1.457 . S
C568 C569 1.372 . S
C568 C573 1.364 . S
C569 H548 0.952 . S
C569 C568 1.372 . S
C569 C570 1.389 . S
C570 H549 0.949 . S
C570 C569 1.389 . S
C570 C571 1.387 . S
C571 C570 1.387 . S
C571 C572 1.372 . S
C572 H550 0.950 . S
C572 C571 1.372 . S
C572 C573 1.379 . S
C573 H551 0.948 . S
C573 C568 1.364 . S
C573 C572 1.379 . S
C574 C543 1.383 . S
C574 C561 1.479 . S
C574 C575 1.398 . S
C575 C540 1.382 . S
C575 H552 0.951 . S
C575 C574 1.398 . S
C576 C577 1.384 . S
C576 H589 0.947 . S
C576 C611 1.382 . S
C577 C576 1.384 . S
C577 C578 1.378 . S
C578 C577 1.378 . S
C578 C579 1.378 . S
C578 H590 0.952 . S
C579 C578 1.378 . S
C579 H591 0.950 . S
C579 C610 1.383 . S
H580 C599 0.947 . S
H581 C600 0.946 . S
H582 C602 0.953 . S
H583 C603 0.945 . S
H584 C605 0.952 . S
H585 C606 0.949 . S
H586 C608 0.950 . S
H587 C609 0.948 . S
H588 C611 0.951 . S
H589 C576 0.947 . S
H590 C578 0.952 . S
H591 C579 0.950 . S
N592 C595 1.382 . S
N592 C597 1.363 . S
N593 C595 1.371 . S
N593 C596 1.372 . S
N594 C596 1.361 . S
N594 C597 1.377 . S
C595 N592 1.382 . S
C595 N593 1.371 . S
C595 C598 1.480 . S
C596 N593 1.372 . S
C596 N594 1.361 . S
C596 C604 1.457 . S
C597 N592 1.363 . S
C597 N594 1.377 . S
C597 C610 1.479 . S
C598 C595 1.480 . S
C598 C599 1.383 . S
C598 C603 1.385 . S
C599 H580 0.947 . S
C599 C598 1.383 . S
C599 C600 1.388 . S
C600 H581 0.946 . S
C600 C599 1.388 . S
C600 C601 1.384 . S
C601 C600 1.384 . S
C601 C602 1.377 . S
C602 H582 0.953 . S
C602 C601 1.377 . S
C602 C603 1.369 . S
C603 H583 0.945 . S
C603 C598 1.385 . S
C603 C602 1.369 . S
C604 C596 1.457 . S
C604 C605 1.372 . S
C604 C609 1.364 . S
C605 H584 0.952 . S
C605 C604 1.372 . S
C605 C606 1.389 . S
C606 H585 0.949 . S
C606 C605 1.389 . S
C606 C607 1.387 . S
C607 C606 1.387 . S
C607 C608 1.372 . S
C608 H586 0.950 . S
C608 C607 1.372 . S
C608 C609 1.379 . S
C609 H587 0.948 . S
C609 C604 1.364 . S
C609 C608 1.379 . S
C610 C579 1.383 . S
C610 C597 1.479 . S
C610 C611 1.398 . S
C611 C576 1.382 . S
C611 H588 0.951 . S
C611 C610 1.398 . S
C612 C613 1.384 . S
C612 H625 0.947 . S
C612 C647 1.382 . S
C613 C612 1.384 . S
C613 C614 1.378 . S
C614 C613 1.378 . S
C614 C615 1.378 . S
C614 H626 0.952 . S
C615 C614 1.378 . S
C615 H627 0.950 . S
C615 C646 1.383 . S
H616 C635 0.947 . S
H617 C636 0.946 . S
H618 C638 0.953 . S
H619 C639 0.945 . S
H620 C641 0.952 . S
H621 C642 0.949 . S
H622 C644 0.950 . S
H623 C645 0.948 . S
H624 C647 0.951 . S
H625 C612 0.947 . S
H626 C614 0.952 . S
H627 C615 0.950 . S
N628 C631 1.382 . S
N628 C633 1.363 . S
N629 C631 1.371 . S
N629 C632 1.372 . S
N630 C632 1.361 . S
N630 C633 1.377 . S
C631 N628 1.382 . S
C631 N629 1.371 . S
C631 C634 1.480 . S
C632 N629 1.372 . S
C632 N630 1.361 . S
C632 C640 1.457 . S
C633 N628 1.363 . S
C633 N630 1.377 . S
C633 C646 1.479 . S
C634 C631 1.480 . S
C634 C635 1.383 . S
C634 C639 1.385 . S
C635 H616 0.947 . S
C635 C634 1.383 . S
C635 C636 1.388 . S
C636 H617 0.946 . S
C636 C635 1.388 . S
C636 C637 1.384 . S
C637 C636 1.384 . S
C637 C638 1.377 . S
C638 H618 0.953 . S
C638 C637 1.377 . S
C638 C639 1.369 . S
C639 H619 0.945 . S
C639 C634 1.385 . S
C639 C638 1.369 . S
C640 C632 1.457 . S
C640 C641 1.372 . S
C640 C645 1.364 . S
C641 H620 0.952 . S
C641 C640 1.372 . S
C641 C642 1.389 . S
C642 H621 0.949 . S
C642 C641 1.389 . S
C642 C643 1.387 . S
C643 C642 1.387 . S
C643 C644 1.372 . S
C644 H622 0.950 . S
C644 C643 1.372 . S
C644 C645 1.379 . S
C645 H623 0.948 . S
C645 C640 1.364 . S
C645 C644 1.379 . S
C646 C615 1.383 . S
C646 C633 1.479 . S
C646 C647 1.398 . S
C647 C612 1.382 . S
C647 H624 0.951 . S
C647 C646 1.398 . S
Tb648 O651 2.453 . S
Tb648 O652 2.596 1_545 S
Tb648 O653 2.374 1_545 S
Tb648 O661 2.343 1_554 S
Tb648 O663 2.353 . S
Tb648 O665 2.427 1_554 S
Tb648 O666 2.513 1_554 S
C649 O653 1.251 . S
C649 O655 1.248 1_554 S
Tb650 O652 2.343 1_556 S
Tb650 O655 2.360 . S
Tb650 O658 2.427 1_556 S
Tb650 O659 2.513 1_556 S
Tb650 O660 2.453 . S
Tb650 O661 2.596 1_565 S
Tb650 O662 2.374 1_565 S
O651 Tb648 2.453 . S
O651 C667 1.245 . S
O652 Tb648 2.596 1_565 S
O652 Tb650 2.343 1_554 S
O652 C667 1.259 1_565 S
O653 Tb648 2.374 1_565 S
O653 C649 1.251 . S
C654 O658 1.275 . S
C654 O659 1.246 . S
O655 C649 1.248 1_556 S
O655 Tb650 2.360 . S
C656 O660 1.272 . S
C656 O661 1.254 1_565 S
C657 O662 1.250 . S
C657 O663 1.263 1_556 S
O658 Tb650 2.427 1_554 S
O658 C654 1.275 . S
O659 Tb650 2.513 1_554 S
O659 C654 1.246 . S
O660 Tb650 2.453 . S
O660 C656 1.272 . S
O661 Tb648 2.343 1_556 S
O661 Tb650 2.596 1_545 S
O661 C656 1.254 1_545 S
O662 Tb650 2.374 1_545 S
O662 C657 1.250 . S
O663 Tb648 2.353 . S
O663 C657 1.263 1_554 S
C664 O665 1.275 . S
C664 O666 1.246 . S
O665 Tb648 2.427 1_556 S
O665 C664 1.275 . S
O666 Tb648 2.513 1_556 S
O666 C664 1.246 . S
C667 O651 1.245 . S
C667 O652 1.259 1_545 S
Tb668 O671 2.453 . S
Tb668 O672 2.596 1_655 S
Tb668 O673 2.374 1_655 S
Tb668 O681 2.343 1_554 S
Tb668 O683 2.356 . S
Tb668 O685 2.427 1_554 S
Tb668 O686 2.513 1_554 S
C669 O673 1.251 . S
C669 O675 1.263 . S
Tb670 O672 2.343 1_556 S
Tb670 O675 2.353 1_556 S
Tb670 O678 2.427 1_556 S
Tb670 O679 2.513 1_556 S
Tb670 O680 2.453 . S
Tb670 O681 2.596 1_455 S
Tb670 O682 2.374 1_455 S
O671 Tb668 2.453 . S
O671 C687 1.245 1_655 S
O672 Tb668 2.596 1_455 S
O672 Tb670 2.343 1_554 S
O672 C687 1.259 . S
O673 Tb668 2.374 1_455 S
O673 C669 1.251 . S
C674 O678 1.275 . S
C674 O679 1.246 . S
O675 C669 1.263 . S
O675 Tb670 2.353 1_554 S
C676 O680 1.241 . S
C676 O681 1.261 1_455 S
C677 O682 1.250 . S
C677 O683 1.256 1_556 S
O678 Tb670 2.427 1_554 S
O678 C674 1.275 . S
O679 Tb670 2.513 1_554 S
O679 C674 1.246 . S
O680 Tb670 2.453 . S
O680 C676 1.241 . S
O681 Tb668 2.343 1_556 S
O681 Tb670 2.596 1_655 S
O681 C676 1.261 1_655 S
O682 Tb670 2.374 1_655 S
O682 C677 1.250 . S
O683 Tb668 2.356 . S
O683 C677 1.256 1_554 S
C684 O685 1.275 . S
C684 O686 1.246 . S
O685 Tb668 2.427 1_556 S
O685 C684 1.275 . S
O686 Tb668 2.513 1_556 S
O686 C684 1.246 . S
C687 O671 1.245 1_455 S
C687 O672 1.259 . S
Tb688 O691 2.453 . S
Tb688 O692 2.596 . S
Tb688 O693 2.374 . S
Tb688 O701 2.343 1_556 S
Tb688 O703 2.353 1_556 S
Tb688 O705 2.427 1_556 S
Tb688 O706 2.513 1_556 S
C689 O693 1.251 . S
C689 O695 1.263 1_556 S
Tb690 O692 2.343 1_554 S
Tb690 O695 2.353 . S
Tb690 O698 2.427 1_554 S
Tb690 O699 2.513 1_554 S
Tb690 O700 2.453 . S
Tb690 O701 2.596 . S
Tb690 O702 2.374 . S
O691 Tb688 2.453 . S
O691 C707 1.245 . S
O692 Tb688 2.596 . S
O692 Tb690 2.343 1_556 S
O692 C707 1.259 . S
O693 Tb688 2.374 . S
O693 C689 1.251 . S
C694 O698 1.275 . S
C694 O699 1.246 . S
O695 C689 1.263 1_554 S
O695 Tb690 2.353 . S
C696 O700 1.245 . S
C696 O701 1.259 . S
C697 O702 1.250 . S
C697 O703 1.263 . S
O698 Tb690 2.427 1_556 S
O698 C694 1.275 . S
O699 Tb690 2.513 1_556 S
O699 C694 1.246 . S
O700 Tb690 2.453 . S
O700 C696 1.245 . S
O701 Tb688 2.343 1_554 S
O701 Tb690 2.596 . S
O701 C696 1.259 . S
O702 Tb690 2.374 . S
O702 C697 1.250 . S
O703 Tb688 2.353 1_554 S
O703 C697 1.263 . S
C704 O705 1.275 . S
C704 O706 1.246 . S
O705 Tb688 2.427 1_554 S
O705 C704 1.275 . S
O706 Tb688 2.513 1_554 S
O706 C704 1.246 . S
C707 O691 1.245 . S
C707 O692 1.259 . S
Tb708 O711 2.453 . S
Tb708 O712 2.596 . S
Tb708 O713 2.374 . S
Tb708 O721 2.343 . S
Tb708 O723 2.353 . S
Tb708 O725 2.427 . S
Tb708 O726 2.513 . S
C709 O713 1.251 . S
C709 O715 1.263 . S
Tb710 O712 2.343 . S
Tb710 O715 2.353 . S
Tb710 O718 2.427 . S
Tb710 O719 2.513 . S
Tb710 O720 2.453 . S
Tb710 O721 2.596 . S
Tb710 O722 2.374 . S
O711 Tb708 2.453 . S
O711 C727 1.245 . S
O712 Tb708 2.596 . S
O712 Tb710 2.343 . S
O712 C727 1.259 . S
O713 Tb708 2.374 . S
O713 C709 1.251 . S
C714 O718 1.275 . S
C714 O719 1.246 . S
O715 C709 1.263 . S
O715 Tb710 2.353 . S
C716 O720 1.245 . S
C716 O721 1.259 . S
C717 O722 1.250 . S
C717 O723 1.263 . S
O718 Tb710 2.427 . S
O718 C714 1.275 . S
O719 Tb710 2.513 . S
O719 C714 1.246 . S
O720 Tb710 2.453 . S
O720 C716 1.245 . S
O721 Tb708 2.343 . S
O721 Tb710 2.596 . S
O721 C716 1.259 . S
O722 Tb710 2.374 . S
O722 C717 1.250 . S
O723 Tb708 2.353 . S
O723 C717 1.263 . S
C724 O725 1.275 . S
C724 O726 1.246 . S
O725 Tb708 2.427 . S
O725 C724 1.275 . S
O726 Tb708 2.513 . S
O726 C724 1.246 . S
C727 O711 1.245 . S
C727 O712 1.259 . S
Tb728 O731 2.453 . S
Tb728 O732 2.596 . S
Tb728 O733 2.374 . S
Tb728 O741 2.343 . S
Tb728 O743 2.353 . S
Tb728 O745 2.427 . S
Tb728 O746 2.513 . S
C729 O733 1.251 . S
C729 O735 1.263 . S
Tb730 O732 2.343 . S
Tb730 O735 2.353 . S
Tb730 O738 2.427 . S
Tb730 O739 2.513 . S
Tb730 O740 2.453 . S
Tb730 O741 2.596 . S
Tb730 O742 2.374 . S
O731 Tb728 2.453 . S
O731 C747 1.245 . S
O732 Tb728 2.596 . S
O732 Tb730 2.343 . S
O732 C747 1.259 . S
O733 Tb728 2.374 . S
O733 C729 1.251 . S
C734 O738 1.275 . S
C734 O739 1.246 . S
O735 C729 1.263 . S
O735 Tb730 2.353 . S
C736 O740 1.245 . S
C736 O741 1.259 . S
C737 O742 1.250 . S
C737 O743 1.263 . S
O738 Tb730 2.427 . S
O738 C734 1.275 . S
O739 Tb730 2.513 . S
O739 C734 1.246 . S
O740 Tb730 2.453 . S
O740 C736 1.245 . S
O741 Tb728 2.343 . S
O741 Tb730 2.596 . S
O741 C736 1.259 . S
O742 Tb730 2.374 . S
O742 C737 1.250 . S
O743 Tb728 2.353 . S
O743 C737 1.263 . S
C744 O745 1.275 . S
C744 O746 1.246 . S
O745 Tb728 2.427 . S
O745 C744 1.275 . S
O746 Tb728 2.513 . S
O746 C744 1.246 . S
C747 O731 1.245 . S
C747 O732 1.259 . S
Tb748 O751 2.453 . S
Tb748 O752 2.596 . S
Tb748 O753 2.374 . S
Tb748 O761 2.343 . S
Tb748 O763 2.353 . S
Tb748 O765 2.427 . S
Tb748 O766 2.513 . S
C749 O753 1.251 . S
C749 O755 1.263 . S
Tb750 O752 2.343 . S
Tb750 O755 2.353 . S
Tb750 O758 2.427 . S
Tb750 O759 2.513 . S
Tb750 O760 2.453 . S
Tb750 O761 2.596 . S
Tb750 O762 2.374 . S
O751 Tb748 2.453 . S
O751 C767 1.245 . S
O752 Tb748 2.596 . S
O752 Tb750 2.343 . S
O752 C767 1.259 . S
O753 Tb748 2.374 . S
O753 C749 1.251 . S
C754 O758 1.275 . S
C754 O759 1.246 . S
O755 C749 1.263 . S
O755 Tb750 2.353 . S
C756 O760 1.245 . S
C756 O761 1.259 . S
C757 O762 1.250 . S
C757 O763 1.263 . S
O758 Tb750 2.427 . S
O758 C754 1.275 . S
O759 Tb750 2.513 . S
O759 C754 1.246 . S
O760 Tb750 2.453 . S
O760 C756 1.245 . S
O761 Tb748 2.343 . S
O761 Tb750 2.596 . S
O761 C756 1.259 . S
O762 Tb750 2.374 . S
O762 C757 1.250 . S
O763 Tb748 2.353 . S
O763 C757 1.263 . S
C764 O765 1.275 . S
C764 O766 1.246 . S
O765 Tb748 2.427 . S
O765 C764 1.275 . S
O766 Tb748 2.513 . S
O766 C764 1.246 . S
C767 O751 1.245 . S
C767 O752 1.259 . S
Tb768 O771 2.453 . S
Tb768 O772 2.596 . S
Tb768 O773 2.374 . S
Tb768 O781 2.343 . S
Tb768 O783 2.353 . S
Tb768 O785 2.427 . S
Tb768 O786 2.513 . S
C769 O773 1.251 . S
C769 O775 1.263 . S
Tb770 O772 2.343 . S
Tb770 O775 2.353 . S
Tb770 O778 2.427 . S
Tb770 O779 2.513 . S
Tb770 O780 2.453 . S
Tb770 O781 2.596 . S
Tb770 O782 2.374 . S
O771 Tb768 2.453 . S
O771 C787 1.245 . S
O772 Tb768 2.596 . S
O772 Tb770 2.343 . S
O772 C787 1.259 . S
O773 Tb768 2.374 . S
O773 C769 1.251 . S
C774 O778 1.275 . S
C774 O779 1.246 . S
O775 C769 1.263 . S
O775 Tb770 2.353 . S
C776 O780 1.245 . S
C776 O781 1.259 . S
C777 O782 1.250 . S
C777 O783 1.263 . S
O778 Tb770 2.427 . S
O778 C774 1.275 . S
O779 Tb770 2.513 . S
O779 C774 1.246 . S
O780 Tb770 2.453 . S
O780 C776 1.245 . S
O781 Tb768 2.343 . S
O781 Tb770 2.596 . S
O781 C776 1.259 . S
O782 Tb770 2.374 . S
O782 C777 1.250 . S
O783 Tb768 2.353 . S
O783 C777 1.263 . S
C784 O785 1.275 . S
C784 O786 1.246 . S
O785 Tb768 2.427 . S
O785 C784 1.275 . S
O786 Tb768 2.513 . S
O786 C784 1.246 . S
C787 O771 1.245 . S
C787 O772 1.259 . S
Tb788 O791 2.453 . S
Tb788 O792 2.596 . S
Tb788 O793 2.374 . S
Tb788 O801 2.343 . S
Tb788 O803 2.353 . S
Tb788 O805 2.427 . S
Tb788 O806 2.513 . S
C789 O793 1.251 . S
C789 O795 1.263 . S
Tb790 O792 2.343 . S
Tb790 O795 2.353 . S
Tb790 O798 2.427 . S
Tb790 O799 2.513 . S
Tb790 O800 2.453 . S
Tb790 O801 2.596 . S
Tb790 O802 2.374 . S
O791 Tb788 2.453 . S
O791 C807 1.245 . S
O792 Tb788 2.596 . S
O792 Tb790 2.343 . S
O792 C807 1.259 . S
O793 Tb788 2.374 . S
O793 C789 1.251 . S
C794 O798 1.275 . S
C794 O799 1.246 . S
O795 C789 1.263 . S
O795 Tb790 2.353 . S
C796 O800 1.245 . S
C796 O801 1.259 . S
C797 O802 1.250 . S
C797 O803 1.263 . S
O798 Tb790 2.427 . S
O798 C794 1.275 . S
O799 Tb790 2.513 . S
O799 C794 1.246 . S
O800 Tb790 2.453 . S
O800 C796 1.245 . S
O801 Tb788 2.343 . S
O801 Tb790 2.596 . S
O801 C796 1.259 . S
O802 Tb790 2.374 . S
O802 C797 1.250 . S
O803 Tb788 2.353 . S
O803 C797 1.263 . S
C804 O805 1.275 . S
C804 O806 1.246 . S
O805 Tb788 2.427 . S
O805 C804 1.275 . S
O806 Tb788 2.513 . S
O806 C804 1.246 . S
C807 O791 1.245 . S
C807 O792 1.259 . S
Tb808 O811 2.453 . S
Tb808 O812 2.596 . S
Tb808 O813 2.374 . S
Tb808 O821 2.343 . S
Tb808 O823 2.353 . S
Tb808 O825 2.427 . S
Tb808 O826 2.513 . S
C809 O813 1.251 . S
C809 O815 1.263 . S
Tb810 O812 2.343 . S
Tb810 O815 2.353 . S
Tb810 O818 2.427 . S
Tb810 O819 2.513 . S
Tb810 O820 2.453 . S
Tb810 O821 2.596 . S
Tb810 O822 2.374 . S
O811 Tb808 2.453 . S
O811 C827 1.245 . S
O812 Tb808 2.596 . S
O812 Tb810 2.343 . S
O812 C827 1.259 . S
O813 Tb808 2.374 . S
O813 C809 1.251 . S
C814 O818 1.275 . S
C814 O819 1.246 . S
O815 C809 1.263 . S
O815 Tb810 2.353 . S
C816 O820 1.245 . S
C816 O821 1.259 . S
C817 O822 1.250 . S
C817 O823 1.263 . S
O818 Tb810 2.427 . S
O818 C814 1.275 . S
O819 Tb810 2.513 . S
O819 C814 1.246 . S
O820 Tb810 2.453 . S
O820 C816 1.245 . S
O821 Tb808 2.343 . S
O821 Tb810 2.596 . S
O821 C816 1.259 . S
O822 Tb810 2.374 . S
O822 C817 1.250 . S
O823 Tb808 2.353 . S
O823 C817 1.263 . S
C824 O825 1.275 . S
C824 O826 1.246 . S
O825 Tb808 2.427 . S
O825 C824 1.275 . S
O826 Tb808 2.513 . S
O826 C824 1.246 . S
C827 O811 1.245 . S
C827 O812 1.259 . S
H828 C840 0.930 . S
H829 C842 0.930 . S
H830 C843 0.930 . S
H831 C847 0.959 . S
H832 C847 0.959 1_556 S
H833 C847 0.961 . S
H834 C848 0.960 . S
H835 C848 0.961 . S
H836 C848 0.959 . S
H837 C851 0.929 . S
H838 C852 0.931 . S
H839 C854 0.930 . S
C840 H828 0.930 . S
C840 C841 1.399 . S
C840 C845 1.399 . S
C841 C840 1.399 . S
C841 C842 1.376 . S
C842 H829 0.930 . S
C842 C841 1.376 . S
C842 C843 1.388 . S
C843 H830 0.930 . S
C843 C842 1.388 . S
C843 C844 1.390 . S
C844 C843 1.390 . S
C844 C845 1.394 . S
C844 C850 1.465 . S
C845 C840 1.399 . S
C845 C844 1.394 . S
C845 C846 1.516 . S
C846 C845 1.516 . S
C846 C847 1.502 . S
C846 C848 1.561 . S
C846 C849 1.526 . S
C847 H831 0.959 . S
C847 H832 0.959 1_554 S
C847 H833 0.961 . S
C847 C846 1.502 . S
C848 H834 0.960 . S
C848 H835 0.961 . S
C848 H836 0.959 . S
C848 C846 1.561 . S
C849 C846 1.526 . S
C849 C850 1.396 . S
C849 C854 1.390 . S
C850 C844 1.465 . S
C850 C849 1.396 . S
C850 C851 1.399 . S
C851 H837 0.929 . S
C851 C850 1.399 . S
C851 C852 1.385 . S
C852 H838 0.931 . S
C852 C851 1.385 . S
C852 C853 1.389 . S
C853 C852 1.389 . S
C853 C854 1.387 . S
C854 H839 0.930 . S
C854 C849 1.390 . S
C854 C853 1.387 . S
H855 C867 0.930 . S
H856 C869 0.930 . S
H857 C870 0.930 . S
H858 C874 0.959 . S
H859 C874 0.959 . S
H860 C874 0.961 . S
H861 C875 0.960 . S
H862 C875 0.961 . S
H863 C875 0.959 . S
H864 C878 0.929 . S
H865 C879 0.931 . S
H866 C881 0.930 . S
C867 H855 0.930 . S
C867 C868 1.399 . S
C867 C872 1.399 . S
C868 C867 1.399 . S
C868 C869 1.376 . S
C869 H856 0.930 . S
C869 C868 1.376 . S
C869 C870 1.388 . S
C870 H857 0.930 . S
C870 C869 1.388 . S
C870 C871 1.390 . S
C871 C870 1.390 . S
C871 C872 1.394 . S
C871 C877 1.465 . S
C872 C867 1.399 . S
C872 C871 1.394 . S
C872 C873 1.516 . S
C873 C872 1.516 . S
C873 C874 1.502 . S
C873 C875 1.561 . S
C873 C876 1.526 . S
C874 H858 0.959 . S
C874 H859 0.959 . S
C874 H860 0.961 . S
C874 C873 1.502 . S
C875 H861 0.960 . S
C875 H862 0.961 . S
C875 H863 0.959 . S
C875 C873 1.561 . S
C876 C873 1.526 . S
C876 C877 1.396 . S
C876 C881 1.390 . S
C877 C871 1.465 . S
C877 C876 1.396 . S
C877 C878 1.399 . S
C878 H864 0.929 . S
C878 C877 1.399 . S
C878 C879 1.385 . S
C879 H865 0.931 . S
C879 C878 1.385 . S
C879 C880 1.389 . S
C880 C879 1.389 . S
C880 C881 1.387 . S
C881 H866 0.930 . S
C881 C876 1.390 . S
C881 C880 1.387 . S
H882 C894 0.930 . S
H883 C896 0.930 . S
H884 C897 0.930 . S
H885 C901 0.959 . S
H886 C901 0.959 . S
H887 C901 0.961 . S
H888 C902 0.960 . S
H889 C902 0.961 . S
H890 C902 0.959 . S
H891 C905 0.929 . S
H892 C906 0.931 . S
H893 C908 0.930 . S
C894 H882 0.930 . S
C894 C895 1.399 . S
C894 C899 1.399 . S
C895 C894 1.399 . S
C895 C896 1.376 . S
C896 H883 0.930 . S
C896 C895 1.376 . S
C896 C897 1.388 . S
C897 H884 0.930 . S
C897 C896 1.388 . S
C897 C898 1.390 . S
C898 C897 1.390 . S
C898 C899 1.394 . S
C898 C904 1.465 . S
C899 C894 1.399 . S
C899 C898 1.394 . S
C899 C900 1.516 . S
C900 C899 1.516 . S
C900 C901 1.502 . S
C900 C902 1.561 1_554 S
C900 C903 1.526 . S
C901 H885 0.959 . S
C901 H886 0.959 . S
C901 H887 0.961 . S
C901 C900 1.502 . S
C902 H888 0.960 . S
C902 H889 0.961 . S
C902 H890 0.959 . S
C902 C900 1.561 1_556 S
C903 C900 1.526 . S
C903 C904 1.396 . S
C903 C908 1.390 . S
C904 C898 1.465 . S
C904 C903 1.396 . S
C904 C905 1.399 . S
C905 H891 0.929 . S
C905 C904 1.399 . S
C905 C906 1.385 . S
C906 H892 0.931 . S
C906 C905 1.385 . S
C906 C907 1.389 . S
C907 C906 1.389 . S
C907 C908 1.387 . S
C908 H893 0.930 . S
C908 C903 1.390 . S
C908 C907 1.387 . S
H909 C921 0.930 . S
H910 C923 0.930 . S
H911 C924 0.930 . S
H912 C928 0.959 . S
H913 C928 0.959 1_554 S
H914 C928 0.974 . S
H915 C929 0.960 . S
H916 C929 0.961 . S
H917 C929 0.959 1_556 S
H918 C932 0.929 . S
H919 C933 0.931 . S
H920 C935 0.930 1_554 S
C921 H909 0.930 . S
C921 C922 1.399 . S
C921 C926 1.399 . S
C922 C921 1.399 . S
C922 C923 1.376 . S
C923 H910 0.930 . S
C923 C922 1.376 . S
C923 C924 1.388 . S
C924 H911 0.930 . S
C924 C923 1.388 . S
C924 C925 1.390 . S
C925 C924 1.390 . S
C925 C926 1.394 . S
C925 C931 1.465 . S
C926 C921 1.399 . S
C926 C925 1.394 . S
C926 C927 1.516 . S
C927 C926 1.516 . S
C927 C928 1.502 . S
C927 C929 1.561 1_556 S
C927 C930 1.526 . S
C928 H912 0.959 . S
C928 H913 0.959 1_556 S
C928 H914 0.974 . S
C928 C927 1.502 . S
C929 H915 0.960 . S
C929 H916 0.961 . S
C929 H917 0.959 1_554 S
C929 C927 1.561 1_554 S
C930 C927 1.526 . S
C930 C931 1.396 . S
C930 C935 1.390 . S
C931 C925 1.465 . S
C931 C930 1.396 . S
C931 C932 1.399 . S
C932 H918 0.929 . S
C932 C931 1.399 . S
C932 C933 1.385 . S
C933 H919 0.931 . S
C933 C932 1.385 . S
C933 C934 1.389 . S
C934 C933 1.389 . S
C934 C935 1.387 . S
C935 H920 0.930 1_556 S
C935 C930 1.390 . S
C935 C934 1.387 . S
H936 C948 0.930 . S
H937 C950 0.930 . S
H938 C951 0.930 . S
H939 C955 0.959 . S
H940 C955 0.959 . S
H941 C955 0.961 . S
H942 C956 0.960 . S
H943 C956 0.961 . S
H944 C956 0.959 . S
H945 C959 0.929 . S
H946 C960 0.931 . S
H947 C962 0.930 . S
C948 H936 0.930 . S
C948 C949 1.399 . S
C948 C953 1.399 . S
C949 C948 1.399 . S
C949 C950 1.376 . S
C950 H937 0.930 . S
C950 C949 1.376 . S
C950 C951 1.388 . S
C951 H938 0.930 . S
C951 C950 1.388 . S
C951 C952 1.390 . S
C952 C951 1.390 . S
C952 C953 1.394 . S
C952 C958 1.465 . S
C953 C948 1.399 . S
C953 C952 1.394 . S
C953 C954 1.516 . S
C954 C953 1.516 . S
C954 C955 1.502 . S
C954 C956 1.561 . S
C954 C957 1.526 . S
C955 H939 0.959 . S
C955 H940 0.959 . S
C955 H941 0.961 . S
C955 C954 1.502 . S
C956 H942 0.960 . S
C956 H943 0.961 . S
C956 H944 0.959 . S
C956 C954 1.561 . S
C957 C954 1.526 . S
C957 C958 1.396 . S
C957 C962 1.390 . S
C958 C952 1.465 . S
C958 C957 1.396 . S
C958 C959 1.399 . S
C959 H945 0.929 . S
C959 C958 1.399 . S
C959 C960 1.385 . S
C960 H946 0.931 . S
C960 C959 1.385 . S
C960 C961 1.389 . S
C961 C960 1.389 . S
C961 C962 1.387 . S
C962 H947 0.930 . S
C962 C957 1.390 . S
C962 C961 1.387 . S
H963 C975 0.930 . S
H964 C977 0.930 . S
H965 C978 0.930 . S
H966 C982 0.959 . S
H967 C982 0.959 . S
H968 C982 0.961 . S
H969 C983 0.960 . S
H970 C983 0.961 . S
H971 C983 0.959 . S
H972 C986 0.929 1_554 S
H973 C987 0.985 . S
H974 C989 0.930 . S
C975 H963 0.930 . S
C975 C976 1.399 . S
C975 C980 1.399 . S
C976 C975 1.399 . S
C976 C977 1.376 . S
C977 H964 0.930 . S
C977 C976 1.376 . S
C977 C978 1.388 . S
C978 H965 0.930 . S
C978 C977 1.388 . S
C978 C979 1.390 . S
C979 C978 1.390 . S
C979 C980 1.394 . S
C979 C985 1.465 . S
C980 C975 1.399 . S
C980 C979 1.394 . S
C980 C981 1.516 . S
C981 C980 1.516 . S
C981 C982 1.502 . S
C981 C983 1.561 . S
C981 C984 1.526 . S
C982 H966 0.959 . S
C982 H967 0.959 . S
C982 H968 0.961 . S
C982 C981 1.502 . S
C983 H969 0.960 . S
C983 H970 0.961 . S
C983 H971 0.959 . S
C983 C981 1.561 . S
C984 C981 1.526 . S
C984 C985 1.396 . S
C984 C989 1.390 . S
C985 C979 1.465 . S
C985 C984 1.396 . S
C985 C986 1.399 . S
C986 H972 0.929 1_556 S
C986 C985 1.399 . S
C986 C987 1.375 1_556 S
C987 H973 0.985 . S
C987 C986 1.375 1_554 S
C987 C988 1.350 1_554 S
C988 C987 1.350 1_556 S
C988 C989 1.387 . S
C989 H974 0.930 . S
C989 C984 1.390 . S
C989 C988 1.387 . S
H990 C1002 0.930 . S
H991 C1004 0.930 . S
H992 C1005 0.930 . S
H993 C1009 0.959 . S
H994 C1009 0.959 . S
H995 C1009 0.961 . S
H996 C1010 0.960 . S
H997 C1010 0.961 . S
H998 C1010 0.959 . S
H999 C1013 0.929 . S
H1000 C1014 0.931 . S
H1001 C1016 0.930 . S
C1002 H990 0.930 . S
C1002 C1003 1.399 . S
C1002 C1007 1.399 . S
C1003 C1002 1.399 . S
C1003 C1004 1.376 . S
C1004 H991 0.930 . S
C1004 C1003 1.376 . S
C1004 C1005 1.388 . S
C1005 H992 0.930 . S
C1005 C1004 1.388 . S
C1005 C1006 1.390 . S
C1006 C1005 1.390 . S
C1006 C1007 1.394 . S
C1006 C1012 1.465 . S
C1007 C1002 1.399 . S
C1007 C1006 1.394 . S
C1007 C1008 1.516 . S
C1008 C1007 1.516 . S
C1008 C1009 1.502 . S
C1008 C1010 1.561 . S
C1008 C1011 1.526 . S
C1009 H993 0.959 . S
C1009 H994 0.959 . S
C1009 H995 0.961 . S
C1009 C1008 1.502 . S
C1010 H996 0.960 . S
C1010 H997 0.961 . S
C1010 H998 0.959 . S
C1010 C1008 1.561 . S
C1011 C1008 1.526 . S
C1011 C1012 1.396 . S
C1011 C1016 1.390 . S
C1012 C1006 1.465 . S
C1012 C1011 1.396 . S
C1012 C1013 1.399 . S
C1013 H999 0.929 . S
C1013 C1012 1.399 . S
C1013 C1014 1.385 . S
C1014 H1000 0.931 . S
C1014 C1013 1.385 . S
C1014 C1015 1.389 . S
C1015 C1014 1.389 . S
C1015 C1016 1.387 . S
C1016 H1001 0.930 . S
C1016 C1011 1.390 . S
C1016 C1015 1.387 . S
H1017 C1029 0.930 . S
H1018 C1031 0.930 . S
H1019 C1032 0.930 . S
H1020 C1036 0.959 . S
H1021 C1036 0.959 . S
H1022 C1036 0.961 . S
H1023 C1037 0.960 . S
H1024 C1037 0.961 . S
H1025 C1037 0.959 . S
H1026 C1040 0.929 . S
H1027 C1041 0.931 . S
H1028 C1043 0.930 . S
C1029 H1017 0.930 . S
C1029 C1030 1.399 . S
C1029 C1034 1.399 . S
C1030 C1029 1.399 . S
C1030 C1031 1.376 . S
C1031 H1018 0.930 . S
C1031 C1030 1.376 . S
C1031 C1032 1.388 . S
C1032 H1019 0.930 . S
C1032 C1031 1.388 . S
C1032 C1033 1.390 . S
C1033 C1032 1.390 . S
C1033 C1034 1.394 . S
C1033 C1039 1.465 . S
C1034 C1029 1.399 . S
C1034 C1033 1.394 . S
C1034 C1035 1.516 . S
C1035 C1034 1.516 . S
C1035 C1036 1.502 . S
C1035 C1037 1.561 . S
C1035 C1038 1.526 . S
C1036 H1020 0.959 . S
C1036 H1021 0.959 . S
C1036 H1022 0.961 . S
C1036 C1035 1.502 . S
C1037 H1023 0.960 . S
C1037 H1024 0.961 . S
C1037 H1025 0.959 . S
C1037 C1035 1.561 . S
C1038 C1035 1.526 . S
C1038 C1039 1.396 . S
C1038 C1043 1.390 . S
C1039 C1033 1.465 . S
C1039 C1038 1.396 . S
C1039 C1040 1.399 . S
C1040 H1026 0.929 . S
C1040 C1039 1.399 . S
C1040 C1041 1.385 . S
C1041 H1027 0.931 . S
C1041 C1040 1.385 . S
C1041 C1042 1.389 . S
C1042 C1041 1.389 . S
C1042 C1043 1.387 . S
C1043 H1028 0.930 . S
C1043 C1038 1.390 . S
C1043 C1042 1.387 . S
H1044 C1056 0.930 . S
H1045 C1058 0.930 . S
H1046 C1059 0.930 . S
H1047 C1063 0.959 . S
H1048 C1063 0.959 . S
H1049 C1063 0.961 . S
H1050 C1064 0.960 . S
H1051 C1064 0.961 . S
H1052 C1064 0.959 . S
H1053 C1067 0.929 . S
H1054 C1068 0.931 . S
H1055 C1070 0.930 . S
C1056 H1044 0.930 . S
C1056 C1057 1.399 . S
C1056 C1061 1.399 . S
C1057 C1056 1.399 . S
C1057 C1058 1.376 . S
C1058 H1045 0.930 . S
C1058 C1057 1.376 . S
C1058 C1059 1.388 . S
C1059 H1046 0.930 . S
C1059 C1058 1.388 . S
C1059 C1060 1.390 . S
C1060 C1059 1.390 . S
C1060 C1061 1.394 . S
C1060 C1066 1.465 . S
C1061 C1056 1.399 . S
C1061 C1060 1.394 . S
C1061 C1062 1.516 . S
C1062 C1061 1.516 . S
C1062 C1063 1.502 . S
C1062 C1064 1.561 1_556 S
C1062 C1065 1.526 . S
C1063 H1047 0.959 . S
C1063 H1048 0.959 . S
C1063 H1049 0.961 . S
C1063 C1062 1.502 . S
C1064 H1050 0.960 . S
C1064 H1051 0.961 . S
C1064 H1052 0.959 . S
C1064 C1062 1.561 1_554 S
C1065 C1062 1.526 . S
C1065 C1066 1.396 . S
C1065 C1070 1.390 . S
C1066 C1060 1.465 . S
C1066 C1065 1.396 . S
C1066 C1067 1.399 . S
C1067 H1053 0.929 . S
C1067 C1066 1.399 . S
C1067 C1068 1.385 . S
C1068 H1054 0.931 . S
C1068 C1067 1.385 . S
C1068 C1069 1.389 . S
C1069 C1068 1.389 . S
C1069 C1070 1.387 . S
C1070 H1055 0.930 . S
C1070 C1065 1.390 . S
C1070 C1069 1.387 . S
H1071 C1083 0.930 . S
H1072 C1085 0.930 . S
H1073 C1086 0.930 . S
H1074 C1090 0.959 . S
H1075 C1090 0.959 1_556 S
H1076 C1090 0.961 . S
H1077 C1091 0.959 1_556 S
H1078 C1091 0.961 1_556 S
H1079 C1091 0.959 . S
H1080 C1094 0.929 . S
H1081 C1095 0.931 . S
H1082 C1097 0.988 . S
C1083 H1071 0.930 . S
C1083 C1084 1.399 . S
C1083 C1088 1.399 . S
C1084 C1083 1.399 . S
C1084 C1085 1.376 . S
C1085 H1072 0.930 . S
C1085 C1084 1.376 . S
C1085 C1086 1.388 . S
C1086 H1073 0.930 . S
C1086 C1085 1.388 . S
C1086 C1087 1.390 . S
C1087 C1086 1.390 . S
C1087 C1088 1.394 . S
C1087 C1093 1.465 . S
C1088 C1083 1.399 . S
C1088 C1087 1.394 . S
C1088 C1089 1.516 . S
C1089 C1088 1.516 . S
C1089 C1090 1.502 . S
C1089 C1091 1.561 . S
C1089 C1092 1.526 . S
C1090 H1074 0.959 . S
C1090 H1075 0.959 1_554 S
C1090 H1076 0.961 . S
C1090 C1089 1.502 . S
C1091 H1077 0.959 1_554 S
C1091 H1078 0.961 1_554 S
C1091 H1079 0.959 . S
C1091 C1089 1.561 . S
C1092 C1089 1.526 . S
C1092 C1093 1.396 . S
C1092 C1097 1.390 . S
C1093 C1087 1.465 . S
C1093 C1092 1.396 . S
C1093 C1094 1.399 . S
C1094 H1080 0.929 . S
C1094 C1093 1.399 . S
C1094 C1095 1.385 . S
C1095 H1081 0.931 . S
C1095 C1094 1.385 . S
C1095 C1096 1.389 . S
C1096 C1095 1.389 . S
C1096 C1097 1.387 . S
C1097 H1082 0.988 . S
C1097 C1092 1.390 . S
C1097 C1096 1.387 . S
H1098 C1110 0.930 . S
H1099 C1112 0.930 . S
H1100 C1113 0.930 . S
H1101 C1117 0.959 . S
H1102 C1117 0.959 . S
H1103 C1117 0.961 . S
H1104 C1118 0.960 . S
H1105 C1118 0.961 . S
H1106 C1118 0.959 . S
H1107 C1121 0.929 . S
H1108 C1122 0.931 . S
H1109 C1124 0.930 . S
C1110 H1098 0.930 . S
C1110 C1111 1.399 . S
C1110 C1115 1.399 . S
C1111 C1110 1.399 . S
C1111 C1112 1.376 . S
C1112 H1099 0.930 . S
C1112 C1111 1.376 . S
C1112 C1113 1.388 . S
C1113 H1100 0.930 . S
C1113 C1112 1.388 . S
C1113 C1114 1.390 . S
C1114 C1113 1.390 . S
C1114 C1115 1.394 . S
C1114 C1120 1.465 . S
C1115 C1110 1.399 . S
C1115 C1114 1.394 . S
C1115 C1116 1.516 . S
C1116 C1115 1.516 . S
C1116 C1117 1.502 . S
C1116 C1118 1.561 . S
C1116 C1119 1.526 . S
C1117 H1101 0.959 . S
C1117 H1102 0.959 . S
C1117 H1103 0.961 . S
C1117 C1116 1.502 . S
C1118 H1104 0.960 . S
C1118 H1105 0.961 . S
C1118 H1106 0.959 . S
C1118 C1116 1.561 . S
C1119 C1116 1.526 . S
C1119 C1120 1.396 . S
C1119 C1124 1.390 . S
C1120 C1114 1.465 . S
C1120 C1119 1.396 . S
C1120 C1121 1.399 . S
C1121 H1107 0.929 . S
C1121 C1120 1.399 . S
C1121 C1122 1.385 . S
C1122 H1108 0.931 . S
C1122 C1121 1.385 . S
C1122 C1123 1.389 . S
C1123 C1122 1.389 . S
C1123 C1124 1.387 . S
C1124 H1109 0.930 . S
C1124 C1119 1.390 . S
C1124 C1123 1.387 . S
H1125 C1137 0.930 . S
H1126 C1139 0.930 . S
H1127 C1140 0.930 . S
H1128 C1144 0.959 . S
H1129 C1144 0.946 1_556 S
H1130 C1144 0.961 . S
H1131 C1145 0.960 . S
H1132 C1145 0.961 . S
H1133 C1145 0.959 . S
H1134 C1148 0.929 . S
H1135 C1149 0.931 . S
H1136 C1151 0.942 . S
C1137 H1125 0.930 . S
C1137 C1138 1.399 . S
C1137 C1142 1.399 . S
C1138 C1137 1.399 . S
C1138 C1139 1.376 . S
C1139 H1126 0.930 . S
C1139 C1138 1.376 . S
C1139 C1140 1.388 . S
C1140 H1127 0.930 . S
C1140 C1139 1.388 . S
C1140 C1141 1.390 . S
C1141 C1140 1.390 . S
C1141 C1142 1.394 . S
C1141 C1147 1.465 . S
C1142 C1137 1.399 . S
C1142 C1141 1.394 . S
C1142 C1143 1.516 . S
C1143 C1142 1.516 . S
C1143 C1144 1.502 . S
C1143 C1145 1.561 1_554 S
C1143 C1146 1.526 . S
C1144 H1128 0.959 . S
C1144 H1129 0.946 1_554 S
C1144 H1130 0.961 . S
C1144 C1143 1.502 . S
C1145 H1131 0.960 . S
C1145 H1132 0.961 . S
C1145 H1133 0.959 . S
C1145 C1143 1.561 1_556 S
C1146 C1143 1.526 . S
C1146 C1147 1.396 . S
C1146 C1151 1.390 . S
C1147 C1141 1.465 . S
C1147 C1146 1.396 . S
C1147 C1148 1.399 . S
C1148 H1134 0.929 . S
C1148 C1147 1.399 . S
C1148 C1149 1.385 . S
C1149 H1135 0.931 . S
C1149 C1148 1.385 . S
C1149 C1150 1.389 . S
C1150 C1149 1.389 . S
C1150 C1151 1.387 . S
C1151 H1136 0.942 . S
C1151 C1146 1.390 . S
C1151 C1150 1.387 . S
H1152 C1164 0.930 . S
H1153 C1166 0.930 . S
H1154 C1167 0.930 . S
H1155 C1171 0.959 . S
H1156 C1171 0.959 . S
H1157 C1171 0.961 . S
H1158 C1172 0.960 . S
H1159 C1172 0.961 . S
H1160 C1172 0.959 . S
H1161 C1175 0.929 . S
H1162 C1176 0.931 . S
H1163 C1178 0.930 . S
C1164 H1152 0.930 . S
C1164 C1165 1.399 . S
C1164 C1169 1.399 1_655 S
C1165 C1164 1.399 . S
C1165 C1166 1.376 . S
C1166 H1153 0.930 . S
C1166 C1165 1.376 . S
C1166 C1167 1.388 1_655 S
C1167 H1154 0.930 . S
C1167 C1166 1.388 1_455 S
C1167 C1168 1.390 . S
C1168 C1167 1.390 . S
C1168 C1169 1.394 . S
C1168 C1174 1.465 . S
C1169 C1164 1.399 1_455 S
C1169 C1168 1.394 . S
C1169 C1170 1.516 . S
C1170 C1169 1.516 . S
C1170 C1171 1.502 . S
C1170 C1172 1.561 . S
C1170 C1173 1.526 . S
C1171 H1155 0.959 . S
C1171 H1156 0.959 . S
C1171 H1157 0.961 . S
C1171 C1170 1.502 . S
C1172 H1158 0.960 . S
C1172 H1159 0.961 . S
C1172 H1160 0.959 . S
C1172 C1170 1.561 . S
C1173 C1170 1.526 . S
C1173 C1174 1.396 . S
C1173 C1178 1.390 . S
C1174 C1168 1.465 . S
C1174 C1173 1.396 . S
C1174 C1175 1.399 . S
C1175 H1161 0.929 . S
C1175 C1174 1.399 . S
C1175 C1176 1.385 . S
C1176 H1162 0.931 . S
C1176 C1175 1.385 . S
C1176 C1177 1.389 . S
C1177 C1176 1.389 . S
C1177 C1178 1.387 . S
C1178 H1163 0.930 . S
C1178 C1173 1.390 . S
C1178 C1177 1.387 . S
H1179 C1191 0.930 . S
H1180 C1193 0.930 . S
H1181 C1194 0.930 . S
H1182 C1198 0.959 . S
H1183 C1198 0.959 . S
H1184 C1198 0.961 . S
H1185 C1199 0.960 . S
H1186 C1199 0.961 . S
H1187 C1199 0.959 . S
H1188 C1202 0.929 . S
H1189 C1203 0.931 . S
H1190 C1205 0.930 . S
C1191 H1179 0.930 . S
C1191 C1192 1.399 . S
C1191 C1196 1.399 . S
C1192 C1191 1.399 . S
C1192 C1193 1.376 . S
C1193 H1180 0.930 . S
C1193 C1192 1.376 . S
C1193 C1194 1.388 . S
C1194 H1181 0.930 . S
C1194 C1193 1.388 . S
C1194 C1195 1.390 . S
C1195 C1194 1.390 . S
C1195 C1196 1.394 . S
C1195 C1201 1.465 . S
C1196 C1191 1.399 . S
C1196 C1195 1.394 . S
C1196 C1197 1.516 . S
C1197 C1196 1.516 . S
C1197 C1198 1.502 . S
C1197 C1199 1.561 . S
C1197 C1200 1.526 . S
C1198 H1182 0.959 . S
C1198 H1183 0.959 . S
C1198 H1184 0.961 . S
C1198 C1197 1.502 . S
C1199 H1185 0.960 . S
C1199 H1186 0.961 . S
C1199 H1187 0.959 . S
C1199 C1197 1.561 . S
C1200 C1197 1.526 . S
C1200 C1201 1.396 . S
C1200 C1205 1.390 . S
C1201 C1195 1.465 . S
C1201 C1200 1.396 . S
C1201 C1202 1.399 . S
C1202 H1188 0.929 . S
C1202 C1201 1.399 . S
C1202 C1203 1.385 . S
C1203 H1189 0.931 . S
C1203 C1202 1.385 . S
C1203 C1204 1.389 . S
C1204 C1203 1.389 . S
C1204 C1205 1.387 . S
C1205 H1190 0.930 . S
C1205 C1200 1.390 . S
C1205 C1204 1.387 . S
H1206 C1218 0.930 . S
H1207 C1220 0.930 . S
H1208 C1221 0.930 . S
H1209 C1225 0.959 . S
H1210 C1225 0.959 . S
H1211 C1225 0.961 . S
H1212 C1226 0.960 . S
H1213 C1226 0.961 . S
H1214 C1226 0.959 . S
H1215 C1229 0.929 . S
H1216 C1230 0.931 . S
H1217 C1232 0.930 . S
C1218 H1206 0.930 . S
C1218 C1219 1.399 . S
C1218 C1223 1.399 1_545 S
C1219 C1218 1.399 . S
C1219 C1220 1.376 . S
C1220 H1207 0.930 . S
C1220 C1219 1.376 . S
C1220 C1221 1.388 1_545 S
C1221 H1208 0.930 . S
C1221 C1220 1.388 1_565 S
C1221 C1222 1.390 . S
C1222 C1221 1.390 . S
C1222 C1223 1.394 . S
C1222 C1228 1.465 . S
C1223 C1218 1.399 1_565 S
C1223 C1222 1.394 . S
C1223 C1224 1.516 . S
C1224 C1223 1.516 . S
C1224 C1225 1.502 . S
C1224 C1226 1.561 . S
C1224 C1227 1.526 . S
C1225 H1209 0.959 . S
C1225 H1210 0.959 . S
C1225 H1211 0.961 . S
C1225 C1224 1.502 . S
C1226 H1212 0.960 . S
C1226 H1213 0.961 . S
C1226 H1214 0.959 . S
C1226 C1224 1.561 . S
C1227 C1224 1.526 . S
C1227 C1228 1.396 . S
C1227 C1232 1.390 . S
C1228 C1222 1.465 . S
C1228 C1227 1.396 . S
C1228 C1229 1.399 . S
C1229 H1215 0.929 . S
C1229 C1228 1.399 . S
C1229 C1230 1.385 . S
C1230 H1216 0.931 . S
C1230 C1229 1.385 . S
C1230 C1231 1.389 . S
C1231 C1230 1.389 . S
C1231 C1232 1.387 . S
C1232 H1217 0.930 . S
C1232 C1227 1.390 . S
C1232 C1231 1.387 . S
H1233 C1245 0.930 . S
H1234 C1247 0.930 . S
H1235 C1248 0.930 . S
H1236 C1252 0.959 . S
H1237 C1252 0.959 . S
H1238 C1252 0.961 . S
H1239 C1253 0.960 . S
H1240 C1253 0.961 . S
H1241 C1253 0.959 . S
H1242 C1256 0.929 . S
H1243 C1257 0.931 . S
H1244 C1259 0.930 . S
C1245 H1233 0.930 . S
C1245 C1246 1.399 . S
C1245 C1250 1.399 . S
C1246 C1245 1.399 . S
C1246 C1247 1.376 . S
C1247 H1234 0.930 . S
C1247 C1246 1.376 . S
C1247 C1248 1.388 . S
C1248 H1235 0.930 . S
C1248 C1247 1.388 . S
C1248 C1249 1.390 . S
C1249 C1248 1.390 . S
C1249 C1250 1.394 . S
C1249 C1255 1.465 . S
C1250 C1245 1.399 . S
C1250 C1249 1.394 . S
C1250 C1251 1.516 . S
C1251 C1250 1.516 . S
C1251 C1252 1.502 . S
C1251 C1253 1.561 . S
C1251 C1254 1.526 . S
C1252 H1236 0.959 . S
C1252 H1237 0.959 . S
C1252 H1238 0.961 . S
C1252 C1251 1.502 . S
C1253 H1239 0.960 . S
C1253 H1240 0.961 . S
C1253 H1241 0.959 . S
C1253 C1251 1.561 . S
C1254 C1251 1.526 . S
C1254 C1255 1.396 . S
C1254 C1259 1.390 . S
C1255 C1249 1.465 . S
C1255 C1254 1.396 . S
C1255 C1256 1.399 . S
C1256 H1242 0.929 . S
C1256 C1255 1.399 . S
C1256 C1257 1.385 . S
C1257 H1243 0.931 . S
C1257 C1256 1.385 . S
C1257 C1258 1.389 . S
C1258 C1257 1.389 . S
C1258 C1259 1.387 . S
C1259 H1244 0.930 . S
C1259 C1254 1.390 . S
C1259 C1258 1.387 . S
H1260 C1272 0.930 . S
H1261 C1274 0.930 . S
H1262 C1275 0.930 . S
H1263 C1279 0.959 . S
H1264 C1279 0.959 . S
H1265 C1279 0.961 . S
H1266 C1280 0.960 . S
H1267 C1280 0.961 . S
H1268 C1280 0.959 . S
H1269 C1283 0.929 . S
H1270 C1284 0.931 . S
H1271 C1286 0.930 . S
C1272 H1260 0.930 . S
C1272 C1273 1.399 . S
C1272 C1277 1.399 . S
C1273 C1272 1.399 . S
C1273 C1274 1.376 . S
C1274 H1261 0.930 . S
C1274 C1273 1.376 . S
C1274 C1275 1.388 . S
C1275 H1262 0.930 . S
C1275 C1274 1.388 . S
C1275 C1276 1.390 . S
C1276 C1275 1.390 . S
C1276 C1277 1.394 . S
C1276 C1282 1.465 . S
C1277 C1272 1.399 . S
C1277 C1276 1.394 . S
C1277 C1278 1.516 . S
C1278 C1277 1.516 . S
C1278 C1279 1.502 . S
C1278 C1280 1.561 . S
C1278 C1281 1.526 . S
C1279 H1263 0.959 . S
C1279 H1264 0.959 . S
C1279 H1265 0.961 . S
C1279 C1278 1.502 . S
C1280 H1266 0.960 . S
C1280 H1267 0.961 . S
C1280 H1268 0.959 . S
C1280 C1278 1.561 . S
C1281 C1278 1.526 . S
C1281 C1282 1.396 . S
C1281 C1286 1.390 . S
C1282 C1276 1.465 . S
C1282 C1281 1.396 . S
C1282 C1283 1.399 . S
C1283 H1269 0.929 . S
C1283 C1282 1.399 . S
C1283 C1284 1.385 . S
C1284 H1270 0.931 . S
C1284 C1283 1.385 . S
C1284 C1285 1.389 . S
C1285 C1284 1.389 . S
C1285 C1286 1.387 . S
C1286 H1271 0.930 . S
C1286 C1281 1.390 . S
C1286 C1285 1.387 . S
H1287 C1299 0.930 . S
H1288 C1301 0.930 . S
H1289 C1302 0.930 . S
H1290 C1306 0.959 . S
H1291 C1306 0.959 . S
H1292 C1306 0.961 . S
H1293 C1307 0.960 . S
H1294 C1307 0.961 . S
H1295 C1307 0.959 . S
H1296 C1310 0.929 . S
H1297 C1311 0.931 . S
H1298 C1313 0.930 . S
C1299 H1287 0.930 . S
C1299 C1300 1.399 . S
C1299 C1304 1.399 . S
C1300 C1299 1.399 . S
C1300 C1301 1.376 . S
C1301 H1288 0.930 . S
C1301 C1300 1.376 . S
C1301 C1302 1.388 . S
C1302 H1289 0.930 . S
C1302 C1301 1.388 . S
C1302 C1303 1.390 . S
C1303 C1302 1.390 . S
C1303 C1304 1.394 . S
C1303 C1309 1.465 . S
C1304 C1299 1.399 . S
C1304 C1303 1.394 . S
C1304 C1305 1.516 . S
C1305 C1304 1.516 . S
C1305 C1306 1.502 . S
C1305 C1307 1.561 . S
C1305 C1308 1.526 . S
C1306 H1290 0.959 . S
C1306 H1291 0.959 . S
C1306 H1292 0.961 . S
C1306 C1305 1.502 . S
C1307 H1293 0.960 . S
C1307 H1294 0.961 . S
C1307 H1295 0.959 . S
C1307 C1305 1.561 . S
C1308 C1305 1.526 . S
C1308 C1309 1.396 . S
C1308 C1313 1.390 . S
C1309 C1303 1.465 . S
C1309 C1308 1.396 . S
C1309 C1310 1.399 . S
C1310 H1296 0.929 . S
C1310 C1309 1.399 . S
C1310 C1311 1.385 . S
C1311 H1297 0.931 . S
C1311 C1310 1.385 . S
C1311 C1312 1.389 . S
C1312 C1311 1.389 . S
C1312 C1313 1.387 . S
C1313 H1298 0.930 . S
C1313 C1308 1.390 . S
C1313 C1312 1.387 . S
H1314 C1326 0.930 . S
H1315 C1328 0.930 . S
H1316 C1329 0.930 . S
H1317 C1333 0.959 . S
H1318 C1333 0.959 . S
H1319 C1333 0.961 . S
H1320 C1334 0.960 . S
H1321 C1334 0.961 . S
H1322 C1334 0.959 . S
H1323 C1337 0.929 . S
H1324 C1338 0.931 . S
H1325 C1340 0.930 . S
C1326 H1314 0.930 . S
C1326 C1327 1.399 . S
C1326 C1331 1.399 . S
C1327 C1326 1.399 . S
C1327 C1328 1.376 . S
C1328 H1315 0.930 . S
C1328 C1327 1.376 . S
C1328 C1329 1.388 . S
C1329 H1316 0.930 . S
C1329 C1328 1.388 . S
C1329 C1330 1.390 . S
C1330 C1329 1.390 . S
C1330 C1331 1.394 . S
C1330 C1336 1.465 . S
C1331 C1326 1.399 . S
C1331 C1330 1.394 . S
C1331 C1332 1.516 . S
C1332 C1331 1.516 . S
C1332 C1333 1.502 . S
C1332 C1334 1.561 . S
C1332 C1335 1.526 . S
C1333 H1317 0.959 . S
C1333 H1318 0.959 . S
C1333 H1319 0.961 . S
C1333 C1332 1.502 . S
C1334 H1320 0.960 . S
C1334 H1321 0.961 . S
C1334 H1322 0.959 . S
C1334 C1332 1.561 . S
C1335 C1332 1.526 . S
C1335 C1336 1.396 . S
C1335 C1340 1.390 . S
C1336 C1330 1.465 . S
C1336 C1335 1.396 . S
C1336 C1337 1.399 . S
C1337 H1323 0.929 . S
C1337 C1336 1.399 . S
C1337 C1338 1.385 . S
C1338 H1324 0.931 . S
C1338 C1337 1.385 . S
C1338 C1339 1.389 . S
C1339 C1338 1.389 . S
C1339 C1340 1.387 . S
C1340 H1325 0.930 . S
C1340 C1335 1.390 . S
C1340 C1339 1.387 . S
H1341 C1353 0.930 . S
H1342 C1355 0.930 . S
H1343 C1356 0.930 . S
H1344 C1360 0.959 . S
H1345 C1360 0.959 . S
H1346 C1360 0.961 . S
H1347 C1361 0.960 . S
H1348 C1361 0.961 . S
H1349 C1361 0.959 . S
H1350 C1364 0.929 . S
H1351 C1365 0.931 . S
H1352 C1367 0.930 . S
C1353 H1341 0.930 . S
C1353 C1354 1.399 . S
C1353 C1358 1.399 . S
C1354 C1353 1.399 . S
C1354 C1355 1.376 . S
C1355 H1342 0.930 . S
C1355 C1354 1.376 . S
C1355 C1356 1.388 . S
C1356 H1343 0.930 . S
C1356 C1355 1.388 . S
C1356 C1357 1.390 . S
C1357 C1356 1.390 . S
C1357 C1358 1.394 . S
C1357 C1363 1.465 . S
C1358 C1353 1.399 . S
C1358 C1357 1.394 . S
C1358 C1359 1.516 . S
C1359 C1358 1.516 . S
C1359 C1360 1.502 . S
C1359 C1361 1.561 . S
C1359 C1362 1.526 . S
C1360 H1344 0.959 . S
C1360 H1345 0.959 . S
C1360 H1346 0.961 . S
C1360 C1359 1.502 . S
C1361 H1347 0.960 . S
C1361 H1348 0.961 . S
C1361 H1349 0.959 . S
C1361 C1359 1.561 . S
C1362 C1359 1.526 . S
C1362 C1363 1.396 . S
C1362 C1367 1.390 . S
C1363 C1357 1.465 . S
C1363 C1362 1.396 . S
C1363 C1364 1.399 . S
C1364 H1350 0.929 . S
C1364 C1363 1.399 . S
C1364 C1365 1.385 . S
C1365 H1351 0.931 . S
C1365 C1364 1.385 . S
C1365 C1366 1.389 . S
C1366 C1365 1.389 . S
C1366 C1367 1.387 . S
C1367 H1352 0.930 . S
C1367 C1362 1.390 . S
C1367 C1366 1.387 . S
H1368 C1380 0.930 . S
H1369 C1382 0.930 . S
H1370 C1383 0.930 . S
H1371 C1387 0.959 . S
H1372 C1387 0.959 . S
H1373 C1387 0.961 . S
H1374 C1388 0.960 . S
H1375 C1388 0.961 . S
H1376 C1388 0.959 . S
H1377 C1391 0.929 . S
H1378 C1392 0.931 . S
H1379 C1394 0.930 . S
C1380 H1368 0.930 . S
C1380 C1381 1.399 . S
C1380 C1385 1.399 . S
C1381 C1380 1.399 . S
C1381 C1382 1.376 . S
C1382 H1369 0.930 . S
C1382 C1381 1.376 . S
C1382 C1383 1.388 . S
C1383 H1370 0.930 . S
C1383 C1382 1.388 . S
C1383 C1384 1.390 . S
C1384 C1383 1.390 . S
C1384 C1385 1.394 . S
C1384 C1390 1.465 . S
C1385 C1380 1.399 . S
C1385 C1384 1.394 . S
C1385 C1386 1.516 . S
C1386 C1385 1.516 . S
C1386 C1387 1.502 . S
C1386 C1388 1.561 . S
C1386 C1389 1.526 . S
C1387 H1371 0.959 . S
C1387 H1372 0.959 . S
C1387 H1373 0.961 . S
C1387 C1386 1.502 . S
C1388 H1374 0.960 . S
C1388 H1375 0.961 . S
C1388 H1376 0.959 . S
C1388 C1386 1.561 . S
C1389 C1386 1.526 . S
C1389 C1390 1.396 . S
C1389 C1394 1.390 . S
C1390 C1384 1.465 . S
C1390 C1389 1.396 . S
C1390 C1391 1.399 . S
C1391 H1377 0.929 . S
C1391 C1390 1.399 . S
C1391 C1392 1.385 . S
C1392 H1378 0.931 . S
C1392 C1391 1.385 . S
C1392 C1393 1.389 . S
C1393 C1392 1.389 . S
C1393 C1394 1.387 . S
C1394 H1379 0.930 . S
C1394 C1389 1.390 . S
C1394 C1393 1.387 . S
H1395 C1407 0.930 . S
H1396 C1409 0.930 . S
H1397 C1410 0.930 . S
H1398 C1414 0.959 . S
H1399 C1414 0.959 . S
H1400 C1414 0.961 . S
H1401 C1415 0.960 . S
H1402 C1415 0.961 . S
H1403 C1415 0.959 . S
H1404 C1418 0.929 . S
H1405 C1419 0.931 . S
H1406 C1421 0.930 . S
C1407 H1395 0.930 . S
C1407 C1408 1.399 . S
C1407 C1412 1.399 1_545 S
C1408 C1407 1.399 . S
C1408 C1409 1.376 . S
C1409 H1396 0.930 . S
C1409 C1408 1.376 . S
C1409 C1410 1.388 1_545 S
C1410 H1397 0.930 . S
C1410 C1409 1.388 1_565 S
C1410 C1411 1.390 . S
C1411 C1410 1.390 . S
C1411 C1412 1.394 . S
C1411 C1417 1.465 . S
C1412 C1407 1.399 1_565 S
C1412 C1411 1.394 . S
C1412 C1413 1.516 . S
C1413 C1412 1.516 . S
C1413 C1414 1.502 . S
C1413 C1415 1.561 . S
C1413 C1416 1.526 . S
C1414 H1398 0.959 . S
C1414 H1399 0.959 . S
C1414 H1400 0.961 . S
C1414 C1413 1.502 . S
C1415 H1401 0.960 . S
C1415 H1402 0.961 . S
C1415 H1403 0.959 . S
C1415 C1413 1.561 . S
C1416 C1413 1.526 . S
C1416 C1417 1.396 . S
C1416 C1421 1.390 . S
C1417 C1411 1.465 . S
C1417 C1416 1.396 . S
C1417 C1418 1.399 . S
C1418 H1404 0.929 . S
C1418 C1417 1.399 . S
C1418 C1419 1.385 . S
C1419 H1405 0.931 . S
C1419 C1418 1.385 . S
C1419 C1420 1.389 . S
C1420 C1419 1.389 . S
C1420 C1421 1.387 . S
C1421 H1406 0.930 . S
C1421 C1416 1.390 . S
C1421 C1420 1.387 . S
H1422 C1434 0.930 . S
H1423 C1436 0.930 . S
H1424 C1437 0.930 . S
H1425 C1441 0.959 . S
H1426 C1441 0.959 . S
H1427 C1441 0.961 . S
H1428 C1442 0.960 . S
H1429 C1442 0.961 . S
H1430 C1442 0.959 . S
H1431 C1445 0.929 . S
H1432 C1446 0.931 . S
H1433 C1448 0.930 . S
C1434 H1422 0.930 . S
C1434 C1435 1.399 1_455 S
C1434 C1439 1.399 . S
C1435 C1434 1.399 1_655 S
C1435 C1436 1.376 . S
C1436 H1423 0.930 . S
C1436 C1435 1.376 . S
C1436 C1437 1.387 . S
C1437 H1424 0.930 . S
C1437 C1436 1.387 . S
C1437 C1438 1.391 1_655 S
C1438 C1437 1.391 1_455 S
C1438 C1439 1.394 . S
C1438 C1444 1.465 . S
C1439 C1434 1.399 . S
C1439 C1438 1.394 . S
C1439 C1440 1.516 . S
C1440 C1439 1.516 . S
C1440 C1441 1.502 . S
C1440 C1442 1.561 . S
C1440 C1443 1.526 . S
C1441 H1425 0.959 . S
C1441 H1426 0.959 . S
C1441 H1427 0.961 . S
C1441 C1440 1.502 . S
C1442 H1428 0.960 . S
C1442 H1429 0.961 . S
C1442 H1430 0.959 . S
C1442 C1440 1.561 . S
C1443 C1440 1.526 . S
C1443 C1444 1.396 . S
C1443 C1448 1.390 . S
C1444 C1438 1.465 . S
C1444 C1443 1.396 . S
C1444 C1445 1.399 . S
C1445 H1431 0.929 . S
C1445 C1444 1.399 . S
C1445 C1446 1.385 . S
C1446 H1432 0.931 . S
C1446 C1445 1.385 . S
C1446 C1447 1.389 . S
C1447 C1446 1.389 . S
C1447 C1448 1.387 . S
C1448 H1433 0.930 . S
C1448 C1443 1.390 . S
C1448 C1447 1.387 . S
H1449 C1461 0.930 . S
H1450 C1463 0.930 . S
H1451 C1464 0.930 . S
H1452 C1468 0.959 . S
H1453 C1468 0.959 . S
H1454 C1468 0.961 . S
H1455 C1469 0.960 . S
H1456 C1469 0.961 . S
H1457 C1469 0.959 . S
H1458 C1472 0.929 . S
H1459 C1473 0.931 . S
H1460 C1475 0.930 . S
C1461 H1449 0.930 . S
C1461 C1462 1.399 . S
C1461 C1466 1.399 . S
C1462 C1461 1.399 . S
C1462 C1463 1.376 . S
C1463 H1450 0.930 . S
C1463 C1462 1.376 . S
C1463 C1464 1.388 . S
C1464 H1451 0.930 . S
C1464 C1463 1.388 . S
C1464 C1465 1.390 . S
C1465 C1464 1.390 . S
C1465 C1466 1.394 . S
C1465 C1471 1.465 . S
C1466 C1461 1.399 . S
C1466 C1465 1.394 . S
C1466 C1467 1.516 . S
C1467 C1466 1.516 . S
C1467 C1468 1.502 . S
C1467 C1469 1.561 . S
C1467 C1470 1.526 . S
C1468 H1452 0.959 . S
C1468 H1453 0.959 . S
C1468 H1454 0.961 . S
C1468 C1467 1.502 . S
C1469 H1455 0.960 . S
C1469 H1456 0.961 . S
C1469 H1457 0.959 . S
C1469 C1467 1.561 . S
C1470 C1467 1.526 . S
C1470 C1471 1.396 . S
C1470 C1475 1.390 . S
C1471 C1465 1.465 . S
C1471 C1470 1.396 . S
C1471 C1472 1.399 . S
C1472 H1458 0.929 . S
C1472 C1471 1.399 . S
C1472 C1473 1.385 . S
C1473 H1459 0.931 . S
C1473 C1472 1.385 . S
C1473 C1474 1.389 . S
C1474 C1473 1.389 . S
C1474 C1475 1.387 . S
C1475 H1460 0.930 . S
C1475 C1470 1.390 . S
C1475 C1474 1.387 . S
H1476 C1488 0.930 . S
H1477 C1490 0.930 . S
H1478 C1491 0.930 . S
H1479 C1495 0.959 . S
H1480 C1495 0.959 . S
H1481 C1495 0.961 . S
H1482 C1496 0.960 . S
H1483 C1496 0.961 . S
H1484 C1496 0.959 . S
H1485 C1499 0.929 . S
H1486 C1500 0.931 . S
H1487 C1502 0.930 . S
C1488 H1476 0.930 . S
C1488 C1489 1.399 . S
C1488 C1493 1.399 . S
C1489 C1488 1.399 . S
C1489 C1490 1.376 . S
C1490 H1477 0.930 . S
C1490 C1489 1.376 . S
C1490 C1491 1.388 . S
C1491 H1478 0.930 . S
C1491 C1490 1.388 . S
C1491 C1492 1.390 . S
C1492 C1491 1.390 . S
C1492 C1493 1.394 . S
C1492 C1498 1.465 . S
C1493 C1488 1.399 . S
C1493 C1492 1.394 . S
C1493 C1494 1.516 . S
C1494 C1493 1.516 . S
C1494 C1495 1.502 . S
C1494 C1496 1.561 . S
C1494 C1497 1.526 . S
C1495 H1479 0.959 . S
C1495 H1480 0.959 . S
C1495 H1481 0.961 . S
C1495 C1494 1.502 . S
C1496 H1482 0.960 . S
C1496 H1483 0.961 . S
C1496 H1484 0.959 . S
C1496 C1494 1.561 . S
C1497 C1494 1.526 . S
C1497 C1498 1.396 . S
C1497 C1502 1.390 . S
C1498 C1492 1.465 . S
C1498 C1497 1.396 . S
C1498 C1499 1.399 . S
C1499 H1485 0.929 . S
C1499 C1498 1.399 . S
C1499 C1500 1.385 . S
C1500 H1486 0.931 . S
C1500 C1499 1.385 . S
C1500 C1501 1.389 . S
C1501 C1500 1.389 . S
C1501 C1502 1.387 . S
C1502 H1487 0.930 . S
C1502 C1497 1.390 . S
C1502 C1501 1.387 . S
H1503 C1515 0.930 . S
H1504 C1517 0.930 . S
H1505 C1518 0.930 . S
H1506 C1522 0.959 . S
H1507 C1522 0.959 . S
H1508 C1522 0.961 . S
H1509 C1523 0.960 . S
H1510 C1523 0.961 . S
H1511 C1523 0.959 . S
H1512 C1526 0.929 . S
H1513 C1527 0.931 . S
H1514 C1529 0.930 . S
C1515 H1503 0.930 . S
C1515 C1516 1.399 . S
C1515 C1520 1.399 . S
C1516 C1515 1.399 . S
C1516 C1517 1.376 . S
C1517 H1504 0.930 . S
C1517 C1516 1.376 . S
C1517 C1518 1.388 . S
C1518 H1505 0.930 . S
C1518 C1517 1.388 . S
C1518 C1519 1.390 . S
C1519 C1518 1.390 . S
C1519 C1520 1.394 . S
C1519 C1525 1.465 . S
C1520 C1515 1.399 . S
C1520 C1519 1.394 . S
C1520 C1521 1.516 . S
C1521 C1520 1.516 . S
C1521 C1522 1.502 . S
C1521 C1523 1.561 . S
C1521 C1524 1.526 . S
C1522 H1506 0.959 . S
C1522 H1507 0.959 . S
C1522 H1508 0.961 . S
C1522 C1521 1.502 . S
C1523 H1509 0.960 . S
C1523 H1510 0.961 . S
C1523 H1511 0.959 . S
C1523 C1521 1.561 . S
C1524 C1521 1.526 . S
C1524 C1525 1.396 . S
C1524 C1529 1.390 . S
C1525 C1519 1.465 . S
C1525 C1524 1.396 . S
C1525 C1526 1.399 . S
C1526 H1512 0.929 . S
C1526 C1525 1.399 . S
C1526 C1527 1.385 . S
C1527 H1513 0.931 . S
C1527 C1526 1.385 . S
C1527 C1528 1.389 . S
C1528 C1527 1.389 . S
C1528 C1529 1.387 . S
C1529 H1514 0.930 . S
C1529 C1524 1.390 . S
C1529 C1528 1.387 . S
H1530 C1542 0.930 . S
H1531 C1544 0.930 . S
H1532 C1545 0.930 . S
H1533 C1549 0.959 . S
H1534 C1549 0.959 . S
H1535 C1549 0.961 . S
H1536 C1550 0.960 . S
H1537 C1550 0.961 . S
H1538 C1550 0.959 . S
H1539 C1553 0.929 . S
H1540 C1554 0.931 . S
H1541 C1556 0.930 . S
C1542 H1530 0.930 . S
C1542 C1543 1.399 . S
C1542 C1547 1.399 . S
C1543 C1542 1.399 . S
C1543 C1544 1.376 . S
C1544 H1531 0.930 . S
C1544 C1543 1.376 . S
C1544 C1545 1.388 . S
C1545 H1532 0.930 . S
C1545 C1544 1.388 . S
C1545 C1546 1.390 . S
C1546 C1545 1.390 . S
C1546 C1547 1.394 . S
C1546 C1552 1.465 . S
C1547 C1542 1.399 . S
C1547 C1546 1.394 . S
C1547 C1548 1.516 . S
C1548 C1547 1.516 . S
C1548 C1549 1.502 . S
C1548 C1550 1.561 . S
C1548 C1551 1.526 . S
C1549 H1533 0.959 . S
C1549 H1534 0.959 . S
C1549 H1535 0.961 . S
C1549 C1548 1.502 . S
C1550 H1536 0.960 . S
C1550 H1537 0.961 . S
C1550 H1538 0.959 . S
C1550 C1548 1.561 . S
C1551 C1548 1.526 . S
C1551 C1552 1.396 . S
C1551 C1556 1.390 . S
C1552 C1546 1.465 . S
C1552 C1551 1.396 . S
C1552 C1553 1.399 . S
C1553 H1539 0.929 . S
C1553 C1552 1.399 . S
C1553 C1554 1.385 . S
C1554 H1540 0.931 . S
C1554 C1553 1.385 . S
C1554 C1555 1.389 . S
C1555 C1554 1.389 . S
C1555 C1556 1.387 . S
C1556 H1541 0.930 . S
C1556 C1551 1.390 . S
C1556 C1555 1.387 . S
H1557 C1569 0.930 . S
H1558 C1571 0.930 . S
H1559 C1572 0.930 . S
H1560 C1576 0.959 . S
H1561 C1576 0.959 . S
H1562 C1576 0.961 . S
H1563 C1577 0.960 . S
H1564 C1577 0.961 . S
H1565 C1577 0.959 . S
H1566 C1580 0.929 . S
H1567 C1581 0.931 . S
H1568 C1583 0.930 . S
C1569 H1557 0.930 . S
C1569 C1570 1.399 . S
C1569 C1574 1.399 1_565 S
C1570 C1569 1.399 . S
C1570 C1571 1.376 . S
C1571 H1558 0.930 . S
C1571 C1570 1.376 . S
C1571 C1572 1.388 1_565 S
C1572 H1559 0.930 . S
C1572 C1571 1.388 1_545 S
C1572 C1573 1.390 . S
C1573 C1572 1.390 . S
C1573 C1574 1.394 . S
C1573 C1579 1.465 . S
C1574 C1569 1.399 1_545 S
C1574 C1573 1.394 . S
C1574 C1575 1.516 . S
C1575 C1574 1.516 . S
C1575 C1576 1.502 . S
C1575 C1577 1.561 . S
C1575 C1578 1.526 . S
C1576 H1560 0.959 . S
C1576 H1561 0.959 . S
C1576 H1562 0.961 . S
C1576 C1575 1.502 . S
C1577 H1563 0.960 . S
C1577 H1564 0.961 . S
C1577 H1565 0.959 . S
C1577 C1575 1.561 . S
C1578 C1575 1.526 . S
C1578 C1579 1.396 . S
C1578 C1583 1.390 . S
C1579 C1573 1.465 . S
C1579 C1578 1.396 . S
C1579 C1580 1.399 . S
C1580 H1566 0.929 . S
C1580 C1579 1.399 . S
C1580 C1581 1.385 . S
C1581 H1567 0.931 . S
C1581 C1580 1.385 . S
C1581 C1582 1.389 . S
C1582 C1581 1.389 . S
C1582 C1583 1.387 . S
C1583 H1568 0.930 . S
C1583 C1578 1.390 . S
C1583 C1582 1.387 . S
H1584 C1596 0.930 . S
H1585 C1598 0.930 . S
H1586 C1599 0.930 . S
H1587 C1603 0.959 . S
H1588 C1603 0.959 . S
H1589 C1603 0.961 . S
H1590 C1604 0.960 . S
H1591 C1604 0.961 . S
H1592 C1604 0.959 . S
H1593 C1607 0.929 . S
H1594 C1608 0.931 . S
H1595 C1610 0.930 . S
C1596 H1584 0.930 . S
C1596 C1597 1.399 1_655 S
C1596 C1601 1.399 . S
C1597 C1596 1.399 1_455 S
C1597 C1598 1.376 . S
C1598 H1585 0.930 . S
C1598 C1597 1.376 . S
C1598 C1599 1.388 . S
C1599 H1586 0.930 . S
C1599 C1598 1.388 . S
C1599 C1600 1.390 1_455 S
C1600 C1599 1.390 1_655 S
C1600 C1601 1.394 . S
C1600 C1606 1.465 . S
C1601 C1596 1.399 . S
C1601 C1600 1.394 . S
C1601 C1602 1.516 . S
C1602 C1601 1.516 . S
C1602 C1603 1.502 . S
C1602 C1604 1.561 . S
C1602 C1605 1.526 . S
C1603 H1587 0.959 . S
C1603 H1588 0.959 . S
C1603 H1589 0.961 . S
C1603 C1602 1.502 . S
C1604 H1590 0.960 . S
C1604 H1591 0.961 . S
C1604 H1592 0.959 . S
C1604 C1602 1.561 . S
C1605 C1602 1.526 . S
C1605 C1606 1.396 . S
C1605 C1610 1.390 . S
C1606 C1600 1.465 . S
C1606 C1605 1.396 . S
C1606 C1607 1.399 . S
C1607 H1593 0.929 . S
C1607 C1606 1.399 . S
C1607 C1608 1.385 . S
C1608 H1594 0.931 . S
C1608 C1607 1.385 . S
C1608 C1609 1.389 . S
C1609 C1608 1.389 . S
C1609 C1610 1.387 . S
C1610 H1595 0.930 . S
C1610 C1605 1.390 . S
C1610 C1609 1.387 . S
H1611 C1623 0.930 . S
H1612 C1625 0.930 . S
H1613 C1626 0.930 . S
H1614 C1630 0.959 . S
H1615 C1630 0.959 . S
H1616 C1630 0.961 . S
H1617 C1631 0.960 . S
H1618 C1631 0.961 . S
H1619 C1631 0.959 . S
H1620 C1634 0.929 . S
H1621 C1635 0.931 . S
H1622 C1637 0.930 . S
C1623 H1611 0.930 . S
C1623 C1624 1.399 . S
C1623 C1628 1.399 . S
C1624 C1623 1.399 . S
C1624 C1625 1.376 . S
C1625 H1612 0.930 . S
C1625 C1624 1.376 . S
C1625 C1626 1.388 . S
C1626 H1613 0.930 . S
C1626 C1625 1.388 . S
C1626 C1627 1.390 . S
C1627 C1626 1.390 . S
C1627 C1628 1.394 . S
C1627 C1633 1.465 . S
C1628 C1623 1.399 . S
C1628 C1627 1.394 . S
C1628 C1629 1.516 . S
C1629 C1628 1.516 . S
C1629 C1630 1.502 . S
C1629 C1631 1.561 . S
C1629 C1632 1.526 . S
C1630 H1614 0.959 . S
C1630 H1615 0.959 . S
C1630 H1616 0.961 . S
C1630 C1629 1.502 . S
C1631 H1617 0.960 . S
C1631 H1618 0.961 . S
C1631 H1619 0.959 . S
C1631 C1629 1.561 . S
C1632 C1629 1.526 . S
C1632 C1633 1.396 . S
C1632 C1637 1.390 . S
C1633 C1627 1.465 . S
C1633 C1632 1.396 . S
C1633 C1634 1.399 . S
C1634 H1620 0.929 . S
C1634 C1633 1.399 . S
C1634 C1635 1.385 . S
C1635 H1621 0.931 . S
C1635 C1634 1.385 . S
C1635 C1636 1.389 . S
C1636 C1635 1.389 . S
C1636 C1637 1.387 . S
C1637 H1622 0.930 . S
C1637 C1632 1.390 . S
C1637 C1636 1.387 . S
H1638 C1650 0.930 . S
H1639 C1652 0.930 . S
H1640 C1653 0.930 . S
H1641 C1657 0.959 . S
H1642 C1657 0.959 . S
H1643 C1657 0.961 . S
H1644 C1658 0.960 . S
H1645 C1658 0.961 . S
H1646 C1658 0.959 . S
H1647 C1661 0.929 . S
H1648 C1662 0.931 . S
H1649 C1664 0.930 . S
C1650 H1638 0.930 . S
C1650 C1651 1.399 . S
C1650 C1655 1.399 1_455 S
C1651 C1650 1.399 . S
C1651 C1652 1.376 . S
C1652 H1639 0.930 . S
C1652 C1651 1.376 . S
C1652 C1653 1.388 . S
C1653 H1640 0.930 . S
C1653 C1652 1.388 . S
C1653 C1654 1.390 1_455 S
C1654 C1653 1.390 1_655 S
C1654 C1655 1.394 . S
C1654 C1660 1.465 . S
C1655 C1650 1.399 1_655 S
C1655 C1654 1.394 . S
C1655 C1656 1.516 . S
C1656 C1655 1.516 . S
C1656 C1657 1.502 . S
C1656 C1658 1.561 . S
C1656 C1659 1.526 . S
C1657 H1641 0.959 . S
C1657 H1642 0.959 . S
C1657 H1643 0.961 . S
C1657 C1656 1.502 . S
C1658 H1644 0.960 . S
C1658 H1645 0.961 . S
C1658 H1646 0.959 . S
C1658 C1656 1.561 . S
C1659 C1656 1.526 . S
C1659 C1660 1.396 . S
C1659 C1664 1.390 . S
C1660 C1654 1.465 . S
C1660 C1659 1.396 . S
C1660 C1661 1.399 . S
C1661 H1647 0.929 . S
C1661 C1660 1.399 . S
C1661 C1662 1.385 . S
C1662 H1648 0.931 . S
C1662 C1661 1.385 . S
C1662 C1663 1.389 . S
C1663 C1662 1.389 . S
C1663 C1664 1.387 . S
C1664 H1649 0.930 . S
C1664 C1659 1.390 . S
C1664 C1663 1.387 . S
H1665 C1677 0.930 . S
H1666 C1679 0.930 . S
H1667 C1680 0.930 . S
H1668 C1684 0.959 . S
H1669 C1684 0.959 . S
H1670 C1684 0.961 . S
H1671 C1685 0.960 . S
H1672 C1685 0.961 . S
H1673 C1685 0.959 . S
H1674 C1688 0.929 . S
H1675 C1689 0.931 . S
H1676 C1691 0.930 . S
C1677 H1665 0.930 . S
C1677 C1678 1.399 . S
C1677 C1682 1.399 . S
C1678 C1677 1.399 . S
C1678 C1679 1.376 . S
C1679 H1666 0.930 . S
C1679 C1678 1.376 . S
C1679 C1680 1.388 . S
C1680 H1667 0.930 . S
C1680 C1679 1.388 . S
C1680 C1681 1.390 . S
C1681 C1680 1.390 . S
C1681 C1682 1.394 . S
C1681 C1687 1.465 . S
C1682 C1677 1.399 . S
C1682 C1681 1.394 . S
C1682 C1683 1.516 . S
C1683 C1682 1.516 . S
C1683 C1684 1.502 . S
C1683 C1685 1.561 . S
C1683 C1686 1.526 . S
C1684 H1668 0.959 . S
C1684 H1669 0.959 . S
C1684 H1670 0.961 . S
C1684 C1683 1.502 . S
C1685 H1671 0.960 . S
C1685 H1672 0.961 . S
C1685 H1673 0.959 . S
C1685 C1683 1.561 . S
C1686 C1683 1.526 . S
C1686 C1687 1.396 . S
C1686 C1691 1.390 . S
C1687 C1681 1.465 . S
C1687 C1686 1.396 . S
C1687 C1688 1.399 . S
C1688 H1674 0.929 . S
C1688 C1687 1.399 . S
C1688 C1689 1.385 . S
C1689 H1675 0.931 . S
C1689 C1688 1.385 . S
C1689 C1690 1.389 . S
C1690 C1689 1.389 . S
C1690 C1691 1.387 . S
C1691 H1676 0.930 . S
C1691 C1686 1.390 . S
C1691 C1690 1.387 . S
H1692 C1704 0.930 . S
H1693 C1706 0.930 . S
H1694 C1707 0.930 . S
H1695 C1711 0.959 . S
H1696 C1711 0.959 . S
H1697 C1711 0.961 . S
H1698 C1712 0.960 . S
H1699 C1712 0.961 . S
H1700 C1712 0.959 . S
H1701 C1715 0.929 . S
H1702 C1716 0.931 . S
H1703 C1718 0.930 . S
C1704 H1692 0.930 . S
C1704 C1705 1.399 . S
C1704 C1709 1.399 1_565 S
C1705 C1704 1.399 . S
C1705 C1706 1.376 . S
C1706 H1693 0.930 . S
C1706 C1705 1.376 . S
C1706 C1707 1.388 . S
C1707 H1694 0.930 . S
C1707 C1706 1.388 . S
C1707 C1708 1.390 1_565 S
C1708 C1707 1.390 1_545 S
C1708 C1709 1.394 . S
C1708 C1714 1.465 . S
C1709 C1704 1.399 1_545 S
C1709 C1708 1.394 . S
C1709 C1710 1.516 . S
C1710 C1709 1.516 . S
C1710 C1711 1.502 . S
C1710 C1712 1.561 . S
C1710 C1713 1.526 . S
C1711 H1695 0.959 . S
C1711 H1696 0.959 . S
C1711 H1697 0.961 . S
C1711 C1710 1.502 . S
C1712 H1698 0.960 . S
C1712 H1699 0.961 . S
C1712 H1700 0.959 . S
C1712 C1710 1.561 . S
C1713 C1710 1.526 . S
C1713 C1714 1.396 . S
C1713 C1718 1.390 . S
C1714 C1708 1.465 . S
C1714 C1713 1.396 . S
C1714 C1715 1.399 . S
C1715 H1701 0.929 . S
C1715 C1714 1.399 . S
C1715 C1716 1.385 . S
C1716 H1702 0.931 . S
C1716 C1715 1.385 . S
C1716 C1717 1.389 . S
C1717 C1716 1.389 . S
C1717 C1718 1.387 . S
C1718 H1703 0.930 . S
C1718 C1713 1.390 . S
C1718 C1717 1.387 . S
H1719 C1731 0.930 . S
H1720 C1733 0.930 . S
H1721 C1734 0.930 . S
H1722 C1738 0.959 . S
H1723 C1738 0.959 . S
H1724 C1738 0.961 . S
H1725 C1739 0.960 . S
H1726 C1739 0.961 . S
H1727 C1739 0.959 . S
H1728 C1742 0.929 . S
H1729 C1743 0.931 . S
H1730 C1745 0.930 . S
C1731 H1719 0.930 . S
C1731 C1732 1.399 . S
C1731 C1736 1.399 . S
C1732 C1731 1.399 . S
C1732 C1733 1.376 . S
C1733 H1720 0.930 . S
C1733 C1732 1.376 . S
C1733 C1734 1.388 . S
C1734 H1721 0.930 . S
C1734 C1733 1.388 . S
C1734 C1735 1.390 . S
C1735 C1734 1.390 . S
C1735 C1736 1.394 . S
C1735 C1741 1.465 . S
C1736 C1731 1.399 . S
C1736 C1735 1.394 . S
C1736 C1737 1.516 . S
C1737 C1736 1.516 . S
C1737 C1738 1.502 . S
C1737 C1739 1.561 . S
C1737 C1740 1.526 . S
C1738 H1722 0.959 . S
C1738 H1723 0.959 . S
C1738 H1724 0.961 . S
C1738 C1737 1.502 . S
C1739 H1725 0.960 . S
C1739 H1726 0.961 . S
C1739 H1727 0.959 . S
C1739 C1737 1.561 . S
C1740 C1737 1.526 . S
C1740 C1741 1.396 . S
C1740 C1745 1.390 . S
C1741 C1735 1.465 . S
C1741 C1740 1.396 . S
C1741 C1742 1.399 . S
C1742 H1728 0.929 . S
C1742 C1741 1.399 . S
C1742 C1743 1.385 . S
C1743 H1729 0.931 . S
C1743 C1742 1.385 . S
C1743 C1744 1.389 . S
C1744 C1743 1.389 . S
C1744 C1745 1.387 . S
C1745 H1730 0.930 . S
C1745 C1740 1.390 . S
C1745 C1744 1.387 . S
H1746 C1758 0.930 . S
H1747 C1760 0.930 . S
H1748 C1761 0.930 . S
H1749 C1765 0.959 . S
H1750 C1765 0.959 . S
H1751 C1765 0.961 . S
H1752 C1766 0.960 . S
H1753 C1766 0.961 . S
H1754 C1766 0.959 . S
H1755 C1769 0.929 . S
H1756 C1770 0.931 . S
H1757 C1772 0.930 . S
C1758 H1746 0.930 . S
C1758 C1759 1.399 . S
C1758 C1763 1.399 . S
C1759 C1758 1.399 . S
C1759 C1760 1.376 . S
C1760 H1747 0.930 . S
C1760 C1759 1.376 . S
C1760 C1761 1.388 . S
C1761 H1748 0.930 . S
C1761 C1760 1.388 . S
C1761 C1762 1.390 . S
C1762 C1761 1.390 . S
C1762 C1763 1.394 . S
C1762 C1768 1.465 . S
C1763 C1758 1.399 . S
C1763 C1762 1.394 . S
C1763 C1764 1.516 . S
C1764 C1763 1.516 . S
C1764 C1765 1.502 . S
C1764 C1766 1.561 . S
C1764 C1767 1.526 . S
C1765 H1749 0.959 . S
C1765 H1750 0.959 . S
C1765 H1751 0.961 . S
C1765 C1764 1.502 . S
C1766 H1752 0.960 . S
C1766 H1753 0.961 . S
C1766 H1754 0.959 . S
C1766 C1764 1.561 . S
C1767 C1764 1.526 . S
C1767 C1768 1.396 . S
C1767 C1772 1.390 . S
C1768 C1762 1.465 . S
C1768 C1767 1.396 . S
C1768 C1769 1.399 . S
C1769 H1755 0.929 . S
C1769 C1768 1.399 . S
C1769 C1770 1.385 . S
C1770 H1756 0.931 . S
C1770 C1769 1.385 . S
C1770 C1771 1.389 . S
C1771 C1770 1.389 . S
C1771 C1772 1.387 . S
C1772 H1757 0.930 . S
C1772 C1767 1.390 . S
C1772 C1771 1.387 . S
H1773 C1785 0.930 . S
H1774 C1787 0.930 . S
H1775 C1788 0.930 . S
H1776 C1792 0.959 . S
H1777 C1792 0.959 . S
H1778 C1792 0.961 . S
H1779 C1793 0.960 . S
H1780 C1793 0.961 . S
H1781 C1793 0.959 . S
H1782 C1796 0.929 . S
H1783 C1797 0.931 . S
H1784 C1799 0.930 . S
C1785 H1773 0.930 . S
C1785 C1786 1.399 . S
C1785 C1790 1.399 . S
C1786 C1785 1.399 . S
C1786 C1787 1.376 . S
C1787 H1774 0.930 . S
C1787 C1786 1.376 . S
C1787 C1788 1.388 . S
C1788 H1775 0.930 . S
C1788 C1787 1.388 . S
C1788 C1789 1.390 . S
C1789 C1788 1.390 . S
C1789 C1790 1.394 . S
C1789 C1795 1.465 . S
C1790 C1785 1.399 . S
C1790 C1789 1.394 . S
C1790 C1791 1.516 . S
C1791 C1790 1.516 . S
C1791 C1792 1.502 . S
C1791 C1793 1.561 . S
C1791 C1794 1.526 . S
C1792 H1776 0.959 . S
C1792 H1777 0.959 . S
C1792 H1778 0.961 . S
C1792 C1791 1.502 . S
C1793 H1779 0.960 . S
C1793 H1780 0.961 . S
C1793 H1781 0.959 . S
C1793 C1791 1.561 . S
C1794 C1791 1.526 . S
C1794 C1795 1.396 . S
C1794 C1799 1.390 . S
C1795 C1789 1.465 . S
C1795 C1794 1.396 . S
C1795 C1796 1.399 . S
C1796 H1782 0.929 . S
C1796 C1795 1.399 . S
C1796 C1797 1.385 . S
C1797 H1783 0.931 . S
C1797 C1796 1.385 . S
C1797 C1798 1.389 . S
C1798 C1797 1.389 . S
C1798 C1799 1.387 . S
C1799 H1784 0.930 . S
C1799 C1794 1.390 . S
C1799 C1798 1.387 . S
H1800 C1812 0.930 . S
H1801 C1814 0.930 . S
H1802 C1815 0.930 . S
H1803 C1819 0.959 . S
H1804 C1819 0.959 . S
H1805 C1819 0.961 . S
H1806 C1820 0.960 . S
H1807 C1820 0.961 . S
H1808 C1820 0.959 . S
H1809 C1823 0.929 . S
H1810 C1824 0.931 . S
H1811 C1826 0.930 . S
C1812 H1800 0.930 . S
C1812 C1813 1.399 . S
C1812 C1817 1.399 . S
C1813 C1812 1.399 . S
C1813 C1814 1.376 . S
C1814 H1801 0.930 . S
C1814 C1813 1.376 . S
C1814 C1815 1.388 . S
C1815 H1802 0.930 . S
C1815 C1814 1.388 . S
C1815 C1816 1.390 . S
C1816 C1815 1.390 . S
C1816 C1817 1.394 . S
C1816 C1822 1.465 . S
C1817 C1812 1.399 . S
C1817 C1816 1.394 . S
C1817 C1818 1.516 . S
C1818 C1817 1.516 . S
C1818 C1819 1.502 . S
C1818 C1820 1.561 1_565 S
C1818 C1821 1.526 . S
C1819 H1803 0.959 . S
C1819 H1804 0.959 . S
C1819 H1805 0.961 . S
C1819 C1818 1.502 . S
C1820 H1806 0.960 . S
C1820 H1807 0.961 . S
C1820 H1808 0.959 . S
C1820 C1818 1.561 1_545 S
C1821 C1818 1.526 . S
C1821 C1822 1.396 . S
C1821 C1826 1.390 . S
C1822 C1816 1.465 . S
C1822 C1821 1.396 . S
C1822 C1823 1.399 . S
C1823 H1809 0.929 . S
C1823 C1822 1.399 . S
C1823 C1824 1.385 . S
C1824 H1810 0.931 . S
C1824 C1823 1.385 . S
C1824 C1825 1.389 . S
C1825 C1824 1.389 . S
C1825 C1826 1.387 . S
C1826 H1811 0.930 . S
C1826 C1821 1.390 . S
C1826 C1825 1.387 . S
H1827 C1839 0.930 . S
H1828 C1841 0.934 . S
H1829 C1842 0.930 . S
H1830 C1846 0.959 . S
H1831 C1846 0.959 . S
H1832 C1846 0.961 . S
H1833 C1847 0.960 . S
H1834 C1847 0.961 . S
H1835 C1847 0.959 . S
H1836 C1850 0.929 . S
H1837 C1851 0.931 . S
H1838 C1853 0.930 . S
C1839 H1827 0.930 . S
C1839 C1840 1.399 . S
C1839 C1844 1.399 . S
C1840 C1839 1.399 . S
C1840 C1841 1.372 1_455 S
C1841 H1828 0.934 . S
C1841 C1840 1.372 1_655 S
C1841 C1842 1.390 . S
C1842 H1829 0.930 . S
C1842 C1841 1.390 . S
C1842 C1843 1.390 1_655 S
C1843 C1842 1.390 1_455 S
C1843 C1844 1.394 . S
C1843 C1849 1.465 . S
C1844 C1839 1.399 . S
C1844 C1843 1.394 . S
C1844 C1845 1.516 . S
C1845 C1844 1.516 . S
C1845 C1846 1.502 . S
C1845 C1847 1.561 . S
C1845 C1848 1.526 . S
C1846 H1830 0.959 . S
C1846 H1831 0.959 . S
C1846 H1832 0.961 . S
C1846 C1845 1.502 . S
C1847 H1833 0.960 . S
C1847 H1834 0.961 . S
C1847 H1835 0.959 . S
C1847 C1845 1.561 . S
C1848 C1845 1.526 . S
C1848 C1849 1.396 . S
C1848 C1853 1.390 . S
C1849 C1843 1.465 . S
C1849 C1848 1.396 . S
C1849 C1850 1.399 1_455 S
C1850 H1836 0.929 . S
C1850 C1849 1.399 1_655 S
C1850 C1851 1.385 . S
C1851 H1837 0.931 . S
C1851 C1850 1.385 . S
C1851 C1852 1.389 1_655 S
C1852 C1851 1.389 1_455 S
C1852 C1853 1.387 . S
C1853 H1838 0.930 . S
C1853 C1848 1.390 . S
C1853 C1852 1.387 . S
H1854 C1866 0.930 . S
H1855 C1868 0.930 . S
H1856 C1869 0.930 . S
H1857 C1873 0.959 . S
H1858 C1873 0.959 . S
H1859 C1873 0.961 . S
H1860 C1874 0.960 . S
H1861 C1874 0.961 . S
H1862 C1874 0.959 . S
H1863 C1877 0.929 . S
H1864 C1878 0.931 . S
H1865 C1880 0.930 . S
C1866 H1854 0.930 . S
C1866 C1867 1.399 . S
C1866 C1871 1.399 . S
C1867 C1866 1.399 . S
C1867 C1868 1.376 . S
C1868 H1855 0.930 . S
C1868 C1867 1.376 . S
C1868 C1869 1.388 . S
C1869 H1856 0.930 . S
C1869 C1868 1.388 . S
C1869 C1870 1.390 . S
C1870 C1869 1.390 . S
C1870 C1871 1.394 . S
C1870 C1876 1.465 . S
C1871 C1866 1.399 . S
C1871 C1870 1.394 . S
C1871 C1872 1.516 . S
C1872 C1871 1.516 . S
C1872 C1873 1.502 . S
C1872 C1874 1.561 . S
C1872 C1875 1.526 . S
C1873 H1857 0.959 . S
C1873 H1858 0.959 . S
C1873 H1859 0.961 . S
C1873 C1872 1.502 . S
C1874 H1860 0.960 . S
C1874 H1861 0.961 . S
C1874 H1862 0.959 . S
C1874 C1872 1.561 . S
C1875 C1872 1.526 . S
C1875 C1876 1.396 . S
C1875 C1880 1.390 . S
C1876 C1870 1.465 . S
C1876 C1875 1.396 . S
C1876 C1877 1.399 . S
C1877 H1863 0.929 . S
C1877 C1876 1.399 . S
C1877 C1878 1.385 . S
C1878 H1864 0.931 . S
C1878 C1877 1.385 . S
C1878 C1879 1.389 . S
C1879 C1878 1.389 . S
C1879 C1880 1.387 . S
C1880 H1865 0.930 . S
C1880 C1875 1.390 . S
C1880 C1879 1.387 . S
H1881 C1893 0.930 . S
H1882 C1895 0.930 . S
H1883 C1896 0.930 . S
H1884 C1900 0.959 . S
H1885 C1900 0.959 . S
H1886 C1900 0.961 . S
H1887 C1901 0.960 . S
H1888 C1901 0.961 . S
H1889 C1901 0.959 . S
H1890 C1904 0.929 . S
H1891 C1905 0.931 . S
H1892 C1907 0.927 . S
C1893 H1881 0.930 . S
C1893 C1894 1.399 . S
C1893 C1898 1.399 . S
C1894 C1893 1.399 . S
C1894 C1895 1.376 . S
C1895 H1882 0.930 . S
C1895 C1894 1.376 . S
C1895 C1896 1.388 . S
C1896 H1883 0.930 . S
C1896 C1895 1.388 . S
C1896 C1897 1.390 . S
C1897 C1896 1.390 . S
C1897 C1898 1.394 . S
C1897 C1903 1.465 . S
C1898 C1893 1.399 . S
C1898 C1897 1.394 . S
C1898 C1899 1.516 . S
C1899 C1898 1.516 . S
C1899 C1900 1.502 1_655 S
C1899 C1901 1.561 . S
C1899 C1902 1.526 . S
C1900 H1884 0.959 . S
C1900 H1885 0.959 . S
C1900 H1886 0.961 . S
C1900 C1899 1.502 1_455 S
C1901 H1887 0.960 . S
C1901 H1888 0.961 . S
C1901 H1889 0.959 . S
C1901 C1899 1.561 . S
C1902 C1899 1.526 . S
C1902 C1903 1.396 . S
C1902 C1907 1.390 . S
C1903 C1897 1.465 . S
C1903 C1902 1.396 . S
C1903 C1904 1.399 . S
C1904 H1890 0.929 . S
C1904 C1903 1.399 . S
C1904 C1905 1.385 . S
C1905 H1891 0.931 . S
C1905 C1904 1.385 . S
C1905 C1906 1.389 . S
C1906 C1905 1.389 . S
C1906 C1907 1.387 . S
C1907 H1892 0.927 . S
C1907 C1902 1.390 . S
C1907 C1906 1.387 . S
H1908 C1920 0.930 . S
H1909 C1922 0.930 . S
H1910 C1923 0.930 . S
H1911 C1927 0.959 . S
H1912 C1927 0.959 . S
H1913 C1927 0.961 . S
H1914 C1928 0.960 . S
H1915 C1928 0.961 . S
H1916 C1928 0.959 . S
H1917 C1931 0.929 . S
H1918 C1932 0.931 . S
H1919 C1934 0.930 . S
C1920 H1908 0.930 . S
C1920 C1921 1.399 . S
C1920 C1925 1.399 . S
C1921 C1920 1.399 . S
C1921 C1922 1.376 . S
C1922 H1909 0.930 . S
C1922 C1921 1.376 . S
C1922 C1923 1.388 . S
C1923 H1910 0.930 . S
C1923 C1922 1.388 . S
C1923 C1924 1.390 . S
C1924 C1923 1.390 . S
C1924 C1925 1.394 . S
C1924 C1930 1.465 . S
C1925 C1920 1.399 . S
C1925 C1924 1.394 . S
C1925 C1926 1.516 . S
C1926 C1925 1.516 . S
C1926 C1927 1.502 . S
C1926 C1928 1.561 . S
C1926 C1929 1.526 . S
C1927 H1911 0.959 . S
C1927 H1912 0.959 . S
C1927 H1913 0.961 . S
C1927 C1926 1.502 . S
C1928 H1914 0.960 . S
C1928 H1915 0.961 . S
C1928 H1916 0.959 . S
C1928 C1926 1.561 . S
C1929 C1926 1.526 . S
C1929 C1930 1.396 . S
C1929 C1934 1.390 . S
C1930 C1924 1.465 . S
C1930 C1929 1.396 . S
C1930 C1931 1.399 . S
C1931 H1917 0.929 . S
C1931 C1930 1.399 . S
C1931 C1932 1.385 . S
C1932 H1918 0.931 . S
C1932 C1931 1.385 . S
C1932 C1933 1.389 . S
C1933 C1932 1.389 . S
C1933 C1934 1.387 . S
C1934 H1919 0.930 . S
C1934 C1929 1.390 . S
C1934 C1933 1.387 . S
H1935 C1947 0.930 . S
H1936 C1949 0.930 . S
H1937 C1950 0.930 . S
H1938 C1954 0.959 1_545 S
H1939 C1954 0.959 . S
H1940 C1954 0.961 . S
H1941 C1955 0.960 . S
H1942 C1955 0.961 . S
H1943 C1955 0.959 . S
H1944 C1958 0.929 . S
H1945 C1959 0.931 . S
H1946 C1961 0.930 . S
C1947 H1935 0.930 . S
C1947 C1948 1.399 . S
C1947 C1952 1.399 . S
C1948 C1947 1.399 . S
C1948 C1949 1.376 . S
C1949 H1936 0.930 . S
C1949 C1948 1.376 . S
C1949 C1950 1.388 . S
C1950 H1937 0.930 . S
C1950 C1949 1.388 . S
C1950 C1951 1.390 . S
C1951 C1950 1.390 . S
C1951 C1952 1.394 . S
C1951 C1957 1.465 . S
C1952 C1947 1.399 . S
C1952 C1951 1.394 . S
C1952 C1953 1.516 1_545 S
C1953 C1952 1.516 1_565 S
C1953 C1954 1.502 . S
C1953 C1955 1.561 . S
C1953 C1956 1.526 1_565 S
C1954 H1938 0.959 1_565 S
C1954 H1939 0.959 . S
C1954 H1940 0.961 . S
C1954 C1953 1.502 . S
C1955 H1941 0.960 . S
C1955 H1942 0.961 . S
C1955 H1943 0.959 . S
C1955 C1953 1.561 . S
C1956 C1953 1.526 1_545 S
C1956 C1957 1.396 . S
C1956 C1961 1.390 1_545 S
C1957 C1951 1.465 . S
C1957 C1956 1.396 . S
C1957 C1958 1.399 . S
C1958 H1944 0.929 . S
C1958 C1957 1.399 . S
C1958 C1959 1.385 . S
C1959 H1945 0.931 . S
C1959 C1958 1.385 . S
C1959 C1960 1.389 . S
C1960 C1959 1.389 . S
C1960 C1961 1.387 1_545 S
C1961 H1946 0.930 . S
C1961 C1956 1.390 1_565 S
C1961 C1960 1.387 1_565 S
H1962 C1974 0.930 . S
H1963 C1976 0.930 . S
H1964 C1977 0.930 . S
H1965 C1981 0.959 . S
H1966 C1981 0.959 . S
H1967 C1981 0.961 . S
H1968 C1982 0.960 . S
H1969 C1982 0.961 . S
H1970 C1982 0.959 . S
H1971 C1985 0.929 . S
H1972 C1986 0.931 . S
H1973 C1988 0.930 . S
C1974 H1962 0.930 . S
C1974 C1975 1.399 . S
C1974 C1979 1.399 . S
C1975 C1974 1.399 . S
C1975 C1976 1.376 . S
C1976 H1963 0.930 . S
C1976 C1975 1.376 . S
C1976 C1977 1.388 . S
C1977 H1964 0.930 . S
C1977 C1976 1.388 . S
C1977 C1978 1.390 . S
C1978 C1977 1.390 . S
C1978 C1979 1.394 . S
C1978 C1984 1.465 . S
C1979 C1974 1.399 . S
C1979 C1978 1.394 . S
C1979 C1980 1.516 . S
C1980 C1979 1.516 . S
C1980 C1981 1.502 . S
C1980 C1982 1.561 . S
C1980 C1983 1.526 . S
C1981 H1965 0.959 . S
C1981 H1966 0.959 . S
C1981 H1967 0.961 . S
C1981 C1980 1.502 . S
C1982 H1968 0.960 . S
C1982 H1969 0.961 . S
C1982 H1970 0.959 . S
C1982 C1980 1.561 . S
C1983 C1980 1.526 . S
C1983 C1984 1.396 . S
C1983 C1988 1.390 . S
C1984 C1978 1.465 . S
C1984 C1983 1.396 . S
C1984 C1985 1.399 . S
C1985 H1971 0.929 . S
C1985 C1984 1.399 . S
C1985 C1986 1.385 . S
C1986 H1972 0.931 . S
C1986 C1985 1.385 . S
C1986 C1987 1.389 . S
C1987 C1986 1.389 . S
C1987 C1988 1.387 . S
C1988 H1973 0.930 . S
C1988 C1983 1.390 . S
C1988 C1987 1.387 . S
H1989 C2001 0.930 . S
H1990 C2003 0.930 . S
H1991 C2004 0.930 . S
H1992 C2008 0.959 . S
H1993 C2008 0.959 . S
H1994 C2008 0.961 . S
H1995 C2009 0.960 . S
H1996 C2009 0.961 . S
H1997 C2009 0.959 . S
H1998 C2012 0.929 . S
H1999 C2013 0.931 . S
H2000 C2015 0.930 . S
C2001 H1989 0.930 . S
C2001 C2002 1.399 . S
C2001 C2006 1.399 . S
C2002 C2001 1.399 . S
C2002 C2003 1.376 . S
C2003 H1990 0.930 . S
C2003 C2002 1.376 . S
C2003 C2004 1.388 . S
C2004 H1991 0.930 . S
C2004 C2003 1.388 . S
C2004 C2005 1.390 . S
C2005 C2004 1.390 . S
C2005 C2006 1.394 . S
C2005 C2011 1.465 . S
C2006 C2001 1.399 . S
C2006 C2005 1.394 . S
C2006 C2007 1.516 . S
C2007 C2006 1.516 . S
C2007 C2008 1.502 . S
C2007 C2009 1.561 . S
C2007 C2010 1.526 . S
C2008 H1992 0.959 . S
C2008 H1993 0.959 . S
C2008 H1994 0.961 . S
C2008 C2007 1.502 . S
C2009 H1995 0.960 . S
C2009 H1996 0.961 . S
C2009 H1997 0.959 . S
C2009 C2007 1.561 . S
C2010 C2007 1.526 . S
C2010 C2011 1.396 . S
C2010 C2015 1.390 . S
C2011 C2005 1.465 . S
C2011 C2010 1.396 . S
C2011 C2012 1.399 . S
C2012 H1998 0.929 . S
C2012 C2011 1.399 . S
C2012 C2013 1.385 . S
C2013 H1999 0.931 . S
C2013 C2012 1.385 . S
C2013 C2014 1.389 . S
C2014 C2013 1.389 . S
C2014 C2015 1.387 . S
C2015 H2000 0.930 . S
C2015 C2010 1.390 . S
C2015 C2014 1.387 . S
H2016 C2028 0.930 . S
H2017 C2030 0.930 . S
H2018 C2031 0.930 . S
H2019 C2035 0.959 . S
H2020 C2035 0.959 . S
H2021 C2035 0.961 . S
H2022 C2036 0.960 . S
H2023 C2036 0.961 . S
H2024 C2036 0.959 . S
H2025 C2039 0.929 . S
H2026 C2040 0.931 . S
H2027 C2042 0.930 . S
C2028 H2016 0.930 . S
C2028 C2029 1.399 . S
C2028 C2033 1.399 . S
C2029 C2028 1.399 . S
C2029 C2030 1.376 . S
C2030 H2017 0.930 . S
C2030 C2029 1.376 . S
C2030 C2031 1.388 . S
C2031 H2018 0.930 . S
C2031 C2030 1.388 . S
C2031 C2032 1.390 . S
C2032 C2031 1.390 . S
C2032 C2033 1.394 . S
C2032 C2038 1.465 . S
C2033 C2028 1.399 . S
C2033 C2032 1.394 . S
C2033 C2034 1.516 . S
C2034 C2033 1.516 . S
C2034 C2035 1.502 . S
C2034 C2036 1.561 . S
C2034 C2037 1.526 . S
C2035 H2019 0.959 . S
C2035 H2020 0.959 . S
C2035 H2021 0.961 . S
C2035 C2034 1.502 . S
C2036 H2022 0.960 . S
C2036 H2023 0.961 . S
C2036 H2024 0.959 . S
C2036 C2034 1.561 . S
C2037 C2034 1.526 . S
C2037 C2038 1.396 . S
C2037 C2042 1.390 . S
C2038 C2032 1.465 . S
C2038 C2037 1.396 . S
C2038 C2039 1.399 . S
C2039 H2025 0.929 . S
C2039 C2038 1.399 . S
C2039 C2040 1.385 . S
C2040 H2026 0.931 . S
C2040 C2039 1.385 . S
C2040 C2041 1.389 . S
C2041 C2040 1.389 . S
C2041 C2042 1.387 . S
C2042 H2027 0.930 . S
C2042 C2037 1.390 . S
C2042 C2041 1.387 . S
H2043 C2055 0.930 . S
H2044 C2057 0.930 . S
H2045 C2058 0.930 . S
H2046 C2062 0.959 . S
H2047 C2062 0.959 . S
H2048 C2062 0.961 . S
H2049 C2063 0.960 . S
H2050 C2063 0.961 . S
H2051 C2063 0.959 . S
H2052 C2066 0.929 . S
H2053 C2067 0.931 . S
H2054 C2069 0.930 . S
C2055 H2043 0.930 . S
C2055 C2056 1.399 . S
C2055 C2060 1.399 . S
C2056 C2055 1.399 . S
C2056 C2057 1.376 . S
C2057 H2044 0.930 . S
C2057 C2056 1.376 . S
C2057 C2058 1.388 . S
C2058 H2045 0.930 . S
C2058 C2057 1.388 . S
C2058 C2059 1.390 . S
C2059 C2058 1.390 . S
C2059 C2060 1.394 . S
C2059 C2065 1.465 . S
C2060 C2055 1.399 . S
C2060 C2059 1.394 . S
C2060 C2061 1.516 . S
C2061 C2060 1.516 . S
C2061 C2062 1.502 . S
C2061 C2063 1.561 . S
C2061 C2064 1.526 . S
C2062 H2046 0.959 . S
C2062 H2047 0.959 . S
C2062 H2048 0.961 . S
C2062 C2061 1.502 . S
C2063 H2049 0.960 . S
C2063 H2050 0.961 . S
C2063 H2051 0.959 . S
C2063 C2061 1.561 . S
C2064 C2061 1.526 . S
C2064 C2065 1.396 . S
C2064 C2069 1.390 . S
C2065 C2059 1.465 . S
C2065 C2064 1.396 . S
C2065 C2066 1.399 . S
C2066 H2052 0.929 . S
C2066 C2065 1.399 . S
C2066 C2067 1.385 . S
C2067 H2053 0.931 . S
C2067 C2066 1.385 . S
C2067 C2068 1.389 . S
C2068 C2067 1.389 . S
C2068 C2069 1.387 . S
C2069 H2054 0.930 . S
C2069 C2064 1.390 . S
C2069 C2068 1.387 . S
H2070 C2082 0.930 . S
H2071 C2084 0.930 . S
H2072 C2085 0.930 . S
H2073 C2089 0.959 . S
H2074 C2089 0.959 . S
H2075 C2089 0.961 . S
H2076 C2090 0.960 . S
H2077 C2090 0.961 . S
H2078 C2090 0.959 . S
H2079 C2093 0.929 . S
H2080 C2094 0.931 . S
H2081 C2096 0.930 . S
C2082 H2070 0.930 . S
C2082 C2083 1.399 . S
C2082 C2087 1.399 . S
C2083 C2082 1.399 . S
C2083 C2084 1.376 . S
C2084 H2071 0.930 . S
C2084 C2083 1.376 . S
C2084 C2085 1.388 . S
C2085 H2072 0.930 . S
C2085 C2084 1.388 . S
C2085 C2086 1.390 . S
C2086 C2085 1.390 . S
C2086 C2087 1.394 . S
C2086 C2092 1.465 . S
C2087 C2082 1.399 . S
C2087 C2086 1.394 . S
C2087 C2088 1.516 . S
C2088 C2087 1.516 . S
C2088 C2089 1.502 . S
C2088 C2090 1.561 . S
C2088 C2091 1.526 . S
C2089 H2073 0.959 . S
C2089 H2074 0.959 . S
C2089 H2075 0.961 . S
C2089 C2088 1.502 . S
C2090 H2076 0.960 . S
C2090 H2077 0.961 . S
C2090 H2078 0.959 . S
C2090 C2088 1.561 . S
C2091 C2088 1.526 . S
C2091 C2092 1.396 . S
C2091 C2096 1.390 . S
C2092 C2086 1.465 . S
C2092 C2091 1.396 . S
C2092 C2093 1.399 . S
C2093 H2079 0.929 . S
C2093 C2092 1.399 . S
C2093 C2094 1.385 . S
C2094 H2080 0.931 . S
C2094 C2093 1.385 . S
C2094 C2095 1.389 . S
C2095 C2094 1.389 . S
C2095 C2096 1.387 . S
C2096 H2081 0.930 . S
C2096 C2091 1.390 . S
C2096 C2095 1.387 . S
H2097 C2109 0.930 . S
H2098 C2111 0.930 . S
H2099 C2112 0.930 . S
H2100 C2116 0.959 . S
H2101 C2116 0.959 . S
H2102 C2116 0.961 . S
H2103 C2117 0.960 . S
H2104 C2117 0.961 . S
H2105 C2117 0.959 . S
H2106 C2120 0.929 . S
H2107 C2121 0.931 . S
H2108 C2123 0.930 . S
C2109 H2097 0.930 . S
C2109 C2110 1.399 . S
C2109 C2114 1.399 . S
C2110 C2109 1.399 . S
C2110 C2111 1.376 . S
C2111 H2098 0.930 . S
C2111 C2110 1.376 . S
C2111 C2112 1.388 . S
C2112 H2099 0.930 . S
C2112 C2111 1.388 . S
C2112 C2113 1.390 . S
C2113 C2112 1.390 . S
C2113 C2114 1.394 . S
C2113 C2119 1.465 . S
C2114 C2109 1.399 . S
C2114 C2113 1.394 . S
C2114 C2115 1.516 . S
C2115 C2114 1.516 . S
C2115 C2116 1.502 . S
C2115 C2117 1.561 . S
C2115 C2118 1.526 . S
C2116 H2100 0.959 . S
C2116 H2101 0.959 . S
C2116 H2102 0.961 . S
C2116 C2115 1.502 . S
C2117 H2103 0.960 . S
C2117 H2104 0.961 . S
C2117 H2105 0.959 . S
C2117 C2115 1.561 . S
C2118 C2115 1.526 . S
C2118 C2119 1.396 . S
C2118 C2123 1.390 . S
C2119 C2113 1.465 . S
C2119 C2118 1.396 . S
C2119 C2120 1.399 . S
C2120 H2106 0.929 . S
C2120 C2119 1.399 . S
C2120 C2121 1.385 . S
C2121 H2107 0.931 . S
C2121 C2120 1.385 . S
C2121 C2122 1.389 . S
C2122 C2121 1.389 . S
C2122 C2123 1.387 . S
C2123 H2108 0.930 . S
C2123 C2118 1.390 . S
C2123 C2122 1.387 . S
H2124 C2136 0.930 . S
H2125 C2138 0.930 . S
H2126 C2139 0.930 . S
H2127 C2143 0.959 . S
H2128 C2143 0.959 . S
H2129 C2143 0.961 . S
H2130 C2144 0.960 . S
H2131 C2144 0.961 . S
H2132 C2144 0.959 . S
H2133 C2147 0.929 . S
H2134 C2148 0.931 . S
H2135 C2150 0.930 . S
C2136 H2124 0.930 . S
C2136 C2137 1.399 . S
C2136 C2141 1.399 . S
C2137 C2136 1.399 . S
C2137 C2138 1.376 . S
C2138 H2125 0.930 . S
C2138 C2137 1.376 . S
C2138 C2139 1.388 . S
C2139 H2126 0.930 . S
C2139 C2138 1.388 . S
C2139 C2140 1.390 . S
C2140 C2139 1.390 . S
C2140 C2141 1.394 . S
C2140 C2146 1.465 . S
C2141 C2136 1.399 . S
C2141 C2140 1.394 . S
C2141 C2142 1.516 . S
C2142 C2141 1.516 . S
C2142 C2143 1.502 . S
C2142 C2144 1.561 . S
C2142 C2145 1.526 . S
C2143 H2127 0.959 . S
C2143 H2128 0.959 . S
C2143 H2129 0.961 . S
C2143 C2142 1.502 . S
C2144 H2130 0.960 . S
C2144 H2131 0.961 . S
C2144 H2132 0.959 . S
C2144 C2142 1.561 . S
C2145 C2142 1.526 . S
C2145 C2146 1.396 . S
C2145 C2150 1.390 . S
C2146 C2140 1.465 . S
C2146 C2145 1.396 . S
C2146 C2147 1.399 . S
C2147 H2133 0.929 . S
C2147 C2146 1.399 . S
C2147 C2148 1.385 . S
C2148 H2134 0.931 . S
C2148 C2147 1.385 . S
C2148 C2149 1.389 . S
C2149 C2148 1.389 . S
C2149 C2150 1.387 . S
C2150 H2135 0.930 . S
C2150 C2145 1.390 . S
C2150 C2149 1.387 . S
H2151 C2163 0.930 . S
H2152 C2165 0.930 . S
H2153 C2166 0.930 . S
H2154 C2170 0.959 . S
H2155 C2170 0.959 . S
H2156 C2170 0.961 . S
H2157 C2171 0.960 . S
H2158 C2171 0.961 . S
H2159 C2171 0.959 . S
H2160 C2174 0.929 . S
H2161 C2175 0.931 . S
H2162 C2177 0.930 . S
C2163 H2151 0.930 . S
C2163 C2164 1.399 . S
C2163 C2168 1.399 . S
C2164 C2163 1.399 . S
C2164 C2165 1.376 . S
C2165 H2152 0.930 . S
C2165 C2164 1.376 . S
C2165 C2166 1.388 . S
C2166 H2153 0.930 . S
C2166 C2165 1.388 . S
C2166 C2167 1.390 . S
C2167 C2166 1.390 . S
C2167 C2168 1.394 . S
C2167 C2173 1.465 . S
C2168 C2163 1.399 . S
C2168 C2167 1.394 . S
C2168 C2169 1.516 . S
C2169 C2168 1.516 . S
C2169 C2170 1.502 . S
C2169 C2171 1.561 . S
C2169 C2172 1.526 . S
C2170 H2154 0.959 . S
C2170 H2155 0.959 . S
C2170 H2156 0.961 . S
C2170 C2169 1.502 . S
C2171 H2157 0.960 . S
C2171 H2158 0.961 . S
C2171 H2159 0.959 . S
C2171 C2169 1.561 . S
C2172 C2169 1.526 . S
C2172 C2173 1.396 . S
C2172 C2177 1.390 . S
C2173 C2167 1.465 . S
C2173 C2172 1.396 . S
C2173 C2174 1.399 . S
C2174 H2160 0.929 . S
C2174 C2173 1.399 . S
C2174 C2175 1.385 . S
C2175 H2161 0.931 . S
C2175 C2174 1.385 . S
C2175 C2176 1.389 . S
C2176 C2175 1.389 . S
C2176 C2177 1.387 . S
C2177 H2162 0.930 . S
C2177 C2172 1.390 . S
C2177 C2176 1.387 . S
H2178 C2190 0.930 . S
H2179 C2192 0.930 . S
H2180 C2193 0.930 . S
H2181 C2197 0.959 . S
H2182 C2197 0.959 . S
H2183 C2197 0.961 . S
H2184 C2198 0.960 . S
H2185 C2198 0.961 . S
H2186 C2198 0.959 . S
H2187 C2201 0.929 . S
H2188 C2202 0.931 . S
H2189 C2204 0.930 . S
C2190 H2178 0.930 . S
C2190 C2191 1.399 . S
C2190 C2195 1.399 . S
C2191 C2190 1.399 . S
C2191 C2192 1.376 . S
C2192 H2179 0.930 . S
C2192 C2191 1.376 . S
C2192 C2193 1.388 . S
C2193 H2180 0.930 . S
C2193 C2192 1.388 . S
C2193 C2194 1.390 . S
C2194 C2193 1.390 . S
C2194 C2195 1.394 . S
C2194 C2200 1.465 . S
C2195 C2190 1.399 . S
C2195 C2194 1.394 . S
C2195 C2196 1.516 . S
C2196 C2195 1.516 . S
C2196 C2197 1.502 . S
C2196 C2198 1.561 . S
C2196 C2199 1.526 . S
C2197 H2181 0.959 . S
C2197 H2182 0.959 . S
C2197 H2183 0.961 . S
C2197 C2196 1.502 . S
C2198 H2184 0.960 . S
C2198 H2185 0.961 . S
C2198 H2186 0.959 . S
C2198 C2196 1.561 . S
C2199 C2196 1.526 . S
C2199 C2200 1.396 . S
C2199 C2204 1.390 . S
C2200 C2194 1.465 . S
C2200 C2199 1.396 . S
C2200 C2201 1.399 . S
C2201 H2187 0.929 . S
C2201 C2200 1.399 . S
C2201 C2202 1.385 . S
C2202 H2188 0.931 . S
C2202 C2201 1.385 . S
C2202 C2203 1.389 . S
C2203 C2202 1.389 . S
C2203 C2204 1.387 . S
C2204 H2189 0.930 . S
C2204 C2199 1.390 . S
C2204 C2203 1.387 . S
H2205 C2217 0.930 . S
H2206 C2219 0.930 . S
H2207 C2220 0.930 . S
H2208 C2224 0.959 . S
H2209 C2224 0.959 . S
H2210 C2224 0.961 . S
H2211 C2225 0.960 . S
H2212 C2225 0.961 . S
H2213 C2225 0.959 . S
H2214 C2228 0.929 . S
H2215 C2229 0.931 . S
H2216 C2231 0.930 . S
C2217 H2205 0.930 . S
C2217 C2218 1.399 . S
C2217 C2222 1.399 . S
C2218 C2217 1.399 . S
C2218 C2219 1.376 . S
C2219 H2206 0.930 . S
C2219 C2218 1.376 . S
C2219 C2220 1.388 . S
C2220 H2207 0.930 . S
C2220 C2219 1.388 . S
C2220 C2221 1.390 . S
C2221 C2220 1.390 . S
C2221 C2222 1.394 . S
C2221 C2227 1.465 . S
C2222 C2217 1.399 . S
C2222 C2221 1.394 . S
C2222 C2223 1.516 . S
C2223 C2222 1.516 . S
C2223 C2224 1.502 . S
C2223 C2225 1.561 . S
C2223 C2226 1.526 . S
C2224 H2208 0.959 . S
C2224 H2209 0.959 . S
C2224 H2210 0.961 . S
C2224 C2223 1.502 . S
C2225 H2211 0.960 . S
C2225 H2212 0.961 . S
C2225 H2213 0.959 . S
C2225 C2223 1.561 . S
C2226 C2223 1.526 . S
C2226 C2227 1.396 . S
C2226 C2231 1.390 . S
C2227 C2221 1.465 . S
C2227 C2226 1.396 . S
C2227 C2228 1.399 . S
C2228 H2214 0.929 . S
C2228 C2227 1.399 . S
C2228 C2229 1.385 . S
C2229 H2215 0.931 . S
C2229 C2228 1.385 . S
C2229 C2230 1.389 . S
C2230 C2229 1.389 . S
C2230 C2231 1.387 . S
C2231 H2216 0.930 . S
C2231 C2226 1.390 . S
C2231 C2230 1.387 . S
H2232 C2244 0.930 . S
H2233 C2246 0.930 . S
H2234 C2247 0.930 . S
H2235 C2251 0.959 . S
H2236 C2251 0.959 . S
H2237 C2251 0.961 . S
H2238 C2252 0.960 . S
H2239 C2252 0.961 . S
H2240 C2252 0.959 . S
H2241 C2255 0.929 . S
H2242 C2256 0.931 . S
H2243 C2258 0.930 . S
C2244 H2232 0.930 . S
C2244 C2245 1.399 . S
C2244 C2249 1.399 . S
C2245 C2244 1.399 . S
C2245 C2246 1.376 . S
C2246 H2233 0.930 . S
C2246 C2245 1.376 . S
C2246 C2247 1.388 . S
C2247 H2234 0.930 . S
C2247 C2246 1.388 . S
C2247 C2248 1.390 . S
C2248 C2247 1.390 . S
C2248 C2249 1.394 . S
C2248 C2254 1.465 . S
C2249 C2244 1.399 . S
C2249 C2248 1.394 . S
C2249 C2250 1.516 . S
C2250 C2249 1.516 . S
C2250 C2251 1.502 . S
C2250 C2252 1.561 . S
C2250 C2253 1.526 . S
C2251 H2235 0.959 . S
C2251 H2236 0.959 . S
C2251 H2237 0.961 . S
C2251 C2250 1.502 . S
C2252 H2238 0.960 . S
C2252 H2239 0.961 . S
C2252 H2240 0.959 . S
C2252 C2250 1.561 . S
C2253 C2250 1.526 . S
C2253 C2254 1.396 . S
C2253 C2258 1.390 . S
C2254 C2248 1.465 . S
C2254 C2253 1.396 . S
C2254 C2255 1.399 . S
C2255 H2241 0.929 . S
C2255 C2254 1.399 . S
C2255 C2256 1.385 . S
C2256 H2242 0.931 . S
C2256 C2255 1.385 . S
C2256 C2257 1.389 . S
C2257 C2256 1.389 . S
C2257 C2258 1.387 . S
C2258 H2243 0.930 . S
C2258 C2253 1.390 . S
C2258 C2257 1.387 . S
H2259 C2271 0.930 . S
H2260 C2273 0.930 . S
H2261 C2274 0.930 . S
H2262 C2278 0.959 . S
H2263 C2278 0.959 . S
H2264 C2278 0.961 . S
H2265 C2279 0.960 . S
H2266 C2279 0.961 . S
H2267 C2279 0.959 . S
H2268 C2282 0.929 . S
H2269 C2283 0.931 . S
H2270 C2285 0.930 . S
C2271 H2259 0.930 . S
C2271 C2272 1.399 . S
C2271 C2276 1.399 . S
C2272 C2271 1.399 . S
C2272 C2273 1.376 . S
C2273 H2260 0.930 . S
C2273 C2272 1.376 . S
C2273 C2274 1.388 . S
C2274 H2261 0.930 . S
C2274 C2273 1.388 . S
C2274 C2275 1.390 . S
C2275 C2274 1.390 . S
C2275 C2276 1.394 . S
C2275 C2281 1.465 . S
C2276 C2271 1.399 . S
C2276 C2275 1.394 . S
C2276 C2277 1.516 . S
C2277 C2276 1.516 . S
C2277 C2278 1.502 . S
C2277 C2279 1.561 . S
C2277 C2280 1.526 . S
C2278 H2262 0.959 . S
C2278 H2263 0.959 . S
C2278 H2264 0.961 . S
C2278 C2277 1.502 . S
C2279 H2265 0.960 . S
C2279 H2266 0.961 . S
C2279 H2267 0.959 . S
C2279 C2277 1.561 . S
C2280 C2277 1.526 . S
C2280 C2281 1.396 . S
C2280 C2285 1.390 . S
C2281 C2275 1.465 . S
C2281 C2280 1.396 . S
C2281 C2282 1.399 . S
C2282 H2268 0.929 . S
C2282 C2281 1.399 . S
C2282 C2283 1.385 . S
C2283 H2269 0.931 . S
C2283 C2282 1.385 . S
C2283 C2284 1.389 . S
C2284 C2283 1.389 . S
C2284 C2285 1.387 . S
C2285 H2270 0.930 . S
C2285 C2280 1.390 . S
C2285 C2284 1.387 . S
C841 C469 1.567 . S
C853 C654 1.567 . S
C868 C505 1.521 . S
C880 C674 1.455 . S
C895 C433 1.577 . S
C907 C697 1.559 . S
C922 C397 1.472 . S
C934 C677 1.469 . S
C961 C694 1.394 . S
C949 C325 1.427 . S
C976 C361 1.468 . S
C988 C657 1.467 . S
C1015 C664 1.528 . S
C1003 C421 1.575 . S
C1042 C684 1.472 . S
C1030 C349 1.517 . S
C1057 C385 1.560 . S
C1069 C689 1.579 . S
C1084 C493 1.456 . S
C1096 C669 1.480 . S
C1111 C529 1.438 . S
C1123 C704 1.433 . S
C1150 C649 1.489 . S
C1138 C457 1.467 . S
C1177 C714 1.558 . S
C1165 C37 1.553 . S
C1192 C73 1.523 . S
C1204 C734 1.515 . S
C1219 C1 1.571 . S
C1231 C757 1.568 . S
C1246 C613 1.480 . S
C1258 C737 1.454 . S
C1273 C541 1.445 . S
C1285 C754 1.409 . S
C1300 C577 1.464 . S
C1312 C717 1.474 . S
C1327 C637 1.578 . S
C1339 C724 1.519 . S
C1354 C565 1.525 . S
C1366 C744 1.455 . S
C1393 C749 1.577 . S
C1381 C601 1.549 . S
C1408 C61 1.459 . S
C1420 C729 1.481 . S
C1447 C764 1.398 . S
C1435 C97 1.446 . S
C1462 C25 1.467 . S
C1474 C709 1.488 . S
C1501 C774 1.533 . S
C1489 C253 1.552 . S
C1516 C289 1.516 . S
C1528 C794 1.508 . S
C1555 C817 1.564 . S
C1543 C217 1.573 . S
C1582 C797 1.469 . S
C1570 C181 1.473 . S
C1609 C814 1.396 . S
C1597 C109 1.425 . S
C1624 C145 1.488 . S
C1636 C777 1.463 . S
C1651 C205 1.578 . S
C1663 C784 1.518 . S
C1678 C133 1.526 . S
C1690 C804 1.472 . S
C1717 C809 1.532 . S
C1705 C169 1.581 . S
C1732 C277 1.456 . S
C1744 C789 1.480 . S
C1759 C313 1.446 . S
C1771 C824 1.400 . S
C1786 C241 1.480 . S
C1798 C769 1.482 . S
C1813 C571 1.269 . S
C1825 C667 1.216 1_565 S
C1852 C687 1.581 . S
C1840 C607 1.694 . S
C1867 C643 1.508 . S
C1879 C696 1.422 . S
C1894 C247 1.669 . S
C1906 C676 1.617 1_655 S
C1921 C283 1.503 . S
C1933 C707 1.439 . S
C1960 C656 1.262 1_545 S
C1948 C319 1.281 . S
C1975 C139 1.271 . S
C1987 C727 1.260 . S
C2002 C175 1.685 . S
C2014 C747 1.600 . S
C2029 C211 1.491 . S
C2041 C756 1.476 . S
C2056 C463 1.679 . S
C2068 C736 1.650 . S
C2095 C767 1.465 . S
C2083 C499 1.507 . S
C2110 C535 1.277 . S
C2122 C716 1.278 . S
C2137 C355 1.276 . S
C2149 C787 1.216 . S
C2164 C391 1.687 . S
C2176 C807 1.592 . S
C2203 C816 1.446 . S
C2191 C427 1.513 . S
C2218 C31 1.678 . S
C2230 C796 1.649 . S
C2245 C67 1.512 . S
C2257 C827 1.436 . S
C2272 C103 1.262 . S
C2284 C776 1.202 . S
