# Generated by pormake.
# Topology pyr, (3,6)-cn, num edge types: 1
# Building blocks:
#     Node 0, Type 0, BuildingBlock: BETDAH_clean_linker_0, # of connection points: 3
#     Node 1, Type 0, BuildingBlock: BETDAH_clean_linker_0, # of connection points: 3
#     Node 2, Type 0, BuildingBlock: BETDAH_clean_linker_0, # of connection points: 3
#     Node 3, Type 0, BuildingBlock: BETDAH_clean_linker_0, # of connection points: 3
#     Node 4, Type 0, BuildingBlock: BETDAH_clean_linker_0, # of connection points: 3
#     Node 5, Type 0, BuildingBlock: BETDAH_clean_linker_0, # of connection points: 3
#     Node 6, Type 0, BuildingBlock: BETDAH_clean_linker_0, # of connection points: 3
#     Node 7, Type 0, BuildingBlock: BETDAH_clean_linker_0, # of connection points: 3
#     Node 8, Type 1, BuildingBlock: PAMTOO_clean_sbu_0, # of connection points: 6
#     Node 9, Type 1, BuildingBlock: PAMTOO_clean_sbu_0, # of connection points: 6
#     Node 10, Type 1, BuildingBlock: PAMTOO_clean_sbu_0, # of connection points: 6
#     Node 11, Type 1, BuildingBlock: PAMTOO_clean_sbu_0, # of connection points: 6
#     Edge 12, Type (0, 1), BuildingBlock: TEMPAE_clean_linker_10, # of connection points: 2
#     Edge 13, Type (0, 1), BuildingBlock: TEMPAE_clean_linker_10, # of connection points: 2
#     Edge 14, Type (0, 1), BuildingBlock: TEMPAE_clean_linker_10, # of connection points: 2
#     Edge 15, Type (0, 1), BuildingBlock: TEMPAE_clean_linker_10, # of connection points: 2
#     Edge 16, Type (0, 1), BuildingBlock: TEMPAE_clean_linker_10, # of connection points: 2
#     Edge 17, Type (0, 1), BuildingBlock: TEMPAE_clean_linker_10, # of connection points: 2
#     Edge 18, Type (0, 1), BuildingBlock: TEMPAE_clean_linker_10, # of connection points: 2
#     Edge 19, Type (0, 1), BuildingBlock: TEMPAE_clean_linker_10, # of connection points: 2
#     Edge 20, Type (0, 1), BuildingBlock: TEMPAE_clean_linker_10, # of connection points: 2
#     Edge 21, Type (0, 1), BuildingBlock: TEMPAE_clean_linker_10, # of connection points: 2
#     Edge 22, Type (0, 1), BuildingBlock: TEMPAE_clean_linker_10, # of connection points: 2
#     Edge 23, Type (0, 1), BuildingBlock: TEMPAE_clean_linker_10, # of connection points: 2
#     Edge 24, Type (0, 1), BuildingBlock: TEMPAE_clean_linker_10, # of connection points: 2
#     Edge 25, Type (0, 1), BuildingBlock: TEMPAE_clean_linker_10, # of connection points: 2
#     Edge 26, Type (0, 1), BuildingBlock: TEMPAE_clean_linker_10, # of connection points: 2
#     Edge 27, Type (0, 1), BuildingBlock: TEMPAE_clean_linker_10, # of connection points: 2
#     Edge 28, Type (0, 1), BuildingBlock: TEMPAE_clean_linker_10, # of connection points: 2
#     Edge 29, Type (0, 1), BuildingBlock: TEMPAE_clean_linker_10, # of connection points: 2
#     Edge 30, Type (0, 1), BuildingBlock: TEMPAE_clean_linker_10, # of connection points: 2
#     Edge 31, Type (0, 1), BuildingBlock: TEMPAE_clean_linker_10, # of connection points: 2
#     Edge 32, Type (0, 1), BuildingBlock: TEMPAE_clean_linker_10, # of connection points: 2
#     Edge 33, Type (0, 1), BuildingBlock: TEMPAE_clean_linker_10, # of connection points: 2
#     Edge 34, Type (0, 1), BuildingBlock: TEMPAE_clean_linker_10, # of connection points: 2
#     Edge 35, Type (0, 1), BuildingBlock: TEMPAE_clean_linker_10, # of connection points: 2
# Relax obj value: 0.124
# Max RMSD: 0.202
# Mean RMSD: 0.126
data_MOF--net-pyr--node1-PAMTOO_clean_sbu_0--node2-BETDAH_clean_linker_0--edge1-TEMPAE_clean_linker_10
_symmetry_space_group_name_H-M    P1
_symmetry_Int_Tables_number       1
_symmetry_cell_setting            triclinic
loop_
_symmetry_equiv_pos_as_xyz
'x, y, z'
_cell_length_a     36.294782
_cell_length_b     39.861729
_cell_length_c     41.064655
_cell_angle_alpha  90.336242
_cell_angle_beta   90.711358
_cell_angle_gamma 109.44167
loop_
_atom_site_label
_atom_site_type_symbol
_atom_site_fract_x
_atom_site_fract_y
_atom_site_fract_z
_atom_type_partial_charge
H0 H 0.37997 0.23877 0.25619 0.0
H1 H 0.42438 0.31321 0.17881 0.0
H2 H 0.34282 0.32994 0.24665 0.0
C3 C 0.38123 0.26289 0.24349 0.0
C4 C 0.35879 0.28315 0.25461 0.0
C5 C 0.40488 0.27319 0.21605 0.0
C6 C 0.40704 0.30511 0.20048 0.0
C7 C 0.38452 0.32544 0.21113 0.0
C8 C 0.36054 0.31449 0.2384 0.0
N9 N 0.38509 0.35582 0.19309 0.0
C10 C 0.35235 0.36627 0.18994 0.0
H11 H 0.25818 0.79382 0.75237 0.0
H12 H 0.1486 0.81244 0.7445 0.0
H13 H 0.17692 0.7441 0.67481 0.0
C14 C 0.23022 0.78873 0.74005 0.0
C15 C 0.22079 0.76656 0.71234 0.0
C16 C 0.20418 0.80495 0.75188 0.0
C17 C 0.16856 0.7996 0.73552 0.0
C18 C 0.15896 0.77801 0.70738 0.0
C19 C 0.18471 0.76099 0.69634 0.0
N20 N 0.12406 0.77368 0.68937 0.0
C21 C 0.10868 0.80111 0.68607 0.0
H22 H 0.69712 0.37736 0.93274 0.0
H23 H 0.71164 0.44577 0.84934 0.0
H24 H 0.62452 0.3413 0.84768 0.0
C25 C 0.68784 0.38254 0.90862 0.0
C26 C 0.65799 0.35576 0.89238 0.0
C27 C 0.70785 0.41486 0.89331 0.0
C28 C 0.69616 0.42117 0.86151 0.0
C29 C 0.66525 0.39477 0.84521 0.0
C30 C 0.64728 0.36201 0.86059 0.0
N31 N 0.65339 0.39815 0.81243 0.0
C32 C 0.65431 0.42896 0.79578 0.0
H33 H 0.84444 0.73904 0.4331 0.0
H34 H 0.92562 0.77491 0.35548 0.0
H35 H 0.83999 0.66964 0.35083 0.0
C36 C 0.85597 0.73386 0.41008 0.0
C37 C 0.83879 0.70076 0.39423 0.0
C38 C 0.88736 0.76066 0.39653 0.0
C39 C 0.90183 0.75409 0.36649 0.0
C40 C 0.88533 0.72143 0.34979 0.0
C41 C 0.85352 0.6946 0.36372 0.0
N42 N 0.89979 0.71875 0.318 0.0
C43 C 0.89949 0.68854 0.3003 0.0
H44 H 0.77292 0.8097 0.87202 0.0
H45 H 0.68855 0.75548 0.94316 0.0
H46 H 0.6612 0.82502 0.87426 0.0
C47 C 0.74447 0.80433 0.88289 0.0
C48 C 0.71833 0.82007 0.86992 0.0
C49 C 0.73421 0.78126 0.90938 0.0
C50 C 0.69676 0.77306 0.92249 0.0
C51 C 0.67065 0.78928 0.91035 0.0
C52 C 0.6814 0.81263 0.88388 0.0
N53 N 0.63425 0.78262 0.92581 0.0
C54 C 0.61781 0.80917 0.93 0.0
H55 H 0.87643 0.23874 0.35897 0.0
H56 H 0.91011 0.30528 0.44492 0.0
H57 H 0.83306 0.32542 0.37339 0.0
C58 C 0.87524 0.26089 0.37385 0.0
C59 C 0.85212 0.2808 0.36313 0.0
C60 C 0.89617 0.26895 0.40353 0.0
C61 C 0.89515 0.29876 0.42156 0.0
C62 C 0.87263 0.31918 0.4109 0.0
C63 C 0.85107 0.31014 0.38158 0.0
N64 N 0.87109 0.34781 0.43085 0.0
C65 C 0.83854 0.35868 0.43189 0.0
H66 H 0.34859 0.74328 0.17516 0.0
H67 H 0.34908 0.68014 0.25999 0.0
H68 H 0.43012 0.78698 0.25364 0.0
C69 C 0.36135 0.74021 0.19848 0.0
C70 C 0.39179 0.76902 0.21179 0.0
C71 C 0.34565 0.70807 0.21544 0.0
C72 C 0.3612 0.70456 0.24654 0.0
C73 C 0.39201 0.73315 0.26028 0.0
C74 C 0.4066 0.76512 0.24287 0.0
N75 N 0.40815 0.73225 0.29206 0.0
C76 C 0.40705 0.70274 0.31084 0.0
H77 H 0.20957 0.37556 0.68001 0.0
H78 H 0.20991 0.44588 0.76027 0.0
H79 H 0.12441 0.34067 0.75531 0.0
C80 C 0.19658 0.38072 0.70231 0.0
C81 C 0.16462 0.35394 0.71535 0.0
C82 C 0.21313 0.41378 0.71819 0.0
C83 C 0.19705 0.42059 0.74776 0.0
C84 C 0.1647 0.39396 0.76118 0.0
C85 C 0.14918 0.36095 0.74488 0.0
N86 N 0.14727 0.39777 0.79142 0.0
C87 C 0.15162 0.42826 0.81028 0.0
Dy88 Dy 0.06649 0.06399 0.53951 0.0
Dy89 Dy 0.98388 0.04516 0.57937 0.0
C90 C 0.05575 0.11595 0.59559 0.0
O91 O 0.06546 0.01901 0.57167 0.0
O92 O 0.02125 0.0227 0.6101 0.0
O93 O 0.12952 0.0877 0.53734 0.0
O94 O 0.09647 0.0589 0.49582 0.0
O95 O 0.98098 0.99488 0.55319 0.0
O96 O 0.0205 0.02131 0.5112 0.0
O97 O 0.97585 0.07167 0.5334 0.0
O98 O 0.03961 0.10293 0.52116 0.0
O99 O 0.92076 0.02297 0.57929 0.0
O100 O 0.95263 0.05011 0.62229 0.0
C101 C 0.04858 0.01034 0.59996 0.0
O102 O 0.07941 0.10064 0.58312 0.0
O103 O 0.0178 0.102 0.59127 0.0
C104 C 0.15218 0.10897 0.48493 0.0
C105 C 0.19662 0.16191 0.44222 0.0
C106 C 0.21199 0.15715 0.4728 0.0
C107 C 0.19005 0.13082 0.49385 0.0
C108 C 0.13628 0.11446 0.45485 0.0
C109 C 0.1583 0.14054 0.43371 0.0
C110 C 0.13024 0.07987 0.50656 0.0
C111 C 0.99398 0.99348 0.5237 0.0
C112 C 1.00209 0.09754 0.51829 0.0
C113 C 0.89197 1.00543 0.63044 0.0
C114 C 0.84158 0.95965 0.67495 0.0
C115 C 0.88015 0.95968 0.67145 0.0
C116 C 0.90517 0.98239 0.64931 0.0
C117 C 0.85323 1.00458 0.63296 0.0
C118 C 0.82818 0.98185 0.65499 0.0
C119 C 0.91858 0.03211 0.60957 0.0
H120 H 0.2412 0.17347 0.48033 0.0
H121 H 0.20292 0.12718 0.51695 0.0
H122 H 0.10712 0.09814 0.4472 0.0
H123 H 0.14569 0.14301 0.41018 0.0
H124 H 0.8915 0.94318 0.6867 0.0
H125 H 0.93505 0.98272 0.64761 0.0
H126 H 0.84261 0.02216 0.61842 0.0
H127 H 0.7985 0.98204 0.65677 0.0
Dy128 Dy 0.47971 0.05149 0.02753 0.0
Dy129 Dy 0.564 0.06905 0.06645 0.0
C130 C 0.49212 0.99875 0.08257 0.0
O131 O 0.48631 0.0987 0.059 0.0
O132 O 0.52685 0.08967 0.09852 0.0
O133 O 0.41691 0.03883 0.02781 0.0
O134 O 0.44838 0.04949 0.98231 0.0
O135 O 0.56831 0.11911 0.04002 0.0
O136 O 0.52332 0.09463 0.99953 0.0
O137 O 0.56912 0.04088 1.02034 0.0
O138 O 0.50424 0.01059 1.00969 0.0
O139 O 0.62691 0.09421 0.06813 0.0
O140 O 0.59675 0.06242 0.10851 0.0
C141 C 0.50203 0.10498 0.08825 0.0
O142 O 0.46781 0.01342 0.06962 0.0
O143 O 0.53002 0.01266 0.07851 0.0
C144 C 0.38274 0.0128 0.97912 0.0
C145 C 0.32574 0.96106 0.94168 0.0
C146 C 0.34199 0.95132 0.96997 0.0
C147 C 0.37046 0.97703 0.98851 0.0
C148 C 0.3659 0.02267 0.95157 0.0
C149 C 0.33786 0.99714 0.93297 0.0
C150 C 0.4144 0.04041 0.99615 0.0
C151 C 0.55267 0.12121 1.01145 0.0
C152 C 0.54137 0.0147 1.00597 0.0
C153 C 0.65151 0.11327 0.12125 0.0
C154 C 0.69565 0.16552 0.16624 0.0
C155 C 0.71141 0.16093 0.13606 0.0
C156 C 0.6896 0.13494 0.11387 0.0
C157 C 0.63523 0.11859 0.15091 0.0
C158 C 0.65711 0.14428 0.17319 0.0
C159 C 0.62952 0.08486 0.09824 0.0
H160 H 0.33312 0.92383 0.97751 0.0
H161 H 0.38331 0.96892 1.00971 0.0
H162 H 0.37529 0.05017 0.94388 0.0
H163 H 0.32684 1.00562 0.911 0.0
H164 H 0.74077 0.17717 0.12969 0.0
H165 H 0.70268 0.13147 0.09108 0.0
H166 H 0.60582 0.10246 0.15728 0.0
H167 H 0.64417 0.14659 0.19636 0.0
Dy168 Dy 0.51467 0.5213 0.53541 0.0
Dy169 Dy 0.5318 0.59852 0.57146 0.0
C170 C 0.56143 0.53946 0.60441 0.0
O171 O 0.45665 0.51679 0.55712 0.0
O172 O 0.47906 0.56137 0.59543 0.0
O173 O 0.50318 0.46449 0.53729 0.0
O174 O 0.50968 0.49077 0.49093 0.0
O175 O 0.48705 0.5961 0.53234 0.0
O176 O 0.49964 0.55595 0.49822 0.0
O177 O 0.57844 0.60817 0.5339 0.0
O178 O 0.57827 0.55102 0.5276 0.0
O179 O 0.54275 0.65517 0.5692 0.0
O180 O 0.5377 0.62937 0.61588 0.0
C181 C 0.45155 0.53313 0.58381 0.0
O182 O 0.53563 0.5156 0.58608 0.0
O183 O 0.57049 0.57365 0.5984 0.0
C184 C 0.53943 0.44758 0.4973 0.0
C185 C 0.60128 0.42541 0.47629 0.0
C186 C 0.60794 0.4528 0.4996 0.0
C187 C 0.57732 0.46372 0.51003 0.0
C188 C 0.53235 0.41983 0.47444 0.0
C189 C 0.56308 0.40862 0.46412 0.0
C190 C 0.50853 0.46194 0.50619 0.0
C191 C 0.48531 0.58172 0.50323 0.0
C192 C 0.59442 0.58534 0.52271 0.0
C193 C 0.50641 0.67158 0.60956 0.0
C194 C 0.44323 0.69186 0.63086 0.0
C195 C 0.43868 0.6686 0.60411 0.0
C196 C 0.46986 0.65844 0.5937 0.0
C197 C 0.51145 0.69529 0.63587 0.0
C198 C 0.48011 0.70543 0.64644 0.0
C199 C 0.53773 0.6578 0.60039 0.0
H200 H 0.63691 0.46584 0.50981 0.0
H201 H 0.58335 0.4852 0.52773 0.0
H202 H 0.50332 0.40731 0.46418 0.0
H203 H 0.5572 0.38753 0.44604 0.0
H204 H 0.4109 0.65808 0.59126 0.0
H205 H 0.46518 0.63976 0.57356 0.0
H206 H 0.53929 0.70527 0.6487 0.0
H207 H 0.48445 0.72308 0.66734 0.0
Dy208 Dy 0.03434 0.59278 0.04104 0.0
Dy209 Dy 0.01938 0.5156 0.07569 0.0
C210 C 0.98771 0.57495 0.10828 0.0
O211 O 0.08092 0.60275 0.07952 0.0
O212 O 0.08305 0.54627 0.08393 0.0
O213 O 0.04706 0.64962 0.04427 0.0
O214 O 0.03863 0.62342 0.99716 0.0
O215 O 0.0395 0.50975 0.02515 0.0
O216 O 0.07238 0.56807 1.01351 0.0
O217 O 0.96069 0.50967 0.05324 0.0
O218 O 0.97971 0.55642 1.01756 0.0
O219 O 1.00622 0.45855 0.07367 0.0
O220 O 0.01913 0.48644 0.11989 0.0
C221 C 0.09829 0.58061 0.08982 0.0
O222 O 0.99065 0.59074 0.07994 0.0
O223 O 1.00153 0.54873 0.11282 0.0
C224 C 0.01004 0.66729 1.00495 0.0
C225 C 0.94876 0.6919 0.98636 0.0
C226 C 0.94299 0.66579 1.01036 0.0
C227 C 0.9733 0.65348 1.01945 0.0
C228 C 0.01612 0.69352 0.98115 0.0
C229 C 0.98563 0.70575 0.97186 0.0
C230 C 0.04073 0.65229 1.01322 0.0
C231 C 0.06405 0.53392 1.00703 0.0
C232 C 0.95366 0.52714 0.02807 0.0
C233 C 0.04533 0.44096 0.11183 0.0
C234 C 0.1083 0.41851 0.13056 0.0
C235 C 0.10895 0.436 0.10084 0.0
C236 C 0.07787 0.44733 0.09166 0.0
C237 C 0.04412 0.42275 0.14111 0.0
C238 C 0.07539 0.41164 0.15045 0.0
C239 C 0.01504 0.45685 0.10435 0.0
H240 H 0.91475 0.65427 1.02156 0.0
H241 H 0.96785 0.63273 0.03746 0.0
H242 H 0.04419 0.70416 0.96951 0.0
H243 H 0.99087 0.72606 0.95342 0.0
H244 H 0.13415 0.44211 0.08525 0.0
H245 H 0.07981 0.46201 0.06925 0.0
H246 H 0.01948 0.41802 0.15717 0.0
H247 H 0.07405 0.39803 0.17339 0.0
C248 C 0.30698 0.23508 0.28238 0.0
C249 C 0.33236 0.27032 0.28235 0.0
C250 C 0.28389 0.22126 0.30938 0.0
C251 C 0.2865 0.24319 0.33716 0.0
C252 C 0.31108 0.27922 0.33685 0.0
C253 C 0.33365 0.29247 0.30927 0.0
C254 C 0.25762 0.18284 0.30855 0.0
C255 C 0.31474 0.30329 0.36609 0.0
C256 C 0.20486 0.2063 0.39732 0.0
C257 C 0.22121 0.18707 0.4182 0.0
C258 C 0.22642 0.22629 0.37169 0.0
C259 C 0.26535 0.22734 0.36706 0.0
C260 C 0.28278 0.20983 0.38922 0.0
C261 C 0.26045 0.18974 0.41438 0.0
C262 C 0.20684 0.24462 0.34855 0.0
C263 C 0.32436 0.21056 0.38525 0.0
H264 H 0.3056 0.21814 0.26132 0.0
H265 H 0.35338 0.31973 0.30921 0.0
H266 H 0.26784 0.16755 0.32699 0.0
H267 H 0.22733 0.18086 0.31481 0.0
H268 H 0.25708 0.17013 0.28431 0.0
H269 H 0.33225 0.33135 0.36088 0.0
H270 H 0.28542 0.30228 0.37439 0.0
H271 H 0.329 0.29395 0.38652 0.0
H272 H 0.17481 0.20498 0.40049 0.0
H273 H 0.27328 0.17471 0.43008 0.0
H274 H 0.20205 0.23073 0.32457 0.0
H275 H 0.22579 0.27247 0.34452 0.0
H276 H 0.17816 0.24472 0.35761 0.0
H277 H 0.32627 0.19512 0.36313 0.0
H278 H 0.33492 0.19902 0.4065 0.0
H279 H 0.3442 0.23824 0.38191 0.0
C280 C 0.24967 0.85738 0.78113 0.0
C281 C 0.21518 0.82811 0.78103 0.0
C282 C 0.26278 0.87789 0.8094 0.0
C283 C 0.24119 0.8684 0.83841 0.0
C284 C 0.20577 0.83929 0.83822 0.0
C285 C 0.19296 0.81958 0.80931 0.0
C286 C 0.30031 0.90916 0.80842 0.0
C287 C 0.18232 0.82812 0.86877 0.0
C288 C 0.30577 0.90198 0.91278 0.0
C289 C 0.29881 0.93386 0.91959 0.0
C290 C 0.28495 0.87894 0.88788 0.0
C291 C 0.25702 0.88831 0.86901 0.0
C292 C 0.24799 0.91918 0.87714 0.0
C293 C 0.26871 0.94138 0.90257 0.0
C294 C 0.29484 0.84582 0.88035 0.0
C295 C 0.21852 0.93017 0.85751 0.0
H296 H 0.26663 0.86391 0.75908 0.0
H297 H 0.16641 0.79668 0.80911 0.0
H298 H 0.29541 0.93353 0.81765 0.0
H299 H 0.32265 0.90413 0.82451 0.0
H300 H 0.3122 0.91428 0.78344 0.0
H301 H 0.15397 0.80671 0.86395 0.0
H302 H 0.19934 0.81835 0.88675 0.0
H303 H 0.17655 0.85117 0.88011 0.0
H304 H 0.32904 0.89593 0.92558 0.0
H305 H 0.2624 0.96548 0.90823 0.0
H306 H 0.31137 0.84952 0.85734 0.0
H307 H 0.2678 0.8226 0.87679 0.0
H308 H 0.31287 0.83968 0.89998 0.0
H309 H 0.23054 0.93904 0.8331 0.0
H310 H 0.21132 0.95228 0.86938 0.0
H311 H 0.19118 0.90735 0.85374 0.0
C312 C 0.67048 0.46214 0.744 0.0
C313 C 0.64748 0.45336 0.77188 0.0
C314 C 0.65969 0.47956 0.71753 0.0
C315 C 0.62478 0.48819 0.71875 0.0
C316 C 0.6024 0.48063 0.74758 0.0
C317 C 0.61393 0.46322 0.77368 0.0
C318 C 0.6846 0.48701 0.68753 0.0
C319 C 0.56505 0.48919 0.75021 0.0
C320 C 0.60426 0.55097 0.65554 0.0
C321 C 0.57924 0.52694 0.63313 0.0
C322 C 0.61957 0.53892 0.68327 0.0
C323 C 0.60977 0.50189 0.68896 0.0
C324 C 0.58494 0.47759 0.66621 0.0
C325 C 0.57011 0.49031 0.6388 0.0
C326 C 0.64593 0.56585 0.70671 0.0
C327 C 0.5736 0.43792 0.67098 0.0
H328 H 0.69608 0.45398 0.74229 0.0
H329 H 0.59568 0.4559 0.79496 0.0
H330 H 0.66854 0.4696 0.66719 0.0
H331 H 0.69081 0.51495 0.6798 0.0
H332 H 0.71276 0.48223 0.69157 0.0
H333 H 0.553 0.48488 0.77517 0.0
H334 H 0.57007 0.51723 0.74339 0.0
H335 H 0.54282 0.47208 0.73296 0.0
H336 H 0.61159 0.57929 0.65164 0.0
H337 H 0.55095 0.47129 0.62184 0.0
H338 H 0.67424 0.56113 0.70954 0.0
H339 H 0.63243 0.56279 0.73109 0.0
H340 H 0.65166 0.59363 0.69855 0.0
H341 H 0.60018 0.43009 0.67254 0.0
H342 H 0.55454 0.42246 0.65091 0.0
H343 H 0.55794 0.43043 0.69428 0.0
C344 C 0.94814 0.67086 0.26953 0.0
C345 C 0.90884 0.66596 0.2758 0.0
C346 C 0.95907 0.65414 0.24275 0.0
C347 C 0.92998 0.63172 0.22152 0.0
C348 C 0.89003 0.62584 0.2284 0.0
C349 C 0.87995 0.64326 0.2553 0.0
C350 C 1.00195 0.66154 0.23653 0.0
C351 C 0.85796 0.60196 0.2068 0.0
C352 C 0.96205 0.62023 0.13459 0.0
C353 C 0.97001 0.58809 0.13644 0.0
C354 C 0.94825 0.63423 0.16172 0.0
C355 C 0.94168 0.61563 0.19164 0.0
C356 C 0.94849 0.58264 0.19336 0.0
C357 C 0.9627 0.56944 0.16596 0.0
C358 C 0.9418 0.66958 0.15861 0.0
C359 C 0.94154 0.56156 0.22444 0.0
H360 H 0.97058 0.6889 0.28501 0.0
H361 H 0.84954 0.63987 0.25974 0.0
H362 H 0.0083 0.63622 0.23503 0.0
H363 H 0.00974 0.67503 0.21279 0.0
H364 H 0.02094 0.6786 0.25584 0.0
H365 H 0.82846 0.59797 0.21667 0.0
H366 H 0.85961 0.61373 0.18222 0.0
H367 H 0.86177 0.57563 0.20383 0.0
H368 H 0.96759 0.63505 0.11209 0.0
H369 H 0.96848 0.54454 0.16786 0.0
H370 H 0.9621 0.68933 0.17538 0.0
H371 H 0.91164 0.66703 0.1658 0.0
H372 H 0.94656 0.68004 0.13343 0.0
H373 H 0.96215 0.57672 0.24372 0.0
H374 H 0.94547 0.53527 0.22128 0.0
H375 H 0.91153 0.5573 0.23316 0.0
C376 C 0.40429 0.21222 0.20053 0.0
C377 C 0.42431 0.24901 0.20203 0.0
C378 C 0.42042 0.18909 0.18501 0.0
C379 C 0.45731 0.20306 0.17021 0.0
C380 C 0.47841 0.23995 0.17264 0.0
C381 C 0.46166 0.26251 0.18859 0.0
C382 C 0.39697 0.14991 0.18297 0.0
C383 C 0.51784 0.25579 0.15713 0.0
C384 C 0.50482 0.13625 0.14203 0.0
C385 C 0.4922 0.13093 0.10938 0.0
C386 C 0.49459 0.16037 0.16209 0.0
C387 C 0.47139 0.17962 0.14908 0.0
C388 C 0.45945 0.17497 0.11596 0.0
C389 C 0.4699 0.15067 0.09659 0.0
C390 C 0.50774 0.16463 0.19734 0.0
C391 C 0.43486 0.19513 0.10108 0.0
H392 H 0.37515 0.20152 0.21033 0.0
H393 H 0.47755 0.29082 0.19004 0.0
H394 H 0.38712 0.14254 0.15742 0.0
H395 H 0.41528 0.13373 0.19027 0.0
H396 H 0.37082 0.14278 0.19865 0.0
H397 H 0.53228 0.28414 0.16419 0.0
H398 H 0.53732 0.24059 0.16407 0.0
H399 H 0.5143 0.25403 0.13023 0.0
H400 H 0.52222 0.12123 0.15206 0.0
H401 H 0.46032 0.14709 0.07132 0.0
H402 H 0.48193 0.15479 0.21323 0.0
H403 H 0.52251 0.19315 0.20346 0.0
H404 H 0.52802 0.14979 0.20307 0.0
H405 H 0.40615 0.18758 0.11323 0.0
H406 H 0.42968 0.18977 0.07455 0.0
H407 H 0.44933 0.22416 0.10491 0.0
C408 C 0.11036 0.86217 0.69809 0.0
C409 C 0.09543 0.83078 0.67975 0.0
C410 C 0.10129 0.89266 0.68959 0.0
C411 C 0.07707 0.8915 0.66197 0.0
C412 C 0.06074 0.85919 0.64424 0.0
C413 C 0.07022 0.82915 0.65338 0.0
C414 C 0.11913 0.9265 0.70916 0.0
C415 C 0.03488 0.85684 0.61461 0.0
C416 C 0.03323 0.9639 0.6435 0.0
C417 C 0.05832 0.98304 0.61927 0.0
C418 C 0.0397 0.93475 0.65865 0.0
C419 C 0.07206 0.9247 0.64941 0.0
C420 C 0.09849 0.94504 0.62616 0.0
C421 C 0.09128 0.97389 0.61139 0.0
C422 C 0.01098 0.91378 0.68343 0.0
C423 C 0.13352 0.93541 0.61575 0.0
H424 H 0.13009 0.86324 0.71842 0.0
H425 H 0.05895 0.80471 0.63921 0.0
H426 H 0.14135 0.94618 0.69438 0.0
H427 H 0.09651 0.93844 0.71543 0.0
H428 H 0.13343 0.92193 0.73199 0.0
H429 H 0.02194 0.82914 0.60521 0.0
H430 H 0.01088 0.8672 0.62042 0.0
H431 H 0.05221 0.87358 0.59496 0.0
H432 H 1.00763 0.97072 0.64969 0.0
H433 H 0.11105 0.98872 0.59293 0.0
H434 H 0.02661 0.90986 0.7057 0.0
H435 H 0.99459 0.88702 0.6733 0.0
H436 H 0.98967 0.92705 0.69034 0.0
H437 H 0.15115 0.93311 0.63735 0.0
H438 H 0.15262 0.95531 0.59902 0.0
H439 H 0.12356 0.90912 0.60319 0.0
C440 C 0.74005 0.45125 0.94223 0.0
C441 C 0.74303 0.43959 0.91035 0.0
C442 C 0.77356 0.46811 0.9615 0.0
C443 C 0.81113 0.47279 0.94893 0.0
C444 C 0.8143 0.46232 0.91627 0.0
C445 C 0.78024 0.4461 0.89732 0.0
C446 C 0.76865 0.47952 0.99582 0.0
C447 C 0.85362 0.46647 0.9019 0.0
C448 C 0.90273 0.53643 0.99066 0.0
C449 C 0.91577 0.51329 1.00973 0.0
C450 C 0.86846 0.52381 0.97134 0.0
C451 C 0.84686 0.48695 0.97041 0.0
C452 C 0.85963 0.46349 0.9899 0.0
C453 C 0.89364 0.47697 1.00953 0.0
C454 C 0.85558 0.54995 0.9517 0.0
C455 C 0.83781 0.42397 0.98945 0.0
H456 H 0.71131 0.44597 0.95249 0.0
H457 H 0.78267 0.43652 0.87294 0.0
H458 H 0.77777 0.46266 1.01341 0.0
H459 H 0.78764 0.50744 1.00028 0.0
H460 H 0.73792 0.47731 1.00083 0.0
H461 H 0.85137 0.45887 0.87569 0.0
H462 H 0.87339 0.49438 0.9046 0.0
H463 H 0.86736 0.4495 0.91531 0.0
H464 H 0.9194 0.56461 0.9908 0.0
H465 H 0.90358 0.45886 0.02395 0.0
H466 H 0.82499 0.54734 0.95754 0.0
H467 H 0.85626 0.54399 0.92534 0.0
H468 H 0.87444 0.57793 0.95633 0.0
H469 H 0.80717 0.4187 0.99698 0.0
H470 H 0.85148 0.40925 1.00585 0.0
H471 H 0.83684 0.4133 0.96431 0.0
C472 C 0.76808 0.66138 0.39364 0.0
C473 C 0.80435 0.67435 0.40991 0.0
C474 C 0.73367 0.64319 0.41064 0.0
C475 C 0.73557 0.63776 0.44469 0.0
C476 C 0.77255 0.64874 0.46066 0.0
C477 C 0.80631 0.66684 0.44314 0.0
C478 C 0.695 0.63175 0.39253 0.0
C479 C 0.77629 0.64335 0.49675 0.0
C480 C 0.64825 0.63503 0.49701 0.0
C481 C 0.63099 0.59856 0.50326 0.0
C482 C 0.68183 0.64789 0.47778 0.0
C483 C 0.69894 0.62384 0.46426 0.0
C484 C 0.68176 0.58699 0.47048 0.0
C485 C 0.64808 0.57482 0.4898 0.0
C486 C 0.69912 0.68741 0.47203 0.0
C487 C 0.69893 0.56037 0.45668 0.0
H488 H 0.76623 0.66736 0.36808 0.0
H489 H 0.83428 0.67667 0.45585 0.0
H490 H 0.67777 0.60384 0.3984 0.0
H491 H 0.67776 0.64866 0.40031 0.0
H492 H 0.69872 0.63402 0.36573 0.0
H493 H 0.80725 0.65006 0.50486 0.0
H494 H 0.76306 0.66045 0.51044 0.0
H495 H 0.76022 0.61536 0.50326 0.0
H496 H 0.63541 0.65372 0.50707 0.0
H497 H 0.63505 0.54656 0.49421 0.0
H498 H 0.70038 0.69276 0.44551 0.0
H499 H 0.72952 0.69755 0.48177 0.0
H500 H 0.68203 0.70257 0.48373 0.0
H501 H 0.69861 0.56137 0.42969 0.0
H502 H 0.68264 0.53277 0.46429 0.0
H503 H 0.72987 0.56714 0.46471 0.0
C504 C 0.3186 0.40712 0.17162 0.0
C505 C 0.317 0.37446 0.1848 0.0
C506 C 0.28412 0.41433 0.16427 0.0
C507 C 0.24744 0.38807 0.17017 0.0
C508 C 0.24595 0.35523 0.18415 0.0
C509 C 0.28092 0.34882 0.1913 0.0
C510 C 0.28689 0.44968 0.1495 0.0
C511 C 0.20747 0.3266 0.19079 0.0
C512 C 0.15801 0.41734 0.17297 0.0
C513 C 0.14269 0.40896 0.14128 0.0
C514 C 0.1919 0.41038 0.18286 0.0
C515 C 0.21072 0.39448 0.16056 0.0
C516 C 0.19494 0.38534 0.12874 0.0
C517 C 0.16119 0.39282 0.11945 0.0
C518 C 0.20801 0.42071 0.21691 0.0
C519 C 0.21399 0.36806 0.10436 0.0
H520 H 0.34678 0.42676 0.16655 0.0
H521 H 0.28007 0.32349 0.20141 0.0
H522 H 0.27364 0.44539 0.12467 0.0
H523 H 0.27022 0.46297 0.16422 0.0
H524 H 0.31759 0.46779 0.14783 0.0
H525 H 0.2114 0.30321 0.20302 0.0
H526 H 0.18916 0.33736 0.20635 0.0
H527 H 0.19116 0.31757 0.16755 0.0
H528 H 0.14407 0.43025 0.18978 0.0
H529 H 0.14919 0.38602 0.09503 0.0
H530 H 0.23764 0.44088 0.21577 0.0
H531 H 0.21096 0.39724 0.22963 0.0
H532 H 0.1892 0.43182 0.2316 0.0
H533 H 0.24405 0.38601 0.09943 0.0
H534 H 0.1974 0.3617 0.08092 0.0
H535 H 0.21647 0.34314 0.11446 0.0
C536 C 0.6404 0.28922 0.89327 0.0
C537 C 0.63971 0.3207 0.90829 0.0
C538 C 0.62611 0.25628 0.90921 0.0
C539 C 0.60984 0.25456 0.94064 0.0
C540 C 0.60811 0.28621 0.95548 0.0
C541 C 0.62354 0.3189 0.93934 0.0
C542 C 0.62942 0.22346 0.89277 0.0
C543 C 0.59019 0.28561 0.98854 0.0
C544 C 0.5432 0.16432 0.97046 0.0
C545 C 0.56762 0.1548 0.99269 0.0
C546 C 0.5564 0.19672 0.95357 0.0
C547 C 0.59536 0.21987 0.95829 0.0
C548 C 0.62037 0.21001 0.98023 0.0
C549 C 0.60606 0.17791 0.99747 0.0
C550 C 0.52841 0.2065 0.93112 0.0
C551 C 0.66234 0.23337 0.98549 0.0
H552 H 0.65332 0.29058 0.86945 0.0
H553 H 0.62289 0.34317 0.95098 0.0
H554 H 0.64758 0.212 0.90808 0.0
H555 H 0.60014 0.20289 0.8901 0.0
H556 H 0.64268 0.22918 0.86831 0.0
H557 H 0.58901 0.31209 0.99591 0.0
H558 H 0.5601 0.26612 0.98849 0.0
H559 H 0.6074 0.27692 1.00716 0.0
H560 H 0.51334 0.14681 0.96685 0.0
H561 H 0.6252 0.1707 1.01446 0.0
H562 H 0.54001 0.21043 0.90606 0.0
H563 H 0.5254 0.23206 0.93925 0.0
H564 H 0.49896 0.18584 0.93035 0.0
H565 H 0.67758 0.23858 0.96184 0.0
H566 H 0.67851 0.22121 1.00221 0.0
H567 H 0.66345 0.25946 0.99582 0.0
C568 C 0.94409 0.80999 0.42104 0.0
C569 C 0.90403 0.7958 0.41355 0.0
C570 C 0.95963 0.8422 0.43871 0.0
C571 C 0.93471 0.86121 0.44846 0.0
C572 C 0.89437 0.84734 0.4402 0.0
C573 C 0.8795 0.81469 0.42323 0.0
C574 C 1.00259 0.85551 0.44755 0.0
C575 C 0.86683 0.86696 0.44938 0.0
C576 C 0.96334 0.92697 0.52009 0.0
C577 C 0.97886 0.95976 0.50438 0.0
C578 C 0.94968 0.89477 0.50227 0.0
C579 C 0.95055 0.89525 0.46775 0.0
C580 C 0.96592 0.92833 0.45176 0.0
C581 C 0.98033 0.96007 0.47023 0.0
C582 C 0.93446 0.86017 0.52045 0.0
C583 C 0.96668 0.93026 0.41506 0.0
H584 H 0.96309 0.79534 0.41384 0.0
H585 H 0.84857 0.80397 0.41728 0.0
H586 H 0.01667 0.88249 0.43757 0.0
H587 H 1.00636 0.85772 0.47443 0.0
H588 H 0.01805 0.83768 0.43823 0.0
H589 H 0.83668 0.85351 0.43985 0.0
H590 H 0.86574 0.86909 0.47627 0.0
H591 H 0.87762 0.89444 0.43981 0.0
H592 H 0.96249 0.92639 0.54647 0.0
H593 H 0.99214 0.98527 0.45786 0.0
H594 H 0.95051 0.84211 0.51303 0.0
H595 H 0.90317 0.8466 0.51418 0.0
H596 H 0.93742 0.86415 0.54728 0.0
H597 H 0.98419 0.91451 0.40523 0.0
H598 H 0.97918 0.95802 0.40629 0.0
H599 H 0.93658 0.91845 0.40495 0.0
C600 C 0.25767 0.75189 0.66619 0.0
C601 C 0.24973 0.75095 0.69958 0.0
C602 C 0.28778 0.7406 0.65431 0.0
C603 C 0.31056 0.72825 0.67638 0.0
C604 C 0.30186 0.72614 0.70995 0.0
C605 C 0.27146 0.73736 0.72111 0.0
C606 C 0.29602 0.74297 0.61829 0.0
C607 C 0.32543 0.71304 0.73424 0.0
C608 C 0.3722 0.6751 0.64428 0.0
C609 C 0.40932 0.70122 0.64274 0.0
C610 C 0.33973 0.68353 0.65496 0.0
C611 C 0.34452 0.71888 0.66458 0.0
C612 C 0.38192 0.74533 0.66333 0.0
C613 C 0.41385 0.7362 0.65236 0.0
C614 C 0.30034 0.65459 0.65598 0.0
C615 C 0.38821 0.78331 0.67356 0.0
H616 H 0.24129 0.76269 0.64944 0.0
H617 H 0.26506 0.73602 0.74688 0.0
H618 H 0.32537 0.76268 0.61409 0.0
H619 H 0.29629 0.71695 0.60878 0.0
H620 H 0.27409 0.75101 0.60414 0.0
H621 H 0.31384 0.7116 0.7593 0.0
H622 H 0.32565 0.68627 0.72696 0.0
H623 H 0.3562 0.73114 0.73461 0.0
H624 H 0.36857 0.64786 0.63744 0.0
H625 H 0.44232 0.75659 0.6509 0.0
H626 H 0.27893 0.662 0.64063 0.0
H627 H 0.28927 0.65156 0.68123 0.0
H628 H 0.30148 0.6285 0.64733 0.0
H629 H 0.36962 0.79442 0.6584 0.0
H630 H 0.41915 0.80065 0.67129 0.0
H631 H 0.37936 0.78418 0.69923 0.0
C632 C 0.76762 0.86962 0.84132 0.0
C633 C 0.73025 0.84395 0.84164 0.0
C634 C 0.78184 0.8891 0.81325 0.0
C635 C 0.75799 0.88288 0.78482 0.0
C636 C 0.71941 0.85839 0.78548 0.0
C637 C 0.70594 0.83914 0.81399 0.0
C638 C 0.82305 0.91519 0.81362 0.0
C639 C 0.69307 0.85137 0.75569 0.0
C640 C 0.79426 0.95324 0.72025 0.0
C641 C 0.81635 0.93825 0.70074 0.0
C642 C 0.77329 0.93472 0.74678 0.0
C643 C 0.77469 0.90053 0.75406 0.0
C644 C 0.7955 0.88462 0.73362 0.0
C645 C 0.81606 0.90367 0.70717 0.0
C646 C 0.75132 0.9525 0.76795 0.0
C647 C 0.79756 0.84812 0.74056 0.0
H648 H 0.7862 0.87377 0.8629 0.0
H649 H 0.67708 0.81919 0.81417 0.0
H650 H 0.84119 0.90597 0.79651 0.0
H651 H 0.82319 0.94164 0.80527 0.0
H652 H 0.83694 0.91833 0.83822 0.0
H653 H 0.66268 0.83448 0.76118 0.0
H654 H 0.69249 0.87677 0.7452 0.0
H655 H 0.70462 0.8377 0.73678 0.0
H656 H 0.79466 0.9801 0.71565 0.0
H657 H 0.83253 0.89174 0.69184 0.0
H658 H 0.76657 0.95968 0.79187 0.0
H659 H 0.72144 0.93403 0.77264 0.0
H660 H 0.74907 0.97706 0.75676 0.0
H661 H 0.81388 0.84891 0.76374 0.0
H662 H 0.81231 0.83838 0.7209 0.0
H663 H 0.76777 0.82871 0.74356 0.0
C664 C 0.82942 0.29236 0.30776 0.0
C665 C 0.82725 0.2691 0.33365 0.0
C666 C 0.80801 0.2802 0.27876 0.0
C667 C 0.78363 0.24418 0.27604 0.0
C668 C 0.7802 0.22109 0.30275 0.0
C669 C 0.80226 0.23381 0.33114 0.0
C670 C 0.8126 0.30545 0.25068 0.0
C671 C 0.75405 0.18265 0.30106 0.0
C672 C 0.70333 0.20927 0.21229 0.0
C673 C 0.71997 0.19039 0.19143 0.0
C674 C 0.72445 0.22867 0.23907 0.0
C675 C 0.76328 0.22958 0.24485 0.0
C676 C 0.78111 0.21266 0.22266 0.0
C677 C 0.75918 0.19306 0.19637 0.0
C678 C 0.70439 0.2463 0.26225 0.0
C679 C 0.82264 0.21334 0.22781 0.0
H680 H 0.84886 0.31966 0.3098 0.0
H681 H 0.80026 0.21601 0.35143 0.0
H682 H 0.82739 0.29686 0.23036 0.0
H683 H 0.78358 0.30489 0.24138 0.0
H684 H 0.83003 0.33324 0.25762 0.0
H685 H 0.75284 0.16891 0.32468 0.0
H686 H 0.72393 0.1809 0.29374 0.0
H687 H 0.76485 0.1682 0.28231 0.0
H688 H 0.67334 0.20803 0.20826 0.0
H689 H 0.77227 0.17836 0.18067 0.0
H690 H 0.72335 0.27392 0.268 0.0
H691 H 0.69883 0.23151 0.28549 0.0
H692 H 0.67605 0.24693 0.25224 0.0
H693 H 0.8423 0.24086 0.23301 0.0
H694 H 0.83374 0.20282 0.20632 0.0
H695 H 0.82408 0.19692 0.24919 0.0
C696 C 0.454 0.68532 0.34487 0.0
C697 C 0.41511 0.68004 0.33581 0.0
C698 C 0.46338 0.66762 0.37169 0.0
C699 C 0.43312 0.64381 0.3901 0.0
C700 C 0.39365 0.63773 0.38046 0.0
C701 C 0.38511 0.65611 0.35356 0.0
C702 C 0.50581 0.67524 0.38091 0.0
C703 C 0.36043 0.61243 0.39903 0.0
C704 C 0.46349 0.57911 0.44427 0.0
C705 C 0.46873 0.59604 0.47496 0.0
C706 C 0.45065 0.59361 0.41684 0.0
C707 C 0.44309 0.62618 0.41977 0.0
C708 C 0.44744 0.64299 0.45084 0.0
C709 C 0.45997 0.62772 0.47795 0.0
C710 C 0.44611 0.57445 0.38445 0.0
C711 C 0.44006 0.67781 0.45528 0.0
H712 H 0.47725 0.70423 0.33145 0.0
H713 H 0.35499 0.65234 0.34689 0.0
H714 H 0.5116 0.68714 0.40574 0.0
H715 H 0.51266 0.65012 0.38147 0.0
H716 H 0.5259 0.69374 0.36372 0.0
H717 H 0.33156 0.60893 0.38742 0.0
H718 H 0.36432 0.58605 0.40079 0.0
H719 H 0.36043 0.62258 0.42424 0.0
H720 H 0.46993 0.55459 0.44149 0.0
H721 H 0.46392 0.64122 0.50138 0.0
H722 H 0.46785 0.59089 0.36717 0.0
H723 H 0.41669 0.57045 0.37379 0.0
H724 H 0.45024 0.54815 0.38657 0.0
H725 H 0.46128 0.69874 0.44082 0.0
H726 H 0.44276 0.68664 0.48117 0.0
H727 H 0.41039 0.67536 0.44611 0.0
C728 C 0.1701 0.46033 0.86336 0.0
C729 C 0.14585 0.45195 0.83556 0.0
C730 C 0.1602 0.47694 0.89084 0.0
C731 C 0.12488 0.48498 0.89076 0.0
C732 C 0.10115 0.47773 0.86209 0.0
C733 C 0.11188 0.46128 0.83496 0.0
C734 C 0.1866 0.48424 0.92058 0.0
C735 C 0.06326 0.48558 0.86066 0.0
C736 C 0.07313 0.48543 0.97151 0.0
C737 C 0.0815 0.52192 0.97802 0.0
C738 C 0.08747 0.47327 0.94365 0.0
C739 C 0.11103 0.49803 0.92134 0.0
C740 C 0.12019 0.53493 0.92799 0.0
C741 C 0.10537 0.5464 0.95611 0.0
C742 C 0.07681 0.43372 0.93784 0.0
C743 C 0.14523 0.56235 0.90511 0.0
H744 H 0.19602 0.45255 0.86416 0.0
H745 H 0.09265 0.45423 0.81375 0.0
H746 H 0.19267 0.51196 0.92936 0.0
H747 H 0.17181 0.46631 0.94051 0.0
H748 H 0.21481 0.48006 0.91572 0.0
H749 H 0.04979 0.48124 0.83587 0.0
H750 H 0.04224 0.4681 0.87786 0.0
H751 H 0.06814 0.51348 0.86829 0.0
H752 H 0.05489 0.46608 0.98809 0.0
H753 H 0.11214 0.57463 0.96067 0.0
H754 H 0.10367 0.42652 0.93548 0.0
H755 H 0.05999 0.4261 0.91464 0.0
H756 H 0.05905 0.41787 0.9578 0.0
H757 H 0.17351 0.55793 0.90148 0.0
H758 H 0.15112 0.58996 0.91425 0.0
H759 H 0.1305 0.55957 0.88091 0.0
C760 C 0.5932 0.84297 0.96894 0.0
C761 C 0.60363 0.83806 0.93712 0.0
C762 C 0.58205 0.87236 0.97719 0.0
C763 C 0.58144 0.89729 0.9529 0.0
C764 C 0.59135 0.89193 0.92047 0.0
C765 C 0.6025 0.86226 0.91295 0.0
C766 C 0.57176 0.87713 1.01205 0.0
C767 C 0.59091 0.91786 0.89395 0.0
C768 C 0.52291 0.95699 0.97501 0.0
C769 C 0.55209 0.98696 0.98804 0.0
C770 C 0.53223 0.92823 0.96198 0.0
C771 C 0.57164 0.92946 0.962 0.0
C772 C 0.60142 0.96039 0.97349 0.0
C773 C 0.5913 0.98878 0.98634 0.0
C774 C 0.49967 0.8958 0.94975 0.0
C775 C 0.64383 0.96277 0.97381 0.0
H776 H 0.59443 0.82412 0.98753 0.0
H777 H 0.61089 0.85827 0.88836 0.0
H778 H 0.59245 0.90229 1.02227 0.0
H779 H 0.54205 0.87917 1.01308 0.0
H780 H 0.5727 0.85483 0.02776 0.0
H781 H 0.59757 0.90894 0.86971 0.0
H782 H 0.5619 0.92143 0.89256 0.0
H783 H 0.61278 0.94427 0.89973 0.0
H784 H 0.49253 0.95534 0.97601 0.0
H785 H 0.61411 0.01185 0.99616 0.0
H786 H 0.49653 0.8733 0.96649 0.0
H787 H 0.50665 0.88758 0.92538 0.0
H788 H 0.47121 0.90051 0.94812 0.0
H789 H 0.64827 0.94343 0.99145 0.0
H790 H 0.66369 0.98978 0.98074 0.0
H791 H 0.65224 0.95569 0.94951 0.0
C792 C 0.90071 0.20786 0.41091 0.0
C793 C 0.91636 0.24473 0.41677 0.0
C794 C 0.91764 0.18435 0.42479 0.0
C795 C 0.95011 0.19772 0.44622 0.0
C796 C 0.96661 0.23481 0.45189 0.0
C797 C 0.94998 0.25792 0.43665 0.0
C798 C 0.89975 0.145 0.4175 0.0
C799 C 1.00072 0.24998 0.47522 0.0
C800 C 0.95791 0.13285 0.51075 0.0
C801 C 0.98893 0.12278 0.49939 0.0
C802 C 0.94584 0.15805 0.49412 0.0
C803 C 0.96441 0.17255 0.46482 0.0
C804 C 0.99553 0.16213 0.45302 0.0
C805 C 1.00794 0.13776 0.47084 0.0
C806 C 0.91332 0.16926 0.50802 0.0
C807 C 0.0151 0.17612 0.42131 0.0
H808 H 0.8743 0.19694 0.39631 0.0
H809 H 0.96298 0.2863 0.44087 0.0
H810 H 0.9228 0.13357 0.41121 0.0
H811 H 0.88482 0.13105 0.43941 0.0
H812 H 0.87809 0.13944 0.3971 0.0
H813 H 0.01138 0.27953 0.47575 0.0
H814 H 0.99183 0.24031 0.50017 0.0
H815 H 0.02525 0.24072 0.46849 0.0
H816 H 0.94368 0.12165 0.53316 0.0
H817 H 0.03194 0.12985 0.46212 0.0
H818 H 0.88777 0.16136 0.49109 0.0
H819 H 0.92304 0.19864 0.51078 0.0
H820 H 0.90373 0.15715 0.5321 0.0
H821 H 0.99322 0.16866 0.4011 0.0
H822 H 0.03908 0.16558 0.41569 0.0
H823 H 0.02724 0.20558 0.42216 0.0
C824 C 0.31252 0.67033 0.16751 0.0
C825 C 0.31153 0.6797 0.20043 0.0
C826 C 0.27849 0.64986 0.15058 0.0
C827 C 0.24228 0.63842 0.16683 0.0
C828 C 0.24158 0.64565 0.20067 0.0
C829 C 0.27622 0.66615 0.21709 0.0
C830 C 0.28092 0.64263 0.11467 0.0
C831 C 0.20376 0.63386 0.21906 0.0
C832 C 0.15225 0.63172 0.11486 0.0
C833 C 0.13548 0.59494 0.10917 0.0
C834 C 0.18658 0.64593 0.13378 0.0
C835 C 0.20495 0.62294 0.14758 0.0
C836 C 0.18825 0.58575 0.14202 0.0
C837 C 0.15379 0.57221 0.12289 0.0
C838 C 0.2033 0.68574 0.13887 0.0
C839 C 0.20681 0.56028 0.15622 0.0
H840 H 0.3398 0.68052 0.15455 0.0
H841 H 0.27515 0.67348 0.24244 0.0
H842 H 0.26512 0.61423 0.10882 0.0
H843 H 0.26668 0.65866 0.10048 0.0
H844 H 0.31161 0.64946 0.10657 0.0
H845 H 0.20871 0.6372 0.24581 0.0
H846 H 0.18542 0.64984 0.21124 0.0
H847 H 0.18703 0.60555 0.21353 0.0
H848 H 0.13851 0.64964 0.10454 0.0
H849 H 0.1411 0.54374 0.11886 0.0
H850 H 0.23322 0.696 0.12891 0.0
H851 H 0.20563 0.69223 0.16529 0.0
H852 H 0.1852 0.69996 0.12696 0.0
H853 H 0.23682 0.56636 0.1468 0.0
H854 H 0.18982 0.53208 0.1503 0.0
H855 H 0.2094 0.56358 0.18309 0.0
C856 C 0.28548 0.43847 0.71177 0.0
C857 C 0.24836 0.43959 0.70343 0.0
C858 C 0.31831 0.45587 0.69279 0.0
C859 C 0.31397 0.47486 0.66469 0.0
C860 C 0.27673 0.47734 0.65707 0.0
C861 C 0.24434 0.4594 0.67634 0.0
C862 C 0.35728 0.45239 0.7019 0.0
C863 C 0.27068 0.49754 0.62768 0.0
C864 C 0.40691 0.53925 0.62817 0.0
C865 C 0.41472 0.51888 0.60274 0.0
C866 C 0.37393 0.52565 0.64796 0.0
C867 C 0.34794 0.4906 0.64255 0.0
C868 C 0.35511 0.47015 0.61646 0.0
C869 C 0.38824 0.48454 0.59685 0.0
C870 C 0.36733 0.54865 0.67509 0.0
C871 C 0.32821 0.43269 0.60971 0.0
H872 H 0.28841 0.42237 0.73218 0.0
H873 H 0.21548 0.45955 0.66941 0.0
H874 H 0.36626 0.43721 0.68262 0.0
H875 H 0.38006 0.47905 0.70365 0.0
H876 H 0.35638 0.43856 0.72544 0.0
H877 H 0.24095 0.49971 0.62675 0.0
H878 H 0.29254 0.52472 0.62771 0.0
H879 H 0.27496 0.48385 0.60517 0.0
H880 H 0.42685 0.56594 0.63291 0.0
H881 H 0.39388 0.46849 0.5774 0.0
H882 H 0.36945 0.53644 0.69895 0.0
H883 H 0.33752 0.5504 0.67301 0.0
H884 H 0.38889 0.57602 0.67497 0.0
H885 H 0.32803 0.41576 0.6311 0.0
H886 H 0.33705 0.42062 0.588 0.0
H887 H 0.29784 0.43251 0.60579 0.0
C888 C 0.80159 0.79027 0.9302 0.0
C889 C 0.76359 0.76711 0.92372 0.0
C890 C 0.83082 0.77746 0.94164 0.0
C891 C 0.82187 0.74053 0.9466 0.0
C892 C 0.7833 0.71705 0.94087 0.0
C893 C 0.75447 0.73069 0.9296 0.0
C894 C 0.87149 0.80339 0.94779 0.0
C895 C 0.7728 0.6775 0.9458 0.0
C896 C 0.90785 0.70676 0.94305 0.0
C897 C 0.91605 0.70409 0.97618 0.0
C898 C 0.87664 0.71779 0.93308 0.0
C899 C 0.85334 0.7266 0.95685 0.0
C900 C 0.86135 0.72375 0.99033 0.0
C901 C 0.89258 0.71241 0.9996 0.0
C902 C 0.86882 0.72033 0.89713 0.0
C903 C 0.83738 0.73328 1.01635 0.0
H904 H 0.8085 0.81854 0.92609 0.0
H905 H 0.72513 0.71278 0.92443 0.0
H906 H 0.88115 0.80077 0.9731 0.0
H907 H 0.89237 0.79724 0.93123 0.0
H908 H 0.87319 0.83143 0.94396 0.0
H909 H 0.74118 0.66304 0.94151 0.0
H910 H 0.78977 0.66665 0.92892 0.0
H911 H 0.7807 0.67208 0.97094 0.0
H912 H 0.92561 0.69982 0.92491 0.0
H913 H 0.89907 0.71061 0.02524 0.0
H914 H 0.87256 0.74829 0.89084 0.0
H915 H 0.83817 0.70413 0.89096 0.0
H916 H 0.88865 0.71111 0.88179 0.0
H917 H 0.84029 0.76181 1.0145 0.0
H918 H 0.84652 0.72834 0.04128 0.0
H919 H 0.80599 0.71765 1.01272 0.0
C920 C 0.4122 0.80262 0.15937 0.0
C921 C 0.40726 0.80316 0.19327 0.0
C922 C 0.42535 0.83427 0.14136 0.0
C923 C 0.43403 0.86762 0.15746 0.0
C924 C 0.4294 0.86843 0.19167 0.0
C925 C 0.41613 0.83633 0.20911 0.0
C926 C 0.43007 0.83199 0.10502 0.0
C927 C 0.43832 0.9033 0.20988 0.0
C928 C 0.50281 0.94968 0.11565 0.0
C929 C 0.47684 0.96532 0.10188 0.0
C930 C 0.48932 0.91819 0.13382 0.0
C931 C 0.44871 0.90157 0.13855 0.0
C932 C 0.42228 0.91718 0.12481 0.0
C933 C 0.4366 0.94877 0.10669 0.0
C934 C 0.51863 0.9026 0.14789 0.0
C935 C 0.37878 0.90038 0.12913 0.0
H936 H 0.40606 0.7773 0.14684 0.0
H937 H 0.412 0.83722 0.23514 0.0
H938 H 0.41193 0.84544 0.09212 0.0
H939 H 0.46092 0.846 0.09847 0.0
H940 H 0.42154 0.80406 0.09603 0.0
H941 H 0.43321 0.89952 0.23643 0.0
H942 H 0.46924 0.91992 0.20624 0.0
H943 H 0.41985 0.91831 0.20014 0.0
H944 H 0.53395 0.96202 0.11221 0.0
H945 H 0.41617 0.96043 0.09623 0.0
H946 H 0.51291 0.87535 0.13799 0.0
H947 H 0.51557 0.90037 0.17471 0.0
H948 H 0.54923 0.9189 0.14237 0.0
H949 H 0.3687 0.87305 0.11865 0.0
H950 H 0.36206 0.9159 0.11727 0.0
H951 H 0.37187 0.89808 0.15544 0.0
C952 C 0.14364 0.31666 0.66417 0.0
C953 C 0.148 0.31861 0.69826 0.0
C954 C 0.129 0.28372 0.64763 0.0
C955 C 0.11835 0.25166 0.66548 0.0
C956 C 0.12251 0.25339 0.69989 0.0
C957 C 0.1372 0.28673 0.71582 0.0
C958 C 0.12483 0.28325 0.61099 0.0
C959 C 0.11163 0.21995 0.7199 0.0
C960 C 0.04698 0.16801 0.62552 0.0
C961 C 0.07197 0.15026 0.6141 0.0
C962 C 0.06163 0.20076 0.64235 0.0
C963 C 0.10236 0.21639 0.64814 0.0
C964 C 0.12776 0.19854 0.63692 0.0
C965 C 0.11232 0.16582 0.62003 0.0
C966 C 0.03343 0.21881 0.6537 0.0
C967 C 0.17135 0.21415 0.64259 0.0
H968 H 0.15135 0.34103 0.65033 0.0
H969 H 0.14089 0.28779 0.74207 0.0
H970 H 0.14216 0.26792 0.60004 0.0
H971 H 0.09385 0.26971 0.60371 0.0
H972 H 0.13468 0.31043 0.60063 0.0
H973 H 0.11661 0.22573 0.7464 0.0
H974 H 0.08039 0.20416 0.71568 0.0
H975 H 0.12901 0.20314 0.71222 0.0
H976 H 0.01578 0.15646 0.62111 0.0
H977 H 0.13198 0.15248 0.61139 0.0
H978 H 0.04052 0.24533 0.64228 0.0
H979 H 0.03631 0.22318 0.68045 0.0
H980 H 1.00257 0.20306 0.64762 0.0
H981 H 0.18283 0.24046 0.63072 0.0
H982 H 0.18713 0.19674 0.63293 0.0
H983 H 0.17794 0.21853 0.66904 0.0
C984 C 0.79319 0.37536 0.46677 0.0
C985 C 0.80407 0.36845 0.43563 0.0
C986 C 0.75922 0.38406 0.47133 0.0
C987 C 0.73578 0.3858 0.44396 0.0
C988 C 0.74685 0.37877 0.41235 0.0
C989 C 0.78105 0.3701 0.40856 0.0
C990 C 0.74844 0.3914 0.5054 0.0
C991 C 0.72262 0.38043 0.38265 0.0
C992 C 0.6314 0.37886 0.46304 0.0
C993 C 0.63446 0.41481 0.46485 0.0
C994 C 0.66387 0.3689 0.45507 0.0
C995 C 0.70007 0.39555 0.44867 0.0
C996 C 0.70282 0.4318 0.44912 0.0
C997 C 0.66998 0.44097 0.45721 0.0
C998 C 0.65984 0.32997 0.45484 0.0
C999 C 0.74079 0.46102 0.4422 0.0
H1000 H 0.81122 0.37383 0.48761 0.0
H1001 H 0.78973 0.36453 0.3845 0.0
H1002 H 0.74717 0.41879 0.50704 0.0
H1003 H 0.71899 0.37282 0.51127 0.0
H1004 H 0.76963 0.38859 0.52405 0.0
H1005 H 0.73512 0.37396 0.35985 0.0
H1006 H 0.69246 0.36153 0.38513 0.0
H1007 H 0.72046 0.40745 0.38052 0.0
H1008 H 0.60403 0.35859 0.46907 0.0
H1009 H 0.6722 0.46874 0.45799 0.0
H1010 H 0.67768 0.32463 0.47503 0.0
H1011 H 0.67106 0.32275 0.43177 0.0
H1012 H 0.62906 0.31247 0.45772 0.0
H1013 H 0.7627 0.46158 0.46147 0.0
H1014 H 0.73729 0.48765 0.44127 0.0
H1015 H 0.75271 0.45581 0.41869 0.0
loop_
_geom_bond_atom_site_label_1
_geom_bond_atom_site_label_2
_geom_bond_distance
_geom_bond_site_symmetry_2
_ccdc_geom_bond_type
H0 C3 0.929 . S
H1 C6 0.929 . S
H2 C8 0.930 . S
C3 H0 0.929 . S
C3 C4 1.398 . S
C3 C5 1.396 . S
C4 C3 1.398 . S
C4 C8 1.407 . S
C5 C3 1.396 . S
C5 C6 1.394 . S
C6 H1 0.929 . S
C6 C5 1.394 . S
C6 C7 1.382 . S
C7 C6 1.382 . S
C7 C8 1.392 . S
C7 N9 1.420 . S
C8 H2 0.930 . S
C8 C4 1.407 . S
C8 C7 1.392 . S
N9 C7 1.420 . S
N9 C10 1.244 . S
C10 N9 1.244 . S
H11 C14 0.929 . S
H12 C17 0.929 . S
H13 C19 0.930 . S
C14 H11 0.929 . S
C14 C15 1.398 . S
C14 C16 1.396 . S
C15 C14 1.398 . S
C15 C19 1.407 . S
C16 C14 1.396 . S
C16 C17 1.394 . S
C17 H12 0.929 . S
C17 C16 1.394 . S
C17 C18 1.382 . S
C18 C17 1.382 . S
C18 C19 1.392 . S
C18 N20 1.420 . S
C19 H13 0.930 . S
C19 C15 1.407 . S
C19 C18 1.392 . S
N20 C18 1.420 . S
N20 C21 1.244 . S
C21 N20 1.244 . S
H22 C25 0.929 . S
H23 C28 0.929 . S
H24 C30 0.930 . S
C25 H22 0.929 . S
C25 C26 1.398 . S
C25 C27 1.396 . S
C26 C25 1.398 . S
C26 C30 1.407 . S
C27 C25 1.396 . S
C27 C28 1.394 . S
C28 H23 0.929 . S
C28 C27 1.394 . S
C28 C29 1.382 . S
C29 C28 1.382 . S
C29 C30 1.392 . S
C29 N31 1.420 . S
C30 H24 0.930 . S
C30 C26 1.407 . S
C30 C29 1.392 . S
N31 C29 1.420 . S
N31 C32 1.244 . S
C32 N31 1.244 . S
H33 C36 0.929 . S
H34 C39 0.929 . S
H35 C41 0.930 . S
C36 H33 0.929 . S
C36 C37 1.398 . S
C36 C38 1.396 . S
C37 C36 1.398 . S
C37 C41 1.407 . S
C38 C36 1.396 . S
C38 C39 1.394 . S
C39 H34 0.929 . S
C39 C38 1.394 . S
C39 C40 1.382 . S
C40 C39 1.382 . S
C40 C41 1.392 . S
C40 N42 1.420 . S
C41 H35 0.930 . S
C41 C37 1.407 . S
C41 C40 1.392 . S
N42 C40 1.420 . S
N42 C43 1.244 . S
C43 N42 1.244 . S
H44 C47 0.929 . S
H45 C50 0.929 . S
H46 C52 0.930 . S
C47 H44 0.929 . S
C47 C48 1.398 . S
C47 C49 1.396 . S
C48 C47 1.398 . S
C48 C52 1.407 . S
C49 C47 1.396 . S
C49 C50 1.394 . S
C50 H45 0.929 . S
C50 C49 1.394 . S
C50 C51 1.382 . S
C51 C50 1.382 . S
C51 C52 1.392 . S
C51 N53 1.420 . S
C52 H46 0.930 . S
C52 C48 1.407 . S
C52 C51 1.392 . S
N53 C51 1.420 . S
N53 C54 1.244 . S
C54 N53 1.244 . S
H55 C58 0.929 . S
H56 C61 0.929 . S
H57 C63 0.930 . S
C58 H55 0.929 . S
C58 C59 1.398 . S
C58 C60 1.396 . S
C59 C58 1.398 . S
C59 C63 1.407 . S
C60 C58 1.396 . S
C60 C61 1.394 . S
C61 H56 0.929 . S
C61 C60 1.394 . S
C61 C62 1.382 . S
C62 C61 1.382 . S
C62 C63 1.392 . S
C62 N64 1.420 . S
C63 H57 0.930 . S
C63 C59 1.407 . S
C63 C62 1.392 . S
N64 C62 1.420 . S
N64 C65 1.244 . S
C65 N64 1.244 . S
H66 C69 0.929 . S
H67 C72 0.929 . S
H68 C74 0.930 . S
C69 H66 0.929 . S
C69 C70 1.398 . S
C69 C71 1.396 . S
C70 C69 1.398 . S
C70 C74 1.407 . S
C71 C69 1.396 . S
C71 C72 1.394 . S
C72 H67 0.929 . S
C72 C71 1.394 . S
C72 C73 1.382 . S
C73 C72 1.382 . S
C73 C74 1.392 . S
C73 N75 1.420 . S
C74 H68 0.930 . S
C74 C70 1.407 . S
C74 C73 1.392 . S
N75 C73 1.420 . S
N75 C76 1.244 . S
C76 N75 1.244 . S
H77 C80 0.929 . S
H78 C83 0.929 . S
H79 C85 0.930 . S
C80 H77 0.929 . S
C80 C81 1.398 . S
C80 C82 1.396 . S
C81 C80 1.398 . S
C81 C85 1.407 . S
C82 C80 1.396 . S
C82 C83 1.394 . S
C83 H78 0.929 . S
C83 C82 1.394 . S
C83 C84 1.382 . S
C84 C83 1.382 . S
C84 C85 1.392 . S
C84 N86 1.420 . S
C85 H79 0.930 . S
C85 C81 1.407 . S
C85 C84 1.392 . S
N86 C84 1.420 . S
N86 C87 1.244 . S
C87 N86 1.244 . S
Dy88 O91 2.307 1_545 S
Dy88 O93 2.395 . S
Dy88 O94 2.379 . S
Dy88 O96 2.339 1_545 S
Dy88 O98 2.298 . S
Dy88 O102 2.275 . S
Dy88 C110 2.738 . S
Dy89 O92 2.298 1_645 S
Dy89 O95 2.275 1_545 S
Dy89 O97 2.307 . S
Dy89 O99 2.395 1_545 S
Dy89 O100 2.379 . S
Dy89 O103 2.339 1_655 S
Dy89 C119 2.738 1_545 S
C90 O102 1.254 . S
C90 O103 1.257 . S
O91 Dy88 2.307 1_565 S
O91 C101 1.266 . S
O92 Dy89 2.298 1_465 S
O92 C101 1.236 . S
O93 Dy88 2.395 . S
O93 C110 1.255 . S
O94 Dy88 2.379 . S
O94 C110 1.249 . S
O95 Dy89 2.275 1_565 S
O95 C111 1.254 . S
O96 Dy88 2.339 1_565 S
O96 C111 1.257 1_455 S
O97 Dy89 2.307 . S
O97 C112 1.266 . S
O98 Dy88 2.298 . S
O98 C112 1.236 1_455 S
O99 Dy89 2.395 1_565 S
O99 C119 1.255 . S
O100 Dy89 2.379 . S
O100 C119 1.249 1_545 S
C101 O91 1.266 . S
C101 O92 1.236 . S
O102 Dy88 2.275 . S
O102 C90 1.254 . S
O103 Dy89 2.339 1_455 S
O103 C90 1.257 . S
C104 C107 1.344 . S
C104 C108 1.328 . S
C104 C110 1.516 . S
C105 C106 1.304 . S
C105 C109 1.323 . S
C106 C105 1.304 . S
C106 C107 1.371 . S
C106 H120 0.930 . S
C107 C104 1.344 . S
C107 C106 1.371 . S
C107 H121 0.931 . S
C108 C104 1.328 . S
C108 C109 1.433 . S
C108 H122 0.931 . S
C109 C105 1.323 . S
C109 C108 1.433 . S
C109 H123 0.933 . S
C110 Dy88 2.738 . S
C110 O93 1.255 . S
C110 O94 1.249 . S
C110 C104 1.516 . S
C111 O95 1.254 . S
C111 O96 1.257 1_655 S
C112 O97 1.266 . S
C112 O98 1.236 1_655 S
C113 C116 1.344 . S
C113 C117 1.328 . S
C113 C119 1.516 . S
C114 C115 1.304 . S
C114 C118 1.323 . S
C115 C114 1.304 . S
C115 C116 1.371 . S
C115 H124 0.930 . S
C116 C113 1.344 . S
C116 C115 1.371 . S
C116 H125 0.931 . S
C117 C113 1.328 . S
C117 C118 1.433 . S
C117 H126 0.931 . S
C118 C114 1.323 . S
C118 C117 1.433 . S
C118 H127 0.933 . S
C119 Dy89 2.738 1_565 S
C119 O99 1.255 . S
C119 O100 1.249 1_565 S
C119 C113 1.516 . S
H120 C106 0.930 . S
H121 C107 0.931 . S
H122 C108 0.931 . S
H123 C109 0.933 . S
H124 C115 0.930 . S
H125 C116 0.931 . S
H126 C117 0.931 . S
H127 C118 0.933 . S
Dy128 O131 2.307 . S
Dy128 O133 2.395 1_544 S
Dy128 O134 2.379 1_554 S
Dy128 O136 2.339 1_554 S
Dy128 O138 2.298 1_544 S
Dy128 O142 2.275 1_545 S
Dy128 C150 2.738 1_544 S
Dy129 O132 2.298 . S
Dy129 O135 2.275 . S
Dy129 O137 2.307 1_545 S
Dy129 O139 2.395 . S
Dy129 O140 2.379 . S
Dy129 O143 2.339 1_545 S
Dy129 C159 2.738 . S
C130 O142 1.254 . S
C130 O143 1.257 . S
O131 Dy128 2.307 . S
O131 C141 1.266 . S
O132 Dy129 2.298 . S
O132 C141 1.236 . S
O133 Dy128 2.395 1_566 S
O133 C150 1.255 . S
O134 Dy128 2.379 1_556 S
O134 C150 1.249 1_545 S
O135 Dy129 2.275 . S
O135 C151 1.254 . S
O136 Dy128 2.339 1_556 S
O136 C151 1.257 1_556 S
O137 Dy129 2.307 1_565 S
O137 C152 1.266 . S
O138 Dy128 2.298 1_566 S
O138 C152 1.236 1_556 S
O139 Dy129 2.395 . S
O139 C159 1.255 . S
O140 Dy129 2.379 . S
O140 C159 1.249 . S
C141 O131 1.266 . S
C141 O132 1.236 . S
O142 Dy128 2.275 1_565 S
O142 C130 1.254 . S
O143 Dy129 2.339 1_565 S
O143 C130 1.257 . S
C144 C147 1.344 . S
C144 C148 1.328 . S
C144 C150 1.516 . S
C145 C146 1.304 . S
C145 C149 1.323 . S
C146 C145 1.304 . S
C146 C147 1.371 . S
C146 H160 0.930 . S
C147 C144 1.344 . S
C147 C146 1.371 . S
C147 H161 0.931 . S
C148 C144 1.328 . S
C148 C149 1.433 . S
C148 H162 0.931 . S
C149 C145 1.323 . S
C149 C148 1.433 . S
C149 H163 0.933 . S
C150 Dy128 2.738 1_566 S
C150 O133 1.255 . S
C150 O134 1.249 1_565 S
C150 C144 1.516 . S
C151 O135 1.254 . S
C151 O136 1.257 1_554 S
C152 O137 1.266 . S
C152 O138 1.236 1_554 S
C153 C156 1.344 . S
C153 C157 1.328 . S
C153 C159 1.516 . S
C154 C155 1.304 . S
C154 C158 1.323 . S
C155 C154 1.304 . S
C155 C156 1.371 . S
C155 H164 0.930 . S
C156 C153 1.344 . S
C156 C155 1.371 . S
C156 H165 0.931 . S
C157 C153 1.328 . S
C157 C158 1.433 . S
C157 H166 0.931 . S
C158 C154 1.323 . S
C158 C157 1.433 . S
C158 H167 0.933 . S
C159 Dy129 2.738 . S
C159 O139 1.255 . S
C159 O140 1.249 . S
C159 C153 1.516 . S
H160 C146 0.930 . S
H161 C147 0.931 . S
H162 C148 0.931 . S
H163 C149 0.933 . S
H164 C155 0.930 . S
H165 C156 0.931 . S
H166 C157 0.931 . S
H167 C158 0.933 . S
Dy168 O171 2.307 . S
Dy168 O173 2.395 . S
Dy168 O174 2.379 . S
Dy168 O176 2.339 . S
Dy168 O178 2.298 . S
Dy168 O182 2.275 . S
Dy168 C190 2.738 . S
Dy169 O172 2.298 . S
Dy169 O175 2.275 . S
Dy169 O177 2.307 . S
Dy169 O179 2.395 . S
Dy169 O180 2.379 . S
Dy169 O183 2.339 . S
Dy169 C199 2.738 . S
C170 O182 1.254 . S
C170 O183 1.257 . S
O171 Dy168 2.307 . S
O171 C181 1.266 . S
O172 Dy169 2.298 . S
O172 C181 1.236 . S
O173 Dy168 2.395 . S
O173 C190 1.255 . S
O174 Dy168 2.379 . S
O174 C190 1.249 . S
O175 Dy169 2.275 . S
O175 C191 1.254 . S
O176 Dy168 2.339 . S
O176 C191 1.257 . S
O177 Dy169 2.307 . S
O177 C192 1.266 . S
O178 Dy168 2.298 . S
O178 C192 1.236 . S
O179 Dy169 2.395 . S
O179 C199 1.255 . S
O180 Dy169 2.379 . S
O180 C199 1.249 . S
C181 O171 1.266 . S
C181 O172 1.236 . S
O182 Dy168 2.275 . S
O182 C170 1.254 . S
O183 Dy169 2.339 . S
O183 C170 1.257 . S
C184 C187 1.344 . S
C184 C188 1.328 . S
C184 C190 1.516 . S
C185 C186 1.304 . S
C185 C189 1.323 . S
C186 C185 1.304 . S
C186 C187 1.371 . S
C186 H200 0.930 . S
C187 C184 1.344 . S
C187 C186 1.371 . S
C187 H201 0.931 . S
C188 C184 1.328 . S
C188 C189 1.433 . S
C188 H202 0.931 . S
C189 C185 1.323 . S
C189 C188 1.433 . S
C189 H203 0.933 . S
C190 Dy168 2.738 . S
C190 O173 1.255 . S
C190 O174 1.249 . S
C190 C184 1.516 . S
C191 O175 1.254 . S
C191 O176 1.257 . S
C192 O177 1.266 . S
C192 O178 1.236 . S
C193 C196 1.344 . S
C193 C197 1.328 . S
C193 C199 1.516 . S
C194 C195 1.304 . S
C194 C198 1.323 . S
C195 C194 1.304 . S
C195 C196 1.371 . S
C195 H204 0.930 . S
C196 C193 1.344 . S
C196 C195 1.371 . S
C196 H205 0.931 . S
C197 C193 1.328 . S
C197 C198 1.433 . S
C197 H206 0.931 . S
C198 C194 1.323 . S
C198 C197 1.433 . S
C198 H207 0.933 . S
C199 Dy169 2.738 . S
C199 O179 1.255 . S
C199 O180 1.249 . S
C199 C193 1.516 . S
H200 C186 0.930 . S
H201 C187 0.931 . S
H202 C188 0.931 . S
H203 C189 0.933 . S
H204 C195 0.930 . S
H205 C196 0.931 . S
H206 C197 0.931 . S
H207 C198 0.933 . S
Dy208 O211 2.307 1_556 S
Dy208 O213 2.395 1_455 S
Dy208 O214 2.379 . S
Dy208 O216 2.339 . S
Dy208 O218 2.298 1_455 S
Dy208 O222 2.275 1_556 S
Dy208 C230 2.738 1_455 S
Dy209 O212 2.298 . S
Dy209 O215 2.275 1_554 S
Dy209 O217 2.307 1_455 S
Dy209 O219 2.395 . S
Dy209 O220 2.379 . S
Dy209 O223 2.339 . S
Dy209 C239 2.738 . S
C210 O222 1.254 . S
C210 O223 1.257 . S
O211 Dy208 2.307 1_554 S
O211 C221 1.266 . S
O212 Dy209 2.298 . S
O212 C221 1.236 . S
O213 Dy208 2.395 1_655 S
O213 C230 1.255 . S
O214 Dy208 2.379 . S
O214 C230 1.249 1_455 S
O215 Dy209 2.275 1_556 S
O215 C231 1.254 . S
O216 Dy208 2.339 . S
O216 C231 1.257 . S
O217 Dy209 2.307 1_655 S
O217 C232 1.266 1_554 S
O218 Dy208 2.298 1_655 S
O218 C232 1.236 . S
O219 Dy209 2.395 . S
O219 C239 1.255 . S
O220 Dy209 2.379 . S
O220 C239 1.249 . S
C221 O211 1.266 . S
C221 O212 1.236 . S
O222 Dy208 2.275 1_554 S
O222 C210 1.254 . S
O223 Dy209 2.339 . S
O223 C210 1.257 . S
C224 C227 1.344 . S
C224 C228 1.328 . S
C224 C230 1.516 . S
C225 C226 1.304 . S
C225 C229 1.323 . S
C226 C225 1.304 . S
C226 C227 1.371 . S
C226 H240 0.930 . S
C227 C224 1.344 . S
C227 C226 1.371 . S
C227 H241 0.931 . S
C228 C224 1.328 . S
C228 C229 1.433 . S
C228 H242 0.931 . S
C229 C225 1.323 . S
C229 C228 1.433 . S
C229 H243 0.933 . S
C230 Dy208 2.738 1_655 S
C230 O213 1.255 . S
C230 O214 1.249 1_655 S
C230 C224 1.516 . S
C231 O215 1.254 . S
C231 O216 1.257 . S
C232 O217 1.266 1_556 S
C232 O218 1.236 . S
C233 C236 1.344 . S
C233 C237 1.328 . S
C233 C239 1.516 . S
C234 C235 1.304 . S
C234 C238 1.323 . S
C235 C234 1.304 . S
C235 C236 1.371 . S
C235 H244 0.930 . S
C236 C233 1.344 . S
C236 C235 1.371 . S
C236 H245 0.931 . S
C237 C233 1.328 . S
C237 C238 1.433 . S
C237 H246 0.931 . S
C238 C234 1.323 . S
C238 C237 1.433 . S
C238 H247 0.933 . S
C239 Dy209 2.738 . S
C239 O219 1.255 . S
C239 O220 1.249 . S
C239 C233 1.516 . S
H240 C226 0.930 . S
H241 C227 0.931 . S
H242 C228 0.931 . S
H243 C229 0.933 . S
H244 C235 0.930 . S
H245 C236 0.931 . S
H246 C237 0.931 . S
H247 C238 0.933 . S
C248 C249 1.391 . S
C248 C250 1.394 . S
C248 H264 0.931 . S
C249 C248 1.391 . S
C249 C253 1.376 . S
C250 C248 1.394 . S
C250 C251 1.369 . S
C250 C254 1.531 . S
C251 C250 1.369 . S
C251 C252 1.410 . S
C251 C259 1.503 . S
C252 C251 1.410 . S
C252 C253 1.392 . S
C252 C255 1.511 . S
C253 C249 1.376 . S
C253 C252 1.392 . S
C253 H265 0.929 . S
C254 C250 1.531 . S
C254 H266 0.960 . S
C254 H267 0.962 . S
C254 H268 0.960 . S
C255 C252 1.511 . S
C255 H269 0.961 . S
C255 H270 0.961 . S
C255 H271 0.961 . S
C256 C257 1.370 . S
C256 C258 1.363 . S
C256 H272 0.931 . S
C257 C256 1.370 . S
C257 C261 1.408 . S
C258 C256 1.363 . S
C258 C259 1.370 . S
C258 C262 1.524 . S
C259 C251 1.503 . S
C259 C258 1.370 . S
C259 C260 1.403 . S
C260 C259 1.403 . S
C260 C261 1.404 . S
C260 C263 1.539 . S
C261 C257 1.408 . S
C261 C260 1.404 . S
C261 H273 0.930 . S
C262 C258 1.524 . S
C262 H274 0.956 . S
C262 H275 0.961 . S
C262 H276 0.961 . S
C263 C260 1.539 . S
C263 H277 0.958 . S
C263 H278 0.961 . S
C263 H279 0.960 . S
H264 C248 0.931 . S
H265 C253 0.929 . S
H266 C254 0.960 . S
H267 C254 0.962 . S
H268 C254 0.960 . S
H269 C255 0.961 . S
H270 C255 0.961 . S
H271 C255 0.961 . S
H272 C256 0.931 . S
H273 C261 0.930 . S
H274 C262 0.956 . S
H275 C262 0.961 . S
H276 C262 0.961 . S
H277 C263 0.958 . S
H278 C263 0.961 . S
H279 C263 0.960 . S
C280 C281 1.391 . S
C280 C282 1.394 . S
C280 H296 0.931 . S
C281 C280 1.391 . S
C281 C285 1.376 . S
C282 C280 1.394 . S
C282 C283 1.369 . S
C282 C286 1.531 . S
C283 C282 1.369 . S
C283 C284 1.410 . S
C283 C291 1.503 . S
C284 C283 1.410 . S
C284 C285 1.392 . S
C284 C287 1.511 . S
C285 C281 1.376 . S
C285 C284 1.392 . S
C285 H297 0.929 . S
C286 C282 1.531 . S
C286 H298 0.960 . S
C286 H299 0.962 . S
C286 H300 0.960 . S
C287 C284 1.511 . S
C287 H301 0.961 . S
C287 H302 0.961 . S
C287 H303 0.961 . S
C288 C289 1.370 . S
C288 C290 1.363 . S
C288 H304 0.931 . S
C289 C288 1.370 . S
C289 C293 1.408 . S
C290 C288 1.363 . S
C290 C291 1.370 . S
C290 C294 1.524 . S
C291 C283 1.503 . S
C291 C290 1.370 . S
C291 C292 1.403 . S
C292 C291 1.403 . S
C292 C293 1.404 . S
C292 C295 1.539 . S
C293 C289 1.408 . S
C293 C292 1.404 . S
C293 H305 0.930 . S
C294 C290 1.524 . S
C294 H306 0.956 . S
C294 H307 0.961 . S
C294 H308 0.961 . S
C295 C292 1.539 . S
C295 H309 0.958 . S
C295 H310 0.961 . S
C295 H311 0.960 . S
H296 C280 0.931 . S
H297 C285 0.929 . S
H298 C286 0.960 . S
H299 C286 0.962 . S
H300 C286 0.960 . S
H301 C287 0.961 . S
H302 C287 0.961 . S
H303 C287 0.961 . S
H304 C288 0.931 . S
H305 C293 0.930 . S
H306 C294 0.956 . S
H307 C294 0.961 . S
H308 C294 0.961 . S
H309 C295 0.958 . S
H310 C295 0.961 . S
H311 C295 0.960 . S
C312 C313 1.391 . S
C312 C314 1.394 . S
C312 H328 0.931 . S
C313 C312 1.391 . S
C313 C317 1.376 . S
C314 C312 1.394 . S
C314 C315 1.369 . S
C314 C318 1.531 . S
C315 C314 1.369 . S
C315 C316 1.410 . S
C315 C323 1.503 . S
C316 C315 1.410 . S
C316 C317 1.392 . S
C316 C319 1.511 . S
C317 C313 1.376 . S
C317 C316 1.392 . S
C317 H329 0.929 . S
C318 C314 1.531 . S
C318 H330 0.960 . S
C318 H331 0.962 . S
C318 H332 0.960 . S
C319 C316 1.511 . S
C319 H333 0.961 . S
C319 H334 0.961 . S
C319 H335 0.961 . S
C320 C321 1.370 . S
C320 C322 1.363 . S
C320 H336 0.931 . S
C321 C320 1.370 . S
C321 C325 1.408 . S
C322 C320 1.363 . S
C322 C323 1.370 . S
C322 C326 1.524 . S
C323 C315 1.503 . S
C323 C322 1.370 . S
C323 C324 1.403 . S
C324 C323 1.403 . S
C324 C325 1.404 . S
C324 C327 1.539 . S
C325 C321 1.408 . S
C325 C324 1.404 . S
C325 H337 0.930 . S
C326 C322 1.524 . S
C326 H338 0.956 . S
C326 H339 0.961 . S
C326 H340 0.961 . S
C327 C324 1.539 . S
C327 H341 0.958 . S
C327 H342 0.961 . S
C327 H343 0.960 . S
H328 C312 0.931 . S
H329 C317 0.929 . S
H330 C318 0.960 . S
H331 C318 0.962 . S
H332 C318 0.960 . S
H333 C319 0.961 . S
H334 C319 0.961 . S
H335 C319 0.961 . S
H336 C320 0.931 . S
H337 C325 0.930 . S
H338 C326 0.956 . S
H339 C326 0.961 . S
H340 C326 0.961 . S
H341 C327 0.958 . S
H342 C327 0.961 . S
H343 C327 0.960 . S
C344 C345 1.391 . S
C344 C346 1.394 . S
C344 H360 0.931 . S
C345 C344 1.391 . S
C345 C349 1.376 . S
C346 C344 1.394 . S
C346 C347 1.369 . S
C346 C350 1.531 1_655 S
C347 C346 1.369 . S
C347 C348 1.410 . S
C347 C355 1.503 . S
C348 C347 1.410 . S
C348 C349 1.392 . S
C348 C351 1.511 . S
C349 C345 1.376 . S
C349 C348 1.392 . S
C349 H361 0.929 . S
C350 C346 1.531 1_455 S
C350 H362 0.960 . S
C350 H363 0.962 . S
C350 H364 0.960 . S
C351 C348 1.511 . S
C351 H365 0.961 . S
C351 H366 0.961 . S
C351 H367 0.961 . S
C352 C353 1.370 . S
C352 C354 1.363 . S
C352 H368 0.931 . S
C353 C352 1.370 . S
C353 C357 1.408 . S
C354 C352 1.363 . S
C354 C355 1.370 . S
C354 C358 1.524 . S
C355 C347 1.503 . S
C355 C354 1.370 . S
C355 C356 1.403 . S
C356 C355 1.403 . S
C356 C357 1.404 . S
C356 C359 1.539 . S
C357 C353 1.408 . S
C357 C356 1.404 . S
C357 H369 0.930 . S
C358 C354 1.524 . S
C358 H370 0.956 . S
C358 H371 0.961 . S
C358 H372 0.961 . S
C359 C356 1.539 . S
C359 H373 0.958 1_655 S
C359 H374 0.961 . S
C359 H375 0.960 . S
H360 C344 0.931 . S
H361 C349 0.929 . S
H362 C350 0.960 . S
H363 C350 0.962 . S
H364 C350 0.960 . S
H365 C351 0.961 . S
H366 C351 0.961 . S
H367 C351 0.961 . S
H368 C352 0.931 . S
H369 C357 0.930 . S
H370 C358 0.956 . S
H371 C358 0.961 . S
H372 C358 0.961 . S
H373 C359 0.958 1_455 S
H374 C359 0.961 . S
H375 C359 0.960 . S
C376 C377 1.391 . S
C376 C378 1.394 . S
C376 H392 0.931 . S
C377 C376 1.391 . S
C377 C381 1.376 . S
C378 C376 1.394 . S
C378 C379 1.369 . S
C378 C382 1.531 . S
C379 C378 1.369 . S
C379 C380 1.410 . S
C379 C387 1.503 . S
C380 C379 1.410 . S
C380 C381 1.392 . S
C380 C383 1.511 . S
C381 C377 1.376 . S
C381 C380 1.392 . S
C381 H393 0.929 . S
C382 C378 1.531 . S
C382 H394 0.960 . S
C382 H395 0.962 . S
C382 H396 0.960 . S
C383 C380 1.511 . S
C383 H397 0.961 . S
C383 H398 0.961 . S
C383 H399 0.961 . S
C384 C385 1.370 . S
C384 C386 1.363 . S
C384 H400 0.931 . S
C385 C384 1.370 . S
C385 C389 1.408 . S
C386 C384 1.363 . S
C386 C387 1.370 . S
C386 C390 1.524 . S
C387 C379 1.503 . S
C387 C386 1.370 . S
C387 C388 1.403 . S
C388 C387 1.403 . S
C388 C389 1.404 . S
C388 C391 1.539 . S
C389 C385 1.408 . S
C389 C388 1.404 . S
C389 H401 0.930 . S
C390 C386 1.524 . S
C390 H402 0.956 . S
C390 H403 0.961 . S
C390 H404 0.961 . S
C391 C388 1.539 . S
C391 H405 0.958 . S
C391 H406 0.961 . S
C391 H407 0.960 . S
H392 C376 0.931 . S
H393 C381 0.929 . S
H394 C382 0.960 . S
H395 C382 0.962 . S
H396 C382 0.960 . S
H397 C383 0.961 . S
H398 C383 0.961 . S
H399 C383 0.961 . S
H400 C384 0.931 . S
H401 C389 0.930 . S
H402 C390 0.956 . S
H403 C390 0.961 . S
H404 C390 0.961 . S
H405 C391 0.958 . S
H406 C391 0.961 . S
H407 C391 0.960 . S
C408 C409 1.391 . S
C408 C410 1.394 . S
C408 H424 0.931 . S
C409 C408 1.391 . S
C409 C413 1.376 . S
C410 C408 1.394 . S
C410 C411 1.369 . S
C410 C414 1.531 . S
C411 C410 1.369 . S
C411 C412 1.410 . S
C411 C419 1.503 . S
C412 C411 1.410 . S
C412 C413 1.392 . S
C412 C415 1.511 . S
C413 C409 1.376 . S
C413 C412 1.392 . S
C413 H425 0.929 . S
C414 C410 1.531 . S
C414 H426 0.960 . S
C414 H427 0.962 1_455 S
C414 H428 0.960 . S
C415 C412 1.511 . S
C415 H429 0.961 . S
C415 H430 0.961 . S
C415 H431 0.961 . S
C416 C417 1.370 . S
C416 C418 1.363 . S
C416 H432 0.931 . S
C417 C416 1.370 . S
C417 C421 1.408 . S
C418 C416 1.363 . S
C418 C419 1.370 . S
C418 C422 1.524 . S
C419 C411 1.503 . S
C419 C418 1.370 . S
C419 C420 1.403 . S
C420 C419 1.403 . S
C420 C421 1.404 . S
C420 C423 1.539 . S
C421 C417 1.408 . S
C421 C420 1.404 . S
C421 H433 0.930 . S
C422 C418 1.524 . S
C422 H434 0.956 1_455 S
C422 H435 0.961 . S
C422 H436 0.961 1_455 S
C423 C420 1.539 . S
C423 H437 0.958 . S
C423 H438 0.961 . S
C423 H439 0.960 . S
H424 C408 0.931 . S
H425 C413 0.929 . S
H426 C414 0.960 . S
H427 C414 0.962 1_655 S
H428 C414 0.960 . S
H429 C415 0.961 . S
H430 C415 0.961 . S
H431 C415 0.961 . S
H432 C416 0.931 . S
H433 C421 0.930 . S
H434 C422 0.956 1_655 S
H435 C422 0.961 . S
H436 C422 0.961 1_655 S
H437 C423 0.958 . S
H438 C423 0.961 . S
H439 C423 0.960 . S
C440 C441 1.391 . S
C440 C442 1.394 . S
C440 H456 0.931 . S
C441 C440 1.391 . S
C441 C445 1.376 . S
C442 C440 1.394 . S
C442 C443 1.369 . S
C442 C446 1.531 . S
C443 C442 1.369 . S
C443 C444 1.410 . S
C443 C451 1.503 . S
C444 C443 1.410 . S
C444 C445 1.392 . S
C444 C447 1.511 . S
C445 C441 1.376 . S
C445 C444 1.392 . S
C445 H457 0.929 . S
C446 C442 1.531 . S
C446 H458 0.960 . S
C446 H459 0.962 . S
C446 H460 0.960 . S
C447 C444 1.511 . S
C447 H461 0.961 . S
C447 H462 0.961 . S
C447 H463 0.961 . S
C448 C449 1.370 . S
C448 C450 1.363 . S
C448 H464 0.931 . S
C449 C448 1.370 . S
C449 C453 1.408 . S
C450 C448 1.363 . S
C450 C451 1.370 . S
C450 C454 1.524 . S
C451 C443 1.503 . S
C451 C450 1.370 . S
C451 C452 1.403 . S
C452 C451 1.403 . S
C452 C453 1.404 . S
C452 C455 1.539 . S
C453 C449 1.408 . S
C453 C452 1.404 . S
C453 H465 0.930 1_556 S
C454 C450 1.524 . S
C454 H466 0.956 . S
C454 H467 0.961 . S
C454 H468 0.961 . S
C455 C452 1.539 . S
C455 H469 0.958 1_556 S
C455 H470 0.961 1_556 S
C455 H471 0.960 . S
H456 C440 0.931 . S
H457 C445 0.929 . S
H458 C446 0.960 . S
H459 C446 0.962 . S
H460 C446 0.960 . S
H461 C447 0.961 . S
H462 C447 0.961 . S
H463 C447 0.961 . S
H464 C448 0.931 . S
H465 C453 0.930 1_554 S
H466 C454 0.956 . S
H467 C454 0.961 . S
H468 C454 0.961 . S
H469 C455 0.958 1_554 S
H470 C455 0.961 1_554 S
H471 C455 0.960 . S
C472 C473 1.391 . S
C472 C474 1.394 . S
C472 H488 0.931 . S
C473 C472 1.391 . S
C473 C477 1.376 . S
C474 C472 1.394 . S
C474 C475 1.369 . S
C474 C478 1.531 . S
C475 C474 1.369 . S
C475 C476 1.410 . S
C475 C483 1.503 . S
C476 C475 1.410 . S
C476 C477 1.392 . S
C476 C479 1.511 . S
C477 C473 1.376 . S
C477 C476 1.392 . S
C477 H489 0.929 . S
C478 C474 1.531 . S
C478 H490 0.960 . S
C478 H491 0.962 . S
C478 H492 0.960 . S
C479 C476 1.511 . S
C479 H493 0.961 . S
C479 H494 0.961 . S
C479 H495 0.961 . S
C480 C481 1.370 . S
C480 C482 1.363 . S
C480 H496 0.931 . S
C481 C480 1.370 . S
C481 C485 1.408 . S
C482 C480 1.363 . S
C482 C483 1.370 . S
C482 C486 1.524 . S
C483 C475 1.503 . S
C483 C482 1.370 . S
C483 C484 1.403 . S
C484 C483 1.403 . S
C484 C485 1.404 . S
C484 C487 1.539 . S
C485 C481 1.408 . S
C485 C484 1.404 . S
C485 H497 0.930 . S
C486 C482 1.524 . S
C486 H498 0.956 . S
C486 H499 0.961 . S
C486 H500 0.961 . S
C487 C484 1.539 . S
C487 H501 0.958 . S
C487 H502 0.961 . S
C487 H503 0.960 . S
H488 C472 0.931 . S
H489 C477 0.929 . S
H490 C478 0.960 . S
H491 C478 0.962 . S
H492 C478 0.960 . S
H493 C479 0.961 . S
H494 C479 0.961 . S
H495 C479 0.961 . S
H496 C480 0.931 . S
H497 C485 0.930 . S
H498 C486 0.956 . S
H499 C486 0.961 . S
H500 C486 0.961 . S
H501 C487 0.958 . S
H502 C487 0.961 . S
H503 C487 0.960 . S
C504 C505 1.391 . S
C504 C506 1.394 . S
C504 H520 0.931 . S
C505 C504 1.391 . S
C505 C509 1.376 . S
C506 C504 1.394 . S
C506 C507 1.369 . S
C506 C510 1.531 . S
C507 C506 1.369 . S
C507 C508 1.410 . S
C507 C515 1.503 . S
C508 C507 1.410 . S
C508 C509 1.392 . S
C508 C511 1.511 . S
C509 C505 1.376 . S
C509 C508 1.392 . S
C509 H521 0.929 . S
C510 C506 1.531 . S
C510 H522 0.960 . S
C510 H523 0.962 . S
C510 H524 0.960 . S
C511 C508 1.511 . S
C511 H525 0.961 . S
C511 H526 0.961 . S
C511 H527 0.961 . S
C512 C513 1.370 . S
C512 C514 1.363 . S
C512 H528 0.931 . S
C513 C512 1.370 . S
C513 C517 1.408 . S
C514 C512 1.363 . S
C514 C515 1.370 . S
C514 C518 1.524 . S
C515 C507 1.503 . S
C515 C514 1.370 . S
C515 C516 1.403 . S
C516 C515 1.403 . S
C516 C517 1.404 . S
C516 C519 1.539 . S
C517 C513 1.408 . S
C517 C516 1.404 . S
C517 H529 0.930 . S
C518 C514 1.524 . S
C518 H530 0.956 . S
C518 H531 0.961 . S
C518 H532 0.961 . S
C519 C516 1.539 . S
C519 H533 0.958 . S
C519 H534 0.961 . S
C519 H535 0.960 . S
H520 C504 0.931 . S
H521 C509 0.929 . S
H522 C510 0.960 . S
H523 C510 0.962 . S
H524 C510 0.960 . S
H525 C511 0.961 . S
H526 C511 0.961 . S
H527 C511 0.961 . S
H528 C512 0.931 . S
H529 C517 0.930 . S
H530 C518 0.956 . S
H531 C518 0.961 . S
H532 C518 0.961 . S
H533 C519 0.958 . S
H534 C519 0.961 . S
H535 C519 0.960 . S
C536 C537 1.391 . S
C536 C538 1.394 . S
C536 H552 0.931 . S
C537 C536 1.391 . S
C537 C541 1.376 . S
C538 C536 1.394 . S
C538 C539 1.369 . S
C538 C542 1.531 . S
C539 C538 1.369 . S
C539 C540 1.410 . S
C539 C547 1.503 . S
C540 C539 1.410 . S
C540 C541 1.392 . S
C540 C543 1.511 . S
C541 C537 1.376 . S
C541 C540 1.392 . S
C541 H553 0.929 . S
C542 C538 1.531 . S
C542 H554 0.960 . S
C542 H555 0.962 . S
C542 H556 0.960 . S
C543 C540 1.511 . S
C543 H557 0.961 1_556 S
C543 H558 0.961 1_556 S
C543 H559 0.961 . S
C544 C545 1.370 . S
C544 C546 1.363 . S
C544 H560 0.931 . S
C545 C544 1.370 . S
C545 C549 1.408 . S
C546 C544 1.363 . S
C546 C547 1.370 . S
C546 C550 1.524 . S
C547 C539 1.503 . S
C547 C546 1.370 . S
C547 C548 1.403 . S
C548 C547 1.403 . S
C548 C549 1.404 . S
C548 C551 1.539 . S
C549 C545 1.408 . S
C549 C548 1.404 . S
C549 H561 0.930 . S
C550 C546 1.524 . S
C550 H562 0.956 . S
C550 H563 0.961 . S
C550 H564 0.961 . S
C551 C548 1.539 . S
C551 H565 0.958 . S
C551 H566 0.961 . S
C551 H567 0.960 . S
H552 C536 0.931 . S
H553 C541 0.929 . S
H554 C542 0.960 . S
H555 C542 0.962 . S
H556 C542 0.960 . S
H557 C543 0.961 1_554 S
H558 C543 0.961 1_554 S
H559 C543 0.961 . S
H560 C544 0.931 . S
H561 C549 0.930 . S
H562 C550 0.956 . S
H563 C550 0.961 . S
H564 C550 0.961 . S
H565 C551 0.958 . S
H566 C551 0.961 . S
H567 C551 0.960 . S
C568 C569 1.391 . S
C568 C570 1.394 . S
C568 H584 0.931 . S
C569 C568 1.391 . S
C569 C573 1.376 . S
C570 C568 1.394 . S
C570 C571 1.369 . S
C570 C574 1.531 . S
C571 C570 1.369 . S
C571 C572 1.410 . S
C571 C579 1.503 . S
C572 C571 1.410 . S
C572 C573 1.392 . S
C572 C575 1.511 . S
C573 C569 1.376 . S
C573 C572 1.392 . S
C573 H585 0.929 . S
C574 C570 1.531 . S
C574 H586 0.960 . S
C574 H587 0.962 . S
C574 H588 0.960 1_655 S
C575 C572 1.511 . S
C575 H589 0.961 . S
C575 H590 0.961 . S
C575 H591 0.961 . S
C576 C577 1.370 . S
C576 C578 1.363 . S
C576 H592 0.931 . S
C577 C576 1.370 . S
C577 C581 1.408 . S
C578 C576 1.363 . S
C578 C579 1.370 . S
C578 C582 1.524 . S
C579 C571 1.503 . S
C579 C578 1.370 . S
C579 C580 1.403 . S
C580 C579 1.403 . S
C580 C581 1.404 . S
C580 C583 1.539 . S
C581 C577 1.408 . S
C581 C580 1.404 . S
C581 H593 0.930 . S
C582 C578 1.524 . S
C582 H594 0.956 . S
C582 H595 0.961 . S
C582 H596 0.961 . S
C583 C580 1.539 . S
C583 H597 0.958 . S
C583 H598 0.961 . S
C583 H599 0.960 . S
H584 C568 0.931 . S
H585 C573 0.929 . S
H586 C574 0.960 . S
H587 C574 0.962 . S
H588 C574 0.960 1_455 S
H589 C575 0.961 . S
H590 C575 0.961 . S
H591 C575 0.961 . S
H592 C576 0.931 . S
H593 C581 0.930 . S
H594 C582 0.956 . S
H595 C582 0.961 . S
H596 C582 0.961 . S
H597 C583 0.958 . S
H598 C583 0.961 . S
H599 C583 0.960 . S
C600 C601 1.391 . S
C600 C602 1.394 . S
C600 H616 0.931 . S
C601 C600 1.391 . S
C601 C605 1.376 . S
C602 C600 1.394 . S
C602 C603 1.369 . S
C602 C606 1.531 . S
C603 C602 1.369 . S
C603 C604 1.410 . S
C603 C611 1.503 . S
C604 C603 1.410 . S
C604 C605 1.392 . S
C604 C607 1.511 . S
C605 C601 1.376 . S
C605 C604 1.392 . S
C605 H617 0.929 . S
C606 C602 1.531 . S
C606 H618 0.960 . S
C606 H619 0.962 . S
C606 H620 0.960 . S
C607 C604 1.511 . S
C607 H621 0.961 . S
C607 H622 0.961 . S
C607 H623 0.961 . S
C608 C609 1.370 . S
C608 C610 1.363 . S
C608 H624 0.931 . S
C609 C608 1.370 . S
C609 C613 1.408 . S
C610 C608 1.363 . S
C610 C611 1.370 . S
C610 C614 1.524 . S
C611 C603 1.503 . S
C611 C610 1.370 . S
C611 C612 1.403 . S
C612 C611 1.403 . S
C612 C613 1.404 . S
C612 C615 1.539 . S
C613 C609 1.408 . S
C613 C612 1.404 . S
C613 H625 0.930 . S
C614 C610 1.524 . S
C614 H626 0.956 . S
C614 H627 0.961 . S
C614 H628 0.961 . S
C615 C612 1.539 . S
C615 H629 0.958 . S
C615 H630 0.961 . S
C615 H631 0.960 . S
H616 C600 0.931 . S
H617 C605 0.929 . S
H618 C606 0.960 . S
H619 C606 0.962 . S
H620 C606 0.960 . S
H621 C607 0.961 . S
H622 C607 0.961 . S
H623 C607 0.961 . S
H624 C608 0.931 . S
H625 C613 0.930 . S
H626 C614 0.956 . S
H627 C614 0.961 . S
H628 C614 0.961 . S
H629 C615 0.958 . S
H630 C615 0.961 . S
H631 C615 0.960 . S
C632 C633 1.391 . S
C632 C634 1.394 . S
C632 H648 0.931 . S
C633 C632 1.391 . S
C633 C637 1.376 . S
C634 C632 1.394 . S
C634 C635 1.369 . S
C634 C638 1.531 . S
C635 C634 1.369 . S
C635 C636 1.410 . S
C635 C643 1.503 . S
C636 C635 1.410 . S
C636 C637 1.392 . S
C636 C639 1.511 . S
C637 C633 1.376 . S
C637 C636 1.392 . S
C637 H649 0.929 . S
C638 C634 1.531 . S
C638 H650 0.960 . S
C638 H651 0.962 . S
C638 H652 0.960 . S
C639 C636 1.511 . S
C639 H653 0.961 . S
C639 H654 0.961 . S
C639 H655 0.961 . S
C640 C641 1.370 . S
C640 C642 1.363 . S
C640 H656 0.931 . S
C641 C640 1.370 . S
C641 C645 1.408 . S
C642 C640 1.363 . S
C642 C643 1.370 . S
C642 C646 1.524 . S
C643 C635 1.503 . S
C643 C642 1.370 . S
C643 C644 1.403 . S
C644 C643 1.403 . S
C644 C645 1.404 . S
C644 C647 1.539 . S
C645 C641 1.408 . S
C645 C644 1.404 . S
C645 H657 0.930 . S
C646 C642 1.524 . S
C646 H658 0.956 . S
C646 H659 0.961 . S
C646 H660 0.961 . S
C647 C644 1.539 . S
C647 H661 0.958 . S
C647 H662 0.961 . S
C647 H663 0.960 . S
H648 C632 0.931 . S
H649 C637 0.929 . S
H650 C638 0.960 . S
H651 C638 0.962 . S
H652 C638 0.960 . S
H653 C639 0.961 . S
H654 C639 0.961 . S
H655 C639 0.961 . S
H656 C640 0.931 . S
H657 C645 0.930 . S
H658 C646 0.956 . S
H659 C646 0.961 . S
H660 C646 0.961 . S
H661 C647 0.958 . S
H662 C647 0.961 . S
H663 C647 0.960 . S
C664 C665 1.391 . S
C664 C666 1.394 . S
C664 H680 0.931 . S
C665 C664 1.391 . S
C665 C669 1.376 . S
C666 C664 1.394 . S
C666 C667 1.369 . S
C666 C670 1.531 . S
C667 C666 1.369 . S
C667 C668 1.410 . S
C667 C675 1.503 . S
C668 C667 1.410 . S
C668 C669 1.392 . S
C668 C671 1.511 . S
C669 C665 1.376 . S
C669 C668 1.392 . S
C669 H681 0.929 . S
C670 C666 1.531 . S
C670 H682 0.960 . S
C670 H683 0.962 . S
C670 H684 0.960 . S
C671 C668 1.511 . S
C671 H685 0.961 . S
C671 H686 0.961 . S
C671 H687 0.961 . S
C672 C673 1.370 . S
C672 C674 1.363 . S
C672 H688 0.931 . S
C673 C672 1.370 . S
C673 C677 1.408 . S
C674 C672 1.363 . S
C674 C675 1.370 . S
C674 C678 1.524 . S
C675 C667 1.503 . S
C675 C674 1.370 . S
C675 C676 1.403 . S
C676 C675 1.403 . S
C676 C677 1.404 . S
C676 C679 1.539 . S
C677 C673 1.408 . S
C677 C676 1.404 . S
C677 H689 0.930 . S
C678 C674 1.524 . S
C678 H690 0.956 . S
C678 H691 0.961 . S
C678 H692 0.961 . S
C679 C676 1.539 . S
C679 H693 0.958 . S
C679 H694 0.961 . S
C679 H695 0.960 . S
H680 C664 0.931 . S
H681 C669 0.929 . S
H682 C670 0.960 . S
H683 C670 0.962 . S
H684 C670 0.960 . S
H685 C671 0.961 . S
H686 C671 0.961 . S
H687 C671 0.961 . S
H688 C672 0.931 . S
H689 C677 0.930 . S
H690 C678 0.956 . S
H691 C678 0.961 . S
H692 C678 0.961 . S
H693 C679 0.958 . S
H694 C679 0.961 . S
H695 C679 0.960 . S
C696 C697 1.391 . S
C696 C698 1.394 . S
C696 H712 0.931 . S
C697 C696 1.391 . S
C697 C701 1.376 . S
C698 C696 1.394 . S
C698 C699 1.369 . S
C698 C702 1.531 . S
C699 C698 1.369 . S
C699 C700 1.410 . S
C699 C707 1.503 . S
C700 C699 1.410 . S
C700 C701 1.392 . S
C700 C703 1.511 . S
C701 C697 1.376 . S
C701 C700 1.392 . S
C701 H713 0.929 . S
C702 C698 1.531 . S
C702 H714 0.960 . S
C702 H715 0.962 . S
C702 H716 0.960 . S
C703 C700 1.511 . S
C703 H717 0.961 . S
C703 H718 0.961 . S
C703 H719 0.961 . S
C704 C705 1.370 . S
C704 C706 1.363 . S
C704 H720 0.931 . S
C705 C704 1.370 . S
C705 C709 1.408 . S
C706 C704 1.363 . S
C706 C707 1.370 . S
C706 C710 1.524 . S
C707 C699 1.503 . S
C707 C706 1.370 . S
C707 C708 1.403 . S
C708 C707 1.403 . S
C708 C709 1.404 . S
C708 C711 1.539 . S
C709 C705 1.408 . S
C709 C708 1.404 . S
C709 H721 0.930 . S
C710 C706 1.524 . S
C710 H722 0.956 . S
C710 H723 0.961 . S
C710 H724 0.961 . S
C711 C708 1.539 . S
C711 H725 0.958 . S
C711 H726 0.961 . S
C711 H727 0.960 . S
H712 C696 0.931 . S
H713 C701 0.929 . S
H714 C702 0.960 . S
H715 C702 0.962 . S
H716 C702 0.960 . S
H717 C703 0.961 . S
H718 C703 0.961 . S
H719 C703 0.961 . S
H720 C704 0.931 . S
H721 C709 0.930 . S
H722 C710 0.956 . S
H723 C710 0.961 . S
H724 C710 0.961 . S
H725 C711 0.958 . S
H726 C711 0.961 . S
H727 C711 0.960 . S
C728 C729 1.391 . S
C728 C730 1.394 . S
C728 H744 0.931 . S
C729 C728 1.391 . S
C729 C733 1.376 . S
C730 C728 1.394 . S
C730 C731 1.369 . S
C730 C734 1.531 . S
C731 C730 1.369 . S
C731 C732 1.410 . S
C731 C739 1.503 . S
C732 C731 1.410 . S
C732 C733 1.392 . S
C732 C735 1.511 . S
C733 C729 1.376 . S
C733 C732 1.392 . S
C733 H745 0.929 . S
C734 C730 1.531 . S
C734 H746 0.960 . S
C734 H747 0.962 . S
C734 H748 0.960 . S
C735 C732 1.511 . S
C735 H749 0.961 . S
C735 H750 0.961 . S
C735 H751 0.961 . S
C736 C737 1.370 . S
C736 C738 1.363 . S
C736 H752 0.931 . S
C737 C736 1.370 . S
C737 C741 1.408 . S
C738 C736 1.363 . S
C738 C739 1.370 . S
C738 C742 1.524 . S
C739 C731 1.503 . S
C739 C738 1.370 . S
C739 C740 1.403 . S
C740 C739 1.403 . S
C740 C741 1.404 . S
C740 C743 1.539 . S
C741 C737 1.408 . S
C741 C740 1.404 . S
C741 H753 0.930 . S
C742 C738 1.524 . S
C742 H754 0.956 . S
C742 H755 0.961 . S
C742 H756 0.961 . S
C743 C740 1.539 . S
C743 H757 0.958 . S
C743 H758 0.961 . S
C743 H759 0.960 . S
H744 C728 0.931 . S
H745 C733 0.929 . S
H746 C734 0.960 . S
H747 C734 0.962 . S
H748 C734 0.960 . S
H749 C735 0.961 . S
H750 C735 0.961 . S
H751 C735 0.961 . S
H752 C736 0.931 . S
H753 C741 0.930 . S
H754 C742 0.956 . S
H755 C742 0.961 . S
H756 C742 0.961 . S
H757 C743 0.958 . S
H758 C743 0.961 . S
H759 C743 0.960 . S
C760 C761 1.391 . S
C760 C762 1.394 . S
C760 H776 0.931 . S
C761 C760 1.391 . S
C761 C765 1.376 . S
C762 C760 1.394 . S
C762 C763 1.369 . S
C762 C766 1.531 . S
C763 C762 1.369 . S
C763 C764 1.410 . S
C763 C771 1.503 . S
C764 C763 1.410 . S
C764 C765 1.392 . S
C764 C767 1.511 . S
C765 C761 1.376 . S
C765 C764 1.392 . S
C765 H777 0.929 . S
C766 C762 1.531 . S
C766 H778 0.960 . S
C766 H779 0.962 . S
C766 H780 0.960 . S
C767 C764 1.511 . S
C767 H781 0.961 . S
C767 H782 0.961 . S
C767 H783 0.961 . S
C768 C769 1.370 . S
C768 C770 1.363 . S
C768 H784 0.931 1_556 S
C769 C768 1.370 . S
C769 C773 1.408 . S
C770 C768 1.363 . S
C770 C771 1.370 . S
C770 C774 1.524 . S
C771 C763 1.503 . S
C771 C770 1.370 . S
C771 C772 1.403 . S
C772 C771 1.403 . S
C772 C773 1.404 . S
C772 C775 1.539 . S
C773 C769 1.408 . S
C773 C772 1.404 . S
C773 H785 0.930 . S
C774 C770 1.524 . S
C774 H786 0.956 . S
C774 H787 0.961 . S
C774 H788 0.961 1_556 S
C775 C772 1.539 . S
C775 H789 0.958 . S
C775 H790 0.961 . S
C775 H791 0.960 . S
H776 C760 0.931 . S
H777 C765 0.929 . S
H778 C766 0.960 . S
H779 C766 0.962 . S
H780 C766 0.960 . S
H781 C767 0.961 . S
H782 C767 0.961 . S
H783 C767 0.961 . S
H784 C768 0.931 1_554 S
H785 C773 0.930 . S
H786 C774 0.956 . S
H787 C774 0.961 . S
H788 C774 0.961 1_554 S
H789 C775 0.958 . S
H790 C775 0.961 . S
H791 C775 0.960 . S
C792 C793 1.391 . S
C792 C794 1.394 . S
C792 H808 0.931 . S
C793 C792 1.391 . S
C793 C797 1.376 . S
C794 C792 1.394 . S
C794 C795 1.369 . S
C794 C798 1.531 . S
C795 C794 1.369 . S
C795 C796 1.410 . S
C795 C803 1.503 . S
C796 C795 1.410 . S
C796 C797 1.392 . S
C796 C799 1.511 1_655 S
C797 C793 1.376 . S
C797 C796 1.392 . S
C797 H809 0.929 . S
C798 C794 1.531 . S
C798 H810 0.960 . S
C798 H811 0.962 . S
C798 H812 0.960 . S
C799 C796 1.511 1_455 S
C799 H813 0.961 . S
C799 H814 0.961 . S
C799 H815 0.961 . S
C800 C801 1.370 . S
C800 C802 1.363 . S
C800 H816 0.931 . S
C801 C800 1.370 . S
C801 C805 1.408 . S
C802 C800 1.363 . S
C802 C803 1.370 . S
C802 C806 1.524 . S
C803 C795 1.503 . S
C803 C802 1.370 . S
C803 C804 1.403 . S
C804 C803 1.403 . S
C804 C805 1.404 . S
C804 C807 1.539 . S
C805 C801 1.408 . S
C805 C804 1.404 . S
C805 H817 0.930 . S
C806 C802 1.524 . S
C806 H818 0.956 . S
C806 H819 0.961 . S
C806 H820 0.961 . S
C807 C804 1.539 . S
C807 H821 0.958 . S
C807 H822 0.961 . S
C807 H823 0.960 . S
H808 C792 0.931 . S
H809 C797 0.929 . S
H810 C798 0.960 . S
H811 C798 0.962 . S
H812 C798 0.960 . S
H813 C799 0.961 . S
H814 C799 0.961 . S
H815 C799 0.961 . S
H816 C800 0.931 . S
H817 C805 0.930 . S
H818 C806 0.956 . S
H819 C806 0.961 . S
H820 C806 0.961 . S
H821 C807 0.958 . S
H822 C807 0.961 . S
H823 C807 0.960 . S
C824 C825 1.391 . S
C824 C826 1.394 . S
C824 H840 0.931 . S
C825 C824 1.391 . S
C825 C829 1.376 . S
C826 C824 1.394 . S
C826 C827 1.369 . S
C826 C830 1.531 . S
C827 C826 1.369 . S
C827 C828 1.410 . S
C827 C835 1.503 . S
C828 C827 1.410 . S
C828 C829 1.392 . S
C828 C831 1.511 . S
C829 C825 1.376 . S
C829 C828 1.392 . S
C829 H841 0.929 . S
C830 C826 1.531 . S
C830 H842 0.960 . S
C830 H843 0.962 . S
C830 H844 0.960 . S
C831 C828 1.511 . S
C831 H845 0.961 . S
C831 H846 0.961 . S
C831 H847 0.961 . S
C832 C833 1.370 . S
C832 C834 1.363 . S
C832 H848 0.931 . S
C833 C832 1.370 . S
C833 C837 1.408 . S
C834 C832 1.363 . S
C834 C835 1.370 . S
C834 C838 1.524 . S
C835 C827 1.503 . S
C835 C834 1.370 . S
C835 C836 1.403 . S
C836 C835 1.403 . S
C836 C837 1.404 . S
C836 C839 1.539 . S
C837 C833 1.408 . S
C837 C836 1.404 . S
C837 H849 0.930 . S
C838 C834 1.524 . S
C838 H850 0.956 . S
C838 H851 0.961 . S
C838 H852 0.961 . S
C839 C836 1.539 . S
C839 H853 0.958 . S
C839 H854 0.961 . S
C839 H855 0.960 . S
H840 C824 0.931 . S
H841 C829 0.929 . S
H842 C830 0.960 . S
H843 C830 0.962 . S
H844 C830 0.960 . S
H845 C831 0.961 . S
H846 C831 0.961 . S
H847 C831 0.961 . S
H848 C832 0.931 . S
H849 C837 0.930 . S
H850 C838 0.956 . S
H851 C838 0.961 . S
H852 C838 0.961 . S
H853 C839 0.958 . S
H854 C839 0.961 . S
H855 C839 0.960 . S
C856 C857 1.391 . S
C856 C858 1.394 . S
C856 H872 0.931 . S
C857 C856 1.391 . S
C857 C861 1.376 . S
C858 C856 1.394 . S
C858 C859 1.369 . S
C858 C862 1.531 . S
C859 C858 1.369 . S
C859 C860 1.410 . S
C859 C867 1.503 . S
C860 C859 1.410 . S
C860 C861 1.392 . S
C860 C863 1.511 . S
C861 C857 1.376 . S
C861 C860 1.392 . S
C861 H873 0.929 . S
C862 C858 1.531 . S
C862 H874 0.960 . S
C862 H875 0.962 . S
C862 H876 0.960 . S
C863 C860 1.511 . S
C863 H877 0.961 . S
C863 H878 0.961 . S
C863 H879 0.961 . S
C864 C865 1.370 . S
C864 C866 1.363 . S
C864 H880 0.931 . S
C865 C864 1.370 . S
C865 C869 1.408 . S
C866 C864 1.363 . S
C866 C867 1.370 . S
C866 C870 1.524 . S
C867 C859 1.503 . S
C867 C866 1.370 . S
C867 C868 1.403 . S
C868 C867 1.403 . S
C868 C869 1.404 . S
C868 C871 1.539 . S
C869 C865 1.408 . S
C869 C868 1.404 . S
C869 H881 0.930 . S
C870 C866 1.524 . S
C870 H882 0.956 . S
C870 H883 0.961 . S
C870 H884 0.961 . S
C871 C868 1.539 . S
C871 H885 0.958 . S
C871 H886 0.961 . S
C871 H887 0.960 . S
H872 C856 0.931 . S
H873 C861 0.929 . S
H874 C862 0.960 . S
H875 C862 0.962 . S
H876 C862 0.960 . S
H877 C863 0.961 . S
H878 C863 0.961 . S
H879 C863 0.961 . S
H880 C864 0.931 . S
H881 C869 0.930 . S
H882 C870 0.956 . S
H883 C870 0.961 . S
H884 C870 0.961 . S
H885 C871 0.958 . S
H886 C871 0.961 . S
H887 C871 0.960 . S
C888 C889 1.391 . S
C888 C890 1.394 . S
C888 H904 0.931 . S
C889 C888 1.391 . S
C889 C893 1.376 . S
C890 C888 1.394 . S
C890 C891 1.369 . S
C890 C894 1.531 . S
C891 C890 1.369 . S
C891 C892 1.410 . S
C891 C899 1.503 . S
C892 C891 1.410 . S
C892 C893 1.392 . S
C892 C895 1.511 . S
C893 C889 1.376 . S
C893 C892 1.392 . S
C893 H905 0.929 . S
C894 C890 1.531 . S
C894 H906 0.960 . S
C894 H907 0.962 . S
C894 H908 0.960 . S
C895 C892 1.511 . S
C895 H909 0.961 . S
C895 H910 0.961 . S
C895 H911 0.961 . S
C896 C897 1.370 . S
C896 C898 1.363 . S
C896 H912 0.931 . S
C897 C896 1.370 . S
C897 C901 1.408 . S
C898 C896 1.363 . S
C898 C899 1.370 . S
C898 C902 1.524 . S
C899 C891 1.503 . S
C899 C898 1.370 . S
C899 C900 1.403 . S
C900 C899 1.403 . S
C900 C901 1.404 . S
C900 C903 1.539 . S
C901 C897 1.408 . S
C901 C900 1.404 . S
C901 H913 0.930 . S
C902 C898 1.524 . S
C902 H914 0.956 . S
C902 H915 0.961 . S
C902 H916 0.961 . S
C903 C900 1.539 . S
C903 H917 0.958 . S
C903 H918 0.961 . S
C903 H919 0.960 . S
H904 C888 0.931 . S
H905 C893 0.929 . S
H906 C894 0.960 . S
H907 C894 0.962 . S
H908 C894 0.960 . S
H909 C895 0.961 . S
H910 C895 0.961 . S
H911 C895 0.961 . S
H912 C896 0.931 . S
H913 C901 0.930 . S
H914 C902 0.956 . S
H915 C902 0.961 . S
H916 C902 0.961 . S
H917 C903 0.958 . S
H918 C903 0.961 . S
H919 C903 0.960 . S
C920 C921 1.391 . S
C920 C922 1.394 . S
C920 H936 0.931 . S
C921 C920 1.391 . S
C921 C925 1.376 . S
C922 C920 1.394 . S
C922 C923 1.369 . S
C922 C926 1.531 . S
C923 C922 1.369 . S
C923 C924 1.410 . S
C923 C931 1.503 . S
C924 C923 1.410 . S
C924 C925 1.392 . S
C924 C927 1.511 . S
C925 C921 1.376 . S
C925 C924 1.392 . S
C925 H937 0.929 . S
C926 C922 1.531 . S
C926 H938 0.960 . S
C926 H939 0.962 . S
C926 H940 0.960 . S
C927 C924 1.511 . S
C927 H941 0.961 . S
C927 H942 0.961 . S
C927 H943 0.961 . S
C928 C929 1.370 . S
C928 C930 1.363 . S
C928 H944 0.931 . S
C929 C928 1.370 . S
C929 C933 1.408 . S
C930 C928 1.363 . S
C930 C931 1.370 . S
C930 C934 1.524 . S
C931 C923 1.503 . S
C931 C930 1.370 . S
C931 C932 1.403 . S
C932 C931 1.403 . S
C932 C933 1.404 . S
C932 C935 1.539 . S
C933 C929 1.408 . S
C933 C932 1.404 . S
C933 H945 0.930 . S
C934 C930 1.524 . S
C934 H946 0.956 . S
C934 H947 0.961 . S
C934 H948 0.961 . S
C935 C932 1.539 . S
C935 H949 0.958 . S
C935 H950 0.961 . S
C935 H951 0.960 . S
H936 C920 0.931 . S
H937 C925 0.929 . S
H938 C926 0.960 . S
H939 C926 0.962 . S
H940 C926 0.960 . S
H941 C927 0.961 . S
H942 C927 0.961 . S
H943 C927 0.961 . S
H944 C928 0.931 . S
H945 C933 0.930 . S
H946 C934 0.956 . S
H947 C934 0.961 . S
H948 C934 0.961 . S
H949 C935 0.958 . S
H950 C935 0.961 . S
H951 C935 0.960 . S
C952 C953 1.391 . S
C952 C954 1.394 . S
C952 H968 0.931 . S
C953 C952 1.391 . S
C953 C957 1.376 . S
C954 C952 1.394 . S
C954 C955 1.369 . S
C954 C958 1.531 . S
C955 C954 1.369 . S
C955 C956 1.410 . S
C955 C963 1.503 . S
C956 C955 1.410 . S
C956 C957 1.392 . S
C956 C959 1.511 . S
C957 C953 1.376 . S
C957 C956 1.392 . S
C957 H969 0.929 . S
C958 C954 1.531 . S
C958 H970 0.960 . S
C958 H971 0.962 . S
C958 H972 0.960 . S
C959 C956 1.511 . S
C959 H973 0.961 . S
C959 H974 0.961 . S
C959 H975 0.961 . S
C960 C961 1.370 . S
C960 C962 1.363 . S
C960 H976 0.931 . S
C961 C960 1.370 . S
C961 C965 1.408 . S
C962 C960 1.363 . S
C962 C963 1.370 . S
C962 C966 1.524 . S
C963 C955 1.503 . S
C963 C962 1.370 . S
C963 C964 1.403 . S
C964 C963 1.403 . S
C964 C965 1.404 . S
C964 C967 1.539 . S
C965 C961 1.408 . S
C965 C964 1.404 . S
C965 H977 0.930 . S
C966 C962 1.524 . S
C966 H978 0.956 . S
C966 H979 0.961 . S
C966 H980 0.961 . S
C967 C964 1.539 . S
C967 H981 0.958 . S
C967 H982 0.961 . S
C967 H983 0.960 . S
H968 C952 0.931 . S
H969 C957 0.929 . S
H970 C958 0.960 . S
H971 C958 0.962 . S
H972 C958 0.960 . S
H973 C959 0.961 . S
H974 C959 0.961 . S
H975 C959 0.961 . S
H976 C960 0.931 . S
H977 C965 0.930 . S
H978 C966 0.956 . S
H979 C966 0.961 . S
H980 C966 0.961 . S
H981 C967 0.958 . S
H982 C967 0.961 . S
H983 C967 0.960 . S
C984 C985 1.391 . S
C984 C986 1.394 . S
C984 H1000 0.931 . S
C985 C984 1.391 . S
C985 C989 1.376 . S
C986 C984 1.394 . S
C986 C987 1.369 . S
C986 C990 1.531 . S
C987 C986 1.369 . S
C987 C988 1.410 . S
C987 C995 1.503 . S
C988 C987 1.410 . S
C988 C989 1.392 . S
C988 C991 1.511 . S
C989 C985 1.376 . S
C989 C988 1.392 . S
C989 H1001 0.929 . S
C990 C986 1.531 . S
C990 H1002 0.960 . S
C990 H1003 0.962 . S
C990 H1004 0.960 . S
C991 C988 1.511 . S
C991 H1005 0.961 . S
C991 H1006 0.961 . S
C991 H1007 0.961 . S
C992 C993 1.370 . S
C992 C994 1.363 . S
C992 H1008 0.931 . S
C993 C992 1.370 . S
C993 C997 1.408 . S
C994 C992 1.363 . S
C994 C995 1.370 . S
C994 C998 1.524 . S
C995 C987 1.503 . S
C995 C994 1.370 . S
C995 C996 1.403 . S
C996 C995 1.403 . S
C996 C997 1.404 . S
C996 C999 1.539 . S
C997 C993 1.408 . S
C997 C996 1.404 . S
C997 H1009 0.930 . S
C998 C994 1.524 . S
C998 H1010 0.956 . S
C998 H1011 0.961 . S
C998 H1012 0.961 . S
C999 C996 1.539 . S
C999 H1013 0.958 . S
C999 H1014 0.961 . S
C999 H1015 0.960 . S
H1000 C984 0.931 . S
H1001 C989 0.929 . S
H1002 C990 0.960 . S
H1003 C990 0.962 . S
H1004 C990 0.960 . S
H1005 C991 0.961 . S
H1006 C991 0.961 . S
H1007 C991 0.961 . S
H1008 C992 0.931 . S
H1009 C997 0.930 . S
H1010 C998 0.956 . S
H1011 C998 0.961 . S
H1012 C998 0.961 . S
H1013 C999 0.958 . S
H1014 C999 0.961 . S
H1015 C999 0.960 . S
C249 C4 1.107 . S
C257 C105 1.090 . S
C281 C16 1.237 . S
C289 C145 1.278 . S
C321 C170 2.014 . S
C313 C32 2.047 . S
C345 C43 2.345 . S
C353 C210 2.285 1_655 S
C385 C141 2.147 . S
C377 C5 2.065 . S
C417 C101 1.418 . S
C409 C21 1.315 . S
C449 C232 1.632 . S
C441 C27 1.629 . S
C481 C192 1.583 . S
C473 C37 1.632 . S
C505 C10 1.172 . S
C513 C234 1.202 . S
C545 C151 2.364 1_556 S
C537 C26 2.390 . S
C569 C38 1.891 . S
C577 C111 1.860 . S
C601 C15 1.464 . S
C609 C194 1.539 . S
C641 C114 1.243 . S
C633 C48 1.234 . S
C665 C59 1.061 . S
C673 C154 1.040 . S
C697 C76 2.353 . S
C705 C191 2.309 . S
C729 C87 2.131 . S
C737 C231 2.102 . S
C761 C54 1.402 . S
C769 C152 1.477 1_556 S
C801 C112 2.115 . S
C793 C60 2.028 . S
C833 C221 1.561 . S
C825 C71 1.605 . S
C865 C181 1.636 . S
C857 C82 1.624 . S
C889 C49 1.580 . S
C897 C225 1.607 . S
C929 C130 1.809 . S
C921 C70 1.837 . S
C961 C90 2.332 . S
C953 C81 2.362 . S
C985 C65 1.227 . S
C993 C185 1.207 . S
