# Generated by pormake.
# Topology zzz, (3,6)-cn, num edge types: 1
# Building blocks:
#     Node 0, Type 0, BuildingBlock: BETDIP_clean_linker_0, # of connection points: 3
#     Node 1, Type 0, BuildingBlock: BETDIP_clean_linker_0, # of connection points: 3
#     Node 2, Type 0, BuildingBlock: BETDIP_clean_linker_0, # of connection points: 3
#     Node 3, Type 0, BuildingBlock: BETDIP_clean_linker_0, # of connection points: 3
#     Node 4, Type 0, BuildingBlock: BETDIP_clean_linker_0, # of connection points: 3
#     Node 5, Type 0, BuildingBlock: BETDIP_clean_linker_0, # of connection points: 3
#     Node 6, Type 0, BuildingBlock: BETDIP_clean_linker_0, # of connection points: 3
#     Node 7, Type 0, BuildingBlock: BETDIP_clean_linker_0, # of connection points: 3
#     Node 8, Type 1, BuildingBlock: PAMTOO_clean_sbu_0, # of connection points: 6
#     Node 9, Type 1, BuildingBlock: PAMTOO_clean_sbu_0, # of connection points: 6
#     Node 10, Type 1, BuildingBlock: PAMTOO_clean_sbu_0, # of connection points: 6
#     Node 11, Type 1, BuildingBlock: PAMTOO_clean_sbu_0, # of connection points: 6
#     Edge 12, Type (0, 1), BuildingBlock: TEMPAE_clean_linker_10, # of connection points: 2
#     Edge 13, Type (0, 1), BuildingBlock: TEMPAE_clean_linker_10, # of connection points: 2
#     Edge 14, Type (0, 1), BuildingBlock: TEMPAE_clean_linker_10, # of connection points: 2
#     Edge 15, Type (0, 1), BuildingBlock: TEMPAE_clean_linker_10, # of connection points: 2
#     Edge 16, Type (0, 1), BuildingBlock: TEMPAE_clean_linker_10, # of connection points: 2
#     Edge 17, Type (0, 1), BuildingBlock: TEMPAE_clean_linker_10, # of connection points: 2
#     Edge 18, Type (0, 1), BuildingBlock: TEMPAE_clean_linker_10, # of connection points: 2
#     Edge 19, Type (0, 1), BuildingBlock: TEMPAE_clean_linker_10, # of connection points: 2
#     Edge 20, Type (0, 1), BuildingBlock: TEMPAE_clean_linker_10, # of connection points: 2
#     Edge 21, Type (0, 1), BuildingBlock: TEMPAE_clean_linker_10, # of connection points: 2
#     Edge 22, Type (0, 1), BuildingBlock: TEMPAE_clean_linker_10, # of connection points: 2
#     Edge 23, Type (0, 1), BuildingBlock: TEMPAE_clean_linker_10, # of connection points: 2
#     Edge 24, Type (0, 1), BuildingBlock: TEMPAE_clean_linker_10, # of connection points: 2
#     Edge 25, Type (0, 1), BuildingBlock: TEMPAE_clean_linker_10, # of connection points: 2
#     Edge 26, Type (0, 1), BuildingBlock: TEMPAE_clean_linker_10, # of connection points: 2
#     Edge 27, Type (0, 1), BuildingBlock: TEMPAE_clean_linker_10, # of connection points: 2
#     Edge 28, Type (0, 1), BuildingBlock: TEMPAE_clean_linker_10, # of connection points: 2
#     Edge 29, Type (0, 1), BuildingBlock: TEMPAE_clean_linker_10, # of connection points: 2
#     Edge 30, Type (0, 1), BuildingBlock: TEMPAE_clean_linker_10, # of connection points: 2
#     Edge 31, Type (0, 1), BuildingBlock: TEMPAE_clean_linker_10, # of connection points: 2
#     Edge 32, Type (0, 1), BuildingBlock: TEMPAE_clean_linker_10, # of connection points: 2
#     Edge 33, Type (0, 1), BuildingBlock: TEMPAE_clean_linker_10, # of connection points: 2
#     Edge 34, Type (0, 1), BuildingBlock: TEMPAE_clean_linker_10, # of connection points: 2
#     Edge 35, Type (0, 1), BuildingBlock: TEMPAE_clean_linker_10, # of connection points: 2
# Relax obj value: 0.219
# Max RMSD: 0.239
# Mean RMSD: 0.125
data_MOF--net-zzz--node1-PAMTOO_clean_sbu_0--node2-BETDIP_clean_linker_0--edge1-TEMPAE_clean_linker_10
_symmetry_space_group_name_H-M    P1
_symmetry_Int_Tables_number       1
_symmetry_cell_setting            triclinic
loop_
_symmetry_equiv_pos_as_xyz
'x, y, z'
_cell_length_a     58.266655
_cell_length_b     50.015039
_cell_length_c     15.721832
_cell_angle_alpha  92.075304
_cell_angle_beta   79.837448
_cell_angle_gamma 85.936662
loop_
_atom_site_label
_atom_site_type_symbol
_atom_site_fract_x
_atom_site_fract_y
_atom_site_fract_z
_atom_type_partial_charge
H0 H 0.78994 0.52265 0.64873 0.0
H1 H 0.77512 0.5441 0.39971 0.0
H2 H 0.84594 0.53675 0.44175 0.0
H3 H 0.73931 0.57213 0.55029 0.0
C4 C 0.73802 0.55099 0.53499 0.0
C5 C 0.79595 0.52862 0.58352 0.0
C6 C 0.82015 0.52952 0.55211 0.0
C7 C 0.77954 0.53484 0.52913 0.0
C8 C 0.78749 0.54117 0.4432 0.0
C9 C 0.8114 0.54142 0.41099 0.0
C10 C 0.82737 0.53674 0.46682 0.0
N11 N 0.75527 0.53218 0.55724 0.0
H12 H 1.00893 0.72354 0.5831 0.0
H13 H 0.98328 0.71137 0.34424 0.0
H14 H 0.98562 0.7911 0.45021 0.0
H15 H 0.96477 0.67492 0.46188 0.0
C16 C 0.98319 0.66816 0.44329 0.0
C17 C 1.00131 0.73155 0.53041 0.0
C18 C 0.99713 0.75966 0.52558 0.0
C19 C 0.99546 0.71388 0.46617 0.0
C20 C 0.98649 0.72461 0.39628 0.0
C21 C 0.98291 0.7523 0.3903 0.0
C22 C 0.98773 0.76954 0.456 0.0
N23 N 0.99963 0.68545 0.468 0.0
H24 H 0.75822 0.98982 0.43493 0.0
H25 H 0.7734 1.00202 0.16009 0.0
H26 H 0.70247 0.00724 0.29286 0.0
H27 H 0.79968 0.95921 0.18945 0.0
C28 C 0.80805 0.97407 0.22307 0.0
C29 C 0.75232 0.99383 0.37477 0.0
C30 C 0.72794 0.99863 0.37395 0.0
C31 C 0.76899 0.99436 0.29647 0.0
C32 C 0.76101 1.00043 0.21947 0.0
C33 C 0.73718 0.00482 0.21868 0.0
C34 C 0.72096 1.00355 0.29491 0.0
N35 N 0.79369 0.98961 0.29381 0.0
H36 H 0.5382 0.74792 0.40355 0.0
H37 H 0.51543 0.74354 0.1565 0.0
H38 H 0.50897 0.67688 0.3204 0.0
H39 H 0.55212 0.76804 0.1315 0.0
C40 C 0.54344 0.78367 0.17851 0.0
C41 C 0.53034 0.73719 0.35638 0.0
C42 C 0.52378 0.71086 0.37139 0.0
C43 C 0.52728 0.7493 0.27866 0.0
C44 C 0.51772 0.73473 0.2167 0.0
C45 C 0.51077 0.7089 0.23263 0.0
C46 C 0.51363 0.6973 0.3099 0.0
N47 N 0.53359 0.77602 0.263 0.0
H48 H 0.23653 0.48678 0.0214 0.0
H49 H 0.24535 0.53685 0.24023 0.0
H50 H 0.18255 0.54745 0.13455 0.0
H51 H 0.28573 0.53534 0.10917 0.0
C52 C 0.28601 0.51532 0.13399 0.0
C53 C 0.23005 0.5032 0.06825 0.0
C54 C 0.20734 0.51575 0.07185 0.0
C55 C 0.24427 0.51184 0.12661 0.0
C56 C 0.23517 0.53184 0.19131 0.0
C57 C 0.21252 0.54391 0.19668 0.0
C58 C 0.19957 0.53699 0.13325 0.0
N59 N 0.26713 0.49945 0.12479 0.0
H60 H 0.02206 0.27417 0.99799 0.0
H61 H 0.04515 0.28685 0.24134 0.0
H62 H 0.05659 0.20911 0.11006 0.0
H63 H 0.99597 0.3086 0.23399 0.0
C64 C 1.00881 0.32161 0.20309 0.0
C65 C 0.03113 0.26674 0.04791 0.0
C66 C 0.03988 0.2395 0.04408 0.0
C67 C 0.03341 0.28404 0.11889 0.0
C68 C 0.04414 0.27391 0.1855 0.0
C69 C 0.05286 0.24707 0.18198 0.0
C70 C 0.05106 0.2303 0.11047 0.0
N71 N 0.0242 0.31133 0.12631 0.0
H72 H 0.27622 0.0087 0.16215 0.0
H73 H 0.26321 0.98016 0.42171 0.0
H74 H 0.33347 0.98169 0.2862 0.0
H75 H 0.23385 0.95974 0.34189 0.0
C76 C 0.22634 0.98012 0.33823 0.0
C77 C 0.28262 1.00103 0.21783 0.0
C78 C 0.30711 0.99563 0.21441 0.0
C79 C 0.26644 0.99503 0.2927 0.0
C80 C 0.27513 0.98461 0.3638 0.0
C81 C 0.29914 0.98023 0.36135 0.0
C82 C 0.31484 0.98574 0.28743 0.0
N83 N 0.24158 0.99907 0.2975 0.0
H84 H 0.50304 0.26177 0.21073 0.0
H85 H 0.53367 0.26591 0.44188 0.0
H86 H 0.51927 0.33768 0.31417 0.0
H87 H 0.55068 0.22367 0.37514 0.0
C88 C 0.53393 0.21585 0.37131 0.0
C89 C 0.5099 0.2733 0.25889 0.0
C90 C 0.51014 0.30145 0.25426 0.0
C91 C 0.51859 0.2601 0.32625 0.0
C92 C 0.52748 0.27543 0.38845 0.0
C93 C 0.52756 0.30329 0.38406 0.0
C94 C 0.51891 0.31605 0.3174 0.0
N95 N 0.51748 0.23178 0.33329 0.0
Dy96 Dy 1.00472 0.00713 0.70885 0.0
Dy97 Dy 0.02868 0.99252 0.87227 0.0
C98 C 0.0609 1.00178 0.69116 0.0
O99 O 0.99865 0.96366 0.72229 0.0
O100 O 0.02737 0.95297 0.80042 0.0
O101 O 1.00196 1.00072 0.57438 0.0
O102 O 0.98061 0.03285 0.65318 0.0
O103 O 0.99091 0.98466 0.91534 0.0
O104 O 0.97443 0.01016 0.82079 0.0
O105 O 0.01981 0.03695 0.89004 0.0
O106 O 0.01902 0.04531 0.74888 0.0
O107 O 0.03002 0.99609 0.00866 0.0
O108 O 0.0565 0.97088 0.92172 0.0
C109 C 1.01211 0.94568 0.75325 0.0
O110 O 0.04293 0.99642 0.655 0.0
O111 O 0.05813 0.00618 0.77536 0.0
C112 C 1.00025 0.04371 0.51912 0.0
C113 C 0.02008 0.09029 0.45673 0.0
C114 C 0.03429 0.06896 0.47958 0.0
C115 C 0.02448 0.04586 0.51043 0.0
C116 C 0.98619 0.06434 0.49155 0.0
C117 C 0.99608 0.08748 0.46003 0.0
C118 C 0.98949 0.02349 0.57494 0.0
C119 C 0.97241 0.99686 0.89211 0.0
C120 C 0.01997 0.05388 0.82804 0.0
C121 C 0.0391 0.95215 0.04791 0.0
C122 C 0.02546 0.9008 0.0883 0.0
C123 C 1.00853 0.92191 0.08583 0.0
C124 C 0.01527 0.94739 0.06639 0.0
C125 C 0.05601 0.93136 0.05525 0.0
C126 C 0.0492 0.90581 0.07604 0.0
C127 C 0.04602 0.97608 1.0016 0.0
H128 H 0.05288 0.07052 0.47636 0.0
H129 H 0.03568 0.03042 0.5325 0.0
H130 H 0.96743 0.06328 0.49951 0.0
H131 H 0.98476 0.10377 0.44291 0.0
H132 H 0.99009 0.91856 0.09715 0.0
H133 H 1.00181 0.96295 0.06101 0.0
H134 H 0.07447 0.93449 0.03989 0.0
H135 H 0.06248 0.8897 0.07863 0.0
Dy136 Dy 0.51158 0.98299 0.71757 0.0
Dy137 Dy 0.52141 0.02259 0.87174 0.0
C138 C 0.51261 0.04511 0.69382 0.0
O139 O 0.55102 0.98075 0.69496 0.0
O140 O 0.55665 0.01629 0.78433 0.0
O141 O 0.49794 0.97635 0.6006 0.0
O142 O 0.51256 0.94265 0.66169 0.0
O143 O 0.53378 0.98131 0.90436 0.0
O144 O 0.50821 0.95981 0.83786 0.0
O145 O 0.48446 0.01207 0.91695 0.0
O146 O 0.47585 1.00068 0.78451 0.0
O147 O 0.52509 0.03229 0.00367 0.0
O148 O 0.52737 0.06295 0.90976 0.0
C149 C 0.56482 0.99748 0.72343 0.0
O150 O 0.52055 0.02158 0.65682 0.0
O151 O 0.50548 0.04739 0.77784 0.0
C152 C 0.47847 0.93726 0.6044 0.0
C153 C 0.43379 0.92198 0.58922 0.0
C154 C 0.43716 0.9368 0.66323 0.0
C155 C 0.45934 0.94414 0.67097 0.0
C156 C 0.47573 0.92058 0.53416 0.0
C157 C 0.45357 0.91266 0.52715 0.0
C158 C 0.50021 0.95029 0.60406 0.0
C159 C 0.52232 0.96008 0.89424 0.0
C160 C 0.46905 0.00682 0.86785 0.0
C161 C 0.55415 0.06294 0.00613 0.0
C162 C 0.60065 0.06757 0.0286 0.0
C163 C 0.58531 0.05355 0.08714 0.0
C164 C 0.56227 0.0514 0.0763 0.0
C165 C 0.56899 0.07848 0.95093 0.0
C166 C 0.59203 0.08072 0.96201 0.0
C167 C 0.53139 0.05627 0.98542 0.0
H168 H 0.4225 0.9446 0.71216 0.0
H169 H 0.46124 0.95673 0.72633 0.0
H170 H 0.49043 0.91483 0.48271 0.0
H171 H 0.45174 0.9006 0.47051 0.0
H172 H 0.59141 0.04291 0.13871 0.0
H173 H 0.55119 0.03952 0.12024 0.0
H174 H 0.56318 0.08799 0.8968 0.0
H175 H 0.6033 0.09204 0.91685 0.0
Dy176 Dy 0.54269 0.50763 0.86027 0.0
Dy177 Dy 0.49708 0.50108 0.75193 0.0
C178 C 0.50957 0.45858 0.89322 0.0
O179 O 0.55724 0.47791 0.75038 0.0
O180 O 0.52364 0.46812 0.69837 0.0
O181 O 0.57877 0.5146 0.87047 0.0
O182 O 0.55249 0.5099 0.98642 0.0
O183 O 0.52028 0.52999 0.68041 0.0
O184 O 0.54 0.54493 0.78566 0.0
O185 O 0.48995 0.5393 0.83272 0.0
O186 O 0.5087 0.52432 0.93865 0.0
O187 O 0.45954 0.50057 0.75243 0.0
O188 O 0.48499 0.49589 0.63084 0.0
C189 C 0.54601 0.46384 0.70077 0.0
O190 O 0.53038 0.46744 0.89041 0.0
O191 O 0.49323 0.47081 0.85638 0.0
C192 C 0.59172 0.51738 0.01164 0.0
C193 C 0.62488 0.52144 0.12365 0.0
C194 C 0.60069 0.52582 0.15566 0.0
C195 C 0.58437 0.52367 0.10058 0.0
C196 C 0.61583 0.51352 0.97887 0.0
C197 C 0.6322 0.51543 0.03417 0.0
C198 C 0.57419 0.51369 0.95478 0.0
C199 C 0.53232 0.54802 0.71234 0.0
C200 C 0.49501 0.54246 0.91012 0.0
C201 C 0.444 0.49506 0.61682 0.0
C202 C 0.40789 0.49207 0.51712 0.0
C203 C 0.43139 0.49302 0.47685 0.0
C204 C 0.44916 0.49444 0.52593 0.0
C205 C 0.4206 0.49396 0.65747 0.0
C206 C 0.40277 0.49245 0.60826 0.0
C207 C 0.46304 0.49725 0.66803 0.0
H208 H 0.59426 0.5311 0.2235 0.0
H209 H 0.56592 0.52693 0.12788 0.0
H210 H 0.62204 0.50845 0.91074 0.0
H211 H 0.65059 0.5116 0.00687 0.0
H212 H 0.43607 0.49329 0.40712 0.0
H213 H 0.46697 0.4954 0.4924 0.0
H214 H 0.41605 0.49431 0.72736 0.0
H215 H 0.38497 0.49143 0.64175 0.0
Dy216 Dy 0.02511 0.52962 0.71813 0.0
Dy217 Dy 0.01611 0.47673 0.83287 0.0
C218 C 0.02785 0.47076 0.62995 0.0
O219 O 0.98612 0.53011 0.74988 0.0
O220 O 0.98219 0.4865 0.78686 0.0
O221 O 0.04132 0.54725 0.60156 0.0
O222 O 0.01812 0.57192 0.702 0.0
O223 O 1.00434 0.51258 0.92519 0.0
O224 O 0.0272 0.54287 0.85343 0.0
O225 O 0.05344 0.48267 0.83768 0.0
O226 O 0.06115 0.51504 0.73754 0.0
O227 O 0.0147 0.45598 0.95166 0.0
O228 O 1.00668 0.43578 0.83796 0.0
C229 C 0.97333 0.5096 0.76473 0.0
O230 O 0.01928 0.49571 0.62812 0.0
O231 O 0.03438 0.46221 0.7005 0.0
C232 C 0.05171 0.59055 0.62941 0.0
C233 C 0.09359 0.61634 0.61161 0.0
C234 C 0.08083 0.61524 0.54326 0.0
C235 C 0.06009 0.60246 0.55222 0.0
C236 C 0.06307 0.59369 0.70046 0.0
C237 C 0.08373 0.60675 0.6919 0.0
C238 C 0.03357 0.57159 0.63086 0.0
C239 C 0.01441 0.53533 0.92438 0.0
C240 C 0.06789 0.49792 0.79175 0.0
C241 C 0.98108 0.43185 0.97022 0.0
C242 C 0.93416 0.44462 0.047 0.0
C243 C 0.95194 0.44641 0.09641 0.0
C244 C 0.97525 0.43989 0.05839 0.0
C245 C 0.96303 0.42626 0.92492 0.0
C246 C 0.93974 0.43271 0.96303 0.0
C247 C 1.0046 0.43603 0.92199 0.0
H248 H 0.08783 0.62196 0.4799 0.0
H249 H 0.05156 0.60014 0.49672 0.0
H250 H 0.05682 0.58458 0.76084 0.0
H251 H 0.09281 0.60758 0.74627 0.0
H252 H 0.94817 0.45535 0.16164 0.0
H253 H 0.98877 0.44391 0.09537 0.0
H254 H 0.96686 0.41942 0.8574 0.0
H255 H 0.92626 0.43039 0.92446 0.0
C256 C 0.1892 0.96535 0.4205 0.0
C257 C 0.20148 0.98645 0.38319 0.0
C258 C 0.16627 0.96966 0.46792 0.0
C259 C 0.15492 0.99587 0.4791 0.0
C260 C 0.16708 0.01737 0.44064 0.0
C261 C 0.19021 0.01244 0.39325 0.0
C262 C 0.15431 0.94602 0.50717 0.0
C263 C 0.15573 0.04562 0.45049 0.0
C264 C 0.08809 0.99828 0.5456 0.0
C265 C 0.08479 1.00219 0.63616 0.0
C266 C 0.11058 0.99741 0.49354 0.0
C267 C 0.13054 1.00039 0.53228 0.0
C268 C 0.12725 0.00512 0.62337 0.0
C269 C 0.10456 0.006 0.67387 0.0
C270 C 0.11302 0.99241 0.39701 0.0
C271 C 0.14784 0.00839 0.66809 0.0
H272 H 0.19772 0.94521 0.41339 0.0
H273 H 0.19951 0.02893 0.36516 0.0
H274 H 0.14992 0.94929 0.57855 0.0
H275 H 0.13765 0.94407 0.48336 0.0
H276 H 0.16535 0.92684 0.49164 0.0
H277 H 0.16703 0.05999 0.41459 0.0
H278 H 0.13887 0.04626 0.4268 0.0
H279 H 0.15177 0.05232 0.51993 0.0
H280 H 0.07308 0.99548 0.51511 0.0
H281 H 0.10241 0.00916 0.74347 0.0
H282 H 0.12237 0.97243 0.37754 0.0
H283 H 0.12361 0.00758 0.36233 0.0
H284 H 0.0958 0.99302 0.37573 0.0
H285 H 0.15905 0.98927 0.66125 0.0
H286 H 0.14234 0.01406 0.73808 0.0
H287 H 0.15872 0.02394 0.63729 0.0
C288 C 0.50736 0.17869 0.41482 0.0
C289 C 0.52899 0.18972 0.41063 0.0
C290 C 0.50294 0.15458 0.45678 0.0
C291 C 0.52051 0.14127 0.4956 0.0
C292 C 0.54246 0.15223 0.49012 0.0
C293 C 0.54638 0.1762 0.44783 0.0
C294 C 0.47936 0.14355 0.46079 0.0
C295 C 0.56173 0.1389 0.53041 0.0
C296 C 0.50583 0.095 0.68207 0.0
C297 C 0.5126 0.06946 0.64153 0.0
C298 C 0.50745 0.11839 0.63484 0.0
C299 C 0.516 0.11639 0.54447 0.0
C300 C 0.52209 0.09062 0.5026 0.0
C301 C 0.52037 0.06754 0.55152 0.0
C302 C 0.50085 0.14537 0.6824 0.0
C303 C 0.5312 0.08747 0.40647 0.0
H304 H 0.49381 0.18903 0.38638 0.0
H305 H 0.56313 0.18465 0.44488 0.0
H306 H 0.48155 0.1225 0.43405 0.0
H307 H 0.47043 0.14332 0.52917 0.0
H308 H 0.46792 0.15554 0.42438 0.0
H309 H 0.57796 0.14963 0.51878 0.0
H310 H 0.55581 0.13811 0.60128 0.0
H311 H 0.56593 0.11792 0.50395 0.0
H312 H 0.49978 0.09684 0.75143 0.0
H313 H 0.52558 0.04797 0.51925 0.0
H314 H 0.4883 0.1574 0.65081 0.0
H315 H 0.51665 0.15668 0.6798 0.0
H316 H 0.49289 0.14351 0.75134 0.0
H317 H 0.51927 0.0989 0.37069 0.0
H318 H 0.53315 0.06614 0.38231 0.0
H319 H 0.54851 0.09585 0.39143 0.0
C320 C 0.30257 0.48581 0.23987 0.0
C321 C 0.30419 0.50768 0.1863 0.0
C322 C 0.31892 0.48069 0.29493 0.0
C323 C 0.33736 0.49774 0.29592 0.0
C324 C 0.33932 0.51937 0.24005 0.0
C325 C 0.3227 0.52411 0.18649 0.0
C326 C 0.31612 0.45751 0.35369 0.0
C327 C 0.35874 0.53794 0.23806 0.0
C328 C 0.36734 0.50642 0.49117 0.0
C329 C 0.38891 0.49148 0.46394 0.0
C330 C 0.35003 0.50764 0.43887 0.0
C331 C 0.35432 0.49373 0.35675 0.0
C332 C 0.37569 0.47789 0.33008 0.0
C333 C 0.39263 0.47689 0.3839 0.0
C334 C 0.32749 0.52471 0.4702 0.0
C335 C 0.38105 0.46271 0.24322 0.0
H336 H 0.2882 0.47315 0.24058 0.0
H337 H 0.32399 0.54107 0.14528 0.0
H338 H 0.33257 0.44429 0.34417 0.0
H339 H 0.31254 0.46521 0.42219 0.0
H340 H 0.30164 0.44534 0.34224 0.0
H341 H 0.35835 0.55318 0.18854 0.0
H342 H 0.35725 0.54852 0.30229 0.0
H343 H 0.37598 0.52622 0.22428 0.0
H344 H 0.36424 0.51801 0.55223 0.0
H345 H 0.40897 0.46481 0.36269 0.0
H346 H 0.31227 0.51305 0.46467 0.0
H347 H 0.32657 0.54216 0.42899 0.0
H348 H 0.32591 0.53228 0.53845 0.0
H349 H 0.36661 0.45007 0.23523 0.0
H350 H 0.39762 0.44969 0.23471 0.0
H351 H 0.38248 0.47714 0.1909 0.0
C352 C 0.03199 0.36114 0.23045 0.0
C353 C 1.01218 0.34667 0.25221 0.0
C354 C 0.03585 0.38312 0.28384 0.0
C355 C 0.01951 0.39083 0.36051 0.0
C356 C 0.99911 0.37679 0.38062 0.0
C357 C 0.99578 0.35494 0.32656 0.0
C358 C 0.0578 0.3975 0.25981 0.0
C359 C 0.98111 0.38427 0.46106 0.0
C360 C 0.03745 0.42466 0.55746 0.0
C361 C 0.02809 0.45125 0.55537 0.0
C362 C 0.03569 0.40518 0.49247 0.0
C363 C 0.02423 0.41227 0.42317 0.0
C364 C 0.01556 0.43931 0.4187 0.0
C365 C 0.01759 0.45844 0.48466 0.0
C366 C 0.04528 0.37669 0.50006 0.0
C367 C 1.00322 0.44782 0.34619 0.0
H368 H 0.04481 0.35483 0.17331 0.0
H369 H 0.98043 0.34384 0.34366 0.0
H370 H 0.0534 0.41946 0.26031 0.0
H371 H 0.06922 0.39401 0.30846 0.0
H372 H 0.0678 0.3906 0.19498 0.0
H373 H 0.96555 0.37245 0.46482 0.0
H374 H 0.98901 0.38081 0.51935 0.0
H375 H 0.97524 0.40591 0.46292 0.0
H376 H 0.04569 0.41879 0.61129 0.0
H377 H 1.01028 0.47887 0.48209 0.0
H378 H 0.05681 0.36922 0.43872 0.0
H379 H 0.03065 0.36346 0.51189 0.0
H380 H 0.05535 0.37484 0.55361 0.0
H381 H 1.01373 0.44059 0.28263 0.0
H382 H 0.99982 0.46997 0.3464 0.0
H383 H 0.98624 0.43866 0.35265 0.0
C384 C 0.84451 0.96114 0.11618 0.0
C385 C 0.83294 0.97851 0.18511 0.0
C386 C 0.86729 0.96488 0.07298 0.0
C387 C 0.8792 0.98669 0.09862 0.0
C388 C 0.86777 1.00418 0.16924 0.0
C389 C 0.8448 0.99991 0.21163 0.0
C390 C 0.87849 0.9456 0.99864 0.0
C391 C 0.87971 0.02765 0.19912 0.0
C392 C 0.94586 0.98043 0.02222 0.0
C393 C 0.94865 0.99526 0.94719 0.0
C394 C 0.92361 0.97826 0.07354 0.0
C395 C 0.90333 0.99115 0.04986 0.0
C396 C 0.90606 0.00654 0.97508 0.0
C397 C 0.92853 0.0084 0.92501 0.0
C398 C 0.92178 0.96158 0.1522 0.0
C399 C 0.88511 0.02057 0.94658 0.0
H400 H 0.83552 0.94457 0.09494 0.0
H401 H 0.83604 0.01356 0.26437 0.0
H402 H 0.88233 0.9566 0.93836 0.0
H403 H 0.89537 0.93636 0.0112 0.0
H404 H 0.86716 0.92933 0.98767 0.0
H405 H 0.86897 0.03887 0.25647 0.0
H406 H 0.89679 0.02057 0.21555 0.0
H407 H 0.88331 0.04162 0.146 0.0
H408 H 0.96108 0.97013 0.04062 0.0
H409 H 0.93025 0.02001 0.86766 0.0
H410 H 0.91182 0.94395 0.14263 0.0
H411 H 0.91203 0.97346 0.20995 0.0
H412 H 0.9392 0.95431 0.16549 0.0
H413 H 0.87355 0.00547 0.92835 0.0
H414 H 0.89016 0.03311 0.89043 0.0
H415 H 0.87476 0.03352 1.00068 0.0
C416 C 0.5267 0.83221 0.19795 0.0
C417 C 0.54146 0.81164 0.14927 0.0
C418 C 0.52358 0.85782 0.16446 0.0
C419 C 0.5356 0.86298 0.08062 0.0
C420 C 0.5511 0.84245 0.03287 0.0
C421 C 0.55372 0.81714 0.06754 0.0
C422 C 0.50684 0.87904 0.21752 0.0
C423 C 0.56441 0.84692 0.94367 0.0
C424 C 0.51079 0.9147 0.94155 0.0
C425 C 0.52496 0.93609 0.94675 0.0
C426 C 0.5135 0.89136 0.98729 0.0
C427 C 0.53094 0.88902 0.03964 0.0
C428 C 0.54495 0.91077 0.04695 0.0
C429 C 0.54177 0.93403 1.00068 0.0
C430 C 0.49808 0.86883 0.97755 0.0
C431 C 0.56379 0.90916 0.10164 0.0
H432 H 0.51707 0.82812 0.26101 0.0
H433 H 0.56517 0.80132 0.02964 0.0
H434 H 0.51545 0.89798 0.22228 0.0
H435 H 0.49165 0.88344 0.18509 0.0
H436 H 0.5003 0.87272 0.28389 0.0
H437 H 0.57692 0.82956 0.91736 0.0
H438 H 0.55195 0.85039 0.89862 0.0
H439 H 0.57424 0.86508 0.94524 0.0
H440 H 0.49762 0.91602 0.90076 0.0
H441 H 0.5528 0.95038 0.0055 0.0
H442 H 0.48953 0.86288 0.0421 0.0
H443 H 0.50888 0.85098 0.94482 0.0
H444 H 0.48431 0.87443 0.93931 0.0
H445 H 0.55645 0.90354 0.16798 0.0
H446 H 0.57202 0.92842 0.10592 0.0
H447 H 0.57759 0.89326 0.07362 0.0
C448 C 0.70325 0.563 0.46808 0.0
C449 C 0.72103 0.54374 0.47907 0.0
C450 C 0.68772 0.55799 0.41136 0.0
C451 C 0.69018 0.53318 0.36296 0.0
C452 C 0.70802 0.51349 0.37432 0.0
C453 C 0.72316 0.51892 0.43265 0.0
C454 C 0.66885 0.57948 0.40243 0.0
C455 C 0.71145 0.48692 0.32335 0.0
C456 C 0.63715 0.51428 0.2682 0.0
C457 C 0.64224 0.52316 0.18352 0.0
C458 C 0.65276 0.51684 0.32645 0.0
C459 C 0.67425 0.52828 0.29964 0.0
C460 C 0.67985 0.53656 0.21364 0.0
C461 C 0.6638 0.53405 0.15699 0.0
C462 C 0.64598 0.50783 0.41748 0.0
C463 C 0.7026 0.54873 0.18198 0.0
H464 H 0.7016 0.58223 0.50365 0.0
H465 H 0.73702 0.50404 0.44003 0.0
H466 H 0.67144 0.58609 0.33504 0.0
H467 H 0.65144 0.5713 0.41606 0.0
H468 H 0.66874 0.59729 0.44688 0.0
H469 H 0.72568 0.47347 0.34107 0.0
H470 H 0.69503 0.47659 0.33422 0.0
H471 H 0.71574 0.49032 0.25317 0.0
H472 H 0.62087 0.50527 0.28931 0.0
H473 H 0.66795 0.54128 0.09239 0.0
H474 H 0.64441 0.52532 0.4642 0.0
H475 H 0.65977 0.4933 0.43283 0.0
H476 H 0.6291 0.49832 0.42736 0.0
H477 H 0.70295 0.56816 0.21794 0.0
H478 H 0.70517 0.5523 0.11171 0.0
H479 H 0.71755 0.53539 0.19454 0.0
C480 C 0.97184 0.63881 0.32891 0.0
C481 C 0.98944 0.64677 0.37262 0.0
C482 C 0.97669 0.61973 0.25899 0.0
C483 C 0.99969 0.60759 0.23275 0.0
C484 C 0.01747 0.61491 0.27849 0.0
C485 C 1.01221 0.63468 0.34722 0.0
C486 C 0.95723 0.61312 0.21163 0.0
C487 C 0.04208 0.60203 0.25433 0.0
C488 C 1.00426 0.54365 0.08679 0.0
C489 C 1.01125 0.55334 0.00423 0.0
C490 C 1.00144 0.56076 0.16202 0.0
C491 C 1.0051 0.58841 0.1547 0.0
C492 C 1.01226 0.59819 0.07145 0.0
C493 C 0.01548 0.58057 0.99772 0.0
C494 C 0.9943 0.54928 0.24936 0.0
C495 C 0.01584 0.62754 0.05985 0.0
H496 H 0.95421 0.64811 0.34817 0.0
H497 H 0.02585 0.64056 0.38115 0.0
H498 H 0.9618 0.61822 0.14289 0.0
H499 H 0.95497 0.5913 0.21235 0.0
H500 H 0.94026 0.62417 0.24044 0.0
H501 H 0.05332 0.60794 0.30097 0.0
H502 H 0.04189 0.57985 0.25142 0.0
H503 H 0.05006 0.60795 0.18904 0.0
H504 H 1.00119 0.52262 0.09275 0.0
H505 H 0.02082 0.58835 0.9344 0.0
H506 H 0.97647 0.55777 0.27922 0.0
H507 H 1.0063 0.55494 0.29331 0.0
H508 H 0.99432 0.52705 0.24494 0.0
H509 H 0.99915 0.63978 0.08375 0.0
H510 H 0.02202 0.63188 0.99114 0.0
H511 H 0.02877 0.63409 0.09863 0.0
C512 C 0.07745 0.21422 0.2485 0.0
C513 C 0.05911 0.23444 0.25914 0.0
C514 C 0.07627 0.19266 0.30303 0.0
C515 C 0.05646 0.19189 0.36911 0.0
C516 C 0.04096 0.21514 0.39148 0.0
C517 C 0.04243 0.23636 0.33556 0.0
C518 C 0.09387 0.16878 0.27995 0.0
C519 C 0.0203 0.21561 0.46448 0.0
C520 C 0.02507 0.1286 0.36076 0.0
C521 C 0.03006 0.11589 0.43369 0.0
C522 C 0.03382 0.15323 0.33914 0.0
C523 C 0.04788 0.16548 0.39225 0.0
C524 C 0.0532 0.15257 0.46568 0.0
C525 C 0.04417 0.12784 0.48564 0.0
C526 C 0.02794 0.16607 0.25918 0.0
C527 C 0.06784 0.16502 0.52441 0.0
H528 H 0.09082 0.21326 0.19071 0.0
H529 H 0.0285 0.25233 0.34523 0.0
H530 H 0.09704 0.15849 0.33862 0.0
H531 H 0.08698 0.1542 0.2378 0.0
H532 H 0.11077 0.17479 0.24417 0.0
H533 H 1.0135 0.2365 0.48641 0.0
H534 H 1.00606 0.20531 0.44178 0.0
H535 H 0.025 0.2049 0.52026 0.0
H536 H 0.01439 0.11914 0.32026 0.0
H537 H 0.04776 0.11809 0.54289 0.0
H538 H 0.04421 0.16801 0.21184 0.0
H539 H 0.01927 0.18651 0.2761 0.0
H540 H 0.01614 0.15425 0.22724 0.0
H541 H 0.08246 0.17508 0.48703 0.0
H542 H 0.0751 0.14986 0.56449 0.0
H543 H 0.05675 0.18045 0.56874 0.0
C544 C 0.30975 0.94086 0.44156 0.0
C545 C 0.30868 0.96867 0.43357 0.0
C546 C 0.3259 0.92831 0.4868 0.0
C547 C 0.34122 0.94412 0.52346 0.0
C548 C 0.33782 0.97248 0.52543 0.0
C549 C 0.32165 0.98446 0.47954 0.0
C550 C 0.32849 0.89809 0.48588 0.0
C551 C 0.35336 0.99012 0.56591 0.0
C552 C 0.39037 0.91967 0.6371 0.0
C553 C 0.40975 0.92069 0.57018 0.0
C554 C 0.36748 0.92529 0.62224 0.0
C555 C 0.36399 0.93182 0.53844 0.0
C556 C 0.38329 0.93026 0.46913 0.0
C557 C 0.40588 0.92486 0.48595 0.0
C558 C 0.34741 0.92632 0.69772 0.0
C559 C 0.38038 0.93674 0.37818 0.0
H560 H 0.29964 0.92875 0.4056 0.0
H561 H 0.32067 0.006 0.473 0.0
H562 H 0.3429 0.89046 0.4328 0.0
H563 H 0.33297 0.8911 0.54755 0.0
H564 H 0.31223 0.88925 0.47486 0.0
H565 H 0.34604 0.01137 0.57459 0.0
H566 H 0.3559 0.9829 0.62972 0.0
H567 H 0.37082 0.98935 0.52356 0.0
H568 H 0.3931 0.91584 0.70213 0.0
H569 H 0.42056 0.92605 0.43369 0.0
H570 H 0.33106 0.92062 0.67732 0.0
H571 H 0.34421 0.94709 0.72676 0.0
H572 H 0.35151 0.91288 0.74868 0.0
H573 H 0.3665 0.92528 0.35767 0.0
H574 H 0.39679 0.93208 0.33047 0.0
H575 H 0.37498 0.95842 0.37629 0.0
C576 C 0.5198 0.33741 0.50542 0.0
C577 C 0.53594 0.31998 0.44959 0.0
C578 C 0.52727 0.3581 0.55368 0.0
C579 C 0.55151 0.36156 0.54479 0.0
C580 C 0.56796 0.34261 0.49373 0.0
C581 C 0.55993 0.32196 0.44623 0.0
C582 C 0.50908 0.37758 0.60841 0.0
C583 C 0.59389 0.34532 0.48388 0.0
C584 C 0.55724 0.43567 0.56641 0.0
C585 C 0.55735 0.43905 0.65493 0.0
C586 C 0.55826 0.40996 0.52688 0.0
C587 C 0.55886 0.38723 0.578 0.0
C588 C 0.56163 0.39052 0.6654 0.0
C589 C 0.5609 0.41656 0.70297 0.0
C590 C 0.55563 0.40741 0.43313 0.0
C591 C 0.56246 0.36691 0.72214 0.0
H592 H 0.50125 0.33578 0.50735 0.0
H593 H 0.57235 0.30848 0.40229 0.0
H594 H 0.51331 0.38074 0.67393 0.0
H595 H 0.50896 0.39732 0.57835 0.0
H596 H 0.49123 0.37051 0.61521 0.0
H597 H 0.60422 0.32635 0.45785 0.0
H598 H 0.59885 0.36128 0.43848 0.0
H599 H 0.59869 0.35125 0.54676 0.0
H600 H 0.55416 0.45316 0.52989 0.0
H601 H 0.56049 0.41926 0.77203 0.0
H602 H 0.53753 0.40255 0.42933 0.0
H603 H 0.56775 0.39091 0.39819 0.0
H604 H 0.55903 0.42628 0.39953 0.0
H605 H 0.54437 0.36167 0.74664 0.0
H606 H 0.5707 0.37169 0.77887 0.0
H607 H 0.57221 0.34903 0.68543 0.0
C608 C 0.21261 0.58022 0.31323 0.0
C609 C 0.20089 0.56106 0.27358 0.0
C610 C 0.20101 0.59611 0.38614 0.0
C611 C 0.17709 0.59309 0.41832 0.0
C612 C 0.1654 0.57345 0.37886 0.0
C613 C 0.17756 0.55748 0.30861 0.0
C614 C 0.21444 0.61624 0.42672 0.0
C615 C 0.13987 0.56915 0.4101 0.0
C616 C 0.13527 0.60374 0.6215 0.0
C617 C 0.11885 0.62135 0.59174 0.0
C618 C 0.1578 0.59827 0.5727 0.0
C619 C 0.16339 0.61005 0.49206 0.0
C620 C 0.14912 0.63238 0.47359 0.0
C621 C 0.12691 0.63805 0.52475 0.0
C622 C 0.17367 0.57613 0.59887 0.0
C623 C 0.15533 0.64689 0.39133 0.0
H624 H 0.23071 0.58301 0.28693 0.0
H625 H 0.16863 0.54195 0.28093 0.0
H626 H 0.21439 0.63487 0.39053 0.0
H627 H 0.20677 0.62143 0.49556 0.0
H628 H 0.23297 0.60849 0.42244 0.0
H629 H 0.13325 0.55415 0.36846 0.0
H630 H 0.13739 0.56198 0.47677 0.0
H631 H 0.12892 0.58826 0.4112 0.0
H632 H 0.12982 0.59135 0.67536 0.0
H633 H 0.1148 0.653 0.50478 0.0
H634 H 0.19232 0.57938 0.57527 0.0
H635 H 0.16997 0.55666 0.57004 0.0
H636 H 0.17065 0.57475 0.67031 0.0
H637 H 0.17431 0.64971 0.37751 0.0
H638 H 0.14534 0.66679 0.39501 0.0
H639 H 0.1511 0.63469 0.33652 0.0
C640 C 0.96329 0.787 0.31324 0.0
C641 C 0.97866 0.76398 0.30916 0.0
C642 C 0.96726 0.80606 0.25047 0.0
C643 C 0.98694 0.80158 0.18321 0.0
C644 C 0.99905 0.77589 0.16894 0.0
C645 C 0.99486 0.7572 0.23301 0.0
C646 C 0.95305 0.83276 0.265 0.0
C647 C 0.01905 0.76983 0.09419 0.0
C648 C 1.00319 0.86224 0.05469 0.0
C649 C 0.01799 0.87373 0.10466 0.0
C650 C 0.99363 0.83793 0.0764 0.0
C651 C 0.99902 0.82514 0.14998 0.0
C652 C 0.01484 0.83622 0.19824 0.0
C653 C 0.02425 0.86034 0.17438 0.0
C654 C 0.97777 0.82627 0.02091 0.0
C655 C 0.02097 0.82341 0.2779 0.0
H656 H 0.95025 0.79176 0.37112 0.0
H657 H 1.00643 0.73905 0.22866 0.0
H658 H 0.96275 0.84734 0.29677 0.0
H659 H 0.95011 0.84083 0.20265 0.0
H660 H 0.93584 0.83115 0.30734 0.0
H661 H 0.02267 0.74787 0.07985 0.0
H662 H 0.01525 0.77952 0.03529 0.0
H663 H 0.03506 0.7779 0.11077 0.0
H664 H 0.99879 0.87258 0.99953 0.0
H665 H 0.03565 0.86943 0.21277 0.0
H666 H 0.96337 0.81629 0.05997 0.0
H667 H 0.98815 0.81097 0.97404 0.0
H668 H 0.97008 0.84191 0.98353 0.0
H669 H 1.005 0.82309 0.32806 0.0
H670 H 0.03402 0.83429 0.30625 0.0
H671 H 0.02817 0.80235 0.26183 0.0
C672 C 0.7302 0.03948 0.11605 0.0
C673 C 0.72831 0.01303 0.14098 0.0
C674 C 0.71383 0.05168 0.07112 0.0
C675 C 0.69528 0.03698 0.05263 0.0
C676 C 0.69574 0.00907 0.0654 0.0
C677 C 0.71235 0.99738 0.10981 0.0
C678 C 0.71458 0.08112 0.05444 0.0
C679 C 0.67662 0.99244 0.04454 0.0
C680 C 0.63307 0.06636 0.11324 0.0
C681 C 0.62593 0.06602 0.03278 0.0
C682 C 0.65622 0.0588 0.11986 0.0
C683 C 0.67276 0.0513 0.04371 0.0
C684 C 0.66627 0.05381 0.96172 0.0
C685 C 0.6428 0.0609 0.95716 0.0
C686 C 0.66242 0.05667 0.20898 0.0
C687 C 0.68357 0.04708 0.87907 0.0
H688 H 0.74271 0.05148 0.14007 0.0
H689 H 0.71113 0.97684 0.12902 0.0
H690 H 0.70786 0.08589 0.9945 0.0
H691 H 0.70337 0.09302 0.10919 0.0
H692 H 0.73265 0.08748 0.04893 0.0
H693 H 0.68147 0.97059 0.04577 0.0
H694 H 0.66044 0.99755 0.09302 0.0
H695 H 0.67259 0.99683 0.97992 0.0
H696 H 0.62023 0.07114 0.17162 0.0
H697 H 0.63748 0.06076 0.8945 0.0
H698 H 0.67807 0.0676 0.21372 0.0
H699 H 0.66667 0.0353 0.22092 0.0
H700 H 0.6479 0.06487 0.261 0.0
H701 H 0.70144 0.05208 0.88575 0.0
H702 H 0.67829 0.05793 0.8243 0.0
H703 H 0.68426 0.02525 0.86272 0.0
C704 C 0.51881 0.68167 0.0945 0.0
C705 C 0.50265 0.69227 0.16637 0.0
C706 C 0.51383 0.65966 0.04495 0.0
C707 C 0.49207 0.64838 0.06768 0.0
C708 C 0.47479 0.66095 0.13451 0.0
C709 C 0.48043 0.68258 0.18413 0.0
C710 C 0.53284 0.64677 0.97462 0.0
C711 C 0.45113 0.65009 0.15865 0.0
C712 C 0.48157 0.5913 0.91673 0.0
C713 C 0.48991 0.56896 0.95719 0.0
C714 C 0.48104 0.61737 0.95376 0.0
C715 C 0.4892 0.62108 0.03263 0.0
C716 C 0.49641 0.59849 0.07599 0.0
C717 C 0.49653 0.57272 0.03799 0.0
C718 C 0.47308 0.64091 0.90588 0.0
C719 C 0.50533 0.60157 0.1602 0.0
H720 H 0.53608 0.68907 0.08173 0.0
H721 H 0.46801 0.69085 0.24013 0.0
H722 H 0.54098 0.62854 0.99906 0.0
H723 H 0.52556 0.6404 0.91725 0.0
H724 H 0.54672 0.66052 0.95414 0.0
H725 H 0.43836 0.66487 0.19968 0.0
H726 H 0.44411 0.64448 0.09985 0.0
H727 H 0.45284 0.63171 0.19523 0.0
H728 H 0.4765 0.58861 0.85405 0.0
H729 H 0.50291 0.55559 0.06986 0.0
H730 H 0.48857 0.65073 0.87371 0.0
H731 H 0.46199 0.6561 0.95123 0.0
H732 H 0.46313 0.63461 0.85543 0.0
H733 H 0.52137 0.61263 0.14992 0.0
H734 H 0.50954 0.58192 0.18696 0.0
H735 H 0.49213 0.61345 0.20912 0.0
C736 C 0.84137 0.55144 0.28566 0.0
C737 C 0.82055 0.53975 0.31686 0.0
C738 C 0.85754 0.53873 0.2172 0.0
C739 C 0.85205 0.51462 0.17828 0.0
C740 C 0.82895 0.50677 0.19598 0.0
C741 C 0.81332 0.51939 0.26622 0.0
C742 C 0.88171 0.54854 0.19702 0.0
C743 C 0.82197 0.48244 0.15028 0.0
C744 C 0.90145 0.47651 0.02193 0.0
C745 C 0.91106 0.45932 0.07741 0.0
C746 C 0.88168 0.49408 0.05256 0.0
C747 C 0.87135 0.49446 0.14085 0.0
C748 C 0.88051 0.47648 0.19668 0.0
C749 C 0.90017 0.45901 0.164 0.0
C750 C 0.87228 0.51237 0.99039 0.0
C751 C 0.87023 0.47653 0.29203 0.0
H752 H 0.84653 0.56792 0.32296 0.0
H753 H 0.7969 0.51073 0.28829 0.0
H754 H 0.89372 0.53604 0.22974 0.0
H755 H 0.88862 0.54666 0.12649 0.0
H756 H 0.88185 0.56979 0.22 0.0
H757 H 0.80267 0.48272 0.15609 0.0
H758 H 0.83012 0.48128 0.08076 0.0
H759 H 0.82817 0.46405 0.17969 0.0
H760 H 0.91012 0.47728 0.95538 0.0
H761 H 0.90753 0.44569 0.20686 0.0
H762 H 0.86491 0.53209 0.02169 0.0
H763 H 0.85804 0.50275 0.96552 0.0
H764 H 0.88609 0.51583 0.93445 0.0
H765 H 0.87129 0.49655 0.32333 0.0
H766 H 0.87943 0.46124 0.3262 0.0
H767 H 0.8515 0.47254 0.30087 0.0
C768 C 0.05446 0.20206 0.93409 0.0
C769 C 0.03549 0.21874 0.9794 0.0
C770 C 0.05125 0.17679 0.89748 0.0
C771 C 0.02848 0.16775 0.90629 0.0
C772 C 1.00907 0.18554 0.94515 0.0
C773 C 1.01281 0.21078 0.98143 0.0
C774 C 0.0725 0.15881 0.85627 0.0
C775 C 0.98445 0.17706 0.95484 0.0
C776 C 0.02082 0.10206 0.78385 0.0
C777 C 0.02169 0.08316 0.84762 0.0
C778 C 0.02251 0.12966 0.80202 0.0
C779 C 0.0254 0.13873 0.88575 0.0
C780 C 0.02617 0.11974 0.95031 0.0
C781 C 0.02425 0.09238 0.93064 0.0
C782 C 0.02153 0.14904 0.73112 0.0
C783 C 0.02927 0.12832 0.04044 0.0
H784 H 0.07206 0.20794 0.9333 0.0
H785 H 0.9981 0.22328 0.01766 0.0
H786 H 0.07526 0.14222 0.8993 0.0
H787 H 0.06987 0.14964 0.79377 0.0
H788 H 0.08857 0.16983 0.84475 0.0
H789 H 0.97121 0.19432 0.97358 0.0
H790 H 0.9815 0.16729 0.89361 0.0
H791 H 0.98174 0.16215 0.00554 0.0
H792 H 0.01885 0.09533 0.71941 0.0
H793 H 0.02494 0.07813 0.98062 0.0
H794 H 0.03909 0.15632 0.71035 0.0
H795 H 1.0093 0.16681 0.75506 0.0
H796 H 0.01595 0.13961 0.6738 0.0
H797 H 0.04606 0.13773 0.03762 0.0
H798 H 0.02915 0.11127 0.08384 0.0
H799 H 0.01506 0.14362 0.06936 0.0
C800 C 0.34043 0.97557 0.10276 0.0
C801 C 0.32573 0.99841 0.1366 0.0
C802 C 0.36245 0.97761 0.05024 0.0
C803 C 0.37021 1.00321 0.02947 0.0
C804 C 0.35467 0.02631 0.05788 0.0
C805 C 0.33275 0.02367 0.11163 0.0
C806 C 0.37818 0.95233 0.02302 0.0
C807 C 0.36181 0.05399 0.03611 0.0
C808 C 0.4365 0.00928 0.99855 0.0
C809 C 0.44354 0.00713 0.90811 0.0
C810 C 0.41285 0.00841 0.03814 0.0
C811 C 0.39534 0.00573 0.98666 0.0
C812 C 0.40223 1.00403 0.89519 0.0
C813 C 0.42613 0.00455 0.85724 0.0
C814 C 0.40668 0.00969 0.1357 0.0
C815 C 0.38437 1.00132 0.83723 0.0
H816 H 0.33537 0.95599 0.12288 0.0
H817 H 0.32184 0.04147 0.13869 0.0
H818 H 0.38562 0.95196 0.95299 0.0
H819 H 0.39304 0.95185 0.05857 0.0
H820 H 0.36882 0.93393 0.03648 0.0
H821 H 0.3468 0.06941 0.05145 0.0
H822 H 0.37538 0.05941 0.07364 0.0
H823 H 0.36954 0.05442 0.96645 0.0
H824 H 0.44961 0.0111 0.03904 0.0
H825 H 0.43116 1.00284 0.78741 0.0
H826 H 0.39871 0.99108 0.15791 0.0
H827 H 0.39355 0.02675 0.15842 0.0
H828 H 0.42217 0.01206 0.16677 0.0
H829 H 0.37645 0.98188 0.84671 0.0
H830 H 0.39213 1.00229 0.76769 0.0
H831 H 0.37002 0.01744 0.85448 0.0
C832 C 0.48455 0.33778 0.20654 0.0
C833 C 0.50216 0.31683 0.18415 0.0
C834 C 0.482 0.35871 0.15078 0.0
C835 C 0.49753 0.35881 0.07055 0.0
C836 C 0.51374 0.33625 0.04391 0.0
C837 C 0.51592 0.31553 0.10123 0.0
C838 C 0.4644 0.38215 0.18223 0.0
C839 C 0.53044 0.33527 0.9586 0.0
C840 C 0.48931 0.41563 0.91812 0.0
C841 C 0.50509 0.43354 0.93993 0.0
C842 C 0.48671 0.39103 0.95906 0.0
C843 C 0.49996 0.38441 0.02404 0.0
C844 C 0.51559 0.40271 0.04694 0.0
C845 C 0.51803 0.42681 0.00447 0.0
C846 C 0.4701 0.37196 0.93196 0.0
C847 C 0.52988 0.39687 0.11655 0.0
H848 H 0.47403 0.33896 0.27096 0.0
H849 H 0.52976 0.29958 0.08411 0.0
H850 H 0.47361 0.39917 0.20347 0.0
H851 H 0.45538 0.38903 0.12954 0.0
H852 H 0.45106 0.37703 0.23769 0.0
H853 H 0.53874 0.3147 0.94017 0.0
H854 H 0.52133 0.34231 0.9063 0.0
H855 H 0.54446 0.34885 0.96355 0.0
H856 H 0.47946 0.4205 0.8676 0.0
H857 H 0.53018 0.44053 0.02226 0.0
H858 H 0.45717 0.36715 0.9889 0.0
H859 H 0.47996 0.35282 0.90519 0.0
H860 H 0.46058 0.38032 0.88237 0.0
H861 H 0.51813 0.39387 0.17857 0.0
H862 H 0.54109 0.41329 0.12718 0.0
H863 H 0.54126 0.37806 0.09871 0.0
C864 C 0.19627 0.50228 0.92773 0.0
C865 C 0.19033 0.50656 0.01791 0.0
C866 C 0.17886 0.4981 0.87724 0.0
C867 C 0.15499 0.49888 0.91778 0.0
C868 C 0.1492 0.50195 0.00907 0.0
C869 C 0.1669 0.50509 0.05762 0.0
C870 C 0.18597 0.49381 0.78047 0.0
C871 C 0.1241 0.50324 0.05579 0.0
C872 C 0.10372 0.52094 0.80941 0.0
C873 C 0.09233 0.4972 0.80762 0.0
C874 C 0.12503 0.5215 0.83984 0.0
C875 C 0.13562 0.49755 0.86663 0.0
C876 C 0.12519 0.47311 0.8573 0.0
C877 C 0.10346 0.47331 0.82974 0.0
C878 C 0.13521 0.54812 0.84971 0.0
C879 C 0.13633 0.44691 0.88099 0.0
H880 H 0.21429 0.50324 0.89637 0.0
H881 H 0.16218 0.50761 0.12748 0.0
H882 H 0.17598 0.47815 0.7553 0.0
H883 H 0.18209 0.5127 0.74913 0.0
H884 H 0.20497 0.48784 0.76125 0.0
H885 H 0.12252 0.50648 0.12694 0.0
H886 H 0.11371 0.51986 0.03173 0.0
H887 H 0.11617 0.48436 0.04271 0.0
H888 H 0.09518 0.53949 0.7926 0.0
H889 H 0.0949 0.45481 0.82739 0.0
H890 H 0.15394 0.54672 0.81915 0.0
H891 H 0.13415 0.55352 0.91949 0.0
H892 H 0.12586 0.56452 0.82041 0.0
H893 H 0.15549 0.44537 0.85678 0.0
H894 H 0.12875 0.42936 0.85436 0.0
H895 H 0.13356 0.44595 0.95241 0.0
C896 C 0.02368 0.79376 0.56007 0.0
C897 C 1.00361 0.78013 0.58664 0.0
C898 C 0.0263 0.81922 0.59711 0.0
C899 C 1.00834 0.83159 0.66238 0.0
C900 C 0.98886 0.81694 0.69405 0.0
C901 C 0.98664 0.79155 0.6553 0.0
C902 C 0.04739 0.83383 0.56099 0.0
C903 C 0.96934 0.82899 0.76381 0.0
C904 C 0.02033 0.89654 0.77942 0.0
C905 C 1.01051 0.91644 0.73257 0.0
C906 C 0.01935 0.86894 0.75891 0.0
C907 C 1.00857 0.86082 0.68903 0.0
C908 C 0.99843 0.88083 0.64223 0.0
C909 C 0.9994 0.90823 0.66479 0.0
C910 C 0.02996 0.84845 0.81182 0.0
C911 C 0.98679 0.87331 0.56715 0.0
H912 H 0.03651 0.78544 0.50529 0.0
H913 H 0.97076 0.78153 0.67438 0.0
H914 H 0.04199 0.85039 0.52188 0.0
H915 H 0.055 0.84289 0.61407 0.0
H916 H 0.06113 0.82035 0.51913 0.0
H917 H 0.95819 0.81347 0.79361 0.0
H918 H 0.97635 0.83979 0.81529 0.0
H919 H 0.95817 0.84378 0.73523 0.0
H920 H 0.02873 0.90253 0.83258 0.0
H921 H 0.99177 0.92328 0.62796 0.0
H922 H 0.04395 0.83549 0.76948 0.0
H923 H 0.01647 0.83524 0.84078 0.0
H924 H 0.03747 0.85792 0.86464 0.0
H925 H 0.99962 0.8617 0.51617 0.0
H926 H 0.97941 0.89115 0.53812 0.0
H927 H 0.97248 0.86025 0.58882 0.0
C928 C 0.69228 0.02213 0.4664 0.0
C929 C 0.70861 0.99957 0.45175 0.0
C930 C 0.67 0.02126 0.5182 0.0
C931 C 0.66367 0.99738 0.55901 0.0
C932 C 0.68079 0.97521 0.55057 0.0
C933 C 0.70291 0.97644 0.49641 0.0
C934 C 0.65262 0.04542 0.52403 0.0
C935 C 0.67531 0.94969 0.59538 0.0
C936 C 0.60708 0.0051 0.72976 0.0
C937 C 0.59038 0.99577 0.68361 0.0
C938 C 0.63105 1.00443 0.69197 0.0
C939 C 0.63869 0.99519 0.60433 0.0
C940 C 0.62188 0.98561 0.55769 0.0
C941 C 0.59817 0.98562 0.59805 0.0
C942 C 0.64803 0.01431 0.74578 0.0
C943 C 0.6288 0.9762 0.46373 0.0
H944 H 0.69638 0.04004 0.43173 0.0
H945 H 0.71512 0.95877 0.48485 0.0
H946 H 0.63765 0.04021 0.49341 0.0
H947 H 0.64557 0.05153 0.59269 0.0
H948 H 0.66046 0.06283 0.49151 0.0
H949 H 0.69115 0.9357 0.5921 0.0
H950 H 0.66733 0.95431 0.6643 0.0
H951 H 0.66239 0.93941 0.56458 0.0
H952 H 0.60142 0.01288 0.79598 0.0
H953 H 0.58552 0.97854 0.56131 0.0
H954 H 0.65128 0.03537 0.73094 0.0
H955 H 0.66507 1.00215 0.73104 0.0
H956 H 0.64103 0.01377 0.81611 0.0
H957 H 0.63572 0.99294 0.42503 0.0
H958 H 0.61389 0.96887 0.43671 0.0
H959 H 0.64297 0.95981 0.45607 0.0
C960 C 0.55071 0.68155 0.44103 0.0
C961 C 0.52871 0.69541 0.446 0.0
C962 C 0.55376 0.65945 0.49222 0.0
C963 C 0.53432 0.651 0.54969 0.0
C964 C 0.51256 0.66646 0.56021 0.0
C965 C 0.50997 0.68829 0.50769 0.0
C966 C 0.57733 0.64384 0.47958 0.0
C967 C 0.49147 0.65861 0.62182 0.0
C968 C 0.53003 0.57629 0.5846 0.0
C969 C 0.53521 0.57382 0.668 0.0
C970 C 0.53031 0.60108 0.54499 0.0
C971 C 0.53581 0.62425 0.58964 0.0
C972 C 0.54172 0.6218 0.67288 0.0
C973 C 0.5413 0.59669 0.71106 0.0
C974 C 0.52408 0.60258 0.45588 0.0
C975 C 0.54757 0.64583 0.7234 0.0
H976 H 0.56509 0.68659 0.39199 0.0
H977 H 0.49283 0.69861 0.51039 0.0
H978 H 0.58218 0.63935 0.543 0.0
H979 H 0.57649 0.62437 0.4445 0.0
H980 H 0.59129 0.65485 0.44181 0.0
H981 H 0.47674 0.6744 0.63052 0.0
H982 H 0.48547 0.63983 0.59647 0.0
H983 H 0.49606 0.6546 0.68597 0.0
H984 H 0.52534 0.55886 0.55048 0.0
H985 H 0.54505 0.59523 0.77593 0.0
H986 H 0.53824 0.61123 0.41114 0.0
H987 H 0.50794 0.61603 0.45887 0.0
H988 H 0.52115 0.5826 0.42831 0.0
H989 H 0.55702 0.63976 0.77598 0.0
H990 H 0.53113 0.65773 0.75309 0.0
H991 H 0.55843 0.65908 0.68075 0.0
C992 C 0.85834 0.50483 0.56263 0.0
C993 C 0.83881 0.52168 0.60286 0.0
C994 C 0.87891 0.50217 0.5976 0.0
C995 C 0.87989 0.51581 0.67733 0.0
C996 C 0.8596 0.53142 0.72149 0.0
C997 C 0.83932 0.53411 0.68373 0.0
C998 C 0.90021 0.48657 0.54507 0.0
C999 C 0.85911 0.5465 0.80669 0.0
C1000 C 0.93327 0.49211 0.77411 0.0
C1001 C 0.94857 0.51217 0.7502 0.0
C1002 C 0.91047 0.49361 0.7546 0.0
C1003 C 0.90282 0.51544 0.70877 0.0
C1004 C 0.91797 0.53603 0.68648 0.0
C1005 C 0.94046 0.53427 0.70798 0.0
C1006 C 0.89465 0.47164 0.78178 0.0
C1007 C 0.91067 0.55961 0.63732 0.0
H1008 H 0.85801 0.49489 0.50045 0.0
H1009 H 0.82439 0.54721 0.71525 0.0
H1010 H 0.91413 0.50038 0.52613 0.0
H1011 H 0.90731 0.47103 0.58397 0.0
H1012 H 0.89637 0.47662 0.48536 0.0
H1013 H 0.84675 0.5375 0.85765 0.0
H1014 H 0.87641 0.54641 0.82667 0.0
H1015 H 0.85232 0.56767 0.80306 0.0
H1016 H 0.93917 0.47503 0.8073 0.0
H1017 H 0.952 0.54993 0.68904 0.0
H1018 H 0.89079 0.46071 0.72398 0.0
H1019 H 0.87768 0.48051 0.81898 0.0
H1020 H 0.9025 0.45689 0.82158 0.0
H1021 H 0.90613 0.55237 0.57524 0.0
H1022 H 0.92461 0.5737 0.62316 0.0
H1023 H 0.89482 0.57077 0.67543 0.0
loop_
_geom_bond_atom_site_label_1
_geom_bond_atom_site_label_2
_geom_bond_distance
_geom_bond_site_symmetry_2
_ccdc_geom_bond_type
H0 C5 0.930 . S
H1 C8 0.930 . S
H2 C10 0.930 . S
H3 C4 1.016 . S
C4 H3 1.016 . S
C4 N11 1.286 . S
C5 H0 0.930 . S
C5 C6 1.397 . S
C5 C7 1.361 . S
C6 C5 1.397 . S
C6 C10 1.390 . S
C7 C5 1.361 . S
C7 C8 1.393 . S
C7 N11 1.413 . S
C8 H1 0.930 . S
C8 C7 1.393 . S
C8 C9 1.399 . S
C9 C8 1.399 . S
C9 C10 1.381 . S
C10 H2 0.930 . S
C10 C6 1.390 . S
C10 C9 1.381 . S
N11 C4 1.286 . S
N11 C7 1.413 . S
H12 C17 0.935 . S
H13 C20 0.939 1_455 S
H14 C22 0.930 . S
H15 C16 1.016 . S
C16 H15 1.016 . S
C16 N23 1.286 1_655 S
C17 H12 0.935 . S
C17 C18 1.395 1_455 S
C17 C19 1.358 . S
C18 C17 1.395 1_655 S
C18 C22 1.390 . S
C19 C17 1.358 . S
C19 C20 1.388 1_455 S
C19 N23 1.413 . S
C20 H13 0.939 1_655 S
C20 C19 1.388 1_655 S
C20 C21 1.401 . S
C21 C20 1.401 . S
C21 C22 1.381 . S
C22 H14 0.930 . S
C22 C18 1.390 . S
C22 C21 1.381 . S
N23 C16 1.286 1_455 S
N23 C19 1.413 . S
H24 C29 0.930 . S
H25 C32 0.930 . S
H26 C34 0.930 . S
H27 C28 1.029 . S
C28 H27 1.029 . S
C28 N35 1.271 1_565 S
C29 H24 0.930 . S
C29 C30 1.397 . S
C29 C31 1.361 . S
C30 C29 1.397 . S
C30 C34 1.390 1_545 S
C31 C29 1.361 . S
C31 C32 1.393 . S
C31 N35 1.413 . S
C32 H25 0.930 . S
C32 C31 1.393 . S
C32 C33 1.404 . S
C33 C32 1.404 . S
C33 C34 1.377 1_545 S
C34 H26 0.930 . S
C34 C30 1.390 1_565 S
C34 C33 1.377 1_565 S
N35 C28 1.271 1_545 S
N35 C31 1.413 . S
H36 C41 0.930 . S
H37 C44 0.930 . S
H38 C46 0.930 . S
H39 C40 1.016 . S
C40 H39 1.016 . S
C40 N47 1.286 . S
C41 H36 0.930 . S
C41 C42 1.397 . S
C41 C43 1.361 . S
C42 C41 1.397 . S
C42 C46 1.390 . S
C43 C41 1.361 . S
C43 C44 1.393 . S
C43 N47 1.413 . S
C44 H37 0.930 . S
C44 C43 1.393 . S
C44 C45 1.399 . S
C45 C44 1.399 . S
C45 C46 1.381 . S
C46 H38 0.930 . S
C46 C42 1.390 . S
C46 C45 1.381 . S
N47 C40 1.286 . S
N47 C43 1.413 . S
H48 C53 0.930 . S
H49 C56 0.930 . S
H50 C58 0.930 . S
H51 C52 1.016 . S
C52 H51 1.016 . S
C52 N59 1.286 1_554 S
C53 H48 0.930 . S
C53 C54 1.397 . S
C53 C55 1.361 . S
C54 C53 1.397 . S
C54 C58 1.390 . S
C55 C53 1.361 . S
C55 C56 1.393 1_556 S
C55 N59 1.413 . S
C56 H49 0.930 . S
C56 C55 1.393 1_554 S
C56 C57 1.399 . S
C57 C56 1.399 . S
C57 C58 1.381 1_554 S
C58 H50 0.930 . S
C58 C54 1.390 . S
C58 C57 1.381 1_556 S
N59 C52 1.286 1_556 S
N59 C55 1.413 . S
H60 C65 0.930 1_556 S
H61 C68 0.930 . S
H62 C70 0.930 . S
H63 C64 1.016 . S
C64 H63 1.016 . S
C64 N71 1.286 . S
C65 H60 0.930 1_554 S
C65 C66 1.397 . S
C65 C67 1.361 . S
C66 C65 1.397 . S
C66 C70 1.390 . S
C67 C65 1.361 . S
C67 C68 1.393 . S
C67 N71 1.413 . S
C68 H61 0.930 . S
C68 C67 1.393 . S
C68 C69 1.399 . S
C69 C68 1.399 . S
C69 C70 1.381 . S
C70 H62 0.930 . S
C70 C66 1.390 . S
C70 C69 1.381 . S
N71 C64 1.286 . S
N71 C67 1.413 . S
H72 C77 0.930 . S
H73 C80 0.930 . S
H74 C82 0.930 . S
H75 C76 1.027 . S
C76 H75 1.027 . S
C76 N83 1.270 1_565 S
C77 H72 0.930 . S
C77 C78 1.397 . S
C77 C79 1.361 . S
C78 C77 1.397 . S
C78 C82 1.390 1_545 S
C79 C77 1.361 . S
C79 C80 1.393 . S
C79 N83 1.413 . S
C80 H73 0.930 . S
C80 C79 1.393 . S
C80 C81 1.402 . S
C81 C80 1.402 . S
C81 C82 1.380 1_545 S
C82 H74 0.930 . S
C82 C78 1.390 1_565 S
C82 C81 1.380 1_565 S
N83 C76 1.270 1_545 S
N83 C79 1.413 . S
H84 C89 0.930 . S
H85 C92 0.930 . S
H86 C94 0.930 . S
H87 C88 1.016 . S
C88 H87 1.016 . S
C88 N95 1.286 . S
C89 H84 0.930 . S
C89 C90 1.397 . S
C89 C91 1.361 . S
C90 C89 1.397 . S
C90 C94 1.390 . S
C91 C89 1.361 . S
C91 C92 1.393 . S
C91 N95 1.413 . S
C92 H85 0.930 . S
C92 C91 1.393 . S
C92 C93 1.399 . S
C93 C92 1.399 . S
C93 C94 1.381 . S
C94 H86 0.930 . S
C94 C90 1.390 . S
C94 C93 1.381 . S
N95 C88 1.286 . S
N95 C91 1.413 . S
Dy96 O99 2.307 1_545 S
Dy96 O101 2.395 1_655 S
Dy96 O102 2.379 . S
Dy96 O104 2.339 . S
Dy96 O106 2.298 . S
Dy96 O110 2.275 1_655 S
Dy96 C118 2.738 . S
Dy97 O100 2.298 . S
Dy97 O103 2.275 1_455 S
Dy97 O105 2.307 1_565 S
Dy97 O107 2.395 1_455 S
Dy97 O108 2.379 . S
Dy97 O111 2.339 . S
Dy97 C127 2.738 . S
C98 O110 1.254 1_565 S
C98 O111 1.257 . S
O99 Dy96 2.307 1_565 S
O99 C109 1.266 . S
O100 Dy97 2.298 . S
O100 C109 1.236 1_455 S
O101 Dy96 2.395 1_455 S
O101 C118 1.255 1_455 S
O102 Dy96 2.379 . S
O102 C118 1.249 . S
O103 Dy97 2.275 1_655 S
O103 C119 1.254 1_565 S
O104 Dy96 2.339 . S
O104 C119 1.257 . S
O105 Dy97 2.307 1_545 S
O105 C120 1.266 . S
O106 Dy96 2.298 . S
O106 C120 1.236 1_655 S
O107 Dy97 2.395 1_655 S
O107 C127 1.255 1_655 S
O108 Dy97 2.379 . S
O108 C127 1.249 . S
C109 O99 1.266 . S
C109 O100 1.236 1_655 S
O110 Dy96 2.275 1_455 S
O110 C98 1.254 1_545 S
O111 Dy97 2.339 . S
O111 C98 1.257 . S
C112 C115 1.344 1_655 S
C112 C116 1.328 . S
C112 C118 1.516 . S
C113 C114 1.304 1_655 S
C113 C117 1.323 . S
C114 C113 1.304 1_455 S
C114 C115 1.371 . S
C114 H128 0.930 . S
C115 C112 1.344 1_455 S
C115 C114 1.371 . S
C115 H129 0.931 . S
C116 C112 1.328 . S
C116 C117 1.433 . S
C116 H130 0.931 . S
C117 C113 1.323 . S
C117 C116 1.433 . S
C117 H131 0.933 . S
C118 Dy96 2.738 . S
C118 O101 1.255 1_655 S
C118 O102 1.249 . S
C118 C112 1.516 . S
C119 O103 1.254 1_545 S
C119 O104 1.257 . S
C120 O105 1.266 . S
C120 O106 1.236 1_455 S
C121 C124 1.344 1_455 S
C121 C125 1.328 . S
C121 C127 1.516 1_554 S
C122 C123 1.304 1_455 S
C122 C126 1.323 . S
C123 C122 1.304 1_655 S
C123 C124 1.371 . S
C123 H132 0.930 . S
C124 C121 1.344 1_655 S
C124 C123 1.371 . S
C124 H133 0.931 . S
C125 C121 1.328 . S
C125 C126 1.433 . S
C125 H134 0.931 . S
C126 C122 1.323 . S
C126 C125 1.433 . S
C126 H135 0.933 . S
C127 Dy97 2.738 . S
C127 O107 1.255 1_455 S
C127 O108 1.249 . S
C127 C121 1.516 1_556 S
H128 C114 0.930 . S
H129 C115 0.931 . S
H130 C116 0.931 . S
H131 C117 0.933 . S
H132 C123 0.930 . S
H133 C124 0.931 . S
H134 C125 0.931 . S
H135 C126 0.933 . S
Dy136 O139 2.307 . S
Dy136 O141 2.395 1_565 S
Dy136 O142 2.379 . S
Dy136 O144 2.339 . S
Dy136 O146 2.298 . S
Dy136 O150 2.275 1_565 S
Dy136 C158 2.738 . S
Dy137 O140 2.298 . S
Dy137 O143 2.275 1_545 S
Dy137 O145 2.307 . S
Dy137 O147 2.395 1_545 S
Dy137 O148 2.379 . S
Dy137 O151 2.339 . S
Dy137 C167 2.738 . S
C138 O150 1.254 . S
C138 O151 1.257 . S
O139 Dy136 2.307 . S
O139 C149 1.266 . S
O140 Dy137 2.298 . S
O140 C149 1.236 1_545 S
O141 Dy136 2.395 1_545 S
O141 C158 1.255 1_545 S
O142 Dy136 2.379 . S
O142 C158 1.249 . S
O143 Dy137 2.275 1_565 S
O143 C159 1.254 . S
O144 Dy136 2.339 . S
O144 C159 1.257 . S
O145 Dy137 2.307 . S
O145 C160 1.266 . S
O146 Dy136 2.298 . S
O146 C160 1.236 1_565 S
O147 Dy137 2.395 1_565 S
O147 C167 1.255 1_565 S
O148 Dy137 2.379 . S
O148 C167 1.249 . S
C149 O139 1.266 . S
C149 O140 1.236 1_565 S
O150 Dy136 2.275 1_545 S
O150 C138 1.254 . S
O151 Dy137 2.339 . S
O151 C138 1.257 . S
C152 C155 1.344 1_565 S
C152 C156 1.328 . S
C152 C158 1.516 . S
C153 C154 1.304 1_565 S
C153 C157 1.323 . S
C154 C153 1.304 1_545 S
C154 C155 1.371 . S
C154 H168 0.930 . S
C155 C152 1.344 1_545 S
C155 C154 1.371 . S
C155 H169 0.931 . S
C156 C152 1.328 . S
C156 C157 1.433 . S
C156 H170 0.931 . S
C157 C153 1.323 . S
C157 C156 1.433 . S
C157 H171 0.933 . S
C158 Dy136 2.738 . S
C158 O141 1.255 1_565 S
C158 O142 1.249 . S
C158 C152 1.516 . S
C159 O143 1.254 . S
C159 O144 1.257 . S
C160 O145 1.266 . S
C160 O146 1.236 1_545 S
C161 C164 1.344 1_545 S
C161 C165 1.328 . S
C161 C167 1.516 1_554 S
C162 C163 1.304 1_545 S
C162 C166 1.323 . S
C163 C162 1.304 1_565 S
C163 C164 1.371 . S
C163 H172 0.930 . S
C164 C161 1.344 1_565 S
C164 C163 1.371 . S
C164 H173 0.931 1_554 S
C165 C161 1.328 . S
C165 C166 1.433 . S
C165 H174 0.931 . S
C166 C162 1.323 . S
C166 C165 1.433 . S
C166 H175 0.933 . S
C167 Dy137 2.738 . S
C167 O147 1.255 1_545 S
C167 O148 1.249 . S
C167 C161 1.516 1_556 S
H168 C154 0.930 . S
H169 C155 0.931 . S
H170 C156 0.931 . S
H171 C157 0.933 . S
H172 C163 0.930 . S
H173 C164 0.931 1_556 S
H174 C165 0.931 . S
H175 C166 0.933 . S
Dy176 O179 2.307 . S
Dy176 O181 2.395 . S
Dy176 O182 2.379 . S
Dy176 O184 2.339 . S
Dy176 O186 2.298 . S
Dy176 O190 2.275 . S
Dy176 C198 2.738 . S
Dy177 O180 2.298 . S
Dy177 O183 2.275 . S
Dy177 O185 2.307 . S
Dy177 O187 2.395 . S
Dy177 O188 2.379 . S
Dy177 O191 2.339 . S
Dy177 C207 2.738 . S
C178 O190 1.254 . S
C178 O191 1.257 . S
O179 Dy176 2.307 . S
O179 C189 1.266 . S
O180 Dy177 2.298 . S
O180 C189 1.236 . S
O181 Dy176 2.395 . S
O181 C198 1.255 . S
O182 Dy176 2.379 . S
O182 C198 1.249 . S
O183 Dy177 2.275 . S
O183 C199 1.254 . S
O184 Dy176 2.339 . S
O184 C199 1.257 . S
O185 Dy177 2.307 . S
O185 C200 1.266 . S
O186 Dy176 2.298 . S
O186 C200 1.236 . S
O187 Dy177 2.395 . S
O187 C207 1.255 . S
O188 Dy177 2.379 . S
O188 C207 1.249 . S
C189 O179 1.266 . S
C189 O180 1.236 . S
O190 Dy176 2.275 . S
O190 C178 1.254 . S
O191 Dy177 2.339 . S
O191 C178 1.257 . S
C192 C195 1.344 1_556 S
C192 C196 1.328 . S
C192 C198 1.516 . S
C193 C194 1.304 . S
C193 C197 1.323 1_554 S
C194 C193 1.304 . S
C194 C195 1.371 . S
C194 H208 0.930 . S
C195 C192 1.344 1_554 S
C195 C194 1.371 . S
C195 H209 0.931 . S
C196 C192 1.328 . S
C196 C197 1.433 . S
C196 H210 0.931 . S
C197 C193 1.323 1_556 S
C197 C196 1.433 . S
C197 H211 0.933 . S
C198 Dy176 2.738 . S
C198 O181 1.255 . S
C198 O182 1.249 . S
C198 C192 1.516 . S
C199 O183 1.254 . S
C199 O184 1.257 . S
C200 O185 1.266 . S
C200 O186 1.236 . S
C201 C204 1.344 . S
C201 C205 1.328 . S
C201 C207 1.516 . S
C202 C203 1.304 . S
C202 C206 1.323 . S
C203 C202 1.304 . S
C203 C204 1.371 . S
C203 H212 0.930 . S
C204 C201 1.344 . S
C204 C203 1.371 . S
C204 H213 0.931 . S
C205 C201 1.328 . S
C205 C206 1.433 . S
C205 H214 0.931 . S
C206 C202 1.323 . S
C206 C205 1.433 . S
C206 H215 0.933 . S
C207 Dy177 2.738 . S
C207 O187 1.255 . S
C207 O188 1.249 . S
C207 C201 1.516 . S
H208 C194 0.930 . S
H209 C195 0.931 . S
H210 C196 0.931 . S
H211 C197 0.933 . S
H212 C203 0.930 . S
H213 C204 0.931 . S
H214 C205 0.931 . S
H215 C206 0.933 . S
Dy216 O219 2.307 1_455 S
Dy216 O221 2.395 . S
Dy216 O222 2.379 . S
Dy216 O224 2.339 . S
Dy216 O226 2.298 . S
Dy216 O230 2.275 . S
Dy216 C238 2.738 . S
Dy217 O220 2.298 . S
Dy217 O223 2.275 . S
Dy217 O225 2.307 1_655 S
Dy217 O227 2.395 . S
Dy217 O228 2.379 . S
Dy217 O231 2.339 . S
Dy217 C247 2.740 . S
C218 O230 1.254 . S
C218 O231 1.257 1_455 S
O219 Dy216 2.307 1_655 S
O219 C229 1.266 . S
O220 Dy217 2.298 . S
O220 C229 1.236 . S
O221 Dy216 2.395 . S
O221 C238 1.255 . S
O222 Dy216 2.379 . S
O222 C238 1.249 . S
O223 Dy217 2.275 . S
O223 C239 1.254 1_655 S
O224 Dy216 2.339 . S
O224 C239 1.257 . S
O225 Dy217 2.307 1_455 S
O225 C240 1.266 . S
O226 Dy216 2.298 . S
O226 C240 1.236 . S
O227 Dy217 2.395 . S
O227 C247 1.255 . S
O228 Dy217 2.379 . S
O228 C247 1.251 . S
C229 O219 1.266 . S
C229 O220 1.236 . S
O230 Dy216 2.275 . S
O230 C218 1.254 . S
O231 Dy217 2.339 . S
O231 C218 1.257 1_655 S
C232 C235 1.344 . S
C232 C236 1.328 . S
C232 C238 1.516 . S
C233 C234 1.304 . S
C233 C237 1.323 . S
C234 C233 1.304 . S
C234 C235 1.371 . S
C234 H248 0.930 . S
C235 C232 1.344 . S
C235 C234 1.371 . S
C235 H249 0.931 . S
C236 C232 1.328 . S
C236 C237 1.433 . S
C236 H250 0.931 . S
C237 C233 1.323 . S
C237 C236 1.433 . S
C237 H251 0.933 . S
C238 Dy216 2.738 . S
C238 O221 1.255 . S
C238 O222 1.249 . S
C238 C232 1.516 . S
C239 O223 1.254 1_455 S
C239 O224 1.257 . S
C240 O225 1.266 . S
C240 O226 1.236 . S
C241 C244 1.344 . S
C241 C245 1.328 . S
C241 C247 1.514 1_554 S
C242 C243 1.304 . S
C242 C246 1.323 . S
C243 C242 1.304 . S
C243 C244 1.371 . S
C243 H252 0.930 . S
C244 C241 1.344 . S
C244 C243 1.371 . S
C244 H253 0.931 . S
C245 C241 1.328 . S
C245 C246 1.433 . S
C245 H254 0.931 . S
C246 C242 1.323 . S
C246 C245 1.433 . S
C246 H255 0.933 . S
C247 Dy217 2.740 . S
C247 O227 1.255 . S
C247 O228 1.251 . S
C247 C241 1.514 1_556 S
H248 C234 0.930 . S
H249 C235 0.931 . S
H250 C236 0.931 . S
H251 C237 0.933 . S
H252 C243 0.930 . S
H253 C244 0.931 . S
H254 C245 0.931 . S
H255 C246 0.933 . S
C256 C257 1.391 1_565 S
C256 C258 1.394 . S
C256 H272 0.931 . S
C257 C256 1.391 1_545 S
C257 C261 1.376 . S
C258 C256 1.394 . S
C258 C259 1.369 1_565 S
C258 C262 1.531 . S
C259 C258 1.369 1_545 S
C259 C260 1.410 . S
C259 C267 1.503 . S
C260 C259 1.410 . S
C260 C261 1.392 . S
C260 C263 1.511 . S
C261 C257 1.376 . S
C261 C260 1.392 . S
C261 H273 0.929 . S
C262 C258 1.531 . S
C262 H274 0.960 . S
C262 H275 0.962 . S
C262 H276 0.960 . S
C263 C260 1.511 . S
C263 H277 0.961 . S
C263 H278 0.961 . S
C263 H279 0.961 . S
C264 C265 1.370 1_565 S
C264 C266 1.363 . S
C264 H280 0.931 . S
C265 C264 1.370 1_545 S
C265 C269 1.408 . S
C266 C264 1.363 . S
C266 C267 1.370 1_565 S
C266 C270 1.524 . S
C267 C259 1.503 . S
C267 C266 1.370 1_545 S
C267 C268 1.403 . S
C268 C267 1.403 . S
C268 C269 1.404 . S
C268 C271 1.539 . S
C269 C265 1.408 . S
C269 C268 1.404 . S
C269 H281 0.930 . S
C270 C266 1.524 . S
C270 H282 0.956 . S
C270 H283 0.961 . S
C270 H284 0.961 . S
C271 C268 1.539 . S
C271 H285 0.958 . S
C271 H286 0.961 . S
C271 H287 0.960 . S
H272 C256 0.931 . S
H273 C261 0.929 . S
H274 C262 0.960 . S
H275 C262 0.962 . S
H276 C262 0.960 . S
H277 C263 0.961 . S
H278 C263 0.961 . S
H279 C263 0.961 . S
H280 C264 0.931 . S
H281 C269 0.930 . S
H282 C270 0.956 . S
H283 C270 0.961 . S
H284 C270 0.961 . S
H285 C271 0.958 . S
H286 C271 0.961 . S
H287 C271 0.960 . S
C288 C289 1.391 . S
C288 C290 1.394 . S
C288 H304 0.931 . S
C289 C288 1.391 . S
C289 C293 1.376 . S
C290 C288 1.394 . S
C290 C291 1.369 . S
C290 C294 1.531 . S
C291 C290 1.369 . S
C291 C292 1.410 . S
C291 C299 1.503 . S
C292 C291 1.410 . S
C292 C293 1.392 . S
C292 C295 1.511 . S
C293 C289 1.376 . S
C293 C292 1.392 . S
C293 H305 0.929 . S
C294 C290 1.531 . S
C294 H306 0.960 . S
C294 H307 0.962 . S
C294 H308 0.960 . S
C295 C292 1.511 . S
C295 H309 0.961 . S
C295 H310 0.961 . S
C295 H311 0.961 . S
C296 C297 1.370 . S
C296 C298 1.363 . S
C296 H312 0.931 . S
C297 C296 1.370 . S
C297 C301 1.408 . S
C298 C296 1.363 . S
C298 C299 1.370 . S
C298 C302 1.524 . S
C299 C291 1.503 . S
C299 C298 1.370 . S
C299 C300 1.403 . S
C300 C299 1.403 . S
C300 C301 1.404 . S
C300 C303 1.539 . S
C301 C297 1.408 . S
C301 C300 1.404 . S
C301 H313 0.930 . S
C302 C298 1.524 . S
C302 H314 0.956 . S
C302 H315 0.961 . S
C302 H316 0.961 . S
C303 C300 1.539 . S
C303 H317 0.958 . S
C303 H318 0.961 . S
C303 H319 0.960 . S
H304 C288 0.931 . S
H305 C293 0.929 . S
H306 C294 0.960 . S
H307 C294 0.962 . S
H308 C294 0.960 . S
H309 C295 0.961 . S
H310 C295 0.961 . S
H311 C295 0.961 . S
H312 C296 0.931 . S
H313 C301 0.930 . S
H314 C302 0.956 . S
H315 C302 0.961 . S
H316 C302 0.961 . S
H317 C303 0.958 . S
H318 C303 0.961 . S
H319 C303 0.960 . S
C320 C321 1.391 . S
C320 C322 1.394 . S
C320 H336 0.931 . S
C321 C320 1.391 . S
C321 C325 1.376 . S
C322 C320 1.394 . S
C322 C323 1.369 . S
C322 C326 1.531 . S
C323 C322 1.369 . S
C323 C324 1.410 . S
C323 C331 1.503 . S
C324 C323 1.410 . S
C324 C325 1.392 . S
C324 C327 1.511 . S
C325 C321 1.376 . S
C325 C324 1.392 . S
C325 H337 0.929 . S
C326 C322 1.531 . S
C326 H338 0.960 . S
C326 H339 0.962 . S
C326 H340 0.960 . S
C327 C324 1.511 . S
C327 H341 0.961 . S
C327 H342 0.961 . S
C327 H343 0.961 . S
C328 C329 1.370 . S
C328 C330 1.363 . S
C328 H344 0.931 . S
C329 C328 1.370 . S
C329 C333 1.408 . S
C330 C328 1.363 . S
C330 C331 1.370 . S
C330 C334 1.524 . S
C331 C323 1.503 . S
C331 C330 1.370 . S
C331 C332 1.403 . S
C332 C331 1.403 . S
C332 C333 1.404 . S
C332 C335 1.539 . S
C333 C329 1.408 . S
C333 C332 1.404 . S
C333 H345 0.930 . S
C334 C330 1.524 . S
C334 H346 0.956 . S
C334 H347 0.961 . S
C334 H348 0.961 . S
C335 C332 1.539 . S
C335 H349 0.958 . S
C335 H350 0.961 . S
C335 H351 0.960 . S
H336 C320 0.931 . S
H337 C325 0.929 . S
H338 C326 0.960 . S
H339 C326 0.962 . S
H340 C326 0.960 . S
H341 C327 0.961 . S
H342 C327 0.961 . S
H343 C327 0.961 . S
H344 C328 0.931 . S
H345 C333 0.930 . S
H346 C334 0.956 . S
H347 C334 0.961 . S
H348 C334 0.961 . S
H349 C335 0.958 . S
H350 C335 0.961 . S
H351 C335 0.960 . S
C352 C353 1.391 . S
C352 C354 1.394 . S
C352 H368 0.931 . S
C353 C352 1.391 . S
C353 C357 1.376 1_455 S
C354 C352 1.394 . S
C354 C355 1.369 . S
C354 C358 1.531 . S
C355 C354 1.369 . S
C355 C356 1.410 1_455 S
C355 C363 1.503 . S
C356 C355 1.410 1_655 S
C356 C357 1.392 . S
C356 C359 1.511 . S
C357 C353 1.376 1_655 S
C357 C356 1.392 . S
C357 H369 0.929 . S
C358 C354 1.531 . S
C358 H370 0.960 . S
C358 H371 0.962 . S
C358 H372 0.960 . S
C359 C356 1.511 . S
C359 H373 0.961 . S
C359 H374 0.961 . S
C359 H375 0.961 . S
C360 C361 1.370 . S
C360 C362 1.363 . S
C360 H376 0.931 . S
C361 C360 1.370 . S
C361 C365 1.408 1_455 S
C362 C360 1.363 . S
C362 C363 1.370 . S
C362 C366 1.524 . S
C363 C355 1.503 . S
C363 C362 1.370 . S
C363 C364 1.403 1_455 S
C364 C363 1.403 1_655 S
C364 C365 1.404 . S
C364 C367 1.539 . S
C365 C361 1.408 1_655 S
C365 C364 1.404 . S
C365 H377 0.930 . S
C366 C362 1.524 . S
C366 H378 0.956 . S
C366 H379 0.961 . S
C366 H380 0.961 . S
C367 C364 1.539 . S
C367 H381 0.958 . S
C367 H382 0.961 . S
C367 H383 0.960 . S
H368 C352 0.931 . S
H369 C357 0.929 . S
H370 C358 0.960 . S
H371 C358 0.962 . S
H372 C358 0.960 . S
H373 C359 0.961 . S
H374 C359 0.961 . S
H375 C359 0.961 . S
H376 C360 0.931 . S
H377 C365 0.930 . S
H378 C366 0.956 . S
H379 C366 0.961 . S
H380 C366 0.961 . S
H381 C367 0.958 . S
H382 C367 0.961 . S
H383 C367 0.960 . S
C384 C385 1.391 1_565 S
C384 C386 1.394 . S
C384 H400 0.931 . S
C385 C384 1.391 1_545 S
C385 C389 1.376 . S
C386 C384 1.394 . S
C386 C387 1.369 1_565 S
C386 C390 1.531 1_554 S
C387 C386 1.369 1_545 S
C387 C388 1.410 . S
C387 C395 1.503 . S
C388 C387 1.410 . S
C388 C389 1.392 . S
C388 C391 1.511 . S
C389 C385 1.376 . S
C389 C388 1.392 . S
C389 H401 0.929 . S
C390 C386 1.531 1_556 S
C390 H402 0.960 . S
C390 H403 0.962 . S
C390 H404 0.960 . S
C391 C388 1.511 . S
C391 H405 0.961 . S
C391 H406 0.961 . S
C391 H407 0.961 . S
C392 C393 1.368 1_565 S
C392 C394 1.363 1_556 S
C392 H408 0.931 . S
C393 C392 1.368 1_545 S
C393 C397 1.411 . S
C394 C392 1.363 1_554 S
C394 C395 1.370 1_565 S
C394 C398 1.524 . S
C395 C387 1.503 . S
C395 C394 1.370 1_545 S
C395 C396 1.403 . S
C396 C395 1.403 . S
C396 C397 1.404 1_554 S
C396 C399 1.539 . S
C397 C393 1.411 . S
C397 C396 1.404 1_556 S
C397 H409 0.930 . S
C398 C394 1.524 . S
C398 H410 0.956 . S
C398 H411 0.961 . S
C398 H412 0.961 . S
C399 C396 1.539 . S
C399 H413 0.958 1_554 S
C399 H414 0.961 . S
C399 H415 0.960 . S
H400 C384 0.931 . S
H401 C389 0.929 . S
H402 C390 0.960 . S
H403 C390 0.962 . S
H404 C390 0.960 . S
H405 C391 0.961 . S
H406 C391 0.961 . S
H407 C391 0.961 . S
H408 C392 0.931 . S
H409 C397 0.930 . S
H410 C398 0.956 . S
H411 C398 0.961 . S
H412 C398 0.961 . S
H413 C399 0.958 1_556 S
H414 C399 0.961 . S
H415 C399 0.960 . S
C416 C417 1.391 . S
C416 C418 1.394 . S
C416 H432 0.931 . S
C417 C416 1.391 . S
C417 C421 1.376 . S
C418 C416 1.394 . S
C418 C419 1.369 . S
C418 C422 1.531 . S
C419 C418 1.369 . S
C419 C420 1.410 . S
C419 C427 1.503 1_554 S
C420 C419 1.410 . S
C420 C421 1.392 . S
C420 C423 1.511 1_554 S
C421 C417 1.376 . S
C421 C420 1.392 . S
C421 H433 0.929 . S
C422 C418 1.531 . S
C422 H434 0.960 . S
C422 H435 0.962 . S
C422 H436 0.960 . S
C423 C420 1.511 1_556 S
C423 H437 0.961 . S
C423 H438 0.961 . S
C423 H439 0.961 1_556 S
C424 C425 1.370 . S
C424 C426 1.363 . S
C424 H440 0.931 . S
C425 C424 1.370 . S
C425 C429 1.408 . S
C426 C424 1.363 . S
C426 C427 1.370 . S
C426 C430 1.524 . S
C427 C419 1.503 1_556 S
C427 C426 1.370 . S
C427 C428 1.403 1_556 S
C428 C427 1.403 1_554 S
C428 C429 1.404 1_554 S
C428 C431 1.539 . S
C429 C425 1.408 . S
C429 C428 1.404 1_556 S
C429 H441 0.930 1_556 S
C430 C426 1.524 . S
C430 H442 0.956 . S
C430 H443 0.961 . S
C430 H444 0.961 . S
C431 C428 1.539 . S
C431 H445 0.958 . S
C431 H446 0.961 . S
C431 H447 0.960 . S
H432 C416 0.931 . S
H433 C421 0.929 . S
H434 C422 0.960 . S
H435 C422 0.962 . S
H436 C422 0.960 . S
H437 C423 0.961 . S
H438 C423 0.961 . S
H439 C423 0.961 1_554 S
H440 C424 0.931 . S
H441 C429 0.930 1_554 S
H442 C430 0.956 . S
H443 C430 0.961 . S
H444 C430 0.961 . S
H445 C431 0.958 . S
H446 C431 0.961 . S
H447 C431 0.960 . S
C448 C449 1.391 . S
C448 C450 1.394 . S
C448 H464 0.931 . S
C449 C448 1.391 . S
C449 C453 1.376 . S
C450 C448 1.394 . S
C450 C451 1.369 . S
C450 C454 1.531 . S
C451 C450 1.369 . S
C451 C452 1.410 . S
C451 C459 1.503 . S
C452 C451 1.410 . S
C452 C453 1.392 . S
C452 C455 1.511 . S
C453 C449 1.376 . S
C453 C452 1.392 . S
C453 H465 0.929 . S
C454 C450 1.531 . S
C454 H466 0.960 . S
C454 H467 0.962 . S
C454 H468 0.960 . S
C455 C452 1.511 . S
C455 H469 0.961 . S
C455 H470 0.961 . S
C455 H471 0.961 . S
C456 C457 1.370 . S
C456 C458 1.363 . S
C456 H472 0.931 . S
C457 C456 1.370 . S
C457 C461 1.408 . S
C458 C456 1.363 . S
C458 C459 1.370 . S
C458 C462 1.524 . S
C459 C451 1.503 . S
C459 C458 1.370 . S
C459 C460 1.403 . S
C460 C459 1.403 . S
C460 C461 1.404 . S
C460 C463 1.539 . S
C461 C457 1.408 . S
C461 C460 1.404 . S
C461 H473 0.930 . S
C462 C458 1.524 . S
C462 H474 0.956 . S
C462 H475 0.961 . S
C462 H476 0.961 . S
C463 C460 1.539 . S
C463 H477 0.958 . S
C463 H478 0.961 . S
C463 H479 0.960 . S
H464 C448 0.931 . S
H465 C453 0.929 . S
H466 C454 0.960 . S
H467 C454 0.962 . S
H468 C454 0.960 . S
H469 C455 0.961 . S
H470 C455 0.961 . S
H471 C455 0.961 . S
H472 C456 0.931 . S
H473 C461 0.930 . S
H474 C462 0.956 . S
H475 C462 0.961 . S
H476 C462 0.961 . S
H477 C463 0.958 . S
H478 C463 0.961 . S
H479 C463 0.960 . S
C480 C481 1.391 . S
C480 C482 1.394 . S
C480 H496 0.931 . S
C481 C480 1.391 . S
C481 C485 1.376 1_655 S
C482 C480 1.394 . S
C482 C483 1.398 . S
C482 C486 1.531 . S
C483 C482 1.398 . S
C483 C484 1.375 1_655 S
C483 C491 1.505 . S
C484 C483 1.375 1_455 S
C484 C485 1.392 . S
C484 C487 1.511 . S
C485 C481 1.376 1_455 S
C485 C484 1.392 . S
C485 H497 0.929 . S
C486 C482 1.531 . S
C486 H498 0.960 . S
C486 H499 0.962 . S
C486 H500 0.960 . S
C487 C484 1.511 . S
C487 H501 0.961 . S
C487 H502 0.961 . S
C487 H503 0.961 . S
C488 C489 1.376 1_554 S
C488 C490 1.363 . S
C488 H504 0.931 . S
C489 C488 1.376 1_556 S
C489 C493 1.399 1_655 S
C490 C488 1.363 . S
C490 C491 1.385 . S
C490 C494 1.524 . S
C491 C483 1.505 . S
C491 C490 1.385 . S
C491 C492 1.394 1_655 S
C492 C491 1.394 1_455 S
C492 C493 1.404 1_554 S
C492 C495 1.539 . S
C493 C489 1.399 1_455 S
C493 C492 1.404 1_556 S
C493 H505 0.930 . S
C494 C490 1.524 . S
C494 H506 0.956 . S
C494 H507 0.961 . S
C494 H508 0.961 . S
C495 C492 1.539 . S
C495 H509 0.957 1_554 S
C495 H510 0.961 1_554 S
C495 H511 0.960 . S
H496 C480 0.931 . S
H497 C485 0.929 . S
H498 C486 0.960 . S
H499 C486 0.962 . S
H500 C486 0.960 . S
H501 C487 0.961 . S
H502 C487 0.961 . S
H503 C487 0.961 . S
H504 C488 0.931 . S
H505 C493 0.930 . S
H506 C494 0.956 . S
H507 C494 0.961 . S
H508 C494 0.961 . S
H509 C495 0.957 1_556 S
H510 C495 0.961 1_556 S
H511 C495 0.960 . S
C512 C513 1.391 . S
C512 C514 1.394 . S
C512 H528 0.931 . S
C513 C512 1.391 . S
C513 C517 1.376 1_455 S
C514 C512 1.394 . S
C514 C515 1.369 . S
C514 C518 1.531 . S
C515 C514 1.369 . S
C515 C516 1.410 1_455 S
C515 C523 1.495 1_455 S
C516 C515 1.410 1_655 S
C516 C517 1.392 . S
C516 C519 1.511 . S
C517 C513 1.376 1_655 S
C517 C516 1.392 . S
C517 H529 0.929 . S
C518 C514 1.531 . S
C518 H530 0.960 . S
C518 H531 0.962 . S
C518 H532 0.960 . S
C519 C516 1.511 . S
C519 H533 0.961 . S
C519 H534 0.961 . S
C519 H535 0.961 . S
C520 C521 1.370 . S
C520 C522 1.363 . S
C520 H536 0.931 . S
C521 C520 1.370 . S
C521 C525 1.408 1_655 S
C522 C520 1.363 . S
C522 C523 1.400 . S
C522 C526 1.524 . S
C523 C515 1.495 1_655 S
C523 C522 1.400 . S
C523 C524 1.382 1_655 S
C524 C523 1.382 1_455 S
C524 C525 1.404 . S
C524 C527 1.539 . S
C525 C521 1.408 1_455 S
C525 C524 1.404 . S
C525 H537 0.930 . S
C526 C522 1.524 . S
C526 H538 0.956 . S
C526 H539 0.961 . S
C526 H540 0.961 . S
C527 C524 1.539 . S
C527 H541 0.958 . S
C527 H542 0.961 . S
C527 H543 0.960 . S
H528 C512 0.931 . S
H529 C517 0.929 . S
H530 C518 0.960 . S
H531 C518 0.962 . S
H532 C518 0.960 . S
H533 C519 0.961 . S
H534 C519 0.961 . S
H535 C519 0.961 . S
H536 C520 0.931 . S
H537 C525 0.930 . S
H538 C526 0.956 . S
H539 C526 0.961 . S
H540 C526 0.961 . S
H541 C527 0.958 . S
H542 C527 0.961 . S
H543 C527 0.960 . S
C544 C545 1.421 . S
C544 C546 1.394 . S
C544 H560 0.931 . S
C545 C544 1.421 . S
C545 C549 1.352 1_565 S
C546 C544 1.394 . S
C546 C547 1.369 . S
C546 C550 1.531 . S
C547 C546 1.369 . S
C547 C548 1.410 1_565 S
C547 C555 1.503 . S
C548 C547 1.410 1_545 S
C548 C549 1.392 . S
C548 C551 1.511 . S
C549 C545 1.352 1_545 S
C549 C548 1.392 . S
C549 H561 0.929 . S
C550 C546 1.531 . S
C550 H562 0.960 . S
C550 H563 0.962 . S
C550 H564 0.960 . S
C551 C548 1.511 . S
C551 H565 0.961 . S
C551 H566 0.961 . S
C551 H567 0.961 . S
C552 C553 1.370 . S
C552 C554 1.363 . S
C552 H568 0.931 . S
C553 C552 1.370 . S
C553 C557 1.408 . S
C554 C552 1.363 . S
C554 C555 1.370 . S
C554 C558 1.524 1_565 S
C555 C547 1.503 . S
C555 C554 1.370 . S
C555 C556 1.403 . S
C556 C555 1.403 . S
C556 C557 1.404 . S
C556 C559 1.539 . S
C557 C553 1.408 . S
C557 C556 1.404 . S
C557 H569 0.930 . S
C558 C554 1.524 1_545 S
C558 H570 0.956 1_545 S
C558 H571 0.961 . S
C558 H572 0.961 . S
C559 C556 1.539 . S
C559 H573 0.958 . S
C559 H574 0.961 . S
C559 H575 0.960 . S
H560 C544 0.931 . S
H561 C549 0.929 . S
H562 C550 0.960 . S
H563 C550 0.962 . S
H564 C550 0.960 . S
H565 C551 0.961 . S
H566 C551 0.961 . S
H567 C551 0.961 . S
H568 C552 0.931 . S
H569 C557 0.930 . S
H570 C558 0.956 1_565 S
H571 C558 0.961 . S
H572 C558 0.961 . S
H573 C559 0.958 . S
H574 C559 0.961 . S
H575 C559 0.960 . S
C576 C577 1.391 . S
C576 C578 1.394 . S
C576 H592 0.931 . S
C577 C576 1.391 . S
C577 C581 1.376 . S
C578 C576 1.394 . S
C578 C579 1.369 . S
C578 C582 1.531 . S
C579 C578 1.369 . S
C579 C580 1.410 . S
C579 C587 1.503 . S
C580 C579 1.410 . S
C580 C581 1.392 . S
C580 C583 1.511 . S
C581 C577 1.376 . S
C581 C580 1.392 . S
C581 H593 0.929 . S
C582 C578 1.531 . S
C582 H594 0.960 . S
C582 H595 0.962 . S
C582 H596 0.960 . S
C583 C580 1.511 . S
C583 H597 0.961 . S
C583 H598 0.961 . S
C583 H599 0.961 . S
C584 C585 1.370 . S
C584 C586 1.363 . S
C584 H600 0.931 . S
C585 C584 1.370 . S
C585 C589 1.408 . S
C586 C584 1.363 . S
C586 C587 1.370 . S
C586 C590 1.524 . S
C587 C579 1.503 . S
C587 C586 1.370 . S
C587 C588 1.403 . S
C588 C587 1.403 . S
C588 C589 1.404 . S
C588 C591 1.539 . S
C589 C585 1.408 . S
C589 C588 1.404 . S
C589 H601 0.930 . S
C590 C586 1.524 . S
C590 H602 0.956 . S
C590 H603 0.961 . S
C590 H604 0.961 . S
C591 C588 1.539 . S
C591 H605 0.958 . S
C591 H606 0.961 . S
C591 H607 0.960 . S
H592 C576 0.931 . S
H593 C581 0.929 . S
H594 C582 0.960 . S
H595 C582 0.962 . S
H596 C582 0.960 . S
H597 C583 0.961 . S
H598 C583 0.961 . S
H599 C583 0.961 . S
H600 C584 0.931 . S
H601 C589 0.930 . S
H602 C590 0.956 . S
H603 C590 0.961 . S
H604 C590 0.961 . S
H605 C591 0.958 . S
H606 C591 0.961 . S
H607 C591 0.960 . S
C608 C609 1.391 . S
C608 C610 1.394 . S
C608 H624 0.931 . S
C609 C608 1.391 . S
C609 C613 1.376 . S
C610 C608 1.394 . S
C610 C611 1.369 . S
C610 C614 1.531 . S
C611 C610 1.369 . S
C611 C612 1.410 . S
C611 C619 1.503 . S
C612 C611 1.410 . S
C612 C613 1.392 . S
C612 C615 1.511 . S
C613 C609 1.376 . S
C613 C612 1.392 . S
C613 H625 0.929 . S
C614 C610 1.531 . S
C614 H626 0.960 . S
C614 H627 0.962 . S
C614 H628 0.960 . S
C615 C612 1.511 . S
C615 H629 0.961 . S
C615 H630 0.961 . S
C615 H631 0.961 . S
C616 C617 1.370 . S
C616 C618 1.363 . S
C616 H632 0.931 . S
C617 C616 1.370 . S
C617 C621 1.408 . S
C618 C616 1.363 . S
C618 C619 1.370 . S
C618 C622 1.524 . S
C619 C611 1.503 . S
C619 C618 1.370 . S
C619 C620 1.403 . S
C620 C619 1.403 . S
C620 C621 1.404 . S
C620 C623 1.539 . S
C621 C617 1.408 . S
C621 C620 1.404 . S
C621 H633 0.930 . S
C622 C618 1.524 . S
C622 H634 0.956 . S
C622 H635 0.961 . S
C622 H636 0.961 . S
C623 C620 1.539 . S
C623 H637 0.958 . S
C623 H638 0.961 . S
C623 H639 0.960 . S
H624 C608 0.931 . S
H625 C613 0.929 . S
H626 C614 0.960 . S
H627 C614 0.962 . S
H628 C614 0.960 . S
H629 C615 0.961 . S
H630 C615 0.961 . S
H631 C615 0.961 . S
H632 C616 0.931 . S
H633 C621 0.930 . S
H634 C622 0.956 . S
H635 C622 0.961 . S
H636 C622 0.961 . S
H637 C623 0.958 . S
H638 C623 0.961 . S
H639 C623 0.960 . S
C640 C641 1.391 . S
C640 C642 1.394 . S
C640 H656 0.931 . S
C641 C640 1.391 . S
C641 C645 1.376 1_655 S
C642 C640 1.394 . S
C642 C643 1.369 1_655 S
C642 C646 1.531 . S
C643 C642 1.369 1_455 S
C643 C644 1.410 . S
C643 C651 1.503 . S
C644 C643 1.410 . S
C644 C645 1.392 . S
C644 C647 1.511 . S
C645 C641 1.376 1_455 S
C645 C644 1.392 . S
C645 H657 0.929 . S
C646 C642 1.531 . S
C646 H658 0.960 . S
C646 H659 0.962 . S
C646 H660 0.960 . S
C647 C644 1.511 . S
C647 H661 0.961 . S
C647 H662 0.961 . S
C647 H663 0.961 . S
C648 C649 1.370 . S
C648 C650 1.363 . S
C648 H664 0.931 1_455 S
C649 C648 1.370 . S
C649 C653 1.408 . S
C650 C648 1.363 . S
C650 C651 1.370 . S
C650 C654 1.524 1_455 S
C651 C643 1.503 . S
C651 C650 1.370 . S
C651 C652 1.403 . S
C652 C651 1.403 . S
C652 C653 1.404 . S
C652 C655 1.539 . S
C653 C649 1.408 . S
C653 C652 1.404 . S
C653 H665 0.930 . S
C654 C650 1.524 1_655 S
C654 H666 0.956 . S
C654 H667 0.961 . S
C654 H668 0.961 . S
C655 C652 1.539 . S
C655 H669 0.958 . S
C655 H670 0.961 . S
C655 H671 0.960 . S
H656 C640 0.931 . S
H657 C645 0.929 . S
H658 C646 0.960 . S
H659 C646 0.962 . S
H660 C646 0.960 . S
H661 C647 0.961 . S
H662 C647 0.961 . S
H663 C647 0.961 . S
H664 C648 0.931 1_655 S
H665 C653 0.930 . S
H666 C654 0.956 . S
H667 C654 0.961 . S
H668 C654 0.961 . S
H669 C655 0.958 . S
H670 C655 0.961 . S
H671 C655 0.960 . S
C672 C673 1.391 . S
C672 C674 1.394 . S
C672 H688 0.931 . S
C673 C672 1.391 . S
C673 C677 1.376 . S
C674 C672 1.394 . S
C674 C675 1.369 . S
C674 C678 1.531 . S
C675 C674 1.369 . S
C675 C676 1.410 . S
C675 C683 1.503 . S
C676 C675 1.410 . S
C676 C677 1.392 . S
C676 C679 1.511 . S
C677 C673 1.376 . S
C677 C676 1.392 . S
C677 H689 0.929 1_545 S
C678 C674 1.531 . S
C678 H690 0.960 . S
C678 H691 0.962 . S
C678 H692 0.960 . S
C679 C676 1.511 . S
C679 H693 0.961 1_545 S
C679 H694 0.961 . S
C679 H695 0.961 . S
C680 C681 1.389 . S
C680 C682 1.362 1_545 S
C680 H696 0.913 1_545 S
C681 C680 1.389 . S
C681 C685 1.408 . S
C682 C680 1.362 1_565 S
C682 C683 1.370 1_565 S
C682 C686 1.524 . S
C683 C675 1.503 . S
C683 C682 1.370 1_545 S
C683 C684 1.403 . S
C684 C683 1.403 . S
C684 C685 1.404 . S
C684 C687 1.539 . S
C685 C681 1.408 . S
C685 C684 1.404 . S
C685 H697 0.930 . S
C686 C682 1.524 . S
C686 H698 0.956 . S
C686 H699 0.961 . S
C686 H700 0.961 . S
C687 C684 1.539 . S
C687 H701 0.958 . S
C687 H702 0.961 . S
C687 H703 0.960 . S
H688 C672 0.931 . S
H689 C677 0.929 1_565 S
H690 C678 0.960 . S
H691 C678 0.962 . S
H692 C678 0.960 . S
H693 C679 0.961 1_565 S
H694 C679 0.961 . S
H695 C679 0.961 . S
H696 C680 0.913 1_565 S
H697 C685 0.930 . S
H698 C686 0.956 . S
H699 C686 0.961 . S
H700 C686 0.961 . S
H701 C687 0.958 . S
H702 C687 0.961 . S
H703 C687 0.960 . S
C704 C705 1.391 . S
C704 C706 1.394 1_554 S
C704 H720 0.931 1_554 S
C705 C704 1.391 . S
C705 C709 1.376 . S
C706 C704 1.394 1_556 S
C706 C707 1.369 1_556 S
C706 C710 1.531 . S
C707 C706 1.369 1_554 S
C707 C708 1.410 . S
C707 C715 1.503 . S
C708 C707 1.410 . S
C708 C709 1.392 . S
C708 C711 1.511 . S
C709 C705 1.376 . S
C709 C708 1.392 . S
C709 H721 0.929 . S
C710 C706 1.531 . S
C710 H722 0.960 . S
C710 H723 0.962 . S
C710 H724 0.960 . S
C711 C708 1.511 . S
C711 H725 0.961 . S
C711 H726 0.961 . S
C711 H727 0.961 . S
C712 C713 1.370 . S
C712 C714 1.363 . S
C712 H728 0.931 . S
C713 C712 1.370 . S
C713 C717 1.408 1_556 S
C714 C712 1.363 . S
C714 C715 1.370 1_556 S
C714 C718 1.524 . S
C715 C707 1.503 . S
C715 C714 1.370 1_554 S
C715 C716 1.403 . S
C716 C715 1.403 . S
C716 C717 1.404 . S
C716 C719 1.539 . S
C717 C713 1.408 1_554 S
C717 C716 1.404 . S
C717 H729 0.930 . S
C718 C714 1.524 . S
C718 H730 0.956 . S
C718 H731 0.961 . S
C718 H732 0.961 . S
C719 C716 1.539 . S
C719 H733 0.958 . S
C719 H734 0.961 . S
C719 H735 0.960 . S
H720 C704 0.931 1_556 S
H721 C709 0.929 . S
H722 C710 0.960 . S
H723 C710 0.962 . S
H724 C710 0.960 . S
H725 C711 0.961 . S
H726 C711 0.961 . S
H727 C711 0.961 . S
H728 C712 0.931 . S
H729 C717 0.930 . S
H730 C718 0.956 . S
H731 C718 0.961 . S
H732 C718 0.961 . S
H733 C719 0.958 . S
H734 C719 0.961 . S
H735 C719 0.960 . S
C736 C737 1.391 . S
C736 C738 1.394 . S
C736 H752 0.931 . S
C737 C736 1.391 . S
C737 C741 1.376 . S
C738 C736 1.394 . S
C738 C739 1.369 . S
C738 C742 1.531 . S
C739 C738 1.369 . S
C739 C740 1.410 . S
C739 C747 1.503 . S
C740 C739 1.410 . S
C740 C741 1.392 . S
C740 C743 1.511 . S
C741 C737 1.376 . S
C741 C740 1.392 . S
C741 H753 0.929 . S
C742 C738 1.531 . S
C742 H754 0.960 . S
C742 H755 0.962 . S
C742 H756 0.960 . S
C743 C740 1.511 . S
C743 H757 0.961 . S
C743 H758 0.961 . S
C743 H759 0.961 . S
C744 C745 1.370 . S
C744 C746 1.363 . S
C744 H760 0.931 . S
C745 C744 1.370 . S
C745 C749 1.408 . S
C746 C744 1.363 . S
C746 C747 1.370 . S
C746 C750 1.524 . S
C747 C739 1.503 . S
C747 C746 1.370 . S
C747 C748 1.403 . S
C748 C747 1.403 . S
C748 C749 1.404 . S
C748 C751 1.539 . S
C749 C745 1.408 . S
C749 C748 1.404 . S
C749 H761 0.930 . S
C750 C746 1.524 . S
C750 H762 0.956 . S
C750 H763 0.961 . S
C750 H764 0.961 . S
C751 C748 1.539 . S
C751 H765 0.958 . S
C751 H766 0.961 . S
C751 H767 0.960 . S
H752 C736 0.931 . S
H753 C741 0.929 . S
H754 C742 0.960 . S
H755 C742 0.962 . S
H756 C742 0.960 . S
H757 C743 0.961 . S
H758 C743 0.961 . S
H759 C743 0.961 . S
H760 C744 0.931 . S
H761 C749 0.930 . S
H762 C750 0.956 . S
H763 C750 0.961 . S
H764 C750 0.961 . S
H765 C751 0.958 . S
H766 C751 0.961 . S
H767 C751 0.960 . S
C768 C769 1.391 . S
C768 C770 1.394 . S
C768 H784 0.931 . S
C769 C768 1.391 . S
C769 C773 1.376 1_456 S
C770 C768 1.394 . S
C770 C771 1.369 . S
C770 C774 1.531 . S
C771 C770 1.369 . S
C771 C772 1.410 1_456 S
C771 C779 1.503 . S
C772 C771 1.410 1_654 S
C772 C773 1.392 . S
C772 C775 1.511 . S
C773 C769 1.376 1_654 S
C773 C772 1.392 . S
C773 H785 0.929 . S
C774 C770 1.531 . S
C774 H786 0.960 . S
C774 H787 0.962 . S
C774 H788 0.960 . S
C775 C772 1.511 . S
C775 H789 0.961 . S
C775 H790 0.961 . S
C775 H791 0.961 . S
C776 C777 1.366 1_655 S
C776 C778 1.360 1_655 S
C776 H792 0.936 . S
C777 C776 1.366 1_455 S
C777 C781 1.408 . S
C778 C776 1.360 1_455 S
C778 C779 1.381 . S
C778 C782 1.516 1_455 S
C779 C771 1.503 . S
C779 C778 1.381 . S
C779 C780 1.403 . S
C780 C779 1.403 . S
C780 C781 1.404 . S
C780 C783 1.539 1_556 S
C781 C777 1.408 . S
C781 C780 1.404 . S
C781 H793 0.930 . S
C782 C778 1.516 1_655 S
C782 H794 0.956 . S
C782 H795 0.961 . S
C782 H796 0.961 . S
C783 C780 1.539 1_554 S
C783 H797 0.958 . S
C783 H798 0.961 . S
C783 H799 0.960 . S
H784 C768 0.931 . S
H785 C773 0.929 . S
H786 C774 0.960 . S
H787 C774 0.962 . S
H788 C774 0.960 . S
H789 C775 0.961 . S
H790 C775 0.961 . S
H791 C775 0.961 . S
H792 C776 0.936 . S
H793 C781 0.930 . S
H794 C782 0.956 . S
H795 C782 0.961 . S
H796 C782 0.961 . S
H797 C783 0.958 . S
H798 C783 0.961 . S
H799 C783 0.960 . S
C800 C801 1.391 1_565 S
C800 C802 1.394 . S
C800 H816 0.931 . S
C801 C800 1.391 1_545 S
C801 C805 1.376 . S
C802 C800 1.394 . S
C802 C803 1.369 1_564 S
C802 C806 1.531 1_554 S
C803 C802 1.369 1_546 S
C803 C804 1.410 . S
C803 C811 1.503 . S
C804 C803 1.410 . S
C804 C805 1.392 1_556 S
C804 C807 1.511 . S
C805 C801 1.376 . S
C805 C804 1.392 1_554 S
C805 H817 0.929 . S
C806 C802 1.531 1_556 S
C806 H818 0.960 . S
C806 H819 0.962 1_556 S
C806 H820 0.960 . S
C807 C804 1.511 . S
C807 H821 0.961 1_556 S
C807 H822 0.961 . S
C807 H823 0.961 . S
C808 C809 1.370 1_554 S
C808 C810 1.363 . S
C808 H824 0.931 . S
C809 C808 1.370 1_556 S
C809 C813 1.408 . S
C810 C808 1.363 . S
C810 C811 1.370 1_554 S
C810 C814 1.524 . S
C811 C803 1.503 . S
C811 C810 1.370 1_556 S
C811 C812 1.403 . S
C812 C811 1.403 . S
C812 C813 1.404 . S
C812 C815 1.535 1_545 S
C813 C809 1.408 . S
C813 C812 1.404 . S
C813 H825 0.930 . S
C814 C810 1.524 . S
C814 H826 0.956 1_545 S
C814 H827 0.961 . S
C814 H828 0.961 . S
C815 C812 1.535 1_565 S
C815 H829 0.999 . S
C815 H830 0.940 1_565 S
C815 H831 0.946 1_565 S
H816 C800 0.931 . S
H817 C805 0.929 . S
H818 C806 0.960 . S
H819 C806 0.962 1_554 S
H820 C806 0.960 . S
H821 C807 0.961 1_554 S
H822 C807 0.961 . S
H823 C807 0.961 . S
H824 C808 0.931 . S
H825 C813 0.930 . S
H826 C814 0.956 1_565 S
H827 C814 0.961 . S
H828 C814 0.961 . S
H829 C815 0.999 . S
H830 C815 0.940 1_545 S
H831 C815 0.946 1_545 S
C832 C833 1.391 . S
C832 C834 1.394 . S
C832 H848 0.931 . S
C833 C832 1.391 . S
C833 C837 1.376 . S
C834 C832 1.394 . S
C834 C835 1.369 . S
C834 C838 1.531 . S
C835 C834 1.369 . S
C835 C836 1.410 . S
C835 C843 1.503 . S
C836 C835 1.410 . S
C836 C837 1.392 . S
C836 C839 1.511 . S
C837 C833 1.376 . S
C837 C836 1.392 . S
C837 H849 0.929 . S
C838 C834 1.531 . S
C838 H850 0.960 . S
C838 H851 0.962 . S
C838 H852 0.960 . S
C839 C836 1.511 . S
C839 H853 0.961 . S
C839 H854 0.961 . S
C839 H855 0.961 . S
C840 C841 1.370 . S
C840 C842 1.363 1_556 S
C840 H856 0.931 . S
C841 C840 1.370 . S
C841 C845 1.408 1_556 S
C842 C840 1.363 1_554 S
C842 C843 1.370 . S
C842 C846 1.524 1_554 S
C843 C835 1.503 . S
C843 C842 1.370 . S
C843 C844 1.403 . S
C844 C843 1.403 . S
C844 C845 1.404 . S
C844 C847 1.539 . S
C845 C841 1.408 1_554 S
C845 C844 1.404 . S
C845 H857 0.930 . S
C846 C842 1.524 1_556 S
C846 H858 0.956 1_556 S
C846 H859 0.961 . S
C846 H860 0.961 . S
C847 C844 1.539 . S
C847 H861 0.958 . S
C847 H862 0.961 . S
C847 H863 0.960 . S
H848 C832 0.931 . S
H849 C837 0.929 . S
H850 C838 0.960 . S
H851 C838 0.962 . S
H852 C838 0.960 . S
H853 C839 0.961 . S
H854 C839 0.961 . S
H855 C839 0.961 . S
H856 C840 0.931 . S
H857 C845 0.930 . S
H858 C846 0.956 1_554 S
H859 C846 0.961 . S
H860 C846 0.961 . S
H861 C847 0.958 . S
H862 C847 0.961 . S
H863 C847 0.960 . S
C864 C865 1.391 . S
C864 C866 1.394 . S
C864 H880 0.931 . S
C865 C864 1.391 . S
C865 C869 1.376 . S
C866 C864 1.394 . S
C866 C867 1.369 . S
C866 C870 1.531 . S
C867 C866 1.369 . S
C867 C868 1.410 . S
C867 C875 1.503 . S
C868 C867 1.410 . S
C868 C869 1.392 . S
C868 C871 1.511 1_556 S
C869 C865 1.376 . S
C869 C868 1.392 . S
C869 H881 0.929 . S
C870 C866 1.531 . S
C870 H882 0.960 . S
C870 H883 0.962 . S
C870 H884 0.960 . S
C871 C868 1.511 1_554 S
C871 H885 0.961 . S
C871 H886 0.961 . S
C871 H887 0.961 . S
C872 C873 1.370 . S
C872 C874 1.363 . S
C872 H888 0.931 . S
C873 C872 1.370 . S
C873 C877 1.408 . S
C874 C872 1.363 . S
C874 C875 1.370 . S
C874 C878 1.524 . S
C875 C867 1.503 . S
C875 C874 1.370 . S
C875 C876 1.403 . S
C876 C875 1.403 . S
C876 C877 1.404 . S
C876 C879 1.539 . S
C877 C873 1.408 . S
C877 C876 1.404 . S
C877 H889 0.930 . S
C878 C874 1.524 . S
C878 H890 0.956 . S
C878 H891 0.961 . S
C878 H892 0.961 . S
C879 C876 1.539 . S
C879 H893 0.958 . S
C879 H894 0.961 . S
C879 H895 0.960 . S
H880 C864 0.931 . S
H881 C869 0.929 . S
H882 C870 0.960 . S
H883 C870 0.962 . S
H884 C870 0.960 . S
H885 C871 0.961 . S
H886 C871 0.961 . S
H887 C871 0.961 . S
H888 C872 0.931 . S
H889 C877 0.930 . S
H890 C878 0.956 . S
H891 C878 0.961 . S
H892 C878 0.961 . S
H893 C879 0.958 . S
H894 C879 0.961 . S
H895 C879 0.960 . S
C896 C897 1.391 1_455 S
C896 C898 1.394 . S
C896 H912 0.931 . S
C897 C896 1.391 1_655 S
C897 C901 1.376 . S
C898 C896 1.394 . S
C898 C899 1.369 1_455 S
C898 C902 1.531 . S
C899 C898 1.369 1_655 S
C899 C900 1.410 . S
C899 C907 1.503 . S
C900 C899 1.410 . S
C900 C901 1.392 . S
C900 C903 1.511 . S
C901 C897 1.376 . S
C901 C900 1.392 . S
C901 H913 0.929 . S
C902 C898 1.531 . S
C902 H914 0.960 . S
C902 H915 0.962 . S
C902 H916 0.960 . S
C903 C900 1.511 . S
C903 H917 0.961 . S
C903 H918 0.961 . S
C903 H919 0.961 . S
C904 C905 1.370 . S
C904 C906 1.363 . S
C904 H920 0.923 1_655 S
C905 C904 1.370 . S
C905 C909 1.408 . S
C906 C904 1.363 . S
C906 C907 1.370 . S
C906 C910 1.519 1_655 S
C907 C899 1.503 . S
C907 C906 1.370 . S
C907 C908 1.403 . S
C908 C907 1.403 . S
C908 C909 1.404 . S
C908 C911 1.539 . S
C909 C905 1.408 . S
C909 C908 1.404 . S
C909 H921 0.930 . S
C910 C906 1.519 1_455 S
C910 H922 0.980 . S
C910 H923 0.937 1_455 S
C910 H924 0.958 . S
C911 C908 1.539 . S
C911 H925 0.952 1_655 S
C911 H926 0.961 . S
C911 H927 0.960 . S
H912 C896 0.931 . S
H913 C901 0.929 . S
H914 C902 0.960 . S
H915 C902 0.962 . S
H916 C902 0.960 . S
H917 C903 0.961 . S
H918 C903 0.961 . S
H919 C903 0.961 . S
H920 C904 0.923 1_455 S
H921 C909 0.930 . S
H922 C910 0.980 . S
H923 C910 0.937 1_655 S
H924 C910 0.958 . S
H925 C911 0.952 1_455 S
H926 C911 0.961 . S
H927 C911 0.960 . S
C928 C929 1.391 . S
C928 C930 1.394 . S
C928 H944 0.931 . S
C929 C928 1.391 . S
C929 C933 1.376 1_565 S
C930 C928 1.394 . S
C930 C931 1.369 . S
C930 C934 1.531 . S
C931 C930 1.369 . S
C931 C932 1.426 . S
C931 C939 1.503 . S
C932 C931 1.426 . S
C932 C933 1.384 1_565 S
C932 C935 1.505 1_565 S
C933 C929 1.376 1_545 S
C933 C932 1.384 1_545 S
C933 H945 0.929 . S
C934 C930 1.531 . S
C934 H946 0.960 . S
C934 H947 0.962 . S
C934 H948 0.960 . S
C935 C932 1.505 1_545 S
C935 H949 0.961 . S
C935 H950 0.961 . S
C935 H951 0.961 1_545 S
C936 C937 1.370 1_545 S
C936 C938 1.363 . S
C936 H952 0.931 . S
C937 C936 1.370 1_565 S
C937 C941 1.408 . S
C938 C936 1.363 . S
C938 C939 1.370 1_545 S
C938 C942 1.524 . S
C939 C931 1.503 . S
C939 C938 1.370 1_565 S
C939 C940 1.403 . S
C940 C939 1.403 . S
C940 C941 1.404 . S
C940 C943 1.539 . S
C941 C937 1.408 . S
C941 C940 1.404 . S
C941 H953 0.930 . S
C942 C938 1.524 . S
C942 H954 0.956 . S
C942 H955 0.961 . S
C942 H956 0.961 . S
C943 C940 1.539 . S
C943 H957 0.958 . S
C943 H958 0.961 . S
C943 H959 0.960 . S
H944 C928 0.931 . S
H945 C933 0.929 . S
H946 C934 0.960 . S
H947 C934 0.962 . S
H948 C934 0.960 . S
H949 C935 0.961 . S
H950 C935 0.961 . S
H951 C935 0.961 1_565 S
H952 C936 0.931 . S
H953 C941 0.930 . S
H954 C942 0.956 . S
H955 C942 0.961 . S
H956 C942 0.961 . S
H957 C943 0.958 . S
H958 C943 0.961 . S
H959 C943 0.960 . S
C960 C961 1.391 . S
C960 C962 1.394 . S
C960 H976 0.931 . S
C961 C960 1.391 . S
C961 C965 1.376 . S
C962 C960 1.394 . S
C962 C963 1.369 . S
C962 C966 1.531 . S
C963 C962 1.369 . S
C963 C964 1.410 . S
C963 C971 1.503 . S
C964 C963 1.410 . S
C964 C965 1.392 . S
C964 C967 1.511 . S
C965 C961 1.376 . S
C965 C964 1.392 . S
C965 H977 0.929 . S
C966 C962 1.531 . S
C966 H978 0.960 . S
C966 H979 0.962 . S
C966 H980 0.960 . S
C967 C964 1.511 . S
C967 H981 0.961 . S
C967 H982 0.961 . S
C967 H983 0.961 . S
C968 C969 1.370 . S
C968 C970 1.363 . S
C968 H984 0.931 . S
C969 C968 1.370 . S
C969 C973 1.408 . S
C970 C968 1.363 . S
C970 C971 1.370 . S
C970 C974 1.524 . S
C971 C963 1.503 . S
C971 C970 1.370 . S
C971 C972 1.403 . S
C972 C971 1.403 . S
C972 C973 1.404 . S
C972 C975 1.539 . S
C973 C969 1.408 . S
C973 C972 1.404 . S
C973 H985 0.930 . S
C974 C970 1.524 . S
C974 H986 0.956 . S
C974 H987 0.961 . S
C974 H988 0.961 . S
C975 C972 1.539 . S
C975 H989 0.958 . S
C975 H990 0.961 . S
C975 H991 0.960 . S
H976 C960 0.931 . S
H977 C965 0.929 . S
H978 C966 0.960 . S
H979 C966 0.962 . S
H980 C966 0.960 . S
H981 C967 0.961 . S
H982 C967 0.961 . S
H983 C967 0.961 . S
H984 C968 0.931 . S
H985 C973 0.930 . S
H986 C974 0.956 . S
H987 C974 0.961 . S
H988 C974 0.961 . S
H989 C975 0.958 . S
H990 C975 0.961 . S
H991 C975 0.960 . S
C992 C993 1.391 . S
C992 C994 1.394 . S
C992 H1008 0.931 . S
C993 C992 1.391 . S
C993 C997 1.376 . S
C994 C992 1.394 . S
C994 C995 1.369 . S
C994 C998 1.531 . S
C995 C994 1.369 . S
C995 C996 1.410 . S
C995 C1003 1.503 . S
C996 C995 1.410 . S
C996 C997 1.392 . S
C996 C999 1.511 . S
C997 C993 1.376 . S
C997 C996 1.392 . S
C997 H1009 0.929 . S
C998 C994 1.531 . S
C998 H1010 0.960 . S
C998 H1011 0.962 . S
C998 H1012 0.960 . S
C999 C996 1.511 . S
C999 H1013 0.961 . S
C999 H1014 0.961 . S
C999 H1015 0.961 . S
C1000 C1001 1.370 . S
C1000 C1002 1.363 . S
C1000 H1016 0.931 . S
C1001 C1000 1.370 . S
C1001 C1005 1.408 . S
C1002 C1000 1.363 . S
C1002 C1003 1.370 . S
C1002 C1006 1.524 . S
C1003 C995 1.503 . S
C1003 C1002 1.370 . S
C1003 C1004 1.403 . S
C1004 C1003 1.403 . S
C1004 C1005 1.404 . S
C1004 C1007 1.539 . S
C1005 C1001 1.408 . S
C1005 C1004 1.404 . S
C1005 H1017 0.930 . S
C1006 C1002 1.524 . S
C1006 H1018 0.956 . S
C1006 H1019 0.961 . S
C1006 H1020 0.961 . S
C1007 C1004 1.539 . S
C1007 H1021 0.958 . S
C1007 H1022 0.961 . S
C1007 H1023 0.960 . S
H1008 C992 0.931 . S
H1009 C997 0.929 . S
H1010 C998 0.960 . S
H1011 C998 0.962 . S
H1012 C998 0.960 . S
H1013 C999 0.961 . S
H1014 C999 0.961 . S
H1015 C999 0.961 . S
H1016 C1000 0.931 . S
H1017 C1005 0.930 . S
H1018 C1006 0.956 . S
H1019 C1006 0.961 . S
H1020 C1006 0.961 . S
H1021 C1007 0.958 . S
H1022 C1007 0.961 . S
H1023 C1007 0.960 . S
C257 C76 1.951 1_545 S
C265 C98 2.056 1_545 S
C297 C138 2.052 . S
C289 C88 2.005 . S
C329 C202 1.888 . S
C321 C52 1.791 . S
C361 C218 1.644 . S
C353 C64 1.491 . S
C393 C119 2.048 . S
C385 C28 1.960 1_545 S
C417 C40 2.032 . S
C425 C159 2.062 . S
C449 C4 1.739 . S
C457 C193 1.908 . S
C481 C16 1.430 . S
C489 C239 1.649 1_655 S
C521 C113 0.402 . S
C513 C69 0.491 . S
C553 C153 0.730 . S
C545 C81 0.654 1_565 S
C585 C189 0.717 . S
C577 C93 0.734 . S
C609 C57 0.492 . S
C617 C233 0.637 . S
C641 C21 0.346 . S
C649 C122 0.462 . S
C681 C162 0.731 . S
C673 C33 0.709 . S
C713 C200 0.730 . S
C705 C45 0.693 . S
C737 C9 0.645 . S
C745 C242 0.565 . S
C769 C66 1.787 1_556 S
C777 C120 2.028 . S
C801 C78 1.916 . S
C809 C160 2.045 . S
C841 C178 1.638 . S
C833 C90 1.582 . S
C873 C240 2.434 . S
C865 C54 2.180 . S
C897 C18 1.780 . S
C905 C109 2.035 . S
C937 C149 2.051 . S
C929 C30 1.897 1_565 S
C969 C199 1.626 . S
C961 C42 1.614 . S
C993 C6 2.186 . S
C1001 C229 2.434 . S
