# Generated by pormake.
# Topology ptr, (4,4)-cn, num edge types: 1
# Building blocks:
#     Node 0, Type 0, BuildingBlock: GALJAG_clean_sbu_0, # of connection points: 4
#     Node 1, Type 0, BuildingBlock: GALJAG_clean_sbu_0, # of connection points: 4
#     Node 2, Type 0, BuildingBlock: GALJAG_clean_sbu_0, # of connection points: 4
#     Node 3, Type 0, BuildingBlock: GALJAG_clean_sbu_0, # of connection points: 4
#     Node 4, Type 0, BuildingBlock: GALJAG_clean_sbu_0, # of connection points: 4
#     Node 5, Type 0, BuildingBlock: GALJAG_clean_sbu_0, # of connection points: 4
#     Node 6, Type 0, BuildingBlock: GALJAG_clean_sbu_0, # of connection points: 4
#     Node 7, Type 0, BuildingBlock: GALJAG_clean_sbu_0, # of connection points: 4
#     Node 8, Type 0, BuildingBlock: GALJAG_clean_sbu_0, # of connection points: 4
#     Node 9, Type 0, BuildingBlock: GALJAG_clean_sbu_0, # of connection points: 4
#     Node 10, Type 0, BuildingBlock: GALJAG_clean_sbu_0, # of connection points: 4
#     Node 11, Type 0, BuildingBlock: GALJAG_clean_sbu_0, # of connection points: 4
#     Node 12, Type 0, BuildingBlock: GALJAG_clean_sbu_0, # of connection points: 4
#     Node 13, Type 0, BuildingBlock: GALJAG_clean_sbu_0, # of connection points: 4
#     Node 14, Type 0, BuildingBlock: GALJAG_clean_sbu_0, # of connection points: 4
#     Node 15, Type 0, BuildingBlock: GALJAG_clean_sbu_0, # of connection points: 4
#     Node 16, Type 0, BuildingBlock: GALJAG_clean_sbu_0, # of connection points: 4
#     Node 17, Type 0, BuildingBlock: GALJAG_clean_sbu_0, # of connection points: 4
#     Node 18, Type 1, BuildingBlock: GIZVER_clean_linker_0, # of connection points: 4
#     Node 19, Type 1, BuildingBlock: GIZVER_clean_linker_0, # of connection points: 4
#     Node 20, Type 1, BuildingBlock: GIZVER_clean_linker_0, # of connection points: 4
#     Node 21, Type 1, BuildingBlock: GIZVER_clean_linker_0, # of connection points: 4
#     Node 22, Type 1, BuildingBlock: GIZVER_clean_linker_0, # of connection points: 4
#     Node 23, Type 1, BuildingBlock: GIZVER_clean_linker_0, # of connection points: 4
#     Node 24, Type 1, BuildingBlock: GIZVER_clean_linker_0, # of connection points: 4
#     Node 25, Type 1, BuildingBlock: GIZVER_clean_linker_0, # of connection points: 4
#     Node 26, Type 1, BuildingBlock: GIZVER_clean_linker_0, # of connection points: 4
#     Node 27, Type 1, BuildingBlock: GIZVER_clean_linker_0, # of connection points: 4
#     Node 28, Type 1, BuildingBlock: GIZVER_clean_linker_0, # of connection points: 4
#     Node 29, Type 1, BuildingBlock: GIZVER_clean_linker_0, # of connection points: 4
#     Node 30, Type 1, BuildingBlock: GIZVER_clean_linker_0, # of connection points: 4
#     Node 31, Type 1, BuildingBlock: GIZVER_clean_linker_0, # of connection points: 4
#     Node 32, Type 1, BuildingBlock: GIZVER_clean_linker_0, # of connection points: 4
#     Node 33, Type 1, BuildingBlock: GIZVER_clean_linker_0, # of connection points: 4
#     Node 34, Type 1, BuildingBlock: GIZVER_clean_linker_0, # of connection points: 4
#     Node 35, Type 1, BuildingBlock: GIZVER_clean_linker_0, # of connection points: 4
#     Edge 36, Type (0, 1), BuildingBlock: ZUJKAS_clean_linker_0, # of connection points: 2
#     Edge 37, Type (0, 1), BuildingBlock: ZUJKAS_clean_linker_0, # of connection points: 2
#     Edge 38, Type (0, 1), BuildingBlock: ZUJKAS_clean_linker_0, # of connection points: 2
#     Edge 39, Type (0, 1), BuildingBlock: ZUJKAS_clean_linker_0, # of connection points: 2
#     Edge 40, Type (0, 1), BuildingBlock: ZUJKAS_clean_linker_0, # of connection points: 2
#     Edge 41, Type (0, 1), BuildingBlock: ZUJKAS_clean_linker_0, # of connection points: 2
#     Edge 42, Type (0, 1), BuildingBlock: ZUJKAS_clean_linker_0, # of connection points: 2
#     Edge 43, Type (0, 1), BuildingBlock: ZUJKAS_clean_linker_0, # of connection points: 2
#     Edge 44, Type (0, 1), BuildingBlock: ZUJKAS_clean_linker_0, # of connection points: 2
#     Edge 45, Type (0, 1), BuildingBlock: ZUJKAS_clean_linker_0, # of connection points: 2
#     Edge 46, Type (0, 1), BuildingBlock: ZUJKAS_clean_linker_0, # of connection points: 2
#     Edge 47, Type (0, 1), BuildingBlock: ZUJKAS_clean_linker_0, # of connection points: 2
#     Edge 48, Type (0, 1), BuildingBlock: ZUJKAS_clean_linker_0, # of connection points: 2
#     Edge 49, Type (0, 1), BuildingBlock: ZUJKAS_clean_linker_0, # of connection points: 2
#     Edge 50, Type (0, 1), BuildingBlock: ZUJKAS_clean_linker_0, # of connection points: 2
#     Edge 51, Type (0, 1), BuildingBlock: ZUJKAS_clean_linker_0, # of connection points: 2
#     Edge 52, Type (0, 1), BuildingBlock: ZUJKAS_clean_linker_0, # of connection points: 2
#     Edge 53, Type (0, 1), BuildingBlock: ZUJKAS_clean_linker_0, # of connection points: 2
#     Edge 54, Type (0, 1), BuildingBlock: ZUJKAS_clean_linker_0, # of connection points: 2
#     Edge 55, Type (0, 1), BuildingBlock: ZUJKAS_clean_linker_0, # of connection points: 2
#     Edge 56, Type (0, 1), BuildingBlock: ZUJKAS_clean_linker_0, # of connection points: 2
#     Edge 57, Type (0, 1), BuildingBlock: ZUJKAS_clean_linker_0, # of connection points: 2
#     Edge 58, Type (0, 1), BuildingBlock: ZUJKAS_clean_linker_0, # of connection points: 2
#     Edge 59, Type (0, 1), BuildingBlock: ZUJKAS_clean_linker_0, # of connection points: 2
#     Edge 60, Type (0, 1), BuildingBlock: ZUJKAS_clean_linker_0, # of connection points: 2
#     Edge 61, Type (0, 1), BuildingBlock: ZUJKAS_clean_linker_0, # of connection points: 2
#     Edge 62, Type (0, 1), BuildingBlock: ZUJKAS_clean_linker_0, # of connection points: 2
#     Edge 63, Type (0, 1), BuildingBlock: ZUJKAS_clean_linker_0, # of connection points: 2
#     Edge 64, Type (0, 1), BuildingBlock: ZUJKAS_clean_linker_0, # of connection points: 2
#     Edge 65, Type (0, 1), BuildingBlock: ZUJKAS_clean_linker_0, # of connection points: 2
#     Edge 66, Type (0, 1), BuildingBlock: ZUJKAS_clean_linker_0, # of connection points: 2
#     Edge 67, Type (0, 1), BuildingBlock: ZUJKAS_clean_linker_0, # of connection points: 2
#     Edge 68, Type (0, 1), BuildingBlock: ZUJKAS_clean_linker_0, # of connection points: 2
#     Edge 69, Type (0, 1), BuildingBlock: ZUJKAS_clean_linker_0, # of connection points: 2
#     Edge 70, Type (0, 1), BuildingBlock: ZUJKAS_clean_linker_0, # of connection points: 2
#     Edge 71, Type (0, 1), BuildingBlock: ZUJKAS_clean_linker_0, # of connection points: 2
#     Edge 72, Type (0, 1), BuildingBlock: ZUJKAS_clean_linker_0, # of connection points: 2
#     Edge 73, Type (0, 1), BuildingBlock: ZUJKAS_clean_linker_0, # of connection points: 2
#     Edge 74, Type (0, 1), BuildingBlock: ZUJKAS_clean_linker_0, # of connection points: 2
#     Edge 75, Type (0, 1), BuildingBlock: ZUJKAS_clean_linker_0, # of connection points: 2
#     Edge 76, Type (0, 1), BuildingBlock: ZUJKAS_clean_linker_0, # of connection points: 2
#     Edge 77, Type (0, 1), BuildingBlock: ZUJKAS_clean_linker_0, # of connection points: 2
#     Edge 78, Type (0, 1), BuildingBlock: ZUJKAS_clean_linker_0, # of connection points: 2
#     Edge 79, Type (0, 1), BuildingBlock: ZUJKAS_clean_linker_0, # of connection points: 2
#     Edge 80, Type (0, 1), BuildingBlock: ZUJKAS_clean_linker_0, # of connection points: 2
#     Edge 81, Type (0, 1), BuildingBlock: ZUJKAS_clean_linker_0, # of connection points: 2
#     Edge 82, Type (0, 1), BuildingBlock: ZUJKAS_clean_linker_0, # of connection points: 2
#     Edge 83, Type (0, 1), BuildingBlock: ZUJKAS_clean_linker_0, # of connection points: 2
#     Edge 84, Type (0, 1), BuildingBlock: ZUJKAS_clean_linker_0, # of connection points: 2
#     Edge 85, Type (0, 1), BuildingBlock: ZUJKAS_clean_linker_0, # of connection points: 2
#     Edge 86, Type (0, 1), BuildingBlock: ZUJKAS_clean_linker_0, # of connection points: 2
#     Edge 87, Type (0, 1), BuildingBlock: ZUJKAS_clean_linker_0, # of connection points: 2
#     Edge 88, Type (0, 1), BuildingBlock: ZUJKAS_clean_linker_0, # of connection points: 2
#     Edge 89, Type (0, 1), BuildingBlock: ZUJKAS_clean_linker_0, # of connection points: 2
#     Edge 90, Type (0, 1), BuildingBlock: ZUJKAS_clean_linker_0, # of connection points: 2
#     Edge 91, Type (0, 1), BuildingBlock: ZUJKAS_clean_linker_0, # of connection points: 2
#     Edge 92, Type (0, 1), BuildingBlock: ZUJKAS_clean_linker_0, # of connection points: 2
#     Edge 93, Type (0, 1), BuildingBlock: ZUJKAS_clean_linker_0, # of connection points: 2
#     Edge 94, Type (0, 1), BuildingBlock: ZUJKAS_clean_linker_0, # of connection points: 2
#     Edge 95, Type (0, 1), BuildingBlock: ZUJKAS_clean_linker_0, # of connection points: 2
#     Edge 96, Type (0, 1), BuildingBlock: ZUJKAS_clean_linker_0, # of connection points: 2
#     Edge 97, Type (0, 1), BuildingBlock: ZUJKAS_clean_linker_0, # of connection points: 2
#     Edge 98, Type (0, 1), BuildingBlock: ZUJKAS_clean_linker_0, # of connection points: 2
#     Edge 99, Type (0, 1), BuildingBlock: ZUJKAS_clean_linker_0, # of connection points: 2
#     Edge 100, Type (0, 1), BuildingBlock: ZUJKAS_clean_linker_0, # of connection points: 2
#     Edge 101, Type (0, 1), BuildingBlock: ZUJKAS_clean_linker_0, # of connection points: 2
#     Edge 102, Type (0, 1), BuildingBlock: ZUJKAS_clean_linker_0, # of connection points: 2
#     Edge 103, Type (0, 1), BuildingBlock: ZUJKAS_clean_linker_0, # of connection points: 2
#     Edge 104, Type (0, 1), BuildingBlock: ZUJKAS_clean_linker_0, # of connection points: 2
#     Edge 105, Type (0, 1), BuildingBlock: ZUJKAS_clean_linker_0, # of connection points: 2
#     Edge 106, Type (0, 1), BuildingBlock: ZUJKAS_clean_linker_0, # of connection points: 2
#     Edge 107, Type (0, 1), BuildingBlock: ZUJKAS_clean_linker_0, # of connection points: 2
# Relax obj value: 0.069
# Max RMSD: 0.094
# Mean RMSD: 0.093
data_MOF--net-ptr--node1-GALJAG_clean_sbu_0--node2-GIZVER_clean_linker_0--edge1-ZUJKAS_clean_linker_0
_symmetry_space_group_name_H-M    P1
_symmetry_Int_Tables_number       1
_symmetry_cell_setting            triclinic
loop_
_symmetry_equiv_pos_as_xyz
'x, y, z'
_cell_length_a     101.9223
_cell_length_b     101.94904
_cell_length_c     65.951796
_cell_angle_alpha  90.189294
_cell_angle_beta   90.279727
_cell_angle_gamma 120.11422
loop_
_atom_site_label
_atom_site_type_symbol
_atom_site_fract_x
_atom_site_fract_y
_atom_site_fract_z
_atom_type_partial_charge
In0 In 0.01023 0.37514 0.01341 0.0
O1 O 0.99834 0.38092 0.03829 0.0
O2 O 0.02238 0.39378 0.03724 0.0
C3 C 0.98633 0.34756 0.00348 0.0
C4 C 0.03276 0.36924 0.02227 0.0
C5 C 0.01185 0.39348 0.98266 0.0
O6 O 0.98755 0.3538 0.02048 0.0
O7 O 0.99712 0.35521 0.99153 0.0
O8 O 0.01975 0.38712 0.98313 0.0
O9 O 1.00303 0.3904 0.99745 0.0
C10 C 0.01041 0.39163 0.04578 0.0
O11 O 0.03449 0.37958 0.01023 0.0
O12 O 0.01969 0.36191 0.02986 0.0
In13 In 0.64415 0.64369 0.01477 0.0
O14 O 0.64208 0.63221 0.04533 0.0
O15 O 0.62209 0.63016 0.03221 0.0
C16 C 0.67218 0.64926 0.00432 0.0
C17 C 0.64776 0.67112 0.02464 0.0
C18 C 0.62738 0.62639 0.98309 0.0
O19 O 0.66393 0.63911 0.01675 0.0
O20 O 0.66633 0.65663 0.99718 0.0
O21 O 0.62937 0.63945 0.98652 0.0
O22 O 0.63411 0.62224 0.99535 0.0
C23 C 0.62794 0.62679 0.04668 0.0
O24 O 0.63998 0.66349 0.00955 0.0
O25 O 0.6537 0.66492 0.03474 0.0
In26 In 0.37387 0.00917 0.01341 0.0
O27 O 0.37363 0.03085 0.02223 0.0
O28 O 0.36639 0.02211 0.99253 0.0
C29 C 0.39113 0.00837 0.0441 0.0
C30 C 0.39211 0.01008 0.98315 0.0
C31 C 0.34568 0.9858 0.02141 0.0
O32 O 0.38962 0.01974 0.04085 0.0
O33 O 0.38371 0.99735 0.03214 0.0
O34 O 0.35223 0.98703 0.00476 0.0
O35 O 0.35326 0.99639 0.03387 0.0
C36 C 0.36878 0.03234 0.00526 0.0
O37 O 0.37881 0.99907 0.98541 0.0
O38 O 0.39604 0.02069 0.99587 0.0
In39 In 0.00755 0.64245 0.01364 0.0
O40 O 0.01845 0.63697 0.98718 0.0
O41 O 0.99531 0.6214 0.99355 0.0
C42 C 0.03032 0.67095 0.02209 0.0
C43 C 0.98416 0.64707 0.0052 0.0
C44 C 0.00895 0.62525 0.04378 0.0
O45 O 0.02911 0.66452 0.00524 0.0
O46 O 0.02001 0.66307 0.03455 0.0
O47 O 0.99781 0.62733 0.04162 0.0
O48 O 0.01939 0.63207 0.03106 0.0
C49 C 0.00668 0.62458 0.98271 0.0
O50 O 0.98502 0.6411 0.02152 0.0
O51 O 0.99513 0.65082 0.99332 0.0
In52 In 0.37365 0.37621 0.01635 0.0
O53 O 0.37681 0.38971 0.98724 0.0
O54 O 0.39557 0.38817 0.99835 0.0
C55 C 0.34537 0.37058 0.02537 0.0
C56 C 0.36889 0.34815 0.0074 0.0
C57 C 0.3911 0.39409 0.04731 0.0
O58 O 0.35313 0.37935 0.01127 0.0
O59 O 0.35182 0.36459 0.0348 0.0
O60 O 0.39148 0.38249 0.04145 0.0
O61 O 0.3817 0.39645 0.03789 0.0
C62 C 0.39052 0.39335 0.98501 0.0
O63 O 0.37357 0.35433 0.02455 0.0
O64 O 0.36649 0.35605 0.99486 0.0
In65 In 0.64423 0.00626 0.01141 0.0
O66 O 0.63974 0.0159 0.0403 0.0
O67 O 0.62313 0.9937 0.03086 0.0
C68 C 0.67172 0.03017 0.00198 0.0
C69 C 0.64981 0.98346 0.01966 0.0
C70 C 0.62647 0.00663 0.98102 0.0
O71 O 0.66464 0.02987 0.01777 0.0
O72 O 0.66498 0.01842 0.99103 0.0
O73 O 0.63151 0.99757 0.98116 0.0
O74 O 0.63069 0.01568 0.99588 0.0
C75 C 0.62695 0.00434 0.04351 0.0
O76 O 0.64053 0.98241 0.00613 0.0
O77 O 0.65634 0.99603 0.02893 0.0
In78 In 0.67617 0.71009 0.34856 0.0
O79 O 0.6643 0.71462 0.37477 0.0
O80 O 0.68696 0.73149 0.36813 0.0
C81 C 0.65316 0.68175 0.33953 0.0
C82 C 0.69929 0.705 0.3575 0.0
C83 C 0.67667 0.72816 0.31827 0.0
O84 O 0.65482 0.68771 0.35684 0.0
O85 O 0.66311 0.69002 0.32689 0.0
O86 O 0.68802 0.72684 0.32276 0.0
O87 O 0.66504 0.72013 0.32874 0.0
C88 C 0.67542 0.72755 0.37897 0.0
O89 O 0.69754 0.70914 0.34018 0.0
O90 O 0.68937 0.70336 0.3702 0.0
In91 In 0.31078 0.97552 0.34865 0.0
O92 O 0.30691 0.96195 0.37774 0.0
O93 O 0.28972 0.96663 0.36835 0.0
C94 C 0.33837 0.97929 0.33955 0.0
C95 C 0.3159 0.00393 0.35586 0.0
C96 C 0.29329 0.95639 0.31877 0.0
O97 O 0.33185 0.97383 0.35616 0.0
O98 O 0.33103 0.98292 0.32759 0.0
O99 O 0.29832 0.9705 0.31804 0.0
O100 O 0.29731 0.95207 0.33428 0.0
C101 C 0.29398 0.96029 0.38107 0.0
O102 O 0.30632 0.99514 0.34294 0.0
O103 O 0.32291 0.99844 0.36501 0.0
In104 In 0.04015 0.34322 0.34898 0.0
O105 O 0.03812 0.36392 0.35807 0.0
O106 O 0.03546 0.3577 0.327 0.0
C107 C 0.05772 0.34259 0.37936 0.0
C108 C 0.05756 0.34258 0.31871 0.0
C109 C 0.01192 0.32007 0.35743 0.0
O110 O 0.05722 0.3544 0.37508 0.0
O111 O 0.04915 0.33114 0.36865 0.0
O112 O 0.01864 0.32066 0.34115 0.0
O113 O 0.01932 0.3312 0.3692 0.0
C114 C 0.0357 0.36673 0.34028 0.0
O115 O 0.04366 0.33276 0.32026 0.0
O116 O 0.06252 0.35286 0.33211 0.0
In117 In 0.67557 0.97497 0.34597 0.0
O118 O 0.69009 0.9701 0.32443 0.0
O119 O 0.66678 0.96068 0.31697 0.0
C120 C 0.69957 0.0021 0.35713 0.0
C121 C 0.65168 0.97924 0.33926 0.0
C122 C 0.67234 0.95488 0.37501 0.0
O123 O 0.6956 0.99858 0.33886 0.0
O124 O 0.69145 0.99201 0.36969 0.0
O125 O 0.66742 0.96397 0.37726 0.0
O126 O 0.67869 0.95594 0.35829 0.0
C127 C 0.67935 0.96187 0.31248 0.0
O128 O 0.65022 0.96741 0.34743 0.0
O129 O 0.66512 0.98888 0.33466 0.0
In130 In 0.04206 0.71 0.34786 0.0
O131 O 0.04701 0.72211 0.31716 0.0
O132 O 0.06538 0.72284 0.33349 0.0
C133 C 0.01368 0.70479 0.35531 0.0
C134 C 0.0384 0.68238 0.33891 0.0
C135 C 0.05728 0.7276 0.38012 0.0
O136 O 0.02215 0.71412 0.34214 0.0
O137 O 0.01945 0.69805 0.36448 0.0
O138 O 0.05489 0.71425 0.37796 0.0
O139 O 0.0517 0.73187 0.3663 0.0
C140 C 0.06108 0.72684 0.31794 0.0
O141 O 0.04486 0.68955 0.35496 0.0
O142 O 0.03374 0.6891 0.32745 0.0
In143 In 0.31117 0.34334 0.34761 0.0
O144 O 0.30724 0.3195 0.34131 0.0
O145 O 0.32174 0.33193 0.3659 0.0
C146 C 0.2947 0.34542 0.31677 0.0
C147 C 0.29346 0.3414 0.37917 0.0
C148 C 0.3394 0.36643 0.33925 0.0
O149 O 0.29826 0.33522 0.31742 0.0
O150 O 0.29969 0.35468 0.3314 0.0
O151 O 0.33215 0.36642 0.35472 0.0
O152 O 0.33243 0.35483 0.32809 0.0
C153 C 0.31556 0.31976 0.35572 0.0
O154 O 0.30669 0.35254 0.37693 0.0
O155 O 0.28935 0.33124 0.36574 0.0
In156 In 0.34293 0.04409 0.67935 0.0
O157 O 0.36592 0.04601 0.67282 0.0
O158 O 0.35464 0.03499 0.69985 0.0
C159 C 0.34136 0.05934 0.64684 0.0
C160 C 0.34534 0.06337 0.70935 0.0
C161 C 0.31922 0.01585 0.67207 0.0
O162 O 0.35222 0.05691 0.64965 0.0
O163 O 0.33116 0.05376 0.66013 0.0
O164 O 0.3188 0.02458 0.68532 0.0
O165 O 0.33153 0.02136 0.6625 0.0
C166 C 0.36609 0.03924 0.68871 0.0
O167 O 0.33556 0.04942 0.70962 0.0
O168 O 0.354 0.06746 0.69424 0.0
In169 In 0.97811 0.3117 0.685 0.0
O170 O 0.97568 0.33242 0.67828 0.0
O171 O 0.98834 0.33331 0.70438 0.0
C172 C 0.96122 0.29388 0.65377 0.0
C173 C 0.96033 0.29476 0.71587 0.0
C174 C 0.00613 0.3165 0.67623 0.0
O175 O 0.96352 0.30712 0.65652 0.0
O176 O 0.96766 0.28975 0.66653 0.0
O177 O 0.99939 0.31041 0.69249 0.0
O178 O 0.9988 0.32027 0.66447 0.0
C179 C 0.98329 0.33997 0.6935 0.0
O180 O 0.97352 0.29694 0.7131 0.0
O181 O 0.95626 0.30138 0.70337 0.0
In182 In 0.7046 0.67322 0.67707 0.0
O183 O 0.70546 0.69533 0.68609 0.0
O184 O 0.69539 0.68543 0.6577 0.0
C185 C 0.72322 0.67391 0.70697 0.0
C186 C 0.72145 0.67294 0.64562 0.0
C187 C 0.67646 0.65017 0.68602 0.0
O188 O 0.7214 0.68503 0.70324 0.0
O189 O 0.71548 0.66243 0.69588 0.0
O190 O 0.68212 0.65191 0.66859 0.0
O191 O 0.68488 0.66013 0.69879 0.0
C192 C 0.6991 0.69621 0.6701 0.0
O193 O 0.71008 0.66109 0.65213 0.0
O194 O 0.72409 0.68496 0.65463 0.0
In195 In 0.34078 0.3071 0.68007 0.0
O196 O 0.3527 0.3025 0.65398 0.0
O197 O 0.3287 0.28918 0.65542 0.0
C198 C 0.36453 0.33473 0.69001 0.0
C199 C 0.31699 0.31175 0.67513 0.0
C200 C 0.34093 0.28847 0.70905 0.0
O201 O 0.36092 0.3304 0.67187 0.0
O202 O 0.3562 0.32518 0.70303 0.0
O203 O 0.33323 0.29502 0.71066 0.0
O204 O 0.34853 0.29142 0.69299 0.0
C205 C 0.34064 0.29185 0.64635 0.0
O206 O 0.31619 0.30109 0.68572 0.0
O207 O 0.32977 0.32009 0.66723 0.0
In208 In 0.70478 0.04242 0.68004 0.0
O209 O 0.7095 0.05816 0.65292 0.0
O210 O 0.7251 0.05064 0.659 0.0
C211 C 0.67703 0.03814 0.68933 0.0
C212 C 0.69929 0.01393 0.6722 0.0
C213 C 0.72225 0.06016 0.711 0.0
O214 O 0.68291 0.04251 0.67209 0.0
O215 O 0.68513 0.03592 0.70183 0.0
O216 O 0.71754 0.04612 0.71009 0.0
O217 O 0.71791 0.06516 0.69653 0.0
C218 C 0.72167 0.05861 0.64806 0.0
O219 O 0.7096 0.02289 0.68422 0.0
O220 O 0.69175 0.0193 0.66419 0.0
In221 In 0.97745 0.67576 0.67995 0.0
O222 O 0.97386 0.65183 0.67574 0.0
O223 O 0.98894 0.66565 0.69905 0.0
C224 C 0.96038 0.67614 0.64858 0.0
C225 C 0.96032 0.67503 0.71159 0.0
C226 C 0.00528 0.69901 0.67034 0.0
O227 O 0.9641 0.6661 0.65027 0.0
O228 O 0.9655 0.68606 0.66242 0.0
O229 O 0.99779 0.69955 0.68516 0.0
O230 O 0.99876 0.68675 0.66037 0.0
C231 C 0.98272 0.65302 0.68997 0.0
O232 O 0.97352 0.68599 0.70862 0.0
O233 O 0.95591 0.66436 0.69886 0.0
H234 H 0.15625 0.3264 0.15998 0.0
H235 H 0.15317 0.3339 0.09614 0.0
H236 H 0.12501 0.33995 0.13902 0.0
H237 H 0.16344 0.31364 0.13231 0.0
H238 H 0.16525 0.31996 0.10683 0.0
H239 H 0.18135 0.33292 0.15966 0.0
H240 H 0.22693 0.35835 0.13777 0.0
H241 H 0.18984 0.3377 0.09539 0.0
C242 C 0.15183 0.3301 0.1477 0.0
C243 C 0.14045 0.33361 0.15179 0.0
C244 C 0.15665 0.33029 0.12763 0.0
C245 C 0.14998 0.33424 0.1117 0.0
C246 C 0.13835 0.33747 0.11574 0.0
C247 C 0.1339 0.33737 0.13581 0.0
C248 C 0.16688 0.32388 0.12289 0.0
C249 C 0.18352 0.33491 0.12706 0.0
C250 C 0.1891 0.3379 0.14714 0.0
C251 C 0.20475 0.34658 0.15113 0.0
C252 C 0.21481 0.35239 0.13482 0.0
C253 C 0.20958 0.34917 0.11472 0.0
C254 C 0.1939 0.34056 0.11089 0.0
H255 H 0.69294 0.83797 0.15447 0.0
H256 H 0.68234 0.82869 0.09076 0.0
H257 H 0.66767 0.79198 0.13274 0.0
H258 H 0.70752 0.85728 0.12777 0.0
H259 H 0.70137 0.85384 0.10197 0.0
H260 H 0.69397 0.86387 0.15331 0.0
H261 H 0.66838 0.88356 0.12975 0.0
H262 H 0.68234 0.85964 0.08976 0.0
C263 C 0.68723 0.82996 0.1422 0.0
C264 C 0.68014 0.81432 0.146 0.0
C265 C 0.68792 0.83527 0.12229 0.0
C266 C 0.68132 0.82475 0.10623 0.0
C267 C 0.67387 0.80912 0.11004 0.0
C268 C 0.6731 0.80406 0.12993 0.0
C269 C 0.69724 0.85203 0.11787 0.0
C270 C 0.68838 0.86007 0.12139 0.0
C271 C 0.68805 0.86562 0.14087 0.0
C272 C 0.68113 0.87441 0.14392 0.0
C273 C 0.67376 0.8768 0.12755 0.0
C274 C 0.67428 0.8717 0.10801 0.0
C275 C 0.68156 0.86327 0.10495 0.0
H276 H 0.1766 0.81663 0.1594 0.0
H277 H 0.17243 0.81274 0.09432 0.0
H278 H 0.13262 0.79155 0.13141 0.0
H279 H 0.19784 0.81968 0.1372 0.0
H280 H 0.19649 0.82052 0.1104 0.0
H281 H 0.20123 0.84135 0.15913 0.0
H282 H 0.22698 0.8848 0.1308 0.0
H283 H 0.20497 0.84443 0.09407 0.0
C284 C 0.16955 0.81308 0.14586 0.0
C285 C 0.15375 0.80394 0.14766 0.0
C286 C 0.1764 0.8165 0.12662 0.0
C287 C 0.1672 0.81079 0.10912 0.0
C288 C 0.15136 0.80181 0.11074 0.0
C289 C 0.14479 0.79885 0.13002 0.0
C290 C 0.19344 0.82392 0.12489 0.0
C291 C 0.20141 0.84102 0.12638 0.0
C292 C 0.20491 0.84818 0.14554 0.0
C293 C 0.2143 0.86398 0.14721 0.0
C294 C 0.21951 0.87263 0.12951 0.0
C295 C 0.21635 0.86575 0.11029 0.0
C296 C 0.20712 0.8499 0.1088 0.0
H297 H 0.36689 0.20103 0.87069 0.0
H298 H 0.3688 0.20654 0.93561 0.0
H299 H 0.34892 0.22671 0.89865 0.0
H300 H 0.38631 0.19919 0.89284 0.0
H301 H 0.38401 0.19778 0.91959 0.0
H302 H 0.36872 0.17781 0.8701 0.0
H303 H 0.35065 0.13389 0.89714 0.0
H304 H 0.36813 0.17355 0.9351 0.0
C305 C 0.36383 0.20489 0.88424 0.0
C306 C 0.3571 0.21395 0.88243 0.0
C307 C 0.36791 0.20196 0.90343 0.0
C308 C 0.36504 0.20812 0.92089 0.0
C309 C 0.35814 0.21705 0.91928 0.0
C310 C 0.35386 0.21949 0.90006 0.0
C311 C 0.37761 0.19463 0.90498 0.0
C312 C 0.36856 0.17754 0.90286 0.0
C313 C 0.36532 0.17074 0.88347 0.0
C314 C 0.35901 0.15498 0.88133 0.0
C315 C 0.35527 0.14601 0.89878 0.0
C316 C 0.35862 0.15255 0.91822 0.0
C317 C 0.36511 0.16835 0.92018 0.0
H318 H 0.85848 0.18228 0.87192 0.0
H319 H 0.86102 0.18993 0.93654 0.0
H320 H 0.88162 0.22767 0.89595 0.0
H321 H 0.855 0.16212 0.89757 0.0
H322 H 0.85225 0.16471 0.92364 0.0
H323 H 0.83537 0.15934 0.87129 0.0
H324 H 0.78974 0.13714 0.8935 0.0
H325 H 0.82707 0.15649 0.93564 0.0
C326 C 0.86171 0.18996 0.88474 0.0
C327 C 0.87003 0.20569 0.88146 0.0
C328 C 0.85802 0.18413 0.90455 0.0
C329 C 0.86315 0.19425 0.92119 0.0
C330 C 0.8715 0.20997 0.91802 0.0
C331 C 0.87461 0.21554 0.89821 0.0
C332 C 0.85012 0.16718 0.90793 0.0
C333 C 0.83321 0.15952 0.90389 0.0
C334 C 0.82758 0.15619 0.88385 0.0
C335 C 0.81189 0.14833 0.87996 0.0
C336 C 0.80185 0.14385 0.89632 0.0
C337 C 0.8072 0.14661 0.91637 0.0
C338 C 0.82291 0.15456 0.92013 0.0
H339 H 0.84283 0.65448 0.86404 0.0
H340 H 0.84458 0.64858 0.92844 0.0
H341 H 0.88566 0.66996 0.89381 0.0
H342 H 0.82055 0.6338 0.88419 0.0
H343 H 0.82074 0.6353 0.9111 0.0
H344 H 0.81957 0.65369 0.86242 0.0
H345 H 0.79448 0.67271 0.88893 0.0
H346 H 0.8121 0.65083 0.92691 0.0
C347 C 0.84933 0.65644 0.87788 0.0
C348 C 0.8652 0.66349 0.87689 0.0
C349 C 0.84178 0.65129 0.89649 0.0
C350 C 0.85033 0.65307 0.91419 0.0
C351 C 0.86622 0.65993 0.91337 0.0
C352 C 0.8735 0.66536 0.89474 0.0
C353 C 0.82464 0.6421 0.89697 0.0
C354 C 0.81735 0.65182 0.89503 0.0
C355 C 0.8154 0.65658 0.87579 0.0
C356 C 0.80746 0.66445 0.8736 0.0
C357 C 0.80142 0.6675 0.89083 0.0
C358 C 0.80285 0.66252 0.91009 0.0
C359 C 0.81109 0.65491 0.91215 0.0
H360 H 0.82579 0.66566 0.48872 0.0
H361 H 0.82501 0.67548 0.42535 0.0
H362 H 0.80217 0.68827 0.46902 0.0
H363 H 0.83038 0.65125 0.46074 0.0
H364 H 0.83336 0.65817 0.43542 0.0
H365 H 0.84957 0.66742 0.48851 0.0
H366 H 0.89547 0.69087 0.46733 0.0
H367 H 0.85869 0.67511 0.42455 0.0
C368 C 0.82279 0.6709 0.4767 0.0
C369 C 0.81412 0.6777 0.48128 0.0
C370 C 0.82713 0.67039 0.4566 0.0
C371 C 0.82225 0.67638 0.44095 0.0
C372 C 0.81328 0.68295 0.44532 0.0
C373 C 0.8096 0.68382 0.46557 0.0
C374 C 0.83529 0.66181 0.45161 0.0
C375 C 0.85215 0.67094 0.45611 0.0
C376 C 0.85753 0.67244 0.4762 0.0
C377 C 0.87317 0.67985 0.48041 0.0
C378 C 0.88341 0.68583 0.46431 0.0
C379 C 0.87833 0.68409 0.44418 0.0
C380 C 0.86267 0.67674 0.44012 0.0
H381 H 0.3514 0.16891 0.48608 0.0
H382 H 0.34514 0.16 0.42175 0.0
H383 H 0.3284 0.1231 0.46378 0.0
H384 H 0.36787 0.18848 0.45948 0.0
H385 H 0.3618 0.18543 0.43362 0.0
H386 H 0.35201 0.19208 0.48614 0.0
H387 H 0.3278 0.2136 0.46428 0.0
H388 H 0.34457 0.1935 0.42193 0.0
C389 C 0.34666 0.16099 0.47353 0.0
C390 C 0.33913 0.14535 0.47737 0.0
C391 C 0.34852 0.16643 0.45351 0.0
C392 C 0.34316 0.15597 0.43724 0.0
C393 C 0.33572 0.14031 0.44095 0.0
C394 C 0.33352 0.13516 0.46099 0.0
C395 C 0.35763 0.1833 0.4495 0.0
C396 C 0.34863 0.19114 0.45363 0.0
C397 C 0.34696 0.1949 0.47366 0.0
C398 C 0.3392 0.20276 0.4776 0.0
C399 C 0.33315 0.20688 0.46136 0.0
C400 C 0.33518 0.20377 0.44129 0.0
C401 C 0.3428 0.19575 0.43745 0.0
H402 H 0.84191 0.1535 0.49781 0.0
H403 H 0.83994 0.14372 0.43389 0.0
H404 H 0.79886 0.12741 0.46776 0.0
H405 H 0.86376 0.15359 0.47837 0.0
H406 H 0.86369 0.15412 0.45138 0.0
H407 H 0.86562 0.17554 0.49875 0.0
H408 H 0.89235 0.21877 0.47045 0.0
H409 H 0.87353 0.17805 0.43439 0.0
C410 C 0.8354 0.14891 0.48397 0.0
C411 C 0.81948 0.14083 0.48484 0.0
C412 C 0.84293 0.15044 0.46551 0.0
C413 C 0.8343 0.14338 0.44793 0.0
C414 C 0.81838 0.1352 0.44869 0.0
C415 C 0.81111 0.13435 0.46702 0.0
C416 C 0.86003 0.15771 0.46517 0.0
C417 C 0.86802 0.17485 0.46629 0.0
C418 C 0.87014 0.18219 0.48514 0.0
C419 C 0.87866 0.19806 0.48667 0.0
C420 C 0.88503 0.20658 0.46912 0.0
C421 C 0.88338 0.19953 0.45023 0.0
C422 C 0.87466 0.18362 0.44885 0.0
H423 H 0.03159 0.52956 0.1997 0.0
H424 H 0.04156 0.5446 0.26196 0.0
H425 H 0.01974 0.56159 0.22296 0.0
H426 H 0.05374 0.53057 0.2208 0.0
H427 H 0.05295 0.53133 0.24765 0.0
H428 H 0.03433 0.50789 0.20132 0.0
H429 H 0.01599 0.46615 0.23429 0.0
H430 H 0.03768 0.50855 0.26655 0.0
C431 C 0.03067 0.5358 0.21239 0.0
C432 C 0.02426 0.54505 0.20931 0.0
C433 C 0.03664 0.53526 0.2315 0.0
C434 C 0.03626 0.54426 0.24753 0.0
C435 C 0.03031 0.55389 0.24438 0.0
C436 C 0.02398 0.55386 0.22547 0.0
C437 C 0.04575 0.52732 0.23373 0.0
C438 C 0.03606 0.5102 0.23399 0.0
C439 C 0.03141 0.50193 0.21562 0.0
C440 C 0.02431 0.48603 0.21562 0.0
C441 C 0.02123 0.47841 0.23418 0.0
C442 C 0.02608 0.48642 0.25251 0.0
C443 C 0.0334 0.50232 0.25243 0.0
H444 H 0.53099 0.51409 0.2078 0.0
H445 H 0.52798 0.52491 0.27032 0.0
H446 H 0.55533 0.56023 0.22827 0.0
H447 H 0.52362 0.49485 0.2355 0.0
H448 H 0.5204 0.49916 0.26054 0.0
H449 H 0.50543 0.49588 0.2066 0.0
H450 H 0.45922 0.46875 0.22533 0.0
H451 H 0.49479 0.48694 0.27012 0.0
C452 C 0.53343 0.52236 0.21971 0.0
C453 C 0.54332 0.53774 0.21575 0.0
C454 C 0.52762 0.51758 0.23935 0.0
C455 C 0.53191 0.5285 0.25501 0.0
C456 C 0.54181 0.54398 0.25107 0.0
C457 C 0.54727 0.54841 0.23136 0.0
C458 C 0.51884 0.50083 0.24423 0.0
C459 C 0.50208 0.49333 0.2391 0.0
C460 C 0.49722 0.4913 0.21868 0.0
C461 C 0.48173 0.48273 0.21371 0.0
C462 C 0.47113 0.47592 0.22921 0.0
C463 C 0.47573 0.47716 0.2495 0.0
C464 C 0.49118 0.48625 0.25448 0.0
H465 H 0.50809 0.9814 0.19636 0.0
H466 H 0.51149 0.97871 0.26118 0.0
H467 H 0.55174 0.99995 0.22496 0.0
H468 H 0.48662 0.96178 0.21742 0.0
H469 H 0.48756 0.96322 0.24435 0.0
H470 H 0.48704 0.98417 0.19719 0.0
H471 H 0.45624 0.99628 0.22387 0.0
H472 H 0.47439 0.9741 0.26 0.0
C473 C 0.51492 0.98435 0.21004 0.0
C474 C 0.53079 0.9919 0.20849 0.0
C475 C 0.50782 0.9799 0.22905 0.0
C476 C 0.51684 0.98278 0.2466 0.0
C477 C 0.53274 0.99016 0.24521 0.0
C478 C 0.53955 0.99496 0.22619 0.0
C479 C 0.49073 0.97005 0.23023 0.0
C480 C 0.48253 0.97898 0.22909 0.0
C481 C 0.48134 0.98508 0.21046 0.0
C482 C 0.47215 0.99167 0.20861 0.0
C483 C 0.46397 0.99193 0.22545 0.0
C484 C 0.46461 0.98552 0.24389 0.0
C485 C 0.47421 0.97942 0.24587 0.0
H486 H 0.49387 1.00078 0.82393 0.0
H487 H 0.48497 0.00211 0.76016 0.0
H488 H 0.46631 0.01921 0.8041 0.0
H489 H 0.49314 0.98154 0.79592 0.0
H490 H 0.49662 0.98817 0.77055 0.0
H491 H 0.51287 0.99412 0.82288 0.0
H492 H 0.55859 0.01646 0.80132 0.0
H493 H 0.52204 0.00694 0.76002 0.0
C494 C 0.48918 0.00425 0.81171 0.0
C495 C 0.48047 0.01101 0.81636 0.0
C496 C 0.49124 1.00134 0.7914 0.0
C497 C 0.48418 0.00504 0.77574 0.0
C498 C 0.47501 0.01129 0.78035 0.0
C499 C 0.47361 0.01462 0.80056 0.0
C500 C 0.49867 0.99203 0.78665 0.0
C501 C 0.51554 1.00027 0.79114 0.0
C502 C 0.52085 0.99982 0.81076 0.0
C503 C 0.53638 0.00565 0.81441 0.0
C504 C 0.54664 0.01233 0.79851 0.0
C505 C 0.54166 0.01291 0.77886 0.0
C506 C 0.52605 0.00693 0.77526 0.0
H507 H 0.02881 0.50691 0.82265 0.0
H508 H 0.01731 0.49846 0.75899 0.0
H509 H 0.00746 0.4615 0.79891 0.0
H510 H 0.04112 0.52749 0.79682 0.0
H511 H 0.03489 0.52405 0.77102 0.0
H512 H 0.02255 0.52677 0.82401 0.0
H513 H 0.99708 0.54734 0.80355 0.0
H514 H 0.01752 0.53177 0.76001 0.0
C515 C 0.02355 0.49908 0.81008 0.0
C516 C 0.01795 0.48355 0.81308 0.0
C517 C 0.02323 0.5046 0.7906 0.0
C518 C 0.01715 0.49433 0.77416 0.0
C519 C 0.01132 0.47877 0.77724 0.0
C520 C 0.01163 0.4735 0.79668 0.0
C521 C 0.03087 0.52149 0.78695 0.0
C522 C 0.02052 0.52775 0.79147 0.0
C523 C 0.01764 0.52993 0.81169 0.0
C524 C 0.00898 0.53677 0.81611 0.0
C525 C 1.0031 0.54135 0.80014 0.0
C526 C 0.00624 0.53976 0.7799 0.0
C527 C 0.01484 0.53279 0.77561 0.0
H528 H 0.50626 0.48472 0.8296 0.0
H529 H 0.5044 0.47577 0.76547 0.0
H530 H 0.46325 0.45958 0.79912 0.0
H531 H 0.52787 0.48458 0.81039 0.0
H532 H 0.52787 0.48491 0.78341 0.0
H533 H 0.52921 0.50704 0.83011 0.0
H534 H 0.55965 0.54965 0.80248 0.0
H535 H 0.54027 0.50885 0.76673 0.0
C536 C 0.49978 0.48041 0.81569 0.0
C537 C 0.48385 0.47253 0.81647 0.0
C538 C 0.50735 0.48204 0.79725 0.0
C539 C 0.49875 0.47535 0.77954 0.0
C540 C 0.48283 0.46739 0.78016 0.0
C541 C 0.47552 0.46638 0.79852 0.0
C542 C 0.5244 0.48883 0.79706 0.0
C543 C 0.53296 0.50599 0.79801 0.0
C544 C 0.53466 0.51351 0.81666 0.0
C545 C 0.54399 0.52931 0.81826 0.0
C546 C 0.5518 0.53755 0.80113 0.0
C547 C 0.55063 0.53027 0.78263 0.0
C548 C 0.54089 0.51453 0.78092 0.0
H549 H 0.69683 0.86695 0.5364 0.0
H550 H 0.69633 0.87069 0.60149 0.0
H551 H 0.67795 0.89192 0.56365 0.0
H552 H 0.71489 0.86369 0.55931 0.0
H553 H 0.71207 0.86224 0.586 0.0
H554 H 0.6925 0.84265 0.53662 0.0
H555 H 0.67967 0.79871 0.56012 0.0
H556 H 0.70123 0.83761 0.59939 0.0
C557 C 0.69323 0.87032 0.54988 0.0
C558 C 0.68649 0.87934 0.54785 0.0
C559 C 0.69652 0.8668 0.56921 0.0
C560 C 0.69312 0.87263 0.58659 0.0
C561 C 0.68635 0.88167 0.58469 0.0
C562 C 0.68277 0.8846 0.56529 0.0
C563 C 0.70598 0.85919 0.57116 0.0
C564 C 0.69689 0.8421 0.5687 0.0
C565 C 0.69123 0.83554 0.54945 0.0
C566 C 0.68467 0.81984 0.5464 0.0
C567 C 0.68399 0.81072 0.56265 0.0
C568 C 0.69008 0.81705 0.58165 0.0
C569 C 0.69613 0.83267 0.58483 0.0
H570 H 0.19223 0.85049 0.53992 0.0
H571 H 0.19692 0.85778 0.60468 0.0
H572 H 0.22014 0.89531 0.56426 0.0
H573 H 0.18832 0.82976 0.56542 0.0
H574 H 0.1859 0.83246 0.59153 0.0
H575 H 0.1691 0.8284 0.53934 0.0
H576 H 0.12358 0.80669 0.56181 0.0
H577 H 0.16103 0.82493 0.60374 0.0
C578 C 0.19642 0.85808 0.55286 0.0
C579 C 0.20599 0.87369 0.5497 0.0
C580 C 0.19273 0.85221 0.57267 0.0
C581 C 0.19905 0.86219 0.58938 0.0
C582 C 0.20901 0.87772 0.58627 0.0
C583 C 0.21214 0.88336 0.56651 0.0
C584 C 0.18394 0.83523 0.5759 0.0
C585 C 0.16709 0.82833 0.57198 0.0
C586 C 0.16138 0.82535 0.55196 0.0
C587 C 0.14568 0.81778 0.54816 0.0
C588 C 0.13571 0.81327 0.56459 0.0
C589 C 0.14111 0.81567 0.58461 0.0
C590 C 0.15683 0.82335 0.58828 0.0
H591 H 0.17643 0.31891 0.53419 0.0
H592 H 0.1791 0.31593 0.59903 0.0
H593 H 0.21962 0.33537 0.5632 0.0
H594 H 0.15451 0.29936 0.55531 0.0
H595 H 0.15521 0.3013 0.58217 0.0
H596 H 0.15545 0.32128 0.53373 0.0
H597 H 0.12529 0.335 0.55824 0.0
H598 H 0.14261 0.31319 0.59664 0.0
C599 C 0.18312 0.32153 0.54796 0.0
C600 C 0.19896 0.32848 0.54661 0.0
C601 C 0.17584 0.31727 0.56686 0.0
C602 C 0.18466 0.31977 0.58452 0.0
C603 C 0.20051 0.32636 0.58336 0.0
C604 C 0.20752 0.33096 0.56439 0.0
C605 C 0.1587 0.30788 0.56783 0.0
C606 C 0.15092 0.31717 0.5658 0.0
C607 C 0.14989 0.32278 0.54671 0.0
C608 C 0.14092 0.32953 0.54398 0.0
C609 C 0.13284 0.3305 0.56047 0.0
C610 C 0.13321 0.32446 0.57937 0.0
C611 C 0.14263 0.31823 0.58218 0.0
H612 H 0.03504 0.41403 0.0657 0.0
H613 H 0.03532 0.43044 0.09304 0.0
H614 H 0.98648 0.40807 0.09058 0.0
H615 H 0.9861 0.39137 0.06351 0.0
H616 H 0.02482 0.45064 0.09372 0.0
H617 H 0.99453 0.40501 0.15024 0.0
H618 H 1.00198 0.40198 0.12706 0.0
H619 H 0.9845 0.40228 0.12673 0.0
C620 C 0.02435 0.41254 0.07107 0.0
C621 C 0.01054 0.40132 0.06259 0.0
C622 C 0.02453 0.42197 0.08663 0.0
C623 C 0.01091 0.42038 0.09401 0.0
C624 C 0.9971 0.40931 0.0854 0.0
H625 H 0.01117 0.48765 0.17979 0.0
H626 H 0.00674 0.4722 0.14898 0.0
C627 C 0.99691 0.3998 0.06991 0.0
C628 C 0.01129 0.43029 0.11081 0.0
H629 H 1.00074 0.42972 0.15999 0.0
C630 C 0.01948 0.44609 0.10819 0.0
C631 C 0.00437 0.42431 0.12969 0.0
C632 C 0.99596 0.40748 0.13375 0.0
C633 C 0.02124 0.45608 0.12408 0.0
C634 C 0.01439 0.45008 0.14298 0.0
C635 C 0.00588 0.43429 0.14542 0.0
C636 C 0.01716 0.45984 0.16108 0.0
C637 C 0.03092 0.47293 0.1208 0.0
C638 C 0.02436 0.45795 0.17805 0.0
C639 C 0.02677 0.4666 0.19552 0.0
C640 C 0.02197 0.47733 0.19652 0.0
C641 C 0.01499 0.47947 0.1794 0.0
C642 C 0.0125 0.47069 0.16183 0.0
H643 H 0.03771 0.47559 0.10672 0.0
H644 H 0.0235 0.47796 0.11953 0.0
H645 H 0.03876 0.47843 0.13384 0.0
H646 H 0.02815 0.44974 0.17777 0.0
H647 H 0.03247 0.46491 0.20829 0.0
H648 H 0.59721 0.61234 0.051 0.0
H649 H 0.58206 0.59551 0.07848 0.0
H650 H 0.62283 0.60173 0.10746 0.0
H651 H 0.63808 0.61861 0.08007 0.0
H652 H 0.581 0.56788 0.09233 0.0
H653 H 0.60094 0.61282 0.15165 0.0
H654 H 0.60314 0.61702 0.12489 0.0
H655 H 0.61569 0.61215 0.13768 0.0
C656 C 0.60296 0.61017 0.06327 0.0
C657 C 0.61884 0.61687 0.06347 0.0
C658 C 0.59428 0.60051 0.07889 0.0
C659 C 0.60135 0.59749 0.09504 0.0
C660 C 0.61719 0.60408 0.09523 0.0
H661 H 0.57325 0.55034 0.2084 0.0
H662 H 0.58672 0.56318 0.17754 0.0
C663 C 0.62588 0.61369 0.07957 0.0
C664 C 0.59217 0.58752 0.11179 0.0
H665 H 0.58595 0.58749 0.16254 0.0
C666 C 0.58201 0.57213 0.1077 0.0
C667 C 0.5935 0.59316 0.13175 0.0
C668 C 0.6038 0.60971 0.13682 0.0
C669 C 0.57343 0.56209 0.12323 0.0
C670 C 0.57489 0.56771 0.14325 0.0
C671 C 0.58491 0.58317 0.14721 0.0
C672 C 0.56641 0.55788 0.16055 0.0
C673 C 0.56323 0.54552 0.11819 0.0
C674 C 0.55046 0.55025 0.16107 0.0
C675 C 0.54274 0.54272 0.17867 0.0
C676 C 0.55089 0.54293 0.19599 0.0
C677 C 0.56676 0.55001 0.19515 0.0
C678 C 0.57444 0.55738 0.17759 0.0
H679 H 0.56634 0.5424 0.10356 0.0
H680 H 0.5637 0.53823 0.13031 0.0
H681 H 0.55136 0.54309 0.11686 0.0
H682 H 0.54404 0.55074 0.14826 0.0
H683 H 0.5305 0.53749 0.17915 0.0
H684 H 0.39685 0.98554 0.05263 0.0
H685 H 0.41357 0.98512 0.07908 0.0
H686 H 0.42496 0.03015 0.09808 0.0
H687 H 0.40816 0.03063 0.07174 0.0
H688 H 0.44548 0.00577 0.08566 0.0
H689 H 0.41009 0.00456 0.15035 0.0
H690 H 0.40292 1.00023 0.12466 0.0
H691 H 0.4151 0.01958 0.13246 0.0
C692 C 0.40288 0.99534 0.06249 0.0
C693 C 0.40111 0.00808 0.06022 0.0
C694 C 0.41247 0.9951 0.07752 0.0
C695 C 0.42039 0.00754 0.09063 0.0
C696 C 0.41878 0.02035 0.08828 0.0
H697 H 0.47284 0.01811 0.19981 0.0
H698 H 0.46267 0.02365 0.1694 0.0
C699 C 0.40921 0.02061 0.07322 0.0
C700 C 0.43016 0.007 0.10692 0.0
H701 H 0.43336 0.00611 0.15833 0.0
C702 C 0.44289 0.00588 0.10157 0.0
C703 C 0.42673 0.00717 0.12762 0.0
C704 C 0.41291 0.00783 0.13422 0.0
C705 C 0.45235 0.005 0.11644 0.0
C706 C 0.44879 0.00495 0.13715 0.0
C707 C 0.43614 0.00624 0.14245 0.0
C708 C 0.4575 0.0029 0.15372 0.0
C709 C 0.46614 0.00432 0.10982 0.0
C710 C 0.45843 0.98962 0.15476 0.0
C711 C 0.46437 0.98651 0.17206 0.0
C712 C 0.46927 0.99653 0.18872 0.0
C713 C 0.46911 0.01019 0.18719 0.0
C714 C 0.46328 0.01335 0.16986 0.0
H715 H 0.46986 0.00918 0.09446 0.0
H716 H 0.47573 0.01051 0.12063 0.0
H717 H 0.4633 0.9923 0.10922 0.0
H718 H 0.45374 0.98123 0.14272 0.0
H719 H 0.46413 0.97578 0.17297 0.0
H720 H 0.42181 0.03148 0.97766 0.0
H721 H 0.43898 0.03199 0.95142 0.0
H722 H 0.40311 0.98992 0.92669 0.0
H723 H 0.38583 0.98931 0.95289 0.0
H724 H 0.44718 0.00877 0.9417 0.0
H725 H 0.41834 0.02075 0.87862 0.0
H726 H 0.41565 0.02375 0.90491 0.0
H727 H 0.40629 0.00491 0.89443 0.0
C728 C 0.41756 0.02235 0.96661 0.0
C729 C 0.40244 0.0104 0.96723 0.0
C730 C 0.42741 0.02263 0.95171 0.0
C731 C 0.42228 0.01105 0.93708 0.0
C732 C 0.40723 0.99903 0.93776 0.0
H733 H 0.46992 0.98965 0.84621 0.0
H734 H 0.45766 0.99037 0.87775 0.0
C735 C 0.39739 0.9987 0.95273 0.0
C736 C 0.43257 0.01174 0.92083 0.0
H737 H 0.43804 0.01606 0.86975 0.0
C738 C 0.44523 0.01038 0.92595 0.0
C739 C 0.43005 0.014 0.90038 0.0
C740 C 0.41693 0.01607 0.89416 0.0
C741 C 0.45534 0.01101 0.91103 0.0
C742 C 0.45264 0.01299 0.89053 0.0
C743 C 0.44007 0.01452 0.8855 0.0
C744 C 0.46256 0.01346 0.87385 0.0
C745 C 0.4689 0.00973 0.91727 0.0
C746 C 0.46973 0.02633 0.86152 0.0
C747 C 0.47674 0.02595 0.84357 0.0
C748 C 0.47662 0.01265 0.83754 0.0
C749 C 0.47037 1.00011 0.85061 0.0
C750 C 0.46332 1.0005 0.86861 0.0
H751 H 0.47125 0.01169 0.9338 0.0
H752 H 0.46669 0.99816 0.9136 0.0
H753 H 0.47916 0.01797 0.90886 0.0
H754 H 0.46927 0.03644 0.8653 0.0
H755 H 0.48153 0.03579 0.83382 0.0
H756 H 0.02825 0.40008 0.94774 0.0
H757 H 0.02998 0.41734 0.92074 0.0
H758 H 0.99981 0.42766 0.9537 0.0
H759 H 0.99799 0.41041 0.98073 0.0
H760 H 0.00392 0.41494 0.89825 0.0
H761 H 0.03734 0.46996 0.93917 0.0
H762 H 0.03707 0.45288 0.94711 0.0
H763 H 0.02109 0.45525 0.95201 0.0
C764 C 0.02203 0.40606 0.94926 0.0
C765 C 0.01298 0.40389 0.96633 0.0
C766 C 0.02304 0.41592 0.93386 0.0
C767 C 0.01518 0.4239 0.93539 0.0
C768 C 0.00615 0.42178 0.95242 0.0
H769 H 0.0069 0.48536 0.85018 0.0
H770 H 0.00632 0.47155 0.8811 0.0
C771 C 0.00505 0.41186 0.96776 0.0
C772 C 0.01584 0.43387 0.91866 0.0
H773 H 0.02889 0.47086 0.90602 0.0
C774 C 0.00938 0.42717 0.89992 0.0
C775 C 0.02281 0.44978 0.92104 0.0
C776 C 0.03008 0.45749 0.94085 0.0
C777 C 0.00973 0.43595 0.8834 0.0
C778 C 0.01711 0.45193 0.88554 0.0
C779 C 0.02331 0.45863 0.90442 0.0
C780 C 0.01893 0.46176 0.868 0.0
C781 C 1.00203 0.428 0.86385 0.0
C782 C 0.02676 0.46134 0.85082 0.0
C783 C 0.02701 0.46907 0.83331 0.0
C784 C 0.01962 0.47756 0.83272 0.0
C785 C 0.01267 0.47887 0.85034 0.0
C786 C 0.0123 0.47098 0.86791 0.0
H787 H 0.99329 0.41597 0.86645 0.0
H788 H 0.99656 0.43376 0.85627 0.0
H789 H 0.01061 0.42815 0.85342 0.0
H790 H 0.03228 0.45461 0.85075 0.0
H791 H 0.0326 0.46804 0.81996 0.0
H792 H 0.62086 0.59762 0.97403 0.0
H793 H 0.60396 0.58084 0.94733 0.0
H794 H 0.59426 0.61561 0.92864 0.0
H795 H 0.61127 0.63254 0.95523 0.0
H796 H 0.57242 0.57054 0.94099 0.0
H797 H 0.60804 0.604 0.87613 0.0
H798 H 0.61529 0.60679 0.90175 0.0
H799 H 0.60352 0.61439 0.89412 0.0
C800 C 0.6152 0.60173 0.96417 0.0
C801 C 0.61747 0.61643 0.96662 0.0
C802 C 0.6055 0.5921 0.94899 0.0
C803 C 0.59797 0.59703 0.93593 0.0
C804 C 0.60014 0.61167 0.9384 0.0
H805 H 0.54413 0.5555 0.82731 0.0
H806 H 0.55492 0.57135 0.85763 0.0
C807 C 0.60983 0.62131 0.9536 0.0
C808 C 0.58793 0.58683 0.91966 0.0
H809 H 0.58436 0.58262 0.86826 0.0
C810 C 0.57498 0.57317 0.92507 0.0
C811 C 0.59131 0.59033 0.89895 0.0
C812 C 0.60535 0.6046 0.89229 0.0
C813 C 0.56526 0.56291 0.91025 0.0
C814 C 0.56878 0.5663 0.88952 0.0
C815 C 0.58163 0.58007 0.88416 0.0
C816 C 0.5598 0.55555 0.87301 0.0
C817 C 0.55127 0.54862 0.91692 0.0
C818 C 0.55854 0.5412 0.87185 0.0
C819 C 0.55228 0.53208 0.8546 0.0
C820 C 0.54736 0.53726 0.83812 0.0
C821 C 0.54788 0.55126 0.83979 0.0
C822 C 0.55405 0.56032 0.85706 0.0
H823 H 0.54774 0.5499 0.93237 0.0
H824 H 0.54166 0.54542 0.90624 0.0
H825 H 0.55376 0.5392 0.91733 0.0
H826 H 0.56319 0.53741 0.88375 0.0
H827 H 0.55225 0.52145 0.85359 0.0
H828 H 0.0305 0.62719 0.9607 0.0
H829 H 0.02993 0.60974 0.93455 0.0
H830 H 0.98166 0.58137 0.94228 0.0
H831 H 0.98212 0.59868 0.96852 0.0
H832 H 0.01615 0.575 0.93955 0.0
H833 H 0.99036 0.59344 0.87948 0.0
H834 H 1.00078 0.60549 0.90073 0.0
H835 H 0.98203 0.58974 0.90433 0.0
C836 C 0.01977 0.61726 0.95679 0.0
C837 C 0.00635 0.61433 0.96658 0.0
C838 C 0.01948 0.60729 0.94194 0.0
C839 C 0.00575 0.59433 0.93653 0.0
C840 C 0.99234 0.59136 0.94625 0.0
H841 H 0.98332 0.53182 0.83547 0.0
H842 H 0.98188 0.54372 0.86705 0.0
C843 C 0.99264 0.60126 0.96119 0.0
C844 C 0.00541 0.58402 0.92048 0.0
H845 H 0.99478 0.57356 0.8713 0.0
C846 C 0.01147 0.57461 0.92461 0.0
C847 C 0.99919 0.58353 0.90114 0.0
C848 C 0.99277 0.59362 0.89596 0.0
C849 C 0.0114 0.56462 0.90982 0.0
C850 C 0.00544 0.56434 0.89028 0.0
C851 C 0.99927 0.5737 0.88629 0.0
C852 C 0.006 0.55499 0.87335 0.0
C853 C 0.01747 0.55431 0.91538 0.0
C854 C 0.01996 0.55697 0.86672 0.0
C855 C 0.02075 0.55 0.84883 0.0
C856 C 0.00764 0.54116 0.8371 0.0
C857 C 0.99359 0.53858 0.84427 0.0
C858 C 0.99277 0.54541 0.86225 0.0
H859 H 0.01682 0.55227 0.93198 0.0
H860 H 0.01116 0.54322 0.9074 0.0
H861 H 0.02958 0.55977 0.91101 0.0
H862 H 0.03037 0.5646 0.87471 0.0
H863 H 0.03176 0.5524 0.84346 0.0
H864 H 0.42006 0.40215 0.97748 0.0
H865 H 0.43601 0.41839 0.9502 0.0
H866 H 0.39876 0.4231 0.92783 0.0
H867 H 0.38261 0.40663 0.955 0.0
H868 H 0.41317 0.41627 0.89776 0.0
H869 H 0.45551 0.46417 0.94475 0.0
H870 H 0.45306 0.44618 0.95225 0.0
H871 H 0.43753 0.44973 0.95463 0.0
C872 C 0.41527 0.40668 0.96681 0.0
C873 C 0.40009 0.40314 0.96841 0.0
C874 C 0.42445 0.41607 0.95132 0.0
C875 C 0.41868 0.42221 0.93723 0.0
C876 C 0.40348 0.41859 0.93867 0.0
H877 H 0.45816 0.47338 0.826 0.0
H878 H 0.44235 0.46276 0.85609 0.0
C879 C 0.39427 0.40917 0.95416 0.0
C880 C 0.42833 0.43178 0.92042 0.0
H881 H 0.46212 0.46362 0.91012 0.0
C882 C 0.42377 0.42673 0.90043 0.0
C883 C 0.44218 0.4454 0.92397 0.0
C884 C 0.44731 0.45179 0.94505 0.0
C885 C 0.43296 0.43463 0.88392 0.0
C886 C 0.44695 0.44809 0.88748 0.0
C887 C 0.45139 0.4533 0.90744 0.0
C888 C 0.45741 0.45643 0.87067 0.0
C889 C 0.42787 0.42819 0.86283 0.0
C890 C 0.47146 0.45709 0.86941 0.0
C891 C 0.48054 0.46319 0.85229 0.0
C892 C 0.47572 0.46878 0.83614 0.0
C893 C 0.46208 0.46898 0.83807 0.0
C894 C 0.45302 0.46289 0.85521 0.0
H895 H 0.4185 0.4162 0.86309 0.0
H896 H 0.42373 0.43493 0.85468 0.0
H897 H 0.43745 0.42879 0.8541 0.0
H898 H 0.47507 0.45221 0.88123 0.0
H899 H 0.4909 0.46272 0.8512 0.0
H900 H 0.61186 0.02287 0.98026 0.0
H901 H 0.59361 0.02158 0.95496 0.0
H902 H 0.59924 0.98862 0.92075 0.0
H903 H 0.61721 0.98957 0.94628 0.0
H904 H 0.59719 0.02824 0.91529 0.0
H905 H 0.55366 0.9678 0.9244 0.0
H906 H 0.56905 0.97776 0.94228 0.0
H907 H 0.572 0.97029 0.91906 0.0
C908 C 0.60918 0.01532 0.96737 0.0
C909 C 0.61591 0.00627 0.96528 0.0
C910 C 0.59873 0.01458 0.95294 0.0
C911 C 0.5948 0.00477 0.93618 0.0
C912 C 0.60176 0.99595 0.93386 0.0
H913 H 0.55307 0.99218 0.82121 0.0
H914 H 0.56534 0.99158 0.85287 0.0
C915 C 0.61214 0.99661 0.94835 0.0
C916 C 0.58391 0.00422 0.92069 0.0
H917 H 0.55177 0.97994 0.89424 0.0
C918 C 0.58712 0.01772 0.91092 0.0
C919 C 0.5707 0.9905 0.9151 0.0
C920 C 0.56605 0.9758 0.92591 0.0
C921 C 0.5779 0.01775 0.89505 0.0
C922 C 0.56511 0.00393 0.8889 0.0
C923 C 0.5616 0.99051 0.89905 0.0
C924 C 0.55624 0.00302 0.87059 0.0
C925 C 0.58225 0.03241 0.88433 0.0
C926 C 0.54673 0.0093 0.87027 0.0
C927 C 0.53959 0.00957 0.85216 0.0
C928 C 0.54207 0.00371 0.8342 0.0
C929 C 0.55111 0.9969 0.83484 0.0
C930 C 0.55808 0.9965 0.85289 0.0
H931 H 0.59335 0.04188 0.88966 0.0
H932 H 0.58281 0.03097 0.86771 0.0
H933 H 0.57345 0.03558 0.88704 0.0
H934 H 0.54513 0.0143 0.88387 0.0
H935 H 0.53268 0.01488 0.85199 0.0
H936 H 0.59893 0.98075 0.05244 0.0
H937 H 0.58164 0.9797 0.0788 0.0
H938 H 0.61474 0.02489 0.0984 0.0
H939 H 0.63206 0.0261 0.07185 0.0
H940 H 0.58621 0.98245 0.12049 0.0
H941 H 0.57625 0.02769 0.09095 0.0
H942 H 0.58471 0.01911 0.07584 0.0
H943 H 0.59587 0.03331 0.09452 0.0
C944 C 0.60254 0.99047 0.06236 0.0
C945 C 0.61684 0.00353 0.06006 0.0
C946 C 0.59264 0.98986 0.07738 0.0
C947 C 0.5968 0.00231 0.09032 0.0
C948 C 0.61117 0.01528 0.08828 0.0
H949 H 0.55659 0.01741 0.19636 0.0
H950 H 0.5718 0.02011 0.16636 0.0
C951 C 0.6211 0.01591 0.07323 0.0
C952 C 0.58624 1.00145 0.10633 0.0
H953 H 0.56624 0.0179 0.12347 0.0
C954 C 0.58177 0.99014 0.12108 0.0
C955 C 0.58049 0.01152 0.10706 0.0
C956 C 0.58444 0.02352 0.09116 0.0
C957 C 0.57193 0.98878 0.13677 0.0
C958 C 0.56616 0.99884 0.1375 0.0
C959 C 0.57062 0.01017 0.12277 0.0
C960 C 0.55593 0.99802 0.15395 0.0
C961 C 0.5681 0.97685 0.15274 0.0
C962 C 0.54167 0.98498 0.15642 0.0
C963 C 0.53298 0.98338 0.17356 0.0
C964 C 0.5384 0.99483 0.18849 0.0
C965 C 0.55221 0.00832 0.18523 0.0
C966 C 0.56088 0.0099 0.16809 0.0
H967 H 0.57609 0.97242 0.15259 0.0
H968 H 0.56831 0.98145 0.1681 0.0
H969 H 0.55651 0.96719 0.14985 0.0
H970 H 0.53755 0.97578 0.14548 0.0
H971 H 0.52246 0.97281 0.17568 0.0
H972 H 0.9886 0.61023 0.07405 0.0
H973 H 0.99011 0.59389 0.10009 0.0
H974 H 0.03212 0.60116 0.07458 0.0
H975 H 0.03085 0.61768 0.04885 0.0
H976 H 0.99156 0.5672 0.09641 0.0
H977 H 0.04334 0.61297 0.13385 0.0
H978 H 0.03235 0.61681 0.11581 0.0
H979 H 0.04546 0.61111 0.10718 0.0
C980 C 0.99818 0.60839 0.07407 0.0
C981 C 0.00969 0.61536 0.05955 0.0
C982 C 0.999 0.59901 0.08889 0.0
C983 C 0.01134 0.59649 0.08944 0.0
C984 C 0.02266 0.6032 0.07469 0.0
H985 H 0.04046 0.55107 0.17435 0.0
H986 H 0.03617 0.56113 0.14291 0.0
C987 C 0.02189 0.61261 0.05997 0.0
C988 C 0.01249 0.58697 0.10551 0.0
H989 H 0.03494 0.58791 0.14471 0.0
C990 C 1.00102 0.57171 0.107 0.0
C991 C 0.02485 0.59289 0.11931 0.0
C992 C 0.03713 0.60937 0.11914 0.0
C993 C 1.00169 0.56217 0.12182 0.0
C994 C 0.01406 0.56811 0.13557 0.0
C995 C 0.02555 0.58333 0.13399 0.0
C996 C 0.015 0.55915 0.1526 0.0
C997 C 0.98924 0.54579 0.12253 0.0
C998 C 0.00427 0.55425 0.16819 0.0
C999 C 0.00667 0.54845 0.18611 0.0
C1000 C 0.01988 0.54752 0.18879 0.0
C1001 C 0.03009 0.55147 0.17263 0.0
C1002 C 0.02771 0.55732 0.15472 0.0
H1003 H 0.98301 0.54199 0.10786 0.0
H1004 H 0.99388 0.53829 0.12636 0.0
H1005 H 0.981 0.54446 0.13442 0.0
H1006 H 0.99452 0.55577 0.16703 0.0
H1007 H 0.99862 0.54548 0.19833 0.0
H1008 H 0.41446 0.39323 0.06659 0.0
H1009 H 0.43161 0.41081 0.09261 0.0
H1010 H 0.40795 0.43591 0.09008 0.0
H1011 H 0.39081 0.41846 0.06403 0.0
H1012 H 0.45045 0.44515 0.08967 0.0
H1013 H 0.40772 0.42338 0.15137 0.0
H1014 H 0.40589 0.41232 0.12898 0.0
H1015 H 0.40192 0.42756 0.1276 0.0
C1016 C 0.41289 0.40247 0.07162 0.0
C1017 C 0.40124 0.40442 0.06336 0.0
C1018 C 0.42273 0.41252 0.08639 0.0
C1019 C 0.42099 0.42459 0.09327 0.0
C1020 C 0.40941 0.4266 0.08502 0.0
H1021 H 0.46012 0.48656 0.19483 0.0
H1022 H 0.44686 0.47455 0.16313 0.0
C1023 C 0.39963 0.41662 0.07017 0.0
C1024 C 0.4311 0.43495 0.10934 0.0
H1025 H 0.4315 0.44462 0.15896 0.0
C1026 C 0.44636 0.44508 0.10485 0.0
C1027 C 0.42566 0.43483 0.12903 0.0
C1028 C 0.40943 0.42389 0.13471 0.0
C1029 C 0.45634 0.45528 0.11955 0.0
C1030 C 0.45095 0.45505 0.13936 0.0
C1031 C 0.43564 0.44489 0.14376 0.0
C1032 C 0.46091 0.4648 0.15613 0.0
C1033 C 0.47246 0.46637 0.11361 0.0
C1034 C 0.47361 0.46382 0.16236 0.0
C1035 C 0.48135 0.47092 0.1803 0.0
C1036 C 0.47636 0.47887 0.19246 0.0
C1037 C 0.46422 0.48056 0.18563 0.0
C1038 C 0.45661 0.47364 0.1676 0.0
H1039 H 0.47342 0.46843 0.09701 0.0
H1040 H 0.47681 0.47738 0.12165 0.0
H1041 H 0.4798 0.4616 0.11768 0.0
H1042 H 0.47695 0.4568 0.15407 0.0
H1043 H 0.4905 0.46921 0.18545 0.0
H1044 H 0.65236 0.72114 0.40532 0.0
H1045 H 0.65154 0.73784 0.43151 0.0
H1046 H 0.69637 0.77304 0.41478 0.0
H1047 H 0.69726 0.75647 0.38857 0.0
H1048 H 0.67231 0.75118 0.46432 0.0
H1049 H 0.67145 0.79491 0.41531 0.0
H1050 H 0.66677 0.77638 0.40592 0.0
H1051 H 0.68625 0.79078 0.40971 0.0
C1052 C 0.66201 0.73246 0.40718 0.0
C1053 C 0.67488 0.7375 0.3949 0.0
C1054 C 0.66151 0.74199 0.4221 0.0
C1055 C 0.67378 0.75676 0.42483 0.0
C1056 C 0.68665 0.7618 0.41262 0.0
H1057 H 0.70209 0.82878 0.51243 0.0
H1058 H 0.69788 0.81372 0.48152 0.0
C1059 C 0.68719 0.75227 0.39778 0.0
C1060 C 0.67353 0.76659 0.44124 0.0
H1061 H 0.67582 0.80068 0.4506 0.0
C1062 C 0.67291 0.76193 0.46135 0.0
C1063 C 0.67442 0.78064 0.43725 0.0
C1064 C 0.67463 0.78597 0.41588 0.0
C1065 C 0.67361 0.77113 0.47765 0.0
C1066 C 0.67455 0.78523 0.47371 0.0
C1067 C 0.67501 0.78984 0.45357 0.0
C1068 C 0.67578 0.79556 0.49045 0.0
C1069 C 0.67393 0.76591 0.49896 0.0
C1070 C 0.66439 0.79074 0.50514 0.0
C1071 C 0.6668 0.79929 0.5228 0.0
C1072 C 0.68054 0.81291 0.52589 0.0
C1073 C 0.69135 0.81839 0.51035 0.0
C1074 C 0.68899 0.80975 0.49275 0.0
H1075 H 0.6769 0.7568 0.49922 0.0
H1076 H 0.68222 0.77547 0.50859 0.0
H1077 H 0.66253 0.76131 0.50578 0.0
H1078 H 0.65395 0.77999 0.50343 0.0
H1079 H 0.65825 0.79488 0.53452 0.0
H1080 H 0.30067 0.94557 0.41027 0.0
H1081 H 0.28401 0.92919 0.43708 0.0
H1082 H 0.24861 0.93748 0.41649 0.0
H1083 H 0.26515 0.95379 0.38957 0.0
H1084 H 0.27021 0.93683 0.46817 0.0
H1085 H 0.22737 0.89078 0.41894 0.0
H1086 H 0.24588 0.90477 0.40994 0.0
H1087 H 0.23119 0.90949 0.41252 0.0
C1088 C 0.28934 0.94391 0.41147 0.0
C1089 C 0.2842 0.95093 0.39781 0.0
C1090 C 0.27983 0.93453 0.42675 0.0
C1091 C 0.265 0.93192 0.42853 0.0
C1092 C 0.25991 0.9391 0.4151 0.0
H1093 H 0.20766 0.89913 0.53383 0.0
H1094 H 0.22095 0.91245 0.50308 0.0
C1095 C 0.26942 0.9485 0.39985 0.0
C1096 C 0.25503 0.92212 0.4449 0.0
H1097 H 0.2214 0.88972 0.45397 0.0
C1098 C 0.25957 0.92651 0.46507 0.0
C1099 C 0.24122 0.90858 0.44078 0.0
C1100 C 0.23614 0.90301 0.41938 0.0
C1101 C 0.25053 0.91788 0.48127 0.0
C1102 C 0.2365 0.9046 0.47716 0.0
C1103 C 0.23208 0.9 0.45701 0.0
C1104 C 0.22643 0.8954 0.4938 0.0
C1105 C 0.2561 0.92296 0.50269 0.0
C1106 C 0.22448 0.88107 0.49815 0.0
C1107 C 0.21686 0.87341 0.51572 0.0
C1108 C 0.2111 0.88002 0.52913 0.0
C1109 C 0.21215 0.89387 0.52389 0.0
C1110 C 0.21974 0.90149 0.50638 0.0
H1111 H 0.26841 0.93146 0.50324 0.0
H1112 H 0.24985 0.92822 0.50937 0.0
H1113 H 0.25398 0.91315 0.51225 0.0
H1114 H 0.22954 0.87619 0.48855 0.0
H1115 H 0.21633 0.86282 0.51943 0.0
H1116 H 0.07644 0.3653 0.40557 0.0
H1117 H 0.09345 0.36451 0.43132 0.0
H1118 H 0.07933 0.31844 0.41391 0.0
H1119 H 0.06211 0.31905 0.38852 0.0
H1120 H 0.07889 0.32182 0.45458 0.0
H1121 H 0.13396 0.36647 0.42417 0.0
H1122 H 0.1205 0.37266 0.42825 0.0
H1123 H 0.11659 0.35827 0.40951 0.0
C1124 C 0.077 0.35503 0.40723 0.0
C1125 C 0.06794 0.34224 0.39505 0.0
C1126 C 0.08683 0.35464 0.4218 0.0
C1127 C 0.08788 0.34151 0.42427 0.0
C1128 C 0.07878 0.32873 0.41217 0.0
H1129 H 0.13345 0.31238 0.5094 0.0
H1130 H 0.12245 0.31607 0.47835 0.0
C1131 C 0.06892 0.32908 0.3977 0.0
C1132 C 0.0978 0.34072 0.44018 0.0
H1133 H 0.13448 0.35726 0.45719 0.0
C1134 C 0.09106 0.32949 0.45504 0.0
C1135 C 0.11368 0.35077 0.44077 0.0
C1136 C 0.12166 0.36264 0.42472 0.0
C1137 C 0.09969 0.32818 0.47067 0.0
C1138 C 0.11553 0.33826 0.47134 0.0
C1139 C 0.12233 0.34951 0.45652 0.0
C1140 C 0.12496 0.33753 0.48794 0.0
C1141 C 0.09173 0.31624 0.48668 0.0
C1142 C 0.13075 0.34879 0.50304 0.0
C1143 C 0.13712 0.34676 0.52072 0.0
C1144 C 0.13784 0.33346 0.52353 0.0
C1145 C 0.13317 0.3228 0.50762 0.0
C1146 C 0.12676 0.32482 0.48996 0.0
H1147 H 0.07923 0.31131 0.48612 0.0
H1148 H 0.09421 0.30693 0.48429 0.0
H1149 H 0.09589 0.32107 0.50206 0.0
H1150 H 0.12951 0.3587 0.5017 0.0
H1151 H 0.14073 0.3552 0.53269 0.0
H1152 H 0.0882 0.36066 0.31514 0.0
H1153 H 0.10471 0.35889 0.28981 0.0
H1154 H 0.06585 0.32112 0.26139 0.0
H1155 H 0.0493 0.3226 0.28698 0.0
H1156 H 0.08986 0.31609 0.26622 0.0
H1157 H 0.10932 0.37236 0.23124 0.0
H1158 H 0.11257 0.37298 0.25809 0.0
H1159 H 0.09347 0.36376 0.24836 0.0
C1160 C 0.08316 0.35204 0.30342 0.0
C1161 C 0.06744 0.34183 0.30295 0.0
C1162 C 0.09261 0.35108 0.28891 0.0
C1163 C 0.08649 0.34002 0.27353 0.0
C1164 C 0.0708 0.32977 0.2731 0.0
H1165 H 0.11148 0.31543 0.16368 0.0
H1166 H 0.10008 0.31638 0.19578 0.0
C1167 C 0.06135 0.33066 0.28767 0.0
C1168 C 0.09642 0.33899 0.25797 0.0
H1169 H 0.12045 0.35839 0.21924 0.0
C1170 C 0.0966 0.32536 0.256 0.0
C1171 C 0.10528 0.35113 0.24471 0.0
C1172 C 0.1051 0.36584 0.24553 0.0
C1173 C 0.10521 0.32346 0.24094 0.0
C1174 C 0.11376 0.33547 0.22742 0.0
C1175 C 0.11397 0.34925 0.22977 0.0
C1176 C 0.12121 0.33345 0.2094 0.0
C1177 C 0.10499 0.30859 0.23948 0.0
C1178 C 0.13691 0.34264 0.20648 0.0
C1179 C 0.14347 0.34202 0.18813 0.0
C1180 C 0.13433 0.33242 0.17241 0.0
C1181 C 0.11874 0.32287 0.17566 0.0
C1182 C 0.11224 0.32336 0.19399 0.0
H1183 H 0.10163 0.30235 0.25406 0.0
H1184 H 0.09661 0.30136 0.22773 0.0
H1185 H 0.11627 0.31038 0.23505 0.0
H1186 H 0.14398 0.35059 0.21815 0.0
H1187 H 0.1555 0.34958 0.18583 0.0
H1188 H 0.70025 0.74634 0.29347 0.0
H1189 H 0.70072 0.76345 0.26715 0.0
H1190 H 0.65456 0.75077 0.2811 0.0
H1191 H 0.65393 0.73347 0.30721 0.0
H1192 H 0.6589 0.74964 0.24072 0.0
H1193 H 0.70358 0.80462 0.27217 0.0
H1194 H 0.70957 0.79085 0.27014 0.0
H1195 H 0.69444 0.78753 0.28709 0.0
C1196 C 0.69023 0.74725 0.29098 0.0
C1197 C 0.67705 0.73856 0.30239 0.0
C1198 C 0.69056 0.75715 0.27607 0.0
C1199 C 0.67778 0.75862 0.27242 0.0
C1200 C 0.6646 0.74992 0.28378 0.0
H1201 H 0.67403 0.82163 0.18371 0.0
H1202 H 0.67323 0.80925 0.21614 0.0
C1203 C 0.66425 0.74001 0.29866 0.0
C1204 C 0.6778 0.76844 0.25583 0.0
H1205 H 0.69708 0.80446 0.23705 0.0
C1206 C 0.66713 0.76166 0.24008 0.0
C1207 C 0.6884 0.78418 0.2551 0.0
C1208 C 0.69955 0.79227 0.27213 0.0
C1209 C 0.66721 0.77003 0.2232 0.0
C1210 C 0.67837 0.78555 0.22191 0.0
C1211 C 0.68862 0.79253 0.23804 0.0
C1212 C 0.6802 0.79421 0.20314 0.0
C1213 C 0.65553 0.76214 0.20665 0.0
C1214 C 0.68488 0.79018 0.18542 0.0
C1215 C 0.68536 0.79717 0.16711 0.0
C1216 C 0.68116 0.80836 0.1661 0.0
C1217 C 0.67725 0.813 0.18408 0.0
C1218 C 0.67677 0.80594 0.20253 0.0
H1219 H 0.64559 0.75152 0.21213 0.0
H1220 H 0.65153 0.76967 0.20054 0.0
H1221 H 0.66072 0.75913 0.19403 0.0
H1222 H 0.68784 0.78135 0.18567 0.0
H1223 H 0.68877 0.79361 0.1536 0.0
H1224 H 0.28546 0.96293 0.282 0.0
H1225 H 0.26918 0.94494 0.25582 0.0
H1226 H 0.26185 0.90763 0.29405 0.0
H1227 H 0.27844 0.92554 0.31999 0.0
H1228 H 0.26869 0.90363 0.25679 0.0
H1229 H 0.22373 0.91881 0.25234 0.0
H1230 H 0.24221 0.93498 0.24868 0.0
H1231 H 0.23754 0.92534 0.27267 0.0
C1232 C 0.28031 0.95089 0.28485 0.0
C1233 C 0.28324 0.94564 0.30302 0.0
C1234 C 0.27088 0.94061 0.26996 0.0
C1235 C 0.26403 0.92491 0.27312 0.0
C1236 C 0.26692 0.91967 0.29132 0.0
H1237 H 0.199 0.8601 0.18307 0.0
H1238 H 0.20972 0.87309 0.21565 0.0
C1239 C 0.27643 0.92993 0.30611 0.0
C1240 C 0.2547 0.91396 0.25693 0.0
H1241 H 0.22515 0.90447 0.22416 0.0
C1242 C 0.25904 0.90369 0.24987 0.0
C1243 C 0.24191 0.91378 0.24813 0.0
C1244 C 0.23597 0.92371 0.256 0.0
C1245 C 0.25144 0.89381 0.23361 0.0
C1246 C 0.23938 0.89444 0.22384 0.0
C1247 C 0.23451 0.90412 0.23154 0.0
C1248 C 0.2327 0.88618 0.20457 0.0
C1249 C 0.25653 0.88292 0.22689 0.0
C1250 C 0.24202 0.88935 0.18762 0.0
C1251 C 0.236 0.88198 0.16921 0.0
C1252 C 0.22042 0.87141 0.16719 0.0
C1253 C 0.21104 0.86817 0.1842 0.0
C1254 C 0.21713 0.8756 0.20275 0.0
H1255 H 0.26207 0.88027 0.23952 0.0
H1256 H 0.24686 0.87215 0.22104 0.0
H1257 H 0.26496 0.88819 0.21459 0.0
H1258 H 0.25401 0.89764 0.18857 0.0
H1259 H 0.2436 0.88455 0.15653 0.0
H1260 H 0.65954 0.94698 0.28137 0.0
H1261 H 0.66161 0.93103 0.25523 0.0
H1262 H 0.70449 0.94021 0.28073 0.0
H1263 H 0.70278 0.95669 0.30633 0.0
H1264 H 0.70635 0.94147 0.24158 0.0
H1265 H 0.65369 0.88877 0.26096 0.0
H1266 H 0.64978 0.90365 0.25524 0.0
H1267 H 0.66148 0.90547 0.27687 0.0
C1268 C 0.66944 0.94565 0.28131 0.0
C1269 C 0.68099 0.95305 0.29588 0.0
C1270 C 0.67052 0.93638 0.26653 0.0
C1271 C 0.68299 0.93404 0.26635 0.0
C1272 C 0.69469 0.94171 0.28066 0.0
H1273 H 0.67877 0.86396 0.18305 0.0
H1274 H 0.68108 0.87786 0.21467 0.0
C1275 C 0.69373 0.95117 0.29524 0.0
C1276 C 0.68409 0.92405 0.2508 0.0
H1277 H 0.66402 0.88931 0.22793 0.0
C1278 C 0.69716 0.92999 0.23881 0.0
C1279 C 0.67233 0.9089 0.24748 0.0
C1280 C 0.65862 0.90128 0.26099 0.0
C1281 C 0.69844 0.92152 0.22293 0.0
C1282 C 0.68609 0.90689 0.21845 0.0
C1283 C 0.67339 0.90061 0.23114 0.0
C1284 C 0.68558 0.89857 0.19968 0.0
C1285 C 0.713 0.92841 0.21106 0.0
C1286 C 0.68726 0.90554 0.18084 0.0
C1287 C 0.68614 0.89775 0.16296 0.0
C1288 C 0.68291 0.88261 0.16336 0.0
C1289 C 0.6813 0.87561 0.18225 0.0
C1290 C 0.68255 0.88351 0.20028 0.0
H1291 H 0.72281 0.93639 0.22063 0.0
H1292 H 0.71526 0.91959 0.20493 0.0
H1293 H 0.71218 0.93498 0.19821 0.0
H1294 H 0.68922 0.91699 0.17991 0.0
H1295 H 0.68777 0.90363 0.14873 0.0
H1296 H 0.09192 0.7411 0.31939 0.0
H1297 H 0.10987 0.7572 0.29361 0.0
H1298 H 0.07265 0.75035 0.25497 0.0
H1299 H 0.0546 0.73456 0.28102 0.0
H1300 H 0.11357 0.74997 0.25645 0.0
H1301 H 0.09948 0.79567 0.25173 0.0
H1302 H 0.09276 0.78199 0.27197 0.0
H1303 H 0.0831 0.7773 0.24782 0.0
C1304 C 0.08755 0.7431 0.30545 0.0
C1305 C 0.07185 0.73658 0.30222 0.0
C1306 C 0.09783 0.75234 0.29075 0.0
C1307 C 0.09265 0.75523 0.27248 0.0
C1308 C 0.07695 0.74865 0.26917 0.0
H1309 H 0.13319 0.77472 0.15661 0.0
H1310 H 0.12011 0.76449 0.18841 0.0
C1311 C 0.06664 0.7395 0.28397 0.0
C1312 C 0.10364 0.76431 0.25642 0.0
H1313 H 0.11373 0.79386 0.22394 0.0
C1314 C 0.11372 0.75969 0.24955 0.0
C1315 C 0.1041 0.77719 0.24765 0.0
C1316 C 0.09439 0.78344 0.25532 0.0
C1317 C 0.1237 0.76711 0.23353 0.0
C1318 C 0.12337 0.77929 0.22379 0.0
C1319 C 0.11386 0.78442 0.23128 0.0
C1320 C 0.13175 0.78584 0.20472 0.0
C1321 C 0.13439 0.76172 0.22704 0.0
C1322 C 0.14247 0.80137 0.20315 0.0
C1323 C 0.14992 0.80735 0.18474 0.0
C1324 C 0.14654 0.79791 0.16761 0.0
C1325 C 0.13588 0.78237 0.1694 0.0
C1326 C 0.12851 0.77644 0.18767 0.0
H1327 H 0.13688 0.75614 0.23973 0.0
H1328 H 0.12903 0.75326 0.21463 0.0
H1329 H 0.14525 0.77124 0.22143 0.0
H1330 H 0.14506 0.80883 0.21613 0.0
H1331 H 0.15806 0.81936 0.18377 0.0
H1332 H 0.28338 0.32741 0.28302 0.0
H1333 H 0.26695 0.32852 0.25665 0.0
H1334 H 0.26761 0.36615 0.28765 0.0
H1335 H 0.284 0.3651 0.3141 0.0
H1336 H 0.2379 0.34233 0.27464 0.0
H1337 H 0.28065 0.3623 0.21316 0.0
H1338 H 0.27796 0.34575 0.2264 0.0
H1339 H 0.28576 0.36355 0.23965 0.0
C1340 C 0.28008 0.33596 0.28417 0.0
C1341 C 0.28505 0.34622 0.30056 0.0
C1342 C 0.27072 0.33659 0.26909 0.0
C1343 C 0.26618 0.3475 0.27014 0.0
C1344 C 0.27101 0.35767 0.28657 0.0
H1345 H 0.22768 0.37183 0.1695 0.0
H1346 H 0.24159 0.37274 0.20033 0.0
C1347 C 0.28042 0.35709 0.3016 0.0
C1348 C 0.2564 0.34831 0.25409 0.0
H1349 H 0.25551 0.35523 0.20367 0.0
C1350 C 0.24174 0.3452 0.25912 0.0
C1351 C 0.26152 0.35224 0.23395 0.0
C1352 C 0.27737 0.35628 0.22791 0.0
C1353 C 0.23193 0.34559 0.24438 0.0
C1354 C 0.23692 0.3491 0.22412 0.0
C1355 C 0.25169 0.3525 0.21922 0.0
C1356 C 0.22702 0.34905 0.20754 0.0
C1357 C 0.21638 0.34238 0.2506 0.0
C1358 C 0.21396 0.33553 0.2017 0.0
C1359 C 0.20599 0.33498 0.18407 0.0
C1360 C 0.21103 0.34792 0.17192 0.0
C1361 C 0.2236 0.36165 0.17848 0.0
C1362 C 0.23154 0.36219 0.19608 0.0
H1363 H 0.21572 0.34373 0.26723 0.0
H1364 H 0.21325 0.35002 0.24266 0.0
H1365 H 0.20791 0.33052 0.24643 0.0
H1366 H 0.21042 0.3252 0.21012 0.0
H1367 H 0.19651 0.32418 0.17926 0.0
H1368 H 0.29948 0.36196 0.40971 0.0
H1369 H 0.28241 0.36034 0.43691 0.0
H1370 H 0.24749 0.31737 0.413 0.0
H1371 H 0.26449 0.31881 0.386 0.0
H1372 H 0.25347 0.35776 0.43394 0.0
H1373 H 0.25057 0.30811 0.47267 0.0
H1374 H 0.26485 0.31904 0.45411 0.0
H1375 H 0.24597 0.30521 0.44612 0.0
C1376 C 0.2882 0.35213 0.41033 0.0
C1377 C 0.28336 0.34045 0.39582 0.0
C1378 C 0.27845 0.35125 0.42583 0.0
C1379 C 0.26376 0.33865 0.42711 0.0
C1380 C 0.25887 0.32706 0.41251 0.0
H1381 H 0.19032 0.3099 0.51324 0.0
H1382 H 0.2051 0.3132 0.4826 0.0
C1383 C 0.26859 0.32793 0.39705 0.0
C1384 C 0.25349 0.33762 0.44364 0.0
H1385 H 0.23367 0.31608 0.48406 0.0
C1386 C 0.24916 0.34868 0.44495 0.0
C1387 C 0.24787 0.32575 0.45794 0.0
C1388 C 0.25264 0.31391 0.45782 0.0
C1389 C 0.23918 0.34805 0.46004 0.0
C1390 C 0.23357 0.33617 0.47433 0.0
C1391 C 0.23788 0.32511 0.47297 0.0
C1392 C 0.2237 0.33523 0.49137 0.0
C1393 C 0.23453 0.35996 0.46038 0.0
C1394 C 0.22913 0.34666 0.50627 0.0
C1395 C 0.22066 0.34485 0.52371 0.0
C1396 C 0.20666 0.33152 0.52666 0.0
C1397 C 0.20095 0.32038 0.51131 0.0
C1398 C 0.20944 0.3222 0.49387 0.0
H1399 H 0.2363 0.36559 0.44544 0.0
H1400 H 0.22243 0.35497 0.46463 0.0
H1401 H 0.24153 0.36879 0.47179 0.0
H1402 H 0.24021 0.35669 0.50484 0.0
H1403 H 0.22532 0.35364 0.53526 0.0
H1404 H 0.68153 0.9341 0.37217 0.0
H1405 H 0.68201 0.91781 0.39887 0.0
H1406 H 0.6622 0.9356 0.44051 0.0
H1407 H 0.6615 0.95185 0.4137 0.0
H1408 H 0.698 0.92796 0.43445 0.0
H1409 H 0.63691 0.88985 0.45003 0.0
H1410 H 0.64359 0.90111 0.42731 0.0
H1411 H 0.64259 0.90961 0.45076 0.0
C1412 C 0.67708 0.93441 0.38694 0.0
C1413 C 0.67149 0.94428 0.39087 0.0
C1414 C 0.67736 0.92508 0.40217 0.0
C1415 C 0.67199 0.92535 0.4216 0.0
C1416 C 0.66611 0.93497 0.42549 0.0
H1417 H 0.69617 0.90847 0.53741 0.0
H1418 H 0.69257 0.918 0.50522 0.0
C1419 C 0.66581 0.94432 0.41022 0.0
C1420 C 0.67375 0.91655 0.43818 0.0
H1421 H 0.65443 0.89046 0.47495 0.0
C1422 C 0.68844 0.91962 0.44313 0.0
C1423 C 0.66127 0.90553 0.44932 0.0
C1424 C 0.64518 0.90119 0.44399 0.0
C1425 C 0.69105 0.91246 0.4595 0.0
C1426 C 0.67867 0.90208 0.47134 0.0
C1427 C 0.66391 0.89848 0.46587 0.0
C1428 C 0.68104 0.89602 0.49049 0.0
C1429 C 0.70708 0.91625 0.46423 0.0
C1430 C 0.67564 0.88045 0.4929 0.0
C1431 C 0.6777 0.87493 0.5114 0.0
C1432 C 0.68492 0.88492 0.52776 0.0
C1433 C 0.6904 0.90049 0.52514 0.0
C1434 C 0.68845 0.90597 0.50673 0.0
H1435 H 0.71456 0.921 0.45084 0.0
H1436 H 0.71175 0.92486 0.47656 0.0
H1437 H 0.70739 0.90606 0.46944 0.0
H1438 H 0.66985 0.8726 0.48051 0.0
H1439 H 0.67336 0.86288 0.51308 0.0
H1440 H 0.06964 0.72076 0.41243 0.0
H1441 H 0.08568 0.73794 0.43953 0.0
H1442 H 0.08206 0.77449 0.41262 0.0
H1443 H 0.06602 0.75742 0.3855 0.0
H1444 H 0.11271 0.78152 0.42392 0.0
H1445 H 0.07081 0.75526 0.48598 0.0
H1446 H 0.07405 0.74241 0.47097 0.0
H1447 H 0.06541 0.7522 0.45951 0.0
C1448 C 0.07219 0.73243 0.41236 0.0
C1449 C 0.06651 0.73773 0.39691 0.0
C1450 C 0.08133 0.74222 0.42784 0.0
C1451 C 0.08496 0.75744 0.4281 0.0
C1452 C 0.07936 0.76277 0.41267 0.0
H1453 H 0.12207 0.81907 0.53046 0.0
H1454 H 0.10829 0.80597 0.49953 0.0
C1455 C 0.07016 0.75299 0.39725 0.0
C1456 C 0.09462 0.76783 0.44446 0.0
H1457 H 0.09561 0.77428 0.49538 0.0
C1458 C 0.10899 0.77999 0.43955 0.0
C1459 C 0.08964 0.76587 0.46476 0.0
C1460 C 0.07409 0.75332 0.4707 0.0
C1461 C 0.11865 0.79011 0.45455 0.0
C1462 C 0.11379 0.78792 0.47492 0.0
C1463 C 0.09932 0.7759 0.47974 0.0
C1464 C 0.12352 0.79779 0.49166 0.0
C1465 C 0.1339 0.80312 0.4485 0.0
C1466 C 0.13688 0.79787 0.49716 0.0
C1467 C 0.14476 0.80533 0.51487 0.0
C1468 C 0.13934 0.81273 0.52741 0.0
C1469 C 0.12644 0.81336 0.52119 0.0
C1470 C 0.11857 0.80589 0.50354 0.0
H1471 H 0.13447 0.8053 0.43195 0.0
H1472 H 0.13644 0.81364 0.4568 0.0
H1473 H 0.14283 0.80036 0.45244 0.0
H1474 H 0.14075 0.79149 0.48838 0.0
H1475 H 0.15452 0.80444 0.51939 0.0
H1476 H 0.33048 0.05706 0.74556 0.0
H1477 H 0.3326 0.07513 0.7717 0.0
H1478 H 0.36433 0.11223 0.7346 0.0
H1479 H 0.36262 0.09419 0.70872 0.0
H1480 H 0.3744 0.11583 0.77215 0.0
H1481 H 0.3147 0.10234 0.77412 0.0
H1482 H 0.31623 0.08577 0.77817 0.0
H1483 H 0.32188 0.09548 0.75426 0.0
C1484 C 0.33785 0.06907 0.74296 0.0
C1485 C 0.34639 0.07421 0.72512 0.0
C1486 C 0.33894 0.07941 0.75782 0.0
C1487 C 0.34837 0.09508 0.75495 0.0
C1488 C 0.35689 0.10021 0.7371 0.0
H1489 H 0.34819 0.15944 0.84513 0.0
H1490 H 0.34628 0.14688 0.81238 0.0
C1491 C 0.35593 0.08988 0.72234 0.0
C1492 C 0.35012 0.10606 0.7711 0.0
H1493 H 0.33021 0.11603 0.80302 0.0
C1494 C 0.36474 0.116 0.77868 0.0
C1495 C 0.33759 0.10657 0.77938 0.0
C1496 C 0.32174 0.09708 0.7709 0.0
C1497 C 0.36708 0.12584 0.79497 0.0
C1498 C 0.35443 0.12548 0.80428 0.0
C1499 C 0.33989 0.11616 0.79603 0.0
C1500 C 0.35594 0.13361 0.82362 0.0
C1501 C 0.3831 0.1364 0.80219 0.0
C1502 C 0.36189 0.13024 0.84072 0.0
C1503 C 0.36304 0.13738 0.85922 0.0
C1504 C 0.35804 0.14791 0.8612 0.0
C1505 C 0.35215 0.1514 0.84403 0.0
C1506 C 0.351 0.1442 0.82539 0.0
H1507 H 0.39137 0.13909 0.78976 0.0
H1508 H 0.3844 0.14717 0.80825 0.0
H1509 H 0.38598 0.13082 0.81444 0.0
H1510 H 0.36551 0.12191 0.83983 0.0
H1511 H 0.3679 0.13463 0.87202 0.0
H1512 H 0.96686 0.27994 0.74512 0.0
H1513 H 0.94986 0.26298 0.77125 0.0
H1514 H 0.91408 0.27015 0.74914 0.0
H1515 H 0.93097 0.28707 0.72293 0.0
H1516 H 0.93487 0.27011 0.80166 0.0
H1517 H 0.89407 0.2234 0.75138 0.0
H1518 H 0.91266 0.23773 0.74306 0.0
H1519 H 0.89757 0.24195 0.74467 0.0
C1520 C 0.95537 0.27789 0.74582 0.0
C1521 C 0.95024 0.28481 0.73198 0.0
C1522 C 0.94567 0.26818 0.76071 0.0
C1523 C 0.93065 0.26513 0.7619 0.0
C1524 C 0.92554 0.27213 0.74822 0.0
H1525 H 0.87033 0.23015 0.86415 0.0
H1526 H 0.88412 0.24374 0.83381 0.0
C1527 C 0.93524 0.28187 0.73336 0.0
C1528 C 0.92052 0.25511 0.778 0.0
H1529 H 0.88734 0.22201 0.78613 0.0
C1530 C 0.92451 0.25958 0.79827 0.0
C1531 C 0.90708 0.24131 0.7735 0.0
C1532 C 0.9026 0.23569 0.75199 0.0
C1533 C 0.91525 0.25076 0.8142 0.0
C1534 C 0.9016 0.23718 0.8097 0.0
C1535 C 0.89774 0.23252 0.78946 0.0
C1536 C 0.89136 0.22774 0.82605 0.0
C1537 C 0.92017 0.25596 0.83578 0.0
C1538 C 0.89034 0.21391 0.83114 0.0
C1539 C 0.8825 0.20613 0.84851 0.0
C1540 C 0.87555 0.21208 0.861 0.0
C1541 C 0.87574 0.2254 0.85498 0.0
C1542 C 0.88359 0.23316 0.83768 0.0
H1543 H 0.93226 0.26504 0.83678 0.0
H1544 H 0.91313 0.26048 0.84207 0.0
H1545 H 0.91849 0.24632 0.84539 0.0
H1546 H 0.89627 0.20956 0.82229 0.0
H1547 H 0.88268 0.19598 0.85282 0.0
H1548 H 0.74075 0.69712 0.73318 0.0
H1549 H 0.75821 0.69764 0.7593 0.0
H1550 H 0.74679 0.65215 0.74271 0.0
H1551 H 0.72944 0.65158 0.71651 0.0
H1552 H 0.75078 0.67789 0.79217 0.0
H1553 H 0.79335 0.67508 0.74308 0.0
H1554 H 0.7798 0.68005 0.7335 0.0
H1555 H 0.77414 0.66053 0.73794 0.0
C1556 C 0.74202 0.68726 0.73504 0.0
C1557 C 0.73375 0.67432 0.72279 0.0
C1558 C 0.75201 0.68759 0.74993 0.0
C1559 C 0.75399 0.67504 0.75269 0.0
C1560 C 0.7457 0.66209 0.74052 0.0
H1561 H 0.79589 0.64545 0.84085 0.0
H1562 H 0.78459 0.64939 0.81028 0.0
C1563 C 0.7357 0.66174 0.72567 0.0
C1564 C 0.76404 0.67512 0.76907 0.0
H1565 H 0.79475 0.67094 0.77843 0.0
C1566 C 0.7605 0.67655 0.78917 0.0
C1567 C 0.77666 0.67329 0.76508 0.0
C1568 C 0.78133 0.67228 0.74372 0.0
C1569 C 0.76894 0.67571 0.80547 0.0
C1570 C 0.78149 0.67374 0.80152 0.0
C1571 C 0.78516 0.6725 0.78139 0.0
C1572 C 0.79047 0.67232 0.81823 0.0
C1573 C 0.76399 0.6764 0.82681 0.0
C1574 C 0.79816 0.68417 0.8323 0.0
C1575 C 0.8046 0.68194 0.84975 0.0
C1576 C 0.80361 0.66788 0.85331 0.0
C1577 C 0.79693 0.65643 0.83843 0.0
C1578 C 0.79041 0.65865 0.82102 0.0
H1579 H 0.7522 0.67432 0.82722 0.0
H1580 H 0.76468 0.66793 0.83662 0.0
H1581 H 0.7716 0.68783 0.83331 0.0
H1582 H 0.79863 0.69492 0.83019 0.0
H1583 H 0.80982 0.691 0.86088 0.0
H1584 H 0.74479 0.69718 0.62686 0.0
H1585 H 0.76157 0.69681 0.60073 0.0
H1586 H 0.73769 0.64792 0.60244 0.0
H1587 H 0.7206 0.64821 0.62814 0.0
H1588 H 0.78099 0.68586 0.60211 0.0
H1589 H 0.73724 0.6554 0.54253 0.0
H1590 H 0.73352 0.66304 0.56505 0.0
H1591 H 0.7333 0.6453 0.566 0.0
C1592 C 0.74303 0.68635 0.62152 0.0
C1593 C 0.7313 0.67272 0.6294 0.0
C1594 C 0.75266 0.68615 0.60666 0.0
C1595 C 0.75077 0.67234 0.59941 0.0
C1596 C 0.73915 0.65871 0.60743 0.0
H1597 H 0.79905 0.65293 0.50553 0.0
H1598 H 0.78497 0.65109 0.53649 0.0
C1599 C 0.72942 0.65889 0.62218 0.0
C1600 C 0.76112 0.67226 0.58369 0.0
H1601 H 0.76192 0.65985 0.53579 0.0
C1602 C 0.77681 0.68016 0.58761 0.0
C1603 C 0.75567 0.66481 0.56478 0.0
C1604 C 0.73903 0.65678 0.55921 0.0
C1605 C 0.78719 0.68084 0.57311 0.0
C1606 C 0.78172 0.67349 0.55421 0.0
C1607 C 0.76605 0.66536 0.55041 0.0
C1608 C 0.79204 0.67495 0.53753 0.0
C1609 C 0.80391 0.68941 0.57808 0.0
C1610 C 0.8009 0.68902 0.52814 0.0
C1611 C 0.80888 0.69008 0.51049 0.0
C1612 C 0.80818 0.67709 0.50194 0.0
C1613 C 0.79995 0.66315 0.51195 0.0
C1614 C 0.79184 0.66207 0.52953 0.0
H1615 H 0.80602 0.6912 0.59468 0.0
H1616 H 0.80956 0.68329 0.5722 0.0
H1617 H 0.8092 0.70069 0.57075 0.0
H1618 H 0.80103 0.69905 0.5339 0.0
H1619 H 0.81511 0.70095 0.50303 0.0
H1620 H 0.3617 0.07216 0.61605 0.0
H1621 H 0.36149 0.08846 0.58897 0.0
H1622 H 0.32002 0.08392 0.6125 0.0
H1623 H 0.32017 0.06768 0.63964 0.0
H1624 H 0.33853 0.08138 0.55942 0.0
H1625 H 0.34849 0.13034 0.60768 0.0
H1626 H 0.35215 0.1157 0.61642 0.0
H1627 H 0.33308 0.11232 0.61555 0.0
C1628 C 0.35254 0.07463 0.61544 0.0
C1629 C 0.34097 0.06867 0.62998 0.0
C1630 C 0.35245 0.08396 0.6 0.0
C1631 C 0.34088 0.08759 0.59895 0.0
C1632 C 0.32921 0.08149 0.61328 0.0
H1633 H 0.31491 0.12157 0.4956 0.0
H1634 H 0.31529 0.10839 0.52636 0.0
C1635 C 0.32926 0.07212 0.62868 0.0
C1636 C 0.34076 0.09738 0.58247 0.0
H1637 H 0.34216 0.13102 0.57307 0.0
C1638 C 0.33936 0.09224 0.56239 0.0
C1639 C 0.342 0.11162 0.58642 0.0
C1640 C 0.34415 0.11793 0.60766 0.0
C1641 C 0.33887 0.10084 0.54615 0.0
C1642 C 0.33966 0.11486 0.55012 0.0
C1643 C 0.34138 0.12017 0.57015 0.0
C1644 C 0.33884 0.12412 0.53346 0.0
C1645 C 0.33763 0.09491 0.5248 0.0
C1646 C 0.35177 0.13771 0.52787 0.0
C1647 C 0.3516 0.14527 0.51028 0.0
C1648 C 0.33847 0.13933 0.49806 0.0
C1649 C 0.32525 0.1263 0.50456 0.0
C1650 C 0.32544 0.11876 0.5221 0.0
H1651 H 0.34027 0.08559 0.52406 0.0
H1652 H 0.32588 0.09047 0.5191 0.0
H1653 H 0.34542 0.10414 0.51454 0.0
H1654 H 0.36221 0.14203 0.53652 0.0
H1655 H 0.362 0.15521 0.50559 0.0
H1656 H 0.9549 0.2651 0.64499 0.0
H1657 H 0.93852 0.24836 0.61785 0.0
H1658 H 0.92874 0.28295 0.59856 0.0
H1659 H 0.94527 0.29985 0.62549 0.0
H1660 H 0.90747 0.23747 0.61032 0.0
H1661 H 0.94327 0.27231 0.54652 0.0
H1662 H 0.95013 0.27522 0.57236 0.0
H1663 H 0.93802 0.28231 0.56416 0.0
C1664 C 0.94932 0.26917 0.6349 0.0
C1665 C 0.95146 0.28383 0.63725 0.0
C1666 C 0.93993 0.25957 0.61947 0.0
C1667 C 0.93256 0.26448 0.60607 0.0
C1668 C 0.93453 0.27905 0.60853 0.0
H1669 H 0.87838 0.22383 0.49742 0.0
H1670 H 0.88949 0.23928 0.52798 0.0
C1671 C 0.94395 0.28866 0.62394 0.0
C1672 C 0.92287 0.25435 0.58949 0.0
H1673 H 0.9196 0.25104 0.53796 0.0
C1674 C 0.91009 0.24041 0.59448 0.0
C1675 C 0.92633 0.25824 0.56887 0.0
C1676 C 0.94025 0.27277 0.56257 0.0
C1677 C 0.90061 0.2303 0.57937 0.0
C1678 C 0.90416 0.23415 0.55875 0.0
C1679 C 0.91685 0.24815 0.55379 0.0
C1680 C 0.89531 0.22368 0.54194 0.0
C1681 C 0.88681 0.21567 0.58558 0.0
C1682 C 0.89457 0.20961 0.53987 0.0
C1683 C 0.88821 0.20075 0.52244 0.0
C1684 C 0.88262 0.20589 0.50668 0.0
C1685 C 0.88269 0.21963 0.50926 0.0
C1686 C 0.88902 0.22845 0.5267 0.0
H1687 H 0.8833 0.21638 0.60128 0.0
H1688 H 0.87712 0.21266 0.57512 0.0
H1689 H 0.8895 0.20639 0.58507 0.0
H1690 H 0.89963 0.20584 0.55124 0.0
H1691 H 0.88854 0.19035 0.52076 0.0
H1692 H 0.36502 0.29311 0.62734 0.0
H1693 H 0.36467 0.27668 0.59982 0.0
H1694 H 0.31577 0.25304 0.5991 0.0
H1695 H 0.31601 0.26937 0.62656 0.0
H1696 H 0.34923 0.24332 0.60025 0.0
H1697 H 0.32866 0.26616 0.53919 0.0
H1698 H 0.33715 0.27647 0.56241 0.0
H1699 H 0.3179 0.26105 0.56223 0.0
C1700 C 0.35421 0.28449 0.6212 0.0
C1701 C 0.34054 0.28256 0.62902 0.0
C1702 C 0.35402 0.27509 0.60556 0.0
C1703 C 0.3402 0.26374 0.59738 0.0
C1704 C 0.32656 0.26185 0.60508 0.0
H1705 H 0.31466 0.20043 0.49724 0.0
H1706 H 0.31475 0.2138 0.52818 0.0
C1707 C 0.32672 0.27118 0.62077 0.0
C1708 C 0.33999 0.25372 0.58093 0.0
H1709 H 0.33009 0.2443 0.53131 0.0
C1710 C 0.3451 0.24353 0.58513 0.0
C1711 C 0.33454 0.25403 0.56131 0.0
C1712 C 0.32935 0.26508 0.55586 0.0
C1713 C 0.34463 0.23339 0.57025 0.0
C1714 C 0.3392 0.23372 0.55058 0.0
C1715 C 0.33416 0.24399 0.54643 0.0
C1716 C 0.33884 0.22378 0.53383 0.0
C1717 C 0.34962 0.22222 0.57587 0.0
C1718 C 0.35228 0.22461 0.52703 0.0
C1719 C 0.35221 0.21684 0.50946 0.0
C1720 C 0.33874 0.20831 0.49824 0.0
C1721 C 0.32519 0.20695 0.50559 0.0
C1722 C 0.32525 0.2146 0.52322 0.0
H1723 H 0.34911 0.22036 0.59251 0.0
H1724 H 0.34249 0.21113 0.56817 0.0
H1725 H 0.36155 0.22675 0.5711 0.0
H1726 H 0.36296 0.23187 0.53468 0.0
H1727 H 0.36285 0.21829 0.50395 0.0
H1728 H 0.71669 0.07664 0.62224 0.0
H1729 H 0.73362 0.09324 0.59574 0.0
H1730 H 0.76592 0.07909 0.61033 0.0
H1731 H 0.74912 0.06253 0.63686 0.0
H1732 H 0.7785 0.1115 0.6066 0.0
H1733 H 0.74216 0.079 0.5408 0.0
H1734 H 0.73311 0.08399 0.56025 0.0
H1735 H 0.73957 0.07093 0.5658 0.0
C1736 C 0.72736 0.077 0.61971 0.0
C1737 C 0.73154 0.06822 0.63154 0.0
C1738 C 0.737 0.08647 0.60457 0.0
C1739 C 0.75096 0.08729 0.601 0.0
C1740 C 0.75518 0.07859 0.61285 0.0
H1741 H 0.82614 0.13041 0.5192 0.0
H1742 H 0.81002 0.11948 0.54883 0.0
C1743 C 0.74554 0.0691 0.62793 0.0
C1744 C 0.76125 0.09725 0.58498 0.0
H1745 H 0.7647 0.10171 0.53368 0.0
C1746 C 0.7755 0.10941 0.59064 0.0
C1747 C 0.75724 0.09452 0.56422 0.0
C1748 C 0.74225 0.08135 0.55728 0.0
C1749 C 0.78588 0.11895 0.57605 0.0
C1750 C 0.78201 0.11602 0.55524 0.0
C1751 C 0.76765 0.10399 0.54964 0.0
C1752 C 0.79287 0.1247 0.53889 0.0
C1753 C 0.80082 0.13213 0.58308 0.0
C1754 C 0.7887 0.13141 0.52349 0.0
C1755 C 0.79788 0.13759 0.50648 0.0
C1756 C 0.81139 0.13716 0.50451 0.0
C1757 C 0.81594 0.13116 0.52044 0.0
C1758 C 0.80672 0.1249 0.5374 0.0
H1759 H 0.80006 0.1357 0.59876 0.0
H1760 H 0.80955 0.12868 0.58309 0.0
H1761 H 0.80464 0.14202 0.57288 0.0
H1762 H 0.77807 0.13136 0.52429 0.0
H1763 H 0.79411 0.14218 0.49446 0.0
H1764 H 0.95 0.6959 0.64339 0.0
H1765 H 0.93324 0.69568 0.61656 0.0
H1766 H 0.93137 0.6561 0.5899 0.0
H1767 H 0.94826 0.65629 0.61667 0.0
H1768 H 0.9373 0.67918 0.56208 0.0
H1769 H 0.8874 0.66608 0.60951 0.0
H1770 H 0.90492 0.68188 0.61845 0.0
H1771 H 0.90261 0.66321 0.61819 0.0
C1772 C 0.946 0.68712 0.63184 0.0
C1773 C 0.95043 0.67609 0.63214 0.0
C1774 C 0.93633 0.68695 0.61662 0.0
C1775 C 0.93085 0.67572 0.60145 0.0
C1776 C 0.93538 0.66479 0.60157 0.0
H1777 H 0.86323 0.65627 0.50708 0.0
H1778 H 0.87634 0.65523 0.53779 0.0
C1779 C 0.94503 0.66492 0.61684 0.0
C1780 C 0.92094 0.6758 0.58497 0.0
H1781 H 0.88695 0.67377 0.57553 0.0
C1782 C 0.92627 0.67792 0.565 0.0
C1783 C 0.90648 0.67401 0.58882 0.0
C1784 C 0.89991 0.67103 0.60987 0.0
C1785 C 0.91768 0.67867 0.54882 0.0
C1786 C 0.90347 0.67742 0.55275 0.0
C1787 C 0.89794 0.67491 0.57263 0.0
C1788 C 0.89427 0.67866 0.53621 0.0
C1789 C 0.92385 0.68069 0.52759 0.0
C1790 C 0.89965 0.69235 0.52577 0.0
C1791 C 0.89215 0.693 0.50835 0.0
C1792 C 0.87913 0.67997 0.50106 0.0
C1793 C 0.87316 0.66653 0.51239 0.0
C1794 C 0.88068 0.66589 0.52986 0.0
H1795 H 0.93321 0.67812 0.5266 0.0
H1796 H 0.91476 0.67327 0.5167 0.0
H1797 H 0.92834 0.69263 0.5229 0.0
H1798 H 0.90999 0.70239 0.53065 0.0
H1799 H 0.8969 0.70356 0.50009 0.0
H1800 H 0.96692 0.69711 0.74001 0.0
H1801 H 0.95036 0.69709 0.76683 0.0
H1802 H 0.91513 0.65275 0.74739 0.0
H1803 H 0.93153 0.65277 0.7204 0.0
H1804 H 0.90489 0.6735 0.75438 0.0
H1805 H 0.93933 0.67202 0.819 0.0
H1806 H 0.94952 0.68712 0.80132 0.0
H1807 H 0.94202 0.66778 0.79328 0.0
C1808 C 0.95568 0.68733 0.74152 0.0
C1809 C 0.95055 0.6749 0.72818 0.0
C1810 C 0.94625 0.68732 0.75687 0.0
C1811 C 0.93159 0.67484 0.75923 0.0
C1812 C 0.92642 0.66247 0.74585 0.0
H1813 H 0.85734 0.64595 0.84261 0.0
H1814 H 0.87294 0.65011 0.81263 0.0
C1815 C 0.93582 0.66248 0.73049 0.0
C1816 C 0.92158 0.67466 0.77559 0.0
H1817 H 0.91826 0.67471 0.82704 0.0
C1818 C 0.90779 0.67377 0.77028 0.0
C1819 C 0.92543 0.67505 0.7963 0.0
C1820 C 0.93981 0.67541 0.8029 0.0
C1821 C 0.89777 0.67334 0.78517 0.0
C1822 C 0.90155 0.67357 0.80588 0.0
C1823 C 0.91542 0.67462 0.81115 0.0
C1824 C 0.89111 0.67209 0.82244 0.0
C1825 C 0.88332 0.67282 0.77861 0.0
C1826 C 0.89605 0.68313 0.83783 0.0
C1827 C 0.88717 0.68077 0.855 0.0
C1828 C 0.8732 0.66727 0.85715 0.0
C1829 C 0.86793 0.65657 0.84125 0.0
C1830 C 0.87685 0.65893 0.8241 0.0
H1831 H 0.88418 0.67716 0.76295 0.0
H1832 H 0.87387 0.6609 0.77881 0.0
H1833 H 0.88044 0.67957 0.78903 0.0
H1834 H 0.90703 0.69336 0.83687 0.0
H1835 H 0.89148 0.68925 0.86695 0.0
H1836 H 0.3283 0.28286 0.7468 0.0
H1837 H 0.33043 0.26733 0.77347 0.0
H1838 H 0.35627 0.25554 0.73336 0.0
H1839 H 0.35449 0.2713 0.70683 0.0
H1840 H 0.32187 0.23672 0.77523 0.0
H1841 H 0.38441 0.27361 0.78222 0.0
H1842 H 0.37279 0.27922 0.76823 0.0
H1843 H 0.37772 0.26613 0.75722 0.0
C1844 C 0.3344 0.27693 0.74366 0.0
C1845 C 0.34138 0.27843 0.72483 0.0
C1846 C 0.33556 0.26802 0.75888 0.0
C1847 C 0.34371 0.26048 0.7555 0.0
C1848 C 0.3502 0.26152 0.73644 0.0
H1849 H 0.34518 0.19763 0.84702 0.0
H1850 H 0.34181 0.20729 0.81437 0.0
C1851 C 0.34913 0.27049 0.72128 0.0
C1852 C 0.34586 0.252 0.77219 0.0
H1853 H 0.37296 0.25184 0.80265 0.0
C1854 C 0.33303 0.23993 0.78116 0.0
C1855 C 0.36046 0.25629 0.77995 0.0
C1856 C 0.37464 0.26959 0.77156 0.0
C1857 C 0.33438 0.23223 0.79798 0.0
C1858 C 0.34897 0.23661 0.80579 0.0
C1859 C 0.3618 0.24842 0.79649 0.0
C1860 C 0.35116 0.23042 0.82502 0.0
C1861 C 0.32019 0.21996 0.80781 0.0
C1862 C 0.35789 0.24027 0.84155 0.0
C1863 C 0.35992 0.23486 0.85996 0.0
C1864 C 0.35522 0.21942 0.86236 0.0
C1865 C 0.34881 0.20956 0.84564 0.0
C1866 C 0.34678 0.21503 0.82708 0.0
H1867 H 0.30982 0.21974 0.80205 0.0
H1868 H 0.3191 0.20877 0.80457 0.0
H1869 H 0.32081 0.22156 0.82452 0.0
H1870 H 0.36147 0.2522 0.84027 0.0
H1871 H 0.36526 0.24284 0.87235 0.0
H1872 H 0.7341 0.09069 0.7154 0.0
H1873 H 0.75106 0.10718 0.74227 0.0
H1874 H 0.75037 0.06868 0.77029 0.0
H1875 H 0.73325 0.05207 0.74356 0.0
H1876 H 0.74549 0.08669 0.79733 0.0
H1877 H 0.79627 0.12172 0.75039 0.0
H1878 H 0.77924 0.1209 0.74128 0.0
H1879 H 0.78053 0.10396 0.74154 0.0
C1880 C 0.73758 0.08574 0.72726 0.0
C1881 C 0.73236 0.07009 0.72737 0.0
C1882 C 0.74737 0.0952 0.74251 0.0
C1883 C 0.75218 0.0892 0.75807 0.0
C1884 C 0.74688 0.07355 0.75832 0.0
H1885 H 0.82077 0.13464 0.8518 0.0
H1886 H 0.80706 0.12139 0.82082 0.0
C1887 C 0.73709 0.06408 0.74307 0.0
C1888 C 0.76222 0.09911 0.77459 0.0
H1889 H 0.79705 0.13002 0.7844 0.0
C1890 C 0.75677 0.09613 0.79451 0.0
C1891 C 0.777 0.11134 0.77088 0.0
C1892 C 0.7837 0.11463 0.7499 0.0
C1893 C 0.7656 0.10519 0.8108 0.0
C1894 C 0.78019 0.11771 0.80703 0.0
C1895 C 0.78578 0.12054 0.78718 0.0
C1896 C 0.78981 0.1277 0.82375 0.0
C1897 C 0.75932 0.10115 0.83198 0.0
C1898 C 0.78505 0.13622 0.83505 0.0
C1899 C 0.79287 0.14382 0.85266 0.0
C1900 C 0.80564 0.1431 0.85923 0.0
C1901 C 0.81104 0.1355 0.84705 0.0
C1902 C 0.80318 0.12785 0.82942 0.0
H1903 H 0.7496 0.08936 0.8328 0.0
H1904 H 0.76821 0.10239 0.8429 0.0
H1905 H 0.75527 0.10895 0.8368 0.0
H1906 H 0.77491 0.13646 0.83069 0.0
H1907 H 0.78856 0.14975 0.86162 0.0
H1908 H 0.06242 0.38502 0.01038 0.0
H1909 H 0.08286 0.38 0.01948 0.0
H1910 H 0.0514 0.34147 0.05466 0.0
H1911 H 0.03096 0.34637 0.04563 0.0
H1912 H 0.09311 0.3791 0.05916 0.0
H1913 H 0.07253 0.32431 0.01914 0.0
H1914 H 0.0657 0.33714 0.01319 0.0
H1915 H 0.05835 0.32477 0.03468 0.0
C1916 C 0.05985 0.37541 0.01993 0.0
C1917 C 0.04507 0.36607 0.02727 0.0
C1918 C 0.07153 0.37257 0.0251 0.0
C1919 C 0.0686 0.36022 0.03747 0.0
C1920 C 0.05385 0.35086 0.04474 0.0
H1921 H 0.10793 0.32218 0.11024 0.0
H1922 H 0.093 0.32845 0.08743 0.0
C1923 C 0.0422 0.35375 0.03969 0.0
C1924 C 0.08104 0.35754 0.04383 0.0
H1925 H 0.091 0.33019 0.04555 0.0
C1926 C 0.09286 0.36854 0.05588 0.0
C1927 C 0.0807 0.34378 0.03942 0.0
C1928 C 0.06872 0.33188 0.02573 0.0
C1929 C 0.10377 0.36573 0.0648 0.0
C1930 C 0.10298 0.35165 0.06121 0.0
C1931 C 0.09162 0.34098 0.04827 0.0
C1932 C 0.11243 0.34697 0.07292 0.0
C1933 C 0.11543 0.37747 0.07902 0.0
C1934 C 0.12837 0.35495 0.07184 0.0
C1935 C 0.13698 0.35136 0.08498 0.0
C1936 C 0.12973 0.33979 0.09934 0.0
C1937 C 0.1138 0.33127 0.09946 0.0
C1938 C 0.10526 0.33481 0.08639 0.0
H1939 H 0.11293 0.38663 0.0827 0.0
H1940 H 0.11602 0.37212 0.09338 0.0
H1941 H 0.12676 0.38271 0.07183 0.0
H1942 H 0.13413 0.3642 0.06128 0.0
H1943 H 0.14924 0.35807 0.0846 0.0
H1944 H 0.66578 0.69045 0.05448 0.0
H1945 H 0.66835 0.71476 0.06438 0.0
H1946 H 0.63638 0.70977 0.01765 0.0
H1947 H 0.63401 0.68553 0.00733 0.0
H1948 H 0.66084 0.73891 0.01978 0.0
H1949 H 0.63668 0.71906 0.09605 0.0
H1950 H 0.65258 0.71654 0.09123 0.0
H1951 H 0.63552 0.70624 0.07629 0.0
C1952 C 0.65931 0.69452 0.04629 0.0
C1953 C 0.64959 0.68602 0.03025 0.0
C1954 C 0.66073 0.70839 0.05202 0.0
C1955 C 0.65232 0.71394 0.04202 0.0
C1956 C 0.6429 0.70566 0.02565 0.0
H1957 H 0.64528 0.78566 0.10342 0.0
H1958 H 0.63822 0.76303 0.08277 0.0
C1959 C 0.64154 0.69181 0.01982 0.0
C1960 C 0.65328 0.72829 0.04888 0.0
H1961 H 0.64955 0.74578 0.09079 0.0
C1962 C 0.65823 0.7404 0.03525 0.0
C1963 C 0.64955 0.73012 0.06892 0.0
C1964 C 0.64313 0.71725 0.08391 0.0
C1965 C 0.66013 0.75449 0.04138 0.0
C1966 C 0.65729 0.75659 0.06179 0.0
C1967 C 0.65181 0.74427 0.07516 0.0
C1968 C 0.66061 0.77153 0.07015 0.0
C1969 C 0.66511 0.76693 0.02592 0.0
C1970 C 0.67535 0.78414 0.06922 0.0
C1971 C 0.67928 0.7972 0.08067 0.0
C1972 C 0.66861 0.79774 0.0935 0.0
C1973 C 0.65364 0.78555 0.09344 0.0
C1974 C 0.64965 0.7726 0.08177 0.0
H1975 H 0.6616 0.76219 0.01036 0.0
H1976 H 0.66034 0.7744 0.02919 0.0
H1977 H 0.67767 0.77393 0.02619 0.0
H1978 H 0.68412 0.78351 0.06084 0.0
H1979 H 0.69097 0.80634 0.08084 0.0
H1980 H 0.33063 0.98002 0.05726 0.0
H1981 H 0.30649 0.9577 0.06619 0.0
H1982 H 0.30251 0.93958 0.00588 0.0
H1983 H 0.32676 0.96195 0.99677 0.0
H1984 H 0.27457 0.93776 0.0234 0.0
H1985 H 0.30236 0.91471 0.07292 0.0
H1986 H 0.30808 0.93426 0.07758 0.0
H1987 H 0.31253 0.92883 0.05379 0.0
C1988 C 0.32459 0.97134 0.04584 0.0
C1989 C 0.33064 0.9727 0.02634 0.0
C1990 C 0.31082 0.95859 0.05098 0.0
C1991 C 0.30282 0.94695 0.03675 0.0
C1992 C 0.30856 0.94844 0.01708 0.0
H1993 H 0.23247 0.85978 0.0825 0.0
H1994 H 0.25187 0.87802 0.05968 0.0
C1995 C 0.32241 0.9612 0.01193 0.0
C1996 C 0.28873 0.93304 0.0428 0.0
H1997 H 0.27563 0.90341 0.07568 0.0
C1998 C 0.27476 0.93012 0.03465 0.0
C1999 C 0.28906 0.92298 0.05722 0.0
C2000 C 0.30381 0.92522 0.0658 0.0
C2001 C 0.26103 0.91775 0.0413 0.0
C2002 C 0.26132 0.90817 0.05657 0.0
C2003 C 0.27537 0.91075 0.06399 0.0
C2004 C 0.24735 0.89618 0.06639 0.0
C2005 C 0.24634 0.91512 0.03205 0.0
C2006 C 0.23795 0.90011 0.07712 0.0
C2007 C 0.22678 0.88966 0.09004 0.0
C2008 C 0.22489 0.87512 0.09262 0.0
C2009 C 0.23351 0.87082 0.08067 0.0
C2010 C 0.2447 0.88129 0.06775 0.0
H2011 H 0.24811 0.91997 0.01657 0.0
H2012 H 0.23781 0.90284 0.0312 0.0
H2013 H 0.24168 0.9208 0.04157 0.0
H2014 H 0.23992 0.91158 0.07664 0.0
H2015 H 0.22029 0.89328 0.09903 0.0
H2016 H 0.36029 0.03862 0.96898 0.0
H2017 H 0.3581 0.06074 0.96024 0.0
H2018 H 0.37021 0.07756 0.02153 0.0
H2019 H 0.37245 0.05538 0.03045 0.0
H2020 H 0.3444 0.07915 0.00301 0.0
H2021 H 0.3963 0.10425 0.95585 0.0
H2022 H 0.38282 0.08475 0.95012 0.0
H2023 H 0.39219 0.08972 0.97441 0.0
C2024 C 0.36242 0.04697 0.98064 0.0
C2025 C 0.36664 0.04531 0.00037 0.0
C2026 C 0.36119 0.05962 0.97561 0.0
C2027 C 0.36416 0.07085 0.99019 0.0
C2028 C 0.36793 0.06903 0.01006 0.0
H2029 H 0.38031 0.15831 0.94687 0.0
H2030 H 0.38136 0.13979 0.96931 0.0
C2031 C 0.36922 0.05638 0.0151 0.0
C2032 C 0.36376 0.08468 0.98435 0.0
H2033 H 0.38045 0.11504 0.9527 0.0
C2034 C 0.35237 0.08712 0.99219 0.0
C2035 C 0.37431 0.09517 0.97051 0.0
C2036 C 0.3872 0.09347 0.96233 0.0
C2037 C 0.35085 0.09945 0.98577 0.0
C2038 C 0.36092 0.10948 0.97106 0.0
C2039 C 0.37271 0.10736 0.96395 0.0
C2040 C 0.35889 0.12152 0.96148 0.0
C2041 C 0.33844 0.10156 0.99469 0.0
C2042 C 0.34567 0.1176 0.95026 0.0
C2043 C 0.34499 0.12821 0.93757 0.0
C2044 C 0.35759 0.1429 0.9357 0.0
C2045 C 0.37035 0.14715 0.94814 0.0
C2046 C 0.37102 0.13653 0.96085 0.0
H2047 H 0.33514 0.09636 0.00994 0.0
H2048 H 0.34196 0.11376 0.99592 0.0
H2049 H 0.32826 0.09591 0.98471 0.0
H2050 H 0.33626 0.10606 0.95019 0.0
H2051 H 0.33499 0.12462 0.92819 0.0
H2052 H 0.98288 0.33087 0.96941 0.0
H2053 H 0.96114 0.3064 0.9597 0.0
H2054 H 0.9384 0.30593 0.01491 0.0
H2055 H 0.96035 0.3303 0.02498 0.0
H2056 H 0.93502 0.27814 0.00657 0.0
H2057 H 0.92132 0.30042 0.93825 0.0
H2058 H 0.94049 0.30415 0.93804 0.0
H2059 H 0.93464 0.31268 0.95729 0.0
C2060 C 0.97326 0.32557 0.97949 0.0
C2061 C 0.97327 0.33258 0.99787 0.0
C2062 C 0.9608 0.31161 0.97388 0.0
C2063 C 0.94799 0.30447 0.98636 0.0
C2064 C 0.94811 0.31127 0.00497 0.0
H2065 H 0.8658 0.23206 0.9304 0.0
H2066 H 0.88248 0.25422 0.95135 0.0
C2067 C 0.96064 0.32521 0.01068 0.0
C2068 C 0.93449 0.28997 0.97985 0.0
H2069 H 0.90964 0.27349 0.94044 0.0
C2070 C 0.92934 0.27713 0.99221 0.0
C2071 C 0.92685 0.28871 0.96135 0.0
C2072 C 0.931 0.30227 0.94808 0.0
C2073 C 0.91716 0.26295 0.98616 0.0
C2074 C 0.91017 0.2615 0.96702 0.0
C2075 C 0.91499 0.27449 0.95506 0.0
C2076 C 0.89838 0.24664 0.95842 0.0
C2077 C 0.91189 0.24973 0.0004 0.0
C2078 C 0.90135 0.23466 0.9561 0.0
C2079 C 0.89159 0.22182 0.94457 0.0
C2080 C 0.87887 0.22089 0.93487 0.0
C2081 C 0.87543 0.23245 0.93805 0.0
C2082 C 0.88503 0.24515 0.94986 0.0
H2083 H 0.91431 0.25363 0.01645 0.0
H2084 H 0.89954 0.24164 0.99869 0.0
H2085 H 0.91812 0.24364 0.99709 0.0
H2086 H 0.91174 0.23564 0.962 0.0
H2087 H 0.89466 0.21322 0.94187 0.0
H2088 H 0.69357 0.673 0.98248 0.0
H2089 H 0.71807 0.67697 0.97097 0.0
H2090 H 0.70929 0.63557 0.00018 0.0
H2091 H 0.68496 0.63181 0.01233 0.0
H2092 H 0.7387 0.65783 0.00534 0.0
H2093 H 0.72228 0.65385 0.92431 0.0
H2094 H 0.72107 0.66855 0.93766 0.0
H2095 H 0.70879 0.64904 0.94451 0.0
C2096 C 0.69689 0.66478 0.98651 0.0
C2097 C 0.68728 0.65201 0.99813 0.0
C2098 C 0.71086 0.66702 0.97985 0.0
C2099 C 0.71538 0.65639 0.98431 0.0
C2100 C 0.70601 0.64388 0.99645 0.0
H2101 H 0.78489 0.64025 0.93679 0.0
H2102 H 0.76516 0.63978 0.95833 0.0
C2103 C 0.6921 0.64172 0.00334 0.0
C2104 C 0.72964 0.6581 0.97584 0.0
H2105 H 0.74801 0.6616 0.93127 0.0
C2106 C 0.74072 0.65861 0.98915 0.0
C2107 C 0.73222 0.65897 0.95468 0.0
C2108 C 0.7204 0.65742 0.93945 0.0
C2109 C 0.75441 0.66026 0.98183 0.0
C2110 C 0.75705 0.66144 0.96075 0.0
C2111 C 0.74599 0.66087 0.94748 0.0
C2112 C 0.77099 0.66285 0.9518 0.0
C2113 C 0.76607 0.6609 0.99658 0.0
C2114 C 0.78112 0.67615 0.94161 0.0
C2115 C 0.79249 0.67651 0.92947 0.0
C2116 C 0.79378 0.66348 0.92704 0.0
C2117 C 0.78433 0.65053 0.9385 0.0
C2118 C 0.77299 0.65021 0.95076 0.0
H2119 H 0.76328 0.66201 0.01253 0.0
H2120 H 0.76666 0.65036 0.99515 0.0
H2121 H 0.77746 0.6706 0.99299 0.0
H2122 H 0.77973 0.686 0.94221 0.0
H2123 H 0.79969 0.68671 0.92099 0.0
H2124 H 0.95942 0.64052 0.02847 0.0
H2125 H 0.93716 0.64242 0.01864 0.0
H2126 H 0.95712 0.65976 0.96029 0.0
H2127 H 0.97933 0.65791 0.96994 0.0
H2128 H 0.93546 0.66903 0.00334 0.0
H2129 H 0.91473 0.62108 0.94864 0.0
H2130 H 0.92827 0.62419 0.96851 0.0
H2131 H 0.93433 0.63533 0.94582 0.0
C2132 C 0.95909 0.64481 0.01359 0.0
C2133 C 0.97108 0.64898 -8e-05 0.0
C2134 C 0.94639 0.64592 0.00803 0.0
C2135 C 0.94545 0.65107 0.98868 0.0
C2136 C 0.95757 0.65559 0.97522 0.0
H2137 H 0.89352 0.68278 0.92737 0.0
H2138 H 0.91116 0.68021 0.94995 0.0
C2139 C 0.97027 0.65456 0.98078 0.0
C2140 C 0.93167 0.65136 0.98212 0.0
H2141 H 0.90336 0.63648 0.94662 0.0
C2142 C 0.9283 0.66181 0.99111 0.0
C2143 C 0.92224 0.64175 0.96641 0.0
C2144 C 0.92495 0.62984 0.95686 0.0
C2145 C 0.91611 0.66339 0.98407 0.0
C2146 C 0.90721 0.65437 0.96754 0.0
C2147 C 0.9102 0.64343 0.95925 0.0
C2148 C 0.89554 0.65676 0.95741 0.0
C2149 C 0.91297 0.67478 0.99426 0.0
C2150 C 0.88076 0.64454 0.95436 0.0
C2151 C 0.87067 0.64596 0.94131 0.0
C2152 C 0.87526 0.6596 0.93092 0.0
C2153 C 0.88969 0.67212 0.93512 0.0
C2154 C 0.89975 0.6707 0.94816 0.0
H2155 H 0.9172 0.67699 0.01017 0.0
H2156 H 0.91894 0.68568 0.98597 0.0
H2157 H 0.90065 0.67087 0.9942 0.0
H2158 H 0.87729 0.63366 0.96126 0.0
H2159 H 0.85972 0.63606 0.93823 0.0
H2160 H 0.37291 0.32884 0.032 0.0
H2161 H 0.37086 0.30456 0.02255 0.0
H2162 H 0.35829 0.30925 0.96164 0.0
H2163 H 0.36035 0.33348 0.97089 0.0
H2164 H 0.34557 0.2772 0.00494 0.0
H2165 H 0.39602 0.30404 0.9552 0.0
H2166 H 0.39209 0.31464 0.97381 0.0
H2167 H 0.38217 0.30958 0.9499 0.0
C2168 C 0.36965 0.32466 0.01661 0.0
C2169 C 0.36689 0.33312 0.00214 0.0
C2170 C 0.36845 0.31078 0.01127 0.0
C2171 C 0.36462 0.30522 0.99135 0.0
C2172 C 0.36148 0.31346 0.97703 0.0
H2173 H 0.3346 0.22105 0.93071 0.0
H2174 H 0.33626 0.24126 0.9525 0.0
C2175 C 0.36262 0.32728 0.98236 0.0
C2176 C 0.36423 0.29101 0.98524 0.0
H2177 H 0.38027 0.27728 0.95241 0.0
C2178 C 0.35324 0.27719 0.99361 0.0
C2179 C 0.37442 0.29106 0.97074 0.0
C2180 C 0.38695 0.30563 0.962 0.0
C2181 C 0.35176 0.26333 0.98715 0.0
C2182 C 0.36143 0.26334 0.97182 0.0
C2183 C 0.37282 0.27724 0.96413 0.0
C2184 C 0.35936 0.24918 0.96229 0.0
C2185 C 0.33982 0.24883 0.99673 0.0
C2186 C 0.37165 0.24662 0.96088 0.0
C2187 C 0.37076 0.23512 0.94827 0.0
C2188 C 0.35759 0.22606 0.93671 0.0
C2189 C 0.34491 0.22789 0.93939 0.0
C2190 C 0.34582 0.23938 0.95197 0.0
H2191 H 0.33699 0.25092 0.01222 0.0
H2192 H 0.3293 0.24397 0.98739 0.0
H2193 H 0.34357 0.24033 0.99764 0.0
H2194 H 0.38224 0.25408 0.96864 0.0
H2195 H 0.38078 0.23414 0.94637 0.0
H2196 H 0.68704 0.05785 0.0209 0.0
H2197 H 0.711 0.07998 0.01054 0.0
H2198 H 0.71407 0.05416 0.96073 0.0
H2199 H 0.69001 0.03217 0.97068 0.0
H2200 H 0.74 0.08487 0.00597 0.0
H2201 H 0.71731 0.09084 0.93229 0.0
H2202 H 0.70523 0.07864 0.95207 0.0
H2203 H 0.715 0.07233 0.93554 0.0
C2204 C 0.69284 0.0569 0.00775 0.0
C2205 C 0.68656 0.04333 0.99646 0.0
C2206 C 0.70654 0.06954 0.00188 0.0
C2207 C 0.71418 0.06882 0.98463 0.0
C2208 C 0.70819 0.0551 0.97379 0.0
H2209 H 0.80549 0.12551 0.94294 0.0
H2210 H 0.78332 0.10819 0.96285 0.0
C2211 C 0.69447 0.04252 0.97955 0.0
C2212 C 0.72829 0.08243 0.97771 0.0
H2213 H 0.74417 0.10485 0.93642 0.0
C2214 C 0.7409 0.08936 0.99083 0.0
C2215 C 0.72937 0.08848 0.95811 0.0
C2216 C 0.71596 0.08229 0.94376 0.0
C2217 C 0.75472 0.10182 0.9846 0.0
C2218 C 0.75604 0.10731 0.96458 0.0
C2219 C 0.74325 0.10066 0.95174 0.0
C2220 C 0.77059 0.11947 0.95609 0.0
C2221 C 0.76771 0.10903 -0.00042 0.0
C2222 C 0.77102 0.13176 0.9459 0.0
C2223 C 0.78359 0.1415 0.93427 0.0
C2224 C 0.79606 0.13924 0.93281 0.0
C2225 C 0.79614 0.12767 0.94419 0.0
C2226 C 0.78346 0.11777 0.95559 0.0
H2227 H 0.76354 0.1072 0.01544 0.0
H2228 H 0.77487 0.10373 0.99791 0.0
H2229 H 0.77489 0.1214 0.99699 0.0
H2230 H 0.76126 0.13332 0.94601 0.0
H2231 H 0.78322 0.15026 0.92546 0.0
H2232 H 0.67099 0.98405 0.04567 0.0
H2233 H 0.67453 0.9629 0.05541 0.0
H2234 H 0.63776 0.93306 0.01558 0.0
H2235 H 0.63443 0.95428 0.00536 0.0
H2236 H 0.65451 0.93769 0.07438 0.0
H2237 H 0.66947 0.92188 0.00113 0.0
H2238 H 0.66956 0.93948 0.00481 0.0
H2239 H 0.65199 0.92214 0.00029 0.0
C2240 C 0.66378 0.97302 0.03879 0.0
C2241 C 0.65244 0.97083 0.02474 0.0
C2242 C 0.66581 0.96094 0.04437 0.0
C2243 C 0.65654 0.94641 0.03605 0.0
C2244 C 0.6453 0.94422 0.02185 0.0
H2245 H 0.64616 0.86783 0.10129 0.0
H2246 H 0.64036 0.88417 0.08044 0.0
C2247 C 0.64333 0.95634 0.01614 0.0
C2248 C 0.65799 0.93342 0.04345 0.0
H2249 H 0.66435 0.9049 0.02861 0.0
C2250 C 0.65667 0.93054 0.06435 0.0
C2251 C 0.66093 0.92415 0.03038 0.0
C2252 C 0.66322 0.92713 0.00793 0.0
C2253 C 0.65823 0.91873 0.07257 0.0
C2254 C 0.66074 0.90917 0.05948 0.0
C2255 C 0.66215 0.91206 0.03857 0.0
C2256 C 0.66284 0.89678 0.06764 0.0
C2257 C 0.65764 0.91691 0.09534 0.0
C2258 C 0.67696 0.8976 0.06599 0.0
C2259 C 0.68017 0.88804 0.07755 0.0
C2260 C 0.6693 0.87759 0.09094 0.0
C2261 C 0.6547 0.87578 0.09102 0.0
C2262 C 0.65144 0.8852 0.07929 0.0
H2263 H 0.65939 0.92729 0.10332 0.0
H2264 H 0.64633 0.90742 0.09965 0.0
H2265 H 0.66638 0.91426 0.10075 0.0
H2266 H 0.68589 0.90641 0.05701 0.0
H2267 H 0.69156 0.88977 0.07742 0.0
H2268 H 0.03532 0.6865 0.05765 0.0
H2269 H 0.05711 0.71108 0.06689 0.0
H2270 H 0.07617 0.71445 0.00761 0.0
H2271 H 0.05428 0.68985 0.99815 0.0
H2272 H 0.08729 0.7175 0.06732 0.0
H2273 H 0.07962 0.75637 0.01604 0.0
H2274 H 0.06444 0.73745 0.0216 0.0
H2275 H 0.07907 0.74019 0.00419 0.0
C2276 C 0.04406 0.69253 0.04649 0.0
C2277 C 0.04309 0.68623 0.02718 0.0
C2278 C 0.0565 0.70658 0.05179 0.0
C2279 C 0.06819 0.71466 0.03788 0.0
C2280 C 0.06716 0.70853 0.01846 0.0
H2281 H 0.1566 0.78524 0.08268 0.0
H2282 H 0.13761 0.76531 0.06065 0.0
C2283 C 0.05469 0.69444 0.01313 0.0
C2284 C 0.08185 0.72897 0.04434 0.0
H2285 H 0.10181 0.76725 0.03648 0.0
C2286 C 0.09053 0.72836 0.06049 0.0
C2287 C 0.08598 0.74313 0.03545 0.0
C2288 C 0.07676 0.74445 0.01845 0.0
C2289 C 0.10309 0.74153 0.06823 0.0
C2290 C 0.10728 0.75571 0.05933 0.0
C2291 C 0.09869 0.75634 0.04305 0.0
C2292 C 0.11971 0.76999 0.06813 0.0
C2293 C 0.11143 0.74021 0.08639 0.0
C2294 C 0.11623 0.7799 0.07845 0.0
C2295 C 0.1271 0.7914 0.09085 0.0
C2296 C 0.14164 0.79317 0.09315 0.0
C2297 C 0.14554 0.78423 0.08116 0.0
C2298 C 0.13465 0.77273 0.06873 0.0
H2299 H 0.10502 0.72895 0.09375 0.0
H2300 H 0.12253 0.74179 0.08148 0.0
H2301 H 0.11365 0.74912 0.09783 0.0
H2302 H 0.10479 0.77804 0.0781 0.0
H2303 H 0.12382 0.79822 0.09978 0.0
H2304 H 0.32591 0.35061 0.05312 0.0
H2305 H 0.30136 0.34705 0.06358 0.0
H2306 H 0.30613 0.38133 0.02127 0.0
H2307 H 0.33056 0.38468 0.01038 0.0
H2308 H 0.29623 0.36776 0.08125 0.0
H2309 H 0.26298 0.34803 0.00968 0.0
H2310 H 0.28083 0.34859 0.01317 0.0
H2311 H 0.2805 0.36563 0.00731 0.0
C2312 C 0.32165 0.35726 0.04587 0.0
C2313 C 0.33016 0.36791 0.03091 0.0
C2314 C 0.30761 0.35522 0.05186 0.0
C2315 C 0.30177 0.36378 0.04305 0.0
C2316 C 0.3102 0.37434 0.02796 0.0
H2317 H 0.2344 0.37664 0.10661 0.0
H2318 H 0.25637 0.38117 0.08637 0.0
C2319 C 0.32422 0.37632 0.02185 0.0
C2320 C 0.28742 0.36235 0.05075 0.0
H2321 H 0.25173 0.35427 0.03686 0.0
C2322 C 0.28651 0.3648 0.07152 0.0
C2323 C 0.27468 0.35835 0.03809 0.0
C2324 C 0.27469 0.35485 0.01586 0.0
C2325 C 0.27327 0.36338 0.08 0.0
C2326 C 0.26067 0.35982 0.06728 0.0
C2327 C 0.26149 0.35725 0.04652 0.0
C2328 C 0.24635 0.35799 0.07568 0.0
C2329 C 0.27279 0.36531 0.10266 0.0
C2330 C 0.23303 0.34376 0.07514 0.0
C2331 C 0.22037 0.34123 0.08641 0.0
C2332 C 0.22088 0.35289 0.09843 0.0
C2333 C 0.23375 0.36745 0.09753 0.0
C2334 C 0.24633 0.37001 0.08612 0.0
H2335 H 0.28181 0.36423 0.11069 0.0
H2336 H 0.27457 0.37677 0.10599 0.0
H2337 H 0.26163 0.35679 0.10889 0.0
H2338 H 0.23277 0.33435 0.0671 0.0
H2339 H 0.21065 0.32986 0.08699 0.0
H2340 H 0.72161 0.70699 0.33249 0.0
H2341 H 0.74266 0.70286 0.3414 0.0
H2342 H 0.72697 0.69365 0.40313 0.0
H2343 H 0.70582 0.69746 0.39429 0.0
H2344 H 0.76588 0.71774 0.36875 0.0
H2345 H 0.73154 0.65734 0.38978 0.0
H2346 H 0.72365 0.66715 0.37618 0.0
H2347 H 0.72583 0.66891 0.40334 0.0
C2348 C 0.7226 0.70398 0.34793 0.0
C2349 C 0.71199 0.70245 0.36266 0.0
C2350 C 0.73465 0.70165 0.353 0.0
C2351 C 0.73625 0.69767 0.37285 0.0
C2352 C 0.72576 0.69632 0.3876 0.0
H2353 H 0.81063 0.7083 0.44349 0.0
H2354 H 0.79342 0.71218 0.42185 0.0
C2355 C 0.71372 0.6986 0.38255 0.0
C2356 C 0.7491 0.69536 0.37844 0.0
H2357 H 0.75725 0.67055 0.40212 0.0
C2358 C 0.76401 0.70734 0.37579 0.0
C2359 C 0.74671 0.68169 0.38719 0.0
C2360 C 0.73107 0.66799 0.38909 0.0
C2361 C 0.77654 0.70631 0.3827 0.0
C2362 C 0.77407 0.69306 0.39288 0.0
C2363 C 0.7592 0.68079 0.3945 0.0
C2364 C 0.78646 0.69205 0.40351 0.0
C2365 C 0.79227 0.71948 0.37913 0.0
C2366 C 0.78848 0.67954 0.40036 0.0
C2367 C 0.79821 0.67719 0.41296 0.0
C2368 C 0.80602 0.68727 0.42904 0.0
C2369 C 0.80473 0.7003 0.43129 0.0
C2370 C 0.79497 0.7026 0.41877 0.0
H2371 H 0.79258 0.72582 0.3653 0.0
H2372 H 0.79569 0.72745 0.39218 0.0
H2373 H 0.80069 0.71567 0.37752 0.0
H2374 H 0.78199 0.6712 0.38874 0.0
H2375 H 0.79881 0.66695 0.41096 0.0
H2376 H 0.30007 0.0171 0.34122 0.0
H2377 H 0.30316 0.04173 0.35085 0.0
H2378 H 0.3404 0.04997 0.3904 0.0
H2379 H 0.33716 0.02527 0.38119 0.0
H2380 H 0.31977 0.0547 0.40931 0.0
H2381 H 0.33471 0.08486 0.33576 0.0
H2382 H 0.31749 0.06681 0.33502 0.0
H2383 H 0.33527 0.06764 0.33985 0.0
C2384 C 0.30903 0.02424 0.3518 0.0
C2385 C 0.31836 0.01923 0.36049 0.0
C2386 C 0.31085 0.03837 0.35717 0.0
C2387 C 0.32215 0.04781 0.37115 0.0
C2388 C 0.33165 0.04291 0.37953 0.0
H2389 H 0.35471 0.13968 0.41255 0.0
H2390 H 0.35044 0.11744 0.39273 0.0
C2391 C 0.32978 0.02879 0.37426 0.0
C2392 C 0.32337 0.06222 0.37833 0.0
H2393 H 0.32933 0.09681 0.36301 0.0
C2394 C 0.32187 0.0639 0.39917 0.0
C2395 C 0.32625 0.07428 0.3651 0.0
C2396 C 0.32867 0.07342 0.34271 0.0
C2397 C 0.32312 0.07724 0.40717 0.0
C2398 C 0.32556 0.08914 0.39391 0.0
C2399 C 0.32721 0.08757 0.37307 0.0
C2400 C 0.32706 0.10348 0.40184 0.0
C2401 C 0.32217 0.07859 0.42986 0.0
C2402 C 0.31507 0.10328 0.41249 0.0
C2403 C 0.31751 0.11591 0.42384 0.0
C2404 C 0.33191 0.12903 0.42446 0.0
C2405 C 0.34347 0.12976 0.41215 0.0
C2406 C 0.34106 0.11704 0.40093 0.0
H2407 H 0.32395 0.07012 0.43811 0.0
H2408 H 0.33072 0.0901 0.43533 0.0
H2409 H 0.31075 0.07662 0.43379 0.0
H2410 H 0.3041 0.09301 0.41309 0.0
H2411 H 0.30842 0.1151 0.4332 0.0
H2412 H 0.99406 0.29427 0.33522 0.0
H2413 H 0.97018 0.27204 0.34564 0.0
H2414 H 0.97226 0.29418 0.40237 0.0
H2415 H 0.99609 0.31633 0.39216 0.0
H2416 H 0.96787 0.26462 0.40615 0.0
H2417 H 0.92702 0.26634 0.3515 0.0
H2418 H 0.94378 0.26747 0.34088 0.0
H2419 H 0.94547 0.28262 0.35666 0.0
C2420 C 0.98933 0.29446 0.34981 0.0
C2421 C 0.99696 0.30705 0.36288 0.0
C2422 C 0.97565 0.28178 0.3557 0.0
C2423 C 0.96939 0.28151 0.37471 0.0
C2424 C 0.97688 0.29417 0.3876 0.0
H2425 H 0.88662 0.22637 0.43698 0.0
H2426 H 0.90672 0.24484 0.41516 0.0
C2427 C 0.99049 0.30683 0.38174 0.0
C2428 C 0.95556 0.26776 0.38188 0.0
H2429 H 0.91731 0.2457 0.37417 0.0
C2430 C 0.95683 0.2604 0.39907 0.0
C2431 C 0.94118 0.26236 0.37265 0.0
C2432 C 0.93915 0.27013 0.35448 0.0
C2433 C 0.94409 0.24794 0.40753 0.0
C2434 C 0.92968 0.24252 0.39835 0.0
C2435 C 0.9284 0.24976 0.381 0.0
C2436 C 0.91575 0.23023 0.4078 0.0
C2437 C 0.94608 0.24105 0.42671 0.0
C2438 C 0.91368 0.21561 0.41003 0.0
C2439 C 0.9022 0.20503 0.42253 0.0
C2440 C 0.89263 0.20893 0.43299 0.0
C2441 C 0.89392 0.22311 0.42926 0.0
C2442 C 0.90537 0.23366 0.41676 0.0
H2443 H 0.95737 0.24833 0.4339 0.0
H2444 H 0.93717 0.23913 0.43787 0.0
H2445 H 0.945 0.22992 0.42308 0.0
H2446 H 0.92147 0.21269 0.40302 0.0
H2447 H 0.90156 0.19424 0.42518 0.0
H2448 H 0.03006 0.38432 0.36628 0.0
H2449 H 0.0259 0.40534 0.35752 0.0
H2450 H 0.03301 0.39969 0.2944 0.0
H2451 H 0.03652 0.37838 0.30296 0.0
H2452 H 0.04315 0.43205 0.34109 0.0
H2453 H 0.99408 0.39971 0.29018 0.0
H2454 H 1.00142 0.39053 0.30618 0.0
H2455 H 0.00981 0.39793 0.28183 0.0
C2456 C 0.03062 0.38752 0.35052 0.0
C2457 C 0.03344 0.3796 0.33527 0.0
C2458 C 0.02826 0.39954 0.34554 0.0
C2459 C 0.02876 0.4039 0.32523 0.0
C2460 C 0.03202 0.39624 0.31009 0.0
H2461 H 0.05024 0.48758 0.27123 0.0
H2462 H 0.04981 0.46825 0.29336 0.0
C2463 C 0.03415 0.38411 0.31502 0.0
C2464 C 0.02631 0.41667 0.31975 0.0
H2465 H 0.00783 0.42682 0.2856 0.0
C2466 C 0.03524 0.43086 0.32918 0.0
C2467 C 0.01568 0.4151 0.30467 0.0
C2468 C 0.00459 0.39994 0.29533 0.0
C2469 C 0.03448 0.44367 0.32308 0.0
C2470 C 0.0249 0.44239 0.30662 0.0
C2471 C 0.01535 0.42799 0.29804 0.0
C2472 C 0.02537 0.45579 0.29684 0.0
C2473 C 0.04396 0.4584 0.33439 0.0
C2474 C 0.01184 0.45547 0.29143 0.0
C2475 C 0.01209 0.46635 0.27832 0.0
C2476 C 0.0259 0.47794 0.27074 0.0
C2477 C 0.03949 0.47898 0.27735 0.0
C2478 C 0.03923 0.46791 0.29007 0.0
H2479 H 0.04536 0.45629 0.35056 0.0
H2480 H 0.05545 0.46452 0.32765 0.0
H2481 H 0.03886 0.46579 0.33371 0.0
H2482 H 1.00099 0.44626 0.29637 0.0
H2483 H 1.00146 0.4652 0.2731 0.0
H2484 H 0.64648 0.66773 0.30259 0.0
H2485 H 0.6253 0.64271 0.29362 0.0
H2486 H 0.6101 0.63591 0.35562 0.0
H2487 H 0.63115 0.66116 0.36463 0.0
H2488 H 0.61839 0.61486 0.30764 0.0
H2489 H 0.57158 0.62614 0.32466 0.0
H2490 H 0.59111 0.64109 0.32302 0.0
H2491 H 0.58448 0.62954 0.34532 0.0
C2492 C 0.63862 0.66094 0.31432 0.0
C2493 C 0.64045 0.66645 0.3343 0.0
C2494 C 0.62652 0.64662 0.30918 0.0
C2495 C 0.61598 0.63749 0.32387 0.0
C2496 C 0.61789 0.64287 0.34393 0.0
H2497 H 0.55417 0.54255 0.28741 0.0
H2498 H 0.57054 0.56405 0.30964 0.0
C2499 C 0.62998 0.65726 0.34908 0.0
C2500 C 0.60319 0.6223 0.31801 0.0
H2501 H 0.56458 0.6015 0.31335 0.0
C2502 C 0.60661 0.61187 0.30906 0.0
C2503 C 0.58783 0.61846 0.31978 0.0
C2504 C 0.58346 0.62941 0.32855 0.0
C2505 C 0.59517 0.59792 0.30125 0.0
C2506 C 0.57979 0.5941 0.30289 0.0
C2507 C 0.57634 0.60435 0.31235 0.0
C2508 C 0.56742 0.58043 0.29263 0.0
C2509 C 0.59974 0.5878 0.29033 0.0
C2510 C 0.55933 0.58226 0.27669 0.0
C2511 C 0.54979 0.56998 0.26425 0.0
C2512 C 0.54818 0.55561 0.26747 0.0
C2513 C 0.55516 0.55347 0.28458 0.0
C2514 C 0.56468 0.56579 0.29712 0.0
H2515 H 0.61204 0.5938 0.28684 0.0
H2516 H 0.59721 0.57795 0.30005 0.0
H2517 H 0.59328 0.58344 0.27591 0.0
H2518 H 0.56114 0.5934 0.27303 0.0
H2519 H 0.54442 0.57192 0.2513 0.0
H2520 H 0.35578 0.97128 0.36225 0.0
H2521 H 0.37991 0.97319 0.3528 0.0
H2522 H 0.37845 0.9926 0.29542 0.0
H2523 H 0.35448 0.99089 0.30483 0.0
H2524 H 0.38513 0.95937 0.32054 0.0
H2525 H 0.42161 0.02159 0.3148 0.0
H2526 H 0.40352 0.01278 0.32748 0.0
H2527 H 0.40441 0.01463 0.30031 0.0
C2528 C 0.36069 0.97611 0.34771 0.0
C2529 C 0.35325 0.98097 0.33429 0.0
C2530 C 0.37448 0.97719 0.34234 0.0
C2531 C 0.38113 0.98328 0.32355 0.0
C2532 C 0.37374 0.98821 0.3102 0.0
H2533 H 0.43422 0.96889 0.24044 0.0
H2534 H 0.41525 0.96774 0.26392 0.0
C2535 C 0.35997 0.98712 0.31554 0.0
C2536 C 0.39521 0.98354 0.31718 0.0
H2537 H 0.43017 0.00658 0.29693 0.0
C2538 C 0.39509 0.96973 0.31573 0.0
C2539 C 0.40834 0.99709 0.31127 0.0
C2540 C 0.40957 0.01238 0.31374 0.0
C2541 C 0.4073 0.96899 0.30723 0.0
C2542 C 0.41988 0.98236 0.29976 0.0
C2543 C 0.42046 0.99631 0.3025 0.0
C2544 C 0.43153 0.98187 0.28689 0.0
C2545 C 0.40646 0.95381 0.30582 0.0
C2546 C 0.44705 0.99025 0.29195 0.0
C2547 C 0.45796 0.99087 0.27847 0.0
C2548 C 0.45345 0.98334 0.25967 0.0
C2549 C 0.43794 0.97471 0.25491 0.0
C2550 C 0.4271 0.97399 0.26836 0.0
H2551 H 0.39908 0.94601 0.31783 0.0
H2552 H 0.40148 0.94851 0.29092 0.0
H2553 H 0.41789 0.95504 0.30713 0.0
H2554 H 0.4507 0.99653 0.3061 0.0
H2555 H 0.46989 0.9977 0.28231 0.0
H2556 H 0.65261 0.00432 0.32332 0.0
H2557 H 0.63122 0.00737 0.31307 0.0
H2558 H 0.60002 0.96205 0.33343 0.0
H2559 H 0.62141 0.95902 0.34409 0.0
H2560 H 0.61037 0.99025 0.28425 0.0
H2561 H 0.58124 0.98583 0.35689 0.0
H2562 H 0.60037 0.98913 0.35581 0.0
H2563 H 0.58448 0.97035 0.35202 0.0
C2564 C 0.64119 0.99507 0.32589 0.0
C2565 C 0.63869 0.98142 0.33449 0.0
C2566 C 0.62898 0.99684 0.32004 0.0
C2567 C 0.614 0.98502 0.3227 0.0
C2568 C 0.61145 0.97146 0.33165 0.0
H2569 H 0.52856 0.96718 0.27038 0.0
H2570 H 0.54787 0.96666 0.29214 0.0
C2571 C 0.62369 0.9697 0.33759 0.0
C2572 C 0.6012 0.98646 0.31438 0.0
H2573 H 0.56793 0.98505 0.32661 0.0
C2574 C 0.60117 0.98924 0.29357 0.0
C2575 C 0.58912 0.98502 0.32652 0.0
C2576 C 0.58881 0.98255 0.34909 0.0
C2577 C 0.58935 0.99044 0.28449 0.0
C2578 C 0.5773 0.98905 0.2966 0.0
C2579 C 0.57723 0.98619 0.31742 0.0
C2580 C 0.56461 0.99024 0.2875 0.0
C2581 C 0.58968 0.99285 0.26187 0.0
C2582 C 0.56735 0.00387 0.27865 0.0
C2583 C 0.55636 0.0042 0.26626 0.0
C2584 C 0.5424 0.99092 0.26262 0.0
C2585 C 0.53915 0.97762 0.27305 0.0
C2586 C 0.5502 0.97729 0.2854 0.0
H2587 H 0.59791 0.99042 0.2542 0.0
H2588 H 0.57828 0.98555 0.25502 0.0
H2589 H 0.59308 0.00485 0.25888 0.0
H2590 H 0.57834 0.01404 0.28031 0.0
H2591 H 0.55912 0.01462 0.25851 0.0
H2592 H 0.0247 0.66492 0.30542 0.0
H2593 H 0.02292 0.64088 0.296 0.0
H2594 H 0.04652 0.64201 0.35102 0.0
H2595 H 0.04849 0.66622 0.36048 0.0
H2596 H 0.05839 0.63605 0.31728 0.0
H2597 H 0.99613 0.59827 0.31796 0.0
H2598 H 1.00173 0.61488 0.30295 0.0
H2599 H 0.00542 0.61679 0.32984 0.0
C2600 C 0.02939 0.65999 0.31562 0.0
C2601 C 0.03672 0.66746 0.33371 0.0
C2602 C 0.02826 0.64618 0.31029 0.0
C2603 C 0.03435 0.63949 0.32297 0.0
C2604 C 0.04162 0.64689 0.34109 0.0
H2605 H 0.02057 0.55013 0.2839 0.0
H2606 H 0.02228 0.57001 0.30709 0.0
C2607 C 0.04274 0.66072 0.34647 0.0
C2608 C 0.03402 0.62535 0.3165 0.0
H2609 H 0.01031 0.5895 0.29861 0.0
C2610 C 0.04786 0.62578 0.31355 0.0
C2611 C 0.02029 0.61184 0.31197 0.0
C2612 C 0.00505 0.61034 0.31604 0.0
C2613 C 0.04837 0.61342 0.30494 0.0
C2614 C 0.03469 0.60038 0.2989 0.0
C2615 C 0.02081 0.59955 0.30309 0.0
C2616 C 0.03464 0.58838 0.28605 0.0
C2617 C 0.06357 0.6146 0.30185 0.0
C2618 C 0.04102 0.59215 0.26667 0.0
C2619 C 0.03998 0.58092 0.25354 0.0
C2620 C 0.0325 0.56564 0.25947 0.0
C2621 C 0.02645 0.56185 0.27907 0.0
C2622 C 0.02738 0.57315 0.29223 0.0
H2623 H 0.07216 0.6227 0.31281 0.0
H2624 H 0.06278 0.60339 0.3035 0.0
H2625 H 0.06763 0.61883 0.28634 0.0
H2626 H 0.04643 0.60375 0.26142 0.0
H2627 H 0.04478 0.58414 0.23852 0.0
H2628 H 0.35608 0.39336 0.35967 0.0
H2629 H 0.38141 0.41429 0.3511 0.0
H2630 H 0.38267 0.38886 0.29952 0.0
H2631 H 0.35747 0.36795 0.30797 0.0
H2632 H 0.40981 0.40275 0.32508 0.0
H2633 H 0.39092 0.4432 0.3017 0.0
H2634 H 0.385 0.43437 0.32611 0.0
H2635 H 0.37787 0.42306 0.30351 0.0
C2636 C 0.36177 0.39225 0.34651 0.0
C2637 C 0.35476 0.37903 0.33444 0.0
C2638 C 0.3762 0.40423 0.34161 0.0
C2639 C 0.38384 0.40317 0.32458 0.0
C2640 C 0.37695 0.38991 0.31271 0.0
H2641 H 0.45764 0.44677 0.24695 0.0
H2642 H 0.43704 0.43016 0.26933 0.0
C2643 C 0.36254 0.37798 0.31753 0.0
C2644 C 0.39898 0.41581 0.31884 0.0
H2645 H 0.41659 0.45086 0.2971 0.0
C2646 C 0.41135 0.41336 0.31923 0.0
C2647 C 0.40101 0.42971 0.31143 0.0
C2648 C 0.38803 0.43283 0.31049 0.0
C2649 C 0.42554 0.42418 0.31163 0.0
C2650 C 0.42733 0.43768 0.30303 0.0
C2651 C 0.4152 0.44052 0.3037 0.0
C2652 C 0.44082 0.44785 0.29079 0.0
C2653 C 0.43841 0.4209 0.31242 0.0
C2654 C 0.44978 0.46341 0.2953 0.0
C2655 C 0.46165 0.47301 0.28239 0.0
C2656 C 0.46446 0.46718 0.26464 0.0
C2657 C 0.45566 0.45157 0.26049 0.0
C2658 C 0.44397 0.44204 0.27336 0.0
H2659 H 0.43704 0.41326 0.32522 0.0
H2660 H 0.43846 0.4151 0.29817 0.0
H2661 H 0.44955 0.43149 0.31402 0.0
H2662 H 0.44744 0.46814 0.3086 0.0
H2663 H 0.46825 0.48502 0.28585 0.0
H2664 H 0.30131 0.29146 0.3384 0.0
H2665 H 0.3033 0.2694 0.34858 0.0
H2666 H 0.33629 0.29654 0.39438 0.0
H2667 H 0.33415 0.31851 0.38457 0.0
H2668 H 0.32761 0.26399 0.35071 0.0
H2669 H 0.30369 0.26144 0.42682 0.0
H2670 H 0.30281 0.27293 0.4067 0.0
H2671 H 0.31991 0.27958 0.42147 0.0
C2672 C 0.30903 0.29273 0.35059 0.0
C2673 C 0.31746 0.30667 0.36084 0.0
C2674 C 0.31017 0.28012 0.35636 0.0
C2675 C 0.31974 0.28125 0.37248 0.0
C2676 C 0.32859 0.29532 0.38219 0.0
H2677 H 0.35381 0.22381 0.41314 0.0
H2678 H 0.34874 0.24096 0.39308 0.0
C2679 C 0.3274 0.30789 0.37651 0.0
C2680 C 0.32019 0.26768 0.3796 0.0
H2681 H 0.31521 0.24639 0.42172 0.0
C2682 C 0.32478 0.26004 0.36618 0.0
C2683 C 0.31621 0.26233 0.39967 0.0
C2684 C 0.31023 0.26939 0.41445 0.0
C2685 C 0.326 0.24752 0.37253 0.0
C2686 C 0.32278 0.24269 0.39292 0.0
C2687 C 0.31775 0.25008 0.4061 0.0
C2688 C 0.32507 0.23047 0.40142 0.0
C2689 C 0.33063 0.23955 0.35731 0.0
C2690 C 0.31342 0.21864 0.41249 0.0
C2691 C 0.31637 0.20898 0.42415 0.0
C2692 C 0.331 0.21087 0.42483 0.0
C2693 C 0.34236 0.22193 0.41255 0.0
C2694 C 0.33946 0.23174 0.40107 0.0
H2695 H 0.3277 0.24112 0.34159 0.0
H2696 H 0.3431 0.24444 0.35813 0.0
H2697 H 0.32511 0.22721 0.36042 0.0
H2698 H 0.30224 0.21742 0.41302 0.0
H2699 H 0.30747 0.2006 0.43362 0.0
H2700 H 0.71533 0.02766 0.33426 0.0
H2701 H 0.7365 0.05224 0.34523 0.0
H2702 H 0.73475 0.03419 0.40488 0.0
H2703 H 0.71326 0.00985 0.39423 0.0
H2704 H 0.7368 0.06079 0.40761 0.0
H2705 H 0.78035 0.06529 0.35355 0.0
H2706 H 0.76358 0.06312 0.3414 0.0
H2707 H 0.76246 0.04802 0.35672 0.0
C2708 C 0.71953 0.02894 0.34968 0.0
C2709 C 0.71266 0.01684 0.36339 0.0
C2710 C 0.73171 0.04296 0.35588 0.0
C2711 C 0.73743 0.04503 0.37579 0.0
C2712 C 0.73059 0.03289 0.38943 0.0
H2713 H 0.82074 0.11247 0.43084 0.0
H2714 H 0.80131 0.09176 0.41018 0.0
C2715 C 0.7183 0.01897 0.38333 0.0
C2716 C 0.75007 0.05995 0.38289 0.0
H2717 H 0.78701 0.08685 0.37425 0.0
C2718 C 0.74777 0.06649 0.40028 0.0
C2719 C 0.76444 0.06734 0.37342 0.0
C2720 C 0.76795 0.06053 0.35536 0.0
C2721 C 0.75945 0.08 0.40872 0.0
C2722 C 0.77373 0.08759 0.39903 0.0
C2723 C 0.776 0.08117 0.38147 0.0
C2724 C 0.78673 0.10149 0.40795 0.0
C2725 C 0.75649 0.08559 0.42848 0.0
C2726 C 0.78545 0.11427 0.41256 0.0
C2727 C 0.79645 0.12599 0.4246 0.0
C2728 C 0.80912 0.12533 0.43169 0.0
C2729 C 0.81115 0.1133 0.42538 0.0
C2730 C 0.80001 0.10144 0.41366 0.0
H2731 H 0.74651 0.07648 0.43646 0.0
H2732 H 0.76647 0.08999 0.4388 0.0
H2733 H 0.75413 0.09489 0.42535 0.0
H2734 H 0.77554 0.11479 0.4078 0.0
H2735 H 0.79467 0.13517 0.42928 0.0
H2736 H 0.99279 0.68353 0.38051 0.0
H2737 H 0.96833 0.68038 0.39052 0.0
H2738 H 0.97586 0.71765 0.35209 0.0
H2739 H 1.00025 0.72063 0.34161 0.0
H2740 H 0.96403 0.70081 0.41048 0.0
H2741 H 0.93239 0.68649 0.33751 0.0
H2742 H 0.94969 0.68591 0.34076 0.0
H2743 H 0.95042 0.70371 0.3369 0.0
C2744 C 0.98916 0.69094 0.37397 0.0
C2745 C 0.99845 0.70233 0.36027 0.0
C2746 C 0.97516 0.68912 0.37971 0.0
C2747 C 0.97014 0.69866 0.3719 0.0
C2748 C 0.9793 0.70993 0.35797 0.0
H2749 H 0.90377 0.71143 0.43804 0.0
H2750 H 0.9257 0.71614 0.41757 0.0
C2751 C 0.9933 0.71169 0.35211 0.0
C2752 C 0.9559 0.69748 0.37964 0.0
H2753 H 0.92101 0.69167 0.36557 0.0
C2754 C 0.95463 0.69881 0.40063 0.0
C2755 C 0.94358 0.69473 0.36682 0.0
C2756 C 0.94397 0.69248 0.34426 0.0
C2757 C 0.94145 0.69747 0.40918 0.0
C2758 C 0.92927 0.69514 0.39634 0.0
C2759 C 0.93045 0.6937 0.37534 0.0
C2760 C 0.91504 0.69349 0.40481 0.0
C2761 C 0.94054 0.69815 0.43198 0.0
C2762 C 0.90142 0.67957 0.40321 0.0
C2763 C 0.88878 0.67696 0.41462 0.0
C2764 C 0.88964 0.68822 0.42782 0.0
C2765 C 0.90285 0.70256 0.428 0.0
C2766 C 0.9154 0.70521 0.41645 0.0
H2767 H 0.94912 0.69619 0.43969 0.0
H2768 H 0.94268 0.70954 0.43655 0.0
H2769 H 0.92911 0.68958 0.43744 0.0
H2770 H 0.90088 0.67039 0.39425 0.0
H2771 H 0.87879 0.66576 0.41437 0.0
H2772 H 0.3676 0.02308 0.72056 0.0
H2773 H 0.38824 0.0184 0.72933 0.0
H2774 H 0.41348 0.04417 0.67746 0.0
H2775 H 0.39281 0.04892 0.66852 0.0
H2776 H 0.40139 0.00436 0.70307 0.0
H2777 H 0.44283 0.06343 0.72767 0.0
H2778 H 0.42271 0.05659 0.72618 0.0
H2779 H 0.43359 0.06068 0.70341 0.0
C2780 C 0.37754 0.02777 0.71101 0.0
C2781 C 0.37861 0.03642 0.69389 0.0
C2782 C 0.3893 0.02506 0.71602 0.0
C2783 C 0.40241 0.03102 0.70412 0.0
C2784 C 0.40351 0.03959 0.68694 0.0
H2785 H 0.4833 0.02708 0.74448 0.0
H2786 H 0.46674 0.03138 0.72135 0.0
C2787 C 0.39169 0.04226 0.68184 0.0
C2788 C 0.41484 0.02819 0.70995 0.0
H2789 H 0.44982 0.04495 0.7325 0.0
C2790 C 0.41207 0.01326 0.70924 0.0
C2791 C 0.42883 0.03986 0.71775 0.0
C2792 C 0.43226 0.05606 0.71896 0.0
C2793 C 0.42269 0.00958 0.7169 0.0
C2794 C 0.43627 0.02108 0.72593 0.0
C2795 C 0.43941 0.03615 0.72558 0.0
C2796 C 0.44622 0.01741 0.73825 0.0
C2797 C 0.4191 0.99333 0.71567 0.0
C2798 C 0.44018 0.00813 0.75529 0.0
C2799 C 0.44954 0.00573 0.76837 0.0
C2800 C 0.4652 0.01265 0.76483 0.0
C2801 C 0.47125 0.02157 0.74744 0.0
C2802 C 0.46183 0.02406 0.73432 0.0
H2803 H 0.41156 0.98735 0.70251 0.0
H2804 H 0.42958 0.99261 0.71436 0.0
H2805 H 0.41305 0.98731 0.72961 0.0
H2806 H 0.42827 0.00314 0.75891 0.0
H2807 H 0.44458 0.99875 0.78163 0.0
H2808 H 1.0009 0.35898 0.72387 0.0
H2809 H 0.00411 0.38368 0.73313 0.0
H2810 H 0.97428 0.38001 0.68409 0.0
H2811 H 0.97126 0.35539 0.67445 0.0
H2812 H 0.99936 0.40883 0.68743 0.0
H2813 H 0.97189 0.38889 0.76202 0.0
H2814 H 0.98755 0.38575 0.75855 0.0
H2815 H 0.97102 0.37603 0.74249 0.0
C2816 C 0.99505 0.36344 0.71502 0.0
C2817 C 0.98572 0.35519 0.69854 0.0
C2818 C 0.99684 0.37753 0.72038 0.0
C2819 C 0.98919 0.38355 0.70955 0.0
C2820 C 0.98021 0.37553 0.69273 0.0
H2821 H 0.98266 0.45633 0.76865 0.0
H2822 H 0.97559 0.43377 0.74781 0.0
C2823 C 0.97848 0.36146 0.68727 0.0
C2824 C 0.99038 0.39806 0.7161 0.0
H2825 H 0.98564 0.41564 0.75714 0.0
C2826 C 0.99622 0.41031 0.7026 0.0
C2827 C 0.98597 0.39988 0.73573 0.0
C2828 C 0.97861 0.3869 0.75046 0.0
C2829 C 0.99836 0.42453 0.70853 0.0
C2830 C 0.99481 0.4266 0.72859 0.0
C2831 C 0.98844 0.41415 0.74178 0.0
C2832 C 0.99833 0.44162 0.73686 0.0
C2833 C 0.00433 0.43715 0.69321 0.0
C2834 C 0.01331 0.45387 0.73692 0.0
C2835 C 0.01725 0.46689 0.74845 0.0
C2836 C 0.00633 0.46777 0.76032 0.0
C2837 C 0.99119 0.45598 0.75929 0.0
C2838 C 0.9872 0.44306 0.74754 0.0
H2839 H 1.00134 0.43258 0.6775 0.0
H2840 H 0.99983 0.44492 0.69588 0.0
H2841 H 0.01689 0.44379 0.69436 0.0
H2842 H 0.02219 0.45293 0.72931 0.0
H2843 H 0.02906 0.4757 0.74948 0.0
H2844 H 0.6624 0.64423 0.72265 0.0
H2845 H 0.63845 0.62197 0.73223 0.0
H2846 H 0.63253 0.60447 0.6712 0.0
H2847 H 0.65666 0.62669 0.66153 0.0
H2848 H 0.60875 0.61026 0.71671 0.0
H2849 H 0.62999 0.56992 0.70629 0.0
H2850 H 0.64254 0.59019 0.70727 0.0
H2851 H 0.63149 0.58141 0.68483 0.0
C2852 C 0.65598 0.63569 0.71123 0.0
C2853 C 0.66147 0.63716 0.69137 0.0
C2854 C 0.64227 0.62299 0.71671 0.0
C2855 C 0.6338 0.61147 0.7025 0.0
C2856 C 0.63901 0.6131 0.68249 0.0
H2857 H 0.54457 0.53762 0.74504 0.0
H2858 H 0.56333 0.55593 0.72112 0.0
C2859 C 0.65276 0.62583 0.67697 0.0
C2860 C 0.61978 0.59764 0.70904 0.0
H2861 H 0.60537 0.56003 0.71904 0.0
C2862 C 0.60787 0.59921 0.71693 0.0
C2863 C 0.61873 0.58327 0.70938 0.0
C2864 C 0.63138 0.58101 0.70164 0.0
C2865 C 0.5952 0.58693 0.72591 0.0
C2866 C 0.59436 0.57266 0.72679 0.0
C2867 C 0.60598 0.57094 0.71814 0.0
C2868 C 0.58283 0.56014 0.73931 0.0
C2869 C 0.58327 0.58953 0.73548 0.0
C2870 C 0.58761 0.55603 0.75693 0.0
C2871 C 0.57701 0.54567 0.77039 0.0
C2872 C 0.56142 0.5391 0.76644 0.0
C2873 C 0.55656 0.54252 0.74829 0.0
C2874 C 0.56723 0.55303 0.73477 0.0
H2875 H 0.58668 0.60173 0.73591 0.0
H2876 H 0.57255 0.58334 0.72664 0.0
H2877 H 0.58095 0.58511 0.7512 0.0
H2878 H 0.59956 0.56136 0.76073 0.0
H2879 H 0.58099 0.54318 0.78433 0.0
H2880 H 0.70709 0.72116 0.69392 0.0
H2881 H 0.70442 0.74318 0.68593 0.0
H2882 H 0.68353 0.72266 0.62861 0.0
H2883 H 0.68599 0.70059 0.63658 0.0
H2884 H 0.71725 0.76258 0.65428 0.0
H2885 H 0.65489 0.7363 0.64983 0.0
H2886 H 0.66405 0.72696 0.66152 0.0
H2887 H 0.66162 0.7264 0.63441 0.0
C2888 C 0.70175 0.72127 0.67972 0.0
C2889 C 0.69672 0.70913 0.66588 0.0
C2890 C 0.70023 0.73385 0.67519 0.0
C2891 C 0.69355 0.73447 0.65682 0.0
C2892 C 0.68838 0.72228 0.64309 0.0
H2893 H 0.70608 0.80283 0.5766 0.0
H2894 H 0.70742 0.78453 0.599 0.0
C2895 C 0.6899 0.70971 0.6476 0.0
C2896 C 0.69303 0.7483 0.65118 0.0
H2897 H 0.66943 0.76016 0.63245 0.0
C2898 C 0.70676 0.76211 0.64988 0.0
C2899 C 0.67932 0.7478 0.64579 0.0
C2900 C 0.66412 0.7336 0.64816 0.0
C2901 C 0.70725 0.77513 0.64201 0.0
C2902 C 0.69369 0.77427 0.63503 0.0
C2903 C 0.67984 0.76077 0.63764 0.0
C2904 C 0.69389 0.78651 0.6227 0.0
C2905 C 0.72235 0.78959 0.6407 0.0
C2906 C 0.68576 0.7937 0.62853 0.0
C2907 C 0.68503 0.80427 0.61567 0.0
C2908 C 0.69216 0.8075 0.59671 0.0
C2909 C 0.70051 0.80052 0.59117 0.0
C2910 C 0.70135 0.79014 0.60401 0.0
H2911 H 0.73043 0.78994 0.65235 0.0
H2912 H 0.72735 0.79018 0.62558 0.0
H2913 H 0.72108 0.79971 0.64264 0.0
H2914 H 0.67981 0.79094 0.64283 0.0
H2915 H 0.67844 0.80945 0.62014 0.0
H2916 H 0.31867 0.99446 0.64662 0.0
H2917 H 0.29733 0.96912 0.63921 0.0
H2918 H 0.26933 0.97689 0.68068 0.0
H2919 H 0.2907 0.00233 0.68825 0.0
H2920 H 0.27896 0.94444 0.6688 0.0
H2921 H 0.24601 0.9648 0.62444 0.0
H2922 H 0.26616 0.9766 0.62886 0.0
H2923 H 0.25312 0.97303 0.64909 0.0
C2924 C 0.30799 0.99078 0.6542 0.0
C2925 C 0.30634 1.00042 0.66795 0.0
C2926 C 0.29583 0.97629 0.65 0.0
C2927 C 0.28175 0.97119 0.65931 0.0
C2928 C 0.28008 0.98068 0.67322 0.0
H2929 H 0.19923 0.88955 0.61601 0.0
H2930 H 0.21543 0.91088 0.63887 0.0
C2931 C 0.2923 0.99518 0.67755 0.0
C2932 C 0.26884 0.95602 0.65398 0.0
H2933 H 0.23641 0.93857 0.62544 0.0
C2934 C 0.26954 0.94311 0.65955 0.0
C2935 C 0.25648 0.95432 0.64213 0.0
C2936 C 0.25531 0.96788 0.63563 0.0
C2937 C 0.25846 0.92857 0.65296 0.0
C2938 C 0.2466 0.92694 0.64003 0.0
C2939 C 0.24549 0.93979 0.63535 0.0
C2940 C 0.23646 0.91253 0.62908 0.0
C2941 C 0.25973 0.91511 0.65967 0.0
C2942 C 0.24285 0.90622 0.61629 0.0
C2943 C 0.23366 0.89412 0.60344 0.0
C2944 C 0.2179 0.88809 0.60303 0.0
C2945 C 0.21135 0.89389 0.61638 0.0
C2946 C 0.22059 0.90609 0.62929 0.0
H2947 H 0.26535 0.91722 0.67476 0.0
H2948 H 0.24843 0.90467 0.66046 0.0
H2949 H 0.26681 0.91317 0.64869 0.0
H2950 H 0.25504 0.91121 0.61537 0.0
H2951 H 0.23895 0.88995 0.59301 0.0
H2952 H 0.02226 0.32856 0.64166 0.0
H2953 H 0.04623 0.33035 0.63197 0.0
H2954 H 0.04802 0.31095 0.6892 0.0
H2955 H 0.02388 0.30893 0.69892 0.0
H2956 H 0.07525 0.34511 0.65058 0.0
H2957 H 0.05048 0.28248 0.647 0.0
H2958 H 0.03886 0.29118 0.64832 0.0
H2959 H 0.04847 0.29013 0.67061 0.0
C2960 C 0.02778 0.32474 0.65223 0.0
C2961 C 0.02112 0.31848 0.67098 0.0
C2962 C 0.0415 0.32581 0.6467 0.0
C2963 C 0.04882 0.32061 0.65976 0.0
C2964 C 0.04245 0.3148 0.67877 0.0
H2965 H 0.13797 0.33418 0.61919 0.0
H2966 H 0.11878 0.33312 0.6429 0.0
C2967 C 0.02869 0.31371 0.68431 0.0
C2968 C 0.06276 0.32079 0.65293 0.0
H2969 H 0.07587 0.29751 0.63727 0.0
C2970 C 0.07552 0.33473 0.64797 0.0
C2971 C 0.06301 0.3072 0.64947 0.0
C2972 C 0.04947 0.29187 0.65396 0.0
C2973 C 0.08829 0.33543 0.63888 0.0
C2974 C 0.08834 0.32182 0.63483 0.0
C2975 C 0.07584 0.30792 0.64059 0.0
C2976 C 0.10001 0.32156 0.62178 0.0
C2977 C 0.10127 0.35062 0.63255 0.0
C2978 C 0.09572 0.31503 0.60242 0.0
C2979 C 0.10653 0.31563 0.58905 0.0
C2980 C 0.1219 0.32273 0.59475 0.0
C2981 C 0.12618 0.3287 0.61446 0.0
C2982 C 0.11528 0.32817 0.62791 0.0
H2983 H 0.09872 0.35992 0.63477 0.0
H2984 H 0.11151 0.35329 0.64164 0.0
H2985 H 0.10399 0.35028 0.61633 0.0
H2986 H 0.08401 0.30983 0.5974 0.0
H2987 H 0.10291 0.31077 0.57401 0.0
H2988 H 0.28765 0.29365 0.68735 0.0
H2989 H 0.26563 0.29627 0.67874 0.0
H2990 H 0.29458 0.33713 0.64574 0.0
H2991 H 0.31662 0.33463 0.65429 0.0
H2992 H 0.27138 0.3379 0.672 0.0
H2993 H 0.24866 0.2884 0.61919 0.0
H2994 H 0.25319 0.28555 0.6446 0.0
H2995 H 0.2681 0.29808 0.62797 0.0
C2996 C 0.28934 0.30327 0.67842 0.0
C2997 C 0.30385 0.31388 0.67136 0.0
C2998 C 0.27676 0.30473 0.67349 0.0
C2999 C 0.27848 0.31682 0.66147 0.0
C3000 C 0.29302 0.32772 0.65504 0.0
H3001 H 0.22873 0.34897 0.5951 0.0
H3002 H 0.24626 0.3466 0.61802 0.0
C3003 C 0.30559 0.32624 0.65988 0.0
C3004 C 0.2651 0.3177 0.6545 0.0
H3005 H 0.23514 0.30132 0.62154 0.0
C3006 C 0.26334 0.32983 0.66111 0.0
C3007 C 0.25462 0.30712 0.64039 0.0
C3008 C 0.2562 0.29408 0.63245 0.0
C3009 C 0.25146 0.33178 0.65373 0.0
C3010 C 0.24132 0.32153 0.63898 0.0
C3011 C 0.24285 0.30914 0.6329 0.0
C3012 C 0.22992 0.32405 0.62821 0.0
C3013 C 0.24993 0.3448 0.66181 0.0
C3014 C 0.21478 0.31227 0.62641 0.0
C3015 C 0.20478 0.3135 0.61299 0.0
C3016 C 0.20975 0.32653 0.60104 0.0
C3017 C 0.22459 0.33874 0.60398 0.0
C3018 C 0.2346 0.33746 0.61728 0.0
H3019 H 0.25451 0.34788 0.67751 0.0
H3020 H 0.25656 0.35489 0.65216 0.0
H3021 H 0.23792 0.34205 0.66178 0.0
H3022 H 0.21092 0.30179 0.63462 0.0
H3023 H 0.1935 0.30382 0.61095 0.0
H3024 H 0.71699 1.00173 0.68222 0.0
H3025 H 0.71333 0.97697 0.67195 0.0
H3026 H 0.67156 0.96653 0.64167 0.0
H3027 H 0.6754 0.9914 0.65131 0.0
H3028 H 0.69109 0.94748 0.6782 0.0
H3029 H 0.6949 0.96114 0.59638 0.0
H3030 H 0.69973 0.97528 0.61591 0.0
H3031 H 0.6802 0.96276 0.60891 0.0
C3032 C 0.70701 0.99413 0.67341 0.0
C3033 C 0.69658 0.99858 0.66733 0.0
C3034 C 0.70491 0.97997 0.66761 0.0
C3035 C 0.69233 0.97001 0.65569 0.0
C3036 C 0.68155 0.97418 0.65041 0.0
H3037 H 0.66199 0.8845 0.59507 0.0
H3038 H 0.66264 0.90464 0.61611 0.0
C3039 C 0.68373 0.98837 0.65601 0.0
C3040 C 0.69074 0.95552 0.64813 0.0
H3041 H 0.68711 0.93565 0.60465 0.0
C3042 C 0.69027 0.9449 0.66212 0.0
C3043 C 0.68983 0.95222 0.62712 0.0
C3044 C 0.69135 0.96351 0.6112 0.0
C3045 C 0.68857 0.93096 0.65563 0.0
C3046 C 0.6873 0.92759 0.63469 0.0
C3047 C 0.68789 0.93822 0.62074 0.0
C3048 C 0.6857 0.91329 0.62653 0.0
C3049 C 0.68794 0.9198 0.67108 0.0
C3050 C 0.69824 0.9111 0.62614 0.0
C3051 C 0.69791 0.89961 0.61405 0.0
C3052 C 0.68506 0.89023 0.60211 0.0
C3053 C 0.67206 0.8916 0.60404 0.0
C3054 C 0.67242 0.9031 0.61604 0.0
H3055 H 0.68693 0.92316 0.68679 0.0
H3056 H 0.67819 0.90832 0.66782 0.0
H3057 H 0.69844 0.9191 0.67014 0.0
H3058 H 0.70867 0.91898 0.63393 0.0
H3059 H 0.70816 0.89896 0.61267 0.0
H3060 H 0.02448 0.69938 0.64138 0.0
H3061 H 0.04906 0.7207 0.63156 0.0
H3062 H 0.04453 0.74898 0.67653 0.0
H3063 H 0.0201 0.72756 0.68678 0.0
H3064 H 0.05457 0.74708 0.61589 0.0
H3065 H 0.08745 0.75828 0.68738 0.0
H3066 H 0.0695 0.74117 0.68315 0.0
H3067 H 0.07005 0.75847 0.69039 0.0
C3068 C 0.02879 0.7101 0.64931 0.0
C3069 C 0.02037 0.71179 0.66487 0.0
C3070 C 0.04284 0.72228 0.6437 0.0
C3071 C 0.04877 0.73641 0.65348 0.0
C3072 C 0.0404 0.73811 0.66909 0.0
H3073 H 0.11652 0.81835 0.59376 0.0
H3074 H 0.09452 0.80047 0.61358 0.0
C3075 C 0.02638 0.72588 0.67482 0.0
C3076 C 0.0632 0.74955 0.64636 0.0
H3077 H 0.09885 0.77674 0.66136 0.0
C3078 C 0.06425 0.75354 0.62585 0.0
C3079 C 0.0759 0.7579 0.65931 0.0
C3080 C 0.07577 0.75367 0.68124 0.0
C3081 C 0.07756 0.76563 0.61792 0.0
C3082 C 0.09009 0.77429 0.63098 0.0
C3083 C 0.08914 0.77025 0.65147 0.0
C3084 C 0.10447 0.78706 0.62315 0.0
C3085 C 0.07818 0.76871 0.59545 0.0
C3086 C 0.11778 0.78617 0.62331 0.0
C3087 C 0.13047 0.79657 0.61233 0.0
C3088 C 0.12998 0.80797 0.601 0.0
C3089 C 0.11715 0.80965 0.60237 0.0
C3090 C 0.10455 0.79936 0.61352 0.0
H3091 H 0.06923 0.75881 0.58691 0.0
H3092 H 0.0764 0.77845 0.59287 0.0
H3093 H 0.08939 0.77158 0.58914 0.0
H3094 H 0.11799 0.77681 0.63074 0.0
H3095 H 0.14017 0.79494 0.61134 0.0
H3096 H 1.00295 0.65395 0.71796 0.0
H3097 H 0.0067 0.63315 0.7288 0.0
H3098 H 0.9719 0.60294 0.68685 0.0
H3099 H 0.96835 0.62383 0.67558 0.0
H3100 H 0.98639 0.60736 0.74677 0.0
H3101 H 0.0053 0.59347 0.67524 0.0
H3102 H 0.00463 0.61071 0.67859 0.0
H3103 H 0.98758 0.59314 0.67294 0.0
C3104 C 0.9962 0.64292 0.71089 0.0
C3105 C 0.98536 0.64053 0.6959 0.0
C3106 C 0.99836 0.63103 0.71709 0.0
C3107 C 0.98973 0.61651 0.70847 0.0
C3108 C 0.97895 0.61411 0.6934 0.0
H3109 H 0.97863 0.53705 0.77247 0.0
H3110 H 0.97364 0.55432 0.75247 0.0
C3111 C 0.97685 0.62604 0.68708 0.0
C3112 C 0.9914 0.60375 0.71628 0.0
H3113 H 0.99966 0.5763 0.70259 0.0
C3114 C 0.9893 0.60059 0.73709 0.0
C3115 C 0.99534 0.59499 0.70368 0.0
C3116 C 0.99849 0.59831 0.68141 0.0
C3117 C 0.991 0.58895 0.74567 0.0
C3118 C 0.99451 0.5799 0.73301 0.0
C3119 C 0.99673 0.58309 0.7122 0.0
C3120 C 0.99662 0.56759 0.74149 0.0
C3121 C 0.98944 0.58676 0.76835 0.0
C3122 C 0.01088 0.56864 0.74073 0.0
C3123 C 0.01368 0.55861 0.75187 0.0
C3124 C 1.00225 0.54743 0.76398 0.0
C3125 C 0.98765 0.54563 0.76335 0.0
C3126 C 0.98483 0.55555 0.75206 0.0
H3127 H 0.99056 0.59691 0.77629 0.0
H3128 H 0.97807 0.57702 0.77181 0.0
H3129 H 0.99813 0.58431 0.77456 0.0
H3130 H 0.02012 0.5778 0.73258 0.0
H3131 H 0.02507 0.56034 0.75223 0.0
H3132 H 0.37726 0.34425 0.72743 0.0
H3133 H 0.39817 0.36918 0.73719 0.0
H3134 H 0.40155 0.38441 0.67548 0.0
H3135 H 0.38089 0.35919 0.66545 0.0
H3136 H 0.4291 0.39433 0.69133 0.0
H3137 H 0.39563 0.40671 0.74561 0.0
H3138 H 0.39496 0.3893 0.75189 0.0
H3139 H 0.38692 0.39086 0.72823 0.0
C3140 C 0.38243 0.35291 0.71593 0.0
C3141 C 0.37736 0.34981 0.69571 0.0
C3142 C 0.39433 0.3672 0.72155 0.0
C3143 C 0.40119 0.37882 0.70719 0.0
C3144 C 0.39635 0.37567 0.68687 0.0
H3145 H 0.4595 0.46819 0.76092 0.0
H3146 H 0.44056 0.44867 0.73832 0.0
C3147 C 0.38454 0.36127 0.68116 0.0
C3148 C 0.41354 0.39414 0.71348 0.0
H3149 H 0.42272 0.42161 0.74937 0.0
C3150 C 0.42766 0.40042 0.70384 0.0
C3151 C 0.41159 0.40234 0.72941 0.0
C3152 C 0.3964 0.39703 0.7392 0.0
C3153 C 0.44009 0.41425 0.71042 0.0
C3154 C 0.43847 0.42177 0.72749 0.0
C3155 C 0.42412 0.41584 0.73642 0.0
C3156 C 0.45153 0.43517 0.73734 0.0
C3157 C 0.45478 0.42061 0.69893 0.0
C3158 C 0.46435 0.43446 0.7437 0.0
C3159 C 0.47536 0.44582 0.75616 0.0
C3160 C 0.47358 0.45791 0.76287 0.0
C3161 C 0.46118 0.45904 0.75575 0.0
C3162 C 0.45033 0.44784 0.74297 0.0
H3163 H 0.45264 0.41719 0.68269 0.0
H3164 H 0.46142 0.43317 0.69988 0.0
H3165 H 0.4617 0.41599 0.70537 0.0
H3166 H 0.46539 0.42465 0.74018 0.0
H3167 H 0.48464 0.44453 0.76182 0.0
H3168 H 0.66276 0.02972 0.7258 0.0
H3169 H 0.63776 0.02577 0.73453 0.0
H3170 H 0.63189 0.03705 0.67346 0.0
H3171 H 0.65709 0.04128 0.66468 0.0
H3172 H 0.6234 0.05105 0.70207 0.0
H3173 H 0.59688 0.98985 0.71857 0.0
H3174 H 0.61411 1.00087 0.73273 0.0
H3175 H 0.61471 1.00019 0.70548 0.0
C3176 C 0.65614 0.03131 0.71419 0.0
C3177 C 0.66186 0.03573 0.69452 0.0
C3178 C 0.64181 0.02896 0.71917 0.0
C3179 C 0.63282 0.03082 0.70454 0.0
C3180 C 0.63858 0.03543 0.68494 0.0
H3181 H 0.53945 0.99862 0.74276 0.0
H3182 H 0.56029 0.00388 0.71968 0.0
C3183 C 0.65296 0.03783 0.67995 0.0
C3184 C 0.6176 0.02829 0.71002 0.0
H3185 H 0.58434 0.00256 0.73208 0.0
C3186 C 0.61475 0.04038 0.70836 0.0
C3187 C 0.60616 0.01427 0.71776 0.0
C3188 C 0.60804 1.00051 0.71854 0.0
C3189 C 0.60115 0.03908 0.71538 0.0
C3190 C 0.59023 0.02544 0.72463 0.0
C3191 C 0.59273 0.01308 0.72516 0.0
C3192 C 0.57691 0.02409 0.73565 0.0
C3193 C 0.5987 0.05241 0.71299 0.0
C3194 C 0.57914 0.03398 0.75185 0.0
C3195 C 0.56723 0.03109 0.76486 0.0
C3196 C 0.55286 0.01812 0.76214 0.0
C3197 C 0.55034 0.00879 0.74512 0.0
C3198 C 0.56228 0.01172 0.73203 0.0
H3199 H 0.60478 0.05925 0.69952 0.0
H3200 H 0.58647 0.04871 0.71145 0.0
H3201 H 0.60332 0.05989 0.72653 0.0
H3202 H 0.59033 0.04341 0.75529 0.0
H3203 H 0.5695 0.03849 0.77784 0.0
loop_
_geom_bond_atom_site_label_1
_geom_bond_atom_site_label_2
_geom_bond_distance
_geom_bond_site_symmetry_2
_ccdc_geom_bond_type
In0 O1 2.294 1_455 S
In0 O2 2.326 . S
In0 O6 2.266 1_455 S
In0 O7 2.326 1_454 S
In0 O8 2.266 1_554 S
In0 O9 2.326 1_454 S
In0 O11 2.294 . S
In0 O12 2.326 . S
O1 In0 2.294 1_655 S
O1 C10 1.240 1_655 S
O2 In0 2.326 . S
O2 C10 1.252 . S
C3 O6 1.252 1_556 S
C3 O7 1.260 . S
C4 O11 1.240 . S
C4 O12 1.252 . S
C5 O8 1.252 . S
C5 O9 1.260 1_455 S
O6 In0 2.266 1_655 S
O6 C3 1.252 1_554 S
O7 In0 2.326 1_656 S
O7 C3 1.260 . S
O8 In0 2.266 1_556 S
O8 C5 1.252 . S
O9 In0 2.326 1_656 S
O9 C5 1.260 1_655 S
C10 O1 1.240 1_455 S
C10 O2 1.252 . S
O11 In0 2.294 . S
O11 C4 1.240 . S
O12 In0 2.326 . S
O12 C4 1.252 . S
In13 O14 2.294 . S
In13 O15 2.326 . S
In13 O19 2.266 . S
In13 O20 2.326 1_554 S
In13 O21 2.266 1_554 S
In13 O22 2.326 1_554 S
In13 O24 2.294 . S
In13 O25 2.326 . S
O14 In13 2.294 . S
O14 C23 1.240 . S
O15 In13 2.326 . S
O15 C23 1.252 . S
C16 O19 1.252 1_556 S
C16 O20 1.260 . S
C17 O24 1.240 . S
C17 O25 1.252 . S
C18 O21 1.252 . S
C18 O22 1.260 . S
O19 In13 2.266 . S
O19 C16 1.252 1_554 S
O20 In13 2.326 1_556 S
O20 C16 1.260 . S
O21 In13 2.266 1_556 S
O21 C18 1.252 . S
O22 In13 2.326 1_556 S
O22 C18 1.260 . S
C23 O14 1.240 . S
C23 O15 1.252 . S
O24 In13 2.294 . S
O24 C17 1.240 . S
O25 In13 2.326 . S
O25 C17 1.252 . S
In26 O27 2.294 . S
In26 O28 2.326 1_554 S
In26 O32 2.266 . S
In26 O33 2.326 1_545 S
In26 O34 2.266 1_545 S
In26 O35 2.333 1_545 S
In26 O37 2.294 1_544 S
In26 O38 2.326 1_554 S
O27 In26 2.294 . S
O27 C36 1.240 1_554 S
O28 In26 2.326 1_556 S
O28 C36 1.252 . S
C29 O32 1.252 . S
C29 O33 1.260 1_545 S
C30 O37 1.240 1_545 S
C30 O38 1.252 . S
C31 O34 1.252 . S
C31 O35 1.323 . S
O32 In26 2.266 . S
O32 C29 1.252 . S
O33 In26 2.326 1_565 S
O33 C29 1.260 1_565 S
O34 In26 2.266 1_565 S
O34 C31 1.252 . S
O35 In26 2.333 1_565 S
O35 C31 1.323 . S
C36 O27 1.240 1_556 S
C36 O28 1.252 . S
O37 In26 2.294 1_566 S
O37 C30 1.240 1_565 S
O38 In26 2.326 1_556 S
O38 C30 1.252 . S
In39 O40 2.294 1_554 S
In39 O41 2.326 1_454 S
In39 O45 2.266 . S
In39 O46 2.326 . S
In39 O47 2.266 1_455 S
In39 O48 2.326 . S
In39 O50 2.294 1_455 S
In39 O51 2.326 1_454 S
O40 In39 2.294 1_556 S
O40 C49 1.240 . S
O41 In39 2.326 1_656 S
O41 C49 1.252 1_655 S
C42 O45 1.252 . S
C42 O46 1.260 . S
C43 O50 1.240 1_556 S
C43 O51 1.252 . S
C44 O47 1.252 1_455 S
C44 O48 1.260 . S
O45 In39 2.266 . S
O45 C42 1.252 . S
O46 In39 2.326 . S
O46 C42 1.260 . S
O47 In39 2.266 1_655 S
O47 C44 1.252 1_655 S
O48 In39 2.326 . S
O48 C44 1.260 . S
C49 O40 1.240 . S
C49 O41 1.252 1_455 S
O50 In39 2.294 1_655 S
O50 C43 1.240 1_554 S
O51 In39 2.326 1_656 S
O51 C43 1.252 . S
In52 O53 2.294 1_554 S
In52 O54 2.326 1_554 S
In52 O58 2.266 . S
In52 O59 2.326 . S
In52 O60 2.266 . S
In52 O61 2.326 . S
In52 O63 2.294 . S
In52 O64 2.326 1_554 S
O53 In52 2.294 1_556 S
O53 C62 1.240 . S
O54 In52 2.326 1_556 S
O54 C62 1.252 . S
C55 O58 1.252 . S
C55 O59 1.260 . S
C56 O63 1.240 1_556 S
C56 O64 1.252 . S
C57 O60 1.252 . S
C57 O61 1.260 . S
O58 In52 2.266 . S
O58 C55 1.252 . S
O59 In52 2.326 . S
O59 C55 1.260 . S
O60 In52 2.266 . S
O60 C57 1.252 . S
O61 In52 2.326 . S
O61 C57 1.260 . S
C62 O53 1.240 . S
C62 O54 1.252 . S
O63 In52 2.294 . S
O63 C56 1.240 1_554 S
O64 In52 2.326 1_556 S
O64 C56 1.252 . S
In65 O66 2.294 . S
In65 O67 2.326 1_545 S
In65 O71 2.266 . S
In65 O72 2.326 1_554 S
In65 O73 2.266 1_544 S
In65 O74 2.326 1_554 S
In65 O76 2.294 1_545 S
In65 O77 2.326 1_545 S
O66 In65 2.294 . S
O66 C75 1.240 . S
O67 In65 2.326 1_565 S
O67 C75 1.252 1_565 S
C68 O71 1.252 1_556 S
C68 O72 1.260 . S
C69 O76 1.240 . S
C69 O77 1.252 . S
C70 O73 1.252 1_545 S
C70 O74 1.260 . S
O71 In65 2.266 . S
O71 C68 1.252 1_554 S
O72 In65 2.326 1_556 S
O72 C68 1.260 . S
O73 In65 2.266 1_566 S
O73 C70 1.252 1_565 S
O74 In65 2.326 1_556 S
O74 C70 1.260 . S
C75 O66 1.240 . S
C75 O67 1.252 1_545 S
O76 In65 2.294 1_565 S
O76 C69 1.240 . S
O77 In65 2.326 1_565 S
O77 C69 1.252 . S
In78 O79 2.294 . S
In78 O80 2.326 . S
In78 O84 2.266 . S
In78 O85 2.326 . S
In78 O86 2.266 . S
In78 O87 2.326 . S
In78 O89 2.294 . S
In78 O90 2.326 . S
O79 In78 2.294 . S
O79 C88 1.240 . S
O80 In78 2.326 . S
O80 C88 1.252 . S
C81 O84 1.252 . S
C81 O85 1.260 . S
C82 O89 1.240 . S
C82 O90 1.252 . S
C83 O86 1.252 . S
C83 O87 1.260 . S
O84 In78 2.266 . S
O84 C81 1.252 . S
O85 In78 2.326 . S
O85 C81 1.260 . S
O86 In78 2.266 . S
O86 C83 1.252 . S
O87 In78 2.326 . S
O87 C83 1.260 . S
C88 O79 1.240 . S
C88 O80 1.252 . S
O89 In78 2.294 . S
O89 C82 1.240 . S
O90 In78 2.326 . S
O90 C82 1.252 . S
In91 O92 2.294 . S
In91 O93 2.326 . S
In91 O97 2.266 . S
In91 O98 2.326 . S
In91 O99 2.266 . S
In91 O100 2.326 . S
In91 O102 2.294 1_565 S
In91 O103 2.326 1_565 S
O92 In91 2.294 . S
O92 C101 1.240 . S
O93 In91 2.326 . S
O93 C101 1.252 . S
C94 O97 1.252 . S
C94 O98 1.260 . S
C95 O102 1.240 . S
C95 O103 1.252 . S
C96 O99 1.252 . S
C96 O100 1.260 . S
O97 In91 2.266 . S
O97 C94 1.252 . S
O98 In91 2.326 . S
O98 C94 1.260 . S
O99 In91 2.266 . S
O99 C96 1.252 . S
O100 In91 2.326 . S
O100 C96 1.260 . S
C101 O92 1.240 . S
C101 O93 1.252 . S
O102 In91 2.294 1_545 S
O102 C95 1.240 . S
O103 In91 2.326 1_545 S
O103 C95 1.252 . S
In104 O105 2.294 . S
In104 O106 2.326 . S
In104 O110 2.266 . S
In104 O111 2.326 . S
In104 O112 2.266 . S
In104 O113 2.326 . S
In104 O115 2.294 . S
In104 O116 2.326 . S
O105 In104 2.294 . S
O105 C114 1.240 . S
O106 In104 2.326 . S
O106 C114 1.252 . S
C107 O110 1.252 . S
C107 O111 1.260 . S
C108 O115 1.240 . S
C108 O116 1.252 . S
C109 O112 1.252 . S
C109 O113 1.260 . S
O110 In104 2.266 . S
O110 C107 1.252 . S
O111 In104 2.326 . S
O111 C107 1.260 . S
O112 In104 2.266 . S
O112 C109 1.252 . S
O113 In104 2.326 . S
O113 C109 1.260 . S
C114 O105 1.240 . S
C114 O106 1.252 . S
O115 In104 2.294 . S
O115 C108 1.240 . S
O116 In104 2.326 . S
O116 C108 1.252 . S
In117 O118 2.294 . S
In117 O119 2.326 . S
In117 O123 2.266 1_565 S
In117 O124 2.326 1_565 S
In117 O125 2.266 . S
In117 O126 2.326 . S
In117 O128 2.294 . S
In117 O129 2.326 . S
O118 In117 2.294 . S
O118 C127 1.240 . S
O119 In117 2.326 . S
O119 C127 1.252 . S
C120 O123 1.252 . S
C120 O124 1.260 . S
C121 O128 1.240 . S
C121 O129 1.252 . S
C122 O125 1.252 . S
C122 O126 1.260 . S
O123 In117 2.266 1_545 S
O123 C120 1.252 . S
O124 In117 2.326 1_545 S
O124 C120 1.260 . S
O125 In117 2.266 . S
O125 C122 1.252 . S
O126 In117 2.326 . S
O126 C122 1.260 . S
C127 O118 1.240 . S
C127 O119 1.252 . S
O128 In117 2.294 . S
O128 C121 1.240 . S
O129 In117 2.326 . S
O129 C121 1.252 . S
In130 O131 2.294 . S
In130 O132 2.326 . S
In130 O136 2.266 . S
In130 O137 2.326 . S
In130 O138 2.266 . S
In130 O139 2.326 . S
In130 O141 2.294 . S
In130 O142 2.326 . S
O131 In130 2.294 . S
O131 C140 1.240 . S
O132 In130 2.326 . S
O132 C140 1.252 . S
C133 O136 1.259 . S
C133 O137 1.310 . S
C134 O141 1.240 . S
C134 O142 1.252 . S
C135 O138 1.252 . S
C135 O139 1.260 . S
O136 In130 2.266 . S
O136 C133 1.259 . S
O137 In130 2.326 . S
O137 C133 1.310 . S
O138 In130 2.266 . S
O138 C135 1.252 . S
O139 In130 2.326 . S
O139 C135 1.260 . S
C140 O131 1.240 . S
C140 O132 1.252 . S
O141 In130 2.294 . S
O141 C134 1.240 . S
O142 In130 2.326 . S
O142 C134 1.252 . S
In143 O144 2.294 . S
In143 O145 2.326 . S
In143 O149 2.266 . S
In143 O150 2.326 . S
In143 O151 2.266 . S
In143 O152 2.326 . S
In143 O154 2.294 . S
In143 O155 2.326 . S
O144 In143 2.294 . S
O144 C153 1.240 . S
O145 In143 2.326 . S
O145 C153 1.252 . S
C146 O149 1.252 . S
C146 O150 1.260 . S
C147 O154 1.240 . S
C147 O155 1.252 . S
C148 O151 1.252 . S
C148 O152 1.260 . S
O149 In143 2.266 . S
O149 C146 1.252 . S
O150 In143 2.326 . S
O150 C146 1.260 . S
O151 In143 2.266 . S
O151 C148 1.252 . S
O152 In143 2.326 . S
O152 C148 1.260 . S
C153 O144 1.240 . S
C153 O145 1.252 . S
O154 In143 2.294 . S
O154 C147 1.240 . S
O155 In143 2.326 . S
O155 C147 1.252 . S
In156 O157 2.294 . S
In156 O158 2.326 . S
In156 O162 2.266 . S
In156 O163 2.326 . S
In156 O164 2.266 . S
In156 O165 2.326 . S
In156 O167 2.294 . S
In156 O168 2.326 . S
O157 In156 2.294 . S
O157 C166 1.240 . S
O158 In156 2.326 . S
O158 C166 1.252 . S
C159 O162 1.252 . S
C159 O163 1.260 . S
C160 O167 1.240 . S
C160 O168 1.252 . S
C161 O164 1.300 . S
C161 O165 1.264 . S
O162 In156 2.266 . S
O162 C159 1.252 . S
O163 In156 2.326 . S
O163 C159 1.260 . S
O164 In156 2.266 . S
O164 C161 1.300 . S
O165 In156 2.326 . S
O165 C161 1.264 . S
C166 O157 1.240 . S
C166 O158 1.252 . S
O167 In156 2.294 . S
O167 C160 1.240 . S
O168 In156 2.326 . S
O168 C160 1.252 . S
In169 O170 2.294 . S
In169 O171 2.326 . S
In169 O175 2.266 . S
In169 O176 2.326 . S
In169 O177 2.266 1_655 S
In169 O178 2.326 1_655 S
In169 O180 2.294 . S
In169 O181 2.326 . S
O170 In169 2.294 . S
O170 C179 1.240 . S
O171 In169 2.326 . S
O171 C179 1.252 . S
C172 O175 1.252 . S
C172 O176 1.260 . S
C173 O180 1.240 . S
C173 O181 1.252 . S
C174 O177 1.252 . S
C174 O178 1.260 . S
O175 In169 2.266 . S
O175 C172 1.252 . S
O176 In169 2.326 . S
O176 C172 1.260 . S
O177 In169 2.266 1_455 S
O177 C174 1.252 . S
O178 In169 2.326 1_455 S
O178 C174 1.260 . S
C179 O170 1.240 . S
C179 O171 1.252 . S
O180 In169 2.294 . S
O180 C173 1.240 . S
O181 In169 2.326 . S
O181 C173 1.252 . S
In182 O183 2.294 . S
In182 O184 2.326 . S
In182 O188 2.266 . S
In182 O189 2.326 . S
In182 O190 2.266 . S
In182 O191 2.326 . S
In182 O193 2.294 . S
In182 O194 2.326 . S
O183 In182 2.294 . S
O183 C192 1.240 . S
O184 In182 2.326 . S
O184 C192 1.252 . S
C185 O188 1.252 . S
C185 O189 1.260 . S
C186 O193 1.240 . S
C186 O194 1.252 . S
C187 O190 1.252 . S
C187 O191 1.260 . S
O188 In182 2.266 . S
O188 C185 1.252 . S
O189 In182 2.326 . S
O189 C185 1.260 . S
O190 In182 2.266 . S
O190 C187 1.252 . S
O191 In182 2.326 . S
O191 C187 1.260 . S
C192 O183 1.240 . S
C192 O184 1.252 . S
O193 In182 2.294 . S
O193 C186 1.240 . S
O194 In182 2.326 . S
O194 C186 1.252 . S
In195 O196 2.294 . S
In195 O197 2.326 . S
In195 O201 2.266 . S
In195 O202 2.326 . S
In195 O203 2.266 . S
In195 O204 2.326 . S
In195 O206 2.294 . S
In195 O207 2.326 . S
O196 In195 2.294 . S
O196 C205 1.240 . S
O197 In195 2.326 . S
O197 C205 1.252 . S
C198 O201 1.252 . S
C198 O202 1.260 . S
C199 O206 1.240 . S
C199 O207 1.252 . S
C200 O203 1.252 . S
C200 O204 1.260 . S
O201 In195 2.266 . S
O201 C198 1.252 . S
O202 In195 2.326 . S
O202 C198 1.260 . S
O203 In195 2.266 . S
O203 C200 1.252 . S
O204 In195 2.326 . S
O204 C200 1.260 . S
C205 O196 1.240 . S
C205 O197 1.252 . S
O206 In195 2.294 . S
O206 C199 1.240 . S
O207 In195 2.326 . S
O207 C199 1.252 . S
In208 O209 2.294 . S
In208 O210 2.326 . S
In208 O214 2.266 . S
In208 O215 2.326 . S
In208 O216 2.266 . S
In208 O217 2.326 . S
In208 O219 2.294 . S
In208 O220 2.326 . S
O209 In208 2.294 . S
O209 C218 1.240 . S
O210 In208 2.326 . S
O210 C218 1.252 . S
C211 O214 1.252 . S
C211 O215 1.260 . S
C212 O219 1.243 . S
C212 O220 1.280 . S
C213 O216 1.252 . S
C213 O217 1.260 . S
O214 In208 2.266 . S
O214 C211 1.252 . S
O215 In208 2.326 . S
O215 C211 1.260 . S
O216 In208 2.266 . S
O216 C213 1.252 . S
O217 In208 2.326 . S
O217 C213 1.260 . S
C218 O209 1.240 . S
C218 O210 1.252 . S
O219 In208 2.294 . S
O219 C212 1.243 . S
O220 In208 2.326 . S
O220 C212 1.280 . S
In221 O222 2.294 . S
In221 O223 2.326 . S
In221 O227 2.266 . S
In221 O228 2.326 . S
In221 O229 2.266 1_655 S
In221 O230 2.326 1_655 S
In221 O232 2.294 . S
In221 O233 2.326 . S
O222 In221 2.294 . S
O222 C231 1.240 . S
O223 In221 2.326 . S
O223 C231 1.252 . S
C224 O227 1.252 . S
C224 O228 1.260 . S
C225 O232 1.240 . S
C225 O233 1.252 . S
C226 O229 1.252 . S
C226 O230 1.260 . S
O227 In221 2.266 . S
O227 C224 1.252 . S
O228 In221 2.326 . S
O228 C224 1.260 . S
O229 In221 2.266 1_455 S
O229 C226 1.252 . S
O230 In221 2.326 1_455 S
O230 C226 1.260 . S
C231 O222 1.240 . S
C231 O223 1.252 . S
O232 In221 2.294 . S
O232 C225 1.240 . S
O233 In221 2.326 . S
O233 C225 1.252 . S
H234 C242 0.930 . S
H235 C245 0.930 . S
H236 C247 0.930 . S
H237 C248 0.970 . S
H238 C248 0.970 . S
H239 C250 0.930 . S
H240 C252 0.930 . S
H241 C254 0.930 . S
C242 H234 0.930 . S
C242 C243 1.382 . S
C242 C244 1.426 . S
C243 C242 1.382 . S
C243 C247 1.389 . S
C244 C242 1.426 . S
C244 C245 1.375 . S
C244 C248 1.532 . S
C245 H235 0.930 . S
C245 C244 1.375 . S
C245 C246 1.416 . S
C246 C245 1.416 . S
C246 C247 1.371 . S
C247 H236 0.930 . S
C247 C243 1.389 . S
C247 C246 1.371 . S
C248 H237 0.970 . S
C248 H238 0.970 . S
C248 C244 1.532 . S
C248 C249 1.499 . S
C249 C248 1.499 . S
C249 C250 1.370 . S
C249 C254 1.415 . S
C250 H239 0.930 . S
C250 C249 1.370 . S
C250 C251 1.407 . S
C251 C250 1.407 . S
C251 C252 1.365 . S
C252 H240 0.930 . S
C252 C251 1.365 . S
C252 C253 1.393 . S
C253 C252 1.393 . S
C253 C254 1.387 . S
C254 H241 0.930 . S
C254 C249 1.415 . S
C254 C253 1.387 . S
H255 C263 0.930 . S
H256 C266 0.930 . S
H257 C268 0.930 . S
H258 C269 0.970 . S
H259 C269 0.970 . S
H260 C271 0.930 . S
H261 C273 0.930 . S
H262 C275 0.930 . S
C263 H255 0.930 . S
C263 C264 1.382 . S
C263 C265 1.426 . S
C264 C263 1.382 . S
C264 C268 1.389 . S
C265 C263 1.426 . S
C265 C266 1.375 . S
C265 C269 1.532 . S
C266 H256 0.930 . S
C266 C265 1.375 . S
C266 C267 1.416 . S
C267 C266 1.416 . S
C267 C268 1.371 . S
C268 H257 0.930 . S
C268 C264 1.389 . S
C268 C267 1.371 . S
C269 H258 0.970 . S
C269 H259 0.970 . S
C269 C265 1.532 . S
C269 C270 1.499 . S
C270 C269 1.499 . S
C270 C271 1.370 . S
C270 C275 1.415 . S
C271 H260 0.930 . S
C271 C270 1.370 . S
C271 C272 1.407 . S
C272 C271 1.407 . S
C272 C273 1.365 . S
C273 H261 0.930 . S
C273 C272 1.365 . S
C273 C274 1.393 . S
C274 C273 1.393 . S
C274 C275 1.387 . S
C275 H262 0.930 . S
C275 C270 1.415 . S
C275 C274 1.387 . S
H276 C284 0.930 . S
H277 C287 0.930 . S
H278 C289 0.930 . S
H279 C290 0.970 . S
H280 C290 0.970 . S
H281 C292 0.930 . S
H282 C294 0.930 . S
H283 C296 0.930 . S
C284 H276 0.930 . S
C284 C285 1.382 . S
C284 C286 1.426 . S
C285 C284 1.382 . S
C285 C289 1.389 . S
C286 C284 1.426 . S
C286 C287 1.375 . S
C286 C290 1.532 . S
C287 H277 0.930 . S
C287 C286 1.375 . S
C287 C288 1.416 . S
C288 C287 1.416 . S
C288 C289 1.371 . S
C289 H278 0.930 . S
C289 C285 1.389 . S
C289 C288 1.371 . S
C290 H279 0.970 . S
C290 H280 0.970 . S
C290 C286 1.532 . S
C290 C291 1.499 . S
C291 C290 1.499 . S
C291 C292 1.370 . S
C291 C296 1.415 . S
C292 H281 0.930 . S
C292 C291 1.370 . S
C292 C293 1.407 . S
C293 C292 1.407 . S
C293 C294 1.365 . S
C294 H282 0.930 . S
C294 C293 1.365 . S
C294 C295 1.393 . S
C295 C294 1.393 . S
C295 C296 1.387 . S
C296 H283 0.930 . S
C296 C291 1.415 . S
C296 C295 1.387 . S
H297 C305 0.930 . S
H298 C308 0.930 . S
H299 C310 0.930 . S
H300 C311 0.970 . S
H301 C311 0.970 . S
H302 C313 0.930 . S
H303 C315 0.930 . S
H304 C317 0.930 . S
C305 H297 0.930 . S
C305 C306 1.382 . S
C305 C307 1.426 . S
C306 C305 1.382 . S
C306 C310 1.389 . S
C307 C305 1.426 . S
C307 C308 1.375 . S
C307 C311 1.532 . S
C308 H298 0.930 . S
C308 C307 1.375 . S
C308 C309 1.416 . S
C309 C308 1.416 . S
C309 C310 1.371 . S
C310 H299 0.930 . S
C310 C306 1.389 . S
C310 C309 1.371 . S
C311 H300 0.970 . S
C311 H301 0.970 . S
C311 C307 1.532 . S
C311 C312 1.499 . S
C312 C311 1.499 . S
C312 C313 1.370 . S
C312 C317 1.415 . S
C313 H302 0.930 . S
C313 C312 1.370 . S
C313 C314 1.407 . S
C314 C313 1.407 . S
C314 C315 1.365 . S
C315 H303 0.930 . S
C315 C314 1.365 . S
C315 C316 1.393 . S
C316 C315 1.393 . S
C316 C317 1.387 . S
C317 H304 0.930 . S
C317 C312 1.415 . S
C317 C316 1.387 . S
H318 C326 0.930 . S
H319 C329 0.930 . S
H320 C331 0.930 . S
H321 C332 0.970 . S
H322 C332 0.970 . S
H323 C334 0.930 . S
H324 C336 0.930 . S
H325 C338 0.930 . S
C326 H318 0.930 . S
C326 C327 1.382 . S
C326 C328 1.426 . S
C327 C326 1.382 . S
C327 C331 1.389 . S
C328 C326 1.426 . S
C328 C329 1.375 . S
C328 C332 1.532 . S
C329 H319 0.930 . S
C329 C328 1.375 . S
C329 C330 1.416 . S
C330 C329 1.416 . S
C330 C331 1.371 . S
C331 H320 0.930 . S
C331 C327 1.389 . S
C331 C330 1.371 . S
C332 H321 0.970 . S
C332 H322 0.970 . S
C332 C328 1.532 . S
C332 C333 1.499 . S
C333 C332 1.499 . S
C333 C334 1.370 . S
C333 C338 1.415 . S
C334 H323 0.930 . S
C334 C333 1.370 . S
C334 C335 1.407 . S
C335 C334 1.407 . S
C335 C336 1.365 . S
C336 H324 0.930 . S
C336 C335 1.365 . S
C336 C337 1.393 . S
C337 C336 1.393 . S
C337 C338 1.387 . S
C338 H325 0.930 . S
C338 C333 1.415 . S
C338 C337 1.387 . S
H339 C347 0.930 . S
H340 C350 0.930 . S
H341 C352 0.930 . S
H342 C353 0.970 . S
H343 C353 0.970 . S
H344 C355 0.930 . S
H345 C357 0.930 . S
H346 C359 0.930 . S
C347 H339 0.930 . S
C347 C348 1.382 . S
C347 C349 1.426 . S
C348 C347 1.382 . S
C348 C352 1.389 . S
C349 C347 1.426 . S
C349 C350 1.375 . S
C349 C353 1.532 . S
C350 H340 0.930 . S
C350 C349 1.375 . S
C350 C351 1.416 . S
C351 C350 1.416 . S
C351 C352 1.371 . S
C352 H341 0.930 . S
C352 C348 1.389 . S
C352 C351 1.371 . S
C353 H342 0.970 . S
C353 H343 0.970 . S
C353 C349 1.532 . S
C353 C354 1.499 . S
C354 C353 1.499 . S
C354 C355 1.370 . S
C354 C359 1.415 . S
C355 H344 0.930 . S
C355 C354 1.370 . S
C355 C356 1.407 . S
C356 C355 1.407 . S
C356 C357 1.365 . S
C357 H345 0.930 . S
C357 C356 1.365 . S
C357 C358 1.393 . S
C358 C357 1.393 . S
C358 C359 1.387 . S
C359 H346 0.930 . S
C359 C354 1.415 . S
C359 C358 1.387 . S
H360 C368 0.930 . S
H361 C371 0.930 . S
H362 C373 0.930 . S
H363 C374 0.970 . S
H364 C374 0.970 . S
H365 C376 0.930 . S
H366 C378 0.930 . S
H367 C380 0.930 . S
C368 H360 0.930 . S
C368 C369 1.382 . S
C368 C370 1.426 . S
C369 C368 1.382 . S
C369 C373 1.389 . S
C370 C368 1.426 . S
C370 C371 1.375 . S
C370 C374 1.532 . S
C371 H361 0.930 . S
C371 C370 1.375 . S
C371 C372 1.416 . S
C372 C371 1.416 . S
C372 C373 1.371 . S
C373 H362 0.930 . S
C373 C369 1.389 . S
C373 C372 1.371 . S
C374 H363 0.970 . S
C374 H364 0.970 . S
C374 C370 1.532 . S
C374 C375 1.499 . S
C375 C374 1.499 . S
C375 C376 1.370 . S
C375 C380 1.415 . S
C376 H365 0.930 . S
C376 C375 1.370 . S
C376 C377 1.407 . S
C377 C376 1.407 . S
C377 C378 1.365 . S
C378 H366 0.930 . S
C378 C377 1.365 . S
C378 C379 1.393 . S
C379 C378 1.393 . S
C379 C380 1.387 . S
C380 H367 0.930 . S
C380 C375 1.415 . S
C380 C379 1.387 . S
H381 C389 0.930 . S
H382 C392 0.930 . S
H383 C394 0.930 . S
H384 C395 0.970 . S
H385 C395 0.970 . S
H386 C397 0.930 . S
H387 C399 0.930 . S
H388 C401 0.930 . S
C389 H381 0.930 . S
C389 C390 1.382 . S
C389 C391 1.426 . S
C390 C389 1.382 . S
C390 C394 1.389 . S
C391 C389 1.426 . S
C391 C392 1.375 . S
C391 C395 1.532 . S
C392 H382 0.930 . S
C392 C391 1.375 . S
C392 C393 1.416 . S
C393 C392 1.416 . S
C393 C394 1.371 . S
C394 H383 0.930 . S
C394 C390 1.389 . S
C394 C393 1.371 . S
C395 H384 0.970 . S
C395 H385 0.970 . S
C395 C391 1.532 . S
C395 C396 1.499 . S
C396 C395 1.499 . S
C396 C397 1.370 . S
C396 C401 1.415 . S
C397 H386 0.930 . S
C397 C396 1.370 . S
C397 C398 1.407 . S
C398 C397 1.407 . S
C398 C399 1.365 . S
C399 H387 0.930 . S
C399 C398 1.365 . S
C399 C400 1.393 . S
C400 C399 1.393 . S
C400 C401 1.387 . S
C401 H388 0.930 . S
C401 C396 1.415 . S
C401 C400 1.387 . S
H402 C410 0.930 . S
H403 C413 0.930 . S
H404 C415 0.930 . S
H405 C416 0.970 . S
H406 C416 0.970 . S
H407 C418 0.930 . S
H408 C420 0.930 . S
H409 C422 0.930 . S
C410 H402 0.930 . S
C410 C411 1.382 . S
C410 C412 1.426 . S
C411 C410 1.382 . S
C411 C415 1.389 . S
C412 C410 1.426 . S
C412 C413 1.375 . S
C412 C416 1.532 . S
C413 H403 0.930 . S
C413 C412 1.375 . S
C413 C414 1.416 . S
C414 C413 1.416 . S
C414 C415 1.371 . S
C415 H404 0.930 . S
C415 C411 1.389 . S
C415 C414 1.371 . S
C416 H405 0.970 . S
C416 H406 0.970 . S
C416 C412 1.532 . S
C416 C417 1.499 . S
C417 C416 1.499 . S
C417 C418 1.370 . S
C417 C422 1.415 . S
C418 H407 0.930 . S
C418 C417 1.370 . S
C418 C419 1.407 . S
C419 C418 1.407 . S
C419 C420 1.365 . S
C420 H408 0.930 . S
C420 C419 1.365 . S
C420 C421 1.393 . S
C421 C420 1.393 . S
C421 C422 1.387 . S
C422 H409 0.930 . S
C422 C417 1.415 . S
C422 C421 1.387 . S
H423 C431 0.930 . S
H424 C434 0.930 . S
H425 C436 0.930 . S
H426 C437 0.970 . S
H427 C437 0.970 . S
H428 C439 0.930 . S
H429 C441 0.930 . S
H430 C443 0.930 . S
C431 H423 0.930 . S
C431 C432 1.382 . S
C431 C433 1.426 . S
C432 C431 1.382 . S
C432 C436 1.389 . S
C433 C431 1.426 . S
C433 C434 1.375 . S
C433 C437 1.532 . S
C434 H424 0.930 . S
C434 C433 1.375 . S
C434 C435 1.416 . S
C435 C434 1.416 . S
C435 C436 1.371 . S
C436 H425 0.930 . S
C436 C432 1.389 . S
C436 C435 1.371 . S
C437 H426 0.970 . S
C437 H427 0.970 . S
C437 C433 1.532 . S
C437 C438 1.499 . S
C438 C437 1.499 . S
C438 C439 1.370 . S
C438 C443 1.415 . S
C439 H428 0.930 . S
C439 C438 1.370 . S
C439 C440 1.407 . S
C440 C439 1.407 . S
C440 C441 1.365 . S
C441 H429 0.930 . S
C441 C440 1.365 . S
C441 C442 1.393 . S
C442 C441 1.393 . S
C442 C443 1.387 . S
C443 H430 0.930 . S
C443 C438 1.415 . S
C443 C442 1.387 . S
H444 C452 0.930 . S
H445 C455 0.930 . S
H446 C457 0.930 . S
H447 C458 0.970 . S
H448 C458 0.970 . S
H449 C460 0.930 . S
H450 C462 0.930 . S
H451 C464 0.930 . S
C452 H444 0.930 . S
C452 C453 1.382 . S
C452 C454 1.426 . S
C453 C452 1.382 . S
C453 C457 1.389 . S
C454 C452 1.426 . S
C454 C455 1.375 . S
C454 C458 1.532 . S
C455 H445 0.930 . S
C455 C454 1.375 . S
C455 C456 1.416 . S
C456 C455 1.416 . S
C456 C457 1.371 . S
C457 H446 0.930 . S
C457 C453 1.389 . S
C457 C456 1.371 . S
C458 H447 0.970 . S
C458 H448 0.970 . S
C458 C454 1.532 . S
C458 C459 1.499 . S
C459 C458 1.499 . S
C459 C460 1.370 . S
C459 C464 1.415 . S
C460 H449 0.930 . S
C460 C459 1.370 . S
C460 C461 1.407 . S
C461 C460 1.407 . S
C461 C462 1.365 . S
C462 H450 0.930 . S
C462 C461 1.365 . S
C462 C463 1.393 . S
C463 C462 1.393 . S
C463 C464 1.387 . S
C464 H451 0.930 . S
C464 C459 1.415 . S
C464 C463 1.387 . S
H465 C473 0.930 . S
H466 C476 0.930 . S
H467 C478 0.930 . S
H468 C479 0.970 . S
H469 C479 0.970 . S
H470 C481 0.930 . S
H471 C483 0.930 . S
H472 C485 0.930 . S
C473 H465 0.930 . S
C473 C474 1.382 . S
C473 C475 1.426 . S
C474 C473 1.382 . S
C474 C478 1.389 1_565 S
C475 C473 1.426 . S
C475 C476 1.375 . S
C475 C479 1.532 . S
C476 H466 0.930 . S
C476 C475 1.375 . S
C476 C477 1.416 . S
C477 C476 1.416 . S
C477 C478 1.371 1_565 S
C478 H467 0.930 . S
C478 C474 1.389 1_545 S
C478 C477 1.371 1_545 S
C479 H468 0.970 . S
C479 H469 0.970 . S
C479 C475 1.532 . S
C479 C480 1.499 . S
C480 C479 1.499 . S
C480 C481 1.370 . S
C480 C485 1.415 . S
C481 H470 0.930 . S
C481 C480 1.370 . S
C481 C482 1.443 . S
C482 C481 1.443 . S
C482 C483 1.350 1_565 S
C483 H471 0.930 . S
C483 C482 1.350 1_545 S
C483 C484 1.393 1_545 S
C484 C483 1.393 1_565 S
C484 C485 1.387 . S
C485 H472 0.930 . S
C485 C480 1.415 . S
C485 C484 1.387 . S
H486 C494 0.958 . S
H487 C497 0.930 . S
H488 C499 0.930 . S
H489 C500 0.970 . S
H490 C500 0.970 . S
H491 C502 0.930 1_565 S
H492 C504 0.930 . S
H493 C506 0.930 1_565 S
C494 H486 0.958 . S
C494 C495 1.336 1_565 S
C494 C496 1.445 . S
C495 C494 1.336 1_545 S
C495 C499 1.389 . S
C496 C494 1.445 . S
C496 C497 1.375 1_565 S
C496 C500 1.532 . S
C497 H487 0.930 . S
C497 C496 1.375 1_545 S
C497 C498 1.416 . S
C498 C497 1.416 . S
C498 C499 1.371 . S
C499 H488 0.930 . S
C499 C495 1.389 . S
C499 C498 1.371 . S
C500 H489 0.970 . S
C500 H490 0.970 . S
C500 C496 1.532 . S
C500 C501 1.499 . S
C501 C500 1.499 . S
C501 C502 1.370 1_565 S
C501 C506 1.415 1_565 S
C502 H491 0.930 1_545 S
C502 C501 1.370 1_545 S
C502 C503 1.407 . S
C503 C502 1.407 . S
C503 C504 1.365 . S
C504 H492 0.930 . S
C504 C503 1.365 . S
C504 C505 1.393 . S
C505 C504 1.393 . S
C505 C506 1.387 . S
C506 H493 0.930 1_545 S
C506 C501 1.415 1_545 S
C506 C505 1.387 . S
H507 C515 0.930 . S
H508 C518 0.930 . S
H509 C520 0.930 . S
H510 C521 0.970 . S
H511 C521 0.970 . S
H512 C523 0.930 . S
H513 C525 0.930 . S
H514 C527 0.930 . S
C515 H507 0.930 . S
C515 C516 1.382 . S
C515 C517 1.426 . S
C516 C515 1.382 . S
C516 C520 1.389 1_455 S
C517 C515 1.426 . S
C517 C518 1.375 . S
C517 C521 1.532 . S
C518 H508 0.930 . S
C518 C517 1.375 . S
C518 C519 1.421 . S
C519 C518 1.421 . S
C519 C520 1.381 1_455 S
C520 H509 0.930 . S
C520 C516 1.389 1_655 S
C520 C519 1.381 1_655 S
C521 H510 0.970 . S
C521 H511 0.970 . S
C521 C517 1.532 . S
C521 C522 1.499 . S
C522 C521 1.499 . S
C522 C523 1.370 . S
C522 C527 1.415 . S
C523 H512 0.930 . S
C523 C522 1.370 . S
C523 C524 1.407 . S
C524 C523 1.407 . S
C524 C525 1.365 1_455 S
C525 H513 0.930 . S
C525 C524 1.365 1_655 S
C525 C526 1.393 1_655 S
C526 C525 1.393 1_455 S
C526 C527 1.387 . S
C527 H514 0.930 . S
C527 C522 1.415 . S
C527 C526 1.387 . S
H528 C536 0.930 . S
H529 C539 0.930 . S
H530 C541 0.930 . S
H531 C542 0.970 . S
H532 C542 0.970 . S
H533 C544 0.930 . S
H534 C546 0.930 . S
H535 C548 0.930 . S
C536 H528 0.930 . S
C536 C537 1.382 . S
C536 C538 1.426 . S
C537 C536 1.382 . S
C537 C541 1.389 . S
C538 C536 1.426 . S
C538 C539 1.375 . S
C538 C542 1.532 . S
C539 H529 0.930 . S
C539 C538 1.375 . S
C539 C540 1.416 . S
C540 C539 1.416 . S
C540 C541 1.371 . S
C541 H530 0.930 . S
C541 C537 1.389 . S
C541 C540 1.371 . S
C542 H531 0.970 . S
C542 H532 0.970 . S
C542 C538 1.532 . S
C542 C543 1.499 . S
C543 C542 1.499 . S
C543 C544 1.370 . S
C543 C548 1.415 . S
C544 H533 0.930 . S
C544 C543 1.370 . S
C544 C545 1.407 . S
C545 C544 1.407 . S
C545 C546 1.365 . S
C546 H534 0.930 . S
C546 C545 1.365 . S
C546 C547 1.393 . S
C547 C546 1.393 . S
C547 C548 1.387 . S
C548 H535 0.930 . S
C548 C543 1.415 . S
C548 C547 1.387 . S
H549 C557 0.930 . S
H550 C560 0.930 . S
H551 C562 0.930 . S
H552 C563 0.970 . S
H553 C563 0.970 . S
H554 C565 0.930 . S
H555 C567 0.930 . S
H556 C569 0.930 . S
C557 H549 0.930 . S
C557 C558 1.382 . S
C557 C559 1.426 . S
C558 C557 1.382 . S
C558 C562 1.389 . S
C559 C557 1.426 . S
C559 C560 1.375 . S
C559 C563 1.532 . S
C560 H550 0.930 . S
C560 C559 1.375 . S
C560 C561 1.416 . S
C561 C560 1.416 . S
C561 C562 1.371 . S
C562 H551 0.930 . S
C562 C558 1.389 . S
C562 C561 1.371 . S
C563 H552 0.970 . S
C563 H553 0.970 . S
C563 C559 1.532 . S
C563 C564 1.499 . S
C564 C563 1.499 . S
C564 C565 1.370 . S
C564 C569 1.415 . S
C565 H554 0.930 . S
C565 C564 1.370 . S
C565 C566 1.407 . S
C566 C565 1.407 . S
C566 C567 1.365 . S
C567 H555 0.930 . S
C567 C566 1.365 . S
C567 C568 1.393 . S
C568 C567 1.393 . S
C568 C569 1.387 . S
C569 H556 0.930 . S
C569 C564 1.415 . S
C569 C568 1.387 . S
H570 C578 0.930 . S
H571 C581 0.930 . S
H572 C583 0.930 . S
H573 C584 0.970 . S
H574 C584 0.970 . S
H575 C586 0.930 . S
H576 C588 0.930 . S
H577 C590 0.930 . S
C578 H570 0.930 . S
C578 C579 1.382 . S
C578 C580 1.426 . S
C579 C578 1.382 . S
C579 C583 1.389 . S
C580 C578 1.426 . S
C580 C581 1.375 . S
C580 C584 1.532 . S
C581 H571 0.930 . S
C581 C580 1.375 . S
C581 C582 1.416 . S
C582 C581 1.416 . S
C582 C583 1.371 . S
C583 H572 0.930 . S
C583 C579 1.389 . S
C583 C582 1.371 . S
C584 H573 0.970 . S
C584 H574 0.970 . S
C584 C580 1.532 . S
C584 C585 1.499 . S
C585 C584 1.499 . S
C585 C586 1.370 . S
C585 C590 1.415 . S
C586 H575 0.930 . S
C586 C585 1.370 . S
C586 C587 1.407 . S
C587 C586 1.407 . S
C587 C588 1.365 . S
C588 H576 0.930 . S
C588 C587 1.365 . S
C588 C589 1.393 . S
C589 C588 1.393 . S
C589 C590 1.387 . S
C590 H577 0.930 . S
C590 C585 1.415 . S
C590 C589 1.387 . S
H591 C599 0.930 . S
H592 C602 0.930 . S
H593 C604 0.930 . S
H594 C605 0.970 . S
H595 C605 0.970 . S
H596 C607 0.930 . S
H597 C609 0.930 . S
H598 C611 0.930 . S
C599 H591 0.930 . S
C599 C600 1.382 . S
C599 C601 1.426 . S
C600 C599 1.382 . S
C600 C604 1.389 . S
C601 C599 1.426 . S
C601 C602 1.375 . S
C601 C605 1.532 . S
C602 H592 0.930 . S
C602 C601 1.375 . S
C602 C603 1.416 . S
C603 C602 1.416 . S
C603 C604 1.371 . S
C604 H593 0.930 . S
C604 C600 1.389 . S
C604 C603 1.371 . S
C605 H594 0.970 . S
C605 H595 0.970 . S
C605 C601 1.532 . S
C605 C606 1.499 . S
C606 C605 1.499 . S
C606 C607 1.370 . S
C606 C611 1.415 . S
C607 H596 0.930 . S
C607 C606 1.370 . S
C607 C608 1.407 . S
C608 C607 1.407 . S
C608 C609 1.365 . S
C609 H597 0.930 . S
C609 C608 1.365 . S
C609 C610 1.393 . S
C610 C609 1.393 . S
C610 C611 1.387 . S
C611 H598 0.930 . S
C611 C606 1.415 . S
C611 C610 1.387 . S
H612 C620 0.929 . S
H613 C622 0.930 . S
H614 C624 0.879 1_655 S
H615 C627 0.912 1_655 S
H616 C630 0.930 . S
H617 C632 0.960 . S
H618 C632 0.960 . S
H619 C632 0.960 . S
C620 H612 0.929 . S
C620 C621 1.377 . S
C620 C622 1.384 . S
C621 C620 1.377 . S
C621 C627 1.419 . S
C622 H613 0.930 . S
C622 C620 1.384 . S
C622 C623 1.372 . S
C623 C622 1.372 . S
C623 C624 1.430 . S
C623 C628 1.490 . S
C624 H614 0.879 1_455 S
C624 C623 1.430 . S
C624 C627 1.394 . S
H625 C641 0.861 1_655 S
H626 C642 0.957 . S
C627 H615 0.912 1_455 S
C627 C621 1.419 . S
C627 C624 1.394 . S
C628 C623 1.490 . S
C628 C630 1.395 . S
C628 C631 1.403 1_455 S
H629 C635 0.930 . S
C630 H616 0.930 . S
C630 C628 1.395 . S
C630 C633 1.403 . S
C631 C628 1.403 1_655 S
C631 C632 1.524 . S
C631 C635 1.400 . S
C632 H617 0.960 . S
C632 H618 0.960 . S
C632 H619 0.960 . S
C632 C631 1.524 . S
C633 C630 1.403 . S
C633 C634 1.392 . S
C633 C637 1.495 . S
C634 C633 1.392 . S
C634 C635 1.385 1_455 S
C634 C636 1.478 . S
C635 H629 0.930 . S
C635 C631 1.400 . S
C635 C634 1.385 1_655 S
C636 C634 1.478 . S
C636 C638 1.381 . S
C636 C642 1.383 . S
C637 C633 1.495 . S
C637 H643 0.959 . S
C637 H644 0.961 . S
C637 H645 0.960 . S
C638 C636 1.381 . S
C638 C639 1.394 . S
C638 H646 0.930 . S
C639 C638 1.394 . S
C639 C640 1.383 . S
C639 H647 0.929 . S
C640 C639 1.383 . S
C640 C641 1.377 . S
C641 H625 0.861 1_455 S
C641 C640 1.377 . S
C641 C642 1.379 . S
C642 H626 0.957 . S
C642 C636 1.383 . S
C642 C641 1.379 . S
H643 C637 0.959 . S
H644 C637 0.961 . S
H645 C637 0.960 . S
H646 C638 0.930 . S
H647 C639 0.929 . S
H648 C656 0.929 . S
H649 C658 0.930 . S
H650 C660 0.930 . S
H651 C663 0.929 . S
H652 C666 0.930 . S
H653 C668 0.960 . S
H654 C668 0.960 . S
H655 C668 0.960 . S
C656 H648 0.929 . S
C656 C657 1.377 . S
C656 C658 1.384 . S
C657 C656 1.377 . S
C657 C663 1.390 . S
C658 H649 0.930 . S
C658 C656 1.384 . S
C658 C659 1.372 . S
C659 C658 1.372 . S
C659 C660 1.400 . S
C659 C664 1.490 . S
C660 H650 0.930 . S
C660 C659 1.400 . S
C660 C663 1.386 . S
H661 C677 0.930 . S
H662 C678 0.931 . S
C663 H651 0.929 . S
C663 C657 1.390 . S
C663 C660 1.386 . S
C664 C659 1.490 . S
C664 C666 1.395 . S
C664 C667 1.403 . S
H665 C671 0.930 . S
C666 H652 0.930 . S
C666 C664 1.395 . S
C666 C669 1.403 . S
C667 C664 1.403 . S
C667 C668 1.524 . S
C667 C671 1.400 . S
C668 H653 0.960 . S
C668 H654 0.960 . S
C668 H655 0.960 . S
C668 C667 1.524 . S
C669 C666 1.403 . S
C669 C670 1.392 . S
C669 C673 1.495 . S
C670 C669 1.392 . S
C670 C671 1.385 . S
C670 C672 1.478 . S
C671 H665 0.930 . S
C671 C667 1.400 . S
C671 C670 1.385 . S
C672 C670 1.478 . S
C672 C674 1.381 . S
C672 C678 1.383 . S
C673 C669 1.495 . S
C673 H679 0.959 . S
C673 H680 0.961 . S
C673 H681 0.960 . S
C674 C672 1.381 . S
C674 C675 1.394 . S
C674 H682 0.930 . S
C675 C674 1.394 . S
C675 C676 1.383 . S
C675 H683 0.929 . S
C676 C675 1.383 . S
C676 C677 1.377 . S
C677 H661 0.930 . S
C677 C676 1.377 . S
C677 C678 1.379 . S
C678 H662 0.931 . S
C678 C672 1.383 . S
C678 C677 1.379 . S
H679 C673 0.959 . S
H680 C673 0.961 . S
H681 C673 0.960 . S
H682 C674 0.930 . S
H683 C675 0.929 . S
H684 C692 0.929 . S
H685 C694 0.930 . S
H686 C696 0.930 . S
H687 C699 0.929 . S
H688 C702 0.930 . S
H689 C704 0.960 . S
H690 C704 0.960 1_565 S
H691 C704 0.960 . S
C692 H684 0.929 . S
C692 C693 1.377 1_565 S
C692 C694 1.384 . S
C693 C692 1.377 1_545 S
C693 C699 1.390 . S
C694 H685 0.930 . S
C694 C692 1.384 . S
C694 C695 1.372 1_565 S
C695 C694 1.372 1_545 S
C695 C696 1.400 . S
C695 C700 1.490 . S
C696 H686 0.930 . S
C696 C695 1.400 . S
C696 C699 1.386 . S
H697 C713 0.930 . S
H698 C714 0.931 . S
C699 H687 0.929 . S
C699 C693 1.390 . S
C699 C696 1.386 . S
C700 C695 1.490 . S
C700 C702 1.395 . S
C700 C703 1.403 . S
H701 C707 0.930 . S
C702 H688 0.930 . S
C702 C700 1.395 . S
C702 C705 1.403 . S
C703 C700 1.403 . S
C703 C704 1.524 . S
C703 C707 1.400 . S
C704 H689 0.960 . S
C704 H690 0.960 1_545 S
C704 H691 0.960 . S
C704 C703 1.524 . S
C705 C702 1.403 . S
C705 C706 1.392 . S
C705 C709 1.495 . S
C706 C705 1.392 . S
C706 C707 1.385 . S
C706 C708 1.478 . S
C707 H701 0.930 . S
C707 C703 1.400 . S
C707 C706 1.385 . S
C708 C706 1.478 . S
C708 C710 1.381 1_545 S
C708 C714 1.383 . S
C709 C705 1.495 . S
C709 H715 0.959 . S
C709 H716 0.961 . S
C709 H717 0.960 1_545 S
C710 C708 1.381 1_565 S
C710 C711 1.394 . S
C710 H718 0.930 . S
C711 C710 1.394 . S
C711 C712 1.383 1_565 S
C711 H719 0.929 . S
C712 C711 1.383 1_545 S
C712 C713 1.377 . S
C713 H697 0.930 . S
C713 C712 1.377 . S
C713 C714 1.379 . S
C714 H698 0.931 . S
C714 C708 1.383 . S
C714 C713 1.379 . S
H715 C709 0.959 . S
H716 C709 0.961 . S
H717 C709 0.960 1_565 S
H718 C710 0.930 . S
H719 C711 0.929 . S
H720 C728 0.929 . S
H721 C730 0.930 . S
H722 C732 0.930 . S
H723 C735 0.929 . S
H724 C738 0.930 . S
H725 C740 0.960 . S
H726 C740 0.960 . S
H727 C740 0.960 . S
C728 H720 0.929 . S
C728 C729 1.377 . S
C728 C730 1.384 . S
C729 C728 1.377 . S
C729 C735 1.390 1_545 S
C730 H721 0.930 . S
C730 C728 1.384 . S
C730 C731 1.372 . S
C731 C730 1.372 . S
C731 C732 1.400 1_545 S
C731 C736 1.490 . S
C732 H722 0.930 . S
C732 C731 1.400 1_565 S
C732 C735 1.386 . S
H733 C749 0.930 . S
H734 C750 0.931 . S
C735 H723 0.929 . S
C735 C729 1.390 1_565 S
C735 C732 1.386 . S
C736 C731 1.490 . S
C736 C738 1.395 . S
C736 C739 1.403 . S
H737 C743 0.930 . S
C738 H724 0.930 . S
C738 C736 1.395 . S
C738 C741 1.403 . S
C739 C736 1.403 . S
C739 C740 1.524 . S
C739 C743 1.400 . S
C740 H725 0.960 . S
C740 H726 0.960 . S
C740 H727 0.960 . S
C740 C739 1.524 . S
C741 C738 1.403 . S
C741 C742 1.392 . S
C741 C745 1.495 . S
C742 C741 1.392 . S
C742 C743 1.385 . S
C742 C744 1.478 . S
C743 H737 0.930 . S
C743 C739 1.400 . S
C743 C742 1.385 . S
C744 C742 1.478 . S
C744 C746 1.381 . S
C744 C750 1.383 1_545 S
C745 C741 1.495 . S
C745 H751 0.959 . S
C745 H752 0.961 1_545 S
C745 H753 0.960 . S
C746 C744 1.381 . S
C746 C747 1.394 . S
C746 H754 0.930 . S
C747 C746 1.394 . S
C747 C748 1.383 . S
C747 H755 0.929 . S
C748 C747 1.383 . S
C748 C749 1.377 1_545 S
C749 H733 0.930 . S
C749 C748 1.377 1_565 S
C749 C750 1.379 . S
C750 H734 0.931 . S
C750 C744 1.383 1_565 S
C750 C749 1.379 . S
H751 C745 0.959 . S
H752 C745 0.961 1_565 S
H753 C745 0.960 . S
H754 C746 0.930 . S
H755 C747 0.929 . S
H756 C764 0.929 . S
H757 C766 0.930 . S
H758 C768 0.930 . S
H759 C771 0.929 . S
H760 C774 0.930 . S
H761 C776 0.960 . S
H762 C776 0.960 . S
H763 C776 0.960 . S
C764 H756 0.929 . S
C764 C765 1.377 . S
C764 C766 1.384 . S
C765 C764 1.377 . S
C765 C771 1.390 . S
C766 H757 0.930 . S
C766 C764 1.384 . S
C766 C767 1.372 . S
C767 C766 1.372 . S
C767 C768 1.400 . S
C767 C772 1.490 . S
C768 H758 0.930 . S
C768 C767 1.400 . S
C768 C771 1.386 . S
H769 C785 0.921 . S
H770 C786 0.923 1_655 S
C771 H759 0.929 . S
C771 C765 1.390 . S
C771 C768 1.386 . S
C772 C767 1.490 . S
C772 C774 1.395 1_455 S
C772 C775 1.403 . S
H773 C779 0.930 . S
C774 H760 0.930 . S
C774 C772 1.395 1_655 S
C774 C777 1.403 . S
C775 C772 1.403 . S
C775 C776 1.524 . S
C775 C779 1.400 . S
C776 H761 0.960 . S
C776 H762 0.960 . S
C776 H763 0.960 . S
C776 C775 1.524 . S
C777 C774 1.403 . S
C777 C778 1.371 1_655 S
C777 C781 1.495 . S
C778 C777 1.371 1_455 S
C778 C779 1.439 . S
C778 C780 1.464 . S
C779 H773 0.930 . S
C779 C775 1.400 . S
C779 C778 1.439 . S
C780 C778 1.464 . S
C780 C782 1.387 . S
C780 C786 1.364 . S
C781 C777 1.495 . S
C781 H787 0.959 . S
C781 H788 0.961 . S
C781 H789 0.960 . S
C782 C780 1.387 . S
C782 C783 1.394 . S
C782 H790 0.930 . S
C783 C782 1.394 . S
C783 C784 1.383 . S
C783 H791 0.929 . S
C784 C783 1.383 . S
C784 C785 1.391 . S
C785 H769 0.921 . S
C785 C784 1.391 . S
C785 C786 1.409 . S
C786 H770 0.923 1_455 S
C786 C780 1.364 . S
C786 C785 1.409 . S
H787 C781 0.959 . S
H788 C781 0.961 . S
H789 C781 0.960 . S
H790 C782 0.930 . S
H791 C783 0.929 . S
H792 C800 0.929 . S
H793 C802 0.930 . S
H794 C804 0.930 . S
H795 C807 0.929 . S
H796 C810 0.930 . S
H797 C812 0.960 . S
H798 C812 0.960 . S
H799 C812 0.960 . S
C800 H792 0.929 . S
C800 C801 1.377 . S
C800 C802 1.384 . S
C801 C800 1.377 . S
C801 C807 1.390 . S
C802 H793 0.930 . S
C802 C800 1.384 . S
C802 C803 1.372 . S
C803 C802 1.372 . S
C803 C804 1.400 . S
C803 C808 1.490 . S
C804 H794 0.930 . S
C804 C803 1.400 . S
C804 C807 1.386 . S
H805 C821 0.930 . S
H806 C822 0.931 . S
C807 H795 0.929 . S
C807 C801 1.390 . S
C807 C804 1.386 . S
C808 C803 1.490 . S
C808 C810 1.395 . S
C808 C811 1.403 . S
H809 C815 0.930 . S
C810 H796 0.930 . S
C810 C808 1.395 . S
C810 C813 1.403 . S
C811 C808 1.403 . S
C811 C812 1.524 . S
C811 C815 1.400 . S
C812 H797 0.960 . S
C812 H798 0.960 . S
C812 H799 0.960 . S
C812 C811 1.524 . S
C813 C810 1.403 . S
C813 C814 1.392 . S
C813 C817 1.495 . S
C814 C813 1.392 . S
C814 C815 1.385 . S
C814 C816 1.478 . S
C815 H809 0.930 . S
C815 C811 1.400 . S
C815 C814 1.385 . S
C816 C814 1.478 . S
C816 C818 1.381 . S
C816 C822 1.383 . S
C817 C813 1.495 . S
C817 H823 0.959 . S
C817 H824 0.961 . S
C817 H825 0.960 . S
C818 C816 1.381 . S
C818 C819 1.394 . S
C818 H826 0.930 . S
C819 C818 1.394 . S
C819 C820 1.383 . S
C819 H827 0.929 . S
C820 C819 1.383 . S
C820 C821 1.377 . S
C821 H805 0.930 . S
C821 C820 1.377 . S
C821 C822 1.379 . S
C822 H806 0.931 . S
C822 C816 1.383 . S
C822 C821 1.379 . S
H823 C817 0.959 . S
H824 C817 0.961 . S
H825 C817 0.960 . S
H826 C818 0.930 . S
H827 C819 0.929 . S
H828 C836 0.929 . S
H829 C838 0.930 . S
H830 C840 0.930 . S
H831 C843 0.929 . S
H832 C846 0.930 . S
H833 C848 0.960 . S
H834 C848 0.960 . S
H835 C848 0.960 . S
C836 H828 0.929 . S
C836 C837 1.377 . S
C836 C838 1.384 . S
C837 C836 1.377 . S
C837 C843 1.390 1_455 S
C838 H829 0.930 . S
C838 C836 1.384 . S
C838 C839 1.372 . S
C839 C838 1.372 . S
C839 C840 1.400 1_455 S
C839 C844 1.490 . S
C840 H830 0.930 . S
C840 C839 1.400 1_655 S
C840 C843 1.386 . S
H841 C857 0.930 . S
H842 C858 0.931 . S
C843 H831 0.929 . S
C843 C837 1.390 1_655 S
C843 C840 1.386 . S
C844 C839 1.490 . S
C844 C846 1.395 . S
C844 C847 1.403 1_455 S
H845 C851 0.930 . S
C846 H832 0.930 . S
C846 C844 1.395 . S
C846 C849 1.403 . S
C847 C844 1.403 1_655 S
C847 C848 1.524 . S
C847 C851 1.400 . S
C848 H833 0.960 . S
C848 H834 0.960 . S
C848 H835 0.960 . S
C848 C847 1.524 . S
C849 C846 1.403 . S
C849 C850 1.392 . S
C849 C853 1.495 . S
C850 C849 1.392 . S
C850 C851 1.385 1_455 S
C850 C852 1.478 . S
C851 H845 0.930 . S
C851 C847 1.400 . S
C851 C850 1.385 1_655 S
C852 C850 1.478 . S
C852 C854 1.381 . S
C852 C858 1.383 1_455 S
C853 C849 1.495 . S
C853 H859 0.959 . S
C853 H860 0.961 . S
C853 H861 0.960 . S
C854 C852 1.381 . S
C854 C855 1.394 . S
C854 H862 0.930 . S
C855 C854 1.394 . S
C855 C856 1.383 . S
C855 H863 0.929 . S
C856 C855 1.383 . S
C856 C857 1.377 1_455 S
C857 H841 0.930 . S
C857 C856 1.377 1_655 S
C857 C858 1.379 . S
C858 H842 0.931 . S
C858 C852 1.383 1_655 S
C858 C857 1.379 . S
H859 C853 0.959 . S
H860 C853 0.961 . S
H861 C853 0.960 . S
H862 C854 0.930 . S
H863 C855 0.929 . S
H864 C872 0.929 . S
H865 C874 0.930 . S
H866 C876 0.930 . S
H867 C879 0.929 . S
H868 C882 0.930 . S
H869 C884 0.960 . S
H870 C884 0.960 . S
H871 C884 0.960 . S
C872 H864 0.929 . S
C872 C873 1.377 . S
C872 C874 1.384 . S
C873 C872 1.377 . S
C873 C879 1.390 . S
C874 H865 0.930 . S
C874 C872 1.384 . S
C874 C875 1.372 . S
C875 C874 1.372 . S
C875 C876 1.400 . S
C875 C880 1.490 . S
C876 H866 0.930 . S
C876 C875 1.400 . S
C876 C879 1.386 . S
H877 C893 0.930 . S
H878 C894 0.931 . S
C879 H867 0.929 . S
C879 C873 1.390 . S
C879 C876 1.386 . S
C880 C875 1.490 . S
C880 C882 1.395 . S
C880 C883 1.403 . S
H881 C887 0.930 . S
C882 H868 0.930 . S
C882 C880 1.395 . S
C882 C885 1.403 . S
C883 C880 1.403 . S
C883 C884 1.524 . S
C883 C887 1.400 . S
C884 H869 0.960 . S
C884 H870 0.960 . S
C884 H871 0.960 . S
C884 C883 1.524 . S
C885 C882 1.403 . S
C885 C886 1.392 . S
C885 C889 1.495 . S
C886 C885 1.392 . S
C886 C887 1.385 . S
C886 C888 1.478 . S
C887 H881 0.930 . S
C887 C883 1.400 . S
C887 C886 1.385 . S
C888 C886 1.478 . S
C888 C890 1.381 . S
C888 C894 1.383 . S
C889 C885 1.495 . S
C889 H895 0.959 . S
C889 H896 0.961 . S
C889 H897 0.960 . S
C890 C888 1.381 . S
C890 C891 1.394 . S
C890 H898 0.930 . S
C891 C890 1.394 . S
C891 C892 1.383 . S
C891 H899 0.929 . S
C892 C891 1.383 . S
C892 C893 1.377 . S
C893 H877 0.930 . S
C893 C892 1.377 . S
C893 C894 1.379 . S
C894 H878 0.931 . S
C894 C888 1.383 . S
C894 C893 1.379 . S
H895 C889 0.959 . S
H896 C889 0.961 . S
H897 C889 0.960 . S
H898 C890 0.930 . S
H899 C891 0.929 . S
H900 C908 0.929 . S
H901 C910 0.930 . S
H902 C912 0.930 . S
H903 C915 0.929 . S
H904 C918 0.930 . S
H905 C920 0.960 . S
H906 C920 0.960 . S
H907 C920 0.960 . S
C908 H900 0.929 . S
C908 C909 1.377 . S
C908 C910 1.384 . S
C909 C908 1.377 . S
C909 C915 1.390 . S
C910 H901 0.930 . S
C910 C908 1.384 . S
C910 C911 1.372 . S
C911 C910 1.372 . S
C911 C912 1.400 . S
C911 C916 1.490 . S
C912 H902 0.930 . S
C912 C911 1.400 . S
C912 C915 1.386 . S
H913 C929 0.930 . S
H914 C930 0.931 . S
C915 H903 0.929 . S
C915 C909 1.390 . S
C915 C912 1.386 . S
C916 C911 1.490 . S
C916 C918 1.395 . S
C916 C919 1.425 . S
H917 C923 0.930 1_565 S
C918 H904 0.930 . S
C918 C916 1.395 . S
C918 C921 1.403 . S
C919 C916 1.425 . S
C919 C920 1.482 1_545 S
C919 C923 1.422 . S
C920 H905 0.960 . S
C920 H906 0.960 . S
C920 H907 0.960 . S
C920 C919 1.482 1_565 S
C921 C918 1.403 . S
C921 C922 1.392 . S
C921 C925 1.495 . S
C922 C921 1.392 . S
C922 C923 1.385 . S
C922 C924 1.478 . S
C923 H917 0.930 1_545 S
C923 C919 1.422 . S
C923 C922 1.385 . S
C924 C922 1.478 . S
C924 C926 1.381 . S
C924 C930 1.383 . S
C925 C921 1.495 . S
C925 H931 0.959 . S
C925 H932 0.961 . S
C925 H933 0.960 . S
C926 C924 1.381 . S
C926 C927 1.394 . S
C926 H934 0.930 . S
C927 C926 1.394 . S
C927 C928 1.383 . S
C927 H935 0.929 . S
C928 C927 1.383 . S
C928 C929 1.377 . S
C929 H913 0.930 . S
C929 C928 1.377 . S
C929 C930 1.379 . S
C930 H914 0.931 . S
C930 C924 1.383 . S
C930 C929 1.379 . S
H931 C925 0.959 . S
H932 C925 0.961 . S
H933 C925 0.960 . S
H934 C926 0.930 . S
H935 C927 0.929 . S
H936 C944 0.929 . S
H937 C946 0.930 . S
H938 C948 0.930 . S
H939 C951 0.929 . S
H940 C954 0.930 . S
H941 C956 0.960 . S
H942 C956 0.960 . S
H943 C956 0.960 . S
C944 H936 0.929 . S
C944 C945 1.377 1_565 S
C944 C946 1.384 . S
C945 C944 1.377 1_545 S
C945 C951 1.390 . S
C946 H937 0.930 . S
C946 C944 1.384 . S
C946 C947 1.372 1_565 S
C947 C946 1.372 1_545 S
C947 C948 1.400 . S
C947 C952 1.490 . S
C948 H938 0.930 . S
C948 C947 1.400 . S
C948 C951 1.386 . S
H949 C965 0.930 . S
H950 C966 0.931 . S
C951 H939 0.929 . S
C951 C945 1.390 . S
C951 C948 1.386 . S
C952 C947 1.490 . S
C952 C954 1.395 1_545 S
C952 C955 1.403 . S
H953 C959 0.930 . S
C954 H940 0.930 . S
C954 C952 1.395 1_565 S
C954 C957 1.403 . S
C955 C952 1.403 . S
C955 C956 1.524 . S
C955 C959 1.400 . S
C956 H941 0.960 . S
C956 H942 0.960 . S
C956 H943 0.960 . S
C956 C955 1.524 . S
C957 C954 1.403 . S
C957 C958 1.388 . S
C957 C961 1.495 . S
C958 C957 1.388 . S
C958 C959 1.387 1_565 S
C958 C960 1.481 . S
C959 H953 0.930 . S
C959 C955 1.400 . S
C959 C958 1.387 1_545 S
C960 C958 1.481 . S
C960 C962 1.384 . S
C960 C966 1.378 1_565 S
C961 C957 1.495 . S
C961 H967 0.959 . S
C961 H968 0.961 . S
C961 H969 0.960 . S
C962 C960 1.384 . S
C962 C963 1.394 . S
C962 H970 0.930 . S
C963 C962 1.394 . S
C963 C964 1.376 1_565 S
C963 H971 0.929 . S
C964 C963 1.376 1_545 S
C964 C965 1.381 . S
C965 H949 0.930 . S
C965 C964 1.381 . S
C965 C966 1.379 . S
C966 H950 0.931 . S
C966 C960 1.378 1_545 S
C966 C965 1.379 . S
H967 C961 0.959 . S
H968 C961 0.961 . S
H969 C961 0.960 . S
H970 C962 0.930 . S
H971 C963 0.929 . S
H972 C980 0.929 . S
H973 C982 0.930 . S
H974 C984 0.930 . S
H975 C987 0.929 . S
H976 C990 0.930 . S
H977 C992 0.960 . S
H978 C992 0.960 . S
H979 C992 0.960 . S
C980 H972 0.929 . S
C980 C981 1.377 1_655 S
C980 C982 1.384 . S
C981 C980 1.377 1_455 S
C981 C987 1.390 . S
C982 H973 0.930 . S
C982 C980 1.384 . S
C982 C983 1.372 1_655 S
C983 C982 1.372 1_455 S
C983 C984 1.400 . S
C983 C988 1.490 . S
C984 H974 0.930 . S
C984 C983 1.400 . S
C984 C987 1.386 . S
H985 C1001 0.930 . S
H986 C1002 0.931 . S
C987 H975 0.929 . S
C987 C981 1.390 . S
C987 C984 1.386 . S
C988 C983 1.490 . S
C988 C990 1.395 . S
C988 C991 1.403 . S
H989 C995 0.930 . S
C990 H976 0.930 . S
C990 C988 1.395 . S
C990 C993 1.403 . S
C991 C988 1.403 . S
C991 C992 1.524 . S
C991 C995 1.400 . S
C992 H977 0.960 . S
C992 H978 0.960 . S
C992 H979 0.960 . S
C992 C991 1.524 . S
C993 C990 1.403 . S
C993 C994 1.392 . S
C993 C997 1.495 . S
C994 C993 1.392 . S
C994 C995 1.385 . S
C994 C996 1.478 . S
C995 H989 0.930 . S
C995 C991 1.400 . S
C995 C994 1.385 . S
C996 C994 1.478 . S
C996 C998 1.381 1_455 S
C996 C1002 1.383 . S
C997 C993 1.495 . S
C997 H1003 0.959 . S
C997 H1004 0.961 . S
C997 H1005 0.960 1_455 S
C998 C996 1.381 1_655 S
C998 C999 1.394 . S
C998 H1006 0.930 . S
C999 C998 1.394 . S
C999 C1000 1.383 1_655 S
C999 H1007 0.929 . S
C1000 C999 1.383 1_455 S
C1000 C1001 1.377 . S
C1001 H985 0.930 . S
C1001 C1000 1.377 . S
C1001 C1002 1.379 . S
C1002 H986 0.931 . S
C1002 C996 1.383 . S
C1002 C1001 1.379 . S
H1003 C997 0.959 . S
H1004 C997 0.961 . S
H1005 C997 0.960 1_655 S
H1006 C998 0.930 . S
H1007 C999 0.929 . S
H1008 C1016 0.929 . S
H1009 C1018 0.930 . S
H1010 C1020 0.930 . S
H1011 C1023 0.929 . S
H1012 C1026 0.930 . S
H1013 C1028 0.960 . S
H1014 C1028 0.960 . S
H1015 C1028 0.960 . S
C1016 H1008 0.929 . S
C1016 C1017 1.377 . S
C1016 C1018 1.384 . S
C1017 C1016 1.377 . S
C1017 C1023 1.390 . S
C1018 H1009 0.930 . S
C1018 C1016 1.384 . S
C1018 C1019 1.372 . S
C1019 C1018 1.372 . S
C1019 C1020 1.400 . S
C1019 C1024 1.490 . S
C1020 H1010 0.930 . S
C1020 C1019 1.400 . S
C1020 C1023 1.386 . S
H1021 C1037 0.930 . S
H1022 C1038 0.931 . S
C1023 H1011 0.929 . S
C1023 C1017 1.390 . S
C1023 C1020 1.386 . S
C1024 C1019 1.490 . S
C1024 C1026 1.395 . S
C1024 C1027 1.403 . S
H1025 C1031 0.930 . S
C1026 H1012 0.930 . S
C1026 C1024 1.395 . S
C1026 C1029 1.403 . S
C1027 C1024 1.403 . S
C1027 C1028 1.524 . S
C1027 C1031 1.400 . S
C1028 H1013 0.960 . S
C1028 H1014 0.960 . S
C1028 H1015 0.960 . S
C1028 C1027 1.524 . S
C1029 C1026 1.403 . S
C1029 C1030 1.392 . S
C1029 C1033 1.495 . S
C1030 C1029 1.392 . S
C1030 C1031 1.385 . S
C1030 C1032 1.478 . S
C1031 H1025 0.930 . S
C1031 C1027 1.400 . S
C1031 C1030 1.385 . S
C1032 C1030 1.478 . S
C1032 C1034 1.381 . S
C1032 C1038 1.383 . S
C1033 C1029 1.495 . S
C1033 H1039 0.959 . S
C1033 H1040 0.961 . S
C1033 H1041 0.960 . S
C1034 C1032 1.381 . S
C1034 C1035 1.394 . S
C1034 H1042 0.930 . S
C1035 C1034 1.394 . S
C1035 C1036 1.383 . S
C1035 H1043 0.929 . S
C1036 C1035 1.383 . S
C1036 C1037 1.377 . S
C1037 H1021 0.930 . S
C1037 C1036 1.377 . S
C1037 C1038 1.379 . S
C1038 H1022 0.931 . S
C1038 C1032 1.383 . S
C1038 C1037 1.379 . S
H1039 C1033 0.959 . S
H1040 C1033 0.961 . S
H1041 C1033 0.960 . S
H1042 C1034 0.930 . S
H1043 C1035 0.929 . S
H1044 C1052 0.929 . S
H1045 C1054 0.930 . S
H1046 C1056 0.930 . S
H1047 C1059 0.929 . S
H1048 C1062 0.930 . S
H1049 C1064 0.960 . S
H1050 C1064 0.960 . S
H1051 C1064 0.960 . S
C1052 H1044 0.929 . S
C1052 C1053 1.377 . S
C1052 C1054 1.384 . S
C1053 C1052 1.377 . S
C1053 C1059 1.390 . S
C1054 H1045 0.930 . S
C1054 C1052 1.384 . S
C1054 C1055 1.372 . S
C1055 C1054 1.372 . S
C1055 C1056 1.400 . S
C1055 C1060 1.490 . S
C1056 H1046 0.930 . S
C1056 C1055 1.400 . S
C1056 C1059 1.386 . S
H1057 C1073 0.930 . S
H1058 C1074 0.931 . S
C1059 H1047 0.929 . S
C1059 C1053 1.390 . S
C1059 C1056 1.386 . S
C1060 C1055 1.490 . S
C1060 C1062 1.395 . S
C1060 C1063 1.403 . S
H1061 C1067 0.930 . S
C1062 H1048 0.930 . S
C1062 C1060 1.395 . S
C1062 C1065 1.403 . S
C1063 C1060 1.403 . S
C1063 C1064 1.524 . S
C1063 C1067 1.400 . S
C1064 H1049 0.960 . S
C1064 H1050 0.960 . S
C1064 H1051 0.960 . S
C1064 C1063 1.524 . S
C1065 C1062 1.403 . S
C1065 C1066 1.392 . S
C1065 C1069 1.495 . S
C1066 C1065 1.392 . S
C1066 C1067 1.385 . S
C1066 C1068 1.478 . S
C1067 H1061 0.930 . S
C1067 C1063 1.400 . S
C1067 C1066 1.385 . S
C1068 C1066 1.478 . S
C1068 C1070 1.381 . S
C1068 C1074 1.383 . S
C1069 C1065 1.495 . S
C1069 H1075 0.959 . S
C1069 H1076 0.961 . S
C1069 H1077 0.960 . S
C1070 C1068 1.381 . S
C1070 C1071 1.394 . S
C1070 H1078 0.930 . S
C1071 C1070 1.394 . S
C1071 C1072 1.383 . S
C1071 H1079 0.929 . S
C1072 C1071 1.383 . S
C1072 C1073 1.377 . S
C1073 H1057 0.930 . S
C1073 C1072 1.377 . S
C1073 C1074 1.379 . S
C1074 H1058 0.931 . S
C1074 C1068 1.383 . S
C1074 C1073 1.379 . S
H1075 C1069 0.959 . S
H1076 C1069 0.961 . S
H1077 C1069 0.960 . S
H1078 C1070 0.930 . S
H1079 C1071 0.929 . S
H1080 C1088 0.929 . S
H1081 C1090 0.930 . S
H1082 C1092 0.930 . S
H1083 C1095 0.929 . S
H1084 C1098 0.930 . S
H1085 C1100 0.960 . S
H1086 C1100 0.960 . S
H1087 C1100 0.960 . S
C1088 H1080 0.929 . S
C1088 C1089 1.377 . S
C1088 C1090 1.384 . S
C1089 C1088 1.377 . S
C1089 C1095 1.390 . S
C1090 H1081 0.930 . S
C1090 C1088 1.384 . S
C1090 C1091 1.372 . S
C1091 C1090 1.372 . S
C1091 C1092 1.400 . S
C1091 C1096 1.490 . S
C1092 H1082 0.930 . S
C1092 C1091 1.400 . S
C1092 C1095 1.386 . S
H1093 C1109 0.930 . S
H1094 C1110 0.931 . S
C1095 H1083 0.929 . S
C1095 C1089 1.390 . S
C1095 C1092 1.386 . S
C1096 C1091 1.490 . S
C1096 C1098 1.395 . S
C1096 C1099 1.403 . S
H1097 C1103 0.930 . S
C1098 H1084 0.930 . S
C1098 C1096 1.395 . S
C1098 C1101 1.403 . S
C1099 C1096 1.403 . S
C1099 C1100 1.524 . S
C1099 C1103 1.400 . S
C1100 H1085 0.960 . S
C1100 H1086 0.960 . S
C1100 H1087 0.960 . S
C1100 C1099 1.524 . S
C1101 C1098 1.403 . S
C1101 C1102 1.392 . S
C1101 C1105 1.495 . S
C1102 C1101 1.392 . S
C1102 C1103 1.385 . S
C1102 C1104 1.478 . S
C1103 H1097 0.930 . S
C1103 C1099 1.400 . S
C1103 C1102 1.385 . S
C1104 C1102 1.478 . S
C1104 C1106 1.381 . S
C1104 C1110 1.383 . S
C1105 C1101 1.495 . S
C1105 H1111 0.959 . S
C1105 H1112 0.961 . S
C1105 H1113 0.960 . S
C1106 C1104 1.381 . S
C1106 C1107 1.394 . S
C1106 H1114 0.930 . S
C1107 C1106 1.394 . S
C1107 C1108 1.383 . S
C1107 H1115 0.929 . S
C1108 C1107 1.383 . S
C1108 C1109 1.377 . S
C1109 H1093 0.930 . S
C1109 C1108 1.377 . S
C1109 C1110 1.379 . S
C1110 H1094 0.931 . S
C1110 C1104 1.383 . S
C1110 C1109 1.379 . S
H1111 C1105 0.959 . S
H1112 C1105 0.961 . S
H1113 C1105 0.960 . S
H1114 C1106 0.930 . S
H1115 C1107 0.929 . S
H1116 C1124 0.929 . S
H1117 C1126 0.930 . S
H1118 C1128 0.930 . S
H1119 C1131 0.929 . S
H1120 C1134 0.930 . S
H1121 C1136 0.960 . S
H1122 C1136 0.960 . S
H1123 C1136 0.960 . S
C1124 H1116 0.929 . S
C1124 C1125 1.377 . S
C1124 C1126 1.384 . S
C1125 C1124 1.377 . S
C1125 C1131 1.390 . S
C1126 H1117 0.930 . S
C1126 C1124 1.384 . S
C1126 C1127 1.372 . S
C1127 C1126 1.372 . S
C1127 C1128 1.400 . S
C1127 C1132 1.490 . S
C1128 H1118 0.930 . S
C1128 C1127 1.400 . S
C1128 C1131 1.386 . S
H1129 C1145 0.930 . S
H1130 C1146 0.931 . S
C1131 H1119 0.929 . S
C1131 C1125 1.390 . S
C1131 C1128 1.386 . S
C1132 C1127 1.490 . S
C1132 C1134 1.395 . S
C1132 C1135 1.403 . S
H1133 C1139 0.930 . S
C1134 H1120 0.930 . S
C1134 C1132 1.395 . S
C1134 C1137 1.403 . S
C1135 C1132 1.403 . S
C1135 C1136 1.524 . S
C1135 C1139 1.400 . S
C1136 H1121 0.960 . S
C1136 H1122 0.960 . S
C1136 H1123 0.960 . S
C1136 C1135 1.524 . S
C1137 C1134 1.403 . S
C1137 C1138 1.392 . S
C1137 C1141 1.495 . S
C1138 C1137 1.392 . S
C1138 C1139 1.385 . S
C1138 C1140 1.478 . S
C1139 H1133 0.930 . S
C1139 C1135 1.400 . S
C1139 C1138 1.385 . S
C1140 C1138 1.478 . S
C1140 C1142 1.381 . S
C1140 C1146 1.383 . S
C1141 C1137 1.495 . S
C1141 H1147 0.959 . S
C1141 H1148 0.961 . S
C1141 H1149 0.960 . S
C1142 C1140 1.381 . S
C1142 C1143 1.394 . S
C1142 H1150 0.930 . S
C1143 C1142 1.394 . S
C1143 C1144 1.383 . S
C1143 H1151 0.929 . S
C1144 C1143 1.383 . S
C1144 C1145 1.377 . S
C1145 H1129 0.930 . S
C1145 C1144 1.377 . S
C1145 C1146 1.379 . S
C1146 H1130 0.931 . S
C1146 C1140 1.383 . S
C1146 C1145 1.379 . S
H1147 C1141 0.959 . S
H1148 C1141 0.961 . S
H1149 C1141 0.960 . S
H1150 C1142 0.930 . S
H1151 C1143 0.929 . S
H1152 C1160 0.929 . S
H1153 C1162 0.930 . S
H1154 C1164 0.930 . S
H1155 C1167 0.929 . S
H1156 C1170 0.930 . S
H1157 C1172 0.960 . S
H1158 C1172 0.960 . S
H1159 C1172 0.960 . S
C1160 H1152 0.929 . S
C1160 C1161 1.377 . S
C1160 C1162 1.384 . S
C1161 C1160 1.377 . S
C1161 C1167 1.390 . S
C1162 H1153 0.930 . S
C1162 C1160 1.384 . S
C1162 C1163 1.372 . S
C1163 C1162 1.372 . S
C1163 C1164 1.400 . S
C1163 C1168 1.490 . S
C1164 H1154 0.930 . S
C1164 C1163 1.400 . S
C1164 C1167 1.386 . S
H1165 C1181 0.930 . S
H1166 C1182 0.931 . S
C1167 H1155 0.929 . S
C1167 C1161 1.390 . S
C1167 C1164 1.386 . S
C1168 C1163 1.490 . S
C1168 C1170 1.395 . S
C1168 C1171 1.403 . S
H1169 C1175 0.930 . S
C1170 H1156 0.930 . S
C1170 C1168 1.395 . S
C1170 C1173 1.403 . S
C1171 C1168 1.403 . S
C1171 C1172 1.524 . S
C1171 C1175 1.400 . S
C1172 H1157 0.960 . S
C1172 H1158 0.960 . S
C1172 H1159 0.960 . S
C1172 C1171 1.524 . S
C1173 C1170 1.403 . S
C1173 C1174 1.392 . S
C1173 C1177 1.495 . S
C1174 C1173 1.392 . S
C1174 C1175 1.385 . S
C1174 C1176 1.478 . S
C1175 H1169 0.930 . S
C1175 C1171 1.400 . S
C1175 C1174 1.385 . S
C1176 C1174 1.478 . S
C1176 C1178 1.381 . S
C1176 C1182 1.383 . S
C1177 C1173 1.495 . S
C1177 H1183 0.959 . S
C1177 H1184 0.961 . S
C1177 H1185 0.960 . S
C1178 C1176 1.381 . S
C1178 C1179 1.394 . S
C1178 H1186 0.930 . S
C1179 C1178 1.394 . S
C1179 C1180 1.383 . S
C1179 H1187 0.929 . S
C1180 C1179 1.383 . S
C1180 C1181 1.377 . S
C1181 H1165 0.930 . S
C1181 C1180 1.377 . S
C1181 C1182 1.379 . S
C1182 H1166 0.931 . S
C1182 C1176 1.383 . S
C1182 C1181 1.379 . S
H1183 C1177 0.959 . S
H1184 C1177 0.961 . S
H1185 C1177 0.960 . S
H1186 C1178 0.930 . S
H1187 C1179 0.929 . S
H1188 C1196 0.929 . S
H1189 C1198 0.930 . S
H1190 C1200 0.930 . S
H1191 C1203 0.929 . S
H1192 C1206 0.930 . S
H1193 C1208 0.960 . S
H1194 C1208 0.960 . S
H1195 C1208 0.960 . S
C1196 H1188 0.929 . S
C1196 C1197 1.377 . S
C1196 C1198 1.384 . S
C1197 C1196 1.377 . S
C1197 C1203 1.390 . S
C1198 H1189 0.930 . S
C1198 C1196 1.384 . S
C1198 C1199 1.372 . S
C1199 C1198 1.372 . S
C1199 C1200 1.400 . S
C1199 C1204 1.490 . S
C1200 H1190 0.930 . S
C1200 C1199 1.400 . S
C1200 C1203 1.386 . S
H1201 C1217 0.930 . S
H1202 C1218 0.931 . S
C1203 H1191 0.929 . S
C1203 C1197 1.390 . S
C1203 C1200 1.386 . S
C1204 C1199 1.490 . S
C1204 C1206 1.395 . S
C1204 C1207 1.403 . S
H1205 C1211 0.930 . S
C1206 H1192 0.930 . S
C1206 C1204 1.395 . S
C1206 C1209 1.403 . S
C1207 C1204 1.403 . S
C1207 C1208 1.524 . S
C1207 C1211 1.400 . S
C1208 H1193 0.960 . S
C1208 H1194 0.960 . S
C1208 H1195 0.960 . S
C1208 C1207 1.524 . S
C1209 C1206 1.403 . S
C1209 C1210 1.392 . S
C1209 C1213 1.495 . S
C1210 C1209 1.392 . S
C1210 C1211 1.385 . S
C1210 C1212 1.478 . S
C1211 H1205 0.930 . S
C1211 C1207 1.400 . S
C1211 C1210 1.385 . S
C1212 C1210 1.478 . S
C1212 C1214 1.381 . S
C1212 C1218 1.383 . S
C1213 C1209 1.495 . S
C1213 H1219 0.959 . S
C1213 H1220 0.961 . S
C1213 H1221 0.960 . S
C1214 C1212 1.381 . S
C1214 C1215 1.394 . S
C1214 H1222 0.930 . S
C1215 C1214 1.394 . S
C1215 C1216 1.383 . S
C1215 H1223 0.929 . S
C1216 C1215 1.383 . S
C1216 C1217 1.377 . S
C1217 H1201 0.930 . S
C1217 C1216 1.377 . S
C1217 C1218 1.379 . S
C1218 H1202 0.931 . S
C1218 C1212 1.383 . S
C1218 C1217 1.379 . S
H1219 C1213 0.959 . S
H1220 C1213 0.961 . S
H1221 C1213 0.960 . S
H1222 C1214 0.930 . S
H1223 C1215 0.929 . S
H1224 C1232 0.929 . S
H1225 C1234 0.930 . S
H1226 C1236 0.930 . S
H1227 C1239 0.929 . S
H1228 C1242 0.930 . S
H1229 C1244 0.960 . S
H1230 C1244 0.960 . S
H1231 C1244 0.960 . S
C1232 H1224 0.929 . S
C1232 C1233 1.377 . S
C1232 C1234 1.384 . S
C1233 C1232 1.377 . S
C1233 C1239 1.390 . S
C1234 H1225 0.930 . S
C1234 C1232 1.384 . S
C1234 C1235 1.372 . S
C1235 C1234 1.372 . S
C1235 C1236 1.400 . S
C1235 C1240 1.490 . S
C1236 H1226 0.930 . S
C1236 C1235 1.400 . S
C1236 C1239 1.386 . S
H1237 C1253 0.930 . S
H1238 C1254 0.931 . S
C1239 H1227 0.929 . S
C1239 C1233 1.390 . S
C1239 C1236 1.386 . S
C1240 C1235 1.490 . S
C1240 C1242 1.395 . S
C1240 C1243 1.403 . S
H1241 C1247 0.930 . S
C1242 H1228 0.930 . S
C1242 C1240 1.395 . S
C1242 C1245 1.403 . S
C1243 C1240 1.403 . S
C1243 C1244 1.524 . S
C1243 C1247 1.400 . S
C1244 H1229 0.960 . S
C1244 H1230 0.960 . S
C1244 H1231 0.960 . S
C1244 C1243 1.524 . S
C1245 C1242 1.403 . S
C1245 C1246 1.392 . S
C1245 C1249 1.495 . S
C1246 C1245 1.392 . S
C1246 C1247 1.385 . S
C1246 C1248 1.478 . S
C1247 H1241 0.930 . S
C1247 C1243 1.400 . S
C1247 C1246 1.385 . S
C1248 C1246 1.478 . S
C1248 C1250 1.381 . S
C1248 C1254 1.383 . S
C1249 C1245 1.495 . S
C1249 H1255 0.959 . S
C1249 H1256 0.961 . S
C1249 H1257 0.960 . S
C1250 C1248 1.381 . S
C1250 C1251 1.394 . S
C1250 H1258 0.930 . S
C1251 C1250 1.394 . S
C1251 C1252 1.383 . S
C1251 H1259 0.929 . S
C1252 C1251 1.383 . S
C1252 C1253 1.377 . S
C1253 H1237 0.930 . S
C1253 C1252 1.377 . S
C1253 C1254 1.379 . S
C1254 H1238 0.931 . S
C1254 C1248 1.383 . S
C1254 C1253 1.379 . S
H1255 C1249 0.959 . S
H1256 C1249 0.961 . S
H1257 C1249 0.960 . S
H1258 C1250 0.930 . S
H1259 C1251 0.929 . S
H1260 C1268 0.929 . S
H1261 C1270 0.930 . S
H1262 C1272 0.930 . S
H1263 C1275 0.929 . S
H1264 C1278 0.930 . S
H1265 C1280 0.960 . S
H1266 C1280 0.960 . S
H1267 C1280 0.960 . S
C1268 H1260 0.929 . S
C1268 C1269 1.377 . S
C1268 C1270 1.384 . S
C1269 C1268 1.377 . S
C1269 C1275 1.390 . S
C1270 H1261 0.930 . S
C1270 C1268 1.384 . S
C1270 C1271 1.372 . S
C1271 C1270 1.372 . S
C1271 C1272 1.400 . S
C1271 C1276 1.490 . S
C1272 H1262 0.930 . S
C1272 C1271 1.400 . S
C1272 C1275 1.386 . S
H1273 C1289 0.930 . S
H1274 C1290 0.931 . S
C1275 H1263 0.929 . S
C1275 C1269 1.390 . S
C1275 C1272 1.386 . S
C1276 C1271 1.490 . S
C1276 C1278 1.395 . S
C1276 C1279 1.403 . S
H1277 C1283 0.930 . S
C1278 H1264 0.930 . S
C1278 C1276 1.395 . S
C1278 C1281 1.403 . S
C1279 C1276 1.403 . S
C1279 C1280 1.524 . S
C1279 C1283 1.400 . S
C1280 H1265 0.960 . S
C1280 H1266 0.960 . S
C1280 H1267 0.960 . S
C1280 C1279 1.524 . S
C1281 C1278 1.403 . S
C1281 C1282 1.392 . S
C1281 C1285 1.495 . S
C1282 C1281 1.392 . S
C1282 C1283 1.385 . S
C1282 C1284 1.478 . S
C1283 H1277 0.930 . S
C1283 C1279 1.400 . S
C1283 C1282 1.385 . S
C1284 C1282 1.478 . S
C1284 C1286 1.381 . S
C1284 C1290 1.383 . S
C1285 C1281 1.495 . S
C1285 H1291 0.959 . S
C1285 H1292 0.961 . S
C1285 H1293 0.960 . S
C1286 C1284 1.381 . S
C1286 C1287 1.394 . S
C1286 H1294 0.930 . S
C1287 C1286 1.394 . S
C1287 C1288 1.383 . S
C1287 H1295 0.929 . S
C1288 C1287 1.383 . S
C1288 C1289 1.377 . S
C1289 H1273 0.930 . S
C1289 C1288 1.377 . S
C1289 C1290 1.379 . S
C1290 H1274 0.931 . S
C1290 C1284 1.383 . S
C1290 C1289 1.379 . S
H1291 C1285 0.959 . S
H1292 C1285 0.961 . S
H1293 C1285 0.960 . S
H1294 C1286 0.930 . S
H1295 C1287 0.929 . S
H1296 C1304 0.929 . S
H1297 C1306 0.930 . S
H1298 C1308 0.930 . S
H1299 C1311 0.929 . S
H1300 C1314 0.930 . S
H1301 C1316 0.960 . S
H1302 C1316 0.960 . S
H1303 C1316 0.960 . S
C1304 H1296 0.929 . S
C1304 C1305 1.377 . S
C1304 C1306 1.384 . S
C1305 C1304 1.377 . S
C1305 C1311 1.390 . S
C1306 H1297 0.930 . S
C1306 C1304 1.384 . S
C1306 C1307 1.372 . S
C1307 C1306 1.372 . S
C1307 C1308 1.400 . S
C1307 C1312 1.490 . S
C1308 H1298 0.930 . S
C1308 C1307 1.400 . S
C1308 C1311 1.386 . S
H1309 C1325 0.930 . S
H1310 C1326 0.931 . S
C1311 H1299 0.929 . S
C1311 C1305 1.390 . S
C1311 C1308 1.386 . S
C1312 C1307 1.490 . S
C1312 C1314 1.395 . S
C1312 C1315 1.403 . S
H1313 C1319 0.930 . S
C1314 H1300 0.930 . S
C1314 C1312 1.395 . S
C1314 C1317 1.403 . S
C1315 C1312 1.403 . S
C1315 C1316 1.524 . S
C1315 C1319 1.400 . S
C1316 H1301 0.960 . S
C1316 H1302 0.960 . S
C1316 H1303 0.960 . S
C1316 C1315 1.524 . S
C1317 C1314 1.403 . S
C1317 C1318 1.392 . S
C1317 C1321 1.495 . S
C1318 C1317 1.392 . S
C1318 C1319 1.385 . S
C1318 C1320 1.478 . S
C1319 H1313 0.930 . S
C1319 C1315 1.400 . S
C1319 C1318 1.385 . S
C1320 C1318 1.478 . S
C1320 C1322 1.381 . S
C1320 C1326 1.383 . S
C1321 C1317 1.495 . S
C1321 H1327 0.959 . S
C1321 H1328 0.961 . S
C1321 H1329 0.960 . S
C1322 C1320 1.381 . S
C1322 C1323 1.394 . S
C1322 H1330 0.930 . S
C1323 C1322 1.394 . S
C1323 C1324 1.383 . S
C1323 H1331 0.929 . S
C1324 C1323 1.383 . S
C1324 C1325 1.377 . S
C1325 H1309 0.930 . S
C1325 C1324 1.377 . S
C1325 C1326 1.379 . S
C1326 H1310 0.931 . S
C1326 C1320 1.383 . S
C1326 C1325 1.379 . S
H1327 C1321 0.959 . S
H1328 C1321 0.961 . S
H1329 C1321 0.960 . S
H1330 C1322 0.930 . S
H1331 C1323 0.929 . S
H1332 C1340 0.929 . S
H1333 C1342 0.930 . S
H1334 C1344 0.930 . S
H1335 C1347 0.929 . S
H1336 C1350 0.930 . S
H1337 C1352 0.960 . S
H1338 C1352 0.960 . S
H1339 C1352 0.960 . S
C1340 H1332 0.929 . S
C1340 C1341 1.377 . S
C1340 C1342 1.384 . S
C1341 C1340 1.377 . S
C1341 C1347 1.390 . S
C1342 H1333 0.930 . S
C1342 C1340 1.384 . S
C1342 C1343 1.372 . S
C1343 C1342 1.372 . S
C1343 C1344 1.400 . S
C1343 C1348 1.490 . S
C1344 H1334 0.930 . S
C1344 C1343 1.400 . S
C1344 C1347 1.386 . S
H1345 C1361 0.930 . S
H1346 C1362 0.931 . S
C1347 H1335 0.929 . S
C1347 C1341 1.390 . S
C1347 C1344 1.386 . S
C1348 C1343 1.490 . S
C1348 C1350 1.395 . S
C1348 C1351 1.403 . S
H1349 C1355 0.930 . S
C1350 H1336 0.930 . S
C1350 C1348 1.395 . S
C1350 C1353 1.403 . S
C1351 C1348 1.403 . S
C1351 C1352 1.524 . S
C1351 C1355 1.400 . S
C1352 H1337 0.960 . S
C1352 H1338 0.960 . S
C1352 H1339 0.960 . S
C1352 C1351 1.524 . S
C1353 C1350 1.403 . S
C1353 C1354 1.392 . S
C1353 C1357 1.495 . S
C1354 C1353 1.392 . S
C1354 C1355 1.385 . S
C1354 C1356 1.478 . S
C1355 H1349 0.930 . S
C1355 C1351 1.400 . S
C1355 C1354 1.385 . S
C1356 C1354 1.478 . S
C1356 C1358 1.381 . S
C1356 C1362 1.383 . S
C1357 C1353 1.495 . S
C1357 H1363 0.959 . S
C1357 H1364 0.961 . S
C1357 H1365 0.960 . S
C1358 C1356 1.381 . S
C1358 C1359 1.394 . S
C1358 H1366 0.930 . S
C1359 C1358 1.394 . S
C1359 C1360 1.383 . S
C1359 H1367 0.929 . S
C1360 C1359 1.383 . S
C1360 C1361 1.377 . S
C1361 H1345 0.930 . S
C1361 C1360 1.377 . S
C1361 C1362 1.379 . S
C1362 H1346 0.931 . S
C1362 C1356 1.383 . S
C1362 C1361 1.379 . S
H1363 C1357 0.959 . S
H1364 C1357 0.961 . S
H1365 C1357 0.960 . S
H1366 C1358 0.930 . S
H1367 C1359 0.929 . S
H1368 C1376 0.929 . S
H1369 C1378 0.930 . S
H1370 C1380 0.930 . S
H1371 C1383 0.929 . S
H1372 C1386 0.930 . S
H1373 C1388 0.960 . S
H1374 C1388 0.960 . S
H1375 C1388 0.960 . S
C1376 H1368 0.929 . S
C1376 C1377 1.377 . S
C1376 C1378 1.384 . S
C1377 C1376 1.377 . S
C1377 C1383 1.390 . S
C1378 H1369 0.930 . S
C1378 C1376 1.384 . S
C1378 C1379 1.372 . S
C1379 C1378 1.372 . S
C1379 C1380 1.400 . S
C1379 C1384 1.490 . S
C1380 H1370 0.930 . S
C1380 C1379 1.400 . S
C1380 C1383 1.386 . S
H1381 C1397 0.930 . S
H1382 C1398 0.931 . S
C1383 H1371 0.929 . S
C1383 C1377 1.390 . S
C1383 C1380 1.386 . S
C1384 C1379 1.490 . S
C1384 C1386 1.395 . S
C1384 C1387 1.403 . S
H1385 C1391 0.930 . S
C1386 H1372 0.930 . S
C1386 C1384 1.395 . S
C1386 C1389 1.403 . S
C1387 C1384 1.403 . S
C1387 C1388 1.524 . S
C1387 C1391 1.400 . S
C1388 H1373 0.960 . S
C1388 H1374 0.960 . S
C1388 H1375 0.960 . S
C1388 C1387 1.524 . S
C1389 C1386 1.403 . S
C1389 C1390 1.392 . S
C1389 C1393 1.495 . S
C1390 C1389 1.392 . S
C1390 C1391 1.385 . S
C1390 C1392 1.478 . S
C1391 H1385 0.930 . S
C1391 C1387 1.400 . S
C1391 C1390 1.385 . S
C1392 C1390 1.478 . S
C1392 C1394 1.381 . S
C1392 C1398 1.383 . S
C1393 C1389 1.495 . S
C1393 H1399 0.959 . S
C1393 H1400 0.961 . S
C1393 H1401 0.960 . S
C1394 C1392 1.381 . S
C1394 C1395 1.394 . S
C1394 H1402 0.930 . S
C1395 C1394 1.394 . S
C1395 C1396 1.383 . S
C1395 H1403 0.929 . S
C1396 C1395 1.383 . S
C1396 C1397 1.377 . S
C1397 H1381 0.930 . S
C1397 C1396 1.377 . S
C1397 C1398 1.379 . S
C1398 H1382 0.931 . S
C1398 C1392 1.383 . S
C1398 C1397 1.379 . S
H1399 C1393 0.959 . S
H1400 C1393 0.961 . S
H1401 C1393 0.960 . S
H1402 C1394 0.930 . S
H1403 C1395 0.929 . S
H1404 C1412 0.929 . S
H1405 C1414 0.930 . S
H1406 C1416 0.930 . S
H1407 C1419 0.929 . S
H1408 C1422 0.930 . S
H1409 C1424 0.960 . S
H1410 C1424 0.960 . S
H1411 C1424 0.960 . S
C1412 H1404 0.929 . S
C1412 C1413 1.377 . S
C1412 C1414 1.384 . S
C1413 C1412 1.377 . S
C1413 C1419 1.390 . S
C1414 H1405 0.930 . S
C1414 C1412 1.384 . S
C1414 C1415 1.372 . S
C1415 C1414 1.372 . S
C1415 C1416 1.400 . S
C1415 C1420 1.490 . S
C1416 H1406 0.930 . S
C1416 C1415 1.400 . S
C1416 C1419 1.386 . S
H1417 C1433 0.930 . S
H1418 C1434 0.931 . S
C1419 H1407 0.929 . S
C1419 C1413 1.390 . S
C1419 C1416 1.386 . S
C1420 C1415 1.490 . S
C1420 C1422 1.395 . S
C1420 C1423 1.403 . S
H1421 C1427 0.930 . S
C1422 H1408 0.930 . S
C1422 C1420 1.395 . S
C1422 C1425 1.403 . S
C1423 C1420 1.403 . S
C1423 C1424 1.524 . S
C1423 C1427 1.400 . S
C1424 H1409 0.960 . S
C1424 H1410 0.960 . S
C1424 H1411 0.960 . S
C1424 C1423 1.524 . S
C1425 C1422 1.403 . S
C1425 C1426 1.392 . S
C1425 C1429 1.495 . S
C1426 C1425 1.392 . S
C1426 C1427 1.385 . S
C1426 C1428 1.478 . S
C1427 H1421 0.930 . S
C1427 C1423 1.400 . S
C1427 C1426 1.385 . S
C1428 C1426 1.478 . S
C1428 C1430 1.381 . S
C1428 C1434 1.383 . S
C1429 C1425 1.495 . S
C1429 H1435 0.959 . S
C1429 H1436 0.961 . S
C1429 H1437 0.960 . S
C1430 C1428 1.381 . S
C1430 C1431 1.394 . S
C1430 H1438 0.930 . S
C1431 C1430 1.394 . S
C1431 C1432 1.383 . S
C1431 H1439 0.929 . S
C1432 C1431 1.383 . S
C1432 C1433 1.377 . S
C1433 H1417 0.930 . S
C1433 C1432 1.377 . S
C1433 C1434 1.379 . S
C1434 H1418 0.931 . S
C1434 C1428 1.383 . S
C1434 C1433 1.379 . S
H1435 C1429 0.959 . S
H1436 C1429 0.961 . S
H1437 C1429 0.960 . S
H1438 C1430 0.930 . S
H1439 C1431 0.929 . S
H1440 C1448 0.929 . S
H1441 C1450 0.930 . S
H1442 C1452 0.930 . S
H1443 C1455 0.929 . S
H1444 C1458 0.930 . S
H1445 C1460 0.960 . S
H1446 C1460 0.960 . S
H1447 C1460 0.960 . S
C1448 H1440 0.929 . S
C1448 C1449 1.377 . S
C1448 C1450 1.384 . S
C1449 C1448 1.377 . S
C1449 C1455 1.390 . S
C1450 H1441 0.930 . S
C1450 C1448 1.384 . S
C1450 C1451 1.372 . S
C1451 C1450 1.372 . S
C1451 C1452 1.400 . S
C1451 C1456 1.490 . S
C1452 H1442 0.930 . S
C1452 C1451 1.400 . S
C1452 C1455 1.386 . S
H1453 C1469 0.930 . S
H1454 C1470 0.931 . S
C1455 H1443 0.929 . S
C1455 C1449 1.390 . S
C1455 C1452 1.386 . S
C1456 C1451 1.490 . S
C1456 C1458 1.395 . S
C1456 C1459 1.403 . S
H1457 C1463 0.930 . S
C1458 H1444 0.930 . S
C1458 C1456 1.395 . S
C1458 C1461 1.403 . S
C1459 C1456 1.403 . S
C1459 C1460 1.524 . S
C1459 C1463 1.400 . S
C1460 H1445 0.960 . S
C1460 H1446 0.960 . S
C1460 H1447 0.960 . S
C1460 C1459 1.524 . S
C1461 C1458 1.403 . S
C1461 C1462 1.392 . S
C1461 C1465 1.495 . S
C1462 C1461 1.392 . S
C1462 C1463 1.385 . S
C1462 C1464 1.478 . S
C1463 H1457 0.930 . S
C1463 C1459 1.400 . S
C1463 C1462 1.385 . S
C1464 C1462 1.478 . S
C1464 C1466 1.381 . S
C1464 C1470 1.383 . S
C1465 C1461 1.495 . S
C1465 H1471 0.959 . S
C1465 H1472 0.961 . S
C1465 H1473 0.960 . S
C1466 C1464 1.381 . S
C1466 C1467 1.394 . S
C1466 H1474 0.930 . S
C1467 C1466 1.394 . S
C1467 C1468 1.383 . S
C1467 H1475 0.929 . S
C1468 C1467 1.383 . S
C1468 C1469 1.377 . S
C1469 H1453 0.930 . S
C1469 C1468 1.377 . S
C1469 C1470 1.379 . S
C1470 H1454 0.931 . S
C1470 C1464 1.383 . S
C1470 C1469 1.379 . S
H1471 C1465 0.959 . S
H1472 C1465 0.961 . S
H1473 C1465 0.960 . S
H1474 C1466 0.930 . S
H1475 C1467 0.929 . S
H1476 C1484 0.929 . S
H1477 C1486 0.930 . S
H1478 C1488 0.930 . S
H1479 C1491 0.929 . S
H1480 C1494 0.930 . S
H1481 C1496 0.960 . S
H1482 C1496 0.960 . S
H1483 C1496 0.960 . S
C1484 H1476 0.929 . S
C1484 C1485 1.377 . S
C1484 C1486 1.384 . S
C1485 C1484 1.377 . S
C1485 C1491 1.390 . S
C1486 H1477 0.930 . S
C1486 C1484 1.384 . S
C1486 C1487 1.372 . S
C1487 C1486 1.372 . S
C1487 C1488 1.400 . S
C1487 C1492 1.490 . S
C1488 H1478 0.930 . S
C1488 C1487 1.400 . S
C1488 C1491 1.386 . S
H1489 C1505 0.930 . S
H1490 C1506 0.931 . S
C1491 H1479 0.929 . S
C1491 C1485 1.390 . S
C1491 C1488 1.386 . S
C1492 C1487 1.490 . S
C1492 C1494 1.395 . S
C1492 C1495 1.403 . S
H1493 C1499 0.930 . S
C1494 H1480 0.930 . S
C1494 C1492 1.395 . S
C1494 C1497 1.403 . S
C1495 C1492 1.403 . S
C1495 C1496 1.524 . S
C1495 C1499 1.400 . S
C1496 H1481 0.960 . S
C1496 H1482 0.960 . S
C1496 H1483 0.960 . S
C1496 C1495 1.524 . S
C1497 C1494 1.403 . S
C1497 C1498 1.392 . S
C1497 C1501 1.495 . S
C1498 C1497 1.392 . S
C1498 C1499 1.385 . S
C1498 C1500 1.478 . S
C1499 H1493 0.930 . S
C1499 C1495 1.400 . S
C1499 C1498 1.385 . S
C1500 C1498 1.478 . S
C1500 C1502 1.381 . S
C1500 C1506 1.383 . S
C1501 C1497 1.495 . S
C1501 H1507 0.959 . S
C1501 H1508 0.961 . S
C1501 H1509 0.960 . S
C1502 C1500 1.381 . S
C1502 C1503 1.394 . S
C1502 H1510 0.930 . S
C1503 C1502 1.394 . S
C1503 C1504 1.383 . S
C1503 H1511 0.929 . S
C1504 C1503 1.383 . S
C1504 C1505 1.377 . S
C1505 H1489 0.930 . S
C1505 C1504 1.377 . S
C1505 C1506 1.379 . S
C1506 H1490 0.931 . S
C1506 C1500 1.383 . S
C1506 C1505 1.379 . S
H1507 C1501 0.959 . S
H1508 C1501 0.961 . S
H1509 C1501 0.960 . S
H1510 C1502 0.930 . S
H1511 C1503 0.929 . S
H1512 C1520 0.929 . S
H1513 C1522 0.930 . S
H1514 C1524 0.930 . S
H1515 C1527 0.929 . S
H1516 C1530 0.930 . S
H1517 C1532 0.960 . S
H1518 C1532 0.960 . S
H1519 C1532 0.960 . S
C1520 H1512 0.929 . S
C1520 C1521 1.377 . S
C1520 C1522 1.384 . S
C1521 C1520 1.377 . S
C1521 C1527 1.390 . S
C1522 H1513 0.930 . S
C1522 C1520 1.384 . S
C1522 C1523 1.372 . S
C1523 C1522 1.372 . S
C1523 C1524 1.400 . S
C1523 C1528 1.490 . S
C1524 H1514 0.930 . S
C1524 C1523 1.400 . S
C1524 C1527 1.386 . S
H1525 C1541 0.930 . S
H1526 C1542 0.931 . S
C1527 H1515 0.929 . S
C1527 C1521 1.390 . S
C1527 C1524 1.386 . S
C1528 C1523 1.490 . S
C1528 C1530 1.395 . S
C1528 C1531 1.403 . S
H1529 C1535 0.930 . S
C1530 H1516 0.930 . S
C1530 C1528 1.395 . S
C1530 C1533 1.403 . S
C1531 C1528 1.403 . S
C1531 C1532 1.524 . S
C1531 C1535 1.400 . S
C1532 H1517 0.960 . S
C1532 H1518 0.960 . S
C1532 H1519 0.960 . S
C1532 C1531 1.524 . S
C1533 C1530 1.403 . S
C1533 C1534 1.392 . S
C1533 C1537 1.495 . S
C1534 C1533 1.392 . S
C1534 C1535 1.385 . S
C1534 C1536 1.478 . S
C1535 H1529 0.930 . S
C1535 C1531 1.400 . S
C1535 C1534 1.385 . S
C1536 C1534 1.478 . S
C1536 C1538 1.381 . S
C1536 C1542 1.383 . S
C1537 C1533 1.495 . S
C1537 H1543 0.959 . S
C1537 H1544 0.961 . S
C1537 H1545 0.960 . S
C1538 C1536 1.381 . S
C1538 C1539 1.394 . S
C1538 H1546 0.930 . S
C1539 C1538 1.394 . S
C1539 C1540 1.383 . S
C1539 H1547 0.929 . S
C1540 C1539 1.383 . S
C1540 C1541 1.377 . S
C1541 H1525 0.930 . S
C1541 C1540 1.377 . S
C1541 C1542 1.379 . S
C1542 H1526 0.931 . S
C1542 C1536 1.383 . S
C1542 C1541 1.379 . S
H1543 C1537 0.959 . S
H1544 C1537 0.961 . S
H1545 C1537 0.960 . S
H1546 C1538 0.930 . S
H1547 C1539 0.929 . S
H1548 C1556 0.929 . S
H1549 C1558 0.930 . S
H1550 C1560 0.930 . S
H1551 C1563 0.929 . S
H1552 C1566 0.930 . S
H1553 C1568 0.960 . S
H1554 C1568 0.960 . S
H1555 C1568 0.960 . S
C1556 H1548 0.929 . S
C1556 C1557 1.377 . S
C1556 C1558 1.384 . S
C1557 C1556 1.377 . S
C1557 C1563 1.390 . S
C1558 H1549 0.930 . S
C1558 C1556 1.384 . S
C1558 C1559 1.372 . S
C1559 C1558 1.372 . S
C1559 C1560 1.400 . S
C1559 C1564 1.490 . S
C1560 H1550 0.930 . S
C1560 C1559 1.400 . S
C1560 C1563 1.386 . S
H1561 C1577 0.930 . S
H1562 C1578 0.931 . S
C1563 H1551 0.929 . S
C1563 C1557 1.390 . S
C1563 C1560 1.386 . S
C1564 C1559 1.490 . S
C1564 C1566 1.395 . S
C1564 C1567 1.403 . S
H1565 C1571 0.930 . S
C1566 H1552 0.930 . S
C1566 C1564 1.395 . S
C1566 C1569 1.403 . S
C1567 C1564 1.403 . S
C1567 C1568 1.524 . S
C1567 C1571 1.400 . S
C1568 H1553 0.960 . S
C1568 H1554 0.960 . S
C1568 H1555 0.960 . S
C1568 C1567 1.524 . S
C1569 C1566 1.403 . S
C1569 C1570 1.392 . S
C1569 C1573 1.495 . S
C1570 C1569 1.392 . S
C1570 C1571 1.385 . S
C1570 C1572 1.478 . S
C1571 H1565 0.930 . S
C1571 C1567 1.400 . S
C1571 C1570 1.385 . S
C1572 C1570 1.478 . S
C1572 C1574 1.381 . S
C1572 C1578 1.383 . S
C1573 C1569 1.495 . S
C1573 H1579 0.959 . S
C1573 H1580 0.961 . S
C1573 H1581 0.960 . S
C1574 C1572 1.381 . S
C1574 C1575 1.394 . S
C1574 H1582 0.930 . S
C1575 C1574 1.394 . S
C1575 C1576 1.383 . S
C1575 H1583 0.929 . S
C1576 C1575 1.383 . S
C1576 C1577 1.377 . S
C1577 H1561 0.930 . S
C1577 C1576 1.377 . S
C1577 C1578 1.379 . S
C1578 H1562 0.931 . S
C1578 C1572 1.383 . S
C1578 C1577 1.379 . S
H1579 C1573 0.959 . S
H1580 C1573 0.961 . S
H1581 C1573 0.960 . S
H1582 C1574 0.930 . S
H1583 C1575 0.929 . S
H1584 C1592 0.929 . S
H1585 C1594 0.930 . S
H1586 C1596 0.930 . S
H1587 C1599 0.929 . S
H1588 C1602 0.930 . S
H1589 C1604 0.960 . S
H1590 C1604 0.960 . S
H1591 C1604 0.960 . S
C1592 H1584 0.929 . S
C1592 C1593 1.377 . S
C1592 C1594 1.384 . S
C1593 C1592 1.377 . S
C1593 C1599 1.390 . S
C1594 H1585 0.930 . S
C1594 C1592 1.384 . S
C1594 C1595 1.372 . S
C1595 C1594 1.372 . S
C1595 C1596 1.400 . S
C1595 C1600 1.490 . S
C1596 H1586 0.930 . S
C1596 C1595 1.400 . S
C1596 C1599 1.386 . S
H1597 C1613 0.930 . S
H1598 C1614 0.931 . S
C1599 H1587 0.929 . S
C1599 C1593 1.390 . S
C1599 C1596 1.386 . S
C1600 C1595 1.490 . S
C1600 C1602 1.395 . S
C1600 C1603 1.403 . S
H1601 C1607 0.930 . S
C1602 H1588 0.930 . S
C1602 C1600 1.395 . S
C1602 C1605 1.403 . S
C1603 C1600 1.403 . S
C1603 C1604 1.524 . S
C1603 C1607 1.400 . S
C1604 H1589 0.960 . S
C1604 H1590 0.960 . S
C1604 H1591 0.960 . S
C1604 C1603 1.524 . S
C1605 C1602 1.403 . S
C1605 C1606 1.392 . S
C1605 C1609 1.495 . S
C1606 C1605 1.392 . S
C1606 C1607 1.385 . S
C1606 C1608 1.478 . S
C1607 H1601 0.930 . S
C1607 C1603 1.400 . S
C1607 C1606 1.385 . S
C1608 C1606 1.478 . S
C1608 C1610 1.381 . S
C1608 C1614 1.383 . S
C1609 C1605 1.495 . S
C1609 H1615 0.959 . S
C1609 H1616 0.961 . S
C1609 H1617 0.960 . S
C1610 C1608 1.381 . S
C1610 C1611 1.394 . S
C1610 H1618 0.930 . S
C1611 C1610 1.394 . S
C1611 C1612 1.383 . S
C1611 H1619 0.929 . S
C1612 C1611 1.383 . S
C1612 C1613 1.377 . S
C1613 H1597 0.930 . S
C1613 C1612 1.377 . S
C1613 C1614 1.379 . S
C1614 H1598 0.931 . S
C1614 C1608 1.383 . S
C1614 C1613 1.379 . S
H1615 C1609 0.959 . S
H1616 C1609 0.961 . S
H1617 C1609 0.960 . S
H1618 C1610 0.930 . S
H1619 C1611 0.929 . S
H1620 C1628 0.929 . S
H1621 C1630 0.930 . S
H1622 C1632 0.930 . S
H1623 C1635 0.929 . S
H1624 C1638 0.930 . S
H1625 C1640 0.960 . S
H1626 C1640 0.960 . S
H1627 C1640 0.960 . S
C1628 H1620 0.929 . S
C1628 C1629 1.377 . S
C1628 C1630 1.384 . S
C1629 C1628 1.377 . S
C1629 C1635 1.390 . S
C1630 H1621 0.930 . S
C1630 C1628 1.384 . S
C1630 C1631 1.372 . S
C1631 C1630 1.372 . S
C1631 C1632 1.400 . S
C1631 C1636 1.490 . S
C1632 H1622 0.930 . S
C1632 C1631 1.400 . S
C1632 C1635 1.386 . S
H1633 C1649 0.930 . S
H1634 C1650 0.931 . S
C1635 H1623 0.929 . S
C1635 C1629 1.390 . S
C1635 C1632 1.386 . S
C1636 C1631 1.490 . S
C1636 C1638 1.395 . S
C1636 C1639 1.403 . S
H1637 C1643 0.930 . S
C1638 H1624 0.930 . S
C1638 C1636 1.395 . S
C1638 C1641 1.403 . S
C1639 C1636 1.403 . S
C1639 C1640 1.524 . S
C1639 C1643 1.400 . S
C1640 H1625 0.960 . S
C1640 H1626 0.960 . S
C1640 H1627 0.960 . S
C1640 C1639 1.524 . S
C1641 C1638 1.403 . S
C1641 C1642 1.392 . S
C1641 C1645 1.495 . S
C1642 C1641 1.392 . S
C1642 C1643 1.385 . S
C1642 C1644 1.478 . S
C1643 H1637 0.930 . S
C1643 C1639 1.400 . S
C1643 C1642 1.385 . S
C1644 C1642 1.478 . S
C1644 C1646 1.381 . S
C1644 C1650 1.383 . S
C1645 C1641 1.495 . S
C1645 H1651 0.959 . S
C1645 H1652 0.961 . S
C1645 H1653 0.960 . S
C1646 C1644 1.381 . S
C1646 C1647 1.394 . S
C1646 H1654 0.930 . S
C1647 C1646 1.394 . S
C1647 C1648 1.383 . S
C1647 H1655 0.929 . S
C1648 C1647 1.383 . S
C1648 C1649 1.377 . S
C1649 H1633 0.930 . S
C1649 C1648 1.377 . S
C1649 C1650 1.379 . S
C1650 H1634 0.931 . S
C1650 C1644 1.383 . S
C1650 C1649 1.379 . S
H1651 C1645 0.959 . S
H1652 C1645 0.961 . S
H1653 C1645 0.960 . S
H1654 C1646 0.930 . S
H1655 C1647 0.929 . S
H1656 C1664 0.929 . S
H1657 C1666 0.930 . S
H1658 C1668 0.930 . S
H1659 C1671 0.929 . S
H1660 C1674 0.930 . S
H1661 C1676 0.960 . S
H1662 C1676 0.960 . S
H1663 C1676 0.960 . S
C1664 H1656 0.929 . S
C1664 C1665 1.377 . S
C1664 C1666 1.384 . S
C1665 C1664 1.377 . S
C1665 C1671 1.390 . S
C1666 H1657 0.930 . S
C1666 C1664 1.384 . S
C1666 C1667 1.372 . S
C1667 C1666 1.372 . S
C1667 C1668 1.400 . S
C1667 C1672 1.490 . S
C1668 H1658 0.930 . S
C1668 C1667 1.400 . S
C1668 C1671 1.386 . S
H1669 C1685 0.930 . S
H1670 C1686 0.931 . S
C1671 H1659 0.929 . S
C1671 C1665 1.390 . S
C1671 C1668 1.386 . S
C1672 C1667 1.490 . S
C1672 C1674 1.395 . S
C1672 C1675 1.403 . S
H1673 C1679 0.930 . S
C1674 H1660 0.930 . S
C1674 C1672 1.395 . S
C1674 C1677 1.403 . S
C1675 C1672 1.403 . S
C1675 C1676 1.524 . S
C1675 C1679 1.400 . S
C1676 H1661 0.960 . S
C1676 H1662 0.960 . S
C1676 H1663 0.960 . S
C1676 C1675 1.524 . S
C1677 C1674 1.403 . S
C1677 C1678 1.392 . S
C1677 C1681 1.495 . S
C1678 C1677 1.392 . S
C1678 C1679 1.385 . S
C1678 C1680 1.478 . S
C1679 H1673 0.930 . S
C1679 C1675 1.400 . S
C1679 C1678 1.385 . S
C1680 C1678 1.478 . S
C1680 C1682 1.381 . S
C1680 C1686 1.383 . S
C1681 C1677 1.495 . S
C1681 H1687 0.959 . S
C1681 H1688 0.961 . S
C1681 H1689 0.960 . S
C1682 C1680 1.381 . S
C1682 C1683 1.394 . S
C1682 H1690 0.930 . S
C1683 C1682 1.394 . S
C1683 C1684 1.383 . S
C1683 H1691 0.929 . S
C1684 C1683 1.383 . S
C1684 C1685 1.377 . S
C1685 H1669 0.930 . S
C1685 C1684 1.377 . S
C1685 C1686 1.379 . S
C1686 H1670 0.931 . S
C1686 C1680 1.383 . S
C1686 C1685 1.379 . S
H1687 C1681 0.959 . S
H1688 C1681 0.961 . S
H1689 C1681 0.960 . S
H1690 C1682 0.930 . S
H1691 C1683 0.929 . S
H1692 C1700 0.929 . S
H1693 C1702 0.930 . S
H1694 C1704 0.930 . S
H1695 C1707 0.929 . S
H1696 C1710 0.930 . S
H1697 C1712 0.960 . S
H1698 C1712 0.960 . S
H1699 C1712 0.960 . S
C1700 H1692 0.929 . S
C1700 C1701 1.377 . S
C1700 C1702 1.384 . S
C1701 C1700 1.377 . S
C1701 C1707 1.390 . S
C1702 H1693 0.930 . S
C1702 C1700 1.384 . S
C1702 C1703 1.372 . S
C1703 C1702 1.372 . S
C1703 C1704 1.400 . S
C1703 C1708 1.490 . S
C1704 H1694 0.930 . S
C1704 C1703 1.400 . S
C1704 C1707 1.386 . S
H1705 C1721 0.930 . S
H1706 C1722 0.931 . S
C1707 H1695 0.929 . S
C1707 C1701 1.390 . S
C1707 C1704 1.386 . S
C1708 C1703 1.490 . S
C1708 C1710 1.395 . S
C1708 C1711 1.403 . S
H1709 C1715 0.930 . S
C1710 H1696 0.930 . S
C1710 C1708 1.395 . S
C1710 C1713 1.403 . S
C1711 C1708 1.403 . S
C1711 C1712 1.524 . S
C1711 C1715 1.400 . S
C1712 H1697 0.960 . S
C1712 H1698 0.960 . S
C1712 H1699 0.960 . S
C1712 C1711 1.524 . S
C1713 C1710 1.403 . S
C1713 C1714 1.392 . S
C1713 C1717 1.495 . S
C1714 C1713 1.392 . S
C1714 C1715 1.385 . S
C1714 C1716 1.478 . S
C1715 H1709 0.930 . S
C1715 C1711 1.400 . S
C1715 C1714 1.385 . S
C1716 C1714 1.478 . S
C1716 C1718 1.381 . S
C1716 C1722 1.383 . S
C1717 C1713 1.495 . S
C1717 H1723 0.959 . S
C1717 H1724 0.961 . S
C1717 H1725 0.960 . S
C1718 C1716 1.381 . S
C1718 C1719 1.394 . S
C1718 H1726 0.930 . S
C1719 C1718 1.394 . S
C1719 C1720 1.383 . S
C1719 H1727 0.929 . S
C1720 C1719 1.383 . S
C1720 C1721 1.377 . S
C1721 H1705 0.930 . S
C1721 C1720 1.377 . S
C1721 C1722 1.379 . S
C1722 H1706 0.931 . S
C1722 C1716 1.383 . S
C1722 C1721 1.379 . S
H1723 C1717 0.959 . S
H1724 C1717 0.961 . S
H1725 C1717 0.960 . S
H1726 C1718 0.930 . S
H1727 C1719 0.929 . S
H1728 C1736 0.929 . S
H1729 C1738 0.930 . S
H1730 C1740 0.930 . S
H1731 C1743 0.929 . S
H1732 C1746 0.930 . S
H1733 C1748 0.960 . S
H1734 C1748 0.960 . S
H1735 C1748 0.960 . S
C1736 H1728 0.929 . S
C1736 C1737 1.377 . S
C1736 C1738 1.384 . S
C1737 C1736 1.377 . S
C1737 C1743 1.390 . S
C1738 H1729 0.930 . S
C1738 C1736 1.384 . S
C1738 C1739 1.372 . S
C1739 C1738 1.372 . S
C1739 C1740 1.400 . S
C1739 C1744 1.490 . S
C1740 H1730 0.930 . S
C1740 C1739 1.400 . S
C1740 C1743 1.386 . S
H1741 C1757 0.930 . S
H1742 C1758 0.931 . S
C1743 H1731 0.929 . S
C1743 C1737 1.390 . S
C1743 C1740 1.386 . S
C1744 C1739 1.490 . S
C1744 C1746 1.395 . S
C1744 C1747 1.403 . S
H1745 C1751 0.930 . S
C1746 H1732 0.930 . S
C1746 C1744 1.395 . S
C1746 C1749 1.403 . S
C1747 C1744 1.403 . S
C1747 C1748 1.524 . S
C1747 C1751 1.400 . S
C1748 H1733 0.960 . S
C1748 H1734 0.960 . S
C1748 H1735 0.960 . S
C1748 C1747 1.524 . S
C1749 C1746 1.403 . S
C1749 C1750 1.392 . S
C1749 C1753 1.495 . S
C1750 C1749 1.392 . S
C1750 C1751 1.385 . S
C1750 C1752 1.478 . S
C1751 H1745 0.930 . S
C1751 C1747 1.400 . S
C1751 C1750 1.385 . S
C1752 C1750 1.478 . S
C1752 C1754 1.381 . S
C1752 C1758 1.383 . S
C1753 C1749 1.495 . S
C1753 H1759 0.959 . S
C1753 H1760 0.961 . S
C1753 H1761 0.960 . S
C1754 C1752 1.381 . S
C1754 C1755 1.394 . S
C1754 H1762 0.930 . S
C1755 C1754 1.394 . S
C1755 C1756 1.383 . S
C1755 H1763 0.929 . S
C1756 C1755 1.383 . S
C1756 C1757 1.377 . S
C1757 H1741 0.930 . S
C1757 C1756 1.377 . S
C1757 C1758 1.379 . S
C1758 H1742 0.931 . S
C1758 C1752 1.383 . S
C1758 C1757 1.379 . S
H1759 C1753 0.959 . S
H1760 C1753 0.961 . S
H1761 C1753 0.960 . S
H1762 C1754 0.930 . S
H1763 C1755 0.929 . S
H1764 C1772 0.929 . S
H1765 C1774 0.930 . S
H1766 C1776 0.930 . S
H1767 C1779 0.929 . S
H1768 C1782 0.930 . S
H1769 C1784 0.960 . S
H1770 C1784 0.960 . S
H1771 C1784 0.960 . S
C1772 H1764 0.929 . S
C1772 C1773 1.377 . S
C1772 C1774 1.384 . S
C1773 C1772 1.377 . S
C1773 C1779 1.390 . S
C1774 H1765 0.930 . S
C1774 C1772 1.384 . S
C1774 C1775 1.372 . S
C1775 C1774 1.372 . S
C1775 C1776 1.400 . S
C1775 C1780 1.490 . S
C1776 H1766 0.930 . S
C1776 C1775 1.400 . S
C1776 C1779 1.386 . S
H1777 C1793 0.930 . S
H1778 C1794 0.931 . S
C1779 H1767 0.929 . S
C1779 C1773 1.390 . S
C1779 C1776 1.386 . S
C1780 C1775 1.490 . S
C1780 C1782 1.395 . S
C1780 C1783 1.403 . S
H1781 C1787 0.930 . S
C1782 H1768 0.930 . S
C1782 C1780 1.395 . S
C1782 C1785 1.403 . S
C1783 C1780 1.403 . S
C1783 C1784 1.524 . S
C1783 C1787 1.400 . S
C1784 H1769 0.960 . S
C1784 H1770 0.960 . S
C1784 H1771 0.960 . S
C1784 C1783 1.524 . S
C1785 C1782 1.403 . S
C1785 C1786 1.392 . S
C1785 C1789 1.495 . S
C1786 C1785 1.392 . S
C1786 C1787 1.385 . S
C1786 C1788 1.478 . S
C1787 H1781 0.930 . S
C1787 C1783 1.400 . S
C1787 C1786 1.385 . S
C1788 C1786 1.478 . S
C1788 C1790 1.381 . S
C1788 C1794 1.383 . S
C1789 C1785 1.495 . S
C1789 H1795 0.959 . S
C1789 H1796 0.961 . S
C1789 H1797 0.960 . S
C1790 C1788 1.381 . S
C1790 C1791 1.394 . S
C1790 H1798 0.930 . S
C1791 C1790 1.394 . S
C1791 C1792 1.383 . S
C1791 H1799 0.929 . S
C1792 C1791 1.383 . S
C1792 C1793 1.377 . S
C1793 H1777 0.930 . S
C1793 C1792 1.377 . S
C1793 C1794 1.379 . S
C1794 H1778 0.931 . S
C1794 C1788 1.383 . S
C1794 C1793 1.379 . S
H1795 C1789 0.959 . S
H1796 C1789 0.961 . S
H1797 C1789 0.960 . S
H1798 C1790 0.930 . S
H1799 C1791 0.929 . S
H1800 C1808 0.929 . S
H1801 C1810 0.930 . S
H1802 C1812 0.930 . S
H1803 C1815 0.929 . S
H1804 C1818 0.930 . S
H1805 C1820 0.960 . S
H1806 C1820 0.960 . S
H1807 C1820 0.960 . S
C1808 H1800 0.929 . S
C1808 C1809 1.377 . S
C1808 C1810 1.384 . S
C1809 C1808 1.377 . S
C1809 C1815 1.390 . S
C1810 H1801 0.930 . S
C1810 C1808 1.384 . S
C1810 C1811 1.372 . S
C1811 C1810 1.372 . S
C1811 C1812 1.400 . S
C1811 C1816 1.490 . S
C1812 H1802 0.930 . S
C1812 C1811 1.400 . S
C1812 C1815 1.386 . S
H1813 C1829 0.930 . S
H1814 C1830 0.931 . S
C1815 H1803 0.929 . S
C1815 C1809 1.390 . S
C1815 C1812 1.386 . S
C1816 C1811 1.490 . S
C1816 C1818 1.395 . S
C1816 C1819 1.403 . S
H1817 C1823 0.930 . S
C1818 H1804 0.930 . S
C1818 C1816 1.395 . S
C1818 C1821 1.403 . S
C1819 C1816 1.403 . S
C1819 C1820 1.524 . S
C1819 C1823 1.400 . S
C1820 H1805 0.960 . S
C1820 H1806 0.960 . S
C1820 H1807 0.960 . S
C1820 C1819 1.524 . S
C1821 C1818 1.403 . S
C1821 C1822 1.392 . S
C1821 C1825 1.495 . S
C1822 C1821 1.392 . S
C1822 C1823 1.385 . S
C1822 C1824 1.478 . S
C1823 H1817 0.930 . S
C1823 C1819 1.400 . S
C1823 C1822 1.385 . S
C1824 C1822 1.478 . S
C1824 C1826 1.381 . S
C1824 C1830 1.383 . S
C1825 C1821 1.495 . S
C1825 H1831 0.959 . S
C1825 H1832 0.961 . S
C1825 H1833 0.960 . S
C1826 C1824 1.381 . S
C1826 C1827 1.394 . S
C1826 H1834 0.930 . S
C1827 C1826 1.394 . S
C1827 C1828 1.383 . S
C1827 H1835 0.929 . S
C1828 C1827 1.383 . S
C1828 C1829 1.377 . S
C1829 H1813 0.930 . S
C1829 C1828 1.377 . S
C1829 C1830 1.379 . S
C1830 H1814 0.931 . S
C1830 C1824 1.383 . S
C1830 C1829 1.379 . S
H1831 C1825 0.959 . S
H1832 C1825 0.961 . S
H1833 C1825 0.960 . S
H1834 C1826 0.930 . S
H1835 C1827 0.929 . S
H1836 C1844 0.929 . S
H1837 C1846 0.930 . S
H1838 C1848 0.930 . S
H1839 C1851 0.929 . S
H1840 C1854 0.930 . S
H1841 C1856 0.960 . S
H1842 C1856 0.960 . S
H1843 C1856 0.960 . S
C1844 H1836 0.929 . S
C1844 C1845 1.377 . S
C1844 C1846 1.384 . S
C1845 C1844 1.377 . S
C1845 C1851 1.390 . S
C1846 H1837 0.930 . S
C1846 C1844 1.384 . S
C1846 C1847 1.372 . S
C1847 C1846 1.372 . S
C1847 C1848 1.400 . S
C1847 C1852 1.490 . S
C1848 H1838 0.930 . S
C1848 C1847 1.400 . S
C1848 C1851 1.386 . S
H1849 C1865 0.930 . S
H1850 C1866 0.931 . S
C1851 H1839 0.929 . S
C1851 C1845 1.390 . S
C1851 C1848 1.386 . S
C1852 C1847 1.490 . S
C1852 C1854 1.395 . S
C1852 C1855 1.403 . S
H1853 C1859 0.930 . S
C1854 H1840 0.930 . S
C1854 C1852 1.395 . S
C1854 C1857 1.403 . S
C1855 C1852 1.403 . S
C1855 C1856 1.524 . S
C1855 C1859 1.400 . S
C1856 H1841 0.960 . S
C1856 H1842 0.960 . S
C1856 H1843 0.960 . S
C1856 C1855 1.524 . S
C1857 C1854 1.403 . S
C1857 C1858 1.392 . S
C1857 C1861 1.495 . S
C1858 C1857 1.392 . S
C1858 C1859 1.385 . S
C1858 C1860 1.478 . S
C1859 H1853 0.930 . S
C1859 C1855 1.400 . S
C1859 C1858 1.385 . S
C1860 C1858 1.478 . S
C1860 C1862 1.381 . S
C1860 C1866 1.383 . S
C1861 C1857 1.495 . S
C1861 H1867 0.959 . S
C1861 H1868 0.961 . S
C1861 H1869 0.960 . S
C1862 C1860 1.381 . S
C1862 C1863 1.394 . S
C1862 H1870 0.930 . S
C1863 C1862 1.394 . S
C1863 C1864 1.383 . S
C1863 H1871 0.929 . S
C1864 C1863 1.383 . S
C1864 C1865 1.377 . S
C1865 H1849 0.930 . S
C1865 C1864 1.377 . S
C1865 C1866 1.379 . S
C1866 H1850 0.931 . S
C1866 C1860 1.383 . S
C1866 C1865 1.379 . S
H1867 C1861 0.959 . S
H1868 C1861 0.961 . S
H1869 C1861 0.960 . S
H1870 C1862 0.930 . S
H1871 C1863 0.929 . S
H1872 C1880 0.929 . S
H1873 C1882 0.930 . S
H1874 C1884 0.930 . S
H1875 C1887 0.929 . S
H1876 C1890 0.930 . S
H1877 C1892 0.960 . S
H1878 C1892 0.960 . S
H1879 C1892 0.960 . S
C1880 H1872 0.929 . S
C1880 C1881 1.377 . S
C1880 C1882 1.384 . S
C1881 C1880 1.377 . S
C1881 C1887 1.390 . S
C1882 H1873 0.930 . S
C1882 C1880 1.384 . S
C1882 C1883 1.372 . S
C1883 C1882 1.372 . S
C1883 C1884 1.400 . S
C1883 C1888 1.490 . S
C1884 H1874 0.930 . S
C1884 C1883 1.400 . S
C1884 C1887 1.386 . S
H1885 C1901 0.930 . S
H1886 C1902 0.931 . S
C1887 H1875 0.929 . S
C1887 C1881 1.390 . S
C1887 C1884 1.386 . S
C1888 C1883 1.490 . S
C1888 C1890 1.395 . S
C1888 C1891 1.403 . S
H1889 C1895 0.930 . S
C1890 H1876 0.930 . S
C1890 C1888 1.395 . S
C1890 C1893 1.403 . S
C1891 C1888 1.403 . S
C1891 C1892 1.524 . S
C1891 C1895 1.400 . S
C1892 H1877 0.960 . S
C1892 H1878 0.960 . S
C1892 H1879 0.960 . S
C1892 C1891 1.524 . S
C1893 C1890 1.403 . S
C1893 C1894 1.392 . S
C1893 C1897 1.495 . S
C1894 C1893 1.392 . S
C1894 C1895 1.385 . S
C1894 C1896 1.478 . S
C1895 H1889 0.930 . S
C1895 C1891 1.400 . S
C1895 C1894 1.385 . S
C1896 C1894 1.478 . S
C1896 C1898 1.381 . S
C1896 C1902 1.383 . S
C1897 C1893 1.495 . S
C1897 H1903 0.959 . S
C1897 H1904 0.961 . S
C1897 H1905 0.960 . S
C1898 C1896 1.381 . S
C1898 C1899 1.394 . S
C1898 H1906 0.930 . S
C1899 C1898 1.394 . S
C1899 C1900 1.383 . S
C1899 H1907 0.929 . S
C1900 C1899 1.383 . S
C1900 C1901 1.377 . S
C1901 H1885 0.930 . S
C1901 C1900 1.377 . S
C1901 C1902 1.379 . S
C1902 H1886 0.931 . S
C1902 C1896 1.383 . S
C1902 C1901 1.379 . S
H1903 C1897 0.959 . S
H1904 C1897 0.961 . S
H1905 C1897 0.960 . S
H1906 C1898 0.930 . S
H1907 C1899 0.929 . S
H1908 C1916 0.929 . S
H1909 C1918 0.930 . S
H1910 C1920 0.930 . S
H1911 C1923 0.929 . S
H1912 C1926 0.930 . S
H1913 C1928 0.960 . S
H1914 C1928 0.960 . S
H1915 C1928 0.960 . S
C1916 H1908 0.929 . S
C1916 C1917 1.377 . S
C1916 C1918 1.384 . S
C1917 C1916 1.377 . S
C1917 C1923 1.390 . S
C1918 H1909 0.930 . S
C1918 C1916 1.384 . S
C1918 C1919 1.372 . S
C1919 C1918 1.372 . S
C1919 C1920 1.400 . S
C1919 C1924 1.490 . S
C1920 H1910 0.930 . S
C1920 C1919 1.400 . S
C1920 C1923 1.386 . S
H1921 C1937 0.930 . S
H1922 C1938 0.931 . S
C1923 H1911 0.929 . S
C1923 C1917 1.390 . S
C1923 C1920 1.386 . S
C1924 C1919 1.490 . S
C1924 C1926 1.395 . S
C1924 C1927 1.403 . S
H1925 C1931 0.930 . S
C1926 H1912 0.930 . S
C1926 C1924 1.395 . S
C1926 C1929 1.403 . S
C1927 C1924 1.403 . S
C1927 C1928 1.524 . S
C1927 C1931 1.400 . S
C1928 H1913 0.960 . S
C1928 H1914 0.960 . S
C1928 H1915 0.960 . S
C1928 C1927 1.524 . S
C1929 C1926 1.403 . S
C1929 C1930 1.392 . S
C1929 C1933 1.495 . S
C1930 C1929 1.392 . S
C1930 C1931 1.385 . S
C1930 C1932 1.478 . S
C1931 H1925 0.930 . S
C1931 C1927 1.400 . S
C1931 C1930 1.385 . S
C1932 C1930 1.478 . S
C1932 C1934 1.381 . S
C1932 C1938 1.383 . S
C1933 C1929 1.495 . S
C1933 H1939 0.959 . S
C1933 H1940 0.961 . S
C1933 H1941 0.960 . S
C1934 C1932 1.381 . S
C1934 C1935 1.394 . S
C1934 H1942 0.930 . S
C1935 C1934 1.394 . S
C1935 C1936 1.383 . S
C1935 H1943 0.929 . S
C1936 C1935 1.383 . S
C1936 C1937 1.377 . S
C1937 H1921 0.930 . S
C1937 C1936 1.377 . S
C1937 C1938 1.379 . S
C1938 H1922 0.931 . S
C1938 C1932 1.383 . S
C1938 C1937 1.379 . S
H1939 C1933 0.959 . S
H1940 C1933 0.961 . S
H1941 C1933 0.960 . S
H1942 C1934 0.930 . S
H1943 C1935 0.929 . S
H1944 C1952 0.929 . S
H1945 C1954 0.930 . S
H1946 C1956 0.930 . S
H1947 C1959 0.929 . S
H1948 C1962 0.930 . S
H1949 C1964 0.960 . S
H1950 C1964 0.960 . S
H1951 C1964 0.960 . S
C1952 H1944 0.929 . S
C1952 C1953 1.377 . S
C1952 C1954 1.384 . S
C1953 C1952 1.377 . S
C1953 C1959 1.390 . S
C1954 H1945 0.930 . S
C1954 C1952 1.384 . S
C1954 C1955 1.372 . S
C1955 C1954 1.372 . S
C1955 C1956 1.400 . S
C1955 C1960 1.490 . S
C1956 H1946 0.930 . S
C1956 C1955 1.400 . S
C1956 C1959 1.386 . S
H1957 C1973 0.930 . S
H1958 C1974 0.931 . S
C1959 H1947 0.929 . S
C1959 C1953 1.390 . S
C1959 C1956 1.386 . S
C1960 C1955 1.490 . S
C1960 C1962 1.395 . S
C1960 C1963 1.403 . S
H1961 C1967 0.930 . S
C1962 H1948 0.930 . S
C1962 C1960 1.395 . S
C1962 C1965 1.403 . S
C1963 C1960 1.403 . S
C1963 C1964 1.524 . S
C1963 C1967 1.400 . S
C1964 H1949 0.960 . S
C1964 H1950 0.960 . S
C1964 H1951 0.960 . S
C1964 C1963 1.524 . S
C1965 C1962 1.403 . S
C1965 C1966 1.392 . S
C1965 C1969 1.495 . S
C1966 C1965 1.392 . S
C1966 C1967 1.385 . S
C1966 C1968 1.478 . S
C1967 H1961 0.930 . S
C1967 C1963 1.400 . S
C1967 C1966 1.385 . S
C1968 C1966 1.478 . S
C1968 C1970 1.381 . S
C1968 C1974 1.383 . S
C1969 C1965 1.495 . S
C1969 H1975 0.959 . S
C1969 H1976 0.961 . S
C1969 H1977 0.960 . S
C1970 C1968 1.381 . S
C1970 C1971 1.394 . S
C1970 H1978 0.930 . S
C1971 C1970 1.394 . S
C1971 C1972 1.383 . S
C1971 H1979 0.929 . S
C1972 C1971 1.383 . S
C1972 C1973 1.377 . S
C1973 H1957 0.930 . S
C1973 C1972 1.377 . S
C1973 C1974 1.379 . S
C1974 H1958 0.931 . S
C1974 C1968 1.383 . S
C1974 C1973 1.379 . S
H1975 C1969 0.959 . S
H1976 C1969 0.961 . S
H1977 C1969 0.960 . S
H1978 C1970 0.930 . S
H1979 C1971 0.929 . S
H1980 C1988 0.929 . S
H1981 C1990 0.930 . S
H1982 C1992 0.930 . S
H1983 C1995 0.929 . S
H1984 C1998 0.930 . S
H1985 C2000 0.960 . S
H1986 C2000 0.960 . S
H1987 C2000 0.960 . S
C1988 H1980 0.929 . S
C1988 C1989 1.377 . S
C1988 C1990 1.384 . S
C1989 C1988 1.377 . S
C1989 C1995 1.390 . S
C1990 H1981 0.930 . S
C1990 C1988 1.384 . S
C1990 C1991 1.372 . S
C1991 C1990 1.372 . S
C1991 C1992 1.400 . S
C1991 C1996 1.490 . S
C1992 H1982 0.930 . S
C1992 C1991 1.400 . S
C1992 C1995 1.386 . S
H1993 C2009 0.930 . S
H1994 C2010 0.931 . S
C1995 H1983 0.929 . S
C1995 C1989 1.390 . S
C1995 C1992 1.386 . S
C1996 C1991 1.490 . S
C1996 C1998 1.395 . S
C1996 C1999 1.403 . S
H1997 C2003 0.930 . S
C1998 H1984 0.930 . S
C1998 C1996 1.395 . S
C1998 C2001 1.403 . S
C1999 C1996 1.403 . S
C1999 C2000 1.524 . S
C1999 C2003 1.400 . S
C2000 H1985 0.960 . S
C2000 H1986 0.960 . S
C2000 H1987 0.960 . S
C2000 C1999 1.524 . S
C2001 C1998 1.403 . S
C2001 C2002 1.392 . S
C2001 C2005 1.495 . S
C2002 C2001 1.392 . S
C2002 C2003 1.385 . S
C2002 C2004 1.478 . S
C2003 H1997 0.930 . S
C2003 C1999 1.400 . S
C2003 C2002 1.385 . S
C2004 C2002 1.478 . S
C2004 C2006 1.381 . S
C2004 C2010 1.383 . S
C2005 C2001 1.495 . S
C2005 H2011 0.959 . S
C2005 H2012 0.961 . S
C2005 H2013 0.960 . S
C2006 C2004 1.381 . S
C2006 C2007 1.394 . S
C2006 H2014 0.930 . S
C2007 C2006 1.394 . S
C2007 C2008 1.383 . S
C2007 H2015 0.929 . S
C2008 C2007 1.383 . S
C2008 C2009 1.377 . S
C2009 H1993 0.930 . S
C2009 C2008 1.377 . S
C2009 C2010 1.379 . S
C2010 H1994 0.931 . S
C2010 C2004 1.383 . S
C2010 C2009 1.379 . S
H2011 C2005 0.959 . S
H2012 C2005 0.961 . S
H2013 C2005 0.960 . S
H2014 C2006 0.930 . S
H2015 C2007 0.929 . S
H2016 C2024 0.929 . S
H2017 C2026 0.930 . S
H2018 C2028 0.930 . S
H2019 C2031 0.929 . S
H2020 C2034 0.930 . S
H2021 C2036 0.960 . S
H2022 C2036 0.960 . S
H2023 C2036 0.960 . S
C2024 H2016 0.929 . S
C2024 C2025 1.377 . S
C2024 C2026 1.384 . S
C2025 C2024 1.377 . S
C2025 C2031 1.390 . S
C2026 H2017 0.930 . S
C2026 C2024 1.384 . S
C2026 C2027 1.372 . S
C2027 C2026 1.372 . S
C2027 C2028 1.400 . S
C2027 C2032 1.490 . S
C2028 H2018 0.930 . S
C2028 C2027 1.400 . S
C2028 C2031 1.386 . S
H2029 C2045 0.930 . S
H2030 C2046 0.931 . S
C2031 H2019 0.929 . S
C2031 C2025 1.390 . S
C2031 C2028 1.386 . S
C2032 C2027 1.490 . S
C2032 C2034 1.395 . S
C2032 C2035 1.403 . S
H2033 C2039 0.930 . S
C2034 H2020 0.930 . S
C2034 C2032 1.395 . S
C2034 C2037 1.403 . S
C2035 C2032 1.403 . S
C2035 C2036 1.524 . S
C2035 C2039 1.400 . S
C2036 H2021 0.960 . S
C2036 H2022 0.960 . S
C2036 H2023 0.960 . S
C2036 C2035 1.524 . S
C2037 C2034 1.403 . S
C2037 C2038 1.392 . S
C2037 C2041 1.495 . S
C2038 C2037 1.392 . S
C2038 C2039 1.385 . S
C2038 C2040 1.478 . S
C2039 H2033 0.930 . S
C2039 C2035 1.400 . S
C2039 C2038 1.385 . S
C2040 C2038 1.478 . S
C2040 C2042 1.381 . S
C2040 C2046 1.383 . S
C2041 C2037 1.495 . S
C2041 H2047 0.959 . S
C2041 H2048 0.961 . S
C2041 H2049 0.960 . S
C2042 C2040 1.381 . S
C2042 C2043 1.394 . S
C2042 H2050 0.930 . S
C2043 C2042 1.394 . S
C2043 C2044 1.383 . S
C2043 H2051 0.929 . S
C2044 C2043 1.383 . S
C2044 C2045 1.377 . S
C2045 H2029 0.930 . S
C2045 C2044 1.377 . S
C2045 C2046 1.379 . S
C2046 H2030 0.931 . S
C2046 C2040 1.383 . S
C2046 C2045 1.379 . S
H2047 C2041 0.959 . S
H2048 C2041 0.961 . S
H2049 C2041 0.960 . S
H2050 C2042 0.930 . S
H2051 C2043 0.929 . S
H2052 C2060 0.929 . S
H2053 C2062 0.930 . S
H2054 C2064 0.930 . S
H2055 C2067 0.932 . S
H2056 C2070 0.930 . S
H2057 C2072 0.960 . S
H2058 C2072 0.960 . S
H2059 C2072 0.960 . S
C2060 H2052 0.929 . S
C2060 C2061 1.377 . S
C2060 C2062 1.384 . S
C2061 C2060 1.377 . S
C2061 C2067 1.388 1_556 S
C2062 H2053 0.930 . S
C2062 C2060 1.384 . S
C2062 C2063 1.372 . S
C2063 C2062 1.372 . S
C2063 C2064 1.400 . S
C2063 C2068 1.490 . S
C2064 H2054 0.930 . S
C2064 C2063 1.400 . S
C2064 C2067 1.384 1_556 S
H2065 C2081 0.930 . S
H2066 C2082 0.931 . S
C2067 H2055 0.932 . S
C2067 C2061 1.388 1_554 S
C2067 C2064 1.384 1_554 S
C2068 C2063 1.490 . S
C2068 C2070 1.395 . S
C2068 C2071 1.403 . S
H2069 C2075 0.930 . S
C2070 H2056 0.930 . S
C2070 C2068 1.395 . S
C2070 C2073 1.403 . S
C2071 C2068 1.403 . S
C2071 C2072 1.524 . S
C2071 C2075 1.400 . S
C2072 H2057 0.960 . S
C2072 H2058 0.960 . S
C2072 H2059 0.960 . S
C2072 C2071 1.524 . S
C2073 C2070 1.403 . S
C2073 C2074 1.392 . S
C2073 C2077 1.495 . S
C2074 C2073 1.392 . S
C2074 C2075 1.385 . S
C2074 C2076 1.478 . S
C2075 H2069 0.930 . S
C2075 C2071 1.400 . S
C2075 C2074 1.385 . S
C2076 C2074 1.478 . S
C2076 C2078 1.381 . S
C2076 C2082 1.383 . S
C2077 C2073 1.495 . S
C2077 H2083 0.959 . S
C2077 H2084 0.961 . S
C2077 H2085 0.960 . S
C2078 C2076 1.381 . S
C2078 C2079 1.394 . S
C2078 H2086 0.930 . S
C2079 C2078 1.394 . S
C2079 C2080 1.383 . S
C2079 H2087 0.929 . S
C2080 C2079 1.383 . S
C2080 C2081 1.377 . S
C2081 H2065 0.930 . S
C2081 C2080 1.377 . S
C2081 C2082 1.379 . S
C2082 H2066 0.931 . S
C2082 C2076 1.383 . S
C2082 C2081 1.379 . S
H2083 C2077 0.959 . S
H2084 C2077 0.961 . S
H2085 C2077 0.960 . S
H2086 C2078 0.930 . S
H2087 C2079 0.929 . S
H2088 C2096 0.929 1_554 S
H2089 C2098 0.930 . S
H2090 C2100 0.930 . S
H2091 C2103 0.929 . S
H2092 C2106 0.930 . S
H2093 C2108 0.960 . S
H2094 C2108 0.960 . S
H2095 C2108 0.960 . S
C2096 H2088 0.929 1_556 S
C2096 C2097 1.377 . S
C2096 C2098 1.384 . S
C2097 C2096 1.377 . S
C2097 C2103 1.390 . S
C2098 H2089 0.930 . S
C2098 C2096 1.384 . S
C2098 C2099 1.372 . S
C2099 C2098 1.372 . S
C2099 C2100 1.400 . S
C2099 C2104 1.490 . S
C2100 H2090 0.930 . S
C2100 C2099 1.400 . S
C2100 C2103 1.386 . S
H2101 C2117 0.930 . S
H2102 C2118 0.931 . S
C2103 H2091 0.929 . S
C2103 C2097 1.390 . S
C2103 C2100 1.386 . S
C2104 C2099 1.490 . S
C2104 C2106 1.395 . S
C2104 C2107 1.403 . S
H2105 C2111 0.930 . S
C2106 H2092 0.930 . S
C2106 C2104 1.395 . S
C2106 C2109 1.403 . S
C2107 C2104 1.403 . S
C2107 C2108 1.524 . S
C2107 C2111 1.400 . S
C2108 H2093 0.960 . S
C2108 H2094 0.960 . S
C2108 H2095 0.960 . S
C2108 C2107 1.524 . S
C2109 C2106 1.403 . S
C2109 C2110 1.392 . S
C2109 C2113 1.495 . S
C2110 C2109 1.392 . S
C2110 C2111 1.385 . S
C2110 C2112 1.478 . S
C2111 H2105 0.930 . S
C2111 C2107 1.400 . S
C2111 C2110 1.385 . S
C2112 C2110 1.478 . S
C2112 C2114 1.381 . S
C2112 C2118 1.383 . S
C2113 C2109 1.495 . S
C2113 H2119 0.959 . S
C2113 H2120 0.961 . S
C2113 H2121 0.960 . S
C2114 C2112 1.381 . S
C2114 C2115 1.394 . S
C2114 H2122 0.930 . S
C2115 C2114 1.394 . S
C2115 C2116 1.383 . S
C2115 H2123 0.929 . S
C2116 C2115 1.383 . S
C2116 C2117 1.377 . S
C2117 H2101 0.930 . S
C2117 C2116 1.377 . S
C2117 C2118 1.379 . S
C2118 H2102 0.931 . S
C2118 C2112 1.383 . S
C2118 C2117 1.379 . S
H2119 C2113 0.959 . S
H2120 C2113 0.961 . S
H2121 C2113 0.960 . S
H2122 C2114 0.930 . S
H2123 C2115 0.929 . S
H2124 C2132 0.929 1_554 S
H2125 C2134 0.930 . S
H2126 C2136 0.930 . S
H2127 C2139 0.929 . S
H2128 C2142 0.930 . S
H2129 C2144 0.960 . S
H2130 C2144 0.960 . S
H2131 C2144 0.960 . S
C2132 H2124 0.929 1_556 S
C2132 C2133 1.377 . S
C2132 C2134 1.384 . S
C2133 C2132 1.377 . S
C2133 C2139 1.390 . S
C2134 H2125 0.930 . S
C2134 C2132 1.384 . S
C2134 C2135 1.372 . S
C2135 C2134 1.372 . S
C2135 C2136 1.400 . S
C2135 C2140 1.490 . S
C2136 H2126 0.930 . S
C2136 C2135 1.400 . S
C2136 C2139 1.386 . S
H2137 C2153 0.930 . S
H2138 C2154 0.931 . S
C2139 H2127 0.929 . S
C2139 C2133 1.390 . S
C2139 C2136 1.386 . S
C2140 C2135 1.490 . S
C2140 C2142 1.395 . S
C2140 C2143 1.403 . S
H2141 C2147 0.930 . S
C2142 H2128 0.930 . S
C2142 C2140 1.395 . S
C2142 C2145 1.403 . S
C2143 C2140 1.403 . S
C2143 C2144 1.524 . S
C2143 C2147 1.400 . S
C2144 H2129 0.960 . S
C2144 H2130 0.960 . S
C2144 H2131 0.960 . S
C2144 C2143 1.524 . S
C2145 C2142 1.403 . S
C2145 C2146 1.392 . S
C2145 C2149 1.495 . S
C2146 C2145 1.392 . S
C2146 C2147 1.385 . S
C2146 C2148 1.478 . S
C2147 H2141 0.930 . S
C2147 C2143 1.400 . S
C2147 C2146 1.385 . S
C2148 C2146 1.478 . S
C2148 C2150 1.381 . S
C2148 C2154 1.383 . S
C2149 C2145 1.495 . S
C2149 H2155 0.959 . S
C2149 H2156 0.961 . S
C2149 H2157 0.960 . S
C2150 C2148 1.381 . S
C2150 C2151 1.394 . S
C2150 H2158 0.930 . S
C2151 C2150 1.394 . S
C2151 C2152 1.383 . S
C2151 H2159 0.929 . S
C2152 C2151 1.383 . S
C2152 C2153 1.377 . S
C2153 H2137 0.930 . S
C2153 C2152 1.377 . S
C2153 C2154 1.379 . S
C2154 H2138 0.931 . S
C2154 C2148 1.383 . S
C2154 C2153 1.379 . S
H2155 C2149 0.959 . S
H2156 C2149 0.961 . S
H2157 C2149 0.960 . S
H2158 C2150 0.930 . S
H2159 C2151 0.929 . S
H2160 C2168 0.929 1_554 S
H2161 C2170 0.930 . S
H2162 C2172 0.930 . S
H2163 C2175 0.929 . S
H2164 C2178 0.930 . S
H2165 C2180 0.960 . S
H2166 C2180 0.960 . S
H2167 C2180 0.960 . S
C2168 H2160 0.929 1_556 S
C2168 C2169 1.377 . S
C2168 C2170 1.384 . S
C2169 C2168 1.377 . S
C2169 C2175 1.390 . S
C2170 H2161 0.930 . S
C2170 C2168 1.384 . S
C2170 C2171 1.372 . S
C2171 C2170 1.372 . S
C2171 C2172 1.400 . S
C2171 C2176 1.490 . S
C2172 H2162 0.930 . S
C2172 C2171 1.400 . S
C2172 C2175 1.386 . S
H2173 C2189 0.930 . S
H2174 C2190 0.931 . S
C2175 H2163 0.929 . S
C2175 C2169 1.390 . S
C2175 C2172 1.386 . S
C2176 C2171 1.490 . S
C2176 C2178 1.395 . S
C2176 C2179 1.403 . S
H2177 C2183 0.930 . S
C2178 H2164 0.930 . S
C2178 C2176 1.395 . S
C2178 C2181 1.403 . S
C2179 C2176 1.403 . S
C2179 C2180 1.524 . S
C2179 C2183 1.400 . S
C2180 H2165 0.960 . S
C2180 H2166 0.960 . S
C2180 H2167 0.960 . S
C2180 C2179 1.524 . S
C2181 C2178 1.403 . S
C2181 C2182 1.392 . S
C2181 C2185 1.495 . S
C2182 C2181 1.392 . S
C2182 C2183 1.385 . S
C2182 C2184 1.478 . S
C2183 H2177 0.930 . S
C2183 C2179 1.400 . S
C2183 C2182 1.385 . S
C2184 C2182 1.478 . S
C2184 C2186 1.381 . S
C2184 C2190 1.383 . S
C2185 C2181 1.495 . S
C2185 H2191 0.959 . S
C2185 H2192 0.961 . S
C2185 H2193 0.960 . S
C2186 C2184 1.381 . S
C2186 C2187 1.394 . S
C2186 H2194 0.930 . S
C2187 C2186 1.394 . S
C2187 C2188 1.383 . S
C2187 H2195 0.929 . S
C2188 C2187 1.383 . S
C2188 C2189 1.377 . S
C2189 H2173 0.930 . S
C2189 C2188 1.377 . S
C2189 C2190 1.379 . S
C2190 H2174 0.931 . S
C2190 C2184 1.383 . S
C2190 C2189 1.379 . S
H2191 C2185 0.959 . S
H2192 C2185 0.961 . S
H2193 C2185 0.960 . S
H2194 C2186 0.930 . S
H2195 C2187 0.929 . S
H2196 C2204 0.929 . S
H2197 C2206 0.930 . S
H2198 C2208 0.930 . S
H2199 C2211 0.929 . S
H2200 C2214 0.930 . S
H2201 C2216 0.960 . S
H2202 C2216 0.960 . S
H2203 C2216 0.960 . S
C2204 H2196 0.929 . S
C2204 C2205 1.377 . S
C2204 C2206 1.384 . S
C2205 C2204 1.377 . S
C2205 C2211 1.390 . S
C2206 H2197 0.930 . S
C2206 C2204 1.384 . S
C2206 C2207 1.372 . S
C2207 C2206 1.372 . S
C2207 C2208 1.400 . S
C2207 C2212 1.490 . S
C2208 H2198 0.930 . S
C2208 C2207 1.400 . S
C2208 C2211 1.386 . S
H2209 C2225 0.930 . S
H2210 C2226 0.931 . S
C2211 H2199 0.929 . S
C2211 C2205 1.390 . S
C2211 C2208 1.386 . S
C2212 C2207 1.490 . S
C2212 C2214 1.395 . S
C2212 C2215 1.403 . S
H2213 C2219 0.930 . S
C2214 H2200 0.930 . S
C2214 C2212 1.395 . S
C2214 C2217 1.403 . S
C2215 C2212 1.403 . S
C2215 C2216 1.524 . S
C2215 C2219 1.400 . S
C2216 H2201 0.960 . S
C2216 H2202 0.960 . S
C2216 H2203 0.960 . S
C2216 C2215 1.524 . S
C2217 C2214 1.403 . S
C2217 C2218 1.392 . S
C2217 C2221 1.495 . S
C2218 C2217 1.392 . S
C2218 C2219 1.385 . S
C2218 C2220 1.478 . S
C2219 H2213 0.930 . S
C2219 C2215 1.400 . S
C2219 C2218 1.385 . S
C2220 C2218 1.478 . S
C2220 C2222 1.381 . S
C2220 C2226 1.383 . S
C2221 C2217 1.495 . S
C2221 H2227 0.959 . S
C2221 H2228 0.961 . S
C2221 H2229 0.960 . S
C2222 C2220 1.381 . S
C2222 C2223 1.394 . S
C2222 H2230 0.930 . S
C2223 C2222 1.394 . S
C2223 C2224 1.383 . S
C2223 H2231 0.929 . S
C2224 C2223 1.383 . S
C2224 C2225 1.377 . S
C2225 H2209 0.930 . S
C2225 C2224 1.377 . S
C2225 C2226 1.379 . S
C2226 H2210 0.931 . S
C2226 C2220 1.383 . S
C2226 C2225 1.379 . S
H2227 C2221 0.959 . S
H2228 C2221 0.961 . S
H2229 C2221 0.960 . S
H2230 C2222 0.930 . S
H2231 C2223 0.929 . S
H2232 C2240 0.929 . S
H2233 C2242 0.930 . S
H2234 C2244 0.930 . S
H2235 C2247 0.929 . S
H2236 C2250 0.930 . S
H2237 C2252 0.960 . S
H2238 C2252 0.960 . S
H2239 C2252 0.960 . S
C2240 H2232 0.929 . S
C2240 C2241 1.377 . S
C2240 C2242 1.384 . S
C2241 C2240 1.377 . S
C2241 C2247 1.390 . S
C2242 H2233 0.930 . S
C2242 C2240 1.384 . S
C2242 C2243 1.372 . S
C2243 C2242 1.372 . S
C2243 C2244 1.400 . S
C2243 C2248 1.490 . S
C2244 H2234 0.930 . S
C2244 C2243 1.400 . S
C2244 C2247 1.386 . S
H2245 C2261 0.930 . S
H2246 C2262 0.931 . S
C2247 H2235 0.929 . S
C2247 C2241 1.390 . S
C2247 C2244 1.386 . S
C2248 C2243 1.490 . S
C2248 C2250 1.395 . S
C2248 C2251 1.403 . S
H2249 C2255 0.930 . S
C2250 H2236 0.930 . S
C2250 C2248 1.395 . S
C2250 C2253 1.403 . S
C2251 C2248 1.403 . S
C2251 C2252 1.524 . S
C2251 C2255 1.400 . S
C2252 H2237 0.960 . S
C2252 H2238 0.960 . S
C2252 H2239 0.960 . S
C2252 C2251 1.524 . S
C2253 C2250 1.403 . S
C2253 C2254 1.392 . S
C2253 C2257 1.495 . S
C2254 C2253 1.392 . S
C2254 C2255 1.385 . S
C2254 C2256 1.478 . S
C2255 H2249 0.930 . S
C2255 C2251 1.400 . S
C2255 C2254 1.385 . S
C2256 C2254 1.478 . S
C2256 C2258 1.381 . S
C2256 C2262 1.383 . S
C2257 C2253 1.495 . S
C2257 H2263 0.959 . S
C2257 H2264 0.961 . S
C2257 H2265 0.960 . S
C2258 C2256 1.381 . S
C2258 C2259 1.394 . S
C2258 H2266 0.930 . S
C2259 C2258 1.394 . S
C2259 C2260 1.383 . S
C2259 H2267 0.929 . S
C2260 C2259 1.383 . S
C2260 C2261 1.377 . S
C2261 H2245 0.930 . S
C2261 C2260 1.377 . S
C2261 C2262 1.379 . S
C2262 H2246 0.931 . S
C2262 C2256 1.383 . S
C2262 C2261 1.379 . S
H2263 C2257 0.959 . S
H2264 C2257 0.961 . S
H2265 C2257 0.960 . S
H2266 C2258 0.930 . S
H2267 C2259 0.929 . S
H2268 C2276 0.929 . S
H2269 C2278 0.930 . S
H2270 C2280 0.930 . S
H2271 C2283 0.929 . S
H2272 C2286 0.930 . S
H2273 C2288 0.960 . S
H2274 C2288 0.960 . S
H2275 C2288 0.960 . S
C2276 H2268 0.929 . S
C2276 C2277 1.377 . S
C2276 C2278 1.384 . S
C2277 C2276 1.377 . S
C2277 C2283 1.390 . S
C2278 H2269 0.930 . S
C2278 C2276 1.384 . S
C2278 C2279 1.372 . S
C2279 C2278 1.372 . S
C2279 C2280 1.400 . S
C2279 C2284 1.490 . S
C2280 H2270 0.930 . S
C2280 C2279 1.400 . S
C2280 C2283 1.386 . S
H2281 C2297 0.930 . S
H2282 C2298 0.931 . S
C2283 H2271 0.929 . S
C2283 C2277 1.390 . S
C2283 C2280 1.386 . S
C2284 C2279 1.490 . S
C2284 C2286 1.395 . S
C2284 C2287 1.403 . S
H2285 C2291 0.930 . S
C2286 H2272 0.930 . S
C2286 C2284 1.395 . S
C2286 C2289 1.403 . S
C2287 C2284 1.403 . S
C2287 C2288 1.524 . S
C2287 C2291 1.400 . S
C2288 H2273 0.960 . S
C2288 H2274 0.960 . S
C2288 H2275 0.960 . S
C2288 C2287 1.524 . S
C2289 C2286 1.403 . S
C2289 C2290 1.392 . S
C2289 C2293 1.495 . S
C2290 C2289 1.392 . S
C2290 C2291 1.385 . S
C2290 C2292 1.478 . S
C2291 H2285 0.930 . S
C2291 C2287 1.400 . S
C2291 C2290 1.385 . S
C2292 C2290 1.478 . S
C2292 C2294 1.381 . S
C2292 C2298 1.383 . S
C2293 C2289 1.495 . S
C2293 H2299 0.959 . S
C2293 H2300 0.961 . S
C2293 H2301 0.960 . S
C2294 C2292 1.381 . S
C2294 C2295 1.394 . S
C2294 H2302 0.930 . S
C2295 C2294 1.394 . S
C2295 C2296 1.383 . S
C2295 H2303 0.929 . S
C2296 C2295 1.383 . S
C2296 C2297 1.377 . S
C2297 H2281 0.930 . S
C2297 C2296 1.377 . S
C2297 C2298 1.379 . S
C2298 H2282 0.931 . S
C2298 C2292 1.383 . S
C2298 C2297 1.379 . S
H2299 C2293 0.959 . S
H2300 C2293 0.961 . S
H2301 C2293 0.960 . S
H2302 C2294 0.930 . S
H2303 C2295 0.929 . S
H2304 C2312 0.929 . S
H2305 C2314 0.930 . S
H2306 C2316 0.930 . S
H2307 C2319 0.929 . S
H2308 C2322 0.930 . S
H2309 C2324 0.960 . S
H2310 C2324 0.960 . S
H2311 C2324 0.960 . S
C2312 H2304 0.929 . S
C2312 C2313 1.377 . S
C2312 C2314 1.384 . S
C2313 C2312 1.377 . S
C2313 C2319 1.390 . S
C2314 H2305 0.930 . S
C2314 C2312 1.384 . S
C2314 C2315 1.372 . S
C2315 C2314 1.372 . S
C2315 C2316 1.400 . S
C2315 C2320 1.490 . S
C2316 H2306 0.930 . S
C2316 C2315 1.400 . S
C2316 C2319 1.386 . S
H2317 C2333 0.930 . S
H2318 C2334 0.931 . S
C2319 H2307 0.929 . S
C2319 C2313 1.390 . S
C2319 C2316 1.386 . S
C2320 C2315 1.490 . S
C2320 C2322 1.395 . S
C2320 C2323 1.403 . S
H2321 C2327 0.930 . S
C2322 H2308 0.930 . S
C2322 C2320 1.395 . S
C2322 C2325 1.403 . S
C2323 C2320 1.403 . S
C2323 C2324 1.524 . S
C2323 C2327 1.400 . S
C2324 H2309 0.960 . S
C2324 H2310 0.960 . S
C2324 H2311 0.960 . S
C2324 C2323 1.524 . S
C2325 C2322 1.403 . S
C2325 C2326 1.392 . S
C2325 C2329 1.495 . S
C2326 C2325 1.392 . S
C2326 C2327 1.385 . S
C2326 C2328 1.478 . S
C2327 H2321 0.930 . S
C2327 C2323 1.400 . S
C2327 C2326 1.385 . S
C2328 C2326 1.478 . S
C2328 C2330 1.381 . S
C2328 C2334 1.383 . S
C2329 C2325 1.495 . S
C2329 H2335 0.959 . S
C2329 H2336 0.961 . S
C2329 H2337 0.960 . S
C2330 C2328 1.381 . S
C2330 C2331 1.394 . S
C2330 H2338 0.930 . S
C2331 C2330 1.394 . S
C2331 C2332 1.383 . S
C2331 H2339 0.929 . S
C2332 C2331 1.383 . S
C2332 C2333 1.377 . S
C2333 H2317 0.930 . S
C2333 C2332 1.377 . S
C2333 C2334 1.379 . S
C2334 H2318 0.931 . S
C2334 C2328 1.383 . S
C2334 C2333 1.379 . S
H2335 C2329 0.959 . S
H2336 C2329 0.961 . S
H2337 C2329 0.960 . S
H2338 C2330 0.930 . S
H2339 C2331 0.929 . S
H2340 C2348 0.929 . S
H2341 C2350 0.930 . S
H2342 C2352 0.930 . S
H2343 C2355 0.929 . S
H2344 C2358 0.930 . S
H2345 C2360 0.960 . S
H2346 C2360 0.960 . S
H2347 C2360 0.960 . S
C2348 H2340 0.929 . S
C2348 C2349 1.377 . S
C2348 C2350 1.384 . S
C2349 C2348 1.377 . S
C2349 C2355 1.390 . S
C2350 H2341 0.930 . S
C2350 C2348 1.384 . S
C2350 C2351 1.372 . S
C2351 C2350 1.372 . S
C2351 C2352 1.400 . S
C2351 C2356 1.490 . S
C2352 H2342 0.930 . S
C2352 C2351 1.400 . S
C2352 C2355 1.386 . S
H2353 C2369 0.930 . S
H2354 C2370 0.931 . S
C2355 H2343 0.929 . S
C2355 C2349 1.390 . S
C2355 C2352 1.386 . S
C2356 C2351 1.490 . S
C2356 C2358 1.395 . S
C2356 C2359 1.403 . S
H2357 C2363 0.930 . S
C2358 H2344 0.930 . S
C2358 C2356 1.395 . S
C2358 C2361 1.403 . S
C2359 C2356 1.403 . S
C2359 C2360 1.524 . S
C2359 C2363 1.400 . S
C2360 H2345 0.960 . S
C2360 H2346 0.960 . S
C2360 H2347 0.960 . S
C2360 C2359 1.524 . S
C2361 C2358 1.403 . S
C2361 C2362 1.392 . S
C2361 C2365 1.495 . S
C2362 C2361 1.392 . S
C2362 C2363 1.385 . S
C2362 C2364 1.478 . S
C2363 H2357 0.930 . S
C2363 C2359 1.400 . S
C2363 C2362 1.385 . S
C2364 C2362 1.478 . S
C2364 C2366 1.381 . S
C2364 C2370 1.383 . S
C2365 C2361 1.495 . S
C2365 H2371 0.959 . S
C2365 H2372 0.961 . S
C2365 H2373 0.960 . S
C2366 C2364 1.381 . S
C2366 C2367 1.394 . S
C2366 H2374 0.930 . S
C2367 C2366 1.394 . S
C2367 C2368 1.383 . S
C2367 H2375 0.929 . S
C2368 C2367 1.383 . S
C2368 C2369 1.377 . S
C2369 H2353 0.930 . S
C2369 C2368 1.377 . S
C2369 C2370 1.379 . S
C2370 H2354 0.931 . S
C2370 C2364 1.383 . S
C2370 C2369 1.379 . S
H2371 C2365 0.959 . S
H2372 C2365 0.961 . S
H2373 C2365 0.960 . S
H2374 C2366 0.930 . S
H2375 C2367 0.929 . S
H2376 C2384 0.929 . S
H2377 C2386 0.930 . S
H2378 C2388 0.930 . S
H2379 C2391 0.929 . S
H2380 C2394 0.930 . S
H2381 C2396 0.960 . S
H2382 C2396 0.960 . S
H2383 C2396 0.960 . S
C2384 H2376 0.929 . S
C2384 C2385 1.377 . S
C2384 C2386 1.384 . S
C2385 C2384 1.377 . S
C2385 C2391 1.390 . S
C2386 H2377 0.930 . S
C2386 C2384 1.384 . S
C2386 C2387 1.372 . S
C2387 C2386 1.372 . S
C2387 C2388 1.400 . S
C2387 C2392 1.490 . S
C2388 H2378 0.930 . S
C2388 C2387 1.400 . S
C2388 C2391 1.386 . S
H2389 C2405 0.930 . S
H2390 C2406 0.931 . S
C2391 H2379 0.929 . S
C2391 C2385 1.390 . S
C2391 C2388 1.386 . S
C2392 C2387 1.490 . S
C2392 C2394 1.395 . S
C2392 C2395 1.403 . S
H2393 C2399 0.930 . S
C2394 H2380 0.930 . S
C2394 C2392 1.395 . S
C2394 C2397 1.403 . S
C2395 C2392 1.403 . S
C2395 C2396 1.524 . S
C2395 C2399 1.400 . S
C2396 H2381 0.960 . S
C2396 H2382 0.960 . S
C2396 H2383 0.960 . S
C2396 C2395 1.524 . S
C2397 C2394 1.403 . S
C2397 C2398 1.392 . S
C2397 C2401 1.495 . S
C2398 C2397 1.392 . S
C2398 C2399 1.385 . S
C2398 C2400 1.478 . S
C2399 H2393 0.930 . S
C2399 C2395 1.400 . S
C2399 C2398 1.385 . S
C2400 C2398 1.478 . S
C2400 C2402 1.381 . S
C2400 C2406 1.383 . S
C2401 C2397 1.495 . S
C2401 H2407 0.959 . S
C2401 H2408 0.961 . S
C2401 H2409 0.960 . S
C2402 C2400 1.381 . S
C2402 C2403 1.394 . S
C2402 H2410 0.930 . S
C2403 C2402 1.394 . S
C2403 C2404 1.383 . S
C2403 H2411 0.929 . S
C2404 C2403 1.383 . S
C2404 C2405 1.377 . S
C2405 H2389 0.930 . S
C2405 C2404 1.377 . S
C2405 C2406 1.379 . S
C2406 H2390 0.931 . S
C2406 C2400 1.383 . S
C2406 C2405 1.379 . S
H2407 C2401 0.959 . S
H2408 C2401 0.961 . S
H2409 C2401 0.960 . S
H2410 C2402 0.930 . S
H2411 C2403 0.929 . S
H2412 C2420 0.929 . S
H2413 C2422 0.930 . S
H2414 C2424 0.930 . S
H2415 C2427 0.929 . S
H2416 C2430 0.930 . S
H2417 C2432 0.960 . S
H2418 C2432 0.960 . S
H2419 C2432 0.960 . S
C2420 H2412 0.929 . S
C2420 C2421 1.377 . S
C2420 C2422 1.384 . S
C2421 C2420 1.377 . S
C2421 C2427 1.390 . S
C2422 H2413 0.930 . S
C2422 C2420 1.384 . S
C2422 C2423 1.372 . S
C2423 C2422 1.372 . S
C2423 C2424 1.400 . S
C2423 C2428 1.490 . S
C2424 H2414 0.930 . S
C2424 C2423 1.400 . S
C2424 C2427 1.386 . S
H2425 C2441 0.930 . S
H2426 C2442 0.931 . S
C2427 H2415 0.929 . S
C2427 C2421 1.390 . S
C2427 C2424 1.386 . S
C2428 C2423 1.490 . S
C2428 C2430 1.395 . S
C2428 C2431 1.403 . S
H2429 C2435 0.930 . S
C2430 H2416 0.930 . S
C2430 C2428 1.395 . S
C2430 C2433 1.403 . S
C2431 C2428 1.403 . S
C2431 C2432 1.524 . S
C2431 C2435 1.400 . S
C2432 H2417 0.960 . S
C2432 H2418 0.960 . S
C2432 H2419 0.960 . S
C2432 C2431 1.524 . S
C2433 C2430 1.403 . S
C2433 C2434 1.392 . S
C2433 C2437 1.495 . S
C2434 C2433 1.392 . S
C2434 C2435 1.385 . S
C2434 C2436 1.478 . S
C2435 H2429 0.930 . S
C2435 C2431 1.400 . S
C2435 C2434 1.385 . S
C2436 C2434 1.478 . S
C2436 C2438 1.381 . S
C2436 C2442 1.383 . S
C2437 C2433 1.495 . S
C2437 H2443 0.959 . S
C2437 H2444 0.961 . S
C2437 H2445 0.960 . S
C2438 C2436 1.381 . S
C2438 C2439 1.394 . S
C2438 H2446 0.930 . S
C2439 C2438 1.394 . S
C2439 C2440 1.383 . S
C2439 H2447 0.929 . S
C2440 C2439 1.383 . S
C2440 C2441 1.377 . S
C2441 H2425 0.930 . S
C2441 C2440 1.377 . S
C2441 C2442 1.379 . S
C2442 H2426 0.931 . S
C2442 C2436 1.383 . S
C2442 C2441 1.379 . S
H2443 C2437 0.959 . S
H2444 C2437 0.961 . S
H2445 C2437 0.960 . S
H2446 C2438 0.930 . S
H2447 C2439 0.929 . S
H2448 C2456 0.929 . S
H2449 C2458 0.930 . S
H2450 C2460 0.930 . S
H2451 C2463 0.929 . S
H2452 C2466 0.930 . S
H2453 C2468 0.960 . S
H2454 C2468 0.960 . S
H2455 C2468 0.960 1_455 S
C2456 H2448 0.929 . S
C2456 C2457 1.377 . S
C2456 C2458 1.384 . S
C2457 C2456 1.377 . S
C2457 C2463 1.390 . S
C2458 H2449 0.930 . S
C2458 C2456 1.384 . S
C2458 C2459 1.372 . S
C2459 C2458 1.372 . S
C2459 C2460 1.400 . S
C2459 C2464 1.490 . S
C2460 H2450 0.930 . S
C2460 C2459 1.400 . S
C2460 C2463 1.386 . S
H2461 C2477 0.930 . S
H2462 C2478 0.931 . S
C2463 H2451 0.929 . S
C2463 C2457 1.390 . S
C2463 C2460 1.386 . S
C2464 C2459 1.490 . S
C2464 C2466 1.395 . S
C2464 C2467 1.403 . S
H2465 C2471 0.930 . S
C2466 H2452 0.930 . S
C2466 C2464 1.395 . S
C2466 C2469 1.403 . S
C2467 C2464 1.403 . S
C2467 C2468 1.524 1_455 S
C2467 C2471 1.400 . S
C2468 H2453 0.960 . S
C2468 H2454 0.960 . S
C2468 H2455 0.960 1_655 S
C2468 C2467 1.524 1_655 S
C2469 C2466 1.403 . S
C2469 C2470 1.392 . S
C2469 C2473 1.495 . S
C2470 C2469 1.392 . S
C2470 C2471 1.385 . S
C2470 C2472 1.478 . S
C2471 H2465 0.930 . S
C2471 C2467 1.400 . S
C2471 C2470 1.385 . S
C2472 C2470 1.478 . S
C2472 C2474 1.381 . S
C2472 C2478 1.383 . S
C2473 C2469 1.495 . S
C2473 H2479 0.959 . S
C2473 H2480 0.961 . S
C2473 H2481 0.960 . S
C2474 C2472 1.381 . S
C2474 C2475 1.394 . S
C2474 H2482 0.930 . S
C2475 C2474 1.394 . S
C2475 C2476 1.383 . S
C2475 H2483 0.929 . S
C2476 C2475 1.383 . S
C2476 C2477 1.377 . S
C2477 H2461 0.930 . S
C2477 C2476 1.377 . S
C2477 C2478 1.379 . S
C2478 H2462 0.931 . S
C2478 C2472 1.383 . S
C2478 C2477 1.379 . S
H2479 C2473 0.959 . S
H2480 C2473 0.961 . S
H2481 C2473 0.960 . S
H2482 C2474 0.930 . S
H2483 C2475 0.929 . S
H2484 C2492 0.929 . S
H2485 C2494 0.930 . S
H2486 C2496 0.930 . S
H2487 C2499 0.929 . S
H2488 C2502 0.930 . S
H2489 C2504 0.960 . S
H2490 C2504 0.960 . S
H2491 C2504 0.960 . S
C2492 H2484 0.929 . S
C2492 C2493 1.377 . S
C2492 C2494 1.384 . S
C2493 C2492 1.377 . S
C2493 C2499 1.390 . S
C2494 H2485 0.930 . S
C2494 C2492 1.384 . S
C2494 C2495 1.372 . S
C2495 C2494 1.372 . S
C2495 C2496 1.400 . S
C2495 C2500 1.490 . S
C2496 H2486 0.930 . S
C2496 C2495 1.400 . S
C2496 C2499 1.386 . S
H2497 C2513 0.930 . S
H2498 C2514 0.931 . S
C2499 H2487 0.929 . S
C2499 C2493 1.390 . S
C2499 C2496 1.386 . S
C2500 C2495 1.490 . S
C2500 C2502 1.395 . S
C2500 C2503 1.403 . S
H2501 C2507 0.930 . S
C2502 H2488 0.930 . S
C2502 C2500 1.395 . S
C2502 C2505 1.403 . S
C2503 C2500 1.403 . S
C2503 C2504 1.524 . S
C2503 C2507 1.400 . S
C2504 H2489 0.960 . S
C2504 H2490 0.960 . S
C2504 H2491 0.960 . S
C2504 C2503 1.524 . S
C2505 C2502 1.403 . S
C2505 C2506 1.392 . S
C2505 C2509 1.495 . S
C2506 C2505 1.392 . S
C2506 C2507 1.385 . S
C2506 C2508 1.478 . S
C2507 H2501 0.930 . S
C2507 C2503 1.400 . S
C2507 C2506 1.385 . S
C2508 C2506 1.478 . S
C2508 C2510 1.381 . S
C2508 C2514 1.383 . S
C2509 C2505 1.495 . S
C2509 H2515 0.959 . S
C2509 H2516 0.961 . S
C2509 H2517 0.960 . S
C2510 C2508 1.381 . S
C2510 C2511 1.394 . S
C2510 H2518 0.930 . S
C2511 C2510 1.394 . S
C2511 C2512 1.383 . S
C2511 H2519 0.929 . S
C2512 C2511 1.383 . S
C2512 C2513 1.377 . S
C2513 H2497 0.930 . S
C2513 C2512 1.377 . S
C2513 C2514 1.379 . S
C2514 H2498 0.931 . S
C2514 C2508 1.383 . S
C2514 C2513 1.379 . S
H2515 C2509 0.959 . S
H2516 C2509 0.961 . S
H2517 C2509 0.960 . S
H2518 C2510 0.930 . S
H2519 C2511 0.929 . S
H2520 C2528 0.929 . S
H2521 C2530 0.930 . S
H2522 C2532 0.930 . S
H2523 C2535 0.929 . S
H2524 C2538 0.930 . S
H2525 C2540 0.960 . S
H2526 C2540 0.960 . S
H2527 C2540 0.960 . S
C2528 H2520 0.929 . S
C2528 C2529 1.377 . S
C2528 C2530 1.384 . S
C2529 C2528 1.377 . S
C2529 C2535 1.390 1_565 S
C2530 H2521 0.930 . S
C2530 C2528 1.384 . S
C2530 C2531 1.372 . S
C2531 C2530 1.372 . S
C2531 C2532 1.400 1_565 S
C2531 C2536 1.490 . S
C2532 H2522 0.930 . S
C2532 C2531 1.400 1_545 S
C2532 C2535 1.386 . S
H2533 C2549 0.930 . S
H2534 C2550 0.931 . S
C2535 H2523 0.929 . S
C2535 C2529 1.390 1_545 S
C2535 C2532 1.386 . S
C2536 C2531 1.490 . S
C2536 C2538 1.395 . S
C2536 C2539 1.403 1_565 S
H2537 C2543 0.930 . S
C2538 H2524 0.930 . S
C2538 C2536 1.395 . S
C2538 C2541 1.403 . S
C2539 C2536 1.403 1_545 S
C2539 C2540 1.524 . S
C2539 C2543 1.400 . S
C2540 H2525 0.960 . S
C2540 H2526 0.960 . S
C2540 H2527 0.960 . S
C2540 C2539 1.524 . S
C2541 C2538 1.403 . S
C2541 C2542 1.392 . S
C2541 C2545 1.495 . S
C2542 C2541 1.392 . S
C2542 C2543 1.385 1_565 S
C2542 C2544 1.478 . S
C2543 H2537 0.930 . S
C2543 C2539 1.400 . S
C2543 C2542 1.385 1_545 S
C2544 C2542 1.478 . S
C2544 C2546 1.381 . S
C2544 C2550 1.383 1_565 S
C2545 C2541 1.495 . S
C2545 H2551 0.959 . S
C2545 H2552 0.961 . S
C2545 H2553 0.960 . S
C2546 C2544 1.381 . S
C2546 C2547 1.394 . S
C2546 H2554 0.930 . S
C2547 C2546 1.394 . S
C2547 C2548 1.383 . S
C2547 H2555 0.929 . S
C2548 C2547 1.383 . S
C2548 C2549 1.377 1_565 S
C2549 H2533 0.930 . S
C2549 C2548 1.377 1_545 S
C2549 C2550 1.379 . S
C2550 H2534 0.931 . S
C2550 C2544 1.383 1_545 S
C2550 C2549 1.379 . S
H2551 C2545 0.959 . S
H2552 C2545 0.961 . S
H2553 C2545 0.960 . S
H2554 C2546 0.930 . S
H2555 C2547 0.929 . S
H2556 C2564 0.929 . S
H2557 C2566 0.930 . S
H2558 C2568 0.930 . S
H2559 C2571 0.929 . S
H2560 C2574 0.926 . S
H2561 C2576 0.960 . S
H2562 C2576 0.960 . S
H2563 C2576 0.960 . S
C2564 H2556 0.929 . S
C2564 C2565 1.377 1_545 S
C2564 C2566 1.384 . S
C2565 C2564 1.377 1_565 S
C2565 C2571 1.390 . S
C2566 H2557 0.930 . S
C2566 C2564 1.384 . S
C2566 C2567 1.372 1_545 S
C2567 C2566 1.372 1_565 S
C2567 C2568 1.400 . S
C2567 C2572 1.490 . S
C2568 H2558 0.930 . S
C2568 C2567 1.400 . S
C2568 C2571 1.386 . S
H2569 C2585 0.930 . S
H2570 C2586 0.931 . S
C2571 H2559 0.929 . S
C2571 C2565 1.390 . S
C2571 C2568 1.386 . S
C2572 C2567 1.490 . S
C2572 C2574 1.390 1_565 S
C2572 C2575 1.403 . S
H2573 C2579 0.930 . S
C2574 H2560 0.926 . S
C2574 C2572 1.390 1_545 S
C2574 C2577 1.412 . S
C2575 C2572 1.403 . S
C2575 C2576 1.524 . S
C2575 C2579 1.400 . S
C2576 H2561 0.960 . S
C2576 H2562 0.960 . S
C2576 H2563 0.960 . S
C2576 C2575 1.524 . S
C2577 C2574 1.412 . S
C2577 C2578 1.392 1_545 S
C2577 C2581 1.495 . S
C2578 C2577 1.392 1_565 S
C2578 C2579 1.385 . S
C2578 C2580 1.478 . S
C2579 H2573 0.930 . S
C2579 C2575 1.400 . S
C2579 C2578 1.385 . S
C2580 C2578 1.478 . S
C2580 C2582 1.381 1_565 S
C2580 C2586 1.383 . S
C2581 C2577 1.495 . S
C2581 H2587 0.959 . S
C2581 H2588 0.961 1_545 S
C2581 H2589 0.960 . S
C2582 C2580 1.381 1_545 S
C2582 C2583 1.394 . S
C2582 H2590 0.930 . S
C2583 C2582 1.394 . S
C2583 C2584 1.356 1_545 S
C2583 H2591 0.929 . S
C2584 C2583 1.356 1_565 S
C2584 C2585 1.437 . S
C2585 H2569 0.930 . S
C2585 C2584 1.437 . S
C2585 C2586 1.379 . S
C2586 H2570 0.931 . S
C2586 C2580 1.383 . S
C2586 C2585 1.379 . S
H2587 C2581 0.959 . S
H2588 C2581 0.961 1_565 S
H2589 C2581 0.960 . S
H2590 C2582 0.930 . S
H2591 C2583 0.929 . S
H2592 C2600 0.929 . S
H2593 C2602 0.930 . S
H2594 C2604 0.930 . S
H2595 C2607 0.929 . S
H2596 C2610 0.930 . S
H2597 C2612 0.960 . S
H2598 C2612 0.960 . S
H2599 C2612 0.960 . S
C2600 H2592 0.929 . S
C2600 C2601 1.377 . S
C2600 C2602 1.384 . S
C2601 C2600 1.377 . S
C2601 C2607 1.390 . S
C2602 H2593 0.930 . S
C2602 C2600 1.384 . S
C2602 C2603 1.372 . S
C2603 C2602 1.372 . S
C2603 C2604 1.400 . S
C2603 C2608 1.490 . S
C2604 H2594 0.930 . S
C2604 C2603 1.400 . S
C2604 C2607 1.386 . S
H2605 C2621 0.930 . S
H2606 C2622 0.931 . S
C2607 H2595 0.929 . S
C2607 C2601 1.390 . S
C2607 C2604 1.386 . S
C2608 C2603 1.490 . S
C2608 C2610 1.395 . S
C2608 C2611 1.403 . S
H2609 C2615 0.930 1_655 S
C2610 H2596 0.930 . S
C2610 C2608 1.395 . S
C2610 C2613 1.403 . S
C2611 C2608 1.403 . S
C2611 C2612 1.524 1_455 S
C2611 C2615 1.400 . S
C2612 H2597 0.960 . S
C2612 H2598 0.960 . S
C2612 H2599 0.960 . S
C2612 C2611 1.524 1_655 S
C2613 C2610 1.403 . S
C2613 C2614 1.392 . S
C2613 C2617 1.495 . S
C2614 C2613 1.392 . S
C2614 C2615 1.385 . S
C2614 C2616 1.478 . S
C2615 H2609 0.930 1_455 S
C2615 C2611 1.400 . S
C2615 C2614 1.385 . S
C2616 C2614 1.478 . S
C2616 C2618 1.381 . S
C2616 C2622 1.383 . S
C2617 C2613 1.495 . S
C2617 H2623 0.959 . S
C2617 H2624 0.961 . S
C2617 H2625 0.960 . S
C2618 C2616 1.381 . S
C2618 C2619 1.394 . S
C2618 H2626 0.930 . S
C2619 C2618 1.394 . S
C2619 C2620 1.383 . S
C2619 H2627 0.929 . S
C2620 C2619 1.383 . S
C2620 C2621 1.377 . S
C2621 H2605 0.930 . S
C2621 C2620 1.377 . S
C2621 C2622 1.379 . S
C2622 H2606 0.931 . S
C2622 C2616 1.383 . S
C2622 C2621 1.379 . S
H2623 C2617 0.959 . S
H2624 C2617 0.961 . S
H2625 C2617 0.960 . S
H2626 C2618 0.930 . S
H2627 C2619 0.929 . S
H2628 C2636 0.929 . S
H2629 C2638 0.930 . S
H2630 C2640 0.930 . S
H2631 C2643 0.929 . S
H2632 C2646 0.930 . S
H2633 C2648 0.960 . S
H2634 C2648 0.960 . S
H2635 C2648 0.960 . S
C2636 H2628 0.929 . S
C2636 C2637 1.377 . S
C2636 C2638 1.384 . S
C2637 C2636 1.377 . S
C2637 C2643 1.390 . S
C2638 H2629 0.930 . S
C2638 C2636 1.384 . S
C2638 C2639 1.372 . S
C2639 C2638 1.372 . S
C2639 C2640 1.400 . S
C2639 C2644 1.490 . S
C2640 H2630 0.930 . S
C2640 C2639 1.400 . S
C2640 C2643 1.386 . S
H2641 C2657 0.930 . S
H2642 C2658 0.931 . S
C2643 H2631 0.929 . S
C2643 C2637 1.390 . S
C2643 C2640 1.386 . S
C2644 C2639 1.490 . S
C2644 C2646 1.395 . S
C2644 C2647 1.403 . S
H2645 C2651 0.930 . S
C2646 H2632 0.930 . S
C2646 C2644 1.395 . S
C2646 C2649 1.403 . S
C2647 C2644 1.403 . S
C2647 C2648 1.524 . S
C2647 C2651 1.400 . S
C2648 H2633 0.960 . S
C2648 H2634 0.960 . S
C2648 H2635 0.960 . S
C2648 C2647 1.524 . S
C2649 C2646 1.403 . S
C2649 C2650 1.392 . S
C2649 C2653 1.495 . S
C2650 C2649 1.392 . S
C2650 C2651 1.385 . S
C2650 C2652 1.478 . S
C2651 H2645 0.930 . S
C2651 C2647 1.400 . S
C2651 C2650 1.385 . S
C2652 C2650 1.478 . S
C2652 C2654 1.381 . S
C2652 C2658 1.383 . S
C2653 C2649 1.495 . S
C2653 H2659 0.959 . S
C2653 H2660 0.961 . S
C2653 H2661 0.960 . S
C2654 C2652 1.381 . S
C2654 C2655 1.394 . S
C2654 H2662 0.930 . S
C2655 C2654 1.394 . S
C2655 C2656 1.383 . S
C2655 H2663 0.929 . S
C2656 C2655 1.383 . S
C2656 C2657 1.377 . S
C2657 H2641 0.930 . S
C2657 C2656 1.377 . S
C2657 C2658 1.379 . S
C2658 H2642 0.931 . S
C2658 C2652 1.383 . S
C2658 C2657 1.379 . S
H2659 C2653 0.959 . S
H2660 C2653 0.961 . S
H2661 C2653 0.960 . S
H2662 C2654 0.930 . S
H2663 C2655 0.929 . S
H2664 C2672 0.929 . S
H2665 C2674 0.930 . S
H2666 C2676 0.930 . S
H2667 C2679 0.929 . S
H2668 C2682 0.930 . S
H2669 C2684 0.960 . S
H2670 C2684 0.960 . S
H2671 C2684 0.960 . S
C2672 H2664 0.929 . S
C2672 C2673 1.377 . S
C2672 C2674 1.384 . S
C2673 C2672 1.377 . S
C2673 C2679 1.390 . S
C2674 H2665 0.930 . S
C2674 C2672 1.384 . S
C2674 C2675 1.372 . S
C2675 C2674 1.372 . S
C2675 C2676 1.400 . S
C2675 C2680 1.490 . S
C2676 H2666 0.930 . S
C2676 C2675 1.400 . S
C2676 C2679 1.386 . S
H2677 C2693 0.930 . S
H2678 C2694 0.931 . S
C2679 H2667 0.929 . S
C2679 C2673 1.390 . S
C2679 C2676 1.386 . S
C2680 C2675 1.490 . S
C2680 C2682 1.395 . S
C2680 C2683 1.403 . S
H2681 C2687 0.930 . S
C2682 H2668 0.930 . S
C2682 C2680 1.395 . S
C2682 C2685 1.403 . S
C2683 C2680 1.403 . S
C2683 C2684 1.524 . S
C2683 C2687 1.400 . S
C2684 H2669 0.960 . S
C2684 H2670 0.960 . S
C2684 H2671 0.960 . S
C2684 C2683 1.524 . S
C2685 C2682 1.403 . S
C2685 C2686 1.392 . S
C2685 C2689 1.495 . S
C2686 C2685 1.392 . S
C2686 C2687 1.385 . S
C2686 C2688 1.478 . S
C2687 H2681 0.930 . S
C2687 C2683 1.400 . S
C2687 C2686 1.385 . S
C2688 C2686 1.478 . S
C2688 C2690 1.381 . S
C2688 C2694 1.383 . S
C2689 C2685 1.495 . S
C2689 H2695 0.959 . S
C2689 H2696 0.961 . S
C2689 H2697 0.960 . S
C2690 C2688 1.381 . S
C2690 C2691 1.394 . S
C2690 H2698 0.930 . S
C2691 C2690 1.394 . S
C2691 C2692 1.383 . S
C2691 H2699 0.929 . S
C2692 C2691 1.383 . S
C2692 C2693 1.377 . S
C2693 H2677 0.930 . S
C2693 C2692 1.377 . S
C2693 C2694 1.379 . S
C2694 H2678 0.931 . S
C2694 C2688 1.383 . S
C2694 C2693 1.379 . S
H2695 C2689 0.959 . S
H2696 C2689 0.961 . S
H2697 C2689 0.960 . S
H2698 C2690 0.930 . S
H2699 C2691 0.929 . S
H2700 C2708 0.929 . S
H2701 C2710 0.930 . S
H2702 C2712 0.930 . S
H2703 C2715 0.929 . S
H2704 C2718 0.930 . S
H2705 C2720 0.960 . S
H2706 C2720 0.960 . S
H2707 C2720 0.960 . S
C2708 H2700 0.929 . S
C2708 C2709 1.377 . S
C2708 C2710 1.384 . S
C2709 C2708 1.377 . S
C2709 C2715 1.390 . S
C2710 H2701 0.930 . S
C2710 C2708 1.384 . S
C2710 C2711 1.372 . S
C2711 C2710 1.372 . S
C2711 C2712 1.400 . S
C2711 C2716 1.490 . S
C2712 H2702 0.930 . S
C2712 C2711 1.400 . S
C2712 C2715 1.386 . S
H2713 C2729 0.930 . S
H2714 C2730 0.931 . S
C2715 H2703 0.929 . S
C2715 C2709 1.390 . S
C2715 C2712 1.386 . S
C2716 C2711 1.490 . S
C2716 C2718 1.395 . S
C2716 C2719 1.403 . S
H2717 C2723 0.930 . S
C2718 H2704 0.930 . S
C2718 C2716 1.395 . S
C2718 C2721 1.403 . S
C2719 C2716 1.403 . S
C2719 C2720 1.524 . S
C2719 C2723 1.400 . S
C2720 H2705 0.960 . S
C2720 H2706 0.960 . S
C2720 H2707 0.960 . S
C2720 C2719 1.524 . S
C2721 C2718 1.403 . S
C2721 C2722 1.392 . S
C2721 C2725 1.495 . S
C2722 C2721 1.392 . S
C2722 C2723 1.385 . S
C2722 C2724 1.478 . S
C2723 H2717 0.930 . S
C2723 C2719 1.400 . S
C2723 C2722 1.385 . S
C2724 C2722 1.478 . S
C2724 C2726 1.381 . S
C2724 C2730 1.383 . S
C2725 C2721 1.495 . S
C2725 H2731 0.959 . S
C2725 H2732 0.961 . S
C2725 H2733 0.960 . S
C2726 C2724 1.381 . S
C2726 C2727 1.394 . S
C2726 H2734 0.930 . S
C2727 C2726 1.394 . S
C2727 C2728 1.383 . S
C2727 H2735 0.929 . S
C2728 C2727 1.383 . S
C2728 C2729 1.377 . S
C2729 H2713 0.930 . S
C2729 C2728 1.377 . S
C2729 C2730 1.379 . S
C2730 H2714 0.931 . S
C2730 C2724 1.383 . S
C2730 C2729 1.379 . S
H2731 C2725 0.959 . S
H2732 C2725 0.961 . S
H2733 C2725 0.960 . S
H2734 C2726 0.930 . S
H2735 C2727 0.929 . S
H2736 C2744 0.929 . S
H2737 C2746 0.930 . S
H2738 C2748 0.930 . S
H2739 C2751 0.929 . S
H2740 C2754 0.930 . S
H2741 C2756 0.960 . S
H2742 C2756 0.960 . S
H2743 C2756 0.960 . S
C2744 H2736 0.929 . S
C2744 C2745 1.377 . S
C2744 C2746 1.384 . S
C2745 C2744 1.377 . S
C2745 C2751 1.390 . S
C2746 H2737 0.930 . S
C2746 C2744 1.384 . S
C2746 C2747 1.372 . S
C2747 C2746 1.372 . S
C2747 C2748 1.400 . S
C2747 C2752 1.490 . S
C2748 H2738 0.930 . S
C2748 C2747 1.400 . S
C2748 C2751 1.386 . S
H2749 C2765 0.930 . S
H2750 C2766 0.931 . S
C2751 H2739 0.929 . S
C2751 C2745 1.390 . S
C2751 C2748 1.386 . S
C2752 C2747 1.490 . S
C2752 C2754 1.395 . S
C2752 C2755 1.403 . S
H2753 C2759 0.930 . S
C2754 H2740 0.930 . S
C2754 C2752 1.395 . S
C2754 C2757 1.403 . S
C2755 C2752 1.403 . S
C2755 C2756 1.524 . S
C2755 C2759 1.400 . S
C2756 H2741 0.960 . S
C2756 H2742 0.960 . S
C2756 H2743 0.960 . S
C2756 C2755 1.524 . S
C2757 C2754 1.403 . S
C2757 C2758 1.392 . S
C2757 C2761 1.495 . S
C2758 C2757 1.392 . S
C2758 C2759 1.385 . S
C2758 C2760 1.478 . S
C2759 H2753 0.930 . S
C2759 C2755 1.400 . S
C2759 C2758 1.385 . S
C2760 C2758 1.478 . S
C2760 C2762 1.381 . S
C2760 C2766 1.383 . S
C2761 C2757 1.495 . S
C2761 H2767 0.959 . S
C2761 H2768 0.961 . S
C2761 H2769 0.960 . S
C2762 C2760 1.381 . S
C2762 C2763 1.394 . S
C2762 H2770 0.930 . S
C2763 C2762 1.394 . S
C2763 C2764 1.383 . S
C2763 H2771 0.929 . S
C2764 C2763 1.383 . S
C2764 C2765 1.377 . S
C2765 H2749 0.930 . S
C2765 C2764 1.377 . S
C2765 C2766 1.379 . S
C2766 H2750 0.931 . S
C2766 C2760 1.383 . S
C2766 C2765 1.379 . S
H2767 C2761 0.959 . S
H2768 C2761 0.961 . S
H2769 C2761 0.960 . S
H2770 C2762 0.930 . S
H2771 C2763 0.929 . S
H2772 C2780 0.929 . S
H2773 C2782 0.986 . S
H2774 C2784 0.930 . S
H2775 C2787 0.929 . S
H2776 C2790 0.930 1_565 S
H2777 C2792 0.960 . S
H2778 C2792 0.960 . S
H2779 C2792 0.960 . S
C2780 H2772 0.929 . S
C2780 C2781 1.377 . S
C2780 C2782 1.384 . S
C2781 C2780 1.377 . S
C2781 C2787 1.390 . S
C2782 H2773 0.986 . S
C2782 C2780 1.384 . S
C2782 C2783 1.372 . S
C2783 C2782 1.372 . S
C2783 C2784 1.400 . S
C2783 C2788 1.490 . S
C2784 H2774 0.930 . S
C2784 C2783 1.400 . S
C2784 C2787 1.386 . S
H2785 C2801 0.930 . S
H2786 C2802 0.931 . S
C2787 H2775 0.929 . S
C2787 C2781 1.390 . S
C2787 C2784 1.386 . S
C2788 C2783 1.490 . S
C2788 C2790 1.395 . S
C2788 C2791 1.403 . S
H2789 C2795 0.930 . S
C2790 H2776 0.930 1_545 S
C2790 C2788 1.395 . S
C2790 C2793 1.403 . S
C2791 C2788 1.403 . S
C2791 C2792 1.524 . S
C2791 C2795 1.400 . S
C2792 H2777 0.960 . S
C2792 H2778 0.960 . S
C2792 H2779 0.960 . S
C2792 C2791 1.524 . S
C2793 C2790 1.403 . S
C2793 C2794 1.392 . S
C2793 C2797 1.495 1_545 S
C2794 C2793 1.392 . S
C2794 C2795 1.385 . S
C2794 C2796 1.478 . S
C2795 H2789 0.930 . S
C2795 C2791 1.400 . S
C2795 C2794 1.385 . S
C2796 C2794 1.478 . S
C2796 C2798 1.381 . S
C2796 C2802 1.383 . S
C2797 C2793 1.495 1_565 S
C2797 H2803 0.959 . S
C2797 H2804 0.961 . S
C2797 H2805 0.960 . S
C2798 C2796 1.381 . S
C2798 C2799 1.394 . S
C2798 H2806 0.930 1_545 S
C2799 C2798 1.394 . S
C2799 C2800 1.383 . S
C2799 H2807 0.929 1_545 S
C2800 C2799 1.383 . S
C2800 C2801 1.377 . S
C2801 H2785 0.930 . S
C2801 C2800 1.377 . S
C2801 C2802 1.379 . S
C2802 H2786 0.931 . S
C2802 C2796 1.383 . S
C2802 C2801 1.379 . S
H2803 C2797 0.959 . S
H2804 C2797 0.961 . S
H2805 C2797 0.960 . S
H2806 C2798 0.930 1_565 S
H2807 C2799 0.929 1_565 S
H2808 C2816 0.903 1_455 S
H2809 C2818 0.937 . S
H2810 C2820 0.930 . S
H2811 C2823 0.929 . S
H2812 C2826 0.930 . S
H2813 C2828 0.960 . S
H2814 C2828 0.960 . S
H2815 C2828 0.960 . S
C2816 H2808 0.903 1_655 S
C2816 C2817 1.389 . S
C2816 C2818 1.409 1_655 S
C2817 C2816 1.389 . S
C2817 C2823 1.390 . S
C2818 H2809 0.937 . S
C2818 C2816 1.409 1_455 S
C2818 C2819 1.356 1_455 S
C2819 C2818 1.356 1_655 S
C2819 C2820 1.400 . S
C2819 C2824 1.490 . S
C2820 H2810 0.930 . S
C2820 C2819 1.400 . S
C2820 C2823 1.386 . S
H2821 C2837 0.930 . S
H2822 C2838 0.931 . S
C2823 H2811 0.929 . S
C2823 C2817 1.390 . S
C2823 C2820 1.386 . S
C2824 C2819 1.490 . S
C2824 C2826 1.395 1_655 S
C2824 C2827 1.403 . S
H2825 C2831 0.930 . S
C2826 H2812 0.930 . S
C2826 C2824 1.395 1_455 S
C2826 C2829 1.403 . S
C2827 C2824 1.403 . S
C2827 C2828 1.524 . S
C2827 C2831 1.400 . S
C2828 H2813 0.960 . S
C2828 H2814 0.960 . S
C2828 H2815 0.960 . S
C2828 C2827 1.524 . S
C2829 C2826 1.403 . S
C2829 C2830 1.392 1_455 S
C2829 C2833 1.495 . S
C2830 C2829 1.392 1_655 S
C2830 C2831 1.385 . S
C2830 C2832 1.442 . S
C2831 H2825 0.930 . S
C2831 C2827 1.400 . S
C2831 C2830 1.385 . S
C2832 C2830 1.442 . S
C2832 C2834 1.367 1_655 S
C2832 C2838 1.443 . S
C2833 C2829 1.495 . S
C2833 H2839 0.959 . S
C2833 H2840 0.961 . S
C2833 H2841 0.960 . S
C2834 C2832 1.367 1_455 S
C2834 C2835 1.394 . S
C2834 H2842 0.930 . S
C2835 C2834 1.394 . S
C2835 C2836 1.383 1_455 S
C2835 H2843 0.929 . S
C2836 C2835 1.383 1_655 S
C2836 C2837 1.377 . S
C2837 H2821 0.930 . S
C2837 C2836 1.377 . S
C2837 C2838 1.379 . S
C2838 H2822 0.931 . S
C2838 C2832 1.443 . S
C2838 C2837 1.379 . S
H2839 C2833 0.959 . S
H2840 C2833 0.961 . S
H2841 C2833 0.960 . S
H2842 C2834 0.930 . S
H2843 C2835 0.929 . S
H2844 C2852 0.929 . S
H2845 C2854 0.930 . S
H2846 C2856 0.930 . S
H2847 C2859 0.929 . S
H2848 C2862 0.930 . S
H2849 C2864 0.960 . S
H2850 C2864 0.960 . S
H2851 C2864 0.960 . S
C2852 H2844 0.929 . S
C2852 C2853 1.377 . S
C2852 C2854 1.384 . S
C2853 C2852 1.377 . S
C2853 C2859 1.390 . S
C2854 H2845 0.930 . S
C2854 C2852 1.384 . S
C2854 C2855 1.372 . S
C2855 C2854 1.372 . S
C2855 C2856 1.400 . S
C2855 C2860 1.490 . S
C2856 H2846 0.930 . S
C2856 C2855 1.400 . S
C2856 C2859 1.386 . S
H2857 C2873 0.930 . S
H2858 C2874 0.931 . S
C2859 H2847 0.929 . S
C2859 C2853 1.390 . S
C2859 C2856 1.386 . S
C2860 C2855 1.490 . S
C2860 C2862 1.395 . S
C2860 C2863 1.403 . S
H2861 C2867 0.930 . S
C2862 H2848 0.930 . S
C2862 C2860 1.395 . S
C2862 C2865 1.403 . S
C2863 C2860 1.403 . S
C2863 C2864 1.524 . S
C2863 C2867 1.400 . S
C2864 H2849 0.960 . S
C2864 H2850 0.960 . S
C2864 H2851 0.960 . S
C2864 C2863 1.524 . S
C2865 C2862 1.403 . S
C2865 C2866 1.392 . S
C2865 C2869 1.495 . S
C2866 C2865 1.392 . S
C2866 C2867 1.385 . S
C2866 C2868 1.478 . S
C2867 H2861 0.930 . S
C2867 C2863 1.400 . S
C2867 C2866 1.385 . S
C2868 C2866 1.478 . S
C2868 C2870 1.381 . S
C2868 C2874 1.383 . S
C2869 C2865 1.495 . S
C2869 H2875 0.959 . S
C2869 H2876 0.961 . S
C2869 H2877 0.960 . S
C2870 C2868 1.381 . S
C2870 C2871 1.394 . S
C2870 H2878 0.930 . S
C2871 C2870 1.394 . S
C2871 C2872 1.383 . S
C2871 H2879 0.929 . S
C2872 C2871 1.383 . S
C2872 C2873 1.377 . S
C2873 H2857 0.930 . S
C2873 C2872 1.377 . S
C2873 C2874 1.379 . S
C2874 H2858 0.931 . S
C2874 C2868 1.383 . S
C2874 C2873 1.379 . S
H2875 C2869 0.959 . S
H2876 C2869 0.961 . S
H2877 C2869 0.960 . S
H2878 C2870 0.930 . S
H2879 C2871 0.929 . S
H2880 C2888 0.929 . S
H2881 C2890 0.930 . S
H2882 C2892 0.930 . S
H2883 C2895 0.929 . S
H2884 C2898 0.930 . S
H2885 C2900 0.960 . S
H2886 C2900 0.960 . S
H2887 C2900 0.960 . S
C2888 H2880 0.929 . S
C2888 C2889 1.377 . S
C2888 C2890 1.384 . S
C2889 C2888 1.377 . S
C2889 C2895 1.390 . S
C2890 H2881 0.930 . S
C2890 C2888 1.384 . S
C2890 C2891 1.372 . S
C2891 C2890 1.372 . S
C2891 C2892 1.400 . S
C2891 C2896 1.490 . S
C2892 H2882 0.930 . S
C2892 C2891 1.400 . S
C2892 C2895 1.386 . S
H2893 C2909 0.930 . S
H2894 C2910 0.931 . S
C2895 H2883 0.929 . S
C2895 C2889 1.390 . S
C2895 C2892 1.386 . S
C2896 C2891 1.490 . S
C2896 C2898 1.395 . S
C2896 C2899 1.403 . S
H2897 C2903 0.930 . S
C2898 H2884 0.930 . S
C2898 C2896 1.395 . S
C2898 C2901 1.403 . S
C2899 C2896 1.403 . S
C2899 C2900 1.524 . S
C2899 C2903 1.400 . S
C2900 H2885 0.960 . S
C2900 H2886 0.960 . S
C2900 H2887 0.960 . S
C2900 C2899 1.524 . S
C2901 C2898 1.403 . S
C2901 C2902 1.392 . S
C2901 C2905 1.495 . S
C2902 C2901 1.392 . S
C2902 C2903 1.385 . S
C2902 C2904 1.478 . S
C2903 H2897 0.930 . S
C2903 C2899 1.400 . S
C2903 C2902 1.385 . S
C2904 C2902 1.478 . S
C2904 C2906 1.381 . S
C2904 C2910 1.383 . S
C2905 C2901 1.495 . S
C2905 H2911 0.959 . S
C2905 H2912 0.961 . S
C2905 H2913 0.960 . S
C2906 C2904 1.381 . S
C2906 C2907 1.394 . S
C2906 H2914 0.930 . S
C2907 C2906 1.394 . S
C2907 C2908 1.383 . S
C2907 H2915 0.929 . S
C2908 C2907 1.383 . S
C2908 C2909 1.377 . S
C2909 H2893 0.930 . S
C2909 C2908 1.377 . S
C2909 C2910 1.379 . S
C2910 H2894 0.931 . S
C2910 C2904 1.383 . S
C2910 C2909 1.379 . S
H2911 C2905 0.959 . S
H2912 C2905 0.961 . S
H2913 C2905 0.960 . S
H2914 C2906 0.930 . S
H2915 C2907 0.929 . S
H2916 C2924 0.929 . S
H2917 C2926 0.930 . S
H2918 C2928 0.930 . S
H2919 C2931 0.929 . S
H2920 C2934 0.930 . S
H2921 C2936 0.960 . S
H2922 C2936 0.960 . S
H2923 C2936 0.960 . S
C2924 H2916 0.929 . S
C2924 C2925 1.377 . S
C2924 C2926 1.384 . S
C2925 C2924 1.377 . S
C2925 C2931 1.390 . S
C2926 H2917 0.930 . S
C2926 C2924 1.384 . S
C2926 C2927 1.372 . S
C2927 C2926 1.372 . S
C2927 C2928 1.400 . S
C2927 C2932 1.490 . S
C2928 H2918 0.930 . S
C2928 C2927 1.400 . S
C2928 C2931 1.386 . S
H2929 C2945 0.930 . S
H2930 C2946 0.931 . S
C2931 H2919 0.929 . S
C2931 C2925 1.390 . S
C2931 C2928 1.386 . S
C2932 C2927 1.490 . S
C2932 C2934 1.395 . S
C2932 C2935 1.403 . S
H2933 C2939 0.930 . S
C2934 H2920 0.930 . S
C2934 C2932 1.395 . S
C2934 C2937 1.403 . S
C2935 C2932 1.403 . S
C2935 C2936 1.524 . S
C2935 C2939 1.400 . S
C2936 H2921 0.960 . S
C2936 H2922 0.960 . S
C2936 H2923 0.960 . S
C2936 C2935 1.524 . S
C2937 C2934 1.403 . S
C2937 C2938 1.392 . S
C2937 C2941 1.495 . S
C2938 C2937 1.392 . S
C2938 C2939 1.385 . S
C2938 C2940 1.478 . S
C2939 H2933 0.930 . S
C2939 C2935 1.400 . S
C2939 C2938 1.385 . S
C2940 C2938 1.478 . S
C2940 C2942 1.381 . S
C2940 C2946 1.383 . S
C2941 C2937 1.495 . S
C2941 H2947 0.959 . S
C2941 H2948 0.961 . S
C2941 H2949 0.960 . S
C2942 C2940 1.381 . S
C2942 C2943 1.394 . S
C2942 H2950 0.930 . S
C2943 C2942 1.394 . S
C2943 C2944 1.383 . S
C2943 H2951 0.929 . S
C2944 C2943 1.383 . S
C2944 C2945 1.377 . S
C2945 H2929 0.930 . S
C2945 C2944 1.377 . S
C2945 C2946 1.379 . S
C2946 H2930 0.931 . S
C2946 C2940 1.383 . S
C2946 C2945 1.379 . S
H2947 C2941 0.959 . S
H2948 C2941 0.961 . S
H2949 C2941 0.960 . S
H2950 C2942 0.930 . S
H2951 C2943 0.929 . S
H2952 C2960 0.929 . S
H2953 C2962 0.930 . S
H2954 C2964 0.930 . S
H2955 C2967 0.929 . S
H2956 C2970 0.930 . S
H2957 C2972 0.960 . S
H2958 C2972 0.960 . S
H2959 C2972 0.960 . S
C2960 H2952 0.929 . S
C2960 C2961 1.377 . S
C2960 C2962 1.384 . S
C2961 C2960 1.377 . S
C2961 C2967 1.390 . S
C2962 H2953 0.930 . S
C2962 C2960 1.384 . S
C2962 C2963 1.372 . S
C2963 C2962 1.372 . S
C2963 C2964 1.400 . S
C2963 C2968 1.490 . S
C2964 H2954 0.930 . S
C2964 C2963 1.400 . S
C2964 C2967 1.386 . S
H2965 C2981 0.930 . S
H2966 C2982 0.931 . S
C2967 H2955 0.929 . S
C2967 C2961 1.390 . S
C2967 C2964 1.386 . S
C2968 C2963 1.490 . S
C2968 C2970 1.395 . S
C2968 C2971 1.403 . S
H2969 C2975 0.930 . S
C2970 H2956 0.930 . S
C2970 C2968 1.395 . S
C2970 C2973 1.403 . S
C2971 C2968 1.403 . S
C2971 C2972 1.524 . S
C2971 C2975 1.400 . S
C2972 H2957 0.960 . S
C2972 H2958 0.960 . S
C2972 H2959 0.960 . S
C2972 C2971 1.524 . S
C2973 C2970 1.403 . S
C2973 C2974 1.392 . S
C2973 C2977 1.495 . S
C2974 C2973 1.392 . S
C2974 C2975 1.385 . S
C2974 C2976 1.478 . S
C2975 H2969 0.930 . S
C2975 C2971 1.400 . S
C2975 C2974 1.385 . S
C2976 C2974 1.478 . S
C2976 C2978 1.381 . S
C2976 C2982 1.383 . S
C2977 C2973 1.495 . S
C2977 H2983 0.959 . S
C2977 H2984 0.961 . S
C2977 H2985 0.960 . S
C2978 C2976 1.381 . S
C2978 C2979 1.394 . S
C2978 H2986 0.930 . S
C2979 C2978 1.394 . S
C2979 C2980 1.383 . S
C2979 H2987 0.929 . S
C2980 C2979 1.383 . S
C2980 C2981 1.377 . S
C2981 H2965 0.930 . S
C2981 C2980 1.377 . S
C2981 C2982 1.379 . S
C2982 H2966 0.931 . S
C2982 C2976 1.383 . S
C2982 C2981 1.379 . S
H2983 C2977 0.959 . S
H2984 C2977 0.961 . S
H2985 C2977 0.960 . S
H2986 C2978 0.930 . S
H2987 C2979 0.929 . S
H2988 C2996 0.929 . S
H2989 C2998 0.930 . S
H2990 C3000 0.930 . S
H2991 C3003 0.929 . S
H2992 C3006 0.930 . S
H2993 C3008 0.960 . S
H2994 C3008 0.960 . S
H2995 C3008 0.960 . S
C2996 H2988 0.929 . S
C2996 C2997 1.377 . S
C2996 C2998 1.384 . S
C2997 C2996 1.377 . S
C2997 C3003 1.390 . S
C2998 H2989 0.930 . S
C2998 C2996 1.384 . S
C2998 C2999 1.372 . S
C2999 C2998 1.372 . S
C2999 C3000 1.400 . S
C2999 C3004 1.490 . S
C3000 H2990 0.930 . S
C3000 C2999 1.400 . S
C3000 C3003 1.386 . S
H3001 C3017 0.930 . S
H3002 C3018 0.931 . S
C3003 H2991 0.929 . S
C3003 C2997 1.390 . S
C3003 C3000 1.386 . S
C3004 C2999 1.490 . S
C3004 C3006 1.395 . S
C3004 C3007 1.403 . S
H3005 C3011 0.930 . S
C3006 H2992 0.930 . S
C3006 C3004 1.395 . S
C3006 C3009 1.403 . S
C3007 C3004 1.403 . S
C3007 C3008 1.524 . S
C3007 C3011 1.400 . S
C3008 H2993 0.960 . S
C3008 H2994 0.960 . S
C3008 H2995 0.960 . S
C3008 C3007 1.524 . S
C3009 C3006 1.403 . S
C3009 C3010 1.392 . S
C3009 C3013 1.495 . S
C3010 C3009 1.392 . S
C3010 C3011 1.385 . S
C3010 C3012 1.478 . S
C3011 H3005 0.930 . S
C3011 C3007 1.400 . S
C3011 C3010 1.385 . S
C3012 C3010 1.478 . S
C3012 C3014 1.381 . S
C3012 C3018 1.383 . S
C3013 C3009 1.495 . S
C3013 H3019 0.959 . S
C3013 H3020 0.961 . S
C3013 H3021 0.960 . S
C3014 C3012 1.381 . S
C3014 C3015 1.394 . S
C3014 H3022 0.930 . S
C3015 C3014 1.394 . S
C3015 C3016 1.383 . S
C3015 H3023 0.929 . S
C3016 C3015 1.383 . S
C3016 C3017 1.377 . S
C3017 H3001 0.930 . S
C3017 C3016 1.377 . S
C3017 C3018 1.379 . S
C3018 H3002 0.931 . S
C3018 C3012 1.383 . S
C3018 C3017 1.379 . S
H3019 C3013 0.959 . S
H3020 C3013 0.961 . S
H3021 C3013 0.960 . S
H3022 C3014 0.930 . S
H3023 C3015 0.929 . S
H3024 C3032 0.929 . S
H3025 C3034 0.930 . S
H3026 C3036 0.930 . S
H3027 C3039 0.929 . S
H3028 C3042 0.930 . S
H3029 C3044 0.960 . S
H3030 C3044 0.960 . S
H3031 C3044 0.960 . S
C3032 H3024 0.929 . S
C3032 C3033 1.377 . S
C3032 C3034 1.384 . S
C3033 C3032 1.377 . S
C3033 C3039 1.390 . S
C3034 H3025 0.930 . S
C3034 C3032 1.384 . S
C3034 C3035 1.372 . S
C3035 C3034 1.372 . S
C3035 C3036 1.400 . S
C3035 C3040 1.490 . S
C3036 H3026 0.930 . S
C3036 C3035 1.400 . S
C3036 C3039 1.386 . S
H3037 C3053 0.930 . S
H3038 C3054 0.931 . S
C3039 H3027 0.929 . S
C3039 C3033 1.390 . S
C3039 C3036 1.386 . S
C3040 C3035 1.490 . S
C3040 C3042 1.395 . S
C3040 C3043 1.403 . S
H3041 C3047 0.930 . S
C3042 H3028 0.930 . S
C3042 C3040 1.395 . S
C3042 C3045 1.403 . S
C3043 C3040 1.403 . S
C3043 C3044 1.524 . S
C3043 C3047 1.400 . S
C3044 H3029 0.960 . S
C3044 H3030 0.960 . S
C3044 H3031 0.960 . S
C3044 C3043 1.524 . S
C3045 C3042 1.403 . S
C3045 C3046 1.392 . S
C3045 C3049 1.495 . S
C3046 C3045 1.392 . S
C3046 C3047 1.385 . S
C3046 C3048 1.478 . S
C3047 H3041 0.930 . S
C3047 C3043 1.400 . S
C3047 C3046 1.385 . S
C3048 C3046 1.478 . S
C3048 C3050 1.381 . S
C3048 C3054 1.383 . S
C3049 C3045 1.495 . S
C3049 H3055 0.959 . S
C3049 H3056 0.961 . S
C3049 H3057 0.960 . S
C3050 C3048 1.381 . S
C3050 C3051 1.394 . S
C3050 H3058 0.930 . S
C3051 C3050 1.394 . S
C3051 C3052 1.383 . S
C3051 H3059 0.929 . S
C3052 C3051 1.383 . S
C3052 C3053 1.377 . S
C3053 H3037 0.930 . S
C3053 C3052 1.377 . S
C3053 C3054 1.379 . S
C3054 H3038 0.931 . S
C3054 C3048 1.383 . S
C3054 C3053 1.379 . S
H3055 C3049 0.959 . S
H3056 C3049 0.961 . S
H3057 C3049 0.960 . S
H3058 C3050 0.930 . S
H3059 C3051 0.929 . S
H3060 C3068 0.929 . S
H3061 C3070 0.930 . S
H3062 C3072 0.930 . S
H3063 C3075 0.929 . S
H3064 C3078 0.930 . S
H3065 C3080 0.960 . S
H3066 C3080 0.960 . S
H3067 C3080 0.960 . S
C3068 H3060 0.929 . S
C3068 C3069 1.377 . S
C3068 C3070 1.384 . S
C3069 C3068 1.377 . S
C3069 C3075 1.390 . S
C3070 H3061 0.930 . S
C3070 C3068 1.384 . S
C3070 C3071 1.372 . S
C3071 C3070 1.372 . S
C3071 C3072 1.400 . S
C3071 C3076 1.490 . S
C3072 H3062 0.930 . S
C3072 C3071 1.400 . S
C3072 C3075 1.386 . S
H3073 C3089 0.930 . S
H3074 C3090 0.931 . S
C3075 H3063 0.929 . S
C3075 C3069 1.390 . S
C3075 C3072 1.386 . S
C3076 C3071 1.490 . S
C3076 C3078 1.395 . S
C3076 C3079 1.403 . S
H3077 C3083 0.930 . S
C3078 H3064 0.930 . S
C3078 C3076 1.395 . S
C3078 C3081 1.403 . S
C3079 C3076 1.403 . S
C3079 C3080 1.524 . S
C3079 C3083 1.400 . S
C3080 H3065 0.960 . S
C3080 H3066 0.960 . S
C3080 H3067 0.960 . S
C3080 C3079 1.524 . S
C3081 C3078 1.403 . S
C3081 C3082 1.392 . S
C3081 C3085 1.495 . S
C3082 C3081 1.392 . S
C3082 C3083 1.385 . S
C3082 C3084 1.478 . S
C3083 H3077 0.930 . S
C3083 C3079 1.400 . S
C3083 C3082 1.385 . S
C3084 C3082 1.478 . S
C3084 C3086 1.381 . S
C3084 C3090 1.383 . S
C3085 C3081 1.495 . S
C3085 H3091 0.959 . S
C3085 H3092 0.961 . S
C3085 H3093 0.960 . S
C3086 C3084 1.381 . S
C3086 C3087 1.394 . S
C3086 H3094 0.930 . S
C3087 C3086 1.394 . S
C3087 C3088 1.383 . S
C3087 H3095 0.929 . S
C3088 C3087 1.383 . S
C3088 C3089 1.377 . S
C3089 H3073 0.930 . S
C3089 C3088 1.377 . S
C3089 C3090 1.379 . S
C3090 H3074 0.931 . S
C3090 C3084 1.383 . S
C3090 C3089 1.379 . S
H3091 C3085 0.959 . S
H3092 C3085 0.961 . S
H3093 C3085 0.960 . S
H3094 C3086 0.930 . S
H3095 C3087 0.929 . S
H3096 C3104 0.934 1_455 S
H3097 C3106 0.930 1_455 S
H3098 C3108 0.930 . S
H3099 C3111 0.929 . S
H3100 C3114 0.930 . S
H3101 C3116 0.960 . S
H3102 C3116 0.960 . S
H3103 C3116 0.960 . S
C3104 H3096 0.934 1_655 S
C3104 C3105 1.377 . S
C3104 C3106 1.384 . S
C3105 C3104 1.377 . S
C3105 C3111 1.390 . S
C3106 H3097 0.930 1_655 S
C3106 C3104 1.384 . S
C3106 C3107 1.372 . S
C3107 C3106 1.372 . S
C3107 C3108 1.400 . S
C3107 C3112 1.490 . S
C3108 H3098 0.930 . S
C3108 C3107 1.400 . S
C3108 C3111 1.386 . S
H3109 C3125 0.930 . S
H3110 C3126 0.931 . S
C3111 H3099 0.929 . S
C3111 C3105 1.390 . S
C3111 C3108 1.386 . S
C3112 C3107 1.490 . S
C3112 C3114 1.395 . S
C3112 C3115 1.403 1_655 S
H3113 C3119 0.930 . S
C3114 H3100 0.930 . S
C3114 C3112 1.395 . S
C3114 C3117 1.403 . S
C3115 C3112 1.403 1_455 S
C3115 C3116 1.524 . S
C3115 C3119 1.400 . S
C3116 H3101 0.960 . S
C3116 H3102 0.960 . S
C3116 H3103 0.960 . S
C3116 C3115 1.524 . S
C3117 C3114 1.403 . S
C3117 C3118 1.392 . S
C3117 C3121 1.495 . S
C3118 C3117 1.392 . S
C3118 C3119 1.385 1_655 S
C3118 C3120 1.478 . S
C3119 H3113 0.930 . S
C3119 C3115 1.400 . S
C3119 C3118 1.385 1_455 S
C3120 C3118 1.478 . S
C3120 C3122 1.381 1_655 S
C3120 C3126 1.383 . S
C3121 C3117 1.495 . S
C3121 H3127 0.959 . S
C3121 H3128 0.961 . S
C3121 H3129 0.960 . S
C3122 C3120 1.381 1_455 S
C3122 C3123 1.394 . S
C3122 H3130 0.930 . S
C3123 C3122 1.394 . S
C3123 C3124 1.383 1_455 S
C3123 H3131 0.929 . S
C3124 C3123 1.383 1_655 S
C3124 C3125 1.377 . S
C3125 H3109 0.930 . S
C3125 C3124 1.377 . S
C3125 C3126 1.379 . S
C3126 H3110 0.931 . S
C3126 C3120 1.383 . S
C3126 C3125 1.379 . S
H3127 C3121 0.959 . S
H3128 C3121 0.961 . S
H3129 C3121 0.960 . S
H3130 C3122 0.930 . S
H3131 C3123 0.929 . S
H3132 C3140 0.929 . S
H3133 C3142 0.930 . S
H3134 C3144 0.930 . S
H3135 C3147 0.929 . S
H3136 C3150 0.930 . S
H3137 C3152 0.960 . S
H3138 C3152 0.960 . S
H3139 C3152 0.960 . S
C3140 H3132 0.929 . S
C3140 C3141 1.377 . S
C3140 C3142 1.384 . S
C3141 C3140 1.377 . S
C3141 C3147 1.390 . S
C3142 H3133 0.930 . S
C3142 C3140 1.384 . S
C3142 C3143 1.372 . S
C3143 C3142 1.372 . S
C3143 C3144 1.400 . S
C3143 C3148 1.490 . S
C3144 H3134 0.930 . S
C3144 C3143 1.400 . S
C3144 C3147 1.386 . S
H3145 C3161 0.930 . S
H3146 C3162 0.931 . S
C3147 H3135 0.929 . S
C3147 C3141 1.390 . S
C3147 C3144 1.386 . S
C3148 C3143 1.490 . S
C3148 C3150 1.395 . S
C3148 C3151 1.403 . S
H3149 C3155 0.930 . S
C3150 H3136 0.930 . S
C3150 C3148 1.395 . S
C3150 C3153 1.403 . S
C3151 C3148 1.403 . S
C3151 C3152 1.524 . S
C3151 C3155 1.400 . S
C3152 H3137 0.960 . S
C3152 H3138 0.960 . S
C3152 H3139 0.960 . S
C3152 C3151 1.524 . S
C3153 C3150 1.403 . S
C3153 C3154 1.392 . S
C3153 C3157 1.495 . S
C3154 C3153 1.392 . S
C3154 C3155 1.385 . S
C3154 C3156 1.478 . S
C3155 H3149 0.930 . S
C3155 C3151 1.400 . S
C3155 C3154 1.385 . S
C3156 C3154 1.478 . S
C3156 C3158 1.381 . S
C3156 C3162 1.383 . S
C3157 C3153 1.495 . S
C3157 H3163 0.959 . S
C3157 H3164 0.961 . S
C3157 H3165 0.960 . S
C3158 C3156 1.381 . S
C3158 C3159 1.394 . S
C3158 H3166 0.930 . S
C3159 C3158 1.394 . S
C3159 C3160 1.383 . S
C3159 H3167 0.929 . S
C3160 C3159 1.383 . S
C3160 C3161 1.377 . S
C3161 H3145 0.930 . S
C3161 C3160 1.377 . S
C3161 C3162 1.379 . S
C3162 H3146 0.931 . S
C3162 C3156 1.383 . S
C3162 C3161 1.379 . S
H3163 C3157 0.959 . S
H3164 C3157 0.961 . S
H3165 C3157 0.960 . S
H3166 C3158 0.930 . S
H3167 C3159 0.929 . S
H3168 C3176 0.929 . S
H3169 C3178 0.930 . S
H3170 C3180 0.922 1_565 S
H3171 C3183 0.969 . S
H3172 C3186 0.930 . S
H3173 C3188 0.960 . S
H3174 C3188 0.960 . S
H3175 C3188 0.960 . S
C3176 H3168 0.929 . S
C3176 C3177 1.377 . S
C3176 C3178 1.384 . S
C3177 C3176 1.377 . S
C3177 C3183 1.390 . S
C3178 H3169 0.930 . S
C3178 C3176 1.384 . S
C3178 C3179 1.372 . S
C3179 C3178 1.372 . S
C3179 C3180 1.400 . S
C3179 C3184 1.490 . S
C3180 H3170 0.922 1_545 S
C3180 C3179 1.400 . S
C3180 C3183 1.386 . S
H3181 C3197 0.930 1_565 S
H3182 C3198 0.950 . S
C3183 H3171 0.969 . S
C3183 C3177 1.390 . S
C3183 C3180 1.386 . S
C3184 C3179 1.490 . S
C3184 C3186 1.395 . S
C3184 C3187 1.403 . S
H3185 C3191 0.930 1_565 S
C3186 H3172 0.930 . S
C3186 C3184 1.395 . S
C3186 C3189 1.403 . S
C3187 C3184 1.403 . S
C3187 C3188 1.524 1_545 S
C3187 C3191 1.400 . S
C3188 H3173 0.960 . S
C3188 H3174 0.960 . S
C3188 H3175 0.960 . S
C3188 C3187 1.524 1_565 S
C3189 C3186 1.403 . S
C3189 C3190 1.392 . S
C3189 C3193 1.495 . S
C3190 C3189 1.392 . S
C3190 C3191 1.385 . S
C3190 C3192 1.478 . S
C3191 H3185 0.930 1_545 S
C3191 C3187 1.400 . S
C3191 C3190 1.385 . S
C3192 C3190 1.478 . S
C3192 C3194 1.381 . S
C3192 C3198 1.383 . S
C3193 C3189 1.495 . S
C3193 H3199 0.959 . S
C3193 H3200 0.961 . S
C3193 H3201 0.960 . S
C3194 C3192 1.381 . S
C3194 C3195 1.394 . S
C3194 H3202 0.930 . S
C3195 C3194 1.394 . S
C3195 C3196 1.383 . S
C3195 H3203 0.929 . S
C3196 C3195 1.383 . S
C3196 C3197 1.377 . S
C3197 H3181 0.930 1_545 S
C3197 C3196 1.377 . S
C3197 C3198 1.379 . S
C3198 H3182 0.950 . S
C3198 C3192 1.383 . S
C3198 C3197 1.379 . S
H3199 C3193 0.959 . S
H3200 C3193 0.961 . S
H3201 C3193 0.960 . S
H3202 C3194 0.930 . S
H3203 C3195 0.929 . S
C621 C10 1.656 . S
C640 C440 1.576 . S
C657 C23 1.638 . S
C676 C453 1.597 . S
C712 C482 1.582 1_545 S
C693 C29 1.645 . S
C729 C30 1.643 . S
C748 C495 1.616 . S
C765 C5 1.657 . S
C784 C516 1.622 . S
C801 C18 1.645 . S
C820 C545 1.585 . S
C837 C49 1.652 . S
C856 C524 1.597 . S
C892 C537 1.570 . S
C873 C62 1.635 . S
C928 C503 1.609 . S
C909 C70 1.636 . S
C945 C75 1.637 . S
C964 C474 1.564 1_545 S
C1000 C432 1.621 . S
C981 C44 1.652 . S
C1017 C57 1.641 . S
C1036 C461 1.599 . S
C1053 C88 1.653 . S
C1072 C566 1.585 . S
C1089 C101 1.640 . S
C1108 C579 1.592 . S
C1144 C608 1.554 . S
C1125 C107 1.641 . S
C1161 C108 1.641 . S
C1180 C243 1.599 . S
C1197 C83 1.657 . S
C1216 C264 1.618 . S
C1233 C96 1.644 . S
C1252 C293 1.560 . S
C1269 C127 1.650 . S
C1288 C272 1.572 . S
C1305 C140 1.634 . S
C1324 C285 1.572 . S
C1360 C251 1.609 . S
C1341 C146 1.637 . S
C1396 C600 1.606 . S
C1377 C147 1.639 . S
C1432 C558 1.585 . S
C1413 C122 1.650 . S
C1468 C587 1.611 . S
C1449 C135 1.639 . S
C1485 C160 1.656 . S
C1504 C314 1.570 . S
C1521 C173 1.638 . S
C1540 C327 1.579 . S
C1557 C185 1.640 . S
C1576 C356 1.560 . S
C1593 C186 1.643 . S
C1612 C369 1.621 . S
C1648 C390 1.610 . S
C1629 C159 1.656 . S
C1684 C419 1.571 . S
C1665 C172 1.645 . S
C1720 C398 1.608 . S
C1701 C205 1.652 . S
C1756 C411 1.595 . S
C1737 C218 1.635 . S
C1773 C224 1.636 . S
C1792 C377 1.564 . S
C1828 C348 1.601 . S
C1809 C225 1.638 . S
C1845 C200 1.653 . S
C1864 C306 1.610 . S
C1900 C335 1.574 . S
C1881 C213 1.637 . S
C1936 C246 1.402 . S
C1917 C4 1.515 . S
C1953 C17 1.497 . S
C1972 C267 1.377 . S
C2008 C295 1.445 . S
C1989 C31 1.507 . S
C2044 C316 1.437 . S
C2025 C36 1.495 . S
C2080 C330 1.357 . S
C2061 C3 1.517 . S
C2116 C358 1.445 . S
C2097 C16 1.510 . S
C2133 C43 1.514 . S
C2152 C351 1.426 . S
C2169 C56 1.498 . S
C2188 C309 1.412 . S
C2205 C68 1.507 . S
C2224 C337 1.448 . S
C2241 C69 1.496 . S
C2260 C274 1.373 . S
C2296 C288 1.348 . S
C2277 C42 1.520 . S
C2313 C55 1.511 . S
C2332 C253 1.397 . S
C2368 C372 1.427 . S
C2349 C82 1.516 . S
C2385 C95 1.496 . S
C2404 C393 1.336 . S
C2421 C109 1.506 1_655 S
C2440 C421 1.378 . S
C2476 C442 1.416 . S
C2457 C114 1.495 . S
C2493 C81 1.517 . S
C2512 C456 1.348 . S
C2529 C94 1.509 . S
C2548 C484 1.398 . S
C2565 C121 1.517 . S
C2584 C477 1.338 . S
C2601 C134 1.499 . S
C2620 C435 1.355 . S
C2656 C463 1.398 . S
C2637 C148 1.508 . S
C2673 C153 1.494 . S
C2692 C400 1.436 . S
C2709 C120 1.519 . S
C2728 C414 1.405 . S
C2764 C379 1.384 . S
C2745 C133 1.456 1_655 S
C2800 C498 1.382 . S
C2781 C166 1.513 . S
C2817 C179 1.497 . S
C2836 C519 1.374 1_655 S
C2853 C187 1.506 . S
C2872 C547 1.410 . S
C2908 C568 1.390 . S
C2889 C192 1.495 . S
C2944 C582 1.365 . S
C2925 C161 1.476 1_565 S
C2961 C174 1.508 . S
C2980 C610 1.429 . S
C2997 C199 1.514 . S
C3016 C603 1.426 . S
C3033 C212 1.467 1_565 S
C3052 C561 1.392 . S
C3088 C589 1.402 . S
C3069 C226 1.509 . S
C3124 C526 1.394 1_655 S
C3105 C231 1.491 . S
C3160 C540 1.383 . S
C3141 C198 1.519 . S
C3177 C211 1.510 . S
C3196 C505 1.445 . S
