# Generated by pormake.
# Topology eea, (3,6)-cn, num edge types: 1
# Building blocks:
#     Node 0, Type 0, BuildingBlock: QEWDON_clean_linker_0, # of connection points: 3
#     Node 1, Type 0, BuildingBlock: QEWDON_clean_linker_0, # of connection points: 3
#     Node 2, Type 0, BuildingBlock: QEWDON_clean_linker_0, # of connection points: 3
#     Node 3, Type 0, BuildingBlock: QEWDON_clean_linker_0, # of connection points: 3
#     Node 4, Type 0, BuildingBlock: QEWDON_clean_linker_0, # of connection points: 3
#     Node 5, Type 0, BuildingBlock: QEWDON_clean_linker_0, # of connection points: 3
#     Node 6, Type 0, BuildingBlock: QEWDON_clean_linker_0, # of connection points: 3
#     Node 7, Type 0, BuildingBlock: QEWDON_clean_linker_0, # of connection points: 3
#     Node 8, Type 0, BuildingBlock: QEWDON_clean_linker_0, # of connection points: 3
#     Node 9, Type 0, BuildingBlock: QEWDON_clean_linker_0, # of connection points: 3
#     Node 10, Type 0, BuildingBlock: QEWDON_clean_linker_0, # of connection points: 3
#     Node 11, Type 0, BuildingBlock: QEWDON_clean_linker_0, # of connection points: 3
#     Node 12, Type 0, BuildingBlock: QEWDON_clean_linker_0, # of connection points: 3
#     Node 13, Type 0, BuildingBlock: QEWDON_clean_linker_0, # of connection points: 3
#     Node 14, Type 0, BuildingBlock: QEWDON_clean_linker_0, # of connection points: 3
#     Node 15, Type 0, BuildingBlock: QEWDON_clean_linker_0, # of connection points: 3
#     Node 16, Type 0, BuildingBlock: QEWDON_clean_linker_0, # of connection points: 3
#     Node 17, Type 0, BuildingBlock: QEWDON_clean_linker_0, # of connection points: 3
#     Node 18, Type 1, BuildingBlock: KUMJIN_clean_sbu_0, # of connection points: 6
#     Node 19, Type 1, BuildingBlock: KUMJIN_clean_sbu_0, # of connection points: 6
#     Node 20, Type 1, BuildingBlock: KUMJIN_clean_sbu_0, # of connection points: 6
#     Node 21, Type 1, BuildingBlock: KUMJIN_clean_sbu_0, # of connection points: 6
#     Node 22, Type 1, BuildingBlock: KUMJIN_clean_sbu_0, # of connection points: 6
#     Node 23, Type 1, BuildingBlock: KUMJIN_clean_sbu_0, # of connection points: 6
#     Node 24, Type 1, BuildingBlock: KUMJIN_clean_sbu_0, # of connection points: 6
#     Node 25, Type 1, BuildingBlock: KUMJIN_clean_sbu_0, # of connection points: 6
#     Node 26, Type 1, BuildingBlock: KUMJIN_clean_sbu_0, # of connection points: 6
#     Edge 27, Type (0, 1), BuildingBlock: ZUJKAS_clean_linker_0, # of connection points: 2
#     Edge 28, Type (0, 1), BuildingBlock: ZUJKAS_clean_linker_0, # of connection points: 2
#     Edge 29, Type (0, 1), BuildingBlock: ZUJKAS_clean_linker_0, # of connection points: 2
#     Edge 30, Type (0, 1), BuildingBlock: ZUJKAS_clean_linker_0, # of connection points: 2
#     Edge 31, Type (0, 1), BuildingBlock: ZUJKAS_clean_linker_0, # of connection points: 2
#     Edge 32, Type (0, 1), BuildingBlock: ZUJKAS_clean_linker_0, # of connection points: 2
#     Edge 33, Type (0, 1), BuildingBlock: ZUJKAS_clean_linker_0, # of connection points: 2
#     Edge 34, Type (0, 1), BuildingBlock: ZUJKAS_clean_linker_0, # of connection points: 2
#     Edge 35, Type (0, 1), BuildingBlock: ZUJKAS_clean_linker_0, # of connection points: 2
#     Edge 36, Type (0, 1), BuildingBlock: ZUJKAS_clean_linker_0, # of connection points: 2
#     Edge 37, Type (0, 1), BuildingBlock: ZUJKAS_clean_linker_0, # of connection points: 2
#     Edge 38, Type (0, 1), BuildingBlock: ZUJKAS_clean_linker_0, # of connection points: 2
#     Edge 39, Type (0, 1), BuildingBlock: ZUJKAS_clean_linker_0, # of connection points: 2
#     Edge 40, Type (0, 1), BuildingBlock: ZUJKAS_clean_linker_0, # of connection points: 2
#     Edge 41, Type (0, 1), BuildingBlock: ZUJKAS_clean_linker_0, # of connection points: 2
#     Edge 42, Type (0, 1), BuildingBlock: ZUJKAS_clean_linker_0, # of connection points: 2
#     Edge 43, Type (0, 1), BuildingBlock: ZUJKAS_clean_linker_0, # of connection points: 2
#     Edge 44, Type (0, 1), BuildingBlock: ZUJKAS_clean_linker_0, # of connection points: 2
#     Edge 45, Type (0, 1), BuildingBlock: ZUJKAS_clean_linker_0, # of connection points: 2
#     Edge 46, Type (0, 1), BuildingBlock: ZUJKAS_clean_linker_0, # of connection points: 2
#     Edge 47, Type (0, 1), BuildingBlock: ZUJKAS_clean_linker_0, # of connection points: 2
#     Edge 48, Type (0, 1), BuildingBlock: ZUJKAS_clean_linker_0, # of connection points: 2
#     Edge 49, Type (0, 1), BuildingBlock: ZUJKAS_clean_linker_0, # of connection points: 2
#     Edge 50, Type (0, 1), BuildingBlock: ZUJKAS_clean_linker_0, # of connection points: 2
#     Edge 51, Type (0, 1), BuildingBlock: ZUJKAS_clean_linker_0, # of connection points: 2
#     Edge 52, Type (0, 1), BuildingBlock: ZUJKAS_clean_linker_0, # of connection points: 2
#     Edge 53, Type (0, 1), BuildingBlock: ZUJKAS_clean_linker_0, # of connection points: 2
#     Edge 54, Type (0, 1), BuildingBlock: ZUJKAS_clean_linker_0, # of connection points: 2
#     Edge 55, Type (0, 1), BuildingBlock: ZUJKAS_clean_linker_0, # of connection points: 2
#     Edge 56, Type (0, 1), BuildingBlock: ZUJKAS_clean_linker_0, # of connection points: 2
#     Edge 57, Type (0, 1), BuildingBlock: ZUJKAS_clean_linker_0, # of connection points: 2
#     Edge 58, Type (0, 1), BuildingBlock: ZUJKAS_clean_linker_0, # of connection points: 2
#     Edge 59, Type (0, 1), BuildingBlock: ZUJKAS_clean_linker_0, # of connection points: 2
#     Edge 60, Type (0, 1), BuildingBlock: ZUJKAS_clean_linker_0, # of connection points: 2
#     Edge 61, Type (0, 1), BuildingBlock: ZUJKAS_clean_linker_0, # of connection points: 2
#     Edge 62, Type (0, 1), BuildingBlock: ZUJKAS_clean_linker_0, # of connection points: 2
#     Edge 63, Type (0, 1), BuildingBlock: ZUJKAS_clean_linker_0, # of connection points: 2
#     Edge 64, Type (0, 1), BuildingBlock: ZUJKAS_clean_linker_0, # of connection points: 2
#     Edge 65, Type (0, 1), BuildingBlock: ZUJKAS_clean_linker_0, # of connection points: 2
#     Edge 66, Type (0, 1), BuildingBlock: ZUJKAS_clean_linker_0, # of connection points: 2
#     Edge 67, Type (0, 1), BuildingBlock: ZUJKAS_clean_linker_0, # of connection points: 2
#     Edge 68, Type (0, 1), BuildingBlock: ZUJKAS_clean_linker_0, # of connection points: 2
#     Edge 69, Type (0, 1), BuildingBlock: ZUJKAS_clean_linker_0, # of connection points: 2
#     Edge 70, Type (0, 1), BuildingBlock: ZUJKAS_clean_linker_0, # of connection points: 2
#     Edge 71, Type (0, 1), BuildingBlock: ZUJKAS_clean_linker_0, # of connection points: 2
#     Edge 72, Type (0, 1), BuildingBlock: ZUJKAS_clean_linker_0, # of connection points: 2
#     Edge 73, Type (0, 1), BuildingBlock: ZUJKAS_clean_linker_0, # of connection points: 2
#     Edge 74, Type (0, 1), BuildingBlock: ZUJKAS_clean_linker_0, # of connection points: 2
#     Edge 75, Type (0, 1), BuildingBlock: ZUJKAS_clean_linker_0, # of connection points: 2
#     Edge 76, Type (0, 1), BuildingBlock: ZUJKAS_clean_linker_0, # of connection points: 2
#     Edge 77, Type (0, 1), BuildingBlock: ZUJKAS_clean_linker_0, # of connection points: 2
#     Edge 78, Type (0, 1), BuildingBlock: ZUJKAS_clean_linker_0, # of connection points: 2
#     Edge 79, Type (0, 1), BuildingBlock: ZUJKAS_clean_linker_0, # of connection points: 2
#     Edge 80, Type (0, 1), BuildingBlock: ZUJKAS_clean_linker_0, # of connection points: 2
# Relax obj value: 0.043
# Max RMSD: 0.201
# Mean RMSD: 0.144
data_MOF--net-eea--node1-KUMJIN_clean_sbu_0--node2-QEWDON_clean_linker_0--edge1-ZUJKAS_clean_linker_0
_symmetry_space_group_name_H-M    P1
_symmetry_Int_Tables_number       1
_symmetry_cell_setting            triclinic
loop_
_symmetry_equiv_pos_as_xyz
'x, y, z'
_cell_length_a     74.859147
_cell_length_b     76.542005
_cell_length_c     78.552255
_cell_angle_alpha  90.154701
_cell_angle_beta   90.147209
_cell_angle_gamma 119.96233
loop_
_atom_site_label
_atom_site_type_symbol
_atom_site_fract_x
_atom_site_fract_y
_atom_site_fract_z
_atom_type_partial_charge
H0 H 0.20595 0.11454 0.42903 0.0
C1 C 0.20705 0.10258 0.42258 0.0
C2 C 0.22037 0.09613 0.42895 0.0
C3 C 0.19405 0.09264 0.40863 0.0
H4 H 0.23152 0.07525 0.42551 0.0
C5 C 0.22105 0.08008 0.42084 0.0
C6 C 0.20826 0.07009 0.40686 0.0
C7 C 0.1949 0.07656 0.40077 0.0
C8 C 0.17827 0.09777 0.40313 0.0
H9 H 0.18463 0.06864 0.3902 0.0
C10 C 0.1835 0.11786 0.39989 0.0
C11 C 0.16836 0.12238 0.39429 0.0
C12 C 0.1577 0.0823 0.40105 0.0
H13 H 0.15323 0.06676 0.40367 0.0
C14 C 0.14263 0.08674 0.39581 0.0
H15 H 0.19939 0.1298 0.40123 0.0
C16 C 0.14786 0.1066 0.39244 0.0
H17 H 0.13578 0.10961 0.38852 0.0
H18 H 0.1268 0.07474 0.39437 0.0
H19 H 0.90429 0.097 0.41959 0.0
C20 C 0.91666 0.1108 0.4143 0.0
C21 C 0.92497 0.12878 0.42388 0.0
C22 C 0.92501 0.11036 0.39835 0.0
H23 H 0.94834 0.16035 0.42453 0.0
C24 C 0.9418 0.14638 0.41733 0.0
C25 C 0.95013 0.14627 0.40141 0.0
C26 C 0.94144 0.12838 0.39186 0.0
C27 C 0.91773 0.09098 0.38895 0.0
H28 H 0.94796 0.12841 0.37955 0.0
C29 C 0.89663 0.07606 0.38821 0.0
C30 C 0.89018 0.05799 0.37903 0.0
C31 C 0.93219 0.08725 0.38071 0.0
H32 H 0.94854 0.09804 0.38142 0.0
C33 C 0.92586 0.0694 0.3717 0.0
H34 H 0.88524 0.07866 0.39438 0.0
C35 C 0.90504 0.0549 0.3708 0.0
H36 H 0.90059 0.04104 0.36389 0.0
H37 H 0.93717 0.06674 0.36548 0.0
H38 H 0.91699 0.79947 0.42096 0.0
C39 C 0.90346 0.7988 0.41527 0.0
C40 C 0.88453 0.789 0.42398 0.0
C41 C 0.90521 0.80889 0.39984 0.0
H42 H 0.85272 0.78161 0.42378 0.0
C43 C 0.86719 0.7889 0.41693 0.0
C44 C 0.86841 0.79847 0.4014 0.0
C45 C 0.88745 0.80826 0.39291 0.0
C46 C 0.92571 0.82162 0.39158 0.0
H47 H 0.88846 0.81553 0.38085 0.0
C48 C 0.94062 0.81542 0.39022 0.0
C49 C 0.95948 0.82768 0.38172 0.0
C50 C 0.93042 0.84051 0.38493 0.0
H51 H 0.91972 0.84607 0.38618 0.0
C52 C 0.94907 0.85266 0.37676 0.0
H53 H 0.93736 0.80096 0.39525 0.0
C54 C 0.96342 0.84629 0.37506 0.0
H55 H 0.97784 0.8561 0.3687 0.0
H56 H 0.95242 0.86714 0.37172 0.0
H57 H 0.12648 0.2103 0.60527 0.0
C58 C 0.11359 0.21086 0.61094 0.0
C59 C 0.10587 0.22231 0.60313 0.0
C60 C 0.10437 0.1997 0.62575 0.0
H61 H 0.08231 0.23065 0.60387 0.0
C62 C 0.08875 0.22251 0.61028 0.0
C63 C 0.07915 0.21137 0.62501 0.0
C64 C 0.08734 0.20031 0.63275 0.0
C65 C 0.11128 0.18613 0.63329 0.0
H66 H 0.08034 0.19201 0.6443 0.0
C67 C 0.1324 0.19215 0.63535 0.0
C68 C 0.13825 0.17907 0.6431 0.0
C69 C 0.0963 0.16669 0.63854 0.0
H70 H 0.08002 0.16138 0.63677 0.0
C71 C 0.10203 0.15371 0.64594 0.0
H72 H 0.14417 0.20707 0.63144 0.0
C73 C 0.12278 0.15983 0.64828 0.0
H74 H 0.12675 0.14933 0.65397 0.0
H75 H 0.09031 0.13879 0.64987 0.0
H76 H 0.81843 0.92338 0.6028 0.0
C77 C 0.81656 0.90943 0.60793 0.0
C78 C 0.8027 0.89099 0.6001 0.0
C79 C 0.82849 0.91001 0.622 0.0
H80 H 0.79041 0.85878 0.60044 0.0
C81 C 0.80076 0.87303 0.6066 0.0
C82 C 0.81254 0.87332 0.62064 0.0
C83 C 0.82621 0.89185 0.62836 0.0
C84 C 0.84424 0.9296 0.62945 0.0
H85 H 0.83553 0.89221 0.63908 0.0
C86 C 0.83977 0.94516 0.63248 0.0
C87 C 0.85483 0.96374 0.63946 0.0
C88 C 0.86402 0.93288 0.63338 0.0
H89 H 0.86804 0.92133 0.63092 0.0
C90 C 0.879 0.95125 0.64022 0.0
H91 H 0.82445 0.94263 0.62977 0.0
C92 C 0.87451 0.9666 0.64323 0.0
H93 H 0.88657 0.98083 0.64828 0.0
H94 H 0.89423 0.95367 0.64308 0.0
H95 H 0.09641 0.88683 0.60413 0.0
C96 C 0.10996 0.89983 0.60936 0.0
C97 C 0.12918 0.90693 0.6014 0.0
C98 C 0.10809 0.90985 0.62371 0.0
H99 H 0.1613 0.92992 0.60163 0.0
C100 C 0.14655 0.92419 0.60792 0.0
C101 C 0.14501 0.93452 0.62212 0.0
C102 C 0.12579 0.92704 0.63008 0.0
C103 C 0.08755 0.90347 0.63138 0.0
H104 H 0.12446 0.93501 0.64098 0.0
C105 C 0.07313 0.88297 0.63449 0.0
C106 C 0.05406 0.87745 0.64231 0.0
C107 C 0.08234 0.91821 0.63574 0.0
H108 H 0.09283 0.93401 0.63317 0.0
C109 C 0.06346 0.91279 0.64326 0.0
H110 H 0.07695 0.87144 0.63131 0.0
C111 C 0.04945 0.89261 0.64658 0.0
H112 H 0.03481 0.88884 0.6523 0.0
H113 H 0.05964 0.92429 0.64649 0.0
H114 H 0.8761 0.44938 0.76183 0.0
C115 C 0.87688 0.4375 0.75493 0.0
C116 C 0.89138 0.43187 0.75981 0.0
C117 C 0.86298 0.42749 0.7415 0.0
H118 H 0.90282 0.41144 0.75487 0.0
C119 C 0.89213 0.41631 0.75087 0.0
C120 C 0.87823 0.40605 0.73755 0.0
C121 C 0.86377 0.41176 0.73291 0.0
C122 C 0.84709 0.43284 0.7368 0.0
H123 H 0.85315 0.40396 0.72251 0.0
C124 C 0.85222 0.45314 0.73508 0.0
C125 C 0.83713 0.45811 0.73037 0.0
C126 C 0.82661 0.41754 0.73393 0.0
H127 H 0.82216 0.40181 0.73538 0.0
C128 C 0.8116 0.42237 0.72933 0.0
H129 H 0.86797 0.46502 0.73731 0.0
C130 C 0.81678 0.44247 0.72751 0.0
H131 H 0.80487 0.44573 0.72358 0.0
H132 H 0.79589 0.41046 0.7271 0.0
H133 H 0.57223 0.43164 0.75544 0.0
C134 C 0.58437 0.44542 0.74991 0.0
C135 C 0.59183 0.46383 0.75879 0.0
C136 C 0.59321 0.44453 0.73435 0.0
H137 H 0.61435 0.49573 0.75837 0.0
C138 C 0.60844 0.48138 0.75187 0.0
C139 C 0.61742 0.48075 0.73641 0.0
C140 C 0.60948 0.46243 0.72757 0.0
C141 C 0.58648 0.42486 0.7256 0.0
H142 H 0.61645 0.46208 0.71559 0.0
C143 C 0.56546 0.40979 0.72453 0.0
C144 C 0.5595 0.39161 0.71568 0.0
C145 C 0.60135 0.42112 0.71817 0.0
H146 H 0.61763 0.43205 0.71916 0.0
C147 C 0.59548 0.40312 0.70953 0.0
H148 H 0.55375 0.41237 0.7301 0.0
C149 C 0.57473 0.38851 0.7082 0.0
H150 H 0.57058 0.37458 0.70151 0.0
H151 H 0.60708 0.40046 0.70388 0.0
H152 H 0.59026 0.13929 0.75759 0.0
C153 C 0.57688 0.13894 0.75191 0.0
C154 C 0.55748 0.12754 0.75966 0.0
C155 C 0.57919 0.15046 0.73726 0.0
H156 H 0.52548 0.11959 0.7589 0.0
C157 C 0.54033 0.12786 0.75271 0.0
C158 C 0.54222 0.1392 0.73813 0.0
C159 C 0.56158 0.15011 0.73028 0.0
C160 C 0.60018 0.16453 0.73037 0.0
H161 H 0.56306 0.15897 0.71908 0.0
C162 C 0.61567 0.15908 0.72909 0.0
C163 C 0.63573 0.17327 0.72353 0.0
C164 C 0.6051 0.1842 0.72578 0.0
H165 H 0.59384 0.18908 0.72693 0.0
C166 C 0.62478 0.19809 0.72013 0.0
H167 H 0.61224 0.14403 0.73255 0.0
C168 C 0.64 0.19273 0.71906 0.0
H169 H 0.65516 0.20384 0.7146 0.0
H170 H 0.62833 0.21317 0.71669 0.0
H171 H 0.79144 0.54172 0.93757 0.0
C172 C 0.77843 0.54208 0.94321 0.0
C173 C 0.77107 0.55396 0.93569 0.0
C174 C 0.76867 0.53017 0.95757 0.0
H175 H 0.74794 0.56282 0.93673 0.0
C176 C 0.75374 0.55386 0.94267 0.0
C177 C 0.74344 0.54186 0.95684 0.0
C178 C 0.75131 0.53039 0.96438 0.0
C179 C 0.77521 0.51597 0.96441 0.0
H180 H 0.74345 0.52104 0.97525 0.0
C181 C 0.79626 0.52134 0.96575 0.0
C182 C 0.80179 0.50712 0.97138 0.0
C183 C 0.76002 0.49632 0.96899 0.0
H184 H 0.74378 0.49145 0.96776 0.0
C185 C 0.76546 0.48242 0.97477 0.0
H186 H 0.80823 0.53635 0.96226 0.0
C187 C 0.78612 0.48771 0.97592 0.0
H188 H 0.78988 0.47658 0.98047 0.0
H189 H 0.75357 0.46737 0.97823 0.0
H190 H 0.4832 0.25286 0.93175 0.0
C191 C 0.48213 0.2395 0.93745 0.0
C192 C 0.46844 0.22041 0.93053 0.0
C193 C 0.49475 0.24145 0.95146 0.0
H194 H 0.45723 0.18846 0.93233 0.0
C195 C 0.46748 0.20319 0.93777 0.0
C196 C 0.47995 0.20484 0.95175 0.0
C197 C 0.49336 0.22399 0.95862 0.0
C198 C 0.51008 0.2617 0.95816 0.0
H199 H 0.5031 0.22535 0.96936 0.0
C200 C 0.50499 0.277 0.96021 0.0
C201 C 0.51964 0.29615 0.96655 0.0
C202 C 0.53008 0.26585 0.96246 0.0
H203 H 0.53461 0.25455 0.96074 0.0
C204 C 0.54459 0.28472 0.9688 0.0
H205 H 0.48965 0.27399 0.95687 0.0
C206 C 0.53945 0.29976 0.97089 0.0
H207 H 0.55096 0.31417 0.9761 0.0
H208 H 0.55991 0.28771 0.97213 0.0
H209 H 0.76156 0.21841 0.93741 0.0
C210 C 0.77514 0.23139 0.94261 0.0
C211 C 0.79427 0.23857 0.93447 0.0
C212 C 0.77344 0.24126 0.95714 0.0
H213 H 0.82637 0.2616 0.93451 0.0
C214 C 0.81171 0.2558 0.94095 0.0
C215 C 0.81032 0.26599 0.95531 0.0
C216 C 0.79122 0.2584 0.96349 0.0
C217 C 0.75301 0.2347 0.96513 0.0
H218 H 0.79005 0.26625 0.97455 0.0
C219 C 0.73855 0.21412 0.96785 0.0
C220 C 0.71967 0.20843 0.97605 0.0
C221 C 0.74795 0.24934 0.97022 0.0
H222 H 0.75841 0.26521 0.96793 0.0
C223 C 0.72924 0.24374 0.97814 0.0
H224 H 0.74221 0.20263 0.96409 0.0
C225 C 0.71524 0.22348 0.98113 0.0
H226 H 0.70074 0.21953 0.98721 0.0
H227 H 0.72555 0.25517 0.98196 0.0
H228 H 0.54414 0.78296 0.09252 0.0
C229 C 0.54534 0.77077 0.08663 0.0
C230 C 0.55963 0.76556 0.09299 0.0
C231 C 0.53207 0.75982 0.07311 0.0
H232 H 0.57139 0.74504 0.09061 0.0
C233 C 0.56069 0.74938 0.08555 0.0
C234 C 0.54753 0.73826 0.07205 0.0
C235 C 0.53342 0.74373 0.06581 0.0
C236 C 0.51574 0.76412 0.06739 0.0
H237 H 0.52299 0.73502 0.05557 0.0
C238 C 0.52019 0.78399 0.06413 0.0
C239 C 0.50454 0.7878 0.05852 0.0
C240 C 0.49544 0.74814 0.06525 0.0
H241 H 0.49152 0.73275 0.06792 0.0
C242 C 0.47988 0.75184 0.05992 0.0
H243 H 0.53587 0.79635 0.0655 0.0
C244 C 0.48434 0.77148 0.05658 0.0
H245 H 0.47187 0.77391 0.05266 0.0
H246 H 0.46426 0.73944 0.05844 0.0
H247 H 0.2363 0.76391 0.08999 0.0
C248 C 0.24881 0.77742 0.08444 0.0
C249 C 0.25556 0.79618 0.09245 0.0
C250 C 0.25846 0.77597 0.06956 0.0
H251 H 0.27805 0.82798 0.0919 0.0
C252 C 0.27232 0.81354 0.08555 0.0
C253 C 0.28204 0.81244 0.07068 0.0
C254 C 0.27479 0.79373 0.06258 0.0
C255 C 0.25268 0.7559 0.06202 0.0
H256 H 0.28236 0.79295 0.05109 0.0
C257 C 0.23194 0.74013 0.0611 0.0
C258 C 0.22698 0.72102 0.05455 0.0
C259 C 0.26828 0.75223 0.05618 0.0
H260 H 0.28438 0.76376 0.05705 0.0
C261 C 0.26341 0.73349 0.04948 0.0
H262 H 0.21972 0.74263 0.06558 0.0
C263 C 0.24297 0.71801 0.04866 0.0
H264 H 0.23965 0.70365 0.04326 0.0
H265 H 0.27557 0.73092 0.045 0.0
H266 H 0.25127 0.46511 0.08708 0.0
C267 C 0.23789 0.46443 0.08106 0.0
C268 C 0.21832 0.45277 0.08849 0.0
C269 C 0.24037 0.47581 0.0663 0.0
H270 H 0.18626 0.44432 0.08713 0.0
C271 C 0.20113 0.45253 0.08096 0.0
C272 C 0.20312 0.46377 0.06624 0.0
C273 C 0.22279 0.47513 0.0589 0.0
C274 C 0.26142 0.49003 0.05956 0.0
H275 H 0.22447 0.48367 0.04745 0.0
C276 C 0.27712 0.48483 0.05845 0.0
C277 C 0.2971 0.49912 0.05275 0.0
C278 C 0.26608 0.50956 0.05476 0.0
H279 H 0.25466 0.51425 0.05577 0.0
C280 C 0.28566 0.52353 0.04898 0.0
H281 H 0.2739 0.46991 0.06212 0.0
C282 C 0.30105 0.51841 0.04801 0.0
H283 H 0.31611 0.52959 0.04342 0.0
H284 H 0.28897 0.53848 0.04534 0.0
H285 H 0.45375 0.87187 0.27248 0.0
C286 C 0.4414 0.8732 0.27834 0.0
C287 C 0.43324 0.884 0.27 0.0
C288 C 0.43287 0.86307 0.29372 0.0
H289 H 0.41008 0.89293 0.27113 0.0
C290 C 0.41652 0.88475 0.27745 0.0
C291 C 0.40766 0.87468 0.29275 0.0
C292 C 0.41615 0.86414 0.30086 0.0
C293 C 0.44022 0.85012 0.30181 0.0
H294 H 0.40969 0.85667 0.31283 0.0
C295 C 0.46143 0.85623 0.3031 0.0
C296 C 0.46778 0.84386 0.31144 0.0
C297 C 0.42562 0.83123 0.3084 0.0
H298 H 0.40925 0.8258 0.30723 0.0
C299 C 0.43184 0.81894 0.31642 0.0
H300 H 0.47294 0.87072 0.29815 0.0
C301 C 0.45271 0.82521 0.31802 0.0
H302 H 0.4571 0.81529 0.32426 0.0
H303 H 0.42041 0.80446 0.32141 0.0
H304 H 0.15529 0.59056 0.26584 0.0
C305 C 0.15397 0.5771 0.27157 0.0
C306 C 0.14063 0.55812 0.26428 0.0
C307 C 0.16601 0.57885 0.28593 0.0
H308 H 0.12968 0.52617 0.26578 0.0
C309 C 0.13929 0.54079 0.27167 0.0
C310 C 0.15121 0.54227 0.286 0.0
C311 C 0.1644 0.56132 0.29311 0.0
C312 C 0.18094 0.59898 0.29306 0.0
H313 H 0.17342 0.56249 0.30432 0.0
C314 C 0.17557 0.61408 0.29501 0.0
C315 C 0.18982 0.63312 0.30176 0.0
C316 C 0.20082 0.6032 0.2979 0.0
H317 H 0.20553 0.59202 0.2963 0.0
C318 C 0.21496 0.622 0.30463 0.0
H319 H 0.16032 0.61099 0.29127 0.0
C320 C 0.20954 0.63686 0.3066 0.0
H321 H 0.22073 0.65121 0.31211 0.0
H322 H 0.23019 0.62506 0.30836 0.0
H323 H 0.42671 0.55535 0.26711 0.0
C324 C 0.44015 0.56786 0.27297 0.0
C325 C 0.45947 0.57576 0.26502 0.0
C326 C 0.4379 0.57702 0.28776 0.0
H327 H 0.49163 0.59851 0.26637 0.0
C328 C 0.47665 0.59257 0.27229 0.0
C329 C 0.47476 0.60193 0.28699 0.0
C330 C 0.45538 0.59387 0.29479 0.0
C331 C 0.41707 0.5705 0.29486 0.0
H332 H 0.45374 0.60121 0.30601 0.0
C333 C 0.4022 0.54991 0.29685 0.0
C334 C 0.38235 0.54422 0.30307 0.0
C335 C 0.41179 0.58519 0.29924 0.0
H336 H 0.42268 0.60109 0.29756 0.0
C337 C 0.39228 0.5796 0.3055 0.0
H338 H 0.40598 0.53841 0.29349 0.0
C339 C 0.37765 0.5593 0.30739 0.0
H340 H 0.36263 0.55537 0.31239 0.0
H341 H 0.38844 0.59106 0.30882 0.0
Eu342 Eu 0.49602 0.99535 0.99167 0.0
C343 C 0.53725 0.05909 0.04997 0.0
C344 C 0.57329 0.06847 0.04968 0.0
C345 C 0.56338 0.09277 0.05891 0.0
C346 C 0.55239 0.05428 0.04654 0.0
C347 C 0.54253 0.07824 0.05654 0.0
C348 C 0.57874 0.08788 0.05551 0.0
C349 C 0.50614 0.06662 0.05941 0.0
N350 N 0.51725 0.0446 0.04781 0.0
C351 C 0.50169 0.04779 0.05301 0.0
C352 C 0.52665 0.082 0.061 0.0
Eu353 Eu 0.51093 0.0134 0.03628 0.0
N354 N 0.54659 0.03534 0.04105 0.0
C355 C 0.56078 0.0292 0.03947 0.0
C356 C 0.58802 0.06254 0.04735 0.0
C357 C 0.58171 0.04276 0.04237 0.0
H358 H 0.48582 0.03596 0.05174 0.0
H359 H 0.59296 0.03794 0.04077 0.0
H360 H 0.59475 0.09905 0.05782 0.0
H361 H 0.49377 0.06924 0.06313 0.0
H362 H 0.55608 0.01396 0.03562 0.0
H363 H 0.41468 0.97369 0.98652 0.0
H364 H 0.60421 0.07297 0.04975 0.0
H365 H 0.51965 0.97144 0.9763 0.0
H366 H 0.45163 0.99658 0.99184 0.0
H367 H 0.51058 0.93787 0.96478 0.0
H368 H 0.56777 0.10763 0.06381 0.0
H369 H 0.40218 0.93837 0.97783 0.0
H370 H 0.41045 0.91141 0.9697 0.0
H371 H 0.53007 0.09653 0.06606 0.0
H372 H 0.43654 0.90161 0.96386 0.0
N373 N 0.46014 0.97437 0.98682 0.0
C374 C 0.4465 0.98123 0.98812 0.0
C375 C 0.41847 0.94833 0.98026 0.0
C376 C 0.43265 0.94167 0.97809 0.0
C377 C 0.42547 0.96827 0.9851 0.0
C378 C 0.45368 0.95527 0.98139 0.0
H379 H 0.47393 0.91148 0.9617 0.0
N380 N 0.48848 0.96381 0.9801 0.0
C381 C 0.49854 0.94101 0.96848 0.0
C382 C 0.46832 0.94982 0.97792 0.0
C383 C 0.50362 0.95998 0.97495 0.0
C384 C 0.47783 0.92613 0.96682 0.0
C385 C 0.46241 0.93054 0.97129 0.0
O386 O 0.51232 0.00394 0.96734 0.0
O387 O 0.52042 0.01739 0.00906 0.0
O388 O 0.5093 0.03783 0.02151 0.0
O389 O 0.48725 0.01902 0.99926 0.0
O390 O 0.53035 0.00627 0.98969 0.0
O391 O 0.48857 0.01143 0.97258 0.0
O392 O 0.49349 0.00269 0.05994 0.0
O393 O 0.48671 0.99129 0.01884 0.0
O394 O 0.49733 0.9709 0.00667 0.0
O395 O 0.51967 0.98964 0.02881 0.0
O396 O 0.47647 0.00206 0.03825 0.0
O397 O 0.52058 0.99994 0.05623 0.0
C398 C 0.5363 0.01869 1.00235 0.0
C399 C 0.49325 0.0054 0.94392 0.0
C400 C 0.49442 0.01337 0.91367 0.0
C401 C 0.50259 0.01878 0.93028 0.0
C402 C 0.47695 0.99429 0.91092 0.0
C403 C 0.4759 0.98644 0.94084 0.0
C404 C 0.46784 0.98093 0.92442 0.0
C405 C 0.49676 0.0356 0.00874 0.0
C406 C 0.50139 0.0115 0.96132 0.0
C407 C 0.44141 0.91656 0.96881 0.0
C408 C 0.42655 0.92214 0.97216 0.0
C409 C 0.47073 0.98985 0.02545 0.0
C410 C 0.5127 0.00469 0.08441 0.0
C411 C 0.50398 0.99122 0.0981 0.0
C412 C 0.5094 0.99813 0.11502 0.0
C413 C 0.52379 0.01857 0.118 0.0
C414 C 0.52716 0.02496 0.08771 0.0
C415 C 0.53267 0.03184 0.10441 0.0
C416 C 0.50981 0.97295 0.01946 0.0
C417 C 0.50617 0.99769 0.0668 0.0
H418 H 0.51592 0.03351 0.93266 0.0
H419 H 0.47044 0.98962 0.89827 0.0
H420 H 0.46851 0.97595 0.95112 0.0
H421 H 0.45443 0.96626 0.92215 0.0
H422 H 0.49272 0.97555 0.09562 0.0
H423 H 0.52835 0.02424 0.13086 0.0
H424 H 0.53414 0.03549 0.07742 0.0
H425 H 0.54382 0.04753 0.10684 0.0
Eu426 Eu 0.02197 0.50047 0.99055 0.0
C427 C 0.95289 0.47904 0.0436 0.0
C428 C 0.94499 0.50606 0.04081 0.0
C429 C 0.91812 0.47261 0.04911 0.0
C430 C 0.95919 0.49903 0.03968 0.0
C431 C 0.93242 0.46584 0.04881 0.0
C432 C 0.92438 0.49264 0.0451 0.0
C433 C 0.94204 0.44062 0.05461 0.0
N434 N 0.96695 0.47275 0.04325 0.0
C435 C 0.96211 0.45418 0.04937 0.0
C436 C 0.92704 0.44636 0.05407 0.0
Eu437 Eu 1.00011 0.49651 0.03333 0.0
N438 N 0.97927 0.51179 0.03546 0.0
C439 C 0.98634 0.532 0.03375 0.0
C440 C 0.95198 0.52648 0.03798 0.0
C441 C 0.97279 0.53954 0.03473 0.0
H442 H 0.97351 0.44949 0.04947 0.0
H443 H 0.97843 0.55546 0.0329 0.0
H444 H 0.91326 0.49776 0.04577 0.0
H445 H 0.93812 0.42573 0.05895 0.0
H446 H 1.00227 0.54256 0.03122 0.0
H447 H 0.04605 0.44377 0.98974 0.0
H448 H 0.94154 0.53241 0.03868 0.0
H449 H 0.04744 0.54785 0.97613 0.0
H450 H 0.02146 0.45619 0.9916 0.0
H451 H 0.08292 0.57329 0.96772 0.0
H452 H 0.90229 0.4626 0.05286 0.0
H453 H 0.08307 0.46769 0.9849 0.0
H454 H 0.11108 0.50316 0.9789 0.0
H455 H 0.91149 0.43582 0.05815 0.0
H456 H 0.12112 0.53843 0.9728 0.0
N457 N 0.04432 0.48699 0.98829 0.0
C458 C 0.03752 0.46683 0.98941 0.0
C459 C 0.07232 0.47326 0.98569 0.0
C460 C 0.07899 0.49374 0.98353 0.0
C461 C 0.05144 0.4597 0.98838 0.0
C462 C 0.06438 0.5002 0.98476 0.0
H463 H 0.11065 0.56462 0.96827 0.0
N464 N 0.05528 0.52534 0.98168 0.0
C465 C 0.07952 0.55838 0.97158 0.0
C466 C 0.07004 0.52 0.98133 0.0
C467 C 0.05948 0.54397 0.97628 0.0
C468 C 0.09515 0.55345 0.97196 0.0
C469 C 0.09045 0.53396 0.97661 0.0
O470 O 0.01601 0.5087 0.96541 0.0
O471 O 0.99721 0.50119 0.00575 0.0
O472 O 0.97754 0.46859 0.01862 0.0
O473 O 0.99682 0.46787 0.99554 0.0
O474 O 0.00987 0.52232 0.9868 0.0
O475 O 0.00935 0.47813 0.97012 0.0
O476 O 0.02629 0.50869 0.05112 0.0
O477 O 0.02363 0.49414 0.018 0.0
O478 O 0.04509 0.52613 0.00708 0.0
O479 O 0.02336 0.52917 0.02653 0.0
O480 O 0.00883 0.47203 0.03604 0.0
O481 O 0.99592 0.49916 0.06057 0.0
C482 C 0.99593 0.51514 0.99843 0.0
C483 C 0.01894 0.49066 0.94222 0.0
C484 C 0.01502 0.48642 0.91138 0.0
C485 C 1.00711 0.48726 0.92741 0.0
C486 C 0.03505 0.48921 0.9104 0.0
C487 C 0.03889 0.49346 0.94099 0.0
C488 C 0.04689 0.49277 0.92513 0.0
C489 C 0.98015 0.45953 0.00527 0.0
C490 C 0.01013 0.49097 0.95883 0.0
C491 C 0.1053 0.52787 0.97621 0.0
C492 C 0.09959 0.50779 0.97968 0.0
C493 C 0.02328 0.47904 0.02476 0.0
C494 C 0.01849 0.49493 0.07875 0.0
C495 C 0.02893 0.50568 0.09347 0.0
C496 C 0.03173 0.49562 0.10733 0.0
C497 C 0.02426 0.47476 0.10609 0.0
C498 C 0.01101 0.47409 0.07789 0.0
C499 C 0.014 0.46412 0.09145 0.0
C500 C 0.04141 0.53641 0.01877 0.0
C501 C 0.01503 0.50544 0.06457 0.0
H502 H 0.9916 0.48486 0.92843 0.0
H503 H 0.04161 0.48883 0.89823 0.0
H504 H 0.04821 0.49606 0.95224 0.0
H505 H 0.0623 0.49495 0.92426 0.0
H506 H 0.03448 0.52173 0.09426 0.0
H507 H 0.02649 0.46668 0.11642 0.0
H508 H 1.00273 0.46545 0.06684 0.0
H509 H 0.00826 0.44806 0.09063 0.0
Eu510 Eu 0.52547 0.50972 0.03406 0.0
C511 C 0.48096 0.53155 0.97792 0.0
C512 C 0.44494 0.50601 0.98026 0.0
C513 C 0.45436 0.53968 0.97066 0.0
C514 C 0.46602 0.51214 0.98209 0.0
C515 C 0.47532 0.54541 0.97176 0.0
C516 C 0.43919 0.52001 0.97492 0.0
C517 C 0.51143 0.56894 0.96687 0.0
N518 N 0.50103 0.53653 0.979 0.0
C519 C 0.51624 0.55463 0.97298 0.0
C520 C 0.4909 0.56442 0.96646 0.0
Eu521 Eu 0.50805 0.51193 0.99028 0.0
N522 N 0.47211 0.49897 0.98713 0.0
C523 C 0.45794 0.47906 0.98934 0.0
C524 C 0.4303 0.48585 0.98343 0.0
C525 C 0.43685 0.47226 0.98775 0.0
H526 H 0.53214 0.55821 0.9734 0.0
H527 H 0.42567 0.45656 0.98994 0.0
H528 H 0.42307 0.51565 0.97364 0.0
H529 H 0.52356 0.58345 0.96251 0.0
H530 H 0.46278 0.46842 0.99278 0.0
H531 H 0.6078 0.56526 0.03537 0.0
H532 H 0.41395 0.48055 0.98222 0.0
H533 H 0.50111 0.46309 0.0502 0.0
H534 H 0.5708 0.55322 0.03156 0.0
H535 H 0.50957 0.43793 0.06146 0.0
H536 H 0.44971 0.55019 0.96613 0.0
H537 H 0.6194 0.54149 0.04413 0.0
H538 H 0.61024 0.50649 0.05291 0.0
H539 H 0.48721 0.57551 0.96167 0.0
H540 H 0.58353 0.47183 0.05997 0.0
N541 N 0.56138 0.52273 0.03758 0.0
C542 C 0.57556 0.54264 0.03535 0.0
C543 C 0.6031 0.53608 0.04238 0.0
C544 C 0.58845 0.5159 0.0454 0.0
C545 C 0.59661 0.54955 0.0375 0.0
C546 C 0.56741 0.50964 0.043 0.0
H547 H 0.54597 0.44621 0.06342 0.0
N548 N 0.53236 0.48508 0.04544 0.0
C549 C 0.52177 0.45254 0.05739 0.0
C550 C 0.55243 0.4902 0.04704 0.0
C551 C 0.51704 0.46682 0.05106 0.0
C552 C 0.54234 0.45726 0.05843 0.0
C553 C 0.558 0.47639 0.05348 0.0
O554 O 0.50973 0.50384 0.05855 0.0
O555 O 0.50026 0.50822 0.01787 0.0
O556 O 0.51138 0.53887 0.00488 0.0
O557 O 0.53467 0.54191 0.0261 0.0
O558 O 0.49112 0.48786 0.0375 0.0
O559 O 0.53586 0.53337 0.05342 0.0
O560 O 0.52398 0.5174 0.96595 0.0
O561 O 0.53324 0.51349 0.0065 0.0
O562 O 0.52277 0.48323 0.01926 0.0
O563 O 0.49916 0.47975 0.9982 0.0
O564 O 0.54244 0.53364 0.98671 0.0
O565 O 0.49695 0.48841 0.97071 0.0
C566 C 0.48465 0.49444 0.02524 0.0
C567 C 0.53047 0.5221 0.08195 0.0
C568 C 0.52791 0.52503 0.11273 0.0
C569 C 0.52053 0.52461 0.09612 0.0
C570 C 0.54526 0.52267 0.11489 0.0
C571 C 0.54777 0.51987 0.08441 0.0
C572 C 0.55508 0.52011 0.10081 0.0
C573 C 0.5249 0.54922 0.01702 0.0
C574 C 0.5225 0.52165 0.06472 0.0
C575 C 0.57894 0.48227 0.05518 0.0
C576 C 0.59414 0.502 0.05116 0.0
C577 C 0.5489 0.52715 0.99906 0.0
C578 C 0.50338 0.49999 0.94227 0.0
C579 C 0.51212 0.49549 0.92831 0.0
C580 C 0.50608 0.49677 0.91158 0.0
C581 C 0.49104 0.5024 0.90903 0.0
C582 C 0.48825 0.50538 0.93946 0.0
C583 C 0.48212 0.50655 0.92291 0.0
C584 C 0.50933 0.47275 0.00712 0.0
C585 C 0.51078 0.49984 0.9596 0.0
H586 H 0.50729 0.52655 0.09417 0.0
H587 H 0.55115 0.52261 0.12749 0.0
H588 H 0.55565 0.51797 0.07371 0.0
H589 H 0.56841 0.5183 0.10262 0.0
H590 H 0.52393 0.49147 0.93045 0.0
H591 H 0.48605 0.50339 0.89629 0.0
H592 H 0.48129 0.50879 0.95002 0.0
H593 H 0.47048 0.51078 0.92084 0.0
Eu594 Eu 0.16231 0.32937 0.32436 0.0
C595 C 0.20734 0.39553 0.38042 0.0
C596 C 0.24315 0.40439 0.37836 0.0
C597 C 0.2344 0.42956 0.38748 0.0
C598 C 0.22199 0.39022 0.37653 0.0
C599 C 0.21334 0.4151 0.38638 0.0
C600 C 0.24929 0.42422 0.38344 0.0
C601 C 0.17736 0.40406 0.39118 0.0
N602 N 0.18716 0.38116 0.37934 0.0
C603 C 0.17219 0.38486 0.38524 0.0
C604 C 0.19801 0.41934 0.39153 0.0
Eu605 Eu 0.17949 0.3493 0.36842 0.0
N606 N 0.21551 0.37091 0.37174 0.0
C607 C 0.22936 0.36437 0.36983 0.0
C608 C 0.25748 0.39805 0.37546 0.0
C609 C 0.25053 0.37788 0.37142 0.0
H610 H 0.1562 0.3731 0.38486 0.0
H611 H 0.26146 0.37273 0.36945 0.0
H612 H 0.26549 0.43538 0.38472 0.0
H613 H 0.16542 0.40708 0.39545 0.0
H614 H 0.22421 0.34886 0.3666 0.0
H615 H 0.08059 0.30706 0.32245 0.0
H616 H 0.27389 0.40848 0.37667 0.0
H617 H 0.18505 0.30486 0.30837 0.0
H618 H 0.11786 0.33057 0.32532 0.0
H619 H 0.17539 0.27062 0.29816 0.0
H620 H 0.23934 0.44475 0.39184 0.0
H621 H 0.0677 0.27104 0.31601 0.0
H622 H 0.07563 0.24367 0.30858 0.0
H623 H 0.20199 0.4342 0.39619 0.0
H624 H 0.10146 0.23377 0.30178 0.0
N625 N 0.12621 0.30812 0.32091 0.0
C626 C 0.11257 0.31496 0.3224 0.0
C627 C 0.08413 0.28133 0.3172 0.0
C628 C 0.09826 0.27467 0.31463 0.0
C629 C 0.09135 0.30165 0.32079 0.0
C630 C 0.11948 0.28867 0.31642 0.0
H631 H 0.13869 0.24383 0.29749 0.0
N632 N 0.15417 0.2973 0.31362 0.0
C633 C 0.16358 0.2739 0.30226 0.0
C634 C 0.13394 0.28309 0.31262 0.0
C635 C 0.16899 0.29326 0.30797 0.0
C636 C 0.14285 0.2588 0.30195 0.0
C637 C 0.12769 0.26337 0.30692 0.0
O638 O 0.17779 0.33726 0.29965 0.0
O639 O 0.18738 0.35204 0.34086 0.0
O640 O 0.17656 0.37293 0.35346 0.0
O641 O 0.15392 0.35333 0.33173 0.0
O642 O 0.19657 0.34039 0.32135 0.0
O643 O 0.15369 0.34423 0.30497 0.0
O644 O 0.16292 0.33957 0.39253 0.0
O645 O 0.15451 0.32667 0.35186 0.0
O646 O 0.16458 0.30563 0.33965 0.0
O647 O 0.18771 0.32513 0.36111 0.0
O648 O 0.14521 0.3382 0.37142 0.0
O649 O 0.1896 0.33627 0.38841 0.0
C650 C 0.20297 0.35323 0.33371 0.0
C651 C 0.1577 0.33722 0.2764 0.0
C652 C 0.15791 0.34366 0.24588 0.0
C653 C 0.16646 0.35 0.2623 0.0
C654 C 0.14066 0.32426 0.24382 0.0
C655 C 0.14056 0.31795 0.274 0.0
C656 C 0.13213 0.31152 0.25778 0.0
C657 C 0.16358 0.37019 0.34088 0.0
C658 C 0.16632 0.34419 0.29357 0.0
C659 C 0.10658 0.24907 0.30594 0.0
C660 C 0.09188 0.25471 0.30981 0.0
C661 C 0.13889 0.32552 0.35894 0.0
C662 C 0.18275 0.34189 0.41667 0.0
C663 C 0.17532 0.32851 0.43054 0.0
C664 C 0.1816 0.3356 0.44736 0.0
C665 C 0.19532 0.35636 0.44991 0.0
C666 C 0.19662 0.36238 0.41962 0.0
C667 C 0.20281 0.36956 0.43614 0.0
C668 C 0.1775 0.30814 0.3522 0.0
C669 C 0.17561 0.3345 0.39924 0.0
H670 H 0.17963 0.36496 0.26416 0.0
H671 H 0.13389 0.31884 0.23135 0.0
H672 H 0.13363 0.30791 0.28465 0.0
H673 H 0.11889 0.29661 0.25603 0.0
H674 H 0.16483 0.31263 0.42816 0.0
H675 H 0.2001 0.36256 0.4626 0.0
H676 H 0.20256 0.37286 0.40916 0.0
H677 H 0.21337 0.38545 0.43831 0.0
Eu678 Eu 0.68675 0.83447 0.32533 0.0
C679 C 0.61865 0.81114 0.38031 0.0
C680 C 0.60975 0.83757 0.37901 0.0
C681 C 0.584 0.8038 0.38765 0.0
C682 C 0.62421 0.83104 0.37668 0.0
C683 C 0.59862 0.79751 0.3862 0.0
C684 C 0.58956 0.82377 0.38408 0.0
C685 C 0.60933 0.77282 0.39037 0.0
N686 N 0.63307 0.80536 0.37898 0.0
C687 C 0.62898 0.7868 0.38457 0.0
C688 C 0.59399 0.77809 0.39097 0.0
Eu689 Eu 0.6655 0.83002 0.36838 0.0
N690 N 0.64388 0.84421 0.37171 0.0
C691 C 0.65036 0.86431 0.3702 0.0
C692 C 0.61611 0.85793 0.37663 0.0
C693 C 0.63654 0.87138 0.3724 0.0
H694 H 0.64061 0.78244 0.38392 0.0
H695 H 0.64169 0.88724 0.37082 0.0
H696 H 0.57824 0.82852 0.3857 0.0
H697 H 0.606 0.75796 0.39433 0.0
H698 H 0.66601 0.8751 0.36699 0.0
H699 H 0.70992 0.77712 0.32333 0.0
H700 H 0.60548 0.8635 0.37844 0.0
H701 H 0.71267 0.88207 0.31145 0.0
H702 H 0.68565 0.78989 0.32557 0.0
H703 H 0.74828 0.90741 0.30324 0.0
H704 H 0.5685 0.79347 0.39197 0.0
H705 H 0.74702 0.80083 0.3186 0.0
H706 H 0.77533 0.83628 0.31298 0.0
H707 H 0.57878 0.76723 0.39552 0.0
H708 H 0.78578 0.87176 0.30742 0.0
N709 N 0.70877 0.82066 0.32258 0.0
C710 C 0.70175 0.80044 0.32343 0.0
C711 C 0.73642 0.80654 0.31956 0.0
C712 C 0.74331 0.82711 0.31767 0.0
C713 C 0.71549 0.79311 0.32218 0.0
C714 C 0.72888 0.83377 0.31911 0.0
H715 H 0.77572 0.89834 0.30345 0.0
N716 N 0.72017 0.85922 0.31655 0.0
C717 C 0.7447 0.89237 0.30686 0.0
C718 C 0.73476 0.85369 0.316 0.0
C719 C 0.72459 0.87802 0.31144 0.0
C720 C 0.76016 0.88721 0.30705 0.0
C721 C 0.75523 0.86757 0.31138 0.0
O722 O 0.68096 0.84323 0.30036 0.0
O723 O 0.6623 0.83527 0.34095 0.0
O724 O 0.64237 0.80259 0.35355 0.0
O725 O 0.66138 0.80193 0.33024 0.0
O726 O 0.67487 0.85653 0.32206 0.0
O727 O 0.67365 0.81241 0.30472 0.0
O728 O 0.69219 0.84173 0.38559 0.0
O729 O 0.68876 0.82778 0.35259 0.0
O730 O 0.7099 0.85992 0.34201 0.0
O731 O 0.68814 0.86281 0.3615 0.0
O732 O 0.67418 0.8055 0.3705 0.0
O733 O 0.66249 0.8339 0.39564 0.0
C734 C 0.66111 0.84938 0.33383 0.0
C735 C 0.6834 0.82522 0.27692 0.0
C736 C 0.67936 0.82119 0.24608 0.0
C737 C 0.67156 0.82204 0.26215 0.0
C738 C 0.69929 0.82376 0.24501 0.0
C739 C 0.70325 0.8278 0.2756 0.0
C740 C 0.71114 0.82711 0.25969 0.0
C741 C 0.64476 0.79361 0.34005 0.0
C742 C 0.6747 0.82552 0.29359 0.0
C743 C 0.76991 0.86127 0.31076 0.0
C744 C 0.76396 0.84107 0.31392 0.0
C745 C 0.68843 0.81256 0.35907 0.0
C746 C 0.68487 0.82906 0.41356 0.0
C747 C 0.69491 0.83986 0.42837 0.0
C748 C 0.69786 0.82996 0.44228 0.0
C749 C 0.69087 0.80918 0.441 0.0
C750 C 0.67785 0.80832 0.41266 0.0
C751 C 0.68094 0.79848 0.42628 0.0
C752 C 0.70617 0.87015 0.35371 0.0
C753 C 0.68154 0.83948 0.39925 0.0
H754 H 0.65612 0.81982 0.26323 0.0
H755 H 0.70577 0.82336 0.2328 0.0
H756 H 0.71257 0.83023 0.28681 0.0
H757 H 0.72648 0.82911 0.25876 0.0
H758 H 0.70008 0.85583 0.42916 0.0
H759 H 0.69324 0.80122 0.45134 0.0
H760 H 0.66992 0.79966 0.40151 0.0
H761 H 0.67558 0.7825 0.42543 0.0
Eu762 Eu 0.19125 0.84518 0.36679 0.0
C763 C 0.14499 0.86457 0.3099 0.0
C764 C 0.10914 0.83854 0.3119 0.0
C765 C 0.11806 0.87185 0.30164 0.0
C766 C 0.13026 0.84516 0.31427 0.0
C767 C 0.13909 0.87804 0.30323 0.0
C768 C 0.1031 0.85212 0.30594 0.0
C769 C 0.17516 0.9021 0.29881 0.0
N770 N 0.16515 0.86996 0.31134 0.0
C771 C 0.18023 0.88815 0.30536 0.0
C772 C 0.1545 0.89711 0.29792 0.0
Eu773 Eu 0.17259 0.84583 0.32307 0.0
N774 N 0.13662 0.83238 0.31985 0.0
C775 C 0.12272 0.81243 0.32225 0.0
C776 C 0.09477 0.81832 0.31508 0.0
C777 C 0.10161 0.80516 0.3201 0.0
H778 H 0.19622 0.89209 0.30609 0.0
H779 H 0.09064 0.78941 0.32232 0.0
H780 H 0.08694 0.84736 0.30423 0.0
H781 H 0.18717 0.91667 0.29446 0.0
H782 H 0.12781 0.80211 0.32614 0.0
H783 H 0.27282 0.90322 0.36603 0.0
H784 H 0.07841 0.81264 0.31333 0.0
H785 H 0.16939 0.79919 0.38404 0.0
H786 H 0.23543 0.88985 0.36371 0.0
H787 H 0.17971 0.77518 0.39491 0.0
H788 H 0.1132 0.88202 0.29668 0.0
H789 H 0.28623 0.88052 0.37355 0.0
H790 H 0.27889 0.84603 0.38235 0.0
H791 H 0.1506 0.9079 0.29276 0.0
H792 H 0.25355 0.81119 0.39033 0.0
N793 N 0.2275 0.85967 0.3695 0.0
C794 C 0.24095 0.87974 0.3671 0.0
C795 C 0.26974 0.87455 0.3726 0.0
C796 C 0.25585 0.85425 0.37602 0.0
C797 C 0.26223 0.88741 0.36839 0.0
C798 C 0.23454 0.84722 0.37449 0.0
H799 H 0.21656 0.78475 0.39534 0.0
N800 N 0.20003 0.82181 0.37813 0.0
C801 C 0.19129 0.78987 0.3904 0.0
C802 C 0.22035 0.82767 0.37897 0.0
C803 C 0.18551 0.80349 0.38431 0.0
C804 C 0.2121 0.79531 0.39058 0.0
C805 C 0.22697 0.81453 0.38506 0.0
O806 O 0.17651 0.83909 0.39175 0.0
O807 O 0.16531 0.84237 0.35078 0.0
O808 O 0.17501 0.87251 0.33744 0.0
O809 O 0.19911 0.87685 0.35835 0.0
O810 O 0.15718 0.82265 0.37085 0.0
O811 O 0.20077 0.86928 0.3856 0.0
O812 O 0.1878 0.85104 0.29838 0.0
O813 O 0.19834 0.8485 0.33913 0.0
O814 O 0.18875 0.81859 0.35227 0.0
O815 O 0.1644 0.81404 0.33154 0.0
O816 O 0.20677 0.86804 0.31897 0.0
O817 O 0.16209 0.82155 0.30428 0.0
C818 C 0.1501 0.8285 0.3585 0.0
C819 C 0.19755 0.85921 0.41437 0.0
C820 C 0.19645 0.86359 0.4451 0.0
C821 C 0.18779 0.86152 0.42876 0.0
C822 C 0.2149 0.86308 0.44681 0.0
C823 C 0.21591 0.85871 0.41637 0.0
C824 C 0.22449 0.86061 0.43252 0.0
C825 C 0.18868 0.88344 0.3493 0.0
C826 C 0.18846 0.85738 0.39737 0.0
C827 C 0.24816 0.82114 0.38585 0.0
C828 C 0.26258 0.84097 0.38132 0.0
C829 C 0.21367 0.86219 0.33144 0.0
C830 C 0.1667 0.83174 0.27549 0.0
C831 C 0.17601 0.82823 0.26137 0.0
C832 C 0.16844 0.82754 0.24479 0.0
C833 C 0.15136 0.83032 0.2426 0.0
C834 C 0.14968 0.83442 0.27299 0.0
C835 C 0.14207 0.83371 0.25663 0.0
C836 C 0.17512 0.80762 0.3404 0.0
C837 C 0.17512 0.83296 0.29267 0.0
H838 H 0.17368 0.86207 0.42718 0.0
H839 H 0.2218 0.86438 0.45922 0.0
H840 H 0.22365 0.85694 0.40548 0.0
H841 H 0.23866 0.86018 0.43398 0.0
H842 H 0.1893 0.82636 0.2633 0.0
H843 H 0.14501 0.82962 0.23005 0.0
H844 H 0.14226 0.83706 0.28365 0.0
H845 H 0.12889 0.83576 0.25481 0.0
Eu846 Eu 0.83054 0.66302 0.65852 0.0
C847 C 0.87352 0.73002 0.7142 0.0
C848 C 0.90952 0.73936 0.71295 0.0
C849 C 0.90006 0.7643 0.72117 0.0
C850 C 0.88847 0.72494 0.71086 0.0
C851 C 0.8791 0.74961 0.7198 0.0
C852 C 0.91525 0.75918 0.71772 0.0
C853 C 0.84289 0.7382 0.72372 0.0
N854 N 0.85345 0.71543 0.7129 0.0
C855 C 0.83815 0.71897 0.71817 0.0
C856 C 0.86345 0.75367 0.72432 0.0
Eu857 Eu 0.84652 0.68356 0.70253 0.0
N858 N 0.88239 0.70563 0.70637 0.0
C859 C 0.8965 0.69935 0.70501 0.0
C860 C 0.92415 0.73328 0.71059 0.0
C861 C 0.91757 0.71311 0.70687 0.0
H862 H 0.82223 0.70706 0.71759 0.0
H863 H 0.92873 0.70817 0.70532 0.0
H864 H 0.93135 0.77053 0.71921 0.0
H865 H 0.8307 0.74108 0.72749 0.0
H866 H 0.89165 0.68385 0.702 0.0
H867 H 0.74838 0.63845 0.65475 0.0
H868 H 0.94048 0.74391 0.71199 0.0
H869 H 0.85495 0.63933 0.64411 0.0
H870 H 0.78543 0.66282 0.65815 0.0
H871 H 0.84653 0.60512 0.63482 0.0
H872 H 0.90467 0.7795 0.72528 0.0
H873 H 0.73666 0.60254 0.64884 0.0
H874 H 0.74582 0.57577 0.64245 0.0
H875 H 0.8671 0.76854 0.72868 0.0
H876 H 0.77255 0.56671 0.63689 0.0
N877 N 0.79471 0.64095 0.6545 0.0
C878 C 0.7806 0.64726 0.65544 0.0
C879 C 0.75298 0.6132 0.65025 0.0
C880 C 0.76762 0.60708 0.64829 0.0
C881 C 0.75954 0.63346 0.65354 0.0
C882 C 0.78866 0.62155 0.65035 0.0
H883 H 0.81015 0.57763 0.63372 0.0
N884 N 0.82371 0.63105 0.64852 0.0
C885 C 0.83432 0.60808 0.63834 0.0
C886 C 0.80364 0.61643 0.64725 0.0
C887 C 0.83904 0.62742 0.64354 0.0
C888 C 0.81377 0.59259 0.63778 0.0
C889 C 0.79809 0.59673 0.64201 0.0
O890 O 0.84775 0.6724 0.6347 0.0
O891 O 0.85501 0.68621 0.67514 0.0
O892 O 0.8437 0.70679 0.6869 0.0
O893 O 0.8215 0.68678 0.66509 0.0
O894 O 0.86498 0.67452 0.65622 0.0
O895 O 0.82069 0.67539 0.6378 0.0
O896 O 0.82958 0.67408 0.72648 0.0
O897 O 0.822 0.66062 0.68584 0.0
O898 O 0.83258 0.63963 0.67446 0.0
O899 O 0.85544 0.65972 0.69582 0.0
O900 O 0.81211 0.67217 0.70493 0.0
O901 O 0.85636 0.67077 0.7229 0.0
C902 C 0.8709 0.68756 0.66842 0.0
C903 C 0.82862 0.6695 0.60997 0.0
C904 C 0.83182 0.67527 0.57923 0.0
C905 C 0.83715 0.68261 0.59605 0.0
C906 C 0.81771 0.65465 0.57662 0.0
C907 C 0.81449 0.64905 0.60705 0.0
C908 C 0.80908 0.6417 0.59045 0.0
C909 C 0.83086 0.70375 0.67413 0.0
C910 C 0.83508 0.67714 0.62743 0.0
C911 C 0.77714 0.582 0.64072 0.0
C912 C 0.76192 0.58716 0.64389 0.0
C913 C 0.80615 0.65938 0.69254 0.0
C914 C 0.84906 0.67664 0.75093 0.0
C915 C 0.84179 0.66327 0.7648 0.0
C916 C 0.8478 0.67045 0.78163 0.0
C917 C 0.86112 0.69128 0.78419 0.0
C918 C 0.86251 0.69722 0.75387 0.0
C919 C 0.86846 0.70448 0.77042 0.0
C920 C 0.84553 0.64257 0.68708 0.0
C921 C 0.8422 0.6691 0.7335 0.0
H922 H 0.84819 0.6984 0.5983 0.0
H923 H 0.81312 0.64859 0.56387 0.0
H924 H 0.80773 0.63876 0.61757 0.0
H925 H 0.79817 0.62588 0.58829 0.0
H926 H 0.83162 0.64732 0.76242 0.0
H927 H 0.86569 0.69751 0.79689 0.0
H928 H 0.86831 0.7077 0.74341 0.0
H929 H 0.8787 0.72044 0.77259 0.0
Eu930 Eu 0.35657 0.16848 0.65757 0.0
C931 C 0.28706 0.14345 0.71146 0.0
C932 C 0.27684 0.16881 0.70937 0.0
C933 C 0.25174 0.13463 0.71771 0.0
C934 C 0.29189 0.16295 0.70774 0.0
C935 C 0.26706 0.12917 0.71687 0.0
C936 C 0.25662 0.15442 0.71396 0.0
C937 C 0.27932 0.10573 0.72161 0.0
N938 N 0.30226 0.13874 0.71069 0.0
C939 C 0.29894 0.12045 0.71626 0.0
C940 C 0.26323 0.11001 0.72172 0.0
Eu941 Eu 0.33478 0.16405 0.70067 0.0
N942 N 0.31161 0.17651 0.70349 0.0
C943 C 0.31768 0.19648 0.70197 0.0
C944 C 0.28271 0.18906 0.70682 0.0
C945 C 0.3033 0.203 0.70337 0.0
H946 H 0.31132 0.11706 0.71606 0.0
H947 H 0.30809 0.21877 0.70169 0.0
H948 H 0.2448 0.15857 0.71508 0.0
H949 H 0.27661 0.09109 0.72562 0.0
H950 H 0.3335 0.20741 0.69919 0.0
H951 H 0.3814 0.11248 0.6547 0.0
H952 H 0.27161 0.19415 0.70787 0.0
H953 H 0.38087 0.216 0.64345 0.0
H954 H 0.35696 0.12473 0.65891 0.0
H955 H 0.41557 0.24158 0.63358 0.0
H956 H 0.23622 0.12381 0.72167 0.0
H957 H 0.4176 0.13637 0.64709 0.0
H958 H 0.44476 0.17174 0.63977 0.0
H959 H 0.24807 0.09861 0.72593 0.0
H960 H 0.45418 0.20694 0.63433 0.0
N961 N 0.37921 0.15548 0.65442 0.0
C962 C 0.37272 0.1354 0.65574 0.0
C963 C 0.40698 0.1419 0.64909 0.0
C964 C 0.41332 0.16234 0.64704 0.0
C965 C 0.38654 0.12836 0.65333 0.0
C966 C 0.39886 0.16874 0.64975 0.0
H967 H 0.44335 0.23307 0.63182 0.0
N968 N 0.38928 0.19366 0.64784 0.0
C969 C 0.41257 0.22673 0.63721 0.0
C970 C 0.40408 0.18847 0.64641 0.0
C971 C 0.39296 0.21223 0.64275 0.0
C972 C 0.42823 0.22188 0.63629 0.0
C973 C 0.42399 0.20245 0.6406 0.0
O974 O 0.3484 0.17583 0.63296 0.0
O975 O 0.33203 0.16898 0.67311 0.0
O976 O 0.31131 0.13778 0.68497 0.0
O977 O 0.33224 0.13581 0.66396 0.0
O978 O 0.34446 0.19032 0.65424 0.0
O979 O 0.34395 0.14595 0.63725 0.0
O980 O 0.343 0.15748 0.7256 0.0
O981 O 0.35914 0.16338 0.68504 0.0
O982 O 0.38012 0.1943 0.67366 0.0
O983 O 0.35877 0.19669 0.69396 0.0
O984 O 0.3473 0.14248 0.70417 0.0
O985 O 0.34776 0.18728 0.72041 0.0
C986 C 0.3307 0.18302 0.666 0.0
C987 C 0.35163 0.15876 0.60924 0.0
C988 C 0.34709 0.1563 0.57837 0.0
C989 C 0.33938 0.15587 0.5948 0.0
C990 C 0.36734 0.15982 0.57667 0.0
C991 C 0.37173 0.16216 0.60727 0.0
C992 C 0.37953 0.16273 0.59105 0.0
C993 C 0.31469 0.12801 0.67261 0.0
C994 C 0.34326 0.15834 0.62623 0.0
C995 C 0.43876 0.1964 0.63869 0.0
C996 C 0.4334 0.17636 0.64181 0.0
C997 C 0.36072 0.14948 0.69213 0.0
C998 C 0.34006 0.17561 0.74868 0.0
C999 C 0.35275 0.18038 0.76312 0.0
C1000 C 0.34506 0.18063 0.77941 0.0
C1001 C 0.32444 0.17604 0.78097 0.0
C1002 C 0.31958 0.17111 0.75051 0.0
C1003 C 0.31183 0.17133 0.76659 0.0
C1004 C 0.37658 0.20426 0.68574 0.0
C1005 C 0.34836 0.17524 0.73183 0.0
H1006 H 0.32375 0.15297 0.59639 0.0
H1007 H 0.37382 0.1605 0.56421 0.0
H1008 H 0.38136 0.16434 0.61821 0.0
H1009 H 0.39509 0.16543 0.58962 0.0
H1010 H 0.36852 0.18363 0.76167 0.0
H1011 H 0.31813 0.17635 0.79329 0.0
H1012 H 0.30961 0.16747 0.73956 0.0
H1013 H 0.29601 0.16789 0.76791 0.0
Eu1014 Eu 0.86063 0.18047 0.69999 0.0
C1015 C 0.81403 0.19688 0.64124 0.0
C1016 C 0.779 0.16912 0.64318 0.0
C1017 C 0.78558 0.20116 0.63153 0.0
C1018 C 0.80032 0.17735 0.6461 0.0
C1019 C 0.80687 0.20886 0.6335 0.0
C1020 C 0.77167 0.18128 0.63627 0.0
C1021 C 0.8423 0.23394 0.62794 0.0
N1022 N 0.83448 0.20353 0.64266 0.0
C1023 C 0.84859 0.22133 0.63541 0.0
C1024 C 0.82134 0.22781 0.6272 0.0
Eu1025 Eu 0.84436 0.18172 0.65554 0.0
N1026 N 0.80797 0.16589 0.65239 0.0
C1027 C 0.79512 0.14577 0.65521 0.0
C1028 C 0.76577 0.14868 0.64659 0.0
C1029 C 0.77388 0.13696 0.65258 0.0
H1030 H 0.86481 0.22601 0.63588 0.0
H1031 H 0.7638 0.12107 0.65506 0.0
H1032 H 0.75533 0.17527 0.63408 0.0
H1033 H 0.85359 0.2483 0.62266 0.0
H1034 H 0.80101 0.13634 0.65971 0.0
H1035 H 0.94232 0.23819 0.70045 0.0
H1036 H 0.74934 0.14169 0.64424 0.0
H1037 H 0.83792 0.13467 0.71763 0.0
H1038 H 0.90503 0.22501 0.69724 0.0
H1039 H 0.84772 0.11076 0.72969 0.0
H1040 H 0.77976 0.21019 0.62575 0.0
H1041 H 0.95526 0.21542 0.709 0.0
H1042 H 0.94741 0.18102 0.71859 0.0
H1043 H 0.81646 0.23748 0.6212 0.0
H1044 H 0.92168 0.14638 0.72667 0.0
N1045 N 0.89675 0.19484 0.70346 0.0
C1046 C 0.91036 0.21486 0.70105 0.0
C1047 C 0.93882 0.20952 0.70763 0.0
C1048 C 0.92473 0.18929 0.71111 0.0
C1049 C 0.93157 0.22243 0.70284 0.0
C1050 C 0.90349 0.18234 0.709 0.0
H1051 H 0.88449 0.12017 0.73116 0.0
N1052 N 0.86878 0.15703 0.71209 0.0
C1053 C 0.85949 0.12532 0.72511 0.0
C1054 C 0.88906 0.16285 0.71351 0.0
C1055 C 0.854 0.13887 0.71835 0.0
C1056 C 0.88027 0.13068 0.72588 0.0
C1057 C 0.89538 0.14975 0.72028 0.0
O1058 O 0.84453 0.1739 0.72439 0.0
O1059 O 0.83586 0.17885 0.68301 0.0
O1060 O 0.84919 0.2104 0.66828 0.0
O1061 O 0.86858 0.21228 0.69245 0.0
O1062 O 0.82629 0.1582 0.70248 0.0
O1063 O 0.86996 0.20389 0.71939 0.0
O1064 O 0.86007 0.188 0.63097 0.0
O1065 O 0.86925 0.18413 0.67259 0.0
O1066 O 0.85899 0.15391 0.68618 0.0
O1067 O 0.83684 0.15002 0.66374 0.0
O1068 O 0.87865 0.20405 0.65261 0.0
O1069 O 0.83641 0.15761 0.63698 0.0
C1070 C 0.82009 0.16494 0.69012 0.0
C1071 C 0.86483 0.19265 0.74788 0.0
C1072 C 0.86242 0.19602 0.77861 0.0
C1073 C 0.85459 0.19474 0.76204 0.0
C1074 C 0.88047 0.19487 0.78079 0.0
C1075 C 0.88282 0.19159 0.75036 0.0
C1076 C 0.89053 0.19262 0.76674 0.0
C1077 C 0.86082 0.22009 0.68165 0.0
C1078 C 0.85675 0.19183 0.73062 0.0
C1079 C 0.91651 0.15629 0.72167 0.0
C1080 C 0.93116 0.17602 0.71707 0.0
C1081 C 0.88497 0.19794 0.66534 0.0
C1082 C 0.8403 0.16722 0.60812 0.0
C1083 C 0.84916 0.16237 0.59445 0.0
C1084 C 0.841 0.16001 0.57785 0.0
C1085 C 0.82394 0.16274 0.57521 0.0
C1086 C 0.82323 0.16968 0.60516 0.0
C1087 C 0.81514 0.16751 0.58879 0.0
C1088 C 0.84659 0.14332 0.67353 0.0
C1089 C 0.84892 0.16958 0.62538 0.0
H1090 H 0.8408 0.19578 0.76012 0.0
H1091 H 0.88672 0.19555 0.79338 0.0
H1092 H 0.89098 0.19009 0.73967 0.0
H1093 H 0.90441 0.19175 0.76854 0.0
H1094 H 0.86218 0.16019 0.59682 0.0
H1095 H 0.81753 0.16145 0.56259 0.0
H1096 H 0.81612 0.17325 0.61549 0.0
H1097 H 0.80203 0.16956 0.58661 0.0
H1098 H 0.31728 0.83714 0.08805 0.0
H1099 H 0.34807 0.86704 0.07759 0.0
H1100 H 0.31912 0.85914 0.02839 0.0
H1101 H 0.28862 0.8285 0.03868 0.0
H1102 H 0.35745 0.86942 0.02408 0.0
H1103 H 0.35611 0.92179 0.07179 0.0
H1104 H 0.3575 0.90164 0.08205 0.0
H1105 H 0.33512 0.89628 0.06945 0.0
C1106 C 0.31748 0.84188 0.07503 0.0
C1107 C 0.30053 0.83069 0.06421 0.0
C1108 C 0.33503 0.85905 0.06908 0.0
C1109 C 0.33578 0.86579 0.05232 0.0
C1110 C 0.31891 0.8544 0.04141 0.0
H1111 H 0.43392 0.98798 0.02936 0.0
H1112 H 0.40007 0.95779 0.03285 0.0
C1113 C 0.30149 0.83694 0.04727 0.0
C1114 C 0.35432 0.88442 0.04616 0.0
H1115 H 0.38787 0.93344 0.05681 0.0
C1116 C 0.36397 0.8835 0.03113 0.0
C1117 C 0.36266 0.903 0.05507 0.0
C1118 C 0.35215 0.9058 0.07037 0.0
C1119 C 0.38199 0.90038 0.02508 0.0
C1120 C 0.39115 0.91857 0.03466 0.0
C1121 C 0.38114 0.91957 0.04945 0.0
C1122 C 0.41119 0.93667 0.02995 0.0
C1123 C 0.39064 0.89855 0.00829 0.0
C1124 C 0.4288 0.93505 0.02672 0.0
C1125 C 0.44802 0.95232 0.02416 0.0
C1126 C 0.45013 0.97159 0.02518 0.0
C1127 C 0.43261 0.97326 0.0283 0.0
C1128 C 0.4133 0.956 0.03038 0.0
H1129 H 0.37836 0.88711 0.99992 0.0
H1130 H 0.39828 0.91314 1.0015 0.0
H1131 H 0.40208 0.89362 0.01056 0.0
H1132 H 0.42795 0.92053 0.02694 0.0
H1133 H 0.46138 0.9506 0.02229 0.0
H1134 H 0.16297 0.43288 0.06331 0.0
H1135 H 0.13273 0.43492 0.05437 0.0
H1136 H 0.17138 0.49847 0.04477 0.0
H1137 H 0.20168 0.49664 0.05386 0.0
H1138 H 0.11802 0.45814 0.06923 0.0
H1139 H 0.13655 0.47905 1.00137 0.0
H1140 H 0.1497 0.46916 0.01394 0.0
H1141 H 0.1566 0.49519 0.01596 0.0
C1142 C 0.1651 0.4473 0.05924 0.0
C1143 C 0.18487 0.46459 0.05933 0.0
C1144 C 0.14776 0.44842 0.05406 0.0
C1145 C 0.14973 0.46679 0.04868 0.0
C1146 C 0.16946 0.48401 0.04848 0.0
H1147 H 0.06396 0.50824 0.02262 0.0
H1148 H 0.09423 0.50471 0.02801 0.0
C1149 C 0.18682 0.48292 0.05368 0.0
C1150 C 0.13102 0.46814 0.04433 0.0
H1151 H 0.10827 0.48113 0.01277 0.0
C1152 C 0.11582 0.46301 0.05684 0.0
C1153 C 0.12817 0.47463 0.0282 0.0
C1154 C 0.14351 0.47966 0.01403 0.0
C1155 C 0.09813 0.46457 0.0538 0.0
C1156 C 0.09523 0.471 0.03765 0.0
C1157 C 0.11042 0.47612 0.02512 0.0
C1158 C 0.07673 0.47283 0.03365 0.0
C1159 C 0.08301 0.45988 0.06812 0.0
C1160 C 0.05674 0.45604 0.03473 0.0
C1161 C 0.03939 0.45803 0.03161 0.0
C1162 C 0.04169 0.47675 0.02697 0.0
C1163 C 0.06169 0.49351 0.02578 0.0
C1164 C 0.07902 0.49153 0.02894 0.0
H1165 H 0.0901 0.46054 0.08073 0.0
H1166 H 0.07704 0.47056 0.06823 0.0
H1167 H 0.06976 0.4444 0.06636 0.0
H1168 H 0.05454 0.44137 0.03805 0.0
H1169 H 0.02416 0.44493 0.03278 0.0
H1170 H 0.54593 0.7268 0.03872 0.0
H1171 H 0.54336 0.69549 0.02793 0.0
H1172 H 0.54632 0.67739 0.0793 0.0
H1173 H 0.54858 0.70841 0.0902 0.0
H1174 H 0.57124 0.67898 0.03403 0.0
H1175 H 0.49153 0.6307 0.05812 0.0
H1176 H 0.50294 0.65761 0.05544 0.0
H1177 H 0.50992 0.6478 0.07342 0.0
C1178 C 0.54604 0.71614 0.0477 0.0
C1179 C 0.54742 0.72005 0.06531 0.0
C1180 C 0.54468 0.69835 0.04152 0.0
C1181 C 0.54446 0.6841 0.05285 0.0
C1182 C 0.5463 0.68816 0.07038 0.0
H1183 H 0.55565 0.57801 0.03701 0.0
H1184 H 0.56106 0.61135 0.04452 0.0
C1185 C 0.54777 0.70595 0.07656 0.0
C1186 C 0.54172 0.66471 0.04643 0.0
H1187 H 0.50833 0.61394 0.04697 0.0
C1188 C 0.55749 0.66475 0.03678 0.0
C1189 C 0.52364 0.64624 0.04991 0.0
C1190 C 0.50592 0.64546 0.05967 0.0
C1191 C 0.55582 0.64665 0.03084 0.0
C1192 C 0.53799 0.62813 0.03476 0.0
C1193 C 0.52204 0.62817 0.04408 0.0
C1194 C 0.5355 0.60846 0.02941 0.0
C1195 C 0.57303 0.64747 0.02029 0.0
C1196 C 0.5192 0.5957 0.01858 0.0
C1197 C 0.51599 0.57661 0.01431 0.0
C1198 C 0.52898 0.56985 0.02089 0.0
C1199 C 0.5454 0.58274 0.03167 0.0
C1200 C 0.54861 0.60187 0.03589 0.0
H1201 H 0.58318 0.66278 0.01504 0.0
H1202 H 0.58261 0.64348 0.0284 0.0
H1203 H 0.56678 0.63649 0.0096 0.0
H1204 H 0.50881 0.60044 0.01356 0.0
H1205 H 0.50304 0.567 0.00618 0.0
H1206 H 0.82406 0.2784 0.98801 0.0
H1207 H 0.85323 0.31084 0.99724 0.0
H1208 H 0.86696 0.3294 0.94488 0.0
H1209 H 0.83769 0.29732 0.93559 0.0
H1210 H 0.89632 0.3294 0.9883 0.0
H1211 H 0.86099 0.37489 0.96808 0.0
H1212 H 0.84618 0.34785 0.97057 0.0
H1213 H 0.86159 0.35857 0.95188 0.0
C1214 C 0.83325 0.28943 0.97848 0.0
C1215 C 0.82851 0.28526 0.96106 0.0
C1216 C 0.84996 0.3079 0.98376 0.0
C1217 C 0.86211 0.3226 0.97175 0.0
C1218 C 0.85764 0.31836 0.95437 0.0
H1219 H 0.98158 0.43166 0.98408 0.0
H1220 H 0.95323 0.39807 0.9765 0.0
C1221 C 0.84102 0.29992 0.94908 0.0
C1222 C 0.87934 0.34248 0.97733 0.0
H1223 H 0.89608 0.39296 0.97664 0.0
C1224 C 0.89627 0.34331 0.98581 0.0
C1225 C 0.87912 0.36057 0.97422 0.0
C1226 C 0.86094 0.36052 0.96583 0.0
C1227 C 0.9132 0.36182 0.99098 0.0
C1228 C 0.91324 0.37995 0.98742 0.0
C1229 C 0.89612 0.37906 0.97922 0.0
C1230 C 0.93069 0.40003 0.99236 0.0
C1231 C 0.93077 0.3618 1.00043 0.0
C1232 C 0.92736 0.41245 0.00352 0.0
C1233 C 0.94346 0.43166 0.00779 0.0
C1234 C 0.96328 0.43893 1.00095 0.0
C1235 C 0.96656 0.4265 0.98967 0.0
C1236 C 0.95041 0.40723 0.98542 0.0
H1237 H 0.92621 0.34671 0.00573 0.0
H1238 H 0.94377 0.366 0.99153 0.0
H1239 H 0.93635 0.37299 0.01099 0.0
H1240 H 0.91222 0.40729 0.0089 0.0
H1241 H 0.94022 0.44095 0.01619 0.0
H1242 H 0.73022 0.54006 0.98991 0.0
H1243 H 0.69745 0.53655 0.99959 0.0
H1244 H 0.67966 0.53737 0.9475 0.0
H1245 H 0.71184 0.5401 0.93772 0.0
H1246 H 0.68075 0.5612 0.99532 0.0
H1247 H 0.62991 0.48694 0.96533 0.0
H1248 H 0.65739 0.49729 0.96744 0.0
H1249 H 0.64707 0.50529 0.95037 0.0
C1250 C 0.71925 0.53928 0.9805 0.0
C1251 C 0.72378 0.54035 0.963 0.0
C1252 C 0.70055 0.5374 0.98607 0.0
C1253 C 0.68587 0.53635 0.97429 0.0
C1254 C 0.69049 0.53772 0.95686 0.0
H1255 H 0.58469 0.55948 0.9889 0.0
H1256 H 0.6181 0.56168 0.98448 0.0
C1257 C 0.70911 0.53959 0.95129 0.0
C1258 C 0.66586 0.53414 0.98011 0.0
H1259 H 0.61365 0.50523 0.97486 0.0
C1260 C 0.66607 0.54885 0.99097 0.0
C1261 C 0.64662 0.51787 0.97472 0.0
C1262 C 0.64517 0.50083 0.96397 0.0
C1263 C 0.64768 0.54814 0.99607 0.0
C1264 C 0.62846 0.53245 0.98991 0.0
C1265 C 0.62828 0.51737 0.97952 0.0
C1266 C 0.60842 0.53158 0.99362 0.0
C1267 C 0.64917 0.56422 0.0081 0.0
C1268 C 0.5915 0.51376 0.9998 0.0
C1269 C 0.57225 0.51239 1.00201 0.0
C1270 C 0.56956 0.52891 0.9984 0.0
C1271 C 0.58644 0.54668 0.9922 0.0
C1272 C 0.60562 0.54799 0.9898 0.0
H1273 H 0.66313 0.57011 0.0163 0.0
H1274 H 0.65042 0.57704 1.00058 0.0
H1275 H 0.63543 0.55849 0.01638 0.0
H1276 H 0.59308 0.50078 1.00268 0.0
H1277 H 0.55941 0.49825 0.00624 0.0
H1278 H 0.47926 0.19433 0.98516 0.0
H1279 H 0.48114 0.16538 0.99634 0.0
H1280 H 0.48216 0.14555 0.94511 0.0
H1281 H 0.48058 0.17453 0.93385 0.0
H1282 H 0.45375 0.12207 0.98924 0.0
H1283 H 0.53494 0.15135 0.96918 0.0
H1284 H 0.52356 0.16725 0.97098 0.0
H1285 H 0.5178 0.15088 0.95288 0.0
C1286 C 0.47991 0.1838 0.9763 0.0
C1287 C 0.47984 0.18673 0.95863 0.0
C1288 C 0.48087 0.16725 0.98269 0.0
C1289 C 0.482 0.1535 0.97153 0.0
C1290 C 0.4815 0.15613 0.95391 0.0
H1291 H 0.46781 0.03558 0.98732 0.0
H1292 H 0.46362 0.06423 0.97955 0.0
C1293 C 0.48042 0.17259 0.94751 0.0
C1294 C 0.4841 0.13658 0.97826 0.0
H1295 H 0.51701 0.11788 0.9796 0.0
C1296 C 0.46759 0.12114 0.98721 0.0
C1297 C 0.50228 0.13561 0.97575 0.0
C1298 C 0.52076 0.15221 0.9668 0.0
C1299 C 0.4686 0.10444 0.99338 0.0
C1300 C 0.48654 0.10316 0.99037 0.0
C1301 C 0.50323 0.11886 0.98178 0.0
C1302 C 0.48829 0.08558 0.99584 0.0
C1303 C 0.45058 0.08838 1.00315 0.0
C1304 C 0.50372 0.08815 0.00741 0.0
C1305 C 0.50623 0.07183 0.01184 0.0
C1306 C 0.49342 0.05264 0.00468 0.0
C1307 C 0.47789 0.05011 0.99313 0.0
C1308 C 0.47537 0.06644 0.98875 0.0
H1309 H 0.44032 0.0939 0.00793 0.0
H1310 H 0.44135 0.07529 0.99463 0.0
H1311 H 0.45595 0.08306 0.01411 0.0
H1312 H 0.51396 0.10285 0.01291 0.0
H1313 H 0.51853 0.07441 0.02058 0.0
H1314 H 0.7045 0.17652 0.95373 0.0
H1315 H 0.67547 0.14225 0.9584 0.0
H1316 H 0.6708 0.15788 0.01032 0.0
H1317 H 0.69972 0.19197 0.00577 0.0
H1318 H 0.66654 0.11758 0.00476 0.0
H1319 H 0.61552 0.13377 0.96411 0.0
H1320 H 0.63962 0.1386 0.95506 0.0
H1321 H 0.63961 0.15353 0.9727 0.0
C1322 C 0.69752 0.17249 0.96621 0.0
C1323 C 0.70423 0.18695 0.97934 0.0
C1324 C 0.68088 0.15299 0.96884 0.0
C1325 C 0.67085 0.14764 0.98465 0.0
C1326 C 0.67827 0.16172 0.99801 0.0
H1327 H 0.54606 0.05761 0.00907 0.0
H1328 H 0.57955 0.08813 0.00584 0.0
C1329 C 0.69473 0.1812 0.99537 0.0
C1330 C 0.65182 0.1279 0.98711 0.0
H1331 H 0.60068 0.10172 0.97664 0.0
C1332 C 0.65213 0.11401 0.99856 0.0
C1333 C 0.63304 0.12343 0.97915 0.0
C1334 C 0.63172 0.13811 0.96714 0.0
C1335 C 0.63412 0.09574 1.00229 0.0
C1336 C 0.61529 0.09125 0.99432 0.0
C1337 C 0.61507 0.10515 0.98279 0.0
C1338 C 0.59549 0.07245 0.99785 0.0
C1339 C 0.63542 0.08167 0.01499 0.0
C1340 C 0.59324 0.05339 0.99461 0.0
C1341 C 0.57412 0.03587 0.99676 0.0
C1342 C 0.55689 0.03706 1.00219 0.0
C1343 C 0.55915 0.05613 0.00541 0.0
C1344 C 0.57828 0.07362 0.00338 0.0
H1345 H 0.64881 0.08983 0.02373 0.0
H1346 H 0.6212 0.0738 0.02269 0.0
H1347 H 0.63741 0.07012 0.00804 0.0
H1348 H 0.60611 0.05207 0.98993 0.0
H1349 H 0.57267 0.02137 0.99384 0.0
H1350 H 0.81828 0.4853 0.95841 0.0
H1351 H 0.85273 0.49012 0.96335 0.0
H1352 H 0.86928 0.54415 0.99217 0.0
H1353 H 0.83457 0.53934 0.98725 0.0
H1354 H 0.89301 0.52385 0.95591 0.0
H1355 H 0.87998 0.50723 0.02516 0.0
H1356 H 0.85905 0.50073 0.01036 0.0
H1357 H 0.87512 0.52643 0.01702 0.0
C1358 C 0.82931 0.49833 0.96567 0.0
C1359 C 0.82367 0.51189 0.97252 0.0
C1360 C 0.84901 0.50107 0.96848 0.0
C1361 C 0.86351 0.51731 0.97835 0.0
C1362 C 0.85824 0.53135 0.9847 0.0
H1363 H 0.99288 0.54772 0.98915 0.0
H1364 H 0.96136 0.54956 0.98471 0.0
C1365 C 0.8385 0.52871 0.98175 0.0
C1366 C 0.88384 0.51903 0.98219 0.0
H1367 H 0.91208 0.51404 0.0142 0.0
C1368 C 0.89729 0.52193 0.96868 0.0
C1369 C 0.88927 0.51618 0.99882 0.0
C1370 C 0.87511 0.51232 0.01372 0.0
C1371 C 0.91593 0.52199 0.97133 0.0
C1372 C 0.92137 0.51919 0.98796 0.0
C1373 C 0.90797 0.51634 1.00149 0.0
C1374 C 0.94056 0.51843 0.99139 0.0
C1375 C 0.92937 0.52443 0.95622 0.0
C1376 C 0.93939 0.50044 0.9969 0.0
C1377 C 0.95736 0.49939 0.99944 0.0
C1378 C 0.97688 0.51644 0.99688 0.0
C1379 C 0.97803 0.53443 0.99141 0.0
C1380 C 0.96006 0.53547 0.98882 0.0
H1381 H 0.92109 0.52235 0.94395 0.0
H1382 H 0.94304 0.53982 0.9564 0.0
H1383 H 0.93495 0.51345 0.95679 0.0
H1384 H 0.92453 0.48708 0.99892 0.0
H1385 H 0.95597 0.48517 1.00324 0.0
H1386 H 0.54375 0.33626 0.95947 0.0
H1387 H 0.53662 0.36344 0.96563 0.0
H1388 H 0.47633 0.32015 0.9842 0.0
H1389 H 0.4837 0.29285 0.97877 0.0
H1390 H 0.5067 0.37133 0.95443 0.0
H1391 H 0.50105 0.35868 0.02437 0.0
H1392 H 0.51074 0.34677 0.01022 0.0
H1393 H 0.48348 0.33732 0.01173 0.0
C1394 C 0.52901 0.33249 0.96499 0.0
C1395 C 0.51443 0.31239 0.96887 0.0
C1396 C 0.52489 0.34804 0.96835 0.0
C1397 C 0.50608 0.34387 0.97564 0.0
C1398 C 0.4911 0.32375 0.97888 0.0
H1399 H 0.47952 0.44352 0.98663 0.0
H1400 H 0.47576 0.4108 0.9789 0.0
C1401 C 0.49526 0.30815 0.97559 0.0
C1402 C 0.50268 0.36078 0.98027 0.0
H1403 H 0.49664 0.38519 0.0143 0.0
C1404 C 0.50429 0.37428 0.96749 0.0
C1405 C 0.49976 0.36468 0.99736 0.0
C1406 C 0.49882 0.35123 0.01176 0.0
C1407 C 0.50361 0.39186 0.97138 0.0
C1408 C 0.50081 0.39581 0.98848 0.0
C1409 C 0.49863 0.38203 1.00119 0.0
C1410 C 0.50207 0.41503 0.9937 0.0
C1411 C 0.5069 0.40651 0.95727 0.0
C1412 C 0.51769 0.42796 0.00499 0.0
C1413 C 0.51978 0.44651 0.00953 0.0
C1414 C 0.50622 0.45254 1.00292 0.0
C1415 C 0.49029 0.43938 0.99188 0.0
C1416 C 0.48817 0.42072 0.98738 0.0
H1417 H 0.51315 0.40332 0.9456 0.0
H1418 H 0.49194 0.40537 0.95393 0.0
H1419 H 0.51767 0.42226 0.9614 0.0
H1420 H 0.5286 0.42388 0.01002 0.0
H1421 H 0.53235 0.4563 0.01792 0.0
H1422 H 0.21264 0.68182 0.0634 0.0
H1423 H 0.1782 0.653 0.05875 0.0
H1424 H 0.15756 0.69267 0.0395 0.0
H1425 H 0.19234 0.7217 0.04373 0.0
H1426 H 0.13916 0.64328 0.0705 0.0
H1427 H 0.14495 0.65262 1.00014 0.0
H1428 H 0.16698 0.66589 0.01405 0.0
H1429 H 0.14835 0.67405 0.01223 0.0
C1430 C 0.20078 0.68445 0.05819 0.0
C1431 C 0.20532 0.70402 0.05368 0.0
C1432 C 0.18105 0.66796 0.05565 0.0
C1433 C 0.16538 0.67061 0.04851 0.0
C1434 C 0.16952 0.69024 0.04475 0.0
H1435 H 0.03964 0.56555 0.03812 0.0
H1436 H 0.06818 0.59909 0.04565 0.0
C1437 C 0.18934 0.70682 0.04733 0.0
C1438 C 0.14516 0.65259 0.04433 0.0
H1439 H 0.11498 0.62484 0.01084 0.0
C1440 C 0.13371 0.63935 0.05749 0.0
C1441 C 0.13823 0.64738 0.0273 0.0
C1442 C 0.15028 0.66059 0.01256 0.0
C1443 C 0.11578 0.62083 0.05405 0.0
C1444 C 0.10899 0.61554 0.03701 0.0
C1445 C 0.12016 0.629 0.0239 0.0
C1446 C 0.09139 0.59542 0.03235 0.0
C1447 C 0.10479 0.60668 0.0686 0.0
C1448 C 0.09487 0.58235 0.02215 0.0
C1449 C 0.07864 0.56326 0.01781 0.0
C1450 C 0.05846 0.55683 0.02341 0.0
C1451 C 0.05496 0.56999 0.03358 0.0
C1452 C 0.07127 0.58915 0.03795 0.0
H1453 H 0.11421 0.61129 0.08045 0.0
H1454 H 0.0902 0.60661 0.07124 0.0
H1455 H 0.10086 0.59105 0.06527 0.0
H1456 H 0.11026 0.58684 0.01773 0.0
H1457 H 0.08205 0.55347 0.01023 0.0
H1458 H 0.33586 0.52118 0.06582 0.0
H1459 H 0.36572 0.51704 0.06053 0.0
H1460 H 0.32747 0.46307 0.03146 0.0
H1461 H 0.29736 0.46722 0.03671 0.0
H1462 H 0.37287 0.4844 0.06749 0.0
H1463 H 0.3748 0.50026 0.99823 0.0
H1464 H 0.36025 0.50614 0.01318 0.0
H1465 H 0.35075 0.48055 0.0065 0.0
C1466 C 0.33374 0.50829 0.05845 0.0
C1467 C 0.31426 0.49457 0.05161 0.0
C1468 C 0.35084 0.50595 0.05543 0.0
C1469 C 0.34897 0.48995 0.04535 0.0
C1470 C 0.32937 0.47571 0.03906 0.0
H1471 H 0.44857 0.46168 0.03434 0.0
H1472 H 0.41497 0.45936 0.03853 0.0
C1473 C 0.31213 0.47795 0.04221 0.0
C1474 C 0.36775 0.48869 0.04126 0.0
H1475 H 0.40051 0.49392 0.00881 0.0
C1476 C 0.3788 0.48628 0.05464 0.0
C1477 C 0.3757 0.49149 0.02451 0.0
C1478 C 0.36492 0.49491 0.00974 0.0
C1479 C 0.39752 0.48661 0.05176 0.0
C1480 C 0.4054 0.48928 0.03501 0.0
C1481 C 0.39438 0.4917 0.02161 0.0
C1482 C 0.4254 0.49023 0.03133 0.0
C1483 C 0.40905 0.4847 0.06676 0.0
C1484 C 0.44235 0.5082 0.0255 0.0
C1485 C 0.46156 0.50954 0.02309 0.0
C1486 C 0.46406 0.49279 0.02612 0.0
C1487 C 0.44701 0.47475 0.03173 0.0
C1488 C 0.42784 0.47343 0.03418 0.0
H1489 H 0.40325 0.48704 0.07907 0.0
H1490 H 0.40712 0.46935 0.06681 0.0
H1491 H 0.42579 0.49575 0.06584 0.0
H1492 H 0.44087 0.52138 0.02324 0.0
H1493 H 0.47451 0.52379 0.0192 0.0
H1494 H 0.48991 0.79996 0.03189 0.0
H1495 H 0.49445 0.8334 0.02686 0.0
H1496 H 0.53397 0.85641 0.07098 0.0
H1497 H 0.52918 0.82275 0.07638 0.0
H1498 H 0.48395 0.85484 0.05321 0.0
H1499 H 0.56525 0.89749 0.03072 0.0
H1500 H 0.55 0.87034 0.02909 0.0
H1501 H 0.55962 0.88204 0.04942 0.0
C1502 C 0.49958 0.81209 0.04056 0.0
C1503 C 0.50901 0.80861 0.05465 0.0
C1504 C 0.50225 0.83122 0.03759 0.0
C1505 C 0.51458 0.84733 0.04851 0.0
C1506 C 0.52458 0.84417 0.0623 0.0
H1507 H 0.53628 0.9711 0.04277 0.0
H1508 H 0.53832 0.94127 0.05102 0.0
C1509 C 0.52185 0.82495 0.06534 0.0
C1510 C 0.51567 0.86699 0.04599 0.0
H1511 H 0.54686 0.91505 0.03189 0.0
C1512 C 0.49773 0.86806 0.04865 0.0
C1513 C 0.53374 0.8842 0.04022 0.0
C1514 C 0.5533 0.88362 0.03709 0.0
C1515 C 0.49723 0.88581 0.04539 0.0
C1516 C 0.51502 0.90279 0.03889 0.0
C1517 C 0.53321 0.90196 0.03677 0.0
C1518 C 0.5146 0.92111 0.03345 0.0
C1519 C 0.47762 0.88619 0.04896 0.0
C1520 C 0.50092 0.91973 0.02059 0.0
C1521 C 0.4996 0.93662 0.01594 0.0
C1522 C 0.51218 0.9554 0.02386 0.0
C1523 C 0.52633 0.95689 0.03642 0.0
C1524 C 0.52757 0.93988 0.04114 0.0
H1525 H 0.46794 0.87465 0.05851 0.0
H1526 H 0.48099 0.90123 0.05367 0.0
H1527 H 0.46849 0.8828 0.03702 0.0
H1528 H 0.49104 0.90548 0.01426 0.0
H1529 H 0.48838 0.93479 0.00635 0.0
H1530 H 0.9554 0.16562 0.37099 0.0
H1531 H 0.98614 0.19635 0.36125 0.0
H1532 H 0.01765 0.19817 0.4079 0.0
H1533 H 0.98666 0.16817 0.41794 0.0
H1534 H 0.02436 0.23371 0.40136 0.0
H1535 H 0.03823 0.20362 0.34171 0.0
H1536 H 0.01329 0.20152 0.34214 0.0
H1537 H 0.01947 0.18758 0.35718 0.0
C1538 C 0.96896 0.17263 0.37909 0.0
C1539 C 0.96871 0.16462 0.39521 0.0
C1540 C 0.98659 0.19007 0.37346 0.0
C1541 C 1.00445 0.19945 0.38367 0.0
C1542 C 1.00413 0.19128 0.39975 0.0
H1543 H 0.12934 0.28625 0.35552 0.0
H1544 H 0.09586 0.25613 0.36021 0.0
C1545 C 0.98643 0.17415 0.4055 0.0
C1546 C 0.02326 0.21822 0.37811 0.0
H1547 H 0.05878 0.23897 0.34622 0.0
C1548 C 0.03188 0.23479 0.38931 0.0
C1549 C 0.03327 0.21966 0.36244 0.0
C1550 C 0.02572 0.20208 0.35026 0.0
C1551 C 0.05028 0.25255 0.38549 0.0
C1552 C 0.05994 0.25425 0.36961 0.0
C1553 C 0.05124 0.23778 0.35829 0.0
C1554 C 0.07971 0.27253 0.36501 0.0
C1555 C 0.05955 0.26894 0.39888 0.0
C1556 C 0.08173 0.29179 0.36559 0.0
C1557 C 0.10096 0.30904 0.36317 0.0
C1558 C 0.11832 0.3073 0.3594 0.0
C1559 C 0.11614 0.28803 0.35804 0.0
C1560 C 0.09699 0.2708 0.36078 0.0
H1561 H 0.05368 0.26297 0.4118 0.0
H1562 H 0.07662 0.27625 0.39913 0.0
H1563 H 0.05529 0.28059 0.39605 0.0
H1564 H 0.06854 0.29353 0.36833 0.0
H1565 H 0.10233 0.32376 0.36434 0.0
H1566 H 0.82804 0.76789 0.4006 0.0
H1567 H 0.7977 0.76956 0.39133 0.0
H1568 H 0.83658 0.83199 0.37782 0.0
H1569 H 0.86699 0.83046 0.38709 0.0
H1570 H 0.78359 0.79357 0.40428 0.0
H1571 H 0.80057 0.80994 0.33564 0.0
H1572 H 0.81423 0.80119 0.34889 0.0
H1573 H 0.82097 0.82727 0.34941 0.0
C1574 C 0.83017 0.78197 0.39559 0.0
C1575 C 0.85003 0.79903 0.39458 0.0
C1576 C 0.81279 0.78288 0.39023 0.0
C1577 C 0.81481 0.80082 0.38364 0.0
C1578 C 0.83461 0.81782 0.38244 0.0
H1579 H 0.72905 0.84181 0.35674 0.0
H1580 H 0.75938 0.83834 0.36208 0.0
C1581 C 0.85202 0.81692 0.38777 0.0
C1582 C 0.7961 0.80203 0.37905 0.0
H1583 H 0.77287 0.81335 0.34673 0.0
C1584 C 0.78118 0.79773 0.39165 0.0
C1585 C 0.79296 0.80758 0.36259 0.0
C1586 C 0.80792 0.81158 0.3483 0.0
C1587 C 0.76349 0.79917 0.38837 0.0
C1588 C 0.76036 0.80473 0.37193 0.0
C1589 C 0.77524 0.80904 0.35931 0.0
C1590 C 0.7419 0.80647 0.36774 0.0
C1591 C 0.74856 0.79526 0.40269 0.0
C1592 C 0.72195 0.78964 0.36883 0.0
C1593 C 0.70459 0.79158 0.36569 0.0
C1594 C 0.70686 0.81029 0.36107 0.0
C1595 C 0.72682 0.82709 0.35985 0.0
C1596 C 0.74417 0.82515 0.36299 0.0
H1597 H 0.75562 0.79611 0.41534 0.0
H1598 H 0.74298 0.80626 0.40246 0.0
H1599 H 0.73501 0.77991 0.40119 0.0
H1600 H 0.7198 0.77502 0.37226 0.0
H1601 H 0.68937 0.77847 0.36689 0.0
H1602 H 0.20743 0.0604 0.37311 0.0
H1603 H 0.2048 0.02953 0.36112 0.0
H1604 H 0.20552 0.00829 0.41175 0.0
H1605 H 0.20781 0.03882 0.42382 0.0
H1606 H 0.23217 0.0126 0.36668 0.0
H1607 H 0.15175 0.96294 0.38856 0.0
H1608 H 0.16326 0.98999 0.38705 0.0
H1609 H 0.16943 0.97904 0.4047 0.0
C1610 C 0.20699 0.04912 0.38166 0.0
C1611 C 0.20779 0.05201 0.39941 0.0
C1612 C 0.2056 0.03158 0.3748 0.0
C1613 C 0.20476 0.01661 0.38558 0.0
C1614 C 0.20595 0.01962 0.40325 0.0
H1615 H 0.21896 0.91294 0.3691 0.0
H1616 H 0.22339 0.94597 0.37626 0.0
C1617 C 0.20744 0.03714 0.41011 0.0
C1618 C 0.20227 0.99761 0.37846 0.0
H1619 H 0.16941 0.94675 0.37779 0.0
C1620 C 0.21842 0.99819 0.36899 0.0
C1621 C 0.18419 0.97892 0.38134 0.0
C1622 C 0.16606 0.97758 0.39084 0.0
C1623 C 0.2172 0.9804 0.36274 0.0
C1624 C 0.19944 0.96164 0.36622 0.0
C1625 C 0.18306 0.96116 0.37525 0.0
C1626 C 0.19763 0.94223 0.36094 0.0
C1627 C 0.23485 0.98183 0.35245 0.0
C1628 C 0.18151 0.92907 0.35014 0.0
C1629 C 0.17883 0.91012 0.3461 0.0
C1630 C 0.19219 0.90393 0.35288 0.0
C1631 C 0.20844 0.91723 0.3636 0.0
C1632 C 0.2111 0.9362 0.36761 0.0
H1633 H 0.24462 0.99719 0.34718 0.0
H1634 H 0.24469 0.97838 0.36076 0.0
H1635 H 0.22911 0.97077 0.34178 0.0
H1636 H 0.17083 0.93338 0.34498 0.0
H1637 H 0.16599 0.90019 0.33799 0.0
H1638 H 0.50237 0.6341 0.26827 0.0
H1639 H 0.53166 0.6656 0.27845 0.0
H1640 H 0.51676 0.64499 0.33025 0.0
H1641 H 0.48755 0.61308 0.32011 0.0
H1642 H 0.53028 0.69372 0.30075 0.0
H1643 H 0.57902 0.66389 0.32645 0.0
H1644 H 0.55781 0.64963 0.31194 0.0
H1645 H 0.5529 0.65171 0.334 0.0
C1646 C 0.50549 0.63609 0.28183 0.0
C1647 C 0.49272 0.62097 0.29338 0.0
C1648 C 0.52216 0.65417 0.28762 0.0
C1649 C 0.52655 0.65754 0.30508 0.0
C1650 C 0.51385 0.64256 0.3167 0.0
H1651 H 0.60517 0.77482 0.35185 0.0
H1652 H 0.57679 0.74156 0.34408 0.0
C1653 C 0.49706 0.62442 0.3109 0.0
C1654 C 0.544 0.67709 0.31101 0.0
H1655 H 0.59089 0.6986 0.331 0.0
C1656 C 0.54352 0.69479 0.3074 0.0
C1657 C 0.56135 0.67844 0.3195 0.0
C1658 C 0.563 0.65996 0.32312 0.0
C1659 C 0.55985 0.71383 0.31214 0.0
C1660 C 0.57703 0.71517 0.32089 0.0
C1661 C 0.57762 0.69749 0.32439 0.0
C1662 C 0.59462 0.73489 0.3263 0.0
C1663 C 0.55876 0.73238 0.30744 0.0
C1664 C 0.61424 0.74198 0.31922 0.0
C1665 C 0.63062 0.76099 0.32375 0.0
C1666 C 0.62771 0.77317 0.33558 0.0
C1667 C 0.60808 0.7658 0.34287 0.0
C1668 C 0.59175 0.74684 0.33832 0.0
H1669 H 0.54698 0.72913 0.29742 0.0
H1670 H 0.55455 0.73807 0.31887 0.0
H1671 H 0.57393 0.74453 0.30286 0.0
H1672 H 0.61677 0.73295 0.30994 0.0
H1673 H 0.64552 0.76616 0.31792 0.0
H1674 H 0.39905 0.90567 0.29405 0.0
H1675 H 0.36708 0.90417 0.30317 0.0
H1676 H 0.34162 0.84154 0.3162 0.0
H1677 H 0.37338 0.84279 0.30689 0.0
H1678 H 0.32799 0.87901 0.28926 0.0
H1679 H 0.32835 0.86462 0.35844 0.0
H1680 H 0.35115 0.87389 0.34544 0.0
H1681 H 0.33186 0.84762 0.34491 0.0
C1682 C 0.38669 0.89157 0.29889 0.0
C1683 C 0.38888 0.87435 0.29969 0.0
C1684 C 0.36844 0.89077 0.3042 0.0
C1685 C 0.352 0.87281 0.31058 0.0
C1686 C 0.35423 0.85569 0.3117 0.0
H1687 H 0.22448 0.83329 0.33719 0.0
H1688 H 0.25836 0.83637 0.33294 0.0
C1689 C 0.37246 0.85645 0.30635 0.0
C1690 C 0.33204 0.87164 0.31487 0.0
H1691 H 0.29746 0.86155 0.34701 0.0
C1692 C 0.3214 0.87534 0.30192 0.0
C1693 C 0.32332 0.86667 0.33135 0.0
C1694 C 0.3343 0.86313 0.3459 0.0
C1695 C 0.30219 0.87388 0.30489 0.0
C1696 C 0.29352 0.86906 0.3214 0.0
C1697 C 0.30412 0.86531 0.33437 0.0
C1698 C 0.27338 0.86767 0.32531 0.0
C1699 C 0.29109 0.87696 0.29015 0.0
C1700 C 0.27062 0.88435 0.32286 0.0
C1701 C 0.25128 0.88261 0.3253 0.0
C1702 C 0.23443 0.86431 0.33066 0.0
C1703 C 0.23728 0.84773 0.33347 0.0
C1704 C 0.25662 0.84945 0.33095 0.0
H1705 H 0.29692 0.87503 0.2777 0.0
H1706 H 0.27424 0.86624 0.29073 0.0
H1707 H 0.29361 0.89252 0.29069 0.0
H1708 H 0.28338 0.89867 0.31881 0.0
H1709 H 0.24944 0.89556 0.32291 0.0
H1710 H 0.18402 0.53798 0.29503 0.0
H1711 H 0.1835 0.50756 0.3053 0.0
H1712 H 0.11711 0.47489 0.30266 0.0
H1713 H 0.11745 0.50535 0.29243 0.0
H1714 H 0.13996 0.47195 0.33534 0.0
H1715 H 0.16292 0.45492 0.27282 0.0
H1716 H 0.17693 0.48063 0.28028 0.0
H1717 H 0.15021 0.46964 0.27466 0.0
C1718 C 0.16929 0.5244 0.29684 0.0
C1719 C 0.15076 0.52404 0.29294 0.0
C1720 C 0.16904 0.50704 0.30261 0.0
C1721 C 0.15028 0.48906 0.30464 0.0
C1722 C 0.13172 0.48868 0.30112 0.0
H1723 H 0.13517 0.36963 0.31849 0.0
H1724 H 0.1303 0.3978 0.31041 0.0
C1725 C 0.13196 0.50602 0.29521 0.0
C1726 C 0.1502 0.47056 0.31006 0.0
H1727 H 0.16177 0.43508 0.29625 0.0
C1728 C 0.14461 0.46378 0.32681 0.0
C1729 C 0.15612 0.45995 0.29881 0.0
C1730 C 0.16179 0.46649 0.28058 0.0
C1731 C 0.14529 0.44683 0.33276 0.0
C1732 C 0.1518 0.43656 0.32164 0.0
C1733 C 0.15686 0.44306 0.30475 0.0
C1734 C 0.15396 0.41929 0.32733 0.0
C1735 C 0.13901 0.43998 0.35084 0.0
C1736 C 0.16897 0.42212 0.33946 0.0
C1737 C 0.17192 0.40611 0.34403 0.0
C1738 C 0.15985 0.38693 0.33659 0.0
C1739 C 0.1447 0.38415 0.32453 0.0
C1740 C 0.14186 0.40021 0.31989 0.0
H1741 H 0.12997 0.44648 0.35643 0.0
H1742 H 0.1297 0.42327 0.35148 0.0
H1743 H 0.15305 0.44494 0.35875 0.0
H1744 H 0.17876 0.43686 0.34508 0.0
H1745 H 0.18401 0.40895 0.35307 0.0
H1746 H 0.34239 0.52596 0.29245 0.0
H1747 H 0.31475 0.49172 0.29859 0.0
H1748 H 0.35806 0.47953 0.3247 0.0
H1749 H 0.38593 0.51402 0.31864 0.0
H1750 H 0.3118 0.4532 0.29062 0.0
H1751 H 0.31111 0.4675 0.36012 0.0
H1752 H 0.32306 0.48772 0.34487 0.0
H1753 H 0.3355 0.47375 0.35073 0.0
C1754 C 0.34606 0.51596 0.29943 0.0
C1755 C 0.36629 0.52271 0.30518 0.0
C1756 C 0.33027 0.4964 0.30289 0.0
C1757 C 0.3343 0.4832 0.3123 0.0
C1758 C 0.3546 0.48959 0.31759 0.0
H1759 H 0.23934 0.35586 0.32526 0.0
H1760 H 0.27275 0.38664 0.32099 0.0
C1761 C 0.37051 0.5092 0.314 0.0
C1762 C 0.31698 0.46297 0.31677 0.0
H1763 H 0.28623 0.43553 0.34985 0.0
C1764 C 0.30635 0.44919 0.30359 0.0
C1765 C 0.30978 0.45795 0.33368 0.0
C1766 C 0.3203 0.47248 0.34823 0.0
C1767 C 0.28852 0.43064 0.30682 0.0
C1768 C 0.28123 0.42568 0.32371 0.0
C1769 C 0.29199 0.43933 0.33694 0.0
C1770 C 0.26165 0.40699 0.32765 0.0
C1771 C 0.27714 0.41681 0.29206 0.0
C1772 C 0.24452 0.40826 0.33317 0.0
C1773 C 0.22552 0.39076 0.3356 0.0
C1774 C 0.22342 0.37167 0.33291 0.0
C1775 C 0.24066 0.37041 0.32763 0.0
C1776 C 0.25967 0.38793 0.32514 0.0
H1777 H 0.28268 0.42442 0.27959 0.0
H1778 H 0.27946 0.40359 0.29238 0.0
H1779 H 0.26033 0.41117 0.29301 0.0
H1780 H 0.2457 0.42282 0.3351 0.0
H1781 H 0.2124 0.39224 0.33919 0.0
H1782 H 0.49779 0.85681 0.28691 0.0
H1783 H 0.53261 0.86133 0.28992 0.0
H1784 H 0.52209 0.84827 0.34349 0.0
H1785 H 0.48752 0.84382 0.34057 0.0
H1786 H 0.5627 0.88147 0.33489 0.0
H1787 H 0.5403 0.81131 0.29796 0.0
H1788 H 0.53576 0.82987 0.28795 0.0
H1789 H 0.52149 0.81706 0.30661 0.0
C1790 C 0.50311 0.85532 0.29937 0.0
C1791 C 0.4899 0.84983 0.31348 0.0
C1792 C 0.52291 0.85772 0.30105 0.0
C1793 C 0.52983 0.85483 0.31689 0.0
C1794 C 0.51706 0.85046 0.33114 0.0
H1795 H 0.6211 0.82035 0.34009 0.0
H1796 H 0.59006 0.82305 0.33652 0.0
C1797 C 0.49729 0.8479 0.32944 0.0
C1798 C 0.54987 0.85528 0.31866 0.0
H1799 H 0.57422 0.82895 0.30859 0.0
C1800 C 0.56531 0.87007 0.32907 0.0
C1801 C 0.55313 0.84025 0.31123 0.0
C1802 C 0.5368 0.8236 0.30039 0.0
C1803 C 0.5839 0.87022 0.33232 0.0
C1804 C 0.58721 0.85517 0.32487 0.0
C1805 C 0.57175 0.84046 0.31436 0.0
C1806 C 0.60634 0.85407 0.32797 0.0
C1807 C 0.59951 0.88632 0.344 0.0
C1808 C 0.62593 0.87053 0.32438 0.0
C1809 C 0.64372 0.86911 0.32679 0.0
C1810 C 0.64232 0.85118 0.33276 0.0
C1811 C 0.62273 0.83458 0.33601 0.0
C1812 C 0.60495 0.83606 0.33379 0.0
H1813 H 0.59205 0.89189 0.35302 0.0
H1814 H 0.60826 0.88078 0.35142 0.0
H1815 H 0.61061 0.89931 0.33623 0.0
H1816 H 0.62748 0.88439 0.31939 0.0
H1817 H 0.6586 0.88199 0.32379 0.0
H1818 H 0.21365 0.67337 0.29516 0.0
H1819 H 0.2057 0.70008 0.30097 0.0
H1820 H 0.1452 0.6559 0.31848 0.0
H1821 H 0.15334 0.62906 0.31333 0.0
H1822 H 0.17498 0.7069 0.28889 0.0
H1823 H 0.16887 0.69463 0.35891 0.0
H1824 H 0.17941 0.68327 0.34502 0.0
H1825 H 0.15201 0.67305 0.34616 0.0
C1826 C 0.19869 0.66931 0.30036 0.0
C1827 C 0.18424 0.6491 0.304 0.0
C1828 C 0.19411 0.68459 0.30353 0.0
C1829 C 0.17499 0.68001 0.3104 0.0
C1830 C 0.16019 0.65979 0.31345 0.0
H1831 H 0.14525 0.77759 0.32053 0.0
H1832 H 0.14218 0.74506 0.31314 0.0
C1833 C 0.16479 0.64446 0.31033 0.0
C1834 C 0.17104 0.69661 0.31481 0.0
H1835 H 0.16409 0.7208 0.34853 0.0
C1836 C 0.17237 0.70986 0.3019 0.0
C1837 C 0.16784 0.70048 0.33183 0.0
C1838 C 0.1671 0.68725 0.34633 0.0
C1839 C 0.17116 0.72719 0.3056 0.0
C1840 C 0.16816 0.73115 0.32264 0.0
C1841 C 0.16624 0.71761 0.33547 0.0
C1842 C 0.16901 0.75022 0.32766 0.0
C1843 C 0.1741 0.7416 0.29138 0.0
C1844 C 0.18473 0.76361 0.33865 0.0
C1845 C 0.18646 0.78207 0.34297 0.0
C1846 C 0.17241 0.78751 0.33646 0.0
C1847 C 0.15638 0.7739 0.32571 0.0
C1848 C 0.15465 0.75535 0.32141 0.0
H1849 H 0.1803 0.73837 0.27969 0.0
H1850 H 0.15903 0.74025 0.28813 0.0
H1851 H 0.18477 0.75743 0.29537 0.0
H1852 H 0.196 0.75996 0.3436 0.0
H1853 H 0.19914 0.79224 0.3511 0.0
H1854 H 0.86228 0.04199 0.40509 0.0
H1855 H 0.82759 0.01214 0.40381 0.0
H1856 H 0.83406 0.00772 0.34968 0.0
H1857 H 0.86842 0.03756 0.35083 0.0
H1858 H 0.79403 0.99986 0.35997 0.0
H1859 H 0.82181 0.95575 0.39658 0.0
H1860 H 0.82545 0.9786 0.40633 0.0
H1861 H 0.83926 0.9799 0.38729 0.0
C1862 C 0.85609 0.03488 0.39288 0.0
C1863 C 0.86814 0.04195 0.37809 0.0
C1864 C 0.83637 0.01776 0.39218 0.0
C1865 C 0.82841 0.00754 0.37669 0.0
C1866 C 0.83994 0.01531 0.36178 0.0
H1867 H 0.74698 0.88685 0.34609 0.0
H1868 H 0.77496 0.92061 0.35299 0.0
C1869 C 0.85961 0.03229 0.36247 0.0
C1870 C 0.8088 0.98797 0.37594 0.0
H1871 H 0.78781 0.93822 0.38629 0.0
C1872 C 0.7925 0.98641 0.36593 0.0
C1873 C 0.807 0.97042 0.38355 0.0
C1874 C 0.82431 0.97107 0.39396 0.0
C1875 C 0.77462 0.96769 0.36301 0.0
C1876 C 0.773 0.95012 0.37039 0.0
C1877 C 0.78907 0.95176 0.38074 0.0
C1878 C 0.75564 0.9297 0.36632 0.0
C1879 C 0.758 0.96666 0.35143 0.0
C1880 C 0.73545 0.92351 0.37163 0.0
C1881 C 0.71929 0.90413 0.36762 0.0
C1882 C 0.72308 0.89066 0.35819 0.0
C1883 C 0.74339 0.89691 0.3531 0.0
C1884 C 0.75947 0.91618 0.35713 0.0
H1885 H 0.76301 0.9811 0.34469 0.0
H1886 H 0.75344 0.95445 0.34184 0.0
H1887 H 0.74417 0.96313 0.35909 0.0
H1888 H 0.73222 0.93362 0.37894 0.0
H1889 H 0.70387 0.89978 0.37184 0.0
H1890 H 0.97763 0.81613 0.4063 0.0
H1891 H 0.00835 0.81252 0.40301 0.0
H1892 H 0.00854 0.82305 0.34911 0.0
H1893 H 0.97799 0.82658 0.35232 0.0
H1894 H 0.01748 0.7917 0.35799 0.0
H1895 H 0.06567 0.86327 0.39354 0.0
H1896 H 0.04302 0.84436 0.40422 0.0
H1897 H 0.04033 0.85621 0.38547 0.0
C1898 C 0.98398 0.8172 0.39372 0.0
C1899 C 0.97549 0.82173 0.37958 0.0
C1900 C 1.00163 0.81534 0.39187 0.0
C1901 C 0.01096 0.81785 0.37584 0.0
C1902 C 1.00171 0.82116 0.3616 0.0
H1903 H 0.13804 0.85618 0.35122 0.0
H1904 H 0.10374 0.85224 0.35475 0.0
C1905 C 0.98426 0.82317 0.36345 0.0
C1906 C 0.03093 0.81821 0.37385 0.0
H1907 H 0.08236 0.84634 0.38312 0.0
C1908 C 0.03167 0.80357 0.36356 0.0
C1909 C 0.04948 0.83387 0.38092 0.0
C1910 C 0.04977 0.85045 0.39156 0.0
C1911 C 0.05041 0.80414 0.36011 0.0
C1912 C 0.06902 0.81978 0.36724 0.0
C1913 C 0.0682 0.83437 0.37761 0.0
C1914 C 0.08954 0.82156 0.36401 0.0
C1915 C 0.05002 0.7882 0.34854 0.0
C1916 C 0.09316 0.80569 0.36797 0.0
C1917 C 0.1127 0.80782 0.36561 0.0
C1918 C 0.12909 0.82587 0.35928 0.0
C1919 C 0.12559 0.84186 0.35557 0.0
C1920 C 0.106 0.83967 0.35778 0.0
H1921 H 0.03642 0.78177 0.33989 0.0
H1922 H 0.06415 0.79427 0.34073 0.0
H1923 H 0.04901 0.77572 0.3564 0.0
H1924 H 0.08099 0.79178 0.37327 0.0
H1925 H 0.1151 0.79542 0.36898 0.0
H1926 H 0.15469 0.13511 0.36742 0.0
H1927 H 0.16048 0.16896 0.36213 0.0
H1928 H 0.19999 0.19128 0.40631 0.0
H1929 H 0.19393 0.15719 0.41198 0.0
H1930 H 0.1512 0.19144 0.38951 0.0
H1931 H 0.2316 0.23141 0.36467 0.0
H1932 H 0.21536 0.20437 0.36277 0.0
H1933 H 0.22569 0.21551 0.38312 0.0
C1934 C 0.16463 0.14719 0.37604 0.0
C1935 C 0.17365 0.1434 0.39025 0.0
C1936 C 0.16802 0.16653 0.37292 0.0
C1937 C 0.18068 0.18255 0.38381 0.0
C1938 C 0.19032 0.17909 0.39768 0.0
H1939 H 0.20486 0.30708 0.37503 0.0
H1940 H 0.20681 0.27742 0.38405 0.0
C1941 C 0.18688 0.15964 0.40087 0.0
C1942 C 0.18237 0.20244 0.38118 0.0
H1943 H 0.21378 0.24955 0.36529 0.0
C1944 C 0.16493 0.20422 0.38435 0.0
C1945 C 0.20038 0.21906 0.37463 0.0
C1946 C 0.21939 0.21767 0.371 0.0
C1947 C 0.16483 0.22209 0.38075 0.0
C1948 C 0.18248 0.23843 0.37339 0.0
C1949 C 0.20024 0.23694 0.37083 0.0
C1950 C 0.18223 0.25664 0.3674 0.0
C1951 C 0.14575 0.22326 0.38479 0.0
C1952 C 0.1681 0.25483 0.35479 0.0
C1953 C 0.16684 0.27162 0.34971 0.0
C1954 C 0.17992 0.2907 0.35694 0.0
C1955 C 0.19453 0.29261 0.36922 0.0
C1956 C 0.19571 0.27571 0.37437 0.0
H1957 H 0.13639 0.21233 0.39484 0.0
H1958 H 0.14978 0.23865 0.38906 0.0
H1959 H 0.13602 0.21952 0.37317 0.0
H1960 H 0.1578 0.24031 0.34903 0.0
H1961 H 0.15525 0.26946 0.34038 0.0
H1962 H 0.62314 0.49872 0.70525 0.0
H1963 H 0.65387 0.52923 0.69516 0.0
H1964 H 0.68444 0.53363 0.74297 0.0
H1965 H 0.65342 0.50388 0.75331 0.0
H1966 H 0.69117 0.56862 0.73485 0.0
H1967 H 0.70648 0.53631 0.67729 0.0
H1968 H 0.68147 0.53404 0.67683 0.0
H1969 H 0.68742 0.52084 0.69279 0.0
C1970 C 0.63648 0.50626 0.71353 0.0
C1971 C 0.63595 0.49904 0.73005 0.0
C1972 C 0.65412 0.52357 0.70771 0.0
C1973 C 0.67174 0.5336 0.71814 0.0
C1974 C 0.67113 0.52623 0.73464 0.0
H1975 H 0.79694 0.62012 0.69002 0.0
H1976 H 0.76349 0.58998 0.69484 0.0
C1977 C 0.6534 0.50925 0.74056 0.0
C1978 C 0.69059 0.55222 0.71234 0.0
H1979 H 0.72664 0.57187 0.68074 0.0
C1980 C 0.69892 0.56925 0.72303 0.0
C1981 C 0.70092 0.5531 0.69698 0.0
C1982 C 0.69374 0.53503 0.6854 0.0
C1983 C 0.71732 0.58692 0.71901 0.0
C1984 C 0.72728 0.58806 0.7034 0.0
C1985 C 0.71888 0.57112 0.69259 0.0
C1986 C 0.74704 0.60627 0.6986 0.0
C1987 C 0.72627 0.60383 0.73197 0.0
C1988 C 0.74889 0.62548 0.6985 0.0
C1989 C 0.7681 0.64274 0.69603 0.0
C1990 C 0.78563 0.64107 0.69286 0.0
C1991 C 0.78362 0.62184 0.69209 0.0
C1992 C 0.76449 0.60459 0.6949 0.0
H1993 H 0.72028 0.59832 0.74495 0.0
H1994 H 0.74335 0.61131 0.73241 0.0
H1995 H 0.72187 0.61523 0.72852 0.0
H1996 H 0.73559 0.62718 0.70078 0.0
H1997 H 0.76932 0.65744 0.69673 0.0
H1998 H 0.5179 0.14938 0.75642 0.0
H1999 H 0.4878 0.15115 0.74671 0.0
H2000 H 0.49514 0.13336 0.69622 0.0
H2001 H 0.52597 0.1325 0.70581 0.0
H2002 H 0.48518 0.16129 0.69381 0.0
H2003 H 0.43126 0.10547 0.7397 0.0
H2004 H 0.4522 0.12628 0.7505 0.0
H2005 H 0.45716 0.1101 0.73699 0.0
C2006 C 0.51304 0.14578 0.74325 0.0
C2007 C 0.52414 0.14057 0.73191 0.0
C2008 C 0.49571 0.14665 0.73773 0.0
C2009 C 0.48867 0.14178 0.72083 0.0
C2010 C 0.50006 0.137 0.70936 0.0
H2011 H 0.36362 0.1159 0.69687 0.0
H2012 H 0.39481 0.11373 0.70151 0.0
C2013 C 0.51768 0.13651 0.71483 0.0
C2014 C 0.46971 0.14202 0.71511 0.0
H2015 H 0.41947 0.12543 0.72555 0.0
C2016 C 0.47075 0.15327 0.70066 0.0
C2017 C 0.45066 0.1313 0.72378 0.0
C2018 C 0.44767 0.11744 0.73848 0.0
C2019 C 0.45354 0.15441 0.69486 0.0
C2020 C 0.43477 0.14461 0.70409 0.0
C2021 C 0.43371 0.13312 0.71841 0.0
C2022 C 0.41599 0.14587 0.6993 0.0
C2023 C 0.45567 0.16567 0.6786 0.0
C2024 C 0.41719 0.16454 0.69616 0.0
C2025 C 0.39934 0.16565 0.69289 0.0
C2026 C 0.3798 0.14817 0.69312 0.0
C2027 C 0.37851 0.12956 0.69639 0.0
C2028 C 0.39638 0.12837 0.69915 0.0
H2029 H 0.46756 0.16568 0.67015 0.0
H2030 H 0.44089 0.15889 0.67156 0.0
H2031 H 0.46055 0.18161 0.68163 0.0
H2032 H 0.43184 0.17843 0.69684 0.0
H2033 H 0.4008 0.18029 0.69095 0.0
H2034 H 0.91084 0.40384 0.72438 0.0
H2035 H 0.91032 0.3744 0.71141 0.0
H2036 H 0.84474 0.3392 0.71996 0.0
H2037 H 0.84512 0.3687 0.7323 0.0
H2038 H 0.90136 0.33994 0.72461 0.0
H2039 H 0.8466 0.32425 0.67179 0.0
H2040 H 0.85751 0.34735 0.68397 0.0
H2041 H 0.83522 0.32487 0.69164 0.0
C2042 C 0.89631 0.38984 0.72328 0.0
C2043 C 0.87799 0.38856 0.72917 0.0
C2044 C 0.89601 0.37306 0.71587 0.0
C2045 C 0.87741 0.35465 0.71435 0.0
C2046 C 0.85915 0.35336 0.72041 0.0
H2047 H 0.86185 0.23583 0.7128 0.0
H2048 H 0.8674 0.2693 0.71963 0.0
C2049 C 0.85939 0.3702 0.72756 0.0
C2050 C 0.87723 0.33645 0.70748 0.0
H2051 H 0.85128 0.29653 0.68038 0.0
C2052 C 0.8906 0.33062 0.71476 0.0
C2053 C 0.86355 0.32444 0.69436 0.0
C2054 C 0.8501 0.33069 0.68487 0.0
C2055 C 0.89002 0.3127 0.70983 0.0
C2056 C 0.87514 0.29986 0.69773 0.0
C2057 C 0.86244 0.30615 0.68988 0.0
C2058 C 0.87198 0.27957 0.69349 0.0
C2059 C 0.90549 0.30785 0.71761 0.0
C2060 C 0.87188 0.27382 0.67647 0.0
C2061 C 0.86824 0.25447 0.67252 0.0
C2062 C 0.86473 0.24058 0.68552 0.0
C2063 C 0.86482 0.24634 0.70252 0.0
C2064 C 0.86813 0.26553 0.70645 0.0
H2065 H 0.91981 0.3218 0.72145 0.0
H2066 H 0.8988 0.29869 0.72924 0.0
H2067 H 0.90964 0.29922 0.70864 0.0
H2068 H 0.87473 0.28435 0.66624 0.0
H2069 H 0.86861 0.25058 0.65937 0.0
H2070 H 0.15822 0.94724 0.65487 0.0
H2071 H 0.18734 0.9797 0.66412 0.0
H2072 H 0.20206 0.99768 0.61173 0.0
H2073 H 0.17282 0.9656 0.60241 0.0
H2074 H 0.23043 0.99789 0.65593 0.0
H2075 H 0.19624 0.04369 0.63378 0.0
H2076 H 0.18119 0.01669 0.63637 0.0
H2077 H 0.19712 0.0272 0.61791 0.0
C2078 C 0.16761 0.95815 0.64533 0.0
C2079 C 0.16316 0.95382 0.6279 0.0
C2080 C 0.1843 0.97663 0.65063 0.0
C2081 C 0.19671 0.99118 0.63861 0.0
C2082 C 0.19253 0.98677 0.62122 0.0
H2083 H 0.31646 0.09981 0.65205 0.0
H2084 H 0.28813 0.06627 0.64431 0.0
C2085 C 0.17592 0.96832 0.61592 0.0
C2086 C 0.21394 0.01107 0.64419 0.0
H2087 H 0.23116 0.06163 0.64283 0.0
C2088 C 0.23059 0.01184 0.65312 0.0
C2089 C 0.214 0.02922 0.64067 0.0
C2090 C 0.19612 0.02925 0.63179 0.0
C2091 C 0.2475 0.03034 0.65835 0.0
C2092 C 0.24782 0.04852 0.65438 0.0
C2093 C 0.23099 0.04769 0.64572 0.0
C2094 C 0.26524 0.06859 0.6594 0.0
C2095 C 0.26472 0.03026 0.6683 0.0
C2096 C 0.26173 0.08119 0.67018 0.0
C2097 C 0.27781 0.10038 0.67452 0.0
C2098 C 0.29782 0.10745 0.66815 0.0
C2099 C 0.3013 0.09482 0.65727 0.0
C2100 C 0.28515 0.07558 0.65293 0.0
H2101 H 0.2599 0.0152 0.67381 0.0
H2102 H 0.27793 0.03426 0.65969 0.0
H2103 H 0.27011 0.04156 0.67878 0.0
H2104 H 0.24646 0.07619 0.67521 0.0
H2105 H 0.27443 0.10977 0.68268 0.0
H2106 H 0.06985 0.24189 0.62724 0.0
H2107 H 0.03756 0.23954 0.63655 0.0
H2108 H 0.01267 0.17645 0.64754 0.0
H2109 H 0.04457 0.17846 0.63767 0.0
H2110 H 0.98584 0.18311 0.62928 0.0
H2111 H 0.01492 0.23608 0.684 0.0
H2112 H 0.02838 0.24699 0.66455 0.0
H2113 H 0.02999 0.22645 0.67404 0.0
C2114 C 0.05753 0.22749 0.63164 0.0
C2115 C 0.05995 0.21039 0.63172 0.0
C2116 C 0.03912 0.22624 0.63718 0.0
C2117 C 0.02273 0.20789 0.64305 0.0
C2118 C 0.02513 0.19083 0.64323 0.0
H2119 H 0.89491 0.16854 0.67193 0.0
H2120 H 0.9284 0.1707 0.66812 0.0
C2121 C 0.04349 0.19205 0.63769 0.0
C2122 C 1.00267 0.20617 0.64805 0.0
H2123 H 0.98068 0.22565 0.67457 0.0
C2124 C 0.98471 0.1923 0.63929 0.0
C2125 C 1.00112 0.21815 0.66112 0.0
C2126 C 0.01959 0.23262 0.67159 0.0
C2127 C 0.96544 0.19047 0.64286 0.0
C2128 C 0.96394 0.20261 0.65577 0.0
C2129 C 0.98183 0.21635 0.66467 0.0
C2130 C 0.94404 0.20174 0.65972 0.0
C2131 C 0.94694 0.17597 0.6324 0.0
C2132 C 0.9418 0.21865 0.65688 0.0
C2133 C 0.9227 0.2175 0.65925 0.0
C2134 C 0.90554 0.19954 0.66482 0.0
C2135 C 0.9079 0.18273 0.66801 0.0
C2136 C 0.92701 0.18388 0.66563 0.0
H2137 H 0.95149 0.17123 0.62057 0.0
H2138 H 0.93723 0.16226 0.64002 0.0
H2139 H 0.93742 0.18282 0.62888 0.0
H2140 H 0.95469 0.23259 0.65231 0.0
H2141 H 0.92124 0.2306 0.6565 0.0
H2142 H 0.81233 0.84364 0.60112 0.0
H2143 H 0.8127 0.81348 0.61074 0.0
H2144 H 0.81199 0.83054 0.66299 0.0
H2145 H 0.81114 0.86058 0.65346 0.0
H2146 H 0.84362 0.81371 0.63141 0.0
H2147 H 0.76623 0.77053 0.66101 0.0
H2148 H 0.77282 0.79096 0.64631 0.0
H2149 H 0.78144 0.79626 0.66805 0.0
C2150 C 0.81183 0.84078 0.61466 0.0
C2151 C 0.8116 0.85445 0.62654 0.0
C2152 C 0.81217 0.82361 0.62012 0.0
C2153 C 0.81216 0.81968 0.63755 0.0
C2154 C 0.81168 0.83314 0.64947 0.0
H2155 H 0.85238 0.74304 0.68475 0.0
H2156 H 0.84707 0.77078 0.6763 0.0
C2157 C 0.8114 0.85038 0.64401 0.0
C2158 C 0.81392 0.80216 0.6432 0.0
H2159 H 0.78922 0.75797 0.66527 0.0
C2160 C 0.83172 0.8015 0.63878 0.0
C2161 C 0.79826 0.7862 0.65268 0.0
C2162 C 0.77851 0.78583 0.6572 0.0
C2163 C 0.83443 0.7854 0.6438 0.0
C2164 C 0.81902 0.76969 0.65364 0.0
C2165 C 0.80106 0.77016 0.65784 0.0
C2166 C 0.82134 0.75259 0.65955 0.0
C2167 C 0.85365 0.7852 0.63836 0.0
C2168 C 0.80826 0.73307 0.65326 0.0
C2169 C 0.81116 0.7171 0.65814 0.0
C2170 C 0.82709 0.72038 0.66952 0.0
C2171 C 0.83985 0.73991 0.67609 0.0
C2172 C 0.83696 0.75584 0.67118 0.0
H2173 H 0.86166 0.79589 0.62779 0.0
H2174 H 0.86447 0.78967 0.64931 0.0
H2175 H 0.8499 0.76984 0.63424 0.0
H2176 H 0.79608 0.73029 0.6443 0.0
H2177 H 0.80102 0.70225 0.65288 0.0
H2178 H 0.03233 0.86212 0.6716 0.0
H2179 H 1.00369 0.82808 0.67648 0.0
H2180 H 0.01197 0.8102 0.62635 0.0
H2181 H 0.04056 0.84452 0.62126 0.0
H2182 H 0.97164 0.80091 0.63289 0.0
H2183 H 1.00102 0.77436 0.68578 0.0
H2184 H 1.00346 0.79856 0.68977 0.0
H2185 H 0.01776 0.79568 0.6727 0.0
C2186 C 0.02822 0.85088 0.66168 0.0
C2187 C 0.03865 0.85604 0.646 0.0
C2188 C 0.01195 0.83136 0.66455 0.0
C2189 C 1.00579 0.8165 0.65186 0.0
C2190 C 0.01656 0.8214 0.63637 0.0
H2191 H 0.90785 0.6906 0.66156 0.0
H2192 H 0.94121 0.72158 0.65769 0.0
C2193 C 0.03296 0.84097 0.63351 0.0
C2194 C 0.98698 0.7965 0.65428 0.0
H2195 H 0.96455 0.75576 0.68078 0.0
C2196 C 0.97018 0.79094 0.64325 0.0
C2197 C 0.98508 0.78346 0.66777 0.0
C2198 C 1.00286 0.78819 0.6796 0.0
C2199 C 0.95138 0.77301 0.64563 0.0
C2200 C 0.94923 0.76038 0.65951 0.0
C2201 C 0.96618 0.76559 0.67026 0.0
C2202 C 0.92943 0.74171 0.66299 0.0
C2203 C 0.93392 0.76771 0.63326 0.0
C2204 C 0.91189 0.7428 0.66753 0.0
C2205 C 0.89292 0.72519 0.66978 0.0
C2206 C 0.89123 0.70617 0.66777 0.0
C2207 C 0.90884 0.7051 0.6634 0.0
C2208 C 0.92785 0.72274 0.66121 0.0
H2209 H 0.93943 0.77641 0.62125 0.0
H2210 H 0.92578 0.75136 0.63014 0.0
H2211 H 0.92263 0.77125 0.63916 0.0
H2212 H 0.91281 0.75729 0.6691 0.0
H2213 H 0.87955 0.72651 0.67272 0.0
H2214 H 0.15569 0.17483 0.67216 0.0
H2215 H 0.19007 0.17916 0.67582 0.0
H2216 H 0.20509 0.20038 0.62419 0.0
H2217 H 0.17034 0.19574 0.62035 0.0
H2218 H 0.21351 0.16972 0.63171 0.0
H2219 H 0.24686 0.22882 0.68165 0.0
H2220 H 0.22204 0.20814 0.68724 0.0
H2221 H 0.22432 0.22386 0.66944 0.0
C2222 C 0.1664 0.1807 0.66164 0.0
C2223 C 0.16025 0.18489 0.64593 0.0
C2224 C 0.18614 0.18332 0.6638 0.0
C2225 C 0.20031 0.19028 0.65035 0.0
C2226 C 0.19447 0.19509 0.63479 0.0
H2227 H 0.32805 0.21621 0.65842 0.0
H2228 H 0.29673 0.21851 0.65435 0.0
C2229 C 0.17468 0.19258 0.63264 0.0
C2230 C 0.22046 0.1909 0.65222 0.0
H2231 H 0.26385 0.20973 0.67706 0.0
C2232 C 0.22461 0.17864 0.64152 0.0
C2233 C 0.23503 0.20258 0.66498 0.0
C2234 C 0.23197 0.21674 0.67638 0.0
C2235 C 0.24258 0.17731 0.6435 0.0
C2236 C 0.25673 0.18836 0.65669 0.0
C2237 C 0.2529 0.20107 0.66709 0.0
C2238 C 0.27567 0.18704 0.65973 0.0
C2239 C 0.24632 0.16414 0.63139 0.0
C2240 C 0.27427 0.16867 0.66433 0.0
C2241 C 0.29213 0.16737 0.6667 0.0
C2242 C 0.31174 0.1845 0.66478 0.0
C2243 C 0.31312 0.20286 0.6602 0.0
C2244 C 0.29526 0.20418 0.65789 0.0
H2245 H 0.23689 0.16075 0.61961 0.0
H2246 H 0.26284 0.17144 0.62781 0.0
H2247 H 0.24205 0.14963 0.63771 0.0
H2248 H 0.25935 0.1553 0.66604 0.0
H2249 H 0.29055 0.15291 0.66983 0.0
H2250 H 0.83303 0.97588 0.61929 0.0
H2251 H 0.82792 0.00482 0.6239 0.0
H2252 H 0.86162 0.01812 0.67119 0.0
H2253 H 0.86637 0.98906 0.66698 0.0
H2254 H 0.81144 0.01575 0.65743 0.0
H2255 H 0.89168 0.0693 0.63688 0.0
H2256 H 0.87799 0.04319 0.63016 0.0
H2257 H 0.88823 0.04967 0.65137 0.0
C2258 C 0.83902 0.98474 0.63083 0.0
C2259 C 0.8503 0.98028 0.64269 0.0
C2260 C 0.83615 1.00128 0.63339 0.0
C2261 C 0.84455 0.0136 0.6478 0.0
C2262 C 0.85518 0.00882 0.65993 0.0
H2263 H 0.86844 0.12694 0.6872 0.0
H2264 H 0.86572 0.09469 0.68042 0.0
C2265 C 0.85799 0.9923 0.65743 0.0
C2266 C 0.84327 0.03211 0.64991 0.0
H2267 H 0.87293 0.08336 0.6492 0.0
C2268 C 0.82475 0.03057 0.65548 0.0
C2269 C 0.86072 0.05131 0.64733 0.0
C2270 C 0.8808 0.05363 0.641 0.0
C2271 C 0.8235 0.04791 0.65921 0.0
C2272 C 0.84114 0.06715 0.65699 0.0
C2273 C 0.85945 0.06859 0.65094 0.0
C2274 C 0.84144 0.08606 0.6617 0.0
C2275 C 0.80362 0.04548 0.66615 0.0
C2276 C 0.82862 0.09193 0.65347 0.0
C2277 C 0.82994 0.11038 0.65751 0.0
C2278 C 0.84421 0.12329 0.66977 0.0
C2279 C 0.85698 0.11727 0.67796 0.0
C2280 C 0.85557 0.09886 0.674 0.0
H2281 H 0.79313 0.02987 0.67063 0.0
H2282 H 0.80668 0.05611 0.67688 0.0
H2283 H 0.79554 0.04891 0.65597 0.0
H2284 H 0.81791 0.08247 0.64368 0.0
H2285 H 0.81998 0.1146 0.65086 0.0
H2286 H 0.53867 0.37249 0.68683 0.0
H2287 H 0.50425 0.3428 0.68456 0.0
H2288 H 0.49654 0.34422 0.73884 0.0
H2289 H 0.53115 0.37411 0.74117 0.0
H2290 H 0.48982 0.30643 0.72523 0.0
H2291 H 0.44545 0.33477 0.68964 0.0
H2292 H 0.47015 0.3419 0.68054 0.0
H2293 H 0.46884 0.35124 0.70125 0.0
C2294 C 0.52948 0.36668 0.69824 0.0
C2295 C 0.53756 0.37556 0.71418 0.0
C2296 C 0.50978 0.3498 0.69692 0.0
C2297 C 0.49776 0.3414 0.7115 0.0
C2298 C 0.50552 0.35058 0.72741 0.0
H2299 H 0.37439 0.23315 0.70499 0.0
H2300 H 0.40279 0.26668 0.71286 0.0
C2301 C 0.52521 0.36767 0.72872 0.0
C2302 C 0.47808 0.32198 0.71016 0.0
H2303 H 0.43147 0.29892 0.68969 0.0
C2304 C 0.47692 0.30484 0.71769 0.0
C2305 C 0.46123 0.31993 0.7004 0.0
C2306 C 0.46132 0.33796 0.69261 0.0
C2307 C 0.45979 0.28556 0.71502 0.0
C2308 C 0.44345 0.28339 0.70447 0.0
C2309 C 0.44411 0.30063 0.69764 0.0
C2310 C 0.42615 0.26323 0.69965 0.0
C2311 C 0.45943 0.2676 0.72322 0.0
C2312 C 0.42987 0.25033 0.68943 0.0
C2313 C 0.41374 0.23128 0.68486 0.0
C2314 C 0.3935 0.2247 0.69038 0.0
C2315 C 0.38979 0.23772 0.70054 0.0
C2316 C 0.40597 0.25689 0.70503 0.0
H2317 H 0.47042 0.27214 0.73408 0.0
H2318 H 0.44372 0.2567 0.72782 0.0
H2319 H 0.4639 0.25978 0.71367 0.0
H2320 H 0.44531 0.25504 0.68498 0.0
H2321 H 0.41724 0.22163 0.67714 0.0
H2322 H 0.63544 0.14184 0.70636 0.0
H2323 H 0.66516 0.1372 0.70067 0.0
H2324 H 0.70382 0.18944 0.7315 0.0
H2325 H 0.67434 0.19415 0.73712 0.0
H2326 H 0.7032 0.16838 0.68475 0.0
H2327 H 0.71735 0.14543 0.74806 0.0
H2328 H 0.69277 0.14275 0.74206 0.0
H2329 H 0.71381 0.167 0.74813 0.0
C2330 C 0.65018 0.15201 0.71223 0.0
C2331 C 0.65257 0.16833 0.72221 0.0
C2332 C 0.66716 0.14945 0.70889 0.0
C2333 C 0.68671 0.16292 0.71573 0.0
C2334 C 0.68888 0.17872 0.72624 0.0
H2335 H 0.81033 0.19429 0.68275 0.0
H2336 H 0.77744 0.19309 0.68778 0.0
C2337 C 0.67203 0.18143 0.7294 0.0
C2338 C 0.7052 0.1615 0.71097 0.0
H2339 H 0.74369 0.15483 0.72741 0.0
C2340 C 0.71199 0.16527 0.69404 0.0
C2341 C 0.71663 0.15742 0.72308 0.0
C2342 C 0.70975 0.15275 0.74134 0.0
C2343 C 0.73011 0.16546 0.68896 0.0
C2344 C 0.74189 0.16186 0.70114 0.0
C2345 C 0.7348 0.15768 0.71803 0.0
C2346 C 0.76152 0.16224 0.69673 0.0
C2347 C 0.73623 0.16913 0.67051 0.0
C2348 C 0.76377 0.14543 0.70018 0.0
C2349 C 0.7826 0.14615 0.69737 0.0
C2350 C 0.79963 0.16364 0.69094 0.0
C2351 C 0.79736 0.18041 0.68729 0.0
C2352 C 0.77851 0.17972 0.69015 0.0
H2353 H 0.72322 0.16681 0.66217 0.0
H2354 H 0.74893 0.18488 0.66889 0.0
H2355 H 0.74175 0.15885 0.6663 0.0
H2356 H 0.751 0.1318 0.70532 0.0
H2357 H 0.78398 0.13309 0.7005 0.0
H2358 H 0.87158 0.48873 0.71531 0.0
H2359 H 0.87912 0.52322 0.70985 0.0
H2360 H 0.82188 0.50991 0.73372 0.0
H2361 H 0.8147 0.47581 0.73988 0.0
H2362 H 0.85724 0.53435 0.69018 0.0
H2363 H 0.861 0.56348 0.75529 0.0
H2364 H 0.8619 0.54072 0.75114 0.0
H2365 H 0.83754 0.5401 0.75189 0.0
C2366 C 0.86085 0.4933 0.71978 0.0
C2367 C 0.84252 0.47948 0.72803 0.0
C2368 C 0.86512 0.51298 0.71655 0.0
C2369 C 0.85122 0.51926 0.72159 0.0
C2370 C 0.83308 0.50559 0.73005 0.0
H2371 H 0.82221 0.60316 0.67751 0.0
H2372 H 0.8267 0.57494 0.68557 0.0
C2373 C 0.82884 0.48598 0.73334 0.0
C2374 C 0.85471 0.53948 0.71683 0.0
H2375 H 0.85414 0.58075 0.73274 0.0
C2376 C 0.8569 0.54464 0.69952 0.0
C2377 C 0.85464 0.55311 0.72902 0.0
C2378 C 0.85388 0.54917 0.74788 0.0
C2379 C 0.85787 0.56252 0.694 0.0
C2380 C 0.85616 0.57535 0.70607 0.0
C2381 C 0.85515 0.57077 0.72346 0.0
C2382 C 0.85405 0.59284 0.70085 0.0
C2383 C 0.86053 0.56736 0.67524 0.0
C2384 C 0.8676 0.61228 0.70715 0.0
C2385 C 0.86499 0.62855 0.70262 0.0
C2386 C 0.84876 0.62562 0.69174 0.0
C2387 C 0.83515 0.60609 0.6856 0.0
C2388 C 0.83772 0.58989 0.69016 0.0
H2389 H 0.86842 0.56018 0.66877 0.0
H2390 H 0.84513 0.56141 0.66923 0.0
H2391 H 0.86954 0.58389 0.67307 0.0
H2392 H 0.88018 0.61484 0.71556 0.0
H2393 H 0.87568 0.64338 0.70764 0.0
H2394 H 0.47362 0.90401 0.25917 0.0
H2395 H 0.487 0.92105 0.232 0.0
H2396 H 0.42535 0.90445 0.216 0.0
H2397 H 0.41173 0.88624 0.24251 0.0
H2398 H 0.44556 0.90041 0.19037 0.0
H2399 H 0.49509 0.97528 0.2202 0.0
H2400 H 0.50128 0.9566 0.22706 0.0
H2401 H 0.47657 0.95382 0.2322 0.0
C2402 C 0.46286 0.90374 0.2498 0.0
C2403 C 0.44158 0.89398 0.25325 0.0
C2404 C 0.47059 0.91376 0.23433 0.0
C2405 C 0.45727 0.91454 0.22208 0.0
C2406 C 0.436 0.90429 0.22528 0.0
H2407 H 0.49141 0.00372 0.14298 0.0
H2408 H 0.47825 0.98231 0.16814 0.0
C2409 C 0.42825 0.89407 0.24061 0.0
C2410 C 0.46532 0.92613 0.20599 0.0
H2411 H 0.49811 0.9731 0.19042 0.0
C2412 C 0.45706 0.91632 0.19038 0.0
C2413 C 0.4801 0.94698 0.20597 0.0
C2414 C 0.48864 0.95886 0.22225 0.0
C2415 C 0.46303 0.92673 0.17483 0.0
C2416 C 0.47821 0.94745 0.17479 0.0
C2417 C 0.48658 0.95721 0.19039 0.0
C2418 C 0.4851 0.95962 0.15888 0.0
C2419 C 0.45246 0.91554 0.1587 0.0
C2420 C 0.4932 0.954 0.14514 0.0
C2421 C 0.50043 0.96611 0.13059 0.0
C2422 C 0.50013 0.98429 0.12968 0.0
C2423 C 0.49193 0.98983 0.14338 0.0
C2424 C 0.48443 0.97761 0.15777 0.0
H2425 H 0.43735 0.90193 0.16139 0.0
H2426 H 0.44988 0.92534 0.14981 0.0
H2427 H 0.46228 0.9105 0.15225 0.0
H2428 H 0.49442 0.94051 0.14582 0.0
H2429 H 0.50692 0.96163 0.12031 0.0
H2430 H 0.10078 0.52992 0.25641 0.0
H2431 H 0.08307 0.52479 0.22908 0.0
H2432 H 0.1362 0.57737 0.20895 0.0
H2433 H 0.15433 0.5822 0.23603 0.0
H2434 H 0.07316 0.54961 0.20941 0.0
H2435 H 0.12802 0.53233 0.17598 0.0
H2436 H 0.12697 0.53336 0.19888 0.0
H2437 H 0.13944 0.55626 0.18677 0.0
C2438 C 0.10871 0.54039 0.24616 0.0
C2439 C 0.12905 0.55633 0.24835 0.0
C2440 C 0.09852 0.53752 0.2306 0.0
C2441 C 0.10846 0.55051 0.21692 0.0
C2442 C 0.12839 0.56698 0.21927 0.0
H2443 H 0.06749 0.53196 0.11028 0.0
H2444 H 0.0862 0.54854 0.13656 0.0
C2445 C 0.13864 0.56984 0.23483 0.0
C2446 C 0.09822 0.54614 0.20004 0.0
H2447 H 0.10112 0.53119 0.15964 0.0
C2448 C 0.07933 0.54574 0.19848 0.0
C2449 C 0.10635 0.54113 0.18579 0.0
C2450 C 0.12622 0.5406 0.18688 0.0
C2451 C 0.06819 0.54013 0.18312 0.0
C2452 C 0.07601 0.53451 0.16906 0.0
C2453 C 0.09522 0.53558 0.17044 0.0
C2454 C 0.06378 0.52579 0.1533 0.0
C2455 C 0.04807 0.54015 0.18211 0.0
C2456 C 0.045 0.50758 0.15404 0.0
C2457 C 0.03434 0.49813 0.13912 0.0
C2458 C 0.04232 0.50663 0.12314 0.0
C2459 C 0.06089 0.52515 0.12242 0.0
C2460 C 0.07161 0.53458 0.13739 0.0
H2461 H 0.04745 0.55055 0.19168 0.0
H2462 H 0.04565 0.54461 0.16924 0.0
H2463 H 0.03518 0.52474 0.18476 0.0
H2464 H 0.03888 0.50032 0.16614 0.0
H2465 H 0.01997 0.48397 0.14009 0.0
H2466 H 0.4437 0.53604 0.25566 0.0
H2467 H 0.44997 0.52312 0.22899 0.0
H2468 H 0.48699 0.584 0.21079 0.0
H2469 H 0.48036 0.5969 0.237 0.0
H2470 H 0.46067 0.5575 0.18597 0.0
H2471 H 0.50579 0.52739 0.21844 0.0
H2472 H 0.47997 0.51818 0.22597 0.0
H2473 H 0.499 0.54427 0.2289 0.0
C2474 C 0.45296 0.54661 0.24586 0.0
C2475 C 0.46182 0.5675 0.24855 0.0
C2476 C 0.45666 0.53923 0.23071 0.0
C2477 C 0.46925 0.55263 0.21803 0.0
C2478 C 0.47735 0.5734 0.22043 0.0
H2479 H 0.54643 0.54886 0.14056 0.0
H2480 H 0.52999 0.55348 0.16563 0.0
C2481 C 0.47369 0.58075 0.2355 0.0
C2482 C 0.4748 0.54541 0.20247 0.0
H2483 H 0.50327 0.52457 0.18864 0.0
C2484 C 0.46977 0.55007 0.18652 0.0
C2485 C 0.48688 0.53593 0.20325 0.0
C2486 C 0.49341 0.53124 0.22002 0.0
C2487 C 0.47693 0.54599 0.17134 0.0
C2488 C 0.48922 0.53673 0.17215 0.0
C2489 C 0.49378 0.53158 0.18807 0.0
C2490 C 0.49882 0.53366 0.15677 0.0
C2491 C 0.4721 0.55245 0.15464 0.0
C2492 C 0.48675 0.52092 0.14345 0.0
C2493 C 0.49614 0.51822 0.12906 0.0
C2494 C 0.51777 0.5281 0.1278 0.0
C2495 C 0.52976 0.54082 0.1412 0.0
C2496 C 0.52038 0.54353 0.15553 0.0
H2497 H 0.46611 0.56299 0.15649 0.0
H2498 H 0.48604 0.55987 0.1465 0.0
H2499 H 0.46018 0.53896 0.14773 0.0
H2500 H 0.47009 0.51288 0.14427 0.0
H2501 H 0.48647 0.50811 0.11907 0.0
H2502 H 0.88021 0.43922 0.79091 0.0
H2503 H 0.90142 0.45153 0.81671 0.0
H2504 H 0.9536 0.45687 0.78908 0.0
H2505 H 0.93255 0.44481 0.76315 0.0
H2506 H 0.92152 0.43174 0.83178 0.0
H2507 H 0.97666 0.51145 0.81518 0.0
H2508 H 0.95228 0.49665 0.80431 0.0
H2509 H 0.97368 0.49311 0.7994 0.0
C2510 C 0.89632 0.44344 0.79024 0.0
C2511 C 0.90474 0.4411 0.77499 0.0
C2512 C 0.90837 0.45035 0.805 0.0
C2513 C 0.9291 0.45526 0.80474 0.0
C2514 C 0.9377 0.45342 0.78947 0.0
H2515 H 0.00978 0.46044 0.88543 0.0
H2516 H 0.98855 0.4534 0.85978 0.0
C2517 C 0.92563 0.44639 0.77472 0.0
C2518 C 0.94129 0.46086 0.82072 0.0
H2519 H 0.98425 0.4986 0.84005 0.0
C2520 C 0.93516 0.4464 0.83365 0.0
C2521 C 0.95898 0.48004 0.82312 0.0
C2522 C 0.96577 0.49631 0.80985 0.0
C2523 C 0.94659 0.45043 0.84877 0.0
C2524 C 0.96462 0.46937 0.85096 0.0
C2525 C 0.97047 0.48404 0.83824 0.0
C2526 C 0.97775 0.47401 0.86629 0.0
C2527 C 0.93934 0.43442 0.86234 0.0
C2528 C 0.97887 0.48813 0.87829 0.0
C2529 C 0.99096 0.49217 0.89296 0.0
C2530 C 1.00231 0.48232 0.89576 0.0
C2531 C 1.00135 0.46839 0.88356 0.0
C2532 C 0.98915 0.46425 0.86897 0.0
H2533 H 0.92315 0.42228 0.86017 0.0
H2534 H 0.94932 0.42752 0.86229 0.0
H2535 H 0.94052 0.44114 0.87513 0.0
H2536 H 0.97023 0.49586 0.87637 0.0
H2537 H 0.99158 0.50313 0.90205 0.0
H2538 H 0.5511 0.44274 0.76854 0.0
H2539 H 0.53612 0.44567 0.79524 0.0
H2540 H 0.59636 0.49095 0.81289 0.0
H2541 H 0.61166 0.48704 0.78688 0.0
H2542 H 0.57591 0.46696 0.838 0.0
H2543 H 0.52496 0.49021 0.80618 0.0
H2544 H 0.52007 0.46581 0.79941 0.0
H2545 H 0.54453 0.48781 0.79484 0.0
C2546 C 0.56125 0.45309 0.77819 0.0
C2547 C 0.58261 0.46487 0.77534 0.0
C2548 C 0.55258 0.45498 0.79338 0.0
C2549 C 0.56501 0.46897 0.80592 0.0
C2550 C 0.58638 0.48023 0.80335 0.0
H2551 H 0.52293 0.52016 0.88358 0.0
H2552 H 0.53768 0.51292 0.85864 0.0
C2553 C 0.59509 0.47814 0.78832 0.0
C2554 C 0.55589 0.47213 0.82164 0.0
H2555 H 0.52052 0.4845 0.83586 0.0
C2556 C 0.5638 0.47082 0.83753 0.0
C2557 C 0.54032 0.47749 0.82106 0.0
C2558 C 0.53211 0.48063 0.80446 0.0
C2559 C 0.55669 0.4748 0.8528 0.0
C2560 C 0.54067 0.47953 0.85223 0.0
C2561 C 0.53268 0.48072 0.83635 0.0
C2562 C 0.53242 0.48407 0.86783 0.0
C2563 C 0.56698 0.47457 0.86928 0.0
C2564 C 0.52454 0.47033 0.88138 0.0
C2565 C 0.51642 0.47464 0.8958 0.0
C2566 C 0.51557 0.49254 0.89673 0.0
C2567 C 0.5233 0.5062 0.88314 0.0
C2568 C 0.53172 0.50206 0.86889 0.0
H2569 H 0.58265 0.47682 0.86709 0.0
H2570 H 0.56831 0.48648 0.87816 0.0
H2571 H 0.55766 0.45971 0.87549 0.0
H2572 H 0.52432 0.45609 0.88071 0.0
H2573 H 0.5103 0.46374 0.90601 0.0
H2574 H 0.58114 0.14069 0.78861 0.0
H2575 H 0.5749 0.12285 0.81581 0.0
H2576 H 0.52183 0.07117 0.79405 0.0
H2577 H 0.52799 0.08885 0.76688 0.0
H2578 H 0.53629 0.10706 0.83486 0.0
H2579 H 0.55554 0.04789 0.81801 0.0
H2580 H 0.56494 0.07096 0.80605 0.0
H2581 H 0.53891 0.05078 0.80314 0.0
C2582 C 0.56839 0.12538 0.78955 0.0
C2583 C 0.55506 0.11614 0.77561 0.0
C2584 C 0.56478 0.11527 0.8051 0.0
C2585 C 0.54801 0.09564 0.8069 0.0
C2586 C 0.53501 0.08621 0.79288 0.0
H2587 H 0.47474 0.02304 0.88936 0.0
H2588 H 0.48981 0.04466 0.86449 0.0
C2589 C 0.53847 0.09636 0.7774 0.0
C2590 C 0.54318 0.08541 0.82366 0.0
H2591 H 0.53715 0.04334 0.84389 0.0
C2592 C 0.53671 0.09327 0.83692 0.0
C2593 C 0.54386 0.06749 0.82633 0.0
C2594 C 0.55135 0.05881 0.8127 0.0
C2595 C 0.5301 0.0832 0.85256 0.0
C2596 C 0.52994 0.06483 0.85497 0.0
C2597 C 0.5372 0.0574 0.84197 0.0
C2598 C 0.52117 0.05253 0.87051 0.0
C2599 C 0.52303 0.09209 0.86634 0.0
C2600 C 0.53383 0.04977 0.88212 0.0
C2601 C 0.52525 0.03749 0.89642 0.0
C2602 C 0.50384 0.02748 0.89916 0.0
C2603 C 0.49127 0.03042 0.88753 0.0
C2604 C 0.49986 0.04285 0.87338 0.0
H2605 H 0.5282 0.10823 0.86396 0.0
H2606 H 0.50593 0.08368 0.86682 0.0
H2607 H 0.5289 0.09072 0.87897 0.0
H2608 H 0.55031 0.05705 0.88006 0.0
H2609 H 0.53529 0.03537 0.90509 0.0
H2610 H 0.11468 0.20808 0.57421 0.0
H2611 H 0.12733 0.22552 0.54703 0.0
H2612 H 0.13019 0.27884 0.56845 0.0
H2613 H 0.1169 0.26119 0.59544 0.0
H2614 H 0.11309 0.2716 0.53819 0.0
H2615 H 0.18425 0.2667 0.53324 0.0
H2616 H 0.1615 0.24244 0.53511 0.0
H2617 H 0.16916 0.26023 0.55244 0.0
C2618 C 0.11829 0.22361 0.57317 0.0
C2619 C 0.11491 0.23331 0.58698 0.0
C2620 C 0.12559 0.23361 0.55763 0.0
C2621 C 0.1301 0.25367 0.5557 0.0
C2622 C 0.12688 0.2634 0.56957 0.0
H2623 H 0.20261 0.33695 0.4765 0.0
H2624 H 0.18923 0.31647 0.50198 0.0
C2625 C 0.11931 0.25332 0.58501 0.0
C2626 C 0.13741 0.26434 0.53911 0.0
H2627 H 0.17465 0.27824 0.50871 0.0
C2628 C 0.1266 0.27309 0.53178 0.0
C2629 C 0.15515 0.26649 0.53075 0.0
C2630 C 0.16831 0.25865 0.53836 0.0
C2631 C 0.13303 0.28397 0.51648 0.0
C2632 C 0.15042 0.28563 0.50787 0.0
C2633 C 0.16119 0.2768 0.51516 0.0
C2634 C 0.15848 0.29749 0.49188 0.0
C2635 C 0.12151 0.29417 0.51007 0.0
C2636 C 0.14585 0.29346 0.47743 0.0
C2637 C 0.15336 0.30554 0.46288 0.0
C2638 C 0.1738 0.32172 0.46232 0.0
C2639 C 0.18664 0.32504 0.47654 0.0
C2640 C 0.17906 0.31316 0.49113 0.0
H2641 H 0.11258 0.29623 0.52038 0.0
H2642 H 0.13222 0.30916 0.50456 0.0
H2643 H 0.11044 0.28466 0.50002 0.0
H2644 H 0.13009 0.28111 0.47746 0.0
H2645 H 0.14295 0.30247 0.45225 0.0
H2646 H 0.8174 0.91563 0.57233 0.0
H2647 H 0.79967 0.91205 0.54522 0.0
H2648 H 0.74495 0.86076 0.56498 0.0
H2649 H 0.76233 0.86464 0.59225 0.0
H2650 H 0.7854 0.87872 0.52489 0.0
H2651 H 0.72099 0.89152 0.54121 0.0
H2652 H 0.74297 0.89912 0.55507 0.0
H2653 H 0.72215 0.8734 0.55491 0.0
C2654 C 0.8014 0.90396 0.57106 0.0
C2655 C 0.79127 0.89039 0.58442 0.0
C2656 C 0.79133 0.90187 0.55553 0.0
C2657 C 0.77092 0.88629 0.55314 0.0
C2658 C 0.76055 0.87315 0.56664 0.0
H2659 H 0.68658 0.81782 0.47506 0.0
H2660 H 0.70522 0.83455 0.50113 0.0
C2661 C 0.77059 0.87523 0.58215 0.0
C2662 C 0.76117 0.8823 0.53605 0.0
H2663 H 0.71725 0.87318 0.51519 0.0
C2664 C 0.77069 0.87789 0.52265 0.0
C2665 C 0.74198 0.8812 0.53319 0.0
C2666 C 0.73153 0.88677 0.54683 0.0
C2667 C 0.76101 0.87133 0.50674 0.0
C2668 C 0.74143 0.86946 0.5041 0.0
C2669 C 0.73226 0.87462 0.51728 0.0
C2670 C 0.72949 0.86048 0.48827 0.0
C2671 C 0.7713 0.86543 0.4932 0.0
C2672 C 0.73674 0.86976 0.47243 0.0
C2673 C 0.7262 0.86013 0.45745 0.0
C2674 C 0.70822 0.84109 0.45812 0.0
C2675 C 0.70059 0.83229 0.4741 0.0
C2676 C 0.71112 0.8419 0.48901 0.0
H2677 H 0.78447 0.8642 0.49836 0.0
H2678 H 0.7601 0.85078 0.48728 0.0
H2679 H 0.77726 0.87702 0.48306 0.0
H2680 H 0.75076 0.88424 0.47162 0.0
H2681 H 0.73248 0.86727 0.44535 0.0
H2682 H 0.15839 0.89669 0.59406 0.0
H2683 H 0.16494 0.88589 0.56655 0.0
H2684 H 0.11145 0.88525 0.5453 0.0
H2685 H 0.1049 0.89625 0.57282 0.0
H2686 H 0.13855 0.85138 0.54411 0.0
H2687 H 0.16217 0.92666 0.51625 0.0
H2688 H 0.16047 0.92245 0.53894 0.0
H2689 H 0.13742 0.9137 0.52647 0.0
C2690 C 0.14789 0.89402 0.58358 0.0
C2691 C 0.13122 0.89745 0.58555 0.0
C2692 C 0.1516 0.88778 0.5679 0.0
C2693 C 0.13882 0.88501 0.55386 0.0
C2694 C 0.12159 0.88748 0.55596 0.0
H2695 H 0.15544 0.84329 0.45356 0.0
H2696 H 0.13944 0.84754 0.47932 0.0
C2697 C 0.11778 0.8936 0.57171 0.0
C2698 C 0.14448 0.88088 0.53686 0.0
H2699 H 0.16485 0.90316 0.4987 0.0
C2700 C 0.14406 0.86256 0.53408 0.0
C2701 C 0.15188 0.89564 0.52392 0.0
C2702 C 0.1532 0.91581 0.52646 0.0
C2703 C 0.15112 0.85871 0.51873 0.0
C2704 C 0.15873 0.87358 0.50587 0.0
C2705 C 0.15887 0.89176 0.50856 0.0
C2706 C 0.16805 0.87114 0.49006 0.0
C2707 C 0.15111 0.83913 0.51656 0.0
C2708 C 0.18933 0.88326 0.48745 0.0
C2709 C 0.19847 0.88088 0.47281 0.0
C2710 C 0.18648 0.86645 0.46039 0.0
C2711 C 0.16506 0.8546 0.46286 0.0
C2712 C 0.15593 0.8569 0.47761 0.0
H2713 H 0.14742 0.83044 0.5286 0.0
H2714 H 0.13943 0.82969 0.50685 0.0
H2715 H 0.16638 0.84203 0.51198 0.0
H2716 H 0.19891 0.89442 0.49687 0.0
H2717 H 0.21495 0.89043 0.47117 0.0
H2718 H 0.54714 0.77441 0.12283 0.0
H2719 H 0.56724 0.78768 0.14912 0.0
H2720 H 0.62064 0.79231 0.12413 0.0
H2721 H 0.60072 0.77927 0.09775 0.0
H2722 H 0.58623 0.76805 0.16603 0.0
H2723 H 0.64301 0.84718 0.14932 0.0
H2724 H 0.61919 0.83241 0.13768 0.0
H2725 H 0.64072 0.82866 0.13401 0.0
C2726 C 0.5633 0.77872 0.12282 0.0
C2727 C 0.57238 0.77582 0.10824 0.0
C2728 C 0.57471 0.78619 0.13786 0.0
C2729 C 0.59545 0.79112 0.13851 0.0
C2730 C 0.60474 0.78887 0.12382 0.0
H2731 H 0.67362 0.7951 0.22011 0.0
H2732 H 0.65252 0.7885 0.19443 0.0
C2733 C 0.59331 0.78128 0.10881 0.0
C2734 C 0.60686 0.79689 0.15487 0.0
H2735 H 0.64983 0.83418 0.17458 0.0
C2736 C 0.60002 0.78258 0.16797 0.0
C2737 C 0.62476 0.81589 0.15737 0.0
C2738 C 0.63231 0.83203 0.14392 0.0
C2739 C 0.61102 0.78652 0.18332 0.0
C2740 C 0.62933 0.80521 0.18556 0.0
C2741 C 0.63583 0.8198 0.17272 0.0
C2742 C 0.64227 0.80953 0.20098 0.0
C2743 C 0.60312 0.77064 0.19701 0.0
C2744 C 0.64361 0.8237 0.21302 0.0
C2745 C 0.6556 0.82747 0.22773 0.0
C2746 C 0.66665 0.8173 0.23049 0.0
C2747 C 0.66543 0.80329 0.21826 0.0
C2748 C 0.65331 0.79941 0.20366 0.0
H2749 H 0.58684 0.75878 0.1947 0.0
H2750 H 0.61272 0.76333 0.1973 0.0
H2751 H 0.60426 0.77755 0.2097 0.0
H2752 H 0.63523 0.83169 0.2111 0.0
H2753 H 0.65642 0.83849 0.23685 0.0
H2754 H 0.24438 0.82418 0.10024 0.0
H2755 H 0.22948 0.82779 0.1268 0.0
H2756 H 0.2291 0.77529 0.14701 0.0
H2757 H 0.24434 0.77176 0.12054 0.0
H2758 H 0.1914 0.79843 0.1427 0.0
H2759 H 0.26027 0.82017 0.18356 0.0
H2760 H 0.2617 0.82154 0.16061 0.0
H2761 H 0.25128 0.79759 0.17102 0.0
C2762 C 0.24123 0.81346 0.11037 0.0
C2763 C 0.24563 0.79774 0.10832 0.0
C2764 C 0.23264 0.8155 0.1255 0.0
C2765 C 0.22844 0.80197 0.13894 0.0
C2766 C 0.23249 0.78605 0.13687 0.0
H2767 H 0.18135 0.79989 0.24127 0.0
H2768 H 0.19563 0.79287 0.21579 0.0
C2769 C 0.241 0.78394 0.12168 0.0
C2770 C 0.21966 0.80453 0.15502 0.0
H2771 H 0.23066 0.81694 0.19706 0.0
C2772 C 0.19995 0.80244 0.1546 0.0
C2773 C 0.23082 0.80964 0.17053 0.0
C2774 C 0.25226 0.81253 0.17156 0.0
C2775 C 0.19107 0.80533 0.16928 0.0
C2776 C 0.20243 0.81097 0.18472 0.0
C2777 C 0.22201 0.81269 0.18521 0.0
C2778 C 0.19446 0.81564 0.20035 0.0
C2779 C 0.16948 0.80207 0.16815 0.0
C2780 C 0.18958 0.83113 0.20027 0.0
C2781 C 0.18142 0.83514 0.21476 0.0
C2782 C 0.17818 0.82391 0.22972 0.0
C2783 C 0.18374 0.80886 0.22997 0.0
C2784 C 0.19182 0.80478 0.21541 0.0
H2785 H 0.16082 0.79217 0.15722 0.0
H2786 H 0.16073 0.79523 0.18001 0.0
H2787 H 0.1703 0.81681 0.16626 0.0
H2788 H 0.19205 0.84011 0.18896 0.0
H2789 H 0.17771 0.84711 0.21426 0.0
H2790 H 0.18876 0.41426 0.09642 0.0
H2791 H 0.18228 0.39754 0.12411 0.0
H2792 H 0.23529 0.44984 0.1452 0.0
H2793 H 0.24181 0.46675 0.11753 0.0
H2794 H 0.21026 0.39 0.14606 0.0
H2795 H 0.18418 0.43984 0.17522 0.0
H2796 H 0.18521 0.43713 0.15245 0.0
H2797 H 0.20856 0.45186 0.16434 0.0
C2798 C 0.19912 0.42216 0.10693 0.0
C2799 C 0.21575 0.44186 0.1048 0.0
C2800 C 0.19544 0.41256 0.12271 0.0
C2801 C 0.20817 0.42253 0.13674 0.0
C2802 C 0.22518 0.44195 0.13456 0.0
H2803 H 0.1986 0.36665 0.23681 0.0
H2804 H 0.21258 0.387 0.21096 0.0
C2805 C 0.22898 0.45152 0.11871 0.0
C2806 C 0.20308 0.41279 0.15373 0.0
H2807 H 0.18349 0.41448 0.19257 0.0
C2808 C 0.20461 0.39545 0.15631 0.0
C2809 C 0.19553 0.41985 0.16699 0.0
C2810 C 0.19309 0.43811 0.1647 0.0
C2811 C 0.19863 0.38487 0.17179 0.0
C2812 C 0.19092 0.39184 0.185 0.0
C2813 C 0.18956 0.40928 0.18246 0.0
C2814 C 0.18284 0.3804 0.20106 0.0
C2815 C 0.19993 0.36594 0.17375 0.0
C2816 C 0.16158 0.37033 0.20422 0.0
C2817 C 0.15358 0.35871 0.21889 0.0
C2818 C 0.16671 0.35707 0.23083 0.0
C2819 C 0.1881 0.36769 0.2279 0.0
C2820 C 0.19609 0.37919 0.21309 0.0
H2821 H 0.20362 0.36108 0.16156 0.0
H2822 H 0.21215 0.36868 0.18316 0.0
H2823 H 0.18513 0.35347 0.17864 0.0
H2824 H 0.15111 0.37116 0.19514 0.0
H2825 H 0.13707 0.35094 0.22088 0.0
H2826 H 0.78057 0.54079 0.90653 0.0
H2827 H 0.79377 0.55916 0.87982 0.0
H2828 H 0.79625 0.61175 0.90249 0.0
H2829 H 0.78248 0.5932 0.92905 0.0
H2830 H 0.7793 0.60511 0.87201 0.0
H2831 H 0.85095 0.6011 0.86698 0.0
H2832 H 0.82831 0.57669 0.86846 0.0
H2833 H 0.83562 0.59407 0.88607 0.0
C2834 C 0.78424 0.55637 0.90588 0.0
C2835 C 0.7806 0.5656 0.91991 0.0
C2836 C 0.79185 0.56689 0.89061 0.0
C2837 C 0.79637 0.587 0.88916 0.0
C2838 C 0.79293 0.59628 0.90325 0.0
H2839 H 0.86878 0.67217 0.81089 0.0
H2840 H 0.85552 0.65145 0.83628 0.0
C2841 C 0.78508 0.58569 0.91844 0.0
C2842 C 0.80384 0.59815 0.8728 0.0
H2843 H 0.84142 0.613 0.84261 0.0
C2844 C 0.79293 0.60688 0.86562 0.0
C2845 C 0.82174 0.60066 0.86449 0.0
C2846 C 0.83495 0.59281 0.87197 0.0
C2847 C 0.7994 0.61804 0.85046 0.0
C2848 C 0.81694 0.62004 0.84188 0.0
C2849 C 0.82784 0.61129 0.84904 0.0
C2850 C 0.82494 0.63209 0.82599 0.0
C2851 C 0.78772 0.62813 0.84417 0.0
C2852 C 0.81236 0.62794 0.8115 0.0
C2853 C 0.81979 0.64012 0.797 0.0
C2854 C 0.8401 0.65655 0.79657 0.0
C2855 C 0.8529 0.66004 0.81085 0.0
C2856 C 0.84539 0.64803 0.82537 0.0
H2857 H 0.77863 0.6299 0.8545 0.0
H2858 H 0.79835 0.64324 0.83882 0.0
H2859 H 0.77678 0.6187 0.83401 0.0
H2860 H 0.79671 0.6154 0.81144 0.0
H2861 H 0.80942 0.63693 0.78633 0.0
H2862 H 0.48041 0.24309 0.90151 0.0
H2863 H 0.45978 0.23848 0.87586 0.0
H2864 H 0.40742 0.18809 0.89927 0.0
H2865 H 0.42777 0.19288 0.92507 0.0
H2866 H 0.44048 0.20324 0.85548 0.0
H2867 H 0.38356 0.22264 0.88121 0.0
H2868 H 0.40757 0.22948 0.89193 0.0
H2869 H 0.38612 0.20423 0.89347 0.0
C2870 C 0.46439 0.23127 0.9013 0.0
C2871 C 0.45569 0.21838 0.91533 0.0
C2872 C 0.45268 0.22858 0.88661 0.0
C2873 C 0.43203 0.2131 0.88575 0.0
C2874 C 0.42324 0.20034 0.89978 0.0
H2875 H 0.33503 0.1621 0.81043 0.0
H2876 H 0.35687 0.17068 0.83581 0.0
C2877 C 0.43494 0.20298 0.91444 0.0
C2878 C 0.41993 0.20958 0.86989 0.0
H2879 H 0.37618 0.20691 0.85393 0.0
C2880 C 0.42652 0.20421 0.85507 0.0
C2881 C 0.40172 0.21081 0.86944 0.0
C2882 C 0.39437 0.21728 0.88481 0.0
C2883 C 0.41502 0.19945 0.8399 0.0
C2884 C 0.39666 0.20046 0.83951 0.0
C2885 C 0.39023 0.2061 0.85428 0.0
C2886 C 0.38364 0.19534 0.824 0.0
C2887 C 0.42226 0.19275 0.82461 0.0
C2888 C 0.39141 0.20648 0.80898 0.0
C2889 C 0.37896 0.20162 0.79446 0.0
C2890 C 0.35844 0.18565 0.79474 0.0
C2891 C 0.35069 0.17462 0.80985 0.0
C2892 C 0.36317 0.17945 0.82434 0.0
H2893 H 0.43356 0.18799 0.8282 0.0
H2894 H 0.40907 0.18003 0.81792 0.0
H2895 H 0.4299 0.20548 0.81557 0.0
H2896 H 0.40703 0.21908 0.80856 0.0
H2897 H 0.38527 0.21061 0.7831 0.0
H2898 H 0.82332 0.22823 0.92684 0.0
H2899 H 0.82961 0.21746 0.89921 0.0
H2900 H 0.77612 0.21715 0.87836 0.0
H2901 H 0.76981 0.2281 0.90601 0.0
H2902 H 0.80273 0.18298 0.87669 0.0
H2903 H 0.82703 0.25866 0.84933 0.0
H2904 H 0.8255 0.25433 0.872 0.0
H2905 H 0.80236 0.24578 0.8597 0.0
C2906 C 0.81276 0.22563 0.91642 0.0
C2907 C 0.79616 0.22914 0.91854 0.0
C2908 C 0.81632 0.21942 0.90068 0.0
C2909 C 0.80347 0.21674 0.88673 0.0
C2910 C 0.7863 0.21929 0.88897 0.0
H2911 H 0.82111 0.17633 0.78603 0.0
H2912 H 0.80453 0.18036 0.81153 0.0
C2913 C 0.78264 0.22539 0.90478 0.0
C2914 C 0.80901 0.21266 0.86967 0.0
H2915 H 0.82985 0.2353 0.83173 0.0
C2916 C 0.80839 0.19427 0.86675 0.0
C2917 C 0.8166 0.22756 0.85684 0.0
C2918 C 0.81809 0.24778 0.85954 0.0
C2919 C 0.8155 0.19051 0.85138 0.0
C2920 C 0.82338 0.20554 0.83868 0.0
C2921 C 0.82365 0.22378 0.84148 0.0
C2922 C 0.83301 0.20329 0.82299 0.0
C2923 C 0.81531 0.17085 0.84906 0.0
C2924 C 0.8544 0.2151 0.82089 0.0
C2925 C 0.86387 0.21283 0.80642 0.0
C2926 C 0.85209 0.19882 0.79366 0.0
C2927 C 0.83056 0.1873 0.79561 0.0
C2928 C 0.8211 0.18948 0.81019 0.0
H2929 H 0.81107 0.16183 0.86094 0.0
H2930 H 0.80399 0.16178 0.839 0.0
H2931 H 0.8307 0.17373 0.84486 0.0
H2932 H 0.86383 0.22592 0.83059 0.0
H2933 H 0.88044 0.22212 0.80519 0.0
H2934 H 0.24308 0.13618 0.43793 0.0
H2935 H 0.26412 0.15052 0.46374 0.0
H2936 H 0.24639 0.09064 0.48112 0.0
H2937 H 0.22506 0.07627 0.45575 0.0
H2938 H 0.24465 0.11585 0.50649 0.0
H2939 H 0.31959 0.15228 0.47218 0.0
H2940 H 0.30069 0.15868 0.46516 0.0
H2941 H 0.2959 0.13342 0.46232 0.0
C2942 C 0.24357 0.12611 0.44734 0.0
C2943 C 0.23265 0.10511 0.4447 0.0
C2944 C 0.25569 0.13431 0.46199 0.0
C2945 C 0.25702 0.12163 0.4742 0.0
C2946 C 0.24567 0.10069 0.4718 0.0
H2947 H 0.34341 0.1335 0.55033 0.0
H2948 H 0.3216 0.12732 0.52527 0.0
C2949 C 0.23363 0.09251 0.45722 0.0
C2950 C 0.27044 0.12989 0.48942 0.0
H2951 H 0.32088 0.15502 0.50203 0.0
C2952 C 0.26131 0.12463 0.50556 0.0
C2953 C 0.29216 0.14115 0.48809 0.0
C2954 C 0.30278 0.14665 0.47104 0.0
C2955 C 0.27335 0.12989 0.52045 0.0
C2956 C 0.29509 0.14093 0.51911 0.0
C2957 C 0.3042 0.14663 0.50299 0.0
C2958 C 0.30866 0.1454 0.53418 0.0
C2959 C 0.26276 0.12281 0.53741 0.0
C2960 C 0.30876 0.1578 0.54742 0.0
C2961 C 0.32126 0.1614 0.56177 0.0
C2962 C 0.33397 0.15276 0.56307 0.0
C2963 C 0.334 0.14058 0.54965 0.0
C2964 C 0.3215 0.13697 0.53534 0.0
H2965 H 0.24625 0.11115 0.53594 0.0
H2966 H 0.27053 0.11652 0.54529 0.0
H2967 H 0.26358 0.13581 0.54439 0.0
H2968 H 0.29922 0.16472 0.54663 0.0
H2969 H 0.32113 0.17111 0.57176 0.0
H2970 H 0.94625 0.14784 0.45288 0.0
H2971 H 0.93227 0.15103 0.48005 0.0
H2972 H 0.87048 0.1142 0.46062 0.0
H2973 H 0.88435 0.1111 0.43327 0.0
H2974 H 0.90681 0.16798 0.48438 0.0
H2975 H 0.86858 0.08893 0.50731 0.0
H2976 H 0.88767 0.09806 0.49064 0.0
H2977 H 0.86165 0.09194 0.48604 0.0
C2978 C 0.92967 0.14039 0.45437 0.0
C2979 C 0.91641 0.12932 0.44084 0.0
C2980 C 0.92172 0.14215 0.46994 0.0
C2981 C 0.90035 0.13272 0.47241 0.0
C2982 C 0.88703 0.12129 0.45909 0.0
H2983 H 0.82091 0.13403 0.5514 0.0
H2984 H 0.83601 0.12756 0.52633 0.0
C2985 C 0.89498 0.11954 0.44347 0.0
C2986 C 0.89211 0.13597 0.48853 0.0
H2987 H 0.86183 0.11172 0.52275 0.0
C2988 C 0.89709 0.15571 0.49284 0.0
C2989 C 0.87937 0.11992 0.49949 0.0
C2990 C 0.8741 0.09852 0.49577 0.0
C2991 C 0.88931 0.1598 0.50763 0.0
C2992 C 0.87655 0.14375 0.51862 0.0
C2993 C 0.87165 0.12401 0.51435 0.0
C2994 C 0.86761 0.1471 0.5343 0.0
C2995 C 0.8943 0.18119 0.51106 0.0
C2996 C 0.88035 0.15992 0.54732 0.0
C2997 C 0.87176 0.16386 0.56161 0.0
C2998 C 0.85024 0.15492 0.56322 0.0
C2999 C 0.83754 0.14151 0.55042 0.0
C3000 C 0.84614 0.13765 0.53614 0.0
H3001 H 0.89968 0.1906 0.4994 0.0
H3002 H 0.88065 0.18158 0.51608 0.0
H3003 H 0.9068 0.18811 0.52072 0.0
H3004 H 0.89696 0.16706 0.54634 0.0
H3005 H 0.88201 0.17431 0.57117 0.0
H3006 H 0.89629 0.7616 0.43304 0.0
H3007 H 0.88973 0.74356 0.46021 0.0
H3008 H 0.86277 0.77766 0.48021 0.0
H3009 H 0.86876 0.79521 0.45306 0.0
H3010 H 0.90123 0.75482 0.49321 0.0
H3011 H 0.81653 0.72089 0.48727 0.0
H3012 H 0.8338 0.73392 0.46992 0.0
H3013 H 0.82978 0.7479 0.48648 0.0
C3014 C 0.8891 0.7653 0.44331 0.0
C3015 C 0.88272 0.77955 0.44087 0.0
C3016 C 0.88533 0.75498 0.4588 0.0
C3017 C 0.87523 0.75884 0.47212 0.0
C3018 C 0.86995 0.77391 0.46997 0.0
H3019 H 0.83565 0.71244 0.57452 0.0
H3020 H 0.84782 0.73361 0.54899 0.0
C3021 C 0.87347 0.78401 0.45447 0.0
C3022 C 0.86977 0.7469 0.48813 0.0
H3023 H 0.82918 0.71731 0.51409 0.0
C3024 C 0.88547 0.74654 0.49772 0.0
C3025 C 0.84915 0.73594 0.494 0.0
C3026 C 0.83133 0.73448 0.4838 0.0
C3027 C 0.88114 0.73591 0.51316 0.0
C3028 C 0.86063 0.72538 0.51914 0.0
C3029 C 0.84494 0.72562 0.50955 0.0
C3030 C 0.85491 0.71343 0.53506 0.0
C3031 C 0.8985 0.73617 0.52313 0.0
C3032 C 0.85493 0.69513 0.53567 0.0
C3033 C 0.84785 0.68296 0.55015 0.0
C3034 C 0.84071 0.68892 0.56435 0.0
C3035 C 0.84122 0.70753 0.56386 0.0
C3036 C 0.84809 0.71959 0.54928 0.0
H3037 H 0.91387 0.74761 0.51826 0.0
H3038 H 0.89744 0.73932 0.53679 0.0
H3039 H 0.89723 0.72112 0.52226 0.0
H3040 H 0.85994 0.69001 0.52477 0.0
H3041 H 0.8478 0.66879 0.5502 0.0
loop_
_geom_bond_atom_site_label_1
_geom_bond_atom_site_label_2
_geom_bond_distance
_geom_bond_site_symmetry_2
_ccdc_geom_bond_type
H0 C1 0.949 . S
C1 H0 0.949 . S
C1 C2 1.395 . S
C1 C3 1.391 . S
C2 C1 1.395 . S
C2 C5 1.390 . S
C3 C1 1.391 . S
C3 C7 1.387 . S
C3 C8 1.491 . S
H4 C5 0.950 . S
C5 C2 1.390 . S
C5 H4 0.950 . S
C5 C6 1.378 . S
C6 C5 1.378 . S
C6 C7 1.409 . S
C7 C3 1.387 . S
C7 C6 1.409 . S
C7 H9 0.951 . S
C8 C3 1.491 . S
C8 C10 1.382 . S
C8 C12 1.404 . S
H9 C7 0.951 . S
C10 C8 1.382 . S
C10 C11 1.390 . S
C10 H15 0.949 . S
C11 C10 1.390 . S
C11 C16 1.399 . S
C12 C8 1.404 . S
C12 H13 0.950 . S
C12 C14 1.375 . S
H13 C12 0.950 . S
C14 C12 1.375 . S
C14 C16 1.382 . S
C14 H18 0.950 . S
H15 C10 0.949 . S
C16 C11 1.399 . S
C16 C14 1.382 . S
C16 H17 0.952 . S
H17 C16 0.952 . S
H18 C14 0.950 . S
H19 C20 0.949 . S
C20 H19 0.949 . S
C20 C21 1.395 . S
C20 C22 1.391 . S
C21 C20 1.395 . S
C21 C24 1.390 . S
C22 C20 1.391 . S
C22 C26 1.387 . S
C22 C27 1.491 . S
H23 C24 0.950 . S
C24 C21 1.390 . S
C24 H23 0.950 . S
C24 C25 1.378 . S
C25 C24 1.378 . S
C25 C26 1.409 . S
C26 C22 1.387 . S
C26 C25 1.409 . S
C26 H28 0.951 . S
C27 C22 1.491 . S
C27 C29 1.382 . S
C27 C31 1.404 . S
H28 C26 0.951 . S
C29 C27 1.382 . S
C29 C30 1.390 . S
C29 H34 0.949 . S
C30 C29 1.390 . S
C30 C35 1.399 . S
C31 C27 1.404 . S
C31 H32 0.950 . S
C31 C33 1.375 . S
H32 C31 0.950 . S
C33 C31 1.375 . S
C33 C35 1.382 . S
C33 H37 0.950 . S
H34 C29 0.949 . S
C35 C30 1.399 . S
C35 C33 1.382 . S
C35 H36 0.952 . S
H36 C35 0.952 . S
H37 C33 0.950 . S
H38 C39 0.949 . S
C39 H38 0.949 . S
C39 C40 1.395 . S
C39 C41 1.391 . S
C40 C39 1.395 . S
C40 C43 1.390 . S
C41 C39 1.391 . S
C41 C45 1.387 . S
C41 C46 1.491 . S
H42 C43 0.950 . S
C43 C40 1.390 . S
C43 H42 0.950 . S
C43 C44 1.378 . S
C44 C43 1.378 . S
C44 C45 1.409 . S
C45 C41 1.387 . S
C45 C44 1.409 . S
C45 H47 0.951 . S
C46 C41 1.491 . S
C46 C48 1.382 . S
C46 C50 1.404 . S
H47 C45 0.951 . S
C48 C46 1.382 . S
C48 C49 1.390 . S
C48 H53 0.949 . S
C49 C48 1.390 . S
C49 C54 1.399 . S
C50 C46 1.404 . S
C50 H51 0.950 . S
C50 C52 1.375 . S
H51 C50 0.950 . S
C52 C50 1.375 . S
C52 C54 1.382 . S
C52 H56 0.950 . S
H53 C48 0.949 . S
C54 C49 1.399 . S
C54 C52 1.382 . S
C54 H55 0.952 . S
H55 C54 0.952 . S
H56 C52 0.950 . S
H57 C58 0.949 . S
C58 H57 0.949 . S
C58 C59 1.395 . S
C58 C60 1.391 . S
C59 C58 1.395 . S
C59 C62 1.390 . S
C60 C58 1.391 . S
C60 C64 1.387 . S
C60 C65 1.491 . S
H61 C62 0.950 . S
C62 C59 1.390 . S
C62 H61 0.950 . S
C62 C63 1.378 . S
C63 C62 1.378 . S
C63 C64 1.409 . S
C64 C60 1.387 . S
C64 C63 1.409 . S
C64 H66 0.951 . S
C65 C60 1.491 . S
C65 C67 1.382 . S
C65 C69 1.404 . S
H66 C64 0.951 . S
C67 C65 1.382 . S
C67 C68 1.390 . S
C67 H72 0.949 . S
C68 C67 1.390 . S
C68 C73 1.399 . S
C69 C65 1.404 . S
C69 H70 0.950 . S
C69 C71 1.375 . S
H70 C69 0.950 . S
C71 C69 1.375 . S
C71 C73 1.382 . S
C71 H75 0.950 . S
H72 C67 0.949 . S
C73 C68 1.399 . S
C73 C71 1.382 . S
C73 H74 0.952 . S
H74 C73 0.952 . S
H75 C71 0.950 . S
H76 C77 0.949 . S
C77 H76 0.949 . S
C77 C78 1.395 . S
C77 C79 1.391 . S
C78 C77 1.395 . S
C78 C81 1.390 . S
C79 C77 1.391 . S
C79 C83 1.387 . S
C79 C84 1.491 . S
H80 C81 0.950 . S
C81 C78 1.390 . S
C81 H80 0.950 . S
C81 C82 1.378 . S
C82 C81 1.378 . S
C82 C83 1.409 . S
C83 C79 1.387 . S
C83 C82 1.409 . S
C83 H85 0.951 . S
C84 C79 1.491 . S
C84 C86 1.382 . S
C84 C88 1.404 . S
H85 C83 0.951 . S
C86 C84 1.382 . S
C86 C87 1.390 . S
C86 H91 0.949 . S
C87 C86 1.390 . S
C87 C92 1.399 . S
C88 C84 1.404 . S
C88 H89 0.950 . S
C88 C90 1.375 . S
H89 C88 0.950 . S
C90 C88 1.375 . S
C90 C92 1.382 . S
C90 H94 0.950 . S
H91 C86 0.949 . S
C92 C87 1.399 . S
C92 C90 1.382 . S
C92 H93 0.952 . S
H93 C92 0.952 . S
H94 C90 0.950 . S
H95 C96 0.949 . S
C96 H95 0.949 . S
C96 C97 1.395 . S
C96 C98 1.391 . S
C97 C96 1.395 . S
C97 C100 1.390 . S
C98 C96 1.391 . S
C98 C102 1.387 . S
C98 C103 1.491 . S
H99 C100 0.950 . S
C100 C97 1.390 . S
C100 H99 0.950 . S
C100 C101 1.378 . S
C101 C100 1.378 . S
C101 C102 1.409 . S
C102 C98 1.387 . S
C102 C101 1.409 . S
C102 H104 0.951 . S
C103 C98 1.491 . S
C103 C105 1.382 . S
C103 C107 1.404 . S
H104 C102 0.951 . S
C105 C103 1.382 . S
C105 C106 1.390 . S
C105 H110 0.949 . S
C106 C105 1.390 . S
C106 C111 1.399 . S
C107 C103 1.404 . S
C107 H108 0.950 . S
C107 C109 1.375 . S
H108 C107 0.950 . S
C109 C107 1.375 . S
C109 C111 1.382 . S
C109 H113 0.950 . S
H110 C105 0.949 . S
C111 C106 1.399 . S
C111 C109 1.382 . S
C111 H112 0.952 . S
H112 C111 0.952 . S
H113 C109 0.950 . S
H114 C115 0.949 . S
C115 H114 0.949 . S
C115 C116 1.395 . S
C115 C117 1.391 . S
C116 C115 1.395 . S
C116 C119 1.390 . S
C117 C115 1.391 . S
C117 C121 1.387 . S
C117 C122 1.491 . S
H118 C119 0.950 . S
C119 C116 1.390 . S
C119 H118 0.950 . S
C119 C120 1.378 . S
C120 C119 1.378 . S
C120 C121 1.409 . S
C121 C117 1.387 . S
C121 C120 1.409 . S
C121 H123 0.951 . S
C122 C117 1.491 . S
C122 C124 1.382 . S
C122 C126 1.404 . S
H123 C121 0.951 . S
C124 C122 1.382 . S
C124 C125 1.390 . S
C124 H129 0.949 . S
C125 C124 1.390 . S
C125 C130 1.399 . S
C126 C122 1.404 . S
C126 H127 0.950 . S
C126 C128 1.375 . S
H127 C126 0.950 . S
C128 C126 1.375 . S
C128 C130 1.382 . S
C128 H132 0.950 . S
H129 C124 0.949 . S
C130 C125 1.399 . S
C130 C128 1.382 . S
C130 H131 0.952 . S
H131 C130 0.952 . S
H132 C128 0.950 . S
H133 C134 0.949 . S
C134 H133 0.949 . S
C134 C135 1.395 . S
C134 C136 1.391 . S
C135 C134 1.395 . S
C135 C138 1.390 . S
C136 C134 1.391 . S
C136 C140 1.387 . S
C136 C141 1.491 . S
H137 C138 0.950 . S
C138 C135 1.390 . S
C138 H137 0.950 . S
C138 C139 1.378 . S
C139 C138 1.378 . S
C139 C140 1.409 . S
C140 C136 1.387 . S
C140 C139 1.409 . S
C140 H142 0.951 . S
C141 C136 1.491 . S
C141 C143 1.382 . S
C141 C145 1.404 . S
H142 C140 0.951 . S
C143 C141 1.382 . S
C143 C144 1.390 . S
C143 H148 0.949 . S
C144 C143 1.390 . S
C144 C149 1.399 . S
C145 C141 1.404 . S
C145 H146 0.950 . S
C145 C147 1.375 . S
H146 C145 0.950 . S
C147 C145 1.375 . S
C147 C149 1.382 . S
C147 H151 0.950 . S
H148 C143 0.949 . S
C149 C144 1.399 . S
C149 C147 1.382 . S
C149 H150 0.952 . S
H150 C149 0.952 . S
H151 C147 0.950 . S
H152 C153 0.949 . S
C153 H152 0.949 . S
C153 C154 1.395 . S
C153 C155 1.391 . S
C154 C153 1.395 . S
C154 C157 1.390 . S
C155 C153 1.391 . S
C155 C159 1.387 . S
C155 C160 1.491 . S
H156 C157 0.950 . S
C157 C154 1.390 . S
C157 H156 0.950 . S
C157 C158 1.378 . S
C158 C157 1.378 . S
C158 C159 1.409 . S
C159 C155 1.387 . S
C159 C158 1.409 . S
C159 H161 0.951 . S
C160 C155 1.491 . S
C160 C162 1.382 . S
C160 C164 1.404 . S
H161 C159 0.951 . S
C162 C160 1.382 . S
C162 C163 1.390 . S
C162 H167 0.949 . S
C163 C162 1.390 . S
C163 C168 1.399 . S
C164 C160 1.404 . S
C164 H165 0.950 . S
C164 C166 1.375 . S
H165 C164 0.950 . S
C166 C164 1.375 . S
C166 C168 1.382 . S
C166 H170 0.950 . S
H167 C162 0.949 . S
C168 C163 1.399 . S
C168 C166 1.382 . S
C168 H169 0.952 . S
H169 C168 0.952 . S
H170 C166 0.950 . S
H171 C172 0.949 . S
C172 H171 0.949 . S
C172 C173 1.395 . S
C172 C174 1.391 . S
C173 C172 1.395 . S
C173 C176 1.390 . S
C174 C172 1.391 . S
C174 C178 1.387 . S
C174 C179 1.491 . S
H175 C176 0.950 . S
C176 C173 1.390 . S
C176 H175 0.950 . S
C176 C177 1.378 . S
C177 C176 1.378 . S
C177 C178 1.409 . S
C178 C174 1.387 . S
C178 C177 1.409 . S
C178 H180 0.951 . S
C179 C174 1.491 . S
C179 C181 1.382 . S
C179 C183 1.404 . S
H180 C178 0.951 . S
C181 C179 1.382 . S
C181 C182 1.390 . S
C181 H186 0.949 . S
C182 C181 1.390 . S
C182 C187 1.399 . S
C183 C179 1.404 . S
C183 H184 0.950 . S
C183 C185 1.375 . S
H184 C183 0.950 . S
C185 C183 1.375 . S
C185 C187 1.382 . S
C185 H189 0.950 . S
H186 C181 0.949 . S
C187 C182 1.399 . S
C187 C185 1.382 . S
C187 H188 0.952 . S
H188 C187 0.952 . S
H189 C185 0.950 . S
H190 C191 0.949 . S
C191 H190 0.949 . S
C191 C192 1.395 . S
C191 C193 1.391 . S
C192 C191 1.395 . S
C192 C195 1.390 . S
C193 C191 1.391 . S
C193 C197 1.387 . S
C193 C198 1.491 . S
H194 C195 0.950 . S
C195 C192 1.390 . S
C195 H194 0.950 . S
C195 C196 1.378 . S
C196 C195 1.378 . S
C196 C197 1.409 . S
C197 C193 1.387 . S
C197 C196 1.409 . S
C197 H199 0.951 . S
C198 C193 1.491 . S
C198 C200 1.382 . S
C198 C202 1.404 . S
H199 C197 0.951 . S
C200 C198 1.382 . S
C200 C201 1.390 . S
C200 H205 0.949 . S
C201 C200 1.390 . S
C201 C206 1.399 . S
C202 C198 1.404 . S
C202 H203 0.950 . S
C202 C204 1.375 . S
H203 C202 0.950 . S
C204 C202 1.375 . S
C204 C206 1.382 . S
C204 H208 0.950 . S
H205 C200 0.949 . S
C206 C201 1.399 . S
C206 C204 1.382 . S
C206 H207 0.952 . S
H207 C206 0.952 . S
H208 C204 0.950 . S
H209 C210 0.949 . S
C210 H209 0.949 . S
C210 C211 1.395 . S
C210 C212 1.391 . S
C211 C210 1.395 . S
C211 C214 1.390 . S
C212 C210 1.391 . S
C212 C216 1.387 . S
C212 C217 1.491 . S
H213 C214 0.950 . S
C214 C211 1.390 . S
C214 H213 0.950 . S
C214 C215 1.378 . S
C215 C214 1.378 . S
C215 C216 1.409 . S
C216 C212 1.387 . S
C216 C215 1.409 . S
C216 H218 0.951 . S
C217 C212 1.491 . S
C217 C219 1.382 . S
C217 C221 1.404 . S
H218 C216 0.951 . S
C219 C217 1.382 . S
C219 C220 1.390 . S
C219 H224 0.949 . S
C220 C219 1.390 . S
C220 C225 1.399 . S
C221 C217 1.404 . S
C221 H222 0.950 . S
C221 C223 1.375 . S
H222 C221 0.950 . S
C223 C221 1.375 . S
C223 C225 1.382 . S
C223 H227 0.950 . S
H224 C219 0.949 . S
C225 C220 1.399 . S
C225 C223 1.382 . S
C225 H226 0.952 . S
H226 C225 0.952 . S
H227 C223 0.950 . S
H228 C229 0.949 . S
C229 H228 0.949 . S
C229 C230 1.395 . S
C229 C231 1.391 . S
C230 C229 1.395 . S
C230 C233 1.390 . S
C231 C229 1.391 . S
C231 C235 1.387 . S
C231 C236 1.491 . S
H232 C233 0.950 . S
C233 C230 1.390 . S
C233 H232 0.950 . S
C233 C234 1.378 . S
C234 C233 1.378 . S
C234 C235 1.409 . S
C235 C231 1.387 . S
C235 C234 1.409 . S
C235 H237 0.951 . S
C236 C231 1.491 . S
C236 C238 1.382 . S
C236 C240 1.404 . S
H237 C235 0.951 . S
C238 C236 1.382 . S
C238 C239 1.390 . S
C238 H243 0.949 . S
C239 C238 1.390 . S
C239 C244 1.399 . S
C240 C236 1.404 . S
C240 H241 0.950 . S
C240 C242 1.375 . S
H241 C240 0.950 . S
C242 C240 1.375 . S
C242 C244 1.382 . S
C242 H246 0.950 . S
H243 C238 0.949 . S
C244 C239 1.399 . S
C244 C242 1.382 . S
C244 H245 0.952 . S
H245 C244 0.952 . S
H246 C242 0.950 . S
H247 C248 0.949 . S
C248 H247 0.949 . S
C248 C249 1.395 . S
C248 C250 1.391 . S
C249 C248 1.395 . S
C249 C252 1.390 . S
C250 C248 1.391 . S
C250 C254 1.387 . S
C250 C255 1.491 . S
H251 C252 0.950 . S
C252 C249 1.390 . S
C252 H251 0.950 . S
C252 C253 1.378 . S
C253 C252 1.378 . S
C253 C254 1.409 . S
C254 C250 1.387 . S
C254 C253 1.409 . S
C254 H256 0.951 . S
C255 C250 1.491 . S
C255 C257 1.382 . S
C255 C259 1.404 . S
H256 C254 0.951 . S
C257 C255 1.382 . S
C257 C258 1.390 . S
C257 H262 0.949 . S
C258 C257 1.390 . S
C258 C263 1.399 . S
C259 C255 1.404 . S
C259 H260 0.950 . S
C259 C261 1.375 . S
H260 C259 0.950 . S
C261 C259 1.375 . S
C261 C263 1.382 . S
C261 H265 0.950 . S
H262 C257 0.949 . S
C263 C258 1.399 . S
C263 C261 1.382 . S
C263 H264 0.952 . S
H264 C263 0.952 . S
H265 C261 0.950 . S
H266 C267 0.949 . S
C267 H266 0.949 . S
C267 C268 1.395 . S
C267 C269 1.391 . S
C268 C267 1.395 . S
C268 C271 1.390 . S
C269 C267 1.391 . S
C269 C273 1.387 . S
C269 C274 1.491 . S
H270 C271 0.950 . S
C271 C268 1.390 . S
C271 H270 0.950 . S
C271 C272 1.378 . S
C272 C271 1.378 . S
C272 C273 1.409 . S
C273 C269 1.387 . S
C273 C272 1.409 . S
C273 H275 0.951 . S
C274 C269 1.491 . S
C274 C276 1.382 . S
C274 C278 1.404 . S
H275 C273 0.951 . S
C276 C274 1.382 . S
C276 C277 1.390 . S
C276 H281 0.949 . S
C277 C276 1.390 . S
C277 C282 1.399 . S
C278 C274 1.404 . S
C278 H279 0.950 . S
C278 C280 1.375 . S
H279 C278 0.950 . S
C280 C278 1.375 . S
C280 C282 1.382 . S
C280 H284 0.950 . S
H281 C276 0.949 . S
C282 C277 1.399 . S
C282 C280 1.382 . S
C282 H283 0.952 . S
H283 C282 0.952 . S
H284 C280 0.950 . S
H285 C286 0.949 . S
C286 H285 0.949 . S
C286 C287 1.395 . S
C286 C288 1.391 . S
C287 C286 1.395 . S
C287 C290 1.390 . S
C288 C286 1.391 . S
C288 C292 1.387 . S
C288 C293 1.491 . S
H289 C290 0.950 . S
C290 C287 1.390 . S
C290 H289 0.950 . S
C290 C291 1.378 . S
C291 C290 1.378 . S
C291 C292 1.409 . S
C292 C288 1.387 . S
C292 C291 1.409 . S
C292 H294 0.951 . S
C293 C288 1.491 . S
C293 C295 1.382 . S
C293 C297 1.404 . S
H294 C292 0.951 . S
C295 C293 1.382 . S
C295 C296 1.390 . S
C295 H300 0.949 . S
C296 C295 1.390 . S
C296 C301 1.399 . S
C297 C293 1.404 . S
C297 H298 0.950 . S
C297 C299 1.375 . S
H298 C297 0.950 . S
C299 C297 1.375 . S
C299 C301 1.382 . S
C299 H303 0.950 . S
H300 C295 0.949 . S
C301 C296 1.399 . S
C301 C299 1.382 . S
C301 H302 0.952 . S
H302 C301 0.952 . S
H303 C299 0.950 . S
H304 C305 0.949 . S
C305 H304 0.949 . S
C305 C306 1.395 . S
C305 C307 1.391 . S
C306 C305 1.395 . S
C306 C309 1.390 . S
C307 C305 1.391 . S
C307 C311 1.387 . S
C307 C312 1.491 . S
H308 C309 0.950 . S
C309 C306 1.390 . S
C309 H308 0.950 . S
C309 C310 1.378 . S
C310 C309 1.378 . S
C310 C311 1.409 . S
C311 C307 1.387 . S
C311 C310 1.409 . S
C311 H313 0.951 . S
C312 C307 1.491 . S
C312 C314 1.382 . S
C312 C316 1.404 . S
H313 C311 0.951 . S
C314 C312 1.382 . S
C314 C315 1.390 . S
C314 H319 0.949 . S
C315 C314 1.390 . S
C315 C320 1.399 . S
C316 C312 1.404 . S
C316 H317 0.950 . S
C316 C318 1.375 . S
H317 C316 0.950 . S
C318 C316 1.375 . S
C318 C320 1.382 . S
C318 H322 0.950 . S
H319 C314 0.949 . S
C320 C315 1.399 . S
C320 C318 1.382 . S
C320 H321 0.952 . S
H321 C320 0.952 . S
H322 C318 0.950 . S
H323 C324 0.949 . S
C324 H323 0.949 . S
C324 C325 1.395 . S
C324 C326 1.391 . S
C325 C324 1.395 . S
C325 C328 1.390 . S
C326 C324 1.391 . S
C326 C330 1.387 . S
C326 C331 1.491 . S
H327 C328 0.950 . S
C328 C325 1.390 . S
C328 H327 0.950 . S
C328 C329 1.378 . S
C329 C328 1.378 . S
C329 C330 1.409 . S
C330 C326 1.387 . S
C330 C329 1.409 . S
C330 H332 0.951 . S
C331 C326 1.491 . S
C331 C333 1.382 . S
C331 C335 1.404 . S
H332 C330 0.951 . S
C333 C331 1.382 . S
C333 C334 1.390 . S
C333 H338 0.949 . S
C334 C333 1.390 . S
C334 C339 1.399 . S
C335 C331 1.404 . S
C335 H336 0.950 . S
C335 C337 1.375 . S
H336 C335 0.950 . S
C337 C335 1.375 . S
C337 C339 1.382 . S
C337 H341 0.950 . S
H338 C333 0.949 . S
C339 C334 1.399 . S
C339 C337 1.382 . S
C339 H340 0.952 . S
H340 C339 0.952 . S
H341 C337 0.950 . S
Eu342 N373 2.657 . S
Eu342 N380 2.609 . S
Eu342 O386 2.558 . S
Eu342 O387 2.612 1_566 S
Eu342 O389 2.339 1_565 S
Eu342 O390 2.563 1_565 S
Eu342 O391 2.419 1_565 S
Eu342 O393 2.380 1_556 S
Eu342 O394 2.432 . S
Eu342 C406 2.848 1_565 S
C343 C346 1.429 . S
C343 C347 1.411 . S
C343 N350 1.377 . S
C344 C346 1.420 . S
C344 C348 1.423 . S
C344 C356 1.392 . S
C345 C347 1.420 . S
C345 C348 1.351 . S
C345 H368 0.931 . S
C346 C343 1.429 . S
C346 C344 1.420 . S
C346 N354 1.362 . S
C347 C343 1.411 . S
C347 C345 1.420 . S
C347 C352 1.395 . S
C348 C344 1.423 . S
C348 C345 1.351 . S
C348 H360 0.930 . S
C349 C351 1.400 . S
C349 C352 1.386 . S
C349 H361 0.930 . S
N350 C343 1.377 . S
N350 C351 1.321 . S
N350 Eu353 2.609 . S
C351 C349 1.400 . S
C351 N350 1.321 . S
C351 H358 0.930 . S
C352 C347 1.395 . S
C352 C349 1.386 . S
C352 H371 0.930 . S
Eu353 N350 2.609 . S
Eu353 N354 2.657 . S
Eu353 O387 2.380 . S
Eu353 O388 2.432 . S
Eu353 O392 2.558 . S
Eu353 O393 2.612 1_545 S
Eu353 O395 2.339 1_545 S
Eu353 O396 2.563 1_545 S
Eu353 O397 2.419 1_545 S
Eu353 C417 2.849 . S
N354 C346 1.362 . S
N354 Eu353 2.657 . S
N354 C355 1.334 . S
C355 N354 1.334 . S
C355 C357 1.413 . S
C355 H362 0.929 . S
C356 C344 1.392 . S
C356 C357 1.367 . S
C356 H364 0.930 . S
C357 C355 1.413 . S
C357 C356 1.367 . S
C357 H359 0.930 . S
H358 C351 0.930 . S
H359 C357 0.930 . S
H360 C348 0.930 . S
H361 C349 0.930 . S
H362 C355 0.929 . S
H363 C377 0.930 . S
H364 C356 0.930 . S
H365 C383 0.930 . S
H366 C374 0.929 1_545 S
H367 C381 0.930 . S
H368 C345 0.931 . S
H369 C375 0.930 . S
H370 C408 0.930 . S
H371 C352 0.930 . S
H372 C407 0.931 . S
N373 Eu342 2.657 . S
N373 C374 1.334 . S
N373 C378 1.362 . S
C374 H366 0.929 1_565 S
C374 N373 1.334 . S
C374 C377 1.413 . S
C375 H369 0.930 . S
C375 C376 1.392 . S
C375 C377 1.367 . S
C376 C375 1.392 . S
C376 C378 1.420 . S
C376 C408 1.423 . S
C377 H363 0.930 . S
C377 C374 1.413 . S
C377 C375 1.367 . S
C378 N373 1.362 . S
C378 C376 1.420 . S
C378 C382 1.429 . S
H379 C384 0.930 . S
N380 Eu342 2.609 . S
N380 C382 1.377 . S
N380 C383 1.321 . S
C381 H367 0.930 . S
C381 C383 1.400 . S
C381 C384 1.386 . S
C382 C378 1.429 . S
C382 N380 1.377 . S
C382 C385 1.411 . S
C383 H365 0.930 . S
C383 N380 1.321 . S
C383 C381 1.400 . S
C384 H379 0.930 . S
C384 C381 1.386 . S
C384 C385 1.395 . S
C385 C382 1.411 . S
C385 C384 1.395 . S
C385 C407 1.420 . S
O386 Eu342 2.558 . S
O386 C406 1.257 1_565 S
O387 Eu342 2.612 1_544 S
O387 Eu353 2.380 . S
O387 C398 1.276 1_554 S
O388 Eu353 2.432 . S
O388 C405 1.264 . S
O389 Eu342 2.339 1_545 S
O389 C405 1.254 1_556 S
O390 Eu342 2.563 1_545 S
O390 C398 1.235 . S
O391 Eu342 2.419 1_545 S
O391 C406 1.249 . S
O392 Eu353 2.558 . S
O392 C417 1.263 . S
O393 Eu342 2.380 1_554 S
O393 Eu353 2.612 1_565 S
O393 C409 1.276 . S
O394 Eu342 2.432 . S
O394 C416 1.264 1_556 S
O395 Eu353 2.339 1_565 S
O395 C416 1.254 . S
O396 Eu353 2.563 1_565 S
O396 C409 1.235 . S
O397 Eu353 2.419 1_565 S
O397 C417 1.244 1_565 S
C398 O387 1.276 1_556 S
C398 O390 1.235 . S
C399 C401 1.393 . S
C399 C403 1.435 . S
C399 C406 1.492 . S
C400 C401 1.392 . S
C400 C402 1.386 . S
C401 C399 1.393 . S
C401 C400 1.392 . S
C401 H418 0.930 . S
C402 C400 1.386 . S
C402 C404 1.395 . S
C402 H419 0.930 . S
C403 C399 1.435 . S
C403 C404 1.392 . S
C403 H420 0.879 1_545 S
C404 C402 1.395 . S
C404 C403 1.392 . S
C404 H421 0.902 1_545 S
C405 O388 1.264 . S
C405 O389 1.254 1_554 S
C406 Eu342 2.848 1_545 S
C406 O386 1.257 1_545 S
C406 O391 1.249 . S
C406 C399 1.492 . S
C407 H372 0.931 . S
C407 C385 1.420 . S
C407 C408 1.351 . S
C408 H370 0.930 . S
C408 C376 1.423 . S
C408 C407 1.351 . S
C409 O393 1.276 . S
C409 O396 1.235 . S
C410 C411 1.393 . S
C410 C414 1.395 1_565 S
C410 C417 1.490 1_565 S
C411 C410 1.393 . S
C411 C412 1.392 . S
C411 H422 0.930 . S
C412 C411 1.392 . S
C412 C413 1.386 . S
C413 C412 1.386 . S
C413 C415 1.395 . S
C413 H423 0.930 . S
C414 C410 1.395 1_545 S
C414 C415 1.379 1_545 S
C414 H424 0.930 . S
C415 C413 1.395 . S
C415 C414 1.379 1_565 S
C415 H425 0.930 1_565 S
C416 O394 1.264 1_554 S
C416 O395 1.254 . S
C417 Eu353 2.849 . S
C417 O392 1.263 . S
C417 O397 1.244 1_545 S
C417 C410 1.490 1_545 S
H418 C401 0.930 . S
H419 C402 0.930 . S
H420 C403 0.879 1_565 S
H421 C404 0.902 1_565 S
H422 C411 0.930 . S
H423 C413 0.930 . S
H424 C414 0.930 . S
H425 C415 0.930 1_545 S
Eu426 N457 2.657 . S
Eu426 N464 2.609 . S
Eu426 O470 2.558 . S
Eu426 O471 2.612 1_456 S
Eu426 O473 2.339 1_455 S
Eu426 O474 2.563 1_455 S
Eu426 O475 2.419 1_455 S
Eu426 O477 2.380 1_556 S
Eu426 O478 2.432 . S
Eu426 C490 2.848 . S
C427 C430 1.429 . S
C427 C431 1.411 . S
C427 N434 1.377 . S
C428 C430 1.420 . S
C428 C432 1.423 . S
C428 C440 1.392 . S
C429 C431 1.420 . S
C429 C432 1.351 . S
C429 H452 0.931 . S
C430 C427 1.429 . S
C430 C428 1.420 . S
C430 N438 1.362 . S
C431 C427 1.411 . S
C431 C429 1.420 . S
C431 C436 1.395 . S
C432 C428 1.423 . S
C432 C429 1.351 . S
C432 H444 0.930 . S
C433 C435 1.400 . S
C433 C436 1.386 . S
C433 H445 0.930 . S
N434 C427 1.377 . S
N434 C435 1.321 . S
N434 Eu437 2.609 . S
C435 C433 1.400 . S
C435 N434 1.321 . S
C435 H442 0.930 . S
C436 C431 1.395 . S
C436 C433 1.386 . S
C436 H455 0.930 . S
Eu437 N434 2.609 . S
Eu437 N438 2.657 . S
Eu437 O471 2.380 . S
Eu437 O472 2.432 . S
Eu437 O476 2.558 . S
Eu437 O477 2.612 1_655 S
Eu437 O479 2.339 1_655 S
Eu437 O480 2.563 1_655 S
Eu437 O481 2.419 1_655 S
Eu437 C501 2.848 1_655 S
N438 C430 1.362 . S
N438 Eu437 2.657 . S
N438 C439 1.334 . S
C439 N438 1.334 . S
C439 C441 1.413 . S
C439 H446 0.929 1_655 S
C440 C428 1.392 . S
C440 C441 1.367 . S
C440 H448 0.930 . S
C441 C439 1.413 . S
C441 C440 1.367 . S
C441 H443 0.930 . S
H442 C435 0.930 . S
H443 C441 0.930 . S
H444 C432 0.930 . S
H445 C433 0.930 . S
H446 C439 0.929 1_455 S
H447 C461 0.930 . S
H448 C440 0.930 . S
H449 C467 0.930 . S
H450 C458 0.929 . S
H451 C465 0.930 . S
H452 C429 0.931 . S
H453 C459 0.930 . S
H454 C492 0.930 . S
H455 C436 0.930 . S
H456 C491 0.931 . S
N457 Eu426 2.657 . S
N457 C458 1.334 . S
N457 C462 1.362 . S
C458 H450 0.929 . S
C458 N457 1.334 . S
C458 C461 1.413 . S
C459 H453 0.930 . S
C459 C460 1.392 . S
C459 C461 1.367 . S
C460 C459 1.392 . S
C460 C462 1.420 . S
C460 C492 1.423 . S
C461 H447 0.930 . S
C461 C458 1.413 . S
C461 C459 1.367 . S
C462 N457 1.362 . S
C462 C460 1.420 . S
C462 C466 1.429 . S
H463 C468 0.930 . S
N464 Eu426 2.609 . S
N464 C466 1.377 . S
N464 C467 1.321 . S
C465 H451 0.930 . S
C465 C467 1.400 . S
C465 C468 1.386 . S
C466 C462 1.429 . S
C466 N464 1.377 . S
C466 C469 1.411 . S
C467 H449 0.930 . S
C467 N464 1.321 . S
C467 C465 1.400 . S
C468 H463 0.930 . S
C468 C465 1.386 . S
C468 C469 1.395 . S
C469 C466 1.411 . S
C469 C468 1.395 . S
C469 C491 1.420 . S
O470 Eu426 2.558 . S
O470 C490 1.257 . S
O471 Eu426 2.612 1_654 S
O471 Eu437 2.380 . S
O471 C482 1.276 1_554 S
O472 Eu437 2.432 . S
O472 C489 1.264 . S
O473 Eu426 2.339 1_655 S
O473 C489 1.254 1_556 S
O474 Eu426 2.563 1_655 S
O474 C482 1.235 . S
O475 Eu426 2.419 1_655 S
O475 C490 1.249 1_655 S
O476 Eu437 2.558 . S
O476 C501 1.257 1_655 S
O477 Eu426 2.380 1_554 S
O477 Eu437 2.612 1_455 S
O477 C493 1.276 . S
O478 Eu426 2.432 . S
O478 C500 1.264 1_556 S
O479 Eu437 2.339 1_455 S
O479 C500 1.254 . S
O480 Eu437 2.563 1_455 S
O480 C493 1.235 . S
O481 Eu437 2.419 1_455 S
O481 C501 1.249 . S
C482 O471 1.276 1_556 S
C482 O474 1.235 . S
C483 C485 1.393 . S
C483 C487 1.395 1_655 S
C483 C490 1.492 1_655 S
C484 C485 1.392 . S
C484 C486 1.386 . S
C485 C483 1.393 . S
C485 C484 1.392 . S
C485 H502 0.930 . S
C486 C484 1.386 . S
C486 C488 1.395 1_655 S
C486 H503 0.930 . S
C487 C483 1.395 1_455 S
C487 C488 1.379 . S
C487 H504 0.930 . S
C488 C486 1.395 1_455 S
C488 C487 1.379 . S
C488 H505 0.930 . S
C489 O472 1.264 . S
C489 O473 1.254 1_554 S
C490 Eu426 2.848 . S
C490 O470 1.257 . S
C490 O475 1.249 1_455 S
C490 C483 1.492 1_455 S
C491 H456 0.931 . S
C491 C469 1.420 . S
C491 C492 1.351 . S
C492 H454 0.930 . S
C492 C460 1.423 . S
C492 C491 1.351 . S
C493 O477 1.276 . S
C493 O480 1.235 . S
C494 C495 1.393 . S
C494 C498 1.387 1_455 S
C494 C501 1.492 . S
C495 C494 1.393 . S
C495 C496 1.392 . S
C495 H506 0.930 . S
C496 C495 1.392 . S
C496 C497 1.386 . S
C497 C496 1.386 . S
C497 C499 1.395 . S
C497 H507 0.930 . S
C498 C494 1.387 1_655 S
C498 C499 1.369 1_655 S
C498 H508 0.948 . S
C499 C497 1.395 . S
C499 C498 1.369 1_455 S
C499 H509 0.930 1_455 S
C500 O478 1.264 1_554 S
C500 O479 1.254 . S
C501 Eu437 2.848 1_455 S
C501 O476 1.257 1_455 S
C501 O481 1.249 . S
C501 C494 1.492 . S
H502 C485 0.930 . S
H503 C486 0.930 . S
H504 C487 0.930 . S
H505 C488 0.930 . S
H506 C495 0.930 . S
H507 C497 0.930 . S
H508 C498 0.948 . S
H509 C499 0.930 1_655 S
Eu510 N541 2.657 . S
Eu510 N548 2.609 . S
Eu510 O554 2.558 . S
Eu510 O555 2.612 . S
Eu510 O557 2.339 . S
Eu510 O558 2.563 . S
Eu510 O559 2.419 . S
Eu510 O561 2.380 . S
Eu510 O562 2.432 . S
Eu510 C574 2.848 . S
C511 C514 1.429 . S
C511 C515 1.411 . S
C511 N518 1.377 . S
C512 C514 1.420 . S
C512 C516 1.423 . S
C512 C524 1.392 . S
C513 C515 1.420 . S
C513 C516 1.351 . S
C513 H536 0.931 . S
C514 C511 1.429 . S
C514 C512 1.420 . S
C514 N522 1.362 . S
C515 C511 1.411 . S
C515 C513 1.420 . S
C515 C520 1.395 . S
C516 C512 1.423 . S
C516 C513 1.351 . S
C516 H528 0.930 . S
C517 C519 1.400 . S
C517 C520 1.386 . S
C517 H529 0.930 . S
N518 C511 1.377 . S
N518 C519 1.321 . S
N518 Eu521 2.609 . S
C519 C517 1.400 . S
C519 N518 1.321 . S
C519 H526 0.930 . S
C520 C515 1.395 . S
C520 C517 1.386 . S
C520 H539 0.930 . S
Eu521 N518 2.609 . S
Eu521 N522 2.657 . S
Eu521 O555 2.380 1_556 S
Eu521 O556 2.427 1_556 S
Eu521 O560 2.558 . S
Eu521 O561 2.612 1_556 S
Eu521 O563 2.339 . S
Eu521 O564 2.563 . S
Eu521 O565 2.419 . S
Eu521 C585 2.848 . S
N522 C514 1.362 . S
N522 Eu521 2.657 . S
N522 C523 1.334 . S
C523 N522 1.334 . S
C523 C525 1.413 . S
C523 H530 0.929 . S
C524 C512 1.392 . S
C524 C525 1.367 . S
C524 H532 0.930 . S
C525 C523 1.413 . S
C525 C524 1.367 . S
C525 H527 0.930 . S
H526 C519 0.930 . S
H527 C525 0.930 . S
H528 C516 0.930 . S
H529 C517 0.930 . S
H530 C523 0.929 . S
H531 C545 0.930 . S
H532 C524 0.930 . S
H533 C551 0.930 . S
H534 C542 0.929 . S
H535 C549 0.930 . S
H536 C513 0.931 . S
H537 C543 0.930 . S
H538 C576 0.930 . S
H539 C520 0.930 . S
H540 C575 0.931 . S
N541 Eu510 2.657 . S
N541 C542 1.334 . S
N541 C546 1.362 . S
C542 H534 0.929 . S
C542 N541 1.334 . S
C542 C545 1.413 . S
C543 H537 0.930 . S
C543 C544 1.392 . S
C543 C545 1.367 . S
C544 C543 1.392 . S
C544 C546 1.420 . S
C544 C576 1.423 . S
C545 H531 0.930 . S
C545 C542 1.413 . S
C545 C543 1.367 . S
C546 N541 1.362 . S
C546 C544 1.420 . S
C546 C550 1.429 . S
H547 C552 0.930 . S
N548 Eu510 2.609 . S
N548 C550 1.377 . S
N548 C551 1.321 . S
C549 H535 0.930 . S
C549 C551 1.400 . S
C549 C552 1.386 . S
C550 C546 1.429 . S
C550 N548 1.377 . S
C550 C553 1.411 . S
C551 H533 0.930 . S
C551 N548 1.321 . S
C551 C549 1.400 . S
C552 H547 0.930 . S
C552 C549 1.386 . S
C552 C553 1.395 . S
C553 C550 1.411 . S
C553 C552 1.395 . S
C553 C575 1.420 . S
O554 Eu510 2.558 . S
O554 C574 1.257 . S
O555 Eu510 2.612 . S
O555 Eu521 2.380 1_554 S
O555 C566 1.276 . S
O556 Eu521 2.427 1_554 S
O556 C573 1.276 . S
O557 Eu510 2.339 . S
O557 C573 1.254 . S
O558 Eu510 2.563 . S
O558 C566 1.235 . S
O559 Eu510 2.419 . S
O559 C574 1.249 . S
O560 Eu521 2.558 . S
O560 C585 1.257 . S
O561 Eu510 2.380 . S
O561 Eu521 2.612 1_554 S
O561 C577 1.276 1_554 S
O562 Eu510 2.432 . S
O562 C584 1.264 . S
O563 Eu521 2.339 . S
O563 C584 1.254 1_556 S
O564 Eu521 2.563 . S
O564 C577 1.235 . S
O565 Eu521 2.419 . S
O565 C585 1.249 . S
C566 O555 1.276 . S
C566 O558 1.235 . S
C567 C569 1.393 . S
C567 C571 1.395 . S
C567 C574 1.492 . S
C568 C569 1.392 . S
C568 C570 1.386 . S
C569 C567 1.393 . S
C569 C568 1.392 . S
C569 H586 0.930 . S
C570 C568 1.386 . S
C570 C572 1.395 . S
C570 H587 0.930 . S
C571 C567 1.395 . S
C571 C572 1.379 . S
C571 H588 0.930 . S
C572 C570 1.395 . S
C572 C571 1.379 . S
C572 H589 0.930 . S
C573 O556 1.276 . S
C573 O557 1.254 . S
C574 Eu510 2.848 . S
C574 O554 1.257 . S
C574 O559 1.249 . S
C574 C567 1.492 . S
C575 H540 0.931 . S
C575 C553 1.420 . S
C575 C576 1.351 . S
C576 H538 0.930 . S
C576 C544 1.423 . S
C576 C575 1.351 . S
C577 O561 1.276 1_556 S
C577 O564 1.235 . S
C578 C579 1.393 . S
C578 C582 1.395 . S
C578 C585 1.492 . S
C579 C578 1.393 . S
C579 C580 1.392 . S
C579 H590 0.930 . S
C580 C579 1.392 . S
C580 C581 1.386 . S
C581 C580 1.386 . S
C581 C583 1.395 . S
C581 H591 0.930 . S
C582 C578 1.395 . S
C582 C583 1.379 . S
C582 H592 0.930 . S
C583 C581 1.395 . S
C583 C582 1.379 . S
C583 H593 0.930 . S
C584 O562 1.264 . S
C584 O563 1.254 1_554 S
C585 Eu521 2.848 . S
C585 O560 1.257 . S
C585 O565 1.249 . S
C585 C578 1.492 . S
H586 C569 0.930 . S
H587 C570 0.930 . S
H588 C571 0.930 . S
H589 C572 0.930 . S
H590 C579 0.930 . S
H591 C581 0.930 . S
H592 C582 0.930 . S
H593 C583 0.930 . S
Eu594 N625 2.657 . S
Eu594 N632 2.609 . S
Eu594 O638 2.558 . S
Eu594 O639 2.612 . S
Eu594 O641 2.339 . S
Eu594 O642 2.563 . S
Eu594 O643 2.419 . S
Eu594 O645 2.380 . S
Eu594 O646 2.432 . S
Eu594 C658 2.848 . S
C595 C598 1.429 . S
C595 C599 1.411 . S
C595 N602 1.377 . S
C596 C598 1.420 . S
C596 C600 1.423 . S
C596 C608 1.392 . S
C597 C599 1.420 . S
C597 C600 1.351 . S
C597 H620 0.931 . S
C598 C595 1.429 . S
C598 C596 1.420 . S
C598 N606 1.362 . S
C599 C595 1.411 . S
C599 C597 1.420 . S
C599 C604 1.395 . S
C600 C596 1.423 . S
C600 C597 1.351 . S
C600 H612 0.930 . S
C601 C603 1.400 . S
C601 C604 1.386 . S
C601 H613 0.930 . S
N602 C595 1.377 . S
N602 C603 1.321 . S
N602 Eu605 2.609 . S
C603 C601 1.400 . S
C603 N602 1.321 . S
C603 H610 0.930 . S
C604 C599 1.395 . S
C604 C601 1.386 . S
C604 H623 0.930 . S
Eu605 N602 2.609 . S
Eu605 N606 2.657 . S
Eu605 O639 2.380 . S
Eu605 O640 2.432 . S
Eu605 O644 2.558 . S
Eu605 O645 2.612 . S
Eu605 O647 2.339 . S
Eu605 O648 2.563 . S
Eu605 O649 2.419 . S
Eu605 C669 2.848 . S
N606 C598 1.362 . S
N606 Eu605 2.657 . S
N606 C607 1.334 . S
C607 N606 1.334 . S
C607 C609 1.413 . S
C607 H614 0.929 . S
C608 C596 1.392 . S
C608 C609 1.367 . S
C608 H616 0.930 . S
C609 C607 1.413 . S
C609 C608 1.367 . S
C609 H611 0.930 . S
H610 C603 0.930 . S
H611 C609 0.930 . S
H612 C600 0.930 . S
H613 C601 0.930 . S
H614 C607 0.929 . S
H615 C629 0.930 . S
H616 C608 0.930 . S
H617 C635 0.930 . S
H618 C626 0.929 . S
H619 C633 0.930 . S
H620 C597 0.931 . S
H621 C627 0.930 . S
H622 C660 0.930 . S
H623 C604 0.930 . S
H624 C659 0.931 . S
N625 Eu594 2.657 . S
N625 C626 1.334 . S
N625 C630 1.362 . S
C626 H618 0.929 . S
C626 N625 1.334 . S
C626 C629 1.413 . S
C627 H621 0.930 . S
C627 C628 1.392 . S
C627 C629 1.367 . S
C628 C627 1.392 . S
C628 C630 1.420 . S
C628 C660 1.423 . S
C629 H615 0.930 . S
C629 C626 1.413 . S
C629 C627 1.367 . S
C630 N625 1.362 . S
C630 C628 1.420 . S
C630 C634 1.429 . S
H631 C636 0.930 . S
N632 Eu594 2.609 . S
N632 C634 1.377 . S
N632 C635 1.321 . S
C633 H619 0.930 . S
C633 C635 1.400 . S
C633 C636 1.386 . S
C634 C630 1.429 . S
C634 N632 1.377 . S
C634 C637 1.411 . S
C635 H617 0.930 . S
C635 N632 1.321 . S
C635 C633 1.400 . S
C636 H631 0.930 . S
C636 C633 1.386 . S
C636 C637 1.395 . S
C637 C634 1.411 . S
C637 C636 1.395 . S
C637 C659 1.420 . S
O638 Eu594 2.558 . S
O638 C658 1.257 . S
O639 Eu594 2.612 . S
O639 Eu605 2.380 . S
O639 C650 1.276 . S
O640 Eu605 2.432 . S
O640 C657 1.264 . S
O641 Eu594 2.339 . S
O641 C657 1.254 . S
O642 Eu594 2.563 . S
O642 C650 1.235 . S
O643 Eu594 2.419 . S
O643 C658 1.249 . S
O644 Eu605 2.558 . S
O644 C669 1.257 . S
O645 Eu594 2.380 . S
O645 Eu605 2.612 . S
O645 C661 1.276 . S
O646 Eu594 2.432 . S
O646 C668 1.264 . S
O647 Eu605 2.339 . S
O647 C668 1.254 . S
O648 Eu605 2.563 . S
O648 C661 1.235 . S
O649 Eu605 2.419 . S
O649 C669 1.249 . S
C650 O639 1.276 . S
C650 O642 1.235 . S
C651 C653 1.393 . S
C651 C655 1.395 . S
C651 C658 1.492 . S
C652 C653 1.392 . S
C652 C654 1.386 . S
C653 C651 1.393 . S
C653 C652 1.392 . S
C653 H670 0.930 . S
C654 C652 1.386 . S
C654 C656 1.395 . S
C654 H671 0.930 . S
C655 C651 1.395 . S
C655 C656 1.379 . S
C655 H672 0.930 . S
C656 C654 1.395 . S
C656 C655 1.379 . S
C656 H673 0.930 . S
C657 O640 1.264 . S
C657 O641 1.254 . S
C658 Eu594 2.848 . S
C658 O638 1.257 . S
C658 O643 1.249 . S
C658 C651 1.492 . S
C659 H624 0.931 . S
C659 C637 1.420 . S
C659 C660 1.351 . S
C660 H622 0.930 . S
C660 C628 1.423 . S
C660 C659 1.351 . S
C661 O645 1.276 . S
C661 O648 1.235 . S
C662 C663 1.393 . S
C662 C666 1.395 . S
C662 C669 1.492 . S
C663 C662 1.393 . S
C663 C664 1.392 . S
C663 H674 0.930 . S
C664 C663 1.392 . S
C664 C665 1.386 . S
C665 C664 1.386 . S
C665 C667 1.395 . S
C665 H675 0.930 . S
C666 C662 1.395 . S
C666 C667 1.379 . S
C666 H676 0.930 . S
C667 C665 1.395 . S
C667 C666 1.379 . S
C667 H677 0.930 . S
C668 O646 1.264 . S
C668 O647 1.254 . S
C669 Eu605 2.848 . S
C669 O644 1.257 . S
C669 O649 1.249 . S
C669 C662 1.492 . S
H670 C653 0.930 . S
H671 C654 0.930 . S
H672 C655 0.930 . S
H673 C656 0.930 . S
H674 C663 0.930 . S
H675 C665 0.930 . S
H676 C666 0.930 . S
H677 C667 0.930 . S
Eu678 N709 2.657 . S
Eu678 N716 2.609 . S
Eu678 O722 2.558 . S
Eu678 O723 2.612 . S
Eu678 O725 2.339 . S
Eu678 O726 2.563 . S
Eu678 O727 2.419 . S
Eu678 O729 2.380 . S
Eu678 O730 2.432 . S
Eu678 C742 2.848 . S
C679 C682 1.429 . S
C679 C683 1.411 . S
C679 N686 1.377 . S
C680 C682 1.420 . S
C680 C684 1.423 . S
C680 C692 1.392 . S
C681 C683 1.420 . S
C681 C684 1.351 . S
C681 H704 0.931 . S
C682 C679 1.429 . S
C682 C680 1.420 . S
C682 N690 1.362 . S
C683 C679 1.411 . S
C683 C681 1.420 . S
C683 C688 1.395 . S
C684 C680 1.423 . S
C684 C681 1.351 . S
C684 H696 0.930 . S
C685 C687 1.400 . S
C685 C688 1.386 . S
C685 H697 0.930 . S
N686 C679 1.377 . S
N686 C687 1.321 . S
N686 Eu689 2.609 . S
C687 C685 1.400 . S
C687 N686 1.321 . S
C687 H694 0.930 . S
C688 C683 1.395 . S
C688 C685 1.386 . S
C688 H707 0.930 . S
Eu689 N686 2.609 . S
Eu689 N690 2.657 . S
Eu689 O723 2.380 . S
Eu689 O724 2.432 . S
Eu689 O728 2.558 . S
Eu689 O729 2.612 . S
Eu689 O731 2.339 . S
Eu689 O732 2.563 . S
Eu689 O733 2.419 . S
Eu689 C753 2.848 . S
N690 C682 1.362 . S
N690 Eu689 2.657 . S
N690 C691 1.334 . S
C691 N690 1.334 . S
C691 C693 1.413 . S
C691 H698 0.929 . S
C692 C680 1.392 . S
C692 C693 1.367 . S
C692 H700 0.930 . S
C693 C691 1.413 . S
C693 C692 1.367 . S
C693 H695 0.930 . S
H694 C687 0.930 . S
H695 C693 0.930 . S
H696 C684 0.930 . S
H697 C685 0.930 . S
H698 C691 0.929 . S
H699 C713 0.930 . S
H700 C692 0.930 . S
H701 C719 0.930 . S
H702 C710 0.929 . S
H703 C717 0.930 . S
H704 C681 0.931 . S
H705 C711 0.930 . S
H706 C744 0.930 . S
H707 C688 0.930 . S
H708 C743 0.931 . S
N709 Eu678 2.657 . S
N709 C710 1.334 . S
N709 C714 1.362 . S
C710 H702 0.929 . S
C710 N709 1.334 . S
C710 C713 1.413 . S
C711 H705 0.930 . S
C711 C712 1.392 . S
C711 C713 1.367 . S
C712 C711 1.392 . S
C712 C714 1.420 . S
C712 C744 1.423 . S
C713 H699 0.930 . S
C713 C710 1.413 . S
C713 C711 1.367 . S
C714 N709 1.362 . S
C714 C712 1.420 . S
C714 C718 1.429 . S
H715 C720 0.930 . S
N716 Eu678 2.609 . S
N716 C718 1.377 . S
N716 C719 1.321 . S
C717 H703 0.930 . S
C717 C719 1.400 . S
C717 C720 1.386 . S
C718 C714 1.429 . S
C718 N716 1.377 . S
C718 C721 1.411 . S
C719 H701 0.930 . S
C719 N716 1.321 . S
C719 C717 1.400 . S
C720 H715 0.930 . S
C720 C717 1.386 . S
C720 C721 1.395 . S
C721 C718 1.411 . S
C721 C720 1.395 . S
C721 C743 1.420 . S
O722 Eu678 2.558 . S
O722 C742 1.257 . S
O723 Eu678 2.612 . S
O723 Eu689 2.380 . S
O723 C734 1.276 . S
O724 Eu689 2.432 . S
O724 C741 1.264 . S
O725 Eu678 2.339 . S
O725 C741 1.254 . S
O726 Eu678 2.563 . S
O726 C734 1.235 . S
O727 Eu678 2.419 . S
O727 C742 1.249 . S
O728 Eu689 2.558 . S
O728 C753 1.257 . S
O729 Eu678 2.380 . S
O729 Eu689 2.612 . S
O729 C745 1.276 . S
O730 Eu678 2.432 . S
O730 C752 1.264 . S
O731 Eu689 2.339 . S
O731 C752 1.254 . S
O732 Eu689 2.563 . S
O732 C745 1.235 . S
O733 Eu689 2.419 . S
O733 C753 1.249 . S
C734 O723 1.276 . S
C734 O726 1.235 . S
C735 C737 1.393 . S
C735 C739 1.395 . S
C735 C742 1.492 . S
C736 C737 1.392 . S
C736 C738 1.386 . S
C737 C735 1.393 . S
C737 C736 1.392 . S
C737 H754 0.930 . S
C738 C736 1.386 . S
C738 C740 1.395 . S
C738 H755 0.930 . S
C739 C735 1.395 . S
C739 C740 1.379 . S
C739 H756 0.930 . S
C740 C738 1.395 . S
C740 C739 1.379 . S
C740 H757 0.930 . S
C741 O724 1.264 . S
C741 O725 1.254 . S
C742 Eu678 2.848 . S
C742 O722 1.257 . S
C742 O727 1.249 . S
C742 C735 1.492 . S
C743 H708 0.931 . S
C743 C721 1.420 . S
C743 C744 1.351 . S
C744 H706 0.930 . S
C744 C712 1.423 . S
C744 C743 1.351 . S
C745 O729 1.276 . S
C745 O732 1.235 . S
C746 C747 1.393 . S
C746 C750 1.395 . S
C746 C753 1.492 . S
C747 C746 1.393 . S
C747 C748 1.392 . S
C747 H758 0.930 . S
C748 C747 1.392 . S
C748 C749 1.386 . S
C749 C748 1.386 . S
C749 C751 1.395 . S
C749 H759 0.930 . S
C750 C746 1.395 . S
C750 C751 1.379 . S
C750 H760 0.930 . S
C751 C749 1.395 . S
C751 C750 1.379 . S
C751 H761 0.930 . S
C752 O730 1.264 . S
C752 O731 1.254 . S
C753 Eu689 2.848 . S
C753 O728 1.257 . S
C753 O733 1.249 . S
C753 C746 1.492 . S
H754 C737 0.930 . S
H755 C738 0.930 . S
H756 C739 0.930 . S
H757 C740 0.930 . S
H758 C747 0.930 . S
H759 C749 0.930 . S
H760 C750 0.930 . S
H761 C751 0.930 . S
Eu762 N793 2.657 . S
Eu762 N800 2.609 . S
Eu762 O806 2.558 . S
Eu762 O807 2.612 . S
Eu762 O809 2.339 . S
Eu762 O810 2.563 . S
Eu762 O811 2.419 . S
Eu762 O813 2.380 . S
Eu762 O814 2.432 . S
Eu762 C826 2.848 . S
C763 C766 1.429 . S
C763 C767 1.411 . S
C763 N770 1.377 . S
C764 C766 1.420 . S
C764 C768 1.423 . S
C764 C776 1.392 . S
C765 C767 1.420 . S
C765 C768 1.351 . S
C765 H788 0.931 . S
C766 C763 1.429 . S
C766 C764 1.420 . S
C766 N774 1.362 . S
C767 C763 1.411 . S
C767 C765 1.420 . S
C767 C772 1.395 . S
C768 C764 1.423 . S
C768 C765 1.351 . S
C768 H780 0.930 . S
C769 C771 1.400 . S
C769 C772 1.386 . S
C769 H781 0.930 . S
N770 C763 1.377 . S
N770 C771 1.321 . S
N770 Eu773 2.609 . S
C771 C769 1.400 . S
C771 N770 1.321 . S
C771 H778 0.930 . S
C772 C767 1.395 . S
C772 C769 1.386 . S
C772 H791 0.930 . S
Eu773 N770 2.609 . S
Eu773 N774 2.657 . S
Eu773 O807 2.380 . S
Eu773 O808 2.432 . S
Eu773 O812 2.558 . S
Eu773 O813 2.612 . S
Eu773 O815 2.339 . S
Eu773 O816 2.563 . S
Eu773 O817 2.419 . S
Eu773 C837 2.848 . S
N774 C766 1.362 . S
N774 Eu773 2.657 . S
N774 C775 1.334 . S
C775 N774 1.334 . S
C775 C777 1.413 . S
C775 H782 0.929 . S
C776 C764 1.392 . S
C776 C777 1.367 . S
C776 H784 0.930 . S
C777 C775 1.413 . S
C777 C776 1.367 . S
C777 H779 0.930 . S
H778 C771 0.930 . S
H779 C777 0.930 . S
H780 C768 0.930 . S
H781 C769 0.930 . S
H782 C775 0.929 . S
H783 C797 0.930 . S
H784 C776 0.930 . S
H785 C803 0.930 . S
H786 C794 0.929 . S
H787 C801 0.930 . S
H788 C765 0.931 . S
H789 C795 0.930 . S
H790 C828 0.930 . S
H791 C772 0.930 . S
H792 C827 0.931 . S
N793 Eu762 2.657 . S
N793 C794 1.334 . S
N793 C798 1.362 . S
C794 H786 0.929 . S
C794 N793 1.334 . S
C794 C797 1.413 . S
C795 H789 0.930 . S
C795 C796 1.392 . S
C795 C797 1.367 . S
C796 C795 1.392 . S
C796 C798 1.420 . S
C796 C828 1.423 . S
C797 H783 0.930 . S
C797 C794 1.413 . S
C797 C795 1.367 . S
C798 N793 1.362 . S
C798 C796 1.420 . S
C798 C802 1.429 . S
H799 C804 0.930 . S
N800 Eu762 2.609 . S
N800 C802 1.377 . S
N800 C803 1.321 . S
C801 H787 0.930 . S
C801 C803 1.400 . S
C801 C804 1.386 . S
C802 C798 1.429 . S
C802 N800 1.377 . S
C802 C805 1.411 . S
C803 H785 0.930 . S
C803 N800 1.321 . S
C803 C801 1.400 . S
C804 H799 0.930 . S
C804 C801 1.386 . S
C804 C805 1.395 . S
C805 C802 1.411 . S
C805 C804 1.395 . S
C805 C827 1.420 . S
O806 Eu762 2.558 . S
O806 C826 1.257 . S
O807 Eu762 2.612 . S
O807 Eu773 2.380 . S
O807 C818 1.276 . S
O808 Eu773 2.432 . S
O808 C825 1.264 . S
O809 Eu762 2.339 . S
O809 C825 1.254 . S
O810 Eu762 2.563 . S
O810 C818 1.235 . S
O811 Eu762 2.419 . S
O811 C826 1.249 . S
O812 Eu773 2.558 . S
O812 C837 1.257 . S
O813 Eu762 2.380 . S
O813 Eu773 2.612 . S
O813 C829 1.276 . S
O814 Eu762 2.432 . S
O814 C836 1.264 . S
O815 Eu773 2.339 . S
O815 C836 1.254 . S
O816 Eu773 2.563 . S
O816 C829 1.235 . S
O817 Eu773 2.419 . S
O817 C837 1.249 . S
C818 O807 1.276 . S
C818 O810 1.235 . S
C819 C821 1.393 . S
C819 C823 1.395 . S
C819 C826 1.492 . S
C820 C821 1.392 . S
C820 C822 1.386 . S
C821 C819 1.393 . S
C821 C820 1.392 . S
C821 H838 0.930 . S
C822 C820 1.386 . S
C822 C824 1.395 . S
C822 H839 0.930 . S
C823 C819 1.395 . S
C823 C824 1.379 . S
C823 H840 0.930 . S
C824 C822 1.395 . S
C824 C823 1.379 . S
C824 H841 0.930 . S
C825 O808 1.264 . S
C825 O809 1.254 . S
C826 Eu762 2.848 . S
C826 O806 1.257 . S
C826 O811 1.249 . S
C826 C819 1.492 . S
C827 H792 0.931 . S
C827 C805 1.420 . S
C827 C828 1.351 . S
C828 H790 0.930 . S
C828 C796 1.423 . S
C828 C827 1.351 . S
C829 O813 1.276 . S
C829 O816 1.235 . S
C830 C831 1.393 . S
C830 C834 1.395 . S
C830 C837 1.492 . S
C831 C830 1.393 . S
C831 C832 1.392 . S
C831 H842 0.930 . S
C832 C831 1.392 . S
C832 C833 1.386 . S
C833 C832 1.386 . S
C833 C835 1.395 . S
C833 H843 0.930 . S
C834 C830 1.395 . S
C834 C835 1.379 . S
C834 H844 0.930 . S
C835 C833 1.395 . S
C835 C834 1.379 . S
C835 H845 0.930 . S
C836 O814 1.264 . S
C836 O815 1.254 . S
C837 Eu773 2.848 . S
C837 O812 1.257 . S
C837 O817 1.249 . S
C837 C830 1.492 . S
H838 C821 0.930 . S
H839 C822 0.930 . S
H840 C823 0.930 . S
H841 C824 0.930 . S
H842 C831 0.930 . S
H843 C833 0.930 . S
H844 C834 0.930 . S
H845 C835 0.930 . S
Eu846 N877 2.657 . S
Eu846 N884 2.609 . S
Eu846 O890 2.558 . S
Eu846 O891 2.612 . S
Eu846 O893 2.339 . S
Eu846 O894 2.563 . S
Eu846 O895 2.419 . S
Eu846 O897 2.380 . S
Eu846 O898 2.432 . S
Eu846 C910 2.848 . S
C847 C850 1.429 . S
C847 C851 1.411 . S
C847 N854 1.377 . S
C848 C850 1.420 . S
C848 C852 1.423 . S
C848 C860 1.392 . S
C849 C851 1.420 . S
C849 C852 1.351 . S
C849 H872 0.931 . S
C850 C847 1.429 . S
C850 C848 1.420 . S
C850 N858 1.362 . S
C851 C847 1.411 . S
C851 C849 1.420 . S
C851 C856 1.395 . S
C852 C848 1.423 . S
C852 C849 1.351 . S
C852 H864 0.930 . S
C853 C855 1.400 . S
C853 C856 1.386 . S
C853 H865 0.930 . S
N854 C847 1.377 . S
N854 C855 1.321 . S
N854 Eu857 2.609 . S
C855 C853 1.400 . S
C855 N854 1.321 . S
C855 H862 0.930 . S
C856 C851 1.395 . S
C856 C853 1.386 . S
C856 H875 0.930 . S
Eu857 N854 2.609 . S
Eu857 N858 2.657 . S
Eu857 O891 2.380 . S
Eu857 O892 2.432 . S
Eu857 O896 2.558 . S
Eu857 O897 2.612 . S
Eu857 O899 2.339 . S
Eu857 O900 2.563 . S
Eu857 O901 2.419 . S
Eu857 C921 2.848 . S
N858 C850 1.362 . S
N858 Eu857 2.657 . S
N858 C859 1.334 . S
C859 N858 1.334 . S
C859 C861 1.413 . S
C859 H866 0.929 . S
C860 C848 1.392 . S
C860 C861 1.367 . S
C860 H868 0.930 . S
C861 C859 1.413 . S
C861 C860 1.367 . S
C861 H863 0.930 . S
H862 C855 0.930 . S
H863 C861 0.930 . S
H864 C852 0.930 . S
H865 C853 0.930 . S
H866 C859 0.929 . S
H867 C881 0.930 . S
H868 C860 0.930 . S
H869 C887 0.930 . S
H870 C878 0.929 . S
H871 C885 0.930 . S
H872 C849 0.931 . S
H873 C879 0.930 . S
H874 C912 0.930 . S
H875 C856 0.930 . S
H876 C911 0.931 . S
N877 Eu846 2.657 . S
N877 C878 1.334 . S
N877 C882 1.362 . S
C878 H870 0.929 . S
C878 N877 1.334 . S
C878 C881 1.413 . S
C879 H873 0.930 . S
C879 C880 1.392 . S
C879 C881 1.367 . S
C880 C879 1.392 . S
C880 C882 1.420 . S
C880 C912 1.423 . S
C881 H867 0.930 . S
C881 C878 1.413 . S
C881 C879 1.367 . S
C882 N877 1.362 . S
C882 C880 1.420 . S
C882 C886 1.429 . S
H883 C888 0.930 . S
N884 Eu846 2.609 . S
N884 C886 1.377 . S
N884 C887 1.321 . S
C885 H871 0.930 . S
C885 C887 1.400 . S
C885 C888 1.386 . S
C886 C882 1.429 . S
C886 N884 1.377 . S
C886 C889 1.411 . S
C887 H869 0.930 . S
C887 N884 1.321 . S
C887 C885 1.400 . S
C888 H883 0.930 . S
C888 C885 1.386 . S
C888 C889 1.395 . S
C889 C886 1.411 . S
C889 C888 1.395 . S
C889 C911 1.420 . S
O890 Eu846 2.558 . S
O890 C910 1.257 . S
O891 Eu846 2.612 . S
O891 Eu857 2.380 . S
O891 C902 1.276 . S
O892 Eu857 2.432 . S
O892 C909 1.264 . S
O893 Eu846 2.339 . S
O893 C909 1.254 . S
O894 Eu846 2.563 . S
O894 C902 1.235 . S
O895 Eu846 2.419 . S
O895 C910 1.249 . S
O896 Eu857 2.558 . S
O896 C921 1.257 . S
O897 Eu846 2.380 . S
O897 Eu857 2.612 . S
O897 C913 1.276 . S
O898 Eu846 2.432 . S
O898 C920 1.264 . S
O899 Eu857 2.339 . S
O899 C920 1.254 . S
O900 Eu857 2.563 . S
O900 C913 1.235 . S
O901 Eu857 2.419 . S
O901 C921 1.249 . S
C902 O891 1.276 . S
C902 O894 1.235 . S
C903 C905 1.393 . S
C903 C907 1.395 . S
C903 C910 1.492 . S
C904 C905 1.392 . S
C904 C906 1.386 . S
C905 C903 1.393 . S
C905 C904 1.392 . S
C905 H922 0.930 . S
C906 C904 1.386 . S
C906 C908 1.395 . S
C906 H923 0.930 . S
C907 C903 1.395 . S
C907 C908 1.379 . S
C907 H924 0.930 . S
C908 C906 1.395 . S
C908 C907 1.379 . S
C908 H925 0.930 . S
C909 O892 1.264 . S
C909 O893 1.254 . S
C910 Eu846 2.848 . S
C910 O890 1.257 . S
C910 O895 1.249 . S
C910 C903 1.492 . S
C911 H876 0.931 . S
C911 C889 1.420 . S
C911 C912 1.351 . S
C912 H874 0.930 . S
C912 C880 1.423 . S
C912 C911 1.351 . S
C913 O897 1.276 . S
C913 O900 1.235 . S
C914 C915 1.393 . S
C914 C918 1.395 . S
C914 C921 1.492 . S
C915 C914 1.393 . S
C915 C916 1.392 . S
C915 H926 0.930 . S
C916 C915 1.392 . S
C916 C917 1.386 . S
C917 C916 1.386 . S
C917 C919 1.395 . S
C917 H927 0.930 . S
C918 C914 1.395 . S
C918 C919 1.379 . S
C918 H928 0.930 . S
C919 C917 1.395 . S
C919 C918 1.379 . S
C919 H929 0.930 . S
C920 O898 1.264 . S
C920 O899 1.254 . S
C921 Eu857 2.848 . S
C921 O896 1.257 . S
C921 O901 1.249 . S
C921 C914 1.492 . S
H922 C905 0.930 . S
H923 C906 0.930 . S
H924 C907 0.930 . S
H925 C908 0.930 . S
H926 C915 0.930 . S
H927 C917 0.930 . S
H928 C918 0.930 . S
H929 C919 0.930 . S
Eu930 N961 2.657 . S
Eu930 N968 2.609 . S
Eu930 O974 2.558 . S
Eu930 O975 2.612 . S
Eu930 O977 2.339 . S
Eu930 O978 2.563 . S
Eu930 O979 2.419 . S
Eu930 O981 2.380 . S
Eu930 O982 2.432 . S
Eu930 C994 2.848 . S
C931 C934 1.429 . S
C931 C935 1.411 . S
C931 N938 1.377 . S
C932 C934 1.420 . S
C932 C936 1.423 . S
C932 C944 1.392 . S
C933 C935 1.420 . S
C933 C936 1.351 . S
C933 H956 0.931 . S
C934 C931 1.429 . S
C934 C932 1.420 . S
C934 N942 1.362 . S
C935 C931 1.411 . S
C935 C933 1.420 . S
C935 C940 1.395 . S
C936 C932 1.423 . S
C936 C933 1.351 . S
C936 H948 0.930 . S
C937 C939 1.400 . S
C937 C940 1.386 . S
C937 H949 0.930 . S
N938 C931 1.377 . S
N938 C939 1.321 . S
N938 Eu941 2.609 . S
C939 C937 1.400 . S
C939 N938 1.321 . S
C939 H946 0.930 . S
C940 C935 1.395 . S
C940 C937 1.386 . S
C940 H959 0.930 . S
Eu941 N938 2.609 . S
Eu941 N942 2.657 . S
Eu941 O975 2.380 . S
Eu941 O976 2.432 . S
Eu941 O980 2.558 . S
Eu941 O981 2.612 . S
Eu941 O983 2.339 . S
Eu941 O984 2.563 . S
Eu941 O985 2.419 . S
Eu941 C1005 2.848 . S
N942 C934 1.362 . S
N942 Eu941 2.657 . S
N942 C943 1.334 . S
C943 N942 1.334 . S
C943 C945 1.413 . S
C943 H950 0.929 . S
C944 C932 1.392 . S
C944 C945 1.367 . S
C944 H952 0.930 . S
C945 C943 1.413 . S
C945 C944 1.367 . S
C945 H947 0.930 . S
H946 C939 0.930 . S
H947 C945 0.930 . S
H948 C936 0.930 . S
H949 C937 0.930 . S
H950 C943 0.929 . S
H951 C965 0.930 . S
H952 C944 0.930 . S
H953 C971 0.930 . S
H954 C962 0.929 . S
H955 C969 0.930 . S
H956 C933 0.931 . S
H957 C963 0.930 . S
H958 C996 0.930 . S
H959 C940 0.930 . S
H960 C995 0.931 . S
N961 Eu930 2.657 . S
N961 C962 1.334 . S
N961 C966 1.362 . S
C962 H954 0.929 . S
C962 N961 1.334 . S
C962 C965 1.413 . S
C963 H957 0.930 . S
C963 C964 1.392 . S
C963 C965 1.367 . S
C964 C963 1.392 . S
C964 C966 1.420 . S
C964 C996 1.423 . S
C965 H951 0.930 . S
C965 C962 1.413 . S
C965 C963 1.367 . S
C966 N961 1.362 . S
C966 C964 1.420 . S
C966 C970 1.429 . S
H967 C972 0.930 . S
N968 Eu930 2.609 . S
N968 C970 1.377 . S
N968 C971 1.321 . S
C969 H955 0.930 . S
C969 C971 1.400 . S
C969 C972 1.386 . S
C970 C966 1.429 . S
C970 N968 1.377 . S
C970 C973 1.411 . S
C971 H953 0.930 . S
C971 N968 1.321 . S
C971 C969 1.400 . S
C972 H967 0.930 . S
C972 C969 1.386 . S
C972 C973 1.395 . S
C973 C970 1.411 . S
C973 C972 1.395 . S
C973 C995 1.420 . S
O974 Eu930 2.558 . S
O974 C994 1.257 . S
O975 Eu930 2.612 . S
O975 Eu941 2.380 . S
O975 C986 1.276 . S
O976 Eu941 2.432 . S
O976 C993 1.264 . S
O977 Eu930 2.339 . S
O977 C993 1.254 . S
O978 Eu930 2.563 . S
O978 C986 1.235 . S
O979 Eu930 2.419 . S
O979 C994 1.249 . S
O980 Eu941 2.558 . S
O980 C1005 1.257 . S
O981 Eu930 2.380 . S
O981 Eu941 2.612 . S
O981 C997 1.276 . S
O982 Eu930 2.432 . S
O982 C1004 1.264 . S
O983 Eu941 2.339 . S
O983 C1004 1.254 . S
O984 Eu941 2.563 . S
O984 C997 1.235 . S
O985 Eu941 2.419 . S
O985 C1005 1.249 . S
C986 O975 1.276 . S
C986 O978 1.235 . S
C987 C989 1.393 . S
C987 C991 1.395 . S
C987 C994 1.492 . S
C988 C989 1.392 . S
C988 C990 1.386 . S
C989 C987 1.393 . S
C989 C988 1.392 . S
C989 H1006 0.930 . S
C990 C988 1.386 . S
C990 C992 1.395 . S
C990 H1007 0.930 . S
C991 C987 1.395 . S
C991 C992 1.379 . S
C991 H1008 0.930 . S
C992 C990 1.395 . S
C992 C991 1.379 . S
C992 H1009 0.930 . S
C993 O976 1.264 . S
C993 O977 1.254 . S
C994 Eu930 2.848 . S
C994 O974 1.257 . S
C994 O979 1.249 . S
C994 C987 1.492 . S
C995 H960 0.931 . S
C995 C973 1.420 . S
C995 C996 1.351 . S
C996 H958 0.930 . S
C996 C964 1.423 . S
C996 C995 1.351 . S
C997 O981 1.276 . S
C997 O984 1.235 . S
C998 C999 1.393 . S
C998 C1002 1.395 . S
C998 C1005 1.492 . S
C999 C998 1.393 . S
C999 C1000 1.392 . S
C999 H1010 0.930 . S
C1000 C999 1.392 . S
C1000 C1001 1.386 . S
C1001 C1000 1.386 . S
C1001 C1003 1.395 . S
C1001 H1011 0.930 . S
C1002 C998 1.395 . S
C1002 C1003 1.379 . S
C1002 H1012 0.930 . S
C1003 C1001 1.395 . S
C1003 C1002 1.379 . S
C1003 H1013 0.930 . S
C1004 O982 1.264 . S
C1004 O983 1.254 . S
C1005 Eu941 2.848 . S
C1005 O980 1.257 . S
C1005 O985 1.249 . S
C1005 C998 1.492 . S
H1006 C989 0.930 . S
H1007 C990 0.930 . S
H1008 C991 0.930 . S
H1009 C992 0.930 . S
H1010 C999 0.930 . S
H1011 C1001 0.930 . S
H1012 C1002 0.930 . S
H1013 C1003 0.930 . S
Eu1014 N1045 2.657 . S
Eu1014 N1052 2.609 . S
Eu1014 O1058 2.558 . S
Eu1014 O1059 2.612 . S
Eu1014 O1061 2.339 . S
Eu1014 O1062 2.563 . S
Eu1014 O1063 2.419 . S
Eu1014 O1065 2.380 . S
Eu1014 O1066 2.432 . S
Eu1014 C1078 2.848 . S
C1015 C1018 1.429 . S
C1015 C1019 1.411 . S
C1015 N1022 1.377 . S
C1016 C1018 1.420 . S
C1016 C1020 1.423 . S
C1016 C1028 1.392 . S
C1017 C1019 1.420 . S
C1017 C1020 1.351 . S
C1017 H1040 0.931 . S
C1018 C1015 1.429 . S
C1018 C1016 1.420 . S
C1018 N1026 1.362 . S
C1019 C1015 1.411 . S
C1019 C1017 1.420 . S
C1019 C1024 1.395 . S
C1020 C1016 1.423 . S
C1020 C1017 1.351 . S
C1020 H1032 0.930 . S
C1021 C1023 1.400 . S
C1021 C1024 1.386 . S
C1021 H1033 0.930 . S
N1022 C1015 1.377 . S
N1022 C1023 1.321 . S
N1022 Eu1025 2.609 . S
C1023 C1021 1.400 . S
C1023 N1022 1.321 . S
C1023 H1030 0.930 . S
C1024 C1019 1.395 . S
C1024 C1021 1.386 . S
C1024 H1043 0.930 . S
Eu1025 N1022 2.609 . S
Eu1025 N1026 2.657 . S
Eu1025 O1059 2.380 . S
Eu1025 O1060 2.432 . S
Eu1025 O1064 2.558 . S
Eu1025 O1065 2.612 . S
Eu1025 O1067 2.339 . S
Eu1025 O1068 2.563 . S
Eu1025 O1069 2.419 . S
Eu1025 C1089 2.848 . S
N1026 C1018 1.362 . S
N1026 Eu1025 2.657 . S
N1026 C1027 1.334 . S
C1027 N1026 1.334 . S
C1027 C1029 1.413 . S
C1027 H1034 0.929 . S
C1028 C1016 1.392 . S
C1028 C1029 1.367 . S
C1028 H1036 0.930 . S
C1029 C1027 1.413 . S
C1029 C1028 1.367 . S
C1029 H1031 0.930 . S
H1030 C1023 0.930 . S
H1031 C1029 0.930 . S
H1032 C1020 0.930 . S
H1033 C1021 0.930 . S
H1034 C1027 0.929 . S
H1035 C1049 0.930 . S
H1036 C1028 0.930 . S
H1037 C1055 0.930 . S
H1038 C1046 0.929 . S
H1039 C1053 0.930 . S
H1040 C1017 0.931 . S
H1041 C1047 0.930 . S
H1042 C1080 0.930 . S
H1043 C1024 0.930 . S
H1044 C1079 0.931 . S
N1045 Eu1014 2.657 . S
N1045 C1046 1.334 . S
N1045 C1050 1.362 . S
C1046 H1038 0.929 . S
C1046 N1045 1.334 . S
C1046 C1049 1.413 . S
C1047 H1041 0.930 . S
C1047 C1048 1.392 . S
C1047 C1049 1.367 . S
C1048 C1047 1.392 . S
C1048 C1050 1.420 . S
C1048 C1080 1.423 . S
C1049 H1035 0.930 . S
C1049 C1046 1.413 . S
C1049 C1047 1.367 . S
C1050 N1045 1.362 . S
C1050 C1048 1.420 . S
C1050 C1054 1.429 . S
H1051 C1056 0.930 . S
N1052 Eu1014 2.609 . S
N1052 C1054 1.377 . S
N1052 C1055 1.321 . S
C1053 H1039 0.930 . S
C1053 C1055 1.400 . S
C1053 C1056 1.386 . S
C1054 C1050 1.429 . S
C1054 N1052 1.377 . S
C1054 C1057 1.411 . S
C1055 H1037 0.930 . S
C1055 N1052 1.321 . S
C1055 C1053 1.400 . S
C1056 H1051 0.930 . S
C1056 C1053 1.386 . S
C1056 C1057 1.395 . S
C1057 C1054 1.411 . S
C1057 C1056 1.395 . S
C1057 C1079 1.420 . S
O1058 Eu1014 2.558 . S
O1058 C1078 1.257 . S
O1059 Eu1014 2.612 . S
O1059 Eu1025 2.380 . S
O1059 C1070 1.276 . S
O1060 Eu1025 2.432 . S
O1060 C1077 1.264 . S
O1061 Eu1014 2.339 . S
O1061 C1077 1.254 . S
O1062 Eu1014 2.563 . S
O1062 C1070 1.235 . S
O1063 Eu1014 2.419 . S
O1063 C1078 1.249 . S
O1064 Eu1025 2.558 . S
O1064 C1089 1.257 . S
O1065 Eu1014 2.380 . S
O1065 Eu1025 2.612 . S
O1065 C1081 1.276 . S
O1066 Eu1014 2.432 . S
O1066 C1088 1.264 . S
O1067 Eu1025 2.339 . S
O1067 C1088 1.254 . S
O1068 Eu1025 2.563 . S
O1068 C1081 1.235 . S
O1069 Eu1025 2.419 . S
O1069 C1089 1.249 . S
C1070 O1059 1.276 . S
C1070 O1062 1.235 . S
C1071 C1073 1.393 . S
C1071 C1075 1.395 . S
C1071 C1078 1.492 . S
C1072 C1073 1.392 . S
C1072 C1074 1.386 . S
C1073 C1071 1.393 . S
C1073 C1072 1.392 . S
C1073 H1090 0.930 . S
C1074 C1072 1.386 . S
C1074 C1076 1.395 . S
C1074 H1091 0.930 . S
C1075 C1071 1.395 . S
C1075 C1076 1.379 . S
C1075 H1092 0.930 . S
C1076 C1074 1.395 . S
C1076 C1075 1.379 . S
C1076 H1093 0.930 . S
C1077 O1060 1.264 . S
C1077 O1061 1.254 . S
C1078 Eu1014 2.848 . S
C1078 O1058 1.257 . S
C1078 O1063 1.249 . S
C1078 C1071 1.492 . S
C1079 H1044 0.931 . S
C1079 C1057 1.420 . S
C1079 C1080 1.351 . S
C1080 H1042 0.930 . S
C1080 C1048 1.423 . S
C1080 C1079 1.351 . S
C1081 O1065 1.276 . S
C1081 O1068 1.235 . S
C1082 C1083 1.393 . S
C1082 C1086 1.395 . S
C1082 C1089 1.492 . S
C1083 C1082 1.393 . S
C1083 C1084 1.392 . S
C1083 H1094 0.930 . S
C1084 C1083 1.392 . S
C1084 C1085 1.386 . S
C1085 C1084 1.386 . S
C1085 C1087 1.395 . S
C1085 H1095 0.930 . S
C1086 C1082 1.395 . S
C1086 C1087 1.379 . S
C1086 H1096 0.930 . S
C1087 C1085 1.395 . S
C1087 C1086 1.379 . S
C1087 H1097 0.930 . S
C1088 O1066 1.264 . S
C1088 O1067 1.254 . S
C1089 Eu1025 2.848 . S
C1089 O1064 1.257 . S
C1089 O1069 1.249 . S
C1089 C1082 1.492 . S
H1090 C1073 0.930 . S
H1091 C1074 0.930 . S
H1092 C1075 0.930 . S
H1093 C1076 0.930 . S
H1094 C1083 0.930 . S
H1095 C1085 0.930 . S
H1096 C1086 0.930 . S
H1097 C1087 0.930 . S
H1098 C1106 0.929 . S
H1099 C1108 0.930 . S
H1100 C1110 0.930 . S
H1101 C1113 0.929 . S
H1102 C1116 0.930 . S
H1103 C1118 0.960 . S
H1104 C1118 0.960 . S
H1105 C1118 0.960 . S
C1106 H1098 0.929 . S
C1106 C1107 1.377 . S
C1106 C1108 1.384 . S
C1107 C1106 1.377 . S
C1107 C1113 1.390 . S
C1108 H1099 0.930 . S
C1108 C1106 1.384 . S
C1108 C1109 1.372 . S
C1109 C1108 1.372 . S
C1109 C1110 1.400 . S
C1109 C1114 1.490 . S
C1110 H1100 0.930 . S
C1110 C1109 1.400 . S
C1110 C1113 1.386 . S
H1111 C1127 0.930 . S
H1112 C1128 0.931 . S
C1113 H1101 0.929 . S
C1113 C1107 1.390 . S
C1113 C1110 1.386 . S
C1114 C1109 1.490 . S
C1114 C1116 1.395 . S
C1114 C1117 1.403 . S
H1115 C1121 0.930 . S
C1116 H1102 0.930 . S
C1116 C1114 1.395 . S
C1116 C1119 1.403 . S
C1117 C1114 1.403 . S
C1117 C1118 1.524 . S
C1117 C1121 1.400 . S
C1118 H1103 0.960 . S
C1118 H1104 0.960 . S
C1118 H1105 0.960 . S
C1118 C1117 1.524 . S
C1119 C1116 1.403 . S
C1119 C1120 1.392 . S
C1119 C1123 1.495 . S
C1120 C1119 1.392 . S
C1120 C1121 1.385 . S
C1120 C1122 1.478 . S
C1121 H1115 0.930 . S
C1121 C1117 1.400 . S
C1121 C1120 1.385 . S
C1122 C1120 1.478 . S
C1122 C1124 1.381 . S
C1122 C1128 1.383 . S
C1123 C1119 1.495 . S
C1123 H1129 0.959 . S
C1123 H1130 0.961 . S
C1123 H1131 0.960 . S
C1124 C1122 1.381 . S
C1124 C1125 1.394 . S
C1124 H1132 0.930 . S
C1125 C1124 1.394 . S
C1125 C1126 1.383 . S
C1125 H1133 0.929 . S
C1126 C1125 1.383 . S
C1126 C1127 1.377 . S
C1127 H1111 0.930 . S
C1127 C1126 1.377 . S
C1127 C1128 1.379 . S
C1128 H1112 0.931 . S
C1128 C1122 1.383 . S
C1128 C1127 1.379 . S
H1129 C1123 0.959 . S
H1130 C1123 0.961 . S
H1131 C1123 0.960 . S
H1132 C1124 0.930 . S
H1133 C1125 0.929 . S
H1134 C1142 0.929 . S
H1135 C1144 0.930 . S
H1136 C1146 0.930 . S
H1137 C1149 0.929 . S
H1138 C1152 0.930 . S
H1139 C1154 0.960 . S
H1140 C1154 0.960 . S
H1141 C1154 0.960 . S
C1142 H1134 0.929 . S
C1142 C1143 1.377 . S
C1142 C1144 1.384 . S
C1143 C1142 1.377 . S
C1143 C1149 1.390 . S
C1144 H1135 0.930 . S
C1144 C1142 1.384 . S
C1144 C1145 1.372 . S
C1145 C1144 1.372 . S
C1145 C1146 1.400 . S
C1145 C1150 1.490 . S
C1146 H1136 0.930 . S
C1146 C1145 1.400 . S
C1146 C1149 1.386 . S
H1147 C1163 0.930 . S
H1148 C1164 0.931 . S
C1149 H1137 0.929 . S
C1149 C1143 1.390 . S
C1149 C1146 1.386 . S
C1150 C1145 1.490 . S
C1150 C1152 1.395 . S
C1150 C1153 1.403 . S
H1151 C1157 0.930 . S
C1152 H1138 0.930 . S
C1152 C1150 1.395 . S
C1152 C1155 1.403 . S
C1153 C1150 1.403 . S
C1153 C1154 1.524 . S
C1153 C1157 1.400 . S
C1154 H1139 0.960 . S
C1154 H1140 0.960 . S
C1154 H1141 0.960 . S
C1154 C1153 1.524 . S
C1155 C1152 1.403 . S
C1155 C1156 1.392 . S
C1155 C1159 1.495 . S
C1156 C1155 1.392 . S
C1156 C1157 1.385 . S
C1156 C1158 1.478 . S
C1157 H1151 0.930 . S
C1157 C1153 1.400 . S
C1157 C1156 1.385 . S
C1158 C1156 1.478 . S
C1158 C1160 1.381 . S
C1158 C1164 1.383 . S
C1159 C1155 1.495 . S
C1159 H1165 0.959 . S
C1159 H1166 0.961 . S
C1159 H1167 0.960 . S
C1160 C1158 1.381 . S
C1160 C1161 1.394 . S
C1160 H1168 0.930 . S
C1161 C1160 1.394 . S
C1161 C1162 1.383 . S
C1161 H1169 0.929 . S
C1162 C1161 1.383 . S
C1162 C1163 1.377 . S
C1163 H1147 0.930 . S
C1163 C1162 1.377 . S
C1163 C1164 1.379 . S
C1164 H1148 0.931 . S
C1164 C1158 1.383 . S
C1164 C1163 1.379 . S
H1165 C1159 0.959 . S
H1166 C1159 0.961 . S
H1167 C1159 0.960 . S
H1168 C1160 0.930 . S
H1169 C1161 0.929 . S
H1170 C1178 0.929 . S
H1171 C1180 0.930 . S
H1172 C1182 0.930 . S
H1173 C1185 0.929 . S
H1174 C1188 0.930 . S
H1175 C1190 0.960 . S
H1176 C1190 0.960 . S
H1177 C1190 0.960 . S
C1178 H1170 0.929 . S
C1178 C1179 1.377 . S
C1178 C1180 1.384 . S
C1179 C1178 1.377 . S
C1179 C1185 1.390 . S
C1180 H1171 0.930 . S
C1180 C1178 1.384 . S
C1180 C1181 1.372 . S
C1181 C1180 1.372 . S
C1181 C1182 1.400 . S
C1181 C1186 1.490 . S
C1182 H1172 0.930 . S
C1182 C1181 1.400 . S
C1182 C1185 1.386 . S
H1183 C1199 0.930 . S
H1184 C1200 0.931 . S
C1185 H1173 0.929 . S
C1185 C1179 1.390 . S
C1185 C1182 1.386 . S
C1186 C1181 1.490 . S
C1186 C1188 1.395 . S
C1186 C1189 1.403 . S
H1187 C1193 0.930 . S
C1188 H1174 0.930 . S
C1188 C1186 1.395 . S
C1188 C1191 1.403 . S
C1189 C1186 1.403 . S
C1189 C1190 1.524 . S
C1189 C1193 1.400 . S
C1190 H1175 0.960 . S
C1190 H1176 0.960 . S
C1190 H1177 0.960 . S
C1190 C1189 1.524 . S
C1191 C1188 1.403 . S
C1191 C1192 1.392 . S
C1191 C1195 1.495 . S
C1192 C1191 1.392 . S
C1192 C1193 1.385 . S
C1192 C1194 1.478 . S
C1193 H1187 0.930 . S
C1193 C1189 1.400 . S
C1193 C1192 1.385 . S
C1194 C1192 1.478 . S
C1194 C1196 1.381 . S
C1194 C1200 1.383 . S
C1195 C1191 1.495 . S
C1195 H1201 0.959 . S
C1195 H1202 0.961 . S
C1195 H1203 0.960 . S
C1196 C1194 1.381 . S
C1196 C1197 1.394 . S
C1196 H1204 0.930 . S
C1197 C1196 1.394 . S
C1197 C1198 1.383 . S
C1197 H1205 0.929 1_554 S
C1198 C1197 1.383 . S
C1198 C1199 1.377 . S
C1199 H1183 0.930 . S
C1199 C1198 1.377 . S
C1199 C1200 1.379 . S
C1200 H1184 0.931 . S
C1200 C1194 1.383 . S
C1200 C1199 1.379 . S
H1201 C1195 0.959 . S
H1202 C1195 0.961 . S
H1203 C1195 0.960 . S
H1204 C1196 0.930 . S
H1205 C1197 0.929 1_556 S
H1206 C1214 0.929 . S
H1207 C1216 0.930 . S
H1208 C1218 0.930 . S
H1209 C1221 0.929 . S
H1210 C1224 0.930 . S
H1211 C1226 0.960 . S
H1212 C1226 0.960 . S
H1213 C1226 0.960 . S
C1214 H1206 0.929 . S
C1214 C1215 1.377 . S
C1214 C1216 1.384 . S
C1215 C1214 1.377 . S
C1215 C1221 1.390 . S
C1216 H1207 0.930 . S
C1216 C1214 1.384 . S
C1216 C1217 1.372 . S
C1217 C1216 1.372 . S
C1217 C1218 1.400 . S
C1217 C1222 1.490 . S
C1218 H1208 0.930 . S
C1218 C1217 1.400 . S
C1218 C1221 1.386 . S
H1219 C1235 0.930 . S
H1220 C1236 0.931 . S
C1221 H1209 0.929 . S
C1221 C1215 1.390 . S
C1221 C1218 1.386 . S
C1222 C1217 1.490 . S
C1222 C1224 1.395 . S
C1222 C1225 1.403 . S
H1223 C1229 0.930 . S
C1224 H1210 0.930 . S
C1224 C1222 1.395 . S
C1224 C1227 1.403 . S
C1225 C1222 1.403 . S
C1225 C1226 1.524 . S
C1225 C1229 1.400 . S
C1226 H1211 0.960 . S
C1226 H1212 0.960 . S
C1226 H1213 0.960 . S
C1226 C1225 1.524 . S
C1227 C1224 1.403 . S
C1227 C1228 1.392 . S
C1227 C1231 1.495 . S
C1228 C1227 1.392 . S
C1228 C1229 1.385 . S
C1228 C1230 1.478 . S
C1229 H1223 0.930 . S
C1229 C1225 1.400 . S
C1229 C1228 1.385 . S
C1230 C1228 1.478 . S
C1230 C1232 1.381 1_556 S
C1230 C1236 1.383 . S
C1231 C1227 1.495 . S
C1231 H1237 0.959 . S
C1231 H1238 0.961 . S
C1231 H1239 0.960 1_556 S
C1232 C1230 1.381 1_554 S
C1232 C1233 1.394 . S
C1232 H1240 0.930 . S
C1233 C1232 1.394 . S
C1233 C1234 1.383 1_554 S
C1233 H1241 0.929 . S
C1234 C1233 1.383 1_556 S
C1234 C1235 1.377 . S
C1235 H1219 0.930 . S
C1235 C1234 1.377 . S
C1235 C1236 1.379 . S
C1236 H1220 0.931 . S
C1236 C1230 1.383 . S
C1236 C1235 1.379 . S
H1237 C1231 0.959 . S
H1238 C1231 0.961 . S
H1239 C1231 0.960 1_554 S
H1240 C1232 0.930 . S
H1241 C1233 0.929 . S
H1242 C1250 0.929 . S
H1243 C1252 0.930 . S
H1244 C1254 0.930 . S
H1245 C1257 0.929 . S
H1246 C1260 0.930 . S
H1247 C1262 0.960 . S
H1248 C1262 0.960 . S
H1249 C1262 0.960 . S
C1250 H1242 0.929 . S
C1250 C1251 1.377 . S
C1250 C1252 1.384 . S
C1251 C1250 1.377 . S
C1251 C1257 1.390 . S
C1252 H1243 0.930 . S
C1252 C1250 1.384 . S
C1252 C1253 1.372 . S
C1253 C1252 1.372 . S
C1253 C1254 1.400 . S
C1253 C1258 1.490 . S
C1254 H1244 0.930 . S
C1254 C1253 1.400 . S
C1254 C1257 1.386 . S
H1255 C1271 0.930 . S
H1256 C1272 0.931 . S
C1257 H1245 0.929 . S
C1257 C1251 1.390 . S
C1257 C1254 1.386 . S
C1258 C1253 1.490 . S
C1258 C1260 1.395 . S
C1258 C1261 1.403 . S
H1259 C1265 0.930 . S
C1260 H1246 0.930 . S
C1260 C1258 1.395 . S
C1260 C1263 1.403 . S
C1261 C1258 1.403 . S
C1261 C1262 1.524 . S
C1261 C1265 1.400 . S
C1262 H1247 0.960 . S
C1262 H1248 0.960 . S
C1262 H1249 0.960 . S
C1262 C1261 1.524 . S
C1263 C1260 1.403 . S
C1263 C1264 1.392 . S
C1263 C1267 1.495 . S
C1264 C1263 1.392 . S
C1264 C1265 1.385 . S
C1264 C1266 1.478 . S
C1265 H1259 0.930 . S
C1265 C1261 1.400 . S
C1265 C1264 1.385 . S
C1266 C1264 1.478 . S
C1266 C1268 1.381 1_556 S
C1266 C1272 1.383 . S
C1267 C1263 1.495 . S
C1267 H1273 0.959 . S
C1267 H1274 0.961 . S
C1267 H1275 0.960 1_556 S
C1268 C1266 1.381 1_554 S
C1268 C1269 1.394 . S
C1268 H1276 0.930 . S
C1269 C1268 1.394 . S
C1269 C1270 1.358 1_554 S
C1269 H1277 0.929 . S
C1270 C1269 1.358 1_556 S
C1270 C1271 1.412 . S
C1271 H1255 0.930 . S
C1271 C1270 1.412 . S
C1271 C1272 1.379 . S
C1272 H1256 0.931 . S
C1272 C1266 1.383 . S
C1272 C1271 1.379 . S
H1273 C1267 0.959 . S
H1274 C1267 0.961 . S
H1275 C1267 0.960 1_554 S
H1276 C1268 0.930 . S
H1277 C1269 0.929 . S
H1278 C1286 0.929 . S
H1279 C1288 0.930 . S
H1280 C1290 0.930 . S
H1281 C1293 0.929 . S
H1282 C1296 0.930 . S
H1283 C1298 0.960 . S
H1284 C1298 0.960 . S
H1285 C1298 0.960 . S
C1286 H1278 0.929 . S
C1286 C1287 1.377 . S
C1286 C1288 1.384 . S
C1287 C1286 1.377 . S
C1287 C1293 1.390 . S
C1288 H1279 0.930 . S
C1288 C1286 1.384 . S
C1288 C1289 1.372 . S
C1289 C1288 1.372 . S
C1289 C1290 1.400 . S
C1289 C1294 1.490 . S
C1290 H1280 0.930 . S
C1290 C1289 1.400 . S
C1290 C1293 1.386 . S
H1291 C1307 0.930 . S
H1292 C1308 0.931 . S
C1293 H1281 0.929 . S
C1293 C1287 1.390 . S
C1293 C1290 1.386 . S
C1294 C1289 1.490 . S
C1294 C1296 1.395 . S
C1294 C1297 1.403 . S
H1295 C1301 0.930 . S
C1296 H1282 0.930 . S
C1296 C1294 1.395 . S
C1296 C1299 1.403 . S
C1297 C1294 1.403 . S
C1297 C1298 1.524 . S
C1297 C1301 1.400 . S
C1298 H1283 0.960 . S
C1298 H1284 0.960 . S
C1298 H1285 0.960 . S
C1298 C1297 1.524 . S
C1299 C1296 1.403 . S
C1299 C1300 1.392 . S
C1299 C1303 1.495 . S
C1300 C1299 1.392 . S
C1300 C1301 1.385 . S
C1300 C1302 1.478 . S
C1301 H1295 0.930 . S
C1301 C1297 1.400 . S
C1301 C1300 1.385 . S
C1302 C1300 1.478 . S
C1302 C1304 1.381 1_556 S
C1302 C1308 1.383 . S
C1303 C1299 1.495 . S
C1303 H1309 0.959 . S
C1303 H1310 0.961 . S
C1303 H1311 0.960 . S
C1304 C1302 1.381 1_554 S
C1304 C1305 1.394 . S
C1304 H1312 0.930 . S
C1305 C1304 1.394 . S
C1305 C1306 1.367 1_554 S
C1305 H1313 0.929 . S
C1306 C1305 1.367 1_556 S
C1306 C1307 1.399 . S
C1307 H1291 0.930 . S
C1307 C1306 1.399 . S
C1307 C1308 1.379 . S
C1308 H1292 0.931 . S
C1308 C1302 1.383 . S
C1308 C1307 1.379 . S
H1309 C1303 0.959 . S
H1310 C1303 0.961 . S
H1311 C1303 0.960 . S
H1312 C1304 0.930 . S
H1313 C1305 0.929 . S
H1314 C1322 0.929 . S
H1315 C1324 0.930 . S
H1316 C1326 0.930 1_554 S
H1317 C1329 0.929 . S
H1318 C1332 0.930 . S
H1319 C1334 0.960 . S
H1320 C1334 0.960 . S
H1321 C1334 0.960 . S
C1322 H1314 0.929 . S
C1322 C1323 1.377 . S
C1322 C1324 1.384 . S
C1323 C1322 1.377 . S
C1323 C1329 1.390 . S
C1324 H1315 0.930 . S
C1324 C1322 1.384 . S
C1324 C1325 1.372 . S
C1325 C1324 1.372 . S
C1325 C1326 1.400 . S
C1325 C1330 1.490 . S
C1326 H1316 0.930 1_556 S
C1326 C1325 1.400 . S
C1326 C1329 1.386 . S
H1327 C1343 0.930 . S
H1328 C1344 0.931 . S
C1329 H1317 0.929 . S
C1329 C1323 1.390 . S
C1329 C1326 1.386 . S
C1330 C1325 1.490 . S
C1330 C1332 1.395 . S
C1330 C1333 1.403 . S
H1331 C1337 0.930 . S
C1332 H1318 0.930 . S
C1332 C1330 1.395 . S
C1332 C1335 1.403 . S
C1333 C1330 1.403 . S
C1333 C1334 1.524 . S
C1333 C1337 1.400 . S
C1334 H1319 0.960 . S
C1334 H1320 0.960 . S
C1334 H1321 0.960 . S
C1334 C1333 1.524 . S
C1335 C1332 1.403 . S
C1335 C1336 1.392 . S
C1335 C1339 1.495 . S
C1336 C1335 1.392 . S
C1336 C1337 1.385 . S
C1336 C1338 1.478 . S
C1337 H1331 0.930 . S
C1337 C1333 1.400 . S
C1337 C1336 1.385 . S
C1338 C1336 1.478 . S
C1338 C1340 1.381 . S
C1338 C1344 1.383 1_556 S
C1339 C1335 1.495 . S
C1339 H1345 0.959 . S
C1339 H1346 0.961 . S
C1339 H1347 0.960 . S
C1340 C1338 1.381 . S
C1340 C1341 1.394 . S
C1340 H1348 0.930 . S
C1341 C1340 1.394 . S
C1341 C1342 1.383 . S
C1341 H1349 0.929 . S
C1342 C1341 1.383 . S
C1342 C1343 1.377 1_556 S
C1343 H1327 0.930 . S
C1343 C1342 1.377 1_554 S
C1343 C1344 1.379 . S
C1344 H1328 0.931 . S
C1344 C1338 1.383 1_554 S
C1344 C1343 1.379 . S
H1345 C1339 0.959 . S
H1346 C1339 0.961 . S
H1347 C1339 0.960 . S
H1348 C1340 0.930 . S
H1349 C1341 0.929 . S
H1350 C1358 0.929 . S
H1351 C1360 0.930 . S
H1352 C1362 0.930 . S
H1353 C1365 0.929 . S
H1354 C1368 0.930 . S
H1355 C1370 0.960 . S
H1356 C1370 0.960 . S
H1357 C1370 0.960 1_556 S
C1358 H1350 0.929 . S
C1358 C1359 1.377 . S
C1358 C1360 1.384 . S
C1359 C1358 1.377 . S
C1359 C1365 1.390 . S
C1360 H1351 0.930 . S
C1360 C1358 1.384 . S
C1360 C1361 1.372 . S
C1361 C1360 1.372 . S
C1361 C1362 1.400 . S
C1361 C1366 1.490 . S
C1362 H1352 0.930 . S
C1362 C1361 1.400 . S
C1362 C1365 1.386 . S
H1363 C1379 0.930 . S
H1364 C1380 0.931 . S
C1365 H1353 0.929 . S
C1365 C1359 1.390 . S
C1365 C1362 1.386 . S
C1366 C1361 1.490 . S
C1366 C1368 1.395 . S
C1366 C1369 1.403 . S
H1367 C1373 0.930 1_554 S
C1368 H1354 0.930 . S
C1368 C1366 1.395 . S
C1368 C1371 1.403 . S
C1369 C1366 1.403 . S
C1369 C1370 1.524 1_556 S
C1369 C1373 1.400 . S
C1370 H1355 0.960 . S
C1370 H1356 0.960 . S
C1370 H1357 0.960 1_554 S
C1370 C1369 1.524 1_554 S
C1371 C1368 1.403 . S
C1371 C1372 1.392 . S
C1371 C1375 1.495 . S
C1372 C1371 1.392 . S
C1372 C1373 1.385 . S
C1372 C1374 1.478 . S
C1373 H1367 0.930 1_556 S
C1373 C1369 1.400 . S
C1373 C1372 1.385 . S
C1374 C1372 1.478 . S
C1374 C1376 1.381 . S
C1374 C1380 1.383 . S
C1375 C1371 1.495 . S
C1375 H1381 0.959 . S
C1375 H1382 0.961 . S
C1375 H1383 0.960 . S
C1376 C1374 1.381 . S
C1376 C1377 1.394 . S
C1376 H1384 0.930 . S
C1377 C1376 1.394 . S
C1377 C1378 1.383 . S
C1377 H1385 0.929 1_556 S
C1378 C1377 1.383 . S
C1378 C1379 1.377 . S
C1379 H1363 0.930 . S
C1379 C1378 1.377 . S
C1379 C1380 1.379 . S
C1380 H1364 0.931 . S
C1380 C1374 1.383 . S
C1380 C1379 1.379 . S
H1381 C1375 0.959 . S
H1382 C1375 0.961 . S
H1383 C1375 0.960 . S
H1384 C1376 0.930 . S
H1385 C1377 0.929 1_554 S
H1386 C1394 0.929 . S
H1387 C1396 0.930 . S
H1388 C1398 0.930 . S
H1389 C1401 0.929 . S
H1390 C1404 0.930 . S
H1391 C1406 0.960 . S
H1392 C1406 0.960 . S
H1393 C1406 0.960 . S
C1394 H1386 0.929 . S
C1394 C1395 1.377 . S
C1394 C1396 1.384 . S
C1395 C1394 1.377 . S
C1395 C1401 1.390 . S
C1396 H1387 0.930 . S
C1396 C1394 1.384 . S
C1396 C1397 1.372 . S
C1397 C1396 1.372 . S
C1397 C1398 1.400 . S
C1397 C1402 1.490 . S
C1398 H1388 0.930 . S
C1398 C1397 1.400 . S
C1398 C1401 1.386 . S
H1399 C1415 0.930 . S
H1400 C1416 0.931 . S
C1401 H1389 0.929 . S
C1401 C1395 1.390 . S
C1401 C1398 1.386 . S
C1402 C1397 1.490 . S
C1402 C1404 1.395 . S
C1402 C1405 1.356 1_556 S
H1403 C1409 0.930 . S
C1404 H1390 0.930 . S
C1404 C1402 1.395 . S
C1404 C1407 1.403 . S
C1405 C1402 1.356 1_554 S
C1405 C1406 1.568 . S
C1405 C1409 1.404 . S
C1406 H1391 0.960 . S
C1406 H1392 0.960 . S
C1406 H1393 0.960 . S
C1406 C1405 1.568 . S
C1407 C1404 1.403 . S
C1407 C1408 1.392 . S
C1407 C1411 1.495 . S
C1408 C1407 1.392 . S
C1408 C1409 1.385 1_556 S
C1408 C1410 1.478 . S
C1409 H1403 0.930 . S
C1409 C1405 1.404 . S
C1409 C1408 1.385 1_554 S
C1410 C1408 1.478 . S
C1410 C1412 1.381 . S
C1410 C1416 1.383 . S
C1411 C1407 1.495 . S
C1411 H1417 0.959 . S
C1411 H1418 0.961 . S
C1411 H1419 0.960 . S
C1412 C1410 1.381 . S
C1412 C1413 1.394 1_556 S
C1412 H1420 0.937 . S
C1413 C1412 1.394 1_554 S
C1413 C1414 1.384 . S
C1413 H1421 0.929 . S
C1414 C1413 1.384 . S
C1414 C1415 1.376 1_554 S
C1415 H1399 0.930 . S
C1415 C1414 1.376 1_556 S
C1415 C1416 1.379 . S
C1416 H1400 0.931 . S
C1416 C1410 1.383 . S
C1416 C1415 1.379 . S
H1417 C1411 0.959 . S
H1418 C1411 0.961 . S
H1419 C1411 0.960 . S
H1420 C1412 0.937 . S
H1421 C1413 0.929 . S
H1422 C1430 0.929 . S
H1423 C1432 0.930 . S
H1424 C1434 0.930 . S
H1425 C1437 0.929 . S
H1426 C1440 0.930 . S
H1427 C1442 0.960 1_556 S
H1428 C1442 0.960 . S
H1429 C1442 0.960 . S
C1430 H1422 0.929 . S
C1430 C1431 1.377 . S
C1430 C1432 1.384 . S
C1431 C1430 1.377 . S
C1431 C1437 1.390 . S
C1432 H1423 0.930 . S
C1432 C1430 1.384 . S
C1432 C1433 1.372 . S
C1433 C1432 1.372 . S
C1433 C1434 1.400 . S
C1433 C1438 1.490 . S
C1434 H1424 0.930 . S
C1434 C1433 1.400 . S
C1434 C1437 1.386 . S
H1435 C1451 0.930 . S
H1436 C1452 0.931 . S
C1437 H1425 0.929 . S
C1437 C1431 1.390 . S
C1437 C1434 1.386 . S
C1438 C1433 1.490 . S
C1438 C1440 1.395 . S
C1438 C1441 1.403 . S
H1439 C1445 0.930 . S
C1440 H1426 0.930 . S
C1440 C1438 1.395 . S
C1440 C1443 1.403 . S
C1441 C1438 1.403 . S
C1441 C1442 1.524 . S
C1441 C1445 1.400 . S
C1442 H1427 0.960 1_554 S
C1442 H1428 0.960 . S
C1442 H1429 0.960 . S
C1442 C1441 1.524 . S
C1443 C1440 1.403 . S
C1443 C1444 1.392 . S
C1443 C1447 1.495 . S
C1444 C1443 1.392 . S
C1444 C1445 1.385 . S
C1444 C1446 1.478 . S
C1445 H1439 0.930 . S
C1445 C1441 1.400 . S
C1445 C1444 1.385 . S
C1446 C1444 1.478 . S
C1446 C1448 1.381 . S
C1446 C1452 1.383 . S
C1447 C1443 1.495 . S
C1447 H1453 0.959 . S
C1447 H1454 0.961 . S
C1447 H1455 0.960 . S
C1448 C1446 1.381 . S
C1448 C1449 1.394 . S
C1448 H1456 0.930 . S
C1449 C1448 1.394 . S
C1449 C1450 1.383 . S
C1449 H1457 0.929 . S
C1450 C1449 1.383 . S
C1450 C1451 1.377 . S
C1451 H1435 0.930 . S
C1451 C1450 1.377 . S
C1451 C1452 1.379 . S
C1452 H1436 0.931 . S
C1452 C1446 1.383 . S
C1452 C1451 1.379 . S
H1453 C1447 0.959 . S
H1454 C1447 0.961 . S
H1455 C1447 0.960 . S
H1456 C1448 0.930 . S
H1457 C1449 0.929 . S
H1458 C1466 0.929 . S
H1459 C1468 0.930 . S
H1460 C1470 0.930 . S
H1461 C1473 0.929 . S
H1462 C1476 0.930 . S
H1463 C1478 0.960 1_556 S
H1464 C1478 0.960 . S
H1465 C1478 0.960 . S
C1466 H1458 0.929 . S
C1466 C1467 1.377 . S
C1466 C1468 1.384 . S
C1467 C1466 1.377 . S
C1467 C1473 1.390 . S
C1468 H1459 0.930 . S
C1468 C1466 1.384 . S
C1468 C1469 1.372 . S
C1469 C1468 1.372 . S
C1469 C1470 1.400 . S
C1469 C1474 1.490 . S
C1470 H1460 0.930 . S
C1470 C1469 1.400 . S
C1470 C1473 1.386 . S
H1471 C1487 0.930 . S
H1472 C1488 0.931 . S
C1473 H1461 0.929 . S
C1473 C1467 1.390 . S
C1473 C1470 1.386 . S
C1474 C1469 1.490 . S
C1474 C1476 1.395 . S
C1474 C1477 1.403 . S
H1475 C1481 0.930 . S
C1476 H1462 0.930 . S
C1476 C1474 1.395 . S
C1476 C1479 1.403 . S
C1477 C1474 1.403 . S
C1477 C1478 1.524 . S
C1477 C1481 1.400 . S
C1478 H1463 0.960 1_554 S
C1478 H1464 0.960 . S
C1478 H1465 0.960 . S
C1478 C1477 1.524 . S
C1479 C1476 1.403 . S
C1479 C1480 1.392 . S
C1479 C1483 1.495 . S
C1480 C1479 1.392 . S
C1480 C1481 1.385 . S
C1480 C1482 1.478 . S
C1481 H1475 0.930 . S
C1481 C1477 1.400 . S
C1481 C1480 1.385 . S
C1482 C1480 1.478 . S
C1482 C1484 1.381 . S
C1482 C1488 1.383 . S
C1483 C1479 1.495 . S
C1483 H1489 0.959 . S
C1483 H1490 0.961 . S
C1483 H1491 0.960 . S
C1484 C1482 1.381 . S
C1484 C1485 1.394 . S
C1484 H1492 0.930 . S
C1485 C1484 1.394 . S
C1485 C1486 1.383 . S
C1485 H1493 0.929 . S
C1486 C1485 1.383 . S
C1486 C1487 1.377 . S
C1487 H1471 0.930 . S
C1487 C1486 1.377 . S
C1487 C1488 1.379 . S
C1488 H1472 0.931 . S
C1488 C1482 1.383 . S
C1488 C1487 1.379 . S
H1489 C1483 0.959 . S
H1490 C1483 0.961 . S
H1491 C1483 0.960 . S
H1492 C1484 0.930 . S
H1493 C1485 0.929 . S
H1494 C1502 0.929 . S
H1495 C1504 0.930 . S
H1496 C1506 0.930 . S
H1497 C1509 0.929 . S
H1498 C1512 0.930 . S
H1499 C1514 0.960 . S
H1500 C1514 0.960 . S
H1501 C1514 0.960 . S
C1502 H1494 0.929 . S
C1502 C1503 1.377 . S
C1502 C1504 1.384 . S
C1503 C1502 1.377 . S
C1503 C1509 1.390 . S
C1504 H1495 0.930 . S
C1504 C1502 1.384 . S
C1504 C1505 1.372 . S
C1505 C1504 1.372 . S
C1505 C1506 1.400 . S
C1505 C1510 1.490 . S
C1506 H1496 0.930 . S
C1506 C1505 1.400 . S
C1506 C1509 1.386 . S
H1507 C1523 0.930 . S
H1508 C1524 0.931 . S
C1509 H1497 0.929 . S
C1509 C1503 1.390 . S
C1509 C1506 1.386 . S
C1510 C1505 1.490 . S
C1510 C1512 1.395 . S
C1510 C1513 1.403 . S
H1511 C1517 0.930 . S
C1512 H1498 0.930 . S
C1512 C1510 1.395 . S
C1512 C1515 1.403 . S
C1513 C1510 1.403 . S
C1513 C1514 1.524 . S
C1513 C1517 1.400 . S
C1514 H1499 0.960 . S
C1514 H1500 0.960 . S
C1514 H1501 0.960 . S
C1514 C1513 1.524 . S
C1515 C1512 1.403 . S
C1515 C1516 1.392 . S
C1515 C1519 1.495 . S
C1516 C1515 1.392 . S
C1516 C1517 1.385 . S
C1516 C1518 1.478 . S
C1517 H1511 0.930 . S
C1517 C1513 1.400 . S
C1517 C1516 1.385 . S
C1518 C1516 1.478 . S
C1518 C1520 1.381 . S
C1518 C1524 1.383 . S
C1519 C1515 1.495 . S
C1519 H1525 0.959 . S
C1519 H1526 0.961 . S
C1519 H1527 0.960 . S
C1520 C1518 1.381 . S
C1520 C1521 1.394 . S
C1520 H1528 0.921 1_554 S
C1521 C1520 1.394 . S
C1521 C1522 1.383 . S
C1521 H1529 0.929 1_554 S
C1522 C1521 1.383 . S
C1522 C1523 1.377 . S
C1523 H1507 0.930 . S
C1523 C1522 1.377 . S
C1523 C1524 1.379 . S
C1524 H1508 0.931 . S
C1524 C1518 1.383 . S
C1524 C1523 1.379 . S
H1525 C1519 0.959 . S
H1526 C1519 0.961 . S
H1527 C1519 0.960 . S
H1528 C1520 0.921 1_556 S
H1529 C1521 0.929 1_556 S
H1530 C1538 0.929 . S
H1531 C1540 0.930 . S
H1532 C1542 0.930 . S
H1533 C1545 0.929 . S
H1534 C1548 0.930 . S
H1535 C1550 0.960 . S
H1536 C1550 0.955 1_655 S
H1537 C1550 0.960 . S
C1538 H1530 0.929 . S
C1538 C1539 1.377 . S
C1538 C1540 1.384 . S
C1539 C1538 1.377 . S
C1539 C1545 1.390 . S
C1540 H1531 0.930 . S
C1540 C1538 1.384 . S
C1540 C1541 1.372 . S
C1541 C1540 1.372 . S
C1541 C1542 1.400 . S
C1541 C1546 1.490 . S
C1542 H1532 0.930 . S
C1542 C1541 1.400 . S
C1542 C1545 1.386 . S
H1543 C1559 0.930 . S
H1544 C1560 0.931 . S
C1545 H1533 0.929 . S
C1545 C1539 1.390 . S
C1545 C1542 1.386 . S
C1546 C1541 1.490 . S
C1546 C1548 1.395 . S
C1546 C1549 1.403 1_655 S
H1547 C1553 0.930 . S
C1548 H1534 0.930 . S
C1548 C1546 1.395 . S
C1548 C1551 1.403 1_655 S
C1549 C1546 1.403 1_455 S
C1549 C1550 1.524 . S
C1549 C1553 1.400 . S
C1550 H1535 0.960 . S
C1550 H1536 0.955 1_455 S
C1550 H1537 0.960 . S
C1550 C1549 1.524 . S
C1551 C1548 1.403 1_455 S
C1551 C1552 1.392 . S
C1551 C1555 1.495 1_455 S
C1552 C1551 1.392 . S
C1552 C1553 1.385 . S
C1552 C1554 1.478 . S
C1553 H1547 0.930 . S
C1553 C1549 1.400 . S
C1553 C1552 1.385 . S
C1554 C1552 1.478 . S
C1554 C1556 1.381 . S
C1554 C1560 1.383 . S
C1555 C1551 1.495 1_655 S
C1555 H1561 0.959 . S
C1555 H1562 0.961 1_655 S
C1555 H1563 0.962 1_655 S
C1556 C1554 1.381 . S
C1556 C1557 1.394 . S
C1556 H1564 0.930 . S
C1557 C1556 1.394 . S
C1557 C1558 1.383 . S
C1557 H1565 0.929 . S
C1558 C1557 1.383 . S
C1558 C1559 1.377 . S
C1559 H1543 0.930 . S
C1559 C1558 1.377 . S
C1559 C1560 1.379 . S
C1560 H1544 0.931 . S
C1560 C1554 1.383 . S
C1560 C1559 1.379 . S
H1561 C1555 0.959 . S
H1562 C1555 0.961 1_455 S
H1563 C1555 0.962 1_455 S
H1564 C1556 0.930 . S
H1565 C1557 0.929 . S
H1566 C1574 0.929 . S
H1567 C1576 0.930 . S
H1568 C1578 0.930 . S
H1569 C1581 0.929 . S
H1570 C1584 0.930 . S
H1571 C1586 0.960 . S
H1572 C1586 0.960 . S
H1573 C1586 0.960 . S
C1574 H1566 0.929 . S
C1574 C1575 1.377 . S
C1574 C1576 1.384 . S
C1575 C1574 1.377 . S
C1575 C1581 1.390 . S
C1576 H1567 0.930 . S
C1576 C1574 1.384 . S
C1576 C1577 1.372 . S
C1577 C1576 1.372 . S
C1577 C1578 1.400 . S
C1577 C1582 1.490 . S
C1578 H1568 0.930 . S
C1578 C1577 1.400 . S
C1578 C1581 1.386 . S
H1579 C1595 0.930 . S
H1580 C1596 0.931 . S
C1581 H1569 0.929 . S
C1581 C1575 1.390 . S
C1581 C1578 1.386 . S
C1582 C1577 1.490 . S
C1582 C1584 1.395 . S
C1582 C1585 1.403 . S
H1583 C1589 0.930 . S
C1584 H1570 0.930 . S
C1584 C1582 1.395 . S
C1584 C1587 1.403 . S
C1585 C1582 1.403 . S
C1585 C1586 1.524 . S
C1585 C1589 1.400 . S
C1586 H1571 0.960 . S
C1586 H1572 0.960 . S
C1586 H1573 0.960 . S
C1586 C1585 1.524 . S
C1587 C1584 1.403 . S
C1587 C1588 1.392 . S
C1587 C1591 1.495 . S
C1588 C1587 1.392 . S
C1588 C1589 1.385 . S
C1588 C1590 1.478 . S
C1589 H1583 0.930 . S
C1589 C1585 1.400 . S
C1589 C1588 1.385 . S
C1590 C1588 1.478 . S
C1590 C1592 1.381 . S
C1590 C1596 1.383 . S
C1591 C1587 1.495 . S
C1591 H1597 0.959 . S
C1591 H1598 0.961 . S
C1591 H1599 0.960 . S
C1592 C1590 1.381 . S
C1592 C1593 1.394 . S
C1592 H1600 0.930 . S
C1593 C1592 1.394 . S
C1593 C1594 1.383 . S
C1593 H1601 0.929 . S
C1594 C1593 1.383 . S
C1594 C1595 1.377 . S
C1595 H1579 0.930 . S
C1595 C1594 1.377 . S
C1595 C1596 1.379 . S
C1596 H1580 0.931 . S
C1596 C1590 1.383 . S
C1596 C1595 1.379 . S
H1597 C1591 0.959 . S
H1598 C1591 0.961 . S
H1599 C1591 0.960 . S
H1600 C1592 0.930 . S
H1601 C1593 0.929 . S
H1602 C1610 0.929 . S
H1603 C1612 0.930 . S
H1604 C1614 0.930 . S
H1605 C1617 0.929 . S
H1606 C1620 0.930 . S
H1607 C1622 0.960 1_565 S
H1608 C1622 0.960 . S
H1609 C1622 0.960 . S
C1610 H1602 0.929 . S
C1610 C1611 1.377 . S
C1610 C1612 1.384 . S
C1611 C1610 1.377 . S
C1611 C1617 1.390 . S
C1612 H1603 0.930 . S
C1612 C1610 1.384 . S
C1612 C1613 1.372 . S
C1613 C1612 1.372 . S
C1613 C1614 1.400 . S
C1613 C1618 1.490 . S
C1614 H1604 0.930 . S
C1614 C1613 1.400 . S
C1614 C1617 1.386 . S
H1615 C1631 0.930 . S
H1616 C1632 0.931 . S
C1617 H1605 0.929 . S
C1617 C1611 1.390 . S
C1617 C1614 1.386 . S
C1618 C1613 1.490 . S
C1618 C1620 1.395 . S
C1618 C1621 1.403 . S
H1619 C1625 0.930 . S
C1620 H1606 0.930 . S
C1620 C1618 1.395 . S
C1620 C1623 1.403 . S
C1621 C1618 1.403 . S
C1621 C1622 1.524 . S
C1621 C1625 1.400 1_545 S
C1622 H1607 0.960 1_545 S
C1622 H1608 0.960 . S
C1622 H1609 0.960 . S
C1622 C1621 1.524 . S
C1623 C1620 1.403 . S
C1623 C1624 1.392 1_545 S
C1623 C1627 1.495 . S
C1624 C1623 1.392 1_565 S
C1624 C1625 1.385 . S
C1624 C1626 1.478 . S
C1625 H1619 0.930 . S
C1625 C1621 1.400 1_565 S
C1625 C1624 1.385 . S
C1626 C1624 1.478 . S
C1626 C1628 1.381 . S
C1626 C1632 1.383 . S
C1627 C1623 1.495 . S
C1627 H1633 0.959 . S
C1627 H1634 0.961 . S
C1627 H1635 0.960 . S
C1628 C1626 1.381 . S
C1628 C1629 1.394 . S
C1628 H1636 0.930 . S
C1629 C1628 1.394 . S
C1629 C1630 1.383 . S
C1629 H1637 0.929 . S
C1630 C1629 1.383 . S
C1630 C1631 1.377 . S
C1631 H1615 0.930 . S
C1631 C1630 1.377 . S
C1631 C1632 1.379 . S
C1632 H1616 0.931 . S
C1632 C1626 1.383 . S
C1632 C1631 1.379 . S
H1633 C1627 0.959 . S
H1634 C1627 0.961 . S
H1635 C1627 0.960 . S
H1636 C1628 0.930 . S
H1637 C1629 0.929 . S
H1638 C1646 0.929 . S
H1639 C1648 0.930 . S
H1640 C1650 0.930 . S
H1641 C1653 0.929 . S
H1642 C1656 0.930 . S
H1643 C1658 0.960 . S
H1644 C1658 0.960 . S
H1645 C1658 0.960 . S
C1646 H1638 0.929 . S
C1646 C1647 1.377 . S
C1646 C1648 1.384 . S
C1647 C1646 1.377 . S
C1647 C1653 1.390 . S
C1648 H1639 0.930 . S
C1648 C1646 1.384 . S
C1648 C1649 1.372 . S
C1649 C1648 1.372 . S
C1649 C1650 1.400 . S
C1649 C1654 1.490 . S
C1650 H1640 0.930 . S
C1650 C1649 1.400 . S
C1650 C1653 1.386 . S
H1651 C1667 0.930 . S
H1652 C1668 0.931 . S
C1653 H1641 0.929 . S
C1653 C1647 1.390 . S
C1653 C1650 1.386 . S
C1654 C1649 1.490 . S
C1654 C1656 1.395 . S
C1654 C1657 1.403 . S
H1655 C1661 0.930 . S
C1656 H1642 0.930 . S
C1656 C1654 1.395 . S
C1656 C1659 1.403 . S
C1657 C1654 1.403 . S
C1657 C1658 1.524 . S
C1657 C1661 1.400 . S
C1658 H1643 0.960 . S
C1658 H1644 0.960 . S
C1658 H1645 0.960 . S
C1658 C1657 1.524 . S
C1659 C1656 1.403 . S
C1659 C1660 1.392 . S
C1659 C1663 1.495 . S
C1660 C1659 1.392 . S
C1660 C1661 1.385 . S
C1660 C1662 1.478 . S
C1661 H1655 0.930 . S
C1661 C1657 1.400 . S
C1661 C1660 1.385 . S
C1662 C1660 1.478 . S
C1662 C1664 1.381 . S
C1662 C1668 1.383 . S
C1663 C1659 1.495 . S
C1663 H1669 0.959 . S
C1663 H1670 0.961 . S
C1663 H1671 0.960 . S
C1664 C1662 1.381 . S
C1664 C1665 1.394 . S
C1664 H1672 0.930 . S
C1665 C1664 1.394 . S
C1665 C1666 1.383 . S
C1665 H1673 0.929 . S
C1666 C1665 1.383 . S
C1666 C1667 1.377 . S
C1667 H1651 0.930 . S
C1667 C1666 1.377 . S
C1667 C1668 1.379 . S
C1668 H1652 0.931 . S
C1668 C1662 1.383 . S
C1668 C1667 1.379 . S
H1669 C1663 0.959 . S
H1670 C1663 0.961 . S
H1671 C1663 0.960 . S
H1672 C1664 0.930 . S
H1673 C1665 0.929 . S
H1674 C1682 0.929 . S
H1675 C1684 0.930 . S
H1676 C1686 0.930 . S
H1677 C1689 0.929 . S
H1678 C1692 0.930 . S
H1679 C1694 0.960 . S
H1680 C1694 0.960 . S
H1681 C1694 0.960 . S
C1682 H1674 0.929 . S
C1682 C1683 1.377 . S
C1682 C1684 1.384 . S
C1683 C1682 1.377 . S
C1683 C1689 1.390 . S
C1684 H1675 0.930 . S
C1684 C1682 1.384 . S
C1684 C1685 1.372 . S
C1685 C1684 1.372 . S
C1685 C1686 1.400 . S
C1685 C1690 1.490 . S
C1686 H1676 0.930 . S
C1686 C1685 1.400 . S
C1686 C1689 1.386 . S
H1687 C1703 0.930 . S
H1688 C1704 0.931 . S
C1689 H1677 0.929 . S
C1689 C1683 1.390 . S
C1689 C1686 1.386 . S
C1690 C1685 1.490 . S
C1690 C1692 1.395 . S
C1690 C1693 1.403 . S
H1691 C1697 0.930 . S
C1692 H1678 0.930 . S
C1692 C1690 1.395 . S
C1692 C1695 1.403 . S
C1693 C1690 1.403 . S
C1693 C1694 1.524 . S
C1693 C1697 1.400 . S
C1694 H1679 0.960 . S
C1694 H1680 0.960 . S
C1694 H1681 0.960 . S
C1694 C1693 1.524 . S
C1695 C1692 1.403 . S
C1695 C1696 1.392 . S
C1695 C1699 1.495 . S
C1696 C1695 1.392 . S
C1696 C1697 1.385 . S
C1696 C1698 1.478 . S
C1697 H1691 0.930 . S
C1697 C1693 1.400 . S
C1697 C1696 1.385 . S
C1698 C1696 1.478 . S
C1698 C1700 1.381 . S
C1698 C1704 1.383 . S
C1699 C1695 1.495 . S
C1699 H1705 0.959 . S
C1699 H1706 0.961 . S
C1699 H1707 0.960 . S
C1700 C1698 1.381 . S
C1700 C1701 1.394 . S
C1700 H1708 0.930 . S
C1701 C1700 1.394 . S
C1701 C1702 1.383 . S
C1701 H1709 0.929 . S
C1702 C1701 1.383 . S
C1702 C1703 1.377 . S
C1703 H1687 0.930 . S
C1703 C1702 1.377 . S
C1703 C1704 1.379 . S
C1704 H1688 0.931 . S
C1704 C1698 1.383 . S
C1704 C1703 1.379 . S
H1705 C1699 0.959 . S
H1706 C1699 0.961 . S
H1707 C1699 0.960 . S
H1708 C1700 0.930 . S
H1709 C1701 0.929 . S
H1710 C1718 0.929 . S
H1711 C1720 0.930 . S
H1712 C1722 0.930 . S
H1713 C1725 0.929 . S
H1714 C1728 0.930 . S
H1715 C1730 0.960 . S
H1716 C1730 0.960 . S
H1717 C1730 0.960 . S
C1718 H1710 0.929 . S
C1718 C1719 1.377 . S
C1718 C1720 1.384 . S
C1719 C1718 1.377 . S
C1719 C1725 1.390 . S
C1720 H1711 0.930 . S
C1720 C1718 1.384 . S
C1720 C1721 1.372 . S
C1721 C1720 1.372 . S
C1721 C1722 1.400 . S
C1721 C1726 1.490 . S
C1722 H1712 0.930 . S
C1722 C1721 1.400 . S
C1722 C1725 1.386 . S
H1723 C1739 0.930 . S
H1724 C1740 0.931 . S
C1725 H1713 0.929 . S
C1725 C1719 1.390 . S
C1725 C1722 1.386 . S
C1726 C1721 1.490 . S
C1726 C1728 1.395 . S
C1726 C1729 1.403 . S
H1727 C1733 0.930 . S
C1728 H1714 0.930 . S
C1728 C1726 1.395 . S
C1728 C1731 1.403 . S
C1729 C1726 1.403 . S
C1729 C1730 1.524 . S
C1729 C1733 1.400 . S
C1730 H1715 0.960 . S
C1730 H1716 0.960 . S
C1730 H1717 0.960 . S
C1730 C1729 1.524 . S
C1731 C1728 1.403 . S
C1731 C1732 1.392 . S
C1731 C1735 1.495 . S
C1732 C1731 1.392 . S
C1732 C1733 1.385 . S
C1732 C1734 1.478 . S
C1733 H1727 0.930 . S
C1733 C1729 1.400 . S
C1733 C1732 1.385 . S
C1734 C1732 1.478 . S
C1734 C1736 1.381 . S
C1734 C1740 1.383 . S
C1735 C1731 1.495 . S
C1735 H1741 0.959 . S
C1735 H1742 0.961 . S
C1735 H1743 0.960 . S
C1736 C1734 1.381 . S
C1736 C1737 1.394 . S
C1736 H1744 0.930 . S
C1737 C1736 1.394 . S
C1737 C1738 1.383 . S
C1737 H1745 0.929 . S
C1738 C1737 1.383 . S
C1738 C1739 1.377 . S
C1739 H1723 0.930 . S
C1739 C1738 1.377 . S
C1739 C1740 1.379 . S
C1740 H1724 0.931 . S
C1740 C1734 1.383 . S
C1740 C1739 1.379 . S
H1741 C1735 0.959 . S
H1742 C1735 0.961 . S
H1743 C1735 0.960 . S
H1744 C1736 0.930 . S
H1745 C1737 0.929 . S
H1746 C1754 0.929 . S
H1747 C1756 0.930 . S
H1748 C1758 0.930 . S
H1749 C1761 0.929 . S
H1750 C1764 0.930 . S
H1751 C1766 0.960 . S
H1752 C1766 0.960 . S
H1753 C1766 0.960 . S
C1754 H1746 0.929 . S
C1754 C1755 1.377 . S
C1754 C1756 1.384 . S
C1755 C1754 1.377 . S
C1755 C1761 1.390 . S
C1756 H1747 0.930 . S
C1756 C1754 1.384 . S
C1756 C1757 1.372 . S
C1757 C1756 1.372 . S
C1757 C1758 1.400 . S
C1757 C1762 1.490 . S
C1758 H1748 0.930 . S
C1758 C1757 1.400 . S
C1758 C1761 1.386 . S
H1759 C1775 0.930 . S
H1760 C1776 0.931 . S
C1761 H1749 0.929 . S
C1761 C1755 1.390 . S
C1761 C1758 1.386 . S
C1762 C1757 1.490 . S
C1762 C1764 1.395 . S
C1762 C1765 1.403 . S
H1763 C1769 0.930 . S
C1764 H1750 0.930 . S
C1764 C1762 1.395 . S
C1764 C1767 1.403 . S
C1765 C1762 1.403 . S
C1765 C1766 1.524 . S
C1765 C1769 1.400 . S
C1766 H1751 0.960 . S
C1766 H1752 0.960 . S
C1766 H1753 0.960 . S
C1766 C1765 1.524 . S
C1767 C1764 1.403 . S
C1767 C1768 1.392 . S
C1767 C1771 1.495 . S
C1768 C1767 1.392 . S
C1768 C1769 1.385 . S
C1768 C1770 1.478 . S
C1769 H1763 0.930 . S
C1769 C1765 1.400 . S
C1769 C1768 1.385 . S
C1770 C1768 1.478 . S
C1770 C1772 1.381 . S
C1770 C1776 1.383 . S
C1771 C1767 1.495 . S
C1771 H1777 0.959 . S
C1771 H1778 0.961 . S
C1771 H1779 0.960 . S
C1772 C1770 1.381 . S
C1772 C1773 1.394 . S
C1772 H1780 0.930 . S
C1773 C1772 1.394 . S
C1773 C1774 1.383 . S
C1773 H1781 0.929 . S
C1774 C1773 1.383 . S
C1774 C1775 1.377 . S
C1775 H1759 0.930 . S
C1775 C1774 1.377 . S
C1775 C1776 1.379 . S
C1776 H1760 0.931 . S
C1776 C1770 1.383 . S
C1776 C1775 1.379 . S
H1777 C1771 0.959 . S
H1778 C1771 0.961 . S
H1779 C1771 0.960 . S
H1780 C1772 0.930 . S
H1781 C1773 0.929 . S
H1782 C1790 0.929 . S
H1783 C1792 0.930 . S
H1784 C1794 0.930 . S
H1785 C1797 0.929 . S
H1786 C1800 0.930 . S
H1787 C1802 0.960 . S
H1788 C1802 0.960 . S
H1789 C1802 0.960 . S
C1790 H1782 0.929 . S
C1790 C1791 1.377 . S
C1790 C1792 1.384 . S
C1791 C1790 1.377 . S
C1791 C1797 1.390 . S
C1792 H1783 0.930 . S
C1792 C1790 1.384 . S
C1792 C1793 1.372 . S
C1793 C1792 1.372 . S
C1793 C1794 1.400 . S
C1793 C1798 1.490 . S
C1794 H1784 0.930 . S
C1794 C1793 1.400 . S
C1794 C1797 1.386 . S
H1795 C1811 0.930 . S
H1796 C1812 0.931 . S
C1797 H1785 0.929 . S
C1797 C1791 1.390 . S
C1797 C1794 1.386 . S
C1798 C1793 1.490 . S
C1798 C1800 1.395 . S
C1798 C1801 1.403 . S
H1799 C1805 0.930 . S
C1800 H1786 0.930 . S
C1800 C1798 1.395 . S
C1800 C1803 1.403 . S
C1801 C1798 1.403 . S
C1801 C1802 1.524 . S
C1801 C1805 1.400 . S
C1802 H1787 0.960 . S
C1802 H1788 0.960 . S
C1802 H1789 0.960 . S
C1802 C1801 1.524 . S
C1803 C1800 1.403 . S
C1803 C1804 1.392 . S
C1803 C1807 1.495 . S
C1804 C1803 1.392 . S
C1804 C1805 1.385 . S
C1804 C1806 1.478 . S
C1805 H1799 0.930 . S
C1805 C1801 1.400 . S
C1805 C1804 1.385 . S
C1806 C1804 1.478 . S
C1806 C1808 1.381 . S
C1806 C1812 1.383 . S
C1807 C1803 1.495 . S
C1807 H1813 0.959 . S
C1807 H1814 0.961 . S
C1807 H1815 0.960 . S
C1808 C1806 1.381 . S
C1808 C1809 1.394 . S
C1808 H1816 0.930 . S
C1809 C1808 1.394 . S
C1809 C1810 1.383 . S
C1809 H1817 0.929 . S
C1810 C1809 1.383 . S
C1810 C1811 1.377 . S
C1811 H1795 0.930 . S
C1811 C1810 1.377 . S
C1811 C1812 1.379 . S
C1812 H1796 0.931 . S
C1812 C1806 1.383 . S
C1812 C1811 1.379 . S
H1813 C1807 0.959 . S
H1814 C1807 0.961 . S
H1815 C1807 0.960 . S
H1816 C1808 0.930 . S
H1817 C1809 0.929 . S
H1818 C1826 0.929 . S
H1819 C1828 0.930 . S
H1820 C1830 0.930 . S
H1821 C1833 0.929 . S
H1822 C1836 0.930 . S
H1823 C1838 0.960 . S
H1824 C1838 0.960 . S
H1825 C1838 0.960 . S
C1826 H1818 0.929 . S
C1826 C1827 1.377 . S
C1826 C1828 1.384 . S
C1827 C1826 1.377 . S
C1827 C1833 1.390 . S
C1828 H1819 0.930 . S
C1828 C1826 1.384 . S
C1828 C1829 1.372 . S
C1829 C1828 1.372 . S
C1829 C1830 1.400 . S
C1829 C1834 1.490 . S
C1830 H1820 0.930 . S
C1830 C1829 1.400 . S
C1830 C1833 1.386 . S
H1831 C1847 0.930 . S
H1832 C1848 0.931 . S
C1833 H1821 0.929 . S
C1833 C1827 1.390 . S
C1833 C1830 1.386 . S
C1834 C1829 1.490 . S
C1834 C1836 1.395 . S
C1834 C1837 1.403 . S
H1835 C1841 0.930 . S
C1836 H1822 0.930 . S
C1836 C1834 1.395 . S
C1836 C1839 1.403 . S
C1837 C1834 1.403 . S
C1837 C1838 1.524 . S
C1837 C1841 1.400 . S
C1838 H1823 0.960 . S
C1838 H1824 0.960 . S
C1838 H1825 0.960 . S
C1838 C1837 1.524 . S
C1839 C1836 1.403 . S
C1839 C1840 1.392 . S
C1839 C1843 1.495 . S
C1840 C1839 1.392 . S
C1840 C1841 1.385 . S
C1840 C1842 1.478 . S
C1841 H1835 0.930 . S
C1841 C1837 1.400 . S
C1841 C1840 1.385 . S
C1842 C1840 1.478 . S
C1842 C1844 1.381 . S
C1842 C1848 1.383 . S
C1843 C1839 1.495 . S
C1843 H1849 0.959 . S
C1843 H1850 0.961 . S
C1843 H1851 0.960 . S
C1844 C1842 1.381 . S
C1844 C1845 1.394 . S
C1844 H1852 0.930 . S
C1845 C1844 1.394 . S
C1845 C1846 1.383 . S
C1845 H1853 0.929 . S
C1846 C1845 1.383 . S
C1846 C1847 1.377 . S
C1847 H1831 0.930 . S
C1847 C1846 1.377 . S
C1847 C1848 1.379 . S
C1848 H1832 0.931 . S
C1848 C1842 1.383 . S
C1848 C1847 1.379 . S
H1849 C1843 0.959 . S
H1850 C1843 0.961 . S
H1851 C1843 0.960 . S
H1852 C1844 0.930 . S
H1853 C1845 0.929 . S
H1854 C1862 0.929 . S
H1855 C1864 0.930 . S
H1856 C1866 0.930 . S
H1857 C1869 0.929 . S
H1858 C1872 0.930 . S
H1859 C1874 0.960 . S
H1860 C1874 0.960 . S
H1861 C1874 0.960 . S
C1862 H1854 0.929 . S
C1862 C1863 1.377 . S
C1862 C1864 1.384 1_545 S
C1863 C1862 1.377 . S
C1863 C1869 1.390 . S
C1864 H1855 0.930 . S
C1864 C1862 1.384 1_565 S
C1864 C1865 1.372 . S
C1865 C1864 1.372 . S
C1865 C1866 1.400 . S
C1865 C1870 1.490 . S
C1866 H1856 0.930 . S
C1866 C1865 1.400 . S
C1866 C1869 1.386 1_565 S
H1867 C1883 0.930 . S
H1868 C1884 0.931 . S
C1869 H1857 0.929 . S
C1869 C1863 1.390 . S
C1869 C1866 1.386 1_545 S
C1870 C1865 1.490 . S
C1870 C1872 1.395 . S
C1870 C1873 1.403 . S
H1871 C1877 0.930 . S
C1872 H1858 0.930 . S
C1872 C1870 1.395 . S
C1872 C1875 1.403 . S
C1873 C1870 1.403 . S
C1873 C1874 1.524 . S
C1873 C1877 1.400 . S
C1874 H1859 0.960 . S
C1874 H1860 0.960 . S
C1874 H1861 0.960 . S
C1874 C1873 1.524 . S
C1875 C1872 1.403 . S
C1875 C1876 1.392 . S
C1875 C1879 1.495 . S
C1876 C1875 1.392 . S
C1876 C1877 1.385 . S
C1876 C1878 1.478 . S
C1877 H1871 0.930 . S
C1877 C1873 1.400 . S
C1877 C1876 1.385 . S
C1878 C1876 1.478 . S
C1878 C1880 1.381 . S
C1878 C1884 1.383 . S
C1879 C1875 1.495 . S
C1879 H1885 0.959 . S
C1879 H1886 0.961 . S
C1879 H1887 0.960 . S
C1880 C1878 1.381 . S
C1880 C1881 1.394 . S
C1880 H1888 0.930 . S
C1881 C1880 1.394 . S
C1881 C1882 1.383 . S
C1881 H1889 0.929 . S
C1882 C1881 1.383 . S
C1882 C1883 1.377 . S
C1883 H1867 0.930 . S
C1883 C1882 1.377 . S
C1883 C1884 1.379 . S
C1884 H1868 0.931 . S
C1884 C1878 1.383 . S
C1884 C1883 1.379 . S
H1885 C1879 0.959 . S
H1886 C1879 0.961 . S
H1887 C1879 0.960 . S
H1888 C1880 0.930 . S
H1889 C1881 0.929 . S
H1890 C1898 0.929 . S
H1891 C1900 0.930 . S
H1892 C1902 0.930 . S
H1893 C1905 0.929 1_655 S
H1894 C1908 0.930 . S
H1895 C1910 0.960 . S
H1896 C1910 0.960 . S
H1897 C1910 0.960 . S
C1898 H1890 0.929 . S
C1898 C1899 1.377 1_455 S
C1898 C1900 1.384 . S
C1899 C1898 1.377 1_655 S
C1899 C1905 1.390 1_655 S
C1900 H1891 0.930 . S
C1900 C1898 1.384 . S
C1900 C1901 1.372 . S
C1901 C1900 1.372 . S
C1901 C1902 1.400 . S
C1901 C1906 1.490 . S
C1902 H1892 0.930 . S
C1902 C1901 1.400 . S
C1902 C1905 1.386 . S
H1903 C1919 0.930 . S
H1904 C1920 0.931 . S
C1905 H1893 0.929 1_455 S
C1905 C1899 1.390 1_455 S
C1905 C1902 1.386 . S
C1906 C1901 1.490 . S
C1906 C1908 1.395 . S
C1906 C1909 1.403 . S
H1907 C1913 0.930 . S
C1908 H1894 0.930 . S
C1908 C1906 1.395 . S
C1908 C1911 1.403 . S
C1909 C1906 1.403 . S
C1909 C1910 1.524 . S
C1909 C1913 1.400 . S
C1910 H1895 0.960 . S
C1910 H1896 0.960 . S
C1910 H1897 0.960 . S
C1910 C1909 1.524 . S
C1911 C1908 1.403 . S
C1911 C1912 1.392 . S
C1911 C1915 1.495 . S
C1912 C1911 1.392 . S
C1912 C1913 1.385 . S
C1912 C1914 1.478 . S
C1913 H1907 0.930 . S
C1913 C1909 1.400 . S
C1913 C1912 1.385 . S
C1914 C1912 1.478 . S
C1914 C1916 1.381 . S
C1914 C1920 1.383 . S
C1915 C1911 1.495 . S
C1915 H1921 0.959 . S
C1915 H1922 0.961 . S
C1915 H1923 0.960 . S
C1916 C1914 1.381 . S
C1916 C1917 1.394 . S
C1916 H1924 0.930 . S
C1917 C1916 1.394 . S
C1917 C1918 1.383 . S
C1917 H1925 0.929 . S
C1918 C1917 1.383 . S
C1918 C1919 1.377 . S
C1919 H1903 0.930 . S
C1919 C1918 1.377 . S
C1919 C1920 1.379 . S
C1920 H1904 0.931 . S
C1920 C1914 1.383 . S
C1920 C1919 1.379 . S
H1921 C1915 0.959 . S
H1922 C1915 0.961 . S
H1923 C1915 0.960 . S
H1924 C1916 0.930 . S
H1925 C1917 0.929 . S
H1926 C1934 0.929 . S
H1927 C1936 0.930 . S
H1928 C1938 0.930 . S
H1929 C1941 0.929 . S
H1930 C1944 0.930 . S
H1931 C1946 0.960 . S
H1932 C1946 0.960 . S
H1933 C1946 0.960 . S
C1934 H1926 0.929 . S
C1934 C1935 1.377 . S
C1934 C1936 1.384 . S
C1935 C1934 1.377 . S
C1935 C1941 1.390 . S
C1936 H1927 0.930 . S
C1936 C1934 1.384 . S
C1936 C1937 1.372 . S
C1937 C1936 1.372 . S
C1937 C1938 1.400 . S
C1937 C1942 1.490 . S
C1938 H1928 0.930 . S
C1938 C1937 1.400 . S
C1938 C1941 1.386 . S
H1939 C1955 0.930 . S
H1940 C1956 0.931 . S
C1941 H1929 0.929 . S
C1941 C1935 1.390 . S
C1941 C1938 1.386 . S
C1942 C1937 1.490 . S
C1942 C1944 1.395 . S
C1942 C1945 1.403 . S
H1943 C1949 0.930 . S
C1944 H1930 0.930 . S
C1944 C1942 1.395 . S
C1944 C1947 1.403 . S
C1945 C1942 1.403 . S
C1945 C1946 1.524 . S
C1945 C1949 1.400 . S
C1946 H1931 0.960 . S
C1946 H1932 0.960 . S
C1946 H1933 0.960 . S
C1946 C1945 1.524 . S
C1947 C1944 1.403 . S
C1947 C1948 1.392 . S
C1947 C1951 1.495 . S
C1948 C1947 1.392 . S
C1948 C1949 1.385 . S
C1948 C1950 1.478 . S
C1949 H1943 0.930 . S
C1949 C1945 1.400 . S
C1949 C1948 1.385 . S
C1950 C1948 1.478 . S
C1950 C1952 1.381 . S
C1950 C1956 1.383 . S
C1951 C1947 1.495 . S
C1951 H1957 0.959 . S
C1951 H1958 0.961 . S
C1951 H1959 0.960 . S
C1952 C1950 1.381 . S
C1952 C1953 1.394 . S
C1952 H1960 0.930 . S
C1953 C1952 1.394 . S
C1953 C1954 1.383 . S
C1953 H1961 0.929 . S
C1954 C1953 1.383 . S
C1954 C1955 1.377 . S
C1955 H1939 0.930 . S
C1955 C1954 1.377 . S
C1955 C1956 1.379 . S
C1956 H1940 0.931 . S
C1956 C1950 1.383 . S
C1956 C1955 1.379 . S
H1957 C1951 0.959 . S
H1958 C1951 0.961 . S
H1959 C1951 0.960 . S
H1960 C1952 0.930 . S
H1961 C1953 0.929 . S
H1962 C1970 0.929 . S
H1963 C1972 0.930 . S
H1964 C1974 0.930 . S
H1965 C1977 0.929 . S
H1966 C1980 0.930 . S
H1967 C1982 0.960 . S
H1968 C1982 0.960 . S
H1969 C1982 0.960 . S
C1970 H1962 0.929 . S
C1970 C1971 1.377 . S
C1970 C1972 1.384 . S
C1971 C1970 1.377 . S
C1971 C1977 1.390 . S
C1972 H1963 0.930 . S
C1972 C1970 1.384 . S
C1972 C1973 1.372 . S
C1973 C1972 1.372 . S
C1973 C1974 1.400 . S
C1973 C1978 1.490 . S
C1974 H1964 0.930 . S
C1974 C1973 1.400 . S
C1974 C1977 1.386 . S
H1975 C1991 0.930 . S
H1976 C1992 0.931 . S
C1977 H1965 0.929 . S
C1977 C1971 1.390 . S
C1977 C1974 1.386 . S
C1978 C1973 1.490 . S
C1978 C1980 1.395 . S
C1978 C1981 1.403 . S
H1979 C1985 0.930 . S
C1980 H1966 0.930 . S
C1980 C1978 1.395 . S
C1980 C1983 1.403 . S
C1981 C1978 1.403 . S
C1981 C1982 1.524 . S
C1981 C1985 1.400 . S
C1982 H1967 0.960 . S
C1982 H1968 0.960 . S
C1982 H1969 0.960 . S
C1982 C1981 1.524 . S
C1983 C1980 1.403 . S
C1983 C1984 1.392 . S
C1983 C1987 1.495 . S
C1984 C1983 1.392 . S
C1984 C1985 1.385 . S
C1984 C1986 1.478 . S
C1985 H1979 0.930 . S
C1985 C1981 1.400 . S
C1985 C1984 1.385 . S
C1986 C1984 1.478 . S
C1986 C1988 1.381 . S
C1986 C1992 1.383 . S
C1987 C1983 1.495 . S
C1987 H1993 0.959 . S
C1987 H1994 0.961 . S
C1987 H1995 0.960 . S
C1988 C1986 1.381 . S
C1988 C1989 1.394 . S
C1988 H1996 0.930 . S
C1989 C1988 1.394 . S
C1989 C1990 1.383 . S
C1989 H1997 0.929 . S
C1990 C1989 1.383 . S
C1990 C1991 1.377 . S
C1991 H1975 0.930 . S
C1991 C1990 1.377 . S
C1991 C1992 1.379 . S
C1992 H1976 0.931 . S
C1992 C1986 1.383 . S
C1992 C1991 1.379 . S
H1993 C1987 0.959 . S
H1994 C1987 0.961 . S
H1995 C1987 0.960 . S
H1996 C1988 0.930 . S
H1997 C1989 0.929 . S
H1998 C2006 0.929 . S
H1999 C2008 0.930 . S
H2000 C2010 0.930 . S
H2001 C2013 0.929 . S
H2002 C2016 0.930 . S
H2003 C2018 0.960 . S
H2004 C2018 0.960 . S
H2005 C2018 0.960 . S
C2006 H1998 0.929 . S
C2006 C2007 1.377 . S
C2006 C2008 1.384 . S
C2007 C2006 1.377 . S
C2007 C2013 1.390 . S
C2008 H1999 0.930 . S
C2008 C2006 1.384 . S
C2008 C2009 1.372 . S
C2009 C2008 1.372 . S
C2009 C2010 1.400 . S
C2009 C2014 1.490 . S
C2010 H2000 0.930 . S
C2010 C2009 1.400 . S
C2010 C2013 1.386 . S
H2011 C2027 0.930 . S
H2012 C2028 0.931 . S
C2013 H2001 0.929 . S
C2013 C2007 1.390 . S
C2013 C2010 1.386 . S
C2014 C2009 1.490 . S
C2014 C2016 1.395 . S
C2014 C2017 1.403 . S
H2015 C2021 0.930 . S
C2016 H2002 0.930 . S
C2016 C2014 1.395 . S
C2016 C2019 1.403 . S
C2017 C2014 1.403 . S
C2017 C2018 1.524 . S
C2017 C2021 1.400 . S
C2018 H2003 0.960 . S
C2018 H2004 0.960 . S
C2018 H2005 0.960 . S
C2018 C2017 1.524 . S
C2019 C2016 1.403 . S
C2019 C2020 1.392 . S
C2019 C2023 1.495 . S
C2020 C2019 1.392 . S
C2020 C2021 1.385 . S
C2020 C2022 1.478 . S
C2021 H2015 0.930 . S
C2021 C2017 1.400 . S
C2021 C2020 1.385 . S
C2022 C2020 1.478 . S
C2022 C2024 1.381 . S
C2022 C2028 1.383 . S
C2023 C2019 1.495 . S
C2023 H2029 0.959 . S
C2023 H2030 0.961 . S
C2023 H2031 0.960 . S
C2024 C2022 1.381 . S
C2024 C2025 1.394 . S
C2024 H2032 0.930 . S
C2025 C2024 1.394 . S
C2025 C2026 1.383 . S
C2025 H2033 0.929 . S
C2026 C2025 1.383 . S
C2026 C2027 1.377 . S
C2027 H2011 0.930 . S
C2027 C2026 1.377 . S
C2027 C2028 1.379 . S
C2028 H2012 0.931 . S
C2028 C2022 1.383 . S
C2028 C2027 1.379 . S
H2029 C2023 0.959 . S
H2030 C2023 0.961 . S
H2031 C2023 0.960 . S
H2032 C2024 0.930 . S
H2033 C2025 0.929 . S
H2034 C2042 0.929 . S
H2035 C2044 0.930 . S
H2036 C2046 0.930 . S
H2037 C2049 0.929 . S
H2038 C2052 0.930 . S
H2039 C2054 0.960 . S
H2040 C2054 0.960 . S
H2041 C2054 0.960 . S
C2042 H2034 0.929 . S
C2042 C2043 1.377 . S
C2042 C2044 1.384 . S
C2043 C2042 1.377 . S
C2043 C2049 1.390 . S
C2044 H2035 0.930 . S
C2044 C2042 1.384 . S
C2044 C2045 1.372 . S
C2045 C2044 1.372 . S
C2045 C2046 1.400 . S
C2045 C2050 1.490 . S
C2046 H2036 0.930 . S
C2046 C2045 1.400 . S
C2046 C2049 1.386 . S
H2047 C2063 0.930 . S
H2048 C2064 0.931 . S
C2049 H2037 0.929 . S
C2049 C2043 1.390 . S
C2049 C2046 1.386 . S
C2050 C2045 1.490 . S
C2050 C2052 1.395 . S
C2050 C2053 1.403 . S
H2051 C2057 0.930 . S
C2052 H2038 0.930 . S
C2052 C2050 1.395 . S
C2052 C2055 1.403 . S
C2053 C2050 1.403 . S
C2053 C2054 1.524 . S
C2053 C2057 1.400 . S
C2054 H2039 0.960 . S
C2054 H2040 0.960 . S
C2054 H2041 0.960 . S
C2054 C2053 1.524 . S
C2055 C2052 1.403 . S
C2055 C2056 1.392 . S
C2055 C2059 1.495 . S
C2056 C2055 1.392 . S
C2056 C2057 1.385 . S
C2056 C2058 1.478 . S
C2057 H2051 0.930 . S
C2057 C2053 1.400 . S
C2057 C2056 1.385 . S
C2058 C2056 1.478 . S
C2058 C2060 1.381 . S
C2058 C2064 1.383 . S
C2059 C2055 1.495 . S
C2059 H2065 0.959 . S
C2059 H2066 0.961 . S
C2059 H2067 0.960 . S
C2060 C2058 1.381 . S
C2060 C2061 1.394 . S
C2060 H2068 0.930 . S
C2061 C2060 1.394 . S
C2061 C2062 1.383 . S
C2061 H2069 0.929 . S
C2062 C2061 1.383 . S
C2062 C2063 1.377 . S
C2063 H2047 0.930 . S
C2063 C2062 1.377 . S
C2063 C2064 1.379 . S
C2064 H2048 0.931 . S
C2064 C2058 1.383 . S
C2064 C2063 1.379 . S
H2065 C2059 0.959 . S
H2066 C2059 0.961 . S
H2067 C2059 0.960 . S
H2068 C2060 0.930 . S
H2069 C2061 0.929 . S
H2070 C2078 0.929 . S
H2071 C2080 0.930 . S
H2072 C2082 0.930 . S
H2073 C2085 0.929 . S
H2074 C2088 0.930 . S
H2075 C2090 0.960 . S
H2076 C2090 0.960 1_565 S
H2077 C2090 0.960 . S
C2078 H2070 0.929 . S
C2078 C2079 1.377 . S
C2078 C2080 1.384 . S
C2079 C2078 1.377 . S
C2079 C2085 1.390 . S
C2080 H2071 0.930 . S
C2080 C2078 1.384 . S
C2080 C2081 1.372 . S
C2081 C2080 1.372 . S
C2081 C2082 1.400 . S
C2081 C2086 1.490 . S
C2082 H2072 0.930 . S
C2082 C2081 1.400 . S
C2082 C2085 1.386 . S
H2083 C2099 0.930 . S
H2084 C2100 0.931 . S
C2085 H2073 0.929 . S
C2085 C2079 1.390 . S
C2085 C2082 1.386 . S
C2086 C2081 1.490 . S
C2086 C2088 1.395 . S
C2086 C2089 1.403 1_565 S
H2087 C2093 0.930 . S
C2088 H2074 0.930 . S
C2088 C2086 1.395 . S
C2088 C2091 1.393 1_565 S
C2089 C2086 1.403 1_545 S
C2089 C2090 1.524 . S
C2089 C2093 1.400 . S
C2090 H2075 0.960 . S
C2090 H2076 0.960 1_545 S
C2090 H2077 0.960 . S
C2090 C2089 1.524 . S
C2091 C2088 1.393 1_545 S
C2091 C2092 1.420 . S
C2091 C2095 1.478 1_545 S
C2092 C2091 1.420 . S
C2092 C2093 1.385 . S
C2092 C2094 1.478 . S
C2093 H2087 0.930 . S
C2093 C2089 1.400 . S
C2093 C2092 1.385 . S
C2094 C2092 1.478 . S
C2094 C2096 1.381 . S
C2094 C2100 1.383 . S
C2095 C2091 1.478 1_565 S
C2095 H2101 0.959 . S
C2095 H2102 0.961 1_565 S
C2095 H2103 0.962 1_565 S
C2096 C2094 1.381 . S
C2096 C2097 1.394 . S
C2096 H2104 0.930 . S
C2097 C2096 1.394 . S
C2097 C2098 1.383 . S
C2097 H2105 0.929 . S
C2098 C2097 1.383 . S
C2098 C2099 1.377 . S
C2099 H2083 0.930 . S
C2099 C2098 1.377 . S
C2099 C2100 1.379 . S
C2100 H2084 0.931 . S
C2100 C2094 1.383 . S
C2100 C2099 1.379 . S
H2101 C2095 0.959 . S
H2102 C2095 0.961 1_545 S
H2103 C2095 0.962 1_545 S
H2104 C2096 0.930 . S
H2105 C2097 0.929 . S
H2106 C2114 0.929 . S
H2107 C2116 0.930 . S
H2108 C2118 0.930 . S
H2109 C2121 0.929 . S
H2110 C2124 0.911 . S
H2111 C2126 0.960 . S
H2112 C2126 0.960 . S
H2113 C2126 0.960 . S
C2114 H2106 0.929 . S
C2114 C2115 1.377 . S
C2114 C2116 1.384 . S
C2115 C2114 1.377 . S
C2115 C2121 1.390 . S
C2116 H2107 0.930 . S
C2116 C2114 1.384 . S
C2116 C2117 1.372 . S
C2117 C2116 1.372 . S
C2117 C2118 1.400 . S
C2117 C2122 1.490 . S
C2118 H2108 0.930 . S
C2118 C2117 1.400 . S
C2118 C2121 1.386 . S
H2119 C2135 0.930 . S
H2120 C2136 0.931 . S
C2121 H2109 0.929 . S
C2121 C2115 1.390 . S
C2121 C2118 1.386 . S
C2122 C2117 1.490 . S
C2122 C2124 1.392 . S
C2122 C2125 1.403 . S
H2123 C2129 0.930 . S
C2124 H2110 0.911 . S
C2124 C2122 1.392 . S
C2124 C2127 1.406 1_455 S
C2125 C2122 1.403 . S
C2125 C2126 1.524 . S
C2125 C2129 1.400 1_455 S
C2126 H2111 0.960 . S
C2126 H2112 0.960 . S
C2126 H2113 0.960 . S
C2126 C2125 1.524 . S
C2127 C2124 1.406 1_655 S
C2127 C2128 1.392 . S
C2127 C2131 1.495 . S
C2128 C2127 1.392 . S
C2128 C2129 1.385 . S
C2128 C2130 1.478 . S
C2129 H2123 0.930 . S
C2129 C2125 1.400 1_655 S
C2129 C2128 1.385 . S
C2130 C2128 1.478 . S
C2130 C2132 1.381 . S
C2130 C2136 1.383 . S
C2131 C2127 1.495 . S
C2131 H2137 0.959 . S
C2131 H2138 0.961 . S
C2131 H2139 0.960 . S
C2132 C2130 1.381 . S
C2132 C2133 1.394 . S
C2132 H2140 0.930 . S
C2133 C2132 1.394 . S
C2133 C2134 1.383 . S
C2133 H2141 0.929 . S
C2134 C2133 1.383 . S
C2134 C2135 1.377 . S
C2135 H2119 0.930 . S
C2135 C2134 1.377 . S
C2135 C2136 1.379 . S
C2136 H2120 0.931 . S
C2136 C2130 1.383 . S
C2136 C2135 1.379 . S
H2137 C2131 0.959 . S
H2138 C2131 0.961 . S
H2139 C2131 0.960 . S
H2140 C2132 0.930 . S
H2141 C2133 0.929 . S
H2142 C2150 0.929 . S
H2143 C2152 0.930 . S
H2144 C2154 0.930 . S
H2145 C2157 0.929 . S
H2146 C2160 0.930 . S
H2147 C2162 0.960 . S
H2148 C2162 0.960 . S
H2149 C2162 0.960 . S
C2150 H2142 0.929 . S
C2150 C2151 1.377 . S
C2150 C2152 1.384 . S
C2151 C2150 1.377 . S
C2151 C2157 1.390 . S
C2152 H2143 0.930 . S
C2152 C2150 1.384 . S
C2152 C2153 1.372 . S
C2153 C2152 1.372 . S
C2153 C2154 1.400 . S
C2153 C2158 1.490 . S
C2154 H2144 0.930 . S
C2154 C2153 1.400 . S
C2154 C2157 1.386 . S
H2155 C2171 0.930 . S
H2156 C2172 0.931 . S
C2157 H2145 0.929 . S
C2157 C2151 1.390 . S
C2157 C2154 1.386 . S
C2158 C2153 1.490 . S
C2158 C2160 1.395 . S
C2158 C2161 1.403 . S
H2159 C2165 0.930 . S
C2160 H2146 0.930 . S
C2160 C2158 1.395 . S
C2160 C2163 1.403 . S
C2161 C2158 1.403 . S
C2161 C2162 1.524 . S
C2161 C2165 1.400 . S
C2162 H2147 0.960 . S
C2162 H2148 0.960 . S
C2162 H2149 0.960 . S
C2162 C2161 1.524 . S
C2163 C2160 1.403 . S
C2163 C2164 1.392 . S
C2163 C2167 1.495 . S
C2164 C2163 1.392 . S
C2164 C2165 1.385 . S
C2164 C2166 1.478 . S
C2165 H2159 0.930 . S
C2165 C2161 1.400 . S
C2165 C2164 1.385 . S
C2166 C2164 1.478 . S
C2166 C2168 1.381 . S
C2166 C2172 1.383 . S
C2167 C2163 1.495 . S
C2167 H2173 0.959 . S
C2167 H2174 0.961 . S
C2167 H2175 0.960 . S
C2168 C2166 1.381 . S
C2168 C2169 1.394 . S
C2168 H2176 0.930 . S
C2169 C2168 1.394 . S
C2169 C2170 1.383 . S
C2169 H2177 0.929 . S
C2170 C2169 1.383 . S
C2170 C2171 1.377 . S
C2171 H2155 0.930 . S
C2171 C2170 1.377 . S
C2171 C2172 1.379 . S
C2172 H2156 0.931 . S
C2172 C2166 1.383 . S
C2172 C2171 1.379 . S
H2173 C2167 0.959 . S
H2174 C2167 0.961 . S
H2175 C2167 0.960 . S
H2176 C2168 0.930 . S
H2177 C2169 0.929 . S
H2178 C2186 0.929 . S
H2179 C2188 0.930 . S
H2180 C2190 0.930 . S
H2181 C2193 0.934 . S
H2182 C2196 0.930 . S
H2183 C2198 0.960 . S
H2184 C2198 0.960 . S
H2185 C2198 0.960 . S
C2186 H2178 0.929 . S
C2186 C2187 1.377 . S
C2186 C2188 1.384 1_455 S
C2187 C2186 1.377 . S
C2187 C2193 1.392 . S
C2188 H2179 0.930 . S
C2188 C2186 1.384 1_655 S
C2188 C2189 1.372 . S
C2189 C2188 1.372 . S
C2189 C2190 1.400 . S
C2189 C2194 1.490 . S
C2190 H2180 0.930 . S
C2190 C2189 1.400 . S
C2190 C2193 1.379 1_655 S
H2191 C2207 0.930 . S
H2192 C2208 0.931 . S
C2193 H2181 0.934 . S
C2193 C2187 1.392 . S
C2193 C2190 1.379 1_455 S
C2194 C2189 1.490 . S
C2194 C2196 1.395 . S
C2194 C2197 1.403 . S
H2195 C2201 0.930 . S
C2196 H2182 0.930 . S
C2196 C2194 1.395 . S
C2196 C2199 1.403 . S
C2197 C2194 1.403 . S
C2197 C2198 1.524 . S
C2197 C2201 1.400 . S
C2198 H2183 0.960 . S
C2198 H2184 0.960 . S
C2198 H2185 0.960 . S
C2198 C2197 1.524 . S
C2199 C2196 1.403 . S
C2199 C2200 1.392 . S
C2199 C2203 1.495 . S
C2200 C2199 1.392 . S
C2200 C2201 1.385 . S
C2200 C2202 1.478 . S
C2201 H2195 0.930 . S
C2201 C2197 1.400 . S
C2201 C2200 1.385 . S
C2202 C2200 1.478 . S
C2202 C2204 1.381 . S
C2202 C2208 1.383 . S
C2203 C2199 1.495 . S
C2203 H2209 0.959 . S
C2203 H2210 0.961 . S
C2203 H2211 0.960 . S
C2204 C2202 1.381 . S
C2204 C2205 1.394 . S
C2204 H2212 0.930 . S
C2205 C2204 1.394 . S
C2205 C2206 1.383 . S
C2205 H2213 0.929 . S
C2206 C2205 1.383 . S
C2206 C2207 1.377 . S
C2207 H2191 0.930 . S
C2207 C2206 1.377 . S
C2207 C2208 1.379 . S
C2208 H2192 0.931 . S
C2208 C2202 1.383 . S
C2208 C2207 1.379 . S
H2209 C2203 0.959 . S
H2210 C2203 0.961 . S
H2211 C2203 0.960 . S
H2212 C2204 0.930 . S
H2213 C2205 0.929 . S
H2214 C2222 0.929 . S
H2215 C2224 0.930 . S
H2216 C2226 0.930 . S
H2217 C2229 0.929 . S
H2218 C2232 0.930 . S
H2219 C2234 0.960 . S
H2220 C2234 0.960 . S
H2221 C2234 0.960 . S
C2222 H2214 0.929 . S
C2222 C2223 1.377 . S
C2222 C2224 1.384 . S
C2223 C2222 1.377 . S
C2223 C2229 1.390 . S
C2224 H2215 0.930 . S
C2224 C2222 1.384 . S
C2224 C2225 1.372 . S
C2225 C2224 1.372 . S
C2225 C2226 1.400 . S
C2225 C2230 1.490 . S
C2226 H2216 0.930 . S
C2226 C2225 1.400 . S
C2226 C2229 1.386 . S
H2227 C2243 0.930 . S
H2228 C2244 0.931 . S
C2229 H2217 0.929 . S
C2229 C2223 1.390 . S
C2229 C2226 1.386 . S
C2230 C2225 1.490 . S
C2230 C2232 1.395 . S
C2230 C2233 1.403 . S
H2231 C2237 0.930 . S
C2232 H2218 0.930 . S
C2232 C2230 1.395 . S
C2232 C2235 1.403 . S
C2233 C2230 1.403 . S
C2233 C2234 1.524 . S
C2233 C2237 1.400 . S
C2234 H2219 0.960 . S
C2234 H2220 0.960 . S
C2234 H2221 0.960 . S
C2234 C2233 1.524 . S
C2235 C2232 1.403 . S
C2235 C2236 1.392 . S
C2235 C2239 1.495 . S
C2236 C2235 1.392 . S
C2236 C2237 1.385 . S
C2236 C2238 1.478 . S
C2237 H2231 0.930 . S
C2237 C2233 1.400 . S
C2237 C2236 1.385 . S
C2238 C2236 1.478 . S
C2238 C2240 1.381 . S
C2238 C2244 1.383 . S
C2239 C2235 1.495 . S
C2239 H2245 0.959 . S
C2239 H2246 0.961 . S
C2239 H2247 0.960 . S
C2240 C2238 1.381 . S
C2240 C2241 1.394 . S
C2240 H2248 0.930 . S
C2241 C2240 1.394 . S
C2241 C2242 1.383 . S
C2241 H2249 0.929 . S
C2242 C2241 1.383 . S
C2242 C2243 1.377 . S
C2243 H2227 0.930 . S
C2243 C2242 1.377 . S
C2243 C2244 1.379 . S
C2244 H2228 0.931 . S
C2244 C2238 1.383 . S
C2244 C2243 1.379 . S
H2245 C2239 0.959 . S
H2246 C2239 0.961 . S
H2247 C2239 0.960 . S
H2248 C2240 0.930 . S
H2249 C2241 0.929 . S
H2250 C2258 0.929 1_565 S
H2251 C2260 0.930 . S
H2252 C2262 0.930 . S
H2253 C2265 0.929 . S
H2254 C2268 0.930 . S
H2255 C2270 0.960 . S
H2256 C2270 0.960 . S
H2257 C2270 0.960 . S
C2258 H2250 0.929 1_545 S
C2258 C2259 1.377 1_545 S
C2258 C2260 1.384 . S
C2259 C2258 1.377 1_565 S
C2259 C2265 1.390 . S
C2260 H2251 0.930 . S
C2260 C2258 1.384 . S
C2260 C2261 1.372 . S
C2261 C2260 1.372 . S
C2261 C2262 1.400 . S
C2261 C2266 1.490 . S
C2262 H2252 0.930 . S
C2262 C2261 1.400 . S
C2262 C2265 1.386 1_545 S
H2263 C2279 0.930 . S
H2264 C2280 0.931 . S
C2265 H2253 0.929 . S
C2265 C2259 1.390 . S
C2265 C2262 1.386 1_565 S
C2266 C2261 1.490 . S
C2266 C2268 1.395 . S
C2266 C2269 1.403 . S
H2267 C2273 0.930 . S
C2268 H2254 0.930 . S
C2268 C2266 1.395 . S
C2268 C2271 1.403 . S
C2269 C2266 1.403 . S
C2269 C2270 1.524 . S
C2269 C2273 1.400 . S
C2270 H2255 0.960 . S
C2270 H2256 0.960 . S
C2270 H2257 0.960 . S
C2270 C2269 1.524 . S
C2271 C2268 1.403 . S
C2271 C2272 1.392 . S
C2271 C2275 1.495 . S
C2272 C2271 1.392 . S
C2272 C2273 1.385 . S
C2272 C2274 1.478 . S
C2273 H2267 0.930 . S
C2273 C2269 1.400 . S
C2273 C2272 1.385 . S
C2274 C2272 1.478 . S
C2274 C2276 1.381 . S
C2274 C2280 1.383 . S
C2275 C2271 1.495 . S
C2275 H2281 0.959 . S
C2275 H2282 0.961 . S
C2275 H2283 0.960 . S
C2276 C2274 1.381 . S
C2276 C2277 1.394 . S
C2276 H2284 0.930 . S
C2277 C2276 1.394 . S
C2277 C2278 1.383 . S
C2277 H2285 0.929 . S
C2278 C2277 1.383 . S
C2278 C2279 1.377 . S
C2279 H2263 0.930 . S
C2279 C2278 1.377 . S
C2279 C2280 1.379 . S
C2280 H2264 0.931 . S
C2280 C2274 1.383 . S
C2280 C2279 1.379 . S
H2281 C2275 0.959 . S
H2282 C2275 0.961 . S
H2283 C2275 0.960 . S
H2284 C2276 0.930 . S
H2285 C2277 0.929 . S
H2286 C2294 0.929 . S
H2287 C2296 0.930 . S
H2288 C2298 0.930 . S
H2289 C2301 0.929 . S
H2290 C2304 0.930 . S
H2291 C2306 0.960 . S
H2292 C2306 0.960 . S
H2293 C2306 0.960 . S
C2294 H2286 0.929 . S
C2294 C2295 1.377 . S
C2294 C2296 1.384 . S
C2295 C2294 1.377 . S
C2295 C2301 1.390 . S
C2296 H2287 0.930 . S
C2296 C2294 1.384 . S
C2296 C2297 1.372 . S
C2297 C2296 1.372 . S
C2297 C2298 1.400 . S
C2297 C2302 1.490 . S
C2298 H2288 0.930 . S
C2298 C2297 1.400 . S
C2298 C2301 1.386 . S
H2299 C2315 0.930 . S
H2300 C2316 0.931 . S
C2301 H2289 0.929 . S
C2301 C2295 1.390 . S
C2301 C2298 1.386 . S
C2302 C2297 1.490 . S
C2302 C2304 1.395 . S
C2302 C2305 1.403 . S
H2303 C2309 0.930 . S
C2304 H2290 0.930 . S
C2304 C2302 1.395 . S
C2304 C2307 1.403 . S
C2305 C2302 1.403 . S
C2305 C2306 1.524 . S
C2305 C2309 1.400 . S
C2306 H2291 0.960 . S
C2306 H2292 0.960 . S
C2306 H2293 0.960 . S
C2306 C2305 1.524 . S
C2307 C2304 1.403 . S
C2307 C2308 1.392 . S
C2307 C2311 1.495 . S
C2308 C2307 1.392 . S
C2308 C2309 1.385 . S
C2308 C2310 1.478 . S
C2309 H2303 0.930 . S
C2309 C2305 1.400 . S
C2309 C2308 1.385 . S
C2310 C2308 1.478 . S
C2310 C2312 1.381 . S
C2310 C2316 1.383 . S
C2311 C2307 1.495 . S
C2311 H2317 0.959 . S
C2311 H2318 0.961 . S
C2311 H2319 0.960 . S
C2312 C2310 1.381 . S
C2312 C2313 1.394 . S
C2312 H2320 0.930 . S
C2313 C2312 1.394 . S
C2313 C2314 1.383 . S
C2313 H2321 0.929 . S
C2314 C2313 1.383 . S
C2314 C2315 1.377 . S
C2315 H2299 0.930 . S
C2315 C2314 1.377 . S
C2315 C2316 1.379 . S
C2316 H2300 0.931 . S
C2316 C2310 1.383 . S
C2316 C2315 1.379 . S
H2317 C2311 0.959 . S
H2318 C2311 0.961 . S
H2319 C2311 0.960 . S
H2320 C2312 0.930 . S
H2321 C2313 0.929 . S
H2322 C2330 0.929 . S
H2323 C2332 0.930 . S
H2324 C2334 0.930 . S
H2325 C2337 0.929 . S
H2326 C2340 0.930 . S
H2327 C2342 0.960 . S
H2328 C2342 0.960 . S
H2329 C2342 0.960 . S
C2330 H2322 0.929 . S
C2330 C2331 1.377 . S
C2330 C2332 1.384 . S
C2331 C2330 1.377 . S
C2331 C2337 1.390 . S
C2332 H2323 0.930 . S
C2332 C2330 1.384 . S
C2332 C2333 1.372 . S
C2333 C2332 1.372 . S
C2333 C2334 1.400 . S
C2333 C2338 1.490 . S
C2334 H2324 0.930 . S
C2334 C2333 1.400 . S
C2334 C2337 1.386 . S
H2335 C2351 0.930 . S
H2336 C2352 0.931 . S
C2337 H2325 0.929 . S
C2337 C2331 1.390 . S
C2337 C2334 1.386 . S
C2338 C2333 1.490 . S
C2338 C2340 1.395 . S
C2338 C2341 1.403 . S
H2339 C2345 0.930 . S
C2340 H2326 0.930 . S
C2340 C2338 1.395 . S
C2340 C2343 1.403 . S
C2341 C2338 1.403 . S
C2341 C2342 1.524 . S
C2341 C2345 1.400 . S
C2342 H2327 0.960 . S
C2342 H2328 0.960 . S
C2342 H2329 0.960 . S
C2342 C2341 1.524 . S
C2343 C2340 1.403 . S
C2343 C2344 1.392 . S
C2343 C2347 1.495 . S
C2344 C2343 1.392 . S
C2344 C2345 1.385 . S
C2344 C2346 1.478 . S
C2345 H2339 0.930 . S
C2345 C2341 1.400 . S
C2345 C2344 1.385 . S
C2346 C2344 1.478 . S
C2346 C2348 1.381 . S
C2346 C2352 1.383 . S
C2347 C2343 1.495 . S
C2347 H2353 0.959 . S
C2347 H2354 0.961 . S
C2347 H2355 0.960 . S
C2348 C2346 1.381 . S
C2348 C2349 1.394 . S
C2348 H2356 0.930 . S
C2349 C2348 1.394 . S
C2349 C2350 1.383 . S
C2349 H2357 0.929 . S
C2350 C2349 1.383 . S
C2350 C2351 1.377 . S
C2351 H2335 0.930 . S
C2351 C2350 1.377 . S
C2351 C2352 1.379 . S
C2352 H2336 0.931 . S
C2352 C2346 1.383 . S
C2352 C2351 1.379 . S
H2353 C2347 0.959 . S
H2354 C2347 0.961 . S
H2355 C2347 0.960 . S
H2356 C2348 0.930 . S
H2357 C2349 0.929 . S
H2358 C2366 0.929 . S
H2359 C2368 0.930 . S
H2360 C2370 0.930 . S
H2361 C2373 0.929 . S
H2362 C2376 0.930 . S
H2363 C2378 0.960 . S
H2364 C2378 0.960 . S
H2365 C2378 0.960 . S
C2366 H2358 0.929 . S
C2366 C2367 1.377 . S
C2366 C2368 1.384 . S
C2367 C2366 1.377 . S
C2367 C2373 1.390 . S
C2368 H2359 0.930 . S
C2368 C2366 1.384 . S
C2368 C2369 1.372 . S
C2369 C2368 1.372 . S
C2369 C2370 1.400 . S
C2369 C2374 1.490 . S
C2370 H2360 0.930 . S
C2370 C2369 1.400 . S
C2370 C2373 1.386 . S
H2371 C2387 0.930 . S
H2372 C2388 0.931 . S
C2373 H2361 0.929 . S
C2373 C2367 1.390 . S
C2373 C2370 1.386 . S
C2374 C2369 1.490 . S
C2374 C2376 1.395 . S
C2374 C2377 1.403 . S
H2375 C2381 0.930 . S
C2376 H2362 0.930 . S
C2376 C2374 1.395 . S
C2376 C2379 1.403 . S
C2377 C2374 1.403 . S
C2377 C2378 1.524 . S
C2377 C2381 1.400 . S
C2378 H2363 0.960 . S
C2378 H2364 0.960 . S
C2378 H2365 0.960 . S
C2378 C2377 1.524 . S
C2379 C2376 1.403 . S
C2379 C2380 1.392 . S
C2379 C2383 1.495 . S
C2380 C2379 1.392 . S
C2380 C2381 1.385 . S
C2380 C2382 1.478 . S
C2381 H2375 0.930 . S
C2381 C2377 1.400 . S
C2381 C2380 1.385 . S
C2382 C2380 1.478 . S
C2382 C2384 1.381 . S
C2382 C2388 1.383 . S
C2383 C2379 1.495 . S
C2383 H2389 0.959 . S
C2383 H2390 0.961 . S
C2383 H2391 0.960 . S
C2384 C2382 1.381 . S
C2384 C2385 1.394 . S
C2384 H2392 0.930 . S
C2385 C2384 1.394 . S
C2385 C2386 1.383 . S
C2385 H2393 0.929 . S
C2386 C2385 1.383 . S
C2386 C2387 1.377 . S
C2387 H2371 0.930 . S
C2387 C2386 1.377 . S
C2387 C2388 1.379 . S
C2388 H2372 0.931 . S
C2388 C2382 1.383 . S
C2388 C2387 1.379 . S
H2389 C2383 0.959 . S
H2390 C2383 0.961 . S
H2391 C2383 0.960 . S
H2392 C2384 0.930 . S
H2393 C2385 0.929 . S
H2394 C2402 0.929 . S
H2395 C2404 0.930 . S
H2396 C2406 0.930 . S
H2397 C2409 0.929 . S
H2398 C2412 0.930 . S
H2399 C2414 0.960 . S
H2400 C2414 0.960 . S
H2401 C2414 0.960 . S
C2402 H2394 0.929 . S
C2402 C2403 1.377 . S
C2402 C2404 1.384 . S
C2403 C2402 1.377 . S
C2403 C2409 1.390 . S
C2404 H2395 0.930 . S
C2404 C2402 1.384 . S
C2404 C2405 1.372 . S
C2405 C2404 1.372 . S
C2405 C2406 1.400 . S
C2405 C2410 1.490 . S
C2406 H2396 0.930 . S
C2406 C2405 1.400 . S
C2406 C2409 1.386 . S
H2407 C2423 0.930 . S
H2408 C2424 0.931 . S
C2409 H2397 0.929 . S
C2409 C2403 1.390 . S
C2409 C2406 1.386 . S
C2410 C2405 1.490 . S
C2410 C2412 1.395 . S
C2410 C2413 1.403 . S
H2411 C2417 0.930 . S
C2412 H2398 0.930 . S
C2412 C2410 1.395 . S
C2412 C2415 1.403 . S
C2413 C2410 1.403 . S
C2413 C2414 1.524 . S
C2413 C2417 1.400 . S
C2414 H2399 0.960 . S
C2414 H2400 0.960 . S
C2414 H2401 0.960 . S
C2414 C2413 1.524 . S
C2415 C2412 1.403 . S
C2415 C2416 1.392 . S
C2415 C2419 1.495 . S
C2416 C2415 1.392 . S
C2416 C2417 1.385 . S
C2416 C2418 1.478 . S
C2417 H2411 0.930 . S
C2417 C2413 1.400 . S
C2417 C2416 1.385 . S
C2418 C2416 1.478 . S
C2418 C2420 1.381 . S
C2418 C2424 1.383 . S
C2419 C2415 1.495 . S
C2419 H2425 0.959 . S
C2419 H2426 0.961 . S
C2419 H2427 0.960 . S
C2420 C2418 1.381 . S
C2420 C2421 1.394 . S
C2420 H2428 0.930 . S
C2421 C2420 1.394 . S
C2421 C2422 1.383 . S
C2421 H2429 0.929 . S
C2422 C2421 1.383 . S
C2422 C2423 1.377 . S
C2423 H2407 0.930 . S
C2423 C2422 1.377 . S
C2423 C2424 1.379 . S
C2424 H2408 0.931 . S
C2424 C2418 1.383 . S
C2424 C2423 1.379 . S
H2425 C2419 0.959 . S
H2426 C2419 0.961 . S
H2427 C2419 0.960 . S
H2428 C2420 0.930 . S
H2429 C2421 0.929 . S
H2430 C2438 0.929 . S
H2431 C2440 0.930 . S
H2432 C2442 0.930 . S
H2433 C2445 0.929 . S
H2434 C2448 0.930 . S
H2435 C2450 0.960 . S
H2436 C2450 0.960 . S
H2437 C2450 0.960 . S
C2438 H2430 0.929 . S
C2438 C2439 1.377 . S
C2438 C2440 1.384 . S
C2439 C2438 1.377 . S
C2439 C2445 1.390 . S
C2440 H2431 0.930 . S
C2440 C2438 1.384 . S
C2440 C2441 1.372 . S
C2441 C2440 1.372 . S
C2441 C2442 1.400 . S
C2441 C2446 1.490 . S
C2442 H2432 0.930 . S
C2442 C2441 1.400 . S
C2442 C2445 1.386 . S
H2443 C2459 0.930 . S
H2444 C2460 0.931 . S
C2445 H2433 0.929 . S
C2445 C2439 1.390 . S
C2445 C2442 1.386 . S
C2446 C2441 1.490 . S
C2446 C2448 1.395 . S
C2446 C2449 1.403 . S
H2447 C2453 0.930 . S
C2448 H2434 0.930 . S
C2448 C2446 1.395 . S
C2448 C2451 1.403 . S
C2449 C2446 1.403 . S
C2449 C2450 1.524 . S
C2449 C2453 1.400 . S
C2450 H2435 0.960 . S
C2450 H2436 0.960 . S
C2450 H2437 0.960 . S
C2450 C2449 1.524 . S
C2451 C2448 1.403 . S
C2451 C2452 1.392 . S
C2451 C2455 1.495 . S
C2452 C2451 1.392 . S
C2452 C2453 1.385 . S
C2452 C2454 1.478 . S
C2453 H2447 0.930 . S
C2453 C2449 1.400 . S
C2453 C2452 1.385 . S
C2454 C2452 1.478 . S
C2454 C2456 1.381 . S
C2454 C2460 1.383 . S
C2455 C2451 1.495 . S
C2455 H2461 0.959 . S
C2455 H2462 0.961 . S
C2455 H2463 0.960 . S
C2456 C2454 1.381 . S
C2456 C2457 1.394 . S
C2456 H2464 0.930 . S
C2457 C2456 1.394 . S
C2457 C2458 1.383 . S
C2457 H2465 0.929 . S
C2458 C2457 1.383 . S
C2458 C2459 1.377 . S
C2459 H2443 0.930 . S
C2459 C2458 1.377 . S
C2459 C2460 1.379 . S
C2460 H2444 0.931 . S
C2460 C2454 1.383 . S
C2460 C2459 1.379 . S
H2461 C2455 0.959 . S
H2462 C2455 0.961 . S
H2463 C2455 0.960 . S
H2464 C2456 0.930 . S
H2465 C2457 0.929 . S
H2466 C2474 0.929 . S
H2467 C2476 0.930 . S
H2468 C2478 0.930 . S
H2469 C2481 0.929 . S
H2470 C2484 0.930 . S
H2471 C2486 0.960 . S
H2472 C2486 0.960 . S
H2473 C2486 0.960 . S
C2474 H2466 0.929 . S
C2474 C2475 1.377 . S
C2474 C2476 1.384 . S
C2475 C2474 1.377 . S
C2475 C2481 1.390 . S
C2476 H2467 0.930 . S
C2476 C2474 1.384 . S
C2476 C2477 1.372 . S
C2477 C2476 1.372 . S
C2477 C2478 1.400 . S
C2477 C2482 1.490 . S
C2478 H2468 0.930 . S
C2478 C2477 1.400 . S
C2478 C2481 1.386 . S
H2479 C2495 0.930 . S
H2480 C2496 0.931 . S
C2481 H2469 0.929 . S
C2481 C2475 1.390 . S
C2481 C2478 1.386 . S
C2482 C2477 1.490 . S
C2482 C2484 1.395 . S
C2482 C2485 1.403 . S
H2483 C2489 0.930 . S
C2484 H2470 0.930 . S
C2484 C2482 1.395 . S
C2484 C2487 1.403 . S
C2485 C2482 1.403 . S
C2485 C2486 1.524 . S
C2485 C2489 1.400 . S
C2486 H2471 0.960 . S
C2486 H2472 0.960 . S
C2486 H2473 0.960 . S
C2486 C2485 1.524 . S
C2487 C2484 1.403 . S
C2487 C2488 1.392 . S
C2487 C2491 1.495 . S
C2488 C2487 1.392 . S
C2488 C2489 1.385 . S
C2488 C2490 1.478 . S
C2489 H2483 0.930 . S
C2489 C2485 1.400 . S
C2489 C2488 1.385 . S
C2490 C2488 1.478 . S
C2490 C2492 1.381 . S
C2490 C2496 1.383 . S
C2491 C2487 1.495 . S
C2491 H2497 0.959 . S
C2491 H2498 0.961 . S
C2491 H2499 0.960 . S
C2492 C2490 1.381 . S
C2492 C2493 1.394 . S
C2492 H2500 0.930 . S
C2493 C2492 1.394 . S
C2493 C2494 1.383 . S
C2493 H2501 0.929 . S
C2494 C2493 1.383 . S
C2494 C2495 1.377 . S
C2495 H2479 0.930 . S
C2495 C2494 1.377 . S
C2495 C2496 1.379 . S
C2496 H2480 0.931 . S
C2496 C2490 1.383 . S
C2496 C2495 1.379 . S
H2497 C2491 0.959 . S
H2498 C2491 0.961 . S
H2499 C2491 0.960 . S
H2500 C2492 0.930 . S
H2501 C2493 0.929 . S
H2502 C2510 0.929 . S
H2503 C2512 0.930 . S
H2504 C2514 0.930 . S
H2505 C2517 0.929 . S
H2506 C2520 0.930 . S
H2507 C2522 0.960 . S
H2508 C2522 0.960 . S
H2509 C2522 0.960 . S
C2510 H2502 0.929 . S
C2510 C2511 1.377 . S
C2510 C2512 1.384 . S
C2511 C2510 1.377 . S
C2511 C2517 1.390 . S
C2512 H2503 0.930 . S
C2512 C2510 1.384 . S
C2512 C2513 1.372 . S
C2513 C2512 1.372 . S
C2513 C2514 1.400 . S
C2513 C2518 1.490 . S
C2514 H2504 0.930 . S
C2514 C2513 1.400 . S
C2514 C2517 1.386 . S
H2515 C2531 0.930 . S
H2516 C2532 0.931 . S
C2517 H2505 0.929 . S
C2517 C2511 1.390 . S
C2517 C2514 1.386 . S
C2518 C2513 1.490 . S
C2518 C2520 1.395 . S
C2518 C2521 1.403 . S
H2519 C2525 0.930 . S
C2520 H2506 0.930 . S
C2520 C2518 1.395 . S
C2520 C2523 1.403 . S
C2521 C2518 1.403 . S
C2521 C2522 1.524 . S
C2521 C2525 1.400 . S
C2522 H2507 0.960 . S
C2522 H2508 0.960 . S
C2522 H2509 0.960 . S
C2522 C2521 1.524 . S
C2523 C2520 1.403 . S
C2523 C2524 1.392 . S
C2523 C2527 1.495 . S
C2524 C2523 1.392 . S
C2524 C2525 1.385 . S
C2524 C2526 1.478 . S
C2525 H2519 0.930 . S
C2525 C2521 1.400 . S
C2525 C2524 1.385 . S
C2526 C2524 1.478 . S
C2526 C2528 1.381 . S
C2526 C2532 1.383 . S
C2527 C2523 1.495 . S
C2527 H2533 0.959 . S
C2527 H2534 0.961 . S
C2527 H2535 0.960 . S
C2528 C2526 1.381 . S
C2528 C2529 1.394 . S
C2528 H2536 0.930 . S
C2529 C2528 1.394 . S
C2529 C2530 1.383 . S
C2529 H2537 0.929 . S
C2530 C2529 1.383 . S
C2530 C2531 1.377 . S
C2531 H2515 0.930 . S
C2531 C2530 1.377 . S
C2531 C2532 1.379 . S
C2532 H2516 0.931 . S
C2532 C2526 1.383 . S
C2532 C2531 1.379 . S
H2533 C2527 0.959 . S
H2534 C2527 0.961 . S
H2535 C2527 0.960 . S
H2536 C2528 0.930 . S
H2537 C2529 0.929 . S
H2538 C2546 0.929 . S
H2539 C2548 0.930 . S
H2540 C2550 0.930 . S
H2541 C2553 0.929 . S
H2542 C2556 0.930 . S
H2543 C2558 0.960 . S
H2544 C2558 0.960 . S
H2545 C2558 0.960 . S
C2546 H2538 0.929 . S
C2546 C2547 1.377 . S
C2546 C2548 1.384 . S
C2547 C2546 1.377 . S
C2547 C2553 1.390 . S
C2548 H2539 0.930 . S
C2548 C2546 1.384 . S
C2548 C2549 1.372 . S
C2549 C2548 1.372 . S
C2549 C2550 1.400 . S
C2549 C2554 1.490 . S
C2550 H2540 0.930 . S
C2550 C2549 1.400 . S
C2550 C2553 1.386 . S
H2551 C2567 0.930 . S
H2552 C2568 0.931 . S
C2553 H2541 0.929 . S
C2553 C2547 1.390 . S
C2553 C2550 1.386 . S
C2554 C2549 1.490 . S
C2554 C2556 1.395 . S
C2554 C2557 1.403 . S
H2555 C2561 0.930 . S
C2556 H2542 0.930 . S
C2556 C2554 1.395 . S
C2556 C2559 1.403 . S
C2557 C2554 1.403 . S
C2557 C2558 1.524 . S
C2557 C2561 1.400 . S
C2558 H2543 0.960 . S
C2558 H2544 0.960 . S
C2558 H2545 0.960 . S
C2558 C2557 1.524 . S
C2559 C2556 1.403 . S
C2559 C2560 1.392 . S
C2559 C2563 1.495 . S
C2560 C2559 1.392 . S
C2560 C2561 1.385 . S
C2560 C2562 1.478 . S
C2561 H2555 0.930 . S
C2561 C2557 1.400 . S
C2561 C2560 1.385 . S
C2562 C2560 1.478 . S
C2562 C2564 1.381 . S
C2562 C2568 1.383 . S
C2563 C2559 1.495 . S
C2563 H2569 0.959 . S
C2563 H2570 0.961 . S
C2563 H2571 0.960 . S
C2564 C2562 1.381 . S
C2564 C2565 1.394 . S
C2564 H2572 0.930 . S
C2565 C2564 1.394 . S
C2565 C2566 1.383 . S
C2565 H2573 0.929 . S
C2566 C2565 1.383 . S
C2566 C2567 1.377 . S
C2567 H2551 0.930 . S
C2567 C2566 1.377 . S
C2567 C2568 1.379 . S
C2568 H2552 0.931 . S
C2568 C2562 1.383 . S
C2568 C2567 1.379 . S
H2569 C2563 0.959 . S
H2570 C2563 0.961 . S
H2571 C2563 0.960 . S
H2572 C2564 0.930 . S
H2573 C2565 0.929 . S
H2574 C2582 0.929 . S
H2575 C2584 0.930 . S
H2576 C2586 0.930 . S
H2577 C2589 0.929 . S
H2578 C2592 0.930 . S
H2579 C2594 0.960 . S
H2580 C2594 0.960 . S
H2581 C2594 0.960 . S
C2582 H2574 0.929 . S
C2582 C2583 1.377 . S
C2582 C2584 1.384 . S
C2583 C2582 1.377 . S
C2583 C2589 1.390 . S
C2584 H2575 0.930 . S
C2584 C2582 1.384 . S
C2584 C2585 1.372 . S
C2585 C2584 1.372 . S
C2585 C2586 1.400 . S
C2585 C2590 1.490 . S
C2586 H2576 0.930 . S
C2586 C2585 1.400 . S
C2586 C2589 1.386 . S
H2587 C2603 0.930 . S
H2588 C2604 0.931 . S
C2589 H2577 0.929 . S
C2589 C2583 1.390 . S
C2589 C2586 1.386 . S
C2590 C2585 1.490 . S
C2590 C2592 1.395 . S
C2590 C2593 1.403 . S
H2591 C2597 0.930 . S
C2592 H2578 0.930 . S
C2592 C2590 1.395 . S
C2592 C2595 1.403 . S
C2593 C2590 1.403 . S
C2593 C2594 1.524 . S
C2593 C2597 1.400 . S
C2594 H2579 0.960 . S
C2594 H2580 0.960 . S
C2594 H2581 0.960 . S
C2594 C2593 1.524 . S
C2595 C2592 1.403 . S
C2595 C2596 1.392 . S
C2595 C2599 1.495 . S
C2596 C2595 1.392 . S
C2596 C2597 1.385 . S
C2596 C2598 1.478 . S
C2597 H2591 0.930 . S
C2597 C2593 1.400 . S
C2597 C2596 1.385 . S
C2598 C2596 1.478 . S
C2598 C2600 1.381 . S
C2598 C2604 1.383 . S
C2599 C2595 1.495 . S
C2599 H2605 0.959 . S
C2599 H2606 0.961 . S
C2599 H2607 0.960 . S
C2600 C2598 1.381 . S
C2600 C2601 1.394 . S
C2600 H2608 0.930 . S
C2601 C2600 1.394 . S
C2601 C2602 1.383 . S
C2601 H2609 0.929 . S
C2602 C2601 1.383 . S
C2602 C2603 1.377 . S
C2603 H2587 0.930 . S
C2603 C2602 1.377 . S
C2603 C2604 1.379 . S
C2604 H2588 0.931 . S
C2604 C2598 1.383 . S
C2604 C2603 1.379 . S
H2605 C2599 0.959 . S
H2606 C2599 0.961 . S
H2607 C2599 0.960 . S
H2608 C2600 0.930 . S
H2609 C2601 0.929 . S
H2610 C2618 0.929 . S
H2611 C2620 0.930 . S
H2612 C2622 0.930 . S
H2613 C2625 0.929 . S
H2614 C2628 0.930 . S
H2615 C2630 0.960 . S
H2616 C2630 0.960 . S
H2617 C2630 0.960 . S
C2618 H2610 0.929 . S
C2618 C2619 1.377 . S
C2618 C2620 1.384 . S
C2619 C2618 1.377 . S
C2619 C2625 1.390 . S
C2620 H2611 0.930 . S
C2620 C2618 1.384 . S
C2620 C2621 1.372 . S
C2621 C2620 1.372 . S
C2621 C2622 1.400 . S
C2621 C2626 1.490 . S
C2622 H2612 0.930 . S
C2622 C2621 1.400 . S
C2622 C2625 1.386 . S
H2623 C2639 0.930 . S
H2624 C2640 0.931 . S
C2625 H2613 0.929 . S
C2625 C2619 1.390 . S
C2625 C2622 1.386 . S
C2626 C2621 1.490 . S
C2626 C2628 1.395 . S
C2626 C2629 1.403 . S
H2627 C2633 0.930 . S
C2628 H2614 0.930 . S
C2628 C2626 1.395 . S
C2628 C2631 1.403 . S
C2629 C2626 1.403 . S
C2629 C2630 1.524 . S
C2629 C2633 1.400 . S
C2630 H2615 0.960 . S
C2630 H2616 0.960 . S
C2630 H2617 0.960 . S
C2630 C2629 1.524 . S
C2631 C2628 1.403 . S
C2631 C2632 1.392 . S
C2631 C2635 1.495 . S
C2632 C2631 1.392 . S
C2632 C2633 1.385 . S
C2632 C2634 1.478 . S
C2633 H2627 0.930 . S
C2633 C2629 1.400 . S
C2633 C2632 1.385 . S
C2634 C2632 1.478 . S
C2634 C2636 1.381 . S
C2634 C2640 1.383 . S
C2635 C2631 1.495 . S
C2635 H2641 0.959 . S
C2635 H2642 0.961 . S
C2635 H2643 0.960 . S
C2636 C2634 1.381 . S
C2636 C2637 1.394 . S
C2636 H2644 0.930 . S
C2637 C2636 1.394 . S
C2637 C2638 1.383 . S
C2637 H2645 0.929 . S
C2638 C2637 1.383 . S
C2638 C2639 1.377 . S
C2639 H2623 0.930 . S
C2639 C2638 1.377 . S
C2639 C2640 1.379 . S
C2640 H2624 0.931 . S
C2640 C2634 1.383 . S
C2640 C2639 1.379 . S
H2641 C2635 0.959 . S
H2642 C2635 0.961 . S
H2643 C2635 0.960 . S
H2644 C2636 0.930 . S
H2645 C2637 0.929 . S
H2646 C2654 0.929 . S
H2647 C2656 0.930 . S
H2648 C2658 0.930 . S
H2649 C2661 0.929 . S
H2650 C2664 0.930 . S
H2651 C2666 0.960 . S
H2652 C2666 0.960 . S
H2653 C2666 0.960 . S
C2654 H2646 0.929 . S
C2654 C2655 1.377 . S
C2654 C2656 1.384 . S
C2655 C2654 1.377 . S
C2655 C2661 1.390 . S
C2656 H2647 0.930 . S
C2656 C2654 1.384 . S
C2656 C2657 1.372 . S
C2657 C2656 1.372 . S
C2657 C2658 1.400 . S
C2657 C2662 1.490 . S
C2658 H2648 0.930 . S
C2658 C2657 1.400 . S
C2658 C2661 1.386 . S
H2659 C2675 0.930 . S
H2660 C2676 0.931 . S
C2661 H2649 0.929 . S
C2661 C2655 1.390 . S
C2661 C2658 1.386 . S
C2662 C2657 1.490 . S
C2662 C2664 1.395 . S
C2662 C2665 1.403 . S
H2663 C2669 0.930 . S
C2664 H2650 0.930 . S
C2664 C2662 1.395 . S
C2664 C2667 1.403 . S
C2665 C2662 1.403 . S
C2665 C2666 1.524 . S
C2665 C2669 1.400 . S
C2666 H2651 0.960 . S
C2666 H2652 0.960 . S
C2666 H2653 0.960 . S
C2666 C2665 1.524 . S
C2667 C2664 1.403 . S
C2667 C2668 1.392 . S
C2667 C2671 1.495 . S
C2668 C2667 1.392 . S
C2668 C2669 1.385 . S
C2668 C2670 1.478 . S
C2669 H2663 0.930 . S
C2669 C2665 1.400 . S
C2669 C2668 1.385 . S
C2670 C2668 1.478 . S
C2670 C2672 1.381 . S
C2670 C2676 1.383 . S
C2671 C2667 1.495 . S
C2671 H2677 0.959 . S
C2671 H2678 0.961 . S
C2671 H2679 0.960 . S
C2672 C2670 1.381 . S
C2672 C2673 1.394 . S
C2672 H2680 0.930 . S
C2673 C2672 1.394 . S
C2673 C2674 1.383 . S
C2673 H2681 0.929 . S
C2674 C2673 1.383 . S
C2674 C2675 1.377 . S
C2675 H2659 0.930 . S
C2675 C2674 1.377 . S
C2675 C2676 1.379 . S
C2676 H2660 0.931 . S
C2676 C2670 1.383 . S
C2676 C2675 1.379 . S
H2677 C2671 0.959 . S
H2678 C2671 0.961 . S
H2679 C2671 0.960 . S
H2680 C2672 0.930 . S
H2681 C2673 0.929 . S
H2682 C2690 0.929 . S
H2683 C2692 0.930 . S
H2684 C2694 0.930 . S
H2685 C2697 0.929 . S
H2686 C2700 0.930 . S
H2687 C2702 0.960 . S
H2688 C2702 0.960 . S
H2689 C2702 0.960 . S
C2690 H2682 0.929 . S
C2690 C2691 1.377 . S
C2690 C2692 1.384 . S
C2691 C2690 1.377 . S
C2691 C2697 1.390 . S
C2692 H2683 0.930 . S
C2692 C2690 1.384 . S
C2692 C2693 1.372 . S
C2693 C2692 1.372 . S
C2693 C2694 1.400 . S
C2693 C2698 1.490 . S
C2694 H2684 0.930 . S
C2694 C2693 1.400 . S
C2694 C2697 1.386 . S
H2695 C2711 0.930 . S
H2696 C2712 0.931 . S
C2697 H2685 0.929 . S
C2697 C2691 1.390 . S
C2697 C2694 1.386 . S
C2698 C2693 1.490 . S
C2698 C2700 1.395 . S
C2698 C2701 1.403 . S
H2699 C2705 0.930 . S
C2700 H2686 0.930 . S
C2700 C2698 1.395 . S
C2700 C2703 1.403 . S
C2701 C2698 1.403 . S
C2701 C2702 1.524 . S
C2701 C2705 1.400 . S
C2702 H2687 0.960 . S
C2702 H2688 0.960 . S
C2702 H2689 0.960 . S
C2702 C2701 1.524 . S
C2703 C2700 1.403 . S
C2703 C2704 1.392 . S
C2703 C2707 1.495 . S
C2704 C2703 1.392 . S
C2704 C2705 1.385 . S
C2704 C2706 1.478 . S
C2705 H2699 0.930 . S
C2705 C2701 1.400 . S
C2705 C2704 1.385 . S
C2706 C2704 1.478 . S
C2706 C2708 1.381 . S
C2706 C2712 1.383 . S
C2707 C2703 1.495 . S
C2707 H2713 0.959 . S
C2707 H2714 0.961 . S
C2707 H2715 0.960 . S
C2708 C2706 1.381 . S
C2708 C2709 1.394 . S
C2708 H2716 0.930 . S
C2709 C2708 1.394 . S
C2709 C2710 1.383 . S
C2709 H2717 0.929 . S
C2710 C2709 1.383 . S
C2710 C2711 1.377 . S
C2711 H2695 0.930 . S
C2711 C2710 1.377 . S
C2711 C2712 1.379 . S
C2712 H2696 0.931 . S
C2712 C2706 1.383 . S
C2712 C2711 1.379 . S
H2713 C2707 0.959 . S
H2714 C2707 0.961 . S
H2715 C2707 0.960 . S
H2716 C2708 0.930 . S
H2717 C2709 0.929 . S
H2718 C2726 0.929 . S
H2719 C2728 0.930 . S
H2720 C2730 0.930 . S
H2721 C2733 0.929 . S
H2722 C2736 0.930 . S
H2723 C2738 0.960 . S
H2724 C2738 0.960 . S
H2725 C2738 0.960 . S
C2726 H2718 0.929 . S
C2726 C2727 1.377 . S
C2726 C2728 1.384 . S
C2727 C2726 1.377 . S
C2727 C2733 1.390 . S
C2728 H2719 0.930 . S
C2728 C2726 1.384 . S
C2728 C2729 1.372 . S
C2729 C2728 1.372 . S
C2729 C2730 1.400 . S
C2729 C2734 1.490 . S
C2730 H2720 0.930 . S
C2730 C2729 1.400 . S
C2730 C2733 1.386 . S
H2731 C2747 0.930 . S
H2732 C2748 0.931 . S
C2733 H2721 0.929 . S
C2733 C2727 1.390 . S
C2733 C2730 1.386 . S
C2734 C2729 1.490 . S
C2734 C2736 1.395 . S
C2734 C2737 1.403 . S
H2735 C2741 0.930 . S
C2736 H2722 0.930 . S
C2736 C2734 1.395 . S
C2736 C2739 1.403 . S
C2737 C2734 1.403 . S
C2737 C2738 1.524 . S
C2737 C2741 1.400 . S
C2738 H2723 0.960 . S
C2738 H2724 0.960 . S
C2738 H2725 0.960 . S
C2738 C2737 1.524 . S
C2739 C2736 1.403 . S
C2739 C2740 1.392 . S
C2739 C2743 1.495 . S
C2740 C2739 1.392 . S
C2740 C2741 1.385 . S
C2740 C2742 1.478 . S
C2741 H2735 0.930 . S
C2741 C2737 1.400 . S
C2741 C2740 1.385 . S
C2742 C2740 1.478 . S
C2742 C2744 1.381 . S
C2742 C2748 1.383 . S
C2743 C2739 1.495 . S
C2743 H2749 0.959 . S
C2743 H2750 0.961 . S
C2743 H2751 0.960 . S
C2744 C2742 1.381 . S
C2744 C2745 1.394 . S
C2744 H2752 0.930 . S
C2745 C2744 1.394 . S
C2745 C2746 1.383 . S
C2745 H2753 0.929 . S
C2746 C2745 1.383 . S
C2746 C2747 1.377 . S
C2747 H2731 0.930 . S
C2747 C2746 1.377 . S
C2747 C2748 1.379 . S
C2748 H2732 0.931 . S
C2748 C2742 1.383 . S
C2748 C2747 1.379 . S
H2749 C2743 0.959 . S
H2750 C2743 0.961 . S
H2751 C2743 0.960 . S
H2752 C2744 0.930 . S
H2753 C2745 0.929 . S
H2754 C2762 0.929 . S
H2755 C2764 0.930 . S
H2756 C2766 0.930 . S
H2757 C2769 0.929 . S
H2758 C2772 0.930 . S
H2759 C2774 0.960 . S
H2760 C2774 0.960 . S
H2761 C2774 0.960 . S
C2762 H2754 0.929 . S
C2762 C2763 1.377 . S
C2762 C2764 1.384 . S
C2763 C2762 1.377 . S
C2763 C2769 1.390 . S
C2764 H2755 0.930 . S
C2764 C2762 1.384 . S
C2764 C2765 1.372 . S
C2765 C2764 1.372 . S
C2765 C2766 1.400 . S
C2765 C2770 1.490 . S
C2766 H2756 0.930 . S
C2766 C2765 1.400 . S
C2766 C2769 1.386 . S
H2767 C2783 0.930 . S
H2768 C2784 0.931 . S
C2769 H2757 0.929 . S
C2769 C2763 1.390 . S
C2769 C2766 1.386 . S
C2770 C2765 1.490 . S
C2770 C2772 1.395 . S
C2770 C2773 1.403 . S
H2771 C2777 0.930 . S
C2772 H2758 0.930 . S
C2772 C2770 1.395 . S
C2772 C2775 1.403 . S
C2773 C2770 1.403 . S
C2773 C2774 1.524 . S
C2773 C2777 1.400 . S
C2774 H2759 0.960 . S
C2774 H2760 0.960 . S
C2774 H2761 0.960 . S
C2774 C2773 1.524 . S
C2775 C2772 1.403 . S
C2775 C2776 1.392 . S
C2775 C2779 1.495 . S
C2776 C2775 1.392 . S
C2776 C2777 1.385 . S
C2776 C2778 1.478 . S
C2777 H2771 0.930 . S
C2777 C2773 1.400 . S
C2777 C2776 1.385 . S
C2778 C2776 1.478 . S
C2778 C2780 1.381 . S
C2778 C2784 1.383 . S
C2779 C2775 1.495 . S
C2779 H2785 0.959 . S
C2779 H2786 0.961 . S
C2779 H2787 0.960 . S
C2780 C2778 1.381 . S
C2780 C2781 1.394 . S
C2780 H2788 0.930 . S
C2781 C2780 1.394 . S
C2781 C2782 1.383 . S
C2781 H2789 0.929 . S
C2782 C2781 1.383 . S
C2782 C2783 1.377 . S
C2783 H2767 0.930 . S
C2783 C2782 1.377 . S
C2783 C2784 1.379 . S
C2784 H2768 0.931 . S
C2784 C2778 1.383 . S
C2784 C2783 1.379 . S
H2785 C2779 0.959 . S
H2786 C2779 0.961 . S
H2787 C2779 0.960 . S
H2788 C2780 0.930 . S
H2789 C2781 0.929 . S
H2790 C2798 0.929 . S
H2791 C2800 0.930 . S
H2792 C2802 0.930 . S
H2793 C2805 0.929 . S
H2794 C2808 0.930 . S
H2795 C2810 0.960 . S
H2796 C2810 0.960 . S
H2797 C2810 0.960 . S
C2798 H2790 0.929 . S
C2798 C2799 1.377 . S
C2798 C2800 1.384 . S
C2799 C2798 1.377 . S
C2799 C2805 1.390 . S
C2800 H2791 0.930 . S
C2800 C2798 1.384 . S
C2800 C2801 1.372 . S
C2801 C2800 1.372 . S
C2801 C2802 1.400 . S
C2801 C2806 1.490 . S
C2802 H2792 0.930 . S
C2802 C2801 1.400 . S
C2802 C2805 1.386 . S
H2803 C2819 0.930 . S
H2804 C2820 0.931 . S
C2805 H2793 0.929 . S
C2805 C2799 1.390 . S
C2805 C2802 1.386 . S
C2806 C2801 1.490 . S
C2806 C2808 1.395 . S
C2806 C2809 1.403 . S
H2807 C2813 0.930 . S
C2808 H2794 0.930 . S
C2808 C2806 1.395 . S
C2808 C2811 1.403 . S
C2809 C2806 1.403 . S
C2809 C2810 1.524 . S
C2809 C2813 1.400 . S
C2810 H2795 0.960 . S
C2810 H2796 0.960 . S
C2810 H2797 0.960 . S
C2810 C2809 1.524 . S
C2811 C2808 1.403 . S
C2811 C2812 1.392 . S
C2811 C2815 1.495 . S
C2812 C2811 1.392 . S
C2812 C2813 1.385 . S
C2812 C2814 1.478 . S
C2813 H2807 0.930 . S
C2813 C2809 1.400 . S
C2813 C2812 1.385 . S
C2814 C2812 1.478 . S
C2814 C2816 1.381 . S
C2814 C2820 1.383 . S
C2815 C2811 1.495 . S
C2815 H2821 0.959 . S
C2815 H2822 0.961 . S
C2815 H2823 0.960 . S
C2816 C2814 1.381 . S
C2816 C2817 1.394 . S
C2816 H2824 0.930 . S
C2817 C2816 1.394 . S
C2817 C2818 1.383 . S
C2817 H2825 0.929 . S
C2818 C2817 1.383 . S
C2818 C2819 1.377 . S
C2819 H2803 0.930 . S
C2819 C2818 1.377 . S
C2819 C2820 1.379 . S
C2820 H2804 0.931 . S
C2820 C2814 1.383 . S
C2820 C2819 1.379 . S
H2821 C2815 0.959 . S
H2822 C2815 0.961 . S
H2823 C2815 0.960 . S
H2824 C2816 0.930 . S
H2825 C2817 0.929 . S
H2826 C2834 0.929 . S
H2827 C2836 0.930 . S
H2828 C2838 0.930 . S
H2829 C2841 0.929 . S
H2830 C2844 0.930 . S
H2831 C2846 0.960 . S
H2832 C2846 0.960 . S
H2833 C2846 0.960 . S
C2834 H2826 0.929 . S
C2834 C2835 1.377 . S
C2834 C2836 1.384 . S
C2835 C2834 1.377 . S
C2835 C2841 1.390 . S
C2836 H2827 0.930 . S
C2836 C2834 1.384 . S
C2836 C2837 1.372 . S
C2837 C2836 1.372 . S
C2837 C2838 1.400 . S
C2837 C2842 1.490 . S
C2838 H2828 0.930 . S
C2838 C2837 1.400 . S
C2838 C2841 1.386 . S
H2839 C2855 0.930 . S
H2840 C2856 0.931 . S
C2841 H2829 0.929 . S
C2841 C2835 1.390 . S
C2841 C2838 1.386 . S
C2842 C2837 1.490 . S
C2842 C2844 1.395 . S
C2842 C2845 1.403 . S
H2843 C2849 0.930 . S
C2844 H2830 0.930 . S
C2844 C2842 1.395 . S
C2844 C2847 1.403 . S
C2845 C2842 1.403 . S
C2845 C2846 1.524 . S
C2845 C2849 1.400 . S
C2846 H2831 0.960 . S
C2846 H2832 0.960 . S
C2846 H2833 0.960 . S
C2846 C2845 1.524 . S
C2847 C2844 1.403 . S
C2847 C2848 1.392 . S
C2847 C2851 1.495 . S
C2848 C2847 1.392 . S
C2848 C2849 1.385 . S
C2848 C2850 1.478 . S
C2849 H2843 0.930 . S
C2849 C2845 1.400 . S
C2849 C2848 1.385 . S
C2850 C2848 1.478 . S
C2850 C2852 1.381 . S
C2850 C2856 1.383 . S
C2851 C2847 1.495 . S
C2851 H2857 0.959 . S
C2851 H2858 0.961 . S
C2851 H2859 0.960 . S
C2852 C2850 1.381 . S
C2852 C2853 1.394 . S
C2852 H2860 0.930 . S
C2853 C2852 1.394 . S
C2853 C2854 1.383 . S
C2853 H2861 0.929 . S
C2854 C2853 1.383 . S
C2854 C2855 1.377 . S
C2855 H2839 0.930 . S
C2855 C2854 1.377 . S
C2855 C2856 1.379 . S
C2856 H2840 0.931 . S
C2856 C2850 1.383 . S
C2856 C2855 1.379 . S
H2857 C2851 0.959 . S
H2858 C2851 0.961 . S
H2859 C2851 0.960 . S
H2860 C2852 0.930 . S
H2861 C2853 0.929 . S
H2862 C2870 0.929 . S
H2863 C2872 0.930 . S
H2864 C2874 0.930 . S
H2865 C2877 0.929 . S
H2866 C2880 0.930 . S
H2867 C2882 0.960 . S
H2868 C2882 0.960 . S
H2869 C2882 0.960 . S
C2870 H2862 0.929 . S
C2870 C2871 1.377 . S
C2870 C2872 1.384 . S
C2871 C2870 1.377 . S
C2871 C2877 1.390 . S
C2872 H2863 0.930 . S
C2872 C2870 1.384 . S
C2872 C2873 1.372 . S
C2873 C2872 1.372 . S
C2873 C2874 1.400 . S
C2873 C2878 1.490 . S
C2874 H2864 0.930 . S
C2874 C2873 1.400 . S
C2874 C2877 1.386 . S
H2875 C2891 0.930 . S
H2876 C2892 0.931 . S
C2877 H2865 0.929 . S
C2877 C2871 1.390 . S
C2877 C2874 1.386 . S
C2878 C2873 1.490 . S
C2878 C2880 1.395 . S
C2878 C2881 1.403 . S
H2879 C2885 0.930 . S
C2880 H2866 0.930 . S
C2880 C2878 1.395 . S
C2880 C2883 1.403 . S
C2881 C2878 1.403 . S
C2881 C2882 1.524 . S
C2881 C2885 1.400 . S
C2882 H2867 0.960 . S
C2882 H2868 0.960 . S
C2882 H2869 0.960 . S
C2882 C2881 1.524 . S
C2883 C2880 1.403 . S
C2883 C2884 1.392 . S
C2883 C2887 1.495 . S
C2884 C2883 1.392 . S
C2884 C2885 1.385 . S
C2884 C2886 1.478 . S
C2885 H2879 0.930 . S
C2885 C2881 1.400 . S
C2885 C2884 1.385 . S
C2886 C2884 1.478 . S
C2886 C2888 1.381 . S
C2886 C2892 1.383 . S
C2887 C2883 1.495 . S
C2887 H2893 0.959 . S
C2887 H2894 0.961 . S
C2887 H2895 0.960 . S
C2888 C2886 1.381 . S
C2888 C2889 1.394 . S
C2888 H2896 0.930 . S
C2889 C2888 1.394 . S
C2889 C2890 1.383 . S
C2889 H2897 0.929 . S
C2890 C2889 1.383 . S
C2890 C2891 1.377 . S
C2891 H2875 0.930 . S
C2891 C2890 1.377 . S
C2891 C2892 1.379 . S
C2892 H2876 0.931 . S
C2892 C2886 1.383 . S
C2892 C2891 1.379 . S
H2893 C2887 0.959 . S
H2894 C2887 0.961 . S
H2895 C2887 0.960 . S
H2896 C2888 0.930 . S
H2897 C2889 0.929 . S
H2898 C2906 0.929 . S
H2899 C2908 0.930 . S
H2900 C2910 0.930 . S
H2901 C2913 0.929 . S
H2902 C2916 0.930 . S
H2903 C2918 0.960 . S
H2904 C2918 0.960 . S
H2905 C2918 0.960 . S
C2906 H2898 0.929 . S
C2906 C2907 1.377 . S
C2906 C2908 1.384 . S
C2907 C2906 1.377 . S
C2907 C2913 1.390 . S
C2908 H2899 0.930 . S
C2908 C2906 1.384 . S
C2908 C2909 1.372 . S
C2909 C2908 1.372 . S
C2909 C2910 1.400 . S
C2909 C2914 1.490 . S
C2910 H2900 0.930 . S
C2910 C2909 1.400 . S
C2910 C2913 1.386 . S
H2911 C2927 0.930 . S
H2912 C2928 0.931 . S
C2913 H2901 0.929 . S
C2913 C2907 1.390 . S
C2913 C2910 1.386 . S
C2914 C2909 1.490 . S
C2914 C2916 1.395 . S
C2914 C2917 1.403 . S
H2915 C2921 0.930 . S
C2916 H2902 0.930 . S
C2916 C2914 1.395 . S
C2916 C2919 1.403 . S
C2917 C2914 1.403 . S
C2917 C2918 1.524 . S
C2917 C2921 1.400 . S
C2918 H2903 0.960 . S
C2918 H2904 0.960 . S
C2918 H2905 0.960 . S
C2918 C2917 1.524 . S
C2919 C2916 1.403 . S
C2919 C2920 1.392 . S
C2919 C2923 1.495 . S
C2920 C2919 1.392 . S
C2920 C2921 1.385 . S
C2920 C2922 1.478 . S
C2921 H2915 0.930 . S
C2921 C2917 1.400 . S
C2921 C2920 1.385 . S
C2922 C2920 1.478 . S
C2922 C2924 1.381 . S
C2922 C2928 1.383 . S
C2923 C2919 1.495 . S
C2923 H2929 0.959 . S
C2923 H2930 0.961 . S
C2923 H2931 0.960 . S
C2924 C2922 1.381 . S
C2924 C2925 1.394 . S
C2924 H2932 0.930 . S
C2925 C2924 1.394 . S
C2925 C2926 1.383 . S
C2925 H2933 0.929 . S
C2926 C2925 1.383 . S
C2926 C2927 1.377 . S
C2927 H2911 0.930 . S
C2927 C2926 1.377 . S
C2927 C2928 1.379 . S
C2928 H2912 0.931 . S
C2928 C2922 1.383 . S
C2928 C2927 1.379 . S
H2929 C2923 0.959 . S
H2930 C2923 0.961 . S
H2931 C2923 0.960 . S
H2932 C2924 0.930 . S
H2933 C2925 0.929 . S
H2934 C2942 0.929 . S
H2935 C2944 0.930 . S
H2936 C2946 0.930 . S
H2937 C2949 0.929 . S
H2938 C2952 0.930 . S
H2939 C2954 0.960 . S
H2940 C2954 0.960 . S
H2941 C2954 0.960 . S
C2942 H2934 0.929 . S
C2942 C2943 1.377 . S
C2942 C2944 1.384 . S
C2943 C2942 1.377 . S
C2943 C2949 1.390 . S
C2944 H2935 0.930 . S
C2944 C2942 1.384 . S
C2944 C2945 1.372 . S
C2945 C2944 1.372 . S
C2945 C2946 1.400 . S
C2945 C2950 1.490 . S
C2946 H2936 0.930 . S
C2946 C2945 1.400 . S
C2946 C2949 1.386 . S
H2947 C2963 0.930 . S
H2948 C2964 0.931 . S
C2949 H2937 0.929 . S
C2949 C2943 1.390 . S
C2949 C2946 1.386 . S
C2950 C2945 1.490 . S
C2950 C2952 1.395 . S
C2950 C2953 1.403 . S
H2951 C2957 0.930 . S
C2952 H2938 0.930 . S
C2952 C2950 1.395 . S
C2952 C2955 1.403 . S
C2953 C2950 1.403 . S
C2953 C2954 1.524 . S
C2953 C2957 1.400 . S
C2954 H2939 0.960 . S
C2954 H2940 0.960 . S
C2954 H2941 0.960 . S
C2954 C2953 1.524 . S
C2955 C2952 1.403 . S
C2955 C2956 1.392 . S
C2955 C2959 1.495 . S
C2956 C2955 1.392 . S
C2956 C2957 1.385 . S
C2956 C2958 1.478 . S
C2957 H2951 0.930 . S
C2957 C2953 1.400 . S
C2957 C2956 1.385 . S
C2958 C2956 1.478 . S
C2958 C2960 1.381 . S
C2958 C2964 1.383 . S
C2959 C2955 1.495 . S
C2959 H2965 0.959 . S
C2959 H2966 0.961 . S
C2959 H2967 0.960 . S
C2960 C2958 1.381 . S
C2960 C2961 1.394 . S
C2960 H2968 0.930 . S
C2961 C2960 1.394 . S
C2961 C2962 1.383 . S
C2961 H2969 0.929 . S
C2962 C2961 1.383 . S
C2962 C2963 1.377 . S
C2963 H2947 0.930 . S
C2963 C2962 1.377 . S
C2963 C2964 1.379 . S
C2964 H2948 0.931 . S
C2964 C2958 1.383 . S
C2964 C2963 1.379 . S
H2965 C2959 0.959 . S
H2966 C2959 0.961 . S
H2967 C2959 0.960 . S
H2968 C2960 0.930 . S
H2969 C2961 0.929 . S
H2970 C2978 0.929 . S
H2971 C2980 0.930 . S
H2972 C2982 0.930 . S
H2973 C2985 0.929 . S
H2974 C2988 0.930 . S
H2975 C2990 0.960 . S
H2976 C2990 0.960 . S
H2977 C2990 0.960 . S
C2978 H2970 0.929 . S
C2978 C2979 1.377 . S
C2978 C2980 1.384 . S
C2979 C2978 1.377 . S
C2979 C2985 1.390 . S
C2980 H2971 0.930 . S
C2980 C2978 1.384 . S
C2980 C2981 1.372 . S
C2981 C2980 1.372 . S
C2981 C2982 1.400 . S
C2981 C2986 1.490 . S
C2982 H2972 0.930 . S
C2982 C2981 1.400 . S
C2982 C2985 1.386 . S
H2983 C2999 0.930 . S
H2984 C3000 0.931 . S
C2985 H2973 0.929 . S
C2985 C2979 1.390 . S
C2985 C2982 1.386 . S
C2986 C2981 1.490 . S
C2986 C2988 1.395 . S
C2986 C2989 1.403 . S
H2987 C2993 0.930 . S
C2988 H2974 0.930 . S
C2988 C2986 1.395 . S
C2988 C2991 1.403 . S
C2989 C2986 1.403 . S
C2989 C2990 1.524 . S
C2989 C2993 1.400 . S
C2990 H2975 0.960 . S
C2990 H2976 0.960 . S
C2990 H2977 0.960 . S
C2990 C2989 1.524 . S
C2991 C2988 1.403 . S
C2991 C2992 1.392 . S
C2991 C2995 1.495 . S
C2992 C2991 1.392 . S
C2992 C2993 1.385 . S
C2992 C2994 1.478 . S
C2993 H2987 0.930 . S
C2993 C2989 1.400 . S
C2993 C2992 1.385 . S
C2994 C2992 1.478 . S
C2994 C2996 1.381 . S
C2994 C3000 1.383 . S
C2995 C2991 1.495 . S
C2995 H3001 0.959 . S
C2995 H3002 0.961 . S
C2995 H3003 0.960 . S
C2996 C2994 1.381 . S
C2996 C2997 1.394 . S
C2996 H3004 0.930 . S
C2997 C2996 1.394 . S
C2997 C2998 1.383 . S
C2997 H3005 0.929 . S
C2998 C2997 1.383 . S
C2998 C2999 1.377 . S
C2999 H2983 0.930 . S
C2999 C2998 1.377 . S
C2999 C3000 1.379 . S
C3000 H2984 0.931 . S
C3000 C2994 1.383 . S
C3000 C2999 1.379 . S
H3001 C2995 0.959 . S
H3002 C2995 0.961 . S
H3003 C2995 0.960 . S
H3004 C2996 0.930 . S
H3005 C2997 0.929 . S
H3006 C3014 0.929 . S
H3007 C3016 0.930 . S
H3008 C3018 0.930 . S
H3009 C3021 0.929 . S
H3010 C3024 0.930 . S
H3011 C3026 0.960 . S
H3012 C3026 0.960 . S
H3013 C3026 0.960 . S
C3014 H3006 0.929 . S
C3014 C3015 1.377 . S
C3014 C3016 1.384 . S
C3015 C3014 1.377 . S
C3015 C3021 1.390 . S
C3016 H3007 0.930 . S
C3016 C3014 1.384 . S
C3016 C3017 1.372 . S
C3017 C3016 1.372 . S
C3017 C3018 1.400 . S
C3017 C3022 1.490 . S
C3018 H3008 0.930 . S
C3018 C3017 1.400 . S
C3018 C3021 1.386 . S
H3019 C3035 0.930 . S
H3020 C3036 0.931 . S
C3021 H3009 0.929 . S
C3021 C3015 1.390 . S
C3021 C3018 1.386 . S
C3022 C3017 1.490 . S
C3022 C3024 1.395 . S
C3022 C3025 1.403 . S
H3023 C3029 0.930 . S
C3024 H3010 0.930 . S
C3024 C3022 1.395 . S
C3024 C3027 1.403 . S
C3025 C3022 1.403 . S
C3025 C3026 1.524 . S
C3025 C3029 1.400 . S
C3026 H3011 0.960 . S
C3026 H3012 0.960 . S
C3026 H3013 0.960 . S
C3026 C3025 1.524 . S
C3027 C3024 1.403 . S
C3027 C3028 1.392 . S
C3027 C3031 1.495 . S
C3028 C3027 1.392 . S
C3028 C3029 1.385 . S
C3028 C3030 1.478 . S
C3029 H3023 0.930 . S
C3029 C3025 1.400 . S
C3029 C3028 1.385 . S
C3030 C3028 1.478 . S
C3030 C3032 1.381 . S
C3030 C3036 1.383 . S
C3031 C3027 1.495 . S
C3031 H3037 0.959 . S
C3031 H3038 0.961 . S
C3031 H3039 0.960 . S
C3032 C3030 1.381 . S
C3032 C3033 1.394 . S
C3032 H3040 0.930 . S
C3033 C3032 1.394 . S
C3033 C3034 1.383 . S
C3033 H3041 0.929 . S
C3034 C3033 1.383 . S
C3034 C3035 1.377 . S
C3035 H3019 0.930 . S
C3035 C3034 1.377 . S
C3035 C3036 1.379 . S
C3036 H3020 0.931 . S
C3036 C3030 1.383 . S
C3036 C3035 1.379 . S
H3037 C3031 0.959 . S
H3038 C3031 0.961 . S
H3039 C3031 0.960 . S
H3040 C3032 0.930 . S
H3041 C3033 0.929 . S
C1107 C253 1.438 . S
C1126 C409 1.398 . S
C1143 C272 1.474 . S
C1162 C493 1.393 . S
C1179 C234 1.428 . S
C1198 C573 1.418 . S
C1215 C215 1.409 . S
C1234 C489 1.399 1_556 S
C1270 C577 1.381 . S
C1251 C177 1.429 . S
C1287 C196 1.383 . S
C1306 C405 1.365 1_556 S
C1342 C398 1.468 . S
C1323 C220 1.461 . S
C1378 C482 1.497 . S
C1359 C182 1.482 . S
C1395 C201 1.474 . S
C1414 C584 1.540 . S
C1431 C258 1.437 . S
C1450 C500 1.496 . S
C1467 C277 1.425 . S
C1486 C566 1.420 . S
C1522 C416 1.490 . S
C1503 C239 1.425 . S
C1558 C661 1.379 . S
C1539 C25 1.442 . S
C1575 C44 1.473 . S
C1594 C745 1.393 . S
C1611 C6 1.429 . S
C1630 C825 1.420 . S
C1647 C329 1.404 . S
C1666 C741 1.416 . S
C1683 C291 1.426 . S
C1702 C829 1.341 . S
C1719 C310 1.379 . S
C1738 C657 1.378 . S
C1755 C334 1.456 . S
C1774 C650 1.453 . S
C1791 C296 1.483 . S
C1810 C734 1.483 . S
C1846 C836 1.543 . S
C1827 C315 1.476 . S
C1863 C30 1.445 . S
C1882 C752 1.456 . S
C1918 C818 1.434 . S
C1899 C49 1.431 . S
C1935 C11 1.430 . S
C1954 C668 1.476 . S
C1990 C913 1.373 . S
C1971 C139 1.443 . S
C2007 C158 1.471 . S
C2026 C997 1.431 . S
C2062 C1077 1.423 . S
C2043 C120 1.428 . S
C2098 C993 1.402 . S
C2079 C101 1.409 . S
C2134 C1081 1.344 . S
C2115 C63 1.425 . S
C2151 C82 1.378 . S
C2170 C909 1.391 . S
C2187 C106 1.465 . S
C2206 C902 1.500 . S
C2223 C68 1.487 . S
C2242 C986 1.519 . S
C2278 C1088 1.505 . S
C2259 C87 1.473 . S
C2295 C144 1.450 . S
C2314 C1004 1.472 . S
C2331 C163 1.436 . S
C2350 C1070 1.474 . S
C2367 C125 1.429 . S
C2386 C920 1.446 . S
C2403 C287 1.653 . S
C2422 C412 1.562 . S
C2458 C496 1.577 . S
C2439 C306 1.740 . S
C2475 C325 1.666 . S
C2494 C568 1.490 . S
C2511 C116 1.705 . S
C2530 C484 1.534 . S
C2547 C135 1.690 . S
C2566 C580 1.587 . S
C2602 C400 1.470 . S
C2583 C154 1.614 . S
C2619 C59 1.655 . S
C2638 C664 1.543 . S
C2655 C78 1.746 . S
C2674 C748 1.618 . S
C2691 C97 1.661 . S
C2710 C820 1.421 . S
C2727 C230 1.704 . S
C2746 C736 1.530 . S
C2782 C832 1.519 . S
C2763 C249 1.684 . S
C2799 C268 1.607 . S
C2818 C652 1.384 . S
C2835 C173 1.655 . S
C2854 C916 1.541 . S
C2871 C192 1.746 . S
C2890 C1000 1.627 . S
C2926 C1072 1.422 . S
C2907 C211 1.661 . S
C2943 C2 1.704 . S
C2962 C988 1.524 . S
C2979 C21 1.688 . S
C2998 C1084 1.525 . S
C3015 C40 1.610 . S
C3034 C904 1.431 . S
