# Generated by pormake.
# Topology nom, (4,4)-cn, num edge types: 1
# Building blocks:
#     Node 0, Type 0, BuildingBlock: MIFKUJ_clean_linker_1, # of connection points: 4
#     Node 1, Type 0, BuildingBlock: MIFKUJ_clean_linker_1, # of connection points: 4
#     Node 2, Type 0, BuildingBlock: MIFKUJ_clean_linker_1, # of connection points: 4
#     Node 3, Type 0, BuildingBlock: MIFKUJ_clean_linker_1, # of connection points: 4
#     Node 4, Type 0, BuildingBlock: MIFKUJ_clean_linker_1, # of connection points: 4
#     Node 5, Type 0, BuildingBlock: MIFKUJ_clean_linker_1, # of connection points: 4
#     Node 6, Type 1, BuildingBlock: QUQFOY_clean_sbu_1, # of connection points: 4
#     Node 7, Type 1, BuildingBlock: QUQFOY_clean_sbu_1, # of connection points: 4
#     Node 8, Type 1, BuildingBlock: QUQFOY_clean_sbu_1, # of connection points: 4
#     Node 9, Type 1, BuildingBlock: QUQFOY_clean_sbu_1, # of connection points: 4
#     Node 10, Type 1, BuildingBlock: QUQFOY_clean_sbu_1, # of connection points: 4
#     Node 11, Type 1, BuildingBlock: QUQFOY_clean_sbu_1, # of connection points: 4
#     Edge 12, Type (0, 1), BuildingBlock: TEMPAE_clean_linker_10, # of connection points: 2
#     Edge 13, Type (0, 1), BuildingBlock: TEMPAE_clean_linker_10, # of connection points: 2
#     Edge 14, Type (0, 1), BuildingBlock: TEMPAE_clean_linker_10, # of connection points: 2
#     Edge 15, Type (0, 1), BuildingBlock: TEMPAE_clean_linker_10, # of connection points: 2
#     Edge 16, Type (0, 1), BuildingBlock: TEMPAE_clean_linker_10, # of connection points: 2
#     Edge 17, Type (0, 1), BuildingBlock: TEMPAE_clean_linker_10, # of connection points: 2
#     Edge 18, Type (0, 1), BuildingBlock: TEMPAE_clean_linker_10, # of connection points: 2
#     Edge 19, Type (0, 1), BuildingBlock: TEMPAE_clean_linker_10, # of connection points: 2
#     Edge 20, Type (0, 1), BuildingBlock: TEMPAE_clean_linker_10, # of connection points: 2
#     Edge 21, Type (0, 1), BuildingBlock: TEMPAE_clean_linker_10, # of connection points: 2
#     Edge 22, Type (0, 1), BuildingBlock: TEMPAE_clean_linker_10, # of connection points: 2
#     Edge 23, Type (0, 1), BuildingBlock: TEMPAE_clean_linker_10, # of connection points: 2
#     Edge 24, Type (0, 1), BuildingBlock: TEMPAE_clean_linker_10, # of connection points: 2
#     Edge 25, Type (0, 1), BuildingBlock: TEMPAE_clean_linker_10, # of connection points: 2
#     Edge 26, Type (0, 1), BuildingBlock: TEMPAE_clean_linker_10, # of connection points: 2
#     Edge 27, Type (0, 1), BuildingBlock: TEMPAE_clean_linker_10, # of connection points: 2
#     Edge 28, Type (0, 1), BuildingBlock: TEMPAE_clean_linker_10, # of connection points: 2
#     Edge 29, Type (0, 1), BuildingBlock: TEMPAE_clean_linker_10, # of connection points: 2
#     Edge 30, Type (0, 1), BuildingBlock: TEMPAE_clean_linker_10, # of connection points: 2
#     Edge 31, Type (0, 1), BuildingBlock: TEMPAE_clean_linker_10, # of connection points: 2
#     Edge 32, Type (0, 1), BuildingBlock: TEMPAE_clean_linker_10, # of connection points: 2
#     Edge 33, Type (0, 1), BuildingBlock: TEMPAE_clean_linker_10, # of connection points: 2
#     Edge 34, Type (0, 1), BuildingBlock: TEMPAE_clean_linker_10, # of connection points: 2
#     Edge 35, Type (0, 1), BuildingBlock: TEMPAE_clean_linker_10, # of connection points: 2
# Relax obj value: 0.014
# Max RMSD: 0.113
# Mean RMSD: 0.111
data_MOF--net-nom--node1-QUQFOY_clean_sbu_1--node2-MIFKUJ_clean_linker_1--edge1-TEMPAE_clean_linker_10
_symmetry_space_group_name_H-M    P1
_symmetry_Int_Tables_number       1
_symmetry_cell_setting            triclinic
loop_
_symmetry_equiv_pos_as_xyz
'x, y, z'
_cell_length_a     56.329916
_cell_length_b     56.317163
_cell_length_c     54.033009
_cell_angle_alpha  90.058532
_cell_angle_beta   89.946371
_cell_angle_gamma 120.01587
loop_
_atom_site_label
_atom_site_type_symbol
_atom_site_fract_x
_atom_site_fract_y
_atom_site_fract_z
_atom_type_partial_charge
H0 H 0.98451 0.47477 0.26844 0.0
H1 H 0.94788 0.45773 0.23765 0.0
H2 H 0.91319 0.50171 0.27417 0.0
H3 H 0.95005 0.5188 0.30496 0.0
H4 H 0.02366 0.52745 0.28148 0.0
H5 H 0.94203 0.45076 0.31918 0.0
H6 H 0.89412 0.42968 0.33266 0.0
H7 H 0.91635 0.4965 0.38381 0.0
H8 H 0.96388 0.51795 0.36978 0.0
H9 H 0.04028 0.55125 0.38644 0.0
H10 H 0.07668 0.56545 0.41715 0.0
H11 H 0.11336 0.52769 0.37375 0.0
H12 H 0.07676 0.51343 0.34301 0.0
H13 H 0.00193 0.50379 0.37014 0.0
H14 H 0.07964 0.58024 0.33783 0.0
H15 H 0.1268 0.60884 0.32494 0.0
H16 H 0.11227 0.55484 0.26263 0.0
H17 H 0.06603 0.52439 0.27767 0.0
C18 C 0.96987 0.49783 0.28911 0.0
C19 C 0.96916 0.48094 0.26969 0.0
C20 C 0.94822 0.47124 0.2521 0.0
C21 C 0.92759 0.47831 0.25354 0.0
C22 C 0.92858 0.49561 0.27279 0.0
C23 C 0.94966 0.50545 0.29032 0.0
C24 C 0.9915 0.50679 0.3083 0.0
C25 C 0.01905 0.52197 0.30084 0.0
C26 C 0.9852 0.50065 0.3337 0.0
C27 C 0.95654 0.48624 0.34313 0.0
C28 C 0.93658 0.46093 0.33322 0.0
C29 C 0.90925 0.44885 0.34097 0.0
C30 C 0.90156 0.46149 0.35924 0.0
C31 C 0.92175 0.48618 0.36986 0.0
C32 C 0.94892 0.49845 0.36184 0.0
C33 C 0.05587 0.53144 0.36233 0.0
C34 C 0.05599 0.54576 0.38364 0.0
C35 C 0.0768 0.55385 0.4012 0.0
C36 C 0.09791 0.54771 0.39785 0.0
C37 C 0.09757 0.53301 0.37667 0.0
C38 C 0.07664 0.5248 0.35915 0.0
C39 C 0.03427 0.52395 0.34329 0.0
C40 C 0.00672 0.50912 0.35077 0.0
C41 C 0.04061 0.53124 0.31802 0.0
C42 C 0.06928 0.54956 0.30924 0.0
C43 C 0.08678 0.57405 0.3218 0.0
C44 C 0.11379 0.59087 0.31397 0.0
C45 C 0.12378 0.58445 0.29256 0.0
C46 C 0.10586 0.56033 0.27952 0.0
C47 C 0.07909 0.543 0.2879 0.0
H48 H 0.4489 0.9623 0.53559 0.0
H49 H 0.42422 0.91479 0.54974 0.0
H50 H 0.4744 0.89588 0.50243 0.0
H51 H 0.49952 0.94378 0.4886 0.0
H52 H 0.50053 0.00238 0.5375 0.0
H53 H 0.43821 0.94501 0.47402 0.0
H54 H 0.42056 0.90763 0.44432 0.0
H55 H 0.49484 0.95231 0.40109 0.0
H56 H 0.51363 0.98773 0.43258 0.0
H57 H 0.55392 0.06737 0.4507 0.0
H58 H 0.57319 0.11486 0.43672 0.0
H59 H 0.51599 0.12381 0.4837 0.0
H60 H 0.49715 0.07655 0.49776 0.0
H61 H 0.50211 0.02296 0.44809 0.0
H62 H 0.56535 0.07802 0.5112 0.0
H63 H 0.58569 0.11461 0.54214 0.0
H64 H 0.5097 0.07611 0.5832 0.0
H65 H 0.48925 0.03985 0.55199 0.0
C66 C 0.47583 0.95657 0.51077 0.0
C67 C 0.45495 0.94808 0.52855 0.0
C68 C 0.44087 0.92091 0.53666 0.0
C69 C 0.44732 0.90159 0.52713 0.0
C70 C 0.46882 0.91027 0.5099 0.0
C71 C 0.48315 0.9376 0.50199 0.0
C72 C 0.48902 0.98503 0.50095 0.0
C73 C 0.50067 0.00682 0.51795 0.0
C74 C 0.48975 0.99085 0.4753 0.0
C75 C 0.4777 0.96889 0.45611 0.0
C76 C 0.451 0.94642 0.45848 0.0
C77 C 0.44066 0.92518 0.44106 0.0
C78 C 0.45625 0.92647 0.42015 0.0
C79 C 0.48243 0.94981 0.41724 0.0
C80 C 0.49311 0.9705 0.43511 0.0
C81 C 0.52432 0.06852 0.47547 0.0
C82 C 0.54549 0.07957 0.45788 0.0
C83 C 0.55644 0.1067 0.44988 0.0
C84 C 0.54629 0.12324 0.45923 0.0
C85 C 0.52469 0.11186 0.4765 0.0
C86 C 0.5138 0.08479 0.48449 0.0
C87 C 0.51338 0.04007 0.48466 0.0
C88 C 0.50209 0.01837 0.46759 0.0
C89 C 0.51301 0.03424 0.51017 0.0
C90 C 0.52564 0.05631 0.52909 0.0
C91 C 0.55295 0.07761 0.5267 0.0
C92 C 0.56457 0.0985 0.54439 0.0
C93 C 0.54926 0.09822 0.56505 0.0
C94 C 0.52206 0.07671 0.56758 0.0
C95 C 0.51036 0.056 0.54976 0.0
H96 H 0.51468 0.57517 0.67981 0.0
H97 H 0.49818 0.59524 0.71079 0.0
H98 H 0.45761 0.51788 0.74966 0.0
H99 H 0.47396 0.49785 0.71854 0.0
H100 H 0.52212 0.50722 0.70375 0.0
H101 H 0.51055 0.56376 0.61792 0.0
H102 H 0.48166 0.58267 0.60492 0.0
H103 H 0.41756 0.52638 0.65401 0.0
H104 H 0.44638 0.50758 0.6668 0.0
H105 H 0.49398 0.45744 0.60888 0.0
H106 H 0.51227 0.43884 0.57781 0.0
H107 H 0.59469 0.49939 0.59864 0.0
H108 H 0.5764 0.5174 0.63023 0.0
H109 H 0.50435 0.51342 0.61465 0.0
H110 H 0.50927 0.44312 0.6564 0.0
H111 H 0.52883 0.41523 0.66978 0.0
H112 H 0.59168 0.48437 0.71018 0.0
H113 H 0.57203 0.51244 0.69643 0.0
C114 C 0.49536 0.53492 0.69671 0.0
C115 C 0.50215 0.5625 0.69496 0.0
C116 C 0.49268 0.57394 0.71264 0.0
C117 C 0.47653 0.55811 0.73261 0.0
C118 C 0.47025 0.53067 0.73462 0.0
C119 C 0.47958 0.5192 0.71685 0.0
C120 C 0.50416 0.52228 0.67725 0.0
C121 C 0.51839 0.50878 0.68428 0.0
C122 C 0.49839 0.52334 0.65187 0.0
C123 C 0.48078 0.53452 0.64359 0.0
C124 C 0.49023 0.55547 0.6258 0.0
C125 C 0.47372 0.56624 0.61839 0.0
C126 C 0.44743 0.5562 0.62862 0.0
C127 C 0.43792 0.53495 0.64616 0.0
C128 C 0.45435 0.52414 0.65345 0.0
C129 C 0.53388 0.48876 0.62177 0.0
C130 C 0.51597 0.46671 0.6067 0.0
C131 C 0.52638 0.45604 0.58914 0.0
C132 C 0.55481 0.46775 0.58602 0.0
C133 C 0.5727 0.49012 0.60079 0.0
C134 C 0.5623 0.50038 0.61873 0.0
C135 C 0.52296 0.49925 0.64119 0.0
C136 C 0.50835 0.51228 0.63412 0.0
C137 C 0.52735 0.49675 0.66658 0.0
C138 C 0.53949 0.48004 0.675 0.0
C139 C 0.52753 0.45246 0.6678 0.0
C140 C 0.53873 0.43651 0.67549 0.0
C141 C 0.56199 0.44768 0.69082 0.0
C142 C 0.57371 0.47519 0.69841 0.0
C143 C 0.56254 0.49124 0.69056 0.0
H144 H 0.0745 0.57427 0.80336 0.0
H145 H 0.1112 0.59428 0.77253 0.0
H146 H 0.07493 0.51666 0.73402 0.0
H147 H 0.03839 0.4967 0.76498 0.0
H148 H 0.99963 0.50666 0.77883 0.0
H149 H 0.06679 0.56359 0.86524 0.0
H150 H 0.11449 0.58218 0.87853 0.0
H151 H 0.12169 0.52475 0.83046 0.0
H152 H 0.07419 0.50624 0.81741 0.0
H153 H 0.94874 0.44556 0.8471 0.0
H154 H 0.91251 0.42699 0.87851 0.0
H155 H 0.94602 0.50768 0.91082 0.0
H156 H 0.98206 0.52612 0.87935 0.0
H157 H 0.02196 0.51351 0.86829 0.0
H158 H 0.96155 0.45491 0.78233 0.0
H159 H 0.91401 0.42789 0.76857 0.0
H160 H 0.89209 0.47655 0.81481 0.0
H161 H 0.93999 0.5042 0.82804 0.0
C162 C 0.0538 0.53389 0.78662 0.0
C163 C 0.07453 0.56152 0.78835 0.0
C164 C 0.09551 0.57292 0.77075 0.0
C165 C 0.09599 0.55702 0.7509 0.0
C166 C 0.07497 0.52951 0.74897 0.0
C167 C 0.05408 0.51807 0.76665 0.0
C168 C 0.03205 0.52142 0.80582 0.0
C169 C 0.00449 0.50795 0.79839 0.0
C170 C 0.03843 0.52299 0.83133 0.0
C171 C 0.06704 0.53383 0.84004 0.0
C172 C 0.07864 0.55497 0.85766 0.0
C173 C 0.10587 0.56555 0.86524 0.0
C174 C 0.12194 0.55514 0.85532 0.0
C175 C 0.11005 0.53362 0.83804 0.0
C176 C 0.08287 0.52298 0.8306 0.0
C177 C 0.96793 0.4873 0.86073 0.0
C178 C 0.94818 0.45926 0.86089 0.0
C179 C 0.92747 0.44869 0.87879 0.0
C180 C 0.92637 0.46589 0.89709 0.0
C181 C 0.94647 0.49385 0.89712 0.0
C182 C 0.96705 0.50443 0.87914 0.0
C183 C 0.98947 0.49899 0.84133 0.0
C184 C 0.01708 0.51239 0.84876 0.0
C185 C 0.98306 0.49645 0.81575 0.0
C186 C 0.95435 0.48137 0.8065 0.0
C187 C 0.94665 0.46009 0.78925 0.0
C188 C 0.91947 0.44466 0.78137 0.0
C189 C 0.89937 0.45008 0.79069 0.0
C190 C 0.90715 0.47178 0.80753 0.0
C191 C 0.93447 0.48751 0.81513 0.0
H192 H 0.58931 0.06467 0.02329 0.0
H193 H 0.61695 0.11278 0.03617 0.0
H194 H 0.54961 0.12588 0.01892 0.0
H195 H 0.52219 0.07783 0.00532 0.0
H196 H 0.53381 0.02205 0.04023 0.0
H197 H 0.58458 0.07481 0.9688 0.0
H198 H 0.5993 0.11184 0.93857 0.0
H199 H 0.5153 0.07895 0.91517 0.0
H200 H 0.50058 0.0422 0.94581 0.0
H201 H 0.45889 0.94159 0.00039 0.0
H202 H 0.43752 0.89391 0.98627 0.0
H203 H 0.506 0.91583 0.93721 0.0
H204 H 0.52749 0.96325 0.95167 0.0
H205 H 0.51367 0.002 0.95079 0.0
H206 H 0.48116 0.98107 0.05161 0.0
H207 H 0.46489 0.94426 0.08209 0.0
H208 H 0.51276 0.91324 0.04663 0.0
H209 H 0.52869 0.95008 0.0159 0.0
C210 C 0.55379 0.06781 0.01335 0.0
C211 C 0.58044 0.07785 0.02246 0.0
C212 C 0.5962 0.10525 0.02968 0.0
C213 C 0.5853 0.12283 0.02846 0.0
C214 C 0.55832 0.11258 0.02006 0.0
C215 C 0.54273 0.08527 0.01233 0.0
C216 C 0.53814 0.03936 0.0039 0.0
C217 C 0.52929 0.01761 0.0207 0.0
C218 C 0.53231 0.03371 0.97843 0.0
C219 C 0.54141 0.05597 0.95984 0.0
C220 C 0.56927 0.07579 0.95744 0.0
C221 C 0.57766 0.09693 0.94015 0.0
C222 C 0.55842 0.09835 0.92462 0.0
C223 C 0.53059 0.07827 0.92681 0.0
C224 C 0.52217 0.05729 0.94428 0.0
C225 C 0.49502 0.95595 0.97737 0.0
C226 C 0.46933 0.93611 0.98663 0.0
C227 C 0.45711 0.9089 0.97854 0.0
C228 C 0.47012 0.90114 0.96068 0.0
C229 C 0.49534 0.92124 0.95079 0.0
C230 C 0.50766 0.94835 0.95907 0.0
C231 C 0.50927 0.98446 0.98712 0.0
C232 C 0.51794 0.00633 0.97037 0.0
C233 C 0.5149 0.99023 0.01267 0.0
C234 C 0.50599 0.96822 0.03144 0.0
C235 C 0.48827 0.96644 0.0505 0.0
C236 C 0.47907 0.94542 0.06795 0.0
C237 C 0.48758 0.92583 0.06685 0.0
C238 C 0.50556 0.9278 0.04783 0.0
C239 C 0.51476 0.94888 0.03032 0.0
H240 H 0.51133 0.48601 0.21824 0.0
H241 H 0.53099 0.46996 0.24929 0.0
H242 H 0.60254 0.49568 0.20296 0.0
H243 H 0.58419 0.51503 0.17359 0.0
H244 H 0.52336 0.53239 0.20107 0.0
H245 H 0.52303 0.45247 0.16291 0.0
H246 H 0.54822 0.42988 0.14863 0.0
H247 H 0.59335 0.49607 0.09708 0.0
H248 H 0.5688 0.51885 0.11176 0.0
H249 H 0.52639 0.55388 0.09662 0.0
H250 H 0.50339 0.56738 0.06616 0.0
H251 H 0.42986 0.52996 0.11079 0.0
H252 H 0.45306 0.51647 0.14132 0.0
H253 H 0.51645 0.50562 0.11282 0.0
H254 H 0.51622 0.58335 0.14554 0.0
H255 H 0.49687 0.61099 0.15938 0.0
H256 H 0.46081 0.55719 0.2224 0.0
H257 H 0.47733 0.52768 0.20651 0.0
C258 C 0.54588 0.50117 0.19315 0.0
C259 C 0.53148 0.48863 0.21493 0.0
C260 C 0.54262 0.47891 0.23255 0.0
C261 C 0.5682 0.48069 0.22859 0.0
C262 C 0.58291 0.49392 0.20697 0.0
C263 C 0.57216 0.50461 0.18979 0.0
C264 C 0.53294 0.51022 0.17413 0.0
C265 C 0.5214 0.52613 0.18185 0.0
C266 C 0.53147 0.50308 0.14875 0.0
C267 C 0.54436 0.48761 0.13871 0.0
C268 C 0.5383 0.46206 0.14849 0.0
C269 C 0.55265 0.44917 0.14033 0.0
C270 C 0.57277 0.46126 0.12179 0.0
C271 C 0.57779 0.48613 0.11121 0.0
C272 C 0.56378 0.49919 0.11962 0.0
C273 C 0.49152 0.53432 0.12132 0.0
C274 C 0.50524 0.54837 0.09976 0.0
C275 C 0.49205 0.55603 0.08235 0.0
C276 C 0.46479 0.54971 0.08606 0.0
C277 C 0.45096 0.53539 0.10756 0.0
C278 C 0.46416 0.52762 0.12497 0.0
C279 C 0.50607 0.52695 0.13997 0.0
C280 C 0.51803 0.51153 0.13214 0.0
C281 C 0.50821 0.53488 0.16516 0.0
C282 C 0.49765 0.55283 0.17448 0.0
C283 C 0.50349 0.57701 0.16195 0.0
C284 C 0.49284 0.59327 0.17032 0.0
C285 C 0.47709 0.58658 0.19217 0.0
C286 C 0.47213 0.56284 0.20517 0.0
C287 C 0.48201 0.54606 0.19629 0.0
O288 O 0.60926 0.3802 0.43432 0.0
Cd289 Cd 0.61916 0.3638 0.40433 0.0
Cd290 Cd 0.6663 0.40968 0.41009 0.0
O291 O 0.6514 0.41143 0.44448 0.0
O292 O 0.59015 0.32438 0.40384 0.0
O293 O 0.6339 0.3383 0.41052 0.0
C294 C 0.6089 0.31836 0.40884 0.0
C295 C 0.7099 0.41514 0.40501 0.0
C296 C 0.62587 0.39853 0.44917 0.0
C297 C 0.63301 0.40517 0.36536 0.0
O298 O 0.65126 0.42129 0.38046 0.0
O299 O 0.61924 0.37961 0.36978 0.0
O300 O 0.70653 0.4357 0.40983 0.0
O301 O 0.68833 0.39105 0.4039 0.0
O302 O 0.24595 0.61029 0.60764 0.0
Cd303 Cd 0.26895 0.61485 0.57641 0.0
Cd304 Cd 0.26852 0.66246 0.57292 0.0
O305 O 0.24762 0.65021 0.60618 0.0
O306 O 0.28096 0.5873 0.58025 0.0
O307 O 0.30996 0.63197 0.57921 0.0
C308 C 0.30587 0.60735 0.58141 0.0
C309 C 0.30541 0.70705 0.56836 0.0
C310 C 0.23976 0.6273 0.61677 0.0
C311 C 0.24093 0.62116 0.53202 0.0
O312 O 0.24643 0.64412 0.54127 0.0
O313 O 0.24895 0.60634 0.54276 0.0
O314 O 0.28043 0.70201 0.56889 0.0
O315 O 0.3096 0.68663 0.57107 0.0
O316 O 0.64618 0.24275 0.77587 0.0
Cd317 Cd 0.66267 0.26624 0.74457 0.0
Cd318 Cd 0.61547 0.2668 0.7452 0.0
O319 O 0.60958 0.24717 0.77888 0.0
O320 O 0.70263 0.27932 0.74658 0.0
O321 O 0.68571 0.30728 0.74767 0.0
C322 C 0.70676 0.30392 0.74868 0.0
C323 C 0.60964 0.30488 0.74156 0.0
C324 C 0.62452 0.23801 0.7873 0.0
C325 C 0.62493 0.23826 0.70226 0.0
O326 O 0.60828 0.24352 0.71357 0.0
O327 O 0.64883 0.24672 0.71092 0.0
O328 O 0.58899 0.28042 0.74383 0.0
O329 O 0.63392 0.30786 0.74204 0.0
O330 O 0.41117 0.64366 0.942 0.0
Cd331 Cd 0.4075 0.6621 0.91042 0.0
Cd332 Cd 0.35946 0.61416 0.90677 0.0
O333 O 0.37095 0.60577 0.94049 0.0
O334 O 0.43565 0.70146 0.91461 0.0
O335 O 0.39125 0.68684 0.91259 0.0
C336 C 0.41602 0.70694 0.91536 0.0
C337 C 0.31499 0.60655 0.90178 0.0
C338 C 0.39376 0.6207 0.95125 0.0
C339 C 0.40128 0.62699 0.86648 0.0
O340 O 0.37812 0.6098 0.87557 0.0
O341 O 0.41615 0.64994 0.8771 0.0
O342 O 0.31991 0.58655 0.90287 0.0
O343 O 0.33549 0.6312 0.90399 0.0
O344 O 0.78151 0.37739 0.04662 0.0
Cd345 Cd 0.75735 0.362 0.07782 0.0
Cd346 Cd 0.75635 0.40887 0.07493 0.0
O347 O 0.77597 0.41314 0.04145 0.0
O348 O 0.7444 0.32197 0.07854 0.0
O349 O 0.71658 0.33866 0.07307 0.0
C350 C 0.71998 0.31766 0.07458 0.0
C351 C 0.7181 0.41453 0.07801 0.0
C352 C 0.78576 0.39829 0.03414 0.0
C353 C 0.78467 0.40181 0.11909 0.0
O354 O 0.77989 0.41803 0.10654 0.0
O355 O 0.77589 0.3774 0.11162 0.0
O356 O 0.74247 0.43518 0.07517 0.0
O357 O 0.71527 0.39029 0.07819 0.0
O358 O 0.42092 0.78066 0.21663 0.0
Cd359 Cd 0.40695 0.75502 0.24718 0.0
Cd360 Cd 0.36206 0.75683 0.23815 0.0
O361 O 0.38002 0.77168 0.20423 0.0
O362 O 0.43248 0.74047 0.25185 0.0
O363 O 0.38929 0.71473 0.23987 0.0
C364 C 0.4128 0.71698 0.24464 0.0
C365 C 0.31832 0.71899 0.24237 0.0
C366 C 0.40568 0.78283 0.20049 0.0
C367 C 0.39254 0.78544 0.28344 0.0
O368 O 0.37606 0.78457 0.26695 0.0
O369 O 0.40484 0.77185 0.28076 0.0
O370 O 0.32185 0.74216 0.23447 0.0
O371 O 0.33974 0.71703 0.24719 0.0
C372 C 0.16579 0.63132 0.28831 0.0
C373 C 0.1526 0.60292 0.28389 0.0
C374 C 0.19308 0.6488 0.28112 0.0
C375 C 0.20737 0.63798 0.26813 0.0
C376 C 0.19412 0.60957 0.26291 0.0
C377 C 0.16717 0.59233 0.27127 0.0
C378 C 0.20666 0.67891 0.28758 0.0
C379 C 0.20839 0.59738 0.24842 0.0
C380 C 0.26863 0.69159 0.23191 0.0
C381 C 0.29045 0.69608 0.24734 0.0
C382 C 0.24159 0.67156 0.23773 0.0
C383 C 0.23619 0.65657 0.26008 0.0
C384 C 0.25829 0.66077 0.27552 0.0
C385 C 0.28525 0.68015 0.2687 0.0
C386 C 0.21874 0.66697 0.2203 0.0
C387 C 0.25338 0.64593 0.29989 0.0
H388 H 0.15481 0.64013 0.29732 0.0
H389 H 0.15769 0.57048 0.26804 0.0
H390 H 0.22605 0.68531 0.29775 0.0
H391 H 0.21198 0.69134 0.27044 0.0
H392 H 0.19332 0.68376 0.29915 0.0
H393 H 0.1947 0.5752 0.24458 0.0
H394 H 0.21596 0.60833 0.23055 0.0
H395 H 0.2265 0.59996 0.25881 0.0
H396 H 0.27272 0.70386 0.21532 0.0
H397 H 0.30214 0.68389 0.28077 0.0
H398 H 0.20579 0.67441 0.22894 0.0
H399 H 0.20536 0.64474 0.21655 0.0
H400 H 0.22664 0.67782 0.20241 0.0
H401 H 0.24155 0.65188 0.31236 0.0
H402 H 0.27281 0.65068 0.30927 0.0
H403 H 0.24097 0.62345 0.29709 0.0
C404 C 0.56459 0.15938 0.42604 0.0
C405 C 0.55802 0.15221 0.45101 0.0
C406 C 0.57462 0.18647 0.41796 0.0
C407 C 0.57804 0.20687 0.43524 0.0
C408 C 0.57202 0.1999 0.46054 0.0
C409 C 0.56218 0.17271 0.46811 0.0
C410 C 0.58087 0.1931 0.39084 0.0
C411 C 0.57539 0.22103 0.47956 0.0
C412 C 0.62161 0.28285 0.42001 0.0
C413 C 0.6015 0.28955 0.41375 0.0
C414 C 0.61438 0.25586 0.42645 0.0
C415 C 0.58639 0.23515 0.42675 0.0
C416 C 0.56609 0.24168 0.41986 0.0
C417 C 0.57388 0.26874 0.41341 0.0
C418 C 0.63662 0.24963 0.4335 0.0
C419 C 0.53601 0.22023 0.41998 0.0
H420 H 0.56122 0.14365 0.41265 0.0
H421 H 0.55767 0.16749 0.48751 0.0
H422 H 0.56658 0.19925 0.38292 0.0
H423 H 0.60195 0.21069 0.38848 0.0
H424 H 0.57896 0.1754 0.38009 0.0
H425 H 0.57089 0.21255 0.49864 0.0
H426 H 0.59663 0.2387 0.47906 0.0
H427 H 0.56141 0.22899 0.47516 0.0
H428 H 0.64299 0.29879 0.42029 0.0
H429 H 0.55818 0.27368 0.40858 0.0
H430 H 0.63485 0.23233 0.42223 0.0
H431 H 0.63419 0.2432 0.45317 0.0
H432 H 0.65748 0.2676 0.43093 0.0
H433 H 0.53237 0.2026 0.40817 0.0
H434 H 0.52287 0.22841 0.41324 0.0
H435 H 0.52951 0.21232 0.43905 0.0
C436 C 0.41451 0.57253 0.63852 0.0
C437 C 0.42967 0.56742 0.62085 0.0
C438 C 0.39613 0.58123 0.6314 0.0
C439 C 0.39279 0.58489 0.60598 0.0
C440 C 0.40874 0.58071 0.5881 0.0
C441 C 0.42701 0.57203 0.59576 0.0
C442 C 0.37961 0.5856 0.65105 0.0
C443 C 0.40575 0.58438 0.56083 0.0
C444 C 0.32335 0.57489 0.58777 0.0
C445 C 0.32869 0.60198 0.58607 0.0
C446 C 0.34417 0.56913 0.59371 0.0
C447 C 0.37108 0.591 0.59808 0.0
C448 C 0.37682 0.61843 0.59582 0.0
C449 C 0.35554 0.62361 0.58982 0.0
C450 C 0.33719 0.53959 0.59587 0.0
C451 C 0.40529 0.64227 0.60029 0.0
H452 H 0.41684 0.56947 0.65798 0.0
H453 H 0.43852 0.56793 0.582 0.0
H454 H 0.38176 0.60619 0.64902 0.0
H455 H 0.35756 0.57025 0.64878 0.0
H456 H 0.38598 0.58372 0.67007 0.0
H457 H 0.42127 0.58262 0.5495 0.0
H458 H 0.38503 0.56857 0.55452 0.0
H459 H 0.4077 0.60469 0.55734 0.0
H460 H 0.3027 0.55802 0.58482 0.0
H461 H 0.35984 0.64461 0.58853 0.0
H462 H 0.34082 0.5353 0.61511 0.0
H463 H 0.35069 0.5357 0.5836 0.0
H464 H 0.31551 0.52498 0.59094 0.0
H465 H 0.41131 0.64205 0.6198 0.0
H466 H 0.40671 0.66233 0.59653 0.0
H467 H 0.42033 0.64038 0.5884 0.0
C468 C 0.863 0.42509 0.75876 0.0
C469 C 0.87023 0.43222 0.78361 0.0
C470 C 0.83589 0.40617 0.75205 0.0
C471 C 0.81563 0.3938 0.77068 0.0
C472 C 0.82265 0.40162 0.79573 0.0
C473 C 0.84986 0.42086 0.80188 0.0
C474 C 0.82917 0.39866 0.72512 0.0
C475 C 0.80174 0.38869 0.81618 0.0
C476 C 0.73991 0.35433 0.75349 0.0
C477 C 0.73474 0.32724 0.7532 0.0
C478 C 0.76624 0.37633 0.75882 0.0
C479 C 0.78775 0.37102 0.76424 0.0
C480 C 0.78265 0.34373 0.7638 0.0
C481 C 0.75628 0.32223 0.75816 0.0
C482 C 0.77101 0.4052 0.75883 0.0
C483 C 0.80496 0.33716 0.76965 0.0
H484 H 0.87868 0.43408 0.74458 0.0
H485 H 0.85545 0.42614 0.82113 0.0
H486 H 0.82391 0.37707 0.72218 0.0
H487 H 0.81101 0.40022 0.71966 0.0
H488 H 0.84655 0.412 0.71274 0.0
H489 H 0.81 0.39838 0.83445 0.0
H490 H 0.78331 0.39029 0.812 0.0
H491 H 0.79502 0.36655 0.8175 0.0
H492 H 0.72337 0.35836 0.74964 0.0
H493 H 0.75247 0.30136 0.75808 0.0
H494 H 0.78784 0.41815 0.74584 0.0
H495 H 0.77749 0.41434 0.77752 0.0
H496 H 0.75238 0.40596 0.75343 0.0
H497 H 0.82233 0.34806 0.75659 0.0
H498 H 0.79762 0.31484 0.76853 0.0
H499 H 0.813 0.34441 0.78857 0.0
C500 C 0.44866 0.85124 0.97102 0.0
C501 C 0.45817 0.872 0.9531 0.0
C502 C 0.43966 0.82393 0.96436 0.0
C503 C 0.44001 0.81718 0.93914 0.0
C504 C 0.44855 0.83789 0.92087 0.0
C505 C 0.45765 0.86507 0.92808 0.0
C506 C 0.43094 0.80251 0.98443 0.0
C507 C 0.44898 0.8315 0.89379 0.0
C508 C 0.44889 0.75598 0.92544 0.0
C509 C 0.42195 0.73531 0.92028 0.0
C510 C 0.45498 0.78267 0.93143 0.0
C511 C 0.43364 0.78901 0.93213 0.0
C512 C 0.40644 0.76841 0.92652 0.0
C513 C 0.40089 0.74174 0.92073 0.0
C514 C 0.48425 0.804 0.93739 0.0
C515 C 0.38321 0.77448 0.92689 0.0
H516 H 0.44928 0.85654 0.9904 0.0
H517 H 0.46467 0.88101 0.91415 0.0
H518 H 0.4105 0.78471 0.98012 0.0
H519 H 0.44564 0.79486 0.98534 0.0
H520 H 0.43003 0.81068 0.00291 0.0
H521 H 0.45388 0.84937 0.88175 0.0
H522 H 0.46456 0.82528 0.89056 0.0
H523 H 0.42883 0.81405 0.88813 0.0
H524 H 0.46531 0.75123 0.92519 0.0
H525 H 0.38002 0.7259 0.91675 0.0
H526 H 0.48547 0.81177 0.9565 0.0
H527 H 0.49135 0.82175 0.92469 0.0
H528 H 0.49849 0.7958 0.93582 0.0
H529 H 0.38091 0.78084 0.94576 0.0
H530 H 0.36339 0.75648 0.92127 0.0
H531 H 0.38784 0.7918 0.91426 0.0
C532 C 0.59513 0.44713 0.08938 0.0
C533 C 0.58982 0.44912 0.11444 0.0
C534 C 0.61376 0.4387 0.08228 0.0
C535 C 0.62769 0.43247 0.10069 0.0
C536 C 0.62157 0.43339 0.12599 0.0
C537 C 0.60259 0.44157 0.13256 0.0
C538 C 0.61941 0.4376 0.05511 0.0
C539 C 0.63616 0.42718 0.1462 0.0
C540 C 0.6677 0.39657 0.08407 0.0
C541 C 0.69452 0.41884 0.08227 0.0
C542 C 0.64557 0.40065 0.08958 0.0
C543 C 0.65047 0.42758 0.09364 0.0
C544 C 0.67745 0.45013 0.09151 0.0
C545 C 0.69907 0.44549 0.08573 0.0
C546 C 0.61704 0.37615 0.09139 0.0
C547 C 0.68361 0.47918 0.09585 0.0
H548 H 0.58506 0.45269 0.07533 0.0
H549 H 0.59874 0.44335 0.15195 0.0
H550 H 0.64051 0.45416 0.05066 0.0
H551 H 0.61819 0.41781 0.05053 0.0
H552 H 0.6048 0.44013 0.04313 0.0
H553 H 0.62751 0.42668 0.16481 0.0
H554 H 0.63489 0.40716 0.14275 0.0
H555 H 0.6582 0.44309 0.14626 0.0
H556 H 0.664 0.37591 0.08138 0.0
H557 H 0.71971 0.46284 0.08445 0.0
H558 H 0.60294 0.37884 0.07889 0.0
H559 H 0.60912 0.37439 0.1105 0.0
H560 H 0.61645 0.35669 0.08653 0.0
H561 H 0.67144 0.48421 0.08297 0.0
H562 H 0.70567 0.49445 0.09326 0.0
H563 H 0.67759 0.48122 0.11495 0.0
C564 C 0.4202 0.85182 0.51596 0.0
C565 C 0.43052 0.87226 0.53421 0.0
C566 C 0.40172 0.82435 0.52202 0.0
C567 C 0.39352 0.81715 0.54696 0.0
C568 C 0.40489 0.83751 0.56562 0.0
C569 C 0.42316 0.86484 0.559 0.0
C570 C 0.38991 0.80332 0.50155 0.0
C571 C 0.39691 0.83064 0.59245 0.0
C572 C 0.32254 0.75626 0.5583 0.0
C573 C 0.32827 0.73531 0.56386 0.0
C574 C 0.3436 0.78292 0.55288 0.0
C575 C 0.3712 0.78894 0.55319 0.0
C576 C 0.37722 0.76803 0.55916 0.0
C577 C 0.35566 0.7414 0.56433 0.0
C578 C 0.33626 0.80457 0.54649 0.0
C579 C 0.40641 0.77376 0.55989 0.0
H580 H 0.42562 0.85749 0.49674 0.0
H581 H 0.43135 0.88055 0.5732 0.0
H582 H 0.39195 0.78523 0.50615 0.0
H583 H 0.3677 0.79603 0.49957 0.0
H584 H 0.40007 0.81172 0.48347 0.0
H585 H 0.40958 0.84818 0.60493 0.0
H586 H 0.37508 0.82472 0.59492 0.0
H587 H 0.39901 0.81287 0.59818 0.0
H588 H 0.30145 0.75177 0.55782 0.0
H589 H 0.36026 0.72533 0.56864 0.0
H590 H 0.34381 0.81269 0.52765 0.0
H591 H 0.3464 0.82204 0.55957 0.0
H592 H 0.3138 0.79656 0.54712 0.0
H593 H 0.41597 0.78049 0.54137 0.0
H594 H 0.40772 0.75549 0.56554 0.0
H595 H 0.41864 0.79072 0.57301 0.0
C596 C 0.57583 0.41257 0.6824 0.0
C597 C 0.57339 0.43026 0.69916 0.0
C598 C 0.58417 0.39416 0.6903 0.0
C599 C 0.59023 0.39338 0.71562 0.0
C600 C 0.58888 0.41195 0.73247 0.0
C601 C 0.58049 0.4302 0.72403 0.0
C602 C 0.58551 0.37483 0.67169 0.0
C603 C 0.59518 0.41174 0.75959 0.0
C604 C 0.57868 0.32451 0.73776 0.0
C605 C 0.6053 0.32843 0.73724 0.0
C606 C 0.57367 0.34578 0.73156 0.0
C607 C 0.59583 0.37167 0.7246 0.0
C608 C 0.62289 0.37609 0.72486 0.0
C609 C 0.62732 0.35439 0.7312 0.0
C610 C 0.54452 0.34024 0.73164 0.0
C611 C 0.64703 0.40342 0.71761 0.0
H612 H 0.57083 0.41286 0.66307 0.0
H613 H 0.57847 0.4437 0.7371 0.0
H614 H 0.6058 0.37611 0.67254 0.0
H615 H 0.56977 0.35341 0.67621 0.0
H616 H 0.58199 0.37931 0.65246 0.0
H617 H 0.5957 0.42913 0.76981 0.0
H618 H 0.57932 0.39229 0.76811 0.0
H619 H 0.6152 0.41271 0.76193 0.0
H620 H 0.56155 0.30456 0.74252 0.0
H621 H 0.64796 0.3576 0.73077 0.0
H622 H 0.53831 0.34192 0.71253 0.0
H623 H 0.54294 0.35577 0.74308 0.0
H624 H 0.52981 0.31953 0.7389 0.0
H625 H 0.64543 0.40743 0.69775 0.0
H626 H 0.66692 0.40422 0.72064 0.0
H627 H 0.64694 0.42018 0.72834 0.0
C628 C 0.15836 0.57122 0.88808 0.0
C629 C 0.15094 0.56634 0.86302 0.0
C630 C 0.18535 0.57988 0.89566 0.0
C631 C 0.20536 0.5838 0.87774 0.0
C632 C 0.1982 0.57986 0.85235 0.0
C633 C 0.1711 0.57117 0.84532 0.0
C634 C 0.19218 0.58382 0.9229 0.0
C635 C 0.21895 0.58396 0.83265 0.0
C636 C 0.28149 0.6227 0.89341 0.0
C637 C 0.28674 0.60112 0.89725 0.0
C638 C 0.25496 0.61745 0.88756 0.0
C639 C 0.23323 0.58999 0.88556 0.0
C640 C 0.23832 0.56818 0.89004 0.0
C641 C 0.26497 0.574 0.8958 0.0
C642 C 0.25029 0.64123 0.88294 0.0
C643 C 0.21573 0.53861 0.88817 0.0
H644 H 0.14284 0.56735 0.90186 0.0
H645 H 0.16558 0.5679 0.82589 0.0
H646 H 0.19713 0.56809 0.92931 0.0
H647 H 0.21055 0.60418 0.92623 0.0
H648 H 0.17496 0.58217 0.93426 0.0
H649 H 0.21057 0.58185 0.81366 0.0
H650 H 0.23741 0.60456 0.83449 0.0
H651 H 0.22564 0.56862 0.83506 0.0
H652 H 0.29819 0.64371 0.8945 0.0
H653 H 0.26879 0.55718 0.89883 0.0
H654 H 0.23344 0.63947 0.89487 0.0
H655 H 0.24392 0.6408 0.86345 0.0
H656 H 0.26896 0.66134 0.88654 0.0
H657 H 0.19843 0.53489 0.90048 0.0
H658 H 0.22283 0.52406 0.89323 0.0
H659 H 0.20768 0.53407 0.86897 0.0
C660 C 0.59515 0.16297 0.05522 0.0
C661 C 0.60249 0.152 0.03533 0.0
C662 C 0.61237 0.19023 0.06282 0.0
C663 C 0.63709 0.20694 0.0498 0.0
C664 C 0.64401 0.1961 0.02913 0.0
C665 C 0.62676 0.16863 0.02234 0.0
C666 C 0.60458 0.20086 0.08524 0.0
C667 C 0.66986 0.21336 0.01442 0.0
C668 C 0.67463 0.28468 0.0558 0.0
C669 C 0.69705 0.28946 0.07056 0.0
C670 C 0.65448 0.25785 0.04935 0.0
C671 C 0.65654 0.23533 0.05838 0.0
C672 C 0.67839 0.24007 0.07436 0.0
C673 C 0.69857 0.26708 0.07999 0.0
C674 C 0.6318 0.25367 0.03189 0.0
C675 C 0.68098 0.21663 0.08487 0.0
H676 H 0.57637 0.14993 0.06527 0.0
H677 H 0.63223 0.16006 0.00684 0.0
H678 H 0.62013 0.20612 0.09999 0.0
H679 H 0.60435 0.21991 0.08056 0.0
H680 H 0.58416 0.18563 0.0927 0.0
H681 H 0.6712 0.20245 0.9978 0.0
H682 H 0.67081 0.23265 0.00839 0.0
H683 H 0.68806 0.21911 0.02621 0.0
H684 H 0.6735 0.30195 0.04834 0.0
H685 H 0.71577 0.2707 0.09157 0.0
H686 H 0.61153 0.23873 0.03974 0.0
H687 H 0.63405 0.24499 0.01418 0.0
H688 H 0.63199 0.27311 0.02788 0.0
H689 H 0.66139 0.2013 0.09358 0.0
H690 H 0.69759 0.22365 0.09887 0.0
H691 H 0.68543 0.20609 0.06974 0.0
C692 C 0.48024 0.6327 0.19673 0.0
C693 C 0.46606 0.60432 0.20134 0.0
C694 C 0.46977 0.64946 0.20444 0.0
C695 C 0.44504 0.63794 0.21812 0.0
C696 C 0.43094 0.60956 0.22352 0.0
C697 C 0.44128 0.59303 0.21465 0.0
C698 C 0.48514 0.67955 0.19777 0.0
C699 C 0.40495 0.59665 0.23872 0.0
C700 C 0.43626 0.6906 0.25484 0.0
C701 C 0.41802 0.69419 0.23986 0.0
C702 C 0.44393 0.67111 0.24877 0.0
C703 C 0.43404 0.65575 0.22662 0.0
C704 C 0.41513 0.65893 0.21172 0.0
C705 C 0.40694 0.67778 0.21879 0.0
C706 C 0.46327 0.66758 0.26566 0.0
C707 C 0.40482 0.64367 0.18756 0.0
H708 H 0.49974 0.64206 0.18716 0.0
H709 H 0.42967 0.57117 0.21803 0.0
H710 H 0.47129 0.68515 0.18804 0.0
H711 H 0.4924 0.69217 0.21481 0.0
H712 H 0.50314 0.68497 0.18572 0.0
H713 H 0.3974 0.57465 0.24265 0.0
H714 H 0.40853 0.60772 0.25656 0.0
H715 H 0.38864 0.59836 0.22882 0.0
H716 H 0.44474 0.70326 0.27119 0.0
H717 H 0.39311 0.68084 0.20704 0.0
H718 H 0.48353 0.67576 0.25656 0.0
H719 H 0.45538 0.6455 0.2694 0.0
H720 H 0.46627 0.67841 0.28358 0.0
H721 H 0.42227 0.6502 0.17456 0.0
H722 H 0.38922 0.64747 0.17871 0.0
H723 H 0.39572 0.62131 0.19049 0.0
C724 C 0.85222 0.44284 0.34831 0.0
C725 C 0.87241 0.44989 0.36648 0.0
C726 C 0.82508 0.4348 0.35483 0.0
C727 C 0.81794 0.43346 0.38015 0.0
C728 C 0.83799 0.43928 0.39859 0.0
C729 C 0.86504 0.44764 0.39152 0.0
C730 C 0.80442 0.4291 0.33461 0.0
C731 C 0.83112 0.43771 0.42577 0.0
C732 C 0.75969 0.4462 0.39646 0.0
C733 C 0.73763 0.41949 0.39975 0.0
C734 C 0.78585 0.45093 0.39012 0.0
C735 C 0.79024 0.42843 0.38728 0.0
C736 C 0.76822 0.40141 0.39103 0.0
C737 C 0.74209 0.39724 0.39706 0.0
C738 C 0.80871 0.48006 0.38608 0.0
C739 C 0.77223 0.37695 0.3885 0.0
H740 H 0.85793 0.44481 0.32893 0.0
H741 H 0.88058 0.45282 0.40559 0.0
H742 H 0.78565 0.409 0.33769 0.0
H743 H 0.79826 0.44499 0.335 0.0
H744 H 0.81269 0.42907 0.31593 0.0
H745 H 0.84823 0.44013 0.43772 0.0
H746 H 0.82644 0.4541 0.43052 0.0
H747 H 0.81259 0.41779 0.43008 0.0
H748 H 0.75643 0.46352 0.39838 0.0
H749 H 0.72516 0.37655 0.39961 0.0
H750 H 0.81684 0.48237 0.36698 0.0
H751 H 0.82588 0.48495 0.39897 0.0
H752 H 0.80187 0.49526 0.38891 0.0
H753 H 0.7787 0.37582 0.36935 0.0
H754 H 0.75326 0.35736 0.39282 0.0
H755 H 0.78881 0.37922 0.40106 0.0
C756 C 0.14776 0.56903 0.40869 0.0
C757 C 0.12033 0.55699 0.41633 0.0
C758 C 0.16918 0.5792 0.42605 0.0
C759 C 0.16298 0.57724 0.45162 0.0
C760 C 0.1353 0.56455 0.45944 0.0
C761 C 0.11433 0.55459 0.44171 0.0
C762 C 0.19845 0.59264 0.41702 0.0
C763 C 0.12783 0.56195 0.48655 0.0
C764 C 0.21418 0.58419 0.50087 0.0
C765 C 0.2234 0.61088 0.50963 0.0
C766 C 0.19524 0.57326 0.48135 0.0
C767 C 0.18533 0.58942 0.47032 0.0
C768 C 0.19544 0.61674 0.47836 0.0
C769 C 0.21432 0.62713 0.49791 0.0
C770 C 0.18502 0.54408 0.47319 0.0
C771 C 0.18546 0.63467 0.467 0.0
H772 H 0.15253 0.57118 0.38909 0.0
H773 H 0.09315 0.54492 0.44772 0.0
H774 H 0.20945 0.61463 0.42232 0.0
H775 H 0.2093 0.58303 0.42592 0.0
H776 H 0.19975 0.59115 0.39661 0.0
H777 H 0.1053 0.55069 0.48956 0.0
H778 H 0.13679 0.55106 0.49651 0.0
H779 H 0.13653 0.58263 0.49493 0.0
H780 H 0.2211 0.57148 0.50974 0.0
H781 H 0.22142 0.64782 0.50441 0.0
H782 H 0.18691 0.54313 0.45282 0.0
H783 H 0.16296 0.53126 0.47785 0.0
H784 H 0.19639 0.53502 0.48218 0.0
H785 H 0.1877 0.63516 0.44657 0.0
H786 H 0.19677 0.65603 0.47412 0.0
H787 H 0.16334 0.62599 0.4711 0.0
C788 C 0.55847 0.11324 0.60927 0.0
C789 C 0.56166 0.1201 0.58409 0.0
C790 C 0.56983 0.13362 0.62756 0.0
C791 C 0.58455 0.16157 0.6205 0.0
C792 C 0.58791 0.16864 0.59508 0.0
C793 C 0.57652 0.14779 0.57716 0.0
C794 C 0.56599 0.12523 0.65446 0.0
C795 C 0.60324 0.19821 0.58685 0.0
C796 C 0.58964 0.21198 0.6698 0.0
C797 C 0.61573 0.22073 0.6798 0.0
C798 C 0.57961 0.19345 0.64993 0.0
C799 C 0.59601 0.1833 0.63985 0.0
C800 C 0.6227 0.19272 0.64927 0.0
C801 C 0.63227 0.21137 0.66909 0.0
C802 C 0.55111 0.18404 0.64028 0.0
C803 C 0.64079 0.18235 0.63901 0.0
H804 H 0.54729 0.09184 0.61468 0.0
H805 H 0.57879 0.15315 0.55769 0.0
H806 H 0.58624 0.13352 0.6636 0.0
H807 H 0.55475 0.13398 0.66419 0.0
H808 H 0.55446 0.1026 0.65683 0.0
H809 H 0.60432 0.20025 0.56637 0.0
H810 H 0.59305 0.20922 0.5943 0.0
H811 H 0.62441 0.20854 0.59433 0.0
H812 H 0.57673 0.21918 0.67782 0.0
H813 H 0.65246 0.21801 0.67664 0.0
H814 H 0.5377 0.16183 0.64404 0.0
H815 H 0.55161 0.18684 0.61993 0.0
H816 H 0.54175 0.19532 0.64893 0.0
H817 H 0.63129 0.16005 0.64267 0.0
H818 H 0.66162 0.19297 0.6473 0.0
H819 H 0.64275 0.18517 0.61864 0.0
C820 C 0.46718 0.56516 0.77654 0.0
C821 C 0.46608 0.57007 0.75125 0.0
C822 C 0.45682 0.57575 0.79435 0.0
C823 C 0.44498 0.59158 0.7867 0.0
C824 C 0.44403 0.59683 0.76121 0.0
C825 C 0.45464 0.58605 0.74378 0.0
C826 C 0.45836 0.5698 0.82137 0.0
C827 C 0.43143 0.61347 0.75233 0.0
C828 C 0.3951 0.59424 0.83235 0.0
C829 C 0.41169 0.61933 0.8444 0.0
C830 C 0.40543 0.58541 0.81297 0.0
C831 C 0.43305 0.60199 0.80547 0.0
C832 C 0.44963 0.62777 0.81691 0.0
C833 C 0.43874 0.63615 0.83621 0.0
C834 C 0.38703 0.55786 0.80112 0.0
C835 C 0.47917 0.64605 0.80938 0.0
H836 H 0.47632 0.55313 0.78242 0.0
H837 H 0.45347 0.58965 0.72423 0.0
H838 H 0.46963 0.58929 0.83186 0.0
H839 H 0.43739 0.55827 0.82928 0.0
H840 H 0.46872 0.55765 0.82428 0.0
H841 H 0.43292 0.61629 0.73193 0.0
H842 H 0.40949 0.60317 0.75772 0.0
H843 H 0.44172 0.63395 0.76128 0.0
H844 H 0.37413 0.58114 0.83841 0.0
H845 H 0.45173 0.65558 0.84535 0.0
H846 H 0.39495 0.54377 0.80516 0.0
H847 H 0.38702 0.56002 0.78072 0.0
H848 H 0.36557 0.5483 0.8079 0.0
H849 H 0.49113 0.63584 0.81386 0.0
H850 H 0.48876 0.66623 0.81891 0.0
H851 H 0.48066 0.64955 0.7891 0.0
C852 C 0.87707 0.43669 0.90966 0.0
C853 C 0.90444 0.45479 0.91621 0.0
C854 C 0.85617 0.42644 0.92757 0.0
C855 C 0.86284 0.4344 0.95262 0.0
C856 C 0.89045 0.45255 0.95934 0.0
C857 C 0.91089 0.46253 0.94106 0.0
C858 C 0.82696 0.40724 0.91968 0.0
C859 C 0.89845 0.46138 0.98587 0.0
C860 C 0.80933 0.42978 0.99831 0.0
C861 C 0.80353 0.40621 0.01183 0.0
C862 C 0.82792 0.4387 0.97844 0.0
C863 C 0.84109 0.42375 0.97197 0.0
C864 C 0.83466 0.39946 0.985 0.0
C865 C 0.81595 0.39097 0.00473 0.0
C866 C 0.83414 0.46462 0.96489 0.0
C867 C 0.84825 0.38294 0.97865 0.0
H868 H 0.87194 0.43088 0.89043 0.0
H869 H 0.93205 0.47621 0.94628 0.0
H870 H 0.81867 0.38748 0.92971 0.0
H871 H 0.81391 0.41615 0.92458 0.0
H872 H 0.82519 0.40305 0.89946 0.0
H873 H 0.92083 0.47561 0.98802 0.0
H874 H 0.88738 0.4717 0.99285 0.0
H875 H 0.89242 0.44314 0.99771 0.0
H876 H 0.79979 0.44165 0.00355 0.0
H877 H 0.81158 0.37269 0.01498 0.0
H878 H 0.83148 0.46077 0.94467 0.0
H879 H 0.85583 0.48056 0.96807 0.0
H880 H 0.82079 0.47281 0.97103 0.0
H881 H 0.8457 0.37769 0.95868 0.0
H882 H 0.83978 0.36367 0.98954 0.0
H883 H 0.87058 0.39535 0.98233 0.0
C884 C 0.47533 0.90898 0.11044 0.0
C885 C 0.47752 0.90344 0.08549 0.0
C886 C 0.46439 0.88795 0.1281 0.0
C887 C 0.45561 0.86066 0.12072 0.0
C888 C 0.45846 0.85498 0.09571 0.0
C889 C 0.46932 0.87644 0.07836 0.0
C890 C 0.4617 0.89488 0.1546 0.0
C891 C 0.44947 0.82617 0.08718 0.0
C892 C 0.44623 0.81224 0.17353 0.0
C893 C 0.41802 0.80019 0.17827 0.0
C894 C 0.45859 0.83104 0.15407 0.0
C895 C 0.44241 0.83809 0.13914 0.0
C896 C 0.41378 0.82514 0.14317 0.0
C897 C 0.40192 0.80628 0.1626 0.0
C898 C 0.48914 0.84417 0.15015 0.0
C899 C 0.39582 0.83218 0.1277 0.0
H900 H 0.48211 0.92986 0.11619 0.0
H901 H 0.47071 0.87195 0.05908 0.0
H902 H 0.43979 0.88391 0.16013 0.0
H903 H 0.47262 0.88795 0.16714 0.0
H904 H 0.47008 0.91722 0.15742 0.0
H905 H 0.45463 0.82543 0.06745 0.0
H906 H 0.45929 0.81716 0.09868 0.0
H907 H 0.42698 0.81306 0.08954 0.0
H908 H 0.45882 0.80753 0.18541 0.0
H909 H 0.38011 0.79705 0.16604 0.0
H910 H 0.49922 0.86626 0.155 0.0
H911 H 0.49372 0.84281 0.1304 0.0
H912 H 0.49832 0.83447 0.16162 0.0
H913 H 0.4015 0.85383 0.13109 0.0
H914 H 0.3737 0.81885 0.132 0.0
H915 H 0.39905 0.83021 0.10773 0.0
C916 C 0.56124 0.44574 0.26113 0.0
C917 C 0.57922 0.46873 0.24694 0.0
C918 C 0.571 0.43533 0.27959 0.0
C919 C 0.59957 0.44724 0.28327 0.0
C920 C 0.61797 0.46947 0.26825 0.0
C921 C 0.6076 0.48032 0.25067 0.0
C922 C 0.55064 0.41206 0.29566 0.0
C923 C 0.64861 0.48213 0.27103 0.0
C924 C 0.62381 0.44006 0.34685 0.0
C925 C 0.62612 0.4166 0.34384 0.0
C926 C 0.61526 0.45028 0.32724 0.0
C927 C 0.61001 0.43736 0.30379 0.0
C928 C 0.61346 0.4143 0.3004 0.0
C929 C 0.62087 0.40378 0.32068 0.0
C930 C 0.61085 0.47425 0.33189 0.0
C931 C 0.60916 0.40069 0.27544 0.0
H932 H 0.53935 0.43582 0.25802 0.0
H933 H 0.62189 0.49824 0.24023 0.0
H934 H 0.55372 0.39416 0.29395 0.0
H935 H 0.55396 0.41846 0.31538 0.0
H936 H 0.52906 0.40544 0.29074 0.0
H937 H 0.66004 0.4969 0.25596 0.0
H938 H 0.65526 0.49309 0.28897 0.0
H939 H 0.65435 0.46592 0.27109 0.0
H940 H 0.62763 0.44977 0.36488 0.0
H941 H 0.62287 0.38572 0.3184 0.0
H942 H 0.58918 0.46812 0.32797 0.0
H943 H 0.62385 0.49142 0.31927 0.0
H944 H 0.61565 0.4818 0.35127 0.0
H945 H 0.58726 0.39095 0.2701 0.0
H946 H 0.61526 0.38474 0.27536 0.0
H947 H 0.62118 0.41623 0.2611 0.0
C948 C 0.46344 0.89806 0.38811 0.0
C949 C 0.44542 0.90378 0.40145 0.0
C950 C 0.45387 0.87797 0.36952 0.0
C951 C 0.42541 0.86217 0.3648 0.0
C952 C 0.40692 0.86683 0.37886 0.0
C953 C 0.41715 0.88791 0.3966 0.0
C954 C 0.47436 0.87415 0.3545 0.0
C955 C 0.37634 0.84979 0.37494 0.0
C956 C 0.40284 0.83039 0.30102 0.0
C957 C 0.39918 0.80416 0.3047 0.0
C958 C 0.41134 0.84945 0.32044 0.0
C959 C 0.4152 0.84167 0.34436 0.0
C960 C 0.41042 0.81476 0.34839 0.0
C961 C 0.40305 0.79648 0.32834 0.0
C962 C 0.41717 0.87821 0.31514 0.0
C963 C 0.41325 0.80536 0.37381 0.0
H964 H 0.48519 0.90935 0.39204 0.0
H965 H 0.40286 0.89216 0.40632 0.0
H966 H 0.47045 0.85291 0.35661 0.0
H967 H 0.47204 0.87728 0.33456 0.0
H968 H 0.49587 0.88861 0.36006 0.0
H969 H 0.36462 0.85392 0.38918 0.0
H970 H 0.37092 0.85425 0.35647 0.0
H971 H 0.36973 0.82763 0.37535 0.0
H972 H 0.40013 0.83639 0.28264 0.0
H973 H 0.40004 0.7761 0.33117 0.0
H974 H 0.43888 0.89315 0.31961 0.0
H975 H 0.40423 0.88324 0.32702 0.0
H976 H 0.41335 0.881 0.29548 0.0
H977 H 0.43495 0.81697 0.37985 0.0
H978 H 0.40639 0.78312 0.37425 0.0
H979 H 0.40104 0.80955 0.38744 0.0
C980 C 0.58138 0.47349 0.54745 0.0
C981 C 0.5658 0.45685 0.56713 0.0
C982 C 0.59126 0.46322 0.5289 0.0
C983 C 0.586 0.43589 0.5305 0.0
C984 C 0.5708 0.41923 0.55076 0.0
C985 C 0.56053 0.42983 0.56869 0.0
C986 C 0.60684 0.48143 0.50732 0.0
C987 C 0.56535 0.39024 0.55344 0.0
C988 C 0.58828 0.40155 0.47074 0.0
C989 C 0.61519 0.40625 0.47091 0.0
C990 C 0.57844 0.41084 0.49015 0.0
C991 C 0.5957 0.42456 0.51053 0.0
C992 C 0.62255 0.42844 0.51126 0.0
C993 C 0.63212 0.41957 0.49126 0.0
C994 C 0.54989 0.40683 0.48841 0.0
C995 C 0.64131 0.44235 0.53298 0.0
H996 H 0.58527 0.49436 0.5463 0.0
H997 H 0.54861 0.41712 0.5841 0.0
H998 H 0.62758 0.48381 0.50618 0.0
H999 H 0.59608 0.47181 0.48977 0.0
H1000 H 0.60904 0.50212 0.50879 0.0
H1001 H 0.55455 0.38056 0.57098 0.0
H1002 H 0.55267 0.37755 0.53774 0.0
H1003 H 0.58495 0.39007 0.55287 0.0
H1004 H 0.57516 0.39147 0.45496 0.0
H1005 H 0.65288 0.42309 0.49154 0.0
H1006 H 0.55103 0.42708 0.48822 0.0
H1007 H 0.53765 0.39555 0.50484 0.0
H1008 H 0.5389 0.39535 0.47151 0.0
H1009 H 0.64635 0.46404 0.53406 0.0
H1010 H 0.66075 0.44188 0.5316 0.0
H1011 H 0.63086 0.43228 0.55051 0.0
C1012 C 0.11229 0.56394 0.70695 0.0
C1013 C 0.11834 0.56905 0.73223 0.0
C1014 C 0.13317 0.57472 0.6891 0.0
C1015 C 0.16082 0.59096 0.69668 0.0
C1016 C 0.16707 0.59639 0.72216 0.0
C1017 C 0.14575 0.5854 0.73963 0.0
C1018 C 0.12563 0.56856 0.6621 0.0
C1019 C 0.19631 0.61347 0.73096 0.0
C1020 C 0.21367 0.59449 0.65096 0.0
C1021 C 0.22172 0.61945 0.63887 0.0
C1022 C 0.19456 0.58543 0.67037 0.0
C1023 C 0.18311 0.60165 0.67787 0.0
C1024 C 0.19184 0.62731 0.66638 0.0
C1025 C 0.21108 0.63593 0.64704 0.0
C1026 C 0.18591 0.55803 0.68226 0.0
C1027 C 0.18012 0.64519 0.67391 0.0
H1028 H 0.09112 0.55163 0.70111 0.0
H1029 H 0.15056 0.58916 0.75917 0.0
H1030 H 0.13347 0.58797 0.65157 0.0
H1031 H 0.13539 0.55734 0.65418 0.0
H1032 H 0.10312 0.55604 0.65924 0.0
H1033 H 0.19767 0.61633 0.75136 0.0
H1034 H 0.20826 0.60351 0.72552 0.0
H1035 H 0.20614 0.63393 0.72201 0.0
H1036 H 0.22186 0.58166 0.6449 0.0
H1037 H 0.21717 0.65525 0.63787 0.0
H1038 H 0.16395 0.54362 0.67827 0.0
H1039 H 0.18812 0.56028 0.70266 0.0
H1040 H 0.1981 0.54878 0.67548 0.0
H1041 H 0.15792 0.63461 0.66949 0.0
H1042 H 0.19037 0.66534 0.66432 0.0
H1043 H 0.18216 0.64878 0.69418 0.0
C1044 C 0.55781 0.11385 0.88138 0.0
C1045 C 0.56748 0.12032 0.90574 0.0
C1046 C 0.56701 0.13416 0.86304 0.0
C1047 C 0.58619 0.16167 0.86928 0.0
C1048 C 0.59559 0.16845 0.89397 0.0
C1049 C 0.58623 0.14765 0.9119 0.0
C1050 C 0.55671 0.12606 0.83686 0.0
C1051 C 0.61581 0.19759 0.90137 0.0
C1052 C 0.63003 0.20669 0.81652 0.0
C1053 C 0.61592 0.22031 0.80962 0.0
C1054 C 0.62091 0.18804 0.83626 0.0
C1055 C 0.59723 0.18303 0.84963 0.0
C1056 C 0.58344 0.19741 0.84337 0.0
C1057 C 0.59287 0.2158 0.82336 0.0
C1058 C 0.63611 0.173 0.84228 0.0
C1059 C 0.55831 0.19284 0.85741 0.0
H1060 H 0.54355 0.0927 0.8765 0.0
H1061 H 0.5935 0.15275 0.9308 0.0
H1062 H 0.5474 0.13821 0.83027 0.0
H1063 H 0.57414 0.13064 0.82437 0.0
H1064 H 0.54125 0.10392 0.83523 0.0
H1065 H 0.62004 0.19965 0.92157 0.0
H1066 H 0.63543 0.20474 0.89135 0.0
H1067 H 0.60788 0.21137 0.89608 0.0
H1068 H 0.64786 0.21 0.80606 0.0
H1069 H 0.58191 0.22632 0.81825 0.0
H1070 H 0.62246 0.15068 0.83921 0.0
H1071 H 0.64216 0.17587 0.86206 0.0
H1072 H 0.65481 0.18006 0.83078 0.0
H1073 H 0.54144 0.17146 0.85457 0.0
H1074 H 0.55111 0.20704 0.8514 0.0
H1075 H 0.56266 0.1956 0.87755 0.0
C1076 C 0.45436 0.55546 0.0422 0.0
C1077 C 0.4511 0.55832 0.06756 0.0
C1078 C 0.44301 0.56497 0.0244 0.0
C1079 C 0.42798 0.57764 0.03214 0.0
C1080 C 0.42396 0.57995 0.0577 0.0
C1081 C 0.43558 0.57025 0.07513 0.0
C1082 C 0.44767 0.56202 0.99731 0.0
C1083 C 0.40806 0.59334 0.06663 0.0
C1084 C 0.42635 0.62701 0.98544 0.0
C1085 C 0.40103 0.61061 0.97374 0.0
C1086 C 0.43488 0.61684 0.00512 0.0
C1087 C 0.4177 0.5896 0.01334 0.0
C1088 C 0.39162 0.57331 0.00235 0.0
C1089 C 0.38359 0.584 0.98267 0.0
C1090 C 0.46281 0.63491 0.01642 0.0
C1091 C 0.37269 0.54421 0.01071 0.0
H1092 H 0.46594 0.54585 0.03624 0.0
H1093 H 0.4332 0.57273 0.09471 0.0
H1094 H 0.42775 0.55102 0.98746 0.0
H1095 H 0.45961 0.5826 0.98874 0.0
H1096 H 0.45892 0.55073 0.99438 0.0
H1097 H 0.40525 0.59191 0.08704 0.0
H1098 H 0.41901 0.61531 0.06131 0.0
H1099 H 0.3876 0.58366 0.0577 0.0
H1100 H 0.43993 0.64764 0.97882 0.0
H1101 H 0.36395 0.57119 0.97382 0.0
H1102 H 0.47627 0.62622 0.01244 0.0
H1103 H 0.46111 0.63562 0.03683 0.0
H1104 H 0.47284 0.65621 0.00915 0.0
H1105 H 0.38189 0.53134 0.00611 0.0
H1106 H 0.35221 0.53509 0.00179 0.0
H1107 H 0.36997 0.54346 0.03109 0.0
C1108 C 0.8778 0.457 0.24243 0.0
C1109 C 0.90512 0.46748 0.23499 0.0
C1110 C 0.85635 0.44588 0.22508 0.0
C1111 C 0.86242 0.44533 0.19972 0.0
C1112 C 0.88999 0.45616 0.1921 0.0
C1113 C 0.91098 0.46709 0.20982 0.0
C1114 C 0.8272 0.43447 0.2339 0.0
C1115 C 0.89734 0.45612 0.16522 0.0
C1116 C 0.80936 0.39507 0.15459 0.0
C1117 C 0.80218 0.41207 0.1415 0.0
C1118 C 0.82816 0.40538 0.17425 0.0
C1119 C 0.84008 0.43334 0.18098 0.0
C1120 C 0.83207 0.45032 0.16854 0.0
C1121 C 0.81322 0.43948 0.14897 0.0
C1122 C 0.83609 0.3866 0.18717 0.0
C1123 C 0.84426 0.48023 0.17521 0.0
H1124 H 0.87313 0.45699 0.2619 0.0
H1125 H 0.93208 0.47551 0.20394 0.0
H1126 H 0.81759 0.44496 0.22433 0.0
H1127 H 0.81496 0.41236 0.22919 0.0
H1128 H 0.82597 0.43685 0.2542 0.0
H1129 H 0.9198 0.46551 0.16234 0.0
H1130 H 0.8871 0.43478 0.15809 0.0
H1131 H 0.8899 0.46758 0.154 0.0
H1132 H 0.80089 0.37385 0.14906 0.0
H1133 H 0.80773 0.45278 0.13908 0.0
H1134 H 0.83402 0.3876 0.2075 0.0
H1135 H 0.85792 0.3934 0.18325 0.0
H1136 H 0.82337 0.36493 0.18111 0.0
H1137 H 0.84228 0.48252 0.19538 0.0
H1138 H 0.83431 0.4901 0.1651 0.0
H1139 H 0.86646 0.4914 0.17075 0.0
loop_
_geom_bond_atom_site_label_1
_geom_bond_atom_site_label_2
_geom_bond_distance
_geom_bond_site_symmetry_2
_ccdc_geom_bond_type
H0 C19 0.949 . S
H1 C20 0.950 . S
H2 C22 0.950 . S
H3 C23 0.950 . S
H4 C25 0.950 . S
H5 C28 0.950 . S
H6 C29 0.950 . S
H7 C31 0.951 . S
H8 C32 0.949 . S
H9 C34 0.949 . S
H10 C35 0.950 . S
H11 C37 0.950 . S
H12 C38 0.950 . S
H13 C40 0.950 1_655 S
H14 C43 0.950 . S
H15 C44 0.950 . S
H16 C46 0.951 . S
H17 C47 0.949 . S
C18 C19 1.376 . S
C18 C23 1.386 . S
C18 C24 1.483 . S
C19 H0 0.949 . S
C19 C18 1.376 . S
C19 C20 1.397 . S
C20 H1 0.950 . S
C20 C19 1.397 . S
C20 C21 1.391 . S
C21 C20 1.391 . S
C21 C22 1.405 . S
C22 H2 0.950 . S
C22 C21 1.405 . S
C22 C23 1.367 . S
C23 H3 0.950 . S
C23 C18 1.386 . S
C23 C22 1.367 . S
C24 C18 1.483 . S
C24 C25 1.382 1_655 S
C24 C26 1.403 . S
C25 H4 0.950 . S
C25 C24 1.382 1_455 S
C25 C41 1.411 . S
C26 C24 1.403 . S
C26 C27 1.489 . S
C26 C40 1.411 1_655 S
C27 C26 1.489 . S
C27 C28 1.383 . S
C27 C32 1.382 . S
C28 H5 0.950 . S
C28 C27 1.383 . S
C28 C29 1.395 . S
C29 H6 0.950 . S
C29 C28 1.395 . S
C29 C30 1.288 . S
C30 C29 1.288 . S
C30 C31 1.392 . S
C31 H7 0.951 . S
C31 C30 1.392 . S
C31 C32 1.392 . S
C32 H8 0.949 . S
C32 C27 1.382 . S
C32 C31 1.392 . S
C33 C34 1.376 . S
C33 C38 1.386 . S
C33 C39 1.483 . S
C34 H9 0.949 . S
C34 C33 1.376 . S
C34 C35 1.397 . S
C35 H10 0.950 . S
C35 C34 1.397 . S
C35 C36 1.391 . S
C36 C35 1.391 . S
C36 C37 1.405 . S
C37 H11 0.950 . S
C37 C36 1.405 . S
C37 C38 1.367 . S
C38 H12 0.950 . S
C38 C33 1.386 . S
C38 C37 1.367 . S
C39 C33 1.483 . S
C39 C40 1.382 . S
C39 C41 1.403 . S
C40 H13 0.950 1_455 S
C40 C26 1.411 1_455 S
C40 C39 1.382 . S
C41 C25 1.411 . S
C41 C39 1.403 . S
C41 C42 1.489 . S
C42 C41 1.489 . S
C42 C43 1.383 . S
C42 C47 1.382 . S
C43 H14 0.950 . S
C43 C42 1.383 . S
C43 C44 1.395 . S
C44 H15 0.950 . S
C44 C43 1.395 . S
C44 C45 1.288 . S
C45 C44 1.288 . S
C45 C46 1.392 . S
C46 H16 0.951 . S
C46 C45 1.392 . S
C46 C47 1.392 . S
C47 H17 0.949 . S
C47 C42 1.382 . S
C47 C46 1.392 . S
H48 C67 0.949 . S
H49 C68 0.950 . S
H50 C70 0.950 . S
H51 C71 0.950 . S
H52 C73 0.950 1_565 S
H53 C76 0.950 . S
H54 C77 0.950 . S
H55 C79 0.951 . S
H56 C80 0.949 . S
H57 C82 0.949 . S
H58 C83 0.950 . S
H59 C85 0.950 . S
H60 C86 0.950 . S
H61 C88 0.950 . S
H62 C91 0.950 . S
H63 C92 0.950 . S
H64 C94 0.951 . S
H65 C95 0.949 . S
C66 C67 1.376 . S
C66 C71 1.386 . S
C66 C72 1.483 . S
C67 H48 0.949 . S
C67 C66 1.376 . S
C67 C68 1.397 . S
C68 H49 0.950 . S
C68 C67 1.397 . S
C68 C69 1.391 . S
C69 C68 1.391 . S
C69 C70 1.405 . S
C70 H50 0.950 . S
C70 C69 1.405 . S
C70 C71 1.367 . S
C71 H51 0.950 . S
C71 C66 1.386 . S
C71 C70 1.367 . S
C72 C66 1.483 . S
C72 C73 1.382 1_565 S
C72 C74 1.403 . S
C73 H52 0.950 1_545 S
C73 C72 1.382 1_545 S
C73 C89 1.411 . S
C74 C72 1.403 . S
C74 C75 1.489 . S
C74 C88 1.411 1_565 S
C75 C74 1.489 . S
C75 C76 1.383 . S
C75 C80 1.382 . S
C76 H53 0.950 . S
C76 C75 1.383 . S
C76 C77 1.395 . S
C77 H54 0.950 . S
C77 C76 1.395 . S
C77 C78 1.288 . S
C78 C77 1.288 . S
C78 C79 1.392 . S
C79 H55 0.951 . S
C79 C78 1.392 . S
C79 C80 1.392 . S
C80 H56 0.949 . S
C80 C75 1.382 . S
C80 C79 1.392 . S
C81 C82 1.376 . S
C81 C86 1.386 . S
C81 C87 1.483 . S
C82 H57 0.949 . S
C82 C81 1.376 . S
C82 C83 1.397 . S
C83 H58 0.950 . S
C83 C82 1.397 . S
C83 C84 1.391 . S
C84 C83 1.391 . S
C84 C85 1.405 . S
C85 H59 0.950 . S
C85 C84 1.405 . S
C85 C86 1.367 . S
C86 H60 0.950 . S
C86 C81 1.386 . S
C86 C85 1.367 . S
C87 C81 1.483 . S
C87 C88 1.382 . S
C87 C89 1.403 . S
C88 H61 0.950 . S
C88 C74 1.411 1_545 S
C88 C87 1.382 . S
C89 C73 1.411 . S
C89 C87 1.403 . S
C89 C90 1.489 . S
C90 C89 1.489 . S
C90 C91 1.383 . S
C90 C95 1.382 . S
C91 H62 0.950 . S
C91 C90 1.383 . S
C91 C92 1.395 . S
C92 H63 0.950 . S
C92 C91 1.395 . S
C92 C93 1.288 . S
C93 C92 1.288 . S
C93 C94 1.392 . S
C94 H64 0.951 . S
C94 C93 1.392 . S
C94 C95 1.392 . S
C95 H65 0.949 . S
C95 C90 1.382 . S
C95 C94 1.392 . S
H96 C115 0.949 . S
H97 C116 0.950 . S
H98 C118 0.950 . S
H99 C119 0.950 . S
H100 C121 0.950 . S
H101 C124 0.950 . S
H102 C125 0.950 . S
H103 C127 0.951 . S
H104 C128 0.949 . S
H105 C130 0.949 . S
H106 C131 0.950 . S
H107 C133 0.950 . S
H108 C134 0.950 . S
H109 C136 0.950 . S
H110 C139 0.950 . S
H111 C140 0.950 . S
H112 C142 0.951 . S
H113 C143 0.949 . S
C114 C115 1.376 . S
C114 C119 1.386 . S
C114 C120 1.483 . S
C115 H96 0.949 . S
C115 C114 1.376 . S
C115 C116 1.397 . S
C116 H97 0.950 . S
C116 C115 1.397 . S
C116 C117 1.391 . S
C117 C116 1.391 . S
C117 C118 1.405 . S
C118 H98 0.950 . S
C118 C117 1.405 . S
C118 C119 1.367 . S
C119 H99 0.950 . S
C119 C114 1.386 . S
C119 C118 1.367 . S
C120 C114 1.483 . S
C120 C121 1.382 . S
C120 C122 1.403 . S
C121 H100 0.950 . S
C121 C120 1.382 . S
C121 C137 1.411 . S
C122 C120 1.403 . S
C122 C123 1.489 . S
C122 C136 1.411 . S
C123 C122 1.489 . S
C123 C124 1.383 . S
C123 C128 1.382 . S
C124 H101 0.950 . S
C124 C123 1.383 . S
C124 C125 1.395 . S
C125 H102 0.950 . S
C125 C124 1.395 . S
C125 C126 1.288 . S
C126 C125 1.288 . S
C126 C127 1.392 . S
C127 H103 0.951 . S
C127 C126 1.392 . S
C127 C128 1.392 . S
C128 H104 0.949 . S
C128 C123 1.382 . S
C128 C127 1.392 . S
C129 C130 1.376 . S
C129 C134 1.386 . S
C129 C135 1.483 . S
C130 H105 0.949 . S
C130 C129 1.376 . S
C130 C131 1.397 . S
C131 H106 0.950 . S
C131 C130 1.397 . S
C131 C132 1.391 . S
C132 C131 1.391 . S
C132 C133 1.405 . S
C133 H107 0.950 . S
C133 C132 1.405 . S
C133 C134 1.367 . S
C134 H108 0.950 . S
C134 C129 1.386 . S
C134 C133 1.367 . S
C135 C129 1.483 . S
C135 C136 1.382 . S
C135 C137 1.403 . S
C136 H109 0.950 . S
C136 C122 1.411 . S
C136 C135 1.382 . S
C137 C121 1.411 . S
C137 C135 1.403 . S
C137 C138 1.489 . S
C138 C137 1.489 . S
C138 C139 1.383 . S
C138 C143 1.382 . S
C139 H110 0.950 . S
C139 C138 1.383 . S
C139 C140 1.395 . S
C140 H111 0.950 . S
C140 C139 1.395 . S
C140 C141 1.288 . S
C141 C140 1.288 . S
C141 C142 1.392 . S
C142 H112 0.951 . S
C142 C141 1.392 . S
C142 C143 1.392 . S
C143 H113 0.949 . S
C143 C138 1.382 . S
C143 C142 1.392 . S
H144 C163 0.949 . S
H145 C164 0.950 . S
H146 C166 0.950 . S
H147 C167 0.950 . S
H148 C169 0.950 1_655 S
H149 C172 0.950 . S
H150 C173 0.950 . S
H151 C175 0.951 . S
H152 C176 0.949 . S
H153 C178 0.949 . S
H154 C179 0.950 . S
H155 C181 0.950 . S
H156 C182 0.950 . S
H157 C184 0.950 . S
H158 C187 0.950 . S
H159 C188 0.950 . S
H160 C190 0.951 . S
H161 C191 0.949 . S
C162 C163 1.376 . S
C162 C167 1.386 . S
C162 C168 1.483 . S
C163 H144 0.949 . S
C163 C162 1.376 . S
C163 C164 1.397 . S
C164 H145 0.950 . S
C164 C163 1.397 . S
C164 C165 1.391 . S
C165 C164 1.391 . S
C165 C166 1.405 . S
C166 H146 0.950 . S
C166 C165 1.405 . S
C166 C167 1.367 . S
C167 H147 0.950 . S
C167 C162 1.386 . S
C167 C166 1.367 . S
C168 C162 1.483 . S
C168 C169 1.382 . S
C168 C170 1.403 . S
C169 H148 0.950 1_455 S
C169 C168 1.382 . S
C169 C185 1.411 1_455 S
C170 C168 1.403 . S
C170 C171 1.489 . S
C170 C184 1.411 . S
C171 C170 1.489 . S
C171 C172 1.383 . S
C171 C176 1.382 . S
C172 H149 0.950 . S
C172 C171 1.383 . S
C172 C173 1.395 . S
C173 H150 0.950 . S
C173 C172 1.395 . S
C173 C174 1.288 . S
C174 C173 1.288 . S
C174 C175 1.392 . S
C175 H151 0.951 . S
C175 C174 1.392 . S
C175 C176 1.392 . S
C176 H152 0.949 . S
C176 C171 1.382 . S
C176 C175 1.392 . S
C177 C178 1.376 . S
C177 C182 1.386 . S
C177 C183 1.483 . S
C178 H153 0.949 . S
C178 C177 1.376 . S
C178 C179 1.397 . S
C179 H154 0.950 . S
C179 C178 1.397 . S
C179 C180 1.391 . S
C180 C179 1.391 . S
C180 C181 1.405 . S
C181 H155 0.950 . S
C181 C180 1.405 . S
C181 C182 1.367 . S
C182 H156 0.950 . S
C182 C177 1.386 . S
C182 C181 1.367 . S
C183 C177 1.483 . S
C183 C184 1.382 1_655 S
C183 C185 1.403 . S
C184 H157 0.950 . S
C184 C170 1.411 . S
C184 C183 1.382 1_455 S
C185 C169 1.411 1_655 S
C185 C183 1.403 . S
C185 C186 1.489 . S
C186 C185 1.489 . S
C186 C187 1.383 . S
C186 C191 1.382 . S
C187 H158 0.950 . S
C187 C186 1.383 . S
C187 C188 1.395 . S
C188 H159 0.950 . S
C188 C187 1.395 . S
C188 C189 1.288 . S
C189 C188 1.288 . S
C189 C190 1.392 . S
C190 H160 0.951 . S
C190 C189 1.392 . S
C190 C191 1.392 . S
C191 H161 0.949 . S
C191 C186 1.382 . S
C191 C190 1.392 . S
H192 C211 0.949 . S
H193 C212 0.950 . S
H194 C214 0.950 . S
H195 C215 0.950 . S
H196 C217 0.950 . S
H197 C220 0.950 . S
H198 C221 0.950 . S
H199 C223 0.951 . S
H200 C224 0.949 . S
H201 C226 0.949 . S
H202 C227 0.950 . S
H203 C229 0.950 . S
H204 C230 0.950 . S
H205 C232 0.950 1_565 S
H206 C235 0.950 . S
H207 C236 0.950 . S
H208 C238 0.951 . S
H209 C239 0.949 . S
C210 C211 1.376 . S
C210 C215 1.386 1_554 S
C210 C216 1.483 1_554 S
C211 H192 0.949 . S
C211 C210 1.376 . S
C211 C212 1.397 . S
C212 H193 0.950 . S
C212 C211 1.397 . S
C212 C213 1.391 . S
C213 C212 1.391 . S
C213 C214 1.405 . S
C214 H194 0.950 . S
C214 C213 1.405 . S
C214 C215 1.367 1_554 S
C215 H195 0.950 . S
C215 C210 1.386 1_556 S
C215 C214 1.367 1_556 S
C216 C210 1.483 1_556 S
C216 C217 1.382 1_556 S
C216 C218 1.403 . S
C217 H196 0.950 . S
C217 C216 1.382 1_554 S
C217 C233 1.411 1_545 S
C218 C216 1.403 . S
C218 C219 1.489 . S
C218 C232 1.411 . S
C219 C218 1.489 . S
C219 C220 1.383 . S
C219 C224 1.382 . S
C220 H197 0.950 . S
C220 C219 1.383 . S
C220 C221 1.395 . S
C221 H198 0.950 . S
C221 C220 1.395 . S
C221 C222 1.288 . S
C222 C221 1.288 . S
C222 C223 1.392 . S
C223 H199 0.951 . S
C223 C222 1.392 . S
C223 C224 1.392 . S
C224 H200 0.949 . S
C224 C219 1.382 . S
C224 C223 1.392 . S
C225 C226 1.376 . S
C225 C230 1.386 . S
C225 C231 1.483 . S
C226 H201 0.949 . S
C226 C225 1.376 . S
C226 C227 1.397 . S
C227 H202 0.950 . S
C227 C226 1.397 . S
C227 C228 1.391 . S
C228 C227 1.391 . S
C228 C229 1.405 . S
C229 H203 0.950 . S
C229 C228 1.405 . S
C229 C230 1.367 . S
C230 H204 0.950 . S
C230 C225 1.386 . S
C230 C229 1.367 . S
C231 C225 1.483 . S
C231 C232 1.382 1_565 S
C231 C233 1.403 1_556 S
C232 H205 0.950 1_545 S
C232 C218 1.411 . S
C232 C231 1.382 1_545 S
C233 C217 1.411 1_565 S
C233 C231 1.403 1_554 S
C233 C234 1.489 . S
C234 C233 1.489 . S
C234 C235 1.383 . S
C234 C239 1.382 . S
C235 H206 0.950 . S
C235 C234 1.383 . S
C235 C236 1.395 . S
C236 H207 0.950 . S
C236 C235 1.395 . S
C236 C237 1.288 . S
C237 C236 1.288 . S
C237 C238 1.392 . S
C238 H208 0.951 . S
C238 C237 1.392 . S
C238 C239 1.392 . S
C239 H209 0.949 . S
C239 C234 1.382 . S
C239 C238 1.392 . S
H240 C259 0.949 . S
H241 C260 0.950 . S
H242 C262 0.950 . S
H243 C263 0.950 . S
H244 C265 0.950 . S
H245 C268 0.950 . S
H246 C269 0.950 . S
H247 C271 0.951 . S
H248 C272 0.949 . S
H249 C274 0.949 . S
H250 C275 0.950 . S
H251 C277 0.950 . S
H252 C278 0.950 . S
H253 C280 0.950 . S
H254 C283 0.950 . S
H255 C284 0.950 . S
H256 C286 0.951 . S
H257 C287 0.949 . S
C258 C259 1.376 . S
C258 C263 1.386 . S
C258 C264 1.483 . S
C259 H240 0.949 . S
C259 C258 1.376 . S
C259 C260 1.397 . S
C260 H241 0.950 . S
C260 C259 1.397 . S
C260 C261 1.391 . S
C261 C260 1.391 . S
C261 C262 1.405 . S
C262 H242 0.950 . S
C262 C261 1.405 . S
C262 C263 1.367 . S
C263 H243 0.950 . S
C263 C258 1.386 . S
C263 C262 1.367 . S
C264 C258 1.483 . S
C264 C265 1.382 . S
C264 C266 1.403 . S
C265 H244 0.950 . S
C265 C264 1.382 . S
C265 C281 1.411 . S
C266 C264 1.403 . S
C266 C267 1.489 . S
C266 C280 1.411 . S
C267 C266 1.489 . S
C267 C268 1.383 . S
C267 C272 1.382 . S
C268 H245 0.950 . S
C268 C267 1.383 . S
C268 C269 1.395 . S
C269 H246 0.950 . S
C269 C268 1.395 . S
C269 C270 1.288 . S
C270 C269 1.288 . S
C270 C271 1.392 . S
C271 H247 0.951 . S
C271 C270 1.392 . S
C271 C272 1.392 . S
C272 H248 0.949 . S
C272 C267 1.382 . S
C272 C271 1.392 . S
C273 C274 1.376 . S
C273 C278 1.386 . S
C273 C279 1.483 . S
C274 H249 0.949 . S
C274 C273 1.376 . S
C274 C275 1.397 . S
C275 H250 0.950 . S
C275 C274 1.397 . S
C275 C276 1.391 . S
C276 C275 1.391 . S
C276 C277 1.405 . S
C277 H251 0.950 . S
C277 C276 1.405 . S
C277 C278 1.367 . S
C278 H252 0.950 . S
C278 C273 1.386 . S
C278 C277 1.367 . S
C279 C273 1.483 . S
C279 C280 1.382 . S
C279 C281 1.403 . S
C280 H253 0.950 . S
C280 C266 1.411 . S
C280 C279 1.382 . S
C281 C265 1.411 . S
C281 C279 1.403 . S
C281 C282 1.489 . S
C282 C281 1.489 . S
C282 C283 1.383 . S
C282 C287 1.382 . S
C283 H254 0.950 . S
C283 C282 1.383 . S
C283 C284 1.395 . S
C284 H255 0.950 . S
C284 C283 1.395 . S
C284 C285 1.288 . S
C285 C284 1.288 . S
C285 C286 1.392 . S
C286 H256 0.951 . S
C286 C285 1.392 . S
C286 C287 1.392 . S
C287 H257 0.949 . S
C287 C282 1.382 . S
C287 C286 1.392 . S
O288 Cd289 2.223 . S
O288 C296 1.315 . S
Cd289 O288 2.223 . S
Cd289 O292 2.297 . S
Cd289 O293 2.439 . S
Cd289 O299 2.240 . S
Cd290 O291 2.240 . S
Cd290 O298 2.223 . S
Cd290 O300 2.297 . S
Cd290 O301 2.439 . S
O291 Cd290 2.240 . S
O291 C296 1.279 . S
O292 Cd289 2.297 . S
O292 C294 1.247 . S
O293 Cd289 2.439 . S
O293 C294 1.208 . S
C294 O292 1.247 . S
C294 O293 1.208 . S
C295 O300 1.247 . S
C295 O301 1.208 . S
C296 O288 1.315 . S
C296 O291 1.279 . S
C297 O298 1.315 . S
C297 O299 1.279 . S
O298 Cd290 2.223 . S
O298 C297 1.315 . S
O299 Cd289 2.240 . S
O299 C297 1.279 . S
O300 Cd290 2.297 . S
O300 C295 1.247 . S
O301 Cd290 2.439 . S
O301 C295 1.208 . S
O302 Cd303 2.223 . S
O302 C310 1.315 . S
Cd303 O302 2.223 . S
Cd303 O306 2.297 . S
Cd303 O307 2.439 . S
Cd303 O313 2.240 . S
Cd304 O305 2.240 . S
Cd304 O312 2.223 . S
Cd304 O314 2.297 . S
Cd304 O315 2.439 . S
O305 Cd304 2.240 . S
O305 C310 1.279 . S
O306 Cd303 2.297 . S
O306 C308 1.247 . S
O307 Cd303 2.439 . S
O307 C308 1.208 . S
C308 O306 1.247 . S
C308 O307 1.208 . S
C309 O314 1.247 . S
C309 O315 1.208 . S
C310 O302 1.315 . S
C310 O305 1.279 . S
C311 O312 1.315 . S
C311 O313 1.279 . S
O312 Cd304 2.223 . S
O312 C311 1.315 . S
O313 Cd303 2.240 . S
O313 C311 1.279 . S
O314 Cd304 2.297 . S
O314 C309 1.247 . S
O315 Cd304 2.439 . S
O315 C309 1.208 . S
O316 Cd317 2.223 . S
O316 C324 1.315 . S
Cd317 O316 2.223 . S
Cd317 O320 2.297 . S
Cd317 O321 2.439 . S
Cd317 O327 2.240 . S
Cd318 O319 2.240 . S
Cd318 O326 2.223 . S
Cd318 O328 2.297 . S
Cd318 O329 2.439 . S
O319 Cd318 2.240 . S
O319 C324 1.279 . S
O320 Cd317 2.297 . S
O320 C322 1.247 . S
O321 Cd317 2.439 . S
O321 C322 1.208 . S
C322 O320 1.247 . S
C322 O321 1.208 . S
C323 O328 1.247 . S
C323 O329 1.208 . S
C324 O316 1.315 . S
C324 O319 1.279 . S
C325 O326 1.315 . S
C325 O327 1.279 . S
O326 Cd318 2.223 . S
O326 C325 1.315 . S
O327 Cd317 2.240 . S
O327 C325 1.279 . S
O328 Cd318 2.297 . S
O328 C323 1.247 . S
O329 Cd318 2.439 . S
O329 C323 1.208 . S
O330 Cd331 2.223 . S
O330 C338 1.315 . S
Cd331 O330 2.223 . S
Cd331 O334 2.297 . S
Cd331 O335 2.439 . S
Cd331 O341 2.240 . S
Cd332 O333 2.240 . S
Cd332 O340 2.223 . S
Cd332 O342 2.297 . S
Cd332 O343 2.439 . S
O333 Cd332 2.240 . S
O333 C338 1.279 . S
O334 Cd331 2.297 . S
O334 C336 1.247 . S
O335 Cd331 2.439 . S
O335 C336 1.208 . S
C336 O334 1.247 . S
C336 O335 1.208 . S
C337 O342 1.247 . S
C337 O343 1.208 . S
C338 O330 1.315 . S
C338 O333 1.279 . S
C339 O340 1.315 . S
C339 O341 1.279 . S
O340 Cd332 2.223 . S
O340 C339 1.315 . S
O341 Cd331 2.240 . S
O341 C339 1.279 . S
O342 Cd332 2.297 . S
O342 C337 1.247 . S
O343 Cd332 2.439 . S
O343 C337 1.208 . S
O344 Cd345 2.223 . S
O344 C352 1.315 . S
Cd345 O344 2.223 . S
Cd345 O348 2.297 . S
Cd345 O349 2.439 . S
Cd345 O355 2.240 . S
Cd346 O347 2.240 . S
Cd346 O354 2.223 . S
Cd346 O356 2.297 . S
Cd346 O357 2.439 . S
O347 Cd346 2.240 . S
O347 C352 1.279 . S
O348 Cd345 2.297 . S
O348 C350 1.247 . S
O349 Cd345 2.439 . S
O349 C350 1.208 . S
C350 O348 1.247 . S
C350 O349 1.208 . S
C351 O356 1.247 . S
C351 O357 1.208 . S
C352 O344 1.315 . S
C352 O347 1.279 . S
C353 O354 1.315 . S
C353 O355 1.279 . S
O354 Cd346 2.223 . S
O354 C353 1.315 . S
O355 Cd345 2.240 . S
O355 C353 1.279 . S
O356 Cd346 2.297 . S
O356 C351 1.247 . S
O357 Cd346 2.439 . S
O357 C351 1.208 . S
O358 Cd359 2.223 . S
O358 C366 1.315 . S
Cd359 O358 2.223 . S
Cd359 O362 2.297 . S
Cd359 O363 2.439 . S
Cd359 O369 2.240 . S
Cd360 O361 2.240 . S
Cd360 O368 2.223 . S
Cd360 O370 2.297 . S
Cd360 O371 2.439 . S
O361 Cd360 2.240 . S
O361 C366 1.279 . S
O362 Cd359 2.297 . S
O362 C364 1.247 . S
O363 Cd359 2.439 . S
O363 C364 1.208 . S
C364 O362 1.247 . S
C364 O363 1.208 . S
C365 O370 1.247 . S
C365 O371 1.208 . S
C366 O358 1.315 . S
C366 O361 1.279 . S
C367 O368 1.315 . S
C367 O369 1.279 . S
O368 Cd360 2.223 . S
O368 C367 1.315 . S
O369 Cd359 2.240 . S
O369 C367 1.279 . S
O370 Cd360 2.297 . S
O370 C365 1.247 . S
O371 Cd360 2.439 . S
O371 C365 1.208 . S
C372 C373 1.391 . S
C372 C374 1.394 . S
C372 H388 0.931 . S
C373 C372 1.391 . S
C373 C377 1.376 . S
C374 C372 1.394 . S
C374 C375 1.369 . S
C374 C378 1.531 . S
C375 C374 1.369 . S
C375 C376 1.410 . S
C375 C383 1.503 . S
C376 C375 1.410 . S
C376 C377 1.392 . S
C376 C379 1.511 . S
C377 C373 1.376 . S
C377 C376 1.392 . S
C377 H389 0.929 . S
C378 C374 1.531 . S
C378 H390 0.960 . S
C378 H391 0.962 . S
C378 H392 0.960 . S
C379 C376 1.511 . S
C379 H393 0.961 . S
C379 H394 0.961 . S
C379 H395 0.961 . S
C380 C381 1.370 . S
C380 C382 1.363 . S
C380 H396 0.931 . S
C381 C380 1.370 . S
C381 C385 1.408 . S
C382 C380 1.363 . S
C382 C383 1.370 . S
C382 C386 1.524 . S
C383 C375 1.503 . S
C383 C382 1.370 . S
C383 C384 1.403 . S
C384 C383 1.403 . S
C384 C385 1.404 . S
C384 C387 1.539 . S
C385 C381 1.408 . S
C385 C384 1.404 . S
C385 H397 0.930 . S
C386 C382 1.524 . S
C386 H398 0.956 . S
C386 H399 0.961 . S
C386 H400 0.961 . S
C387 C384 1.539 . S
C387 H401 0.958 . S
C387 H402 0.961 . S
C387 H403 0.960 . S
H388 C372 0.931 . S
H389 C377 0.929 . S
H390 C378 0.960 . S
H391 C378 0.962 . S
H392 C378 0.960 . S
H393 C379 0.961 . S
H394 C379 0.961 . S
H395 C379 0.961 . S
H396 C380 0.931 . S
H397 C385 0.930 . S
H398 C386 0.956 . S
H399 C386 0.961 . S
H400 C386 0.961 . S
H401 C387 0.958 . S
H402 C387 0.961 . S
H403 C387 0.960 . S
C404 C405 1.391 . S
C404 C406 1.394 . S
C404 H420 0.931 . S
C405 C404 1.391 . S
C405 C409 1.376 . S
C406 C404 1.394 . S
C406 C407 1.369 . S
C406 C410 1.531 . S
C407 C406 1.369 . S
C407 C408 1.410 . S
C407 C415 1.503 . S
C408 C407 1.410 . S
C408 C409 1.392 . S
C408 C411 1.511 . S
C409 C405 1.376 . S
C409 C408 1.392 . S
C409 H421 0.929 . S
C410 C406 1.531 . S
C410 H422 0.960 . S
C410 H423 0.962 . S
C410 H424 0.960 . S
C411 C408 1.511 . S
C411 H425 0.961 . S
C411 H426 0.961 . S
C411 H427 0.961 . S
C412 C413 1.370 . S
C412 C414 1.363 . S
C412 H428 0.931 . S
C413 C412 1.370 . S
C413 C417 1.408 . S
C414 C412 1.363 . S
C414 C415 1.370 . S
C414 C418 1.524 . S
C415 C407 1.503 . S
C415 C414 1.370 . S
C415 C416 1.403 . S
C416 C415 1.403 . S
C416 C417 1.404 . S
C416 C419 1.539 . S
C417 C413 1.408 . S
C417 C416 1.404 . S
C417 H429 0.930 . S
C418 C414 1.524 . S
C418 H430 0.956 . S
C418 H431 0.961 . S
C418 H432 0.961 . S
C419 C416 1.539 . S
C419 H433 0.958 . S
C419 H434 0.961 . S
C419 H435 0.960 . S
H420 C404 0.931 . S
H421 C409 0.929 . S
H422 C410 0.960 . S
H423 C410 0.962 . S
H424 C410 0.960 . S
H425 C411 0.961 . S
H426 C411 0.961 . S
H427 C411 0.961 . S
H428 C412 0.931 . S
H429 C417 0.930 . S
H430 C418 0.956 . S
H431 C418 0.961 . S
H432 C418 0.961 . S
H433 C419 0.958 . S
H434 C419 0.961 . S
H435 C419 0.960 . S
C436 C437 1.391 . S
C436 C438 1.394 . S
C436 H452 0.931 . S
C437 C436 1.391 . S
C437 C441 1.376 . S
C438 C436 1.394 . S
C438 C439 1.369 . S
C438 C442 1.531 . S
C439 C438 1.369 . S
C439 C440 1.410 . S
C439 C447 1.503 . S
C440 C439 1.410 . S
C440 C441 1.392 . S
C440 C443 1.511 . S
C441 C437 1.376 . S
C441 C440 1.392 . S
C441 H453 0.929 . S
C442 C438 1.531 . S
C442 H454 0.960 . S
C442 H455 0.962 . S
C442 H456 0.960 . S
C443 C440 1.511 . S
C443 H457 0.961 . S
C443 H458 0.961 . S
C443 H459 0.961 . S
C444 C445 1.370 . S
C444 C446 1.363 . S
C444 H460 0.931 . S
C445 C444 1.370 . S
C445 C449 1.408 . S
C446 C444 1.363 . S
C446 C447 1.370 . S
C446 C450 1.524 . S
C447 C439 1.503 . S
C447 C446 1.370 . S
C447 C448 1.403 . S
C448 C447 1.403 . S
C448 C449 1.404 . S
C448 C451 1.539 . S
C449 C445 1.408 . S
C449 C448 1.404 . S
C449 H461 0.930 . S
C450 C446 1.524 . S
C450 H462 0.956 . S
C450 H463 0.961 . S
C450 H464 0.961 . S
C451 C448 1.539 . S
C451 H465 0.958 . S
C451 H466 0.961 . S
C451 H467 0.960 . S
H452 C436 0.931 . S
H453 C441 0.929 . S
H454 C442 0.960 . S
H455 C442 0.962 . S
H456 C442 0.960 . S
H457 C443 0.961 . S
H458 C443 0.961 . S
H459 C443 0.961 . S
H460 C444 0.931 . S
H461 C449 0.930 . S
H462 C450 0.956 . S
H463 C450 0.961 . S
H464 C450 0.961 . S
H465 C451 0.958 . S
H466 C451 0.961 . S
H467 C451 0.960 . S
C468 C469 1.391 . S
C468 C470 1.394 . S
C468 H484 0.931 . S
C469 C468 1.391 . S
C469 C473 1.376 . S
C470 C468 1.394 . S
C470 C471 1.369 . S
C470 C474 1.531 . S
C471 C470 1.369 . S
C471 C472 1.410 . S
C471 C479 1.503 . S
C472 C471 1.410 . S
C472 C473 1.392 . S
C472 C475 1.511 . S
C473 C469 1.376 . S
C473 C472 1.392 . S
C473 H485 0.929 . S
C474 C470 1.531 . S
C474 H486 0.960 . S
C474 H487 0.962 . S
C474 H488 0.960 . S
C475 C472 1.511 . S
C475 H489 0.961 . S
C475 H490 0.961 . S
C475 H491 0.961 . S
C476 C477 1.370 . S
C476 C478 1.363 . S
C476 H492 0.931 . S
C477 C476 1.370 . S
C477 C481 1.408 . S
C478 C476 1.363 . S
C478 C479 1.370 . S
C478 C482 1.524 . S
C479 C471 1.503 . S
C479 C478 1.370 . S
C479 C480 1.403 . S
C480 C479 1.403 . S
C480 C481 1.404 . S
C480 C483 1.539 . S
C481 C477 1.408 . S
C481 C480 1.404 . S
C481 H493 0.930 . S
C482 C478 1.524 . S
C482 H494 0.956 . S
C482 H495 0.961 . S
C482 H496 0.961 . S
C483 C480 1.539 . S
C483 H497 0.958 . S
C483 H498 0.961 . S
C483 H499 0.960 . S
H484 C468 0.931 . S
H485 C473 0.929 . S
H486 C474 0.960 . S
H487 C474 0.962 . S
H488 C474 0.960 . S
H489 C475 0.961 . S
H490 C475 0.961 . S
H491 C475 0.961 . S
H492 C476 0.931 . S
H493 C481 0.930 . S
H494 C482 0.956 . S
H495 C482 0.961 . S
H496 C482 0.961 . S
H497 C483 0.958 . S
H498 C483 0.961 . S
H499 C483 0.960 . S
C500 C501 1.391 . S
C500 C502 1.394 . S
C500 H516 0.931 . S
C501 C500 1.391 . S
C501 C505 1.376 . S
C502 C500 1.394 . S
C502 C503 1.369 . S
C502 C506 1.531 . S
C503 C502 1.369 . S
C503 C504 1.410 . S
C503 C511 1.503 . S
C504 C503 1.410 . S
C504 C505 1.392 . S
C504 C507 1.511 . S
C505 C501 1.376 . S
C505 C504 1.392 . S
C505 H517 0.929 . S
C506 C502 1.531 . S
C506 H518 0.960 . S
C506 H519 0.962 . S
C506 H520 0.960 . S
C507 C504 1.511 . S
C507 H521 0.961 . S
C507 H522 0.961 . S
C507 H523 0.961 . S
C508 C509 1.370 . S
C508 C510 1.363 . S
C508 H524 0.931 . S
C509 C508 1.370 . S
C509 C513 1.408 . S
C510 C508 1.363 . S
C510 C511 1.370 . S
C510 C514 1.524 . S
C511 C503 1.503 . S
C511 C510 1.370 . S
C511 C512 1.403 . S
C512 C511 1.403 . S
C512 C513 1.404 . S
C512 C515 1.539 . S
C513 C509 1.408 . S
C513 C512 1.404 . S
C513 H525 0.930 . S
C514 C510 1.524 . S
C514 H526 0.956 . S
C514 H527 0.961 . S
C514 H528 0.961 . S
C515 C512 1.539 . S
C515 H529 0.958 . S
C515 H530 0.961 . S
C515 H531 0.960 . S
H516 C500 0.931 . S
H517 C505 0.929 . S
H518 C506 0.960 . S
H519 C506 0.962 . S
H520 C506 0.960 . S
H521 C507 0.961 . S
H522 C507 0.961 . S
H523 C507 0.961 . S
H524 C508 0.931 . S
H525 C513 0.930 . S
H526 C514 0.956 . S
H527 C514 0.961 . S
H528 C514 0.961 . S
H529 C515 0.958 . S
H530 C515 0.961 . S
H531 C515 0.960 . S
C532 C533 1.391 . S
C532 C534 1.394 . S
C532 H548 0.931 . S
C533 C532 1.391 . S
C533 C537 1.376 . S
C534 C532 1.394 . S
C534 C535 1.369 . S
C534 C538 1.531 . S
C535 C534 1.369 . S
C535 C536 1.410 . S
C535 C543 1.503 . S
C536 C535 1.410 . S
C536 C537 1.392 . S
C536 C539 1.511 . S
C537 C533 1.376 . S
C537 C536 1.392 . S
C537 H549 0.929 . S
C538 C534 1.531 . S
C538 H550 0.960 . S
C538 H551 0.962 . S
C538 H552 0.960 . S
C539 C536 1.511 . S
C539 H553 0.961 . S
C539 H554 0.961 . S
C539 H555 0.961 . S
C540 C541 1.370 . S
C540 C542 1.363 . S
C540 H556 0.931 . S
C541 C540 1.370 . S
C541 C545 1.408 . S
C542 C540 1.363 . S
C542 C543 1.370 . S
C542 C546 1.524 . S
C543 C535 1.503 . S
C543 C542 1.370 . S
C543 C544 1.403 . S
C544 C543 1.403 . S
C544 C545 1.404 . S
C544 C547 1.539 . S
C545 C541 1.408 . S
C545 C544 1.404 . S
C545 H557 0.930 . S
C546 C542 1.524 . S
C546 H558 0.956 . S
C546 H559 0.961 . S
C546 H560 0.961 . S
C547 C544 1.539 . S
C547 H561 0.958 . S
C547 H562 0.961 . S
C547 H563 0.960 . S
H548 C532 0.931 . S
H549 C537 0.929 . S
H550 C538 0.960 . S
H551 C538 0.962 . S
H552 C538 0.960 . S
H553 C539 0.961 . S
H554 C539 0.961 . S
H555 C539 0.961 . S
H556 C540 0.931 . S
H557 C545 0.930 . S
H558 C546 0.956 . S
H559 C546 0.961 . S
H560 C546 0.961 . S
H561 C547 0.958 . S
H562 C547 0.961 . S
H563 C547 0.960 . S
C564 C565 1.391 . S
C564 C566 1.394 . S
C564 H580 0.931 . S
C565 C564 1.391 . S
C565 C569 1.376 . S
C566 C564 1.394 . S
C566 C567 1.369 . S
C566 C570 1.531 . S
C567 C566 1.369 . S
C567 C568 1.410 . S
C567 C575 1.503 . S
C568 C567 1.410 . S
C568 C569 1.392 . S
C568 C571 1.511 . S
C569 C565 1.376 . S
C569 C568 1.392 . S
C569 H581 0.929 . S
C570 C566 1.531 . S
C570 H582 0.960 . S
C570 H583 0.962 . S
C570 H584 0.960 . S
C571 C568 1.511 . S
C571 H585 0.961 . S
C571 H586 0.961 . S
C571 H587 0.961 . S
C572 C573 1.370 . S
C572 C574 1.363 . S
C572 H588 0.931 . S
C573 C572 1.370 . S
C573 C577 1.408 . S
C574 C572 1.363 . S
C574 C575 1.370 . S
C574 C578 1.524 . S
C575 C567 1.503 . S
C575 C574 1.370 . S
C575 C576 1.403 . S
C576 C575 1.403 . S
C576 C577 1.404 . S
C576 C579 1.539 . S
C577 C573 1.408 . S
C577 C576 1.404 . S
C577 H589 0.930 . S
C578 C574 1.524 . S
C578 H590 0.956 . S
C578 H591 0.961 . S
C578 H592 0.961 . S
C579 C576 1.539 . S
C579 H593 0.958 . S
C579 H594 0.961 . S
C579 H595 0.960 . S
H580 C564 0.931 . S
H581 C569 0.929 . S
H582 C570 0.960 . S
H583 C570 0.962 . S
H584 C570 0.960 . S
H585 C571 0.961 . S
H586 C571 0.961 . S
H587 C571 0.961 . S
H588 C572 0.931 . S
H589 C577 0.930 . S
H590 C578 0.956 . S
H591 C578 0.961 . S
H592 C578 0.961 . S
H593 C579 0.958 . S
H594 C579 0.961 . S
H595 C579 0.960 . S
C596 C597 1.391 . S
C596 C598 1.394 . S
C596 H612 0.931 . S
C597 C596 1.391 . S
C597 C601 1.376 . S
C598 C596 1.394 . S
C598 C599 1.369 . S
C598 C602 1.531 . S
C599 C598 1.369 . S
C599 C600 1.410 . S
C599 C607 1.503 . S
C600 C599 1.410 . S
C600 C601 1.392 . S
C600 C603 1.511 . S
C601 C597 1.376 . S
C601 C600 1.392 . S
C601 H613 0.929 . S
C602 C598 1.531 . S
C602 H614 0.960 . S
C602 H615 0.962 . S
C602 H616 0.960 . S
C603 C600 1.511 . S
C603 H617 0.961 . S
C603 H618 0.961 . S
C603 H619 0.961 . S
C604 C605 1.370 . S
C604 C606 1.363 . S
C604 H620 0.931 . S
C605 C604 1.370 . S
C605 C609 1.408 . S
C606 C604 1.363 . S
C606 C607 1.370 . S
C606 C610 1.524 . S
C607 C599 1.503 . S
C607 C606 1.370 . S
C607 C608 1.403 . S
C608 C607 1.403 . S
C608 C609 1.404 . S
C608 C611 1.539 . S
C609 C605 1.408 . S
C609 C608 1.404 . S
C609 H621 0.930 . S
C610 C606 1.524 . S
C610 H622 0.956 . S
C610 H623 0.961 . S
C610 H624 0.961 . S
C611 C608 1.539 . S
C611 H625 0.958 . S
C611 H626 0.961 . S
C611 H627 0.960 . S
H612 C596 0.931 . S
H613 C601 0.929 . S
H614 C602 0.960 . S
H615 C602 0.962 . S
H616 C602 0.960 . S
H617 C603 0.961 . S
H618 C603 0.961 . S
H619 C603 0.961 . S
H620 C604 0.931 . S
H621 C609 0.930 . S
H622 C610 0.956 . S
H623 C610 0.961 . S
H624 C610 0.961 . S
H625 C611 0.958 . S
H626 C611 0.961 . S
H627 C611 0.960 . S
C628 C629 1.391 . S
C628 C630 1.394 . S
C628 H644 0.931 . S
C629 C628 1.391 . S
C629 C633 1.376 . S
C630 C628 1.394 . S
C630 C631 1.369 . S
C630 C634 1.531 . S
C631 C630 1.369 . S
C631 C632 1.410 . S
C631 C639 1.503 . S
C632 C631 1.410 . S
C632 C633 1.392 . S
C632 C635 1.511 . S
C633 C629 1.376 . S
C633 C632 1.392 . S
C633 H645 0.929 . S
C634 C630 1.531 . S
C634 H646 0.960 . S
C634 H647 0.962 . S
C634 H648 0.960 . S
C635 C632 1.511 . S
C635 H649 0.961 . S
C635 H650 0.961 . S
C635 H651 0.961 . S
C636 C637 1.370 . S
C636 C638 1.363 . S
C636 H652 0.931 . S
C637 C636 1.370 . S
C637 C641 1.408 . S
C638 C636 1.363 . S
C638 C639 1.370 . S
C638 C642 1.524 . S
C639 C631 1.503 . S
C639 C638 1.370 . S
C639 C640 1.403 . S
C640 C639 1.403 . S
C640 C641 1.404 . S
C640 C643 1.539 . S
C641 C637 1.408 . S
C641 C640 1.404 . S
C641 H653 0.930 . S
C642 C638 1.524 . S
C642 H654 0.956 . S
C642 H655 0.961 . S
C642 H656 0.961 . S
C643 C640 1.539 . S
C643 H657 0.958 . S
C643 H658 0.961 . S
C643 H659 0.960 . S
H644 C628 0.931 . S
H645 C633 0.929 . S
H646 C634 0.960 . S
H647 C634 0.962 . S
H648 C634 0.960 . S
H649 C635 0.961 . S
H650 C635 0.961 . S
H651 C635 0.961 . S
H652 C636 0.931 . S
H653 C641 0.930 . S
H654 C642 0.956 . S
H655 C642 0.961 . S
H656 C642 0.961 . S
H657 C643 0.958 . S
H658 C643 0.961 . S
H659 C643 0.960 . S
C660 C661 1.391 . S
C660 C662 1.394 . S
C660 H676 0.931 . S
C661 C660 1.391 . S
C661 C665 1.376 . S
C662 C660 1.394 . S
C662 C663 1.369 . S
C662 C666 1.531 . S
C663 C662 1.369 . S
C663 C664 1.410 . S
C663 C671 1.503 . S
C664 C663 1.410 . S
C664 C665 1.392 . S
C664 C667 1.511 . S
C665 C661 1.376 . S
C665 C664 1.392 . S
C665 H677 0.929 . S
C666 C662 1.531 . S
C666 H678 0.960 . S
C666 H679 0.962 . S
C666 H680 0.960 . S
C667 C664 1.511 . S
C667 H681 0.961 . S
C667 H682 0.961 . S
C667 H683 0.961 . S
C668 C669 1.370 . S
C668 C670 1.363 . S
C668 H684 0.931 . S
C669 C668 1.370 . S
C669 C673 1.408 . S
C670 C668 1.363 . S
C670 C671 1.370 . S
C670 C674 1.524 . S
C671 C663 1.503 . S
C671 C670 1.370 . S
C671 C672 1.403 . S
C672 C671 1.403 . S
C672 C673 1.404 . S
C672 C675 1.539 . S
C673 C669 1.408 . S
C673 C672 1.404 . S
C673 H685 0.930 . S
C674 C670 1.524 . S
C674 H686 0.956 . S
C674 H687 0.961 1_554 S
C674 H688 0.961 1_554 S
C675 C672 1.539 . S
C675 H689 0.958 . S
C675 H690 0.961 . S
C675 H691 0.960 . S
H676 C660 0.931 . S
H677 C665 0.929 . S
H678 C666 0.960 . S
H679 C666 0.962 . S
H680 C666 0.960 . S
H681 C667 0.961 . S
H682 C667 0.961 . S
H683 C667 0.961 . S
H684 C668 0.931 . S
H685 C673 0.930 . S
H686 C674 0.956 . S
H687 C674 0.961 1_556 S
H688 C674 0.961 1_556 S
H689 C675 0.958 . S
H690 C675 0.961 . S
H691 C675 0.960 . S
C692 C693 1.391 . S
C692 C694 1.394 . S
C692 H708 0.931 . S
C693 C692 1.391 . S
C693 C697 1.376 . S
C694 C692 1.394 . S
C694 C695 1.369 . S
C694 C698 1.531 . S
C695 C694 1.369 . S
C695 C696 1.410 . S
C695 C703 1.503 . S
C696 C695 1.410 . S
C696 C697 1.392 . S
C696 C699 1.511 . S
C697 C693 1.376 . S
C697 C696 1.392 . S
C697 H709 0.929 . S
C698 C694 1.531 . S
C698 H710 0.960 . S
C698 H711 0.962 . S
C698 H712 0.960 . S
C699 C696 1.511 . S
C699 H713 0.961 . S
C699 H714 0.961 . S
C699 H715 0.961 . S
C700 C701 1.370 . S
C700 C702 1.363 . S
C700 H716 0.931 . S
C701 C700 1.370 . S
C701 C705 1.408 . S
C702 C700 1.363 . S
C702 C703 1.370 . S
C702 C706 1.524 . S
C703 C695 1.503 . S
C703 C702 1.370 . S
C703 C704 1.403 . S
C704 C703 1.403 . S
C704 C705 1.404 . S
C704 C707 1.539 . S
C705 C701 1.408 . S
C705 C704 1.404 . S
C705 H717 0.930 . S
C706 C702 1.524 . S
C706 H718 0.956 . S
C706 H719 0.961 . S
C706 H720 0.961 . S
C707 C704 1.539 . S
C707 H721 0.958 . S
C707 H722 0.961 . S
C707 H723 0.960 . S
H708 C692 0.931 . S
H709 C697 0.929 . S
H710 C698 0.960 . S
H711 C698 0.962 . S
H712 C698 0.960 . S
H713 C699 0.961 . S
H714 C699 0.961 . S
H715 C699 0.961 . S
H716 C700 0.931 . S
H717 C705 0.930 . S
H718 C706 0.956 . S
H719 C706 0.961 . S
H720 C706 0.961 . S
H721 C707 0.958 . S
H722 C707 0.961 . S
H723 C707 0.960 . S
C724 C725 1.391 . S
C724 C726 1.394 . S
C724 H740 0.931 . S
C725 C724 1.391 . S
C725 C729 1.376 . S
C726 C724 1.394 . S
C726 C727 1.369 . S
C726 C730 1.531 . S
C727 C726 1.369 . S
C727 C728 1.410 . S
C727 C735 1.503 . S
C728 C727 1.410 . S
C728 C729 1.392 . S
C728 C731 1.511 . S
C729 C725 1.376 . S
C729 C728 1.392 . S
C729 H741 0.929 . S
C730 C726 1.531 . S
C730 H742 0.960 . S
C730 H743 0.962 . S
C730 H744 0.960 . S
C731 C728 1.511 . S
C731 H745 0.961 . S
C731 H746 0.961 . S
C731 H747 0.961 . S
C732 C733 1.370 . S
C732 C734 1.363 . S
C732 H748 0.931 . S
C733 C732 1.370 . S
C733 C737 1.408 . S
C734 C732 1.363 . S
C734 C735 1.370 . S
C734 C738 1.524 . S
C735 C727 1.503 . S
C735 C734 1.370 . S
C735 C736 1.403 . S
C736 C735 1.403 . S
C736 C737 1.404 . S
C736 C739 1.539 . S
C737 C733 1.408 . S
C737 C736 1.404 . S
C737 H749 0.930 . S
C738 C734 1.524 . S
C738 H750 0.956 . S
C738 H751 0.961 . S
C738 H752 0.961 . S
C739 C736 1.539 . S
C739 H753 0.958 . S
C739 H754 0.961 . S
C739 H755 0.960 . S
H740 C724 0.931 . S
H741 C729 0.929 . S
H742 C730 0.960 . S
H743 C730 0.962 . S
H744 C730 0.960 . S
H745 C731 0.961 . S
H746 C731 0.961 . S
H747 C731 0.961 . S
H748 C732 0.931 . S
H749 C737 0.930 . S
H750 C738 0.956 . S
H751 C738 0.961 . S
H752 C738 0.961 . S
H753 C739 0.958 . S
H754 C739 0.961 . S
H755 C739 0.960 . S
C756 C757 1.391 . S
C756 C758 1.394 . S
C756 H772 0.931 . S
C757 C756 1.391 . S
C757 C761 1.376 . S
C758 C756 1.394 . S
C758 C759 1.369 . S
C758 C762 1.531 . S
C759 C758 1.369 . S
C759 C760 1.410 . S
C759 C767 1.503 . S
C760 C759 1.410 . S
C760 C761 1.392 . S
C760 C763 1.511 . S
C761 C757 1.376 . S
C761 C760 1.392 . S
C761 H773 0.929 . S
C762 C758 1.531 . S
C762 H774 0.960 . S
C762 H775 0.962 . S
C762 H776 0.960 . S
C763 C760 1.511 . S
C763 H777 0.961 . S
C763 H778 0.961 . S
C763 H779 0.961 . S
C764 C765 1.370 . S
C764 C766 1.363 . S
C764 H780 0.931 . S
C765 C764 1.370 . S
C765 C769 1.408 . S
C766 C764 1.363 . S
C766 C767 1.370 . S
C766 C770 1.524 . S
C767 C759 1.503 . S
C767 C766 1.370 . S
C767 C768 1.403 . S
C768 C767 1.403 . S
C768 C769 1.404 . S
C768 C771 1.539 . S
C769 C765 1.408 . S
C769 C768 1.404 . S
C769 H781 0.930 . S
C770 C766 1.524 . S
C770 H782 0.956 . S
C770 H783 0.961 . S
C770 H784 0.961 . S
C771 C768 1.539 . S
C771 H785 0.958 . S
C771 H786 0.961 . S
C771 H787 0.960 . S
H772 C756 0.931 . S
H773 C761 0.929 . S
H774 C762 0.960 . S
H775 C762 0.962 . S
H776 C762 0.960 . S
H777 C763 0.961 . S
H778 C763 0.961 . S
H779 C763 0.961 . S
H780 C764 0.931 . S
H781 C769 0.930 . S
H782 C770 0.956 . S
H783 C770 0.961 . S
H784 C770 0.961 . S
H785 C771 0.958 . S
H786 C771 0.961 . S
H787 C771 0.960 . S
C788 C789 1.391 . S
C788 C790 1.394 . S
C788 H804 0.931 . S
C789 C788 1.391 . S
C789 C793 1.376 . S
C790 C788 1.394 . S
C790 C791 1.369 . S
C790 C794 1.531 . S
C791 C790 1.369 . S
C791 C792 1.410 . S
C791 C799 1.503 . S
C792 C791 1.410 . S
C792 C793 1.392 . S
C792 C795 1.511 . S
C793 C789 1.376 . S
C793 C792 1.392 . S
C793 H805 0.929 . S
C794 C790 1.531 . S
C794 H806 0.960 . S
C794 H807 0.962 . S
C794 H808 0.960 . S
C795 C792 1.511 . S
C795 H809 0.961 . S
C795 H810 0.961 . S
C795 H811 0.961 . S
C796 C797 1.370 . S
C796 C798 1.363 . S
C796 H812 0.931 . S
C797 C796 1.370 . S
C797 C801 1.408 . S
C798 C796 1.363 . S
C798 C799 1.370 . S
C798 C802 1.524 . S
C799 C791 1.503 . S
C799 C798 1.370 . S
C799 C800 1.403 . S
C800 C799 1.403 . S
C800 C801 1.404 . S
C800 C803 1.539 . S
C801 C797 1.408 . S
C801 C800 1.404 . S
C801 H813 0.930 . S
C802 C798 1.524 . S
C802 H814 0.956 . S
C802 H815 0.961 . S
C802 H816 0.961 . S
C803 C800 1.539 . S
C803 H817 0.958 . S
C803 H818 0.961 . S
C803 H819 0.960 . S
H804 C788 0.931 . S
H805 C793 0.929 . S
H806 C794 0.960 . S
H807 C794 0.962 . S
H808 C794 0.960 . S
H809 C795 0.961 . S
H810 C795 0.961 . S
H811 C795 0.961 . S
H812 C796 0.931 . S
H813 C801 0.930 . S
H814 C802 0.956 . S
H815 C802 0.961 . S
H816 C802 0.961 . S
H817 C803 0.958 . S
H818 C803 0.961 . S
H819 C803 0.960 . S
C820 C821 1.391 . S
C820 C822 1.394 . S
C820 H836 0.931 . S
C821 C820 1.391 . S
C821 C825 1.376 . S
C822 C820 1.394 . S
C822 C823 1.369 . S
C822 C826 1.531 . S
C823 C822 1.369 . S
C823 C824 1.410 . S
C823 C831 1.503 . S
C824 C823 1.410 . S
C824 C825 1.392 . S
C824 C827 1.511 . S
C825 C821 1.376 . S
C825 C824 1.392 . S
C825 H837 0.929 . S
C826 C822 1.531 . S
C826 H838 0.960 . S
C826 H839 0.962 . S
C826 H840 0.960 . S
C827 C824 1.511 . S
C827 H841 0.961 . S
C827 H842 0.961 . S
C827 H843 0.961 . S
C828 C829 1.370 . S
C828 C830 1.363 . S
C828 H844 0.931 . S
C829 C828 1.370 . S
C829 C833 1.408 . S
C830 C828 1.363 . S
C830 C831 1.370 . S
C830 C834 1.524 . S
C831 C823 1.503 . S
C831 C830 1.370 . S
C831 C832 1.403 . S
C832 C831 1.403 . S
C832 C833 1.404 . S
C832 C835 1.539 . S
C833 C829 1.408 . S
C833 C832 1.404 . S
C833 H845 0.930 . S
C834 C830 1.524 . S
C834 H846 0.956 . S
C834 H847 0.961 . S
C834 H848 0.961 . S
C835 C832 1.539 . S
C835 H849 0.958 . S
C835 H850 0.961 . S
C835 H851 0.960 . S
H836 C820 0.931 . S
H837 C825 0.929 . S
H838 C826 0.960 . S
H839 C826 0.962 . S
H840 C826 0.960 . S
H841 C827 0.961 . S
H842 C827 0.961 . S
H843 C827 0.961 . S
H844 C828 0.931 . S
H845 C833 0.930 . S
H846 C834 0.956 . S
H847 C834 0.961 . S
H848 C834 0.961 . S
H849 C835 0.958 . S
H850 C835 0.961 . S
H851 C835 0.960 . S
C852 C853 1.391 . S
C852 C854 1.394 . S
C852 H868 0.931 . S
C853 C852 1.391 . S
C853 C857 1.376 . S
C854 C852 1.394 . S
C854 C855 1.369 . S
C854 C858 1.531 . S
C855 C854 1.369 . S
C855 C856 1.410 . S
C855 C863 1.503 . S
C856 C855 1.410 . S
C856 C857 1.392 . S
C856 C859 1.511 . S
C857 C853 1.376 . S
C857 C856 1.392 . S
C857 H869 0.929 . S
C858 C854 1.531 . S
C858 H870 0.960 . S
C858 H871 0.962 . S
C858 H872 0.960 . S
C859 C856 1.511 . S
C859 H873 0.961 . S
C859 H874 0.961 . S
C859 H875 0.961 1_556 S
C860 C861 1.370 . S
C860 C862 1.363 1_554 S
C860 H876 0.931 1_554 S
C861 C860 1.370 . S
C861 C865 1.408 . S
C862 C860 1.363 1_556 S
C862 C863 1.370 . S
C862 C866 1.524 . S
C863 C855 1.503 . S
C863 C862 1.370 . S
C863 C864 1.403 1_556 S
C864 C863 1.403 1_554 S
C864 C865 1.404 . S
C864 C867 1.539 . S
C865 C861 1.408 . S
C865 C864 1.404 . S
C865 H877 0.930 . S
C866 C862 1.524 . S
C866 H878 0.956 . S
C866 H879 0.961 . S
C866 H880 0.961 . S
C867 C864 1.539 . S
C867 H881 0.958 . S
C867 H882 0.961 . S
C867 H883 0.960 . S
H868 C852 0.931 . S
H869 C857 0.929 . S
H870 C858 0.960 . S
H871 C858 0.962 . S
H872 C858 0.960 . S
H873 C859 0.961 . S
H874 C859 0.961 . S
H875 C859 0.961 1_554 S
H876 C860 0.931 1_556 S
H877 C865 0.930 . S
H878 C866 0.956 . S
H879 C866 0.961 . S
H880 C866 0.961 . S
H881 C867 0.958 . S
H882 C867 0.961 . S
H883 C867 0.960 . S
C884 C885 1.391 . S
C884 C886 1.394 . S
C884 H900 0.931 . S
C885 C884 1.391 . S
C885 C889 1.376 . S
C886 C884 1.394 . S
C886 C887 1.369 . S
C886 C890 1.531 . S
C887 C886 1.369 . S
C887 C888 1.410 . S
C887 C895 1.503 . S
C888 C887 1.410 . S
C888 C889 1.392 . S
C888 C891 1.511 . S
C889 C885 1.376 . S
C889 C888 1.392 . S
C889 H901 0.929 . S
C890 C886 1.531 . S
C890 H902 0.960 . S
C890 H903 0.962 . S
C890 H904 0.960 . S
C891 C888 1.511 . S
C891 H905 0.961 . S
C891 H906 0.961 . S
C891 H907 0.961 . S
C892 C893 1.370 . S
C892 C894 1.363 . S
C892 H908 0.931 . S
C893 C892 1.370 . S
C893 C897 1.408 . S
C894 C892 1.363 . S
C894 C895 1.370 . S
C894 C898 1.524 . S
C895 C887 1.503 . S
C895 C894 1.370 . S
C895 C896 1.403 . S
C896 C895 1.403 . S
C896 C897 1.404 . S
C896 C899 1.539 . S
C897 C893 1.408 . S
C897 C896 1.404 . S
C897 H909 0.930 . S
C898 C894 1.524 . S
C898 H910 0.956 . S
C898 H911 0.961 . S
C898 H912 0.961 . S
C899 C896 1.539 . S
C899 H913 0.958 . S
C899 H914 0.961 . S
C899 H915 0.960 . S
H900 C884 0.931 . S
H901 C889 0.929 . S
H902 C890 0.960 . S
H903 C890 0.962 . S
H904 C890 0.960 . S
H905 C891 0.961 . S
H906 C891 0.961 . S
H907 C891 0.961 . S
H908 C892 0.931 . S
H909 C897 0.930 . S
H910 C898 0.956 . S
H911 C898 0.961 . S
H912 C898 0.961 . S
H913 C899 0.958 . S
H914 C899 0.961 . S
H915 C899 0.960 . S
C916 C917 1.391 . S
C916 C918 1.394 . S
C916 H932 0.931 . S
C917 C916 1.391 . S
C917 C921 1.376 . S
C918 C916 1.394 . S
C918 C919 1.369 . S
C918 C922 1.531 . S
C919 C918 1.369 . S
C919 C920 1.410 . S
C919 C927 1.503 . S
C920 C919 1.410 . S
C920 C921 1.392 . S
C920 C923 1.511 . S
C921 C917 1.376 . S
C921 C920 1.392 . S
C921 H933 0.929 . S
C922 C918 1.531 . S
C922 H934 0.960 . S
C922 H935 0.962 . S
C922 H936 0.960 . S
C923 C920 1.511 . S
C923 H937 0.961 . S
C923 H938 0.961 . S
C923 H939 0.961 . S
C924 C925 1.370 . S
C924 C926 1.363 . S
C924 H940 0.931 . S
C925 C924 1.370 . S
C925 C929 1.408 . S
C926 C924 1.363 . S
C926 C927 1.370 . S
C926 C930 1.524 . S
C927 C919 1.503 . S
C927 C926 1.370 . S
C927 C928 1.403 . S
C928 C927 1.403 . S
C928 C929 1.404 . S
C928 C931 1.539 . S
C929 C925 1.408 . S
C929 C928 1.404 . S
C929 H941 0.930 . S
C930 C926 1.524 . S
C930 H942 0.956 . S
C930 H943 0.961 . S
C930 H944 0.961 . S
C931 C928 1.539 . S
C931 H945 0.958 . S
C931 H946 0.961 . S
C931 H947 0.960 . S
H932 C916 0.931 . S
H933 C921 0.929 . S
H934 C922 0.960 . S
H935 C922 0.962 . S
H936 C922 0.960 . S
H937 C923 0.961 . S
H938 C923 0.961 . S
H939 C923 0.961 . S
H940 C924 0.931 . S
H941 C929 0.930 . S
H942 C930 0.956 . S
H943 C930 0.961 . S
H944 C930 0.961 . S
H945 C931 0.958 . S
H946 C931 0.961 . S
H947 C931 0.960 . S
C948 C949 1.391 . S
C948 C950 1.394 . S
C948 H964 0.931 . S
C949 C948 1.391 . S
C949 C953 1.376 . S
C950 C948 1.394 . S
C950 C951 1.369 . S
C950 C954 1.531 . S
C951 C950 1.369 . S
C951 C952 1.410 . S
C951 C959 1.503 . S
C952 C951 1.410 . S
C952 C953 1.392 . S
C952 C955 1.511 . S
C953 C949 1.376 . S
C953 C952 1.392 . S
C953 H965 0.929 . S
C954 C950 1.531 . S
C954 H966 0.960 . S
C954 H967 0.962 . S
C954 H968 0.960 . S
C955 C952 1.511 . S
C955 H969 0.961 . S
C955 H970 0.961 . S
C955 H971 0.961 . S
C956 C957 1.370 . S
C956 C958 1.363 . S
C956 H972 0.931 . S
C957 C956 1.370 . S
C957 C961 1.408 . S
C958 C956 1.363 . S
C958 C959 1.370 . S
C958 C962 1.524 . S
C959 C951 1.503 . S
C959 C958 1.370 . S
C959 C960 1.403 . S
C960 C959 1.403 . S
C960 C961 1.404 . S
C960 C963 1.539 . S
C961 C957 1.408 . S
C961 C960 1.404 . S
C961 H973 0.930 . S
C962 C958 1.524 . S
C962 H974 0.956 . S
C962 H975 0.961 . S
C962 H976 0.961 . S
C963 C960 1.539 . S
C963 H977 0.958 . S
C963 H978 0.961 . S
C963 H979 0.960 . S
H964 C948 0.931 . S
H965 C953 0.929 . S
H966 C954 0.960 . S
H967 C954 0.962 . S
H968 C954 0.960 . S
H969 C955 0.961 . S
H970 C955 0.961 . S
H971 C955 0.961 . S
H972 C956 0.931 . S
H973 C961 0.930 . S
H974 C962 0.956 . S
H975 C962 0.961 . S
H976 C962 0.961 . S
H977 C963 0.958 . S
H978 C963 0.961 . S
H979 C963 0.960 . S
C980 C981 1.391 . S
C980 C982 1.394 . S
C980 H996 0.931 . S
C981 C980 1.391 . S
C981 C985 1.376 . S
C982 C980 1.394 . S
C982 C983 1.369 . S
C982 C986 1.531 . S
C983 C982 1.369 . S
C983 C984 1.410 . S
C983 C991 1.503 . S
C984 C983 1.410 . S
C984 C985 1.392 . S
C984 C987 1.511 . S
C985 C981 1.376 . S
C985 C984 1.392 . S
C985 H997 0.929 . S
C986 C982 1.531 . S
C986 H998 0.960 . S
C986 H999 0.962 . S
C986 H1000 0.960 . S
C987 C984 1.511 . S
C987 H1001 0.961 . S
C987 H1002 0.961 . S
C987 H1003 0.961 . S
C988 C989 1.370 . S
C988 C990 1.363 . S
C988 H1004 0.931 . S
C989 C988 1.370 . S
C989 C993 1.408 . S
C990 C988 1.363 . S
C990 C991 1.370 . S
C990 C994 1.524 . S
C991 C983 1.503 . S
C991 C990 1.370 . S
C991 C992 1.403 . S
C992 C991 1.403 . S
C992 C993 1.404 . S
C992 C995 1.539 . S
C993 C989 1.408 . S
C993 C992 1.404 . S
C993 H1005 0.930 . S
C994 C990 1.524 . S
C994 H1006 0.956 . S
C994 H1007 0.961 . S
C994 H1008 0.961 . S
C995 C992 1.539 . S
C995 H1009 0.958 . S
C995 H1010 0.961 . S
C995 H1011 0.960 . S
H996 C980 0.931 . S
H997 C985 0.929 . S
H998 C986 0.960 . S
H999 C986 0.962 . S
H1000 C986 0.960 . S
H1001 C987 0.961 . S
H1002 C987 0.961 . S
H1003 C987 0.961 . S
H1004 C988 0.931 . S
H1005 C993 0.930 . S
H1006 C994 0.956 . S
H1007 C994 0.961 . S
H1008 C994 0.961 . S
H1009 C995 0.958 . S
H1010 C995 0.961 . S
H1011 C995 0.960 . S
C1012 C1013 1.391 . S
C1012 C1014 1.394 . S
C1012 H1028 0.931 . S
C1013 C1012 1.391 . S
C1013 C1017 1.376 . S
C1014 C1012 1.394 . S
C1014 C1015 1.369 . S
C1014 C1018 1.531 . S
C1015 C1014 1.369 . S
C1015 C1016 1.410 . S
C1015 C1023 1.503 . S
C1016 C1015 1.410 . S
C1016 C1017 1.392 . S
C1016 C1019 1.511 . S
C1017 C1013 1.376 . S
C1017 C1016 1.392 . S
C1017 H1029 0.929 . S
C1018 C1014 1.531 . S
C1018 H1030 0.960 . S
C1018 H1031 0.962 . S
C1018 H1032 0.960 . S
C1019 C1016 1.511 . S
C1019 H1033 0.961 . S
C1019 H1034 0.961 . S
C1019 H1035 0.961 . S
C1020 C1021 1.370 . S
C1020 C1022 1.363 . S
C1020 H1036 0.931 . S
C1021 C1020 1.370 . S
C1021 C1025 1.408 . S
C1022 C1020 1.363 . S
C1022 C1023 1.370 . S
C1022 C1026 1.524 . S
C1023 C1015 1.503 . S
C1023 C1022 1.370 . S
C1023 C1024 1.403 . S
C1024 C1023 1.403 . S
C1024 C1025 1.404 . S
C1024 C1027 1.539 . S
C1025 C1021 1.408 . S
C1025 C1024 1.404 . S
C1025 H1037 0.930 . S
C1026 C1022 1.524 . S
C1026 H1038 0.956 . S
C1026 H1039 0.961 . S
C1026 H1040 0.961 . S
C1027 C1024 1.539 . S
C1027 H1041 0.958 . S
C1027 H1042 0.961 . S
C1027 H1043 0.960 . S
H1028 C1012 0.931 . S
H1029 C1017 0.929 . S
H1030 C1018 0.960 . S
H1031 C1018 0.962 . S
H1032 C1018 0.960 . S
H1033 C1019 0.961 . S
H1034 C1019 0.961 . S
H1035 C1019 0.961 . S
H1036 C1020 0.931 . S
H1037 C1025 0.930 . S
H1038 C1026 0.956 . S
H1039 C1026 0.961 . S
H1040 C1026 0.961 . S
H1041 C1027 0.958 . S
H1042 C1027 0.961 . S
H1043 C1027 0.960 . S
C1044 C1045 1.391 . S
C1044 C1046 1.394 . S
C1044 H1060 0.931 . S
C1045 C1044 1.391 . S
C1045 C1049 1.376 . S
C1046 C1044 1.394 . S
C1046 C1047 1.369 . S
C1046 C1050 1.531 . S
C1047 C1046 1.369 . S
C1047 C1048 1.410 . S
C1047 C1055 1.503 . S
C1048 C1047 1.410 . S
C1048 C1049 1.392 . S
C1048 C1051 1.511 . S
C1049 C1045 1.376 . S
C1049 C1048 1.392 . S
C1049 H1061 0.929 . S
C1050 C1046 1.531 . S
C1050 H1062 0.960 . S
C1050 H1063 0.962 . S
C1050 H1064 0.960 . S
C1051 C1048 1.511 . S
C1051 H1065 0.961 . S
C1051 H1066 0.961 . S
C1051 H1067 0.961 . S
C1052 C1053 1.370 . S
C1052 C1054 1.363 . S
C1052 H1068 0.931 . S
C1053 C1052 1.370 . S
C1053 C1057 1.408 . S
C1054 C1052 1.363 . S
C1054 C1055 1.370 . S
C1054 C1058 1.524 . S
C1055 C1047 1.503 . S
C1055 C1054 1.370 . S
C1055 C1056 1.403 . S
C1056 C1055 1.403 . S
C1056 C1057 1.404 . S
C1056 C1059 1.539 . S
C1057 C1053 1.408 . S
C1057 C1056 1.404 . S
C1057 H1069 0.930 . S
C1058 C1054 1.524 . S
C1058 H1070 0.956 . S
C1058 H1071 0.961 . S
C1058 H1072 0.961 . S
C1059 C1056 1.539 . S
C1059 H1073 0.958 . S
C1059 H1074 0.961 . S
C1059 H1075 0.960 . S
H1060 C1044 0.931 . S
H1061 C1049 0.929 . S
H1062 C1050 0.960 . S
H1063 C1050 0.962 . S
H1064 C1050 0.960 . S
H1065 C1051 0.961 . S
H1066 C1051 0.961 . S
H1067 C1051 0.961 . S
H1068 C1052 0.931 . S
H1069 C1057 0.930 . S
H1070 C1058 0.956 . S
H1071 C1058 0.961 . S
H1072 C1058 0.961 . S
H1073 C1059 0.958 . S
H1074 C1059 0.961 . S
H1075 C1059 0.960 . S
C1076 C1077 1.391 . S
C1076 C1078 1.394 . S
C1076 H1092 0.931 . S
C1077 C1076 1.391 . S
C1077 C1081 1.376 . S
C1078 C1076 1.394 . S
C1078 C1079 1.369 . S
C1078 C1082 1.531 1_554 S
C1079 C1078 1.369 . S
C1079 C1080 1.410 . S
C1079 C1087 1.503 1_554 S
C1080 C1079 1.410 . S
C1080 C1081 1.392 . S
C1080 C1083 1.511 . S
C1081 C1077 1.376 . S
C1081 C1080 1.392 . S
C1081 H1093 0.929 . S
C1082 C1078 1.531 1_556 S
C1082 H1094 0.960 . S
C1082 H1095 0.962 . S
C1082 H1096 0.960 . S
C1083 C1080 1.511 . S
C1083 H1097 0.961 . S
C1083 H1098 0.961 . S
C1083 H1099 0.961 . S
C1084 C1085 1.370 . S
C1084 C1086 1.363 . S
C1084 H1100 0.931 . S
C1085 C1084 1.370 . S
C1085 C1089 1.408 . S
C1086 C1084 1.363 . S
C1086 C1087 1.370 . S
C1086 C1090 1.524 1_556 S
C1087 C1079 1.503 1_556 S
C1087 C1086 1.370 . S
C1087 C1088 1.403 . S
C1088 C1087 1.403 . S
C1088 C1089 1.404 . S
C1088 C1091 1.539 . S
C1089 C1085 1.408 . S
C1089 C1088 1.404 . S
C1089 H1101 0.930 . S
C1090 C1086 1.524 1_554 S
C1090 H1102 0.956 . S
C1090 H1103 0.961 . S
C1090 H1104 0.961 . S
C1091 C1088 1.539 . S
C1091 H1105 0.958 . S
C1091 H1106 0.961 . S
C1091 H1107 0.960 . S
H1092 C1076 0.931 . S
H1093 C1081 0.929 . S
H1094 C1082 0.960 . S
H1095 C1082 0.962 . S
H1096 C1082 0.960 . S
H1097 C1083 0.961 . S
H1098 C1083 0.961 . S
H1099 C1083 0.961 . S
H1100 C1084 0.931 . S
H1101 C1089 0.930 . S
H1102 C1090 0.956 . S
H1103 C1090 0.961 . S
H1104 C1090 0.961 . S
H1105 C1091 0.958 . S
H1106 C1091 0.961 . S
H1107 C1091 0.960 . S
C1108 C1109 1.391 . S
C1108 C1110 1.394 . S
C1108 H1124 0.931 . S
C1109 C1108 1.391 . S
C1109 C1113 1.376 . S
C1110 C1108 1.394 . S
C1110 C1111 1.369 . S
C1110 C1114 1.531 . S
C1111 C1110 1.369 . S
C1111 C1112 1.410 . S
C1111 C1119 1.503 . S
C1112 C1111 1.410 . S
C1112 C1113 1.392 . S
C1112 C1115 1.511 . S
C1113 C1109 1.376 . S
C1113 C1112 1.392 . S
C1113 H1125 0.929 . S
C1114 C1110 1.531 . S
C1114 H1126 0.960 . S
C1114 H1127 0.962 . S
C1114 H1128 0.960 . S
C1115 C1112 1.511 . S
C1115 H1129 0.961 . S
C1115 H1130 0.961 . S
C1115 H1131 0.961 . S
C1116 C1117 1.370 . S
C1116 C1118 1.363 . S
C1116 H1132 0.931 . S
C1117 C1116 1.370 . S
C1117 C1121 1.408 . S
C1118 C1116 1.363 . S
C1118 C1119 1.370 . S
C1118 C1122 1.524 . S
C1119 C1111 1.503 . S
C1119 C1118 1.370 . S
C1119 C1120 1.403 . S
C1120 C1119 1.403 . S
C1120 C1121 1.404 . S
C1120 C1123 1.539 . S
C1121 C1117 1.408 . S
C1121 C1120 1.404 . S
C1121 H1133 0.930 . S
C1122 C1118 1.524 . S
C1122 H1134 0.956 . S
C1122 H1135 0.961 . S
C1122 H1136 0.961 . S
C1123 C1120 1.539 . S
C1123 H1137 0.958 . S
C1123 H1138 0.961 . S
C1123 H1139 0.960 . S
H1124 C1108 0.931 . S
H1125 C1113 0.929 . S
H1126 C1114 0.960 . S
H1127 C1114 0.962 . S
H1128 C1114 0.960 . S
H1129 C1115 0.961 . S
H1130 C1115 0.961 . S
H1131 C1115 0.961 . S
H1132 C1116 0.931 . S
H1133 C1121 0.930 . S
H1134 C1122 0.956 . S
H1135 C1122 0.961 . S
H1136 C1122 0.961 . S
H1137 C1123 0.958 . S
H1138 C1123 0.961 . S
H1139 C1123 0.960 . S
C381 C365 1.496 . S
C373 C45 1.509 . S
C405 C84 1.495 . S
C413 C294 1.454 . S
C437 C126 1.507 . S
C445 C308 1.498 . S
C469 C189 1.488 . S
C477 C322 1.468 . S
C509 C336 1.482 . S
C501 C228 1.520 . S
C533 C270 1.479 . S
C541 C351 1.454 . S
C565 C69 1.492 . S
C573 C309 1.472 . S
C597 C141 1.515 . S
C605 C323 1.489 . S
C629 C174 1.490 . S
C637 C337 1.459 . S
C669 C350 1.478 . S
C661 C213 1.504 . S
C701 C364 1.473 . S
C693 C285 1.484 . S
C733 C295 1.491 . S
C725 C30 1.514 . S
C757 C36 1.534 . S
C765 C311 1.503 . S
C789 C93 1.590 . S
C797 C325 1.555 . S
C829 C339 1.520 . S
C821 C117 1.518 . S
C853 C180 1.596 . S
C861 C352 1.558 . S
C893 C366 1.507 . S
C885 C237 1.533 . S
C925 C297 1.559 . S
C917 C261 1.563 . S
C957 C367 1.556 . S
C949 C78 1.561 . S
C981 C132 1.522 . S
C989 C296 1.515 . S
C1021 C310 1.568 . S
C1013 C165 1.571 . S
C1045 C222 1.497 . S
C1053 C324 1.519 . S
C1077 C276 1.581 . S
C1085 C338 1.571 . S
C1109 C21 1.525 . S
C1117 C353 1.504 . S
