# Generated by pormake.
# Topology pyr, (3,6)-cn, num edge types: 1
# Building blocks:
#     Node 0, Type 0, BuildingBlock: BETDIP_clean_linker_0, # of connection points: 3
#     Node 1, Type 0, BuildingBlock: BETDIP_clean_linker_0, # of connection points: 3
#     Node 2, Type 0, BuildingBlock: BETDIP_clean_linker_0, # of connection points: 3
#     Node 3, Type 0, BuildingBlock: BETDIP_clean_linker_0, # of connection points: 3
#     Node 4, Type 0, BuildingBlock: BETDIP_clean_linker_0, # of connection points: 3
#     Node 5, Type 0, BuildingBlock: BETDIP_clean_linker_0, # of connection points: 3
#     Node 6, Type 0, BuildingBlock: BETDIP_clean_linker_0, # of connection points: 3
#     Node 7, Type 0, BuildingBlock: BETDIP_clean_linker_0, # of connection points: 3
#     Node 8, Type 1, BuildingBlock: PAMTUU_clean_sbu_0, # of connection points: 6
#     Node 9, Type 1, BuildingBlock: PAMTUU_clean_sbu_0, # of connection points: 6
#     Node 10, Type 1, BuildingBlock: PAMTUU_clean_sbu_0, # of connection points: 6
#     Node 11, Type 1, BuildingBlock: PAMTUU_clean_sbu_0, # of connection points: 6
#     Edge 12, Type (0, 1), BuildingBlock: EZIPEK_clean_linker_0, # of connection points: 2
#     Edge 13, Type (0, 1), BuildingBlock: EZIPEK_clean_linker_0, # of connection points: 2
#     Edge 14, Type (0, 1), BuildingBlock: EZIPEK_clean_linker_0, # of connection points: 2
#     Edge 15, Type (0, 1), BuildingBlock: EZIPEK_clean_linker_0, # of connection points: 2
#     Edge 16, Type (0, 1), BuildingBlock: EZIPEK_clean_linker_0, # of connection points: 2
#     Edge 17, Type (0, 1), BuildingBlock: EZIPEK_clean_linker_0, # of connection points: 2
#     Edge 18, Type (0, 1), BuildingBlock: EZIPEK_clean_linker_0, # of connection points: 2
#     Edge 19, Type (0, 1), BuildingBlock: EZIPEK_clean_linker_0, # of connection points: 2
#     Edge 20, Type (0, 1), BuildingBlock: EZIPEK_clean_linker_0, # of connection points: 2
#     Edge 21, Type (0, 1), BuildingBlock: EZIPEK_clean_linker_0, # of connection points: 2
#     Edge 22, Type (0, 1), BuildingBlock: EZIPEK_clean_linker_0, # of connection points: 2
#     Edge 23, Type (0, 1), BuildingBlock: EZIPEK_clean_linker_0, # of connection points: 2
#     Edge 24, Type (0, 1), BuildingBlock: EZIPEK_clean_linker_0, # of connection points: 2
#     Edge 25, Type (0, 1), BuildingBlock: EZIPEK_clean_linker_0, # of connection points: 2
#     Edge 26, Type (0, 1), BuildingBlock: EZIPEK_clean_linker_0, # of connection points: 2
#     Edge 27, Type (0, 1), BuildingBlock: EZIPEK_clean_linker_0, # of connection points: 2
#     Edge 28, Type (0, 1), BuildingBlock: EZIPEK_clean_linker_0, # of connection points: 2
#     Edge 29, Type (0, 1), BuildingBlock: EZIPEK_clean_linker_0, # of connection points: 2
#     Edge 30, Type (0, 1), BuildingBlock: EZIPEK_clean_linker_0, # of connection points: 2
#     Edge 31, Type (0, 1), BuildingBlock: EZIPEK_clean_linker_0, # of connection points: 2
#     Edge 32, Type (0, 1), BuildingBlock: EZIPEK_clean_linker_0, # of connection points: 2
#     Edge 33, Type (0, 1), BuildingBlock: EZIPEK_clean_linker_0, # of connection points: 2
#     Edge 34, Type (0, 1), BuildingBlock: EZIPEK_clean_linker_0, # of connection points: 2
#     Edge 35, Type (0, 1), BuildingBlock: EZIPEK_clean_linker_0, # of connection points: 2
# Relax obj value: 0.191
# Max RMSD: 0.177
# Mean RMSD: 0.134
data_MOF--net-pyr--node1-PAMTUU_clean_sbu_0--node2-BETDIP_clean_linker_0--edge1-EZIPEK_clean_linker_0
_symmetry_space_group_name_H-M    P1
_symmetry_Int_Tables_number       1
_symmetry_cell_setting            triclinic
loop_
_symmetry_equiv_pos_as_xyz
'x, y, z'
_cell_length_a     27.794739
_cell_length_b     28.655939
_cell_length_c     28.895278
_cell_angle_alpha  91.635023
_cell_angle_beta   87.256062
_cell_angle_gamma 108.45241
loop_
_atom_site_label
_atom_site_type_symbol
_atom_site_fract_x
_atom_site_fract_y
_atom_site_fract_z
_atom_type_partial_charge
H0 H 0.37412 0.35847 0.25103 0.0
H1 H 0.46204 0.32403 0.13601 0.0
H2 H 0.41947 0.22906 0.25376 0.0
H3 H 0.41138 0.44673 0.20869 0.0
C4 C 0.39108 0.42141 0.18233 0.0
C5 C 0.39584 0.33642 0.23536 0.0
C6 C 0.39585 0.29377 0.25777 0.0
C7 C 0.41951 0.34748 0.19114 0.0
C8 C 0.44514 0.31654 0.1707 0.0
C9 C 0.44563 0.27389 0.19339 0.0
C10 C 0.4213 0.26306 0.23708 0.0
N11 N 0.41275 0.38555 0.16432 0.0
H12 H 0.103 0.80686 0.78127 0.0
H13 H 0.14214 0.73024 0.66234 0.0
H14 H 0.2382 0.76496 0.77884 0.0
H15 H 0.11531 0.79131 0.62882 0.0
C16 C 0.0854 0.79743 0.65135 0.0
C17 C 0.12633 0.78651 0.76502 0.0
C18 C 0.17082 0.78658 0.7857 0.0
C19 C 0.11613 0.76717 0.72025 0.0
C20 C 0.14896 0.74438 0.6974 0.0
C21 C 0.19247 0.74252 0.71917 0.0
C22 C 0.2028 0.76321 0.76343 0.0
N23 N 0.07766 0.77854 0.69687 0.0
H24 H 0.75554 0.46188 0.85845 0.0
H25 H 0.61946 0.33621 0.84932 0.0
H26 H 0.72814 0.34266 0.9536 0.0
H27 H 0.59195 0.39211 0.80132 0.0
C28 C 0.62559 0.41819 0.78549 0.0
C29 C 0.73165 0.4264 0.87084 0.0
C30 C 0.74757 0.40554 0.90915 0.0
C31 C 0.68534 0.40269 0.84838 0.0
C32 C 0.65466 0.35553 0.86558 0.0
C33 C 0.67003 0.33294 0.90375 0.0
C34 C 0.71627 0.35898 0.92461 0.0
N35 N 0.67321 0.42722 0.80858 0.0
H36 H 0.80344 0.63545 0.36397 0.0
H37 H 0.93667 0.76191 0.34228 0.0
H38 H 0.83382 0.75779 0.45974 0.0
H39 H 0.96535 0.70519 0.29795 0.0
C40 C 0.93207 0.67904 0.28325 0.0
C41 C 0.82763 0.67137 0.37488 0.0
C42 C 0.81359 0.69376 0.41505 0.0
C43 C 0.87252 0.69461 0.34861 0.0
C44 C 0.90295 0.74242 0.36262 0.0
C45 C 0.88914 0.76557 0.40301 0.0
C46 C 0.84483 0.74037 0.42902 0.0
N47 N 0.88406 0.66913 0.30799 0.0
H48 H 0.60248 0.77573 0.96362 0.0
H49 H 0.69515 0.75995 0.84701 0.0
H50 H 0.62076 0.86888 0.84466 0.0
H51 H 0.6706 0.67966 0.87862 0.0
C52 C 0.68175 0.69194 0.91349 0.0
C53 C 0.61408 0.78563 0.92837 0.0
C54 C 0.59999 0.82212 0.90522 0.0
C55 C 0.64655 0.7619 0.90712 0.0
C56 C 0.66756 0.77574 0.86275 0.0
C57 C 0.65791 0.81431 0.84075 0.0
C58 C 0.62452 0.83709 0.86162 0.0
N59 N 0.66271 0.72885 0.9334 0.0
H60 H 0.94838 0.28842 0.32602 0.0
H61 H 0.90931 0.35954 0.44845 0.0
H62 H 0.81687 0.33637 0.32953 0.0
H63 H 0.92132 0.274 0.4668 0.0
C64 C 0.95817 0.27938 0.44935 0.0
C65 C 0.92578 0.3091 0.34299 0.0
C66 C 0.88256 0.3121 0.32202 0.0
C67 C 0.93575 0.32623 0.38845 0.0
C68 C 0.90327 0.34852 0.41246 0.0
C69 C 0.86087 0.35322 0.3907 0.0
C70 C 0.85143 0.3359 0.34518 0.0
N71 N 0.97262 0.31221 0.41168 0.0
H72 H 0.3063 0.63872 0.23327 0.0
H73 H 0.44087 0.76574 0.24512 0.0
H74 H 0.33244 0.75975 0.14074 0.0
H75 H 0.46144 0.72069 0.30514 0.0
C76 C 0.43184 0.68636 0.31284 0.0
C77 C 0.32976 0.67474 0.2218 0.0
C78 C 0.314 0.69603 0.18372 0.0
C79 C 0.37531 0.6988 0.24527 0.0
C80 C 0.40575 0.74646 0.22876 0.0
C81 C 0.39049 0.76936 0.19064 0.0
C82 C 0.34447 0.74324 0.1695 0.0
N83 N 0.38738 0.67333 0.2845 0.0
H84 H 0.11039 0.31694 0.73711 0.0
H85 H 0.23978 0.44912 0.72825 0.0
H86 H 0.22652 0.33091 0.62964 0.0
H87 H 0.21564 0.46389 0.80116 0.0
C88 C 0.17562 0.44469 0.80786 0.0
C89 C 0.14603 0.3382 0.72043 0.0
C90 C 0.16542 0.31803 0.68134 0.0
C91 C 0.17242 0.38536 0.7385 0.0
C92 C 0.21895 0.41264 0.716 0.0
C93 C 0.23858 0.39311 0.67656 0.0
C94 C 0.21147 0.34601 0.65972 0.0
N95 N 0.15037 0.40397 0.77827 0.0
Tb96 Tb 0.08578 0.04944 0.51399 0.0
Tb97 Tb 0.97339 1.03457 0.56907 0.0
C98 C 0.9886 0.95833 0.4885 0.0
C99 C 0.21208 0.10545 0.45691 0.0
C100 C 0.27645 0.18441 0.40637 0.0
C101 C 0.27685 0.13635 0.39653 0.0
C102 C 0.24484 0.09706 0.42172 0.0
C103 C 0.21335 0.15383 0.46836 0.0
C104 C 0.24569 0.19331 0.44325 0.0
C105 C 0.17312 0.06321 0.47742 0.0
O106 O 0.05373 0.09488 0.47445 0.0
O107 O 0.98515 0.09527 0.52269 0.0
O108 O 0.0262 0.0949 0.60726 0.0
O109 O 0.09705 0.11552 0.55772 0.0
O110 O 0.89531 1.02169 0.562 0.0
O111 O 0.92916 0.03804 0.62881 0.0
O112 O 0.99956 0.98167 0.60346 0.0
O113 O 0.07728 0.99278 0.56496 0.0
O114 O 0.03679 0.98331 0.48064 0.0
O115 O 0.95911 0.97276 0.51904 0.0
C116 C 1.01678 0.11223 0.48755 0.0
O117 O 0.16402 0.06542 0.52202 0.0
O118 O 0.13148 0.04755 0.45468 0.0
C119 C 0.07086 0.12507 0.59383 0.0
C120 C 0.84559 0.98637 0.62812 0.0
C121 C 0.77649 0.91687 0.6849 0.0
C122 C 0.77368 0.96472 0.68283 0.0
C123 C 0.80808 0.99932 0.65448 0.0
C124 C 0.84649 0.93764 0.62785 0.0
C125 C 0.81175 0.90282 0.65607 0.0
C126 C 0.88718 1.02545 0.60657 0.0
C127 C 0.04094 0.96975 0.59485 0.0
H128 H 0.30035 0.12909 0.368 0.0
H129 H 0.24402 0.05993 0.41237 0.0
H130 H 0.18801 0.16084 0.49535 0.0
H131 H 0.24489 0.23028 0.45093 0.0
H132 H 0.74681 0.97601 0.70519 0.0
H133 H 0.80724 1.03689 0.65518 0.0
H134 H 0.87564 0.92735 0.60785 0.0
H135 H 0.81452 0.86605 0.65778 0.0
Tb136 Tb 0.58355 0.06085 0.0702 0.0
Tb137 Tb 0.4743 0.04274 1.02512 0.0
C138 C 0.54734 0.98252 0.98975 0.0
C139 C 0.7061 0.1158 0.12668 0.0
C140 C 0.77968 0.18855 0.17414 0.0
C141 C 0.79307 0.15118 0.14973 0.0
C142 C 0.75618 0.11467 0.1263 0.0
C143 C 0.69404 0.15578 0.14748 0.0
C144 C 0.73065 0.19182 0.1714 0.0
C145 C 0.66621 0.0735 0.10848 0.0
O146 O 0.60158 0.12613 1.02553 0.0
O147 O 0.52479 0.11159 0.99168 0.0
O148 O 0.4721 0.07892 0.09155 0.0
O149 O 0.55614 0.11965 0.09775 0.0
O150 O 0.4324 0.04232 0.96674 0.0
O151 O 0.39686 1.0349 1.03548 0.0
O152 O 0.45842 0.97414 0.06422 0.0
O153 O 0.53075 0.99448 0.10609 0.0
O154 O 0.58544 1.0135 1.01075 0.0
O155 O 0.50139 0.98618 0.99215 0.0
C156 C 0.57256 0.13924 0.99696 0.0
O157 O 0.62216 0.06244 0.13083 0.0
O158 O 0.66194 0.07154 0.0637 0.0
C159 C 0.50862 0.11648 0.10649 0.0
C160 C 0.34789 0.99218 0.97469 0.0
C161 C 0.27387 0.91839 0.92883 0.0
C162 C 0.26597 0.96347 0.9399 0.0
C163 C 0.30303 1.00034 0.96267 0.0
C164 C 0.35388 0.94572 0.96709 0.0
C165 C 0.31697 0.90893 0.94411 0.0
C166 C 0.38984 1.03341 0.99118 0.0
C167 C 0.48529 0.96351 0.09649 0.0
H168 H 0.83077 0.14816 0.15192 0.0
H169 H 0.76609 0.08425 0.10997 0.0
H170 H 0.65573 0.1577 0.14745 0.0
H171 H 0.7199 0.22048 0.19023 0.0
H172 H 0.23306 0.9713 0.92783 0.0
H173 H 0.29793 1.03602 0.96859 0.0
H174 H 0.38832 0.93891 0.97653 0.0
H175 H 0.32367 0.87442 0.93535 0.0
Tb176 Tb 0.52916 0.50285 0.5177 0.0
Tb177 Tb 0.52458 0.59696 0.57996 0.0
C178 C 0.48516 0.58489 0.47577 0.0
C179 C 0.58875 0.41798 0.46462 0.0
C180 C 0.68153 0.39867 0.45137 0.0
C181 C 0.64221 0.37862 0.42072 0.0
C182 C 0.59603 0.38837 0.42724 0.0
C183 C 0.62773 0.43702 0.4958 0.0
C184 C 0.67381 0.42742 0.48929 0.0
C185 C 0.54306 0.4334 0.46895 0.0
O186 O 0.60746 0.55108 0.5193 0.0
O187 O 0.59408 0.62445 0.53648 0.0
O188 O 0.56844 0.56239 0.62328 0.0
O189 O 0.55138 0.48675 0.58716 0.0
O190 O 0.52863 0.67151 0.58428 0.0
O191 O 0.51299 0.62714 0.64512 0.0
O192 O 0.45543 0.53902 0.60038 0.0
O193 O 0.44934 0.48127 0.54213 0.0
O194 O 0.50761 0.55072 0.46794 0.0
O195 O 0.47945 0.59968 0.51895 0.0
C196 C 0.62269 0.59924 0.51859 0.0
O197 O 0.51931 0.42722 0.5094 0.0
O198 O 0.54923 0.47707 0.45323 0.0
C199 C 0.56867 0.51604 0.62308 0.0
C200 C 0.46405 0.67893 0.63628 0.0
C201 C 0.37067 0.69545 0.65573 0.0
C202 C 0.41438 0.72357 0.67829 0.0
C203 C 0.46091 0.71529 0.66865 0.0
C204 C 0.42035 0.65116 0.6135 0.0
C205 C 0.37402 0.65945 0.62303 0.0
C206 C 0.5118 0.66785 0.62724 0.0
C207 C 0.43041 0.49816 0.57919 0.0
H208 H 0.64772 0.35634 0.39128 0.0
H209 H 0.56658 0.37383 0.40259 0.0
H210 H 0.62289 0.46035 0.52452 0.0
H211 H 0.70376 0.44313 0.51322 0.0
H212 H 0.41231 0.7516 0.70357 0.0
H213 H 0.49417 0.73683 0.68669 0.0
H214 H 0.42199 0.62269 0.58863 0.0
H215 H 0.3407 0.63754 0.60529 0.0
Tb216 Tb 0.03508 0.599 1.01701 0.0
Tb217 Tb 0.03162 0.49915 0.06983 0.0
C218 C 0.08355 0.52177 0.96921 0.0
C219 C 0.97719 0.68324 0.97375 0.0
C220 C 0.87934 0.68799 0.96003 0.0
C221 C 0.92026 0.71248 0.92989 0.0
C222 C 0.96898 0.7098 0.93655 0.0
C223 C 0.9366 0.66078 1.00493 0.0
C224 C 0.8881 0.66298 0.99807 0.0
C225 C 0.02516 0.67225 0.97694 0.0
O226 O 0.95606 0.54988 1.01129 0.0
O227 O 0.96539 0.47476 1.02483 0.0
O228 O 0.98231 0.52997 0.11448 0.0
O229 O 1.00934 0.6093 0.08808 0.0
O230 O 0.03119 0.42552 0.06654 0.0
O231 O 0.03373 0.46339 0.13196 0.0
O232 O 0.09836 0.55606 0.09669 0.0
O233 O 0.11256 0.61828 0.04408 0.0
O234 O 0.06177 0.55571 0.9638 0.0
O235 O 0.08478 0.50371 1.01027 0.0
C236 C 0.93929 0.50142 1.00806 0.0
O237 O 0.04221 0.67442 1.01838 0.0
O238 O 0.02603 0.63209 0.95535 0.0
C239 C 0.98596 0.57688 0.11954 0.0
C240 C 0.09006 0.41827 0.11928 0.0
C241 C 0.18535 0.41135 0.14081 0.0
C242 C 0.14046 0.37855 0.16043 0.0
C243 C 0.09296 0.38216 0.14984 0.0
C244 C 0.13501 0.45026 0.09921 0.0
C245 C 0.18214 0.44689 0.10989 0.0
C246 C 0.0414 0.4259 0.1101 0.0
C247 C 0.12677 0.59866 0.07997 0.0
H248 H 0.914 0.73186 0.90027 0.0
H249 H 0.99965 0.72677 0.9118 0.0
H250 H 0.94198 0.63968 1.03357 0.0
H251 H 0.85703 0.64381 1.02159 0.0
H252 H 0.14233 0.35091 0.18446 0.0
H253 H 0.05875 0.35743 0.16597 0.0
H254 H 0.13373 0.47858 0.07583 0.0
H255 H 0.21626 0.47255 0.09452 0.0
C256 C 0.31019 0.2526 0.29467 0.0
C257 C 0.36291 0.27654 0.29959 0.0
C258 C 0.3565 0.24897 0.37968 0.0
C259 C 0.30426 0.22383 0.3741 0.0
N260 N 0.22828 0.21249 0.33238 0.0
N261 N 0.43403 0.30804 0.34854 0.0
C262 C 0.28005 0.22965 0.33364 0.0
C263 C 0.38531 0.27834 0.34292 0.0
N264 N 0.28961 0.24874 0.25208 0.0
N265 N 0.37871 0.24296 0.41929 0.0
H266 H 0.45573 0.32982 0.32192 0.0
H267 H 0.45149 0.31427 0.38021 0.0
H268 H 0.35791 0.22334 0.44748 0.0
H269 H 0.4177 0.25558 0.42364 0.0
H270 H 0.253 0.22643 0.24525 0.0
H271 H 0.3101 0.26507 0.22241 0.0
H272 H 0.20808 0.22001 0.30568 0.0
H273 H 0.20508 0.19449 0.36011 0.0
C274 C 0.18125 0.80759 0.87053 0.0
C275 C 0.1913 0.82189 0.8236 0.0
C276 C 0.25458 0.89897 0.84605 0.0
C277 C 0.24331 0.8858 0.89323 0.0
N278 N 0.19161 0.83215 0.95166 0.0
N279 N 0.22867 0.88492 0.76691 0.0
C280 C 0.20516 0.84142 0.90593 0.0
C281 C 0.22504 0.86889 0.81151 0.0
N282 N 0.15005 0.76136 0.88094 0.0
N283 N 0.2953 0.93887 0.83399 0.0
H284 H 0.20882 0.86354 0.73998 0.0
H285 H 0.24793 0.921 0.75727 0.0
H286 H 0.3183 0.96234 0.85802 0.0
H287 H 0.30914 0.9465 0.79998 0.0
H288 H 0.1451 0.74659 0.91398 0.0
H289 H 0.13084 0.73656 0.8557 0.0
H290 H 0.161 0.80269 0.96325 0.0
H291 H 0.20903 0.85615 0.97818 0.0
C292 C 0.64189 0.45107 0.70034 0.0
C293 C 0.61669 0.44912 0.74494 0.0
C294 C 0.56006 0.49053 0.70968 0.0
C295 C 0.58688 0.49487 0.6657 0.0
N296 N 0.65926 0.48533 0.62242 0.0
N297 N 0.55736 0.47638 0.79284 0.0
C298 C 0.62945 0.47676 0.66217 0.0
C299 C 0.5774 0.47158 0.74954 0.0
N300 N 0.67625 0.42621 0.69355 0.0
N301 N 0.51601 0.50221 0.7131 0.0
H302 H 0.56914 0.46387 0.82249 0.0
H303 H 0.53292 0.49692 0.80004 0.0
H304 H 0.50205 0.51602 0.68551 0.0
H305 H 0.49097 0.49429 0.7419 0.0
H306 H 0.69169 0.42062 0.66114 0.0
H307 H 0.68666 0.40795 0.72012 0.0
H308 H 0.69375 0.47827 0.61852 0.0
H309 H 0.65149 0.50358 0.59446 0.0
C310 C 0.97821 0.62324 0.24552 0.0
C311 C 0.94044 0.64689 0.243 0.0
C312 C 0.92474 0.61419 0.16286 0.0
C313 C 0.96662 0.5958 0.16364 0.0
N314 N 0.03696 0.58765 0.20463 0.0
N315 N 0.88102 0.66898 0.1971 0.0
C316 C 0.99407 0.60129 0.20485 0.0
C317 C 0.91413 0.64295 0.20122 0.0
N318 N 0.99797 0.62037 0.28737 0.0
N319 N 0.89458 0.6035 0.12551 0.0
H320 H 0.87248 0.69048 0.22397 0.0
H321 H 0.86496 0.67243 0.16608 0.0
H322 H 0.90142 0.58272 0.09722 0.0
H323 H 0.86058 0.61133 0.12421 0.0
H324 H 1.02153 0.59928 0.29279 0.0
H325 H 0.98692 0.63523 0.31788 0.0
H326 H 0.06251 0.59663 0.23118 0.0
H327 H 0.04909 0.57028 0.17635 0.0
C328 C 0.50627 0.22434 0.18699 0.0
C329 C 0.46502 0.23649 0.16925 0.0
C330 C 0.45959 0.1765 0.1064 0.0
C331 C 0.49527 0.15883 0.128 0.0
N332 N 0.5477 0.16205 0.19307 0.0
N333 N 0.39479 0.2156 0.11798 0.0
C334 C 0.51766 0.18189 0.16936 0.0
C335 C 0.43953 0.21023 0.13059 0.0
N336 N 0.53492 0.25372 0.2202 0.0
N337 N 0.44638 0.16305 0.06185 0.0
H338 H 0.37743 0.23868 0.13551 0.0
H339 H 0.37225 0.19318 0.09304 0.0
H340 H 0.46211 0.14068 0.04144 0.0
H341 H 0.42438 0.17891 0.04337 0.0
H342 H 0.56842 0.24951 0.23124 0.0
H343 H 0.5277 0.28517 0.23357 0.0
H344 H 0.56096 0.17458 0.22571 0.0
H345 H 0.55544 0.13005 0.18226 0.0
C346 C 0.10822 0.88907 0.64615 0.0
C347 C 0.07122 0.84197 0.64262 0.0
C348 C 1.01028 0.87904 0.61421 0.0
C349 C 0.04726 0.92651 0.61807 0.0
N350 N 0.12508 0.97744 0.65035 0.0
N351 N 0.98395 0.79281 0.63481 0.0
C352 C 0.09434 0.93168 0.63802 0.0
C353 C 1.02111 0.83728 0.63073 0.0
N354 N 0.15686 0.8931 0.65659 0.0
N355 N 0.96646 0.87294 0.59174 0.0
H356 H 0.99102 0.76112 0.64526 0.0
H357 H 0.94554 0.78823 0.63168 0.0
H358 H 0.95653 0.90171 0.57832 0.0
H359 H 0.94163 0.83864 0.58268 0.0
H360 H 0.18685 0.92588 0.65438 0.0
H361 H 0.1681 0.86297 0.66469 0.0
H362 H 0.15777 0.9835 0.6689 0.0
H363 H 0.11497 1.00916 0.6463 0.0
C364 C 0.7958 0.4523 0.97938 0.0
C365 C 0.79715 0.43193 0.93378 0.0
C366 C 0.89169 0.4595 0.93608 0.0
C367 C 0.89003 0.47638 0.98292 0.0
N368 N 0.83926 0.48262 0.05101 0.0
N369 N 0.8472 0.41053 0.87149 0.0
C370 C 0.84163 0.47111 1.00493 0.0
C371 C 0.84545 0.43424 0.91294 0.0
N372 N 0.75061 0.45508 0.9979 0.0
N373 N 0.93776 0.46885 0.91299 0.0
H374 H 0.8148 0.39235 0.85342 0.0
H375 H 0.88013 0.40555 0.85666 0.0
H376 H 0.97204 0.4859 0.92873 0.0
H377 H 0.94206 0.46314 0.87751 0.0
H378 H 0.74718 0.47394 1.02856 0.0
H379 H 0.71676 0.44194 0.98056 0.0
H380 H 0.80553 0.47502 0.07089 0.0
H381 H 0.87159 0.49618 0.07043 0.0
C382 C 0.76389 0.63922 0.48013 0.0
C383 C 0.76471 0.66948 0.44178 0.0
C384 C 0.67234 0.65247 0.45288 0.0
C385 C 0.67208 0.62538 0.4935 0.0
N386 N 0.71904 0.59998 0.55018 0.0
N387 N 0.72132 0.71135 0.39597 0.0
C388 C 0.71831 0.62055 0.50824 0.0
C389 C 0.71937 0.67806 0.42955 0.0
N390 N 0.80656 0.62771 0.48927 0.0
N391 N 0.62742 0.65161 0.43497 0.0
H392 H 0.75453 0.72953 0.37697 0.0
H393 H 0.69097 0.72377 0.38934 0.0
H394 H 0.59219 0.63272 0.45024 0.0
H395 H 0.62477 0.66584 0.40278 0.0
H396 H 0.80714 0.60157 0.51335 0.0
H397 H 0.84076 0.64168 0.47022 0.0
H398 H 0.75211 0.5993 0.56519 0.0
H399 H 0.68683 0.58772 0.57215 0.0
C400 C 0.32015 0.40643 0.12656 0.0
C401 C 0.33795 0.41843 0.17207 0.0
C402 C 0.25564 0.42792 0.197 0.0
C403 C 0.23637 0.41016 0.15309 0.0
N404 N 0.24727 0.37312 0.07906 0.0
N405 N 0.31879 0.43243 0.25306 0.0
C406 C 0.2677 0.3963 0.11887 0.0
C407 C 0.30466 0.42692 0.20803 0.0
N408 N 0.35363 0.40808 0.08995 0.0
N409 N 0.2281 0.4477 0.22758 0.0
H410 H 0.35404 0.43222 0.26347 0.0
H411 H 0.29367 0.43282 0.28091 0.0
H412 H 0.19201 0.44908 0.22103 0.0
H413 H 0.24283 0.46662 0.2577 0.0
H414 H 0.34299 0.404 0.0556 0.0
H415 H 0.39284 0.41965 0.09318 0.0
H416 H 0.26729 0.35782 0.05498 0.0
H417 H 0.20888 0.36492 0.07238 0.0
C418 C 0.63537 0.2371 0.90118 0.0
C419 C 0.63857 0.28264 0.92442 0.0
C420 C 0.59932 0.23445 0.99496 0.0
C421 C 0.59402 0.18869 0.97128 0.0
N422 N 0.60019 0.14732 0.89874 0.0
N423 N 0.6131 0.32269 0.99096 0.0
C424 C 0.60977 0.19046 0.92336 0.0
C425 C 0.61741 0.28047 0.9706 0.0
N426 N 0.65904 0.23828 0.85851 0.0
N427 N 0.58801 0.23429 0.04144 0.0
H428 H 0.62507 0.35647 0.97423 0.0
H429 H 0.59333 0.32357 1.02232 0.0
H430 H 0.57312 0.20203 0.05999 0.0
H431 H 0.59672 0.26588 0.06225 0.0
H432 H 0.66374 0.20735 0.84163 0.0
H433 H 0.67723 0.27099 0.84119 0.0
H434 H 0.60522 0.14552 0.86288 0.0
H435 H 0.58358 0.11303 0.91391 0.0
C436 C 0.89884 0.85639 0.41451 0.0
C437 C 0.91922 0.81695 0.41866 0.0
C438 C 0.98672 0.87079 0.46664 0.0
C439 C 0.96646 0.91039 0.46232 0.0
N440 N 0.90977 0.94377 0.42424 0.0
N441 N 0.98697 0.78876 0.44248 0.0
C442 C 0.92425 0.90387 0.43406 0.0
C443 C 0.96473 0.82505 0.44257 0.0
N444 N 0.85448 0.84814 0.39233 0.0
N445 N 0.02531 0.8758 0.49592 0.0
H446 H 0.97079 0.75408 0.4276 0.0
H447 H 1.02316 0.79386 0.45411 0.0
H448 H 0.04313 0.90836 0.51361 0.0
H449 H 0.0374 0.84682 0.50573 0.0
H450 H 0.83359 0.87258 0.39334 0.0
H451 H 0.83707 0.81548 0.37438 0.0
H452 H 0.88289 0.94319 0.4002 0.0
H453 H 0.92791 0.97898 0.43721 0.0
C454 C 0.26962 0.75903 0.6657 0.0
C455 C 0.23204 0.72566 0.69427 0.0
C456 C 0.28381 0.67062 0.69523 0.0
C457 C 0.32123 0.70383 0.6664 0.0
N458 N 0.34482 0.77295 0.61505 0.0
N459 N 0.19729 0.64545 0.72764 0.0
C460 C 0.31247 0.74593 0.64866 0.0
C461 C 0.23718 0.6799 0.70607 0.0
N462 N 0.2657 0.80429 0.65686 0.0
N463 N 0.29383 0.63159 0.71405 0.0
H464 H 0.16284 0.6516 0.73607 0.0
H465 H 0.19655 0.60951 0.73325 0.0
H466 H 0.32743 0.62343 0.70677 0.0
H467 H 0.27055 0.60924 0.73937 0.0
H468 H 0.2949 0.83254 0.6414 0.0
H469 H 0.23427 0.81486 0.66755 0.0
H470 H 0.33771 0.80103 0.59728 0.0
H471 H 0.37675 0.76447 0.60195 0.0
C472 C 0.73943 0.86857 0.80573 0.0
C473 C 0.68942 0.83657 0.79951 0.0
C474 C 0.69744 0.85403 0.71652 0.0
C475 C 0.74795 0.88473 0.72267 0.0
N476 N 0.82089 0.91385 0.77028 0.0
N477 N 0.62301 0.79211 0.74927 0.0
C478 C 0.77021 0.88944 0.7664 0.0
C479 C 0.66906 0.82715 0.75487 0.0
N480 N 0.75661 0.88103 0.84944 0.0
N481 N 0.67638 0.85179 0.67439 0.0
H482 H 0.60118 0.77233 0.77691 0.0
H483 H 0.608 0.78004 0.71714 0.0
H484 H 0.69697 0.86955 0.64526 0.0
H485 H 0.63808 0.83456 0.66872 0.0
H486 H 0.79023 0.90877 0.85637 0.0
H487 H 0.73545 0.86655 0.87945 0.0
H488 H 0.84049 0.91355 0.80003 0.0
H489 H 0.84461 0.93113 0.74256 0.0
C490 C 0.82905 0.23086 0.29222 0.0
C491 C 0.86202 0.27899 0.28259 0.0
C492 C 0.84515 0.26651 0.19999 0.0
C493 C 0.81288 0.21822 0.20977 0.0
N494 N 0.78216 0.15037 0.26266 0.0
N495 N 0.90863 0.3404 0.22793 0.0
C496 C 0.80768 0.19906 0.25508 0.0
C497 C 0.8725 0.29611 0.23651 0.0
N498 N 0.81601 0.21636 0.33708 0.0
N499 N 0.8483 0.28429 0.15618 0.0
H500 H 0.92849 0.36298 0.25428 0.0
H501 H 0.92152 0.35328 0.19483 0.0
H502 H 0.83015 0.26269 0.12852 0.0
H503 H 0.86676 0.3208 0.14755 0.0
H504 H 0.78706 0.18443 0.34634 0.0
H505 H 0.83135 0.23791 0.36566 0.0
H506 H 0.78266 0.13296 0.29369 0.0
H507 H 0.7637 0.12598 0.2369 0.0
C508 C 0.42961 0.60563 0.35671 0.0
C509 C 0.43941 0.65783 0.35604 0.0
C510 C 0.48195 0.66205 0.4316 0.0
C511 C 0.46825 0.60963 0.43455 0.0
N512 N 0.41916 0.53188 0.40183 0.0
N513 N 0.46486 0.73318 0.40092 0.0
C514 C 0.4393 0.58168 0.39752 0.0
C515 C 0.4626 0.68499 0.39593 0.0
N516 N 0.4134 0.57863 0.31753 0.0
N517 N 0.51625 0.69084 0.4613 0.0
H518 H 0.4501 0.75111 0.37706 0.0
H519 H 0.47601 0.75365 0.43117 0.0
H520 H 0.53323 0.67657 0.48631 0.0
H521 H 0.53226 0.72876 0.45769 0.0
H522 H 0.41097 0.54171 0.31362 0.0
H523 H 0.40678 0.59418 0.28732 0.0
H524 H 0.39345 0.50969 0.37897 0.0
H525 H 0.42412 0.51337 0.43086 0.0
C526 C 0.16072 0.51541 0.85551 0.0
C527 C 0.14905 0.46363 0.84795 0.0
C528 C 0.08976 0.45062 0.9166 0.0
C529 C 0.10619 0.50197 0.9273 0.0
N530 N 0.16465 0.58233 0.91033 0.0
N531 N 0.11034 0.38225 0.87898 0.0
C532 C 0.14362 0.53411 0.89756 0.0
C533 C 0.11551 0.43127 0.88047 0.0
N534 N 0.18683 0.54706 0.82172 0.0
N535 N 0.04819 0.42016 0.9398 0.0
H536 H 0.13039 0.36673 0.85519 0.0
H537 H 0.09054 0.35794 0.90464 0.0
H538 H 0.02747 0.43268 0.9655 0.0
H539 H 0.0312 0.38351 0.93017 0.0
H540 H 0.19197 0.58469 0.82305 0.0
H541 H 0.19888 0.53523 0.79009 0.0
H542 H 0.19593 0.60637 0.89282 0.0
H543 H 0.15412 0.59717 0.94107 0.0
C544 C 0.54752 0.88086 0.90115 0.0
C545 C 0.5674 0.85095 0.92793 0.0
C546 C 0.56584 0.90267 0.99575 0.0
C547 C 0.55471 0.9377 0.96764 0.0
N548 N 0.53301 0.9595 0.89317 0.0
N549 N 0.54746 0.81568 1.00351 0.0
C550 C 0.54381 0.92614 0.92031 0.0
C551 C 0.56365 0.85629 0.97646 0.0
N552 N 0.52863 0.86367 0.85904 0.0
N553 N 0.5769 0.91232 0.04125 0.0
H554 H 0.53188 0.7807 0.98885 0.0
H555 H 0.54098 0.8175 1.03925 0.0
H556 H 0.5773 0.9448 0.05836 0.0
H557 H 0.58912 0.88867 0.06106 0.0
H558 H 0.50957 0.88119 0.83897 0.0
H559 H 0.52757 0.82871 0.84678 0.0
H560 H 0.52979 0.9554 0.85743 0.0
H561 H 0.53104 0.99331 0.90592 0.0
C562 C 0.9492 0.19078 0.43357 0.0
C563 C 0.97876 0.2376 0.45041 0.0
C564 C 0.04378 0.20269 0.47344 0.0
C565 C 1.01019 0.15487 0.46398 0.0
N566 N 0.93258 0.10231 0.43297 0.0
N567 N 0.05384 0.28941 0.48626 0.0
C568 C 0.96366 0.14873 0.44274 0.0
C569 C 0.02647 0.24413 0.46956 0.0
N570 N 0.90772 0.1868 0.40828 0.0
N571 N 0.09183 0.20828 0.4867 0.0
H572 H 0.0427 0.32064 0.48296 0.0
H573 H 0.08588 0.29574 0.50574 0.0
H574 H 0.10558 0.17873 0.4896 0.0
H575 H 0.11964 0.24221 0.49072 0.0
H576 H 0.88724 0.15477 0.39112 0.0
H577 H 0.89595 0.21687 0.40135 0.0
H578 H 0.89526 0.0943 0.42317 0.0
H579 H 0.94397 0.07122 0.43628 0.0
C580 C 0.22119 0.6847 0.16512 0.0
C581 C 0.26537 0.66972 0.15784 0.0
C582 C 0.21971 0.6099 0.09753 0.0
C583 C 0.17587 0.62544 0.10449 0.0
N584 N 0.13645 0.68074 0.142 0.0
N585 N 0.30588 0.61613 0.11869 0.0
C586 C 0.17725 0.66377 0.13753 0.0
C587 C 0.2642 0.63166 0.12442 0.0
N588 N 0.22057 0.71769 0.20013 0.0
N589 N 0.2192 0.57537 0.06371 0.0
H590 H 0.33914 0.63221 0.13627 0.0
H591 H 0.30775 0.58652 0.09793 0.0
H592 H 0.18816 0.56006 0.04305 0.0
H593 H 0.24966 0.56307 0.05415 0.0
H594 H 0.18879 0.72736 0.21107 0.0
H595 H 0.25145 0.73334 0.22088 0.0
H596 H 0.13573 0.71152 0.16158 0.0
H597 H 0.10357 0.66558 0.12365 0.0
C598 C 0.28997 0.45867 0.6204 0.0
C599 C 0.28819 0.42127 0.65243 0.0
C600 C 0.37843 0.43106 0.63267 0.0
C601 C 0.38027 0.46878 0.60098 0.0
N602 N 0.34044 0.52284 0.56832 0.0
N603 N 0.32895 0.36912 0.6873 0.0
C604 C 0.33666 0.48368 0.59584 0.0
C605 C 0.33208 0.40684 0.65808 0.0
N606 N 0.24626 0.46867 0.61191 0.0
N607 N 0.42196 0.4202 0.64009 0.0
H608 H 0.29708 0.35296 0.70875 0.0
H609 H 0.35683 0.35228 0.68948 0.0
H610 H 0.45586 0.43574 0.62109 0.0
H611 H 0.42578 0.3976 0.66623 0.0
H612 H 0.243 0.49129 0.58552 0.0
H613 H 0.21177 0.45184 0.62961 0.0
H614 H 0.31277 0.54013 0.56731 0.0
H615 H 0.37286 0.53995 0.54782 0.0
C616 C 0.74931 0.6503 0.9064 0.0
C617 C 0.72607 0.68067 0.93257 0.0
C618 C 0.80081 0.71116 0.9797 0.0
C619 C 0.82639 0.6852 0.95053 0.0
N620 N 0.82507 0.6269 0.8883 0.0
N621 N 0.71944 0.71618 1.00827 0.0
C622 C 0.80047 0.65348 0.91463 0.0
C623 C 0.7487 0.70433 0.97349 0.0
N624 N 0.72107 0.61609 0.87614 0.0
N625 N 0.82668 0.74366 1.0124 0.0
H626 H 0.67993 0.70445 1.00782 0.0
H627 H 0.73328 0.7303 0.04035 0.0
H628 H 0.86503 0.74989 1.01802 0.0
H629 H 0.81124 0.76752 1.03109 0.0
H630 H 0.73411 0.59079 0.85723 0.0
H631 H 0.68212 0.60914 0.87356 0.0
H632 H 0.81103 0.60724 0.85841 0.0
H633 H 0.86106 0.62562 0.89538 0.0
C634 C 0.42997 0.86523 0.19412 0.0
C635 C 0.42182 0.81959 0.1695 0.0
C636 C 0.45203 0.86789 0.09723 0.0
C637 C 0.46392 0.91383 0.12211 0.0
N638 N 0.46909 0.95449 0.19677 0.0
N639 N 0.43791 0.7796 0.09892 0.0
C640 C 0.45486 0.91176 0.17138 0.0
C641 C 0.4368 0.82186 0.12148 0.0
N642 N 0.41119 0.86454 0.23872 0.0
N643 N 0.45415 0.86759 0.04994 0.0
H644 H 0.42918 0.74597 0.11565 0.0
H645 H 0.45243 0.77866 0.06516 0.0
H646 H 0.46638 0.89937 1.03045 0.0
H647 H 0.43997 0.83583 1.02988 0.0
H648 H 0.41006 0.89594 0.25717 0.0
H649 H 0.393 0.832 0.25628 0.0
H650 H 0.46963 0.95554 0.2328 0.0
H651 H 0.48328 0.98907 0.18176 0.0
C652 C 0.09588 0.25977 0.63402 0.0
C653 C 0.13814 0.26732 0.66239 0.0
C654 C 0.13642 0.18156 0.64599 0.0
C655 C 0.09246 0.1732 0.6196 0.0
N656 N 0.02568 0.20245 0.59437 0.0
N657 N 0.19386 0.23346 0.70141 0.0
C658 C 0.07069 0.21171 0.61564 0.0
C659 C 0.15701 0.22756 0.67004 0.0
N660 N 0.0812 0.29914 0.62279 0.0
N661 N 0.15889 0.14557 0.64771 0.0
H662 H 0.2097 0.26641 0.71948 0.0
H663 H 0.20589 0.20489 0.71246 0.0
H664 H 0.14334 0.11059 0.63313 0.0
H665 H 0.1943 0.15103 0.66129 0.0
H666 H 0.05505 0.29775 0.59776 0.0
H667 H 0.09804 0.33454 0.636 0.0
H668 H 1.00491 0.22698 0.5947 0.0
H669 H 1.00687 0.16866 0.57917 0.0
C670 C 0.78175 0.33414 0.44184 0.0
C671 C 0.82119 0.36926 0.41646 0.0
C672 C 0.77119 0.42608 0.41832 0.0
C673 C 0.73138 0.39055 0.44288 0.0
N674 N 0.7026 0.31644 0.48754 0.0
N675 N 0.85923 0.45192 0.38967 0.0
C676 C 0.73802 0.34639 0.45781 0.0
C677 C 0.81775 0.41648 0.40786 0.0
N678 N 0.78497 0.28819 0.44854 0.0
N679 N 0.76361 0.46798 0.40336 0.0
H680 H 0.89369 0.44552 0.38185 0.0
H681 H 0.86113 0.4885 0.38607 0.0
H682 H 0.73044 0.47674 0.41126 0.0
H683 H 0.78877 0.49281 0.38095 0.0
H684 H 0.75481 0.25885 0.4611 0.0
H685 H 0.81729 0.27848 0.43935 0.0
H686 H 0.70756 0.28629 0.50355 0.0
H687 H 0.66976 0.32407 0.49931 0.0
loop_
_geom_bond_atom_site_label_1
_geom_bond_atom_site_label_2
_geom_bond_distance
_geom_bond_site_symmetry_2
_ccdc_geom_bond_type
H0 C5 0.930 . S
H1 C8 0.930 . S
H2 C10 0.930 . S
H3 C4 1.016 . S
C4 H3 1.016 . S
C4 N11 1.286 . S
C5 H0 0.930 . S
C5 C6 1.397 . S
C5 C7 1.361 . S
C6 C5 1.397 . S
C6 C10 1.390 . S
C7 C5 1.361 . S
C7 C8 1.393 . S
C7 N11 1.413 . S
C8 H1 0.930 . S
C8 C7 1.393 . S
C8 C9 1.399 . S
C9 C8 1.399 . S
C9 C10 1.381 . S
C10 H2 0.930 . S
C10 C6 1.390 . S
C10 C9 1.381 . S
N11 C4 1.286 . S
N11 C7 1.413 . S
H12 C17 0.930 . S
H13 C20 0.930 . S
H14 C22 0.930 . S
H15 C16 1.016 . S
C16 H15 1.016 . S
C16 N23 1.286 . S
C17 H12 0.930 . S
C17 C18 1.397 . S
C17 C19 1.361 . S
C18 C17 1.397 . S
C18 C22 1.390 . S
C19 C17 1.361 . S
C19 C20 1.393 . S
C19 N23 1.413 . S
C20 H13 0.930 . S
C20 C19 1.393 . S
C20 C21 1.399 . S
C21 C20 1.399 . S
C21 C22 1.381 . S
C22 H14 0.930 . S
C22 C18 1.390 . S
C22 C21 1.381 . S
N23 C16 1.286 . S
N23 C19 1.413 . S
H24 C29 0.930 . S
H25 C32 0.930 . S
H26 C34 0.930 . S
H27 C28 1.016 . S
C28 H27 1.016 . S
C28 N35 1.286 . S
C29 H24 0.930 . S
C29 C30 1.397 . S
C29 C31 1.361 . S
C30 C29 1.397 . S
C30 C34 1.390 . S
C31 C29 1.361 . S
C31 C32 1.393 . S
C31 N35 1.413 . S
C32 H25 0.930 . S
C32 C31 1.393 . S
C32 C33 1.399 . S
C33 C32 1.399 . S
C33 C34 1.381 . S
C34 H26 0.930 . S
C34 C30 1.390 . S
C34 C33 1.381 . S
N35 C28 1.286 . S
N35 C31 1.413 . S
H36 C41 0.930 . S
H37 C44 0.930 . S
H38 C46 0.930 . S
H39 C40 1.016 . S
C40 H39 1.016 . S
C40 N47 1.286 . S
C41 H36 0.930 . S
C41 C42 1.397 . S
C41 C43 1.361 . S
C42 C41 1.397 . S
C42 C46 1.390 . S
C43 C41 1.361 . S
C43 C44 1.393 . S
C43 N47 1.413 . S
C44 H37 0.930 . S
C44 C43 1.393 . S
C44 C45 1.399 . S
C45 C44 1.399 . S
C45 C46 1.381 . S
C46 H38 0.930 . S
C46 C42 1.390 . S
C46 C45 1.381 . S
N47 C40 1.286 . S
N47 C43 1.413 . S
H48 C53 0.930 . S
H49 C56 0.930 . S
H50 C58 0.930 . S
H51 C52 1.016 . S
C52 H51 1.016 . S
C52 N59 1.286 . S
C53 H48 0.930 . S
C53 C54 1.397 . S
C53 C55 1.361 . S
C54 C53 1.397 . S
C54 C58 1.390 . S
C55 C53 1.361 . S
C55 C56 1.393 . S
C55 N59 1.413 . S
C56 H49 0.930 . S
C56 C55 1.393 . S
C56 C57 1.399 . S
C57 C56 1.399 . S
C57 C58 1.381 . S
C58 H50 0.930 . S
C58 C54 1.390 . S
C58 C57 1.381 . S
N59 C52 1.286 . S
N59 C55 1.413 . S
H60 C65 0.930 . S
H61 C68 0.930 . S
H62 C70 0.930 . S
H63 C64 1.016 . S
C64 H63 1.016 . S
C64 N71 1.286 . S
C65 H60 0.930 . S
C65 C66 1.397 . S
C65 C67 1.361 . S
C66 C65 1.397 . S
C66 C70 1.390 . S
C67 C65 1.361 . S
C67 C68 1.393 . S
C67 N71 1.413 . S
C68 H61 0.930 . S
C68 C67 1.393 . S
C68 C69 1.399 . S
C69 C68 1.399 . S
C69 C70 1.381 . S
C70 H62 0.930 . S
C70 C66 1.390 . S
C70 C69 1.381 . S
N71 C64 1.286 . S
N71 C67 1.413 . S
H72 C77 0.930 . S
H73 C80 0.930 . S
H74 C82 0.930 . S
H75 C76 1.016 . S
C76 H75 1.016 . S
C76 N83 1.286 . S
C77 H72 0.930 . S
C77 C78 1.397 . S
C77 C79 1.361 . S
C78 C77 1.397 . S
C78 C82 1.390 . S
C79 C77 1.361 . S
C79 C80 1.393 . S
C79 N83 1.413 . S
C80 H73 0.930 . S
C80 C79 1.393 . S
C80 C81 1.399 . S
C81 C80 1.399 . S
C81 C82 1.381 . S
C82 H74 0.930 . S
C82 C78 1.390 . S
C82 C81 1.381 . S
N83 C76 1.286 . S
N83 C79 1.413 . S
H84 C89 0.930 . S
H85 C92 0.930 . S
H86 C94 0.930 . S
H87 C88 1.016 . S
C88 H87 1.016 . S
C88 N95 1.286 . S
C89 H84 0.930 . S
C89 C90 1.397 . S
C89 C91 1.361 . S
C90 C89 1.397 . S
C90 C94 1.390 . S
C91 C89 1.361 . S
C91 C92 1.393 . S
C91 N95 1.413 . S
C92 H85 0.930 . S
C92 C91 1.393 . S
C92 C93 1.399 . S
C93 C92 1.399 . S
C93 C94 1.381 . S
C94 H86 0.930 . S
C94 C90 1.390 . S
C94 C93 1.381 . S
N95 C88 1.286 . S
N95 C91 1.413 . S
Tb96 C105 2.764 . S
Tb96 O106 2.325 . S
Tb96 O109 2.303 . S
Tb96 O113 2.322 1_545 S
Tb96 O114 2.349 1_545 S
Tb96 O117 2.415 . S
Tb96 O118 2.399 . S
Tb97 O107 2.324 . S
Tb97 O108 2.351 . S
Tb97 O110 2.413 1_545 S
Tb97 O111 2.399 1_545 S
Tb97 O112 2.323 1_545 S
Tb97 O115 2.302 1_545 S
Tb97 C126 2.763 1_545 S
C98 O114 1.261 1_655 S
C98 O115 1.257 . S
C99 C102 1.358 . S
C99 C103 1.332 . S
C99 C105 1.504 . S
C100 C101 1.373 . S
C100 C104 1.308 . S
C101 C100 1.373 . S
C101 C102 1.429 . S
C101 H128 0.932 . S
C102 C99 1.358 . S
C102 C101 1.429 . S
C102 H129 0.930 . S
C103 C99 1.332 . S
C103 C104 1.394 . S
C103 H130 0.932 . S
C104 C100 1.308 . S
C104 C103 1.394 . S
C104 H131 0.929 . S
C105 Tb96 2.764 . S
C105 C99 1.504 . S
C105 O117 1.239 . S
C105 O118 1.263 . S
O106 Tb96 2.325 . S
O106 C116 1.236 1_455 S
O107 Tb97 2.324 . S
O107 C116 1.257 . S
O108 Tb97 2.351 . S
O108 C119 1.261 1_655 S
O109 Tb96 2.303 . S
O109 C119 1.257 . S
O110 Tb97 2.413 1_565 S
O110 C126 1.239 . S
O111 Tb97 2.399 1_565 S
O111 C126 1.263 . S
O112 Tb97 2.323 1_565 S
O112 C127 1.236 1_655 S
O113 Tb96 2.322 1_565 S
O113 C127 1.257 . S
O114 Tb96 2.349 1_565 S
O114 C98 1.261 1_455 S
O115 Tb97 2.302 1_565 S
O115 C98 1.257 . S
C116 O106 1.236 1_655 S
C116 O107 1.257 . S
O117 Tb96 2.415 . S
O117 C105 1.239 . S
O118 Tb96 2.399 . S
O118 C105 1.263 . S
C119 O108 1.261 1_455 S
C119 O109 1.257 . S
C120 C123 1.358 . S
C120 C124 1.332 . S
C120 C126 1.504 . S
C121 C122 1.373 . S
C121 C125 1.308 . S
C122 C121 1.373 . S
C122 C123 1.429 . S
C122 H132 0.932 . S
C123 C120 1.358 . S
C123 C122 1.429 . S
C123 H133 0.930 . S
C124 C120 1.332 . S
C124 C125 1.394 . S
C124 H134 0.932 . S
C125 C121 1.308 . S
C125 C124 1.394 . S
C125 H135 0.929 . S
C126 Tb97 2.763 1_565 S
C126 O110 1.239 . S
C126 O111 1.263 . S
C126 C120 1.504 . S
C127 O112 1.236 1_455 S
C127 O113 1.257 . S
H128 C101 0.932 . S
H129 C102 0.930 . S
H130 C103 0.932 . S
H131 C104 0.929 . S
H132 C122 0.932 . S
H133 C123 0.930 . S
H134 C124 0.932 . S
H135 C125 0.929 . S
Tb136 C145 2.764 . S
Tb136 O146 2.324 . S
Tb136 O149 2.303 . S
Tb136 O153 2.322 1_545 S
Tb136 O154 2.363 1_545 S
Tb136 O157 2.415 . S
Tb136 O158 2.399 . S
Tb137 O147 2.322 . S
Tb137 O148 2.349 1_556 S
Tb137 O150 2.415 1_545 S
Tb137 O151 2.399 1_545 S
Tb137 O152 2.325 1_546 S
Tb137 O155 2.303 1_545 S
Tb137 C166 2.764 1_545 S
C138 O154 1.242 1_556 S
C138 O155 1.257 . S
C139 C142 1.358 . S
C139 C143 1.332 . S
C139 C145 1.504 . S
C140 C141 1.373 . S
C140 C144 1.308 . S
C141 C140 1.373 . S
C141 C142 1.429 . S
C141 H168 0.932 . S
C142 C139 1.358 . S
C142 C141 1.429 . S
C142 H169 0.930 . S
C143 C139 1.332 . S
C143 C144 1.394 . S
C143 H170 0.932 . S
C144 C140 1.308 . S
C144 C143 1.394 . S
C144 H171 0.929 . S
C145 Tb136 2.764 . S
C145 C139 1.504 . S
C145 O157 1.239 . S
C145 O158 1.263 . S
O146 Tb136 2.324 . S
O146 C156 1.237 1_554 S
O147 Tb137 2.322 . S
O147 C156 1.257 . S
O148 Tb137 2.349 1_554 S
O148 C159 1.261 . S
O149 Tb136 2.303 . S
O149 C159 1.257 . S
O150 Tb137 2.415 1_565 S
O150 C166 1.239 . S
O151 Tb137 2.399 1_565 S
O151 C166 1.263 . S
O152 Tb137 2.325 1_564 S
O152 C167 1.236 . S
O153 Tb136 2.322 1_565 S
O153 C167 1.257 . S
O154 Tb136 2.363 1_565 S
O154 C138 1.242 1_554 S
O155 Tb137 2.303 1_565 S
O155 C138 1.257 . S
C156 O146 1.237 1_556 S
C156 O147 1.257 . S
O157 Tb136 2.415 . S
O157 C145 1.239 . S
O158 Tb136 2.399 . S
O158 C145 1.263 . S
C159 O148 1.261 . S
C159 O149 1.257 . S
C160 C163 1.358 . S
C160 C164 1.332 . S
C160 C166 1.504 . S
C161 C162 1.373 . S
C161 C165 1.308 . S
C162 C161 1.373 . S
C162 C163 1.429 . S
C162 H172 0.932 . S
C163 C160 1.358 . S
C163 C162 1.429 . S
C163 H173 0.930 . S
C164 C160 1.332 . S
C164 C165 1.394 . S
C164 H174 0.932 . S
C165 C161 1.308 . S
C165 C164 1.394 . S
C165 H175 0.929 . S
C166 Tb137 2.764 1_565 S
C166 O150 1.239 . S
C166 O151 1.263 . S
C166 C160 1.504 . S
C167 O152 1.236 . S
C167 O153 1.257 . S
H168 C141 0.932 . S
H169 C142 0.930 . S
H170 C143 0.932 . S
H171 C144 0.929 . S
H172 C162 0.932 . S
H173 C163 0.930 . S
H174 C164 0.932 . S
H175 C165 0.929 . S
Tb176 C185 2.764 . S
Tb176 O186 2.325 . S
Tb176 O189 2.303 . S
Tb176 O193 2.322 . S
Tb176 O194 2.349 . S
Tb176 O197 2.415 . S
Tb176 O198 2.399 . S
Tb177 O187 2.322 . S
Tb177 O188 2.349 . S
Tb177 O190 2.415 . S
Tb177 O191 2.399 . S
Tb177 O192 2.325 . S
Tb177 O195 2.303 . S
Tb177 C206 2.764 . S
C178 O194 1.261 . S
C178 O195 1.257 . S
C179 C182 1.358 . S
C179 C183 1.332 . S
C179 C185 1.504 . S
C180 C181 1.373 . S
C180 C184 1.308 . S
C181 C180 1.373 . S
C181 C182 1.429 . S
C181 H208 0.932 . S
C182 C179 1.358 . S
C182 C181 1.429 . S
C182 H209 0.930 . S
C183 C179 1.332 . S
C183 C184 1.394 . S
C183 H210 0.932 . S
C184 C180 1.308 . S
C184 C183 1.394 . S
C184 H211 0.929 . S
C185 Tb176 2.764 . S
C185 C179 1.504 . S
C185 O197 1.239 . S
C185 O198 1.263 . S
O186 Tb176 2.325 . S
O186 C196 1.236 . S
O187 Tb177 2.322 . S
O187 C196 1.257 . S
O188 Tb177 2.349 . S
O188 C199 1.261 . S
O189 Tb176 2.303 . S
O189 C199 1.257 . S
O190 Tb177 2.415 . S
O190 C206 1.239 . S
O191 Tb177 2.399 . S
O191 C206 1.263 . S
O192 Tb177 2.325 . S
O192 C207 1.236 . S
O193 Tb176 2.322 . S
O193 C207 1.257 . S
O194 Tb176 2.349 . S
O194 C178 1.261 . S
O195 Tb177 2.303 . S
O195 C178 1.257 . S
C196 O186 1.236 . S
C196 O187 1.257 . S
O197 Tb176 2.415 . S
O197 C185 1.239 . S
O198 Tb176 2.399 . S
O198 C185 1.263 . S
C199 O188 1.261 . S
C199 O189 1.257 . S
C200 C203 1.358 . S
C200 C204 1.332 . S
C200 C206 1.504 . S
C201 C202 1.373 . S
C201 C205 1.308 . S
C202 C201 1.373 . S
C202 C203 1.429 . S
C202 H212 0.932 . S
C203 C200 1.358 . S
C203 C202 1.429 . S
C203 H213 0.930 . S
C204 C200 1.332 . S
C204 C205 1.394 . S
C204 H214 0.932 . S
C205 C201 1.308 . S
C205 C204 1.394 . S
C205 H215 0.929 . S
C206 Tb177 2.764 . S
C206 O190 1.239 . S
C206 O191 1.263 . S
C206 C200 1.504 . S
C207 O192 1.236 . S
C207 O193 1.257 . S
H208 C181 0.932 . S
H209 C182 0.930 . S
H210 C183 0.932 . S
H211 C184 0.929 . S
H212 C202 0.932 . S
H213 C203 0.930 . S
H214 C204 0.932 . S
H215 C205 0.929 . S
Tb216 C225 2.764 1_455 S
Tb216 O226 2.325 1_455 S
Tb216 O229 2.303 1_456 S
Tb216 O233 2.322 1_556 S
Tb216 O234 2.349 . S
Tb216 O237 2.415 1_455 S
Tb216 O238 2.399 1_455 S
Tb217 O227 2.322 1_455 S
Tb217 O228 2.349 1_455 S
Tb217 O230 2.415 . S
Tb217 O231 2.399 . S
Tb217 O232 2.325 . S
Tb217 O235 2.303 1_554 S
Tb217 C246 2.764 . S
C218 O234 1.261 . S
C218 O235 1.257 . S
C219 C222 1.358 . S
C219 C223 1.332 . S
C219 C225 1.504 . S
C220 C221 1.373 . S
C220 C224 1.308 . S
C221 C220 1.373 . S
C221 C222 1.429 . S
C221 H248 0.932 . S
C222 C219 1.358 . S
C222 C221 1.429 . S
C222 H249 0.930 . S
C223 C219 1.332 . S
C223 C224 1.394 . S
C223 H250 0.932 . S
C224 C220 1.308 . S
C224 C223 1.394 . S
C224 H251 0.929 . S
C225 Tb216 2.764 1_655 S
C225 C219 1.504 . S
C225 O237 1.239 . S
C225 O238 1.263 . S
O226 Tb216 2.325 1_655 S
O226 C236 1.236 . S
O227 Tb217 2.322 1_655 S
O227 C236 1.257 1_554 S
O228 Tb217 2.349 1_655 S
O228 C239 1.261 . S
O229 Tb216 2.303 1_654 S
O229 C239 1.257 . S
O230 Tb217 2.415 . S
O230 C246 1.239 . S
O231 Tb217 2.399 . S
O231 C246 1.263 . S
O232 Tb217 2.325 . S
O232 C247 1.236 . S
O233 Tb216 2.322 1_554 S
O233 C247 1.257 . S
O234 Tb216 2.349 . S
O234 C218 1.261 . S
O235 Tb217 2.303 1_556 S
O235 C218 1.257 . S
C236 O226 1.236 . S
C236 O227 1.257 1_556 S
O237 Tb216 2.415 1_655 S
O237 C225 1.239 . S
O238 Tb216 2.399 1_655 S
O238 C225 1.263 . S
C239 O228 1.261 . S
C239 O229 1.257 . S
C240 C243 1.358 . S
C240 C244 1.332 . S
C240 C246 1.504 . S
C241 C242 1.373 . S
C241 C245 1.308 . S
C242 C241 1.373 . S
C242 C243 1.429 . S
C242 H252 0.932 . S
C243 C240 1.358 . S
C243 C242 1.429 . S
C243 H253 0.930 . S
C244 C240 1.332 . S
C244 C245 1.394 . S
C244 H254 0.932 . S
C245 C241 1.308 . S
C245 C244 1.394 . S
C245 H255 0.929 . S
C246 Tb217 2.764 . S
C246 O230 1.239 . S
C246 O231 1.263 . S
C246 C240 1.504 . S
C247 O232 1.236 . S
C247 O233 1.257 . S
H248 C221 0.932 . S
H249 C222 0.930 . S
H250 C223 0.932 . S
H251 C224 0.929 . S
H252 C242 0.932 . S
H253 C243 0.930 . S
H254 C244 0.932 . S
H255 C245 0.929 . S
C256 C257 1.363 . S
C256 C262 1.379 . S
C256 N264 1.356 . S
C257 C256 1.363 . S
C257 C263 1.363 . S
C258 C259 1.363 . S
C258 C263 1.379 . S
C258 N265 1.356 . S
C259 C258 1.363 . S
C259 C262 1.363 . S
N260 C262 1.356 . S
N260 H272 0.984 . S
N260 H273 0.985 . S
N261 C263 1.356 . S
N261 H266 0.984 . S
N261 H267 0.985 . S
C262 C256 1.379 . S
C262 C259 1.363 . S
C262 N260 1.356 . S
C263 C257 1.363 . S
C263 C258 1.379 . S
C263 N261 1.356 . S
N264 C256 1.356 . S
N264 H270 0.984 . S
N264 H271 0.984 . S
N265 C258 1.356 . S
N265 H268 0.984 . S
N265 H269 0.985 . S
H266 N261 0.984 . S
H267 N261 0.985 . S
H268 N265 0.984 . S
H269 N265 0.985 . S
H270 N264 0.984 . S
H271 N264 0.984 . S
H272 N260 0.984 . S
H273 N260 0.985 . S
C274 C275 1.363 . S
C274 C280 1.379 . S
C274 N282 1.356 . S
C275 C274 1.363 . S
C275 C281 1.363 . S
C276 C277 1.363 . S
C276 C281 1.379 . S
C276 N283 1.356 . S
C277 C276 1.363 . S
C277 C280 1.363 . S
N278 C280 1.356 . S
N278 H290 0.984 . S
N278 H291 0.985 . S
N279 C281 1.356 . S
N279 H284 0.984 . S
N279 H285 0.985 . S
C280 C274 1.379 . S
C280 C277 1.363 . S
C280 N278 1.356 . S
C281 C275 1.363 . S
C281 C276 1.379 . S
C281 N279 1.356 . S
N282 C274 1.356 . S
N282 H288 0.984 . S
N282 H289 0.984 . S
N283 C276 1.356 . S
N283 H286 0.984 . S
N283 H287 0.985 . S
H284 N279 0.984 . S
H285 N279 0.985 . S
H286 N283 0.984 . S
H287 N283 0.985 . S
H288 N282 0.984 . S
H289 N282 0.984 . S
H290 N278 0.984 . S
H291 N278 0.985 . S
C292 C293 1.363 . S
C292 C298 1.379 . S
C292 N300 1.356 . S
C293 C292 1.363 . S
C293 C299 1.363 . S
C294 C295 1.363 . S
C294 C299 1.379 . S
C294 N301 1.356 . S
C295 C294 1.363 . S
C295 C298 1.363 . S
N296 C298 1.356 . S
N296 H308 0.984 . S
N296 H309 0.985 . S
N297 C299 1.356 . S
N297 H302 0.984 . S
N297 H303 0.985 . S
C298 C292 1.379 . S
C298 C295 1.363 . S
C298 N296 1.356 . S
C299 C293 1.363 . S
C299 C294 1.379 . S
C299 N297 1.356 . S
N300 C292 1.356 . S
N300 H306 0.984 . S
N300 H307 0.984 . S
N301 C294 1.356 . S
N301 H304 0.984 . S
N301 H305 0.985 . S
H302 N297 0.984 . S
H303 N297 0.985 . S
H304 N301 0.984 . S
H305 N301 0.985 . S
H306 N300 0.984 . S
H307 N300 0.984 . S
H308 N296 0.984 . S
H309 N296 0.985 . S
C310 C311 1.363 . S
C310 C316 1.379 . S
C310 N318 1.356 . S
C311 C310 1.363 . S
C311 C317 1.363 . S
C312 C313 1.363 . S
C312 C317 1.379 . S
C312 N319 1.356 . S
C313 C312 1.363 . S
C313 C316 1.363 . S
N314 C316 1.356 1_455 S
N314 H326 0.984 . S
N314 H327 0.985 . S
N315 C317 1.356 . S
N315 H320 0.984 . S
N315 H321 0.985 . S
C316 C310 1.379 . S
C316 C313 1.363 . S
C316 N314 1.356 1_655 S
C317 C311 1.363 . S
C317 C312 1.379 . S
C317 N315 1.356 . S
N318 C310 1.356 . S
N318 H324 0.984 1_655 S
N318 H325 0.984 . S
N319 C312 1.356 . S
N319 H322 0.984 . S
N319 H323 0.985 . S
H320 N315 0.984 . S
H321 N315 0.985 . S
H322 N319 0.984 . S
H323 N319 0.985 . S
H324 N318 0.984 1_455 S
H325 N318 0.984 . S
H326 N314 0.984 . S
H327 N314 0.985 . S
C328 C329 1.363 . S
C328 C334 1.379 . S
C328 N336 1.356 . S
C329 C328 1.363 . S
C329 C335 1.363 . S
C330 C331 1.363 . S
C330 C335 1.379 . S
C330 N337 1.356 . S
C331 C330 1.363 . S
C331 C334 1.363 . S
N332 C334 1.356 . S
N332 H344 0.984 . S
N332 H345 0.985 . S
N333 C335 1.356 . S
N333 H338 0.984 . S
N333 H339 0.985 . S
C334 C328 1.379 . S
C334 C331 1.363 . S
C334 N332 1.356 . S
C335 C329 1.363 . S
C335 C330 1.379 . S
C335 N333 1.356 . S
N336 C328 1.356 . S
N336 H342 0.984 . S
N336 H343 0.984 . S
N337 C330 1.356 . S
N337 H340 0.984 . S
N337 H341 0.985 . S
H338 N333 0.984 . S
H339 N333 0.985 . S
H340 N337 0.984 . S
H341 N337 0.985 . S
H342 N336 0.984 . S
H343 N336 0.984 . S
H344 N332 0.984 . S
H345 N332 0.985 . S
C346 C347 1.363 . S
C346 C352 1.379 . S
C346 N354 1.356 . S
C347 C346 1.363 . S
C347 C353 1.363 1_455 S
C348 C349 1.363 1_655 S
C348 C353 1.379 . S
C348 N355 1.356 . S
C349 C348 1.363 1_455 S
C349 C352 1.363 . S
N350 C352 1.356 . S
N350 H362 0.984 . S
N350 H363 0.985 . S
N351 C353 1.356 . S
N351 H356 0.984 . S
N351 H357 0.985 . S
C352 C346 1.379 . S
C352 C349 1.363 . S
C352 N350 1.356 . S
C353 C347 1.363 1_655 S
C353 C348 1.379 . S
C353 N351 1.356 . S
N354 C346 1.356 . S
N354 H360 0.984 . S
N354 H361 0.984 . S
N355 C348 1.356 . S
N355 H358 0.984 . S
N355 H359 0.985 . S
H356 N351 0.984 . S
H357 N351 0.985 . S
H358 N355 0.984 . S
H359 N355 0.985 . S
H360 N354 0.984 . S
H361 N354 0.984 . S
H362 N350 0.984 . S
H363 N350 0.985 . S
C364 C365 1.363 . S
C364 C370 1.379 . S
C364 N372 1.356 . S
C365 C364 1.363 . S
C365 C371 1.363 . S
C366 C367 1.363 . S
C366 C371 1.379 . S
C366 N373 1.356 . S
C367 C366 1.363 . S
C367 C370 1.363 . S
N368 C370 1.356 1_554 S
N368 H380 0.984 . S
N368 H381 0.985 . S
N369 C371 1.356 . S
N369 H374 0.984 . S
N369 H375 0.985 . S
C370 C364 1.379 . S
C370 C367 1.363 . S
C370 N368 1.356 1_556 S
C371 C365 1.363 . S
C371 C366 1.379 . S
C371 N369 1.356 . S
N372 C364 1.356 . S
N372 H378 0.984 . S
N372 H379 0.984 . S
N373 C366 1.356 . S
N373 H376 0.984 . S
N373 H377 0.985 . S
H374 N369 0.984 . S
H375 N369 0.985 . S
H376 N373 0.984 . S
H377 N373 0.985 . S
H378 N372 0.984 . S
H379 N372 0.984 . S
H380 N368 0.984 . S
H381 N368 0.985 . S
C382 C383 1.363 . S
C382 C388 1.379 . S
C382 N390 1.356 . S
C383 C382 1.363 . S
C383 C389 1.363 . S
C384 C385 1.363 . S
C384 C389 1.379 . S
C384 N391 1.356 . S
C385 C384 1.363 . S
C385 C388 1.363 . S
N386 C388 1.356 . S
N386 H398 0.984 . S
N386 H399 0.985 . S
N387 C389 1.356 . S
N387 H392 0.984 . S
N387 H393 0.985 . S
C388 C382 1.379 . S
C388 C385 1.363 . S
C388 N386 1.356 . S
C389 C383 1.363 . S
C389 C384 1.379 . S
C389 N387 1.356 . S
N390 C382 1.356 . S
N390 H396 0.984 . S
N390 H397 0.984 . S
N391 C384 1.356 . S
N391 H394 0.984 . S
N391 H395 0.985 . S
H392 N387 0.984 . S
H393 N387 0.985 . S
H394 N391 0.984 . S
H395 N391 0.985 . S
H396 N390 0.984 . S
H397 N390 0.984 . S
H398 N386 0.984 . S
H399 N386 0.985 . S
C400 C401 1.363 . S
C400 C406 1.379 . S
C400 N408 1.356 . S
C401 C400 1.363 . S
C401 C407 1.363 . S
C402 C403 1.363 . S
C402 C407 1.379 . S
C402 N409 1.356 . S
C403 C402 1.363 . S
C403 C406 1.363 . S
N404 C406 1.356 . S
N404 H416 0.984 . S
N404 H417 0.985 . S
N405 C407 1.356 . S
N405 H410 0.984 . S
N405 H411 0.985 . S
C406 C400 1.379 . S
C406 C403 1.363 . S
C406 N404 1.356 . S
C407 C401 1.363 . S
C407 C402 1.379 . S
C407 N405 1.356 . S
N408 C400 1.356 . S
N408 H414 0.984 . S
N408 H415 0.984 . S
N409 C402 1.356 . S
N409 H412 0.984 . S
N409 H413 0.985 . S
H410 N405 0.984 . S
H411 N405 0.985 . S
H412 N409 0.984 . S
H413 N409 0.985 . S
H414 N408 0.984 . S
H415 N408 0.984 . S
H416 N404 0.984 . S
H417 N404 0.985 . S
C418 C419 1.363 . S
C418 C424 1.379 . S
C418 N426 1.356 . S
C419 C418 1.363 . S
C419 C425 1.363 . S
C420 C421 1.363 . S
C420 C425 1.379 . S
C420 N427 1.356 . S
C421 C420 1.363 . S
C421 C424 1.363 . S
N422 C424 1.356 . S
N422 H434 0.984 . S
N422 H435 0.985 . S
N423 C425 1.356 . S
N423 H428 0.984 . S
N423 H429 0.985 . S
C424 C418 1.379 . S
C424 C421 1.363 . S
C424 N422 1.356 . S
C425 C419 1.363 . S
C425 C420 1.379 . S
C425 N423 1.356 . S
N426 C418 1.356 . S
N426 H432 0.984 . S
N426 H433 0.984 . S
N427 C420 1.356 . S
N427 H430 0.982 1_556 S
N427 H431 0.985 1_556 S
H428 N423 0.984 . S
H429 N423 0.985 . S
H430 N427 0.982 1_554 S
H431 N427 0.985 1_554 S
H432 N426 0.984 . S
H433 N426 0.984 . S
H434 N422 0.984 . S
H435 N422 0.985 . S
C436 C437 1.363 . S
C436 C442 1.379 . S
C436 N444 1.356 . S
C437 C436 1.363 . S
C437 C443 1.363 . S
C438 C439 1.363 . S
C438 C443 1.379 . S
C438 N445 1.356 . S
C439 C438 1.363 . S
C439 C442 1.363 . S
N440 C442 1.356 . S
N440 H452 0.984 . S
N440 H453 0.985 . S
N441 C443 1.356 . S
N441 H446 0.984 . S
N441 H447 0.985 . S
C442 C436 1.379 . S
C442 C439 1.363 . S
C442 N440 1.356 . S
C443 C437 1.363 . S
C443 C438 1.379 . S
C443 N441 1.356 . S
N444 C436 1.356 . S
N444 H450 0.984 . S
N444 H451 0.984 . S
N445 C438 1.356 . S
N445 H448 0.984 . S
N445 H449 0.985 . S
H446 N441 0.984 . S
H447 N441 0.985 . S
H448 N445 0.984 . S
H449 N445 0.985 . S
H450 N444 0.984 . S
H451 N444 0.984 . S
H452 N440 0.984 . S
H453 N440 0.985 . S
C454 C455 1.363 . S
C454 C460 1.379 . S
C454 N462 1.356 . S
C455 C454 1.363 . S
C455 C461 1.363 . S
C456 C457 1.363 . S
C456 C461 1.379 . S
C456 N463 1.356 . S
C457 C456 1.363 . S
C457 C460 1.363 . S
N458 C460 1.356 . S
N458 H470 0.984 . S
N458 H471 0.985 . S
N459 C461 1.356 . S
N459 H464 0.984 . S
N459 H465 0.985 . S
C460 C454 1.379 . S
C460 C457 1.363 . S
C460 N458 1.356 . S
C461 C455 1.363 . S
C461 C456 1.379 . S
C461 N459 1.356 . S
N462 C454 1.356 . S
N462 H468 0.984 . S
N462 H469 0.984 . S
N463 C456 1.356 . S
N463 H466 0.984 . S
N463 H467 0.985 . S
H464 N459 0.984 . S
H465 N459 0.985 . S
H466 N463 0.984 . S
H467 N463 0.985 . S
H468 N462 0.984 . S
H469 N462 0.984 . S
H470 N458 0.984 . S
H471 N458 0.985 . S
C472 C473 1.363 . S
C472 C478 1.379 . S
C472 N480 1.356 . S
C473 C472 1.363 . S
C473 C479 1.363 . S
C474 C475 1.363 . S
C474 C479 1.379 . S
C474 N481 1.356 . S
C475 C474 1.363 . S
C475 C478 1.363 . S
N476 C478 1.356 . S
N476 H488 0.984 . S
N476 H489 0.985 . S
N477 C479 1.356 . S
N477 H482 0.984 . S
N477 H483 0.985 . S
C478 C472 1.379 . S
C478 C475 1.363 . S
C478 N476 1.356 . S
C479 C473 1.363 . S
C479 C474 1.379 . S
C479 N477 1.356 . S
N480 C472 1.356 . S
N480 H486 0.984 . S
N480 H487 0.984 . S
N481 C474 1.356 . S
N481 H484 0.984 . S
N481 H485 0.985 . S
H482 N477 0.984 . S
H483 N477 0.985 . S
H484 N481 0.984 . S
H485 N481 0.985 . S
H486 N480 0.984 . S
H487 N480 0.984 . S
H488 N476 0.984 . S
H489 N476 0.985 . S
C490 C491 1.363 . S
C490 C496 1.379 . S
C490 N498 1.356 . S
C491 C490 1.363 . S
C491 C497 1.363 . S
C492 C493 1.363 . S
C492 C497 1.379 . S
C492 N499 1.356 . S
C493 C492 1.363 . S
C493 C496 1.363 . S
N494 C496 1.356 . S
N494 H506 0.984 . S
N494 H507 0.985 . S
N495 C497 1.356 . S
N495 H500 0.984 . S
N495 H501 0.985 . S
C496 C490 1.379 . S
C496 C493 1.363 . S
C496 N494 1.356 . S
C497 C491 1.363 . S
C497 C492 1.379 . S
C497 N495 1.356 . S
N498 C490 1.356 . S
N498 H504 0.984 . S
N498 H505 0.984 . S
N499 C492 1.356 . S
N499 H502 0.984 . S
N499 H503 0.985 . S
H500 N495 0.984 . S
H501 N495 0.985 . S
H502 N499 0.984 . S
H503 N499 0.985 . S
H504 N498 0.984 . S
H505 N498 0.984 . S
H506 N494 0.984 . S
H507 N494 0.985 . S
C508 C509 1.363 . S
C508 C514 1.379 . S
C508 N516 1.356 . S
C509 C508 1.363 . S
C509 C515 1.363 . S
C510 C511 1.363 . S
C510 C515 1.379 . S
C510 N517 1.356 . S
C511 C510 1.363 . S
C511 C514 1.363 . S
N512 C514 1.356 . S
N512 H524 0.984 . S
N512 H525 0.985 . S
N513 C515 1.356 . S
N513 H518 0.984 . S
N513 H519 0.985 . S
C514 C508 1.379 . S
C514 C511 1.363 . S
C514 N512 1.356 . S
C515 C509 1.363 . S
C515 C510 1.379 . S
C515 N513 1.356 . S
N516 C508 1.356 . S
N516 H522 0.984 . S
N516 H523 0.984 . S
N517 C510 1.356 . S
N517 H520 0.984 . S
N517 H521 0.985 . S
H518 N513 0.984 . S
H519 N513 0.985 . S
H520 N517 0.984 . S
H521 N517 0.985 . S
H522 N516 0.984 . S
H523 N516 0.984 . S
H524 N512 0.984 . S
H525 N512 0.985 . S
C526 C527 1.363 . S
C526 C532 1.379 . S
C526 N534 1.356 . S
C527 C526 1.363 . S
C527 C533 1.363 . S
C528 C529 1.363 . S
C528 C533 1.379 . S
C528 N535 1.356 . S
C529 C528 1.363 . S
C529 C532 1.363 . S
N530 C532 1.356 . S
N530 H542 0.984 . S
N530 H543 0.985 . S
N531 C533 1.356 . S
N531 H536 0.984 . S
N531 H537 0.985 . S
C532 C526 1.379 . S
C532 C529 1.363 . S
C532 N530 1.356 . S
C533 C527 1.363 . S
C533 C528 1.379 . S
C533 N531 1.356 . S
N534 C526 1.356 . S
N534 H540 0.984 . S
N534 H541 0.984 . S
N535 C528 1.356 . S
N535 H538 0.984 . S
N535 H539 0.987 . S
H536 N531 0.984 . S
H537 N531 0.985 . S
H538 N535 0.984 . S
H539 N535 0.987 . S
H540 N534 0.984 . S
H541 N534 0.984 . S
H542 N530 0.984 . S
H543 N530 0.985 . S
C544 C545 1.363 . S
C544 C550 1.379 . S
C544 N552 1.356 . S
C545 C544 1.363 . S
C545 C551 1.363 . S
C546 C547 1.363 . S
C546 C551 1.379 . S
C546 N553 1.356 1_556 S
C547 C546 1.363 . S
C547 C550 1.363 . S
N548 C550 1.356 . S
N548 H560 0.984 . S
N548 H561 0.985 . S
N549 C551 1.356 . S
N549 H554 0.984 . S
N549 H555 0.985 . S
C550 C544 1.379 . S
C550 C547 1.363 . S
C550 N548 1.356 . S
C551 C545 1.363 . S
C551 C546 1.379 . S
C551 N549 1.356 . S
N552 C544 1.356 . S
N552 H558 0.984 . S
N552 H559 0.984 . S
N553 C546 1.356 1_554 S
N553 H556 0.984 . S
N553 H557 0.985 . S
H554 N549 0.984 . S
H555 N549 0.985 . S
H556 N553 0.984 . S
H557 N553 0.985 . S
H558 N552 0.984 . S
H559 N552 0.984 . S
H560 N548 0.984 . S
H561 N548 0.985 . S
C562 C563 1.363 . S
C562 C568 1.379 . S
C562 N570 1.356 . S
C563 C562 1.363 . S
C563 C569 1.363 1_655 S
C564 C565 1.363 1_455 S
C564 C569 1.379 . S
C564 N571 1.356 . S
C565 C564 1.363 1_655 S
C565 C568 1.363 . S
N566 C568 1.356 . S
N566 H578 0.984 . S
N566 H579 0.985 . S
N567 C569 1.356 . S
N567 H572 0.984 . S
N567 H573 0.985 . S
C568 C562 1.379 . S
C568 C565 1.363 . S
C568 N566 1.356 . S
C569 C563 1.363 1_455 S
C569 C564 1.379 . S
C569 N567 1.356 . S
N570 C562 1.356 . S
N570 H576 0.984 . S
N570 H577 0.984 . S
N571 C564 1.356 . S
N571 H574 0.984 . S
N571 H575 0.985 . S
H572 N567 0.984 . S
H573 N567 0.985 . S
H574 N571 0.984 . S
H575 N571 0.985 . S
H576 N570 0.984 . S
H577 N570 0.984 . S
H578 N566 0.984 . S
H579 N566 0.985 . S
C580 C581 1.363 . S
C580 C586 1.379 . S
C580 N588 1.356 . S
C581 C580 1.363 . S
C581 C587 1.363 . S
C582 C583 1.363 . S
C582 C587 1.379 . S
C582 N589 1.356 . S
C583 C582 1.363 . S
C583 C586 1.363 . S
N584 C586 1.356 . S
N584 H596 0.984 . S
N584 H597 0.985 . S
N585 C587 1.356 . S
N585 H590 0.984 . S
N585 H591 0.985 . S
C586 C580 1.379 . S
C586 C583 1.363 . S
C586 N584 1.356 . S
C587 C581 1.363 . S
C587 C582 1.379 . S
C587 N585 1.356 . S
N588 C580 1.356 . S
N588 H594 0.984 . S
N588 H595 0.984 . S
N589 C582 1.356 . S
N589 H592 0.984 . S
N589 H593 0.985 . S
H590 N585 0.984 . S
H591 N585 0.985 . S
H592 N589 0.984 . S
H593 N589 0.985 . S
H594 N588 0.984 . S
H595 N588 0.984 . S
H596 N584 0.984 . S
H597 N584 0.985 . S
C598 C599 1.363 . S
C598 C604 1.379 . S
C598 N606 1.356 . S
C599 C598 1.363 . S
C599 C605 1.363 . S
C600 C601 1.363 . S
C600 C605 1.379 . S
C600 N607 1.356 . S
C601 C600 1.363 . S
C601 C604 1.363 . S
N602 C604 1.356 . S
N602 H614 0.984 . S
N602 H615 0.985 . S
N603 C605 1.356 . S
N603 H608 0.984 . S
N603 H609 0.985 . S
C604 C598 1.379 . S
C604 C601 1.363 . S
C604 N602 1.356 . S
C605 C599 1.363 . S
C605 C600 1.379 . S
C605 N603 1.356 . S
N606 C598 1.356 . S
N606 H612 0.984 . S
N606 H613 0.984 . S
N607 C600 1.356 . S
N607 H610 0.984 . S
N607 H611 0.985 . S
H608 N603 0.984 . S
H609 N603 0.985 . S
H610 N607 0.984 . S
H611 N607 0.985 . S
H612 N606 0.984 . S
H613 N606 0.984 . S
H614 N602 0.984 . S
H615 N602 0.985 . S
C616 C617 1.363 . S
C616 C622 1.379 . S
C616 N624 1.356 . S
C617 C616 1.363 . S
C617 C623 1.363 . S
C618 C619 1.363 . S
C618 C623 1.379 . S
C618 N625 1.356 . S
C619 C618 1.363 . S
C619 C622 1.363 . S
N620 C622 1.356 . S
N620 H632 0.984 . S
N620 H633 0.985 . S
N621 C623 1.356 . S
N621 H626 0.984 . S
N621 H627 0.985 . S
C622 C616 1.379 . S
C622 C619 1.363 . S
C622 N620 1.356 . S
C623 C617 1.363 . S
C623 C618 1.379 . S
C623 N621 1.356 . S
N624 C616 1.356 . S
N624 H630 0.984 . S
N624 H631 0.984 . S
N625 C618 1.356 . S
N625 H628 0.984 . S
N625 H629 0.985 . S
H626 N621 0.984 . S
H627 N621 0.985 . S
H628 N625 0.984 . S
H629 N625 0.985 . S
H630 N624 0.984 . S
H631 N624 0.984 . S
H632 N620 0.984 . S
H633 N620 0.985 . S
C634 C635 1.363 . S
C634 C640 1.379 . S
C634 N642 1.356 . S
C635 C634 1.363 . S
C635 C641 1.363 . S
C636 C637 1.363 . S
C636 C641 1.379 . S
C636 N643 1.356 . S
C637 C636 1.363 . S
C637 C640 1.363 . S
N638 C640 1.356 . S
N638 H650 0.984 . S
N638 H651 0.985 . S
N639 C641 1.356 . S
N639 H644 0.984 . S
N639 H645 0.985 . S
C640 C634 1.379 . S
C640 C637 1.363 . S
C640 N638 1.356 . S
C641 C635 1.363 . S
C641 C636 1.379 . S
C641 N639 1.356 . S
N642 C634 1.356 . S
N642 H648 0.984 . S
N642 H649 0.984 . S
N643 C636 1.356 . S
N643 H646 0.984 . S
N643 H647 0.971 1_554 S
H644 N639 0.984 . S
H645 N639 0.985 . S
H646 N643 0.984 . S
H647 N643 0.971 1_556 S
H648 N642 0.984 . S
H649 N642 0.984 . S
H650 N638 0.984 . S
H651 N638 0.985 . S
C652 C653 1.363 . S
C652 C658 1.379 . S
C652 N660 1.356 . S
C653 C652 1.363 . S
C653 C659 1.363 . S
C654 C655 1.363 . S
C654 C659 1.379 . S
C654 N661 1.356 . S
C655 C654 1.363 . S
C655 C658 1.363 . S
N656 C658 1.356 . S
N656 H668 0.984 . S
N656 H669 0.985 . S
N657 C659 1.356 . S
N657 H662 0.984 . S
N657 H663 0.985 . S
C658 C652 1.379 . S
C658 C655 1.363 . S
C658 N656 1.356 . S
C659 C653 1.363 . S
C659 C654 1.379 . S
C659 N657 1.356 . S
N660 C652 1.356 . S
N660 H666 0.984 . S
N660 H667 0.984 . S
N661 C654 1.356 . S
N661 H664 0.984 . S
N661 H665 0.985 . S
H662 N657 0.984 . S
H663 N657 0.985 . S
H664 N661 0.984 . S
H665 N661 0.985 . S
H666 N660 0.984 . S
H667 N660 0.984 . S
H668 N656 0.984 . S
H669 N656 0.985 . S
C670 C671 1.363 . S
C670 C676 1.379 . S
C670 N678 1.356 . S
C671 C670 1.363 . S
C671 C677 1.363 . S
C672 C673 1.363 . S
C672 C677 1.379 . S
C672 N679 1.356 . S
C673 C672 1.363 . S
C673 C676 1.363 . S
N674 C676 1.356 . S
N674 H686 0.984 . S
N674 H687 0.985 . S
N675 C677 1.356 . S
N675 H680 0.984 . S
N675 H681 0.985 . S
C676 C670 1.379 . S
C676 C673 1.363 . S
C676 N674 1.356 . S
C677 C671 1.363 . S
C677 C672 1.379 . S
C677 N675 1.356 . S
N678 C670 1.356 . S
N678 H684 0.984 . S
N678 H685 0.984 . S
N679 C672 1.356 . S
N679 H682 0.984 . S
N679 H683 0.985 . S
H680 N675 0.984 . S
H681 N675 0.985 . S
H682 N679 0.984 . S
H683 N679 0.985 . S
H684 N678 0.984 . S
H685 N678 0.984 . S
H686 N674 0.984 . S
H687 N674 0.985 . S
C257 C6 0.959 . S
C259 C100 0.988 . S
C275 C18 1.263 . S
C277 C161 1.267 . S
C295 C199 2.658 . S
C293 C28 2.701 . S
C311 C40 1.946 . S
C313 C239 1.899 . S
C331 C159 1.392 . S
C329 C9 1.313 . S
C349 C127 1.972 . S
C347 C16 1.813 . S
C367 C236 1.870 . S
C365 C30 1.890 . S
C385 C196 1.662 . S
C383 C42 1.687 . S
C401 C4 1.277 . S
C403 C241 1.267 . S
C421 C156 2.603 . S
C419 C33 2.593 . S
C437 C45 2.025 . S
C439 C98 1.993 . S
C455 C21 1.494 . S
C457 C201 1.584 . S
C475 C121 1.002 . S
C473 C57 0.986 . S
C491 C66 1.275 . S
C493 C140 1.287 . S
C509 C76 2.749 . S
C511 C178 2.698 . S
C527 C88 1.859 . S
C529 C218 1.840 . S
C545 C54 1.320 . S
C547 C138 1.400 . S
C565 C116 2.051 . S
C563 C64 1.939 . S
C583 C247 1.772 . S
C581 C78 1.797 . S
C601 C207 1.728 . S
C599 C93 1.750 . S
C617 C52 1.245 . S
C619 C220 1.319 . S
C637 C167 2.604 . S
C635 C81 2.584 . S
C655 C119 1.986 . S
C653 C90 2.012 . S
C671 C69 1.474 . S
C673 C180 1.590 . S
