# Generated by pormake.
# Topology anh, (6,3)-cn, num edge types: 1
# Building blocks:
#     Node 0, Type 0, BuildingBlock: INOVEN_clean_sbu_0, # of connection points: 6
#     Node 1, Type 0, BuildingBlock: INOVEN_clean_sbu_0, # of connection points: 6
#     Node 2, Type 0, BuildingBlock: INOVEN_clean_sbu_0, # of connection points: 6
#     Node 3, Type 1, BuildingBlock: VETTIZ_charged_linker_0, # of connection points: 3
#     Node 4, Type 1, BuildingBlock: VETTIZ_charged_linker_0, # of connection points: 3
#     Node 5, Type 1, BuildingBlock: VETTIZ_charged_linker_0, # of connection points: 3
#     Node 6, Type 1, BuildingBlock: VETTIZ_charged_linker_0, # of connection points: 3
#     Node 7, Type 1, BuildingBlock: VETTIZ_charged_linker_0, # of connection points: 3
#     Node 8, Type 1, BuildingBlock: VETTIZ_charged_linker_0, # of connection points: 3
#     Edge 9, Type (0, 1), BuildingBlock: OJICUG_clean_linker_0, # of connection points: 2
#     Edge 10, Type (0, 1), BuildingBlock: OJICUG_clean_linker_0, # of connection points: 2
#     Edge 11, Type (0, 1), BuildingBlock: OJICUG_clean_linker_0, # of connection points: 2
#     Edge 12, Type (0, 1), BuildingBlock: OJICUG_clean_linker_0, # of connection points: 2
#     Edge 13, Type (0, 1), BuildingBlock: OJICUG_clean_linker_0, # of connection points: 2
#     Edge 14, Type (0, 1), BuildingBlock: OJICUG_clean_linker_0, # of connection points: 2
#     Edge 15, Type (0, 1), BuildingBlock: OJICUG_clean_linker_0, # of connection points: 2
#     Edge 16, Type (0, 1), BuildingBlock: OJICUG_clean_linker_0, # of connection points: 2
#     Edge 17, Type (0, 1), BuildingBlock: OJICUG_clean_linker_0, # of connection points: 2
#     Edge 18, Type (0, 1), BuildingBlock: OJICUG_clean_linker_0, # of connection points: 2
#     Edge 19, Type (0, 1), BuildingBlock: OJICUG_clean_linker_0, # of connection points: 2
#     Edge 20, Type (0, 1), BuildingBlock: OJICUG_clean_linker_0, # of connection points: 2
#     Edge 21, Type (0, 1), BuildingBlock: OJICUG_clean_linker_0, # of connection points: 2
#     Edge 22, Type (0, 1), BuildingBlock: OJICUG_clean_linker_0, # of connection points: 2
#     Edge 23, Type (0, 1), BuildingBlock: OJICUG_clean_linker_0, # of connection points: 2
#     Edge 24, Type (0, 1), BuildingBlock: OJICUG_clean_linker_0, # of connection points: 2
#     Edge 25, Type (0, 1), BuildingBlock: OJICUG_clean_linker_0, # of connection points: 2
#     Edge 26, Type (0, 1), BuildingBlock: OJICUG_clean_linker_0, # of connection points: 2
# Relax obj value: 0.213
# Max RMSD: 0.231
# Mean RMSD: 0.169
data_MOF--net-anh--node1-INOVEN_clean_sbu_0--node2-VETTIZ_charged_linker_0--edge1-OJICUG_clean_linker_0
_symmetry_space_group_name_H-M    P1
_symmetry_Int_Tables_number       1
_symmetry_cell_setting            triclinic
loop_
_symmetry_equiv_pos_as_xyz
'x, y, z'
_cell_length_a     30.15968
_cell_length_b     35.392234
_cell_length_c     52.483559
_cell_angle_alpha  92.772617
_cell_angle_beta   89.388125
_cell_angle_gamma 131.15422
loop_
_atom_site_label
_atom_site_type_symbol
_atom_site_fract_x
_atom_site_fract_y
_atom_site_fract_z
_atom_type_partial_charge
Gd0 Gd 0.1091 0.50438 0.13693 0.0
Gd1 Gd 1.04135 0.53563 0.1463 0.0
C2 C 0.18129 0.62561 0.14259 0.0
C3 C 0.18805 0.50004 0.1241 0.0
C4 C 0.25058 0.53462 0.13222 0.0
C5 C 0.27085 0.51675 0.1472 0.0
C6 C 0.28866 0.58618 0.12768 0.0
C7 C 0.36703 0.60075 0.15214 0.0
C8 C 0.34657 0.61894 0.13745 0.0
C9 C 0.32827 0.54942 0.15715 0.0
C10 C 0.08464 0.50528 0.18637 0.0
C11 C 0.97103 0.41607 0.14068 0.0
C12 C 0.98436 0.5588 0.16742 0.0
C13 C 0.92099 0.52529 0.17215 0.0
C14 C 0.88958 0.54068 0.16738 0.0
C15 C 0.89041 0.47561 0.17884 0.0
C16 C 0.79744 0.45579 0.17338 0.0
C17 C 0.82909 0.44103 0.17926 0.0
C18 C 0.82819 0.50621 0.1681 0.0
C19 C 1.03198 0.50337 0.09712 0.0
O20 O 0.18374 0.58958 0.14378 0.0
O21 O 0.12958 0.61387 0.1413 0.0
O22 O 0.15142 0.4743 0.1423 0.0
O23 O 0.17109 0.51722 0.10917 0.0
O24 O 0.08133 0.47001 0.17532 0.0
O25 O 0.10134 0.53819 0.17091 0.0
O26 O 0.97456 0.45163 0.15302 0.0
O27 O 1.01726 0.42879 0.1282 0.0
O28 O 0.99878 0.56642 0.14338 0.0
O29 O 1.01325 0.55009 0.18048 0.0
O30 O 0.98934 0.49559 0.10946 0.0
O31 O 0.07833 0.53021 0.11092 0.0
H32 H 0.24216 0.47734 0.15121 0.0
H33 H 0.27393 0.60128 0.11654 0.0
H34 H 0.37581 0.65813 0.13299 0.0
H35 H 0.34317 0.53382 0.16768 0.0
H36 H 0.91229 0.57865 0.16206 0.0
H37 H 0.91368 0.46284 0.18284 0.0
H38 H 0.80636 0.40249 0.18346 0.0
H39 H 0.80464 0.51835 0.16312 0.0
Gd40 Gd 0.63673 0.03854 0.47492 0.0
Gd41 Gd 0.56361 0.06459 0.46497 0.0
C42 C 0.49278 0.94738 0.46695 0.0
C43 C 0.6806 1.00135 0.49185 0.0
C44 C 0.66059 0.95104 0.49583 0.0
C45 C 0.66518 0.92498 0.47643 0.0
C46 C 0.63907 0.92954 0.51954 0.0
C47 C 0.62737 0.85714 0.50445 0.0
C48 C 0.62254 0.88315 0.52377 0.0
C49 C 0.64865 0.8785 0.48068 0.0
C50 C 0.62532 0.04749 0.42516 0.0
C51 C 0.70844 0.1562 0.47169 0.0
C52 C 0.52254 0.10424 0.44851 0.0
C53 C 0.53869 0.15298 0.45482 0.0
C54 C 0.56886 0.17966 0.47788 0.0
C55 C 0.52472 0.1734 0.43787 0.0
C56 C 0.56916 0.24621 0.46749 0.0
C57 C 0.53989 0.21967 0.44411 0.0
C58 C 0.58356 0.22555 0.48423 0.0
C59 C 0.57497 0.05654 0.51491 0.0
O60 O 0.54227 0.96228 0.47754 0.0
O61 O 0.4925 0.9807 0.45668 0.0
O62 O 0.68518 1.01361 0.46827 0.0
O63 O 0.6589 0.01624 0.50666 0.0
O64 O 0.67392 0.06337 0.43582 0.0
O65 O 0.5846 0.02611 0.44099 0.0
O66 O 0.657 0.1413 0.46404 0.0
O67 O 0.71179 0.12309 0.47952 0.0
O68 O 0.49885 0.07305 0.46691 0.0
O69 O 0.56218 0.10624 0.43644 0.0
O70 O 0.52746 0.04282 0.50429 0.0
O71 O 0.61566 0.07708 0.49905 0.0
H72 H 0.6821 0.94068 0.45799 0.0
H73 H 0.63578 0.9489 0.53503 0.0
H74 H 0.60754 0.86835 0.5425 0.0
H75 H 0.65265 0.85935 0.46536 0.0
H76 H 0.58047 0.16467 0.49116 0.0
H77 H 0.50199 0.15353 0.41985 0.0
H78 H 0.52884 0.23468 0.43057 0.0
H79 H 0.60507 0.24419 0.50258 0.0
Gd80 Gd 0.63017 0.58451 0.83095 0.0
Gd81 Gd 0.54544 0.47569 0.8357 0.0
C82 C 0.4826 0.52665 0.83573 0.0
C83 C 0.68347 0.67371 0.8156 0.0
C84 C 0.66955 0.70605 0.81044 0.0
C85 C 0.67148 0.73586 0.82999 0.0
C86 C 0.65665 0.709 0.78534 0.0
C87 C 0.64692 0.77002 0.7994 0.0
C88 C 0.64538 0.74035 0.77991 0.0
C89 C 0.66031 0.76746 0.82454 0.0
C90 C 0.61166 0.55583 0.87898 0.0
C91 C 0.69366 0.53431 0.83351 0.0
C92 C 0.4951 0.38565 0.84818 0.0
C93 C 0.50962 0.35352 0.84255 0.0
C94 C 0.53956 0.35943 0.82033 0.0
C95 C 0.49501 0.31759 0.85952 0.0
C96 C 0.53923 0.29314 0.83184 0.0
C97 C 0.50965 0.28769 0.85425 0.0
C98 C 0.55379 0.32946 0.81497 0.0
C99 C 0.56499 0.5032 0.78723 0.0
O100 O 0.5379 0.56714 0.82923 0.0
O101 O 0.47549 0.48622 0.84161 0.0
O102 O 0.68521 0.66495 0.83936 0.0
O103 O 0.65917 0.63408 0.80008 0.0
O104 O 0.66351 0.59313 0.87094 0.0
O105 O 0.57266 0.53741 0.86178 0.0
O106 O 0.63733 0.49304 0.83801 0.0
O107 O 0.70214 0.5757 0.82844 0.0
O108 O 0.47774 0.39509 0.82863 0.0
O109 O 0.53246 0.42554 0.86336 0.0
O110 O 0.51346 0.46628 0.79546 0.0
O111 O 0.60377 0.52239 0.80465 0.0
H112 H 0.68191 0.73503 0.84953 0.0
H113 H 0.65582 0.68737 0.76972 0.0
H114 H 0.63661 0.74206 0.76024 0.0
H115 H 0.66172 0.78958 0.84004 0.0
H116 H 0.55179 0.38718 0.807 0.0
H117 H 0.47246 0.31275 0.87691 0.0
H118 H 0.49832 0.26073 0.86789 0.0
H119 H 0.57546 0.33435 0.79729 0.0
C120 C 0.71897 0.16311 0.1513 0.0
C121 C 0.76637 0.21039 0.16398 0.0
C122 C 0.77046 0.21281 0.1907 0.0
C123 C 0.68261 0.12462 0.19237 0.0
C124 C 0.67715 0.12035 0.16605 0.0
C125 C 0.62218 0.06646 0.15722 0.0
H126 H 0.39001 0.82464 0.19635 0.0
C127 C 0.63362 0.0755 0.20285 0.0
C128 C 0.59711 0.03997 0.18256 0.0
H129 H 0.41916 0.86759 0.11853 0.0
H130 H 0.50611 0.95469 0.13252 0.0
H131 H 0.52206 0.88568 0.21385 0.0
H132 H 0.40467 0.91469 0.21721 0.0
H133 H 0.44771 0.94382 0.24536 0.0
H134 H 0.402 0.8767 0.23966 0.0
H135 H 0.46175 0.85581 0.23518 0.0
H136 H 0.53388 0.91453 0.24417 0.0
C137 C 0.641 0.0428 0.14018 0.0
C138 C 0.57893 0.06815 0.14329 0.0
C139 C 0.62614 0.06541 0.29951 0.0
C140 C 0.58746 0.02616 0.31577 0.0
C141 C 0.53957 0.9783 0.30489 0.0
C142 C 0.53053 0.96961 0.27837 0.0
C143 C 0.56957 1.0092 0.26231 0.0
C144 C 0.61622 0.05607 0.27301 0.0
C145 C 0.65312 0.09361 0.25313 0.0
C146 C 0.62071 0.06163 0.22861 0.0
C147 C 0.57211 1.01235 0.23414 0.0
C148 C 0.71589 0.11155 0.25542 0.0
C149 C 0.65022 0.1357 0.25725 0.0
C150 C 0.41509 0.85237 0.18212 0.0
C151 C 0.39776 0.83857 0.15635 0.0
C152 C 0.43142 0.87684 0.13863 0.0
C153 C 0.48186 0.9273 0.14673 0.0
C154 C 0.4984 0.94019 0.17291 0.0
C155 C 0.46384 0.90233 0.18986 0.0
C156 C 0.4829 0.92091 0.21699 0.0
C157 C 0.53558 0.97584 0.21411 0.0
C158 C 0.54649 0.98854 0.18824 0.0
C159 C 0.50079 0.89277 0.22839 0.0
C160 C 0.43188 0.9135 0.23073 0.0
H161 H 0.73642 0.17675 0.225 0.0
H162 H 0.71416 0.15986 0.13071 0.0
H163 H 0.56996 0.08904 0.15539 0.0
H164 H 0.53622 0.03012 0.13888 0.0
H165 H 0.59752 0.08737 0.12513 0.0
H166 H 0.67482 0.04488 0.15029 0.0
H167 H 0.6601 0.06296 0.12229 0.0
H168 H 0.60342 1.00278 0.13501 0.0
H169 H 0.66317 0.10276 0.30722 0.0
H170 H 0.50962 0.94715 0.31691 0.0
H171 H 0.49361 0.93211 0.27148 0.0
H172 H 0.71475 0.08219 0.26316 0.0
H173 H 0.74511 0.14577 0.26836 0.0
H174 H 0.7369 0.11887 0.23675 0.0
H175 H 0.6068 0.1205 0.2647 0.0
H176 H 0.65405 0.15283 0.23937 0.0
H177 H 0.68471 0.16565 0.27122 0.0
H178 H 0.80583 0.24796 0.20096 0.0
C179 C 0.7296 0.17091 0.20475 0.0
C180 C 0.59659 0.65472 0.52448 0.0
C181 C 0.59191 0.68693 0.53845 0.0
C182 C 0.58738 0.68453 0.56516 0.0
C183 C 0.59449 0.62031 0.56388 0.0
C184 C 0.59732 0.62142 0.53759 0.0
C185 C 0.60072 0.58349 0.52606 0.0
H186 H 0.62154 0.40685 0.54466 0.0
C187 C 0.59944 0.58386 0.57191 0.0
C188 C 0.60321 0.56204 0.54992 0.0
H189 H 0.5952 0.44585 0.4731 0.0
H190 H 0.5986 0.50955 0.49531 0.0
H191 H 0.71685 0.51925 0.57023 0.0
H192 H 0.52815 0.40552 0.57439 0.0
H193 H 0.55719 0.43096 0.60547 0.0
H194 H 0.57767 0.39972 0.58804 0.0
H195 H 0.68224 0.46609 0.58941 0.0
H196 H 0.69893 0.52296 0.60166 0.0
C197 C 0.65805 0.61169 0.51095 0.0
C198 C 0.54379 0.54347 0.50971 0.0
C199 C 0.5986 0.55813 0.66625 0.0
C200 C 0.6072 0.53013 0.6798 0.0
C201 C 0.62148 0.504 0.66654 0.0
C202 C 0.62476 0.50409 0.63986 0.0
C203 C 0.61395 0.53085 0.62639 0.0
C204 C 0.60292 0.55847 0.63968 0.0
C205 C 0.59655 0.58737 0.62243 0.0
C206 C 0.60303 0.57083 0.59647 0.0
C207 C 0.61227 0.53718 0.59887 0.0
C208 C 0.64776 0.6443 0.62899 0.0
C209 C 0.53406 0.56926 0.62558 0.0
C210 C 0.61752 0.42973 0.53375 0.0
C211 C 0.60865 0.42181 0.50714 0.0
C212 C 0.60204 0.45138 0.49364 0.0
C213 C 0.60386 0.48813 0.50655 0.0
C214 C 0.61131 0.49471 0.53329 0.0
C215 C 0.61793 0.46565 0.5464 0.0
C216 C 0.62143 0.47516 0.57482 0.0
C217 C 0.61508 0.51427 0.5767 0.0
C218 C 0.60992 0.52615 0.55234 0.0
C219 C 0.68275 0.49666 0.58476 0.0
C220 C 0.56875 0.4254 0.58652 0.0
H221 H 0.58572 0.65212 0.59826 0.0
H222 H 0.59948 0.65541 0.5039 0.0
H223 H 0.50624 0.53976 0.5168 0.0
H224 H 0.52858 0.50536 0.51058 0.0
H225 H 0.54992 0.55347 0.48947 0.0
H226 H 0.69594 0.64525 0.52242 0.0
H227 H 0.65434 0.62474 0.49292 0.0
H228 H 0.6698 0.58856 0.50625 0.0
H229 H 0.58854 0.57919 0.67615 0.0
H230 H 0.62834 0.48229 0.67679 0.0
H231 H 0.63467 0.48271 0.63073 0.0
H232 H 0.68691 0.65174 0.63718 0.0
H233 H 0.63442 0.65925 0.6432 0.0
H234 H 0.66442 0.66699 0.61198 0.0
H235 H 0.50104 0.52796 0.62773 0.0
H236 H 0.51826 0.57555 0.60881 0.0
H237 H 0.53241 0.5878 0.64279 0.0
H238 H 0.58441 0.7093 0.57635 0.0
C239 C 0.58873 0.65158 0.57791 0.0
C240 C 0.23356 0.53052 0.83238 0.0
C241 C 0.27324 0.52848 0.848 0.0
C242 C 0.26283 0.52755 0.87429 0.0
C243 C 0.17945 0.52656 0.86976 0.0
C244 C 0.18662 0.52952 0.84381 0.0
C245 C 0.13769 0.53062 0.83283 0.0
H246 H 0.8714 0.49095 0.8739 0.0
C247 C 0.12665 0.52183 0.87735 0.0
C248 C 0.09934 0.52496 0.85617 0.0
H249 H 0.95389 0.56865 0.80563 0.0
H250 H 1.03276 0.56452 0.81261 0.0
H251 H 0.89487 0.41439 0.86976 0.0
H252 H 0.97319 0.55844 0.90291 0.0
H253 H 0.99921 0.54043 0.92406 0.0
H254 H 0.92078 0.50322 0.91988 0.0
H255 H 0.86909 0.42525 0.89768 0.0
H256 H 0.92052 0.4152 0.89975 0.0
C257 C 0.09764 0.48676 0.81302 0.0
C258 C 0.16844 0.58083 0.82068 0.0
C259 C 0.08053 0.50139 0.97236 0.0
C260 C 1.0306 0.48514 0.98617 0.0
C261 C 0.9792 0.46563 0.97208 0.0
C262 C 0.97926 0.46715 0.94551 0.0
C263 C 1.03111 0.48814 0.93225 0.0
C264 C 0.07903 0.50145 0.94551 0.0
C265 C 0.12529 0.51279 0.92765 0.0
C266 C 0.1009 0.51133 0.90178 0.0
C267 C 1.04635 0.49848 0.90484 0.0
C268 C 0.12634 0.46955 0.92935 0.0
C269 C 0.18411 0.56617 0.93527 0.0
C270 C 0.90452 0.50639 0.85953 0.0
C271 C 0.90135 0.52906 0.8388 0.0
C272 C 0.95086 0.54992 0.82211 0.0
C273 C 0.99753 0.5472 0.82604 0.0
C274 C 0.9991 0.52414 0.84749 0.0
C275 C 0.95209 0.50618 0.86368 0.0
C276 C 0.96025 0.49128 0.88787 0.0
C277 C 1.01872 0.50304 0.88484 0.0
C278 C 1.04428 0.51946 0.86027 0.0
C279 C 0.90843 0.43369 0.88912 0.0
C280 C 0.96317 0.52438 0.9099 0.0
H281 H 0.21884 0.52852 0.90506 0.0
H282 H 0.23812 0.53196 0.81191 0.0
H283 H 0.19752 0.61257 0.83505 0.0
H284 H 0.13545 0.58257 0.81328 0.0
H285 H 0.19586 0.58566 0.80464 0.0
H286 H 0.07558 0.45043 0.82184 0.0
H287 H 0.12366 0.48983 0.79679 0.0
H288 H 0.0631 0.48648 0.80551 0.0
H289 H 0.12039 0.51472 0.98204 0.0
H290 H 0.93843 0.4493 0.98151 0.0
H291 H 0.93873 0.45256 0.93654 0.0
H292 H 0.08576 0.43567 0.93778 0.0
H293 H 0.16414 0.48145 0.94139 0.0
H294 H 0.12767 0.45541 0.91032 0.0
H295 H 0.17616 0.59185 0.94122 0.0
H296 H 0.21465 0.58436 0.91927 0.0
H297 H 0.20676 0.5653 0.95147 0.0
H298 H 0.2899 0.52728 0.88756 0.0
C299 C 0.21921 0.52749 0.88475 0.0
C300 C 0.96239 0.40806 0.46148 0.0
C301 C 0.91497 0.36046 0.44913 0.0
C302 C 0.91208 0.35632 0.4224 0.0
C303 C 0.99985 0.44427 0.42003 0.0
C304 C 1.00473 0.44988 0.44636 0.0
C305 C 0.05892 0.50428 0.45482 0.0
H306 H 0.2887 0.74415 0.41344 0.0
C307 C 1.04807 0.4931 0.40918 0.0
C308 C 0.08388 0.52964 0.42923 0.0
H309 H 0.25914 0.70542 0.49205 0.0
H310 H 0.17345 0.6174 0.47879 0.0
H311 H 0.2747 0.65388 0.39384 0.0
H312 H 0.15742 0.68297 0.39643 0.0
H313 H 0.14346 0.65177 0.36665 0.0
H314 H 0.21615 0.71104 0.37436 0.0
H315 H 0.27741 0.69167 0.37122 0.0
H316 H 0.23194 0.62457 0.36563 0.0
C317 C 0.10264 0.50401 0.46944 0.0
C318 C 1.03905 0.52793 0.47105 0.0
C319 C 1.05539 0.49946 0.31238 0.0
C320 C 0.09372 0.53822 0.29582 0.0
C321 C 0.14 0.58696 0.30641 0.0
C322 C 0.14823 0.59683 0.33287 0.0
C323 C 0.11006 0.55757 0.34921 0.0
C324 C 0.06451 0.51001 0.33884 0.0
C325 C 1.02843 0.47299 0.35901 0.0
C326 C 0.06038 0.50606 0.38329 0.0
C327 C 0.1079 0.55537 0.3774 0.0
C328 C 1.03311 0.43187 0.35557 0.0
C329 C 0.96498 0.45355 0.35646 0.0
C330 C 0.26389 0.71726 0.42805 0.0
C331 C 0.28072 0.73255 0.4538 0.0
C332 C 0.24738 0.69511 0.47196 0.0
C333 C 0.19762 0.64411 0.46428 0.0
C334 C 0.18138 0.62993 0.43812 0.0
C335 C 0.21562 0.667 0.42078 0.0
C336 C 0.19638 0.64748 0.39378 0.0
C337 C 0.14421 0.59268 0.39715 0.0
C338 C 0.1337 0.58096 0.42315 0.0
C339 C 0.24755 0.65492 0.3802 0.0
C340 C 0.17768 0.67473 0.38195 0.0
H341 H 0.9475 0.39037 0.38774 0.0
H342 H 0.96595 0.41258 0.48209 0.0
H343 H 1.00474 0.52461 0.4605 0.0
H344 H 0.07605 0.56828 0.47578 0.0
H345 H 1.02021 0.50867 0.48918 0.0
H346 H 0.11248 0.4832 0.45792 0.0
H347 H 0.08397 0.48541 0.48775 0.0
H348 H 0.14491 0.54241 0.4737 0.0
H349 H 1.01891 0.46166 0.30497 0.0
H350 H 0.17087 0.61748 0.29422 0.0
H351 H 0.18445 0.63475 0.33949 0.0
H352 H 0.07646 0.44749 0.34784 0.0
H353 H 0.99838 0.40068 0.34212 0.0
H354 H 1.03097 0.41633 0.37378 0.0
H355 H 0.96506 0.48221 0.34855 0.0
H356 H 0.94355 0.44585 0.37504 0.0
H357 H 0.93667 0.4192 0.34353 0.0
H358 H 0.87674 0.32074 0.41245 0.0
C359 C 0.95363 0.39729 0.40798 0.0
C360 C 0.61719 0.94033 0.77871 0.0
C361 C 0.62118 0.90788 0.76436 0.0
C362 C 0.62406 0.91012 0.73761 0.0
C363 C 0.61733 0.97469 0.73957 0.0
C364 C 0.61485 0.97319 0.76588 0.0
C365 C 0.60782 1.0089 0.77758 0.0
H366 H 0.59021 0.18868 0.75879 0.0
C367 C 0.61303 1.01181 0.73182 0.0
C368 C 0.60748 0.03233 0.75399 0.0
H369 H 0.57854 0.12868 0.83062 0.0
H370 H 0.59027 0.0733 0.80896 0.0
H371 H 0.69375 0.19412 0.73457 0.0
H372 H 0.50484 0.0873 0.73009 0.0
H373 H 0.52654 0.08099 0.70025 0.0
H374 H 0.54714 0.1403 0.7105 0.0
H375 H 0.65032 0.20404 0.71834 0.0
H376 H 0.6729 0.1731 0.70235 0.0
C377 C 0.66166 0.04814 0.79546 0.0
C378 C 0.54828 0.97767 0.79115 0.0
C379 C 0.61294 0.03894 0.63723 0.0
C380 C 0.60528 0.06822 0.62427 0.0
C381 C 0.60123 0.10061 0.6384 0.0
C382 C 0.60375 0.10333 0.6651 0.0
C383 C 0.6095 0.07274 0.67794 0.0
C384 C 0.61431 0.04144 0.66405 0.0
C385 C 0.61771 1.01029 0.68106 0.0
C386 C 0.61354 0.02775 0.70736 0.0
C387 C 0.60912 0.06447 0.70534 0.0
C388 C 0.67834 0.02499 0.67736 0.0
C389 C 0.56381 0.95406 0.67449 0.0
C390 C 0.59095 0.1641 0.76994 0.0
C391 C 0.58443 0.16357 0.79643 0.0
C392 C 0.58377 0.12986 0.81015 0.0
C393 C 0.59059 0.09783 0.79754 0.0
C394 C 0.59699 0.09887 0.77086 0.0
C395 C 0.59647 0.13149 0.75765 0.0
C396 C 0.59992 0.12608 0.72939 0.0
C397 C 0.6041 0.0857 0.72758 0.0
C398 C 0.60284 0.06975 0.75186 0.0
C399 C 0.65688 0.17691 0.72046 0.0
C400 C 0.54203 0.10808 0.71672 0.0
H401 H 0.62465 0.9427 0.70484 0.0
H402 H 0.61461 0.9393 0.7993 0.0
H403 H 0.51369 0.94221 0.77976 0.0
H404 H 0.53127 0.99726 0.79337 0.0
H405 H 0.55192 0.96746 0.81022 0.0
H406 H 0.7031 0.06282 0.78596 0.0
H407 H 0.65908 0.03116 0.81329 0.0
H408 H 0.66623 0.08116 0.80058 0.0
H409 H 0.61542 1.01327 0.62675 0.0
H410 H 0.59549 0.12354 0.6287 0.0
H411 H 0.6002 0.12866 0.67466 0.0
H412 H 0.71317 0.06588 0.67444 0.0
H413 H 0.67721 1.0043 0.66041 0.0
H414 H 0.69392 0.01871 0.69423 0.0
H415 H 0.52501 0.94904 0.6682 0.0
H416 H 0.54838 0.93051 0.69108 0.0
H417 H 0.57355 0.93842 0.65882 0.0
H418 H 0.62802 0.88621 0.72615 0.0
C419 C 0.62236 0.94323 0.72523 0.0
C420 C 0.53517 0.36239 0.14082 0.0
C421 C 0.57229 0.35406 0.13183 0.0
C422 C 0.57883 0.35256 0.10519 0.0
C423 C 0.53367 0.38809 0.09913 0.0
C424 C 0.52139 0.38409 0.12482 0.0
C425 C 0.50558 0.41495 0.1337 0.0
H426 H 0.5939 0.64058 0.1184 0.0
C427 C 0.52749 0.42246 0.08887 0.0
C428 C 0.51317 0.44002 0.10924 0.0
H429 H 0.47377 0.53921 0.17578 0.0
H430 H 0.46485 0.47284 0.15474 0.0
H431 H 0.65212 0.58096 0.0939 0.0
H432 H 0.55274 0.61289 0.07829 0.0
H433 H 0.49251 0.54865 0.06845 0.0
H434 H 0.56069 0.58806 0.05086 0.0
H435 H 0.65751 0.6331 0.08654 0.0
H436 H 0.6413 0.58864 0.06153 0.0
C437 C 0.5493 0.45296 0.1555 0.0
C438 C 0.441 0.37876 0.14198 0.0
C439 C 0.57326 0.47298 -0.0038 0.0
C440 C 0.56032 0.49792 0.9823 0.0
C441 C 0.53342 0.51442 -0.00551 0.0
C442 C 0.52373 0.50965 0.02062 0.0
C443 C 0.54452 0.4914 0.03468 0.0
C444 C 0.56259 0.46843 0.02244 0.0
C445 C 0.56195 0.43561 0.04018 0.0
C446 C 0.53995 0.44323 0.06459 0.0
C447 C 0.53602 0.47976 0.06128 0.0
C448 C 0.62601 0.45721 0.04338 0.0
C449 C 0.51786 0.38063 0.0291 0.0
C450 C 0.56729 0.60471 0.12706 0.0
C451 C 0.53523 0.59625 0.14902 0.0
C452 C 0.50116 0.54851 0.15956 0.0
C453 C 0.49547 0.50949 0.14734 0.0
C454 C 0.52508 0.51805 0.12476 0.0
C455 C 0.55721 0.56409 0.11406 0.0
C456 C 0.56702 0.56059 0.08616 0.0
C457 C 0.53436 0.50454 0.08249 0.0
C458 C 0.51771 0.48216 0.10595 0.0
C459 C 0.63341 0.59272 0.0818 0.0
C460 C 0.54134 0.57794 0.07 0.0
H461 H 0.56798 0.36966 0.06891 0.0
H462 H 0.52601 0.3604 0.16092 0.0
H463 H 0.41251 0.34709 0.12747 0.0
H464 H 0.42262 0.39722 0.14404 0.0
H465 H 0.43708 0.36271 0.16042 0.0
H466 H 0.54933 0.43376 0.17156 0.0
H467 H 0.53819 0.47442 0.1643 0.0
H468 H 0.59487 0.47987 0.14837 0.0
H469 H 0.58954 0.45644 0.98678 0.0
H470 H 0.51949 0.53055 0.98371 0.0
H471 H 0.49721 0.51703 0.02899 0.0
H472 H 0.65774 0.49902 0.044 0.0
H473 H 0.63773 0.44409 0.02719 0.0
H474 H 0.63427 0.44783 0.06144 0.0
H475 H 0.47799 0.3719 0.02085 0.0
H476 H 0.50129 0.3529 0.04368 0.0
H477 H 0.53794 0.37402 0.01368 0.0
H478 H 0.60562 0.34493 0.0972 0.0
C479 C 0.55844 0.36855 0.08873 0.0
C480 C 0.44951 0.62473 0.17989 0.0
C481 C 0.43063 0.63097 0.15738 0.0
H482 H 0.50419 0.61277 0.19563 0.0
C483 C 0.46766 0.65009 0.13646 0.0
H484 H 0.42301 0.61217 0.19674 0.0
C485 C 0.51298 0.64904 0.13552 0.0
C486 C 0.52123 0.62888 0.1556 0.0
H487 H 0.45548 0.65703 0.11909 0.0
H488 H 0.53346 0.65562 0.11732 0.0
C489 C 0.49572 0.6246 0.17911 0.0
C490 C 0.75846 0.24719 0.46526 0.0
C491 C 0.76311 0.21119 0.4706 0.0
H492 H 0.80281 0.32279 0.45536 0.0
C493 C 0.82041 0.22817 0.47315 0.0
H494 H 0.71555 0.23618 0.4632 0.0
C495 C 0.8709 0.27854 0.46885 0.0
C496 C 0.86581 0.31374 0.46231 0.0
H497 H 0.82624 0.20192 0.47715 0.0
H498 H 0.91374 0.28911 0.46902 0.0
C499 C 0.80878 0.29738 0.46114 0.0
C500 C 0.59248 0.78817 0.77445 0.0
C501 C 0.6356 0.80391 0.79309 0.0
H502 H 0.55359 0.80828 0.75123 0.0
C503 C 0.66961 0.85299 0.80439 0.0
H504 H 0.56434 0.75034 0.76579 0.0
C505 C 0.66284 0.88623 0.79617 0.0
C506 C 0.62214 0.87112 0.77643 0.0
H507 H 0.70337 0.86654 0.81874 0.0
H508 H 0.6915 0.92446 0.80432 0.0
C509 C 0.58601 0.8213 0.7662 0.0
C510 C 0.7064 0.37564 0.15308 0.0
C511 C 0.73283 0.41823 0.16972 0.0
H512 H 0.63193 0.31907 0.12874 0.0
C513 C 0.69886 0.42941 0.17909 0.0
H514 H 0.73164 0.36582 0.14584 0.0
C515 C 0.64232 0.40324 0.16917 0.0
C516 C 0.61858 0.36532 0.14949 0.0
H517 H 0.71797 0.46142 0.19238 0.0
H518 H 0.6208 0.41729 0.175 0.0
C519 C 0.64939 0.3491 0.14314 0.0
C520 C 0.38698 0.87607 0.45185 0.0
C521 C 0.4373 0.89238 0.46558 0.0
H522 H 0.29908 0.81419 0.43788 0.0
C523 C 0.43361 0.85536 0.47745 0.0
H524 H 0.38728 0.90285 0.4425 0.0
C525 C 0.38194 0.80381 0.47502 0.0
C526 C 0.33257 0.78761 0.46044 0.0
H527 H 0.47106 0.86608 0.4883 0.0
H528 H 0.38156 0.77644 0.48368 0.0
C529 C 0.33593 0.82487 0.44925 0.0
C530 C 0.60569 0.28019 0.81253 0.0
C531 C 0.55405 0.2608 0.82562 0.0
H532 H 0.65575 0.26477 0.7933 0.0
C533 C 0.51561 0.20976 0.83146 0.0
H534 H 0.63735 0.31947 0.80829 0.0
C535 C 0.52714 0.1786 0.82333 0.0
C536 C 0.57698 0.19765 0.80897 0.0
H537 H 0.47522 0.19319 0.84132 0.0
H538 H 0.49551 0.13906 0.82711 0.0
C539 C 0.61668 0.24898 0.80414 0.0
C540 C 0.5647 0.7741 0.52478 0.0
C541 C 0.61297 0.80925 0.50975 0.0
H542 H 0.51955 0.70719 0.54521 0.0
C543 C 0.6498 0.80001 0.50151 0.0
H544 H 0.53466 0.77942 0.53094 0.0
C545 C 0.6407 0.75824 0.50949 0.0
C546 C 0.59481 0.72514 0.52594 0.0
H547 H 0.68758 0.82647 0.49005 0.0
H548 H 0.67164 0.75356 0.50404 0.0
C549 C 0.55583 0.7326 0.53284 0.0
C550 C 0.80521 0.57092 0.82421 0.0
C551 C 0.74738 0.53344 0.83421 0.0
H552 H 0.89431 0.59982 0.81676 0.0
C553 C 0.74266 0.49446 0.84504 0.0
H554 H 0.81427 0.60235 0.81543 0.0
C555 C 0.79039 0.49347 0.84625 0.0
C556 C 0.84823 0.53066 0.83621 0.0
H557 H 0.7011 0.46386 0.85315 0.0
H558 H 0.78092 0.46199 0.85516 0.0
C559 C 0.85276 0.56932 0.82489 0.0
C560 C 0.29118 0.6944 0.15277 0.0
C561 C 0.2378 0.68026 0.14394 0.0
H562 H 0.38254 0.75453 0.16346 0.0
C563 C 0.2392 0.71919 0.13709 0.0
H564 H 0.29245 0.66607 0.15838 0.0
C565 C 0.29175 0.77031 0.13947 0.0
C566 C 0.34447 0.78431 0.14915 0.0
H567 H 0.19938 0.71022 0.13015 0.0
H568 H 0.29051 0.79907 0.13476 0.0
C569 C 0.34322 0.74538 0.1556 0.0
C570 C 0.63411 0.33254 0.48958 0.0
C571 C 0.5828 0.29419 0.475 0.0
H572 H 0.68257 0.40304 0.51104 0.0
C573 C 0.54303 0.3009 0.46904 0.0
H574 H 0.66656 0.32944 0.49402 0.0
C575 C 0.55304 0.34375 0.47837 0.0
C576 C 0.60264 0.38049 0.49408 0.0
H577 H 0.50275 0.27207 0.45812 0.0
H578 H 0.52045 0.3469 0.47437 0.0
C579 C 0.64363 0.37495 0.49918 0.0
C580 C 0.37195 0.4876 0.84744 0.0
C581 C 0.42815 0.52674 0.83693 0.0
H582 H 0.2843 0.45674 0.85873 0.0
C583 C 0.42968 0.56558 0.82803 0.0
H584 H 0.3652 0.45625 0.85496 0.0
C585 C 0.38058 0.56528 0.82972 0.0
C586 C 0.32447 0.52608 0.84052 0.0
H587 H 0.47 0.59753 0.81978 0.0
H588 H 0.38789 0.59748 0.82316 0.0
C589 C 0.32354 0.48768 0.84943 0.0
C590 C 0.91313 0.32111 0.13588 0.0
C591 C 0.91519 0.36152 0.14228 0.0
H592 H 0.8642 0.24139 0.13713 0.0
C593 C 0.86351 0.34937 0.15189 0.0
H594 H 0.95173 0.32853 0.1285 0.0
C595 C 0.81311 0.2994 0.15633 0.0
C596 C 0.81195 0.25926 0.15128 0.0
H597 H 0.86251 0.37881 0.15688 0.0
H598 H 0.7759 0.29244 0.16522 0.0
C599 C 0.86247 0.27082 0.14051 0.0
C600 C 0.06918 0.49262 0.05676 0.0
C601 C 1.03147 0.49757 0.06899 0.0
H602 H 0.0971 0.48259 0.02134 0.0
C603 C 0.99396 0.49843 0.05407 0.0
H604 H 0.09847 0.49172 0.06788 0.0
C605 C 0.99464 0.49524 0.02747 0.0
C606 C 1.03134 0.48916 0.01485 0.0
H607 H 0.96509 0.50307 0.06296 0.0
H608 H 0.96681 0.49853 0.01692 0.0
C609 C 0.06863 0.48782 0.03 0.0
C610 C 0.55939 0.01861 0.38683 0.0
C611 C 0.61609 0.04488 0.39735 0.0
H612 H 0.50594 0.99244 0.35277 0.0
C613 C 0.66371 0.06706 0.38099 0.0
H614 H 0.52192 1.00137 0.39903 0.0
C615 C 0.65461 0.06197 0.35453 0.0
C616 C 0.59764 0.03441 0.3439 0.0
H617 H 0.70792 0.08763 0.38861 0.0
H618 H 0.69198 0.07835 0.34238 0.0
C619 C 0.55022 1.01328 0.36036 0.0
C620 C 0.53258 0.49886 0.74303 0.0
C621 C 0.57745 0.51314 0.76005 0.0
H622 H 0.50758 0.49409 0.70414 0.0
C623 C 0.63316 0.53483 0.7507 0.0
H624 H 0.48935 0.4822 0.74985 0.0
C625 C 0.64313 0.54054 0.72452 0.0
C626 C 0.59801 0.5259 0.70752 0.0
H627 H 0.6684 0.54601 0.76351 0.0
H628 H 0.68593 0.55632 0.71753 0.0
C629 C 0.54298 0.50574 0.717 0.0
C630 C 0.53814 0.04556 0.55896 0.0
C631 C 0.58297 0.05798 0.54277 0.0
H632 H 0.51064 0.03955 0.59745 0.0
C633 C 0.63489 0.07223 0.55353 0.0
H634 H 0.49759 0.03436 0.55124 0.0
C635 C 0.64177 0.07417 0.58009 0.0
C636 C 0.5974 0.06302 0.59619 0.0
H637 H 0.67021 0.08218 0.54149 0.0
H638 H 0.68226 0.08566 0.58809 0.0
C639 C 0.54552 0.04852 0.58538 0.0
C640 C 0.54019 0.5028 0.91242 0.0
C641 C 0.59889 0.53753 0.90485 0.0
H642 H 0.48203 0.46264 0.9432 0.0
C643 C 0.64459 0.55486 0.92226 0.0
H644 H 0.50412 0.48854 0.89927 0.0
C645 C 0.63174 0.53913 0.94724 0.0
C646 C 0.57318 0.50647 0.95508 0.0
H647 H 0.69015 0.58129 0.91673 0.0
H648 H 0.66756 0.55436 0.96076 0.0
C649 C 0.52747 0.48772 0.93741 0.0
C650 C 0.09574 0.55548 0.22486 0.0
C651 C 0.08259 0.51185 0.21419 0.0
H652 H 0.1081 0.59746 0.25893 0.0
C653 C 0.07005 0.47566 0.23041 0.0
H654 H 0.10565 0.58405 0.21279 0.0
C655 C 0.07232 0.48364 0.2569 0.0
C656 C 0.08698 0.52793 0.26768 0.0
H657 H 0.0598 0.44168 0.22267 0.0
H658 H 0.06443 0.45581 0.26891 0.0
C659 C 0.09769 0.56335 0.25131 0.0
loop_
_geom_bond_atom_site_label_1
_geom_bond_atom_site_label_2
_geom_bond_distance
_geom_bond_site_symmetry_2
_ccdc_geom_bond_type
Gd0 C3 2.818 . S
Gd0 O20 2.377 . S
Gd0 O22 2.448 . S
Gd0 O23 2.506 . S
Gd0 O24 2.435 . S
Gd0 O25 2.717 . S
Gd0 O27 2.395 1_455 S
Gd0 O31 2.327 . S
Gd1 C12 2.818 . S
Gd1 O21 2.395 1_655 S
Gd1 O25 2.327 1_655 S
Gd1 O26 2.377 . S
Gd1 O28 2.448 . S
Gd1 O29 2.506 . S
Gd1 O30 2.435 1_655 S
Gd1 O31 2.717 1_655 S
C2 O20 1.240 . S
C2 O21 1.240 . S
C3 Gd0 2.818 . S
C3 C4 1.510 . S
C3 O22 1.249 . S
C3 O23 1.252 . S
C4 C3 1.510 . S
C4 C5 1.404 . S
C4 C6 1.352 . S
C5 C4 1.404 . S
C5 C9 1.389 . S
C5 H32 0.930 . S
C6 C4 1.352 . S
C6 C8 1.374 . S
C6 H33 0.931 . S
C7 C8 1.359 . S
C7 C9 1.364 . S
C8 C6 1.374 . S
C8 C7 1.359 . S
C8 H34 0.931 . S
C9 C5 1.389 . S
C9 C7 1.364 . S
C9 H35 0.931 . S
C10 O24 1.256 . S
C10 O25 1.257 . S
C11 O26 1.240 . S
C11 O27 1.240 . S
C12 Gd1 2.818 . S
C12 C13 1.510 . S
C12 O28 1.249 . S
C12 O29 1.252 . S
C13 C12 1.510 . S
C13 C14 1.404 . S
C13 C15 1.352 . S
C14 C13 1.404 . S
C14 C18 1.389 . S
C14 H36 0.930 . S
C15 C13 1.352 . S
C15 C17 1.374 . S
C15 H37 0.931 . S
C16 C17 1.359 . S
C16 C18 1.364 . S
C17 C15 1.374 . S
C17 C16 1.359 . S
C17 H38 0.931 . S
C18 C14 1.389 . S
C18 C16 1.364 . S
C18 H39 0.931 . S
C19 O30 1.256 . S
C19 O31 1.257 . S
O20 Gd0 2.377 . S
O20 C2 1.240 . S
O21 Gd1 2.395 1_455 S
O21 C2 1.240 . S
O22 Gd0 2.448 . S
O22 C3 1.249 . S
O23 Gd0 2.506 . S
O23 C3 1.252 . S
O24 Gd0 2.435 . S
O24 C10 1.256 . S
O25 Gd0 2.717 . S
O25 Gd1 2.327 1_455 S
O25 C10 1.257 . S
O26 Gd1 2.377 . S
O26 C11 1.240 . S
O27 Gd0 2.395 1_655 S
O27 C11 1.240 . S
O28 Gd1 2.448 . S
O28 C12 1.249 . S
O29 Gd1 2.506 . S
O29 C12 1.252 . S
O30 Gd1 2.435 1_455 S
O30 C19 1.256 . S
O31 Gd0 2.327 . S
O31 Gd1 2.717 1_455 S
O31 C19 1.257 . S
H32 C5 0.930 . S
H33 C6 0.931 . S
H34 C8 0.931 . S
H35 C9 0.931 . S
H36 C14 0.930 . S
H37 C15 0.931 . S
H38 C17 0.931 . S
H39 C18 0.931 . S
Gd40 C43 2.818 . S
Gd40 O60 2.377 . S
Gd40 O62 2.448 . S
Gd40 O63 2.506 . S
Gd40 O64 2.435 . S
Gd40 O65 2.717 1_565 S
Gd40 O67 2.395 1_565 S
Gd40 O71 2.311 1_565 S
Gd41 C52 2.818 . S
Gd41 O61 2.395 1_545 S
Gd41 O65 2.327 . S
Gd41 O66 2.377 . S
Gd41 O68 2.448 . S
Gd41 O69 2.506 . S
Gd41 O70 2.435 . S
Gd41 O71 2.743 . S
C42 O60 1.240 . S
C42 O61 1.240 . S
C43 Gd40 2.818 . S
C43 C44 1.510 . S
C43 O62 1.249 . S
C43 O63 1.252 . S
C44 C43 1.510 . S
C44 C45 1.404 . S
C44 C46 1.352 . S
C45 C44 1.404 . S
C45 C49 1.389 . S
C45 H72 0.930 . S
C46 C44 1.352 . S
C46 C48 1.374 . S
C46 H73 0.931 . S
C47 C48 1.359 . S
C47 C49 1.364 . S
C48 C46 1.374 . S
C48 C47 1.359 . S
C48 H74 0.931 . S
C49 C45 1.389 . S
C49 C47 1.364 . S
C49 H75 0.931 . S
C50 O64 1.256 1_545 S
C50 O65 1.257 . S
C51 O66 1.240 . S
C51 O67 1.240 . S
C52 Gd41 2.818 . S
C52 C53 1.510 . S
C52 O68 1.249 . S
C52 O69 1.252 . S
C53 C52 1.510 . S
C53 C54 1.404 . S
C53 C55 1.352 . S
C54 C53 1.404 . S
C54 C58 1.389 . S
C54 H76 0.930 . S
C55 C53 1.352 . S
C55 C57 1.374 . S
C55 H77 0.931 . S
C56 C57 1.359 . S
C56 C58 1.364 . S
C57 C55 1.374 . S
C57 C56 1.359 . S
C57 H78 0.931 . S
C58 C54 1.389 . S
C58 C56 1.364 . S
C58 H79 0.931 . S
C59 O70 1.256 . S
C59 O71 1.272 . S
O60 Gd40 2.377 . S
O60 C42 1.240 . S
O61 Gd41 2.395 1_565 S
O61 C42 1.240 . S
O62 Gd40 2.448 . S
O62 C43 1.249 . S
O63 Gd40 2.506 . S
O63 C43 1.252 . S
O64 Gd40 2.435 . S
O64 C50 1.256 1_565 S
O65 Gd40 2.717 1_545 S
O65 Gd41 2.327 . S
O65 C50 1.257 . S
O66 Gd41 2.377 . S
O66 C51 1.240 . S
O67 Gd40 2.395 1_545 S
O67 C51 1.240 . S
O68 Gd41 2.448 . S
O68 C52 1.249 . S
O69 Gd41 2.506 . S
O69 C52 1.252 . S
O70 Gd41 2.435 . S
O70 C59 1.256 . S
O71 Gd40 2.311 1_545 S
O71 Gd41 2.743 . S
O71 C59 1.272 . S
H72 C45 0.930 . S
H73 C46 0.931 . S
H74 C48 0.931 . S
H75 C49 0.931 . S
H76 C54 0.930 . S
H77 C55 0.931 . S
H78 C57 0.931 . S
H79 C58 0.931 . S
Gd80 C83 2.818 . S
Gd80 O100 2.377 . S
Gd80 O102 2.448 . S
Gd80 O103 2.506 . S
Gd80 O104 2.435 . S
Gd80 O105 2.717 . S
Gd80 O107 2.395 . S
Gd80 O111 2.327 . S
Gd81 C92 2.818 . S
Gd81 O101 2.395 . S
Gd81 O105 2.327 . S
Gd81 O106 2.377 . S
Gd81 O108 2.448 . S
Gd81 O109 2.506 . S
Gd81 O110 2.435 . S
Gd81 O111 2.717 . S
C82 O100 1.240 . S
C82 O101 1.240 . S
C83 Gd80 2.818 . S
C83 C84 1.510 . S
C83 O102 1.249 . S
C83 O103 1.252 . S
C84 C83 1.510 . S
C84 C85 1.404 . S
C84 C86 1.352 . S
C85 C84 1.404 . S
C85 C89 1.389 . S
C85 H112 0.930 . S
C86 C84 1.352 . S
C86 C88 1.374 . S
C86 H113 0.931 . S
C87 C88 1.359 . S
C87 C89 1.364 . S
C88 C86 1.374 . S
C88 C87 1.359 . S
C88 H114 0.931 . S
C89 C85 1.389 . S
C89 C87 1.364 . S
C89 H115 0.931 . S
C90 O104 1.256 . S
C90 O105 1.257 . S
C91 O106 1.240 . S
C91 O107 1.240 . S
C92 Gd81 2.818 . S
C92 C93 1.510 . S
C92 O108 1.249 . S
C92 O109 1.252 . S
C93 C92 1.510 . S
C93 C94 1.404 . S
C93 C95 1.352 . S
C94 C93 1.404 . S
C94 C98 1.389 . S
C94 H116 0.930 . S
C95 C93 1.352 . S
C95 C97 1.374 . S
C95 H117 0.931 . S
C96 C97 1.359 . S
C96 C98 1.364 . S
C97 C95 1.374 . S
C97 C96 1.359 . S
C97 H118 0.931 . S
C98 C94 1.389 . S
C98 C96 1.364 . S
C98 H119 0.931 . S
C99 O110 1.256 . S
C99 O111 1.257 . S
O100 Gd80 2.377 . S
O100 C82 1.240 . S
O101 Gd81 2.395 . S
O101 C82 1.240 . S
O102 Gd80 2.448 . S
O102 C83 1.249 . S
O103 Gd80 2.506 . S
O103 C83 1.252 . S
O104 Gd80 2.435 . S
O104 C90 1.256 . S
O105 Gd80 2.717 . S
O105 Gd81 2.327 . S
O105 C90 1.257 . S
O106 Gd81 2.377 . S
O106 C91 1.240 . S
O107 Gd80 2.395 . S
O107 C91 1.240 . S
O108 Gd81 2.448 . S
O108 C92 1.249 . S
O109 Gd81 2.506 . S
O109 C92 1.252 . S
O110 Gd81 2.435 . S
O110 C99 1.256 . S
O111 Gd80 2.327 . S
O111 Gd81 2.717 . S
O111 C99 1.257 . S
H112 C85 0.930 . S
H113 C86 0.931 . S
H114 C88 0.931 . S
H115 C89 0.931 . S
H116 C94 0.930 . S
H117 C95 0.931 . S
H118 C97 0.931 . S
H119 C98 0.931 . S
C120 C121 1.391 . S
C120 C124 1.391 . S
C120 H162 0.948 . S
C121 C120 1.391 . S
C121 C122 1.391 . S
C122 C121 1.391 . S
C122 H178 0.947 . S
C122 C179 1.392 . S
C123 C124 1.391 . S
C123 C127 1.397 . S
C123 C179 1.419 . S
C124 C120 1.391 . S
C124 C123 1.391 . S
C124 C125 1.399 . S
C125 C124 1.399 . S
C125 C128 1.396 . S
C125 C137 1.453 . S
C125 C138 1.684 . S
H126 C150 0.948 . S
C127 C123 1.397 . S
C127 C128 1.394 . S
C127 C146 1.723 . S
C128 C125 1.396 . S
C128 C127 1.394 . S
C128 C158 1.723 1_545 S
H129 C152 0.947 . S
H130 C153 0.948 . S
H131 C159 0.982 . S
H132 C160 0.979 . S
H133 C160 0.980 . S
H134 C160 0.983 . S
H135 C159 0.979 . S
H136 C159 0.977 . S
C137 C125 1.453 . S
C137 H166 0.982 . S
C137 H167 0.979 . S
C137 H168 0.977 . S
C138 C125 1.684 . S
C138 H163 0.979 . S
C138 H164 0.980 . S
C138 H165 0.983 . S
C139 C140 1.391 . S
C139 C144 1.391 . S
C139 H169 0.948 . S
C140 C139 1.391 . S
C140 C141 1.391 1_545 S
C141 C140 1.391 1_565 S
C141 C142 1.392 . S
C141 H170 0.947 . S
C142 C141 1.392 . S
C142 C143 1.419 1_565 S
C142 H171 0.948 . S
C143 C142 1.419 1_545 S
C143 C144 1.391 . S
C143 C147 1.397 . S
C144 C139 1.391 . S
C144 C143 1.391 . S
C144 C145 1.399 . S
C145 C144 1.399 . S
C145 C146 1.396 . S
C145 C148 1.453 . S
C145 C149 1.684 . S
C146 C127 1.723 . S
C146 C145 1.396 . S
C146 C147 1.394 . S
C147 C143 1.397 . S
C147 C146 1.394 . S
C147 C157 1.723 1_545 S
C148 C145 1.453 . S
C148 H172 0.982 . S
C148 H173 0.979 . S
C148 H174 0.977 . S
C149 C145 1.684 . S
C149 H175 0.979 . S
C149 H176 0.980 . S
C149 H177 0.983 . S
C150 H126 0.948 . S
C150 C151 1.391 . S
C150 C155 1.391 . S
C151 C150 1.391 . S
C151 C152 1.391 . S
C152 H129 0.947 . S
C152 C151 1.391 . S
C152 C153 1.392 . S
C153 H130 0.948 . S
C153 C152 1.392 . S
C153 C154 1.419 . S
C154 C153 1.419 . S
C154 C155 1.391 . S
C154 C158 1.397 . S
C155 C150 1.391 . S
C155 C154 1.391 . S
C155 C156 1.399 . S
C156 C155 1.399 . S
C156 C157 1.396 . S
C156 C159 1.453 . S
C156 C160 1.684 . S
C157 C147 1.723 1_565 S
C157 C156 1.396 . S
C157 C158 1.394 . S
C158 C128 1.723 1_565 S
C158 C154 1.397 . S
C158 C157 1.394 . S
C159 H131 0.982 . S
C159 H135 0.979 . S
C159 H136 0.977 . S
C159 C156 1.453 . S
C160 H132 0.979 . S
C160 H133 0.980 . S
C160 H134 0.983 . S
C160 C156 1.684 . S
H161 C179 0.948 . S
H162 C120 0.948 . S
H163 C138 0.979 . S
H164 C138 0.980 . S
H165 C138 0.983 . S
H166 C137 0.982 . S
H167 C137 0.979 . S
H168 C137 0.977 . S
H169 C139 0.948 . S
H170 C141 0.947 . S
H171 C142 0.948 . S
H172 C148 0.982 . S
H173 C148 0.979 . S
H174 C148 0.977 . S
H175 C149 0.979 . S
H176 C149 0.980 . S
H177 C149 0.983 . S
H178 C122 0.947 . S
C179 C122 1.392 . S
C179 C123 1.419 . S
C179 H161 0.948 . S
C180 C181 1.391 . S
C180 C184 1.391 . S
C180 H222 0.948 . S
C181 C180 1.391 . S
C181 C182 1.391 . S
C182 C181 1.391 . S
C182 H238 0.947 . S
C182 C239 1.392 . S
C183 C184 1.391 . S
C183 C187 1.397 . S
C183 C239 1.419 . S
C184 C180 1.391 . S
C184 C183 1.391 . S
C184 C185 1.399 . S
C185 C184 1.399 . S
C185 C188 1.396 . S
C185 C197 1.453 . S
C185 C198 1.684 . S
H186 C210 0.948 . S
C187 C183 1.397 . S
C187 C188 1.394 . S
C187 C206 1.723 . S
C188 C185 1.396 . S
C188 C187 1.394 . S
C188 C218 1.723 . S
H189 C212 0.947 . S
H190 C213 0.948 . S
H191 C219 0.982 . S
H192 C220 0.979 . S
H193 C220 0.980 . S
H194 C220 0.983 . S
H195 C219 0.979 . S
H196 C219 0.977 . S
C197 C185 1.453 . S
C197 H226 0.982 . S
C197 H227 0.979 . S
C197 H228 0.977 . S
C198 C185 1.684 . S
C198 H223 0.979 . S
C198 H224 0.980 . S
C198 H225 0.983 . S
C199 C200 1.391 . S
C199 C204 1.391 . S
C199 H229 0.948 . S
C200 C199 1.391 . S
C200 C201 1.391 . S
C201 C200 1.391 . S
C201 C202 1.392 . S
C201 H230 0.947 . S
C202 C201 1.392 . S
C202 C203 1.419 . S
C202 H231 0.948 . S
C203 C202 1.419 . S
C203 C204 1.391 . S
C203 C207 1.397 . S
C204 C199 1.391 . S
C204 C203 1.391 . S
C204 C205 1.399 . S
C205 C204 1.399 . S
C205 C206 1.396 . S
C205 C208 1.453 . S
C205 C209 1.684 . S
C206 C187 1.723 . S
C206 C205 1.396 . S
C206 C207 1.394 . S
C207 C203 1.397 . S
C207 C206 1.394 . S
C207 C217 1.723 . S
C208 C205 1.453 . S
C208 H232 0.982 . S
C208 H233 0.979 . S
C208 H234 0.977 . S
C209 C205 1.684 . S
C209 H235 0.979 . S
C209 H236 0.980 . S
C209 H237 0.983 . S
C210 H186 0.948 . S
C210 C211 1.391 . S
C210 C215 1.391 . S
C211 C210 1.391 . S
C211 C212 1.391 . S
C212 H189 0.947 . S
C212 C211 1.391 . S
C212 C213 1.392 . S
C213 H190 0.948 . S
C213 C212 1.392 . S
C213 C214 1.419 . S
C214 C213 1.419 . S
C214 C215 1.391 . S
C214 C218 1.397 . S
C215 C210 1.391 . S
C215 C214 1.391 . S
C215 C216 1.399 . S
C216 C215 1.399 . S
C216 C217 1.396 . S
C216 C219 1.453 . S
C216 C220 1.684 . S
C217 C207 1.723 . S
C217 C216 1.396 . S
C217 C218 1.394 . S
C218 C188 1.723 . S
C218 C214 1.397 . S
C218 C217 1.394 . S
C219 H191 0.982 . S
C219 H195 0.979 . S
C219 H196 0.977 . S
C219 C216 1.453 . S
C220 H192 0.979 . S
C220 H193 0.980 . S
C220 H194 0.983 . S
C220 C216 1.684 . S
H221 C239 0.948 . S
H222 C180 0.948 . S
H223 C198 0.979 . S
H224 C198 0.980 . S
H225 C198 0.983 . S
H226 C197 0.982 . S
H227 C197 0.979 . S
H228 C197 0.977 . S
H229 C199 0.948 . S
H230 C201 0.947 . S
H231 C202 0.948 . S
H232 C208 0.982 . S
H233 C208 0.979 . S
H234 C208 0.977 . S
H235 C209 0.979 . S
H236 C209 0.980 . S
H237 C209 0.983 . S
H238 C182 0.947 . S
C239 C182 1.392 . S
C239 C183 1.419 . S
C239 H221 0.948 . S
C240 C241 1.391 . S
C240 C244 1.391 . S
C240 H282 0.948 . S
C241 C240 1.391 . S
C241 C242 1.391 . S
C242 C241 1.391 . S
C242 H298 0.947 . S
C242 C299 1.392 . S
C243 C244 1.391 . S
C243 C247 1.397 . S
C243 C299 1.419 . S
C244 C240 1.391 . S
C244 C243 1.391 . S
C244 C245 1.399 . S
C245 C244 1.399 . S
C245 C248 1.396 . S
C245 C257 1.453 . S
C245 C258 1.684 . S
H246 C270 0.948 . S
C247 C243 1.397 . S
C247 C248 1.394 . S
C247 C266 1.723 . S
C248 C245 1.396 . S
C248 C247 1.394 . S
C248 C278 1.723 . S
H249 C272 0.947 . S
H250 C273 0.948 . S
H251 C279 0.982 . S
H252 C280 0.979 1_455 S
H253 C280 0.980 . S
H254 C280 0.983 . S
H255 C279 0.979 . S
H256 C279 0.977 . S
C257 C245 1.453 . S
C257 H286 0.982 . S
C257 H287 0.979 . S
C257 H288 0.977 . S
C258 C245 1.684 . S
C258 H283 0.979 . S
C258 H284 0.980 . S
C258 H285 0.983 . S
C259 C260 1.391 1_556 S
C259 C264 1.391 . S
C259 H289 0.948 . S
C260 C259 1.391 1_554 S
C260 C261 1.391 1_554 S
C261 C260 1.391 1_556 S
C261 C262 1.392 . S
C261 H290 0.952 1_455 S
C262 C261 1.392 . S
C262 C263 1.419 . S
C262 H291 0.948 1_455 S
C263 C262 1.419 . S
C263 C264 1.391 . S
C263 C267 1.397 . S
C264 C259 1.391 . S
C264 C263 1.391 . S
C264 C265 1.399 . S
C265 C264 1.399 . S
C265 C266 1.396 . S
C265 C268 1.453 . S
C265 C269 1.684 . S
C266 C247 1.723 . S
C266 C265 1.396 . S
C266 C267 1.394 . S
C267 C263 1.397 . S
C267 C266 1.394 . S
C267 C277 1.723 . S
C268 C265 1.453 . S
C268 H292 0.982 . S
C268 H293 0.979 . S
C268 H294 0.977 . S
C269 C265 1.684 . S
C269 H295 0.979 . S
C269 H296 0.980 . S
C269 H297 0.983 . S
C270 H246 0.948 . S
C270 C271 1.391 . S
C270 C275 1.391 . S
C271 C270 1.391 . S
C271 C272 1.391 . S
C272 H249 0.947 . S
C272 C271 1.391 . S
C272 C273 1.392 1_655 S
C273 H250 0.948 . S
C273 C272 1.392 1_455 S
C273 C274 1.419 . S
C274 C273 1.419 . S
C274 C275 1.391 1_455 S
C274 C278 1.397 . S
C275 C270 1.391 . S
C275 C274 1.391 1_655 S
C275 C276 1.399 . S
C276 C275 1.399 . S
C276 C277 1.396 1_655 S
C276 C279 1.453 . S
C276 C280 1.684 . S
C277 C267 1.723 . S
C277 C276 1.396 1_455 S
C277 C278 1.394 . S
C278 C248 1.723 . S
C278 C274 1.397 . S
C278 C277 1.394 . S
C279 H251 0.982 . S
C279 H255 0.979 . S
C279 H256 0.977 . S
C279 C276 1.453 . S
C280 H252 0.979 1_655 S
C280 H253 0.980 . S
C280 H254 0.983 . S
C280 C276 1.684 . S
H281 C299 0.948 . S
H282 C240 0.948 . S
H283 C258 0.979 . S
H284 C258 0.980 . S
H285 C258 0.983 . S
H286 C257 0.982 . S
H287 C257 0.979 . S
H288 C257 0.977 . S
H289 C259 0.948 . S
H290 C261 0.952 1_655 S
H291 C262 0.948 1_655 S
H292 C268 0.982 . S
H293 C268 0.979 . S
H294 C268 0.977 . S
H295 C269 0.979 . S
H296 C269 0.980 . S
H297 C269 0.983 . S
H298 C242 0.947 . S
C299 C242 1.392 . S
C299 C243 1.419 . S
C299 H281 0.948 . S
C300 C301 1.391 . S
C300 C304 1.391 . S
C300 H342 0.948 . S
C301 C300 1.391 . S
C301 C302 1.391 . S
C302 C301 1.391 . S
C302 H358 0.947 . S
C302 C359 1.392 . S
C303 C304 1.391 . S
C303 C307 1.397 . S
C303 C359 1.419 . S
C304 C300 1.391 . S
C304 C303 1.391 . S
C304 C305 1.399 . S
C305 C304 1.399 . S
C305 C308 1.396 . S
C305 C317 1.453 . S
C305 C318 1.684 . S
H306 C330 0.948 . S
C307 C303 1.397 . S
C307 C308 1.394 . S
C307 C326 1.723 . S
C308 C305 1.396 . S
C308 C307 1.394 . S
C308 C338 1.723 1_655 S
H309 C332 0.947 . S
H310 C333 0.948 . S
H311 C339 0.982 . S
H312 C340 0.979 . S
H313 C340 0.980 . S
H314 C340 0.983 . S
H315 C339 0.979 . S
H316 C339 0.977 . S
C317 C305 1.453 . S
C317 H346 0.982 1_655 S
C317 H347 0.979 . S
C317 H348 0.977 1_655 S
C318 C305 1.684 . S
C318 H343 0.979 . S
C318 H344 0.980 . S
C318 H345 0.983 . S
C319 C320 1.391 1_655 S
C319 C324 1.391 . S
C319 H349 0.948 . S
C320 C319 1.391 1_455 S
C320 C321 1.391 . S
C321 C320 1.391 . S
C321 C322 1.392 . S
C321 H350 0.947 . S
C322 C321 1.392 . S
C322 C323 1.419 . S
C322 H351 0.948 . S
C323 C322 1.419 . S
C323 C324 1.391 1_455 S
C323 C327 1.397 . S
C324 C319 1.391 . S
C324 C323 1.391 1_655 S
C324 C325 1.399 . S
C325 C324 1.399 . S
C325 C326 1.396 . S
C325 C328 1.453 . S
C325 C329 1.684 . S
C326 C307 1.723 . S
C326 C325 1.396 . S
C326 C327 1.394 1_655 S
C327 C323 1.397 . S
C327 C326 1.394 1_455 S
C327 C337 1.723 . S
C328 C325 1.453 . S
C328 H352 0.982 . S
C328 H353 0.979 . S
C328 H354 0.977 . S
C329 C325 1.684 . S
C329 H355 0.979 . S
C329 H356 0.980 . S
C329 H357 0.983 . S
C330 H306 0.948 . S
C330 C331 1.391 . S
C330 C335 1.391 . S
C331 C330 1.391 . S
C331 C332 1.391 . S
C332 H309 0.947 . S
C332 C331 1.391 . S
C332 C333 1.392 . S
C333 H310 0.948 . S
C333 C332 1.392 . S
C333 C334 1.419 . S
C334 C333 1.419 . S
C334 C335 1.391 . S
C334 C338 1.397 . S
C335 C330 1.391 . S
C335 C334 1.391 . S
C335 C336 1.399 . S
C336 C335 1.399 . S
C336 C337 1.396 . S
C336 C339 1.453 . S
C336 C340 1.684 . S
C337 C327 1.723 . S
C337 C336 1.396 . S
C337 C338 1.394 . S
C338 C308 1.723 1_455 S
C338 C334 1.397 . S
C338 C337 1.394 . S
C339 H311 0.982 . S
C339 H315 0.979 . S
C339 H316 0.977 . S
C339 C336 1.453 . S
C340 H312 0.979 . S
C340 H313 0.980 . S
C340 H314 0.983 . S
C340 C336 1.684 . S
H341 C359 0.948 . S
H342 C300 0.948 . S
H343 C318 0.979 . S
H344 C318 0.980 . S
H345 C318 0.983 . S
H346 C317 0.982 1_455 S
H347 C317 0.979 . S
H348 C317 0.977 1_455 S
H349 C319 0.948 . S
H350 C321 0.947 . S
H351 C322 0.948 . S
H352 C328 0.982 . S
H353 C328 0.979 . S
H354 C328 0.977 . S
H355 C329 0.979 . S
H356 C329 0.980 . S
H357 C329 0.983 . S
H358 C302 0.947 . S
C359 C302 1.392 . S
C359 C303 1.419 . S
C359 H341 0.948 . S
C360 C361 1.391 . S
C360 C364 1.391 . S
C360 H402 0.948 . S
C361 C360 1.391 . S
C361 C362 1.391 . S
C362 C361 1.391 . S
C362 H418 0.947 . S
C362 C419 1.392 . S
C363 C364 1.391 . S
C363 C367 1.397 . S
C363 C419 1.419 . S
C364 C360 1.391 . S
C364 C363 1.391 . S
C364 C365 1.399 . S
C365 C364 1.399 . S
C365 C368 1.396 . S
C365 C377 1.453 1_565 S
C365 C378 1.684 . S
H366 C390 0.948 . S
C367 C363 1.397 . S
C367 C368 1.394 . S
C367 C386 1.723 . S
C368 C365 1.396 . S
C368 C367 1.394 . S
C368 C398 1.723 1_565 S
H369 C392 0.947 . S
H370 C393 0.948 . S
H371 C399 0.982 . S
H372 C400 0.979 . S
H373 C400 0.980 . S
H374 C400 0.983 . S
H375 C399 0.979 . S
H376 C399 0.977 . S
C377 C365 1.453 1_545 S
C377 H406 0.982 . S
C377 H407 0.971 1_545 S
C377 H408 0.977 . S
C378 C365 1.684 . S
C378 H403 0.979 . S
C378 H404 0.980 . S
C378 H405 0.983 . S
C379 C380 1.391 . S
C379 C384 1.391 . S
C379 H409 0.948 . S
C380 C379 1.391 . S
C380 C381 1.391 1_565 S
C381 C380 1.391 1_545 S
C381 C382 1.392 . S
C381 H410 0.947 . S
C382 C381 1.392 . S
C382 C383 1.419 . S
C382 H411 0.948 . S
C383 C382 1.419 . S
C383 C384 1.391 1_545 S
C383 C387 1.397 . S
C384 C379 1.391 . S
C384 C383 1.391 1_565 S
C384 C385 1.399 . S
C385 C384 1.399 . S
C385 C386 1.396 . S
C385 C388 1.453 . S
C385 C389 1.684 . S
C386 C367 1.723 . S
C386 C385 1.396 . S
C386 C387 1.394 1_565 S
C387 C383 1.397 . S
C387 C386 1.394 1_545 S
C387 C397 1.723 . S
C388 C385 1.453 . S
C388 H412 0.982 . S
C388 H413 0.979 . S
C388 H414 0.977 . S
C389 C385 1.684 . S
C389 H415 0.979 . S
C389 H416 0.980 . S
C389 H417 0.983 . S
C390 H366 0.948 . S
C390 C391 1.391 . S
C390 C395 1.391 . S
C391 C390 1.391 . S
C391 C392 1.391 . S
C392 H369 0.947 . S
C392 C391 1.391 . S
C392 C393 1.392 . S
C393 H370 0.948 . S
C393 C392 1.392 . S
C393 C394 1.419 . S
C394 C393 1.419 . S
C394 C395 1.391 . S
C394 C398 1.397 . S
C395 C390 1.391 . S
C395 C394 1.391 . S
C395 C396 1.399 . S
C396 C395 1.399 . S
C396 C397 1.396 . S
C396 C399 1.453 . S
C396 C400 1.684 . S
C397 C387 1.723 . S
C397 C396 1.396 . S
C397 C398 1.394 . S
C398 C368 1.723 1_545 S
C398 C394 1.397 . S
C398 C397 1.394 . S
C399 H371 0.982 . S
C399 H375 0.979 . S
C399 H376 0.977 . S
C399 C396 1.453 . S
C400 H372 0.979 . S
C400 H373 0.980 . S
C400 H374 0.983 . S
C400 C396 1.684 . S
H401 C419 0.948 . S
H402 C360 0.948 . S
H403 C378 0.979 . S
H404 C378 0.980 . S
H405 C378 0.983 . S
H406 C377 0.982 . S
H407 C377 0.971 1_565 S
H408 C377 0.977 . S
H409 C379 0.948 . S
H410 C381 0.947 . S
H411 C382 0.948 . S
H412 C388 0.982 . S
H413 C388 0.979 . S
H414 C388 0.977 . S
H415 C389 0.979 . S
H416 C389 0.980 . S
H417 C389 0.983 . S
H418 C362 0.947 . S
C419 C362 1.392 . S
C419 C363 1.419 . S
C419 H401 0.948 . S
C420 C421 1.391 . S
C420 C424 1.391 . S
C420 H462 0.948 . S
C421 C420 1.391 . S
C421 C422 1.391 . S
C422 C421 1.391 . S
C422 H478 0.947 . S
C422 C479 1.392 . S
C423 C424 1.391 . S
C423 C427 1.397 . S
C423 C479 1.419 . S
C424 C420 1.391 . S
C424 C423 1.391 . S
C424 C425 1.399 . S
C425 C424 1.399 . S
C425 C428 1.396 . S
C425 C437 1.453 . S
C425 C438 1.684 . S
H426 C450 0.948 . S
C427 C423 1.397 . S
C427 C428 1.394 . S
C427 C446 1.723 . S
C428 C425 1.396 . S
C428 C427 1.394 . S
C428 C458 1.723 . S
H429 C452 0.947 . S
H430 C453 0.948 . S
H431 C459 0.982 . S
H432 C460 0.979 . S
H433 C460 0.980 . S
H434 C460 0.983 . S
H435 C459 0.979 . S
H436 C459 0.977 . S
C437 C425 1.453 . S
C437 H466 0.982 . S
C437 H467 0.979 . S
C437 H468 0.977 . S
C438 C425 1.684 . S
C438 H463 0.979 . S
C438 H464 0.980 . S
C438 H465 0.983 . S
C439 C440 1.391 . S
C439 C444 1.391 1_556 S
C439 H469 0.948 . S
C440 C439 1.391 . S
C440 C441 1.391 . S
C441 C440 1.391 . S
C441 C442 1.392 1_556 S
C441 H470 0.947 . S
C442 C441 1.392 1_554 S
C442 C443 1.419 . S
C442 H471 0.948 . S
C443 C442 1.419 . S
C443 C444 1.391 . S
C443 C447 1.397 . S
C444 C439 1.391 1_554 S
C444 C443 1.391 . S
C444 C445 1.399 . S
C445 C444 1.399 . S
C445 C446 1.396 . S
C445 C448 1.453 . S
C445 C449 1.684 . S
C446 C427 1.723 . S
C446 C445 1.396 . S
C446 C447 1.394 . S
C447 C443 1.397 . S
C447 C446 1.394 . S
C447 C457 1.723 . S
C448 C445 1.453 . S
C448 H472 0.982 . S
C448 H473 0.979 . S
C448 H474 0.977 . S
C449 C445 1.684 . S
C449 H475 0.979 . S
C449 H476 0.980 . S
C449 H477 0.983 . S
C450 H426 0.948 . S
C450 C451 1.391 . S
C450 C455 1.391 . S
C451 C450 1.391 . S
C451 C452 1.391 . S
C452 H429 0.947 . S
C452 C451 1.391 . S
C452 C453 1.392 . S
C453 H430 0.948 . S
C453 C452 1.392 . S
C453 C454 1.419 . S
C454 C453 1.419 . S
C454 C455 1.391 . S
C454 C458 1.397 . S
C455 C450 1.391 . S
C455 C454 1.391 . S
C455 C456 1.399 . S
C456 C455 1.399 . S
C456 C457 1.396 . S
C456 C459 1.453 . S
C456 C460 1.684 . S
C457 C447 1.723 . S
C457 C456 1.396 . S
C457 C458 1.394 . S
C458 C428 1.723 . S
C458 C454 1.397 . S
C458 C457 1.394 . S
C459 H431 0.982 . S
C459 H435 0.979 . S
C459 H436 0.977 . S
C459 C456 1.453 . S
C460 H432 0.979 . S
C460 H433 0.980 . S
C460 H434 0.983 . S
C460 C456 1.684 . S
H461 C479 0.948 . S
H462 C420 0.948 . S
H463 C438 0.979 . S
H464 C438 0.980 . S
H465 C438 0.983 . S
H466 C437 0.982 . S
H467 C437 0.979 . S
H468 C437 0.977 . S
H469 C439 0.948 . S
H470 C441 0.947 . S
H471 C442 0.948 . S
H472 C448 0.982 . S
H473 C448 0.979 . S
H474 C448 0.977 . S
H475 C449 0.979 . S
H476 C449 0.980 . S
H477 C449 0.983 . S
H478 C422 0.947 . S
C479 C422 1.392 . S
C479 C423 1.419 . S
C479 H461 0.948 . S
C480 C481 1.387 . S
C480 H484 0.950 . S
C480 C489 1.390 . S
C481 C480 1.387 . S
C481 C483 1.387 . S
H482 C489 0.950 . S
C483 C481 1.387 . S
C483 C485 1.390 . S
C483 H487 0.950 . S
H484 C480 0.950 . S
C485 C483 1.390 . S
C485 C486 1.387 . S
C485 H488 0.950 . S
C486 C485 1.387 . S
C486 C489 1.387 . S
H487 C483 0.950 . S
H488 C485 0.950 . S
C489 C480 1.390 . S
C489 H482 0.950 . S
C489 C486 1.387 . S
C490 C491 1.387 . S
C490 H494 0.950 . S
C490 C499 1.390 . S
C491 C490 1.387 . S
C491 C493 1.387 . S
H492 C499 0.950 . S
C493 C491 1.387 . S
C493 C495 1.390 . S
C493 H497 0.950 . S
H494 C490 0.950 . S
C495 C493 1.390 . S
C495 C496 1.387 . S
C495 H498 0.950 . S
C496 C495 1.387 . S
C496 C499 1.387 . S
H497 C493 0.950 . S
H498 C495 0.950 . S
C499 C490 1.390 . S
C499 H492 0.950 . S
C499 C496 1.387 . S
C500 C501 1.387 . S
C500 H504 0.950 . S
C500 C509 1.390 . S
C501 C500 1.387 . S
C501 C503 1.387 . S
H502 C509 0.950 . S
C503 C501 1.387 . S
C503 C505 1.390 . S
C503 H507 0.950 . S
H504 C500 0.950 . S
C505 C503 1.390 . S
C505 C506 1.387 . S
C505 H508 0.950 . S
C506 C505 1.387 . S
C506 C509 1.387 . S
H507 C503 0.950 . S
H508 C505 0.950 . S
C509 C500 1.390 . S
C509 H502 0.950 . S
C509 C506 1.387 . S
C510 C511 1.387 . S
C510 H514 0.950 . S
C510 C519 1.390 . S
C511 C510 1.387 . S
C511 C513 1.387 . S
H512 C519 0.950 . S
C513 C511 1.387 . S
C513 C515 1.390 . S
C513 H517 0.950 . S
H514 C510 0.950 . S
C515 C513 1.390 . S
C515 C516 1.387 . S
C515 H518 0.950 . S
C516 C515 1.387 . S
C516 C519 1.387 . S
H517 C513 0.950 . S
H518 C515 0.950 . S
C519 C510 1.390 . S
C519 H512 0.950 . S
C519 C516 1.387 . S
C520 C521 1.387 . S
C520 H524 0.950 . S
C520 C529 1.390 . S
C521 C520 1.387 . S
C521 C523 1.387 . S
H522 C529 0.950 . S
C523 C521 1.387 . S
C523 C525 1.390 . S
C523 H527 0.950 . S
H524 C520 0.950 . S
C525 C523 1.390 . S
C525 C526 1.387 . S
C525 H528 0.950 . S
C526 C525 1.387 . S
C526 C529 1.387 . S
H527 C523 0.950 . S
H528 C525 0.950 . S
C529 C520 1.390 . S
C529 H522 0.950 . S
C529 C526 1.387 . S
C530 C531 1.387 . S
C530 H534 0.950 . S
C530 C539 1.390 . S
C531 C530 1.387 . S
C531 C533 1.387 . S
H532 C539 0.950 . S
C533 C531 1.387 . S
C533 C535 1.390 . S
C533 H537 0.950 . S
H534 C530 0.950 . S
C535 C533 1.390 . S
C535 C536 1.387 . S
C535 H538 0.950 . S
C536 C535 1.387 . S
C536 C539 1.387 . S
H537 C533 0.950 . S
H538 C535 0.950 . S
C539 C530 1.390 . S
C539 H532 0.950 . S
C539 C536 1.387 . S
C540 C541 1.387 . S
C540 H544 0.950 . S
C540 C549 1.390 . S
C541 C540 1.387 . S
C541 C543 1.387 . S
H542 C549 0.950 . S
C543 C541 1.387 . S
C543 C545 1.390 . S
C543 H547 0.950 . S
H544 C540 0.950 . S
C545 C543 1.390 . S
C545 C546 1.387 . S
C545 H548 0.950 . S
C546 C545 1.387 . S
C546 C549 1.387 . S
H547 C543 0.950 . S
H548 C545 0.950 . S
C549 C540 1.390 . S
C549 H542 0.950 . S
C549 C546 1.387 . S
C550 C551 1.387 . S
C550 H554 0.950 . S
C550 C559 1.390 . S
C551 C550 1.387 . S
C551 C553 1.387 . S
H552 C559 0.950 . S
C553 C551 1.387 . S
C553 C555 1.390 . S
C553 H557 0.950 . S
H554 C550 0.950 . S
C555 C553 1.390 . S
C555 C556 1.387 . S
C555 H558 0.950 . S
C556 C555 1.387 . S
C556 C559 1.387 . S
H557 C553 0.950 . S
H558 C555 0.950 . S
C559 C550 1.390 . S
C559 H552 0.950 . S
C559 C556 1.387 . S
C560 C561 1.387 . S
C560 H564 0.950 . S
C560 C569 1.390 . S
C561 C560 1.387 . S
C561 C563 1.387 . S
H562 C569 0.950 . S
C563 C561 1.387 . S
C563 C565 1.390 . S
C563 H567 0.950 . S
H564 C560 0.950 . S
C565 C563 1.390 . S
C565 C566 1.387 . S
C565 H568 0.950 . S
C566 C565 1.387 . S
C566 C569 1.387 . S
H567 C563 0.950 . S
H568 C565 0.950 . S
C569 C560 1.390 . S
C569 H562 0.950 . S
C569 C566 1.387 . S
C570 C571 1.387 . S
C570 H574 0.950 . S
C570 C579 1.390 . S
C571 C570 1.387 . S
C571 C573 1.387 . S
H572 C579 0.950 . S
C573 C571 1.387 . S
C573 C575 1.390 . S
C573 H577 0.950 . S
H574 C570 0.950 . S
C575 C573 1.390 . S
C575 C576 1.387 . S
C575 H578 0.950 . S
C576 C575 1.387 . S
C576 C579 1.387 . S
H577 C573 0.950 . S
H578 C575 0.950 . S
C579 C570 1.390 . S
C579 H572 0.950 . S
C579 C576 1.387 . S
C580 C581 1.387 . S
C580 H584 0.950 . S
C580 C589 1.390 . S
C581 C580 1.387 . S
C581 C583 1.387 . S
H582 C589 0.950 . S
C583 C581 1.387 . S
C583 C585 1.390 . S
C583 H587 0.950 . S
H584 C580 0.950 . S
C585 C583 1.390 . S
C585 C586 1.387 . S
C585 H588 0.950 . S
C586 C585 1.387 . S
C586 C589 1.387 . S
H587 C583 0.950 . S
H588 C585 0.950 . S
C589 C580 1.390 . S
C589 H582 0.950 . S
C589 C586 1.387 . S
C590 C591 1.387 . S
C590 H594 0.950 . S
C590 C599 1.390 . S
C591 C590 1.387 . S
C591 C593 1.387 . S
H592 C599 0.950 . S
C593 C591 1.387 . S
C593 C595 1.390 . S
C593 H597 0.950 . S
H594 C590 0.950 . S
C595 C593 1.390 . S
C595 C596 1.387 . S
C595 H598 0.950 . S
C596 C595 1.387 . S
C596 C599 1.387 . S
H597 C593 0.950 . S
H598 C595 0.950 . S
C599 C590 1.390 . S
C599 H592 0.950 . S
C599 C596 1.387 . S
C600 C601 1.387 . S
C600 H604 0.950 . S
C600 C609 1.390 . S
C601 C600 1.387 . S
C601 C603 1.387 . S
H602 C609 0.950 . S
C603 C601 1.387 . S
C603 C605 1.390 . S
C603 H607 0.950 . S
H604 C600 0.950 . S
C605 C603 1.390 . S
C605 C606 1.387 . S
C605 H608 0.950 . S
C606 C605 1.387 . S
C606 C609 1.387 . S
H607 C603 0.950 . S
H608 C605 0.950 . S
C609 C600 1.390 . S
C609 H602 0.950 . S
C609 C606 1.387 . S
C610 C611 1.387 . S
C610 H614 0.950 . S
C610 C619 1.390 . S
C611 C610 1.387 . S
C611 C613 1.373 1_545 S
H612 C619 0.950 . S
C613 C611 1.373 1_565 S
C613 C615 1.388 1_565 S
C613 H617 0.966 . S
H614 C610 0.950 . S
C615 C613 1.388 1_545 S
C615 C616 1.387 . S
C615 H618 0.950 1_545 S
C616 C615 1.387 . S
C616 C619 1.387 . S
H617 C613 0.966 . S
H618 C615 0.950 1_565 S
C619 C610 1.390 . S
C619 H612 0.950 . S
C619 C616 1.387 . S
C620 C621 1.387 . S
C620 H624 0.950 . S
C620 C629 1.390 . S
C621 C620 1.387 . S
C621 C623 1.387 . S
H622 C629 0.950 . S
C623 C621 1.387 . S
C623 C625 1.390 . S
C623 H627 0.950 . S
H624 C620 0.950 . S
C625 C623 1.390 . S
C625 C626 1.387 . S
C625 H628 0.950 . S
C626 C625 1.387 . S
C626 C629 1.387 . S
H627 C623 0.950 . S
H628 C625 0.950 . S
C629 C620 1.390 . S
C629 H622 0.950 . S
C629 C626 1.387 . S
C630 C631 1.387 1_565 S
C630 H634 0.950 . S
C630 C639 1.390 . S
C631 C630 1.387 1_545 S
C631 C633 1.387 . S
H632 C639 0.950 . S
C633 C631 1.387 . S
C633 C635 1.390 1_545 S
C633 H637 0.950 . S
H634 C630 0.950 . S
C635 C633 1.390 1_565 S
C635 C636 1.387 . S
C635 H638 0.950 . S
C636 C635 1.387 . S
C636 C639 1.387 . S
H637 C633 0.950 . S
H638 C635 0.950 . S
C639 C630 1.390 . S
C639 H632 0.950 . S
C639 C636 1.387 . S
C640 C641 1.387 . S
C640 H644 0.950 . S
C640 C649 1.390 . S
C641 C640 1.387 . S
C641 C643 1.387 . S
H642 C649 0.950 . S
C643 C641 1.387 . S
C643 C645 1.390 . S
C643 H647 0.950 . S
H644 C640 0.950 . S
C645 C643 1.390 . S
C645 C646 1.387 . S
C645 H648 0.950 . S
C646 C645 1.387 . S
C646 C649 1.387 . S
H647 C643 0.950 . S
H648 C645 0.950 . S
C649 C640 1.390 . S
C649 H642 0.950 . S
C649 C646 1.387 . S
C650 C651 1.387 . S
C650 H654 0.950 . S
C650 C659 1.390 . S
C651 C650 1.387 . S
C651 C653 1.387 1_455 S
H652 C659 0.950 . S
C653 C651 1.387 1_655 S
C653 C655 1.390 . S
C653 H657 0.950 . S
H654 C650 0.950 . S
C655 C653 1.390 . S
C655 C656 1.387 1_655 S
C655 H658 0.950 . S
C656 C655 1.387 1_455 S
C656 C659 1.387 . S
H657 C653 0.950 . S
H658 C655 0.950 . S
C659 C650 1.390 . S
C659 H652 0.950 . S
C659 C656 1.387 . S
C481 C7 0.987 . S
C486 C451 1.099 . S
C491 C51 2.014 . S
C496 C301 1.832 . S
C501 C87 1.370 . S
C506 C361 1.423 . S
C511 C16 0.662 . S
C516 C421 0.607 . S
C526 C331 2.155 . S
C521 C42 2.183 . S
C536 C391 1.418 . S
C531 C96 1.399 . S
C541 C47 1.279 . S
C546 C181 1.278 . S
C551 C91 3.192 . S
C556 C271 3.176 . S
C561 C2 2.219 . S
C566 C151 2.222 . S
C576 C211 1.416 . S
C571 C56 1.389 . S
C586 C241 2.913 . S
C581 C82 3.101 . S
C591 C11 2.008 . S
C596 C121 1.832 . S
C606 C260 1.769 . S
C601 C19 1.725 . S
C611 C50 1.336 . S
C616 C140 1.342 . S
C621 C99 1.462 . S
C626 C200 1.477 . S
C636 C380 1.465 . S
C631 C59 1.459 . S
C646 C440 1.131 . S
C641 C90 1.134 . S
C651 C10 1.328 . S
C656 C320 1.329 . S
