# Generated by pormake.
# Topology zzz, (3,6)-cn, num edge types: 1
# Building blocks:
#     Node 0, Type 0, BuildingBlock: BETDAH_clean_linker_0, # of connection points: 3
#     Node 1, Type 0, BuildingBlock: BETDAH_clean_linker_0, # of connection points: 3
#     Node 2, Type 0, BuildingBlock: BETDAH_clean_linker_0, # of connection points: 3
#     Node 3, Type 0, BuildingBlock: BETDAH_clean_linker_0, # of connection points: 3
#     Node 4, Type 0, BuildingBlock: BETDAH_clean_linker_0, # of connection points: 3
#     Node 5, Type 0, BuildingBlock: BETDAH_clean_linker_0, # of connection points: 3
#     Node 6, Type 0, BuildingBlock: BETDAH_clean_linker_0, # of connection points: 3
#     Node 7, Type 0, BuildingBlock: BETDAH_clean_linker_0, # of connection points: 3
#     Node 8, Type 1, BuildingBlock: KUMBOL_clean_sbu_0, # of connection points: 6
#     Node 9, Type 1, BuildingBlock: KUMBOL_clean_sbu_0, # of connection points: 6
#     Node 10, Type 1, BuildingBlock: KUMBOL_clean_sbu_0, # of connection points: 6
#     Node 11, Type 1, BuildingBlock: KUMBOL_clean_sbu_0, # of connection points: 6
#     Edge 12, Type (0, 1), BuildingBlock: TEMPAE_clean_linker_10, # of connection points: 2
#     Edge 13, Type (0, 1), BuildingBlock: TEMPAE_clean_linker_10, # of connection points: 2
#     Edge 14, Type (0, 1), BuildingBlock: TEMPAE_clean_linker_10, # of connection points: 2
#     Edge 15, Type (0, 1), BuildingBlock: TEMPAE_clean_linker_10, # of connection points: 2
#     Edge 16, Type (0, 1), BuildingBlock: TEMPAE_clean_linker_10, # of connection points: 2
#     Edge 17, Type (0, 1), BuildingBlock: TEMPAE_clean_linker_10, # of connection points: 2
#     Edge 18, Type (0, 1), BuildingBlock: TEMPAE_clean_linker_10, # of connection points: 2
#     Edge 19, Type (0, 1), BuildingBlock: TEMPAE_clean_linker_10, # of connection points: 2
#     Edge 20, Type (0, 1), BuildingBlock: TEMPAE_clean_linker_10, # of connection points: 2
#     Edge 21, Type (0, 1), BuildingBlock: TEMPAE_clean_linker_10, # of connection points: 2
#     Edge 22, Type (0, 1), BuildingBlock: TEMPAE_clean_linker_10, # of connection points: 2
#     Edge 23, Type (0, 1), BuildingBlock: TEMPAE_clean_linker_10, # of connection points: 2
#     Edge 24, Type (0, 1), BuildingBlock: TEMPAE_clean_linker_10, # of connection points: 2
#     Edge 25, Type (0, 1), BuildingBlock: TEMPAE_clean_linker_10, # of connection points: 2
#     Edge 26, Type (0, 1), BuildingBlock: TEMPAE_clean_linker_10, # of connection points: 2
#     Edge 27, Type (0, 1), BuildingBlock: TEMPAE_clean_linker_10, # of connection points: 2
#     Edge 28, Type (0, 1), BuildingBlock: TEMPAE_clean_linker_10, # of connection points: 2
#     Edge 29, Type (0, 1), BuildingBlock: TEMPAE_clean_linker_10, # of connection points: 2
#     Edge 30, Type (0, 1), BuildingBlock: TEMPAE_clean_linker_10, # of connection points: 2
#     Edge 31, Type (0, 1), BuildingBlock: TEMPAE_clean_linker_10, # of connection points: 2
#     Edge 32, Type (0, 1), BuildingBlock: TEMPAE_clean_linker_10, # of connection points: 2
#     Edge 33, Type (0, 1), BuildingBlock: TEMPAE_clean_linker_10, # of connection points: 2
#     Edge 34, Type (0, 1), BuildingBlock: TEMPAE_clean_linker_10, # of connection points: 2
#     Edge 35, Type (0, 1), BuildingBlock: TEMPAE_clean_linker_10, # of connection points: 2
# Relax obj value: 0.175
# Max RMSD: 0.163
# Mean RMSD: 0.117
data_MOF--net-zzz--node1-KUMBOL_clean_sbu_0--node2-BETDAH_clean_linker_0--edge1-TEMPAE_clean_linker_10
_symmetry_space_group_name_H-M    P1
_symmetry_Int_Tables_number       1
_symmetry_cell_setting            triclinic
loop_
_symmetry_equiv_pos_as_xyz
'x, y, z'
_cell_length_a     51.294386
_cell_length_b     51.182054
_cell_length_c     15.0482
_cell_angle_alpha  90.961472
_cell_angle_beta   90.246868
_cell_angle_gamma 89.889925
loop_
_atom_site_label
_atom_site_type_symbol
_atom_site_fract_x
_atom_site_fract_y
_atom_site_fract_z
_atom_type_partial_charge
H0 H 0.81412 0.56756 0.25311 0.0
H1 H 0.74127 0.55604 0.11786 0.0
H2 H 0.75629 0.51813 0.36786 0.0
C3 C 0.79468 0.55937 0.25214 0.0
C4 C 0.78779 0.54199 0.31859 0.0
C5 C 0.77845 0.56393 0.17897 0.0
C6 C 0.75343 0.55298 0.17581 0.0
C7 C 0.74463 0.53738 0.24594 0.0
C8 C 0.76221 0.5315 0.31673 0.0
N9 N 0.71895 0.52635 0.24477 0.0
C10 C 0.70003 0.52942 0.17757 0.0
H11 H 0.96435 0.83019 0.20128 0.0
H12 H 0.97112 0.74981 0.11761 0.0
H13 H 0.01748 0.77945 0.33642 0.0
C14 C 0.97259 0.81095 0.20981 0.0
C15 C 0.99142 0.80778 0.27696 0.0
C16 C 0.96592 0.79065 0.14928 0.0
C17 C 0.97657 0.76571 0.16214 0.0
C18 C 0.99533 0.76138 0.22848 0.0
C19 C 1.00255 0.7825 0.28656 0.0
N20 N 1.00808 0.73646 0.23442 0.0
C21 C 1.00586 0.71575 0.17163 0.0
H22 H 0.70778 0.96462 0.24121 0.0
H23 H 0.78364 0.974 0.12754 0.0
H24 H 0.76306 0.01564 0.36946 0.0
C25 C 0.72736 0.97242 0.24593 0.0
C26 C 0.73303 0.99031 0.31467 0.0
C27 C 0.74508 0.96691 0.17728 0.0
C28 C 0.77011 0.97796 0.18117 0.0
C29 C 0.77709 0.99512 0.25147 0.0
C30 C 0.75818 1.0017 0.31709 0.0
N31 N 0.80244 1.00678 0.2559 0.0
C32 C 0.82257 1.00307 0.19377 0.0
H33 H 0.56629 0.71998 0.23511 0.0
H34 H 0.55108 0.79451 0.12142 0.0
H35 H 0.52524 0.77858 0.38764 0.0
C36 C 0.55863 0.7396 0.2426 0.0
C37 C 0.54452 0.74636 0.31919 0.0
C38 C 0.55998 0.75629 0.17006 0.0
C39 C 0.55058 0.78192 0.17848 0.0
C40 C 0.53939 0.79066 0.25905 0.0
C41 C 0.53574 0.77252 0.32849 0.0
N42 N 0.53014 0.81689 0.27004 0.0
C43 C 0.53224 0.83673 0.20717 0.0
H44 H 0.22112 0.51957 0.05461 0.0
H45 H 0.29881 0.51735 0.16028 0.0
H46 H 0.28451 0.49789 0.8832 0.0
C47 C 0.24186 0.51654 0.04444 0.0
C48 C 0.25034 0.50877 0.96022 0.0
C49 C 0.25923 0.52006 0.11594 0.0
C50 C 0.28576 0.51496 0.10417 0.0
C51 C 0.29535 0.50693 0.02062 0.0
C52 C 0.27744 0.50401 0.94797 0.0
N53 N 0.32263 0.50162 0.0089 0.0
C54 C 0.34181 0.50374 0.07616 0.0
H55 H 0.05479 0.2169 0.15527 0.0
H56 H 0.05436 0.29898 0.21509 0.0
H57 H 0.02996 0.27097 0.95585 0.0
C58 C 0.05236 0.23679 0.13306 0.0
C59 C 0.04374 0.24092 0.04546 0.0
C60 C 0.05591 0.25752 0.19456 0.0
C61 C 0.05116 0.28309 0.16793 0.0
C62 C 0.04101 0.2883 0.08356 0.0
C63 C 0.03751 0.26709 0.02162 0.0
N64 N 0.03351 0.31452 0.06217 0.0
C65 C 0.03297 0.33557 0.1242 0.0
H66 H 0.32748 0.02623 0.10149 0.0
H67 H 0.24895 0.03373 0.19649 0.0
H68 H 0.26648 0.04748 0.92027 0.0
C69 C 0.30717 0.03102 0.08932 0.0
C70 C 0.2995 0.03739 1.00337 0.0
C71 C 0.28916 0.02978 0.15889 0.0
C72 C 0.26273 0.03488 0.14238 0.0
C73 C 0.25419 0.04147 0.0566 0.0
C74 C 0.2728 0.0427 0.98681 0.0
N75 N 0.22721 0.04665 0.03903 0.0
C76 C 0.20706 0.04543 0.10198 0.0
H77 H 0.50292 0.32512 0.07426 0.0
H78 H 0.50078 0.24597 0.16044 0.0
H79 H 0.49735 0.26302 0.87936 0.0
C80 C 0.50174 0.30445 0.05745 0.0
C81 C 0.49964 0.29676 0.96824 0.0
C82 C 0.50238 0.28635 0.12611 0.0
C83 C 0.50059 0.25968 0.10641 0.0
C84 C 0.49899 0.25089 0.01725 0.0
C85 C 0.49873 0.2696 0.94799 0.0
N86 N 0.49756 0.22357 0.99614 0.0
C87 C 0.49786 0.20369 0.0594 0.0
Gd88 Gd 0.99532 0.03111 0.59482 0.0
Gd89 Gd 0.04458 0.01321 0.75368 0.0
C90 C 0.0797 0.07545 0.94362 0.0
C91 C 0.12459 0.07717 0.89394 0.0
C92 C 0.09374 0.04735 0.82228 0.0
C93 C 0.07405 0.05657 0.87655 0.0
C94 C 0.11941 0.05704 0.83199 0.0
C95 C 0.10479 0.08623 0.95013 0.0
C96 C 0.06037 0.08205 0.00508 0.0
C97 C 0.03633 0.06969 0.99982 0.0
N98 N 0.05009 0.04534 0.86952 0.0
C99 C 0.0316 0.0512 0.93236 0.0
H100 H 0.01273 0.04245 0.93135 0.0
C101 C 0.10836 0.01393 0.72487 0.0
N102 N 0.08842 0.02707 0.76629 0.0
C103 C 0.13393 0.02319 0.73029 0.0
C104 C 0.13942 0.0452 0.78282 0.0
H105 H 0.10432 0.9963 0.6868 0.0
H106 H 0.10932 0.10093 1.00051 0.0
H107 H 0.02921 0.99999 0.42161 0.0
H108 H 0.06403 0.09617 0.05812 0.0
H109 H 0.0213 0.07441 0.0478 0.0
H110 H 0.1441 0.08499 0.90178 0.0
H111 H 0.93684 0.04261 0.68692 0.0
H112 H 0.97421 0.9574 0.26677 0.0
H113 H 0.0191 0.97271 0.29382 0.0
H114 H 0.89393 0.96847 0.42039 0.0
H115 H 0.14941 0.01312 0.69497 0.0
H116 H 0.15933 0.0521 0.78833 0.0
H117 H 0.92833 0.95447 0.31724 0.0
H118 H 0.89126 0.02824 0.66797 0.0
N119 N 0.99004 1.00144 0.47219 0.0
C120 C 0.97849 0.96931 0.32515 0.0
C121 C 1.00375 0.97818 0.33965 0.0
C122 C 0.95894 0.9761 0.3854 0.0
C123 C 0.96519 0.99261 0.45877 0.0
C124 C 1.00924 0.99424 0.41326 0.0
N125 N 0.95147 0.01778 0.58356 0.0
C126 C 0.94556 1.00068 0.5166 0.0
C127 C 0.9063 0.02029 0.62507 0.0
C128 C 0.90004 1.00192 0.55903 0.0
C129 C 0.93212 0.0284 0.63547 0.0
C130 C 0.91959 0.99226 0.50277 0.0
H131 H 0.87995 0.99582 0.55061 0.0
O132 O 0.96734 0.05476 0.52301 0.0
O133 O 0.02296 0.04709 0.69845 0.0
O134 O 1.00451 0.0132 0.82106 0.0
O135 O 0.97548 1.00844 0.70375 0.0
O136 O 0.98472 0.05887 0.70882 0.0
O137 O 1.00737 0.06734 0.53358 0.0
O138 O 0.07106 0.98731 0.82367 0.0
O139 O 0.01737 0.99728 0.64872 0.0
O140 O 0.03405 0.03268 0.52179 0.0
O141 O 0.06602 0.02767 0.63111 0.0
O142 O 0.05502 0.9836 0.64591 0.0
O143 O 0.02966 0.98155 0.83299 0.0
C144 C 1.00785 0.06256 0.74047 0.0
C145 C 0.91371 0.97516 0.43174 0.0
C146 C 0.93329 0.96723 0.37295 0.0
C147 C 0.98343 0.07415 0.5164 0.0
C148 C 0.97495 0.09943 0.55493 0.0
C149 C 0.95319 0.10144 0.61153 0.0
C150 C 0.98992 0.12166 0.53975 0.0
C151 C 0.98343 0.14559 0.58036 0.0
C152 C 0.9469 0.12528 0.65283 0.0
C153 C 0.96192 0.14741 0.63706 0.0
C154 C 0.98086 1.00786 0.78962 0.0
C155 C 0.03235 0.98097 0.60958 0.0
C156 C 0.05257 0.97117 0.84308 0.0
C157 C 0.05519 0.94409 0.80943 0.0
C158 C 0.07604 0.93636 0.75421 0.0
C159 C 0.03511 0.92636 0.82568 0.0
C160 C 0.03559 0.90135 0.78703 0.0
C161 C 0.07653 0.91131 0.7158 0.0
C162 C 0.05643 0.89374 0.73253 0.0
C163 C 0.05877 0.03234 0.54802 0.0
H164 H 0.94117 0.08466 0.62468 0.0
H165 H 1.00659 0.12042 0.4957 0.0
H166 H 0.93019 0.12664 0.69632 0.0
H167 H 0.95638 0.166 0.66689 0.0
H168 H 0.09171 0.94972 0.73938 0.0
H169 H 0.01906 0.93196 0.86875 0.0
H170 H 0.09257 0.90549 0.67334 0.0
H171 H 0.05745 0.8741 0.70479 0.0
Gd172 Gd 0.50801 0.99818 0.56961 0.0
Gd173 Gd 0.5224 0.05068 0.72329 0.0
C174 C 0.45585 0.08745 0.8842 0.0
C175 C 0.45055 0.12963 0.81482 0.0
C176 C 0.48336 0.09892 0.76061 0.0
C177 C 0.47547 0.08086 0.82213 0.0
C178 C 0.47149 0.12382 0.75804 0.0
C179 C 0.44287 0.11154 0.87828 0.0
C180 C 0.45103 0.07042 0.95389 0.0
C181 C 0.46628 0.04802 0.96231 0.0
N182 N 0.48885 0.05802 0.8275 0.0
C183 C 0.48516 0.04208 0.89831 0.0
H184 H 0.49668 0.02466 0.90622 0.0
C185 C 0.5163 0.11242 0.66229 0.0
N186 N 0.50439 0.09313 0.70967 0.0
C187 C 0.50487 0.13713 0.65577 0.0
C188 C 0.48204 0.1427 0.70247 0.0
H189 H 0.534 0.10819 0.62594 0.0
H190 H 0.4276 0.11681 0.92485 0.0
H191 H 0.48257 0.01612 0.37254 0.0
H192 H 0.43637 0.07493 1.0035 0.0
H193 H 0.46348 0.03528 0.0181 0.0
H194 H 0.44105 0.14855 0.81326 0.0
H195 H 0.55649 0.96703 0.67654 0.0
H196 H 0.53598 0.99375 0.16711 0.0
H197 H 0.49472 0.01479 0.21378 0.0
H198 H 0.60021 0.9438 0.32207 0.0
H199 H 0.51374 0.15187 0.615 0.0
H200 H 0.47342 0.16199 0.69838 0.0
H201 H 0.5747 0.96635 0.20778 0.0
H202 H 0.5941 0.93946 0.63932 0.0
N203 N 0.51771 0.99798 0.41605 0.0
C204 C 0.53087 0.99451 0.23691 0.0
C205 C 0.50759 1.00643 0.26294 0.0
C206 C 0.54665 0.98262 0.3007 0.0
C207 C 0.5395 0.98479 0.39103 0.0
C208 C 0.50087 1.00724 0.35283 0.0
N209 N 0.54742 0.97599 0.54222 0.0
C210 C 0.5544 0.97288 0.45575 0.0
C211 C 0.58315 0.94881 0.58703 0.0
C212 C 0.59016 0.94494 0.49843 0.0
C213 C 0.56166 0.9645 0.60786 0.0
C214 C 0.57626 0.95761 0.43159 0.0
H215 H 0.6063 0.93207 0.48246 0.0
O216 O 0.49964 0.95712 0.59208 0.0
O217 O 0.49187 0.02148 0.68476 0.0
O218 O 0.52898 0.01247 0.79771 0.0
O219 O 0.51116 0.98012 0.70533 0.0
O220 O 0.46875 0.01846 0.57221 0.0
O221 O 0.47684 0.97884 0.49752 0.0
O222 O 0.55327 0.07817 0.75394 0.0
O223 O 0.54068 0.0197 0.63555 0.0
O224 O 0.51266 0.03583 0.49295 0.0
O225 O 0.50219 0.06683 0.60035 0.0
O226 O 0.55506 0.05709 0.62549 0.0
O227 O 0.54061 0.05124 0.85392 0.0
C228 C 0.46944 0.02674 0.6536 0.0
C229 C 0.5834 0.95531 0.34181 0.0
C230 C 0.56886 0.96813 0.27668 0.0
C231 C 0.47866 0.9575 0.54294 0.0
C232 C 0.45409 0.94846 0.58314 0.0
C233 C 0.4537 0.93595 0.66561 0.0
C234 C 0.43037 0.95394 0.54058 0.0
C235 C 0.40654 0.94848 0.58139 0.0
C236 C 0.42995 0.93035 0.70647 0.0
C237 C 0.40641 0.93695 0.66527 0.0
C238 C 0.52127 0.98808 0.78202 0.0
C239 C 0.5576 0.03348 0.59631 0.0
C240 C 0.55778 0.06864 0.83186 0.0
C241 C 0.58526 0.06309 0.85102 0.0
C242 C 0.60349 0.08336 0.84333 0.0
C243 C 0.59372 0.03796 0.87428 0.0
C244 C 0.62018 0.0334 0.8904 0.0
C245 C 0.62988 0.07867 0.85849 0.0
C246 C 0.63822 0.05383 0.8823 0.0
C247 C 0.50575 0.05983 0.51627 0.0
H248 H 0.47168 0.93085 0.699 0.0
H249 H 0.43036 0.9635 0.47678 0.0
H250 H 0.42979 0.92114 0.77067 0.0
H251 H 0.38817 0.9329 0.6983 0.0
H252 H 0.59728 0.1028 0.8251 0.0
H253 H 0.57992 0.02213 0.88075 0.0
H254 H 0.64387 0.09434 0.85232 0.0
H255 H 0.65877 0.05052 0.89498 0.0
Gd256 Gd 0.48903 0.5258 0.71997 0.0
Gd257 Gd 0.54332 0.52104 0.56741 0.0
C258 C 0.63072 0.52699 0.62651 0.0
C259 C 0.6424 0.56716 0.55299 0.0
C260 C 0.59756 0.55171 0.54992 0.0
C261 C 0.60445 0.53064 0.60117 0.0
C262 C 0.61653 0.56997 0.52385 0.0
C263 C 0.64951 0.54562 0.60388 0.0
C264 C 0.63754 0.50423 0.67095 0.0
C265 C 0.6184 0.48597 0.69038 0.0
N266 N 0.58583 0.51291 0.62184 0.0
C267 C 0.5926 0.49053 0.66482 0.0
H268 H 0.57844 0.47584 0.67985 0.0
C269 C 0.56562 0.57224 0.46141 0.0
N270 N 0.57257 0.55356 0.52126 0.0
C271 C 0.58367 0.59086 0.43416 0.0
C272 C 0.60917 0.58996 0.46655 0.0
H273 H 0.54591 0.57319 0.4362 0.0
H274 H 0.6697 0.54324 0.62372 0.0
H275 H 0.45767 0.57251 0.6041 0.0
H276 H 0.65764 0.50025 0.68826 0.0
H277 H 0.62353 0.46816 0.72415 0.0
H278 H 0.6572 0.58107 0.53422 0.0
H279 H 0.48221 0.47256 0.84456 0.0
H280 H 0.37936 0.54791 0.56018 0.0
H281 H 0.41409 0.58077 0.54398 0.0
H282 H 0.37551 0.46454 0.6976 0.0
H283 H 0.5779 0.60589 0.3883 0.0
H284 H 0.62316 0.60435 0.44508 0.0
H285 H 0.36574 0.50364 0.61068 0.0
H286 H 0.44889 0.43904 0.87421 0.0
N287 N 0.44863 0.53454 0.65113 0.0
C288 C 0.39881 0.54373 0.58433 0.0
C289 C 0.41827 0.56247 0.57613 0.0
C290 C 0.40438 0.52022 0.62633 0.0
C291 C 0.42968 0.5163 0.66096 0.0
C292 C 0.44309 0.55764 0.61071 0.0
N293 N 0.45883 0.49242 0.7498 0.0
C294 C 0.43502 0.49448 0.71102 0.0
C295 C 0.4449 0.45424 0.8271 0.0
C296 C 0.42086 0.45517 0.78351 0.0
C297 C 0.4636 0.47333 0.8106 0.0
C298 C 0.41543 0.47576 0.72624 0.0
H299 H 0.40631 0.44046 0.79708 0.0
O300 O 0.48097 0.52562 0.86085 0.0
O301 O 0.53228 0.52902 0.70751 0.0
O302 O 0.53558 0.48205 0.63727 0.0
O303 O 0.49146 0.48418 0.66752 0.0
O304 O 0.51907 0.50988 0.81711 0.0
O305 O 0.47399 0.56078 0.78498 0.0
O306 O 0.54729 0.51871 0.42443 0.0
O307 O 0.49995 0.51787 0.58009 0.0
O308 O 0.49955 0.56619 0.66368 0.0
O309 O 0.54292 0.56249 0.62126 0.0
O310 O 0.51315 0.53939 0.47634 0.0
O311 O 0.5535 0.48412 0.50352 0.0
C312 C 0.5397 0.51787 0.77762 0.0
C313 C 0.39073 0.47881 0.68724 0.0
C314 C 0.38517 0.50108 0.63781 0.0
C315 C 0.47437 0.55017 0.86338 0.0
C316 C 0.48558 0.56548 0.93691 0.0
C317 C 0.47434 0.56335 0.02103 0.0
C318 C 0.5071 0.58197 0.92469 0.0
C319 C 0.51654 0.5976 0.99576 0.0
C320 C 0.48392 0.57814 0.09219 0.0
C321 C 0.50443 0.59544 0.07964 0.0
C322 C 0.51329 0.47068 0.65905 0.0
C323 C 0.49253 0.53029 0.51263 0.0
C324 C 0.54963 0.49341 0.42414 0.0
C325 C 0.53129 0.47937 0.36515 0.0
C326 C 0.52919 0.48667 0.27612 0.0
C327 C 0.51566 0.45907 0.39687 0.0
C328 C 0.49983 0.44419 0.33847 0.0
C329 C 0.51224 0.47341 0.21889 0.0
C330 C 0.49809 0.45209 0.24891 0.0
C331 C 0.52203 0.57684 0.63905 0.0
H332 H 0.45798 0.55039 0.03145 0.0
H333 H 0.51608 0.58273 0.8598 0.0
H334 H 0.47503 0.57669 0.15694 0.0
H335 H 0.51005 0.60768 0.13576 0.0
H336 H 0.54074 0.5026 0.2508 0.0
H337 H 0.5165 0.45457 0.46666 0.0
H338 H 0.5108 0.47904 0.15001 0.0
H339 H 0.48689 0.4413 0.19976 0.0
Gd340 Gd 1.01001 0.49867 0.74467 0.0
Gd341 Gd 0.02107 0.54657 0.57615 0.0
C342 C 0.0274 0.63317 0.65186 0.0
C343 C 0.99005 0.65163 0.57546 0.0
C344 C 0.99864 0.60486 0.56609 0.0
C345 C 0.02019 0.60797 0.62108 0.0
C346 C 0.98378 0.62679 0.54075 0.0
C347 C 0.01188 0.65482 0.63059 0.0
C348 C 0.05051 0.63603 0.70049 0.0
C349 C 0.06564 0.61414 0.71863 0.0
N350 N 0.03493 0.58668 0.64031 0.0
C351 C 0.05768 0.58956 0.68738 0.0
H352 H 0.06981 0.5731 0.70277 0.0
C353 C 0.97531 0.57769 0.46532 0.0
N354 N 0.99336 0.58075 0.53204 0.0
C355 C 0.95994 0.59875 0.43868 0.0
C356 C 0.96384 0.62333 0.47788 0.0
H357 H 0.97219 0.55866 0.43481 0.0
H358 H 0.017 0.67424 0.65452 0.0
H359 H 0.96531 0.46374 0.62075 0.0
H360 H 0.05719 0.65512 0.72242 0.0
H361 H 0.08359 0.61618 0.75619 0.0
H362 H 0.9787 0.66863 0.55746 0.0
H363 H 0.05442 0.49189 0.90819 0.0
H364 H 0.99094 0.385 0.60053 0.0
H365 H 0.95904 0.41942 0.56496 0.0
H366 H 0.06718 0.38279 0.78267 0.0
H367 H 0.94512 0.596 0.38796 0.0
H368 H 0.95203 0.63969 0.45672 0.0
H369 H 0.03233 0.37196 0.6757 0.0
H370 H 0.08564 0.45888 0.96157 0.0
N371 N 1.00168 0.45605 0.68563 0.0
C372 C 0.99434 0.40485 0.62356 0.0
C373 C 0.97614 0.42415 0.60444 0.0
C374 C 0.01601 0.41107 0.67607 0.0
C375 C 0.01893 0.43703 0.70801 0.0
C376 C 0.97991 0.44959 0.63696 0.0
N377 N 0.0389 0.46734 0.80506 0.0
C378 C 0.03831 0.44295 0.76896 0.0
C379 C 0.07259 0.45416 0.90692 0.0
C380 C 0.07326 0.42943 0.86669 0.0
C381 C 0.05485 0.47276 0.87652 0.0
C382 C 0.05558 0.42333 0.79841 0.0
H383 H 0.08682 0.41492 0.89097 0.0
O384 O 1.00111 0.48643 0.87887 0.0
O385 O 1.01025 0.54156 0.71777 0.0
O386 O 0.06138 0.53371 0.62774 0.0
O387 O 0.05379 0.50371 0.73932 0.0
O388 O 0.02802 0.52999 0.83341 0.0
O389 O 0.97147 0.50493 0.80035 0.0
O390 O 0.02118 0.54531 0.43223 0.0
O391 O 0.02288 0.50343 0.60402 0.0
O392 O 0.97265 0.506 0.66323 0.0
O393 O 0.97788 0.54777 0.60908 0.0
O394 O 1.00316 0.51465 0.49071 0.0
O395 O 0.05433 0.56133 0.50507 0.0
C396 C 0.02153 0.55005 0.78776 0.0
C397 C 0.05391 0.39801 0.76173 0.0
C398 C 0.03407 0.39185 0.70088 0.0
C399 C 0.97877 0.49836 0.87959 0.0
C400 C 0.97449 0.51818 0.9504 0.0
C401 C 0.99343 0.52323 0.01646 0.0
C402 C 0.95154 0.53312 0.94964 0.0
C403 C 0.94715 0.55252 0.01476 0.0
C404 C 0.98916 0.54259 0.08123 0.0
C405 C 0.96599 0.55692 0.0813 0.0
C406 C 0.06965 0.5178 0.69087 0.0
C407 C 0.01129 0.49481 0.53459 0.0
C408 C 0.04512 0.55352 0.42801 0.0
C409 C 0.06246 0.53787 0.37094 0.0
C410 C 0.05489 0.53203 0.28323 0.0
C411 C 0.08669 0.5292 0.40247 0.0
C412 C 0.10426 0.51642 0.34528 0.0
C413 C 0.07162 0.5182 0.22698 0.0
C414 C 0.09627 0.5108 0.257 0.0
C415 C 0.96288 0.52756 0.62761 0.0
H416 H 0.01152 0.51231 0.01817 0.0
H417 H 0.93672 0.52913 0.89963 0.0
H418 H 1.00371 0.54628 0.13218 0.0
H419 H 0.9626 0.57117 0.13393 0.0
H420 H 0.03615 0.53841 0.25809 0.0
H421 H 0.09213 0.53306 0.47098 0.0
H422 H 0.06581 0.51395 0.159 0.0
H423 H 0.10933 0.50167 0.20945 0.0
C424 C 0.18231 0.063 0.23221 0.0
C425 C 0.18498 0.0444 0.16339 0.0
C426 C 0.16101 0.06226 0.29153 0.0
C427 C 0.14182 0.0424 0.28226 0.0
C428 C 0.14439 0.02378 0.21172 0.0
C429 C 0.16585 0.02504 0.15328 0.0
C430 C 0.15922 0.08259 0.36505 0.0
C431 C 0.12465 1.0022 0.19881 0.0
C432 C 0.10395 0.02286 0.48982 0.0
C433 C 0.07976 0.03535 0.47929 0.0
C434 C 0.12408 0.02509 0.42695 0.0
C435 C 0.12017 0.04005 0.34963 0.0
C436 C 0.09561 0.05246 0.33731 0.0
C437 C 0.07574 0.04986 0.40184 0.0
C438 C 0.14957 1.0111 0.44319 0.0
C439 C 0.09037 0.06857 0.25605 0.0
H440 H 0.19697 0.07811 0.23991 0.0
H441 H 0.16776 1.01072 0.09975 0.0
H442 H 0.14002 0.09258 0.36246 0.0
H443 H 0.16066 0.07301 0.4305 0.0
H444 H 0.17486 0.0975 0.36089 0.0
H445 H 0.12879 0.98986 0.13909 0.0
H446 H 0.12456 0.98956 0.25799 0.0
H447 H 0.1048 1.0106 0.19216 0.0
H448 H 0.10705 1.01059 0.54628 0.0
H449 H 0.0571 0.05943 0.392 0.0
H450 H 0.16587 0.02533 0.44421 0.0
H451 H 0.15338 0.9969 0.38825 0.0
H452 H 0.1497 1.00047 0.50697 0.0
H453 H 0.10469 0.08474 0.25274 0.0
H454 H 0.0704 0.077 0.25587 0.0
H455 H 0.09286 0.05636 0.19504 0.0
C456 C 0.48047 0.1619 0.11672 0.0
C457 C 0.49828 0.18259 0.12371 0.0
C458 C 0.48073 0.14133 0.17819 0.0
C459 C 0.49934 0.14135 0.24842 0.0
C460 C 0.51746 0.16225 0.25499 0.0
C461 C 0.51666 0.18261 0.19279 0.0
C462 C 0.46103 0.1196 0.16805 0.0
C463 C 0.53783 0.16307 0.32767 0.0
C464 C 0.48738 0.10227 0.45982 0.0
C465 C 0.50286 0.07993 0.44575 0.0
C466 C 0.48572 0.12209 0.39589 0.0
C467 C 0.49986 0.11969 0.31525 0.0
C468 C 0.51508 0.09687 0.29992 0.0
C469 C 0.51633 0.07733 0.36496 0.0
C470 C 0.46898 0.14577 0.41519 0.0
C471 C 0.53064 0.09336 0.21565 0.0
H472 H 0.46629 0.16181 0.06304 0.0
H473 H 0.53049 0.19856 0.19809 0.0
H474 H 0.47117 0.1006 0.15877 0.0
H475 H 0.44922 0.11828 0.22942 0.0
H476 H 0.44771 0.12254 0.11065 0.0
H477 H 0.5507 0.18042 0.32324 0.0
H478 H 0.52827 0.16339 0.39367 0.0
H479 H 0.55007 0.14518 0.32395 0.0
H480 H 0.47649 0.10428 0.52108 0.0
H481 H 0.52848 0.06027 0.3534 0.0
H482 H 0.45443 0.14826 0.36121 0.0
H483 H 0.48127 0.16358 0.41728 0.0
H484 H 0.45854 0.14435 0.47947 0.0
H485 H 0.51772 0.09505 0.15674 0.0
H486 H 0.54074 0.07414 0.21218 0.0
H487 H 0.54546 0.10906 0.21152 0.0
C488 C 0.35737 0.51527 0.2293 0.0
C489 C 0.36267 0.50581 0.14335 0.0
C490 C 0.37734 0.51804 0.29388 0.0
C491 C 0.4035 0.51122 0.27286 0.0
C492 C 0.40881 0.50121 0.18607 0.0
C493 C 0.38841 0.49867 0.12262 0.0
C494 C 0.37043 0.52873 0.38447 0.0
C495 C 0.43617 0.49357 0.1597 0.0
C496 C 0.4602 0.54467 0.39774 0.0
C497 C 0.46824 0.52571 0.45852 0.0
C498 C 0.43893 0.54042 0.33941 0.0
C499 C 0.42545 0.51622 0.33909 0.0
C500 C 0.43344 0.49696 0.40081 0.0
C501 C 0.4546 0.50194 0.4597 0.0
C502 C 0.43101 0.56188 0.2772 0.0
C503 C 0.42013 0.47075 0.40305 0.0
H504 H 0.33759 0.52081 0.24612 0.0
H505 H 0.39268 0.49128 0.0563 0.0
H506 H 0.37634 0.51454 0.43569 0.0
H507 H 0.38128 0.54714 0.39733 0.0
H508 H 0.34924 0.53274 0.39147 0.0
H509 H 0.43703 0.48498 0.09146 0.0
H510 H 0.44903 0.51098 0.16285 0.0
H511 H 0.44414 0.47918 0.20707 0.0
H512 H 0.47071 0.56301 0.39579 0.0
H513 H 0.46096 0.48691 0.5049 0.0
H514 H 0.41023 0.56708 0.28782 0.0
H515 H 0.4329 0.55495 0.20727 0.0
H516 H 0.44297 0.57978 0.28676 0.0
H517 H 0.39871 0.47333 0.4085 0.0
H518 H 0.42704 0.45875 0.45936 0.0
H519 H 0.42398 0.45987 0.34006 0.0
C520 C 0.0194 0.35386 0.27178 0.0
C521 C 0.03167 0.35725 0.18973 0.0
C522 C 0.017 0.37471 0.33433 0.0
C523 C 0.02734 0.39978 0.31552 0.0
C524 C 0.04032 0.40303 0.23304 0.0
C525 C 0.04225 0.38185 0.17137 0.0
C526 C 1.00317 0.36985 0.4205 0.0
C527 C 0.05177 0.42911 0.20906 0.0
C528 C 0.99691 0.46163 0.42052 0.0
C529 C 0.01478 0.46883 0.48764 0.0
C530 C 1.00046 0.43908 0.36655 0.0
C531 C 0.02276 0.42303 0.37804 0.0
C532 C 0.04069 0.42986 0.44716 0.0
C533 C 0.03656 0.45264 0.50079 0.0
C534 C 0.9804 0.43271 0.29579 0.0
C535 C 0.06463 0.41347 0.4631 0.0
H536 H 0.01135 0.33486 0.28675 0.0
H537 H 0.05184 0.38463 0.10818 0.0
H538 H 0.01739 0.37146 0.47599 0.0
H539 H 0.98778 0.38479 0.43182 0.0
H540 H 0.99411 0.35017 0.42204 0.0
H541 H 0.06258 0.4282 0.14525 0.0
H542 H 0.03597 0.44384 0.20336 0.0
H543 H 0.06521 0.43605 0.26238 0.0
H544 H 0.98005 0.47398 0.4094 0.0
H545 H 0.05073 0.45813 0.55134 0.0
H546 H 0.973 0.41256 0.30439 0.0
H547 H 0.98951 0.43348 0.22915 0.0
H548 H 0.9636 0.44644 0.29749 0.0
H549 H 0.05897 0.3929 0.47461 0.0
H550 H 0.07618 0.42067 0.52114 0.0
H551 H 0.0772 0.41356 0.40325 0.0
C552 C 0.86105 0.97926 0.13127 0.0
C553 C 0.84501 1.00148 0.13395 0.0
C554 C 0.88352 0.97818 0.07704 0.0
C555 C 0.89028 0.99993 0.0244 0.0
C556 C 0.87394 0.02237 0.02705 0.0
C557 C 0.85159 0.02285 0.0816 0.0
C558 C 0.90016 0.95383 0.07673 0.0
C559 C 0.88025 0.04607 0.97286 0.0
C560 C 0.96048 1.00999 0.94333 0.0
C561 C 0.95874 1.00298 0.85274 0.0
C562 C 0.93868 1.00847 1.00028 0.0
C563 C 0.91435 0.99943 0.96668 0.0
C564 C 0.91284 0.991 0.8765 0.0
C565 C 0.93495 0.9927 0.82127 0.0
C566 C 0.94151 0.01739 0.09595 0.0
C567 C 0.88762 0.98084 0.83738 0.0
H568 H 0.85614 0.96276 0.17224 0.0
H569 H 0.83935 0.04014 0.08404 0.0
H570 H 0.90262 0.94627 0.00773 0.0
H571 H 0.91988 0.95854 0.10293 0.0
H572 H 0.89166 0.93816 0.11769 0.0
H573 H 0.86564 0.06193 0.98175 0.0
H574 H 0.89972 0.05374 0.99219 0.0
H575 H 0.88114 0.04058 0.90128 0.0
H576 H 0.97869 0.01736 0.96978 0.0
H577 H 0.93344 0.98619 0.75261 0.0
H578 H 0.93518 1.00172 0.14105 0.0
H579 H 0.92872 0.03454 0.10872 0.0
H580 H 0.96189 0.02288 0.1131 0.0
H581 H 0.87989 0.96482 0.87845 0.0
H582 H 0.88998 0.97348 0.76799 0.0
H583 H 0.87283 0.99668 0.83767 0.0
C584 C 0.54116 0.85696 0.06063 0.0
C585 C 0.53273 0.85929 0.14886 0.0
C586 C 0.54071 0.87866 1.00364 0.0
C587 C 0.53157 0.9033 0.03548 0.0
C588 C 0.52355 0.90567 0.12544 0.0
C589 C 0.52417 0.88369 0.18074 0.0
C590 C 0.54959 0.87512 0.90877 0.0
C591 C 0.51365 0.93128 0.163 0.0
C592 C 0.54666 0.96502 0.90216 0.0
C593 C 0.52363 0.96814 0.85281 0.0
C594 C 0.54956 0.94423 0.96228 0.0
C595 C 0.5289 0.92609 0.97364 0.0
C596 C 0.50537 0.92977 0.92557 0.0
C597 C 0.50308 0.95062 0.86609 0.0
C598 C 0.57512 0.94127 0.01114 0.0
C599 C 0.48262 0.91142 0.93589 0.0
H600 H 0.54784 0.83811 0.03581 0.0
H601 H 0.51763 0.88555 0.249 0.0
H602 H 0.53314 0.87915 0.86281 0.0
H603 H 0.56526 0.88932 0.89418 0.0
H604 H 0.55697 0.85506 0.89478 0.0
H605 H 0.51378 0.93166 0.23685 0.0
H606 H 0.52562 0.94767 0.139 0.0
H607 H 0.49335 0.93451 0.13986 0.0
H608 H 0.56278 0.97822 0.89142 0.0
H609 H 0.48506 0.95328 0.82958 0.0
H610 H 0.58685 0.92576 0.97786 0.0
H611 H 0.57194 0.9353 0.08077 0.0
H612 H 0.58663 0.95965 0.01139 0.0
H613 H 0.48853 0.89127 0.91635 0.0
H614 H 0.46556 0.91714 0.8948 0.0
H615 H 0.47655 0.911 0.00651 0.0
C616 C 0.65518 0.54306 0.13195 0.0
C617 C 0.67868 0.53018 0.11227 0.0
C618 C 0.63373 0.54216 0.07228 0.0
C619 C 0.6356 0.52784 0.9907 0.0
C620 C 0.6596 0.51512 0.97064 0.0
C621 C 0.68076 0.51658 0.03112 0.0
C622 C 0.60877 0.55598 0.09773 0.0
C623 C 0.66332 0.50012 0.88482 0.0
C624 C 0.57164 0.50147 0.89018 0.0
C625 C 0.56564 0.5196 0.82402 0.0
C626 C 0.59439 0.50369 0.94292 0.0
C627 C 0.61195 0.52468 0.93032 0.0
C628 C 0.60632 0.54276 0.86197 0.0
C629 C 0.58316 0.54022 0.8106 0.0
C630 C 0.59946 0.4836 0.01322 0.0
C631 C 0.62462 0.56501 0.84375 0.0
H632 H 0.65338 0.55351 0.19491 0.0
H633 H 0.69889 0.50662 0.01541 0.0
H634 H 0.60274 0.56946 0.04438 0.0
H635 H 0.59293 0.54146 0.10522 0.0
H636 H 0.61073 0.56734 0.16097 0.0
H637 H 0.67986 0.48614 0.88873 0.0
H638 H 0.6455 0.48916 0.8655 0.0
H639 H 0.66774 0.51429 0.83217 0.0
H640 H 0.55821 0.48555 0.90162 0.0
H641 H 0.57854 0.55465 0.76107 0.0
H642 H 0.60011 0.49325 0.07978 0.0
H643 H 0.61872 0.47424 1.00187 0.0
H644 H 0.5843 0.46813 0.01373 0.0
H645 H 0.62609 0.57799 0.90337 0.0
H646 H 0.61813 0.57679 0.78633 0.0
H647 H 0.64443 0.55727 0.82983 0.0
C648 C 0.99237 0.67021 0.12937 0.0
C649 C 1.00548 0.69337 0.10882 0.0
C650 C 0.99337 0.64795 0.07212 0.0
C651 C 1.00798 0.64852 0.99206 0.0
C652 C 0.02073 0.67223 0.9706 0.0
C653 C 0.01931 0.69424 0.0288 0.0
C654 C 0.97945 0.62345 0.09898 0.0
C655 C 0.03633 0.67427 0.88662 0.0
C656 C 0.03559 0.5832 0.90284 0.0
C657 C 0.01848 0.57637 0.83307 0.0
C658 C 0.03257 0.60652 0.95338 0.0
C659 C 0.01167 0.62388 0.93517 0.0
C660 C 0.99431 0.61717 0.86421 0.0
C661 C 0.99776 0.59349 0.81478 0.0
C662 C 0.0517 0.61238 0.02751 0.0
C663 C 0.97169 0.6347 0.84159 0.0
H664 H 0.98168 0.66933 0.19123 0.0
H665 H 0.02947 0.71206 0.01234 0.0
H666 H 0.96714 0.61596 0.04338 0.0
H667 H 0.99405 0.60814 0.11432 0.0
H668 H 0.96696 0.62665 0.15832 0.0
H669 H 0.04532 0.69384 0.87922 0.0
H670 H 0.05201 0.65931 0.88595 0.0
H671 H 0.02344 0.67037 0.82862 0.0
H672 H 0.05149 0.57004 0.9185 0.0
H673 H 0.98398 0.5882 0.76276 0.0
H674 H 0.04131 0.61342 0.09198 0.0
H675 H 0.06093 0.63168 0.01731 0.0
H676 H 0.06729 0.59735 0.03201 0.0
H677 H 0.95736 0.63459 0.8966 0.0
H678 H 0.96169 0.62835 0.77925 0.0
H679 H 0.97842 0.65513 0.83418 0.0
C680 C 0.07388 0.22967 0.31564 0.0
C681 C 0.05975 0.25184 0.29024 0.0
C682 C 0.06787 0.21714 0.39496 0.0
C683 C 0.04758 0.22736 0.44861 0.0
C684 C 0.03852 0.253 0.43456 0.0
C685 C 0.04437 0.26493 0.35411 0.0
C686 C 0.0795 0.19061 0.41191 0.0
C687 C 0.01857 0.26552 0.49504 0.0
C688 C 0.99387 0.17785 0.46798 0.0
C689 C 0.99758 0.16895 0.55399 0.0
C690 C 1.00956 0.1975 0.43445 0.0
C691 C 0.02944 0.20862 0.4892 0.0
C692 C 0.03233 0.20056 0.57825 0.0
C693 C 0.01641 0.18044 0.60941 0.0
C694 C 1.00535 0.20547 0.33902 0.0
C695 C 0.05275 0.21209 0.63965 0.0
H696 H 0.0871 0.22033 0.26886 0.0
H697 H 0.03397 0.28263 0.33736 0.0
H698 H 0.0822 0.18757 0.48416 0.0
H699 H 0.06603 0.17529 0.38603 0.0
H700 H 0.09856 0.18812 0.378 0.0
H701 H 0.01937 0.28717 0.49157 0.0
H702 H 0.99878 0.25917 0.47379 0.0
H703 H 0.02157 0.25956 0.56493 0.0
H704 H 0.97918 0.16866 0.42583 0.0
H705 H 0.01931 0.17309 0.67562 0.0
H706 H 0.0232 0.20158 0.29963 0.0
H707 H 1.00102 0.22667 0.33605 0.0
H708 H 0.98895 0.19477 0.3066 0.0
H709 H 0.07062 0.19988 0.63589 0.0
H710 H 0.04596 0.21208 0.70969 0.0
H711 H 0.05799 0.23234 0.62169 0.0
C712 C 0.32211 0.03136 0.27998 0.0
C713 C 0.29852 0.02139 0.24691 0.0
C714 C 0.33548 0.0188 0.34808 0.0
C715 C 0.32447 0.99624 0.38592 0.0
C716 C 0.29915 0.98803 0.36043 0.0
C717 C 0.28649 1.0006 0.29011 0.0
C718 C 0.36254 0.02816 0.37275 0.0
C719 C 0.28638 0.96471 0.40189 0.0
C720 C 0.37749 0.94898 0.44875 0.0
C721 C 0.38217 0.95651 0.53714 0.0
C722 C 0.35729 0.96045 0.40012 0.0
C723 C 0.34122 0.97955 0.44176 0.0
C724 C 0.34458 0.98563 0.53297 0.0
C725 C 0.36546 0.97443 0.57898 0.0
C726 C 0.35459 0.95372 0.30239 0.0
C727 C 0.32731 1.00532 0.57998 0.0
H728 H 0.33108 0.04785 0.24776 0.0
H729 H 0.26815 0.99295 0.26497 0.0
H730 H 0.36484 0.02968 0.44586 0.0
H731 H 0.37714 0.01379 0.34797 0.0
H732 H 0.36705 0.04747 0.34395 0.0
H733 H 0.26492 0.96495 0.39175 0.0
H734 H 0.29419 0.94654 0.37075 0.0
H735 H 0.29062 0.96402 0.47419 0.0
H736 H 0.39056 0.93516 0.41638 0.0
H737 H 0.36984 0.98107 0.64546 0.0
H738 H 0.36006 0.97091 0.26255 0.0
H739 H 0.33408 0.94882 0.28585 0.0
H740 H 0.36719 0.937 0.2821 0.0
H741 H 0.33091 0.0251 0.55376 0.0
H742 H 0.33076 1.00585 0.65288 0.0
H743 H 0.3065 1.00067 0.56714 0.0
C744 C 0.48266 0.29547 0.27412 0.0
C745 C 0.50422 0.29684 0.21768 0.0
C746 C 0.478 0.31553 0.33705 0.0
C747 C 0.49443 0.33776 0.33809 0.0
C748 C 0.51835 0.33687 0.29071 0.0
C749 C 0.5235 0.31551 0.23471 0.0
C750 C 0.45423 0.31384 0.39513 0.0
C751 C 0.53671 0.35999 0.28727 0.0
C752 C 0.47019 0.4056 0.31244 0.0
C753 C 0.48891 0.41836 0.36589 0.0
C754 C 0.46878 0.37826 0.30981 0.0
C755 C 0.48464 0.36371 0.36846 0.0
C756 C 0.49766 0.37683 0.43852 0.0
C757 C 0.50055 0.40403 0.43492 0.0
C758 C 0.45305 0.36521 0.23656 0.0
C759 C 0.51109 0.36179 0.51075 0.0
H760 H 0.4681 0.28042 0.26302 0.0
H761 H 0.54055 0.31581 0.1923 0.0
H762 H 0.45312 0.32998 0.44514 0.0
H763 H 0.43637 0.31386 0.35327 0.0
H764 H 0.45449 0.29496 0.43048 0.0
H765 H 0.55345 0.35641 0.24204 0.0
H766 H 0.52614 0.37754 0.26384 0.0
H767 H 0.54471 0.36455 0.35418 0.0
H768 H 0.45865 0.41658 0.26565 0.0
H769 H 0.51392 0.41315 0.48147 0.0
H770 H 0.43848 0.35196 0.26575 0.0
H771 H 0.46598 0.35333 0.19273 0.0
H772 H 0.44252 0.37953 0.19479 0.0
H773 H 0.49682 0.34867 0.54261 0.0
H774 H 0.51975 0.37505 0.56171 0.0
H775 H 0.52675 0.34915 0.48315 0.0
C776 C 0.22831 0.54597 0.20615 0.0
C777 C 0.24835 0.52745 0.20354 0.0
C778 C 0.20871 0.54436 0.26965 0.0
C779 C 0.21086 0.52527 0.33681 0.0
C780 C 0.23451 0.51131 0.34676 0.0
C781 C 0.25287 0.51189 0.27785 0.0
C782 C 0.184 0.55996 0.25463 0.0
C783 C 0.23928 0.49354 0.42405 0.0
C784 C 0.14463 0.53007 0.43025 0.0
C785 C 0.13184 0.51213 0.37298 0.0
C786 C 0.17194 0.53104 0.43389 0.0
C787 C 0.18635 0.51511 0.37462 0.0
C788 C 0.17377 0.49415 0.32894 0.0
C789 C 0.1466 0.49246 0.33132 0.0
C790 C 0.18534 0.55079 0.49392 0.0
C791 C 0.18841 0.47565 0.26763 0.0
H792 H 0.22581 0.55897 0.15052 0.0
H793 H 0.26911 0.4983 0.27818 0.0
H794 H 0.16745 0.54655 0.24049 0.0
H795 H 0.17907 0.57178 0.31451 0.0
H796 H 0.1857 0.5735 0.198 0.0
H797 H 0.25868 0.4979 0.45368 0.0
H798 H 0.22425 0.49573 0.47654 0.0
H799 H 0.23989 0.4729 0.40034 0.0
H800 H 0.13374 0.54483 0.46663 0.0
H801 H 0.13688 0.47723 0.29288 0.0
H802 H 0.19522 0.56592 0.45449 0.0
H803 H 0.20075 0.54092 0.53313 0.0
H804 H 0.17144 0.56063 0.53991 0.0
H805 H 0.19786 0.4867 0.2137 0.0
H806 H 0.17549 0.46065 0.23653 0.0
H807 H 0.20387 0.46542 0.30515 0.0
C808 C 0.93891 0.82068 0.05589 0.0
C809 C 0.95344 0.79746 0.06245 0.0
C810 C 0.94273 0.83705 0.98327 0.0
C811 C 0.9597 0.82865 0.91471 0.0
C812 C 0.96636 0.80193 0.90806 0.0
C813 C 0.96361 0.78647 0.98343 0.0
C814 C 0.93341 0.86496 0.99005 0.0
C815 C 0.9817 0.79138 0.83015 0.0
C816 C 0.99275 0.87869 0.76825 0.0
C817 C 0.01616 0.88232 0.8149 0.0
C818 C 0.97393 0.86104 0.79865 0.0
C819 C 0.97854 0.84773 0.87902 0.0
C820 C 1.00209 0.85225 0.92723 0.0
C821 C 0.02067 0.86922 0.89366 0.0
C822 C 0.94978 0.85628 0.74319 0.0
C823 C 1.0079 0.83937 0.01485 0.0
H824 H 0.92854 0.82823 0.11348 0.0
H825 H 0.97331 0.76768 0.98354 0.0
H826 H 0.94856 0.87692 0.02438 0.0
H827 H 0.93 0.87329 0.92347 0.0
H828 H 0.91517 0.86646 0.0294 0.0
H829 H 0.97875 0.76999 0.82154 0.0
H830 H 0.97602 0.80132 0.76796 0.0
H831 H 1.00279 0.7949 0.84216 0.0
H832 H 0.98926 0.88955 0.7081 0.0
H833 H 0.0387 0.87269 0.9299 0.0
H834 H 0.93275 0.85095 0.78413 0.0
H835 H 0.95358 0.83981 0.69611 0.0
H836 H 0.94476 0.8737 0.70345 0.0
H837 H 0.02601 0.84693 0.04673 0.0
H838 H 1.01023 0.818 1.00454 0.0
H839 H 0.99161 0.84281 0.06162 0.0
C840 C 0.71558 0.93557 0.09758 0.0
C841 C 0.7343 0.95555 0.09349 0.0
C842 C 0.69365 0.93599 0.04141 0.0
C843 C 0.69094 0.95673 0.98135 0.0
C844 C 0.71304 0.97214 0.96159 0.0
C845 C 0.73475 0.97128 0.01828 0.0
C846 C 0.67164 0.91722 0.05731 0.0
C847 C 0.71188 0.99316 0.89248 0.0
C848 C 0.63452 0.98746 0.86175 0.0
C849 C 0.62953 1.00805 0.92171 0.0
C850 C 0.65224 0.96764 0.88414 0.0
C851 C 0.66488 0.96885 0.96799 0.0
C852 C 0.65614 0.98723 0.03331 0.0
C853 C 0.63866 1.00675 0.00878 0.0
C854 C 0.65905 0.94716 0.81492 0.0
C855 C 0.66769 0.98869 0.12578 0.0
H856 H 0.71584 0.92241 0.15332 0.0
H857 H 0.74973 0.98606 0.01227 0.0
H858 H 0.65944 0.92467 0.11297 0.0
H859 H 0.65905 0.91493 0.99751 0.0
H860 H 0.67936 0.8978 0.07631 0.0
H861 H 0.73157 1.00075 0.87664 0.0
H862 H 0.70277 0.98554 0.83039 0.0
H863 H 0.69978 1.0097 0.91751 0.0
H864 H 0.62634 0.98799 0.79531 0.0
H865 H 0.63404 0.02249 0.05534 0.0
H866 H 0.66902 0.93003 0.84404 0.0
H867 H 0.67199 0.95581 0.76444 0.0
H868 H 0.64113 0.94045 0.77969 0.0
H869 H 0.65714 1.00276 0.16975 0.0
H870 H 0.68832 0.99502 0.12211 0.0
H871 H 0.66707 0.96927 0.15702 0.0
C872 C 0.54052 0.73471 0.04072 0.0
C873 C 0.56337 0.74342 0.08244 0.0
C874 C 0.54006 0.71076 0.9944 0.0
C875 C 0.56352 0.69618 0.98519 0.0
C876 C 0.58748 0.70821 0.009 0.0
C877 C 0.5871 0.73135 0.06076 0.0
C878 C 0.51389 0.69966 0.96693 0.0
C879 C 0.61338 0.69565 0.988 0.0
C880 C 0.55152 0.62724 0.05504 0.0
C881 C 0.53685 0.61808 0.98225 0.0
C882 C 0.56278 0.65208 0.05484 0.0
C883 C 0.5616 0.66714 0.97644 0.0
C884 C 0.55228 0.6552 0.89693 0.0
C885 C 0.53914 0.63117 0.90116 0.0
C886 C 0.57284 0.66314 0.14211 0.0
C887 C 0.55428 0.66824 0.80823 0.0
H888 H 0.52224 0.7444 0.05664 0.0
H889 H 0.60498 0.73844 0.09128 0.0
H890 H 0.5136 0.6958 0.89427 0.0
H891 H 0.51036 0.6809 1.00083 0.0
H892 H 0.49752 0.71314 0.98302 0.0
H893 H 0.62556 0.70971 0.95118 0.0
H894 H 0.62403 0.69133 0.05044 0.0
H895 H 0.61144 0.6775 0.94716 0.0
H896 H 0.5521 0.61611 0.11561 0.0
H897 H 0.52925 0.62393 0.84207 0.0
H898 H 0.56176 0.68102 0.15991 0.0
H899 H 0.59369 0.66834 0.13625 0.0
H900 H 0.57094 0.64922 0.1976 0.0
H901 H 0.53473 0.66924 0.77652 0.0
H902 H 0.56669 0.65603 0.76374 0.0
H903 H 0.56288 0.68809 0.8128 0.0
C904 C 0.80085 0.55572 0.03852 0.0
C905 C 0.79128 0.57429 0.09945 0.0
C906 C 0.8253 0.55917 0.99916 0.0
C907 C 0.83964 0.5822 0.01906 0.0
C908 C 0.82709 0.60333 0.06312 0.0
C909 C 0.80308 0.59896 0.10484 0.0
C910 C 0.83752 0.53626 0.95033 0.0
C911 C 0.84079 0.62904 0.0785 0.0
C912 C 0.90722 0.5644 0.09751 0.0
C913 C 0.92147 0.56558 0.01896 0.0
C914 C 0.88094 0.5715 0.09942 0.0
C915 C 0.86861 0.58045 0.02082 0.0
C916 C 0.8836 0.58395 0.94315 0.0
C917 C 0.90993 0.5762 0.94287 0.0
C918 C 0.86599 0.56717 0.18404 0.0
C919 C 0.87182 0.59541 0.86035 0.0
H920 H 0.79153 0.53674 0.03366 0.0
H921 H 0.79545 0.61353 0.15104 0.0
H922 H 0.84844 0.54279 0.89136 0.0
H923 H 0.85154 0.5264 0.9952 0.0
H924 H 0.82268 0.52172 0.92829 0.0
H925 H 0.82653 0.64515 0.08899 0.0
H926 H 0.85322 0.62788 0.13882 0.0
H927 H 0.85351 0.63372 0.02147 0.0
H928 H 0.91614 0.55609 0.15612 0.0
H929 H 0.92129 0.57765 0.88256 0.0
H930 H 0.8513 0.55163 0.17217 0.0
H931 H 0.85567 0.58527 0.20487 0.0
H932 H 0.8788 0.56122 0.23982 0.0
H933 H 0.88493 0.59325 0.80208 0.0
H934 H 0.8681 0.61653 0.87234 0.0
H935 H 0.85281 0.58622 0.84386 0.0
C936 C 0.05856 0.19633 0.98891 0.0
C937 C 0.04048 0.21704 0.98455 0.0
C938 C 0.05426 0.17185 0.94655 0.0
C939 C 0.03145 0.16743 0.8941 0.0
C940 C 0.01379 0.18894 0.88493 0.0
C941 C 0.01845 0.21316 0.93013 0.0
C942 C 0.07446 0.15092 0.96156 0.0
C943 C 0.9894 0.18702 0.82902 0.0
C944 C 0.03608 0.10349 0.7506 0.0
C945 C 0.01517 0.08862 0.782 0.0
C946 C 0.04112 0.12919 0.78355 0.0
C947 C 0.02568 0.1403 0.85358 0.0
C948 C 1.00513 0.12466 0.88746 0.0
C949 C 0.99952 0.09984 0.84887 0.0
C950 C 0.06335 0.14388 0.74239 0.0
C951 C 0.98891 0.13371 0.96557 0.0
H952 H 0.07612 0.19894 0.02843 0.0
H953 H 1.0042 0.22873 0.92524 0.0
H954 H 0.06778 0.13123 0.94144 0.0
H955 H 0.09223 0.15561 0.92319 0.0
H956 H 0.08019 0.15054 0.03282 0.0
H957 H 0.98931 0.20287 0.77948 0.0
H958 H 0.98732 0.16806 0.79345 0.0
H959 H 0.97209 0.19018 0.87194 0.0
H960 H 0.04811 0.09537 0.69783 0.0
H961 H 0.98317 0.0887 0.87337 0.0
H962 H 0.08207 0.1355 0.76604 0.0
H963 H 0.06305 0.16507 0.75857 0.0
H964 H 0.06289 0.1413 0.66893 0.0
H965 H 1.00031 0.14611 0.01277 0.0
H966 H 0.981 0.11685 1.00236 0.0
H967 H 0.97209 0.14523 0.94111 0.0
C968 C 0.33661 0.05874 0.92436 0.0
C969 C 0.32037 0.037 0.93416 0.0
C970 C 0.36084 0.05677 0.88012 0.0
C971 C 0.3693 0.03235 0.8433 0.0
C972 C 0.35267 1.01027 0.8535 0.0
C973 C 0.32861 0.01299 0.89806 0.0
C974 C 0.37754 0.08097 0.87697 0.0
C975 C 0.35993 0.98309 0.82235 0.0
C976 C 0.42286 0.04148 0.66738 0.0
C977 C 0.4446 0.02923 0.70548 0.0
C978 C 0.39826 0.04177 0.70941 0.0
C979 C 0.39513 0.03031 0.79426 0.0
C980 C 0.41718 0.01781 0.83293 0.0
C981 C 0.4411 0.01644 0.7863 0.0
C982 C 0.37591 0.05466 0.6615 0.0
C983 C 0.41579 1.00602 0.92409 0.0
H984 H 0.33099 0.07714 0.95559 0.0
H985 H 0.31678 0.9958 0.909 0.0
H986 H 0.39844 0.07641 0.86695 0.0
H987 H 0.37074 0.09336 0.82168 0.0
H988 H 0.3756 0.09273 0.93933 0.0
H989 H 0.34464 0.97543 0.77649 0.0
H990 H 0.37913 0.98186 0.7895 0.0
H991 H 0.36024 0.96989 0.88017 0.0
H992 H 0.42496 0.05054 0.60318 0.0
H993 H 0.45708 1.00514 0.81312 0.0
H994 H 0.37742 0.07615 0.67088 0.0
H995 H 0.35658 0.04825 0.68541 0.0
H996 H 0.37707 0.05052 0.58897 0.0
H997 H 0.40574 0.01953 0.97125 0.0
H998 H 0.43541 1.00132 0.95084 0.0
H999 H 0.40468 0.98751 0.92105 0.0
C1000 C 0.51644 0.3194 0.83056 0.0
C1001 C 0.4987 0.31825 0.901 0.0
C1002 C 0.5197 0.34258 0.7814 0.0
C1003 C 0.50486 0.36545 0.80307 0.0
C1004 C 0.48652 0.36395 0.87319 0.0
C1005 C 0.48316 0.3404 0.91866 0.0
C1006 C 0.53975 0.34204 0.70846 0.0
C1007 C 0.47117 0.38755 0.90441 0.0
C1008 C 0.53234 0.43276 0.74207 0.0
C1009 C 0.51296 0.44265 0.68577 0.0
C1010 C 0.53019 0.40765 0.77926 0.0
C1011 C 0.50874 0.39121 0.75643 0.0
C1012 C 0.48962 0.40092 0.69645 0.0
C1013 C 0.49172 0.42654 0.66363 0.0
C1014 C 0.55022 0.39935 0.84699 0.0
C1015 C 0.46631 0.3849 0.66766 0.0
H1016 H 0.52878 0.30262 0.81661 0.0
H1017 H 0.46923 0.33979 0.97262 0.0
H1018 H 0.53253 0.32945 0.65292 0.0
H1019 H 0.54442 0.36158 0.68264 0.0
H1020 H 0.55809 0.33301 0.73289 0.0
H1021 H 0.4639 0.38529 0.97332 0.0
H1022 H 0.48314 0.40557 0.90249 0.0
H1023 H 0.454 0.39012 0.86049 0.0
H1024 H 0.54846 0.4453 0.76146 0.0
H1025 H 0.4765 0.43405 0.62075 0.0
H1026 H 0.56191 0.38285 0.81975 0.0
H1027 H 0.54044 0.39249 0.90797 0.0
H1028 H 0.56375 0.41547 0.86574 0.0
H1029 H 0.46208 0.38789 0.59608 0.0
H1030 H 0.44889 0.39176 0.70479 0.0
H1031 H 0.46901 0.3637 0.67872 0.0
C1032 C 0.21191 0.48506 0.89329 0.0
C1033 C 0.22948 0.50609 0.8899 0.0
C1034 C 0.18714 0.48599 0.85138 0.0
C1035 C 0.17921 0.50868 0.80518 0.0
C1036 C 0.19749 0.52939 0.79752 0.0
C1037 C 0.22215 0.52791 0.84009 0.0
C1038 C 0.16872 0.46333 0.86224 0.0
C1039 C 0.19038 0.55425 0.75085 0.0
C1040 C 0.11716 0.50717 0.65739 0.0
C1041 C 0.09802 0.51698 0.71565 0.0
C1042 C 0.14347 0.50409 0.68546 0.0
C1043 C 0.15119 0.51172 0.77309 0.0
C1044 C 0.13187 0.52213 0.83114 0.0
C1045 C 0.10568 0.52421 0.80232 0.0
C1046 C 0.16291 0.49193 0.6223 0.0
C1047 C 0.13881 0.53092 0.92451 0.0
H1048 H 0.21687 0.46851 0.93414 0.0
H1049 H 0.23499 0.54471 0.8397 0.0
H1050 H 0.15285 0.46909 0.9085 0.0
H1051 H 0.15951 0.4579 0.79769 0.0
H1052 H 0.17872 0.44588 0.88918 0.0
H1053 H 0.18082 0.5678 0.79902 0.0
H1054 H 0.20798 0.5641 0.72481 0.0
H1055 H 0.17659 0.55059 0.6952 0.0
H1056 H 0.11139 0.50102 0.5909 0.0
H1057 H 0.09102 0.53162 0.84798 0.0
H1058 H 0.17032 0.47337 0.64995 0.0
H1059 H 0.17993 0.50503 0.61499 0.0
H1060 H 0.15432 0.48768 0.55578 0.0
H1061 H 0.12179 0.53918 0.96084 0.0
H1062 H 0.15433 0.54597 0.92263 0.0
H1063 H 0.14661 0.5142 0.96238 0.0
C1064 C 1.00225 0.85616 0.2875 0.0
C1065 C 0.99997 0.83191 0.33 0.0
C1066 C 1.00679 0.87976 0.33492 0.0
C1067 C 1.00987 0.87981 0.42864 0.0
C1068 C 1.00902 0.85519 0.47178 0.0
C1069 C 1.00389 0.83177 0.42247 0.0
C1070 C 1.00698 0.90487 0.28401 0.0
C1071 C 0.01287 0.85302 0.57046 0.0
C1072 C 0.04549 0.94012 0.52597 0.0
C1073 C 0.0253 0.95564 0.56193 0.0
C1074 C 0.04083 0.91532 0.48631 0.0
C1075 C 0.01507 0.90547 0.47901 0.0
C1076 C 0.9945 0.92089 0.51594 0.0
C1077 C 0.99987 0.94542 0.55823 0.0
C1078 C 0.06366 0.89952 0.45226 0.0
C1079 C 0.96676 0.91141 0.51075 0.0
H1080 H 1.00005 0.85687 0.21601 0.0
H1081 H 1.00229 0.81344 0.45709 0.0
H1082 H 0.9882 0.915 0.29603 0.0
H1083 H 0.0229 0.91802 0.30686 0.0
H1084 H 1.00901 0.90142 0.21127 0.0
H1085 H 0.0258 0.83621 0.58547 0.0
H1086 H 0.0213 0.87091 0.60101 0.0
H1087 H 0.99373 0.84909 0.60145 0.0
H1088 H 0.06535 0.9473 0.52986 0.0
H1089 H 0.98417 0.95653 0.58856 0.0
H1090 H 0.06194 0.8967 0.37919 0.0
H1091 H 0.06354 0.87988 0.48246 0.0
H1092 H 0.08264 0.90904 0.46747 0.0
H1093 H 0.961 0.90849 0.44009 0.0
H1094 H 0.95291 0.92537 0.54263 0.0
H1095 H 0.96517 0.89223 0.54364 0.0
C1096 C 0.69501 0.97785 0.40974 0.0
C1097 C 0.71112 0.99762 0.37686 0.0
C1098 C 0.67073 0.98345 0.44905 0.0
C1099 C 0.66196 1.00964 0.45772 0.0
C1100 C 0.67904 0.02992 0.43106 0.0
C1101 C 0.70323 0.0237 0.39022 0.0
C1102 C 0.65371 0.96089 0.4743 0.0
C1103 C 0.67149 0.05822 0.44375 0.0
C1104 C 0.58826 0.02441 0.46862 0.0
C1105 C 0.58336 0.02451 0.56031 0.0
C1106 C 0.61342 0.01899 0.43438 0.0
C1107 C 0.63488 0.01557 0.49316 0.0
C1108 C 0.63022 0.01714 0.58604 0.0
C1109 C 0.60457 0.02096 0.61825 0.0
C1110 C 0.617 0.01687 0.33507 0.0
C1111 C 0.65236 0.01497 0.6518 0.0
H1112 H 0.70084 0.95762 0.40029 0.0
H1113 H 0.71532 0.03921 0.3649 0.0
H1114 H 0.64295 0.96506 0.53667 0.0
H1115 H 0.63938 0.95763 0.41994 0.0
H1116 H 0.66509 0.9426 0.48251 0.0
H1117 H 0.68792 0.07161 0.42966 0.0
H1118 H 0.65503 0.06299 0.39879 0.0
H1119 H 0.66478 0.06185 0.51291 0.0
H1120 H 0.57233 0.02855 0.42343 0.0
H1121 H 0.60125 0.02214 0.68924 0.0
H1122 H 0.62542 0.99749 0.31726 0.0
H1123 H 0.63094 0.03189 0.31269 0.0
H1124 H 0.59836 0.01935 0.29825 0.0
H1125 H 0.65693 0.99404 0.66202 0.0
H1126 H 0.64726 0.02404 0.71687 0.0
H1127 H 0.67026 0.02455 0.62725 0.0
C1128 C 0.53101 0.69985 0.34619 0.0
C1129 C 0.53723 0.72475 0.38163 0.0
C1130 C 0.52749 0.67806 0.4004 0.0
C1131 C 0.52886 0.68101 0.49405 0.0
C1132 C 0.53313 0.70644 0.53102 0.0
C1133 C 0.53758 0.72791 0.47454 0.0
C1134 C 0.52321 0.65158 0.35668 0.0
C1135 C 0.53384 0.71098 0.63014 0.0
C1136 C 0.50106 0.62072 0.60753 0.0
C1137 C 0.52359 0.60559 0.62084 0.0
C1138 C 0.50255 0.64628 0.57348 0.0
C1139 C 0.52711 0.65702 0.5509 0.0
C1140 C 0.54996 0.64263 0.57121 0.0
C1141 C 0.54793 0.61742 0.60697 0.0
C1142 C 0.47767 0.66118 0.55681 0.0
C1143 C 0.57663 0.65307 0.5494 0.0
H1144 H 0.52939 0.69715 0.27481 0.0
H1145 H 0.54204 0.74695 0.50325 0.0
H1146 H 0.50451 0.64314 0.37908 0.0
H1147 H 0.52287 0.65251 0.28296 0.0
H1148 H 0.53899 0.63799 0.37662 0.0
H1149 H 0.51852 0.69942 0.66328 0.0
H1150 H 0.55305 0.7047 0.65624 0.0
H1151 H 0.5311 0.73195 0.64805 0.0
H1152 H 0.48213 0.61223 0.61962 0.0
H1153 H 0.56558 0.60644 0.61998 0.0
H1154 H 0.47328 0.66094 0.48455 0.0
H1155 H 0.47981 0.68191 0.5784 0.0
H1156 H 0.46085 0.65254 0.59202 0.0
H1157 H 0.57879 0.65404 0.47615 0.0
H1158 H 0.59252 0.64064 0.57607 0.0
H1159 H 0.57897 0.67318 0.57673 0.0
C1160 C 0.83237 0.52316 0.34152 0.0
C1161 C 0.8094 0.53331 0.37967 0.0
C1162 C 0.85575 0.52097 0.39041 0.0
C1163 C 0.85643 0.52838 0.48159 0.0
C1164 C 0.83281 0.53682 0.5225 0.0
C1165 C 0.80968 0.53949 0.47097 0.0
C1166 C 0.88013 0.51196 0.34284 0.0
C1167 C 0.8322 0.5441 0.62 0.0
C1168 C 0.91859 0.50599 0.6034 0.0
C1169 C 0.93441 0.52842 0.60128 0.0
C1170 C 0.89273 0.50605 0.56977 0.0
C1171 C 0.88228 0.52893 0.53099 0.0
C1172 C 0.89771 0.55193 0.53257 0.0
C1173 C 0.9231 0.55152 0.56943 0.0
C1174 C 0.87689 0.4813 0.57346 0.0
C1175 C 0.88795 0.57678 0.49111 0.0
H1176 H 0.83236 0.51823 0.27116 0.0
H1177 H 0.79224 0.54759 0.50115 0.0
H1178 H 0.88777 0.49396 0.37362 0.0
H1179 H 0.87663 0.50788 0.27103 0.0
H1180 H 0.89552 0.5271 0.34937 0.0
H1181 H 0.81195 0.5463 0.64494 0.0
H1182 H 0.84241 0.52909 0.65967 0.0
H1183 H 0.84256 0.56288 0.63122 0.0
H1184 H 0.92648 0.48811 0.62991 0.0
H1185 H 0.93428 0.56939 0.57175 0.0
H1186 H 0.87527 0.47246 0.5059 0.0
H1187 H 0.85682 0.48564 0.59682 0.0
H1188 H 0.88587 0.46669 0.61804 0.0
H1189 H 0.88555 0.5736 0.41837 0.0
H1190 H 0.9015 0.59342 0.50243 0.0
H1191 H 0.86858 0.58219 0.51823 0.0
loop_
_geom_bond_atom_site_label_1
_geom_bond_atom_site_label_2
_geom_bond_distance
_geom_bond_site_symmetry_2
_ccdc_geom_bond_type
H0 C3 0.929 . S
H1 C6 0.929 . S
H2 C8 0.930 . S
C3 H0 0.929 . S
C3 C4 1.398 . S
C3 C5 1.396 . S
C4 C3 1.398 . S
C4 C8 1.407 . S
C5 C3 1.396 . S
C5 C6 1.394 . S
C6 H1 0.929 . S
C6 C5 1.394 . S
C6 C7 1.382 . S
C7 C6 1.382 . S
C7 C8 1.392 . S
C7 N9 1.420 . S
C8 H2 0.930 . S
C8 C4 1.407 . S
C8 C7 1.392 . S
N9 C7 1.420 . S
N9 C10 1.244 . S
C10 N9 1.244 . S
H11 C14 0.929 . S
H12 C17 0.929 . S
H13 C19 0.930 . S
C14 H11 0.929 . S
C14 C15 1.398 . S
C14 C16 1.396 . S
C15 C14 1.398 . S
C15 C19 1.407 . S
C16 C14 1.396 . S
C16 C17 1.394 . S
C17 H12 0.929 . S
C17 C16 1.394 . S
C17 C18 1.382 . S
C18 C17 1.382 . S
C18 C19 1.392 . S
C18 N20 1.420 . S
C19 H13 0.930 . S
C19 C15 1.407 . S
C19 C18 1.392 . S
N20 C18 1.420 . S
N20 C21 1.244 . S
C21 N20 1.244 . S
H22 C25 0.929 . S
H23 C28 0.929 . S
H24 C30 0.930 . S
C25 H22 0.929 . S
C25 C26 1.398 . S
C25 C27 1.396 . S
C26 C25 1.398 . S
C26 C30 1.407 . S
C27 C25 1.396 . S
C27 C28 1.394 . S
C28 H23 0.929 . S
C28 C27 1.394 . S
C28 C29 1.382 . S
C29 C28 1.382 . S
C29 C30 1.392 . S
C29 N31 1.420 . S
C30 H24 0.930 . S
C30 C26 1.407 . S
C30 C29 1.392 . S
N31 C29 1.420 . S
N31 C32 1.244 . S
C32 N31 1.244 . S
H33 C36 0.929 . S
H34 C39 0.929 . S
H35 C41 0.930 . S
C36 H33 0.929 . S
C36 C37 1.398 . S
C36 C38 1.396 . S
C37 C36 1.398 . S
C37 C41 1.407 . S
C38 C36 1.396 . S
C38 C39 1.394 . S
C39 H34 0.929 . S
C39 C38 1.394 . S
C39 C40 1.382 . S
C40 C39 1.382 . S
C40 C41 1.392 . S
C40 N42 1.420 . S
C41 H35 0.930 . S
C41 C37 1.407 . S
C41 C40 1.392 . S
N42 C40 1.420 . S
N42 C43 1.244 . S
C43 N42 1.244 . S
H44 C47 0.929 . S
H45 C50 0.929 . S
H46 C52 0.930 . S
C47 H44 0.929 . S
C47 C48 1.398 . S
C47 C49 1.396 1_556 S
C48 C47 1.398 . S
C48 C52 1.407 . S
C49 C47 1.396 1_554 S
C49 C50 1.394 . S
C50 H45 0.929 . S
C50 C49 1.394 . S
C50 C51 1.382 . S
C51 C50 1.382 . S
C51 C52 1.392 1_554 S
C51 N53 1.420 . S
C52 H46 0.930 . S
C52 C48 1.407 . S
C52 C51 1.392 1_556 S
N53 C51 1.420 . S
N53 C54 1.244 . S
C54 N53 1.244 . S
H55 C58 0.929 . S
H56 C61 0.929 . S
H57 C63 0.930 . S
C58 H55 0.929 . S
C58 C59 1.398 . S
C58 C60 1.396 1_556 S
C59 C58 1.398 . S
C59 C63 1.407 . S
C60 C58 1.396 1_554 S
C60 C61 1.394 . S
C61 H56 0.929 . S
C61 C60 1.394 . S
C61 C62 1.382 . S
C62 C61 1.382 . S
C62 C63 1.392 1_554 S
C62 N64 1.420 . S
C63 H57 0.930 . S
C63 C59 1.407 . S
C63 C62 1.392 1_556 S
N64 C62 1.420 . S
N64 C65 1.244 . S
C65 N64 1.244 . S
H66 C69 0.929 . S
H67 C72 0.929 . S
H68 C74 0.930 . S
C69 H66 0.929 . S
C69 C70 1.398 . S
C69 C71 1.396 1_556 S
C70 C69 1.398 . S
C70 C74 1.407 . S
C71 C69 1.396 1_554 S
C71 C72 1.394 . S
C72 H67 0.929 . S
C72 C71 1.394 . S
C72 C73 1.376 1_554 S
C73 C72 1.376 1_556 S
C73 C74 1.398 . S
C73 N75 1.420 1_556 S
C74 H68 0.930 . S
C74 C70 1.407 . S
C74 C73 1.398 . S
N75 C73 1.420 1_554 S
N75 C76 1.244 . S
C76 N75 1.244 . S
H77 C80 0.929 . S
H78 C83 0.929 . S
H79 C85 0.930 . S
C80 H77 0.929 . S
C80 C81 1.398 . S
C80 C82 1.396 1_556 S
C81 C80 1.398 . S
C81 C85 1.407 . S
C82 C80 1.396 1_554 S
C82 C83 1.394 . S
C83 H78 0.929 . S
C83 C82 1.394 . S
C83 C84 1.382 . S
C84 C83 1.382 . S
C84 C85 1.392 1_554 S
C84 N86 1.420 . S
C85 H79 0.930 . S
C85 C81 1.407 . S
C85 C84 1.392 1_556 S
N86 C84 1.420 . S
N86 C87 1.244 . S
C87 N86 1.244 . S
Gd88 N119 2.644 1_545 S
Gd88 N125 2.601 . S
Gd88 O132 2.545 . S
Gd88 O133 2.606 1_655 S
Gd88 O135 2.429 . S
Gd88 O136 2.545 1_655 S
Gd88 O137 2.412 . S
Gd88 O139 2.362 1_545 S
Gd88 O140 2.324 1_655 S
Gd88 C147 2.828 . S
Gd89 N98 2.661 1_565 S
Gd89 N102 2.591 1_565 S
Gd89 O133 2.362 1_565 S
Gd89 O134 2.324 1_455 S
Gd89 O138 2.545 . S
Gd89 O139 2.606 1_455 S
Gd89 O141 2.429 . S
Gd89 O142 2.545 . S
Gd89 O143 2.412 . S
Gd89 C156 2.828 . S
C90 C93 1.417 1_554 S
C90 C95 1.431 . S
C90 C96 1.412 . S
C91 C94 1.437 1_554 S
C91 C95 1.317 . S
C91 H110 0.929 . S
C92 C93 1.426 . S
C92 C94 1.413 . S
C92 N102 1.382 . S
C93 C90 1.417 1_556 S
C93 C92 1.426 . S
C93 N98 1.350 . S
C94 C91 1.437 1_556 S
C94 C92 1.413 . S
C94 C104 1.391 . S
C95 C90 1.431 . S
C95 C91 1.317 . S
C95 H106 0.930 . S
C96 C90 1.412 . S
C96 C97 1.355 1_554 S
C96 H108 0.930 . S
C97 C96 1.355 1_556 S
C97 C99 1.402 . S
C97 H109 0.930 1_456 S
N98 Gd89 2.661 1_545 S
N98 C93 1.350 . S
N98 C99 1.307 . S
C99 C97 1.402 . S
C99 N98 1.307 . S
C99 H100 0.930 1_455 S
H100 C99 0.930 1_655 S
C101 N102 1.318 1_565 S
C101 C103 1.394 . S
C101 H105 0.930 . S
N102 Gd89 2.591 1_545 S
N102 C92 1.382 . S
N102 C101 1.318 1_545 S
C103 C101 1.394 . S
C103 C104 1.359 1_565 S
C103 H115 0.930 . S
C104 C94 1.391 . S
C104 C103 1.359 1_545 S
C104 H116 0.929 . S
H105 C101 0.930 . S
H106 C95 0.930 . S
H107 C124 0.930 . S
H108 C96 0.930 . S
H109 C97 0.930 1_654 S
H110 C91 0.929 . S
H111 C129 0.930 . S
H112 C120 0.930 . S
H113 C121 0.930 . S
H114 C145 0.929 . S
H115 C103 0.930 . S
H116 C104 0.929 . S
H117 C146 0.930 . S
H118 C127 0.930 . S
N119 Gd88 2.644 1_565 S
N119 C123 1.357 . S
N119 C124 1.319 1_655 S
C120 H112 0.930 . S
C120 C121 1.355 1_655 S
C120 C122 1.412 . S
C121 H113 0.930 . S
C121 C120 1.355 1_455 S
C121 C124 1.402 . S
C122 C120 1.412 . S
C122 C123 1.417 . S
C122 C146 1.431 . S
C123 N119 1.357 . S
C123 C122 1.417 . S
C123 C126 1.426 1_565 S
C124 H107 0.930 . S
C124 N119 1.319 1_455 S
C124 C121 1.402 . S
N125 Gd88 2.601 . S
N125 C126 1.359 . S
N125 C129 1.334 . S
C126 C123 1.426 1_545 S
C126 N125 1.359 . S
C126 C130 1.410 1_545 S
C127 H118 0.930 . S
C127 C128 1.359 . S
C127 C129 1.394 . S
C128 C127 1.359 . S
C128 C130 1.381 1_545 S
C128 H131 0.929 . S
C129 H111 0.930 . S
C129 N125 1.334 . S
C129 C127 1.394 . S
C130 C126 1.410 1_565 S
C130 C128 1.381 1_565 S
C130 C145 1.450 . S
H131 C128 0.929 . S
O132 Gd88 2.545 . S
O132 C147 1.258 . S
O133 Gd88 2.606 1_455 S
O133 Gd89 2.362 1_545 S
O133 C144 1.284 . S
O134 Gd89 2.324 1_655 S
O134 C154 1.254 1_565 S
O135 Gd88 2.429 . S
O135 C154 1.268 . S
O136 Gd88 2.545 1_455 S
O136 C144 1.250 . S
O137 Gd88 2.412 . S
O137 C147 1.252 . S
O138 Gd89 2.545 . S
O138 C156 1.258 . S
O139 Gd88 2.362 1_565 S
O139 Gd89 2.606 1_655 S
O139 C155 1.284 . S
O140 Gd88 2.324 1_455 S
O140 C163 1.254 . S
O141 Gd89 2.429 . S
O141 C163 1.268 1_565 S
O142 Gd89 2.545 . S
O142 C155 1.250 1_455 S
O143 Gd89 2.412 . S
O143 C156 1.252 . S
C144 O133 1.284 . S
C144 O136 1.250 . S
C145 H114 0.929 . S
C145 C130 1.450 . S
C145 C146 1.317 . S
C146 H117 0.930 . S
C146 C122 1.431 . S
C146 C145 1.317 . S
C147 Gd88 2.828 . S
C147 O132 1.258 . S
C147 O137 1.252 . S
C147 C148 1.497 . S
C148 C147 1.497 . S
C148 C149 1.395 . S
C148 C150 1.380 . S
C149 C148 1.395 . S
C149 C152 1.398 . S
C149 H164 0.930 . S
C150 C148 1.380 . S
C150 C151 1.391 . S
C150 H165 0.930 1_655 S
C151 C150 1.391 . S
C151 C153 1.387 . S
C152 C149 1.398 . S
C152 C153 1.380 . S
C152 H166 0.930 . S
C153 C151 1.387 . S
C153 C152 1.380 . S
C153 H167 0.930 . S
C154 O134 1.254 1_545 S
C154 O135 1.268 . S
C155 O139 1.284 . S
C155 O142 1.250 1_655 S
C156 Gd89 2.828 . S
C156 O138 1.258 . S
C156 O143 1.252 . S
C156 C157 1.497 . S
C157 C156 1.497 . S
C157 C158 1.395 . S
C157 C159 1.380 . S
C158 C157 1.395 . S
C158 C161 1.398 . S
C158 H168 0.930 . S
C159 C157 1.380 . S
C159 C160 1.391 . S
C159 H169 0.942 . S
C160 C159 1.391 . S
C160 C162 1.387 . S
C161 C158 1.398 . S
C161 C162 1.380 . S
C161 H170 0.930 . S
C162 C160 1.387 . S
C162 C161 1.380 . S
C162 H171 0.930 1_556 S
C163 O140 1.254 . S
C163 O141 1.268 1_545 S
H164 C149 0.930 . S
H165 C150 0.930 1_455 S
H166 C152 0.930 . S
H167 C153 0.930 . S
H168 C158 0.930 . S
H169 C159 0.942 . S
H170 C161 0.930 . S
H171 C162 0.930 1_554 S
Gd172 N203 2.661 . S
Gd172 N209 2.601 . S
Gd172 O216 2.545 . S
Gd172 O217 2.606 1_565 S
Gd172 O219 2.429 . S
Gd172 O220 2.545 1_565 S
Gd172 O221 2.412 . S
Gd172 O223 2.362 . S
Gd172 O224 2.324 1_565 S
Gd172 C231 2.828 . S
Gd173 N182 2.661 . S
Gd173 N186 2.601 . S
Gd173 O217 2.362 . S
Gd173 O218 2.324 1_545 S
Gd173 O222 2.545 . S
Gd173 O223 2.606 1_545 S
Gd173 O225 2.429 . S
Gd173 O226 2.545 . S
Gd173 O227 2.412 . S
Gd173 C240 2.828 . S
C174 C177 1.417 1_554 S
C174 C179 1.431 . S
C174 C180 1.412 . S
C175 C178 1.437 1_554 S
C175 C179 1.317 . S
C175 H194 0.929 . S
C176 C177 1.426 . S
C176 C178 1.413 . S
C176 N186 1.359 . S
C177 C174 1.417 1_556 S
C177 C176 1.426 . S
C177 N182 1.350 . S
C178 C175 1.437 1_556 S
C178 C176 1.413 . S
C178 C188 1.391 . S
C179 C174 1.431 . S
C179 C175 1.317 . S
C179 H190 0.930 . S
C180 C174 1.412 . S
C180 C181 1.355 1_554 S
C180 H192 0.930 . S
C181 C180 1.355 1_556 S
C181 C183 1.402 . S
C181 H193 0.930 1_546 S
N182 Gd173 2.661 . S
N182 C177 1.350 . S
N182 C183 1.307 . S
C183 C181 1.402 . S
C183 N182 1.307 . S
C183 H184 0.930 1_545 S
H184 C183 0.930 1_565 S
C185 N186 1.334 . S
C185 C187 1.394 . S
C185 H189 0.930 . S
N186 Gd173 2.601 . S
N186 C176 1.359 . S
N186 C185 1.334 . S
C187 C185 1.394 . S
C187 C188 1.359 . S
C187 H199 0.930 . S
C188 C178 1.391 . S
C188 C187 1.359 . S
C188 H200 0.929 . S
H189 C185 0.930 . S
H190 C179 0.930 . S
H191 C208 0.930 . S
H192 C180 0.930 . S
H193 C181 0.930 1_564 S
H194 C175 0.929 . S
H195 C213 0.930 . S
H196 C204 0.930 . S
H197 C205 0.930 . S
H198 C229 0.929 . S
H199 C187 0.930 . S
H200 C188 0.929 . S
H201 C230 0.930 . S
H202 C211 0.930 . S
N203 Gd172 2.661 . S
N203 C207 1.350 . S
N203 C208 1.307 1_565 S
C204 H196 0.930 . S
C204 C205 1.355 1_565 S
C204 C206 1.412 . S
C205 H197 0.930 . S
C205 C204 1.355 1_545 S
C205 C208 1.402 . S
C206 C204 1.412 . S
C206 C207 1.417 . S
C206 C230 1.431 . S
C207 N203 1.350 . S
C207 C206 1.417 . S
C207 C210 1.426 . S
C208 H191 0.930 . S
C208 N203 1.307 1_545 S
C208 C205 1.402 . S
N209 Gd172 2.601 . S
N209 C210 1.359 . S
N209 C213 1.334 . S
C210 C207 1.426 . S
C210 N209 1.359 . S
C210 C214 1.413 . S
C211 H202 0.930 . S
C211 C212 1.359 . S
C211 C213 1.394 . S
C212 C211 1.359 . S
C212 C214 1.391 . S
C212 H215 0.929 . S
C213 H195 0.930 . S
C213 N209 1.334 . S
C213 C211 1.394 . S
C214 C210 1.413 . S
C214 C212 1.391 . S
C214 C229 1.437 . S
H215 C212 0.929 . S
O216 Gd172 2.545 . S
O216 C231 1.258 . S
O217 Gd172 2.606 1_545 S
O217 Gd173 2.362 . S
O217 C228 1.284 . S
O218 Gd173 2.324 1_565 S
O218 C238 1.254 . S
O219 Gd172 2.429 . S
O219 C238 1.268 . S
O220 Gd172 2.545 1_545 S
O220 C228 1.250 . S
O221 Gd172 2.412 . S
O221 C231 1.252 . S
O222 Gd173 2.545 . S
O222 C240 1.258 . S
O223 Gd172 2.362 . S
O223 Gd173 2.606 1_565 S
O223 C239 1.284 . S
O224 Gd172 2.324 1_545 S
O224 C247 1.254 . S
O225 Gd173 2.429 . S
O225 C247 1.268 . S
O226 Gd173 2.545 . S
O226 C239 1.250 1_545 S
O227 Gd173 2.412 . S
O227 C240 1.252 . S
C228 O217 1.284 . S
C228 O220 1.250 . S
C229 H198 0.929 . S
C229 C214 1.437 . S
C229 C230 1.317 . S
C230 H201 0.930 . S
C230 C206 1.431 . S
C230 C229 1.317 . S
C231 Gd172 2.828 . S
C231 O216 1.258 . S
C231 O221 1.252 . S
C231 C232 1.497 . S
C232 C231 1.497 . S
C232 C233 1.395 . S
C232 C234 1.380 . S
C233 C232 1.395 . S
C233 C236 1.398 . S
C233 H248 0.930 . S
C234 C232 1.380 . S
C234 C235 1.391 . S
C234 H249 0.930 1_565 S
C235 C234 1.391 . S
C235 C237 1.387 . S
C236 C233 1.398 . S
C236 C237 1.380 . S
C236 H250 0.930 . S
C237 C235 1.387 . S
C237 C236 1.380 . S
C237 H251 0.930 . S
C238 O218 1.254 . S
C238 O219 1.268 . S
C239 O223 1.284 . S
C239 O226 1.250 1_565 S
C240 Gd173 2.828 . S
C240 O222 1.258 . S
C240 O227 1.252 . S
C240 C241 1.497 . S
C241 C240 1.497 . S
C241 C242 1.395 . S
C241 C243 1.380 . S
C242 C241 1.395 . S
C242 C245 1.398 . S
C242 H252 0.930 . S
C243 C241 1.380 . S
C243 C244 1.391 . S
C243 H253 0.930 . S
C244 C243 1.391 . S
C244 C246 1.387 . S
C245 C242 1.398 . S
C245 C246 1.380 . S
C245 H254 0.930 . S
C246 C244 1.387 . S
C246 C245 1.380 . S
C246 H255 0.930 1_556 S
C247 O224 1.254 . S
C247 O225 1.268 . S
H248 C233 0.930 . S
H249 C234 0.930 1_545 S
H250 C236 0.930 . S
H251 C237 0.930 . S
H252 C242 0.930 . S
H253 C243 0.930 . S
H254 C245 0.930 . S
H255 C246 0.930 1_554 S
Gd256 N287 2.661 . S
Gd256 N293 2.601 . S
Gd256 O300 2.545 . S
Gd256 O301 2.606 . S
Gd256 O303 2.429 . S
Gd256 O304 2.545 . S
Gd256 O305 2.412 . S
Gd256 O307 2.362 . S
Gd256 O308 2.324 . S
Gd256 C315 2.828 . S
Gd257 N266 2.661 . S
Gd257 N270 2.601 . S
Gd257 O301 2.362 . S
Gd257 O302 2.324 . S
Gd257 O306 2.545 . S
Gd257 O307 2.606 . S
Gd257 O309 2.429 . S
Gd257 O310 2.545 . S
Gd257 O311 2.412 . S
Gd257 C324 2.828 . S
C258 C261 1.417 . S
C258 C263 1.431 . S
C258 C264 1.412 . S
C259 C262 1.437 . S
C259 C263 1.317 . S
C259 H278 0.929 . S
C260 C261 1.426 . S
C260 C262 1.413 . S
C260 N270 1.359 . S
C261 C258 1.417 . S
C261 C260 1.426 . S
C261 N266 1.350 . S
C262 C259 1.437 . S
C262 C260 1.413 . S
C262 C272 1.391 . S
C263 C258 1.431 . S
C263 C259 1.317 . S
C263 H274 0.930 . S
C264 C258 1.412 . S
C264 C265 1.355 . S
C264 H276 0.930 . S
C265 C264 1.355 . S
C265 C267 1.402 . S
C265 H277 0.930 . S
N266 Gd257 2.661 . S
N266 C261 1.350 . S
N266 C267 1.307 . S
C267 C265 1.402 . S
C267 N266 1.307 . S
C267 H268 0.930 . S
H268 C267 0.930 . S
C269 N270 1.334 . S
C269 C271 1.394 . S
C269 H273 0.930 . S
N270 Gd257 2.601 . S
N270 C260 1.359 . S
N270 C269 1.334 . S
C271 C269 1.394 . S
C271 C272 1.359 . S
C271 H283 0.930 . S
C272 C262 1.391 . S
C272 C271 1.359 . S
C272 H284 0.929 . S
H273 C269 0.930 . S
H274 C263 0.930 . S
H275 C292 0.930 . S
H276 C264 0.930 . S
H277 C265 0.930 . S
H278 C259 0.929 . S
H279 C297 0.930 . S
H280 C288 0.930 . S
H281 C289 0.930 . S
H282 C313 0.929 . S
H283 C271 0.930 . S
H284 C272 0.929 . S
H285 C314 0.930 . S
H286 C295 0.930 . S
N287 Gd256 2.661 . S
N287 C291 1.350 . S
N287 C292 1.307 . S
C288 H280 0.930 . S
C288 C289 1.355 . S
C288 C290 1.412 . S
C289 H281 0.930 . S
C289 C288 1.355 . S
C289 C292 1.402 . S
C290 C288 1.412 . S
C290 C291 1.417 . S
C290 C314 1.431 . S
C291 N287 1.350 . S
C291 C290 1.417 . S
C291 C294 1.426 . S
C292 H275 0.930 . S
C292 N287 1.307 . S
C292 C289 1.402 . S
N293 Gd256 2.601 . S
N293 C294 1.359 . S
N293 C297 1.334 . S
C294 C291 1.426 . S
C294 N293 1.359 . S
C294 C298 1.413 . S
C295 H286 0.930 . S
C295 C296 1.359 . S
C295 C297 1.394 . S
C296 C295 1.359 . S
C296 C298 1.391 . S
C296 H299 0.929 . S
C297 H279 0.930 . S
C297 N293 1.334 . S
C297 C295 1.394 . S
C298 C294 1.413 . S
C298 C296 1.391 . S
C298 C313 1.437 . S
H299 C296 0.929 . S
O300 Gd256 2.545 . S
O300 C315 1.258 . S
O301 Gd256 2.606 . S
O301 Gd257 2.362 . S
O301 C312 1.284 . S
O302 Gd257 2.324 . S
O302 C322 1.254 . S
O303 Gd256 2.429 . S
O303 C322 1.268 . S
O304 Gd256 2.545 . S
O304 C312 1.250 . S
O305 Gd256 2.412 . S
O305 C315 1.252 . S
O306 Gd257 2.545 . S
O306 C324 1.258 . S
O307 Gd256 2.362 . S
O307 Gd257 2.606 . S
O307 C323 1.284 . S
O308 Gd256 2.324 . S
O308 C331 1.254 . S
O309 Gd257 2.429 . S
O309 C331 1.268 . S
O310 Gd257 2.545 . S
O310 C323 1.250 . S
O311 Gd257 2.412 . S
O311 C324 1.252 . S
C312 O301 1.284 . S
C312 O304 1.250 . S
C313 H282 0.929 . S
C313 C298 1.437 . S
C313 C314 1.317 . S
C314 H285 0.930 . S
C314 C290 1.431 . S
C314 C313 1.317 . S
C315 Gd256 2.828 . S
C315 O300 1.258 . S
C315 O305 1.252 . S
C315 C316 1.497 . S
C316 C315 1.497 . S
C316 C317 1.395 1_556 S
C316 C318 1.380 . S
C317 C316 1.395 1_554 S
C317 C320 1.398 . S
C317 H332 0.930 . S
C318 C316 1.380 . S
C318 C319 1.391 1_556 S
C318 H333 0.930 . S
C319 C318 1.391 1_554 S
C319 C321 1.387 . S
C320 C317 1.398 . S
C320 C321 1.380 . S
C320 H334 0.930 . S
C321 C319 1.387 . S
C321 C320 1.380 . S
C321 H335 0.930 . S
C322 O302 1.254 . S
C322 O303 1.268 . S
C323 O307 1.284 . S
C323 O310 1.250 . S
C324 Gd257 2.828 . S
C324 O306 1.258 . S
C324 O311 1.252 . S
C324 C325 1.497 . S
C325 C324 1.497 . S
C325 C326 1.395 . S
C325 C327 1.380 . S
C326 C325 1.395 . S
C326 C329 1.398 . S
C326 H336 0.930 . S
C327 C325 1.380 . S
C327 C328 1.391 . S
C327 H337 0.930 . S
C328 C327 1.391 . S
C328 C330 1.387 . S
C329 C326 1.398 . S
C329 C330 1.380 . S
C329 H338 0.930 . S
C330 C328 1.387 . S
C330 C329 1.380 . S
C330 H339 0.930 . S
C331 O308 1.254 . S
C331 O309 1.268 . S
H332 C317 0.930 . S
H333 C318 0.930 . S
H334 C320 0.930 . S
H335 C321 0.930 . S
H336 C326 0.930 . S
H337 C327 0.930 . S
H338 C329 0.930 . S
H339 C330 0.930 . S
Gd340 N371 2.661 . S
Gd340 N377 2.601 . S
Gd340 O384 2.545 . S
Gd340 O385 2.606 1_655 S
Gd340 O387 2.429 1_655 S
Gd340 O388 2.545 . S
Gd340 O389 2.412 . S
Gd340 O391 2.362 1_655 S
Gd340 O392 2.324 . S
Gd340 C399 2.828 . S
Gd341 N350 2.661 . S
Gd341 N354 2.601 . S
Gd341 O385 2.362 . S
Gd341 O386 2.324 . S
Gd341 O390 2.545 . S
Gd341 O391 2.606 . S
Gd341 O393 2.429 1_455 S
Gd341 O394 2.545 . S
Gd341 O395 2.412 . S
Gd341 C408 2.828 . S
C342 C345 1.417 . S
C342 C347 1.431 . S
C342 C348 1.412 . S
C343 C346 1.437 . S
C343 C347 1.317 . S
C343 H362 0.929 . S
C344 C345 1.426 . S
C344 C346 1.413 . S
C344 N354 1.359 . S
C345 C342 1.417 . S
C345 C344 1.426 . S
C345 N350 1.350 . S
C346 C343 1.437 . S
C346 C344 1.413 . S
C346 C356 1.391 . S
C347 C342 1.431 . S
C347 C343 1.317 . S
C347 H358 0.930 . S
C348 C342 1.412 . S
C348 C349 1.355 . S
C348 H360 0.930 . S
C349 C348 1.355 . S
C349 C351 1.402 . S
C349 H361 0.930 . S
N350 Gd341 2.661 . S
N350 C345 1.350 . S
N350 C351 1.307 . S
C351 C349 1.402 . S
C351 N350 1.307 . S
C351 H352 0.930 . S
H352 C351 0.930 . S
C353 N354 1.344 . S
C353 C355 1.393 1_455 S
C353 H357 0.922 1_455 S
N354 Gd341 2.601 . S
N354 C344 1.359 . S
N354 C353 1.344 . S
C355 C353 1.393 1_655 S
C355 C356 1.359 1_655 S
C355 H367 0.930 . S
C356 C346 1.391 . S
C356 C355 1.359 1_455 S
C356 H368 0.929 . S
H357 C353 0.922 1_655 S
H358 C347 0.930 . S
H359 C376 0.930 . S
H360 C348 0.930 . S
H361 C349 0.930 . S
H362 C343 0.929 . S
H363 C381 0.930 . S
H364 C372 0.930 . S
H365 C373 0.930 . S
H366 C397 0.929 . S
H367 C355 0.930 . S
H368 C356 0.929 . S
H369 C398 0.930 . S
H370 C379 0.930 . S
N371 Gd340 2.661 . S
N371 C375 1.350 . S
N371 C376 1.307 . S
C372 H364 0.930 . S
C372 C373 1.355 . S
C372 C374 1.412 . S
C373 H365 0.930 . S
C373 C372 1.355 . S
C373 C376 1.402 . S
C374 C372 1.412 . S
C374 C375 1.417 . S
C374 C398 1.431 . S
C375 N371 1.350 . S
C375 C374 1.417 . S
C375 C378 1.426 . S
C376 H359 0.930 . S
C376 N371 1.307 . S
C376 C373 1.402 . S
N377 Gd340 2.601 . S
N377 C378 1.359 . S
N377 C381 1.334 1_655 S
C378 C375 1.426 . S
C378 N377 1.359 . S
C378 C382 1.413 . S
C379 H370 0.930 . S
C379 C380 1.359 . S
C379 C381 1.394 . S
C380 C379 1.359 . S
C380 C382 1.391 1_455 S
C380 H383 0.929 . S
C381 H363 0.930 . S
C381 N377 1.334 1_455 S
C381 C379 1.394 . S
C382 C378 1.413 . S
C382 C380 1.391 1_655 S
C382 C397 1.437 . S
H383 C380 0.929 . S
O384 Gd340 2.545 . S
O384 C399 1.258 . S
O385 Gd340 2.606 1_455 S
O385 Gd341 2.362 . S
O385 C396 1.284 1_455 S
O386 Gd341 2.324 . S
O386 C406 1.254 . S
O387 Gd340 2.429 1_455 S
O387 C406 1.268 . S
O388 Gd340 2.545 . S
O388 C396 1.250 . S
O389 Gd340 2.412 . S
O389 C399 1.252 . S
O390 Gd341 2.545 . S
O390 C408 1.258 . S
O391 Gd340 2.362 1_455 S
O391 Gd341 2.606 . S
O391 C407 1.284 . S
O392 Gd340 2.324 . S
O392 C415 1.254 . S
O393 Gd341 2.429 1_655 S
O393 C415 1.268 . S
O394 Gd341 2.545 . S
O394 C407 1.250 . S
O395 Gd341 2.412 . S
O395 C408 1.252 . S
C396 O385 1.284 1_655 S
C396 O388 1.250 . S
C397 H366 0.929 . S
C397 C382 1.437 . S
C397 C398 1.317 . S
C398 H369 0.930 . S
C398 C374 1.431 . S
C398 C397 1.317 . S
C399 Gd340 2.828 . S
C399 O384 1.258 . S
C399 O389 1.252 . S
C399 C400 1.497 . S
C400 C399 1.497 . S
C400 C401 1.395 1_556 S
C400 C402 1.380 . S
C401 C400 1.395 1_554 S
C401 C404 1.398 . S
C401 H416 0.930 . S
C402 C400 1.380 . S
C402 C403 1.391 1_556 S
C402 H417 0.930 . S
C403 C402 1.391 1_554 S
C403 C405 1.387 . S
C404 C401 1.398 . S
C404 C405 1.380 . S
C404 H418 0.930 . S
C405 C403 1.387 . S
C405 C404 1.380 . S
C405 H419 0.930 . S
C406 O386 1.254 . S
C406 O387 1.268 . S
C407 O391 1.284 . S
C407 O394 1.250 . S
C408 Gd341 2.828 . S
C408 O390 1.258 . S
C408 O395 1.252 . S
C408 C409 1.497 . S
C409 C408 1.497 . S
C409 C410 1.395 . S
C409 C411 1.380 . S
C410 C409 1.395 . S
C410 C413 1.398 . S
C410 H420 0.930 . S
C411 C409 1.380 . S
C411 C412 1.391 . S
C411 H421 0.930 . S
C412 C411 1.391 . S
C412 C414 1.387 . S
C413 C410 1.398 . S
C413 C414 1.380 . S
C413 H422 0.930 . S
C414 C412 1.387 . S
C414 C413 1.380 . S
C414 H423 0.930 . S
C415 O392 1.254 . S
C415 O393 1.268 . S
H416 C401 0.930 . S
H417 C402 0.930 . S
H418 C404 0.930 . S
H419 C405 0.930 . S
H420 C410 0.930 . S
H421 C411 0.930 . S
H422 C413 0.930 . S
H423 C414 0.930 . S
C424 C425 1.391 . S
C424 C426 1.394 . S
C424 H440 0.931 . S
C425 C424 1.391 . S
C425 C429 1.376 . S
C426 C424 1.394 . S
C426 C427 1.369 . S
C426 C430 1.531 . S
C427 C426 1.369 . S
C427 C428 1.410 . S
C427 C435 1.503 . S
C428 C427 1.410 . S
C428 C429 1.392 . S
C428 C431 1.511 . S
C429 C425 1.376 . S
C429 C428 1.392 . S
C429 H441 0.929 . S
C430 C426 1.531 . S
C430 H442 0.960 . S
C430 H443 0.962 . S
C430 H444 0.960 . S
C431 C428 1.511 . S
C431 H445 0.961 . S
C431 H446 0.961 . S
C431 H447 0.961 . S
C432 C433 1.370 . S
C432 C434 1.363 . S
C432 H448 0.931 1_545 S
C433 C432 1.370 . S
C433 C437 1.408 . S
C434 C432 1.363 . S
C434 C435 1.370 . S
C434 C438 1.524 1_545 S
C435 C427 1.503 . S
C435 C434 1.370 . S
C435 C436 1.403 . S
C436 C435 1.403 . S
C436 C437 1.404 . S
C436 C439 1.539 . S
C437 C433 1.408 . S
C437 C436 1.404 . S
C437 H449 0.930 . S
C438 C434 1.524 1_565 S
C438 H450 0.956 . S
C438 H451 0.961 . S
C438 H452 0.961 . S
C439 C436 1.539 . S
C439 H453 0.958 . S
C439 H454 0.961 . S
C439 H455 0.960 . S
H440 C424 0.931 . S
H441 C429 0.929 . S
H442 C430 0.960 . S
H443 C430 0.962 . S
H444 C430 0.960 . S
H445 C431 0.961 . S
H446 C431 0.961 . S
H447 C431 0.961 . S
H448 C432 0.931 1_565 S
H449 C437 0.930 . S
H450 C438 0.956 . S
H451 C438 0.961 . S
H452 C438 0.961 . S
H453 C439 0.958 . S
H454 C439 0.961 . S
H455 C439 0.960 . S
C456 C457 1.391 . S
C456 C458 1.394 . S
C456 H472 0.931 . S
C457 C456 1.391 . S
C457 C461 1.376 . S
C458 C456 1.394 . S
C458 C459 1.369 . S
C458 C462 1.531 . S
C459 C458 1.369 . S
C459 C460 1.410 . S
C459 C467 1.503 . S
C460 C459 1.410 . S
C460 C461 1.392 . S
C460 C463 1.511 . S
C461 C457 1.376 . S
C461 C460 1.392 . S
C461 H473 0.929 . S
C462 C458 1.531 . S
C462 H474 0.960 . S
C462 H475 0.962 . S
C462 H476 0.960 . S
C463 C460 1.511 . S
C463 H477 0.961 . S
C463 H478 0.961 . S
C463 H479 0.961 . S
C464 C465 1.370 . S
C464 C466 1.363 . S
C464 H480 0.931 . S
C465 C464 1.370 . S
C465 C469 1.408 . S
C466 C464 1.363 . S
C466 C467 1.370 . S
C466 C470 1.524 . S
C467 C459 1.503 . S
C467 C466 1.370 . S
C467 C468 1.403 . S
C468 C467 1.403 . S
C468 C469 1.404 . S
C468 C471 1.539 . S
C469 C465 1.408 . S
C469 C468 1.404 . S
C469 H481 0.930 . S
C470 C466 1.524 . S
C470 H482 0.956 . S
C470 H483 0.961 . S
C470 H484 0.961 . S
C471 C468 1.539 . S
C471 H485 0.958 . S
C471 H486 0.961 . S
C471 H487 0.960 . S
H472 C456 0.931 . S
H473 C461 0.929 . S
H474 C462 0.960 . S
H475 C462 0.962 . S
H476 C462 0.960 . S
H477 C463 0.961 . S
H478 C463 0.961 . S
H479 C463 0.961 . S
H480 C464 0.931 . S
H481 C469 0.930 . S
H482 C470 0.956 . S
H483 C470 0.961 . S
H484 C470 0.961 . S
H485 C471 0.958 . S
H486 C471 0.961 . S
H487 C471 0.960 . S
C488 C489 1.391 . S
C488 C490 1.394 . S
C488 H504 0.931 . S
C489 C488 1.391 . S
C489 C493 1.376 . S
C490 C488 1.394 . S
C490 C491 1.369 . S
C490 C494 1.531 . S
C491 C490 1.369 . S
C491 C492 1.410 . S
C491 C499 1.503 . S
C492 C491 1.410 . S
C492 C493 1.392 . S
C492 C495 1.511 . S
C493 C489 1.376 . S
C493 C492 1.392 . S
C493 H505 0.929 . S
C494 C490 1.531 . S
C494 H506 0.960 . S
C494 H507 0.962 . S
C494 H508 0.960 . S
C495 C492 1.511 . S
C495 H509 0.961 . S
C495 H510 0.961 . S
C495 H511 0.961 . S
C496 C497 1.370 . S
C496 C498 1.363 . S
C496 H512 0.931 . S
C497 C496 1.370 . S
C497 C501 1.408 . S
C498 C496 1.363 . S
C498 C499 1.370 . S
C498 C502 1.524 . S
C499 C491 1.503 . S
C499 C498 1.370 . S
C499 C500 1.403 . S
C500 C499 1.403 . S
C500 C501 1.404 . S
C500 C503 1.539 . S
C501 C497 1.408 . S
C501 C500 1.404 . S
C501 H513 0.930 . S
C502 C498 1.524 . S
C502 H514 0.956 . S
C502 H515 0.961 . S
C502 H516 0.961 . S
C503 C500 1.539 . S
C503 H517 0.958 . S
C503 H518 0.961 . S
C503 H519 0.960 . S
H504 C488 0.931 . S
H505 C493 0.929 . S
H506 C494 0.960 . S
H507 C494 0.962 . S
H508 C494 0.960 . S
H509 C495 0.961 . S
H510 C495 0.961 . S
H511 C495 0.961 . S
H512 C496 0.931 . S
H513 C501 0.930 . S
H514 C502 0.956 . S
H515 C502 0.961 . S
H516 C502 0.961 . S
H517 C503 0.958 . S
H518 C503 0.961 . S
H519 C503 0.960 . S
C520 C521 1.391 . S
C520 C522 1.394 . S
C520 H536 0.931 . S
C521 C520 1.391 . S
C521 C525 1.376 . S
C522 C520 1.394 . S
C522 C523 1.369 . S
C522 C526 1.531 1_455 S
C523 C522 1.369 . S
C523 C524 1.410 . S
C523 C531 1.503 . S
C524 C523 1.410 . S
C524 C525 1.392 . S
C524 C527 1.511 . S
C525 C521 1.376 . S
C525 C524 1.392 . S
C525 H537 0.929 . S
C526 C522 1.531 1_655 S
C526 H538 0.960 . S
C526 H539 0.962 . S
C526 H540 0.960 . S
C527 C524 1.511 . S
C527 H541 0.961 . S
C527 H542 0.961 . S
C527 H543 0.961 . S
C528 C529 1.370 . S
C528 C530 1.363 . S
C528 H544 0.931 . S
C529 C528 1.370 . S
C529 C533 1.408 . S
C530 C528 1.363 . S
C530 C531 1.370 . S
C530 C534 1.524 . S
C531 C523 1.503 . S
C531 C530 1.370 . S
C531 C532 1.403 . S
C532 C531 1.403 . S
C532 C533 1.404 . S
C532 C535 1.539 . S
C533 C529 1.408 . S
C533 C532 1.404 . S
C533 H545 0.930 . S
C534 C530 1.524 . S
C534 H546 0.956 . S
C534 H547 0.961 . S
C534 H548 0.961 . S
C535 C532 1.539 . S
C535 H549 0.958 . S
C535 H550 0.961 . S
C535 H551 0.960 . S
H536 C520 0.931 . S
H537 C525 0.929 . S
H538 C526 0.960 . S
H539 C526 0.962 . S
H540 C526 0.960 . S
H541 C527 0.961 . S
H542 C527 0.961 . S
H543 C527 0.961 . S
H544 C528 0.931 . S
H545 C533 0.930 . S
H546 C534 0.956 . S
H547 C534 0.961 . S
H548 C534 0.961 . S
H549 C535 0.958 . S
H550 C535 0.961 . S
H551 C535 0.960 . S
C552 C553 1.391 . S
C552 C554 1.394 . S
C552 H568 0.931 . S
C553 C552 1.391 . S
C553 C557 1.376 . S
C554 C552 1.394 . S
C554 C555 1.369 . S
C554 C558 1.531 . S
C555 C554 1.369 . S
C555 C556 1.410 . S
C555 C563 1.503 1_554 S
C556 C555 1.410 . S
C556 C557 1.392 . S
C556 C559 1.511 1_565 S
C557 C553 1.376 . S
C557 C556 1.392 . S
C557 H569 0.929 1_565 S
C558 C554 1.531 . S
C558 H570 0.960 1_554 S
C558 H571 0.962 . S
C558 H572 0.960 . S
C559 C556 1.511 1_545 S
C559 H573 0.961 . S
C559 H574 0.961 1_554 S
C559 H575 0.961 1_554 S
C560 C561 1.370 . S
C560 C562 1.363 . S
C560 H576 0.931 . S
C561 C560 1.370 . S
C561 C565 1.408 . S
C562 C560 1.363 . S
C562 C563 1.370 . S
C562 C566 1.524 1_556 S
C563 C555 1.503 1_556 S
C563 C562 1.370 . S
C563 C564 1.403 . S
C564 C563 1.403 . S
C564 C565 1.404 . S
C564 C567 1.539 . S
C565 C561 1.408 . S
C565 C564 1.404 . S
C565 H577 0.930 . S
C566 C562 1.524 1_554 S
C566 H578 0.956 . S
C566 H579 0.961 1_565 S
C566 H580 0.961 . S
C567 C564 1.539 . S
C567 H581 0.958 . S
C567 H582 0.961 . S
C567 H583 0.960 . S
H568 C552 0.931 . S
H569 C557 0.929 1_545 S
H570 C558 0.960 1_556 S
H571 C558 0.962 . S
H572 C558 0.960 . S
H573 C559 0.961 . S
H574 C559 0.961 1_556 S
H575 C559 0.961 1_556 S
H576 C560 0.931 . S
H577 C565 0.930 . S
H578 C566 0.956 . S
H579 C566 0.961 1_545 S
H580 C566 0.961 . S
H581 C567 0.958 . S
H582 C567 0.961 . S
H583 C567 0.960 . S
C584 C585 1.391 . S
C584 C586 1.394 . S
C584 H600 0.931 . S
C585 C584 1.391 . S
C585 C589 1.376 . S
C586 C584 1.394 . S
C586 C587 1.369 . S
C586 C590 1.531 1_554 S
C587 C586 1.369 . S
C587 C588 1.410 . S
C587 C595 1.503 1_554 S
C588 C587 1.410 . S
C588 C589 1.392 . S
C588 C591 1.511 . S
C589 C585 1.376 . S
C589 C588 1.392 . S
C589 H601 0.929 . S
C590 C586 1.531 1_556 S
C590 H602 0.960 . S
C590 H603 0.962 . S
C590 H604 0.960 . S
C591 C588 1.511 . S
C591 H605 0.961 . S
C591 H606 0.961 . S
C591 H607 0.961 . S
C592 C593 1.370 . S
C592 C594 1.363 . S
C592 H608 0.931 . S
C593 C592 1.370 . S
C593 C597 1.408 . S
C594 C592 1.363 . S
C594 C595 1.370 . S
C594 C598 1.524 1_556 S
C595 C587 1.503 1_556 S
C595 C594 1.370 . S
C595 C596 1.403 . S
C596 C595 1.403 . S
C596 C597 1.404 . S
C596 C599 1.539 . S
C597 C593 1.408 . S
C597 C596 1.404 . S
C597 H609 0.930 . S
C598 C594 1.524 1_554 S
C598 H610 0.956 . S
C598 H611 0.961 . S
C598 H612 0.961 . S
C599 C596 1.539 . S
C599 H613 0.958 . S
C599 H614 0.961 . S
C599 H615 0.960 . S
H600 C584 0.931 . S
H601 C589 0.929 . S
H602 C590 0.960 . S
H603 C590 0.962 . S
H604 C590 0.960 . S
H605 C591 0.961 . S
H606 C591 0.961 . S
H607 C591 0.961 . S
H608 C592 0.931 . S
H609 C597 0.930 . S
H610 C598 0.956 . S
H611 C598 0.961 . S
H612 C598 0.961 . S
H613 C599 0.958 . S
H614 C599 0.961 . S
H615 C599 0.960 . S
C616 C617 1.391 . S
C616 C618 1.394 . S
C616 H632 0.931 . S
C617 C616 1.391 . S
C617 C621 1.376 . S
C618 C616 1.394 . S
C618 C619 1.369 . S
C618 C622 1.531 . S
C619 C618 1.369 . S
C619 C620 1.410 . S
C619 C627 1.503 1_554 S
C620 C619 1.410 . S
C620 C621 1.392 . S
C620 C623 1.511 1_554 S
C621 C617 1.376 . S
C621 C620 1.392 . S
C621 H633 0.929 . S
C622 C618 1.531 . S
C622 H634 0.960 . S
C622 H635 0.962 . S
C622 H636 0.960 . S
C623 C620 1.511 1_556 S
C623 H637 0.961 . S
C623 H638 0.961 . S
C623 H639 0.961 . S
C624 C625 1.370 . S
C624 C626 1.363 . S
C624 H640 0.931 . S
C625 C624 1.370 . S
C625 C629 1.408 . S
C626 C624 1.363 . S
C626 C627 1.370 . S
C626 C630 1.524 1_556 S
C627 C619 1.503 1_556 S
C627 C626 1.370 . S
C627 C628 1.403 . S
C628 C627 1.403 . S
C628 C629 1.404 . S
C628 C631 1.539 . S
C629 C625 1.408 . S
C629 C628 1.404 . S
C629 H641 0.930 . S
C630 C626 1.524 1_554 S
C630 H642 0.956 . S
C630 H643 0.961 . S
C630 H644 0.961 1_554 S
C631 C628 1.539 . S
C631 H645 0.958 . S
C631 H646 0.961 . S
C631 H647 0.960 . S
H632 C616 0.931 . S
H633 C621 0.929 . S
H634 C622 0.960 . S
H635 C622 0.962 . S
H636 C622 0.960 . S
H637 C623 0.961 . S
H638 C623 0.961 . S
H639 C623 0.961 . S
H640 C624 0.931 . S
H641 C629 0.930 . S
H642 C630 0.956 . S
H643 C630 0.961 . S
H644 C630 0.961 1_556 S
H645 C631 0.958 . S
H646 C631 0.961 . S
H647 C631 0.960 . S
C648 C649 1.391 . S
C648 C650 1.394 . S
C648 H664 0.931 . S
C649 C648 1.391 . S
C649 C653 1.376 . S
C650 C648 1.394 . S
C650 C651 1.369 . S
C650 C654 1.531 1_554 S
C651 C650 1.369 . S
C651 C652 1.410 . S
C651 C659 1.503 1_554 S
C652 C651 1.410 . S
C652 C653 1.392 . S
C652 C655 1.511 1_655 S
C653 C649 1.376 . S
C653 C652 1.392 . S
C653 H665 0.929 . S
C654 C650 1.531 1_556 S
C654 H666 0.960 . S
C654 H667 0.962 1_556 S
C654 H668 0.961 . S
C655 C652 1.511 1_455 S
C655 H669 0.961 . S
C655 H670 0.961 . S
C655 H671 0.961 1_554 S
C656 C657 1.370 . S
C656 C658 1.363 . S
C656 H672 0.931 . S
C657 C656 1.370 . S
C657 C661 1.408 . S
C658 C656 1.363 . S
C658 C659 1.370 . S
C658 C662 1.524 1_556 S
C659 C651 1.503 1_556 S
C659 C658 1.370 . S
C659 C660 1.403 . S
C660 C659 1.403 . S
C660 C661 1.404 . S
C660 C663 1.539 . S
C661 C657 1.408 . S
C661 C660 1.404 . S
C661 H673 0.930 . S
C662 C658 1.524 1_554 S
C662 H674 0.956 . S
C662 H675 0.961 . S
C662 H676 0.961 . S
C663 C660 1.539 . S
C663 H677 0.958 . S
C663 H678 0.961 . S
C663 H679 0.960 . S
H664 C648 0.931 . S
H665 C653 0.929 . S
H666 C654 0.960 . S
H667 C654 0.962 1_554 S
H668 C654 0.961 . S
H669 C655 0.961 . S
H670 C655 0.961 . S
H671 C655 0.961 1_556 S
H672 C656 0.931 . S
H673 C661 0.930 . S
H674 C662 0.956 . S
H675 C662 0.961 . S
H676 C662 0.961 . S
H677 C663 0.958 . S
H678 C663 0.961 . S
H679 C663 0.960 . S
C680 C681 1.391 . S
C680 C682 1.394 . S
C680 H696 0.931 . S
C681 C680 1.391 . S
C681 C685 1.376 . S
C682 C680 1.394 . S
C682 C683 1.369 . S
C682 C686 1.531 . S
C683 C682 1.369 . S
C683 C684 1.410 . S
C683 C691 1.503 . S
C684 C683 1.410 . S
C684 C685 1.392 . S
C684 C687 1.511 1_455 S
C685 C681 1.376 . S
C685 C684 1.392 . S
C685 H697 0.929 . S
C686 C682 1.531 . S
C686 H698 0.960 . S
C686 H699 0.962 . S
C686 H700 0.960 . S
C687 C684 1.511 1_655 S
C687 H701 0.961 . S
C687 H702 0.961 . S
C687 H703 0.961 . S
C688 C689 1.370 . S
C688 C690 1.363 . S
C688 H704 0.931 . S
C689 C688 1.370 . S
C689 C693 1.408 . S
C690 C688 1.363 . S
C690 C691 1.370 . S
C690 C694 1.524 . S
C691 C683 1.503 . S
C691 C690 1.370 . S
C691 C692 1.403 . S
C692 C691 1.403 . S
C692 C693 1.404 . S
C692 C695 1.539 . S
C693 C689 1.408 . S
C693 C692 1.404 . S
C693 H705 0.930 . S
C694 C690 1.524 . S
C694 H706 0.956 . S
C694 H707 0.961 . S
C694 H708 0.961 . S
C695 C692 1.539 . S
C695 H709 0.958 . S
C695 H710 0.961 . S
C695 H711 0.960 . S
H696 C680 0.931 . S
H697 C685 0.929 . S
H698 C686 0.960 . S
H699 C686 0.962 . S
H700 C686 0.960 . S
H701 C687 0.961 . S
H702 C687 0.961 . S
H703 C687 0.961 . S
H704 C688 0.931 . S
H705 C693 0.930 . S
H706 C694 0.956 . S
H707 C694 0.961 . S
H708 C694 0.961 . S
H709 C695 0.958 . S
H710 C695 0.961 . S
H711 C695 0.960 . S
C712 C713 1.391 . S
C712 C714 1.394 . S
C712 H728 0.931 . S
C713 C712 1.391 . S
C713 C717 1.376 . S
C714 C712 1.394 . S
C714 C715 1.369 . S
C714 C718 1.531 . S
C715 C714 1.369 . S
C715 C716 1.410 . S
C715 C723 1.503 . S
C716 C715 1.410 . S
C716 C717 1.392 . S
C716 C719 1.511 1_545 S
C717 C713 1.376 . S
C717 C716 1.392 . S
C717 H729 0.929 . S
C718 C714 1.531 . S
C718 H730 0.960 . S
C718 H731 0.962 . S
C718 H732 0.960 . S
C719 C716 1.511 1_565 S
C719 H733 0.961 . S
C719 H734 0.961 . S
C719 H735 0.961 . S
C720 C721 1.370 . S
C720 C722 1.363 . S
C720 H736 0.931 . S
C721 C720 1.370 . S
C721 C725 1.408 . S
C722 C720 1.363 . S
C722 C723 1.370 . S
C722 C726 1.524 . S
C723 C715 1.503 . S
C723 C722 1.370 . S
C723 C724 1.403 . S
C724 C723 1.403 . S
C724 C725 1.404 . S
C724 C727 1.539 . S
C725 C721 1.408 . S
C725 C724 1.404 . S
C725 H737 0.930 1_545 S
C726 C722 1.524 . S
C726 H738 0.956 . S
C726 H739 0.961 . S
C726 H740 0.961 . S
C727 C724 1.539 . S
C727 H741 0.958 . S
C727 H742 0.961 1_545 S
C727 H743 0.960 . S
H728 C712 0.931 . S
H729 C717 0.929 . S
H730 C718 0.960 . S
H731 C718 0.962 . S
H732 C718 0.960 . S
H733 C719 0.961 . S
H734 C719 0.961 . S
H735 C719 0.961 . S
H736 C720 0.931 . S
H737 C725 0.930 1_565 S
H738 C726 0.956 . S
H739 C726 0.961 . S
H740 C726 0.961 . S
H741 C727 0.958 . S
H742 C727 0.961 1_565 S
H743 C727 0.960 . S
C744 C745 1.391 . S
C744 C746 1.394 . S
C744 H760 0.931 . S
C745 C744 1.391 . S
C745 C749 1.376 . S
C746 C744 1.394 . S
C746 C747 1.369 . S
C746 C750 1.531 . S
C747 C746 1.369 . S
C747 C748 1.410 . S
C747 C755 1.503 . S
C748 C747 1.410 . S
C748 C749 1.392 . S
C748 C751 1.511 . S
C749 C745 1.376 . S
C749 C748 1.392 . S
C749 H761 0.929 . S
C750 C746 1.531 . S
C750 H762 0.960 . S
C750 H763 0.962 . S
C750 H764 0.960 . S
C751 C748 1.511 . S
C751 H765 0.961 . S
C751 H766 0.961 . S
C751 H767 0.961 . S
C752 C753 1.370 . S
C752 C754 1.363 . S
C752 H768 0.931 . S
C753 C752 1.370 . S
C753 C757 1.408 . S
C754 C752 1.363 . S
C754 C755 1.370 . S
C754 C758 1.524 . S
C755 C747 1.503 . S
C755 C754 1.370 . S
C755 C756 1.403 . S
C756 C755 1.403 . S
C756 C757 1.404 . S
C756 C759 1.539 . S
C757 C753 1.408 . S
C757 C756 1.404 . S
C757 H769 0.930 . S
C758 C754 1.524 . S
C758 H770 0.956 . S
C758 H771 0.961 . S
C758 H772 0.961 . S
C759 C756 1.539 . S
C759 H773 0.958 . S
C759 H774 0.961 . S
C759 H775 0.960 . S
H760 C744 0.931 . S
H761 C749 0.929 . S
H762 C750 0.960 . S
H763 C750 0.962 . S
H764 C750 0.960 . S
H765 C751 0.961 . S
H766 C751 0.961 . S
H767 C751 0.961 . S
H768 C752 0.931 . S
H769 C757 0.930 . S
H770 C758 0.956 . S
H771 C758 0.961 . S
H772 C758 0.961 . S
H773 C759 0.958 . S
H774 C759 0.961 . S
H775 C759 0.960 . S
C776 C777 1.391 . S
C776 C778 1.394 . S
C776 H792 0.931 . S
C777 C776 1.391 . S
C777 C781 1.376 . S
C778 C776 1.394 . S
C778 C779 1.369 . S
C778 C782 1.531 . S
C779 C778 1.369 . S
C779 C780 1.410 . S
C779 C787 1.503 . S
C780 C779 1.410 . S
C780 C781 1.392 . S
C780 C783 1.511 . S
C781 C777 1.376 . S
C781 C780 1.392 . S
C781 H793 0.929 . S
C782 C778 1.531 . S
C782 H794 0.960 . S
C782 H795 0.962 . S
C782 H796 0.960 . S
C783 C780 1.511 . S
C783 H797 0.961 . S
C783 H798 0.961 . S
C783 H799 0.961 . S
C784 C785 1.370 . S
C784 C786 1.363 . S
C784 H800 0.931 . S
C785 C784 1.370 . S
C785 C789 1.408 . S
C786 C784 1.363 . S
C786 C787 1.370 . S
C786 C790 1.524 . S
C787 C779 1.503 . S
C787 C786 1.370 . S
C787 C788 1.403 . S
C788 C787 1.403 . S
C788 C789 1.404 . S
C788 C791 1.539 . S
C789 C785 1.408 . S
C789 C788 1.404 . S
C789 H801 0.930 . S
C790 C786 1.524 . S
C790 H802 0.956 . S
C790 H803 0.961 . S
C790 H804 0.961 . S
C791 C788 1.539 . S
C791 H805 0.958 . S
C791 H806 0.961 . S
C791 H807 0.960 . S
H792 C776 0.931 . S
H793 C781 0.929 . S
H794 C782 0.960 . S
H795 C782 0.962 . S
H796 C782 0.960 . S
H797 C783 0.961 . S
H798 C783 0.961 . S
H799 C783 0.961 . S
H800 C784 0.931 . S
H801 C789 0.930 . S
H802 C790 0.956 . S
H803 C790 0.961 . S
H804 C790 0.961 . S
H805 C791 0.958 . S
H806 C791 0.961 . S
H807 C791 0.960 . S
C808 C809 1.391 . S
C808 C810 1.394 . S
C808 H824 0.931 . S
C809 C808 1.391 . S
C809 C813 1.376 . S
C810 C808 1.394 . S
C810 C811 1.369 . S
C810 C814 1.531 . S
C811 C810 1.369 . S
C811 C812 1.410 . S
C811 C819 1.503 . S
C812 C811 1.410 . S
C812 C813 1.392 . S
C812 C815 1.512 . S
C813 C809 1.376 . S
C813 C812 1.392 . S
C813 H825 0.929 . S
C814 C810 1.531 . S
C814 H826 0.960 . S
C814 H827 0.962 . S
C814 H828 0.960 . S
C815 C812 1.512 . S
C815 H829 0.961 1_554 S
C815 H830 0.961 1_554 S
C815 H831 0.960 1_655 S
C816 C817 1.370 1_655 S
C816 C818 1.363 1_556 S
C816 H832 0.931 . S
C817 C816 1.370 1_455 S
C817 C821 1.408 1_556 S
C818 C816 1.363 1_554 S
C818 C819 1.370 . S
C818 C822 1.524 1_554 S
C819 C811 1.503 . S
C819 C818 1.370 . S
C819 C820 1.403 1_655 S
C820 C819 1.403 1_455 S
C820 C821 1.404 . S
C820 C823 1.539 . S
C821 C817 1.408 1_554 S
C821 C820 1.404 . S
C821 H833 0.930 . S
C822 C818 1.524 1_556 S
C822 H834 0.956 1_556 S
C822 H835 0.961 . S
C822 H836 0.961 . S
C823 C820 1.539 . S
C823 H837 0.958 . S
C823 H838 0.961 . S
C823 H839 0.960 . S
H824 C808 0.931 . S
H825 C813 0.929 . S
H826 C814 0.960 . S
H827 C814 0.962 . S
H828 C814 0.960 . S
H829 C815 0.961 1_556 S
H830 C815 0.961 1_556 S
H831 C815 0.960 1_455 S
H832 C816 0.931 . S
H833 C821 0.930 . S
H834 C822 0.956 1_554 S
H835 C822 0.961 . S
H836 C822 0.961 . S
H837 C823 0.958 . S
H838 C823 0.961 . S
H839 C823 0.960 . S
C840 C841 1.391 . S
C840 C842 1.394 . S
C840 H856 0.931 . S
C841 C840 1.391 . S
C841 C845 1.376 . S
C842 C840 1.394 . S
C842 C843 1.369 . S
C842 C846 1.531 . S
C843 C842 1.369 . S
C843 C844 1.410 . S
C843 C851 1.503 . S
C844 C843 1.410 . S
C844 C845 1.392 . S
C844 C847 1.511 1_565 S
C845 C841 1.376 . S
C845 C844 1.392 . S
C845 H857 0.929 . S
C846 C842 1.531 . S
C846 H858 0.960 . S
C846 H859 0.962 . S
C846 H860 0.960 . S
C847 C844 1.511 1_545 S
C847 H861 0.961 . S
C847 H862 0.961 . S
C847 H863 0.961 . S
C848 C849 1.370 1_565 S
C848 C850 1.363 1_556 S
C848 H864 0.931 . S
C849 C848 1.370 1_545 S
C849 C853 1.408 1_556 S
C850 C848 1.363 1_554 S
C850 C851 1.370 . S
C850 C854 1.524 1_554 S
C851 C843 1.503 . S
C851 C850 1.370 . S
C851 C852 1.403 1_565 S
C852 C851 1.403 1_545 S
C852 C853 1.404 . S
C852 C855 1.539 . S
C853 C849 1.408 1_554 S
C853 C852 1.404 . S
C853 H865 0.930 . S
C854 C850 1.524 1_556 S
C854 H866 0.956 . S
C854 H867 0.961 . S
C854 H868 0.961 . S
C855 C852 1.539 . S
C855 H869 0.958 . S
C855 H870 0.961 . S
C855 H871 0.960 . S
H856 C840 0.931 . S
H857 C845 0.929 . S
H858 C846 0.960 . S
H859 C846 0.962 . S
H860 C846 0.960 . S
H861 C847 0.961 . S
H862 C847 0.961 . S
H863 C847 0.961 . S
H864 C848 0.931 . S
H865 C853 0.930 . S
H866 C854 0.956 . S
H867 C854 0.961 . S
H868 C854 0.961 . S
H869 C855 0.958 . S
H870 C855 0.961 . S
H871 C855 0.960 . S
C872 C873 1.391 . S
C872 C874 1.394 . S
C872 H888 0.931 . S
C873 C872 1.391 . S
C873 C877 1.376 . S
C874 C872 1.394 . S
C874 C875 1.369 . S
C874 C878 1.531 . S
C875 C874 1.369 . S
C875 C876 1.410 . S
C875 C883 1.503 . S
C876 C875 1.410 . S
C876 C877 1.392 . S
C876 C879 1.511 . S
C877 C873 1.376 . S
C877 C876 1.392 . S
C877 H889 0.929 . S
C878 C874 1.531 . S
C878 H890 0.960 . S
C878 H891 0.962 . S
C878 H892 0.960 . S
C879 C876 1.511 . S
C879 H893 0.961 . S
C879 H894 0.961 . S
C879 H895 0.961 . S
C880 C881 1.370 . S
C880 C882 1.363 . S
C880 H896 0.931 . S
C881 C880 1.370 . S
C881 C885 1.409 1_554 S
C882 C880 1.363 . S
C882 C883 1.370 . S
C882 C886 1.524 . S
C883 C875 1.503 . S
C883 C882 1.370 . S
C883 C884 1.403 1_554 S
C884 C883 1.403 1_556 S
C884 C885 1.404 . S
C884 C887 1.539 . S
C885 C881 1.409 1_556 S
C885 C884 1.404 . S
C885 H897 0.930 . S
C886 C882 1.524 . S
C886 H898 0.956 . S
C886 H899 0.961 . S
C886 H900 0.961 . S
C887 C884 1.539 . S
C887 H901 0.958 . S
C887 H902 0.961 . S
C887 H903 0.960 . S
H888 C872 0.931 . S
H889 C877 0.929 . S
H890 C878 0.960 . S
H891 C878 0.962 . S
H892 C878 0.960 . S
H893 C879 0.961 . S
H894 C879 0.961 . S
H895 C879 0.961 . S
H896 C880 0.931 . S
H897 C885 0.930 . S
H898 C886 0.956 . S
H899 C886 0.961 . S
H900 C886 0.961 . S
H901 C887 0.958 . S
H902 C887 0.961 . S
H903 C887 0.960 . S
C904 C905 1.391 . S
C904 C906 1.394 . S
C904 H920 0.931 . S
C905 C904 1.391 . S
C905 C909 1.376 . S
C906 C904 1.394 . S
C906 C907 1.369 . S
C906 C910 1.531 1_554 S
C907 C906 1.369 . S
C907 C908 1.410 . S
C907 C915 1.503 . S
C908 C907 1.410 . S
C908 C909 1.392 . S
C908 C911 1.511 . S
C909 C905 1.376 . S
C909 C908 1.392 . S
C909 H921 0.929 . S
C910 C906 1.531 1_556 S
C910 H922 0.960 . S
C910 H923 0.962 . S
C910 H924 0.960 . S
C911 C908 1.511 . S
C911 H925 0.961 . S
C911 H926 0.961 . S
C911 H927 0.961 . S
C912 C913 1.370 . S
C912 C914 1.363 . S
C912 H928 0.931 . S
C913 C912 1.370 . S
C913 C917 1.408 1_554 S
C914 C912 1.363 . S
C914 C915 1.370 . S
C914 C918 1.524 . S
C915 C907 1.503 . S
C915 C914 1.370 . S
C915 C916 1.403 . S
C916 C915 1.403 . S
C916 C917 1.404 1_554 S
C916 C919 1.539 1_554 S
C917 C913 1.408 1_556 S
C917 C916 1.404 1_556 S
C917 H929 0.930 . S
C918 C914 1.524 . S
C918 H930 0.956 . S
C918 H931 0.961 . S
C918 H932 0.961 . S
C919 C916 1.539 1_556 S
C919 H933 0.958 . S
C919 H934 0.961 . S
C919 H935 0.960 1_556 S
H920 C904 0.931 . S
H921 C909 0.929 . S
H922 C910 0.960 . S
H923 C910 0.962 . S
H924 C910 0.960 . S
H925 C911 0.961 . S
H926 C911 0.961 . S
H927 C911 0.961 . S
H928 C912 0.931 . S
H929 C917 0.930 . S
H930 C918 0.956 . S
H931 C918 0.961 . S
H932 C918 0.961 . S
H933 C919 0.958 . S
H934 C919 0.961 . S
H935 C919 0.960 1_554 S
C936 C937 1.391 . S
C936 C938 1.394 . S
C936 H952 0.931 . S
C937 C936 1.391 . S
C937 C941 1.376 . S
C938 C936 1.394 . S
C938 C939 1.369 . S
C938 C942 1.531 . S
C939 C938 1.369 . S
C939 C940 1.410 . S
C939 C947 1.503 . S
C940 C939 1.410 . S
C940 C941 1.392 . S
C940 C943 1.511 . S
C941 C937 1.376 . S
C941 C940 1.392 . S
C941 H953 0.929 . S
C942 C938 1.531 . S
C942 H954 0.960 . S
C942 H955 0.962 . S
C942 H956 0.960 1_556 S
C943 C940 1.511 . S
C943 H957 0.961 . S
C943 H958 0.961 . S
C943 H959 0.961 1_455 S
C944 C945 1.370 . S
C944 C946 1.363 . S
C944 H960 0.931 . S
C945 C944 1.370 . S
C945 C949 1.408 . S
C946 C944 1.363 . S
C946 C947 1.370 . S
C946 C950 1.524 . S
C947 C939 1.503 . S
C947 C946 1.370 . S
C947 C948 1.403 . S
C948 C947 1.403 . S
C948 C949 1.404 . S
C948 C951 1.539 1_455 S
C949 C945 1.408 . S
C949 C948 1.404 . S
C949 H961 0.900 1_455 S
C950 C946 1.524 . S
C950 H962 0.956 . S
C950 H963 0.961 . S
C950 H964 0.961 . S
C951 C948 1.539 1_655 S
C951 H965 0.948 1_655 S
C951 H966 0.961 . S
C951 H967 0.960 . S
H952 C936 0.931 . S
H953 C941 0.929 . S
H954 C942 0.960 . S
H955 C942 0.962 . S
H956 C942 0.960 1_554 S
H957 C943 0.961 . S
H958 C943 0.961 . S
H959 C943 0.961 1_655 S
H960 C944 0.931 . S
H961 C949 0.900 1_655 S
H962 C950 0.956 . S
H963 C950 0.961 . S
H964 C950 0.961 . S
H965 C951 0.948 1_455 S
H966 C951 0.961 . S
H967 C951 0.960 . S
C968 C969 1.391 . S
C968 C970 1.394 . S
C968 H984 0.931 . S
C969 C968 1.391 . S
C969 C973 1.376 . S
C970 C968 1.394 . S
C970 C971 1.369 . S
C970 C974 1.531 . S
C971 C970 1.369 . S
C971 C972 1.410 . S
C971 C979 1.503 . S
C972 C971 1.410 . S
C972 C973 1.392 . S
C972 C975 1.511 1_545 S
C973 C969 1.376 . S
C973 C972 1.392 . S
C973 H985 0.929 . S
C974 C970 1.531 . S
C974 H986 0.960 . S
C974 H987 0.962 . S
C974 H988 0.960 . S
C975 C972 1.511 1_565 S
C975 H989 0.961 . S
C975 H990 0.961 . S
C975 H991 0.961 . S
C976 C977 1.370 . S
C976 C978 1.363 . S
C976 H992 0.931 . S
C977 C976 1.370 . S
C977 C981 1.408 . S
C978 C976 1.363 . S
C978 C979 1.370 . S
C978 C982 1.524 . S
C979 C971 1.503 . S
C979 C978 1.370 . S
C979 C980 1.403 . S
C980 C979 1.403 . S
C980 C981 1.404 . S
C980 C983 1.539 . S
C981 C977 1.408 . S
C981 C980 1.404 . S
C981 H993 0.930 . S
C982 C978 1.524 . S
C982 H994 0.956 . S
C982 H995 0.961 . S
C982 H996 0.961 . S
C983 C980 1.539 . S
C983 H997 0.958 . S
C983 H998 0.961 . S
C983 H999 0.960 . S
H984 C968 0.931 . S
H985 C973 0.929 . S
H986 C974 0.960 . S
H987 C974 0.962 . S
H988 C974 0.960 . S
H989 C975 0.961 . S
H990 C975 0.961 . S
H991 C975 0.961 . S
H992 C976 0.931 . S
H993 C981 0.930 . S
H994 C982 0.956 . S
H995 C982 0.961 . S
H996 C982 0.961 . S
H997 C983 0.958 . S
H998 C983 0.961 . S
H999 C983 0.960 . S
C1000 C1001 1.391 . S
C1000 C1002 1.394 . S
C1000 H1016 0.931 . S
C1001 C1000 1.391 . S
C1001 C1005 1.376 . S
C1002 C1000 1.394 . S
C1002 C1003 1.369 . S
C1002 C1006 1.531 . S
C1003 C1002 1.369 . S
C1003 C1004 1.410 . S
C1003 C1011 1.503 . S
C1004 C1003 1.410 . S
C1004 C1005 1.392 . S
C1004 C1007 1.511 . S
C1005 C1001 1.376 . S
C1005 C1004 1.392 . S
C1005 H1017 0.929 . S
C1006 C1002 1.531 . S
C1006 H1018 0.960 . S
C1006 H1019 0.962 . S
C1006 H1020 0.960 . S
C1007 C1004 1.511 . S
C1007 H1021 0.961 1_556 S
C1007 H1022 0.961 . S
C1007 H1023 0.961 . S
C1008 C1009 1.370 . S
C1008 C1010 1.363 . S
C1008 H1024 0.931 . S
C1009 C1008 1.370 . S
C1009 C1013 1.408 . S
C1010 C1008 1.363 . S
C1010 C1011 1.370 . S
C1010 C1014 1.524 . S
C1011 C1003 1.503 . S
C1011 C1010 1.370 . S
C1011 C1012 1.403 . S
C1012 C1011 1.403 . S
C1012 C1013 1.404 . S
C1012 C1015 1.539 . S
C1013 C1009 1.408 . S
C1013 C1012 1.404 . S
C1013 H1025 0.930 . S
C1014 C1010 1.524 . S
C1014 H1026 0.956 . S
C1014 H1027 0.961 . S
C1014 H1028 0.961 . S
C1015 C1012 1.539 . S
C1015 H1029 0.958 . S
C1015 H1030 0.961 . S
C1015 H1031 0.960 . S
H1016 C1000 0.931 . S
H1017 C1005 0.929 . S
H1018 C1006 0.960 . S
H1019 C1006 0.962 . S
H1020 C1006 0.960 . S
H1021 C1007 0.961 1_554 S
H1022 C1007 0.961 . S
H1023 C1007 0.961 . S
H1024 C1008 0.931 . S
H1025 C1013 0.930 . S
H1026 C1014 0.956 . S
H1027 C1014 0.961 . S
H1028 C1014 0.961 . S
H1029 C1015 0.958 . S
H1030 C1015 0.961 . S
H1031 C1015 0.960 . S
C1032 C1033 1.391 . S
C1032 C1034 1.394 . S
C1032 H1048 0.931 . S
C1033 C1032 1.391 . S
C1033 C1037 1.376 . S
C1034 C1032 1.394 . S
C1034 C1035 1.369 . S
C1034 C1038 1.531 . S
C1035 C1034 1.369 . S
C1035 C1036 1.410 . S
C1035 C1043 1.503 . S
C1036 C1035 1.410 . S
C1036 C1037 1.392 . S
C1036 C1039 1.511 . S
C1037 C1033 1.376 . S
C1037 C1036 1.392 . S
C1037 H1049 0.929 . S
C1038 C1034 1.531 . S
C1038 H1050 0.960 . S
C1038 H1051 0.962 . S
C1038 H1052 0.960 1_556 S
C1039 C1036 1.511 . S
C1039 H1053 0.961 . S
C1039 H1054 0.961 . S
C1039 H1055 0.961 . S
C1040 C1041 1.370 . S
C1040 C1042 1.363 . S
C1040 H1056 0.931 . S
C1041 C1040 1.370 . S
C1041 C1045 1.408 . S
C1042 C1040 1.363 . S
C1042 C1043 1.370 . S
C1042 C1046 1.524 . S
C1043 C1035 1.503 . S
C1043 C1042 1.370 . S
C1043 C1044 1.403 . S
C1044 C1043 1.403 . S
C1044 C1045 1.404 . S
C1044 C1047 1.539 . S
C1045 C1041 1.408 . S
C1045 C1044 1.404 . S
C1045 H1057 0.930 . S
C1046 C1042 1.524 . S
C1046 H1058 0.956 . S
C1046 H1059 0.961 . S
C1046 H1060 0.961 . S
C1047 C1044 1.539 . S
C1047 H1061 0.958 . S
C1047 H1062 0.961 . S
C1047 H1063 0.960 . S
H1048 C1032 0.931 . S
H1049 C1037 0.929 . S
H1050 C1038 0.960 . S
H1051 C1038 0.962 . S
H1052 C1038 0.960 1_554 S
H1053 C1039 0.961 . S
H1054 C1039 0.961 . S
H1055 C1039 0.961 . S
H1056 C1040 0.931 . S
H1057 C1045 0.930 . S
H1058 C1046 0.956 . S
H1059 C1046 0.961 . S
H1060 C1046 0.961 . S
H1061 C1047 0.958 . S
H1062 C1047 0.961 . S
H1063 C1047 0.960 . S
C1064 C1065 1.391 . S
C1064 C1066 1.394 . S
C1064 H1080 0.931 . S
C1065 C1064 1.391 . S
C1065 C1069 1.376 . S
C1066 C1064 1.394 . S
C1066 C1067 1.369 . S
C1066 C1070 1.531 . S
C1067 C1066 1.369 . S
C1067 C1068 1.410 . S
C1067 C1075 1.503 . S
C1068 C1067 1.410 . S
C1068 C1069 1.392 . S
C1068 C1071 1.511 . S
C1069 C1065 1.376 . S
C1069 C1068 1.392 . S
C1069 H1081 0.929 . S
C1070 C1066 1.531 . S
C1070 H1082 0.960 . S
C1070 H1083 0.962 1_655 S
C1070 H1084 0.960 . S
C1071 C1068 1.511 . S
C1071 H1085 0.961 . S
C1071 H1086 0.961 . S
C1071 H1087 0.961 . S
C1072 C1073 1.370 . S
C1072 C1074 1.363 . S
C1072 H1088 0.931 1_655 S
C1073 C1072 1.370 . S
C1073 C1077 1.408 . S
C1074 C1072 1.363 . S
C1074 C1075 1.370 . S
C1074 C1078 1.524 1_655 S
C1075 C1067 1.503 . S
C1075 C1074 1.370 . S
C1075 C1076 1.403 . S
C1076 C1075 1.403 . S
C1076 C1077 1.404 . S
C1076 C1079 1.539 . S
C1077 C1073 1.408 . S
C1077 C1076 1.404 . S
C1077 H1089 0.930 . S
C1078 C1074 1.524 1_455 S
C1078 H1090 0.956 . S
C1078 H1091 0.940 1_455 S
C1078 H1092 0.961 . S
C1079 C1076 1.539 . S
C1079 H1093 0.958 . S
C1079 H1094 0.961 . S
C1079 H1095 0.960 . S
H1080 C1064 0.931 . S
H1081 C1069 0.929 . S
H1082 C1070 0.960 . S
H1083 C1070 0.962 1_455 S
H1084 C1070 0.960 . S
H1085 C1071 0.961 . S
H1086 C1071 0.961 . S
H1087 C1071 0.961 . S
H1088 C1072 0.931 1_455 S
H1089 C1077 0.930 . S
H1090 C1078 0.956 . S
H1091 C1078 0.940 1_655 S
H1092 C1078 0.961 . S
H1093 C1079 0.958 . S
H1094 C1079 0.961 . S
H1095 C1079 0.960 . S
C1096 C1097 1.391 . S
C1096 C1098 1.394 . S
C1096 H1112 0.931 . S
C1097 C1096 1.391 . S
C1097 C1101 1.376 . S
C1098 C1096 1.394 . S
C1098 C1099 1.369 . S
C1098 C1102 1.531 . S
C1099 C1098 1.369 . S
C1099 C1100 1.410 . S
C1099 C1107 1.503 . S
C1100 C1099 1.410 . S
C1100 C1101 1.392 . S
C1100 C1103 1.511 1_565 S
C1101 C1097 1.376 . S
C1101 C1100 1.392 . S
C1101 H1113 0.929 1_565 S
C1102 C1098 1.531 . S
C1102 H1114 0.960 . S
C1102 H1115 0.962 . S
C1102 H1116 0.960 . S
C1103 C1100 1.511 1_545 S
C1103 H1117 0.961 . S
C1103 H1118 0.961 . S
C1103 H1119 0.961 . S
C1104 C1105 1.370 . S
C1104 C1106 1.363 . S
C1104 H1120 0.931 . S
C1105 C1104 1.370 . S
C1105 C1109 1.408 . S
C1106 C1104 1.363 . S
C1106 C1107 1.370 . S
C1106 C1110 1.524 . S
C1107 C1099 1.503 . S
C1107 C1106 1.370 . S
C1107 C1108 1.403 . S
C1108 C1107 1.403 . S
C1108 C1109 1.404 . S
C1108 C1111 1.539 . S
C1109 C1105 1.408 . S
C1109 C1108 1.404 . S
C1109 H1121 0.930 . S
C1110 C1106 1.524 . S
C1110 H1122 0.956 . S
C1110 H1123 0.961 . S
C1110 H1124 0.961 . S
C1111 C1108 1.539 . S
C1111 H1125 0.958 . S
C1111 H1126 0.961 . S
C1111 H1127 0.960 . S
H1112 C1096 0.931 . S
H1113 C1101 0.929 1_545 S
H1114 C1102 0.960 . S
H1115 C1102 0.962 . S
H1116 C1102 0.960 . S
H1117 C1103 0.961 . S
H1118 C1103 0.961 . S
H1119 C1103 0.961 . S
H1120 C1104 0.931 . S
H1121 C1109 0.930 . S
H1122 C1110 0.956 . S
H1123 C1110 0.961 . S
H1124 C1110 0.961 . S
H1125 C1111 0.958 . S
H1126 C1111 0.961 . S
H1127 C1111 0.960 . S
C1128 C1129 1.391 . S
C1128 C1130 1.394 . S
C1128 H1144 0.931 . S
C1129 C1128 1.391 . S
C1129 C1133 1.376 . S
C1130 C1128 1.394 . S
C1130 C1131 1.369 . S
C1130 C1134 1.531 . S
C1131 C1130 1.369 . S
C1131 C1132 1.410 . S
C1131 C1139 1.503 . S
C1132 C1131 1.410 . S
C1132 C1133 1.392 . S
C1132 C1135 1.511 . S
C1133 C1129 1.376 . S
C1133 C1132 1.392 . S
C1133 H1145 0.929 . S
C1134 C1130 1.531 . S
C1134 H1146 0.960 . S
C1134 H1147 0.962 . S
C1134 H1148 0.960 . S
C1135 C1132 1.511 . S
C1135 H1149 0.961 . S
C1135 H1150 0.961 . S
C1135 H1151 0.961 . S
C1136 C1137 1.370 . S
C1136 C1138 1.363 . S
C1136 H1152 0.931 . S
C1137 C1136 1.370 . S
C1137 C1141 1.408 . S
C1138 C1136 1.363 . S
C1138 C1139 1.370 . S
C1138 C1142 1.524 . S
C1139 C1131 1.503 . S
C1139 C1138 1.370 . S
C1139 C1140 1.403 . S
C1140 C1139 1.403 . S
C1140 C1141 1.404 . S
C1140 C1143 1.539 . S
C1141 C1137 1.408 . S
C1141 C1140 1.404 . S
C1141 H1153 0.930 . S
C1142 C1138 1.524 . S
C1142 H1154 0.956 . S
C1142 H1155 0.961 . S
C1142 H1156 0.961 . S
C1143 C1140 1.539 . S
C1143 H1157 0.958 . S
C1143 H1158 0.961 . S
C1143 H1159 0.960 . S
H1144 C1128 0.931 . S
H1145 C1133 0.929 . S
H1146 C1134 0.960 . S
H1147 C1134 0.962 . S
H1148 C1134 0.960 . S
H1149 C1135 0.961 . S
H1150 C1135 0.961 . S
H1151 C1135 0.961 . S
H1152 C1136 0.931 . S
H1153 C1141 0.930 . S
H1154 C1142 0.956 . S
H1155 C1142 0.961 . S
H1156 C1142 0.961 . S
H1157 C1143 0.958 . S
H1158 C1143 0.961 . S
H1159 C1143 0.960 . S
C1160 C1161 1.391 . S
C1160 C1162 1.394 . S
C1160 H1176 0.931 . S
C1161 C1160 1.391 . S
C1161 C1165 1.376 . S
C1162 C1160 1.394 . S
C1162 C1163 1.369 . S
C1162 C1166 1.531 . S
C1163 C1162 1.369 . S
C1163 C1164 1.410 . S
C1163 C1171 1.503 . S
C1164 C1163 1.410 . S
C1164 C1165 1.392 . S
C1164 C1167 1.511 . S
C1165 C1161 1.376 . S
C1165 C1164 1.392 . S
C1165 H1177 0.929 . S
C1166 C1162 1.531 . S
C1166 H1178 0.960 . S
C1166 H1179 0.962 . S
C1166 H1180 0.960 . S
C1167 C1164 1.511 . S
C1167 H1181 0.961 . S
C1167 H1182 0.961 . S
C1167 H1183 0.961 . S
C1168 C1169 1.370 . S
C1168 C1170 1.363 . S
C1168 H1184 0.931 . S
C1169 C1168 1.370 . S
C1169 C1173 1.408 . S
C1170 C1168 1.363 . S
C1170 C1171 1.370 . S
C1170 C1174 1.524 . S
C1171 C1163 1.503 . S
C1171 C1170 1.370 . S
C1171 C1172 1.403 . S
C1172 C1171 1.403 . S
C1172 C1173 1.404 . S
C1172 C1175 1.539 . S
C1173 C1169 1.408 . S
C1173 C1172 1.404 . S
C1173 H1185 0.930 . S
C1174 C1170 1.524 . S
C1174 H1186 0.956 . S
C1174 H1187 0.961 . S
C1174 H1188 0.961 . S
C1175 C1172 1.539 . S
C1175 H1189 0.958 . S
C1175 H1190 0.961 . S
C1175 H1191 0.960 . S
H1176 C1160 0.931 . S
H1177 C1165 0.929 . S
H1178 C1166 0.960 . S
H1179 C1166 0.962 . S
H1180 C1166 0.960 . S
H1181 C1167 0.961 . S
H1182 C1167 0.961 . S
H1183 C1167 0.961 . S
H1184 C1168 0.931 . S
H1185 C1173 0.930 . S
H1186 C1174 0.956 . S
H1187 C1174 0.961 . S
H1188 C1174 0.961 . S
H1189 C1175 0.958 . S
H1190 C1175 0.961 . S
H1191 C1175 0.960 . S
C425 C76 1.869 . S
C433 C163 1.936 . S
C465 C247 1.942 . S
C457 C87 1.879 . S
C497 C323 1.916 . S
C489 C54 1.975 . S
C529 C407 1.920 . S
C521 C65 1.916 . S
C561 C154 1.941 1_565 S
C553 C32 1.830 . S
C585 C43 1.847 . S
C593 C238 1.953 . S
C617 C10 1.974 . S
C625 C312 1.924 . S
C649 C21 1.924 . S
C657 C396 1.922 . S
C689 C151 0.645 1_455 S
C681 C60 0.706 . S
C721 C235 0.605 1_545 S
C713 C71 0.655 . S
C753 C328 0.598 . S
C745 C82 0.613 . S
C777 C49 0.562 . S
C785 C412 0.594 . S
C809 C16 0.573 . S
C817 C160 0.615 . S
C849 C244 0.591 . S
C841 C27 0.541 . S
C881 C319 0.624 . S
C873 C38 0.665 . S
C905 C5 0.699 . S
C913 C403 0.637 . S
C937 C59 1.976 . S
C945 C144 2.061 . S
C969 C70 1.934 . S
C977 C228 2.045 . S
C1009 C322 2.074 . S
C1001 C81 1.898 . S
C1041 C406 2.085 . S
C1033 C48 1.899 . S
C1065 C15 1.976 . S
C1073 C155 2.078 . S
C1105 C239 2.027 . S
C1097 C26 1.997 . S
C1137 C331 2.073 . S
C1129 C37 1.868 . S
C1161 C4 1.899 . S
C1169 C415 2.099 . S
