# Generated by pormake.
# Topology nom, (4,4)-cn, num edge types: 1
# Building blocks:
#     Node 0, Type 0, BuildingBlock: NAHDIM_clean_linker_0, # of connection points: 4
#     Node 1, Type 0, BuildingBlock: NAHDIM_clean_linker_0, # of connection points: 4
#     Node 2, Type 0, BuildingBlock: NAHDIM_clean_linker_0, # of connection points: 4
#     Node 3, Type 0, BuildingBlock: NAHDIM_clean_linker_0, # of connection points: 4
#     Node 4, Type 0, BuildingBlock: NAHDIM_clean_linker_0, # of connection points: 4
#     Node 5, Type 0, BuildingBlock: NAHDIM_clean_linker_0, # of connection points: 4
#     Node 6, Type 1, BuildingBlock: CEKHIL_clean_sbu_0, # of connection points: 4
#     Node 7, Type 1, BuildingBlock: CEKHIL_clean_sbu_0, # of connection points: 4
#     Node 8, Type 1, BuildingBlock: CEKHIL_clean_sbu_0, # of connection points: 4
#     Node 9, Type 1, BuildingBlock: CEKHIL_clean_sbu_0, # of connection points: 4
#     Node 10, Type 1, BuildingBlock: CEKHIL_clean_sbu_0, # of connection points: 4
#     Node 11, Type 1, BuildingBlock: CEKHIL_clean_sbu_0, # of connection points: 4
#     Edge 12, Type (0, 1), BuildingBlock: ZUJKAS_clean_linker_0, # of connection points: 2
#     Edge 13, Type (0, 1), BuildingBlock: ZUJKAS_clean_linker_0, # of connection points: 2
#     Edge 14, Type (0, 1), BuildingBlock: ZUJKAS_clean_linker_0, # of connection points: 2
#     Edge 15, Type (0, 1), BuildingBlock: ZUJKAS_clean_linker_0, # of connection points: 2
#     Edge 16, Type (0, 1), BuildingBlock: ZUJKAS_clean_linker_0, # of connection points: 2
#     Edge 17, Type (0, 1), BuildingBlock: ZUJKAS_clean_linker_0, # of connection points: 2
#     Edge 18, Type (0, 1), BuildingBlock: ZUJKAS_clean_linker_0, # of connection points: 2
#     Edge 19, Type (0, 1), BuildingBlock: ZUJKAS_clean_linker_0, # of connection points: 2
#     Edge 20, Type (0, 1), BuildingBlock: ZUJKAS_clean_linker_0, # of connection points: 2
#     Edge 21, Type (0, 1), BuildingBlock: ZUJKAS_clean_linker_0, # of connection points: 2
#     Edge 22, Type (0, 1), BuildingBlock: ZUJKAS_clean_linker_0, # of connection points: 2
#     Edge 23, Type (0, 1), BuildingBlock: ZUJKAS_clean_linker_0, # of connection points: 2
#     Edge 24, Type (0, 1), BuildingBlock: ZUJKAS_clean_linker_0, # of connection points: 2
#     Edge 25, Type (0, 1), BuildingBlock: ZUJKAS_clean_linker_0, # of connection points: 2
#     Edge 26, Type (0, 1), BuildingBlock: ZUJKAS_clean_linker_0, # of connection points: 2
#     Edge 27, Type (0, 1), BuildingBlock: ZUJKAS_clean_linker_0, # of connection points: 2
#     Edge 28, Type (0, 1), BuildingBlock: ZUJKAS_clean_linker_0, # of connection points: 2
#     Edge 29, Type (0, 1), BuildingBlock: ZUJKAS_clean_linker_0, # of connection points: 2
#     Edge 30, Type (0, 1), BuildingBlock: ZUJKAS_clean_linker_0, # of connection points: 2
#     Edge 31, Type (0, 1), BuildingBlock: ZUJKAS_clean_linker_0, # of connection points: 2
#     Edge 32, Type (0, 1), BuildingBlock: ZUJKAS_clean_linker_0, # of connection points: 2
#     Edge 33, Type (0, 1), BuildingBlock: ZUJKAS_clean_linker_0, # of connection points: 2
#     Edge 34, Type (0, 1), BuildingBlock: ZUJKAS_clean_linker_0, # of connection points: 2
#     Edge 35, Type (0, 1), BuildingBlock: ZUJKAS_clean_linker_0, # of connection points: 2
# Relax obj value: 0.043
# Max RMSD: 0.127
# Mean RMSD: 0.097
data_MOF--net-nom--node1-CEKHIL_clean_sbu_0--node2-NAHDIM_clean_linker_0--edge1-ZUJKAS_clean_linker_0
_symmetry_space_group_name_H-M    P1
_symmetry_Int_Tables_number       1
_symmetry_cell_setting            triclinic
loop_
_symmetry_equiv_pos_as_xyz
'x, y, z'
_cell_length_a     70.992314
_cell_length_b     70.221271
_cell_length_c     85.419133
_cell_angle_alpha  90.097155
_cell_angle_beta   90.106528
_cell_angle_gamma 121.10268
loop_
_atom_site_label
_atom_site_type_symbol
_atom_site_fract_x
_atom_site_fract_y
_atom_site_fract_z
_atom_type_partial_charge
C0 C 0.12862 0.59207 0.26116 0.0
C1 C 0.13979 0.59138 0.27639 0.0
C2 C 0.10807 0.5789 0.29349 0.0
C3 C 0.09927 0.55584 0.29292 0.0
C4 C 0.07712 0.54099 0.29661 0.0
C5 C 0.06346 0.54941 0.30066 0.0
C6 C 0.07245 0.57268 0.30156 0.0
C7 C 0.09482 0.58712 0.29827 0.0
C8 C 0.06822 0.51629 0.29588 0.0
C9 C 0.05832 0.58232 0.30549 0.0
C10 C 0.9877 0.49192 0.20987 0.0
C11 C 0.96908 0.49282 0.21816 0.0
C12 C 0.97178 0.48713 0.24604 0.0
C13 C 0.97505 0.50713 0.25227 0.0
C14 C 0.98484 0.5147 0.26703 0.0
C15 C 0.99133 0.50191 0.27573 0.0
C16 C 0.98717 0.48127 0.26977 0.0
C17 C 0.97717 0.47402 0.25503 0.0
C18 C 0.98855 0.53651 0.27325 0.0
C19 C 0.9938 0.46718 0.27879 0.0
C20 C 0.89267 0.45318 0.35129 0.0
C21 C 0.90416 0.47646 0.35022 0.0
C22 C 0.92723 0.48882 0.3505 0.0
C23 C 0.93897 0.47765 0.35195 0.0
C24 C 0.9274 0.45431 0.35397 0.0
C25 C 0.9043 0.44237 0.35376 0.0
C26 C 0.93906 0.51378 0.34879 0.0
C27 C 0.93945 0.44195 0.35575 0.0
C28 C 0.08492 0.58405 0.40601 0.0
C29 C 0.07801 0.56091 0.41231 0.0
C30 C 0.04071 0.53876 0.40311 0.0
C31 C 0.02804 0.54758 0.39813 0.0
C32 C 0.01399 0.53855 0.38513 0.0
C33 C 0.01221 0.51986 0.37733 0.0
C34 C 0.02404 0.51008 0.38302 0.0
C35 C 0.03844 0.51988 0.39576 0.0
C36 C 0.00163 0.5494 0.37945 0.0
C37 C 0.02195 0.48967 0.3754 0.0
C38 C 0.03951 0.53392 0.30292 0.0
C39 C 0.0265 0.52505 0.28952 0.0
C40 C 0.00376 0.51079 0.29057 0.0
C41 C 0.99349 0.50538 0.30539 0.0
C42 C 0.97056 0.49163 0.30684 0.0
C43 C 0.96062 0.4866 0.32149 0.0
C44 C 0.97324 0.49501 0.33526 0.0
C45 C 0.96325 0.49024 0.35019 0.0
C46 C 0.9763 0.49829 0.36366 0.0
C47 C 0.99922 0.51154 0.36263 0.0
C48 C 0.00946 0.51712 0.34777 0.0
C49 C 0.0324 0.53108 0.34627 0.0
C50 C 0.04231 0.53643 0.33161 0.0
C51 C 0.02966 0.52825 0.31788 0.0
C52 C 0.00653 0.51407 0.3191 0.0
C53 C 0.99641 0.50865 0.33406 0.0
C54 C 0.84807 0.42556 0.32716 0.0
C55 C 0.85806 0.44453 0.33914 0.0
O56 O 0.12909 0.59366 0.28918 0.0
O57 O 0.05549 0.54895 0.41481 0.0
O58 O 0.87044 0.44075 0.34988 0.0
O59 O 0.96315 0.47985 0.23155 0.0
H60 H 0.13921 0.57528 0.27704 0.0
H61 H 0.11126 0.57809 0.26083 0.0
H62 H 0.12885 0.60798 0.26031 0.0
H63 H 0.1371 0.59039 0.25081 0.0
H64 H 0.10961 0.54934 0.28968 0.0
H65 H 0.10186 0.60497 0.29875 0.0
H66 H 0.05722 0.50912 0.28554 0.0
H67 H 0.08153 0.51248 0.29488 0.0
H68 H 0.05832 0.50799 0.30647 0.0
H69 H 0.06736 0.60069 0.30416 0.0
H70 H 0.04355 0.57492 0.2978 0.0
H71 H 0.05254 0.5782 0.31776 0.0
H72 H 0.97529 0.51053 0.2211 0.0
H73 H 0.99249 0.50204 0.19901 0.0
H74 H 0.00232 0.49878 0.21768 0.0
H75 H 0.98258 0.47451 0.20681 0.0
H76 H 0.96984 0.5168 0.2457 0.0
H77 H 0.97417 0.4584 0.25022 0.0
H78 H 0.00649 0.54867 0.27415 0.0
H79 H 0.98103 0.54363 0.26563 0.0
H80 H 0.98155 0.53416 0.28519 0.0
H81 H 0.98931 0.45148 0.27255 0.0
H82 H 0.01185 0.47671 0.28083 0.0
H83 H 0.9857 0.46299 0.29042 0.0
H84 H 0.86857 0.45999 0.33233 0.0
H85 H 0.89512 0.48496 0.34906 0.0
H86 H 0.89523 0.42442 0.35488 0.0
H87 H 0.94791 0.51866 0.33744 0.0
H88 H 0.92762 0.52013 0.34921 0.0
H89 H 0.95153 0.52191 0.35824 0.0
H90 H 0.92806 0.42385 0.35762 0.0
H91 H 0.94934 0.4443 0.34509 0.0
H92 H 0.95103 0.44886 0.36581 0.0
H93 H 0.08245 0.55216 0.40349 0.0
H94 H 0.10294 0.5939 0.40392 0.0
H95 H 0.0765 0.58253 0.3947 0.0
H96 H 0.08047 0.59314 0.41446 0.0
H97 H 0.02988 0.5621 0.40406 0.0
H98 H 0.04811 0.513 0.39994 0.0
H99 H 0.00509 0.55367 0.36686 0.0
H100 H 0.98368 0.53756 0.38063 0.0
H101 H 0.00605 0.56475 0.38613 0.0
H102 H 0.02905 0.48192 0.3828 0.0
H103 H 0.0044 0.47717 0.37298 0.0
H104 H 0.03076 0.49435 0.36404 0.0
H105 H 0.0342 0.52937 0.27808 0.0
H106 H 0.96005 0.48471 0.29665 0.0
H107 H 0.94289 0.47598 0.32187 0.0
H108 H 0.96852 0.49443 0.37507 0.0
H109 H 0.043 0.53811 0.3564 0.0
H110 H 0.06003 0.54714 0.33118 0.0
H111 H 0.83775 0.42806 0.31858 0.0
H112 H 0.86143 0.42521 0.32067 0.0
H113 H 0.83783 0.40923 0.333 0.0
C114 C 0.40517 0.88926 0.55478 0.0
C115 C 0.41344 0.87922 0.54259 0.0
C116 C 0.42999 0.90938 0.524 0.0
C117 C 0.4524 0.91652 0.52452 0.0
C118 C 0.46837 0.93858 0.52092 0.0
C119 C 0.46167 0.9538 0.517 0.0
C120 C 0.43897 0.94647 0.51629 0.0
C121 C 0.42339 0.92415 0.5195 0.0
C122 C 0.49237 0.94569 0.52147 0.0
C123 C 0.43116 0.96227 0.51252 0.0
C124 C 0.53804 0.03621 0.60302 0.0
C125 C 0.53127 0.05232 0.59687 0.0
C126 C 0.53189 0.04958 0.56866 0.0
C127 C 0.51093 0.04466 0.56399 0.0
C128 C 0.50169 0.0334 0.54988 0.0
C129 C 0.51364 0.02673 0.54041 0.0
C130 C 0.53495 0.03195 0.54505 0.0
C131 C 0.54398 0.04373 0.55903 0.0
C132 C 0.47914 0.02853 0.54512 0.0
C133 C 0.54802 0.02478 0.53541 0.0
C134 C 0.57039 0.12244 0.46523 0.0
C135 C 0.54789 0.11461 0.46698 0.0
C136 C 0.53225 0.09181 0.46595 0.0
C137 C 0.53936 0.07659 0.46329 0.0
C138 C 0.56186 0.08462 0.46038 0.0
C139 C 0.57709 0.10756 0.46121 0.0
C140 C 0.50828 0.08387 0.46847 0.0
C141 C 0.56993 0.06889 0.45722 0.0
C142 C 0.42983 0.91657 0.41767 0.0
C143 C 0.4514 0.93079 0.4088 0.0
C144 C 0.46726 0.96931 0.41672 0.0
C145 C 0.45836 0.98169 0.42229 0.0
C146 C 0.46935 0.99809 0.43382 0.0
C147 C 0.48986 0.00233 0.4396 0.0
C148 C 0.49976 0.99111 0.43301 0.0
C149 C 0.48832 0.97468 0.4216 0.0
C150 C 0.45853 0.01001 0.44044 0.0
C151 C 0.52191 0.99573 0.43859 0.0
C152 C 0.47836 0.97757 0.51431 0.0
C153 C 0.4884 0.99099 0.52743 0.0
C154 C 0.50357 0.01372 0.5259 0.0
C155 C 0.50877 0.02354 0.51089 0.0
C156 C 0.52353 0.04646 0.50897 0.0
C157 C 0.52861 0.05592 0.49414 0.0
C158 C 0.51893 0.04289 0.48064 0.0
C159 C 0.52381 0.05242 0.4655 0.0
C160 C 0.51405 0.03895 0.45233 0.0
C161 C 0.49947 0.01606 0.45389 0.0
C162 C 0.49427 0.00626 0.46893 0.0
C163 C 0.47961 0.98327 0.47088 0.0
C164 C 0.47453 0.9738 0.48571 0.0
C165 C 0.48379 0.98694 0.49917 0.0
C166 C 0.49888 0.01007 0.49747 0.0
C167 C 0.50403 0.01975 0.48234 0.0
C168 C 0.60636 0.16932 0.48829 0.0
C169 C 0.58489 0.15778 0.4789 0.0
O170 O 0.41445 0.88839 0.52804 0.0
O171 O 0.45509 0.95207 0.40684 0.0
O172 O 0.58603 0.14408 0.46772 0.0
O173 O 0.54085 0.06015 0.58235 0.0
H174 H 0.43009 0.88293 0.54617 0.0
H175 H 0.41664 0.90753 0.55557 0.0
H176 H 0.38859 0.88598 0.55147 0.0
H177 H 0.40427 0.88212 0.56654 0.0
H178 H 0.45736 0.9048 0.52766 0.0
H179 H 0.40597 0.91831 0.51909 0.0
H180 H 0.50038 0.95703 0.53159 0.0
H181 H 0.49473 0.93131 0.52268 0.0
H182 H 0.50082 0.95499 0.51069 0.0
H183 H 0.41317 0.95456 0.51432 0.0
H184 H 0.43993 0.97743 0.51994 0.0
H185 H 0.43492 0.96756 0.50012 0.0
H186 H 0.51301 0.04318 0.59589 0.0
H187 H 0.53014 0.02915 0.61447 0.0
H188 H 0.53272 0.0222 0.59465 0.0
H189 H 0.5562 0.04486 0.60442 0.0
H190 H 0.50192 0.04982 0.57133 0.0
H191 H 0.56026 0.04783 0.56276 0.0
H192 H 0.46731 0.01032 0.54562 0.0
H193 H 0.47308 0.03695 0.55286 0.0
H194 H 0.47943 0.03392 0.53286 0.0
H195 H 0.56342 0.02832 0.54139 0.0
H196 H 0.53794 0.00667 0.53287 0.0
H197 H 0.55241 0.03364 0.52403 0.0
H198 H 0.57162 0.14776 0.48751 0.0
H199 H 0.54257 0.12625 0.46945 0.0
H200 H 0.59447 0.11387 0.45955 0.0
H201 H 0.50318 0.07601 0.48018 0.0
H202 H 0.50503 0.09773 0.46788 0.0
H203 H 0.49795 0.07113 0.45958 0.0
H204 H 0.5879 0.07781 0.45491 0.0
H205 H 0.56628 0.05775 0.46743 0.0
H206 H 0.56111 0.05825 0.44695 0.0
H207 H 0.46471 0.93113 0.41593 0.0
H208 H 0.4265 0.89938 0.41917 0.0
H209 H 0.43104 0.92382 0.42947 0.0
H210 H 0.41583 0.91589 0.41131 0.0
H211 H 0.44227 0.97768 0.41816 0.0
H212 H 0.49565 0.96578 0.4167 0.0
H213 H 0.45403 0.00508 0.45285 0.0
H214 H 0.47022 0.02826 0.44023 0.0
H215 H 0.44344 0.00614 0.43385 0.0
H216 H 0.5284 0.98741 0.43116 0.0
H217 H 0.53392 0.01391 0.43865 0.0
H218 H 0.52046 0.9897 0.45079 0.0
H219 H 0.48424 0.98364 0.53902 0.0
H220 H 0.53134 0.05735 0.51891 0.0
H221 H 0.54022 0.07363 0.49343 0.0
H222 H 0.51793 0.04634 0.44076 0.0
H223 H 0.47181 0.97228 0.46099 0.0
H224 H 0.46319 0.95603 0.48648 0.0
H225 H 0.60588 0.18056 0.49725 0.0
H226 H 0.6086 0.15666 0.49439 0.0
H227 H 0.62071 0.17915 0.48051 0.0
C228 C 0.54776 0.4352 0.72792 0.0
C229 C 0.558 0.43352 0.71254 0.0
C230 C 0.53894 0.44595 0.69515 0.0
C231 C 0.55331 0.46903 0.69657 0.0
C232 C 0.54665 0.48386 0.69197 0.0
C233 C 0.52506 0.4754 0.68616 0.0
C234 C 0.51067 0.45213 0.68456 0.0
C235 C 0.51804 0.43776 0.68875 0.0
C236 C 0.56259 0.50856 0.69353 0.0
C237 C 0.4873 0.44233 0.67885 0.0
C238 C 0.46132 0.5328 0.77492 0.0
C239 C 0.46553 0.52182 0.76161 0.0
C240 C 0.48146 0.52989 0.73549 0.0
C241 C 0.4693 0.50803 0.7297 0.0
C242 C 0.47505 0.50217 0.71559 0.0
C243 C 0.49383 0.5183 0.70733 0.0
C244 C 0.50619 0.54034 0.71316 0.0
C245 C 0.49947 0.54595 0.72698 0.0
C246 C 0.46116 0.47858 0.70964 0.0
C247 C 0.52676 0.55784 0.70501 0.0
C248 C 0.45534 0.56841 0.62348 0.0
C249 C 0.44232 0.54625 0.62825 0.0
C250 C 0.45158 0.53293 0.63027 0.0
C251 C 0.47449 0.54233 0.62801 0.0
C252 C 0.48752 0.56464 0.62287 0.0
C253 C 0.47762 0.57725 0.62037 0.0
C254 C 0.43688 0.50893 0.63497 0.0
C255 C 0.51195 0.57531 0.62023 0.0
C256 C 0.56006 0.47192 0.58572 0.0
C257 C 0.55607 0.48337 0.57193 0.0
C258 C 0.52708 0.48808 0.58335 0.0
C259 C 0.50489 0.47543 0.58748 0.0
C260 C 0.49627 0.48245 0.59943 0.0
C261 C 0.51016 0.50292 0.60713 0.0
C262 C 0.53229 0.51646 0.60234 0.0
C263 C 0.54058 0.50885 0.59058 0.0
C264 C 0.47258 0.46767 0.60425 0.0
C265 C 0.54736 0.53873 0.60996 0.0
C266 C 0.517 0.4907 0.68272 0.0
C267 C 0.51095 0.49895 0.69539 0.0
C268 C 0.50113 0.51161 0.69316 0.0
C269 C 0.49727 0.51634 0.6778 0.0
C270 C 0.48698 0.52858 0.67507 0.0
C271 C 0.48329 0.53313 0.6599 0.0
C272 C 0.48918 0.52509 0.64684 0.0
C273 C 0.48498 0.52913 0.63135 0.0
C274 C 0.49146 0.5212 0.61867 0.0
C275 C 0.5022 0.50944 0.62101 0.0
C276 C 0.50616 0.5049 0.63639 0.0
C277 C 0.51663 0.4928 0.63913 0.0
C278 C 0.52044 0.48837 0.65428 0.0
C279 C 0.51385 0.49576 0.66728 0.0
C280 C 0.5037 0.50839 0.66482 0.0
C281 C 0.49964 0.51277 0.64934 0.0
C282 C 0.4478 0.60966 0.63746 0.0
C283 C 0.43486 0.585 0.63295 0.0
O284 O 0.54442 0.43102 0.70003 0.0
O285 O 0.53487 0.47959 0.57255 0.0
O286 O 0.44669 0.5815 0.6216 0.0
O287 O 0.47638 0.53601 0.7492 0.0
H288 H 0.5744 0.44881 0.71097 0.0
H289 H 0.54591 0.44996 0.72776 0.0
H290 H 0.53127 0.42008 0.72962 0.0
H291 H 0.55842 0.43707 0.73806 0.0
H292 H 0.56973 0.47558 0.70119 0.0
H293 H 0.50715 0.41992 0.68763 0.0
H294 H 0.55731 0.51519 0.70329 0.0
H295 H 0.57963 0.51254 0.69595 0.0
H296 H 0.5626 0.51723 0.68266 0.0
H297 H 0.4774 0.424 0.6804 0.0
H298 H 0.47911 0.44989 0.68519 0.0
H299 H 0.48736 0.446 0.66622 0.0
H300 H 0.47283 0.51158 0.76485 0.0
H301 H 0.42691 0.51629 0.77585 0.0
H302 H 0.47159 0.53247 0.78486 0.0
H303 H 0.47197 0.55126 0.77296 0.0
H304 H 0.45519 0.49545 0.73608 0.0
H305 H 0.50874 0.56279 0.73153 0.0
H306 H 0.45809 0.47842 0.69687 0.0
H307 H 0.4701 0.46965 0.71156 0.0
H308 H 0.44509 0.46931 0.71575 0.0
H309 H 0.53606 0.57322 0.71216 0.0
H310 H 0.53771 0.5513 0.70239 0.0
H311 H 0.52229 0.56227 0.69372 0.0
H312 H 0.43312 0.57524 0.64371 0.0
H313 H 0.4249 0.53937 0.63023 0.0
H314 H 0.48738 0.59434 0.61646 0.0
H315 H 0.43927 0.50709 0.64759 0.0
H316 H 0.41922 0.50304 0.63302 0.0
H317 H 0.44111 0.49806 0.6283 0.0
H318 H 0.52014 0.59355 0.61838 0.0
H319 H 0.51981 0.57223 0.63038 0.0
H320 H 0.51478 0.56781 0.60973 0.0
H321 H 0.56826 0.50149 0.57249 0.0
H322 H 0.57684 0.47445 0.58507 0.0
H323 H 0.55871 0.47908 0.59697 0.0
H324 H 0.54775 0.45379 0.58567 0.0
H325 H 0.49452 0.45957 0.58172 0.0
H326 H 0.55758 0.51925 0.58718 0.0
H327 H 0.47185 0.46265 0.61666 0.0
H328 H 0.46388 0.477 0.60341 0.0
H329 H 0.46378 0.45245 0.59689 0.0
H330 H 0.56339 0.54828 0.60383 0.0
H331 H 0.53939 0.54879 0.61013 0.0
H332 H 0.55051 0.53618 0.62228 0.0
H333 H 0.51333 0.4949 0.70721 0.0
H334 H 0.48172 0.53485 0.68464 0.0
H335 H 0.47559 0.54291 0.65856 0.0
H336 H 0.48848 0.52459 0.60682 0.0
H337 H 0.52191 0.48649 0.62959 0.0
H338 H 0.52857 0.479 0.65568 0.0
H339 H 0.44932 0.62015 0.62724 0.0
H340 H 0.43961 0.61312 0.64718 0.0
H341 H 0.46457 0.61439 0.64144 0.0
C342 C 0.14006 0.56731 0.88885 0.0
C343 C 0.14312 0.55855 0.87317 0.0
C344 C 0.10474 0.53219 0.86532 0.0
C345 C 0.09929 0.54824 0.86145 0.0
C346 C 0.07773 0.54188 0.85711 0.0
C347 C 0.06131 0.51905 0.85659 0.0
C348 C 0.06679 0.50285 0.86021 0.0
C349 C 0.08849 0.50967 0.86447 0.0
C350 C 0.07241 0.55955 0.8532 0.0
C351 C 0.04967 0.47837 0.85975 0.0
C352 C 0.9806 0.52741 0.93906 0.0
C353 C 0.96627 0.50431 0.9318 0.0
C354 C 0.9683 0.50513 0.90352 0.0
C355 C 0.97035 0.48676 0.90012 0.0
C356 C 0.9809 0.48616 0.88641 0.0
C357 C 0.98974 0.50444 0.87601 0.0
C358 C 0.9871 0.52272 0.87923 0.0
C359 C 0.97603 0.52263 0.89286 0.0
C360 C 0.98297 0.46618 0.88319 0.0
C361 C 0.99652 0.54262 0.86852 0.0
C362 C 0.90228 0.46889 0.79461 0.0
C363 C 0.90612 0.45201 0.79923 0.0
C364 C 0.92764 0.45613 0.8003 0.0
C365 C 0.9456 0.47767 0.79697 0.0
C366 C 0.94165 0.4943 0.79145 0.0
C367 C 0.91994 0.48953 0.79012 0.0
C368 C 0.93121 0.43771 0.80551 0.0
C369 C 0.96036 0.51734 0.78753 0.0
C370 C 0.09933 0.5085 0.75452 0.0
C371 C 0.08598 0.51639 0.74545 0.0
C372 C 0.0483 0.4971 0.75472 0.0
C373 C 0.03449 0.47641 0.76159 0.0
C374 C 0.01923 0.4738 0.77309 0.0
C375 C 0.01762 0.49233 0.77756 0.0
C376 C 0.03054 0.51293 0.76986 0.0
C377 C 0.04572 0.51508 0.75846 0.0
C378 C 0.00546 0.45153 0.78091 0.0
C379 C 0.02878 0.53284 0.77402 0.0
C380 C 0.03825 0.51217 0.85276 0.0
C381 C 0.02477 0.51125 0.86498 0.0
C382 C 0.00288 0.50499 0.86232 0.0
C383 C 0.99408 0.49945 0.84699 0.0
C384 C 0.97215 0.49308 0.84387 0.0
C385 C 0.96376 0.48801 0.82871 0.0
C386 C 0.97684 0.48868 0.8161 0.0
C387 C 0.96841 0.48344 0.80064 0.0
C388 C 0.98191 0.48443 0.78838 0.0
C389 C 0.0038 0.49069 0.79111 0.0
C390 C 0.0125 0.49594 0.80649 0.0
C391 C 0.03448 0.50234 0.80963 0.0
C392 C 0.04295 0.50767 0.82476 0.0
C393 C 0.02979 0.50677 0.83735 0.0
C394 C 0.0076 0.50035 0.83446 0.0
C395 C 0.99895 0.49491 0.81901 0.0
C396 C 0.85562 0.46721 0.81098 0.0
C397 C 0.8655 0.45354 0.80539 0.0
O398 O 0.12523 0.53753 0.87007 0.0
O399 O 0.06414 0.49935 0.74469 0.0
O400 O 0.88183 0.46591 0.79455 0.0
O401 O 0.9592 0.50642 0.91711 0.0
H402 H 0.14489 0.57013 0.86364 0.0
H403 H 0.12538 0.56901 0.88847 0.0
H404 H 0.13786 0.55576 0.89851 0.0
H405 H 0.15462 0.58396 0.89145 0.0
H406 H 0.11161 0.56576 0.86189 0.0
H407 H 0.09282 0.49739 0.86739 0.0
H408 H 0.06032 0.55887 0.86176 0.0
H409 H 0.08722 0.57655 0.85341 0.0
H410 H 0.06472 0.55635 0.84141 0.0
H411 H 0.05654 0.46784 0.86301 0.0
H412 H 0.03606 0.4748 0.86789 0.0
H413 H 0.04252 0.47364 0.8478 0.0
H414 H 0.97672 0.49676 0.93087 0.0
H415 H 0.98644 0.52607 0.95086 0.0
H416 H 0.99521 0.53758 0.93156 0.0
H417 H 0.97126 0.53607 0.9401 0.0
H418 H 0.96377 0.47296 0.90824 0.0
H419 H 0.97413 0.53663 0.89558 0.0
H420 H 0.97781 0.46028 0.87098 0.0
H421 H 0.00045 0.47097 0.88445 0.0
H422 H 0.9729 0.45225 0.89135 0.0
H423 H 0.99423 0.55606 0.87319 0.0
H424 H 0.01437 0.54937 0.86676 0.0
H425 H 0.98842 0.53748 0.85688 0.0
H426 H 0.87264 0.45018 0.81592 0.0
H427 H 0.89234 0.43572 0.80214 0.0
H428 H 0.9167 0.50227 0.78627 0.0
H429 H 0.93745 0.44091 0.81774 0.0
H430 H 0.91578 0.42119 0.80506 0.0
H431 H 0.94377 0.43724 0.79806 0.0
H432 H 0.95451 0.52867 0.78407 0.0
H433 H 0.97155 0.52465 0.79777 0.0
H434 H 0.97008 0.51634 0.77775 0.0
H435 H 0.08777 0.53089 0.75209 0.0
H436 H 0.11704 0.52169 0.75468 0.0
H437 H 0.09344 0.50476 0.7668 0.0
H438 H 0.09748 0.49316 0.74923 0.0
H439 H 0.03635 0.46253 0.75839 0.0
H440 H 0.05571 0.53085 0.75258 0.0
H441 H 0.0099 0.45303 0.79351 0.0
H442 H 0.98778 0.4462 0.78018 0.0
H443 H 0.00779 0.43847 0.77554 0.0
H444 H 0.03902 0.54731 0.76632 0.0
H445 H 0.01139 0.52846 0.77312 0.0
H446 H 0.03412 0.5378 0.78634 0.0
H447 H 0.03144 0.5155 0.87677 0.0
H448 H 0.96126 0.49209 0.85311 0.0
H449 H 0.94683 0.48352 0.82704 0.0
H450 H 0.97539 0.48057 0.77654 0.0
H451 H 0.04541 0.50334 0.80043 0.0
H452 H 0.05998 0.51253 0.82647 0.0
H453 H 0.8483 0.47135 0.801 0.0
H454 H 0.84269 0.45783 0.81988 0.0
H455 H 0.86866 0.48296 0.8164 0.0
C456 C 0.43708 0.87216 0.93411 0.0
C457 C 0.44591 0.86952 0.94986 0.0
C458 C 0.47588 0.9077 0.95581 0.0
C459 C 0.46233 0.91627 0.95938 0.0
C460 C 0.47146 0.93879 0.96321 0.0
C461 C 0.49458 0.95303 0.96351 0.0
C462 C 0.50829 0.94448 0.96006 0.0
C463 C 0.49871 0.92187 0.95628 0.0
C464 C 0.45641 0.94746 0.96684 0.0
C465 C 0.53301 0.95925 0.96033 0.0
C466 C 0.56473 0.09464 0.88374 0.0
C467 C 0.56278 0.08135 0.89782 0.0
C468 C 0.5362 0.0567 0.91719 0.0
C469 C 0.55187 0.05517 0.92635 0.0
C470 C 0.54554 0.04135 0.93951 0.0
C471 C 0.5231 0.02909 0.94385 0.0
C472 C 0.50731 0.03086 0.93488 0.0
C473 C 0.51409 0.04463 0.92161 0.0
C474 C 0.56286 0.03972 0.94868 0.0
C475 C 0.48331 0.01816 0.93929 0.0
C476 C 0.5489 0.11421 0.02536 0.0
C477 C 0.56537 0.10985 0.02105 0.0
C478 C 0.56088 0.08792 0.02028 0.0
C479 C 0.53935 0.0701 0.02351 0.0
C480 C 0.52314 0.07459 0.02879 0.0
C481 C 0.52828 0.0967 0.02987 0.0
C482 C 0.57887 0.08378 0.01537 0.0
C483 C 0.50012 0.05603 0.03259 0.0
C484 C 0.5182 0.91744 0.06532 0.0
C485 C 0.50711 0.92851 0.07346 0.0
C486 C 0.52267 0.9666 0.06479 0.0
C487 C 0.54272 0.98196 0.05798 0.0
C488 C 0.54389 0.99702 0.04668 0.0
C489 C 0.52456 0.99694 0.04246 0.0
C490 C 0.50451 0.98244 0.05015 0.0
C491 C 0.50375 0.96731 0.06121 0.0
C492 C 0.5656 0.01243 0.03885 0.0
C493 C 0.48379 0.98249 0.04631 0.0
C494 C 0.50429 0.97694 0.96724 0.0
C495 C 0.50829 0.99151 0.95485 0.0
C496 C 0.51635 0.01406 0.95758 0.0
C497 C 0.51974 0.0222 0.9731 0.0
C498 C 0.5262 0.04438 0.97632 0.0
C499 C 0.53007 0.05238 0.99161 0.0
C500 C 0.5283 0.03868 0.00424 0.0
C501 C 0.5331 0.04691 0.01978 0.0
C502 C 0.53161 0.03296 0.032 0.0
C503 C 0.52502 0.01074 0.02916 0.0
C504 C 0.51953 0.00205 0.01376 0.0
C505 C 0.51226 0.97961 0.01054 0.0
C506 C 0.50688 0.97123 0.99536 0.0
C507 C 0.5092 0.98511 0.98276 0.0
C508 C 0.51672 0.0078 0.98571 0.0
C509 C 0.52148 0.01617 0.00126 0.0
C510 C 0.55234 0.16242 0.00878 0.0
C511 C 0.56484 0.15119 0.0141 0.0
O512 O 0.46778 0.88608 0.95175 0.0
O513 O 0.52197 0.95119 0.07469 0.0
O514 O 0.55222 0.13503 0.02504 0.0
O515 O 0.54177 0.06942 0.90405 0.0
H516 H 0.43594 0.87045 0.95954 0.0
H517 H 0.43777 0.88829 0.93361 0.0
H518 H 0.44699 0.87156 0.92428 0.0
H519 H 0.41965 0.85866 0.93252 0.0
H520 H 0.44462 0.90565 0.95914 0.0
H521 H 0.50905 0.91515 0.95354 0.0
H522 H 0.45947 0.96082 0.95845 0.0
H523 H 0.43875 0.93423 0.96619 0.0
H524 H 0.46001 0.95485 0.97876 0.0
H525 H 0.54139 0.95 0.9575 0.0
H526 H 0.53822 0.97294 0.95175 0.0
H527 H 0.53851 0.96697 0.97209 0.0
H528 H 0.57068 0.07121 0.89661 0.0
H529 H 0.56935 0.08701 0.87401 0.0
H530 H 0.54749 0.08813 0.8793 0.0
H531 H 0.58539 0.12758 0.89123 0.0
H532 H 0.56911 0.06461 0.92327 0.0
H533 H 0.5021 0.04596 0.91457 0.0
H534 H 0.56467 0.04717 0.96047 0.0
H535 H 0.5578 0.02202 0.95033 0.0
H536 H 0.57916 0.04848 0.94284 0.0
H537 H 0.47338 0.02282 0.93195 0.0
H538 H 0.47667 5e-05 0.93789 0.0
H539 H 0.4814 0.02123 0.95178 0.0
H540 H 0.56725 0.14341 0.00349 0.0
H541 H 0.58162 0.12351 0.01811 0.0
H542 H 0.51585 0.10037 0.03348 0.0
H543 H 0.57607 0.07787 0.00305 0.0
H544 H 0.5954 0.0991 0.01619 0.0
H545 H 0.57864 0.07065 0.02274 0.0
H546 H 0.48932 0.06234 0.03627 0.0
H547 H 0.49268 0.0451 0.0222 0.0
H548 H 0.50072 0.04569 0.04217 0.0
H549 H 0.49272 0.92513 0.06611 0.0
H550 H 0.50655 0.89922 0.06429 0.0
H551 H 0.52337 0.92435 0.05336 0.0
H552 H 0.53299 0.92048 0.07196 0.0
H553 H 0.55728 0.98148 0.06107 0.0
H554 H 0.4884 0.95594 0.06699 0.0
H555 H 0.5641 0.00906 0.02606 0.0
H556 H 0.57 0.02995 0.04051 0.0
H557 H 0.57915 0.01054 0.04354 0.0
H558 H 0.47019 0.97202 0.05451 0.0
H559 H 0.48703 -0.00025 0.0467 0.0
H560 H 0.47837 0.97607 0.03424 0.0
H561 H 0.50536 0.98527 0.94292 0.0
H562 H 0.52817 0.05576 0.96704 0.0
H563 H 0.5348 0.06956 0.99334 0.0
H564 H 0.53562 0.03947 0.04385 0.0
H565 H 0.5105 0.9682 0.01972 0.0
H566 H 0.50125 0.95381 0.9936 0.0
H567 H 0.54926 0.17049 0.01885 0.0
H568 H 0.56188 0.17519 -0.00026 0.0
H569 H 0.53627 0.14983 0.0036 0.0
C570 C 0.59977 0.48619 0.09133 0.0
C571 C 0.59593 0.47063 0.10511 0.0
C572 C 0.58 0.48437 0.12382 0.0
C573 C 0.55807 0.46688 0.12475 0.0
C574 C 0.54146 0.47086 0.12946 0.0
C575 C 0.54694 0.49285 0.13303 0.0
C576 C 0.56915 0.51048 0.13218 0.0
C577 C 0.58546 0.50587 0.12793 0.0
C578 C 0.51806 0.4516 0.13053 0.0
C579 C 0.57567 0.53426 0.13544 0.0
C580 C 0.45689 0.4797 0.05009 0.0
C581 C 0.46537 0.50274 0.05721 0.0
C582 C 0.46615 0.50237 0.08555 0.0
C583 C 0.48679 0.52107 0.08892 0.0
C584 C 0.49791 0.52227 0.10283 0.0
C585 C 0.48821 0.50427 0.11347 0.0
C586 C 0.46701 0.48574 0.11032 0.0
C587 C 0.45607 0.48522 0.09647 0.0
C588 C 0.52023 0.54254 0.10599 0.0
C589 C 0.45623 0.46616 0.12132 0.0
C590 C 0.4485 0.55567 0.1945 0.0
C591 C 0.47022 0.56942 0.18938 0.0
C592 C 0.48433 0.56109 0.18784 0.0
C593 C 0.47644 0.53851 0.19139 0.0
C594 C 0.45486 0.5249 0.19723 0.0
C595 C 0.44123 0.5338 0.1989 0.0
C596 C 0.50753 0.57631 0.18215 0.0
C597 C 0.44601 0.50084 0.20127 0.0
C598 C 0.60424 0.52033 0.24118 0.0
C599 C 0.58003 0.50511 0.24549 0.0
C600 C 0.5566 0.51814 0.23578 0.0
C601 C 0.5617 0.53846 0.22928 0.0
C602 C 0.54878 0.5394 0.21719 0.0
C603 C 0.52994 0.51953 0.21193 0.0
C604 C 0.52399 0.49906 0.21921 0.0
C605 C 0.53759 0.49856 0.23095 0.0
C606 C 0.5556 0.56155 0.2098 0.0
C607 C 0.50352 0.47768 0.21439 0.0
C608 C 0.5294 0.49762 0.13697 0.0
C609 C 0.51668 0.49818 0.12469 0.0
C610 C 0.50093 0.50411 0.12724 0.0
C611 C 0.49791 0.50999 0.14247 0.0
C612 C 0.48288 0.51693 0.14537 0.0
C613 C 0.48027 0.52297 0.16038 0.0
C614 C 0.49259 0.5223 0.17307 0.0
C615 C 0.49047 0.52895 0.18829 0.0
C616 C 0.5025 0.52749 0.20072 0.0
C617 C 0.51713 0.52004 0.19832 0.0
C618 C 0.51999 0.51397 0.18309 0.0
C619 C 0.53511 0.50713 0.18014 0.0
C620 C 0.53798 0.50144 0.1651 0.0
C621 C 0.52603 0.5026 0.15238 0.0
C622 C 0.51043 0.50909 0.1551 0.0
C623 C 0.50757 0.515 0.17045 0.0
C624 C 0.40909 0.56471 0.17784 0.0
C625 C 0.43251 0.57667 0.18441 0.0
O626 O 0.59622 0.48098 0.11902 0.0
O627 O 0.57024 0.51777 0.24673 0.0
O628 O 0.4342 0.56299 0.1953 0.0
O629 O 0.4558 0.50043 0.07176 0.0
H630 H 0.57968 0.45509 0.10352 0.0
H631 H 0.58652 0.49015 0.09086 0.0
H632 H 0.61585 0.50197 0.09262 0.0
H633 H 0.59957 0.47814 0.08007 0.0
H634 H 0.55396 0.4501 0.122 0.0
H635 H 0.60252 0.51919 0.12725 0.0
H636 H 0.50816 0.45282 0.12094 0.0
H637 H 0.51698 0.43528 0.12954 0.0
H638 H 0.51061 0.45221 0.1418 0.0
H639 H 0.59292 0.54625 0.13195 0.0
H640 H 0.56461 0.53845 0.1291 0.0
H641 H 0.57407 0.53641 0.14814 0.0
H642 H 0.48357 0.51084 0.05833 0.0
H643 H 0.46439 0.4812 0.0384 0.0
H644 H 0.46142 0.46994 0.05779 0.0
H645 H 0.43869 0.47052 0.04883 0.0
H646 H 0.49422 0.53465 0.08062 0.0
H647 H 0.43999 0.47098 0.09378 0.0
H648 H 0.53303 0.53802 0.10494 0.0
H649 H 0.52419 0.55625 0.09767 0.0
H650 H 0.52099 0.54864 0.11812 0.0
H651 H 0.44009 0.45264 0.11684 0.0
H652 H 0.46716 0.4594 0.12314 0.0
H653 H 0.45367 0.47166 0.13289 0.0
H654 H 0.44365 0.57988 0.17429 0.0
H655 H 0.47613 0.58665 0.18656 0.0
H656 H 0.42453 0.52346 0.2031 0.0
H657 H 0.50929 0.5711 0.17023 0.0
H658 H 0.51194 0.59395 0.18167 0.0
H659 H 0.5194 0.57506 0.18992 0.0
H660 H 0.42867 0.49233 0.20533 0.0
H661 H 0.44696 0.49188 0.19085 0.0
H662 H 0.45628 0.49973 0.21062 0.0
H663 H 0.57212 0.49249 0.23597 0.0
H664 H 0.61239 0.51052 0.23984 0.0
H665 H 0.60552 0.52873 0.22988 0.0
H666 H 0.613 0.53324 0.25035 0.0
H667 H 0.5763 0.5535 0.23331 0.0
H668 H 0.53343 0.48294 0.2364 0.0
H669 H 0.55687 0.5605 0.1969 0.0
H670 H 0.54289 0.56589 0.21212 0.0
H671 H 0.57163 0.57514 0.21439 0.0
H672 H 0.49939 0.46399 0.22277 0.0
H673 H 0.48932 0.48017 0.2135 0.0
H674 H 0.50604 0.47253 0.20267 0.0
H675 H 0.51929 0.49425 0.1129 0.0
H676 H 0.47307 0.51791 0.13604 0.0
H677 H 0.46848 0.52822 0.16189 0.0
H678 H 0.50073 0.53256 0.21236 0.0
H679 H 0.54502 0.5062 0.18941 0.0
H680 H 0.5498 0.49624 0.16355 0.0
H681 H 0.39694 0.56079 0.18733 0.0
H682 H 0.40732 0.57521 0.16893 0.0
H683 H 0.40537 0.5489 0.17214 0.0
Co684 Co 0.61982 0.38923 0.40719 0.0
O685 O 0.6384 0.38646 0.39222 0.0
O686 O 0.64844 0.41631 0.40681 0.0
C687 C 0.60759 0.35592 0.41849 0.0
O688 O 0.60566 0.39777 0.42444 0.0
Co689 Co 0.56944 0.35722 0.40675 0.0
O690 O 0.57071 0.36998 0.42767 0.0
C691 C 0.58978 0.39352 0.38368 0.0
C692 C 0.6537 0.40631 0.39639 0.0
C693 C 0.58739 0.38833 0.43204 0.0
O694 O 0.60857 0.40102 0.39039 0.0
O695 O 0.57232 0.37563 0.38793 0.0
O696 O 0.62637 0.37308 0.42251 0.0
O697 O 0.5976 0.35892 0.40692 0.0
Co698 Co 0.23529 0.61367 0.57833 0.0
O699 O 0.25458 0.61307 0.59385 0.0
O700 O 0.23494 0.58595 0.57689 0.0
C701 C 0.25941 0.64828 0.56984 0.0
O702 O 0.21441 0.60875 0.56025 0.0
Co703 Co 0.22019 0.64787 0.58004 0.0
O704 O 0.21213 0.63936 0.5578 0.0
C705 C 0.20085 0.60927 0.60147 0.0
C706 C 0.2493 0.59377 0.58821 0.0
C707 C 0.20879 0.62084 0.55261 0.0
O708 O 0.21041 0.60071 0.59391 0.0
O709 O 0.2039 0.62851 0.59839 0.0
O710 O 0.26024 0.63139 0.56453 0.0
O711 O 0.24521 0.64395 0.58077 0.0
Co712 Co 0.62616 0.24644 0.7447 0.0
O713 O 0.62635 0.26664 0.72942 0.0
O714 O 0.599 0.24644 0.74582 0.0
C715 C 0.66017 0.27022 0.75406 0.0
O716 O 0.62014 0.22475 0.76254 0.0
Co717 Co 0.65911 0.23018 0.74384 0.0
O718 O 0.64866 0.21966 0.76534 0.0
C719 C 0.62098 0.21045 0.72223 0.0
C720 C 0.6072 0.26139 0.73486 0.0
C721 C 0.63054 0.21715 0.77013 0.0
O722 O 0.61344 0.22172 0.7287 0.0
O723 O 0.63926 0.21224 0.7261 0.0
O724 O 0.64332 0.27105 0.75901 0.0
O725 O 0.65628 0.25616 0.74292 0.0
Co726 Co 0.39164 0.61727 0.91122 0.0
O727 O 0.37254 0.61934 0.89623 0.0
O728 O 0.36357 0.58968 0.91065 0.0
C729 C 0.4029 0.65041 0.92261 0.0
O730 O 0.40615 0.60909 0.92841 0.0
Co731 Co 0.44176 0.65024 0.9117 0.0
O732 O 0.44059 0.63743 0.93258 0.0
C733 C 0.42248 0.61489 0.88766 0.0
C734 C 0.35775 0.59927 0.90031 0.0
C735 C 0.42411 0.61869 0.93643 0.0
O736 O 0.40362 0.60637 0.89436 0.0
O737 O 0.43948 0.63303 0.89224 0.0
O738 O 0.38443 0.6329 0.92664 0.0
O739 O 0.41324 0.64773 0.91117 0.0
Co740 Co 0.77256 0.38916 0.07488 0.0
O741 O 0.75115 0.38792 0.08927 0.0
O742 O 0.77232 0.41653 0.07392 0.0
C743 C 0.7503 0.35521 0.06441 0.0
O744 O 0.79565 0.39629 0.05812 0.0
Co745 Co 0.78912 0.35633 0.07698 0.0
O746 O 0.80345 0.36917 0.05663 0.0
C747 C 0.80397 0.39242 0.10026 0.0
C748 C 0.7567 0.40758 0.08428 0.0
C749 C 0.8053 0.38711 0.05155 0.0
O750 O 0.79553 0.40143 0.09194 0.0
O751 O 0.8015 0.37344 0.097 0.0
O752 O 0.74963 0.37233 0.05947 0.0
O753 O 0.76316 0.35877 0.0762 0.0
Co754 Co 0.40033 0.77906 0.24067 0.0
O755 O 0.39877 0.75763 0.22597 0.0
O756 O 0.42625 0.77665 0.24264 0.0
C757 C 0.36567 0.75767 0.24949 0.0
O758 O 0.40711 0.80178 0.25798 0.0
Co759 Co 0.3702 0.79853 0.23706 0.0
O760 O 0.38071 0.81038 0.25839 0.0
C761 C 0.40843 0.81395 0.21621 0.0
C762 C 0.41742 0.76165 0.23166 0.0
C763 C 0.39767 0.81135 0.26431 0.0
O764 O 0.41505 0.80311 0.22438 0.0
O765 O 0.39018 0.81299 0.21873 0.0
O766 O 0.38143 0.75548 0.25516 0.0
O767 O 0.37094 0.77137 0.23795 0.0
H768 H 0.16053 0.63225 0.292 0.0
H769 H 0.19913 0.66172 0.29059 0.0
H770 H 0.21142 0.62244 0.25792 0.0
H771 H 0.17311 0.59225 0.26012 0.0
H772 H 0.24358 0.64127 0.27776 0.0
H773 H 0.22674 0.70549 0.25626 0.0
H774 H 0.21472 0.69467 0.27502 0.0
H775 H 0.20541 0.67669 0.25811 0.0
C776 C 0.17148 0.62971 0.28468 0.0
C777 C 0.16379 0.60975 0.27626 0.0
C778 C 0.19353 0.64676 0.28372 0.0
C779 C 0.20812 0.64454 0.27389 0.0
C780 C 0.2005 0.62459 0.26557 0.0
H781 H 0.32851 0.74675 0.23319 0.0
H782 H 0.2906 0.72003 0.24064 0.0
C783 C 0.17862 0.60737 0.2668 0.0
C784 C 0.23136 0.66284 0.27217 0.0
H785 H 0.26384 0.71749 0.26211 0.0
C786 C 0.24802 0.65794 0.27432 0.0
C787 C 0.23713 0.68455 0.26754 0.0
C788 C 0.22006 0.69064 0.26394 0.0
C789 C 0.27019 0.6739 0.27162 0.0
C790 C 0.27602 0.69576 0.26734 0.0
C791 C 0.2594 0.70081 0.26553 0.0
C792 C 0.29901 0.71316 0.2635 0.0
C793 C 0.28691 0.66677 0.27267 0.0
C794 C 0.31636 0.71873 0.27401 0.0
C795 C 0.33811 0.73359 0.26959 0.0
C796 C 0.34278 0.74368 0.25479 0.0
C797 C 0.32535 0.73919 0.24467 0.0
C798 C 0.30368 0.72393 0.24894 0.0
H799 H 0.27906 0.64843 0.2716 0.0
H800 H 0.29954 0.67466 0.26337 0.0
H801 H 0.29525 0.67176 0.28422 0.0
H802 H 0.31314 0.71129 0.28553 0.0
H803 H 0.35128 0.73704 0.27769 0.0
H804 H 0.5535 0.16809 0.48607 0.0
H805 H 0.54902 0.19773 0.47507 0.0
H806 H 0.60373 0.21607 0.4441 0.0
H807 H 0.60769 0.18599 0.45466 0.0
H808 H 0.57731 0.2407 0.47668 0.0
H809 H 0.56103 0.21757 0.41425 0.0
H810 H 0.55946 0.19841 0.42899 0.0
H811 H 0.58556 0.21843 0.42052 0.0
C812 C 0.56426 0.17819 0.47669 0.0
C813 C 0.58089 0.17473 0.47116 0.0
C814 C 0.56171 0.19511 0.47043 0.0
C815 C 0.5758 0.20891 0.45857 0.0
C816 C 0.59224 0.20526 0.4529 0.0
H817 H 0.62803 0.34507 0.44056 0.0
H818 H 0.61629 0.30833 0.45095 0.0
C819 C 0.59464 0.18822 0.45904 0.0
C820 C 0.57477 0.22842 0.45315 0.0
H821 H 0.57621 0.25663 0.42026 0.0
C822 C 0.57665 0.24397 0.46435 0.0
C823 C 0.57342 0.23253 0.4371 0.0
C824 C 0.5695 0.2157 0.42456 0.0
C825 C 0.57861 0.26413 0.45988 0.0
C826 C 0.57934 0.26912 0.44378 0.0
C827 C 0.57602 0.25297 0.43261 0.0
C828 C 0.5854 0.29159 0.43826 0.0
C829 C 0.5802 0.27998 0.47249 0.0
C830 C 0.57214 0.2944 0.42741 0.0
C831 C 0.57901 0.31546 0.42124 0.0
C832 C 0.59927 0.33398 0.42581 0.0
C833 C 0.61226 0.33116 0.43689 0.0
C834 C 0.60548 0.31016 0.44295 0.0
H835 H 0.57145 0.27087 0.48326 0.0
H836 H 0.59774 0.29135 0.47564 0.0
H837 H 0.5732 0.29011 0.46853 0.0
H838 H 0.55666 0.28026 0.42354 0.0
H839 H 0.56867 0.31715 0.4127 0.0
H840 H 0.41699 0.5732 0.60277 0.0
H841 H 0.38094 0.56533 0.59397 0.0
H842 H 0.36555 0.57526 0.641 0.0
H843 H 0.40101 0.58165 0.6501 0.0
H844 H 0.3302 0.54253 0.62766 0.0
H845 H 0.36868 0.61365 0.58632 0.0
H846 H 0.37526 0.59272 0.58223 0.0
H847 H 0.38463 0.60844 0.60018 0.0
C848 C 0.40587 0.57344 0.61131 0.0
C849 C 0.41202 0.57835 0.62717 0.0
C850 C 0.38529 0.56912 0.60621 0.0
C851 C 0.37075 0.57035 0.61672 0.0
C852 C 0.37651 0.57436 0.63263 0.0
H853 H 0.26975 0.59888 0.61612 0.0
H854 H 0.29594 0.58733 0.62264 0.0
C855 C 0.39683 0.57815 0.6378 0.0
C856 C 0.35001 0.56852 0.6112 0.0
H857 H 0.33006 0.59281 0.58702 0.0
C858 C 0.33017 0.55341 0.61868 0.0
C859 C 0.34994 0.58282 0.59952 0.0
C860 C 0.37077 0.60046 0.5917 0.0
C861 C 0.31046 0.55263 0.61508 0.0
C862 C 0.31057 0.56709 0.6036 0.0
C863 C 0.3301 0.58155 0.59568 0.0
C864 C 0.29142 0.56962 0.60091 0.0
C865 C 0.28974 0.53682 0.62381 0.0
C866 C 0.27981 0.56293 0.58669 0.0
C867 C 0.26458 0.56926 0.58301 0.0
C868 C 0.26123 0.58281 0.59336 0.0
C869 C 0.27204 0.58845 0.60793 0.0
C870 C 0.28693 0.58181 0.61169 0.0
H871 H 0.29136 0.52402 0.63027 0.0
H872 H 0.28605 0.54636 0.63237 0.0
H873 H 0.27559 0.52842 0.61559 0.0
H874 H 0.28328 0.55371 0.57817 0.0
H875 H 0.2566 0.56484 0.57166 0.0
H876 H 0.8408 0.4135 0.81997 0.0
H877 H 0.80854 0.37979 0.80982 0.0
H878 H 0.81738 0.41133 0.76492 0.0
H879 H 0.84925 0.4453 0.77519 0.0
H880 H 0.7767 0.39463 0.7755 0.0
H881 H 0.79907 0.3302 0.78071 0.0
H882 H 0.80284 0.34487 0.79876 0.0
H883 H 0.8192 0.35957 0.78198 0.0
C884 C 0.83614 0.413 0.80783 0.0
C885 C 0.84773 0.43186 0.7983 0.0
C886 C 0.8178 0.3937 0.80201 0.0
C887 C 0.81078 0.39288 0.78652 0.0
C888 C 0.82266 0.41153 0.77686 0.0
H889 H 0.699 0.27739 0.74214 0.0
H890 H 0.73622 0.30646 0.74995 0.0
C891 C 0.8409 0.43088 0.7827 0.0
C892 C 0.78966 0.37364 0.781 0.0
H893 H 0.76052 0.31699 0.77775 0.0
C894 C 0.77327 0.37769 0.77583 0.0
C895 C 0.78525 0.35155 0.7813 0.0
C896 C 0.80261 0.34628 0.78583 0.0
C897 C 0.75241 0.36024 0.77138 0.0
C898 C 0.7476 0.33807 0.77251 0.0
C899 C 0.76416 0.334 0.77717 0.0
C900 C 0.72538 0.31903 0.76886 0.0
C901 C 0.73577 0.36578 0.7654 0.0
C902 C 0.70707 0.316 0.77727 0.0
C903 C 0.68585 0.2996 0.77276 0.0
C904 C 0.68261 0.28574 0.75989 0.0
C905 C 0.70102 0.28792 0.75206 0.0
C906 C 0.72227 0.30448 0.75651 0.0
H907 H 0.74382 0.38317 0.7611 0.0
H908 H 0.72572 0.3544 0.75576 0.0
H909 H 0.72457 0.36398 0.77509 0.0
H910 H 0.70917 0.32672 0.78709 0.0
H911 H 0.67199 0.29812 0.77914 0.0
H912 H 0.41389 0.83162 0.96415 0.0
H913 H 0.40874 0.79434 0.96339 0.0
H914 H 0.46721 0.81914 0.9353 0.0
H915 H 0.47258 0.85649 0.93617 0.0
H916 H 0.40244 0.7703 0.93632 0.0
H917 H 0.47576 0.78212 0.96841 0.0
H918 H 0.46651 0.80169 0.96967 0.0
H919 H 0.48207 0.8019 0.95302 0.0
C920 C 0.42589 0.82918 0.9581 0.0
C921 C 0.44387 0.84702 0.95049 0.0
C922 C 0.42292 0.80792 0.95765 0.0
C923 C 0.43784 0.80409 0.94955 0.0
C924 C 0.45586 0.82187 0.94198 0.0
H925 H 0.43926 0.69007 0.91477 0.0
H926 H 0.44825 0.72722 0.92315 0.0
C927 C 0.45885 0.84315 0.94243 0.0
C928 C 0.43342 0.78117 0.9478 0.0
H929 H 0.45542 0.74847 0.95365 0.0
C930 C 0.41389 0.76544 0.94028 0.0
C931 C 0.44847 0.77497 0.9529 0.0
C932 C 0.46929 0.79098 0.96158 0.0
C933 C 0.40925 0.7438 0.93732 0.0
C934 C 0.42441 0.73765 0.94225 0.0
C935 C 0.44384 0.75328 0.94993 0.0
C936 C 0.42059 0.71527 0.93889 0.0
C937 C 0.38853 0.72791 0.92845 0.0
C938 C 0.40253 0.69634 0.94542 0.0
C939 C 0.39731 0.67513 0.94063 0.0
C940 C 0.41015 0.67256 0.92928 0.0
C941 C 0.42899 0.69155 0.92346 0.0
C942 C 0.43418 0.71276 0.92825 0.0
H943 H 0.38107 0.73662 0.92265 0.0
H944 H 0.39193 0.71871 0.9194 0.0
H945 H 0.37628 0.71558 0.93671 0.0
H946 H 0.39206 0.69799 0.95383 0.0
H947 H 0.38279 0.6608 0.94541 0.0
H948 H 0.59801 0.44 0.08677 0.0
H949 H 0.62709 0.43121 0.08538 0.0
H950 H 0.66256 0.47863 0.12225 0.0
H951 H 0.63422 0.48844 0.12302 0.0
H952 H 0.6898 0.48284 0.10046 0.0
H953 H 0.63812 0.39323 0.11367 0.0
H954 H 0.62785 0.40032 0.09689 0.0
H955 H 0.62806 0.412 0.11575 0.0
C956 C 0.61193 0.44837 0.09468 0.0
C957 C 0.61349 0.46448 0.10525 0.0
C958 C 0.62846 0.44323 0.09396 0.0
C959 C 0.64674 0.45377 0.10403 0.0
C960 C 0.6485 0.47007 0.11449 0.0
H961 H 0.73245 0.39941 0.11073 0.0
H962 H 0.70806 0.41318 0.11726 0.0
C963 C 0.63216 0.47554 0.115 0.0
C964 C 0.66442 0.44842 0.1032 0.0
H965 H 0.67336 0.40515 0.10234 0.0
C966 C 0.68624 0.46586 0.10106 0.0
C967 C 0.65991 0.42634 0.1043 0.0
C968 C 0.63724 0.40696 0.10795 0.0
C969 C 0.70354 0.46177 0.09952 0.0
C970 C 0.69879 0.43955 0.09955 0.0
C971 C 0.67706 0.42219 0.10214 0.0
C972 C 0.71583 0.4337 0.09659 0.0
C973 C 0.72672 0.48137 0.09811 0.0
C974 C 0.72874 0.441 0.08296 0.0
C975 C 0.74309 0.43354 0.07941 0.0
C976 C 0.74432 0.41816 0.08919 0.0
C977 C 0.73181 0.41126 0.10298 0.0
C978 C 0.71782 0.41907 0.10669 0.0
H979 H 0.7284 0.49641 0.10381 0.0
H980 H 0.73884 0.47782 0.10347 0.0
H981 H 0.7308 0.48527 0.08555 0.0
H982 H 0.72708 0.45174 0.07472 0.0
H983 H 0.75232 0.43889 0.06859 0.0
H984 H 0.37998 0.85307 0.52135 0.0
H985 H 0.35443 0.81293 0.52221 0.0
H986 H 0.38565 0.80903 0.56447 0.0
H987 H 0.41214 0.84901 0.56313 0.0
H988 H 0.37584 0.77499 0.54605 0.0
H989 H 0.30276 0.78385 0.55069 0.0
H990 H 0.3182 0.79547 0.53309 0.0
H991 H 0.33045 0.80738 0.55178 0.0
C992 C 0.38168 0.84364 0.53068 0.0
C993 C 0.39826 0.85419 0.54213 0.0
C994 C 0.36685 0.8207 0.53126 0.0
C995 C 0.3678 0.80801 0.54359 0.0
C996 C 0.38457 0.81845 0.55485 0.0
H997 H 0.2661 0.68658 0.58292 0.0
H998 H 0.29236 0.72461 0.57487 0.0
C999 C 0.39966 0.84128 0.5541 0.0
C1000 C 0.35111 0.78399 0.54511 0.0
H1001 H 0.29603 0.74731 0.5493 0.0
C1002 C 0.35837 0.7689 0.54672 0.0
C1003 C 0.32832 0.77612 0.54613 0.0
C1004 C 0.31945 0.79156 0.54549 0.0
C1005 C 0.34359 0.74628 0.5497 0.0
C1006 C 0.32079 0.73839 0.55055 0.0
C1007 C 0.31349 0.75337 0.54853 0.0
C1008 C 0.3044 0.7151 0.55485 0.0
C1009 C 0.35267 0.73134 0.55264 0.0
C1010 C 0.30212 0.69705 0.54612 0.0
C1011 C 0.28731 0.67522 0.55087 0.0
C1012 C 0.27424 0.67114 0.56423 0.0
C1013 C 0.27596 0.68921 0.57258 0.0
C1014 C 0.29096 0.71097 0.56798 0.0
H1015 H 0.3705 0.74102 0.55553 0.0
H1016 H 0.34386 0.71964 0.56239 0.0
H1017 H 0.35057 0.72146 0.54193 0.0
H1018 H 0.31187 0.69982 0.53571 0.0
H1019 H 0.28614 0.66157 0.54412 0.0
H1020 H 0.53429 0.39193 0.69798 0.0
H1021 H 0.54047 0.36097 0.69993 0.0
H1022 H 0.59436 0.39902 0.73193 0.0
H1023 H 0.58927 0.43071 0.72913 0.0
H1024 H 0.60552 0.37894 0.71241 0.0
H1025 H 0.52256 0.31694 0.73401 0.0
H1026 H 0.52143 0.32787 0.71532 0.0
H1027 H 0.53162 0.346 0.73215 0.0
C1028 C 0.54763 0.39387 0.70531 0.0
C1029 C 0.56148 0.41396 0.71332 0.0
C1030 C 0.55091 0.37594 0.70661 0.0
C1031 C 0.56756 0.3774 0.71636 0.0
C1032 C 0.58136 0.39742 0.72436 0.0
H1033 H 0.58013 0.26962 0.7523 0.0
H1034 H 0.56931 0.2968 0.7467 0.0
C1035 C 0.57843 0.41551 0.72278 0.0
C1036 C 0.57111 0.3584 0.71795 0.0
H1037 H 0.54558 0.30306 0.72662 0.0
C1038 C 0.59241 0.36237 0.71558 0.0
C1039 C 0.55409 0.33681 0.7223 0.0
C1040 C 0.53121 0.33169 0.72625 0.0
C1041 C 0.59724 0.34552 0.71755 0.0
C1042 C 0.58003 0.3237 0.72122 0.0
C1043 C 0.5587 0.31967 0.72354 0.0
C1044 C 0.58416 0.3052 0.72368 0.0
C1045 C 0.62095 0.35164 0.71629 0.0
C1046 C 0.59518 0.30008 0.71234 0.0
C1047 C 0.60184 0.28495 0.71568 0.0
C1048 C 0.59684 0.27408 0.7302 0.0
C1049 C 0.58414 0.27773 0.741 0.0
C1050 C 0.57799 0.29331 0.73781 0.0
H1051 H 0.63247 0.36974 0.71816 0.0
H1052 H 0.62489 0.34244 0.72497 0.0
H1053 H 0.62396 0.34749 0.70438 0.0
H1054 H 0.59937 0.30838 0.70111 0.0
H1055 H 0.61141 0.28221 0.7071 0.0
H1056 H 0.14941 0.5267 0.88688 0.0
H1057 H 0.18389 0.52687 0.8896 0.0
H1058 H 0.21824 0.58889 0.86448 0.0
H1059 H 0.18381 0.58868 0.86156 0.0
H1060 H 0.22965 0.55659 0.85539 0.0
H1061 H 0.23314 0.56984 0.91988 0.0
H1062 H 0.20837 0.54628 0.91234 0.0
H1063 H 0.21505 0.57389 0.9073 0.0
C1064 C 0.16427 0.54017 0.88174 0.0
C1065 C 0.16389 0.55753 0.87381 0.0
C1066 C 0.18394 0.54032 0.88339 0.0
C1067 C 0.2036 0.55797 0.87733 0.0
C1068 C 0.2032 0.57508 0.86918 0.0
H1069 H 0.34187 0.61565 0.87848 0.0
H1070 H 0.3035 0.60157 0.87174 0.0
C1071 C 0.18356 0.57494 0.86752 0.0
C1072 C 0.22483 0.55923 0.87999 0.0
H1073 H 0.26231 0.56816 0.90849 0.0
C1074 C 0.23674 0.55892 0.867 0.0
C1075 C 0.23395 0.56216 0.89517 0.0
C1076 C 0.22211 0.56324 0.9095 0.0
C1077 C 0.25777 0.56189 0.86876 0.0
C1078 C 0.26724 0.56569 0.88388 0.0
C1079 C 0.25498 0.56518 0.89691 0.0
C1080 C 0.29053 0.57234 0.88639 0.0
C1081 C 0.26968 0.56109 0.85441 0.0
C1082 C 0.29606 0.56061 0.89689 0.0
C1083 C 0.31807 0.56874 0.90087 0.0
C1084 C 0.33487 0.58885 0.89451 0.0
C1085 C 0.32933 0.60008 0.88355 0.0
C1086 C 0.30737 0.59196 0.87958 0.0
H1087 H 0.25793 0.55085 0.845 0.0
H1088 H 0.28023 0.57819 0.84981 0.0
H1089 H 0.28031 0.55422 0.85716 0.0
H1090 H 0.28329 0.54552 0.90236 0.0
H1091 H 0.32183 0.55975 0.90938 0.0
H1092 H 0.60386 0.17525 0.99868 0.0
H1093 H 0.63833 0.20683 0.00846 0.0
H1094 H 0.60977 0.19783 0.05438 0.0
H1095 H 0.57504 0.16674 0.04451 0.0
H1096 H 0.62673 0.23914 0.04457 0.0
H1097 H 0.68845 0.21455 0.03546 0.0
H1098 H 0.67319 0.21165 0.01795 0.0
H1099 H 0.65922 0.19478 0.03474 0.0
C1100 C 0.60516 0.17971 0.01095 0.0
C1101 C 0.58691 0.16833 0.02089 0.0
C1102 C 0.6249 0.19764 0.01656 0.0
C1103 C 0.62678 0.20445 0.03223 0.0
C1104 C 0.60875 0.19271 0.04229 0.0
H1105 H 0.74339 0.31574 0.07582 0.0
H1106 H 0.71443 0.27828 0.06786 0.0
C1107 C 0.58895 0.17491 0.03666 0.0
C1108 C 0.64646 0.2254 0.03759 0.0
H1109 H 0.70263 0.25372 0.03903 0.0
C1110 C 0.6433 0.24219 0.04352 0.0
C1111 C 0.66807 0.22934 0.03634 0.0
C1112 C 0.67245 0.21153 0.03093 0.0
C1113 C 0.66113 0.26301 0.04781 0.0
C1114 C 0.68277 0.26738 0.04573 0.0
C1115 C 0.68601 0.25041 0.04033 0.0
C1116 C 0.70207 0.28961 0.04915 0.0
C1117 C 0.65662 0.28015 0.05456 0.0
C1118 C 0.70519 0.30824 0.04084 0.0
C1119 C 0.72156 0.32959 0.0454 0.0
C1120 C 0.73521 0.33264 0.05826 0.0
C1121 C 0.73301 0.31388 0.06592 0.0
C1122 C 0.71652 0.29249 0.06139 0.0
H1123 H 0.63962 0.27238 0.05922 0.0
H1124 H 0.6684 0.28974 0.06412 0.0
H1125 H 0.65849 0.29197 0.04522 0.0
H1126 H 0.69444 0.30628 0.03116 0.0
H1127 H 0.72303 0.34372 0.03917 0.0
H1128 H 0.42219 0.58425 0.21402 0.0
H1129 H 0.42617 0.61876 0.22428 0.0
H1130 H 0.45732 0.65232 0.18131 0.0
H1131 H 0.45381 0.618 0.17112 0.0
H1132 H 0.476 0.67922 0.20877 0.0
H1133 H 0.38486 0.63787 0.206 0.0
H1134 H 0.39497 0.6239 0.21782 0.0
H1135 H 0.39954 0.62607 0.19704 0.0
C1136 C 0.43041 0.59915 0.20694 0.0
C1137 C 0.43788 0.59852 0.19182 0.0
C1138 C 0.43255 0.61879 0.21277 0.0
C1139 C 0.44182 0.638 0.20348 0.0
C1140 C 0.45019 0.6377 0.18868 0.0
H1141 H 0.40975 0.73937 0.20426 0.0
H1142 H 0.41925 0.71158 0.19759 0.0
C1143 C 0.44815 0.6181 0.18287 0.0
C1144 C 0.44077 0.65766 0.20843 0.0
H1145 H 0.40435 0.67452 0.21558 0.0
C1146 C 0.46037 0.67825 0.21035 0.0
C1147 C 0.42033 0.65633 0.21025 0.0
C1148 C 0.3987 0.63493 0.20755 0.0
C1149 C 0.46003 0.69763 0.21399 0.0
C1150 C 0.43956 0.69621 0.21587 0.0
C1151 C 0.42003 0.67555 0.21414 0.0
C1152 C 0.43758 0.71591 0.21891 0.0
C1153 C 0.48147 0.71951 0.21532 0.0
C1154 C 0.44543 0.72817 0.23288 0.0
C1155 C 0.4402 0.74436 0.23665 0.0
C1156 C 0.42678 0.74815 0.2266 0.0
C1157 C 0.41999 0.73668 0.21227 0.0
C1158 C 0.42541 0.7208 0.20845 0.0
H1159 H 0.49537 0.71863 0.21018 0.0
H1160 H 0.48033 0.73295 0.2094 0.0
H1161 H 0.48522 0.72406 0.22787 0.0
H1162 H 0.45455 0.72444 0.24124 0.0
H1163 H 0.4455 0.75286 0.24782 0.0
H1164 H 0.82713 0.41503 0.35983 0.0
H1165 H 0.79555 0.41566 0.3707 0.0
H1166 H 0.81757 0.47884 0.34846 0.0
H1167 H 0.84875 0.47788 0.33711 0.0
H1168 H 0.7905 0.44432 0.38967 0.0
H1169 H 0.75639 0.44048 0.3303 0.0
H1170 H 0.77912 0.43634 0.33355 0.0
H1171 H 0.78349 0.46394 0.33371 0.0
C1172 C 0.82527 0.4291 0.35735 0.0
C1173 C 0.84019 0.44625 0.34745 0.0
C1174 C 0.8073 0.4295 0.3636 0.0
C1175 C 0.80397 0.44708 0.36012 0.0
C1176 C 0.81954 0.46486 0.35098 0.0
H1177 H 0.69068 0.44591 0.40462 0.0
H1178 H 0.72858 0.45981 0.39594 0.0
C1179 C 0.83739 0.46435 0.34459 0.0
C1180 C 0.78352 0.446 0.36535 0.0
H1181 H 0.73587 0.44085 0.35168 0.0
C1182 C 0.77862 0.44379 0.3814 0.0
C1183 C 0.76801 0.44516 0.3545 0.0
C1184 C 0.77184 0.44641 0.33705 0.0
C1185 C 0.75832 0.44004 0.38686 0.0
C1186 C 0.74271 0.4389 0.37598 0.0
C1187 C 0.74795 0.44191 0.35999 0.0
C1188 C 0.7199 0.43183 0.38062 0.0
C1189 C 0.75332 0.43618 0.40412 0.0
C1190 C 0.70244 0.41199 0.37446 0.0
C1191 C 0.68091 0.40419 0.37924 0.0
C1192 C 0.67633 0.41607 0.39031 0.0
C1193 C 0.69372 0.43637 0.39611 0.0
C1194 C 0.71538 0.44423 0.39126 0.0
H1195 H 0.76547 0.43359 0.41049 0.0
H1196 H 0.75371 0.45088 0.4093 0.0
H1197 H 0.73664 0.42146 0.40603 0.0
H1198 H 0.70554 0.4022 0.3662 0.0
H1199 H 0.66791 0.38853 0.37451 0.0
H1200 H 0.06408 0.55713 0.44321 0.0
H1201 H 0.08576 0.56368 0.46698 0.0
H1202 H 0.14229 0.5784 0.43906 0.0
H1203 H 0.12026 0.57056 0.41522 0.0
H1204 H 0.14052 0.55546 0.46407 0.0
H1205 H 0.12908 0.6245 0.48252 0.0
H1206 H 0.10349 0.59865 0.48067 0.0
H1207 H 0.12027 0.61133 0.46362 0.0
C1208 C 0.081 0.56135 0.44211 0.0
C1209 C 0.09043 0.56313 0.4273 0.0
C1210 C 0.09347 0.56536 0.45573 0.0
C1211 C 0.11581 0.57204 0.45481 0.0
C1212 C 0.1251 0.57333 0.44008 0.0
H1213 H 0.2099 0.64564 0.52788 0.0
H1214 H 0.1885 0.63266 0.50371 0.0
C1215 C 0.11254 0.56888 0.42647 0.0
C1216 C 0.12972 0.57839 0.46911 0.0
H1217 H 0.14644 0.61311 0.50076 0.0
C1218 C 0.14189 0.56812 0.47208 0.0
C1219 C 0.13182 0.5952 0.47942 0.0
C1220 C 0.12066 0.60822 0.47633 0.0
C1221 C 0.15605 0.57415 0.48508 0.0
C1222 C 0.1575 0.59038 0.49568 0.0
C1223 C 0.14526 0.60057 0.4927 0.0
C1224 C 0.17201 0.59772 0.50971 0.0
C1225 C 0.16976 0.56355 0.48699 0.0
C1226 C 0.17022 0.58241 0.52107 0.0
C1227 C 0.18288 0.58981 0.53479 0.0
C1228 C 0.19703 0.61268 0.53755 0.0
C1229 C 0.199 0.62792 0.5261 0.0
C1230 C 0.18675 0.62051 0.51229 0.0
H1231 H 0.17189 0.55708 0.47566 0.0
H1232 H 0.18628 0.57554 0.49184 0.0
H1233 H 0.16133 0.54929 0.49514 0.0
H1234 H 0.15857 0.5648 0.51959 0.0
H1235 H 0.18089 0.57773 0.5435 0.0
H1236 H 0.5658 0.09643 0.5947 0.0
H1237 H 0.57804 0.12555 0.61447 0.0
H1238 H 0.5261 0.08 0.64524 0.0
H1239 H 0.51284 0.05111 0.62505 0.0
H1240 H 0.53199 0.12033 0.64792 0.0
H1241 H 0.61311 0.12672 0.65126 0.0
H1242 H 0.60731 0.13314 0.63221 0.0
H1243 H 0.59059 0.10546 0.63995 0.0
C1244 C 0.55669 0.09264 0.60554 0.0
C1245 C 0.5383 0.07134 0.60833 0.0
C1246 C 0.56388 0.1093 0.61692 0.0
C1247 C 0.55336 0.1048 0.63151 0.0
C1248 C 0.53456 0.08384 0.6341 0.0
H1249 H 0.61627 0.17017 0.71718 0.0
H1250 H 0.59769 0.14479 0.69534 0.0
C1251 C 0.52706 0.06733 0.6226 0.0
C1252 C 0.56256 0.1214 0.64438 0.0
H1253 H 0.60882 0.15234 0.66637 0.0
C1254 C 0.54879 0.12734 0.652 0.0
C1255 C 0.58439 0.1303 0.64981 0.0
C1256 C 0.59963 0.12342 0.643 0.0
C1257 C 0.55616 0.1417 0.66502 0.0
C1258 C 0.57814 0.15092 0.67022 0.0
C1259 C 0.59198 0.14531 0.66238 0.0
C1260 C 0.58707 0.16544 0.68427 0.0
C1261 C 0.54009 0.14614 0.67336 0.0
C1262 C 0.58688 0.1853 0.68556 0.0
C1263 C 0.59705 0.19959 0.69833 0.0
C1264 C 0.60811 0.19452 0.70969 0.0
C1265 C 0.60799 0.17453 0.7085 0.0
C1266 C 0.59739 0.16005 0.69602 0.0
H1267 H 0.52277 0.13307 0.67078 0.0
H1268 H 0.54263 0.14704 0.68623 0.0
H1269 H 0.54251 0.16227 0.66934 0.0
H1270 H 0.57953 0.19014 0.67648 0.0
H1271 H 0.59713 0.21505 0.69895 0.0
H1272 H 0.43855 0.54015 0.74516 0.0
H1273 H 0.43625 0.56259 0.77287 0.0
H1274 H 0.43584 0.50483 0.80759 0.0
H1275 H 0.43783 0.48079 0.7808 0.0
H1276 H 0.41194 0.51807 0.81797 0.0
H1277 H 0.48062 0.60204 0.80378 0.0
H1278 H 0.46004 0.59293 0.78886 0.0
H1279 H 0.47445 0.57825 0.79198 0.0
C1280 C 0.43738 0.53333 0.7567 0.0
C1281 C 0.44252 0.51025 0.7603 0.0
C1282 C 0.43723 0.54782 0.77407 0.0
C1283 C 0.43763 0.53726 0.79331 0.0
C1284 C 0.43648 0.5111 0.79593 0.0
H1285 H 0.4602 0.61901 0.87595 0.0
H1286 H 0.46386 0.59946 0.85358 0.0
C1287 C 0.43655 0.49538 0.77931 0.0
C1288 C 0.43647 0.54888 0.80739 0.0
H1289 H 0.45597 0.60006 0.82385 0.0
C1290 C 0.42183 0.53599 0.8193 0.0
C1291 C 0.44948 0.57224 0.8093 0.0
C1292 C 0.46717 0.58705 0.79784 0.0
C1293 C 0.4195 0.54578 0.83292 0.0
C1294 C 0.43151 0.56923 0.83439 0.0
C1295 C 0.44646 0.58211 0.82261 0.0
C1296 C 0.42906 0.58077 0.84812 0.0
C1297 C 0.40456 0.5308 0.8457 0.0
C1298 C 0.4083 0.57695 0.85243 0.0
C1299 C 0.40611 0.58782 0.86539 0.0
C1300 C 0.42472 0.60315 0.87405 0.0
C1301 C 0.44554 0.60731 0.86951 0.0
C1302 C 0.44766 0.59615 0.85671 0.0
H1303 H 0.40251 0.51402 0.84506 0.0
H1304 H 0.41101 0.53791 0.85748 0.0
H1305 H 0.38804 0.52869 0.84428 0.0
H1306 H 0.39379 0.56569 0.8457 0.0
H1307 H 0.38988 0.58448 0.86846 0.0
H1308 H 0.96095 0.47151 0.95183 0.0
H1309 H 0.93125 0.4505 0.97055 0.0
H1310 H 0.89886 0.48481 0.95487 0.0
H1311 H 0.92844 0.50566 0.93592 0.0
H1312 H 0.91994 0.46876 0.99468 0.0
H1313 H 0.84858 0.41975 0.95502 0.0
H1314 H 0.87669 0.43325 0.94832 0.0
H1315 H 0.86373 0.44917 0.9514 0.0
C1316 C 0.94727 0.47424 0.95216 0.0
C1317 C 0.94681 0.48994 0.94224 0.0
C1318 C 0.93037 0.46231 0.96289 0.0
C1319 C 0.9127 0.46587 0.96396 0.0
C1320 C 0.91208 0.48142 0.954 0.0
H1321 H 0.81145 0.42382 0.03561 0.0
H1322 H 0.83679 0.443 0.0139 0.0
C1323 C 0.92899 0.49336 0.94322 0.0
C1324 C 0.89579 0.45435 0.97623 0.0
H1325 H 0.84085 0.41831 0.98219 0.0
C1326 C 0.90266 0.45771 0.99194 0.0
C1327 C 0.87324 0.43997 0.97261 0.0
C1328 C 0.86507 0.43511 0.95593 0.0
C1329 C 0.8876 0.44709 0.00412 0.0
C1330 C 0.86514 0.43271 0.0005 0.0
C1331 C 0.85814 0.42945 0.98485 0.0
C1332 C 0.8489 0.42042 0.01293 0.0
C1333 C 0.89569 0.45121 0.02084 0.0
C1334 C 0.84727 0.40129 0.01937 0.0
C1335 C 0.83282 0.39025 0.03172 0.0
C1336 C 0.8198 0.39823 0.03791 0.0
C1337 C 0.82126 0.41725 0.03119 0.0
C1338 C 0.83566 0.42821 0.01876 0.0
H1339 H 0.91327 0.46457 0.0218 0.0
H1340 H 0.88567 0.45588 0.02804 0.0
H1341 H 0.89373 0.43569 0.0258 0.0
H1342 H 0.85742 0.3951 0.01497 0.0
H1343 H 0.83217 0.37568 0.03657 0.0
H1344 H 0.53143 0.93595 0.1004 0.0
H1345 H 0.51854 0.91787 0.12595 0.0
H1346 H 0.45221 0.88041 0.10802 0.0
H1347 H 0.46501 0.89821 0.08248 0.0
H1348 H 0.48658 0.91686 0.14625 0.0
H1349 H 0.46307 0.83245 0.12566 0.0
H1350 H 0.48038 0.85719 0.11437 0.0
H1351 H 0.45102 0.845 0.11433 0.0
C1352 C 0.51408 0.92398 0.10199 0.0
C1353 C 0.49916 0.91861 0.08952 0.0
C1354 C 0.50677 0.91365 0.11653 0.0
C1355 C 0.48449 0.89761 0.11877 0.0
C1356 C 0.46953 0.89247 0.10643 0.0
H1357 H 0.40318 0.8437 0.19904 0.0
H1358 H 0.42457 0.86529 0.17655 0.0
C1359 C 0.47682 0.90277 0.0919 0.0
C1360 C 0.47673 0.88624 0.13402 0.0
H1361 H 0.44964 0.8348 0.15077 0.0
C1362 C 0.47871 0.89895 0.1473 0.0
C1363 C 0.46683 0.86292 0.1354 0.0
C1364 C 0.46537 0.84859 0.12172 0.0
C1365 C 0.47009 0.88879 0.16179 0.0
C1366 C 0.45905 0.86535 0.16293 0.0
C1367 C 0.45797 0.85276 0.14983 0.0
C1368 C 0.44726 0.85342 0.17729 0.0
C1369 C 0.47273 0.90319 0.17573 0.0
C1370 C 0.45277 0.83935 0.18505 0.0
C1371 C 0.44049 0.82685 0.19793 0.0
C1372 C 0.42231 0.82802 0.20313 0.0
C1373 C 0.41703 0.84234 0.19537 0.0
C1374 C 0.42936 0.85487 0.18258 0.0
H1375 H 0.48676 0.92048 0.17419 0.0
H1376 H 0.45756 0.9039 0.17712 0.0
H1377 H 0.47532 0.89628 0.18666 0.0
H1378 H 0.46643 0.83789 0.18104 0.0
H1379 H 0.44497 0.81595 0.20359 0.0
H1380 H 0.57897 0.46606 0.24939 0.0
H1381 H 0.57904 0.44793 0.27378 0.0
H1382 H 0.57764 0.49956 0.30026 0.0
H1383 H 0.57855 0.51827 0.27587 0.0
H1384 H 0.60681 0.49131 0.31218 0.0
H1385 H 0.5296 0.41092 0.30306 0.0
H1386 H 0.54825 0.41705 0.28712 0.0
H1387 H 0.53731 0.43476 0.29084 0.0
C1388 C 0.57832 0.47332 0.26043 0.0
C1389 C 0.57812 0.49322 0.26071 0.0
C1390 C 0.57825 0.4629 0.27436 0.0
C1391 C 0.57773 0.47203 0.28887 0.0
C1392 C 0.57774 0.49204 0.2892 0.0
H1393 H 0.55376 0.39483 0.37422 0.0
H1394 H 0.55097 0.41552 0.35226 0.0
C1395 C 0.57809 0.50263 0.27526 0.0
C1396 C 0.57835 0.46129 0.30367 0.0
H1397 H 0.55411 0.41148 0.32266 0.0
C1398 C 0.59513 0.47391 0.31456 0.0
C1399 C 0.56289 0.4387 0.30695 0.0
C1400 C 0.54337 0.42466 0.29644 0.0
C1401 C 0.59726 0.46441 0.3284 0.0
C1402 C 0.58268 0.44144 0.33117 0.0
C1403 C 0.56552 0.429 0.32048 0.0
C1404 C 0.58485 0.42985 0.34498 0.0
C1405 C 0.61492 0.47925 0.33998 0.0
C1406 C 0.6048 0.43093 0.34824 0.0
C1407 C 0.60654 0.41948 0.361 0.0
C1408 C 0.58818 0.40618 0.37047 0.0
C1409 C 0.56816 0.40486 0.36708 0.0
C1410 C 0.56656 0.41669 0.35454 0.0
H1411 H 0.61925 0.49682 0.33886 0.0
H1412 H 0.6097 0.47381 0.35222 0.0
H1413 H 0.63002 0.47876 0.33761 0.0
H1414 H 0.61896 0.44032 0.34076 0.0
H1415 H 0.62211 0.42058 0.36321 0.0
H1416 H 0.47117 0.90771 0.39982 0.0
H1417 H 0.46796 0.88938 0.37467 0.0
H1418 H 0.42506 0.91129 0.35758 0.0
H1419 H 0.42856 0.92997 0.38256 0.0
H1420 H 0.4306 0.85582 0.3612 0.0
H1421 H 0.4686 0.92879 0.32192 0.0
H1422 H 0.4717 0.93135 0.34294 0.0
H1423 H 0.44726 0.92784 0.33373 0.0
C1424 C 0.46136 0.9089 0.39058 0.0
C1425 C 0.4504 0.92056 0.39302 0.0
C1426 C 0.45951 0.8984 0.37626 0.0
C1427 C 0.44665 0.89937 0.36415 0.0
C1428 C 0.43558 0.91089 0.3666 0.0
H1429 H 0.38468 0.83699 0.27934 0.0
H1430 H 0.39948 0.85828 0.30342 0.0
C1431 C 0.43748 0.92144 0.38088 0.0
C1432 C 0.44355 0.88715 0.34931 0.0
H1433 H 0.44545 0.89318 0.30961 0.0
C1434 C 0.43421 0.864 0.34991 0.0
C1435 C 0.44843 0.89792 0.33462 0.0
C1436 C 0.45977 0.92288 0.33324 0.0
C1437 C 0.42842 0.85117 0.33617 0.0
C1438 C 0.43224 0.86185 0.32152 0.0
C1439 C 0.44246 0.88507 0.3209 0.0
C1440 C 0.42393 0.84907 0.30679 0.0
C1441 C 0.41727 0.82622 0.33739 0.0
C1442 C 0.43294 0.83695 0.30068 0.0
C1443 C 0.42452 0.82469 0.28683 0.0
C1444 C 0.40694 0.82438 0.27891 0.0
C1445 C 0.39814 0.83673 0.28511 0.0
C1446 C 0.40661 0.84899 0.29886 0.0
H1447 H 0.413 0.82034 0.34967 0.0
H1448 H 0.40201 0.81804 0.33021 0.0
H1449 H 0.42839 0.82083 0.33279 0.0
H1450 H 0.44647 0.83701 0.3066 0.0
H1451 H 0.43171 0.81542 0.28238 0.0
H1452 H 0.52706 0.44484 0.55599 0.0
H1453 H 0.53373 0.43019 0.53188 0.0
H1454 H 0.59976 0.48698 0.5299 0.0
H1455 H 0.59324 0.50164 0.55398 0.0
H1456 H 0.54703 0.45146 0.50177 0.0
H1457 H 0.60788 0.43283 0.52723 0.0
H1458 H 0.58973 0.43759 0.53917 0.0
H1459 H 0.61363 0.46064 0.53044 0.0
C1460 C 0.54291 0.45428 0.55031 0.0
C1461 C 0.5595 0.47461 0.55667 0.0
C1462 C 0.54672 0.44588 0.5366 0.0
C1463 C 0.56728 0.45745 0.52921 0.0
C1464 C 0.58386 0.4777 0.53553 0.0
H1465 H 0.61874 0.42752 0.44585 0.0
H1466 H 0.61444 0.44551 0.46906 0.0
C1467 C 0.58006 0.48613 0.54919 0.0
C1468 C 0.57132 0.44841 0.51479 0.0
H1469 H 0.60202 0.42798 0.49988 0.0
C1470 C 0.55902 0.44629 0.50134 0.0
C1471 C 0.58709 0.44184 0.51429 0.0
C1472 C 0.60026 0.44314 0.52857 0.0
C1473 C 0.56213 0.43783 0.48733 0.0
C1474 C 0.57765 0.43094 0.48688 0.0
C1475 C 0.59017 0.43334 0.50027 0.0
C1476 C 0.58036 0.42021 0.47284 0.0
C1477 C 0.54893 0.43654 0.47307 0.0
C1478 C 0.56273 0.39989 0.46748 0.0
C1479 C 0.5651 0.38957 0.45429 0.0
C1480 C 0.58522 0.39932 0.4462 0.0
C1481 C 0.60299 0.41959 0.45174 0.0
C1482 C 0.60059 0.42989 0.465 0.0
H1483 H 0.54249 0.44794 0.47407 0.0
H1484 H 0.55899 0.44071 0.46228 0.0
H1485 H 0.53466 0.41934 0.47183 0.0
H1486 H 0.54712 0.39191 0.47356 0.0
H1487 H 0.55107 0.37393 0.45046 0.0
H1488 H 0.08985 0.49196 0.72163 0.0
H1489 H 0.10773 0.50537 0.69616 0.0
H1490 H 0.11857 0.57044 0.70655 0.0
H1491 H 0.10166 0.55742 0.73223 0.0
H1492 H 0.09982 0.5236 0.67081 0.0
H1493 H 0.18018 0.58491 0.69719 0.0
H1494 H 0.15785 0.56372 0.70862 0.0
H1495 H 0.15839 0.58888 0.70355 0.0
C1496 C 0.09619 0.50915 0.71849 0.0
C1497 C 0.09496 0.52383 0.7291 0.0
C1498 C 0.10627 0.51676 0.70392 0.0
C1499 C 0.11506 0.53907 0.69965 0.0
C1500 C 0.11258 0.55335 0.70982 0.0
H1501 H 0.17911 0.62252 0.62084 0.0
H1502 H 0.15713 0.60336 0.64379 0.0
C1503 C 0.10278 0.54586 0.72444 0.0
C1504 C 0.12724 0.54762 0.68475 0.0
H1505 H 0.17628 0.58823 0.66977 0.0
C1506 C 0.1166 0.53759 0.67058 0.0
C1507 C 0.14925 0.56574 0.68447 0.0
C1508 C 0.16217 0.57629 0.69928 0.0
C1509 C 0.12716 0.54576 0.65612 0.0
C1510 C 0.1488 0.56433 0.65591 0.0
C1511 C 0.15959 0.57405 0.67004 0.0
C1512 C 0.16042 0.57461 0.64116 0.0
C1513 C 0.11503 0.53495 0.64114 0.0
C1514 C 0.16942 0.56462 0.63206 0.0
C1515 C 0.18219 0.5756 0.61892 0.0
C1516 C 0.18612 0.59673 0.6147 0.0
C1517 C 0.17652 0.60632 0.6237 0.0
C1518 C 0.1639 0.5954 0.63683 0.0
H1519 H 0.09758 0.52192 0.64325 0.0
H1520 H 0.11556 0.54769 0.63316 0.0
H1521 H 0.12327 0.52721 0.6351 0.0
H1522 H 0.16704 0.54864 0.63537 0.0
H1523 H 0.18931 0.56772 0.61228 0.0
H1524 H 0.54435 0.11068 0.91016 0.0
H1525 H 0.5474 0.1309 0.87991 0.0
H1526 H 0.61354 0.12658 0.86578 0.0
H1527 H 0.6121 0.10601 0.89538 0.0
H1528 H 0.58216 0.16803 0.86486 0.0
H1529 H 0.57405 0.10041 0.82683 0.0
H1530 H 0.56572 0.09615 0.84707 0.0
H1531 H 0.59416 0.10746 0.84194 0.0
C1532 C 0.55755 0.11431 0.90213 0.0
C1533 C 0.57559 0.10244 0.90469 0.0
C1534 C 0.55894 0.12583 0.88302 0.0
C1535 C 0.57961 0.12922 0.86911 0.0
C1536 C 0.6006 0.12296 0.87404 0.0
H1537 H 0.64828 0.19973 0.78966 0.0
H1538 H 0.63222 0.17785 0.81324 0.0
C1539 C 0.60066 0.11141 0.89278 0.0
C1540 C 0.58136 0.13996 0.85396 0.0
H1541 H 0.5914 0.13679 0.81532 0.0
C1542 C 0.58372 0.16106 0.85394 0.0
C1543 C 0.58319 0.13069 0.83978 0.0
C1544 C 0.57892 0.10733 0.83886 0.0
C1545 C 0.58965 0.17393 0.84023 0.0
C1546 C 0.59295 0.16522 0.82626 0.0
C1547 C 0.58916 0.14353 0.82612 0.0
C1548 C 0.60237 0.17896 0.81205 0.0
C1549 C 0.59364 0.1972 0.841 0.0
C1550 C 0.59086 0.18685 0.80355 0.0
C1551 C 0.60005 0.19949 0.78999 0.0
C1552 C 0.62085 0.20432 0.7847 0.0
C1553 C 0.63225 0.19636 0.79333 0.0
C1554 C 0.62309 0.1838 0.80683 0.0
H1555 H 0.59363 0.20262 0.85323 0.0
H1556 H 0.60963 0.20918 0.83551 0.0
H1557 H 0.58049 0.19781 0.8344 0.0
H1558 H 0.5747 0.18301 0.80728 0.0
H1559 H 0.59076 0.20526 0.7836 0.0
H1560 H 0.49299 0.53538 0.0369 0.0
H1561 H 0.48404 0.55558 0.01789 0.0
H1562 H 0.4167 0.52039 0.03362 0.0
H1563 H 0.42564 0.50024 0.0528 0.0
H1564 H 0.45259 0.53554 0.99377 0.0
H1565 H 0.43338 0.58623 0.03333 0.0
H1566 H 0.44851 0.57344 0.03981 0.0
H1567 H 0.41919 0.55693 0.03743 0.0
C1568 C 0.47638 0.53225 0.03649 0.0
C1569 C 0.4601 0.51654 0.04651 0.0
C1570 C 0.47127 0.54373 0.0256 0.0
C1571 C 0.44979 0.53969 0.0245 0.0
C1572 C 0.43348 0.52409 0.03452 0.0
H1573 H 0.39566 0.57587 0.94602 0.0
H1574 H 0.40053 0.55626 0.96788 0.0
C1575 C 0.43858 0.51258 0.04544 0.0
C1576 C 0.4443 0.55089 0.01219 0.0
H1577 H 0.42724 0.58777 0.0062 0.0
C1578 C 0.44699 0.54691 0.99648 0.0
C1579 C 0.43707 0.56576 0.0158 0.0
C1580 C 0.4345 0.57105 0.0325 0.0
C1581 C 0.44266 0.55743 0.98426 0.0
C1582 C 0.43539 0.57223 0.98787 0.0
C1583 C 0.43266 0.57624 0.00355 0.0
C1584 C 0.43159 0.58443 0.97541 0.0
C1585 C 0.44628 0.55308 0.96756 0.0
C1586 C 0.44732 0.60681 0.97264 0.0
C1587 C 0.4447 0.61804 0.96014 0.0
C1588 C 0.42619 0.6071 0.95023 0.0
C1589 C 0.41012 0.58481 0.95338 0.0
C1590 C 0.41285 0.57355 0.96584 0.0
H1591 H 0.454 0.5428 0.96681 0.0
H1592 H 0.43025 0.54426 0.96131 0.0
H1593 H 0.45692 0.56906 0.96141 0.0
H1594 H 0.46189 0.61543 0.97993 0.0
H1595 H 0.45734 0.63522 0.95813 0.0
H1596 H 0.93866 0.44955 0.21026 0.0
H1597 H 0.90822 0.43613 0.19151 0.0
H1598 H 0.92509 0.50363 0.18283 0.0
H1599 H 0.95574 0.51717 0.20144 0.0
H1600 H 0.87151 0.44234 0.19081 0.0
H1601 H 0.92622 0.4794 0.13912 0.0
H1602 H 0.93629 0.47651 0.15784 0.0
H1603 H 0.93039 0.49821 0.15487 0.0
C1604 C 0.93572 0.46148 0.20446 0.0
C1605 C 0.94941 0.48438 0.2074 0.0
C1606 C 0.91837 0.45382 0.19377 0.0
C1607 C 0.91455 0.46891 0.18572 0.0
C1608 C 0.92795 0.49175 0.1888 0.0
H1609 H 0.82202 0.4366 0.10756 0.0
H1610 H 0.84701 0.45708 0.12933 0.0
C1611 C 0.94533 0.49944 0.19948 0.0
C1612 C 0.8969 0.46061 0.17378 0.0
H1613 H 0.88811 0.45921 0.13438 0.0
C1614 C 0.87509 0.44616 0.17848 0.0
C1615 C 0.90166 0.46576 0.15773 0.0
C1616 C 0.9249 0.48068 0.15199 0.0
C1617 C 0.85793 0.43627 0.16748 0.0
C1618 C 0.86282 0.44075 0.1514 0.0
C1619 C 0.88447 0.45589 0.14675 0.0
C1620 C 0.84619 0.42827 0.13911 0.0
C1621 C 0.83475 0.4209 0.17312 0.0
C1622 C 0.83754 0.40536 0.13745 0.0
C1623 C 0.82348 0.39368 0.12501 0.0
C1624 C 0.81776 0.4047 0.11397 0.0
C1625 C 0.82605 0.4276 0.11588 0.0
C1626 C 0.84032 0.43933 0.12829 0.0
H1627 H 0.8328 0.42414 0.18557 0.0
H1628 H 0.82272 0.42267 0.16589 0.0
H1629 H 0.83077 0.40344 0.17214 0.0
H1630 H 0.84219 0.3966 0.14554 0.0
H1631 H 0.81735 0.37605 0.12395 0.0
loop_
_geom_bond_atom_site_label_1
_geom_bond_atom_site_label_2
_geom_bond_distance
_geom_bond_site_symmetry_2
_ccdc_geom_bond_type
C0 C1 1.560 . S
C0 H61 0.959 . S
C0 H62 0.959 . S
C0 H63 0.960 . S
C1 C0 1.560 . S
C1 O56 1.426 . S
C1 H60 0.980 . S
C2 C3 1.407 . S
C2 C7 1.418 . S
C2 O56 1.334 . S
C3 C2 1.407 . S
C3 C4 1.360 . S
C3 H64 0.929 . S
C4 C3 1.360 . S
C4 C5 1.401 . S
C4 C8 1.527 . S
C5 C4 1.401 . S
C5 C6 1.405 . S
C5 C38 1.587 . S
C6 C5 1.405 . S
C6 C7 1.332 . S
C6 C9 1.496 . S
C7 C2 1.418 . S
C7 C6 1.332 . S
C7 H65 0.929 . S
C8 C4 1.527 . S
C8 H66 0.959 . S
C8 H67 0.961 . S
C8 H68 0.961 . S
C9 C6 1.496 . S
C9 H69 0.960 . S
C9 H70 0.960 . S
C9 H71 0.961 . S
C10 C11 1.517 . S
C10 H73 0.961 . S
C10 H74 0.960 . S
C10 H75 0.959 . S
C11 C10 1.517 . S
C11 O59 1.468 . S
C11 H72 0.980 . S
C12 C13 1.349 . S
C12 C17 1.367 . S
C12 O59 1.408 . S
C13 C12 1.349 . S
C13 C14 1.407 . S
C13 H76 0.930 . S
C14 C13 1.407 . S
C14 C15 1.449 . S
C14 C18 1.535 . S
C15 C14 1.449 . S
C15 C16 1.384 . S
C15 C40 1.553 1_655 S
C16 C15 1.384 . S
C16 C17 1.364 . S
C16 C19 1.450 . S
C17 C12 1.367 . S
C17 C16 1.364 . S
C17 H77 0.931 . S
C18 C14 1.535 . S
C18 H78 0.959 1_655 S
C18 H79 0.961 1_655 S
C18 H80 0.959 . S
C19 C16 1.450 . S
C19 H81 0.960 . S
C19 H82 0.960 1_655 S
C19 H83 0.960 . S
C20 C21 1.309 . S
C20 C25 1.304 . S
C20 O58 1.435 . S
C21 C20 1.309 . S
C21 C22 1.476 . S
C21 H85 0.930 . S
C22 C21 1.476 . S
C22 C23 1.400 . S
C22 C26 1.567 . S
C23 C22 1.400 . S
C23 C24 1.373 . S
C23 C45 1.432 . S
C24 C23 1.373 . S
C24 C25 1.339 . S
C24 C27 1.530 . S
C25 C20 1.304 . S
C25 C24 1.339 . S
C25 H86 0.930 . S
C26 C22 1.567 . S
C26 H87 0.961 . S
C26 H88 0.960 . S
C26 H89 0.958 . S
C27 C24 1.530 . S
C27 H90 0.961 . S
C27 H91 0.960 . S
C27 H92 0.960 . S
C28 C29 1.530 . S
C28 H94 0.961 . S
C28 H95 0.961 . S
C28 H96 0.959 . S
C29 C28 1.530 . S
C29 O57 1.412 . S
C29 H93 0.980 . S
C30 C31 1.288 . S
C30 C35 1.377 . S
C30 O57 1.393 . S
C31 C30 1.288 . S
C31 C32 1.369 . S
C31 H97 0.932 . S
C32 C31 1.369 . S
C32 C33 1.398 . S
C32 C36 1.527 . S
C33 C32 1.398 . S
C33 C34 1.380 . S
C33 C47 1.497 . S
C34 C33 1.380 . S
C34 C35 1.383 . S
C34 C37 1.603 . S
C35 C30 1.377 . S
C35 C34 1.383 . S
C35 H98 0.929 . S
C36 C32 1.527 . S
C36 H99 0.961 . S
C36 H100 0.959 . S
C36 H101 0.959 . S
C37 C34 1.603 . S
C37 H102 0.960 . S
C37 H103 0.962 . S
C37 H104 0.961 . S
C38 C5 1.587 . S
C38 C39 1.360 . S
C38 C51 1.412 . S
C39 C38 1.360 . S
C39 C40 1.365 . S
C39 H105 0.929 . S
C40 C15 1.553 1_455 S
C40 C39 1.365 . S
C40 C41 1.428 . S
C41 C40 1.428 . S
C41 C42 1.346 1_455 S
C41 C52 1.479 . S
C42 C41 1.346 1_655 S
C42 C43 1.322 . S
C42 H106 0.930 . S
C43 C42 1.322 . S
C43 C44 1.459 . S
C43 H107 0.929 . S
C44 C43 1.459 . S
C44 C45 1.445 . S
C44 C53 1.395 1_655 S
C45 C23 1.432 . S
C45 C44 1.445 . S
C45 C46 1.370 . S
C46 C45 1.370 . S
C46 C47 1.438 1_655 S
C46 H108 0.930 . S
C47 C33 1.497 . S
C47 C46 1.438 1_455 S
C47 C48 1.360 . S
C48 C47 1.360 . S
C48 C49 1.401 . S
C48 C53 1.446 . S
C49 C48 1.401 . S
C49 C50 1.347 . S
C49 H109 0.929 . S
C50 C49 1.347 . S
C50 C51 1.455 . S
C50 H110 0.930 . S
C51 C38 1.412 . S
C51 C50 1.455 . S
C51 C52 1.331 . S
C52 C41 1.479 . S
C52 C51 1.331 . S
C52 C53 1.497 . S
C53 C44 1.395 1_455 S
C53 C48 1.446 . S
C53 C52 1.497 . S
C54 C55 1.582 . S
C54 H111 0.962 . S
C54 H112 0.959 . S
C54 H113 0.958 . S
C55 C54 1.582 . S
C55 O58 1.458 . S
C55 H84 0.980 . S
O56 C1 1.426 . S
O56 C2 1.334 . S
O57 C29 1.412 . S
O57 C30 1.393 . S
O58 C20 1.435 . S
O58 C55 1.458 . S
O59 C11 1.468 . S
O59 C12 1.408 . S
H60 C1 0.980 . S
H61 C0 0.959 . S
H62 C0 0.959 . S
H63 C0 0.960 . S
H64 C3 0.929 . S
H65 C7 0.929 . S
H66 C8 0.959 . S
H67 C8 0.961 . S
H68 C8 0.961 . S
H69 C9 0.960 . S
H70 C9 0.960 . S
H71 C9 0.961 . S
H72 C11 0.980 . S
H73 C10 0.961 . S
H74 C10 0.960 . S
H75 C10 0.959 . S
H76 C13 0.930 . S
H77 C17 0.931 . S
H78 C18 0.959 1_455 S
H79 C18 0.961 1_455 S
H80 C18 0.959 . S
H81 C19 0.960 . S
H82 C19 0.960 1_455 S
H83 C19 0.960 . S
H84 C55 0.980 . S
H85 C21 0.930 . S
H86 C25 0.930 . S
H87 C26 0.961 . S
H88 C26 0.960 . S
H89 C26 0.958 . S
H90 C27 0.961 . S
H91 C27 0.960 . S
H92 C27 0.960 . S
H93 C29 0.980 . S
H94 C28 0.961 . S
H95 C28 0.961 . S
H96 C28 0.959 . S
H97 C31 0.932 . S
H98 C35 0.929 . S
H99 C36 0.961 . S
H100 C36 0.959 . S
H101 C36 0.959 . S
H102 C37 0.960 . S
H103 C37 0.962 . S
H104 C37 0.961 . S
H105 C39 0.929 . S
H106 C42 0.930 . S
H107 C43 0.929 . S
H108 C46 0.930 . S
H109 C49 0.929 . S
H110 C50 0.930 . S
H111 C54 0.962 . S
H112 C54 0.959 . S
H113 C54 0.958 . S
C114 C115 1.560 . S
C114 H175 0.959 . S
C114 H176 0.959 . S
C114 H177 0.960 . S
C115 C114 1.560 . S
C115 O170 1.426 . S
C115 H174 0.980 . S
C116 C117 1.407 . S
C116 C121 1.418 . S
C116 O170 1.334 . S
C117 C116 1.407 . S
C117 C118 1.360 . S
C117 H178 0.929 . S
C118 C117 1.360 . S
C118 C119 1.401 . S
C118 C122 1.527 . S
C119 C118 1.401 . S
C119 C120 1.405 . S
C119 C152 1.587 . S
C120 C119 1.405 . S
C120 C121 1.332 . S
C120 C123 1.496 . S
C121 C116 1.418 . S
C121 C120 1.332 . S
C121 H179 0.929 . S
C122 C118 1.527 . S
C122 H180 0.959 . S
C122 H181 0.961 . S
C122 H182 0.961 . S
C123 C120 1.496 . S
C123 H183 0.960 . S
C123 H184 0.960 . S
C123 H185 0.961 . S
C124 C125 1.517 . S
C124 H187 0.961 . S
C124 H188 0.960 . S
C124 H189 0.959 . S
C125 C124 1.517 . S
C125 O173 1.468 . S
C125 H186 0.980 . S
C126 C127 1.349 . S
C126 C131 1.367 . S
C126 O173 1.408 . S
C127 C126 1.349 . S
C127 C128 1.407 . S
C127 H190 0.930 . S
C128 C127 1.407 . S
C128 C129 1.449 . S
C128 C132 1.535 . S
C129 C128 1.449 . S
C129 C130 1.384 . S
C129 C154 1.553 . S
C130 C129 1.384 . S
C130 C131 1.364 . S
C130 C133 1.450 . S
C131 C126 1.367 . S
C131 C130 1.364 . S
C131 H191 0.931 . S
C132 C128 1.535 . S
C132 H192 0.959 . S
C132 H193 0.961 . S
C132 H194 0.959 . S
C133 C130 1.450 . S
C133 H195 0.960 . S
C133 H196 0.960 . S
C133 H197 0.960 . S
C134 C135 1.309 . S
C134 C139 1.304 . S
C134 O172 1.435 . S
C135 C134 1.309 . S
C135 C136 1.476 . S
C135 H199 0.930 . S
C136 C135 1.476 . S
C136 C137 1.400 . S
C136 C140 1.567 . S
C137 C136 1.400 . S
C137 C138 1.373 . S
C137 C159 1.432 . S
C138 C137 1.373 . S
C138 C139 1.339 . S
C138 C141 1.530 . S
C139 C134 1.304 . S
C139 C138 1.339 . S
C139 H200 0.930 . S
C140 C136 1.567 . S
C140 H201 0.961 . S
C140 H202 0.960 . S
C140 H203 0.958 . S
C141 C138 1.530 . S
C141 H204 0.961 . S
C141 H205 0.960 . S
C141 H206 0.960 . S
C142 C143 1.530 . S
C142 H208 0.961 . S
C142 H209 0.961 . S
C142 H210 0.959 . S
C143 C142 1.530 . S
C143 O171 1.412 . S
C143 H207 0.980 . S
C144 C145 1.288 . S
C144 C149 1.377 . S
C144 O171 1.393 . S
C145 C144 1.288 . S
C145 C146 1.369 . S
C145 H211 0.932 . S
C146 C145 1.369 . S
C146 C147 1.398 . S
C146 C150 1.527 1_565 S
C147 C146 1.398 . S
C147 C148 1.380 . S
C147 C161 1.497 1_565 S
C148 C147 1.380 . S
C148 C149 1.383 . S
C148 C151 1.603 . S
C149 C144 1.377 . S
C149 C148 1.383 . S
C149 H212 0.929 . S
C150 C146 1.527 1_545 S
C150 H213 0.961 . S
C150 H214 0.959 . S
C150 H215 0.959 1_545 S
C151 C148 1.603 . S
C151 H216 0.960 . S
C151 H217 0.962 . S
C151 H218 0.961 . S
C152 C119 1.587 . S
C152 C153 1.360 . S
C152 C165 1.412 . S
C153 C152 1.360 . S
C153 C154 1.365 1_565 S
C153 H219 0.929 . S
C154 C129 1.553 . S
C154 C153 1.365 1_545 S
C154 C155 1.404 . S
C155 C154 1.404 . S
C155 C156 1.395 . S
C155 C166 1.451 . S
C156 C155 1.395 . S
C156 C157 1.322 . S
C156 H220 0.930 . S
C157 C156 1.322 . S
C157 C158 1.459 . S
C157 H221 0.929 . S
C158 C157 1.459 . S
C158 C159 1.445 . S
C158 C167 1.395 . S
C159 C137 1.432 . S
C159 C158 1.445 . S
C159 C160 1.370 . S
C160 C159 1.370 . S
C160 C161 1.438 . S
C160 H222 0.930 . S
C161 C147 1.497 1_545 S
C161 C160 1.438 . S
C161 C162 1.360 1_545 S
C162 C161 1.360 1_565 S
C162 C163 1.400 . S
C162 C167 1.446 1_565 S
C163 C162 1.400 . S
C163 C164 1.347 . S
C163 H223 0.929 . S
C164 C163 1.347 . S
C164 C165 1.455 . S
C164 H224 0.930 . S
C165 C152 1.412 . S
C165 C164 1.455 . S
C165 C166 1.331 1_565 S
C166 C155 1.451 . S
C166 C165 1.331 1_545 S
C166 C167 1.497 . S
C167 C158 1.395 . S
C167 C162 1.446 1_545 S
C167 C166 1.497 . S
C168 C169 1.582 . S
C168 H225 0.962 . S
C168 H226 0.959 . S
C168 H227 0.958 . S
C169 C168 1.582 . S
C169 O172 1.458 . S
C169 H198 0.980 . S
O170 C115 1.426 . S
O170 C116 1.334 . S
O171 C143 1.412 . S
O171 C144 1.393 . S
O172 C134 1.435 . S
O172 C169 1.458 . S
O173 C125 1.468 . S
O173 C126 1.408 . S
H174 C115 0.980 . S
H175 C114 0.959 . S
H176 C114 0.959 . S
H177 C114 0.960 . S
H178 C117 0.929 . S
H179 C121 0.929 . S
H180 C122 0.959 . S
H181 C122 0.961 . S
H182 C122 0.961 . S
H183 C123 0.960 . S
H184 C123 0.960 . S
H185 C123 0.961 . S
H186 C125 0.980 . S
H187 C124 0.961 . S
H188 C124 0.960 . S
H189 C124 0.959 . S
H190 C127 0.930 . S
H191 C131 0.931 . S
H192 C132 0.959 . S
H193 C132 0.961 . S
H194 C132 0.959 . S
H195 C133 0.960 . S
H196 C133 0.960 . S
H197 C133 0.960 . S
H198 C169 0.980 . S
H199 C135 0.930 . S
H200 C139 0.930 . S
H201 C140 0.961 . S
H202 C140 0.960 . S
H203 C140 0.958 . S
H204 C141 0.961 . S
H205 C141 0.960 . S
H206 C141 0.960 . S
H207 C143 0.980 . S
H208 C142 0.961 . S
H209 C142 0.961 . S
H210 C142 0.959 . S
H211 C145 0.932 . S
H212 C149 0.929 . S
H213 C150 0.961 . S
H214 C150 0.959 . S
H215 C150 0.959 1_565 S
H216 C151 0.960 . S
H217 C151 0.962 . S
H218 C151 0.961 . S
H219 C153 0.929 . S
H220 C156 0.930 . S
H221 C157 0.929 . S
H222 C160 0.930 . S
H223 C163 0.929 . S
H224 C164 0.930 . S
H225 C168 0.962 . S
H226 C168 0.959 . S
H227 C168 0.958 . S
C228 C229 1.560 . S
C228 H289 0.959 . S
C228 H290 0.959 . S
C228 H291 0.960 . S
C229 C228 1.560 . S
C229 O284 1.426 . S
C229 H288 0.980 . S
C230 C231 1.407 . S
C230 C235 1.418 . S
C230 O284 1.334 . S
C231 C230 1.407 . S
C231 C232 1.360 . S
C231 H292 0.929 . S
C232 C231 1.360 . S
C232 C233 1.401 . S
C232 C236 1.527 . S
C233 C232 1.401 . S
C233 C234 1.405 . S
C233 C266 1.587 . S
C234 C233 1.405 . S
C234 C235 1.332 . S
C234 C237 1.496 . S
C235 C230 1.418 . S
C235 C234 1.332 . S
C235 H293 0.929 . S
C236 C232 1.527 . S
C236 H294 0.959 . S
C236 H295 0.961 . S
C236 H296 0.961 . S
C237 C234 1.496 . S
C237 H297 0.960 . S
C237 H298 0.960 . S
C237 H299 0.961 . S
C238 C239 1.517 . S
C238 H301 0.961 . S
C238 H302 0.960 . S
C238 H303 0.959 . S
C239 C238 1.517 . S
C239 O287 1.468 . S
C239 H300 0.980 . S
C240 C241 1.349 . S
C240 C245 1.367 . S
C240 O287 1.408 . S
C241 C240 1.349 . S
C241 C242 1.407 . S
C241 H304 0.930 . S
C242 C241 1.407 . S
C242 C243 1.449 . S
C242 C246 1.535 . S
C243 C242 1.449 . S
C243 C244 1.384 . S
C243 C268 1.553 . S
C244 C243 1.384 . S
C244 C245 1.364 . S
C244 C247 1.450 . S
C245 C240 1.367 . S
C245 C244 1.364 . S
C245 H305 0.931 . S
C246 C242 1.535 . S
C246 H306 0.959 . S
C246 H307 0.961 . S
C246 H308 0.959 . S
C247 C244 1.450 . S
C247 H309 0.960 . S
C247 H310 0.960 . S
C247 H311 0.960 . S
C248 C249 1.309 . S
C248 C253 1.304 . S
C248 O286 1.435 . S
C249 C248 1.309 . S
C249 C250 1.476 . S
C249 H313 0.930 . S
C250 C249 1.476 . S
C250 C251 1.400 . S
C250 C254 1.567 . S
C251 C250 1.400 . S
C251 C252 1.373 . S
C251 C273 1.432 . S
C252 C251 1.373 . S
C252 C253 1.339 . S
C252 C255 1.530 . S
C253 C248 1.304 . S
C253 C252 1.339 . S
C253 H314 0.930 . S
C254 C250 1.567 . S
C254 H315 0.961 . S
C254 H316 0.960 . S
C254 H317 0.958 . S
C255 C252 1.530 . S
C255 H318 0.961 . S
C255 H319 0.960 . S
C255 H320 0.960 . S
C256 C257 1.530 . S
C256 H322 0.961 . S
C256 H323 0.961 . S
C256 H324 0.959 . S
C257 C256 1.530 . S
C257 O285 1.412 . S
C257 H321 0.980 . S
C258 C259 1.288 . S
C258 C263 1.377 . S
C258 O285 1.393 . S
C259 C258 1.288 . S
C259 C260 1.369 . S
C259 H325 0.932 . S
C260 C259 1.369 . S
C260 C261 1.398 . S
C260 C264 1.527 . S
C261 C260 1.398 . S
C261 C262 1.380 . S
C261 C275 1.497 . S
C262 C261 1.380 . S
C262 C263 1.383 . S
C262 C265 1.603 . S
C263 C258 1.377 . S
C263 C262 1.383 . S
C263 H326 0.929 . S
C264 C260 1.527 . S
C264 H327 0.961 . S
C264 H328 0.959 . S
C264 H329 0.959 . S
C265 C262 1.603 . S
C265 H330 0.960 . S
C265 H331 0.962 . S
C265 H332 0.961 . S
C266 C233 1.587 . S
C266 C267 1.360 . S
C266 C279 1.412 . S
C267 C266 1.360 . S
C267 C268 1.365 . S
C267 H333 0.929 . S
C268 C243 1.553 . S
C268 C267 1.365 . S
C268 C269 1.404 . S
C269 C268 1.404 . S
C269 C270 1.395 . S
C269 C280 1.451 . S
C270 C269 1.395 . S
C270 C271 1.322 . S
C270 H334 0.930 . S
C271 C270 1.322 . S
C271 C272 1.459 . S
C271 H335 0.929 . S
C272 C271 1.459 . S
C272 C273 1.445 . S
C272 C281 1.395 . S
C273 C251 1.432 . S
C273 C272 1.445 . S
C273 C274 1.370 . S
C274 C273 1.370 . S
C274 C275 1.438 . S
C274 H336 0.930 . S
C275 C261 1.497 . S
C275 C274 1.438 . S
C275 C276 1.360 . S
C276 C275 1.360 . S
C276 C277 1.401 . S
C276 C281 1.446 . S
C277 C276 1.401 . S
C277 C278 1.347 . S
C277 H337 0.929 . S
C278 C277 1.347 . S
C278 C279 1.455 . S
C278 H338 0.930 . S
C279 C266 1.412 . S
C279 C278 1.455 . S
C279 C280 1.331 . S
C280 C269 1.451 . S
C280 C279 1.331 . S
C280 C281 1.497 . S
C281 C272 1.395 . S
C281 C276 1.446 . S
C281 C280 1.497 . S
C282 C283 1.582 . S
C282 H339 0.962 . S
C282 H340 0.959 . S
C282 H341 0.958 . S
C283 C282 1.582 . S
C283 O286 1.458 . S
C283 H312 0.980 . S
O284 C229 1.426 . S
O284 C230 1.334 . S
O285 C257 1.412 . S
O285 C258 1.393 . S
O286 C248 1.435 . S
O286 C283 1.458 . S
O287 C239 1.468 . S
O287 C240 1.408 . S
H288 C229 0.980 . S
H289 C228 0.959 . S
H290 C228 0.959 . S
H291 C228 0.960 . S
H292 C231 0.929 . S
H293 C235 0.929 . S
H294 C236 0.959 . S
H295 C236 0.961 . S
H296 C236 0.961 . S
H297 C237 0.960 . S
H298 C237 0.960 . S
H299 C237 0.961 . S
H300 C239 0.980 . S
H301 C238 0.961 . S
H302 C238 0.960 . S
H303 C238 0.959 . S
H304 C241 0.930 . S
H305 C245 0.931 . S
H306 C246 0.959 . S
H307 C246 0.961 . S
H308 C246 0.959 . S
H309 C247 0.960 . S
H310 C247 0.960 . S
H311 C247 0.960 . S
H312 C283 0.980 . S
H313 C249 0.930 . S
H314 C253 0.930 . S
H315 C254 0.961 . S
H316 C254 0.960 . S
H317 C254 0.958 . S
H318 C255 0.961 . S
H319 C255 0.960 . S
H320 C255 0.960 . S
H321 C257 0.980 . S
H322 C256 0.961 . S
H323 C256 0.961 . S
H324 C256 0.959 . S
H325 C259 0.932 . S
H326 C263 0.929 . S
H327 C264 0.961 . S
H328 C264 0.959 . S
H329 C264 0.959 . S
H330 C265 0.960 . S
H331 C265 0.962 . S
H332 C265 0.961 . S
H333 C267 0.929 . S
H334 C270 0.930 . S
H335 C271 0.929 . S
H336 C274 0.930 . S
H337 C277 0.929 . S
H338 C278 0.930 . S
H339 C282 0.962 . S
H340 C282 0.959 . S
H341 C282 0.958 . S
C342 C343 1.560 . S
C342 H403 0.959 . S
C342 H404 0.959 . S
C342 H405 0.960 . S
C343 C342 1.560 . S
C343 O398 1.426 . S
C343 H402 0.980 . S
C344 C345 1.407 . S
C344 C349 1.418 . S
C344 O398 1.334 . S
C345 C344 1.407 . S
C345 C346 1.360 . S
C345 H406 0.929 . S
C346 C345 1.360 . S
C346 C347 1.401 . S
C346 C350 1.527 . S
C347 C346 1.401 . S
C347 C348 1.405 . S
C347 C380 1.587 . S
C348 C347 1.405 . S
C348 C349 1.332 . S
C348 C351 1.496 . S
C349 C344 1.418 . S
C349 C348 1.332 . S
C349 H407 0.929 . S
C350 C346 1.527 . S
C350 H408 0.959 . S
C350 H409 0.961 . S
C350 H410 0.961 . S
C351 C348 1.496 . S
C351 H411 0.960 . S
C351 H412 0.960 . S
C351 H413 0.961 . S
C352 C353 1.517 . S
C352 H415 0.961 . S
C352 H416 0.960 . S
C352 H417 0.959 . S
C353 C352 1.517 . S
C353 O401 1.468 . S
C353 H414 0.980 . S
C354 C355 1.349 . S
C354 C359 1.367 . S
C354 O401 1.408 . S
C355 C354 1.349 . S
C355 C356 1.407 . S
C355 H418 0.930 . S
C356 C355 1.407 . S
C356 C357 1.449 . S
C356 C360 1.535 . S
C357 C356 1.449 . S
C357 C358 1.384 . S
C357 C382 1.553 1_655 S
C358 C357 1.384 . S
C358 C359 1.364 . S
C358 C361 1.450 . S
C359 C354 1.367 . S
C359 C358 1.364 . S
C359 H419 0.931 . S
C360 C356 1.535 . S
C360 H420 0.959 1_655 S
C360 H421 0.989 . S
C360 H422 0.959 . S
C361 C358 1.450 . S
C361 H423 0.960 . S
C361 H424 0.960 1_655 S
C361 H425 0.960 . S
C362 C363 1.309 . S
C362 C367 1.304 . S
C362 O400 1.435 . S
C363 C362 1.309 . S
C363 C364 1.476 . S
C363 H427 0.930 . S
C364 C363 1.476 . S
C364 C365 1.400 . S
C364 C368 1.567 . S
C365 C364 1.400 . S
C365 C366 1.373 . S
C365 C387 1.432 . S
C366 C365 1.373 . S
C366 C367 1.339 . S
C366 C369 1.530 . S
C367 C362 1.304 . S
C367 C366 1.339 . S
C367 H428 0.930 . S
C368 C364 1.567 . S
C368 H429 0.961 . S
C368 H430 0.960 . S
C368 H431 0.958 . S
C369 C366 1.530 . S
C369 H432 0.961 . S
C369 H433 0.960 . S
C369 H434 0.960 . S
C370 C371 1.530 . S
C370 H436 0.961 . S
C370 H437 0.961 . S
C370 H438 0.959 . S
C371 C370 1.530 . S
C371 O399 1.412 . S
C371 H435 0.980 . S
C372 C373 1.288 . S
C372 C377 1.377 . S
C372 O399 1.393 . S
C373 C372 1.288 . S
C373 C374 1.369 . S
C373 H439 0.932 . S
C374 C373 1.369 . S
C374 C375 1.398 . S
C374 C378 1.527 . S
C375 C374 1.398 . S
C375 C376 1.380 . S
C375 C389 1.497 . S
C376 C375 1.380 . S
C376 C377 1.383 . S
C376 C379 1.603 . S
C377 C372 1.377 . S
C377 C376 1.383 . S
C377 H440 0.929 . S
C378 C374 1.527 . S
C378 H441 0.961 . S
C378 H442 0.959 1_455 S
C378 H443 0.959 . S
C379 C376 1.603 . S
C379 H444 0.960 . S
C379 H445 0.962 . S
C379 H446 0.961 . S
C380 C347 1.587 . S
C380 C381 1.360 . S
C380 C393 1.412 . S
C381 C380 1.360 . S
C381 C382 1.365 . S
C381 H447 0.929 . S
C382 C357 1.553 1_455 S
C382 C381 1.365 . S
C382 C383 1.399 1_455 S
C383 C382 1.399 1_655 S
C383 C384 1.408 . S
C383 C394 1.442 1_655 S
C384 C383 1.408 . S
C384 C385 1.322 . S
C384 H448 0.930 . S
C385 C384 1.322 . S
C385 C386 1.459 . S
C385 H449 0.929 . S
C386 C385 1.459 . S
C386 C387 1.445 . S
C386 C395 1.395 1_655 S
C387 C365 1.432 . S
C387 C386 1.445 . S
C387 C388 1.370 . S
C388 C387 1.370 . S
C388 C389 1.438 1_655 S
C388 H450 0.930 . S
C389 C375 1.497 . S
C389 C388 1.438 1_455 S
C389 C390 1.360 . S
C390 C389 1.360 . S
C390 C391 1.401 . S
C390 C395 1.446 . S
C391 C390 1.401 . S
C391 C392 1.347 . S
C391 H451 0.929 . S
C392 C391 1.347 . S
C392 C393 1.455 . S
C392 H452 0.930 . S
C393 C380 1.412 . S
C393 C392 1.455 . S
C393 C394 1.331 . S
C394 C383 1.442 1_455 S
C394 C393 1.331 . S
C394 C395 1.497 . S
C395 C386 1.395 1_455 S
C395 C390 1.446 . S
C395 C394 1.497 . S
C396 C397 1.582 . S
C396 H453 0.962 . S
C396 H454 0.959 . S
C396 H455 0.958 . S
C397 C396 1.582 . S
C397 O400 1.458 . S
C397 H426 0.980 . S
O398 C343 1.426 . S
O398 C344 1.334 . S
O399 C371 1.412 . S
O399 C372 1.393 . S
O400 C362 1.435 . S
O400 C397 1.458 . S
O401 C353 1.468 . S
O401 C354 1.408 . S
H402 C343 0.980 . S
H403 C342 0.959 . S
H404 C342 0.959 . S
H405 C342 0.960 . S
H406 C345 0.929 . S
H407 C349 0.929 . S
H408 C350 0.959 . S
H409 C350 0.961 . S
H410 C350 0.961 . S
H411 C351 0.960 . S
H412 C351 0.960 . S
H413 C351 0.961 . S
H414 C353 0.980 . S
H415 C352 0.961 . S
H416 C352 0.960 . S
H417 C352 0.959 . S
H418 C355 0.930 . S
H419 C359 0.931 . S
H420 C360 0.959 1_455 S
H421 C360 0.989 . S
H422 C360 0.959 . S
H423 C361 0.960 . S
H424 C361 0.960 1_455 S
H425 C361 0.960 . S
H426 C397 0.980 . S
H427 C363 0.930 . S
H428 C367 0.930 . S
H429 C368 0.961 . S
H430 C368 0.960 . S
H431 C368 0.958 . S
H432 C369 0.961 . S
H433 C369 0.960 . S
H434 C369 0.960 . S
H435 C371 0.980 . S
H436 C370 0.961 . S
H437 C370 0.961 . S
H438 C370 0.959 . S
H439 C373 0.932 . S
H440 C377 0.929 . S
H441 C378 0.961 . S
H442 C378 0.959 1_655 S
H443 C378 0.959 . S
H444 C379 0.960 . S
H445 C379 0.962 . S
H446 C379 0.961 . S
H447 C381 0.929 . S
H448 C384 0.930 . S
H449 C385 0.929 . S
H450 C388 0.930 . S
H451 C391 0.929 . S
H452 C392 0.930 . S
H453 C396 0.962 . S
H454 C396 0.959 . S
H455 C396 0.958 . S
C456 C457 1.560 . S
C456 H517 0.959 . S
C456 H518 0.959 . S
C456 H519 0.960 . S
C457 C456 1.560 . S
C457 O512 1.426 . S
C457 H516 0.980 . S
C458 C459 1.407 . S
C458 C463 1.418 . S
C458 O512 1.334 . S
C459 C458 1.407 . S
C459 C460 1.360 . S
C459 H520 0.929 . S
C460 C459 1.360 . S
C460 C461 1.401 . S
C460 C464 1.527 . S
C461 C460 1.401 . S
C461 C462 1.405 . S
C461 C494 1.587 . S
C462 C461 1.405 . S
C462 C463 1.332 . S
C462 C465 1.496 . S
C463 C458 1.418 . S
C463 C462 1.332 . S
C463 H521 0.929 . S
C464 C460 1.527 . S
C464 H522 0.959 . S
C464 H523 0.961 . S
C464 H524 0.961 . S
C465 C462 1.496 . S
C465 H525 0.960 . S
C465 H526 0.960 . S
C465 H527 0.961 . S
C466 C467 1.517 . S
C466 H529 0.961 . S
C466 H530 0.960 . S
C466 H531 0.959 . S
C467 C466 1.517 . S
C467 O515 1.468 . S
C467 H528 0.980 . S
C468 C469 1.349 . S
C468 C473 1.367 . S
C468 O515 1.408 . S
C469 C468 1.349 . S
C469 C470 1.407 . S
C469 H532 0.930 . S
C470 C469 1.407 . S
C470 C471 1.449 . S
C470 C474 1.535 . S
C471 C470 1.449 . S
C471 C472 1.384 . S
C471 C496 1.553 . S
C472 C471 1.384 . S
C472 C473 1.364 . S
C472 C475 1.450 . S
C473 C468 1.367 . S
C473 C472 1.364 . S
C473 H533 0.931 . S
C474 C470 1.535 . S
C474 H534 0.959 . S
C474 H535 0.961 . S
C474 H536 0.959 . S
C475 C472 1.450 . S
C475 H537 0.960 . S
C475 H538 0.960 . S
C475 H539 0.960 . S
C476 C477 1.309 . S
C476 C481 1.304 . S
C476 O514 1.435 . S
C477 C476 1.309 . S
C477 C478 1.476 . S
C477 H541 0.930 . S
C478 C477 1.476 . S
C478 C479 1.400 . S
C478 C482 1.567 . S
C479 C478 1.400 . S
C479 C480 1.373 . S
C479 C501 1.432 . S
C480 C479 1.373 . S
C480 C481 1.339 . S
C480 C483 1.530 . S
C481 C476 1.304 . S
C481 C480 1.339 . S
C481 H542 0.930 . S
C482 C478 1.567 . S
C482 H543 0.961 . S
C482 H544 0.960 . S
C482 H545 0.958 . S
C483 C480 1.530 . S
C483 H546 0.961 . S
C483 H547 0.960 . S
C483 H548 0.960 . S
C484 C485 1.530 . S
C484 H550 0.961 . S
C484 H551 0.961 . S
C484 H552 0.959 . S
C485 C484 1.530 . S
C485 O513 1.412 . S
C485 H549 0.980 . S
C486 C487 1.288 . S
C486 C491 1.377 . S
C486 O513 1.393 . S
C487 C486 1.288 . S
C487 C488 1.369 . S
C487 H553 0.932 . S
C488 C487 1.369 . S
C488 C489 1.398 . S
C488 C492 1.527 1_565 S
C489 C488 1.398 . S
C489 C490 1.380 . S
C489 C503 1.497 1_565 S
C490 C489 1.380 . S
C490 C491 1.383 . S
C490 C493 1.603 . S
C491 C486 1.377 . S
C491 C490 1.383 . S
C491 H554 0.929 . S
C492 C488 1.527 1_545 S
C492 H555 0.961 . S
C492 H556 0.959 . S
C492 H557 0.959 1_545 S
C493 C490 1.603 . S
C493 H558 0.960 . S
C493 H559 0.962 . S
C493 H560 0.961 . S
C494 C461 1.587 . S
C494 C495 1.360 . S
C494 C507 1.412 . S
C495 C494 1.360 . S
C495 C496 1.365 1_565 S
C495 H561 0.929 . S
C496 C471 1.553 . S
C496 C495 1.365 1_545 S
C496 C497 1.404 . S
C497 C496 1.404 . S
C497 C498 1.395 . S
C497 C508 1.425 1_545 S
C498 C497 1.395 . S
C498 C499 1.322 . S
C498 H562 0.930 . S
C499 C498 1.322 . S
C499 C500 1.459 1_556 S
C499 H563 0.929 . S
C500 C499 1.459 1_554 S
C500 C501 1.445 . S
C500 C509 1.390 1_554 S
C501 C479 1.432 . S
C501 C500 1.445 . S
C501 C502 1.370 . S
C502 C501 1.370 . S
C502 C503 1.438 . S
C502 H564 0.930 . S
C503 C489 1.497 1_545 S
C503 C502 1.438 . S
C503 C504 1.360 1_545 S
C504 C503 1.360 1_565 S
C504 C505 1.401 . S
C504 C509 1.405 1_564 S
C505 C504 1.401 . S
C505 C506 1.347 1_554 S
C505 H565 0.929 . S
C506 C505 1.347 1_556 S
C506 C507 1.455 . S
C506 H566 0.930 . S
C507 C494 1.412 . S
C507 C506 1.455 . S
C507 C508 1.367 . S
C508 C497 1.425 1_565 S
C508 C507 1.367 . S
C508 C509 1.533 1_565 S
C509 C500 1.390 1_556 S
C509 C504 1.405 1_546 S
C509 C508 1.533 1_545 S
C510 C511 1.582 . S
C510 H567 0.962 . S
C510 H568 0.959 . S
C510 H569 0.958 . S
C511 C510 1.582 . S
C511 O514 1.458 . S
C511 H540 0.980 . S
O512 C457 1.426 . S
O512 C458 1.334 . S
O513 C485 1.412 . S
O513 C486 1.393 . S
O514 C476 1.435 . S
O514 C511 1.458 . S
O515 C467 1.468 . S
O515 C468 1.408 . S
H516 C457 0.980 . S
H517 C456 0.959 . S
H518 C456 0.959 . S
H519 C456 0.960 . S
H520 C459 0.929 . S
H521 C463 0.929 . S
H522 C464 0.959 . S
H523 C464 0.961 . S
H524 C464 0.961 . S
H525 C465 0.960 . S
H526 C465 0.960 . S
H527 C465 0.961 . S
H528 C467 0.980 . S
H529 C466 0.961 . S
H530 C466 0.960 . S
H531 C466 0.959 . S
H532 C469 0.930 . S
H533 C473 0.931 . S
H534 C474 0.959 . S
H535 C474 0.961 . S
H536 C474 0.959 . S
H537 C475 0.960 . S
H538 C475 0.960 . S
H539 C475 0.960 . S
H540 C511 0.980 . S
H541 C477 0.930 . S
H542 C481 0.930 . S
H543 C482 0.961 . S
H544 C482 0.960 . S
H545 C482 0.958 . S
H546 C483 0.961 . S
H547 C483 0.960 . S
H548 C483 0.960 . S
H549 C485 0.980 . S
H550 C484 0.961 . S
H551 C484 0.961 . S
H552 C484 0.959 . S
H553 C487 0.932 . S
H554 C491 0.929 . S
H555 C492 0.961 . S
H556 C492 0.959 . S
H557 C492 0.959 1_565 S
H558 C493 0.960 . S
H559 C493 0.962 . S
H560 C493 0.961 . S
H561 C495 0.929 . S
H562 C498 0.930 . S
H563 C499 0.929 . S
H564 C502 0.930 . S
H565 C505 0.929 . S
H566 C506 0.930 . S
H567 C510 0.962 . S
H568 C510 0.959 . S
H569 C510 0.958 . S
C570 C571 1.560 . S
C570 H631 0.959 . S
C570 H632 0.959 . S
C570 H633 0.960 . S
C571 C570 1.560 . S
C571 O626 1.426 . S
C571 H630 0.980 . S
C572 C573 1.407 . S
C572 C577 1.418 . S
C572 O626 1.334 . S
C573 C572 1.407 . S
C573 C574 1.360 . S
C573 H634 0.929 . S
C574 C573 1.360 . S
C574 C575 1.401 . S
C574 C578 1.527 . S
C575 C574 1.401 . S
C575 C576 1.405 . S
C575 C608 1.587 . S
C576 C575 1.405 . S
C576 C577 1.332 . S
C576 C579 1.496 . S
C577 C572 1.418 . S
C577 C576 1.332 . S
C577 H635 0.929 . S
C578 C574 1.527 . S
C578 H636 0.959 . S
C578 H637 0.961 . S
C578 H638 0.961 . S
C579 C576 1.496 . S
C579 H639 0.960 . S
C579 H640 0.960 . S
C579 H641 0.961 . S
C580 C581 1.517 . S
C580 H643 0.961 . S
C580 H644 0.960 . S
C580 H645 0.959 . S
C581 C580 1.517 . S
C581 O629 1.468 . S
C581 H642 0.980 . S
C582 C583 1.349 . S
C582 C587 1.367 . S
C582 O629 1.408 . S
C583 C582 1.349 . S
C583 C584 1.407 . S
C583 H646 0.930 . S
C584 C583 1.407 . S
C584 C585 1.449 . S
C584 C588 1.535 . S
C585 C584 1.449 . S
C585 C586 1.384 . S
C585 C610 1.553 . S
C586 C585 1.384 . S
C586 C587 1.364 . S
C586 C589 1.450 . S
C587 C582 1.367 . S
C587 C586 1.364 . S
C587 H647 0.931 . S
C588 C584 1.535 . S
C588 H648 0.959 . S
C588 H649 0.961 . S
C588 H650 0.959 . S
C589 C586 1.450 . S
C589 H651 0.960 . S
C589 H652 0.960 . S
C589 H653 0.960 . S
C590 C591 1.309 . S
C590 C595 1.304 . S
C590 O628 1.435 . S
C591 C590 1.309 . S
C591 C592 1.476 . S
C591 H655 0.930 . S
C592 C591 1.476 . S
C592 C593 1.400 . S
C592 C596 1.567 . S
C593 C592 1.400 . S
C593 C594 1.373 . S
C593 C615 1.432 . S
C594 C593 1.373 . S
C594 C595 1.339 . S
C594 C597 1.530 . S
C595 C590 1.304 . S
C595 C594 1.339 . S
C595 H656 0.930 . S
C596 C592 1.567 . S
C596 H657 0.961 . S
C596 H658 0.960 . S
C596 H659 0.958 . S
C597 C594 1.530 . S
C597 H660 0.961 . S
C597 H661 0.960 . S
C597 H662 0.960 . S
C598 C599 1.530 . S
C598 H664 0.961 . S
C598 H665 0.961 . S
C598 H666 0.959 . S
C599 C598 1.530 . S
C599 O627 1.412 . S
C599 H663 0.980 . S
C600 C601 1.288 . S
C600 C605 1.377 . S
C600 O627 1.393 . S
C601 C600 1.288 . S
C601 C602 1.369 . S
C601 H667 0.932 . S
C602 C601 1.369 . S
C602 C603 1.398 . S
C602 C606 1.527 . S
C603 C602 1.398 . S
C603 C604 1.380 . S
C603 C617 1.497 . S
C604 C603 1.380 . S
C604 C605 1.383 . S
C604 C607 1.603 . S
C605 C600 1.377 . S
C605 C604 1.383 . S
C605 H668 0.929 . S
C606 C602 1.527 . S
C606 H669 0.961 . S
C606 H670 0.959 . S
C606 H671 0.959 . S
C607 C604 1.603 . S
C607 H672 0.960 . S
C607 H673 0.962 . S
C607 H674 0.961 . S
C608 C575 1.587 . S
C608 C609 1.360 . S
C608 C621 1.412 . S
C609 C608 1.360 . S
C609 C610 1.365 . S
C609 H675 0.929 . S
C610 C585 1.553 . S
C610 C609 1.365 . S
C610 C611 1.404 . S
C611 C610 1.404 . S
C611 C612 1.395 . S
C611 C622 1.451 . S
C612 C611 1.395 . S
C612 C613 1.322 . S
C612 H676 0.930 . S
C613 C612 1.322 . S
C613 C614 1.459 . S
C613 H677 0.929 . S
C614 C613 1.459 . S
C614 C615 1.445 . S
C614 C623 1.395 . S
C615 C593 1.432 . S
C615 C614 1.445 . S
C615 C616 1.370 . S
C616 C615 1.370 . S
C616 C617 1.438 . S
C616 H678 0.930 . S
C617 C603 1.497 . S
C617 C616 1.438 . S
C617 C618 1.360 . S
C618 C617 1.360 . S
C618 C619 1.401 . S
C618 C623 1.446 . S
C619 C618 1.401 . S
C619 C620 1.347 . S
C619 H679 0.929 . S
C620 C619 1.347 . S
C620 C621 1.455 . S
C620 H680 0.930 . S
C621 C608 1.412 . S
C621 C620 1.455 . S
C621 C622 1.331 . S
C622 C611 1.451 . S
C622 C621 1.331 . S
C622 C623 1.497 . S
C623 C614 1.395 . S
C623 C618 1.446 . S
C623 C622 1.497 . S
C624 C625 1.582 . S
C624 H681 0.962 . S
C624 H682 0.959 . S
C624 H683 0.958 . S
C625 C624 1.582 . S
C625 O628 1.458 . S
C625 H654 0.980 . S
O626 C571 1.426 . S
O626 C572 1.334 . S
O627 C599 1.412 . S
O627 C600 1.393 . S
O628 C590 1.435 . S
O628 C625 1.458 . S
O629 C581 1.468 . S
O629 C582 1.408 . S
H630 C571 0.980 . S
H631 C570 0.959 . S
H632 C570 0.959 . S
H633 C570 0.960 . S
H634 C573 0.929 . S
H635 C577 0.929 . S
H636 C578 0.959 . S
H637 C578 0.961 . S
H638 C578 0.961 . S
H639 C579 0.960 . S
H640 C579 0.960 . S
H641 C579 0.961 . S
H642 C581 0.980 . S
H643 C580 0.961 . S
H644 C580 0.960 . S
H645 C580 0.959 . S
H646 C583 0.930 . S
H647 C587 0.931 . S
H648 C588 0.959 . S
H649 C588 0.961 . S
H650 C588 0.959 . S
H651 C589 0.960 . S
H652 C589 0.960 . S
H653 C589 0.960 . S
H654 C625 0.980 . S
H655 C591 0.930 . S
H656 C595 0.930 . S
H657 C596 0.961 . S
H658 C596 0.960 . S
H659 C596 0.958 . S
H660 C597 0.961 . S
H661 C597 0.960 . S
H662 C597 0.960 . S
H663 C599 0.980 . S
H664 C598 0.961 . S
H665 C598 0.961 . S
H666 C598 0.959 . S
H667 C601 0.932 . S
H668 C605 0.929 . S
H669 C606 0.961 . S
H670 C606 0.959 . S
H671 C606 0.959 . S
H672 C607 0.960 . S
H673 C607 0.962 . S
H674 C607 0.961 . S
H675 C609 0.929 . S
H676 C612 0.930 . S
H677 C613 0.929 . S
H678 C616 0.930 . S
H679 C619 0.929 . S
H680 C620 0.930 . S
H681 C624 0.962 . S
H682 C624 0.959 . S
H683 C624 0.958 . S
Co684 O685 2.216 . S
Co684 O686 2.091 . S
Co684 O688 2.004 . S
Co684 O694 2.021 . S
Co684 O696 2.137 . S
Co684 O697 2.244 . S
O685 Co684 2.216 . S
O685 C692 1.247 . S
O686 Co684 2.091 . S
O686 C692 1.261 . S
C687 O696 1.247 . S
C687 O697 1.272 . S
O688 Co684 2.004 . S
O688 C693 1.259 . S
Co689 O690 2.061 . S
Co689 O695 2.052 . S
Co689 O697 2.135 . S
O690 Co689 2.061 . S
O690 C693 1.235 . S
C691 O694 1.238 . S
C691 O695 1.241 . S
C692 O685 1.247 . S
C692 O686 1.261 . S
C693 O688 1.259 . S
C693 O690 1.235 . S
O694 Co684 2.021 . S
O694 C691 1.238 . S
O695 Co689 2.052 . S
O695 C691 1.241 . S
O696 Co684 2.137 . S
O696 C687 1.247 . S
O697 Co684 2.244 . S
O697 C687 1.272 . S
O697 Co689 2.135 . S
Co698 O699 2.216 . S
Co698 O700 2.091 . S
Co698 O702 2.004 . S
Co698 O708 2.021 . S
Co698 O710 2.137 . S
Co698 O711 2.244 . S
O699 Co698 2.216 . S
O699 C706 1.247 . S
O700 Co698 2.091 . S
O700 C706 1.261 . S
C701 O710 1.247 . S
C701 O711 1.272 . S
O702 Co698 2.004 . S
O702 C707 1.259 . S
Co703 O704 2.061 . S
Co703 O709 2.052 . S
Co703 O711 2.135 . S
O704 Co703 2.061 . S
O704 C707 1.235 . S
C705 O708 1.238 . S
C705 O709 1.241 . S
C706 O699 1.247 . S
C706 O700 1.261 . S
C707 O702 1.259 . S
C707 O704 1.235 . S
O708 Co698 2.021 . S
O708 C705 1.238 . S
O709 Co703 2.052 . S
O709 C705 1.241 . S
O710 Co698 2.137 . S
O710 C701 1.247 . S
O711 Co698 2.244 . S
O711 C701 1.272 . S
O711 Co703 2.135 . S
Co712 O713 2.216 . S
Co712 O714 2.091 . S
Co712 O716 2.004 . S
Co712 O722 2.021 . S
Co712 O724 2.137 . S
Co712 O725 2.244 . S
O713 Co712 2.216 . S
O713 C720 1.247 . S
O714 Co712 2.091 . S
O714 C720 1.261 . S
C715 O724 1.247 . S
C715 O725 1.272 . S
O716 Co712 2.004 . S
O716 C721 1.259 . S
Co717 O718 2.061 . S
Co717 O723 2.052 . S
Co717 O725 2.135 . S
O718 Co717 2.061 . S
O718 C721 1.235 . S
C719 O722 1.238 . S
C719 O723 1.241 . S
C720 O713 1.247 . S
C720 O714 1.261 . S
C721 O716 1.259 . S
C721 O718 1.235 . S
O722 Co712 2.021 . S
O722 C719 1.238 . S
O723 Co717 2.052 . S
O723 C719 1.241 . S
O724 Co712 2.137 . S
O724 C715 1.247 . S
O725 Co712 2.244 . S
O725 C715 1.272 . S
O725 Co717 2.135 . S
Co726 O727 2.216 . S
Co726 O728 2.091 . S
Co726 O730 2.004 . S
Co726 O736 2.021 . S
Co726 O738 2.137 . S
Co726 O739 2.244 . S
O727 Co726 2.216 . S
O727 C734 1.247 . S
O728 Co726 2.091 . S
O728 C734 1.261 . S
C729 O738 1.247 . S
C729 O739 1.272 . S
O730 Co726 2.004 . S
O730 C735 1.259 . S
Co731 O732 2.061 . S
Co731 O737 2.052 . S
Co731 O739 2.135 . S
O732 Co731 2.061 . S
O732 C735 1.235 . S
C733 O736 1.238 . S
C733 O737 1.241 . S
C734 O727 1.247 . S
C734 O728 1.261 . S
C735 O730 1.259 . S
C735 O732 1.235 . S
O736 Co726 2.021 . S
O736 C733 1.238 . S
O737 Co731 2.052 . S
O737 C733 1.241 . S
O738 Co726 2.137 . S
O738 C729 1.247 . S
O739 Co726 2.244 . S
O739 C729 1.272 . S
O739 Co731 2.135 . S
Co740 O741 2.216 . S
Co740 O742 2.091 . S
Co740 O744 2.004 . S
Co740 O750 2.021 . S
Co740 O752 2.137 . S
Co740 O753 2.244 . S
O741 Co740 2.216 . S
O741 C748 1.247 . S
O742 Co740 2.091 . S
O742 C748 1.261 . S
C743 O752 1.247 . S
C743 O753 1.272 . S
O744 Co740 2.004 . S
O744 C749 1.259 . S
Co745 O746 2.061 . S
Co745 O751 2.052 . S
Co745 O753 2.135 . S
O746 Co745 2.061 . S
O746 C749 1.235 . S
C747 O750 1.238 . S
C747 O751 1.241 . S
C748 O741 1.247 . S
C748 O742 1.261 . S
C749 O744 1.259 . S
C749 O746 1.235 . S
O750 Co740 2.021 . S
O750 C747 1.238 . S
O751 Co745 2.052 . S
O751 C747 1.241 . S
O752 Co740 2.137 . S
O752 C743 1.247 . S
O753 Co740 2.244 . S
O753 C743 1.272 . S
O753 Co745 2.135 . S
Co754 O755 2.216 . S
Co754 O756 2.091 . S
Co754 O758 2.004 . S
Co754 O764 2.021 . S
Co754 O766 2.137 . S
Co754 O767 2.244 . S
O755 Co754 2.216 . S
O755 C762 1.247 . S
O756 Co754 2.091 . S
O756 C762 1.261 . S
C757 O766 1.247 . S
C757 O767 1.272 . S
O758 Co754 2.004 . S
O758 C763 1.259 . S
Co759 O760 2.061 . S
Co759 O765 2.052 . S
Co759 O767 2.135 . S
O760 Co759 2.061 . S
O760 C763 1.235 . S
C761 O764 1.238 . S
C761 O765 1.241 . S
C762 O755 1.247 . S
C762 O756 1.261 . S
C763 O758 1.259 . S
C763 O760 1.235 . S
O764 Co754 2.021 . S
O764 C761 1.238 . S
O765 Co759 2.052 . S
O765 C761 1.241 . S
O766 Co754 2.137 . S
O766 C757 1.247 . S
O767 Co754 2.244 . S
O767 C757 1.272 . S
O767 Co759 2.135 . S
H768 C776 0.929 . S
H769 C778 0.930 . S
H770 C780 0.930 . S
H771 C783 0.929 . S
H772 C786 0.930 . S
H773 C788 0.960 . S
H774 C788 0.960 . S
H775 C788 0.960 . S
C776 H768 0.929 . S
C776 C777 1.377 . S
C776 C778 1.384 . S
C777 C776 1.377 . S
C777 C783 1.390 . S
C778 H769 0.930 . S
C778 C776 1.384 . S
C778 C779 1.372 . S
C779 C778 1.372 . S
C779 C780 1.400 . S
C779 C784 1.490 . S
C780 H770 0.930 . S
C780 C779 1.400 . S
C780 C783 1.386 . S
H781 C797 0.930 . S
H782 C798 0.931 . S
C783 H771 0.929 . S
C783 C777 1.390 . S
C783 C780 1.386 . S
C784 C779 1.490 . S
C784 C786 1.395 . S
C784 C787 1.403 . S
H785 C791 0.930 . S
C786 H772 0.930 . S
C786 C784 1.395 . S
C786 C789 1.403 . S
C787 C784 1.403 . S
C787 C788 1.524 . S
C787 C791 1.400 . S
C788 H773 0.960 . S
C788 H774 0.960 . S
C788 H775 0.960 . S
C788 C787 1.524 . S
C789 C786 1.403 . S
C789 C790 1.392 . S
C789 C793 1.495 . S
C790 C789 1.392 . S
C790 C791 1.385 . S
C790 C792 1.478 . S
C791 H785 0.930 . S
C791 C787 1.400 . S
C791 C790 1.385 . S
C792 C790 1.478 . S
C792 C794 1.381 . S
C792 C798 1.383 . S
C793 C789 1.495 . S
C793 H799 0.959 . S
C793 H800 0.961 . S
C793 H801 0.960 . S
C794 C792 1.381 . S
C794 C795 1.394 . S
C794 H802 0.930 . S
C795 C794 1.394 . S
C795 C796 1.383 . S
C795 H803 0.929 . S
C796 C795 1.383 . S
C796 C797 1.377 . S
C797 H781 0.930 . S
C797 C796 1.377 . S
C797 C798 1.379 . S
C798 H782 0.931 . S
C798 C792 1.383 . S
C798 C797 1.379 . S
H799 C793 0.959 . S
H800 C793 0.961 . S
H801 C793 0.960 . S
H802 C794 0.930 . S
H803 C795 0.929 . S
H804 C812 0.929 . S
H805 C814 0.930 . S
H806 C816 0.930 . S
H807 C819 0.929 . S
H808 C822 0.930 . S
H809 C824 0.960 . S
H810 C824 0.960 . S
H811 C824 0.960 . S
C812 H804 0.929 . S
C812 C813 1.377 . S
C812 C814 1.384 . S
C813 C812 1.377 . S
C813 C819 1.390 . S
C814 H805 0.930 . S
C814 C812 1.384 . S
C814 C815 1.372 . S
C815 C814 1.372 . S
C815 C816 1.400 . S
C815 C820 1.490 . S
C816 H806 0.930 . S
C816 C815 1.400 . S
C816 C819 1.386 . S
H817 C833 0.930 . S
H818 C834 0.931 . S
C819 H807 0.929 . S
C819 C813 1.390 . S
C819 C816 1.386 . S
C820 C815 1.490 . S
C820 C822 1.395 . S
C820 C823 1.403 . S
H821 C827 0.930 . S
C822 H808 0.930 . S
C822 C820 1.395 . S
C822 C825 1.403 . S
C823 C820 1.403 . S
C823 C824 1.524 . S
C823 C827 1.400 . S
C824 H809 0.960 . S
C824 H810 0.960 . S
C824 H811 0.960 . S
C824 C823 1.524 . S
C825 C822 1.403 . S
C825 C826 1.392 . S
C825 C829 1.495 . S
C826 C825 1.392 . S
C826 C827 1.385 . S
C826 C828 1.478 . S
C827 H821 0.930 . S
C827 C823 1.400 . S
C827 C826 1.385 . S
C828 C826 1.478 . S
C828 C830 1.381 . S
C828 C834 1.383 . S
C829 C825 1.495 . S
C829 H835 0.959 . S
C829 H836 0.961 . S
C829 H837 0.960 . S
C830 C828 1.381 . S
C830 C831 1.394 . S
C830 H838 0.930 . S
C831 C830 1.394 . S
C831 C832 1.383 . S
C831 H839 0.929 . S
C832 C831 1.383 . S
C832 C833 1.377 . S
C833 H817 0.930 . S
C833 C832 1.377 . S
C833 C834 1.379 . S
C834 H818 0.931 . S
C834 C828 1.383 . S
C834 C833 1.379 . S
H835 C829 0.959 . S
H836 C829 0.961 . S
H837 C829 0.960 . S
H838 C830 0.930 . S
H839 C831 0.929 . S
H840 C848 0.929 . S
H841 C850 0.930 . S
H842 C852 0.930 . S
H843 C855 0.929 . S
H844 C858 0.930 . S
H845 C860 0.960 . S
H846 C860 0.960 . S
H847 C860 0.960 . S
C848 H840 0.929 . S
C848 C849 1.377 . S
C848 C850 1.384 . S
C849 C848 1.377 . S
C849 C855 1.390 . S
C850 H841 0.930 . S
C850 C848 1.384 . S
C850 C851 1.372 . S
C851 C850 1.372 . S
C851 C852 1.400 . S
C851 C856 1.490 . S
C852 H842 0.930 . S
C852 C851 1.400 . S
C852 C855 1.386 . S
H853 C869 0.930 . S
H854 C870 0.931 . S
C855 H843 0.929 . S
C855 C849 1.390 . S
C855 C852 1.386 . S
C856 C851 1.490 . S
C856 C858 1.395 . S
C856 C859 1.403 . S
H857 C863 0.930 . S
C858 H844 0.930 . S
C858 C856 1.395 . S
C858 C861 1.403 . S
C859 C856 1.403 . S
C859 C860 1.524 . S
C859 C863 1.400 . S
C860 H845 0.960 . S
C860 H846 0.960 . S
C860 H847 0.960 . S
C860 C859 1.524 . S
C861 C858 1.403 . S
C861 C862 1.392 . S
C861 C865 1.495 . S
C862 C861 1.392 . S
C862 C863 1.385 . S
C862 C864 1.478 . S
C863 H857 0.930 . S
C863 C859 1.400 . S
C863 C862 1.385 . S
C864 C862 1.478 . S
C864 C866 1.381 . S
C864 C870 1.383 . S
C865 C861 1.495 . S
C865 H871 0.959 . S
C865 H872 0.961 . S
C865 H873 0.960 . S
C866 C864 1.381 . S
C866 C867 1.394 . S
C866 H874 0.930 . S
C867 C866 1.394 . S
C867 C868 1.383 . S
C867 H875 0.929 . S
C868 C867 1.383 . S
C868 C869 1.377 . S
C869 H853 0.930 . S
C869 C868 1.377 . S
C869 C870 1.379 . S
C870 H854 0.931 . S
C870 C864 1.383 . S
C870 C869 1.379 . S
H871 C865 0.959 . S
H872 C865 0.961 . S
H873 C865 0.960 . S
H874 C866 0.930 . S
H875 C867 0.929 . S
H876 C884 0.929 . S
H877 C886 0.930 . S
H878 C888 0.930 . S
H879 C891 0.929 . S
H880 C894 0.930 . S
H881 C896 0.960 . S
H882 C896 0.960 . S
H883 C896 0.960 . S
C884 H876 0.929 . S
C884 C885 1.377 . S
C884 C886 1.384 . S
C885 C884 1.377 . S
C885 C891 1.390 . S
C886 H877 0.930 . S
C886 C884 1.384 . S
C886 C887 1.372 . S
C887 C886 1.372 . S
C887 C888 1.400 . S
C887 C892 1.490 . S
C888 H878 0.930 . S
C888 C887 1.400 . S
C888 C891 1.386 . S
H889 C905 0.930 . S
H890 C906 0.931 . S
C891 H879 0.929 . S
C891 C885 1.390 . S
C891 C888 1.386 . S
C892 C887 1.490 . S
C892 C894 1.395 . S
C892 C895 1.403 . S
H893 C899 0.930 . S
C894 H880 0.930 . S
C894 C892 1.395 . S
C894 C897 1.403 . S
C895 C892 1.403 . S
C895 C896 1.524 . S
C895 C899 1.400 . S
C896 H881 0.960 . S
C896 H882 0.960 . S
C896 H883 0.960 . S
C896 C895 1.524 . S
C897 C894 1.403 . S
C897 C898 1.392 . S
C897 C901 1.495 . S
C898 C897 1.392 . S
C898 C899 1.385 . S
C898 C900 1.478 . S
C899 H893 0.930 . S
C899 C895 1.400 . S
C899 C898 1.385 . S
C900 C898 1.478 . S
C900 C902 1.381 . S
C900 C906 1.383 . S
C901 C897 1.495 . S
C901 H907 0.959 . S
C901 H908 0.961 . S
C901 H909 0.960 . S
C902 C900 1.381 . S
C902 C903 1.394 . S
C902 H910 0.930 . S
C903 C902 1.394 . S
C903 C904 1.383 . S
C903 H911 0.929 . S
C904 C903 1.383 . S
C904 C905 1.377 . S
C905 H889 0.930 . S
C905 C904 1.377 . S
C905 C906 1.379 . S
C906 H890 0.931 . S
C906 C900 1.383 . S
C906 C905 1.379 . S
H907 C901 0.959 . S
H908 C901 0.961 . S
H909 C901 0.960 . S
H910 C902 0.930 . S
H911 C903 0.929 . S
H912 C920 0.929 . S
H913 C922 0.930 . S
H914 C924 0.930 . S
H915 C927 0.929 . S
H916 C930 0.930 . S
H917 C932 0.960 . S
H918 C932 0.960 . S
H919 C932 0.960 . S
C920 H912 0.929 . S
C920 C921 1.377 . S
C920 C922 1.384 . S
C921 C920 1.377 . S
C921 C927 1.390 . S
C922 H913 0.930 . S
C922 C920 1.384 . S
C922 C923 1.372 . S
C923 C922 1.372 . S
C923 C924 1.400 . S
C923 C928 1.490 . S
C924 H914 0.930 . S
C924 C923 1.400 . S
C924 C927 1.386 . S
H925 C941 0.930 . S
H926 C942 0.931 . S
C927 H915 0.929 . S
C927 C921 1.390 . S
C927 C924 1.386 . S
C928 C923 1.490 . S
C928 C930 1.395 . S
C928 C931 1.403 . S
H929 C935 0.930 . S
C930 H916 0.930 . S
C930 C928 1.395 . S
C930 C933 1.403 . S
C931 C928 1.403 . S
C931 C932 1.524 . S
C931 C935 1.400 . S
C932 H917 0.960 . S
C932 H918 0.960 . S
C932 H919 0.960 . S
C932 C931 1.524 . S
C933 C930 1.403 . S
C933 C934 1.392 . S
C933 C937 1.495 . S
C934 C933 1.392 . S
C934 C935 1.385 . S
C934 C936 1.478 . S
C935 H929 0.930 . S
C935 C931 1.400 . S
C935 C934 1.385 . S
C936 C934 1.478 . S
C936 C938 1.381 . S
C936 C942 1.383 . S
C937 C933 1.495 . S
C937 H943 0.959 . S
C937 H944 0.961 . S
C937 H945 0.960 . S
C938 C936 1.381 . S
C938 C939 1.394 . S
C938 H946 0.930 . S
C939 C938 1.394 . S
C939 C940 1.383 . S
C939 H947 0.929 . S
C940 C939 1.383 . S
C940 C941 1.377 . S
C941 H925 0.930 . S
C941 C940 1.377 . S
C941 C942 1.379 . S
C942 H926 0.931 . S
C942 C936 1.383 . S
C942 C941 1.379 . S
H943 C937 0.959 . S
H944 C937 0.961 . S
H945 C937 0.960 . S
H946 C938 0.930 . S
H947 C939 0.929 . S
H948 C956 0.929 . S
H949 C958 0.930 . S
H950 C960 0.930 . S
H951 C963 0.929 . S
H952 C966 0.930 . S
H953 C968 0.960 . S
H954 C968 0.960 . S
H955 C968 0.960 . S
C956 H948 0.929 . S
C956 C957 1.377 . S
C956 C958 1.384 . S
C957 C956 1.377 . S
C957 C963 1.390 . S
C958 H949 0.930 . S
C958 C956 1.384 . S
C958 C959 1.372 . S
C959 C958 1.372 . S
C959 C960 1.400 . S
C959 C964 1.490 . S
C960 H950 0.930 . S
C960 C959 1.400 . S
C960 C963 1.386 . S
H961 C977 0.930 . S
H962 C978 0.931 . S
C963 H951 0.929 . S
C963 C957 1.390 . S
C963 C960 1.386 . S
C964 C959 1.490 . S
C964 C966 1.395 . S
C964 C967 1.403 . S
H965 C971 0.930 . S
C966 H952 0.930 . S
C966 C964 1.395 . S
C966 C969 1.403 . S
C967 C964 1.403 . S
C967 C968 1.524 . S
C967 C971 1.400 . S
C968 H953 0.960 . S
C968 H954 0.960 . S
C968 H955 0.960 . S
C968 C967 1.524 . S
C969 C966 1.403 . S
C969 C970 1.392 . S
C969 C973 1.495 . S
C970 C969 1.392 . S
C970 C971 1.385 . S
C970 C972 1.478 . S
C971 H965 0.930 . S
C971 C967 1.400 . S
C971 C970 1.385 . S
C972 C970 1.478 . S
C972 C974 1.381 . S
C972 C978 1.383 . S
C973 C969 1.495 . S
C973 H979 0.959 . S
C973 H980 0.961 . S
C973 H981 0.960 . S
C974 C972 1.381 . S
C974 C975 1.394 . S
C974 H982 0.930 . S
C975 C974 1.394 . S
C975 C976 1.383 . S
C975 H983 0.929 . S
C976 C975 1.383 . S
C976 C977 1.377 . S
C977 H961 0.930 . S
C977 C976 1.377 . S
C977 C978 1.379 . S
C978 H962 0.931 . S
C978 C972 1.383 . S
C978 C977 1.379 . S
H979 C973 0.959 . S
H980 C973 0.961 . S
H981 C973 0.960 . S
H982 C974 0.930 . S
H983 C975 0.929 . S
H984 C992 0.929 . S
H985 C994 0.930 . S
H986 C996 0.930 . S
H987 C999 0.929 . S
H988 C1002 0.930 . S
H989 C1004 0.960 . S
H990 C1004 0.960 . S
H991 C1004 0.960 . S
C992 H984 0.929 . S
C992 C993 1.377 . S
C992 C994 1.384 . S
C993 C992 1.377 . S
C993 C999 1.390 . S
C994 H985 0.930 . S
C994 C992 1.384 . S
C994 C995 1.372 . S
C995 C994 1.372 . S
C995 C996 1.400 . S
C995 C1000 1.490 . S
C996 H986 0.930 . S
C996 C995 1.400 . S
C996 C999 1.386 . S
H997 C1013 0.930 . S
H998 C1014 0.931 . S
C999 H987 0.929 . S
C999 C993 1.390 . S
C999 C996 1.386 . S
C1000 C995 1.490 . S
C1000 C1002 1.395 . S
C1000 C1003 1.403 . S
H1001 C1007 0.930 . S
C1002 H988 0.930 . S
C1002 C1000 1.395 . S
C1002 C1005 1.403 . S
C1003 C1000 1.403 . S
C1003 C1004 1.524 . S
C1003 C1007 1.400 . S
C1004 H989 0.960 . S
C1004 H990 0.960 . S
C1004 H991 0.960 . S
C1004 C1003 1.524 . S
C1005 C1002 1.403 . S
C1005 C1006 1.392 . S
C1005 C1009 1.495 . S
C1006 C1005 1.392 . S
C1006 C1007 1.385 . S
C1006 C1008 1.478 . S
C1007 H1001 0.930 . S
C1007 C1003 1.400 . S
C1007 C1006 1.385 . S
C1008 C1006 1.478 . S
C1008 C1010 1.381 . S
C1008 C1014 1.383 . S
C1009 C1005 1.495 . S
C1009 H1015 0.959 . S
C1009 H1016 0.961 . S
C1009 H1017 0.960 . S
C1010 C1008 1.381 . S
C1010 C1011 1.394 . S
C1010 H1018 0.930 . S
C1011 C1010 1.394 . S
C1011 C1012 1.383 . S
C1011 H1019 0.929 . S
C1012 C1011 1.383 . S
C1012 C1013 1.377 . S
C1013 H997 0.930 . S
C1013 C1012 1.377 . S
C1013 C1014 1.379 . S
C1014 H998 0.931 . S
C1014 C1008 1.383 . S
C1014 C1013 1.379 . S
H1015 C1009 0.959 . S
H1016 C1009 0.961 . S
H1017 C1009 0.960 . S
H1018 C1010 0.930 . S
H1019 C1011 0.929 . S
H1020 C1028 0.929 . S
H1021 C1030 0.930 . S
H1022 C1032 0.930 . S
H1023 C1035 0.929 . S
H1024 C1038 0.930 . S
H1025 C1040 0.960 . S
H1026 C1040 0.960 . S
H1027 C1040 0.960 . S
C1028 H1020 0.929 . S
C1028 C1029 1.377 . S
C1028 C1030 1.384 . S
C1029 C1028 1.377 . S
C1029 C1035 1.390 . S
C1030 H1021 0.930 . S
C1030 C1028 1.384 . S
C1030 C1031 1.372 . S
C1031 C1030 1.372 . S
C1031 C1032 1.400 . S
C1031 C1036 1.490 . S
C1032 H1022 0.930 . S
C1032 C1031 1.400 . S
C1032 C1035 1.386 . S
H1033 C1049 0.930 . S
H1034 C1050 0.931 . S
C1035 H1023 0.929 . S
C1035 C1029 1.390 . S
C1035 C1032 1.386 . S
C1036 C1031 1.490 . S
C1036 C1038 1.395 . S
C1036 C1039 1.403 . S
H1037 C1043 0.930 . S
C1038 H1024 0.930 . S
C1038 C1036 1.395 . S
C1038 C1041 1.403 . S
C1039 C1036 1.403 . S
C1039 C1040 1.524 . S
C1039 C1043 1.400 . S
C1040 H1025 0.960 . S
C1040 H1026 0.960 . S
C1040 H1027 0.960 . S
C1040 C1039 1.524 . S
C1041 C1038 1.403 . S
C1041 C1042 1.392 . S
C1041 C1045 1.495 . S
C1042 C1041 1.392 . S
C1042 C1043 1.385 . S
C1042 C1044 1.478 . S
C1043 H1037 0.930 . S
C1043 C1039 1.400 . S
C1043 C1042 1.385 . S
C1044 C1042 1.478 . S
C1044 C1046 1.381 . S
C1044 C1050 1.383 . S
C1045 C1041 1.495 . S
C1045 H1051 0.959 . S
C1045 H1052 0.961 . S
C1045 H1053 0.960 . S
C1046 C1044 1.381 . S
C1046 C1047 1.394 . S
C1046 H1054 0.930 . S
C1047 C1046 1.394 . S
C1047 C1048 1.383 . S
C1047 H1055 0.929 . S
C1048 C1047 1.383 . S
C1048 C1049 1.377 . S
C1049 H1033 0.930 . S
C1049 C1048 1.377 . S
C1049 C1050 1.379 . S
C1050 H1034 0.931 . S
C1050 C1044 1.383 . S
C1050 C1049 1.379 . S
H1051 C1045 0.959 . S
H1052 C1045 0.961 . S
H1053 C1045 0.960 . S
H1054 C1046 0.930 . S
H1055 C1047 0.929 . S
H1056 C1064 0.929 . S
H1057 C1066 0.930 . S
H1058 C1068 0.930 . S
H1059 C1071 0.929 . S
H1060 C1074 0.930 . S
H1061 C1076 0.960 . S
H1062 C1076 0.960 . S
H1063 C1076 0.960 . S
C1064 H1056 0.929 . S
C1064 C1065 1.377 . S
C1064 C1066 1.384 . S
C1065 C1064 1.377 . S
C1065 C1071 1.390 . S
C1066 H1057 0.930 . S
C1066 C1064 1.384 . S
C1066 C1067 1.372 . S
C1067 C1066 1.372 . S
C1067 C1068 1.400 . S
C1067 C1072 1.490 . S
C1068 H1058 0.930 . S
C1068 C1067 1.400 . S
C1068 C1071 1.386 . S
H1069 C1085 0.930 . S
H1070 C1086 0.931 . S
C1071 H1059 0.929 . S
C1071 C1065 1.390 . S
C1071 C1068 1.386 . S
C1072 C1067 1.490 . S
C1072 C1074 1.395 . S
C1072 C1075 1.403 . S
H1073 C1079 0.930 . S
C1074 H1060 0.930 . S
C1074 C1072 1.395 . S
C1074 C1077 1.403 . S
C1075 C1072 1.403 . S
C1075 C1076 1.524 . S
C1075 C1079 1.400 . S
C1076 H1061 0.960 . S
C1076 H1062 0.960 . S
C1076 H1063 0.960 . S
C1076 C1075 1.524 . S
C1077 C1074 1.403 . S
C1077 C1078 1.392 . S
C1077 C1081 1.495 . S
C1078 C1077 1.392 . S
C1078 C1079 1.385 . S
C1078 C1080 1.478 . S
C1079 H1073 0.930 . S
C1079 C1075 1.400 . S
C1079 C1078 1.385 . S
C1080 C1078 1.478 . S
C1080 C1082 1.381 . S
C1080 C1086 1.383 . S
C1081 C1077 1.495 . S
C1081 H1087 0.959 . S
C1081 H1088 0.961 . S
C1081 H1089 0.960 . S
C1082 C1080 1.381 . S
C1082 C1083 1.394 . S
C1082 H1090 0.930 . S
C1083 C1082 1.394 . S
C1083 C1084 1.383 . S
C1083 H1091 0.929 . S
C1084 C1083 1.383 . S
C1084 C1085 1.377 . S
C1085 H1069 0.930 . S
C1085 C1084 1.377 . S
C1085 C1086 1.379 . S
C1086 H1070 0.931 . S
C1086 C1080 1.383 . S
C1086 C1085 1.379 . S
H1087 C1081 0.959 . S
H1088 C1081 0.961 . S
H1089 C1081 0.960 . S
H1090 C1082 0.930 . S
H1091 C1083 0.929 . S
H1092 C1100 0.929 . S
H1093 C1102 0.930 . S
H1094 C1104 0.930 . S
H1095 C1107 0.929 . S
H1096 C1110 0.930 . S
H1097 C1112 0.960 . S
H1098 C1112 0.960 . S
H1099 C1112 0.960 . S
C1100 H1092 0.929 . S
C1100 C1101 1.377 . S
C1100 C1102 1.384 . S
C1101 C1100 1.377 . S
C1101 C1107 1.390 . S
C1102 H1093 0.930 . S
C1102 C1100 1.384 . S
C1102 C1103 1.372 . S
C1103 C1102 1.372 . S
C1103 C1104 1.400 . S
C1103 C1108 1.490 . S
C1104 H1094 0.930 . S
C1104 C1103 1.400 . S
C1104 C1107 1.386 . S
H1105 C1121 0.930 . S
H1106 C1122 0.931 . S
C1107 H1095 0.929 . S
C1107 C1101 1.390 . S
C1107 C1104 1.386 . S
C1108 C1103 1.490 . S
C1108 C1110 1.395 . S
C1108 C1111 1.403 . S
H1109 C1115 0.930 . S
C1110 H1096 0.930 . S
C1110 C1108 1.395 . S
C1110 C1113 1.403 . S
C1111 C1108 1.403 . S
C1111 C1112 1.524 . S
C1111 C1115 1.400 . S
C1112 H1097 0.960 . S
C1112 H1098 0.960 . S
C1112 H1099 0.960 . S
C1112 C1111 1.524 . S
C1113 C1110 1.403 . S
C1113 C1114 1.392 . S
C1113 C1117 1.495 . S
C1114 C1113 1.392 . S
C1114 C1115 1.385 . S
C1114 C1116 1.478 . S
C1115 H1109 0.930 . S
C1115 C1111 1.400 . S
C1115 C1114 1.385 . S
C1116 C1114 1.478 . S
C1116 C1118 1.381 . S
C1116 C1122 1.383 . S
C1117 C1113 1.495 . S
C1117 H1123 0.959 . S
C1117 H1124 0.961 . S
C1117 H1125 0.960 . S
C1118 C1116 1.381 . S
C1118 C1119 1.394 . S
C1118 H1126 0.930 . S
C1119 C1118 1.394 . S
C1119 C1120 1.383 . S
C1119 H1127 0.929 . S
C1120 C1119 1.383 . S
C1120 C1121 1.377 . S
C1121 H1105 0.930 . S
C1121 C1120 1.377 . S
C1121 C1122 1.379 . S
C1122 H1106 0.931 . S
C1122 C1116 1.383 . S
C1122 C1121 1.379 . S
H1123 C1117 0.959 . S
H1124 C1117 0.961 . S
H1125 C1117 0.960 . S
H1126 C1118 0.930 . S
H1127 C1119 0.929 . S
H1128 C1136 0.929 . S
H1129 C1138 0.930 . S
H1130 C1140 0.930 . S
H1131 C1143 0.929 . S
H1132 C1146 0.930 . S
H1133 C1148 0.960 . S
H1134 C1148 0.960 . S
H1135 C1148 0.960 . S
C1136 H1128 0.929 . S
C1136 C1137 1.377 . S
C1136 C1138 1.384 . S
C1137 C1136 1.377 . S
C1137 C1143 1.390 . S
C1138 H1129 0.930 . S
C1138 C1136 1.384 . S
C1138 C1139 1.372 . S
C1139 C1138 1.372 . S
C1139 C1140 1.400 . S
C1139 C1144 1.490 . S
C1140 H1130 0.930 . S
C1140 C1139 1.400 . S
C1140 C1143 1.386 . S
H1141 C1157 0.930 . S
H1142 C1158 0.931 . S
C1143 H1131 0.929 . S
C1143 C1137 1.390 . S
C1143 C1140 1.386 . S
C1144 C1139 1.490 . S
C1144 C1146 1.395 . S
C1144 C1147 1.403 . S
H1145 C1151 0.930 . S
C1146 H1132 0.930 . S
C1146 C1144 1.395 . S
C1146 C1149 1.403 . S
C1147 C1144 1.403 . S
C1147 C1148 1.524 . S
C1147 C1151 1.400 . S
C1148 H1133 0.960 . S
C1148 H1134 0.960 . S
C1148 H1135 0.960 . S
C1148 C1147 1.524 . S
C1149 C1146 1.403 . S
C1149 C1150 1.392 . S
C1149 C1153 1.495 . S
C1150 C1149 1.392 . S
C1150 C1151 1.385 . S
C1150 C1152 1.478 . S
C1151 H1145 0.930 . S
C1151 C1147 1.400 . S
C1151 C1150 1.385 . S
C1152 C1150 1.478 . S
C1152 C1154 1.381 . S
C1152 C1158 1.383 . S
C1153 C1149 1.495 . S
C1153 H1159 0.959 . S
C1153 H1160 0.961 . S
C1153 H1161 0.960 . S
C1154 C1152 1.381 . S
C1154 C1155 1.394 . S
C1154 H1162 0.930 . S
C1155 C1154 1.394 . S
C1155 C1156 1.383 . S
C1155 H1163 0.929 . S
C1156 C1155 1.383 . S
C1156 C1157 1.377 . S
C1157 H1141 0.930 . S
C1157 C1156 1.377 . S
C1157 C1158 1.379 . S
C1158 H1142 0.931 . S
C1158 C1152 1.383 . S
C1158 C1157 1.379 . S
H1159 C1153 0.959 . S
H1160 C1153 0.961 . S
H1161 C1153 0.960 . S
H1162 C1154 0.930 . S
H1163 C1155 0.929 . S
H1164 C1172 0.929 . S
H1165 C1174 0.930 . S
H1166 C1176 0.930 . S
H1167 C1179 0.929 . S
H1168 C1182 0.930 . S
H1169 C1184 0.960 . S
H1170 C1184 0.960 . S
H1171 C1184 0.960 . S
C1172 H1164 0.929 . S
C1172 C1173 1.377 . S
C1172 C1174 1.384 . S
C1173 C1172 1.377 . S
C1173 C1179 1.390 . S
C1174 H1165 0.930 . S
C1174 C1172 1.384 . S
C1174 C1175 1.372 . S
C1175 C1174 1.372 . S
C1175 C1176 1.400 . S
C1175 C1180 1.490 . S
C1176 H1166 0.930 . S
C1176 C1175 1.400 . S
C1176 C1179 1.386 . S
H1177 C1193 0.930 . S
H1178 C1194 0.931 . S
C1179 H1167 0.929 . S
C1179 C1173 1.390 . S
C1179 C1176 1.386 . S
C1180 C1175 1.490 . S
C1180 C1182 1.395 . S
C1180 C1183 1.403 . S
H1181 C1187 0.930 . S
C1182 H1168 0.930 . S
C1182 C1180 1.395 . S
C1182 C1185 1.403 . S
C1183 C1180 1.403 . S
C1183 C1184 1.524 . S
C1183 C1187 1.400 . S
C1184 H1169 0.960 . S
C1184 H1170 0.960 . S
C1184 H1171 0.960 . S
C1184 C1183 1.524 . S
C1185 C1182 1.403 . S
C1185 C1186 1.392 . S
C1185 C1189 1.495 . S
C1186 C1185 1.392 . S
C1186 C1187 1.385 . S
C1186 C1188 1.478 . S
C1187 H1181 0.930 . S
C1187 C1183 1.400 . S
C1187 C1186 1.385 . S
C1188 C1186 1.478 . S
C1188 C1190 1.381 . S
C1188 C1194 1.383 . S
C1189 C1185 1.495 . S
C1189 H1195 0.959 . S
C1189 H1196 0.961 . S
C1189 H1197 0.960 . S
C1190 C1188 1.381 . S
C1190 C1191 1.394 . S
C1190 H1198 0.930 . S
C1191 C1190 1.394 . S
C1191 C1192 1.383 . S
C1191 H1199 0.929 . S
C1192 C1191 1.383 . S
C1192 C1193 1.377 . S
C1193 H1177 0.930 . S
C1193 C1192 1.377 . S
C1193 C1194 1.379 . S
C1194 H1178 0.931 . S
C1194 C1188 1.383 . S
C1194 C1193 1.379 . S
H1195 C1189 0.959 . S
H1196 C1189 0.961 . S
H1197 C1189 0.960 . S
H1198 C1190 0.930 . S
H1199 C1191 0.929 . S
H1200 C1208 0.929 . S
H1201 C1210 0.930 . S
H1202 C1212 0.930 . S
H1203 C1215 0.929 . S
H1204 C1218 0.930 . S
H1205 C1220 0.960 . S
H1206 C1220 0.960 . S
H1207 C1220 0.960 . S
C1208 H1200 0.929 . S
C1208 C1209 1.377 . S
C1208 C1210 1.384 . S
C1209 C1208 1.377 . S
C1209 C1215 1.390 . S
C1210 H1201 0.930 . S
C1210 C1208 1.384 . S
C1210 C1211 1.372 . S
C1211 C1210 1.372 . S
C1211 C1212 1.400 . S
C1211 C1216 1.490 . S
C1212 H1202 0.930 . S
C1212 C1211 1.400 . S
C1212 C1215 1.386 . S
H1213 C1229 0.930 . S
H1214 C1230 0.931 . S
C1215 H1203 0.929 . S
C1215 C1209 1.390 . S
C1215 C1212 1.386 . S
C1216 C1211 1.490 . S
C1216 C1218 1.395 . S
C1216 C1219 1.403 . S
H1217 C1223 0.930 . S
C1218 H1204 0.930 . S
C1218 C1216 1.395 . S
C1218 C1221 1.403 . S
C1219 C1216 1.403 . S
C1219 C1220 1.524 . S
C1219 C1223 1.400 . S
C1220 H1205 0.960 . S
C1220 H1206 0.960 . S
C1220 H1207 0.960 . S
C1220 C1219 1.524 . S
C1221 C1218 1.403 . S
C1221 C1222 1.392 . S
C1221 C1225 1.495 . S
C1222 C1221 1.392 . S
C1222 C1223 1.385 . S
C1222 C1224 1.478 . S
C1223 H1217 0.930 . S
C1223 C1219 1.400 . S
C1223 C1222 1.385 . S
C1224 C1222 1.478 . S
C1224 C1226 1.381 . S
C1224 C1230 1.383 . S
C1225 C1221 1.495 . S
C1225 H1231 0.959 . S
C1225 H1232 0.961 . S
C1225 H1233 0.960 . S
C1226 C1224 1.381 . S
C1226 C1227 1.394 . S
C1226 H1234 0.930 . S
C1227 C1226 1.394 . S
C1227 C1228 1.383 . S
C1227 H1235 0.929 . S
C1228 C1227 1.383 . S
C1228 C1229 1.377 . S
C1229 H1213 0.930 . S
C1229 C1228 1.377 . S
C1229 C1230 1.379 . S
C1230 H1214 0.931 . S
C1230 C1224 1.383 . S
C1230 C1229 1.379 . S
H1231 C1225 0.959 . S
H1232 C1225 0.961 . S
H1233 C1225 0.960 . S
H1234 C1226 0.930 . S
H1235 C1227 0.929 . S
H1236 C1244 0.929 . S
H1237 C1246 0.930 . S
H1238 C1248 0.930 . S
H1239 C1251 0.929 . S
H1240 C1254 0.930 . S
H1241 C1256 0.960 . S
H1242 C1256 0.960 . S
H1243 C1256 0.960 . S
C1244 H1236 0.929 . S
C1244 C1245 1.377 . S
C1244 C1246 1.384 . S
C1245 C1244 1.377 . S
C1245 C1251 1.390 . S
C1246 H1237 0.930 . S
C1246 C1244 1.384 . S
C1246 C1247 1.372 . S
C1247 C1246 1.372 . S
C1247 C1248 1.400 . S
C1247 C1252 1.490 . S
C1248 H1238 0.930 . S
C1248 C1247 1.400 . S
C1248 C1251 1.386 . S
H1249 C1265 0.930 . S
H1250 C1266 0.931 . S
C1251 H1239 0.929 . S
C1251 C1245 1.390 . S
C1251 C1248 1.386 . S
C1252 C1247 1.490 . S
C1252 C1254 1.395 . S
C1252 C1255 1.403 . S
H1253 C1259 0.930 . S
C1254 H1240 0.930 . S
C1254 C1252 1.395 . S
C1254 C1257 1.403 . S
C1255 C1252 1.403 . S
C1255 C1256 1.524 . S
C1255 C1259 1.400 . S
C1256 H1241 0.960 . S
C1256 H1242 0.960 . S
C1256 H1243 0.960 . S
C1256 C1255 1.524 . S
C1257 C1254 1.403 . S
C1257 C1258 1.392 . S
C1257 C1261 1.495 . S
C1258 C1257 1.392 . S
C1258 C1259 1.385 . S
C1258 C1260 1.478 . S
C1259 H1253 0.930 . S
C1259 C1255 1.400 . S
C1259 C1258 1.385 . S
C1260 C1258 1.478 . S
C1260 C1262 1.381 . S
C1260 C1266 1.383 . S
C1261 C1257 1.495 . S
C1261 H1267 0.959 . S
C1261 H1268 0.961 . S
C1261 H1269 0.960 . S
C1262 C1260 1.381 . S
C1262 C1263 1.394 . S
C1262 H1270 0.930 . S
C1263 C1262 1.394 . S
C1263 C1264 1.383 . S
C1263 H1271 0.929 . S
C1264 C1263 1.383 . S
C1264 C1265 1.377 . S
C1265 H1249 0.930 . S
C1265 C1264 1.377 . S
C1265 C1266 1.379 . S
C1266 H1250 0.931 . S
C1266 C1260 1.383 . S
C1266 C1265 1.379 . S
H1267 C1261 0.959 . S
H1268 C1261 0.961 . S
H1269 C1261 0.960 . S
H1270 C1262 0.930 . S
H1271 C1263 0.929 . S
H1272 C1280 0.929 . S
H1273 C1282 0.930 . S
H1274 C1284 0.930 . S
H1275 C1287 0.929 . S
H1276 C1290 0.930 . S
H1277 C1292 0.960 . S
H1278 C1292 0.960 . S
H1279 C1292 0.960 . S
C1280 H1272 0.929 . S
C1280 C1281 1.377 . S
C1280 C1282 1.384 . S
C1281 C1280 1.377 . S
C1281 C1287 1.390 . S
C1282 H1273 0.930 . S
C1282 C1280 1.384 . S
C1282 C1283 1.372 . S
C1283 C1282 1.372 . S
C1283 C1284 1.400 . S
C1283 C1288 1.490 . S
C1284 H1274 0.930 . S
C1284 C1283 1.400 . S
C1284 C1287 1.386 . S
H1285 C1301 0.930 . S
H1286 C1302 0.931 . S
C1287 H1275 0.929 . S
C1287 C1281 1.390 . S
C1287 C1284 1.386 . S
C1288 C1283 1.490 . S
C1288 C1290 1.395 . S
C1288 C1291 1.403 . S
H1289 C1295 0.930 . S
C1290 H1276 0.930 . S
C1290 C1288 1.395 . S
C1290 C1293 1.403 . S
C1291 C1288 1.403 . S
C1291 C1292 1.524 . S
C1291 C1295 1.400 . S
C1292 H1277 0.960 . S
C1292 H1278 0.960 . S
C1292 H1279 0.960 . S
C1292 C1291 1.524 . S
C1293 C1290 1.403 . S
C1293 C1294 1.392 . S
C1293 C1297 1.495 . S
C1294 C1293 1.392 . S
C1294 C1295 1.385 . S
C1294 C1296 1.478 . S
C1295 H1289 0.930 . S
C1295 C1291 1.400 . S
C1295 C1294 1.385 . S
C1296 C1294 1.478 . S
C1296 C1298 1.381 . S
C1296 C1302 1.383 . S
C1297 C1293 1.495 . S
C1297 H1303 0.959 . S
C1297 H1304 0.961 . S
C1297 H1305 0.960 . S
C1298 C1296 1.381 . S
C1298 C1299 1.394 . S
C1298 H1306 0.930 . S
C1299 C1298 1.394 . S
C1299 C1300 1.383 . S
C1299 H1307 0.929 . S
C1300 C1299 1.383 . S
C1300 C1301 1.377 . S
C1301 H1285 0.930 . S
C1301 C1300 1.377 . S
C1301 C1302 1.379 . S
C1302 H1286 0.931 . S
C1302 C1296 1.383 . S
C1302 C1301 1.379 . S
H1303 C1297 0.959 . S
H1304 C1297 0.961 . S
H1305 C1297 0.960 . S
H1306 C1298 0.930 . S
H1307 C1299 0.929 . S
H1308 C1316 0.929 . S
H1309 C1318 0.930 . S
H1310 C1320 0.930 . S
H1311 C1323 0.929 . S
H1312 C1326 0.930 . S
H1313 C1328 0.960 . S
H1314 C1328 0.960 . S
H1315 C1328 0.960 . S
C1316 H1308 0.929 . S
C1316 C1317 1.377 . S
C1316 C1318 1.384 . S
C1317 C1316 1.377 . S
C1317 C1323 1.390 . S
C1318 H1309 0.930 . S
C1318 C1316 1.384 . S
C1318 C1319 1.372 . S
C1319 C1318 1.372 . S
C1319 C1320 1.400 . S
C1319 C1324 1.490 . S
C1320 H1310 0.930 . S
C1320 C1319 1.400 . S
C1320 C1323 1.386 . S
H1321 C1337 0.930 . S
H1322 C1338 0.931 . S
C1323 H1311 0.929 . S
C1323 C1317 1.390 . S
C1323 C1320 1.386 . S
C1324 C1319 1.490 . S
C1324 C1326 1.395 . S
C1324 C1327 1.403 . S
H1325 C1331 0.930 . S
C1326 H1312 0.930 . S
C1326 C1324 1.395 . S
C1326 C1329 1.403 . S
C1327 C1324 1.403 . S
C1327 C1328 1.524 . S
C1327 C1331 1.400 . S
C1328 H1313 0.960 . S
C1328 H1314 0.960 . S
C1328 H1315 0.960 . S
C1328 C1327 1.524 . S
C1329 C1326 1.403 . S
C1329 C1330 1.392 . S
C1329 C1333 1.495 1_556 S
C1330 C1329 1.392 . S
C1330 C1331 1.385 . S
C1330 C1332 1.478 1_556 S
C1331 H1325 0.930 . S
C1331 C1327 1.400 . S
C1331 C1330 1.385 . S
C1332 C1330 1.478 1_554 S
C1332 C1334 1.381 . S
C1332 C1338 1.383 . S
C1333 C1329 1.495 1_554 S
C1333 H1339 0.959 . S
C1333 H1340 0.961 . S
C1333 H1341 0.960 . S
C1334 C1332 1.381 . S
C1334 C1335 1.394 . S
C1334 H1342 0.930 . S
C1335 C1334 1.394 . S
C1335 C1336 1.383 . S
C1335 H1343 0.929 . S
C1336 C1335 1.383 . S
C1336 C1337 1.377 . S
C1337 H1321 0.930 . S
C1337 C1336 1.377 . S
C1337 C1338 1.379 . S
C1338 H1322 0.931 . S
C1338 C1332 1.383 . S
C1338 C1337 1.379 . S
H1339 C1333 0.959 . S
H1340 C1333 0.961 . S
H1341 C1333 0.960 . S
H1342 C1334 0.930 . S
H1343 C1335 0.929 . S
H1344 C1352 0.929 . S
H1345 C1354 0.930 . S
H1346 C1356 0.930 . S
H1347 C1359 0.929 . S
H1348 C1362 0.930 . S
H1349 C1364 0.960 . S
H1350 C1364 0.960 . S
H1351 C1364 0.960 . S
C1352 H1344 0.929 . S
C1352 C1353 1.377 . S
C1352 C1354 1.384 . S
C1353 C1352 1.377 . S
C1353 C1359 1.390 . S
C1354 H1345 0.930 . S
C1354 C1352 1.384 . S
C1354 C1355 1.372 . S
C1355 C1354 1.372 . S
C1355 C1356 1.400 . S
C1355 C1360 1.490 . S
C1356 H1346 0.930 . S
C1356 C1355 1.400 . S
C1356 C1359 1.386 . S
H1357 C1373 0.930 . S
H1358 C1374 0.931 . S
C1359 H1347 0.929 . S
C1359 C1353 1.390 . S
C1359 C1356 1.386 . S
C1360 C1355 1.490 . S
C1360 C1362 1.395 . S
C1360 C1363 1.403 . S
H1361 C1367 0.930 . S
C1362 H1348 0.930 . S
C1362 C1360 1.395 . S
C1362 C1365 1.403 . S
C1363 C1360 1.403 . S
C1363 C1364 1.524 . S
C1363 C1367 1.400 . S
C1364 H1349 0.960 . S
C1364 H1350 0.960 . S
C1364 H1351 0.960 . S
C1364 C1363 1.524 . S
C1365 C1362 1.403 . S
C1365 C1366 1.392 . S
C1365 C1369 1.495 . S
C1366 C1365 1.392 . S
C1366 C1367 1.385 . S
C1366 C1368 1.478 . S
C1367 H1361 0.930 . S
C1367 C1363 1.400 . S
C1367 C1366 1.385 . S
C1368 C1366 1.478 . S
C1368 C1370 1.381 . S
C1368 C1374 1.383 . S
C1369 C1365 1.495 . S
C1369 H1375 0.959 . S
C1369 H1376 0.961 . S
C1369 H1377 0.960 . S
C1370 C1368 1.381 . S
C1370 C1371 1.394 . S
C1370 H1378 0.930 . S
C1371 C1370 1.394 . S
C1371 C1372 1.383 . S
C1371 H1379 0.929 . S
C1372 C1371 1.383 . S
C1372 C1373 1.377 . S
C1373 H1357 0.930 . S
C1373 C1372 1.377 . S
C1373 C1374 1.379 . S
C1374 H1358 0.931 . S
C1374 C1368 1.383 . S
C1374 C1373 1.379 . S
H1375 C1369 0.959 . S
H1376 C1369 0.961 . S
H1377 C1369 0.960 . S
H1378 C1370 0.930 . S
H1379 C1371 0.929 . S
H1380 C1388 0.929 . S
H1381 C1390 0.930 . S
H1382 C1392 0.930 . S
H1383 C1395 0.929 . S
H1384 C1398 0.930 . S
H1385 C1400 0.960 . S
H1386 C1400 0.960 . S
H1387 C1400 0.960 . S
C1388 H1380 0.929 . S
C1388 C1389 1.377 . S
C1388 C1390 1.384 . S
C1389 C1388 1.377 . S
C1389 C1395 1.390 . S
C1390 H1381 0.930 . S
C1390 C1388 1.384 . S
C1390 C1391 1.372 . S
C1391 C1390 1.372 . S
C1391 C1392 1.400 . S
C1391 C1396 1.490 . S
C1392 H1382 0.930 . S
C1392 C1391 1.400 . S
C1392 C1395 1.386 . S
H1393 C1409 0.930 . S
H1394 C1410 0.931 . S
C1395 H1383 0.929 . S
C1395 C1389 1.390 . S
C1395 C1392 1.386 . S
C1396 C1391 1.490 . S
C1396 C1398 1.395 . S
C1396 C1399 1.403 . S
H1397 C1403 0.930 . S
C1398 H1384 0.930 . S
C1398 C1396 1.395 . S
C1398 C1401 1.403 . S
C1399 C1396 1.403 . S
C1399 C1400 1.524 . S
C1399 C1403 1.400 . S
C1400 H1385 0.960 . S
C1400 H1386 0.960 . S
C1400 H1387 0.960 . S
C1400 C1399 1.524 . S
C1401 C1398 1.403 . S
C1401 C1402 1.392 . S
C1401 C1405 1.495 . S
C1402 C1401 1.392 . S
C1402 C1403 1.385 . S
C1402 C1404 1.478 . S
C1403 H1397 0.930 . S
C1403 C1399 1.400 . S
C1403 C1402 1.385 . S
C1404 C1402 1.478 . S
C1404 C1406 1.381 . S
C1404 C1410 1.383 . S
C1405 C1401 1.495 . S
C1405 H1411 0.959 . S
C1405 H1412 0.961 . S
C1405 H1413 0.960 . S
C1406 C1404 1.381 . S
C1406 C1407 1.394 . S
C1406 H1414 0.930 . S
C1407 C1406 1.394 . S
C1407 C1408 1.383 . S
C1407 H1415 0.929 . S
C1408 C1407 1.383 . S
C1408 C1409 1.377 . S
C1409 H1393 0.930 . S
C1409 C1408 1.377 . S
C1409 C1410 1.379 . S
C1410 H1394 0.931 . S
C1410 C1404 1.383 . S
C1410 C1409 1.379 . S
H1411 C1405 0.959 . S
H1412 C1405 0.961 . S
H1413 C1405 0.960 . S
H1414 C1406 0.930 . S
H1415 C1407 0.929 . S
H1416 C1424 0.929 . S
H1417 C1426 0.930 . S
H1418 C1428 0.930 . S
H1419 C1431 0.929 . S
H1420 C1434 0.930 . S
H1421 C1436 0.960 . S
H1422 C1436 0.960 . S
H1423 C1436 0.960 . S
C1424 H1416 0.929 . S
C1424 C1425 1.377 . S
C1424 C1426 1.384 . S
C1425 C1424 1.377 . S
C1425 C1431 1.390 . S
C1426 H1417 0.930 . S
C1426 C1424 1.384 . S
C1426 C1427 1.372 . S
C1427 C1426 1.372 . S
C1427 C1428 1.400 . S
C1427 C1432 1.490 . S
C1428 H1418 0.930 . S
C1428 C1427 1.400 . S
C1428 C1431 1.386 . S
H1429 C1445 0.930 . S
H1430 C1446 0.931 . S
C1431 H1419 0.929 . S
C1431 C1425 1.390 . S
C1431 C1428 1.386 . S
C1432 C1427 1.490 . S
C1432 C1434 1.395 . S
C1432 C1435 1.403 . S
H1433 C1439 0.930 . S
C1434 H1420 0.930 . S
C1434 C1432 1.395 . S
C1434 C1437 1.403 . S
C1435 C1432 1.403 . S
C1435 C1436 1.524 . S
C1435 C1439 1.400 . S
C1436 H1421 0.960 . S
C1436 H1422 0.960 . S
C1436 H1423 0.960 . S
C1436 C1435 1.524 . S
C1437 C1434 1.403 . S
C1437 C1438 1.392 . S
C1437 C1441 1.495 . S
C1438 C1437 1.392 . S
C1438 C1439 1.385 . S
C1438 C1440 1.478 . S
C1439 H1433 0.930 . S
C1439 C1435 1.400 . S
C1439 C1438 1.385 . S
C1440 C1438 1.478 . S
C1440 C1442 1.381 . S
C1440 C1446 1.383 . S
C1441 C1437 1.495 . S
C1441 H1447 0.959 . S
C1441 H1448 0.961 . S
C1441 H1449 0.960 . S
C1442 C1440 1.381 . S
C1442 C1443 1.394 . S
C1442 H1450 0.930 . S
C1443 C1442 1.394 . S
C1443 C1444 1.383 . S
C1443 H1451 0.929 . S
C1444 C1443 1.383 . S
C1444 C1445 1.377 . S
C1445 H1429 0.930 . S
C1445 C1444 1.377 . S
C1445 C1446 1.379 . S
C1446 H1430 0.931 . S
C1446 C1440 1.383 . S
C1446 C1445 1.379 . S
H1447 C1441 0.959 . S
H1448 C1441 0.961 . S
H1449 C1441 0.960 . S
H1450 C1442 0.930 . S
H1451 C1443 0.929 . S
H1452 C1460 0.929 . S
H1453 C1462 0.930 . S
H1454 C1464 0.930 . S
H1455 C1467 0.929 . S
H1456 C1470 0.930 . S
H1457 C1472 0.960 . S
H1458 C1472 0.960 . S
H1459 C1472 0.960 . S
C1460 H1452 0.929 . S
C1460 C1461 1.377 . S
C1460 C1462 1.384 . S
C1461 C1460 1.377 . S
C1461 C1467 1.390 . S
C1462 H1453 0.930 . S
C1462 C1460 1.384 . S
C1462 C1463 1.372 . S
C1463 C1462 1.372 . S
C1463 C1464 1.400 . S
C1463 C1468 1.490 . S
C1464 H1454 0.930 . S
C1464 C1463 1.400 . S
C1464 C1467 1.386 . S
H1465 C1481 0.930 . S
H1466 C1482 0.931 . S
C1467 H1455 0.929 . S
C1467 C1461 1.390 . S
C1467 C1464 1.386 . S
C1468 C1463 1.490 . S
C1468 C1470 1.395 . S
C1468 C1471 1.403 . S
H1469 C1475 0.930 . S
C1470 H1456 0.930 . S
C1470 C1468 1.395 . S
C1470 C1473 1.403 . S
C1471 C1468 1.403 . S
C1471 C1472 1.524 . S
C1471 C1475 1.400 . S
C1472 H1457 0.960 . S
C1472 H1458 0.960 . S
C1472 H1459 0.960 . S
C1472 C1471 1.524 . S
C1473 C1470 1.403 . S
C1473 C1474 1.392 . S
C1473 C1477 1.495 . S
C1474 C1473 1.392 . S
C1474 C1475 1.385 . S
C1474 C1476 1.478 . S
C1475 H1469 0.930 . S
C1475 C1471 1.400 . S
C1475 C1474 1.385 . S
C1476 C1474 1.478 . S
C1476 C1478 1.381 . S
C1476 C1482 1.383 . S
C1477 C1473 1.495 . S
C1477 H1483 0.959 . S
C1477 H1484 0.961 . S
C1477 H1485 0.960 . S
C1478 C1476 1.381 . S
C1478 C1479 1.394 . S
C1478 H1486 0.930 . S
C1479 C1478 1.394 . S
C1479 C1480 1.383 . S
C1479 H1487 0.929 . S
C1480 C1479 1.383 . S
C1480 C1481 1.377 . S
C1481 H1465 0.930 . S
C1481 C1480 1.377 . S
C1481 C1482 1.379 . S
C1482 H1466 0.931 . S
C1482 C1476 1.383 . S
C1482 C1481 1.379 . S
H1483 C1477 0.959 . S
H1484 C1477 0.961 . S
H1485 C1477 0.960 . S
H1486 C1478 0.930 . S
H1487 C1479 0.929 . S
H1488 C1496 0.929 . S
H1489 C1498 0.930 . S
H1490 C1500 0.930 . S
H1491 C1503 0.929 . S
H1492 C1506 0.930 . S
H1493 C1508 0.960 . S
H1494 C1508 0.960 . S
H1495 C1508 0.960 . S
C1496 H1488 0.929 . S
C1496 C1497 1.377 . S
C1496 C1498 1.384 . S
C1497 C1496 1.377 . S
C1497 C1503 1.390 . S
C1498 H1489 0.930 . S
C1498 C1496 1.384 . S
C1498 C1499 1.372 . S
C1499 C1498 1.372 . S
C1499 C1500 1.400 . S
C1499 C1504 1.490 . S
C1500 H1490 0.930 . S
C1500 C1499 1.400 . S
C1500 C1503 1.386 . S
H1501 C1517 0.930 . S
H1502 C1518 0.931 . S
C1503 H1491 0.929 . S
C1503 C1497 1.390 . S
C1503 C1500 1.386 . S
C1504 C1499 1.490 . S
C1504 C1506 1.395 . S
C1504 C1507 1.403 . S
H1505 C1511 0.930 . S
C1506 H1492 0.930 . S
C1506 C1504 1.395 . S
C1506 C1509 1.403 . S
C1507 C1504 1.403 . S
C1507 C1508 1.524 . S
C1507 C1511 1.400 . S
C1508 H1493 0.960 . S
C1508 H1494 0.960 . S
C1508 H1495 0.960 . S
C1508 C1507 1.524 . S
C1509 C1506 1.403 . S
C1509 C1510 1.392 . S
C1509 C1513 1.495 . S
C1510 C1509 1.392 . S
C1510 C1511 1.385 . S
C1510 C1512 1.478 . S
C1511 H1505 0.930 . S
C1511 C1507 1.400 . S
C1511 C1510 1.385 . S
C1512 C1510 1.478 . S
C1512 C1514 1.381 . S
C1512 C1518 1.383 . S
C1513 C1509 1.495 . S
C1513 H1519 0.959 . S
C1513 H1520 0.961 . S
C1513 H1521 0.960 . S
C1514 C1512 1.381 . S
C1514 C1515 1.394 . S
C1514 H1522 0.930 . S
C1515 C1514 1.394 . S
C1515 C1516 1.383 . S
C1515 H1523 0.929 . S
C1516 C1515 1.383 . S
C1516 C1517 1.377 . S
C1517 H1501 0.930 . S
C1517 C1516 1.377 . S
C1517 C1518 1.379 . S
C1518 H1502 0.931 . S
C1518 C1512 1.383 . S
C1518 C1517 1.379 . S
H1519 C1513 0.959 . S
H1520 C1513 0.961 . S
H1521 C1513 0.960 . S
H1522 C1514 0.930 . S
H1523 C1515 0.929 . S
H1524 C1532 0.929 . S
H1525 C1534 0.930 . S
H1526 C1536 0.930 . S
H1527 C1539 0.929 . S
H1528 C1542 0.930 . S
H1529 C1544 0.960 . S
H1530 C1544 0.960 . S
H1531 C1544 0.960 . S
C1532 H1524 0.929 . S
C1532 C1533 1.377 . S
C1532 C1534 1.384 . S
C1533 C1532 1.377 . S
C1533 C1539 1.390 . S
C1534 H1525 0.930 . S
C1534 C1532 1.384 . S
C1534 C1535 1.372 . S
C1535 C1534 1.372 . S
C1535 C1536 1.400 . S
C1535 C1540 1.490 . S
C1536 H1526 0.930 . S
C1536 C1535 1.400 . S
C1536 C1539 1.386 . S
H1537 C1553 0.930 . S
H1538 C1554 0.931 . S
C1539 H1527 0.929 . S
C1539 C1533 1.390 . S
C1539 C1536 1.386 . S
C1540 C1535 1.490 . S
C1540 C1542 1.395 . S
C1540 C1543 1.403 . S
H1541 C1547 0.930 . S
C1542 H1528 0.930 . S
C1542 C1540 1.395 . S
C1542 C1545 1.403 . S
C1543 C1540 1.403 . S
C1543 C1544 1.524 . S
C1543 C1547 1.400 . S
C1544 H1529 0.960 . S
C1544 H1530 0.960 . S
C1544 H1531 0.960 . S
C1544 C1543 1.524 . S
C1545 C1542 1.403 . S
C1545 C1546 1.392 . S
C1545 C1549 1.495 . S
C1546 C1545 1.392 . S
C1546 C1547 1.385 . S
C1546 C1548 1.478 . S
C1547 H1541 0.930 . S
C1547 C1543 1.400 . S
C1547 C1546 1.385 . S
C1548 C1546 1.478 . S
C1548 C1550 1.381 . S
C1548 C1554 1.383 . S
C1549 C1545 1.495 . S
C1549 H1555 0.959 . S
C1549 H1556 0.961 . S
C1549 H1557 0.960 . S
C1550 C1548 1.381 . S
C1550 C1551 1.394 . S
C1550 H1558 0.930 . S
C1551 C1550 1.394 . S
C1551 C1552 1.383 . S
C1551 H1559 0.929 . S
C1552 C1551 1.383 . S
C1552 C1553 1.377 . S
C1553 H1537 0.930 . S
C1553 C1552 1.377 . S
C1553 C1554 1.379 . S
C1554 H1538 0.931 . S
C1554 C1548 1.383 . S
C1554 C1553 1.379 . S
H1555 C1549 0.959 . S
H1556 C1549 0.961 . S
H1557 C1549 0.960 . S
H1558 C1550 0.930 . S
H1559 C1551 0.929 . S
H1560 C1568 0.929 . S
H1561 C1570 0.930 . S
H1562 C1572 0.930 . S
H1563 C1575 0.929 . S
H1564 C1578 0.930 . S
H1565 C1580 0.960 . S
H1566 C1580 0.960 . S
H1567 C1580 0.960 . S
C1568 H1560 0.929 . S
C1568 C1569 1.377 . S
C1568 C1570 1.384 . S
C1569 C1568 1.377 . S
C1569 C1575 1.390 . S
C1570 H1561 0.930 . S
C1570 C1568 1.384 . S
C1570 C1571 1.372 . S
C1571 C1570 1.372 . S
C1571 C1572 1.400 . S
C1571 C1576 1.490 . S
C1572 H1562 0.930 . S
C1572 C1571 1.400 . S
C1572 C1575 1.386 . S
H1573 C1589 0.930 . S
H1574 C1590 0.931 . S
C1575 H1563 0.929 . S
C1575 C1569 1.390 . S
C1575 C1572 1.386 . S
C1576 C1571 1.490 . S
C1576 C1578 1.395 . S
C1576 C1579 1.403 . S
H1577 C1583 0.930 . S
C1578 H1564 0.930 . S
C1578 C1576 1.395 . S
C1578 C1581 1.403 1_554 S
C1579 C1576 1.403 . S
C1579 C1580 1.524 . S
C1579 C1583 1.400 . S
C1580 H1565 0.960 . S
C1580 H1566 0.960 . S
C1580 H1567 0.960 . S
C1580 C1579 1.524 . S
C1581 C1578 1.403 1_556 S
C1581 C1582 1.392 . S
C1581 C1585 1.495 . S
C1582 C1581 1.392 . S
C1582 C1583 1.385 1_556 S
C1582 C1584 1.478 . S
C1583 H1577 0.930 . S
C1583 C1579 1.400 . S
C1583 C1582 1.385 1_554 S
C1584 C1582 1.478 . S
C1584 C1586 1.381 . S
C1584 C1590 1.383 . S
C1585 C1581 1.495 . S
C1585 H1591 0.959 . S
C1585 H1592 0.961 . S
C1585 H1593 0.960 . S
C1586 C1584 1.381 . S
C1586 C1587 1.394 . S
C1586 H1594 0.930 . S
C1587 C1586 1.394 . S
C1587 C1588 1.383 . S
C1587 H1595 0.929 . S
C1588 C1587 1.383 . S
C1588 C1589 1.377 . S
C1589 H1573 0.930 . S
C1589 C1588 1.377 . S
C1589 C1590 1.379 . S
C1590 H1574 0.931 . S
C1590 C1584 1.383 . S
C1590 C1589 1.379 . S
H1591 C1585 0.959 . S
H1592 C1585 0.961 . S
H1593 C1585 0.960 . S
H1594 C1586 0.930 . S
H1595 C1587 0.929 . S
H1596 C1604 0.929 . S
H1597 C1606 0.930 . S
H1598 C1608 0.930 . S
H1599 C1611 0.929 . S
H1600 C1614 0.930 . S
H1601 C1616 0.960 . S
H1602 C1616 0.960 . S
H1603 C1616 0.960 . S
C1604 H1596 0.929 . S
C1604 C1605 1.377 . S
C1604 C1606 1.384 . S
C1605 C1604 1.377 . S
C1605 C1611 1.390 . S
C1606 H1597 0.930 . S
C1606 C1604 1.384 . S
C1606 C1607 1.372 . S
C1607 C1606 1.372 . S
C1607 C1608 1.400 . S
C1607 C1612 1.490 . S
C1608 H1598 0.930 . S
C1608 C1607 1.400 . S
C1608 C1611 1.386 . S
H1609 C1625 0.930 . S
H1610 C1626 0.931 . S
C1611 H1599 0.929 . S
C1611 C1605 1.390 . S
C1611 C1608 1.386 . S
C1612 C1607 1.490 . S
C1612 C1614 1.395 . S
C1612 C1615 1.403 . S
H1613 C1619 0.930 . S
C1614 H1600 0.930 . S
C1614 C1612 1.395 . S
C1614 C1617 1.403 . S
C1615 C1612 1.403 . S
C1615 C1616 1.524 . S
C1615 C1619 1.400 . S
C1616 H1601 0.960 . S
C1616 H1602 0.960 . S
C1616 H1603 0.960 . S
C1616 C1615 1.524 . S
C1617 C1614 1.403 . S
C1617 C1618 1.392 . S
C1617 C1621 1.495 . S
C1618 C1617 1.392 . S
C1618 C1619 1.385 . S
C1618 C1620 1.478 . S
C1619 H1613 0.930 . S
C1619 C1615 1.400 . S
C1619 C1618 1.385 . S
C1620 C1618 1.478 . S
C1620 C1622 1.381 . S
C1620 C1626 1.383 . S
C1621 C1617 1.495 . S
C1621 H1627 0.959 . S
C1621 H1628 0.961 . S
C1621 H1629 0.960 . S
C1622 C1620 1.381 . S
C1622 C1623 1.394 . S
C1622 H1630 0.930 . S
C1623 C1622 1.394 . S
C1623 C1624 1.383 . S
C1623 H1631 0.929 . S
C1624 C1623 1.383 . S
C1624 C1625 1.377 . S
C1625 H1609 0.930 . S
C1625 C1624 1.377 . S
C1625 C1626 1.379 . S
C1626 H1610 0.931 . S
C1626 C1620 1.383 . S
C1626 C1625 1.379 . S
H1627 C1621 0.959 . S
H1628 C1621 0.961 . S
H1629 C1621 0.960 . S
H1630 C1622 0.930 . S
H1631 C1623 0.929 . S
C796 C757 1.631 . S
C777 C1 1.243 . S
C813 C169 1.481 . S
C832 C687 1.795 . S
C849 C283 1.474 . S
C868 C706 1.796 . S
C885 C397 1.319 . S
C904 C715 1.617 . S
C940 C729 1.448 . S
C921 C457 1.123 . S
C957 C571 1.147 . S
C976 C748 1.554 . S
C993 C115 1.231 . S
C1012 C701 1.599 . S
C1029 C229 1.121 . S
C1048 C720 1.492 . S
C1065 C343 1.094 . S
C1084 C734 1.482 . S
C1120 C743 1.559 . S
C1101 C511 1.257 . S
C1156 C762 1.769 . S
C1137 C625 1.443 . S
C1192 C692 1.773 . S
C1173 C55 1.451 . S
C1209 C29 1.160 . S
C1228 C707 1.424 . S
C1245 C125 0.933 . S
C1264 C719 1.513 . S
C1300 C733 1.466 . S
C1281 C239 0.930 . S
C1317 C353 0.923 . S
C1336 C749 1.454 . S
C1372 C761 1.309 . S
C1353 C485 1.062 . S
C1408 C691 1.424 . S
C1389 C599 1.136 . S
C1444 C763 1.415 . S
C1425 C143 1.169 . S
C1461 C257 1.145 . S
C1480 C693 1.436 . S
C1516 C705 1.346 . S
C1497 C371 1.072 . S
C1533 C467 0.896 . S
C1552 C721 1.456 . S
C1569 C581 0.955 . S
C1588 C735 1.488 . S
C1605 C11 0.951 . S
C1624 C747 1.531 . S
