# Generated by pormake.
# Topology pth, (4,4)-cn, num edge types: 1
# Building blocks:
#     Node 0, Type 0, BuildingBlock: UXUYUI_clean_sbu_0, # of connection points: 4
#     Node 1, Type 0, BuildingBlock: UXUYUI_clean_sbu_0, # of connection points: 4
#     Node 2, Type 0, BuildingBlock: UXUYUI_clean_sbu_0, # of connection points: 4
#     Node 3, Type 1, BuildingBlock: NAHDIM_clean_linker_0, # of connection points: 4
#     Node 4, Type 1, BuildingBlock: NAHDIM_clean_linker_0, # of connection points: 4
#     Node 5, Type 1, BuildingBlock: NAHDIM_clean_linker_0, # of connection points: 4
#     Edge 6, Type (0, 1), BuildingBlock: OJICUG_clean_linker_0, # of connection points: 2
#     Edge 7, Type (0, 1), BuildingBlock: OJICUG_clean_linker_0, # of connection points: 2
#     Edge 8, Type (0, 1), BuildingBlock: OJICUG_clean_linker_0, # of connection points: 2
#     Edge 9, Type (0, 1), BuildingBlock: OJICUG_clean_linker_0, # of connection points: 2
#     Edge 10, Type (0, 1), BuildingBlock: OJICUG_clean_linker_0, # of connection points: 2
#     Edge 11, Type (0, 1), BuildingBlock: OJICUG_clean_linker_0, # of connection points: 2
#     Edge 12, Type (0, 1), BuildingBlock: OJICUG_clean_linker_0, # of connection points: 2
#     Edge 13, Type (0, 1), BuildingBlock: OJICUG_clean_linker_0, # of connection points: 2
#     Edge 14, Type (0, 1), BuildingBlock: OJICUG_clean_linker_0, # of connection points: 2
#     Edge 15, Type (0, 1), BuildingBlock: OJICUG_clean_linker_0, # of connection points: 2
#     Edge 16, Type (0, 1), BuildingBlock: OJICUG_clean_linker_0, # of connection points: 2
#     Edge 17, Type (0, 1), BuildingBlock: OJICUG_clean_linker_0, # of connection points: 2
# Relax obj value: 0.093
# Max RMSD: 0.220
# Mean RMSD: 0.135
data_MOF--net-pth--node1-UXUYUI_clean_sbu_0--node2-NAHDIM_clean_linker_0--edge1-OJICUG_clean_linker_0
_symmetry_space_group_name_H-M    P1
_symmetry_Int_Tables_number       1
_symmetry_cell_setting            triclinic
loop_
_symmetry_equiv_pos_as_xyz
'x, y, z'
_cell_length_a     30.789726
_cell_length_b     30.784626
_cell_length_c     78.419216
_cell_angle_alpha  89.664203
_cell_angle_beta   90.344056
_cell_angle_gamma 119.98451
loop_
_atom_site_label
_atom_site_type_symbol
_atom_site_fract_x
_atom_site_fract_y
_atom_site_fract_z
_atom_type_partial_charge
Li0 Li 0.05697 0.07028 0.03886 0.0
Li1 Li 0.00066 0.06822 0.06073 0.0
Li2 Li 0.02239 0.9999 0.05841 0.0
Li3 Li 0.96605 0.00483 0.03777 0.0
C4 C 0.11589 0.10658 0.06618 0.0
N5 N 0.21589 0.17792 0.07012 0.0
C6 C 0.12965 0.15569 0.07067 0.0
C7 C 0.15294 0.09358 0.06395 0.0
C8 C 0.18041 0.19127 0.07253 0.0
C9 C 0.2033 0.13022 0.06593 0.0
C10 C 0.96939 0.10023 0.03093 0.0
C11 C 0.88905 0.09459 0.02658 0.0
N12 N 0.91257 0.14225 0.02035 0.0
C13 C 0.99267 0.14888 0.02421 0.0
C14 C 0.91709 0.07263 0.03188 0.0
C15 C 0.96335 0.16957 0.01905 0.0
C16 C 0.13266 0.10494 0.01284 0.0
N17 N 0.11117 0.11774 0.02547 0.0
C18 C 0.15494 0.20344 0.01666 0.0
C19 C 0.1225 0.16593 0.02777 0.0
C20 C 0.17634 0.19142 0.00299 0.0
C21 C 0.16595 0.14153 0.00147 0.0
H22 H 0.1223 0.06612 0.01111 0.0
H23 H 0.10404 0.17476 0.03773 0.0
C24 C 0.9859 0.09568 0.09307 0.0
N25 N 0.99368 0.11075 0.0765 0.0
C26 C 0.9923 0.12957 0.10592 0.0
C27 C 0.01229 0.19315 0.08434 0.0
C28 C 0.0055 0.15802 0.0719 0.0
C29 C 0.00738 0.17955 0.10165 0.0
H30 H 0.9778 0.05819 0.09636 0.0
H31 H 0.01315 0.16957 0.05873 0.0
C32 C 0.03832 0.9623 0.02998 0.0
N33 N 0.06269 0.88864 0.02407 0.0
C34 C 0.00143 0.91458 0.02469 0.0
C35 C 0.08774 0.97276 0.03201 0.0
C36 C 0.01445 0.87779 0.02184 0.0
C37 C 0.09928 0.93497 0.02903 0.0
C38 C 0.90779 0.97247 0.06869 0.0
C39 C 0.88307 0.92254 0.07422 0.0
C40 C 0.88365 0.00056 0.06997 0.0
C41 C 0.83415 0.90117 0.08041 0.0
C42 C 0.83474 0.97787 0.07623 0.0
N43 N 0.81116 0.92902 0.08126 0.0
C44 C 0.06376 0.96341 0.08383 0.0
C45 C 0.99325 0.90298 0.06832 0.0
C46 C 0.06104 0.92617 0.09482 0.0
N47 N 0.02948 0.9512 0.07111 0.0
C48 C 0.98882 0.86478 0.07904 0.0
C49 C 0.02215 0.87619 0.09282 0.0
H50 H 0.09167 0.00223 0.08596 0.0
H51 H 0.96585 0.89458 0.05833 0.0
C52 C 0.91928 0.98127 0.00609 0.0
N53 N 0.9136 0.96443 0.02243 0.0
C54 C 0.88959 0.94918 0.99311 0.0
C55 C 0.84716 0.88373 0.01416 0.0
C56 C 0.8777 0.91712 0.02674 0.0
C57 C 0.85412 0.89915 0.997 0.0
H58 H 0.94908 0.01868 0.003 0.0
H59 H 0.87507 0.90412 0.0397 0.0
O60 O 0.06639 0.07133 0.06412 0.0
O61 O 0.99763 0.07916 0.03579 0.0
O62 O 0.02619 0.9987 0.033 0.0
O63 O 0.95612 0.99422 0.06286 0.0
H64 H 0.10152 0.16638 0.07257 0.0
H65 H 0.14295 0.05558 0.0608 0.0
H66 H 0.1916 0.2295 0.07588 0.0
H67 H 0.23238 0.1207 0.06417 0.0
H68 H 0.84856 0.07362 0.02731 0.0
H69 H 0.03297 0.17061 0.02302 0.0
H70 H 0.89815 0.0344 0.03642 0.0
H71 H 0.98097 0.20731 0.01397 0.0
H72 H 0.16064 0.24085 0.01824 0.0
H73 H 0.18199 0.1305 0.9913 0.0
H74 H 0.98885 0.1176 0.1191 0.0
H75 H 0.0236 0.23118 0.08048 0.0
H76 H 0.96308 0.90588 0.02292 0.0
H77 H 0.1169 0.00969 0.03578 0.0
H78 H 0.9862 0.8406 0.01786 0.0
H79 H 0.13735 0.94251 0.03063 0.0
H80 H 0.90124 0.90033 0.07367 0.0
H81 H 0.90251 0.03963 0.06633 0.0
H82 H 0.81451 0.86246 0.08458 0.0
H83 H 0.81562 0.9992 0.07719 0.0
H84 H 0.08797 0.93672 0.10513 0.0
H85 H 0.95757 0.82728 0.07711 0.0
H86 H 0.89686 0.96248 0.98006 0.0
H87 H 0.82009 0.84556 0.01772 0.0
Li88 Li 0.0111 0.99119 0.36774 0.0
Li89 Li 0.07025 0.04729 0.38935 0.0
Li90 Li 0.98102 0.02933 0.38853 0.0
Li91 Li 0.04033 0.08409 0.3673 0.0
C92 C 0.98994 0.9352 0.39835 0.0
N93 N 0.95587 0.83782 0.40914 0.0
C94 C 0.02323 0.92182 0.4056 0.0
C95 C 0.93919 0.89918 0.39684 0.0
C96 C 0.00533 0.87237 0.4109 0.0
C97 C 0.92273 0.85012 0.4023 0.0
C98 C 0.12762 0.06427 0.3589 0.0
C99 C 0.21252 0.12934 0.35311 0.0
N100 N 0.22385 0.09393 0.34812 0.0
C101 C 0.13995 0.0286 0.35349 0.0
C102 C 0.16404 0.11512 0.35851 0.0
C103 C 0.18886 0.0443 0.34818 0.0
C104 C 0.96788 0.92017 0.34045 0.0
N105 N 0.9966 0.93325 0.35481 0.0
C106 C 0.00872 0.86288 0.35186 0.0
C107 C 0.01749 0.906 0.36043 0.0
C108 C 0.97891 0.84792 0.33704 0.0
C109 C 0.95846 0.87736 0.33132 0.0
H110 H 0.95249 0.94307 0.33605 0.0
H111 H 0.04148 0.91806 0.37155 0.0
C112 C 0.11675 0.06642 0.42102 0.0
N113 N 0.12114 0.05408 0.40477 0.0
C114 C 0.14586 0.06284 0.43405 0.0
C115 C 0.18496 0.03577 0.41326 0.0
C116 C 0.15501 0.03984 0.40063 0.0
C117 C 0.17954 0.04595 0.43032 0.0
H118 H 0.08864 0.07647 0.424 0.0
H119 H 0.15686 0.02878 0.38776 0.0
C120 C 0.92158 0.00778 0.36101 0.0
N121 N 0.82 0.9718 0.35701 0.0
C122 C 0.90394 0.04083 0.35751 0.0
C123 C 0.88764 0.95637 0.36219 0.0
C124 C 0.85242 0.02194 0.35562 0.0
C125 C 0.83642 0.93892 0.3602 0.0
C126 C 0.074 0.14295 0.39683 0.0
C127 C 0.05301 0.17083 0.40305 0.0
C128 C 0.12605 0.16543 0.39547 0.0
C129 C 0.0844 0.22112 0.40735 0.0
C130 C 0.15621 0.21579 0.39993 0.0
N131 N 0.13493 0.2424 0.4057 0.0
C132 C 0.90754 0.9913 0.41528 0.0
C133 C 0.91806 0.06248 0.39998 0.0
C134 C 0.8753 0.99558 0.42677 0.0
N135 N 0.92855 0.02496 0.40234 0.0
C136 C 0.88661 0.06849 0.41121 0.0
C137 C 0.86546 0.03543 0.42508 0.0
H138 H 0.91742 0.96252 0.41715 0.0
H139 H 0.9363 0.08942 0.38984 0.0
C140 C 0.08461 0.15847 0.34035 0.0
N141 N 0.05437 0.14185 0.35427 0.0
C142 C 0.093 0.20222 0.3319 0.0
C143 C 0.03805 0.20975 0.35206 0.0
C144 C 0.03067 0.16607 0.36 0.0
C145 C 0.06968 0.22861 0.33782 0.0
H146 H 0.10219 0.13789 0.33581 0.0
H147 H 0.00605 0.15143 0.37087 0.0
O148 O 0.00693 0.9835 0.39306 0.0
O149 O 0.07977 0.04948 0.36403 0.0
O150 O 0.97185 0.0256 0.3631 0.0
O151 O 0.04373 0.09368 0.39244 0.0
H152 H 0.06255 0.94918 0.407 0.0
H153 H 0.91268 0.90904 0.39166 0.0
H154 H 0.03077 0.86146 0.41642 0.0
H155 H 0.88356 0.82186 0.40116 0.0
H156 H 0.24107 0.16856 0.3528 0.0
H157 H 0.11219 0.98917 0.35348 0.0
H158 H 0.15493 0.14343 0.36214 0.0
H159 H 0.19898 0.01704 0.34409 0.0
H160 H 0.02479 0.84125 0.35696 0.0
H161 H 0.9359 0.86782 0.31983 0.0
H162 H 0.13975 0.07027 0.44703 0.0
H163 H 0.21067 0.02294 0.40981 0.0
H164 H 0.92969 0.08067 0.35634 0.0
H165 H 0.9007 0.93018 0.3645 0.0
H166 H 0.83822 0.04714 0.35303 0.0
H167 H 0.80974 0.89922 0.36115 0.0
H168 H 0.01288 0.15397 0.40446 0.0
H169 H 0.14309 0.14417 0.39118 0.0
H170 H 0.06859 0.24321 0.41203 0.0
H171 H 0.19655 0.23366 0.39886 0.0
H172 H 0.85952 0.96885 0.43715 0.0
H173 H 0.88131 0.10045 0.40951 0.0
H174 H 0.11716 0.21502 0.32084 0.0
H175 H 0.01984 0.22901 0.35729 0.0
Li176 Li 0.04921 0.03374 0.7006 0.0
Li177 Li 0.04491 0.08379 0.72429 0.0
Li178 Li 0.97855 0.9947 0.72119 0.0
Li179 Li 0.98687 0.06135 0.70109 0.0
C180 C 0.08222 0.00896 0.73254 0.0
N181 N 0.1475 0.98198 0.74699 0.0
C182 C 0.13014 0.04583 0.73773 0.0
C183 C 0.06728 0.95837 0.73495 0.0
C184 C 0.16266 0.03143 0.74493 0.0
C185 C 0.10089 0.94549 0.7422 0.0
C186 C 0.06883 0.13548 0.68702 0.0
C187 C 0.06981 0.20909 0.67581 0.0
N188 N 0.08235 0.19966 0.66022 0.0
C189 C 0.08196 0.12664 0.67091 0.0
C190 C 0.06299 0.17718 0.68954 0.0
C191 C 0.08858 0.15951 0.65752 0.0
C192 C 0.08535 0.99535 0.67373 0.0
N193 N 0.09666 0.02473 0.68782 0.0
C194 C 0.18282 0.04724 0.68601 0.0
C195 C 0.14445 0.05139 0.69373 0.0
C196 C 0.17237 0.01623 0.67171 0.0
C197 C 0.12283 0.99042 0.66546 0.0
H198 H 0.04745 0.97595 0.66883 0.0
H199 H 0.15276 0.076 0.7045 0.0
C200 C 0.08449 0.12024 0.75709 0.0
N201 N 0.0871 0.13288 0.74035 0.0
C202 C 0.12105 0.15288 0.76853 0.0
C203 C 0.16143 0.21136 0.74536 0.0
C204 C 0.12388 0.17778 0.73439 0.0
C205 C 0.16104 0.1984 0.76257 0.0
H206 H 0.0554 0.08381 0.7614 0.0
H207 H 0.12564 0.18635 0.72094 0.0
C208 C 0.95822 0.94713 0.68855 0.0
N209 N 0.92034 0.85233 0.67498 0.0
C210 C 0.91998 0.92966 0.67634 0.0
C211 C 0.9772 0.91647 0.69387 0.0
C212 C 0.9013 0.88158 0.66963 0.0
C213 C 0.9576 0.86866 0.68685 0.0
C214 C 0.96788 0.08001 0.73932 0.0
C215 C 0.95145 0.05648 0.75515 0.0
C216 C 0.98206 0.13058 0.73749 0.0
C217 C 0.94998 0.08417 0.76897 0.0
C218 C 0.98008 0.15698 0.7516 0.0
N219 N 0.96425 0.13343 0.76693 0.0
C220 C 0.94374 0.92728 0.74913 0.0
C221 C 0.88882 0.90261 0.72534 0.0
C222 C 0.9094 0.88486 0.75827 0.0
N223 N 0.93286 0.93526 0.733 0.0
C224 C 0.85374 0.85949 0.73389 0.0
C225 C 0.8635 0.85026 0.75068 0.0
H226 H 0.97877 0.95437 0.75501 0.0
H227 H 0.88067 0.91025 0.71261 0.0
C228 C 0.95002 0.08498 0.6706 0.0
N229 N 0.94677 0.08032 0.68788 0.0
C230 C 0.91841 0.09747 0.66155 0.0
C231 C 0.8799 0.09845 0.6882 0.0
C232 C 0.91239 0.08648 0.69669 0.0
C233 C 0.88253 0.10401 0.6704 0.0
H234 H 0.9767 0.07849 0.66382 0.0
H235 H 0.90969 0.0815 0.71036 0.0
O236 O 0.04948 0.02234 0.72575 0.0
O237 O 0.06206 0.10369 0.70028 0.0
O238 O 0.97626 0.9938 0.69539 0.0
O239 O 0.9701 0.05373 0.72568 0.0
H240 H 0.14233 0.08519 0.7361 0.0
H241 H 0.03 0.92925 0.73141 0.0
H242 H 0.19993 0.05959 0.74891 0.0
H243 H 0.08982 0.90647 0.74409 0.0
H244 H 0.06517 0.24136 0.67755 0.0
H245 H 0.08668 0.0946 0.66872 0.0
H246 H 0.05312 0.18472 0.70194 0.0
H247 H 0.09857 0.15303 0.64496 0.0
H248 H 0.22014 0.06756 0.69145 0.0
H249 H 0.11315 0.96697 0.65425 0.0
H250 H 0.1187 0.14169 0.78174 0.0
H251 H 0.19186 0.24548 0.74007 0.0
H252 H 0.9048 0.95297 0.67214 0.0
H253 H 0.0071 0.92973 0.70315 0.0
H254 H 0.87164 0.8675 0.66019 0.0
H255 H 0.97207 0.84458 0.69081 0.0
H256 H 0.94014 0.01733 0.75677 0.0
H257 H 0.99467 0.14926 0.7253 0.0
H258 H 0.93754 0.06651 0.78131 0.0
H259 H 0.99114 0.19619 0.75038 0.0
H260 H 0.91835 0.87984 0.77124 0.0
H261 H 0.81937 0.83362 0.72737 0.0
H262 H 0.92127 0.10093 0.6478 0.0
H263 H 0.85316 0.10365 0.69555 0.0
C264 C 0.89112 0.61545 0.31787 0.0
C265 C 0.93487 0.6568 0.3078 0.0
C266 C 0.94465 0.63538 0.27911 0.0
C267 C 0.99684 0.65993 0.27728 0.0
C268 C 0.01925 0.6405 0.26653 0.0
C269 C 0.98868 0.59512 0.2577 0.0
C270 C 0.93578 0.57129 0.25912 0.0
C271 C 0.91442 0.59243 0.26959 0.0
C272 C 0.07562 0.66767 0.26503 0.0
C273 C 0.90184 0.52239 0.25019 0.0
C274 C 0.14756 0.46226 0.32742 0.0
C275 C 0.11055 0.42483 0.31448 0.0
C276 C 0.11094 0.45462 0.28577 0.0
C277 C 0.05935 0.42943 0.28223 0.0
C278 C 0.0394 0.44863 0.27018 0.0
C279 C 0.07176 0.49409 0.26163 0.0
C280 C 0.12408 0.51844 0.26473 0.0
C281 C 0.14308 0.4978 0.27659 0.0
C282 C 0.98365 0.42093 0.26682 0.0
C283 C 0.15972 0.56712 0.25594 0.0
C284 C 0.0915 0.4034 0.15738 0.0
C285 C 0.04098 0.3872 0.16088 0.0
C286 C 0.02661 0.4209 0.16699 0.0
C287 C 0.06346 0.47176 0.16949 0.0
C288 C 0.11379 0.48877 0.16489 0.0
C289 C 0.12709 0.45427 0.15878 0.0
C290 C 0.97232 0.40188 0.1713 0.0
C291 C 0.15378 0.54292 0.16712 0.0
C292 C 0.90428 0.71398 0.14935 0.0
C293 C 0.95575 0.72131 0.14479 0.0
C294 C 0.96825 0.64944 0.14724 0.0
C295 C 0.93745 0.59767 0.14899 0.0
C296 C 0.95372 0.5691 0.15814 0.0
C297 C 0.00262 0.59302 0.16521 0.0
C298 C 0.03513 0.645 0.16248 0.0
C299 C 0.01741 0.6728 0.15361 0.0
C300 C 0.91823 0.5137 0.16063 0.0
C301 C 0.08818 0.67134 0.16923 0.0
C302 C 0.01199 0.57011 0.24838 0.0
C303 C 0.03083 0.54493 0.25808 0.0
C304 C 0.05067 0.51792 0.25035 0.0
C305 C 0.05067 0.51466 0.23239 0.0
C306 C 0.06763 0.48543 0.22422 0.0
C307 C 0.06734 0.48237 0.20653 0.0
C308 C 0.05065 0.50894 0.19632 0.0
C309 C 0.05 0.50587 0.17832 0.0
C310 C 0.03475 0.53398 0.16852 0.0
C311 C 0.01873 0.56433 0.17627 0.0
C312 C 0.01728 0.5664 0.19428 0.0
C313 C 0.99945 0.59493 0.2025 0.0
C314 C 0.99797 0.59651 0.22021 0.0
C315 C 0.01418 0.56957 0.23038 0.0
C316 C 0.03297 0.54115 0.22237 0.0
C317 C 0.0338 0.53898 0.20431 0.0
C318 C 0.12663 0.31234 0.16522 0.0
C319 C 0.0859 0.32122 0.15757 0.0
O320 O 0.92299 0.65136 0.29058 0.0
O321 O 0.9496 0.67583 0.13928 0.0
O322 O 0.10735 0.37118 0.15277 0.0
O323 O 0.13043 0.43865 0.29823 0.0
H324 H 0.96758 0.65141 0.31033 0.0
H325 H 0.88549 0.57827 0.31407 0.0
H326 H 0.85575 0.61572 0.3153 0.0
H327 H 0.89932 0.62031 0.33176 0.0
H328 H 0.01994 0.69383 0.28449 0.0
H329 H 0.87409 0.57407 0.27108 0.0
H330 H 0.09047 0.6467 0.27223 0.0
H331 H 0.09325 0.70635 0.27021 0.0
H332 H 0.08684 0.66957 0.25149 0.0
H333 H 0.862 0.50624 0.25399 0.0
H334 H 0.91388 0.4946 0.25307 0.0
H335 H 0.90444 0.52853 0.23619 0.0
H336 H 0.07569 0.42714 0.31568 0.0
H337 H 0.13278 0.45109 0.34058 0.0
H338 H 0.15292 0.50014 0.32481 0.0
H339 H 0.18466 0.46457 0.3266 0.0
H340 H 0.03473 0.39501 0.28899 0.0
H341 H 0.18292 0.51653 0.27932 0.0
H342 H 0.97618 0.41687 0.25288 0.0
H343 H 0.96707 0.44286 0.272 0.0
H344 H 0.96457 0.38312 0.27282 0.0
H345 H 0.19898 0.5827 0.26046 0.0
H346 H 0.14789 0.59529 0.2582 0.0
H347 H 0.15863 0.56105 0.24198 0.0
H348 H 0.05764 0.31186 0.16781 0.0
H349 H 0.01278 0.34827 0.159 0.0
H350 H 0.16581 0.46654 0.15569 0.0
H351 H 0.96864 0.40523 0.18524 0.0
H352 H 0.94772 0.36209 0.16757 0.0
H353 H 0.95899 0.42519 0.16477 0.0
H354 H 0.19059 0.55081 0.162 0.0
H355 H 0.15826 0.55255 0.18089 0.0
H356 H 0.14225 0.56767 0.16058 0.0
H357 H 0.97918 0.73416 0.15658 0.0
H358 H 0.9079 0.74943 0.15426 0.0
H359 H 0.88679 0.68487 0.15945 0.0
H360 H 0.8792 0.7017 0.138 0.0
H361 H 0.89985 0.58 0.14371 0.0
H362 H 0.04187 0.71269 0.15164 0.0
H363 H 0.91452 0.50421 0.17443 0.0
H364 H 0.93364 0.49217 0.15431 0.0
H365 H 0.88037 0.5015 0.15528 0.0
H366 H 0.11071 0.70988 0.16397 0.0
H367 H 0.10696 0.6496 0.16608 0.0
H368 H 0.08756 0.67388 0.18333 0.0
H369 H 0.02981 0.54618 0.2719 0.0
H370 H 0.08096 0.46426 0.23142 0.0
H371 H 0.08064 0.45907 0.20097 0.0
H372 H 0.03481 0.53176 0.15472 0.0
H373 H 0.98614 0.6162 0.19536 0.0
H374 H 0.98396 0.61912 0.22585 0.0
H375 H 0.1104 0.27254 0.16923 0.0
H376 H 0.14326 0.33645 0.17661 0.0
H377 H 0.15696 0.32162 0.15583 0.0
C378 C 0.33956 0.95324 0.65957 0.0
C379 C 0.33534 0.98944 0.6471 0.0
C380 C 0.36514 0.98904 0.61862 0.0
C381 C 0.39264 0.04049 0.61494 0.0
C382 C 0.43216 0.05936 0.60317 0.0
C383 C 0.44454 0.02601 0.59507 0.0
C384 C 0.41566 0.97383 0.59839 0.0
C385 C 0.37564 0.95596 0.60993 0.0
C386 C 0.46119 0.11498 0.59961 0.0
C387 C 0.42798 0.93709 0.59017 0.0
C388 C 0.76519 0.21749 0.64986 0.0
C389 C 0.75035 0.16801 0.64088 0.0
C390 C 0.7148 0.15273 0.61255 0.0
C391 C 0.68501 0.1004 0.61228 0.0
C392 C 0.64226 0.07688 0.60183 0.0
C393 C 0.62857 0.1066 0.59179 0.0
C394 C 0.6594 0.15953 0.59181 0.0
C395 C 0.70287 0.18183 0.60194 0.0
C396 C 0.61117 0.02039 0.60184 0.0
C397 C 0.64555 0.19271 0.58167 0.0
C398 C 0.69637 0.09328 0.48115 0.0
C399 C 0.66883 0.04665 0.48928 0.0
C400 C 0.6255 0.035 0.49857 0.0
C401 C 0.60983 0.07098 0.49983 0.0
C402 C 0.63671 0.11739 0.49116 0.0
C403 C 0.67938 0.12764 0.48171 0.0
C404 C 0.59667 0.9844 0.50713 0.0
C405 C 0.62087 0.15645 0.49212 0.0
C406 C 0.20662 0.94598 0.49743 0.0
C407 C 0.25431 0.98596 0.48866 0.0
C408 C 0.33215 0.98295 0.48968 0.0
C409 C 0.34821 0.94846 0.49272 0.0
C410 C 0.39619 0.96398 0.49935 0.0
C411 C 0.42892 0.01542 0.50272 0.0
C412 C 0.41411 0.05093 0.49855 0.0
C413 C 0.36583 0.03432 0.49201 0.0
C414 C 0.41121 0.92531 0.50338 0.0
C415 C 0.44878 0.10623 0.5015 0.0
C416 C 0.48942 0.0458 0.58396 0.0
C417 C 0.53633 0.0664 0.59187 0.0
C418 C 0.58011 0.08272 0.58238 0.0
C419 C 0.57706 0.07712 0.56445 0.0
C420 C 0.61984 0.09019 0.55457 0.0
C421 C 0.6164 0.08486 0.53692 0.0
C422 C 0.57004 0.06631 0.52847 0.0
C423 C 0.56603 0.06043 0.51054 0.0
C424 C 0.51969 0.04363 0.5025 0.0
C425 C 0.47678 0.03165 0.51195 0.0
C426 C 0.47964 0.03546 0.52993 0.0
C427 C 0.43677 0.022 0.53986 0.0
C428 C 0.43986 0.02538 0.55754 0.0
C429 C 0.48599 0.04284 0.56598 0.0
C430 C 0.52988 0.05778 0.55622 0.0
C431 C 0.52653 0.0532 0.53819 0.0
C432 C 0.82138 0.14936 0.48358 0.0
C433 C 0.77763 0.09869 0.47799 0.0
O434 O 0.32889 0.97058 0.6307 0.0
O435 O 0.28397 0.96531 0.48464 0.0
O436 O 0.73878 0.10569 0.47234 0.0
O437 O 0.75418 0.17589 0.6234 0.0
H438 H 0.37124 0.02571 0.64823 0.0
H439 H 0.37317 0.95035 0.65644 0.0
H440 H 0.30606 0.91515 0.65876 0.0
H441 H 0.34361 0.96719 0.67285 0.0
H442 H 0.38329 0.06584 0.62133 0.0
H443 H 0.35369 0.91623 0.61277 0.0
H444 H 0.49923 0.13118 0.6053 0.0
H445 H 0.44259 0.13478 0.60502 0.0
H446 H 0.46573 0.12202 0.58565 0.0
H447 H 0.405 0.89852 0.59537 0.0
H448 H 0.46825 0.94933 0.59211 0.0
H449 H 0.42116 0.93596 0.57623 0.0
H450 H 0.71066 0.1414 0.64451 0.0
H451 H 0.80424 0.24642 0.6466 0.0
H452 H 0.73963 0.23138 0.64582 0.0
H453 H 0.76217 0.21195 0.66392 0.0
H454 H 0.69511 0.07811 0.62036 0.0
H455 H 0.72644 0.22228 0.60227 0.0
H456 H 0.60057 0.00617 0.5886 0.0
H457 H 0.57607 0.00852 0.60906 0.0
H458 H 0.63136 0.00276 0.60785 0.0
H459 H 0.6701 0.23306 0.58473 0.0
H460 H 0.60601 0.18219 0.58418 0.0
H461 H 0.6489 0.18754 0.56785 0.0
H462 H 0.76608 0.07324 0.48927 0.0
H463 H 0.68085 0.01918 0.48822 0.0
H464 H 0.70054 0.16317 0.47511 0.0
H465 H 0.60021 0.98924 0.52118 0.0
H466 H 0.61049 0.9587 0.50339 0.0
H467 H 0.5562 0.96665 0.50387 0.0
H468 H 0.64753 0.1918 0.48548 0.0
H469 H 0.61793 0.16502 0.50566 0.0
H470 H 0.58323 0.14155 0.48622 0.0
H471 H 0.27353 0.01703 0.49801 0.0
H472 H 0.18213 0.96159 0.50079 0.0
H473 H 0.21662 0.9333 0.50936 0.0
H474 H 0.18545 0.91294 0.48901 0.0
H475 H 0.32225 0.90899 0.49053 0.0
H476 H 0.3544 0.06145 0.48885 0.0
H477 H 0.41739 0.92477 0.51733 0.0
H478 H 0.44712 0.93546 0.49697 0.0
H479 H 0.38232 0.88705 0.4993 0.0
H480 H 0.43326 0.12937 0.49633 0.0
H481 H 0.48567 0.11843 0.49545 0.0
H482 H 0.45538 0.11338 0.51539 0.0
H483 H 0.53879 0.06968 0.60566 0.0
H484 H 0.65643 0.1045 0.56039 0.0
H485 H 0.65062 0.09565 0.52997 0.0
H486 H 0.51698 0.03979 0.48873 0.0
H487 H 0.40021 0.0083 0.53409 0.0
H488 H 0.40564 0.01434 0.56453 0.0
H489 H 0.83508 0.17617 0.47269 0.0
H490 H 0.8528 0.14494 0.48858 0.0
H491 H 0.80897 0.16528 0.49388 0.0
C492 C 0.71878 0.62326 0.77656 0.0
C493 C 0.71449 0.66664 0.78417 0.0
C494 C 0.68129 0.64746 0.81269 0.0
C495 C 0.64811 0.66608 0.81338 0.0
C496 C 0.60627 0.64403 0.82419 0.0
C497 C 0.59727 0.60208 0.83429 0.0
C498 C 0.63129 0.58372 0.83373 0.0
C499 C 0.6735 0.6074 0.82314 0.0
C500 C 0.57145 0.6652 0.82472 0.0
C501 C 0.62253 0.53842 0.84401 0.0
C502 C 0.23731 0.2805 0.79935 0.0
C503 C 0.27716 0.30964 0.81219 0.0
C504 C 0.33243 0.39595 0.82133 0.0
C505 C 0.36639 0.3853 0.82987 0.0
C506 C 0.40943 0.4234 0.83779 0.0
C507 C 0.41836 0.47317 0.83751 0.0
C508 C 0.38436 0.48416 0.82898 0.0
C509 C 0.34183 0.44532 0.82094 0.0
C510 C 0.44528 0.41033 0.84653 0.0
C511 C 0.39281 0.53681 0.8285 0.0
C512 C 0.34178 0.4221 0.94723 0.0
C513 C 0.37289 0.4062 0.93992 0.0
C514 C 0.41616 0.44005 0.93098 0.0
C515 C 0.42809 0.49066 0.9292 0.0
C516 C 0.39773 0.50711 0.93713 0.0
C517 C 0.35519 0.47259 0.94626 0.0
C518 C 0.44873 0.42156 0.92325 0.0
C519 C 0.40958 0.56081 0.93561 0.0
C520 C 0.83169 0.77266 0.93095 0.0
C521 C 0.78323 0.76471 0.9391 0.0
C522 C 0.70488 0.68433 0.9386 0.0
C523 C 0.6879 0.63351 0.936 0.0
C524 C 0.63953 0.60142 0.92969 0.0
C525 C 0.60732 0.62079 0.92618 0.0
C526 C 0.62299 0.67138 0.92998 0.0
C527 C 0.67172 0.70273 0.9362 0.0
C528 C 0.62359 0.54736 0.92609 0.0
C529 C 0.58885 0.69264 0.92689 0.0
C530 C 0.55151 0.57627 0.84499 0.0
C531 C 0.50652 0.54209 0.83702 0.0
C532 C 0.46291 0.51318 0.84647 0.0
C533 C 0.46377 0.51871 0.86438 0.0
C534 C 0.42053 0.4903 0.87426 0.0
C535 C 0.42256 0.4933 0.89196 0.0
C536 C 0.46792 0.52483 0.90046 0.0
C537 C 0.47117 0.52569 0.91847 0.0
C538 C 0.51665 0.55806 0.92653 0.0
C539 C 0.55939 0.58944 0.91702 0.0
C540 C 0.55708 0.58858 0.89899 0.0
C541 C 0.59964 0.61913 0.88905 0.0
C542 C 0.59762 0.61613 0.87135 0.0
C543 C 0.55309 0.58217 0.8629 0.0
C544 C 0.50924 0.55266 0.87263 0.0
C545 C 0.51128 0.55575 0.8907 0.0
C546 C 0.21814 0.34627 0.94317 0.0
C547 C 0.26327 0.34291 0.94975 0.0
O548 O 0.72037 0.66702 0.80171 0.0
O549 O 0.75349 0.7144 0.94322 0.0
O550 O 0.2992 0.38983 0.95559 0.0
O551 O 0.29075 0.35985 0.81326 0.0
H552 H 0.6763 0.65981 0.78085 0.0
H553 H 0.68828 0.58705 0.7816 0.0
H554 H 0.75529 0.62633 0.77996 0.0
H555 H 0.71516 0.62301 0.76245 0.0
H556 H 0.65503 0.69775 0.8054 0.0
H557 H 0.69964 0.59357 0.8225 0.0
H558 H 0.53462 0.63768 0.81915 0.0
H559 H 0.58647 0.70099 0.8175 0.0
H560 H 0.56492 0.67174 0.83813 0.0
H561 H 0.64912 0.52541 0.84059 0.0
H562 H 0.58365 0.50709 0.84202 0.0
H563 H 0.62709 0.54778 0.85778 0.0
H564 H 0.27136 0.29141 0.82496 0.0
H565 H 0.27404 0.26052 0.78128 0.0
H566 H 0.21936 0.30368 0.79609 0.0
H567 H 0.20448 0.25186 0.80699 0.0
H568 H 0.3597 0.34732 0.83041 0.0
H569 H 0.31559 0.45331 0.81433 0.0
H570 H 0.44402 0.41485 0.86052 0.0
H571 H 0.48428 0.43616 0.84228 0.0
H572 H 0.43599 0.37116 0.84395 0.0
H573 H 0.36192 0.53894 0.82189 0.0
H574 H 0.42856 0.56187 0.82184 0.0
H575 H 0.3963 0.5511 0.8417 0.0
H576 H 0.27775 0.33063 0.93892 0.0
H577 H 0.36359 0.36747 0.94132 0.0
H578 H 0.33129 0.48453 0.95226 0.0
H579 H 0.44484 0.42062 0.90915 0.0
H580 H 0.4383 0.38331 0.92777 0.0
H581 H 0.48877 0.44753 0.92638 0.0
H582 H 0.381 0.56713 0.94192 0.0
H583 H 0.41189 0.57145 0.92195 0.0
H584 H 0.4467 0.58598 0.9415 0.0
H585 H 0.76458 0.77637 0.92935 0.0
H586 H 0.85628 0.81277 0.92751 0.0
H587 H 0.82274 0.74996 0.91914 0.0
H588 H 0.85232 0.76098 0.93981 0.0
H589 H 0.71349 0.61951 0.93826 0.0
H590 H 0.68392 0.74158 0.939 0.0
H591 H 0.61676 0.54006 0.9122 0.0
H592 H 0.58785 0.52227 0.93275 0.0
H593 H 0.65224 0.53758 0.93021 0.0
H594 H 0.60487 0.73137 0.93189 0.0
H595 H 0.55192 0.66833 0.93299 0.0
H596 H 0.58221 0.69321 0.91297 0.0
H597 H 0.5059 0.53657 0.82335 0.0
H598 H 0.38474 0.46487 0.86842 0.0
H599 H 0.38823 0.47005 0.89889 0.0
H600 H 0.51909 0.55806 0.94033 0.0
H601 H 0.63523 0.64532 0.89483 0.0
H602 H 0.63164 0.6402 0.86437 0.0
H603 H 0.20141 0.35734 0.95361 0.0
H604 H 0.1891 0.30967 0.93789 0.0
H605 H 0.2302 0.37478 0.93284 0.0
C606 C 0.06808 0.26449 0.11321 0.0
C607 C 0.0236 0.2182 0.1152 0.0
H608 H 0.1225 0.33307 0.12498 0.0
C609 C 0.99768 0.20766 0.13074 0.0
H610 H 0.08956 0.27342 0.10155 0.0
C611 C 0.01678 0.2419 0.1442 0.0
C612 C 0.062 0.28743 0.14235 0.0
H613 H 0.96321 0.17247 0.13264 0.0
H614 H 0.99692 0.23218 0.15622 0.0
C615 C 0.08713 0.29862 0.12665 0.0
C616 C 0.80797 0.06729 0.43405 0.0
C617 C 0.83736 0.04556 0.43841 0.0
H618 H 0.76678 0.10173 0.44286 0.0
C619 C 0.84334 0.03781 0.45577 0.0
H620 H 0.80181 0.07315 0.42083 0.0
C621 C 0.82202 0.05301 0.4684 0.0
C622 C 0.79447 0.07659 0.46404 0.0
H623 H 0.86643 0.02213 0.45969 0.0
H624 H 0.82867 0.04808 0.48167 0.0
C625 C 0.78735 0.08323 0.4467 0.0
C626 C 0.77416 0.78711 0.75783 0.0
C627 C 0.82574 0.80501 0.76013 0.0
H628 H 0.69912 0.72986 0.76355 0.0
C629 C 0.84066 0.7787 0.77121 0.0
H630 H 0.76117 0.80696 0.74975 0.0
C631 C 0.80487 0.73491 0.77941 0.0
C632 C 0.75342 0.71626 0.77659 0.0
H633 H 0.87997 0.79108 0.77321 0.0
H634 H 0.81738 0.71495 0.78766 0.0
C635 C 0.7385 0.74316 0.76588 0.0
C636 C 0.01948 0.84953 0.12334 0.0
C637 C 0.01263 0.83715 0.10591 0.0
H638 H 0.00734 0.82255 0.1491 0.0
C639 C 0.99147 0.78641 0.10128 0.0
H640 H 0.03475 0.88795 0.12747 0.0
C641 C 0.97469 0.74887 0.11373 0.0
C642 C 0.97995 0.76127 0.13114 0.0
H643 H 0.98635 0.77545 0.088 0.0
H644 H 0.95633 0.7101 0.10969 0.0
C645 C 0.00345 0.81204 0.13578 0.0
C646 C 0.22265 0.06471 0.4589 0.0
C647 C 0.20463 0.03409 0.44436 0.0
H648 H 0.25269 0.07357 0.48419 0.0
C649 C 0.2067 0.98947 0.44396 0.0
H650 H 0.22196 0.09949 0.45955 0.0
C651 C 0.22461 0.97492 0.45799 0.0
C652 C 0.24107 0.00473 0.47271 0.0
H653 H 0.19228 0.96451 0.43311 0.0
H654 H 0.22398 0.93944 0.45757 0.0
C655 C 0.24052 0.05008 0.47295 0.0
C656 C 0.2198 0.19791 0.7903 0.0
C657 C 0.20447 0.22932 0.77374 0.0
H658 H 0.28219 0.21441 0.81404 0.0
C659 C 0.24535 0.29511 0.76879 0.0
H660 H 0.1965 0.15797 0.79227 0.0
C661 C 0.30147 0.3325 0.78109 0.0
C662 C 0.30703 0.30122 0.80074 0.0
H663 H 0.2364 0.31252 0.7584 0.0
H664 H 0.3241 0.37255 0.77911 0.0
C665 C 0.27489 0.23203 0.80328 0.0
C666 C 0.7971 0.09329 0.66607 0.0
C667 C 0.84785 0.11671 0.66135 0.0
H668 H 0.72679 0.09093 0.66321 0.0
C669 C 0.86561 0.15432 0.64875 0.0
H670 H 0.78214 0.06367 0.67555 0.0
C671 C 0.83372 0.16972 0.6416 0.0
C672 C 0.78342 0.14747 0.64681 0.0
H673 H 0.90462 0.17329 0.64497 0.0
H674 H 0.8487 0.20011 0.6324 0.0
C675 C 0.76531 0.10862 0.65892 0.0
C676 C 0.81315 0.87522 0.96811 0.0
C677 C 0.82938 0.86218 0.98308 0.0
H678 H 0.78558 0.85444 0.94256 0.0
C679 C 0.82648 0.81516 0.984 0.0
H680 H 0.81464 0.91104 0.96705 0.0
C681 C 0.80965 0.7828 0.97005 0.0
C682 C 0.79506 0.7966 0.9549 0.0
H683 H 0.83961 0.80431 0.9952 0.0
H684 H 0.80975 0.74771 0.97089 0.0
C685 C 0.7963 0.8428 0.95414 0.0
C686 C 0.006 0.78756 0.32718 0.0
C687 C 0.96888 0.80143 0.32794 0.0
H688 H 0.02428 0.73145 0.32031 0.0
C689 C 0.92156 0.76929 0.32069 0.0
H690 H 0.04334 0.81196 0.33214 0.0
C691 C 0.91104 0.72347 0.31355 0.0
C692 C 0.9473 0.70843 0.31379 0.0
H693 H 0.892 0.77858 0.32106 0.0
H694 H 0.87405 0.69911 0.30832 0.0
C695 C 0.99525 0.74155 0.32027 0.0
C696 C 0.2033 0.96345 0.65759 0.0
C697 C 0.21292 0.01032 0.66374 0.0
H698 H 0.23415 0.92033 0.64728 0.0
C699 C 0.26233 0.05101 0.66308 0.0
H700 H 0.16586 0.93119 0.65798 0.0
C701 C 0.30144 0.04445 0.65728 0.0
C702 C 0.2921 0.9972 0.6518 0.0
H703 H 0.27104 0.08796 0.66727 0.0
H704 H 0.33924 0.07622 0.65739 0.0
C705 C 0.24244 0.95706 0.65159 0.0
C706 C 0.23387 0.28085 0.99387 0.0
C707 C 0.20493 0.22973 0.98963 0.0
H708 H 0.27414 0.35656 0.98492 0.0
C709 C 0.19945 0.21615 0.97231 0.0
H710 H 0.23982 0.29278 0.00705 0.0
C711 C 0.22048 0.25282 0.95959 0.0
C712 C 0.24709 0.30396 0.96382 0.0
H713 H 0.17681 0.17738 0.96846 0.0
H714 H 0.21419 0.24133 0.94636 0.0
C715 C 0.25408 0.31755 0.98114 0.0
C716 C 0.12739 0.31228 0.32424 0.0
C717 C 0.07907 0.27638 0.32973 0.0
H718 H 0.17504 0.38694 0.31485 0.0
C719 C 0.04034 0.28796 0.32856 0.0
H720 H 0.15814 0.30474 0.325 0.0
C721 C 0.0503 0.33528 0.3231 0.0
C722 C 0.09909 0.37201 0.31849 0.0
H723 H 0.00238 0.26078 0.33223 0.0
H724 H 0.01999 0.34356 0.32289 0.0
C725 C 0.13722 0.35952 0.31858 0.0
loop_
_geom_bond_atom_site_label_1
_geom_bond_atom_site_label_2
_geom_bond_distance
_geom_bond_site_symmetry_2
_ccdc_geom_bond_type
Li0 N17 1.990 . S
Li0 O60 1.956 . S
Li0 O61 1.948 1_455 S
Li0 O62 1.961 1_545 S
Li1 N25 1.990 . S
Li1 O60 1.970 1_655 S
Li1 O61 1.956 . S
Li1 O63 1.961 1_545 S
Li2 N47 1.990 . S
Li2 O60 1.961 1_565 S
Li2 O62 1.956 . S
Li2 O63 1.970 1_455 S
Li3 N53 1.990 . S
Li3 O61 1.961 1_565 S
Li3 O62 1.970 1_655 S
Li3 O63 1.956 . S
C4 C6 1.348 . S
C4 C7 1.356 . S
C4 O60 1.325 . S
N5 C8 1.314 . S
N5 C9 1.279 . S
C6 C4 1.348 . S
C6 C8 1.353 . S
C6 H64 0.929 . S
C7 C4 1.356 . S
C7 C9 1.358 . S
C7 H65 0.930 . S
C8 N5 1.314 . S
C8 C6 1.353 . S
C8 H66 0.930 . S
C9 N5 1.279 . S
C9 C7 1.358 . S
C9 H67 0.930 . S
C10 C13 1.348 1_655 S
C10 C14 1.356 . S
C10 O61 1.338 . S
C11 N12 1.279 . S
C11 C14 1.358 . S
C11 H68 0.930 . S
N12 C11 1.279 . S
N12 C15 1.314 1_655 S
C13 C10 1.348 1_455 S
C13 C15 1.353 . S
C13 H69 0.929 . S
C14 C10 1.356 . S
C14 C11 1.358 . S
C14 H70 0.930 . S
C15 N12 1.314 1_455 S
C15 C13 1.353 . S
C15 H71 0.930 . S
C16 N17 1.314 . S
C16 C21 1.353 1_554 S
C16 H22 0.930 . S
N17 Li0 1.990 . S
N17 C16 1.314 . S
N17 C19 1.279 . S
C18 C19 1.358 . S
C18 C20 1.356 . S
C18 H72 0.930 . S
C19 N17 1.279 . S
C19 C18 1.358 . S
C19 H23 0.930 . S
C20 C18 1.356 . S
C20 C21 1.348 1_554 S
C21 C16 1.353 1_556 S
C21 C20 1.348 1_556 S
C21 H73 0.929 . S
H22 C16 0.930 . S
H23 C19 0.930 . S
C24 N25 1.314 . S
C24 C26 1.353 . S
C24 H30 0.930 . S
N25 Li1 1.990 . S
N25 C24 1.314 . S
N25 C28 1.279 . S
C26 C24 1.353 . S
C26 C29 1.348 . S
C26 H74 0.929 . S
C27 C28 1.358 . S
C27 C29 1.356 . S
C27 H75 0.930 . S
C28 N25 1.279 . S
C28 C27 1.358 . S
C28 H31 0.930 . S
C29 C26 1.348 . S
C29 C27 1.356 . S
H30 C24 0.930 . S
H31 C28 0.930 . S
C32 C34 1.348 . S
C32 C35 1.356 . S
C32 O62 1.325 . S
N33 C36 1.314 . S
N33 C37 1.279 . S
C34 C32 1.348 . S
C34 C36 1.353 . S
C34 H76 0.929 1_455 S
C35 C32 1.356 . S
C35 C37 1.358 . S
C35 H77 0.930 . S
C36 N33 1.314 . S
C36 C34 1.353 . S
C36 H78 0.930 1_455 S
C37 N33 1.279 . S
C37 C35 1.358 . S
C37 H79 0.930 . S
C38 C39 1.348 . S
C38 C40 1.356 . S
C38 O63 1.325 . S
C39 C38 1.348 . S
C39 C41 1.353 . S
C39 H80 0.929 . S
C40 C38 1.356 . S
C40 C42 1.358 . S
C40 H81 0.930 . S
C41 C39 1.353 . S
C41 N43 1.314 . S
C41 H82 0.930 . S
C42 C40 1.358 . S
C42 N43 1.279 . S
C42 H83 0.930 . S
N43 C41 1.314 . S
N43 C42 1.279 . S
C44 C46 1.353 . S
C44 N47 1.314 . S
C44 H50 0.930 . S
C45 N47 1.279 . S
C45 C48 1.358 . S
C45 H51 0.930 . S
C46 C44 1.353 . S
C46 C49 1.348 . S
C46 H84 0.929 . S
N47 Li2 1.990 . S
N47 C44 1.314 . S
N47 C45 1.279 . S
C48 C45 1.358 . S
C48 C49 1.356 . S
C48 H85 0.930 . S
C49 C46 1.348 . S
C49 C48 1.356 . S
H50 C44 0.930 . S
H51 C45 0.930 . S
C52 N53 1.314 . S
C52 C54 1.353 1_554 S
C52 H58 0.930 . S
N53 Li3 1.990 . S
N53 C52 1.314 . S
N53 C56 1.279 . S
C54 C52 1.353 1_556 S
C54 C57 1.348 1_556 S
C54 H86 0.929 . S
C55 C56 1.358 . S
C55 C57 1.356 . S
C55 H87 0.930 . S
C56 N53 1.279 . S
C56 C55 1.358 . S
C56 H59 0.930 . S
C57 C54 1.348 1_554 S
C57 C55 1.356 . S
H58 C52 0.930 . S
H59 C56 0.930 . S
O60 Li0 1.956 . S
O60 Li1 1.970 1_455 S
O60 Li2 1.961 1_545 S
O60 C4 1.325 . S
O61 Li0 1.948 1_655 S
O61 Li1 1.956 . S
O61 Li3 1.961 1_545 S
O61 C10 1.338 . S
O62 Li0 1.961 1_565 S
O62 Li2 1.956 . S
O62 Li3 1.970 1_455 S
O62 C32 1.325 . S
O63 Li1 1.961 1_565 S
O63 Li2 1.970 1_655 S
O63 Li3 1.956 . S
O63 C38 1.325 . S
H64 C6 0.929 . S
H65 C7 0.930 . S
H66 C8 0.930 . S
H67 C9 0.930 . S
H68 C11 0.930 . S
H69 C13 0.929 . S
H70 C14 0.930 . S
H71 C15 0.930 . S
H72 C18 0.930 . S
H73 C21 0.929 . S
H74 C26 0.929 . S
H75 C27 0.930 . S
H76 C34 0.929 1_655 S
H77 C35 0.930 . S
H78 C36 0.930 1_655 S
H79 C37 0.930 . S
H80 C39 0.929 . S
H81 C40 0.930 . S
H82 C41 0.930 . S
H83 C42 0.930 . S
H84 C46 0.929 . S
H85 C48 0.930 . S
H86 C54 0.929 . S
H87 C55 0.930 . S
Li88 N105 1.990 1_455 S
Li88 O148 1.956 . S
Li88 O149 1.970 1_565 S
Li88 O150 1.961 1_465 S
Li89 N113 1.990 . S
Li89 O148 1.970 1_545 S
Li89 O149 1.956 . S
Li89 O151 1.961 . S
Li90 N135 1.990 . S
Li90 O148 1.961 1_645 S
Li90 O150 1.956 . S
Li90 O151 1.970 1_655 S
Li91 N141 1.990 . S
Li91 O149 1.961 . S
Li91 O150 1.970 1_455 S
Li91 O151 1.956 . S
C92 C94 1.348 . S
C92 C95 1.356 1_455 S
C92 O148 1.325 . S
N93 C96 1.314 1_655 S
N93 C97 1.279 . S
C94 C92 1.348 . S
C94 C96 1.353 . S
C94 H152 0.929 . S
C95 C92 1.356 1_655 S
C95 C97 1.358 . S
C95 H153 0.930 . S
C96 N93 1.314 1_455 S
C96 C94 1.353 . S
C96 H154 0.930 . S
C97 N93 1.279 . S
C97 C95 1.358 . S
C97 H155 0.930 . S
C98 C101 1.348 . S
C98 C102 1.356 . S
C98 O149 1.325 . S
C99 N100 1.279 . S
C99 C102 1.358 . S
C99 H156 0.930 . S
N100 C99 1.279 . S
N100 C103 1.314 . S
C101 C98 1.348 . S
C101 C103 1.353 . S
C101 H157 0.929 1_545 S
C102 C98 1.356 . S
C102 C99 1.358 . S
C102 H158 0.930 . S
C103 N100 1.314 . S
C103 C101 1.353 . S
C103 H159 0.930 . S
C104 N105 1.314 . S
C104 C109 1.353 . S
C104 H110 0.930 . S
N105 Li88 1.990 1_655 S
N105 C104 1.314 . S
N105 C107 1.279 . S
C106 C107 1.358 . S
C106 C108 1.356 . S
C106 H160 0.930 . S
C107 N105 1.279 . S
C107 C106 1.358 . S
C107 H111 0.931 . S
C108 C106 1.356 . S
C108 C109 1.348 . S
C109 C104 1.353 . S
C109 C108 1.348 . S
C109 H161 0.929 . S
H110 C104 0.930 . S
H111 C107 0.931 . S
C112 N113 1.314 . S
C112 C114 1.353 . S
C112 H118 0.930 . S
N113 Li89 1.990 . S
N113 C112 1.314 . S
N113 C116 1.279 . S
C114 C112 1.353 . S
C114 C117 1.348 . S
C114 H162 0.929 . S
C115 C116 1.358 . S
C115 C117 1.356 . S
C115 H163 0.930 . S
C116 N113 1.279 . S
C116 C115 1.358 . S
C116 H119 0.930 . S
C117 C114 1.348 . S
C117 C115 1.356 . S
H118 C112 0.930 . S
H119 C116 0.930 . S
C120 C122 1.348 . S
C120 C123 1.356 1_545 S
C120 O150 1.325 . S
N121 C124 1.314 1_565 S
N121 C125 1.279 . S
C122 C120 1.348 . S
C122 C124 1.353 . S
C122 H164 0.929 . S
C123 C120 1.356 1_565 S
C123 C125 1.358 . S
C123 H165 0.930 . S
C124 N121 1.314 1_545 S
C124 C122 1.353 . S
C124 H166 0.930 . S
C125 N121 1.279 . S
C125 C123 1.358 . S
C125 H167 0.930 . S
C126 C127 1.348 . S
C126 C128 1.356 . S
C126 O151 1.325 . S
C127 C126 1.348 . S
C127 C129 1.353 . S
C127 H168 0.929 1_455 S
C128 C126 1.356 . S
C128 C130 1.358 . S
C128 H169 0.930 . S
C129 C127 1.353 . S
C129 N131 1.314 . S
C129 H170 0.930 . S
C130 C128 1.358 . S
C130 N131 1.279 . S
C130 H171 0.930 . S
N131 C129 1.314 . S
N131 C130 1.279 . S
C132 C134 1.355 1_545 S
C132 N135 1.316 . S
C132 H138 0.928 . S
C133 N135 1.279 . S
C133 C136 1.358 . S
C133 H139 0.930 . S
C134 C132 1.355 1_565 S
C134 C137 1.348 . S
C134 H172 0.929 . S
N135 Li90 1.990 . S
N135 C132 1.316 . S
N135 C133 1.279 . S
C136 C133 1.358 . S
C136 C137 1.356 1_545 S
C136 H173 0.943 1_545 S
C137 C134 1.348 . S
C137 C136 1.356 1_565 S
H138 C132 0.928 . S
H139 C133 0.930 . S
C140 N141 1.314 . S
C140 C142 1.353 . S
C140 H146 0.930 . S
N141 Li91 1.990 . S
N141 C140 1.314 . S
N141 C144 1.279 . S
C142 C140 1.353 . S
C142 C145 1.348 . S
C142 H174 0.929 . S
C143 C144 1.358 . S
C143 C145 1.356 . S
C143 H175 0.930 . S
C144 N141 1.279 . S
C144 C143 1.358 . S
C144 H147 0.930 . S
C145 C142 1.348 . S
C145 C143 1.356 . S
H146 C140 0.930 . S
H147 C144 0.930 . S
O148 Li88 1.956 . S
O148 Li89 1.970 1_565 S
O148 Li90 1.961 1_465 S
O148 C92 1.325 . S
O149 Li88 1.970 1_545 S
O149 Li89 1.956 . S
O149 Li91 1.961 . S
O149 C98 1.325 . S
O150 Li88 1.961 1_645 S
O150 Li90 1.956 . S
O150 Li91 1.970 1_655 S
O150 C120 1.325 . S
O151 Li89 1.961 . S
O151 Li90 1.970 1_455 S
O151 Li91 1.956 . S
O151 C126 1.325 . S
H152 C94 0.929 . S
H153 C95 0.930 . S
H154 C96 0.930 . S
H155 C97 0.930 . S
H156 C99 0.930 . S
H157 C101 0.929 1_565 S
H158 C102 0.930 . S
H159 C103 0.930 . S
H160 C106 0.930 . S
H161 C109 0.929 . S
H162 C114 0.929 . S
H163 C115 0.930 . S
H164 C122 0.929 . S
H165 C123 0.930 . S
H166 C124 0.930 . S
H167 C125 0.930 . S
H168 C127 0.929 1_655 S
H169 C128 0.930 . S
H170 C129 0.930 . S
H171 C130 0.930 . S
H172 C134 0.929 . S
H173 C136 0.943 1_565 S
H174 C142 0.929 . S
H175 C143 0.930 . S
Li176 N193 1.990 . S
Li176 O236 1.956 . S
Li176 O237 1.970 . S
Li176 O238 1.961 1_445 S
Li177 N201 1.990 . S
Li177 O236 1.970 . S
Li177 O237 1.956 . S
Li177 O239 1.961 1_455 S
Li178 N223 1.990 . S
Li178 O236 1.961 1_665 S
Li178 O238 1.956 . S
Li178 O239 1.970 1_565 S
Li179 N229 1.990 . S
Li179 O237 1.961 1_655 S
Li179 O238 1.970 1_545 S
Li179 O239 1.956 . S
C180 C182 1.348 . S
C180 C183 1.356 1_545 S
C180 O236 1.325 . S
N181 C184 1.314 1_565 S
N181 C185 1.279 . S
C182 C180 1.348 . S
C182 C184 1.353 . S
C182 H240 0.929 . S
C183 C180 1.356 1_565 S
C183 C185 1.358 . S
C183 H241 0.930 . S
C184 N181 1.314 1_545 S
C184 C182 1.353 . S
C184 H242 0.930 . S
C185 N181 1.279 . S
C185 C183 1.358 . S
C185 H243 0.930 . S
C186 C189 1.348 . S
C186 C190 1.356 . S
C186 O237 1.325 . S
C187 N188 1.279 . S
C187 C190 1.358 . S
C187 H244 0.930 . S
N188 C187 1.279 . S
N188 C191 1.314 . S
C189 C186 1.348 . S
C189 C191 1.353 . S
C189 H245 0.929 . S
C190 C186 1.356 . S
C190 C187 1.358 . S
C190 H246 0.930 . S
C191 N188 1.314 . S
C191 C189 1.353 . S
C191 H247 0.930 . S
C192 N193 1.314 . S
C192 C197 1.353 1_545 S
C192 H198 0.930 . S
N193 Li176 1.990 . S
N193 C192 1.314 . S
N193 C195 1.279 . S
C194 C195 1.358 . S
C194 C196 1.356 1_545 S
C194 H248 0.929 . S
C195 N193 1.279 . S
C195 C194 1.358 . S
C195 H199 0.930 . S
C196 C194 1.356 1_565 S
C196 C197 1.348 . S
C197 C192 1.353 1_565 S
C197 C196 1.348 . S
C197 H249 0.929 . S
H198 C192 0.930 . S
H199 C195 0.930 . S
C200 N201 1.314 . S
C200 C202 1.353 . S
C200 H206 0.930 . S
N201 Li177 1.990 . S
N201 C200 1.314 . S
N201 C204 1.279 . S
C202 C200 1.353 . S
C202 C205 1.348 . S
C202 H250 0.929 . S
C203 C204 1.358 . S
C203 C205 1.356 . S
C203 H251 0.930 . S
C204 N201 1.279 . S
C204 C203 1.358 . S
C204 H207 0.930 . S
C205 C202 1.348 . S
C205 C203 1.356 . S
H206 C200 0.930 . S
H207 C204 0.930 . S
C208 C210 1.348 . S
C208 C211 1.356 . S
C208 O238 1.325 . S
N209 C212 1.314 . S
N209 C213 1.279 . S
C210 C208 1.348 . S
C210 C212 1.353 . S
C210 H252 0.929 . S
C211 C208 1.356 . S
C211 C213 1.358 . S
C211 H253 0.930 . S
C212 N209 1.314 . S
C212 C210 1.353 . S
C212 H254 0.930 . S
C213 N209 1.279 . S
C213 C211 1.358 . S
C213 H255 0.930 . S
C214 C215 1.348 . S
C214 C216 1.356 . S
C214 O239 1.325 . S
C215 C214 1.348 . S
C215 C217 1.353 . S
C215 H256 0.929 1_545 S
C216 C214 1.356 . S
C216 C218 1.358 . S
C216 H257 0.930 . S
C217 C215 1.353 . S
C217 N219 1.314 . S
C217 H258 0.930 . S
C218 C216 1.358 . S
C218 N219 1.279 . S
C218 H259 0.930 . S
N219 C217 1.314 . S
N219 C218 1.279 . S
C220 C222 1.353 . S
C220 N223 1.314 . S
C220 H226 0.930 . S
C221 N223 1.279 . S
C221 C224 1.358 . S
C221 H227 0.930 . S
C222 C220 1.353 . S
C222 C225 1.348 . S
C222 H260 0.929 . S
N223 Li178 1.990 . S
N223 C220 1.314 . S
N223 C221 1.279 . S
C224 C221 1.358 . S
C224 C225 1.356 . S
C224 H261 0.930 . S
C225 C222 1.348 . S
C225 C224 1.356 . S
H226 C220 0.930 . S
H227 C221 0.930 . S
C228 N229 1.314 . S
C228 C230 1.353 . S
C228 H234 0.930 . S
N229 Li179 1.990 . S
N229 C228 1.314 . S
N229 C232 1.279 . S
C230 C228 1.353 . S
C230 C233 1.348 . S
C230 H262 0.929 . S
C231 C232 1.358 . S
C231 C233 1.356 . S
C231 H263 0.930 . S
C232 N229 1.279 . S
C232 C231 1.358 . S
C232 H235 0.930 . S
C233 C230 1.348 . S
C233 C231 1.356 . S
H234 C228 0.930 . S
H235 C232 0.930 . S
O236 Li176 1.956 . S
O236 Li177 1.970 . S
O236 Li178 1.961 1_445 S
O236 C180 1.325 . S
O237 Li176 1.970 . S
O237 Li177 1.956 . S
O237 Li179 1.961 1_455 S
O237 C186 1.325 . S
O238 Li176 1.961 1_665 S
O238 Li178 1.956 . S
O238 Li179 1.970 1_565 S
O238 C208 1.325 . S
O239 Li177 1.961 1_655 S
O239 Li178 1.970 1_545 S
O239 Li179 1.956 . S
O239 C214 1.325 . S
H240 C182 0.929 . S
H241 C183 0.930 . S
H242 C184 0.930 . S
H243 C185 0.930 . S
H244 C187 0.930 . S
H245 C189 0.929 . S
H246 C190 0.930 . S
H247 C191 0.930 . S
H248 C194 0.929 . S
H249 C197 0.929 . S
H250 C202 0.929 . S
H251 C203 0.930 . S
H252 C210 0.929 . S
H253 C211 0.930 . S
H254 C212 0.930 . S
H255 C213 0.930 . S
H256 C215 0.929 1_565 S
H257 C216 0.930 . S
H258 C217 0.930 . S
H259 C218 0.930 . S
H260 C222 0.929 . S
H261 C224 0.930 . S
H262 C230 0.929 . S
H263 C231 0.930 . S
C264 C265 1.560 . S
C264 H325 0.959 . S
C264 H326 0.959 . S
C264 H327 0.960 . S
C265 C264 1.560 . S
C265 O320 1.426 . S
C265 H324 0.980 1_655 S
C266 C267 1.407 1_655 S
C266 C271 1.418 . S
C266 O320 1.334 . S
C267 C266 1.407 1_455 S
C267 C268 1.360 . S
C267 H328 0.929 . S
C268 C267 1.360 . S
C268 C269 1.401 . S
C268 C272 1.527 . S
C269 C268 1.401 . S
C269 C270 1.405 1_455 S
C269 C302 1.587 . S
C270 C269 1.405 1_655 S
C270 C271 1.332 . S
C270 C273 1.496 . S
C271 C266 1.418 . S
C271 C270 1.332 . S
C271 H329 0.929 . S
C272 C268 1.527 . S
C272 H330 0.959 . S
C272 H331 0.961 . S
C272 H332 0.961 . S
C273 C270 1.496 . S
C273 H333 0.960 . S
C273 H334 0.960 . S
C273 H335 0.961 . S
C274 C275 1.517 . S
C274 H337 0.961 . S
C274 H338 0.960 . S
C274 H339 0.959 . S
C275 C274 1.517 . S
C275 O323 1.468 . S
C275 H336 0.980 . S
C276 C277 1.349 . S
C276 C281 1.367 . S
C276 O323 1.408 . S
C277 C276 1.349 . S
C277 C278 1.407 . S
C277 H340 0.930 . S
C278 C277 1.407 . S
C278 C279 1.449 . S
C278 C282 1.535 1_455 S
C279 C278 1.449 . S
C279 C280 1.384 . S
C279 C304 1.553 . S
C280 C279 1.384 . S
C280 C281 1.364 . S
C280 C283 1.450 . S
C281 C276 1.367 . S
C281 C280 1.364 . S
C281 H341 0.931 . S
C282 C278 1.535 1_655 S
C282 H342 0.959 . S
C282 H343 0.961 . S
C282 H344 0.959 . S
C283 C280 1.450 . S
C283 H345 0.960 . S
C283 H346 0.960 . S
C283 H347 0.960 . S
C284 C285 1.309 . S
C284 C289 1.304 . S
C284 O322 1.435 . S
C285 C284 1.309 . S
C285 C286 1.476 . S
C285 H349 0.930 1_455 S
C286 C285 1.476 . S
C286 C287 1.400 . S
C286 C290 1.567 1_455 S
C287 C286 1.400 . S
C287 C288 1.373 . S
C287 C309 1.432 . S
C288 C287 1.373 . S
C288 C289 1.339 . S
C288 C291 1.530 . S
C289 C284 1.304 . S
C289 C288 1.339 . S
C289 H350 0.930 . S
C290 C286 1.567 1_655 S
C290 H351 0.961 . S
C290 H352 0.960 . S
C290 H353 0.958 . S
C291 C288 1.530 . S
C291 H354 0.961 . S
C291 H355 0.960 . S
C291 H356 0.960 . S
C292 C293 1.530 1_655 S
C292 H358 0.961 . S
C292 H359 0.961 . S
C292 H360 0.959 . S
C293 C292 1.530 1_455 S
C293 O321 1.412 1_455 S
C293 H357 0.980 . S
C294 C295 1.288 . S
C294 C299 1.377 1_655 S
C294 O321 1.393 . S
C295 C294 1.288 . S
C295 C296 1.369 . S
C295 H361 0.932 . S
C296 C295 1.369 . S
C296 C297 1.398 1_655 S
C296 C300 1.527 . S
C297 C296 1.398 1_455 S
C297 C298 1.380 . S
C297 C311 1.497 . S
C298 C297 1.380 . S
C298 C299 1.383 . S
C298 C301 1.603 . S
C299 C294 1.377 1_455 S
C299 C298 1.383 . S
C299 H362 0.929 . S
C300 C296 1.527 . S
C300 H363 0.961 . S
C300 H364 0.959 . S
C300 H365 0.959 . S
C301 C298 1.603 . S
C301 H366 0.960 . S
C301 H367 0.962 . S
C301 H368 0.961 . S
C302 C269 1.587 . S
C302 C303 1.360 . S
C302 C315 1.412 . S
C303 C302 1.360 . S
C303 C304 1.365 . S
C303 H369 0.929 . S
C304 C279 1.553 . S
C304 C303 1.365 . S
C304 C305 1.404 . S
C305 C304 1.404 . S
C305 C306 1.395 . S
C305 C316 1.451 . S
C306 C305 1.395 . S
C306 C307 1.322 . S
C306 H370 0.930 . S
C307 C306 1.322 . S
C307 C308 1.459 . S
C307 H371 0.929 . S
C308 C307 1.459 . S
C308 C309 1.445 . S
C308 C317 1.395 . S
C309 C287 1.432 . S
C309 C308 1.445 . S
C309 C310 1.370 . S
C310 C309 1.370 . S
C310 C311 1.438 . S
C310 H372 0.930 . S
C311 C297 1.497 . S
C311 C310 1.438 . S
C311 C312 1.360 . S
C312 C311 1.360 . S
C312 C313 1.401 . S
C312 C317 1.446 . S
C313 C312 1.401 . S
C313 C314 1.347 . S
C313 H373 0.929 . S
C314 C313 1.347 . S
C314 C315 1.455 . S
C314 H374 0.930 . S
C315 C302 1.412 . S
C315 C314 1.455 . S
C315 C316 1.331 . S
C316 C305 1.451 . S
C316 C315 1.331 . S
C316 C317 1.497 . S
C317 C308 1.395 . S
C317 C312 1.446 . S
C317 C316 1.497 . S
C318 C319 1.582 . S
C318 H375 0.962 . S
C318 H376 0.959 . S
C318 H377 0.958 . S
C319 C318 1.582 . S
C319 O322 1.458 . S
C319 H348 0.980 . S
O320 C265 1.426 . S
O320 C266 1.334 . S
O321 C293 1.412 1_655 S
O321 C294 1.393 . S
O322 C284 1.435 . S
O322 C319 1.458 . S
O323 C275 1.468 . S
O323 C276 1.408 . S
H324 C265 0.980 1_455 S
H325 C264 0.959 . S
H326 C264 0.959 . S
H327 C264 0.960 . S
H328 C267 0.929 . S
H329 C271 0.929 . S
H330 C272 0.959 . S
H331 C272 0.961 . S
H332 C272 0.961 . S
H333 C273 0.960 . S
H334 C273 0.960 . S
H335 C273 0.961 . S
H336 C275 0.980 . S
H337 C274 0.961 . S
H338 C274 0.960 . S
H339 C274 0.959 . S
H340 C277 0.930 . S
H341 C281 0.931 . S
H342 C282 0.959 . S
H343 C282 0.961 . S
H344 C282 0.959 . S
H345 C283 0.960 . S
H346 C283 0.960 . S
H347 C283 0.960 . S
H348 C319 0.980 . S
H349 C285 0.930 1_655 S
H350 C289 0.930 . S
H351 C290 0.961 . S
H352 C290 0.960 . S
H353 C290 0.958 . S
H354 C291 0.961 . S
H355 C291 0.960 . S
H356 C291 0.960 . S
H357 C293 0.980 . S
H358 C292 0.961 . S
H359 C292 0.961 . S
H360 C292 0.959 . S
H361 C295 0.932 . S
H362 C299 0.929 . S
H363 C300 0.961 . S
H364 C300 0.959 . S
H365 C300 0.959 . S
H366 C301 0.960 . S
H367 C301 0.962 . S
H368 C301 0.961 . S
H369 C303 0.929 . S
H370 C306 0.930 . S
H371 C307 0.929 . S
H372 C310 0.930 . S
H373 C313 0.929 . S
H374 C314 0.930 . S
H375 C318 0.962 . S
H376 C318 0.959 . S
H377 C318 0.958 . S
C378 C379 1.560 1_565 S
C378 H439 0.959 . S
C378 H440 0.959 . S
C378 H441 0.960 . S
C379 C378 1.560 1_545 S
C379 O434 1.426 1_545 S
C379 H438 0.980 . S
C380 C381 1.407 . S
C380 C385 1.418 1_545 S
C380 O434 1.334 1_545 S
C381 C380 1.407 . S
C381 C382 1.360 . S
C381 H442 0.929 . S
C382 C381 1.360 . S
C382 C383 1.401 . S
C382 C386 1.527 . S
C383 C382 1.401 . S
C383 C384 1.405 1_545 S
C383 C416 1.587 . S
C384 C383 1.405 1_565 S
C384 C385 1.332 . S
C384 C387 1.496 . S
C385 C380 1.418 1_565 S
C385 C384 1.332 . S
C385 H443 0.929 . S
C386 C382 1.527 . S
C386 H444 0.959 . S
C386 H445 0.961 . S
C386 H446 0.961 . S
C387 C384 1.496 . S
C387 H447 0.960 . S
C387 H448 0.960 . S
C387 H449 0.961 . S
C388 C389 1.517 . S
C388 H451 0.961 . S
C388 H452 0.960 . S
C388 H453 0.959 . S
C389 C388 1.517 . S
C389 O437 1.468 . S
C389 H450 0.980 . S
C390 C391 1.349 . S
C390 C395 1.367 . S
C390 O437 1.408 . S
C391 C390 1.349 . S
C391 C392 1.407 . S
C391 H454 0.930 . S
C392 C391 1.407 . S
C392 C393 1.449 . S
C392 C396 1.535 1_545 S
C393 C392 1.449 . S
C393 C394 1.384 . S
C393 C418 1.553 . S
C394 C393 1.384 . S
C394 C395 1.364 . S
C394 C397 1.450 . S
C395 C390 1.367 . S
C395 C394 1.364 . S
C395 H455 0.931 . S
C396 C392 1.535 1_565 S
C396 H456 0.959 . S
C396 H457 0.961 . S
C396 H458 0.959 . S
C397 C394 1.450 . S
C397 H459 0.960 . S
C397 H460 0.960 . S
C397 H461 0.960 . S
C398 C399 1.309 . S
C398 C403 1.304 . S
C398 O436 1.435 . S
C399 C398 1.309 . S
C399 C400 1.476 . S
C399 H463 0.930 . S
C400 C399 1.476 . S
C400 C401 1.400 . S
C400 C404 1.567 1_545 S
C401 C400 1.400 . S
C401 C402 1.373 . S
C401 C423 1.432 . S
C402 C401 1.373 . S
C402 C403 1.339 . S
C402 C405 1.530 . S
C403 C398 1.304 . S
C403 C402 1.339 . S
C403 H464 0.930 . S
C404 C400 1.567 1_565 S
C404 H465 0.961 . S
C404 H466 0.960 . S
C404 H467 0.958 . S
C405 C402 1.530 . S
C405 H468 0.961 . S
C405 H469 0.960 . S
C405 H470 0.960 . S
C406 C407 1.529 1_565 S
C406 H472 0.953 1_565 S
C406 H473 0.964 . S
C406 H474 0.965 . S
C407 C406 1.529 1_545 S
C407 O435 1.415 . S
C407 H471 0.980 . S
C408 C409 1.288 1_545 S
C408 C413 1.377 . S
C408 O435 1.392 . S
C409 C408 1.288 1_565 S
C409 C410 1.369 . S
C409 H475 0.932 . S
C410 C409 1.369 . S
C410 C411 1.398 1_565 S
C410 C414 1.527 . S
C411 C410 1.398 1_545 S
C411 C412 1.380 . S
C411 C425 1.497 . S
C412 C411 1.380 . S
C412 C413 1.383 . S
C412 C415 1.603 . S
C413 C408 1.377 . S
C413 C412 1.383 . S
C413 H476 0.929 . S
C414 C410 1.527 . S
C414 H477 0.961 . S
C414 H478 0.959 . S
C414 H479 0.959 . S
C415 C412 1.603 . S
C415 H480 0.960 . S
C415 H481 0.962 . S
C415 H482 0.961 . S
C416 C383 1.587 . S
C416 C417 1.360 . S
C416 C429 1.412 . S
C417 C416 1.360 . S
C417 C418 1.365 . S
C417 H483 0.929 . S
C418 C393 1.553 . S
C418 C417 1.365 . S
C418 C419 1.404 . S
C419 C418 1.404 . S
C419 C420 1.395 . S
C419 C430 1.451 . S
C420 C419 1.395 . S
C420 C421 1.322 . S
C420 H484 0.930 . S
C421 C420 1.322 . S
C421 C422 1.459 . S
C421 H485 0.929 . S
C422 C421 1.459 . S
C422 C423 1.445 . S
C422 C431 1.395 . S
C423 C401 1.432 . S
C423 C422 1.445 . S
C423 C424 1.370 . S
C424 C423 1.370 . S
C424 C425 1.438 . S
C424 H486 0.930 . S
C425 C411 1.497 . S
C425 C424 1.438 . S
C425 C426 1.360 . S
C426 C425 1.360 . S
C426 C427 1.401 . S
C426 C431 1.446 . S
C427 C426 1.401 . S
C427 C428 1.347 . S
C427 H487 0.929 . S
C428 C427 1.347 . S
C428 C429 1.455 . S
C428 H488 0.930 . S
C429 C416 1.412 . S
C429 C428 1.455 . S
C429 C430 1.331 . S
C430 C419 1.451 . S
C430 C429 1.331 . S
C430 C431 1.497 . S
C431 C422 1.395 . S
C431 C426 1.446 . S
C431 C430 1.497 . S
C432 C433 1.582 . S
C432 H489 0.962 . S
C432 H490 0.959 . S
C432 H491 0.958 . S
C433 C432 1.582 . S
C433 O436 1.458 . S
C433 H462 0.980 . S
O434 C379 1.426 1_565 S
O434 C380 1.334 1_565 S
O435 C407 1.415 . S
O435 C408 1.392 . S
O436 C398 1.435 . S
O436 C433 1.458 . S
O437 C389 1.468 . S
O437 C390 1.408 . S
H438 C379 0.980 . S
H439 C378 0.959 . S
H440 C378 0.959 . S
H441 C378 0.960 . S
H442 C381 0.929 . S
H443 C385 0.929 . S
H444 C386 0.959 . S
H445 C386 0.961 . S
H446 C386 0.961 . S
H447 C387 0.960 . S
H448 C387 0.960 . S
H449 C387 0.961 . S
H450 C389 0.980 . S
H451 C388 0.961 . S
H452 C388 0.960 . S
H453 C388 0.959 . S
H454 C391 0.930 . S
H455 C395 0.931 . S
H456 C396 0.959 . S
H457 C396 0.961 . S
H458 C396 0.959 . S
H459 C397 0.960 . S
H460 C397 0.960 . S
H461 C397 0.960 . S
H462 C433 0.980 . S
H463 C399 0.930 . S
H464 C403 0.930 . S
H465 C404 0.961 . S
H466 C404 0.960 . S
H467 C404 0.958 . S
H468 C405 0.961 . S
H469 C405 0.960 . S
H470 C405 0.960 . S
H471 C407 0.980 . S
H472 C406 0.953 1_545 S
H473 C406 0.964 . S
H474 C406 0.965 . S
H475 C409 0.932 . S
H476 C413 0.929 . S
H477 C414 0.961 . S
H478 C414 0.959 . S
H479 C414 0.959 . S
H480 C415 0.960 . S
H481 C415 0.962 . S
H482 C415 0.961 . S
H483 C417 0.929 . S
H484 C420 0.930 . S
H485 C421 0.929 . S
H486 C424 0.930 . S
H487 C427 0.929 . S
H488 C428 0.930 . S
H489 C432 0.962 . S
H490 C432 0.959 . S
H491 C432 0.958 . S
C492 C493 1.560 . S
C492 H553 0.959 . S
C492 H554 0.959 . S
C492 H555 0.960 . S
C493 C492 1.560 . S
C493 O548 1.426 . S
C493 H552 0.980 . S
C494 C495 1.407 . S
C494 C499 1.418 . S
C494 O548 1.334 . S
C495 C494 1.407 . S
C495 C496 1.360 . S
C495 H556 0.929 . S
C496 C495 1.360 . S
C496 C497 1.401 . S
C496 C500 1.527 . S
C497 C496 1.401 . S
C497 C498 1.405 . S
C497 C530 1.587 . S
C498 C497 1.405 . S
C498 C499 1.332 . S
C498 C501 1.496 . S
C499 C494 1.418 . S
C499 C498 1.332 . S
C499 H557 0.929 . S
C500 C496 1.527 . S
C500 H558 0.959 . S
C500 H559 0.961 . S
C500 H560 0.961 . S
C501 C498 1.496 . S
C501 H561 0.960 . S
C501 H562 0.960 . S
C501 H563 0.961 . S
C502 C503 1.517 . S
C502 H565 0.961 . S
C502 H566 0.960 . S
C502 H567 0.959 . S
C503 C502 1.517 . S
C503 O551 1.468 . S
C503 H564 0.980 . S
C504 C505 1.349 . S
C504 C509 1.367 . S
C504 O551 1.408 . S
C505 C504 1.349 . S
C505 C506 1.407 . S
C505 H568 0.930 . S
C506 C505 1.407 . S
C506 C507 1.449 . S
C506 C510 1.535 . S
C507 C506 1.449 . S
C507 C508 1.384 . S
C507 C532 1.553 . S
C508 C507 1.384 . S
C508 C509 1.364 . S
C508 C511 1.450 . S
C509 C504 1.367 . S
C509 C508 1.364 . S
C509 H569 0.931 . S
C510 C506 1.535 . S
C510 H570 0.959 . S
C510 H571 0.961 . S
C510 H572 0.959 . S
C511 C508 1.450 . S
C511 H573 0.960 . S
C511 H574 0.960 . S
C511 H575 0.960 . S
C512 C513 1.309 . S
C512 C517 1.304 . S
C512 O550 1.435 . S
C513 C512 1.309 . S
C513 C514 1.476 . S
C513 H577 0.930 . S
C514 C513 1.476 . S
C514 C515 1.400 . S
C514 C518 1.567 . S
C515 C514 1.400 . S
C515 C516 1.373 . S
C515 C537 1.432 . S
C516 C515 1.373 . S
C516 C517 1.339 . S
C516 C519 1.530 . S
C517 C512 1.304 . S
C517 C516 1.339 . S
C517 H578 0.930 . S
C518 C514 1.567 . S
C518 H579 0.961 . S
C518 H580 0.960 . S
C518 H581 0.958 . S
C519 C516 1.530 . S
C519 H582 0.961 . S
C519 H583 0.960 . S
C519 H584 0.960 . S
C520 C521 1.530 . S
C520 H586 0.961 . S
C520 H587 0.961 . S
C520 H588 0.959 . S
C521 C520 1.530 . S
C521 O549 1.412 . S
C521 H585 0.980 . S
C522 C523 1.288 . S
C522 C527 1.377 . S
C522 O549 1.393 . S
C523 C522 1.288 . S
C523 C524 1.369 . S
C523 H589 0.932 . S
C524 C523 1.369 . S
C524 C525 1.398 . S
C524 C528 1.527 . S
C525 C524 1.398 . S
C525 C526 1.380 . S
C525 C539 1.497 . S
C526 C525 1.380 . S
C526 C527 1.383 . S
C526 C529 1.603 . S
C527 C522 1.377 . S
C527 C526 1.383 . S
C527 H590 0.929 . S
C528 C524 1.527 . S
C528 H591 0.961 . S
C528 H592 0.959 . S
C528 H593 0.959 . S
C529 C526 1.603 . S
C529 H594 0.960 . S
C529 H595 0.962 . S
C529 H596 0.961 . S
C530 C497 1.587 . S
C530 C531 1.360 . S
C530 C543 1.412 . S
C531 C530 1.360 . S
C531 C532 1.365 . S
C531 H597 0.929 . S
C532 C507 1.553 . S
C532 C531 1.365 . S
C532 C533 1.404 . S
C533 C532 1.404 . S
C533 C534 1.395 . S
C533 C544 1.451 . S
C534 C533 1.395 . S
C534 C535 1.322 . S
C534 H598 0.930 . S
C535 C534 1.322 . S
C535 C536 1.459 . S
C535 H599 0.929 . S
C536 C535 1.459 . S
C536 C537 1.445 . S
C536 C545 1.395 . S
C537 C515 1.432 . S
C537 C536 1.445 . S
C537 C538 1.370 . S
C538 C537 1.370 . S
C538 C539 1.438 . S
C538 H600 0.930 . S
C539 C525 1.497 . S
C539 C538 1.438 . S
C539 C540 1.360 . S
C540 C539 1.360 . S
C540 C541 1.401 . S
C540 C545 1.446 . S
C541 C540 1.401 . S
C541 C542 1.347 . S
C541 H601 0.929 . S
C542 C541 1.347 . S
C542 C543 1.455 . S
C542 H602 0.930 . S
C543 C530 1.412 . S
C543 C542 1.455 . S
C543 C544 1.331 . S
C544 C533 1.451 . S
C544 C543 1.331 . S
C544 C545 1.497 . S
C545 C536 1.395 . S
C545 C540 1.446 . S
C545 C544 1.497 . S
C546 C547 1.582 . S
C546 H603 0.962 . S
C546 H604 0.959 . S
C546 H605 0.958 . S
C547 C546 1.582 . S
C547 O550 1.458 . S
C547 H576 0.980 . S
O548 C493 1.426 . S
O548 C494 1.334 . S
O549 C521 1.412 . S
O549 C522 1.393 . S
O550 C512 1.435 . S
O550 C547 1.458 . S
O551 C503 1.468 . S
O551 C504 1.408 . S
H552 C493 0.980 . S
H553 C492 0.959 . S
H554 C492 0.959 . S
H555 C492 0.960 . S
H556 C495 0.929 . S
H557 C499 0.929 . S
H558 C500 0.959 . S
H559 C500 0.961 . S
H560 C500 0.961 . S
H561 C501 0.960 . S
H562 C501 0.960 . S
H563 C501 0.961 . S
H564 C503 0.980 . S
H565 C502 0.961 . S
H566 C502 0.960 . S
H567 C502 0.959 . S
H568 C505 0.930 . S
H569 C509 0.931 . S
H570 C510 0.959 . S
H571 C510 0.961 . S
H572 C510 0.959 . S
H573 C511 0.960 . S
H574 C511 0.960 . S
H575 C511 0.960 . S
H576 C547 0.980 . S
H577 C513 0.930 . S
H578 C517 0.930 . S
H579 C518 0.961 . S
H580 C518 0.960 . S
H581 C518 0.958 . S
H582 C519 0.961 . S
H583 C519 0.960 . S
H584 C519 0.960 . S
H585 C521 0.980 . S
H586 C520 0.961 . S
H587 C520 0.961 . S
H588 C520 0.959 . S
H589 C523 0.932 . S
H590 C527 0.929 . S
H591 C528 0.961 . S
H592 C528 0.959 . S
H593 C528 0.959 . S
H594 C529 0.960 . S
H595 C529 0.962 . S
H596 C529 0.961 . S
H597 C531 0.929 . S
H598 C534 0.930 . S
H599 C535 0.929 . S
H600 C538 0.930 . S
H601 C541 0.929 . S
H602 C542 0.930 . S
H603 C546 0.962 . S
H604 C546 0.959 . S
H605 C546 0.958 . S
C606 C607 1.387 1_455 S
C606 H610 0.950 . S
C606 C615 1.390 . S
C607 C606 1.387 1_655 S
C607 C609 1.387 . S
H608 C615 0.950 . S
C609 C607 1.387 . S
C609 C611 1.390 . S
C609 H613 0.950 . S
H610 C606 0.950 . S
C611 C609 1.390 . S
C611 C612 1.387 . S
C611 H614 0.950 . S
C612 C611 1.387 . S
C612 C615 1.387 1_655 S
H613 C609 0.950 . S
H614 C611 0.950 . S
C615 C606 1.390 . S
C615 H608 0.950 . S
C615 C612 1.387 1_455 S
C616 C617 1.387 . S
C616 H620 0.950 . S
C616 C625 1.390 . S
C617 C616 1.387 . S
C617 C619 1.387 1_565 S
H618 C625 0.950 . S
C619 C617 1.387 1_545 S
C619 C621 1.390 . S
C619 H623 0.950 . S
H620 C616 0.950 . S
C621 C619 1.390 . S
C621 C622 1.387 . S
C621 H624 0.950 . S
C622 C621 1.387 . S
C622 C625 1.387 1_545 S
H623 C619 0.950 . S
H624 C621 0.950 . S
C625 C616 1.390 . S
C625 H618 0.950 . S
C625 C622 1.387 1_565 S
C626 C627 1.387 . S
C626 H630 0.950 . S
C626 C635 1.390 . S
C627 C626 1.387 . S
C627 C629 1.387 . S
H628 C635 0.950 . S
C629 C627 1.387 . S
C629 C631 1.390 . S
C629 H633 0.950 . S
H630 C626 0.950 . S
C631 C629 1.390 . S
C631 C632 1.387 . S
C631 H634 0.950 . S
C632 C631 1.387 . S
C632 C635 1.387 . S
H633 C629 0.950 . S
H634 C631 0.950 . S
C635 C626 1.390 . S
C635 H628 0.950 . S
C635 C632 1.387 . S
C636 C637 1.387 . S
C636 H640 0.950 . S
C636 C645 1.390 . S
C637 C636 1.387 . S
C637 C639 1.387 . S
H638 C645 0.950 1_655 S
C639 C637 1.387 . S
C639 C641 1.390 . S
C639 H643 0.950 . S
H640 C636 0.950 . S
C641 C639 1.390 . S
C641 C642 1.387 . S
C641 H644 0.950 . S
C642 C641 1.387 . S
C642 C645 1.387 . S
H643 C639 0.950 . S
H644 C641 0.950 . S
C645 C636 1.390 . S
C645 H638 0.950 1_455 S
C645 C642 1.387 . S
C646 C647 1.387 . S
C646 H650 0.950 . S
C646 C655 1.390 . S
C647 C646 1.387 . S
C647 C649 1.387 . S
H648 C655 0.950 . S
C649 C647 1.387 . S
C649 C651 1.390 . S
C649 H653 0.950 . S
H650 C646 0.950 . S
C651 C649 1.390 . S
C651 C652 1.387 . S
C651 H654 0.950 . S
C652 C651 1.387 . S
C652 C655 1.387 . S
H653 C649 0.950 . S
H654 C651 0.950 . S
C655 C646 1.390 . S
C655 H648 0.950 . S
C655 C652 1.387 . S
C656 C657 1.387 . S
C656 H660 0.950 . S
C656 C665 1.390 . S
C657 C656 1.387 . S
C657 C659 1.387 . S
H658 C665 0.950 . S
C659 C657 1.387 . S
C659 C661 1.390 . S
C659 H663 0.950 . S
H660 C656 0.950 . S
C661 C659 1.390 . S
C661 C662 1.387 . S
C661 H664 0.950 . S
C662 C661 1.387 . S
C662 C665 1.387 . S
H663 C659 0.950 . S
H664 C661 0.950 . S
C665 C656 1.390 . S
C665 H658 0.950 . S
C665 C662 1.387 . S
C666 C667 1.387 . S
C666 H670 0.950 . S
C666 C675 1.390 . S
C667 C666 1.387 . S
C667 C669 1.387 . S
H668 C675 0.946 1_565 S
C669 C667 1.387 . S
C669 C671 1.390 . S
C669 H673 0.950 . S
H670 C666 0.950 . S
C671 C669 1.390 . S
C671 C672 1.387 . S
C671 H674 0.950 . S
C672 C671 1.387 . S
C672 C675 1.387 . S
H673 C669 0.950 . S
H674 C671 0.950 . S
C675 C666 1.390 . S
C675 H668 0.946 1_545 S
C675 C672 1.387 . S
C676 C677 1.387 . S
C676 H680 0.950 . S
C676 C685 1.390 . S
C677 C676 1.387 . S
C677 C679 1.387 . S
H678 C685 0.950 . S
C679 C677 1.387 . S
C679 C681 1.390 . S
C679 H683 0.950 . S
H680 C676 0.950 . S
C681 C679 1.390 . S
C681 C682 1.387 . S
C681 H684 0.950 . S
C682 C681 1.387 . S
C682 C685 1.387 . S
H683 C679 0.950 . S
H684 C681 0.950 . S
C685 C676 1.390 . S
C685 H678 0.950 . S
C685 C682 1.387 . S
C686 C687 1.387 . S
C686 H690 0.950 . S
C686 C695 1.390 1_655 S
C687 C686 1.387 . S
C687 C689 1.387 . S
H688 C695 0.950 . S
C689 C687 1.387 . S
C689 C691 1.390 . S
C689 H693 0.950 . S
H690 C686 0.950 . S
C691 C689 1.390 . S
C691 C692 1.387 1_655 S
C691 H694 0.950 . S
C692 C691 1.387 1_455 S
C692 C695 1.387 . S
H693 C689 0.950 . S
H694 C691 0.950 . S
C695 C686 1.390 1_455 S
C695 H688 0.950 . S
C695 C692 1.387 . S
C696 C697 1.387 . S
C696 H700 0.950 . S
C696 C705 1.390 . S
C697 C696 1.387 . S
C697 C699 1.387 1_565 S
H698 C705 0.950 . S
C699 C697 1.387 1_545 S
C699 C701 1.390 . S
C699 H703 0.950 . S
H700 C696 0.950 . S
C701 C699 1.390 . S
C701 C702 1.387 . S
C701 H704 0.950 . S
C702 C701 1.387 . S
C702 C705 1.387 1_545 S
H703 C699 0.950 . S
H704 C701 0.950 . S
C705 C696 1.390 . S
C705 H698 0.950 . S
C705 C702 1.387 1_565 S
C706 C707 1.387 . S
C706 H710 0.950 . S
C706 C715 1.390 . S
C707 C706 1.387 . S
C707 C709 1.387 . S
H708 C715 0.950 . S
C709 C707 1.387 . S
C709 C711 1.390 . S
C709 H713 0.950 . S
H710 C706 0.950 . S
C711 C709 1.390 . S
C711 C712 1.387 . S
C711 H714 0.950 . S
C712 C711 1.387 . S
C712 C715 1.387 . S
H713 C709 0.950 . S
H714 C711 0.950 . S
C715 C706 1.390 . S
C715 H708 0.950 . S
C715 C712 1.387 . S
C716 C717 1.387 . S
C716 H720 0.950 . S
C716 C725 1.390 . S
C717 C716 1.387 . S
C717 C719 1.387 . S
H718 C725 0.950 . S
C719 C717 1.387 . S
C719 C721 1.390 . S
C719 H723 0.941 1_455 S
H720 C716 0.950 . S
C721 C719 1.390 . S
C721 C722 1.387 . S
C721 H724 0.950 1_455 S
C722 C721 1.387 . S
C722 C725 1.387 . S
H723 C719 0.941 1_655 S
H724 C721 0.950 1_655 S
C725 C716 1.390 . S
C725 H718 0.950 . S
C725 C722 1.387 . S
C612 C319 1.307 1_655 S
C607 C29 1.546 . S
C617 C137 1.547 . S
C622 C433 1.306 . S
C627 C225 1.317 . S
C632 C493 0.985 . S
C637 C49 1.403 . S
C642 C293 1.241 . S
C652 C407 1.236 . S
C647 C117 1.401 . S
C657 C205 1.481 . S
C662 C503 0.753 . S
C672 C389 0.750 . S
C667 C233 1.478 . S
C677 C57 1.398 1_556 S
C682 C521 1.233 . S
C692 C265 0.980 1_455 S
C687 C108 1.308 . S
C702 C379 0.991 . S
C697 C196 1.321 . S
C712 C547 1.310 . S
C707 C20 1.549 1_556 S
C717 C145 1.489 . S
C722 C275 0.759 . S
