# Generated by pormake.
# Topology pts, (4,4)-cn, num edge types: 1
# Building blocks:
#     Node 0, Type 0, BuildingBlock: NAHDIM_clean_linker_0, # of connection points: 4
#     Node 1, Type 0, BuildingBlock: NAHDIM_clean_linker_0, # of connection points: 4
#     Node 2, Type 1, BuildingBlock: QUQFOY_clean_sbu_1, # of connection points: 4
#     Node 3, Type 1, BuildingBlock: QUQFOY_clean_sbu_1, # of connection points: 4
#     Edge 4, Type (0, 1), BuildingBlock: XIVTED_clean_linker_0, # of connection points: 2
#     Edge 5, Type (0, 1), BuildingBlock: XIVTED_clean_linker_0, # of connection points: 2
#     Edge 6, Type (0, 1), BuildingBlock: XIVTED_clean_linker_0, # of connection points: 2
#     Edge 7, Type (0, 1), BuildingBlock: XIVTED_clean_linker_0, # of connection points: 2
#     Edge 8, Type (0, 1), BuildingBlock: XIVTED_clean_linker_0, # of connection points: 2
#     Edge 9, Type (0, 1), BuildingBlock: XIVTED_clean_linker_0, # of connection points: 2
#     Edge 10, Type (0, 1), BuildingBlock: XIVTED_clean_linker_0, # of connection points: 2
#     Edge 11, Type (0, 1), BuildingBlock: XIVTED_clean_linker_0, # of connection points: 2
# Relax obj value: 0.113
# Max RMSD: 0.244
# Mean RMSD: 0.150
data_MOF--net-pts--node1-QUQFOY_clean_sbu_1--node2-NAHDIM_clean_linker_0--edge1-XIVTED_clean_linker_0
_symmetry_space_group_name_H-M    P1
_symmetry_Int_Tables_number       1
_symmetry_cell_setting            triclinic
loop_
_symmetry_equiv_pos_as_xyz
'x, y, z'
_cell_length_a     30.152794
_cell_length_b     33.487987
_cell_length_c     55.627103
_cell_angle_alpha  90.338937
_cell_angle_beta   89.239599
_cell_angle_gamma 90.003436
loop_
_atom_site_label
_atom_site_type_symbol
_atom_site_fract_x
_atom_site_fract_y
_atom_site_fract_z
_atom_type_partial_charge
C0 C 0.61906 0.1136 0.18446 0.0
C1 C 0.64015 0.08478 0.1662 0.0
C2 C 0.6219 0.08314 0.12367 0.0
C3 C 0.62845 0.04226 0.11921 0.0
C4 C 0.60889 0.02352 0.09934 0.0
C5 C 0.58185 0.04609 0.08384 0.0
C6 C 0.57651 0.08763 0.08789 0.0
C7 C 0.59743 0.10573 0.10754 0.0
C8 C 0.61624 0.97942 0.09527 0.0
C9 C 0.54738 0.11267 0.07206 0.0
C10 C 0.26722 0.87665 0.06785 0.0
C11 C 0.29158 0.91339 0.07746 0.0
C12 C 0.37193 0.92467 0.07728 0.0
C13 C 0.37073 0.96608 0.07333 0.0
C14 C 0.40928 0.98693 0.0666 0.0
C15 C 0.44986 0.96603 0.06402 0.0
C16 C 0.45155 0.92473 0.06908 0.0
C17 C 0.41249 0.90462 0.07575 0.0
C18 C 0.4066 0.03117 0.0618 0.0
C19 C 0.49444 0.90172 0.06691 0.0
C20 C 0.43805 0.94898 0.907 0.0
C21 C 0.43181 0.98779 0.91603 0.0
C22 C 0.4634 0.00546 0.93102 0.0
C23 C 0.5018 0.98366 0.93718 0.0
C24 C 0.50937 0.94546 0.9269 0.0
C25 C 0.47748 0.92876 0.91165 0.0
C26 C 0.455 0.04684 0.94095 0.0
C27 C 0.55024 0.92167 0.93281 0.0
C28 C 0.82359 0.14276 0.94835 0.0
C29 C 0.797 0.10782 0.9381 0.0
C30 C 0.71652 0.0982 0.94161 0.0
C31 C 0.67689 0.11893 0.94558 0.0
C32 C 0.63819 0.09901 0.95304 0.0
C33 C 0.63929 0.0572 0.95647 0.0
C34 C 0.67885 0.03576 0.95159 0.0
C35 C 0.71703 0.05643 0.94403 0.0
C36 C 0.59631 0.12267 0.9576 0.0
C37 C 0.68082 0.99105 0.9546 0.0
C38 C 0.55601 0.0257 0.06479 0.0
C39 C 0.51754 0.00541 0.07195 0.0
C40 C 0.49016 0.98703 0.05514 0.0
C41 C 0.50088 0.98925 0.03037 0.0
C42 C 0.47353 0.97173 0.01296 0.0
C43 C 0.48381 0.97472 0.98861 0.0
C44 C 0.52187 0.99536 0.98067 0.0
C45 C 0.53193 0.99943 0.95589 0.0
C46 C 0.57038 0.01955 0.94861 0.0
C47 C 0.59923 0.03599 0.96549 0.0
C48 C 0.58943 0.03269 0.99036 0.0
C49 C 0.61752 0.04914 0.00785 0.0
C50 C 0.60694 0.04656 0.03225 0.0
C51 C 0.56789 0.02745 0.04011 0.0
C52 C 0.53982 0.00961 0.02283 0.0
C53 C 0.55046 0.01246 0.99794 0.0
C54 C 0.34968 0.8864 0.9089 0.0
C55 C 0.36173 0.92888 0.90108 0.0
O56 O 0.63817 0.10151 0.1435 0.0
O57 O 0.75327 0.11957 0.93548 0.0
O58 O 0.4061 0.93013 0.89426 0.0
O59 O 0.33495 0.90299 0.08248 0.0
H60 H 0.6201 0.05683 0.167 0.0
H61 H 0.58379 0.11879 0.17987 0.0
H62 H 0.63657 0.14281 0.18439 0.0
H63 H 0.62021 0.10081 0.20283 0.0
H64 H 0.64865 0.02497 0.13129 0.0
H65 H 0.59309 0.13737 0.11104 0.0
H66 H 0.58538 0.96298 0.09997 0.0
H67 H 0.64356 0.96763 0.1064 0.0
H68 H 0.62403 0.97332 0.07603 0.0
H69 H 0.54345 0.14366 0.07899 0.0
H70 H 0.51403 0.09885 0.0706 0.0
H71 H 0.56205 0.11403 0.05369 0.0
H72 H 0.29064 0.93572 0.06272 0.0
H73 H 0.23209 0.88414 0.06408 0.0
H74 H 0.26814 0.85174 0.08093 0.0
H75 H 0.28329 0.86637 0.05083 0.0
H76 H 0.33986 0.98228 0.07543 0.0
H77 H 0.41324 0.87281 0.07921 0.0
H78 H 0.43027 0.04741 0.07345 0.0
H79 H 0.37276 0.0433 0.0651 0.0
H80 H 0.41636 0.03712 0.04284 0.0
H81 H 0.49059 0.87005 0.07241 0.0
H82 H 0.52008 0.91599 0.07825 0.0
H83 H 0.50667 0.9025 0.048 0.0
H84 H 0.35532 0.94803 0.91721 0.0
H85 H 0.40194 0.00401 0.91162 0.0
H86 H 0.48224 0.89907 0.90422 0.0
H87 H 0.44727 0.04491 0.96047 0.0
H88 H 0.42686 0.0618 0.93198 0.0
H89 H 0.48516 0.0656 0.9388 0.0
H90 H 0.55124 0.89238 0.92334 0.0
H91 H 0.55132 0.91643 0.95249 0.0
H92 H 0.58037 0.93891 0.92776 0.0
H93 H 0.79954 0.08355 0.95161 0.0
H94 H 0.85899 0.13424 0.95023 0.0
H95 H 0.81024 0.15096 0.96643 0.0
H96 H 0.82141 0.16939 0.93661 0.0
H97 H 0.67662 0.15105 0.94329 0.0
H98 H 0.747 0.03979 0.94002 0.0
H99 H 0.58661 0.12052 0.97687 0.0
H100 H 0.56878 0.10993 0.94692 0.0
H101 H 0.6003 0.15469 0.95293 0.0
H102 H 0.71431 0.97876 0.95048 0.0
H103 H 0.65649 0.97656 0.94255 0.0
H104 H 0.67149 0.98311 0.97336 0.0
H105 H 0.50855 0.00419 0.09089 0.0
H106 H 0.44365 0.95569 0.01795 0.0
H107 H 0.46138 0.96071 0.97608 0.0
H108 H 0.57781 0.02266 0.92958 0.0
H109 H 0.64787 0.06443 0.00285 0.0
H110 H 0.62963 0.0599 0.0449 0.0
H111 H 0.31368 0.88432 0.91324 0.0
H112 H 0.36847 0.8786 0.92526 0.0
H113 H 0.35825 0.86424 0.89466 0.0
C114 C 0.13913 0.3015 0.58844 0.0
C115 C 0.11399 0.32007 0.60991 0.0
C116 C 0.06812 0.37235 0.5915 0.0
C117 C 0.025 0.38281 0.58509 0.0
C118 C 0.01622 0.41874 0.57314 0.0
C119 C 0.0516 0.44491 0.56747 0.0
C120 C 0.09526 0.43495 0.57422 0.0
C121 C 0.10314 0.39882 0.58612 0.0
C122 C 0.96927 0.42849 0.56622 0.0
C123 C 0.13374 0.4623 0.56851 0.0
C124 C 0.92865 0.73199 0.59213 0.0
C125 C 0.95573 0.71496 0.61287 0.0
C126 C 0.00149 0.66256 0.59337 0.0
C127 C 0.04462 0.65236 0.5862 0.0
C128 C 0.05365 0.61627 0.57414 0.0
C129 C 0.01842 0.58984 0.56888 0.0
C130 C 0.97477 0.59947 0.57651 0.0
C131 C 0.96672 0.63561 0.58878 0.0
C132 C 0.10075 0.60672 0.5666 0.0
C133 C 0.93648 0.5719 0.57122 0.0
C134 C 0.0387 0.67138 0.4169 0.0
C135 C 0.07653 0.66026 0.42977 0.0
C136 C 0.07923 0.62266 0.44069 0.0
C137 C 0.04282 0.59604 0.43939 0.0
C138 C 0.00505 0.60682 0.42608 0.0
C139 C 0.00381 0.64417 0.41472 0.0
C140 C 0.1209 0.61167 0.45389 0.0
C141 C 0.96559 0.57931 0.42428 0.0
C142 C 0.12429 0.29178 0.42557 0.0
C143 C 0.08722 0.30564 0.40904 0.0
C144 C 0.08649 0.37807 0.41227 0.0
C145 C 0.11976 0.4063 0.41616 0.0
C146 C 0.11079 0.44177 0.4289 0.0
C147 C 0.06707 0.44959 0.43726 0.0
C148 C 0.03278 0.42195 0.43226 0.0
C149 C 0.04296 0.38628 0.41997 0.0
C150 C 0.14819 0.47051 0.43382 0.0
C151 C 0.98547 0.42994 0.44006 0.0
C152 C 0.04334 0.48193 0.55362 0.0
C153 C 0.03376 0.51714 0.56634 0.0
C154 C 0.02697 0.55318 0.55434 0.0
C155 C 0.02954 0.55426 0.52893 0.0
C156 C 0.02246 0.58989 0.51627 0.0
C157 C 0.02651 0.59099 0.49135 0.0
C158 C 0.03779 0.5565 0.47806 0.0
C159 C 0.04377 0.55772 0.45279 0.0
C160 C 0.05295 0.52248 0.44003 0.0
C161 C 0.05747 0.48598 0.45189 0.0
C162 C 0.05359 0.4846 0.47727 0.0
C163 C 0.06 0.44884 0.48991 0.0
C164 C 0.05639 0.44782 0.51487 0.0
C165 C 0.04636 0.48255 0.52821 0.0
C166 C 0.0396 0.51888 0.51585 0.0
C167 C 0.04347 0.51995 0.49036 0.0
C168 C 0.04159 0.75901 0.43628 0.0
C169 C 0.05729 0.74257 0.41184 0.0
O170 O 0.07424 0.33653 0.60252 0.0
O171 O 0.09704 0.34359 0.40061 0.0
O172 O 0.03431 0.70779 0.40638 0.0
O173 O 0.99521 0.6987 0.60428 0.0
H174 H 0.13508 0.34371 0.618 0.0
H175 H 0.1481 0.32476 0.57511 0.0
H176 H 0.11846 0.27869 0.5793 0.0
H177 H 0.17026 0.28726 0.59455 0.0
H178 H 0.99813 0.3624 0.58931 0.0
H179 H 0.1368 0.39154 0.59086 0.0
H180 H 0.95944 0.45778 0.57409 0.0
H181 H 0.94524 0.40544 0.57238 0.0
H182 H 0.96729 0.43108 0.54638 0.0
H183 H 0.16555 0.45103 0.5757 0.0
H184 H 0.12722 0.49247 0.57615 0.0
H185 H 0.13729 0.46552 0.54872 0.0
H186 H 0.93577 0.69147 0.62204 0.0
H187 H 0.89788 0.74633 0.59922 0.0
H188 H 0.91887 0.70791 0.57949 0.0
H189 H 0.94822 0.75443 0.58187 0.0
H190 H 0.0713 0.67309 0.58991 0.0
H191 H 0.93312 0.64264 0.59434 0.0
H192 H 0.10357 0.60708 0.54668 0.0
H193 H 0.1098 0.57628 0.57264 0.0
H194 H 0.12489 0.62846 0.57402 0.0
H195 H 0.90432 0.58384 0.57807 0.0
H196 H 0.94241 0.54237 0.57956 0.0
H197 H 0.93412 0.56706 0.55151 0.0
H198 H 0.09345 0.73636 0.41238 0.0
H199 H 0.10424 0.68051 0.43138 0.0
H200 H 0.97491 0.6528 0.40461 0.0
H201 H 0.11445 0.61342 0.47355 0.0
H202 H 0.14889 0.63204 0.44947 0.0
H203 H 0.13104 0.58057 0.44948 0.0
H204 H 0.93745 0.59336 0.4148 0.0
H205 H 0.95421 0.57036 0.44254 0.0
H206 H 0.9754 0.55172 0.41441 0.0
H207 H 0.05566 0.30596 0.41964 0.0
H208 H 0.11688 0.26154 0.4327 0.0
H209 H 0.12719 0.31268 0.44105 0.0
H210 H 0.15656 0.29096 0.41569 0.0
H211 H 0.15313 0.39986 0.40977 0.0
H212 H 0.01687 0.36506 0.41611 0.0
H213 H 0.14971 0.47714 0.45337 0.0
H214 H 0.14195 0.49909 0.42444 0.0
H215 H 0.18085 0.45864 0.42767 0.0
H216 H 0.96192 0.4083 0.43201 0.0
H217 H 0.97555 0.46064 0.43494 0.0
H218 H 0.9827 0.42784 0.45992 0.0
H219 H 0.03204 0.51656 0.58583 0.0
H220 H 0.01398 0.61746 0.5255 0.0
H221 H 0.02083 0.61932 0.48264 0.0
H222 H 0.05716 0.52354 0.42065 0.0
H223 H 0.06815 0.4212 0.48068 0.0
H224 H 0.06176 0.41943 0.52357 0.0
H225 H 0.00545 0.76549 0.43603 0.0
H226 H 0.05978 0.78685 0.44082 0.0
H227 H 0.04797 0.73694 0.45064 0.0
O228 O 0.95971 0.00609 0.23465 0.0
Cd229 Cd 0.0205 0.98731 0.24727 0.0
Cd230 Cd 0.04019 0.066 0.24072 0.0
O231 O 0.97726 0.06867 0.22685 0.0
O232 O 0.00859 0.93256 0.25966 0.0
O233 O 0.03277 0.98182 0.28265 0.0
C234 C 0.02098 0.9449 0.2805 0.0
C235 C 0.05614 0.10876 0.27264 0.0
C236 C 0.94932 0.04027 0.22662 0.0
C237 C 0.09672 0.00728 0.21361 0.0
O238 O 0.09012 0.04388 0.21867 0.0
O239 O 0.07241 0.98035 0.22297 0.0
O240 O 0.05702 0.12114 0.25071 0.0
O241 O 0.04703 0.07157 0.27643 0.0
O242 O 0.0028 0.06146 0.7856 0.0
Cd243 Cd 0.05881 0.05742 0.76406 0.0
Cd244 Cd 0.03795 0.97649 0.76496 0.0
O245 O 0.98795 0.99702 0.7877 0.0
O246 O 0.07332 0.11383 0.75596 0.0
O247 O 0.05582 0.06882 0.72848 0.0
C248 C 0.06696 0.10508 0.7337 0.0
C249 C 0.01947 0.92945 0.73548 0.0
C250 C 0.97929 0.03292 0.79368 0.0
C251 C 0.12668 1.00077 0.78428 0.0
O252 O 0.10068 0.97226 0.77903 0.0
O253 O 0.11597 0.03671 0.77994 0.0
O254 O 0.02067 0.92024 0.75791 0.0
O255 O 0.02852 0.96586 0.72962 0.0
H256 H 0.2824 0.87801 0.12189 0.0
H257 H 0.13928 0.0552 0.18086 0.0
H258 H 0.24887 0.9854 0.08379 0.0
H259 H 0.13281 0.93333 0.20553 0.0
H260 H 0.19179 0.03437 0.14924 0.0
H261 H 0.23972 0.90243 0.1568 0.0
C262 C 0.26624 0.90683 0.12096 0.0
C263 C 0.26865 0.92953 0.09985 0.0
C264 C 0.17904 0.0123 0.1617 0.0
C265 C 0.22035 0.95779 0.1397 0.0
C266 C 0.14925 0.02416 0.1798 0.0
C267 C 0.13136 0.99589 0.19575 0.0
C268 C 0.19149 0.97201 0.15973 0.0
C269 C 0.14545 0.95606 0.1935 0.0
C270 C 0.24192 0.92071 0.14083 0.0
C271 C 0.24755 0.96688 0.09966 0.0
N272 N 0.17464 0.94529 0.1758 0.0
N273 N 0.22419 0.97983 0.11927 0.0
H274 H 0.14876 0.31467 0.65521 0.0
H275 H 0.04443 0.10123 0.68594 0.0
H276 H 0.05916 0.2539 0.60752 0.0
H277 H 0.10225 0.1795 0.73889 0.0
H278 H 0.05414 0.1538 0.65571 0.0
H279 H 0.13651 0.26251 0.68506 0.0
C280 C 0.12631 0.2904 0.65108 0.0
C281 C 0.10487 0.28868 0.62886 0.0
C282 C 0.06457 0.1594 0.67398 0.0
C283 C 0.09109 0.22844 0.66287 0.0
C284 C 0.0592 0.12939 0.6912 0.0
C285 C 0.07254 0.13598 0.71497 0.0
C286 C 0.08389 0.19599 0.68057 0.0
C287 C 0.09137 0.17308 0.72081 0.0
C288 C 0.11934 0.2606 0.66811 0.0
C289 C 0.07633 0.25634 0.62443 0.0
N290 N 0.09664 0.20154 0.70373 0.0
N291 N 0.07044 0.22736 0.64123 0.0
H292 H 0.67406 0.01692 0.18641 0.0
H293 H 0.91668 0.1079 0.20559 0.0
H294 H 0.71349 0.13363 0.16178 0.0
H295 H 0.87985 0.98753 0.22488 0.0
H296 H 0.84271 0.11788 0.18928 0.0
H297 H 0.74969 0.00526 0.20011 0.0
C298 C 0.69886 0.03991 0.18367 0.0
C299 C 0.68769 0.07614 0.17279 0.0
C300 C 0.85084 0.08925 0.19704 0.0
C301 C 0.77412 0.06338 0.18875 0.0
C302 C 0.89308 0.08355 0.20642 0.0
C303 C 0.90456 0.04683 0.2167 0.0
C304 C 0.81971 0.05808 0.19799 0.0
C305 C 0.87254 0.01637 0.21717 0.0
C306 C 0.74197 0.03332 0.19154 0.0
C307 C 0.72091 0.10516 0.16992 0.0
N308 N 0.8316 0.02271 0.20801 0.0
N309 N 0.76259 0.09821 0.17794 0.0
H310 H 0.00878 0.78157 0.60707 0.0
H311 H 0.9838 0.85575 0.74317 0.0
H312 H 0.92582 0.72255 0.65968 0.0
H313 H 0.03073 0.93288 0.6864 0.0
H314 H 0.96819 0.80411 0.71334 0.0
H315 H 0.02325 0.83483 0.63641 0.0
C316 C 0.99364 0.77987 0.6248 0.0
C317 C 0.96599 0.74762 0.63094 0.0
C318 C 0.98174 0.83236 0.70737 0.0
C319 C 0.98268 0.80815 0.6646 0.0
C320 C 0.99077 0.86187 0.7244 0.0
C321 C 0.00861 0.89872 0.71726 0.0
C322 C 0.9911 0.83944 0.68298 0.0
C323 C 0.01685 0.90495 0.69267 0.0
C324 C 0.00182 0.81026 0.64149 0.0
C325 C 0.94737 0.74678 0.6542 0.0
N326 N 0.00829 0.87549 0.6764 0.0
N327 N 0.95619 0.77648 0.67018 0.0
H328 H 0.31265 0.99772 0.89872 0.0
H329 H 0.17036 0.92937 0.78786 0.0
H330 H 0.34672 0.89312 0.85676 0.0
H331 H 0.17655 0.05252 0.81093 0.0
H332 H 0.23354 0.91437 0.81346 0.0
H333 H 0.26135 0.01794 0.86734 0.0
C334 C 0.30937 0.97904 0.88288 0.0
C335 C 0.33296 0.94305 0.88071 0.0
C336 C 0.22141 0.94477 0.81266 0.0
C337 C 0.2743 0.96594 0.84478 0.0
C338 C 0.18529 0.95333 0.79811 0.0
C339 C 0.16797 0.99221 0.79737 0.0
C340 C 0.23977 0.97511 0.82693 0.0
C341 C 0.18879 0.02213 0.81096 0.0
C342 C 0.28024 0.99067 0.86495 0.0
C343 C 0.32819 0.92045 0.85953 0.0
N344 N 0.22317 0.01283 0.82546 0.0
N345 N 0.2988 0.93191 0.84256 0.0
H346 H 0.03837 0.23683 0.40793 0.0
H347 H 0.09048 0.1842 0.27037 0.0
H348 H 0.12702 0.30685 0.36365 0.0
H349 H 0.03869 0.09774 0.32066 0.0
H350 H 0.09908 0.23183 0.30346 0.0
H351 H 0.03261 0.1878 0.37524 0.0
C352 C 0.0562 0.24205 0.39121 0.0
C353 C 0.08227 0.27646 0.38831 0.0
C354 C 0.08607 0.20237 0.30727 0.0
C355 C 0.07632 0.22034 0.35095 0.0
C356 C 0.08107 0.17517 0.2884 0.0
C357 C 0.06381 0.13692 0.29276 0.0
C358 C 0.07312 0.19151 0.33067 0.0
C359 C 0.05225 0.12686 0.31649 0.0
C360 C 0.05316 0.21398 0.37265 0.0
C361 C 0.10566 0.28129 0.36649 0.0
N362 N 0.05679 0.1541 0.33454 0.0
N363 N 0.10183 0.25372 0.34859 0.0
H364 H 0.80053 0.14894 0.89529 0.0
H365 H 0.93787 0.98026 0.82409 0.0
H366 H 0.83719 0.03633 0.92655 0.0
H367 H 0.94111 0.105 0.80497 0.0
H368 H 0.8869 0.99638 0.85735 0.0
H369 H 0.83837 0.12902 0.8578 0.0
C370 C 0.81628 0.11991 0.89416 0.0
C371 C 0.8163 0.09443 0.91411 0.0
C372 C 0.89848 0.02011 0.84571 0.0
C373 C 0.85906 0.07133 0.87133 0.0
C374 C 0.92737 0.01094 0.82664 0.0
C375 C 0.94413 0.0414 0.81184 0.0
C376 C 0.88583 0.05993 0.84984 0.0
C377 C 0.92937 0.08063 0.81606 0.0
C378 C 0.83783 0.10859 0.87282 0.0
C379 C 0.83673 0.05696 0.91165 0.0
N380 N 0.9012 0.08879 0.83472 0.0
N381 N 0.85744 0.04657 0.89067 0.0
H382 H 0.10972 0.80686 0.40129 0.0
H383 H 0.97982 0.87269 0.28467 0.0
H384 H 0.988 0.75035 0.37943 0.0
H385 H 0.06646 0.95312 0.32264 0.0
H386 H 0.9865 0.82468 0.31735 0.0
H387 H 0.09879 0.85813 0.37066 0.0
C388 C 0.08088 0.80513 0.38991 0.0
C389 C 0.05036 0.77374 0.39256 0.0
C390 C 0.00379 0.85294 0.31861 0.0
C391 C 0.03751 0.83231 0.35761 0.0
C392 C 0.00012 0.88032 0.29995 0.0
C393 C 0.02271 0.91693 0.30093 0.0
C394 C 0.03089 0.86187 0.33824 0.0
C395 C 0.04841 0.92529 0.3212 0.0
C396 C 0.07453 0.83447 0.37258 0.0
C397 C 0.01299 0.77339 0.37771 0.0
N398 N 0.05219 0.89777 0.33896 0.0
N399 N 0.0079 0.80197 0.3607 0.0
loop_
_geom_bond_atom_site_label_1
_geom_bond_atom_site_label_2
_geom_bond_distance
_geom_bond_site_symmetry_2
_ccdc_geom_bond_type
C0 C1 1.560 . S
C0 H61 0.959 . S
C0 H62 0.959 . S
C0 H63 0.960 . S
C1 C0 1.560 . S
C1 O56 1.426 . S
C1 H60 0.980 . S
C2 C3 1.407 1_545 S
C2 C7 1.418 . S
C2 O56 1.334 . S
C3 C2 1.407 1_565 S
C3 C4 1.360 . S
C3 H64 0.929 . S
C4 C3 1.360 . S
C4 C5 1.401 1_565 S
C4 C8 1.527 . S
C5 C4 1.401 1_545 S
C5 C6 1.405 . S
C5 C38 1.587 1_545 S
C6 C5 1.405 . S
C6 C7 1.332 . S
C6 C9 1.496 . S
C7 C2 1.418 . S
C7 C6 1.332 . S
C7 H65 0.929 . S
C8 C4 1.527 . S
C8 H66 0.959 . S
C8 H67 0.961 . S
C8 H68 0.961 . S
C9 C6 1.496 . S
C9 H69 0.960 . S
C9 H70 0.960 . S
C9 H71 0.961 . S
C10 C11 1.517 . S
C10 H73 0.961 1_565 S
C10 H74 0.960 . S
C10 H75 0.959 . S
C11 C10 1.517 . S
C11 O59 1.468 . S
C11 H72 0.980 1_565 S
C12 C13 1.349 1_565 S
C12 C17 1.367 . S
C12 O59 1.408 . S
C13 C12 1.349 1_545 S
C13 C14 1.407 . S
C13 H76 0.930 . S
C14 C13 1.407 . S
C14 C15 1.449 1_545 S
C14 C18 1.535 . S
C15 C14 1.449 1_565 S
C15 C16 1.384 . S
C15 C40 1.553 . S
C16 C15 1.384 . S
C16 C17 1.364 . S
C16 C19 1.450 . S
C17 C12 1.367 . S
C17 C16 1.364 . S
C17 H77 0.931 . S
C18 C14 1.535 . S
C18 H78 0.959 . S
C18 H79 0.961 . S
C18 H80 0.959 . S
C19 C16 1.450 . S
C19 H81 0.960 . S
C19 H82 0.960 . S
C19 H83 0.960 . S
C20 C21 1.309 1_565 S
C20 C25 1.304 . S
C20 O58 1.435 . S
C21 C20 1.309 1_545 S
C21 C22 1.476 . S
C21 H85 0.930 . S
C22 C21 1.476 . S
C22 C23 1.400 1_545 S
C22 C26 1.567 . S
C23 C22 1.400 1_565 S
C23 C24 1.373 . S
C23 C45 1.432 . S
C24 C23 1.373 . S
C24 C25 1.339 . S
C24 C27 1.530 . S
C25 C20 1.304 . S
C25 C24 1.339 . S
C25 H86 0.930 . S
C26 C22 1.567 . S
C26 H87 0.961 . S
C26 H88 0.960 . S
C26 H89 0.958 . S
C27 C24 1.530 . S
C27 H90 0.961 . S
C27 H91 0.960 . S
C27 H92 0.960 . S
C28 C29 1.530 . S
C28 H94 0.961 . S
C28 H95 0.961 . S
C28 H96 0.959 . S
C29 C28 1.530 . S
C29 O57 1.412 . S
C29 H93 0.980 . S
C30 C31 1.288 . S
C30 C35 1.377 1_545 S
C30 O57 1.393 . S
C31 C30 1.288 . S
C31 C32 1.369 . S
C31 H97 0.932 . S
C32 C31 1.369 . S
C32 C33 1.398 . S
C32 C36 1.527 . S
C33 C32 1.398 . S
C33 C34 1.380 1_545 S
C33 C47 1.497 . S
C34 C33 1.380 1_565 S
C34 C35 1.383 . S
C34 C37 1.603 . S
C35 C30 1.377 1_565 S
C35 C34 1.383 . S
C35 H98 0.929 . S
C36 C32 1.527 . S
C36 H99 0.961 . S
C36 H100 0.959 . S
C36 H101 0.959 . S
C37 C34 1.603 . S
C37 H102 0.960 . S
C37 H103 0.962 . S
C37 H104 0.961 . S
C38 C5 1.587 1_565 S
C38 C39 1.360 . S
C38 C51 1.412 . S
C39 C38 1.360 . S
C39 C40 1.365 . S
C39 H105 0.929 . S
C40 C15 1.553 . S
C40 C39 1.365 . S
C40 C41 1.404 . S
C41 C40 1.404 . S
C41 C42 1.395 . S
C41 C52 1.451 . S
C42 C41 1.395 . S
C42 C43 1.334 . S
C42 H106 0.930 . S
C43 C42 1.334 . S
C43 C44 1.452 1_554 S
C43 H107 0.924 1_554 S
C44 C43 1.452 1_556 S
C44 C45 1.445 . S
C44 C53 1.395 . S
C45 C23 1.432 . S
C45 C44 1.445 . S
C45 C46 1.370 . S
C46 C45 1.370 . S
C46 C47 1.438 1_565 S
C46 H108 0.932 . S
C47 C33 1.497 . S
C47 C46 1.438 1_545 S
C47 C48 1.358 1_545 S
C48 C47 1.358 1_565 S
C48 C49 1.399 1_565 S
C48 C53 1.449 . S
C49 C48 1.399 1_545 S
C49 C50 1.347 1_556 S
C49 H109 0.929 . S
C50 C49 1.347 1_554 S
C50 C51 1.455 1_545 S
C50 H110 0.930 . S
C51 C38 1.412 . S
C51 C50 1.455 1_565 S
C51 C52 1.331 . S
C52 C41 1.451 . S
C52 C51 1.331 . S
C52 C53 1.497 1_554 S
C53 C44 1.395 . S
C53 C48 1.449 . S
C53 C52 1.497 1_556 S
C54 C55 1.582 1_565 S
C54 H111 0.962 . S
C54 H112 0.959 . S
C54 H113 0.958 . S
C55 C54 1.582 1_545 S
C55 O58 1.458 1_545 S
C55 H84 0.980 . S
O56 C1 1.426 . S
O56 C2 1.334 . S
O57 C29 1.412 . S
O57 C30 1.393 . S
O58 C20 1.435 . S
O58 C55 1.458 1_565 S
O59 C11 1.468 . S
O59 C12 1.408 . S
H60 C1 0.980 . S
H61 C0 0.959 . S
H62 C0 0.959 . S
H63 C0 0.960 . S
H64 C3 0.929 . S
H65 C7 0.929 . S
H66 C8 0.959 . S
H67 C8 0.961 . S
H68 C8 0.961 . S
H69 C9 0.960 . S
H70 C9 0.960 . S
H71 C9 0.961 . S
H72 C11 0.980 1_545 S
H73 C10 0.961 1_545 S
H74 C10 0.960 . S
H75 C10 0.959 . S
H76 C13 0.930 . S
H77 C17 0.931 . S
H78 C18 0.959 . S
H79 C18 0.961 . S
H80 C18 0.959 . S
H81 C19 0.960 . S
H82 C19 0.960 . S
H83 C19 0.960 . S
H84 C55 0.980 . S
H85 C21 0.930 . S
H86 C25 0.930 . S
H87 C26 0.961 . S
H88 C26 0.960 . S
H89 C26 0.958 . S
H90 C27 0.961 . S
H91 C27 0.960 . S
H92 C27 0.960 . S
H93 C29 0.980 . S
H94 C28 0.961 . S
H95 C28 0.961 . S
H96 C28 0.959 . S
H97 C31 0.932 . S
H98 C35 0.929 . S
H99 C36 0.961 . S
H100 C36 0.959 . S
H101 C36 0.959 . S
H102 C37 0.960 . S
H103 C37 0.962 . S
H104 C37 0.961 . S
H105 C39 0.929 . S
H106 C42 0.930 . S
H107 C43 0.924 1_556 S
H108 C46 0.932 . S
H109 C49 0.929 . S
H110 C50 0.930 . S
H111 C54 0.962 . S
H112 C54 0.959 . S
H113 C54 0.958 . S
C114 C115 1.560 . S
C114 H175 0.959 . S
C114 H176 0.959 . S
C114 H177 0.960 . S
C115 C114 1.560 . S
C115 O170 1.426 . S
C115 H174 0.980 . S
C116 C117 1.407 . S
C116 C121 1.418 . S
C116 O170 1.334 . S
C117 C116 1.407 . S
C117 C118 1.360 . S
C117 H178 0.929 . S
C118 C117 1.360 . S
C118 C119 1.401 . S
C118 C122 1.527 1_455 S
C119 C118 1.401 . S
C119 C120 1.405 . S
C119 C152 1.587 . S
C120 C119 1.405 . S
C120 C121 1.332 . S
C120 C123 1.496 . S
C121 C116 1.418 . S
C121 C120 1.332 . S
C121 H179 0.929 . S
C122 C118 1.527 1_655 S
C122 H180 0.959 . S
C122 H181 0.961 . S
C122 H182 0.961 . S
C123 C120 1.496 . S
C123 H183 0.960 . S
C123 H184 0.960 . S
C123 H185 0.961 . S
C124 C125 1.517 . S
C124 H187 0.961 . S
C124 H188 0.960 1_455 S
C124 H189 0.959 . S
C125 C124 1.517 . S
C125 O173 1.468 1_455 S
C125 H186 0.980 . S
C126 C127 1.349 1_655 S
C126 C131 1.367 . S
C126 O173 1.408 . S
C127 C126 1.349 1_455 S
C127 C128 1.407 . S
C127 H190 0.930 . S
C128 C127 1.407 . S
C128 C129 1.449 . S
C128 C132 1.535 . S
C129 C128 1.449 . S
C129 C130 1.384 1_455 S
C129 C154 1.553 . S
C130 C129 1.384 1_655 S
C130 C131 1.364 . S
C130 C133 1.450 . S
C131 C126 1.367 . S
C131 C130 1.364 . S
C131 H191 0.931 . S
C132 C128 1.535 . S
C132 H192 0.959 . S
C132 H193 0.961 . S
C132 H194 0.959 . S
C133 C130 1.450 . S
C133 H195 0.960 . S
C133 H196 0.960 . S
C133 H197 0.960 . S
C134 C135 1.309 . S
C134 C139 1.304 1_455 S
C134 O172 1.439 . S
C135 C134 1.309 . S
C135 C136 1.476 . S
C135 H199 0.930 . S
C136 C135 1.476 . S
C136 C137 1.400 . S
C136 C140 1.567 . S
C137 C136 1.400 . S
C137 C138 1.373 1_455 S
C137 C159 1.432 . S
C138 C137 1.373 1_655 S
C138 C139 1.339 . S
C138 C141 1.530 . S
C139 C134 1.304 1_655 S
C139 C138 1.339 . S
C139 H200 0.930 . S
C140 C136 1.567 . S
C140 H201 0.961 . S
C140 H202 0.960 . S
C140 H203 0.958 . S
C141 C138 1.530 . S
C141 H204 0.961 . S
C141 H205 0.960 . S
C141 H206 0.960 . S
C142 C143 1.530 . S
C142 H208 0.961 . S
C142 H209 0.961 . S
C142 H210 0.959 . S
C143 C142 1.530 . S
C143 O171 1.412 . S
C143 H207 0.980 . S
C144 C145 1.288 . S
C144 C149 1.377 . S
C144 O171 1.393 . S
C145 C144 1.288 . S
C145 C146 1.369 . S
C145 H211 0.932 . S
C146 C145 1.369 . S
C146 C147 1.398 . S
C146 C150 1.527 . S
C147 C146 1.398 . S
C147 C148 1.380 . S
C147 C161 1.497 . S
C148 C147 1.380 . S
C148 C149 1.383 . S
C148 C151 1.603 1_455 S
C149 C144 1.377 . S
C149 C148 1.383 . S
C149 H212 0.929 . S
C150 C146 1.527 . S
C150 H213 0.961 . S
C150 H214 0.959 . S
C150 H215 0.959 . S
C151 C148 1.603 1_655 S
C151 H216 0.960 . S
C151 H217 0.962 . S
C151 H218 0.961 . S
C152 C119 1.587 . S
C152 C153 1.360 . S
C152 C165 1.412 . S
C153 C152 1.360 . S
C153 C154 1.365 . S
C153 H219 0.929 . S
C154 C129 1.553 . S
C154 C153 1.365 . S
C154 C155 1.404 . S
C155 C154 1.404 . S
C155 C156 1.395 . S
C155 C166 1.451 . S
C156 C155 1.395 . S
C156 C157 1.322 . S
C156 H220 0.930 . S
C157 C156 1.322 . S
C157 C158 1.459 . S
C157 H221 0.929 . S
C158 C157 1.459 . S
C158 C159 1.445 . S
C158 C167 1.395 . S
C159 C137 1.432 . S
C159 C158 1.445 . S
C159 C160 1.370 . S
C160 C159 1.370 . S
C160 C161 1.438 . S
C160 H222 0.930 . S
C161 C147 1.497 . S
C161 C160 1.438 . S
C161 C162 1.360 . S
C162 C161 1.360 . S
C162 C163 1.401 . S
C162 C167 1.446 . S
C163 C162 1.401 . S
C163 C164 1.347 . S
C163 H223 0.929 . S
C164 C163 1.347 . S
C164 C165 1.455 . S
C164 H224 0.930 . S
C165 C152 1.412 . S
C165 C164 1.455 . S
C165 C166 1.331 . S
C166 C155 1.451 . S
C166 C165 1.331 . S
C166 C167 1.497 . S
C167 C158 1.395 . S
C167 C162 1.446 . S
C167 C166 1.497 . S
C168 C169 1.582 . S
C168 H225 0.962 . S
C168 H226 0.959 . S
C168 H227 0.958 1_455 S
C169 C168 1.582 . S
C169 O172 1.476 . S
C169 H198 0.980 . S
O170 C115 1.426 . S
O170 C116 1.334 . S
O171 C143 1.412 . S
O171 C144 1.393 . S
O172 C134 1.439 . S
O172 C169 1.476 . S
O173 C125 1.468 1_655 S
O173 C126 1.408 . S
H174 C115 0.980 . S
H175 C114 0.959 . S
H176 C114 0.959 . S
H177 C114 0.960 . S
H178 C117 0.929 . S
H179 C121 0.929 . S
H180 C122 0.959 . S
H181 C122 0.961 . S
H182 C122 0.961 . S
H183 C123 0.960 . S
H184 C123 0.960 . S
H185 C123 0.961 . S
H186 C125 0.980 . S
H187 C124 0.961 . S
H188 C124 0.960 1_655 S
H189 C124 0.959 . S
H190 C127 0.930 . S
H191 C131 0.931 . S
H192 C132 0.959 . S
H193 C132 0.961 . S
H194 C132 0.959 . S
H195 C133 0.960 . S
H196 C133 0.960 . S
H197 C133 0.960 . S
H198 C169 0.980 . S
H199 C135 0.930 . S
H200 C139 0.930 . S
H201 C140 0.961 . S
H202 C140 0.960 . S
H203 C140 0.958 . S
H204 C141 0.961 . S
H205 C141 0.960 . S
H206 C141 0.960 . S
H207 C143 0.980 . S
H208 C142 0.961 . S
H209 C142 0.961 . S
H210 C142 0.959 . S
H211 C145 0.932 . S
H212 C149 0.929 . S
H213 C150 0.961 . S
H214 C150 0.959 . S
H215 C150 0.959 . S
H216 C151 0.960 . S
H217 C151 0.962 . S
H218 C151 0.961 . S
H219 C153 0.929 . S
H220 C156 0.930 . S
H221 C157 0.929 . S
H222 C160 0.930 . S
H223 C163 0.929 . S
H224 C164 0.930 . S
H225 C168 0.962 . S
H226 C168 0.959 . S
H227 C168 0.958 1_655 S
O228 Cd229 2.223 . S
O228 C236 1.315 1_455 S
Cd229 O228 2.223 . S
Cd229 O232 2.297 . S
Cd229 O233 2.439 . S
Cd229 O239 2.240 1_565 S
Cd230 O231 2.240 1_455 S
Cd230 O238 2.223 . S
Cd230 O240 2.297 . S
Cd230 O241 2.439 . S
O231 Cd230 2.240 1_655 S
O231 C236 1.279 1_545 S
O232 Cd229 2.297 . S
O232 C234 1.247 . S
O233 Cd229 2.439 . S
O233 C234 1.208 . S
C234 O232 1.247 . S
C234 O233 1.208 . S
C235 O240 1.247 . S
C235 O241 1.208 . S
C236 O228 1.315 1_655 S
C236 O231 1.279 1_565 S
C237 O238 1.315 . S
C237 O239 1.279 . S
O238 Cd230 2.223 . S
O238 C237 1.315 . S
O239 Cd229 2.240 1_545 S
O239 C237 1.279 . S
O240 Cd230 2.297 . S
O240 C235 1.247 . S
O241 Cd230 2.439 . S
O241 C235 1.208 . S
O242 Cd243 2.223 . S
O242 C250 1.315 1_455 S
Cd243 O242 2.223 . S
Cd243 O246 2.297 . S
Cd243 O247 2.439 . S
Cd243 O253 2.240 . S
Cd244 O245 2.240 1_465 S
Cd244 O252 2.223 . S
Cd244 O254 2.297 . S
Cd244 O255 2.439 . S
O245 Cd244 2.240 1_645 S
O245 C250 1.279 . S
O246 Cd243 2.297 . S
O246 C248 1.247 . S
O247 Cd243 2.439 . S
O247 C248 1.208 . S
C248 O246 1.247 . S
C248 O247 1.208 . S
C249 O254 1.247 . S
C249 O255 1.208 . S
C250 O242 1.315 1_655 S
C250 O245 1.279 . S
C251 O252 1.315 . S
C251 O253 1.279 1_565 S
O252 Cd244 2.223 . S
O252 C251 1.315 . S
O253 Cd243 2.240 . S
O253 C251 1.279 1_545 S
O254 Cd244 2.297 . S
O254 C249 1.247 . S
O255 Cd244 2.439 . S
O255 C249 1.208 . S
H256 C262 0.930 . S
H257 C266 0.930 . S
H258 C271 0.929 . S
H259 C269 0.929 1_565 S
H260 C264 0.929 . S
H261 C270 0.929 . S
C262 H256 0.930 . S
C262 C263 1.367 1_565 S
C262 C270 1.378 . S
C263 C262 1.367 1_545 S
C263 C271 1.433 . S
C264 H260 0.929 . S
C264 C266 1.378 . S
C264 C268 1.350 . S
C265 C268 1.463 . S
C265 C270 1.350 1_545 S
C265 N273 1.427 . S
C266 H257 0.930 . S
C266 C264 1.378 . S
C266 C267 1.367 . S
C267 C266 1.367 . S
C267 C269 1.433 . S
C268 C264 1.350 . S
C268 C265 1.463 . S
C268 N272 1.427 . S
C269 H259 0.929 1_545 S
C269 C267 1.433 . S
C269 N272 1.384 . S
C270 H261 0.929 . S
C270 C262 1.378 . S
C270 C265 1.350 1_565 S
C271 H258 0.929 . S
C271 C263 1.433 . S
C271 N273 1.384 . S
N272 C268 1.427 . S
N272 C269 1.384 . S
N273 C265 1.427 . S
N273 C271 1.384 . S
H274 C280 0.930 . S
H275 C284 0.938 . S
H276 C289 0.929 . S
H277 C287 0.929 . S
H278 C282 0.929 . S
H279 C288 0.929 . S
C280 H274 0.930 . S
C280 C281 1.367 . S
C280 C288 1.378 . S
C281 C280 1.367 . S
C281 C289 1.433 . S
C282 H278 0.929 . S
C282 C284 1.378 . S
C282 C286 1.350 . S
C283 C286 1.463 . S
C283 C288 1.350 . S
C283 N291 1.427 . S
C284 H275 0.938 . S
C284 C282 1.378 . S
C284 C285 1.367 . S
C285 C284 1.367 . S
C285 C287 1.433 . S
C286 C282 1.350 . S
C286 C283 1.463 . S
C286 N290 1.427 . S
C287 H277 0.929 . S
C287 C285 1.433 . S
C287 N290 1.384 . S
C288 H279 0.929 . S
C288 C280 1.378 . S
C288 C283 1.350 . S
C289 H276 0.929 . S
C289 C281 1.433 . S
C289 N291 1.384 . S
N290 C286 1.427 . S
N290 C287 1.384 . S
N291 C283 1.427 . S
N291 C289 1.384 . S
H292 C298 0.930 . S
H293 C302 0.930 . S
H294 C307 0.929 . S
H295 C305 0.929 . S
H296 C300 0.929 . S
H297 C306 0.929 . S
C298 H292 0.930 . S
C298 C299 1.367 1_565 S
C298 C306 1.378 . S
C299 C298 1.367 1_545 S
C299 C307 1.433 . S
C300 H296 0.929 . S
C300 C302 1.378 . S
C300 C304 1.350 . S
C301 C304 1.463 . S
C301 C306 1.350 1_545 S
C301 N309 1.427 . S
C302 H293 0.930 . S
C302 C300 1.378 . S
C302 C303 1.367 . S
C303 C302 1.367 . S
C303 C305 1.433 1_545 S
C304 C300 1.350 . S
C304 C301 1.463 . S
C304 N308 1.427 1_545 S
C305 H295 0.929 . S
C305 C303 1.433 1_565 S
C305 N308 1.384 . S
C306 H297 0.929 . S
C306 C298 1.378 . S
C306 C301 1.350 1_565 S
C307 H294 0.929 . S
C307 C299 1.433 . S
C307 N309 1.384 . S
N308 C304 1.427 1_565 S
N308 C305 1.384 . S
N309 C301 1.427 . S
N309 C307 1.384 . S
H310 C316 0.930 1_655 S
H311 C320 0.930 . S
H312 C325 0.929 . S
H313 C323 0.929 . S
H314 C318 0.929 . S
H315 C324 0.929 1_655 S
C316 H310 0.930 1_455 S
C316 C317 1.367 . S
C316 C324 1.378 . S
C317 C316 1.367 . S
C317 C325 1.433 . S
C318 H314 0.929 . S
C318 C320 1.378 . S
C318 C322 1.350 . S
C319 C322 1.463 . S
C319 C324 1.350 . S
C319 N327 1.427 . S
C320 H311 0.930 . S
C320 C318 1.378 . S
C320 C321 1.367 . S
C321 C320 1.367 . S
C321 C323 1.433 . S
C322 C318 1.350 . S
C322 C319 1.463 . S
C322 N326 1.427 . S
C323 H313 0.929 . S
C323 C321 1.433 . S
C323 N326 1.384 . S
C324 H315 0.929 1_455 S
C324 C316 1.378 . S
C324 C319 1.350 . S
C325 H312 0.929 . S
C325 C317 1.433 . S
C325 N327 1.384 . S
N326 C322 1.427 . S
N326 C323 1.384 . S
N327 C319 1.427 . S
N327 C325 1.384 . S
H328 C334 0.930 . S
H329 C338 0.930 . S
H330 C343 0.929 . S
H331 C341 0.929 . S
H332 C336 0.929 . S
H333 C342 0.929 . S
C334 H328 0.930 . S
C334 C335 1.367 . S
C334 C342 1.378 . S
C335 C334 1.367 . S
C335 C343 1.433 1_545 S
C336 H332 0.929 . S
C336 C338 1.378 . S
C336 C340 1.350 1_565 S
C337 C340 1.463 . S
C337 C342 1.350 . S
C337 N345 1.427 1_545 S
C338 H329 0.930 . S
C338 C336 1.378 . S
C338 C339 1.367 . S
C339 C338 1.367 . S
C339 C341 1.433 1_565 S
C340 C336 1.350 1_545 S
C340 C337 1.463 . S
C340 N344 1.427 . S
C341 H331 0.929 . S
C341 C339 1.433 1_545 S
C341 N344 1.384 . S
C342 H333 0.929 . S
C342 C334 1.378 . S
C342 C337 1.350 . S
C343 H330 0.929 . S
C343 C335 1.433 1_565 S
C343 N345 1.384 . S
N344 C340 1.427 . S
N344 C341 1.384 . S
N345 C337 1.427 1_565 S
N345 C343 1.384 . S
H346 C352 0.930 . S
H347 C356 0.930 . S
H348 C361 0.929 1_655 S
H349 C359 0.929 . S
H350 C354 0.929 1_655 S
H351 C360 0.929 . S
C352 H346 0.930 . S
C352 C353 1.367 . S
C352 C360 1.378 . S
C353 C352 1.367 . S
C353 C361 1.433 . S
C354 H350 0.929 1_455 S
C354 C356 1.378 . S
C354 C358 1.350 . S
C355 C358 1.463 . S
C355 C360 1.350 . S
C355 N363 1.427 . S
C356 H347 0.930 . S
C356 C354 1.378 . S
C356 C357 1.367 . S
C357 C356 1.367 . S
C357 C359 1.433 . S
C358 C354 1.350 . S
C358 C355 1.463 . S
C358 N362 1.427 . S
C359 H349 0.929 . S
C359 C357 1.433 . S
C359 N362 1.384 . S
C360 H351 0.929 . S
C360 C352 1.378 . S
C360 C355 1.350 . S
C361 H348 0.929 1_455 S
C361 C353 1.433 . S
C361 N363 1.384 . S
N362 C358 1.427 . S
N362 C359 1.384 . S
N363 C355 1.427 . S
N363 C361 1.384 . S
H364 C370 0.930 . S
H365 C374 0.930 . S
H366 C379 0.929 . S
H367 C377 0.929 1_565 S
H368 C372 0.929 . S
H369 C378 0.929 . S
C370 H364 0.930 . S
C370 C371 1.367 1_565 S
C370 C378 1.378 . S
C371 C370 1.367 1_545 S
C371 C379 1.433 . S
C372 H368 0.929 . S
C372 C374 1.378 . S
C372 C376 1.350 . S
C373 C376 1.463 . S
C373 C378 1.350 1_545 S
C373 N381 1.427 . S
C374 H365 0.930 . S
C374 C372 1.378 . S
C374 C375 1.367 . S
C375 C374 1.367 . S
C375 C377 1.433 . S
C376 C372 1.350 . S
C376 C373 1.463 . S
C376 N380 1.427 1_545 S
C377 H367 0.929 1_545 S
C377 C375 1.433 . S
C377 N380 1.384 1_545 S
C378 H369 0.929 . S
C378 C370 1.378 . S
C378 C373 1.350 1_565 S
C379 H366 0.929 . S
C379 C371 1.433 . S
C379 N381 1.384 . S
N380 C376 1.427 1_565 S
N380 C377 1.384 1_565 S
N381 C373 1.427 . S
N381 C379 1.384 . S
H382 C388 0.930 . S
H383 C392 0.930 . S
H384 C397 0.929 . S
H385 C395 0.929 . S
H386 C390 0.929 . S
H387 C396 0.929 . S
C388 H382 0.930 . S
C388 C389 1.367 . S
C388 C396 1.378 . S
C389 C388 1.367 . S
C389 C397 1.433 . S
C390 H386 0.929 . S
C390 C392 1.378 . S
C390 C394 1.350 . S
C391 C394 1.463 . S
C391 C396 1.350 . S
C391 N399 1.427 . S
C392 H383 0.930 . S
C392 C390 1.378 . S
C392 C393 1.367 . S
C393 C392 1.367 . S
C393 C395 1.433 . S
C394 C390 1.350 . S
C394 C391 1.463 . S
C394 N398 1.427 . S
C395 H385 0.929 . S
C395 C393 1.433 . S
C395 N398 1.384 . S
C396 H387 0.929 . S
C396 C388 1.378 . S
C396 C391 1.350 . S
C397 H384 0.929 . S
C397 C389 1.433 . S
C397 N399 1.384 . S
N398 C394 1.427 . S
N398 C395 1.384 . S
N399 C391 1.427 . S
N399 C397 1.384 . S
C267 C237 1.613 . S
C263 C11 0.987 1_545 S
C285 C248 1.401 . S
C281 C115 1.186 . S
C303 C236 1.430 1_545 S
C299 C1 1.139 . S
C321 C249 1.546 . S
C317 C125 1.030 . S
C339 C251 1.665 . S
C335 C55 1.225 . S
C357 C235 1.470 . S
C353 C143 1.171 . S
C375 C250 1.525 . S
C371 C29 1.207 . S
C389 C169 1.175 . S
C393 C234 1.623 . S
