# Generated by pormake.
# Topology zzz, (3,6)-cn, num edge types: 1
# Building blocks:
#     Node 0, Type 0, BuildingBlock: KAKCAD_clean_linker_0, # of connection points: 3
#     Node 1, Type 0, BuildingBlock: KAKCAD_clean_linker_0, # of connection points: 3
#     Node 2, Type 0, BuildingBlock: KAKCAD_clean_linker_0, # of connection points: 3
#     Node 3, Type 0, BuildingBlock: KAKCAD_clean_linker_0, # of connection points: 3
#     Node 4, Type 0, BuildingBlock: KAKCAD_clean_linker_0, # of connection points: 3
#     Node 5, Type 0, BuildingBlock: KAKCAD_clean_linker_0, # of connection points: 3
#     Node 6, Type 0, BuildingBlock: KAKCAD_clean_linker_0, # of connection points: 3
#     Node 7, Type 0, BuildingBlock: KAKCAD_clean_linker_0, # of connection points: 3
#     Node 8, Type 1, BuildingBlock: KUMJIN_clean_sbu_0, # of connection points: 6
#     Node 9, Type 1, BuildingBlock: KUMJIN_clean_sbu_0, # of connection points: 6
#     Node 10, Type 1, BuildingBlock: KUMJIN_clean_sbu_0, # of connection points: 6
#     Node 11, Type 1, BuildingBlock: KUMJIN_clean_sbu_0, # of connection points: 6
#     Edge 12, Type (0, 1), BuildingBlock: XUDNAN_clean_linker_2, # of connection points: 2
#     Edge 13, Type (0, 1), BuildingBlock: XUDNAN_clean_linker_2, # of connection points: 2
#     Edge 14, Type (0, 1), BuildingBlock: XUDNAN_clean_linker_2, # of connection points: 2
#     Edge 15, Type (0, 1), BuildingBlock: XUDNAN_clean_linker_2, # of connection points: 2
#     Edge 16, Type (0, 1), BuildingBlock: XUDNAN_clean_linker_2, # of connection points: 2
#     Edge 17, Type (0, 1), BuildingBlock: XUDNAN_clean_linker_2, # of connection points: 2
#     Edge 18, Type (0, 1), BuildingBlock: XUDNAN_clean_linker_2, # of connection points: 2
#     Edge 19, Type (0, 1), BuildingBlock: XUDNAN_clean_linker_2, # of connection points: 2
#     Edge 20, Type (0, 1), BuildingBlock: XUDNAN_clean_linker_2, # of connection points: 2
#     Edge 21, Type (0, 1), BuildingBlock: XUDNAN_clean_linker_2, # of connection points: 2
#     Edge 22, Type (0, 1), BuildingBlock: XUDNAN_clean_linker_2, # of connection points: 2
#     Edge 23, Type (0, 1), BuildingBlock: XUDNAN_clean_linker_2, # of connection points: 2
#     Edge 24, Type (0, 1), BuildingBlock: XUDNAN_clean_linker_2, # of connection points: 2
#     Edge 25, Type (0, 1), BuildingBlock: XUDNAN_clean_linker_2, # of connection points: 2
#     Edge 26, Type (0, 1), BuildingBlock: XUDNAN_clean_linker_2, # of connection points: 2
#     Edge 27, Type (0, 1), BuildingBlock: XUDNAN_clean_linker_2, # of connection points: 2
#     Edge 28, Type (0, 1), BuildingBlock: XUDNAN_clean_linker_2, # of connection points: 2
#     Edge 29, Type (0, 1), BuildingBlock: XUDNAN_clean_linker_2, # of connection points: 2
#     Edge 30, Type (0, 1), BuildingBlock: XUDNAN_clean_linker_2, # of connection points: 2
#     Edge 31, Type (0, 1), BuildingBlock: XUDNAN_clean_linker_2, # of connection points: 2
#     Edge 32, Type (0, 1), BuildingBlock: XUDNAN_clean_linker_2, # of connection points: 2
#     Edge 33, Type (0, 1), BuildingBlock: XUDNAN_clean_linker_2, # of connection points: 2
#     Edge 34, Type (0, 1), BuildingBlock: XUDNAN_clean_linker_2, # of connection points: 2
#     Edge 35, Type (0, 1), BuildingBlock: XUDNAN_clean_linker_2, # of connection points: 2
# Relax obj value: 0.296
# Max RMSD: 0.224
# Mean RMSD: 0.211
data_MOF--net-zzz--node1-KUMJIN_clean_sbu_0--node2-KAKCAD_clean_linker_0--edge1-XUDNAN_clean_linker_2
_symmetry_space_group_name_H-M    P1
_symmetry_Int_Tables_number       1
_symmetry_cell_setting            triclinic
loop_
_symmetry_equiv_pos_as_xyz
'x, y, z'
_cell_length_a     57.896542
_cell_length_b     57.74861
_cell_length_c     20.177178
_cell_angle_alpha  90.670872
_cell_angle_beta   90.139667
_cell_angle_gamma 90.021522
loop_
_atom_site_label
_atom_site_type_symbol
_atom_site_fract_x
_atom_site_fract_y
_atom_site_fract_z
_atom_type_partial_charge
C0 C 0.81207 0.61189 0.04145 0.0
C1 C 0.81718 0.60191 0.97925 0.0
C2 C 0.79274 0.60452 0.07675 0.0
C3 C 0.77807 0.5875 0.04963 0.0
C4 C 0.78097 0.58065 0.98328 0.0
C5 C 0.80042 0.58777 0.94832 0.0
C6 C 0.764 0.57285 0.09354 0.0
C7 C 0.74156 0.56628 0.07603 0.0
C8 C 0.72967 0.54914 0.11138 0.0
C9 C 0.74103 0.53813 0.1652 0.0
C10 C 0.76384 0.54489 0.18329 0.0
C11 C 0.77475 0.56239 0.14757 0.0
C12 C 0.77791 0.534 0.23677 0.0
C13 C 0.77492 0.54079 0.30327 0.0
C14 C 0.79837 0.52222 0.21945 0.0
C15 C 0.81583 0.5183 0.26647 0.0
C16 C 0.81345 0.52611 0.33248 0.0
C17 C 0.70589 0.54306 0.08737 0.0
C18 C 0.68982 0.56101 0.0777 0.0
C19 C 0.70081 0.52105 0.06024 0.0
C20 C 0.681 0.51764 0.02027 0.0
C21 C 0.66605 0.53624 0.00622 0.0
C22 C 0.6703 0.55768 0.03762 0.0
C23 C 0.79239 0.53681 0.35054 0.0
H24 H 0.82429 0.62338 0.06582 0.0
H25 H 0.79056 0.61038 0.12756 0.0
H26 H 0.76985 0.56759 0.9611 0.0
H27 H 0.80359 0.57976 0.90043 0.0
H28 H 0.73356 0.57409 0.03306 0.0
H29 H 0.79241 0.56707 0.16001 0.0
H30 H 0.73239 0.52453 0.19206 0.0
H31 H 0.75977 0.55059 0.31777 0.0
H32 H 0.80146 0.51727 0.16826 0.0
H33 H 0.83148 0.50964 0.25055 0.0
H34 H 0.69322 0.57818 0.09765 0.0
H35 H 0.71299 0.50697 0.0658 0.0
H36 H 0.78984 0.54332 0.40052 0.0
H37 H 0.65902 0.57229 0.02864 0.0
H38 H 0.67825 0.50091 0.99676 0.0
C39 C 0.95356 0.79227 0.89016 0.0
C40 C 0.96688 0.81249 0.88594 0.0
C41 C 0.95196 0.78054 0.95037 0.0
C42 C 0.96396 0.78871 0.00688 0.0
C43 C 0.97673 0.80929 1.0025 0.0
C44 C 0.97813 0.82102 0.94301 0.0
C45 C 0.96565 0.77478 0.06808 0.0
C46 C 0.96894 0.75086 0.06331 0.0
C47 C 0.97497 0.73775 0.11868 0.0
C48 C 0.97813 0.74928 0.18106 0.0
C49 C 0.97374 0.77354 0.18725 0.0
C50 C 0.96717 0.7857 0.13034 0.0
C51 C 0.97725 0.78785 0.24948 0.0
C52 C 0.95969 0.80316 0.27082 0.0
C53 C 0.99936 0.79075 0.27732 0.0
C54 C 1.00411 0.80937 0.32135 0.0
C55 C 0.98692 0.82576 0.33886 0.0
C56 C 0.97888 0.71246 0.1054 0.0
C57 C 0.96014 0.6986 0.08434 0.0
C58 C 1.00131 0.70417 0.09313 0.0
C59 C 0.00487 0.68317 0.05829 0.0
C60 C 0.9861 0.66979 0.03417 0.0
C61 C 0.96367 0.6776 0.04963 0.0
C62 C 0.9644 0.82172 0.31475 0.0
H63 H 0.94476 0.78536 0.84682 0.0
H64 H 0.94182 0.76481 0.95227 0.0
H65 H 0.98677 0.81578 0.0441 0.0
H66 H 0.98908 0.83622 0.94104 0.0
H67 H 0.96812 0.74237 0.0151 0.0
H68 H 0.96432 0.80423 0.134 0.0
H69 H 0.9836 0.73955 0.22387 0.0
H70 H 0.9425 0.8017 0.24984 0.0
H71 H 0.0134 0.77962 0.26146 0.0
H72 H 0.02159 0.81138 0.33967 0.0
H73 H 0.94263 0.70477 0.09114 0.0
H74 H 0.01611 0.71478 0.10616 0.0
H75 H 0.95061 0.83376 0.32618 0.0
H76 H 0.9487 0.66781 0.03337 0.0
H77 H 0.02245 0.67814 0.04708 0.0
C78 C 0.70528 0.92503 0.98085 0.0
C79 C 0.71198 0.93562 0.92139 0.0
C80 C 0.71914 0.92707 0.03767 0.0
C81 C 0.73986 0.93985 0.03598 0.0
C82 C 0.74773 0.94773 0.97425 0.0
C83 C 0.73411 0.94549 0.91789 0.0
C84 C 0.7511 0.94888 0.09777 0.0
C85 C 0.77444 0.95515 0.09662 0.0
C86 C 0.78347 0.97154 0.14132 0.0
C87 C 0.76948 0.97941 0.19479 0.0
C88 C 0.74661 0.97074 0.20182 0.0
C89 C 0.73766 0.95593 0.15219 0.0
C90 C 0.73031 0.97816 0.25568 0.0
C91 C 0.71889 0.96123 0.2932 0.0
C92 C 0.72233 1.00111 0.26013 0.0
C93 C 0.70261 0.00666 0.29795 0.0
C94 C 0.69038 0.98943 0.33263 0.0
C95 C 0.80623 0.98175 0.12249 0.0
C96 C 0.82689 0.97367 0.15042 0.0
C97 C 0.80751 0.99402 0.06274 0.0
C98 C 0.82849 0.99649 0.02892 0.0
C99 C 0.84914 0.98703 0.05408 0.0
C100 C 0.84809 0.97655 0.11717 0.0
C101 C 0.69935 0.96678 0.33141 0.0
H102 H 0.68855 0.91677 0.98485 0.0
H103 H 0.71284 0.92005 0.08374 0.0
H104 H 0.76333 0.95791 0.96983 0.0
H105 H 0.74002 0.95407 0.87363 0.0
H106 H 0.78532 0.94898 0.05645 0.0
H107 H 0.7195 0.95142 0.15381 0.0
H108 H 0.77611 0.99223 0.22951 0.0
H109 H 0.72437 0.94331 0.29004 0.0
H110 H 0.73044 0.01448 0.23101 0.0
H111 H 0.69651 0.02438 0.29831 0.0
H112 H 0.82648 0.96374 0.1956 0.0
H113 H 0.7918 0.99994 0.03901 0.0
H114 H 0.69048 0.95297 0.35678 0.0
H115 H 0.86349 0.96962 0.14001 0.0
H116 H 0.828 1.00445 0.98069 0.0
C117 C 0.51055 0.71707 0.31882 0.0
C118 C 0.5276 0.70569 0.35651 0.0
C119 C 0.51672 0.73369 0.27137 0.0
C120 C 0.54004 0.73934 0.26103 0.0
C121 C 0.55683 0.72912 0.30188 0.0
C122 C 0.55073 0.71256 0.3488 0.0
C123 C 0.54772 0.75162 0.20015 0.0
C124 C 0.5416 0.77471 0.18504 0.0
C125 C 0.55098 0.78539 0.12819 0.0
C126 C 0.56584 0.77267 0.08653 0.0
C127 C 0.57132 0.74956 0.09961 0.0
C128 C 0.56211 0.7393 0.15642 0.0
C129 C 0.5854 0.73546 0.05238 0.0
C130 C 0.58283 0.73799 0.9835 0.0
C131 C 0.59955 0.71753 0.0757 0.0
C132 C 0.60802 0.70064 0.03225 0.0
C133 C 0.60307 0.70157 0.96393 0.0
C134 C 0.54653 0.80996 0.11059 0.0
C135 C 0.52483 0.81717 0.08716 0.0
C136 C 0.56539 0.82506 0.10458 0.0
C137 C 0.56296 0.84643 0.0736 0.0
C138 C 0.54152 0.85351 0.04763 0.0
C139 C 0.52234 0.83873 0.05591 0.0
C140 C 0.59193 0.72145 0.93973 0.0
H141 H 0.49256 0.71221 0.32329 0.0
H142 H 0.50345 0.74096 0.23994 0.0
H143 H 0.57496 0.73306 0.29494 0.0
H144 H 0.56429 0.7046 0.37777 0.0
H145 H 0.53041 0.78444 0.21806 0.0
H146 H 0.56565 0.72124 0.16635 0.0
H147 H 0.57313 0.78094 0.04339 0.0
H148 H 0.57235 0.75174 0.96328 0.0
H149 H 0.60282 0.7156 0.12821 0.0
H150 H 0.61664 0.68588 0.05365 0.0
H151 H 0.5101 0.80566 0.08995 0.0
H152 H 0.5824 0.81976 0.12101 0.0
H153 H 0.5886 0.72337 0.88726 0.0
H154 H 0.50552 0.84362 0.03723 0.0
H155 H 0.57829 0.85692 0.06738 0.0
C156 C 0.22711 0.42513 0.28778 0.0
C157 C 0.2104 0.41008 0.26024 0.0
C158 C 0.24383 0.43525 0.24788 0.0
C159 C 0.24417 0.43074 0.17943 0.0
C160 C 0.22925 0.41379 0.15302 0.0
C161 C 0.21268 0.40334 0.19325 0.0
C162 C 0.25704 0.44661 0.13562 0.0
C163 C 0.27939 0.45384 0.1522 0.0
C164 C 0.28996 0.47247 0.11983 0.0
C165 C 0.27748 0.48423 0.06973 0.0
C166 C 0.2552 0.4763 0.0506 0.0
C167 C 0.24544 0.45744 0.08357 0.0
C168 C 0.24008 0.48815 1.00156 0.0
C169 C 0.22738 0.50771 0.02161 0.0
C170 C 0.23305 0.47614 0.94377 0.0
C171 C 0.21286 0.48251 0.90966 0.0
C172 C 0.19897 0.50078 0.93333 0.0
C173 C 0.31355 0.47929 0.1433 0.0
C174 C 0.3175 0.50066 0.17569 0.0
C175 C 0.33074 0.46213 0.14716 0.0
C176 C 0.35033 0.46538 0.18693 0.0
C177 C 0.35347 0.48597 0.22362 0.0
C178 C 0.33737 0.50401 0.21531 0.0
C179 C 0.20704 0.51391 0.98803 0.0
H180 H 0.22604 0.43106 0.33874 0.0
H181 H 0.25501 0.44833 0.26971 0.0
H182 H 0.22945 0.4097 0.10049 0.0
H183 H 0.20057 0.39131 0.17066 0.0
H184 H 0.28831 0.44545 0.19273 0.0
H185 H 0.22786 0.45228 0.07172 0.0
H186 H 0.28502 0.49911 0.04578 0.0
H187 H 0.23199 0.51695 0.06677 0.0
H188 H 0.24215 0.46063 0.92814 0.0
H189 H 0.20712 0.4719 0.86817 0.0
H190 H 0.30442 0.51406 0.17459 0.0
H191 H 0.32818 0.44546 0.12306 0.0
H192 H 0.19685 0.52818 0.00739 0.0
H193 H 0.33929 0.52005 0.24313 0.0
H194 H 0.36251 0.45124 0.19171 0.0
C195 C 0.07879 0.22533 0.33289 0.0
C196 C 0.09689 0.21113 0.30929 0.0
C197 C 0.0675 0.24058 0.2909 0.0
C198 C 0.07378 0.24193 0.22403 0.0
C199 C 0.09336 0.22976 0.20191 0.0
C200 C 0.10501 0.21471 0.24442 0.0
C201 C 0.05767 0.25294 0.17668 0.0
C202 C 0.04724 0.27414 0.19241 0.0
C203 C 0.0288 0.28271 0.15479 0.0
C204 C 0.02071 0.26951 0.09926 0.0
C205 C 0.03182 0.24833 0.08132 0.0
C206 C 0.05021 0.2405 0.12058 0.0
C207 C 0.02522 0.23332 0.02295 0.0
C208 C 0.00517 0.2195 0.02331 0.0
C209 C 0.04185 0.22871 0.97386 0.0
C210 C 0.03897 0.21053 0.92778 0.0
C211 C 0.01929 0.1961 0.9288 0.0
C212 C 0.01825 0.30495 0.17878 0.0
C213 C 0.99941 0.30452 0.22251 0.0
C214 C 0.03067 0.3258 0.17323 0.0
C215 C 0.02482 0.34548 0.21153 0.0
C216 C 0.00654 0.34488 0.25767 0.0
C217 C 0.99363 0.32412 0.26125 0.0
C218 C 1.00222 0.20116 0.97687 0.0
H219 H 0.07158 0.22318 0.38185 0.0
H220 H 0.05241 0.24964 0.30941 0.0
H221 H 0.09883 0.23086 0.15074 0.0
H222 H 0.11927 0.20465 0.22487 0.0
H223 H 0.05302 0.28374 0.23595 0.0
H224 H 0.05804 0.22387 0.10909 0.0
H225 H 0.0063 0.27573 0.07017 0.0
H226 H 0.99231 0.22212 0.06156 0.0
H227 H 0.05781 0.23853 0.97326 0.0
H228 H 0.05285 0.20722 0.89315 0.0
H229 H 0.99005 0.28851 0.22995 0.0
H230 H 0.04571 0.32653 0.14147 0.0
H231 H 0.98672 0.19073 0.9794 0.0
H232 H 0.97971 0.32249 0.29656 0.0
H233 H 0.03503 0.36103 0.20584 0.0
C234 C 0.29554 0.08272 0.30455 0.0
C235 C 0.31475 0.09616 0.28612 0.0
C236 C 0.27796 0.07795 0.2594 0.0
C237 C 0.27915 0.08637 0.19455 0.0
C238 C 0.29647 0.10251 0.17909 0.0
C239 C 0.3141 0.10746 0.22471 0.0
C240 C 0.26589 0.0742 0.14157 0.0
C241 C 0.24354 0.06616 0.1538 0.0
C242 C 0.2334 0.04872 0.11424 0.0
C243 C 0.24572 0.04018 0.05806 0.0
C244 C 0.26792 0.04931 0.04284 0.0
C245 C 0.27751 0.06625 0.08507 0.0
C246 C 0.28333 0.04046 0.98858 0.0
C247 C 0.29253 0.01796 0.99075 0.0
C248 C 0.2938 0.05646 0.94586 0.0
C249 C 0.31393 0.05081 0.91059 0.0
C250 C 0.32431 0.02885 0.9164 0.0
C251 C 0.21086 0.03908 0.13804 0.0
C252 C 0.20895 0.03246 0.20478 0.0
C253 C 0.19049 0.04072 0.10044 0.0
C254 C 0.16872 0.0373 0.13022 0.0
C255 C 0.16673 0.03237 0.19861 0.0
C256 C 0.18737 0.02933 0.23461 0.0
C257 C 0.31267 0.0122 0.95496 0.0
H258 H 0.29514 0.07351 0.35091 0.0
H259 H 0.26496 0.06544 0.27329 0.0
H260 H 0.29748 0.10976 0.12992 0.0
H261 H 0.32819 0.11853 0.20961 0.0
H262 H 0.23444 0.07262 0.19717 0.0
H263 H 0.29516 0.0718 0.07672 0.0
H264 H 0.23846 0.02638 0.02779 0.0
H265 H 0.28518 1.00533 0.02391 0.0
H266 H 0.28741 0.07407 0.94384 0.0
H267 H 0.32213 0.06432 0.88233 0.0
H268 H 0.2243 0.03111 0.23536 0.0
H269 H 0.19129 0.04596 0.04913 0.0
H270 H 0.31958 0.99489 0.95974 0.0
H271 H 0.18707 0.02584 0.28715 0.0
H272 H 0.15344 0.03921 0.09979 0.0
C273 C 0.48236 0.29341 0.86926 0.0
C274 C 0.49399 0.31377 0.88967 0.0
C275 C 0.47607 0.2765 0.91551 0.0
C276 C 0.48141 0.27951 0.983 0.0
C277 C 0.49416 0.29912 1.00276 0.0
C278 C 0.50046 0.31596 0.95677 0.0
C279 C 0.4693 0.26572 0.03419 0.0
C280 C 0.47579 0.243 0.05131 0.0
C281 C 0.46419 0.23144 0.10307 0.0
C282 C 0.4462 0.24282 0.13696 0.0
C283 C 0.44022 0.26573 0.122 0.0
C284 C 0.45166 0.27676 0.06983 0.0
C285 C 0.42502 0.27969 0.16657 0.0
C286 C 0.42716 0.27791 0.23578 0.0
C287 C 0.41169 0.29786 0.14089 0.0
C288 C 0.40418 0.31588 0.18217 0.0
C289 C 0.40934 0.3158 0.25041 0.0
C290 C 0.47232 0.20883 0.12908 0.0
C291 C 0.45684 0.1903 0.13724 0.0
C292 C 0.49458 0.207 0.15595 0.0
C293 C 0.50095 0.18752 0.19248 0.0
C294 C 0.48542 0.16897 0.20206 0.0
C295 C 0.46338 0.17052 0.17254 0.0
C296 C 0.41906 0.29564 0.27734 0.0
H297 H 0.47692 0.29113 0.81823 0.0
H298 H 0.46576 0.26184 0.89922 0.0
H299 H 0.49819 0.30203 0.05467 0.0
H300 H 0.5098 0.33109 0.97431 0.0
H301 H 0.49005 0.23465 0.0259 0.0
H302 H 0.4478 0.29467 0.05875 0.0
H303 H 0.43775 0.23423 0.17778 0.0
H304 H 0.43701 0.26404 0.25779 0.0
H305 H 0.4089 0.29929 0.08799 0.0
H306 H 0.39649 0.33083 0.15903 0.0
H307 H 0.43946 0.19138 0.11755 0.0
H308 H 0.50664 0.22126 0.15201 0.0
H309 H 0.42244 0.29449 0.33001 0.0
H310 H 0.45097 0.15663 0.17727 0.0
H311 H 0.51785 0.18763 0.21545 0.0
Eu312 Eu 0.02871 1.00382 0.66664 0.0
C313 C 0.93574 0.99253 0.52842 0.0
C314 C 0.94631 0.9675 0.43652 0.0
C315 C 0.90732 0.96613 0.48041 0.0
C316 C 0.95213 0.98455 0.48445 0.0
C317 C 0.91298 0.98375 0.52615 0.0
C318 C 0.92393 0.95813 0.43536 0.0
C319 C 0.90231 0.01247 0.6083 0.0
N320 N 0.94161 0.01002 0.57043 0.0
C321 C 0.92498 0.0208 0.60784 0.0
C322 C 0.89634 0.99362 0.56793 0.0
Eu323 Eu 0.98056 0.02343 0.56875 0.0
N324 N 0.97336 0.99448 0.48584 0.0
C325 C 0.98928 0.98871 0.43849 0.0
C326 C 0.96293 0.9609 0.38985 0.0
C327 C 0.98445 0.9717 0.39058 0.0
H328 H 0.92944 0.03554 0.63885 0.0
H329 H 0.99736 0.96694 0.35419 0.0
H330 H 0.91916 0.94501 0.39901 0.0
H331 H 0.88942 0.02072 0.63929 0.0
H332 H 0.006 0.99672 0.43777 0.0
H333 H 0.02099 0.98534 0.93172 0.0
H334 H 0.95917 0.94789 0.35225 0.0
H335 H 0.05976 0.04675 0.59528 0.0
H336 H 0.0192 0.9768 0.81174 0.0
H337 H 0.08004 0.08227 0.62713 0.0
H338 H 0.88998 0.95909 0.4781 0.0
H339 H 0.0359 0.02314 0.97174 0.0
H340 H 0.05457 0.06106 0.9455 0.0
H341 H 0.8787 0.98736 0.56771 0.0
H342 H 0.07105 0.0872 0.86274 0.0
N343 N 0.03121 0.01016 0.78355 0.0
C344 C 0.02525 0.9936 0.82858 0.0
C345 C 0.03478 0.01962 0.91895 0.0
C346 C 0.04266 0.03574 0.873 0.0
C347 C 0.02638 0.99829 0.89661 0.0
C348 C 0.04074 0.03038 0.80472 0.0
H349 H 0.08111 0.09497 0.74448 0.0
N350 N 0.04862 0.03889 0.69316 0.0
C351 C 0.07159 0.07203 0.66457 0.0
C352 C 0.05003 0.04504 0.75822 0.0
C353 C 0.05985 0.05173 0.64663 0.0
C354 C 0.07213 0.07915 0.73077 0.0
C355 C 0.06151 0.06551 0.77867 0.0
O356 O 0.06118 0.99251 0.62062 0.0
O357 O 0.00491 0.99383 0.58306 0.0
O358 O 0.96466 0.00648 0.65963 0.0
O359 O 0.99602 0.9989 0.72903 0.0
O360 O 0.00783 0.97047 0.65787 0.0
O361 O 0.05122 0.97851 0.71406 0.0
O362 O 0.95932 0.05446 0.55932 0.0
O363 O 0.00953 0.03561 0.6363 0.0
O364 O 0.04276 0.01044 0.56385 0.0
O365 O 0.01345 0.02972 0.50836 0.0
O366 O 0.97656 0.0465 0.65965 0.0
O367 O 0.98119 0.04413 0.47855 0.0
C368 C 0.99908 0.97349 0.59971 0.0
C369 C 0.07046 0.95347 0.6393 0.0
C370 C 0.05783 0.91324 0.62606 0.0
C371 C 0.05335 0.9365 0.64227 0.0
C372 C 0.07973 0.90754 0.6005 0.0
C373 C 0.09216 0.94759 0.61378 0.0
C374 C 0.09664 0.92474 0.59357 0.0
C375 C 0.97352 1.00014 0.71717 0.0
C376 C 0.06554 0.97699 0.66471 0.0
C377 C 0.06256 0.07142 0.84626 0.0
C378 C 0.05314 0.05656 0.89336 0.0
C379 C 0.99793 0.04822 0.67639 0.0
C380 C 0.97747 0.08428 0.50239 0.0
C381 C 1.00119 0.08856 0.4944 0.0
C382 C 0.00993 0.11123 0.49792 0.0
C383 C 0.99455 0.12965 0.51032 0.0
C384 C 0.96245 0.10288 0.5144 0.0
C385 C 0.971 0.12544 0.51857 0.0
C386 C 0.03491 0.02184 0.51216 0.0
C387 C 0.96837 0.0605 0.50356 0.0
H388 H 0.03652 0.94144 0.65934 0.0
H389 H 0.08416 0.88983 0.58791 0.0
H390 H 0.10563 0.96054 0.61011 0.0
H391 H 0.11349 0.9202 0.57428 0.0
H392 H 0.01299 0.07428 0.48665 0.0
H393 H 1.00057 0.1474 0.5119 0.0
H394 H 0.94414 0.09991 0.52144 0.0
H395 H 0.95931 0.13974 0.52784 0.0
Eu396 Eu 0.52355 0.03799 0.69339 0.0
C397 C 0.53668 0.97027 0.49103 0.0
C398 C 0.53225 0.98619 0.38084 0.0
C399 C 0.56325 0.95908 0.40253 0.0
C400 C 0.52521 0.98486 0.44778 0.0
C401 C 0.55539 0.95667 0.46779 0.0
C402 C 0.55174 0.97385 0.35919 0.0
C403 C 0.55624 0.9377 0.57325 0.0
N404 N 0.52902 0.96853 0.55461 0.0
C405 C 0.5378 0.95149 0.59424 0.0
C406 C 0.56531 0.94052 0.51017 0.0
Eu407 Eu 0.49843 0.99452 0.58565 0.0
N408 N 0.50634 0.99659 0.4697 0.0
C409 C 0.49208 0.00723 0.42496 0.0
C410 C 0.51902 0.99921 0.33682 0.0
C411 C 0.49853 0.00931 0.35867 0.0
H412 H 0.53056 0.9475 0.64159 0.0
H413 H 0.48756 0.01851 0.32436 0.0
H414 H 0.55758 0.97501 0.30836 0.0
H415 H 0.56318 0.92455 0.60549 0.0
H416 H 0.47571 0.01448 0.44028 0.0
H417 H 0.49911 0.01525 0.94765 0.0
H418 H 0.52391 1.00068 0.28523 0.0
H419 H 0.50672 0.08742 0.61139 0.0
H420 H 0.5236 0.01544 0.84969 0.0
H421 H 0.47451 0.11446 0.61159 0.0
H422 H 0.57785 0.94912 0.38456 0.0
H423 H 0.46458 0.04027 0.95335 0.0
H424 H 0.44023 0.07079 0.9016 0.0
H425 H 0.57935 0.92949 0.49379 0.0
H426 H 0.43352 0.09762 0.81011 0.0
N427 N 0.50203 0.03828 0.79441 0.0
C428 C 0.50801 0.02551 0.84861 0.0
C429 C 0.47506 0.04004 0.90892 0.0
C430 C 0.46997 0.05447 0.85579 0.0
C431 C 0.49442 0.02579 0.90571 0.0
C432 C 0.48414 0.05347 0.79876 0.0
H433 H 0.44562 0.11348 0.70129 0.0
N434 N 0.49451 0.06768 0.69349 0.0
C435 C 0.47551 0.10125 0.64913 0.0
C436 C 0.48015 0.06841 0.74673 0.0
C437 C 0.49346 0.0851 0.64797 0.0
C438 C 0.45937 0.10075 0.70001 0.0
C439 C 0.462 0.08476 0.75085 0.0
O440 O 0.54326 0.06997 0.6811 0.0
O441 O 0.53 0.01591 0.60334 0.0
O442 O 0.50992 0.97746 0.68297 0.0
O443 O 0.53219 1.0043 0.74242 0.0
O444 O 0.55681 0.01808 0.66984 0.0
O445 O 0.54634 0.05075 0.77181 0.0
O446 O 0.4735 0.96986 0.62663 0.0
O447 O 0.49234 0.0153 0.67852 0.0
O448 O 0.52165 0.05098 0.58721 0.0
O449 O 0.49173 0.03003 0.53949 0.0
O450 O 0.46728 0.01731 0.60501 0.0
O451 O 0.47762 0.97218 0.52123 0.0
C452 C 0.55067 0.00955 0.61296 0.0
C453 C 0.5796 0.07014 0.73335 0.0
C454 C 0.61802 0.05294 0.73827 0.0
C455 C 0.59395 0.05099 0.74397 0.0
C456 C 0.62769 0.07444 0.72174 0.0
C457 C 0.58948 0.09151 0.7172 0.0
C458 C 0.61344 0.09361 0.71149 0.0
C459 C 0.52362 0.98329 0.73353 0.0
C460 C 0.55433 0.06779 0.73684 0.0
C461 C 0.44749 0.0852 0.80638 0.0
C462 C 0.45139 0.07002 0.8586 0.0
C463 C 0.47202 0.02242 0.66618 0.0
C464 C 0.43981 0.96844 0.56129 0.0
C465 C 0.4319 0.98787 0.52677 0.0
C466 C 0.40824 0.99252 0.5204 0.0
C467 C 0.39234 0.97737 0.54991 0.0
C468 C 0.42379 0.95355 0.59043 0.0
C469 C 0.40013 0.95803 0.58467 0.0
C470 C 0.50582 0.04803 0.54043 0.0
C471 C 0.4648 0.96461 0.56902 0.0
H472 H 0.58639 0.03438 0.7557 0.0
H473 H 0.64622 0.0765 0.71755 0.0
H474 H 0.57866 0.10648 0.70863 0.0
H475 H 0.62099 0.11014 0.69899 0.0
H476 H 0.44429 0.99971 0.50576 0.0
H477 H 0.37393 0.98026 0.54548 0.0
H478 H 0.42957 0.9386 0.61783 0.0
H479 H 0.38778 0.94647 0.60717 0.0
Eu480 Eu 0.53235 0.50264 0.55929 0.0
C481 C 0.43399 0.49196 0.66503 0.0
C482 C 0.41165 0.51387 0.58611 0.0
C483 C 0.39505 0.47957 0.63521 0.0
C484 C 0.43232 0.5103 0.62217 0.0
C485 C 0.41507 0.47681 0.67363 0.0
C486 C 0.39334 0.49809 0.59153 0.0
C487 C 0.43574 0.45919 0.7637 0.0
N488 N 0.45346 0.48985 0.70179 0.0
C489 C 0.45389 0.47469 0.75365 0.0
C490 C 0.41643 0.4599 0.72249 0.0
Eu491 Eu 0.48498 0.51526 0.67799 0.0
N492 N 0.45051 0.52509 0.61729 0.0
C493 C 0.44817 0.54474 0.5803 0.0
C494 C 0.4098 0.53339 0.54637 0.0
C495 C 0.42801 0.54905 0.54426 0.0
H496 H 0.46856 0.47434 0.78687 0.0
H497 H 0.42666 0.56441 0.51428 0.0
H498 H 0.37757 0.50038 0.56333 0.0
H499 H 0.43656 0.44686 0.80357 0.0
H500 H 0.4617 0.55725 0.57616 0.0
H501 H 0.58971 0.45405 0.72847 0.0
H502 H 0.39423 0.53672 0.51811 0.0
H503 H 0.5486 0.54154 0.44638 0.0
H504 H 0.55442 0.46163 0.669 0.0
H505 H 0.58215 0.56621 0.42038 0.0
H506 H 0.38052 0.4679 0.64046 0.0
H507 H 0.62353 0.47957 0.71581 0.0
H508 H 0.64165 0.51352 0.66152 0.0
H509 H 0.40228 0.44799 0.73061 0.0
H510 H 0.63955 0.54431 0.57878 0.0
N511 N 0.56678 0.49197 0.61943 0.0
C512 C 0.56852 0.4732 0.66038 0.0
C513 C 0.60785 0.48309 0.68829 0.0
C514 C 0.60658 0.50163 0.64478 0.0
C515 C 0.58884 0.46865 0.69537 0.0
C516 C 0.58571 0.50554 0.60998 0.0
H517 H 0.61765 0.56379 0.48811 0.0
N518 N 0.56468 0.52576 0.52942 0.0
C519 C 0.58301 0.55433 0.46138 0.0
C520 C 0.58453 0.52304 0.56406 0.0
C521 C 0.56407 0.54033 0.47636 0.0
C522 C 0.60298 0.55293 0.49975 0.0
C523 C 0.60413 0.53684 0.55091 0.0
O524 O 0.5453 0.49656 0.45901 0.0
O525 O 0.49412 0.5027 0.57623 0.0
O526 O 0.49204 0.47672 0.68272 0.0
O527 O 0.52234 0.46889 0.60942 0.0
O528 O 0.50547 0.5169 0.48831 0.0
O529 O 0.52874 0.46878 0.51042 0.0
O530 O 0.47228 0.5196 0.77918 0.0
O531 O 0.52314 0.5159 0.66012 0.0
O532 O 0.52765 0.54194 0.56011 0.0
O533 O 0.49548 0.54889 0.6274 0.0
O534 O 0.51264 0.50348 0.75072 0.0
O535 O 0.48391 0.54943 0.72579 0.0
C536 C 0.48745 0.51098 0.52165 0.0
C537 C 0.51968 0.47329 0.39623 0.0
C538 C 0.48461 0.45655 0.34744 0.0
C539 C 0.50037 0.45858 0.40045 0.0
C540 C 0.48821 0.46978 0.29033 0.0
C541 C 0.52303 0.48609 0.33819 0.0
C542 C 0.50727 0.48445 0.28594 0.0
C543 C 0.50692 0.46249 0.65405 0.0
C544 C 0.5356 0.47639 0.45325 0.0
C545 C 0.62447 0.53367 0.58757 0.0
C546 C 0.62568 0.51611 0.63449 0.0
C547 C 0.53037 0.50883 0.7155 0.0
C548 C 0.49497 0.54629 0.83888 0.0
C549 C 0.51518 0.55925 0.82839 0.0
C550 C 0.53124 0.56285 0.87987 0.0
C551 C 0.52717 0.55273 0.94181 0.0
C552 C 0.4911 0.53665 0.90146 0.0
C553 C 0.50722 0.53971 0.95235 0.0
C554 C 0.51197 0.55597 0.58673 0.0
C555 C 0.47893 0.54101 0.78367 0.0
H556 H 0.49746 0.44882 0.44522 0.0
H557 H 0.4767 0.46832 0.24812 0.0
H558 H 0.5377 0.4976 0.33346 0.0
H559 H 0.50997 0.49444 0.24156 0.0
H560 H 0.51856 0.56646 0.78003 0.0
H561 H 0.53899 0.55547 0.98283 0.0
H562 H 0.47578 0.52641 0.91064 0.0
H563 H 0.50415 0.53214 1.00035 0.0
Eu564 Eu 0.01643 0.52968 0.58373 0.0
C565 C 0.98472 0.43669 0.64803 0.0
C566 C 0.94371 0.42892 0.66086 0.0
C567 C 0.96879 0.3993 0.61406 0.0
C568 C 0.96277 0.44406 0.66653 0.0
C569 C 0.9879 0.41405 0.62231 0.0
C570 C 0.94677 0.40671 0.63328 0.0
C571 C 0.02873 0.42189 0.61525 0.0
N572 N 1.00292 0.45145 0.65554 0.0
C573 C 0.02482 0.44422 0.64021 0.0
C574 C 0.0102 0.40681 0.60573 0.0
Eu575 Eu 0.99369 0.48874 0.69963 0.0
N576 N 0.9602 0.46559 0.6932 0.0
C577 C 0.93977 0.47217 0.72149 0.0
C578 C 0.92224 0.43629 0.68496 0.0
C579 C 0.92036 0.45788 0.71642 0.0
H580 H 0.03944 0.45563 0.64466 0.0
H581 H 0.90402 0.46344 0.73713 0.0
H582 H 0.93228 0.39495 0.6279 0.0
H583 H 0.04605 0.41646 0.60238 0.0
H584 H 0.93848 0.48871 0.74689 0.0
H585 H 0.04714 0.6003 0.74781 0.0
H586 H 0.9072 0.42517 0.68146 0.0
H587 H 0.99153 0.53735 0.4346 0.0
H588 H 0.04836 0.56199 0.69641 0.0
H589 H 0.96719 0.56621 0.37834 0.0
H590 H 0.97093 0.38199 0.59368 0.0
H591 H 0.01845 0.62906 0.71141 0.0
H592 H 0.98706 0.63992 0.6318 0.0
H593 H 0.0133 0.3896 0.58568 0.0
H594 H 0.96511 0.63064 0.53042 0.0
N595 N 0.01923 0.56753 0.63285 0.0
C596 C 0.03522 0.57374 0.67995 0.0
C597 C 0.0185 0.61193 0.68898 0.0
C598 C 1.00343 0.60623 0.63712 0.0
C599 C 0.03481 0.59578 0.70937 0.0
C600 C 0.00447 0.58374 0.60903 0.0
H601 H 0.95811 0.60343 0.43437 0.0
N602 N 0.99552 0.55767 0.52263 0.0
C603 C 0.97386 0.56983 0.42753 0.0
C604 C 0.9922 0.57862 0.55196 0.0
C605 C 0.98771 0.55355 0.45949 0.0
C606 C 0.96873 0.59078 0.45939 0.0
C607 C 0.97846 0.59568 0.52156 0.0
O608 O 0.03752 0.5458 0.50661 0.0
O609 O 0.01024 0.49167 0.60026 0.0
O610 O 0.03273 0.48824 0.70983 0.0
O611 O 0.04251 0.52408 0.66773 0.0
O612 O 1.00267 0.50438 0.50667 0.0
O613 O 0.05013 0.51588 0.5573 0.0
O614 O 0.00644 0.49704 0.79908 0.0
O615 O 0.00492 0.52561 0.688 0.0
O616 O 0.97694 0.52813 0.56615 0.0
O617 O 0.96281 0.49964 0.63709 0.0
O618 O 0.97272 0.52093 0.72762 0.0
O619 O 0.98652 0.4663 0.78436 0.0
C620 C 1.00229 0.48628 0.54308 0.0
C621 C 0.06056 0.51899 0.44491 0.0
C622 C 0.08124 0.48787 0.38646 0.0
C623 C 0.07191 0.49744 0.44501 0.0
C624 C 0.07805 0.49997 0.32678 0.0
C625 C 0.05754 0.53056 0.38478 0.0
C626 C 0.06604 0.52093 0.32604 0.0
C627 C 0.04747 0.50549 0.70284 0.0
C628 C 0.05325 0.52978 0.50821 0.0
C629 C 0.97588 0.61743 0.55243 0.0
C630 C 0.98837 0.62271 0.61015 0.0
C631 C 0.98821 0.53641 0.71462 0.0
C632 C 0.98142 0.4863 0.88503 0.0
C633 C 0.96842 0.50673 0.88467 0.0
C634 C 0.95182 0.51126 0.93347 0.0
C635 C 0.94971 0.49583 0.98657 0.0
C636 C 0.97908 0.47099 0.93793 0.0
C637 C 0.96353 0.47597 0.98907 0.0
C638 C 0.95993 0.5151 0.58968 0.0
C639 C 0.99588 0.48013 0.8277 0.0
H640 H 0.07377 0.4883 0.49124 0.0
H641 H 0.08543 0.49381 0.28066 0.0
H642 H 0.04892 0.54719 0.38321 0.0
H643 H 0.06386 0.53006 0.2799 0.0
H644 H 0.97078 0.51899 0.84557 0.0
H645 H 0.93694 0.49866 0.02493 0.0
H646 H 0.98898 0.45509 0.93912 0.0
H647 H 0.96165 0.46405 0.0297 0.0
H648 H 0.15355 0.00749 0.31046 0.0
H649 H 0.12699 0.05696 0.16859 0.0
H650 H 0.09024 0.05846 0.22961 0.0
H651 H 0.10002 0.97728 0.34258 0.0
H652 H 0.10582 0.97436 0.42989 0.0
H653 H 0.1294 0.97567 0.37194 0.0
H654 H 0.14683 0.01036 0.43761 0.0
H655 H 0.12328 0.00912 0.4956 0.0
H656 H 0.12936 0.03569 0.45298 0.0
H657 H 0.05585 0.05516 0.30907 0.0
H658 H 0.02828 0.0481 0.40011 0.0
H659 H 0.07863 1.00361 0.49463 0.0
C660 C 0.14018 0.01877 0.29183 0.0
C661 C 0.1436 0.03198 0.23355 0.0
C662 C 0.12506 0.04614 0.21161 0.0
C663 C 0.10402 0.04731 0.24653 0.0
C664 C 0.10152 0.03438 0.30406 0.0
C665 C 0.11917 0.02043 0.32662 0.0
C666 C 0.11254 0.00902 0.3914 0.0
C667 C 0.11191 0.98251 0.38345 0.0
C668 C 0.12898 0.0165 0.44772 0.0
C669 C 0.08846 0.0188 0.40196 0.0
C670 C 0.08228 0.03323 0.35078 0.0
C671 C 0.06065 0.04397 0.34948 0.0
C672 C 0.04508 0.03993 0.40174 0.0
C673 C 0.05122 0.02563 0.45564 0.0
C674 C 0.07328 0.01488 0.45497 0.0
H675 H 0.45736 0.14053 0.27976 0.0
H676 H 0.52885 0.15043 0.22015 0.0
H677 H 0.54088 0.12046 0.29781 0.0
H678 H 0.46685 0.12935 0.44862 0.0
H679 H 0.44579 0.10652 0.45535 0.0
H680 H 0.44207 0.12872 0.39431 0.0
H681 H 0.43953 0.09741 0.30173 0.0
H682 H 0.4432 0.07519 0.36282 0.0
H683 H 0.46248 0.07649 0.29298 0.0
H684 H 0.54609 0.09382 0.39181 0.0
H685 H 0.54378 0.06678 0.48439 0.0
H686 H 0.46897 0.06763 0.47233 0.0
C687 C 0.47551 0.13616 0.2816 0.0
C688 C 0.49213 0.14865 0.2442 0.0
C689 C 0.5157 0.14211 0.24949 0.0
C690 C 0.52277 0.1248 0.29315 0.0
C691 C 0.50611 0.11344 0.33022 0.0
C692 C 0.4829 0.11834 0.32382 0.0
C693 C 0.46866 0.10306 0.36948 0.0
C694 C 0.45504 0.1178 0.41992 0.0
C695 C 0.45251 0.08709 0.32928 0.0
C696 C 0.48763 0.08928 0.40341 0.0
C697 C 0.50907 0.09593 0.38037 0.0
C698 C 0.52942 0.08781 0.40854 0.0
C699 C 0.5279 0.07231 0.4611 0.0
C700 C 0.50625 0.06424 0.48379 0.0
C701 C 0.48578 0.07283 0.45433 0.0
H702 H 0.38804 0.51892 0.24313 0.0
H703 H 0.36029 0.4553 0.3226 0.0
H704 H 0.39052 0.45545 0.40906 0.0
H705 H 0.44771 0.50355 0.26675 0.0
H706 H 0.45714 0.53233 0.28907 0.0
H707 H 0.43256 0.52834 0.23518 0.0
H708 H 0.40771 0.55322 0.31385 0.0
H709 H 0.43176 0.55726 0.36968 0.0
H710 H 0.40501 0.54536 0.39955 0.0
H711 H 0.42506 0.46099 0.48321 0.0
H712 H 0.46049 0.4729 0.54339 0.0
H713 H 0.46667 0.53274 0.41707 0.0
C714 C 0.38827 0.50517 0.27915 0.0
C715 C 0.37175 0.48708 0.27608 0.0
C716 C 0.37279 0.46925 0.32373 0.0
C717 C 0.38985 0.46925 0.37328 0.0
C718 C 0.40607 0.48706 0.37448 0.0
C719 C 0.40553 0.50469 0.32863 0.0
C720 C 0.42568 0.5212 0.33974 0.0
C721 C 0.44172 0.52136 0.27909 0.0
C722 C 0.41703 0.54571 0.35675 0.0
C723 C 0.43749 0.51015 0.39889 0.0
C724 C 0.42591 0.49041 0.41795 0.0
C725 C 0.43398 0.47669 0.46959 0.0
C726 C 0.45408 0.48361 0.50367 0.0
C727 C 0.46579 0.50421 0.48664 0.0
C728 C 0.45765 0.51728 0.43242 0.0
H729 H 0.03699 0.37776 0.31184 0.0
H730 H 0.96426 0.35916 0.30745 0.0
H731 H 0.95582 0.39137 0.38465 0.0
H732 H 0.04118 0.39547 0.48112 0.0
H733 H 0.05942 0.42022 0.4665 0.0
H734 H 0.06043 0.39556 0.41109 0.0
H735 H 0.05207 0.42174 0.31266 0.0
H736 H 0.04989 0.44699 0.36572 0.0
H737 H 0.0263 0.43928 0.31181 0.0
H738 H 0.95473 0.42731 0.45955 0.0
H739 H 0.9616 0.46326 0.5252 0.0
H740 H 0.03466 0.45866 0.48253 0.0
C741 C 0.01921 0.38042 0.32641 0.0
C742 C 1.00139 0.36534 0.30315 0.0
C743 C 0.97846 0.3698 0.32491 0.0
C744 C 0.9734 0.38828 0.36876 0.0
C745 C 0.99135 0.40255 0.3909 0.0
C746 C 0.01379 0.39892 0.3701 0.0
C747 C 0.02978 0.41736 0.39934 0.0
C748 C 0.04883 0.4065 0.44208 0.0
C749 C 0.04014 0.43219 0.34404 0.0
C750 C 0.01298 0.43148 0.44136 0.0
C751 C 0.99081 0.42282 0.43513 0.0
C752 C 0.97211 0.43388 0.46575 0.0
C753 C 0.97617 0.45419 0.50349 0.0
C754 C 0.99881 0.46293 0.5125 0.0
C755 C 0.01734 0.45161 0.47971 0.0
H756 H 0.86353 0.01738 0.95463 0.0
H757 H 0.88443 0.95456 0.05534 0.0
H758 H 0.91853 0.95186 0.98359 0.0
H759 H 0.87869 0.99708 0.79135 0.0
H760 H 0.88829 0.0251 0.76419 0.0
H761 H 0.86641 0.02304 0.82709 0.0
H762 H 0.89152 0.04878 0.90518 0.0
H763 H 0.91346 0.05054 0.84225 0.0
H764 H 0.92074 0.04013 0.92351 0.0
H765 H 0.95083 0.9555 0.89849 0.0
H766 H 0.97713 0.96473 0.80574 0.0
H767 H 0.93369 0.02291 0.75411 0.0
C768 C 0.87507 1.00291 0.96195 0.0
C769 C 0.8709 0.98635 0.01232 0.0
C770 C 0.88709 0.96801 0.0193 0.0
C771 C 0.90658 0.96611 0.97793 0.0
C772 C 0.90983 0.98249 0.9286 0.0
C773 C 0.89445 1.00049 0.92023 0.0
C774 C 0.90144 0.0153 0.86168 0.0
C775 C 0.88258 0.0151 0.8079 0.0
C776 C 0.90713 0.04016 0.88454 0.0
C777 C 0.92301 1.0027 0.83807 0.0
C778 C 0.92775 0.98397 0.87789 0.0
C779 C 0.94716 0.97008 0.86693 0.0
C780 C 0.96206 0.97547 0.81417 0.0
C781 C 0.95735 0.99434 0.77201 0.0
C782 C 0.93749 0.00805 0.78437 0.0
H783 H 0.51536 0.86354 0.93523 0.0
H784 H 0.56383 0.89445 0.07526 0.0
H785 H 0.56503 0.92974 0.00849 0.0
H786 H 0.53921 0.88722 0.78819 0.0
H787 H 0.51189 0.89302 0.74873 0.0
H788 H 0.51428 0.86985 0.80737 0.0
H789 H 0.48119 0.88774 0.87724 0.0
H790 H 0.47852 0.91081 0.81834 0.0
H791 H 0.48329 0.91748 0.90479 0.0
H792 H 0.56336 0.96062 0.92394 0.0
H793 H 0.55537 0.9875 0.8335 0.0
H794 H 0.50541 0.93898 0.75029 0.0
C795 C 0.52592 0.87786 0.95258 0.0
C796 C 0.53983 0.87584 0.01041 0.0
C797 C 0.55349 0.8951 0.03056 0.0
C798 C 0.55421 0.91537 0.99305 0.0
C799 C 0.54089 0.91649 0.93566 0.0
C800 C 0.52666 0.89848 0.91593 0.0
C801 C 0.51389 0.90457 0.85234 0.0
C802 C 0.5202 0.88765 0.79582 0.0
C803 C 0.48766 0.90519 0.86389 0.0
C804 C 0.52337 0.92869 0.83937 0.0
C805 C 0.53907 0.93502 0.88795 0.0
C806 C 0.5508 0.95603 0.88621 0.0
C807 C 0.54605 0.97125 0.83437 0.0
C808 C 0.52937 0.96573 0.78492 0.0
C809 C 0.51811 0.94391 0.78731 0.0
H810 H 0.63069 0.50372 0.99194 0.0
H811 H 0.65985 0.56488 0.90162 0.0
H812 H 0.62961 0.56357 0.81526 0.0
H813 H 0.61315 0.47475 0.83844 0.0
H814 H 0.58633 0.46379 0.87065 0.0
H815 H 0.61064 0.46837 0.92526 0.0
H816 H 0.58635 0.49497 1.00117 0.0
H817 H 0.56164 0.49021 0.94835 0.0
H818 H 0.57127 0.51925 0.96634 0.0
H819 H 0.59494 0.55711 0.74143 0.0
H820 H 0.5588 0.54514 0.6847 0.0
H821 H 0.55127 0.48855 0.82211 0.0
C822 C 0.63078 0.51669 0.95362 0.0
C823 C 0.64772 0.53444 0.95375 0.0
C824 C 0.64704 0.55121 0.90297 0.0
C825 C 0.62998 0.55054 0.85337 0.0
C826 C 0.61338 0.5331 0.85507 0.0
C827 C 0.61353 0.5165 0.90398 0.0
C828 C 0.59305 0.50019 0.89552 0.0
C829 C 0.60128 0.4753 0.88162 0.0
C830 C 0.57715 0.50124 0.95645 0.0
C831 C 0.58131 0.5104 0.83497 0.0
C832 C 0.59341 0.5293 0.81216 0.0
C833 C 0.58558 0.54205 0.75815 0.0
C834 C 0.56506 0.53512 0.72606 0.0
C835 C 0.55265 0.51548 0.74753 0.0
C836 C 0.56073 0.5033 0.80358 0.0
H837 H 0.95983 0.65277 0.92748 0.0
H838 H 0.02116 0.63758 0.0435 0.0
H839 H 0.02856 0.60336 0.9727 0.0
H840 H 0.94238 0.59306 0.90467 0.0
H841 H 0.9316 0.59723 0.82149 0.0
H842 H 0.93135 0.62087 0.88048 0.0
H843 H 0.95431 0.64528 0.79822 0.0
H844 H 0.95613 0.62165 0.73929 0.0
H845 H 0.98207 0.63547 0.76964 0.0
H846 H 0.02957 0.5704 0.88969 0.0
H847 H 0.02357 0.54072 0.80259 0.0
H848 H 0.96081 0.57526 0.7407 0.0
C849 C 0.97474 0.6422 0.93862 0.0
C850 C 0.98997 0.64832 0.99165 0.0
C851 C 0.00937 0.63385 1.00304 0.0
C852 C 0.0137 0.61418 0.96306 0.0
C853 C 0.9985 0.60884 0.91129 0.0
C854 C 0.97935 0.62237 0.89902 0.0
C855 C 0.96555 0.61242 0.84076 0.0
C856 C 0.94124 0.60547 0.86316 0.0
C857 C 0.96446 0.62972 0.78355 0.0
C858 C 0.97993 0.59117 0.82218 0.0
C859 C 0.99892 0.58959 0.8636 0.0
C860 C 0.01478 0.57155 0.85701 0.0
C861 C 0.01124 0.55471 0.80712 0.0
C862 C 0.99198 0.55576 0.76372 0.0
C863 C 0.97593 0.57417 0.77217 0.0
H864 H 0.09808 0.20479 0.44426 0.0
H865 H 0.10811 0.16828 0.25774 0.0
H866 H 0.09966 0.13178 0.31118 0.0
H867 H 0.10709 0.14935 0.56242 0.0
H868 H 0.08366 0.15998 0.61295 0.0
H869 H 0.10373 0.18004 0.57648 0.0
H870 H 0.06946 0.20178 0.52337 0.0
H871 H 0.04954 0.18181 0.55838 0.0
H872 H 0.04972 0.18609 0.46994 0.0
H873 H 0.0739 0.10469 0.36116 0.0
H874 H 0.03674 0.09087 0.40251 0.0
H875 H 0.03831 0.14311 0.55809 0.0
C876 C 0.09942 0.18892 0.41556 0.0
C877 C 0.10296 0.1897 0.34632 0.0
C878 C 0.10542 0.16854 0.31078 0.0
C879 C 0.1005 0.14745 0.34104 0.0
C880 C 0.09308 0.14768 0.40676 0.0
C881 C 0.0932 0.1679 0.44459 0.0
C882 C 0.0787 0.16517 0.50665 0.0
C883 C 0.09423 0.16352 0.56826 0.0
C884 C 0.0608 0.18484 0.51485 0.0
C885 C 0.06735 0.14206 0.49171 0.0
C886 C 0.07705 0.13153 0.43641 0.0
C887 C 0.06679 0.11227 0.40598 0.0
C888 C 0.04556 0.10446 0.42992 0.0
C889 C 0.03464 0.1159 0.48371 0.0
C890 C 0.04636 0.13405 0.51704 0.0
H891 H 0.32081 0.0907 0.42031 0.0
H892 H 0.35871 0.09366 0.23526 0.0
H893 H 0.39134 0.07396 0.28715 0.0
H894 H 0.37383 0.08699 0.5399 0.0
H895 H 0.35714 0.0671 0.58846 0.0
H896 H 0.34291 0.09011 0.54544 0.0
H897 H 0.31647 0.05834 0.49186 0.0
H898 H 0.33247 0.03557 0.53037 0.0
H899 H 0.32949 0.03592 0.44141 0.0
H900 H 0.4139 0.04398 0.34394 0.0
H901 H 0.42669 0.00992 0.40601 0.0
H902 H 0.3715 0.02124 0.5476 0.0
C903 C 0.3363 0.08796 0.39134 0.0
C904 C 0.33685 0.09346 0.32331 0.0
C905 C 0.35767 0.08996 0.28761 0.0
C906 C 0.37638 0.07849 0.31665 0.0
C907 C 0.37404 0.07064 0.38129 0.0
C908 C 0.35464 0.07558 0.41871 0.0
C909 C 0.35413 0.06145 0.48142 0.0
C910 C 0.35723 0.07734 0.5424 0.0
C911 C 0.33183 0.04697 0.48643 0.0
C912 C 0.3751 0.04626 0.47035 0.0
C913 C 0.38687 0.05249 0.41377 0.0
C914 C 0.40543 0.03957 0.38984 0.0
C915 C 0.41245 0.02009 0.42527 0.0
C916 C 0.40056 0.01326 0.48325 0.0
C917 C 0.38147 0.02645 0.50516 0.0
H918 H 0.44095 0.32952 0.34355 0.0
H919 H 0.3796 0.35331 0.24079 0.0
H920 H 0.38885 0.39342 0.27437 0.0
H921 H 0.43993 0.37698 0.48175 0.0
H922 H 0.47105 0.37766 0.48083 0.0
H923 H 0.45598 0.35076 0.4658 0.0
H924 H 0.47818 0.34576 0.35533 0.0
H925 H 0.49282 0.37273 0.36874 0.0
H926 H 0.47632 0.36812 0.29385 0.0
H927 H 0.41067 0.4304 0.2895 0.0
H928 H 0.44032 0.46095 0.29882 0.0
H929 H 0.48619 0.41283 0.39673 0.0
C930 C 0.42856 0.34281 0.33133 0.0
C931 C 0.40966 0.33809 0.28866 0.0
C932 C 0.39444 0.35641 0.27239 0.0
C933 C 0.39945 0.37929 0.29176 0.0
C934 C 0.41933 0.38349 0.3292 0.0
C935 C 0.43321 0.36562 0.35083 0.0
C936 C 0.45522 0.37468 0.38249 0.0
C937 C 0.45555 0.36973 0.45716 0.0
C938 C 0.47687 0.36474 0.34798 0.0
C939 C 0.45251 0.40027 0.37 0.0
C940 C 0.43152 0.40514 0.34045 0.0
C941 C 0.42672 0.42699 0.31517 0.0
C942 C 0.44379 0.44419 0.32004 0.0
C943 C 0.46545 0.43945 0.34976 0.0
C944 C 0.46951 0.41731 0.37618 0.0
H945 H 0.16671 0.40823 0.20893 0.0
H946 H 0.2041 0.40436 0.39492 0.0
H947 H 0.16874 0.41513 0.45481 0.0
H948 H 0.14084 0.45395 0.22834 0.0
H949 H 0.11252 0.44769 0.19537 0.0
H950 H 0.13666 0.43076 0.16872 0.0
H951 H 0.11668 0.39299 0.20548 0.0
H952 H 0.0918 0.40973 0.2305 0.0
H953 H 0.10563 0.39072 0.28859 0.0
H954 H 0.13672 0.44069 0.48622 0.0
H955 H 0.10858 0.4721 0.48939 0.0
H956 H 0.08802 0.45526 0.28721 0.0
C957 C 0.1672 0.40799 0.26247 0.0
C958 C 0.18842 0.40609 0.29687 0.0
C959 C 0.18823 0.4064 0.36709 0.0
C960 C 0.16809 0.41229 0.40173 0.0
C961 C 0.14803 0.41672 0.36568 0.0
C962 C 0.14708 0.41345 0.29766 0.0
C963 C 0.12469 0.42281 0.26939 0.0
C964 C 0.12898 0.43981 0.21222 0.0
C965 C 0.10876 0.40287 0.24719 0.0
C966 C 0.11505 0.43495 0.33008 0.0
C967 C 0.12829 0.43056 0.38565 0.0
C968 C 0.12546 0.44332 0.44408 0.0
C969 C 0.10923 0.46131 0.44529 0.0
C970 C 0.09572 0.46642 0.38846 0.0
C971 C 0.09811 0.45219 0.3314 0.0
H972 H 0.96608 0.85847 0.86332 0.0
H973 H 0.97923 0.79242 0.76714 0.0
H974 H 0.99848 0.8125 0.67474 0.0
H975 H 0.96369 0.89679 0.71297 0.0
H976 H 0.98014 0.91899 0.75515 0.0
H977 H 0.9606 0.90093 0.80104 0.0
H978 H 0.99357 0.88891 0.87982 0.0
H979 H 0.01327 0.90699 0.83577 0.0
H980 H 0.01967 0.87667 0.84572 0.0
H981 H 0.02311 0.83965 0.60438 0.0
H982 H 0.05012 0.86997 0.56656 0.0
H983 H 0.02573 0.91501 0.72583 0.0
C984 C 0.97211 0.84834 0.82129 0.0
C985 C 0.9712 0.82401 0.82209 0.0
C986 C 0.97946 0.81117 0.76685 0.0
C987 C 0.99053 0.82245 0.71433 0.0
C988 C 0.9931 0.84647 0.7182 0.0
C989 C 0.98385 0.85924 0.77031 0.0
C990 C 0.99276 0.88376 0.77162 0.0
C991 C 0.97314 0.90114 0.75942 0.0
C992 C 0.00559 0.88937 0.83703 0.0
C993 C 0.00912 0.88263 0.71377 0.0
C994 C 0.00877 0.86135 0.6821 0.0
C995 C 0.02344 0.85641 0.62891 0.0
C996 C 0.03896 0.87367 0.60828 0.0
C997 C 0.04021 0.89527 0.64239 0.0
C998 C 0.02491 0.89943 0.69577 0.0
H999 H 0.66686 0.94798 0.94015 0.0
H1000 H 0.71842 0.93881 0.78633 0.0
H1001 H 0.69729 0.9662 0.716 0.0
H1002 H 0.61559 0.95725 0.81561 0.0
H1003 H 0.6027 0.97742 0.87338 0.0
H1004 H 0.61829 0.95263 0.90351 0.0
H1005 H 0.64376 0.98019 0.97442 0.0
H1006 H 0.62914 1.00512 0.94273 0.0
H1007 H 0.66004 1.00268 0.93437 0.0
H1008 H 0.6792 1.00359 0.68316 0.0
H1009 H 0.65582 0.03887 0.66663 0.0
H1010 H 0.61398 0.02106 0.83664 0.0
C1011 C 0.67298 0.95041 0.8901 0.0
C1012 C 0.69476 0.94184 0.86975 0.0
C1013 C 0.70215 0.94575 0.80386 0.0
C1014 C 0.69025 0.96129 0.76344 0.0
C1015 C 0.67034 0.97166 0.78834 0.0
C1016 C 0.66092 0.96536 0.84843 0.0
C1017 C 0.6403 0.98036 0.86594 0.0
C1018 C 0.6179 0.96605 0.8645 0.0
C1019 C 0.64354 0.99281 0.93331 0.0
C1020 C 0.64093 0.99726 0.80936 0.0
C1021 C 0.65843 0.99204 0.7653 0.0
C1022 C 0.66464 0.00721 0.71514 0.0
C1023 C 0.65152 0.02738 0.70681 0.0
C1024 C 0.63269 0.03234 0.74918 0.0
C1025 C 0.62764 0.01719 0.80164 0.0
H1026 H 0.57412 0.68773 0.86372 0.0
H1027 H 0.63506 0.66586 0.9718 0.0
H1028 H 0.62759 0.62562 0.93691 0.0
H1029 H 0.53941 0.65022 0.90858 0.0
H1030 H 0.52395 0.64409 0.8327 0.0
H1031 H 0.53814 0.67135 0.84346 0.0
H1032 H 0.56191 0.6646 0.73658 0.0
H1033 H 0.54724 0.63733 0.72395 0.0
H1034 H 0.57834 0.6383 0.72618 0.0
H1035 H 0.60591 0.58884 0.92795 0.0
H1036 H 0.57572 0.55875 0.92723 0.0
H1037 H 0.53063 0.60411 0.81678 0.0
C1038 C 0.58688 0.6749 0.87667 0.0
C1039 C 0.60479 0.68007 0.92233 0.0
C1040 C 0.62071 0.66237 0.93867 0.0
C1041 C 0.61677 0.6394 0.91836 0.0
C1042 C 0.59744 0.63457 0.87926 0.0
C1043 C 0.58333 0.65201 0.85589 0.0
C1044 C 0.56176 0.64224 0.82338 0.0
C1045 C 0.53956 0.65257 0.85396 0.0
C1046 C 0.56236 0.64583 0.74804 0.0
C1047 C 0.56453 0.61692 0.83972 0.0
C1048 C 0.5855 0.61267 0.87028 0.0
C1049 C 0.58998 0.59162 0.90105 0.0
C1050 C 0.57259 0.57471 0.90119 0.0
C1051 C 0.55097 0.5789 0.87078 0.0
C1052 C 0.54731 0.60002 0.83799 0.0
H1053 H 0.85562 0.59688 0.0555 0.0
H1054 H 0.83341 0.60173 0.85062 0.0
H1055 H 0.87014 0.58406 0.81478 0.0
H1056 H 0.92141 0.60408 0.0196 0.0
H1057 H 0.9278 0.58397 0.08479 0.0
H1058 H 0.90352 0.60338 0.09252 0.0
H1059 H 0.87696 0.56814 0.11267 0.0
H1060 H 0.90068 0.54848 0.10249 0.0
H1061 H 0.87536 0.54533 0.05097 0.0
H1062 H 0.90286 0.55656 0.80433 0.0
H1063 H 0.93209 0.52621 0.81805 0.0
H1064 H 0.93402 0.54022 0.02992 0.0
C1065 C 0.85897 0.5957 1.00284 0.0
C1066 C 0.84148 0.60055 0.95592 0.0
C1067 C 0.84644 0.59795 0.88753 0.0
C1068 C 0.8673 0.58797 0.86671 0.0
C1069 C 0.88321 0.58131 0.91483 0.0
C1070 C 0.8797 0.58586 0.98145 0.0
C1071 C 0.89791 0.57429 0.02385 0.0
C1072 C 0.9136 0.59252 0.05713 0.0
C1073 C 0.88706 0.55811 0.07544 0.0
C1074 C 0.91086 0.5608 0.97127 0.0
C1075 C 0.90242 0.56543 0.90864 0.0
C1076 C 0.91008 0.55333 0.85287 0.0
C1077 C 0.9268 0.53612 0.86127 0.0
C1078 C 0.9356 0.53095 0.92516 0.0
C1079 C 0.92771 0.54379 0.98053 0.0
H1080 H 0.99948 0.15225 0.94761 0.0
H1081 H 0.03431 0.19345 0.79931 0.0
H1082 H 0.03442 0.15992 0.72312 0.0
H1083 H 0.02801 0.09972 0.91528 0.0
H1084 H 1.0036 0.08046 0.92202 0.0
H1085 H 1.00416 0.10742 0.96797 0.0
H1086 H 0.96621 0.12142 0.917 0.0
H1087 H 0.96371 0.09402 0.87394 0.0
H1088 H 0.96245 0.12064 0.82829 0.0
H1089 H 0.03108 0.12178 0.66154 0.0
H1090 H 0.02251 0.08253 0.61779 0.0
H1091 H 0.98903 0.06532 0.80228 0.0
C1092 C 0.00687 0.15441 0.89886 0.0
C1093 C 0.01726 0.17579 0.88071 0.0
C1094 C 0.0268 0.17739 0.81604 0.0
C1095 C 0.02682 0.15836 0.77183 0.0
C1096 C 0.01699 0.13756 0.79187 0.0
C1097 C 0.00687 0.13551 0.85347 0.0
C1098 C 0.99718 0.11113 0.86188 0.0
C1099 C 0.00893 0.09893 0.92023 0.0
C1100 C 0.97082 0.11185 0.8708 0.0
C1101 C 1.00366 0.09982 0.79578 0.0
C1102 C 0.01508 0.11546 0.75621 0.0
C1103 C 0.02227 0.1094 0.69232 0.0
C1104 C 0.0175 0.08696 0.66793 0.0
C1105 C 0.00587 0.07053 0.70716 0.0
C1106 C 0.99865 0.07724 0.77184 0.0
H1107 H 0.34377 0.04633 0.80071 0.0
H1108 H 0.35925 1.00113 0.96556 0.0
H1109 H 0.39845 0.99506 0.92146 0.0
H1110 H 0.37734 0.01534 0.67545 0.0
H1111 H 0.38626 0.04204 0.6376 0.0
H1112 H 0.35899 0.04052 0.68053 0.0
H1113 H 0.37269 0.07621 0.74783 0.0
H1114 H 0.40091 0.07623 0.7103 0.0
H1115 H 0.39805 0.07413 0.79908 0.0
H1116 H 0.43671 0.99362 0.85755 0.0
H1117 H 0.46967 0.99709 0.78033 0.0
H1118 H 0.43016 0.04478 0.66079 0.0
C1119 C 0.3553 0.03521 0.82809 0.0
C1120 C 0.34789 0.02413 0.8869 0.0
C1121 C 0.36389 0.0095 0.91979 0.0
C1122 C 0.38646 0.0061 0.89542 0.0
C1123 C 0.39316 0.01753 0.83802 0.0
C1124 C 0.37799 0.03175 0.8048 0.0
C1125 C 0.3895 0.04224 0.74463 0.0
C1126 C 0.37723 0.03454 0.68075 0.0
C1127 C 0.39036 0.06878 0.75079 0.0
C1128 C 0.41347 0.03167 0.74866 0.0
C1129 C 0.41526 0.01739 0.80292 0.0
C1130 C 0.43548 1.00497 0.81539 0.0
C1131 C 0.45419 0.00712 0.77134 0.0
C1132 C 0.45279 0.02172 0.71545 0.0
C1133 C 0.43198 0.03393 0.70392 0.0
H1134 H 0.48977 0.36063 0.91412 0.0
H1135 H 0.50699 0.31136 0.75794 0.0
H1136 H 0.51253 0.34376 0.68025 0.0
H1137 H 0.45827 0.40042 0.81407 0.0
H1138 H 0.46895 0.42554 0.85837 0.0
H1139 H 0.46655 0.39826 0.9 0.0
H1140 H 0.51 0.40114 0.9319 0.0
H1141 H 0.51224 0.42822 0.88898 0.0
H1142 H 0.53123 0.4046 0.86754 0.0
H1143 H 0.51651 0.38249 0.61921 0.0
H1144 H 0.51717 0.42322 0.58119 0.0
H1145 H 0.49751 0.44639 0.77814 0.0
C1146 C 0.49504 0.35656 0.86388 0.0
C1147 C 0.49806 0.33328 0.84256 0.0
C1148 C 0.5044 0.32894 0.77567 0.0
C1149 C 0.5077 0.34728 0.73117 0.0
C1150 C 0.50455 0.36998 0.75399 0.0
C1151 C 0.49834 0.37461 0.8189 0.0
C1152 C 0.4957 0.40043 0.83123 0.0
C1153 C 0.47088 0.4065 0.85211 0.0
C1154 C 0.51335 0.4091 0.88297 0.0
C1155 C 0.50114 0.40966 0.76302 0.0
C1156 C 0.5064 0.39191 0.71907 0.0
C1157 C 0.51232 0.39645 0.65334 0.0
C1158 C 0.51271 0.41964 0.63216 0.0
C1159 C 0.50694 0.438 0.67626 0.0
C1160 C 0.50129 0.43277 0.74259 0.0
H1161 H 0.18286 0.50296 0.80271 0.0
H1162 H 0.15999 0.50454 0.00738 0.0
H1163 H 0.11953 0.50648 0.96999 0.0
H1164 H 0.1386 0.54363 0.74235 0.0
H1165 H 0.13492 0.52877 0.66397 0.0
H1166 H 0.16239 0.52788 0.70609 0.0
H1167 H 0.16127 0.48307 0.70262 0.0
H1168 H 0.13376 0.48385 0.66078 0.0
H1169 H 0.13679 0.46815 0.73699 0.0
H1170 H 0.08154 0.50517 0.91214 0.0
H1171 H 0.04805 0.50459 0.83676 0.0
H1172 H 0.09387 0.50687 0.66736 0.0
C1173 C 0.16931 0.50393 0.83951 0.0
C1174 C 0.17474 0.50378 0.90826 0.0
C1175 C 0.15643 0.50502 0.95469 0.0
C1176 C 0.13332 0.50597 0.93388 0.0
C1177 C 0.12854 0.50598 0.86617 0.0
C1178 C 0.14595 0.50535 0.81946 0.0
C1179 C 0.13574 0.50589 0.74968 0.0
C1180 C 0.14337 0.52785 0.71338 0.0
C1181 C 0.14229 0.48393 0.7102 0.0
C1182 C 0.10995 0.50647 0.7647 0.0
C1183 C 0.10633 0.5063 0.83239 0.0
C1184 C 0.08418 0.5056 0.85909 0.0
C1185 C 0.0652 0.50516 0.81576 0.0
C1186 C 0.06827 0.5058 0.74627 0.0
C1187 C 0.09101 0.50662 0.72036 0.0
H1188 H 0.96046 0.85119 0.43113 0.0
H1189 H 0.0267 0.85168 0.3306 0.0
H1190 H 0.03613 0.88888 0.38474 0.0
H1191 H 0.94966 0.91191 0.41708 0.0
H1192 H 0.93657 0.9155 0.49773 0.0
H1193 H 0.93479 0.88808 0.4546 0.0
H1194 H 0.95348 0.86704 0.55324 0.0
H1195 H 0.95394 0.89433 0.5974 0.0
H1196 H 0.98017 0.87797 0.58708 0.0
H1197 H 0.03812 0.92722 0.44537 0.0
H1198 H 0.0336 0.96242 0.51485 0.0
H1199 H 0.96674 0.93806 0.58044 0.0
C1200 C 0.977 0.85902 0.4205 0.0
C1201 C 0.99286 0.84795 0.37636 0.0
C1202 C 0.01432 0.85913 0.36481 0.0
C1203 C 0.0198 0.88055 0.39503 0.0
C1204 C 1.00376 0.89098 0.43733 0.0
C1205 C 0.98287 0.88051 0.45074 0.0
C1206 C 0.9687 0.89567 0.49801 0.0
C1207 C 0.94609 0.90327 0.46485 0.0
C1208 C 0.96378 0.88297 0.56284 0.0
C1209 C 0.98498 0.91619 0.50942 0.0
C1210 C 0.00499 0.91314 0.47307 0.0
C1211 C 0.02252 0.92974 0.47399 0.0
C1212 C 0.01976 0.94979 0.51341 0.0
C1213 C 0.99972 0.95328 0.55241 0.0
C1214 C 0.98214 0.93607 0.55056 0.0
H1215 H 0.67297 0.97307 0.45212 0.0
H1216 H 0.65538 0.01716 0.28675 0.0
H1217 H 0.61729 0.02491 0.33688 0.0
H1218 H 0.61571 0.94875 0.47208 0.0
H1219 H 0.61644 0.94828 0.56155 0.0
H1220 H 0.64278 0.94528 0.51475 0.0
H1221 H 0.66125 0.97975 0.57489 0.0
H1222 H 0.63563 0.98313 0.6246 0.0
H1223 H 0.64643 0.0072 0.57722 0.0
H1224 H 0.58044 0.02751 0.40438 0.0
H1225 H 0.54974 0.02786 0.48907 0.0
H1226 H 0.59151 0.98453 0.61523 0.0
C1227 C 0.66109 0.98427 0.42615 0.0
C1228 C 0.66749 0.99458 0.36525 0.0
C1229 C 0.65129 0.0093 0.33375 0.0
C1230 C 0.62941 0.01362 0.36156 0.0
C1231 C 0.6237 1.00317 0.42133 0.0
C1232 C 0.63913 0.98892 0.45352 0.0
C1233 C 0.62893 0.98055 0.51845 0.0
C1234 C 0.62576 0.95414 0.51665 0.0
C1235 C 0.64398 0.98811 0.57734 0.0
C1236 C 0.60574 0.99299 0.51909 0.0
C1237 C 0.60286 1.00544 0.46157 0.0
C1238 C 0.58273 0.01803 0.44987 0.0
C1239 C 0.56538 0.01829 0.49852 0.0
C1240 C 0.56819 0.0065 0.55912 0.0
C1241 C 0.58877 0.99367 0.56934 0.0
H1242 H 0.55076 0.66437 0.36913 0.0
H1243 H 0.49092 0.70161 0.44301 0.0
H1244 H 0.48135 0.66839 0.5147 0.0
H1245 H 0.52416 0.609 0.36163 0.0
H1246 H 0.54959 0.59335 0.38643 0.0
H1247 H 0.55243 0.6204 0.34382 0.0
H1248 H 0.57756 0.63688 0.43965 0.0
H1249 H 0.57504 0.60982 0.48256 0.0
H1250 H 0.56664 0.63645 0.52324 0.0
H1251 H 0.47853 0.6302 0.5791 0.0
H1252 H 0.48111 0.5905 0.62266 0.0
H1253 H 0.54254 0.57876 0.50478 0.0
C1254 C 0.53582 0.66575 0.40111 0.0
C1255 C 0.52173 0.68583 0.40073 0.0
C1256 C 0.50197 0.68649 0.44214 0.0
C1257 C 0.49649 0.66773 0.48338 0.0
C1258 C 0.51083 0.64826 0.48258 0.0
C1259 C 0.53004 0.64716 0.44213 0.0
C1260 C 0.54211 0.62396 0.44792 0.0
C1261 C 0.54206 0.61091 0.38098 0.0
C1262 C 0.5668 0.62697 0.47496 0.0
C1263 C 0.52671 0.61209 0.49783 0.0
C1264 C 0.50885 0.62637 0.51774 0.0
C1265 C 0.49243 0.6189 0.56332 0.0
C1266 C 0.49404 0.59618 0.58779 0.0
C1267 C 0.51179 0.58089 0.56623 0.0
C1268 C 0.52853 0.58944 0.5217 0.0
H1269 H 0.86078 0.53088 0.31143 0.0
H1270 H 0.81081 0.51609 0.46542 0.0
H1271 H 0.84248 0.51318 0.54687 0.0
H1272 H 0.90502 0.49146 0.36886 0.0
H1273 H 0.92863 0.51037 0.34816 0.0
H1274 H 0.90205 0.51159 0.30174 0.0
H1275 H 0.89877 0.55549 0.3281 0.0
H1276 H 0.92534 0.55427 0.37449 0.0
H1277 H 0.89954 0.56534 0.41323 0.0
H1278 H 0.87962 0.51138 0.61227 0.0
H1279 H 0.91934 0.51035 0.65623 0.0
H1280 H 0.94609 0.52553 0.461 0.0
C1281 C 0.85643 0.5268 0.36212 0.0
C1282 C 0.83301 0.52378 0.38154 0.0
C1283 C 0.82837 0.51883 0.44893 0.0
C1284 C 0.84633 0.51702 0.49571 0.0
C1285 C 0.86908 0.52022 0.47495 0.0
C1286 C 0.87423 0.52497 0.40973 0.0
C1287 C 0.90023 0.52758 0.40062 0.0
C1288 C 0.90953 0.50915 0.35196 0.0
C1289 C 0.90632 0.55213 0.37776 0.0
C1290 C 0.90891 0.52339 0.47079 0.0
C1291 C 0.89057 0.51922 0.51277 0.0
C1292 C 0.89407 0.51456 0.57968 0.0
C1293 C 0.91679 0.51386 0.6042 0.0
C1294 C 0.93601 0.51775 0.56236 0.0
C1295 C 0.93187 0.52283 0.49469 0.0
loop_
_geom_bond_atom_site_label_1
_geom_bond_atom_site_label_2
_geom_bond_distance
_geom_bond_site_symmetry_2
_ccdc_geom_bond_type
C0 C1 1.386 . S
C0 C2 1.397 . S
C0 H24 0.931 1_554 S
C1 C0 1.386 . S
C1 C5 1.397 . S
C2 C0 1.397 . S
C2 C3 1.384 . S
C2 H25 0.930 . S
C3 C2 1.384 . S
C3 C4 1.377 . S
C3 C6 1.481 . S
C4 C3 1.377 . S
C4 C5 1.389 . S
C4 H26 0.929 . S
C5 C1 1.397 . S
C5 C4 1.389 . S
C5 H27 0.931 . S
C6 C3 1.481 . S
C6 C7 1.387 . S
C6 C11 1.390 . S
C7 C6 1.387 . S
C7 C8 1.401 . S
C7 H28 0.930 . S
C8 C7 1.401 . S
C8 C9 1.376 . S
C8 C17 1.511 . S
C9 C8 1.376 . S
C9 C10 1.392 . S
C9 H30 0.931 . S
C10 C9 1.392 . S
C10 C11 1.361 . S
C10 C12 1.500 . S
C11 C6 1.390 . S
C11 C10 1.361 . S
C11 H29 0.931 . S
C12 C10 1.500 . S
C12 C13 1.371 . S
C12 C14 1.365 . S
C13 C12 1.371 . S
C13 C23 1.386 . S
C13 H31 0.931 . S
C14 C12 1.365 . S
C14 C15 1.409 . S
C14 H32 0.929 . S
C15 C14 1.409 . S
C15 C16 1.380 . S
C15 H33 0.930 . S
C16 C15 1.380 . S
C16 C23 1.357 . S
C17 C8 1.511 . S
C17 C18 1.341 . S
C17 C19 1.371 . S
C18 C17 1.341 . S
C18 C22 1.394 . S
C18 H34 0.930 . S
C19 C17 1.371 . S
C19 C20 1.392 . S
C19 H35 0.931 . S
C20 C19 1.392 . S
C20 C21 1.331 . S
C20 H38 0.932 . S
C21 C20 1.331 . S
C21 C22 1.336 . S
C22 C18 1.394 . S
C22 C21 1.336 . S
C22 H37 0.929 . S
C23 C13 1.386 . S
C23 C16 1.357 . S
C23 H36 0.928 . S
H24 C0 0.931 1_556 S
H25 C2 0.930 . S
H26 C4 0.929 . S
H27 C5 0.931 . S
H28 C7 0.930 . S
H29 C11 0.931 . S
H30 C9 0.931 . S
H31 C13 0.931 . S
H32 C14 0.929 . S
H33 C15 0.930 . S
H34 C18 0.930 . S
H35 C19 0.931 . S
H36 C23 0.928 . S
H37 C22 0.929 . S
H38 C20 0.932 . S
C39 C40 1.386 . S
C39 C41 1.397 . S
C39 H63 0.931 1_554 S
C40 C39 1.386 . S
C40 C44 1.397 . S
C41 C39 1.397 . S
C41 C42 1.384 . S
C41 H64 0.930 . S
C42 C41 1.384 . S
C42 C43 1.377 . S
C42 C45 1.481 . S
C43 C42 1.377 . S
C43 C44 1.389 . S
C43 H65 0.929 . S
C44 C40 1.397 . S
C44 C43 1.389 . S
C44 H66 0.931 . S
C45 C42 1.481 . S
C45 C46 1.387 . S
C45 C50 1.390 . S
C46 C45 1.387 . S
C46 C47 1.401 . S
C46 H67 0.930 . S
C47 C46 1.401 . S
C47 C48 1.376 . S
C47 C56 1.511 . S
C48 C47 1.376 . S
C48 C49 1.392 . S
C48 H69 0.931 . S
C49 C48 1.392 . S
C49 C50 1.361 . S
C49 C51 1.500 . S
C50 C45 1.390 . S
C50 C49 1.361 . S
C50 H68 0.931 . S
C51 C49 1.500 . S
C51 C52 1.371 . S
C51 C53 1.365 . S
C52 C51 1.371 . S
C52 C62 1.386 . S
C52 H70 0.931 . S
C53 C51 1.365 . S
C53 C54 1.409 . S
C53 H71 0.929 . S
C54 C53 1.409 . S
C54 C55 1.380 . S
C54 H72 0.930 . S
C55 C54 1.380 . S
C55 C62 1.357 . S
C56 C47 1.511 . S
C56 C57 1.341 . S
C56 C58 1.371 . S
C57 C56 1.341 . S
C57 C61 1.394 . S
C57 H73 0.930 . S
C58 C56 1.371 . S
C58 C59 1.392 . S
C58 H74 0.931 . S
C59 C58 1.392 . S
C59 C60 1.331 . S
C59 H77 0.932 . S
C60 C59 1.331 . S
C60 C61 1.336 . S
C61 C57 1.394 . S
C61 C60 1.336 . S
C61 H76 0.929 . S
C62 C52 1.386 . S
C62 C55 1.357 . S
C62 H75 0.928 . S
H63 C39 0.931 1_556 S
H64 C41 0.930 . S
H65 C43 0.929 . S
H66 C44 0.931 . S
H67 C46 0.930 . S
H68 C50 0.931 . S
H69 C48 0.931 . S
H70 C52 0.931 . S
H71 C53 0.929 . S
H72 C54 0.930 . S
H73 C57 0.930 . S
H74 C58 0.931 . S
H75 C62 0.928 . S
H76 C61 0.929 . S
H77 C59 0.932 . S
C78 C79 1.386 . S
C78 C80 1.397 . S
C78 H102 0.931 1_554 S
C79 C78 1.386 . S
C79 C83 1.397 . S
C80 C78 1.397 . S
C80 C81 1.384 . S
C80 H103 0.930 . S
C81 C80 1.384 . S
C81 C82 1.377 . S
C81 C84 1.481 . S
C82 C81 1.377 . S
C82 C83 1.389 . S
C82 H104 0.929 . S
C83 C79 1.397 . S
C83 C82 1.389 . S
C83 H105 0.931 . S
C84 C81 1.481 . S
C84 C85 1.387 . S
C84 C89 1.390 . S
C85 C84 1.387 . S
C85 C86 1.401 . S
C85 H106 0.930 . S
C86 C85 1.401 . S
C86 C87 1.376 . S
C86 C95 1.511 . S
C87 C86 1.376 . S
C87 C88 1.392 . S
C87 H108 0.931 . S
C88 C87 1.392 . S
C88 C89 1.361 . S
C88 C90 1.500 . S
C89 C84 1.390 . S
C89 C88 1.361 . S
C89 H107 0.931 . S
C90 C88 1.500 . S
C90 C91 1.371 . S
C90 C92 1.365 . S
C91 C90 1.371 . S
C91 C101 1.386 . S
C91 H109 0.931 . S
C92 C90 1.365 . S
C92 C93 1.409 . S
C92 H110 0.929 . S
C93 C92 1.409 . S
C93 C94 1.380 . S
C93 H111 0.930 . S
C94 C93 1.380 . S
C94 C101 1.357 . S
C95 C86 1.511 . S
C95 C96 1.341 . S
C95 C97 1.371 . S
C96 C95 1.341 . S
C96 C100 1.394 . S
C96 H112 0.930 . S
C97 C95 1.371 . S
C97 C98 1.392 . S
C97 H113 0.931 . S
C98 C97 1.392 . S
C98 C99 1.331 . S
C98 H116 0.932 . S
C99 C98 1.331 . S
C99 C100 1.336 . S
C100 C96 1.394 . S
C100 C99 1.336 . S
C100 H115 0.929 . S
C101 C91 1.386 . S
C101 C94 1.357 . S
C101 H114 0.928 . S
H102 C78 0.931 1_556 S
H103 C80 0.930 . S
H104 C82 0.929 . S
H105 C83 0.931 . S
H106 C85 0.930 . S
H107 C89 0.931 . S
H108 C87 0.931 . S
H109 C91 0.931 . S
H110 C92 0.929 . S
H111 C93 0.930 . S
H112 C96 0.930 . S
H113 C97 0.931 . S
H114 C101 0.928 . S
H115 C100 0.929 . S
H116 C98 0.932 . S
C117 C118 1.386 . S
C117 C119 1.397 . S
C117 H141 0.931 . S
C118 C117 1.386 . S
C118 C122 1.397 . S
C119 C117 1.397 . S
C119 C120 1.384 . S
C119 H142 0.930 . S
C120 C119 1.384 . S
C120 C121 1.377 . S
C120 C123 1.481 . S
C121 C120 1.377 . S
C121 C122 1.389 . S
C121 H143 0.929 . S
C122 C118 1.397 . S
C122 C121 1.389 . S
C122 H144 0.931 . S
C123 C120 1.481 . S
C123 C124 1.387 . S
C123 C128 1.390 . S
C124 C123 1.387 . S
C124 C125 1.401 . S
C124 H145 0.930 . S
C125 C124 1.401 . S
C125 C126 1.376 . S
C125 C134 1.511 . S
C126 C125 1.376 . S
C126 C127 1.392 . S
C126 H147 0.931 . S
C127 C126 1.392 . S
C127 C128 1.361 . S
C127 C129 1.500 . S
C128 C123 1.390 . S
C128 C127 1.361 . S
C128 H146 0.931 . S
C129 C127 1.500 . S
C129 C130 1.371 . S
C129 C131 1.365 . S
C130 C129 1.371 . S
C130 C140 1.386 1_554 S
C130 H148 0.931 . S
C131 C129 1.365 . S
C131 C132 1.409 . S
C131 H149 0.929 . S
C132 C131 1.409 . S
C132 C133 1.380 . S
C132 H150 0.930 . S
C133 C132 1.380 . S
C133 C140 1.357 1_554 S
C134 C125 1.511 . S
C134 C135 1.341 . S
C134 C136 1.371 . S
C135 C134 1.341 . S
C135 C139 1.394 . S
C135 H151 0.930 . S
C136 C134 1.371 . S
C136 C137 1.392 . S
C136 H152 0.931 . S
C137 C136 1.392 . S
C137 C138 1.331 . S
C137 H155 0.932 . S
C138 C137 1.331 . S
C138 C139 1.336 . S
C139 C135 1.394 . S
C139 C138 1.336 . S
C139 H154 0.929 . S
C140 C130 1.386 1_556 S
C140 C133 1.357 1_556 S
C140 H153 0.928 . S
H141 C117 0.931 . S
H142 C119 0.930 . S
H143 C121 0.929 . S
H144 C122 0.931 . S
H145 C124 0.930 . S
H146 C128 0.931 . S
H147 C126 0.931 . S
H148 C130 0.931 . S
H149 C131 0.929 . S
H150 C132 0.930 . S
H151 C135 0.930 . S
H152 C136 0.931 . S
H153 C140 0.928 . S
H154 C139 0.929 . S
H155 C137 0.932 . S
C156 C157 1.386 . S
C156 C158 1.397 . S
C156 H180 0.931 . S
C157 C156 1.386 . S
C157 C161 1.397 . S
C158 C156 1.397 . S
C158 C159 1.384 . S
C158 H181 0.930 . S
C159 C158 1.384 . S
C159 C160 1.377 . S
C159 C162 1.481 . S
C160 C159 1.377 . S
C160 C161 1.389 . S
C160 H182 0.929 . S
C161 C157 1.397 . S
C161 C160 1.389 . S
C161 H183 0.931 . S
C162 C159 1.481 . S
C162 C163 1.387 . S
C162 C167 1.390 . S
C163 C162 1.387 . S
C163 C164 1.401 . S
C163 H184 0.930 . S
C164 C163 1.401 . S
C164 C165 1.376 1_554 S
C164 C173 1.511 . S
C165 C164 1.376 1_556 S
C165 C166 1.392 . S
C165 H186 0.931 . S
C166 C165 1.392 . S
C166 C167 1.361 1_556 S
C166 C168 1.500 . S
C167 C162 1.390 . S
C167 C166 1.361 1_554 S
C167 H185 0.928 1_554 S
C168 C166 1.500 . S
C168 C169 1.371 . S
C168 C170 1.365 . S
C169 C168 1.371 . S
C169 C179 1.386 . S
C169 H187 0.931 . S
C170 C168 1.365 . S
C170 C171 1.409 . S
C170 H188 0.929 . S
C171 C170 1.409 . S
C171 C172 1.380 . S
C171 H189 0.930 . S
C172 C171 1.380 . S
C172 C179 1.357 . S
C173 C164 1.511 . S
C173 C174 1.341 . S
C173 C175 1.371 . S
C174 C173 1.341 . S
C174 C178 1.394 . S
C174 H190 0.930 . S
C175 C173 1.371 . S
C175 C176 1.392 . S
C175 H191 0.931 1_554 S
C176 C175 1.392 . S
C176 C177 1.331 . S
C176 H194 0.932 1_554 S
C177 C176 1.331 . S
C177 C178 1.336 . S
C178 C174 1.394 . S
C178 C177 1.336 . S
C178 H193 0.929 . S
C179 C169 1.386 . S
C179 C172 1.357 . S
C179 H192 0.928 . S
H180 C156 0.931 . S
H181 C158 0.930 . S
H182 C160 0.929 . S
H183 C161 0.931 . S
H184 C163 0.930 . S
H185 C167 0.928 1_556 S
H186 C165 0.931 . S
H187 C169 0.931 . S
H188 C170 0.929 . S
H189 C171 0.930 . S
H190 C174 0.930 . S
H191 C175 0.931 1_556 S
H192 C179 0.928 . S
H193 C178 0.929 . S
H194 C176 0.932 1_556 S
C195 C196 1.386 . S
C195 C197 1.397 . S
C195 H219 0.931 . S
C196 C195 1.386 . S
C196 C200 1.397 . S
C197 C195 1.397 . S
C197 C198 1.384 . S
C197 H220 0.930 . S
C198 C197 1.384 . S
C198 C199 1.377 . S
C198 C201 1.481 . S
C199 C198 1.377 . S
C199 C200 1.389 . S
C199 H221 0.929 . S
C200 C196 1.397 . S
C200 C199 1.389 . S
C200 H222 0.931 . S
C201 C198 1.481 . S
C201 C202 1.387 . S
C201 C206 1.390 . S
C202 C201 1.387 . S
C202 C203 1.401 . S
C202 H223 0.930 . S
C203 C202 1.401 . S
C203 C204 1.376 1_554 S
C203 C212 1.511 . S
C204 C203 1.376 1_556 S
C204 C205 1.392 . S
C204 H225 0.931 . S
C205 C204 1.392 . S
C205 C206 1.361 1_556 S
C205 C207 1.500 . S
C206 C201 1.390 . S
C206 C205 1.361 1_554 S
C206 H224 0.931 1_554 S
C207 C205 1.500 . S
C207 C208 1.371 . S
C207 C209 1.365 . S
C208 C207 1.371 . S
C208 C218 1.386 . S
C208 H226 0.931 . S
C209 C207 1.365 . S
C209 C210 1.409 . S
C209 H227 0.929 . S
C210 C209 1.409 . S
C210 C211 1.380 . S
C210 H228 0.930 . S
C211 C210 1.380 . S
C211 C218 1.357 . S
C212 C203 1.511 . S
C212 C213 1.341 . S
C212 C214 1.371 . S
C213 C212 1.341 . S
C213 C217 1.394 . S
C213 H229 0.930 . S
C214 C212 1.371 . S
C214 C215 1.392 . S
C214 H230 0.931 1_554 S
C215 C214 1.392 . S
C215 C216 1.331 . S
C215 H233 0.932 1_554 S
C216 C215 1.331 . S
C216 C217 1.336 . S
C217 C213 1.394 . S
C217 C216 1.336 . S
C217 H232 0.929 . S
C218 C208 1.386 . S
C218 C211 1.357 . S
C218 H231 0.928 . S
H219 C195 0.931 . S
H220 C197 0.930 . S
H221 C199 0.929 . S
H222 C200 0.931 . S
H223 C202 0.930 . S
H224 C206 0.931 1_556 S
H225 C204 0.931 . S
H226 C208 0.931 . S
H227 C209 0.929 . S
H228 C210 0.930 . S
H229 C213 0.930 . S
H230 C214 0.931 1_556 S
H231 C218 0.928 . S
H232 C217 0.929 . S
H233 C215 0.932 1_556 S
C234 C235 1.386 . S
C234 C236 1.397 . S
C234 H258 0.931 . S
C235 C234 1.386 . S
C235 C239 1.397 . S
C236 C234 1.397 . S
C236 C237 1.384 . S
C236 H259 0.930 . S
C237 C236 1.384 . S
C237 C238 1.377 . S
C237 C240 1.481 . S
C238 C237 1.377 . S
C238 C239 1.389 . S
C238 H260 0.929 . S
C239 C235 1.397 . S
C239 C238 1.389 . S
C239 H261 0.931 . S
C240 C237 1.481 . S
C240 C241 1.387 . S
C240 C245 1.390 . S
C241 C240 1.387 . S
C241 C242 1.401 . S
C241 H262 0.930 . S
C242 C241 1.401 . S
C242 C243 1.376 1_554 S
C242 C251 1.511 . S
C243 C242 1.376 1_556 S
C243 C244 1.392 . S
C243 H264 0.931 . S
C244 C243 1.392 . S
C244 C245 1.361 1_556 S
C244 C246 1.500 . S
C245 C240 1.390 . S
C245 C244 1.361 1_554 S
C245 H263 0.931 1_554 S
C246 C244 1.500 . S
C246 C247 1.371 . S
C246 C248 1.365 . S
C247 C246 1.371 . S
C247 C257 1.386 . S
C247 H265 0.931 . S
C248 C246 1.365 . S
C248 C249 1.409 . S
C248 H266 0.929 . S
C249 C248 1.409 . S
C249 C250 1.380 . S
C249 H267 0.930 . S
C250 C249 1.380 . S
C250 C257 1.357 . S
C251 C242 1.511 . S
C251 C252 1.341 . S
C251 C253 1.371 . S
C252 C251 1.341 . S
C252 C256 1.394 . S
C252 H268 0.930 . S
C253 C251 1.371 . S
C253 C254 1.392 . S
C253 H269 0.931 1_554 S
C254 C253 1.392 . S
C254 C255 1.331 . S
C254 H272 0.932 1_554 S
C255 C254 1.331 . S
C255 C256 1.336 . S
C256 C252 1.394 . S
C256 C255 1.336 . S
C256 H271 0.929 . S
C257 C247 1.386 . S
C257 C250 1.357 . S
C257 H270 0.928 . S
H258 C234 0.931 . S
H259 C236 0.930 . S
H260 C238 0.929 . S
H261 C239 0.931 . S
H262 C241 0.930 . S
H263 C245 0.931 1_556 S
H264 C243 0.931 . S
H265 C247 0.931 . S
H266 C248 0.929 . S
H267 C249 0.930 . S
H268 C252 0.930 . S
H269 C253 0.931 1_556 S
H270 C257 0.928 . S
H271 C256 0.929 . S
H272 C254 0.932 1_556 S
C273 C274 1.386 . S
C273 C275 1.397 . S
C273 H297 0.931 . S
C274 C273 1.386 . S
C274 C278 1.397 . S
C275 C273 1.397 . S
C275 C276 1.384 . S
C275 H298 0.930 . S
C276 C275 1.384 . S
C276 C277 1.377 . S
C276 C279 1.481 . S
C277 C276 1.377 . S
C277 C278 1.389 . S
C277 H299 0.929 . S
C278 C274 1.397 . S
C278 C277 1.389 . S
C278 H300 0.931 . S
C279 C276 1.481 . S
C279 C280 1.387 . S
C279 C284 1.390 1_556 S
C280 C279 1.387 . S
C280 C281 1.401 1_556 S
C280 H301 0.930 . S
C281 C280 1.401 1_554 S
C281 C282 1.376 . S
C281 C290 1.511 . S
C282 C281 1.376 . S
C282 C283 1.392 . S
C282 H303 0.931 . S
C283 C282 1.392 . S
C283 C284 1.361 . S
C283 C285 1.500 . S
C284 C279 1.390 1_554 S
C284 C283 1.361 . S
C284 H302 0.929 1_554 S
C285 C283 1.500 . S
C285 C286 1.371 . S
C285 C287 1.365 . S
C286 C285 1.371 . S
C286 C296 1.386 . S
C286 H304 0.931 . S
C287 C285 1.365 . S
C287 C288 1.409 . S
C287 H305 0.929 . S
C288 C287 1.409 . S
C288 C289 1.380 . S
C288 H306 0.930 . S
C289 C288 1.380 . S
C289 C296 1.357 . S
C290 C281 1.511 . S
C290 C291 1.341 . S
C290 C292 1.371 . S
C291 C290 1.341 . S
C291 C295 1.394 . S
C291 H307 0.930 1_554 S
C292 C290 1.371 . S
C292 C293 1.392 . S
C292 H308 0.931 . S
C293 C292 1.392 . S
C293 C294 1.331 . S
C293 H311 0.932 . S
C294 C293 1.331 . S
C294 C295 1.336 . S
C295 C291 1.394 . S
C295 C294 1.336 . S
C295 H310 0.929 1_554 S
C296 C286 1.386 . S
C296 C289 1.357 . S
C296 H309 0.928 . S
H297 C273 0.931 . S
H298 C275 0.930 . S
H299 C277 0.929 . S
H300 C278 0.931 . S
H301 C280 0.930 . S
H302 C284 0.929 1_556 S
H303 C282 0.931 . S
H304 C286 0.931 . S
H305 C287 0.929 . S
H306 C288 0.930 . S
H307 C291 0.930 1_556 S
H308 C292 0.931 . S
H309 C296 0.928 . S
H310 C295 0.929 1_556 S
H311 C293 0.932 . S
Eu312 N343 2.657 1_565 S
Eu312 N350 2.609 . S
Eu312 O356 2.558 . S
Eu312 O357 2.612 1_455 S
Eu312 O359 2.339 1_455 S
Eu312 O360 2.563 . S
Eu312 O361 2.419 . S
Eu312 O363 2.380 1_565 S
Eu312 O364 2.432 . S
Eu312 C376 2.848 . S
C313 C316 1.429 1_545 S
C313 C317 1.411 . S
C313 N320 1.377 . S
C314 C316 1.420 . S
C314 C318 1.423 . S
C314 C326 1.392 . S
C315 C317 1.420 1_565 S
C315 C318 1.351 . S
C315 H338 0.931 . S
C316 C313 1.429 1_565 S
C316 C314 1.420 . S
C316 N324 1.361 . S
C317 C313 1.411 . S
C317 C315 1.420 1_545 S
C317 C322 1.395 . S
C318 C314 1.423 . S
C318 C315 1.351 . S
C318 H330 0.930 . S
C319 C321 1.400 . S
C319 C322 1.386 . S
C319 H331 0.930 . S
N320 C313 1.377 . S
N320 C321 1.321 . S
N320 Eu323 2.609 . S
C321 C319 1.400 . S
C321 N320 1.321 . S
C321 H328 0.930 . S
C322 C317 1.395 . S
C322 C319 1.386 . S
C322 H341 0.930 . S
Eu323 N320 2.609 . S
Eu323 N324 2.658 1_545 S
Eu323 O357 2.380 1_545 S
Eu323 O358 2.432 . S
Eu323 O362 2.558 . S
Eu323 O363 2.612 1_655 S
Eu323 O365 2.339 1_655 S
Eu323 O366 2.563 1_655 S
Eu323 O367 2.419 . S
Eu323 C387 2.848 . S
N324 C316 1.361 . S
N324 Eu323 2.658 1_565 S
N324 C325 1.333 1_655 S
C325 N324 1.333 1_455 S
C325 C327 1.413 . S
C325 H332 0.929 . S
C326 C314 1.392 . S
C326 C327 1.369 1_655 S
C326 H334 0.930 . S
C327 C325 1.413 . S
C327 C326 1.369 1_455 S
C327 H329 0.928 . S
H328 C321 0.930 . S
H329 C327 0.928 . S
H330 C318 0.930 . S
H331 C319 0.930 . S
H332 C325 0.929 . S
H333 C347 0.930 1_655 S
H334 C326 0.930 . S
H335 C353 0.930 . S
H336 C344 0.929 1_655 S
H337 C351 0.930 . S
H338 C315 0.931 . S
H339 C345 0.930 . S
H340 C378 0.930 . S
H341 C322 0.930 . S
H342 C377 0.931 . S
N343 Eu312 2.657 1_545 S
N343 C344 1.334 . S
N343 C348 1.362 . S
C344 H336 0.929 1_455 S
C344 N343 1.334 . S
C344 C347 1.413 . S
C345 H339 0.930 . S
C345 C346 1.392 . S
C345 C347 1.367 . S
C346 C345 1.392 . S
C346 C348 1.420 . S
C346 C378 1.423 . S
C347 H333 0.930 1_455 S
C347 C344 1.413 . S
C347 C345 1.367 . S
C348 N343 1.362 . S
C348 C346 1.420 . S
C348 C352 1.429 . S
H349 C354 0.928 1_545 S
N350 Eu312 2.609 . S
N350 C352 1.377 1_565 S
N350 C353 1.321 . S
C351 H337 0.930 . S
C351 C353 1.400 . S
C351 C354 1.399 . S
C352 C348 1.429 . S
C352 N350 1.377 1_545 S
C352 C355 1.411 . S
C353 H335 0.930 . S
C353 N350 1.321 . S
C353 C351 1.400 . S
C354 H349 0.928 1_565 S
C354 C351 1.399 . S
C354 C355 1.383 1_565 S
C355 C352 1.411 . S
C355 C354 1.383 1_545 S
C355 C377 1.420 . S
O356 Eu312 2.558 . S
O356 C376 1.257 . S
O357 Eu312 2.612 1_655 S
O357 Eu323 2.380 1_565 S
O357 C368 1.276 . S
O358 Eu323 2.432 . S
O358 C375 1.264 . S
O359 Eu312 2.339 1_655 S
O359 C375 1.254 1_565 S
O360 Eu312 2.563 . S
O360 C368 1.235 1_455 S
O361 Eu312 2.419 . S
O361 C376 1.249 . S
O362 Eu323 2.558 . S
O362 C387 1.257 . S
O363 Eu312 2.380 1_545 S
O363 Eu323 2.612 1_455 S
O363 C379 1.276 . S
O364 Eu312 2.432 . S
O364 C386 1.264 1_565 S
O365 Eu323 2.339 1_455 S
O365 C386 1.254 . S
O366 Eu323 2.563 1_455 S
O366 C379 1.235 . S
O367 Eu323 2.419 . S
O367 C387 1.249 . S
C368 O357 1.276 . S
C368 O360 1.235 1_655 S
C369 C371 1.393 . S
C369 C373 1.395 . S
C369 C376 1.492 . S
C370 C371 1.392 . S
C370 C372 1.386 . S
C371 C369 1.393 . S
C371 C370 1.392 . S
C371 H388 0.926 1_455 S
C372 C370 1.386 . S
C372 C374 1.395 . S
C372 H389 0.930 . S
C373 C369 1.395 . S
C373 C374 1.379 . S
C373 H390 0.930 . S
C374 C372 1.395 . S
C374 C373 1.379 . S
C374 H391 0.930 . S
C375 O358 1.264 . S
C375 O359 1.254 1_545 S
C376 Eu312 2.848 . S
C376 O356 1.257 . S
C376 O361 1.249 . S
C376 C369 1.492 . S
C377 H342 0.931 . S
C377 C355 1.420 . S
C377 C378 1.351 . S
C378 H340 0.930 . S
C378 C346 1.423 . S
C378 C377 1.351 . S
C379 O363 1.276 . S
C379 O366 1.235 . S
C380 C381 1.393 . S
C380 C384 1.395 . S
C380 C387 1.492 . S
C381 C380 1.393 . S
C381 C382 1.392 . S
C381 H392 0.930 1_655 S
C382 C381 1.392 . S
C382 C383 1.386 . S
C383 C382 1.386 . S
C383 C385 1.395 . S
C383 H393 0.930 . S
C384 C380 1.395 . S
C384 C385 1.379 . S
C384 H394 0.930 . S
C385 C383 1.395 . S
C385 C384 1.379 . S
C385 H395 0.930 . S
C386 O364 1.264 1_545 S
C386 O365 1.254 . S
C387 Eu323 2.848 . S
C387 O362 1.257 . S
C387 O367 1.249 . S
C387 C380 1.492 . S
H388 C371 0.926 1_655 S
H389 C372 0.930 . S
H390 C373 0.930 . S
H391 C374 0.930 . S
H392 C381 0.930 1_455 S
H393 C383 0.930 . S
H394 C384 0.930 . S
H395 C385 0.930 . S
Eu396 N427 2.657 . S
Eu396 N434 2.609 . S
Eu396 O440 2.558 . S
Eu396 O441 2.612 1_545 S
Eu396 O443 2.339 1_545 S
Eu396 O444 2.563 . S
Eu396 O445 2.419 . S
Eu396 O447 2.380 . S
Eu396 O448 2.432 . S
Eu396 C460 2.848 . S
C397 C400 1.429 . S
C397 C401 1.411 . S
C397 N404 1.377 . S
C398 C400 1.420 . S
C398 C402 1.423 . S
C398 C410 1.392 . S
C399 C401 1.420 . S
C399 C402 1.351 . S
C399 H422 0.931 . S
C400 C397 1.429 . S
C400 C398 1.420 . S
C400 N408 1.362 . S
C401 C397 1.411 . S
C401 C399 1.420 . S
C401 C406 1.395 . S
C402 C398 1.423 . S
C402 C399 1.351 . S
C402 H414 0.930 . S
C403 C405 1.400 . S
C403 C406 1.386 . S
C403 H415 0.930 . S
N404 C397 1.377 . S
N404 C405 1.321 . S
N404 Eu407 2.609 . S
C405 C403 1.400 . S
C405 N404 1.321 . S
C405 H412 0.930 . S
C406 C401 1.395 . S
C406 C403 1.386 . S
C406 H425 0.930 . S
Eu407 N404 2.609 . S
Eu407 N408 2.657 . S
Eu407 O441 2.380 . S
Eu407 O442 2.432 . S
Eu407 O446 2.558 . S
Eu407 O447 2.612 1_565 S
Eu407 O449 2.339 1_565 S
Eu407 O450 2.563 1_565 S
Eu407 O451 2.419 . S
Eu407 C471 2.848 . S
N408 C400 1.362 . S
N408 Eu407 2.657 . S
N408 C409 1.334 1_565 S
C409 N408 1.334 1_545 S
C409 C411 1.413 . S
C409 H416 0.929 . S
C410 C398 1.392 . S
C410 C411 1.367 1_565 S
C410 H418 0.930 . S
C411 C409 1.413 . S
C411 C410 1.367 1_545 S
C411 H413 0.930 . S
H412 C405 0.930 . S
H413 C411 0.930 . S
H414 C402 0.930 . S
H415 C403 0.930 . S
H416 C409 0.929 . S
H417 C431 0.930 1_565 S
H418 C410 0.930 . S
H419 C437 0.930 . S
H420 C428 0.929 1_565 S
H421 C435 0.930 . S
H422 C399 0.931 . S
H423 C429 0.930 . S
H424 C462 0.930 . S
H425 C406 0.930 . S
H426 C461 0.931 . S
N427 Eu396 2.657 . S
N427 C428 1.334 . S
N427 C432 1.362 . S
C428 H420 0.929 1_545 S
C428 N427 1.334 . S
C428 C431 1.413 . S
C429 H423 0.930 . S
C429 C430 1.392 . S
C429 C431 1.367 . S
C430 C429 1.392 . S
C430 C432 1.420 . S
C430 C462 1.423 . S
C431 H417 0.930 1_545 S
C431 C428 1.413 . S
C431 C429 1.367 . S
C432 N427 1.362 . S
C432 C430 1.420 . S
C432 C436 1.429 . S
H433 C438 0.930 . S
N434 Eu396 2.609 . S
N434 C436 1.377 . S
N434 C437 1.321 . S
C435 H421 0.930 . S
C435 C437 1.400 . S
C435 C438 1.386 . S
C436 C432 1.429 . S
C436 N434 1.377 . S
C436 C439 1.411 . S
C437 H419 0.930 . S
C437 N434 1.321 . S
C437 C435 1.400 . S
C438 H433 0.930 . S
C438 C435 1.386 . S
C438 C439 1.395 . S
C439 C436 1.411 . S
C439 C438 1.395 . S
C439 C461 1.420 . S
O440 Eu396 2.558 . S
O440 C460 1.257 . S
O441 Eu396 2.612 1_565 S
O441 Eu407 2.380 . S
O441 C452 1.276 . S
O442 Eu407 2.432 . S
O442 C459 1.264 . S
O443 Eu396 2.339 1_565 S
O443 C459 1.254 . S
O444 Eu396 2.563 . S
O444 C452 1.235 1_545 S
O445 Eu396 2.419 . S
O445 C460 1.249 . S
O446 Eu407 2.558 . S
O446 C471 1.257 . S
O447 Eu396 2.380 . S
O447 Eu407 2.612 1_545 S
O447 C463 1.276 . S
O448 Eu396 2.432 . S
O448 C470 1.264 . S
O449 Eu407 2.339 1_545 S
O449 C470 1.254 . S
O450 Eu407 2.563 1_545 S
O450 C463 1.235 . S
O451 Eu407 2.419 . S
O451 C471 1.249 . S
C452 O441 1.276 . S
C452 O444 1.235 1_565 S
C453 C455 1.393 . S
C453 C457 1.395 . S
C453 C460 1.492 . S
C454 C455 1.392 . S
C454 C456 1.386 . S
C455 C453 1.393 . S
C455 C454 1.392 . S
C455 H472 0.930 . S
C456 C454 1.386 . S
C456 C458 1.395 . S
C456 H473 0.930 . S
C457 C453 1.395 . S
C457 C458 1.379 . S
C457 H474 0.930 . S
C458 C456 1.395 . S
C458 C457 1.379 . S
C458 H475 0.930 . S
C459 O442 1.264 . S
C459 O443 1.254 . S
C460 Eu396 2.848 . S
C460 O440 1.257 . S
C460 O445 1.249 . S
C460 C453 1.492 . S
C461 H426 0.931 . S
C461 C439 1.420 . S
C461 C462 1.351 . S
C462 H424 0.930 . S
C462 C430 1.423 . S
C462 C461 1.351 . S
C463 O447 1.276 . S
C463 O450 1.235 . S
C464 C465 1.393 . S
C464 C468 1.395 . S
C464 C471 1.492 . S
C465 C464 1.393 . S
C465 C466 1.392 . S
C465 H476 0.930 1_565 S
C466 C465 1.392 . S
C466 C467 1.386 . S
C467 C466 1.386 . S
C467 C469 1.395 . S
C467 H477 0.930 . S
C468 C464 1.395 . S
C468 C469 1.379 . S
C468 H478 0.930 . S
C469 C467 1.395 . S
C469 C468 1.379 . S
C469 H479 0.930 . S
C470 O448 1.264 . S
C470 O449 1.254 . S
C471 Eu407 2.848 . S
C471 O446 1.257 . S
C471 O451 1.249 . S
C471 C464 1.492 . S
H472 C455 0.930 . S
H473 C456 0.930 . S
H474 C457 0.930 . S
H475 C458 0.930 . S
H476 C465 0.930 1_545 S
H477 C467 0.930 . S
H478 C468 0.930 . S
H479 C469 0.930 . S
Eu480 N511 2.657 . S
Eu480 N518 2.609 . S
Eu480 O524 2.558 . S
Eu480 O525 2.612 . S
Eu480 O527 2.339 . S
Eu480 O528 2.563 . S
Eu480 O529 2.419 . S
Eu480 O531 2.380 . S
Eu480 O532 2.432 . S
Eu480 C544 2.848 . S
C481 C484 1.429 . S
C481 C485 1.411 . S
C481 N488 1.377 . S
C482 C484 1.420 . S
C482 C486 1.423 . S
C482 C494 1.392 . S
C483 C485 1.420 . S
C483 C486 1.351 . S
C483 H506 0.931 . S
C484 C481 1.429 . S
C484 C482 1.420 . S
C484 N492 1.362 . S
C485 C481 1.411 . S
C485 C483 1.420 . S
C485 C490 1.395 . S
C486 C482 1.423 . S
C486 C483 1.351 . S
C486 H498 0.930 . S
C487 C489 1.400 . S
C487 C490 1.386 . S
C487 H499 0.930 . S
N488 C481 1.377 . S
N488 C489 1.321 . S
N488 Eu491 2.609 . S
C489 C487 1.400 . S
C489 N488 1.321 . S
C489 H496 0.930 . S
C490 C485 1.395 . S
C490 C487 1.386 . S
C490 H509 0.930 . S
Eu491 N488 2.609 . S
Eu491 N492 2.657 . S
Eu491 O525 2.380 . S
Eu491 O526 2.432 . S
Eu491 O530 2.558 . S
Eu491 O531 2.612 . S
Eu491 O533 2.339 . S
Eu491 O534 2.563 . S
Eu491 O535 2.419 . S
Eu491 C555 2.848 . S
N492 C484 1.362 . S
N492 Eu491 2.657 . S
N492 C493 1.334 . S
C493 N492 1.334 . S
C493 C495 1.413 . S
C493 H500 0.929 . S
C494 C482 1.392 . S
C494 C495 1.367 . S
C494 H502 0.930 . S
C495 C493 1.413 . S
C495 C494 1.367 . S
C495 H497 0.930 . S
H496 C489 0.930 . S
H497 C495 0.930 . S
H498 C486 0.930 . S
H499 C487 0.930 . S
H500 C493 0.929 . S
H501 C515 0.930 . S
H502 C494 0.930 . S
H503 C521 0.930 . S
H504 C512 0.929 . S
H505 C519 0.930 . S
H506 C483 0.931 . S
H507 C513 0.930 . S
H508 C546 0.930 . S
H509 C490 0.930 . S
H510 C545 0.931 . S
N511 Eu480 2.657 . S
N511 C512 1.334 . S
N511 C516 1.362 . S
C512 H504 0.929 . S
C512 N511 1.334 . S
C512 C515 1.413 . S
C513 H507 0.930 . S
C513 C514 1.392 . S
C513 C515 1.367 . S
C514 C513 1.392 . S
C514 C516 1.420 . S
C514 C546 1.423 . S
C515 H501 0.930 . S
C515 C512 1.413 . S
C515 C513 1.367 . S
C516 N511 1.362 . S
C516 C514 1.420 . S
C516 C520 1.429 . S
H517 C522 0.930 . S
N518 Eu480 2.609 . S
N518 C520 1.377 . S
N518 C521 1.321 . S
C519 H505 0.930 . S
C519 C521 1.400 . S
C519 C522 1.386 . S
C520 C516 1.429 . S
C520 N518 1.377 . S
C520 C523 1.411 . S
C521 H503 0.930 . S
C521 N518 1.321 . S
C521 C519 1.400 . S
C522 H517 0.930 . S
C522 C519 1.386 . S
C522 C523 1.395 . S
C523 C520 1.411 . S
C523 C522 1.395 . S
C523 C545 1.420 . S
O524 Eu480 2.558 . S
O524 C544 1.257 . S
O525 Eu480 2.612 . S
O525 Eu491 2.380 . S
O525 C536 1.276 . S
O526 Eu491 2.432 . S
O526 C543 1.264 . S
O527 Eu480 2.339 . S
O527 C543 1.254 . S
O528 Eu480 2.563 . S
O528 C536 1.235 . S
O529 Eu480 2.419 . S
O529 C544 1.249 . S
O530 Eu491 2.558 . S
O530 C555 1.257 . S
O531 Eu480 2.380 . S
O531 Eu491 2.612 . S
O531 C547 1.276 . S
O532 Eu480 2.432 . S
O532 C554 1.264 . S
O533 Eu491 2.339 . S
O533 C554 1.254 . S
O534 Eu491 2.563 . S
O534 C547 1.235 . S
O535 Eu491 2.419 . S
O535 C555 1.249 . S
C536 O525 1.276 . S
C536 O528 1.235 . S
C537 C539 1.393 . S
C537 C541 1.395 . S
C537 C544 1.492 . S
C538 C539 1.392 . S
C538 C540 1.386 . S
C539 C537 1.393 . S
C539 C538 1.392 . S
C539 H556 0.930 . S
C540 C538 1.386 . S
C540 C542 1.395 . S
C540 H557 0.930 . S
C541 C537 1.395 . S
C541 C542 1.379 . S
C541 H558 0.930 . S
C542 C540 1.395 . S
C542 C541 1.379 . S
C542 H559 0.930 . S
C543 O526 1.264 . S
C543 O527 1.254 . S
C544 Eu480 2.848 . S
C544 O524 1.257 . S
C544 O529 1.249 . S
C544 C537 1.492 . S
C545 H510 0.931 . S
C545 C523 1.420 . S
C545 C546 1.351 . S
C546 H508 0.930 . S
C546 C514 1.423 . S
C546 C545 1.351 . S
C547 O531 1.276 . S
C547 O534 1.235 . S
C548 C549 1.393 . S
C548 C552 1.395 . S
C548 C555 1.492 . S
C549 C548 1.393 . S
C549 C550 1.392 . S
C549 H560 0.930 . S
C550 C549 1.392 . S
C550 C551 1.386 . S
C551 C550 1.386 . S
C551 C553 1.395 . S
C551 H561 0.930 . S
C552 C548 1.395 . S
C552 C553 1.379 . S
C552 H562 0.930 . S
C553 C551 1.395 . S
C553 C552 1.379 . S
C553 H563 0.930 . S
C554 O532 1.264 . S
C554 O533 1.254 . S
C555 Eu491 2.848 . S
C555 O530 1.257 . S
C555 O535 1.249 . S
C555 C548 1.492 . S
H556 C539 0.930 . S
H557 C540 0.930 . S
H558 C541 0.930 . S
H559 C542 0.930 . S
H560 C549 0.930 . S
H561 C551 0.930 . S
H562 C552 0.930 . S
H563 C553 0.930 . S
Eu564 N595 2.657 . S
Eu564 N602 2.609 . S
Eu564 O608 2.558 . S
Eu564 O609 2.612 . S
Eu564 O611 2.339 . S
Eu564 O612 2.563 . S
Eu564 O613 2.419 . S
Eu564 O615 2.384 . S
Eu564 O616 2.432 1_455 S
Eu564 C628 2.848 . S
C565 C568 1.429 . S
C565 C569 1.411 . S
C565 N572 1.377 . S
C566 C568 1.420 . S
C566 C570 1.423 . S
C566 C578 1.392 . S
C567 C569 1.420 . S
C567 C570 1.351 . S
C567 H590 0.931 . S
C568 C565 1.429 . S
C568 C566 1.420 . S
C568 N576 1.362 . S
C569 C565 1.411 . S
C569 C567 1.420 . S
C569 C574 1.395 . S
C570 C566 1.423 . S
C570 C567 1.351 . S
C570 H582 0.930 . S
C571 C573 1.400 . S
C571 C574 1.386 1_455 S
C571 H583 0.930 . S
N572 C565 1.377 . S
N572 C573 1.321 1_655 S
N572 Eu575 2.609 . S
C573 C571 1.400 . S
C573 N572 1.321 1_455 S
C573 H580 0.930 . S
C574 C569 1.395 . S
C574 C571 1.386 1_655 S
C574 H593 0.930 . S
Eu575 N572 2.609 . S
Eu575 N576 2.657 . S
Eu575 O609 2.380 1_655 S
Eu575 O610 2.432 1_655 S
Eu575 O614 2.558 . S
Eu575 O615 2.610 1_655 S
Eu575 O617 2.339 . S
Eu575 O618 2.563 . S
Eu575 O619 2.419 . S
Eu575 C639 2.848 . S
N576 C568 1.362 . S
N576 Eu575 2.657 . S
N576 C577 1.334 . S
C577 N576 1.334 . S
C577 C579 1.413 . S
C577 H584 0.929 . S
C578 C566 1.392 . S
C578 C579 1.367 . S
C578 H586 0.930 . S
C579 C577 1.413 . S
C579 C578 1.367 . S
C579 H581 0.930 . S
H580 C573 0.930 . S
H581 C579 0.930 . S
H582 C570 0.930 . S
H583 C571 0.930 . S
H584 C577 0.929 . S
H585 C599 0.930 . S
H586 C578 0.930 . S
H587 C605 0.930 1_655 S
H588 C596 0.929 . S
H589 C603 0.929 . S
H590 C567 0.931 . S
H591 C597 0.930 . S
H592 C630 0.930 . S
H593 C574 0.930 . S
H594 C629 0.931 . S
N595 Eu564 2.657 . S
N595 C596 1.334 . S
N595 C600 1.362 . S
C596 H588 0.929 . S
C596 N595 1.334 . S
C596 C599 1.413 . S
C597 H591 0.930 . S
C597 C598 1.392 . S
C597 C599 1.367 . S
C598 C597 1.392 . S
C598 C600 1.420 . S
C598 C630 1.423 . S
C599 H585 0.930 . S
C599 C596 1.413 . S
C599 C597 1.367 . S
C600 N595 1.362 . S
C600 C598 1.420 . S
C600 C604 1.429 . S
H601 C606 0.930 . S
N602 Eu564 2.609 . S
N602 C604 1.377 . S
N602 C605 1.321 . S
C603 H589 0.929 . S
C603 C605 1.400 1_655 S
C603 C606 1.387 1_655 S
C604 C600 1.429 . S
C604 N602 1.377 . S
C604 C607 1.411 . S
C605 H587 0.930 1_455 S
C605 N602 1.321 . S
C605 C603 1.400 1_455 S
C606 H601 0.930 . S
C606 C603 1.387 1_455 S
C606 C607 1.395 . S
C607 C604 1.411 . S
C607 C606 1.395 . S
C607 C629 1.420 . S
O608 Eu564 2.558 . S
O608 C628 1.257 . S
O609 Eu564 2.612 . S
O609 Eu575 2.380 1_455 S
O609 C620 1.276 . S
O610 Eu575 2.432 1_455 S
O610 C627 1.264 . S
O611 Eu564 2.339 . S
O611 C627 1.254 . S
O612 Eu564 2.563 . S
O612 C620 1.235 . S
O613 Eu564 2.419 . S
O613 C628 1.249 . S
O614 Eu575 2.558 . S
O614 C639 1.257 . S
O615 Eu564 2.384 . S
O615 Eu575 2.610 1_455 S
O615 C631 1.273 1_455 S
O616 Eu564 2.432 1_655 S
O616 C638 1.264 . S
O617 Eu575 2.339 . S
O617 C638 1.254 . S
O618 Eu575 2.563 . S
O618 C631 1.235 . S
O619 Eu575 2.419 . S
O619 C639 1.249 . S
C620 O609 1.276 . S
C620 O612 1.235 . S
C621 C623 1.393 . S
C621 C625 1.395 . S
C621 C628 1.492 . S
C622 C623 1.392 . S
C622 C624 1.386 . S
C623 C621 1.393 . S
C623 C622 1.392 . S
C623 H640 0.930 . S
C624 C622 1.386 . S
C624 C626 1.395 . S
C624 H641 0.930 . S
C625 C621 1.395 . S
C625 C626 1.379 . S
C625 H642 0.930 . S
C626 C624 1.395 . S
C626 C625 1.379 . S
C626 H643 0.930 . S
C627 O610 1.264 . S
C627 O611 1.254 . S
C628 Eu564 2.848 . S
C628 O608 1.257 . S
C628 O613 1.249 . S
C628 C621 1.492 . S
C629 H594 0.931 . S
C629 C607 1.420 . S
C629 C630 1.351 . S
C630 H592 0.930 . S
C630 C598 1.423 . S
C630 C629 1.351 . S
C631 O615 1.273 1_655 S
C631 O618 1.235 . S
C632 C633 1.393 . S
C632 C636 1.395 . S
C632 C639 1.492 . S
C633 C632 1.393 . S
C633 C634 1.392 . S
C633 H644 0.930 . S
C634 C633 1.392 . S
C634 C635 1.386 . S
C635 C634 1.386 . S
C635 C637 1.395 . S
C635 H645 0.930 . S
C636 C632 1.395 . S
C636 C637 1.379 . S
C636 H646 0.930 . S
C637 C635 1.395 . S
C637 C636 1.379 . S
C637 H647 0.930 . S
C638 O616 1.264 . S
C638 O617 1.254 . S
C639 Eu575 2.848 . S
C639 O614 1.257 . S
C639 O619 1.249 . S
C639 C632 1.492 . S
H640 C623 0.930 . S
H641 C624 0.930 . S
H642 C625 0.930 . S
H643 C626 0.930 . S
H644 C633 0.930 . S
H645 C635 0.930 . S
H646 C636 0.930 . S
H647 C637 0.930 . S
H648 C660 0.930 . S
H649 C662 0.930 . S
H650 C663 0.930 . S
H651 C667 0.959 . S
H652 C667 0.959 1_565 S
H653 C667 0.961 . S
H654 C668 0.960 . S
H655 C668 0.961 . S
H656 C668 0.959 1_545 S
H657 C671 0.929 . S
H658 C672 0.931 . S
H659 C674 0.930 . S
C660 H648 0.930 . S
C660 C661 1.399 . S
C660 C665 1.399 . S
C661 C660 1.399 . S
C661 C662 1.376 . S
C662 H649 0.930 . S
C662 C661 1.376 . S
C662 C663 1.388 . S
C663 H650 0.930 . S
C663 C662 1.388 . S
C663 C664 1.390 . S
C664 C663 1.390 . S
C664 C665 1.394 . S
C664 C670 1.465 . S
C665 C660 1.399 . S
C665 C664 1.394 . S
C665 C666 1.516 . S
C666 C665 1.516 . S
C666 C667 1.502 . S
C666 C668 1.561 1_545 S
C666 C669 1.526 . S
C667 H651 0.959 . S
C667 H652 0.959 1_545 S
C667 H653 0.961 . S
C667 C666 1.502 . S
C668 H654 0.960 . S
C668 H655 0.961 . S
C668 H656 0.959 1_565 S
C668 C666 1.561 1_565 S
C669 C666 1.526 . S
C669 C670 1.396 . S
C669 C674 1.390 . S
C670 C664 1.465 . S
C670 C669 1.396 . S
C670 C671 1.399 . S
C671 H657 0.929 . S
C671 C670 1.399 . S
C671 C672 1.385 . S
C672 H658 0.931 . S
C672 C671 1.385 . S
C672 C673 1.389 . S
C673 C672 1.389 . S
C673 C674 1.387 . S
C674 H659 0.930 . S
C674 C669 1.390 . S
C674 C673 1.387 . S
H675 C687 0.930 . S
H676 C689 0.930 . S
H677 C690 0.930 . S
H678 C694 0.959 . S
H679 C694 0.959 . S
H680 C694 0.961 . S
H681 C695 0.960 . S
H682 C695 0.961 . S
H683 C695 0.959 . S
H684 C698 0.929 . S
H685 C699 0.931 . S
H686 C701 0.930 . S
C687 H675 0.930 . S
C687 C688 1.399 . S
C687 C692 1.399 . S
C688 C687 1.399 . S
C688 C689 1.376 . S
C689 H676 0.930 . S
C689 C688 1.376 . S
C689 C690 1.388 . S
C690 H677 0.930 . S
C690 C689 1.388 . S
C690 C691 1.390 . S
C691 C690 1.390 . S
C691 C692 1.394 . S
C691 C697 1.465 . S
C692 C687 1.399 . S
C692 C691 1.394 . S
C692 C693 1.516 . S
C693 C692 1.516 . S
C693 C694 1.502 . S
C693 C695 1.561 . S
C693 C696 1.526 . S
C694 H678 0.959 . S
C694 H679 0.959 . S
C694 H680 0.961 . S
C694 C693 1.502 . S
C695 H681 0.960 . S
C695 H682 0.961 . S
C695 H683 0.959 . S
C695 C693 1.561 . S
C696 C693 1.526 . S
C696 C697 1.396 . S
C696 C701 1.390 . S
C697 C691 1.465 . S
C697 C696 1.396 . S
C697 C698 1.399 . S
C698 H684 0.929 . S
C698 C697 1.399 . S
C698 C699 1.385 . S
C699 H685 0.931 . S
C699 C698 1.385 . S
C699 C700 1.389 . S
C700 C699 1.389 . S
C700 C701 1.387 . S
C701 H686 0.930 . S
C701 C696 1.390 . S
C701 C700 1.387 . S
H702 C714 0.930 . S
H703 C716 0.930 . S
H704 C717 0.930 . S
H705 C721 0.959 . S
H706 C721 0.959 . S
H707 C721 0.961 . S
H708 C722 0.960 . S
H709 C722 0.961 . S
H710 C722 0.959 . S
H711 C725 0.929 . S
H712 C726 0.931 . S
H713 C728 0.930 . S
C714 H702 0.930 . S
C714 C715 1.399 . S
C714 C719 1.399 . S
C715 C714 1.399 . S
C715 C716 1.376 . S
C716 H703 0.930 . S
C716 C715 1.376 . S
C716 C717 1.388 . S
C717 H704 0.930 . S
C717 C716 1.388 . S
C717 C718 1.390 . S
C718 C717 1.390 . S
C718 C719 1.394 . S
C718 C724 1.465 . S
C719 C714 1.399 . S
C719 C718 1.394 . S
C719 C720 1.516 . S
C720 C719 1.516 . S
C720 C721 1.502 . S
C720 C722 1.561 . S
C720 C723 1.526 . S
C721 H705 0.959 . S
C721 H706 0.959 . S
C721 H707 0.961 . S
C721 C720 1.502 . S
C722 H708 0.960 . S
C722 H709 0.961 . S
C722 H710 0.959 . S
C722 C720 1.561 . S
C723 C720 1.526 . S
C723 C724 1.396 . S
C723 C728 1.390 . S
C724 C718 1.465 . S
C724 C723 1.396 . S
C724 C725 1.399 . S
C725 H711 0.929 . S
C725 C724 1.399 . S
C725 C726 1.385 . S
C726 H712 0.931 . S
C726 C725 1.385 . S
C726 C727 1.389 . S
C727 C726 1.389 . S
C727 C728 1.387 . S
C728 H713 0.930 . S
C728 C723 1.390 . S
C728 C727 1.387 . S
H729 C741 0.930 . S
H730 C743 0.930 . S
H731 C744 0.930 . S
H732 C748 0.959 . S
H733 C748 0.959 . S
H734 C748 0.961 . S
H735 C749 0.960 . S
H736 C749 0.961 . S
H737 C749 0.959 . S
H738 C752 0.929 1_655 S
H739 C753 0.931 1_655 S
H740 C755 0.930 . S
C741 H729 0.930 . S
C741 C742 1.399 . S
C741 C746 1.399 . S
C742 C741 1.399 . S
C742 C743 1.376 . S
C743 H730 0.930 . S
C743 C742 1.376 . S
C743 C744 1.388 . S
C744 H731 0.930 . S
C744 C743 1.388 . S
C744 C745 1.390 . S
C745 C744 1.390 . S
C745 C746 1.394 . S
C745 C751 1.465 . S
C746 C741 1.399 . S
C746 C745 1.394 . S
C746 C747 1.516 . S
C747 C746 1.516 . S
C747 C748 1.502 . S
C747 C749 1.561 . S
C747 C750 1.526 . S
C748 H732 0.959 . S
C748 H733 0.959 . S
C748 H734 0.961 . S
C748 C747 1.502 . S
C749 H735 0.960 . S
C749 H736 0.961 . S
C749 H737 0.959 . S
C749 C747 1.561 . S
C750 C747 1.526 . S
C750 C751 1.396 . S
C750 C755 1.390 . S
C751 C745 1.465 . S
C751 C750 1.396 . S
C751 C752 1.399 . S
C752 H738 0.929 1_455 S
C752 C751 1.399 . S
C752 C753 1.385 . S
C753 H739 0.931 1_455 S
C753 C752 1.385 . S
C753 C754 1.389 . S
C754 C753 1.389 . S
C754 C755 1.387 . S
C755 H740 0.930 . S
C755 C750 1.390 . S
C755 C754 1.387 . S
H756 C768 0.930 . S
H757 C770 0.930 . S
H758 C771 0.930 . S
H759 C775 0.959 1_565 S
H760 C775 0.959 . S
H761 C775 0.961 . S
H762 C776 0.960 1_554 S
H763 C776 0.961 . S
H764 C776 0.959 . S
H765 C779 0.929 . S
H766 C780 0.931 . S
H767 C782 0.930 1_545 S
C768 H756 0.930 . S
C768 C769 1.399 . S
C768 C773 1.399 1_554 S
C769 C768 1.399 . S
C769 C770 1.376 . S
C770 H757 0.930 . S
C770 C769 1.376 . S
C770 C771 1.388 1_554 S
C771 H758 0.930 . S
C771 C770 1.388 1_556 S
C771 C772 1.390 . S
C772 C771 1.390 . S
C772 C773 1.394 . S
C772 C778 1.465 . S
C773 C768 1.399 1_556 S
C773 C772 1.394 . S
C773 C774 1.516 . S
C774 C773 1.516 . S
C774 C775 1.502 1_565 S
C774 C776 1.561 1_565 S
C774 C777 1.526 . S
C775 H759 0.959 1_545 S
C775 H760 0.959 . S
C775 H761 0.961 . S
C775 C774 1.502 1_545 S
C776 H762 0.960 1_556 S
C776 H763 0.961 . S
C776 H764 0.959 . S
C776 C774 1.561 1_545 S
C777 C774 1.526 . S
C777 C778 1.396 . S
C777 C782 1.390 . S
C778 C772 1.465 . S
C778 C777 1.396 . S
C778 C779 1.399 . S
C779 H765 0.929 . S
C779 C778 1.399 . S
C779 C780 1.385 . S
C780 H766 0.931 . S
C780 C779 1.385 . S
C780 C781 1.389 . S
C781 C780 1.389 . S
C781 C782 1.387 . S
C782 H767 0.930 1_565 S
C782 C777 1.390 . S
C782 C781 1.387 . S
H783 C795 0.930 1_556 S
H784 C797 0.930 . S
H785 C798 0.930 . S
H786 C802 0.959 . S
H787 C802 0.959 . S
H788 C802 0.961 . S
H789 C803 0.960 . S
H790 C803 0.961 . S
H791 C803 0.959 . S
H792 C806 0.929 . S
H793 C807 0.931 . S
H794 C809 0.930 . S
C795 H783 0.930 1_554 S
C795 C796 1.399 . S
C795 C800 1.399 1_554 S
C796 C795 1.399 . S
C796 C797 1.376 . S
C797 H784 0.930 . S
C797 C796 1.376 . S
C797 C798 1.388 . S
C798 H785 0.930 . S
C798 C797 1.388 . S
C798 C799 1.390 1_554 S
C799 C798 1.390 1_556 S
C799 C800 1.394 . S
C799 C805 1.465 . S
C800 C795 1.399 1_556 S
C800 C799 1.394 . S
C800 C801 1.516 . S
C801 C800 1.516 . S
C801 C802 1.502 . S
C801 C803 1.561 . S
C801 C804 1.526 . S
C802 H786 0.959 . S
C802 H787 0.959 . S
C802 H788 0.961 . S
C802 C801 1.502 . S
C803 H789 0.960 . S
C803 H790 0.961 . S
C803 H791 0.959 . S
C803 C801 1.561 . S
C804 C801 1.526 . S
C804 C805 1.396 . S
C804 C809 1.390 . S
C805 C799 1.465 . S
C805 C804 1.396 . S
C805 C806 1.399 . S
C806 H792 0.929 . S
C806 C805 1.399 . S
C806 C807 1.385 . S
C807 H793 0.931 . S
C807 C806 1.385 . S
C807 C808 1.389 . S
C808 C807 1.389 . S
C808 C809 1.387 . S
C809 H794 0.930 . S
C809 C804 1.390 . S
C809 C808 1.387 . S
H810 C822 0.930 . S
H811 C824 0.930 . S
H812 C825 0.930 . S
H813 C829 0.959 . S
H814 C829 0.959 . S
H815 C829 0.961 . S
H816 C830 0.960 1_554 S
H817 C830 0.961 . S
H818 C830 0.959 . S
H819 C833 0.929 . S
H820 C834 0.931 . S
H821 C836 0.930 . S
C822 H810 0.930 . S
C822 C823 1.399 . S
C822 C827 1.399 1_554 S
C823 C822 1.399 . S
C823 C824 1.376 . S
C824 H811 0.930 . S
C824 C823 1.376 . S
C824 C825 1.388 1_554 S
C825 H812 0.930 . S
C825 C824 1.388 1_556 S
C825 C826 1.390 . S
C826 C825 1.390 . S
C826 C827 1.394 . S
C826 C832 1.465 . S
C827 C822 1.399 1_556 S
C827 C826 1.394 . S
C827 C828 1.516 . S
C828 C827 1.516 . S
C828 C829 1.502 . S
C828 C830 1.561 . S
C828 C831 1.526 . S
C829 H813 0.959 . S
C829 H814 0.959 . S
C829 H815 0.961 . S
C829 C828 1.502 . S
C830 H816 0.960 1_556 S
C830 H817 0.961 . S
C830 H818 0.959 . S
C830 C828 1.561 . S
C831 C828 1.526 . S
C831 C832 1.396 . S
C831 C836 1.390 . S
C832 C826 1.465 . S
C832 C831 1.396 . S
C832 C833 1.399 . S
C833 H819 0.929 . S
C833 C832 1.399 . S
C833 C834 1.385 . S
C834 H820 0.931 . S
C834 C833 1.385 . S
C834 C835 1.389 . S
C835 C834 1.389 . S
C835 C836 1.387 . S
C836 H821 0.930 . S
C836 C831 1.390 . S
C836 C835 1.387 . S
H837 C849 0.932 . S
H838 C851 0.930 . S
H839 C852 0.930 . S
H840 C856 0.959 . S
H841 C856 0.959 . S
H842 C856 0.961 . S
H843 C857 0.960 . S
H844 C857 0.961 . S
H845 C857 0.993 . S
H846 C860 0.929 . S
H847 C861 0.931 . S
H848 C863 0.930 . S
C849 H837 0.932 . S
C849 C850 1.399 . S
C849 C854 1.399 1_554 S
C850 C849 1.399 . S
C850 C851 1.376 . S
C851 H838 0.930 . S
C851 C850 1.376 . S
C851 C852 1.388 . S
C852 H839 0.930 . S
C852 C851 1.388 . S
C852 C853 1.390 1_554 S
C853 C852 1.390 1_556 S
C853 C854 1.394 . S
C853 C859 1.465 . S
C854 C849 1.399 1_556 S
C854 C853 1.394 . S
C854 C855 1.516 . S
C855 C854 1.516 . S
C855 C856 1.502 . S
C855 C857 1.561 . S
C855 C858 1.526 . S
C856 H840 0.959 . S
C856 H841 0.959 . S
C856 H842 0.961 . S
C856 C855 1.502 . S
C857 H843 0.960 . S
C857 H844 0.961 . S
C857 H845 0.993 . S
C857 C855 1.561 . S
C858 C855 1.526 . S
C858 C859 1.396 . S
C858 C863 1.390 . S
C859 C853 1.465 . S
C859 C858 1.396 . S
C859 C860 1.399 . S
C860 H846 0.929 . S
C860 C859 1.399 . S
C860 C861 1.385 . S
C861 H847 0.931 . S
C861 C860 1.385 . S
C861 C862 1.389 . S
C862 C861 1.389 . S
C862 C863 1.387 . S
C863 H848 0.930 . S
C863 C858 1.390 . S
C863 C862 1.387 . S
H864 C876 0.930 . S
H865 C878 0.930 . S
H866 C879 0.930 . S
H867 C883 0.959 . S
H868 C883 0.959 . S
H869 C883 0.961 . S
H870 C884 0.960 . S
H871 C884 0.961 . S
H872 C884 0.959 . S
H873 C887 0.929 . S
H874 C888 0.931 . S
H875 C890 0.930 . S
C876 H864 0.930 . S
C876 C877 1.399 . S
C876 C881 1.399 . S
C877 C876 1.399 . S
C877 C878 1.376 . S
C878 H865 0.930 . S
C878 C877 1.376 . S
C878 C879 1.388 . S
C879 H866 0.930 . S
C879 C878 1.388 . S
C879 C880 1.390 . S
C880 C879 1.390 . S
C880 C881 1.394 . S
C880 C886 1.465 . S
C881 C876 1.399 . S
C881 C880 1.394 . S
C881 C882 1.516 . S
C882 C881 1.516 . S
C882 C883 1.502 . S
C882 C884 1.561 . S
C882 C885 1.526 . S
C883 H867 0.959 . S
C883 H868 0.959 . S
C883 H869 0.961 . S
C883 C882 1.502 . S
C884 H870 0.960 . S
C884 H871 0.961 . S
C884 H872 0.959 . S
C884 C882 1.561 . S
C885 C882 1.526 . S
C885 C886 1.396 . S
C885 C890 1.390 . S
C886 C880 1.465 . S
C886 C885 1.396 . S
C886 C887 1.399 . S
C887 H873 0.929 . S
C887 C886 1.399 . S
C887 C888 1.385 . S
C888 H874 0.931 . S
C888 C887 1.385 . S
C888 C889 1.389 . S
C889 C888 1.389 . S
C889 C890 1.387 . S
C890 H875 0.930 . S
C890 C885 1.390 . S
C890 C889 1.387 . S
H891 C903 0.930 . S
H892 C905 0.930 . S
H893 C906 0.930 . S
H894 C910 0.959 . S
H895 C910 0.959 . S
H896 C910 0.961 . S
H897 C911 0.955 1_545 S
H898 C911 0.961 . S
H899 C911 0.959 . S
H900 C914 0.929 . S
H901 C915 0.931 . S
H902 C917 0.930 1_565 S
C903 H891 0.930 . S
C903 C904 1.399 . S
C903 C908 1.399 . S
C904 C903 1.399 . S
C904 C905 1.376 . S
C905 H892 0.930 . S
C905 C904 1.376 . S
C905 C906 1.388 . S
C906 H893 0.930 . S
C906 C905 1.388 . S
C906 C907 1.390 . S
C907 C906 1.390 . S
C907 C908 1.394 . S
C907 C913 1.465 . S
C908 C903 1.399 . S
C908 C907 1.394 . S
C908 C909 1.516 . S
C909 C908 1.516 . S
C909 C910 1.502 . S
C909 C911 1.561 1_545 S
C909 C912 1.526 . S
C910 H894 0.959 . S
C910 H895 0.959 . S
C910 H896 0.961 . S
C910 C909 1.502 . S
C911 H897 0.955 1_565 S
C911 H898 0.961 . S
C911 H899 0.959 . S
C911 C909 1.561 1_565 S
C912 C909 1.526 . S
C912 C913 1.396 . S
C912 C917 1.390 . S
C913 C907 1.465 . S
C913 C912 1.396 . S
C913 C914 1.399 . S
C914 H900 0.929 . S
C914 C913 1.399 . S
C914 C915 1.385 . S
C915 H901 0.931 . S
C915 C914 1.385 . S
C915 C916 1.389 . S
C916 C915 1.389 . S
C916 C917 1.387 . S
C917 H902 0.930 1_545 S
C917 C912 1.390 . S
C917 C916 1.387 . S
H918 C930 0.930 . S
H919 C932 0.930 . S
H920 C933 0.930 . S
H921 C937 0.959 . S
H922 C937 0.959 . S
H923 C937 0.961 . S
H924 C938 0.960 . S
H925 C938 0.961 . S
H926 C938 0.959 . S
H927 C941 0.929 . S
H928 C942 0.931 . S
H929 C944 0.930 . S
C930 H918 0.930 . S
C930 C931 1.399 . S
C930 C935 1.399 . S
C931 C930 1.399 . S
C931 C932 1.376 . S
C932 H919 0.930 . S
C932 C931 1.376 . S
C932 C933 1.388 . S
C933 H920 0.930 . S
C933 C932 1.388 . S
C933 C934 1.390 . S
C934 C933 1.390 . S
C934 C935 1.394 . S
C934 C940 1.465 . S
C935 C930 1.399 . S
C935 C934 1.394 . S
C935 C936 1.516 . S
C936 C935 1.516 . S
C936 C937 1.502 . S
C936 C938 1.561 . S
C936 C939 1.526 . S
C937 H921 0.959 . S
C937 H922 0.959 . S
C937 H923 0.961 . S
C937 C936 1.502 . S
C938 H924 0.960 . S
C938 H925 0.961 . S
C938 H926 0.959 . S
C938 C936 1.561 . S
C939 C936 1.526 . S
C939 C940 1.396 . S
C939 C944 1.390 . S
C940 C934 1.465 . S
C940 C939 1.396 . S
C940 C941 1.399 . S
C941 H927 0.929 . S
C941 C940 1.399 . S
C941 C942 1.385 . S
C942 H928 0.931 . S
C942 C941 1.385 . S
C942 C943 1.389 . S
C943 C942 1.389 . S
C943 C944 1.387 . S
C944 H929 0.930 . S
C944 C939 1.390 . S
C944 C943 1.387 . S
H945 C957 0.930 . S
H946 C959 0.930 . S
H947 C960 0.930 . S
H948 C964 0.959 . S
H949 C964 0.959 . S
H950 C964 0.961 . S
H951 C965 0.960 . S
H952 C965 0.961 . S
H953 C965 0.959 . S
H954 C968 0.929 . S
H955 C969 0.931 . S
H956 C971 0.930 . S
C957 H945 0.930 . S
C957 C958 1.399 . S
C957 C962 1.399 . S
C958 C957 1.399 . S
C958 C959 1.376 . S
C959 H946 0.930 . S
C959 C958 1.376 . S
C959 C960 1.388 . S
C960 H947 0.930 . S
C960 C959 1.388 . S
C960 C961 1.390 . S
C961 C960 1.390 . S
C961 C962 1.394 . S
C961 C967 1.465 . S
C962 C957 1.399 . S
C962 C961 1.394 . S
C962 C963 1.516 . S
C963 C962 1.516 . S
C963 C964 1.502 . S
C963 C965 1.561 . S
C963 C966 1.526 . S
C964 H948 0.959 . S
C964 H949 0.959 . S
C964 H950 0.961 . S
C964 C963 1.502 . S
C965 H951 0.960 . S
C965 H952 0.961 . S
C965 H953 0.959 . S
C965 C963 1.561 . S
C966 C963 1.526 . S
C966 C967 1.396 . S
C966 C971 1.390 . S
C967 C961 1.465 . S
C967 C966 1.396 . S
C967 C968 1.399 . S
C968 H954 0.929 . S
C968 C967 1.399 . S
C968 C969 1.385 . S
C969 H955 0.931 . S
C969 C968 1.385 . S
C969 C970 1.389 . S
C970 C969 1.389 . S
C970 C971 1.387 . S
C971 H956 0.930 . S
C971 C966 1.390 . S
C971 C970 1.387 . S
H972 C984 0.930 . S
H973 C986 0.930 . S
H974 C987 0.930 . S
H975 C991 0.959 1_556 S
H976 C991 0.959 . S
H977 C991 0.961 . S
H978 C992 0.960 . S
H979 C992 0.961 . S
H980 C992 0.959 . S
H981 C995 0.929 . S
H982 C996 0.931 . S
H983 C998 0.930 . S
C984 H972 0.930 . S
C984 C985 1.399 1_554 S
C984 C989 1.399 1_554 S
C985 C984 1.399 1_556 S
C985 C986 1.376 . S
C986 H973 0.930 . S
C986 C985 1.376 . S
C986 C987 1.388 . S
C987 H974 0.930 . S
C987 C986 1.388 . S
C987 C988 1.390 . S
C988 C987 1.390 . S
C988 C989 1.394 . S
C988 C994 1.465 . S
C989 C984 1.399 1_556 S
C989 C988 1.394 . S
C989 C990 1.516 . S
C990 C989 1.516 . S
C990 C991 1.502 1_556 S
C990 C992 1.561 1_556 S
C990 C993 1.526 . S
C991 H975 0.959 1_554 S
C991 H976 0.959 . S
C991 H977 0.961 . S
C991 C990 1.502 1_554 S
C992 H978 0.960 . S
C992 H979 0.961 . S
C992 H980 0.959 . S
C992 C990 1.561 1_554 S
C993 C990 1.526 . S
C993 C994 1.396 . S
C993 C998 1.390 . S
C994 C988 1.465 . S
C994 C993 1.396 . S
C994 C995 1.399 . S
C995 H981 0.929 . S
C995 C994 1.399 . S
C995 C996 1.385 1_655 S
C996 H982 0.931 . S
C996 C995 1.385 1_455 S
C996 C997 1.389 . S
C997 C996 1.389 . S
C997 C998 1.387 1_455 S
C998 H983 0.930 . S
C998 C993 1.390 . S
C998 C997 1.387 1_655 S
H999 C1011 0.930 . S
H1000 C1013 0.930 . S
H1001 C1014 0.930 . S
H1002 C1018 0.959 . S
H1003 C1018 0.959 . S
H1004 C1018 0.961 . S
H1005 C1019 0.960 . S
H1006 C1019 0.961 . S
H1007 C1019 0.959 1_556 S
H1008 C1022 0.929 . S
H1009 C1023 0.931 1_545 S
H1010 C1025 0.930 . S
C1011 H999 0.930 . S
C1011 C1012 1.399 1_554 S
C1011 C1016 1.399 1_554 S
C1012 C1011 1.399 1_556 S
C1012 C1013 1.376 . S
C1013 H1000 0.930 . S
C1013 C1012 1.376 . S
C1013 C1014 1.388 . S
C1014 H1001 0.930 . S
C1014 C1013 1.388 . S
C1014 C1015 1.390 . S
C1015 C1014 1.390 . S
C1015 C1016 1.394 . S
C1015 C1021 1.465 . S
C1016 C1011 1.399 1_556 S
C1016 C1015 1.394 . S
C1016 C1017 1.516 . S
C1017 C1016 1.516 . S
C1017 C1018 1.502 1_556 S
C1017 C1019 1.561 1_566 S
C1017 C1020 1.526 . S
C1018 H1002 0.959 . S
C1018 H1003 0.959 . S
C1018 H1004 0.961 . S
C1018 C1017 1.502 1_554 S
C1019 H1005 0.960 . S
C1019 H1006 0.961 . S
C1019 H1007 0.959 1_554 S
C1019 C1017 1.561 1_544 S
C1020 C1017 1.526 . S
C1020 C1021 1.396 . S
C1020 C1025 1.390 1_565 S
C1021 C1015 1.465 . S
C1021 C1020 1.396 . S
C1021 C1022 1.399 . S
C1022 H1008 0.929 . S
C1022 C1021 1.399 . S
C1022 C1023 1.385 . S
C1023 H1009 0.931 1_565 S
C1023 C1022 1.385 . S
C1023 C1024 1.389 1_565 S
C1024 C1023 1.389 1_545 S
C1024 C1025 1.387 . S
C1025 H1010 0.930 . S
C1025 C1020 1.390 1_545 S
C1025 C1024 1.387 . S
H1026 C1038 0.930 . S
H1027 C1040 0.930 . S
H1028 C1041 0.930 1_554 S
H1029 C1045 0.959 . S
H1030 C1045 0.959 . S
H1031 C1045 0.961 . S
H1032 C1046 0.960 . S
H1033 C1046 0.961 . S
H1034 C1046 0.959 . S
H1035 C1049 0.929 . S
H1036 C1050 0.931 . S
H1037 C1052 0.930 . S
C1038 H1026 0.930 . S
C1038 C1039 1.399 . S
C1038 C1043 1.399 . S
C1039 C1038 1.399 . S
C1039 C1040 1.376 1_556 S
C1040 H1027 0.930 . S
C1040 C1039 1.376 1_554 S
C1040 C1041 1.388 1_554 S
C1041 H1028 0.930 1_556 S
C1041 C1040 1.388 1_556 S
C1041 C1042 1.390 . S
C1042 C1041 1.390 . S
C1042 C1043 1.394 . S
C1042 C1048 1.465 . S
C1043 C1038 1.399 . S
C1043 C1042 1.394 . S
C1043 C1044 1.516 . S
C1044 C1043 1.516 . S
C1044 C1045 1.502 . S
C1044 C1046 1.561 . S
C1044 C1047 1.526 . S
C1045 H1029 0.959 . S
C1045 H1030 0.959 . S
C1045 H1031 0.961 . S
C1045 C1044 1.502 . S
C1046 H1032 0.960 . S
C1046 H1033 0.961 . S
C1046 H1034 0.959 . S
C1046 C1044 1.561 . S
C1047 C1044 1.526 . S
C1047 C1048 1.396 . S
C1047 C1052 1.390 . S
C1048 C1042 1.465 . S
C1048 C1047 1.396 . S
C1048 C1049 1.399 . S
C1049 H1035 0.929 . S
C1049 C1048 1.399 . S
C1049 C1050 1.385 . S
C1050 H1036 0.931 . S
C1050 C1049 1.385 . S
C1050 C1051 1.389 . S
C1051 C1050 1.389 . S
C1051 C1052 1.387 . S
C1052 H1037 0.930 . S
C1052 C1047 1.390 . S
C1052 C1051 1.387 . S
H1053 C1065 0.930 . S
H1054 C1067 0.930 . S
H1055 C1068 0.930 . S
H1056 C1072 0.959 . S
H1057 C1072 0.959 . S
H1058 C1072 0.961 . S
H1059 C1073 0.960 . S
H1060 C1073 0.961 . S
H1061 C1073 0.959 1_556 S
H1062 C1076 0.929 . S
H1063 C1077 0.931 . S
H1064 C1079 0.930 . S
C1065 H1053 0.930 . S
C1065 C1066 1.399 1_554 S
C1065 C1070 1.399 1_554 S
C1066 C1065 1.399 1_556 S
C1066 C1067 1.376 . S
C1067 H1054 0.930 . S
C1067 C1066 1.376 . S
C1067 C1068 1.388 . S
C1068 H1055 0.930 . S
C1068 C1067 1.388 . S
C1068 C1069 1.390 . S
C1069 C1068 1.390 . S
C1069 C1070 1.394 . S
C1069 C1075 1.465 . S
C1070 C1065 1.399 1_556 S
C1070 C1069 1.394 . S
C1070 C1071 1.516 . S
C1071 C1070 1.516 . S
C1071 C1072 1.502 1_556 S
C1071 C1073 1.561 1_556 S
C1071 C1074 1.526 . S
C1072 H1056 0.959 . S
C1072 H1057 0.959 . S
C1072 H1058 0.961 . S
C1072 C1071 1.502 1_554 S
C1073 H1059 0.960 . S
C1073 H1060 0.961 . S
C1073 H1061 0.959 1_554 S
C1073 C1071 1.561 1_554 S
C1074 C1071 1.526 . S
C1074 C1075 1.396 . S
C1074 C1079 1.390 . S
C1075 C1069 1.465 . S
C1075 C1074 1.396 . S
C1075 C1076 1.399 . S
C1076 H1062 0.929 . S
C1076 C1075 1.399 . S
C1076 C1077 1.385 . S
C1077 H1063 0.931 . S
C1077 C1076 1.385 . S
C1077 C1078 1.389 . S
C1078 C1077 1.389 . S
C1078 C1079 1.387 . S
C1079 H1064 0.930 . S
C1079 C1074 1.390 . S
C1079 C1078 1.387 . S
H1080 C1092 0.930 . S
H1081 C1094 0.930 . S
H1082 C1095 0.930 . S
H1083 C1099 0.959 . S
H1084 C1099 0.959 . S
H1085 C1099 0.961 . S
H1086 C1100 0.960 . S
H1087 C1100 0.961 . S
H1088 C1100 0.959 . S
H1089 C1103 0.929 . S
H1090 C1104 0.931 . S
H1091 C1106 0.930 . S
C1092 H1080 0.930 . S
C1092 C1093 1.399 . S
C1092 C1097 1.399 . S
C1093 C1092 1.399 . S
C1093 C1094 1.376 . S
C1094 H1081 0.930 . S
C1094 C1093 1.376 . S
C1094 C1095 1.388 . S
C1095 H1082 0.930 . S
C1095 C1094 1.388 . S
C1095 C1096 1.390 . S
C1096 C1095 1.390 . S
C1096 C1097 1.394 . S
C1096 C1102 1.465 . S
C1097 C1092 1.399 . S
C1097 C1096 1.394 . S
C1097 C1098 1.516 . S
C1098 C1097 1.516 . S
C1098 C1099 1.502 . S
C1098 C1100 1.561 . S
C1098 C1101 1.526 . S
C1099 H1083 0.959 . S
C1099 H1084 0.959 . S
C1099 H1085 0.961 . S
C1099 C1098 1.502 . S
C1100 H1086 0.960 . S
C1100 H1087 0.961 . S
C1100 H1088 0.959 . S
C1100 C1098 1.561 . S
C1101 C1098 1.526 . S
C1101 C1102 1.396 . S
C1101 C1106 1.390 . S
C1102 C1096 1.465 . S
C1102 C1101 1.396 . S
C1102 C1103 1.399 . S
C1103 H1089 0.929 . S
C1103 C1102 1.399 . S
C1103 C1104 1.385 . S
C1104 H1090 0.931 . S
C1104 C1103 1.385 . S
C1104 C1105 1.389 . S
C1105 C1104 1.389 . S
C1105 C1106 1.387 . S
C1106 H1091 0.930 . S
C1106 C1101 1.390 . S
C1106 C1105 1.387 . S
H1107 C1119 0.930 . S
H1108 C1121 0.930 . S
H1109 C1122 0.930 . S
H1110 C1126 0.959 . S
H1111 C1126 0.959 . S
H1112 C1126 0.961 . S
H1113 C1127 0.960 . S
H1114 C1127 0.961 . S
H1115 C1127 0.959 . S
H1116 C1130 0.929 . S
H1117 C1131 0.931 . S
H1118 C1133 0.930 . S
C1119 H1107 0.930 . S
C1119 C1120 1.399 . S
C1119 C1124 1.399 . S
C1120 C1119 1.399 . S
C1120 C1121 1.376 . S
C1121 H1108 0.930 . S
C1121 C1120 1.376 . S
C1121 C1122 1.388 . S
C1122 H1109 0.930 . S
C1122 C1121 1.388 . S
C1122 C1123 1.390 . S
C1123 C1122 1.390 . S
C1123 C1124 1.394 . S
C1123 C1129 1.465 . S
C1124 C1119 1.399 . S
C1124 C1123 1.394 . S
C1124 C1125 1.516 . S
C1125 C1124 1.516 . S
C1125 C1126 1.502 . S
C1125 C1127 1.561 . S
C1125 C1128 1.526 . S
C1126 H1110 0.959 . S
C1126 H1111 0.959 . S
C1126 H1112 0.961 . S
C1126 C1125 1.502 . S
C1127 H1113 0.960 . S
C1127 H1114 0.961 . S
C1127 H1115 0.959 . S
C1127 C1125 1.561 . S
C1128 C1125 1.526 . S
C1128 C1129 1.396 . S
C1128 C1133 1.390 . S
C1129 C1123 1.465 . S
C1129 C1128 1.396 . S
C1129 C1130 1.399 . S
C1130 H1116 0.929 . S
C1130 C1129 1.399 . S
C1130 C1131 1.385 . S
C1131 H1117 0.931 . S
C1131 C1130 1.385 . S
C1131 C1132 1.389 . S
C1132 C1131 1.389 . S
C1132 C1133 1.387 . S
C1133 H1118 0.930 . S
C1133 C1128 1.390 . S
C1133 C1132 1.387 . S
H1134 C1146 0.930 . S
H1135 C1148 0.930 . S
H1136 C1149 0.930 . S
H1137 C1153 0.959 . S
H1138 C1153 0.959 . S
H1139 C1153 0.961 . S
H1140 C1154 0.960 . S
H1141 C1154 0.961 . S
H1142 C1154 0.959 . S
H1143 C1157 0.929 . S
H1144 C1158 0.931 . S
H1145 C1160 0.930 . S
C1146 H1134 0.930 . S
C1146 C1147 1.399 . S
C1146 C1151 1.399 . S
C1147 C1146 1.399 . S
C1147 C1148 1.376 . S
C1148 H1135 0.930 . S
C1148 C1147 1.376 . S
C1148 C1149 1.388 . S
C1149 H1136 0.930 . S
C1149 C1148 1.388 . S
C1149 C1150 1.390 . S
C1150 C1149 1.390 . S
C1150 C1151 1.394 . S
C1150 C1156 1.465 . S
C1151 C1146 1.399 . S
C1151 C1150 1.394 . S
C1151 C1152 1.516 . S
C1152 C1151 1.516 . S
C1152 C1153 1.502 . S
C1152 C1154 1.561 . S
C1152 C1155 1.526 . S
C1153 H1137 0.959 . S
C1153 H1138 0.959 . S
C1153 H1139 0.961 . S
C1153 C1152 1.502 . S
C1154 H1140 0.960 . S
C1154 H1141 0.961 . S
C1154 H1142 0.959 . S
C1154 C1152 1.561 . S
C1155 C1152 1.526 . S
C1155 C1156 1.396 . S
C1155 C1160 1.390 . S
C1156 C1150 1.465 . S
C1156 C1155 1.396 . S
C1156 C1157 1.399 . S
C1157 H1143 0.929 . S
C1157 C1156 1.399 . S
C1157 C1158 1.385 . S
C1158 H1144 0.931 . S
C1158 C1157 1.385 . S
C1158 C1159 1.389 . S
C1159 C1158 1.389 . S
C1159 C1160 1.387 . S
C1160 H1145 0.930 . S
C1160 C1155 1.390 . S
C1160 C1159 1.387 . S
H1161 C1173 0.930 . S
H1162 C1175 0.930 . S
H1163 C1176 0.930 . S
H1164 C1180 0.959 . S
H1165 C1180 0.959 . S
H1166 C1180 0.961 . S
H1167 C1181 0.960 . S
H1168 C1181 0.961 . S
H1169 C1181 0.959 . S
H1170 C1184 0.929 . S
H1171 C1185 0.931 . S
H1172 C1187 0.930 . S
C1173 H1161 0.930 . S
C1173 C1174 1.399 . S
C1173 C1178 1.399 . S
C1174 C1173 1.399 . S
C1174 C1175 1.376 . S
C1175 H1162 0.930 . S
C1175 C1174 1.376 . S
C1175 C1176 1.388 . S
C1176 H1163 0.930 . S
C1176 C1175 1.388 . S
C1176 C1177 1.390 . S
C1177 C1176 1.390 . S
C1177 C1178 1.394 . S
C1177 C1183 1.465 . S
C1178 C1173 1.399 . S
C1178 C1177 1.394 . S
C1178 C1179 1.516 . S
C1179 C1178 1.516 . S
C1179 C1180 1.502 . S
C1179 C1181 1.561 . S
C1179 C1182 1.526 . S
C1180 H1164 0.959 . S
C1180 H1165 0.959 . S
C1180 H1166 0.961 . S
C1180 C1179 1.502 . S
C1181 H1167 0.960 . S
C1181 H1168 0.961 . S
C1181 H1169 0.959 . S
C1181 C1179 1.561 . S
C1182 C1179 1.526 . S
C1182 C1183 1.396 . S
C1182 C1187 1.390 . S
C1183 C1177 1.465 . S
C1183 C1182 1.396 . S
C1183 C1184 1.399 . S
C1184 H1170 0.929 . S
C1184 C1183 1.399 . S
C1184 C1185 1.385 . S
C1185 H1171 0.931 . S
C1185 C1184 1.385 . S
C1185 C1186 1.389 . S
C1186 C1185 1.389 . S
C1186 C1187 1.387 . S
C1187 H1172 0.930 . S
C1187 C1182 1.390 . S
C1187 C1186 1.387 . S
H1188 C1200 0.930 . S
H1189 C1202 0.930 . S
H1190 C1203 0.930 . S
H1191 C1207 0.959 . S
H1192 C1207 0.959 . S
H1193 C1207 0.961 . S
H1194 C1208 0.960 . S
H1195 C1208 0.961 . S
H1196 C1208 0.959 . S
H1197 C1211 0.929 . S
H1198 C1212 0.931 . S
H1199 C1214 0.930 . S
C1200 H1188 0.930 . S
C1200 C1201 1.399 . S
C1200 C1205 1.399 . S
C1201 C1200 1.399 . S
C1201 C1202 1.376 . S
C1202 H1189 0.930 . S
C1202 C1201 1.376 . S
C1202 C1203 1.388 . S
C1203 H1190 0.930 . S
C1203 C1202 1.388 . S
C1203 C1204 1.390 . S
C1204 C1203 1.390 . S
C1204 C1205 1.394 . S
C1204 C1210 1.465 . S
C1205 C1200 1.399 . S
C1205 C1204 1.394 . S
C1205 C1206 1.516 . S
C1206 C1205 1.516 . S
C1206 C1207 1.502 . S
C1206 C1208 1.561 . S
C1206 C1209 1.526 . S
C1207 H1191 0.959 . S
C1207 H1192 0.959 . S
C1207 H1193 0.961 . S
C1207 C1206 1.502 . S
C1208 H1194 0.960 . S
C1208 H1195 0.961 . S
C1208 H1196 0.959 . S
C1208 C1206 1.561 . S
C1209 C1206 1.526 . S
C1209 C1210 1.396 . S
C1209 C1214 1.390 . S
C1210 C1204 1.465 . S
C1210 C1209 1.396 . S
C1210 C1211 1.399 . S
C1211 H1197 0.929 . S
C1211 C1210 1.399 . S
C1211 C1212 1.385 . S
C1212 H1198 0.931 . S
C1212 C1211 1.385 . S
C1212 C1213 1.389 . S
C1213 C1212 1.389 . S
C1213 C1214 1.387 . S
C1214 H1199 0.930 . S
C1214 C1209 1.390 . S
C1214 C1213 1.387 . S
H1215 C1227 0.930 . S
H1216 C1229 0.930 . S
H1217 C1230 0.930 1_545 S
H1218 C1234 0.959 . S
H1219 C1234 0.959 . S
H1220 C1234 0.961 . S
H1221 C1235 0.960 . S
H1222 C1235 0.961 . S
H1223 C1235 0.959 . S
H1224 C1238 0.910 1_545 S
H1225 C1239 0.914 1_545 S
H1226 C1241 0.930 . S
C1227 H1215 0.930 . S
C1227 C1228 1.399 . S
C1227 C1232 1.399 . S
C1228 C1227 1.399 . S
C1228 C1229 1.376 . S
C1229 H1216 0.930 . S
C1229 C1228 1.376 . S
C1229 C1230 1.388 . S
C1230 H1217 0.930 1_565 S
C1230 C1229 1.388 . S
C1230 C1231 1.390 . S
C1231 C1230 1.390 . S
C1231 C1232 1.394 . S
C1231 C1237 1.465 . S
C1232 C1227 1.399 . S
C1232 C1231 1.394 . S
C1232 C1233 1.516 . S
C1233 C1232 1.516 . S
C1233 C1234 1.502 . S
C1233 C1235 1.561 . S
C1233 C1236 1.526 . S
C1234 H1218 0.959 . S
C1234 H1219 0.959 . S
C1234 H1220 0.961 . S
C1234 C1233 1.502 . S
C1235 H1221 0.960 . S
C1235 H1222 0.961 . S
C1235 H1223 0.959 . S
C1235 C1233 1.561 . S
C1236 C1233 1.526 . S
C1236 C1237 1.396 . S
C1236 C1241 1.390 . S
C1237 C1231 1.465 . S
C1237 C1236 1.396 . S
C1237 C1238 1.419 . S
C1238 H1224 0.910 1_565 S
C1238 C1237 1.419 . S
C1238 C1239 1.385 . S
C1239 H1225 0.914 1_565 S
C1239 C1238 1.385 . S
C1239 C1240 1.405 . S
C1240 C1239 1.405 . S
C1240 C1241 1.387 . S
C1241 H1226 0.930 . S
C1241 C1236 1.390 . S
C1241 C1240 1.387 . S
H1242 C1254 0.930 . S
H1243 C1256 0.930 . S
H1244 C1257 0.930 . S
H1245 C1261 0.959 . S
H1246 C1261 0.959 . S
H1247 C1261 0.961 . S
H1248 C1262 0.960 . S
H1249 C1262 0.961 . S
H1250 C1262 0.959 . S
H1251 C1265 0.929 . S
H1252 C1266 0.931 . S
H1253 C1268 0.930 . S
C1254 H1242 0.930 . S
C1254 C1255 1.399 . S
C1254 C1259 1.399 . S
C1255 C1254 1.399 . S
C1255 C1256 1.376 . S
C1256 H1243 0.930 . S
C1256 C1255 1.376 . S
C1256 C1257 1.388 . S
C1257 H1244 0.930 . S
C1257 C1256 1.388 . S
C1257 C1258 1.390 . S
C1258 C1257 1.390 . S
C1258 C1259 1.394 . S
C1258 C1264 1.465 . S
C1259 C1254 1.399 . S
C1259 C1258 1.394 . S
C1259 C1260 1.516 . S
C1260 C1259 1.516 . S
C1260 C1261 1.502 . S
C1260 C1262 1.561 . S
C1260 C1263 1.526 . S
C1261 H1245 0.959 . S
C1261 H1246 0.959 . S
C1261 H1247 0.961 . S
C1261 C1260 1.502 . S
C1262 H1248 0.960 . S
C1262 H1249 0.961 . S
C1262 H1250 0.959 . S
C1262 C1260 1.561 . S
C1263 C1260 1.526 . S
C1263 C1264 1.396 . S
C1263 C1268 1.390 . S
C1264 C1258 1.465 . S
C1264 C1263 1.396 . S
C1264 C1265 1.399 . S
C1265 H1251 0.929 . S
C1265 C1264 1.399 . S
C1265 C1266 1.385 . S
C1266 H1252 0.931 . S
C1266 C1265 1.385 . S
C1266 C1267 1.389 . S
C1267 C1266 1.389 . S
C1267 C1268 1.387 . S
C1268 H1253 0.930 . S
C1268 C1263 1.390 . S
C1268 C1267 1.387 . S
H1269 C1281 0.930 . S
H1270 C1283 0.930 . S
H1271 C1284 0.930 . S
H1272 C1288 0.959 . S
H1273 C1288 0.959 . S
H1274 C1288 0.961 . S
H1275 C1289 0.960 . S
H1276 C1289 0.961 . S
H1277 C1289 0.959 . S
H1278 C1292 0.929 . S
H1279 C1293 0.931 . S
H1280 C1295 0.930 . S
C1281 H1269 0.930 . S
C1281 C1282 1.399 . S
C1281 C1286 1.399 . S
C1282 C1281 1.399 . S
C1282 C1283 1.376 . S
C1283 H1270 0.930 . S
C1283 C1282 1.376 . S
C1283 C1284 1.388 . S
C1284 H1271 0.930 . S
C1284 C1283 1.388 . S
C1284 C1285 1.390 . S
C1285 C1284 1.390 . S
C1285 C1286 1.394 . S
C1285 C1291 1.465 . S
C1286 C1281 1.399 . S
C1286 C1285 1.394 . S
C1286 C1287 1.516 . S
C1287 C1286 1.516 . S
C1287 C1288 1.502 . S
C1287 C1289 1.561 . S
C1287 C1290 1.526 . S
C1288 H1272 0.959 . S
C1288 H1273 0.959 . S
C1288 H1274 0.961 . S
C1288 C1287 1.502 . S
C1289 H1275 0.960 . S
C1289 H1276 0.961 . S
C1289 H1277 0.959 . S
C1289 C1287 1.561 . S
C1290 C1287 1.526 . S
C1290 C1291 1.396 . S
C1290 C1295 1.390 . S
C1291 C1285 1.465 . S
C1291 C1290 1.396 . S
C1291 C1292 1.399 . S
C1292 H1278 0.929 . S
C1292 C1291 1.399 . S
C1292 C1293 1.385 . S
C1293 H1279 0.931 . S
C1293 C1292 1.385 . S
C1293 C1294 1.389 . S
C1294 C1293 1.389 . S
C1294 C1295 1.387 . S
C1295 H1280 0.930 . S
C1295 C1290 1.390 . S
C1295 C1294 1.387 . S
C661 C255 2.247 . S
C673 C386 2.372 . S
C700 C470 2.361 . S
C688 C294 2.282 . S
C727 C536 2.302 . S
C715 C177 2.366 . S
C754 C620 2.285 . S
C742 C216 2.378 . S
C781 C375 2.349 1_565 S
C769 C99 2.308 . S
C796 C138 2.284 . S
C808 C459 2.345 . S
C823 C21 2.430 . S
C835 C547 2.261 . S
C850 C60 2.425 . S
C862 C631 2.232 . S
C889 C382 0.648 1_455 S
C877 C196 0.603 . S
C916 C466 0.622 1_545 S
C904 C235 0.617 . S
C943 C538 0.562 . S
C931 C289 0.660 . S
C958 C157 0.562 . S
C970 C622 0.603 . S
C985 C40 0.654 1_556 S
C997 C370 0.638 . S
C1024 C454 0.617 . S
C1012 C79 0.672 1_556 S
C1051 C550 0.531 . S
C1039 C133 0.678 1_556 S
C1066 C1 0.717 1_556 S
C1078 C634 0.701 . S
C1093 C211 2.787 . S
C1105 C379 2.896 . S
C1120 C250 2.686 . S
C1132 C463 2.903 . S
C1159 C543 2.939 . S
C1147 C274 2.639 . S
C1186 C627 2.971 . S
C1174 C172 2.598 . S
C1201 C55 2.724 . S
C1213 C368 2.939 . S
C1240 C452 2.863 . S
C1228 C94 2.714 . S
C1267 C554 2.944 . S
C1255 C118 2.649 . S
C1282 C16 2.667 . S
C1294 C638 2.979 . S
