# Generated by pormake.
# Topology ptr, (4,4)-cn, num edge types: 1
# Building blocks:
#     Node 0, Type 0, BuildingBlock: QUQFOY_clean_sbu_3, # of connection points: 4
#     Node 1, Type 0, BuildingBlock: QUQFOY_clean_sbu_3, # of connection points: 4
#     Node 2, Type 0, BuildingBlock: QUQFOY_clean_sbu_3, # of connection points: 4
#     Node 3, Type 0, BuildingBlock: QUQFOY_clean_sbu_3, # of connection points: 4
#     Node 4, Type 0, BuildingBlock: QUQFOY_clean_sbu_3, # of connection points: 4
#     Node 5, Type 0, BuildingBlock: QUQFOY_clean_sbu_3, # of connection points: 4
#     Node 6, Type 0, BuildingBlock: QUQFOY_clean_sbu_3, # of connection points: 4
#     Node 7, Type 0, BuildingBlock: QUQFOY_clean_sbu_3, # of connection points: 4
#     Node 8, Type 0, BuildingBlock: QUQFOY_clean_sbu_3, # of connection points: 4
#     Node 9, Type 0, BuildingBlock: QUQFOY_clean_sbu_3, # of connection points: 4
#     Node 10, Type 0, BuildingBlock: QUQFOY_clean_sbu_3, # of connection points: 4
#     Node 11, Type 0, BuildingBlock: QUQFOY_clean_sbu_3, # of connection points: 4
#     Node 12, Type 0, BuildingBlock: QUQFOY_clean_sbu_3, # of connection points: 4
#     Node 13, Type 0, BuildingBlock: QUQFOY_clean_sbu_3, # of connection points: 4
#     Node 14, Type 0, BuildingBlock: QUQFOY_clean_sbu_3, # of connection points: 4
#     Node 15, Type 0, BuildingBlock: QUQFOY_clean_sbu_3, # of connection points: 4
#     Node 16, Type 0, BuildingBlock: QUQFOY_clean_sbu_3, # of connection points: 4
#     Node 17, Type 0, BuildingBlock: QUQFOY_clean_sbu_3, # of connection points: 4
#     Node 18, Type 1, BuildingBlock: GIZVER_clean_linker_0, # of connection points: 4
#     Node 19, Type 1, BuildingBlock: GIZVER_clean_linker_0, # of connection points: 4
#     Node 20, Type 1, BuildingBlock: GIZVER_clean_linker_0, # of connection points: 4
#     Node 21, Type 1, BuildingBlock: GIZVER_clean_linker_0, # of connection points: 4
#     Node 22, Type 1, BuildingBlock: GIZVER_clean_linker_0, # of connection points: 4
#     Node 23, Type 1, BuildingBlock: GIZVER_clean_linker_0, # of connection points: 4
#     Node 24, Type 1, BuildingBlock: GIZVER_clean_linker_0, # of connection points: 4
#     Node 25, Type 1, BuildingBlock: GIZVER_clean_linker_0, # of connection points: 4
#     Node 26, Type 1, BuildingBlock: GIZVER_clean_linker_0, # of connection points: 4
#     Node 27, Type 1, BuildingBlock: GIZVER_clean_linker_0, # of connection points: 4
#     Node 28, Type 1, BuildingBlock: GIZVER_clean_linker_0, # of connection points: 4
#     Node 29, Type 1, BuildingBlock: GIZVER_clean_linker_0, # of connection points: 4
#     Node 30, Type 1, BuildingBlock: GIZVER_clean_linker_0, # of connection points: 4
#     Node 31, Type 1, BuildingBlock: GIZVER_clean_linker_0, # of connection points: 4
#     Node 32, Type 1, BuildingBlock: GIZVER_clean_linker_0, # of connection points: 4
#     Node 33, Type 1, BuildingBlock: GIZVER_clean_linker_0, # of connection points: 4
#     Node 34, Type 1, BuildingBlock: GIZVER_clean_linker_0, # of connection points: 4
#     Node 35, Type 1, BuildingBlock: GIZVER_clean_linker_0, # of connection points: 4
#     Edge 36, Type (0, 1), BuildingBlock: CIFDUS_clean_linker_0, # of connection points: 2
#     Edge 37, Type (0, 1), BuildingBlock: CIFDUS_clean_linker_0, # of connection points: 2
#     Edge 38, Type (0, 1), BuildingBlock: CIFDUS_clean_linker_0, # of connection points: 2
#     Edge 39, Type (0, 1), BuildingBlock: CIFDUS_clean_linker_0, # of connection points: 2
#     Edge 40, Type (0, 1), BuildingBlock: CIFDUS_clean_linker_0, # of connection points: 2
#     Edge 41, Type (0, 1), BuildingBlock: CIFDUS_clean_linker_0, # of connection points: 2
#     Edge 42, Type (0, 1), BuildingBlock: CIFDUS_clean_linker_0, # of connection points: 2
#     Edge 43, Type (0, 1), BuildingBlock: CIFDUS_clean_linker_0, # of connection points: 2
#     Edge 44, Type (0, 1), BuildingBlock: CIFDUS_clean_linker_0, # of connection points: 2
#     Edge 45, Type (0, 1), BuildingBlock: CIFDUS_clean_linker_0, # of connection points: 2
#     Edge 46, Type (0, 1), BuildingBlock: CIFDUS_clean_linker_0, # of connection points: 2
#     Edge 47, Type (0, 1), BuildingBlock: CIFDUS_clean_linker_0, # of connection points: 2
#     Edge 48, Type (0, 1), BuildingBlock: CIFDUS_clean_linker_0, # of connection points: 2
#     Edge 49, Type (0, 1), BuildingBlock: CIFDUS_clean_linker_0, # of connection points: 2
#     Edge 50, Type (0, 1), BuildingBlock: CIFDUS_clean_linker_0, # of connection points: 2
#     Edge 51, Type (0, 1), BuildingBlock: CIFDUS_clean_linker_0, # of connection points: 2
#     Edge 52, Type (0, 1), BuildingBlock: CIFDUS_clean_linker_0, # of connection points: 2
#     Edge 53, Type (0, 1), BuildingBlock: CIFDUS_clean_linker_0, # of connection points: 2
#     Edge 54, Type (0, 1), BuildingBlock: CIFDUS_clean_linker_0, # of connection points: 2
#     Edge 55, Type (0, 1), BuildingBlock: CIFDUS_clean_linker_0, # of connection points: 2
#     Edge 56, Type (0, 1), BuildingBlock: CIFDUS_clean_linker_0, # of connection points: 2
#     Edge 57, Type (0, 1), BuildingBlock: CIFDUS_clean_linker_0, # of connection points: 2
#     Edge 58, Type (0, 1), BuildingBlock: CIFDUS_clean_linker_0, # of connection points: 2
#     Edge 59, Type (0, 1), BuildingBlock: CIFDUS_clean_linker_0, # of connection points: 2
#     Edge 60, Type (0, 1), BuildingBlock: CIFDUS_clean_linker_0, # of connection points: 2
#     Edge 61, Type (0, 1), BuildingBlock: CIFDUS_clean_linker_0, # of connection points: 2
#     Edge 62, Type (0, 1), BuildingBlock: CIFDUS_clean_linker_0, # of connection points: 2
#     Edge 63, Type (0, 1), BuildingBlock: CIFDUS_clean_linker_0, # of connection points: 2
#     Edge 64, Type (0, 1), BuildingBlock: CIFDUS_clean_linker_0, # of connection points: 2
#     Edge 65, Type (0, 1), BuildingBlock: CIFDUS_clean_linker_0, # of connection points: 2
#     Edge 66, Type (0, 1), BuildingBlock: CIFDUS_clean_linker_0, # of connection points: 2
#     Edge 67, Type (0, 1), BuildingBlock: CIFDUS_clean_linker_0, # of connection points: 2
#     Edge 68, Type (0, 1), BuildingBlock: CIFDUS_clean_linker_0, # of connection points: 2
#     Edge 69, Type (0, 1), BuildingBlock: CIFDUS_clean_linker_0, # of connection points: 2
#     Edge 70, Type (0, 1), BuildingBlock: CIFDUS_clean_linker_0, # of connection points: 2
#     Edge 71, Type (0, 1), BuildingBlock: CIFDUS_clean_linker_0, # of connection points: 2
#     Edge 72, Type (0, 1), BuildingBlock: CIFDUS_clean_linker_0, # of connection points: 2
#     Edge 73, Type (0, 1), BuildingBlock: CIFDUS_clean_linker_0, # of connection points: 2
#     Edge 74, Type (0, 1), BuildingBlock: CIFDUS_clean_linker_0, # of connection points: 2
#     Edge 75, Type (0, 1), BuildingBlock: CIFDUS_clean_linker_0, # of connection points: 2
#     Edge 76, Type (0, 1), BuildingBlock: CIFDUS_clean_linker_0, # of connection points: 2
#     Edge 77, Type (0, 1), BuildingBlock: CIFDUS_clean_linker_0, # of connection points: 2
#     Edge 78, Type (0, 1), BuildingBlock: CIFDUS_clean_linker_0, # of connection points: 2
#     Edge 79, Type (0, 1), BuildingBlock: CIFDUS_clean_linker_0, # of connection points: 2
#     Edge 80, Type (0, 1), BuildingBlock: CIFDUS_clean_linker_0, # of connection points: 2
#     Edge 81, Type (0, 1), BuildingBlock: CIFDUS_clean_linker_0, # of connection points: 2
#     Edge 82, Type (0, 1), BuildingBlock: CIFDUS_clean_linker_0, # of connection points: 2
#     Edge 83, Type (0, 1), BuildingBlock: CIFDUS_clean_linker_0, # of connection points: 2
#     Edge 84, Type (0, 1), BuildingBlock: CIFDUS_clean_linker_0, # of connection points: 2
#     Edge 85, Type (0, 1), BuildingBlock: CIFDUS_clean_linker_0, # of connection points: 2
#     Edge 86, Type (0, 1), BuildingBlock: CIFDUS_clean_linker_0, # of connection points: 2
#     Edge 87, Type (0, 1), BuildingBlock: CIFDUS_clean_linker_0, # of connection points: 2
#     Edge 88, Type (0, 1), BuildingBlock: CIFDUS_clean_linker_0, # of connection points: 2
#     Edge 89, Type (0, 1), BuildingBlock: CIFDUS_clean_linker_0, # of connection points: 2
#     Edge 90, Type (0, 1), BuildingBlock: CIFDUS_clean_linker_0, # of connection points: 2
#     Edge 91, Type (0, 1), BuildingBlock: CIFDUS_clean_linker_0, # of connection points: 2
#     Edge 92, Type (0, 1), BuildingBlock: CIFDUS_clean_linker_0, # of connection points: 2
#     Edge 93, Type (0, 1), BuildingBlock: CIFDUS_clean_linker_0, # of connection points: 2
#     Edge 94, Type (0, 1), BuildingBlock: CIFDUS_clean_linker_0, # of connection points: 2
#     Edge 95, Type (0, 1), BuildingBlock: CIFDUS_clean_linker_0, # of connection points: 2
#     Edge 96, Type (0, 1), BuildingBlock: CIFDUS_clean_linker_0, # of connection points: 2
#     Edge 97, Type (0, 1), BuildingBlock: CIFDUS_clean_linker_0, # of connection points: 2
#     Edge 98, Type (0, 1), BuildingBlock: CIFDUS_clean_linker_0, # of connection points: 2
#     Edge 99, Type (0, 1), BuildingBlock: CIFDUS_clean_linker_0, # of connection points: 2
#     Edge 100, Type (0, 1), BuildingBlock: CIFDUS_clean_linker_0, # of connection points: 2
#     Edge 101, Type (0, 1), BuildingBlock: CIFDUS_clean_linker_0, # of connection points: 2
#     Edge 102, Type (0, 1), BuildingBlock: CIFDUS_clean_linker_0, # of connection points: 2
#     Edge 103, Type (0, 1), BuildingBlock: CIFDUS_clean_linker_0, # of connection points: 2
#     Edge 104, Type (0, 1), BuildingBlock: CIFDUS_clean_linker_0, # of connection points: 2
#     Edge 105, Type (0, 1), BuildingBlock: CIFDUS_clean_linker_0, # of connection points: 2
#     Edge 106, Type (0, 1), BuildingBlock: CIFDUS_clean_linker_0, # of connection points: 2
#     Edge 107, Type (0, 1), BuildingBlock: CIFDUS_clean_linker_0, # of connection points: 2
# Relax obj value: 0.044
# Max RMSD: 0.107
# Mean RMSD: 0.074
data_MOF--net-ptr--node1-QUQFOY_clean_sbu_3--node2-GIZVER_clean_linker_0--edge1-CIFDUS_clean_linker_0
_symmetry_space_group_name_H-M    P1
_symmetry_Int_Tables_number       1
_symmetry_cell_setting            triclinic
loop_
_symmetry_equiv_pos_as_xyz
'x, y, z'
_cell_length_a     70.691908
_cell_length_b     71.148446
_cell_length_c     44.068318
_cell_angle_alpha  90.546941
_cell_angle_beta   89.933954
_cell_angle_gamma 120.54616
loop_
_atom_site_label
_atom_site_type_symbol
_atom_site_fract_x
_atom_site_fract_y
_atom_site_fract_z
_atom_type_partial_charge
C0 C 0.97614 0.34999 0.98889 0.0
O1 O 0.96727 0.36125 -0.00501 0.0
Cd2 Cd 0.9888 0.39982 0.00627 0.0
O3 O 0.99702 0.35907 0.98797 0.0
Cd4 Cd 0.03036 0.39581 -0.00471 0.0
C5 C 0.01709 0.42018 0.94035 0.0
O6 O 0.01659 0.40405 0.04176 0.0
O7 O 0.04739 0.43 0.02492 0.0
O8 O 0.04659 0.37366 0.00889 0.0
C9 C 0.03304 0.42304 0.04562 0.0
O10 O 0.00304 0.41987 0.95875 0.0
C11 C 0.06552 0.3868 -0.00153 0.0
O12 O 0.02793 0.41096 0.94706 0.0
O13 O 0.06809 0.40399 0.98617 0.0
C14 C 0.60246 0.67101 0.01117 0.0
O15 O 0.58192 0.65767 0.00951 0.0
Cd16 Cd 0.56543 0.62049 -0.00776 0.0
O17 O 0.61608 0.66484 0.00464 0.0
Cd18 Cd 0.61338 0.6296 0.98939 0.0
C19 C 0.58172 0.60089 0.04966 0.0
O20 O 0.58613 0.62046 0.94884 0.0
O21 O 0.59348 0.59542 0.95965 0.0
O22 O 0.64948 0.65089 0.96478 0.0
C23 C 0.58384 0.60205 0.94233 0.0
O24 O 0.56518 0.59923 0.03572 0.0
C25 C 0.65764 0.64023 0.97625 0.0
O26 O 0.60094 0.61238 0.03882 0.0
O27 O 0.64535 0.62489 -0.00597 0.0
C28 C 0.32731 0.96239 0.00482 0.0
O29 O 0.33846 0.95499 -0.0077 0.0
Cd30 Cd 0.37696 0.97478 0.98104 0.0
O31 O 0.33637 0.98247 0.01274 0.0
Cd32 Cd 0.37325 0.01662 0.01047 0.0
C33 C 0.39771 0.99465 0.05273 0.0
O34 O 0.38176 0.00771 0.96141 0.0
O35 O 0.40711 0.03818 0.98015 0.0
O36 O 0.3531 0.0358 0.00367 0.0
C37 C 0.40078 0.0242 0.95887 0.0
O38 O 0.39545 0.98228 0.03023 0.0
C39 C 0.36548 0.05183 0.02092 0.0
O40 O 0.39025 0.00762 0.05181 0.0
O41 O 0.38094 0.05104 0.03434 0.0
C42 C 0.9339 0.59651 0.01153 0.0
O43 O 0.92434 0.57678 0.01995 0.0
Cd44 Cd 0.9439 0.55775 0.02608 0.0
O45 O 0.95472 0.60733 0.00863 0.0
Cd46 Cd 0.98669 0.60216 0.01705 0.0
C47 C 0.97029 0.56734 0.95757 0.0
O48 O 0.97418 0.57743 0.06055 0.0
O49 O 1.00203 0.5806 0.03567 0.0
O50 O 0.00496 0.63434 0.0487 0.0
C51 C 0.98986 0.5736 0.05891 0.0
O52 O 0.9548 0.55418 0.97477 0.0
C53 C 0.022 0.64494 0.03259 0.0
O54 O 0.98441 0.58649 0.96671 0.0
O55 O 0.02262 0.63608 0.00771 0.0
C56 C 0.35126 0.40269 0.01699 0.0
O57 O 0.36459 0.42225 0.00938 0.0
Cd58 Cd 0.40036 0.43435 0.98902 0.0
O59 O 0.35686 0.38824 0.0159 0.0
Cd60 Cd 0.39014 0.38628 0.00278 0.0
C61 C 0.42495 0.42713 0.05066 0.0
O62 O 0.3956 0.40557 0.95546 0.0
O63 O 0.42098 0.39865 0.9673 0.0
O64 O 0.3642 0.34806 0.9899 0.0
C65 C 0.41302 0.40583 0.94801 0.0
O66 O 0.42462 0.44047 0.03194 0.0
C67 C 0.37569 0.34063 0.00079 0.0
O68 O 0.41265 0.40661 0.04666 0.0
O69 O 0.3936 0.35433 0.01365 0.0
C70 C 0.68444 0.0644 0.02078 0.0
O71 O 0.67332 0.07111 0.03488 0.0
Cd72 Cd 0.63586 0.04755 0.04808 0.0
O73 O 0.6758 0.04419 0.01386 0.0
Cd74 Cd 0.63909 0.00976 0.02206 0.0
C75 C 0.6121 0.02709 0.97857 0.0
O76 O 0.63189 0.01624 0.07455 0.0
O77 O 0.6036 0.99286 0.04873 0.0
O78 O 0.66009 0.99137 0.03112 0.0
C79 C 0.61187 0.00131 0.07427 0.0
O80 O 0.61465 0.03961 0.00096 0.0
C81 C 0.64695 0.97385 0.01707 0.0
O82 O 0.62046 0.0149 0.97892 0.0
O83 O 0.63054 0.97322 0.00435 0.0
C84 C 0.62533 0.67532 0.33476 0.0
O85 O 0.61832 0.68717 0.34594 0.0
Cd86 Cd 0.64068 0.72426 0.36154 0.0
O87 O 0.64589 0.68289 0.33107 0.0
Cd88 Cd 0.68184 0.71793 0.34011 0.0
C89 C 0.66637 0.74546 0.29294 0.0
O90 O 0.66998 0.72462 0.38832 0.0
O91 O 0.70134 0.75063 0.37359 0.0
O92 O 0.69498 0.69281 0.35045 0.0
C93 C 0.68656 0.74319 0.39373 0.0
O94 O 0.65273 0.7433 0.31348 0.0
C95 C 0.71404 0.70462 0.33949 0.0
O96 O 0.67865 0.73725 0.29596 0.0
O97 O 0.71813 0.72255 0.32779 0.0
C98 C 0.28848 0.99662 0.34217 0.0
O99 O 0.26995 0.98896 0.32923 0.0
Cd100 Cd 0.24954 0.95109 0.31633 0.0
O101 O 0.2966 0.9844 0.34644 0.0
Cd102 Cd 0.28781 0.94617 0.33432 0.0
C103 C 0.24666 0.9267 0.38447 0.0
O104 O 0.27243 0.94327 0.28381 0.0
O105 O 0.26472 0.91267 0.304 0.0
O106 O 0.32683 0.96352 0.32201 0.0
C107 C 0.26521 0.92304 0.28053 0.0
O108 O 0.23684 0.93174 0.36482 0.0
C109 C 0.32973 0.94875 0.33295 0.0
O110 O 0.26612 0.93073 0.37982 0.0
O111 O 0.31326 0.93292 0.34559 0.0
C112 C 0.00574 0.27505 0.32591 0.0
O113 O 0.01905 0.26895 0.31782 0.0
Cd114 Cd 0.05642 0.29382 0.30511 0.0
O115 O 0.01214 0.29533 0.32835 0.0
Cd116 Cd 0.04691 0.33098 0.32147 0.0
C117 C 0.07317 0.31803 0.37433 0.0
O118 O 0.05364 0.31949 0.2733 0.0
O119 O 0.08131 0.34915 0.29056 0.0
O120 O 0.02223 0.34433 0.30873 0.0
C121 C 0.07231 0.33597 0.2685 0.0
O122 O 0.07588 0.30689 0.35386 0.0
C123 C 0.03365 0.36303 0.32104 0.0
O124 O 0.06193 0.32706 0.36907 0.0
O125 O 0.05121 0.36682 0.33431 0.0
C126 C 0.61739 0.9455 0.34179 0.0
O127 O 0.60973 0.92531 0.34648 0.0
Cd128 Cd 0.63183 0.90923 0.35596 0.0
O129 O 0.63809 0.9587 0.34124 0.0
Cd130 Cd 0.67198 0.95666 0.34774 0.0
C131 C 0.65978 0.9201 0.28972 0.0
O132 O 0.65826 0.9338 0.39261 0.0
O133 O 0.68978 0.94026 0.37669 0.0
O134 O 0.68914 0.99489 0.36451 0.0
C135 C 0.67507 0.9322 0.39689 0.0
O136 O 0.64604 0.90505 0.30691 0.0
C137 C 0.70713 0.00113 0.3507 0.0
O138 O 0.66988 0.93986 0.29878 0.0
O139 O 0.70861 0.98679 0.33527 0.0
C140 C 0.01066 0.71619 0.3392 0.0
O141 O 0.01815 0.73517 0.3285 0.0
Cd142 Cd 0.05637 0.7584 0.31798 0.0
O143 O 0.02328 0.70844 0.343 0.0
Cd144 Cd 0.06178 0.71724 0.33436 0.0
C145 C 0.07882 0.75728 0.38725 0.0
O146 O 0.06676 0.73719 0.28732 0.0
O147 O 0.09585 0.73927 0.30643 0.0
O148 O 0.0434 0.67862 0.32013 0.0
C149 C 0.08712 0.74405 0.28506 0.0
O150 O 0.07392 0.76744 0.36807 0.0
C151 C 0.05773 0.67498 0.33139 0.0
O152 O 0.07549 0.73827 0.38136 0.0
O153 O 0.07407 0.69095 0.34449 0.0
C154 C 0.34803 0.38726 0.34193 0.0
O155 O 0.34106 0.39886 0.35395 0.0
Cd156 Cd 0.30235 0.38137 0.36449 0.0
O157 O 0.33496 0.36688 0.33783 0.0
Cd158 Cd 0.29688 0.33681 0.34765 0.0
C159 C 0.27827 0.35743 0.29581 0.0
O160 O 0.29051 0.34971 0.39624 0.0
O161 O 0.26166 0.32513 0.3722 0.0
O162 O 0.31703 0.31945 0.36367 0.0
C163 C 0.26992 0.33647 0.39605 0.0
O164 O 0.28335 0.37266 0.31523 0.0
C165 C 0.30451 0.30095 0.35155 0.0
O166 O 0.28233 0.34223 0.30084 0.0
O167 O 0.28769 0.29856 0.33755 0.0
C168 C 0.28417 0.01016 0.66892 0.0
O169 O 0.27909 0.02452 0.67491 0.0
Cd170 Cd 0.3059 0.06107 0.68963 0.0
O171 O 0.30416 0.01494 0.67021 0.0
Cd172 Cd 0.3407 0.04813 0.68193 0.0
C173 C 0.33659 0.077 0.62513 0.0
O174 O 0.33009 0.06037 0.72742 0.0
O175 O 0.3603 0.08454 0.70655 0.0
O176 O 0.3501 0.02245 0.7033 0.0
C177 C 0.34748 0.07887 0.72908 0.0
O178 O 0.32415 0.07998 0.64298 0.0
C179 C 0.3693 0.03115 0.69235 0.0
O180 O 0.34359 0.06433 0.63245 0.0
O181 O 0.37541 0.04786 0.67602 0.0
C182 C 0.96021 0.34425 0.66554 0.0
O183 O 0.94069 0.33504 0.65538 0.0
Cd184 Cd 0.92059 0.29629 0.64568 0.0
O185 O 0.96973 0.33325 0.66905 0.0
Cd186 Cd 0.9648 0.29639 0.66069 0.0
C187 C 0.92533 0.27571 0.71431 0.0
O188 O 0.94253 0.28705 0.61416 0.0
O189 O 0.94515 0.26114 0.63509 0.0
O190 O 1.00201 0.31741 0.64118 0.0
C191 C 0.93807 0.26737 0.61329 0.0
O192 O 0.9138 0.27914 0.69542 0.0
C193 C 0.00953 0.30672 0.65412 0.0
O194 O 0.94511 0.28114 0.70834 0.0
O195 O 0.99629 0.29103 0.67083 0.0
C196 C 0.66381 0.61807 0.64296 0.0
O197 O 0.67327 0.60901 0.6301 0.0
Cd198 Cd 0.71223 0.62677 0.62249 0.0
O199 O 0.67453 0.63824 0.65062 0.0
Cd200 Cd 0.71205 0.67093 0.64718 0.0
C201 C 0.72716 0.64424 0.69628 0.0
O202 O 0.72022 0.66007 0.59963 0.0
O203 O 0.74798 0.68784 0.62036 0.0
O204 O 0.6956 0.69349 0.6381 0.0
C205 C 0.7403 0.67454 0.59821 0.0
O206 O 0.72691 0.63209 0.67467 0.0
C207 C 0.70881 0.70905 0.65548 0.0
O208 O 0.72152 0.6584 0.69218 0.0
O209 O 0.72307 0.70657 0.66948 0.0
C210 C 0.27558 0.26759 0.6836 0.0
O211 O 0.2709 0.24826 0.68958 0.0
Cd212 Cd 0.29717 0.23675 0.69517 0.0
O213 O 0.29552 0.28263 0.67967 0.0
Cd214 Cd 0.3327 0.28634 0.68024 0.0
C215 C 0.31914 0.24824 0.62399 0.0
O216 O 0.32569 0.26465 0.72582 0.0
O217 O 0.35626 0.27398 0.70344 0.0
O218 O 0.34617 0.3237 0.69822 0.0
C219 C 0.34377 0.26501 0.7259 0.0
O220 O 0.3084 0.23363 0.64365 0.0
C221 C 0.3634 0.33253 0.68206 0.0
O222 O 0.32818 0.26842 0.63096 0.0
O223 O 0.36617 0.31997 0.66433 0.0
C224 C 0.66684 0.05282 0.69365 0.0
O225 O 0.67774 0.0731 0.68802 0.0
Cd226 Cd 0.71543 0.09175 0.67212 0.0
O227 O 0.67581 0.0412 0.69135 0.0
Cd228 Cd 0.71179 0.04534 0.67738 0.0
C229 C 0.73965 0.08279 0.73296 0.0
O230 O 0.71724 0.0685 0.63399 0.0
O231 O 0.74463 0.06453 0.64546 0.0
O232 O 0.69049 0.00805 0.65746 0.0
C233 C 0.73624 0.07211 0.62747 0.0
O234 O 0.73807 0.09673 0.71691 0.0
C235 C 0.70269 0.00152 0.66857 0.0
O236 O 0.73023 0.06283 0.72476 0.0
O237 O 0.719 0.01527 0.68434 0.0
C238 C 0.99844 0.73529 0.67236 0.0
O239 O 0.98528 0.74175 0.6796 0.0
Cd240 Cd 0.94843 0.71711 0.69652 0.0
O241 O 0.99221 0.71504 0.67288 0.0
Cd242 Cd 0.95793 0.67979 0.68448 0.0
C243 C 0.92636 0.68641 0.63238 0.0
O244 O 0.94899 0.69188 0.73219 0.0
O245 O 0.92427 0.6605 0.7146 0.0
O246 O 0.98363 0.66876 0.70149 0.0
C247 C 0.93079 0.6744 0.73605 0.0
O248 O 0.92618 0.70001 0.6512 0.0
C249 C 0.97409 0.65007 0.68885 0.0
O250 O 0.93799 0.67776 0.63761 0.0
O251 O 0.95686 0.64498 0.67363 0.0
H252 H 0.15752 0.32693 0.13781 0.0
H253 H 0.15355 0.33159 0.04075 0.0
H254 H 0.12786 0.3612 0.10043 0.0
H255 H 0.15922 0.29997 0.09798 0.0
H256 H 0.16756 0.30986 0.06038 0.0
H257 H 0.18445 0.31806 0.14221 0.0
H258 H 0.2531 0.35729 0.12241 0.0
H259 H 0.20583 0.33668 0.04993 0.0
C260 C 0.15384 0.33361 0.11827 0.0
C261 C 0.14277 0.3451 0.12252 0.0
C262 C 0.15849 0.32921 0.08881 0.0
C263 C 0.15137 0.33604 0.06353 0.0
C264 C 0.14052 0.34779 0.06777 0.0
C265 C 0.13695 0.3528 0.09721 0.0
C266 C 0.16866 0.3151 0.08451 0.0
C267 C 0.19232 0.32678 0.095 0.0
C268 C 0.19742 0.32692 0.12592 0.0
C269 C 0.2193 0.33839 0.13592 0.0
C270 C 0.23613 0.34922 0.11482 0.0
C271 C 0.23145 0.3483 0.08381 0.0
C272 C 0.2095 0.33733 0.07393 0.0
H273 H 0.70356 0.83655 0.1394 0.0
H274 H 0.67711 0.81569 0.04902 0.0
H275 H 0.66212 0.76842 0.11894 0.0
H276 H 0.71806 0.8621 0.09568 0.0
H277 H 0.70565 0.8535 0.05893 0.0
H278 H 0.68591 0.85659 0.13865 0.0
H279 H 0.66031 0.8967 0.10994 0.0
H280 H 0.69167 0.87619 0.04509 0.0
C281 C 0.69333 0.82373 0.12335 0.0
C282 C 0.68256 0.80195 0.13268 0.0
C283 C 0.69069 0.82897 0.09346 0.0
C284 C 0.67846 0.81195 0.07242 0.0
C285 C 0.66825 0.79007 0.08155 0.0
C286 C 0.66991 0.7853 0.11183 0.0
C287 C 0.70205 0.85258 0.08363 0.0
C288 C 0.68866 0.86336 0.09047 0.0
C289 C 0.68206 0.86419 0.12045 0.0
C290 C 0.67197 0.87629 0.1276 0.0
C291 C 0.66783 0.88706 0.10444 0.0
C292 C 0.67495 0.88719 0.0748 0.0
C293 C 0.68544 0.87541 0.06782 0.0
H294 H 0.16306 0.80984 0.12978 0.0
H295 H 0.14975 0.7694 0.04995 0.0
H296 H 0.09721 0.76144 0.10762 0.0
H297 H 0.18933 0.79308 0.0967 0.0
H298 H 0.18666 0.79841 0.05831 0.0
H299 H 0.19941 0.82209 0.13699 0.0
H300 H 0.23564 0.88814 0.10578 0.0
H301 H 0.20312 0.83541 0.04158 0.0
C302 C 0.15177 0.79789 0.11376 0.0
C303 C 0.12946 0.78653 0.12136 0.0
C304 C 0.15937 0.79251 0.08735 0.0
C305 C 0.14401 0.77504 0.06881 0.0
C306 C 0.12155 0.76354 0.0763 0.0
C307 C 0.11443 0.77045 0.10149 0.0
C308 C 0.18381 0.80198 0.08196 0.0
C309 C 0.19806 0.82624 0.08876 0.0
C310 C 0.20445 0.8338 0.11881 0.0
C311 C 0.21752 0.85622 0.12541 0.0
C312 C 0.22527 0.87088 0.10113 0.0
C313 C 0.22122 0.86356 0.07085 0.0
C314 C 0.20676 0.84125 0.06485 0.0
H315 H 0.37419 0.20132 0.86684 0.0
H316 H 0.38963 0.22449 0.95938 0.0
H317 H 0.35477 0.24533 0.90175 0.0
H318 H 0.40702 0.20359 0.89899 0.0
H319 H 0.40428 0.20342 0.93925 0.0
H320 H 0.38401 0.17145 0.86855 0.0
H321 H 0.3404 0.11157 0.91399 0.0
H322 H 0.37391 0.17151 0.96491 0.0
C323 C 0.37306 0.21055 0.88573 0.0
C324 C 0.36253 0.22254 0.8817 0.0
C325 C 0.38249 0.2108 0.91395 0.0
C326 C 0.38181 0.22372 0.9379 0.0
C327 C 0.3717 0.23621 0.93382 0.0
C328 C 0.3618 0.23511 0.90576 0.0
C329 C 0.39481 0.19876 0.9176 0.0
C330 C 0.3794 0.17435 0.91644 0.0
C331 C 0.37551 0.16275 0.88881 0.0
C332 C 0.36181 0.13992 0.88781 0.0
C333 C 0.35118 0.12912 0.91452 0.0
C334 C 0.356 0.14012 0.94253 0.0
C335 C 0.36985 0.16287 0.94332 0.0
H336 H 0.87394 0.18509 0.86989 0.0
H337 H 0.87543 0.20764 0.96168 0.0
H338 H 0.90315 0.25342 0.88888 0.0
H339 H 0.86858 0.16164 0.9163 0.0
H340 H 0.8641 0.16999 0.95259 0.0
H341 H 0.83947 0.15837 0.87269 0.0
H342 H 0.7742 0.11654 0.90507 0.0
H343 H 0.82716 0.14909 0.96905 0.0
C344 C 0.8773 0.19805 0.8859 0.0
C345 C 0.88788 0.21963 0.87565 0.0
C346 C 0.87156 0.19333 0.91676 0.0
C347 C 0.87833 0.21082 0.93762 0.0
C348 C 0.89004 0.23248 0.92752 0.0
C349 C 0.894 0.23665 0.89655 0.0
C350 C 0.86085 0.17 0.9279 0.0
C351 C 0.83629 0.15664 0.9217 0.0
C352 C 0.82833 0.15187 0.89159 0.0
C353 C 0.80601 0.13744 0.88553 0.0
C354 C 0.79148 0.12781 0.90966 0.0
C355 C 0.79896 0.13189 0.93964 0.0
C356 C 0.82134 0.14638 0.94578 0.0
H357 H 0.81717 0.62373 0.85953 0.0
H358 H 0.81812 0.6053 0.95202 0.0
H359 H 0.87716 0.63456 0.89885 0.0
H360 H 0.78367 0.58773 0.89175 0.0
H361 H 0.78396 0.59463 0.93053 0.0
H362 H 0.78171 0.61085 0.85101 0.0
H363 H 0.74783 0.64428 0.87587 0.0
H364 H 0.77111 0.61875 0.94512 0.0
C365 C 0.82601 0.62341 0.87925 0.0
C366 C 0.84864 0.63134 0.87664 0.0
C367 C 0.81479 0.61418 0.9065 0.0
C368 C 0.8267 0.61303 0.93129 0.0
C369 C 0.84926 0.62037 0.92886 0.0
C370 C 0.86009 0.6299 0.90161 0.0
C371 C 0.78985 0.60185 0.90773 0.0
C372 C 0.77947 0.61518 0.8991 0.0
C373 C 0.7765 0.61811 0.86833 0.0
C374 C 0.76552 0.629 0.85973 0.0
C375 C 0.75676 0.63633 0.88243 0.0
C376 C 0.75781 0.63198 0.91322 0.0
C377 C 0.76999 0.62211 0.92147 0.0
H378 H 0.82728 0.66907 0.469 0.0
H379 H 0.81943 0.67529 0.37339 0.0
H380 H 0.80287 0.70972 0.43871 0.0
H381 H 0.82053 0.63951 0.42559 0.0
H382 H 0.83053 0.65046 0.38903 0.0
H383 H 0.84614 0.65112 0.47068 0.0
H384 H 0.9136 0.67441 0.4493 0.0
H385 H 0.86988 0.67207 0.37973 0.0
C386 C 0.82418 0.67702 0.4505 0.0
C387 C 0.81603 0.69088 0.45717 0.0
C388 C 0.82646 0.67198 0.42027 0.0
C389 C 0.81956 0.68044 0.39665 0.0
C390 C 0.81135 0.69433 0.40327 0.0
C391 C 0.81047 0.70012 0.43348 0.0
C392 C 0.83241 0.65469 0.41364 0.0
C393 C 0.85538 0.66124 0.42408 0.0
C394 C 0.85939 0.65793 0.45438 0.0
C395 C 0.88041 0.66275 0.46354 0.0
C396 C 0.89728 0.67043 0.44216 0.0
C397 C 0.89365 0.6737 0.41194 0.0
C398 C 0.87278 0.66957 0.4031 0.0
H399 H 0.35331 0.16316 0.46991 0.0
H400 H 0.32875 0.13617 0.38077 0.0
H401 H 0.3264 0.09489 0.45296 0.0
H402 H 0.36366 0.18665 0.4226 0.0
H403 H 0.3489 0.17514 0.38808 0.0
H404 H 0.33566 0.18081 0.47084 0.0
H405 H 0.29919 0.21127 0.44622 0.0
H406 H 0.32732 0.19068 0.3765 0.0
C407 C 0.34503 0.14929 0.45467 0.0
C408 C 0.33955 0.12862 0.46522 0.0
C409 C 0.34041 0.15213 0.42453 0.0
C410 C 0.33155 0.13408 0.40434 0.0
C411 C 0.32743 0.11359 0.41428 0.0
C412 C 0.33085 0.11097 0.44487 0.0
C413 C 0.34718 0.17476 0.4132 0.0
C414 C 0.33158 0.18262 0.42239 0.0
C415 C 0.32809 0.18525 0.4533 0.0
C416 C 0.31648 0.19557 0.462 0.0
C417 C 0.3077 0.20277 0.43961 0.0
C418 C 0.31157 0.20108 0.40886 0.0
C419 C 0.32348 0.19101 0.40025 0.0
H420 H 0.83868 0.13913 0.48621 0.0
H421 H 0.82149 0.12682 0.39139 0.0
H422 H 0.77127 0.09985 0.45946 0.0
H423 H 0.86601 0.14364 0.4464 0.0
H424 H 0.85913 0.14207 0.40715 0.0
H425 H 0.86151 0.17467 0.47788 0.0
H426 H 0.90267 0.23572 0.43462 0.0
H427 H 0.87838 0.17603 0.3837 0.0
C428 C 0.82635 0.13261 0.46844 0.0
C429 C 0.80412 0.12032 0.47634 0.0
C430 C 0.83277 0.13582 0.43779 0.0
C431 C 0.81664 0.12553 0.41497 0.0
C432 C 0.79436 0.11257 0.42272 0.0
C433 C 0.78831 0.11062 0.45332 0.0
C434 C 0.85689 0.14777 0.42975 0.0
C435 C 0.86718 0.17237 0.43009 0.0
C436 C 0.86882 0.1836 0.45736 0.0
C437 C 0.8812 0.20648 0.45893 0.0
C438 C 0.89184 0.21818 0.43285 0.0
C439 C 0.89119 0.20737 0.40576 0.0
C440 C 0.87843 0.18447 0.40433 0.0
H441 H 0.02833 0.52272 0.20331 0.0
H442 H 0.05096 0.55272 0.29151 0.0
H443 H 0.00625 0.56398 0.23979 0.0
H444 H 0.06918 0.53569 0.23237 0.0
H445 H 0.0652 0.53131 0.27202 0.0
H446 H 0.04626 0.50533 0.19498 0.0
H447 H 0.02196 0.44073 0.22775 0.0
H448 H 0.04617 0.4945 0.29111 0.0
C449 C 0.02779 0.53216 0.22218 0.0
C450 C 0.01517 0.54214 0.21913 0.0
C451 C 0.04041 0.53532 0.24852 0.0
C452 C 0.0405 0.54918 0.27177 0.0
C453 C 0.02786 0.55927 0.26898 0.0
C454 C 0.015 0.55527 0.24285 0.0
C455 C 0.05637 0.52695 0.24987 0.0
C456 C 0.04586 0.5026 0.24394 0.0
C457 C 0.04173 0.49433 0.21395 0.0
C458 C 0.03205 0.47188 0.20825 0.0
C459 C 0.02794 0.45784 0.23254 0.0
C460 C 0.03346 0.4658 0.26241 0.0
C461 C 0.04189 0.48819 0.26811 0.0
H462 H 0.53025 0.51 0.20346 0.0
H463 H 0.54748 0.53105 0.29676 0.0
H464 H 0.56519 0.57808 0.22602 0.0
H465 H 0.53787 0.48817 0.25021 0.0
H466 H 0.52986 0.49326 0.28615 0.0
H467 H 0.51121 0.47371 0.2065 0.0
H468 H 0.44347 0.43598 0.23131 0.0
H469 H 0.491 0.47885 0.29731 0.0
C470 C 0.53689 0.52268 0.22063 0.0
C471 C 0.54732 0.54448 0.21136 0.0
C472 C 0.5364 0.51748 0.25158 0.0
C473 C 0.54684 0.53463 0.27306 0.0
C474 C 0.55704 0.55645 0.26383 0.0
C475 C 0.55694 0.56118 0.23315 0.0
C476 C 0.52769 0.4941 0.26129 0.0
C477 C 0.50388 0.47873 0.25265 0.0
C478 C 0.49849 0.46954 0.22323 0.0
C479 C 0.47671 0.45437 0.21546 0.0
C480 C 0.46036 0.44771 0.23744 0.0
C481 C 0.46532 0.45621 0.26702 0.0
C482 C 0.48706 0.47222 0.27443 0.0
H483 H 0.49516 0.95255 0.19 0.0
H484 H 0.49361 0.94208 0.28598 0.0
H485 H 0.55539 0.9783 0.24037 0.0
H486 H 0.46197 0.92199 0.21789 0.0
H487 H 0.46043 0.92378 0.25805 0.0
H488 H 0.46154 0.95028 0.18472 0.0
H489 H 0.42295 0.9764 0.22015 0.0
H490 H 0.44688 0.94596 0.2802 0.0
C491 C 0.5038 0.95584 0.21138 0.0
C492 C 0.52693 0.96697 0.21176 0.0
C493 C 0.49168 0.94759 0.23831 0.0
C494 C 0.50288 0.94964 0.26561 0.0
C495 C 0.5259 0.96001 0.26626 0.0
C496 C 0.53765 0.96979 0.2397 0.0
C497 C 0.46688 0.93376 0.23721 0.0
C498 C 0.45614 0.9473 0.23305 0.0
C499 C 0.45442 0.9541 0.20382 0.0
C500 C 0.44271 0.96489 0.19892 0.0
C501 C 0.43308 0.96921 0.22382 0.0
C502 C 0.43457 0.9626 0.25315 0.0
C503 C 0.44618 0.95165 0.25773 0.0
H504 H 0.47944 0.99286 0.83245 0.0
H505 H 0.47583 0.00098 0.73609 0.0
H506 H 0.44524 0.02381 0.7988 0.0
H507 H 0.48396 0.96901 0.79128 0.0
H508 H 0.49086 0.97947 0.75375 0.0
H509 H 0.50994 0.98797 0.83478 0.0
H510 H 0.57777 0.02848 0.81078 0.0
H511 H 0.52801 0.00803 0.74195 0.0
C512 C 0.47488 0.9994 0.81359 0.0
C513 C 0.46259 0.00952 0.81912 0.0
C514 C 0.48046 0.9969 0.78373 0.0
C515 C 0.47284 0.00397 0.75926 0.0
C516 C 0.46013 0.01369 0.76481 0.0
C517 C 0.4557 0.01697 0.79469 0.0
C518 C 0.49217 0.98437 0.77805 0.0
C519 C 0.51606 0.99736 0.78751 0.0
C520 C 0.52228 0.99732 0.81793 0.0
C521 C 0.54451 0.00898 0.82649 0.0
C522 C 0.56051 0.02029 0.80451 0.0
C523 C 0.55467 0.01972 0.77409 0.0
C524 C 0.53246 0.00864 0.76562 0.0
H525 H 0.02968 0.50984 0.79194 0.0
H526 H 1.0019 0.48513 0.70307 0.0
H527 H 0.99888 0.44152 0.77213 0.0
H528 H 0.04028 0.53419 0.74519 0.0
H529 H 0.02429 0.52389 0.71129 0.0
H530 H 0.01308 0.52832 0.79547 0.0
H531 H 0.98039 0.56349 0.77703 0.0
H532 H 0.00551 0.54301 0.70298 0.0
C533 C 0.02027 0.49636 0.77644 0.0
C534 C 0.01382 0.47519 0.78589 0.0
C535 C 0.0153 0.50015 0.74692 0.0
C536 C 0.00497 0.48242 0.72624 0.0
C537 C 0.99987 0.46142 0.73507 0.0
C538 C 0.00375 0.45793 0.76504 0.0
C539 C 0.02332 0.5233 0.73649 0.0
C540 C 0.00934 0.53261 0.74757 0.0
C541 C 0.00641 0.53442 0.7789 0.0
C542 C 0.99559 0.54507 0.78946 0.0
C543 C 0.9879 0.55439 0.76874 0.0
C544 C 0.99164 0.5539 0.73765 0.0
C545 C 1.00207 0.54277 0.72699 0.0
H546 H 0.51219 0.46206 0.80333 0.0
H547 H 0.49598 0.45626 0.70805 0.0
H548 H 0.44614 0.41919 0.77409 0.0
H549 H 0.54118 0.47547 0.76199 0.0
H550 H 0.53373 0.47781 0.72405 0.0
H551 H 0.52327 0.49661 0.80125 0.0
H552 H 0.55944 0.56369 0.77763 0.0
H553 H 0.55667 0.51523 0.7157 0.0
C554 C 0.50014 0.45577 0.7852 0.0
C555 C 0.47812 0.4413 0.79215 0.0
C556 C 0.50655 0.46256 0.75514 0.0
C557 C 0.491 0.45227 0.73148 0.0
C558 C 0.46915 0.43631 0.73817 0.0
C559 C 0.46288 0.43153 0.76859 0.0
C560 C 0.53034 0.47927 0.74835 0.0
C561 C 0.53681 0.50279 0.75576 0.0
C562 C 0.53243 0.50872 0.78445 0.0
C563 C 0.54117 0.53068 0.79282 0.0
C564 C 0.55329 0.54682 0.77146 0.0
C565 C 0.56006 0.54177 0.74411 0.0
C566 C 0.55125 0.51958 0.73617 0.0
H567 H 0.72615 0.87767 0.53259 0.0
H568 H 0.72846 0.89203 0.62825 0.0
H569 H 0.7007 0.91714 0.56495 0.0
H570 H 0.75509 0.87803 0.57252 0.0
H571 H 0.74612 0.87306 0.61093 0.0
H572 H 0.73271 0.85069 0.5312 0.0
H573 H 0.69481 0.78445 0.5602 0.0
H574 H 0.72021 0.83624 0.62649 0.0
C575 C 0.72206 0.88466 0.5515 0.0
C576 C 0.71167 0.89657 0.54566 0.0
C577 C 0.72763 0.88231 0.58134 0.0
C578 C 0.72344 0.89294 0.60535 0.0
C579 C 0.71353 0.90544 0.59964 0.0
C580 C 0.70743 0.90678 0.56981 0.0
C581 C 0.74019 0.87061 0.58703 0.0
C582 C 0.7268 0.84644 0.57956 0.0
C583 C 0.72456 0.83912 0.5492 0.0
C584 C 0.71225 0.8168 0.54196 0.0
C585 C 0.70301 0.80176 0.56549 0.0
C586 C 0.70598 0.80852 0.59591 0.0
C587 C 0.71763 0.83094 0.60295 0.0
H588 H 0.19431 0.8425 0.54407 0.0
H589 H 0.19829 0.86582 0.63588 0.0
H590 H 0.22542 0.91102 0.56212 0.0
H591 H 0.18967 0.81932 0.5928 0.0
H592 H 0.18259 0.82746 0.62739 0.0
H593 H 0.16455 0.81038 0.54614 0.0
H594 H 0.09633 0.78284 0.56607 0.0
H595 H 0.14428 0.81422 0.63724 0.0
C596 C 0.19838 0.8556 0.56008 0.0
C597 C 0.20933 0.87709 0.54951 0.0
C598 C 0.1932 0.85117 0.59106 0.0
C599 C 0.20091 0.86884 0.61175 0.0
C600 C 0.21264 0.89047 0.60137 0.0
C601 C 0.21604 0.89438 0.57018 0.0
C602 C 0.18138 0.82781 0.60226 0.0
C603 C 0.15746 0.81521 0.59243 0.0
C604 C 0.15192 0.80781 0.5622 0.0
C605 C 0.13001 0.79683 0.55248 0.0
C606 C 0.11335 0.79218 0.5734 0.0
C607 C 0.1183 0.79784 0.60408 0.0
C608 C 0.14041 0.80972 0.61353 0.0
H609 H 0.17612 0.29671 0.52928 0.0
H610 H 0.17042 0.28713 0.62563 0.0
H611 H 0.23374 0.32771 0.58607 0.0
H612 H 0.14257 0.26605 0.55425 0.0
H613 H 0.13895 0.26674 0.59418 0.0
H614 H 0.13949 0.29182 0.52054 0.0
H615 H 0.10184 0.31955 0.55455 0.0
H616 H 0.12388 0.28781 0.61533 0.0
C617 C 0.18375 0.30092 0.5515 0.0
C618 C 0.20681 0.31335 0.55423 0.0
C619 C 0.17041 0.29234 0.57738 0.0
C620 C 0.1804 0.29535 0.60603 0.0
C621 C 0.20335 0.30755 0.60905 0.0
C622 C 0.21609 0.31789 0.58347 0.0
C623 C 0.14589 0.27727 0.5739 0.0
C624 C 0.13418 0.28979 0.56872 0.0
C625 C 0.13244 0.29616 0.53921 0.0
C626 C 0.12048 0.30666 0.53358 0.0
C627 C 0.11089 0.31129 0.55836 0.0
C628 C 0.11122 0.30388 0.58768 0.0
C629 C 0.12342 0.29358 0.59283 0.0
H630 H 0.00288 0.41391 0.08975 0.0
H631 H 0.06863 0.46201 0.06284 0.0
H632 H 0.07343 0.48273 0.10961 0.0
H633 H 0.05988 0.48565 0.16004 0.0
H634 H 0.9943 0.4372 0.18686 0.0
H635 H 0.9884 0.41829 0.13815 0.0
C636 C 0.01822 0.42899 0.09403 0.0
C637 C 0.03544 0.43627 0.073 0.0
C638 C 0.02089 0.44078 0.12098 0.0
C639 C 0.05514 0.45597 0.07874 0.0
C640 C 0.05791 0.46784 0.10549 0.0
C641 C 0.04416 0.47123 0.15488 0.0
C642 C 0.02757 0.46276 0.17697 0.0
C643 C 0.04101 0.46023 0.127 0.0
C644 C 0.00735 0.44391 0.17021 0.0
C645 C 0.00399 0.43307 0.14244 0.0
H646 H 0.54352 0.56949 0.07543 0.0
H647 H 0.61353 0.60841 0.09085 0.0
H648 H 0.609 0.59323 0.14141 0.0
H649 H 0.58515 0.57072 0.18239 0.0
H650 H 0.51531 0.53116 0.16777 0.0
H651 H 0.51976 0.54447 0.11552 0.0
C652 C 0.55778 0.57455 0.0898 0.0
C653 C 0.57881 0.59026 0.07942 0.0
C654 C 0.5551 0.56566 0.11895 0.0
C655 C 0.59715 0.59642 0.09821 0.0
C656 C 0.5946 0.58779 0.12719 0.0
C657 C 0.57094 0.56496 0.16765 0.0
C658 C 0.54992 0.55029 0.17885 0.0
C659 C 0.57365 0.57269 0.13793 0.0
C660 C 0.53163 0.54253 0.15952 0.0
C661 C 0.53418 0.55023 0.12978 0.0
H662 H 0.40853 0.96416 0.06681 0.0
H663 H 0.41215 0.02299 0.10107 0.0
H664 H 0.42911 0.0204 0.14786 0.0
H665 H 0.44079 1.0003 0.18015 0.0
H666 H 0.434 0.93972 0.14751 0.0
H667 H 0.42132 0.9447 0.09853 0.0
C668 C 0.41316 0.97653 0.0844 0.0
C669 C 0.4089 0.99365 0.08051 0.0
C670 C 0.42255 0.97475 0.11145 0.0
C671 C 0.41503 0.00951 0.10357 0.0
C672 C 0.42479 0.00809 0.1303 0.0
C673 C 0.43653 0.98815 0.16235 0.0
C674 C 0.43822 0.96958 0.16775 0.0
C675 C 0.42828 0.99058 0.13467 0.0
C676 C 0.43316 0.95432 0.14406 0.0
C677 C 0.42561 0.957 0.11609 0.0
H678 H 0.40344 0.99092 0.93365 0.0
H679 H 0.432 0.06073 0.93067 0.0
H680 H 0.45567 0.0628 0.88856 0.0
H681 H 0.46602 0.04416 0.85021 0.0
H682 H 0.43861 0.97458 0.85506 0.0
H683 H 0.41708 0.97298 0.89949 0.0
C684 C 0.4149 0.00657 0.92379 0.0
C685 C 0.41577 0.02561 0.93465 0.0
C686 C 0.42877 0.00765 0.90025 0.0
C687 C 0.431 0.04587 0.92234 0.0
C688 C 0.44451 0.04705 0.89836 0.0
C689 C 0.45568 0.02877 0.8615 0.0
C690 C 0.4538 0.00952 0.84954 0.0
C691 C 0.44329 0.02799 0.88686 0.0
C692 C 0.44043 0.98962 0.86418 0.0
C693 C 0.42795 0.98867 0.88931 0.0
H694 H 0.00605 0.4502 0.92372 0.0
H695 H 0.03603 0.41428 0.89009 0.0
H696 H 0.03967 0.42994 0.83993 0.0
H697 H 0.03195 0.4517 0.80473 0.0
H698 H 0.00225 0.48788 0.83785 0.0
H699 H 1.00138 0.4747 0.88931 0.0
C700 C 0.01346 0.44587 0.90544 0.0
C701 C 0.02049 0.43086 0.91056 0.0
C702 C 0.01567 0.45507 0.87664 0.0
C703 C 0.03039 0.42571 0.88676 0.0
C704 C 0.03248 0.43464 0.85805 0.0
C705 C 0.02553 0.45688 0.82334 0.0
C706 C 0.01698 0.47053 0.81758 0.0
C707 C 0.02485 0.44904 0.85262 0.0
C708 C 0.00899 0.47743 0.84184 0.0
C709 C 0.00831 0.46973 0.87115 0.0
H710 H 0.57387 0.56109 0.92578 0.0
H711 H 0.5644 0.61396 0.89911 0.0
H712 H 0.54627 0.59434 0.85239 0.0
H713 H 0.53707 0.5642 0.81654 0.0
H714 H 0.5489 0.51262 0.84221 0.0
H715 H 0.561 0.52911 0.89227 0.0
C716 C 0.56763 0.56822 0.9099 0.0
C717 C 0.57083 0.58912 0.91568 0.0
C718 C 0.5574 0.55695 0.88292 0.0
C719 C 0.56238 0.598 0.89506 0.0
C720 C 0.55198 0.58677 0.86833 0.0
C721 C 0.54198 0.55639 0.83324 0.0
C722 C 0.54229 0.53732 0.82529 0.0
C723 C 0.54996 0.56652 0.86163 0.0
C724 C 0.54825 0.52717 0.84754 0.0
C725 C 0.55555 0.5368 0.87614 0.0
H726 H 0.00688 0.57763 0.92515 0.0
H727 H 0.93612 0.5411 0.92053 0.0
H728 H 0.93758 0.53025 0.86816 0.0
H729 H 0.9591 0.53235 0.82299 0.0
H730 H 0.02973 0.56677 0.82855 0.0
H731 H 0.02833 0.57707 0.88136 0.0
C732 C 0.99183 0.56729 0.9126 0.0
C733 C 0.97144 0.56035 0.9264 0.0
C734 C 0.9928 0.56066 0.88281 0.0
C735 C 0.952 0.54664 0.91024 0.0
C736 C 0.95283 0.54046 0.88034 0.0
C737 C 0.9741 0.54188 0.83602 0.0
C738 C 0.99446 0.54885 0.8222 0.0
C739 C 0.97312 0.5475 0.86634 0.0
C740 C 0.01389 0.56113 0.83903 0.0
C741 C 0.01309 0.56713 0.86906 0.0
H742 H 0.45121 0.41001 0.92695 0.0
H743 H 0.39876 0.42161 0.90318 0.0
H744 H 0.41523 0.43487 0.85364 0.0
H745 H 0.44347 0.44172 0.81637 0.0
H746 H 0.49577 0.42977 0.8388 0.0
H747 H 0.48067 0.4185 0.88994 0.0
C748 C 0.44346 0.41552 0.91095 0.0
C749 C 0.42371 0.41467 0.91863 0.0
C750 C 0.453 0.42311 0.88239 0.0
C751 C 0.41391 0.42199 0.89778 0.0
C752 C 0.42331 0.4296 0.86945 0.0
C753 C 0.45155 0.43663 0.8325 0.0
C754 C 0.4705 0.4363 0.82388 0.0
C755 C 0.44267 0.42997 0.86143 0.0
C756 C 0.48115 0.43016 0.84505 0.0
C757 C 0.47245 0.4236 0.87415 0.0
H758 H 0.58384 0.99215 0.94399 0.0
H759 H 0.61154 0.06163 0.95408 0.0
H760 H 0.59151 0.06195 0.90906 0.0
H761 H 0.56784 0.04275 0.86506 0.0
H762 H 0.53842 0.97306 0.85628 0.0
H763 H 0.55694 0.97234 0.90291 0.0
C764 C 0.58542 0.00731 0.93626 0.0
C765 C 0.59937 0.0269 0.95192 0.0
C766 C 0.57338 0.00727 0.91085 0.0
C767 C 0.60097 0.04639 0.94221 0.0
C768 C 0.58952 0.04658 0.91653 0.0
C769 C 0.56517 0.0274 0.87383 0.0
C770 C 0.55182 0.00798 0.85753 0.0
C771 C 0.57586 0.02716 0.90051 0.0
C772 C 0.54845 0.98814 0.8688 0.0
C773 C 0.55922 0.98777 0.89521 0.0
H774 H 0.57217 0.99782 0.08259 0.0
H775 H 0.62198 0.99036 0.12772 0.0
H776 H 0.5994 0.97772 0.17347 0.0
H777 H 0.56548 0.96798 0.1996 0.0
H778 H 0.51787 0.98095 0.1582 0.0
H779 H 0.53925 0.99144 0.11142 0.0
C780 C 0.578 0.99347 0.10257 0.0
C781 C 0.59854 0.99481 0.10198 0.0
C782 C 0.56528 0.98702 0.12915 0.0
C783 C 0.60621 0.98945 0.12789 0.0
C784 C 0.59329 0.98218 0.15391 0.0
C785 C 0.55991 0.97377 0.18095 0.0
C786 C 0.54001 0.97385 0.18302 0.0
C787 C 0.57282 0.98091 0.15476 0.0
C788 C 0.53289 0.9804 0.1575 0.0
C789 C 0.54524 0.98662 0.13073 0.0
H790 H 0.9666 0.55664 0.11072 0.0
H791 H 0.02537 0.56842 0.06421 0.0
H792 H 0.03702 0.55682 0.10881 0.0
H793 H 0.03275 0.54777 0.16284 0.0
H794 H 0.9743 0.53635 0.20974 0.0
H795 H 0.96022 0.54322 0.16308 0.0
C796 C 0.98182 0.55638 0.1102 0.0
C797 C 0.99525 0.56369 0.08434 0.0
C798 C 0.98855 0.5499 0.13606 0.0
C799 C 0.0148 0.56305 0.08391 0.0
C800 C 0.02151 0.55645 0.10944 0.0
C801 C 0.01664 0.54613 0.16265 0.0
C802 C 0.00466 0.54173 0.18977 0.0
C803 C 0.00882 0.55043 0.1359 0.0
C804 C 0.98393 0.53997 0.18921 0.0
C805 C 0.9759 0.54394 0.16257 0.0
H806 H 0.42774 0.40377 0.09716 0.0
H807 H 0.45427 0.46972 0.0655 0.0
H808 H 0.47533 0.48394 0.11242 0.0
H809 H 0.48323 0.47775 0.16461 0.0
H810 H 0.45502 0.41196 0.19707 0.0
H811 H 0.43792 0.39753 0.14752 0.0
C812 C 0.43828 0.42125 0.10035 0.0
C813 C 0.43917 0.43563 0.07796 0.0
C814 C 0.45009 0.42935 0.12756 0.0
C815 C 0.45306 0.45825 0.08246 0.0
C816 C 0.46516 0.46642 0.10929 0.0
C817 C 0.47379 0.46027 0.16045 0.0
C818 C 0.47034 0.44587 0.18419 0.0
C819 C 0.46342 0.45215 0.13227 0.0
C820 C 0.45784 0.42326 0.17893 0.0
C821 C 0.44798 0.41504 0.15073 0.0
H822 H 0.72131 0.78157 0.41416 0.0
H823 H 0.65369 0.73394 0.43356 0.0
H824 H 0.65502 0.75431 0.47905 0.0
H825 H 0.67583 0.78418 0.51491 0.0
H826 H 0.7442 0.83052 0.49824 0.0
H827 H 0.74191 0.81266 0.44953 0.0
C828 C 0.70686 0.77575 0.42828 0.0
C829 C 0.6875 0.75617 0.42064 0.0
C830 C 0.7078 0.78741 0.45474 0.0
C831 C 0.66886 0.74884 0.43909 0.0
C832 C 0.66957 0.76051 0.46506 0.0
C833 C 0.69024 0.79043 0.50056 0.0
C834 C 0.7102 0.8085 0.51035 0.0
C835 C 0.68903 0.77959 0.47332 0.0
C836 C 0.72858 0.81673 0.49119 0.0
C837 C 0.72734 0.80635 0.4635 0.0
H838 H 0.25315 0.89965 0.42036 0.0
H839 H 0.21572 0.93204 0.41368 0.0
H840 H 0.19996 0.91865 0.46378 0.0
H841 H 0.19863 0.8996 0.51089 0.0
H842 H 0.2345 0.86566 0.51655 0.0
H843 H 0.24892 0.87755 0.46533 0.0
C844 C 0.24144 0.90365 0.42984 0.0
C845 C 0.23578 0.917 0.41355 0.0
C846 C 0.23218 0.89561 0.45843 0.0
C847 C 0.22033 0.92179 0.42582 0.0
C848 C 0.21137 0.91421 0.45449 0.0
C849 C 0.20939 0.89463 0.50063 0.0
C850 C 0.21561 0.88189 0.51728 0.0
C851 C 0.21742 0.90137 0.47117 0.0
C852 C 0.22944 0.87538 0.50394 0.0
C853 C 0.23777 0.88228 0.4748 0.0
H854 H 0.11111 0.3202 0.39302 0.0
H855 H 0.0512 0.31527 0.42566 0.0
H856 H 0.06039 0.31093 0.4774 0.0
H857 H 0.08377 0.30598 0.51227 0.0
H858 H 0.14659 0.31616 0.4824 0.0
H859 H 0.13748 0.32017 0.43034 0.0
C860 C 0.10026 0.31841 0.4116 0.0
C861 C 0.08047 0.31795 0.40562 0.0
C862 C 0.10594 0.3165 0.44156 0.0
C863 C 0.06658 0.31581 0.42978 0.0
C864 C 0.07175 0.31319 0.45932 0.0
C865 C 0.09605 0.3099 0.49493 0.0
C866 C 0.11599 0.31082 0.50185 0.0
C867 C 0.09125 0.31328 0.46539 0.0
C868 C 0.13093 0.31492 0.47807 0.0
C869 C 0.12583 0.31744 0.4482 0.0
H870 H 0.11614 0.35303 0.2574 0.0
H871 H 0.05252 0.32342 0.21409 0.0
H872 H 0.06897 0.32428 0.16517 0.0
H873 H 0.10083 0.33193 0.13507 0.0
H874 H 0.16459 0.35955 0.17713 0.0
H875 H 0.14875 0.36069 0.22639 0.0
C876 C 0.10603 0.34703 0.23712 0.0
C877 C 0.08321 0.33827 0.23917 0.0
C878 C 0.11556 0.34699 0.20905 0.0
C879 C 0.07013 0.3302 0.21295 0.0
C880 C 0.0795 0.33065 0.18502 0.0
C881 C 0.11132 0.33845 0.15497 0.0
C882 C 0.13384 0.34596 0.15255 0.0
C883 C 0.1021 0.33878 0.18288 0.0
C884 C 0.14718 0.35378 0.17858 0.0
C885 C 0.13814 0.35448 0.20662 0.0
H886 H 0.70088 0.76814 0.25442 0.0
H887 H 0.63275 0.74808 0.26825 0.0
H888 H 0.63222 0.76517 0.22087 0.0
H889 H 0.65043 0.78408 0.17406 0.0
H890 H 0.71877 0.80572 0.16037 0.0
H891 H 0.72013 0.79012 0.20926 0.0
C892 C 0.68598 0.76759 0.24702 0.0
C893 C 0.66684 0.75669 0.26466 0.0
C894 C 0.68588 0.77785 0.2199 0.0
C895 C 0.64771 0.75637 0.25509 0.0
C896 C 0.64736 0.76611 0.22798 0.0
C897 C 0.66567 0.78566 0.18216 0.0
C898 C 0.68448 0.79598 0.164 0.0
C899 C 0.66626 0.7767 0.21009 0.0
C900 C 0.70419 0.79798 0.17435 0.0
C901 C 0.70488 0.78891 0.2021 0.0
H902 H 0.2292 0.88421 0.26471 0.0
H903 H 0.28845 0.93854 0.22914 0.0
H904 H 0.28006 0.92139 0.17884 0.0
H905 H 0.25609 0.89139 0.14533 0.0
H906 H 0.19354 0.83976 0.17797 0.0
H907 H 0.20347 0.85485 0.22938 0.0
C908 C 0.24018 0.89219 0.24583 0.0
C909 C 0.25941 0.91252 0.2504 0.0
C910 C 0.23479 0.88262 0.21666 0.0
C911 C 0.2735 0.92293 0.22594 0.0
C912 C 0.26875 0.9131 0.19728 0.0
C913 C 0.24421 0.88359 0.16331 0.0
C914 C 0.22386 0.86456 0.15728 0.0
C915 C 0.24939 0.89305 0.19236 0.0
C916 C 0.20941 0.85429 0.18167 0.0
C917 C 0.21497 0.86306 0.21112 0.0
H918 H 0.64731 0.87992 0.26487 0.0
H919 H 0.68197 0.9488 0.24475 0.0
H920 H 0.68893 0.94111 0.19345 0.0
H921 H 0.68505 0.9152 0.15407 0.0
H922 H 0.65115 0.84632 0.17279 0.0
H923 H 0.64429 0.85364 0.22505 0.0
C924 C 0.65636 0.89322 0.24924 0.0
C925 C 0.66401 0.91491 0.25871 0.0
C926 C 0.6605 0.88872 0.21958 0.0
C927 C 0.67589 0.93197 0.2382 0.0
C928 C 0.67988 0.92761 0.20878 0.0
C929 C 0.676 0.90175 0.16953 0.0
C930 C 0.66828 0.88024 0.15956 0.0
C931 C 0.67221 0.9061 0.19923 0.0
C932 C 0.65714 0.86302 0.18001 0.0
C933 C 0.65318 0.86721 0.20979 0.0
H934 H 0.07403 0.76068 0.2398 0.0
H935 H 0.1293 0.756 0.27121 0.0
H936 H 0.1493 0.77322 0.22489 0.0
H937 H 0.14882 0.7844 0.17285 0.0
H938 H 0.09332 0.78813 0.14031 0.0
H939 H 0.07586 0.77697 0.19005 0.0
C940 C 0.09055 0.76365 0.23663 0.0
C941 C 0.1 0.75667 0.2586 0.0
C942 C 0.10191 0.77342 0.20981 0.0
C943 C 0.12155 0.76097 0.25446 0.0
C944 C 0.13302 0.77084 0.22799 0.0
C945 C 0.1333 0.78362 0.17693 0.0
C946 C 0.12229 0.78693 0.15288 0.0
C947 C 0.12309 0.7765 0.20515 0.0
C948 C 0.10203 0.78553 0.15847 0.0
C949 C 0.09197 0.77896 0.18679 0.0
H950 H 0.2489 0.32227 0.26271 0.0
H951 H 0.28325 0.39264 0.2652 0.0
H952 H 0.26658 0.39292 0.21675 0.0
H953 H 0.24394 0.37316 0.1723 0.0
H954 H 0.20839 0.30285 0.17052 0.0
H955 H 0.22343 0.30242 0.22044 0.0
C956 C 0.25268 0.33763 0.2526 0.0
C957 C 0.2675 0.35742 0.26718 0.0
C958 C 0.2427 0.33764 0.22508 0.0
C959 C 0.27195 0.37722 0.25427 0.0
C960 C 0.26245 0.37739 0.22661 0.0
C961 C 0.23927 0.35779 0.18317 0.0
C962 C 0.2252 0.33807 0.16796 0.0
C963 C 0.24801 0.35772 0.21167 0.0
C964 C 0.21909 0.31819 0.18207 0.0
C965 C 0.22784 0.31797 0.2104 0.0
H966 H 0.27888 0.33323 0.45424 0.0
H967 H 0.22999 0.33357 0.39649 0.0
H968 H 0.20657 0.32813 0.44064 0.0
H969 H 0.19989 0.32245 0.49573 0.0
H970 H 0.24674 0.31558 0.55065 0.0
H971 H 0.27109 0.32496 0.50798 0.0
C972 C 0.26317 0.3323 0.45147 0.0
C973 C 0.25618 0.33403 0.42249 0.0
C974 C 0.24946 0.32818 0.47659 0.0
C975 C 0.23563 0.33233 0.41882 0.0
C976 C 0.22228 0.32922 0.444 0.0
C977 C 0.21531 0.32283 0.49845 0.0
C978 C 0.22151 0.31903 0.52714 0.0
C979 C 0.22895 0.32691 0.47305 0.0
C980 C 0.2417 0.31956 0.52968 0.0
C981 C 0.25567 0.32457 0.50499 0.0
H982 H 0.70954 0.92722 0.41268 0.0
H983 H 0.646 0.91429 0.44325 0.0
H984 H 0.6509 0.90007 0.49083 0.0
H985 H 0.67422 0.89377 0.52523 0.0
H986 H 0.73825 0.90769 0.4958 0.0
H987 H 0.73193 0.91851 0.44604 0.0
C988 C 0.6967 0.92113 0.42966 0.0
C989 C 0.67754 0.92204 0.42455 0.0
C990 C 0.69967 0.91308 0.45714 0.0
C991 C 0.66098 0.91394 0.44669 0.0
C992 C 0.66375 0.90579 0.47392 0.0
C993 C 0.68673 0.89904 0.50782 0.0
C994 C 0.70671 0.9001 0.51423 0.0
C995 C 0.68319 0.90567 0.4796 0.0
C996 C 0.72265 0.9066 0.49135 0.0
C997 C 0.71913 0.91298 0.463 0.0
H998 H 0.10533 0.7503 0.42427 0.0
H999 H 0.07276 0.78749 0.41684 0.0
H1000 H 0.08634 0.80356 0.46703 0.0
H1001 H 0.10632 0.806 0.51385 0.0
H1002 H 0.14041 0.77035 0.52065 0.0
H1003 H 0.12763 0.75484 0.46974 0.0
C1004 C 0.10125 0.76194 0.43368 0.0
C1005 C 0.08791 0.76755 0.41706 0.0
C1006 C 0.10944 0.77141 0.46233 0.0
C1007 C 0.08301 0.78291 0.42923 0.0
C1008 C 0.09073 0.79207 0.45793 0.0
C1009 C 0.11103 0.79494 0.50398 0.0
C1010 C 0.12413 0.78917 0.52077 0.0
C1011 C 0.10379 0.78631 0.47476 0.0
C1012 C 0.13039 0.77503 0.5079 0.0
C1013 C 0.12299 0.7661 0.47894 0.0
H1014 H 0.34838 0.06993 0.78768 0.0
H1015 H 0.35596 0.12076 0.72788 0.0
H1016 H 0.36086 0.14449 0.7717 0.0
H1017 H 0.36171 0.15 0.82743 0.0
H1018 H 0.35934 0.1003 0.88578 0.0
H1019 H 0.35348 0.07696 0.84231 0.0
C1020 C 0.35117 0.08625 0.78438 0.0
C1021 C 0.3516 0.09363 0.75495 0.0
C1022 C 0.35469 0.09992 0.80945 0.0
C1023 C 0.35557 0.11485 0.75058 0.0
C1024 C 0.35832 0.12835 0.77557 0.0
C1025 C 0.36016 0.13419 0.83066 0.0
C1026 C 0.36006 0.12673 0.86022 0.0
C1027 C 0.35778 0.12099 0.80521 0.0
C1028 C 0.35832 0.10621 0.86365 0.0
C1029 C 0.35526 0.09283 0.83869 0.0
H1030 H 0.93374 0.24891 0.74824 0.0
H1031 H 0.89438 0.27943 0.74567 0.0
H1032 H 0.87806 0.26336 0.79442 0.0
H1033 H 0.87625 0.2421 0.83895 0.0
H1034 H 0.91415 0.21016 0.84128 0.0
H1035 H 0.92947 0.22488 0.79119 0.0
C1036 C 0.9216 0.25201 0.75844 0.0
C1037 C 0.91546 0.26554 0.74362 0.0
C1038 C 0.9119 0.2423 0.78623 0.0
C1039 C 0.89941 0.26912 0.75672 0.0
C1040 C 0.89006 0.25994 0.78457 0.0
C1041 C 0.8876 0.23812 0.82817 0.0
C1042 C 0.89412 0.22514 0.84354 0.0
C1043 C 0.8963 0.24665 0.79961 0.0
C1044 C 0.90879 0.21998 0.82957 0.0
C1045 C 0.91769 0.22856 0.80114 0.0
H1046 H 0.76249 0.64279 0.71799 0.0
H1047 H 0.70076 0.63657 0.74397 0.0
H1048 H 0.70647 0.62973 0.79637 0.0
H1049 H 0.72884 0.62578 0.83447 0.0
H1050 H 0.79302 0.63672 0.8111 0.0
H1051 H 0.78626 0.64076 0.7578 0.0
C1052 C 0.75038 0.63988 0.73526 0.0
C1053 C 0.73125 0.64012 0.72744 0.0
C1054 C 0.75415 0.63671 0.76563 0.0
C1055 C 0.71565 0.63655 0.74976 0.0
C1056 C 0.71888 0.6326 0.77961 0.0
C1057 C 0.74168 0.62958 0.81802 0.0
C1058 C 0.76156 0.63125 0.82709 0.0
C1059 C 0.73813 0.63283 0.78782 0.0
C1060 C 0.77748 0.6352 0.80488 0.0
C1061 C 0.7737 0.63767 0.77439 0.0
H1062 H 0.77845 0.7084 0.57667 0.0
H1063 H 0.73348 0.63923 0.56555 0.0
H1064 H 0.75531 0.63788 0.52365 0.0
H1065 H 0.78511 0.65673 0.48739 0.0
H1066 H 0.82796 0.72637 0.49408 0.0
H1067 H 0.80937 0.72729 0.54075 0.0
C1068 C 0.77363 0.69305 0.56519 0.0
C1069 C 0.75439 0.67397 0.574 0.0
C1070 C 0.78592 0.69251 0.54043 0.0
C1071 C 0.74814 0.65417 0.55892 0.0
C1072 C 0.76063 0.65336 0.53505 0.0
C1073 C 0.7907 0.67199 0.4996 0.0
C1074 C 0.80803 0.6914 0.4879 0.0
C1075 C 0.77929 0.67246 0.52529 0.0
C1076 C 0.81481 0.71124 0.50315 0.0
C1077 C 0.80408 0.71175 0.52959 0.0
H1078 H 0.32837 0.10816 0.60459 0.0
H1079 H 0.35712 0.06955 0.57796 0.0
H1080 H 0.36289 0.0842 0.5268 0.0
H1081 H 0.35682 0.1054 0.48854 0.0
H1082 H 0.32726 0.14328 0.51457 0.0
H1083 H 0.3253 0.13194 0.56727 0.0
C1084 C 0.33605 0.10306 0.58768 0.0
C1085 C 0.342 0.08752 0.59503 0.0
C1086 C 0.33923 0.11146 0.55822 0.0
C1087 C 0.35222 0.08135 0.57292 0.0
C1088 C 0.35552 0.0897 0.54361 0.0
C1089 C 0.35013 0.1113 0.50584 0.0
C1090 C 0.34194 0.1249 0.49768 0.0
C1091 C 0.34864 0.10437 0.53586 0.0
C1092 C 0.33372 0.13283 0.52034 0.0
C1093 C 0.33241 0.12619 0.5504 0.0
H1094 H 0.91741 0.27465 0.56662 0.0
H1095 H 0.93013 0.22614 0.60358 0.0
H1096 H 0.91117 0.20187 0.5607 0.0
H1097 H 0.89394 0.19573 0.51066 0.0
H1098 H 0.88143 0.24412 0.473 0.0
H1099 H 0.89713 0.26704 0.51837 0.0
C1100 C 0.91592 0.25872 0.56536 0.0
C1101 C 0.9254 0.25234 0.58808 0.0
C1102 C 0.90501 0.2448 0.54055 0.0
C1103 C 0.92312 0.23154 0.5863 0.0
C1104 C 0.91226 0.21761 0.56179 0.0
C1105 C 0.89406 0.21099 0.51274 0.0
C1106 C 0.88653 0.21823 0.48854 0.0
C1107 C 0.90347 0.22422 0.53855 0.0
C1108 C 0.88722 0.23827 0.49133 0.0
C1109 C 0.89627 0.2514 0.51718 0.0
H1110 H 0.30862 0.20783 0.60288 0.0
H1111 H 0.33304 0.2741 0.57406 0.0
H1112 H 0.33431 0.26348 0.52172 0.0
H1113 H 0.32808 0.23549 0.484 0.0
H1114 H 0.30464 0.16937 0.51201 0.0
H1115 H 0.30358 0.17984 0.56496 0.0
C1116 C 0.31424 0.21995 0.58515 0.0
C1117 C 0.32061 0.24172 0.59243 0.0
C1118 C 0.31509 0.21376 0.55501 0.0
C1119 C 0.32805 0.25725 0.56918 0.0
C1120 C 0.32874 0.25119 0.5392 0.0
C1121 C 0.32255 0.22333 0.50169 0.0
C1122 C 0.31606 0.20162 0.49417 0.0
C1123 C 0.32218 0.22951 0.53186 0.0
C1124 C 0.30956 0.18615 0.51733 0.0
C1125 C 0.30893 0.19214 0.54752 0.0
H1126 H 0.77629 0.08106 0.60699 0.0
H1127 H 0.72252 0.09149 0.58717 0.0
H1128 H 0.74042 0.10999 0.54035 0.0
H1129 H 0.7697 0.12048 0.5031 0.0
H1130 H 0.82251 0.10836 0.52126 0.0
H1131 H 0.80703 0.09394 0.57112 0.0
C1132 C 0.76859 0.08755 0.59254 0.0
C1133 C 0.74799 0.08468 0.60036 0.0
C1134 C 0.77886 0.09798 0.56545 0.0
C1135 C 0.73828 0.0933 0.58153 0.0
C1136 C 0.74851 0.10391 0.55476 0.0
C1137 C 0.77791 0.11485 0.51811 0.0
C1138 C 0.79709 0.11531 0.50842 0.0
C1139 C 0.76855 0.10593 0.54622 0.0
C1140 C 0.80781 0.10834 0.52827 0.0
C1141 C 0.79882 0.09986 0.55664 0.0
H1142 H 0.9237 0.6594 0.58609 0.0
H1143 H 0.89998 0.70204 0.61424 0.0
H1144 H 0.88113 0.69612 0.56573 0.0
H1145 H 0.87418 0.68155 0.51338 0.0
H1146 H 0.89911 0.64018 0.48469 0.0
H1147 H 0.91431 0.64255 0.53535 0.0
C1148 C 0.91426 0.66726 0.58176 0.0
C1149 C 0.91353 0.68135 0.60375 0.0
C1150 C 0.9036 0.66397 0.55363 0.0
C1151 C 0.90105 0.69126 0.5977 0.0
C1152 C 0.8902 0.68787 0.56993 0.0
C1153 C 0.88247 0.67264 0.51855 0.0
C1154 C 0.88556 0.66072 0.49548 0.0
C1155 C 0.89171 0.67461 0.54749 0.0
C1156 C 0.89659 0.64948 0.5022 0.0
C1157 C 0.90538 0.65093 0.53107 0.0
H1158 H 0.8884 0.64267 0.7453 0.0
H1159 H 0.94359 0.69755 0.78933 0.0
H1160 H 0.9225 0.69 0.8362 0.0
H1161 H 0.88897 0.66664 0.86542 0.0
H1162 H 0.83391 0.61177 0.82119 0.0
H1163 H 0.85416 0.62078 0.77353 0.0
C1164 C 0.89579 0.65303 0.76512 0.0
C1165 C 0.91761 0.67051 0.76391 0.0
C1166 C 0.88354 0.64867 0.79192 0.0
C1167 C 0.92685 0.68394 0.78968 0.0
C1168 C 0.91481 0.67962 0.8165 0.0
C1169 C 0.88138 0.65676 0.84527 0.0
C1170 C 0.85997 0.63855 0.84691 0.0
C1171 C 0.89323 0.66187 0.81799 0.0
C1172 C 0.85025 0.62603 0.82052 0.0
C1173 C 0.8619 0.63104 0.7933 0.0
H1174 H 0.31822 0.24176 0.77302 0.0
H1175 H 0.38262 0.26605 0.73457 0.0
H1176 H 0.3932 0.25212 0.77791 0.0
H1177 H 0.38522 0.23621 0.82915 0.0
H1178 H 0.32134 0.2135 0.86811 0.0
H1179 H 0.30928 0.22325 0.82192 0.0
C1180 C 0.33452 0.24387 0.77398 0.0
C1181 C 0.34969 0.25515 0.7508 0.0
C1182 C 0.34053 0.23601 0.79903 0.0
C1183 C 0.37068 0.25755 0.75224 0.0
C1184 C 0.37674 0.24959 0.77701 0.0
C1185 C 0.3685 0.23289 0.82707 0.0
C1186 C 0.3541 0.22411 0.85176 0.0
C1187 C 0.36194 0.23918 0.80083 0.0
C1188 C 0.3326 0.22019 0.84921 0.0
C1189 C 0.32578 0.2259 0.82295 0.0
H1190 H 0.76846 0.12431 0.7524 0.0
H1191 H 0.73911 0.05676 0.77826 0.0
H1192 H 0.75823 0.06785 0.82688 0.0
H1193 H 0.78178 0.09659 0.86304 0.0
H1194 H 0.81159 0.16415 0.83792 0.0
H1195 H 0.79411 0.15322 0.7877 0.0
C1196 C 0.76629 0.11202 0.76865 0.0
C1197 C 0.75218 0.08973 0.76179 0.0
C1198 C 0.77745 0.1185 0.7966 0.0
C1199 C 0.74979 0.07401 0.78294 0.0
C1200 C 0.76071 0.08033 0.81079 0.0
C1201 C 0.78448 0.1089 0.84647 0.0
C1202 C 0.79765 0.13111 0.85412 0.0
C1203 C 0.77434 0.10249 0.81797 0.0
C1204 C 0.80146 0.14695 0.83241 0.0
C1205 C 0.79138 0.1407 0.80385 0.0
H1206 H 0.06432 0.34808 -0.00015 0.0
H1207 H 0.10831 0.41759 0.00776 0.0
H1208 H 0.1378 0.41175 0.02496 0.0
H1209 H 0.1488 0.38663 0.04581 0.0
H1210 H 0.10523 0.31724 0.03655 0.0
H1211 H 0.07805 0.32316 0.01089 0.0
C1212 C 0.08051 0.36191 0.00476 0.0
C1213 C 0.0841 0.3832 0.00315 0.0
C1214 C 0.09744 0.35843 0.01429 0.0
C1215 C 0.10518 0.40105 0.00903 0.0
C1216 C 0.12202 0.39772 0.01895 0.0
C1217 C 0.13374 0.3729 0.03691 0.0
C1218 C 0.12894 0.35156 0.04287 0.0
C1219 C 0.11808 0.37647 0.0227 0.0
C1220 C 0.10932 0.33379 0.03175 0.0
C1221 C 0.09366 0.33719 0.01754 0.0
H1222 H 0.64189 0.70772 5e-05 0.0
H1223 H 0.58089 0.68462 0.04811 0.0
H1224 H 0.59495 0.72054 0.07143 0.0
H1225 H 0.62593 0.75741 0.08223 0.0
H1226 H 0.68658 0.78118 0.03346 0.0
H1227 H 0.67123 0.74636 0.00579 0.0
C1228 C 0.63164 0.71065 0.01541 0.0
C1229 C 0.6105 0.69344 0.02268 0.0
C1230 C 0.63974 0.73149 0.02848 0.0
C1231 C 0.59725 0.69755 0.04222 0.0
C1232 C 0.60528 0.71809 0.05562 0.0
C1233 C 0.6355 0.75509 0.06491 0.0
C1234 C 0.65726 0.77169 0.05973 0.0
C1235 C 0.62664 0.73503 0.04942 0.0
C1236 C 0.66967 0.76863 0.03746 0.0
C1237 C 0.66099 0.74866 0.02195 0.0
H1238 H 0.30318 0.91906 0.99105 0.0
H1239 H 0.29862 0.97115 0.03493 0.0
H1240 H 0.26208 0.94482 0.05356 0.0
H1241 H 0.2342 0.90671 0.06382 0.0
H1242 H 0.24102 0.85477 0.02409 0.0
H1243 H 0.27311 0.88132 -0.00393 0.0
C1244 C 0.29412 0.92476 0.00434 0.0
C1245 C 0.3039 0.94703 0.01214 0.0
C1246 C 0.27334 0.90949 0.01557 0.0
C1247 C 0.29168 0.95408 0.02894 0.0
C1248 C 0.27075 0.93902 0.03961 0.0
C1249 C 0.24251 0.90117 0.04867 0.0
C1250 C 0.23545 0.87875 0.04675 0.0
C1251 C 0.26181 0.91661 0.03405 0.0
C1252 C 0.24597 0.87185 0.02615 0.0
C1253 C 0.26461 0.88708 0.01045 0.0
H1254 H 0.33007 0.05566 0.00758 0.0
H1255 H 0.39824 0.09319 0.03415 0.0
H1256 H 0.3996 0.12678 0.01924 0.0
H1257 H 0.38404 0.14344 0.98668 0.0
H1258 H 0.31609 0.1059 0.95939 0.0
H1259 H 0.31171 0.07459 0.98765 0.0
C1260 C 0.345 0.07128 0.01099 0.0
C1261 C 0.36418 0.07192 0.02107 0.0
C1262 C 0.34574 0.09053 0.00204 0.0
C1263 C 0.38332 0.09224 0.02604 0.0
C1264 C 0.38415 0.11148 0.01736 0.0
C1265 C 0.36798 0.12881 0.98825 0.0
C1266 C 0.35058 0.12671 0.97027 0.0
C1267 C 0.36584 0.11062 0.00362 0.0
C1268 C 0.32982 0.10771 0.97268 0.0
C1269 C 0.3274 0.08971 0.98848 0.0
H1270 H 0.93124 0.3253 0.98668 0.0
H1271 H 0.98978 0.32115 0.97604 0.0
H1272 H 0.96749 0.28291 0.96113 0.0
H1273 H 0.93185 0.25183 0.94567 0.0
H1274 H 0.87345 0.25606 0.95331 0.0
H1275 H 0.89502 0.29286 0.97556 0.0
C1276 C 0.93912 0.31599 0.98139 0.0
C1277 C 0.96223 0.32627 0.98212 0.0
C1278 C 0.92617 0.29394 0.9725 0.0
C1279 C 0.9721 0.31383 0.97538 0.0
C1280 C 0.95935 0.29189 0.9669 0.0
C1281 C 0.92382 0.2606 0.95324 0.0
C1282 C 0.90115 0.25129 0.94852 0.0
C1283 C 0.93645 0.28193 0.96475 0.0
C1284 C 0.89084 0.26285 0.95745 0.0
C1285 C 0.90323 0.28395 0.96973 0.0
H1286 H 0.67612 0.61579 0.98975 0.0
H1287 H 0.68903 0.6744 0.94375 0.0
H1288 H 0.72379 0.67936 0.92495 0.0
H1289 H 0.74831 0.66483 0.91683 0.0
H1290 H 0.73324 0.60412 0.95857 0.0
H1291 H 0.70235 0.60288 0.98497 0.0
C1292 C 0.68668 0.62982 0.97595 0.0
C1293 C 0.67983 0.64456 0.96787 0.0
C1294 C 0.70642 0.63229 0.9646 0.0
C1295 C 0.69377 0.66268 0.95005 0.0
C1296 C 0.71368 0.66554 0.93932 0.0
C1297 C 0.73839 0.65138 0.93188 0.0
C1298 C 0.74301 0.63441 0.93515 0.0
C1299 C 0.71984 0.65009 0.9457 0.0
C1300 C 0.73032 0.61752 0.95559 0.0
C1301 C 0.71235 0.6166 0.9704 0.0
H1302 H 0.88934 0.5766 0.00885 0.0
H1303 H 0.9485 0.63823 -0.00743 0.0
H1304 H 0.92683 0.65231 0.96956 0.0
H1305 H 0.89169 0.64559 0.94864 0.0
H1306 H 0.83317 0.58281 0.96155 0.0
H1307 H 0.85386 0.57111 -0.00782 0.0
C1308 C 0.89752 0.59324 0.00071 0.0
C1309 C 0.92058 0.6062 0.00207 0.0
C1310 C 0.88503 0.60108 0.98687 0.0
C1311 C 0.93081 0.62778 -0.00843 0.0
C1312 C 0.91843 0.63586 0.97835 0.0
C1313 C 0.88341 0.62941 0.95838 0.0
C1314 C 0.8609 0.61508 0.95244 0.0
C1315 C 0.89561 0.6224 0.97498 0.0
C1316 C 0.85038 0.59434 0.96587 0.0
C1317 C 0.86228 0.58749 0.98313 0.0
H1318 H 0.40197 0.32317 0.00598 0.0
H1319 H 0.33582 0.30659 0.98349 0.0
H1320 H 0.32745 0.27047 0.96612 0.0
H1321 H 0.34048 0.24589 0.9505 0.0
H1322 H 0.40773 0.26402 0.96804 0.0
H1323 H 0.41383 0.2967 -0.00474 0.0
C1324 C 0.38558 0.31147 -0.00211 0.0
C1325 C 0.36961 0.31764 -0.00432 0.0
C1326 C 0.3811 0.29097 0.98698 0.0
C1327 C 0.34847 0.30232 0.98512 0.0
C1328 C 0.34368 0.28167 0.97515 0.0
C1329 C 0.35641 0.25685 0.96063 0.0
C1330 C 0.37371 0.25267 0.95673 0.0
C1331 C 0.36012 0.27616 0.97488 0.0
C1332 C 0.39407 0.26674 0.9707 0.0
C1333 C 0.39767 0.28562 0.98595 0.0
H1334 H 0.71773 0.0571 0.00536 0.0
H1335 H 0.70212 0.10816 0.01459 0.0
H1336 H 0.73805 0.13469 -0.00527 0.0
H1337 H 0.77231 0.14262 0.96926 0.0
H1338 H 0.78829 0.09202 0.96009 0.0
H1339 H 0.75424 0.06625 0.98599 0.0
C1340 C 0.72229 0.07406 0.00326 0.0
C1341 C 0.70709 0.08052 0.01105 0.0
C1342 C 0.74318 0.0894 -0.00795 0.0
C1343 C 0.7134 0.10267 0.00863 0.0
C1344 C 0.73399 0.1179 -0.00274 0.0
C1345 C 0.76867 0.12619 0.97409 0.0
C1346 C 0.78284 0.11924 0.96341 0.0
C1347 C 0.74884 0.11139 0.98832 0.0
C1348 C 0.77777 0.09776 0.96884 0.0
C1349 C 0.75816 0.08297 0.98321 0.0
H1350 H 0.68463 0.97273 0.02375 0.0
H1351 H 0.61444 0.93127 0.01439 0.0
H1352 H 0.6172 0.89934 0.02689 0.0
H1353 H 0.63902 0.88434 0.04827 0.0
H1354 H 0.70922 0.92546 0.05608 0.0
H1355 H 0.70717 0.95629 0.03573 0.0
C1356 C 0.67002 0.95662 0.02384 0.0
C1357 C 0.64933 0.95438 0.01865 0.0
C1358 C 0.67175 0.93829 0.03079 0.0
C1359 C 0.63055 0.93342 0.01841 0.0
C1360 C 0.63209 0.91516 0.0257 0.0
C1361 C 0.65389 0.89985 0.04431 0.0
C1362 C 0.67425 0.90271 0.05341 0.0
C1363 C 0.65252 0.91752 0.03294 0.0
C1364 C 0.69344 0.92289 0.04874 0.0
C1365 C 0.69222 0.94056 0.03752 0.0
H1366 H 0.05418 0.67934 8e-05 0.0
H1367 H 0.03164 0.65709 0.09105 0.0
H1368 H 0.06151 0.69087 0.11198 0.0
H1369 H 0.09316 0.72667 0.10509 0.0
H1370 H 0.11502 0.75195 0.01528 0.0
H1371 H 0.08679 0.71681 -0.00681 0.0
C1372 C 0.05592 0.68197 0.02444 0.0
C1373 C 0.04062 0.66577 0.04399 0.0
C1374 C 0.07303 0.70187 0.03651 0.0
C1375 C 0.04301 0.66936 0.07551 0.0
C1376 C 0.06015 0.68864 0.08754 0.0
C1377 C 0.09161 0.72474 0.0806 0.0
C1378 C 0.10581 0.74214 0.06185 0.0
C1379 C 0.07505 0.70503 0.06831 0.0
C1380 C 0.10417 0.73888 0.03023 0.0
C1381 C 0.08796 0.71884 0.01764 0.0
H1382 H 0.31331 0.36405 0.00904 0.0
H1383 H 0.33976 0.42834 0.04848 0.0
H1384 H 0.30379 0.41803 0.06955 0.0
H1385 H 0.26581 0.38956 0.08088 0.0
H1386 H 0.23891 0.32566 0.04029 0.0
H1387 H 0.27386 0.33708 0.01473 0.0
C1388 C 0.3111 0.37579 0.02211 0.0
C1389 C 0.32916 0.39677 0.02773 0.0
C1390 C 0.29029 0.36987 0.03365 0.0
C1391 C 0.32608 0.41204 0.04409 0.0
C1392 C 0.30555 0.40616 0.05611 0.0
C1393 C 0.2675 0.3784 0.06573 0.0
C1394 C 0.24997 0.35687 0.06235 0.0
C1395 C 0.28766 0.38501 0.05152 0.0
C1396 C 0.25219 0.3424 0.04285 0.0
C1397 C 0.27223 0.34884 0.02861 0.0
H1398 H 0.75844 0.73164 0.34078 0.0
H1399 H 0.70771 0.66392 0.34686 0.0
H1400 H 0.735 0.65419 0.36109 0.0
H1401 H 0.77212 0.66565 0.37947 0.0
H1402 H 0.82199 0.73369 0.37931 0.0
H1403 H 0.79655 0.74264 0.35449 0.0
C1404 C 0.75347 0.7147 0.34453 0.0
C1405 C 0.73108 0.69853 0.34294 0.0
C1406 C 0.76918 0.70934 0.35387 0.0
C1407 C 0.72483 0.67668 0.34816 0.0
C1408 C 0.74043 0.67111 0.35633 0.0
C1409 C 0.77759 0.68229 0.37287 0.0
C1410 C 0.79892 0.69897 0.38058 0.0
C1411 C 0.7625 0.68738 0.36027 0.0
C1412 C 0.80574 0.7206 0.37297 0.0
C1413 C 0.7911 0.72571 0.35916 0.0
H1414 H 0.27614 0.02715 0.33652 0.0
H1415 H 0.32733 0.01773 0.37329 0.0
H1416 H 0.3451 0.0542 0.39583 0.0
H1417 H 0.34456 0.08744 0.40867 0.0
H1418 H 0.29314 0.09693 0.37366 0.0
H1419 H 0.27728 0.06196 0.34616 0.0
C1420 C 0.29128 0.03312 0.34925 0.0
C1421 C 0.30021 0.01953 0.35348 0.0
C1422 C 0.30139 0.05413 0.36239 0.0
C1423 C 0.31996 0.02768 0.36983 0.0
C1424 C 0.33017 0.04857 0.38274 0.0
C1425 C 0.32998 0.08192 0.39476 0.0
C1426 C 0.31984 0.09456 0.39344 0.0
C1427 C 0.32078 0.06171 0.3797 0.0
C1428 C 0.30122 0.08748 0.37496 0.0
C1429 C 0.29208 0.06742 0.35949 0.0
H1430 H 0.97112 0.28108 0.33622 0.0
H1431 H 0.98918 0.23149 0.33412 0.0
H1432 H 0.95325 0.20485 0.3538 0.0
H1433 H 0.91898 0.19706 0.37824 0.0
H1434 H 0.90082 0.24646 0.38128 0.0
H1435 H 0.93434 0.27162 0.35404 0.0
C1436 C 0.96711 0.26438 0.33975 0.0
C1437 C 0.983 0.25844 0.33426 0.0
C1438 C 0.9464 0.24909 0.35124 0.0
C1439 C 0.97738 0.23662 0.33844 0.0
C1440 C 0.95681 0.22133 0.34972 0.0
C1441 C 0.92193 0.21304 0.37197 0.0
C1442 C 0.90754 0.21996 0.38197 0.0
C1443 C 0.94146 0.22755 0.35704 0.0
C1444 C 0.91177 0.24085 0.37401 0.0
C1445 C 0.931 0.25527 0.35864 0.0
H1446 H 0.05905 0.40668 0.33305 0.0
H1447 H 0.99489 0.35765 0.30054 0.0
H1448 H 0.98716 0.386 0.28565 0.0
H1449 H 1.00093 0.42439 0.27408 0.0
H1450 H 0.06621 0.47342 0.3023 0.0
H1451 H 0.07083 0.44563 0.32781 0.0
C1452 C 0.0432 0.4022 0.32331 0.0
C1453 C 0.02772 0.38008 0.31742 0.0
C1454 C 0.03907 0.41866 0.31401 0.0
C1455 C 0.00722 0.37455 0.30491 0.0
C1456 C 0.00278 0.39076 0.29639 0.0
C1457 C 0.01596 0.42905 0.2865 0.0
C1458 C 0.03332 0.45086 0.28588 0.0
C1459 C 0.01891 0.41284 0.29967 0.0
C1460 C 0.05256 0.45676 0.30246 0.0
C1461 C 0.05534 0.4408 0.31666 0.0
H1462 H 0.63085 0.64004 0.33013 0.0
H1463 H 0.58325 0.6602 0.31707 0.0
H1464 H 0.55675 0.62408 0.29736 0.0
H1465 H 0.54819 0.58781 0.27954 0.0
H1466 H 0.59485 0.5668 0.29348 0.0
H1467 H 0.62045 0.60193 0.31776 0.0
C1468 C 0.61463 0.63644 0.32311 0.0
C1469 C 0.60914 0.65286 0.32467 0.0
C1470 C 0.59925 0.61544 0.31219 0.0
C1471 C 0.58793 0.64788 0.316 0.0
C1472 C 0.57274 0.62722 0.30471 0.0
C1473 C 0.56373 0.59079 0.28872 0.0
C1474 C 0.56969 0.57487 0.28504 0.0
C1475 C 0.57834 0.61101 0.30224 0.0
C1476 C 0.58989 0.57881 0.29658 0.0
C1477 C 0.60459 0.59896 0.31008 0.0
H1478 H 0.36944 0.98344 0.31874 0.0
H1479 H 0.33659 0.91431 0.33567 0.0
H1480 H 0.36866 0.91318 0.31729 0.0
H1481 H 0.40334 0.9308 0.28834 0.0
H1482 H 0.43557 0.99976 0.27076 0.0
H1483 H 0.40677 0.00215 0.29808 0.0
C1484 C 0.36948 0.96821 0.31898 0.0
C1485 C 0.35054 0.94892 0.32801 0.0
C1486 C 0.38787 0.96766 0.30813 0.0
C1487 C 0.35092 0.92937 0.32864 0.0
C1488 C 0.36923 0.9287 0.318 0.0
C1489 C 0.40445 0.94646 0.29154 0.0
C1490 C 0.4214 0.96505 0.27739 0.0
C1491 C 0.38746 0.94758 0.30658 0.0
C1492 C 0.42258 0.98524 0.28139 0.0
C1493 C 0.40603 0.98657 0.29677 0.0
H1494 H 0.57272 0.92196 0.34114 0.0
H1495 H 0.62766 0.98703 0.3275 0.0
H1496 H 0.60275 0.9988 0.30935 0.0
H1497 H 0.56629 0.98914 0.29019 0.0
H1498 H 0.5123 0.923 0.29922 0.0
H1499 H 0.53561 0.91358 0.32791 0.0
C1500 C 0.57927 0.93881 0.3346 0.0
C1501 C 0.60211 0.95344 0.33504 0.0
C1502 C 0.56493 0.94536 0.32357 0.0
C1503 C 0.6102 0.9753 0.32696 0.0
C1504 C 0.59595 0.98207 0.3166 0.0
C1505 C 0.55952 0.97275 0.29885 0.0
C1506 C 0.53767 0.95672 0.29183 0.0
C1507 C 0.5734 0.96702 0.31371 0.0
C1508 C 0.529 0.93576 0.30417 0.0
C1509 C 0.54245 0.93021 0.32019 0.0
H1510 H 0.02056 0.63549 0.32744 0.0
H1511 H 0.09113 0.66644 0.32632 0.0
H1512 H 0.08822 0.63182 0.31128 0.0
H1513 H 0.06543 0.59417 0.29129 0.0
H1514 H 0.99484 0.56328 0.29399 0.0
H1515 H 0.99791 0.59626 0.31625 0.0
C1516 C 0.03529 0.63454 0.32437 0.0
C1517 C 0.05601 0.6535 0.32743 0.0
C1518 C 0.03347 0.61459 0.31597 0.0
C1519 C 0.07498 0.65204 0.32394 0.0
C1520 C 0.07332 0.63227 0.31524 0.0
C1521 C 0.05075 0.5944 0.29777 0.0
C1522 C 0.02994 0.57642 0.29056 0.0
C1523 C 0.05263 0.61359 0.31025 0.0
C1524 C 0.01105 0.57703 0.29897 0.0
C1525 C 0.01278 0.59592 0.31152 0.0
H1526 H 0.38004 0.43062 0.34195 0.0
H1527 H 0.36822 0.36629 0.31918 0.0
H1528 H 0.40493 0.38219 0.29811 0.0
H1529 H 0.43884 0.41417 0.28139 0.0
H1530 H 0.45096 0.4787 0.30166 0.0
H1531 H 0.416 0.46299 0.32924 0.0
C1532 C 0.38558 0.42008 0.33267 0.0
C1533 C 0.37118 0.39727 0.33179 0.0
C1534 C 0.40681 0.42937 0.32023 0.0
C1535 C 0.37875 0.38388 0.31986 0.0
C1536 C 0.39981 0.39295 0.30783 0.0
C1537 C 0.43398 0.42477 0.29239 0.0
C1538 C 0.44726 0.44749 0.28943 0.0
C1539 C 0.41373 0.41563 0.30724 0.0
C1540 C 0.44099 0.46115 0.30385 0.0
C1541 C 0.42092 0.45214 0.31927 0.0
H1542 H 0.27554 0.25701 0.35272 0.0
H1543 H 0.34457 0.30525 0.35769 0.0
H1544 H 0.35319 0.27701 0.36958 0.0
H1545 H 0.34077 0.23974 0.38588 0.0
H1546 H 0.27171 0.19212 0.38706 0.0
H1547 H 0.26333 0.21858 0.3648 0.0
C1548 C 0.29247 0.26119 0.35582 0.0
C1549 C 0.30939 0.28316 0.35459 0.0
C1550 C 0.29726 0.24491 0.36376 0.0
C1551 C 0.33125 0.28846 0.35887 0.0
C1552 C 0.3362 0.27232 0.36562 0.0
C1553 C 0.32399 0.23499 0.38011 0.0
C1554 C 0.30689 0.21402 0.3874 0.0
C1555 C 0.31931 0.25063 0.36908 0.0
C1556 C 0.2851 0.20811 0.38094 0.0
C1557 C 0.28034 0.22332 0.36863 0.0
H1558 H 0.70665 0.0372 0.37035 0.0
H1559 H 0.75021 0.01522 0.33961 0.0
H1560 H 0.78202 0.05034 0.35397 0.0
H1561 H 0.79701 0.08472 0.38299 0.0
H1562 H 0.75347 0.10661 0.41394 0.0
H1563 H 0.72216 0.07442 0.39103 0.0
C1564 C 0.72312 0.04026 0.36634 0.0
C1565 C 0.72608 0.02351 0.35455 0.0
C1566 C 0.74135 0.06048 0.3747 0.0
C1567 C 0.74749 0.02779 0.34893 0.0
C1568 C 0.7657 0.04787 0.35719 0.0
C1569 C 0.78081 0.08288 0.38364 0.0
C1570 C 0.77747 0.09784 0.40043 0.0
C1571 C 0.76281 0.06403 0.37111 0.0
C1572 C 0.75636 0.09517 0.40131 0.0
C1573 C 0.73844 0.07668 0.38847 0.0
H1574 H 0.97924 0.72761 0.33513 0.0
H1575 H 0.98981 0.67608 0.36554 0.0
H1576 H 0.95312 0.657 0.3873 0.0
H1577 H 0.91971 0.65681 0.40238 0.0
H1578 H 0.90917 0.70854 0.3738 0.0
H1579 H 0.94397 0.72544 0.34594 0.0
C1580 C 0.97345 0.71209 0.34622 0.0
C1581 C 0.98746 0.70349 0.34909 0.0
C1582 C 0.95234 0.70124 0.35899 0.0
C1583 C 0.97954 0.68323 0.36324 0.0
C1584 C 0.95853 0.67227 0.37572 0.0
C1585 C 0.92493 0.67164 0.38967 0.0
C1586 C 0.91214 0.68161 0.39035 0.0
C1587 C 0.94506 0.68142 0.37443 0.0
C1588 C 0.91879 0.7006 0.3735 0.0
C1589 C 0.93875 0.71033 0.35785 0.0
H1590 H 0.41405 0.05236 0.68807 0.0
H1591 H 0.3576 0.99117 0.71418 0.0
H1592 H 0.38157 0.97869 0.7336 0.0
H1593 H 0.41817 0.98712 0.74976 0.0
H1594 H 0.4747 0.04918 0.72821 0.0
H1595 H 0.45134 0.05927 0.69974 0.0
C1596 C 0.40705 0.03615 0.69748 0.0
C1597 C 0.38407 0.0228 0.69998 0.0
C1598 C 0.42099 0.02927 0.70942 0.0
C1599 C 0.37521 0.00185 0.71232 0.0
C1600 C 0.3889 0.99468 0.7234 0.0
C1601 C 0.42539 0.00252 0.73785 0.0
C1602 C 0.44803 0.0173 0.74053 0.0
C1603 C 0.41176 0.0085 0.72295 0.0
C1604 C 0.45732 0.03745 0.72582 0.0
C1605 C 0.44392 0.04329 0.70996 0.0
H1606 H 0.94463 0.37255 0.66466 0.0
H1607 H 1.0022 0.36878 0.68643 0.0
H1608 H 0.02058 0.40608 0.70577 0.0
H1609 H 0.01907 0.43829 0.72142 0.0
H1610 H 0.96165 0.44245 0.70191 0.0
H1611 H 0.94462 0.40672 0.67603 0.0
C1612 C 0.96128 0.37997 0.67333 0.0
C1613 C 0.97185 0.36767 0.67446 0.0
C1614 C 0.9718 0.40152 0.68474 0.0
C1615 C 0.99351 0.37766 0.68556 0.0
C1616 C 0.0041 0.39905 0.69661 0.0
C1617 C 0.003 0.43152 0.71089 0.0
C1618 C 0.99152 0.44279 0.71355 0.0
C1619 C 0.99322 0.4109 0.69697 0.0
C1620 C 0.97078 0.43404 0.69988 0.0
C1621 C 0.961 0.41355 0.68543 0.0
H1622 H 0.64839 0.62174 0.69665 0.0
H1623 H 0.62934 0.58263 0.61489 0.0
H1624 H 0.59389 0.55659 0.63776 0.0
H1625 H 0.56987 0.54362 0.68285 0.0
H1626 H 0.59414 0.58033 0.76698 0.0
H1627 H 0.62527 0.60871 0.74108 0.0
C1628 C 0.63625 0.60778 0.68358 0.0
C1629 C 0.64123 0.60419 0.6541 0.0
C1630 C 0.61669 0.59235 0.69742 0.0
C1631 C 0.62569 0.58574 0.63764 0.0
C1632 C 0.60552 0.57083 0.65077 0.0
C1633 C 0.58192 0.55773 0.69566 0.0
C1634 C 0.57882 0.55966 0.72695 0.0
C1635 C 0.60109 0.57367 0.68103 0.0
C1636 C 0.59493 0.57838 0.74274 0.0
C1637 C 0.61323 0.59471 0.72803 0.0
H1638 H 0.67568 0.71638 0.64141 0.0
H1639 H 0.74307 0.74889 0.67185 0.0
H1640 H 0.74666 0.78436 0.66288 0.0
H1641 H 0.73287 0.80537 0.63636 0.0
H1642 H 0.66571 0.7728 0.60534 0.0
H1643 H 0.65949 0.73828 0.62562 0.0
C1644 C 0.69098 0.73125 0.64673 0.0
C1645 C 0.70923 0.73004 0.65654 0.0
C1646 C 0.69295 0.75162 0.64142 0.0
C1647 C 0.72884 0.7494 0.66394 0.0
C1648 C 0.73093 0.76971 0.65874 0.0
C1649 C 0.71661 0.79093 0.63543 0.0
C1650 C 0.69984 0.79148 0.6191 0.0
C1651 C 0.71341 0.77098 0.64615 0.0
C1652 C 0.67885 0.77266 0.61778 0.0
C1653 C 0.6754 0.75287 0.62896 0.0
H1654 H 0.2829 0.9715 0.67611 0.0
H1655 H 0.24657 0.99958 0.6386 0.0
H1656 H 0.21952 0.96418 0.61711 0.0
H1657 H 0.20817 0.92605 0.60482 0.0
H1658 H 0.2434 0.89738 0.64377 0.0
H1659 H 0.26859 0.93196 0.66946 0.0
C1660 C 0.26895 0.96978 0.66344 0.0
C1661 C 0.2669 0.98818 0.65857 0.0
C1662 C 0.2532 0.94924 0.65157 0.0
C1663 C 0.24855 0.98568 0.64258 0.0
C1664 C 0.23308 0.96544 0.63024 0.0
C1665 C 0.22103 0.92729 0.6196 0.0
C1666 C 0.22398 0.9093 0.62251 0.0
C1667 C 0.23548 0.94722 0.63408 0.0
C1668 C 0.24071 0.911 0.64156 0.0
C1669 C 0.25525 0.93083 0.65592 0.0
H1670 H 0.02643 0.28004 0.66193 0.0
H1671 H 0.04344 0.34434 0.63211 0.0
H1672 H 0.07894 0.35085 0.61435 0.0
H1673 H 0.10284 0.33651 0.60094 0.0
H1674 H 0.0843 0.27087 0.6259 0.0
H1675 H 0.05244 0.26706 0.65304 0.0
C1676 C 0.0381 0.29562 0.65209 0.0
C1677 C 0.03219 0.31158 0.64801 0.0
C1678 C 0.05831 0.29904 0.64104 0.0
C1679 C 0.04747 0.33168 0.63518 0.0
C1680 C 0.06781 0.33543 0.62502 0.0
C1681 C 0.092 0.32146 0.61266 0.0
C1682 C 0.09583 0.3039 0.61087 0.0
C1683 C 0.07306 0.31895 0.62684 0.0
C1684 C 0.0819 0.28473 0.62691 0.0
C1685 C 0.06343 0.28241 0.64211 0.0
H1686 H 0.27832 0.30724 0.68026 0.0
H1687 H 0.23206 0.23792 0.6758 0.0
H1688 H 0.20334 0.24474 0.65892 0.0
H1689 H 0.19353 0.26991 0.6364 0.0
H1690 H 0.23952 0.33918 0.63986 0.0
H1691 H 0.2659 0.33289 0.66709 0.0
C1692 C 0.26186 0.29365 0.67608 0.0
C1693 C 0.25754 0.2721 0.67855 0.0
C1694 C 0.24534 0.29766 0.6662 0.0
C1695 C 0.23599 0.25468 0.67369 0.0
C1696 C 0.2195 0.25855 0.66401 0.0
C1697 C 0.20889 0.28372 0.64432 0.0
C1698 C 0.21471 0.30495 0.63562 0.0
C1699 C 0.22423 0.27992 0.65899 0.0
C1700 C 0.23478 0.32265 0.64598 0.0
C1701 C 0.24997 0.31904 0.66122 0.0
H1702 H 0.7307 0.98637 0.67792 0.0
H1703 H 0.66641 0.96734 0.6426 0.0
H1704 H 0.66234 0.9332 0.62337 0.0
H1705 H 0.67909 0.91141 0.61028 0.0
H1706 H 0.74467 0.93191 0.64133 0.0
H1707 H 0.74583 0.96222 0.66961 0.0
C1708 C 0.71564 0.97456 0.66651 0.0
C1709 C 0.69902 0.97954 0.66131 0.0
C1710 C 0.71364 0.95517 0.65476 0.0
C1711 C 0.67957 0.96404 0.64657 0.0
C1712 C 0.67722 0.9445 0.63557 0.0
C1713 C 0.69349 0.9223 0.62369 0.0
C1714 C 0.71188 0.9196 0.62329 0.0
C1715 C 0.69446 0.94028 0.63858 0.0
C1716 C 0.73025 0.93355 0.64128 0.0
C1717 C 0.73104 0.95109 0.65712 0.0
H1718 H 0.03608 0.7343 0.68073 0.0
H1719 H 0.01088 0.77223 0.64043 0.0
H1720 H 0.04688 0.79695 0.61856 0.0
H1721 H 0.0845 0.80549 0.60663 0.0
H1722 H 0.11032 0.76873 0.64861 0.0
H1723 H 0.07537 0.74618 0.67476 0.0
C1724 C 0.03858 0.74811 0.66739 0.0
C1725 C 0.0208 0.75126 0.66178 0.0
C1726 C 0.05947 0.76253 0.65539 0.0
C1727 C 0.02431 0.76942 0.64494 0.0
C1728 C 0.04487 0.78355 0.6324 0.0
C1729 C 0.08261 0.79296 0.62226 0.0
C1730 C 0.09987 0.78876 0.62587 0.0
C1731 C 0.06245 0.78 0.63697 0.0
C1732 C 0.0973 0.7724 0.64589 0.0
C1733 C 0.07724 0.75934 0.66049 0.0
H1734 H 0.95256 0.60613 0.67707 0.0
H1735 H 0.01393 0.65966 0.71074 0.0
H1736 H 0.02621 0.6344 0.72402 0.0
H1737 H 0.0178 0.59692 0.73197 0.0
H1738 H 0.95583 0.54294 0.70196 0.0
H1739 H 0.94558 0.56839 0.68075 0.0
C1740 C 0.96875 0.61226 0.68685 0.0
C1741 C 0.98221 0.63474 0.69321 0.0
C1742 C 0.97558 0.59752 0.69507 0.0
C1743 C 0.00314 0.64244 0.70592 0.0
C1744 C 0.01021 0.628 0.7135 0.0
C1745 C 0.00236 0.59082 0.71988 0.0
C1746 C 0.98768 0.56824 0.718 0.0
C1747 C 0.99635 0.60551 0.70896 0.0
C1748 C 0.96748 0.56031 0.70306 0.0
C1749 C 0.96157 0.57487 0.69131 0.0
H1750 H 0.40615 0.35322 0.66372 0.0
H1751 H 0.35869 0.36421 0.7099 0.0
H1752 H 0.38771 0.40068 0.72512 0.0
H1753 H 0.42689 0.42645 0.73297 0.0
H1754 H 0.47478 0.41405 0.69156 0.0
H1755 H 0.44542 0.38177 0.66566 0.0
C1756 C 0.40211 0.3638 0.67652 0.0
C1757 C 0.38033 0.35587 0.68609 0.0
C1758 C 0.41903 0.38456 0.68605 0.0
C1759 C 0.37535 0.36979 0.70261 0.0
C1760 C 0.39194 0.39067 0.71132 0.0
C1761 C 0.4309 0.41701 0.71754 0.0
C1762 C 0.45292 0.4224 0.71454 0.0
C1763 C 0.41391 0.39782 0.70428 0.0
C1764 C 0.45797 0.41027 0.69422 0.0
C1765 C 0.44114 0.39159 0.6798 0.0
H1766 H 0.6433 0.07291 0.70463 0.0
H1767 H 0.63831 0.00982 0.70547 0.0
H1768 H 0.60135 0.99344 0.72615 0.0
H1769 H 0.57205 0.99768 0.74902 0.0
H1770 H 0.57756 0.06075 0.75116 0.0
H1771 H 0.61253 0.07652 0.72368 0.0
C1772 C 0.63406 0.05554 0.70904 0.0
C1773 C 0.64373 0.0427 0.70384 0.0
C1774 C 0.61285 0.04623 0.72131 0.0
C1775 C 0.63142 0.02017 0.70953 0.0
C1776 C 0.61024 0.01075 0.72132 0.0
C1777 C 0.58067 0.01472 0.74255 0.0
C1778 C 0.57232 0.02807 0.75144 0.0
C1779 C 0.601 0.02369 0.7279 0.0
C1780 C 0.58366 0.05022 0.74387 0.0
C1781 C 0.6037 0.05922 0.72854 0.0
loop_
_geom_bond_atom_site_label_1
_geom_bond_atom_site_label_2
_geom_bond_distance
_geom_bond_site_symmetry_2
_ccdc_geom_bond_type
C0 O1 1.306 1_556 S
C0 O3 1.160 . S
O1 C0 1.306 1_554 S
O1 Cd2 2.228 . S
Cd2 O1 2.228 . S
Cd2 O6 2.273 . S
Cd2 O10 2.277 1_554 S
O3 C0 1.160 . S
O3 Cd4 2.203 1_656 S
Cd4 O3 2.203 1_454 S
Cd4 O6 2.411 1_455 S
Cd4 O7 2.333 . S
Cd4 O8 2.352 . S
Cd4 O12 2.277 1_554 S
Cd4 O13 2.356 . S
C5 O10 1.209 1_455 S
C5 O12 1.226 . S
O6 Cd2 2.273 . S
O6 Cd4 2.411 1_655 S
O6 C9 1.298 1_655 S
O7 Cd4 2.333 . S
O7 C9 1.266 . S
O8 Cd4 2.352 . S
O8 C11 1.258 . S
C9 O6 1.298 1_455 S
C9 O7 1.266 . S
O10 Cd2 2.277 1_556 S
O10 C5 1.209 1_655 S
C11 O8 1.258 . S
C11 O13 1.282 . S
O12 Cd4 2.277 1_556 S
O12 C5 1.226 . S
O13 Cd4 2.356 . S
O13 C11 1.282 . S
C14 O15 1.306 . S
C14 O17 1.160 . S
O15 C14 1.306 . S
O15 Cd16 2.228 . S
Cd16 O15 2.228 . S
Cd16 O20 2.273 1_554 S
Cd16 O24 2.277 . S
O17 C14 1.160 . S
O17 Cd18 2.203 . S
Cd18 O17 2.203 . S
Cd18 O20 2.411 1_554 S
Cd18 O21 2.333 1_554 S
Cd18 O22 2.352 1_554 S
Cd18 O26 2.277 . S
Cd18 O27 2.356 . S
C19 O24 1.209 . S
C19 O26 1.226 . S
O20 Cd16 2.273 1_556 S
O20 Cd18 2.411 1_556 S
O20 C23 1.320 . S
O21 Cd18 2.333 1_556 S
O21 C23 1.214 . S
O22 Cd18 2.352 1_556 S
O22 C25 1.258 . S
C23 O20 1.320 . S
C23 O21 1.214 . S
O24 Cd16 2.277 . S
O24 C19 1.209 . S
C25 O22 1.258 . S
C25 O27 1.282 1_556 S
O26 Cd18 2.277 . S
O26 C19 1.226 . S
O27 Cd18 2.356 . S
O27 C25 1.282 1_554 S
C28 O29 1.306 . S
C28 O31 1.160 . S
O29 C28 1.306 . S
O29 Cd30 2.228 . S
Cd30 O29 2.228 . S
Cd30 O34 2.273 1_554 S
Cd30 O38 2.277 . S
O31 C28 1.160 . S
O31 Cd32 2.203 1_565 S
Cd32 O31 2.203 1_545 S
Cd32 O34 2.411 1_544 S
Cd32 O35 2.333 1_554 S
Cd32 O36 2.352 1_554 S
Cd32 O40 2.277 . S
Cd32 O41 2.356 . S
C33 O38 1.209 1_545 S
C33 O40 1.226 . S
O34 Cd30 2.273 1_556 S
O34 Cd32 2.411 1_566 S
O34 C37 1.320 1_565 S
O35 Cd32 2.333 1_556 S
O35 C37 1.214 . S
O36 Cd32 2.352 1_556 S
O36 C39 1.258 . S
C37 O34 1.320 1_545 S
C37 O35 1.214 . S
O38 Cd30 2.277 . S
O38 C33 1.209 1_565 S
C39 O36 1.258 . S
C39 O41 1.282 1_556 S
O40 Cd32 2.277 . S
O40 C33 1.226 . S
O41 Cd32 2.356 . S
O41 C39 1.282 1_554 S
C42 O43 1.291 1_556 S
C42 O45 1.160 . S
O43 C42 1.291 1_554 S
O43 Cd44 2.236 . S
Cd44 O43 2.236 . S
Cd44 O48 2.273 . S
Cd44 O52 2.277 1_554 S
O45 C42 1.160 . S
O45 Cd46 2.203 1_656 S
Cd46 O45 2.203 1_454 S
Cd46 O48 2.411 1_455 S
Cd46 O49 2.333 . S
Cd46 O50 2.352 . S
Cd46 O54 2.277 1_554 S
Cd46 O55 2.356 . S
C47 O52 1.209 1_455 S
C47 O54 1.226 . S
O48 Cd44 2.273 . S
O48 Cd46 2.411 1_655 S
O48 C51 1.267 1_655 S
O49 Cd46 2.333 . S
O49 C51 1.256 . S
O50 Cd46 2.352 . S
O50 C53 1.258 . S
C51 O48 1.267 1_455 S
C51 O49 1.256 . S
O52 Cd44 2.277 1_556 S
O52 C47 1.209 1_655 S
C53 O50 1.258 . S
C53 O55 1.282 . S
O54 Cd46 2.277 1_556 S
O54 C47 1.226 . S
O55 Cd46 2.356 . S
O55 C53 1.282 . S
C56 O57 1.306 . S
C56 O59 1.160 . S
O57 C56 1.306 . S
O57 Cd58 2.228 . S
Cd58 O57 2.228 . S
Cd58 O62 2.273 1_554 S
Cd58 O66 2.277 . S
O59 C56 1.160 . S
O59 Cd60 2.203 . S
Cd60 O59 2.203 . S
Cd60 O62 2.411 1_554 S
Cd60 O63 2.333 1_554 S
Cd60 O64 2.352 1_554 S
Cd60 O68 2.277 . S
Cd60 O69 2.356 . S
C61 O66 1.209 . S
C61 O68 1.226 . S
O62 Cd58 2.273 1_556 S
O62 Cd60 2.411 1_556 S
O62 C65 1.320 . S
O63 Cd60 2.333 1_556 S
O63 C65 1.214 . S
O64 Cd60 2.352 1_556 S
O64 C67 1.258 . S
C65 O62 1.320 . S
C65 O63 1.214 . S
O66 Cd58 2.277 . S
O66 C61 1.209 . S
C67 O64 1.258 . S
C67 O69 1.282 1_556 S
O68 Cd60 2.277 . S
O68 C61 1.226 . S
O69 Cd60 2.356 . S
O69 C67 1.282 1_554 S
C70 O71 1.306 1_556 S
C70 O73 1.160 . S
O71 C70 1.306 1_554 S
O71 Cd72 2.228 . S
Cd72 O71 2.228 . S
Cd72 O76 2.273 . S
Cd72 O80 2.277 1_554 S
O73 C70 1.160 . S
O73 Cd74 2.203 1_546 S
Cd74 O73 2.203 1_564 S
Cd74 O76 2.411 1_565 S
Cd74 O77 2.333 . S
Cd74 O78 2.352 . S
Cd74 O82 2.277 1_554 S
Cd74 O83 2.356 . S
C75 O80 1.179 1_565 S
C75 O82 1.268 . S
O76 Cd72 2.273 . S
O76 Cd74 2.411 1_545 S
O76 C79 1.340 . S
O77 Cd74 2.333 . S
O77 C79 1.172 1_565 S
O78 Cd74 2.352 . S
O78 C81 1.258 . S
C79 O76 1.340 . S
C79 O77 1.172 1_545 S
O80 Cd72 2.277 1_556 S
O80 C75 1.179 1_545 S
C81 O78 1.258 . S
C81 O83 1.282 . S
O82 Cd74 2.277 1_556 S
O82 C75 1.268 . S
O83 Cd74 2.356 . S
O83 C81 1.282 . S
C84 O85 1.306 . S
C84 O87 1.160 . S
O85 C84 1.306 . S
O85 Cd86 2.228 . S
Cd86 O85 2.228 . S
Cd86 O90 2.273 . S
Cd86 O94 2.277 . S
O87 C84 1.160 . S
O87 Cd88 2.203 . S
Cd88 O87 2.203 . S
Cd88 O90 2.411 . S
Cd88 O91 2.333 . S
Cd88 O92 2.352 . S
Cd88 O96 2.277 . S
Cd88 O97 2.356 . S
C89 O94 1.209 . S
C89 O96 1.226 . S
O90 Cd86 2.273 . S
O90 Cd88 2.411 . S
O90 C93 1.320 . S
O91 Cd88 2.333 . S
O91 C93 1.214 . S
O92 Cd88 2.352 . S
O92 C95 1.258 . S
C93 O90 1.320 . S
C93 O91 1.214 . S
O94 Cd86 2.277 . S
O94 C89 1.209 . S
C95 O92 1.258 . S
C95 O97 1.282 . S
O96 Cd88 2.277 . S
O96 C89 1.226 . S
O97 Cd88 2.356 . S
O97 C95 1.282 . S
C98 O99 1.306 . S
C98 O101 1.160 . S
O99 C98 1.306 . S
O99 Cd100 2.228 1_545 S
Cd100 O99 2.228 1_565 S
Cd100 O104 2.273 . S
Cd100 O108 2.277 . S
O101 C98 1.160 . S
O101 Cd102 2.203 1_545 S
Cd102 O101 2.203 1_565 S
Cd102 O104 2.411 . S
Cd102 O105 2.333 . S
Cd102 O106 2.352 1_565 S
Cd102 O110 2.277 . S
Cd102 O111 2.356 . S
C103 O108 1.209 . S
C103 O110 1.226 . S
O104 Cd100 2.273 . S
O104 Cd102 2.411 . S
O104 C107 1.320 . S
O105 Cd102 2.333 . S
O105 C107 1.214 . S
O106 Cd102 2.352 1_545 S
O106 C109 1.258 1_545 S
C107 O104 1.320 . S
C107 O105 1.214 . S
O108 Cd100 2.277 . S
O108 C103 1.209 . S
C109 O106 1.258 1_565 S
C109 O111 1.282 . S
O110 Cd102 2.277 . S
O110 C103 1.226 . S
O111 Cd102 2.356 . S
O111 C109 1.282 . S
C112 O113 1.306 . S
C112 O115 1.160 . S
O113 C112 1.306 . S
O113 Cd114 2.228 1_655 S
Cd114 O113 2.228 1_455 S
Cd114 O118 2.273 . S
Cd114 O122 2.277 . S
O115 C112 1.160 . S
O115 Cd116 2.203 1_655 S
Cd116 O115 2.203 1_455 S
Cd116 O118 2.411 . S
Cd116 O119 2.333 . S
Cd116 O120 2.352 . S
Cd116 O124 2.277 . S
Cd116 O125 2.356 . S
C117 O122 1.209 . S
C117 O124 1.226 . S
O118 Cd114 2.273 . S
O118 Cd116 2.411 . S
O118 C121 1.320 . S
O119 Cd116 2.333 . S
O119 C121 1.214 . S
O120 Cd116 2.352 . S
O120 C123 1.258 . S
C121 O118 1.320 . S
C121 O119 1.214 . S
O122 Cd114 2.277 . S
O122 C117 1.209 . S
C123 O120 1.258 . S
C123 O125 1.282 . S
O124 Cd116 2.277 . S
O124 C117 1.226 . S
O125 Cd116 2.356 . S
O125 C123 1.282 . S
C126 O127 1.306 . S
C126 O129 1.160 . S
O127 C126 1.306 . S
O127 Cd128 2.228 . S
Cd128 O127 2.228 . S
Cd128 O132 2.273 . S
Cd128 O136 2.277 . S
O129 C126 1.160 . S
O129 Cd130 2.203 . S
Cd130 O129 2.203 . S
Cd130 O132 2.411 . S
Cd130 O133 2.333 . S
Cd130 O134 2.352 1_565 S
Cd130 O138 2.277 . S
Cd130 O139 2.356 1_565 S
C131 O136 1.209 . S
C131 O138 1.226 . S
O132 Cd128 2.273 . S
O132 Cd130 2.411 . S
O132 C135 1.320 . S
O133 Cd130 2.333 . S
O133 C135 1.214 . S
O134 Cd130 2.352 1_545 S
O134 C137 1.258 . S
C135 O132 1.320 . S
C135 O133 1.214 . S
O136 Cd128 2.277 . S
O136 C131 1.209 . S
C137 O134 1.258 . S
C137 O139 1.282 . S
O138 Cd130 2.277 . S
O138 C131 1.226 . S
O139 Cd130 2.356 1_545 S
O139 C137 1.282 . S
C140 O141 1.306 . S
C140 O143 1.160 . S
O141 C140 1.306 . S
O141 Cd142 2.228 1_655 S
Cd142 O141 2.228 1_455 S
Cd142 O146 2.273 . S
Cd142 O150 2.277 . S
O143 C140 1.160 . S
O143 Cd144 2.203 1_655 S
Cd144 O143 2.203 1_455 S
Cd144 O146 2.411 . S
Cd144 O147 2.333 . S
Cd144 O148 2.352 . S
Cd144 O152 2.277 . S
Cd144 O153 2.356 . S
C145 O150 1.209 . S
C145 O152 1.226 . S
O146 Cd142 2.273 . S
O146 Cd144 2.411 . S
O146 C149 1.320 . S
O147 Cd144 2.333 . S
O147 C149 1.214 . S
O148 Cd144 2.352 . S
O148 C151 1.258 . S
C149 O146 1.320 . S
C149 O147 1.214 . S
O150 Cd142 2.277 . S
O150 C145 1.209 . S
C151 O148 1.258 . S
C151 O153 1.282 . S
O152 Cd144 2.277 . S
O152 C145 1.226 . S
O153 Cd144 2.356 . S
O153 C151 1.282 . S
C154 O155 1.306 . S
C154 O157 1.160 . S
O155 C154 1.306 . S
O155 Cd156 2.228 . S
Cd156 O155 2.228 . S
Cd156 O160 2.273 . S
Cd156 O164 2.277 . S
O157 C154 1.160 . S
O157 Cd158 2.203 . S
Cd158 O157 2.203 . S
Cd158 O160 2.411 . S
Cd158 O161 2.333 . S
Cd158 O162 2.352 . S
Cd158 O166 2.277 . S
Cd158 O167 2.356 . S
C159 O164 1.209 . S
C159 O166 1.226 . S
O160 Cd156 2.273 . S
O160 Cd158 2.411 . S
O160 C163 1.320 . S
O161 Cd158 2.333 . S
O161 C163 1.214 . S
O162 Cd158 2.352 . S
O162 C165 1.258 . S
C163 O160 1.320 . S
C163 O161 1.214 . S
O164 Cd156 2.277 . S
O164 C159 1.209 . S
C165 O162 1.258 . S
C165 O167 1.282 . S
O166 Cd158 2.277 . S
O166 C159 1.226 . S
O167 Cd158 2.356 . S
O167 C165 1.282 . S
C168 O169 1.306 . S
C168 O171 1.160 . S
O169 C168 1.306 . S
O169 Cd170 2.228 1_565 S
Cd170 O169 2.228 1_545 S
Cd170 O174 2.273 . S
Cd170 O178 2.277 . S
O171 C168 1.160 . S
O171 Cd172 2.203 1_565 S
Cd172 O171 2.203 1_545 S
Cd172 O174 2.411 . S
Cd172 O175 2.333 . S
Cd172 O176 2.352 . S
Cd172 O180 2.277 . S
Cd172 O181 2.356 . S
C173 O178 1.209 . S
C173 O180 1.226 . S
O174 Cd170 2.273 . S
O174 Cd172 2.411 . S
O174 C177 1.320 . S
O175 Cd172 2.333 . S
O175 C177 1.214 . S
O176 Cd172 2.352 . S
O176 C179 1.258 . S
C177 O174 1.320 . S
C177 O175 1.214 . S
O178 Cd170 2.277 . S
O178 C173 1.209 . S
C179 O176 1.258 . S
C179 O181 1.282 . S
O180 Cd172 2.277 . S
O180 C173 1.226 . S
O181 Cd172 2.356 . S
O181 C179 1.282 . S
C182 O183 1.306 . S
C182 O185 1.152 1_655 S
O183 C182 1.306 . S
O183 Cd184 2.228 . S
Cd184 O183 2.228 . S
Cd184 O188 2.273 . S
Cd184 O192 2.277 . S
O185 C182 1.152 1_455 S
O185 Cd186 2.205 1_455 S
Cd186 O185 2.205 1_655 S
Cd186 O188 2.411 . S
Cd186 O189 2.333 . S
Cd186 O190 2.352 1_655 S
Cd186 O194 2.277 . S
Cd186 O195 2.356 1_655 S
C187 O192 1.209 . S
C187 O194 1.226 . S
O188 Cd184 2.273 . S
O188 Cd186 2.411 . S
O188 C191 1.320 . S
O189 Cd186 2.333 . S
O189 C191 1.214 . S
O190 Cd186 2.352 1_455 S
O190 C193 1.258 . S
C191 O188 1.320 . S
C191 O189 1.214 . S
O192 Cd184 2.277 . S
O192 C187 1.209 . S
C193 O190 1.258 . S
C193 O195 1.282 . S
O194 Cd186 2.277 . S
O194 C187 1.226 . S
O195 Cd186 2.356 1_455 S
O195 C193 1.282 . S
C196 O197 1.306 . S
C196 O199 1.160 . S
O197 C196 1.306 . S
O197 Cd198 2.228 . S
Cd198 O197 2.228 . S
Cd198 O202 2.273 . S
Cd198 O206 2.277 . S
O199 C196 1.160 . S
O199 Cd200 2.203 . S
Cd200 O199 2.203 . S
Cd200 O202 2.411 . S
Cd200 O203 2.333 . S
Cd200 O204 2.352 . S
Cd200 O208 2.277 . S
Cd200 O209 2.356 . S
C201 O206 1.209 . S
C201 O208 1.226 . S
O202 Cd198 2.273 . S
O202 Cd200 2.411 . S
O202 C205 1.320 . S
O203 Cd200 2.333 . S
O203 C205 1.214 . S
O204 Cd200 2.352 . S
O204 C207 1.258 . S
C205 O202 1.320 . S
C205 O203 1.214 . S
O206 Cd198 2.277 . S
O206 C201 1.209 . S
C207 O204 1.258 . S
C207 O209 1.282 . S
O208 Cd200 2.277 . S
O208 C201 1.226 . S
O209 Cd200 2.356 . S
O209 C207 1.282 . S
C210 O211 1.306 . S
C210 O213 1.160 . S
O211 C210 1.306 . S
O211 Cd212 2.228 . S
Cd212 O211 2.228 . S
Cd212 O216 2.273 . S
Cd212 O220 2.277 . S
O213 C210 1.160 . S
O213 Cd214 2.203 . S
Cd214 O213 2.203 . S
Cd214 O216 2.411 . S
Cd214 O217 2.333 . S
Cd214 O218 2.352 . S
Cd214 O222 2.277 . S
Cd214 O223 2.356 . S
C215 O220 1.209 . S
C215 O222 1.226 . S
O216 Cd212 2.273 . S
O216 Cd214 2.411 . S
O216 C219 1.320 . S
O217 Cd214 2.333 . S
O217 C219 1.214 . S
O218 Cd214 2.352 . S
O218 C221 1.258 . S
C219 O216 1.320 . S
C219 O217 1.214 . S
O220 Cd212 2.277 . S
O220 C215 1.209 . S
C221 O218 1.258 . S
C221 O223 1.282 . S
O222 Cd214 2.277 . S
O222 C215 1.226 . S
O223 Cd214 2.356 . S
O223 C221 1.282 . S
C224 O225 1.306 . S
C224 O227 1.160 . S
O225 C224 1.306 . S
O225 Cd226 2.228 . S
Cd226 O225 2.228 . S
Cd226 O230 2.273 . S
Cd226 O234 2.277 . S
O227 C224 1.160 . S
O227 Cd228 2.203 . S
Cd228 O227 2.203 . S
Cd228 O230 2.411 . S
Cd228 O231 2.333 . S
Cd228 O232 2.352 1_545 S
Cd228 O236 2.277 . S
Cd228 O237 2.356 1_545 S
C229 O234 1.209 . S
C229 O236 1.226 . S
O230 Cd226 2.273 . S
O230 Cd228 2.411 . S
O230 C233 1.320 . S
O231 Cd228 2.333 . S
O231 C233 1.214 . S
O232 Cd228 2.352 1_565 S
O232 C235 1.258 . S
C233 O230 1.320 . S
C233 O231 1.214 . S
O234 Cd226 2.277 . S
O234 C229 1.209 . S
C235 O232 1.258 . S
C235 O237 1.282 . S
O236 Cd228 2.277 . S
O236 C229 1.226 . S
O237 Cd228 2.356 1_565 S
O237 C235 1.282 . S
C238 O239 1.306 . S
C238 O241 1.160 . S
O239 C238 1.306 . S
O239 Cd240 2.228 1_455 S
Cd240 O239 2.228 1_655 S
Cd240 O244 2.273 . S
Cd240 O248 2.277 . S
O241 C238 1.160 . S
O241 Cd242 2.203 1_455 S
Cd242 O241 2.203 1_655 S
Cd242 O244 2.411 . S
Cd242 O245 2.333 . S
Cd242 O246 2.352 1_655 S
Cd242 O250 2.277 . S
Cd242 O251 2.356 . S
C243 O248 1.209 . S
C243 O250 1.226 . S
O244 Cd240 2.273 . S
O244 Cd242 2.411 . S
O244 C247 1.320 . S
O245 Cd242 2.333 . S
O245 C247 1.214 . S
O246 Cd242 2.352 1_455 S
O246 C249 1.258 1_455 S
C247 O244 1.320 . S
C247 O245 1.214 . S
O248 Cd240 2.277 . S
O248 C243 1.209 . S
C249 O246 1.258 1_655 S
C249 O251 1.282 . S
O250 Cd242 2.277 . S
O250 C243 1.226 . S
O251 Cd242 2.356 . S
O251 C249 1.282 . S
H252 C260 0.930 . S
H253 C263 0.930 . S
H254 C265 0.930 . S
H255 C266 0.970 . S
H256 C266 0.970 . S
H257 C268 0.930 . S
H258 C270 0.930 . S
H259 C272 0.930 . S
C260 H252 0.930 . S
C260 C261 1.382 . S
C260 C262 1.426 . S
C261 C260 1.382 . S
C261 C265 1.389 . S
C262 C260 1.426 . S
C262 C263 1.375 . S
C262 C266 1.532 . S
C263 H253 0.930 . S
C263 C262 1.375 . S
C263 C264 1.416 . S
C264 C263 1.416 . S
C264 C265 1.371 . S
C265 H254 0.930 . S
C265 C261 1.389 . S
C265 C264 1.371 . S
C266 H255 0.970 . S
C266 H256 0.970 . S
C266 C262 1.532 . S
C266 C267 1.499 . S
C267 C266 1.499 . S
C267 C268 1.370 . S
C267 C272 1.415 . S
C268 H257 0.930 . S
C268 C267 1.370 . S
C268 C269 1.407 . S
C269 C268 1.407 . S
C269 C270 1.365 . S
C270 H258 0.930 . S
C270 C269 1.365 . S
C270 C271 1.393 . S
C271 C270 1.393 . S
C271 C272 1.387 . S
C272 H259 0.930 . S
C272 C267 1.415 . S
C272 C271 1.387 . S
H273 C281 0.930 . S
H274 C284 0.930 . S
H275 C286 0.930 . S
H276 C287 0.970 . S
H277 C287 0.970 . S
H278 C289 0.930 . S
H279 C291 0.930 . S
H280 C293 0.930 . S
C281 H273 0.930 . S
C281 C282 1.382 . S
C281 C283 1.426 . S
C282 C281 1.382 . S
C282 C286 1.389 . S
C283 C281 1.426 . S
C283 C284 1.375 . S
C283 C287 1.532 . S
C284 H274 0.930 . S
C284 C283 1.375 . S
C284 C285 1.416 . S
C285 C284 1.416 . S
C285 C286 1.371 . S
C286 H275 0.930 . S
C286 C282 1.389 . S
C286 C285 1.371 . S
C287 H276 0.970 . S
C287 H277 0.970 . S
C287 C283 1.532 . S
C287 C288 1.499 . S
C288 C287 1.499 . S
C288 C289 1.370 . S
C288 C293 1.415 . S
C289 H278 0.930 . S
C289 C288 1.370 . S
C289 C290 1.407 . S
C290 C289 1.407 . S
C290 C291 1.365 . S
C291 H279 0.930 . S
C291 C290 1.365 . S
C291 C292 1.393 . S
C292 C291 1.393 . S
C292 C293 1.387 . S
C293 H280 0.930 . S
C293 C288 1.415 . S
C293 C292 1.387 . S
H294 C302 0.930 . S
H295 C305 0.930 . S
H296 C307 0.930 . S
H297 C308 0.970 . S
H298 C308 0.970 . S
H299 C310 0.930 . S
H300 C312 0.930 . S
H301 C314 0.930 . S
C302 H294 0.930 . S
C302 C303 1.382 . S
C302 C304 1.426 . S
C303 C302 1.382 . S
C303 C307 1.389 . S
C304 C302 1.426 . S
C304 C305 1.375 . S
C304 C308 1.532 . S
C305 H295 0.930 . S
C305 C304 1.375 . S
C305 C306 1.416 . S
C306 C305 1.416 . S
C306 C307 1.371 . S
C307 H296 0.930 . S
C307 C303 1.389 . S
C307 C306 1.371 . S
C308 H297 0.970 . S
C308 H298 0.970 . S
C308 C304 1.532 . S
C308 C309 1.499 . S
C309 C308 1.499 . S
C309 C310 1.370 . S
C309 C314 1.415 . S
C310 H299 0.930 . S
C310 C309 1.370 . S
C310 C311 1.407 . S
C311 C310 1.407 . S
C311 C312 1.365 . S
C312 H300 0.930 . S
C312 C311 1.365 . S
C312 C313 1.393 . S
C313 C312 1.393 . S
C313 C314 1.387 . S
C314 H301 0.930 . S
C314 C309 1.415 . S
C314 C313 1.387 . S
H315 C323 0.930 . S
H316 C326 0.930 . S
H317 C328 0.930 . S
H318 C329 0.970 . S
H319 C329 0.970 . S
H320 C331 0.930 . S
H321 C333 0.930 . S
H322 C335 0.930 . S
C323 H315 0.930 . S
C323 C324 1.382 . S
C323 C325 1.426 . S
C324 C323 1.382 . S
C324 C328 1.389 . S
C325 C323 1.426 . S
C325 C326 1.375 . S
C325 C329 1.532 . S
C326 H316 0.930 . S
C326 C325 1.375 . S
C326 C327 1.416 . S
C327 C326 1.416 . S
C327 C328 1.371 . S
C328 H317 0.930 . S
C328 C324 1.389 . S
C328 C327 1.371 . S
C329 H318 0.970 . S
C329 H319 0.970 . S
C329 C325 1.532 . S
C329 C330 1.499 . S
C330 C329 1.499 . S
C330 C331 1.370 . S
C330 C335 1.415 . S
C331 H320 0.930 . S
C331 C330 1.370 . S
C331 C332 1.407 . S
C332 C331 1.407 . S
C332 C333 1.365 . S
C333 H321 0.930 . S
C333 C332 1.365 . S
C333 C334 1.393 . S
C334 C333 1.393 . S
C334 C335 1.387 . S
C335 H322 0.930 . S
C335 C330 1.415 . S
C335 C334 1.387 . S
H336 C344 0.930 . S
H337 C347 0.930 . S
H338 C349 0.930 . S
H339 C350 0.970 . S
H340 C350 0.970 . S
H341 C352 0.930 . S
H342 C354 0.930 . S
H343 C356 0.930 . S
C344 H336 0.930 . S
C344 C345 1.382 . S
C344 C346 1.426 . S
C345 C344 1.382 . S
C345 C349 1.389 . S
C346 C344 1.426 . S
C346 C347 1.375 . S
C346 C350 1.532 . S
C347 H337 0.930 . S
C347 C346 1.375 . S
C347 C348 1.416 . S
C348 C347 1.416 . S
C348 C349 1.371 . S
C349 H338 0.930 . S
C349 C345 1.389 . S
C349 C348 1.371 . S
C350 H339 0.970 . S
C350 H340 0.970 . S
C350 C346 1.532 . S
C350 C351 1.499 . S
C351 C350 1.499 . S
C351 C352 1.370 . S
C351 C356 1.415 . S
C352 H341 0.930 . S
C352 C351 1.370 . S
C352 C353 1.407 . S
C353 C352 1.407 . S
C353 C354 1.365 . S
C354 H342 0.930 . S
C354 C353 1.365 . S
C354 C355 1.393 . S
C355 C354 1.393 . S
C355 C356 1.387 . S
C356 H343 0.930 . S
C356 C351 1.415 . S
C356 C355 1.387 . S
H357 C365 0.930 . S
H358 C368 0.930 . S
H359 C370 0.930 . S
H360 C371 0.970 . S
H361 C371 0.970 . S
H362 C373 0.930 . S
H363 C375 0.930 . S
H364 C377 0.930 . S
C365 H357 0.930 . S
C365 C366 1.382 . S
C365 C367 1.426 . S
C366 C365 1.382 . S
C366 C370 1.389 . S
C367 C365 1.426 . S
C367 C368 1.375 . S
C367 C371 1.532 . S
C368 H358 0.930 . S
C368 C367 1.375 . S
C368 C369 1.416 . S
C369 C368 1.416 . S
C369 C370 1.371 . S
C370 H359 0.930 . S
C370 C366 1.389 . S
C370 C369 1.371 . S
C371 H360 0.970 . S
C371 H361 0.970 . S
C371 C367 1.532 . S
C371 C372 1.499 . S
C372 C371 1.499 . S
C372 C373 1.370 . S
C372 C377 1.415 . S
C373 H362 0.930 . S
C373 C372 1.370 . S
C373 C374 1.407 . S
C374 C373 1.407 . S
C374 C375 1.365 . S
C375 H363 0.930 . S
C375 C374 1.365 . S
C375 C376 1.393 . S
C376 C375 1.393 . S
C376 C377 1.387 . S
C377 H364 0.930 . S
C377 C372 1.415 . S
C377 C376 1.387 . S
H378 C386 0.930 . S
H379 C389 0.930 . S
H380 C391 0.930 . S
H381 C392 0.970 . S
H382 C392 0.970 . S
H383 C394 0.930 . S
H384 C396 0.930 . S
H385 C398 0.930 . S
C386 H378 0.930 . S
C386 C387 1.382 . S
C386 C388 1.426 . S
C387 C386 1.382 . S
C387 C391 1.389 . S
C388 C386 1.426 . S
C388 C389 1.375 . S
C388 C392 1.532 . S
C389 H379 0.930 . S
C389 C388 1.375 . S
C389 C390 1.416 . S
C390 C389 1.416 . S
C390 C391 1.371 . S
C391 H380 0.930 . S
C391 C387 1.389 . S
C391 C390 1.371 . S
C392 H381 0.970 . S
C392 H382 0.970 . S
C392 C388 1.532 . S
C392 C393 1.499 . S
C393 C392 1.499 . S
C393 C394 1.370 . S
C393 C398 1.415 . S
C394 H383 0.930 . S
C394 C393 1.370 . S
C394 C395 1.407 . S
C395 C394 1.407 . S
C395 C396 1.365 . S
C396 H384 0.930 . S
C396 C395 1.365 . S
C396 C397 1.393 . S
C397 C396 1.393 . S
C397 C398 1.387 . S
C398 H385 0.930 . S
C398 C393 1.415 . S
C398 C397 1.387 . S
H399 C407 0.930 . S
H400 C410 0.930 . S
H401 C412 0.930 . S
H402 C413 0.970 . S
H403 C413 0.970 . S
H404 C415 0.930 . S
H405 C417 0.930 . S
H406 C419 0.930 . S
C407 H399 0.930 . S
C407 C408 1.382 . S
C407 C409 1.426 . S
C408 C407 1.382 . S
C408 C412 1.389 . S
C409 C407 1.426 . S
C409 C410 1.375 . S
C409 C413 1.532 . S
C410 H400 0.930 . S
C410 C409 1.375 . S
C410 C411 1.416 . S
C411 C410 1.416 . S
C411 C412 1.371 . S
C412 H401 0.930 . S
C412 C408 1.389 . S
C412 C411 1.371 . S
C413 H402 0.970 . S
C413 H403 0.970 . S
C413 C409 1.532 . S
C413 C414 1.499 . S
C414 C413 1.499 . S
C414 C415 1.370 . S
C414 C419 1.415 . S
C415 H404 0.930 . S
C415 C414 1.370 . S
C415 C416 1.407 . S
C416 C415 1.407 . S
C416 C417 1.365 . S
C417 H405 0.930 . S
C417 C416 1.365 . S
C417 C418 1.393 . S
C418 C417 1.393 . S
C418 C419 1.387 . S
C419 H406 0.930 . S
C419 C414 1.415 . S
C419 C418 1.387 . S
H420 C428 0.930 . S
H421 C431 0.930 . S
H422 C433 0.930 . S
H423 C434 0.970 . S
H424 C434 0.970 . S
H425 C436 0.930 . S
H426 C438 0.930 . S
H427 C440 0.930 . S
C428 H420 0.930 . S
C428 C429 1.382 . S
C428 C430 1.426 . S
C429 C428 1.382 . S
C429 C433 1.389 . S
C430 C428 1.426 . S
C430 C431 1.375 . S
C430 C434 1.532 . S
C431 H421 0.930 . S
C431 C430 1.375 . S
C431 C432 1.416 . S
C432 C431 1.416 . S
C432 C433 1.371 . S
C433 H422 0.930 . S
C433 C429 1.389 . S
C433 C432 1.371 . S
C434 H423 0.970 . S
C434 H424 0.970 . S
C434 C430 1.532 . S
C434 C435 1.499 . S
C435 C434 1.499 . S
C435 C436 1.370 . S
C435 C440 1.415 . S
C436 H425 0.930 . S
C436 C435 1.370 . S
C436 C437 1.407 . S
C437 C436 1.407 . S
C437 C438 1.365 . S
C438 H426 0.930 . S
C438 C437 1.365 . S
C438 C439 1.393 . S
C439 C438 1.393 . S
C439 C440 1.387 . S
C440 H427 0.930 . S
C440 C435 1.415 . S
C440 C439 1.387 . S
H441 C449 0.930 . S
H442 C452 0.930 . S
H443 C454 0.930 . S
H444 C455 0.970 . S
H445 C455 0.970 . S
H446 C457 0.930 . S
H447 C459 0.930 . S
H448 C461 0.930 . S
C449 H441 0.930 . S
C449 C450 1.382 . S
C449 C451 1.426 . S
C450 C449 1.382 . S
C450 C454 1.389 1_455 S
C451 C449 1.426 . S
C451 C452 1.375 . S
C451 C455 1.532 . S
C452 H442 0.930 . S
C452 C451 1.375 . S
C452 C453 1.416 . S
C453 C452 1.416 . S
C453 C454 1.371 1_455 S
C454 H443 0.930 . S
C454 C450 1.389 1_655 S
C454 C453 1.371 1_655 S
C455 H444 0.970 . S
C455 H445 0.970 . S
C455 C451 1.532 . S
C455 C456 1.499 . S
C456 C455 1.499 . S
C456 C457 1.370 . S
C456 C461 1.415 . S
C457 H446 0.930 . S
C457 C456 1.370 . S
C457 C458 1.410 . S
C458 C457 1.410 . S
C458 C459 1.370 1_455 S
C459 H447 0.930 . S
C459 C458 1.370 1_655 S
C459 C460 1.393 1_655 S
C460 C459 1.393 1_455 S
C460 C461 1.387 . S
C461 H448 0.930 . S
C461 C456 1.415 . S
C461 C460 1.387 . S
H462 C470 0.930 . S
H463 C473 0.930 . S
H464 C475 0.930 . S
H465 C476 0.970 . S
H466 C476 0.970 . S
H467 C478 0.930 . S
H468 C480 0.930 . S
H469 C482 0.930 . S
C470 H462 0.930 . S
C470 C471 1.382 . S
C470 C472 1.426 . S
C471 C470 1.382 . S
C471 C475 1.389 . S
C472 C470 1.426 . S
C472 C473 1.375 . S
C472 C476 1.532 . S
C473 H463 0.930 . S
C473 C472 1.375 . S
C473 C474 1.416 . S
C474 C473 1.416 . S
C474 C475 1.371 . S
C475 H464 0.930 . S
C475 C471 1.389 . S
C475 C474 1.371 . S
C476 H465 0.970 . S
C476 H466 0.970 . S
C476 C472 1.532 . S
C476 C477 1.499 . S
C477 C476 1.499 . S
C477 C478 1.370 . S
C477 C482 1.415 . S
C478 H467 0.930 . S
C478 C477 1.370 . S
C478 C479 1.407 . S
C479 C478 1.407 . S
C479 C480 1.365 . S
C480 H468 0.930 . S
C480 C479 1.365 . S
C480 C481 1.393 . S
C481 C480 1.393 . S
C481 C482 1.387 . S
C482 H469 0.930 . S
C482 C477 1.415 . S
C482 C481 1.387 . S
H483 C491 0.930 . S
H484 C494 0.930 . S
H485 C496 0.930 . S
H486 C497 0.970 . S
H487 C497 0.970 . S
H488 C499 0.930 . S
H489 C501 0.930 . S
H490 C503 0.930 . S
C491 H483 0.930 . S
C491 C492 1.382 . S
C491 C493 1.426 . S
C492 C491 1.382 . S
C492 C496 1.389 1_565 S
C493 C491 1.426 . S
C493 C494 1.375 . S
C493 C497 1.532 . S
C494 H484 0.930 . S
C494 C493 1.375 . S
C494 C495 1.416 . S
C495 C494 1.416 . S
C495 C496 1.371 1_565 S
C496 H485 0.930 . S
C496 C492 1.389 1_545 S
C496 C495 1.371 1_545 S
C497 H486 0.970 . S
C497 H487 0.970 . S
C497 C493 1.532 . S
C497 C498 1.499 . S
C498 C497 1.499 . S
C498 C499 1.370 . S
C498 C503 1.415 . S
C499 H488 0.930 . S
C499 C498 1.370 . S
C499 C500 1.428 . S
C500 C499 1.428 . S
C500 C501 1.356 1_565 S
C501 H489 0.930 . S
C501 C500 1.356 1_545 S
C501 C502 1.393 1_545 S
C502 C501 1.393 1_565 S
C502 C503 1.387 . S
C503 H490 0.930 . S
C503 C498 1.415 . S
C503 C502 1.387 . S
H504 C512 0.930 . S
H505 C515 0.930 . S
H506 C517 0.930 . S
H507 C518 0.970 . S
H508 C518 0.970 . S
H509 C520 0.930 . S
H510 C522 0.930 . S
H511 C524 0.930 . S
C512 H504 0.930 . S
C512 C513 1.382 . S
C512 C514 1.426 . S
C513 C512 1.382 . S
C513 C517 1.389 1_565 S
C514 C512 1.426 . S
C514 C515 1.375 . S
C514 C518 1.532 . S
C515 H505 0.930 . S
C515 C514 1.375 . S
C515 C516 1.416 . S
C516 C515 1.416 . S
C516 C517 1.371 1_565 S
C517 H506 0.930 . S
C517 C513 1.389 1_545 S
C517 C516 1.371 1_545 S
C518 H507 0.970 . S
C518 H508 0.970 . S
C518 C514 1.532 . S
C518 C519 1.499 . S
C519 C518 1.499 . S
C519 C520 1.370 . S
C519 C524 1.415 . S
C520 H509 0.930 . S
C520 C519 1.370 . S
C520 C521 1.407 . S
C521 C520 1.407 . S
C521 C522 1.365 1_565 S
C522 H510 0.930 . S
C522 C521 1.365 1_545 S
C522 C523 1.393 1_545 S
C523 C522 1.393 1_565 S
C523 C524 1.387 . S
C524 H511 0.930 . S
C524 C519 1.415 . S
C524 C523 1.387 . S
H525 C533 0.930 . S
H526 C536 0.930 . S
H527 C538 0.930 . S
H528 C539 0.970 . S
H529 C539 0.970 . S
H530 C541 0.930 . S
H531 C543 0.930 . S
H532 C545 0.930 . S
C533 H525 0.930 . S
C533 C534 1.382 . S
C533 C535 1.426 . S
C534 C533 1.382 . S
C534 C538 1.389 1_455 S
C535 C533 1.426 . S
C535 C536 1.375 . S
C535 C539 1.532 . S
C536 H526 0.930 . S
C536 C535 1.375 . S
C536 C537 1.416 . S
C537 C536 1.416 . S
C537 C538 1.371 1_455 S
C538 H527 0.930 . S
C538 C534 1.389 1_655 S
C538 C537 1.371 1_655 S
C539 H528 0.970 . S
C539 H529 0.970 . S
C539 C535 1.532 . S
C539 C540 1.499 . S
C540 C539 1.499 . S
C540 C541 1.370 . S
C540 C545 1.415 . S
C541 H530 0.930 . S
C541 C540 1.370 . S
C541 C542 1.407 . S
C542 C541 1.407 . S
C542 C543 1.365 1_455 S
C543 H531 0.930 . S
C543 C542 1.365 1_655 S
C543 C544 1.393 1_655 S
C544 C543 1.393 1_455 S
C544 C545 1.387 . S
C545 H532 0.930 . S
C545 C540 1.415 . S
C545 C544 1.387 . S
H546 C554 0.930 . S
H547 C557 0.930 . S
H548 C559 0.930 . S
H549 C560 0.970 . S
H550 C560 0.970 . S
H551 C562 0.930 . S
H552 C564 0.930 . S
H553 C566 0.930 . S
C554 H546 0.930 . S
C554 C555 1.382 . S
C554 C556 1.426 . S
C555 C554 1.382 . S
C555 C559 1.389 . S
C556 C554 1.426 . S
C556 C557 1.375 . S
C556 C560 1.532 . S
C557 H547 0.930 . S
C557 C556 1.375 . S
C557 C558 1.416 . S
C558 C557 1.416 . S
C558 C559 1.371 . S
C559 H548 0.930 . S
C559 C555 1.389 . S
C559 C558 1.371 . S
C560 H549 0.970 . S
C560 H550 0.970 . S
C560 C556 1.532 . S
C560 C561 1.499 . S
C561 C560 1.499 . S
C561 C562 1.370 . S
C561 C566 1.415 . S
C562 H551 0.930 . S
C562 C561 1.370 . S
C562 C563 1.407 . S
C563 C562 1.407 . S
C563 C564 1.365 . S
C564 H552 0.930 . S
C564 C563 1.365 . S
C564 C565 1.393 . S
C565 C564 1.393 . S
C565 C566 1.387 . S
C566 H553 0.930 . S
C566 C561 1.415 . S
C566 C565 1.387 . S
H567 C575 0.930 . S
H568 C578 0.930 . S
H569 C580 0.930 . S
H570 C581 0.970 . S
H571 C581 0.970 . S
H572 C583 0.930 . S
H573 C585 0.930 . S
H574 C587 0.930 . S
C575 H567 0.930 . S
C575 C576 1.382 . S
C575 C577 1.426 . S
C576 C575 1.382 . S
C576 C580 1.389 . S
C577 C575 1.426 . S
C577 C578 1.375 . S
C577 C581 1.532 . S
C578 H568 0.930 . S
C578 C577 1.375 . S
C578 C579 1.416 . S
C579 C578 1.416 . S
C579 C580 1.371 . S
C580 H569 0.930 . S
C580 C576 1.389 . S
C580 C579 1.371 . S
C581 H570 0.970 . S
C581 H571 0.970 . S
C581 C577 1.532 . S
C581 C582 1.499 . S
C582 C581 1.499 . S
C582 C583 1.370 . S
C582 C587 1.415 . S
C583 H572 0.930 . S
C583 C582 1.370 . S
C583 C584 1.407 . S
C584 C583 1.407 . S
C584 C585 1.365 . S
C585 H573 0.930 . S
C585 C584 1.365 . S
C585 C586 1.393 . S
C586 C585 1.393 . S
C586 C587 1.387 . S
C587 H574 0.930 . S
C587 C582 1.415 . S
C587 C586 1.387 . S
H588 C596 0.930 . S
H589 C599 0.930 . S
H590 C601 0.930 . S
H591 C602 0.970 . S
H592 C602 0.970 . S
H593 C604 0.930 . S
H594 C606 0.930 . S
H595 C608 0.930 . S
C596 H588 0.930 . S
C596 C597 1.382 . S
C596 C598 1.426 . S
C597 C596 1.382 . S
C597 C601 1.389 . S
C598 C596 1.426 . S
C598 C599 1.375 . S
C598 C602 1.532 . S
C599 H589 0.930 . S
C599 C598 1.375 . S
C599 C600 1.416 . S
C600 C599 1.416 . S
C600 C601 1.371 . S
C601 H590 0.930 . S
C601 C597 1.389 . S
C601 C600 1.371 . S
C602 H591 0.970 . S
C602 H592 0.970 . S
C602 C598 1.532 . S
C602 C603 1.499 . S
C603 C602 1.499 . S
C603 C604 1.370 . S
C603 C608 1.415 . S
C604 H593 0.930 . S
C604 C603 1.370 . S
C604 C605 1.407 . S
C605 C604 1.407 . S
C605 C606 1.365 . S
C606 H594 0.930 . S
C606 C605 1.365 . S
C606 C607 1.393 . S
C607 C606 1.393 . S
C607 C608 1.387 . S
C608 H595 0.930 . S
C608 C603 1.415 . S
C608 C607 1.387 . S
H609 C617 0.930 . S
H610 C620 0.930 . S
H611 C622 0.930 . S
H612 C623 0.970 . S
H613 C623 0.970 . S
H614 C625 0.930 . S
H615 C627 0.930 . S
H616 C629 0.930 . S
C617 H609 0.930 . S
C617 C618 1.382 . S
C617 C619 1.426 . S
C618 C617 1.382 . S
C618 C622 1.389 . S
C619 C617 1.426 . S
C619 C620 1.375 . S
C619 C623 1.532 . S
C620 H610 0.930 . S
C620 C619 1.375 . S
C620 C621 1.416 . S
C621 C620 1.416 . S
C621 C622 1.371 . S
C622 H611 0.930 . S
C622 C618 1.389 . S
C622 C621 1.371 . S
C623 H612 0.970 . S
C623 H613 0.970 . S
C623 C619 1.532 . S
C623 C624 1.499 . S
C624 C623 1.499 . S
C624 C625 1.370 . S
C624 C629 1.415 . S
C625 H614 0.930 . S
C625 C624 1.370 . S
C625 C626 1.407 . S
C626 C625 1.407 . S
C626 C627 1.365 . S
C627 H615 0.930 . S
C627 C626 1.365 . S
C627 C628 1.393 . S
C628 C627 1.393 . S
C628 C629 1.387 . S
C629 H616 0.930 . S
C629 C624 1.415 . S
C629 C628 1.387 . S
H630 C636 0.930 . S
H631 C639 0.930 . S
H632 C640 0.930 . S
H633 C641 0.930 . S
H634 C644 0.930 . S
H635 C645 0.930 . S
C636 H630 0.930 . S
C636 C637 1.341 1_655 S
C636 C638 1.415 . S
C637 C636 1.341 1_455 S
C637 C639 1.429 . S
C638 C636 1.415 . S
C638 C643 1.425 1_655 S
C638 C645 1.409 . S
C639 H631 0.930 . S
C639 C637 1.429 . S
C639 C640 1.362 . S
C640 H632 0.930 . S
C640 C639 1.362 . S
C640 C643 1.409 . S
C641 H633 0.930 . S
C641 C642 1.355 1_455 S
C641 C643 1.415 . S
C642 C641 1.355 1_655 S
C642 C644 1.419 . S
C643 C638 1.425 1_455 S
C643 C640 1.409 . S
C643 C641 1.415 . S
C644 H634 0.930 . S
C644 C642 1.419 . S
C644 C645 1.362 . S
C645 H635 0.930 . S
C645 C638 1.409 . S
C645 C644 1.362 . S
H646 C652 0.930 . S
H647 C655 0.930 . S
H648 C656 0.930 . S
H649 C657 0.930 . S
H650 C660 0.930 . S
H651 C661 0.930 . S
C652 H646 0.930 . S
C652 C653 1.355 . S
C652 C654 1.415 . S
C653 C652 1.355 . S
C653 C655 1.419 . S
C654 C652 1.415 . S
C654 C659 1.425 . S
C654 C661 1.409 . S
C655 H647 0.930 . S
C655 C653 1.419 . S
C655 C656 1.362 . S
C656 H648 0.930 . S
C656 C655 1.362 . S
C656 C659 1.409 . S
C657 H649 0.930 . S
C657 C658 1.355 . S
C657 C659 1.415 . S
C658 C657 1.355 . S
C658 C660 1.419 . S
C659 C654 1.425 . S
C659 C656 1.409 . S
C659 C657 1.415 . S
C660 H650 0.930 . S
C660 C658 1.419 . S
C660 C661 1.362 . S
C661 H651 0.930 . S
C661 C654 1.409 . S
C661 C660 1.362 . S
H662 C668 0.930 . S
H663 C671 0.930 . S
H664 C672 0.930 . S
H665 C673 0.930 . S
H666 C676 0.930 . S
H667 C677 0.930 . S
C668 H662 0.930 . S
C668 C669 1.355 1_565 S
C668 C670 1.415 . S
C669 C668 1.355 1_545 S
C669 C671 1.419 . S
C670 C668 1.415 . S
C670 C675 1.425 1_565 S
C670 C677 1.409 . S
C671 H663 0.930 . S
C671 C669 1.419 . S
C671 C672 1.362 . S
C672 H664 0.930 . S
C672 C671 1.362 . S
C672 C675 1.409 . S
C673 H665 0.930 . S
C673 C674 1.355 . S
C673 C675 1.415 . S
C674 C673 1.355 . S
C674 C676 1.419 1_545 S
C675 C670 1.425 1_545 S
C675 C672 1.409 . S
C675 C673 1.415 . S
C676 H666 0.930 . S
C676 C674 1.419 1_565 S
C676 C677 1.362 . S
C677 H667 0.930 . S
C677 C670 1.409 . S
C677 C676 1.362 . S
H678 C684 0.944 . S
H679 C687 0.930 . S
H680 C688 0.930 . S
H681 C689 0.930 . S
H682 C692 0.929 . S
H683 C693 0.929 . S
C684 H678 0.944 . S
C684 C685 1.355 . S
C684 C686 1.415 . S
C685 C684 1.355 . S
C685 C687 1.419 . S
C686 C684 1.415 . S
C686 C691 1.425 . S
C686 C693 1.409 1_565 S
C687 H679 0.930 . S
C687 C685 1.419 . S
C687 C688 1.362 . S
C688 H680 0.930 . S
C688 C687 1.362 . S
C688 C691 1.409 . S
C689 H681 0.930 . S
C689 C690 1.355 . S
C689 C691 1.415 . S
C690 C689 1.355 . S
C690 C692 1.446 . S
C691 C686 1.425 . S
C691 C688 1.409 . S
C691 C689 1.415 . S
C692 H682 0.929 . S
C692 C690 1.446 . S
C692 C693 1.340 1_565 S
C693 H683 0.929 . S
C693 C686 1.409 1_545 S
C693 C692 1.340 1_545 S
H694 C700 0.930 . S
H695 C703 0.930 . S
H696 C704 0.930 . S
H697 C705 0.930 . S
H698 C708 0.930 . S
H699 C709 0.930 . S
C700 H694 0.930 . S
C700 C701 1.355 1_655 S
C700 C702 1.415 . S
C701 C700 1.355 1_455 S
C701 C703 1.419 . S
C702 C700 1.415 . S
C702 C707 1.425 1_655 S
C702 C709 1.409 . S
C703 H695 0.930 . S
C703 C701 1.419 . S
C703 C704 1.362 . S
C704 H696 0.930 . S
C704 C703 1.362 . S
C704 C707 1.409 . S
C705 H697 0.930 . S
C705 C706 1.355 . S
C705 C707 1.415 . S
C706 C705 1.355 . S
C706 C708 1.419 1_455 S
C707 C702 1.425 1_455 S
C707 C704 1.409 . S
C707 C705 1.415 . S
C708 H698 0.930 . S
C708 C706 1.419 1_655 S
C708 C709 1.362 . S
C709 H699 0.930 . S
C709 C702 1.409 . S
C709 C708 1.362 . S
H710 C716 0.930 . S
H711 C719 0.930 . S
H712 C720 0.930 . S
H713 C721 0.930 . S
H714 C724 0.930 . S
H715 C725 0.930 . S
C716 H710 0.930 . S
C716 C717 1.355 . S
C716 C718 1.415 . S
C717 C716 1.355 . S
C717 C719 1.419 . S
C718 C716 1.415 . S
C718 C723 1.425 . S
C718 C725 1.409 . S
C719 H711 0.930 . S
C719 C717 1.419 . S
C719 C720 1.362 . S
C720 H712 0.930 . S
C720 C719 1.362 . S
C720 C723 1.409 . S
C721 H713 0.930 . S
C721 C722 1.355 . S
C721 C723 1.415 . S
C722 C721 1.355 . S
C722 C724 1.419 . S
C723 C718 1.425 . S
C723 C720 1.409 . S
C723 C721 1.415 . S
C724 H714 0.930 . S
C724 C722 1.419 . S
C724 C725 1.362 . S
C725 H715 0.930 . S
C725 C718 1.409 . S
C725 C724 1.362 . S
H726 C732 0.930 . S
H727 C735 0.930 . S
H728 C736 0.930 . S
H729 C737 0.930 . S
H730 C740 0.930 . S
H731 C741 0.930 . S
C732 H726 0.930 . S
C732 C733 1.355 . S
C732 C734 1.415 . S
C733 C732 1.355 . S
C733 C735 1.419 1_455 S
C734 C732 1.415 . S
C734 C739 1.425 1_455 S
C734 C741 1.409 . S
C735 H727 0.930 . S
C735 C733 1.419 1_655 S
C735 C736 1.362 . S
C736 H728 0.930 . S
C736 C735 1.362 . S
C736 C739 1.409 . S
C737 H729 0.930 . S
C737 C738 1.355 1_655 S
C737 C739 1.415 . S
C738 C737 1.355 1_455 S
C738 C740 1.419 . S
C739 C734 1.425 1_655 S
C739 C736 1.409 . S
C739 C737 1.415 . S
C740 H730 0.930 . S
C740 C738 1.419 . S
C740 C741 1.362 . S
C741 H731 0.930 . S
C741 C734 1.409 . S
C741 C740 1.362 . S
H742 C748 0.930 . S
H743 C751 0.930 . S
H744 C752 0.930 . S
H745 C753 0.930 . S
H746 C756 0.930 . S
H747 C757 0.930 . S
C748 H742 0.930 . S
C748 C749 1.355 . S
C748 C750 1.415 . S
C749 C748 1.355 . S
C749 C751 1.419 . S
C750 C748 1.415 . S
C750 C755 1.425 . S
C750 C757 1.409 . S
C751 H743 0.930 . S
C751 C749 1.419 . S
C751 C752 1.362 . S
C752 H744 0.930 . S
C752 C751 1.362 . S
C752 C755 1.409 . S
C753 H745 0.930 . S
C753 C754 1.355 . S
C753 C755 1.415 . S
C754 C753 1.355 . S
C754 C756 1.419 . S
C755 C750 1.425 . S
C755 C752 1.409 . S
C755 C753 1.415 . S
C756 H746 0.930 . S
C756 C754 1.419 . S
C756 C757 1.362 . S
C757 H747 0.930 . S
C757 C750 1.409 . S
C757 C756 1.362 . S
H758 C764 0.930 . S
H759 C767 0.930 . S
H760 C768 0.930 . S
H761 C769 0.904 1_545 S
H762 C772 0.930 . S
H763 C773 0.930 . S
C764 H758 0.930 . S
C764 C765 1.356 . S
C764 C766 1.415 . S
C765 C764 1.356 . S
C765 C767 1.405 1_565 S
C766 C764 1.415 . S
C766 C771 1.427 1_565 S
C766 C773 1.409 . S
C767 H759 0.930 . S
C767 C765 1.405 1_545 S
C767 C768 1.362 . S
C768 H760 0.930 . S
C768 C767 1.362 . S
C768 C771 1.409 . S
C769 H761 0.904 1_565 S
C769 C770 1.355 . S
C769 C771 1.412 1_565 S
C770 C769 1.355 . S
C770 C772 1.419 . S
C771 C766 1.427 1_545 S
C771 C768 1.409 . S
C771 C769 1.412 1_545 S
C772 H762 0.930 . S
C772 C770 1.419 . S
C772 C773 1.362 . S
C773 H763 0.930 . S
C773 C766 1.409 . S
C773 C772 1.362 . S
H774 C780 0.930 . S
H775 C783 0.930 . S
H776 C784 0.930 . S
H777 C785 0.930 . S
H778 C788 0.930 . S
H779 C789 0.930 . S
C780 H774 0.930 . S
C780 C781 1.355 . S
C780 C782 1.415 . S
C781 C780 1.355 . S
C781 C783 1.419 1_545 S
C782 C780 1.415 . S
C782 C787 1.425 1_545 S
C782 C789 1.409 . S
C783 H775 0.930 . S
C783 C781 1.419 1_565 S
C783 C784 1.362 . S
C784 H776 0.930 . S
C784 C783 1.362 . S
C784 C787 1.409 . S
C785 H777 0.930 . S
C785 C786 1.308 1_565 S
C785 C787 1.415 . S
C786 C785 1.308 1_545 S
C786 C788 1.453 . S
C787 C782 1.425 1_565 S
C787 C784 1.409 . S
C787 C785 1.415 . S
C788 H778 0.930 . S
C788 C786 1.453 . S
C788 C789 1.362 . S
C789 H779 0.930 . S
C789 C782 1.409 . S
C789 C788 1.362 . S
H790 C796 0.930 . S
H791 C799 0.930 . S
H792 C800 0.930 . S
H793 C801 0.930 . S
H794 C804 0.930 . S
H795 C805 0.930 . S
C796 H790 0.930 . S
C796 C797 1.347 1_655 S
C796 C798 1.415 . S
C797 C796 1.347 1_455 S
C797 C799 1.439 . S
C798 C796 1.415 . S
C798 C803 1.425 1_655 S
C798 C805 1.409 . S
C799 H791 0.930 . S
C799 C797 1.439 . S
C799 C800 1.362 . S
C800 H792 0.930 . S
C800 C799 1.362 . S
C800 C803 1.409 . S
C801 H793 0.930 . S
C801 C802 1.355 1_455 S
C801 C803 1.415 . S
C802 C801 1.355 1_655 S
C802 C804 1.419 . S
C803 C798 1.425 1_455 S
C803 C800 1.409 . S
C803 C801 1.415 . S
C804 H794 0.930 . S
C804 C802 1.419 . S
C804 C805 1.362 . S
C805 H795 0.930 . S
C805 C798 1.409 . S
C805 C804 1.362 . S
H806 C812 0.930 . S
H807 C815 0.930 . S
H808 C816 0.930 . S
H809 C817 0.930 . S
H810 C820 0.930 . S
H811 C821 0.930 . S
C812 H806 0.930 . S
C812 C813 1.355 . S
C812 C814 1.415 . S
C813 C812 1.355 . S
C813 C815 1.419 . S
C814 C812 1.415 . S
C814 C819 1.425 . S
C814 C821 1.409 . S
C815 H807 0.930 . S
C815 C813 1.419 . S
C815 C816 1.362 . S
C816 H808 0.930 . S
C816 C815 1.362 . S
C816 C819 1.409 . S
C817 H809 0.930 . S
C817 C818 1.355 . S
C817 C819 1.415 . S
C818 C817 1.355 . S
C818 C820 1.419 . S
C819 C814 1.425 . S
C819 C816 1.409 . S
C819 C817 1.415 . S
C820 H810 0.930 . S
C820 C818 1.419 . S
C820 C821 1.362 . S
C821 H811 0.930 . S
C821 C814 1.409 . S
C821 C820 1.362 . S
H822 C828 0.930 . S
H823 C831 0.930 . S
H824 C832 0.930 . S
H825 C833 0.930 . S
H826 C836 0.930 . S
H827 C837 0.930 . S
C828 H822 0.930 . S
C828 C829 1.355 . S
C828 C830 1.415 . S
C829 C828 1.355 . S
C829 C831 1.419 . S
C830 C828 1.415 . S
C830 C835 1.425 . S
C830 C837 1.409 . S
C831 H823 0.930 . S
C831 C829 1.419 . S
C831 C832 1.362 . S
C832 H824 0.930 . S
C832 C831 1.362 . S
C832 C835 1.409 . S
C833 H825 0.930 . S
C833 C834 1.355 . S
C833 C835 1.415 . S
C834 C833 1.355 . S
C834 C836 1.419 . S
C835 C830 1.425 . S
C835 C832 1.409 . S
C835 C833 1.415 . S
C836 H826 0.930 . S
C836 C834 1.419 . S
C836 C837 1.362 . S
C837 H827 0.930 . S
C837 C830 1.409 . S
C837 C836 1.362 . S
H838 C844 0.930 . S
H839 C847 0.930 . S
H840 C848 0.930 . S
H841 C849 0.930 . S
H842 C852 0.930 . S
H843 C853 0.930 . S
C844 H838 0.930 . S
C844 C845 1.355 . S
C844 C846 1.415 . S
C845 C844 1.355 . S
C845 C847 1.419 . S
C846 C844 1.415 . S
C846 C851 1.425 . S
C846 C853 1.409 . S
C847 H839 0.930 . S
C847 C845 1.419 . S
C847 C848 1.362 . S
C848 H840 0.930 . S
C848 C847 1.362 . S
C848 C851 1.409 . S
C849 H841 0.930 . S
C849 C850 1.355 . S
C849 C851 1.415 . S
C850 C849 1.355 . S
C850 C852 1.419 . S
C851 C846 1.425 . S
C851 C848 1.409 . S
C851 C849 1.415 . S
C852 H842 0.930 . S
C852 C850 1.419 . S
C852 C853 1.362 . S
C853 H843 0.930 . S
C853 C846 1.409 . S
C853 C852 1.362 . S
H854 C860 0.930 . S
H855 C863 0.930 . S
H856 C864 0.930 . S
H857 C865 0.930 . S
H858 C868 0.930 . S
H859 C869 0.930 . S
C860 H854 0.930 . S
C860 C861 1.355 . S
C860 C862 1.415 . S
C861 C860 1.355 . S
C861 C863 1.419 . S
C862 C860 1.415 . S
C862 C867 1.425 . S
C862 C869 1.409 . S
C863 H855 0.930 . S
C863 C861 1.419 . S
C863 C864 1.362 . S
C864 H856 0.930 . S
C864 C863 1.362 . S
C864 C867 1.409 . S
C865 H857 0.930 . S
C865 C866 1.355 . S
C865 C867 1.415 . S
C866 C865 1.355 . S
C866 C868 1.419 . S
C867 C862 1.425 . S
C867 C864 1.409 . S
C867 C865 1.415 . S
C868 H858 0.930 . S
C868 C866 1.419 . S
C868 C869 1.362 . S
C869 H859 0.930 . S
C869 C862 1.409 . S
C869 C868 1.362 . S
H870 C876 0.930 . S
H871 C879 0.930 . S
H872 C880 0.930 . S
H873 C881 0.930 . S
H874 C884 0.930 . S
H875 C885 0.930 . S
C876 H870 0.930 . S
C876 C877 1.355 . S
C876 C878 1.415 . S
C877 C876 1.355 . S
C877 C879 1.419 . S
C878 C876 1.415 . S
C878 C883 1.425 . S
C878 C885 1.409 . S
C879 H871 0.930 . S
C879 C877 1.419 . S
C879 C880 1.362 . S
C880 H872 0.930 . S
C880 C879 1.362 . S
C880 C883 1.409 . S
C881 H873 0.930 . S
C881 C882 1.355 . S
C881 C883 1.415 . S
C882 C881 1.355 . S
C882 C884 1.419 . S
C883 C878 1.425 . S
C883 C880 1.409 . S
C883 C881 1.415 . S
C884 H874 0.930 . S
C884 C882 1.419 . S
C884 C885 1.362 . S
C885 H875 0.930 . S
C885 C878 1.409 . S
C885 C884 1.362 . S
H886 C892 0.930 . S
H887 C895 0.930 . S
H888 C896 0.930 . S
H889 C897 0.930 . S
H890 C900 0.930 . S
H891 C901 0.930 . S
C892 H886 0.930 . S
C892 C893 1.355 . S
C892 C894 1.415 . S
C893 C892 1.355 . S
C893 C895 1.419 . S
C894 C892 1.415 . S
C894 C899 1.425 . S
C894 C901 1.409 . S
C895 H887 0.930 . S
C895 C893 1.419 . S
C895 C896 1.362 . S
C896 H888 0.930 . S
C896 C895 1.362 . S
C896 C899 1.409 . S
C897 H889 0.930 . S
C897 C898 1.355 . S
C897 C899 1.415 . S
C898 C897 1.355 . S
C898 C900 1.419 . S
C899 C894 1.425 . S
C899 C896 1.409 . S
C899 C897 1.415 . S
C900 H890 0.930 . S
C900 C898 1.419 . S
C900 C901 1.362 . S
C901 H891 0.930 . S
C901 C894 1.409 . S
C901 C900 1.362 . S
H902 C908 0.930 . S
H903 C911 0.930 . S
H904 C912 0.930 . S
H905 C913 0.930 . S
H906 C916 0.930 . S
H907 C917 0.930 . S
C908 H902 0.930 . S
C908 C909 1.355 . S
C908 C910 1.415 . S
C909 C908 1.355 . S
C909 C911 1.419 . S
C910 C908 1.415 . S
C910 C915 1.425 . S
C910 C917 1.409 . S
C911 H903 0.930 . S
C911 C909 1.419 . S
C911 C912 1.362 . S
C912 H904 0.930 . S
C912 C911 1.362 . S
C912 C915 1.409 . S
C913 H905 0.930 . S
C913 C914 1.355 . S
C913 C915 1.415 . S
C914 C913 1.355 . S
C914 C916 1.419 . S
C915 C910 1.425 . S
C915 C912 1.409 . S
C915 C913 1.415 . S
C916 H906 0.930 . S
C916 C914 1.419 . S
C916 C917 1.362 . S
C917 H907 0.930 . S
C917 C910 1.409 . S
C917 C916 1.362 . S
H918 C924 0.930 . S
H919 C927 0.930 . S
H920 C928 0.930 . S
H921 C929 0.930 . S
H922 C932 0.930 . S
H923 C933 0.930 . S
C924 H918 0.930 . S
C924 C925 1.355 . S
C924 C926 1.415 . S
C925 C924 1.355 . S
C925 C927 1.419 . S
C926 C924 1.415 . S
C926 C931 1.425 . S
C926 C933 1.409 . S
C927 H919 0.930 . S
C927 C925 1.419 . S
C927 C928 1.362 . S
C928 H920 0.930 . S
C928 C927 1.362 . S
C928 C931 1.409 . S
C929 H921 0.930 . S
C929 C930 1.355 . S
C929 C931 1.415 . S
C930 C929 1.355 . S
C930 C932 1.419 . S
C931 C926 1.425 . S
C931 C928 1.409 . S
C931 C929 1.415 . S
C932 H922 0.930 . S
C932 C930 1.419 . S
C932 C933 1.362 . S
C933 H923 0.930 . S
C933 C926 1.409 . S
C933 C932 1.362 . S
H934 C940 0.930 . S
H935 C943 0.930 . S
H936 C944 0.930 . S
H937 C945 0.930 . S
H938 C948 0.930 . S
H939 C949 0.930 . S
C940 H934 0.930 . S
C940 C941 1.355 . S
C940 C942 1.415 . S
C941 C940 1.355 . S
C941 C943 1.419 . S
C942 C940 1.415 . S
C942 C947 1.425 . S
C942 C949 1.409 . S
C943 H935 0.930 . S
C943 C941 1.419 . S
C943 C944 1.362 . S
C944 H936 0.930 . S
C944 C943 1.362 . S
C944 C947 1.409 . S
C945 H937 0.930 . S
C945 C946 1.355 . S
C945 C947 1.415 . S
C946 C945 1.355 . S
C946 C948 1.419 . S
C947 C942 1.425 . S
C947 C944 1.409 . S
C947 C945 1.415 . S
C948 H938 0.930 . S
C948 C946 1.419 . S
C948 C949 1.362 . S
C949 H939 0.930 . S
C949 C942 1.409 . S
C949 C948 1.362 . S
H950 C956 0.930 . S
H951 C959 0.930 . S
H952 C960 0.930 . S
H953 C961 0.930 . S
H954 C964 0.930 . S
H955 C965 0.930 . S
C956 H950 0.930 . S
C956 C957 1.355 . S
C956 C958 1.415 . S
C957 C956 1.355 . S
C957 C959 1.419 . S
C958 C956 1.415 . S
C958 C963 1.425 . S
C958 C965 1.409 . S
C959 H951 0.930 . S
C959 C957 1.419 . S
C959 C960 1.362 . S
C960 H952 0.930 . S
C960 C959 1.362 . S
C960 C963 1.409 . S
C961 H953 0.930 . S
C961 C962 1.355 . S
C961 C963 1.415 . S
C962 C961 1.355 . S
C962 C964 1.419 . S
C963 C958 1.425 . S
C963 C960 1.409 . S
C963 C961 1.415 . S
C964 H954 0.930 . S
C964 C962 1.419 . S
C964 C965 1.362 . S
C965 H955 0.930 . S
C965 C958 1.409 . S
C965 C964 1.362 . S
H966 C972 0.930 . S
H967 C975 0.930 . S
H968 C976 0.930 . S
H969 C977 0.930 . S
H970 C980 0.930 . S
H971 C981 0.930 . S
C972 H966 0.930 . S
C972 C973 1.355 . S
C972 C974 1.415 . S
C973 C972 1.355 . S
C973 C975 1.419 . S
C974 C972 1.415 . S
C974 C979 1.425 . S
C974 C981 1.409 . S
C975 H967 0.930 . S
C975 C973 1.419 . S
C975 C976 1.362 . S
C976 H968 0.930 . S
C976 C975 1.362 . S
C976 C979 1.409 . S
C977 H969 0.930 . S
C977 C978 1.355 . S
C977 C979 1.415 . S
C978 C977 1.355 . S
C978 C980 1.419 . S
C979 C974 1.425 . S
C979 C976 1.409 . S
C979 C977 1.415 . S
C980 H970 0.930 . S
C980 C978 1.419 . S
C980 C981 1.362 . S
C981 H971 0.930 . S
C981 C974 1.409 . S
C981 C980 1.362 . S
H982 C988 0.930 . S
H983 C991 0.930 . S
H984 C992 0.930 . S
H985 C993 0.930 . S
H986 C996 0.930 . S
H987 C997 0.930 . S
C988 H982 0.930 . S
C988 C989 1.355 . S
C988 C990 1.415 . S
C989 C988 1.355 . S
C989 C991 1.419 . S
C990 C988 1.415 . S
C990 C995 1.425 . S
C990 C997 1.409 . S
C991 H983 0.930 . S
C991 C989 1.419 . S
C991 C992 1.362 . S
C992 H984 0.930 . S
C992 C991 1.362 . S
C992 C995 1.409 . S
C993 H985 0.930 . S
C993 C994 1.355 . S
C993 C995 1.415 . S
C994 C993 1.355 . S
C994 C996 1.419 . S
C995 C990 1.425 . S
C995 C992 1.409 . S
C995 C993 1.415 . S
C996 H986 0.930 . S
C996 C994 1.419 . S
C996 C997 1.362 . S
C997 H987 0.930 . S
C997 C990 1.409 . S
C997 C996 1.362 . S
H998 C1004 0.930 . S
H999 C1007 0.930 . S
H1000 C1008 0.930 . S
H1001 C1009 0.930 . S
H1002 C1012 0.930 . S
H1003 C1013 0.930 . S
C1004 H998 0.930 . S
C1004 C1005 1.355 . S
C1004 C1006 1.415 . S
C1005 C1004 1.355 . S
C1005 C1007 1.419 . S
C1006 C1004 1.415 . S
C1006 C1011 1.425 . S
C1006 C1013 1.409 . S
C1007 H999 0.930 . S
C1007 C1005 1.419 . S
C1007 C1008 1.362 . S
C1008 H1000 0.930 . S
C1008 C1007 1.362 . S
C1008 C1011 1.409 . S
C1009 H1001 0.930 . S
C1009 C1010 1.355 . S
C1009 C1011 1.415 . S
C1010 C1009 1.355 . S
C1010 C1012 1.419 . S
C1011 C1006 1.425 . S
C1011 C1008 1.409 . S
C1011 C1009 1.415 . S
C1012 H1002 0.930 . S
C1012 C1010 1.419 . S
C1012 C1013 1.362 . S
C1013 H1003 0.930 . S
C1013 C1006 1.409 . S
C1013 C1012 1.362 . S
H1014 C1020 0.930 . S
H1015 C1023 0.930 . S
H1016 C1024 0.930 . S
H1017 C1025 0.930 . S
H1018 C1028 0.930 . S
H1019 C1029 0.930 . S
C1020 H1014 0.930 . S
C1020 C1021 1.355 . S
C1020 C1022 1.415 . S
C1021 C1020 1.355 . S
C1021 C1023 1.419 . S
C1022 C1020 1.415 . S
C1022 C1027 1.425 . S
C1022 C1029 1.409 . S
C1023 H1015 0.930 . S
C1023 C1021 1.419 . S
C1023 C1024 1.362 . S
C1024 H1016 0.930 . S
C1024 C1023 1.362 . S
C1024 C1027 1.409 . S
C1025 H1017 0.930 . S
C1025 C1026 1.355 . S
C1025 C1027 1.415 . S
C1026 C1025 1.355 . S
C1026 C1028 1.419 . S
C1027 C1022 1.425 . S
C1027 C1024 1.409 . S
C1027 C1025 1.415 . S
C1028 H1018 0.930 . S
C1028 C1026 1.419 . S
C1028 C1029 1.362 . S
C1029 H1019 0.930 . S
C1029 C1022 1.409 . S
C1029 C1028 1.362 . S
H1030 C1036 0.930 . S
H1031 C1039 0.930 . S
H1032 C1040 0.930 . S
H1033 C1041 0.930 . S
H1034 C1044 0.930 . S
H1035 C1045 0.930 . S
C1036 H1030 0.930 . S
C1036 C1037 1.355 . S
C1036 C1038 1.415 . S
C1037 C1036 1.355 . S
C1037 C1039 1.419 . S
C1038 C1036 1.415 . S
C1038 C1043 1.425 . S
C1038 C1045 1.409 . S
C1039 H1031 0.930 . S
C1039 C1037 1.419 . S
C1039 C1040 1.362 . S
C1040 H1032 0.930 . S
C1040 C1039 1.362 . S
C1040 C1043 1.409 . S
C1041 H1033 0.930 . S
C1041 C1042 1.355 . S
C1041 C1043 1.415 . S
C1042 C1041 1.355 . S
C1042 C1044 1.419 . S
C1043 C1038 1.425 . S
C1043 C1040 1.409 . S
C1043 C1041 1.415 . S
C1044 H1034 0.930 . S
C1044 C1042 1.419 . S
C1044 C1045 1.362 . S
C1045 H1035 0.930 . S
C1045 C1038 1.409 . S
C1045 C1044 1.362 . S
H1046 C1052 0.930 . S
H1047 C1055 0.930 . S
H1048 C1056 0.930 . S
H1049 C1057 0.930 . S
H1050 C1060 0.930 . S
H1051 C1061 0.930 . S
C1052 H1046 0.930 . S
C1052 C1053 1.355 . S
C1052 C1054 1.415 . S
C1053 C1052 1.355 . S
C1053 C1055 1.419 . S
C1054 C1052 1.415 . S
C1054 C1059 1.425 . S
C1054 C1061 1.409 . S
C1055 H1047 0.930 . S
C1055 C1053 1.419 . S
C1055 C1056 1.362 . S
C1056 H1048 0.930 . S
C1056 C1055 1.362 . S
C1056 C1059 1.409 . S
C1057 H1049 0.930 . S
C1057 C1058 1.355 . S
C1057 C1059 1.415 . S
C1058 C1057 1.355 . S
C1058 C1060 1.419 . S
C1059 C1054 1.425 . S
C1059 C1056 1.409 . S
C1059 C1057 1.415 . S
C1060 H1050 0.930 . S
C1060 C1058 1.419 . S
C1060 C1061 1.362 . S
C1061 H1051 0.930 . S
C1061 C1054 1.409 . S
C1061 C1060 1.362 . S
H1062 C1068 0.930 . S
H1063 C1071 0.930 . S
H1064 C1072 0.930 . S
H1065 C1073 0.930 . S
H1066 C1076 0.930 . S
H1067 C1077 0.930 . S
C1068 H1062 0.930 . S
C1068 C1069 1.355 . S
C1068 C1070 1.415 . S
C1069 C1068 1.355 . S
C1069 C1071 1.419 . S
C1070 C1068 1.415 . S
C1070 C1075 1.425 . S
C1070 C1077 1.409 . S
C1071 H1063 0.930 . S
C1071 C1069 1.419 . S
C1071 C1072 1.362 . S
C1072 H1064 0.930 . S
C1072 C1071 1.362 . S
C1072 C1075 1.409 . S
C1073 H1065 0.930 . S
C1073 C1074 1.355 . S
C1073 C1075 1.415 . S
C1074 C1073 1.355 . S
C1074 C1076 1.419 . S
C1075 C1070 1.425 . S
C1075 C1072 1.409 . S
C1075 C1073 1.415 . S
C1076 H1066 0.930 . S
C1076 C1074 1.419 . S
C1076 C1077 1.362 . S
C1077 H1067 0.930 . S
C1077 C1070 1.409 . S
C1077 C1076 1.362 . S
H1078 C1084 0.930 . S
H1079 C1087 0.930 . S
H1080 C1088 0.930 . S
H1081 C1089 0.930 . S
H1082 C1092 0.930 . S
H1083 C1093 0.930 . S
C1084 H1078 0.930 . S
C1084 C1085 1.355 . S
C1084 C1086 1.415 . S
C1085 C1084 1.355 . S
C1085 C1087 1.419 . S
C1086 C1084 1.415 . S
C1086 C1091 1.425 . S
C1086 C1093 1.409 . S
C1087 H1079 0.930 . S
C1087 C1085 1.419 . S
C1087 C1088 1.362 . S
C1088 H1080 0.930 . S
C1088 C1087 1.362 . S
C1088 C1091 1.409 . S
C1089 H1081 0.930 . S
C1089 C1090 1.355 . S
C1089 C1091 1.415 . S
C1090 C1089 1.355 . S
C1090 C1092 1.419 . S
C1091 C1086 1.425 . S
C1091 C1088 1.409 . S
C1091 C1089 1.415 . S
C1092 H1082 0.930 . S
C1092 C1090 1.419 . S
C1092 C1093 1.362 . S
C1093 H1083 0.930 . S
C1093 C1086 1.409 . S
C1093 C1092 1.362 . S
H1094 C1100 0.930 . S
H1095 C1103 0.930 . S
H1096 C1104 0.930 . S
H1097 C1105 0.930 . S
H1098 C1108 0.930 . S
H1099 C1109 0.930 . S
C1100 H1094 0.930 . S
C1100 C1101 1.355 . S
C1100 C1102 1.415 . S
C1101 C1100 1.355 . S
C1101 C1103 1.419 . S
C1102 C1100 1.415 . S
C1102 C1107 1.425 . S
C1102 C1109 1.409 . S
C1103 H1095 0.930 . S
C1103 C1101 1.419 . S
C1103 C1104 1.362 . S
C1104 H1096 0.930 . S
C1104 C1103 1.362 . S
C1104 C1107 1.409 . S
C1105 H1097 0.930 . S
C1105 C1106 1.355 . S
C1105 C1107 1.415 . S
C1106 C1105 1.355 . S
C1106 C1108 1.419 . S
C1107 C1102 1.425 . S
C1107 C1104 1.409 . S
C1107 C1105 1.415 . S
C1108 H1098 0.930 . S
C1108 C1106 1.419 . S
C1108 C1109 1.362 . S
C1109 H1099 0.930 . S
C1109 C1102 1.409 . S
C1109 C1108 1.362 . S
H1110 C1116 0.930 . S
H1111 C1119 0.930 . S
H1112 C1120 0.930 . S
H1113 C1121 0.930 . S
H1114 C1124 0.930 . S
H1115 C1125 0.930 . S
C1116 H1110 0.930 . S
C1116 C1117 1.355 . S
C1116 C1118 1.415 . S
C1117 C1116 1.355 . S
C1117 C1119 1.419 . S
C1118 C1116 1.415 . S
C1118 C1123 1.425 . S
C1118 C1125 1.409 . S
C1119 H1111 0.930 . S
C1119 C1117 1.419 . S
C1119 C1120 1.362 . S
C1120 H1112 0.930 . S
C1120 C1119 1.362 . S
C1120 C1123 1.409 . S
C1121 H1113 0.930 . S
C1121 C1122 1.355 . S
C1121 C1123 1.415 . S
C1122 C1121 1.355 . S
C1122 C1124 1.419 . S
C1123 C1118 1.425 . S
C1123 C1120 1.409 . S
C1123 C1121 1.415 . S
C1124 H1114 0.930 . S
C1124 C1122 1.419 . S
C1124 C1125 1.362 . S
C1125 H1115 0.930 . S
C1125 C1118 1.409 . S
C1125 C1124 1.362 . S
H1126 C1132 0.930 . S
H1127 C1135 0.930 . S
H1128 C1136 0.930 . S
H1129 C1137 0.930 . S
H1130 C1140 0.930 . S
H1131 C1141 0.930 . S
C1132 H1126 0.930 . S
C1132 C1133 1.355 . S
C1132 C1134 1.415 . S
C1133 C1132 1.355 . S
C1133 C1135 1.419 . S
C1134 C1132 1.415 . S
C1134 C1139 1.425 . S
C1134 C1141 1.409 . S
C1135 H1127 0.930 . S
C1135 C1133 1.419 . S
C1135 C1136 1.362 . S
C1136 H1128 0.930 . S
C1136 C1135 1.362 . S
C1136 C1139 1.409 . S
C1137 H1129 0.930 . S
C1137 C1138 1.355 . S
C1137 C1139 1.415 . S
C1138 C1137 1.355 . S
C1138 C1140 1.419 . S
C1139 C1134 1.425 . S
C1139 C1136 1.409 . S
C1139 C1137 1.415 . S
C1140 H1130 0.930 . S
C1140 C1138 1.419 . S
C1140 C1141 1.362 . S
C1141 H1131 0.930 . S
C1141 C1134 1.409 . S
C1141 C1140 1.362 . S
H1142 C1148 0.930 . S
H1143 C1151 0.930 . S
H1144 C1152 0.930 . S
H1145 C1153 0.930 . S
H1146 C1156 0.930 . S
H1147 C1157 0.930 . S
C1148 H1142 0.930 . S
C1148 C1149 1.355 . S
C1148 C1150 1.415 . S
C1149 C1148 1.355 . S
C1149 C1151 1.419 . S
C1150 C1148 1.415 . S
C1150 C1155 1.425 . S
C1150 C1157 1.409 . S
C1151 H1143 0.930 . S
C1151 C1149 1.419 . S
C1151 C1152 1.362 . S
C1152 H1144 0.930 . S
C1152 C1151 1.362 . S
C1152 C1155 1.409 . S
C1153 H1145 0.930 . S
C1153 C1154 1.355 . S
C1153 C1155 1.415 . S
C1154 C1153 1.355 . S
C1154 C1156 1.419 . S
C1155 C1150 1.425 . S
C1155 C1152 1.409 . S
C1155 C1153 1.415 . S
C1156 H1146 0.930 . S
C1156 C1154 1.419 . S
C1156 C1157 1.362 . S
C1157 H1147 0.930 . S
C1157 C1150 1.409 . S
C1157 C1156 1.362 . S
H1158 C1164 0.930 . S
H1159 C1167 0.930 . S
H1160 C1168 0.930 . S
H1161 C1169 0.930 . S
H1162 C1172 0.930 . S
H1163 C1173 0.930 . S
C1164 H1158 0.930 . S
C1164 C1165 1.355 . S
C1164 C1166 1.415 . S
C1165 C1164 1.355 . S
C1165 C1167 1.419 . S
C1166 C1164 1.415 . S
C1166 C1171 1.425 . S
C1166 C1173 1.409 . S
C1167 H1159 0.930 . S
C1167 C1165 1.419 . S
C1167 C1168 1.362 . S
C1168 H1160 0.930 . S
C1168 C1167 1.362 . S
C1168 C1171 1.409 . S
C1169 H1161 0.930 . S
C1169 C1170 1.355 . S
C1169 C1171 1.415 . S
C1170 C1169 1.355 . S
C1170 C1172 1.419 . S
C1171 C1166 1.425 . S
C1171 C1168 1.409 . S
C1171 C1169 1.415 . S
C1172 H1162 0.930 . S
C1172 C1170 1.419 . S
C1172 C1173 1.362 . S
C1173 H1163 0.930 . S
C1173 C1166 1.409 . S
C1173 C1172 1.362 . S
H1174 C1180 0.930 . S
H1175 C1183 0.930 . S
H1176 C1184 0.930 . S
H1177 C1185 0.930 . S
H1178 C1188 0.930 . S
H1179 C1189 0.930 . S
C1180 H1174 0.930 . S
C1180 C1181 1.355 . S
C1180 C1182 1.415 . S
C1181 C1180 1.355 . S
C1181 C1183 1.419 . S
C1182 C1180 1.415 . S
C1182 C1187 1.425 . S
C1182 C1189 1.409 . S
C1183 H1175 0.930 . S
C1183 C1181 1.419 . S
C1183 C1184 1.362 . S
C1184 H1176 0.930 . S
C1184 C1183 1.362 . S
C1184 C1187 1.409 . S
C1185 H1177 0.930 . S
C1185 C1186 1.355 . S
C1185 C1187 1.415 . S
C1186 C1185 1.355 . S
C1186 C1188 1.419 . S
C1187 C1182 1.425 . S
C1187 C1184 1.409 . S
C1187 C1185 1.415 . S
C1188 H1178 0.930 . S
C1188 C1186 1.419 . S
C1188 C1189 1.362 . S
C1189 H1179 0.930 . S
C1189 C1182 1.409 . S
C1189 C1188 1.362 . S
H1190 C1196 0.930 . S
H1191 C1199 0.930 . S
H1192 C1200 0.930 . S
H1193 C1201 0.930 . S
H1194 C1204 0.930 . S
H1195 C1205 0.930 . S
C1196 H1190 0.930 . S
C1196 C1197 1.355 . S
C1196 C1198 1.415 . S
C1197 C1196 1.355 . S
C1197 C1199 1.419 . S
C1198 C1196 1.415 . S
C1198 C1203 1.425 . S
C1198 C1205 1.409 . S
C1199 H1191 0.930 . S
C1199 C1197 1.419 . S
C1199 C1200 1.362 . S
C1200 H1192 0.930 . S
C1200 C1199 1.362 . S
C1200 C1203 1.409 . S
C1201 H1193 0.930 . S
C1201 C1202 1.355 . S
C1201 C1203 1.415 . S
C1202 C1201 1.355 . S
C1202 C1204 1.419 . S
C1203 C1198 1.425 . S
C1203 C1200 1.409 . S
C1203 C1201 1.415 . S
C1204 H1194 0.930 . S
C1204 C1202 1.419 . S
C1204 C1205 1.362 . S
C1205 H1195 0.930 . S
C1205 C1198 1.409 . S
C1205 C1204 1.362 . S
H1206 C1212 0.930 . S
H1207 C1215 0.930 . S
H1208 C1216 0.930 . S
H1209 C1217 0.930 . S
H1210 C1220 0.930 . S
H1211 C1221 0.930 . S
C1212 H1206 0.930 . S
C1212 C1213 1.355 . S
C1212 C1214 1.415 . S
C1213 C1212 1.355 . S
C1213 C1215 1.419 . S
C1214 C1212 1.415 . S
C1214 C1219 1.425 . S
C1214 C1221 1.409 . S
C1215 H1207 0.930 . S
C1215 C1213 1.419 . S
C1215 C1216 1.362 . S
C1216 H1208 0.930 . S
C1216 C1215 1.362 . S
C1216 C1219 1.409 . S
C1217 H1209 0.930 . S
C1217 C1218 1.355 . S
C1217 C1219 1.415 . S
C1218 C1217 1.355 . S
C1218 C1220 1.419 . S
C1219 C1214 1.425 . S
C1219 C1216 1.409 . S
C1219 C1217 1.415 . S
C1220 H1210 0.930 . S
C1220 C1218 1.419 . S
C1220 C1221 1.362 . S
C1221 H1211 0.930 . S
C1221 C1214 1.409 . S
C1221 C1220 1.362 . S
H1222 C1228 0.930 . S
H1223 C1231 0.930 . S
H1224 C1232 0.930 . S
H1225 C1233 0.930 . S
H1226 C1236 0.930 . S
H1227 C1237 0.930 . S
C1228 H1222 0.930 . S
C1228 C1229 1.355 . S
C1228 C1230 1.415 . S
C1229 C1228 1.355 . S
C1229 C1231 1.419 . S
C1230 C1228 1.415 . S
C1230 C1235 1.425 . S
C1230 C1237 1.409 . S
C1231 H1223 0.930 . S
C1231 C1229 1.419 . S
C1231 C1232 1.362 . S
C1232 H1224 0.930 . S
C1232 C1231 1.362 . S
C1232 C1235 1.409 . S
C1233 H1225 0.930 . S
C1233 C1234 1.355 . S
C1233 C1235 1.415 . S
C1234 C1233 1.355 . S
C1234 C1236 1.419 . S
C1235 C1230 1.425 . S
C1235 C1232 1.409 . S
C1235 C1233 1.415 . S
C1236 H1226 0.930 . S
C1236 C1234 1.419 . S
C1236 C1237 1.362 . S
C1237 H1227 0.930 . S
C1237 C1230 1.409 . S
C1237 C1236 1.362 . S
H1238 C1244 0.930 . S
H1239 C1247 0.930 . S
H1240 C1248 0.930 . S
H1241 C1249 0.930 . S
H1242 C1252 0.930 . S
H1243 C1253 0.930 . S
C1244 H1238 0.930 . S
C1244 C1245 1.355 . S
C1244 C1246 1.415 . S
C1245 C1244 1.355 . S
C1245 C1247 1.419 . S
C1246 C1244 1.415 . S
C1246 C1251 1.425 . S
C1246 C1253 1.409 . S
C1247 H1239 0.930 . S
C1247 C1245 1.419 . S
C1247 C1248 1.362 . S
C1248 H1240 0.930 . S
C1248 C1247 1.362 . S
C1248 C1251 1.409 . S
C1249 H1241 0.930 . S
C1249 C1250 1.355 . S
C1249 C1251 1.415 . S
C1250 C1249 1.355 . S
C1250 C1252 1.419 . S
C1251 C1246 1.425 . S
C1251 C1248 1.409 . S
C1251 C1249 1.415 . S
C1252 H1242 0.930 . S
C1252 C1250 1.419 . S
C1252 C1253 1.362 . S
C1253 H1243 0.930 . S
C1253 C1246 1.409 . S
C1253 C1252 1.362 . S
H1254 C1260 0.930 . S
H1255 C1263 0.930 . S
H1256 C1264 0.930 . S
H1257 C1265 0.930 . S
H1258 C1268 0.930 . S
H1259 C1269 0.930 . S
C1260 H1254 0.930 . S
C1260 C1261 1.355 . S
C1260 C1262 1.415 . S
C1261 C1260 1.355 . S
C1261 C1263 1.419 . S
C1262 C1260 1.415 . S
C1262 C1267 1.425 . S
C1262 C1269 1.409 . S
C1263 H1255 0.930 . S
C1263 C1261 1.419 . S
C1263 C1264 1.362 . S
C1264 H1256 0.930 . S
C1264 C1263 1.362 . S
C1264 C1267 1.409 . S
C1265 H1257 0.930 . S
C1265 C1266 1.355 . S
C1265 C1267 1.415 . S
C1266 C1265 1.355 . S
C1266 C1268 1.419 . S
C1267 C1262 1.425 . S
C1267 C1264 1.409 . S
C1267 C1265 1.415 . S
C1268 H1258 0.930 . S
C1268 C1266 1.419 . S
C1268 C1269 1.362 . S
C1269 H1259 0.930 . S
C1269 C1262 1.409 . S
C1269 C1268 1.362 . S
H1270 C1276 0.930 . S
H1271 C1279 0.930 . S
H1272 C1280 0.930 . S
H1273 C1281 0.930 . S
H1274 C1284 0.930 . S
H1275 C1285 0.930 . S
C1276 H1270 0.930 . S
C1276 C1277 1.355 . S
C1276 C1278 1.415 . S
C1277 C1276 1.355 . S
C1277 C1279 1.419 . S
C1278 C1276 1.415 . S
C1278 C1283 1.425 . S
C1278 C1285 1.409 . S
C1279 H1271 0.930 . S
C1279 C1277 1.419 . S
C1279 C1280 1.362 . S
C1280 H1272 0.930 . S
C1280 C1279 1.362 . S
C1280 C1283 1.409 . S
C1281 H1273 0.930 . S
C1281 C1282 1.355 . S
C1281 C1283 1.415 . S
C1282 C1281 1.355 . S
C1282 C1284 1.419 . S
C1283 C1278 1.425 . S
C1283 C1280 1.409 . S
C1283 C1281 1.415 . S
C1284 H1274 0.930 . S
C1284 C1282 1.419 . S
C1284 C1285 1.362 . S
C1285 H1275 0.930 . S
C1285 C1278 1.409 . S
C1285 C1284 1.362 . S
H1286 C1292 0.930 . S
H1287 C1295 0.930 . S
H1288 C1296 0.930 1_554 S
H1289 C1297 0.930 . S
H1290 C1300 0.930 . S
H1291 C1301 0.930 . S
C1292 H1286 0.930 . S
C1292 C1293 1.355 . S
C1292 C1294 1.415 . S
C1293 C1292 1.355 . S
C1293 C1295 1.419 1_556 S
C1294 C1292 1.415 . S
C1294 C1299 1.425 . S
C1294 C1301 1.409 . S
C1295 H1287 0.930 . S
C1295 C1293 1.419 1_554 S
C1295 C1296 1.362 1_554 S
C1296 H1288 0.930 1_556 S
C1296 C1295 1.362 1_556 S
C1296 C1299 1.409 . S
C1297 H1289 0.930 . S
C1297 C1298 1.355 . S
C1297 C1299 1.415 . S
C1298 C1297 1.355 . S
C1298 C1300 1.419 . S
C1299 C1294 1.425 . S
C1299 C1296 1.409 . S
C1299 C1297 1.415 . S
C1300 H1290 0.930 . S
C1300 C1298 1.419 . S
C1300 C1301 1.362 . S
C1301 H1291 0.930 . S
C1301 C1294 1.409 . S
C1301 C1300 1.362 . S
H1302 C1308 0.930 . S
H1303 C1311 0.930 . S
H1304 C1312 0.930 . S
H1305 C1313 0.930 . S
H1306 C1316 0.930 . S
H1307 C1317 0.930 . S
C1308 H1302 0.930 . S
C1308 C1309 1.355 . S
C1308 C1310 1.415 . S
C1309 C1308 1.355 . S
C1309 C1311 1.419 . S
C1310 C1308 1.415 . S
C1310 C1315 1.425 . S
C1310 C1317 1.409 . S
C1311 H1303 0.930 . S
C1311 C1309 1.419 . S
C1311 C1312 1.362 . S
C1312 H1304 0.930 . S
C1312 C1311 1.362 . S
C1312 C1315 1.409 . S
C1313 H1305 0.930 . S
C1313 C1314 1.355 . S
C1313 C1315 1.415 . S
C1314 C1313 1.355 . S
C1314 C1316 1.419 . S
C1315 C1310 1.425 . S
C1315 C1312 1.409 . S
C1315 C1313 1.415 . S
C1316 H1306 0.930 . S
C1316 C1314 1.419 . S
C1316 C1317 1.362 . S
C1317 H1307 0.930 . S
C1317 C1310 1.409 . S
C1317 C1316 1.362 . S
H1318 C1324 0.930 . S
H1319 C1327 0.930 . S
H1320 C1328 0.930 . S
H1321 C1329 0.930 . S
H1322 C1332 0.930 . S
H1323 C1333 0.930 . S
C1324 H1318 0.930 . S
C1324 C1325 1.355 . S
C1324 C1326 1.415 . S
C1325 C1324 1.355 . S
C1325 C1327 1.419 . S
C1326 C1324 1.415 . S
C1326 C1331 1.425 . S
C1326 C1333 1.409 . S
C1327 H1319 0.930 . S
C1327 C1325 1.419 . S
C1327 C1328 1.362 . S
C1328 H1320 0.930 . S
C1328 C1327 1.362 . S
C1328 C1331 1.409 . S
C1329 H1321 0.930 . S
C1329 C1330 1.355 . S
C1329 C1331 1.415 . S
C1330 C1329 1.355 . S
C1330 C1332 1.419 . S
C1331 C1326 1.425 . S
C1331 C1328 1.409 . S
C1331 C1329 1.415 . S
C1332 H1322 0.930 . S
C1332 C1330 1.419 . S
C1332 C1333 1.362 . S
C1333 H1323 0.930 . S
C1333 C1326 1.409 . S
C1333 C1332 1.362 . S
H1334 C1340 0.930 . S
H1335 C1343 0.930 . S
H1336 C1344 0.930 . S
H1337 C1345 0.930 . S
H1338 C1348 0.930 . S
H1339 C1349 0.930 . S
C1340 H1334 0.930 . S
C1340 C1341 1.355 . S
C1340 C1342 1.415 . S
C1341 C1340 1.355 . S
C1341 C1343 1.419 . S
C1342 C1340 1.415 . S
C1342 C1347 1.425 . S
C1342 C1349 1.409 . S
C1343 H1335 0.930 . S
C1343 C1341 1.419 . S
C1343 C1344 1.362 . S
C1344 H1336 0.930 . S
C1344 C1343 1.362 . S
C1344 C1347 1.409 . S
C1345 H1337 0.930 . S
C1345 C1346 1.355 . S
C1345 C1347 1.415 . S
C1346 C1345 1.355 . S
C1346 C1348 1.419 . S
C1347 C1342 1.425 . S
C1347 C1344 1.409 . S
C1347 C1345 1.415 . S
C1348 H1338 0.930 . S
C1348 C1346 1.419 . S
C1348 C1349 1.362 . S
C1349 H1339 0.930 . S
C1349 C1342 1.409 . S
C1349 C1348 1.362 . S
H1350 C1356 0.930 . S
H1351 C1359 0.930 . S
H1352 C1360 0.930 . S
H1353 C1361 0.930 . S
H1354 C1364 0.930 . S
H1355 C1365 0.930 . S
C1356 H1350 0.930 . S
C1356 C1357 1.355 . S
C1356 C1358 1.415 . S
C1357 C1356 1.355 . S
C1357 C1359 1.419 . S
C1358 C1356 1.415 . S
C1358 C1363 1.425 . S
C1358 C1365 1.409 . S
C1359 H1351 0.930 . S
C1359 C1357 1.419 . S
C1359 C1360 1.362 . S
C1360 H1352 0.930 . S
C1360 C1359 1.362 . S
C1360 C1363 1.409 . S
C1361 H1353 0.930 . S
C1361 C1362 1.355 . S
C1361 C1363 1.415 . S
C1362 C1361 1.355 . S
C1362 C1364 1.419 . S
C1363 C1358 1.425 . S
C1363 C1360 1.409 . S
C1363 C1361 1.415 . S
C1364 H1354 0.930 . S
C1364 C1362 1.419 . S
C1364 C1365 1.362 . S
C1365 H1355 0.930 . S
C1365 C1358 1.409 . S
C1365 C1364 1.362 . S
H1366 C1372 0.930 . S
H1367 C1375 0.930 . S
H1368 C1376 0.930 . S
H1369 C1377 0.930 . S
H1370 C1380 0.930 . S
H1371 C1381 0.930 . S
C1372 H1366 0.930 . S
C1372 C1373 1.355 . S
C1372 C1374 1.415 . S
C1373 C1372 1.355 . S
C1373 C1375 1.419 . S
C1374 C1372 1.415 . S
C1374 C1379 1.425 . S
C1374 C1381 1.409 . S
C1375 H1367 0.930 . S
C1375 C1373 1.419 . S
C1375 C1376 1.362 . S
C1376 H1368 0.930 . S
C1376 C1375 1.362 . S
C1376 C1379 1.409 . S
C1377 H1369 0.930 . S
C1377 C1378 1.355 . S
C1377 C1379 1.415 . S
C1378 C1377 1.355 . S
C1378 C1380 1.419 . S
C1379 C1374 1.425 . S
C1379 C1376 1.409 . S
C1379 C1377 1.415 . S
C1380 H1370 0.930 . S
C1380 C1378 1.419 . S
C1380 C1381 1.362 . S
C1381 H1371 0.930 . S
C1381 C1374 1.409 . S
C1381 C1380 1.362 . S
H1382 C1388 0.930 . S
H1383 C1391 0.930 . S
H1384 C1392 0.930 . S
H1385 C1393 0.930 . S
H1386 C1396 0.930 . S
H1387 C1397 0.930 . S
C1388 H1382 0.930 . S
C1388 C1389 1.355 . S
C1388 C1390 1.415 . S
C1389 C1388 1.355 . S
C1389 C1391 1.419 . S
C1390 C1388 1.415 . S
C1390 C1395 1.425 . S
C1390 C1397 1.409 . S
C1391 H1383 0.930 . S
C1391 C1389 1.419 . S
C1391 C1392 1.362 . S
C1392 H1384 0.930 . S
C1392 C1391 1.362 . S
C1392 C1395 1.409 . S
C1393 H1385 0.930 . S
C1393 C1394 1.355 . S
C1393 C1395 1.415 . S
C1394 C1393 1.355 . S
C1394 C1396 1.419 . S
C1395 C1390 1.425 . S
C1395 C1392 1.409 . S
C1395 C1393 1.415 . S
C1396 H1386 0.930 . S
C1396 C1394 1.419 . S
C1396 C1397 1.362 . S
C1397 H1387 0.930 . S
C1397 C1390 1.409 . S
C1397 C1396 1.362 . S
H1398 C1404 0.930 . S
H1399 C1407 0.930 . S
H1400 C1408 0.930 . S
H1401 C1409 0.930 . S
H1402 C1412 0.930 . S
H1403 C1413 0.930 . S
C1404 H1398 0.930 . S
C1404 C1405 1.355 . S
C1404 C1406 1.415 . S
C1405 C1404 1.355 . S
C1405 C1407 1.419 . S
C1406 C1404 1.415 . S
C1406 C1411 1.425 . S
C1406 C1413 1.409 . S
C1407 H1399 0.930 . S
C1407 C1405 1.419 . S
C1407 C1408 1.362 . S
C1408 H1400 0.930 . S
C1408 C1407 1.362 . S
C1408 C1411 1.409 . S
C1409 H1401 0.930 . S
C1409 C1410 1.355 . S
C1409 C1411 1.415 . S
C1410 C1409 1.355 . S
C1410 C1412 1.419 . S
C1411 C1406 1.425 . S
C1411 C1408 1.409 . S
C1411 C1409 1.415 . S
C1412 H1402 0.930 . S
C1412 C1410 1.419 . S
C1412 C1413 1.362 . S
C1413 H1403 0.930 . S
C1413 C1406 1.409 . S
C1413 C1412 1.362 . S
H1414 C1420 0.930 . S
H1415 C1423 0.930 . S
H1416 C1424 0.930 . S
H1417 C1425 0.930 . S
H1418 C1428 0.930 . S
H1419 C1429 0.930 . S
C1420 H1414 0.930 . S
C1420 C1421 1.355 . S
C1420 C1422 1.415 . S
C1421 C1420 1.355 . S
C1421 C1423 1.419 . S
C1422 C1420 1.415 . S
C1422 C1427 1.425 . S
C1422 C1429 1.409 . S
C1423 H1415 0.930 . S
C1423 C1421 1.419 . S
C1423 C1424 1.362 . S
C1424 H1416 0.930 . S
C1424 C1423 1.362 . S
C1424 C1427 1.409 . S
C1425 H1417 0.930 . S
C1425 C1426 1.355 . S
C1425 C1427 1.415 . S
C1426 C1425 1.355 . S
C1426 C1428 1.419 . S
C1427 C1422 1.425 . S
C1427 C1424 1.409 . S
C1427 C1425 1.415 . S
C1428 H1418 0.930 . S
C1428 C1426 1.419 . S
C1428 C1429 1.362 . S
C1429 H1419 0.930 . S
C1429 C1422 1.409 . S
C1429 C1428 1.362 . S
H1430 C1436 0.930 . S
H1431 C1439 0.930 . S
H1432 C1440 0.930 . S
H1433 C1441 0.930 . S
H1434 C1444 0.930 . S
H1435 C1445 0.930 . S
C1436 H1430 0.930 . S
C1436 C1437 1.355 . S
C1436 C1438 1.415 . S
C1437 C1436 1.355 . S
C1437 C1439 1.419 . S
C1438 C1436 1.415 . S
C1438 C1443 1.425 . S
C1438 C1445 1.409 . S
C1439 H1431 0.930 . S
C1439 C1437 1.419 . S
C1439 C1440 1.362 . S
C1440 H1432 0.930 . S
C1440 C1439 1.362 . S
C1440 C1443 1.409 . S
C1441 H1433 0.930 . S
C1441 C1442 1.355 . S
C1441 C1443 1.415 . S
C1442 C1441 1.355 . S
C1442 C1444 1.419 . S
C1443 C1438 1.425 . S
C1443 C1440 1.409 . S
C1443 C1441 1.415 . S
C1444 H1434 0.930 . S
C1444 C1442 1.419 . S
C1444 C1445 1.362 . S
C1445 H1435 0.930 . S
C1445 C1438 1.409 . S
C1445 C1444 1.362 . S
H1446 C1452 0.930 . S
H1447 C1455 0.930 . S
H1448 C1456 0.930 . S
H1449 C1457 0.930 . S
H1450 C1460 0.930 . S
H1451 C1461 0.930 . S
C1452 H1446 0.930 . S
C1452 C1453 1.355 . S
C1452 C1454 1.415 . S
C1453 C1452 1.355 . S
C1453 C1455 1.419 1_455 S
C1454 C1452 1.415 . S
C1454 C1459 1.425 1_455 S
C1454 C1461 1.409 . S
C1455 H1447 0.930 . S
C1455 C1453 1.419 1_655 S
C1455 C1456 1.362 . S
C1456 H1448 0.930 . S
C1456 C1455 1.362 . S
C1456 C1459 1.409 . S
C1457 H1449 0.930 . S
C1457 C1458 1.355 1_655 S
C1457 C1459 1.415 . S
C1458 C1457 1.355 1_455 S
C1458 C1460 1.419 . S
C1459 C1454 1.425 1_655 S
C1459 C1456 1.409 . S
C1459 C1457 1.415 . S
C1460 H1450 0.930 . S
C1460 C1458 1.419 . S
C1460 C1461 1.362 . S
C1461 H1451 0.930 . S
C1461 C1454 1.409 . S
C1461 C1460 1.362 . S
H1462 C1468 0.930 . S
H1463 C1471 0.930 . S
H1464 C1472 0.930 . S
H1465 C1473 0.930 . S
H1466 C1476 0.930 . S
H1467 C1477 0.930 . S
C1468 H1462 0.930 . S
C1468 C1469 1.355 . S
C1468 C1470 1.415 . S
C1469 C1468 1.355 . S
C1469 C1471 1.419 . S
C1470 C1468 1.415 . S
C1470 C1475 1.425 . S
C1470 C1477 1.409 . S
C1471 H1463 0.930 . S
C1471 C1469 1.419 . S
C1471 C1472 1.362 . S
C1472 H1464 0.930 . S
C1472 C1471 1.362 . S
C1472 C1475 1.409 . S
C1473 H1465 0.930 . S
C1473 C1474 1.355 . S
C1473 C1475 1.415 . S
C1474 C1473 1.355 . S
C1474 C1476 1.419 . S
C1475 C1470 1.425 . S
C1475 C1472 1.409 . S
C1475 C1473 1.415 . S
C1476 H1466 0.930 . S
C1476 C1474 1.419 . S
C1476 C1477 1.362 . S
C1477 H1467 0.930 . S
C1477 C1470 1.409 . S
C1477 C1476 1.362 . S
H1478 C1484 0.930 . S
H1479 C1487 0.930 . S
H1480 C1488 0.930 . S
H1481 C1489 0.930 . S
H1482 C1492 0.930 . S
H1483 C1493 0.930 . S
C1484 H1478 0.930 . S
C1484 C1485 1.355 1_545 S
C1484 C1486 1.415 . S
C1485 C1484 1.355 1_565 S
C1485 C1487 1.419 . S
C1486 C1484 1.415 . S
C1486 C1491 1.425 1_545 S
C1486 C1493 1.409 . S
C1487 H1479 0.930 . S
C1487 C1485 1.419 . S
C1487 C1488 1.362 . S
C1488 H1480 0.930 . S
C1488 C1487 1.362 . S
C1488 C1491 1.409 . S
C1489 H1481 0.930 . S
C1489 C1490 1.355 . S
C1489 C1491 1.415 . S
C1490 C1489 1.355 . S
C1490 C1492 1.419 1_565 S
C1491 C1486 1.425 1_565 S
C1491 C1488 1.409 . S
C1491 C1489 1.415 . S
C1492 H1482 0.930 . S
C1492 C1490 1.419 1_545 S
C1492 C1493 1.362 . S
C1493 H1483 0.930 . S
C1493 C1486 1.409 . S
C1493 C1492 1.362 . S
H1494 C1500 0.930 . S
H1495 C1503 0.930 . S
H1496 C1504 0.930 . S
H1497 C1505 0.930 . S
H1498 C1508 0.930 . S
H1499 C1509 0.930 . S
C1500 H1494 0.930 . S
C1500 C1501 1.355 . S
C1500 C1502 1.415 . S
C1501 C1500 1.355 . S
C1501 C1503 1.419 1_565 S
C1502 C1500 1.415 . S
C1502 C1507 1.413 1_565 S
C1502 C1509 1.409 . S
C1503 H1495 0.930 . S
C1503 C1501 1.419 1_545 S
C1503 C1504 1.362 . S
C1504 H1496 0.930 . S
C1504 C1503 1.362 . S
C1504 C1507 1.403 . S
C1505 H1497 0.930 . S
C1505 C1506 1.355 1_545 S
C1505 C1507 1.433 . S
C1506 C1505 1.355 1_565 S
C1506 C1508 1.419 . S
C1507 C1502 1.413 1_545 S
C1507 C1504 1.403 . S
C1507 C1505 1.433 . S
C1508 H1498 0.930 . S
C1508 C1506 1.419 . S
C1508 C1509 1.362 . S
C1509 H1499 0.930 . S
C1509 C1502 1.409 . S
C1509 C1508 1.362 . S
H1510 C1516 0.930 . S
H1511 C1519 0.930 . S
H1512 C1520 0.930 . S
H1513 C1521 0.930 . S
H1514 C1524 0.930 . S
H1515 C1525 0.930 . S
C1516 H1510 0.930 . S
C1516 C1517 1.355 1_655 S
C1516 C1518 1.415 . S
C1517 C1516 1.355 1_455 S
C1517 C1519 1.419 . S
C1518 C1516 1.415 . S
C1518 C1523 1.425 1_655 S
C1518 C1525 1.409 . S
C1519 H1511 0.930 . S
C1519 C1517 1.419 . S
C1519 C1520 1.362 . S
C1520 H1512 0.930 . S
C1520 C1519 1.362 . S
C1520 C1523 1.409 . S
C1521 H1513 0.930 . S
C1521 C1522 1.355 1_455 S
C1521 C1523 1.415 . S
C1522 C1521 1.355 1_655 S
C1522 C1524 1.428 . S
C1523 C1518 1.425 1_455 S
C1523 C1520 1.409 . S
C1523 C1521 1.415 . S
C1524 H1514 0.930 . S
C1524 C1522 1.428 . S
C1524 C1525 1.362 . S
C1525 H1515 0.930 . S
C1525 C1518 1.409 . S
C1525 C1524 1.362 . S
H1526 C1532 0.930 . S
H1527 C1535 0.930 . S
H1528 C1536 0.930 . S
H1529 C1537 0.930 . S
H1530 C1540 0.930 . S
H1531 C1541 0.930 . S
C1532 H1526 0.930 . S
C1532 C1533 1.355 . S
C1532 C1534 1.415 . S
C1533 C1532 1.355 . S
C1533 C1535 1.419 . S
C1534 C1532 1.415 . S
C1534 C1539 1.425 . S
C1534 C1541 1.409 . S
C1535 H1527 0.930 . S
C1535 C1533 1.419 . S
C1535 C1536 1.362 . S
C1536 H1528 0.930 . S
C1536 C1535 1.362 . S
C1536 C1539 1.409 . S
C1537 H1529 0.930 . S
C1537 C1538 1.355 . S
C1537 C1539 1.415 . S
C1538 C1537 1.355 . S
C1538 C1540 1.419 . S
C1539 C1534 1.425 . S
C1539 C1536 1.409 . S
C1539 C1537 1.415 . S
C1540 H1530 0.930 . S
C1540 C1538 1.419 . S
C1540 C1541 1.362 . S
C1541 H1531 0.930 . S
C1541 C1534 1.409 . S
C1541 C1540 1.362 . S
H1542 C1548 0.930 . S
H1543 C1551 0.930 . S
H1544 C1552 0.930 . S
H1545 C1553 0.930 . S
H1546 C1556 0.930 . S
H1547 C1557 0.930 . S
C1548 H1542 0.930 . S
C1548 C1549 1.355 . S
C1548 C1550 1.415 . S
C1549 C1548 1.355 . S
C1549 C1551 1.419 . S
C1550 C1548 1.415 . S
C1550 C1555 1.425 . S
C1550 C1557 1.409 . S
C1551 H1543 0.930 . S
C1551 C1549 1.419 . S
C1551 C1552 1.362 . S
C1552 H1544 0.930 . S
C1552 C1551 1.362 . S
C1552 C1555 1.409 . S
C1553 H1545 0.930 . S
C1553 C1554 1.355 . S
C1553 C1555 1.415 . S
C1554 C1553 1.355 . S
C1554 C1556 1.419 . S
C1555 C1550 1.425 . S
C1555 C1552 1.409 . S
C1555 C1553 1.415 . S
C1556 H1546 0.930 . S
C1556 C1554 1.419 . S
C1556 C1557 1.362 . S
C1557 H1547 0.930 . S
C1557 C1550 1.409 . S
C1557 C1556 1.362 . S
H1558 C1564 0.930 . S
H1559 C1567 0.930 . S
H1560 C1568 0.930 . S
H1561 C1569 0.930 . S
H1562 C1572 0.930 . S
H1563 C1573 0.930 . S
C1564 H1558 0.930 . S
C1564 C1565 1.355 . S
C1564 C1566 1.415 . S
C1565 C1564 1.355 . S
C1565 C1567 1.419 . S
C1566 C1564 1.415 . S
C1566 C1571 1.425 . S
C1566 C1573 1.409 . S
C1567 H1559 0.930 . S
C1567 C1565 1.419 . S
C1567 C1568 1.362 . S
C1568 H1560 0.930 . S
C1568 C1567 1.362 . S
C1568 C1571 1.409 . S
C1569 H1561 0.930 . S
C1569 C1570 1.355 . S
C1569 C1571 1.415 . S
C1570 C1569 1.355 . S
C1570 C1572 1.419 . S
C1571 C1566 1.425 . S
C1571 C1568 1.409 . S
C1571 C1569 1.415 . S
C1572 H1562 0.930 . S
C1572 C1570 1.419 . S
C1572 C1573 1.362 . S
C1573 H1563 0.930 . S
C1573 C1566 1.409 . S
C1573 C1572 1.362 . S
H1574 C1580 0.930 . S
H1575 C1583 0.930 . S
H1576 C1584 0.930 . S
H1577 C1585 0.930 . S
H1578 C1588 0.930 . S
H1579 C1589 0.930 . S
C1580 H1574 0.930 . S
C1580 C1581 1.355 . S
C1580 C1582 1.415 . S
C1581 C1580 1.355 . S
C1581 C1583 1.419 . S
C1582 C1580 1.415 . S
C1582 C1587 1.425 . S
C1582 C1589 1.409 . S
C1583 H1575 0.930 . S
C1583 C1581 1.419 . S
C1583 C1584 1.362 . S
C1584 H1576 0.930 . S
C1584 C1583 1.362 . S
C1584 C1587 1.409 . S
C1585 H1577 0.930 . S
C1585 C1586 1.355 . S
C1585 C1587 1.415 . S
C1586 C1585 1.355 . S
C1586 C1588 1.419 . S
C1587 C1582 1.425 . S
C1587 C1584 1.409 . S
C1587 C1585 1.415 . S
C1588 H1578 0.930 . S
C1588 C1586 1.419 . S
C1588 C1589 1.362 . S
C1589 H1579 0.930 . S
C1589 C1582 1.409 . S
C1589 C1588 1.362 . S
H1590 C1596 0.930 . S
H1591 C1599 0.930 . S
H1592 C1600 0.930 . S
H1593 C1601 0.930 . S
H1594 C1604 0.930 . S
H1595 C1605 0.930 . S
C1596 H1590 0.930 . S
C1596 C1597 1.355 . S
C1596 C1598 1.415 . S
C1597 C1596 1.355 . S
C1597 C1599 1.419 1_545 S
C1598 C1596 1.415 . S
C1598 C1603 1.425 1_545 S
C1598 C1605 1.409 . S
C1599 H1591 0.930 . S
C1599 C1597 1.419 1_565 S
C1599 C1600 1.362 . S
C1600 H1592 0.930 . S
C1600 C1599 1.362 . S
C1600 C1603 1.409 . S
C1601 H1593 0.930 . S
C1601 C1602 1.355 1_565 S
C1601 C1603 1.415 . S
C1602 C1601 1.355 1_545 S
C1602 C1604 1.419 . S
C1603 C1598 1.425 1_565 S
C1603 C1600 1.409 . S
C1603 C1601 1.415 . S
C1604 H1594 0.930 . S
C1604 C1602 1.419 . S
C1604 C1605 1.362 . S
C1605 H1595 0.930 . S
C1605 C1598 1.409 . S
C1605 C1604 1.362 . S
H1606 C1612 0.930 . S
H1607 C1615 0.930 . S
H1608 C1616 0.930 . S
H1609 C1617 0.930 . S
H1610 C1620 0.930 . S
H1611 C1621 0.930 . S
C1612 H1606 0.930 . S
C1612 C1613 1.355 . S
C1612 C1614 1.415 . S
C1613 C1612 1.355 . S
C1613 C1615 1.419 1_655 S
C1614 C1612 1.415 . S
C1614 C1619 1.425 1_655 S
C1614 C1621 1.409 . S
C1615 H1607 0.930 . S
C1615 C1613 1.419 1_455 S
C1615 C1616 1.362 . S
C1616 H1608 0.930 . S
C1616 C1615 1.362 . S
C1616 C1619 1.409 . S
C1617 H1609 0.930 . S
C1617 C1618 1.355 1_455 S
C1617 C1619 1.415 . S
C1618 C1617 1.355 1_655 S
C1618 C1620 1.419 . S
C1619 C1614 1.425 1_455 S
C1619 C1616 1.409 . S
C1619 C1617 1.415 . S
C1620 H1610 0.930 . S
C1620 C1618 1.419 . S
C1620 C1621 1.362 . S
C1621 H1611 0.930 . S
C1621 C1614 1.409 . S
C1621 C1620 1.362 . S
H1622 C1628 0.930 . S
H1623 C1631 0.930 . S
H1624 C1632 0.930 . S
H1625 C1633 0.930 . S
H1626 C1636 0.930 . S
H1627 C1637 0.930 . S
C1628 H1622 0.930 . S
C1628 C1629 1.355 . S
C1628 C1630 1.415 . S
C1629 C1628 1.355 . S
C1629 C1631 1.419 . S
C1630 C1628 1.415 . S
C1630 C1635 1.425 . S
C1630 C1637 1.409 . S
C1631 H1623 0.930 . S
C1631 C1629 1.419 . S
C1631 C1632 1.362 . S
C1632 H1624 0.930 . S
C1632 C1631 1.362 . S
C1632 C1635 1.409 . S
C1633 H1625 0.930 . S
C1633 C1634 1.355 . S
C1633 C1635 1.415 . S
C1634 C1633 1.355 . S
C1634 C1636 1.419 . S
C1635 C1630 1.425 . S
C1635 C1632 1.409 . S
C1635 C1633 1.415 . S
C1636 H1626 0.930 . S
C1636 C1634 1.419 . S
C1636 C1637 1.362 . S
C1637 H1627 0.930 . S
C1637 C1630 1.409 . S
C1637 C1636 1.362 . S
H1638 C1644 0.930 . S
H1639 C1647 0.930 . S
H1640 C1648 0.930 . S
H1641 C1649 0.930 . S
H1642 C1652 0.930 . S
H1643 C1653 0.930 . S
C1644 H1638 0.930 . S
C1644 C1645 1.355 . S
C1644 C1646 1.415 . S
C1645 C1644 1.355 . S
C1645 C1647 1.419 . S
C1646 C1644 1.415 . S
C1646 C1651 1.425 . S
C1646 C1653 1.409 . S
C1647 H1639 0.930 . S
C1647 C1645 1.419 . S
C1647 C1648 1.362 . S
C1648 H1640 0.930 . S
C1648 C1647 1.362 . S
C1648 C1651 1.409 . S
C1649 H1641 0.930 . S
C1649 C1650 1.355 . S
C1649 C1651 1.415 . S
C1650 C1649 1.355 . S
C1650 C1652 1.419 . S
C1651 C1646 1.425 . S
C1651 C1648 1.409 . S
C1651 C1649 1.415 . S
C1652 H1642 0.930 . S
C1652 C1650 1.419 . S
C1652 C1653 1.362 . S
C1653 H1643 0.930 . S
C1653 C1646 1.409 . S
C1653 C1652 1.362 . S
H1654 C1660 0.930 . S
H1655 C1663 0.930 . S
H1656 C1664 0.930 . S
H1657 C1665 0.930 . S
H1658 C1668 0.930 . S
H1659 C1669 0.930 . S
C1660 H1654 0.930 . S
C1660 C1661 1.355 . S
C1660 C1662 1.415 . S
C1661 C1660 1.355 . S
C1661 C1663 1.419 . S
C1662 C1660 1.415 . S
C1662 C1667 1.425 . S
C1662 C1669 1.409 . S
C1663 H1655 0.930 . S
C1663 C1661 1.419 . S
C1663 C1664 1.362 . S
C1664 H1656 0.930 . S
C1664 C1663 1.362 . S
C1664 C1667 1.409 . S
C1665 H1657 0.930 . S
C1665 C1666 1.355 . S
C1665 C1667 1.415 . S
C1666 C1665 1.355 . S
C1666 C1668 1.419 . S
C1667 C1662 1.425 . S
C1667 C1664 1.409 . S
C1667 C1665 1.415 . S
C1668 H1658 0.930 . S
C1668 C1666 1.419 . S
C1668 C1669 1.362 . S
C1669 H1659 0.930 . S
C1669 C1662 1.409 . S
C1669 C1668 1.362 . S
H1670 C1676 0.930 . S
H1671 C1679 0.930 . S
H1672 C1680 0.930 . S
H1673 C1681 0.930 . S
H1674 C1684 0.930 . S
H1675 C1685 0.930 . S
C1676 H1670 0.930 . S
C1676 C1677 1.355 . S
C1676 C1678 1.415 . S
C1677 C1676 1.355 . S
C1677 C1679 1.419 . S
C1678 C1676 1.415 . S
C1678 C1683 1.425 . S
C1678 C1685 1.409 . S
C1679 H1671 0.930 . S
C1679 C1677 1.419 . S
C1679 C1680 1.362 . S
C1680 H1672 0.930 . S
C1680 C1679 1.362 . S
C1680 C1683 1.409 . S
C1681 H1673 0.930 . S
C1681 C1682 1.355 . S
C1681 C1683 1.415 . S
C1682 C1681 1.355 . S
C1682 C1684 1.419 . S
C1683 C1678 1.425 . S
C1683 C1680 1.409 . S
C1683 C1681 1.415 . S
C1684 H1674 0.930 . S
C1684 C1682 1.419 . S
C1684 C1685 1.362 . S
C1685 H1675 0.930 . S
C1685 C1678 1.409 . S
C1685 C1684 1.362 . S
H1686 C1692 0.930 . S
H1687 C1695 0.930 . S
H1688 C1696 0.930 . S
H1689 C1697 0.930 . S
H1690 C1700 0.930 . S
H1691 C1701 0.930 . S
C1692 H1686 0.930 . S
C1692 C1693 1.355 . S
C1692 C1694 1.415 . S
C1693 C1692 1.355 . S
C1693 C1695 1.419 . S
C1694 C1692 1.415 . S
C1694 C1699 1.425 . S
C1694 C1701 1.409 . S
C1695 H1687 0.930 . S
C1695 C1693 1.419 . S
C1695 C1696 1.362 . S
C1696 H1688 0.930 . S
C1696 C1695 1.362 . S
C1696 C1699 1.409 . S
C1697 H1689 0.930 . S
C1697 C1698 1.355 . S
C1697 C1699 1.415 . S
C1698 C1697 1.355 . S
C1698 C1700 1.419 . S
C1699 C1694 1.425 . S
C1699 C1696 1.409 . S
C1699 C1697 1.415 . S
C1700 H1690 0.930 . S
C1700 C1698 1.419 . S
C1700 C1701 1.362 . S
C1701 H1691 0.930 . S
C1701 C1694 1.409 . S
C1701 C1700 1.362 . S
H1702 C1708 0.930 . S
H1703 C1711 0.930 . S
H1704 C1712 0.930 . S
H1705 C1713 0.930 . S
H1706 C1716 0.930 . S
H1707 C1717 0.930 . S
C1708 H1702 0.930 . S
C1708 C1709 1.355 . S
C1708 C1710 1.415 . S
C1709 C1708 1.355 . S
C1709 C1711 1.419 . S
C1710 C1708 1.415 . S
C1710 C1715 1.425 . S
C1710 C1717 1.409 . S
C1711 H1703 0.930 . S
C1711 C1709 1.419 . S
C1711 C1712 1.362 . S
C1712 H1704 0.930 . S
C1712 C1711 1.362 . S
C1712 C1715 1.409 . S
C1713 H1705 0.930 . S
C1713 C1714 1.355 . S
C1713 C1715 1.415 . S
C1714 C1713 1.355 . S
C1714 C1716 1.419 . S
C1715 C1710 1.425 . S
C1715 C1712 1.409 . S
C1715 C1713 1.415 . S
C1716 H1706 0.930 . S
C1716 C1714 1.419 . S
C1716 C1717 1.362 . S
C1717 H1707 0.930 . S
C1717 C1710 1.409 . S
C1717 C1716 1.362 . S
H1718 C1724 0.930 . S
H1719 C1727 0.930 . S
H1720 C1728 0.930 . S
H1721 C1729 0.930 . S
H1722 C1732 0.930 . S
H1723 C1733 0.930 . S
C1724 H1718 0.930 . S
C1724 C1725 1.355 . S
C1724 C1726 1.415 . S
C1725 C1724 1.355 . S
C1725 C1727 1.419 . S
C1726 C1724 1.415 . S
C1726 C1731 1.425 . S
C1726 C1733 1.409 . S
C1727 H1719 0.930 . S
C1727 C1725 1.419 . S
C1727 C1728 1.362 . S
C1728 H1720 0.930 . S
C1728 C1727 1.362 . S
C1728 C1731 1.409 . S
C1729 H1721 0.930 . S
C1729 C1730 1.355 . S
C1729 C1731 1.415 . S
C1730 C1729 1.355 . S
C1730 C1732 1.419 . S
C1731 C1726 1.425 . S
C1731 C1728 1.409 . S
C1731 C1729 1.415 . S
C1732 H1722 0.930 . S
C1732 C1730 1.419 . S
C1732 C1733 1.362 . S
C1733 H1723 0.930 . S
C1733 C1726 1.409 . S
C1733 C1732 1.362 . S
H1734 C1740 0.930 . S
H1735 C1743 0.930 . S
H1736 C1744 0.930 . S
H1737 C1745 0.930 . S
H1738 C1748 0.930 . S
H1739 C1749 0.930 . S
C1740 H1734 0.930 . S
C1740 C1741 1.355 . S
C1740 C1742 1.415 . S
C1741 C1740 1.355 . S
C1741 C1743 1.419 1_655 S
C1742 C1740 1.415 . S
C1742 C1747 1.425 1_655 S
C1742 C1749 1.409 . S
C1743 H1735 0.930 . S
C1743 C1741 1.419 1_455 S
C1743 C1744 1.362 . S
C1744 H1736 0.930 . S
C1744 C1743 1.362 . S
C1744 C1747 1.409 . S
C1745 H1737 0.930 . S
C1745 C1746 1.355 1_455 S
C1745 C1747 1.415 . S
C1746 C1745 1.355 1_655 S
C1746 C1748 1.419 . S
C1747 C1742 1.425 1_455 S
C1747 C1744 1.409 . S
C1747 C1745 1.415 . S
C1748 H1738 0.930 . S
C1748 C1746 1.419 . S
C1748 C1749 1.362 . S
C1749 H1739 0.930 . S
C1749 C1742 1.409 . S
C1749 C1748 1.362 . S
H1750 C1756 0.930 . S
H1751 C1759 0.930 . S
H1752 C1760 0.930 . S
H1753 C1761 0.930 . S
H1754 C1764 0.930 . S
H1755 C1765 0.930 . S
C1756 H1750 0.930 . S
C1756 C1757 1.355 . S
C1756 C1758 1.415 . S
C1757 C1756 1.355 . S
C1757 C1759 1.419 . S
C1758 C1756 1.415 . S
C1758 C1763 1.425 . S
C1758 C1765 1.409 . S
C1759 H1751 0.930 . S
C1759 C1757 1.419 . S
C1759 C1760 1.362 . S
C1760 H1752 0.930 . S
C1760 C1759 1.362 . S
C1760 C1763 1.409 . S
C1761 H1753 0.930 . S
C1761 C1762 1.355 . S
C1761 C1763 1.415 . S
C1762 C1761 1.355 . S
C1762 C1764 1.419 . S
C1763 C1758 1.425 . S
C1763 C1760 1.409 . S
C1763 C1761 1.415 . S
C1764 H1754 0.930 . S
C1764 C1762 1.419 . S
C1764 C1765 1.362 . S
C1765 H1755 0.930 . S
C1765 C1758 1.409 . S
C1765 C1764 1.362 . S
H1766 C1772 0.930 . S
H1767 C1775 0.930 . S
H1768 C1776 0.930 . S
H1769 C1777 0.930 . S
H1770 C1780 0.930 . S
H1771 C1781 0.930 . S
C1772 H1766 0.930 . S
C1772 C1773 1.355 . S
C1772 C1774 1.415 . S
C1773 C1772 1.355 . S
C1773 C1775 1.419 1_545 S
C1774 C1772 1.415 . S
C1774 C1779 1.425 1_545 S
C1774 C1781 1.409 . S
C1775 H1767 0.930 . S
C1775 C1773 1.419 1_565 S
C1775 C1776 1.362 . S
C1776 H1768 0.930 . S
C1776 C1775 1.362 . S
C1776 C1779 1.409 . S
C1777 H1769 0.930 . S
C1777 C1778 1.355 1_565 S
C1777 C1779 1.415 . S
C1778 C1777 1.355 1_545 S
C1778 C1780 1.419 . S
C1779 C1774 1.425 1_565 S
C1779 C1776 1.409 . S
C1779 C1777 1.415 . S
C1780 H1770 0.930 . S
C1780 C1778 1.419 . S
C1780 C1781 1.362 . S
C1781 H1771 0.930 . S
C1781 C1774 1.409 . S
C1781 C1780 1.362 . S
C637 C9 1.524 . S
C642 C458 1.517 1_655 S
C653 C19 1.564 . S
C658 C471 1.550 . S
C674 C500 1.507 1_545 S
C669 C33 1.580 . S
C685 C37 1.540 1_565 S
C690 C513 1.481 . S
C701 C5 1.533 . S
C706 C534 1.500 . S
C717 C23 1.594 . S
C722 C563 1.482 . S
C733 C47 1.543 . S
C738 C542 1.474 . S
C754 C555 1.494 . S
C749 C65 1.568 . S
C770 C521 1.440 . S
C765 C75 1.508 . S
C781 C79 1.521 . S
C786 C492 1.488 1_545 S
C802 C450 1.522 1_655 S
C797 C51 1.558 . S
C813 C61 1.558 . S
C818 C479 1.510 . S
C829 C93 1.641 . S
C834 C584 1.493 . S
C845 C103 1.576 . S
C850 C597 1.540 . S
C866 C626 1.558 . S
C861 C117 1.627 . S
C877 C121 1.594 . S
C882 C261 1.581 . S
C893 C89 1.595 . S
C898 C282 1.552 . S
C909 C107 1.605 . S
C914 C311 1.553 . S
C925 C131 1.563 . S
C930 C290 1.508 . S
C941 C149 1.584 . S
C946 C303 1.523 . S
C962 C269 1.518 . S
C957 C159 1.567 . S
C978 C618 1.485 . S
C973 C163 1.565 . S
C994 C576 1.511 . S
C989 C135 1.624 . S
C1010 C605 1.515 . S
C1005 C145 1.574 . S
C1021 C177 1.607 . S
C1026 C332 1.462 . S
C1037 C187 1.562 . S
C1042 C345 1.514 . S
C1053 C201 1.627 . S
C1058 C374 1.557 . S
C1069 C205 1.632 . S
C1074 C387 1.617 . S
C1090 C408 1.594 . S
C1085 C173 1.608 . S
C1106 C437 1.543 . S
C1101 C191 1.615 . S
C1122 C416 1.598 . S
C1117 C215 1.621 . S
C1138 C429 1.508 . S
C1133 C233 1.609 . S
C1149 C243 1.552 . S
C1154 C395 1.489 . S
C1170 C366 1.453 . S
C1165 C247 1.528 . S
C1181 C219 1.626 . S
C1186 C324 1.538 . S
C1202 C353 1.566 . S
C1197 C229 1.586 . S
C1218 C264 1.345 . S
C1213 C11 1.496 . S
C1229 C14 1.453 . S
C1234 C285 1.356 . S
C1250 C313 1.470 . S
C1245 C28 1.526 . S
C1266 C334 1.461 . S
C1261 C39 1.519 . S
C1282 C348 1.421 . S
C1277 C0 1.513 . S
C1298 C376 1.289 . S
C1293 C25 1.435 . S
C1309 C42 1.568 . S
C1314 C369 1.434 . S
C1325 C67 1.502 . S
C1330 C327 1.306 . S
C1341 C70 1.473 . S
C1346 C355 1.358 . S
C1357 C81 1.484 . S
C1362 C292 1.397 . S
C1378 C306 1.419 . S
C1373 C53 1.535 . S
C1389 C56 1.503 . S
C1394 C271 1.426 . S
C1410 C390 1.434 . S
C1405 C95 1.503 . S
C1421 C98 1.532 . S
C1426 C411 1.458 . S
C1437 C112 1.567 . S
C1442 C439 1.414 . S
C1458 C460 1.341 . S
C1453 C123 1.469 . S
C1469 C84 1.487 . S
C1474 C474 1.398 . S
C1485 C109 1.409 . S
C1490 C502 1.378 . S
C1501 C126 1.505 . S
C1506 C495 1.419 . S
C1517 C151 1.446 . S
C1522 C453 1.380 1_655 S
C1538 C481 1.441 . S
C1533 C154 1.484 . S
C1549 C165 1.487 . S
C1554 C418 1.438 . S
C1565 C137 1.552 . S
C1570 C432 1.427 . S
C1586 C397 1.500 . S
C1581 C140 1.575 . S
C1602 C516 1.380 1_545 S
C1597 C179 1.473 . S
C1613 C182 1.464 . S
C1618 C537 1.385 1_655 S
C1629 C196 1.527 . S
C1634 C565 1.387 . S
C1650 C586 1.436 . S
C1645 C207 1.507 . S
C1666 C600 1.416 . S
C1661 C168 1.516 . S
C1677 C193 1.514 . S
C1682 C628 1.401 . S
C1693 C210 1.560 . S
C1698 C621 1.364 . S
C1709 C235 1.556 . S
C1714 C579 1.415 . S
C1730 C607 1.390 . S
C1725 C238 1.511 . S
C1746 C544 1.370 1_655 S
C1741 C249 1.432 . S
C1762 C558 1.385 . S
C1757 C221 1.534 . S
C1773 C224 1.491 . S
C1778 C523 1.393 1_545 S
