# Generated by pormake.
# Topology pyr, (3,6)-cn, num edge types: 1
# Building blocks:
#     Node 0, Type 0, BuildingBlock: KAKCAD_clean_linker_0, # of connection points: 3
#     Node 1, Type 0, BuildingBlock: KAKCAD_clean_linker_0, # of connection points: 3
#     Node 2, Type 0, BuildingBlock: KAKCAD_clean_linker_0, # of connection points: 3
#     Node 3, Type 0, BuildingBlock: KAKCAD_clean_linker_0, # of connection points: 3
#     Node 4, Type 0, BuildingBlock: KAKCAD_clean_linker_0, # of connection points: 3
#     Node 5, Type 0, BuildingBlock: KAKCAD_clean_linker_0, # of connection points: 3
#     Node 6, Type 0, BuildingBlock: KAKCAD_clean_linker_0, # of connection points: 3
#     Node 7, Type 0, BuildingBlock: KAKCAD_clean_linker_0, # of connection points: 3
#     Node 8, Type 1, BuildingBlock: MIDCAF_clean_sbu_0, # of connection points: 6
#     Node 9, Type 1, BuildingBlock: MIDCAF_clean_sbu_0, # of connection points: 6
#     Node 10, Type 1, BuildingBlock: MIDCAF_clean_sbu_0, # of connection points: 6
#     Node 11, Type 1, BuildingBlock: MIDCAF_clean_sbu_0, # of connection points: 6
#     Edge 12, Type (0, 1), BuildingBlock: KIFKEQ_clean_linker_1, # of connection points: 2
#     Edge 13, Type (0, 1), BuildingBlock: KIFKEQ_clean_linker_1, # of connection points: 2
#     Edge 14, Type (0, 1), BuildingBlock: KIFKEQ_clean_linker_1, # of connection points: 2
#     Edge 15, Type (0, 1), BuildingBlock: KIFKEQ_clean_linker_1, # of connection points: 2
#     Edge 16, Type (0, 1), BuildingBlock: KIFKEQ_clean_linker_1, # of connection points: 2
#     Edge 17, Type (0, 1), BuildingBlock: KIFKEQ_clean_linker_1, # of connection points: 2
#     Edge 18, Type (0, 1), BuildingBlock: KIFKEQ_clean_linker_1, # of connection points: 2
#     Edge 19, Type (0, 1), BuildingBlock: KIFKEQ_clean_linker_1, # of connection points: 2
#     Edge 20, Type (0, 1), BuildingBlock: KIFKEQ_clean_linker_1, # of connection points: 2
#     Edge 21, Type (0, 1), BuildingBlock: KIFKEQ_clean_linker_1, # of connection points: 2
#     Edge 22, Type (0, 1), BuildingBlock: KIFKEQ_clean_linker_1, # of connection points: 2
#     Edge 23, Type (0, 1), BuildingBlock: KIFKEQ_clean_linker_1, # of connection points: 2
#     Edge 24, Type (0, 1), BuildingBlock: KIFKEQ_clean_linker_1, # of connection points: 2
#     Edge 25, Type (0, 1), BuildingBlock: KIFKEQ_clean_linker_1, # of connection points: 2
#     Edge 26, Type (0, 1), BuildingBlock: KIFKEQ_clean_linker_1, # of connection points: 2
#     Edge 27, Type (0, 1), BuildingBlock: KIFKEQ_clean_linker_1, # of connection points: 2
#     Edge 28, Type (0, 1), BuildingBlock: KIFKEQ_clean_linker_1, # of connection points: 2
#     Edge 29, Type (0, 1), BuildingBlock: KIFKEQ_clean_linker_1, # of connection points: 2
#     Edge 30, Type (0, 1), BuildingBlock: KIFKEQ_clean_linker_1, # of connection points: 2
#     Edge 31, Type (0, 1), BuildingBlock: KIFKEQ_clean_linker_1, # of connection points: 2
#     Edge 32, Type (0, 1), BuildingBlock: KIFKEQ_clean_linker_1, # of connection points: 2
#     Edge 33, Type (0, 1), BuildingBlock: KIFKEQ_clean_linker_1, # of connection points: 2
#     Edge 34, Type (0, 1), BuildingBlock: KIFKEQ_clean_linker_1, # of connection points: 2
#     Edge 35, Type (0, 1), BuildingBlock: KIFKEQ_clean_linker_1, # of connection points: 2
# Relax obj value: 0.019
# Max RMSD: 0.063
# Mean RMSD: 0.024
data_MOF--net-pyr--node1-MIDCAF_clean_sbu_0--node2-KAKCAD_clean_linker_0--edge1-KIFKEQ_clean_linker_1
_symmetry_space_group_name_H-M    P1
_symmetry_Int_Tables_number       1
_symmetry_cell_setting            triclinic
loop_
_symmetry_equiv_pos_as_xyz
'x, y, z'
_cell_length_a     44.548471
_cell_length_b     44.528323
_cell_length_c     44.479848
_cell_angle_alpha  90.224904
_cell_angle_beta   89.867371
_cell_angle_gamma 90.297693
loop_
_atom_site_label
_atom_site_type_symbol
_atom_site_fract_x
_atom_site_fract_y
_atom_site_fract_z
_atom_type_partial_charge
C0 C 0.15825 0.20581 0.31068 0.0
C1 C 0.17395 0.19048 0.33329 0.0
C2 C 0.17346 0.21851 0.2863 0.0
C3 C 0.20494 0.21687 0.28405 0.0
C4 C 0.22074 0.20228 0.30708 0.0
C5 C 0.20546 0.18907 0.33121 0.0
C6 C 0.22103 0.22972 0.25748 0.0
C7 C 0.21013 0.25562 0.24315 0.0
C8 C 0.22409 0.26692 0.21721 0.0
C9 C 0.24957 0.25253 0.20573 0.0
C10 C 0.26083 0.22661 0.21952 0.0
C11 C 0.24658 0.21544 0.24543 0.0
C12 C 0.28638 0.21027 0.20568 0.0
C13 C 0.28634 0.20415 0.17471 0.0
C14 C 0.31084 0.20078 0.22307 0.0
C15 C 0.33519 0.18616 0.20952 0.0
C16 C 0.3354 0.18049 0.17835 0.0
C17 C 0.21082 0.29254 0.20091 0.0
C18 C 0.18068 0.29123 0.19183 0.0
C19 C 0.22821 0.3179 0.19352 0.0
C20 C 0.21552 0.34168 0.1775 0.0
C21 C 0.18551 0.34007 0.168 0.0
C22 C 0.16823 0.31465 0.1753 0.0
C23 C 0.31041 0.1893 0.16126 0.0
H24 H 0.13408 0.20793 0.31162 0.0
H25 H 0.1603 0.22907 0.2689 0.0
H26 H 0.24499 0.20091 0.30651 0.0
H27 H 0.21844 0.17716 0.34785 0.0
H28 H 0.19076 0.26724 0.25212 0.0
H29 H 0.25467 0.19482 0.25531 0.0
H30 H 0.26019 0.26109 0.18552 0.0
H31 H 0.26749 0.21062 0.16086 0.0
H32 H 0.31144 0.20529 0.24701 0.0
H33 H 0.3541 0.17991 0.22336 0.0
H34 H 0.16691 0.27181 0.19707 0.0
H35 H 0.25151 0.31936 0.20031 0.0
H36 H 0.30929 0.18459 0.13739 0.0
H37 H 0.14496 0.31302 0.1684 0.0
H38 H 0.22924 0.36109 0.17211 0.0
C39 C 0.3167 0.85529 0.84358 0.0
C40 C 0.34803 0.8554 0.84717 0.0
C41 C 0.30353 0.84168 0.8184 0.0
C42 C 0.32146 0.82826 0.79602 0.0
C43 C 0.35281 0.82788 0.80013 0.0
C44 C 0.36588 0.84107 0.82547 0.0
C45 C 0.30801 0.81631 0.76765 0.0
C46 C 0.28381 0.83101 0.75389 0.0
C47 C 0.27346 0.82194 0.72545 0.0
C48 C 0.28768 0.79804 0.71049 0.0
C49 C 0.31158 0.78265 0.72403 0.0
C50 C 0.32093 0.79151 0.75294 0.0
C51 C 0.32816 0.7587 0.70742 0.0
C52 C 0.31323 0.73846 0.68811 0.0
C53 C 0.35951 0.75644 0.71028 0.0
C54 C 0.37547 0.73472 0.69433 0.0
C55 C 0.36073 0.71491 0.67451 0.0
C56 C 0.24883 0.8386 0.71072 0.0
C57 C 0.2215 0.84339 0.72579 0.0
C58 C 0.25273 0.85026 0.68168 0.0
C59 C 0.22983 0.86665 0.66805 0.0
C60 C 0.20239 0.87124 0.68299 0.0
C61 C 0.19834 0.85929 0.71191 0.0
C62 C 0.32933 0.71686 0.6718 0.0
H63 H 0.3024 0.86603 0.86012 0.0
H64 H 0.27932 0.842 0.81633 0.0
H65 H 0.36752 0.81843 0.78319 0.0
H66 H 0.39012 0.84124 0.82741 0.0
H67 H 0.27387 0.85053 0.7645 0.0
H68 H 0.33869 0.77924 0.76395 0.0
H69 H 0.2804 0.79188 0.68806 0.0
H70 H 0.28908 0.73928 0.68556 0.0
H71 H 0.37198 0.77186 0.72446 0.0
H72 H 0.39953 0.7336 0.69753 0.0
H73 H 0.21797 0.83457 0.74819 0.0
H74 H 0.27368 0.84707 0.66969 0.0
H75 H 0.31722 0.70214 0.65661 0.0
H76 H 0.17742 0.86258 0.7239 0.0
H77 H 0.23342 0.87543 0.64564 0.0
C78 C 0.81963 0.37065 0.83396 0.0
C79 C 0.84075 0.35328 0.84941 0.0
C80 C 0.7952 0.35696 0.81964 0.0
C81 C 0.79151 0.32553 0.82011 0.0
C82 C 0.81352 0.30812 0.83442 0.0
C83 C 0.83773 0.32186 0.84908 0.0
C84 C 0.7638 0.31129 0.80758 0.0
C85 C 0.74993 0.32303 0.7818 0.0
C86 C 0.72192 0.31205 0.77184 0.0
C87 C 0.7083 0.28827 0.78767 0.0
C88 C 0.72242 0.27542 0.81266 0.0
C89 C 0.75001 0.28707 0.82252 0.0
C90 C 0.70782 0.25053 0.82931 0.0
C91 C 0.67831 0.25352 0.84001 0.0
C92 C 0.72345 0.22381 0.83493 0.0
C93 C 0.70968 0.20035 0.85074 0.0
C94 C 0.6803 0.20351 0.86177 0.0
C95 C 0.70644 0.32617 0.74571 0.0
C96 C 0.70898 0.35728 0.74058 0.0
C97 C 0.68839 0.30895 0.7261 0.0
C98 C 0.67284 0.32257 0.70252 0.0
C99 C 0.67549 0.35358 0.69761 0.0
C100 C 0.69392 0.37074 0.71668 0.0
C101 C 0.66478 0.23034 0.85634 0.0
H102 H 0.82122 0.39493 0.83415 0.0
H103 H 0.77854 0.37121 0.80931 0.0
H104 H 0.81183 0.28386 0.83473 0.0
H105 H 0.85391 0.30792 0.86054 0.0
H106 H 0.76107 0.34081 0.76946 0.0
H107 H 0.75997 0.27802 0.84274 0.0
H108 H 0.6865 0.27981 0.78085 0.0
H109 H 0.66588 0.27399 0.83612 0.0
H110 H 0.74622 0.22099 0.82682 0.0
H111 H 0.72211 0.1799 0.85471 0.0
H112 H 0.722 0.37153 0.75547 0.0
H113 H 0.68625 0.28489 0.72886 0.0
H114 H 0.64201 0.23321 0.86444 0.0
H115 H 0.69596 0.3948 0.71366 0.0
H116 H 0.65886 0.30884 0.688 0.0
C117 C 0.8301 0.69802 0.19702 0.0
C118 C 0.85969 0.68735 0.20001 0.0
C119 C 0.81565 0.7123 0.22107 0.0
C120 C 0.83065 0.71689 0.24839 0.0
C121 C 0.86033 0.707 0.25133 0.0
C122 C 0.87458 0.69212 0.22757 0.0
C123 C 0.81529 0.73163 0.274 0.0
C124 C 0.7886 0.71939 0.28571 0.0
C125 C 0.77458 0.73236 0.31101 0.0
C126 C 0.787 0.75879 0.32343 0.0
C127 C 0.814 0.77082 0.31234 0.0
C128 C 0.82813 0.75701 0.28774 0.0
C129 C 0.82855 0.79642 0.32801 0.0
C130 C 0.81271 0.82304 0.33384 0.0
C131 C 0.85817 0.79378 0.33835 0.0
C132 C 0.87154 0.81709 0.3547 0.0
C133 C 0.85575 0.8437 0.36055 0.0
C134 C 0.74899 0.71677 0.32626 0.0
C135 C 0.72741 0.70033 0.30983 0.0
C136 C 0.74708 0.71671 0.35784 0.0
C137 C 0.72485 0.7002 0.37256 0.0
C138 C 0.70412 0.68269 0.35627 0.0
C139 C 0.70529 0.68342 0.32467 0.0
C140 C 0.82634 0.84666 0.34969 0.0
H141 H 0.81799 0.69547 0.1761 0.0
H142 H 0.7928 0.72001 0.21825 0.0
H143 H 0.87224 0.71008 0.27234 0.0
H144 H 0.89703 0.68374 0.23121 0.0
H145 H 0.77982 0.69879 0.27602 0.0
H146 H 0.84908 0.76612 0.27918 0.0
H147 H 0.77638 0.76944 0.34262 0.0
H148 H 0.78983 0.82555 0.32607 0.0
H149 H 0.87075 0.77338 0.33436 0.0
H150 H 0.89433 0.81439 0.36266 0.0
H151 H 0.72784 0.70015 0.2855 0.0
H152 H 0.76342 0.72858 0.37145 0.0
H153 H 0.81374 0.86698 0.35397 0.0
H154 H 0.68975 0.67018 0.31136 0.0
H155 H 0.72429 0.7008 0.3969 0.0
C156 C 0.95339 0.89993 0.79307 0.0
C157 C 0.96072 0.93023 0.7881 0.0
C158 C 0.93692 0.89148 0.81846 0.0
C159 C 0.92726 0.91316 0.83938 0.0
C160 C 0.9348 0.94344 0.83456 0.0
C161 C 0.95145 0.95187 0.80925 0.0
C162 C 0.9092 0.90409 0.86598 0.0
C163 C 0.91717 0.87853 0.88243 0.0
C164 C 0.89968 0.86873 0.90685 0.0
C165 C 0.87422 0.88532 0.91511 0.0
C166 C 0.8658 0.91107 0.89896 0.0
C167 C 0.88354 0.92034 0.87446 0.0
C168 C 0.83809 0.92772 0.90741 0.0
C169 C 0.81236 0.91198 0.91697 0.0
C170 C 0.83721 0.95934 0.90663 0.0
C171 C 0.81152 0.97478 0.91611 0.0
C172 C 0.78641 0.95889 0.92682 0.0
C173 C 0.90776 0.84076 0.92312 0.0
C174 C 0.91864 0.81581 0.90707 0.0
C175 C 0.90499 0.83873 0.95461 0.0
C176 C 0.91361 0.8126 0.96968 0.0
C177 C 0.92544 0.78819 0.95356 0.0
C178 C 0.9275 0.78993 0.92212 0.0
C179 C 0.78694 0.92737 0.92673 0.0
H180 H 0.96033 0.88274 0.77726 0.0
H181 H 0.93125 0.86799 0.82142 0.0
H182 H 0.92788 0.9606 0.85041 0.0
H183 H 0.95643 0.97545 0.80585 0.0
H184 H 0.93734 0.86642 0.87635 0.0
H185 H 0.87682 0.93958 0.86129 0.0
H186 H 0.86072 0.87793 0.93399 0.0
H187 H 0.81184 0.88766 0.91705 0.0
H188 H 0.85667 0.9722 0.89957 0.0
H189 H 0.81167 0.9991 0.91611 0.0
H190 H 0.92032 0.81622 0.88278 0.0
H191 H 0.89691 0.85759 0.9677 0.0
H192 H 0.76766 0.91459 0.93443 0.0
H193 H 0.9361 0.77122 0.90912 0.0
H194 H 0.91197 0.81184 0.99396 0.0
C195 C 0.57675 0.07427 0.32071 0.0
C196 C 0.56941 0.09383 0.29706 0.0
C197 C 0.59299 0.08462 0.34556 0.0
C198 C 0.60192 0.11484 0.34751 0.0
C199 C 0.59381 0.13462 0.3244 0.0
C200 C 0.57784 0.12423 0.29941 0.0
C201 C 0.62035 0.12569 0.37311 0.0
C202 C 0.64587 0.10977 0.38225 0.0
C203 C 0.66465 0.12113 0.40504 0.0
C204 C 0.6572 0.14847 0.41916 0.0
C205 C 0.6318 0.16466 0.41019 0.0
C206 C 0.61342 0.15294 0.38732 0.0
C207 C 0.62504 0.19455 0.42338 0.0
C208 C 0.62625 0.19963 0.4546 0.0
C209 C 0.61672 0.21824 0.40446 0.0
C210 C 0.60872 0.24601 0.41643 0.0
C211 C 0.60877 0.25088 0.44767 0.0
C212 C 0.69302 0.10544 0.41267 0.0
C213 C 0.69398 0.07395 0.41491 0.0
C214 C 0.71964 0.12195 0.41699 0.0
C215 C 0.74652 0.10741 0.42349 0.0
C216 C 0.74755 0.07594 0.42575 0.0
C217 C 0.72093 0.05936 0.42145 0.0
C218 C 0.61818 0.2276 0.46666 0.0
H219 H 0.57015 0.05084 0.31994 0.0
H220 H 0.5986 0.069 0.36326 0.0
H221 H 0.60069 0.15798 0.32515 0.0
H222 H 0.57308 0.13984 0.28147 0.0
H223 H 0.6519 0.08926 0.37055 0.0
H224 H 0.59357 0.16512 0.3805 0.0
H225 H 0.67157 0.15756 0.43662 0.0
H226 H 0.63258 0.18174 0.46971 0.0
H227 H 0.61633 0.2153 0.38027 0.0
H228 H 0.60235 0.26374 0.40114 0.0
H229 H 0.67382 0.06059 0.41185 0.0
H230 H 0.71984 0.14619 0.41498 0.0
H231 H 0.61841 0.23071 0.49082 0.0
H232 H 0.72097 0.03509 0.42292 0.0
H233 H 0.76645 0.12094 0.42717 0.0
C234 C 0.29508 0.58533 0.13091 0.0
C235 C 0.2895 0.57777 0.10074 0.0
C236 C 0.32139 0.60047 0.13896 0.0
C237 C 0.34275 0.60846 0.11703 0.0
C238 C 0.33732 0.60072 0.08688 0.0
C239 C 0.311 0.58543 0.07882 0.0
C240 C 0.37044 0.62502 0.1258 0.0
C241 C 0.38593 0.61688 0.15191 0.0
C242 C 0.41089 0.63345 0.16188 0.0
C243 C 0.42105 0.65787 0.14474 0.0
C244 C 0.40578 0.66661 0.11849 0.0
C245 C 0.38055 0.64987 0.10913 0.0
C246 C 0.41522 0.69414 0.10189 0.0
C247 C 0.42577 0.71947 0.11773 0.0
C248 C 0.41362 0.69554 0.07028 0.0
C249 C 0.42279 0.72147 0.05497 0.0
C250 C 0.43411 0.74627 0.07095 0.0
C251 C 0.42479 0.6263 0.19131 0.0
C252 C 0.40629 0.61984 0.21608 0.0
C253 C 0.45615 0.62591 0.1951 0.0
C254 C 0.46866 0.61829 0.22295 0.0
C255 C 0.44998 0.61091 0.24738 0.0
C256 C 0.41871 0.61226 0.2437 0.0
C257 C 0.43531 0.74509 0.10244 0.0
H258 H 0.27904 0.57958 0.14833 0.0
H259 H 0.32474 0.60641 0.16236 0.0
H260 H 0.35345 0.6064 0.06953 0.0
H261 H 0.30718 0.58024 0.05533 0.0
H262 H 0.37841 0.59755 0.16468 0.0
H263 H 0.3679 0.65695 0.08965 0.0
H264 H 0.44041 0.67056 0.15237 0.0
H265 H 0.4265 0.71969 0.14206 0.0
H266 H 0.40584 0.67642 0.0573 0.0
H267 H 0.42182 0.72184 0.03064 0.0
H268 H 0.38208 0.62078 0.21418 0.0
H269 H 0.47097 0.63081 0.17639 0.0
H270 H 0.44354 0.76413 0.1153 0.0
H271 H 0.4037 0.60748 0.26229 0.0
H272 H 0.49285 0.61742 0.22516 0.0
C273 C 0.14426 0.30351 0.58001 0.0
C274 C 0.11463 0.29789 0.57068 0.0
C275 C 0.15119 0.3291 0.59698 0.0
C276 C 0.12863 0.34959 0.6051 0.0
C277 C 0.09915 0.34435 0.59516 0.0
C278 C 0.09223 0.31883 0.57808 0.0
C279 C 0.1357 0.37575 0.62475 0.0
C280 C 0.16214 0.39245 0.62026 0.0
C281 C 0.16977 0.41625 0.63962 0.0
C282 C 0.15057 0.42349 0.66357 0.0
C283 C 0.12428 0.40666 0.66885 0.0
C284 C 0.11683 0.38308 0.64906 0.0
C285 C 0.10585 0.4123 0.69621 0.0
C286 C 0.11994 0.41788 0.72392 0.0
C287 C 0.07429 0.41152 0.69514 0.0
C288 C 0.05725 0.41648 0.72118 0.0
C289 C 0.07143 0.42215 0.74887 0.0
C290 C 0.19885 0.43211 0.63599 0.0
C291 C 0.22541 0.41548 0.63339 0.0
C292 C 0.20043 0.46365 0.63545 0.0
C293 C 0.22814 0.47825 0.63179 0.0
C294 C 0.2547 0.46152 0.6293 0.0
C295 C 0.25303 0.43002 0.63026 0.0
C296 C 0.10298 0.4228 0.74985 0.0
H297 H 0.16203 0.28791 0.57452 0.0
H298 H 0.17409 0.33234 0.60451 0.0
H299 H 0.08134 0.35987 0.60082 0.0
H300 H 0.06912 0.31499 0.57156 0.0
H301 H 0.17688 0.38698 0.60163 0.0
H302 H 0.0971 0.36943 0.65347 0.0
H303 H 0.15665 0.44169 0.67867 0.0
H304 H 0.14418 0.41816 0.72569 0.0
H305 H 0.06277 0.40738 0.6741 0.0
H306 H 0.033 0.41573 0.71967 0.0
H307 H 0.22483 0.39116 0.63402 0.0
H308 H 0.18021 0.47693 0.63738 0.0
H309 H 0.11468 0.42763 0.77064 0.0
H310 H 0.2731 0.41655 0.62797 0.0
H311 H 0.22885 0.50256 0.63106 0.0
Zn312 Zn 0.9824 0.06374 0.5557 0.0
Zn313 Zn 0.05192 0.99356 0.48649 0.0
Zn314 Zn 0.01662 0.02909 0.52178 0.0
C315 C 0.06969 0.05353 0.47765 0.0
C316 C 0.99191 0.98489 0.46885 0.0
O317 O 0.0212 0.01429 0.56917 0.0
O318 O 0.9941 0.04697 0.59501 0.0
C319 C 0.0224 0.10185 0.52671 0.0
O320 O 0.0479 0.05817 0.49621 0.0
O321 O 0.07704 0.0271 0.47043 0.0
O322 O 0.01828 0.9775 0.46151 0.0
O323 O 0.98737 0.00353 0.49063 0.0
O324 O 0.99963 0.10286 0.54361 0.0
O325 O 0.03197 0.0764 0.51671 0.0
O326 O 0.96928 0.02397 0.50667 0.0
O327 O 0.94318 0.05162 0.53873 0.0
C328 C 0.94398 0.03429 0.51623 0.0
O329 O 0.04187 0.99822 0.55125 0.0
O330 O 0.06764 0.96891 0.52028 0.0
C331 C 0.01088 0.02422 0.59441 0.0
C332 C 0.06036 0.97646 0.54671 0.0
Zn333 Zn 0.48686 0.05236 0.98821 0.0
Zn334 Zn 0.55458 0.98156 0.05339 0.0
Zn335 Zn 0.52106 0.0161 0.02197 0.0
C336 C 0.59384 0.01364 0.01835 0.0
C337 C 0.51815 0.94337 0.02095 0.0
O338 O 0.49747 0.0473 0.0527 0.0
O339 O 0.4748 0.07913 0.02217 0.0
C340 C 0.54583 0.05938 0.96828 0.0
O341 O 0.56853 0.02183 0.00709 0.0
O342 O 0.59432 0.99745 0.04154 0.0
O343 O 0.54203 0.94254 0.03611 0.0
O344 O 0.50616 0.96884 0.0145 0.0
O345 O 0.51943 0.06615 0.96064 0.0
O346 O 0.55034 0.04178 0.99077 0.0
O347 O 0.48823 0.988 0.9972 0.0
O348 O 0.45832 0.02045 0.97464 0.0
C349 C 0.46516 0.99368 0.98077 0.0
O350 O 0.5156 0.02855 0.07016 0.0
O351 O 0.53917 0.99203 0.09374 0.0
C352 C 0.48125 0.07079 0.04847 0.0
C353 C 0.52345 0.01549 0.09471 0.0
Zn354 Zn 0.55302 0.55145 0.549 0.0
Zn355 Zn 0.48235 0.49176 0.48928 0.0
Zn356 Zn 0.51726 0.52091 0.51779 0.0
C357 C 0.5302 0.45511 0.49521 0.0
C358 C 0.49328 0.53987 0.45407 0.0
O359 O 0.48998 0.54691 0.55028 0.0
O360 O 0.52302 0.58227 0.56178 0.0
C361 C 0.56203 0.49272 0.56533 0.0
O362 O 0.53416 0.47401 0.51687 0.0
O363 O 0.51039 0.46012 0.47567 0.0
O364 O 0.47113 0.5231 0.45993 0.0
O365 O 0.51626 0.53982 0.4716 0.0
O366 O 0.5639 0.51843 0.57728 0.0
O367 O 0.54814 0.48925 0.54017 0.0
O368 O 0.54141 0.55094 0.48637 0.0
O369 O 0.58074 0.56109 0.51488 0.0
C370 C 0.56804 0.56186 0.48955 0.0
O371 O 0.47245 0.52348 0.5401 0.0
O372 O 0.45339 0.48156 0.52155 0.0
C373 C 0.49642 0.57239 0.56253 0.0
C374 C 0.45197 0.50292 0.54017 0.0
Zn375 Zn 0.04921 0.55456 0.97689 0.0
Zn376 Zn 0.98649 0.48508 0.05121 0.0
Zn377 Zn 0.01763 0.52146 0.01384 0.0
C378 C 0.04702 0.47968 0.06608 0.0
C379 C 0.97505 0.46576 0.99236 0.0
O380 O 0.00142 0.56832 0.01877 0.0
O381 O 0.03287 0.59363 0.98961 0.0
C382 C 0.09051 0.52883 0.01472 0.0
O383 O 0.04952 0.49812 0.04392 0.0
O384 O 0.02146 0.47097 0.07487 0.0
O385 O 0.96961 0.45843 0.01924 0.0
O386 O 0.99218 0.48844 0.98651 0.0
O387 O 0.08981 0.54416 0.99094 0.0
O388 O 0.0659 0.51892 0.02648 0.0
O389 O 0.01093 0.50481 0.96693 0.0
O390 O 0.0354 0.53734 0.93839 0.0
C391 C 0.01927 0.5141 0.94075 0.0
O392 O 0.98632 0.55021 0.04017 0.0
O393 O 0.96124 0.51766 0.06828 0.0
C394 C 0.01096 0.5933 0.00763 0.0
C395 C 0.96616 0.54443 0.06025 0.0
H396 H 0.11894 0.16231 0.33093 0.0
H397 H 0.19146 0.18309 0.39227 0.0
H398 H 0.09326 0.13481 0.37054 0.0
H399 H 0.16616 0.15401 0.43138 0.0
H400 H 0.12911 0.05832 0.46498 0.0
H401 H 0.15383 0.09624 0.43377 0.0
H402 H 0.06964 0.14276 0.42425 0.0
H403 H 0.04495 0.10491 0.45588 0.0
C404 C 0.12926 0.16156 0.35291 0.0
C405 C 0.15747 0.17502 0.35817 0.0
C406 C 0.11448 0.14566 0.37561 0.0
C407 C 0.12772 0.14235 0.40399 0.0
C408 C 0.15556 0.15614 0.4096 0.0
C409 C 0.17014 0.17255 0.38705 0.0
C410 C 0.11607 0.07702 0.45673 0.0
C411 C 0.0852 0.07882 0.46284 0.0
C412 C 0.13022 0.09876 0.43903 0.0
C413 C 0.1136 0.12233 0.42656 0.0
C414 C 0.0829 0.12473 0.43355 0.0
C415 C 0.06885 0.10324 0.45174 0.0
H416 H 0.33634 0.91265 0.86471 0.0
H417 H 0.39262 0.83687 0.88503 0.0
H418 H 0.3635 0.94304 0.90109 0.0
H419 H 0.41927 0.86688 0.9227 0.0
H420 H 0.48475 0.94228 0.95386 0.0
H421 H 0.45466 0.90603 0.92554 0.0
H422 H 0.37408 0.95376 0.951 0.0
H423 H 0.40455 0.99064 0.97785 0.0
C424 C 0.35406 0.90228 0.87762 0.0
C425 C 0.36238 0.87244 0.87204 0.0
C426 C 0.36965 0.91967 0.89865 0.0
C427 C 0.39372 0.90753 0.91503 0.0
C428 C 0.40127 0.87721 0.9102 0.0
C429 C 0.38591 0.85994 0.88877 0.0
C430 C 0.46055 0.94458 0.95373 0.0
C431 C 0.44689 0.9692 0.96784 0.0
C432 C 0.44321 0.92378 0.93759 0.0
C433 C 0.41182 0.9271 0.9355 0.0
C434 C 0.39819 0.95088 0.9513 0.0
C435 C 0.41557 0.9719 0.96692 0.0
H436 H 0.69637 0.39171 0.65439 0.0
H437 H 0.61535 0.34946 0.68722 0.0
H438 H 0.66677 0.42066 0.6184 0.0
H439 H 0.5857 0.37878 0.65154 0.0
H440 H 0.55265 0.47649 0.62293 0.0
H441 H 0.57876 0.43769 0.65135 0.0
H442 H 0.62921 0.41362 0.57193 0.0
H443 H 0.60241 0.45228 0.54324 0.0
C444 C 0.67227 0.38838 0.65359 0.0
C445 C 0.65808 0.36848 0.6736 0.0
C446 C 0.6554 0.40473 0.6329 0.0
C447 C 0.62399 0.40191 0.63226 0.0
C448 C 0.60989 0.38132 0.65162 0.0
C449 C 0.62683 0.36453 0.67192 0.0
C450 C 0.56891 0.46248 0.61147 0.0
C451 C 0.57547 0.46706 0.58097 0.0
C452 C 0.58372 0.44025 0.62764 0.0
C453 C 0.60592 0.42267 0.61379 0.0
C454 C 0.61215 0.4269 0.58307 0.0
C455 C 0.59681 0.44882 0.56669 0.0
H456 H 0.83354 0.64981 0.15813 0.0
H457 H 0.91978 0.686 0.18482 0.0
H458 H 0.85777 0.62011 0.11955 0.0
H459 H 0.94429 0.65388 0.14824 0.0
H460 H 0.98334 0.60292 0.07063 0.0
H461 H 0.95612 0.64118 0.09891 0.0
H462 H 0.88528 0.57672 0.11654 0.0
H463 H 0.91115 0.53991 0.08603 0.0
C464 C 0.85765 0.65169 0.15578 0.0
C465 C 0.87456 0.67031 0.17506 0.0
C466 C 0.87171 0.6341 0.13384 0.0
C467 C 0.90318 0.63399 0.13092 0.0
C468 C 0.92004 0.65336 0.1495 0.0
C469 C 0.90592 0.67145 0.17103 0.0
C470 C 0.96133 0.59749 0.0794 0.0
C471 C 0.94907 0.56867 0.07535 0.0
C472 C 0.94598 0.61919 0.09631 0.0
C473 C 0.91834 0.61225 0.11024 0.0
C474 C 0.90606 0.58339 0.10576 0.0
C475 C 0.92111 0.56202 0.08846 0.0
H476 H 0.37097 0.13455 0.19931 0.0
H477 H 0.35936 0.1935 0.12333 0.0
H478 H 0.41232 0.1097 0.1732 0.0
H479 H 0.39873 0.16754 0.0966 0.0
H480 H 0.47952 0.13105 0.05582 0.0
H481 H 0.44974 0.15915 0.09214 0.0
H482 H 0.42121 0.07577 0.13313 0.0
H483 H 0.45273 0.04797 0.09772 0.0
C484 C 0.37729 0.14233 0.17713 0.0
C485 C 0.36154 0.16588 0.16335 0.0
C486 C 0.4008 0.12783 0.162 0.0
C487 C 0.40905 0.13649 0.13269 0.0
C488 C 0.39362 0.16046 0.1193 0.0
C489 C 0.37046 0.17507 0.13448 0.0
C490 C 0.46745 0.11888 0.07315 0.0
C491 C 0.46817 0.08744 0.07395 0.0
C492 C 0.45009 0.1349 0.09378 0.0
C493 C 0.43223 0.11978 0.11511 0.0
C494 C 0.43463 0.08829 0.11715 0.0
C495 C 0.45262 0.07228 0.09683 0.0
H496 H 0.14401 0.85397 0.67524 0.0
H497 H 0.20602 0.92646 0.657 0.0
H498 H 0.10498 0.8801 0.64678 0.0
H499 H 0.16695 0.95274 0.62898 0.0
H500 H 0.08206 0.00136 0.59852 0.0
H501 H 0.11339 0.97671 0.63639 0.0
H502 H 0.10326 0.89238 0.58921 0.0
H503 H 0.07248 0.91705 0.55126 0.0
C504 C 0.14909 0.87571 0.66557 0.0
C505 C 0.17803 0.88816 0.66811 0.0
C506 C 0.12684 0.89058 0.64928 0.0
C507 C 0.13297 0.91845 0.63579 0.0
C508 C 0.16154 0.93144 0.63941 0.0
C509 C 0.18393 0.91632 0.65519 0.0
C510 C 0.08603 0.97744 0.5967 0.0
C511 C 0.07489 0.96104 0.57207 0.0
C512 C 0.10405 0.96341 0.6182 0.0
C513 C 0.11076 0.93268 0.61564 0.0
C514 C 0.09823 0.91603 0.59186 0.0
C515 C 0.08075 0.93014 0.57011 0.0
H516 H 0.85506 0.34148 0.90745 0.0
H517 H 0.87916 0.39875 0.83311 0.0
H518 H 0.89053 0.36792 0.93945 0.0
H519 H 0.91597 0.42467 0.86478 0.0
H520 H 0.94884 0.48738 0.94156 0.0
H521 H 0.91935 0.45912 0.90476 0.0
H522 H 0.94041 0.37671 0.95124 0.0
H523 H 0.96839 0.40537 0.98867 0.0
C524 C 0.86853 0.35934 0.89778 0.0
C525 C 0.8644 0.36801 0.86779 0.0
C526 C 0.88905 0.3745 0.9161 0.0
C527 C 0.9064 0.39848 0.9048 0.0
C528 C 0.90274 0.40667 0.87447 0.0
C529 C 0.88179 0.39174 0.85624 0.0
C530 C 0.94735 0.46318 0.94356 0.0
C531 C 0.96066 0.4485 0.96794 0.0
C532 C 0.93058 0.44689 0.92242 0.0
C533 C 0.92703 0.41554 0.92513 0.0
C534 C 0.94182 0.40086 0.9488 0.0
C535 C 0.95808 0.4172 0.97016 0.0
H536 H 0.7145 0.65008 0.40693 0.0
H537 H 0.64504 0.6696 0.34233 0.0
H538 H 0.67975 0.6194 0.43516 0.0
H539 H 0.61036 0.63682 0.36982 0.0
H540 H 0.54995 0.60619 0.45133 0.0
H541 H 0.58173 0.63371 0.41559 0.0
H542 H 0.65493 0.57328 0.43463 0.0
H543 H 0.62367 0.54727 0.47124 0.0
C544 C 0.69175 0.64782 0.39866 0.0
C545 C 0.68256 0.66274 0.37249 0.0
C546 C 0.67185 0.62963 0.41462 0.0
C547 C 0.64219 0.62524 0.40469 0.0
C548 C 0.63296 0.63981 0.37826 0.0
C549 C 0.65294 0.65835 0.36232 0.0
C550 C 0.57271 0.59868 0.44734 0.0
C551 C 0.58459 0.5749 0.46406 0.0
C552 C 0.59092 0.61432 0.42686 0.0
C553 C 0.6212 0.60619 0.42267 0.0
C554 C 0.63211 0.58088 0.43795 0.0
C555 C 0.61416 0.56574 0.45871 0.0
H556 H 0.18226 0.39935 0.18342 0.0
H557 H 0.15761 0.33615 0.11386 0.0
H558 H 0.15417 0.43884 0.15748 0.0
H559 H 0.13007 0.37559 0.0877 0.0
H560 H 0.09741 0.45835 0.03863 0.0
H561 H 0.13718 0.42838 0.06186 0.0
H562 H 0.0958 0.4411 0.1488 0.0
H563 H 0.05595 0.4705 0.12556 0.0
C564 C 0.17137 0.39414 0.16227 0.0
C565 C 0.17186 0.36477 0.15066 0.0
C566 C 0.15531 0.41663 0.14751 0.0
C567 C 0.14006 0.41023 0.12058 0.0
C568 C 0.1419 0.38121 0.10823 0.0
C569 C 0.15742 0.35863 0.12328 0.0
C570 C 0.09734 0.45532 0.06278 0.0
C571 C 0.07374 0.46666 0.08038 0.0
C572 C 0.11993 0.43812 0.07602 0.0
C573 C 0.11947 0.43243 0.10709 0.0
C574 C 0.09685 0.44538 0.12486 0.0
C575 C 0.07401 0.46205 0.11157 0.0
H576 H 0.65315 0.20693 0.91657 0.0
H577 H 0.67418 0.14476 0.84499 0.0
H578 H 0.6257 0.16724 0.94305 0.0
H579 H 0.64623 0.10508 0.87129 0.0
H580 H 0.55076 0.07034 0.90849 0.0
H581 H 0.58836 0.10168 0.88336 0.0
H582 H 0.6346 0.11415 0.96769 0.0
H583 H 0.5971 0.08237 0.9928 0.0
C584 C 0.65206 0.18469 0.90667 0.0
C585 C 0.66561 0.17888 0.87872 0.0
C586 C 0.6366 0.16195 0.9219 0.0
C587 C 0.63395 0.13312 0.90921 0.0
C588 C 0.648 0.12713 0.88153 0.0
C589 C 0.66399 0.14975 0.86656 0.0
C590 C 0.56937 0.07921 0.92147 0.0
C591 C 0.57117 0.07388 0.9525 0.0
C592 C 0.59091 0.09702 0.9071 0.0
C593 C 0.61427 0.11039 0.92363 0.0
C594 C 0.61674 0.10414 0.95448 0.0
C595 C 0.59546 0.08582 0.96877 0.0
H596 H 0.86268 0.90249 0.34463 0.0
H597 H 0.88154 0.83973 0.41571 0.0
H598 H 0.89106 0.94155 0.37161 0.0
H599 H 0.90939 0.87877 0.44287 0.0
H600 H 0.9402 0.96279 0.49336 0.0
H601 H 0.90195 0.932 0.468 0.0
H602 H 0.9489 0.94319 0.38375 0.0
H603 H 0.98723 0.97348 0.40913 0.0
C604 C 0.87244 0.89728 0.36626 0.0
C605 C 0.87017 0.86814 0.37806 0.0
C606 C 0.88867 0.91953 0.38162 0.0
C607 C 0.9023 0.91314 0.40932 0.0
C608 C 0.89883 0.88436 0.42171 0.0
C609 C 0.88315 0.862 0.4061 0.0
C610 C 0.9419 0.95916 0.46932 0.0
C611 C 0.96655 0.97045 0.45311 0.0
C612 C 0.92016 0.94149 0.45488 0.0
C613 C 0.92255 0.93525 0.42396 0.0
C614 C 0.94639 0.9479 0.40754 0.0
C615 C 0.96836 0.96506 0.42205 0.0
H616 H 0.41572 0.72362 0.64857 0.0
H617 H 0.3459 0.65666 0.65881 0.0
H618 H 0.44606 0.68796 0.62116 0.0
H619 H 0.37564 0.62127 0.62918 0.0
H620 H 0.45473 0.55687 0.60507 0.0
H621 H 0.41955 0.59055 0.6308 0.0
H622 H 0.45021 0.6639 0.57488 0.0
H623 H 0.48593 0.63053 0.55054 0.0
C624 C 0.40675 0.70125 0.64495 0.0
C625 C 0.3784 0.69303 0.65628 0.0
C626 C 0.42401 0.68084 0.62866 0.0
C627 C 0.41329 0.65167 0.62261 0.0
C628 C 0.38476 0.64344 0.63359 0.0
C629 C 0.36753 0.66388 0.65027 0.0
C630 C 0.4535 0.58015 0.59822 0.0
C631 C 0.47293 0.59128 0.57601 0.0
C632 C 0.43336 0.59946 0.61284 0.0
C633 C 0.43229 0.63016 0.6053 0.0
C634 C 0.45094 0.64068 0.58198 0.0
C635 C 0.47127 0.62156 0.56782 0.0
H636 H 0.00704 0.9705 0.78231 0.0
H637 H 0.94991 0.91105 0.73079 0.0
H638 H 0.029 0.98972 0.73579 0.0
H639 H 0.97133 0.9305 0.68443 0.0
H640 H 0.0165 0.96362 0.60275 0.0
H641 H 0.01317 0.93691 0.6506 0.0
H642 H 0.00983 0.02195 0.69771 0.0
H643 H 0.0144 0.04827 0.65025 0.0
C644 C 0.99934 0.96141 0.76104 0.0
C645 C 0.97653 0.93951 0.76019 0.0
C646 C 0.01193 0.97236 0.7344 0.0
C647 C 0.00181 0.96184 0.70631 0.0
C648 C 0.98006 0.93882 0.70559 0.0
C649 C 0.96763 0.92775 0.73222 0.0
C650 C 0.0163 0.97648 0.62346 0.0
C651 C 0.01574 0.00799 0.62283 0.0
C652 C 0.01396 0.96122 0.65084 0.0
C653 C 0.0108 0.97726 0.67802 0.0
C654 C 0.01249 0.00878 0.67737 0.0
C655 C 0.01489 0.02394 0.6501 0.0
H656 H 0.52674 0.12113 0.26175 0.0
H657 H 0.57979 0.04044 0.26866 0.0
H658 H 0.5067 0.10334 0.21362 0.0
H659 H 0.55949 0.02267 0.22136 0.0
H660 H 0.51024 0.98565 0.14588 0.0
H661 H 0.51343 0.00526 0.19698 0.0
H662 H 0.52766 0.0946 0.16199 0.0
H663 H 0.52389 0.07485 0.11069 0.0
C664 C 0.53399 0.09956 0.25317 0.0
C665 C 0.5549 0.08222 0.26918 0.0
C666 C 0.52241 0.08937 0.22568 0.0
C667 C 0.53129 0.06151 0.2138 0.0
C668 C 0.55159 0.04393 0.23018 0.0
C669 C 0.56327 0.05414 0.25743 0.0
C670 C 0.51311 0.00962 0.14916 0.0
C671 C 0.51708 0.02873 0.12444 0.0
C672 C 0.51512 0.02082 0.17839 0.0
C673 C 0.52156 0.05133 0.1835 0.0
C674 C 0.52268 0.07097 0.15878 0.0
C675 C 0.52046 0.05971 0.1294 0.0
H676 H 0.49693 0.6356 0.27957 0.0
H677 H 0.43125 0.56389 0.28121 0.0
H678 H 0.51236 0.62241 0.331 0.0
H679 H 0.4462 0.55131 0.33214 0.0
H680 H 0.44474 0.56674 0.43077 0.0
H681 H 0.43905 0.58635 0.38015 0.0
H682 H 0.53338 0.57232 0.3632 0.0
H683 H 0.53912 0.55222 0.4144 0.0
C684 C 0.48615 0.61681 0.2907 0.0
C685 C 0.46243 0.60116 0.27666 0.0
C686 C 0.49494 0.60936 0.32003 0.0
C687 C 0.48001 0.58629 0.33557 0.0
C688 C 0.45762 0.56962 0.32081 0.0
C689 C 0.44901 0.57688 0.29171 0.0
C690 C 0.46444 0.56847 0.41653 0.0
C691 C 0.49232 0.55785 0.42636 0.0
C692 C 0.46117 0.57962 0.38758 0.0
C693 C 0.48567 0.58031 0.36773 0.0
C694 C 0.51419 0.57198 0.37819 0.0
C695 C 0.51749 0.56068 0.40743 0.0
H696 H 0.08229 0.40263 0.80602 0.0
H697 H 0.02063 0.45635 0.75451 0.0
H698 H 0.05954 0.42056 0.85231 0.0
H699 H 0.99667 0.47313 0.80094 0.0
H700 H 0.01002 0.5357 0.8848 0.0
H701 H 0.01362 0.50805 0.83784 0.0
H702 H 0.01897 0.4248 0.88722 0.0
H703 H 0.01679 0.45299 0.93444 0.0
C704 C 0.06347 0.41787 0.80457 0.0
C705 C 0.05379 0.42863 0.77657 0.0
C706 C 0.05004 0.42779 0.83117 0.0
C707 C 0.02642 0.44862 0.83047 0.0
C708 C 0.01515 0.4575 0.80234 0.0
C709 C 0.02873 0.44767 0.77568 0.0
C710 C 0.01115 0.51141 0.88558 0.0
C711 C 0.01319 0.4965 0.91323 0.0
C712 C 0.01298 0.49546 0.85861 0.0
C713 C 0.01699 0.46415 0.85865 0.0
C714 C 0.0164 0.44895 0.88637 0.0
C715 C 0.01471 0.46502 0.91345 0.0
H716 H 0.76045 0.94899 0.98088 0.0
H717 H 0.75338 0.00435 0.90181 0.0
H718 H 0.71548 0.97188 0.00154 0.0
H719 H 0.70783 0.02766 0.9227 0.0
H720 H 0.64741 0.02541 0.04443 0.0
H721 H 0.69667 0.02049 0.02104 0.0
H722 H 0.65467 0.00852 0.93439 0.0
H723 H 0.6052 0.01394 0.9579 0.0
C724 C 0.7493 0.96628 0.96803 0.0
C725 C 0.7602 0.97476 0.9397 0.0
C726 C 0.72372 0.97966 0.97999 0.0
C727 C 0.70823 0.00178 0.96384 0.0
C728 C 0.71936 0.0107 0.93562 0.0
C729 C 0.74538 0.99749 0.92376 0.0
C730 C 0.64876 0.02275 0.02024 0.0
C731 C 0.62258 0.01971 0.00299 0.0
C732 C 0.67693 0.0198 0.00687 0.0
C733 C 0.67946 0.01337 0.97603 0.0
C734 C 0.6534 0.01344 0.95822 0.0
C735 C 0.62509 0.01659 0.97165 0.0
H736 H 0.804 0.08884 0.40495 0.0
H737 H 0.75598 0.0289 0.4644 0.0
H738 H 0.85144 0.06975 0.42359 0.0
H739 H 0.80355 0.00873 0.48209 0.0
H740 H 0.88861 0.02839 0.54058 0.0
H741 H 0.84082 0.0304 0.51456 0.0
H742 H 0.88725 0.02952 0.42912 0.0
H743 H 0.93539 0.02861 0.45554 0.0
C744 C 0.80357 0.07123 0.42168 0.0
C745 C 0.77619 0.06085 0.43363 0.0
C746 C 0.83082 0.05991 0.43204 0.0
C747 C 0.83137 0.03784 0.45456 0.0
C748 C 0.80393 0.02602 0.46503 0.0
C749 C 0.77664 0.03742 0.45471 0.0
C750 C 0.88856 0.0279 0.51622 0.0
C751 C 0.91566 0.02837 0.50007 0.0
C752 C 0.86113 0.02881 0.50124 0.0
C753 C 0.86013 0.03038 0.4697 0.0
C754 C 0.88726 0.02872 0.45345 0.0
C755 C 0.91481 0.02781 0.46853 0.0
H756 H 0.2807 0.53137 0.061 0.0
H757 H 0.23321 0.59152 0.12059 0.0
H758 H 0.23289 0.51074 0.0435 0.0
H759 H 0.1856 0.57132 0.10293 0.0
H760 H 0.1018 0.52586 0.07509 0.0
H761 H 0.15083 0.52972 0.09945 0.0
H762 H 0.19381 0.53005 0.01221 0.0
H763 H 0.14514 0.52491 0.98822 0.0
C764 C 0.26005 0.54007 0.07045 0.0
C765 C 0.26071 0.56325 0.09198 0.0
C766 C 0.23267 0.52822 0.06049 0.0
C767 C 0.20536 0.53942 0.07171 0.0
C768 C 0.20614 0.56174 0.09416 0.0
C769 C 0.23348 0.57347 0.1042 0.0
C770 C 0.12184 0.52558 0.06127 0.0
C771 C 0.11971 0.52501 0.02979 0.0
C772 C 0.1499 0.52822 0.07517 0.0
C773 C 0.17627 0.5306 0.05779 0.0
C774 C 0.1741 0.528 0.02637 0.0
C775 C 0.14615 0.52529 0.01255 0.0
H776 H 0.30691 0.45145 0.65922 0.0
H777 H 0.26894 0.50461 0.58801 0.0
H778 H 0.35714 0.46834 0.64498 0.0
H779 H 0.31927 0.52106 0.57324 0.0
H780 H 0.4148 0.54977 0.5543 0.0
H781 H 0.36782 0.54677 0.58334 0.0
H782 H 0.38506 0.45299 0.60085 0.0
H783 H 0.43163 0.45635 0.5726 0.0
C784 C 0.30934 0.46714 0.64081 0.0
C785 C 0.28416 0.47634 0.62437 0.0
C786 C 0.33805 0.47681 0.63264 0.0
C787 C 0.34225 0.49561 0.60764 0.0
C788 C 0.31683 0.50673 0.59271 0.0
C789 C 0.288 0.49723 0.60108 0.0
C790 C 0.40884 0.52891 0.5653 0.0
C791 C 0.42677 0.50335 0.56157 0.0
C792 C 0.38189 0.52707 0.5816 0.0
C793 C 0.37269 0.49965 0.59445 0.0
C794 C 0.39161 0.4746 0.59178 0.0
C795 C 0.41822 0.47641 0.57541 0.0
H796 H 0.97953 0.76209 0.94543 0.0
H797 H 0.8976 0.75395 0.99682 0.0
H798 H 0.99819 0.71621 0.96782 0.0
H799 H 0.91654 0.70755 0.01975 0.0
H800 H 0.95082 0.605 0.00592 0.0
H801 H 0.92835 0.65487 1.00034 0.0
H802 H 0.01498 0.69587 0.01627 0.0
H803 H 0.03732 0.64627 0.02096 0.0
C804 C 0.96561 0.75051 0.96175 0.0
C805 C 0.93707 0.76139 0.96923 0.0
C806 C 0.97642 0.72439 0.97486 0.0
C807 C 0.95893 0.70837 0.99577 0.0
C808 C 0.93049 0.71947 0.00372 0.0
C809 C 0.91974 0.74599 0.99075 0.0
C810 C 0.9647 0.62478 0.00925 0.0
C811 C 0.99578 0.622 0.01346 0.0
C812 C 0.9519 0.65329 0.00609 0.0
C813 C 0.9701 0.67921 0.00716 0.0
C814 C 1.00055 0.67627 0.01465 0.0
C815 C 0.01331 0.64793 0.0175 0.0
H816 H 0.48848 0.7725 0.07828 0.0
H817 H 0.40596 0.78058 0.02843 0.0
H818 H 0.50688 0.819 0.0563 0.0
H819 H 0.42449 0.82769 0.00611 0.0
H820 H 0.54453 0.89139 0.00423 0.0
H821 H 0.52267 0.84122 0.00764 0.0
H822 H 0.43622 0.87994 0.02776 0.0
H823 H 0.45818 0.93034 0.02394 0.0
C824 C 0.47442 0.78417 0.06232 0.0
C825 C 0.44578 0.77312 0.05516 0.0
C826 C 0.48505 0.81065 0.04948 0.0
C827 C 0.4672 0.82691 0.02929 0.0
C828 C 0.4387 0.81558 0.02158 0.0
C829 C 0.42819 0.78867 0.0342 0.0
C830 C 0.52063 0.88917 0.00835 0.0
C831 C 0.50307 0.91463 0.01409 0.0
C832 C 0.50816 0.86048 0.01044 0.0
C833 C 0.47792 0.85667 0.01867 0.0
C834 C 0.45959 0.88219 0.02137 0.0
C835 C 0.47213 0.91104 0.01914 0.0
H836 H 0.13387 0.24143 0.58408 0.0
H837 H 0.07691 0.28968 0.52268 0.0
H838 H 0.11534 0.19403 0.56399 0.0
H839 H 0.05848 0.24207 0.50222 0.0
H840 H 0.99877 0.15732 0.52077 0.0
H841 H 0.02529 0.20502 0.52336 0.0
H842 H 0.11005 0.15819 0.52314 0.0
H843 H 0.08312 0.11015 0.5216 0.0
C844 C 0.118 0.24192 0.56569 0.0
C845 C 0.10658 0.26932 0.55524 0.0
C846 C 0.10743 0.21468 0.55404 0.0
C847 C 0.08523 0.21419 0.53162 0.0
C848 C 0.07522 0.24165 0.51984 0.0
C849 C 0.08571 0.26891 0.53159 0.0
C850 C 0.02309 0.15725 0.52054 0.0
C851 C 0.0389 0.13008 0.52105 0.0
C852 C 0.03836 0.18464 0.52179 0.0
C853 C 0.06985 0.18549 0.52374 0.0
C854 C 0.08577 0.15829 0.52206 0.0
C855 C 0.0704 0.13079 0.5208 0.0
H856 H 0.55931 0.28153 0.43044 0.0
H857 H 0.63354 0.2858 0.49267 0.0
H858 H 0.5441 0.3317 0.4455 0.0
H859 H 0.6178 0.33649 0.50817 0.0
H860 H 0.54802 0.41627 0.5396 0.0
H861 H 0.56976 0.36601 0.532 0.0
H862 H 0.5724 0.38157 0.43629 0.0
H863 H 0.55123 0.43127 0.44385 0.0
C864 C 0.57237 0.2932 0.4474 0.0
C865 C 0.59802 0.27999 0.45986 0.0
C866 C 0.5636 0.32189 0.45608 0.0
C867 C 0.58015 0.33812 0.47755 0.0
C868 C 0.60478 0.32441 0.49147 0.0
C869 C 0.61371 0.29549 0.48263 0.0
C870 C 0.55428 0.40919 0.51714 0.0
C871 C 0.54804 0.42751 0.4923 0.0
C872 C 0.56647 0.38047 0.51278 0.0
C873 C 0.57221 0.36984 0.48351 0.0
C874 C 0.56768 0.38904 0.45902 0.0
C875 C 0.55565 0.41748 0.46336 0.0
loop_
_geom_bond_atom_site_label_1
_geom_bond_atom_site_label_2
_geom_bond_distance
_geom_bond_site_symmetry_2
_ccdc_geom_bond_type
C0 C1 1.386 . S
C0 C2 1.397 . S
C0 H24 0.931 . S
C1 C0 1.386 . S
C1 C5 1.397 . S
C2 C0 1.397 . S
C2 C3 1.384 . S
C2 H25 0.930 . S
C3 C2 1.384 . S
C3 C4 1.377 . S
C3 C6 1.481 . S
C4 C3 1.377 . S
C4 C5 1.389 . S
C4 H26 0.929 . S
C5 C1 1.397 . S
C5 C4 1.389 . S
C5 H27 0.931 . S
C6 C3 1.481 . S
C6 C7 1.387 . S
C6 C11 1.390 . S
C7 C6 1.387 . S
C7 C8 1.401 . S
C7 H28 0.930 . S
C8 C7 1.401 . S
C8 C9 1.376 . S
C8 C17 1.511 . S
C9 C8 1.376 . S
C9 C10 1.392 . S
C9 H30 0.931 . S
C10 C9 1.392 . S
C10 C11 1.361 . S
C10 C12 1.500 . S
C11 C6 1.390 . S
C11 C10 1.361 . S
C11 H29 0.931 . S
C12 C10 1.500 . S
C12 C13 1.371 . S
C12 C14 1.365 . S
C13 C12 1.371 . S
C13 C23 1.386 . S
C13 H31 0.931 . S
C14 C12 1.365 . S
C14 C15 1.409 . S
C14 H32 0.929 . S
C15 C14 1.409 . S
C15 C16 1.380 . S
C15 H33 0.930 . S
C16 C15 1.380 . S
C16 C23 1.357 . S
C17 C8 1.511 . S
C17 C18 1.341 . S
C17 C19 1.371 . S
C18 C17 1.341 . S
C18 C22 1.394 . S
C18 H34 0.930 . S
C19 C17 1.371 . S
C19 C20 1.392 . S
C19 H35 0.931 . S
C20 C19 1.392 . S
C20 C21 1.331 . S
C20 H38 0.932 . S
C21 C20 1.331 . S
C21 C22 1.336 . S
C22 C18 1.394 . S
C22 C21 1.336 . S
C22 H37 0.929 . S
C23 C13 1.386 . S
C23 C16 1.357 . S
C23 H36 0.928 . S
H24 C0 0.931 . S
H25 C2 0.930 . S
H26 C4 0.929 . S
H27 C5 0.931 . S
H28 C7 0.930 . S
H29 C11 0.931 . S
H30 C9 0.931 . S
H31 C13 0.931 . S
H32 C14 0.929 . S
H33 C15 0.930 . S
H34 C18 0.930 . S
H35 C19 0.931 . S
H36 C23 0.928 . S
H37 C22 0.929 . S
H38 C20 0.932 . S
C39 C40 1.386 . S
C39 C41 1.397 . S
C39 H63 0.931 . S
C40 C39 1.386 . S
C40 C44 1.397 . S
C41 C39 1.397 . S
C41 C42 1.384 . S
C41 H64 0.930 . S
C42 C41 1.384 . S
C42 C43 1.377 . S
C42 C45 1.481 . S
C43 C42 1.377 . S
C43 C44 1.389 . S
C43 H65 0.929 . S
C44 C40 1.397 . S
C44 C43 1.389 . S
C44 H66 0.931 . S
C45 C42 1.481 . S
C45 C46 1.387 . S
C45 C50 1.390 . S
C46 C45 1.387 . S
C46 C47 1.401 . S
C46 H67 0.930 . S
C47 C46 1.401 . S
C47 C48 1.376 . S
C47 C56 1.511 . S
C48 C47 1.376 . S
C48 C49 1.392 . S
C48 H69 0.931 . S
C49 C48 1.392 . S
C49 C50 1.361 . S
C49 C51 1.500 . S
C50 C45 1.390 . S
C50 C49 1.361 . S
C50 H68 0.931 . S
C51 C49 1.500 . S
C51 C52 1.371 . S
C51 C53 1.365 . S
C52 C51 1.371 . S
C52 C62 1.386 . S
C52 H70 0.931 . S
C53 C51 1.365 . S
C53 C54 1.409 . S
C53 H71 0.929 . S
C54 C53 1.409 . S
C54 C55 1.380 . S
C54 H72 0.930 . S
C55 C54 1.380 . S
C55 C62 1.357 . S
C56 C47 1.511 . S
C56 C57 1.341 . S
C56 C58 1.371 . S
C57 C56 1.341 . S
C57 C61 1.394 . S
C57 H73 0.930 . S
C58 C56 1.371 . S
C58 C59 1.392 . S
C58 H74 0.931 . S
C59 C58 1.392 . S
C59 C60 1.331 . S
C59 H77 0.932 . S
C60 C59 1.331 . S
C60 C61 1.336 . S
C61 C57 1.394 . S
C61 C60 1.336 . S
C61 H76 0.929 . S
C62 C52 1.386 . S
C62 C55 1.357 . S
C62 H75 0.928 . S
H63 C39 0.931 . S
H64 C41 0.930 . S
H65 C43 0.929 . S
H66 C44 0.931 . S
H67 C46 0.930 . S
H68 C50 0.931 . S
H69 C48 0.931 . S
H70 C52 0.931 . S
H71 C53 0.929 . S
H72 C54 0.930 . S
H73 C57 0.930 . S
H74 C58 0.931 . S
H75 C62 0.928 . S
H76 C61 0.929 . S
H77 C59 0.932 . S
C78 C79 1.386 . S
C78 C80 1.397 . S
C78 H102 0.931 . S
C79 C78 1.386 . S
C79 C83 1.397 . S
C80 C78 1.397 . S
C80 C81 1.384 . S
C80 H103 0.930 . S
C81 C80 1.384 . S
C81 C82 1.377 . S
C81 C84 1.481 . S
C82 C81 1.377 . S
C82 C83 1.389 . S
C82 H104 0.929 . S
C83 C79 1.397 . S
C83 C82 1.389 . S
C83 H105 0.931 . S
C84 C81 1.481 . S
C84 C85 1.387 . S
C84 C89 1.390 . S
C85 C84 1.387 . S
C85 C86 1.401 . S
C85 H106 0.930 . S
C86 C85 1.401 . S
C86 C87 1.376 . S
C86 C95 1.511 . S
C87 C86 1.376 . S
C87 C88 1.392 . S
C87 H108 0.931 . S
C88 C87 1.392 . S
C88 C89 1.361 . S
C88 C90 1.500 . S
C89 C84 1.390 . S
C89 C88 1.361 . S
C89 H107 0.931 . S
C90 C88 1.500 . S
C90 C91 1.371 . S
C90 C92 1.365 . S
C91 C90 1.371 . S
C91 C101 1.386 . S
C91 H109 0.931 . S
C92 C90 1.365 . S
C92 C93 1.409 . S
C92 H110 0.929 . S
C93 C92 1.409 . S
C93 C94 1.380 . S
C93 H111 0.930 . S
C94 C93 1.380 . S
C94 C101 1.357 . S
C95 C86 1.511 . S
C95 C96 1.341 . S
C95 C97 1.371 . S
C96 C95 1.341 . S
C96 C100 1.394 . S
C96 H112 0.930 . S
C97 C95 1.371 . S
C97 C98 1.392 . S
C97 H113 0.931 . S
C98 C97 1.392 . S
C98 C99 1.331 . S
C98 H116 0.932 . S
C99 C98 1.331 . S
C99 C100 1.336 . S
C100 C96 1.394 . S
C100 C99 1.336 . S
C100 H115 0.929 . S
C101 C91 1.386 . S
C101 C94 1.357 . S
C101 H114 0.928 . S
H102 C78 0.931 . S
H103 C80 0.930 . S
H104 C82 0.929 . S
H105 C83 0.931 . S
H106 C85 0.930 . S
H107 C89 0.931 . S
H108 C87 0.931 . S
H109 C91 0.931 . S
H110 C92 0.929 . S
H111 C93 0.930 . S
H112 C96 0.930 . S
H113 C97 0.931 . S
H114 C101 0.928 . S
H115 C100 0.929 . S
H116 C98 0.932 . S
C117 C118 1.386 . S
C117 C119 1.397 . S
C117 H141 0.931 . S
C118 C117 1.386 . S
C118 C122 1.397 . S
C119 C117 1.397 . S
C119 C120 1.384 . S
C119 H142 0.930 . S
C120 C119 1.384 . S
C120 C121 1.377 . S
C120 C123 1.481 . S
C121 C120 1.377 . S
C121 C122 1.389 . S
C121 H143 0.929 . S
C122 C118 1.397 . S
C122 C121 1.389 . S
C122 H144 0.931 . S
C123 C120 1.481 . S
C123 C124 1.387 . S
C123 C128 1.390 . S
C124 C123 1.387 . S
C124 C125 1.401 . S
C124 H145 0.930 . S
C125 C124 1.401 . S
C125 C126 1.376 . S
C125 C134 1.511 . S
C126 C125 1.376 . S
C126 C127 1.392 . S
C126 H147 0.931 . S
C127 C126 1.392 . S
C127 C128 1.361 . S
C127 C129 1.500 . S
C128 C123 1.390 . S
C128 C127 1.361 . S
C128 H146 0.931 . S
C129 C127 1.500 . S
C129 C130 1.371 . S
C129 C131 1.365 . S
C130 C129 1.371 . S
C130 C140 1.386 . S
C130 H148 0.931 . S
C131 C129 1.365 . S
C131 C132 1.409 . S
C131 H149 0.929 . S
C132 C131 1.409 . S
C132 C133 1.380 . S
C132 H150 0.930 . S
C133 C132 1.380 . S
C133 C140 1.357 . S
C134 C125 1.511 . S
C134 C135 1.341 . S
C134 C136 1.371 . S
C135 C134 1.341 . S
C135 C139 1.394 . S
C135 H151 0.930 . S
C136 C134 1.371 . S
C136 C137 1.392 . S
C136 H152 0.931 . S
C137 C136 1.392 . S
C137 C138 1.331 . S
C137 H155 0.932 . S
C138 C137 1.331 . S
C138 C139 1.336 . S
C139 C135 1.394 . S
C139 C138 1.336 . S
C139 H154 0.929 . S
C140 C130 1.386 . S
C140 C133 1.357 . S
C140 H153 0.928 . S
H141 C117 0.931 . S
H142 C119 0.930 . S
H143 C121 0.929 . S
H144 C122 0.931 . S
H145 C124 0.930 . S
H146 C128 0.931 . S
H147 C126 0.931 . S
H148 C130 0.931 . S
H149 C131 0.929 . S
H150 C132 0.930 . S
H151 C135 0.930 . S
H152 C136 0.931 . S
H153 C140 0.928 . S
H154 C139 0.929 . S
H155 C137 0.932 . S
C156 C157 1.386 . S
C156 C158 1.397 . S
C156 H180 0.931 . S
C157 C156 1.386 . S
C157 C161 1.397 1_565 S
C158 C156 1.397 . S
C158 C159 1.384 . S
C158 H181 0.930 . S
C159 C158 1.384 . S
C159 C160 1.377 . S
C159 C162 1.481 . S
C160 C159 1.377 . S
C160 C161 1.389 1_565 S
C160 H182 0.929 1_565 S
C161 C157 1.397 1_545 S
C161 C160 1.389 1_545 S
C161 H183 0.931 . S
C162 C159 1.481 . S
C162 C163 1.387 . S
C162 C167 1.390 . S
C163 C162 1.387 . S
C163 C164 1.401 . S
C163 H184 0.930 . S
C164 C163 1.401 . S
C164 C165 1.376 . S
C164 C173 1.511 . S
C165 C164 1.376 . S
C165 C166 1.392 . S
C165 H186 0.931 . S
C166 C165 1.392 . S
C166 C167 1.361 . S
C166 C168 1.500 . S
C167 C162 1.390 . S
C167 C166 1.361 . S
C167 H185 0.931 . S
C168 C166 1.500 . S
C168 C169 1.371 . S
C168 C170 1.365 . S
C169 C168 1.371 . S
C169 C179 1.386 . S
C169 H187 0.931 . S
C170 C168 1.365 . S
C170 C171 1.411 . S
C170 H188 0.932 . S
C171 C170 1.411 . S
C171 C172 1.383 . S
C171 H189 0.926 1_565 S
C172 C171 1.383 . S
C172 C179 1.357 . S
C173 C164 1.511 . S
C173 C174 1.341 . S
C173 C175 1.371 . S
C174 C173 1.341 . S
C174 C178 1.394 . S
C174 H190 0.930 . S
C175 C173 1.371 . S
C175 C176 1.392 . S
C175 H191 0.931 . S
C176 C175 1.392 . S
C176 C177 1.331 . S
C176 H194 0.932 1_556 S
C177 C176 1.331 . S
C177 C178 1.336 . S
C178 C174 1.394 . S
C178 C177 1.336 . S
C178 H193 0.929 1_655 S
C179 C169 1.386 . S
C179 C172 1.357 . S
C179 H192 0.928 . S
H180 C156 0.931 . S
H181 C158 0.930 . S
H182 C160 0.929 1_545 S
H183 C161 0.931 . S
H184 C163 0.930 . S
H185 C167 0.931 . S
H186 C165 0.931 . S
H187 C169 0.931 . S
H188 C170 0.932 . S
H189 C171 0.926 1_545 S
H190 C174 0.930 . S
H191 C175 0.931 . S
H192 C179 0.928 . S
H193 C178 0.929 1_455 S
H194 C176 0.932 1_554 S
C195 C196 1.386 . S
C195 C197 1.397 . S
C195 H219 0.931 . S
C196 C195 1.386 . S
C196 C200 1.397 . S
C197 C195 1.397 . S
C197 C198 1.384 . S
C197 H220 0.930 . S
C198 C197 1.384 . S
C198 C199 1.377 . S
C198 C201 1.481 . S
C199 C198 1.377 . S
C199 C200 1.389 . S
C199 H221 0.929 . S
C200 C196 1.397 . S
C200 C199 1.389 . S
C200 H222 0.931 . S
C201 C198 1.481 . S
C201 C202 1.387 . S
C201 C206 1.390 . S
C202 C201 1.387 . S
C202 C203 1.401 . S
C202 H223 0.930 . S
C203 C202 1.401 . S
C203 C204 1.376 . S
C203 C212 1.511 . S
C204 C203 1.376 . S
C204 C205 1.392 . S
C204 H225 0.931 . S
C205 C204 1.392 . S
C205 C206 1.361 . S
C205 C207 1.500 . S
C206 C201 1.390 . S
C206 C205 1.361 . S
C206 H224 0.931 . S
C207 C205 1.500 . S
C207 C208 1.371 . S
C207 C209 1.365 . S
C208 C207 1.371 . S
C208 C218 1.386 . S
C208 H226 0.931 . S
C209 C207 1.365 . S
C209 C210 1.409 . S
C209 H227 0.929 . S
C210 C209 1.409 . S
C210 C211 1.380 . S
C210 H228 0.930 . S
C211 C210 1.380 . S
C211 C218 1.357 . S
C212 C203 1.511 . S
C212 C213 1.341 . S
C212 C214 1.371 . S
C213 C212 1.341 . S
C213 C217 1.394 . S
C213 H229 0.930 . S
C214 C212 1.371 . S
C214 C215 1.392 . S
C214 H230 0.931 . S
C215 C214 1.392 . S
C215 C216 1.331 . S
C215 H233 0.932 . S
C216 C215 1.331 . S
C216 C217 1.336 . S
C217 C213 1.394 . S
C217 C216 1.336 . S
C217 H232 0.929 . S
C218 C208 1.386 . S
C218 C211 1.357 . S
C218 H231 0.928 . S
H219 C195 0.931 . S
H220 C197 0.930 . S
H221 C199 0.929 . S
H222 C200 0.931 . S
H223 C202 0.930 . S
H224 C206 0.931 . S
H225 C204 0.931 . S
H226 C208 0.931 . S
H227 C209 0.929 . S
H228 C210 0.930 . S
H229 C213 0.930 . S
H230 C214 0.931 . S
H231 C218 0.928 . S
H232 C217 0.929 . S
H233 C215 0.932 . S
C234 C235 1.386 . S
C234 C236 1.397 . S
C234 H258 0.931 . S
C235 C234 1.386 . S
C235 C239 1.397 . S
C236 C234 1.397 . S
C236 C237 1.384 . S
C236 H259 0.930 . S
C237 C236 1.384 . S
C237 C238 1.377 . S
C237 C240 1.481 . S
C238 C237 1.377 . S
C238 C239 1.389 . S
C238 H260 0.929 . S
C239 C235 1.397 . S
C239 C238 1.389 . S
C239 H261 0.931 . S
C240 C237 1.481 . S
C240 C241 1.387 . S
C240 C245 1.390 . S
C241 C240 1.387 . S
C241 C242 1.401 . S
C241 H262 0.930 . S
C242 C241 1.401 . S
C242 C243 1.376 . S
C242 C251 1.511 . S
C243 C242 1.376 . S
C243 C244 1.392 . S
C243 H264 0.931 . S
C244 C243 1.392 . S
C244 C245 1.361 . S
C244 C246 1.500 . S
C245 C240 1.390 . S
C245 C244 1.361 . S
C245 H263 0.931 . S
C246 C244 1.500 . S
C246 C247 1.371 . S
C246 C248 1.365 . S
C247 C246 1.371 . S
C247 C257 1.386 . S
C247 H265 0.931 . S
C248 C246 1.365 . S
C248 C249 1.409 . S
C248 H266 0.929 . S
C249 C248 1.409 . S
C249 C250 1.380 . S
C249 H267 0.930 . S
C250 C249 1.380 . S
C250 C257 1.357 . S
C251 C242 1.511 . S
C251 C252 1.341 . S
C251 C253 1.371 . S
C252 C251 1.341 . S
C252 C256 1.394 . S
C252 H268 0.930 . S
C253 C251 1.371 . S
C253 C254 1.392 . S
C253 H269 0.931 . S
C254 C253 1.392 . S
C254 C255 1.331 . S
C254 H272 0.932 . S
C255 C254 1.331 . S
C255 C256 1.336 . S
C256 C252 1.394 . S
C256 C255 1.336 . S
C256 H271 0.929 . S
C257 C247 1.386 . S
C257 C250 1.357 . S
C257 H270 0.928 . S
H258 C234 0.931 . S
H259 C236 0.930 . S
H260 C238 0.929 . S
H261 C239 0.931 . S
H262 C241 0.930 . S
H263 C245 0.931 . S
H264 C243 0.931 . S
H265 C247 0.931 . S
H266 C248 0.929 . S
H267 C249 0.930 . S
H268 C252 0.930 . S
H269 C253 0.931 . S
H270 C257 0.928 . S
H271 C256 0.929 . S
H272 C254 0.932 . S
C273 C274 1.386 . S
C273 C275 1.397 . S
C273 H297 0.931 . S
C274 C273 1.386 . S
C274 C278 1.397 . S
C275 C273 1.397 . S
C275 C276 1.384 . S
C275 H298 0.930 . S
C276 C275 1.384 . S
C276 C277 1.377 . S
C276 C279 1.481 . S
C277 C276 1.377 . S
C277 C278 1.389 . S
C277 H299 0.929 . S
C278 C274 1.397 . S
C278 C277 1.389 . S
C278 H300 0.931 . S
C279 C276 1.481 . S
C279 C280 1.387 . S
C279 C284 1.390 . S
C280 C279 1.387 . S
C280 C281 1.401 . S
C280 H301 0.930 . S
C281 C280 1.401 . S
C281 C282 1.376 . S
C281 C290 1.511 . S
C282 C281 1.376 . S
C282 C283 1.392 . S
C282 H303 0.931 . S
C283 C282 1.392 . S
C283 C284 1.361 . S
C283 C285 1.500 . S
C284 C279 1.390 . S
C284 C283 1.361 . S
C284 H302 0.931 . S
C285 C283 1.500 . S
C285 C286 1.371 . S
C285 C287 1.365 . S
C286 C285 1.371 . S
C286 C296 1.386 . S
C286 H304 0.931 . S
C287 C285 1.365 . S
C287 C288 1.409 . S
C287 H305 0.929 . S
C288 C287 1.409 . S
C288 C289 1.380 . S
C288 H306 0.930 . S
C289 C288 1.380 . S
C289 C296 1.357 . S
C290 C281 1.511 . S
C290 C291 1.341 . S
C290 C292 1.371 . S
C291 C290 1.341 . S
C291 C295 1.394 . S
C291 H307 0.930 . S
C292 C290 1.371 . S
C292 C293 1.392 . S
C292 H308 0.931 . S
C293 C292 1.392 . S
C293 C294 1.331 . S
C293 H311 0.932 . S
C294 C293 1.331 . S
C294 C295 1.336 . S
C295 C291 1.394 . S
C295 C294 1.336 . S
C295 H310 0.929 . S
C296 C286 1.386 . S
C296 C289 1.357 . S
C296 H309 0.928 . S
H297 C273 0.931 . S
H298 C275 0.930 . S
H299 C277 0.929 . S
H300 C278 0.931 . S
H301 C280 0.930 . S
H302 C284 0.931 . S
H303 C282 0.931 . S
H304 C286 0.931 . S
H305 C287 0.929 . S
H306 C288 0.930 . S
H307 C291 0.930 . S
H308 C292 0.931 . S
H309 C296 0.928 . S
H310 C295 0.929 . S
H311 C293 0.932 . S
Zn312 O318 1.920 . S
Zn312 O324 1.898 . S
Zn312 O327 1.905 . S
Zn313 O321 1.905 1_565 S
Zn313 O322 1.898 . S
Zn313 O330 1.920 . S
Zn314 O317 2.080 1_455 S
Zn314 O320 2.114 . S
Zn314 O323 2.120 1_445 S
Zn314 O325 2.120 . S
Zn314 O326 2.114 1_455 S
Zn314 O329 2.080 . S
C315 O320 1.166 . S
C315 O321 1.182 . S
C316 O322 1.167 1_655 S
C316 O323 1.299 . S
O317 Zn314 2.080 1_655 S
O317 C331 1.305 . S
O318 Zn312 1.920 . S
O318 C331 1.234 . S
C319 O324 1.167 1_455 S
C319 O325 1.299 . S
O320 Zn314 2.114 . S
O320 C315 1.166 . S
O321 Zn313 1.905 1_545 S
O321 C315 1.182 . S
O322 Zn313 1.898 . S
O322 C316 1.167 1_455 S
O323 Zn314 2.120 1_665 S
O323 C316 1.299 . S
O324 Zn312 1.898 . S
O324 C319 1.167 1_655 S
O325 Zn314 2.120 . S
O325 C319 1.299 . S
O326 Zn314 2.114 1_655 S
O326 C328 1.166 . S
O327 Zn312 1.905 . S
O327 C328 1.182 . S
C328 O326 1.166 . S
C328 O327 1.182 . S
O329 Zn314 2.080 . S
O329 C332 1.305 1_545 S
O330 Zn313 1.920 . S
O330 C332 1.234 . S
C331 O317 1.305 . S
C331 O318 1.234 . S
C332 O329 1.305 1_565 S
C332 O330 1.234 . S
Zn333 O339 1.920 1_556 S
Zn333 O345 1.898 . S
Zn333 O348 1.905 . S
Zn334 O342 1.905 . S
Zn334 O343 1.898 . S
Zn334 O351 1.920 . S
Zn335 O338 2.080 . S
Zn335 O341 2.114 1_545 S
Zn335 O344 2.120 1_545 S
Zn335 O346 2.120 . S
Zn335 O347 2.114 1_544 S
Zn335 O350 2.080 . S
C336 O341 1.166 . S
C336 O342 1.182 . S
C337 O343 1.167 . S
C337 O344 1.299 . S
O338 Zn335 2.080 . S
O338 C352 1.305 . S
O339 Zn333 1.920 1_554 S
O339 C352 1.234 . S
C340 O345 1.167 . S
C340 O346 1.299 1_556 S
O341 Zn335 2.114 1_565 S
O341 C336 1.166 . S
O342 Zn334 1.905 . S
O342 C336 1.182 . S
O343 Zn334 1.898 . S
O343 C337 1.167 . S
O344 Zn335 2.120 1_565 S
O344 C337 1.299 . S
O345 Zn333 1.898 . S
O345 C340 1.167 . S
O346 Zn335 2.120 . S
O346 C340 1.299 1_554 S
O347 Zn335 2.114 1_566 S
O347 C349 1.166 . S
O348 Zn333 1.905 . S
O348 C349 1.182 1_545 S
C349 O347 1.166 . S
C349 O348 1.182 1_565 S
O350 Zn335 2.080 . S
O350 C353 1.305 . S
O351 Zn334 1.920 . S
O351 C353 1.234 1_565 S
C352 O338 1.305 . S
C352 O339 1.234 . S
C353 O350 1.305 . S
C353 O351 1.234 1_545 S
Zn354 O360 1.920 . S
Zn354 O366 1.898 . S
Zn354 O369 1.905 . S
Zn355 O363 1.905 . S
Zn355 O364 1.898 . S
Zn355 O372 1.920 . S
Zn356 O359 2.080 . S
Zn356 O362 2.114 . S
Zn356 O365 2.120 . S
Zn356 O367 2.120 . S
Zn356 O368 2.114 . S
Zn356 O371 2.080 . S
C357 O362 1.166 . S
C357 O363 1.182 . S
C358 O364 1.167 . S
C358 O365 1.299 . S
O359 Zn356 2.080 . S
O359 C373 1.305 . S
O360 Zn354 1.920 . S
O360 C373 1.234 . S
C361 O366 1.167 . S
C361 O367 1.299 . S
O362 Zn356 2.114 . S
O362 C357 1.166 . S
O363 Zn355 1.905 . S
O363 C357 1.182 . S
O364 Zn355 1.898 . S
O364 C358 1.167 . S
O365 Zn356 2.120 . S
O365 C358 1.299 . S
O366 Zn354 1.898 . S
O366 C361 1.167 . S
O367 Zn356 2.120 . S
O367 C361 1.299 . S
O368 Zn356 2.114 . S
O368 C370 1.166 . S
O369 Zn354 1.905 . S
O369 C370 1.182 . S
C370 O368 1.166 . S
C370 O369 1.182 . S
O371 Zn356 2.080 . S
O371 C374 1.305 . S
O372 Zn355 1.920 . S
O372 C374 1.234 . S
C373 O359 1.305 . S
C373 O360 1.234 . S
C374 O371 1.305 . S
C374 O372 1.234 . S
Zn375 O381 1.920 . S
Zn375 O387 1.898 . S
Zn375 O390 1.905 . S
Zn376 O384 1.905 1_655 S
Zn376 O385 1.898 . S
Zn376 O393 1.920 . S
Zn377 O380 2.080 1_554 S
Zn377 O383 2.114 . S
Zn377 O386 2.120 1_454 S
Zn377 O388 2.120 . S
Zn377 O389 2.114 1_554 S
Zn377 O392 2.080 . S
C378 O383 1.166 . S
C378 O384 1.182 . S
C379 O385 1.167 1_556 S
C379 O386 1.299 . S
O380 Zn377 2.080 1_556 S
O380 C394 1.305 . S
O381 Zn375 1.920 . S
O381 C394 1.234 . S
C382 O387 1.167 1_554 S
C382 O388 1.299 . S
O383 Zn377 2.114 . S
O383 C378 1.166 . S
O384 Zn376 1.905 1_455 S
O384 C378 1.182 . S
O385 Zn376 1.898 . S
O385 C379 1.167 1_554 S
O386 Zn377 2.120 1_656 S
O386 C379 1.299 . S
O387 Zn375 1.898 . S
O387 C382 1.167 1_556 S
O388 Zn377 2.120 . S
O388 C382 1.299 . S
O389 Zn377 2.114 1_556 S
O389 C391 1.166 . S
O390 Zn375 1.905 . S
O390 C391 1.182 . S
C391 O389 1.166 . S
C391 O390 1.182 . S
O392 Zn377 2.080 . S
O392 C395 1.305 1_455 S
O393 Zn376 1.920 . S
O393 C395 1.234 . S
C394 O380 1.305 . S
C394 O381 1.234 . S
C395 O392 1.305 1_655 S
C395 O393 1.234 . S
H396 C404 0.950 . S
H397 C409 0.950 . S
H398 C406 0.950 . S
H399 C408 0.950 . S
H400 C410 0.950 . S
H401 C412 0.950 . S
H402 C414 0.950 . S
H403 C415 0.950 . S
C404 H396 0.950 . S
C404 C405 1.386 . S
C404 C406 1.391 . S
C405 C404 1.386 . S
C405 C409 1.393 . S
C406 H398 0.950 . S
C406 C404 1.391 . S
C406 C407 1.400 . S
C407 C406 1.400 . S
C407 C408 1.398 . S
C407 C413 1.491 . S
C408 H399 0.950 . S
C408 C407 1.398 . S
C408 C409 1.391 . S
C409 H397 0.950 . S
C409 C405 1.393 . S
C409 C408 1.391 . S
C410 H400 0.950 . S
C410 C411 1.386 . S
C410 C412 1.391 . S
C411 C410 1.386 . S
C411 C415 1.393 . S
C412 H401 0.950 . S
C412 C410 1.391 . S
C412 C413 1.400 . S
C413 C407 1.491 . S
C413 C412 1.400 . S
C413 C414 1.398 . S
C414 H402 0.950 . S
C414 C413 1.398 . S
C414 C415 1.391 . S
C415 H403 0.950 . S
C415 C411 1.393 . S
C415 C414 1.391 . S
H416 C424 0.950 . S
H417 C429 0.950 . S
H418 C426 0.950 . S
H419 C428 0.950 . S
H420 C430 0.950 . S
H421 C432 0.950 . S
H422 C434 0.950 . S
H423 C435 0.950 . S
C424 H416 0.950 . S
C424 C425 1.386 . S
C424 C426 1.391 . S
C425 C424 1.386 . S
C425 C429 1.393 . S
C426 H418 0.950 . S
C426 C424 1.391 . S
C426 C427 1.400 . S
C427 C426 1.400 . S
C427 C428 1.398 . S
C427 C433 1.491 . S
C428 H419 0.950 . S
C428 C427 1.398 . S
C428 C429 1.391 . S
C429 H417 0.950 . S
C429 C425 1.393 . S
C429 C428 1.391 . S
C430 H420 0.950 . S
C430 C431 1.386 . S
C430 C432 1.391 . S
C431 C430 1.386 . S
C431 C435 1.393 . S
C432 H421 0.950 . S
C432 C430 1.391 . S
C432 C433 1.400 . S
C433 C427 1.491 . S
C433 C432 1.400 . S
C433 C434 1.398 . S
C434 H422 0.950 . S
C434 C433 1.398 . S
C434 C435 1.391 . S
C435 H423 0.950 . S
C435 C431 1.393 . S
C435 C434 1.391 . S
H436 C444 0.950 . S
H437 C449 0.950 . S
H438 C446 0.950 . S
H439 C448 0.950 . S
H440 C450 0.950 . S
H441 C452 0.950 . S
H442 C454 0.950 . S
H443 C455 0.950 . S
C444 H436 0.950 . S
C444 C445 1.386 . S
C444 C446 1.391 . S
C445 C444 1.386 . S
C445 C449 1.393 . S
C446 H438 0.950 . S
C446 C444 1.391 . S
C446 C447 1.400 . S
C447 C446 1.400 . S
C447 C448 1.398 . S
C447 C453 1.491 . S
C448 H439 0.950 . S
C448 C447 1.398 . S
C448 C449 1.391 . S
C449 H437 0.950 . S
C449 C445 1.393 . S
C449 C448 1.391 . S
C450 H440 0.950 . S
C450 C451 1.386 . S
C450 C452 1.391 . S
C451 C450 1.386 . S
C451 C455 1.393 . S
C452 H441 0.950 . S
C452 C450 1.391 . S
C452 C453 1.400 . S
C453 C447 1.491 . S
C453 C452 1.400 . S
C453 C454 1.398 . S
C454 H442 0.950 . S
C454 C453 1.398 . S
C454 C455 1.391 . S
C455 H443 0.950 . S
C455 C451 1.393 . S
C455 C454 1.391 . S
H456 C464 0.950 . S
H457 C469 0.950 . S
H458 C466 0.950 . S
H459 C468 0.950 . S
H460 C470 0.950 . S
H461 C472 0.950 . S
H462 C474 0.950 . S
H463 C475 0.950 . S
C464 H456 0.950 . S
C464 C465 1.386 . S
C464 C466 1.391 . S
C465 C464 1.386 . S
C465 C469 1.393 . S
C466 H458 0.950 . S
C466 C464 1.391 . S
C466 C467 1.400 . S
C467 C466 1.400 . S
C467 C468 1.398 . S
C467 C473 1.491 . S
C468 H459 0.950 . S
C468 C467 1.398 . S
C468 C469 1.391 . S
C469 H457 0.950 . S
C469 C465 1.393 . S
C469 C468 1.391 . S
C470 H460 0.950 . S
C470 C471 1.386 . S
C470 C472 1.391 . S
C471 C470 1.386 . S
C471 C475 1.393 . S
C472 H461 0.950 . S
C472 C470 1.391 . S
C472 C473 1.400 . S
C473 C467 1.491 . S
C473 C472 1.400 . S
C473 C474 1.398 . S
C474 H462 0.950 . S
C474 C473 1.398 . S
C474 C475 1.391 . S
C475 H463 0.950 . S
C475 C471 1.393 . S
C475 C474 1.391 . S
H476 C484 0.950 . S
H477 C489 0.950 . S
H478 C486 0.950 . S
H479 C488 0.950 . S
H480 C490 0.950 . S
H481 C492 0.950 . S
H482 C494 0.950 . S
H483 C495 0.950 . S
C484 H476 0.950 . S
C484 C485 1.386 . S
C484 C486 1.391 . S
C485 C484 1.386 . S
C485 C489 1.393 . S
C486 H478 0.950 . S
C486 C484 1.391 . S
C486 C487 1.400 . S
C487 C486 1.400 . S
C487 C488 1.398 . S
C487 C493 1.491 . S
C488 H479 0.950 . S
C488 C487 1.398 . S
C488 C489 1.391 . S
C489 H477 0.950 . S
C489 C485 1.393 . S
C489 C488 1.391 . S
C490 H480 0.950 . S
C490 C491 1.386 . S
C490 C492 1.391 . S
C491 C490 1.386 . S
C491 C495 1.393 . S
C492 H481 0.950 . S
C492 C490 1.391 . S
C492 C493 1.400 . S
C493 C487 1.491 . S
C493 C492 1.400 . S
C493 C494 1.398 . S
C494 H482 0.950 . S
C494 C493 1.398 . S
C494 C495 1.391 . S
C495 H483 0.950 . S
C495 C491 1.393 . S
C495 C494 1.391 . S
H496 C504 0.950 . S
H497 C509 0.950 . S
H498 C506 0.950 . S
H499 C508 0.950 . S
H500 C510 0.950 . S
H501 C512 0.950 . S
H502 C514 0.950 . S
H503 C515 0.950 . S
C504 H496 0.950 . S
C504 C505 1.386 . S
C504 C506 1.391 . S
C505 C504 1.386 . S
C505 C509 1.393 . S
C506 H498 0.950 . S
C506 C504 1.391 . S
C506 C507 1.400 . S
C507 C506 1.400 . S
C507 C508 1.398 . S
C507 C513 1.491 . S
C508 H499 0.950 . S
C508 C507 1.398 . S
C508 C509 1.391 . S
C509 H497 0.950 . S
C509 C505 1.393 . S
C509 C508 1.391 . S
C510 H500 0.950 . S
C510 C511 1.386 . S
C510 C512 1.391 . S
C511 C510 1.386 . S
C511 C515 1.393 . S
C512 H501 0.950 . S
C512 C510 1.391 . S
C512 C513 1.400 . S
C513 C507 1.491 . S
C513 C512 1.400 . S
C513 C514 1.398 . S
C514 H502 0.950 . S
C514 C513 1.398 . S
C514 C515 1.391 . S
C515 H503 0.950 . S
C515 C511 1.393 . S
C515 C514 1.391 . S
H516 C524 0.950 . S
H517 C529 0.950 . S
H518 C526 0.950 . S
H519 C528 0.950 . S
H520 C530 0.950 . S
H521 C532 0.950 . S
H522 C534 0.950 . S
H523 C535 0.950 1_554 S
C524 H516 0.950 . S
C524 C525 1.386 . S
C524 C526 1.391 . S
C525 C524 1.386 . S
C525 C529 1.393 . S
C526 H518 0.950 . S
C526 C524 1.391 . S
C526 C527 1.400 . S
C527 C526 1.400 . S
C527 C528 1.398 . S
C527 C533 1.491 . S
C528 H519 0.950 . S
C528 C527 1.398 . S
C528 C529 1.391 . S
C529 H517 0.950 . S
C529 C525 1.393 . S
C529 C528 1.391 . S
C530 H520 0.950 . S
C530 C531 1.386 . S
C530 C532 1.391 . S
C531 C530 1.386 . S
C531 C535 1.393 . S
C532 H521 0.950 . S
C532 C530 1.391 . S
C532 C533 1.400 . S
C533 C527 1.491 . S
C533 C532 1.400 . S
C533 C534 1.398 . S
C534 H522 0.950 . S
C534 C533 1.398 . S
C534 C535 1.391 . S
C535 H523 0.950 1_556 S
C535 C531 1.393 . S
C535 C534 1.391 . S
H536 C544 0.950 . S
H537 C549 0.950 . S
H538 C546 0.950 . S
H539 C548 0.950 . S
H540 C550 0.950 . S
H541 C552 0.950 . S
H542 C554 0.950 . S
H543 C555 0.950 . S
C544 H536 0.950 . S
C544 C545 1.386 . S
C544 C546 1.391 . S
C545 C544 1.386 . S
C545 C549 1.393 . S
C546 H538 0.950 . S
C546 C544 1.391 . S
C546 C547 1.400 . S
C547 C546 1.400 . S
C547 C548 1.398 . S
C547 C553 1.491 . S
C548 H539 0.950 . S
C548 C547 1.398 . S
C548 C549 1.391 . S
C549 H537 0.950 . S
C549 C545 1.393 . S
C549 C548 1.391 . S
C550 H540 0.950 . S
C550 C551 1.386 . S
C550 C552 1.391 . S
C551 C550 1.386 . S
C551 C555 1.393 . S
C552 H541 0.950 . S
C552 C550 1.391 . S
C552 C553 1.400 . S
C553 C547 1.491 . S
C553 C552 1.400 . S
C553 C554 1.398 . S
C554 H542 0.950 . S
C554 C553 1.398 . S
C554 C555 1.391 . S
C555 H543 0.950 . S
C555 C551 1.393 . S
C555 C554 1.391 . S
H556 C564 0.950 . S
H557 C569 0.950 . S
H558 C566 0.950 . S
H559 C568 0.950 . S
H560 C570 0.950 . S
H561 C572 0.950 . S
H562 C574 0.950 . S
H563 C575 0.950 . S
C564 H556 0.950 . S
C564 C565 1.386 . S
C564 C566 1.391 . S
C565 C564 1.386 . S
C565 C569 1.393 . S
C566 H558 0.950 . S
C566 C564 1.391 . S
C566 C567 1.400 . S
C567 C566 1.400 . S
C567 C568 1.398 . S
C567 C573 1.491 . S
C568 H559 0.950 . S
C568 C567 1.398 . S
C568 C569 1.391 . S
C569 H557 0.950 . S
C569 C565 1.393 . S
C569 C568 1.391 . S
C570 H560 0.950 . S
C570 C571 1.386 . S
C570 C572 1.391 . S
C571 C570 1.386 . S
C571 C575 1.393 . S
C572 H561 0.950 . S
C572 C570 1.391 . S
C572 C573 1.400 . S
C573 C567 1.491 . S
C573 C572 1.400 . S
C573 C574 1.398 . S
C574 H562 0.950 . S
C574 C573 1.398 . S
C574 C575 1.391 . S
C575 H563 0.950 . S
C575 C571 1.393 . S
C575 C574 1.391 . S
H576 C584 0.950 . S
H577 C589 0.950 . S
H578 C586 0.950 . S
H579 C588 0.950 . S
H580 C590 0.950 . S
H581 C592 0.950 . S
H582 C594 0.950 . S
H583 C595 0.950 . S
C584 H576 0.950 . S
C584 C585 1.386 . S
C584 C586 1.391 . S
C585 C584 1.386 . S
C585 C589 1.393 . S
C586 H578 0.950 . S
C586 C584 1.391 . S
C586 C587 1.400 . S
C587 C586 1.400 . S
C587 C588 1.398 . S
C587 C593 1.491 . S
C588 H579 0.950 . S
C588 C587 1.398 . S
C588 C589 1.391 . S
C589 H577 0.950 . S
C589 C585 1.393 . S
C589 C588 1.391 . S
C590 H580 0.950 . S
C590 C591 1.386 . S
C590 C592 1.391 . S
C591 C590 1.386 . S
C591 C595 1.393 . S
C592 H581 0.950 . S
C592 C590 1.391 . S
C592 C593 1.400 . S
C593 C587 1.491 . S
C593 C592 1.400 . S
C593 C594 1.398 . S
C594 H582 0.950 . S
C594 C593 1.398 . S
C594 C595 1.391 . S
C595 H583 0.950 . S
C595 C591 1.393 . S
C595 C594 1.391 . S
H596 C604 0.950 . S
H597 C609 0.950 . S
H598 C606 0.950 . S
H599 C608 0.950 . S
H600 C610 0.950 . S
H601 C612 0.950 . S
H602 C614 0.950 . S
H603 C615 0.950 . S
C604 H596 0.950 . S
C604 C605 1.386 . S
C604 C606 1.391 . S
C605 C604 1.386 . S
C605 C609 1.393 . S
C606 H598 0.950 . S
C606 C604 1.391 . S
C606 C607 1.400 . S
C607 C606 1.400 . S
C607 C608 1.398 . S
C607 C613 1.491 . S
C608 H599 0.950 . S
C608 C607 1.398 . S
C608 C609 1.391 . S
C609 H597 0.950 . S
C609 C605 1.393 . S
C609 C608 1.391 . S
C610 H600 0.950 . S
C610 C611 1.386 . S
C610 C612 1.391 . S
C611 C610 1.386 . S
C611 C615 1.393 . S
C612 H601 0.950 . S
C612 C610 1.391 . S
C612 C613 1.400 . S
C613 C607 1.491 . S
C613 C612 1.400 . S
C613 C614 1.398 . S
C614 H602 0.950 . S
C614 C613 1.398 . S
C614 C615 1.391 . S
C615 H603 0.950 . S
C615 C611 1.393 . S
C615 C614 1.391 . S
H616 C624 0.950 . S
H617 C629 0.950 . S
H618 C626 0.950 . S
H619 C628 0.950 . S
H620 C630 0.950 . S
H621 C632 0.950 . S
H622 C634 0.950 . S
H623 C635 0.950 . S
C624 H616 0.950 . S
C624 C625 1.386 . S
C624 C626 1.391 . S
C625 C624 1.386 . S
C625 C629 1.393 . S
C626 H618 0.950 . S
C626 C624 1.391 . S
C626 C627 1.400 . S
C627 C626 1.400 . S
C627 C628 1.398 . S
C627 C633 1.491 . S
C628 H619 0.950 . S
C628 C627 1.398 . S
C628 C629 1.391 . S
C629 H617 0.950 . S
C629 C625 1.393 . S
C629 C628 1.391 . S
C630 H620 0.950 . S
C630 C631 1.386 . S
C630 C632 1.391 . S
C631 C630 1.386 . S
C631 C635 1.393 . S
C632 H621 0.950 . S
C632 C630 1.391 . S
C632 C633 1.400 . S
C633 C627 1.491 . S
C633 C632 1.400 . S
C633 C634 1.398 . S
C634 H622 0.950 . S
C634 C633 1.398 . S
C634 C635 1.391 . S
C635 H623 0.950 . S
C635 C631 1.393 . S
C635 C634 1.391 . S
H636 C644 0.950 . S
H637 C649 0.950 . S
H638 C646 0.950 . S
H639 C648 0.950 . S
H640 C650 0.950 . S
H641 C652 0.950 . S
H642 C654 0.950 . S
H643 C655 0.950 . S
C644 H636 0.950 . S
C644 C645 1.386 1_545 S
C644 C646 1.391 . S
C645 C644 1.386 1_565 S
C645 C649 1.393 . S
C646 H638 0.950 . S
C646 C644 1.391 . S
C646 C647 1.400 . S
C647 C646 1.400 . S
C647 C648 1.398 1_545 S
C647 C653 1.491 . S
C648 H639 0.950 . S
C648 C647 1.398 1_565 S
C648 C649 1.391 . S
C649 H637 0.950 . S
C649 C645 1.393 . S
C649 C648 1.391 . S
C650 H640 0.950 . S
C650 C651 1.386 1_565 S
C650 C652 1.391 . S
C651 C650 1.386 1_545 S
C651 C655 1.393 . S
C652 H641 0.950 . S
C652 C650 1.391 . S
C652 C653 1.400 1_565 S
C653 C647 1.491 . S
C653 C652 1.400 1_545 S
C653 C654 1.398 . S
C654 H642 0.950 . S
C654 C653 1.398 . S
C654 C655 1.391 . S
C655 H643 0.950 . S
C655 C651 1.393 . S
C655 C654 1.391 . S
H656 C664 0.950 . S
H657 C669 0.953 . S
H658 C666 0.950 . S
H659 C668 0.950 1_565 S
H660 C670 0.950 1_565 S
H661 C672 0.950 1_565 S
H662 C674 0.950 . S
H663 C675 0.950 . S
C664 H656 0.950 . S
C664 C665 1.386 . S
C664 C666 1.391 . S
C665 C664 1.386 . S
C665 C669 1.393 . S
C666 H658 0.950 . S
C666 C664 1.391 . S
C666 C667 1.400 . S
C667 C666 1.400 . S
C667 C668 1.398 . S
C667 C673 1.491 . S
C668 H659 0.950 1_545 S
C668 C667 1.398 . S
C668 C669 1.391 . S
C669 H657 0.953 . S
C669 C665 1.393 . S
C669 C668 1.391 . S
C670 H660 0.950 1_545 S
C670 C671 1.386 . S
C670 C672 1.391 . S
C671 C670 1.386 . S
C671 C675 1.393 . S
C672 H661 0.950 1_545 S
C672 C670 1.391 . S
C672 C673 1.400 . S
C673 C667 1.491 . S
C673 C672 1.400 . S
C673 C674 1.398 . S
C674 H662 0.950 . S
C674 C673 1.398 . S
C674 C675 1.391 . S
C675 H663 0.950 . S
C675 C671 1.393 . S
C675 C674 1.391 . S
H676 C684 0.950 . S
H677 C689 0.950 . S
H678 C686 0.950 . S
H679 C688 0.950 . S
H680 C690 0.950 . S
H681 C692 0.950 . S
H682 C694 0.950 . S
H683 C695 0.950 . S
C684 H676 0.950 . S
C684 C685 1.386 . S
C684 C686 1.391 . S
C685 C684 1.386 . S
C685 C689 1.393 . S
C686 H678 0.950 . S
C686 C684 1.391 . S
C686 C687 1.400 . S
C687 C686 1.400 . S
C687 C688 1.398 . S
C687 C693 1.491 . S
C688 H679 0.950 . S
C688 C687 1.398 . S
C688 C689 1.391 . S
C689 H677 0.950 . S
C689 C685 1.393 . S
C689 C688 1.391 . S
C690 H680 0.950 . S
C690 C691 1.386 . S
C690 C692 1.391 . S
C691 C690 1.386 . S
C691 C695 1.393 . S
C692 H681 0.950 . S
C692 C690 1.391 . S
C692 C693 1.400 . S
C693 C687 1.491 . S
C693 C692 1.400 . S
C693 C694 1.398 . S
C694 H682 0.950 . S
C694 C693 1.398 . S
C694 C695 1.391 . S
C695 H683 0.950 . S
C695 C691 1.393 . S
C695 C694 1.391 . S
H696 C704 0.950 . S
H697 C709 0.950 . S
H698 C706 0.950 . S
H699 C708 0.950 . S
H700 C710 0.921 1_655 S
H701 C712 0.960 . S
H702 C714 0.950 . S
H703 C715 0.950 . S
C704 H696 0.950 . S
C704 C705 1.386 . S
C704 C706 1.391 . S
C705 C704 1.386 . S
C705 C709 1.393 . S
C706 H698 0.950 . S
C706 C704 1.391 . S
C706 C707 1.400 . S
C707 C706 1.400 . S
C707 C708 1.398 . S
C707 C713 1.491 . S
C708 H699 0.950 . S
C708 C707 1.398 . S
C708 C709 1.391 . S
C709 H697 0.950 . S
C709 C705 1.393 . S
C709 C708 1.391 . S
C710 H700 0.921 1_455 S
C710 C711 1.386 . S
C710 C712 1.391 . S
C711 C710 1.386 . S
C711 C715 1.393 . S
C712 H701 0.960 . S
C712 C710 1.391 . S
C712 C713 1.400 . S
C713 C707 1.491 . S
C713 C712 1.400 . S
C713 C714 1.398 . S
C714 H702 0.950 . S
C714 C713 1.398 . S
C714 C715 1.391 . S
C715 H703 0.950 . S
C715 C711 1.393 . S
C715 C714 1.391 . S
H716 C724 0.950 . S
H717 C729 0.950 . S
H718 C726 0.950 . S
H719 C728 0.950 . S
H720 C730 0.953 . S
H721 C732 0.942 1_556 S
H722 C734 0.950 . S
H723 C735 0.950 . S
C724 H716 0.950 . S
C724 C725 1.386 1_554 S
C724 C726 1.391 . S
C725 C724 1.386 1_556 S
C725 C729 1.393 1_565 S
C726 H718 0.950 . S
C726 C724 1.391 . S
C726 C727 1.400 . S
C727 C726 1.400 . S
C727 C728 1.398 1_564 S
C727 C733 1.491 . S
C728 H719 0.950 . S
C728 C727 1.398 1_546 S
C728 C729 1.391 . S
C729 H717 0.950 . S
C729 C725 1.393 1_545 S
C729 C728 1.391 . S
C730 H720 0.953 . S
C730 C731 1.386 1_545 S
C730 C732 1.395 . S
C731 C730 1.386 1_565 S
C731 C735 1.393 . S
C732 H721 0.942 1_554 S
C732 C730 1.395 . S
C732 C733 1.406 1_545 S
C733 C727 1.491 . S
C733 C732 1.406 1_565 S
C733 C734 1.398 . S
C734 H722 0.950 . S
C734 C733 1.398 . S
C734 C735 1.391 . S
C735 H723 0.950 . S
C735 C731 1.393 . S
C735 C734 1.391 . S
H736 C744 0.950 . S
H737 C749 0.950 . S
H738 C746 0.950 . S
H739 C748 0.950 . S
H740 C750 0.950 . S
H741 C752 0.950 . S
H742 C754 0.950 . S
H743 C755 0.950 . S
C744 H736 0.950 . S
C744 C745 1.386 . S
C744 C746 1.391 . S
C745 C744 1.386 . S
C745 C749 1.393 . S
C746 H738 0.950 . S
C746 C744 1.391 . S
C746 C747 1.400 . S
C747 C746 1.400 . S
C747 C748 1.398 . S
C747 C753 1.491 . S
C748 H739 0.950 . S
C748 C747 1.398 . S
C748 C749 1.391 . S
C749 H737 0.950 . S
C749 C745 1.393 . S
C749 C748 1.391 . S
C750 H740 0.950 . S
C750 C751 1.386 . S
C750 C752 1.391 . S
C751 C750 1.386 . S
C751 C755 1.393 . S
C752 H741 0.950 . S
C752 C750 1.391 . S
C752 C753 1.400 . S
C753 C747 1.491 . S
C753 C752 1.400 . S
C753 C754 1.398 . S
C754 H742 0.950 . S
C754 C753 1.398 . S
C754 C755 1.391 . S
C755 H743 0.950 . S
C755 C751 1.393 . S
C755 C754 1.391 . S
H756 C764 0.950 1_556 S
H757 C769 0.950 . S
H758 C766 0.950 1_556 S
H759 C768 0.950 . S
H760 C770 0.950 . S
H761 C772 0.950 . S
H762 C774 0.922 1_556 S
H763 C775 0.950 . S
C764 H756 0.950 1_554 S
C764 C765 1.386 . S
C764 C766 1.391 . S
C765 C764 1.386 . S
C765 C769 1.393 . S
C766 H758 0.950 1_554 S
C766 C764 1.391 . S
C766 C767 1.400 . S
C767 C766 1.400 . S
C767 C768 1.398 . S
C767 C773 1.491 . S
C768 H759 0.950 . S
C768 C767 1.398 . S
C768 C769 1.391 . S
C769 H757 0.950 . S
C769 C765 1.393 . S
C769 C768 1.391 . S
C770 H760 0.950 . S
C770 C771 1.386 . S
C770 C772 1.391 . S
C771 C770 1.386 . S
C771 C775 1.393 1_554 S
C772 H761 0.950 . S
C772 C770 1.391 . S
C772 C773 1.400 . S
C773 C767 1.491 . S
C773 C772 1.400 . S
C773 C774 1.430 . S
C774 H762 0.922 1_554 S
C774 C773 1.430 . S
C774 C775 1.388 1_554 S
C775 H763 0.950 . S
C775 C771 1.393 1_556 S
C775 C774 1.388 1_556 S
H776 C784 0.950 . S
H777 C789 0.950 . S
H778 C786 0.950 . S
H779 C788 0.950 . S
H780 C790 0.950 . S
H781 C792 0.950 . S
H782 C794 0.950 . S
H783 C795 0.950 . S
C784 H776 0.950 . S
C784 C785 1.386 . S
C784 C786 1.391 . S
C785 C784 1.386 . S
C785 C789 1.393 . S
C786 H778 0.950 . S
C786 C784 1.391 . S
C786 C787 1.400 . S
C787 C786 1.400 . S
C787 C788 1.398 . S
C787 C793 1.491 . S
C788 H779 0.950 . S
C788 C787 1.398 . S
C788 C789 1.391 . S
C789 H777 0.950 . S
C789 C785 1.393 . S
C789 C788 1.391 . S
C790 H780 0.950 . S
C790 C791 1.386 . S
C790 C792 1.391 . S
C791 C790 1.386 . S
C791 C795 1.393 . S
C792 H781 0.950 . S
C792 C790 1.391 . S
C792 C793 1.400 . S
C793 C787 1.491 . S
C793 C792 1.400 . S
C793 C794 1.398 . S
C794 H782 0.950 . S
C794 C793 1.398 . S
C794 C795 1.391 . S
C795 H783 0.950 . S
C795 C791 1.393 . S
C795 C794 1.391 . S
H796 C804 0.950 . S
H797 C809 0.950 . S
H798 C806 0.950 . S
H799 C808 0.950 . S
H800 C810 0.950 . S
H801 C812 0.950 . S
H802 C814 0.950 . S
H803 C815 0.950 . S
C804 H796 0.950 . S
C804 C805 1.386 1_455 S
C804 C806 1.391 . S
C805 C804 1.386 1_655 S
C805 C809 1.393 . S
C806 H798 0.950 . S
C806 C804 1.391 . S
C806 C807 1.400 . S
C807 C806 1.400 . S
C807 C808 1.398 1_455 S
C807 C813 1.491 . S
C808 H799 0.950 . S
C808 C807 1.398 1_655 S
C808 C809 1.391 . S
C809 H797 0.950 . S
C809 C805 1.393 . S
C809 C808 1.391 . S
C810 H800 0.950 . S
C810 C811 1.386 1_655 S
C810 C812 1.391 . S
C811 C810 1.386 1_455 S
C811 C815 1.393 . S
C812 H801 0.950 . S
C812 C810 1.391 . S
C812 C813 1.400 1_655 S
C813 C807 1.491 . S
C813 C812 1.400 1_455 S
C813 C814 1.398 . S
C814 H802 0.950 . S
C814 C813 1.398 . S
C814 C815 1.391 . S
C815 H803 0.950 . S
C815 C811 1.393 . S
C815 C814 1.391 . S
H816 C824 0.950 . S
H817 C829 0.950 . S
H818 C826 0.950 . S
H819 C828 0.962 . S
H820 C830 0.953 1_556 S
H821 C832 0.967 . S
H822 C834 0.950 . S
H823 C835 0.950 . S
C824 H816 0.950 . S
C824 C825 1.386 . S
C824 C826 1.391 . S
C825 C824 1.386 . S
C825 C829 1.393 . S
C826 H818 0.950 . S
C826 C824 1.391 . S
C826 C827 1.400 . S
C827 C826 1.400 . S
C827 C828 1.398 . S
C827 C833 1.491 . S
C828 H819 0.962 . S
C828 C827 1.398 . S
C828 C829 1.391 . S
C829 H817 0.950 . S
C829 C825 1.393 . S
C829 C828 1.391 . S
C830 H820 0.953 1_554 S
C830 C831 1.386 . S
C830 C832 1.391 . S
C831 C830 1.386 . S
C831 C835 1.393 . S
C832 H821 0.967 . S
C832 C830 1.391 . S
C832 C833 1.400 . S
C833 C827 1.491 . S
C833 C832 1.400 . S
C833 C834 1.398 . S
C834 H822 0.950 . S
C834 C833 1.398 . S
C834 C835 1.391 . S
C835 H823 0.950 . S
C835 C831 1.393 . S
C835 C834 1.391 . S
H836 C844 0.950 . S
H837 C849 0.950 . S
H838 C846 0.950 . S
H839 C848 0.950 . S
H840 C850 0.950 1_655 S
H841 C852 0.950 . S
H842 C854 0.950 . S
H843 C855 0.950 . S
C844 H836 0.950 . S
C844 C845 1.386 . S
C844 C846 1.391 . S
C845 C844 1.386 . S
C845 C849 1.393 . S
C846 H838 0.950 . S
C846 C844 1.391 . S
C846 C847 1.400 . S
C847 C846 1.400 . S
C847 C848 1.398 . S
C847 C853 1.491 . S
C848 H839 0.950 . S
C848 C847 1.398 . S
C848 C849 1.391 . S
C849 H837 0.950 . S
C849 C845 1.393 . S
C849 C848 1.391 . S
C850 H840 0.950 1_455 S
C850 C851 1.386 . S
C850 C852 1.391 . S
C851 C850 1.386 . S
C851 C855 1.393 . S
C852 H841 0.950 . S
C852 C850 1.391 . S
C852 C853 1.400 . S
C853 C847 1.491 . S
C853 C852 1.400 . S
C853 C854 1.398 . S
C854 H842 0.950 . S
C854 C853 1.398 . S
C854 C855 1.391 . S
C855 H843 0.950 . S
C855 C851 1.393 . S
C855 C854 1.391 . S
H856 C864 0.950 . S
H857 C869 0.950 . S
H858 C866 0.950 . S
H859 C868 0.950 . S
H860 C870 0.950 . S
H861 C872 0.950 . S
H862 C874 0.950 . S
H863 C875 0.950 . S
C864 H856 0.950 . S
C864 C865 1.386 . S
C864 C866 1.391 . S
C865 C864 1.386 . S
C865 C869 1.393 . S
C866 H858 0.950 . S
C866 C864 1.391 . S
C866 C867 1.400 . S
C867 C866 1.400 . S
C867 C868 1.398 . S
C867 C873 1.491 . S
C868 H859 0.950 . S
C868 C867 1.398 . S
C868 C869 1.391 . S
C869 H857 0.950 . S
C869 C865 1.393 . S
C869 C868 1.391 . S
C870 H860 0.950 . S
C870 C871 1.386 . S
C870 C872 1.391 . S
C871 C870 1.386 . S
C871 C875 1.393 . S
C872 H861 0.950 . S
C872 C870 1.391 . S
C872 C873 1.400 . S
C873 C867 1.491 . S
C873 C872 1.400 . S
C873 C874 1.398 . S
C874 H862 0.950 . S
C874 C873 1.398 . S
C874 C875 1.391 . S
C875 H863 0.950 . S
C875 C871 1.393 . S
C875 C874 1.391 . S
C405 C1 1.549 . S
C411 C315 1.447 . S
C425 C40 1.513 . S
C431 C349 1.391 . S
C451 C361 1.379 . S
C445 C99 1.503 . S
C465 C118 1.503 . S
C471 C395 1.404 . S
C491 C352 1.440 . S
C485 C16 1.540 . S
C511 C332 1.393 . S
C505 C60 1.511 . S
C531 C379 1.388 . S
C525 C79 1.508 . S
C551 C370 1.404 . S
C545 C138 1.489 . S
C565 C21 1.534 . S
C571 C378 1.417 . S
C591 C340 1.415 . S
C585 C94 1.515 . S
C605 C133 1.497 . S
C611 C316 1.368 . S
C625 C55 1.518 . S
C631 C373 1.421 . S
C651 C331 1.627 . S
C645 C157 1.729 . S
C665 C196 1.704 . S
C671 C353 1.628 . S
C685 C255 1.709 . S
C691 C358 1.634 . S
C705 C289 1.738 . S
C711 C391 1.663 . S
C725 C172 1.748 . S
C731 C336 1.665 . S
C751 C328 1.669 . S
C745 C216 1.748 . S
C771 C382 1.643 . S
C765 C235 1.748 . S
C791 C374 1.624 . S
C785 C294 1.685 . S
C805 C177 1.701 . S
C811 C394 1.608 . S
C831 C337 1.668 . S
C825 C250 1.760 . S
C851 C319 1.627 . S
C845 C274 1.703 . S
C865 C211 1.723 . S
C871 C357 1.637 . S
