# Generated by pormake.
# Topology tsx, (6,3)-cn, num edge types: 1
# Building blocks:
#     Node 0, Type 0, BuildingBlock: VOLQOD_clean_sbu_1, # of connection points: 6
#     Node 1, Type 0, BuildingBlock: VOLQOD_clean_sbu_1, # of connection points: 6
#     Node 2, Type 1, BuildingBlock: PAMTOO_clean_linker_0, # of connection points: 3
#     Node 3, Type 1, BuildingBlock: PAMTOO_clean_linker_0, # of connection points: 3
#     Node 4, Type 1, BuildingBlock: PAMTOO_clean_linker_0, # of connection points: 3
#     Node 5, Type 1, BuildingBlock: PAMTOO_clean_linker_0, # of connection points: 3
#     Edge 6, Type (0, 1), BuildingBlock: XUDNAN_clean_linker_2, # of connection points: 2
#     Edge 7, Type (0, 1), BuildingBlock: XUDNAN_clean_linker_2, # of connection points: 2
#     Edge 8, Type (0, 1), BuildingBlock: XUDNAN_clean_linker_2, # of connection points: 2
#     Edge 9, Type (0, 1), BuildingBlock: XUDNAN_clean_linker_2, # of connection points: 2
#     Edge 10, Type (0, 1), BuildingBlock: XUDNAN_clean_linker_2, # of connection points: 2
#     Edge 11, Type (0, 1), BuildingBlock: XUDNAN_clean_linker_2, # of connection points: 2
#     Edge 12, Type (0, 1), BuildingBlock: XUDNAN_clean_linker_2, # of connection points: 2
#     Edge 13, Type (0, 1), BuildingBlock: XUDNAN_clean_linker_2, # of connection points: 2
#     Edge 14, Type (0, 1), BuildingBlock: XUDNAN_clean_linker_2, # of connection points: 2
#     Edge 15, Type (0, 1), BuildingBlock: XUDNAN_clean_linker_2, # of connection points: 2
#     Edge 16, Type (0, 1), BuildingBlock: XUDNAN_clean_linker_2, # of connection points: 2
#     Edge 17, Type (0, 1), BuildingBlock: XUDNAN_clean_linker_2, # of connection points: 2
# Relax obj value: 0.055
# Max RMSD: 0.113
# Mean RMSD: 0.101
data_MOF--net-tsx--node1-VOLQOD_clean_sbu_1--node2-PAMTOO_clean_linker_0--edge1-XUDNAN_clean_linker_2
_symmetry_space_group_name_H-M    P1
_symmetry_Int_Tables_number       1
_symmetry_cell_setting            triclinic
loop_
_symmetry_equiv_pos_as_xyz
'x, y, z'
_cell_length_a     21.124076
_cell_length_b     21.789926
_cell_length_c     37.326021
_cell_angle_alpha  82.279164
_cell_angle_beta   90.093388
_cell_angle_gamma 90.210191
loop_
_atom_site_label
_atom_site_type_symbol
_atom_site_fract_x
_atom_site_fract_y
_atom_site_fract_z
_atom_type_partial_charge
O0 O 0.05964 0.96186 0.09399 0.0
Zn1 Zn 0.08743 0.96147 0.0416 0.0
O2 O 0.01606 0.97296 0.0075 0.0
Zn3 Zn 0.00924 0.90035 0.98253 0.0
Zn4 Zn 0.93865 0.98066 0.03491 0.0
Zn5 Zn 0.02764 0.04714 0.97125 0.0
O6 O 0.01195 0.92408 0.92926 0.0
O7 O 0.0306 0.02518 0.91958 0.0
O8 O 0.13644 0.88289 0.03683 0.0
O9 O 0.08159 0.842 0.99509 0.0
O10 O 0.92777 0.85418 0.99357 0.0
O11 O 0.87872 0.90989 0.03076 0.0
O12 O 0.89503 0.0615 0.01862 0.0
O13 O 0.14728 0.03289 0.03037 0.0
O14 O 0.95406 0.10601 0.97297 0.0
O15 O 0.10738 0.09368 0.98305 0.0
C16 C 0.00557 0.97099 0.10745 0.0
C17 C 0.02147 0.97356 0.90772 0.0
C18 C 0.88075 0.8636 0.01331 0.0
C19 C 0.12832 0.84055 0.01675 0.0
C20 C 0.90609 0.10591 0.99361 0.0
C21 C 0.1498 0.08163 0.00738 0.0
O22 O 0.95671 0.97932 0.08749 0.0
O23 O 0.59284 0.51899 0.58564 0.0
Zn24 Zn 0.60454 0.52535 0.53081 0.0
O25 O 0.526 0.54784 0.50461 0.0
Zn26 Zn 0.50158 0.48385 0.47567 0.0
Zn27 Zn 0.46058 0.55393 0.53981 0.0
Zn28 Zn 0.53406 0.62707 0.47369 0.0
O29 O 0.4825 0.51999 0.42445 0.0
O30 O 0.52093 0.61584 0.42113 0.0
O31 O 0.64269 0.44763 0.51529 0.0
O32 O 0.57442 0.42624 0.47328 0.0
O33 O 0.4287 0.4312 0.49792 0.0
O34 O 0.40947 0.47515 0.5472 0.0
O35 O 0.40442 0.62721 0.52513 0.0
O36 O 0.66787 0.5942 0.51848 0.0
O37 O 0.4631 0.68378 0.48363 0.0
O38 O 0.61908 0.668 0.48162 0.0
C39 C 0.54984 0.54392 0.60281 0.0
C40 C 0.49624 0.57203 0.40624 0.0
C41 C 0.39981 0.43226 0.52775 0.0
C42 C 0.62591 0.41543 0.49072 0.0
C43 C 0.41368 0.67654 0.50328 0.0
C44 C 0.66761 0.64776 0.49991 0.0
O45 O 0.4991 0.56468 0.58737 0.0
H46 H 0.10687 0.95136 0.37037 0.0
H47 H 0.97234 0.10011 0.36863 0.0
H48 H 0.08417 0.04653 0.46341 0.0
H49 H 0.97226 0.09915 0.48811 0.0
C50 C 0.94951 0.10254 0.46106 0.0
O51 O 0.99491 0.11993 0.43506 0.0
H52 H 0.92915 0.05614 0.4582 0.0
C53 C 0.08527 0.98784 0.38321 0.0
C54 C 0.10118 0.99419 0.41911 0.0
C55 C 0.03904 0.02591 0.36448 0.0
C56 C 0.00851 0.07052 0.3823 0.0
C57 C 0.02517 0.07793 0.41779 0.0
C58 C 0.07201 0.04053 0.43587 0.0
H59 H 0.10631 0.09316 0.6542 0.0
H60 H 0.98855 0.9488 0.62174 0.0
H61 H 0.11159 0.05228 0.54456 0.0
H62 H 0.99739 0.99393 0.50523 0.0
C63 C 0.9787 0.97389 0.53196 0.0
O64 O 0.02909 0.96142 0.55544 0.0
H65 H 0.94603 0.00806 0.54177 0.0
C66 C 0.08897 0.06712 0.63346 0.0
C67 C 0.11425 0.07933 0.59835 0.0
C68 C 0.04446 0.01965 0.64269 0.0
C69 C 0.02272 0.98586 0.61552 0.0
C70 C 0.04636 0.99822 0.58022 0.0
C71 C 0.09196 0.04488 0.57161 0.0
H72 H 0.65034 0.45235 0.86803 0.0
H73 H 0.48778 0.56803 0.87649 0.0
H74 H 0.56002 0.45948 0.97116 0.0
H75 H 0.42491 0.47702 0.97478 0.0
C76 C 0.42011 0.51996 0.95525 0.0
O77 O 0.4793 0.54433 0.94643 0.0
H78 H 0.39611 0.50789 0.93053 0.0
C79 C 0.61303 0.46862 0.88416 0.0
C80 C 0.61072 0.44865 0.9217 0.0
C81 C 0.56859 0.51099 0.86723 0.0
C82 C 0.5227 0.53533 0.88863 0.0
C83 C 0.52094 0.51746 0.92598 0.0
C84 C 0.56397 0.47377 0.94234 0.0
H85 H 0.52888 0.63361 0.13626 0.0
H86 H 0.4079 0.47354 0.14929 0.0
H87 H 0.52815 0.50737 0.0565 0.0
H88 H 0.40222 0.47086 0.03861 0.0
C89 C 0.3884 0.44179 0.06407 0.0
O90 O 0.43903 0.43704 0.08772 0.0
H91 H 0.34783 0.46394 0.07629 0.0
C92 C 0.51153 0.59236 0.12625 0.0
C93 C 0.5354 0.5757 0.09369 0.0
C94 C 0.46724 0.55508 0.14714 0.0
C95 C 0.44272 0.5026 0.13385 0.0
C96 C 0.46344 0.48709 0.10061 0.0
C97 C 0.51069 0.52241 0.08113 0.0
H98 H 0.14791 0.20773 0.98733 0.0
H99 H 0.26541 0.05788 0.03844 0.0
H100 H 0.34435 0.13371 0.05389 0.0
H101 H 0.28019 0.31453 0.95285 0.0
H102 H 0.23766 0.3819 0.96259 0.0
H103 H 0.19494 0.31587 0.95053 0.0
H104 H 0.12973 0.31065 0.0096 0.0
H105 H 0.17259 0.37613 0.02199 0.0
H106 H 0.17047 0.30453 0.05242 0.0
H107 H 0.40497 0.22483 0.0694 0.0
H108 H 0.44378 0.32553 0.08356 0.0
H109 H 0.28638 0.41734 0.02385 0.0
C110 C 0.19121 0.1909 1.00072 0.0
C111 C 0.20083 0.12689 0.01139 0.0
C112 C 0.25721 0.1067 0.02988 0.0
C113 C 0.30242 0.1494 0.0387 0.0
C114 C 0.29063 0.21221 0.02887 0.0
C115 C 0.23667 0.23306 0.01008 0.0
C116 C 0.23294 0.30317 0.00563 0.0
C117 C 0.23667 0.33047 0.96551 0.0
C118 C 0.17288 0.32485 0.02349 0.0
C119 C 0.29209 0.31814 0.02583 0.0
C120 C 0.32513 0.26507 0.03856 0.0
C121 C 0.37988 0.26683 0.05928 0.0
C122 C 0.40137 0.32437 0.06735 0.0
C123 C 0.3676 0.37934 0.05505 0.0
C124 C 0.31284 0.37594 0.03364 0.0
H125 H 0.13194 0.75041 0.97222 0.0
H126 H 0.23323 0.81825 0.06042 0.0
H127 H 0.31607 0.73947 0.05668 0.0
H128 H 0.1703 0.58617 0.9965 0.0
H129 H 0.17834 0.57379 0.94994 0.0
H130 H 0.12462 0.63183 0.96185 0.0
H131 H 0.18102 0.71475 0.91647 0.0
H132 H 0.23506 0.65715 0.90458 0.0
H133 H 0.26519 0.72623 0.92038 0.0
H134 H 0.39098 0.65663 0.04084 0.0
H135 H 0.4517 0.57778 0.0135 0.0
H136 H 0.30188 0.56617 0.93542 0.0
C137 C 0.17094 0.74827 0.99121 0.0
C138 C 0.17581 0.79051 0.01675 0.0
C139 C 0.22823 0.78634 0.04071 0.0
C140 C 0.27551 0.74169 0.03882 0.0
C141 C 0.26961 0.7015 0.01289 0.0
C142 C 0.2185 0.70431 0.9896 0.0
C143 C 0.22474 0.65811 0.96292 0.0
C144 C 0.17132 0.6096 0.96813 0.0
C145 C 0.22663 0.69105 0.92378 0.0
C146 C 0.28802 0.62962 0.97431 0.0
C147 C 0.31293 0.65477 0.00341 0.0
C148 C 0.37173 0.63663 0.01811 0.0
C149 C 0.40602 0.59212 0.00241 0.0
C150 C 0.38173 0.56651 0.97229 0.0
C151 C 0.32164 0.58514 0.95839 0.0
H152 H 0.82053 0.81817 0.07536 0.0
H153 H 0.82544 0.80626 0.96044 0.0
H154 H 0.73748 0.72976 0.96779 0.0
H155 H 0.79399 0.65458 0.10205 0.0
H156 H 0.74458 0.66645 0.13982 0.0
H157 H 0.80576 0.72167 0.1248 0.0
H158 H 0.72254 0.80971 0.11714 0.0
H159 H 0.66111 0.75473 0.13204 0.0
H160 H 0.65409 0.80287 0.08901 0.0
H161 H 0.64455 0.65857 0.9882 0.0
H162 H 0.56106 0.59361 0.01988 0.0
H163 H 0.62953 0.64283 0.12234 0.0
C164 C 0.80268 0.7997 0.05175 0.0
C165 C 0.82864 0.81839 0.01729 0.0
C166 C 0.80552 0.7924 0.98703 0.0
C167 C 0.75572 0.74915 0.99096 0.0
C168 C 0.73103 0.73152 0.02545 0.0
C169 C 0.75454 0.7553 0.05536 0.0
C170 C 0.72215 0.72686 0.08968 0.0
C171 C 0.76944 0.6902 0.1156 0.0
C172 C 0.68794 0.77651 0.10803 0.0
C173 C 0.67569 0.68435 0.07437 0.0
C174 C 0.68091 0.68795 0.03731 0.0
C175 C 0.64055 0.65487 0.01731 0.0
C176 C 0.59325 0.61768 0.03572 0.0
C177 C 0.58709 0.61318 0.07389 0.0
C178 C 0.63043 0.64617 0.09318 0.0
H179 H 0.84674 0.15926 0.93217 0.0
H180 H 0.86947 0.17245 0.04629 0.0
H181 H 0.79928 0.26411 0.04009 0.0
H182 H 0.83773 0.32229 0.89937 0.0
H183 H 0.77642 0.31342 0.8668 0.0
H184 H 0.83139 0.25133 0.8797 0.0
H185 H 0.73796 0.17624 0.89803 0.0
H186 H 0.68277 0.23802 0.88499 0.0
H187 H 0.6802 0.19614 0.93002 0.0
H188 H 0.73088 0.35699 0.02052 0.0
H189 H 0.65899 0.43697 0.9913 0.0
H190 H 0.66874 0.35352 0.89186 0.0
C191 C 0.83708 0.1819 0.95569 0.0
C192 C 0.86372 0.15976 0.98961 0.0
C193 C 0.84935 0.18926 0.0201 0.0
C194 C 0.80987 0.24131 0.01679 0.0
C195 C 0.78413 0.26218 0.98295 0.0
C196 C 0.79619 0.23275 0.95308 0.0
C197 C 0.75914 0.26198 0.92045 0.0
C198 C 0.80386 0.28885 0.88977 0.0
C199 C 0.71223 0.21531 0.90763 0.0
C200 C 0.72501 0.31283 0.93655 0.0
C201 C 0.74083 0.31275 0.97243 0.0
C202 C 0.71716 0.35683 0.99259 0.0
C203 C 0.67564 0.40185 0.97571 0.0
C204 C 0.65677 0.40178 0.93916 0.0
C205 C 0.68222 0.3562 0.91957 0.0
H206 H 0.6746 0.77526 0.4882 0.0
H207 H 0.78841 0.61037 0.51651 0.0
H208 H 0.88145 0.6756 0.52493 0.0
H209 H 0.80034 0.87288 0.44107 0.0
H210 H 0.77407 0.94156 0.45862 0.0
H211 H 0.71779 0.88217 0.45121 0.0
H212 H 0.68194 0.87465 0.51801 0.0
H213 H 0.73837 0.93362 0.52569 0.0
H214 H 0.73991 0.85937 0.55358 0.0
H215 H 0.96134 0.75811 0.53252 0.0
H216 H 0.0216 0.85244 0.54075 0.0
H217 H 0.85556 0.9642 0.51036 0.0
C218 C 0.71943 0.75297 0.49541 0.0
C219 C 0.72432 0.68766 0.50141 0.0
C220 C 0.78352 0.66026 0.51167 0.0
C221 C 0.83673 0.69693 0.51645 0.0
C222 C 0.83008 0.76105 0.51105 0.0
C223 C 0.77301 0.78897 0.50074 0.0
C224 C 0.77786 0.8588 0.49895 0.0
C225 C 0.76687 0.89073 0.46015 0.0
C226 C 0.73179 0.883 0.52565 0.0
C227 C 0.84612 0.86554 0.51048 0.0
C228 C 0.87559 0.80863 0.51688 0.0
C229 C 0.93866 0.80292 0.52783 0.0
C230 C 0.9724 0.85677 0.53267 0.0
C231 C 0.94256 0.91548 0.52737 0.0
C232 C 0.87898 0.91973 0.51546 0.0
H233 H 0.73785 0.37306 0.52309 0.0
H234 H 0.6087 0.34555 0.43585 0.0
H235 H 0.67898 0.26535 0.41778 0.0
H236 H 0.88217 0.35279 0.47496 0.0
H237 H 0.92202 0.31172 0.51364 0.0
H238 H 0.86182 0.36765 0.51988 0.0
H239 H 0.80016 0.28441 0.56239 0.0
H240 H 0.86035 0.22836 0.55644 0.0
H241 H 0.77882 0.21247 0.5466 0.0
H242 H 0.76303 0.18847 0.40867 0.0
H243 H 0.8538 0.11614 0.41147 0.0
H244 H 0.92767 0.1928 0.50444 0.0
C245 C 0.72427 0.35017 0.50022 0.0
C246 C 0.66767 0.36581 0.48093 0.0
C247 C 0.65169 0.33449 0.45117 0.0
C248 C 0.6914 0.28891 0.44057 0.0
C249 C 0.74692 0.27495 0.45998 0.0
C250 C 0.76329 0.30432 0.48929 0.0
C251 C 0.8252 0.27971 0.50587 0.0
C252 C 0.87578 0.33104 0.50343 0.0
C253 C 0.81552 0.24943 0.54515 0.0
C254 C 0.84088 0.23195 0.48131 0.0
C255 C 0.79524 0.23014 0.45491 0.0
C256 C 0.79906 0.18935 0.42924 0.0
C257 C 0.85055 0.14865 0.43095 0.0
C258 C 0.89695 0.14895 0.45825 0.0
C259 C 0.89251 0.19171 0.48338 0.0
H260 H 0.30456 0.37196 0.49525 0.0
H261 H 0.41155 0.3702 0.59468 0.0
H262 H 0.35531 0.27546 0.62102 0.0
H263 H 0.1567 0.32539 0.54031 0.0
H264 H 0.13056 0.27924 0.50644 0.0
H265 H 0.18214 0.34464 0.49406 0.0
H266 H 0.26206 0.27327 0.46726 0.0
H267 H 0.21092 0.20755 0.47991 0.0
H268 H 0.2919 0.2057 0.4953 0.0
H269 H 0.29278 0.18005 0.6357 0.0
H270 H 0.21346 0.09694 0.6429 0.0
H271 H 0.1354 0.16488 0.53722 0.0
C272 C 0.31591 0.3513 0.52251 0.0
C273 C 0.36245 0.37785 0.54303 0.0
C274 C 0.3758 0.35047 0.57874 0.0
C275 C 0.34453 0.29649 0.59378 0.0
C276 C 0.29911 0.27115 0.57298 0.0
C277 C 0.28357 0.29811 0.53846 0.0
C278 C 0.22918 0.26347 0.52337 0.0
C279 C 0.17121 0.3057 0.5156 0.0
C280 C 0.24977 0.23586 0.48945 0.0
C281 C 0.21699 0.21296 0.55484 0.0
C282 C 0.25896 0.21788 0.58273 0.0
C283 C 0.25874 0.17634 0.61439 0.0
C284 C 0.21299 0.12953 0.6183 0.0
C285 C 0.16662 0.12536 0.59117 0.0
C286 C 0.16979 0.16692 0.55857 0.0
H287 H 0.39856 0.76939 0.44693 0.0
H288 H 0.31715 0.69254 0.55008 0.0
H289 H 0.23198 0.77061 0.54152 0.0
H290 H 0.36079 0.93175 0.45164 0.0
H291 H 0.34217 0.9473 0.40415 0.0
H292 H 0.39969 0.88897 0.41993 0.0
H293 H 0.33601 0.8079 0.38966 0.0
H294 H 0.27825 0.86584 0.37389 0.0
H295 H 0.25363 0.79498 0.4009 0.0
H296 H 0.15317 0.85365 0.52039 0.0
H297 H 0.08411 0.93281 0.48707 0.0
H298 H 0.2159 0.95386 0.39729 0.0
C299 C 0.36348 0.76961 0.46805 0.0
C300 C 0.36475 0.72524 0.49933 0.0
C301 C 0.31716 0.72623 0.52594 0.0
C302 C 0.26876 0.77049 0.52138 0.0
C303 C 0.26856 0.81312 0.49001 0.0
C304 C 0.31456 0.81292 0.46375 0.0
C305 C 0.30131 0.86105 0.43148 0.0
C306 C 0.35413 0.91018 0.42652 0.0
C307 C 0.29172 0.8306 0.39696 0.0
C308 C 0.24021 0.88789 0.44348 0.0
C309 C 0.2225 0.86012 0.4775 0.0
C310 C 0.1669 0.87614 0.49391 0.0
C311 C 0.12816 0.92139 0.47489 0.0
C312 C 0.14495 0.94975 0.43979 0.0
C313 C 0.20194 0.93291 0.42408 0.0
H314 H 0.09955 0.97211 0.15913 0.0
H315 H 0.89542 0.97932 0.14465 0.0
H316 H 0.88219 0.99254 0.20858 0.0
H317 H 0.09758 0.88771 0.25064 0.0
H318 H 0.16368 0.93026 0.26561 0.0
H319 H 0.15749 0.91869 0.21883 0.0
H320 H 0.16455 0.03729 0.19961 0.0
H321 H 0.17047 0.04922 0.24631 0.0
H322 H 0.10911 0.08736 0.21808 0.0
H323 H 0.89034 0.00935 0.27324 0.0
H324 H 0.91992 0.02477 0.33544 0.0
H325 H 0.11837 0.00735 0.30857 0.0
C326 C 0.05205 0.97575 0.16949 0.0
C327 C 0.99859 0.97464 0.14669 0.0
C328 C 0.93726 0.98009 0.16139 0.0
C329 C 0.92912 0.98762 0.19776 0.0
C330 C 0.98269 0.98948 0.21929 0.0
C331 C 0.04296 0.98335 0.20587 0.0
C332 C 0.09249 0.98823 0.23483 0.0
C333 C 0.13001 0.92761 0.24295 0.0
C334 C 0.13675 0.04384 0.22406 0.0
C335 C 0.05055 0.99854 0.26641 0.0
C336 C 0.98738 0.99908 0.25682 0.0
C337 C 0.93967 0.00888 0.28114 0.0
C338 C 0.95695 0.01808 0.31632 0.0
C339 C 0.02141 0.01739 0.32689 0.0
C340 C 0.06865 0.00747 0.30144 0.0
H341 H 0.02337 0.06917 0.85064 0.0
H342 H 0.01701 0.86855 0.87547 0.0
H343 H 0.01261 0.85956 0.81066 0.0
H344 H 0.9164 0.0802 0.77309 0.0
H345 H 0.96004 0.14243 0.74746 0.0
H346 H 0.96045 0.13416 0.79616 0.0
H347 H 0.08307 0.13053 0.79629 0.0
H348 H 0.08299 0.13927 0.74764 0.0
H349 H 0.12283 0.07441 0.77301 0.0
H350 H 0.01433 0.87086 0.74361 0.0
H351 H 0.02679 0.90222 0.67823 0.0
H352 H 0.02595 0.09553 0.69558 0.0
C353 C 0.02096 0.0234 0.84243 0.0
C354 C 0.02043 0.96965 0.86833 0.0
C355 C 0.01725 0.91059 0.85634 0.0
C356 C 0.01453 0.90485 0.8195 0.0
C357 C 0.01464 0.95854 0.79475 0.0
C358 C 0.01786 0.01671 0.80558 0.0
C359 C 0.01923 0.0667 0.77312 0.0
C360 C 0.96052 0.10832 0.77243 0.0
C361 C 0.08069 0.10496 0.77249 0.0
C362 C 0.01753 0.0273 0.74255 0.0
C363 C 0.01446 0.96509 0.75569 0.0
C364 C 0.01585 0.91951 0.73288 0.0
C365 C 0.0223 0.9379 0.69562 0.0
C366 C 0.02712 0.00144 0.6814 0.0
C367 C 0.0229 0.04655 0.70537 0.0
H368 H 0.59108 0.45854 0.65903 0.0
H369 H 0.52635 0.64778 0.63246 0.0
H370 H 0.5323 0.66224 0.69684 0.0
H371 H 0.49887 0.42668 0.73821 0.0
H372 H 0.55659 0.37789 0.76359 0.0
H373 H 0.55537 0.38434 0.71502 0.0
H374 H 0.67314 0.41829 0.7128 0.0
H375 H 0.67472 0.41182 0.76144 0.0
H376 H 0.69725 0.48357 0.73461 0.0
H377 H 0.54044 0.65533 0.76371 0.0
H378 H 0.5447 0.62596 0.82971 0.0
H379 H 0.59557 0.43833 0.81407 0.0
C380 C 0.57969 0.50331 0.66684 0.0
C381 C 0.55915 0.55243 0.64094 0.0
C382 C 0.54258 0.60984 0.65204 0.0
C383 C 0.546 0.61853 0.68846 0.0
C384 C 0.5653 0.56903 0.71354 0.0
C385 C 0.5815 0.51237 0.70336 0.0
C386 C 0.59505 0.46534 0.73624 0.0
C387 C 0.5487 0.41033 0.73838 0.0
C388 C 0.66416 0.44348 0.73626 0.0
C389 C 0.58327 0.50431 0.76631 0.0
C390 C 0.56707 0.56416 0.75254 0.0
C391 C 0.55298 0.60854 0.77488 0.0
C392 C 0.55496 0.5912 0.8124 0.0
C393 C 0.56999 0.52967 0.82732 0.0
C394 C 0.58478 0.48596 0.80373 0.0
H395 H 0.48599 0.48377 0.36087 0.0
H396 H 0.47681 0.68216 0.36299 0.0
H397 H 0.45432 0.69804 0.29736 0.0
H398 H 0.56838 0.49321 0.27834 0.0
H399 H 0.52893 0.42767 0.26338 0.0
H400 H 0.53742 0.43193 0.31094 0.0
H401 H 0.41592 0.41974 0.31887 0.0
H402 H 0.40705 0.41617 0.27116 0.0
H403 H 0.36391 0.47308 0.29209 0.0
H404 H 0.43768 0.6926 0.23123 0.0
H405 H 0.43982 0.6676 0.16864 0.0
H406 H 0.46453 0.47318 0.20945 0.0
C407 C 0.47832 0.53049 0.34762 0.0
C408 C 0.48261 0.58174 0.36703 0.0
C409 C 0.47374 0.64227 0.3486 0.0
C410 C 0.46044 0.65168 0.31142 0.0
C411 C 0.45656 0.60011 0.29307 0.0
C412 C 0.46592 0.54075 0.31048 0.0
C413 C 0.46498 0.49378 0.28403 0.0
C414 C 0.52871 0.45968 0.28418 0.0
C415 C 0.40966 0.44799 0.29202 0.0
C416 C 0.45467 0.53607 0.2489 0.0
C417 C 0.44881 0.5971 0.25478 0.0
C418 C 0.44193 0.64496 0.22632 0.0
C419 C 0.44331 0.63033 0.19088 0.0
C420 C 0.45234 0.56845 0.18418 0.0
C421 C 0.45624 0.52068 0.2137 0.0
loop_
_geom_bond_atom_site_label_1
_geom_bond_atom_site_label_2
_geom_bond_distance
_geom_bond_site_symmetry_2
_ccdc_geom_bond_type
O0 Zn1 1.953 . S
O0 C16 1.225 1_565 S
Zn1 O0 1.953 . S
Zn1 O2 1.949 1_565 S
Zn1 O8 1.919 . S
Zn1 O13 1.924 1_565 S
O2 Zn1 1.949 1_545 S
O2 Zn3 1.923 1_544 S
O2 Zn4 1.950 1_455 S
O2 Zn5 1.945 1_554 S
Zn3 O2 1.923 1_566 S
Zn3 O6 1.933 . S
Zn3 O9 1.941 . S
Zn3 O10 1.965 1_455 S
Zn4 O2 1.950 1_655 S
Zn4 O11 1.938 1_545 S
Zn4 O12 1.906 . S
Zn4 O22 1.953 . S
Zn5 O2 1.945 1_556 S
Zn5 O7 1.932 . S
Zn5 O14 1.977 1_455 S
Zn5 O15 1.910 . S
O6 Zn3 1.933 . S
O6 C17 1.226 1_565 S
O7 Zn5 1.932 . S
O7 C17 1.307 . S
O8 Zn1 1.919 . S
O8 C19 1.232 1_554 S
O9 Zn3 1.941 . S
O9 C19 1.294 . S
O10 Zn3 1.965 1_655 S
O10 C18 1.303 1_556 S
O11 Zn4 1.938 1_565 S
O11 C18 1.247 . S
O12 Zn4 1.906 . S
O12 C20 1.304 1_554 S
O13 Zn1 1.924 1_545 S
O13 C21 1.311 . S
O14 Zn5 1.977 1_655 S
O14 C20 1.272 . S
O15 Zn5 1.910 . S
O15 C21 1.231 1_556 S
C16 O0 1.225 1_545 S
C16 O22 1.298 1_455 S
C17 O6 1.226 1_545 S
C17 O7 1.307 . S
C18 O10 1.303 1_554 S
C18 O11 1.247 . S
C19 O8 1.232 1_556 S
C19 O9 1.294 . S
C20 O12 1.304 1_556 S
C20 O14 1.272 . S
C21 O13 1.311 . S
C21 O15 1.231 1_554 S
O22 Zn4 1.953 . S
O22 C16 1.298 1_655 S
O23 Zn24 1.953 . S
O23 C39 1.225 . S
Zn24 O23 1.953 . S
Zn24 O25 1.949 . S
Zn24 O31 1.919 . S
Zn24 O36 1.924 . S
O25 Zn24 1.949 . S
O25 Zn26 1.923 . S
O25 Zn27 1.950 . S
O25 Zn28 1.945 . S
Zn26 O25 1.923 . S
Zn26 O29 1.933 . S
Zn26 O32 1.941 . S
Zn26 O33 1.965 . S
Zn27 O25 1.950 . S
Zn27 O34 1.938 . S
Zn27 O35 1.906 . S
Zn27 O45 1.953 . S
Zn28 O25 1.945 . S
Zn28 O30 1.932 . S
Zn28 O37 1.977 . S
Zn28 O38 1.910 . S
O29 Zn26 1.933 . S
O29 C40 1.226 . S
O30 Zn28 1.932 . S
O30 C40 1.307 . S
O31 Zn24 1.919 . S
O31 C42 1.253 . S
O32 Zn26 1.941 . S
O32 C42 1.283 . S
O33 Zn26 1.965 . S
O33 C41 1.303 . S
O34 Zn27 1.938 . S
O34 C41 1.247 . S
O35 Zn27 1.906 . S
O35 C43 1.304 . S
O36 Zn24 1.924 . S
O36 C44 1.311 . S
O37 Zn28 1.977 . S
O37 C43 1.272 . S
O38 Zn28 1.910 . S
O38 C44 1.231 . S
C39 O23 1.225 . S
C39 O45 1.298 . S
C40 O29 1.226 . S
C40 O30 1.307 . S
C41 O33 1.303 . S
C41 O34 1.247 . S
C42 O31 1.253 . S
C42 O32 1.283 . S
C43 O35 1.304 . S
C43 O37 1.272 . S
C44 O36 1.311 . S
C44 O38 1.231 . S
O45 Zn27 1.953 . S
O45 C39 1.298 . S
H46 C53 0.929 . S
H47 C56 0.930 . S
H48 C58 0.929 . S
H49 C50 0.969 . S
C50 H49 0.969 . S
C50 O51 1.550 . S
C50 H52 0.973 . S
O51 C50 1.550 . S
O51 C57 1.412 . S
H52 C50 0.973 . S
C53 H46 0.929 . S
C53 C54 1.400 . S
C53 C55 1.364 . S
C54 C53 1.400 . S
C54 C58 1.377 . S
C55 C53 1.364 . S
C55 C56 1.374 1_465 S
C56 H47 0.930 . S
C56 C55 1.374 1_645 S
C56 C57 1.383 . S
C57 O51 1.412 . S
C57 C56 1.383 . S
C57 C58 1.394 1_645 S
C58 H48 0.929 . S
C58 C54 1.377 . S
C58 C57 1.394 1_465 S
H59 C66 0.929 . S
H60 C69 0.930 1_655 S
H61 C71 0.929 . S
H62 C63 0.969 . S
C63 H62 0.969 . S
C63 O64 1.550 . S
C63 H65 0.973 . S
O64 C63 1.550 . S
O64 C70 1.412 1_665 S
H65 C63 0.973 . S
C66 H59 0.929 . S
C66 C67 1.400 . S
C66 C68 1.364 . S
C67 C66 1.400 . S
C67 C71 1.377 . S
C68 C66 1.364 . S
C68 C69 1.374 1_545 S
C69 H60 0.930 1_455 S
C69 C68 1.374 1_565 S
C69 C70 1.383 1_565 S
C70 O64 1.412 1_445 S
C70 C69 1.383 1_545 S
C70 C71 1.394 . S
C71 H61 0.929 . S
C71 C67 1.377 . S
C71 C70 1.394 . S
H72 C79 0.929 . S
H73 C82 0.930 . S
H74 C84 0.929 . S
H75 C76 0.969 . S
C76 H75 0.969 . S
C76 O77 1.550 . S
C76 H78 0.973 . S
O77 C76 1.550 . S
O77 C83 1.412 . S
H78 C76 0.973 . S
C79 H72 0.929 . S
C79 C80 1.400 . S
C79 C81 1.364 . S
C80 C79 1.400 . S
C80 C84 1.377 . S
C81 C79 1.364 . S
C81 C82 1.374 . S
C82 H73 0.930 . S
C82 C81 1.374 . S
C82 C83 1.383 . S
C83 O77 1.412 . S
C83 C82 1.383 . S
C83 C84 1.394 . S
C84 H74 0.929 . S
C84 C80 1.377 . S
C84 C83 1.394 . S
H85 C92 0.929 . S
H86 C95 0.930 . S
H87 C97 0.929 . S
H88 C89 0.969 . S
C89 H88 0.969 . S
C89 O90 1.550 . S
C89 H91 0.973 . S
O90 C89 1.550 . S
O90 C96 1.412 . S
H91 C89 0.973 . S
C92 H85 0.929 . S
C92 C93 1.400 . S
C92 C94 1.364 . S
C93 C92 1.400 . S
C93 C97 1.377 . S
C94 C92 1.364 . S
C94 C95 1.374 . S
C95 H86 0.930 . S
C95 C94 1.374 . S
C95 C96 1.383 . S
C96 O90 1.412 . S
C96 C95 1.383 . S
C96 C97 1.394 . S
C97 H87 0.929 . S
C97 C93 1.377 . S
C97 C96 1.394 . S
H98 C110 0.930 1_556 S
H99 C112 0.930 . S
H100 C113 0.930 . S
H101 C117 0.959 . S
H102 C117 0.959 . S
H103 C117 0.961 . S
H104 C118 0.960 . S
H105 C118 0.961 . S
H106 C118 0.959 . S
H107 C121 0.929 . S
H108 C122 0.931 . S
H109 C124 0.930 . S
C110 H98 0.930 1_554 S
C110 C111 1.399 . S
C110 C115 1.399 . S
C111 C110 1.399 . S
C111 C112 1.376 . S
C112 H99 0.930 . S
C112 C111 1.376 . S
C112 C113 1.388 . S
C113 H100 0.930 . S
C113 C112 1.388 . S
C113 C114 1.390 . S
C114 C113 1.390 . S
C114 C115 1.394 . S
C114 C120 1.465 . S
C115 C110 1.399 . S
C115 C114 1.394 . S
C115 C116 1.516 1_554 S
C116 C115 1.516 1_556 S
C116 C117 1.502 . S
C116 C118 1.561 . S
C116 C119 1.526 1_556 S
C117 H101 0.959 . S
C117 H102 0.959 . S
C117 H103 0.961 . S
C117 C116 1.502 . S
C118 H104 0.960 . S
C118 H105 0.961 . S
C118 H106 0.959 . S
C118 C116 1.561 . S
C119 C116 1.526 1_554 S
C119 C120 1.396 . S
C119 C124 1.390 . S
C120 C114 1.465 . S
C120 C119 1.396 . S
C120 C121 1.399 . S
C121 H107 0.929 . S
C121 C120 1.399 . S
C121 C122 1.385 . S
C122 H108 0.931 . S
C122 C121 1.385 . S
C122 C123 1.389 . S
C123 C122 1.389 . S
C123 C124 1.387 . S
C124 H109 0.930 . S
C124 C119 1.390 . S
C124 C123 1.387 . S
H125 C137 0.930 . S
H126 C139 0.930 . S
H127 C140 0.930 . S
H128 C144 0.959 . S
H129 C144 0.959 . S
H130 C144 0.961 . S
H131 C145 0.960 . S
H132 C145 0.961 . S
H133 C145 0.959 . S
H134 C148 0.929 . S
H135 C149 0.931 1_554 S
H136 C151 0.930 . S
C137 H125 0.930 . S
C137 C138 1.399 . S
C137 C142 1.399 . S
C138 C137 1.399 . S
C138 C139 1.376 1_556 S
C139 H126 0.930 . S
C139 C138 1.376 1_554 S
C139 C140 1.388 . S
C140 H127 0.930 . S
C140 C139 1.388 . S
C140 C141 1.390 1_554 S
C141 C140 1.390 1_556 S
C141 C142 1.394 . S
C141 C147 1.465 . S
C142 C137 1.399 . S
C142 C141 1.394 . S
C142 C143 1.516 . S
C143 C142 1.516 . S
C143 C144 1.502 . S
C143 C145 1.561 . S
C143 C146 1.526 . S
C144 H128 0.959 . S
C144 H129 0.959 . S
C144 H130 0.961 . S
C144 C143 1.502 . S
C145 H131 0.960 . S
C145 H132 0.961 . S
C145 H133 0.959 . S
C145 C143 1.561 . S
C146 C143 1.526 . S
C146 C147 1.396 . S
C146 C151 1.390 . S
C147 C141 1.465 . S
C147 C146 1.396 . S
C147 C148 1.399 1_556 S
C148 H134 0.929 . S
C148 C147 1.399 1_554 S
C148 C149 1.385 1_554 S
C149 H135 0.931 1_556 S
C149 C148 1.385 1_556 S
C149 C150 1.389 . S
C150 C149 1.389 . S
C150 C151 1.387 . S
C151 H136 0.930 . S
C151 C146 1.390 . S
C151 C150 1.387 . S
H152 C164 0.930 . S
H153 C166 0.931 . S
H154 C167 0.922 1_556 S
H155 C171 0.959 . S
H156 C171 0.959 . S
H157 C171 0.961 . S
H158 C172 0.960 . S
H159 C172 0.961 . S
H160 C172 0.959 . S
H161 C175 0.929 1_556 S
H162 C176 0.931 . S
H163 C178 0.930 . S
C164 H152 0.930 . S
C164 C165 1.399 . S
C164 C169 1.399 . S
C165 C164 1.399 . S
C165 C166 1.376 1_554 S
C166 H153 0.931 . S
C166 C165 1.376 1_556 S
C166 C167 1.389 1_556 S
C167 H154 0.922 1_554 S
C167 C166 1.389 1_554 S
C167 C168 1.397 . S
C168 C167 1.397 . S
C168 C169 1.394 . S
C168 C174 1.465 . S
C169 C164 1.399 . S
C169 C168 1.394 . S
C169 C170 1.516 . S
C170 C169 1.516 . S
C170 C171 1.502 . S
C170 C172 1.561 . S
C170 C173 1.526 . S
C171 H155 0.959 . S
C171 H156 0.959 . S
C171 H157 0.961 . S
C171 C170 1.502 . S
C172 H158 0.960 . S
C172 H159 0.961 . S
C172 H160 0.959 . S
C172 C170 1.561 . S
C173 C170 1.526 . S
C173 C174 1.396 . S
C173 C178 1.390 . S
C174 C168 1.465 . S
C174 C173 1.396 . S
C174 C175 1.399 . S
C175 H161 0.929 1_554 S
C175 C174 1.399 . S
C175 C176 1.385 . S
C176 H162 0.931 . S
C176 C175 1.385 . S
C176 C177 1.389 . S
C177 C176 1.389 . S
C177 C178 1.387 . S
C178 H163 0.930 . S
C178 C173 1.390 . S
C178 C177 1.387 . S
H179 C191 0.930 . S
H180 C193 0.930 . S
H181 C194 0.930 . S
H182 C198 0.959 . S
H183 C198 0.959 . S
H184 C198 0.961 . S
H185 C199 0.960 . S
H186 C199 0.961 . S
H187 C199 0.959 . S
H188 C202 0.929 1_554 S
H189 C203 0.931 . S
H190 C205 0.930 . S
C191 H179 0.930 . S
C191 C192 1.399 . S
C191 C196 1.399 . S
C192 C191 1.399 . S
C192 C193 1.376 1_556 S
C193 H180 0.930 . S
C193 C192 1.376 1_554 S
C193 C194 1.388 . S
C194 H181 0.930 . S
C194 C193 1.388 . S
C194 C195 1.390 1_554 S
C195 C194 1.390 1_556 S
C195 C196 1.394 . S
C195 C201 1.465 . S
C196 C191 1.399 . S
C196 C195 1.394 . S
C196 C197 1.516 . S
C197 C196 1.516 . S
C197 C198 1.502 . S
C197 C199 1.561 . S
C197 C200 1.526 . S
C198 H182 0.959 . S
C198 H183 0.959 . S
C198 H184 0.961 . S
C198 C197 1.502 . S
C199 H185 0.960 . S
C199 H186 0.961 . S
C199 H187 0.959 . S
C199 C197 1.561 . S
C200 C197 1.526 . S
C200 C201 1.396 . S
C200 C205 1.390 . S
C201 C195 1.465 . S
C201 C200 1.396 . S
C201 C202 1.399 . S
C202 H188 0.929 1_556 S
C202 C201 1.399 . S
C202 C203 1.385 . S
C203 H189 0.931 . S
C203 C202 1.385 . S
C203 C204 1.389 . S
C204 C203 1.389 . S
C204 C205 1.387 . S
C205 H190 0.930 . S
C205 C200 1.390 . S
C205 C204 1.387 . S
H206 C218 0.930 . S
H207 C220 0.930 . S
H208 C221 0.930 . S
H209 C225 0.959 . S
H210 C225 0.959 . S
H211 C225 0.961 . S
H212 C226 0.960 . S
H213 C226 0.961 . S
H214 C226 0.959 . S
H215 C229 0.929 . S
H216 C230 0.931 . S
H217 C232 0.930 . S
C218 H206 0.930 . S
C218 C219 1.399 . S
C218 C223 1.399 . S
C219 C218 1.399 . S
C219 C220 1.376 . S
C220 H207 0.930 . S
C220 C219 1.376 . S
C220 C221 1.388 . S
C221 H208 0.930 . S
C221 C220 1.388 . S
C221 C222 1.390 . S
C222 C221 1.390 . S
C222 C223 1.394 . S
C222 C228 1.465 . S
C223 C218 1.399 . S
C223 C222 1.394 . S
C223 C224 1.516 . S
C224 C223 1.516 . S
C224 C225 1.502 . S
C224 C226 1.561 . S
C224 C227 1.526 . S
C225 H209 0.959 . S
C225 H210 0.959 . S
C225 H211 0.961 . S
C225 C224 1.502 . S
C226 H212 0.960 . S
C226 H213 0.961 . S
C226 H214 0.959 . S
C226 C224 1.561 . S
C227 C224 1.526 . S
C227 C228 1.396 . S
C227 C232 1.390 . S
C228 C222 1.465 . S
C228 C227 1.396 . S
C228 C229 1.399 . S
C229 H215 0.929 . S
C229 C228 1.399 . S
C229 C230 1.385 . S
C230 H216 0.931 . S
C230 C229 1.385 . S
C230 C231 1.389 . S
C231 C230 1.389 . S
C231 C232 1.387 . S
C232 H217 0.930 . S
C232 C227 1.390 . S
C232 C231 1.387 . S
H233 C245 0.930 . S
H234 C247 0.930 . S
H235 C248 0.930 . S
H236 C252 0.959 . S
H237 C252 0.959 . S
H238 C252 0.961 . S
H239 C253 0.960 . S
H240 C253 0.961 . S
H241 C253 0.959 . S
H242 C256 0.929 . S
H243 C257 0.931 . S
H244 C259 0.930 . S
C245 H233 0.930 . S
C245 C246 1.399 . S
C245 C250 1.399 . S
C246 C245 1.399 . S
C246 C247 1.376 . S
C247 H234 0.930 . S
C247 C246 1.376 . S
C247 C248 1.388 . S
C248 H235 0.930 . S
C248 C247 1.388 . S
C248 C249 1.390 . S
C249 C248 1.390 . S
C249 C250 1.394 . S
C249 C255 1.465 . S
C250 C245 1.399 . S
C250 C249 1.394 . S
C250 C251 1.516 . S
C251 C250 1.516 . S
C251 C252 1.502 . S
C251 C253 1.561 . S
C251 C254 1.526 . S
C252 H236 0.959 . S
C252 H237 0.959 . S
C252 H238 0.961 . S
C252 C251 1.502 . S
C253 H239 0.960 . S
C253 H240 0.961 . S
C253 H241 0.959 . S
C253 C251 1.561 . S
C254 C251 1.526 . S
C254 C255 1.396 . S
C254 C259 1.390 . S
C255 C249 1.465 . S
C255 C254 1.396 . S
C255 C256 1.399 . S
C256 H242 0.929 . S
C256 C255 1.399 . S
C256 C257 1.385 . S
C257 H243 0.931 . S
C257 C256 1.385 . S
C257 C258 1.389 . S
C258 C257 1.389 . S
C258 C259 1.387 . S
C259 H244 0.930 . S
C259 C254 1.390 . S
C259 C258 1.387 . S
H260 C272 0.930 . S
H261 C274 0.930 . S
H262 C275 0.930 . S
H263 C279 0.959 . S
H264 C279 0.959 . S
H265 C279 0.961 . S
H266 C280 0.960 . S
H267 C280 0.961 . S
H268 C280 0.959 . S
H269 C283 0.929 . S
H270 C284 0.931 . S
H271 C286 0.930 . S
C272 H260 0.930 . S
C272 C273 1.399 . S
C272 C277 1.399 . S
C273 C272 1.399 . S
C273 C274 1.376 . S
C274 H261 0.930 . S
C274 C273 1.376 . S
C274 C275 1.388 . S
C275 H262 0.930 . S
C275 C274 1.388 . S
C275 C276 1.390 . S
C276 C275 1.390 . S
C276 C277 1.394 . S
C276 C282 1.465 . S
C277 C272 1.399 . S
C277 C276 1.394 . S
C277 C278 1.516 . S
C278 C277 1.516 . S
C278 C279 1.502 . S
C278 C280 1.561 . S
C278 C281 1.526 . S
C279 H263 0.959 . S
C279 H264 0.959 . S
C279 H265 0.961 . S
C279 C278 1.502 . S
C280 H266 0.960 . S
C280 H267 0.961 . S
C280 H268 0.959 . S
C280 C278 1.561 . S
C281 C278 1.526 . S
C281 C282 1.396 . S
C281 C286 1.390 . S
C282 C276 1.465 . S
C282 C281 1.396 . S
C282 C283 1.399 . S
C283 H269 0.929 . S
C283 C282 1.399 . S
C283 C284 1.385 . S
C284 H270 0.931 . S
C284 C283 1.385 . S
C284 C285 1.389 . S
C285 C284 1.389 . S
C285 C286 1.387 . S
C286 H271 0.930 . S
C286 C281 1.390 . S
C286 C285 1.387 . S
H287 C299 0.930 . S
H288 C301 0.930 . S
H289 C302 0.930 . S
H290 C306 0.959 . S
H291 C306 0.959 . S
H292 C306 0.961 . S
H293 C307 0.960 . S
H294 C307 0.961 . S
H295 C307 0.959 . S
H296 C310 0.929 . S
H297 C311 0.931 . S
H298 C313 0.930 . S
C299 H287 0.930 . S
C299 C300 1.399 . S
C299 C304 1.399 . S
C300 C299 1.399 . S
C300 C301 1.376 . S
C301 H288 0.930 . S
C301 C300 1.376 . S
C301 C302 1.388 . S
C302 H289 0.930 . S
C302 C301 1.388 . S
C302 C303 1.390 . S
C303 C302 1.390 . S
C303 C304 1.394 . S
C303 C309 1.465 . S
C304 C299 1.399 . S
C304 C303 1.394 . S
C304 C305 1.516 . S
C305 C304 1.516 . S
C305 C306 1.502 . S
C305 C307 1.561 . S
C305 C308 1.526 . S
C306 H290 0.959 . S
C306 H291 0.959 . S
C306 H292 0.961 . S
C306 C305 1.502 . S
C307 H293 0.960 . S
C307 H294 0.961 . S
C307 H295 0.959 . S
C307 C305 1.561 . S
C308 C305 1.526 . S
C308 C309 1.396 . S
C308 C313 1.390 . S
C309 C303 1.465 . S
C309 C308 1.396 . S
C309 C310 1.399 . S
C310 H296 0.929 . S
C310 C309 1.399 . S
C310 C311 1.385 . S
C311 H297 0.931 . S
C311 C310 1.385 . S
C311 C312 1.389 . S
C312 C311 1.389 . S
C312 C313 1.387 . S
C313 H298 0.930 . S
C313 C308 1.390 . S
C313 C312 1.387 . S
H314 C326 0.930 . S
H315 C328 0.930 . S
H316 C329 0.930 . S
H317 C333 0.959 . S
H318 C333 0.959 . S
H319 C333 0.961 . S
H320 C334 0.960 1_455 S
H321 C334 0.961 1_455 S
H322 C334 0.959 . S
H323 C337 0.929 . S
H324 C338 0.931 . S
H325 C340 0.930 . S
C326 H314 0.930 . S
C326 C327 1.399 1_545 S
C326 C331 1.399 . S
C327 C326 1.399 1_565 S
C327 C328 1.376 1_455 S
C328 H315 0.930 . S
C328 C327 1.376 1_655 S
C328 C329 1.388 . S
C329 H316 0.930 . S
C329 C328 1.388 . S
C329 C330 1.390 1_655 S
C330 C329 1.390 1_455 S
C330 C331 1.394 1_565 S
C330 C336 1.465 . S
C331 C326 1.399 . S
C331 C330 1.394 1_545 S
C331 C332 1.516 . S
C332 C331 1.516 . S
C332 C333 1.502 . S
C332 C334 1.561 1_455 S
C332 C335 1.526 . S
C333 H317 0.959 . S
C333 H318 0.959 . S
C333 H319 0.961 . S
C333 C332 1.502 . S
C334 H320 0.960 1_655 S
C334 H321 0.961 1_655 S
C334 H322 0.959 . S
C334 C332 1.561 1_655 S
C335 C332 1.526 . S
C335 C336 1.396 1_545 S
C335 C340 1.390 . S
C336 C330 1.465 . S
C336 C335 1.396 1_565 S
C336 C337 1.399 1_455 S
C337 H323 0.929 . S
C337 C336 1.399 1_655 S
C337 C338 1.385 . S
C338 H324 0.931 . S
C338 C337 1.385 . S
C338 C339 1.389 1_655 S
C339 C338 1.389 1_455 S
C339 C340 1.387 1_565 S
C340 H325 0.930 . S
C340 C335 1.390 . S
C340 C339 1.387 1_545 S
H341 C353 0.930 1_655 S
H342 C355 0.930 . S
H343 C356 0.930 . S
H344 C360 0.959 . S
H345 C360 0.959 . S
H346 C360 0.961 . S
H347 C361 0.960 . S
H348 C361 0.961 . S
H349 C361 0.959 . S
H350 C364 0.929 . S
H351 C365 0.931 . S
H352 C367 0.930 1_655 S
C353 H341 0.930 1_455 S
C353 C354 1.399 . S
C353 C358 1.399 . S
C354 C353 1.399 . S
C354 C355 1.376 1_545 S
C355 H342 0.930 . S
C355 C354 1.376 1_565 S
C355 C356 1.388 . S
C356 H343 0.930 . S
C356 C355 1.388 . S
C356 C357 1.390 1_565 S
C357 C356 1.390 1_545 S
C357 C358 1.394 . S
C357 C363 1.465 . S
C358 C353 1.399 . S
C358 C357 1.394 . S
C358 C359 1.516 . S
C359 C358 1.516 . S
C359 C360 1.502 1_455 S
C359 C361 1.561 . S
C359 C362 1.526 . S
C360 H344 0.959 . S
C360 H345 0.959 . S
C360 H346 0.961 . S
C360 C359 1.502 1_655 S
C361 H347 0.960 . S
C361 H348 0.961 . S
C361 H349 0.959 . S
C361 C359 1.561 . S
C362 C359 1.526 . S
C362 C363 1.396 . S
C362 C367 1.390 . S
C363 C357 1.465 . S
C363 C362 1.396 . S
C363 C364 1.399 1_545 S
C364 H350 0.929 . S
C364 C363 1.399 1_565 S
C364 C365 1.385 . S
C365 H351 0.931 . S
C365 C364 1.385 . S
C365 C366 1.389 1_565 S
C366 C365 1.389 1_545 S
C366 C367 1.387 . S
C367 H352 0.930 1_455 S
C367 C362 1.390 . S
C367 C366 1.387 . S
H368 C380 0.930 . S
H369 C382 0.930 . S
H370 C383 0.930 . S
H371 C387 0.959 . S
H372 C387 0.959 . S
H373 C387 0.961 . S
H374 C388 0.960 . S
H375 C388 0.961 . S
H376 C388 0.959 . S
H377 C391 0.929 . S
H378 C392 0.931 . S
H379 C394 0.930 . S
C380 H368 0.930 . S
C380 C381 1.399 . S
C380 C385 1.399 . S
C381 C380 1.399 . S
C381 C382 1.376 . S
C382 H369 0.930 . S
C382 C381 1.376 . S
C382 C383 1.388 . S
C383 H370 0.930 . S
C383 C382 1.388 . S
C383 C384 1.390 . S
C384 C383 1.390 . S
C384 C385 1.394 . S
C384 C390 1.465 . S
C385 C380 1.399 . S
C385 C384 1.394 . S
C385 C386 1.516 . S
C386 C385 1.516 . S
C386 C387 1.502 . S
C386 C388 1.561 . S
C386 C389 1.526 . S
C387 H371 0.959 . S
C387 H372 0.959 . S
C387 H373 0.961 . S
C387 C386 1.502 . S
C388 H374 0.960 . S
C388 H375 0.961 . S
C388 H376 0.959 . S
C388 C386 1.561 . S
C389 C386 1.526 . S
C389 C390 1.396 . S
C389 C394 1.390 . S
C390 C384 1.465 . S
C390 C389 1.396 . S
C390 C391 1.399 . S
C391 H377 0.929 . S
C391 C390 1.399 . S
C391 C392 1.385 . S
C392 H378 0.931 . S
C392 C391 1.385 . S
C392 C393 1.389 . S
C393 C392 1.389 . S
C393 C394 1.387 . S
C394 H379 0.930 . S
C394 C389 1.390 . S
C394 C393 1.387 . S
H395 C407 0.930 . S
H396 C409 0.930 . S
H397 C410 0.930 . S
H398 C414 0.959 . S
H399 C414 0.959 . S
H400 C414 0.961 . S
H401 C415 0.960 . S
H402 C415 0.961 . S
H403 C415 0.959 . S
H404 C418 0.929 . S
H405 C419 0.931 . S
H406 C421 0.930 . S
C407 H395 0.930 . S
C407 C408 1.399 . S
C407 C412 1.399 . S
C408 C407 1.399 . S
C408 C409 1.376 . S
C409 H396 0.930 . S
C409 C408 1.376 . S
C409 C410 1.388 . S
C410 H397 0.930 . S
C410 C409 1.388 . S
C410 C411 1.390 . S
C411 C410 1.390 . S
C411 C412 1.394 . S
C411 C417 1.465 . S
C412 C407 1.399 . S
C412 C411 1.394 . S
C412 C413 1.516 . S
C413 C412 1.516 . S
C413 C414 1.502 . S
C413 C415 1.561 . S
C413 C416 1.526 . S
C414 H398 0.959 . S
C414 H399 0.959 . S
C414 H400 0.961 . S
C414 C413 1.502 . S
C415 H401 0.960 . S
C415 H402 0.961 . S
C415 H403 0.959 . S
C415 C413 1.561 . S
C416 C413 1.526 . S
C416 C417 1.396 . S
C416 C421 1.390 . S
C417 C411 1.465 . S
C417 C416 1.396 . S
C417 C418 1.399 . S
C418 H404 0.929 . S
C418 C417 1.399 . S
C418 C419 1.385 . S
C419 H405 0.931 . S
C419 C418 1.385 . S
C419 C420 1.389 . S
C420 C419 1.389 . S
C420 C421 1.387 . S
C421 H406 0.930 . S
C421 C416 1.390 . S
C421 C420 1.387 . S
C123 C89 1.269 . S
C111 C21 1.423 . S
C138 C19 1.407 . S
C150 C76 1.379 . S
C165 C18 1.449 . S
C177 C93 1.511 . S
C192 C20 1.493 . S
C204 C80 1.522 . S
C219 C44 1.423 . S
C231 C63 1.268 . S
C246 C42 1.406 . S
C258 C50 1.274 . S
C285 C67 1.478 . S
C273 C41 1.502 . S
C312 C54 1.488 . S
C300 C43 1.515 . S
C327 C16 1.524 1_565 S
C339 C55 1.515 . S
C354 C17 1.489 . S
C366 C68 1.489 . S
C393 C81 1.519 . S
C381 C39 1.517 . S
C408 C40 1.489 . S
C420 C94 1.481 . S
