# Generated by pormake.
# Topology zzz, (3,6)-cn, num edge types: 1
# Building blocks:
#     Node 0, Type 0, BuildingBlock: ESEHIV_clean_linker_0, # of connection points: 3
#     Node 1, Type 0, BuildingBlock: ESEHIV_clean_linker_0, # of connection points: 3
#     Node 2, Type 0, BuildingBlock: ESEHIV_clean_linker_0, # of connection points: 3
#     Node 3, Type 0, BuildingBlock: ESEHIV_clean_linker_0, # of connection points: 3
#     Node 4, Type 0, BuildingBlock: ESEHIV_clean_linker_0, # of connection points: 3
#     Node 5, Type 0, BuildingBlock: ESEHIV_clean_linker_0, # of connection points: 3
#     Node 6, Type 0, BuildingBlock: ESEHIV_clean_linker_0, # of connection points: 3
#     Node 7, Type 0, BuildingBlock: ESEHIV_clean_linker_0, # of connection points: 3
#     Node 8, Type 1, BuildingBlock: HISSIN_clean_sbu_0, # of connection points: 6
#     Node 9, Type 1, BuildingBlock: HISSIN_clean_sbu_0, # of connection points: 6
#     Node 10, Type 1, BuildingBlock: HISSIN_clean_sbu_0, # of connection points: 6
#     Node 11, Type 1, BuildingBlock: HISSIN_clean_sbu_0, # of connection points: 6
#     Edge 12, Type (0, 1), BuildingBlock: XUDNAN_clean_linker_2, # of connection points: 2
#     Edge 13, Type (0, 1), BuildingBlock: XUDNAN_clean_linker_2, # of connection points: 2
#     Edge 14, Type (0, 1), BuildingBlock: XUDNAN_clean_linker_2, # of connection points: 2
#     Edge 15, Type (0, 1), BuildingBlock: XUDNAN_clean_linker_2, # of connection points: 2
#     Edge 16, Type (0, 1), BuildingBlock: XUDNAN_clean_linker_2, # of connection points: 2
#     Edge 17, Type (0, 1), BuildingBlock: XUDNAN_clean_linker_2, # of connection points: 2
#     Edge 18, Type (0, 1), BuildingBlock: XUDNAN_clean_linker_2, # of connection points: 2
#     Edge 19, Type (0, 1), BuildingBlock: XUDNAN_clean_linker_2, # of connection points: 2
#     Edge 20, Type (0, 1), BuildingBlock: XUDNAN_clean_linker_2, # of connection points: 2
#     Edge 21, Type (0, 1), BuildingBlock: XUDNAN_clean_linker_2, # of connection points: 2
#     Edge 22, Type (0, 1), BuildingBlock: XUDNAN_clean_linker_2, # of connection points: 2
#     Edge 23, Type (0, 1), BuildingBlock: XUDNAN_clean_linker_2, # of connection points: 2
#     Edge 24, Type (0, 1), BuildingBlock: XUDNAN_clean_linker_2, # of connection points: 2
#     Edge 25, Type (0, 1), BuildingBlock: XUDNAN_clean_linker_2, # of connection points: 2
#     Edge 26, Type (0, 1), BuildingBlock: XUDNAN_clean_linker_2, # of connection points: 2
#     Edge 27, Type (0, 1), BuildingBlock: XUDNAN_clean_linker_2, # of connection points: 2
#     Edge 28, Type (0, 1), BuildingBlock: XUDNAN_clean_linker_2, # of connection points: 2
#     Edge 29, Type (0, 1), BuildingBlock: XUDNAN_clean_linker_2, # of connection points: 2
#     Edge 30, Type (0, 1), BuildingBlock: XUDNAN_clean_linker_2, # of connection points: 2
#     Edge 31, Type (0, 1), BuildingBlock: XUDNAN_clean_linker_2, # of connection points: 2
#     Edge 32, Type (0, 1), BuildingBlock: XUDNAN_clean_linker_2, # of connection points: 2
#     Edge 33, Type (0, 1), BuildingBlock: XUDNAN_clean_linker_2, # of connection points: 2
#     Edge 34, Type (0, 1), BuildingBlock: XUDNAN_clean_linker_2, # of connection points: 2
#     Edge 35, Type (0, 1), BuildingBlock: XUDNAN_clean_linker_2, # of connection points: 2
# Relax obj value: 0.456
# Max RMSD: 0.241
# Mean RMSD: 0.195
data_MOF--net-zzz--node1-HISSIN_clean_sbu_0--node2-ESEHIV_clean_linker_0--edge1-XUDNAN_clean_linker_2
_symmetry_space_group_name_H-M    P1
_symmetry_Int_Tables_number       1
_symmetry_cell_setting            triclinic
loop_
_symmetry_equiv_pos_as_xyz
'x, y, z'
_cell_length_a     43.67234
_cell_length_b     43.611374
_cell_length_c     17.044244
_cell_angle_alpha  89.729901
_cell_angle_beta   92.243428
_cell_angle_gamma 91.261986
loop_
_atom_site_label
_atom_site_type_symbol
_atom_site_fract_x
_atom_site_fract_y
_atom_site_fract_z
_atom_type_partial_charge
H0 H 0.80207 0.45595 0.2715 0.0
H1 H 0.72362 0.45972 0.11494 0.0
H2 H 0.74414 0.53495 0.27303 0.0
C3 C 0.78117 0.46734 0.25296 0.0
C4 C 0.77443 0.49591 0.28538 0.0
C5 C 0.76326 0.45467 0.19108 0.0
C6 C 0.73744 0.46998 0.16263 0.0
C7 C 0.73069 0.49932 0.18916 0.0
C8 C 0.74905 0.51225 0.25202 0.0
H9 H 0.95658 0.81806 0.2566 0.0
H10 H 0.94964 0.74419 0.09284 0.0
H11 H 0.02716 0.75084 0.25913 0.0
C12 C 0.9655 0.79697 0.23433 0.0
C13 C 0.99362 0.78694 0.26572 0.0
C14 C 0.95028 0.78259 0.17024 0.0
C15 C 0.96185 0.75532 0.14184 0.0
C16 C 0.98947 0.74315 0.17271 0.0
C17 C 1.00543 0.75915 0.23594 0.0
H18 H 0.73264 0.07647 0.22253 0.0
H19 H 0.81226 0.07773 0.08636 0.0
H20 H 0.80094 0.0071 0.26208 0.0
C21 C 0.75435 0.06652 0.20938 0.0
C22 C 0.76411 0.04051 0.2517 0.0
C23 C 0.77178 0.0799 0.15051 0.0
C24 C 0.79962 0.06707 0.13263 0.0
C25 C 0.81109 0.04072 0.1699 0.0
C26 C 0.79293 0.02731 0.23121 0.0
H27 H 0.46915 0.73099 0.22864 0.0
H28 H 0.54706 0.79205 0.25744 0.0
H29 H 0.46919 0.81824 0.11167 0.0
C30 C 0.47936 0.75347 0.2197 0.0
C31 C 0.46537 0.77381 0.16575 0.0
C32 C 0.50777 0.76028 0.25808 0.0
C33 C 0.52402 0.7873 0.23425 0.0
C34 C 0.51004 0.80832 0.18011 0.0
C35 C 0.48004 0.80202 0.15153 0.0
H36 H 0.22207 0.45446 0.143 0.0
H37 H 0.29919 0.47049 0.30029 0.0
H38 H 0.30979 0.4812 0.05309 0.0
C39 C 0.24625 0.45969 0.15231 0.0
C40 C 0.26363 0.46857 0.08806 0.0
C41 C 0.25818 0.46225 0.22944 0.0
C42 C 0.28967 0.4674 0.24127 0.0
C43 C 0.3092 0.47184 0.17881 0.0
C44 C 0.29572 0.4746 0.10153 0.0
H45 H 0.9743 0.23395 0.08448 0.0
H46 H 0.96154 0.30451 0.24912 0.0
H47 H 0.04857 0.29778 0.13584 0.0
C48 C 0.98286 0.25492 0.1123 0.0
C49 C 0.01309 0.26435 0.10098 0.0
C50 C 0.96428 0.26975 0.16391 0.0
C51 C 0.97611 0.29503 0.2062 0.0
C52 C 1.00627 0.30674 0.19681 0.0
C53 C 0.02511 0.29041 0.14406 0.0
H54 H 0.32872 0.96458 0.14995 0.0
H55 H 0.2573 0.96531 0.31209 0.0
H56 H 0.26333 0.03775 0.13818 0.0
C57 C 0.30847 0.97548 0.17067 0.0
C58 C 0.29892 1.00305 0.1361 0.0
C59 C 0.29299 0.96186 0.23228 0.0
C60 C 0.26744 0.97585 0.2615 0.0
C61 C 0.25524 1.00282 0.22884 0.0
C62 C 0.27157 0.01677 0.16483 0.0
H63 H 0.58786 0.3114 0.1043 0.0
H64 H 0.51005 0.24925 0.11268 0.0
H65 H 0.59185 0.2328 0.25569 0.0
C66 C 0.57739 0.29054 0.12672 0.0
C67 C 0.59325 0.27318 0.18388 0.0
C68 C 0.54789 0.28194 0.09846 0.0
C69 C 0.53324 0.25564 0.13187 0.0
C70 C 0.54862 0.23851 0.19265 0.0
C71 C 0.57911 0.24677 0.21365 0.0
Eu72 Eu 0.01073 0.03754 0.64062 0.0
Eu73 Eu 0.0573 1.00618 0.76514 0.0
C74 C 0.04134 0.08044 0.77945 0.0
C75 C 0.94724 0.06696 0.48059 0.0
C76 C 0.91729 0.07237 0.50294 0.0
C77 C 0.93559 0.08933 0.35312 0.0
C78 C 0.89714 0.08796 0.45211 0.0
C79 C 0.95593 0.07438 0.40453 0.0
C80 C 0.90665 0.09763 0.37812 0.0
C81 C 0.97015 0.05633 0.5385 0.0
O82 O 0.01076 0.99872 0.82122 0.0
O83 O 0.9828 0.03405 0.75237 0.0
C84 C 0.98598 0.01528 0.81278 0.0
O85 O 0.01553 0.98857 0.59389 0.0
O86 O 0.08893 0.01324 0.86676 0.0
O87 O 0.081 0.96776 0.82066 0.0
O88 O 0.04101 0.96458 0.69564 0.0
C89 C 0.02699 0.9636 0.62619 0.0
O90 O 0.05706 0.04403 0.58238 0.0
O91 O 0.08761 0.01266 0.65911 0.0
O92 O 0.0575 0.05648 0.80113 0.0
O93 O 0.96489 0.03316 0.5852 0.0
O94 O 0.99712 0.0697 0.5478 0.0
O95 O 0.02175 0.07893 0.71881 0.0
C96 C 0.07471 0.97384 0.95399 0.0
C97 C 0.07718 0.94304 0.97635 0.0
C98 C 0.02518 0.97565 0.01417 0.0
C99 C 0.05262 0.92805 0.01106 0.0
C100 C 0.04983 0.9907 0.9799 0.0
C101 C 0.02546 0.94379 0.02367 0.0
C102 C 0.08946 0.98396 0.88201 0.0
C103 C 0.08309 0.02954 0.59532 0.0
H104 H 0.9103 0.06668 0.56164 0.0
H105 H 0.94363 0.09714 0.29692 0.0
H106 H 0.87514 0.0947 0.47284 0.0
H107 H 0.97896 0.07012 0.38643 0.0
H108 H 0.09608 0.92961 0.95721 0.0
H109 H 1.00465 0.98832 0.02445 0.0
H110 H 0.05357 0.90347 0.02018 0.0
H111 H 0.04731 0.01461 0.96391 0.0
Eu112 Eu 0.54158 0.0471 0.7504 0.0
Eu113 Eu 0.5175 0.99644 0.62592 0.0
C114 C 0.53981 0.97539 0.80097 0.0
C115 C 0.57771 0.11595 0.86855 0.0
C116 C 0.58738 0.12129 0.94622 0.0
C117 C 0.60914 0.15902 0.82673 0.0
C118 C 0.60905 0.14418 0.96397 0.0
C119 C 0.58761 0.13558 0.80886 0.0
C120 C 0.62157 0.16241 0.90399 0.0
C121 C 0.55862 0.0887 0.85269 0.0
O122 O 0.47579 1.00042 0.70484 0.0
O123 O 0.49207 0.03974 0.78615 0.0
C124 C 0.471 0.01922 0.76381 0.0
O125 O 0.53393 0.07524 0.63825 0.0
O126 O 0.52746 0.95386 0.56662 0.0
O127 O 0.48469 0.97693 0.53993 0.0
O128 O 0.50814 0.04035 0.55864 0.0
C129 C 0.51928 0.0682 0.57152 0.0
O130 O 0.58547 0.03377 0.68729 0.0
O131 O 0.56287 0.01321 0.57581 0.0
O132 O 0.53932 0.96888 0.72588 0.0
O133 O 0.53515 0.09154 0.80365 0.0
O134 O 0.57274 0.0628 0.84534 0.0
O135 O 0.53699 1.00375 0.82438 0.0
C136 C 0.48474 0.92353 0.52494 0.0
C137 C 0.48144 0.90861 0.45284 0.0
C138 C 0.44773 0.88811 0.57967 0.0
C139 C 0.45984 0.88494 0.44243 0.0
C140 C 0.46921 0.91218 0.58975 0.0
C141 C 0.44095 0.87604 0.50418 0.0
C142 C 0.50121 0.95296 0.52767 0.0
C143 C 0.58751 0.02421 0.61386 0.0
H144 H 0.57955 0.10646 0.99295 0.0
H145 H 0.61756 0.17301 0.77921 0.0
H146 H 0.6178 0.14527 0.02414 0.0
H147 H 0.57981 0.13194 0.74842 0.0
H148 H 0.49364 0.91701 0.40259 0.0
H149 H 0.43419 0.88128 0.62897 0.0
H150 H 0.45564 0.87649 0.3833 0.0
H151 H 0.47199 0.92333 0.64635 0.0
Eu152 Eu 0.49962 0.52452 0.7071 0.0
Eu153 Eu 0.55661 0.50561 0.6095 0.0
C154 C 0.56751 0.5284 0.78809 0.0
C155 C 0.43469 0.56524 0.80928 0.0
C156 C 0.41279 0.58072 0.76225 0.0
C157 C 0.42723 0.60101 0.91468 0.0
C158 C 0.39862 0.60652 0.79082 0.0
C159 C 0.4413 0.57526 0.88627 0.0
C160 C 0.40598 0.6171 0.86699 0.0
C161 C 0.45001 0.53831 0.77894 0.0
O162 O 0.53997 0.45989 0.66179 0.0
O163 O 0.5123 0.47876 0.76128 0.0
C164 C 0.52619 0.45594 0.72885 0.0
O165 O 0.48195 0.49501 0.60459 0.0
O166 O 0.60533 0.50894 0.58573 0.0
O167 O 0.57402 0.48206 0.50953 0.0
O168 O 0.51691 0.51418 0.52335 0.0
C169 C 0.48959 0.50232 0.53322 0.0
O170 O 0.50836 0.56716 0.6307 0.0
O171 O 0.55737 0.55727 0.59732 0.0
O172 O 0.57564 0.50927 0.73392 0.0
O173 O 0.45136 0.53611 0.70297 0.0
O174 O 0.47543 0.5302 0.81513 0.0
O175 O 0.54087 0.54212 0.78177 0.0
C176 C 0.62456 0.46514 0.52627 0.0
C177 C 0.61539 0.43496 0.54302 0.0
C178 C 0.67353 0.4472 0.48544 0.0
C179 C 0.63434 0.41088 0.52596 0.0
C180 C 0.65419 0.47131 0.50106 0.0
C181 C 0.66313 0.4166 0.4932 0.0
C182 C 0.60253 0.48985 0.52715 0.0
C183 C 0.53401 0.57576 0.59757 0.0
H184 H 0.40687 0.57316 0.70303 0.0
H185 H 0.43398 0.60899 0.97305 0.0
H186 H 0.3823 0.61847 0.75297 0.0
H187 H 0.45779 0.56358 0.92426 0.0
H188 H 0.59272 0.42979 0.56396 0.0
H189 H 0.69576 0.45254 0.46227 0.0
H190 H 0.62497 0.38787 0.53221 0.0
H191 H 0.66173 0.49466 0.48926 0.0
Eu192 Eu 0.02999 0.54997 0.64898 0.0
Eu193 Eu 1.0079 0.49422 0.75596 0.0
C194 C 0.07976 0.51341 0.76016 0.0
C195 C 0.08308 0.60801 0.5691 0.0
C196 C 0.10428 0.59874 0.62794 0.0
C197 C 0.12419 0.61543 0.48037 0.0
C198 C 0.13448 0.59387 0.60951 0.0
C199 C 0.09355 0.61902 0.49767 0.0
C200 C 0.14354 0.59869 0.53227 0.0
C201 C 0.05123 0.59769 0.57431 0.0
O202 O 0.01826 0.53512 0.83702 0.0
O203 O 1.00525 0.57156 0.74864 0.0
C204 C 0.01074 0.56357 0.82182 0.0
O205 O 0.98184 0.5425 0.60126 0.0
O206 O 0.98215 0.47902 0.8558 0.0
O207 O 0.01067 0.44687 0.79628 0.0
O208 O 0.9631 0.50837 0.69199 0.0
C209 C 0.95915 0.52629 0.62972 0.0
O210 O 0.04195 0.50618 0.58203 0.0
O211 O 1.00664 0.47334 0.63448 0.0
O212 O 0.05976 0.49057 0.76393 0.0
O213 O 0.04488 0.57139 0.54054 0.0
O214 O 0.04028 0.59902 0.64403 0.0
O215 O 0.07175 0.53967 0.72806 0.0
C216 C 0.96759 0.4272 0.85985 0.0
C217 C 0.94472 0.42218 0.80111 0.0
C218 C 0.94028 0.39418 0.9483 0.0
C219 C 0.91909 0.4038 0.81699 0.0
C220 C 0.96595 0.4121 0.93193 0.0
C221 C 0.91582 0.39098 0.89236 0.0
C222 C 0.99129 0.45079 0.85145 0.0
C223 C 0.02589 0.48006 0.5794 0.0
H224 H 0.09672 0.59129 0.68474 0.0
H225 H 0.13122 0.62119 0.42177 0.0
H226 H 0.14892 0.58202 0.65222 0.0
H227 H 0.07754 0.62692 0.45217 0.0
H228 H 0.94587 0.43379 0.7449 0.0
H229 H 0.9386 0.38527 1.00739 0.0
H230 H 0.90091 0.40145 0.77222 0.0
H231 H 0.98356 0.41591 0.97768 0.0
H232 H 0.20791 0.96916 0.29829 0.0
H233 H 0.23567 0.06342 0.25093 0.0
H234 H 0.19371 0.08083 0.33383 0.0
H235 H 0.1274 0.97746 0.31711 0.0
H236 H 0.12531 0.95119 0.39879 0.0
H237 H 0.15429 0.9468 0.3276 0.0
H238 H 0.19653 0.9493 0.43826 0.0
H239 H 0.16768 0.95355 0.50982 0.0
H240 H 0.19845 0.98159 0.50403 0.0
H241 H 0.14673 0.08711 0.42817 0.0
H242 H 0.10575 0.08188 0.52472 0.0
H243 H 0.11673 0.9835 0.52825 0.0
C244 C 0.20602 0.99365 0.30554 0.0
C245 C 0.22643 0.01473 0.26758 0.0
C246 C 0.22089 0.04644 0.27765 0.0
C247 C 0.19709 0.05655 0.32583 0.0
C248 C 0.17895 0.03489 0.36565 0.0
C249 C 0.18363 1.004 0.35624 0.0
C250 C 0.16317 0.98489 0.40933 0.0
C251 C 0.14124 0.96384 0.36028 0.0
C252 C 0.18262 0.96624 0.46887 0.0
C253 C 0.14572 0.00968 0.45029 0.0
C254 C 0.15459 0.03843 0.42325 0.0
C255 C 0.14025 0.06464 0.44994 0.0
C256 C 0.11682 0.06146 0.50509 0.0
C257 C 0.1081 0.03239 0.53593 0.0
C258 C 0.12307 1.0062 0.50761 0.0
H259 H 0.55399 0.22806 0.35175 0.0
H260 H 0.51215 0.18918 0.1387 0.0
H261 H 0.49731 0.14252 0.21393 0.0
H262 H 0.58783 0.15986 0.42068 0.0
H263 H 0.58245 0.16766 0.52292 0.0
H264 H 0.58628 0.1989 0.45437 0.0
H265 H 0.53455 0.22021 0.49605 0.0
H266 H 0.53054 0.18904 0.56492 0.0
H267 H 0.50068 0.19579 0.49124 0.0
H268 H 0.49098 0.09787 0.31327 0.0
H269 H 0.49253 0.06097 0.42353 0.0
H270 H 0.54107 0.12871 0.56996 0.0
C271 C 0.5414 0.20991 0.32057 0.0
C272 C 0.53437 0.21249 0.2385 0.0
C273 C 0.51757 0.18814 0.20117 0.0
C274 C 0.5093 0.16139 0.24358 0.0
C275 C 0.51791 0.15922 0.32357 0.0
C276 C 0.53348 0.18305 0.36155 0.0
C277 C 0.54165 0.17478 0.44656 0.0
C278 C 0.57662 0.17533 0.46199 0.0
C279 C 0.52591 0.19623 0.50303 0.0
C280 C 0.52845 0.14233 0.45103 0.0
C281 C 0.51468 0.1338 0.37966 0.0
C282 C 0.50153 0.10457 0.36928 0.0
C283 C 0.50252 0.08367 0.43273 0.0
C284 C 0.51673 0.09169 0.50649 0.0
C285 C 0.52974 0.12167 0.51513 0.0
H286 H 0.34257 0.43817 0.28528 0.0
H287 H 0.35077 0.5169 0.1308 0.0
H288 H 0.40049 0.53102 0.19867 0.0
H289 H 0.36429 0.47893 0.45379 0.0
H290 H 0.38329 0.44753 0.50289 0.0
H291 H 0.35251 0.43992 0.43194 0.0
H292 H 0.38779 0.40582 0.3525 0.0
H293 H 0.41866 0.41297 0.42377 0.0
H294 H 0.42402 0.4212 0.32141 0.0
H295 H 0.4479 0.53845 0.29346 0.0
H296 H 0.48606 0.53987 0.40468 0.0
H297 H 0.44154 0.46054 0.50823 0.0
C298 C 0.35519 0.45796 0.26389 0.0
C299 C 0.34268 0.47624 0.20167 0.0
C300 C 0.35996 0.5021 0.17671 0.0
C301 C 0.38809 0.51047 0.21584 0.0
C302 C 0.3985 0.49298 0.28043 0.0
C303 C 0.38236 0.46725 0.30418 0.0
C304 C 0.39588 0.45434 0.38065 0.0
C305 C 0.37261 0.45525 0.44614 0.0
C306 C 0.40727 0.42164 0.36884 0.0
C307 C 0.42238 0.47673 0.39686 0.0
C308 C 0.42391 0.49854 0.33769 0.0
C309 C 0.44676 0.52142 0.33971 0.0
C310 C 0.46841 0.52201 0.40324 0.0
C311 C 0.46685 0.50035 0.46543 0.0
C312 C 0.44333 0.4775 0.46194 0.0
H313 H 0.97083 0.3513 0.26869 0.0
H314 H 0.06612 0.32854 0.23781 0.0
H315 H 0.08179 0.3721 0.32397 0.0
H316 H 0.97715 0.4314 0.28813 0.0
H317 H 0.95028 0.43304 0.36559 0.0
H318 H 0.94705 0.40264 0.29442 0.0
H319 H 0.94976 0.3622 0.40598 0.0
H320 H 0.9527 0.39249 0.4775 0.0
H321 H 0.9815 0.36351 0.4768 0.0
H322 H 0.0864 0.42065 0.41722 0.0
H323 H 0.07951 0.46214 0.51406 0.0
H324 H 0.98144 0.44491 0.50043 0.0
C325 C 0.99516 0.35409 0.28064 0.0
C326 C 0.01694 0.33486 0.24557 0.0
C327 C 0.04846 0.34225 0.26194 0.0
C328 C 0.05769 0.36709 0.31184 0.0
C329 C 0.03533 0.38438 0.34723 0.0
C330 C 1.00467 0.37759 0.33294 0.0
C331 C 0.9847 0.39756 0.38209 0.0
C332 C 0.96355 0.41733 0.3294 0.0
C333 C 0.96607 0.37777 0.43897 0.0
C334 C 0.0088 0.41719 0.42611 0.0
C335 C 0.03793 0.40982 0.4042 0.0
C336 C 0.06364 0.42611 0.43498 0.0
C337 C 0.05952 0.44986 0.48983 0.0
C338 C 0.02998 0.45687 0.51554 0.0
C339 C 1.00439 0.44011 0.48271 0.0
H340 H 0.86108 0.07413 0.11289 0.0
H341 H 0.82991 0.98003 0.14655 0.0
H342 H 0.87268 0.96277 0.06605 0.0
H343 H 0.8721 0.06504 0.90852 0.0
H344 H 0.90373 0.09227 0.907 0.0
H345 H 0.87463 0.09609 0.97807 0.0
H346 H 0.91612 0.09541 0.09027 0.0
H347 H 0.94544 0.09151 0.01975 0.0
H348 H 0.94207 0.06387 0.09811 0.0
H349 H 0.92046 0.9568 0.97351 0.0
H350 H 0.96183 0.96253 0.87838 0.0
H351 H 0.95354 0.0612 0.8854 0.0
C352 C 0.86268 0.04972 0.10383 0.0
C353 C 0.84099 0.02864 0.13701 0.0
C354 C 0.84578 0.99698 0.12388 0.0
C355 C 0.87001 0.98698 0.07686 0.0
C356 C 0.88933 0.00877 0.04112 0.0
C357 C 0.88544 0.0396 0.05386 0.0
C358 C 0.90675 0.05905 1.00373 0.0
C359 C 0.88819 0.0793 0.94592 0.0
C360 C 0.92891 0.07861 0.05609 0.0
C361 C 0.92375 0.03451 0.96041 0.0
C362 C 0.91397 1.00557 0.98401 0.0
C363 C 0.92766 0.97945 0.95452 0.0
C364 C 0.9513 0.98293 0.90001 0.0
C365 C 0.96089 0.01226 0.87232 0.0
C366 C 0.94659 0.03834 0.90356 0.0
H367 H 0.49239 0.86852 0.16404 0.0
H368 H 0.56272 0.80603 0.09892 0.0
H369 H 0.58008 0.84337 0.99921 0.0
H370 H 0.47155 0.89285 0.97599 0.0
H371 H 0.46513 0.9323 1.00039 0.0
H372 H 0.46088 0.90282 0.0736 0.0
H373 H 0.50028 0.93123 0.16621 0.0
H374 H 0.50428 0.96106 0.09351 0.0
H375 H 0.53764 0.9414 0.13147 0.0
H376 H 0.58362 0.88377 0.89058 0.0
H377 H 0.5785 0.92706 0.79667 0.0
H378 H 0.50809 0.96539 0.93649 0.0
C379 C 0.51235 0.86329 0.13121 0.0
C380 C 0.52664 0.83442 0.1409 0.0
C381 C 0.552 0.82817 0.09466 0.0
C382 C 0.5617 0.84915 0.03688 0.0
C383 C 0.54614 0.87666 0.02635 0.0
C384 C 0.52245 0.88411 0.07366 0.0
C385 C 0.50861 0.91454 0.04818 0.0
C386 C 0.47454 0.91035 0.02306 0.0
C387 C 0.51297 0.93848 0.11375 0.0
C388 C 0.52782 0.92285 0.97825 0.0
C389 C 0.54912 0.90051 0.96611 0.0
C390 C 0.56757 0.90173 0.90097 0.0
C391 C 0.56444 0.92638 0.84764 0.0
C392 C 0.54344 0.95003 0.85994 0.0
C393 C 0.52501 0.94818 0.92662 0.0
H394 H 0.72524 0.50701 0.03075 0.0
H395 H 0.67863 0.52594 0.2442 0.0
H396 H 0.63235 0.54072 0.16413 0.0
H397 H 0.68907 0.56593 0.90238 0.0
H398 H 0.68718 0.54047 0.81925 0.0
H399 H 0.71763 0.53707 0.89307 0.0
H400 H 0.70268 0.47983 0.91272 0.0
H401 H 0.67205 0.48306 0.83972 0.0
H402 H 0.66397 0.46955 0.93701 0.0
H403 H 0.58878 0.5483 0.05655 0.0
H404 H 0.55387 0.54684 0.93789 0.0
H405 H 0.6293 0.51896 0.79862 0.0
C406 C 0.70562 0.51522 0.0608 0.0
C407 C 0.70576 0.51572 0.14404 0.0
C408 C 0.67938 0.52603 0.18077 0.0
C409 C 0.65289 0.53417 0.1355 0.0
C410 C 0.65311 0.53191 0.05347 0.0
C411 C 0.67906 0.5228 0.01679 0.0
C412 C 0.67305 0.51916 0.92903 0.0
C413 C 0.69291 0.54202 0.88324 0.0
C414 C 0.67824 0.48593 0.90316 0.0
C415 C 0.63947 0.52711 0.92149 0.0
C416 C 0.62831 0.53491 0.9934 0.0
C417 C 0.59753 0.54244 1.00014 0.0
C418 C 0.57781 0.54166 0.93227 0.0
C419 C 0.58871 0.53286 0.85857 0.0
C420 C 0.6201 0.52583 0.85378 0.0
H421 H 0.99073 0.7303 0.01421 0.0
H422 H 0.01264 0.69038 0.2424 0.0
H423 H 0.02167 0.64052 0.17811 0.0
H424 H 0.94835 0.66675 0.93642 0.0
H425 H 0.96151 0.67141 0.83807 0.0
H426 H 0.95979 0.7042 0.90141 0.0
H427 H 0.01721 0.71641 0.88142 0.0
H428 H 0.01911 0.68374 0.8176 0.0
H429 H 0.0451 0.6873 0.90202 0.0
H430 H 0.024 0.59316 0.08682 0.0
H431 H 0.02292 0.5549 0.98009 0.0
H432 H 0.99825 0.62591 0.81165 0.0
C433 C 0.99774 0.7112 0.05103 0.0
C434 C 1.0008 0.71453 0.13414 0.0
C435 C 0.01039 0.6888 0.17905 0.0
C436 C 0.01528 0.66022 0.14281 0.0
C437 C 0.01069 0.65755 0.0612 0.0
C438 C 1.00246 0.6826 0.01593 0.0
C439 C 0.99807 0.67382 0.92974 0.0
C440 C 0.96497 0.67938 0.89968 0.0
C441 C 0.02126 0.69135 0.87974 0.0
C442 C 1.00472 0.63973 0.93309 0.0
C443 C 0.01202 0.63075 1.00942 0.0
C444 C 0.01847 0.60018 0.02704 0.0
C445 C 0.01769 0.57847 0.96569 0.0
C446 C 0.01041 0.58702 0.88674 0.0
C447 C 1.00385 0.61829 0.87094 0.0
H448 H 0.9414 0.26054 0.3082 0.0
H449 H 0.92129 0.24342 0.0614 0.0
H450 H 0.88718 0.20026 0.09573 0.0
H451 H 0.95327 0.19485 0.36526 0.0
H452 H 0.93504 0.19412 0.45838 0.0
H453 H 0.94703 0.2299 0.41761 0.0
H454 H 0.89205 0.25044 0.42294 0.0
H455 H 0.87965 0.21455 0.4657 0.0
H456 H 0.86029 0.22896 0.37817 0.0
H457 H 0.87726 0.14927 0.15139 0.0
H458 H 0.88376 0.10106 0.22635 0.0
H459 H 0.9012 0.15287 0.43907 0.0
C460 C 0.92806 0.24922 0.26156 0.0
C461 C 0.93454 0.25477 0.18242 0.0
C462 C 0.91709 0.23907 0.12272 0.0
C463 C 0.89748 0.21458 0.1417 0.0
C464 C 0.89435 0.20722 0.22066 0.0
C465 C 0.90798 0.2251 0.27993 0.0
C466 C 0.90539 0.20978 0.35916 0.0
C467 C 0.93704 0.20697 0.40237 0.0
C468 C 0.88299 0.22695 0.40946 0.0
C469 C 0.89207 0.1789 0.33405 0.0
C470 C 0.88521 0.17793 0.254 0.0
C471 C 0.88052 0.15003 0.21463 0.0
C472 C 0.88418 0.12269 0.25731 0.0
C473 C 0.89172 0.1236 0.3385 0.0
C474 C 0.89377 0.15189 0.37773 0.0
H475 H 0.30074 0.95158 0.38837 0.0
H476 H 0.31326 0.90981 0.16236 0.0
H477 H 0.34018 0.867 0.228 0.0
H478 H 0.36832 0.94478 0.45939 0.0
H479 H 0.35979 0.93629 0.56004 0.0
H480 H 0.33261 0.95608 0.4992 0.0
H481 H 0.29151 0.91425 0.52895 0.0
H482 H 0.31924 0.89385 0.58925 0.0
H483 H 0.29877 0.87455 0.50924 0.0
H484 H 0.37649 0.83792 0.31044 0.0
H485 H 0.4238 0.8327 0.39153 0.0
H486 H 0.38739 0.89226 0.56605 0.0
C487 C 0.30774 0.93256 0.35317 0.0
C488 C 0.30482 0.93378 0.27068 0.0
C489 C 0.31539 0.90926 0.22588 0.0
C490 C 0.33021 0.8846 0.26284 0.0
C491 C 0.33385 0.88462 0.34463 0.0
C492 C 0.32261 0.908 0.38929 0.0
C493 C 0.33498 0.90672 0.47319 0.0
C494 C 0.34984 0.93774 0.49924 0.0
C495 C 0.30961 0.89673 0.52841 0.0
C496 C 0.3582 0.88172 0.4662 0.0
C497 C 0.35579 0.86784 0.39316 0.0
C498 C 0.37817 0.84814 0.36822 0.0
C499 C 0.40511 0.8453 0.41482 0.0
C500 C 0.40983 0.86321 0.48351 0.0
C501 C 0.38465 0.8784 0.51375 0.0
H502 H 0.61269 0.26947 0.33769 0.0
H503 H 0.64011 0.30457 0.11206 0.0
H504 H 0.67965 0.33696 0.17872 0.0
H505 H 0.61009 0.32887 0.43052 0.0
H506 H 0.62673 0.31829 0.52505 0.0
H507 H 0.61041 0.28929 0.46203 0.0
H508 H 0.66147 0.26037 0.46648 0.0
H509 H 0.67812 0.28935 0.53131 0.0
H510 H 0.69651 0.28013 0.44182 0.0
H511 H 0.69795 0.37788 0.26377 0.0
H512 H 0.69396 0.41994 0.35573 0.0
H513 H 0.66496 0.3559 0.53489 0.0
C514 C 0.62831 0.28236 0.30177 0.0
C515 C 0.62284 0.28485 0.21972 0.0
C516 C 0.64327 0.3028 0.17522 0.0
C517 C 0.66624 0.32092 0.21262 0.0
C518 C 0.66931 0.31998 0.29438 0.0
C519 C 0.65165 0.30015 0.33846 0.0
C520 C 0.65515 0.30746 0.42521 0.0
C521 C 0.62376 0.31126 0.46265 0.0
C522 C 0.67395 0.28286 0.46875 0.0
C523 C 0.67326 0.3374 0.4215 0.0
C524 C 0.6824 0.34355 0.34592 0.0
C525 C 0.6923 0.37284 0.3238 0.0
C526 C 0.69009 0.39684 0.37723 0.0
C527 C 0.67839 0.39134 0.45253 0.0
C528 C 0.67335 0.36079 0.47717 0.0
H529 H 0.20022 0.48559 0.21957 0.0
H530 H 0.26875 0.45304 0.39076 0.0
H531 H 0.24626 0.48497 0.49127 0.0
H532 H 0.19931 0.55604 0.2629 0.0
H533 H 0.15869 0.5625 0.25504 0.0
H534 H 0.17466 0.53216 0.20023 0.0
H535 H 0.13906 0.49145 0.26278 0.0
H536 H 0.12118 0.52182 0.31436 0.0
H537 H 0.13661 0.48958 0.36802 0.0
H538 H 0.22529 0.53139 0.55949 0.0
H539 H 0.19698 0.5763 0.60349 0.0
H540 H 0.1396 0.57118 0.38923 0.0
C541 C 0.20985 0.48321 0.2785 0.0
C542 C 0.23755 0.46792 0.29525 0.0
C543 C 0.2486 0.466 0.37468 0.0
C544 C 0.23584 0.48385 0.43266 0.0
C545 C 0.21085 0.50167 0.41107 0.0
C546 C 0.19688 0.49993 0.33705 0.0
C547 C 0.17133 0.52236 0.32644 0.0
C548 C 0.17636 0.54454 0.25709 0.0
C549 C 0.1402 0.50529 0.31745 0.0
C550 C 0.17481 0.53875 0.40373 0.0
C551 C 0.19755 0.52664 0.45219 0.0
C552 C 0.20659 0.54032 0.52335 0.0
C553 C 0.19064 0.56605 0.5473 0.0
C554 C 0.16592 0.57754 0.50015 0.0
C555 C 0.15861 0.56381 0.4268 0.0
H556 H 0.94963 0.79028 0.01268 0.0
H557 H 0.90289 0.81858 0.21743 0.0
H558 H 0.90361 0.87163 0.17008 0.0
H559 H 1.00098 0.83143 0.01416 0.0
H560 H 1.00588 0.84448 0.91477 0.0
H561 H 0.98538 0.80951 0.9316 0.0
H562 H 0.93759 0.82882 0.85434 0.0
H563 H 0.9585 0.86387 0.83353 0.0
H564 H 0.92178 0.86533 0.87786 0.0
H565 H 0.93535 0.91748 0.14903 0.0
H566 H 0.98044 0.95167 0.13022 0.0
H567 H 1.00536 0.89685 0.93283 0.0
C568 C 0.93718 0.80724 0.04386 0.0
C569 C 0.92859 0.80124 0.12138 0.0
C570 C 0.91105 0.82325 0.15926 0.0
C571 C 0.91157 0.85368 0.13283 0.0
C572 C 0.9273 0.86067 0.0651 0.0
C573 C 0.93783 0.83769 0.01735 0.0
C574 C 0.95946 0.85084 0.9577 0.0
C575 C 0.98967 0.83303 0.95472 0.0
C576 C 0.94336 0.85232 0.87604 0.0
C577 C 0.9646 0.88269 0.99071 0.0
C578 C 0.94485 0.88862 0.0501 0.0
C579 C 0.94983 0.91381 0.10003 0.0
C580 C 0.9757 0.9329 0.08987 0.0
C581 C 0.99642 0.9263 0.03108 0.0
C582 C 0.98986 0.90193 0.97885 0.0
H583 H 0.73679 0.12788 0.19877 0.0
H584 H 0.7792 0.09152 0.99356 0.0
H585 H 0.75806 0.13263 0.91393 0.0
H586 H 0.66983 0.13143 0.11457 0.0
H587 H 0.65665 0.16588 0.15943 0.0
H588 H 0.68605 0.14424 0.20799 0.0
H589 H 0.72134 0.19278 0.21298 0.0
H590 H 0.69188 0.21453 0.16241 0.0
H591 H 0.72963 0.21305 0.12361 0.0
H592 H 0.72196 0.16376 0.84804 0.0
H593 H 0.66906 0.16895 0.8034 0.0
H594 H 0.64408 0.18981 0.04061 0.0
C595 C 0.74219 0.12904 0.13743 0.0
C596 C 0.7605 0.10666 0.10377 0.0
C597 C 0.76663 0.10893 0.02282 0.0
C598 C 0.75462 0.1325 0.97645 0.0
C599 C 0.73562 0.15346 1.01046 0.0
C600 C 0.72912 0.15178 0.08927 0.0
C601 C 0.70172 0.171 0.10657 0.0
C602 C 0.67713 0.15198 0.14946 0.0
C603 C 0.71175 0.19954 0.1542 0.0
C604 C 0.69127 0.17986 0.0236 0.0
C605 C 0.71255 0.17151 0.96986 0.0
C606 C 0.7054 0.17092 0.88944 0.0
C607 C 0.67488 0.17423 0.86418 0.0
C608 C 0.65194 0.17796 0.91958 0.0
C609 C 0.66111 0.18556 0.99776 0.0
H610 H 0.41996 0.73094 0.19903 0.0
H611 H 0.45059 0.79134 0.01269 0.0
H612 H 0.41764 0.76377 0.91884 0.0
H613 H 0.43762 0.67088 0.1075 0.0
H614 H 0.40755 0.64489 0.13735 0.0
H615 H 0.41829 0.67709 0.19749 0.0
H616 H 0.3622 0.69558 0.19029 0.0
H617 H 0.35126 0.66297 0.12985 0.0
H618 H 0.34289 0.70122 0.09605 0.0
H619 H 0.39974 0.72193 0.83847 0.0
H620 H 0.402 0.67031 0.7833 0.0
H621 H 0.387 0.63094 0.01279 0.0
C622 C 0.41925 0.7389 0.13884 0.0
C623 C 0.43857 0.76331 0.11453 0.0
C624 C 0.43595 0.77332 0.03517 0.0
C625 C 0.4171 0.75752 0.9803 0.0
C626 C 0.40138 0.73127 1.00447 0.0
C627 C 0.4021 0.72203 0.08238 0.0
C628 C 0.39117 0.68897 0.09027 0.0
C629 C 0.41509 0.66935 0.13567 0.0
C630 C 0.36002 0.68709 0.12891 0.0
C631 C 0.38788 0.68017 1.00454 0.0
C632 C 0.39201 0.70535 0.95606 0.0
C633 C 0.39536 0.70221 0.87546 0.0
C634 C 0.39658 0.67269 0.8444 0.0
C635 C 0.39474 0.64675 0.89413 0.0
C636 C 0.38831 0.65057 0.97386 0.0
H637 H 0.76882 0.45418 0.03471 0.0
H638 H 0.78759 0.40033 0.24439 0.0
H639 H 0.81873 0.36546 0.16792 0.0
H640 H 0.77551 0.38939 0.88137 0.0
H641 H 0.79456 0.41616 0.81766 0.0
H642 H 0.76486 0.4291 0.87946 0.0
H643 H 0.80223 0.47059 0.93859 0.0
H644 H 0.83168 0.4579 0.87751 0.0
H645 H 0.83847 0.45911 0.98252 0.0
H646 H 0.8567 0.34503 0.08043 0.0
H647 H 0.90209 0.34555 0.9995 0.0
H648 H 0.86088 0.41542 0.85019 0.0
C649 C 0.77791 0.43393 0.06338 0.0
C650 C 0.77528 0.4294 0.14475 0.0
C651 C 0.78897 0.40376 0.18164 0.0
C652 C 0.80644 0.38375 0.13842 0.0
C653 C 0.80989 0.38975 0.05862 0.0
C654 C 0.79586 0.41432 0.02146 0.0
C655 C 0.80863 0.4206 0.9417 0.0
C656 C 0.78445 0.41336 0.87616 0.0
C657 C 0.82101 0.45396 0.93487 0.0
C658 C 0.834 0.39758 0.9427 0.0
C659 C 0.83336 0.37893 1.0086 0.0
C660 C 0.85703 0.35898 0.02779 0.0
C661 C 0.88287 0.3596 0.9817 0.0
C662 C 0.88528 0.38088 0.91907 0.0
C663 C 0.8596 0.3984 0.89637 0.0
H664 H 0.99568 0.24474 0.95274 0.0
H665 H 0.06707 0.23376 0.13354 0.0
H666 H 0.08425 0.18726 0.06568 0.0
H667 H 0.97474 0.16706 0.94382 0.0
H668 H 0.96542 0.16659 0.83989 0.0
H669 H 0.9624 0.20155 0.89448 0.0
H670 H 0.99885 0.22947 0.80021 0.0
H671 H 1.00183 0.19465 0.74473 0.0
H672 H 0.03598 0.21392 0.78404 0.0
H673 H 0.08925 0.13769 0.98509 0.0
H674 H 0.08386 0.0925 0.89904 0.0
H675 H 1.00693 0.13414 0.77353 0.0
C676 C 0.01584 0.23335 0.97637 0.0
C677 C 0.03048 0.2437 0.04806 0.0
C678 C 0.05604 0.22724 0.07791 0.0
C679 C 0.06559 0.20037 0.04015 0.0
C680 C 0.04936 0.18994 0.97239 0.0
C681 C 0.02511 0.20619 0.94056 0.0
C682 C 0.0096 0.18896 0.87156 0.0
C683 C 0.97606 0.18056 0.88848 0.0
C684 C 0.0117 0.20787 0.79561 0.0
C685 C 0.02893 0.16038 0.86871 0.0
C686 C 0.05175 0.1614 0.92744 0.0
C687 C 0.07166 0.13704 0.93857 0.0
C688 C 0.06833 0.11126 0.88896 0.0
C689 C 0.04516 0.10942 0.82802 0.0
C690 C 0.02526 0.13467 0.81819 0.0
H691 H 0.36106 0.01849 0.13998 0.0
H692 H 0.28258 0.00896 0.97828 0.0
H693 H 0.31735 0.01179 0.86641 0.0
H694 H 0.40647 0.07232 0.01833 0.0
H695 H 0.44238 0.05522 0.04754 0.0
H696 H 0.41112 0.05446 0.11355 0.0
H697 H 0.41455 0.99546 0.12365 0.0
H698 H 0.44553 0.99598 0.05688 0.0
H699 H 0.41162 0.97277 0.03544 0.0
H700 H 0.3629 0.00905 0.77054 0.0
H701 H 0.41208 0.0095 0.70231 0.0
H702 H 0.46131 0.02478 0.92466 0.0
C703 C 0.35099 0.01827 0.0809 0.0
C704 C 0.31847 0.01447 0.06892 0.0
C705 C 0.30688 0.01298 0.99008 0.0
C706 C 0.32673 0.01405 0.92586 0.0
C707 C 0.35857 0.01684 0.94009 0.0
C708 C 0.37054 0.01962 0.01603 0.0
C709 C 0.40561 0.02208 0.01596 0.0
C710 C 0.41707 0.05285 0.05091 0.0
C711 C 0.42017 0.99497 0.06065 0.0
C712 C 0.41168 0.02039 0.92825 0.0
C713 C 0.38426 0.01672 0.88549 0.0
C714 C 0.38427 0.01253 0.80393 0.0
C715 C 0.41251 0.01266 0.76532 0.0
C716 C 0.44097 0.01764 0.80694 0.0
C717 C 0.44017 0.0215 0.89008 0.0
H718 H 0.53261 0.34275 0.10411 0.0
H719 H 0.53688 0.26632 0.94429 0.0
H720 H 0.53037 0.302 0.83131 0.0
H721 H 0.47518 0.38757 0.98414 0.0
H722 H 0.4934 0.42365 0.01151 0.0
H723 H 0.49498 0.39156 0.07847 0.0
H724 H 0.55418 0.39667 0.08584 0.0
H725 H 0.55284 0.42835 0.01784 0.0
H726 H 0.57499 0.39521 0.99671 0.0
H727 H 0.53095 0.34801 0.73486 0.0
H728 H 0.53093 0.39816 0.66549 0.0
H729 H 0.52318 0.44446 0.88804 0.0
C730 C 0.53077 0.33337 0.04536 0.0
C731 C 0.53436 0.30142 0.03337 0.0
C732 C 0.53315 0.29036 0.9553 0.0
C733 C 0.5299 0.31064 0.89065 0.0
C734 C 0.52753 0.34211 0.90453 0.0
C735 C 0.52717 0.35329 0.98025 0.0
C736 C 0.52529 0.38814 0.97965 0.0
C737 C 0.49543 0.39833 0.01556 0.0
C738 C 0.5535 0.40295 0.02255 0.0
C739 C 0.52518 0.39498 0.89195 0.0
C740 C 0.5268 0.36817 0.84947 0.0
C741 C 0.52904 0.36899 0.76778 0.0
C742 C 0.52917 0.39767 0.72868 0.0
C743 C 0.52659 0.42543 0.77063 0.0
C744 C 0.52456 0.42376 0.85362 0.0
H745 H 0.21624 0.43502 0.01524 0.0
H746 H 0.26784 0.5206 0.9965 0.0
H747 H 0.22817 0.53984 0.90194 0.0
H748 H 0.18205 0.432 0.81172 0.0
H749 H 0.14592 0.41724 0.84514 0.0
H750 H 0.18105 0.40836 0.89869 0.0
H751 H 0.15888 0.42999 0.02515 0.0
H752 H 0.12392 0.43942 0.972 0.0
H753 H 0.14549 0.46878 0.02552 0.0
H754 H 0.17877 0.55247 0.82375 0.0
H755 H 0.12667 0.55638 0.76443 0.0
H756 H 0.10562 0.46329 0.83852 0.0
C757 C 0.21981 0.45747 0.98929 0.0
C758 C 0.24568 0.4761 0.0132 0.0
C759 C 0.24893 0.50547 0.97818 0.0
C760 C 0.22615 0.51677 0.92508 0.0
C761 C 0.20008 0.49849 0.90708 0.0
C762 C 0.19701 0.46927 0.93763 0.0
C763 C 0.16564 0.45524 0.91527 0.0
C764 C 0.16886 0.42651 0.86468 0.0
C765 C 0.14742 0.44794 0.98885 0.0
C766 C 0.15125 0.4812 0.86782 0.0
C767 C 0.17157 0.50588 0.86347 0.0
C768 C 0.16299 0.53303 0.82593 0.0
C769 C 0.13316 0.53502 0.79198 0.0
C770 C 0.11179 0.51008 0.79496 0.0
C771 C 0.12127 0.48275 0.83372 0.0
H772 H 1.00262 0.84945 0.25569 0.0
H773 H 0.01779 0.77301 0.41482 0.0
H774 H 0.02995 0.80989 0.52307 0.0
H775 H 0.05934 0.90458 0.3442 0.0
H776 H 0.03434 0.93653 0.32806 0.0
H777 H 0.032 0.90433 0.26208 0.0
H778 H 0.97424 0.89787 0.28673 0.0
H779 H 0.97636 0.92972 0.35364 0.0
H780 H 0.96185 0.89293 0.38574 0.0
H781 H 0.03601 0.85629 0.61727 0.0
H782 H 0.037 0.90596 0.68622 0.0
H783 H 0.01322 0.95215 0.46697 0.0
C784 C 0.0093 0.84031 0.31291 0.0
C785 C 0.0094 0.80796 0.32608 0.0
C786 C 0.01805 0.79738 0.40226 0.0
C787 C 0.0246 0.81832 0.46442 0.0
C788 C 0.02236 0.84993 0.45001 0.0
C789 C 0.01511 0.86082 0.37561 0.0
C790 C 0.01178 0.89558 0.37589 0.0
C791 C 0.0358 0.91116 0.32452 0.0
C792 C 0.97912 0.90453 0.34892 0.0
C793 C 0.01809 0.90281 0.46243 0.0
C794 C 0.02445 0.87619 0.50405 0.0
C795 C 0.0311 0.87711 0.58481 0.0
C796 C 0.03156 0.90563 0.6237 0.0
C797 C 0.02505 0.93337 0.58284 0.0
C798 C 0.01806 0.93161 0.50071 0.0
H799 H 0.701 0.02869 0.24434 0.0
H800 H 0.77856 0.03153 0.41049 0.0
H801 H 0.74276 0.02758 0.52014 0.0
H802 H 0.65169 0.07448 0.35287 0.0
H803 H 0.61705 0.05317 0.32608 0.0
H804 H 0.64868 0.05389 0.26134 0.0
H805 H 0.64943 0.99464 0.26285 0.0
H806 H 0.61758 0.99372 0.327 0.0
H807 H 0.65247 0.97454 0.35542 0.0
H808 H 0.69625 0.02883 0.61455 0.0
H809 H 0.64652 0.02856 0.67993 0.0
H810 H 0.59881 0.02272 0.45261 0.0
C811 C 0.71066 0.02759 0.30375 0.0
C812 C 0.74323 0.0299 0.31753 0.0
C813 C 0.75421 0.02901 0.39699 0.0
C814 C 0.73378 0.02721 0.46007 0.0
C815 C 0.70194 0.02603 0.44411 0.0
C816 C 0.69054 0.02562 0.36737 0.0
C817 C 0.65541 0.02461 0.3653 0.0
C818 C 0.64246 0.05324 0.32393 0.0
C819 C 0.64299 0.99512 0.32526 0.0
C820 C 0.64858 0.02458 0.45271 0.0
C821 C 0.67573 0.0258 0.49736 0.0
C822 C 0.67508 0.02743 0.57946 0.0
C823 C 0.64647 0.02739 0.61649 0.0
C824 C 0.61814 0.0253 0.57265 0.0
C825 C 0.61967 0.02393 0.48902 0.0
H826 H 0.47502 0.72611 0.36473 0.0
H827 H 0.56759 0.74063 0.28634 0.0
H828 H 0.58476 0.69736 0.37095 0.0
H829 H 0.49414 0.70195 0.56546 0.0
H830 H 0.46356 0.67352 0.56624 0.0
H831 H 0.45958 0.70743 0.50619 0.0
H832 H 0.44861 0.67356 0.38349 0.0
H833 H 0.45261 0.63956 0.443 0.0
H834 H 0.47576 0.64499 0.35858 0.0
H835 H 0.59076 0.64915 0.45782 0.0
H836 H 0.58576 0.60232 0.53813 0.0
H837 H 0.48842 0.61764 0.55547 0.0
C838 C 0.49904 0.72045 0.36523 0.0
C839 C 0.51987 0.73712 0.31768 0.0
C840 C 0.5511 0.72882 0.32216 0.0
C841 C 0.56101 0.70397 0.36981 0.0
C842 C 0.53952 0.68744 0.41319 0.0
C843 C 0.50916 0.69553 0.4114 0.0
C844 C 0.49017 0.67332 0.46004 0.0
C845 C 0.47603 0.69006 0.52856 0.0
C846 C 0.46533 0.65689 0.40819 0.0
C847 C 0.51449 0.65114 0.48956 0.0
C848 C 0.54284 0.6598 0.46211 0.0
C849 C 0.56867 0.64246 0.47982 0.0
C850 C 0.56554 0.61571 0.52587 0.0
C851 C 0.53673 0.60601 0.55451 0.0
C852 C 0.5109 0.62436 0.53602 0.0
H853 H 0.80435 0.46513 0.40726 0.0
H854 H 0.79677 0.55549 0.30141 0.0
H855 H 0.84042 0.57391 0.38682 0.0
H856 H 0.82921 0.48936 0.60682 0.0
H857 H 0.85566 0.4584 0.6193 0.0
H858 H 0.82151 0.45339 0.55739 0.0
H859 H 0.85467 0.43818 0.44164 0.0
H860 H 0.88888 0.44324 0.50298 0.0
H861 H 0.88492 0.46388 0.41145 0.0
H862 H 0.88895 0.58078 0.47246 0.0
H863 H 0.93635 0.57655 0.55492 0.0
H864 H 0.91342 0.48141 0.60504 0.0
C865 C 0.81146 0.48899 0.40264 0.0
C866 C 0.79673 0.50886 0.34709 0.0
C867 C 0.80701 0.53987 0.34391 0.0
C868 C 0.83208 0.55046 0.39187 0.0
C869 C 0.84675 0.52987 0.44331 0.0
C870 C 0.83662 0.49981 0.44942 0.0
C871 C 0.85751 0.48176 0.50558 0.0
C872 C 0.83992 0.47004 0.57649 0.0
C873 C 0.87236 0.45521 0.46285 0.0
C874 C 0.88122 0.50629 0.52989 0.0
C875 C 0.87453 0.53387 0.49316 0.0
C876 C 0.89403 0.55942 0.50231 0.0
C877 C 0.92101 0.55676 0.54939 0.0
C878 C 0.92852 0.5288 0.5878 0.0
C879 C 0.90802 0.50332 0.57839 0.0
loop_
_geom_bond_atom_site_label_1
_geom_bond_atom_site_label_2
_geom_bond_distance
_geom_bond_site_symmetry_2
_ccdc_geom_bond_type
H0 C3 0.931 . S
H1 C6 0.928 . S
H2 C8 0.930 . S
C3 H0 0.931 . S
C3 C4 1.413 . S
C3 C5 1.360 . S
C4 C3 1.413 . S
C4 C8 1.429 . S
C5 C3 1.360 . S
C5 C6 1.372 . S
C6 H1 0.928 . S
C6 C5 1.372 . S
C6 C7 1.404 . S
C7 C6 1.404 . S
C7 C8 1.391 . S
C8 H2 0.930 . S
C8 C4 1.429 . S
C8 C7 1.391 . S
H9 C12 0.931 . S
H10 C15 0.928 . S
H11 C17 0.930 . S
C12 H9 0.931 . S
C12 C13 1.413 . S
C12 C14 1.360 . S
C13 C12 1.413 . S
C13 C17 1.429 . S
C14 C12 1.360 . S
C14 C15 1.372 . S
C15 H10 0.928 . S
C15 C14 1.372 . S
C15 C16 1.404 . S
C16 C15 1.404 . S
C16 C17 1.391 . S
C17 H11 0.930 . S
C17 C13 1.429 . S
C17 C16 1.391 . S
H18 C21 0.931 . S
H19 C24 0.928 . S
H20 C26 0.930 . S
C21 H18 0.931 . S
C21 C22 1.413 . S
C21 C23 1.360 . S
C22 C21 1.413 . S
C22 C26 1.429 . S
C23 C21 1.360 . S
C23 C24 1.372 . S
C24 H19 0.928 . S
C24 C23 1.372 . S
C24 C25 1.404 . S
C25 C24 1.404 . S
C25 C26 1.391 . S
C26 H20 0.930 . S
C26 C22 1.429 . S
C26 C25 1.391 . S
H27 C30 0.931 . S
H28 C33 0.928 . S
H29 C35 0.930 . S
C30 H27 0.931 . S
C30 C31 1.413 . S
C30 C32 1.360 . S
C31 C30 1.413 . S
C31 C35 1.429 . S
C32 C30 1.360 . S
C32 C33 1.372 . S
C33 H28 0.928 . S
C33 C32 1.372 . S
C33 C34 1.404 . S
C34 C33 1.404 . S
C34 C35 1.391 . S
C35 H29 0.930 . S
C35 C31 1.429 . S
C35 C34 1.391 . S
H36 C39 0.931 . S
H37 C42 0.928 . S
H38 C44 0.930 1_556 S
C39 H36 0.931 . S
C39 C40 1.413 1_554 S
C39 C41 1.360 . S
C40 C39 1.413 1_556 S
C40 C44 1.429 1_556 S
C41 C39 1.360 . S
C41 C42 1.372 . S
C42 H37 0.928 . S
C42 C41 1.372 . S
C42 C43 1.404 . S
C43 C42 1.404 . S
C43 C44 1.391 . S
C44 H38 0.930 1_554 S
C44 C40 1.429 1_554 S
C44 C43 1.391 . S
H45 C48 0.931 . S
H46 C51 0.928 . S
H47 C53 0.930 . S
C48 H45 0.931 . S
C48 C49 1.413 1_554 S
C48 C50 1.360 . S
C49 C48 1.413 1_556 S
C49 C53 1.429 . S
C50 C48 1.360 . S
C50 C51 1.372 . S
C51 H46 0.928 . S
C51 C50 1.372 . S
C51 C52 1.404 . S
C52 C51 1.404 . S
C52 C53 1.391 1_554 S
C53 H47 0.930 . S
C53 C49 1.429 . S
C53 C52 1.391 1_556 S
H54 C57 0.931 . S
H55 C60 0.928 . S
H56 C62 0.930 . S
C57 H54 0.931 . S
C57 C58 1.413 . S
C57 C59 1.360 1_556 S
C58 C57 1.413 . S
C58 C62 1.429 . S
C59 C57 1.360 1_554 S
C59 C60 1.372 . S
C60 H55 0.928 . S
C60 C59 1.372 . S
C60 C61 1.404 . S
C61 C60 1.404 . S
C61 C62 1.391 1_554 S
C62 H56 0.930 . S
C62 C58 1.429 . S
C62 C61 1.391 1_556 S
H63 C66 0.931 . S
H64 C69 0.928 1_556 S
H65 C71 0.930 . S
C66 H63 0.931 . S
C66 C67 1.413 . S
C66 C68 1.360 1_554 S
C67 C66 1.413 . S
C67 C71 1.429 . S
C68 C66 1.360 1_556 S
C68 C69 1.372 1_556 S
C69 H64 0.928 1_554 S
C69 C68 1.372 1_554 S
C69 C70 1.404 . S
C70 C69 1.404 . S
C70 C71 1.391 . S
C71 H65 0.930 . S
C71 C67 1.429 . S
C71 C70 1.391 . S
Eu72 C81 2.828 . S
Eu72 O83 2.392 . S
Eu72 O85 2.418 1_545 S
Eu72 O90 2.373 1_655 S
Eu72 O93 2.488 . S
Eu72 O94 2.471 . S
Eu72 O95 2.349 1_655 S
Eu73 O82 2.373 1_455 S
Eu73 O86 2.488 . S
Eu73 O87 2.471 . S
Eu73 O88 2.349 . S
Eu73 O91 2.392 1_565 S
Eu73 O92 2.418 1_565 S
Eu73 C102 2.828 . S
C74 O92 1.244 . S
C74 O95 1.265 . S
C75 C76 1.379 1_655 S
C75 C79 1.373 . S
C75 C81 1.505 . S
C76 C75 1.379 1_455 S
C76 C78 1.369 . S
C76 H104 0.930 . S
C77 C79 1.383 . S
C77 C80 1.382 . S
C77 H105 0.930 . S
C78 C76 1.369 . S
C78 C80 1.392 1_455 S
C78 H106 0.930 . S
C79 C75 1.373 . S
C79 C77 1.383 . S
C79 H107 0.931 . S
C80 C77 1.382 . S
C80 C78 1.392 1_655 S
C81 Eu72 2.828 . S
C81 C75 1.505 . S
C81 O93 1.249 . S
C81 O94 1.244 . S
O82 Eu73 2.373 1_655 S
O82 C84 1.266 . S
O83 Eu72 2.392 . S
O83 C84 1.229 1_545 S
C84 O82 1.266 . S
C84 O83 1.229 1_565 S
O85 Eu72 2.418 1_565 S
O85 C89 1.244 . S
O86 Eu73 2.488 . S
O86 C102 1.249 . S
O87 Eu73 2.471 . S
O87 C102 1.244 . S
O88 Eu73 2.349 . S
O88 C89 1.265 1_455 S
C89 O85 1.244 . S
C89 O88 1.265 1_655 S
O90 Eu72 2.373 1_455 S
O90 C103 1.258 . S
O91 Eu73 2.392 1_545 S
O91 C103 1.242 . S
O92 Eu73 2.418 1_545 S
O92 C74 1.244 . S
O93 Eu72 2.488 . S
O93 C81 1.249 . S
O94 Eu72 2.471 . S
O94 C81 1.244 . S
O95 Eu72 2.349 1_455 S
O95 C74 1.265 . S
C96 C97 1.379 . S
C96 C100 1.373 1_556 S
C96 C102 1.505 . S
C97 C96 1.379 . S
C97 C99 1.369 . S
C97 H108 0.930 1_455 S
C98 C100 1.383 . S
C98 C101 1.382 . S
C98 H109 0.930 . S
C99 C97 1.369 . S
C99 C101 1.392 1_556 S
C99 H110 0.930 1_455 S
C100 C96 1.373 1_554 S
C100 C98 1.383 . S
C100 H111 0.931 . S
C101 C98 1.382 . S
C101 C99 1.392 1_554 S
C102 Eu73 2.828 . S
C102 O86 1.249 . S
C102 O87 1.244 . S
C102 C96 1.505 . S
C103 O90 1.258 . S
C103 O91 1.242 . S
H104 C76 0.930 . S
H105 C77 0.930 . S
H106 C78 0.930 . S
H107 C79 0.931 . S
H108 C97 0.930 1_655 S
H109 C98 0.930 . S
H110 C99 0.930 1_655 S
H111 C100 0.931 . S
Eu112 C121 2.828 . S
Eu112 O123 2.392 . S
Eu112 O125 2.418 . S
Eu112 O130 2.373 . S
Eu112 O133 2.488 . S
Eu112 O134 2.471 . S
Eu112 O135 2.349 1_545 S
Eu113 O122 2.373 1_565 S
Eu113 O126 2.488 . S
Eu113 O127 2.471 1_565 S
Eu113 O128 2.349 1_565 S
Eu113 O131 2.392 . S
Eu113 O132 2.418 . S
Eu113 C142 2.828 . S
C114 O132 1.244 . S
C114 O135 1.265 . S
C115 C116 1.379 . S
C115 C119 1.373 . S
C115 C121 1.505 . S
C116 C115 1.379 . S
C116 C118 1.369 . S
C116 H144 0.930 1_545 S
C117 C119 1.383 . S
C117 C120 1.382 . S
C117 H145 0.930 . S
C118 C116 1.369 . S
C118 C120 1.392 . S
C118 H146 0.930 1_545 S
C119 C115 1.373 . S
C119 C117 1.383 . S
C119 H147 0.931 . S
C120 C117 1.382 . S
C120 C118 1.392 . S
C121 Eu112 2.828 . S
C121 C115 1.505 . S
C121 O133 1.249 . S
C121 O134 1.244 . S
O122 Eu113 2.373 1_545 S
O122 C124 1.258 . S
O123 Eu112 2.392 . S
O123 C124 1.242 . S
C124 O122 1.258 . S
C124 O123 1.242 . S
O125 Eu112 2.418 . S
O125 C129 1.244 . S
O126 Eu113 2.488 . S
O126 C142 1.249 . S
O127 Eu113 2.471 1_545 S
O127 C142 1.244 1_545 S
O128 Eu113 2.349 1_545 S
O128 C129 1.265 . S
C129 O125 1.244 . S
C129 O128 1.265 . S
O130 Eu112 2.373 . S
O130 C143 1.258 1_545 S
O131 Eu113 2.392 . S
O131 C143 1.242 . S
O132 Eu113 2.418 . S
O132 C114 1.244 . S
O133 Eu112 2.488 . S
O133 C121 1.249 . S
O134 Eu112 2.471 . S
O134 C121 1.244 . S
O135 Eu112 2.349 1_565 S
O135 C114 1.265 . S
C136 C137 1.379 1_565 S
C136 C140 1.373 . S
C136 C142 1.505 . S
C137 C136 1.379 1_545 S
C137 C139 1.369 . S
C137 H148 0.930 . S
C138 C140 1.383 . S
C138 C141 1.382 . S
C138 H149 0.930 . S
C139 C137 1.369 . S
C139 C141 1.392 1_545 S
C139 H150 0.930 . S
C140 C136 1.373 . S
C140 C138 1.383 . S
C140 H151 0.931 . S
C141 C138 1.382 . S
C141 C139 1.392 1_565 S
C142 Eu113 2.828 . S
C142 O126 1.249 . S
C142 O127 1.244 1_565 S
C142 C136 1.505 . S
C143 O130 1.258 1_565 S
C143 O131 1.242 . S
H144 C116 0.930 1_565 S
H145 C117 0.930 . S
H146 C118 0.930 1_565 S
H147 C119 0.931 . S
H148 C137 0.930 . S
H149 C138 0.930 . S
H150 C139 0.930 . S
H151 C140 0.931 . S
Eu152 C161 2.828 . S
Eu152 O163 2.392 . S
Eu152 O165 2.418 . S
Eu152 O170 2.373 . S
Eu152 O173 2.488 . S
Eu152 O174 2.471 . S
Eu152 O175 2.349 . S
Eu153 O162 2.373 . S
Eu153 O166 2.488 . S
Eu153 O167 2.471 . S
Eu153 O168 2.349 . S
Eu153 O171 2.392 . S
Eu153 O172 2.418 . S
Eu153 C182 2.828 . S
C154 O172 1.244 . S
C154 O175 1.265 . S
C155 C156 1.379 . S
C155 C159 1.373 . S
C155 C161 1.505 . S
C156 C155 1.379 . S
C156 C158 1.369 . S
C156 H184 0.930 . S
C157 C159 1.383 . S
C157 C160 1.382 . S
C157 H185 0.930 . S
C158 C156 1.369 . S
C158 C160 1.392 . S
C158 H186 0.930 . S
C159 C155 1.373 . S
C159 C157 1.383 . S
C159 H187 0.931 . S
C160 C157 1.382 . S
C160 C158 1.392 . S
C161 Eu152 2.828 . S
C161 C155 1.505 . S
C161 O173 1.249 . S
C161 O174 1.244 . S
O162 Eu153 2.373 . S
O162 C164 1.258 . S
O163 Eu152 2.392 . S
O163 C164 1.242 . S
C164 O162 1.258 . S
C164 O163 1.242 . S
O165 Eu152 2.418 . S
O165 C169 1.244 . S
O166 Eu153 2.488 . S
O166 C182 1.249 . S
O167 Eu153 2.471 . S
O167 C182 1.244 . S
O168 Eu153 2.349 . S
O168 C169 1.265 . S
C169 O165 1.244 . S
C169 O168 1.265 . S
O170 Eu152 2.373 . S
O170 C183 1.258 . S
O171 Eu153 2.392 . S
O171 C183 1.242 . S
O172 Eu153 2.418 . S
O172 C154 1.244 . S
O173 Eu152 2.488 . S
O173 C161 1.249 . S
O174 Eu152 2.471 . S
O174 C161 1.244 . S
O175 Eu152 2.349 . S
O175 C154 1.265 . S
C176 C177 1.379 . S
C176 C180 1.373 . S
C176 C182 1.505 . S
C177 C176 1.379 . S
C177 C179 1.369 . S
C177 H188 0.930 . S
C178 C180 1.383 . S
C178 C181 1.382 . S
C178 H189 0.930 . S
C179 C177 1.369 . S
C179 C181 1.392 . S
C179 H190 0.930 . S
C180 C176 1.373 . S
C180 C178 1.383 . S
C180 H191 0.931 . S
C181 C178 1.382 . S
C181 C179 1.392 . S
C182 Eu153 2.828 . S
C182 O166 1.249 . S
C182 O167 1.244 . S
C182 C176 1.505 . S
C183 O170 1.258 . S
C183 O171 1.242 . S
H184 C156 0.930 . S
H185 C157 0.930 . S
H186 C158 0.930 . S
H187 C159 0.931 . S
H188 C177 0.930 . S
H189 C178 0.930 . S
H190 C179 0.930 . S
H191 C180 0.931 . S
Eu192 C201 2.828 . S
Eu192 O203 2.392 . S
Eu192 O205 2.418 1_455 S
Eu192 O210 2.373 . S
Eu192 O213 2.488 . S
Eu192 O214 2.471 . S
Eu192 O215 2.349 . S
Eu193 O202 2.373 . S
Eu193 O206 2.488 . S
Eu193 O207 2.471 . S
Eu193 O208 2.349 . S
Eu193 O211 2.392 1_655 S
Eu193 O212 2.418 1_655 S
Eu193 C222 2.828 . S
C194 O212 1.244 . S
C194 O215 1.265 . S
C195 C196 1.379 . S
C195 C199 1.373 . S
C195 C201 1.505 . S
C196 C195 1.379 . S
C196 C198 1.369 . S
C196 H224 0.930 . S
C197 C199 1.383 . S
C197 C200 1.382 . S
C197 H225 0.930 . S
C198 C196 1.369 . S
C198 C200 1.392 . S
C198 H226 0.930 . S
C199 C195 1.373 . S
C199 C197 1.383 . S
C199 H227 0.931 . S
C200 C197 1.382 . S
C200 C198 1.392 . S
C201 Eu192 2.828 . S
C201 C195 1.505 . S
C201 O213 1.249 . S
C201 O214 1.244 . S
O202 Eu193 2.373 . S
O202 C204 1.258 . S
O203 Eu192 2.392 . S
O203 C204 1.242 1_455 S
C204 O202 1.258 . S
C204 O203 1.242 1_655 S
O205 Eu192 2.418 1_655 S
O205 C209 1.244 . S
O206 Eu193 2.488 . S
O206 C222 1.249 . S
O207 Eu193 2.471 . S
O207 C222 1.244 . S
O208 Eu193 2.349 . S
O208 C209 1.265 . S
C209 O205 1.244 . S
C209 O208 1.265 . S
O210 Eu192 2.373 . S
O210 C223 1.258 . S
O211 Eu193 2.392 1_455 S
O211 C223 1.242 . S
O212 Eu193 2.418 1_455 S
O212 C194 1.244 . S
O213 Eu192 2.488 . S
O213 C201 1.249 . S
O214 Eu192 2.471 . S
O214 C201 1.244 . S
O215 Eu192 2.349 . S
O215 C194 1.265 . S
C216 C217 1.379 . S
C216 C220 1.373 . S
C216 C222 1.505 . S
C217 C216 1.379 . S
C217 C219 1.369 . S
C217 H228 0.930 . S
C218 C220 1.383 1_554 S
C218 C221 1.382 . S
C218 H229 0.930 . S
C219 C217 1.369 . S
C219 C221 1.392 1_556 S
C219 H230 0.930 . S
C220 C216 1.373 . S
C220 C218 1.383 1_556 S
C220 H231 0.931 1_556 S
C221 C218 1.382 . S
C221 C219 1.392 1_554 S
C222 Eu193 2.828 . S
C222 O206 1.249 . S
C222 O207 1.244 . S
C222 C216 1.505 . S
C223 O210 1.258 . S
C223 O211 1.242 . S
H224 C196 0.930 . S
H225 C197 0.930 . S
H226 C198 0.930 . S
H227 C199 0.931 . S
H228 C217 0.930 . S
H229 C218 0.930 . S
H230 C219 0.930 . S
H231 C220 0.931 1_554 S
H232 C244 0.930 . S
H233 C246 0.930 . S
H234 C247 0.930 . S
H235 C251 0.959 . S
H236 C251 0.959 . S
H237 C251 0.961 . S
H238 C252 0.960 . S
H239 C252 0.961 . S
H240 C252 0.959 . S
H241 C255 0.929 . S
H242 C256 0.931 . S
H243 C258 0.930 1_565 S
C244 H232 0.930 . S
C244 C245 1.399 . S
C244 C249 1.399 . S
C245 C244 1.399 . S
C245 C246 1.376 . S
C246 H233 0.930 . S
C246 C245 1.376 . S
C246 C247 1.388 . S
C247 H234 0.930 . S
C247 C246 1.388 . S
C247 C248 1.390 . S
C248 C247 1.390 . S
C248 C249 1.394 . S
C248 C254 1.465 . S
C249 C244 1.399 . S
C249 C248 1.394 . S
C249 C250 1.516 1_545 S
C250 C249 1.516 1_565 S
C250 C251 1.502 . S
C250 C252 1.561 . S
C250 C253 1.526 1_565 S
C251 H235 0.959 . S
C251 H236 0.959 . S
C251 H237 0.961 . S
C251 C250 1.502 . S
C252 H238 0.960 . S
C252 H239 0.961 . S
C252 H240 0.959 . S
C252 C250 1.561 . S
C253 C250 1.526 1_545 S
C253 C254 1.396 . S
C253 C258 1.390 . S
C254 C248 1.465 . S
C254 C253 1.396 . S
C254 C255 1.399 . S
C255 H241 0.929 . S
C255 C254 1.399 . S
C255 C256 1.385 . S
C256 H242 0.931 . S
C256 C255 1.385 . S
C256 C257 1.389 . S
C257 C256 1.389 . S
C257 C258 1.387 . S
C258 H243 0.930 1_545 S
C258 C253 1.390 . S
C258 C257 1.387 . S
H259 C271 0.930 . S
H260 C273 0.930 . S
H261 C274 0.930 . S
H262 C278 0.959 . S
H263 C278 0.959 . S
H264 C278 0.961 . S
H265 C279 0.960 . S
H266 C279 0.961 . S
H267 C279 0.959 . S
H268 C282 0.929 . S
H269 C283 0.931 . S
H270 C285 0.930 . S
C271 H259 0.930 . S
C271 C272 1.399 . S
C271 C276 1.399 . S
C272 C271 1.399 . S
C272 C273 1.376 . S
C273 H260 0.930 . S
C273 C272 1.376 . S
C273 C274 1.388 . S
C274 H261 0.930 . S
C274 C273 1.388 . S
C274 C275 1.390 . S
C275 C274 1.390 . S
C275 C276 1.394 . S
C275 C281 1.465 . S
C276 C271 1.399 . S
C276 C275 1.394 . S
C276 C277 1.516 . S
C277 C276 1.516 . S
C277 C278 1.502 . S
C277 C279 1.561 . S
C277 C280 1.526 . S
C278 H262 0.959 . S
C278 H263 0.959 . S
C278 H264 0.961 . S
C278 C277 1.502 . S
C279 H265 0.960 . S
C279 H266 0.961 . S
C279 H267 0.959 . S
C279 C277 1.561 . S
C280 C277 1.526 . S
C280 C281 1.396 . S
C280 C285 1.390 . S
C281 C275 1.465 . S
C281 C280 1.396 . S
C281 C282 1.399 . S
C282 H268 0.929 . S
C282 C281 1.399 . S
C282 C283 1.385 . S
C283 H269 0.931 . S
C283 C282 1.385 . S
C283 C284 1.389 . S
C284 C283 1.389 . S
C284 C285 1.387 . S
C285 H270 0.930 . S
C285 C280 1.390 . S
C285 C284 1.387 . S
H286 C298 0.930 . S
H287 C300 0.930 . S
H288 C301 0.930 . S
H289 C305 0.959 . S
H290 C305 0.959 . S
H291 C305 0.961 . S
H292 C306 0.960 . S
H293 C306 0.961 . S
H294 C306 0.959 . S
H295 C309 0.929 . S
H296 C310 0.931 . S
H297 C312 0.930 . S
C298 H286 0.930 . S
C298 C299 1.399 . S
C298 C303 1.399 . S
C299 C298 1.399 . S
C299 C300 1.376 . S
C300 H287 0.930 . S
C300 C299 1.376 . S
C300 C301 1.388 . S
C301 H288 0.930 . S
C301 C300 1.388 . S
C301 C302 1.390 . S
C302 C301 1.390 . S
C302 C303 1.394 . S
C302 C308 1.465 . S
C303 C298 1.399 . S
C303 C302 1.394 . S
C303 C304 1.516 . S
C304 C303 1.516 . S
C304 C305 1.502 . S
C304 C306 1.561 . S
C304 C307 1.526 . S
C305 H289 0.959 . S
C305 H290 0.959 . S
C305 H291 0.961 . S
C305 C304 1.502 . S
C306 H292 0.960 . S
C306 H293 0.961 . S
C306 H294 0.959 . S
C306 C304 1.561 . S
C307 C304 1.526 . S
C307 C308 1.396 . S
C307 C312 1.390 . S
C308 C302 1.465 . S
C308 C307 1.396 . S
C308 C309 1.399 . S
C309 H295 0.929 . S
C309 C308 1.399 . S
C309 C310 1.385 . S
C310 H296 0.931 . S
C310 C309 1.385 . S
C310 C311 1.389 . S
C311 C310 1.389 . S
C311 C312 1.387 . S
C312 H297 0.930 . S
C312 C307 1.390 . S
C312 C311 1.387 . S
H313 C325 0.930 . S
H314 C327 0.930 . S
H315 C328 0.930 . S
H316 C332 0.959 . S
H317 C332 0.959 . S
H318 C332 0.961 . S
H319 C333 0.960 . S
H320 C333 0.961 . S
H321 C333 0.959 . S
H322 C336 0.929 . S
H323 C337 0.931 . S
H324 C339 0.930 . S
C325 H313 0.930 . S
C325 C326 1.399 . S
C325 C330 1.399 . S
C326 C325 1.399 . S
C326 C327 1.376 . S
C327 H314 0.930 . S
C327 C326 1.376 . S
C327 C328 1.388 . S
C328 H315 0.930 . S
C328 C327 1.388 . S
C328 C329 1.390 . S
C329 C328 1.390 . S
C329 C330 1.394 . S
C329 C335 1.465 . S
C330 C325 1.399 . S
C330 C329 1.394 . S
C330 C331 1.516 . S
C331 C330 1.516 . S
C331 C332 1.502 . S
C331 C333 1.561 . S
C331 C334 1.526 . S
C332 H316 0.959 . S
C332 H317 0.959 . S
C332 H318 0.961 . S
C332 C331 1.502 . S
C333 H319 0.960 . S
C333 H320 0.961 . S
C333 H321 0.959 . S
C333 C331 1.561 . S
C334 C331 1.526 . S
C334 C335 1.396 . S
C334 C339 1.390 . S
C335 C329 1.465 . S
C335 C334 1.396 . S
C335 C336 1.399 . S
C336 H322 0.929 . S
C336 C335 1.399 . S
C336 C337 1.385 . S
C337 H323 0.931 . S
C337 C336 1.385 . S
C337 C338 1.389 . S
C338 C337 1.389 . S
C338 C339 1.387 . S
C339 H324 0.930 . S
C339 C334 1.390 . S
C339 C338 1.387 . S
H340 C352 0.930 1_545 S
H341 C354 0.930 . S
H342 C355 0.930 . S
H343 C359 0.959 1_566 S
H344 C359 0.959 1_556 S
H345 C359 0.961 . S
H346 C360 0.960 . S
H347 C360 0.961 . S
H348 C360 0.959 . S
H349 C363 0.929 . S
H350 C364 0.931 . S
H351 C366 0.930 . S
C352 H340 0.930 1_565 S
C352 C353 1.399 . S
C352 C357 1.399 . S
C353 C352 1.399 . S
C353 C354 1.376 . S
C354 H341 0.930 . S
C354 C353 1.376 . S
C354 C355 1.388 . S
C355 H342 0.930 . S
C355 C354 1.388 . S
C355 C356 1.390 . S
C356 C355 1.390 . S
C356 C357 1.394 . S
C356 C362 1.465 . S
C357 C352 1.399 . S
C357 C356 1.394 . S
C357 C358 1.516 1_565 S
C358 C357 1.516 1_545 S
C358 C359 1.502 . S
C358 C360 1.561 . S
C358 C361 1.526 1_544 S
C359 H343 0.959 1_544 S
C359 H344 0.959 1_554 S
C359 H345 0.961 . S
C359 C358 1.502 . S
C360 H346 0.960 . S
C360 H347 0.961 . S
C360 H348 0.959 . S
C360 C358 1.561 . S
C361 C358 1.526 1_566 S
C361 C362 1.396 1_556 S
C361 C366 1.390 1_565 S
C362 C356 1.465 . S
C362 C361 1.396 1_554 S
C362 C363 1.399 . S
C363 H349 0.929 . S
C363 C362 1.399 . S
C363 C364 1.385 1_554 S
C364 H350 0.931 . S
C364 C363 1.385 1_556 S
C364 C365 1.389 . S
C365 C364 1.389 . S
C365 C366 1.387 1_565 S
C366 H351 0.930 . S
C366 C361 1.390 1_545 S
C366 C365 1.387 1_545 S
H367 C379 0.930 . S
H368 C381 0.930 . S
H369 C382 0.930 . S
H370 C386 0.959 . S
H371 C386 0.959 . S
H372 C386 0.961 . S
H373 C387 0.960 . S
H374 C387 0.961 . S
H375 C387 0.959 . S
H376 C390 0.929 . S
H377 C391 0.931 . S
H378 C393 0.930 . S
C379 H367 0.930 . S
C379 C380 1.399 . S
C379 C384 1.399 . S
C380 C379 1.399 . S
C380 C381 1.376 . S
C381 H368 0.930 . S
C381 C380 1.376 . S
C381 C382 1.388 . S
C382 H369 0.930 . S
C382 C381 1.388 . S
C382 C383 1.390 . S
C383 C382 1.390 . S
C383 C384 1.394 . S
C383 C389 1.465 1_554 S
C384 C379 1.399 . S
C384 C383 1.394 . S
C384 C385 1.516 . S
C385 C384 1.516 . S
C385 C386 1.502 . S
C385 C387 1.561 . S
C385 C388 1.526 1_554 S
C386 H370 0.959 . S
C386 H371 0.959 . S
C386 H372 0.961 . S
C386 C385 1.502 . S
C387 H373 0.960 . S
C387 H374 0.961 . S
C387 H375 0.959 . S
C387 C385 1.561 . S
C388 C385 1.526 1_556 S
C388 C389 1.396 . S
C388 C393 1.390 . S
C389 C383 1.465 1_556 S
C389 C388 1.396 . S
C389 C390 1.399 . S
C390 H376 0.929 . S
C390 C389 1.399 . S
C390 C391 1.385 . S
C391 H377 0.931 . S
C391 C390 1.385 . S
C391 C392 1.389 . S
C392 C391 1.389 . S
C392 C393 1.387 . S
C393 H378 0.930 . S
C393 C388 1.390 . S
C393 C392 1.387 . S
H394 C406 0.930 . S
H395 C408 0.930 . S
H396 C409 0.930 . S
H397 C413 0.959 . S
H398 C413 0.959 . S
H399 C413 0.961 . S
H400 C414 0.960 1_554 S
H401 C414 0.961 . S
H402 C414 0.959 . S
H403 C417 0.929 . S
H404 C418 0.931 . S
H405 C420 0.930 . S
C406 H394 0.930 . S
C406 C407 1.399 . S
C406 C411 1.399 . S
C407 C406 1.399 . S
C407 C408 1.376 . S
C408 H395 0.930 . S
C408 C407 1.376 . S
C408 C409 1.388 . S
C409 H396 0.930 . S
C409 C408 1.388 . S
C409 C410 1.390 . S
C410 C409 1.390 . S
C410 C411 1.394 . S
C410 C416 1.465 1_554 S
C411 C406 1.399 . S
C411 C410 1.394 . S
C411 C412 1.516 . S
C412 C411 1.516 . S
C412 C413 1.502 . S
C412 C414 1.561 1_554 S
C412 C415 1.526 1_554 S
C413 H397 0.959 . S
C413 H398 0.959 . S
C413 H399 0.961 . S
C413 C412 1.502 . S
C414 H400 0.960 1_556 S
C414 H401 0.961 . S
C414 H402 0.959 . S
C414 C412 1.561 1_556 S
C415 C412 1.526 1_556 S
C415 C416 1.396 . S
C415 C420 1.390 . S
C416 C410 1.465 1_556 S
C416 C415 1.396 . S
C416 C417 1.399 . S
C417 H403 0.929 . S
C417 C416 1.399 . S
C417 C418 1.385 . S
C418 H404 0.931 . S
C418 C417 1.385 . S
C418 C419 1.389 . S
C419 C418 1.389 . S
C419 C420 1.387 . S
C420 H405 0.930 . S
C420 C415 1.390 . S
C420 C419 1.387 . S
H421 C433 0.930 1_455 S
H422 C435 0.930 . S
H423 C436 0.930 . S
H424 C440 0.959 . S
H425 C440 0.959 . S
H426 C440 0.961 . S
H427 C441 0.960 . S
H428 C441 0.961 . S
H429 C441 0.959 1_655 S
H430 C444 0.929 . S
H431 C445 0.931 . S
H432 C447 0.930 . S
C433 H421 0.930 1_655 S
C433 C434 1.399 . S
C433 C438 1.399 . S
C434 C433 1.399 . S
C434 C435 1.376 . S
C435 H422 0.930 . S
C435 C434 1.376 . S
C435 C436 1.388 . S
C436 H423 0.930 . S
C436 C435 1.388 . S
C436 C437 1.390 . S
C437 C436 1.390 . S
C437 C438 1.394 . S
C437 C443 1.465 . S
C438 C433 1.399 . S
C438 C437 1.394 . S
C438 C439 1.516 1_655 S
C439 C438 1.516 1_455 S
C439 C440 1.502 . S
C439 C441 1.561 . S
C439 C442 1.526 1_455 S
C440 H424 0.959 . S
C440 H425 0.959 . S
C440 H426 0.961 . S
C440 C439 1.502 . S
C441 H427 0.960 . S
C441 H428 0.961 . S
C441 H429 0.959 1_455 S
C441 C439 1.561 . S
C442 C439 1.526 1_655 S
C442 C443 1.396 . S
C442 C447 1.390 1_654 S
C443 C437 1.465 . S
C443 C442 1.396 . S
C443 C444 1.399 1_554 S
C444 H430 0.929 . S
C444 C443 1.399 1_556 S
C444 C445 1.385 . S
C445 H431 0.931 . S
C445 C444 1.385 . S
C445 C446 1.389 . S
C446 C445 1.389 . S
C446 C447 1.387 1_655 S
C447 H432 0.930 . S
C447 C442 1.390 1_456 S
C447 C446 1.387 1_455 S
H448 C460 0.930 . S
H449 C462 0.930 . S
H450 C463 0.930 1_655 S
H451 C467 0.959 . S
H452 C467 0.959 . S
H453 C467 0.961 . S
H454 C468 0.960 . S
H455 C468 0.961 . S
H456 C468 0.959 . S
H457 C471 0.929 . S
H458 C472 0.931 . S
H459 C474 0.930 . S
C460 H448 0.930 . S
C460 C461 1.399 . S
C460 C465 1.399 . S
C461 C460 1.399 . S
C461 C462 1.376 . S
C462 H449 0.930 . S
C462 C461 1.376 . S
C462 C463 1.388 . S
C463 H450 0.930 1_455 S
C463 C462 1.388 . S
C463 C464 1.390 . S
C464 C463 1.390 . S
C464 C465 1.394 . S
C464 C470 1.465 . S
C465 C460 1.399 . S
C465 C464 1.394 . S
C465 C466 1.516 . S
C466 C465 1.516 . S
C466 C467 1.502 . S
C466 C468 1.561 . S
C466 C469 1.526 . S
C467 H451 0.959 . S
C467 H452 0.959 . S
C467 H453 0.961 . S
C467 C466 1.502 . S
C468 H454 0.960 . S
C468 H455 0.961 . S
C468 H456 0.959 . S
C468 C466 1.561 . S
C469 C466 1.526 . S
C469 C470 1.396 . S
C469 C474 1.390 . S
C470 C464 1.465 . S
C470 C469 1.396 . S
C470 C471 1.399 1_455 S
C471 H457 0.929 . S
C471 C470 1.399 1_655 S
C471 C472 1.385 . S
C472 H458 0.931 . S
C472 C471 1.385 . S
C472 C473 1.389 . S
C473 C472 1.389 . S
C473 C474 1.387 1_655 S
C474 H459 0.930 . S
C474 C469 1.390 . S
C474 C473 1.387 1_455 S
H475 C487 0.930 . S
H476 C489 0.930 . S
H477 C490 0.930 . S
H478 C494 0.959 . S
H479 C494 0.959 . S
H480 C494 0.961 . S
H481 C495 0.960 . S
H482 C495 0.961 . S
H483 C495 0.959 . S
H484 C498 0.929 . S
H485 C499 0.931 . S
H486 C501 0.930 . S
C487 H475 0.930 . S
C487 C488 1.399 . S
C487 C492 1.399 . S
C488 C487 1.399 . S
C488 C489 1.376 . S
C489 H476 0.930 . S
C489 C488 1.376 . S
C489 C490 1.388 1_545 S
C490 H477 0.930 . S
C490 C489 1.388 1_565 S
C490 C491 1.390 1_565 S
C491 C490 1.390 1_545 S
C491 C492 1.394 . S
C491 C497 1.465 1_545 S
C492 C487 1.399 . S
C492 C491 1.394 . S
C492 C493 1.516 . S
C493 C492 1.516 . S
C493 C494 1.502 . S
C493 C495 1.561 . S
C493 C496 1.526 . S
C494 H478 0.959 . S
C494 H479 0.959 . S
C494 H480 0.961 . S
C494 C493 1.502 . S
C495 H481 0.960 . S
C495 H482 0.961 . S
C495 H483 0.959 . S
C495 C493 1.561 . S
C496 C493 1.526 . S
C496 C497 1.396 1_545 S
C496 C501 1.390 . S
C497 C491 1.465 1_565 S
C497 C496 1.396 1_565 S
C497 C498 1.399 . S
C498 H484 0.929 . S
C498 C497 1.399 . S
C498 C499 1.385 . S
C499 H485 0.931 . S
C499 C498 1.385 . S
C499 C500 1.389 . S
C500 C499 1.389 . S
C500 C501 1.387 1_565 S
C501 H486 0.930 . S
C501 C496 1.390 . S
C501 C500 1.387 1_545 S
H502 C514 0.930 . S
H503 C516 0.930 . S
H504 C517 0.930 . S
H505 C521 0.959 . S
H506 C521 0.959 . S
H507 C521 0.961 . S
H508 C522 0.960 . S
H509 C522 0.961 . S
H510 C522 0.959 . S
H511 C525 0.929 . S
H512 C526 0.931 . S
H513 C528 0.930 . S
C514 H502 0.930 . S
C514 C515 1.399 . S
C514 C519 1.399 . S
C515 C514 1.399 . S
C515 C516 1.376 . S
C516 H503 0.930 . S
C516 C515 1.376 . S
C516 C517 1.388 . S
C517 H504 0.930 . S
C517 C516 1.388 . S
C517 C518 1.390 . S
C518 C517 1.390 . S
C518 C519 1.394 . S
C518 C524 1.465 . S
C519 C514 1.399 . S
C519 C518 1.394 . S
C519 C520 1.516 . S
C520 C519 1.516 . S
C520 C521 1.502 . S
C520 C522 1.561 . S
C520 C523 1.526 . S
C521 H505 0.959 . S
C521 H506 0.959 . S
C521 H507 0.961 . S
C521 C520 1.502 . S
C522 H508 0.960 . S
C522 H509 0.961 . S
C522 H510 0.959 . S
C522 C520 1.561 . S
C523 C520 1.526 . S
C523 C524 1.396 . S
C523 C528 1.390 . S
C524 C518 1.465 . S
C524 C523 1.396 . S
C524 C525 1.399 . S
C525 H511 0.929 . S
C525 C524 1.399 . S
C525 C526 1.385 . S
C526 H512 0.931 . S
C526 C525 1.385 . S
C526 C527 1.389 . S
C527 C526 1.389 . S
C527 C528 1.387 . S
C528 H513 0.930 . S
C528 C523 1.390 . S
C528 C527 1.387 . S
H529 C541 0.930 . S
H530 C543 0.930 . S
H531 C544 0.930 . S
H532 C548 0.959 . S
H533 C548 0.959 . S
H534 C548 0.961 . S
H535 C549 0.960 . S
H536 C549 0.961 . S
H537 C549 0.959 . S
H538 C552 0.929 . S
H539 C553 0.931 . S
H540 C555 0.930 . S
C541 H529 0.930 . S
C541 C542 1.399 . S
C541 C546 1.399 . S
C542 C541 1.399 . S
C542 C543 1.376 . S
C543 H530 0.930 . S
C543 C542 1.376 . S
C543 C544 1.388 . S
C544 H531 0.930 . S
C544 C543 1.388 . S
C544 C545 1.390 . S
C545 C544 1.390 . S
C545 C546 1.394 . S
C545 C551 1.465 . S
C546 C541 1.399 . S
C546 C545 1.394 . S
C546 C547 1.516 . S
C547 C546 1.516 . S
C547 C548 1.502 . S
C547 C549 1.561 . S
C547 C550 1.526 . S
C548 H532 0.959 . S
C548 H533 0.959 . S
C548 H534 0.961 . S
C548 C547 1.502 . S
C549 H535 0.960 . S
C549 H536 0.961 . S
C549 H537 0.959 . S
C549 C547 1.561 . S
C550 C547 1.526 . S
C550 C551 1.396 . S
C550 C555 1.390 . S
C551 C545 1.465 . S
C551 C550 1.396 . S
C551 C552 1.399 . S
C552 H538 0.929 . S
C552 C551 1.399 . S
C552 C553 1.385 . S
C553 H539 0.931 . S
C553 C552 1.385 . S
C553 C554 1.389 . S
C554 C553 1.389 . S
C554 C555 1.387 . S
C555 H540 0.930 . S
C555 C550 1.390 . S
C555 C554 1.387 . S
H556 C568 0.902 1_455 S
H557 C570 0.930 . S
H558 C571 0.930 . S
H559 C575 0.959 . S
H560 C575 0.959 . S
H561 C575 0.961 . S
H562 C576 0.960 . S
H563 C576 0.961 . S
H564 C576 0.959 . S
H565 C579 0.929 . S
H566 C580 0.931 . S
H567 C582 0.930 . S
C568 H556 0.902 1_655 S
C568 C569 1.399 . S
C568 C573 1.399 . S
C569 C568 1.399 . S
C569 C570 1.376 . S
C570 H557 0.930 . S
C570 C569 1.376 . S
C570 C571 1.388 . S
C571 H558 0.930 . S
C571 C570 1.388 . S
C571 C572 1.390 . S
C572 C571 1.390 . S
C572 C573 1.394 . S
C572 C578 1.465 . S
C573 C568 1.399 . S
C573 C572 1.394 . S
C573 C574 1.516 1_655 S
C574 C573 1.516 1_455 S
C574 C575 1.502 . S
C574 C576 1.561 . S
C574 C577 1.526 . S
C575 H559 0.959 . S
C575 H560 0.959 . S
C575 H561 0.961 . S
C575 C574 1.502 . S
C576 H562 0.960 . S
C576 H563 0.961 . S
C576 H564 0.959 . S
C576 C574 1.561 . S
C577 C574 1.526 . S
C577 C578 1.396 1_455 S
C577 C582 1.390 . S
C578 C572 1.465 . S
C578 C577 1.396 1_655 S
C578 C579 1.399 . S
C579 H565 0.929 . S
C579 C578 1.399 . S
C579 C580 1.385 . S
C580 H566 0.931 . S
C580 C579 1.385 . S
C580 C581 1.389 1_655 S
C581 C580 1.389 1_455 S
C581 C582 1.387 . S
C582 H567 0.930 . S
C582 C577 1.390 . S
C582 C581 1.387 . S
H583 C595 0.930 1_545 S
H584 C597 0.930 . S
H585 C598 0.930 . S
H586 C602 0.959 . S
H587 C602 0.959 . S
H588 C602 0.961 . S
H589 C603 0.960 . S
H590 C603 0.961 . S
H591 C603 0.959 . S
H592 C606 0.929 . S
H593 C607 0.931 1_565 S
H594 C609 0.930 . S
C595 H583 0.930 1_565 S
C595 C596 1.399 . S
C595 C600 1.399 1_565 S
C596 C595 1.399 . S
C596 C597 1.376 . S
C597 H584 0.930 . S
C597 C596 1.376 . S
C597 C598 1.388 . S
C598 H585 0.930 . S
C598 C597 1.388 . S
C598 C599 1.390 . S
C599 C598 1.390 . S
C599 C600 1.394 1_565 S
C599 C605 1.465 . S
C600 C595 1.399 1_545 S
C600 C599 1.394 1_545 S
C600 C601 1.516 . S
C601 C600 1.516 . S
C601 C602 1.502 . S
C601 C603 1.561 . S
C601 C604 1.526 . S
C602 H586 0.959 . S
C602 H587 0.959 . S
C602 H588 0.961 . S
C602 C601 1.502 . S
C603 H589 0.960 . S
C603 H590 0.961 . S
C603 H591 0.959 . S
C603 C601 1.561 . S
C604 C601 1.526 . S
C604 C605 1.396 1_545 S
C604 C609 1.390 . S
C605 C599 1.465 . S
C605 C604 1.396 1_565 S
C605 C606 1.399 1_554 S
C606 H592 0.929 . S
C606 C605 1.399 1_556 S
C606 C607 1.385 1_565 S
C607 H593 0.931 1_545 S
C607 C606 1.385 1_545 S
C607 C608 1.389 . S
C608 C607 1.389 . S
C608 C609 1.387 1_556 S
C609 H594 0.930 . S
C609 C604 1.390 . S
C609 C608 1.387 1_554 S
H610 C622 0.930 . S
H611 C624 0.930 . S
H612 C625 0.930 . S
H613 C629 0.959 1_554 S
H614 C629 0.959 . S
H615 C629 0.961 1_554 S
H616 C630 0.960 . S
H617 C630 0.961 . S
H618 C630 0.959 . S
H619 C633 0.929 . S
H620 C634 0.931 . S
H621 C636 0.930 . S
C622 H610 0.930 . S
C622 C623 1.399 . S
C622 C627 1.399 . S
C623 C622 1.399 . S
C623 C624 1.376 . S
C624 H611 0.930 . S
C624 C623 1.376 . S
C624 C625 1.388 . S
C625 H612 0.930 . S
C625 C624 1.388 . S
C625 C626 1.390 . S
C626 C625 1.390 . S
C626 C627 1.394 . S
C626 C632 1.465 . S
C627 C622 1.399 . S
C627 C626 1.394 . S
C627 C628 1.516 . S
C628 C627 1.516 . S
C628 C629 1.502 1_554 S
C628 C630 1.561 1_554 S
C628 C631 1.526 . S
C629 H613 0.959 1_556 S
C629 H614 0.959 . S
C629 H615 0.961 1_556 S
C629 C628 1.502 1_556 S
C630 H616 0.960 . S
C630 H617 0.961 . S
C630 H618 0.959 . S
C630 C628 1.561 1_556 S
C631 C628 1.526 . S
C631 C632 1.396 . S
C631 C636 1.390 1_554 S
C632 C626 1.465 . S
C632 C631 1.396 . S
C632 C633 1.399 . S
C633 H619 0.929 . S
C633 C632 1.399 . S
C633 C634 1.385 . S
C634 H620 0.931 . S
C634 C633 1.385 . S
C634 C635 1.389 1_554 S
C635 C634 1.389 1_556 S
C635 C636 1.387 . S
C636 H621 0.930 . S
C636 C631 1.390 1_556 S
C636 C635 1.387 . S
H637 C649 0.930 . S
H638 C651 0.930 . S
H639 C652 0.930 . S
H640 C656 0.959 . S
H641 C656 0.959 . S
H642 C656 0.961 . S
H643 C657 0.960 . S
H644 C657 0.961 . S
H645 C657 0.959 . S
H646 C660 0.929 . S
H647 C661 0.931 . S
H648 C663 0.930 1_556 S
C649 H637 0.930 . S
C649 C650 1.399 . S
C649 C654 1.399 . S
C650 C649 1.399 . S
C650 C651 1.376 . S
C651 H638 0.930 . S
C651 C650 1.376 . S
C651 C652 1.388 . S
C652 H639 0.930 . S
C652 C651 1.388 . S
C652 C653 1.390 . S
C653 C652 1.390 . S
C653 C654 1.394 . S
C653 C659 1.465 . S
C654 C649 1.399 . S
C654 C653 1.394 . S
C654 C655 1.516 . S
C655 C654 1.516 . S
C655 C656 1.502 1_554 S
C655 C657 1.561 . S
C655 C658 1.526 . S
C656 H640 0.959 . S
C656 H641 0.959 . S
C656 H642 0.961 . S
C656 C655 1.502 1_556 S
C657 H643 0.960 . S
C657 H644 0.961 . S
C657 H645 0.959 . S
C657 C655 1.561 . S
C658 C655 1.526 . S
C658 C659 1.396 . S
C658 C663 1.390 . S
C659 C653 1.465 . S
C659 C658 1.396 . S
C659 C660 1.399 . S
C660 H646 0.929 . S
C660 C659 1.399 . S
C660 C661 1.385 . S
C661 H647 0.931 . S
C661 C660 1.385 . S
C661 C662 1.389 . S
C662 C661 1.389 . S
C662 C663 1.387 . S
C663 H648 0.930 1_554 S
C663 C658 1.390 . S
C663 C662 1.387 . S
H664 C676 0.930 . S
H665 C678 0.930 . S
H666 C679 0.930 . S
H667 C683 0.959 . S
H668 C683 0.959 1_554 S
H669 C683 0.961 1_554 S
H670 C684 0.960 . S
H671 C684 0.961 . S
H672 C684 0.959 . S
H673 C687 0.929 . S
H674 C688 0.931 . S
H675 C690 0.930 . S
C676 H664 0.930 . S
C676 C677 1.399 . S
C676 C681 1.399 . S
C677 C676 1.399 . S
C677 C678 1.376 . S
C678 H665 0.930 . S
C678 C677 1.376 . S
C678 C679 1.388 . S
C679 H666 0.930 . S
C679 C678 1.388 . S
C679 C680 1.390 . S
C680 C679 1.390 . S
C680 C681 1.394 . S
C680 C686 1.465 . S
C681 C676 1.399 . S
C681 C680 1.394 . S
C681 C682 1.516 . S
C682 C681 1.516 . S
C682 C683 1.502 . S
C682 C684 1.561 1_455 S
C682 C685 1.526 . S
C683 H667 0.959 . S
C683 H668 0.959 1_556 S
C683 H669 0.961 1_556 S
C683 C682 1.502 . S
C684 H670 0.960 . S
C684 H671 0.961 . S
C684 H672 0.959 . S
C684 C682 1.561 1_655 S
C685 C682 1.526 . S
C685 C686 1.396 . S
C685 C690 1.390 . S
C686 C680 1.465 . S
C686 C685 1.396 . S
C686 C687 1.399 . S
C687 H673 0.929 . S
C687 C686 1.399 . S
C687 C688 1.385 . S
C688 H674 0.931 . S
C688 C687 1.385 . S
C688 C689 1.389 . S
C689 C688 1.389 . S
C689 C690 1.387 . S
C690 H675 0.930 . S
C690 C685 1.390 . S
C690 C689 1.387 . S
H691 C703 0.930 . S
H692 C705 0.930 . S
H693 C706 0.930 . S
H694 C710 0.959 . S
H695 C710 0.959 . S
H696 C710 0.961 1_554 S
H697 C711 0.960 . S
H698 C711 0.961 . S
H699 C711 0.959 . S
H700 C714 0.929 . S
H701 C715 0.931 . S
H702 C717 0.930 . S
C703 H691 0.930 . S
C703 C704 1.399 . S
C703 C708 1.399 . S
C704 C703 1.399 . S
C704 C705 1.376 . S
C705 H692 0.930 . S
C705 C704 1.376 . S
C705 C706 1.388 . S
C706 H693 0.930 . S
C706 C705 1.388 . S
C706 C707 1.390 . S
C707 C706 1.390 . S
C707 C708 1.394 . S
C707 C713 1.465 . S
C708 C703 1.399 . S
C708 C707 1.394 . S
C708 C709 1.516 . S
C709 C708 1.516 . S
C709 C710 1.502 . S
C709 C711 1.561 1_545 S
C709 C712 1.526 . S
C710 H694 0.959 . S
C710 H695 0.959 . S
C710 H696 0.961 1_556 S
C710 C709 1.502 . S
C711 H697 0.960 . S
C711 H698 0.961 . S
C711 H699 0.959 . S
C711 C709 1.561 1_565 S
C712 C709 1.526 . S
C712 C713 1.396 . S
C712 C717 1.390 . S
C713 C707 1.465 . S
C713 C712 1.396 . S
C713 C714 1.399 . S
C714 H700 0.929 . S
C714 C713 1.399 . S
C714 C715 1.385 . S
C715 H701 0.931 . S
C715 C714 1.385 . S
C715 C716 1.389 . S
C716 C715 1.389 . S
C716 C717 1.387 . S
C717 H702 0.930 . S
C717 C712 1.390 . S
C717 C716 1.387 . S
H718 C730 0.930 . S
H719 C732 0.930 . S
H720 C733 0.930 . S
H721 C737 0.959 . S
H722 C737 0.959 . S
H723 C737 0.961 1_554 S
H724 C738 0.960 1_554 S
H725 C738 0.961 1_554 S
H726 C738 0.959 . S
H727 C741 0.929 . S
H728 C742 0.931 . S
H729 C744 0.930 . S
C730 H718 0.930 . S
C730 C731 1.399 . S
C730 C735 1.399 . S
C731 C730 1.399 . S
C731 C732 1.376 . S
C732 H719 0.930 . S
C732 C731 1.376 . S
C732 C733 1.388 . S
C733 H720 0.930 . S
C733 C732 1.388 . S
C733 C734 1.390 . S
C734 C733 1.390 . S
C734 C735 1.394 . S
C734 C740 1.465 . S
C735 C730 1.399 . S
C735 C734 1.394 . S
C735 C736 1.516 . S
C736 C735 1.516 . S
C736 C737 1.502 . S
C736 C738 1.561 . S
C736 C739 1.526 . S
C737 H721 0.959 . S
C737 H722 0.959 . S
C737 H723 0.961 1_556 S
C737 C736 1.502 . S
C738 H724 0.960 1_556 S
C738 H725 0.961 1_556 S
C738 H726 0.959 . S
C738 C736 1.561 . S
C739 C736 1.526 . S
C739 C740 1.396 . S
C739 C744 1.390 . S
C740 C734 1.465 . S
C740 C739 1.396 . S
C740 C741 1.399 . S
C741 H727 0.929 . S
C741 C740 1.399 . S
C741 C742 1.385 . S
C742 H728 0.931 . S
C742 C741 1.385 . S
C742 C743 1.389 . S
C743 C742 1.389 . S
C743 C744 1.387 . S
C744 H729 0.930 . S
C744 C739 1.390 . S
C744 C743 1.387 . S
H745 C757 0.930 . S
H746 C759 0.930 1_554 S
H747 C760 0.930 . S
H748 C764 0.959 . S
H749 C764 0.959 . S
H750 C764 0.961 . S
H751 C765 0.960 . S
H752 C765 0.961 . S
H753 C765 0.959 . S
H754 C768 0.929 . S
H755 C769 0.931 . S
H756 C771 0.930 . S
C757 H745 0.930 . S
C757 C758 1.399 . S
C757 C762 1.399 . S
C758 C757 1.399 . S
C758 C759 1.376 . S
C759 H746 0.930 1_556 S
C759 C758 1.376 . S
C759 C760 1.388 . S
C760 H747 0.930 . S
C760 C759 1.388 . S
C760 C761 1.390 . S
C761 C760 1.390 . S
C761 C762 1.394 . S
C761 C767 1.465 . S
C762 C757 1.399 . S
C762 C761 1.394 . S
C762 C763 1.516 . S
C763 C762 1.516 . S
C763 C764 1.502 . S
C763 C765 1.561 . S
C763 C766 1.526 . S
C764 H748 0.959 . S
C764 H749 0.959 . S
C764 H750 0.961 . S
C764 C763 1.502 . S
C765 H751 0.960 . S
C765 H752 0.961 . S
C765 H753 0.959 . S
C765 C763 1.561 . S
C766 C763 1.526 . S
C766 C767 1.396 . S
C766 C771 1.390 . S
C767 C761 1.465 . S
C767 C766 1.396 . S
C767 C768 1.399 . S
C768 H754 0.929 . S
C768 C767 1.399 . S
C768 C769 1.385 . S
C769 H755 0.931 . S
C769 C768 1.385 . S
C769 C770 1.389 . S
C770 C769 1.389 . S
C770 C771 1.387 . S
C771 H756 0.930 . S
C771 C766 1.390 . S
C771 C770 1.387 . S
H772 C784 0.930 . S
H773 C786 0.930 . S
H774 C787 0.930 . S
H775 C791 0.959 . S
H776 C791 0.959 . S
H777 C791 0.961 . S
H778 C792 0.960 . S
H779 C792 0.961 . S
H780 C792 0.959 . S
H781 C795 0.929 . S
H782 C796 0.931 . S
H783 C798 0.930 . S
C784 H772 0.930 . S
C784 C785 1.399 . S
C784 C789 1.399 . S
C785 C784 1.399 . S
C785 C786 1.376 . S
C786 H773 0.930 . S
C786 C785 1.376 . S
C786 C787 1.388 . S
C787 H774 0.930 . S
C787 C786 1.388 . S
C787 C788 1.390 . S
C788 C787 1.390 . S
C788 C789 1.394 . S
C788 C794 1.465 . S
C789 C784 1.399 . S
C789 C788 1.394 . S
C789 C790 1.516 . S
C790 C789 1.516 . S
C790 C791 1.502 1_655 S
C790 C792 1.561 . S
C790 C793 1.526 . S
C791 H775 0.959 . S
C791 H776 0.959 . S
C791 H777 0.961 . S
C791 C790 1.502 1_455 S
C792 H778 0.960 . S
C792 H779 0.961 . S
C792 H780 0.959 . S
C792 C790 1.561 . S
C793 C790 1.526 . S
C793 C794 1.396 . S
C793 C798 1.390 . S
C794 C788 1.465 . S
C794 C793 1.396 . S
C794 C795 1.399 . S
C795 H781 0.929 . S
C795 C794 1.399 . S
C795 C796 1.385 . S
C796 H782 0.931 . S
C796 C795 1.385 . S
C796 C797 1.389 . S
C797 C796 1.389 . S
C797 C798 1.387 . S
C798 H783 0.930 . S
C798 C793 1.390 . S
C798 C797 1.387 . S
H799 C811 0.930 . S
H800 C813 0.930 . S
H801 C814 0.930 . S
H802 C818 0.959 . S
H803 C818 0.959 . S
H804 C818 0.961 . S
H805 C819 0.960 . S
H806 C819 0.961 . S
H807 C819 0.959 . S
H808 C822 0.929 . S
H809 C823 0.931 . S
H810 C825 0.930 . S
C811 H799 0.930 . S
C811 C812 1.399 . S
C811 C816 1.399 . S
C812 C811 1.399 . S
C812 C813 1.376 1_565 S
C813 H800 0.930 . S
C813 C812 1.376 1_545 S
C813 C814 1.388 . S
C814 H801 0.930 . S
C814 C813 1.388 . S
C814 C815 1.390 1_545 S
C815 C814 1.390 1_565 S
C815 C816 1.394 . S
C815 C821 1.465 . S
C816 C811 1.399 . S
C816 C815 1.394 . S
C816 C817 1.516 . S
C817 C816 1.516 . S
C817 C818 1.502 . S
C817 C819 1.561 . S
C817 C820 1.526 . S
C818 H802 0.959 . S
C818 H803 0.959 . S
C818 H804 0.961 . S
C818 C817 1.502 . S
C819 H805 0.960 . S
C819 H806 0.961 . S
C819 H807 0.959 . S
C819 C817 1.561 . S
C820 C817 1.526 . S
C820 C821 1.396 . S
C820 C825 1.390 . S
C821 C815 1.465 . S
C821 C820 1.396 . S
C821 C822 1.399 1_565 S
C822 H808 0.929 . S
C822 C821 1.399 1_545 S
C822 C823 1.385 . S
C823 H809 0.931 . S
C823 C822 1.385 . S
C823 C824 1.389 1_545 S
C824 C823 1.389 1_565 S
C824 C825 1.387 . S
C825 H810 0.930 . S
C825 C820 1.390 . S
C825 C824 1.387 . S
H826 C838 0.930 . S
H827 C840 0.930 . S
H828 C841 0.930 . S
H829 C845 0.959 . S
H830 C845 0.959 . S
H831 C845 0.961 . S
H832 C846 0.960 . S
H833 C846 0.961 . S
H834 C846 0.959 . S
H835 C849 0.929 . S
H836 C850 0.931 . S
H837 C852 0.930 . S
C838 H826 0.930 . S
C838 C839 1.399 . S
C838 C843 1.399 . S
C839 C838 1.399 . S
C839 C840 1.376 . S
C840 H827 0.930 . S
C840 C839 1.376 . S
C840 C841 1.388 . S
C841 H828 0.930 . S
C841 C840 1.388 . S
C841 C842 1.390 . S
C842 C841 1.390 . S
C842 C843 1.394 . S
C842 C848 1.465 . S
C843 C838 1.399 . S
C843 C842 1.394 . S
C843 C844 1.516 . S
C844 C843 1.516 . S
C844 C845 1.502 . S
C844 C846 1.561 . S
C844 C847 1.526 . S
C845 H829 0.959 . S
C845 H830 0.959 . S
C845 H831 0.961 . S
C845 C844 1.502 . S
C846 H832 0.960 . S
C846 H833 0.961 . S
C846 H834 0.959 . S
C846 C844 1.561 . S
C847 C844 1.526 . S
C847 C848 1.396 . S
C847 C852 1.390 . S
C848 C842 1.465 . S
C848 C847 1.396 . S
C848 C849 1.399 . S
C849 H835 0.929 . S
C849 C848 1.399 . S
C849 C850 1.385 . S
C850 H836 0.931 . S
C850 C849 1.385 . S
C850 C851 1.389 . S
C851 C850 1.389 . S
C851 C852 1.387 . S
C852 H837 0.930 . S
C852 C847 1.390 . S
C852 C851 1.387 . S
H853 C865 0.930 . S
H854 C867 0.930 . S
H855 C868 0.930 . S
H856 C872 0.959 . S
H857 C872 0.959 . S
H858 C872 0.961 . S
H859 C873 0.960 . S
H860 C873 0.961 . S
H861 C873 0.959 . S
H862 C876 0.929 . S
H863 C877 0.931 . S
H864 C879 0.930 . S
C865 H853 0.930 . S
C865 C866 1.399 . S
C865 C870 1.399 . S
C866 C865 1.399 . S
C866 C867 1.376 . S
C867 H854 0.930 . S
C867 C866 1.376 . S
C867 C868 1.388 . S
C868 H855 0.930 . S
C868 C867 1.388 . S
C868 C869 1.390 . S
C869 C868 1.390 . S
C869 C870 1.394 . S
C869 C875 1.465 . S
C870 C865 1.399 . S
C870 C869 1.394 . S
C870 C871 1.516 . S
C871 C870 1.516 . S
C871 C872 1.502 . S
C871 C873 1.561 . S
C871 C874 1.526 . S
C872 H856 0.959 . S
C872 H857 0.959 . S
C872 H858 0.961 . S
C872 C871 1.502 . S
C873 H859 0.960 . S
C873 H860 0.961 . S
C873 H861 0.959 . S
C873 C871 1.561 . S
C874 C871 1.526 . S
C874 C875 1.396 . S
C874 C879 1.390 . S
C875 C869 1.465 . S
C875 C874 1.396 . S
C875 C876 1.399 . S
C876 H862 0.929 . S
C876 C875 1.399 . S
C876 C877 1.385 . S
C877 H863 0.931 . S
C877 C876 1.385 . S
C877 C878 1.389 . S
C878 C877 1.389 . S
C878 C879 1.387 . S
C879 H864 0.930 . S
C879 C874 1.390 . S
C879 C878 1.387 . S
C245 C61 2.114 . S
C257 C103 2.306 . S
C284 C129 1.883 . S
C272 C70 1.741 . S
C311 C169 1.920 . S
C299 C43 1.803 . S
C338 C223 2.316 . S
C326 C52 2.216 . S
C365 C84 2.296 . S
C353 C25 2.169 . S
C380 C34 1.682 . S
C392 C114 1.887 . S
C407 C7 1.758 . S
C419 C154 1.920 . S
C434 C16 2.188 . S
C446 C204 2.336 . S
C473 C80 0.529 . S
C461 C50 0.338 . S
C500 C141 0.738 . S
C488 C59 0.591 . S
C527 C181 0.477 . S
C515 C67 0.502 . S
C542 C41 0.499 . S
C554 C200 0.204 . S
C569 C14 0.551 . S
C581 C101 0.362 . S
C608 C120 0.646 . S
C596 C23 0.694 . S
C635 C160 0.452 . S
C623 C31 0.543 . S
C650 C5 0.229 . S
C662 C221 0.456 . S
C677 C49 1.872 . S
C689 C74 2.054 . S
C704 C58 2.388 . S
C716 C124 2.574 . S
C743 C164 2.399 . S
C731 C68 2.229 . S
C770 C194 1.859 . S
C758 C40 1.608 . S
C785 C13 1.864 . S
C797 C89 2.054 . S
C824 C143 2.561 . S
C812 C22 2.375 . S
C851 C183 2.411 . S
C839 C32 2.210 . S
C866 C4 1.695 . S
C878 C209 1.856 . S
