# Generated by pormake.
# Topology tsx, (6,3)-cn, num edge types: 1
# Building blocks:
#     Node 0, Type 0, BuildingBlock: FUNLAD_clean_sbu_0, # of connection points: 6
#     Node 1, Type 0, BuildingBlock: FUNLAD_clean_sbu_0, # of connection points: 6
#     Node 2, Type 1, BuildingBlock: BELTOD_clean_linker_0, # of connection points: 3
#     Node 3, Type 1, BuildingBlock: BELTOD_clean_linker_0, # of connection points: 3
#     Node 4, Type 1, BuildingBlock: BELTOD_clean_linker_0, # of connection points: 3
#     Node 5, Type 1, BuildingBlock: BELTOD_clean_linker_0, # of connection points: 3
#     Edge 6, Type (0, 1), BuildingBlock: AJUNOK_clean_linker_0, # of connection points: 2
#     Edge 7, Type (0, 1), BuildingBlock: AJUNOK_clean_linker_0, # of connection points: 2
#     Edge 8, Type (0, 1), BuildingBlock: AJUNOK_clean_linker_0, # of connection points: 2
#     Edge 9, Type (0, 1), BuildingBlock: AJUNOK_clean_linker_0, # of connection points: 2
#     Edge 10, Type (0, 1), BuildingBlock: AJUNOK_clean_linker_0, # of connection points: 2
#     Edge 11, Type (0, 1), BuildingBlock: AJUNOK_clean_linker_0, # of connection points: 2
#     Edge 12, Type (0, 1), BuildingBlock: AJUNOK_clean_linker_0, # of connection points: 2
#     Edge 13, Type (0, 1), BuildingBlock: AJUNOK_clean_linker_0, # of connection points: 2
#     Edge 14, Type (0, 1), BuildingBlock: AJUNOK_clean_linker_0, # of connection points: 2
#     Edge 15, Type (0, 1), BuildingBlock: AJUNOK_clean_linker_0, # of connection points: 2
#     Edge 16, Type (0, 1), BuildingBlock: AJUNOK_clean_linker_0, # of connection points: 2
#     Edge 17, Type (0, 1), BuildingBlock: AJUNOK_clean_linker_0, # of connection points: 2
# Relax obj value: 0.151
# Max RMSD: 0.147
# Mean RMSD: 0.068
data_MOF--net-tsx--node1-FUNLAD_clean_sbu_0--node2-BELTOD_clean_linker_0--edge1-AJUNOK_clean_linker_0
_symmetry_space_group_name_H-M    P1
_symmetry_Int_Tables_number       1
_symmetry_cell_setting            triclinic
loop_
_symmetry_equiv_pos_as_xyz
'x, y, z'
_cell_length_a     16.465939
_cell_length_b     18.205027
_cell_length_c     37.374397
_cell_angle_alpha  91.839173
_cell_angle_beta   92.033168
_cell_angle_gamma 89.939705
loop_
_atom_site_label
_atom_site_type_symbol
_atom_site_fract_x
_atom_site_fract_y
_atom_site_fract_z
_atom_type_partial_charge
C0 C 0.84779 0.89588 8e-05 0.0
N1 N 0.96416 0.0209 0.08231 0.0
C2 C 0.89284 0.02159 0.09969 0.0
C3 C 0.89297 0.02934 0.13702 0.0
C4 C 0.96706 0.03776 0.15632 0.0
C5 C 0.03963 0.03667 0.13781 0.0
C6 C 0.03683 0.02767 0.10061 0.0
Zn7 Zn 0.96338 0.01101 0.02776 0.0
C8 C 0.081 0.90032 0.00103 0.0
N9 N 0.96224 0.99234 0.91353 0.0
C10 C 0.89287 0.9813 0.89316 0.0
C11 C 0.03595 0.99516 0.8983 0.0
C12 C 0.04207 0.98665 0.86133 0.0
C13 C 0.97182 0.97444 0.83959 0.0
C14 C 0.89632 0.9719 0.8559 0.0
Zn15 Zn 0.9603 0.00231 0.96822 0.0
O16 O 0.87274 0.92973 0.02856 0.0
C17 C 0.84632 0.11602 0.99335 0.0
O18 O 0.87318 0.91514 0.96998 0.0
H19 H 0.09049 0.00335 0.9149 0.0
H20 H 0.83578 0.01639 0.08459 0.0
H21 H 0.83494 0.97886 0.90584 0.0
O22 O 0.8752 0.09644 0.02362 0.0
O23 O 0.8682 0.08264 0.96492 0.0
H24 H 0.09281 0.02635 0.08633 0.0
O25 O 0.05109 0.08811 0.96827 0.0
O26 O 0.05366 0.09096 0.0269 0.0
O27 O 0.05152 0.92353 0.97172 0.0
O28 O 0.05504 0.92675 0.03043 0.0
C29 C 0.08021 0.11438 -0.00202 0.0
H30 H 0.83595 0.02985 0.15062 0.0
H31 H 0.0979 0.04207 0.15205 0.0
H32 H 0.10143 0.98952 0.84985 0.0
H33 H 0.84082 0.96127 0.84019 0.0
C34 C 0.40185 0.38068 0.50964 0.0
N35 N 0.51406 0.52879 0.58225 0.0
C36 C 0.44342 0.53157 0.60007 0.0
C37 C 0.44467 0.54597 0.63696 0.0
C38 C 0.51934 0.55729 0.6555 0.0
C39 C 0.59123 0.55424 0.6365 0.0
C40 C 0.58718 0.54012 0.59962 0.0
Zn41 Zn 0.51071 0.50699 0.52864 0.0
C42 C 0.63253 0.3969 0.5068 0.0
N43 N 0.50036 0.46151 0.41632 0.0
C44 C 0.42983 0.45269 0.39654 0.0
C45 C 0.57373 0.45925 0.4007 0.0
C46 C 0.57828 0.44904 0.36379 0.0
C47 C 0.50671 0.44101 0.34261 0.0
C48 C 0.43163 0.44228 0.35932 0.0
Zn49 Zn 0.50121 0.48272 0.47019 0.0
O50 O 0.43317 0.41911 0.53542 0.0
C51 C 0.37924 0.59225 0.49138 0.0
O52 O 0.41623 0.39662 0.47756 0.0
H53 H 0.62907 0.46647 0.41687 0.0
H54 H 0.38605 0.52203 0.5857 0.0
H55 H 0.3722 0.455 0.40955 0.0
O56 O 0.41096 0.57965 0.52208 0.0
O57 O 0.40599 0.55872 0.46392 0.0
H58 H 0.64249 0.53791 0.58487 0.0
O59 O 0.58838 0.56954 0.46405 0.0
O60 O 0.58823 0.59419 0.52184 0.0
O61 O 0.59533 0.40632 0.47701 0.0
O62 O 0.61193 0.43422 0.53432 0.0
C63 C 0.61265 0.60869 0.49112 0.0
H64 H 0.38815 0.54678 0.65095 0.0
H65 H 0.64987 0.56283 0.65005 0.0
H66 H 0.6373 0.44791 0.35185 0.0
H67 H 0.37508 0.43724 0.34374 0.0
P68 P 0.09939 0.0781 0.42775 0.0
H69 H 0.08178 0.23282 0.44805 0.0
H70 H 0.97573 0.30102 0.47852 0.0
H71 H 0.85425 0.09751 0.4991 0.0
H72 H 0.96141 0.02909 0.46905 0.0
H73 H 0.25372 0.03213 0.46005 0.0
H74 H 0.3058 0.91314 0.47799 0.0
H75 H 0.07086 0.81526 0.45323 0.0
H76 H 0.01952 0.93459 0.43384 0.0
H77 H 0.98579 0.16662 0.38533 0.0
H78 H 0.11817 0.96337 0.37181 0.0
O79 O 0.18077 0.13087 0.42285 0.0
H80 H 0.94149 0.15886 0.32207 0.0
H81 H 0.07268 0.95506 0.30893 0.0
C82 C 0.03043 0.12567 0.4567 0.0
C83 C 0.03431 0.20246 0.46037 0.0
C84 C 0.97374 0.24151 0.47791 0.0
C85 C 0.90741 0.20439 0.49148 0.0
C86 C 0.9053 0.12724 0.48914 0.0
C87 C 0.96649 0.08814 0.47187 0.0
C88 C 0.1328 0.99224 0.44563 0.0
C89 C 0.213 0.9854 0.45871 0.0
C90 C 0.24267 0.91736 0.46909 0.0
C91 C 0.19241 0.85501 0.46687 0.0
C92 C 0.11105 0.86239 0.45492 0.0
C93 C 0.08147 0.93065 0.4443 0.0
C94 C 0.05361 0.06461 0.38363 0.0
C95 C 0.00341 0.11928 0.36914 0.0
C96 C 0.97849 0.11513 0.333 0.0
C97 C 0.00369 0.0563 0.31086 0.0
C98 C 0.05166 0.00041 0.32566 0.0
C99 C 0.07736 0.00505 0.36166 0.0
P100 P 0.10383 0.90127 0.57087 0.0
H101 H 0.07383 0.75371 0.54088 0.0
H102 H 0.95569 0.69728 0.51031 0.0
H103 H 0.84147 0.91011 0.5032 0.0
H104 H 0.95776 0.96598 0.53524 0.0
H105 H 0.27122 0.93633 0.55522 0.0
H106 H 0.33796 0.04939 0.53929 0.0
H107 H 0.10767 0.1625 0.53914 0.0
H108 H 0.04123 0.05009 0.5567 0.0
H109 H 0.94475 0.88665 0.60516 0.0
H110 H 0.18902 0.95649 0.63478 0.0
O111 O 0.17552 0.83705 0.57532 0.0
H112 H 0.90599 0.90419 0.6677 0.0
H113 H 0.15063 0.97345 0.69707 0.0
C114 C 0.02503 0.86433 0.54078 0.0
C115 C 0.02429 0.78877 0.53222 0.0
C116 C 0.95692 0.75648 0.51435 0.0
C117 C 0.88897 0.79923 0.50488 0.0
C118 C 0.89266 0.87576 0.51071 0.0
C119 C 0.95979 0.90793 0.52891 0.0
C120 C 0.15023 0.98323 0.55538 0.0
C121 C 0.23437 0.98465 0.55104 0.0
C122 C 0.27273 0.04941 0.54221 0.0
C123 C 0.22753 0.11396 0.53776 0.0
C124 C 0.14325 0.11274 0.54176 0.0
C125 C 0.10508 0.04804 0.55121 0.0
C126 C 0.06978 0.92073 0.61534 0.0
C127 C 0.9897 0.90674 0.62489 0.0
C128 C 0.96752 0.9168 0.66058 0.0
C129 C 0.02546 0.94007 0.68706 0.0
C130 C 0.10501 0.95514 0.67716 0.0
C131 C 0.12683 0.94576 0.64161 0.0
P132 P 0.59641 0.6229 0.93116 0.0
H133 H 0.56558 0.754 0.97592 0.0
H134 H 0.44161 0.80728 -0.00075 0.0
H135 H 0.30509 0.61971 0.95669 0.0
H136 H 0.42882 0.56837 0.93178 0.0
H137 H 0.75818 0.56049 0.93192 0.0
H138 H 0.81383 0.44203 0.94953 0.0
H139 H 0.57358 0.37046 0.97455 0.0
H140 H 0.51934 0.49076 0.95998 0.0
H141 H 0.59931 0.72789 0.87401 0.0
H142 H 0.53859 0.49931 0.88489 0.0
O143 O 0.67001 0.68546 0.93734 0.0
H144 H 0.57405 0.71495 0.80907 0.0
H145 H 0.51331 0.48633 0.82022 0.0
C146 C 0.50702 0.65614 0.95286 0.0
C147 C 0.50937 0.72349 0.97217 0.0
C148 C 0.43848 0.75357 0.98595 0.0
C149 C 0.36373 0.71702 0.98044 0.0
C150 C 0.36196 0.64874 0.96171 0.0
C151 C 0.43284 0.61897 0.94774 0.0
C152 C 0.63538 0.53625 0.94635 0.0
C153 C 0.71802 0.5205 0.94275 0.0
C154 C 0.74961 0.45251 0.95249 0.0
C155 C 0.69835 0.39784 0.96477 0.0
C156 C 0.61481 0.41232 0.96647 0.0
C157 C 0.5837 0.48128 0.95788 0.0
C158 C 0.57298 0.6141 0.88403 0.0
C159 C 0.58032 0.67509 0.86245 0.0
C160 C 0.56521 0.66786 0.8255 0.0
C161 C 0.54198 0.5996 0.80984 0.0
C162 C 0.53188 0.53932 0.83175 0.0
C163 C 0.5466 0.5467 0.86865 0.0
P164 P 0.60552 0.39406 0.06956 0.0
H165 H 0.57023 0.26323 0.024 0.0
H166 H 0.4432 0.20819 0.00081 0.0
H167 H 0.31046 0.39429 0.04316 0.0
H168 H 0.4374 0.44775 0.0676 0.0
H169 H 0.76821 0.45481 0.06823 0.0
H170 H 0.82226 0.57155 0.04917 0.0
H171 H 0.57844 0.64542 0.02452 0.0
H172 H 0.52522 0.52702 0.04098 0.0
H173 H 0.61279 0.28881 0.12665 0.0
H174 H 0.54859 0.51682 0.11491 0.0
O175 O 0.67853 0.33129 0.06446 0.0
H176 H 0.58246 0.29873 0.1903 0.0
H177 H 0.51712 0.52667 0.17828 0.0
C178 C 0.51376 0.36055 0.04691 0.0
C179 C 0.5141 0.29309 0.02768 0.0
C180 C 0.44139 0.26193 0.01405 0.0
C181 C 0.36685 0.29743 0.01967 0.0
C182 C 0.36702 0.36598 0.03813 0.0
C183 C 0.43974 0.39696 0.05183 0.0
C184 C 0.64304 0.48037 0.05436 0.0
C185 C 0.72657 0.49501 0.05731 0.0
C186 C 0.75738 0.56202 0.0466 0.0
C187 C 0.70476 0.6168 0.03376 0.0
C188 C 0.62066 0.60353 0.03291 0.0
C189 C 0.5901 0.53562 0.0426 0.0
C190 C 0.58497 0.40254 0.11634 0.0
C191 C 0.59239 0.34101 0.13779 0.0
C192 C 0.57405 0.34645 0.17399 0.0
C193 C 0.54699 0.41338 0.18908 0.0
C194 C 0.53833 0.47458 0.16731 0.0
C195 C 0.55666 0.46905 0.13115 0.0
C196 C 0.16231 0.20917 0.0323 0.0
C197 C 0.14744 0.16862 2e-05 0.0
C198 C 0.23143 0.25325 0.03759 0.0
C199 C 0.28896 0.25856 0.0109 0.0
H200 H 0.12142 0.20517 0.05424 0.0
H201 H 0.24166 0.28067 0.06352 0.0
S202 S 0.275 0.1696 0.92017 0.0
N203 N 0.19313 0.14091 0.93989 0.0
N204 N 0.32343 0.22437 0.94987 0.0
C205 C 0.27313 0.22123 0.97782 0.0
C206 C 0.20215 0.17639 0.97231 0.0
C207 C 0.15637 0.80336 0.9678 0.0
C208 C 0.14725 0.84542 -0.00033 0.0
C209 C 0.22456 0.75908 0.96276 0.0
C210 C 0.28677 0.75496 0.98934 0.0
H211 H 0.1117 0.80654 0.9459 0.0
H212 H 0.23039 0.73084 0.93701 0.0
S213 S 0.28807 0.84718 0.07936 0.0
N214 N 0.20289 0.87533 0.0595 0.0
N215 N 0.33148 0.79115 0.05009 0.0
C216 C 0.27645 0.79334 0.02219 0.0
C217 C 0.20645 0.83853 0.0274 0.0
C218 C 0.7373 0.82281 0.02614 0.0
C219 C 0.80321 0.82635 0.00336 0.0
C220 C 0.70395 0.75495 0.03485 0.0
C221 C 0.73736 0.68818 0.02216 0.0
H222 H 0.71269 0.87279 0.03798 0.0
H223 H 0.65382 0.75472 0.05284 0.0
S224 S 0.91129 0.66837 0.962 0.0
N225 N 0.89979 0.75802 0.96774 0.0
N226 N 0.84017 0.63055 0.98543 0.0
C227 C 0.8031 0.69134 -0.00083 0.0
C228 C 0.83512 0.76039 0.98937 0.0
C229 C 0.7334 0.19134 0.96691 0.0
C230 C 0.80156 0.18584 0.99039 0.0
C231 C 0.69816 0.25994 0.95983 0.0
C232 C 0.73195 0.32539 0.97494 0.0
H233 H 0.70819 0.14249 0.95345 0.0
H234 H 0.64623 0.26203 0.94127 0.0
S235 S 0.91127 0.34008 0.03772 0.0
N236 N 0.90058 0.251 0.02923 0.0
N237 N 0.83725 0.37987 0.01452 0.0
C238 C 0.79982 0.32025 -0.00138 0.0
C239 C 0.83385 0.25046 0.00673 0.0
C240 C 0.73948 0.65746 0.4658 0.0
C241 C 0.67346 0.66731 0.48829 0.0
C242 C 0.80755 0.7039 0.46939 0.0
C243 C 0.81086 0.76212 0.49515 0.0
H244 H 0.74118 0.61062 0.44721 0.0
H245 H 0.85959 0.69193 0.45325 0.0
S246 S 0.64827 0.81604 0.55712 0.0
N247 N 0.61148 0.74361 0.53435 0.0
N248 N 0.73898 0.83044 0.54129 0.0
C249 C 0.74225 0.77573 0.51573 0.0
C250 C 0.6736 0.72835 0.51225 0.0
C251 C 0.6949 0.28037 0.48536 0.0
C252 C 0.69919 0.34289 0.50842 0.0
C253 C 0.76106 0.2328 0.48217 0.0
C254 C 0.83445 0.24663 0.50151 0.0
H255 H 0.64073 0.2693 0.46875 0.0
H256 H 0.75626 0.18728 0.4628 0.0
S257 S 0.87485 0.39941 0.56767 0.0
N258 N 0.7804 0.41325 0.55297 0.0
N259 N 0.90609 0.32421 0.54634 0.0
C260 C 0.83845 0.30696 0.52595 0.0
C261 C 0.77033 0.35492 0.52965 0.0
C262 C 0.29452 0.28694 0.49335 0.0
C263 C 0.35519 0.31445 0.51756 0.0
C264 C 0.25164 0.22285 0.50052 0.0
C265 C 0.26962 0.18347 0.53148 0.0
H266 H 0.2799 0.3152 0.46887 0.0
H267 H 0.20531 0.2031 0.4815 0.0
S268 S 0.42216 0.23235 0.60348 0.0
N269 N 0.43006 0.29766 0.57417 0.0
N270 N 0.35011 0.17678 0.58693 0.0
C271 C 0.32954 0.21054 0.55597 0.0
C272 C 0.3722 0.27618 0.54914 0.0
C273 C 0.31985 0.71055 0.51286 0.0
C274 C 0.31964 0.65232 0.48723 0.0
C275 C 0.27551 0.77468 0.5067 0.0
C276 C 0.22758 0.78239 0.4752 0.0
H277 H 0.3584 0.70863 0.53692 0.0
H278 H 0.28161 0.81978 0.5261 0.0
S279 S 0.19989 0.64298 0.40123 0.0
N280 N 0.26317 0.6041 0.43021 0.0
N281 N 0.17847 0.72465 0.41899 0.0
C282 C 0.22275 0.72284 0.45033 0.0
C283 C 0.26912 0.6578 0.45628 0.0
C284 C 0.93948 0.99082 0.21676 0.0
C285 C 0.96943 0.04672 0.19574 0.0
C286 C 0.94873 0.99505 0.25422 0.0
C287 C 0.9867 0.05601 0.27176 0.0
H288 H 0.91141 0.94238 0.20408 0.0
H289 H 0.92729 0.94991 0.26956 0.0
S290 S 0.0715 0.21837 0.22873 0.0
N291 N 0.03574 0.1657 0.19497 0.0
N292 N 0.05224 0.17423 0.26541 0.0
C293 C 0.01425 0.11336 0.25104 0.0
C294 C 0.00589 0.10854 0.21298 0.0
C295 C 0.04018 0.91581 0.78728 0.0
C296 C 0.97901 0.96259 0.80027 0.0
C297 C 0.05326 0.9077 0.75058 0.0
C298 C 0.0053 0.94553 0.72536 0.0
H299 H 0.07898 0.88571 0.80568 0.0
H300 H 0.1019 0.87198 0.74186 0.0
S301 S 0.83702 0.07422 0.74503 0.0
N302 N 0.86972 0.04716 0.78478 0.0
N303 N 0.89369 0.03062 0.71556 0.0
C304 C 0.94245 0.99083 0.73772 0.0
C305 C 0.92941 -0.00038 0.77523 0.0
C306 C 0.57305 0.52415 0.71593 0.0
C307 C 0.52296 0.56927 0.69477 0.0
C308 C 0.57786 0.53394 0.75319 0.0
C309 C 0.53341 0.58968 0.77053 0.0
H310 H 0.60835 0.48061 0.70357 0.0
H311 H 0.61757 0.49828 0.76853 0.0
S312 S 0.39354 0.72244 0.72725 0.0
N313 N 0.42806 0.67164 0.69366 0.0
N314 N 0.43719 0.69011 0.76399 0.0
C315 C 0.48309 0.63522 0.74974 0.0
C316 C 0.47766 0.62485 0.71176 0.0
C317 C 0.55918 0.48487 0.28533 0.0
C318 C 0.51162 0.43444 0.30317 0.0
C319 C 0.56889 0.47826 0.24835 0.0
C320 C 0.53183 0.42069 0.22784 0.0
H321 H 0.58955 0.52967 0.30014 0.0
H322 H 0.60725 0.51762 0.23585 0.0
S323 S 0.39892 0.27567 0.26145 0.0
N324 N 0.42569 0.32591 0.29754 0.0
N325 N 0.44328 0.31385 0.22772 0.0
C326 C 0.48294 0.37056 0.24519 0.0
C327 C 0.47275 0.3775 0.28291 0.0
loop_
_geom_bond_atom_site_label_1
_geom_bond_atom_site_label_2
_geom_bond_distance
_geom_bond_site_symmetry_2
_ccdc_geom_bond_type
C0 O16 1.251 . S
C0 O18 1.254 1_554 S
N1 C2 1.333 1_445 S
N1 C6 1.307 . S
N1 Zn7 2.020 . S
C2 N1 1.333 1_665 S
C2 C3 1.379 . S
C2 H20 0.952 . S
C3 C2 1.379 . S
C3 C4 1.390 1_665 S
C3 H30 0.949 . S
C4 C3 1.390 1_445 S
C4 C5 1.357 . S
C5 C4 1.357 . S
C5 C6 1.370 . S
C5 H31 0.950 . S
C6 N1 1.307 . S
C6 C5 1.370 . S
C6 H24 0.948 . S
Zn7 N1 2.020 . S
Zn7 O16 2.039 1_445 S
Zn7 O22 2.034 1_455 S
Zn7 O26 2.025 . S
Zn7 O28 2.024 1_545 S
C8 O27 1.246 1_554 S
C8 O28 1.249 . S
N9 C10 1.306 1_445 S
N9 C11 1.335 . S
N9 Zn15 2.020 . S
C10 N9 1.306 1_665 S
C10 C14 1.370 . S
C10 H21 0.948 . S
C11 N9 1.335 . S
C11 C12 1.379 . S
C11 H19 0.952 . S
C12 C11 1.379 . S
C12 C13 1.390 . S
C12 H32 0.949 . S
C13 C12 1.390 . S
C13 C14 1.357 1_445 S
C14 C10 1.370 . S
C14 C13 1.357 1_665 S
C14 H33 0.950 . S
Zn15 N9 2.020 . S
Zn15 O18 2.025 1_445 S
Zn15 O23 2.024 1_455 S
Zn15 O25 2.039 . S
Zn15 O27 2.034 1_545 S
O16 C0 1.251 . S
O16 Zn7 2.039 1_665 S
C17 O22 1.246 . S
C17 O23 1.249 1_554 S
O18 C0 1.254 1_556 S
O18 Zn15 2.025 1_665 S
H19 C11 0.952 . S
H20 C2 0.952 . S
H21 C10 0.948 . S
O22 Zn7 2.034 1_655 S
O22 C17 1.246 . S
O23 Zn15 2.024 1_655 S
O23 C17 1.249 1_556 S
H24 C6 0.948 . S
O25 Zn15 2.039 . S
O25 C29 1.251 1_556 S
O26 Zn7 2.025 . S
O26 C29 1.254 . S
O27 C8 1.246 1_556 S
O27 Zn15 2.034 1_565 S
O28 Zn7 2.024 1_565 S
O28 C8 1.249 . S
C29 O25 1.251 1_554 S
C29 O26 1.254 . S
H30 C3 0.949 . S
H31 C5 0.950 . S
H32 C12 0.949 . S
H33 C14 0.950 . S
C34 O50 1.251 . S
C34 O52 1.254 . S
N35 C36 1.333 . S
N35 C40 1.307 . S
N35 Zn41 2.020 . S
C36 N35 1.333 . S
C36 C37 1.379 . S
C36 H54 0.952 . S
C37 C36 1.379 . S
C37 C38 1.390 . S
C37 H64 0.949 . S
C38 C37 1.390 . S
C38 C39 1.357 . S
C39 C38 1.357 . S
C39 C40 1.370 . S
C39 H65 0.950 . S
C40 N35 1.307 . S
C40 C39 1.370 . S
C40 H58 0.948 . S
Zn41 N35 2.020 . S
Zn41 O50 2.039 . S
Zn41 O56 2.034 . S
Zn41 O60 2.025 . S
Zn41 O62 2.024 . S
C42 O61 1.246 . S
C42 O62 1.249 . S
N43 C44 1.307 . S
N43 C45 1.333 . S
N43 Zn49 2.020 . S
C44 N43 1.307 . S
C44 C48 1.370 . S
C44 H55 0.948 . S
C45 N43 1.333 . S
C45 C46 1.379 . S
C45 H53 0.952 . S
C46 C45 1.379 . S
C46 C47 1.390 . S
C46 H66 0.949 . S
C47 C46 1.390 . S
C47 C48 1.357 . S
C48 C44 1.370 . S
C48 C47 1.357 . S
C48 H67 0.950 . S
Zn49 N43 2.020 . S
Zn49 O52 2.025 . S
Zn49 O57 2.024 . S
Zn49 O59 2.039 . S
Zn49 O61 2.034 . S
O50 C34 1.251 . S
O50 Zn41 2.039 . S
C51 O56 1.246 . S
C51 O57 1.249 . S
O52 C34 1.254 . S
O52 Zn49 2.025 . S
H53 C45 0.952 . S
H54 C36 0.952 . S
H55 C44 0.948 . S
O56 Zn41 2.034 . S
O56 C51 1.246 . S
O57 Zn49 2.024 . S
O57 C51 1.249 . S
H58 C40 0.948 . S
O59 Zn49 2.039 . S
O59 C63 1.251 . S
O60 Zn41 2.025 . S
O60 C63 1.254 . S
O61 C42 1.246 . S
O61 Zn49 2.034 . S
O62 Zn41 2.024 . S
O62 C42 1.249 . S
C63 O59 1.251 . S
C63 O60 1.254 . S
H64 C37 0.949 . S
H65 C39 0.950 . S
H66 C46 0.949 . S
H67 C48 0.950 . S
P68 O79 1.490 . S
P68 C82 1.812 1_455 S
P68 C88 1.803 1_545 S
P68 C94 1.819 . S
H69 C83 0.941 . S
H70 C84 0.939 . S
H71 C86 0.940 . S
H72 C87 0.940 . S
H73 C89 0.939 . S
H74 C90 0.942 . S
H75 C92 0.940 . S
H76 C93 0.939 . S
H77 C95 0.941 . S
H78 C99 0.939 . S
O79 P68 1.490 . S
H80 C96 0.939 . S
H81 C98 0.940 . S
C82 P68 1.812 1_655 S
C82 C83 1.389 1_655 S
C82 C87 1.391 . S
C83 H69 0.941 . S
C83 C82 1.389 1_455 S
C83 C84 1.397 1_455 S
C84 H70 0.939 . S
C84 C83 1.397 1_655 S
C84 C85 1.378 . S
C85 C84 1.378 . S
C85 C86 1.378 . S
C86 H71 0.940 . S
C86 C85 1.378 . S
C86 C87 1.396 . S
C87 H72 0.940 . S
C87 C82 1.391 . S
C87 C86 1.396 . S
C88 P68 1.803 1_565 S
C88 C89 1.378 . S
C88 C93 1.400 . S
C89 H73 0.939 . S
C89 C88 1.378 . S
C89 C90 1.361 . S
C90 H74 0.942 . S
C90 C89 1.361 . S
C90 C91 1.369 . S
C91 C90 1.369 . S
C91 C92 1.404 . S
C92 H75 0.940 . S
C92 C91 1.404 . S
C92 C93 1.389 . S
C93 H76 0.939 . S
C93 C88 1.400 . S
C93 C92 1.389 . S
C94 P68 1.819 . S
C94 C95 1.391 . S
C94 C99 1.391 1_545 S
C95 H77 0.941 . S
C95 C94 1.391 . S
C95 C96 1.396 . S
C96 H80 0.939 . S
C96 C95 1.396 . S
C96 C97 1.397 . S
C97 C96 1.397 . S
C97 C98 1.385 1_545 S
C98 H81 0.940 . S
C98 C97 1.385 1_565 S
C98 C99 1.388 . S
C99 H78 0.939 . S
C99 C94 1.391 1_565 S
C99 C98 1.388 . S
P100 O111 1.490 . S
P100 C114 1.812 . S
P100 C120 1.803 1_565 S
P100 C126 1.819 . S
H101 C115 0.941 . S
H102 C116 0.939 . S
H103 C118 0.940 . S
H104 C119 0.940 . S
H105 C121 0.939 . S
H106 C122 0.942 . S
H107 C124 0.940 . S
H108 C125 0.939 . S
H109 C127 0.941 . S
H110 C131 0.939 . S
O111 P100 1.490 . S
H112 C128 0.939 . S
H113 C130 0.940 . S
C114 P100 1.812 . S
C114 C115 1.389 . S
C114 C119 1.391 1_455 S
C115 H101 0.941 . S
C115 C114 1.389 . S
C115 C116 1.397 1_455 S
C116 H102 0.939 . S
C116 C115 1.397 1_655 S
C116 C117 1.378 . S
C117 C116 1.378 . S
C117 C118 1.378 . S
C118 H103 0.940 . S
C118 C117 1.378 . S
C118 C119 1.396 . S
C119 H104 0.940 . S
C119 C114 1.391 1_655 S
C119 C118 1.396 . S
C120 P100 1.803 1_545 S
C120 C121 1.378 . S
C120 C125 1.400 . S
C121 H105 0.939 . S
C121 C120 1.378 . S
C121 C122 1.361 . S
C122 H106 0.942 . S
C122 C121 1.361 . S
C122 C123 1.369 . S
C123 C122 1.369 . S
C123 C124 1.404 . S
C124 H107 0.940 . S
C124 C123 1.404 . S
C124 C125 1.389 . S
C125 H108 0.939 . S
C125 C120 1.400 . S
C125 C124 1.389 . S
C126 P100 1.819 . S
C126 C127 1.391 . S
C126 C131 1.391 1_565 S
C127 H109 0.941 . S
C127 C126 1.391 . S
C127 C128 1.396 . S
C128 H112 0.939 . S
C128 C127 1.396 . S
C128 C129 1.397 . S
C129 C128 1.397 . S
C129 C130 1.385 1_565 S
C130 H113 0.940 . S
C130 C129 1.385 1_545 S
C130 C131 1.388 . S
C131 H110 0.939 . S
C131 C126 1.391 1_545 S
C131 C130 1.388 . S
P132 O143 1.490 . S
P132 C146 1.812 . S
P132 C152 1.803 . S
P132 C158 1.819 . S
H133 C147 0.941 1_554 S
H134 C148 0.939 . S
H135 C150 0.940 . S
H136 C151 0.940 . S
H137 C153 0.939 . S
H138 C154 0.942 . S
H139 C156 0.940 . S
H140 C157 0.939 . S
H141 C159 0.941 . S
H142 C163 0.939 . S
O143 P132 1.490 . S
H144 C160 0.939 . S
H145 C162 0.940 . S
C146 P132 1.812 . S
C146 C147 1.389 . S
C146 C151 1.391 . S
C147 H133 0.941 1_556 S
C147 C146 1.389 . S
C147 C148 1.397 1_556 S
C148 H134 0.939 . S
C148 C147 1.397 1_554 S
C148 C149 1.378 . S
C149 C148 1.378 . S
C149 C150 1.378 1_554 S
C150 H135 0.940 . S
C150 C149 1.378 1_556 S
C150 C151 1.396 . S
C151 H136 0.940 . S
C151 C146 1.391 . S
C151 C150 1.396 . S
C152 P132 1.803 . S
C152 C153 1.378 . S
C152 C157 1.400 . S
C153 H137 0.939 . S
C153 C152 1.378 . S
C153 C154 1.361 . S
C154 H138 0.942 . S
C154 C153 1.361 . S
C154 C155 1.369 1_556 S
C155 C154 1.369 1_554 S
C155 C156 1.404 . S
C156 H139 0.940 . S
C156 C155 1.404 . S
C156 C157 1.389 1_554 S
C157 H140 0.939 . S
C157 C152 1.400 . S
C157 C156 1.389 1_556 S
C158 P132 1.819 . S
C158 C159 1.391 . S
C158 C163 1.391 . S
C159 H141 0.941 . S
C159 C158 1.391 . S
C159 C160 1.396 . S
C160 H144 0.939 . S
C160 C159 1.396 . S
C160 C161 1.397 . S
C161 C160 1.397 . S
C161 C162 1.385 . S
C162 H145 0.940 . S
C162 C161 1.385 . S
C162 C163 1.388 . S
C163 H142 0.939 . S
C163 C158 1.391 . S
C163 C162 1.388 . S
P164 O175 1.490 . S
P164 C178 1.812 . S
P164 C184 1.803 . S
P164 C190 1.819 . S
H165 C179 0.941 . S
H166 C180 0.939 . S
H167 C182 0.940 . S
H168 C183 0.940 . S
H169 C185 0.939 . S
H170 C186 0.942 . S
H171 C188 0.933 1_556 S
H172 C189 0.939 . S
H173 C191 0.941 . S
H174 C195 0.939 . S
O175 P164 1.490 . S
H176 C192 0.939 . S
H177 C194 0.940 . S
C178 P164 1.812 . S
C178 C179 1.389 . S
C178 C183 1.391 . S
C179 H165 0.941 . S
C179 C178 1.389 . S
C179 C180 1.397 1_554 S
C180 H166 0.939 . S
C180 C179 1.397 1_556 S
C180 C181 1.378 1_556 S
C181 C180 1.378 1_554 S
C181 C182 1.378 . S
C182 H167 0.940 . S
C182 C181 1.378 . S
C182 C183 1.396 . S
C183 H168 0.940 . S
C183 C178 1.391 . S
C183 C182 1.396 . S
C184 P164 1.803 . S
C184 C185 1.378 . S
C184 C189 1.400 . S
C185 H169 0.939 . S
C185 C184 1.378 . S
C185 C186 1.361 . S
C186 H170 0.942 . S
C186 C185 1.361 . S
C186 C187 1.369 . S
C187 C186 1.369 . S
C187 C188 1.404 . S
C188 H171 0.933 1_554 S
C188 C187 1.404 . S
C188 C189 1.389 . S
C189 H172 0.939 . S
C189 C184 1.400 . S
C189 C188 1.389 . S
C190 P164 1.819 . S
C190 C191 1.391 . S
C190 C195 1.391 . S
C191 H173 0.941 . S
C191 C190 1.391 . S
C191 C192 1.396 . S
C192 H176 0.939 . S
C192 C191 1.396 . S
C192 C193 1.397 . S
C193 C192 1.397 . S
C193 C194 1.385 . S
C194 H177 0.940 . S
C194 C193 1.385 . S
C194 C195 1.388 . S
C195 H174 0.939 . S
C195 C190 1.391 . S
C195 C194 1.388 . S
C196 C197 1.369 . S
C196 C198 1.419 . S
C196 H200 0.930 . S
C197 C196 1.369 . S
C197 C206 1.429 1_554 S
C198 C196 1.419 . S
C198 C199 1.354 1_554 S
C198 H201 0.929 . S
C199 C198 1.354 1_556 S
C199 C205 1.436 . S
H200 C196 0.930 . S
H201 C198 0.929 . S
S202 N203 1.613 . S
S202 N204 1.610 . S
N203 S202 1.613 . S
N203 C206 1.350 . S
N204 S202 1.610 . S
N204 C205 1.351 . S
C205 C199 1.436 . S
C205 N204 1.351 . S
C205 C206 1.434 . S
C206 C197 1.429 1_556 S
C206 N203 1.350 . S
C206 C205 1.434 . S
C207 C208 1.369 1_556 S
C207 C209 1.419 . S
C207 H211 0.930 . S
C208 C207 1.369 1_554 S
C208 C217 1.429 . S
C209 C207 1.419 . S
C209 C210 1.363 1_556 S
C209 H212 0.929 . S
C210 C209 1.363 1_554 S
C210 C216 1.428 . S
H211 C207 0.930 . S
H212 C209 0.929 . S
S213 N214 1.613 . S
S213 N215 1.610 . S
N214 S213 1.613 . S
N214 C217 1.350 . S
N215 S213 1.610 . S
N215 C216 1.351 . S
C216 C210 1.428 . S
C216 N215 1.351 . S
C216 C217 1.434 . S
C217 C208 1.429 . S
C217 N214 1.350 . S
C217 C216 1.434 . S
C218 C219 1.369 . S
C218 C220 1.419 . S
C218 H222 0.930 . S
C219 C218 1.369 . S
C219 C228 1.429 1_554 S
C220 C218 1.419 . S
C220 C221 1.389 . S
C220 H223 0.929 . S
C221 C220 1.389 . S
C221 C227 1.402 1_554 S
H222 C218 0.930 . S
H223 C220 0.929 . S
S224 N225 1.613 . S
S224 N226 1.610 . S
N225 S224 1.613 . S
N225 C228 1.350 . S
N226 S224 1.610 . S
N226 C227 1.351 . S
C227 C221 1.402 1_556 S
C227 N226 1.351 . S
C227 C228 1.434 . S
C228 C219 1.429 1_556 S
C228 N225 1.350 . S
C228 C227 1.434 . S
C229 C230 1.369 . S
C229 C231 1.419 . S
C229 H233 0.930 1_554 S
C230 C229 1.369 . S
C230 C239 1.429 . S
C231 C229 1.419 . S
C231 C232 1.363 . S
C231 H234 0.929 1_554 S
C232 C231 1.363 . S
C232 C238 1.428 . S
H233 C229 0.930 1_556 S
H234 C231 0.929 1_556 S
S235 N236 1.613 . S
S235 N237 1.610 . S
N236 S235 1.613 . S
N236 C239 1.350 . S
N237 S235 1.610 . S
N237 C238 1.351 . S
C238 C232 1.428 . S
C238 N237 1.351 . S
C238 C239 1.434 . S
C239 C230 1.429 . S
C239 N236 1.350 . S
C239 C238 1.434 . S
C240 C241 1.369 . S
C240 C242 1.419 . S
C240 H244 0.930 . S
C241 C240 1.369 . S
C241 C250 1.429 . S
C242 C240 1.419 . S
C242 C243 1.363 . S
C242 H245 0.929 . S
C243 C242 1.363 . S
C243 C249 1.428 . S
H244 C240 0.930 . S
H245 C242 0.929 . S
S246 N247 1.613 . S
S246 N248 1.610 . S
N247 S246 1.613 . S
N247 C250 1.350 . S
N248 S246 1.610 . S
N248 C249 1.351 . S
C249 C243 1.428 . S
C249 N248 1.351 . S
C249 C250 1.434 . S
C250 C241 1.429 . S
C250 N247 1.350 . S
C250 C249 1.434 . S
C251 C252 1.369 . S
C251 C253 1.419 . S
C251 H255 0.930 . S
C252 C251 1.369 . S
C252 C261 1.429 . S
C253 C251 1.419 . S
C253 C254 1.363 . S
C253 H256 0.929 . S
C254 C253 1.363 . S
C254 C260 1.428 . S
H255 C251 0.930 . S
H256 C253 0.929 . S
S257 N258 1.613 . S
S257 N259 1.610 . S
N258 S257 1.613 . S
N258 C261 1.350 . S
N259 S257 1.610 . S
N259 C260 1.351 . S
C260 C254 1.428 . S
C260 N259 1.351 . S
C260 C261 1.434 . S
C261 C252 1.429 . S
C261 N258 1.350 . S
C261 C260 1.434 . S
C262 C263 1.369 . S
C262 C264 1.419 . S
C262 H266 0.930 . S
C263 C262 1.369 . S
C263 C272 1.429 . S
C264 C262 1.419 . S
C264 C265 1.363 . S
C264 H267 0.929 . S
C265 C264 1.363 . S
C265 C271 1.428 . S
H266 C262 0.930 . S
H267 C264 0.929 . S
S268 N269 1.613 . S
S268 N270 1.610 . S
N269 S268 1.613 . S
N269 C272 1.350 . S
N270 S268 1.610 . S
N270 C271 1.351 . S
C271 C265 1.428 . S
C271 N270 1.351 . S
C271 C272 1.434 . S
C272 C263 1.429 . S
C272 N269 1.350 . S
C272 C271 1.434 . S
C273 C274 1.369 . S
C273 C275 1.419 . S
C273 H277 0.930 . S
C274 C273 1.369 . S
C274 C283 1.429 . S
C275 C273 1.419 . S
C275 C276 1.363 . S
C275 H278 0.929 . S
C276 C275 1.363 . S
C276 C282 1.428 . S
H277 C273 0.930 . S
H278 C275 0.929 . S
S279 N280 1.613 . S
S279 N281 1.610 . S
N280 S279 1.613 . S
N280 C283 1.350 . S
N281 S279 1.610 . S
N281 C282 1.351 . S
C282 C276 1.428 . S
C282 N281 1.351 . S
C282 C283 1.434 . S
C283 C274 1.429 . S
C283 N280 1.350 . S
C283 C282 1.434 . S
C284 C285 1.369 1_665 S
C284 C286 1.419 . S
C284 H288 0.930 . S
C285 C284 1.369 1_445 S
C285 C294 1.429 . S
C286 C284 1.419 . S
C286 C287 1.363 1_565 S
C286 H289 0.929 . S
C287 C286 1.363 1_545 S
C287 C293 1.428 1_655 S
H288 C284 0.930 . S
H289 C286 0.929 . S
S290 N291 1.613 . S
S290 N292 1.610 . S
N291 S290 1.613 . S
N291 C294 1.350 . S
N292 S290 1.610 . S
N292 C293 1.351 . S
C293 C287 1.428 1_455 S
C293 N292 1.351 . S
C293 C294 1.434 . S
C294 C285 1.429 . S
C294 N291 1.350 . S
C294 C293 1.434 . S
C295 C296 1.369 . S
C295 C297 1.419 . S
C295 H299 0.930 . S
C296 C295 1.369 . S
C296 C305 1.429 1_445 S
C297 C295 1.419 . S
C297 C298 1.363 . S
C297 H300 0.929 . S
C298 C297 1.363 . S
C298 C304 1.428 1_445 S
H299 C295 0.930 . S
H300 C297 0.929 . S
S301 N302 1.613 . S
S301 N303 1.610 . S
N302 S301 1.613 . S
N302 C305 1.350 . S
N303 S301 1.610 . S
N303 C304 1.351 . S
C304 C298 1.428 1_665 S
C304 N303 1.351 . S
C304 C305 1.434 . S
C305 C296 1.429 1_665 S
C305 N302 1.350 . S
C305 C304 1.434 . S
C306 C307 1.369 . S
C306 C308 1.419 . S
C306 H310 0.930 . S
C307 C306 1.369 . S
C307 C316 1.429 . S
C308 C306 1.419 . S
C308 C309 1.363 . S
C308 H311 0.929 . S
C309 C308 1.363 . S
C309 C315 1.428 . S
H310 C306 0.930 . S
H311 C308 0.929 . S
S312 N313 1.613 . S
S312 N314 1.610 . S
N313 S312 1.613 . S
N313 C316 1.350 . S
N314 S312 1.610 . S
N314 C315 1.351 . S
C315 C309 1.428 . S
C315 N314 1.351 . S
C315 C316 1.434 . S
C316 C307 1.429 . S
C316 N313 1.350 . S
C316 C315 1.434 . S
C317 C318 1.369 . S
C317 C319 1.419 . S
C317 H321 0.930 . S
C318 C317 1.369 . S
C318 C327 1.429 . S
C319 C317 1.419 . S
C319 C320 1.363 . S
C319 H322 0.929 . S
C320 C319 1.363 . S
C320 C326 1.428 . S
H321 C317 0.930 . S
H322 C319 0.929 . S
S323 N324 1.613 . S
S323 N325 1.610 . S
N324 S323 1.613 . S
N324 C327 1.350 . S
N325 S323 1.610 . S
N325 C326 1.351 . S
C326 C320 1.428 . S
C326 N325 1.351 . S
C326 C327 1.434 . S
C327 C318 1.429 . S
C327 N324 1.350 . S
C327 C326 1.434 . S
C199 C181 1.476 1_556 S
C197 C29 1.537 . S
C208 C8 1.520 . S
C210 C149 1.460 . S
C219 C0 1.519 . S
C221 C187 1.471 . S
C230 C17 1.536 . S
C232 C155 1.460 . S
C241 C63 1.538 . S
C243 C117 1.475 . S
C252 C42 1.520 . S
C254 C85 1.464 . S
C265 C123 1.457 . S
C263 C34 1.520 . S
C276 C91 1.457 . S
C274 C51 1.534 . S
C285 C4 1.492 . S
C287 C97 1.455 1_655 S
C296 C13 1.489 . S
C298 C129 1.463 1_545 S
C309 C161 1.455 . S
C307 C38 1.492 . S
C318 C47 1.489 . S
C320 C193 1.462 . S
