# Generated by pormake.
# Topology zzz, (3,6)-cn, num edge types: 1
# Building blocks:
#     Node 0, Type 0, BuildingBlock: BETDIP_clean_linker_0, # of connection points: 3
#     Node 1, Type 0, BuildingBlock: BETDIP_clean_linker_0, # of connection points: 3
#     Node 2, Type 0, BuildingBlock: BETDIP_clean_linker_0, # of connection points: 3
#     Node 3, Type 0, BuildingBlock: BETDIP_clean_linker_0, # of connection points: 3
#     Node 4, Type 0, BuildingBlock: BETDIP_clean_linker_0, # of connection points: 3
#     Node 5, Type 0, BuildingBlock: BETDIP_clean_linker_0, # of connection points: 3
#     Node 6, Type 0, BuildingBlock: BETDIP_clean_linker_0, # of connection points: 3
#     Node 7, Type 0, BuildingBlock: BETDIP_clean_linker_0, # of connection points: 3
#     Node 8, Type 1, BuildingBlock: BETDAH_clean_sbu_0, # of connection points: 6
#     Node 9, Type 1, BuildingBlock: BETDAH_clean_sbu_0, # of connection points: 6
#     Node 10, Type 1, BuildingBlock: BETDAH_clean_sbu_0, # of connection points: 6
#     Node 11, Type 1, BuildingBlock: BETDAH_clean_sbu_0, # of connection points: 6
#     Edge 12, Type (0, 1), BuildingBlock: OJICUG_clean_linker_0, # of connection points: 2
#     Edge 13, Type (0, 1), BuildingBlock: OJICUG_clean_linker_0, # of connection points: 2
#     Edge 14, Type (0, 1), BuildingBlock: OJICUG_clean_linker_0, # of connection points: 2
#     Edge 15, Type (0, 1), BuildingBlock: OJICUG_clean_linker_0, # of connection points: 2
#     Edge 16, Type (0, 1), BuildingBlock: OJICUG_clean_linker_0, # of connection points: 2
#     Edge 17, Type (0, 1), BuildingBlock: OJICUG_clean_linker_0, # of connection points: 2
#     Edge 18, Type (0, 1), BuildingBlock: OJICUG_clean_linker_0, # of connection points: 2
#     Edge 19, Type (0, 1), BuildingBlock: OJICUG_clean_linker_0, # of connection points: 2
#     Edge 20, Type (0, 1), BuildingBlock: OJICUG_clean_linker_0, # of connection points: 2
#     Edge 21, Type (0, 1), BuildingBlock: OJICUG_clean_linker_0, # of connection points: 2
#     Edge 22, Type (0, 1), BuildingBlock: OJICUG_clean_linker_0, # of connection points: 2
#     Edge 23, Type (0, 1), BuildingBlock: OJICUG_clean_linker_0, # of connection points: 2
#     Edge 24, Type (0, 1), BuildingBlock: OJICUG_clean_linker_0, # of connection points: 2
#     Edge 25, Type (0, 1), BuildingBlock: OJICUG_clean_linker_0, # of connection points: 2
#     Edge 26, Type (0, 1), BuildingBlock: OJICUG_clean_linker_0, # of connection points: 2
#     Edge 27, Type (0, 1), BuildingBlock: OJICUG_clean_linker_0, # of connection points: 2
#     Edge 28, Type (0, 1), BuildingBlock: OJICUG_clean_linker_0, # of connection points: 2
#     Edge 29, Type (0, 1), BuildingBlock: OJICUG_clean_linker_0, # of connection points: 2
#     Edge 30, Type (0, 1), BuildingBlock: OJICUG_clean_linker_0, # of connection points: 2
#     Edge 31, Type (0, 1), BuildingBlock: OJICUG_clean_linker_0, # of connection points: 2
#     Edge 32, Type (0, 1), BuildingBlock: OJICUG_clean_linker_0, # of connection points: 2
#     Edge 33, Type (0, 1), BuildingBlock: OJICUG_clean_linker_0, # of connection points: 2
#     Edge 34, Type (0, 1), BuildingBlock: OJICUG_clean_linker_0, # of connection points: 2
#     Edge 35, Type (0, 1), BuildingBlock: OJICUG_clean_linker_0, # of connection points: 2
# Relax obj value: 0.369
# Max RMSD: 0.212
# Mean RMSD: 0.161
data_MOF--net-zzz--node1-BETDAH_clean_sbu_0--node2-BETDIP_clean_linker_0--edge1-OJICUG_clean_linker_0
_symmetry_space_group_name_H-M    P1
_symmetry_Int_Tables_number       1
_symmetry_cell_setting            triclinic
loop_
_symmetry_equiv_pos_as_xyz
'x, y, z'
_cell_length_a     37.430624
_cell_length_b     37.533516
_cell_length_c     9.9362745
_cell_angle_alpha  90.067001
_cell_angle_beta   90.399812
_cell_angle_gamma 90.499145
loop_
_atom_site_label
_atom_site_type_symbol
_atom_site_fract_x
_atom_site_fract_y
_atom_site_fract_z
_atom_type_partial_charge
H0 H 0.77677 0.52325 0.61549 0.0
H1 H 0.73356 0.58125 0.27863 0.0
H2 H 0.84489 0.59059 0.38004 0.0
H3 H 0.67889 0.57986 0.49804 0.0
C4 C 0.68307 0.55477 0.44611 0.0
C5 C 0.78003 0.54307 0.53735 0.0
C6 C 0.81444 0.55774 0.51159 0.0
C7 C 0.75002 0.5534 0.45771 0.0
C8 C 0.75531 0.5766 0.34888 0.0
C9 C 0.78963 0.58843 0.31532 0.0
C10 C 0.81811 0.58161 0.40468 0.0
N11 N 0.71586 0.53642 0.47161 0.0
H12 H 1.01545 0.76955 0.51732 0.0
H13 H 0.10237 0.72783 0.28489 0.0
H14 H 0.11417 0.82803 0.491 0.0
H15 H 1.0198 0.73812 0.17226 0.0
C16 C 1.02401 0.71299 0.22418 0.0
C17 C 0.04303 0.77121 0.48557 0.0
C18 C 0.06402 0.80154 0.51908 0.0
C19 C 0.05753 0.74382 0.4047 0.0
C20 C 0.09233 0.74748 0.35488 0.0
C21 C 0.11305 0.77767 0.38567 0.0
C22 C 0.09911 0.80366 0.47225 0.0
N23 N 0.03641 0.71432 0.35992 0.0
H24 H 0.79014 0.99683 0.54965 0.0
H25 H 0.83671 0.08225 0.31874 0.0
H26 H 0.73766 0.09782 0.52615 0.0
H27 H 0.82293 1.00565 0.19467 0.0
C28 C 0.84781 1.00636 0.25192 0.0
C29 C 0.79014 1.02448 0.51869 0.0
C30 C 0.76118 0.04665 0.55315 0.0
C31 C 0.8182 0.03789 0.43742 0.0
C32 C 0.8166 0.07291 0.3887 0.0
C33 C 0.78771 0.09477 0.41996 0.0
C34 C 0.76111 0.08183 0.50692 0.0
N35 N 0.8461 1.01552 0.39095 0.0
H36 H 0.55427 0.7776 0.563 0.0
H37 H 0.45872 0.81475 0.36425 0.0
H38 H 0.4552 0.7211 0.61172 0.0
H39 H 0.51282 0.81336 0.19664 0.0
C40 C 0.52421 0.83478 0.25758 0.0
C41 C 0.52567 0.7758 0.54673 0.0
C42 C 0.50603 0.74704 0.60207 0.0
C43 C 0.50836 0.80111 0.46351 0.0
C44 C 0.47166 0.79682 0.4344 0.0
C45 C 0.45219 0.76807 0.48744 0.0
C46 C 0.4694 0.74452 0.57576 0.0
N47 N 0.52821 0.82884 0.39875 0.0
H48 H 0.27278 0.49353 0.14672 0.0
H49 H 0.32413 0.58611 0.31988 0.0
H50 H 0.22979 0.59724 0.07478 0.0
H51 H 0.37919 0.53001 0.21156 0.0
C52 C 0.36614 0.52299 0.30529 0.0
C53 C 0.27497 0.52223 0.15553 0.0
C54 C 0.24906 0.54418 0.09266 0.0
C55 C 0.30373 0.53766 0.23056 0.0
C56 C 0.30452 0.57471 0.2511 0.0
C57 C 0.27713 0.59626 0.20021 0.0
C58 C 0.25143 0.58102 0.11298 0.0
N59 N 0.32847 0.51601 0.30343 0.0
H60 H 0.05536 0.26222 0.13025 0.0
H61 H 0.96443 0.3028 0.3444 0.0
H62 H 0.95726 0.20226 0.13933 0.0
H63 H 0.9924 0.35776 0.21002 0.0
C64 C 1.01514 0.35316 0.27631 0.0
C65 C 1.02753 0.26003 0.15829 0.0
C66 C 1.00731 0.22952 0.11998 0.0
C67 C 1.01137 0.2878 0.23293 0.0
C68 C 0.97592 0.28339 0.27687 0.0
C69 C 0.95635 0.25255 0.24453 0.0
C70 C 0.97176 0.22681 0.16091 0.0
N71 N 1.03125 0.31875 0.27385 0.0
H72 H 0.30299 0.05249 0.17895 0.0
H73 H 0.25674 0.96169 0.38042 0.0
H74 H 0.3538 0.95069 0.1564 0.0
H75 H 0.20319 1.00048 0.2343 0.0
C76 C 0.21025 1.01828 0.31699 0.0
C77 C 0.30293 1.0242 0.20038 0.0
C78 C 0.3308 1.00254 0.15161 0.0
C79 C 0.27481 1.00891 0.27656 0.0
C80 C 0.27638 0.97268 0.31196 0.0
C81 C 0.3051 0.95161 0.27138 0.0
C82 C 0.33084 0.96637 0.18508 0.0
N83 N 0.24649 1.03014 0.32784 0.0
H84 H 0.49648 0.28916 0.21517 0.0
H85 H 0.59592 0.25135 0.38181 0.0
H86 H 0.59332 0.34853 0.15426 0.0
H87 H 0.56122 0.19491 0.26467 0.0
C88 C 0.54222 0.20004 0.34462 0.0
C89 C 0.5252 0.2916 0.22623 0.0
C90 C 0.54336 0.32127 0.17066 0.0
C91 C 0.5446 0.26494 0.29567 0.0
C92 C 0.58156 0.26983 0.31797 0.0
C93 C 0.59932 0.30011 0.26875 0.0
C94 C 0.58023 0.32438 0.18936 0.0
N95 N 0.52687 0.23466 0.35229 0.0
Ho96 Ho 0.05695 1.0087 0.92535 0.0
Ho97 Ho 1.01384 1.02355 0.70206 0.0
C98 C 0.03818 0.94389 0.71872 0.0
C99 C 0.08868 0.98081 0.13046 0.0
C100 C 0.11347 0.95103 0.14328 0.0
C101 C 0.12025 0.93655 0.27013 0.0
C102 C 0.14097 0.9061 0.2825 0.0
C103 C 0.15477 0.88909 0.16753 0.0
C104 C 0.14953 0.90494 0.04085 0.0
C105 C 0.12905 0.93578 0.02886 0.0
C106 C 0.09723 1.02991 0.71146 0.0
C107 C 0.03329 0.08847 0.90922 0.0
C108 C 0.98014 0.04932 0.49645 0.0
C109 C 0.95463 0.07847 0.48089 0.0
C110 C 0.94889 0.09313 0.3536 0.0
C111 C 0.92783 0.12329 0.339 0.0
C112 C 0.91273 0.13993 0.45228 0.0
C113 C 0.91682 0.12383 0.57911 0.0
C114 C 0.93762 0.09324 0.59329 0.0
C115 C 0.97415 1.00123 0.91573 0.0
O116 O 0.04609 0.95282 0.84407 0.0
O117 O 1.02979 0.96901 0.63185 0.0
O118 O 0.10094 1.00853 0.06613 0.0
O119 O 0.05612 0.9723 0.09421 0.0
O120 O 0.10246 0.03974 0.83452 0.0
O121 O 0.07074 1.00875 0.7066 0.0
O122 O 1.02453 0.07957 0.78428 0.0
O123 O 0.04222 0.06339 0.99534 0.0
O124 O 0.9688 1.02201 0.56517 0.0
O125 O 1.01268 0.05882 0.52969 0.0
O126 O 0.97052 0.9903 0.79328 0.0
O127 O 0.9998 1.02343 0.92121 0.0
H128 H 0.10819 0.94783 0.35917 0.0
H129 H 0.14349 0.89425 0.38143 0.0
H130 H 0.15942 0.89229 0.95059 0.0
H131 H 0.124 0.94679 0.92982 0.0
H132 H 0.96213 0.08236 0.26616 0.0
H133 H 0.9262 0.13531 0.24012 0.0
H134 H 0.90588 0.13618 0.66819 0.0
H135 H 0.94188 0.08216 0.69274 0.0
Ho136 Ho 0.55314 0.04566 0.95421 0.0
Ho137 Ho 0.53628 1.00334 0.73094 0.0
C138 C 0.61728 1.02522 0.75036 0.0
C139 C 0.58243 0.07648 0.15989 0.0
C140 C 0.61381 0.09984 0.17334 0.0
C141 C 0.62915 0.10531 0.30022 0.0
C142 C 0.66071 0.12494 0.31323 0.0
C143 C 0.678 0.13889 0.19887 0.0
C144 C 0.66159 0.1347 0.07207 0.0
C145 C 0.62961 0.11537 0.05947 0.0
C146 C 0.53316 0.08632 0.73951 0.0
C147 C 0.47215 1.02481 0.93582 0.0
C148 C 0.50958 0.97056 0.52358 0.0
C149 C 0.47988 0.94528 0.50508 0.0
C150 C 0.46503 0.94059 0.37693 0.0
C151 C 0.43416 0.92004 0.35985 0.0
C152 C 0.41706 0.90436 0.47148 0.0
C153 C 0.43349 0.90719 0.59886 0.0
C154 C 0.46472 0.92754 0.61555 0.0
C155 C 0.55504 0.96254 0.94768 0.0
O156 O 0.60868 0.03319 0.87538 0.0
O157 O 0.59173 1.01769 0.66285 0.0
O158 O 0.55557 0.08979 0.09323 0.0
O159 O 0.58901 0.04358 0.12583 0.0
O160 O 0.52346 0.09157 0.86222 0.0
O161 O 0.55357 0.05964 0.73537 0.0
O162 O 0.48057 1.01584 0.81107 0.0
O163 O 0.49774 0.03265 0.02267 0.0
O164 O 0.53668 0.95885 0.59291 0.0
O165 O 0.50065 1.00286 0.55815 0.0
O166 O 0.56666 0.95886 0.82661 0.0
O167 O 0.53477 0.98933 0.95011 0.0
H168 H 0.61754 0.09318 0.38878 0.0
H169 H 0.673 0.12658 0.41209 0.0
H170 H 0.67451 0.14462 0.98221 0.0
H171 H 0.61803 0.11124 0.96034 0.0
H172 H 0.47625 0.95429 0.29089 0.0
H173 H 0.422 0.9193 0.26063 0.0
H174 H 0.42089 0.89569 0.68669 0.0
H175 H 0.47598 0.93092 0.71558 0.0
Ho176 Ho 0.49835 0.54492 0.01037 0.0
Ho177 Ho 0.54749 0.52196 0.75744 0.0
C178 C 0.52804 0.60584 0.80693 0.0
C179 C 0.47258 0.56569 0.23628 0.0
C180 C 0.44479 0.5916 0.26889 0.0
C181 C 0.44301 0.60572 0.3988 0.0
C182 C 0.42173 0.63531 0.42398 0.0
C183 C 0.40227 0.65155 0.31879 0.0
C184 C 0.4013 0.63491 0.19206 0.0
C185 C 0.42256 0.60523 0.16716 0.0
C186 C 0.4578 0.53626 0.78002 0.0
C187 C 0.5183 0.46135 0.96336 0.0
C188 C 0.57279 0.50202 0.52944 0.0
C189 C 0.60037 0.47628 0.49276 0.0
C190 C 0.60002 0.46128 0.36399 0.0
C191 C 0.62174 0.43225 0.33529 0.0
C192 C 0.64372 0.41731 0.43604 0.0
C193 C 0.64604 0.43428 0.56191 0.0
C194 C 0.62451 0.46358 0.59003 0.0
C195 C 0.5873 0.5285 0.99089 0.0
O196 O 0.51543 0.59834 0.92834 0.0
O197 O 0.53795 0.58074 0.72057 0.0
O198 O 0.46152 0.53704 0.17269 0.0
O199 O 0.50183 0.57934 0.18478 0.0
O200 O 0.44547 0.54572 0.89579 0.0
O201 O 0.49108 0.53261 0.79582 0.0
O202 O 0.52995 0.46861 0.84013 0.0
O203 O 0.50914 0.48663 0.05015 0.0
O204 O 0.58409 0.53053 0.59363 0.0
O205 O 0.54384 0.48805 0.58203 0.0
O206 O 0.59997 0.51878 0.87582 0.0
O207 O 0.55441 0.53365 0.97179 0.0
H208 H 0.45993 0.59546 0.47852 0.0
H209 H 0.42361 0.64756 0.52256 0.0
H210 H 0.38656 0.64667 0.10934 0.0
H211 H 0.42344 0.5945 0.06615 0.0
H212 H 0.58141 0.4706 0.28805 0.0
H213 H 0.61864 0.41949 0.238 0.0
H214 H 0.66247 0.42326 0.64153 0.0
H215 H 0.62511 0.47483 0.69033 0.0
Ho216 Ho 1.02406 0.50737 0.88515 0.0
Ho217 Ho 0.04267 0.54871 0.656 0.0
C218 C 0.96099 0.53405 0.68858 0.0
C219 C 0.98833 0.48464 0.08627 0.0
C220 C 0.95124 0.49615 0.10882 0.0
C221 C 0.94513 0.52498 0.19531 0.0
C222 C 0.91452 0.54546 0.18031 0.0
C223 C 0.88918 0.53744 0.07902 0.0
C224 C 0.89344 0.50634 1.00243 0.0
C225 C 0.92409 0.48581 0.01751 0.0
C226 C 0.04048 0.46614 0.66813 0.0
C227 C 0.10654 0.52304 0.86737 0.0
C228 C 0.0705 0.57704 0.44355 0.0
C229 C 0.10106 0.60107 0.42159 0.0
C230 C 0.11714 0.60219 0.29515 0.0
C231 C 0.14814 0.62231 0.27577 0.0
C232 C 0.16411 0.64125 0.38342 0.0
C233 C 0.14695 0.64138 0.50882 0.0
C234 C 0.11556 0.6215 0.52767 0.0
C235 C 1.02325 0.59061 0.86566 0.0
O236 O 0.97099 0.53106 0.8156 0.0
O237 O 0.98593 0.53448 0.59535 0.0
O238 O 0.99342 0.46511 0.97934 0.0
O239 O 1.01236 0.50998 0.09795 0.0
O240 O 0.05106 0.45991 0.7904 0.0
O241 O 1.02187 0.49403 0.66716 0.0
O242 O 0.09788 0.53704 0.74865 0.0
O243 O 0.08146 0.51061 0.94737 0.0
O244 O 0.04366 0.59075 0.50794 0.0
O245 O 0.07831 0.54502 0.48573 0.0
O246 O 1.01444 0.59572 0.74137 0.0
O247 O 0.04301 0.56341 0.8737 0.0
H248 H 0.9653 0.53336 0.2678 0.0
H249 H 0.91109 0.568 0.24698 0.0
H250 H 0.8741 0.49883 0.92579 0.0
H251 H 0.92772 0.46358 0.94949 0.0
H252 H 0.1067 0.58619 0.2128 0.0
H253 H 0.16115 0.62059 0.17892 0.0
H254 H 0.15887 0.65524 0.59386 0.0
H255 H 0.10349 0.62082 0.62644 0.0
C256 C 0.14619 1.01969 0.38054 0.0
C257 C 0.18185 1.0266 0.41671 0.0
H258 H 0.09158 1.01487 0.44349 0.0
C259 C 0.18931 0.0378 0.54899 0.0
H260 H 0.13997 1.012 0.27874 0.0
C261 C 0.16157 0.04025 0.64383 0.0
C262 C 0.126 1.03117 0.60846 0.0
H263 H 0.21655 0.04332 0.58049 0.0
H264 H 0.16822 0.04791 0.74616 0.0
C265 C 0.11861 1.02155 0.47479 0.0
C266 C 0.5467 0.13636 0.41138 0.0
C267 C 0.53526 0.17085 0.44313 0.0
H268 H 0.55491 0.0826 0.47803 0.0
C269 C 0.52041 0.17682 0.57052 0.0
H270 H 0.55759 0.1312 0.31333 0.0
C271 C 0.51862 0.14901 0.66547 0.0
C272 C 0.53174 0.11478 0.635 0.0
H273 H 0.51138 0.20312 0.59847 0.0
H274 H 0.50797 0.15464 0.76424 0.0
C275 C 0.54508 0.10865 0.50562 0.0
C276 C 0.42368 0.50979 0.42883 0.0
C277 C 0.38832 0.52242 0.43107 0.0
H278 H 0.47391 0.50469 0.53469 0.0
C279 C 0.37601 0.53817 0.54976 0.0
H280 H 0.43347 0.49639 0.34023 0.0
C281 C 0.39887 0.54236 0.66147 0.0
C282 C 0.43475 0.53106 0.65782 0.0
H283 H 0.34909 0.54846 0.55469 0.0
H284 H 0.38849 0.55516 0.75062 0.0
C285 C 0.4468 0.51432 0.54036 0.0
C286 C 1.01046 0.41626 0.35331 0.0
C287 C 1.02568 0.38244 0.37109 0.0
H288 H 1.00366 0.4691 0.43046 0.0
C289 C 0.04808 0.37699 0.48336 0.0
H290 H 0.993 0.42128 0.26816 0.0
C291 C 0.05392 0.40449 0.5781 0.0
C292 C 0.03773 0.43802 0.5619 0.0
H293 H 0.06007 0.35122 0.50049 0.0
H294 H 0.07039 0.3992 0.66576 0.0
C295 C 1.01656 0.44371 0.44663 0.0
C296 C 0.87961 0.98935 0.04329 0.0
C297 C 0.88175 1.0019 0.17612 0.0
H298 H 0.90671 0.97874 0.85963 0.0
C299 C 0.91542 1.01222 0.22769 0.0
H300 H 0.85412 0.98111 1.0006 0.0
C301 C 0.94599 1.01157 0.14504 0.0
C302 C 0.94338 0.99997 0.01043 0.0
H303 H 0.91786 1.0217 0.33014 0.0
H304 H 0.97149 1.02043 0.18563 0.0
C305 C 0.90991 0.98805 0.96227 0.0
C306 C 0.53919 0.90122 0.25053 0.0
C307 C 0.53558 0.86789 0.18637 0.0
H308 H 0.54726 0.95793 0.22498 0.0
C309 C 0.54005 0.86615 0.04648 0.0
H310 H 0.53583 0.90334 0.35832 0.0
C311 C 0.54743 0.89676 0.97162 0.0
C312 C 0.54966 0.93041 0.03365 0.0
H313 H 0.53734 0.84093 0.99401 0.0
H314 H 0.55019 0.89408 0.86362 0.0
C315 C 0.54561 0.93239 0.17432 0.0
C316 C 0.66574 0.52033 0.23523 0.0
C317 C 0.65695 0.54454 0.33732 0.0
H318 H 0.65059 0.49662 0.04636 0.0
C319 C 0.62354 0.56162 0.32953 0.0
H320 H 0.69121 0.50686 0.23714 0.0
C321 C 0.59976 0.55515 0.22147 0.0
C322 C 0.60928 0.53216 0.11644 0.0
H323 H 0.61603 0.5806 0.4063 0.0
H324 H 0.57474 0.56935 0.21718 0.0
C325 C 0.64239 0.51456 0.12563 0.0
C326 C 1.00548 0.6816 0.01465 0.0
C327 C 1.02087 0.67955 0.14346 0.0
H328 H 0.9937 0.65537 0.82876 0.0
C329 C 0.035 0.64672 0.18602 0.0
H330 H 0.99423 0.7064 0.97903 0.0
C331 C 0.035 0.61705 0.0983 0.0
C332 C 1.02086 0.61983 0.96705 0.0
H333 H 0.04693 0.64434 0.28501 0.0
H334 H 0.04654 0.59225 0.13187 0.0
C335 C 1.00527 0.65223 0.92824 0.0
C336 C 0.93206 0.23488 0.46282 0.0
C337 C 0.92524 0.24122 0.32579 0.0
H338 H 0.93226 0.19527 0.61596 0.0
C339 C 0.89774 0.22158 0.2623 0.0
H340 H 0.95211 0.25043 0.51654 0.0
C341 C 0.88611 0.18959 0.31986 0.0
C342 C 0.90207 0.1778 0.44022 0.0
H343 H 0.89089 0.22682 0.15809 0.0
H344 H 0.87022 0.17138 0.2589 0.0
C345 C 0.92064 0.20286 0.52014 0.0
C346 C 0.32231 0.9245 0.48618 0.0
C347 C 0.31532 0.91937 0.34835 0.0
H348 H 0.36255 0.9227 0.6383 0.0
C349 C 0.33389 0.89226 0.28131 0.0
H350 H 0.30747 0.94399 0.54314 0.0
C351 C 0.36598 0.87992 0.33616 0.0
C352 C 0.3787 0.89444 0.45818 0.0
H353 H 0.32799 0.88647 0.17658 0.0
H354 H 0.38356 0.86456 0.27271 0.0
C355 C 0.35433 0.91226 0.54111 0.0
C356 C 0.63203 0.32091 0.46801 0.0
C357 C 0.6333 0.31313 0.32985 0.0
H358 H 0.6349 0.36265 0.6132 0.0
C359 C 0.65635 0.33373 0.24927 0.0
H360 H 0.61596 0.30467 0.53484 0.0
C361 C 0.66664 0.36774 0.29323 0.0
C362 C 0.6554 0.37987 0.41984 0.0
H363 H 0.65929 0.32738 0.14354 0.0
H364 H 0.6778 0.38626 0.22094 0.0
C365 C 0.64274 0.35463 0.51298 0.0
C366 C 0.24762 0.65532 0.19907 0.0
C367 C 0.26701 0.62957 0.27124 0.0
H368 H 0.19628 0.67962 0.17998 0.0
C369 C 0.25994 0.62597 0.40947 0.0
H370 H 0.2537 0.66035 0.09431 0.0
C371 C 0.227 0.63694 0.45904 0.0
C372 C 0.20207 0.65243 0.3709 0.0
H373 H 0.27555 0.60805 0.47128 0.0
H374 H 0.21891 0.62729 0.55701 0.0
C375 C 0.21444 0.66611 0.24782 0.0
C376 C 0.17167 0.80794 0.35785 0.0
C377 C 0.14339 0.78834 0.29934 0.0
H378 H 0.19924 0.85807 0.3556 0.0
C379 C 0.13527 0.79424 0.16296 0.0
H380 H 0.17958 0.80294 0.46117 0.0
C381 C 0.14616 0.82606 0.10282 0.0
C382 C 0.16554 0.85128 0.17923 0.0
H383 H 0.11466 0.77862 0.11265 0.0
H384 H 0.1336 0.83342 1.00842 0.0
C385 C 0.18274 0.83975 0.29753 0.0
C386 C 0.7723 0.11764 0.19649 0.0
C387 C 0.77853 0.12546 0.33307 0.0
H388 H 0.73287 0.11688 0.04101 0.0
C389 C 0.76007 0.1541 0.39053 0.0
H390 H 0.78715 0.09683 0.14673 0.0
C391 C 0.72853 0.16576 0.32945 0.0
C392 C 0.71628 0.14892 0.21107 0.0
H393 H 0.76543 0.16185 0.49386 0.0
H394 H 0.71078 0.1825 0.38694 0.0
C395 C 0.74079 0.12918 0.13543 0.0
C396 C 0.42049 0.74691 0.2853 0.0
C397 C 0.41855 0.75526 0.42286 0.0
H398 H 0.41581 0.7052 0.14092 0.0
C399 C 0.39383 0.73622 0.50186 0.0
H400 H 0.43801 0.76191 0.21954 0.0
C401 C 0.38147 0.70292 0.45747 0.0
C402 C 0.3928 0.68973 0.3325 0.0
H403 H 0.39044 0.74308 0.60693 0.0
H404 H 0.36845 0.68539 0.52888 0.0
C405 C 0.4078 0.7139 0.24012 0.0
C406 C 0.82923 0.61408 0.14305 0.0
C407 C 0.79877 0.59336 0.17138 0.0
H408 H 0.88481 0.61071 0.09562 0.0
C409 C 0.7934 0.56236 0.09372 0.0
H410 H 0.83293 0.63976 0.19127 0.0
C411 C 0.8233 0.54453 0.04599 0.0
C412 C 0.85726 0.56022 0.06257 0.0
H413 H 0.76868 0.54727 0.10111 0.0
H414 H 0.82016 0.51698 0.0156 0.0
C415 C 0.85929 0.5969 0.09243 0.0
C416 C 1.0098 0.18739 0.92381 0.0
C417 C 1.02243 0.19746 0.05231 0.0
H418 H 1.00346 0.14559 0.77746 0.0
C419 C 0.04092 0.17205 0.12909 0.0
H420 H 0.99439 0.20597 0.86412 0.0
C421 C 0.04534 0.13707 0.08113 0.0
C422 C 1.03148 0.12655 0.95468 0.0
H423 H 0.04984 0.17855 0.2302 0.0
H424 H 0.05859 0.11793 0.14541 0.0
C425 C 1.01459 0.15256 0.87502 0.0
C426 C 0.3724 1.0031 0.95435 0.0
C427 C 0.36326 1.01655 0.08189 0.0
H428 H 0.41351 0.99532 0.80765 0.0
C429 C 0.38948 0.03533 0.15562 0.0
H430 H 0.35306 0.98764 0.8968 0.0
C431 C 0.42445 0.03896 0.10623 0.0
C432 C 0.43407 1.02412 0.98125 0.0
H433 H 0.38363 0.04503 0.25572 0.0
H434 H 0.44429 0.05237 0.16843 0.0
C435 C 0.40722 1.00714 0.90404 0.0
C436 C 0.51149 0.37927 0.1897 0.0
C437 C 0.52557 0.35246 0.10717 0.0
H438 H 0.49825 0.4345 0.21016 0.0
C439 C 0.53339 0.36093 0.9726 0.0
H440 H 0.5064 0.37391 0.29499 0.0
C441 C 0.52928 0.39577 0.92397 0.0
C442 C 0.51758 0.42329 1.00912 0.0
H443 H 0.54533 0.34114 0.90783 0.0
H444 H 0.5372 0.40145 0.82154 0.0
C445 C 0.50748 0.41422 0.14134 0.0
C446 C 0.20673 0.54425 0.89385 0.0
C447 C 0.21597 0.53062 0.02165 0.0
H448 H 0.16574 0.55256 0.74499 0.0
C449 C 0.18957 0.51163 0.09256 0.0
H450 H 0.22613 0.55967 0.83754 0.0
C451 C 0.15456 0.50804 0.04039 0.0
C452 C 0.14485 0.52324 0.91541 0.0
H453 H 0.19532 0.50164 0.19255 0.0
H454 H 0.13471 0.4945 0.10093 0.0
C455 C 0.17186 0.54048 0.84128 0.0
C456 C 1.03136 0.85939 0.50386 0.0
C457 C 0.04955 0.83433 0.58341 0.0
H458 H 1.01383 0.91348 0.48274 0.0
C459 C 0.06205 0.84505 0.71115 0.0
H460 H 1.02255 0.85232 0.40315 0.0
C461 C 0.05718 0.88013 0.757 0.0
C462 C 0.04042 0.90574 0.6749 0.0
H463 H 0.07725 0.82674 0.7728 0.0
H464 H 0.06806 0.88757 0.85448 0.0
C465 C 1.02693 0.89464 0.54876 0.0
C466 C 0.70163 1.01573 0.53811 0.0
C467 C 0.72757 0.03344 0.61721 0.0
H468 H 0.64666 0.99959 0.51662 0.0
C469 C 0.71738 0.04655 0.74389 0.0
H470 H 0.70831 1.00647 0.43817 0.0
C471 C 0.68203 0.04269 0.78916 0.0
C472 C 0.65562 1.02639 0.70745 0.0
H473 H 0.73642 0.06137 0.80516 0.0
H474 H 0.67507 0.05398 0.88579 0.0
C475 C 0.66612 1.01235 0.58234 0.0
C476 C 0.53839 0.68911 0.5881 0.0
C477 C 0.52244 0.71541 0.66819 0.0
H478 H 0.55252 0.63406 0.56772 0.0
C479 C 0.51203 0.70617 0.79944 0.0
H480 H 0.54558 0.69506 0.48507 0.0
C481 C 0.51554 0.67112 0.84668 0.0
C482 C 0.52916 0.64411 0.7633 0.0
H483 H 0.49869 0.72553 0.86207 0.0
H484 H 0.5057 0.66489 0.94622 0.0
C485 C 0.54172 0.65392 0.63495 0.0
C486 C 0.8622 0.56097 0.69374 0.0
C487 C 0.84868 0.54515 0.57517 0.0
H488 H 0.90819 0.57031 0.82127 0.0
C489 C 0.87225 0.5245 0.49769 0.0
H490 H 0.84533 0.57816 0.75298 0.0
C491 C 0.90834 0.52056 0.5353 0.0
C492 C 0.9221 0.53703 0.65196 0.0
H493 H 0.86313 0.51292 0.40346 0.0
H494 H 0.92567 0.50496 0.47186 0.0
C495 C 0.89837 0.55677 0.73196 0.0
loop_
_geom_bond_atom_site_label_1
_geom_bond_atom_site_label_2
_geom_bond_distance
_geom_bond_site_symmetry_2
_ccdc_geom_bond_type
H0 C5 0.930 . S
H1 C8 0.930 . S
H2 C10 0.930 . S
H3 C4 1.016 . S
C4 H3 1.016 . S
C4 N11 1.286 . S
C5 H0 0.930 . S
C5 C6 1.397 . S
C5 C7 1.361 . S
C6 C5 1.397 . S
C6 C10 1.390 . S
C7 C5 1.361 . S
C7 C8 1.393 . S
C7 N11 1.413 . S
C8 H1 0.930 . S
C8 C7 1.393 . S
C8 C9 1.399 . S
C9 C8 1.399 . S
C9 C10 1.381 . S
C10 H2 0.930 . S
C10 C6 1.390 . S
C10 C9 1.381 . S
N11 C4 1.286 . S
N11 C7 1.413 . S
H12 C17 0.930 . S
H13 C20 0.930 . S
H14 C22 0.930 . S
H15 C16 1.016 . S
C16 H15 1.016 . S
C16 N23 1.286 1_655 S
C17 H12 0.930 . S
C17 C18 1.397 . S
C17 C19 1.361 . S
C18 C17 1.397 . S
C18 C22 1.390 1_455 S
C19 C17 1.361 . S
C19 C20 1.393 . S
C19 N23 1.413 . S
C20 H13 0.930 . S
C20 C19 1.393 . S
C20 C21 1.403 . S
C21 C20 1.403 . S
C21 C22 1.379 1_455 S
C22 H14 0.930 . S
C22 C18 1.390 1_655 S
C22 C21 1.379 1_655 S
N23 C16 1.286 1_455 S
N23 C19 1.413 . S
H24 C29 0.930 . S
H25 C32 0.930 . S
H26 C34 0.930 . S
H27 C28 1.016 . S
C28 H27 1.016 . S
C28 N35 1.286 1_565 S
C29 H24 0.930 . S
C29 C30 1.397 . S
C29 C31 1.361 . S
C30 C29 1.397 . S
C30 C34 1.390 1_545 S
C31 C29 1.361 . S
C31 C32 1.393 . S
C31 N35 1.413 . S
C32 H25 0.930 . S
C32 C31 1.393 . S
C32 C33 1.403 . S
C33 C32 1.403 . S
C33 C34 1.379 1_545 S
C34 H26 0.930 . S
C34 C30 1.390 1_565 S
C34 C33 1.379 1_565 S
N35 C28 1.286 1_545 S
N35 C31 1.413 . S
H36 C41 0.930 . S
H37 C44 0.930 . S
H38 C46 0.930 . S
H39 C40 1.016 . S
C40 H39 1.016 . S
C40 N47 1.286 . S
C41 H36 0.930 . S
C41 C42 1.397 . S
C41 C43 1.361 . S
C42 C41 1.397 . S
C42 C46 1.390 . S
C43 C41 1.361 . S
C43 C44 1.393 . S
C43 N47 1.413 . S
C44 H37 0.930 . S
C44 C43 1.393 . S
C44 C45 1.399 . S
C45 C44 1.399 . S
C45 C46 1.381 . S
C46 H38 0.930 . S
C46 C42 1.390 . S
C46 C45 1.381 . S
N47 C40 1.286 . S
N47 C43 1.413 . S
H48 C53 0.930 . S
H49 C56 0.930 . S
H50 C58 0.930 1_556 S
H51 C52 1.016 . S
C52 H51 1.016 . S
C52 N59 1.286 . S
C53 H48 0.930 . S
C53 C54 1.397 . S
C53 C55 1.361 1_556 S
C54 C53 1.397 . S
C54 C58 1.390 1_556 S
C55 C53 1.361 1_554 S
C55 C56 1.393 . S
C55 N59 1.413 . S
C56 H49 0.930 . S
C56 C55 1.393 . S
C56 C57 1.399 . S
C57 C56 1.399 . S
C57 C58 1.381 . S
C58 H50 0.930 1_554 S
C58 C54 1.390 1_554 S
C58 C57 1.381 . S
N59 C52 1.286 . S
N59 C55 1.413 . S
H60 C65 0.930 . S
H61 C68 0.930 . S
H62 C70 0.930 . S
H63 C64 1.027 . S
C64 H63 1.027 . S
C64 N71 1.272 1_655 S
C65 H60 0.930 . S
C65 C66 1.397 . S
C65 C67 1.361 1_556 S
C66 C65 1.397 . S
C66 C70 1.390 1_456 S
C67 C65 1.361 1_554 S
C67 C68 1.393 . S
C67 N71 1.413 . S
C68 H61 0.930 . S
C68 C67 1.393 . S
C68 C69 1.404 . S
C69 C68 1.404 . S
C69 C70 1.378 1_455 S
C70 H62 0.930 . S
C70 C66 1.390 1_654 S
C70 C69 1.378 1_655 S
N71 C64 1.272 1_455 S
N71 C67 1.413 . S
H72 C77 0.930 . S
H73 C80 0.930 . S
H74 C82 0.930 1_556 S
H75 C76 1.026 . S
C76 H75 1.026 . S
C76 N83 1.272 1_565 S
C77 H72 0.930 . S
C77 C78 1.397 . S
C77 C79 1.361 1_556 S
C78 C77 1.397 . S
C78 C82 1.390 1_546 S
C79 C77 1.361 1_554 S
C79 C80 1.393 . S
C79 N83 1.413 . S
C80 H73 0.930 . S
C80 C79 1.393 . S
C80 C81 1.404 . S
C81 C80 1.404 . S
C81 C82 1.378 1_545 S
C82 H74 0.930 1_554 S
C82 C78 1.390 1_564 S
C82 C81 1.378 1_565 S
N83 C76 1.272 1_545 S
N83 C79 1.413 . S
H84 C89 0.930 . S
H85 C92 0.930 . S
H86 C94 0.930 1_556 S
H87 C88 1.016 . S
C88 H87 1.016 . S
C88 N95 1.286 . S
C89 H84 0.930 . S
C89 C90 1.397 . S
C89 C91 1.361 1_556 S
C90 C89 1.397 . S
C90 C94 1.390 1_556 S
C91 C89 1.361 1_554 S
C91 C92 1.393 . S
C91 N95 1.413 . S
C92 H85 0.930 . S
C92 C91 1.393 . S
C92 C93 1.399 . S
C93 C92 1.399 . S
C93 C94 1.381 . S
C94 H86 0.930 1_554 S
C94 C90 1.390 1_554 S
C94 C93 1.381 . S
N95 C88 1.286 . S
N95 C91 1.413 . S
Ho96 C99 2.811 1_556 S
Ho96 O116 2.322 . S
Ho96 O118 2.378 1_556 S
Ho96 O119 2.524 1_556 S
Ho96 O120 2.381 . S
Ho96 O121 2.669 1_565 S
Ho96 O123 2.346 1_565 S
Ho96 O127 2.305 1_455 S
Ho97 C108 2.811 . S
Ho97 O117 2.346 1_545 S
Ho97 O121 2.305 1_655 S
Ho97 O122 2.322 . S
Ho97 O124 2.378 . S
Ho97 O125 2.524 . S
Ho97 O126 2.381 . S
Ho97 O127 2.669 1_545 S
C98 O116 1.259 1_655 S
C98 O117 1.268 . S
C99 Ho96 2.811 1_554 S
C99 C100 1.488 . S
C99 O118 1.215 . S
C99 O119 1.289 . S
C100 C99 1.488 . S
C100 C101 1.348 . S
C100 C105 1.413 . S
C101 C100 1.348 . S
C101 C102 1.442 . S
C101 H128 0.930 1_455 S
C102 C101 1.442 . S
C102 C103 1.381 . S
C102 H129 0.936 . S
C103 C102 1.381 . S
C103 C104 1.321 . S
C104 C103 1.321 . S
C104 C105 1.403 . S
C104 H130 0.934 . S
C105 C100 1.413 . S
C105 C104 1.403 . S
C105 H131 0.930 . S
C106 O120 1.275 . S
C106 O121 1.256 1_565 S
C107 O122 1.259 1_455 S
C107 O123 1.268 . S
C108 Ho97 2.811 . S
C108 C109 1.488 . S
C108 O124 1.215 . S
C108 O125 1.289 . S
C109 C108 1.488 . S
C109 C110 1.348 . S
C109 C114 1.413 . S
C110 C109 1.348 . S
C110 C111 1.442 . S
C110 H132 0.930 1_655 S
C111 C110 1.442 . S
C111 C112 1.381 . S
C111 H133 0.930 . S
C112 C111 1.381 . S
C112 C113 1.321 . S
C113 C112 1.321 . S
C113 C114 1.403 . S
C113 H134 0.934 . S
C114 C109 1.413 . S
C114 C113 1.403 . S
C114 H135 0.930 . S
C115 O126 1.275 . S
C115 O127 1.256 1_545 S
O116 Ho96 2.322 . S
O116 C98 1.259 1_455 S
O117 Ho97 2.346 1_565 S
O117 C98 1.268 . S
O118 Ho96 2.378 1_554 S
O118 C99 1.215 . S
O119 Ho96 2.524 1_554 S
O119 C99 1.289 . S
O120 Ho96 2.381 . S
O120 C106 1.275 . S
O121 Ho96 2.669 1_545 S
O121 Ho97 2.305 1_455 S
O121 C106 1.256 1_545 S
O122 Ho97 2.322 . S
O122 C107 1.259 1_655 S
O123 Ho96 2.346 1_545 S
O123 C107 1.268 . S
O124 Ho97 2.378 . S
O124 C108 1.215 . S
O125 Ho97 2.524 . S
O125 C108 1.289 . S
O126 Ho97 2.381 . S
O126 C115 1.275 . S
O127 Ho96 2.305 1_655 S
O127 Ho97 2.669 1_565 S
O127 C115 1.256 1_565 S
H128 C101 0.930 1_655 S
H129 C102 0.936 . S
H130 C104 0.934 . S
H131 C105 0.930 . S
H132 C110 0.930 1_455 S
H133 C111 0.930 . S
H134 C113 0.934 . S
H135 C114 0.930 . S
Ho136 C139 2.811 1_556 S
Ho136 O156 2.322 . S
Ho136 O158 2.378 1_556 S
Ho136 O159 2.524 1_556 S
Ho136 O160 2.381 . S
Ho136 O161 2.669 . S
Ho136 O163 2.346 . S
Ho136 O167 2.305 1_545 S
Ho137 C148 2.811 . S
Ho137 O157 2.346 . S
Ho137 O161 2.305 1_565 S
Ho137 O162 2.322 . S
Ho137 O164 2.378 . S
Ho137 O165 2.524 . S
Ho137 O166 2.381 . S
Ho137 O167 2.669 . S
C138 O156 1.259 1_565 S
C138 O157 1.268 . S
C139 Ho136 2.811 1_554 S
C139 C140 1.488 . S
C139 O158 1.215 . S
C139 O159 1.289 . S
C140 C139 1.488 . S
C140 C141 1.348 . S
C140 C145 1.413 . S
C141 C140 1.348 . S
C141 C142 1.442 . S
C141 H168 0.930 1_545 S
C142 C141 1.442 . S
C142 C143 1.381 . S
C142 H169 0.931 1_545 S
C143 C142 1.381 . S
C143 C144 1.321 . S
C144 C143 1.321 . S
C144 C145 1.403 . S
C144 H170 0.934 . S
C145 C140 1.413 . S
C145 C144 1.403 . S
C145 H171 0.930 . S
C146 O160 1.275 . S
C146 O161 1.256 . S
C147 O162 1.259 1_545 S
C147 O163 1.268 . S
C148 Ho137 2.811 . S
C148 C149 1.488 . S
C148 O164 1.215 . S
C148 O165 1.289 . S
C149 C148 1.488 . S
C149 C150 1.348 . S
C149 C154 1.413 . S
C150 C149 1.348 . S
C150 C151 1.442 . S
C150 H172 0.930 1_565 S
C151 C150 1.442 . S
C151 C152 1.381 . S
C151 H173 0.931 1_565 S
C152 C151 1.381 . S
C152 C153 1.321 . S
C153 C152 1.321 . S
C153 C154 1.403 . S
C153 H174 0.934 . S
C154 C149 1.413 . S
C154 C153 1.403 . S
C154 H175 0.930 . S
C155 O166 1.275 . S
C155 O167 1.256 . S
O156 Ho136 2.322 . S
O156 C138 1.259 1_545 S
O157 Ho137 2.346 . S
O157 C138 1.268 . S
O158 Ho136 2.378 1_554 S
O158 C139 1.215 . S
O159 Ho136 2.524 1_554 S
O159 C139 1.289 . S
O160 Ho136 2.381 . S
O160 C146 1.275 . S
O161 Ho136 2.669 . S
O161 Ho137 2.305 1_545 S
O161 C146 1.256 . S
O162 Ho137 2.322 . S
O162 C147 1.259 1_565 S
O163 Ho136 2.346 . S
O163 C147 1.268 . S
O164 Ho137 2.378 . S
O164 C148 1.215 . S
O165 Ho137 2.524 . S
O165 C148 1.289 . S
O166 Ho137 2.381 . S
O166 C155 1.275 . S
O167 Ho136 2.305 1_565 S
O167 Ho137 2.669 . S
O167 C155 1.256 . S
H168 C141 0.930 1_565 S
H169 C142 0.931 1_565 S
H170 C144 0.934 . S
H171 C145 0.930 . S
H172 C150 0.930 1_545 S
H173 C151 0.931 1_545 S
H174 C153 0.934 . S
H175 C154 0.930 . S
Ho176 C179 2.811 1_556 S
Ho176 O196 2.322 . S
Ho176 O198 2.378 1_556 S
Ho176 O199 2.524 1_556 S
Ho176 O200 2.381 . S
Ho176 O201 2.669 . S
Ho176 O203 2.346 . S
Ho176 O207 2.305 . S
Ho177 C188 2.811 . S
Ho177 O197 2.346 . S
Ho177 O201 2.305 . S
Ho177 O202 2.322 . S
Ho177 O204 2.378 . S
Ho177 O205 2.524 . S
Ho177 O206 2.381 . S
Ho177 O207 2.669 . S
C178 O196 1.259 . S
C178 O197 1.268 . S
C179 Ho176 2.811 1_554 S
C179 C180 1.488 . S
C179 O198 1.215 . S
C179 O199 1.289 . S
C180 C179 1.488 . S
C180 C181 1.348 . S
C180 C185 1.413 . S
C181 C180 1.348 . S
C181 C182 1.442 . S
C181 H208 0.930 . S
C182 C181 1.442 . S
C182 C183 1.381 . S
C182 H209 0.931 . S
C183 C182 1.381 . S
C183 C184 1.321 . S
C184 C183 1.321 . S
C184 C185 1.403 . S
C184 H210 0.934 . S
C185 C180 1.413 . S
C185 C184 1.403 . S
C185 H211 0.930 . S
C186 O200 1.275 . S
C186 O201 1.256 . S
C187 O202 1.259 . S
C187 O203 1.268 . S
C188 Ho177 2.811 . S
C188 C189 1.488 . S
C188 O204 1.215 . S
C188 O205 1.289 . S
C189 C188 1.488 . S
C189 C190 1.348 . S
C189 C194 1.413 . S
C190 C189 1.348 . S
C190 C191 1.442 . S
C190 H212 0.930 . S
C191 C190 1.442 . S
C191 C192 1.381 . S
C191 H213 0.931 . S
C192 C191 1.381 . S
C192 C193 1.321 . S
C193 C192 1.321 . S
C193 C194 1.403 . S
C193 H214 0.934 . S
C194 C189 1.413 . S
C194 C193 1.403 . S
C194 H215 0.930 . S
C195 O206 1.275 . S
C195 O207 1.256 . S
O196 Ho176 2.322 . S
O196 C178 1.259 . S
O197 Ho177 2.346 . S
O197 C178 1.268 . S
O198 Ho176 2.378 1_554 S
O198 C179 1.215 . S
O199 Ho176 2.524 1_554 S
O199 C179 1.289 . S
O200 Ho176 2.381 . S
O200 C186 1.275 . S
O201 Ho176 2.669 . S
O201 Ho177 2.305 . S
O201 C186 1.256 . S
O202 Ho177 2.322 . S
O202 C187 1.259 . S
O203 Ho176 2.346 . S
O203 C187 1.268 . S
O204 Ho177 2.378 . S
O204 C188 1.215 . S
O205 Ho177 2.524 . S
O205 C188 1.289 . S
O206 Ho177 2.381 . S
O206 C195 1.275 . S
O207 Ho176 2.305 . S
O207 Ho177 2.669 . S
O207 C195 1.256 . S
H208 C181 0.930 . S
H209 C182 0.931 . S
H210 C184 0.934 . S
H211 C185 0.930 . S
H212 C190 0.930 . S
H213 C191 0.931 . S
H214 C193 0.934 . S
H215 C194 0.930 . S
Ho216 C219 2.811 1_556 S
Ho216 O236 2.322 . S
Ho216 O238 2.378 1_556 S
Ho216 O239 2.524 1_556 S
Ho216 O240 2.381 . S
Ho216 O241 2.669 1_655 S
Ho216 O243 2.346 1_655 S
Ho216 O247 2.305 . S
Ho217 C228 2.811 . S
Ho217 O237 2.346 1_455 S
Ho217 O241 2.305 . S
Ho217 O242 2.322 . S
Ho217 O244 2.378 . S
Ho217 O245 2.524 . S
Ho217 O246 2.381 . S
Ho217 O247 2.669 1_455 S
C218 O236 1.259 . S
C218 O237 1.268 . S
C219 Ho216 2.811 1_554 S
C219 C220 1.488 . S
C219 O238 1.215 . S
C219 O239 1.289 . S
C220 C219 1.488 . S
C220 C221 1.348 . S
C220 C225 1.413 . S
C221 C220 1.348 . S
C221 C222 1.442 . S
C221 H248 0.930 . S
C222 C221 1.442 . S
C222 C223 1.381 . S
C222 H249 0.931 . S
C223 C222 1.381 . S
C223 C224 1.321 . S
C224 C223 1.321 . S
C224 C225 1.403 . S
C224 H250 0.934 . S
C225 C220 1.413 . S
C225 C224 1.403 . S
C225 H251 0.930 . S
C226 O240 1.282 . S
C226 O241 1.252 1_655 S
C227 O242 1.259 . S
C227 O243 1.268 . S
C228 Ho217 2.811 . S
C228 C229 1.488 . S
C228 O244 1.215 . S
C228 O245 1.289 . S
C229 C228 1.488 . S
C229 C230 1.348 . S
C229 C234 1.413 . S
C230 C229 1.348 . S
C230 C231 1.442 . S
C230 H252 0.930 . S
C231 C230 1.442 . S
C231 C232 1.381 . S
C231 H253 0.931 . S
C232 C231 1.381 . S
C232 C233 1.321 . S
C233 C232 1.321 . S
C233 C234 1.403 . S
C233 H254 0.934 . S
C234 C229 1.413 . S
C234 C233 1.403 . S
C234 H255 0.930 . S
C235 O246 1.286 . S
C235 O247 1.250 1_455 S
O236 Ho216 2.322 . S
O236 C218 1.259 . S
O237 Ho217 2.346 1_655 S
O237 C218 1.268 . S
O238 Ho216 2.378 1_554 S
O238 C219 1.215 . S
O239 Ho216 2.524 1_554 S
O239 C219 1.289 . S
O240 Ho216 2.381 . S
O240 C226 1.282 . S
O241 Ho216 2.669 1_455 S
O241 Ho217 2.305 . S
O241 C226 1.252 1_455 S
O242 Ho217 2.322 . S
O242 C227 1.259 . S
O243 Ho216 2.346 1_455 S
O243 C227 1.268 . S
O244 Ho217 2.378 . S
O244 C228 1.215 . S
O245 Ho217 2.524 . S
O245 C228 1.289 . S
O246 Ho217 2.381 . S
O246 C235 1.286 . S
O247 Ho216 2.305 . S
O247 Ho217 2.669 1_655 S
O247 C235 1.250 1_655 S
H248 C221 0.930 . S
H249 C222 0.931 . S
H250 C224 0.934 . S
H251 C225 0.930 . S
H252 C230 0.930 . S
H253 C231 0.931 . S
H254 C233 0.934 . S
H255 C234 0.930 . S
C256 C257 1.378 1_565 S
C256 H260 0.950 . S
C256 C265 1.390 . S
C257 C256 1.378 1_545 S
C257 C259 1.398 . S
H258 C265 0.950 . S
C259 C257 1.398 . S
C259 C261 1.390 . S
C259 H263 0.950 . S
H260 C256 0.950 . S
C261 C259 1.390 . S
C261 C262 1.417 . S
C261 H264 0.950 . S
C262 C261 1.417 . S
C262 C265 1.357 1_545 S
H263 C259 0.950 . S
H264 C261 0.950 . S
C265 C256 1.390 . S
C265 H258 0.950 . S
C265 C262 1.357 1_565 S
C266 C267 1.387 . S
C266 H270 0.950 . S
C266 C275 1.390 . S
C267 C266 1.387 . S
C267 C269 1.387 . S
H268 C275 0.950 . S
C269 C267 1.387 . S
C269 C271 1.390 . S
C269 H273 0.950 . S
H270 C266 0.950 . S
C271 C269 1.390 . S
C271 C272 1.387 . S
C271 H274 0.950 . S
C272 C271 1.387 . S
C272 C275 1.387 . S
H273 C269 0.950 . S
H274 C271 0.950 . S
C275 C266 1.390 . S
C275 H268 0.950 . S
C275 C272 1.387 . S
C276 C277 1.387 . S
C276 H280 0.950 . S
C276 C285 1.390 . S
C277 C276 1.387 . S
C277 C279 1.387 . S
H278 C285 0.950 . S
C279 C277 1.387 . S
C279 C281 1.390 . S
C279 H283 0.950 . S
H280 C276 0.950 . S
C281 C279 1.390 . S
C281 C282 1.387 . S
C281 H284 0.950 . S
C282 C281 1.387 . S
C282 C285 1.387 . S
H283 C279 0.950 . S
H284 C281 0.950 . S
C285 C276 1.390 . S
C285 H278 0.950 . S
C285 C282 1.387 . S
C286 C287 1.364 1_655 S
C286 H290 0.950 . S
C286 C295 1.390 . S
C287 C286 1.364 1_455 S
C287 C289 1.411 . S
H288 C295 0.950 . S
C289 C287 1.411 . S
C289 C291 1.390 . S
C289 H293 0.950 . S
H290 C286 0.950 . S
C291 C289 1.390 . S
C291 C292 1.387 . S
C291 H294 0.950 . S
C292 C291 1.387 . S
C292 C295 1.387 1_455 S
H293 C289 0.950 . S
H294 C291 0.950 . S
C295 C286 1.390 . S
C295 H288 0.950 . S
C295 C292 1.387 1_655 S
C296 C297 1.391 . S
C296 H300 0.950 . S
C296 C305 1.390 . S
C297 C296 1.391 . S
C297 C299 1.384 1_565 S
H298 C305 0.950 . S
C299 C297 1.384 1_545 S
C299 C301 1.390 . S
C299 H303 0.950 . S
H300 C296 0.950 . S
C301 C299 1.390 . S
C301 C302 1.365 1_545 S
C301 H304 0.950 . S
C302 C301 1.365 1_565 S
C302 C305 1.410 . S
H303 C299 0.950 . S
H304 C301 0.950 . S
C305 C296 1.390 . S
C305 H298 0.950 . S
C305 C302 1.410 . S
C306 C307 1.387 . S
C306 H310 0.950 . S
C306 C315 1.390 . S
C307 C306 1.387 . S
C307 C309 1.387 . S
H308 C315 0.950 . S
C309 C307 1.387 . S
C309 C311 1.390 . S
C309 H313 0.950 . S
H310 C306 0.950 . S
C311 C309 1.390 . S
C311 C312 1.387 . S
C311 H314 0.950 . S
C312 C311 1.387 . S
C312 C315 1.387 . S
H313 C309 0.950 . S
H314 C311 0.950 . S
C315 C306 1.390 . S
C315 H308 0.950 . S
C315 C312 1.387 . S
C316 C317 1.387 . S
C316 H320 0.950 . S
C316 C325 1.390 . S
C317 C316 1.387 . S
C317 C319 1.387 . S
H318 C325 0.950 . S
C319 C317 1.387 . S
C319 C321 1.390 . S
C319 H323 0.950 . S
H320 C316 0.950 . S
C321 C319 1.390 . S
C321 C322 1.387 . S
C321 H324 0.950 . S
C322 C321 1.387 . S
C322 C325 1.387 . S
H323 C319 0.950 . S
H324 C321 0.950 . S
C325 C316 1.390 . S
C325 H318 0.950 . S
C325 C322 1.387 . S
C326 C327 1.411 . S
C326 H330 0.950 . S
C326 C335 1.390 . S
C327 C326 1.411 . S
C327 C329 1.365 1_655 S
H328 C335 0.950 . S
C329 C327 1.365 1_455 S
C329 C331 1.390 . S
C329 H333 0.950 . S
H330 C326 0.950 . S
C331 C329 1.390 . S
C331 C332 1.387 1_455 S
C331 H334 0.950 . S
C332 C331 1.387 1_655 S
C332 C335 1.387 . S
H333 C329 0.950 . S
H334 C331 0.950 . S
C335 C326 1.390 . S
C335 H328 0.950 . S
C335 C332 1.387 . S
C336 C337 1.387 . S
C336 H340 0.950 1_655 S
C336 C345 1.390 . S
C337 C336 1.387 . S
C337 C339 1.387 . S
H338 C345 0.950 . S
C339 C337 1.387 . S
C339 C341 1.390 . S
C339 H343 0.950 . S
H340 C336 0.950 1_455 S
C341 C339 1.390 . S
C341 C342 1.387 . S
C341 H344 0.950 . S
C342 C341 1.387 . S
C342 C345 1.387 . S
H343 C339 0.950 . S
H344 C341 0.950 . S
C345 C336 1.390 . S
C345 H338 0.950 . S
C345 C342 1.387 . S
C346 C347 1.387 1_545 S
C346 H350 0.950 . S
C346 C355 1.390 1_545 S
C347 C346 1.387 1_565 S
C347 C349 1.387 . S
H348 C355 0.950 . S
C349 C347 1.387 . S
C349 C351 1.390 . S
C349 H353 0.950 . S
H350 C346 0.950 . S
C351 C349 1.390 . S
C351 C352 1.387 . S
C351 H354 0.950 . S
C352 C351 1.387 . S
C352 C355 1.387 . S
H353 C349 0.950 . S
H354 C351 0.950 . S
C355 C346 1.390 1_565 S
C355 H348 0.950 . S
C355 C352 1.387 . S
C356 C357 1.387 . S
C356 H360 0.950 . S
C356 C365 1.390 . S
C357 C356 1.387 . S
C357 C359 1.387 . S
H358 C365 0.950 . S
C359 C357 1.387 . S
C359 C361 1.390 . S
C359 H363 0.950 . S
H360 C356 0.950 . S
C361 C359 1.390 . S
C361 C362 1.387 . S
C361 H364 0.950 . S
C362 C361 1.387 . S
C362 C365 1.387 . S
H363 C359 0.950 . S
H364 C361 0.950 . S
C365 C356 1.390 . S
C365 H358 0.950 . S
C365 C362 1.387 . S
C366 C367 1.387 . S
C366 H370 0.950 . S
C366 C375 1.390 . S
C367 C366 1.387 . S
C367 C369 1.387 . S
H368 C375 0.950 . S
C369 C367 1.387 . S
C369 C371 1.390 . S
C369 H373 0.950 . S
H370 C366 0.950 . S
C371 C369 1.390 . S
C371 C372 1.387 . S
C371 H374 0.950 . S
C372 C371 1.387 . S
C372 C375 1.387 . S
H373 C369 0.950 . S
H374 C371 0.950 . S
C375 C366 1.390 . S
C375 H368 0.950 . S
C375 C372 1.387 . S
C376 C377 1.387 . S
C376 H380 0.950 . S
C376 C385 1.390 . S
C377 C376 1.387 . S
C377 C379 1.387 . S
H378 C385 0.950 . S
C379 C377 1.387 . S
C379 C381 1.390 . S
C379 H383 0.950 . S
H380 C376 0.950 . S
C381 C379 1.390 . S
C381 C382 1.387 . S
C381 H384 0.950 . S
C382 C381 1.387 . S
C382 C385 1.387 . S
H383 C379 0.950 . S
H384 C381 0.950 . S
C385 C376 1.390 . S
C385 H378 0.950 . S
C385 C382 1.387 . S
C386 C387 1.387 1_565 S
C386 H390 0.950 . S
C386 C395 1.390 1_565 S
C387 C386 1.387 1_545 S
C387 C389 1.387 . S
H388 C395 0.950 . S
C389 C387 1.387 . S
C389 C391 1.390 . S
C389 H393 0.950 . S
H390 C386 0.950 . S
C391 C389 1.390 . S
C391 C392 1.387 . S
C391 H394 0.950 . S
C392 C391 1.387 . S
C392 C395 1.387 . S
H393 C389 0.950 . S
H394 C391 0.950 . S
C395 C386 1.390 1_545 S
C395 H388 0.950 . S
C395 C392 1.387 . S
C396 C397 1.387 . S
C396 H400 0.950 . S
C396 C405 1.390 . S
C397 C396 1.387 . S
C397 C399 1.387 . S
H398 C405 0.950 . S
C399 C397 1.387 . S
C399 C401 1.390 . S
C399 H403 0.950 . S
H400 C396 0.950 . S
C401 C399 1.390 . S
C401 C402 1.387 . S
C401 H404 0.950 . S
C402 C401 1.387 . S
C402 C405 1.387 . S
H403 C399 0.950 . S
H404 C401 0.950 . S
C405 C396 1.390 . S
C405 H398 0.950 . S
C405 C402 1.387 . S
C406 C407 1.387 . S
C406 H410 0.950 . S
C406 C415 1.390 . S
C407 C406 1.387 . S
C407 C409 1.387 . S
H408 C415 0.950 . S
C409 C407 1.387 . S
C409 C411 1.390 . S
C409 H413 0.950 . S
H410 C406 0.950 . S
C411 C409 1.390 . S
C411 C412 1.387 . S
C411 H414 0.950 . S
C412 C411 1.387 . S
C412 C415 1.387 . S
H413 C409 0.950 . S
H414 C411 0.950 . S
C415 C406 1.390 . S
C415 H408 0.950 . S
C415 C412 1.387 . S
C416 C417 1.387 1_655 S
C416 H420 0.950 1_556 S
C416 C425 1.389 1_655 S
C417 C416 1.387 1_455 S
C417 C419 1.387 . S
H418 C425 0.946 1_654 S
C419 C417 1.387 . S
C419 C421 1.390 . S
C419 H423 0.950 . S
H420 C416 0.950 1_554 S
C421 C419 1.390 . S
C421 C422 1.387 . S
C421 H424 0.950 . S
C422 C421 1.387 . S
C422 C425 1.393 . S
H423 C419 0.950 . S
H424 C421 0.950 . S
C425 C416 1.389 1_455 S
C425 H418 0.946 1_456 S
C425 C422 1.393 . S
C426 C427 1.387 1_565 S
C426 H430 0.950 1_556 S
C426 C435 1.390 . S
C427 C426 1.387 1_545 S
C427 C429 1.387 . S
H428 C435 0.950 1_554 S
C429 C427 1.387 . S
C429 C431 1.390 . S
C429 H433 0.950 . S
H430 C426 0.950 1_554 S
C431 C429 1.390 . S
C431 C432 1.387 . S
C431 H434 0.950 . S
C432 C431 1.387 . S
C432 C435 1.387 1_545 S
H433 C429 0.950 . S
H434 C431 0.950 . S
C435 C426 1.390 . S
C435 H428 0.950 1_556 S
C435 C432 1.387 1_565 S
C436 C437 1.387 . S
C436 H440 0.950 1_556 S
C436 C445 1.390 . S
C437 C436 1.387 . S
C437 C439 1.387 . S
H438 C445 0.950 1_554 S
C439 C437 1.387 . S
C439 C441 1.390 . S
C439 H443 0.950 . S
H440 C436 0.950 1_554 S
C441 C439 1.390 . S
C441 C442 1.387 . S
C441 H444 0.950 . S
C442 C441 1.387 . S
C442 C445 1.387 . S
H443 C439 0.950 . S
H444 C441 0.950 . S
C445 C436 1.390 . S
C445 H438 0.950 1_556 S
C445 C442 1.387 . S
C446 C447 1.387 . S
C446 H450 0.950 . S
C446 C455 1.390 . S
C447 C446 1.387 . S
C447 C449 1.387 . S
H448 C455 0.950 . S
C449 C447 1.387 . S
C449 C451 1.390 . S
C449 H453 0.950 1_556 S
H450 C446 0.950 . S
C451 C449 1.390 . S
C451 C452 1.387 . S
C451 H454 0.950 1_556 S
C452 C451 1.387 . S
C452 C455 1.387 . S
H453 C449 0.950 1_554 S
H454 C451 0.950 1_554 S
C455 C446 1.390 . S
C455 H448 0.950 . S
C455 C452 1.387 . S
C456 C457 1.387 . S
C456 H460 0.950 . S
C456 C465 1.390 . S
C457 C456 1.387 . S
C457 C459 1.387 1_655 S
H458 C465 0.950 . S
C459 C457 1.387 1_455 S
C459 C461 1.390 . S
C459 H463 0.950 . S
H460 C456 0.950 . S
C461 C459 1.390 . S
C461 C462 1.387 1_455 S
C461 H464 0.950 . S
C462 C461 1.387 1_655 S
C462 C465 1.387 . S
H463 C459 0.950 . S
H464 C461 0.950 . S
C465 C456 1.390 . S
C465 H458 0.950 . S
C465 C462 1.387 . S
C466 C467 1.387 . S
C466 H470 0.950 . S
C466 C475 1.390 . S
C467 C466 1.387 . S
C467 C469 1.387 1_565 S
H468 C475 0.950 . S
C469 C467 1.387 1_545 S
C469 C471 1.390 . S
C469 H473 0.950 . S
H470 C466 0.950 . S
C471 C469 1.390 . S
C471 C472 1.387 1_545 S
C471 H474 0.950 . S
C472 C471 1.387 1_565 S
C472 C475 1.387 . S
H473 C469 0.950 . S
H474 C471 0.950 . S
C475 C466 1.390 . S
C475 H468 0.950 . S
C475 C472 1.387 . S
C476 C477 1.387 . S
C476 H480 0.950 . S
C476 C485 1.390 . S
C477 C476 1.387 . S
C477 C479 1.387 . S
H478 C485 0.950 . S
C479 C477 1.387 . S
C479 C481 1.390 . S
C479 H483 0.950 . S
H480 C476 0.950 . S
C481 C479 1.390 . S
C481 C482 1.387 . S
C481 H484 0.950 . S
C482 C481 1.387 . S
C482 C485 1.387 . S
H483 C479 0.950 . S
H484 C481 0.950 . S
C485 C476 1.390 . S
C485 H478 0.950 . S
C485 C482 1.387 . S
C486 C487 1.387 . S
C486 H490 0.950 . S
C486 C495 1.390 . S
C487 C486 1.387 . S
C487 C489 1.387 . S
H488 C495 0.950 . S
C489 C487 1.387 . S
C489 C491 1.390 . S
C489 H493 0.950 . S
H490 C486 0.950 . S
C491 C489 1.390 . S
C491 C492 1.387 . S
C491 H494 0.950 . S
C492 C491 1.387 . S
C492 C495 1.387 . S
H493 C489 0.950 . S
H494 C491 0.950 . S
C495 C486 1.390 . S
C495 H488 0.950 . S
C495 C492 1.387 . S
C257 C76 1.928 1_545 S
C262 C106 2.205 1_545 S
C272 C146 2.222 . S
C267 C88 1.944 . S
C282 C186 2.231 . S
C277 C52 1.955 . S
C292 C226 2.217 1_455 S
C287 C64 1.940 1_455 S
C302 C115 2.207 1_564 S
C297 C28 1.931 . S
C307 C40 1.939 . S
C312 C155 2.224 1_554 S
C317 C4 1.949 . S
C322 C195 2.231 1_554 S
C327 C16 1.940 . S
C332 C235 2.217 1_654 S
C342 C112 0.832 . S
C337 C69 0.837 1_655 S
C352 C152 0.829 . S
C347 C81 0.834 1_565 S
C362 C192 0.823 . S
C357 C93 0.831 . S
C367 C57 0.827 . S
C372 C232 0.811 . S
C377 C21 0.839 . S
C382 C103 0.835 . S
C392 C143 0.827 . S
C387 C33 0.835 . S
C402 C183 0.815 . S
C397 C45 0.820 . S
C407 C9 0.827 . S
C412 C223 0.823 . S
C417 C66 2.261 . S
C422 C107 2.589 . S
C427 C78 2.226 . S
C432 C147 2.558 . S
C442 C187 2.546 . S
C437 C90 2.214 . S
C452 C227 2.583 . S
C447 C54 2.245 . S
C457 C18 2.272 1_655 S
C462 C98 2.596 . S
C472 C138 2.558 . S
C467 C30 2.237 1_565 S
C482 C178 2.546 . S
C477 C42 2.232 . S
C487 C6 2.263 . S
C492 C218 2.585 . S
