# Generated by pormake.
# Topology zzz, (3,6)-cn, num edge types: 1
# Building blocks:
#     Node 0, Type 0, BuildingBlock: KAKCAD_clean_linker_0, # of connection points: 3
#     Node 1, Type 0, BuildingBlock: KAKCAD_clean_linker_0, # of connection points: 3
#     Node 2, Type 0, BuildingBlock: KAKCAD_clean_linker_0, # of connection points: 3
#     Node 3, Type 0, BuildingBlock: KAKCAD_clean_linker_0, # of connection points: 3
#     Node 4, Type 0, BuildingBlock: KAKCAD_clean_linker_0, # of connection points: 3
#     Node 5, Type 0, BuildingBlock: KAKCAD_clean_linker_0, # of connection points: 3
#     Node 6, Type 0, BuildingBlock: KAKCAD_clean_linker_0, # of connection points: 3
#     Node 7, Type 0, BuildingBlock: KAKCAD_clean_linker_0, # of connection points: 3
#     Node 8, Type 1, BuildingBlock: BETDEL_clean_sbu_0, # of connection points: 6
#     Node 9, Type 1, BuildingBlock: BETDEL_clean_sbu_0, # of connection points: 6
#     Node 10, Type 1, BuildingBlock: BETDEL_clean_sbu_0, # of connection points: 6
#     Node 11, Type 1, BuildingBlock: BETDEL_clean_sbu_0, # of connection points: 6
#     Edge 12, Type (0, 1), BuildingBlock: ZUJKAS_clean_linker_0, # of connection points: 2
#     Edge 13, Type (0, 1), BuildingBlock: ZUJKAS_clean_linker_0, # of connection points: 2
#     Edge 14, Type (0, 1), BuildingBlock: ZUJKAS_clean_linker_0, # of connection points: 2
#     Edge 15, Type (0, 1), BuildingBlock: ZUJKAS_clean_linker_0, # of connection points: 2
#     Edge 16, Type (0, 1), BuildingBlock: ZUJKAS_clean_linker_0, # of connection points: 2
#     Edge 17, Type (0, 1), BuildingBlock: ZUJKAS_clean_linker_0, # of connection points: 2
#     Edge 18, Type (0, 1), BuildingBlock: ZUJKAS_clean_linker_0, # of connection points: 2
#     Edge 19, Type (0, 1), BuildingBlock: ZUJKAS_clean_linker_0, # of connection points: 2
#     Edge 20, Type (0, 1), BuildingBlock: ZUJKAS_clean_linker_0, # of connection points: 2
#     Edge 21, Type (0, 1), BuildingBlock: ZUJKAS_clean_linker_0, # of connection points: 2
#     Edge 22, Type (0, 1), BuildingBlock: ZUJKAS_clean_linker_0, # of connection points: 2
#     Edge 23, Type (0, 1), BuildingBlock: ZUJKAS_clean_linker_0, # of connection points: 2
#     Edge 24, Type (0, 1), BuildingBlock: ZUJKAS_clean_linker_0, # of connection points: 2
#     Edge 25, Type (0, 1), BuildingBlock: ZUJKAS_clean_linker_0, # of connection points: 2
#     Edge 26, Type (0, 1), BuildingBlock: ZUJKAS_clean_linker_0, # of connection points: 2
#     Edge 27, Type (0, 1), BuildingBlock: ZUJKAS_clean_linker_0, # of connection points: 2
#     Edge 28, Type (0, 1), BuildingBlock: ZUJKAS_clean_linker_0, # of connection points: 2
#     Edge 29, Type (0, 1), BuildingBlock: ZUJKAS_clean_linker_0, # of connection points: 2
#     Edge 30, Type (0, 1), BuildingBlock: ZUJKAS_clean_linker_0, # of connection points: 2
#     Edge 31, Type (0, 1), BuildingBlock: ZUJKAS_clean_linker_0, # of connection points: 2
#     Edge 32, Type (0, 1), BuildingBlock: ZUJKAS_clean_linker_0, # of connection points: 2
#     Edge 33, Type (0, 1), BuildingBlock: ZUJKAS_clean_linker_0, # of connection points: 2
#     Edge 34, Type (0, 1), BuildingBlock: ZUJKAS_clean_linker_0, # of connection points: 2
#     Edge 35, Type (0, 1), BuildingBlock: ZUJKAS_clean_linker_0, # of connection points: 2
# Relax obj value: 0.322
# Max RMSD: 0.226
# Mean RMSD: 0.207
data_MOF--net-zzz--node1-BETDEL_clean_sbu_0--node2-KAKCAD_clean_linker_0--edge1-ZUJKAS_clean_linker_0
_symmetry_space_group_name_H-M    P1
_symmetry_Int_Tables_number       1
_symmetry_cell_setting            triclinic
loop_
_symmetry_equiv_pos_as_xyz
'x, y, z'
_cell_length_a     71.303347
_cell_length_b     70.300369
_cell_length_c     24.860051
_cell_angle_alpha  91.018737
_cell_angle_beta   89.792826
_cell_angle_gamma 96.201354
loop_
_atom_site_label
_atom_site_type_symbol
_atom_site_fract_x
_atom_site_fract_y
_atom_site_fract_z
_atom_type_partial_charge
C0 C 0.78943 0.42825 0.9127 0.0
C1 C 0.80387 0.41902 0.93589 0.0
C2 C 0.77492 0.43422 0.94443 0.0
C3 C 0.77434 0.43082 1.00001 0.0
C4 C 0.78767 0.41979 0.02201 0.0
C5 C 0.80236 0.41405 0.99037 0.0
C6 C 0.76166 0.44096 0.03549 0.0
C7 C 0.74368 0.44447 0.01819 0.0
C8 C 0.73304 0.45691 0.04732 0.0
C9 C 0.74049 0.46572 0.09522 0.0
C10 C 0.7581 0.46149 0.11432 0.0
C11 C 0.76851 0.44924 0.08422 0.0
C12 C 0.76693 0.4704 0.16369 0.0
C13 C 0.77436 0.48971 0.16414 0.0
C14 C 0.77186 0.45856 0.20506 0.0
C15 C 0.78504 0.46551 0.24401 0.0
C16 C 0.79373 0.48443 0.24216 0.0
C17 C 0.71481 0.46125 0.02442 0.0
C18 C 0.71142 0.48021 0.01468 0.0
C19 C 0.70187 0.44623 0.00501 0.0
C20 C 0.6866 0.44998 0.9734 0.0
C21 C 0.68391 0.46886 0.96025 0.0
C22 C 0.69609 0.48398 0.98282 0.0
C23 C 0.78768 0.49667 0.20303 0.0
H24 H 0.78991 0.43185 0.8705 0.0
H25 H 0.76498 0.44268 0.92588 0.0
H26 H 0.78735 0.41647 0.06441 0.0
H27 H 0.81319 0.4069 0.00957 0.0
H28 H 0.7382 0.43809 0.98064 0.0
H29 H 0.78258 0.44711 0.09763 0.0
H30 H 0.7326 0.47556 0.11763 0.0
H31 H 0.77097 0.49901 0.13211 0.0
H32 H 0.76651 0.44353 0.20494 0.0
H33 H 0.78945 0.4556 0.27307 0.0
H34 H 0.72126 0.49204 0.0288 0.0
H35 H 0.70403 0.43148 0.01244 0.0
H36 H 0.79393 0.51138 0.20088 0.0
H37 H 0.69441 0.49869 0.97341 0.0
H38 H 0.67722 0.43802 0.95782 0.0
C39 C 0.93409 0.79313 0.99506 0.0
C40 C 0.94903 0.79488 0.95787 0.0
C41 C 0.93076 0.77677 0.02615 0.0
C42 C 0.9423 0.76186 0.02061 0.0
C43 C 0.95612 0.76287 0.98007 0.0
C44 C 0.95947 0.77925 0.94901 0.0
C45 C 0.94227 0.7472 0.06266 0.0
C46 C 0.94385 0.72798 0.04961 0.0
C47 C 0.94684 0.71483 0.08998 0.0
C48 C 0.9486 0.72125 0.14406 0.0
C49 C 0.94644 0.74043 0.15742 0.0
C50 C 0.94313 0.75312 0.11665 0.0
C51 C 0.94936 0.74859 0.21233 0.0
C52 C 0.93507 0.75821 0.23598 0.0
C53 C 0.96768 0.75166 0.23339 0.0
C54 C 0.97203 0.76561 0.27367 0.0
C55 C 0.95812 0.77672 0.29343 0.0
C56 C 0.94903 0.69475 0.0739 0.0
C57 C 0.93608 0.68492 0.03797 0.0
C58 C 0.96501 0.6861 0.08914 0.0
C59 C 0.96854 0.66847 0.06621 0.0
C60 C 0.95604 0.65909 0.02809 0.0
C61 C 0.93951 0.66729 0.01546 0.0
C62 C 0.93938 0.7721 0.2762 0.0
H63 H 0.9258 0.80493 0.0029 0.0
H64 H 0.9199 0.77627 0.05684 0.0
H65 H 0.96528 0.75163 0.97505 0.0
H66 H 0.97087 0.78008 0.91993 0.0
H67 H 0.94337 0.72338 0.00772 0.0
H68 H 0.94253 0.76812 0.1269 0.0
H69 H 0.95149 0.71145 0.17537 0.0
H70 H 0.92089 0.75626 0.21979 0.0
H71 H 0.97897 0.74459 0.21525 0.0
H72 H 0.98654 0.76856 0.2868 0.0
H73 H 0.9236 0.69124 0.02574 0.0
H74 H 0.97526 0.69342 0.11655 0.0
H75 H 0.9283 0.78038 0.29012 0.0
H76 H 0.92967 0.6606 0.98592 0.0
H77 H 0.98131 0.66243 0.07715 0.0
C78 C 0.73005 0.03673 0.89947 0.0
C79 C 0.71853 0.05115 0.91242 0.0
C80 C 0.74085 0.02929 0.93903 0.0
C81 C 0.74038 0.03613 0.99244 0.0
C82 C 0.72971 0.05133 0.00474 0.0
C83 C 0.71891 0.05881 0.96503 0.0
C84 C 0.7496 0.02617 0.03556 0.0
C85 C 0.76729 0.01976 0.02702 0.0
C86 C 0.775 0.00813 0.0645 0.0
C87 C 0.76484 0.00287 0.1117 0.0
C88 C 0.74735 0.00995 0.12182 0.0
C89 C 0.73992 0.02152 0.08352 0.0
C90 C 0.73587 0.00503 0.17055 0.0
C91 C 0.72831 0.98608 0.17967 0.0
C92 C 0.72963 0.01979 0.20251 0.0
C93 C 0.71537 0.01586 0.24071 0.0
C94 C 0.70684 0.99707 0.24758 0.0
C95 C 0.79342 1.00134 0.05113 0.0
C96 C 0.79413 0.98293 0.02901 0.0
C97 C 0.80949 0.0147 0.04809 0.0
C98 C 0.8256 0.01016 0.02056 0.0
C99 C 0.8259 0.9922 0.99481 0.0
C100 C 0.81022 0.9784 0.00105 0.0
C101 C 0.71386 0.98214 0.21769 0.0
H102 H 0.73017 0.03069 0.85908 0.0
H103 H 0.74879 0.01749 0.92825 0.0
H104 H 0.72925 0.05704 0.04542 0.0
H105 H 0.71009 0.06987 0.97621 0.0
H106 H 0.775 0.02346 0.99029 0.0
H107 H 0.72605 0.02613 0.09006 0.0
H108 H 0.77058 0.99366 0.14048 0.0
H109 H 0.73272 0.97448 0.15508 0.0
H110 H 0.73512 0.03454 0.19588 0.0
H111 H 0.71024 0.02775 0.26249 0.0
H112 H 0.78176 0.97253 0.02996 0.0
H113 H 0.8091 0.02912 0.0639 0.0
H114 H 0.70775 0.96748 0.22239 0.0
H115 H 0.81006 0.96437 0.98222 0.0
H116 H 0.83728 0.02122 0.01618 0.0
C117 C 0.54762 0.72846 0.25245 0.0
C118 C 0.56118 0.71997 0.28221 0.0
C119 C 0.55321 0.74239 0.21432 0.0
C120 C 0.57243 0.74795 0.20511 0.0
C121 C 0.58587 0.74073 0.23805 0.0
C122 C 0.5803 0.72695 0.27644 0.0
C123 C 0.5785 0.7568 0.15348 0.0
C124 C 0.57385 0.77491 0.13836 0.0
C125 C 0.5785 0.78178 0.08643 0.0
C126 C 0.58696 0.76994 0.04935 0.0
C127 C 0.59112 0.7517 0.06377 0.0
C128 C 0.58735 0.74552 0.11626 0.0
C129 C 0.59637 0.73768 0.02278 0.0
C130 C 0.58517 0.73411 0.97663 0.0
C131 C 0.61013 0.72545 0.03409 0.0
C132 C 0.61143 0.70897 0.00269 0.0
C133 C 0.59887 0.70432 0.95978 0.0
C134 C 0.57366 0.80071 0.06858 0.0
C135 C 0.55547 0.80621 0.07643 0.0
C136 C 0.58681 0.81261 0.03876 0.0
C137 C 0.58166 0.82915 0.01516 0.0
C138 C 0.5632 0.83422 0.02068 0.0
C139 C 0.55026 0.82276 0.05252 0.0
C140 C 0.58636 0.71756 0.94553 0.0
H141 H 0.53276 0.72354 0.25648 0.0
H142 H 0.54261 0.74755 0.18886 0.0
H143 H 0.60079 0.74463 0.23111 0.0
H144 H 0.59112 0.72066 0.29839 0.0
H145 H 0.56672 0.78354 0.16676 0.0
H146 H 0.58991 0.73114 0.12706 0.0
H147 H 0.58961 0.7746 0.00841 0.0
H148 H 0.57432 0.74319 0.96726 0.0
H149 H 0.61907 0.72803 0.06918 0.0
H150 H 0.62155 0.69931 0.01394 0.0
H151 H 0.54501 0.79726 0.09895 0.0
H152 H 0.60098 0.80881 0.03236 0.0
H153 H 0.57634 0.71444 0.91309 0.0
H154 H 0.53599 0.82639 0.05809 0.0
H155 H 0.59195 0.8375 0.99058 0.0
C156 C 0.2119 0.60259 0.13864 0.0
C157 C 0.20484 0.59459 0.18712 0.0
C158 C 0.22769 0.59603 0.11392 0.0
C159 C 0.23686 0.58159 0.13762 0.0
C160 C 0.23103 0.57505 0.18859 0.0
C161 C 0.21514 0.58139 0.21297 0.0
C162 C 0.25 0.57092 0.10584 0.0
C163 C 0.26662 0.56574 0.12845 0.0
C164 C 0.27739 0.55286 0.10145 0.0
C165 C 0.27101 0.54477 0.05149 0.0
C166 C 0.25456 0.55036 0.02799 0.0
C167 C 0.24438 0.56355 0.05515 0.0
C168 C 0.2464 0.54179 0.97738 0.0
C169 C 0.24306 0.55391 0.935 0.0
C170 C 0.23746 0.52299 0.97683 0.0
C171 C 0.22403 0.51702 0.93722 0.0
C172 C 0.21933 0.52984 0.89782 0.0
C173 C 0.29477 0.54765 0.12772 0.0
C174 C 0.30751 0.5621 0.15096 0.0
C175 C 0.29777 0.52843 0.13492 0.0
C176 C 0.31261 0.52378 0.16747 0.0
C177 C 0.32468 0.53829 0.19327 0.0
C178 C 0.32227 0.55749 0.18321 0.0
C179 C 0.22971 0.54798 0.89554 0.0
H180 H 0.20462 0.61312 0.11825 0.0
H181 H 0.23208 0.60146 0.07482 0.0
H182 H 0.23773 0.56378 0.20753 0.0
H183 H 0.21012 0.57469 0.24994 0.0
H184 H 0.27085 0.57128 0.16807 0.0
H185 H 0.2312 0.56706 0.03818 0.0
H186 H 0.27883 0.53443 0.03088 0.0
H187 H 0.24967 0.56854 0.93492 0.0
H188 H 0.23957 0.51352 0.00967 0.0
H189 H 0.21626 0.50297 0.9401 0.0
H190 H 0.30571 0.57705 0.1454 0.0
H191 H 0.2881 0.51701 0.11774 0.0
H192 H 0.22666 0.55805 0.86512 0.0
H193 H 0.3316 0.56901 0.20126 0.0
H194 H 0.31407 0.50885 0.17442 0.0
C195 C 0.0716 0.2261 0.20948 0.0
C196 C 0.07879 0.20865 0.19749 0.0
C197 C 0.0749 0.24154 0.17489 0.0
C198 C 0.08572 0.23995 0.12795 0.0
C199 C 0.09457 0.22323 0.11916 0.0
C200 C 0.09103 0.2077 0.15329 0.0
C201 C 0.0853 0.25425 0.08475 0.0
C202 C 0.08509 0.27378 0.09683 0.0
C203 C 0.0814 0.28674 0.05667 0.0
C204 C 0.07802 0.27997 0.00344 0.0
C205 C 0.07908 0.26055 0.99058 0.0
C206 C 0.08267 0.24792 0.03131 0.0
C207 C 0.07506 0.25225 0.93624 0.0
C208 C 0.05655 0.25032 0.91639 0.0
C209 C 0.08856 0.24199 0.911 0.0
C210 C 0.08332 0.22875 0.86978 0.0
C211 C 0.0644 0.22542 0.85307 0.0
C212 C 0.07991 0.30695 0.07267 0.0
C213 C 0.06339 0.31548 0.06244 0.0
C214 C 0.09398 0.31683 0.10507 0.0
C215 C 0.09107 0.33426 0.12975 0.0
C216 C 0.07396 0.34217 0.12299 0.0
C217 C 0.06042 0.33294 0.08747 0.0
C218 C 0.05125 0.23699 0.87511 0.0
H219 H 0.06254 0.22752 0.24407 0.0
H220 H 0.06786 0.25417 0.18308 0.0
H221 H 0.10336 0.22172 0.08404 0.0
H222 H 0.09688 0.19454 0.1427 0.0
H223 H 0.08707 0.27882 0.13809 0.0
H224 H 0.08222 0.23279 0.02151 0.0
H225 H 0.07475 0.28971 0.97237 0.0
H226 H 0.04585 0.25789 0.93576 0.0
H227 H 0.10287 0.24308 0.92621 0.0
H228 H 0.09381 0.22005 0.85422 0.0
H229 H 0.05227 0.30807 0.03796 0.0
H230 H 0.10693 0.31064 0.11314 0.0
H231 H 0.03663 0.235 0.86256 0.0
H232 H 0.04705 0.33858 0.08152 0.0
H233 H 0.10199 0.34121 0.15576 0.0
C234 C 0.28171 0.94792 0.20734 0.0
C235 C 0.29847 0.95852 0.22479 0.0
C236 C 0.27048 0.95531 0.16847 0.0
C237 C 0.27608 0.97322 0.14584 0.0
C238 C 0.29289 0.98372 0.16317 0.0
C239 C 0.30392 0.97648 0.20242 0.0
C240 C 0.26452 0.98112 0.10425 0.0
C241 C 0.24528 0.98222 0.11275 0.0
C242 C 0.23442 0.99091 0.07506 0.0
C243 C 0.2431 0.99828 0.02743 0.0
C244 C 0.26245 0.99683 0.01828 0.0
C245 C 0.27296 0.98839 0.057 0.0
C246 C 0.27251 0.00376 0.96903 0.0
C247 C 0.27217 0.99185 0.92307 0.0
C248 C 0.28623 0.01962 0.97285 0.0
C249 C 0.30011 0.02283 0.9331 0.0
C250 C 0.3007 0.01011 0.88891 0.0
C251 C 0.2144 0.9929 0.08886 0.0
C252 C 0.20286 0.97705 0.10845 0.0
C253 C 0.20779 0.01101 0.09178 0.0
C254 C 0.19061 0.01338 0.11747 0.0
C255 C 0.17967 0.99767 0.14054 0.0
C256 C 0.18575 0.97939 0.13395 0.0
C257 C 0.28612 0.995 0.88334 0.0
H258 H 0.27724 0.93404 0.22407 0.0
H259 H 0.25758 0.94695 0.15551 0.0
H260 H 0.29742 0.99762 0.14662 0.0
H261 H 0.31691 0.98483 0.21473 0.0
H262 H 0.23891 0.97702 0.15014 0.0
H263 H 0.28786 0.98737 0.05004 0.0
H264 H 0.23494 0.00503 0.998 0.0
H265 H 0.26197 0.9793 0.91985 0.0
H266 H 0.28705 0.02871 0.0086 0.0
H267 H 0.31117 0.03449 0.93917 0.0
H268 H 0.20761 0.96292 0.10674 0.0
H269 H 0.21646 0.0235 0.07738 0.0
H270 H 0.286 0.98506 0.84951 0.0
H271 H 0.17791 0.96695 0.15143 0.0
H272 H 0.18623 0.02762 0.12095 0.0
C273 C 0.43588 0.27032 0.83483 0.0
C274 C 0.45485 0.27801 0.83063 0.0
C275 C 0.43041 0.25652 0.87331 0.0
C276 C 0.44382 0.25019 0.90823 0.0
C277 C 0.46302 0.25594 0.89907 0.0
C278 C 0.46849 0.26978 0.86067 0.0
C279 C 0.43786 0.24357 0.96257 0.0
C280 C 0.44464 0.22767 0.98649 0.0
C281 C 0.44224 0.22473 0.04219 0.0
C282 C 0.43385 0.23834 0.07381 0.0
C283 C 0.42736 0.25443 0.05041 0.0
C284 C 0.42835 0.25611 0.99437 0.0
C285 C 0.42235 0.27089 0.08421 0.0
C286 C 0.41362 0.26828 0.1349 0.0
C287 C 0.42787 0.28969 0.06735 0.0
C288 C 0.42505 0.30533 0.10012 0.0
C289 C 0.41705 0.30271 0.15134 0.0
C290 C 0.44938 0.2082 0.06883 0.0
C291 C 0.44435 0.1894 0.04989 0.0
C292 C 0.46005 0.2111 0.11624 0.0
C293 C 0.46479 0.19557 0.14556 0.0
C294 C 0.4589 0.1767 0.12842 0.0
C295 C 0.44902 0.17378 0.07949 0.0
C296 C 0.41119 0.28407 0.16846 0.0
H297 H 0.42499 0.27628 0.81234 0.0
H298 H 0.41551 0.25238 0.87978 0.0
H299 H 0.47364 0.25141 0.92564 0.0
H300 H 0.48328 0.27512 0.85752 0.0
H301 H 0.45233 0.2181 0.96242 0.0
H302 H 0.42321 0.26836 0.97569 0.0
H303 H 0.43309 0.23673 0.11703 0.0
H304 H 0.40904 0.25406 0.14914 0.0
H305 H 0.43529 0.29249 0.02979 0.0
H306 H 0.43018 0.31951 0.08649 0.0
H307 H 0.43607 0.18678 0.01355 0.0
H308 H 0.46444 0.22544 0.13126 0.0
H309 H 0.40507 0.28173 0.20806 0.0
H310 H 0.44421 0.15945 0.06518 0.0
H311 H 0.47285 0.19837 0.18222 0.0
Dy312 Dy 0.00925 0.99317 0.62661 0.0
C313 C 0.9992 0.03426 0.42665 0.0
C314 C 0.00128 0.97378 0.71863 0.0
Dy315 Dy 0.99741 0.01232 0.51588 0.0
O316 O 0.01788 0.98242 0.7068 0.0
O317 O 0.98933 0.97599 0.68061 0.0
O318 O 0.03893 0.98774 0.59901 0.0
O319 O 0.02089 1.00074 0.55047 0.0
C320 C 0.03708 0.99543 0.55216 0.0
C321 C 0.97012 0.00332 0.58828 0.0
O322 O 0.99534 0.98153 0.4898 0.0
O323 O 0.99668 0.96836 0.57539 0.0
O324 O 0.98813 0.03626 0.46759 0.0
O325 O 0.00865 0.0197 0.43363 0.0
O326 O 0.96688 0.00348 0.53664 0.0
O327 O 0.98708 0.00941 0.59768 0.0
O328 O 0.01502 0.02412 0.65001 0.0
O329 O 0.01291 0.03671 0.56369 0.0
C330 C 0.99401 0.96668 0.52251 0.0
C331 C 0.01695 0.03863 0.61599 0.0
Dy332 Dy 0.49154 0.98825 0.55212 0.0
C333 C 0.55046 0.04103 0.64329 0.0
C334 C 0.45844 0.96852 0.51975 0.0
Dy335 Dy 0.51937 0.01934 0.60395 0.0
O336 O 0.47504 0.96328 0.50946 0.0
O337 O 0.46002 0.9845 0.54702 0.0
O338 O 0.51527 0.9727 0.51998 0.0
O339 O 0.51902 0.00262 0.52936 0.0
C340 C 0.52726 0.98802 0.51838 0.0
C341 C 0.48344 0.01915 0.63643 0.0
O342 O 0.51123 0.03601 0.53391 0.0
O343 O 0.48703 0.01386 0.50199 0.0
O344 O 0.53627 0.03391 0.6721 0.0
O345 O 0.54765 0.03635 0.59303 0.0
O346 O 0.49503 0.0347 0.63335 0.0
O347 O 0.49208 0.00475 0.6267 0.0
O348 O 0.49865 0.97324 0.62637 0.0
O349 O 0.52675 0.99225 0.64231 0.0
C350 C 0.49699 0.03097 0.50067 0.0
C351 C 0.5151 0.97657 0.65126 0.0
Dy352 Dy 0.50426 0.51231 0.62673 0.0
C353 C 0.49275 0.4699 0.42936 0.0
C354 C 0.51732 0.53305 0.71494 0.0
Dy355 Dy 0.50613 0.49107 0.51638 0.0
O356 O 0.50027 0.53261 0.6961 0.0
O357 O 0.52689 0.5219 0.6863 0.0
O358 O 0.47276 0.5123 0.61738 0.0
O359 O 0.49057 0.5133 0.54967 0.0
C360 C 0.47364 0.51178 0.56494 0.0
C361 C 0.53666 0.49146 0.57871 0.0
O362 O 0.51531 0.52056 0.48799 0.0
O363 O 0.5206 0.53418 0.57348 0.0
O364 O 0.51011 0.47109 0.44627 0.0
O365 O 0.48309 0.48063 0.45906 0.0
O366 O 0.53766 0.49087 0.52629 0.0
O367 O 0.51969 0.49003 0.59342 0.0
O368 O 0.49496 0.48269 0.65485 0.0
O369 O 0.48985 0.46917 0.56924 0.0
C370 C 0.52177 0.53509 0.52007 0.0
C371 C 0.48859 0.46818 0.62254 0.0
Dy372 Dy 0.99844 0.48513 0.60737 0.0
C373 C 0.03733 0.52817 0.43527 0.0
C374 C 0.97646 0.46384 0.67881 0.0
Dy375 Dy 0.01646 0.51433 0.52035 0.0
O376 O 0.98108 0.45809 0.63119 0.0
O377 O 0.98398 0.4813 0.68779 0.0
O378 O 0.01642 0.46363 0.57271 0.0
O379 O 0.00639 0.484 0.52239 0.0
C380 C 0.01667 0.47053 0.52451 0.0
C381 C 0.00594 0.53323 0.60903 0.0
O382 O 0.98722 0.50816 0.48741 0.0
O383 O 0.9731 0.49342 0.56313 0.0
O384 O 0.02224 0.53512 0.45303 0.0
O385 O 0.04071 0.5135 0.46335 0.0
O386 O 0.01361 0.54184 0.56725 0.0
O387 O 0.0046 0.51553 0.59952 0.0
O388 O 0.02624 0.49419 0.64627 0.0
O389 O 0.04119 0.507 0.56917 0.0
C390 C 0.97208 0.50107 0.51478 0.0
C391 C 0.04163 0.50096 0.61953 0.0
H392 H 0.14629 0.97424 0.1493 0.0
H393 H 0.12137 0.97628 0.21605 0.0
H394 H 0.14999 0.02931 0.27771 0.0
H395 H 0.17547 0.0269 0.21286 0.0
H396 H 0.14041 0.00548 0.35734 0.0
H397 H 0.07802 0.00813 0.22733 0.0
H398 H 0.09039 0.98785 0.21155 0.0
H399 H 0.10181 0.01164 0.20156 0.0
C400 C 0.14727 0.98642 0.17681 0.0
C401 C 0.16301 1.00037 0.17556 0.0
C402 C 0.13284 0.98769 0.21463 0.0
C403 C 0.13361 0.00308 0.25167 0.0
C404 C 0.14899 0.01734 0.24944 0.0
H405 H 0.04136 0.02214 0.47368 0.0
H406 H 0.06474 0.02474 0.40083 0.0
C407 C 0.16349 0.01603 0.21183 0.0
C408 C 0.11923 0.00351 0.29531 0.0
H409 H 0.07178 1.00042 0.3197 0.0
C410 C 0.12541 0.00454 0.34901 0.0
C411 C 0.09964 0.00255 0.28471 0.0
C412 C 0.09207 0.00269 0.22815 0.0
C413 C 0.1126 0.00413 0.3922 0.0
C414 C 0.09297 1.00213 0.38163 0.0
C415 C 0.0868 1.00166 0.32795 0.0
C416 C 0.07865 1.00045 0.42564 0.0
C417 C 0.12029 0.00612 0.44874 0.0
C418 C 0.07849 0.98584 0.46362 0.0
C419 C 0.06508 0.98434 0.50508 0.0
C420 C 0.05133 0.99717 0.5087 0.0
C421 C 0.05141 0.01171 0.47069 0.0
C422 C 0.06489 0.0133 0.42942 0.0
H423 H 0.13493 0.01338 0.44944 0.0
H424 H 0.11134 0.01433 0.4751 0.0
H425 H 0.12063 0.99168 0.46576 0.0
H426 H 0.08865 0.97547 0.46098 0.0
H427 H 0.06529 0.97297 0.53383 0.0
H428 H 0.45595 0.17469 0.23783 0.0
H429 H 0.46212 0.14835 0.2954 0.0
H430 H 0.47475 0.11479 0.15566 0.0
H431 H 0.46924 0.14145 0.09756 0.0
H432 H 0.4447 0.11144 0.29805 0.0
H433 H 0.52101 0.11205 0.25092 0.0
H434 H 0.50762 0.13136 0.23301 0.0
H435 H 0.5056 0.10956 0.19363 0.0
C436 C 0.46032 0.16184 0.21922 0.0
C437 C 0.46235 0.16032 0.163 0.0
C438 C 0.46367 0.14671 0.25224 0.0
C439 C 0.46914 0.12969 0.22996 0.0
C440 C 0.47086 0.12792 0.17382 0.0
H441 H 0.47042 0.02571 0.42048 0.0
H442 H 0.46329 0.04862 0.3525 0.0
C443 C 0.46752 0.14311 0.14062 0.0
C444 C 0.47292 0.1139 0.26599 0.0
H445 H 0.5077 0.08797 0.30888 0.0
C446 C 0.45844 0.10622 0.30025 0.0
C447 C 0.49093 0.10728 0.26921 0.0
C448 C 0.50726 0.11556 0.23513 0.0
C449 C 0.46151 0.09224 0.33799 0.0
C450 C 0.47947 0.0855 0.34091 0.0
C451 C 0.4939 0.09305 0.30631 0.0
C452 C 0.48387 0.07135 0.38143 0.0
C453 C 0.44568 0.08531 0.37565 0.0
C454 C 0.4981 0.07633 0.41955 0.0
C455 C 0.50232 0.06324 0.45821 0.0
C456 C 0.49241 0.04482 0.45953 0.0
C457 C 0.47825 0.0398 0.42095 0.0
C458 C 0.47408 0.05291 0.38215 0.0
H459 H 0.43444 0.0951 0.37687 0.0
H460 H 0.43922 0.07101 0.36167 0.0
H461 H 0.45102 0.0839 0.41713 0.0
H462 H 0.50586 0.09046 0.41969 0.0
H463 H 0.51333 0.06764 0.48713 0.0
H464 H 0.34897 0.51043 0.18583 0.0
H465 H 0.37331 0.50396 0.25058 0.0
H466 H 0.35714 0.54914 0.35471 0.0
H467 H 0.33293 0.55566 0.29059 0.0
H468 H 0.39521 0.5518 0.3375 0.0
H469 H 0.36826 0.47809 0.39689 0.0
H470 H 0.37114 0.48122 0.32565 0.0
H471 H 0.35396 0.49347 0.36148 0.0
C472 C 0.35047 0.51882 0.22283 0.0
C473 C 0.3391 0.53367 0.2328 0.0
C474 C 0.36434 0.51507 0.25988 0.0
C475 C 0.36693 0.52595 0.30778 0.0
C476 C 0.35543 0.54058 0.31803 0.0
H477 H 0.43585 0.50781 0.58878 0.0
H478 H 0.40957 0.51076 0.52665 0.0
C479 C 0.34166 0.54436 0.28112 0.0
C480 C 0.38223 0.52291 0.34618 0.0
H481 H 0.39874 0.4901 0.42876 0.0
C482 C 0.39595 0.53831 0.3575 0.0
C483 C 0.38306 0.50538 0.37277 0.0
C484 C 0.36824 0.48863 0.36409 0.0
C485 C 0.41058 0.53663 0.39413 0.0
C486 C 0.41174 0.51895 0.41957 0.0
C487 C 0.39789 0.5036 0.40892 0.0
C488 C 0.42742 0.51618 0.45678 0.0
C489 C 0.42455 0.5539 0.40584 0.0
C490 C 0.44607 0.51793 0.4379 0.0
C491 C 0.46099 0.51636 0.47317 0.0
C492 C 0.45758 0.51279 0.528 0.0
C493 C 0.43887 0.51061 0.54676 0.0
C494 C 0.42388 0.51222 0.51133 0.0
H495 H 0.41896 0.5674 0.39429 0.0
H496 H 0.4283 0.55487 0.44919 0.0
H497 H 0.43764 0.55264 0.38238 0.0
H498 H 0.4491 0.5207 0.39586 0.0
H499 H 0.47525 0.51819 0.4575 0.0
H500 H 0.08176 0.34869 0.22945 0.0
H501 H 0.07346 0.37494 0.28687 0.0
H502 H 0.04778 0.39968 0.15178 0.0
H503 H 0.05609 0.37327 0.09357 0.0
H504 H 0.08289 0.41415 0.28133 0.0
H505 H 0.00531 0.39513 0.26301 0.0
H506 H 0.02207 0.37917 0.24074 0.0
H507 H 0.01791 0.39936 0.2009 0.0
C508 C 0.0746 0.35984 0.21155 0.0
C509 C 0.06965 0.35888 0.15674 0.0
C510 C 0.06978 0.37481 0.2446 0.0
C511 C 0.05981 0.38917 0.22384 0.0
C512 C 0.05516 0.38855 0.16891 0.0
H513 H 0.01253 0.47867 0.41825 0.0
H514 H 0.02424 0.46155 0.34012 0.0
C515 C 0.05995 0.37348 0.13569 0.0
C516 C 0.05409 0.40441 0.26061 0.0
H517 H 0.01566 0.42119 0.31986 0.0
C518 C 0.06819 0.41582 0.28935 0.0
C519 C 0.0349 0.40662 0.27098 0.0
C520 C 0.01912 0.39436 0.24269 0.0
C521 C 0.06361 0.42899 0.32914 0.0
C522 C 0.04444 0.43065 0.3409 0.0
C523 C 0.03035 0.41987 0.31065 0.0
C524 C 0.03868 0.44215 0.38752 0.0
C525 C 0.07931 0.44083 0.35884 0.0
C526 C 0.04297 0.43693 0.43993 0.0
C527 C 0.03623 0.44655 0.48441 0.0
C528 C 0.02505 0.46157 0.4773 0.0
C529 C 0.02114 0.46714 0.42483 0.0
C530 C 0.02779 0.45739 0.38025 0.0
H531 H 0.09268 0.44196 0.33543 0.0
H532 H 0.07551 0.45546 0.36786 0.0
H533 H 0.08186 0.43393 0.39755 0.0
H534 H 0.05108 0.425 0.44647 0.0
H535 H 0.03944 0.44195 0.52439 0.0
H536 H 0.82311 0.97509 0.89503 0.0
H537 H 0.84803 0.97328 0.82794 0.0
H538 H 0.88882 1.0009 0.93957 0.0
H539 H 0.86401 0.00242 0.00745 0.0
H540 H 0.86948 0.00576 0.78721 0.0
H541 H 0.91578 0.95634 0.87744 0.0
H542 H 0.89173 0.95756 0.89921 0.0
H543 H 0.91009 0.9755 0.92128 0.0
C544 C 0.83746 0.98029 0.90598 0.0
C545 C 0.84154 0.98885 0.95684 0.0
C546 C 0.85168 0.97938 0.86734 0.0
C547 C 0.87033 0.98681 0.87878 0.0
C548 C 0.8746 0.9948 0.93005 0.0
H549 H 0.97351 0.011 0.69591 0.0
H550 H 0.94911 0.0059 0.76523 0.0
C551 C 0.86036 0.9958 0.96869 0.0
C552 C 0.88491 0.98773 0.83561 0.0
H553 H 0.92781 0.97359 0.80109 0.0
C554 C 0.88216 0.99859 0.79 0.0
C555 C 0.90151 0.97849 0.83949 0.0
C556 C 0.90496 0.96617 0.88674 0.0
C557 C 0.89572 1.00085 0.7488 0.0
C558 C 0.91235 0.99161 0.75258 0.0
C559 C 0.91505 0.98063 0.79807 0.0
C560 C 0.92733 0.99369 0.71053 0.0
C561 C 0.89238 0.01369 0.70254 0.0
C562 C 0.92337 0.98817 0.65676 0.0
C563 C 0.93731 0.99112 0.61699 0.0
C564 C 0.95553 0.99943 0.63039 0.0
C565 C 0.95961 0.0045 0.68439 0.0
C566 C 0.94567 1.00158 0.72407 0.0
H567 H 0.88167 0.02355 0.71267 0.0
H568 H 0.90564 0.02236 0.69062 0.0
H569 H 0.88713 0.00475 0.66738 0.0
H570 H 0.90945 0.98166 0.64548 0.0
H571 H 0.93381 0.98697 0.57576 0.0
H572 H 0.58299 0.86942 0.00525 0.0
H573 H 0.57456 0.89496 0.9473 0.0
H574 H 0.52189 0.86161 0.90825 0.0
H575 H 0.53023 0.83598 0.96575 0.0
H576 H 0.56771 0.89164 0.83753 0.0
H577 H 0.50518 0.91405 0.94478 0.0
H578 H 0.52158 0.8998 0.97597 0.0
H579 H 0.50379 0.88879 0.93087 0.0
C580 C 0.56955 0.86757 0.98463 0.0
C581 C 0.55728 0.85064 0.99024 0.0
C582 C 0.56473 0.88221 0.95165 0.0
C583 C 0.54751 0.8803 0.92389 0.0
C584 C 0.53507 0.8636 0.93021 0.0
H585 H 0.49508 0.9428 0.67987 0.0
H586 H 0.50361 0.91996 0.74606 0.0
C587 C 0.53986 0.84895 0.9632 0.0
C588 C 0.54311 0.89518 0.88561 0.0
H589 H 0.51053 0.92565 0.85598 0.0
C590 C 0.5553 0.89921 0.8418 0.0
C591 C 0.52688 0.90498 0.89113 0.0
C592 C 0.51368 0.90185 0.93848 0.0
C593 C 0.55145 0.9124 0.80261 0.0
C594 C 0.53513 0.92209 0.80788 0.0
C595 C 0.52302 0.91819 0.85195 0.0
C596 C 0.53017 0.93607 0.76759 0.0
C597 C 0.56458 0.91541 0.75504 0.0
C598 C 0.54221 0.95283 0.75797 0.0
C599 C 0.53741 0.96593 0.71995 0.0
C600 C 0.5204 0.96259 0.69107 0.0
C601 C 0.50831 0.94585 0.70119 0.0
C602 C 0.51314 0.93276 0.73914 0.0
H603 H 0.57361 0.90358 0.75002 0.0
H604 H 0.55654 0.9166 0.71729 0.0
H605 H 0.57396 0.92892 0.76124 0.0
H606 H 0.55525 0.95586 0.7802 0.0
H607 H 0.547 0.97872 0.71351 0.0
H608 H 0.67557 0.44942 0.86597 0.0
H609 H 0.65163 0.45483 0.79978 0.0
H610 H 0.63527 0.50188 0.89641 0.0
H611 H 0.65939 0.49657 0.96308 0.0
H612 H 0.61381 0.45265 0.81292 0.0
H613 H 0.64136 0.52553 0.74825 0.0
H614 H 0.6552 0.51074 0.78726 0.0
H615 H 0.63764 0.52355 0.81951 0.0
C616 C 0.66682 0.46087 0.8734 0.0
C617 C 0.66931 0.47248 0.92009 0.0
C618 C 0.65322 0.46402 0.83529 0.0
C619 C 0.64178 0.47889 0.84271 0.0
C620 C 0.6442 0.49057 0.88919 0.0
H621 H 0.53452 0.48461 0.6858 0.0
H622 H 0.56035 0.48232 0.7486 0.0
C623 C 0.65793 0.48748 0.92739 0.0
C624 C 0.62683 0.48146 0.80274 0.0
H625 H 0.61091 0.51337 0.71614 0.0
C626 C 0.61323 0.46592 0.79168 0.0
C627 C 0.62621 0.49869 0.77443 0.0
C628 C 0.64098 0.51554 0.78247 0.0
C629 C 0.5989 0.4672 0.75379 0.0
C630 C 0.59788 0.48462 0.72685 0.0
C631 C 0.61164 0.50008 0.73714 0.0
C632 C 0.58237 0.48707 0.68871 0.0
C633 C 0.58511 0.44975 0.74243 0.0
C634 C 0.58617 0.49111 0.63433 0.0
C635 C 0.57136 0.49267 0.59823 0.0
C636 C 0.55256 0.49034 0.61617 0.0
C637 C 0.54886 0.48659 0.67077 0.0
C638 C 0.56361 0.48512 0.7067 0.0
H639 H 0.59085 0.43639 0.75457 0.0
H640 H 0.57197 0.45095 0.76569 0.0
H641 H 0.58143 0.44853 0.69905 0.0
H642 H 0.60057 0.49274 0.61968 0.0
H643 H 0.57459 0.49559 0.55639 0.0
H644 H 0.99027 0.65268 0.9856 0.0
H645 H 0.99714 0.62689 0.92383 0.0
H646 H 0.93979 0.60093 0.93839 0.0
H647 H 0.93277 0.62673 1.00035 0.0
H648 H 0.99397 0.58644 0.92812 0.0
H649 H 0.9455 0.61213 0.77725 0.0
H650 H 0.95299 0.62597 0.83664 0.0
H651 H 0.93509 0.60602 0.84141 0.0
C652 C 0.97922 0.64126 0.97674 0.0
C653 C 0.96091 0.64188 0.99754 0.0
C654 C 0.98316 0.62655 0.94121 0.0
C655 C 0.96889 0.61219 0.92574 0.0
C656 C 0.95091 0.6121 0.94895 0.0
H657 H 0.99136 0.51753 0.70289 0.0
H658 H 0.9813 0.53477 0.78312 0.0
C659 C 0.94693 0.62684 0.98435 0.0
C660 C 0.97257 0.59826 0.88237 0.0
H661 H 0.96123 0.58565 0.75223 0.0
C662 C 0.98669 0.58609 0.88982 0.0
C663 C 0.96318 0.59801 0.83223 0.0
C664 C 0.94845 0.61131 0.82096 0.0
C665 C 0.9919 0.57391 0.84812 0.0
C666 C 0.98261 0.5738 0.79792 0.0
C667 C 0.96822 0.58567 0.79092 0.0
C668 C 0.98872 0.56294 0.75042 0.0
C669 C 0.00782 0.56185 0.85725 0.0
C670 C 0.99596 0.57299 0.70534 0.0
C671 C 0.00155 0.56319 0.65976 0.0
C672 C 0.99994 0.5431 0.65808 0.0
C673 C 0.99269 0.53298 0.70313 0.0
C674 C 0.98708 0.54283 0.74902 0.0
H675 H 0.01562 0.56599 0.89502 0.0
H676 H 0.00201 0.5466 0.85995 0.0
H677 H 0.01791 0.56311 0.82304 0.0
H678 H 0.99734 0.58849 0.70551 0.0
H679 H 0.00709 0.5714 0.62566 0.0
H680 H 0.04298 0.19847 0.23382 0.0
H681 H 0.03017 0.16808 0.27157 0.0
H682 H 0.08488 0.14755 0.26086 0.0
H683 H 0.09819 0.17835 0.22479 0.0
H684 H 0.05035 0.12398 0.20846 0.0
H685 H 0.04208 0.14452 0.42379 0.0
H686 H 0.03488 0.16076 0.37462 0.0
H687 H 0.05932 0.15717 0.38018 0.0
C688 C 0.05251 0.1878 0.24095 0.0
C689 C 0.07169 0.19096 0.22642 0.0
C690 C 0.04508 0.17035 0.26209 0.0
C691 C 0.0566 0.15568 0.26888 0.0
C692 C 0.0758 0.15879 0.25571 0.0
H693 H 0.02966 0.03739 0.36005 0.0
H694 H 0.04311 0.06637 0.31518 0.0
C695 C 0.08334 0.17635 0.23498 0.0
C696 C 0.04819 0.13682 0.28717 0.0
H697 H 0.02765 0.11415 0.3958 0.0
C698 C 0.04549 0.12169 0.24948 0.0
C699 C 0.04177 0.13411 0.34048 0.0
C700 C 0.04472 0.14992 0.38242 0.0
C701 C 0.03603 0.10391 0.26354 0.0
C702 C 0.02951 0.10119 0.31695 0.0
C703 C 0.0325 0.11632 0.35472 0.0
C704 C 0.01994 0.08272 0.33546 0.0
C705 C 0.03265 0.08843 0.22079 0.0
C706 C 0.00228 0.08216 0.36091 0.0
C707 C 0.99466 0.06568 0.38709 0.0
C708 C 0.00459 0.04952 0.38807 0.0
C709 C 0.02161 0.04961 0.35936 0.0
C710 C 0.02931 0.06616 0.33361 0.0
H711 H 0.03334 0.09447 0.17974 0.0
H712 H 0.04373 0.07856 0.22366 0.0
H713 H 0.0187 0.08 0.22614 0.0
H714 H 0.99482 0.0948 0.36276 0.0
H715 H 0.98156 0.06599 0.40913 0.0
H716 H 0.31334 0.97682 0.31447 0.0
H717 H 0.33765 0.96657 0.37308 0.0
H718 H 0.33576 0.913 0.28493 0.0
H719 H 0.31136 0.92328 0.22565 0.0
H720 H 0.34067 0.93111 0.43743 0.0
H721 H 0.39028 0.94205 0.2637 0.0
H722 H 0.36792 0.95186 0.26436 0.0
H723 H 0.36863 0.92659 0.25517 0.0
C724 C 0.31789 0.96273 0.30817 0.0
C725 C 0.3107 0.95092 0.26525 0.0
C726 C 0.33165 0.95685 0.34183 0.0
C727 C 0.33854 0.93912 0.33293 0.0
C728 C 0.3306 0.92676 0.29218 0.0
H729 H 0.45264 0.93602 0.45732 0.0
H730 H 0.42266 0.92207 0.41772 0.0
C731 C 0.31668 0.93261 0.25858 0.0
C732 C 0.35556 0.93503 0.36225 0.0
H733 H 0.40339 0.94014 0.34894 0.0
C734 C 0.3544 0.93257 0.41805 0.0
C735 C 0.37337 0.93677 0.33665 0.0
C736 C 0.37531 0.93952 0.27671 0.0
C737 C 0.37075 0.93306 0.4495 0.0
C738 C 0.38861 0.93664 0.42446 0.0
C739 C 0.3897 0.93748 0.36815 0.0
C740 C 0.40601 0.9426 0.45556 0.0
C741 C 0.36869 0.93043 0.50938 0.0
C742 C 0.40656 0.95861 0.49032 0.0
C743 C 0.42356 0.9665 0.51289 0.0
C744 C 0.44039 0.95871 0.50051 0.0
C745 C 0.43982 0.94229 0.46734 0.0
C746 C 0.42273 0.9343 0.44489 0.0
H747 H 0.35599 0.92044 0.51874 0.0
H748 H 0.38126 0.92483 0.52692 0.0
H749 H 0.36684 0.9444 0.52901 0.0
H750 H 0.39401 0.96566 0.49789 0.0
H751 H 0.42362 0.97918 0.53839 0.0
H752 H 0.40402 0.33693 0.13141 0.0
H753 H 0.41278 0.36709 0.18045 0.0
H754 H 0.44028 0.33674 0.30129 0.0
H755 H 0.43143 0.30652 0.25263 0.0
H756 H 0.42181 0.3688 0.34139 0.0
H757 H 0.46979 0.38648 0.16818 0.0
H758 H 0.44527 0.38108 0.15149 0.0
H759 H 0.45807 0.36275 0.1783 0.0
C760 C 0.41142 0.33666 0.16934 0.0
C761 C 0.41725 0.31949 0.18804 0.0
C762 C 0.41649 0.35386 0.19708 0.0
C763 C 0.42756 0.35412 0.24361 0.0
C764 C 0.43182 0.33679 0.26519 0.0
H765 H 0.5089 0.44056 0.38081 0.0
H766 H 0.49234 0.41306 0.33232 0.0
C767 C 0.42666 0.31954 0.23758 0.0
C768 C 0.43658 0.37243 0.26606 0.0
H769 H 0.46973 0.4097 0.23774 0.0
C770 C 0.43219 0.37784 0.31873 0.0
C771 C 0.45039 0.38393 0.23652 0.0
C772 C 0.45634 0.37826 0.18065 0.0
C773 C 0.4412 0.3946 0.34269 0.0
C774 C 0.45476 0.40626 0.31277 0.0
C775 C 0.45919 0.4008 0.2602 0.0
C776 C 0.46503 0.42379 0.3363 0.0
C777 C 0.43655 0.39941 0.40029 0.0
C778 C 0.45527 0.43922 0.35222 0.0
C779 C 0.46467 0.4549 0.37963 0.0
C780 C 0.48399 0.45539 0.39124 0.0
C781 C 0.49401 0.44052 0.3722 0.0
C782 C 0.48457 0.4248 0.3448 0.0
H783 H 0.42906 0.38694 0.42113 0.0
H784 H 0.44956 0.40442 0.42314 0.0
H785 H 0.42728 0.41111 0.401 0.0
H786 H 0.44026 0.43886 0.34494 0.0
H787 H 0.45664 0.46624 0.39372 0.0
H788 H 0.192 0.59649 0.29142 0.0
H789 H 0.15917 0.59148 0.32047 0.0
H790 H 0.14084 0.59524 0.15628 0.0
H791 H 0.17353 0.59874 0.12626 0.0
H792 H 0.12654 0.60781 0.31495 0.0
H793 H 0.12159 0.54085 0.19044 0.0
H794 H 0.14359 0.55554 0.20125 0.0
H795 H 0.12674 0.56255 0.1538 0.0
C796 C 0.18101 0.5964 0.26142 0.0
C797 C 0.1855 0.5974 0.20631 0.0
C798 C 0.16222 0.59373 0.27819 0.0
C799 C 0.14758 0.59232 0.24027 0.0
C800 C 0.15195 0.59569 0.18601 0.0
H801 H 0.03413 0.56084 0.37937 0.0
H802 H 0.05841 0.57809 0.32282 0.0
C803 C 0.17074 0.59799 0.16903 0.0
C804 C 0.12823 0.58495 0.25705 0.0
H805 H 0.09569 0.54576 0.24458 0.0
C806 C 0.11962 0.59439 0.2991 0.0
C807 C 0.11935 0.5673 0.23653 0.0
C808 C 0.12831 0.55585 0.19336 0.0
C809 C 0.10283 0.58624 0.32297 0.0
C810 C 0.09422 0.5684 0.30321 0.0
C811 C 0.1023 0.55949 0.25931 0.0
C812 C 0.07852 0.55742 0.33209 0.0
C813 C 0.09514 0.59618 0.37127 0.0
C814 C 0.08144 0.53966 0.35365 0.0
C815 C 0.06757 0.5297 0.38502 0.0
C816 C 0.05054 0.53736 0.39557 0.0
C817 C 0.0472 0.55469 0.37194 0.0
C818 C 0.0611 0.56463 0.34012 0.0
H819 H 0.10532 0.60799 0.3872 0.0
H820 H 0.08208 0.60234 0.35967 0.0
H821 H 0.09151 0.58587 0.404 0.0
H822 H 0.09475 0.53379 0.34777 0.0
H823 H 0.07049 0.51636 0.40268 0.0
H824 H 0.9269 0.82036 0.91477 0.0
H825 H 0.93718 0.85262 0.88277 0.0
H826 H 0.99499 0.8443 0.91657 0.0
H827 H 0.98489 0.81219 0.94842 0.0
H828 H 0.95685 0.88303 0.941 0.0
H829 H 0.99761 0.86282 0.76196 0.0
H830 H 0.98116 0.84588 0.79647 0.0
H831 H 0.00436 0.85245 0.82348 0.0
C832 C 0.94181 0.82537 0.9149 0.0
C833 C 0.9551 0.81365 0.93352 0.0
C834 C 0.94765 0.84377 0.89672 0.0
C835 C 0.96685 0.85073 0.89679 0.0
C836 C 0.98014 0.83904 0.91509 0.0
H837 H 0.02623 0.95675 0.77989 0.0
H838 H 0.0187 0.92829 0.83503 0.0
C839 C 0.97434 0.82066 0.93305 0.0
C840 C 0.973 0.87039 0.87909 0.0
H841 H 1.00016 0.89567 0.78606 0.0
C842 C 0.96632 0.88583 0.90713 0.0
C843 C 0.98544 0.87396 0.83513 0.0
C844 C 0.99245 0.85792 0.80215 0.0
C845 C 0.97175 0.90479 0.89224 0.0
C846 C 0.98403 0.90832 0.84793 0.0
C847 C 0.99093 0.8929 0.8205 0.0
C848 C 0.98847 0.92764 0.82554 0.0
C849 C 0.96435 0.92087 0.92403 0.0
C850 C 0.97394 0.93698 0.8036 0.0
C851 C 0.97821 0.95311 0.77223 0.0
C852 C 0.99707 0.96011 0.76217 0.0
C853 C 0.01159 0.95166 0.78739 0.0
C854 C 0.0073 0.9354 0.81863 0.0
H855 H 0.9602 0.9164 0.96543 0.0
H856 H 0.97501 0.93359 0.92661 0.0
H857 H 0.95164 0.92512 0.90374 0.0
H858 H 0.95934 0.93106 0.80759 0.0
H859 H 0.96676 0.95941 0.75316 0.0
H860 H 0.69531 0.02715 0.84978 0.0
H861 H 0.67023 0.03509 0.7912 0.0
H862 H 0.68461 0.09514 0.82752 0.0
H863 H 0.70975 0.08713 0.8878 0.0
H864 H 0.6482 0.08626 0.83663 0.0
H865 H 0.66912 0.0557 0.64368 0.0
H866 H 0.66938 0.03771 0.69363 0.0
H867 H 0.68529 0.05944 0.69955 0.0
C868 C 0.69349 0.04209 0.84429 0.0
C869 C 0.70462 0.05654 0.8729 0.0
C870 C 0.67917 0.04664 0.81051 0.0
C871 C 0.67583 0.06576 0.80371 0.0
C872 C 0.68709 0.08031 0.83166 0.0
H873 H 0.57903 0.06082 0.58785 0.0
H874 H 0.60996 0.07379 0.62288 0.0
C875 C 0.70138 0.07572 0.8661 0.0
C876 C 0.6593 0.06998 0.77182 0.0
H877 H 0.63488 0.05463 0.65895 0.0
C878 C 0.64547 0.07981 0.79709 0.0
C879 C 0.65589 0.0622 0.71946 0.0
C880 C 0.67086 0.0534 0.6874 0.0
C881 C 0.62765 0.08031 0.77371 0.0
C882 C 0.62339 0.07014 0.72485 0.0
C883 C 0.63787 0.06205 0.69709 0.0
C884 C 0.60375 0.06559 0.70518 0.0
C885 C 0.61349 0.09132 0.80249 0.0
C886 C 0.58982 0.05697 0.7398 0.0
C887 C 0.57208 0.04993 0.72004 0.0
C888 C 0.56812 0.05088 0.66503 0.0
C889 C 0.58179 0.05993 0.6305 0.0
C890 C 0.59944 0.06733 0.65048 0.0
H891 H 0.62066 0.10426 0.82304 0.0
H892 H 0.60277 0.09582 0.77449 0.0
H893 H 0.60625 0.08223 0.83396 0.0
H894 H 0.59292 0.05478 0.78168 0.0
H895 H 0.56183 0.04284 0.74736 0.0
H896 H 0.60062 0.67045 0.01075 0.0
H897 H 0.59134 0.63832 0.9753 0.0
H898 H 0.58105 0.66154 0.82004 0.0
H899 H 0.59131 0.69372 0.85438 0.0
H900 H 0.55645 0.62702 0.94127 0.0
H901 H 0.60673 0.6153 0.77722 0.0
H902 H 0.61124 0.63429 0.82686 0.0
H903 H 0.59648 0.63729 0.76967 0.0
C904 C 0.59714 0.66873 0.96846 0.0
C905 C 0.5967 0.68474 0.93542 0.0
C906 C 0.59163 0.65032 0.94843 0.0
C907 C 0.58556 0.6475 0.89503 0.0
C908 C 0.58599 0.66331 0.86116 0.0
H909 H 0.50256 0.56413 0.75795 0.0
H910 H 0.51966 0.59048 0.80933 0.0
C911 C 0.59165 0.68175 0.88104 0.0
C912 C 0.57678 0.62846 0.87661 0.0
H913 H 0.57709 0.59534 0.77486 0.0
C914 C 0.56115 0.61994 0.90531 0.0
C915 C 0.58302 0.61911 0.83013 0.0
C916 C 0.60042 0.62688 0.79954 0.0
C917 C 0.55114 0.60272 0.88758 0.0
C918 C 0.55665 0.59403 0.83921 0.0
C919 C 0.57275 0.60212 0.81171 0.0
C920 C 0.54553 0.57706 0.81485 0.0
C921 C 0.53473 0.59406 0.92078 0.0
C922 C 0.55433 0.56073 0.80122 0.0
C923 C 0.54465 0.54579 0.77144 0.0
C924 C 0.52601 0.54695 0.75484 0.0
C925 C 0.51686 0.56282 0.77081 0.0
C926 C 0.52661 0.57785 0.80028 0.0
H927 H 0.53623 0.59865 0.9637 0.0
H928 H 0.52151 0.59897 0.90546 0.0
H929 H 0.5334 0.57819 0.91841 0.0
H930 H 0.56892 0.55984 0.812 0.0
H931 H 0.55203 0.5337 0.75948 0.0
H932 H 0.82621 0.38929 0.93644 0.0
H933 H 0.85733 0.38863 0.894 0.0
H934 H 0.85266 0.44391 0.82593 0.0
H935 H 0.82206 0.44488 0.8683 0.0
H936 H 0.8661 0.41681 0.75354 0.0
H937 H 0.90484 0.42316 0.94853 0.0
H938 H 0.88638 0.40377 0.93993 0.0
H939 H 0.88056 0.42795 0.94338 0.0
C940 C 0.83181 0.40124 0.91216 0.0
C941 C 0.82159 0.4171 0.90562 0.0
C942 C 0.84956 0.40084 0.88805 0.0
C943 C 0.8573 0.41631 0.8573 0.0
C944 C 0.84687 0.4318 0.84934 0.0
H945 H 0.95911 0.47705 0.76754 0.0
H946 H 0.93159 0.46107 0.81396 0.0
C947 C 0.82926 0.43223 0.87331 0.0
C948 C 0.87655 0.41717 0.83461 0.0
H949 H 0.92289 0.42687 0.86961 0.0
C950 C 0.8786 0.4186 0.77869 0.0
C951 C 0.89271 0.41967 0.86786 0.0
C952 C 0.89117 0.41868 0.92832 0.0
C953 C 0.89629 0.42357 0.75515 0.0
C954 C 0.91242 0.42675 0.78853 0.0
C955 C 0.91049 0.42432 0.84426 0.0
C956 C 0.93087 0.4348 0.76681 0.0
C957 C 0.89735 0.42666 0.69518 0.0
C958 C 0.94001 0.42501 0.72659 0.0
C959 C 0.95557 0.43419 0.69968 0.0
C960 C 0.96234 0.45317 0.71323 0.0
C961 C 0.95411 0.46242 0.7563 0.0
C962 C 0.93843 0.4533 0.78284 0.0
H963 H 0.88319 0.42716 0.6771 0.0
H964 H 0.90618 0.44021 0.68601 0.0
H965 H 0.90389 0.41471 0.67551 0.0
H966 H 0.93462 0.41059 0.71443 0.0
H967 H 0.96182 0.4267 0.66688 0.0
H968 H 0.08245 0.21133 0.7653 0.0
H969 H 0.07444 0.18063 0.71827 0.0
H970 H 0.02466 0.16985 0.81674 0.0
H971 H 0.03263 0.20029 0.86426 0.0
H972 H 0.07125 0.14497 0.76694 0.0
H973 H 0.00449 0.1567 0.66522 0.0
H974 H 0.02066 0.17615 0.69158 0.0
H975 H 0.00466 0.16245 0.73589 0.0
C976 C 0.06967 0.20254 0.77652 0.0
C977 C 0.05817 0.20836 0.81853 0.0
C978 C 0.06511 0.18501 0.74955 0.0
C979 C 0.04887 0.17301 0.76367 0.0
C980 C 0.03705 0.17904 0.80436 0.0
H981 H 0.02511 0.04996 0.72053 0.0
H982 H 0.03366 0.08255 0.75507 0.0
C983 C 0.04161 0.19653 0.8314 0.0
C984 C 0.04499 0.15363 0.73874 0.0
H985 H 0.01173 0.12441 0.66941 0.0
C986 C 0.0583 0.14051 0.74525 0.0
C987 C 0.02816 0.14787 0.71015 0.0
C988 C 0.01374 0.16157 0.69977 0.0
C989 C 0.05503 0.12166 0.72501 0.0
C990 C 0.03789 0.11569 0.69815 0.0
C991 C 0.02478 0.12894 0.69051 0.0
C992 C 0.03331 0.09581 0.67723 0.0
C993 C 0.07004 0.10834 0.73211 0.0
C994 C 0.03005 0.09245 0.62212 0.0
C995 C 0.0251 0.07387 0.60224 0.0
C996 C 0.02317 0.0582 0.63715 0.0
C997 C 0.02656 0.06162 0.6924 0.0
C998 C 0.03153 0.08025 0.71223 0.0
H999 H 0.08404 0.11632 0.74086 0.0
H1000 H 0.06616 0.09881 0.76642 0.0
H1001 H 0.07128 0.09923 0.69558 0.0
H1002 H 0.03129 0.10424 0.5944 0.0
H1003 H 0.02259 0.07186 0.55947 0.0
H1004 H 0.31947 0.98082 0.8493 0.0
H1005 H 0.34917 0.9831 0.79931 0.0
H1006 H 0.3502 0.0445 0.79702 0.0
H1007 H 0.32043 0.04236 0.84714 0.0
H1008 H 0.36097 0.99829 0.7006 0.0
H1009 H 0.40023 0.03735 0.86855 0.0
H1010 H 0.37654 0.02583 0.87634 0.0
H1011 H 0.38057 0.04872 0.84469 0.0
C1012 C 0.32577 0.99481 0.8373 0.0
C1013 C 0.31754 0.01143 0.85261 0.0
C1014 C 0.34286 0.99609 0.80893 0.0
C1015 C 0.35216 0.01399 0.79531 0.0
C1016 C 0.34355 0.03055 0.80822 0.0
H1017 H 0.46299 0.04905 0.65744 0.0
H1018 H 0.43065 0.0478 0.69207 0.0
C1019 C 0.32649 0.0293 0.83678 0.0
C1020 C 0.37115 0.01529 0.76947 0.0
H1021 H 0.41721 0.03324 0.7882 0.0
C1022 C 0.37327 0.00593 0.71972 0.0
C1023 C 0.38724 0.02519 0.79451 0.0
C1024 C 0.38615 0.0347 0.84918 0.0
C1025 C 0.39096 0.00644 0.69406 0.0
C1026 C 0.40704 0.01632 0.71922 0.0
C1027 C 0.40488 0.02574 0.7688 0.0
C1028 C 0.42631 0.0169 0.69547 0.0
C1029 C 0.3922 0.99666 0.63983 0.0
C1030 C 0.43473 0.99996 0.68611 0.0
C1031 C 0.45322 1.00066 0.6664 0.0
C1032 C 0.4637 0.01832 0.65586 0.0
C1033 C 0.45526 0.03524 0.66512 0.0
C1034 C 0.43678 0.03454 0.68487 0.0
H1035 H 0.37826 0.99448 0.61954 0.0
H1036 H 0.40237 0.00505 0.6131 0.0
H1037 H 0.39716 0.98238 0.64525 0.0
H1038 H 0.42715 0.9862 0.69515 0.0
H1039 H 0.45941 0.98738 0.66019 0.0
H1040 H 0.47803 0.30896 0.86657 0.0
H1041 H 0.4828 0.34075 0.82809 0.0
H1042 H 0.44737 0.32113 0.69367 0.0
H1043 H 0.44231 0.28914 0.73247 0.0
H1044 H 0.49743 0.35457 0.73493 0.0
H1045 H 0.42179 0.36638 0.74761 0.0
H1046 H 0.43105 0.34645 0.77911 0.0
H1047 H 0.42619 0.34571 0.7081 0.0
C1048 C 0.47154 0.31123 0.82822 0.0
C1049 C 0.4598 0.29644 0.80257 0.0
C1050 C 0.47417 0.32951 0.80647 0.0
C1051 C 0.46512 0.33349 0.75859 0.0
C1052 C 0.45408 0.31856 0.73146 0.0
H1053 H 0.46939 0.43719 0.57194 0.0
H1054 H 0.46293 0.40471 0.60606 0.0
C1055 C 0.45132 0.30024 0.75344 0.0
C1056 C 0.46714 0.35335 0.73798 0.0
H1057 H 0.44227 0.39053 0.70562 0.0
C1058 C 0.48536 0.36242 0.72863 0.0
C1059 C 0.45138 0.36367 0.73004 0.0
C1060 C 0.43151 0.35516 0.74219 0.0
C1061 C 0.48825 0.38141 0.71116 0.0
C1062 C 0.47252 0.39166 0.70313 0.0
C1063 C 0.45429 0.3826 0.71195 0.0
C1064 C 0.47482 0.41172 0.68471 0.0
C1065 C 0.5081 0.39035 0.70077 0.0
C1066 C 0.48309 0.42654 0.71832 0.0
C1067 C 0.48669 0.44519 0.69912 0.0
C1068 C 0.48218 0.44929 0.64582 0.0
C1069 C 0.47314 0.43452 0.6131 0.0
C1070 C 0.46942 0.41594 0.63249 0.0
H1071 H 0.51838 0.37954 0.6996 0.0
H1072 H 0.50887 0.39807 0.66209 0.0
H1073 H 0.51236 0.40092 0.73334 0.0
H1074 H 0.48718 0.42357 0.75899 0.0
H1075 H 0.49371 0.45618 0.72533 0.0
H1076 H 0.20742 0.49648 0.84208 0.0
H1077 H 0.17829 0.48947 0.7894 0.0
H1078 H 0.16295 0.54581 0.82808 0.0
H1079 H 0.19196 0.55297 0.87935 0.0
H1080 H 0.14188 0.48794 0.81834 0.0
H1081 H 0.15623 0.54471 0.66831 0.0
H1082 H 0.17418 0.53821 0.71331 0.0
H1083 H 0.15773 0.55448 0.73542 0.0
C1084 C 0.19789 0.5074 0.83879 0.0
C1085 C 0.20219 0.52541 0.86397 0.0
C1086 C 0.18126 0.50339 0.80877 0.0
C1087 C 0.16861 0.51728 0.80364 0.0
C1088 C 0.17275 0.53509 0.82974 0.0
H1089 H 0.04916 0.5008 0.72765 0.0
H1090 H 0.08011 0.50341 0.77105 0.0
C1091 C 0.18938 0.53916 0.85913 0.0
C1092 C 0.15074 0.51312 0.77277 0.0
H1093 H 0.12398 0.53132 0.67664 0.0
C1094 C 0.13805 0.49729 0.78689 0.0
C1095 C 0.14581 0.5251 0.73105 0.0
C1096 C 0.15931 0.54144 0.71074 0.0
C1097 C 0.12035 0.49352 0.76179 0.0
C1098 C 0.11495 0.50624 0.72254 0.0
C1099 C 0.12792 0.52169 0.70724 0.0
C1100 C 0.09601 0.50391 0.69656 0.0
C1101 C 0.10778 0.47579 0.7772 0.0
C1102 C 0.09453 0.50388 0.64023 0.0
C1103 C 0.07688 0.50285 0.6154 0.0
C1104 C 0.06025 0.50166 0.64631 0.0
C1105 C 0.06169 0.50149 0.70269 0.0
C1106 C 0.0794 0.50282 0.72756 0.0
H1107 H 0.11611 0.46469 0.79323 0.0
H1108 H 0.09791 0.47956 0.8093 0.0
H1109 H 0.09939 0.46958 0.74235 0.0
H1110 H 0.10709 0.50476 0.61533 0.0
H1111 H 0.0763 0.50292 0.57187 0.0
H1112 H 0.93901 0.79158 0.37812 0.0
H1113 H 0.9453 0.82348 0.41971 0.0
H1114 H 0.99506 0.83465 0.32143 0.0
H1115 H 0.98884 0.803 0.27932 0.0
H1116 H 1.00035 0.84729 0.42846 0.0
H1117 H 0.93629 0.87244 0.33932 0.0
H1118 H 0.93199 0.85119 0.37855 0.0
H1119 H 0.94543 0.85063 0.31736 0.0
C1120 C 0.95137 0.80077 0.36561 0.0
C1121 C 0.96337 0.79469 0.32518 0.0
C1122 C 0.9549 0.81902 0.38929 0.0
C1123 C 0.97044 0.83157 0.37287 0.0
C1124 C 0.98295 0.82522 0.33455 0.0
H1125 H 0.98923 0.9556 0.41617 0.0
H1126 H 0.98366 0.92288 0.37944 0.0
C1127 C 0.97943 0.80701 0.31085 0.0
C1128 C 0.97345 0.85152 0.39431 0.0
H1129 H 0.95385 0.8938 0.39986 0.0
C1130 C 0.99018 0.85746 0.42229 0.0
C1131 C 0.96033 0.86486 0.38529 0.0
C1132 C 0.94257 0.85958 0.35309 0.0
C1133 C 0.99399 0.87629 0.44232 0.0
C1134 C 0.9806 0.88947 0.43473 0.0
C1135 C 0.96402 0.88363 0.40596 0.0
C1136 C 0.9835 0.90931 0.4569 0.0
C1137 C 0.01247 0.88201 0.47071 0.0
C1138 C 0.98485 0.91254 0.51262 0.0
C1139 C 0.98801 0.93115 0.53371 0.0
C1140 C 0.98979 0.94702 0.49954 0.0
C1141 C 0.98798 0.94376 0.44368 0.0
C1142 C 0.9848 0.92507 0.4226 0.0
H1143 H 0.02308 0.87199 0.46095 0.0
H1144 H 0.01836 0.8967 0.45977 0.0
H1145 H 0.01008 0.88181 0.51483 0.0
H1146 H 0.98349 0.90062 0.53989 0.0
H1147 H 0.98916 0.93302 0.57695 0.0
H1148 H 0.69999 0.01281 0.34686 0.0
H1149 H 0.67026 0.00998 0.39725 0.0
H1150 H 0.64487 0.97076 0.27638 0.0
H1151 H 0.67438 0.9738 0.22521 0.0
H1152 H 0.62369 1.00128 0.30137 0.0
H1153 H 0.64424 0.96576 0.48657 0.0
H1154 H 0.65953 0.98671 0.46861 0.0
H1155 H 0.65794 0.96587 0.42529 0.0
C1156 C 0.68813 0.00344 0.33123 0.0
C1157 C 0.68963 0.99351 0.28194 0.0
C1158 C 0.67118 1.00172 0.36033 0.0
C1159 C 0.65535 0.99003 0.34087 0.0
C1160 C 0.65691 0.97978 0.29235 0.0
H1161 H 0.54685 0.95776 0.49403 0.0
H1162 H 0.57816 0.95846 0.45239 0.0
C1163 C 0.67387 0.98141 0.26335 0.0
C1164 C 0.63684 0.98946 0.36908 0.0
H1165 H 0.61422 0.97753 0.48729 0.0
C1166 C 0.62161 0.99605 0.34198 0.0
C1167 C 0.63411 0.98253 0.42195 0.0
C1168 C 0.64975 0.97465 0.4523 0.0
C1169 C 0.60382 0.99611 0.36647 0.0
C1170 C 0.60117 0.98957 0.41975 0.0
C1171 C 0.61632 0.98272 0.44665 0.0
C1172 C 0.58263 0.98931 0.44753 0.0
C1173 C 0.58787 0.00291 0.33483 0.0
C1174 C 0.57487 0.00644 0.45957 0.0
C1175 C 0.557 0.00606 0.48346 0.0
C1176 C 0.54656 0.98855 0.49574 0.0
C1177 C 0.55453 0.97146 0.48478 0.0
C1178 C 0.57243 0.97184 0.46113 0.0
H1179 H 0.59105 0.00353 0.29107 0.0
H1180 H 0.5746 0.99337 0.34092 0.0
H1181 H 0.58548 0.01751 0.34907 0.0
H1182 H 0.58259 0.02009 0.45008 0.0
H1183 H 0.55123 0.01947 0.49139 0.0
H1184 H 0.53703 0.68894 0.25176 0.0
H1185 H 0.53125 0.65819 0.29667 0.0
H1186 H 0.56805 0.67965 0.42626 0.0
H1187 H 0.57386 0.71063 0.38167 0.0
H1188 H 0.56341 0.63554 0.32719 0.0
H1189 H 0.51708 0.65363 0.4973 0.0
H1190 H 0.51883 0.66711 0.43592 0.0
H1191 H 0.5378 0.66984 0.48348 0.0
C1192 C 0.54354 0.68732 0.29048 0.0
C1193 C 0.55582 0.7023 0.31332 0.0
C1194 C 0.54034 0.66967 0.31581 0.0
C1195 C 0.54918 0.66669 0.36476 0.0
C1196 C 0.561 0.68174 0.38863 0.0
H1197 H 0.54019 0.56674 0.57015 0.0
H1198 H 0.54859 0.59839 0.53228 0.0
C1199 C 0.56434 0.69938 0.36306 0.0
C1200 C 0.54681 0.64749 0.38909 0.0
H1201 H 0.52548 0.62217 0.49254 0.0
C1202 C 0.55515 0.63257 0.3634 0.0
C1203 C 0.5362 0.64378 0.43652 0.0
C1204 C 0.52683 0.65934 0.46507 0.0
C1205 C 0.55316 0.61397 0.38396 0.0
C1206 C 0.54207 0.61007 0.43065 0.0
C1207 C 0.53396 0.62512 0.45673 0.0
C1208 C 0.53824 0.59044 0.45239 0.0
C1209 C 0.56326 0.59881 0.35591 0.0
C1210 C 0.52973 0.57534 0.42008 0.0
C1211 C 0.52511 0.55715 0.44145 0.0
C1212 C 0.52859 0.55374 0.49591 0.0
C1213 C 0.53731 0.56883 0.52804 0.0
C1214 C 0.54209 0.58697 0.50648 0.0
H1215 H 0.57567 0.60524 0.33286 0.0
H1216 H 0.5681 0.58859 0.38503 0.0
H1217 H 0.55349 0.59071 0.32697 0.0
H1218 H 0.52616 0.57773 0.37863 0.0
H1219 H 0.51819 0.54596 0.41569 0.0
H1220 H 0.79906 0.47659 0.34865 0.0
H1221 H 0.82843 0.48222 0.40007 0.0
H1222 H 0.85595 0.51071 0.26435 0.0
H1223 H 0.82677 0.5051 0.21274 0.0
H1224 H 0.86149 0.46784 0.37171 0.0
H1225 H 0.87349 0.54695 0.38769 0.0
H1226 H 0.85093 0.53438 0.36932 0.0
H1227 H 0.86943 0.53816 0.32004 0.0
C1228 C 0.81129 0.4843 0.33001 0.0
C1229 C 0.81051 0.49042 0.27654 0.0
C1230 C 0.82806 0.48754 0.3595 0.0
C1231 C 0.84437 0.49706 0.33632 0.0
C1232 C 0.84346 0.50374 0.28361 0.0
H1233 H 0.96344 0.51439 0.4156 0.0
H1234 H 0.93227 0.5136 0.37417 0.0
C1235 C 0.82671 0.50053 0.25412 0.0
C1236 C 0.86269 0.49845 0.3653 0.0
H1237 H 0.89963 0.5299 0.40912 0.0
C1238 C 0.86973 0.48143 0.38041 0.0
C1239 C 0.87352 0.51617 0.37625 0.0
C1240 C 0.86641 0.53497 0.36295 0.0
C1241 C 0.88746 0.48159 0.40498 0.0
C1242 C 0.89835 0.49929 0.41564 0.0
C1243 C 0.89128 0.51634 0.40086 0.0
C1244 C 0.91716 0.50034 0.44174 0.0
C1245 C 0.89462 0.46276 0.41788 0.0
C1246 C 0.91899 0.49345 0.49388 0.0
C1247 C 0.93678 0.49383 0.51768 0.0
C1248 C 0.95315 0.50123 0.48995 0.0
C1249 C 0.9512 0.50852 0.43813 0.0
C1250 C 0.93338 0.50812 0.41436 0.0
H1251 H 0.88687 0.45063 0.39517 0.0
H1252 H 0.90989 0.46309 0.40857 0.0
H1253 H 0.89263 0.45999 0.46144 0.0
H1254 H 0.90664 0.48772 0.51619 0.0
H1255 H 0.93766 0.48821 0.55777 0.0
loop_
_geom_bond_atom_site_label_1
_geom_bond_atom_site_label_2
_geom_bond_distance
_geom_bond_site_symmetry_2
_ccdc_geom_bond_type
C0 C1 1.386 . S
C0 C2 1.397 . S
C0 H24 0.931 . S
C1 C0 1.386 . S
C1 C5 1.397 . S
C2 C0 1.397 . S
C2 C3 1.384 . S
C2 H25 0.930 . S
C3 C2 1.384 . S
C3 C4 1.377 . S
C3 C6 1.481 . S
C4 C3 1.377 . S
C4 C5 1.389 . S
C4 H26 0.929 . S
C5 C1 1.397 . S
C5 C4 1.389 . S
C5 H27 0.931 . S
C6 C3 1.481 . S
C6 C7 1.387 . S
C6 C11 1.390 1_556 S
C7 C6 1.387 . S
C7 C8 1.401 1_556 S
C7 H28 0.930 . S
C8 C7 1.401 1_554 S
C8 C9 1.376 . S
C8 C17 1.511 1_554 S
C9 C8 1.376 . S
C9 C10 1.392 . S
C9 H30 0.931 . S
C10 C9 1.392 . S
C10 C11 1.361 . S
C10 C12 1.500 . S
C11 C6 1.390 1_554 S
C11 C10 1.361 . S
C11 H29 0.931 . S
C12 C10 1.500 . S
C12 C13 1.371 . S
C12 C14 1.365 . S
C13 C12 1.371 . S
C13 C23 1.386 . S
C13 H31 0.931 . S
C14 C12 1.365 . S
C14 C15 1.409 . S
C14 H32 0.929 . S
C15 C14 1.409 . S
C15 C16 1.380 . S
C15 H33 0.930 . S
C16 C15 1.380 . S
C16 C23 1.357 . S
C17 C8 1.511 1_556 S
C17 C18 1.341 . S
C17 C19 1.371 1_556 S
C18 C17 1.341 . S
C18 C22 1.394 . S
C18 H34 0.930 . S
C19 C17 1.371 1_554 S
C19 C20 1.392 . S
C19 H35 0.931 . S
C20 C19 1.392 . S
C20 C21 1.331 1_554 S
C20 H38 0.932 . S
C21 C20 1.331 1_556 S
C21 C22 1.336 . S
C22 C18 1.394 . S
C22 C21 1.336 . S
C22 H37 0.929 . S
C23 C13 1.386 . S
C23 C16 1.357 . S
C23 H36 0.928 . S
H24 C0 0.931 . S
H25 C2 0.930 . S
H26 C4 0.929 . S
H27 C5 0.931 . S
H28 C7 0.930 . S
H29 C11 0.931 . S
H30 C9 0.931 . S
H31 C13 0.931 . S
H32 C14 0.929 . S
H33 C15 0.930 . S
H34 C18 0.930 . S
H35 C19 0.931 . S
H36 C23 0.928 . S
H37 C22 0.929 . S
H38 C20 0.932 . S
C39 C40 1.386 . S
C39 C41 1.397 . S
C39 H63 0.931 . S
C40 C39 1.386 . S
C40 C44 1.397 . S
C41 C39 1.397 . S
C41 C42 1.384 . S
C41 H64 0.930 . S
C42 C41 1.384 . S
C42 C43 1.377 . S
C42 C45 1.481 . S
C43 C42 1.377 . S
C43 C44 1.389 . S
C43 H65 0.929 . S
C44 C40 1.397 . S
C44 C43 1.389 . S
C44 H66 0.931 . S
C45 C42 1.481 . S
C45 C46 1.387 . S
C45 C50 1.390 1_556 S
C46 C45 1.387 . S
C46 C47 1.401 . S
C46 H67 0.930 . S
C47 C46 1.401 . S
C47 C48 1.376 1_556 S
C47 C56 1.511 . S
C48 C47 1.376 1_554 S
C48 C49 1.392 . S
C48 H69 0.931 . S
C49 C48 1.392 . S
C49 C50 1.361 . S
C49 C51 1.500 . S
C50 C45 1.390 1_554 S
C50 C49 1.361 . S
C50 H68 0.931 . S
C51 C49 1.500 . S
C51 C52 1.371 . S
C51 C53 1.365 . S
C52 C51 1.371 . S
C52 C62 1.386 . S
C52 H70 0.931 . S
C53 C51 1.365 . S
C53 C54 1.409 . S
C53 H71 0.929 . S
C54 C53 1.409 . S
C54 C55 1.380 . S
C54 H72 0.930 . S
C55 C54 1.380 . S
C55 C62 1.357 . S
C56 C47 1.511 . S
C56 C57 1.341 . S
C56 C58 1.371 1_556 S
C57 C56 1.341 . S
C57 C61 1.394 . S
C57 H73 0.930 . S
C58 C56 1.371 1_554 S
C58 C59 1.392 1_554 S
C58 H74 0.931 . S
C59 C58 1.392 1_556 S
C59 C60 1.331 . S
C59 H77 0.931 1_556 S
C60 C59 1.331 . S
C60 C61 1.336 . S
C61 C57 1.394 . S
C61 C60 1.336 . S
C61 H76 0.929 . S
C62 C52 1.386 . S
C62 C55 1.357 . S
C62 H75 0.928 . S
H63 C39 0.931 . S
H64 C41 0.930 . S
H65 C43 0.929 . S
H66 C44 0.931 . S
H67 C46 0.930 . S
H68 C50 0.931 . S
H69 C48 0.931 . S
H70 C52 0.931 . S
H71 C53 0.929 . S
H72 C54 0.930 . S
H73 C57 0.930 . S
H74 C58 0.931 . S
H75 C62 0.928 . S
H76 C61 0.929 . S
H77 C59 0.931 1_554 S
C78 C79 1.396 . S
C78 C80 1.397 . S
C78 H102 0.931 . S
C79 C78 1.396 . S
C79 C83 1.389 1_565 S
C80 C78 1.397 . S
C80 C81 1.389 . S
C80 H103 0.930 . S
C81 C80 1.389 . S
C81 C82 1.372 1_565 S
C81 C84 1.478 . S
C82 C81 1.372 1_545 S
C82 C83 1.389 . S
C82 H104 0.929 . S
C83 C79 1.389 1_545 S
C83 C82 1.389 . S
C83 H105 0.931 . S
C84 C81 1.478 . S
C84 C85 1.392 . S
C84 C89 1.390 1_556 S
C85 C84 1.392 . S
C85 C86 1.399 1_556 S
C85 H106 0.930 . S
C86 C85 1.399 1_554 S
C86 C87 1.376 . S
C86 C95 1.516 . S
C87 C86 1.376 . S
C87 C88 1.387 . S
C87 H108 0.938 . S
C88 C87 1.387 . S
C88 C89 1.362 . S
C88 C90 1.499 1_565 S
C89 C84 1.390 1_554 S
C89 C88 1.362 . S
C89 H107 0.930 . S
C90 C88 1.499 1_545 S
C90 C91 1.362 1_545 S
C90 C92 1.375 . S
C91 C90 1.362 1_565 S
C91 C101 1.386 . S
C91 H109 0.931 . S
C92 C90 1.375 . S
C92 C93 1.409 . S
C92 H110 0.929 . S
C93 C92 1.409 . S
C93 C94 1.378 . S
C93 H111 0.930 . S
C94 C93 1.378 . S
C94 C101 1.360 1_545 S
C95 C86 1.516 . S
C95 C96 1.341 1_554 S
C95 C97 1.371 1_565 S
C96 C95 1.341 1_556 S
C96 C100 1.394 . S
C96 H112 0.930 . S
C97 C95 1.371 1_545 S
C97 C98 1.392 . S
C97 H113 0.931 . S
C98 C97 1.392 . S
C98 C99 1.322 1_544 S
C98 H116 0.932 . S
C99 C98 1.322 1_566 S
C99 C100 1.343 . S
C100 C96 1.394 . S
C100 C99 1.343 . S
C100 H115 0.929 . S
C101 C91 1.386 . S
C101 C94 1.360 1_565 S
C101 H114 0.928 . S
H102 C78 0.931 . S
H103 C80 0.930 . S
H104 C82 0.929 . S
H105 C83 0.931 . S
H106 C85 0.930 . S
H107 C89 0.930 . S
H108 C87 0.938 . S
H109 C91 0.931 . S
H110 C92 0.929 . S
H111 C93 0.930 . S
H112 C96 0.930 . S
H113 C97 0.931 . S
H114 C101 0.928 . S
H115 C100 0.929 . S
H116 C98 0.932 . S
C117 C118 1.386 . S
C117 C119 1.397 . S
C117 H141 0.931 . S
C118 C117 1.386 . S
C118 C122 1.397 . S
C119 C117 1.397 . S
C119 C120 1.384 . S
C119 H142 0.930 . S
C120 C119 1.384 . S
C120 C121 1.377 . S
C120 C123 1.481 . S
C121 C120 1.377 . S
C121 C122 1.389 . S
C121 H143 0.929 . S
C122 C118 1.397 . S
C122 C121 1.389 . S
C122 H144 0.931 . S
C123 C120 1.481 . S
C123 C124 1.387 . S
C123 C128 1.390 . S
C124 C123 1.387 . S
C124 C125 1.401 . S
C124 H145 0.930 . S
C125 C124 1.401 . S
C125 C126 1.376 . S
C125 C134 1.511 . S
C126 C125 1.376 . S
C126 C127 1.392 . S
C126 H147 0.931 1_554 S
C127 C126 1.392 . S
C127 C128 1.361 . S
C127 C129 1.500 1_554 S
C128 C123 1.390 . S
C128 C127 1.361 . S
C128 H146 0.931 . S
C129 C127 1.500 1_556 S
C129 C130 1.371 . S
C129 C131 1.365 . S
C130 C129 1.371 . S
C130 C140 1.386 . S
C130 H148 0.931 . S
C131 C129 1.365 . S
C131 C132 1.409 . S
C131 H149 0.929 1_556 S
C132 C131 1.409 . S
C132 C133 1.380 . S
C132 H150 0.930 . S
C133 C132 1.380 . S
C133 C140 1.357 . S
C134 C125 1.511 . S
C134 C135 1.341 . S
C134 C136 1.371 1_554 S
C135 C134 1.341 . S
C135 C139 1.394 . S
C135 H151 0.930 . S
C136 C134 1.371 1_556 S
C136 C137 1.392 . S
C136 H152 0.931 . S
C137 C136 1.392 . S
C137 C138 1.331 1_556 S
C137 H155 0.932 . S
C138 C137 1.331 1_554 S
C138 C139 1.336 . S
C139 C135 1.394 . S
C139 C138 1.336 . S
C139 H154 0.929 . S
C140 C130 1.386 . S
C140 C133 1.357 . S
C140 H153 0.928 . S
H141 C117 0.931 . S
H142 C119 0.930 . S
H143 C121 0.929 . S
H144 C122 0.931 . S
H145 C124 0.930 . S
H146 C128 0.931 . S
H147 C126 0.931 1_556 S
H148 C130 0.931 . S
H149 C131 0.929 1_554 S
H150 C132 0.930 . S
H151 C135 0.930 . S
H152 C136 0.931 . S
H153 C140 0.928 . S
H154 C139 0.929 . S
H155 C137 0.932 . S
C156 C157 1.386 . S
C156 C158 1.397 . S
C156 H180 0.931 . S
C157 C156 1.386 . S
C157 C161 1.397 . S
C158 C156 1.397 . S
C158 C159 1.384 . S
C158 H181 0.930 . S
C159 C158 1.384 . S
C159 C160 1.377 . S
C159 C162 1.481 . S
C160 C159 1.377 . S
C160 C161 1.389 . S
C160 H182 0.929 . S
C161 C157 1.397 . S
C161 C160 1.389 . S
C161 H183 0.931 . S
C162 C159 1.481 . S
C162 C163 1.387 . S
C162 C167 1.390 . S
C163 C162 1.387 . S
C163 C164 1.401 . S
C163 H184 0.930 . S
C164 C163 1.401 . S
C164 C165 1.376 . S
C164 C173 1.511 . S
C165 C164 1.376 . S
C165 C166 1.392 . S
C165 H186 0.931 . S
C166 C165 1.392 . S
C166 C167 1.361 . S
C166 C168 1.500 . S
C167 C162 1.390 . S
C167 C166 1.361 . S
C167 H185 0.931 . S
C168 C166 1.500 . S
C168 C169 1.371 1_554 S
C168 C170 1.365 1_554 S
C169 C168 1.371 1_556 S
C169 C179 1.386 . S
C169 H187 0.931 . S
C170 C168 1.365 1_556 S
C170 C171 1.409 . S
C170 H188 0.929 1_556 S
C171 C170 1.409 . S
C171 C172 1.380 . S
C171 H189 0.930 . S
C172 C171 1.380 . S
C172 C179 1.357 . S
C173 C164 1.511 . S
C173 C174 1.341 . S
C173 C175 1.371 . S
C174 C173 1.341 . S
C174 C178 1.394 . S
C174 H190 0.930 . S
C175 C173 1.371 . S
C175 C176 1.392 . S
C175 H191 0.931 . S
C176 C175 1.392 . S
C176 C177 1.331 . S
C176 H194 0.932 . S
C177 C176 1.331 . S
C177 C178 1.336 . S
C178 C174 1.394 . S
C178 C177 1.336 . S
C178 H193 0.929 . S
C179 C169 1.386 . S
C179 C172 1.357 . S
C179 H192 0.928 . S
H180 C156 0.931 . S
H181 C158 0.930 . S
H182 C160 0.929 . S
H183 C161 0.931 . S
H184 C163 0.930 . S
H185 C167 0.931 . S
H186 C165 0.931 . S
H187 C169 0.931 . S
H188 C170 0.929 1_554 S
H189 C171 0.930 . S
H190 C174 0.930 . S
H191 C175 0.931 . S
H192 C179 0.928 . S
H193 C178 0.929 . S
H194 C176 0.932 . S
C195 C196 1.386 . S
C195 C197 1.397 . S
C195 H219 0.931 . S
C196 C195 1.386 . S
C196 C200 1.397 . S
C197 C195 1.397 . S
C197 C198 1.384 . S
C197 H220 0.930 . S
C198 C197 1.384 . S
C198 C199 1.377 . S
C198 C201 1.481 . S
C199 C198 1.377 . S
C199 C200 1.389 . S
C199 H221 0.929 . S
C200 C196 1.397 . S
C200 C199 1.389 . S
C200 H222 0.931 . S
C201 C198 1.481 . S
C201 C202 1.387 . S
C201 C206 1.390 . S
C202 C201 1.387 . S
C202 C203 1.401 . S
C202 H223 0.930 . S
C203 C202 1.401 . S
C203 C204 1.376 . S
C203 C212 1.511 . S
C204 C203 1.376 . S
C204 C205 1.392 . S
C204 H225 0.931 . S
C205 C204 1.392 . S
C205 C206 1.361 . S
C205 C207 1.500 . S
C206 C201 1.390 . S
C206 C205 1.361 . S
C206 H224 0.931 . S
C207 C205 1.500 . S
C207 C208 1.371 1_554 S
C207 C209 1.365 . S
C208 C207 1.371 1_556 S
C208 C218 1.386 . S
C208 H226 0.931 . S
C209 C207 1.365 . S
C209 C210 1.409 1_554 S
C209 H227 0.929 . S
C210 C209 1.409 1_556 S
C210 C211 1.380 . S
C210 H228 0.930 . S
C211 C210 1.380 . S
C211 C218 1.357 . S
C212 C203 1.511 . S
C212 C213 1.341 . S
C212 C214 1.371 . S
C213 C212 1.341 . S
C213 C217 1.394 . S
C213 H229 0.930 . S
C214 C212 1.371 . S
C214 C215 1.392 . S
C214 H230 0.931 . S
C215 C214 1.392 . S
C215 C216 1.331 . S
C215 H233 0.932 . S
C216 C215 1.331 . S
C216 C217 1.336 . S
C217 C213 1.394 . S
C217 C216 1.336 . S
C217 H232 0.929 . S
C218 C208 1.386 . S
C218 C211 1.357 . S
C218 H231 0.928 . S
H219 C195 0.931 . S
H220 C197 0.930 . S
H221 C199 0.929 . S
H222 C200 0.931 . S
H223 C202 0.930 . S
H224 C206 0.931 . S
H225 C204 0.931 . S
H226 C208 0.931 . S
H227 C209 0.929 . S
H228 C210 0.930 . S
H229 C213 0.930 . S
H230 C214 0.931 . S
H231 C218 0.928 . S
H232 C217 0.929 . S
H233 C215 0.932 . S
C234 C235 1.386 . S
C234 C236 1.397 . S
C234 H258 0.931 . S
C235 C234 1.386 . S
C235 C239 1.397 1_565 S
C236 C234 1.397 . S
C236 C237 1.380 . S
C236 H259 0.930 . S
C237 C236 1.380 . S
C237 C238 1.380 1_565 S
C237 C240 1.483 . S
C238 C237 1.380 1_545 S
C238 C239 1.389 . S
C238 H260 0.929 . S
C239 C235 1.397 1_545 S
C239 C238 1.389 . S
C239 H261 0.931 . S
C240 C237 1.483 . S
C240 C241 1.391 . S
C240 C245 1.390 . S
C241 C240 1.391 . S
C241 C242 1.397 . S
C241 H262 0.935 . S
C242 C241 1.397 . S
C242 C243 1.376 . S
C242 C251 1.510 . S
C243 C242 1.376 . S
C243 C244 1.395 1_565 S
C243 H264 0.930 . S
C244 C243 1.395 1_545 S
C244 C245 1.362 1_545 S
C244 C246 1.500 1_554 S
C245 C240 1.390 . S
C245 C244 1.362 1_565 S
C245 H263 0.930 1_565 S
C246 C244 1.500 1_556 S
C246 C247 1.359 1_545 S
C246 C248 1.377 . S
C247 C246 1.359 1_565 S
C247 C257 1.386 . S
C247 H265 0.931 . S
C248 C246 1.377 . S
C248 C249 1.409 . S
C248 H266 0.929 1_556 S
C249 C248 1.409 . S
C249 C250 1.384 . S
C249 H267 0.930 . S
C250 C249 1.384 . S
C250 C257 1.354 1_545 S
C251 C242 1.510 . S
C251 C252 1.341 . S
C251 C253 1.371 1_565 S
C252 C251 1.341 . S
C252 C256 1.394 . S
C252 H268 0.930 . S
C253 C251 1.371 1_545 S
C253 C254 1.392 . S
C253 H269 0.931 . S
C254 C253 1.392 . S
C254 C255 1.326 1_545 S
C254 H272 0.932 . S
C255 C254 1.326 1_565 S
C255 C256 1.342 . S
C256 C252 1.394 . S
C256 C255 1.342 . S
C256 H271 0.929 . S
C257 C247 1.386 . S
C257 C250 1.354 1_565 S
C257 H270 0.928 . S
H258 C234 0.931 . S
H259 C236 0.930 . S
H260 C238 0.929 . S
H261 C239 0.931 . S
H262 C241 0.935 . S
H263 C245 0.930 1_545 S
H264 C243 0.930 . S
H265 C247 0.931 . S
H266 C248 0.929 1_554 S
H267 C249 0.930 . S
H268 C252 0.930 . S
H269 C253 0.931 . S
H270 C257 0.928 . S
H271 C256 0.929 . S
H272 C254 0.932 . S
C273 C274 1.386 . S
C273 C275 1.397 . S
C273 H297 0.931 . S
C274 C273 1.386 . S
C274 C278 1.397 . S
C275 C273 1.397 . S
C275 C276 1.384 . S
C275 H298 0.930 . S
C276 C275 1.384 . S
C276 C277 1.377 . S
C276 C279 1.481 1_556 S
C277 C276 1.377 . S
C277 C278 1.389 . S
C277 H299 0.929 . S
C278 C274 1.397 . S
C278 C277 1.389 . S
C278 H300 0.931 . S
C279 C276 1.481 1_554 S
C279 C280 1.387 . S
C279 C284 1.390 . S
C280 C279 1.387 . S
C280 C281 1.401 . S
C280 H301 0.930 . S
C281 C280 1.401 . S
C281 C282 1.376 . S
C281 C290 1.511 . S
C282 C281 1.376 . S
C282 C283 1.392 . S
C282 H303 0.931 . S
C283 C282 1.392 . S
C283 C284 1.361 . S
C283 C285 1.500 . S
C284 C279 1.390 . S
C284 C283 1.361 . S
C284 H302 0.931 . S
C285 C283 1.500 . S
C285 C286 1.371 . S
C285 C287 1.365 . S
C286 C285 1.371 . S
C286 C296 1.386 . S
C286 H304 0.931 . S
C287 C285 1.365 . S
C287 C288 1.409 . S
C287 H305 0.929 . S
C288 C287 1.409 . S
C288 C289 1.380 . S
C288 H306 0.930 . S
C289 C288 1.380 . S
C289 C296 1.357 . S
C290 C281 1.511 . S
C290 C291 1.341 . S
C290 C292 1.371 . S
C291 C290 1.341 . S
C291 C295 1.394 . S
C291 H307 0.930 . S
C292 C290 1.371 . S
C292 C293 1.392 . S
C292 H308 0.931 . S
C293 C292 1.392 . S
C293 C294 1.331 . S
C293 H311 0.932 . S
C294 C293 1.331 . S
C294 C295 1.336 . S
C295 C291 1.394 . S
C295 C294 1.336 . S
C295 H310 0.929 . S
C296 C286 1.386 . S
C296 C289 1.357 . S
C296 H309 0.928 . S
H297 C273 0.931 . S
H298 C275 0.930 . S
H299 C277 0.929 . S
H300 C278 0.931 . S
H301 C280 0.930 . S
H302 C284 0.931 . S
H303 C282 0.931 . S
H304 C286 0.931 . S
H305 C287 0.929 . S
H306 C288 0.930 . S
H307 C291 0.930 . S
H308 C292 0.931 . S
H309 C296 0.928 . S
H310 C295 0.929 . S
H311 C293 0.932 . S
Dy312 O316 2.398 . S
Dy312 O317 2.491 1_455 S
Dy312 O318 2.403 . S
Dy312 O319 2.664 1_565 S
Dy312 O323 2.326 . S
Dy312 O327 2.310 1_455 S
Dy312 O328 2.351 1_565 S
C313 O324 1.185 1_455 S
C313 O325 1.355 . S
C314 O316 1.185 . S
C314 O317 1.355 1_455 S
Dy315 O319 2.288 1_655 S
Dy315 O322 2.356 1_545 S
Dy315 O324 2.405 . S
Dy315 O325 2.476 1_655 S
Dy315 O326 2.425 . S
Dy315 O327 2.672 1_545 S
Dy315 O329 2.321 1_655 S
O316 Dy312 2.398 . S
O316 C314 1.185 . S
O317 Dy312 2.491 1_655 S
O317 C314 1.355 1_655 S
O318 Dy312 2.403 . S
O318 C320 1.254 . S
O319 Dy312 2.664 1_545 S
O319 Dy315 2.288 1_455 S
O319 C320 1.268 1_545 S
C320 O318 1.254 . S
C320 O319 1.268 1_565 S
C321 O326 1.254 . S
C321 O327 1.268 1_545 S
O322 Dy315 2.356 1_565 S
O322 C330 1.249 . S
O323 Dy312 2.326 . S
O323 C330 1.267 1_455 S
O324 C313 1.185 1_655 S
O324 Dy315 2.405 . S
O325 C313 1.355 . S
O325 Dy315 2.476 1_455 S
O326 Dy315 2.425 . S
O326 C321 1.254 . S
O327 Dy312 2.310 1_655 S
O327 Dy315 2.672 1_565 S
O327 C321 1.268 1_565 S
O328 Dy312 2.351 1_545 S
O328 C331 1.249 . S
O329 Dy315 2.321 1_455 S
O329 C331 1.267 . S
C330 O322 1.249 . S
C330 O323 1.267 1_655 S
C331 O328 1.249 . S
C331 O329 1.267 . S
Dy332 O336 2.398 . S
Dy332 O337 2.491 . S
Dy332 O338 2.403 . S
Dy332 O339 2.664 . S
Dy332 O343 2.326 1_565 S
Dy332 O347 2.310 1_565 S
Dy332 O348 2.351 . S
C333 O344 1.185 . S
C333 O345 1.355 . S
C334 O336 1.185 . S
C334 O337 1.355 . S
Dy335 O339 2.310 1_545 S
Dy335 O342 2.351 . S
Dy335 O344 2.398 . S
Dy335 O345 2.491 . S
Dy335 O346 2.403 . S
Dy335 O347 2.664 . S
Dy335 O349 2.326 1_545 S
O336 Dy332 2.398 . S
O336 C334 1.185 . S
O337 Dy332 2.491 . S
O337 C334 1.355 . S
O338 Dy332 2.403 . S
O338 C340 1.254 . S
O339 Dy332 2.664 . S
O339 Dy335 2.310 1_565 S
O339 C340 1.268 . S
C340 O338 1.254 . S
C340 O339 1.268 . S
C341 O346 1.254 . S
C341 O347 1.268 . S
O342 Dy335 2.351 . S
O342 C350 1.249 . S
O343 Dy332 2.326 1_545 S
O343 C350 1.267 . S
O344 C333 1.185 . S
O344 Dy335 2.398 . S
O345 C333 1.355 . S
O345 Dy335 2.491 . S
O346 Dy335 2.403 . S
O346 C341 1.254 . S
O347 Dy332 2.310 1_545 S
O347 Dy335 2.664 . S
O347 C341 1.268 . S
O348 Dy332 2.351 . S
O348 C351 1.249 . S
O349 Dy335 2.326 1_565 S
O349 C351 1.267 . S
C350 O342 1.249 . S
C350 O343 1.267 . S
C351 O348 1.249 . S
C351 O349 1.267 . S
Dy352 O356 2.398 . S
Dy352 O357 2.491 . S
Dy352 O358 2.403 . S
Dy352 O359 2.664 . S
Dy352 O363 2.326 . S
Dy352 O367 2.310 . S
Dy352 O368 2.351 . S
C353 O364 1.185 . S
C353 O365 1.355 . S
C354 O356 1.185 . S
C354 O357 1.355 . S
Dy355 O359 2.310 . S
Dy355 O362 2.351 . S
Dy355 O364 2.398 . S
Dy355 O365 2.491 . S
Dy355 O366 2.403 . S
Dy355 O367 2.664 . S
Dy355 O369 2.326 . S
O356 Dy352 2.398 . S
O356 C354 1.185 . S
O357 Dy352 2.491 . S
O357 C354 1.355 . S
O358 Dy352 2.403 . S
O358 C360 1.254 . S
O359 Dy352 2.664 . S
O359 Dy355 2.310 . S
O359 C360 1.268 . S
C360 O358 1.254 . S
C360 O359 1.268 . S
C361 O366 1.254 . S
C361 O367 1.268 . S
O362 Dy355 2.351 . S
O362 C370 1.249 . S
O363 Dy352 2.326 . S
O363 C370 1.267 . S
O364 C353 1.185 . S
O364 Dy355 2.398 . S
O365 C353 1.355 . S
O365 Dy355 2.491 . S
O366 Dy355 2.403 . S
O366 C361 1.254 . S
O367 Dy352 2.310 . S
O367 Dy355 2.664 . S
O367 C361 1.268 . S
O368 Dy352 2.351 . S
O368 C371 1.249 . S
O369 Dy355 2.326 . S
O369 C371 1.267 . S
C370 O362 1.249 . S
C370 O363 1.267 . S
C371 O368 1.249 . S
C371 O369 1.267 . S
Dy372 O376 2.398 . S
Dy372 O377 2.491 . S
Dy372 O378 2.403 1_655 S
Dy372 O379 2.664 1_655 S
Dy372 O383 2.326 . S
Dy372 O387 2.310 . S
Dy372 O388 2.351 1_655 S
C373 O384 1.185 . S
C373 O385 1.355 . S
C374 O376 1.185 . S
C374 O377 1.355 . S
Dy375 O379 2.310 . S
Dy375 O382 2.351 1_455 S
Dy375 O384 2.398 . S
Dy375 O385 2.491 . S
Dy375 O386 2.403 . S
Dy375 O387 2.664 1_455 S
Dy375 O389 2.326 . S
O376 Dy372 2.398 . S
O376 C374 1.185 . S
O377 Dy372 2.491 . S
O377 C374 1.355 . S
O378 Dy372 2.403 1_455 S
O378 C380 1.254 . S
O379 Dy372 2.664 1_455 S
O379 Dy375 2.310 . S
O379 C380 1.268 . S
C380 O378 1.254 . S
C380 O379 1.268 . S
C381 O386 1.254 1_655 S
C381 O387 1.268 . S
O382 Dy375 2.351 1_655 S
O382 C390 1.249 . S
O383 Dy372 2.326 . S
O383 C390 1.267 . S
O384 C373 1.185 . S
O384 Dy375 2.398 . S
O385 C373 1.355 . S
O385 Dy375 2.491 . S
O386 Dy375 2.403 . S
O386 C381 1.254 1_455 S
O387 Dy372 2.310 . S
O387 Dy375 2.664 1_655 S
O387 C381 1.268 . S
O388 Dy372 2.351 1_455 S
O388 C391 1.249 . S
O389 Dy375 2.326 . S
O389 C391 1.267 . S
C390 O382 1.249 . S
C390 O383 1.267 . S
C391 O388 1.249 . S
C391 O389 1.267 . S
H392 C400 0.929 . S
H393 C402 0.930 . S
H394 C404 0.930 . S
H395 C407 0.929 . S
H396 C410 0.930 . S
H397 C412 0.960 . S
H398 C412 0.960 . S
H399 C412 0.960 . S
C400 H392 0.929 . S
C400 C401 1.392 . S
C400 C402 1.384 . S
C401 C400 1.392 . S
C401 C407 1.375 1_565 S
C402 H393 0.930 . S
C402 C400 1.384 . S
C402 C403 1.372 . S
C403 C402 1.372 . S
C403 C404 1.400 1_565 S
C403 C408 1.490 . S
C404 H394 0.930 . S
C404 C403 1.400 1_545 S
C404 C407 1.386 . S
H405 C421 0.930 . S
H406 C422 0.931 . S
C407 H395 0.929 . S
C407 C401 1.375 1_545 S
C407 C404 1.386 . S
C408 C403 1.490 . S
C408 C410 1.395 . S
C408 C411 1.403 1_565 S
H409 C415 0.930 . S
C410 H396 0.930 . S
C410 C408 1.395 . S
C410 C413 1.403 . S
C411 C408 1.403 1_545 S
C411 C412 1.524 . S
C411 C415 1.400 . S
C412 H397 0.960 . S
C412 H398 0.960 . S
C412 H399 0.960 . S
C412 C411 1.524 . S
C413 C410 1.403 . S
C413 C414 1.392 . S
C413 C417 1.495 . S
C414 C413 1.392 . S
C414 C415 1.385 1_565 S
C414 C416 1.478 . S
C415 H409 0.930 . S
C415 C411 1.400 . S
C415 C414 1.385 1_545 S
C416 C414 1.478 . S
C416 C418 1.381 . S
C416 C422 1.383 1_565 S
C417 C413 1.495 . S
C417 H423 0.959 . S
C417 H424 0.961 . S
C417 H425 0.960 . S
C418 C416 1.381 . S
C418 C419 1.394 . S
C418 H426 0.930 . S
C419 C418 1.394 . S
C419 C420 1.383 . S
C419 H427 0.929 . S
C420 C419 1.383 . S
C420 C421 1.377 1_565 S
C421 H405 0.930 . S
C421 C420 1.377 1_545 S
C421 C422 1.379 . S
C422 H406 0.931 . S
C422 C416 1.383 1_545 S
C422 C421 1.379 . S
H423 C417 0.959 . S
H424 C417 0.961 . S
H425 C417 0.960 . S
H426 C418 0.930 . S
H427 C419 0.929 . S
H428 C436 0.929 . S
H429 C438 0.930 . S
H430 C440 0.930 . S
H431 C443 0.929 . S
H432 C446 0.930 . S
H433 C448 0.960 . S
H434 C448 0.960 . S
H435 C448 0.960 . S
C436 H428 0.929 . S
C436 C437 1.377 . S
C436 C438 1.384 . S
C437 C436 1.377 . S
C437 C443 1.390 . S
C438 H429 0.930 . S
C438 C436 1.384 . S
C438 C439 1.372 . S
C439 C438 1.372 . S
C439 C440 1.400 . S
C439 C444 1.490 . S
C440 H430 0.930 . S
C440 C439 1.400 . S
C440 C443 1.386 . S
H441 C457 0.930 . S
H442 C458 0.931 . S
C443 H431 0.929 . S
C443 C437 1.390 . S
C443 C440 1.386 . S
C444 C439 1.490 . S
C444 C446 1.395 . S
C444 C447 1.403 . S
H445 C451 0.930 . S
C446 H432 0.930 . S
C446 C444 1.395 . S
C446 C449 1.403 . S
C447 C444 1.403 . S
C447 C448 1.524 . S
C447 C451 1.400 . S
C448 H433 0.960 . S
C448 H434 0.960 . S
C448 H435 0.960 . S
C448 C447 1.524 . S
C449 C446 1.403 . S
C449 C450 1.392 . S
C449 C453 1.495 . S
C450 C449 1.392 . S
C450 C451 1.385 . S
C450 C452 1.478 . S
C451 H445 0.930 . S
C451 C447 1.400 . S
C451 C450 1.385 . S
C452 C450 1.478 . S
C452 C454 1.381 . S
C452 C458 1.383 . S
C453 C449 1.495 . S
C453 H459 0.959 . S
C453 H460 0.961 . S
C453 H461 0.960 . S
C454 C452 1.381 . S
C454 C455 1.394 . S
C454 H462 0.930 . S
C455 C454 1.394 . S
C455 C456 1.383 . S
C455 H463 0.929 . S
C456 C455 1.383 . S
C456 C457 1.377 . S
C457 H441 0.930 . S
C457 C456 1.377 . S
C457 C458 1.379 . S
C458 H442 0.931 . S
C458 C452 1.383 . S
C458 C457 1.379 . S
H459 C453 0.959 . S
H460 C453 0.961 . S
H461 C453 0.960 . S
H462 C454 0.930 . S
H463 C455 0.929 . S
H464 C472 0.929 . S
H465 C474 0.930 . S
H466 C476 0.930 . S
H467 C479 0.929 . S
H468 C482 0.930 . S
H469 C484 0.960 . S
H470 C484 0.960 . S
H471 C484 0.960 . S
C472 H464 0.929 . S
C472 C473 1.377 . S
C472 C474 1.384 . S
C473 C472 1.377 . S
C473 C479 1.390 . S
C474 H465 0.930 . S
C474 C472 1.384 . S
C474 C475 1.372 . S
C475 C474 1.372 . S
C475 C476 1.400 . S
C475 C480 1.490 . S
C476 H466 0.930 . S
C476 C475 1.400 . S
C476 C479 1.386 . S
H477 C493 0.930 . S
H478 C494 0.931 . S
C479 H467 0.929 . S
C479 C473 1.390 . S
C479 C476 1.386 . S
C480 C475 1.490 . S
C480 C482 1.395 . S
C480 C483 1.403 . S
H481 C487 0.930 . S
C482 H468 0.930 . S
C482 C480 1.395 . S
C482 C485 1.403 . S
C483 C480 1.403 . S
C483 C484 1.524 . S
C483 C487 1.400 . S
C484 H469 0.960 . S
C484 H470 0.960 . S
C484 H471 0.960 . S
C484 C483 1.524 . S
C485 C482 1.403 . S
C485 C486 1.392 . S
C485 C489 1.495 . S
C486 C485 1.392 . S
C486 C487 1.385 . S
C486 C488 1.478 . S
C487 H481 0.930 . S
C487 C483 1.400 . S
C487 C486 1.385 . S
C488 C486 1.478 . S
C488 C490 1.381 . S
C488 C494 1.383 . S
C489 C485 1.495 . S
C489 H495 0.959 . S
C489 H496 0.961 . S
C489 H497 0.960 . S
C490 C488 1.381 . S
C490 C491 1.394 . S
C490 H498 0.930 . S
C491 C490 1.394 . S
C491 C492 1.383 . S
C491 H499 0.929 . S
C492 C491 1.383 . S
C492 C493 1.377 . S
C493 H477 0.930 . S
C493 C492 1.377 . S
C493 C494 1.379 . S
C494 H478 0.931 . S
C494 C488 1.383 . S
C494 C493 1.379 . S
H495 C489 0.959 . S
H496 C489 0.961 . S
H497 C489 0.960 . S
H498 C490 0.930 . S
H499 C491 0.929 . S
H500 C508 0.929 . S
H501 C510 0.930 . S
H502 C512 0.930 . S
H503 C515 0.929 . S
H504 C518 0.930 . S
H505 C520 0.960 . S
H506 C520 0.960 . S
H507 C520 0.960 . S
C508 H500 0.929 . S
C508 C509 1.377 . S
C508 C510 1.384 . S
C509 C508 1.377 . S
C509 C515 1.390 . S
C510 H501 0.930 . S
C510 C508 1.384 . S
C510 C511 1.372 . S
C511 C510 1.372 . S
C511 C512 1.400 . S
C511 C516 1.490 . S
C512 H502 0.930 . S
C512 C511 1.400 . S
C512 C515 1.386 . S
H513 C529 0.930 . S
H514 C530 0.931 . S
C515 H503 0.929 . S
C515 C509 1.390 . S
C515 C512 1.386 . S
C516 C511 1.490 . S
C516 C518 1.395 . S
C516 C519 1.403 . S
H517 C523 0.930 . S
C518 H504 0.930 . S
C518 C516 1.395 . S
C518 C521 1.403 . S
C519 C516 1.403 . S
C519 C520 1.524 . S
C519 C523 1.400 . S
C520 H505 0.960 . S
C520 H506 0.960 . S
C520 H507 0.960 . S
C520 C519 1.524 . S
C521 C518 1.403 . S
C521 C522 1.392 . S
C521 C525 1.495 . S
C522 C521 1.392 . S
C522 C523 1.385 . S
C522 C524 1.478 . S
C523 H517 0.930 . S
C523 C519 1.400 . S
C523 C522 1.385 . S
C524 C522 1.478 . S
C524 C526 1.381 . S
C524 C530 1.383 . S
C525 C521 1.495 . S
C525 H531 0.959 . S
C525 H532 0.961 . S
C525 H533 0.960 . S
C526 C524 1.381 . S
C526 C527 1.394 . S
C526 H534 0.930 . S
C527 C526 1.394 . S
C527 C528 1.383 . S
C527 H535 0.929 . S
C528 C527 1.383 . S
C528 C529 1.377 . S
C529 H513 0.930 . S
C529 C528 1.377 . S
C529 C530 1.379 . S
C530 H514 0.931 . S
C530 C524 1.383 . S
C530 C529 1.379 . S
H531 C525 0.959 . S
H532 C525 0.961 . S
H533 C525 0.960 . S
H534 C526 0.930 . S
H535 C527 0.929 . S
H536 C544 0.929 . S
H537 C546 0.930 . S
H538 C548 0.930 . S
H539 C551 0.929 . S
H540 C554 0.930 . S
H541 C556 0.960 . S
H542 C556 0.960 . S
H543 C556 0.960 . S
C544 H536 0.929 . S
C544 C545 1.378 . S
C544 C546 1.384 . S
C545 C544 1.378 . S
C545 C551 1.389 1_545 S
C546 H537 0.930 . S
C546 C544 1.384 . S
C546 C547 1.372 . S
C547 C546 1.372 . S
C547 C548 1.400 1_545 S
C547 C552 1.490 . S
C548 H538 0.930 . S
C548 C547 1.400 1_565 S
C548 C551 1.386 . S
H549 C565 0.930 . S
H550 C566 0.931 . S
C551 H539 0.929 . S
C551 C545 1.389 1_565 S
C551 C548 1.386 . S
C552 C547 1.490 . S
C552 C554 1.395 . S
C552 C555 1.403 1_545 S
H553 C559 0.930 . S
C554 H540 0.930 . S
C554 C552 1.395 . S
C554 C557 1.403 . S
C555 C552 1.403 1_565 S
C555 C556 1.524 . S
C555 C559 1.400 . S
C556 H541 0.960 . S
C556 H542 0.960 . S
C556 H543 0.960 . S
C556 C555 1.524 . S
C557 C554 1.403 . S
C557 C558 1.392 . S
C557 C561 1.495 . S
C558 C557 1.392 . S
C558 C559 1.385 1_545 S
C558 C560 1.478 . S
C559 H553 0.930 . S
C559 C555 1.400 . S
C559 C558 1.385 1_565 S
C560 C558 1.478 . S
C560 C562 1.381 . S
C560 C566 1.383 . S
C561 C557 1.495 . S
C561 H567 0.959 . S
C561 H568 0.961 . S
C561 H569 0.960 . S
C562 C560 1.381 . S
C562 C563 1.394 . S
C562 H570 0.930 . S
C563 C562 1.394 . S
C563 C564 1.383 . S
C563 H571 0.929 . S
C564 C563 1.383 . S
C564 C565 1.377 . S
C565 H549 0.930 . S
C565 C564 1.377 . S
C565 C566 1.379 . S
C566 H550 0.931 . S
C566 C560 1.383 . S
C566 C565 1.379 . S
H567 C561 0.959 . S
H568 C561 0.961 . S
H569 C561 0.960 . S
H570 C562 0.930 . S
H571 C563 0.929 . S
H572 C580 0.929 . S
H573 C582 0.930 . S
H574 C584 0.930 . S
H575 C587 0.929 . S
H576 C590 0.930 . S
H577 C592 0.960 . S
H578 C592 0.960 . S
H579 C592 0.960 . S
C580 H572 0.929 . S
C580 C581 1.377 . S
C580 C582 1.384 . S
C581 C580 1.377 . S
C581 C587 1.390 . S
C582 H573 0.930 . S
C582 C580 1.384 . S
C582 C583 1.372 . S
C583 C582 1.372 . S
C583 C584 1.400 . S
C583 C588 1.490 . S
C584 H574 0.930 . S
C584 C583 1.400 . S
C584 C587 1.386 . S
H585 C601 0.930 . S
H586 C602 0.931 . S
C587 H575 0.929 . S
C587 C581 1.390 . S
C587 C584 1.386 . S
C588 C583 1.490 . S
C588 C590 1.395 . S
C588 C591 1.403 . S
H589 C595 0.930 . S
C590 H576 0.930 . S
C590 C588 1.395 . S
C590 C593 1.403 . S
C591 C588 1.403 . S
C591 C592 1.524 . S
C591 C595 1.400 . S
C592 H577 0.960 . S
C592 H578 0.960 . S
C592 H579 0.960 . S
C592 C591 1.524 . S
C593 C590 1.403 . S
C593 C594 1.392 . S
C593 C597 1.495 . S
C594 C593 1.392 . S
C594 C595 1.385 . S
C594 C596 1.478 . S
C595 H589 0.930 . S
C595 C591 1.400 . S
C595 C594 1.385 . S
C596 C594 1.478 . S
C596 C598 1.381 . S
C596 C602 1.383 . S
C597 C593 1.495 . S
C597 H603 0.959 . S
C597 H604 0.961 . S
C597 H605 0.960 . S
C598 C596 1.381 . S
C598 C599 1.394 . S
C598 H606 0.930 . S
C599 C598 1.394 . S
C599 C600 1.383 . S
C599 H607 0.929 . S
C600 C599 1.383 . S
C600 C601 1.377 . S
C601 H585 0.930 . S
C601 C600 1.377 . S
C601 C602 1.379 . S
C602 H586 0.931 . S
C602 C596 1.383 . S
C602 C601 1.379 . S
H603 C597 0.959 . S
H604 C597 0.961 . S
H605 C597 0.960 . S
H606 C598 0.930 . S
H607 C599 0.929 . S
H608 C616 0.929 . S
H609 C618 0.930 . S
H610 C620 0.930 . S
H611 C623 0.929 . S
H612 C626 0.930 . S
H613 C628 0.960 . S
H614 C628 0.960 . S
H615 C628 0.960 . S
C616 H608 0.929 . S
C616 C617 1.377 . S
C616 C618 1.384 . S
C617 C616 1.377 . S
C617 C623 1.390 . S
C618 H609 0.930 . S
C618 C616 1.384 . S
C618 C619 1.372 . S
C619 C618 1.372 . S
C619 C620 1.400 . S
C619 C624 1.490 . S
C620 H610 0.930 . S
C620 C619 1.400 . S
C620 C623 1.386 . S
H621 C637 0.930 . S
H622 C638 0.931 . S
C623 H611 0.929 . S
C623 C617 1.390 . S
C623 C620 1.386 . S
C624 C619 1.490 . S
C624 C626 1.395 . S
C624 C627 1.403 . S
H625 C631 0.930 . S
C626 H612 0.930 . S
C626 C624 1.395 . S
C626 C629 1.403 . S
C627 C624 1.403 . S
C627 C628 1.524 . S
C627 C631 1.400 . S
C628 H613 0.960 . S
C628 H614 0.960 . S
C628 H615 0.960 . S
C628 C627 1.524 . S
C629 C626 1.403 . S
C629 C630 1.392 . S
C629 C633 1.495 . S
C630 C629 1.392 . S
C630 C631 1.385 . S
C630 C632 1.478 . S
C631 H625 0.930 . S
C631 C627 1.400 . S
C631 C630 1.385 . S
C632 C630 1.478 . S
C632 C634 1.381 . S
C632 C638 1.383 . S
C633 C629 1.495 . S
C633 H639 0.959 . S
C633 H640 0.961 . S
C633 H641 0.960 . S
C634 C632 1.381 . S
C634 C635 1.394 . S
C634 H642 0.930 . S
C635 C634 1.394 . S
C635 C636 1.383 . S
C635 H643 0.929 . S
C636 C635 1.383 . S
C636 C637 1.377 . S
C637 H621 0.930 . S
C637 C636 1.377 . S
C637 C638 1.379 . S
C638 H622 0.931 . S
C638 C632 1.383 . S
C638 C637 1.379 . S
H639 C633 0.959 . S
H640 C633 0.961 . S
H641 C633 0.960 . S
H642 C634 0.930 . S
H643 C635 0.929 . S
H644 C652 0.929 . S
H645 C654 0.930 . S
H646 C656 0.930 . S
H647 C659 0.929 . S
H648 C662 0.930 . S
H649 C664 0.960 . S
H650 C664 0.960 . S
H651 C664 0.960 . S
C652 H644 0.929 . S
C652 C653 1.377 . S
C652 C654 1.384 . S
C653 C652 1.377 . S
C653 C659 1.390 . S
C654 H645 0.930 . S
C654 C652 1.384 . S
C654 C655 1.372 . S
C655 C654 1.372 . S
C655 C656 1.400 . S
C655 C660 1.490 . S
C656 H646 0.930 . S
C656 C655 1.400 . S
C656 C659 1.386 . S
H657 C673 0.930 . S
H658 C674 0.931 . S
C659 H647 0.929 . S
C659 C653 1.390 . S
C659 C656 1.386 . S
C660 C655 1.490 . S
C660 C662 1.395 . S
C660 C663 1.403 . S
H661 C667 0.930 . S
C662 H648 0.930 . S
C662 C660 1.395 . S
C662 C665 1.403 . S
C663 C660 1.403 . S
C663 C664 1.524 . S
C663 C667 1.400 . S
C664 H649 0.960 . S
C664 H650 0.960 . S
C664 H651 0.960 . S
C664 C663 1.524 . S
C665 C662 1.403 . S
C665 C666 1.392 . S
C665 C669 1.495 . S
C666 C665 1.392 . S
C666 C667 1.385 . S
C666 C668 1.478 . S
C667 H661 0.930 . S
C667 C663 1.400 . S
C667 C666 1.385 . S
C668 C666 1.478 . S
C668 C670 1.381 . S
C668 C674 1.383 . S
C669 C665 1.495 . S
C669 H675 0.959 1_655 S
C669 H676 0.961 . S
C669 H677 0.960 1_655 S
C670 C668 1.381 . S
C670 C671 1.394 . S
C670 H678 0.930 . S
C671 C670 1.394 . S
C671 C672 1.383 . S
C671 H679 0.929 1_655 S
C672 C671 1.383 . S
C672 C673 1.377 . S
C673 H657 0.930 . S
C673 C672 1.377 . S
C673 C674 1.379 . S
C674 H658 0.931 . S
C674 C668 1.383 . S
C674 C673 1.379 . S
H675 C669 0.959 1_455 S
H676 C669 0.961 . S
H677 C669 0.960 1_455 S
H678 C670 0.930 . S
H679 C671 0.929 1_455 S
H680 C688 0.929 . S
H681 C690 0.930 . S
H682 C692 0.930 . S
H683 C695 0.929 . S
H684 C698 0.930 . S
H685 C700 0.960 . S
H686 C700 0.960 . S
H687 C700 0.960 . S
C688 H680 0.929 . S
C688 C689 1.377 . S
C688 C690 1.384 . S
C689 C688 1.377 . S
C689 C695 1.390 . S
C690 H681 0.930 . S
C690 C688 1.384 . S
C690 C691 1.372 . S
C691 C690 1.372 . S
C691 C692 1.400 . S
C691 C696 1.490 . S
C692 H682 0.930 . S
C692 C691 1.400 . S
C692 C695 1.386 . S
H693 C709 0.930 . S
H694 C710 0.931 . S
C695 H683 0.929 . S
C695 C689 1.390 . S
C695 C692 1.386 . S
C696 C691 1.490 . S
C696 C698 1.395 . S
C696 C699 1.403 . S
H697 C703 0.930 . S
C698 H684 0.930 . S
C698 C696 1.395 . S
C698 C701 1.403 . S
C699 C696 1.403 . S
C699 C700 1.524 . S
C699 C703 1.400 . S
C700 H685 0.960 . S
C700 H686 0.960 . S
C700 H687 0.960 . S
C700 C699 1.524 . S
C701 C698 1.403 . S
C701 C702 1.392 . S
C701 C705 1.495 . S
C702 C701 1.392 . S
C702 C703 1.385 . S
C702 C704 1.478 . S
C703 H697 0.930 . S
C703 C699 1.400 . S
C703 C702 1.385 . S
C704 C702 1.478 . S
C704 C706 1.381 . S
C704 C710 1.383 . S
C705 C701 1.495 . S
C705 H711 0.959 . S
C705 H712 0.961 . S
C705 H713 0.960 . S
C706 C704 1.381 . S
C706 C707 1.394 . S
C706 H714 0.930 . S
C707 C706 1.394 . S
C707 C708 1.383 . S
C707 H715 0.929 1_455 S
C708 C707 1.383 . S
C708 C709 1.377 . S
C709 H693 0.930 . S
C709 C708 1.377 . S
C709 C710 1.379 . S
C710 H694 0.931 . S
C710 C704 1.383 . S
C710 C709 1.379 . S
H711 C705 0.959 . S
H712 C705 0.961 . S
H713 C705 0.960 . S
H714 C706 0.930 . S
H715 C707 0.929 1_655 S
H716 C724 0.929 . S
H717 C726 0.930 . S
H718 C728 0.930 . S
H719 C731 0.929 . S
H720 C734 0.930 . S
H721 C736 0.960 . S
H722 C736 0.960 . S
H723 C736 0.927 1_565 S
C724 H716 0.929 . S
C724 C725 1.377 . S
C724 C726 1.384 . S
C725 C724 1.377 . S
C725 C731 1.390 1_545 S
C726 H717 0.930 . S
C726 C724 1.384 . S
C726 C727 1.349 1_545 S
C727 C726 1.349 1_565 S
C727 C728 1.418 . S
C727 C732 1.496 . S
C728 H718 0.930 . S
C728 C727 1.418 . S
C728 C731 1.386 . S
H729 C745 0.930 . S
H730 C746 0.931 . S
C731 H719 0.929 . S
C731 C725 1.390 1_565 S
C731 C728 1.386 . S
C732 C727 1.496 . S
C732 C734 1.395 . S
C732 C735 1.403 1_565 S
H733 C739 0.928 1_545 S
C734 H720 0.930 . S
C734 C732 1.395 . S
C734 C737 1.403 . S
C735 C732 1.403 1_545 S
C735 C736 1.524 . S
C735 C739 1.394 1_545 S
C736 H721 0.960 . S
C736 H722 0.960 . S
C736 H723 0.927 1_545 S
C736 C735 1.524 . S
C737 C734 1.403 . S
C737 C738 1.392 . S
C737 C741 1.495 . S
C738 C737 1.392 . S
C738 C739 1.393 . S
C738 C740 1.478 . S
C739 H733 0.928 1_565 S
C739 C735 1.394 1_565 S
C739 C738 1.393 . S
C740 C738 1.478 . S
C740 C742 1.381 1_565 S
C740 C746 1.383 . S
C741 C737 1.495 . S
C741 H747 0.959 . S
C741 H748 0.961 . S
C741 H749 0.960 . S
C742 C740 1.381 1_545 S
C742 C743 1.394 . S
C742 H750 0.930 . S
C743 C742 1.394 . S
C743 C744 1.383 1_545 S
C743 H751 0.929 . S
C744 C743 1.383 1_565 S
C744 C745 1.377 . S
C745 H729 0.930 . S
C745 C744 1.377 . S
C745 C746 1.379 . S
C746 H730 0.931 . S
C746 C740 1.383 . S
C746 C745 1.379 . S
H747 C741 0.959 . S
H748 C741 0.961 . S
H749 C741 0.960 . S
H750 C742 0.930 . S
H751 C743 0.929 . S
H752 C760 0.929 . S
H753 C762 0.930 . S
H754 C764 0.930 . S
H755 C767 0.929 . S
H756 C770 0.930 . S
H757 C772 0.960 . S
H758 C772 0.960 . S
H759 C772 0.960 . S
C760 H752 0.929 . S
C760 C761 1.377 . S
C760 C762 1.384 . S
C761 C760 1.377 . S
C761 C767 1.390 . S
C762 H753 0.930 . S
C762 C760 1.384 . S
C762 C763 1.372 . S
C763 C762 1.372 . S
C763 C764 1.400 . S
C763 C768 1.490 . S
C764 H754 0.930 . S
C764 C763 1.400 . S
C764 C767 1.386 . S
H765 C781 0.930 . S
H766 C782 0.931 . S
C767 H755 0.929 . S
C767 C761 1.390 . S
C767 C764 1.386 . S
C768 C763 1.490 . S
C768 C770 1.395 . S
C768 C771 1.403 . S
H769 C775 0.930 . S
C770 H756 0.930 . S
C770 C768 1.395 . S
C770 C773 1.403 . S
C771 C768 1.403 . S
C771 C772 1.524 . S
C771 C775 1.400 . S
C772 H757 0.960 . S
C772 H758 0.960 . S
C772 H759 0.960 . S
C772 C771 1.524 . S
C773 C770 1.403 . S
C773 C774 1.392 . S
C773 C777 1.495 . S
C774 C773 1.392 . S
C774 C775 1.385 . S
C774 C776 1.478 . S
C775 H769 0.930 . S
C775 C771 1.400 . S
C775 C774 1.385 . S
C776 C774 1.478 . S
C776 C778 1.381 . S
C776 C782 1.383 . S
C777 C773 1.495 . S
C777 H783 0.959 . S
C777 H784 0.961 . S
C777 H785 0.960 . S
C778 C776 1.381 . S
C778 C779 1.394 . S
C778 H786 0.930 . S
C779 C778 1.394 . S
C779 C780 1.383 . S
C779 H787 0.929 . S
C780 C779 1.383 . S
C780 C781 1.377 . S
C781 H765 0.930 . S
C781 C780 1.377 . S
C781 C782 1.379 . S
C782 H766 0.931 . S
C782 C776 1.383 . S
C782 C781 1.379 . S
H783 C777 0.959 . S
H784 C777 0.961 . S
H785 C777 0.960 . S
H786 C778 0.930 . S
H787 C779 0.929 . S
H788 C796 0.929 . S
H789 C798 0.930 . S
H790 C800 0.930 . S
H791 C803 0.929 . S
H792 C806 0.930 . S
H793 C808 0.960 . S
H794 C808 0.960 . S
H795 C808 0.960 . S
C796 H788 0.929 . S
C796 C797 1.377 . S
C796 C798 1.384 . S
C797 C796 1.377 . S
C797 C803 1.390 . S
C798 H789 0.930 . S
C798 C796 1.384 . S
C798 C799 1.372 . S
C799 C798 1.372 . S
C799 C800 1.400 . S
C799 C804 1.490 . S
C800 H790 0.930 . S
C800 C799 1.400 . S
C800 C803 1.386 . S
H801 C817 0.930 . S
H802 C818 0.931 . S
C803 H791 0.929 . S
C803 C797 1.390 . S
C803 C800 1.386 . S
C804 C799 1.490 . S
C804 C806 1.395 . S
C804 C807 1.403 . S
H805 C811 0.930 . S
C806 H792 0.930 . S
C806 C804 1.395 . S
C806 C809 1.403 . S
C807 C804 1.403 . S
C807 C808 1.524 . S
C807 C811 1.400 . S
C808 H793 0.960 . S
C808 H794 0.960 . S
C808 H795 0.960 . S
C808 C807 1.524 . S
C809 C806 1.403 . S
C809 C810 1.392 . S
C809 C813 1.495 . S
C810 C809 1.392 . S
C810 C811 1.385 . S
C810 C812 1.478 . S
C811 H805 0.930 . S
C811 C807 1.400 . S
C811 C810 1.385 . S
C812 C810 1.478 . S
C812 C814 1.381 . S
C812 C818 1.383 . S
C813 C809 1.495 . S
C813 H819 0.959 . S
C813 H820 0.961 . S
C813 H821 0.960 . S
C814 C812 1.381 . S
C814 C815 1.394 . S
C814 H822 0.930 . S
C815 C814 1.394 . S
C815 C816 1.383 . S
C815 H823 0.929 . S
C816 C815 1.383 . S
C816 C817 1.377 . S
C817 H801 0.930 . S
C817 C816 1.377 . S
C817 C818 1.379 . S
C818 H802 0.931 . S
C818 C812 1.383 . S
C818 C817 1.379 . S
H819 C813 0.959 . S
H820 C813 0.961 . S
H821 C813 0.960 . S
H822 C814 0.930 . S
H823 C815 0.929 . S
H824 C832 0.929 . S
H825 C834 0.930 . S
H826 C836 0.930 . S
H827 C839 0.929 . S
H828 C842 0.930 . S
H829 C844 0.960 . S
H830 C844 0.960 . S
H831 C844 0.960 . S
C832 H824 0.929 . S
C832 C833 1.377 . S
C832 C834 1.384 . S
C833 C832 1.377 . S
C833 C839 1.390 . S
C834 H825 0.930 . S
C834 C832 1.384 . S
C834 C835 1.372 . S
C835 C834 1.372 . S
C835 C836 1.400 . S
C835 C840 1.490 . S
C836 H826 0.930 . S
C836 C835 1.400 . S
C836 C839 1.386 . S
H837 C853 0.951 . S
H838 C854 0.931 . S
C839 H827 0.929 . S
C839 C833 1.390 . S
C839 C836 1.386 . S
C840 C835 1.490 . S
C840 C842 1.395 . S
C840 C843 1.403 . S
H841 C847 0.930 . S
C842 H828 0.930 . S
C842 C840 1.395 . S
C842 C845 1.403 . S
C843 C840 1.403 . S
C843 C844 1.524 . S
C843 C847 1.400 . S
C844 H829 0.960 . S
C844 H830 0.960 . S
C844 H831 0.960 . S
C844 C843 1.524 . S
C845 C842 1.403 . S
C845 C846 1.392 . S
C845 C849 1.495 . S
C846 C845 1.392 . S
C846 C847 1.385 . S
C846 C848 1.478 . S
C847 H841 0.930 . S
C847 C843 1.400 . S
C847 C846 1.385 . S
C848 C846 1.478 . S
C848 C850 1.381 . S
C848 C854 1.383 . S
C849 C845 1.495 . S
C849 H855 0.959 . S
C849 H856 0.961 . S
C849 H857 0.960 . S
C850 C848 1.381 . S
C850 C851 1.394 . S
C850 H858 0.930 . S
C851 C850 1.394 . S
C851 C852 1.400 . S
C851 H859 0.929 . S
C852 C851 1.400 . S
C852 C853 1.372 1_655 S
C853 H837 0.951 . S
C853 C852 1.372 1_455 S
C853 C854 1.362 1_455 S
C854 H838 0.931 . S
C854 C848 1.383 . S
C854 C853 1.362 1_655 S
H855 C849 0.959 . S
H856 C849 0.961 . S
H857 C849 0.960 . S
H858 C850 0.930 . S
H859 C851 0.929 . S
H860 C868 0.929 . S
H861 C870 0.930 . S
H862 C872 0.930 . S
H863 C875 0.929 . S
H864 C878 0.927 1_565 S
H865 C880 0.960 . S
H866 C880 0.960 1_565 S
H867 C880 0.960 . S
C868 H860 0.929 . S
C868 C869 1.377 . S
C868 C870 1.384 . S
C869 C868 1.377 . S
C869 C875 1.390 1_565 S
C870 H861 0.930 . S
C870 C868 1.384 . S
C870 C871 1.343 1_565 S
C871 C870 1.343 1_545 S
C871 C872 1.423 . S
C871 C876 1.496 . S
C872 H862 0.930 . S
C872 C871 1.423 . S
C872 C875 1.386 . S
H873 C889 0.930 . S
H874 C890 0.931 . S
C875 H863 0.929 . S
C875 C869 1.390 1_545 S
C875 C872 1.386 . S
C876 C871 1.496 . S
C876 C878 1.395 . S
C876 C879 1.403 . S
H877 C883 0.930 . S
C878 H864 0.927 1_545 S
C878 C876 1.395 . S
C878 C881 1.403 . S
C879 C876 1.403 . S
C879 C880 1.524 . S
C879 C883 1.400 . S
C880 H865 0.960 . S
C880 H866 0.960 1_545 S
C880 H867 0.960 . S
C880 C879 1.524 . S
C881 C878 1.403 . S
C881 C882 1.392 . S
C881 C885 1.495 . S
C882 C881 1.392 . S
C882 C883 1.385 . S
C882 C884 1.478 . S
C883 H877 0.930 . S
C883 C879 1.400 . S
C883 C882 1.385 . S
C884 C882 1.478 . S
C884 C886 1.381 1_545 S
C884 C890 1.383 . S
C885 C881 1.495 . S
C885 H891 0.962 . S
C885 H892 0.961 . S
C885 H893 0.960 1_545 S
C886 C884 1.381 1_565 S
C886 C887 1.394 . S
C886 H894 0.930 . S
C887 C886 1.394 . S
C887 C888 1.383 1_565 S
C887 H895 0.929 . S
C888 C887 1.383 1_545 S
C888 C889 1.377 . S
C889 H873 0.930 . S
C889 C888 1.377 . S
C889 C890 1.379 . S
C890 H874 0.931 . S
C890 C884 1.383 . S
C890 C889 1.379 . S
H891 C885 0.962 . S
H892 C885 0.961 . S
H893 C885 0.960 1_565 S
H894 C886 0.930 . S
H895 C887 0.929 . S
H896 C904 0.929 . S
H897 C906 0.930 . S
H898 C908 0.930 . S
H899 C911 0.929 . S
H900 C914 0.930 . S
H901 C916 0.960 . S
H902 C916 0.960 . S
H903 C916 0.960 . S
C904 H896 0.929 . S
C904 C905 1.377 . S
C904 C906 1.384 . S
C905 C904 1.377 . S
C905 C911 1.390 . S
C906 H897 0.930 . S
C906 C904 1.384 . S
C906 C907 1.372 . S
C907 C906 1.372 . S
C907 C908 1.400 . S
C907 C912 1.490 . S
C908 H898 0.930 . S
C908 C907 1.400 . S
C908 C911 1.386 . S
H909 C925 0.930 . S
H910 C926 0.931 . S
C911 H899 0.929 . S
C911 C905 1.390 . S
C911 C908 1.386 . S
C912 C907 1.490 . S
C912 C914 1.395 . S
C912 C915 1.403 . S
H913 C919 0.930 . S
C914 H900 0.930 . S
C914 C912 1.395 . S
C914 C917 1.403 . S
C915 C912 1.403 . S
C915 C916 1.524 . S
C915 C919 1.400 . S
C916 H901 0.960 . S
C916 H902 0.960 . S
C916 H903 0.960 . S
C916 C915 1.524 . S
C917 C914 1.403 . S
C917 C918 1.392 . S
C917 C921 1.495 . S
C918 C917 1.392 . S
C918 C919 1.385 . S
C918 C920 1.478 . S
C919 H913 0.930 . S
C919 C915 1.400 . S
C919 C918 1.385 . S
C920 C918 1.478 . S
C920 C922 1.381 . S
C920 C926 1.383 . S
C921 C917 1.495 . S
C921 H927 0.959 . S
C921 H928 0.961 . S
C921 H929 0.960 . S
C922 C920 1.381 . S
C922 C923 1.394 . S
C922 H930 0.930 . S
C923 C922 1.394 . S
C923 C924 1.383 . S
C923 H931 0.929 . S
C924 C923 1.383 . S
C924 C925 1.377 . S
C925 H909 0.930 . S
C925 C924 1.377 . S
C925 C926 1.379 . S
C926 H910 0.931 . S
C926 C920 1.383 . S
C926 C925 1.379 . S
H927 C921 0.959 . S
H928 C921 0.961 . S
H929 C921 0.960 . S
H930 C922 0.930 . S
H931 C923 0.929 . S
H932 C940 0.929 . S
H933 C942 0.930 . S
H934 C944 0.930 . S
H935 C947 0.929 . S
H936 C950 0.930 . S
H937 C952 0.960 . S
H938 C952 0.960 . S
H939 C952 0.960 . S
C940 H932 0.929 . S
C940 C941 1.377 . S
C940 C942 1.384 . S
C941 C940 1.377 . S
C941 C947 1.390 . S
C942 H933 0.930 . S
C942 C940 1.384 . S
C942 C943 1.372 . S
C943 C942 1.372 . S
C943 C944 1.400 . S
C943 C948 1.490 . S
C944 H934 0.930 . S
C944 C943 1.400 . S
C944 C947 1.386 . S
H945 C961 0.930 . S
H946 C962 0.931 . S
C947 H935 0.929 . S
C947 C941 1.390 . S
C947 C944 1.386 . S
C948 C943 1.490 . S
C948 C950 1.395 . S
C948 C951 1.403 . S
H949 C955 0.930 . S
C950 H936 0.930 . S
C950 C948 1.395 . S
C950 C953 1.403 . S
C951 C948 1.403 . S
C951 C952 1.524 . S
C951 C955 1.400 . S
C952 H937 0.960 . S
C952 H938 0.960 . S
C952 H939 0.960 . S
C952 C951 1.524 . S
C953 C950 1.403 . S
C953 C954 1.392 . S
C953 C957 1.495 . S
C954 C953 1.392 . S
C954 C955 1.385 . S
C954 C956 1.478 . S
C955 H949 0.930 . S
C955 C951 1.400 . S
C955 C954 1.385 . S
C956 C954 1.478 . S
C956 C958 1.381 . S
C956 C962 1.383 . S
C957 C953 1.495 . S
C957 H963 0.959 . S
C957 H964 0.961 . S
C957 H965 0.960 . S
C958 C956 1.381 . S
C958 C959 1.394 . S
C958 H966 0.930 . S
C959 C958 1.394 . S
C959 C960 1.383 . S
C959 H967 0.929 . S
C960 C959 1.383 . S
C960 C961 1.377 . S
C961 H945 0.930 . S
C961 C960 1.377 . S
C961 C962 1.379 . S
C962 H946 0.931 . S
C962 C956 1.383 . S
C962 C961 1.379 . S
H963 C957 0.959 . S
H964 C957 0.961 . S
H965 C957 0.960 . S
H966 C958 0.930 . S
H967 C959 0.929 . S
H968 C976 0.929 . S
H969 C978 0.930 . S
H970 C980 0.930 . S
H971 C983 0.929 . S
H972 C986 0.930 . S
H973 C988 0.960 . S
H974 C988 0.960 . S
H975 C988 0.960 . S
C976 H968 0.929 . S
C976 C977 1.377 . S
C976 C978 1.384 . S
C977 C976 1.377 . S
C977 C983 1.390 . S
C978 H969 0.930 . S
C978 C976 1.384 . S
C978 C979 1.372 . S
C979 C978 1.372 . S
C979 C980 1.400 . S
C979 C984 1.490 . S
C980 H970 0.930 . S
C980 C979 1.400 . S
C980 C983 1.386 . S
H981 C997 0.930 . S
H982 C998 0.931 . S
C983 H971 0.929 . S
C983 C977 1.390 . S
C983 C980 1.386 . S
C984 C979 1.490 . S
C984 C986 1.395 . S
C984 C987 1.403 . S
H985 C991 0.930 . S
C986 H972 0.930 . S
C986 C984 1.395 . S
C986 C989 1.403 . S
C987 C984 1.403 . S
C987 C988 1.524 . S
C987 C991 1.400 . S
C988 H973 0.960 . S
C988 H974 0.960 . S
C988 H975 0.960 . S
C988 C987 1.524 . S
C989 C986 1.403 . S
C989 C990 1.392 . S
C989 C993 1.495 . S
C990 C989 1.392 . S
C990 C991 1.385 . S
C990 C992 1.478 . S
C991 H985 0.930 . S
C991 C987 1.400 . S
C991 C990 1.385 . S
C992 C990 1.478 . S
C992 C994 1.381 . S
C992 C998 1.383 . S
C993 C989 1.495 . S
C993 H999 0.959 . S
C993 H1000 0.961 . S
C993 H1001 0.960 . S
C994 C992 1.381 . S
C994 C995 1.394 . S
C994 H1002 0.930 . S
C995 C994 1.394 . S
C995 C996 1.383 . S
C995 H1003 0.929 . S
C996 C995 1.383 . S
C996 C997 1.377 . S
C997 H981 0.930 . S
C997 C996 1.377 . S
C997 C998 1.379 . S
C998 H982 0.931 . S
C998 C992 1.383 . S
C998 C997 1.379 . S
H999 C993 0.959 . S
H1000 C993 0.961 . S
H1001 C993 0.960 . S
H1002 C994 0.930 . S
H1003 C995 0.929 . S
H1004 C1012 0.929 . S
H1005 C1014 0.930 . S
H1006 C1016 0.930 . S
H1007 C1019 0.929 . S
H1008 C1022 0.930 . S
H1009 C1024 0.960 . S
H1010 C1024 0.960 . S
H1011 C1024 0.960 . S
C1012 H1004 0.929 . S
C1012 C1013 1.367 1_565 S
C1012 C1014 1.384 . S
C1013 C1012 1.367 1_545 S
C1013 C1019 1.398 . S
C1014 H1005 0.930 . S
C1014 C1012 1.384 . S
C1014 C1015 1.357 1_565 S
C1015 C1014 1.357 1_545 S
C1015 C1016 1.423 . S
C1015 C1020 1.488 . S
C1016 H1006 0.930 . S
C1016 C1015 1.423 . S
C1016 C1019 1.386 . S
H1017 C1033 0.930 . S
H1018 C1034 0.931 . S
C1019 H1007 0.929 . S
C1019 C1013 1.398 . S
C1019 C1016 1.386 . S
C1020 C1015 1.488 . S
C1020 C1022 1.357 1_545 S
C1020 C1023 1.435 . S
H1021 C1027 0.930 . S
C1022 H1008 0.930 . S
C1022 C1020 1.357 1_565 S
C1022 C1025 1.403 . S
C1023 C1020 1.435 . S
C1023 C1024 1.524 . S
C1023 C1027 1.400 . S
C1024 H1009 0.960 . S
C1024 H1010 0.960 . S
C1024 H1011 0.960 . S
C1024 C1023 1.524 . S
C1025 C1022 1.403 . S
C1025 C1026 1.392 . S
C1025 C1029 1.495 . S
C1026 C1025 1.392 . S
C1026 C1027 1.385 1_565 S
C1026 C1028 1.478 . S
C1027 H1021 0.930 . S
C1027 C1023 1.400 . S
C1027 C1026 1.385 1_545 S
C1028 C1026 1.478 . S
C1028 C1030 1.381 . S
C1028 C1034 1.383 1_565 S
C1029 C1025 1.495 . S
C1029 H1035 0.959 . S
C1029 H1036 0.961 . S
C1029 H1037 0.960 . S
C1030 C1028 1.381 . S
C1030 C1031 1.394 . S
C1030 H1038 0.930 . S
C1031 C1030 1.394 . S
C1031 C1032 1.383 1_565 S
C1031 H1039 0.929 . S
C1032 C1031 1.383 1_545 S
C1032 C1033 1.377 . S
C1033 H1017 0.930 . S
C1033 C1032 1.377 . S
C1033 C1034 1.379 . S
C1034 H1018 0.931 . S
C1034 C1028 1.383 1_545 S
C1034 C1033 1.379 . S
H1035 C1029 0.959 . S
H1036 C1029 0.961 . S
H1037 C1029 0.960 . S
H1038 C1030 0.930 . S
H1039 C1031 0.929 . S
H1040 C1048 0.929 . S
H1041 C1050 0.930 . S
H1042 C1052 0.930 . S
H1043 C1055 0.929 . S
H1044 C1058 0.930 . S
H1045 C1060 0.960 . S
H1046 C1060 0.960 . S
H1047 C1060 0.960 . S
C1048 H1040 0.929 . S
C1048 C1049 1.377 . S
C1048 C1050 1.384 . S
C1049 C1048 1.377 . S
C1049 C1055 1.390 . S
C1050 H1041 0.930 . S
C1050 C1048 1.384 . S
C1050 C1051 1.372 . S
C1051 C1050 1.372 . S
C1051 C1052 1.400 . S
C1051 C1056 1.490 . S
C1052 H1042 0.930 . S
C1052 C1051 1.400 . S
C1052 C1055 1.386 . S
H1053 C1069 0.930 . S
H1054 C1070 0.931 . S
C1055 H1043 0.929 . S
C1055 C1049 1.390 . S
C1055 C1052 1.386 . S
C1056 C1051 1.490 . S
C1056 C1058 1.395 . S
C1056 C1059 1.403 . S
H1057 C1063 0.930 . S
C1058 H1044 0.930 . S
C1058 C1056 1.395 . S
C1058 C1061 1.403 . S
C1059 C1056 1.403 . S
C1059 C1060 1.524 . S
C1059 C1063 1.400 . S
C1060 H1045 0.960 . S
C1060 H1046 0.960 . S
C1060 H1047 0.960 . S
C1060 C1059 1.524 . S
C1061 C1058 1.403 . S
C1061 C1062 1.392 . S
C1061 C1065 1.495 . S
C1062 C1061 1.392 . S
C1062 C1063 1.385 . S
C1062 C1064 1.478 . S
C1063 H1057 0.930 . S
C1063 C1059 1.400 . S
C1063 C1062 1.385 . S
C1064 C1062 1.478 . S
C1064 C1066 1.381 . S
C1064 C1070 1.383 . S
C1065 C1061 1.495 . S
C1065 H1071 0.959 . S
C1065 H1072 0.961 . S
C1065 H1073 0.960 . S
C1066 C1064 1.381 . S
C1066 C1067 1.394 . S
C1066 H1074 0.930 . S
C1067 C1066 1.394 . S
C1067 C1068 1.383 . S
C1067 H1075 0.929 . S
C1068 C1067 1.383 . S
C1068 C1069 1.377 . S
C1069 H1053 0.930 . S
C1069 C1068 1.377 . S
C1069 C1070 1.379 . S
C1070 H1054 0.931 . S
C1070 C1064 1.383 . S
C1070 C1069 1.379 . S
H1071 C1065 0.959 . S
H1072 C1065 0.961 . S
H1073 C1065 0.960 . S
H1074 C1066 0.930 . S
H1075 C1067 0.929 . S
H1076 C1084 0.929 . S
H1077 C1086 0.930 . S
H1078 C1088 0.930 . S
H1079 C1091 0.929 . S
H1080 C1094 0.930 . S
H1081 C1096 0.960 . S
H1082 C1096 0.960 . S
H1083 C1096 0.960 . S
C1084 H1076 0.929 . S
C1084 C1085 1.377 . S
C1084 C1086 1.384 . S
C1085 C1084 1.377 . S
C1085 C1091 1.390 . S
C1086 H1077 0.930 . S
C1086 C1084 1.384 . S
C1086 C1087 1.372 . S
C1087 C1086 1.372 . S
C1087 C1088 1.400 . S
C1087 C1092 1.490 . S
C1088 H1078 0.930 . S
C1088 C1087 1.400 . S
C1088 C1091 1.386 . S
H1089 C1105 0.930 . S
H1090 C1106 0.931 . S
C1091 H1079 0.929 . S
C1091 C1085 1.390 . S
C1091 C1088 1.386 . S
C1092 C1087 1.490 . S
C1092 C1094 1.395 . S
C1092 C1095 1.403 . S
H1093 C1099 0.930 . S
C1094 H1080 0.930 . S
C1094 C1092 1.395 . S
C1094 C1097 1.403 . S
C1095 C1092 1.403 . S
C1095 C1096 1.524 . S
C1095 C1099 1.400 . S
C1096 H1081 0.960 . S
C1096 H1082 0.960 . S
C1096 H1083 0.960 . S
C1096 C1095 1.524 . S
C1097 C1094 1.403 . S
C1097 C1098 1.392 . S
C1097 C1101 1.495 . S
C1098 C1097 1.392 . S
C1098 C1099 1.385 . S
C1098 C1100 1.478 . S
C1099 H1093 0.930 . S
C1099 C1095 1.400 . S
C1099 C1098 1.385 . S
C1100 C1098 1.478 . S
C1100 C1102 1.381 . S
C1100 C1106 1.383 . S
C1101 C1097 1.495 . S
C1101 H1107 0.959 . S
C1101 H1108 0.961 . S
C1101 H1109 0.960 . S
C1102 C1100 1.381 . S
C1102 C1103 1.394 . S
C1102 H1110 0.930 . S
C1103 C1102 1.394 . S
C1103 C1104 1.383 . S
C1103 H1111 0.929 . S
C1104 C1103 1.383 . S
C1104 C1105 1.377 . S
C1105 H1089 0.930 . S
C1105 C1104 1.377 . S
C1105 C1106 1.379 . S
C1106 H1090 0.931 . S
C1106 C1100 1.383 . S
C1106 C1105 1.379 . S
H1107 C1101 0.959 . S
H1108 C1101 0.961 . S
H1109 C1101 0.960 . S
H1110 C1102 0.930 . S
H1111 C1103 0.929 . S
H1112 C1120 0.929 . S
H1113 C1122 0.930 . S
H1114 C1124 0.930 . S
H1115 C1127 0.929 . S
H1116 C1130 0.930 . S
H1117 C1132 0.960 . S
H1118 C1132 0.960 . S
H1119 C1132 0.960 . S
C1120 H1112 0.929 . S
C1120 C1121 1.377 . S
C1120 C1122 1.384 . S
C1121 C1120 1.377 . S
C1121 C1127 1.390 . S
C1122 H1113 0.930 . S
C1122 C1120 1.384 . S
C1122 C1123 1.372 . S
C1123 C1122 1.372 . S
C1123 C1124 1.400 . S
C1123 C1128 1.490 . S
C1124 H1114 0.930 . S
C1124 C1123 1.400 . S
C1124 C1127 1.386 . S
H1125 C1141 0.930 . S
H1126 C1142 0.931 . S
C1127 H1115 0.929 . S
C1127 C1121 1.390 . S
C1127 C1124 1.386 . S
C1128 C1123 1.490 . S
C1128 C1130 1.395 . S
C1128 C1131 1.403 . S
H1129 C1135 0.930 . S
C1130 H1116 0.930 . S
C1130 C1128 1.395 . S
C1130 C1133 1.403 . S
C1131 C1128 1.403 . S
C1131 C1132 1.524 . S
C1131 C1135 1.400 . S
C1132 H1117 0.960 . S
C1132 H1118 0.960 . S
C1132 H1119 0.960 . S
C1132 C1131 1.524 . S
C1133 C1130 1.403 . S
C1133 C1134 1.392 . S
C1133 C1137 1.495 . S
C1134 C1133 1.392 . S
C1134 C1135 1.385 . S
C1134 C1136 1.478 . S
C1135 H1129 0.930 . S
C1135 C1131 1.400 . S
C1135 C1134 1.385 . S
C1136 C1134 1.478 . S
C1136 C1138 1.381 . S
C1136 C1142 1.383 . S
C1137 C1133 1.495 . S
C1137 H1143 0.959 1_655 S
C1137 H1144 0.961 1_655 S
C1137 H1145 0.960 . S
C1138 C1136 1.381 . S
C1138 C1139 1.394 . S
C1138 H1146 0.930 . S
C1139 C1138 1.394 . S
C1139 C1140 1.383 . S
C1139 H1147 0.929 . S
C1140 C1139 1.383 . S
C1140 C1141 1.377 . S
C1141 H1125 0.930 . S
C1141 C1140 1.377 . S
C1141 C1142 1.379 . S
C1142 H1126 0.931 . S
C1142 C1136 1.383 . S
C1142 C1141 1.379 . S
H1143 C1137 0.959 1_455 S
H1144 C1137 0.961 1_455 S
H1145 C1137 0.960 . S
H1146 C1138 0.930 . S
H1147 C1139 0.929 . S
H1148 C1156 0.929 . S
H1149 C1158 0.930 . S
H1150 C1160 0.930 . S
H1151 C1163 0.929 . S
H1152 C1166 0.930 . S
H1153 C1168 0.960 . S
H1154 C1168 0.960 . S
H1155 C1168 0.960 . S
C1156 H1148 0.929 . S
C1156 C1157 1.378 . S
C1156 C1158 1.384 . S
C1157 C1156 1.378 . S
C1157 C1163 1.389 1_545 S
C1158 H1149 0.930 . S
C1158 C1156 1.384 . S
C1158 C1159 1.374 1_545 S
C1159 C1158 1.374 1_565 S
C1159 C1160 1.398 . S
C1159 C1164 1.493 . S
C1160 H1150 0.930 . S
C1160 C1159 1.398 . S
C1160 C1163 1.386 . S
H1161 C1177 0.930 . S
H1162 C1178 0.931 . S
C1163 H1151 0.929 . S
C1163 C1157 1.389 1_565 S
C1163 C1160 1.386 . S
C1164 C1159 1.493 . S
C1164 C1166 1.403 . S
C1164 C1167 1.393 1_565 S
H1165 C1171 0.930 . S
C1166 H1152 0.930 . S
C1166 C1164 1.403 . S
C1166 C1169 1.403 . S
C1167 C1164 1.393 1_545 S
C1167 C1168 1.524 . S
C1167 C1171 1.400 . S
C1168 H1153 0.960 . S
C1168 H1154 0.960 . S
C1168 H1155 0.960 . S
C1168 C1167 1.524 . S
C1169 C1166 1.403 . S
C1169 C1170 1.392 . S
C1169 C1173 1.495 . S
C1170 C1169 1.392 . S
C1170 C1171 1.385 1_565 S
C1170 C1172 1.478 . S
C1171 H1165 0.930 . S
C1171 C1167 1.400 . S
C1171 C1170 1.385 1_545 S
C1172 C1170 1.478 . S
C1172 C1174 1.381 1_565 S
C1172 C1178 1.383 . S
C1173 C1169 1.495 . S
C1173 H1179 0.959 . S
C1173 H1180 0.961 . S
C1173 H1181 0.960 . S
C1174 C1172 1.381 1_545 S
C1174 C1175 1.394 . S
C1174 H1182 0.930 . S
C1175 C1174 1.394 . S
C1175 C1176 1.383 1_545 S
C1175 H1183 0.929 . S
C1176 C1175 1.383 1_565 S
C1176 C1177 1.377 . S
C1177 H1161 0.930 . S
C1177 C1176 1.377 . S
C1177 C1178 1.379 . S
C1178 H1162 0.931 . S
C1178 C1172 1.383 . S
C1178 C1177 1.379 . S
H1179 C1173 0.959 . S
H1180 C1173 0.961 . S
H1181 C1173 0.960 . S
H1182 C1174 0.930 . S
H1183 C1175 0.929 . S
H1184 C1192 0.929 . S
H1185 C1194 0.930 . S
H1186 C1196 0.930 . S
H1187 C1199 0.929 . S
H1188 C1202 0.930 . S
H1189 C1204 0.960 . S
H1190 C1204 0.960 . S
H1191 C1204 0.960 . S
C1192 H1184 0.929 . S
C1192 C1193 1.377 . S
C1192 C1194 1.384 . S
C1193 C1192 1.377 . S
C1193 C1199 1.390 . S
C1194 H1185 0.930 . S
C1194 C1192 1.384 . S
C1194 C1195 1.372 . S
C1195 C1194 1.372 . S
C1195 C1196 1.400 . S
C1195 C1200 1.490 . S
C1196 H1186 0.930 . S
C1196 C1195 1.400 . S
C1196 C1199 1.386 . S
H1197 C1213 0.930 . S
H1198 C1214 0.931 . S
C1199 H1187 0.929 . S
C1199 C1193 1.390 . S
C1199 C1196 1.386 . S
C1200 C1195 1.490 . S
C1200 C1202 1.395 . S
C1200 C1203 1.403 . S
H1201 C1207 0.930 . S
C1202 H1188 0.930 . S
C1202 C1200 1.395 . S
C1202 C1205 1.403 . S
C1203 C1200 1.403 . S
C1203 C1204 1.524 . S
C1203 C1207 1.400 . S
C1204 H1189 0.960 . S
C1204 H1190 0.960 . S
C1204 H1191 0.960 . S
C1204 C1203 1.524 . S
C1205 C1202 1.403 . S
C1205 C1206 1.392 . S
C1205 C1209 1.495 . S
C1206 C1205 1.392 . S
C1206 C1207 1.385 . S
C1206 C1208 1.478 . S
C1207 H1201 0.930 . S
C1207 C1203 1.400 . S
C1207 C1206 1.385 . S
C1208 C1206 1.478 . S
C1208 C1210 1.381 . S
C1208 C1214 1.383 . S
C1209 C1205 1.495 . S
C1209 H1215 0.959 . S
C1209 H1216 0.961 . S
C1209 H1217 0.960 . S
C1210 C1208 1.381 . S
C1210 C1211 1.394 . S
C1210 H1218 0.930 . S
C1211 C1210 1.394 . S
C1211 C1212 1.383 . S
C1211 H1219 0.929 . S
C1212 C1211 1.383 . S
C1212 C1213 1.377 . S
C1213 H1197 0.930 . S
C1213 C1212 1.377 . S
C1213 C1214 1.379 . S
C1214 H1198 0.931 . S
C1214 C1208 1.383 . S
C1214 C1213 1.379 . S
H1215 C1209 0.959 . S
H1216 C1209 0.961 . S
H1217 C1209 0.960 . S
H1218 C1210 0.930 . S
H1219 C1211 0.929 . S
H1220 C1228 0.929 . S
H1221 C1230 0.930 . S
H1222 C1232 0.930 . S
H1223 C1235 0.929 . S
H1224 C1238 0.930 . S
H1225 C1240 0.960 . S
H1226 C1240 0.960 . S
H1227 C1240 0.960 . S
C1228 H1220 0.929 . S
C1228 C1229 1.377 . S
C1228 C1230 1.384 . S
C1229 C1228 1.377 . S
C1229 C1235 1.390 . S
C1230 H1221 0.930 . S
C1230 C1228 1.384 . S
C1230 C1231 1.372 . S
C1231 C1230 1.372 . S
C1231 C1232 1.400 . S
C1231 C1236 1.490 . S
C1232 H1222 0.930 . S
C1232 C1231 1.400 . S
C1232 C1235 1.386 . S
H1233 C1249 0.930 . S
H1234 C1250 0.931 . S
C1235 H1223 0.929 . S
C1235 C1229 1.390 . S
C1235 C1232 1.386 . S
C1236 C1231 1.490 . S
C1236 C1238 1.395 . S
C1236 C1239 1.403 . S
H1237 C1243 0.930 . S
C1238 H1224 0.930 . S
C1238 C1236 1.395 . S
C1238 C1241 1.403 . S
C1239 C1236 1.403 . S
C1239 C1240 1.524 . S
C1239 C1243 1.400 . S
C1240 H1225 0.960 . S
C1240 H1226 0.960 . S
C1240 H1227 0.960 . S
C1240 C1239 1.524 . S
C1241 C1238 1.403 . S
C1241 C1242 1.392 . S
C1241 C1245 1.495 . S
C1242 C1241 1.392 . S
C1242 C1243 1.385 . S
C1242 C1244 1.478 . S
C1243 H1237 0.930 . S
C1243 C1239 1.400 . S
C1243 C1242 1.385 . S
C1244 C1242 1.478 . S
C1244 C1246 1.381 . S
C1244 C1250 1.383 . S
C1245 C1241 1.495 . S
C1245 H1251 0.959 . S
C1245 H1252 0.961 . S
C1245 H1253 0.960 . S
C1246 C1244 1.381 . S
C1246 C1247 1.394 . S
C1246 H1254 0.930 . S
C1247 C1246 1.394 . S
C1247 C1248 1.383 . S
C1247 H1255 0.929 . S
C1248 C1247 1.383 . S
C1248 C1249 1.377 . S
C1249 H1233 0.930 . S
C1249 C1248 1.377 . S
C1249 C1250 1.379 . S
C1250 H1234 0.931 . S
C1250 C1244 1.383 . S
C1250 C1249 1.379 . S
H1251 C1245 0.959 . S
H1252 C1245 0.961 . S
H1253 C1245 0.960 . S
H1254 C1246 0.930 . S
H1255 C1247 0.929 . S
C401 C255 1.614 . S
C420 C320 1.647 . S
C456 C350 2.393 . S
C437 C294 2.294 . S
C492 C360 1.712 . S
C473 C177 1.688 . S
C528 C380 1.601 . S
C509 C216 1.513 . S
C564 C321 1.644 . S
C545 C99 1.609 1_545 S
C581 C138 2.288 1_556 S
C600 C351 2.406 . S
C617 C21 1.672 . S
C636 C361 1.714 . S
C653 C60 1.527 . S
C672 C381 1.599 . S
C708 C313 0.458 . S
C689 C196 0.537 . S
C744 C334 0.378 . S
C725 C235 0.481 1_545 S
C780 C353 0.831 . S
C761 C289 0.825 . S
C797 C157 0.358 . S
C816 C373 0.364 . S
C833 C40 0.544 . S
C852 C314 0.453 1_655 S
C888 C333 0.477 . S
C869 C79 0.484 . S
C924 C354 0.864 . S
C905 C133 0.837 . S
C941 C1 0.389 . S
C960 C374 0.369 . S
C977 C211 2.232 . S
C996 C331 2.385 . S
C1013 C250 1.575 . S
C1032 C341 1.736 . S
C1068 C371 2.554 . S
C1049 C274 2.372 . S
C1104 C391 2.437 . S
C1085 C172 2.277 . S
C1121 C55 2.228 . S
C1140 C330 2.382 . S
C1176 C340 1.723 . S
C1157 C94 1.582 . S
C1212 C370 2.568 . S
C1193 C118 2.367 . S
C1229 C16 2.281 . S
C1248 C390 2.417 . S
