# Generated by pormake.
# Topology bwt, (3,3)-cn, num edge types: 1
# Building blocks:
#     Node 0, Type 0, BuildingBlock: OLANEW_clean_sbu_2, # of connection points: 3
#     Node 1, Type 0, BuildingBlock: OLANEW_clean_sbu_2, # of connection points: 3
#     Node 2, Type 0, BuildingBlock: OLANEW_clean_sbu_2, # of connection points: 3
#     Node 3, Type 0, BuildingBlock: OLANEW_clean_sbu_2, # of connection points: 3
#     Node 4, Type 0, BuildingBlock: OLANEW_clean_sbu_2, # of connection points: 3
#     Node 5, Type 0, BuildingBlock: OLANEW_clean_sbu_2, # of connection points: 3
#     Node 6, Type 0, BuildingBlock: OLANEW_clean_sbu_2, # of connection points: 3
#     Node 7, Type 0, BuildingBlock: OLANEW_clean_sbu_2, # of connection points: 3
#     Node 8, Type 0, BuildingBlock: OLANEW_clean_sbu_2, # of connection points: 3
#     Node 9, Type 0, BuildingBlock: OLANEW_clean_sbu_2, # of connection points: 3
#     Node 10, Type 0, BuildingBlock: OLANEW_clean_sbu_2, # of connection points: 3
#     Node 11, Type 0, BuildingBlock: OLANEW_clean_sbu_2, # of connection points: 3
#     Node 12, Type 0, BuildingBlock: OLANEW_clean_sbu_2, # of connection points: 3
#     Node 13, Type 0, BuildingBlock: OLANEW_clean_sbu_2, # of connection points: 3
#     Node 14, Type 0, BuildingBlock: OLANEW_clean_sbu_2, # of connection points: 3
#     Node 15, Type 0, BuildingBlock: OLANEW_clean_sbu_2, # of connection points: 3
#     Node 16, Type 0, BuildingBlock: OLANEW_clean_sbu_2, # of connection points: 3
#     Node 17, Type 0, BuildingBlock: OLANEW_clean_sbu_2, # of connection points: 3
#     Node 18, Type 0, BuildingBlock: OLANEW_clean_sbu_2, # of connection points: 3
#     Node 19, Type 0, BuildingBlock: OLANEW_clean_sbu_2, # of connection points: 3
#     Node 20, Type 0, BuildingBlock: OLANEW_clean_sbu_2, # of connection points: 3
#     Node 21, Type 0, BuildingBlock: OLANEW_clean_sbu_2, # of connection points: 3
#     Node 22, Type 0, BuildingBlock: OLANEW_clean_sbu_2, # of connection points: 3
#     Node 23, Type 0, BuildingBlock: OLANEW_clean_sbu_2, # of connection points: 3
#     Node 24, Type 1, BuildingBlock: BELTOD_clean_linker_0, # of connection points: 3
#     Node 25, Type 1, BuildingBlock: BELTOD_clean_linker_0, # of connection points: 3
#     Node 26, Type 1, BuildingBlock: BELTOD_clean_linker_0, # of connection points: 3
#     Node 27, Type 1, BuildingBlock: BELTOD_clean_linker_0, # of connection points: 3
#     Node 28, Type 1, BuildingBlock: BELTOD_clean_linker_0, # of connection points: 3
#     Node 29, Type 1, BuildingBlock: BELTOD_clean_linker_0, # of connection points: 3
#     Node 30, Type 1, BuildingBlock: BELTOD_clean_linker_0, # of connection points: 3
#     Node 31, Type 1, BuildingBlock: BELTOD_clean_linker_0, # of connection points: 3
#     Node 32, Type 1, BuildingBlock: BELTOD_clean_linker_0, # of connection points: 3
#     Node 33, Type 1, BuildingBlock: BELTOD_clean_linker_0, # of connection points: 3
#     Node 34, Type 1, BuildingBlock: BELTOD_clean_linker_0, # of connection points: 3
#     Node 35, Type 1, BuildingBlock: BELTOD_clean_linker_0, # of connection points: 3
#     Node 36, Type 1, BuildingBlock: BELTOD_clean_linker_0, # of connection points: 3
#     Node 37, Type 1, BuildingBlock: BELTOD_clean_linker_0, # of connection points: 3
#     Node 38, Type 1, BuildingBlock: BELTOD_clean_linker_0, # of connection points: 3
#     Node 39, Type 1, BuildingBlock: BELTOD_clean_linker_0, # of connection points: 3
#     Node 40, Type 1, BuildingBlock: BELTOD_clean_linker_0, # of connection points: 3
#     Node 41, Type 1, BuildingBlock: BELTOD_clean_linker_0, # of connection points: 3
#     Node 42, Type 1, BuildingBlock: BELTOD_clean_linker_0, # of connection points: 3
#     Node 43, Type 1, BuildingBlock: BELTOD_clean_linker_0, # of connection points: 3
#     Node 44, Type 1, BuildingBlock: BELTOD_clean_linker_0, # of connection points: 3
#     Node 45, Type 1, BuildingBlock: BELTOD_clean_linker_0, # of connection points: 3
#     Node 46, Type 1, BuildingBlock: BELTOD_clean_linker_0, # of connection points: 3
#     Node 47, Type 1, BuildingBlock: BELTOD_clean_linker_0, # of connection points: 3
#     Edge 48, Type (0, 1), None
#     Edge 49, Type (0, 1), None
#     Edge 50, Type (0, 1), None
#     Edge 51, Type (0, 1), None
#     Edge 52, Type (0, 1), None
#     Edge 53, Type (0, 1), None
#     Edge 54, Type (0, 1), None
#     Edge 55, Type (0, 1), None
#     Edge 56, Type (0, 1), None
#     Edge 57, Type (0, 1), None
#     Edge 58, Type (0, 1), None
#     Edge 59, Type (0, 1), None
#     Edge 60, Type (0, 1), None
#     Edge 61, Type (0, 1), None
#     Edge 62, Type (0, 1), None
#     Edge 63, Type (0, 1), None
#     Edge 64, Type (0, 1), None
#     Edge 65, Type (0, 1), None
#     Edge 66, Type (0, 1), None
#     Edge 67, Type (0, 1), None
#     Edge 68, Type (0, 1), None
#     Edge 69, Type (0, 1), None
#     Edge 70, Type (0, 1), None
#     Edge 71, Type (0, 1), None
#     Edge 72, Type (0, 1), None
#     Edge 73, Type (0, 1), None
#     Edge 74, Type (0, 1), None
#     Edge 75, Type (0, 1), None
#     Edge 76, Type (0, 1), None
#     Edge 77, Type (0, 1), None
#     Edge 78, Type (0, 1), None
#     Edge 79, Type (0, 1), None
#     Edge 80, Type (0, 1), None
#     Edge 81, Type (0, 1), None
#     Edge 82, Type (0, 1), None
#     Edge 83, Type (0, 1), None
#     Edge 84, Type (0, 1), None
#     Edge 85, Type (0, 1), None
#     Edge 86, Type (0, 1), None
#     Edge 87, Type (0, 1), None
#     Edge 88, Type (0, 1), None
#     Edge 89, Type (0, 1), None
#     Edge 90, Type (0, 1), None
#     Edge 91, Type (0, 1), None
#     Edge 92, Type (0, 1), None
#     Edge 93, Type (0, 1), None
#     Edge 94, Type (0, 1), None
#     Edge 95, Type (0, 1), None
#     Edge 96, Type (0, 1), None
#     Edge 97, Type (0, 1), None
#     Edge 98, Type (0, 1), None
#     Edge 99, Type (0, 1), None
#     Edge 100, Type (0, 1), None
#     Edge 101, Type (0, 1), None
#     Edge 102, Type (0, 1), None
#     Edge 103, Type (0, 1), None
#     Edge 104, Type (0, 1), None
#     Edge 105, Type (0, 1), None
#     Edge 106, Type (0, 1), None
#     Edge 107, Type (0, 1), None
#     Edge 108, Type (0, 1), None
#     Edge 109, Type (0, 1), None
#     Edge 110, Type (0, 1), None
#     Edge 111, Type (0, 1), None
#     Edge 112, Type (0, 1), None
#     Edge 113, Type (0, 1), None
#     Edge 114, Type (0, 1), None
#     Edge 115, Type (0, 1), None
#     Edge 116, Type (0, 1), None
#     Edge 117, Type (0, 1), None
#     Edge 118, Type (0, 1), None
#     Edge 119, Type (0, 1), None
# Relax obj value: 0.109
# Max RMSD: 0.131
# Mean RMSD: 0.093
data_MOF--net-bwt--node1-OLANEW_clean_sbu_2--node2-BELTOD_clean_linker_0--edge1-none
_symmetry_space_group_name_H-M    P1
_symmetry_Int_Tables_number       1
_symmetry_cell_setting            triclinic
loop_
_symmetry_equiv_pos_as_xyz
'x, y, z'
_cell_length_a     34.971965
_cell_length_b     34.971904
_cell_length_c     34.971935
_cell_angle_alpha  93.436062
_cell_angle_beta   93.435997
_cell_angle_gamma 93.436266
loop_
_atom_site_label
_atom_site_type_symbol
_atom_site_fract_x
_atom_site_fract_y
_atom_site_fract_z
_atom_type_partial_charge
O0 O 0.32148 0.62682 0.26594 0.0
Cd1 Cd 0.28926 0.62834 0.20232 0.0
O2 O 0.34961 0.57337 0.25299 0.0
Cd3 Cd 0.38277 0.5263 0.27257 0.0
O4 O 0.42642 0.49864 0.30649 0.0
C5 C 0.46054 0.50074 0.29586 0.0
O6 O 0.46756 0.51779 0.26431 0.0
C7 C 0.34267 0.60071 0.27672 0.0
C8 C 0.21433 0.59938 0.20915 0.0
O9 O 0.23964 0.57778 0.19632 0.0
O10 O 0.22405 0.635 0.21716 0.0
O11 O 0.20297 0.38276 0.75664 0.0
Cd12 Cd 0.22274 0.3609 0.69361 0.0
O13 O 0.1748 0.32712 0.7676 0.0
Cd14 Cd 0.16734 0.31459 0.70547 0.0
O15 O 0.12 0.35027 0.71748 0.0
C16 C 0.08764 0.35243 0.69958 0.0
O17 O 0.07976 0.33254 0.66669 0.0
C18 C 0.18735 0.36083 0.7797 0.0
C19 C 0.29748 0.39208 0.69239 0.0
O20 O 0.26934 0.40849 0.67661 0.0
O21 O 0.29046 0.35977 0.70683 0.0
O22 O 0.79198 0.97944 0.60261 0.0
Cd23 Cd 0.7946 0.98563 0.67282 0.0
O24 O 0.85065 0.96064 0.59769 0.0
Cd25 Cd 0.87467 0.97885 0.65514 0.0
O26 O 0.93039 0.01137 0.66058 0.0
C27 C 0.93982 0.02504 0.62931 0.0
O28 O 0.91564 0.01953 0.59897 0.0
C29 C 0.818 0.96688 0.58221 0.0
C30 C 0.72329 0.00506 0.69773 0.0
O31 O 0.7507 0.03077 0.6959 0.0
O32 O 0.72967 0.97016 0.6883 0.0
O33 O 0.74912 0.09703 0.26311 0.0
Cd34 Cd 0.7875 0.08588 0.32135 0.0
O35 O 0.71349 0.04514 0.27267 0.0
Cd36 Cd 0.66456 0.004 0.25749 0.0
O37 O 0.60645 0.98057 0.24015 0.0
C38 C 0.59543 0.97432 0.20491 0.0
O39 O 0.62004 0.98063 0.17867 0.0
C40 C 0.72013 0.07419 0.2533 0.0
C41 C 0.84553 0.03654 0.30899 0.0
O42 O 0.81212 0.02336 0.3169 0.0
O43 O 0.85113 0.07284 0.30662 0.0
O44 O 0.26599 0.32145 0.62679 0.0
Cd45 Cd 0.20238 0.28923 0.62831 0.0
O46 O 0.25304 0.34958 0.57334 0.0
Cd47 Cd 0.27263 0.38274 0.52627 0.0
O48 O 0.30655 0.4264 0.49861 0.0
C49 C 0.29591 0.46051 0.5007 0.0
O50 O 0.26437 0.46753 0.51776 0.0
C51 C 0.27677 0.34264 0.60068 0.0
C52 C 0.20921 0.2143 0.59935 0.0
O53 O 0.19638 0.23962 0.57775 0.0
O54 O 0.21722 0.22402 0.63497 0.0
O55 O 0.26316 0.74909 0.097 0.0
Cd56 Cd 0.3214 0.78747 0.08584 0.0
O57 O 0.27273 0.71346 0.04511 0.0
Cd58 Cd 0.25755 0.66453 0.00397 0.0
O59 O 0.2402 0.60642 0.98054 0.0
C60 C 0.20496 0.59539 0.97429 0.0
O61 O 0.17873 0.62 0.9806 0.0
C62 C 0.25336 0.72011 0.07416 0.0
C63 C 0.30905 0.8455 0.03651 0.0
O64 O 0.31696 0.8121 0.02333 0.0
O65 O 0.30667 0.8511 0.07281 0.0
O66 O 0.75669 0.20295 0.38273 0.0
Cd67 Cd 0.69367 0.22272 0.36087 0.0
O68 O 0.76766 0.17478 0.32709 0.0
Cd69 Cd 0.70553 0.16732 0.31456 0.0
O70 O 0.71754 0.11998 0.35024 0.0
C71 C 0.69963 0.08761 0.3524 0.0
O72 O 0.66674 0.07974 0.3325 0.0
C73 C 0.77975 0.18733 0.3608 0.0
C74 C 0.69244 0.29746 0.39205 0.0
O75 O 0.67666 0.26932 0.40846 0.0
O76 O 0.70688 0.29044 0.35975 0.0
O77 O 0.60267 0.79196 0.9794 0.0
Cd78 Cd 0.67287 0.79457 0.9856 0.0
O79 O 0.59774 0.85062 0.9606 0.0
Cd80 Cd 0.65519 0.87465 0.97882 0.0
O81 O 0.66064 0.93037 0.01134 0.0
C82 C 0.62936 0.9398 0.02501 0.0
O83 O 0.59902 0.91561 0.0195 0.0
C84 C 0.58227 0.81797 0.96684 0.0
C85 C 0.69778 0.72327 0.00503 0.0
O86 O 0.69595 0.75068 0.03074 0.0
O87 O 0.68835 0.72964 0.97013 0.0
O88 O 0.62685 0.26597 0.32142 0.0
Cd89 Cd 0.62837 0.20236 0.2892 0.0
O90 O 0.5734 0.25302 0.34955 0.0
Cd91 Cd 0.52633 0.27261 0.38272 0.0
O92 O 0.49866 0.30652 0.42637 0.0
C93 C 0.50076 0.29589 0.46049 0.0
O94 O 0.51782 0.26434 0.4675 0.0
C95 C 0.60074 0.27675 0.34261 0.0
C96 C 0.59941 0.20919 0.21427 0.0
O97 O 0.57781 0.19636 0.23959 0.0
O98 O 0.63503 0.21719 0.22399 0.0
O99 O 0.09706 0.26314 0.74906 0.0
Cd100 Cd 0.0859 0.32138 0.78744 0.0
O101 O 0.04516 0.2727 0.71343 0.0
Cd102 Cd 0.00403 0.25753 0.6645 0.0
O103 O 0.9806 0.24018 0.60639 0.0
C104 C 0.97435 0.20494 0.59536 0.0
O105 O 0.98066 0.17871 0.61997 0.0
C106 C 0.07422 0.25333 0.72008 0.0
C107 C 0.03656 0.30902 0.84547 0.0
O108 O 0.02338 0.31693 0.81207 0.0
O109 O 0.07286 0.30665 0.85107 0.0
O110 O 0.3828 0.75666 0.20291 0.0
Cd111 Cd 0.36093 0.69364 0.22268 0.0
O112 O 0.32715 0.76763 0.17474 0.0
Cd113 Cd 0.31463 0.7055 0.16728 0.0
O114 O 0.35029 0.71751 0.11994 0.0
C115 C 0.35246 0.69961 0.08758 0.0
O116 O 0.33256 0.66672 0.0797 0.0
C117 C 0.36086 0.77972 0.18729 0.0
C118 C 0.39211 0.69241 0.29742 0.0
O119 O 0.40852 0.67663 0.26928 0.0
O120 O 0.3598 0.70685 0.2904 0.0
O121 O 0.97946 0.60264 0.79193 0.0
Cd122 Cd 0.98566 0.67285 0.79454 0.0
O123 O 0.96066 0.59772 0.85059 0.0
Cd124 Cd 0.97887 0.65517 0.87462 0.0
O125 O 0.0114 0.66061 0.93033 0.0
C126 C 0.02506 0.62934 0.93977 0.0
O127 O 0.01956 0.599 0.91558 0.0
C128 C 0.9669 0.58225 0.81794 0.0
C129 C 0.00509 0.69776 0.72324 0.0
O130 O 0.0308 0.69593 0.75065 0.0
O131 O 0.97019 0.68833 0.72961 0.0
O132 O 0.73719 0.33046 0.64787 0.0
Cd133 Cd 0.73784 0.30187 0.70959 0.0
O134 O 0.69937 0.37274 0.67034 0.0
Cd135 Cd 0.66575 0.42335 0.67365 0.0
O136 O 0.61746 0.45511 0.69136 0.0
C137 C 0.58835 0.45923 0.66879 0.0
O138 O 0.58837 0.44626 0.63274 0.0
C139 C 0.71924 0.36057 0.64341 0.0
C140 C 0.80657 0.33093 0.74722 0.0
O141 O 0.80428 0.29811 0.72857 0.0
O142 O 0.77588 0.34897 0.74967 0.0
O143 O 0.77746 0.56999 0.24552 0.0
Cd144 Cd 0.79598 0.57263 0.31426 0.0
O145 O 0.83627 0.56666 0.22736 0.0
Cd146 Cd 0.87967 0.56642 0.18457 0.0
O147 O 0.9088 0.56301 0.13077 0.0
C148 C 0.9426 0.55321 0.1252 0.0
O149 O 0.95358 0.55108 0.08989 0.0
C150 C 0.8004 0.56734 0.21878 0.0
C151 C 0.73682 0.53563 0.35074 0.0
O152 O 0.73667 0.57154 0.34529 0.0
O153 O 0.76555 0.51754 0.34002 0.0
O154 O 0.31054 0.11471 0.3534 0.0
Cd155 Cd 0.3159 0.12764 0.28599 0.0
O156 O 0.26308 0.07421 0.33208 0.0
Cd157 Cd 0.21196 0.03544 0.33346 0.0
O158 O 0.15809 0.00194 0.31853 0.0
C159 C 0.12918 0.00496 0.33858 0.0
O160 O 0.13226 0.02786 0.36995 0.0
C161 C 0.28388 0.09028 0.3603 0.0
C162 C 0.34945 0.06893 0.24531 0.0
O163 O 0.36951 0.09901 0.25916 0.0
O164 O 0.31349 0.06657 0.25074 0.0
O165 O 0.29412 0.96832 0.74268 0.0
Cd166 Cd 0.29558 0.9786 0.67461 0.0
O167 O 0.3554 0.96017 0.75529 0.0
Cd168 Cd 0.40452 0.94787 0.79357 0.0
O169 O 0.44776 0.93685 0.83903 0.0
C170 C 0.48327 0.94776 0.84357 0.0
O171 O 0.50345 0.93583 0.87295 0.0
C172 C 0.32165 0.96257 0.76661 0.0
C173 C 0.23235 0.02025 0.65532 0.0
O174 O 0.22987 0.98347 0.65264 0.0
O175 O 0.26501 0.03731 0.66611 0.0
O176 O 0.64792 0.73716 0.33043 0.0
Cd177 Cd 0.70965 0.73782 0.30183 0.0
O178 O 0.6704 0.69935 0.3727 0.0
Cd179 Cd 0.67371 0.66572 0.42332 0.0
O180 O 0.69142 0.61743 0.45507 0.0
C181 C 0.66884 0.58833 0.4592 0.0
O182 O 0.6328 0.58834 0.44623 0.0
C183 C 0.64347 0.71922 0.36053 0.0
C184 C 0.74728 0.80654 0.3309 0.0
O185 O 0.72862 0.80425 0.29808 0.0
O186 O 0.74972 0.77586 0.34894 0.0
O187 O 0.74274 0.2941 0.96829 0.0
Cd188 Cd 0.67466 0.29555 0.97857 0.0
O189 O 0.75535 0.35538 0.96014 0.0
Cd190 Cd 0.79363 0.4045 0.94784 0.0
O191 O 0.83908 0.44774 0.93682 0.0
C192 C 0.84363 0.48324 0.94773 0.0
O193 O 0.873 0.50342 0.93581 0.0
C194 C 0.76666 0.32163 0.96254 0.0
C195 C 0.65537 0.23233 0.02022 0.0
O196 O 0.65269 0.22985 0.98344 0.0
O197 O 0.66616 0.26499 0.03728 0.0
O198 O 0.24558 0.77744 0.56995 0.0
Cd199 Cd 0.31432 0.79595 0.57259 0.0
O200 O 0.22742 0.83625 0.56663 0.0
Cd201 Cd 0.18463 0.87964 0.56639 0.0
O202 O 0.13083 0.90878 0.56298 0.0
C203 C 0.12526 0.94258 0.55317 0.0
O204 O 0.08995 0.95356 0.55105 0.0
C205 C 0.21884 0.80038 0.5673 0.0
C206 C 0.3508 0.7368 0.5356 0.0
O207 O 0.34535 0.73665 0.5715 0.0
O208 O 0.34007 0.76552 0.51751 0.0
O209 O 0.35346 0.31051 0.11469 0.0
Cd210 Cd 0.28605 0.31587 0.12762 0.0
O211 O 0.33213 0.26305 0.07418 0.0
Cd212 Cd 0.33352 0.21193 0.03541 0.0
O213 O 0.31858 0.15806 0.00191 0.0
C214 C 0.33863 0.12915 0.00493 0.0
O215 O 0.37 0.13224 0.02783 0.0
C216 C 0.36035 0.28385 0.09025 0.0
C217 C 0.24536 0.34942 0.0689 0.0
O218 O 0.25922 0.36948 0.09898 0.0
O219 O 0.25079 0.31346 0.06655 0.0
O220 O 0.33049 0.6479 0.73713 0.0
Cd221 Cd 0.30189 0.70963 0.73778 0.0
O222 O 0.37276 0.67037 0.69931 0.0
Cd223 Cd 0.42337 0.67368 0.66569 0.0
O224 O 0.45513 0.69139 0.6174 0.0
C225 C 0.45926 0.66882 0.58829 0.0
O226 O 0.44629 0.63277 0.58831 0.0
C227 C 0.36059 0.64344 0.71919 0.0
C228 C 0.33096 0.74726 0.8065 0.0
O229 O 0.29813 0.7286 0.80422 0.0
O230 O 0.34899 0.7497 0.77582 0.0
O231 O 0.96835 0.74272 0.29406 0.0
Cd232 Cd 0.97862 0.67464 0.29552 0.0
O233 O 0.96019 0.75533 0.35534 0.0
Cd234 Cd 0.9479 0.79361 0.40447 0.0
O235 O 0.93688 0.83906 0.44771 0.0
C236 C 0.94779 0.84361 0.48321 0.0
O237 O 0.93587 0.87298 0.50339 0.0
C238 C 0.9626 0.76664 0.32159 0.0
C239 C 0.02027 0.65535 0.2323 0.0
O240 O 0.98349 0.65267 0.22982 0.0
O241 O 0.03734 0.66614 0.26496 0.0
O242 O 0.57001 0.24555 0.77741 0.0
Cd243 Cd 0.57265 0.31429 0.79592 0.0
O244 O 0.56668 0.22739 0.83622 0.0
Cd245 Cd 0.56644 0.1846 0.87962 0.0
O246 O 0.56304 0.1308 0.90875 0.0
C247 C 0.55323 0.12523 0.94255 0.0
O248 O 0.5511 0.08992 0.95353 0.0
C249 C 0.56736 0.21881 0.80035 0.0
C250 C 0.53565 0.35078 0.73677 0.0
O251 O 0.57156 0.34533 0.73662 0.0
O252 O 0.51756 0.34005 0.76549 0.0
O253 O 0.11474 0.35344 0.31048 0.0
Cd254 Cd 0.12767 0.28602 0.31584 0.0
O255 O 0.07424 0.33211 0.26302 0.0
Cd256 Cd 0.03547 0.33349 0.2119 0.0
O257 O 0.00196 0.31856 0.15803 0.0
C258 C 0.00498 0.33861 0.12912 0.0
O259 O 0.02788 0.36998 0.1322 0.0
C260 C 0.09031 0.36033 0.28382 0.0
C261 C 0.06896 0.24534 0.34939 0.0
O262 O 0.09904 0.2592 0.36945 0.0
O263 O 0.0666 0.25077 0.31343 0.0
P264 P 0.3941 0.59356 0.44522 0.0
H265 H 0.38252 0.60968 0.52664 0.0
H266 H 0.36516 0.66718 0.56318 0.0
H267 H 0.37121 0.73094 0.46135 0.0
H268 H 0.38866 0.67332 0.42522 0.0
H269 H 0.4081 0.51252 0.45355 0.0
H270 H 0.3686 0.45885 0.47544 0.0
H271 H 0.27651 0.53404 0.49238 0.0
H272 H 0.31594 0.58717 0.47024 0.0
H273 H 0.43342 0.57864 0.37436 0.0
H274 H 0.32428 0.61733 0.40644 0.0
O275 O 0.44052 0.58526 0.45078 0.0
H276 H 0.41316 0.58266 0.3065 0.0
H277 H 0.30365 0.62051 0.3387 0.0
C278 C 0.38558 0.63698 0.47291 0.0
C279 C 0.38019 0.63608 0.51224 0.0
C280 C 0.37048 0.66904 0.53313 0.0
C281 C 0.36618 0.70347 0.51498 0.0
C282 C 0.37385 0.70476 0.47607 0.0
C283 C 0.3837 0.6718 0.45531 0.0
C284 C 0.36528 0.55398 0.46124 0.0
C285 C 0.37945 0.51739 0.46212 0.0
C286 C 0.35676 0.48672 0.47443 0.0
C287 C 0.31949 0.49226 0.4859 0.0
C288 C 0.30518 0.52886 0.48407 0.0
C289 C 0.32775 0.55932 0.47151 0.0
C290 C 0.38028 0.59764 0.39536 0.0
C291 C 0.40506 0.58778 0.36682 0.0
C292 C 0.39329 0.58959 0.32807 0.0
C293 C 0.35645 0.60082 0.31742 0.0
C294 C 0.33213 0.61157 0.34615 0.0
C295 C 0.34383 0.60962 0.3848 0.0
P296 P 0.15829 0.42546 0.94072 0.0
H297 H 0.17735 0.44808 0.02139 0.0
H298 H 0.21282 0.41835 0.07274 0.0
H299 H 0.22871 0.32067 0.995 0.0
H300 H 0.19433 0.351 0.94344 0.0
H301 H 0.11393 0.4944 0.94157 0.0
H302 H 0.13273 0.56261 0.95533 0.0
H303 H 0.25174 0.53583 0.96743 0.0
H304 H 0.23271 0.46787 0.95362 0.0
H305 H 0.13333 0.35334 0.89769 0.0
H306 H 0.20463 0.45483 0.87958 0.0
O307 O 0.11139 0.41847 0.94628 0.0
H308 H 0.14612 0.32633 0.83381 0.0
H309 H 0.21625 0.42879 0.81565 0.0
C310 C 0.18381 0.40224 0.97825 0.0
C311 C 0.18879 0.42043 0.01522 0.0
C312 C 0.20903 0.40339 0.04461 0.0
C313 C 0.22378 0.3673 0.03781 0.0
C314 C 0.21774 0.34856 0.00106 0.0
C315 C 0.19805 0.36597 0.97147 0.0
C316 C 0.17194 0.4761 0.94697 0.0
C317 C 0.14406 0.50327 0.94693 0.0
C318 C 0.15484 0.54226 0.95491 0.0
C319 C 0.19367 0.55462 0.96291 0.0
C320 C 0.22157 0.52733 0.96155 0.0
C321 C 0.21076 0.48844 0.95369 0.0
C322 C 0.16788 0.40614 0.89349 0.0
C323 C 0.1516 0.36986 0.87995 0.0
C324 C 0.15888 0.35448 0.84344 0.0
C325 C 0.18186 0.37554 0.81947 0.0
C326 C 0.1983 0.41181 0.8333 0.0
C327 C 0.19158 0.42683 0.87002 0.0
P328 P 0.79907 0.96322 0.40797 0.0
H329 H 0.77626 0.93774 0.32852 0.0
H330 H 0.75594 0.8748 0.29705 0.0
H331 H 0.77343 0.82305 0.40542 0.0
H332 H 0.79295 0.88584 0.43664 0.0
H333 H 0.8062 0.04592 0.41862 0.0
H334 H 0.766 0.09627 0.39789 0.0
H335 H 0.67982 0.01015 0.34949 0.0
H336 H 0.71967 0.95986 0.37207 0.0
H337 H 0.86218 0.94586 0.46074 0.0
H338 H 0.74484 0.97569 0.46781 0.0
O339 O 0.84202 0.97671 0.3932 0.0
H340 H 0.86991 0.94675 0.5305 0.0
H341 H 0.75232 0.97712 0.53793 0.0
C342 C 0.78502 0.91666 0.38507 0.0
C343 C 0.7756 0.91281 0.34545 0.0
C344 C 0.76418 0.87682 0.32749 0.0
C345 C 0.76289 0.844 0.34881 0.0
C346 C 0.77409 0.84779 0.3882 0.0
C347 C 0.785 0.88384 0.40618 0.0
C348 C 0.76664 0.99924 0.39552 0.0
C349 C 0.77846 0.03789 0.40395 0.0
C350 C 0.75529 0.06663 0.39221 0.0
C351 C 0.71999 0.0572 0.37128 0.0
C352 C 0.70701 0.01836 0.36517 0.0
C353 C 0.73007 0.98954 0.37757 0.0
C354 C 0.80334 0.96177 0.4593 0.0
C355 C 0.83807 0.95264 0.47741 0.0
C356 C 0.84233 0.95298 0.51734 0.0
C357 C 0.81182 0.96245 0.53989 0.0
C358 C 0.77645 0.97 0.52145 0.0
C359 C 0.7722 0.9694 0.48139 0.0
P360 P 0.6155 0.09423 0.11194 0.0
H361 H 0.6125 0.10497 0.02936 0.0
H362 H 0.62913 0.16005 0.99252 0.0
H363 H 0.66294 0.22757 0.09793 0.0
H364 H 0.64678 0.17215 0.13458 0.0
H365 H 0.56139 0.02758 0.09387 0.0
H366 H 0.56711 0.96571 0.05946 0.0
H367 H 0.68442 0.99931 0.03765 0.0
H368 H 0.67814 0.06166 0.07177 0.0
H369 H 0.59992 0.07379 0.18945 0.0
H370 H 0.69827 0.1094 0.12851 0.0
O371 O 0.57029 0.0988 0.12342 0.0
H372 H 0.64192 0.06594 0.24652 0.0
H373 H 0.74056 0.10051 0.18534 0.0
C374 C 0.62925 0.13425 0.08466 0.0
C375 C 0.62384 0.13151 0.04454 0.0
C376 C 0.63297 0.16318 0.02351 0.0
C377 C 0.64659 0.19845 0.04234 0.0
C378 C 0.65198 0.20098 0.08258 0.0
C379 C 0.64303 0.16924 0.10356 0.0
C380 C 0.61919 0.04934 0.08494 0.0
C381 C 0.58822 0.02183 0.0814 0.0
C382 C 0.59165 0.98633 0.06184 0.0
C383 C 0.6263 0.9775 0.04587 0.0
C384 C 0.65739 0.00515 0.04968 0.0
C385 C 0.65381 0.04081 0.06907 0.0
C386 C 0.64597 0.09265 0.15497 0.0
C387 C 0.63052 0.08012 0.18843 0.0
C388 C 0.6546 0.07495 0.22078 0.0
C389 C 0.69454 0.08149 0.21986 0.0
C390 C 0.70986 0.09503 0.18664 0.0
C391 C 0.68575 0.10018 0.15427 0.0
P392 P 0.44528 0.39407 0.59353 0.0
H393 H 0.5267 0.38249 0.60965 0.0
H394 H 0.56324 0.36513 0.66715 0.0
H395 H 0.46141 0.37118 0.73091 0.0
H396 H 0.42528 0.38863 0.67329 0.0
H397 H 0.45361 0.40807 0.51249 0.0
H398 H 0.47549 0.36857 0.45882 0.0
H399 H 0.49244 0.27648 0.53401 0.0
H400 H 0.4703 0.31591 0.58714 0.0
H401 H 0.37442 0.43339 0.57861 0.0
H402 H 0.4065 0.32425 0.6173 0.0
O403 O 0.45084 0.44049 0.58523 0.0
H404 H 0.30656 0.41313 0.58263 0.0
H405 H 0.33876 0.30362 0.62048 0.0
C406 C 0.47297 0.38555 0.63695 0.0
C407 C 0.5123 0.38016 0.63606 0.0
C408 C 0.53319 0.37045 0.66901 0.0
C409 C 0.51504 0.36616 0.70344 0.0
C410 C 0.47612 0.37382 0.70473 0.0
C411 C 0.45536 0.38367 0.67177 0.0
C412 C 0.4613 0.36525 0.55396 0.0
C413 C 0.46218 0.37942 0.51736 0.0
C414 C 0.47449 0.35673 0.48669 0.0
C415 C 0.48596 0.31946 0.49223 0.0
C416 C 0.48413 0.30515 0.52883 0.0
C417 C 0.47157 0.32773 0.55929 0.0
C418 C 0.39541 0.38026 0.59762 0.0
C419 C 0.36688 0.40503 0.58775 0.0
C420 C 0.32813 0.39326 0.58956 0.0
C421 C 0.31748 0.35642 0.60079 0.0
C422 C 0.34621 0.33211 0.61154 0.0
C423 C 0.38486 0.3438 0.6096 0.0
P424 P 0.11199 0.61548 0.0942 0.0
H425 H 0.02941 0.61248 0.10494 0.0
H426 H 0.99257 0.62911 0.16002 0.0
H427 H 0.09798 0.66292 0.22754 0.0
H428 H 0.13464 0.64675 0.17212 0.0
H429 H 0.09393 0.56137 0.02755 0.0
H430 H 0.05952 0.56709 0.96568 0.0
H431 H 0.0377 0.6844 0.99928 0.0
H432 H 0.07183 0.67811 0.06163 0.0
H433 H 0.18951 0.59989 0.07376 0.0
H434 H 0.12857 0.69824 0.10937 0.0
O435 O 0.12347 0.57026 0.09877 0.0
H436 H 0.24658 0.64189 0.06591 0.0
H437 H 0.1854 0.74053 0.10048 0.0
C438 C 0.08472 0.62923 0.13422 0.0
C439 C 0.04459 0.62382 0.13148 0.0
C440 C 0.02357 0.63295 0.16315 0.0
C441 C 0.0424 0.64657 0.19842 0.0
C442 C 0.08263 0.65196 0.20095 0.0
C443 C 0.10362 0.64301 0.16921 0.0
C444 C 0.08499 0.61916 0.04931 0.0
C445 C 0.08146 0.5882 0.0218 0.0
C446 C 0.0619 0.59162 0.98629 0.0
C447 C 0.04593 0.62628 0.97747 0.0
C448 C 0.04973 0.65737 0.00512 0.0
C449 C 0.06913 0.65379 0.04078 0.0
C450 C 0.15503 0.64594 0.09262 0.0
C451 C 0.18848 0.63049 0.08009 0.0
C452 C 0.22083 0.65457 0.07492 0.0
C453 C 0.21991 0.69451 0.08146 0.0
C454 C 0.1867 0.70983 0.09499 0.0
C455 C 0.15432 0.68572 0.10015 0.0
P456 P 0.94078 0.15827 0.42543 0.0
H457 H 0.02145 0.17733 0.44805 0.0
H458 H 0.0728 0.2128 0.41832 0.0
H459 H 0.99506 0.22869 0.32064 0.0
H460 H 0.9435 0.19431 0.35097 0.0
H461 H 0.94162 0.11391 0.49437 0.0
H462 H 0.95539 0.13271 0.56258 0.0
H463 H 0.96749 0.25171 0.5358 0.0
H464 H 0.95368 0.23269 0.46784 0.0
H465 H 0.89775 0.13331 0.35331 0.0
H466 H 0.87964 0.20461 0.4548 0.0
O467 O 0.94634 0.11137 0.41844 0.0
H468 H 0.83386 0.1461 0.3263 0.0
H469 H 0.81571 0.21623 0.42876 0.0
C470 C 0.97831 0.18379 0.40222 0.0
C471 C 0.01528 0.18876 0.4204 0.0
C472 C 0.04467 0.20901 0.40337 0.0
C473 C 0.03787 0.22375 0.36727 0.0
C474 C 0.00112 0.21772 0.34853 0.0
C475 C 0.97153 0.19802 0.36594 0.0
C476 C 0.94702 0.17191 0.47607 0.0
C477 C 0.94699 0.14404 0.50324 0.0
C478 C 0.95496 0.15482 0.54223 0.0
C479 C 0.96296 0.19365 0.5546 0.0
C480 C 0.9616 0.22155 0.5273 0.0
C481 C 0.95374 0.21074 0.48841 0.0
C482 C 0.89355 0.16786 0.40611 0.0
C483 C 0.88 0.15158 0.36983 0.0
C484 C 0.84349 0.15885 0.35445 0.0
C485 C 0.81953 0.18183 0.37551 0.0
C486 C 0.83335 0.19828 0.41178 0.0
C487 C 0.87008 0.19156 0.4268 0.0
P488 P 0.40803 0.79904 0.96318 0.0
H489 H 0.32857 0.77624 0.93771 0.0
H490 H 0.29711 0.75592 0.87476 0.0
H491 H 0.40548 0.7734 0.82302 0.0
H492 H 0.4367 0.79293 0.8858 0.0
H493 H 0.41868 0.80617 0.04588 0.0
H494 H 0.39794 0.76597 0.09623 0.0
H495 H 0.34955 0.67979 0.01012 0.0
H496 H 0.37212 0.71965 0.95982 0.0
H497 H 0.4608 0.86216 0.94582 0.0
H498 H 0.46787 0.74482 0.97566 0.0
O499 O 0.39325 0.84199 0.97667 0.0
H500 H 0.53056 0.86989 0.94672 0.0
H501 H 0.53799 0.7523 0.97708 0.0
C502 C 0.38513 0.78499 0.91663 0.0
C503 C 0.34551 0.77557 0.91277 0.0
C504 C 0.32755 0.76416 0.87679 0.0
C505 C 0.34887 0.76286 0.84397 0.0
C506 C 0.38826 0.77406 0.84775 0.0
C507 C 0.40624 0.78497 0.8838 0.0
C508 C 0.39558 0.76662 0.9992 0.0
C509 C 0.404 0.77843 0.03785 0.0
C510 C 0.39226 0.75526 0.06659 0.0
C511 C 0.37134 0.71996 0.05716 0.0
C512 C 0.36522 0.70698 0.01832 0.0
C513 C 0.37763 0.73005 0.98951 0.0
C514 C 0.45936 0.80332 0.96173 0.0
C515 C 0.47746 0.83805 0.9526 0.0
C516 C 0.51739 0.8423 0.95294 0.0
C517 C 0.53994 0.81179 0.96241 0.0
C518 C 0.52151 0.77643 0.96997 0.0
C519 C 0.48145 0.77217 0.96936 0.0
P520 P 0.59358 0.44526 0.39404 0.0
H521 H 0.60971 0.52668 0.38246 0.0
H522 H 0.6672 0.56321 0.3651 0.0
H523 H 0.73096 0.46139 0.37115 0.0
H524 H 0.67335 0.42526 0.3886 0.0
H525 H 0.51255 0.45359 0.40804 0.0
H526 H 0.45887 0.47547 0.36854 0.0
H527 H 0.53407 0.49241 0.27645 0.0
H528 H 0.5872 0.47028 0.31588 0.0
H529 H 0.57867 0.37439 0.43336 0.0
H530 H 0.61736 0.40647 0.32422 0.0
O531 O 0.58528 0.45082 0.44046 0.0
H532 H 0.58268 0.30654 0.4131 0.0
H533 H 0.62054 0.33874 0.30359 0.0
C534 C 0.63701 0.47295 0.38552 0.0
C535 C 0.63611 0.51228 0.38013 0.0
C536 C 0.66907 0.53317 0.37042 0.0
C537 C 0.7035 0.51501 0.36613 0.0
C538 C 0.70478 0.4761 0.37379 0.0
C539 C 0.67183 0.45534 0.38364 0.0
C540 C 0.55401 0.46128 0.36522 0.0
C541 C 0.51742 0.46215 0.37939 0.0
C542 C 0.48674 0.47446 0.3567 0.0
C543 C 0.49229 0.48594 0.31943 0.0
C544 C 0.52888 0.4841 0.30512 0.0
C545 C 0.55935 0.47155 0.3277 0.0
C546 C 0.59767 0.39539 0.38023 0.0
C547 C 0.5878 0.36686 0.405 0.0
C548 C 0.58962 0.3281 0.39323 0.0
C549 C 0.60085 0.31745 0.35639 0.0
C550 C 0.6116 0.34619 0.33208 0.0
C551 C 0.60965 0.38483 0.34377 0.0
P552 P 0.09425 0.11197 0.61544 0.0
H553 H 0.10499 0.02939 0.61245 0.0
H554 H 0.16008 0.99255 0.62908 0.0
H555 H 0.22759 0.09796 0.66289 0.0
H556 H 0.17217 0.13461 0.64672 0.0
H557 H 0.02761 0.0939 0.56134 0.0
H558 H 0.96574 0.05949 0.56705 0.0
H559 H 0.99933 0.03768 0.68437 0.0
H560 H 0.06169 0.0718 0.67808 0.0
H561 H 0.07381 0.18948 0.59986 0.0
H562 H 0.10943 0.12854 0.69821 0.0
O563 O 0.09882 0.12345 0.57023 0.0
H564 H 0.06596 0.24655 0.64186 0.0
H565 H 0.10053 0.18537 0.7405 0.0
C566 C 0.13427 0.08469 0.6292 0.0
C567 C 0.13153 0.04457 0.62379 0.0
C568 C 0.16321 0.02354 0.63292 0.0
C569 C 0.19847 0.04237 0.64654 0.0
C570 C 0.201 0.08261 0.65193 0.0
C571 C 0.16927 0.10359 0.64297 0.0
C572 C 0.04936 0.08497 0.61913 0.0
C573 C 0.02185 0.08143 0.58817 0.0
C574 C 0.98635 0.06187 0.59159 0.0
C575 C 0.97753 0.0459 0.62625 0.0
C576 C 0.00518 0.04971 0.65734 0.0
C577 C 0.04084 0.0691 0.65376 0.0
C578 C 0.09267 0.155 0.64591 0.0
C579 C 0.08014 0.18846 0.63046 0.0
C580 C 0.07497 0.22081 0.65454 0.0
C581 C 0.08152 0.21989 0.69448 0.0
C582 C 0.09505 0.18667 0.7098 0.0
C583 C 0.1002 0.1543 0.68569 0.0
P584 P 0.42549 0.94075 0.15824 0.0
H585 H 0.44811 0.02142 0.17729 0.0
H586 H 0.41838 0.07277 0.21277 0.0
H587 H 0.3207 0.99503 0.22866 0.0
H588 H 0.35104 0.94347 0.19428 0.0
H589 H 0.49443 0.94159 0.11388 0.0
H590 H 0.56264 0.95536 0.13268 0.0
H591 H 0.53586 0.96746 0.25168 0.0
H592 H 0.4679 0.95365 0.23266 0.0
H593 H 0.35337 0.89772 0.13328 0.0
H594 H 0.45486 0.87961 0.20457 0.0
O595 O 0.4185 0.94631 0.11134 0.0
H596 H 0.32637 0.83383 0.14606 0.0
H597 H 0.42883 0.81568 0.21619 0.0
C598 C 0.40228 0.97828 0.18375 0.0
C599 C 0.42046 0.01525 0.18873 0.0
C600 C 0.40343 0.04464 0.20898 0.0
C601 C 0.36734 0.03784 0.22372 0.0
C602 C 0.34859 0.00109 0.21769 0.0
C603 C 0.366 0.9715 0.19799 0.0
C604 C 0.47613 0.947 0.17188 0.0
C605 C 0.5033 0.94696 0.14401 0.0
C606 C 0.54229 0.95493 0.15478 0.0
C607 C 0.55466 0.96294 0.19361 0.0
C608 C 0.52736 0.96158 0.22151 0.0
C609 C 0.48847 0.95371 0.2107 0.0
C610 C 0.40617 0.89352 0.16782 0.0
C611 C 0.36989 0.87997 0.15154 0.0
C612 C 0.35451 0.84346 0.15882 0.0
C613 C 0.37558 0.8195 0.1818 0.0
C614 C 0.41184 0.83332 0.19824 0.0
C615 C 0.42686 0.87005 0.19153 0.0
P616 P 0.96324 0.40801 0.79901 0.0
H617 H 0.93777 0.32855 0.77621 0.0
H618 H 0.87482 0.29708 0.75588 0.0
H619 H 0.82308 0.40545 0.77337 0.0
H620 H 0.88587 0.43667 0.7929 0.0
H621 H 0.04595 0.41865 0.80614 0.0
H622 H 0.09629 0.39792 0.76594 0.0
H623 H 0.01018 0.34953 0.67976 0.0
H624 H 0.95988 0.3721 0.71962 0.0
H625 H 0.94588 0.46077 0.86213 0.0
H626 H 0.97572 0.46784 0.74479 0.0
O627 O 0.97673 0.39323 0.84196 0.0
H628 H 0.94678 0.53054 0.86985 0.0
H629 H 0.97714 0.53797 0.75227 0.0
C630 C 0.91669 0.38511 0.78496 0.0
C631 C 0.91283 0.34548 0.77554 0.0
C632 C 0.87685 0.32752 0.76413 0.0
C633 C 0.84403 0.34884 0.76283 0.0
C634 C 0.84781 0.38823 0.77403 0.0
C635 C 0.88386 0.40622 0.78494 0.0
C636 C 0.99926 0.39555 0.76658 0.0
C637 C 0.03791 0.40398 0.7784 0.0
C638 C 0.06665 0.39224 0.75523 0.0
C639 C 0.05723 0.37132 0.71993 0.0
C640 C 0.01838 0.3652 0.70696 0.0
C641 C 0.98957 0.3776 0.73002 0.0
C642 C 0.96179 0.45933 0.80329 0.0
C643 C 0.95266 0.47744 0.83802 0.0
C644 C 0.953 0.51737 0.84227 0.0
C645 C 0.96247 0.53992 0.81176 0.0
C646 C 0.97003 0.52148 0.7764 0.0
C647 C 0.96942 0.48142 0.77214 0.0
P648 P 0.73906 0.43893 0.49474 0.0
H649 H 0.76223 0.41337 0.419 0.0
H650 H 0.74329 0.35607 0.37717 0.0
H651 H 0.65459 0.32538 0.4527 0.0
H652 H 0.67241 0.38356 0.49328 0.0
H653 H 0.77077 0.51785 0.49721 0.0
H654 H 0.74299 0.57784 0.48282 0.0
H655 H 0.63047 0.51873 0.46707 0.0
H656 H 0.65895 0.4582 0.48056 0.0
H657 H 0.7878 0.39226 0.53958 0.0
H658 H 0.67879 0.44202 0.55027 0.0
O659 O 0.78582 0.44612 0.48833 0.0
H660 H 0.77937 0.35959 0.59828 0.0
H661 H 0.66926 0.40789 0.60825 0.0
C662 C 0.71946 0.4021 0.45979 0.0
C663 C 0.73811 0.39479 0.42603 0.0
C664 C 0.72715 0.36208 0.40207 0.0
C665 C 0.69787 0.33592 0.41206 0.0
C666 C 0.67747 0.34485 0.44446 0.0
C667 C 0.68782 0.37805 0.46783 0.0
C668 C 0.717 0.48349 0.48914 0.0
C669 C 0.74009 0.51774 0.49084 0.0
C670 C 0.72409 0.55214 0.48275 0.0
C671 C 0.68456 0.55297 0.47315 0.0
C672 C 0.66108 0.51895 0.47393 0.0
C673 C 0.67728 0.48435 0.48162 0.0
C674 C 0.73455 0.42057 0.54126 0.0
C675 C 0.76237 0.39681 0.55503 0.0
C676 C 0.75724 0.37772 0.58836 0.0
C677 C 0.72393 0.38168 0.60843 0.0
C678 C 0.69591 0.40542 0.59447 0.0
C679 C 0.70126 0.42485 0.56114 0.0
P680 P 0.73584 0.56412 0.05238 0.0
H681 H 0.69616 0.59063 0.98445 0.0
H682 H 0.68088 0.65436 0.9649 0.0
H683 H 0.74084 0.70587 0.06863 0.0
H684 H 0.75758 0.64248 0.08708 0.0
H685 H 0.74945 0.48354 0.03676 0.0
H686 H 0.79381 0.45088 0.99684 0.0
H687 H 0.8341 0.55983 0.95709 0.0
H688 H 0.79142 0.59251 0.99905 0.0
H689 H 0.70959 0.59639 0.12424 0.0
H690 H 0.80412 0.53171 0.08896 0.0
O691 O 0.69365 0.53888 0.04989 0.0
H692 H 0.73566 0.59841 0.19091 0.0
H693 H 0.82792 0.53048 0.15546 0.0
C694 C 0.72714 0.61161 0.03766 0.0
C695 C 0.70623 0.61568 0.00283 0.0
C696 C 0.69761 0.6521 0.99167 0.0
C697 C 0.70926 0.68504 0.01551 0.0
C698 C 0.73101 0.68094 0.04996 0.0
C699 C 0.74039 0.64458 0.06064 0.0
C700 C 0.76647 0.54033 0.02018 0.0
C701 C 0.76746 0.50028 0.01895 0.0
C702 C 0.79253 0.48151 0.99562 0.0
C703 C 0.81656 0.50245 0.97249 0.0
C704 C 0.81566 0.54271 0.97415 0.0
C705 C 0.79105 0.56149 0.99799 0.0
C706 C 0.75543 0.56498 0.10137 0.0
C707 C 0.73601 0.58278 0.13078 0.0
C708 C 0.75084 0.58374 0.16887 0.0
C709 C 0.785 0.56619 0.17832 0.0
C710 C 0.80325 0.54667 0.14898 0.0
C711 C 0.78898 0.54659 0.11079 0.0
P712 P 0.25295 0.06214 0.52635 0.0
H713 H 0.27439 0.10263 0.60092 0.0
H714 H 0.2566 0.16366 0.63043 0.0
H715 H 0.18054 0.17857 0.53118 0.0
H716 H 0.19856 0.11755 0.50182 0.0
H717 H 0.25216 0.9918 0.56773 0.0
H718 H 0.20099 0.94454 0.57957 0.0
H719 H 0.12134 0.00335 0.50839 0.0
H720 H 0.17274 0.05101 0.49707 0.0
H721 H 0.28867 0.12666 0.49023 0.0
H722 H 0.23821 0.01369 0.45443 0.0
O723 O 0.29426 0.05078 0.54788 0.0
H724 H 0.3011 0.13815 0.42383 0.0
H725 H 0.25176 0.02453 0.388 0.0
C726 C 0.23815 0.10586 0.54903 0.0
C727 C 0.2538 0.11897 0.58558 0.0
C728 C 0.24343 0.15374 0.60249 0.0
C729 C 0.21723 0.1759 0.58305 0.0
C730 C 0.20086 0.16214 0.54681 0.0
C731 C 0.21109 0.12726 0.53004 0.0
C732 C 0.21629 0.0248 0.53133 0.0
C733 C 0.2239 0.9941 0.55399 0.0
C734 C 0.19464 0.96664 0.56032 0.0
C735 C 0.15724 0.96953 0.54418 0.0
C736 C 0.14989 0.0002 0.52113 0.0
C737 C 0.17922 0.02751 0.51465 0.0
C738 C 0.26132 0.06986 0.47706 0.0
C739 C 0.2799 0.10445 0.46798 0.0
C740 C 0.2872 0.1109 0.43002 0.0
C741 C 0.27631 0.08271 0.40042 0.0
C742 C 0.25884 0.0475 0.4098 0.0
C743 C 0.25143 0.04112 0.44788 0.0
P744 P 0.27662 0.97379 0.93136 0.0
H745 H 0.27811 0.96961 0.01401 0.0
H746 H 0.29075 0.91837 0.05643 0.0
H747 H 0.31214 0.84332 0.95829 0.0
H748 H 0.30007 0.89509 0.91603 0.0
H749 H 0.2488 0.05048 0.92909 0.0
H750 H 0.27348 0.1129 0.95827 0.0
H751 H 0.3731 0.06088 0.00644 0.0
H752 H 0.34813 0.99848 0.97683 0.0
H753 H 0.23886 0.93657 0.86127 0.0
H754 H 0.34925 0.99341 0.89674 0.0
O755 O 0.22885 0.97431 0.92859 0.0
H756 H 0.25697 0.93203 0.79483 0.0
H757 H 0.36711 0.98995 0.83017 0.0
C758 C 0.28905 0.93644 0.96203 0.0
C759 C 0.28615 0.94231 0.00169 0.0
C760 C 0.29317 0.91289 0.02589 0.0
C761 C 0.30257 0.87678 0.01073 0.0
C762 C 0.3052 0.87088 0.97085 0.0
C763 C 0.29842 0.90051 0.94666 0.0
C764 C 0.29611 0.01979 0.95175 0.0
C765 C 0.27591 0.05253 0.94598 0.0
C766 C 0.29016 0.08823 0.9626 0.0
C767 C 0.32506 0.0918 0.9851 0.0
C768 C 0.34597 0.05906 0.98958 0.0
C769 C 0.33167 0.02335 0.97284 0.0
C770 C 0.29241 0.96601 0.88372 0.0
C771 C 0.26715 0.94771 0.85482 0.0
C772 C 0.27756 0.94505 0.81691 0.0
C773 C 0.31362 0.96023 0.80737 0.0
C774 C 0.33963 0.97692 0.83673 0.0
C775 C 0.32917 0.9795 0.87475 0.0
P776 P 0.49479 0.73903 0.43889 0.0
H777 H 0.41905 0.7622 0.41333 0.0
H778 H 0.37722 0.74326 0.35603 0.0
H779 H 0.45276 0.65457 0.32534 0.0
H780 H 0.49334 0.67239 0.38353 0.0
H781 H 0.49726 0.77075 0.51782 0.0
H782 H 0.48287 0.74297 0.5778 0.0
H783 H 0.46712 0.63044 0.5187 0.0
H784 H 0.48062 0.65892 0.45816 0.0
H785 H 0.53963 0.78777 0.39222 0.0
H786 H 0.55033 0.67876 0.44198 0.0
O787 O 0.48838 0.78579 0.44608 0.0
H788 H 0.59833 0.77934 0.35955 0.0
H789 H 0.60831 0.66924 0.40785 0.0
C790 C 0.45985 0.71944 0.40207 0.0
C791 C 0.42609 0.73808 0.39476 0.0
C792 C 0.40213 0.72712 0.36205 0.0
C793 C 0.41212 0.69784 0.33588 0.0
C794 C 0.44452 0.67744 0.34482 0.0
C795 C 0.46789 0.6878 0.37801 0.0
C796 C 0.4892 0.71697 0.48346 0.0
C797 C 0.4909 0.74006 0.5177 0.0
C798 C 0.4828 0.72406 0.5521 0.0
C799 C 0.47321 0.68453 0.55294 0.0
C800 C 0.47399 0.66106 0.51892 0.0
C801 C 0.48168 0.67725 0.48432 0.0
C802 C 0.54131 0.73453 0.42054 0.0
C803 C 0.55509 0.76234 0.39677 0.0
C804 C 0.58842 0.75722 0.37768 0.0
C805 C 0.60849 0.72391 0.38165 0.0
C806 C 0.59453 0.69588 0.40539 0.0
C807 C 0.56119 0.70123 0.42481 0.0
P808 P 0.93142 0.2766 0.97376 0.0
H809 H 0.01406 0.27809 0.96958 0.0
H810 H 0.05649 0.29073 0.91834 0.0
H811 H 0.95834 0.31212 0.84329 0.0
H812 H 0.91608 0.30005 0.89506 0.0
H813 H 0.92914 0.24878 0.05045 0.0
H814 H 0.95833 0.27345 0.11287 0.0
H815 H 0.00649 0.37307 0.06085 0.0
H816 H 0.97689 0.34811 0.99845 0.0
H817 H 0.86132 0.23884 0.93654 0.0
H818 H 0.8968 0.34923 0.99338 0.0
O819 O 0.92864 0.22883 0.97428 0.0
H820 H 0.79488 0.25695 0.932 0.0
H821 H 0.83022 0.36708 0.98992 0.0
C822 C 0.96209 0.28903 0.93641 0.0
C823 C 0.00174 0.28612 0.94228 0.0
C824 C 0.02594 0.29315 0.91286 0.0
C825 C 0.01078 0.30255 0.87675 0.0
C826 C 0.97091 0.30518 0.87085 0.0
C827 C 0.94672 0.29839 0.90048 0.0
C828 C 0.95181 0.29609 0.01976 0.0
C829 C 0.94603 0.27589 0.0525 0.0
C830 C 0.96265 0.29014 0.0882 0.0
C831 C 0.98515 0.32504 0.09177 0.0
C832 C 0.98964 0.34594 0.05903 0.0
C833 C 0.97289 0.33164 0.02332 0.0
C834 C 0.88377 0.29239 0.96599 0.0
C835 C 0.85487 0.26713 0.94768 0.0
C836 C 0.81696 0.27754 0.94502 0.0
C837 C 0.80742 0.3136 0.9602 0.0
C838 C 0.83679 0.3396 0.97689 0.0
C839 C 0.8748 0.32915 0.97947 0.0
P840 P 0.05243 0.73581 0.56408 0.0
H841 H 0.98451 0.69614 0.5906 0.0
H842 H 0.96496 0.68086 0.65433 0.0
H843 H 0.06869 0.74081 0.70583 0.0
H844 H 0.08714 0.75755 0.64245 0.0
H845 H 0.03681 0.74943 0.48351 0.0
H846 H 0.9969 0.79378 0.45085 0.0
H847 H 0.95715 0.83408 0.5598 0.0
H848 H 0.99911 0.79139 0.59248 0.0
H849 H 0.1243 0.70956 0.59636 0.0
H850 H 0.08902 0.80409 0.53168 0.0
O851 O 0.04994 0.69362 0.53884 0.0
H852 H 0.19097 0.73563 0.59837 0.0
H853 H 0.15552 0.82789 0.53045 0.0
C854 C 0.03771 0.72711 0.61158 0.0
C855 C 0.00289 0.70621 0.61565 0.0
C856 C 0.99172 0.69758 0.65206 0.0
C857 C 0.01557 0.70923 0.685 0.0
C858 C 0.05002 0.73098 0.68091 0.0
C859 C 0.0607 0.74037 0.64454 0.0
C860 C 0.02024 0.76645 0.5403 0.0
C861 C 0.01901 0.76743 0.50024 0.0
C862 C 0.99568 0.7925 0.48148 0.0
C863 C 0.97255 0.81653 0.50242 0.0
C864 C 0.97421 0.81563 0.54268 0.0
C865 C 0.99805 0.79102 0.56146 0.0
C866 C 0.10142 0.7554 0.56494 0.0
C867 C 0.13084 0.73598 0.58275 0.0
C868 C 0.16893 0.75082 0.58371 0.0
C869 C 0.17838 0.78497 0.56616 0.0
C870 C 0.14904 0.80322 0.54664 0.0
C871 C 0.11085 0.78895 0.54656 0.0
P872 P 0.52641 0.25293 0.06211 0.0
H873 H 0.60097 0.27436 0.1026 0.0
H874 H 0.63049 0.25657 0.16363 0.0
H875 H 0.53124 0.18051 0.17854 0.0
H876 H 0.50188 0.19853 0.11752 0.0
H877 H 0.56778 0.25214 0.99177 0.0
H878 H 0.57963 0.20096 0.94452 0.0
H879 H 0.50844 0.12131 0.00332 0.0
H880 H 0.49713 0.17271 0.05098 0.0
H881 H 0.49028 0.28864 0.12663 0.0
H882 H 0.45448 0.23818 0.01366 0.0
O883 O 0.54794 0.29423 0.05075 0.0
H884 H 0.42388 0.30107 0.13813 0.0
H885 H 0.38806 0.25173 0.0245 0.0
C886 C 0.54909 0.23812 0.10583 0.0
C887 C 0.58563 0.25378 0.11894 0.0
C888 C 0.60255 0.24341 0.15371 0.0
C889 C 0.58311 0.2172 0.17587 0.0
C890 C 0.54686 0.20083 0.16211 0.0
C891 C 0.5301 0.21106 0.12723 0.0
C892 C 0.53138 0.21627 0.02477 0.0
C893 C 0.55405 0.22387 0.99407 0.0
C894 C 0.56037 0.19461 0.96662 0.0
C895 C 0.54423 0.15721 0.96951 0.0
C896 C 0.52119 0.14987 0.00018 0.0
C897 C 0.51471 0.1792 0.02748 0.0
C898 C 0.47711 0.26129 0.06983 0.0
C899 C 0.46803 0.27987 0.10442 0.0
C900 C 0.43008 0.28717 0.11087 0.0
C901 C 0.40048 0.27628 0.08268 0.0
C902 C 0.40986 0.25882 0.04747 0.0
C903 C 0.44793 0.2514 0.04109 0.0
P904 P 0.43895 0.49477 0.73901 0.0
H905 H 0.41339 0.41903 0.76217 0.0
H906 H 0.35609 0.3772 0.74324 0.0
H907 H 0.3254 0.45273 0.65454 0.0
H908 H 0.38359 0.49331 0.67236 0.0
H909 H 0.51788 0.49724 0.77072 0.0
H910 H 0.57786 0.48285 0.74294 0.0
H911 H 0.51876 0.4671 0.63041 0.0
H912 H 0.45822 0.48059 0.65889 0.0
H913 H 0.39228 0.53961 0.78774 0.0
H914 H 0.44204 0.5503 0.67873 0.0
O915 O 0.44614 0.48836 0.78577 0.0
H916 H 0.35961 0.59831 0.77931 0.0
H917 H 0.40791 0.60828 0.66921 0.0
C918 C 0.40213 0.45982 0.71941 0.0
C919 C 0.39481 0.42606 0.73806 0.0
C920 C 0.36211 0.4021 0.72709 0.0
C921 C 0.33594 0.41209 0.69782 0.0
C922 C 0.34488 0.44449 0.67741 0.0
C923 C 0.37807 0.46786 0.68777 0.0
C924 C 0.48352 0.48917 0.71694 0.0
C925 C 0.51776 0.49087 0.74003 0.0
C926 C 0.55216 0.48278 0.72403 0.0
C927 C 0.553 0.47318 0.6845 0.0
C928 C 0.51897 0.47396 0.66103 0.0
C929 C 0.48438 0.48165 0.67722 0.0
C930 C 0.4206 0.54129 0.7345 0.0
C931 C 0.39683 0.55507 0.76231 0.0
C932 C 0.37774 0.58839 0.75718 0.0
C933 C 0.38171 0.60846 0.72388 0.0
C934 C 0.40545 0.5945 0.69585 0.0
C935 C 0.42487 0.56117 0.7012 0.0
P936 P 0.97381 0.9314 0.27657 0.0
H937 H 0.96964 0.01404 0.27806 0.0
H938 H 0.9184 0.05647 0.2907 0.0
H939 H 0.84335 0.95832 0.31209 0.0
H940 H 0.89511 0.91606 0.30002 0.0
H941 H 0.05051 0.92912 0.24874 0.0
H942 H 0.11293 0.9583 0.27342 0.0
H943 H 0.06091 0.00647 0.37304 0.0
H944 H 0.99851 0.97687 0.34808 0.0
H945 H 0.9366 0.8613 0.23881 0.0
H946 H 0.99344 0.89678 0.34919 0.0
O947 O 0.97434 0.92862 0.2288 0.0
H948 H 0.93205 0.79486 0.25692 0.0
H949 H 0.98997 0.8302 0.36705 0.0
C950 C 0.93646 0.96207 0.289 0.0
C951 C 0.94234 0.00172 0.28609 0.0
C952 C 0.91292 0.02592 0.29311 0.0
C953 C 0.8768 0.01076 0.30252 0.0
C954 C 0.8709 0.97089 0.30515 0.0
C955 C 0.90053 0.94669 0.29836 0.0
C956 C 0.01982 0.95178 0.29606 0.0
C957 C 0.05256 0.94601 0.27586 0.0
C958 C 0.08826 0.96263 0.29011 0.0
C959 C 0.09183 0.98513 0.32501 0.0
C960 C 0.05909 0.98962 0.34591 0.0
C961 C 0.02338 0.97287 0.33161 0.0
C962 C 0.96604 0.88375 0.29236 0.0
C963 C 0.94774 0.85485 0.2671 0.0
C964 C 0.94508 0.81694 0.27751 0.0
C965 C 0.96026 0.8074 0.31357 0.0
C966 C 0.97694 0.83676 0.33957 0.0
C967 C 0.97953 0.87478 0.32911 0.0
P968 P 0.56414 0.05241 0.73578 0.0
H969 H 0.59065 0.98449 0.69611 0.0
H970 H 0.65438 0.96493 0.68083 0.0
H971 H 0.70589 0.06866 0.74078 0.0
H972 H 0.6425 0.08711 0.75752 0.0
H973 H 0.48356 0.03679 0.7494 0.0
H974 H 0.4509 0.99687 0.79375 0.0
H975 H 0.55986 0.95712 0.83405 0.0
H976 H 0.59253 0.99908 0.79136 0.0
H977 H 0.59641 0.12427 0.70953 0.0
H978 H 0.53173 0.08899 0.80406 0.0
O979 O 0.5389 0.04992 0.69359 0.0
H980 H 0.59843 0.19094 0.7356 0.0
H981 H 0.5305 0.15549 0.82786 0.0
C982 C 0.61163 0.03769 0.72708 0.0
C983 C 0.61571 0.00287 0.70618 0.0
C984 C 0.65212 0.9917 0.69755 0.0
C985 C 0.68506 0.01554 0.7092 0.0
C986 C 0.68096 0.04999 0.73095 0.0
C987 C 0.6446 0.06067 0.74034 0.0
C988 C 0.54036 0.02021 0.76641 0.0
C989 C 0.5003 0.01898 0.7674 0.0
C990 C 0.48153 0.99565 0.79247 0.0
C991 C 0.50247 0.97252 0.8165 0.0
C992 C 0.54274 0.97418 0.8156 0.0
C993 C 0.56152 0.99802 0.79099 0.0
C994 C 0.565 0.1014 0.75537 0.0
C995 C 0.5828 0.13081 0.73596 0.0
C996 C 0.58376 0.1689 0.75079 0.0
C997 C 0.56621 0.17835 0.78495 0.0
C998 C 0.54669 0.14901 0.8032 0.0
C999 C 0.54662 0.11082 0.78892 0.0
P1000 P 0.06217 0.52639 0.2529 0.0
H1001 H 0.10266 0.60095 0.27433 0.0
H1002 H 0.16368 0.63046 0.25654 0.0
H1003 H 0.17859 0.53122 0.18048 0.0
H1004 H 0.11757 0.50185 0.1985 0.0
H1005 H 0.99183 0.56776 0.2521 0.0
H1006 H 0.94457 0.5796 0.20093 0.0
H1007 H 0.00337 0.50842 0.12128 0.0
H1008 H 0.05104 0.49711 0.17268 0.0
H1009 H 0.12668 0.49026 0.28861 0.0
H1010 H 0.01372 0.45446 0.23815 0.0
O1011 O 0.05081 0.54792 0.2942 0.0
H1012 H 0.13818 0.42386 0.30104 0.0
H1013 H 0.02456 0.38804 0.2517 0.0
C1014 C 0.10589 0.54907 0.23809 0.0
C1015 C 0.11899 0.58561 0.25374 0.0
C1016 C 0.15377 0.60252 0.24337 0.0
C1017 C 0.17593 0.58308 0.21717 0.0
C1018 C 0.16217 0.54684 0.2008 0.0
C1019 C 0.12729 0.53008 0.21103 0.0
C1020 C 0.02482 0.53136 0.21623 0.0
C1021 C 0.99413 0.55402 0.22384 0.0
C1022 C 0.96667 0.56035 0.19458 0.0
C1023 C 0.96956 0.54421 0.15718 0.0
C1024 C 0.00023 0.52116 0.14983 0.0
C1025 C 0.02754 0.51468 0.17916 0.0
C1026 C 0.06989 0.47709 0.26126 0.0
C1027 C 0.10448 0.46801 0.27984 0.0
C1028 C 0.11093 0.43006 0.28714 0.0
C1029 C 0.08273 0.40046 0.27625 0.0
C1030 C 0.04753 0.40983 0.25878 0.0
C1031 C 0.04114 0.44791 0.25137 0.0
loop_
_geom_bond_atom_site_label_1
_geom_bond_atom_site_label_2
_geom_bond_distance
_geom_bond_site_symmetry_2
_ccdc_geom_bond_type
O0 Cd1 2.300 . S
O0 C7 1.275 . S
Cd1 O0 2.300 . S
Cd1 O9 2.381 . S
Cd1 O10 2.378 . S
O2 Cd3 2.385 . S
O2 C7 1.255 . S
Cd3 O2 2.385 . S
Cd3 O4 2.317 . S
O4 Cd3 2.317 . S
O4 C5 1.232 . S
C5 O4 1.232 . S
C5 O6 1.218 . S
O6 C5 1.218 . S
C7 O0 1.275 . S
C7 O2 1.255 . S
C8 O9 1.258 . S
C8 O10 1.256 . S
O9 Cd1 2.381 . S
O9 C8 1.258 . S
O10 Cd1 2.378 . S
O10 C8 1.256 . S
O11 Cd12 2.300 . S
O11 C18 1.275 . S
Cd12 O11 2.300 . S
Cd12 O20 2.381 . S
Cd12 O21 2.378 . S
O13 Cd14 2.385 . S
O13 C18 1.255 . S
Cd14 O13 2.385 . S
Cd14 O15 2.317 . S
O15 Cd14 2.317 . S
O15 C16 1.232 . S
C16 O15 1.232 . S
C16 O17 1.218 . S
O17 C16 1.218 . S
C18 O11 1.275 . S
C18 O13 1.255 . S
C19 O20 1.258 . S
C19 O21 1.256 . S
O20 Cd12 2.381 . S
O20 C19 1.258 . S
O21 Cd12 2.378 . S
O21 C19 1.256 . S
O22 Cd23 2.300 . S
O22 C29 1.275 . S
Cd23 O22 2.300 . S
Cd23 O31 2.381 1_565 S
Cd23 O32 2.378 . S
O24 Cd25 2.385 . S
O24 C29 1.255 . S
Cd25 O24 2.385 . S
Cd25 O26 2.317 . S
O26 Cd25 2.317 . S
O26 C27 1.232 . S
C27 O26 1.232 . S
C27 O28 1.218 . S
O28 C27 1.218 . S
C29 O22 1.275 . S
C29 O24 1.255 . S
C30 O31 1.258 . S
C30 O32 1.256 1_545 S
O31 Cd23 2.381 1_545 S
O31 C30 1.258 . S
O32 Cd23 2.378 . S
O32 C30 1.256 1_565 S
O33 Cd34 2.300 . S
O33 C40 1.275 . S
Cd34 O33 2.300 . S
Cd34 O42 2.381 1_545 S
Cd34 O43 2.378 . S
O35 Cd36 2.385 . S
O35 C40 1.255 . S
Cd36 O35 2.385 . S
Cd36 O37 2.317 . S
O37 Cd36 2.317 . S
O37 C38 1.232 . S
C38 O37 1.232 . S
C38 O39 1.218 . S
O39 C38 1.218 . S
C40 O33 1.275 . S
C40 O35 1.255 . S
C41 O42 1.258 . S
C41 O43 1.256 1_565 S
O42 Cd34 2.381 1_565 S
O42 C41 1.258 . S
O43 Cd34 2.378 . S
O43 C41 1.256 1_545 S
O44 Cd45 2.300 . S
O44 C51 1.275 . S
Cd45 O44 2.300 . S
Cd45 O53 2.381 . S
Cd45 O54 2.378 . S
O46 Cd47 2.385 . S
O46 C51 1.255 . S
Cd47 O46 2.385 . S
Cd47 O48 2.317 . S
O48 Cd47 2.317 . S
O48 C49 1.232 . S
C49 O48 1.232 . S
C49 O50 1.218 . S
O50 C49 1.218 . S
C51 O44 1.275 . S
C51 O46 1.255 . S
C52 O53 1.258 . S
C52 O54 1.256 . S
O53 Cd45 2.381 . S
O53 C52 1.258 . S
O54 Cd45 2.378 . S
O54 C52 1.256 . S
O55 Cd56 2.300 . S
O55 C62 1.275 . S
Cd56 O55 2.300 . S
Cd56 O64 2.381 1_554 S
Cd56 O65 2.378 . S
O57 Cd58 2.385 . S
O57 C62 1.255 . S
Cd58 O57 2.385 . S
Cd58 O59 2.317 . S
O59 Cd58 2.317 . S
O59 C60 1.232 . S
C60 O59 1.232 . S
C60 O61 1.218 . S
O61 C60 1.218 . S
C62 O55 1.275 . S
C62 O57 1.255 . S
C63 O64 1.258 . S
C63 O65 1.256 1_556 S
O64 Cd56 2.381 1_556 S
O64 C63 1.258 . S
O65 Cd56 2.378 . S
O65 C63 1.256 1_554 S
O66 Cd67 2.300 . S
O66 C73 1.275 . S
Cd67 O66 2.300 . S
Cd67 O75 2.381 . S
Cd67 O76 2.378 . S
O68 Cd69 2.385 . S
O68 C73 1.255 . S
Cd69 O68 2.385 . S
Cd69 O70 2.317 . S
O70 Cd69 2.317 . S
O70 C71 1.232 . S
C71 O70 1.232 . S
C71 O72 1.218 . S
O72 C71 1.218 . S
C73 O66 1.275 . S
C73 O68 1.255 . S
C74 O75 1.258 . S
C74 O76 1.256 . S
O75 Cd67 2.381 . S
O75 C74 1.258 . S
O76 Cd67 2.378 . S
O76 C74 1.256 . S
O77 Cd78 2.300 . S
O77 C84 1.275 . S
Cd78 O77 2.300 . S
Cd78 O86 2.381 1_556 S
Cd78 O87 2.378 . S
O79 Cd80 2.385 . S
O79 C84 1.255 . S
Cd80 O79 2.385 . S
Cd80 O81 2.317 . S
O81 Cd80 2.317 . S
O81 C82 1.232 . S
C82 O81 1.232 . S
C82 O83 1.218 . S
O83 C82 1.218 . S
C84 O77 1.275 . S
C84 O79 1.255 . S
C85 O86 1.258 . S
C85 O87 1.256 1_554 S
O86 Cd78 2.381 1_554 S
O86 C85 1.258 . S
O87 Cd78 2.378 . S
O87 C85 1.256 1_556 S
O88 Cd89 2.300 . S
O88 C95 1.275 . S
Cd89 O88 2.300 . S
Cd89 O97 2.381 . S
Cd89 O98 2.378 . S
O90 Cd91 2.385 . S
O90 C95 1.255 . S
Cd91 O90 2.385 . S
Cd91 O92 2.317 . S
O92 Cd91 2.317 . S
O92 C93 1.232 . S
C93 O92 1.232 . S
C93 O94 1.218 . S
O94 C93 1.218 . S
C95 O88 1.275 . S
C95 O90 1.255 . S
C96 O97 1.258 . S
C96 O98 1.256 . S
O97 Cd89 2.381 . S
O97 C96 1.258 . S
O98 Cd89 2.378 . S
O98 C96 1.256 . S
O99 Cd100 2.300 . S
O99 C106 1.275 . S
Cd100 O99 2.300 . S
Cd100 O108 2.381 1_455 S
Cd100 O109 2.378 . S
O101 Cd102 2.385 . S
O101 C106 1.255 . S
Cd102 O101 2.385 . S
Cd102 O103 2.317 . S
O103 Cd102 2.317 . S
O103 C104 1.232 . S
C104 O103 1.232 . S
C104 O105 1.218 . S
O105 C104 1.218 . S
C106 O99 1.275 . S
C106 O101 1.255 . S
C107 O108 1.258 . S
C107 O109 1.256 1_655 S
O108 Cd100 2.381 1_655 S
O108 C107 1.258 . S
O109 Cd100 2.378 . S
O109 C107 1.256 1_455 S
O110 Cd111 2.300 . S
O110 C117 1.275 . S
Cd111 O110 2.300 . S
Cd111 O119 2.381 . S
Cd111 O120 2.378 . S
O112 Cd113 2.385 . S
O112 C117 1.255 . S
Cd113 O112 2.385 . S
Cd113 O114 2.317 . S
O114 Cd113 2.317 . S
O114 C115 1.232 . S
C115 O114 1.232 . S
C115 O116 1.218 . S
O116 C115 1.218 . S
C117 O110 1.275 . S
C117 O112 1.255 . S
C118 O119 1.258 . S
C118 O120 1.256 . S
O119 Cd111 2.381 . S
O119 C118 1.258 . S
O120 Cd111 2.378 . S
O120 C118 1.256 . S
O121 Cd122 2.300 . S
O121 C128 1.275 . S
Cd122 O121 2.300 . S
Cd122 O130 2.381 1_655 S
Cd122 O131 2.378 . S
O123 Cd124 2.385 . S
O123 C128 1.255 . S
Cd124 O123 2.385 . S
Cd124 O125 2.317 . S
O125 Cd124 2.317 . S
O125 C126 1.232 . S
C126 O125 1.232 . S
C126 O127 1.218 . S
O127 C126 1.218 . S
C128 O121 1.275 . S
C128 O123 1.255 . S
C129 O130 1.258 . S
C129 O131 1.256 1_455 S
O130 Cd122 2.381 1_455 S
O130 C129 1.258 . S
O131 Cd122 2.378 . S
O131 C129 1.256 1_655 S
O132 Cd133 2.300 . S
O132 C139 1.275 . S
Cd133 O132 2.300 . S
Cd133 O141 2.381 . S
Cd133 O142 2.378 . S
O134 Cd135 2.385 . S
O134 C139 1.255 . S
Cd135 O134 2.385 . S
Cd135 O136 2.317 . S
O136 Cd135 2.317 . S
O136 C137 1.232 . S
C137 O136 1.232 . S
C137 O138 1.218 . S
O138 C137 1.218 . S
C139 O132 1.275 . S
C139 O134 1.255 . S
C140 O141 1.258 . S
C140 O142 1.256 . S
O141 Cd133 2.381 . S
O141 C140 1.258 . S
O142 Cd133 2.378 . S
O142 C140 1.256 . S
O143 Cd144 2.300 . S
O143 C150 1.275 . S
Cd144 O143 2.300 . S
Cd144 O152 2.381 . S
Cd144 O153 2.378 . S
O145 Cd146 2.385 . S
O145 C150 1.255 . S
Cd146 O145 2.385 . S
Cd146 O147 2.317 . S
O147 Cd146 2.317 . S
O147 C148 1.232 . S
C148 O147 1.232 . S
C148 O149 1.218 . S
O149 C148 1.218 . S
C150 O143 1.275 . S
C150 O145 1.255 . S
C151 O152 1.258 . S
C151 O153 1.256 . S
O152 Cd144 2.381 . S
O152 C151 1.258 . S
O153 Cd144 2.378 . S
O153 C151 1.256 . S
O154 Cd155 2.300 1_545 S
O154 C161 1.275 . S
Cd155 O154 2.300 1_565 S
Cd155 O163 2.381 1_565 S
Cd155 O164 2.378 . S
O156 Cd157 2.385 . S
O156 C161 1.255 1_565 S
Cd157 O156 2.385 . S
Cd157 O158 2.317 . S
O158 Cd157 2.317 . S
O158 C159 1.232 . S
C159 O158 1.232 . S
C159 O160 1.218 . S
O160 C159 1.218 . S
C161 O154 1.275 . S
C161 O156 1.255 1_545 S
C162 O163 1.258 1_565 S
C162 O164 1.256 . S
O163 Cd155 2.381 1_545 S
O163 C162 1.258 1_545 S
O164 Cd155 2.378 . S
O164 C162 1.256 . S
O165 Cd166 2.300 1_565 S
O165 C172 1.275 . S
Cd166 O165 2.300 1_545 S
Cd166 O174 2.381 1_545 S
Cd166 O175 2.378 . S
O167 Cd168 2.385 . S
O167 C172 1.255 1_545 S
Cd168 O167 2.385 . S
Cd168 O169 2.317 . S
O169 Cd168 2.317 . S
O169 C170 1.232 . S
C170 O169 1.232 . S
C170 O171 1.218 . S
O171 C170 1.218 . S
C172 O165 1.275 . S
C172 O167 1.255 1_565 S
C173 O174 1.258 1_545 S
C173 O175 1.256 . S
O174 Cd166 2.381 1_565 S
O174 C173 1.258 1_565 S
O175 Cd166 2.378 . S
O175 C173 1.256 . S
O176 Cd177 2.300 . S
O176 C183 1.275 . S
Cd177 O176 2.300 . S
Cd177 O185 2.381 . S
Cd177 O186 2.378 . S
O178 Cd179 2.385 . S
O178 C183 1.255 . S
Cd179 O178 2.385 . S
Cd179 O180 2.317 . S
O180 Cd179 2.317 . S
O180 C181 1.232 . S
C181 O180 1.232 . S
C181 O182 1.218 . S
O182 C181 1.218 . S
C183 O176 1.275 . S
C183 O178 1.255 . S
C184 O185 1.258 . S
C184 O186 1.256 . S
O185 Cd177 2.381 . S
O185 C184 1.258 . S
O186 Cd177 2.378 . S
O186 C184 1.256 . S
O187 Cd188 2.300 1_556 S
O187 C194 1.275 . S
Cd188 O187 2.300 1_554 S
Cd188 O196 2.381 1_554 S
Cd188 O197 2.378 . S
O189 Cd190 2.385 . S
O189 C194 1.255 1_554 S
Cd190 O189 2.385 . S
Cd190 O191 2.317 . S
O191 Cd190 2.317 . S
O191 C192 1.232 . S
C192 O191 1.232 . S
C192 O193 1.218 . S
O193 C192 1.218 . S
C194 O187 1.275 . S
C194 O189 1.255 1_556 S
C195 O196 1.258 1_554 S
C195 O197 1.256 . S
O196 Cd188 2.381 1_556 S
O196 C195 1.258 1_556 S
O197 Cd188 2.378 . S
O197 C195 1.256 . S
O198 Cd199 2.300 . S
O198 C205 1.275 . S
Cd199 O198 2.300 . S
Cd199 O207 2.381 . S
Cd199 O208 2.378 . S
O200 Cd201 2.385 . S
O200 C205 1.255 . S
Cd201 O200 2.385 . S
Cd201 O202 2.317 . S
O202 Cd201 2.317 . S
O202 C203 1.232 . S
C203 O202 1.232 . S
C203 O204 1.218 . S
O204 C203 1.218 . S
C205 O198 1.275 . S
C205 O200 1.255 . S
C206 O207 1.258 . S
C206 O208 1.256 . S
O207 Cd199 2.381 . S
O207 C206 1.258 . S
O208 Cd199 2.378 . S
O208 C206 1.256 . S
O209 Cd210 2.300 1_554 S
O209 C216 1.275 . S
Cd210 O209 2.300 1_556 S
Cd210 O218 2.381 1_556 S
Cd210 O219 2.378 . S
O211 Cd212 2.385 . S
O211 C216 1.255 1_556 S
Cd212 O211 2.385 . S
Cd212 O213 2.317 . S
O213 Cd212 2.317 . S
O213 C214 1.232 . S
C214 O213 1.232 . S
C214 O215 1.218 . S
O215 C214 1.218 . S
C216 O209 1.275 . S
C216 O211 1.255 1_554 S
C217 O218 1.258 1_556 S
C217 O219 1.256 . S
O218 Cd210 2.381 1_554 S
O218 C217 1.258 1_554 S
O219 Cd210 2.378 . S
O219 C217 1.256 . S
O220 Cd221 2.300 . S
O220 C227 1.275 . S
Cd221 O220 2.300 . S
Cd221 O229 2.381 . S
Cd221 O230 2.378 . S
O222 Cd223 2.385 . S
O222 C227 1.255 . S
Cd223 O222 2.385 . S
Cd223 O224 2.317 . S
O224 Cd223 2.317 . S
O224 C225 1.232 . S
C225 O224 1.232 . S
C225 O226 1.218 . S
O226 C225 1.218 . S
C227 O220 1.275 . S
C227 O222 1.255 . S
C228 O229 1.258 . S
C228 O230 1.256 . S
O229 Cd221 2.381 . S
O229 C228 1.258 . S
O230 Cd221 2.378 . S
O230 C228 1.256 . S
O231 Cd232 2.300 1_655 S
O231 C238 1.275 . S
Cd232 O231 2.300 1_455 S
Cd232 O240 2.381 1_455 S
Cd232 O241 2.378 . S
O233 Cd234 2.385 . S
O233 C238 1.255 1_455 S
Cd234 O233 2.385 . S
Cd234 O235 2.317 . S
O235 Cd234 2.317 . S
O235 C236 1.232 . S
C236 O235 1.232 . S
C236 O237 1.218 . S
O237 C236 1.218 . S
C238 O231 1.275 . S
C238 O233 1.255 1_655 S
C239 O240 1.258 1_455 S
C239 O241 1.256 . S
O240 Cd232 2.381 1_655 S
O240 C239 1.258 1_655 S
O241 Cd232 2.378 . S
O241 C239 1.256 . S
O242 Cd243 2.300 . S
O242 C249 1.275 . S
Cd243 O242 2.300 . S
Cd243 O251 2.381 . S
Cd243 O252 2.378 . S
O244 Cd245 2.385 . S
O244 C249 1.255 . S
Cd245 O244 2.385 . S
Cd245 O246 2.317 . S
O246 Cd245 2.317 . S
O246 C247 1.232 . S
C247 O246 1.232 . S
C247 O248 1.218 . S
O248 C247 1.218 . S
C249 O242 1.275 . S
C249 O244 1.255 . S
C250 O251 1.258 . S
C250 O252 1.256 . S
O251 Cd243 2.381 . S
O251 C250 1.258 . S
O252 Cd243 2.378 . S
O252 C250 1.256 . S
O253 Cd254 2.300 1_455 S
O253 C260 1.275 . S
Cd254 O253 2.300 1_655 S
Cd254 O262 2.381 1_655 S
Cd254 O263 2.378 . S
O255 Cd256 2.385 . S
O255 C260 1.255 1_655 S
Cd256 O255 2.385 . S
Cd256 O257 2.317 . S
O257 Cd256 2.317 . S
O257 C258 1.232 . S
C258 O257 1.232 . S
C258 O259 1.218 . S
O259 C258 1.218 . S
C260 O253 1.275 . S
C260 O255 1.255 1_455 S
C261 O262 1.258 1_655 S
C261 O263 1.256 . S
O262 Cd254 2.381 1_455 S
O262 C261 1.258 1_455 S
O263 Cd254 2.378 . S
O263 C261 1.256 . S
P264 O275 1.490 . S
P264 C278 1.812 . S
P264 C284 1.803 . S
P264 C290 1.819 . S
H265 C279 0.941 . S
H266 C280 0.939 . S
H267 C282 0.940 . S
H268 C283 0.940 . S
H269 C285 0.939 . S
H270 C286 0.942 . S
H271 C288 0.940 . S
H272 C289 0.939 . S
H273 C291 0.941 . S
H274 C295 0.939 . S
O275 P264 1.490 . S
H276 C292 0.939 . S
H277 C294 0.940 . S
C278 P264 1.812 . S
C278 C279 1.389 . S
C278 C283 1.391 . S
C279 H265 0.941 . S
C279 C278 1.389 . S
C279 C280 1.397 . S
C280 H266 0.939 . S
C280 C279 1.397 . S
C280 C281 1.378 . S
C281 C280 1.378 . S
C281 C282 1.378 . S
C282 H267 0.940 . S
C282 C281 1.378 . S
C282 C283 1.396 . S
C283 H268 0.940 . S
C283 C278 1.391 . S
C283 C282 1.396 . S
C284 P264 1.803 . S
C284 C285 1.378 . S
C284 C289 1.400 . S
C285 H269 0.939 . S
C285 C284 1.378 . S
C285 C286 1.361 . S
C286 H270 0.942 . S
C286 C285 1.361 . S
C286 C287 1.369 . S
C287 C286 1.369 . S
C287 C288 1.404 . S
C288 H271 0.940 . S
C288 C287 1.404 . S
C288 C289 1.389 . S
C289 H272 0.939 . S
C289 C284 1.400 . S
C289 C288 1.389 . S
C290 P264 1.819 . S
C290 C291 1.391 . S
C290 C295 1.391 . S
C291 H273 0.941 . S
C291 C290 1.391 . S
C291 C292 1.396 . S
C292 H276 0.939 . S
C292 C291 1.396 . S
C292 C293 1.397 . S
C293 C292 1.397 . S
C293 C294 1.385 . S
C294 H277 0.940 . S
C294 C293 1.385 . S
C294 C295 1.388 . S
C295 H274 0.939 . S
C295 C290 1.391 . S
C295 C294 1.388 . S
P296 O307 1.490 . S
P296 C310 1.812 . S
P296 C316 1.803 . S
P296 C322 1.819 . S
H297 C311 0.941 . S
H298 C312 0.965 . S
H299 C314 0.940 . S
H300 C315 0.940 . S
H301 C317 0.939 . S
H302 C318 0.942 . S
H303 C320 0.940 . S
H304 C321 0.939 . S
H305 C323 0.941 . S
H306 C327 0.939 . S
O307 P296 1.490 . S
H308 C324 0.939 . S
H309 C326 0.940 . S
C310 P296 1.812 . S
C310 C311 1.389 . S
C310 C315 1.391 . S
C311 H297 0.941 . S
C311 C310 1.389 . S
C311 C312 1.384 1_556 S
C312 H298 0.965 . S
C312 C311 1.384 1_554 S
C312 C313 1.366 1_554 S
C313 C312 1.366 1_556 S
C313 C314 1.378 . S
C314 H299 0.940 . S
C314 C313 1.378 . S
C314 C315 1.396 . S
C315 H300 0.940 . S
C315 C310 1.391 . S
C315 C314 1.396 . S
C316 P296 1.803 . S
C316 C317 1.378 . S
C316 C321 1.400 . S
C317 H301 0.939 . S
C317 C316 1.378 . S
C317 C318 1.361 . S
C318 H302 0.942 . S
C318 C317 1.361 . S
C318 C319 1.369 . S
C319 C318 1.369 . S
C319 C320 1.404 . S
C320 H303 0.940 . S
C320 C319 1.404 . S
C320 C321 1.389 . S
C321 H304 0.939 . S
C321 C316 1.400 . S
C321 C320 1.389 . S
C322 P296 1.819 . S
C322 C323 1.391 . S
C322 C327 1.391 . S
C323 H305 0.941 . S
C323 C322 1.391 . S
C323 C324 1.396 . S
C324 H308 0.939 . S
C324 C323 1.396 . S
C324 C325 1.397 . S
C325 C324 1.397 . S
C325 C326 1.385 . S
C326 H309 0.940 . S
C326 C325 1.385 . S
C326 C327 1.388 . S
C327 H306 0.939 . S
C327 C322 1.391 . S
C327 C326 1.388 . S
P328 O339 1.490 . S
P328 C342 1.812 1_545 S
P328 C348 1.803 . S
P328 C354 1.819 . S
H329 C343 0.941 . S
H330 C344 0.939 . S
H331 C346 0.940 . S
H332 C347 0.940 . S
H333 C349 0.939 . S
H334 C350 0.942 . S
H335 C352 0.940 . S
H336 C353 0.939 . S
H337 C355 0.941 . S
H338 C359 0.939 . S
O339 P328 1.490 . S
H340 C356 0.939 . S
H341 C358 0.940 . S
C342 P328 1.812 1_565 S
C342 C343 1.389 . S
C342 C347 1.391 . S
C343 H329 0.941 . S
C343 C342 1.389 . S
C343 C344 1.397 . S
C344 H330 0.939 . S
C344 C343 1.397 . S
C344 C345 1.378 . S
C345 C344 1.378 . S
C345 C346 1.378 . S
C346 H331 0.940 . S
C346 C345 1.378 . S
C346 C347 1.396 . S
C347 H332 0.940 . S
C347 C342 1.391 . S
C347 C346 1.396 . S
C348 P328 1.803 . S
C348 C349 1.378 . S
C348 C353 1.400 . S
C349 H333 0.939 . S
C349 C348 1.378 . S
C349 C350 1.361 . S
C350 H334 0.942 . S
C350 C349 1.361 . S
C350 C351 1.369 . S
C351 C350 1.369 . S
C351 C352 1.404 . S
C352 H335 0.940 . S
C352 C351 1.404 . S
C352 C353 1.389 . S
C353 H336 0.939 . S
C353 C348 1.400 . S
C353 C352 1.389 . S
C354 P328 1.819 . S
C354 C355 1.391 1_545 S
C354 C359 1.391 . S
C355 H337 0.941 . S
C355 C354 1.391 1_565 S
C355 C356 1.396 . S
C356 H340 0.939 . S
C356 C355 1.396 . S
C356 C357 1.397 1_565 S
C357 C356 1.397 1_545 S
C357 C358 1.385 . S
C358 H341 0.940 . S
C358 C357 1.385 . S
C358 C359 1.388 . S
C359 H338 0.939 . S
C359 C354 1.391 . S
C359 C358 1.388 . S
P360 O371 1.490 . S
P360 C374 1.812 1_565 S
P360 C380 1.803 . S
P360 C386 1.819 . S
H361 C375 0.941 . S
H362 C376 0.939 1_556 S
H363 C378 0.940 . S
H364 C379 0.940 . S
H365 C381 0.939 . S
H366 C382 0.942 . S
H367 C384 0.940 . S
H368 C385 0.939 . S
H369 C387 0.941 . S
H370 C391 0.939 . S
O371 P360 1.490 . S
H372 C388 0.939 . S
H373 C390 0.940 . S
C374 P360 1.812 1_545 S
C374 C375 1.389 . S
C374 C379 1.391 . S
C375 H361 0.941 . S
C375 C374 1.389 . S
C375 C376 1.397 . S
C376 H362 0.939 1_554 S
C376 C375 1.397 . S
C376 C377 1.378 . S
C377 C376 1.378 . S
C377 C378 1.378 . S
C378 H363 0.940 . S
C378 C377 1.378 . S
C378 C379 1.396 . S
C379 H364 0.940 . S
C379 C374 1.391 . S
C379 C378 1.396 . S
C380 P360 1.803 . S
C380 C381 1.378 . S
C380 C385 1.400 . S
C381 H365 0.939 . S
C381 C380 1.378 . S
C381 C382 1.361 . S
C382 H366 0.942 . S
C382 C381 1.361 . S
C382 C383 1.369 . S
C383 C382 1.369 . S
C383 C384 1.404 . S
C384 H367 0.940 . S
C384 C383 1.404 . S
C384 C385 1.389 . S
C385 H368 0.939 . S
C385 C380 1.400 . S
C385 C384 1.389 . S
C386 P360 1.819 . S
C386 C387 1.391 1_565 S
C386 C391 1.391 . S
C387 H369 0.941 . S
C387 C386 1.391 1_545 S
C387 C388 1.396 . S
C388 H372 0.939 . S
C388 C387 1.396 . S
C388 C389 1.397 . S
C389 C388 1.397 . S
C389 C390 1.385 1_545 S
C390 H373 0.940 . S
C390 C389 1.385 1_565 S
C390 C391 1.388 . S
C391 H370 0.939 . S
C391 C386 1.391 . S
C391 C390 1.388 . S
P392 O403 1.490 . S
P392 C406 1.812 . S
P392 C412 1.803 . S
P392 C418 1.819 . S
H393 C407 0.941 . S
H394 C408 0.939 . S
H395 C410 0.940 . S
H396 C411 0.940 . S
H397 C413 0.939 . S
H398 C414 0.942 . S
H399 C416 0.940 . S
H400 C417 0.939 . S
H401 C419 0.941 . S
H402 C423 0.939 . S
O403 P392 1.490 . S
H404 C420 0.939 . S
H405 C422 0.940 . S
C406 P392 1.812 . S
C406 C407 1.389 . S
C406 C411 1.391 . S
C407 H393 0.941 . S
C407 C406 1.389 . S
C407 C408 1.397 . S
C408 H394 0.939 . S
C408 C407 1.397 . S
C408 C409 1.378 . S
C409 C408 1.378 . S
C409 C410 1.378 . S
C410 H395 0.940 . S
C410 C409 1.378 . S
C410 C411 1.396 . S
C411 H396 0.940 . S
C411 C406 1.391 . S
C411 C410 1.396 . S
C412 P392 1.803 . S
C412 C413 1.378 . S
C412 C417 1.400 . S
C413 H397 0.939 . S
C413 C412 1.378 . S
C413 C414 1.361 . S
C414 H398 0.942 . S
C414 C413 1.361 . S
C414 C415 1.369 . S
C415 C414 1.369 . S
C415 C416 1.404 . S
C416 H399 0.940 . S
C416 C415 1.404 . S
C416 C417 1.389 . S
C417 H400 0.939 . S
C417 C412 1.400 . S
C417 C416 1.389 . S
C418 P392 1.819 . S
C418 C419 1.391 . S
C418 C423 1.391 . S
C419 H401 0.941 . S
C419 C418 1.391 . S
C419 C420 1.396 . S
C420 H404 0.939 . S
C420 C419 1.396 . S
C420 C421 1.397 . S
C421 C420 1.397 . S
C421 C422 1.385 . S
C422 H405 0.940 . S
C422 C421 1.385 . S
C422 C423 1.388 . S
C423 H402 0.939 . S
C423 C418 1.391 . S
C423 C422 1.388 . S
P424 O435 1.490 . S
P424 C438 1.812 1_556 S
P424 C444 1.803 . S
P424 C450 1.819 . S
H425 C439 0.941 . S
H426 C440 0.939 1_655 S
H427 C442 0.940 . S
H428 C443 0.940 . S
H429 C445 0.939 . S
H430 C446 0.942 . S
H431 C448 0.940 . S
H432 C449 0.939 . S
H433 C451 0.941 . S
H434 C455 0.939 . S
O435 P424 1.490 . S
H436 C452 0.939 . S
H437 C454 0.940 . S
C438 P424 1.812 1_554 S
C438 C439 1.389 . S
C438 C443 1.391 . S
C439 H425 0.941 . S
C439 C438 1.389 . S
C439 C440 1.397 . S
C440 H426 0.939 1_455 S
C440 C439 1.397 . S
C440 C441 1.378 . S
C441 C440 1.378 . S
C441 C442 1.378 . S
C442 H427 0.940 . S
C442 C441 1.378 . S
C442 C443 1.396 . S
C443 H428 0.940 . S
C443 C438 1.391 . S
C443 C442 1.396 . S
C444 P424 1.803 . S
C444 C445 1.378 . S
C444 C449 1.400 . S
C445 H429 0.939 . S
C445 C444 1.378 . S
C445 C446 1.361 . S
C446 H430 0.942 . S
C446 C445 1.361 . S
C446 C447 1.369 . S
C447 C446 1.369 . S
C447 C448 1.404 . S
C448 H431 0.940 . S
C448 C447 1.404 . S
C448 C449 1.389 . S
C449 H432 0.939 . S
C449 C444 1.400 . S
C449 C448 1.389 . S
C450 P424 1.819 . S
C450 C451 1.391 1_556 S
C450 C455 1.391 . S
C451 H433 0.941 . S
C451 C450 1.391 1_554 S
C451 C452 1.396 . S
C452 H436 0.939 . S
C452 C451 1.396 . S
C452 C453 1.397 . S
C453 C452 1.397 . S
C453 C454 1.385 1_554 S
C454 H437 0.940 . S
C454 C453 1.385 1_556 S
C454 C455 1.388 . S
C455 H434 0.939 . S
C455 C450 1.391 . S
C455 C454 1.388 . S
P456 O467 1.490 . S
P456 C470 1.812 . S
P456 C476 1.803 . S
P456 C482 1.819 . S
H457 C471 0.941 . S
H458 C472 0.965 . S
H459 C474 0.940 . S
H460 C475 0.940 . S
H461 C477 0.939 . S
H462 C478 0.942 . S
H463 C480 0.940 . S
H464 C481 0.939 . S
H465 C483 0.941 . S
H466 C487 0.939 . S
O467 P456 1.490 . S
H468 C484 0.939 . S
H469 C486 0.940 . S
C470 P456 1.812 . S
C470 C471 1.389 . S
C470 C475 1.391 . S
C471 H457 0.941 . S
C471 C470 1.389 . S
C471 C472 1.384 1_655 S
C472 H458 0.965 . S
C472 C471 1.384 1_455 S
C472 C473 1.366 1_455 S
C473 C472 1.366 1_655 S
C473 C474 1.378 . S
C474 H459 0.940 . S
C474 C473 1.378 . S
C474 C475 1.396 . S
C475 H460 0.940 . S
C475 C470 1.391 . S
C475 C474 1.396 . S
C476 P456 1.803 . S
C476 C477 1.378 . S
C476 C481 1.400 . S
C477 H461 0.939 . S
C477 C476 1.378 . S
C477 C478 1.361 . S
C478 H462 0.942 . S
C478 C477 1.361 . S
C478 C479 1.369 . S
C479 C478 1.369 . S
C479 C480 1.404 . S
C480 H463 0.940 . S
C480 C479 1.404 . S
C480 C481 1.389 . S
C481 H464 0.939 . S
C481 C476 1.400 . S
C481 C480 1.389 . S
C482 P456 1.819 . S
C482 C483 1.391 . S
C482 C487 1.391 . S
C483 H465 0.941 . S
C483 C482 1.391 . S
C483 C484 1.396 . S
C484 H468 0.939 . S
C484 C483 1.396 . S
C484 C485 1.397 . S
C485 C484 1.397 . S
C485 C486 1.385 . S
C486 H469 0.940 . S
C486 C485 1.385 . S
C486 C487 1.388 . S
C487 H466 0.939 . S
C487 C482 1.391 . S
C487 C486 1.388 . S
P488 O499 1.490 . S
P488 C502 1.812 1_554 S
P488 C508 1.803 . S
P488 C514 1.819 . S
H489 C503 0.941 . S
H490 C504 0.939 . S
H491 C506 0.940 . S
H492 C507 0.940 . S
H493 C509 0.939 . S
H494 C510 0.942 . S
H495 C512 0.940 . S
H496 C513 0.939 . S
H497 C515 0.941 . S
H498 C519 0.939 . S
O499 P488 1.490 . S
H500 C516 0.939 . S
H501 C518 0.940 . S
C502 P488 1.812 1_556 S
C502 C503 1.389 . S
C502 C507 1.391 . S
C503 H489 0.941 . S
C503 C502 1.389 . S
C503 C504 1.397 . S
C504 H490 0.939 . S
C504 C503 1.397 . S
C504 C505 1.378 . S
C505 C504 1.378 . S
C505 C506 1.378 . S
C506 H491 0.940 . S
C506 C505 1.378 . S
C506 C507 1.396 . S
C507 H492 0.940 . S
C507 C502 1.391 . S
C507 C506 1.396 . S
C508 P488 1.803 . S
C508 C509 1.378 . S
C508 C513 1.400 . S
C509 H493 0.939 . S
C509 C508 1.378 . S
C509 C510 1.361 . S
C510 H494 0.942 . S
C510 C509 1.361 . S
C510 C511 1.369 . S
C511 C510 1.369 . S
C511 C512 1.404 . S
C512 H495 0.940 . S
C512 C511 1.404 . S
C512 C513 1.389 . S
C513 H496 0.939 . S
C513 C508 1.400 . S
C513 C512 1.389 . S
C514 P488 1.819 . S
C514 C515 1.391 1_554 S
C514 C519 1.391 . S
C515 H497 0.941 . S
C515 C514 1.391 1_556 S
C515 C516 1.396 . S
C516 H500 0.939 . S
C516 C515 1.396 . S
C516 C517 1.397 1_556 S
C517 C516 1.397 1_554 S
C517 C518 1.385 . S
C518 H501 0.940 . S
C518 C517 1.385 . S
C518 C519 1.388 . S
C519 H498 0.939 . S
C519 C514 1.391 . S
C519 C518 1.388 . S
P520 O531 1.490 . S
P520 C534 1.812 . S
P520 C540 1.803 . S
P520 C546 1.819 . S
H521 C535 0.941 . S
H522 C536 0.939 . S
H523 C538 0.940 . S
H524 C539 0.940 . S
H525 C541 0.939 . S
H526 C542 0.942 . S
H527 C544 0.940 . S
H528 C545 0.939 . S
H529 C547 0.941 . S
H530 C551 0.939 . S
O531 P520 1.490 . S
H532 C548 0.939 . S
H533 C550 0.940 . S
C534 P520 1.812 . S
C534 C535 1.389 . S
C534 C539 1.391 . S
C535 H521 0.941 . S
C535 C534 1.389 . S
C535 C536 1.397 . S
C536 H522 0.939 . S
C536 C535 1.397 . S
C536 C537 1.378 . S
C537 C536 1.378 . S
C537 C538 1.378 . S
C538 H523 0.940 . S
C538 C537 1.378 . S
C538 C539 1.396 . S
C539 H524 0.940 . S
C539 C534 1.391 . S
C539 C538 1.396 . S
C540 P520 1.803 . S
C540 C541 1.378 . S
C540 C545 1.400 . S
C541 H525 0.939 . S
C541 C540 1.378 . S
C541 C542 1.361 . S
C542 H526 0.942 . S
C542 C541 1.361 . S
C542 C543 1.369 . S
C543 C542 1.369 . S
C543 C544 1.404 . S
C544 H527 0.940 . S
C544 C543 1.404 . S
C544 C545 1.389 . S
C545 H528 0.939 . S
C545 C540 1.400 . S
C545 C544 1.389 . S
C546 P520 1.819 . S
C546 C547 1.391 . S
C546 C551 1.391 . S
C547 H529 0.941 . S
C547 C546 1.391 . S
C547 C548 1.396 . S
C548 H532 0.939 . S
C548 C547 1.396 . S
C548 C549 1.397 . S
C549 C548 1.397 . S
C549 C550 1.385 . S
C550 H533 0.940 . S
C550 C549 1.385 . S
C550 C551 1.388 . S
C551 H530 0.939 . S
C551 C546 1.391 . S
C551 C550 1.388 . S
P552 O563 1.490 . S
P552 C566 1.812 1_655 S
P552 C572 1.803 . S
P552 C578 1.819 . S
H553 C567 0.941 . S
H554 C568 0.939 1_565 S
H555 C570 0.940 . S
H556 C571 0.940 . S
H557 C573 0.939 . S
H558 C574 0.942 . S
H559 C576 0.940 . S
H560 C577 0.939 . S
H561 C579 0.941 . S
H562 C583 0.939 . S
O563 P552 1.490 . S
H564 C580 0.939 . S
H565 C582 0.940 . S
C566 P552 1.812 1_455 S
C566 C567 1.389 . S
C566 C571 1.391 . S
C567 H553 0.941 . S
C567 C566 1.389 . S
C567 C568 1.397 . S
C568 H554 0.939 1_545 S
C568 C567 1.397 . S
C568 C569 1.378 . S
C569 C568 1.378 . S
C569 C570 1.378 . S
C570 H555 0.940 . S
C570 C569 1.378 . S
C570 C571 1.396 . S
C571 H556 0.940 . S
C571 C566 1.391 . S
C571 C570 1.396 . S
C572 P552 1.803 . S
C572 C573 1.378 . S
C572 C577 1.400 . S
C573 H557 0.939 . S
C573 C572 1.378 . S
C573 C574 1.361 . S
C574 H558 0.942 . S
C574 C573 1.361 . S
C574 C575 1.369 . S
C575 C574 1.369 . S
C575 C576 1.404 . S
C576 H559 0.940 . S
C576 C575 1.404 . S
C576 C577 1.389 . S
C577 H560 0.939 . S
C577 C572 1.400 . S
C577 C576 1.389 . S
C578 P552 1.819 . S
C578 C579 1.391 1_655 S
C578 C583 1.391 . S
C579 H561 0.941 . S
C579 C578 1.391 1_455 S
C579 C580 1.396 . S
C580 H564 0.939 . S
C580 C579 1.396 . S
C580 C581 1.397 . S
C581 C580 1.397 . S
C581 C582 1.385 1_455 S
C582 H565 0.940 . S
C582 C581 1.385 1_655 S
C582 C583 1.388 . S
C583 H562 0.939 . S
C583 C578 1.391 . S
C583 C582 1.388 . S
P584 O595 1.490 . S
P584 C598 1.812 . S
P584 C604 1.803 . S
P584 C610 1.819 . S
H585 C599 0.941 . S
H586 C600 0.965 . S
H587 C602 0.940 . S
H588 C603 0.940 . S
H589 C605 0.939 . S
H590 C606 0.942 . S
H591 C608 0.940 . S
H592 C609 0.939 . S
H593 C611 0.941 . S
H594 C615 0.939 . S
O595 P584 1.490 . S
H596 C612 0.939 . S
H597 C614 0.940 . S
C598 P584 1.812 . S
C598 C599 1.389 . S
C598 C603 1.391 . S
C599 H585 0.941 . S
C599 C598 1.389 . S
C599 C600 1.384 1_565 S
C600 H586 0.965 . S
C600 C599 1.384 1_545 S
C600 C601 1.366 1_545 S
C601 C600 1.366 1_565 S
C601 C602 1.378 . S
C602 H587 0.940 . S
C602 C601 1.378 . S
C602 C603 1.396 . S
C603 H588 0.940 . S
C603 C598 1.391 . S
C603 C602 1.396 . S
C604 P584 1.803 . S
C604 C605 1.378 . S
C604 C609 1.400 . S
C605 H589 0.939 . S
C605 C604 1.378 . S
C605 C606 1.361 . S
C606 H590 0.942 . S
C606 C605 1.361 . S
C606 C607 1.369 . S
C607 C606 1.369 . S
C607 C608 1.404 . S
C608 H591 0.940 . S
C608 C607 1.404 . S
C608 C609 1.389 . S
C609 H592 0.939 . S
C609 C604 1.400 . S
C609 C608 1.389 . S
C610 P584 1.819 . S
C610 C611 1.391 . S
C610 C615 1.391 . S
C611 H593 0.941 . S
C611 C610 1.391 . S
C611 C612 1.396 . S
C612 H596 0.939 . S
C612 C611 1.396 . S
C612 C613 1.397 . S
C613 C612 1.397 . S
C613 C614 1.385 . S
C614 H597 0.940 . S
C614 C613 1.385 . S
C614 C615 1.388 . S
C615 H594 0.939 . S
C615 C610 1.391 . S
C615 C614 1.388 . S
P616 O627 1.490 . S
P616 C630 1.812 1_455 S
P616 C636 1.803 . S
P616 C642 1.819 . S
H617 C631 0.941 . S
H618 C632 0.939 . S
H619 C634 0.940 . S
H620 C635 0.940 . S
H621 C637 0.939 . S
H622 C638 0.942 . S
H623 C640 0.940 . S
H624 C641 0.939 . S
H625 C643 0.941 . S
H626 C647 0.939 . S
O627 P616 1.490 . S
H628 C644 0.939 . S
H629 C646 0.940 . S
C630 P616 1.812 1_655 S
C630 C631 1.389 . S
C630 C635 1.391 . S
C631 H617 0.941 . S
C631 C630 1.389 . S
C631 C632 1.397 . S
C632 H618 0.939 . S
C632 C631 1.397 . S
C632 C633 1.378 . S
C633 C632 1.378 . S
C633 C634 1.378 . S
C634 H619 0.940 . S
C634 C633 1.378 . S
C634 C635 1.396 . S
C635 H620 0.940 . S
C635 C630 1.391 . S
C635 C634 1.396 . S
C636 P616 1.803 . S
C636 C637 1.378 . S
C636 C641 1.400 . S
C637 H621 0.939 . S
C637 C636 1.378 . S
C637 C638 1.361 . S
C638 H622 0.942 . S
C638 C637 1.361 . S
C638 C639 1.369 . S
C639 C638 1.369 . S
C639 C640 1.404 . S
C640 H623 0.940 . S
C640 C639 1.404 . S
C640 C641 1.389 . S
C641 H624 0.939 . S
C641 C636 1.400 . S
C641 C640 1.389 . S
C642 P616 1.819 . S
C642 C643 1.391 1_455 S
C642 C647 1.391 . S
C643 H625 0.941 . S
C643 C642 1.391 1_655 S
C643 C644 1.396 . S
C644 H628 0.939 . S
C644 C643 1.396 . S
C644 C645 1.397 1_655 S
C645 C644 1.397 1_455 S
C645 C646 1.385 . S
C646 H629 0.940 . S
C646 C645 1.385 . S
C646 C647 1.388 . S
C647 H626 0.939 . S
C647 C642 1.391 . S
C647 C646 1.388 . S
P648 O659 1.490 . S
P648 C662 1.812 . S
P648 C668 1.803 . S
P648 C674 1.819 . S
H649 C663 0.941 . S
H650 C664 0.939 . S
H651 C666 0.940 . S
H652 C667 0.940 . S
H653 C669 0.939 . S
H654 C670 0.942 . S
H655 C672 0.940 . S
H656 C673 0.939 . S
H657 C675 0.941 . S
H658 C679 0.939 . S
O659 P648 1.490 . S
H660 C676 0.939 . S
H661 C678 0.940 . S
C662 P648 1.812 . S
C662 C663 1.389 . S
C662 C667 1.391 . S
C663 H649 0.941 . S
C663 C662 1.389 . S
C663 C664 1.397 . S
C664 H650 0.939 . S
C664 C663 1.397 . S
C664 C665 1.378 . S
C665 C664 1.378 . S
C665 C666 1.378 . S
C666 H651 0.940 . S
C666 C665 1.378 . S
C666 C667 1.396 . S
C667 H652 0.940 . S
C667 C662 1.391 . S
C667 C666 1.396 . S
C668 P648 1.803 . S
C668 C669 1.378 . S
C668 C673 1.400 . S
C669 H653 0.939 . S
C669 C668 1.378 . S
C669 C670 1.361 . S
C670 H654 0.942 . S
C670 C669 1.361 . S
C670 C671 1.369 . S
C671 C670 1.369 . S
C671 C672 1.404 . S
C672 H655 0.940 . S
C672 C671 1.404 . S
C672 C673 1.389 . S
C673 H656 0.939 . S
C673 C668 1.400 . S
C673 C672 1.389 . S
C674 P648 1.819 . S
C674 C675 1.391 . S
C674 C679 1.391 . S
C675 H657 0.941 . S
C675 C674 1.391 . S
C675 C676 1.396 . S
C676 H660 0.939 . S
C676 C675 1.396 . S
C676 C677 1.397 . S
C677 C676 1.397 . S
C677 C678 1.385 . S
C678 H661 0.940 . S
C678 C677 1.385 . S
C678 C679 1.388 . S
C679 H658 0.939 . S
C679 C674 1.391 . S
C679 C678 1.388 . S
P680 O691 1.490 . S
P680 C694 1.812 . S
P680 C700 1.803 . S
P680 C706 1.819 . S
H681 C695 0.941 . S
H682 C696 0.939 1_556 S
H683 C698 0.940 . S
H684 C699 0.940 . S
H685 C701 0.939 . S
H686 C702 0.942 . S
H687 C704 0.940 . S
H688 C705 0.939 . S
H689 C707 0.941 . S
H690 C711 0.939 . S
O691 P680 1.490 . S
H692 C708 0.939 . S
H693 C710 0.940 . S
C694 P680 1.812 . S
C694 C695 1.389 . S
C694 C699 1.391 . S
C695 H681 0.941 . S
C695 C694 1.389 . S
C695 C696 1.397 . S
C696 H682 0.939 1_554 S
C696 C695 1.397 . S
C696 C697 1.378 . S
C697 C696 1.378 . S
C697 C698 1.378 . S
C698 H683 0.940 . S
C698 C697 1.378 . S
C698 C699 1.396 . S
C699 H684 0.940 . S
C699 C694 1.391 . S
C699 C698 1.396 . S
C700 P680 1.803 . S
C700 C701 1.378 . S
C700 C705 1.400 . S
C701 H685 0.939 . S
C701 C700 1.378 . S
C701 C702 1.361 . S
C702 H686 0.942 . S
C702 C701 1.361 . S
C702 C703 1.369 . S
C703 C702 1.369 . S
C703 C704 1.404 . S
C704 H687 0.940 . S
C704 C703 1.404 . S
C704 C705 1.389 . S
C705 H688 0.939 . S
C705 C700 1.400 . S
C705 C704 1.389 . S
C706 P680 1.819 . S
C706 C707 1.391 . S
C706 C711 1.391 . S
C707 H689 0.941 . S
C707 C706 1.391 . S
C707 C708 1.396 . S
C708 H692 0.939 . S
C708 C707 1.396 . S
C708 C709 1.397 . S
C709 C708 1.397 . S
C709 C710 1.385 . S
C710 H693 0.940 . S
C710 C709 1.385 . S
C710 C711 1.388 . S
C711 H690 0.939 . S
C711 C706 1.391 . S
C711 C710 1.388 . S
P712 O723 1.490 1_565 S
P712 C726 1.799 1_565 S
P712 C732 1.815 . S
P712 C738 1.819 . S
H713 C727 0.941 . S
H714 C728 0.939 . S
H715 C730 0.940 . S
H716 C731 0.940 . S
H717 C733 0.939 . S
H718 C734 0.942 . S
H719 C736 0.940 . S
H720 C737 0.939 . S
H721 C739 0.941 . S
H722 C743 0.939 . S
O723 P712 1.490 1_545 S
H724 C740 0.939 . S
H725 C742 0.940 . S
C726 P712 1.799 1_545 S
C726 C727 1.389 . S
C726 C731 1.391 . S
C727 H713 0.941 . S
C727 C726 1.389 . S
C727 C728 1.397 . S
C728 H714 0.939 . S
C728 C727 1.397 . S
C728 C729 1.378 . S
C729 C728 1.378 . S
C729 C730 1.378 . S
C730 H715 0.940 . S
C730 C729 1.378 . S
C730 C731 1.396 . S
C731 H716 0.940 . S
C731 C726 1.391 . S
C731 C730 1.396 . S
C732 P712 1.815 . S
C732 C733 1.378 . S
C732 C737 1.400 . S
C733 H717 0.939 . S
C733 C732 1.378 . S
C733 C734 1.361 . S
C734 H718 0.942 . S
C734 C733 1.361 . S
C734 C735 1.369 . S
C735 C734 1.369 . S
C735 C736 1.404 . S
C736 H719 0.940 . S
C736 C735 1.404 . S
C736 C737 1.389 . S
C737 H720 0.939 . S
C737 C732 1.400 . S
C737 C736 1.389 . S
C738 P712 1.819 . S
C738 C739 1.391 1_565 S
C738 C743 1.391 . S
C739 H721 0.941 . S
C739 C738 1.391 1_545 S
C739 C740 1.396 . S
C740 H724 0.939 . S
C740 C739 1.396 . S
C740 C741 1.397 1_545 S
C741 C740 1.397 1_565 S
C741 C742 1.385 . S
C742 H725 0.940 . S
C742 C741 1.385 . S
C742 C743 1.388 . S
C743 H722 0.939 . S
C743 C738 1.391 . S
C743 C742 1.388 . S
P744 O755 1.490 . S
P744 C758 1.829 . S
P744 C764 1.787 1_565 S
P744 C770 1.818 1_565 S
H745 C759 0.941 . S
H746 C760 0.939 1_554 S
H747 C762 0.940 . S
H748 C763 0.940 . S
H749 C765 0.939 . S
H750 C766 0.942 . S
H751 C768 0.940 . S
H752 C769 0.939 . S
H753 C771 0.941 . S
H754 C775 0.939 . S
O755 P744 1.490 . S
H756 C772 0.939 . S
H757 C774 0.940 . S
C758 P744 1.829 . S
C758 C759 1.389 . S
C758 C763 1.391 . S
C759 H745 0.941 . S
C759 C758 1.389 . S
C759 C760 1.397 . S
C760 H746 0.939 1_556 S
C760 C759 1.397 . S
C760 C761 1.378 . S
C761 C760 1.378 . S
C761 C762 1.378 . S
C762 H747 0.940 . S
C762 C761 1.378 . S
C762 C763 1.396 . S
C763 H748 0.940 . S
C763 C758 1.391 . S
C763 C762 1.396 . S
C764 P744 1.787 1_545 S
C764 C765 1.378 . S
C764 C769 1.400 . S
C765 H749 0.939 . S
C765 C764 1.378 . S
C765 C766 1.361 . S
C766 H750 0.942 . S
C766 C765 1.361 . S
C766 C767 1.369 . S
C767 C766 1.369 . S
C767 C768 1.404 . S
C768 H751 0.940 . S
C768 C767 1.404 . S
C768 C769 1.389 . S
C769 H752 0.939 . S
C769 C764 1.400 . S
C769 C768 1.389 . S
C770 P744 1.818 1_545 S
C770 C771 1.390 1_545 S
C770 C775 1.392 . S
C771 H753 0.941 . S
C771 C770 1.390 1_565 S
C771 C772 1.396 . S
C772 H756 0.939 . S
C772 C771 1.396 . S
C772 C773 1.397 . S
C773 C772 1.397 . S
C773 C774 1.385 1_565 S
C774 H757 0.940 . S
C774 C773 1.385 1_545 S
C774 C775 1.388 . S
C775 H754 0.939 . S
C775 C770 1.392 . S
C775 C774 1.388 . S
P776 O787 1.490 . S
P776 C790 1.812 . S
P776 C796 1.803 . S
P776 C802 1.819 . S
H777 C791 0.941 . S
H778 C792 0.939 . S
H779 C794 0.940 . S
H780 C795 0.940 . S
H781 C797 0.939 . S
H782 C798 0.942 . S
H783 C800 0.940 . S
H784 C801 0.939 . S
H785 C803 0.941 . S
H786 C807 0.939 . S
O787 P776 1.490 . S
H788 C804 0.939 . S
H789 C806 0.940 . S
C790 P776 1.812 . S
C790 C791 1.389 . S
C790 C795 1.391 . S
C791 H777 0.941 . S
C791 C790 1.389 . S
C791 C792 1.397 . S
C792 H778 0.939 . S
C792 C791 1.397 . S
C792 C793 1.378 . S
C793 C792 1.378 . S
C793 C794 1.378 . S
C794 H779 0.940 . S
C794 C793 1.378 . S
C794 C795 1.396 . S
C795 H780 0.940 . S
C795 C790 1.391 . S
C795 C794 1.396 . S
C796 P776 1.803 . S
C796 C797 1.378 . S
C796 C801 1.400 . S
C797 H781 0.939 . S
C797 C796 1.378 . S
C797 C798 1.361 . S
C798 H782 0.942 . S
C798 C797 1.361 . S
C798 C799 1.369 . S
C799 C798 1.369 . S
C799 C800 1.404 . S
C800 H783 0.940 . S
C800 C799 1.404 . S
C800 C801 1.389 . S
C801 H784 0.939 . S
C801 C796 1.400 . S
C801 C800 1.389 . S
C802 P776 1.819 . S
C802 C803 1.391 . S
C802 C807 1.391 . S
C803 H785 0.941 . S
C803 C802 1.391 . S
C803 C804 1.396 . S
C804 H788 0.939 . S
C804 C803 1.396 . S
C804 C805 1.397 . S
C805 C804 1.397 . S
C805 C806 1.385 . S
C806 H789 0.940 . S
C806 C805 1.385 . S
C806 C807 1.388 . S
C807 H786 0.939 . S
C807 C802 1.391 . S
C807 C806 1.388 . S
P808 O819 1.490 . S
P808 C822 1.829 . S
P808 C828 1.787 1_556 S
P808 C834 1.818 1_556 S
H809 C823 0.941 . S
H810 C824 0.939 1_455 S
H811 C826 0.940 . S
H812 C827 0.940 . S
H813 C829 0.939 . S
H814 C830 0.942 . S
H815 C832 0.940 . S
H816 C833 0.939 . S
H817 C835 0.941 . S
H818 C839 0.939 . S
O819 P808 1.490 . S
H820 C836 0.939 . S
H821 C838 0.940 . S
C822 P808 1.829 . S
C822 C823 1.389 . S
C822 C827 1.391 . S
C823 H809 0.941 . S
C823 C822 1.389 . S
C823 C824 1.397 . S
C824 H810 0.939 1_655 S
C824 C823 1.397 . S
C824 C825 1.378 . S
C825 C824 1.378 . S
C825 C826 1.378 . S
C826 H811 0.940 . S
C826 C825 1.378 . S
C826 C827 1.396 . S
C827 H812 0.940 . S
C827 C822 1.391 . S
C827 C826 1.396 . S
C828 P808 1.787 1_554 S
C828 C829 1.378 . S
C828 C833 1.400 . S
C829 H813 0.939 . S
C829 C828 1.378 . S
C829 C830 1.361 . S
C830 H814 0.942 . S
C830 C829 1.361 . S
C830 C831 1.369 . S
C831 C830 1.369 . S
C831 C832 1.404 . S
C832 H815 0.940 . S
C832 C831 1.404 . S
C832 C833 1.389 . S
C833 H816 0.939 . S
C833 C828 1.400 . S
C833 C832 1.389 . S
C834 P808 1.818 1_554 S
C834 C835 1.390 1_554 S
C834 C839 1.392 . S
C835 H817 0.941 . S
C835 C834 1.390 1_556 S
C835 C836 1.396 . S
C836 H820 0.939 . S
C836 C835 1.396 . S
C836 C837 1.397 . S
C837 C836 1.397 . S
C837 C838 1.385 1_556 S
C838 H821 0.940 . S
C838 C837 1.385 1_554 S
C838 C839 1.388 . S
C839 H818 0.939 . S
C839 C834 1.392 . S
C839 C838 1.388 . S
P840 O851 1.490 . S
P840 C854 1.812 . S
P840 C860 1.803 . S
P840 C866 1.819 . S
H841 C855 0.941 . S
H842 C856 0.939 1_655 S
H843 C858 0.940 . S
H844 C859 0.940 . S
H845 C861 0.939 . S
H846 C862 0.942 . S
H847 C864 0.940 . S
H848 C865 0.939 . S
H849 C867 0.941 . S
H850 C871 0.939 . S
O851 P840 1.490 . S
H852 C868 0.939 . S
H853 C870 0.940 . S
C854 P840 1.812 . S
C854 C855 1.389 . S
C854 C859 1.391 . S
C855 H841 0.941 . S
C855 C854 1.389 . S
C855 C856 1.397 . S
C856 H842 0.939 1_455 S
C856 C855 1.397 . S
C856 C857 1.378 . S
C857 C856 1.378 . S
C857 C858 1.378 . S
C858 H843 0.940 . S
C858 C857 1.378 . S
C858 C859 1.396 . S
C859 H844 0.940 . S
C859 C854 1.391 . S
C859 C858 1.396 . S
C860 P840 1.803 . S
C860 C861 1.378 . S
C860 C865 1.400 . S
C861 H845 0.939 . S
C861 C860 1.378 . S
C861 C862 1.361 . S
C862 H846 0.942 . S
C862 C861 1.361 . S
C862 C863 1.369 . S
C863 C862 1.369 . S
C863 C864 1.404 . S
C864 H847 0.940 . S
C864 C863 1.404 . S
C864 C865 1.389 . S
C865 H848 0.939 . S
C865 C860 1.400 . S
C865 C864 1.389 . S
C866 P840 1.819 . S
C866 C867 1.391 . S
C866 C871 1.391 . S
C867 H849 0.941 . S
C867 C866 1.391 . S
C867 C868 1.396 . S
C868 H852 0.939 . S
C868 C867 1.396 . S
C868 C869 1.397 . S
C869 C868 1.397 . S
C869 C870 1.385 . S
C870 H853 0.940 . S
C870 C869 1.385 . S
C870 C871 1.388 . S
C871 H850 0.939 . S
C871 C866 1.391 . S
C871 C870 1.388 . S
P872 O883 1.490 1_556 S
P872 C886 1.799 1_556 S
P872 C892 1.815 . S
P872 C898 1.819 . S
H873 C887 0.941 . S
H874 C888 0.939 . S
H875 C890 0.940 . S
H876 C891 0.940 . S
H877 C893 0.939 . S
H878 C894 0.942 . S
H879 C896 0.940 . S
H880 C897 0.939 . S
H881 C899 0.941 . S
H882 C903 0.939 . S
O883 P872 1.490 1_554 S
H884 C900 0.939 . S
H885 C902 0.940 . S
C886 P872 1.799 1_554 S
C886 C887 1.389 . S
C886 C891 1.391 . S
C887 H873 0.941 . S
C887 C886 1.389 . S
C887 C888 1.397 . S
C888 H874 0.939 . S
C888 C887 1.397 . S
C888 C889 1.378 . S
C889 C888 1.378 . S
C889 C890 1.378 . S
C890 H875 0.940 . S
C890 C889 1.378 . S
C890 C891 1.396 . S
C891 H876 0.940 . S
C891 C886 1.391 . S
C891 C890 1.396 . S
C892 P872 1.815 . S
C892 C893 1.378 . S
C892 C897 1.400 . S
C893 H877 0.939 . S
C893 C892 1.378 . S
C893 C894 1.361 . S
C894 H878 0.942 . S
C894 C893 1.361 . S
C894 C895 1.369 . S
C895 C894 1.369 . S
C895 C896 1.404 . S
C896 H879 0.940 . S
C896 C895 1.404 . S
C896 C897 1.389 . S
C897 H880 0.939 . S
C897 C892 1.400 . S
C897 C896 1.389 . S
C898 P872 1.819 . S
C898 C899 1.391 1_556 S
C898 C903 1.391 . S
C899 H881 0.941 . S
C899 C898 1.391 1_554 S
C899 C900 1.396 . S
C900 H884 0.939 . S
C900 C899 1.396 . S
C900 C901 1.397 1_554 S
C901 C900 1.397 1_556 S
C901 C902 1.385 . S
C902 H885 0.940 . S
C902 C901 1.385 . S
C902 C903 1.388 . S
C903 H882 0.939 . S
C903 C898 1.391 . S
C903 C902 1.388 . S
P904 O915 1.490 . S
P904 C918 1.812 . S
P904 C924 1.803 . S
P904 C930 1.819 . S
H905 C919 0.941 . S
H906 C920 0.939 . S
H907 C922 0.940 . S
H908 C923 0.940 . S
H909 C925 0.939 . S
H910 C926 0.942 . S
H911 C928 0.940 . S
H912 C929 0.939 . S
H913 C931 0.941 . S
H914 C935 0.939 . S
O915 P904 1.490 . S
H916 C932 0.939 . S
H917 C934 0.940 . S
C918 P904 1.812 . S
C918 C919 1.389 . S
C918 C923 1.391 . S
C919 H905 0.941 . S
C919 C918 1.389 . S
C919 C920 1.397 . S
C920 H906 0.939 . S
C920 C919 1.397 . S
C920 C921 1.378 . S
C921 C920 1.378 . S
C921 C922 1.378 . S
C922 H907 0.940 . S
C922 C921 1.378 . S
C922 C923 1.396 . S
C923 H908 0.940 . S
C923 C918 1.391 . S
C923 C922 1.396 . S
C924 P904 1.803 . S
C924 C925 1.378 . S
C924 C929 1.400 . S
C925 H909 0.939 . S
C925 C924 1.378 . S
C925 C926 1.361 . S
C926 H910 0.942 . S
C926 C925 1.361 . S
C926 C927 1.369 . S
C927 C926 1.369 . S
C927 C928 1.404 . S
C928 H911 0.940 . S
C928 C927 1.404 . S
C928 C929 1.389 . S
C929 H912 0.939 . S
C929 C924 1.400 . S
C929 C928 1.389 . S
C930 P904 1.819 . S
C930 C931 1.391 . S
C930 C935 1.391 . S
C931 H913 0.941 . S
C931 C930 1.391 . S
C931 C932 1.396 . S
C932 H916 0.939 . S
C932 C931 1.396 . S
C932 C933 1.397 . S
C933 C932 1.397 . S
C933 C934 1.385 . S
C934 H917 0.940 . S
C934 C933 1.385 . S
C934 C935 1.388 . S
C935 H914 0.939 . S
C935 C930 1.391 . S
C935 C934 1.388 . S
P936 O947 1.490 . S
P936 C950 1.829 . S
P936 C956 1.787 1_655 S
P936 C962 1.818 1_655 S
H937 C951 0.941 . S
H938 C952 0.939 1_545 S
H939 C954 0.940 . S
H940 C955 0.940 . S
H941 C957 0.939 . S
H942 C958 0.942 . S
H943 C960 0.940 . S
H944 C961 0.939 . S
H945 C963 0.941 . S
H946 C967 0.939 . S
O947 P936 1.490 . S
H948 C964 0.939 . S
H949 C966 0.940 . S
C950 P936 1.829 . S
C950 C951 1.389 . S
C950 C955 1.391 . S
C951 H937 0.941 . S
C951 C950 1.389 . S
C951 C952 1.397 . S
C952 H938 0.939 1_565 S
C952 C951 1.397 . S
C952 C953 1.378 . S
C953 C952 1.378 . S
C953 C954 1.378 . S
C954 H939 0.940 . S
C954 C953 1.378 . S
C954 C955 1.396 . S
C955 H940 0.940 . S
C955 C950 1.391 . S
C955 C954 1.396 . S
C956 P936 1.787 1_455 S
C956 C957 1.378 . S
C956 C961 1.400 . S
C957 H941 0.939 . S
C957 C956 1.378 . S
C957 C958 1.361 . S
C958 H942 0.942 . S
C958 C957 1.361 . S
C958 C959 1.369 . S
C959 C958 1.369 . S
C959 C960 1.404 . S
C960 H943 0.940 . S
C960 C959 1.404 . S
C960 C961 1.389 . S
C961 H944 0.939 . S
C961 C956 1.400 . S
C961 C960 1.389 . S
C962 P936 1.818 1_455 S
C962 C963 1.390 1_455 S
C962 C967 1.392 . S
C963 H945 0.941 . S
C963 C962 1.390 1_655 S
C963 C964 1.396 . S
C964 H948 0.939 . S
C964 C963 1.396 . S
C964 C965 1.397 . S
C965 C964 1.397 . S
C965 C966 1.385 1_655 S
C966 H949 0.940 . S
C966 C965 1.385 1_455 S
C966 C967 1.388 . S
C967 H946 0.939 . S
C967 C962 1.392 . S
C967 C966 1.388 . S
P968 O979 1.490 . S
P968 C982 1.812 . S
P968 C988 1.803 . S
P968 C994 1.819 . S
H969 C983 0.941 . S
H970 C984 0.939 1_565 S
H971 C986 0.940 . S
H972 C987 0.940 . S
H973 C989 0.939 . S
H974 C990 0.942 . S
H975 C992 0.940 . S
H976 C993 0.939 . S
H977 C995 0.941 . S
H978 C999 0.939 . S
O979 P968 1.490 . S
H980 C996 0.939 . S
H981 C998 0.940 . S
C982 P968 1.812 . S
C982 C983 1.389 . S
C982 C987 1.391 . S
C983 H969 0.941 . S
C983 C982 1.389 . S
C983 C984 1.397 . S
C984 H970 0.939 1_545 S
C984 C983 1.397 . S
C984 C985 1.378 . S
C985 C984 1.378 . S
C985 C986 1.378 . S
C986 H971 0.940 . S
C986 C985 1.378 . S
C986 C987 1.396 . S
C987 H972 0.940 . S
C987 C982 1.391 . S
C987 C986 1.396 . S
C988 P968 1.803 . S
C988 C989 1.378 . S
C988 C993 1.400 . S
C989 H973 0.939 . S
C989 C988 1.378 . S
C989 C990 1.361 . S
C990 H974 0.942 . S
C990 C989 1.361 . S
C990 C991 1.369 . S
C991 C990 1.369 . S
C991 C992 1.404 . S
C992 H975 0.940 . S
C992 C991 1.404 . S
C992 C993 1.389 . S
C993 H976 0.939 . S
C993 C988 1.400 . S
C993 C992 1.389 . S
C994 P968 1.819 . S
C994 C995 1.391 . S
C994 C999 1.391 . S
C995 H977 0.941 . S
C995 C994 1.391 . S
C995 C996 1.396 . S
C996 H980 0.939 . S
C996 C995 1.396 . S
C996 C997 1.397 . S
C997 C996 1.397 . S
C997 C998 1.385 . S
C998 H981 0.940 . S
C998 C997 1.385 . S
C998 C999 1.388 . S
C999 H978 0.939 . S
C999 C994 1.391 . S
C999 C998 1.388 . S
P1000 O1011 1.490 1_655 S
P1000 C1014 1.799 1_655 S
P1000 C1020 1.815 . S
P1000 C1026 1.819 . S
H1001 C1015 0.941 . S
H1002 C1016 0.939 . S
H1003 C1018 0.940 . S
H1004 C1019 0.940 . S
H1005 C1021 0.939 . S
H1006 C1022 0.942 . S
H1007 C1024 0.940 . S
H1008 C1025 0.939 . S
H1009 C1027 0.941 . S
H1010 C1031 0.939 . S
O1011 P1000 1.490 1_455 S
H1012 C1028 0.939 . S
H1013 C1030 0.940 . S
C1014 P1000 1.799 1_455 S
C1014 C1015 1.389 . S
C1014 C1019 1.391 . S
C1015 H1001 0.941 . S
C1015 C1014 1.389 . S
C1015 C1016 1.397 . S
C1016 H1002 0.939 . S
C1016 C1015 1.397 . S
C1016 C1017 1.378 . S
C1017 C1016 1.378 . S
C1017 C1018 1.378 . S
C1018 H1003 0.940 . S
C1018 C1017 1.378 . S
C1018 C1019 1.396 . S
C1019 H1004 0.940 . S
C1019 C1014 1.391 . S
C1019 C1018 1.396 . S
C1020 P1000 1.815 . S
C1020 C1021 1.378 . S
C1020 C1025 1.400 . S
C1021 H1005 0.939 . S
C1021 C1020 1.378 . S
C1021 C1022 1.361 . S
C1022 H1006 0.942 . S
C1022 C1021 1.361 . S
C1022 C1023 1.369 . S
C1023 C1022 1.369 . S
C1023 C1024 1.404 . S
C1024 H1007 0.940 . S
C1024 C1023 1.404 . S
C1024 C1025 1.389 . S
C1025 H1008 0.939 . S
C1025 C1020 1.400 . S
C1025 C1024 1.389 . S
C1026 P1000 1.819 . S
C1026 C1027 1.391 1_655 S
C1026 C1031 1.391 . S
C1027 H1009 0.941 . S
C1027 C1026 1.391 1_455 S
C1027 C1028 1.396 . S
C1028 H1012 0.939 . S
C1028 C1027 1.396 . S
C1028 C1029 1.397 1_455 S
C1029 C1028 1.397 1_655 S
C1029 C1030 1.385 . S
C1030 H1013 0.940 . S
C1030 C1029 1.385 . S
C1030 C1031 1.388 . S
C1031 H1010 0.939 . S
C1031 C1026 1.391 . S
C1031 C1030 1.388 . S
C1017 C8 2.053 . S
C921 C19 1.962 . S
C985 C30 1.704 . S
C953 C41 2.251 . S
C729 C52 2.053 . S
C63 C761 2.251 . S
C665 C74 1.962 . S
C85 C697 1.704 . S
C889 C96 2.053 . S
C107 C825 2.251 . S
C118 C793 1.962 . S
C857 C129 1.704 . S
C633 C140 1.961 . S
C151 C537 1.722 . S
C601 C162 1.619 . S
C173 C569 2.019 . S
C345 C184 1.961 . S
C377 C195 2.019 . S
C206 C281 1.722 . S
C217 C313 1.619 . S
C228 C505 1.961 . S
C239 C441 2.019 . S
C409 C250 1.722 . S
C261 C473 1.619 . S
C293 C7 2.203 . S
C325 C18 2.547 . S
C29 C357 2.197 1_565 S
C40 C389 1.835 . S
C421 C51 2.203 . S
C62 C453 1.835 . S
C485 C73 2.547 . S
C517 C84 2.197 1_554 S
C549 C95 2.203 . S
C106 C581 1.835 . S
C117 C613 2.547 . S
C128 C645 2.197 1_655 S
C139 C677 1.531 . S
C150 C709 1.842 . S
C161 C741 1.469 1_545 S
C172 C773 1.106 . S
C183 C805 1.531 . S
C837 C194 1.106 . S
C869 C205 1.842 . S
C901 C216 1.469 1_556 S
C933 C227 1.531 . S
C238 C965 1.106 . S
C249 C997 1.842 . S
C260 C1029 1.469 1_455 S
C5 C543 2.393 . S
C639 C16 2.523 . S
C27 C575 2.141 1_565 S
C607 C38 2.935 1_565 S
C49 C287 2.393 . S
C60 C319 2.935 1_554 S
C71 C351 2.523 . S
C82 C383 2.141 1_556 S
C415 C93 2.393 . S
C479 C104 2.935 1_655 S
C115 C511 2.523 . S
C126 C447 2.141 1_655 S
C927 C137 1.672 . S
C1023 C148 1.575 . S
C159 C959 1.389 . S
C991 C170 1.919 . S
C181 C671 1.672 . S
C192 C703 1.919 . S
C203 C735 1.575 . S
C767 C214 1.389 . S
C799 C225 1.672 . S
C863 C236 1.919 . S
C247 C895 1.575 . S
C831 C258 1.389 . S
