# Generated by pormake.
# Topology pto, (3,4)-cn, num edge types: 1
# Building blocks:
#     Node 0, Type 0, BuildingBlock: OLANEW_clean_sbu_2, # of connection points: 3
#     Node 1, Type 0, BuildingBlock: OLANEW_clean_sbu_2, # of connection points: 3
#     Node 2, Type 0, BuildingBlock: OLANEW_clean_sbu_2, # of connection points: 3
#     Node 3, Type 0, BuildingBlock: OLANEW_clean_sbu_2, # of connection points: 3
#     Node 4, Type 0, BuildingBlock: OLANEW_clean_sbu_2, # of connection points: 3
#     Node 5, Type 0, BuildingBlock: OLANEW_clean_sbu_2, # of connection points: 3
#     Node 6, Type 0, BuildingBlock: OLANEW_clean_sbu_2, # of connection points: 3
#     Node 7, Type 0, BuildingBlock: OLANEW_clean_sbu_2, # of connection points: 3
#     Node 8, Type 1, BuildingBlock: NAHDIM_clean_linker_0, # of connection points: 4
#     Node 9, Type 1, BuildingBlock: NAHDIM_clean_linker_0, # of connection points: 4
#     Node 10, Type 1, BuildingBlock: NAHDIM_clean_linker_0, # of connection points: 4
#     Node 11, Type 1, BuildingBlock: NAHDIM_clean_linker_0, # of connection points: 4
#     Node 12, Type 1, BuildingBlock: NAHDIM_clean_linker_0, # of connection points: 4
#     Node 13, Type 1, BuildingBlock: NAHDIM_clean_linker_0, # of connection points: 4
#     Edge 14, Type (0, 1), BuildingBlock: KIFKEQ_clean_linker_1, # of connection points: 2
#     Edge 15, Type (0, 1), BuildingBlock: KIFKEQ_clean_linker_1, # of connection points: 2
#     Edge 16, Type (0, 1), BuildingBlock: KIFKEQ_clean_linker_1, # of connection points: 2
#     Edge 17, Type (0, 1), BuildingBlock: KIFKEQ_clean_linker_1, # of connection points: 2
#     Edge 18, Type (0, 1), BuildingBlock: KIFKEQ_clean_linker_1, # of connection points: 2
#     Edge 19, Type (0, 1), BuildingBlock: KIFKEQ_clean_linker_1, # of connection points: 2
#     Edge 20, Type (0, 1), BuildingBlock: KIFKEQ_clean_linker_1, # of connection points: 2
#     Edge 21, Type (0, 1), BuildingBlock: KIFKEQ_clean_linker_1, # of connection points: 2
#     Edge 22, Type (0, 1), BuildingBlock: KIFKEQ_clean_linker_1, # of connection points: 2
#     Edge 23, Type (0, 1), BuildingBlock: KIFKEQ_clean_linker_1, # of connection points: 2
#     Edge 24, Type (0, 1), BuildingBlock: KIFKEQ_clean_linker_1, # of connection points: 2
#     Edge 25, Type (0, 1), BuildingBlock: KIFKEQ_clean_linker_1, # of connection points: 2
#     Edge 26, Type (0, 1), BuildingBlock: KIFKEQ_clean_linker_1, # of connection points: 2
#     Edge 27, Type (0, 1), BuildingBlock: KIFKEQ_clean_linker_1, # of connection points: 2
#     Edge 28, Type (0, 1), BuildingBlock: KIFKEQ_clean_linker_1, # of connection points: 2
#     Edge 29, Type (0, 1), BuildingBlock: KIFKEQ_clean_linker_1, # of connection points: 2
#     Edge 30, Type (0, 1), BuildingBlock: KIFKEQ_clean_linker_1, # of connection points: 2
#     Edge 31, Type (0, 1), BuildingBlock: KIFKEQ_clean_linker_1, # of connection points: 2
#     Edge 32, Type (0, 1), BuildingBlock: KIFKEQ_clean_linker_1, # of connection points: 2
#     Edge 33, Type (0, 1), BuildingBlock: KIFKEQ_clean_linker_1, # of connection points: 2
#     Edge 34, Type (0, 1), BuildingBlock: KIFKEQ_clean_linker_1, # of connection points: 2
#     Edge 35, Type (0, 1), BuildingBlock: KIFKEQ_clean_linker_1, # of connection points: 2
#     Edge 36, Type (0, 1), BuildingBlock: KIFKEQ_clean_linker_1, # of connection points: 2
#     Edge 37, Type (0, 1), BuildingBlock: KIFKEQ_clean_linker_1, # of connection points: 2
# Relax obj value: 0.012
# Max RMSD: 0.133
# Mean RMSD: 0.069
data_MOF--net-pto--node1-OLANEW_clean_sbu_2--node2-NAHDIM_clean_linker_0--edge1-KIFKEQ_clean_linker_1
_symmetry_space_group_name_H-M    P1
_symmetry_Int_Tables_number       1
_symmetry_cell_setting            triclinic
loop_
_symmetry_equiv_pos_as_xyz
'x, y, z'
_cell_length_a     62.548783
_cell_length_b     61.472014
_cell_length_c     58.331847
_cell_angle_alpha  92.579483
_cell_angle_beta   90.918735
_cell_angle_gamma 102.42775
loop_
_atom_site_label
_atom_site_type_symbol
_atom_site_fract_x
_atom_site_fract_y
_atom_site_fract_z
_atom_type_partial_charge
O0 O 0.32089 0.3719 0.2552 0.0
Cd1 Cd 0.29281 0.36782 0.28423 0.0
O2 O 0.32227 0.40786 0.25366 0.0
Cd3 Cd 0.29228 0.40748 0.27228 0.0
O4 O 0.26063 0.41583 0.26605 0.0
C5 C 0.2562 0.41621 0.24476 0.0
O6 O 0.27009 0.4109 0.22995 0.0
C7 C 0.32964 0.39078 0.24773 0.0
C8 C 0.30203 0.3395 0.31718 0.0
O9 O 0.28759 0.33228 0.30122 0.0
O10 O 0.31178 0.36011 0.31777 0.0
O11 O 0.27304 0.86374 0.7728 0.0
Cd12 Cd 0.24659 0.86687 0.74249 0.0
O13 O 0.28701 0.83942 0.75259 0.0
Cd14 Cd 0.25747 0.8308 0.73085 0.0
O15 O 0.22694 0.80635 0.73457 0.0
C16 C 0.2297 0.78995 0.74594 0.0
O17 O 0.24967 0.7893 0.75275 0.0
C18 C 0.28769 0.85239 0.77031 0.0
C19 C 0.26481 0.9036 0.71739 0.0
O20 O 0.25344 0.90567 0.73512 0.0
O21 O 0.26709 0.88399 0.71111 0.0
O22 O 0.77829 0.74913 0.27306 0.0
Cd23 Cd 0.77163 0.72138 0.24084 0.0
O24 O 0.76367 0.77145 0.2523 0.0
Cd25 Cd 0.75321 0.74922 0.22212 0.0
O26 O 0.72995 0.74671 0.19342 0.0
C27 C 0.73186 0.76448 0.1826 0.0
O28 O 0.74835 0.7812 0.18814 0.0
C29 C 0.77291 0.76776 0.27085 0.0
C30 C 0.80508 0.69867 0.23236 0.0
O31 O 0.80553 0.71767 0.22395 0.0
O32 O 0.78912 0.69072 0.24522 0.0
O33 O 0.7591 0.31393 0.71548 0.0
Cd34 Cd 0.72518 0.28564 0.70862 0.0
O35 O 0.76593 0.30003 0.7482 0.0
Cd36 Cd 0.73225 0.28165 0.75126 0.0
O37 O 0.7064 0.28899 0.77315 0.0
C38 C 0.71373 0.29891 0.79219 0.0
O39 O 0.73485 0.30233 0.79683 0.0
C40 C 0.77184 0.31377 0.73266 0.0
C41 C 0.7322 0.24667 0.68626 0.0
O42 O 0.72743 0.26241 0.67486 0.0
O43 O 0.73374 0.24941 0.70818 0.0
O44 O 0.74276 0.76223 0.68512 0.0
Cd45 Cd 0.73042 0.72985 0.70823 0.0
O46 O 0.74794 0.78471 0.7161 0.0
Cd47 Cd 0.7339 0.76067 0.74101 0.0
O48 O 0.71519 0.75811 0.77234 0.0
C49 C 0.69453 0.75115 0.77162 0.0
O50 O 0.68465 0.74356 0.75191 0.0
C51 C 0.74898 0.78171 0.69447 0.0
C52 C 0.76441 0.70959 0.72111 0.0
O53 O 0.75285 0.70297 0.70276 0.0
O54 O 0.75999 0.72588 0.73326 0.0
O55 O 0.79221 0.25787 0.19661 0.0
Cd56 Cd 0.75862 0.22935 0.20053 0.0
O57 O 0.78187 0.28131 0.22139 0.0
Cd58 Cd 0.74758 0.26408 0.21802 0.0
O59 O 0.72066 0.27332 0.19918 0.0
C60 C 0.72737 0.28833 0.18507 0.0
O61 O 0.74858 0.29542 0.18294 0.0
C62 C 0.79645 0.27616 0.20858 0.0
C63 C 0.76144 0.20332 0.2381 0.0
O64 O 0.768 0.1981 0.21831 0.0
O65 O 0.7535 0.22085 0.24015 0.0
O66 O 0.28173 0.38675 0.79413 0.0
Cd67 Cd 0.25269 0.37387 0.76499 0.0
O68 O 0.30397 0.4081 0.77146 0.0
Cd69 Cd 0.28491 0.39242 0.74119 0.0
O70 O 0.28292 0.36251 0.71898 0.0
C71 C 0.28784 0.3465 0.72946 0.0
O72 O 0.29209 0.34926 0.75167 0.0
C73 C 0.29941 0.40098 0.79132 0.0
C74 C 0.21805 0.3947 0.77401 0.0
O75 O 0.21934 0.37653 0.78335 0.0
O76 O 0.23296 0.40282 0.76004 0.0
O77 O 0.30277 0.84608 0.25162 0.0
Cd78 Cd 0.27431 0.84796 0.27946 0.0
O79 O 0.2877 0.86375 0.22605 0.0
Cd80 Cd 0.25655 0.85569 0.24333 0.0
O81 O 0.23137 0.82518 0.24533 0.0
C82 C 0.23812 0.80797 0.23847 0.0
O83 O 0.25855 0.81046 0.2322 0.0
C84 C 0.30361 0.85543 0.23254 0.0
C85 C 0.28973 0.88205 0.31281 0.0
O86 O 0.29111 0.86188 0.31594 0.0
O87 O 0.28081 0.88608 0.29398 0.0
C88 C 0.90675 0.41025 0.14134 0.0
C89 C 0.91646 0.40293 0.16329 0.0
C90 C 0.93905 0.43673 0.18275 0.0
C91 C 0.94162 0.44993 0.20314 0.0
C92 C 0.96039 0.46685 0.20764 0.0
C93 C 0.97667 0.47118 0.19086 0.0
C94 C 0.97396 0.4582 0.16992 0.0
C95 C 0.95533 0.44093 0.16619 0.0
C96 C 0.96292 0.47985 0.23046 0.0
C97 C 0.99085 0.46234 0.1515 0.0
C98 C 0.14326 0.44645 0.2087 0.0
C99 C 0.12301 0.45285 0.20024 0.0
C100 C 0.09286 0.46884 0.21412 0.0
C101 C 0.08616 0.47386 0.1922 0.0
C102 C 0.06787 0.48333 0.18932 0.0
C103 C 0.05589 0.48772 0.2087 0.0
C104 C 0.06261 0.48285 0.2308 0.0
C105 C 0.08111 0.47353 0.23322 0.0
C106 C 0.06126 0.48852 0.16551 0.0
C107 C 0.05017 0.48738 0.25178 0.0
C108 C 0.09898 0.63847 0.2127 0.0
C109 C 0.09507 0.62552 0.19192 0.0
C110 C 0.07536 0.60979 0.1878 0.0
C111 C 0.05951 0.60634 0.20507 0.0
C112 C 0.06341 0.61926 0.22601 0.0
C113 C 0.08299 0.63535 0.2294 0.0
C114 C 0.07154 0.59682 0.16495 0.0
C115 C 0.04697 0.61596 0.24488 0.0
C116 C 0.88831 0.58648 0.15188 0.0
C117 C 0.90207 0.59853 0.17246 0.0
C118 C 0.94173 0.60319 0.172 0.0
C119 C 0.95769 0.60228 0.15572 0.0
C120 C 0.97699 0.5954 0.16154 0.0
C121 C 0.98053 0.58983 0.18437 0.0
C122 C 0.96499 0.59199 0.20123 0.0
C123 C 0.9457 0.59861 0.19484 0.0
C124 C 0.99333 0.59355 0.14321 0.0
C125 C 0.96862 0.58698 0.2259 0.0
C126 C -0.00303 0.48856 0.19559 0.0
C127 C 0.01608 0.48146 0.20124 0.0
C128 C 0.03592 0.49672 0.20554 0.0
C129 C 0.03671 0.51985 0.20505 0.0
C130 C 0.05624 0.53566 0.2101 0.0
C131 C 0.05692 0.55838 0.20922 0.0
C132 C 0.03821 0.56615 0.20284 0.0
C133 C 0.03891 0.5892 0.2012 0.0
C134 C 0.01989 0.59634 0.1952 0.0
C135 C 0.00012 0.58107 0.19047 0.0
C136 C -0.0008 0.55793 0.19154 0.0
C137 C 0.97974 0.54205 0.18621 0.0
C138 C 0.97897 0.51934 0.18743 0.0
C139 C -0.0024 0.51161 0.1941 0.0
C140 C 0.0175 0.5273 0.19914 0.0
C141 C 0.01829 0.55048 0.1979 0.0
C142 C 0.14975 0.63951 0.21081 0.0
C143 C 0.13698 0.65737 0.20529 0.0
O144 O 0.92063 0.42033 0.17983 0.0
O145 O 0.92271 0.60846 0.16514 0.0
O146 O 0.11774 0.65409 0.21741 0.0
O147 O 0.11046 0.45952 0.21748 0.0
H148 H 0.93192 0.3976 0.15909 0.0
H149 H 0.91848 0.42413 0.13391 0.0
H150 H 0.89145 0.41605 0.14499 0.0
H151 H 0.90304 0.39613 0.1283 0.0
H152 H 0.92899 0.4466 0.2158 0.0
H153 H 0.95366 0.43094 0.15027 0.0
H154 H 0.97938 0.48055 0.23826 0.0
H155 H 0.9503 0.47247 0.24272 0.0
H156 H 0.96145 0.49724 0.22783 0.0
H157 H 0.98444 0.45394 0.13475 0.0
H158 H 0.00528 0.45579 0.15681 0.0
H159 H -0.00354 0.48049 0.14915 0.0
H160 H 0.11303 0.44084 0.18724 0.0
H161 H 0.14087 0.42814 0.20378 0.0
H162 H 0.14125 0.44391 0.22763 0.0
H163 H 0.16846 0.47056 0.19574 0.0
H164 H 0.09507 0.47043 0.1772 0.0
H165 H 0.0864 0.46969 0.25006 0.0
H166 H 0.04448 0.47884 0.16107 0.0
H167 H 0.07256 0.48451 0.15224 0.0
H168 H 0.06094 0.50648 0.16503 0.0
H169 H 0.05774 0.48306 0.26783 0.0
H170 H 0.03305 0.47757 0.25008 0.0
H171 H 0.04949 0.5053 0.25314 0.0
H172 H 0.13319 0.65649 0.18656 0.0
H173 H 0.10715 0.62754 0.17871 0.0
H174 H 0.08608 0.64539 0.24534 0.0
H175 H 0.07268 0.57929 0.16731 0.0
H176 H 0.08375 0.60388 0.15214 0.0
H177 H 0.05488 0.5966 0.15793 0.0
H178 H 0.05339 0.62573 0.26095 0.0
H179 H 0.04226 0.59803 0.24862 0.0
H180 H 0.03192 0.62122 0.23915 0.0
H181 H 0.90306 0.58538 0.18473 0.0
H182 H 0.87154 0.57875 0.15728 0.0
H183 H 0.89599 0.57306 0.14466 0.0
H184 H 0.88717 0.59817 0.13816 0.0
H185 H 0.95461 0.60624 0.13822 0.0
H186 H 0.93375 0.60023 0.20769 0.0
H187 H -0.00375 0.57634 0.14206 0.0
H188 H 0.00922 0.60504 0.14787 0.0
H189 H 0.98775 0.59766 0.12607 0.0
H190 H 0.95614 0.59169 0.23734 0.0
H191 H 0.98514 0.59604 0.23218 0.0
H192 H 0.96791 0.56887 0.22708 0.0
H193 H 0.01562 0.46374 0.20181 0.0
H194 H 0.07119 0.53064 0.21489 0.0
H195 H 0.07238 0.56978 0.21346 0.0
H196 H 0.02052 0.61404 0.19404 0.0
H197 H 0.96487 0.547 0.18097 0.0
H198 H 0.96357 0.50791 0.18304 0.0
H199 H 0.15376 0.64018 0.2295 0.0
H200 H 0.16519 0.64203 0.20117 0.0
H201 H 0.13987 0.62265 0.20578 0.0
C202 C 0.11408 0.49609 0.84467 0.0
C203 C 0.10433 0.48108 0.82369 0.0
C204 C 0.08016 0.50064 0.8028 0.0
C205 C 0.07673 0.50938 0.7817 0.0
C206 C 0.05732 0.51637 0.77671 0.0
C207 C 0.04117 0.51518 0.79361 0.0
C208 C 0.04467 0.50673 0.81519 0.0
C209 C 0.06403 0.49935 0.81951 0.0
C210 C 0.05399 0.52481 0.7533 0.0
C211 C 0.02791 0.50539 0.83371 0.0
C212 C 0.87944 0.407 0.76754 0.0
C213 C 0.89694 0.42548 0.77757 0.0
C214 C 0.92779 0.45418 0.76602 0.0
C215 C 0.93173 0.46504 0.78793 0.0
C216 C 0.949 0.48368 0.79187 0.0
C217 C 0.96248 0.4918 0.77353 0.0
C218 C 0.95831 0.48122 0.75138 0.0
C219 C 0.94102 0.46249 0.74795 0.0
C220 C 0.95307 0.49452 0.81574 0.0
C221 C 0.97228 0.48959 0.73143 0.0
C222 C 0.91388 0.62086 0.76712 0.0
C223 C 0.91961 0.61484 0.78902 0.0
C224 C 0.9396 0.60856 0.79299 0.0
C225 C 0.95407 0.60803 0.77468 0.0
C226 C 0.94843 0.61414 0.75267 0.0
C227 C 0.92844 0.62058 0.74924 0.0
C228 C 0.94526 0.60246 0.81677 0.0
C229 C 0.96347 0.61373 0.73278 0.0
C230 C 0.11861 0.67618 0.83724 0.0
C231 C 0.10986 0.67536 0.81251 0.0
C232 C 0.07064 0.66465 0.80627 0.0
C233 C 0.05366 0.65987 0.82171 0.0
C234 C 0.03498 0.64306 0.81635 0.0
C235 C 0.03305 0.6314 0.79464 0.0
C236 C 0.04972 0.63719 0.77843 0.0
C237 C 0.06853 0.65356 0.78459 0.0
C238 C 0.01761 0.63744 0.83409 0.0
C239 C 0.04786 0.62591 0.75474 0.0
C240 C 0.02034 0.52214 0.78848 0.0
C241 C 0.0018 0.50543 0.78289 0.0
C242 C 0.98161 0.51063 0.77787 0.0
C243 C 0.97985 0.53318 0.77783 0.0
C244 C 0.95991 0.53903 0.77237 0.0
C245 C 0.95833 0.56129 0.77257 0.0
C246 C 0.97663 0.57855 0.77824 0.0
C247 C 0.97516 0.60122 0.77869 0.0
C248 C 0.99381 0.61796 0.78379 0.0
C249 C 0.01393 0.61275 0.78917 0.0
C250 C 0.01557 0.59015 0.78952 0.0
C251 C 0.0353 0.58423 0.79578 0.0
C252 C 0.03689 0.56199 0.79556 0.0
C253 C 0.01879 0.54478 0.78916 0.0
C254 C -0.00147 0.55032 0.78351 0.0
C255 C -0.00308 0.57302 0.78369 0.0
C256 C 0.86413 0.60207 0.77818 0.0
C257 C 0.87701 0.62618 0.77671 0.0
O258 O 0.09924 0.49384 0.80624 0.0
O259 O 0.08907 0.67985 0.81269 0.0
O260 O 0.89463 0.62692 0.76239 0.0
O261 O 0.9116 0.43568 0.7617 0.0
H262 H 0.08928 0.4693 0.82893 0.0
H263 H 0.10195 0.50518 0.85174 0.0
H264 H 0.12878 0.50863 0.84004 0.0
H265 H 0.11874 0.48586 0.85836 0.0
H266 H 0.08926 0.51036 0.76893 0.0
H267 H 0.0664 0.49279 0.83602 0.0
H268 H 0.03781 0.51616 0.74576 0.0
H269 H 0.06696 0.52233 0.74129 0.0
H270 H 0.05411 0.54289 0.75495 0.0
H271 H 0.03425 0.50119 0.85046 0.0
H272 H 0.01319 0.49237 0.82851 0.0
H273 H 0.02269 0.5215 0.83596 0.0
H274 H 0.90519 0.42142 0.79343 0.0
H275 H 0.85083 0.41888 0.77223 0.0
H276 H 0.8823 0.39156 0.77566 0.0
H277 H 0.88507 0.40235 0.75009 0.0
H278 H 0.92154 0.45898 0.80209 0.0
H279 H 0.93782 0.45412 0.7311 0.0
H280 H 0.95175 0.51223 0.81542 0.0
H281 H 0.96995 0.49434 0.82179 0.0
H282 H 0.94131 0.48601 0.82826 0.0
H283 H 0.96603 0.48046 0.71497 0.0
H284 H 0.98929 0.48764 0.73469 0.0
H285 H 0.97291 0.50763 0.72974 0.0
H286 H 0.88302 0.63305 0.79417 0.0
H287 H 0.90867 0.61496 0.80316 0.0
H288 H 0.92396 0.62526 0.73242 0.0
H289 H 0.94652 0.58471 0.81638 0.0
H290 H 0.93285 0.60492 0.82948 0.0
H291 H 0.96145 0.6127 0.82263 0.0
H292 H 0.9563 0.61803 0.71649 0.0
H293 H 0.96716 0.5969 0.7304 0.0
H294 H 0.97923 0.62577 0.73658 0.0
H295 H 0.10924 0.65818 0.80509 0.0
H296 H 0.13519 0.67237 0.83758 0.0
H297 H 0.10755 0.66357 0.84713 0.0
H298 H 0.1195 0.69292 0.84571 0.0
H299 H 0.05547 0.66878 0.83833 0.0
H300 H 0.08161 0.65777 0.77254 0.0
H301 H 0.01364 0.61919 0.83644 0.0
H302 H 0.00241 0.6422 0.82806 0.0
H303 H 0.02275 0.64627 0.85097 0.0
H304 H 0.05994 0.63515 0.74294 0.0
H305 H 0.03113 0.62436 0.74725 0.0
H306 H 0.05087 0.60885 0.75589 0.0
H307 H 0.00303 0.48808 0.78269 0.0
H308 H 0.94531 0.52644 0.76785 0.0
H309 H 0.94257 0.5648 0.76818 0.0
H310 H 0.99259 0.63531 0.78386 0.0
H311 H 0.04979 0.59672 0.8009 0.0
H312 H 0.05252 0.55846 0.80047 0.0
H313 H 0.84994 0.60147 0.78954 0.0
H314 H 0.87466 0.59154 0.78543 0.0
H315 H 0.85806 0.5949 0.76086 0.0
C316 C 0.31281 0.19057 0.66291 0.0
C317 C 0.3238 0.21029 0.64897 0.0
C318 C 0.32315 0.19153 0.61137 0.0
C319 C 0.34522 0.19051 0.60914 0.0
C320 C 0.3512 0.17402 0.59474 0.0
C321 C 0.33473 0.15815 0.58251 0.0
C322 C 0.3125 0.15957 0.58425 0.0
C323 C 0.30706 0.17655 0.59839 0.0
C324 C 0.37508 0.17333 0.59287 0.0
C325 C 0.29446 0.14279 0.57171 0.0
C326 C 0.37665 0.04713 0.67195 0.0
C327 C 0.3573 0.04213 0.65472 0.0
C328 C 0.36087 0.05384 0.61576 0.0
C329 C 0.3394 0.05538 0.61025 0.0
C330 C 0.33528 0.0703 0.59408 0.0
C331 C 0.3531 0.0843 0.58366 0.0
C332 C 0.37479 0.08223 0.58876 0.0
C333 C 0.37834 0.0666 0.60442 0.0
C334 C 0.31192 0.07161 0.58874 0.0
C335 C 0.39428 0.09721 0.57852 0.0
C336 C 0.36332 0.0411 0.43502 0.0
C337 C 0.34249 0.04196 0.44301 0.0
C338 C 0.33881 0.06125 0.45465 0.0
C339 C 0.35646 0.07985 0.45873 0.0
C340 C 0.37734 0.07919 0.45007 0.0
C341 C 0.38039 0.05988 0.43797 0.0
C342 C 0.31609 0.06168 0.46272 0.0
C343 C 0.39651 0.09872 0.45394 0.0
C344 C 0.33407 0.24051 0.45586 0.0
C345 C 0.34268 0.23502 0.43225 0.0
C346 C 0.33823 0.19465 0.43593 0.0
C347 C 0.32164 0.17536 0.43529 0.0
C348 C 0.32422 0.15649 0.44679 0.0
C349 C 0.34424 0.15674 0.45855 0.0
C350 C 0.36159 0.17579 0.45811 0.0
C351 C 0.35831 0.19468 0.44709 0.0
C352 C 0.30534 0.13652 0.44685 0.0
C353 C 0.38352 0.17633 0.4696 0.0
C354 C 0.34061 0.13936 0.56896 0.0
C355 C 0.34433 0.12128 0.58089 0.0
C356 C 0.34915 0.10255 0.5694 0.0
C357 C 0.35015 0.10165 0.54518 0.0
C358 C 0.35428 0.08283 0.53295 0.0
C359 C 0.35544 0.08224 0.50912 0.0
C360 C 0.35228 0.10037 0.49657 0.0
C361 C 0.35314 0.09984 0.47232 0.0
C362 C 0.35056 0.11843 0.46048 0.0
C363 C 0.34669 0.13752 0.47215 0.0
C364 C 0.34509 0.13809 0.49633 0.0
C365 C 0.34047 0.15673 0.50855 0.0
C366 C 0.33914 0.15725 0.53234 0.0
C367 C 0.34217 0.13908 0.54482 0.0
C368 C 0.34683 0.1201 0.53287 0.0
C369 C 0.3481 0.11953 0.50857 0.0
C370 C 0.38143 0.99288 0.43905 0.0
C371 C 0.36097 0.00107 0.43204 0.0
O372 O 0.31689 0.20653 0.62615 0.0
O373 O 0.33412 0.21282 0.42571 0.0
O374 O 0.36733 0.02243 0.42424 0.0
O375 O 0.36512 0.04087 0.63271 0.0
H376 H 0.34183 0.21201 0.65046 0.0
H377 H 0.31801 0.1936 0.68129 0.0
H378 H 0.31763 0.17509 0.65646 0.0
H379 H 0.29469 0.18801 0.66147 0.0
H380 H 0.35781 0.20262 0.61851 0.0
H381 H 0.2901 0.17766 0.6001 0.0
H382 H 0.37817 0.1584 0.60125 0.0
H383 H 0.38602 0.18838 0.60117 0.0
H384 H 0.3794 0.17189 0.57455 0.0
H385 H 0.27792 0.14521 0.57628 0.0
H386 H 0.29568 0.1256 0.57572 0.0
H387 H 0.29626 0.14427 0.55291 0.0
H388 H 0.34896 0.0564 0.65678 0.0
H389 H 0.37071 0.04792 0.68976 0.0
H390 H 0.3874 0.06351 0.66862 0.0
H391 H 0.38655 0.03417 0.67044 0.0
H392 H 0.32591 0.04511 0.61885 0.0
H393 H 0.39485 0.06513 0.60882 0.0
H394 H 0.30852 0.08694 0.59734 0.0
H395 H 0.30002 0.05701 0.59481 0.0
H396 H 0.30929 0.07262 0.56998 0.0
H397 H 0.41006 0.09497 0.58602 0.0
H398 H 0.3933 0.11496 0.5813 0.0
H399 H 0.39422 0.09352 0.55973 0.0
H400 H 0.35092 0.00112 0.44765 0.0
H401 H 0.32911 0.0276 0.43998 0.0
H402 H 0.39633 0.05909 0.43139 0.0
H403 H 0.31587 0.06128 0.48171 0.0
H404 H 0.30363 0.04724 0.45541 0.0
H405 H 0.3114 0.07733 0.4579 0.0
H406 H 0.41206 0.09488 0.44775 0.0
H407 H 0.39855 0.10376 0.47251 0.0
H408 H 0.39331 0.11318 0.44478 0.0
H409 H 0.36085 0.23823 0.43318 0.0
H410 H 0.34094 0.25814 0.46158 0.0
H411 H 0.33899 0.22982 0.46893 0.0
H412 H 0.3159 0.23761 0.45516 0.0
H413 H 0.30631 0.17544 0.42641 0.0
H414 H 0.37151 0.20929 0.44718 0.0
H415 H 0.30161 0.13186 0.46476 0.0
H416 H 0.30994 0.12207 0.43765 0.0
H417 H 0.2903 0.13966 0.43845 0.0
H418 H 0.39632 0.1906 0.46434 0.0
H419 H 0.38896 0.16059 0.46546 0.0
H420 H 0.38199 0.17788 0.4885 0.0
H421 H 0.34335 0.12177 0.59947 0.0
H422 H 0.35668 0.06833 0.54169 0.0
H423 H 0.35884 0.06737 0.50066 0.0
H424 H 0.35146 0.11799 0.4419 0.0
H425 H 0.3378 0.17116 0.49989 0.0
H426 H 0.33568 0.1721 0.54083 0.0
H427 H 0.39226 0.99248 0.42418 0.0
H428 H 0.37681 0.97589 0.4457 0.0
H429 H 0.39071 0.00428 0.45284 0.0
C430 C 0.45069 0.85075 0.14445 0.0
C431 C 0.4317 0.85417 0.12904 0.0
C432 C 0.44019 0.83508 0.09364 0.0
C433 C 0.45532 0.85306 0.08511 0.0
C434 C 0.46972 0.84955 0.06784 0.0
C435 C 0.46916 0.82763 0.05905 0.0
C436 C 0.45328 0.80961 0.06676 0.0
C437 C 0.4388 0.81364 0.0838 0.0
C438 C 0.48609 0.86922 0.05957 0.0
C439 C 0.45226 0.78604 0.05768 0.0
C440 C 0.59987 0.82745 0.1328 0.0
C441 C 0.59993 0.80784 0.1157 0.0
C442 C 0.58239 0.81546 0.08053 0.0
C443 C 0.5659 0.7962 0.07647 0.0
C444 C 0.54703 0.79685 0.06342 0.0
C445 C 0.54469 0.81721 0.0544 0.0
C446 C 0.56157 0.83656 0.0581 0.0
C447 C 0.58042 0.83531 0.07086 0.0
C448 C 0.52956 0.77583 0.05935 0.0
C449 C 0.55951 0.85862 0.04894 0.0
C450 C 0.57436 0.80552 0.90834 0.0
C451 C 0.55737 0.78737 0.91297 0.0
C452 C 0.53849 0.79073 0.92398 0.0
C453 C 0.5365 0.81268 0.93027 0.0
C454 C 0.55297 0.83105 0.92436 0.0
C455 C 0.57167 0.8272 0.91328 0.0
C456 C 0.52093 0.77082 0.92948 0.0
C457 C 0.55117 0.85468 0.93052 0.0
C458 C 0.37673 0.84074 0.9246 0.0
C459 C 0.39117 0.84707 0.90395 0.0
C460 C 0.42244 0.82973 0.91107 0.0
C461 C 0.42687 0.80856 0.91292 0.0
C462 C 0.44575 0.80563 0.92461 0.0
C463 C 0.46084 0.8245 0.93416 0.0
C464 C 0.45687 0.84608 0.93166 0.0
C465 C 0.43764 0.84849 0.92028 0.0
C466 C 0.44951 0.78237 0.92688 0.0
C467 C 0.47302 0.86663 0.94093 0.0
C468 C 0.48681 0.82341 0.04389 0.0
C469 C 0.50635 0.82127 0.05455 0.0
C470 C 0.52428 0.81846 0.04172 0.0
C471 C 0.52276 0.81752 0.01751 0.0
C472 C 0.54045 0.81446 0.00412 0.0
C473 C 0.53897 0.81401 0.98031 0.0
C474 C 0.51971 0.81654 0.96894 0.0
C475 C 0.51813 0.81625 0.94472 0.0
C476 C 0.49882 0.81891 0.93394 0.0
C477 C 0.48079 0.82168 0.94675 0.0
C478 C 0.48198 0.82184 0.97102 0.0
C479 C 0.4641 0.82438 0.98446 0.0
C480 C 0.4656 0.8249 0.00834 0.0
C481 C 0.48496 0.82267 0.01966 0.0
C482 C 0.50307 0.81978 0.00644 0.0
C483 C 0.50157 0.81938 0.98212 0.0
C484 C 0.62022 0.79622 0.92605 0.0
C485 C 0.60505 0.78697 0.90536 0.0
O486 O 0.42713 0.83761 0.11158 0.0
O487 O 0.40369 0.83129 0.89977 0.0
O488 O 0.59341 0.8027 0.89907 0.0
O489 O 0.60043 0.81525 0.09358 0.0
H490 H 0.43635 0.8708 0.12162 0.0
H491 H 0.46588 0.85242 0.13449 0.0
H492 H 0.4469 0.83389 0.1515 0.0
H493 H 0.45384 0.86352 0.15892 0.0
H494 H 0.45625 0.86987 0.09191 0.0
H495 H 0.42692 0.7999 0.09024 0.0
H496 H 0.50281 0.86824 0.06546 0.0
H497 H 0.48279 0.8854 0.06609 0.0
H498 H 0.48587 0.86879 0.04051 0.0
H499 H 0.43832 0.77398 0.06463 0.0
H500 H 0.46773 0.781 0.06232 0.0
H501 H 0.45069 0.78511 0.03866 0.0
H502 H 0.58478 0.79492 0.11814 0.0
H503 H 0.5993 0.82186 0.15068 0.0
H504 H 0.58522 0.83446 0.12954 0.0
H505 H 0.61477 0.84083 0.13104 0.0
H506 H 0.56786 0.78065 0.08336 0.0
H507 H 0.59344 0.85 0.07395 0.0
H508 H 0.52549 0.77287 0.04071 0.0
H509 H 0.51442 0.77782 0.06812 0.0
H510 H 0.53468 0.76096 0.06585 0.0
H511 H 0.57346 0.87238 0.0546 0.0
H512 H 0.54406 0.86295 0.05473 0.0
H513 H 0.5588 0.85728 0.02989 0.0
H514 H 0.59388 0.77156 0.91074 0.0
H515 H 0.55873 0.77057 0.908 0.0
H516 H 0.58467 0.84111 0.90918 0.0
H517 H 0.51963 0.76989 0.94839 0.0
H518 H 0.52433 0.75489 0.92231 0.0
H519 H 0.50483 0.77272 0.92255 0.0
H520 H 0.56472 0.86717 0.92352 0.0
H521 H 0.55142 0.85732 0.94949 0.0
H522 H 0.53532 0.85755 0.92387 0.0
H523 H 0.40176 0.86381 0.90779 0.0
H524 H 0.36638 0.85309 0.9279 0.0
H525 H 0.38716 0.84057 0.94015 0.0
H526 H 0.36598 0.82391 0.92152 0.0
H527 H 0.41522 0.79422 0.9055 0.0
H528 H 0.43499 0.86509 0.91826 0.0
H529 H 0.45255 0.77947 0.94519 0.0
H530 H 0.4643 0.78057 0.91735 0.0
H531 H 0.43539 0.76935 0.92008 0.0
H532 H 0.46853 0.88228 0.93578 0.0
H533 H 0.48967 0.86637 0.93475 0.0
H534 H 0.47375 0.86674 0.95996 0.0
H535 H 0.50775 0.82217 0.07316 0.0
H536 H 0.55569 0.81245 0.01191 0.0
H537 H 0.55319 0.81173 0.97094 0.0
H538 H 0.49778 0.81873 0.91534 0.0
H539 H 0.44876 0.82611 0.97667 0.0
H540 H 0.4514 0.82705 0.01784 0.0
H541 H 0.63023 0.7841 0.93071 0.0
H542 H 0.61029 0.79914 0.94104 0.0
H543 H 0.63129 0.8123 0.92232 0.0
C544 C 0.74262 0.08361 0.62613 0.0
C545 C 0.75374 0.10169 0.61032 0.0
C546 C 0.74839 0.08098 0.57336 0.0
C547 C 0.76962 0.07793 0.56928 0.0
C548 C 0.77304 0.06034 0.5546 0.0
C549 C 0.75483 0.04541 0.54392 0.0
C550 C 0.73344 0.04886 0.54747 0.0
C551 C 0.73055 0.06688 0.56189 0.0
C552 C 0.79612 0.0575 0.5508 0.0
C553 C 0.71363 0.03318 0.53656 0.0
C554 C 0.81109 0.93333 0.61454 0.0
C555 C 0.78727 0.92285 0.60756 0.0
C556 C 0.78022 0.93607 0.57075 0.0
C557 C 0.75845 0.93747 0.56702 0.0
C558 C 0.75329 0.95431 0.55386 0.0
C559 C 0.77041 0.97012 0.54453 0.0
C560 C 0.79248 0.96868 0.54839 0.0
C561 C 0.79709 0.9514 0.56122 0.0
C562 C 0.72962 0.95521 0.54988 0.0
C563 C 0.8112 0.98543 0.53908 0.0
C564 C 0.78395 0.92651 0.39941 0.0
C565 C 0.76238 0.9263 0.40574 0.0
C566 C 0.75691 0.94541 0.41603 0.0
C567 C 0.7735 0.9649 0.42048 0.0
C568 C 0.79513 0.96528 0.41342 0.0
C569 C 0.79996 0.94613 0.4026 0.0
C570 C 0.7335 0.94465 0.42246 0.0
C571 C 0.81325 0.98573 0.41773 0.0
C572 C 0.78315 0.13311 0.39828 0.0
C573 C 0.78108 0.11643 0.37758 0.0
C574 C 0.76453 0.08031 0.39343 0.0
C575 C 0.74528 0.06392 0.39454 0.0
C576 C 0.74447 0.04506 0.40752 0.0
C577 C 0.76349 0.04247 0.41956 0.0
C578 C 0.7831 0.05888 0.41843 0.0
C579 C 0.78339 0.0777 0.40557 0.0
C580 C 0.72328 0.02792 0.40843 0.0
C581 C 0.80382 0.05655 0.43081 0.0
C582 C 0.75813 0.02548 0.5302 0.0
C583 C 0.76139 0.0072 0.54217 0.0
C584 C 0.76534 0.98811 0.53062 0.0
C585 C 0.76558 0.98687 0.50639 0.0
C586 C 0.76913 0.96774 0.49426 0.0
C587 C 0.7701 0.96691 0.47047 0.0
C588 C 0.76729 0.98508 0.4578 0.0
C589 C 0.76857 0.98447 0.43359 0.0
C590 C 0.76644 0.00313 0.42162 0.0
C591 C 0.76312 0.02253 0.43316 0.0
C592 C 0.76122 0.02322 0.45732 0.0
C593 C 0.75749 0.0423 0.46947 0.0
C594 C 0.75636 0.04307 0.49332 0.0
C595 C 0.75886 0.02477 0.50593 0.0
C596 C 0.76248 0.00532 0.494 0.0
C597 C 0.76348 0.00447 0.46967 0.0
C598 C 0.80337 0.88596 0.4162 0.0
C599 C 0.7854 0.88722 0.3985 0.0
O600 O 0.74461 0.09726 0.58831 0.0
O601 O 0.76409 0.09821 0.38058 0.0
O602 O 0.78965 0.90823 0.3896 0.0
O603 O 0.78504 0.92012 0.5839 0.0
H604 H 0.77151 0.10169 0.61014 0.0
H605 H 0.74525 0.06708 0.61987 0.0
H606 H 0.72471 0.08284 0.62652 0.0
H607 H 0.74966 0.0871 0.64386 0.0
H608 H 0.78358 0.08934 0.57739 0.0
H609 H 0.71425 0.06955 0.56496 0.0
H610 H 0.7986 0.04238 0.55926 0.0
H611 H 0.80858 0.07205 0.55788 0.0
H612 H 0.79883 0.05508 0.53217 0.0
H613 H 0.69805 0.03754 0.54195 0.0
H614 H 0.71346 0.01582 0.54119 0.0
H615 H 0.71447 0.03362 0.51759 0.0
H616 H 0.77687 0.93433 0.61406 0.0
H617 H 0.81315 0.93472 0.63355 0.0
H618 H 0.8158 0.95038 0.60808 0.0
H619 H 0.82229 0.92313 0.60734 0.0
H620 H 0.74556 0.92538 0.5745 0.0
H621 H 0.81387 0.95 0.56418 0.0
H622 H 0.72603 0.95546 0.5312 0.0
H623 H 0.72651 0.97084 0.55809 0.0
H624 H 0.71822 0.94081 0.55697 0.0
H625 H 0.82737 0.98343 0.54575 0.0
H626 H 0.80936 0.00266 0.54362 0.0
H627 H 0.81096 0.98338 0.52007 0.0
H628 H 0.7694 0.88401 0.40721 0.0
H629 H 0.74979 0.91132 0.40239 0.0
H630 H 0.81647 0.94616 0.39722 0.0
H631 H 0.73219 0.94427 0.4414 0.0
H632 H 0.72207 0.92971 0.41461 0.0
H633 H 0.7283 0.95984 0.417 0.0
H634 H 0.82953 0.98264 0.41306 0.0
H635 H 0.81391 0.99147 0.43611 0.0
H636 H 0.80988 -0.00056 0.40745 0.0
H637 H 0.79675 0.11081 0.3758 0.0
H638 H 0.79656 0.14784 0.39574 0.0
H639 H 0.78702 0.1253 0.41417 0.0
H640 H 0.76759 0.13878 0.40073 0.0
H641 H 0.73079 0.06601 0.38521 0.0
H642 H 0.79845 0.09017 0.40519 0.0
H643 H 0.71879 0.02515 0.42658 0.0
H644 H 0.72546 0.01178 0.40057 0.0
H645 H 0.70958 0.03301 0.39925 0.0
H646 H 0.81817 0.06971 0.42659 0.0
H647 H 0.80745 0.03999 0.42634 0.0
H648 H 0.80153 0.05758 0.44963 0.0
H649 H 0.76128 0.00803 0.56079 0.0
H650 H 0.77136 0.95321 0.50304 0.0
H651 H 0.7732 0.95183 0.46217 0.0
H652 H 0.76801 0.00277 0.40311 0.0
H653 H 0.75548 0.05689 0.46067 0.0
H654 H 0.75363 0.05825 0.50177 0.0
H655 H 0.81965 0.88901 0.40812 0.0
H656 H 0.80017 0.86931 0.42372 0.0
H657 H 0.80374 0.89877 0.43035 0.0
C658 C 0.47853 0.40549 0.15719 0.0
C659 C 0.45927 0.40996 0.14288 0.0
C660 C 0.46902 0.39579 0.10532 0.0
C661 C 0.48466 0.41479 0.0998 0.0
C662 C 0.49919 0.41374 0.08192 0.0
C663 C 0.49828 0.39323 0.06953 0.0
C664 C 0.48212 0.37425 0.07458 0.0
C665 C 0.46746 0.37591 0.0922 0.0
C666 C 0.51589 0.43444 0.07664 0.0
C667 C 0.48084 0.35203 0.06191 0.0
C668 C 0.63908 0.40444 0.13375 0.0
C669 C 0.62945 0.38234 0.12056 0.0
C670 C 0.61237 0.38534 0.08379 0.0
C671 C 0.59567 0.36614 0.08123 0.0
C672 C 0.57661 0.36614 0.06821 0.0
C673 C 0.57412 0.38598 0.05802 0.0
C674 C 0.59125 0.40531 0.06032 0.0
C675 C 0.61042 0.40454 0.0728 0.0
C676 C 0.55892 0.34512 0.06586 0.0
C677 C 0.58901 0.427 0.05041 0.0
C678 C 0.59093 0.38364 0.90392 0.0
C679 C 0.57751 0.36447 0.91197 0.0
C680 C 0.56056 0.36609 0.92702 0.0
C681 C 0.55732 0.38742 0.9343 0.0
C682 C 0.57078 0.40681 0.92587 0.0
C683 C 0.58735 0.40465 0.91054 0.0
C684 C 0.54622 0.34506 0.93525 0.0
C685 C 0.5678 0.42979 0.93325 0.0
C686 C 0.40749 0.4357 0.94072 0.0
C687 C 0.41622 0.42941 0.91751 0.0
C688 C 0.44317 0.40717 0.92777 0.0
C689 C 0.4467 0.3855 0.92814 0.0
C690 C 0.46617 0.3813 0.93741 0.0
C691 C 0.4826 0.39933 0.94638 0.0
C692 C 0.47934 0.42138 0.94576 0.0
C693 C 0.4596 0.42508 0.93662 0.0
C694 C 0.4691 0.35759 0.93784 0.0
C695 C 0.49668 0.44102 0.9549 0.0
C696 C 0.51542 0.39124 0.05275 0.0
C697 C 0.53568 0.38894 0.06148 0.0
C698 C 0.55285 0.38715 0.047 0.0
C699 C 0.54969 0.38728 0.02295 0.0
C700 C 0.56637 0.38489 0.0078 0.0
C701 C 0.56327 0.38564 0.98419 0.0
C702 C 0.54327 0.38856 0.97481 0.0
C703 C 0.53998 0.38948 0.95084 0.0
C704 C 0.52002 0.39279 0.94215 0.0
C705 C 0.50308 0.39513 0.95675 0.0
C706 C 0.50591 0.39391 0.98073 0.0
C707 C 0.48908 0.39587 -0.00412 0.0
C708 C 0.49213 0.39501 0.01948 0.0
C709 C 0.5121 0.39203 0.02881 0.0
C710 C 0.52929 0.38995 0.01385 0.0
C711 C 0.52613 0.39074 -0.01022 0.0
C712 C 0.64289 0.40421 0.89966 0.0
C713 C 0.62814 0.3808 0.89791 0.0
O714 O 0.45549 0.39577 0.12336 0.0
O715 O 0.42371 0.40983 0.91885 0.0
O716 O 0.60747 0.38186 0.8898 0.0
O717 O 0.63029 0.38575 0.09723 0.0
H718 H 0.46303 0.42758 0.13786 0.0
H719 H 0.49379 0.4089 0.14729 0.0
H720 H 0.47521 0.38782 0.16204 0.0
H721 H 0.48131 0.41654 0.17306 0.0
H722 H 0.48581 0.43046 0.1094 0.0
H723 H 0.45522 0.36141 0.09646 0.0
H724 H 0.53241 0.4326 0.0823 0.0
H725 H 0.51247 0.44969 0.08545 0.0
H726 H 0.51624 0.43667 0.05785 0.0
H727 H 0.46787 0.33867 0.06852 0.0
H728 H 0.49682 0.34703 0.06346 0.0
H729 H 0.47742 0.3535 0.04338 0.0
H730 H 0.61214 0.3768 0.12585 0.0
H731 H 0.63817 0.40234 0.15256 0.0
H732 H 0.62963 0.41711 0.12933 0.0
H733 H 0.65645 0.41067 0.12926 0.0
H734 H 0.59754 0.35124 0.08959 0.0
H735 H 0.62357 0.41924 0.07492 0.0
H736 H 0.55258 0.34211 0.04784 0.0
H737 H 0.54506 0.34705 0.07686 0.0
H738 H 0.56489 0.3303 0.07117 0.0
H739 H 0.60265 0.44107 0.05612 0.0
H740 H 0.57329 0.43122 0.0555 0.0
H741 H 0.58888 0.42528 0.0314 0.0
H742 H 0.62701 0.37412 0.91543 0.0
H743 H 0.58042 0.3483 0.90651 0.0
H744 H 0.59775 0.41933 0.90393 0.0
H745 H 0.54902 0.34413 0.95398 0.0
H746 H 0.5496 0.32982 0.92641 0.0
H747 H 0.52869 0.34536 0.93239 0.0
H748 H 0.58055 0.4432 0.92635 0.0
H749 H 0.56833 0.43181 0.95228 0.0
H750 H 0.55148 0.43187 0.92716 0.0
H751 H 0.42977 0.44314 0.91253 0.0
H752 H 0.40127 0.45125 0.93959 0.0
H753 H 0.42073 0.43864 0.95412 0.0
H754 H 0.39401 0.42211 0.94607 0.0
H755 H 0.43398 0.37179 0.92126 0.0
H756 H 0.45722 0.44198 0.9366 0.0
H757 H 0.47272 0.35363 0.95569 0.0
H758 H 0.48329 0.3557 0.92733 0.0
H759 H 0.45436 0.34534 0.93111 0.0
H760 H 0.49248 0.45723 0.95135 0.0
H761 H 0.51267 0.44047 0.94715 0.0
H762 H 0.49872 0.44012 0.97375 0.0
H763 H 0.53822 0.38881 0.07993 0.0
H764 H 0.58206 0.38252 0.01406 0.0
H765 H 0.57678 0.38394 0.97338 0.0
H766 H 0.51771 0.39371 0.92377 0.0
H767 H 0.47334 0.39815 0.98968 0.0
H768 H 0.47866 0.39676 0.03033 0.0
H769 H 0.64368 0.41201 0.88279 0.0
H770 H 0.65972 0.40342 0.90542 0.0
H771 H 0.63641 0.41492 0.91242 0.0
H772 H 0.22441 0.42972 0.27028 0.0
H773 H 0.24396 0.42013 0.20047 0.0
H774 H 0.19329 0.44389 0.25606 0.0
H775 H 0.21356 0.43483 0.18645 0.0
H776 H 0.14278 0.44764 0.15431 0.0
H777 H 0.17806 0.4296 0.17228 0.0
H778 H 0.1815 0.47683 0.24539 0.0
H779 H 0.14601 0.49599 0.22912 0.0
C780 C 0.22204 0.43058 0.25193 0.0
C781 C 0.23666 0.4238 0.23651 0.0
C782 C 0.20431 0.43885 0.24379 0.0
C783 C 0.2009 0.44046 0.22012 0.0
C784 C 0.21534 0.43339 0.20476 0.0
C785 C 0.23297 0.42511 0.21284 0.0
C786 C 0.15067 0.45384 0.17066 0.0
C787 C 0.13808 0.47072 0.19156 0.0
C788 C 0.172 0.44194 0.18255 0.0
C789 C 0.18284 0.45006 0.21139 0.0
C790 C 0.17387 0.47143 0.22875 0.0
C791 C 0.15256 0.48433 0.21835 0.0
H792 H 0.23132 0.75207 0.76759 0.0
H793 H 0.18573 0.78852 0.73995 0.0
H794 H 0.20099 0.72434 0.78104 0.0
H795 H 0.15515 0.7604 0.75334 0.0
H796 H 0.11233 0.72063 0.81008 0.0
H797 H 0.14013 0.74787 0.79137 0.0
H798 H 0.17027 0.69481 0.7662 0.0
H799 H 0.14263 0.66771 0.78502 0.0
C800 C 0.21479 0.75406 0.76417 0.0
C801 C 0.21095 0.77252 0.75269 0.0
C802 C 0.19738 0.73806 0.77177 0.0
C803 C 0.17566 0.74012 0.76816 0.0
C804 C 0.17173 0.75845 0.75648 0.0
C805 C 0.18922 0.77447 0.74871 0.0
C806 C 0.12464 0.7148 0.80013 0.0
C807 C 0.12516 0.69202 0.79872 0.0
C808 C 0.14052 0.73036 0.7894 0.0
C809 C 0.1574 0.72348 0.77736 0.0
C810 C 0.15758 0.70064 0.77552 0.0
C811 C 0.14168 0.68511 0.78614 0.0
H812 H 0.84377 0.71286 0.21068 0.0
H813 H 0.80409 0.65512 0.24037 0.0
H814 H 0.86998 0.69067 0.19865 0.0
H815 H 0.82965 0.63275 0.22758 0.0
H816 H 0.88517 0.59911 0.21553 0.0
H817 H 0.86461 0.62501 0.23241 0.0
H818 H 0.87296 0.66233 0.17088 0.0
H819 H 0.89446 0.63698 0.15461 0.0
C820 C 0.84067 0.69544 0.21468 0.0
C821 C 0.82182 0.68573 0.22643 0.0
C822 C 0.85563 0.68266 0.20765 0.0
C823 C 0.85196 0.65983 0.21201 0.0
C824 C 0.8333 0.65033 0.22423 0.0
C825 C 0.81851 0.66315 0.23146 0.0
C826 C 0.88284 0.61304 0.20579 0.0
C827 C 0.89118 0.61588 0.18366 0.0
C828 C 0.8709 0.62781 0.21536 0.0
C829 C 0.86678 0.64564 0.20291 0.0
C830 C 0.87591 0.64895 0.1811 0.0
C831 C 0.88808 0.63432 0.17165 0.0
H832 H 0.7842 0.35227 0.70989 0.0
H833 H 0.80493 0.31536 0.76425 0.0
H834 H 0.81323 0.38429 0.72121 0.0
H835 H 0.83448 0.34709 0.77502 0.0
H836 H 0.86959 0.41793 0.81972 0.0
H837 H 0.83985 0.37876 0.80021 0.0
H838 H 0.84719 0.40926 0.72152 0.0
H839 H 0.87671 0.44954 0.73934 0.0
C840 C 0.79533 0.35077 0.72385 0.0
C841 C 0.79204 0.33136 0.73637 0.0
C842 C 0.81209 0.36916 0.73033 0.0
C843 C 0.82596 0.36843 0.74933 0.0
C844 C 0.82366 0.34847 0.76076 0.0
C845 C 0.80683 0.33016 0.75442 0.0
C846 C 0.86469 0.4167 0.80176 0.0
C847 C 0.87937 0.43606 0.78079 0.0
C848 C 0.8472 0.39179 0.78914 0.0
C849 C 0.8414 0.38879 0.75848 0.0
C850 C 0.85158 0.41114 0.73961 0.0
C851 C 0.86923 0.43675 0.75065 0.0
H852 H 0.34099 0.34308 0.3399 0.0
H853 H 0.27585 0.30185 0.33248 0.0
H854 H 0.35103 0.31757 0.36667 0.0
H855 H 0.28518 0.27707 0.3606 0.0
H856 H 0.31283 0.22475 0.39509 0.0
H857 H 0.3038 0.24966 0.36732 0.0
H858 H 0.34791 0.30518 0.40305 0.0
H859 H 0.35837 0.27976 0.42964 0.0
C860 C 0.32871 0.32869 0.34434 0.0
C861 C 0.30767 0.3244 0.33414 0.0
C862 C 0.33439 0.31408 0.35986 0.0
C863 C 0.31896 0.29512 0.36604 0.0
C864 C 0.29774 0.29113 0.35599 0.0
C865 C 0.29226 0.30544 0.33999 0.0
C866 C 0.32084 0.24221 0.39692 0.0
C867 C 0.33649 0.25023 0.41463 0.0
C868 C 0.3154 0.25666 0.38107 0.0
C869 C 0.32499 0.27962 0.3828 0.0
C870 C 0.34045 0.28761 0.4007 0.0
C871 C 0.3463 0.27308 0.41618 0.0
H872 H 0.29301 0.87731 0.81082 0.0
H873 H 0.32039 0.82912 0.77142 0.0
H874 H 0.31875 0.87637 0.84232 0.0
H875 H 0.3464 0.8285 0.80286 0.0
H876 H 0.36869 0.8127 0.87505 0.0
H877 H 0.34495 0.81496 0.84198 0.0
H878 H 0.35761 0.88661 0.85302 0.0
H879 H 0.38112 0.88427 0.88624 0.0
C880 C 0.30468 0.86671 0.80875 0.0
C881 C 0.30457 0.85322 0.78862 0.0
C882 C 0.3195 0.86625 0.82679 0.0
C883 C 0.33455 0.85229 0.82512 0.0
C884 C 0.33479 0.83919 0.80479 0.0
C885 C 0.31998 0.83967 0.78672 0.0
C886 C 0.36657 0.82893 0.87021 0.0
C887 C 0.37709 0.84836 0.88293 0.0
C888 C 0.35304 0.83024 0.85126 0.0
C889 C 0.34952 0.85098 0.84479 0.0
C890 C 0.35991 0.87038 0.85763 0.0
C891 C 0.37348 0.86907 0.87654 0.0
H892 H 0.78543 0.76417 0.31572 0.0
H893 H 0.76825 0.81065 0.26894 0.0
H894 H 0.78944 0.79284 0.34706 0.0
H895 H 0.77228 0.83899 0.30007 0.0
H896 H 0.80484 0.89069 0.35597 0.0
H897 H 0.80305 0.86154 0.3258 0.0
H898 H 0.76358 0.81385 0.36849 0.0
H899 H 0.765 0.84321 0.39869 0.0
C900 C 0.78267 0.78049 0.31208 0.0
C901 C 0.77656 0.78512 0.28982 0.0
C902 C 0.78484 0.79682 0.33003 0.0
C903 C 0.78122 0.81813 0.32594 0.0
C904 C 0.77542 0.8228 0.30365 0.0
C905 C 0.77304 0.80649 0.28584 0.0
C906 C 0.79556 0.87408 0.35888 0.0
C907 C 0.78448 0.86938 0.37949 0.0
C908 C 0.79463 0.85737 0.34162 0.0
C909 C 0.78308 0.83549 0.34478 0.0
C910 C 0.77265 0.83057 0.36565 0.0
C911 C 0.7733 0.84736 0.3828 0.0
H912 H 0.72482 0.31922 0.83442 0.0
H913 H 0.67024 0.29967 0.78606 0.0
H914 H 0.70245 0.33692 0.85973 0.0
H915 H 0.64762 0.31722 0.81176 0.0
H916 H 0.62707 0.37764 0.85056 0.0
H917 H 0.64607 0.35563 0.82531 0.0
H918 H 0.67115 0.32851 0.88458 0.0
H919 H 0.6524 0.35073 0.90973 0.0
C920 C 0.70795 0.31847 0.82929 0.0
C921 C 0.69934 0.30806 0.80818 0.0
C922 C 0.69507 0.32852 0.8439 0.0
C923 C 0.67324 0.32846 0.83779 0.0
C924 C 0.66445 0.31772 0.81685 0.0
C925 C 0.67736 0.30755 0.80221 0.0
C926 C 0.63634 0.36666 0.85811 0.0
C927 C 0.63801 0.36564 0.88209 0.0
C928 C 0.64717 0.35402 0.84368 0.0
C929 C 0.66011 0.34031 0.85294 0.0
C930 C 0.66147 0.33905 0.87692 0.0
C931 C 0.65061 0.35163 0.89131 0.0
H932 H 0.28719 0.9047 0.67731 0.0
H933 H 0.26772 0.94734 0.73028 0.0
H934 H 0.30744 0.9375 0.65893 0.0
H935 H 0.2885 0.97995 0.7125 0.0
H936 H 0.31501 0.03674 0.66889 0.0
H937 H 0.29062 0.00291 0.68082 0.0
H938 H 0.34012 0.96547 0.66507 0.0
H939 H 0.36405 -0.00076 0.65214 0.0
C940 C 0.28717 0.92107 0.68499 0.0
C941 C 0.27588 0.92341 0.70528 0.0
C942 C 0.2989 0.93988 0.67453 0.0
C943 C 0.2997 0.96143 0.68422 0.0
C944 C 0.28799 0.9637 0.70427 0.0
C945 C 0.27615 0.94494 0.7146 0.0
C946 C 0.32052 0.0212 0.66769 0.0
C947 C 0.34151 0.02065 0.65984 0.0
C948 C 0.30662 0.00182 0.6747 0.0
C949 C 0.31348 0.98146 0.67426 0.0
C950 C 0.33418 0.98077 0.6655 0.0
C951 C 0.34799 0.00013 0.65825 0.0
H952 H 0.72908 0.80232 0.16132 0.0
H953 H 0.69419 0.73439 0.16898 0.0
H954 H 0.69752 0.81018 0.14143 0.0
H955 H 0.66267 0.74204 0.14815 0.0
H956 H 0.60288 0.77544 0.14524 0.0
H957 H 0.63529 0.76245 0.15714 0.0
H958 H 0.67373 0.80506 0.10898 0.0
H959 H 0.64148 0.81879 0.09799 0.0
C960 C 0.71483 0.78888 0.15828 0.0
C961 C 0.71405 0.76782 0.16704 0.0
C962 C 0.69671 0.79336 0.14668 0.0
C963 C 0.6774 0.77681 0.14335 0.0
C964 C 0.67711 0.7553 0.15083 0.0
C965 C 0.69524 0.75086 0.16262 0.0
C966 C 0.61821 0.78171 0.13696 0.0
C967 C 0.61956 0.79789 0.1205 0.0
C968 C 0.63678 0.77417 0.14364 0.0
C969 C 0.65719 0.78267 0.13401 0.0
C970 C 0.65836 0.79834 0.11696 0.0
C971 C 0.63982 0.80606 0.11048 0.0
H972 H 0.7465 0.21236 0.70526 0.0
H973 H 0.72573 0.23389 0.64065 0.0
H974 H 0.75192 0.17797 0.68604 0.0
H975 H 0.73126 0.19945 0.62143 0.0
H976 H 0.71958 0.12299 0.60322 0.0
H977 H 0.71476 0.15839 0.62095 0.0
H978 H 0.7767 0.16605 0.65755 0.0
H979 H 0.78151 0.13072 0.63981 0.0
C980 C 0.74313 0.20979 0.68695 0.0
C981 C 0.73569 0.22589 0.67449 0.0
C982 C 0.74636 0.19013 0.67592 0.0
C983 C 0.74206 0.18603 0.65221 0.0
C984 C 0.73454 0.20207 0.63975 0.0
C985 C 0.73149 0.22184 0.65075 0.0
C986 C 0.73233 0.13245 0.61473 0.0
C987 C 0.75119 0.12435 0.61972 0.0
C988 C 0.72956 0.15269 0.6249 0.0
C989 C 0.74537 0.16502 0.64061 0.0
C990 C 0.76417 0.15687 0.64563 0.0
C991 C 0.76702 0.13676 0.63533 0.0
H992 H 0.34673 0.42649 0.22269 0.0
H993 H 0.3543 0.3601 0.2368 0.0
H994 H 0.37698 0.43046 0.19654 0.0
H995 H 0.38525 0.3644 0.21121 0.0
H996 H 0.42722 0.37159 0.1476 0.0
H997 H 0.39544 0.3667 0.17208 0.0
H998 H 0.41551 0.43551 0.19711 0.0
H999 H 0.4466 0.44056 0.17182 0.0
C1000 C 0.35498 0.41279 0.22036 0.0
C1001 C 0.34816 0.39301 0.23191 0.0
C1002 C 0.37244 0.41511 0.20542 0.0
C1003 C 0.38371 0.39782 0.20184 0.0
C1004 C 0.37679 0.37796 0.21331 0.0
C1005 C 0.35914 0.37554 0.22811 0.0
C1006 C 0.42457 0.38575 0.15803 0.0
C1007 C 0.43903 0.40668 0.15729 0.0
C1008 C 0.40652 0.38289 0.1723 0.0
C1009 C 0.40278 0.40075 0.18648 0.0
C1010 C 0.41752 0.42152 0.18602 0.0
C1011 C 0.43539 0.42444 0.1716 0.0
H1012 H 0.79437 0.72246 0.75641 0.0
H1013 H 0.77437 0.67162 0.70212 0.0
H1014 H 0.82279 0.70372 0.76892 0.0
H1015 H 0.8023 0.65246 0.71507 0.0
H1016 H 0.86655 0.63288 0.73167 0.0
H1017 H 0.84075 0.65422 0.71765 0.0
H1018 H 0.82621 0.6709 0.78764 0.0
H1019 H 0.85259 0.65025 0.80151 0.0
C1020 C 0.79601 0.70725 0.74717 0.0
C1021 C 0.78207 0.69851 0.7283 0.0
C1022 C 0.81223 0.69642 0.75443 0.0
C1023 C 0.81482 0.67649 0.74309 0.0
C1024 C 0.80102 0.66792 0.72402 0.0
C1025 C 0.78489 0.67884 0.71668 0.0
C1026 C 0.85812 0.64147 0.74402 0.0
C1027 C 0.862 0.64038 0.76771 0.0
C1028 C 0.84314 0.65349 0.73601 0.0
C1029 C 0.83142 0.66439 0.7515 0.0
C1030 C 0.83526 0.66315 0.77519 0.0
C1031 C 0.85032 0.65126 0.78317 0.0
H1032 H 0.81223 0.3149 0.23403 0.0
H1033 H 0.82733 0.27504 0.1761 0.0
H1034 H 0.84321 0.34464 0.22561 0.0
H1035 H 0.85786 0.30506 0.1672 0.0
H1036 H 0.91963 0.35894 0.1636 0.0
H1037 H 0.89324 0.32731 0.17759 0.0
H1038 H 0.85054 0.37142 0.1969 0.0
H1039 H 0.87727 0.40297 0.18373 0.0
C1040 C 0.82229 0.31238 0.21963 0.0
C1041 C 0.81717 0.29266 0.20562 0.0
C1042 C 0.83996 0.32952 0.21468 0.0
C1043 C 0.85284 0.32744 0.19549 0.0
C1044 C 0.84842 0.30722 0.18221 0.0
C1045 C 0.83083 0.29 0.18727 0.0
C1046 C 0.90469 0.36183 0.17109 0.0
C1047 C 0.90054 0.38342 0.17269 0.0
C1048 C 0.88951 0.34372 0.17897 0.0
C1049 C 0.86976 0.34678 0.18844 0.0
C1050 C 0.86574 0.36845 0.19016 0.0
C1051 C 0.88096 0.38653 0.18243 0.0
H1052 H 0.20719 0.42972 0.75276 0.0
H1053 H 0.18888 0.38606 0.80847 0.0
H1054 H 0.17882 0.44971 0.76324 0.0
H1055 H 0.16117 0.40656 0.81958 0.0
H1056 H 0.10073 0.43565 0.82315 0.0
H1057 H 0.12692 0.41414 0.80953 0.0
H1058 H 0.17099 0.4751 0.7918 0.0
H1059 H 0.14425 0.49636 0.80438 0.0
C1060 C 0.19713 0.42443 0.76728 0.0
C1061 C 0.20029 0.40632 0.77979 0.0
C1062 C 0.18095 0.43599 0.77341 0.0
C1063 C 0.16771 0.42988 0.79236 0.0
C1064 C 0.17077 0.41157 0.80468 0.0
C1065 C 0.18678 0.39987 0.79839 0.0
C1066 C 0.11597 0.4444 0.8162 0.0
C1067 C 0.12049 0.4677 0.81493 0.0
C1068 C 0.13108 0.4321 0.80854 0.0
C1069 C 0.15118 0.44284 0.79963 0.0
C1070 C 0.15558 0.46618 0.79822 0.0
C1071 C 0.14037 0.47843 0.80564 0.0
H1072 H 0.24745 0.76953 0.22065 0.0
H1073 H 0.19494 0.7961 0.25032 0.0
H1074 H 0.22265 0.73341 0.21386 0.0
H1075 H 0.17 0.75966 0.24342 0.0
H1076 H 0.14036 0.68275 0.24637 0.0
H1077 H 0.16446 0.71922 0.25568 0.0
H1078 H 0.19016 0.71936 0.18741 0.0
H1079 H 0.16605 0.68312 0.17808 0.0
C1080 C 0.23063 0.76766 0.22585 0.0
C1081 C 0.22314 0.78576 0.23589 0.0
C1082 C 0.2164 0.74697 0.22184 0.0
C1083 C 0.19436 0.7438 0.2279 0.0
C1084 C 0.18695 0.76165 0.23864 0.0
C1085 C 0.20119 0.78249 0.2425 0.0
C1086 C 0.15093 0.69075 0.23327 0.0
C1087 C 0.15097 0.68033 0.21128 0.0
C1088 C 0.16471 0.71158 0.23861 0.0
C1089 C 0.17914 0.7221 0.22226 0.0
C1090 C 0.17931 0.71158 0.2004 0.0
C1091 C 0.16541 0.69093 0.195 0.0
H1092 H 0.76525 0.82463 0.70985 0.0
H1093 H 0.74877 0.78337 0.64739 0.0
H1094 H 0.77406 0.8576 0.68755 0.0
H1095 H 0.75742 0.81675 0.62495 0.0
H1096 H 0.79718 0.88248 0.59464 0.0
H1097 H 0.78841 0.84751 0.61454 0.0
H1098 H 0.75308 0.87858 0.66485 0.0
H1099 H 0.76213 0.91343 0.64523 0.0
C1100 C 0.76356 0.82255 0.69133 0.0
C1101 C 0.75613 0.80134 0.68043 0.0
C1102 C 0.76848 0.84152 0.67855 0.0
C1103 C 0.7661 0.83982 0.65452 0.0
C1104 C 0.75943 0.81856 0.64346 0.0
C1105 C 0.75446 0.79947 0.65631 0.0
C1106 C 0.78729 0.88165 0.60978 0.0
C1107 C 0.78016 0.90059 0.6183 0.0
C1108 C 0.78226 0.86167 0.62113 0.0
C1109 C 0.7702 0.86035 0.64134 0.0
C1110 C 0.76269 0.87917 0.64951 0.0
C1111 C 0.7677 0.89907 0.63819 0.0
H1112 H 0.73752 0.32431 0.15865 0.0
H1113 H 0.6824 0.27699 0.18349 0.0
H1114 H 0.71278 0.34444 0.14106 0.0
H1115 H 0.65739 0.29674 0.16496 0.0
H1116 H 0.62308 0.35565 0.15696 0.0
H1117 H 0.64558 0.33076 0.1704 0.0
H1118 H 0.68677 0.34492 0.11171 0.0
H1119 H 0.66487 0.37065 0.09903 0.0
C1120 C 0.72006 0.31796 0.16004 0.0
C1121 C 0.71194 0.29913 0.17265 0.0
C1122 C 0.70581 0.32945 0.14975 0.0
C1123 C 0.68301 0.32229 0.15156 0.0
C1124 C 0.67485 0.30296 0.16352 0.0
C1125 C 0.68917 0.29155 0.17403 0.0
C1126 C 0.63677 0.35313 0.1468 0.0
C1127 C 0.64201 0.36487 0.12682 0.0
C1128 C 0.64962 0.33878 0.1544 0.0
C1129 C 0.66805 0.33577 0.14217 0.0
C1130 C 0.6729 0.34704 0.12177 0.0
C1131 C 0.66019 0.36162 0.11433 0.0
H1132 H 0.30027 0.31087 0.74733 0.0
H1133 H 0.28245 0.3357 0.68318 0.0
H1134 H 0.30828 0.27838 0.72679 0.0
H1135 H 0.29063 0.30298 0.66255 0.0
H1136 H 0.28752 0.22788 0.63981 0.0
H1137 H 0.27769 0.26075 0.65847 0.0
H1138 H 0.33724 0.27246 0.69996 0.0
H1139 H 0.34702 0.23974 0.68136 0.0
C1140 C 0.29794 0.30936 0.72884 0.0
C1141 C 0.29086 0.32597 0.71688 0.0
C1142 C 0.30267 0.29078 0.71707 0.0
C1143 C 0.30034 0.28829 0.69305 0.0
C1144 C 0.29253 0.30447 0.68108 0.0
C1145 C 0.28789 0.3232 0.69288 0.0
C1146 C 0.29866 0.23774 0.65263 0.0
C1147 C 0.31827 0.23154 0.65882 0.0
C1148 C 0.29303 0.25651 0.66331 0.0
C1149 C 0.30668 0.26911 0.68069 0.0
C1150 C 0.3263 0.26294 0.68677 0.0
C1151 C 0.332 0.24435 0.676 0.0
H1152 H 0.31315 0.87811 0.19342 0.0
H1153 H 0.33649 0.83287 0.2373 0.0
H1154 H 0.34338 0.87718 0.16774 0.0
H1155 H 0.36676 0.83206 0.21163 0.0
H1156 H 0.40388 0.81811 0.14676 0.0
H1157 H 0.3727 0.8183 0.17161 0.0
H1158 H 0.38397 0.88996 0.16892 0.0
H1159 H 0.41495 0.88973 0.14411 0.0
C1160 C 0.32477 0.86805 0.19765 0.0
C1161 C 0.32245 0.85563 0.21745 0.0
C1162 C 0.34211 0.86756 0.18297 0.0
C1163 C 0.35739 0.85451 0.18766 0.0
C1164 C 0.35509 0.84208 0.20744 0.0
C1165 C 0.33786 0.84272 0.22224 0.0
C1166 C 0.39949 0.83383 0.15132 0.0
C1167 C 0.4116 0.85387 0.14321 0.0
C1168 C 0.3818 0.83397 0.16566 0.0
C1169 C 0.37588 0.85415 0.17214 0.0
C1170 C 0.38794 0.87413 0.16394 0.0
C1171 C 0.40567 0.874 0.14976 0.0
H1172 H 0.78063 0.16744 0.23994 0.0
H1173 H 0.74623 0.20816 0.28137 0.0
H1174 H 0.78424 0.14536 0.27292 0.0
H1175 H 0.75003 0.18614 0.31441 0.0
H1176 H 0.74314 0.12807 0.36274 0.0
H1177 H 0.73744 0.14817 0.32863 0.0
H1178 H 0.80454 0.15109 0.31008 0.0
H1179 H 0.81013 0.13096 0.34397 0.0
C1180 C 0.7738 0.17167 0.25606 0.0
C1181 C 0.7632 0.18961 0.25803 0.0
C1182 C 0.77596 0.15906 0.27499 0.0
C1183 C 0.76746 0.16402 0.29629 0.0
C1184 C 0.75656 0.18176 0.29818 0.0
C1185 C 0.75451 0.19446 0.27927 0.0
C1186 C 0.75655 0.13283 0.3512 0.0
C1187 C 0.77698 0.12766 0.35584 0.0
C1188 C 0.75336 0.14446 0.33179 0.0
C1189 C 0.77053 0.15115 0.31661 0.0
C1190 C 0.79089 0.14587 0.32122 0.0
C1191 C 0.79411 0.13438 0.34066 0.0
H1192 H 0.34086 0.42688 0.79039 0.0
H1193 H 0.29411 0.39044 0.83621 0.0
H1194 H 0.36832 0.43473 0.82145 0.0
H1195 H 0.3214 0.3988 0.8674 0.0
H1196 H 0.38317 0.39245 0.90757 0.0
H1197 H 0.35442 0.38731 0.87787 0.0
H1198 H 0.37884 0.45482 0.85782 0.0
H1199 H 0.40804 0.45962 0.88715 0.0
C1200 C 0.33632 0.42084 0.80717 0.0
C1201 C 0.31533 0.40789 0.81075 0.0
C1202 C 0.35206 0.42543 0.82503 0.0
C1203 C 0.34713 0.41724 0.84689 0.0
C1204 C 0.32587 0.40499 0.85066 0.0
C1205 C 0.31017 0.40034 0.8328 0.0
C1206 C 0.38248 0.4061 0.89667 0.0
C1207 C 0.3982 0.42623 0.89924 0.0
C1208 C 0.36586 0.40328 0.87983 0.0
C1209 C 0.36436 0.42063 0.86537 0.0
C1210 C 0.37975 0.44098 0.86837 0.0
C1211 C 0.39644 0.44376 0.88517 0.0
H1212 H 0.30461 0.87797 0.35631 0.0
H1213 H 0.2949 0.92708 0.30873 0.0
H1214 H 0.32021 0.90771 0.38468 0.0
H1215 H 0.31051 0.95688 0.33726 0.0
H1216 H 0.36618 0.00047 0.38503 0.0
H1217 H 0.34748 0.97241 0.35618 0.0
H1218 H 0.30873 0.93726 0.40908 0.0
H1219 H 0.32742 0.96533 0.43787 0.0
C1220 C 0.30571 0.89511 0.35194 0.0
C1221 C 0.29852 0.90015 0.33026 0.0
C1222 C 0.31453 0.91215 0.36825 0.0
C1223 C 0.31654 0.93463 0.36321 0.0
C1224 C 0.30929 0.93971 0.34156 0.0
C1225 C 0.30026 0.92264 0.32529 0.0
C1226 C 0.35335 0.987 0.39038 0.0
C1227 C 0.34796 0.9853 0.41365 0.0
C1228 C 0.34266 0.97094 0.37389 0.0
C1229 C 0.32665 0.95263 0.38038 0.0
C1230 C 0.32111 0.95109 0.40359 0.0
C1231 C 0.33166 0.96723 0.42003 0.0
H1232 H 0.70893 0.77489 0.81166 0.0
H1233 H 0.6508 0.73487 0.77766 0.0
H1234 H 0.68707 0.78303 0.84388 0.0
H1235 H 0.62897 0.743 0.81007 0.0
H1236 H 0.60372 0.74562 0.88473 0.0
H1237 H 0.62528 0.73583 0.85279 0.0
H1238 H 0.65718 0.80515 0.8488 0.0
H1239 H 0.63543 0.815 0.88056 0.0
C1240 C 0.69154 0.76763 0.81115 0.0
C1241 C 0.68159 0.75427 0.79206 0.0
C1242 C 0.67901 0.77245 0.82953 0.0
C1243 C 0.65632 0.76379 0.82936 0.0
C1244 C 0.64645 0.74983 0.81066 0.0
C1245 C 0.65894 0.74522 0.79211 0.0
C1246 C 0.61529 0.75876 0.87697 0.0
C1247 C 0.61802 0.78106 0.88523 0.0
C1248 C 0.62756 0.75316 0.85868 0.0
C1249 C 0.64298 0.76971 0.84846 0.0
C1250 C 0.64562 0.79203 0.8566 0.0
C1251 C 0.63316 0.79766 0.8747 0.0
loop_
_geom_bond_atom_site_label_1
_geom_bond_atom_site_label_2
_geom_bond_distance
_geom_bond_site_symmetry_2
_ccdc_geom_bond_type
O0 Cd1 2.300 . S
O0 C7 1.275 . S
Cd1 O0 2.300 . S
Cd1 O9 2.381 . S
Cd1 O10 2.378 . S
O2 Cd3 2.385 . S
O2 C7 1.255 . S
Cd3 O2 2.385 . S
Cd3 O4 2.317 . S
O4 Cd3 2.317 . S
O4 C5 1.232 . S
C5 O4 1.232 . S
C5 O6 1.218 . S
O6 C5 1.218 . S
C7 O0 1.275 . S
C7 O2 1.255 . S
C8 O9 1.258 . S
C8 O10 1.256 . S
O9 Cd1 2.381 . S
O9 C8 1.258 . S
O10 Cd1 2.378 . S
O10 C8 1.256 . S
O11 Cd12 2.300 . S
O11 C18 1.275 . S
Cd12 O11 2.300 . S
Cd12 O20 2.381 . S
Cd12 O21 2.378 . S
O13 Cd14 2.385 . S
O13 C18 1.255 . S
Cd14 O13 2.385 . S
Cd14 O15 2.317 . S
O15 Cd14 2.317 . S
O15 C16 1.232 . S
C16 O15 1.232 . S
C16 O17 1.218 . S
O17 C16 1.218 . S
C18 O11 1.275 . S
C18 O13 1.255 . S
C19 O20 1.258 . S
C19 O21 1.256 . S
O20 Cd12 2.381 . S
O20 C19 1.258 . S
O21 Cd12 2.378 . S
O21 C19 1.256 . S
O22 Cd23 2.300 . S
O22 C29 1.275 . S
Cd23 O22 2.300 . S
Cd23 O31 2.381 . S
Cd23 O32 2.378 . S
O24 Cd25 2.385 . S
O24 C29 1.255 . S
Cd25 O24 2.385 . S
Cd25 O26 2.317 . S
O26 Cd25 2.317 . S
O26 C27 1.232 . S
C27 O26 1.232 . S
C27 O28 1.218 . S
O28 C27 1.218 . S
C29 O22 1.275 . S
C29 O24 1.255 . S
C30 O31 1.258 . S
C30 O32 1.256 . S
O31 Cd23 2.381 . S
O31 C30 1.258 . S
O32 Cd23 2.378 . S
O32 C30 1.256 . S
O33 Cd34 2.300 . S
O33 C40 1.275 . S
Cd34 O33 2.300 . S
Cd34 O42 2.381 . S
Cd34 O43 2.378 . S
O35 Cd36 2.385 . S
O35 C40 1.255 . S
Cd36 O35 2.385 . S
Cd36 O37 2.317 . S
O37 Cd36 2.317 . S
O37 C38 1.232 . S
C38 O37 1.232 . S
C38 O39 1.218 . S
O39 C38 1.218 . S
C40 O33 1.275 . S
C40 O35 1.255 . S
C41 O42 1.258 . S
C41 O43 1.256 . S
O42 Cd34 2.381 . S
O42 C41 1.258 . S
O43 Cd34 2.378 . S
O43 C41 1.256 . S
O44 Cd45 2.300 . S
O44 C51 1.275 . S
Cd45 O44 2.300 . S
Cd45 O53 2.381 . S
Cd45 O54 2.378 . S
O46 Cd47 2.385 . S
O46 C51 1.255 . S
Cd47 O46 2.385 . S
Cd47 O48 2.317 . S
O48 Cd47 2.317 . S
O48 C49 1.232 . S
C49 O48 1.232 . S
C49 O50 1.218 . S
O50 C49 1.218 . S
C51 O44 1.275 . S
C51 O46 1.255 . S
C52 O53 1.258 . S
C52 O54 1.256 . S
O53 Cd45 2.381 . S
O53 C52 1.258 . S
O54 Cd45 2.378 . S
O54 C52 1.256 . S
O55 Cd56 2.300 . S
O55 C62 1.275 . S
Cd56 O55 2.300 . S
Cd56 O64 2.381 . S
Cd56 O65 2.378 . S
O57 Cd58 2.385 . S
O57 C62 1.255 . S
Cd58 O57 2.385 . S
Cd58 O59 2.317 . S
O59 Cd58 2.317 . S
O59 C60 1.232 . S
C60 O59 1.232 . S
C60 O61 1.218 . S
O61 C60 1.218 . S
C62 O55 1.275 . S
C62 O57 1.255 . S
C63 O64 1.258 . S
C63 O65 1.256 . S
O64 Cd56 2.381 . S
O64 C63 1.258 . S
O65 Cd56 2.378 . S
O65 C63 1.256 . S
O66 Cd67 2.300 . S
O66 C73 1.275 . S
Cd67 O66 2.300 . S
Cd67 O75 2.381 . S
Cd67 O76 2.378 . S
O68 Cd69 2.385 . S
O68 C73 1.255 . S
Cd69 O68 2.385 . S
Cd69 O70 2.317 . S
O70 Cd69 2.317 . S
O70 C71 1.232 . S
C71 O70 1.232 . S
C71 O72 1.218 . S
O72 C71 1.218 . S
C73 O66 1.275 . S
C73 O68 1.255 . S
C74 O75 1.258 . S
C74 O76 1.256 . S
O75 Cd67 2.381 . S
O75 C74 1.258 . S
O76 Cd67 2.378 . S
O76 C74 1.256 . S
O77 Cd78 2.300 . S
O77 C84 1.275 . S
Cd78 O77 2.300 . S
Cd78 O86 2.381 . S
Cd78 O87 2.378 . S
O79 Cd80 2.385 . S
O79 C84 1.255 . S
Cd80 O79 2.385 . S
Cd80 O81 2.317 . S
O81 Cd80 2.317 . S
O81 C82 1.232 . S
C82 O81 1.232 . S
C82 O83 1.218 . S
O83 C82 1.218 . S
C84 O77 1.275 . S
C84 O79 1.255 . S
C85 O86 1.258 . S
C85 O87 1.256 . S
O86 Cd78 2.381 . S
O86 C85 1.258 . S
O87 Cd78 2.378 . S
O87 C85 1.256 . S
C88 C89 1.560 . S
C88 H149 0.959 . S
C88 H150 0.959 . S
C88 H151 0.960 . S
C89 C88 1.560 . S
C89 O144 1.426 . S
C89 H148 0.980 . S
C90 C91 1.407 . S
C90 C95 1.418 . S
C90 O144 1.334 . S
C91 C90 1.407 . S
C91 C92 1.360 . S
C91 H152 0.929 . S
C92 C91 1.360 . S
C92 C93 1.401 . S
C92 C96 1.527 . S
C93 C92 1.401 . S
C93 C94 1.405 . S
C93 C126 1.587 1_655 S
C94 C93 1.405 . S
C94 C95 1.332 . S
C94 C97 1.496 1_655 S
C95 C90 1.418 . S
C95 C94 1.332 . S
C95 H153 0.929 . S
C96 C92 1.527 . S
C96 H154 0.959 . S
C96 H155 0.961 . S
C96 H156 0.961 . S
C97 C94 1.496 1_455 S
C97 H157 0.960 . S
C97 H158 0.960 . S
C97 H159 0.961 . S
C98 C99 1.517 . S
C98 H161 0.961 . S
C98 H162 0.960 . S
C98 H163 0.959 . S
C99 C98 1.517 . S
C99 O147 1.468 . S
C99 H160 0.980 . S
C100 C101 1.349 . S
C100 C105 1.367 . S
C100 O147 1.408 . S
C101 C100 1.349 . S
C101 C102 1.407 . S
C101 H164 0.930 . S
C102 C101 1.407 . S
C102 C103 1.449 . S
C102 C106 1.535 . S
C103 C102 1.449 . S
C103 C104 1.384 . S
C103 C128 1.553 . S
C104 C103 1.384 . S
C104 C105 1.364 . S
C104 C107 1.450 . S
C105 C100 1.367 . S
C105 C104 1.364 . S
C105 H165 0.931 . S
C106 C102 1.535 . S
C106 H166 0.959 . S
C106 H167 0.961 . S
C106 H168 0.959 . S
C107 C104 1.450 . S
C107 H169 0.960 . S
C107 H170 0.960 . S
C107 H171 0.960 . S
C108 C109 1.309 . S
C108 C113 1.304 . S
C108 O146 1.435 . S
C109 C108 1.309 . S
C109 C110 1.476 . S
C109 H173 0.930 . S
C110 C109 1.476 . S
C110 C111 1.400 . S
C110 C114 1.567 . S
C111 C110 1.400 . S
C111 C112 1.373 . S
C111 C133 1.432 . S
C112 C111 1.373 . S
C112 C113 1.339 . S
C112 C115 1.530 . S
C113 C108 1.304 . S
C113 C112 1.339 . S
C113 H174 0.930 . S
C114 C110 1.567 . S
C114 H175 0.961 . S
C114 H176 0.960 . S
C114 H177 0.958 . S
C115 C112 1.530 . S
C115 H178 0.961 . S
C115 H179 0.960 . S
C115 H180 0.960 . S
C116 C117 1.530 . S
C116 H182 0.961 . S
C116 H183 0.961 . S
C116 H184 0.959 . S
C117 C116 1.530 . S
C117 O145 1.412 . S
C117 H181 0.980 . S
C118 C119 1.288 . S
C118 C123 1.377 . S
C118 O145 1.393 . S
C119 C118 1.288 . S
C119 C120 1.369 . S
C119 H185 0.932 . S
C120 C119 1.369 . S
C120 C121 1.398 . S
C120 C124 1.527 1_655 S
C121 C120 1.398 . S
C121 C122 1.380 . S
C121 C135 1.497 1_655 S
C122 C121 1.380 . S
C122 C123 1.383 . S
C122 C125 1.603 . S
C123 C118 1.377 . S
C123 C122 1.383 . S
C123 H186 0.929 . S
C124 C120 1.527 1_455 S
C124 H187 0.961 . S
C124 H188 0.959 . S
C124 H189 0.959 . S
C125 C122 1.603 . S
C125 H190 0.960 . S
C125 H191 0.962 . S
C125 H192 0.961 . S
C126 C93 1.587 1_455 S
C126 C127 1.360 . S
C126 C139 1.412 . S
C127 C126 1.360 . S
C127 C128 1.365 . S
C127 H193 0.929 . S
C128 C103 1.553 . S
C128 C127 1.365 . S
C128 C129 1.404 . S
C129 C128 1.404 . S
C129 C130 1.395 . S
C129 C140 1.451 . S
C130 C129 1.395 . S
C130 C131 1.322 . S
C130 H194 0.930 . S
C131 C130 1.322 . S
C131 C132 1.459 . S
C131 H195 0.929 . S
C132 C131 1.459 . S
C132 C133 1.445 . S
C132 C141 1.395 . S
C133 C111 1.432 . S
C133 C132 1.445 . S
C133 C134 1.370 . S
C134 C133 1.370 . S
C134 C135 1.438 . S
C134 H196 0.930 . S
C135 C121 1.497 1_455 S
C135 C134 1.438 . S
C135 C136 1.360 . S
C136 C135 1.360 . S
C136 C137 1.401 1_455 S
C136 C141 1.446 . S
C137 C136 1.401 1_655 S
C137 C138 1.347 . S
C137 H197 0.929 . S
C138 C137 1.347 . S
C138 C139 1.455 1_655 S
C138 H198 0.930 . S
C139 C126 1.412 . S
C139 C138 1.455 1_455 S
C139 C140 1.331 . S
C140 C129 1.451 . S
C140 C139 1.331 . S
C140 C141 1.497 . S
C141 C132 1.395 . S
C141 C136 1.446 . S
C141 C140 1.497 . S
C142 C143 1.582 . S
C142 H199 0.962 . S
C142 H200 0.959 . S
C142 H201 0.958 . S
C143 C142 1.582 . S
C143 O146 1.458 . S
C143 H172 0.980 . S
O144 C89 1.426 . S
O144 C90 1.334 . S
O145 C117 1.412 . S
O145 C118 1.393 . S
O146 C108 1.435 . S
O146 C143 1.458 . S
O147 C99 1.468 . S
O147 C100 1.408 . S
H148 C89 0.980 . S
H149 C88 0.959 . S
H150 C88 0.959 . S
H151 C88 0.960 . S
H152 C91 0.929 . S
H153 C95 0.929 . S
H154 C96 0.959 . S
H155 C96 0.961 . S
H156 C96 0.961 . S
H157 C97 0.960 . S
H158 C97 0.960 . S
H159 C97 0.961 . S
H160 C99 0.980 . S
H161 C98 0.961 . S
H162 C98 0.960 . S
H163 C98 0.959 . S
H164 C101 0.930 . S
H165 C105 0.931 . S
H166 C106 0.959 . S
H167 C106 0.961 . S
H168 C106 0.959 . S
H169 C107 0.960 . S
H170 C107 0.960 . S
H171 C107 0.960 . S
H172 C143 0.980 . S
H173 C109 0.930 . S
H174 C113 0.930 . S
H175 C114 0.961 . S
H176 C114 0.960 . S
H177 C114 0.958 . S
H178 C115 0.961 . S
H179 C115 0.960 . S
H180 C115 0.960 . S
H181 C117 0.980 . S
H182 C116 0.961 . S
H183 C116 0.961 . S
H184 C116 0.959 . S
H185 C119 0.932 . S
H186 C123 0.929 . S
H187 C124 0.961 . S
H188 C124 0.959 . S
H189 C124 0.959 . S
H190 C125 0.960 . S
H191 C125 0.962 . S
H192 C125 0.961 . S
H193 C127 0.929 . S
H194 C130 0.930 . S
H195 C131 0.929 . S
H196 C134 0.930 . S
H197 C137 0.929 . S
H198 C138 0.930 . S
H199 C142 0.962 . S
H200 C142 0.959 . S
H201 C142 0.958 . S
C202 C203 1.560 . S
C202 H263 0.959 . S
C202 H264 0.959 . S
C202 H265 0.960 . S
C203 C202 1.560 . S
C203 O258 1.426 . S
C203 H262 0.980 . S
C204 C205 1.407 . S
C204 C209 1.418 . S
C204 O258 1.334 . S
C205 C204 1.407 . S
C205 C206 1.360 . S
C205 H266 0.929 . S
C206 C205 1.360 . S
C206 C207 1.401 . S
C206 C210 1.527 . S
C207 C206 1.401 . S
C207 C208 1.405 . S
C207 C240 1.587 . S
C208 C207 1.405 . S
C208 C209 1.332 . S
C208 C211 1.496 . S
C209 C204 1.418 . S
C209 C208 1.332 . S
C209 H267 0.929 . S
C210 C206 1.527 . S
C210 H268 0.959 . S
C210 H269 0.961 . S
C210 H270 0.961 . S
C211 C208 1.496 . S
C211 H271 0.960 . S
C211 H272 0.960 . S
C211 H273 0.961 . S
C212 C213 1.517 . S
C212 H275 0.961 . S
C212 H276 0.960 . S
C212 H277 0.959 . S
C213 C212 1.517 . S
C213 O261 1.468 . S
C213 H274 0.980 . S
C214 C215 1.349 . S
C214 C219 1.367 . S
C214 O261 1.408 . S
C215 C214 1.349 . S
C215 C216 1.407 . S
C215 H278 0.930 . S
C216 C215 1.407 . S
C216 C217 1.449 . S
C216 C220 1.535 . S
C217 C216 1.449 . S
C217 C218 1.384 . S
C217 C242 1.553 . S
C218 C217 1.384 . S
C218 C219 1.364 . S
C218 C221 1.450 . S
C219 C214 1.367 . S
C219 C218 1.364 . S
C219 H279 0.931 . S
C220 C216 1.535 . S
C220 H280 0.959 . S
C220 H281 0.961 . S
C220 H282 0.959 . S
C221 C218 1.450 . S
C221 H283 0.960 . S
C221 H284 0.960 . S
C221 H285 0.960 . S
C222 C223 1.309 . S
C222 C227 1.304 . S
C222 O260 1.435 . S
C223 C222 1.309 . S
C223 C224 1.476 . S
C223 H287 0.930 . S
C224 C223 1.476 . S
C224 C225 1.400 . S
C224 C228 1.567 . S
C225 C224 1.400 . S
C225 C226 1.373 . S
C225 C247 1.432 . S
C226 C225 1.373 . S
C226 C227 1.339 . S
C226 C229 1.530 . S
C227 C222 1.304 . S
C227 C226 1.339 . S
C227 H288 0.930 . S
C228 C224 1.567 . S
C228 H289 0.961 . S
C228 H290 0.960 . S
C228 H291 0.958 . S
C229 C226 1.530 . S
C229 H292 0.961 . S
C229 H293 0.960 . S
C229 H294 0.960 . S
C230 C231 1.530 . S
C230 H296 0.961 . S
C230 H297 0.961 . S
C230 H298 0.959 . S
C231 C230 1.530 . S
C231 O259 1.412 . S
C231 H295 0.980 . S
C232 C233 1.288 . S
C232 C237 1.377 . S
C232 O259 1.393 . S
C233 C232 1.288 . S
C233 C234 1.369 . S
C233 H299 0.932 . S
C234 C233 1.369 . S
C234 C235 1.398 . S
C234 C238 1.527 . S
C235 C234 1.398 . S
C235 C236 1.380 . S
C235 C249 1.497 . S
C236 C235 1.380 . S
C236 C237 1.383 . S
C236 C239 1.603 . S
C237 C232 1.377 . S
C237 C236 1.383 . S
C237 H300 0.929 . S
C238 C234 1.527 . S
C238 H301 0.961 . S
C238 H302 0.959 . S
C238 H303 0.959 . S
C239 C236 1.603 . S
C239 H304 0.960 . S
C239 H305 0.962 . S
C239 H306 0.961 . S
C240 C207 1.587 . S
C240 C241 1.360 . S
C240 C253 1.412 . S
C241 C240 1.360 . S
C241 C242 1.365 1_455 S
C241 H307 0.929 . S
C242 C217 1.553 . S
C242 C241 1.365 1_655 S
C242 C243 1.404 . S
C243 C242 1.404 . S
C243 C244 1.395 . S
C243 C254 1.451 1_655 S
C244 C243 1.395 . S
C244 C245 1.322 . S
C244 H308 0.930 . S
C245 C244 1.322 . S
C245 C246 1.459 . S
C245 H309 0.929 . S
C246 C245 1.459 . S
C246 C247 1.445 . S
C246 C255 1.395 1_655 S
C247 C225 1.432 . S
C247 C246 1.445 . S
C247 C248 1.370 1_655 S
C248 C247 1.370 1_455 S
C248 C249 1.438 . S
C248 H310 0.930 . S
C249 C235 1.497 . S
C249 C248 1.438 . S
C249 C250 1.360 . S
C250 C249 1.360 . S
C250 C251 1.401 . S
C250 C255 1.446 . S
C251 C250 1.401 . S
C251 C252 1.347 . S
C251 H311 0.929 . S
C252 C251 1.347 . S
C252 C253 1.455 . S
C252 H312 0.930 . S
C253 C240 1.412 . S
C253 C252 1.455 . S
C253 C254 1.331 . S
C254 C243 1.451 1_455 S
C254 C253 1.331 . S
C254 C255 1.497 . S
C255 C246 1.395 1_455 S
C255 C250 1.446 . S
C255 C254 1.497 . S
C256 C257 1.582 . S
C256 H313 0.962 . S
C256 H314 0.959 . S
C256 H315 0.958 . S
C257 C256 1.582 . S
C257 O260 1.458 . S
C257 H286 0.980 . S
O258 C203 1.426 . S
O258 C204 1.334 . S
O259 C231 1.412 . S
O259 C232 1.393 . S
O260 C222 1.435 . S
O260 C257 1.458 . S
O261 C213 1.468 . S
O261 C214 1.408 . S
H262 C203 0.980 . S
H263 C202 0.959 . S
H264 C202 0.959 . S
H265 C202 0.960 . S
H266 C205 0.929 . S
H267 C209 0.929 . S
H268 C210 0.959 . S
H269 C210 0.961 . S
H270 C210 0.961 . S
H271 C211 0.960 . S
H272 C211 0.960 . S
H273 C211 0.961 . S
H274 C213 0.980 . S
H275 C212 0.961 . S
H276 C212 0.960 . S
H277 C212 0.959 . S
H278 C215 0.930 . S
H279 C219 0.931 . S
H280 C220 0.959 . S
H281 C220 0.961 . S
H282 C220 0.959 . S
H283 C221 0.960 . S
H284 C221 0.960 . S
H285 C221 0.960 . S
H286 C257 0.980 . S
H287 C223 0.930 . S
H288 C227 0.930 . S
H289 C228 0.961 . S
H290 C228 0.960 . S
H291 C228 0.958 . S
H292 C229 0.961 . S
H293 C229 0.960 . S
H294 C229 0.960 . S
H295 C231 0.980 . S
H296 C230 0.961 . S
H297 C230 0.961 . S
H298 C230 0.959 . S
H299 C233 0.932 . S
H300 C237 0.929 . S
H301 C238 0.961 . S
H302 C238 0.959 . S
H303 C238 0.959 . S
H304 C239 0.960 . S
H305 C239 0.962 . S
H306 C239 0.961 . S
H307 C241 0.929 . S
H308 C244 0.930 . S
H309 C245 0.929 . S
H310 C248 0.930 . S
H311 C251 0.929 . S
H312 C252 0.930 . S
H313 C256 0.962 . S
H314 C256 0.959 . S
H315 C256 0.958 . S
C316 C317 1.560 . S
C316 H377 0.959 . S
C316 H378 0.959 . S
C316 H379 0.960 . S
C317 C316 1.560 . S
C317 O372 1.426 . S
C317 H376 0.980 . S
C318 C319 1.407 . S
C318 C323 1.418 . S
C318 O372 1.334 . S
C319 C318 1.407 . S
C319 C320 1.360 . S
C319 H380 0.929 . S
C320 C319 1.360 . S
C320 C321 1.401 . S
C320 C324 1.527 . S
C321 C320 1.401 . S
C321 C322 1.405 . S
C321 C354 1.587 . S
C322 C321 1.405 . S
C322 C323 1.332 . S
C322 C325 1.496 . S
C323 C318 1.418 . S
C323 C322 1.332 . S
C323 H381 0.929 . S
C324 C320 1.527 . S
C324 H382 0.959 . S
C324 H383 0.961 . S
C324 H384 0.961 . S
C325 C322 1.496 . S
C325 H385 0.960 . S
C325 H386 0.960 . S
C325 H387 0.961 . S
C326 C327 1.517 . S
C326 H389 0.961 1_545 S
C326 H390 0.960 . S
C326 H391 0.959 1_545 S
C327 C326 1.517 . S
C327 O375 1.468 . S
C327 H388 0.980 . S
C328 C329 1.349 . S
C328 C333 1.367 . S
C328 O375 1.408 . S
C329 C328 1.349 . S
C329 C330 1.407 . S
C329 H392 0.930 . S
C330 C329 1.407 . S
C330 C331 1.449 . S
C330 C334 1.535 . S
C331 C330 1.449 . S
C331 C332 1.384 . S
C331 C356 1.553 . S
C332 C331 1.384 . S
C332 C333 1.364 . S
C332 C335 1.450 . S
C333 C328 1.367 . S
C333 C332 1.364 . S
C333 H393 0.931 . S
C334 C330 1.535 . S
C334 H394 0.959 . S
C334 H395 0.961 . S
C334 H396 0.959 . S
C335 C332 1.450 . S
C335 H397 0.960 . S
C335 H398 0.960 . S
C335 H399 0.960 . S
C336 C337 1.309 . S
C336 C341 1.304 . S
C336 O374 1.435 . S
C337 C336 1.309 . S
C337 C338 1.476 . S
C337 H401 0.930 . S
C338 C337 1.476 . S
C338 C339 1.400 . S
C338 C342 1.567 . S
C339 C338 1.400 . S
C339 C340 1.373 . S
C339 C361 1.432 . S
C340 C339 1.373 . S
C340 C341 1.339 . S
C340 C343 1.530 . S
C341 C336 1.304 . S
C341 C340 1.339 . S
C341 H402 0.930 . S
C342 C338 1.567 . S
C342 H403 0.961 . S
C342 H404 0.960 . S
C342 H405 0.958 . S
C343 C340 1.530 . S
C343 H406 0.961 . S
C343 H407 0.960 . S
C343 H408 0.960 . S
C344 C345 1.530 . S
C344 H410 0.961 . S
C344 H411 0.961 . S
C344 H412 0.959 . S
C345 C344 1.530 . S
C345 O373 1.412 . S
C345 H409 0.980 . S
C346 C347 1.288 . S
C346 C351 1.377 . S
C346 O373 1.393 . S
C347 C346 1.288 . S
C347 C348 1.369 . S
C347 H413 0.932 . S
C348 C347 1.369 . S
C348 C349 1.398 . S
C348 C352 1.527 . S
C349 C348 1.398 . S
C349 C350 1.380 . S
C349 C363 1.497 . S
C350 C349 1.380 . S
C350 C351 1.383 . S
C350 C353 1.603 . S
C351 C346 1.377 . S
C351 C350 1.383 . S
C351 H414 0.929 . S
C352 C348 1.527 . S
C352 H415 0.961 . S
C352 H416 0.959 . S
C352 H417 0.959 . S
C353 C350 1.603 . S
C353 H418 0.960 . S
C353 H419 0.962 . S
C353 H420 0.961 . S
C354 C321 1.587 . S
C354 C355 1.360 . S
C354 C367 1.412 . S
C355 C354 1.360 . S
C355 C356 1.365 . S
C355 H421 0.929 . S
C356 C331 1.553 . S
C356 C355 1.365 . S
C356 C357 1.404 . S
C357 C356 1.404 . S
C357 C358 1.395 . S
C357 C368 1.451 . S
C358 C357 1.395 . S
C358 C359 1.322 . S
C358 H422 0.930 . S
C359 C358 1.322 . S
C359 C360 1.459 . S
C359 H423 0.929 . S
C360 C359 1.459 . S
C360 C361 1.445 . S
C360 C369 1.395 . S
C361 C339 1.432 . S
C361 C360 1.445 . S
C361 C362 1.370 . S
C362 C361 1.370 . S
C362 C363 1.438 . S
C362 H424 0.930 . S
C363 C349 1.497 . S
C363 C362 1.438 . S
C363 C364 1.360 . S
C364 C363 1.360 . S
C364 C365 1.401 . S
C364 C369 1.446 . S
C365 C364 1.401 . S
C365 C366 1.347 . S
C365 H425 0.929 . S
C366 C365 1.347 . S
C366 C367 1.455 . S
C366 H426 0.930 . S
C367 C354 1.412 . S
C367 C366 1.455 . S
C367 C368 1.331 . S
C368 C357 1.451 . S
C368 C367 1.331 . S
C368 C369 1.497 . S
C369 C360 1.395 . S
C369 C364 1.446 . S
C369 C368 1.497 . S
C370 C371 1.582 1_565 S
C370 H427 0.962 . S
C370 H428 0.959 . S
C370 H429 0.958 1_565 S
C371 C370 1.582 1_545 S
C371 O374 1.458 . S
C371 H400 0.980 . S
O372 C317 1.426 . S
O372 C318 1.334 . S
O373 C345 1.412 . S
O373 C346 1.393 . S
O374 C336 1.435 . S
O374 C371 1.458 . S
O375 C327 1.468 . S
O375 C328 1.408 . S
H376 C317 0.980 . S
H377 C316 0.959 . S
H378 C316 0.959 . S
H379 C316 0.960 . S
H380 C319 0.929 . S
H381 C323 0.929 . S
H382 C324 0.959 . S
H383 C324 0.961 . S
H384 C324 0.961 . S
H385 C325 0.960 . S
H386 C325 0.960 . S
H387 C325 0.961 . S
H388 C327 0.980 . S
H389 C326 0.961 1_565 S
H390 C326 0.960 . S
H391 C326 0.959 1_565 S
H392 C329 0.930 . S
H393 C333 0.931 . S
H394 C334 0.959 . S
H395 C334 0.961 . S
H396 C334 0.959 . S
H397 C335 0.960 . S
H398 C335 0.960 . S
H399 C335 0.960 . S
H400 C371 0.980 . S
H401 C337 0.930 . S
H402 C341 0.930 . S
H403 C342 0.961 . S
H404 C342 0.960 . S
H405 C342 0.958 . S
H406 C343 0.961 . S
H407 C343 0.960 . S
H408 C343 0.960 . S
H409 C345 0.980 . S
H410 C344 0.961 . S
H411 C344 0.961 . S
H412 C344 0.959 . S
H413 C347 0.932 . S
H414 C351 0.929 . S
H415 C352 0.961 . S
H416 C352 0.959 . S
H417 C352 0.959 . S
H418 C353 0.960 . S
H419 C353 0.962 . S
H420 C353 0.961 . S
H421 C355 0.929 . S
H422 C358 0.930 . S
H423 C359 0.929 . S
H424 C362 0.930 . S
H425 C365 0.929 . S
H426 C366 0.930 . S
H427 C370 0.962 . S
H428 C370 0.959 . S
H429 C370 0.958 1_545 S
C430 C431 1.560 . S
C430 H491 0.959 . S
C430 H492 0.959 . S
C430 H493 0.960 . S
C431 C430 1.560 . S
C431 O486 1.426 . S
C431 H490 0.980 . S
C432 C433 1.407 . S
C432 C437 1.418 . S
C432 O486 1.334 . S
C433 C432 1.407 . S
C433 C434 1.360 . S
C433 H494 0.929 . S
C434 C433 1.360 . S
C434 C435 1.401 . S
C434 C438 1.527 . S
C435 C434 1.401 . S
C435 C436 1.405 . S
C435 C468 1.587 . S
C436 C435 1.405 . S
C436 C437 1.332 . S
C436 C439 1.496 . S
C437 C432 1.418 . S
C437 C436 1.332 . S
C437 H495 0.929 . S
C438 C434 1.527 . S
C438 H496 0.959 . S
C438 H497 0.961 . S
C438 H498 0.961 . S
C439 C436 1.496 . S
C439 H499 0.960 . S
C439 H500 0.960 . S
C439 H501 0.961 . S
C440 C441 1.517 . S
C440 H503 0.961 . S
C440 H504 0.960 . S
C440 H505 0.959 . S
C441 C440 1.517 . S
C441 O489 1.468 . S
C441 H502 0.980 . S
C442 C443 1.349 . S
C442 C447 1.367 . S
C442 O489 1.408 . S
C443 C442 1.349 . S
C443 C444 1.407 . S
C443 H506 0.930 . S
C444 C443 1.407 . S
C444 C445 1.449 . S
C444 C448 1.535 . S
C445 C444 1.449 . S
C445 C446 1.384 . S
C445 C470 1.553 . S
C446 C445 1.384 . S
C446 C447 1.364 . S
C446 C449 1.450 . S
C447 C442 1.367 . S
C447 C446 1.364 . S
C447 H507 0.931 . S
C448 C444 1.535 . S
C448 H508 0.959 . S
C448 H509 0.961 . S
C448 H510 0.959 . S
C449 C446 1.450 . S
C449 H511 0.960 . S
C449 H512 0.960 . S
C449 H513 0.960 . S
C450 C451 1.309 . S
C450 C455 1.304 . S
C450 O488 1.435 . S
C451 C450 1.309 . S
C451 C452 1.476 . S
C451 H515 0.930 . S
C452 C451 1.476 . S
C452 C453 1.400 . S
C452 C456 1.567 . S
C453 C452 1.400 . S
C453 C454 1.373 . S
C453 C475 1.432 . S
C454 C453 1.373 . S
C454 C455 1.339 . S
C454 C457 1.530 . S
C455 C450 1.304 . S
C455 C454 1.339 . S
C455 H516 0.930 . S
C456 C452 1.567 . S
C456 H517 0.961 . S
C456 H518 0.960 . S
C456 H519 0.958 . S
C457 C454 1.530 . S
C457 H520 0.961 . S
C457 H521 0.960 . S
C457 H522 0.960 . S
C458 C459 1.530 . S
C458 H524 0.961 . S
C458 H525 0.961 . S
C458 H526 0.959 . S
C459 C458 1.530 . S
C459 O487 1.412 . S
C459 H523 0.980 . S
C460 C461 1.288 . S
C460 C465 1.377 . S
C460 O487 1.393 . S
C461 C460 1.288 . S
C461 C462 1.369 . S
C461 H527 0.932 . S
C462 C461 1.369 . S
C462 C463 1.398 . S
C462 C466 1.527 . S
C463 C462 1.398 . S
C463 C464 1.380 . S
C463 C477 1.497 . S
C464 C463 1.380 . S
C464 C465 1.383 . S
C464 C467 1.603 . S
C465 C460 1.377 . S
C465 C464 1.383 . S
C465 H528 0.929 . S
C466 C462 1.527 . S
C466 H529 0.961 . S
C466 H530 0.959 . S
C466 H531 0.959 . S
C467 C464 1.603 . S
C467 H532 0.960 . S
C467 H533 0.962 . S
C467 H534 0.961 . S
C468 C435 1.587 . S
C468 C469 1.360 . S
C468 C481 1.412 . S
C469 C468 1.360 . S
C469 C470 1.365 . S
C469 H535 0.929 . S
C470 C445 1.553 . S
C470 C469 1.365 . S
C470 C471 1.404 . S
C471 C470 1.404 . S
C471 C472 1.395 . S
C471 C482 1.451 . S
C472 C471 1.395 . S
C472 C473 1.322 1_554 S
C472 H536 0.930 . S
C473 C472 1.322 1_556 S
C473 C474 1.459 . S
C473 H537 0.929 . S
C474 C473 1.459 . S
C474 C475 1.445 . S
C474 C483 1.395 . S
C475 C453 1.432 . S
C475 C474 1.445 . S
C475 C476 1.370 . S
C476 C475 1.370 . S
C476 C477 1.438 . S
C476 H538 0.930 . S
C477 C463 1.497 . S
C477 C476 1.438 . S
C477 C478 1.360 . S
C478 C477 1.360 . S
C478 C479 1.389 1_556 S
C478 C483 1.446 . S
C479 C478 1.389 1_554 S
C479 C480 1.368 . S
C479 H539 0.920 1_554 S
C480 C479 1.368 . S
C480 C481 1.455 . S
C480 H540 0.930 . S
C481 C468 1.412 . S
C481 C480 1.455 . S
C481 C482 1.331 . S
C482 C471 1.451 . S
C482 C481 1.331 . S
C482 C483 1.497 1_554 S
C483 C474 1.395 . S
C483 C478 1.446 . S
C483 C482 1.497 1_556 S
C484 C485 1.582 . S
C484 H541 0.962 . S
C484 H542 0.959 . S
C484 H543 0.958 . S
C485 C484 1.582 . S
C485 O488 1.458 . S
C485 H514 0.980 . S
O486 C431 1.426 . S
O486 C432 1.334 . S
O487 C459 1.412 . S
O487 C460 1.393 . S
O488 C450 1.435 . S
O488 C485 1.458 . S
O489 C441 1.468 . S
O489 C442 1.408 . S
H490 C431 0.980 . S
H491 C430 0.959 . S
H492 C430 0.959 . S
H493 C430 0.960 . S
H494 C433 0.929 . S
H495 C437 0.929 . S
H496 C438 0.959 . S
H497 C438 0.961 . S
H498 C438 0.961 . S
H499 C439 0.960 . S
H500 C439 0.960 . S
H501 C439 0.961 . S
H502 C441 0.980 . S
H503 C440 0.961 . S
H504 C440 0.960 . S
H505 C440 0.959 . S
H506 C443 0.930 . S
H507 C447 0.931 . S
H508 C448 0.959 . S
H509 C448 0.961 . S
H510 C448 0.959 . S
H511 C449 0.960 . S
H512 C449 0.960 . S
H513 C449 0.960 . S
H514 C485 0.980 . S
H515 C451 0.930 . S
H516 C455 0.930 . S
H517 C456 0.961 . S
H518 C456 0.960 . S
H519 C456 0.958 . S
H520 C457 0.961 . S
H521 C457 0.960 . S
H522 C457 0.960 . S
H523 C459 0.980 . S
H524 C458 0.961 . S
H525 C458 0.961 . S
H526 C458 0.959 . S
H527 C461 0.932 . S
H528 C465 0.929 . S
H529 C466 0.961 . S
H530 C466 0.959 . S
H531 C466 0.959 . S
H532 C467 0.960 . S
H533 C467 0.962 . S
H534 C467 0.961 . S
H535 C469 0.929 . S
H536 C472 0.930 . S
H537 C473 0.929 . S
H538 C476 0.930 . S
H539 C479 0.920 1_556 S
H540 C480 0.930 . S
H541 C484 0.962 . S
H542 C484 0.959 . S
H543 C484 0.958 . S
C544 C545 1.560 . S
C544 H605 0.959 . S
C544 H606 0.959 . S
C544 H607 0.960 . S
C545 C544 1.560 . S
C545 O600 1.426 . S
C545 H604 0.980 . S
C546 C547 1.407 . S
C546 C551 1.418 . S
C546 O600 1.334 . S
C547 C546 1.407 . S
C547 C548 1.360 . S
C547 H608 0.929 . S
C548 C547 1.360 . S
C548 C549 1.401 . S
C548 C552 1.527 . S
C549 C548 1.401 . S
C549 C550 1.405 . S
C549 C582 1.587 . S
C550 C549 1.405 . S
C550 C551 1.332 . S
C550 C553 1.496 . S
C551 C546 1.418 . S
C551 C550 1.332 . S
C551 H609 0.929 . S
C552 C548 1.527 . S
C552 H610 0.959 . S
C552 H611 0.961 . S
C552 H612 0.961 . S
C553 C550 1.496 . S
C553 H613 0.960 . S
C553 H614 0.960 . S
C553 H615 0.961 . S
C554 C555 1.517 . S
C554 H617 0.961 . S
C554 H618 0.960 . S
C554 H619 0.959 . S
C555 C554 1.517 . S
C555 O603 1.468 . S
C555 H616 0.980 . S
C556 C557 1.349 . S
C556 C561 1.367 . S
C556 O603 1.408 . S
C557 C556 1.349 . S
C557 C558 1.407 . S
C557 H620 0.930 . S
C558 C557 1.407 . S
C558 C559 1.449 . S
C558 C562 1.535 . S
C559 C558 1.449 . S
C559 C560 1.384 . S
C559 C584 1.553 . S
C560 C559 1.384 . S
C560 C561 1.364 . S
C560 C563 1.450 . S
C561 C556 1.367 . S
C561 C560 1.364 . S
C561 H621 0.931 . S
C562 C558 1.535 . S
C562 H622 0.959 . S
C562 H623 0.961 . S
C562 H624 0.959 . S
C563 C560 1.450 . S
C563 H625 0.960 . S
C563 H626 0.960 . S
C563 H627 0.960 . S
C564 C565 1.309 . S
C564 C569 1.304 . S
C564 O602 1.435 . S
C565 C564 1.309 . S
C565 C566 1.476 . S
C565 H629 0.930 . S
C566 C565 1.476 . S
C566 C567 1.400 . S
C566 C570 1.567 . S
C567 C566 1.400 . S
C567 C568 1.373 . S
C567 C589 1.432 . S
C568 C567 1.373 . S
C568 C569 1.339 . S
C568 C571 1.530 . S
C569 C564 1.304 . S
C569 C568 1.339 . S
C569 H630 0.930 . S
C570 C566 1.567 . S
C570 H631 0.961 . S
C570 H632 0.960 . S
C570 H633 0.958 . S
C571 C568 1.530 . S
C571 H634 0.961 . S
C571 H635 0.960 . S
C571 H636 0.960 . S
C572 C573 1.530 . S
C572 H638 0.961 . S
C572 H639 0.961 . S
C572 H640 0.959 . S
C573 C572 1.530 . S
C573 O601 1.412 . S
C573 H637 0.980 . S
C574 C575 1.288 . S
C574 C579 1.377 . S
C574 O601 1.393 . S
C575 C574 1.288 . S
C575 C576 1.369 . S
C575 H641 0.932 . S
C576 C575 1.369 . S
C576 C577 1.398 . S
C576 C580 1.527 . S
C577 C576 1.398 . S
C577 C578 1.380 . S
C577 C591 1.497 . S
C578 C577 1.380 . S
C578 C579 1.383 . S
C578 C581 1.603 . S
C579 C574 1.377 . S
C579 C578 1.383 . S
C579 H642 0.929 . S
C580 C576 1.527 . S
C580 H643 0.961 . S
C580 H644 0.959 . S
C580 H645 0.959 . S
C581 C578 1.603 . S
C581 H646 0.960 . S
C581 H647 0.962 . S
C581 H648 0.961 . S
C582 C549 1.587 . S
C582 C583 1.360 . S
C582 C595 1.412 . S
C583 C582 1.360 . S
C583 C584 1.365 1_545 S
C583 H649 0.929 . S
C584 C559 1.553 . S
C584 C583 1.365 1_565 S
C584 C585 1.404 . S
C585 C584 1.404 . S
C585 C586 1.395 . S
C585 C596 1.451 1_565 S
C586 C585 1.395 . S
C586 C587 1.322 . S
C586 H650 0.930 . S
C587 C586 1.322 . S
C587 C588 1.459 . S
C587 H651 0.929 . S
C588 C587 1.459 . S
C588 C589 1.445 . S
C588 C597 1.395 1_565 S
C589 C567 1.432 . S
C589 C588 1.445 . S
C589 C590 1.390 . S
C590 C589 1.390 . S
C590 C591 1.417 1_565 S
C590 H652 0.931 . S
C591 C577 1.497 . S
C591 C590 1.417 1_545 S
C591 C592 1.360 . S
C592 C591 1.360 . S
C592 C593 1.401 . S
C592 C597 1.446 . S
C593 C592 1.401 . S
C593 C594 1.347 . S
C593 H653 0.929 . S
C594 C593 1.347 . S
C594 C595 1.455 . S
C594 H654 0.930 . S
C595 C582 1.412 . S
C595 C594 1.455 . S
C595 C596 1.331 . S
C596 C585 1.451 1_545 S
C596 C595 1.331 . S
C596 C597 1.497 . S
C597 C588 1.395 1_545 S
C597 C592 1.446 . S
C597 C596 1.497 . S
C598 C599 1.582 . S
C598 H655 0.962 . S
C598 H656 0.959 . S
C598 H657 0.958 . S
C599 C598 1.582 . S
C599 O602 1.458 . S
C599 H628 0.980 . S
O600 C545 1.426 . S
O600 C546 1.334 . S
O601 C573 1.412 . S
O601 C574 1.393 . S
O602 C564 1.435 . S
O602 C599 1.458 . S
O603 C555 1.468 . S
O603 C556 1.408 . S
H604 C545 0.980 . S
H605 C544 0.959 . S
H606 C544 0.959 . S
H607 C544 0.960 . S
H608 C547 0.929 . S
H609 C551 0.929 . S
H610 C552 0.959 . S
H611 C552 0.961 . S
H612 C552 0.961 . S
H613 C553 0.960 . S
H614 C553 0.960 . S
H615 C553 0.961 . S
H616 C555 0.980 . S
H617 C554 0.961 . S
H618 C554 0.960 . S
H619 C554 0.959 . S
H620 C557 0.930 . S
H621 C561 0.931 . S
H622 C562 0.959 . S
H623 C562 0.961 . S
H624 C562 0.959 . S
H625 C563 0.960 . S
H626 C563 0.960 . S
H627 C563 0.960 . S
H628 C599 0.980 . S
H629 C565 0.930 . S
H630 C569 0.930 . S
H631 C570 0.961 . S
H632 C570 0.960 . S
H633 C570 0.958 . S
H634 C571 0.961 . S
H635 C571 0.960 . S
H636 C571 0.960 . S
H637 C573 0.980 . S
H638 C572 0.961 . S
H639 C572 0.961 . S
H640 C572 0.959 . S
H641 C575 0.932 . S
H642 C579 0.929 . S
H643 C580 0.961 . S
H644 C580 0.959 . S
H645 C580 0.959 . S
H646 C581 0.960 . S
H647 C581 0.962 . S
H648 C581 0.961 . S
H649 C583 0.929 . S
H650 C586 0.930 . S
H651 C587 0.929 . S
H652 C590 0.931 . S
H653 C593 0.929 . S
H654 C594 0.930 . S
H655 C598 0.962 . S
H656 C598 0.959 . S
H657 C598 0.958 . S
C658 C659 1.560 . S
C658 H719 0.959 . S
C658 H720 0.959 . S
C658 H721 0.960 . S
C659 C658 1.560 . S
C659 O714 1.426 . S
C659 H718 0.980 . S
C660 C661 1.407 . S
C660 C665 1.418 . S
C660 O714 1.334 . S
C661 C660 1.407 . S
C661 C662 1.360 . S
C661 H722 0.929 . S
C662 C661 1.360 . S
C662 C663 1.401 . S
C662 C666 1.527 . S
C663 C662 1.401 . S
C663 C664 1.405 . S
C663 C696 1.587 . S
C664 C663 1.405 . S
C664 C665 1.332 . S
C664 C667 1.496 . S
C665 C660 1.418 . S
C665 C664 1.332 . S
C665 H723 0.929 . S
C666 C662 1.527 . S
C666 H724 0.959 . S
C666 H725 0.961 . S
C666 H726 0.961 . S
C667 C664 1.496 . S
C667 H727 0.960 . S
C667 H728 0.960 . S
C667 H729 0.961 . S
C668 C669 1.517 . S
C668 H731 0.961 . S
C668 H732 0.960 . S
C668 H733 0.959 . S
C669 C668 1.517 . S
C669 O717 1.468 . S
C669 H730 0.980 . S
C670 C671 1.349 . S
C670 C675 1.367 . S
C670 O717 1.408 . S
C671 C670 1.349 . S
C671 C672 1.407 . S
C671 H734 0.930 . S
C672 C671 1.407 . S
C672 C673 1.449 . S
C672 C676 1.535 . S
C673 C672 1.449 . S
C673 C674 1.384 . S
C673 C698 1.553 . S
C674 C673 1.384 . S
C674 C675 1.364 . S
C674 C677 1.450 . S
C675 C670 1.367 . S
C675 C674 1.364 . S
C675 H735 0.931 . S
C676 C672 1.535 . S
C676 H736 0.959 . S
C676 H737 0.961 . S
C676 H738 0.959 . S
C677 C674 1.450 . S
C677 H739 0.960 . S
C677 H740 0.960 . S
C677 H741 0.960 . S
C678 C679 1.309 . S
C678 C683 1.304 . S
C678 O716 1.435 . S
C679 C678 1.309 . S
C679 C680 1.476 . S
C679 H743 0.930 . S
C680 C679 1.476 . S
C680 C681 1.400 . S
C680 C684 1.567 . S
C681 C680 1.400 . S
C681 C682 1.373 . S
C681 C703 1.432 . S
C682 C681 1.373 . S
C682 C683 1.339 . S
C682 C685 1.530 . S
C683 C678 1.304 . S
C683 C682 1.339 . S
C683 H744 0.930 . S
C684 C680 1.567 . S
C684 H745 0.961 . S
C684 H746 0.960 . S
C684 H747 0.958 . S
C685 C682 1.530 . S
C685 H748 0.961 . S
C685 H749 0.960 . S
C685 H750 0.960 . S
C686 C687 1.530 . S
C686 H752 0.961 . S
C686 H753 0.961 . S
C686 H754 0.959 . S
C687 C686 1.530 . S
C687 O715 1.412 . S
C687 H751 0.980 . S
C688 C689 1.288 . S
C688 C693 1.377 . S
C688 O715 1.393 . S
C689 C688 1.288 . S
C689 C690 1.369 . S
C689 H755 0.932 . S
C690 C689 1.369 . S
C690 C691 1.398 . S
C690 C694 1.527 . S
C691 C690 1.398 . S
C691 C692 1.380 . S
C691 C705 1.497 . S
C692 C691 1.380 . S
C692 C693 1.383 . S
C692 C695 1.603 . S
C693 C688 1.377 . S
C693 C692 1.383 . S
C693 H756 0.929 . S
C694 C690 1.527 . S
C694 H757 0.961 . S
C694 H758 0.959 . S
C694 H759 0.959 . S
C695 C692 1.603 . S
C695 H760 0.960 . S
C695 H761 0.962 . S
C695 H762 0.961 . S
C696 C663 1.587 . S
C696 C697 1.360 . S
C696 C709 1.412 . S
C697 C696 1.360 . S
C697 C698 1.365 . S
C697 H763 0.929 . S
C698 C673 1.553 . S
C698 C697 1.365 . S
C698 C699 1.404 . S
C699 C698 1.404 . S
C699 C700 1.395 . S
C699 C710 1.451 . S
C700 C699 1.395 . S
C700 C701 1.322 . S
C700 H764 0.930 . S
C701 C700 1.322 . S
C701 C702 1.459 1_554 S
C701 H765 0.929 1_554 S
C702 C701 1.459 1_556 S
C702 C703 1.445 . S
C702 C711 1.395 1_556 S
C703 C681 1.432 . S
C703 C702 1.445 . S
C703 C704 1.370 . S
C704 C703 1.370 . S
C704 C705 1.438 . S
C704 H766 0.930 . S
C705 C691 1.497 . S
C705 C704 1.438 . S
C705 C706 1.360 . S
C706 C705 1.360 . S
C706 C707 1.401 1_556 S
C706 C711 1.446 1_556 S
C707 C706 1.401 1_554 S
C707 C708 1.347 . S
C707 H767 0.929 . S
C708 C707 1.347 . S
C708 C709 1.455 . S
C708 H768 0.930 . S
C709 C696 1.412 . S
C709 C708 1.455 . S
C709 C710 1.331 . S
C710 C699 1.451 . S
C710 C709 1.331 . S
C710 C711 1.497 . S
C711 C702 1.395 1_554 S
C711 C706 1.446 1_554 S
C711 C710 1.497 . S
C712 C713 1.582 . S
C712 H769 0.962 . S
C712 H770 0.959 . S
C712 H771 0.958 . S
C713 C712 1.582 . S
C713 O716 1.458 . S
C713 H742 0.980 . S
O714 C659 1.426 . S
O714 C660 1.334 . S
O715 C687 1.412 . S
O715 C688 1.393 . S
O716 C678 1.435 . S
O716 C713 1.458 . S
O717 C669 1.468 . S
O717 C670 1.408 . S
H718 C659 0.980 . S
H719 C658 0.959 . S
H720 C658 0.959 . S
H721 C658 0.960 . S
H722 C661 0.929 . S
H723 C665 0.929 . S
H724 C666 0.959 . S
H725 C666 0.961 . S
H726 C666 0.961 . S
H727 C667 0.960 . S
H728 C667 0.960 . S
H729 C667 0.961 . S
H730 C669 0.980 . S
H731 C668 0.961 . S
H732 C668 0.960 . S
H733 C668 0.959 . S
H734 C671 0.930 . S
H735 C675 0.931 . S
H736 C676 0.959 . S
H737 C676 0.961 . S
H738 C676 0.959 . S
H739 C677 0.960 . S
H740 C677 0.960 . S
H741 C677 0.960 . S
H742 C713 0.980 . S
H743 C679 0.930 . S
H744 C683 0.930 . S
H745 C684 0.961 . S
H746 C684 0.960 . S
H747 C684 0.958 . S
H748 C685 0.961 . S
H749 C685 0.960 . S
H750 C685 0.960 . S
H751 C687 0.980 . S
H752 C686 0.961 . S
H753 C686 0.961 . S
H754 C686 0.959 . S
H755 C689 0.932 . S
H756 C693 0.929 . S
H757 C694 0.961 . S
H758 C694 0.959 . S
H759 C694 0.959 . S
H760 C695 0.960 . S
H761 C695 0.962 . S
H762 C695 0.961 . S
H763 C697 0.929 . S
H764 C700 0.930 . S
H765 C701 0.929 1_556 S
H766 C704 0.930 . S
H767 C707 0.929 . S
H768 C708 0.930 . S
H769 C712 0.962 . S
H770 C712 0.959 . S
H771 C712 0.958 . S
H772 C780 0.950 . S
H773 C785 0.950 . S
H774 C782 0.950 . S
H775 C784 0.950 . S
H776 C786 0.950 . S
H777 C788 0.950 . S
H778 C790 0.950 . S
H779 C791 0.950 . S
C780 H772 0.950 . S
C780 C781 1.386 . S
C780 C782 1.391 . S
C781 C780 1.386 . S
C781 C785 1.393 . S
C782 H774 0.950 . S
C782 C780 1.391 . S
C782 C783 1.400 . S
C783 C782 1.400 . S
C783 C784 1.398 . S
C783 C789 1.491 . S
C784 H775 0.950 . S
C784 C783 1.398 . S
C784 C785 1.391 . S
C785 H773 0.950 . S
C785 C781 1.393 . S
C785 C784 1.391 . S
C786 H776 0.950 . S
C786 C787 1.386 . S
C786 C788 1.391 . S
C787 C786 1.386 . S
C787 C791 1.393 . S
C788 H777 0.950 . S
C788 C786 1.391 . S
C788 C789 1.400 . S
C789 C783 1.491 . S
C789 C788 1.400 . S
C789 C790 1.398 . S
C790 H778 0.950 . S
C790 C789 1.398 . S
C790 C791 1.391 . S
C791 H779 0.950 . S
C791 C787 1.393 . S
C791 C790 1.391 . S
H792 C800 0.950 . S
H793 C805 0.950 . S
H794 C802 0.950 . S
H795 C804 0.950 . S
H796 C806 0.950 . S
H797 C808 0.950 . S
H798 C810 0.950 . S
H799 C811 0.950 . S
C800 H792 0.950 . S
C800 C801 1.386 . S
C800 C802 1.391 . S
C801 C800 1.386 . S
C801 C805 1.393 . S
C802 H794 0.950 . S
C802 C800 1.391 . S
C802 C803 1.400 . S
C803 C802 1.400 . S
C803 C804 1.398 . S
C803 C809 1.491 . S
C804 H795 0.950 . S
C804 C803 1.398 . S
C804 C805 1.391 . S
C805 H793 0.950 . S
C805 C801 1.393 . S
C805 C804 1.391 . S
C806 H796 0.950 . S
C806 C807 1.386 . S
C806 C808 1.391 . S
C807 C806 1.386 . S
C807 C811 1.393 . S
C808 H797 0.950 . S
C808 C806 1.391 . S
C808 C809 1.400 . S
C809 C803 1.491 . S
C809 C808 1.400 . S
C809 C810 1.398 . S
C810 H798 0.950 . S
C810 C809 1.398 . S
C810 C811 1.391 . S
C811 H799 0.950 . S
C811 C807 1.393 . S
C811 C810 1.391 . S
H812 C820 0.950 . S
H813 C825 0.950 . S
H814 C822 0.950 . S
H815 C824 0.950 . S
H816 C826 0.950 . S
H817 C828 0.950 . S
H818 C830 0.950 . S
H819 C831 0.950 . S
C820 H812 0.950 . S
C820 C821 1.386 . S
C820 C822 1.391 . S
C821 C820 1.386 . S
C821 C825 1.393 . S
C822 H814 0.950 . S
C822 C820 1.391 . S
C822 C823 1.400 . S
C823 C822 1.400 . S
C823 C824 1.398 . S
C823 C829 1.491 . S
C824 H815 0.950 . S
C824 C823 1.398 . S
C824 C825 1.391 . S
C825 H813 0.950 . S
C825 C821 1.393 . S
C825 C824 1.391 . S
C826 H816 0.950 . S
C826 C827 1.386 . S
C826 C828 1.391 . S
C827 C826 1.386 . S
C827 C831 1.393 . S
C828 H817 0.950 . S
C828 C826 1.391 . S
C828 C829 1.400 . S
C829 C823 1.491 . S
C829 C828 1.400 . S
C829 C830 1.398 . S
C830 H818 0.950 . S
C830 C829 1.398 . S
C830 C831 1.391 . S
C831 H819 0.950 . S
C831 C827 1.393 . S
C831 C830 1.391 . S
H832 C840 0.950 . S
H833 C845 0.950 . S
H834 C842 0.950 . S
H835 C844 0.950 . S
H836 C846 0.950 . S
H837 C848 0.950 . S
H838 C850 0.950 . S
H839 C851 0.950 . S
C840 H832 0.950 . S
C840 C841 1.386 . S
C840 C842 1.391 . S
C841 C840 1.386 . S
C841 C845 1.393 . S
C842 H834 0.950 . S
C842 C840 1.391 . S
C842 C843 1.400 . S
C843 C842 1.400 . S
C843 C844 1.398 . S
C843 C849 1.491 . S
C844 H835 0.950 . S
C844 C843 1.398 . S
C844 C845 1.391 . S
C845 H833 0.950 . S
C845 C841 1.393 . S
C845 C844 1.391 . S
C846 H836 0.950 . S
C846 C847 1.386 . S
C846 C848 1.391 . S
C847 C846 1.386 . S
C847 C851 1.393 . S
C848 H837 0.950 . S
C848 C846 1.391 . S
C848 C849 1.400 . S
C849 C843 1.491 . S
C849 C848 1.400 . S
C849 C850 1.398 . S
C850 H838 0.950 . S
C850 C849 1.398 . S
C850 C851 1.391 . S
C851 H839 0.950 . S
C851 C847 1.393 . S
C851 C850 1.391 . S
H852 C860 0.950 . S
H853 C865 0.950 . S
H854 C862 0.950 . S
H855 C864 0.950 . S
H856 C866 0.950 . S
H857 C868 0.950 . S
H858 C870 0.950 . S
H859 C871 0.950 . S
C860 H852 0.950 . S
C860 C861 1.386 . S
C860 C862 1.391 . S
C861 C860 1.386 . S
C861 C865 1.393 . S
C862 H854 0.950 . S
C862 C860 1.391 . S
C862 C863 1.400 . S
C863 C862 1.400 . S
C863 C864 1.398 . S
C863 C869 1.491 . S
C864 H855 0.950 . S
C864 C863 1.398 . S
C864 C865 1.391 . S
C865 H853 0.950 . S
C865 C861 1.393 . S
C865 C864 1.391 . S
C866 H856 0.950 . S
C866 C867 1.386 . S
C866 C868 1.391 . S
C867 C866 1.386 . S
C867 C871 1.393 . S
C868 H857 0.950 . S
C868 C866 1.391 . S
C868 C869 1.400 . S
C869 C863 1.491 . S
C869 C868 1.400 . S
C869 C870 1.398 . S
C870 H858 0.950 . S
C870 C869 1.398 . S
C870 C871 1.391 . S
C871 H859 0.950 . S
C871 C867 1.393 . S
C871 C870 1.391 . S
H872 C880 0.950 . S
H873 C885 0.950 . S
H874 C882 0.950 . S
H875 C884 0.950 . S
H876 C886 0.950 . S
H877 C888 0.950 . S
H878 C890 0.950 . S
H879 C891 0.950 . S
C880 H872 0.950 . S
C880 C881 1.386 . S
C880 C882 1.391 . S
C881 C880 1.386 . S
C881 C885 1.393 . S
C882 H874 0.950 . S
C882 C880 1.391 . S
C882 C883 1.400 . S
C883 C882 1.400 . S
C883 C884 1.398 . S
C883 C889 1.491 . S
C884 H875 0.950 . S
C884 C883 1.398 . S
C884 C885 1.391 . S
C885 H873 0.950 . S
C885 C881 1.393 . S
C885 C884 1.391 . S
C886 H876 0.950 . S
C886 C887 1.386 . S
C886 C888 1.391 . S
C887 C886 1.386 . S
C887 C891 1.393 . S
C888 H877 0.950 . S
C888 C886 1.391 . S
C888 C889 1.400 . S
C889 C883 1.491 . S
C889 C888 1.400 . S
C889 C890 1.398 . S
C890 H878 0.950 . S
C890 C889 1.398 . S
C890 C891 1.391 . S
C891 H879 0.950 . S
C891 C887 1.393 . S
C891 C890 1.391 . S
H892 C900 0.950 . S
H893 C905 0.950 . S
H894 C902 0.950 . S
H895 C904 0.950 . S
H896 C906 0.950 . S
H897 C908 0.950 . S
H898 C910 0.950 . S
H899 C911 0.950 . S
C900 H892 0.950 . S
C900 C901 1.386 . S
C900 C902 1.391 . S
C901 C900 1.386 . S
C901 C905 1.393 . S
C902 H894 0.950 . S
C902 C900 1.391 . S
C902 C903 1.400 . S
C903 C902 1.400 . S
C903 C904 1.398 . S
C903 C909 1.491 . S
C904 H895 0.950 . S
C904 C903 1.398 . S
C904 C905 1.391 . S
C905 H893 0.950 . S
C905 C901 1.393 . S
C905 C904 1.391 . S
C906 H896 0.950 . S
C906 C907 1.386 . S
C906 C908 1.391 . S
C907 C906 1.386 . S
C907 C911 1.393 . S
C908 H897 0.950 . S
C908 C906 1.391 . S
C908 C909 1.400 . S
C909 C903 1.491 . S
C909 C908 1.400 . S
C909 C910 1.398 . S
C910 H898 0.950 . S
C910 C909 1.398 . S
C910 C911 1.391 . S
C911 H899 0.950 . S
C911 C907 1.393 . S
C911 C910 1.391 . S
H912 C920 0.950 . S
H913 C925 0.950 . S
H914 C922 0.950 . S
H915 C924 0.950 . S
H916 C926 0.950 . S
H917 C928 0.950 . S
H918 C930 0.950 . S
H919 C931 0.950 . S
C920 H912 0.950 . S
C920 C921 1.386 . S
C920 C922 1.391 . S
C921 C920 1.386 . S
C921 C925 1.393 . S
C922 H914 0.950 . S
C922 C920 1.391 . S
C922 C923 1.400 . S
C923 C922 1.400 . S
C923 C924 1.398 . S
C923 C929 1.491 . S
C924 H915 0.950 . S
C924 C923 1.398 . S
C924 C925 1.391 . S
C925 H913 0.950 . S
C925 C921 1.393 . S
C925 C924 1.391 . S
C926 H916 0.950 . S
C926 C927 1.386 . S
C926 C928 1.391 . S
C927 C926 1.386 . S
C927 C931 1.393 . S
C928 H917 0.950 . S
C928 C926 1.391 . S
C928 C929 1.400 . S
C929 C923 1.491 . S
C929 C928 1.400 . S
C929 C930 1.398 . S
C930 H918 0.950 . S
C930 C929 1.398 . S
C930 C931 1.391 . S
C931 H919 0.950 . S
C931 C927 1.393 . S
C931 C930 1.391 . S
H932 C940 0.950 . S
H933 C945 0.950 . S
H934 C942 0.950 . S
H935 C944 0.950 . S
H936 C946 0.950 . S
H937 C948 0.950 1_545 S
H938 C950 0.950 . S
H939 C951 0.950 . S
C940 H932 0.950 . S
C940 C941 1.386 . S
C940 C942 1.391 . S
C941 C940 1.386 . S
C941 C945 1.393 . S
C942 H934 0.950 . S
C942 C940 1.391 . S
C942 C943 1.400 . S
C943 C942 1.400 . S
C943 C944 1.398 . S
C943 C949 1.491 . S
C944 H935 0.950 . S
C944 C943 1.398 . S
C944 C945 1.391 . S
C945 H933 0.950 . S
C945 C941 1.393 . S
C945 C944 1.391 . S
C946 H936 0.950 . S
C946 C947 1.386 . S
C946 C948 1.391 1_545 S
C947 C946 1.386 . S
C947 C951 1.393 1_545 S
C948 H937 0.950 1_565 S
C948 C946 1.391 1_565 S
C948 C949 1.400 . S
C949 C943 1.491 . S
C949 C948 1.400 . S
C949 C950 1.398 . S
C950 H938 0.950 . S
C950 C949 1.398 . S
C950 C951 1.391 . S
C951 H939 0.950 . S
C951 C947 1.393 1_565 S
C951 C950 1.391 . S
H952 C960 0.950 . S
H953 C965 0.950 . S
H954 C962 0.950 . S
H955 C964 0.950 . S
H956 C966 0.950 . S
H957 C968 0.950 . S
H958 C970 0.950 . S
H959 C971 0.950 . S
C960 H952 0.950 . S
C960 C961 1.386 . S
C960 C962 1.391 . S
C961 C960 1.386 . S
C961 C965 1.393 . S
C962 H954 0.950 . S
C962 C960 1.391 . S
C962 C963 1.400 . S
C963 C962 1.400 . S
C963 C964 1.398 . S
C963 C969 1.491 . S
C964 H955 0.950 . S
C964 C963 1.398 . S
C964 C965 1.391 . S
C965 H953 0.950 . S
C965 C961 1.393 . S
C965 C964 1.391 . S
C966 H956 0.950 . S
C966 C967 1.386 . S
C966 C968 1.391 . S
C967 C966 1.386 . S
C967 C971 1.393 . S
C968 H957 0.950 . S
C968 C966 1.391 . S
C968 C969 1.400 . S
C969 C963 1.491 . S
C969 C968 1.400 . S
C969 C970 1.398 . S
C970 H958 0.950 . S
C970 C969 1.398 . S
C970 C971 1.391 . S
C971 H959 0.950 . S
C971 C967 1.393 . S
C971 C970 1.391 . S
H972 C980 0.950 . S
H973 C985 0.950 . S
H974 C982 0.950 . S
H975 C984 0.950 . S
H976 C986 0.950 . S
H977 C988 0.950 . S
H978 C990 0.950 . S
H979 C991 0.950 . S
C980 H972 0.950 . S
C980 C981 1.386 . S
C980 C982 1.391 . S
C981 C980 1.386 . S
C981 C985 1.393 . S
C982 H974 0.950 . S
C982 C980 1.391 . S
C982 C983 1.400 . S
C983 C982 1.400 . S
C983 C984 1.398 . S
C983 C989 1.491 . S
C984 H975 0.950 . S
C984 C983 1.398 . S
C984 C985 1.391 . S
C985 H973 0.950 . S
C985 C981 1.393 . S
C985 C984 1.391 . S
C986 H976 0.950 . S
C986 C987 1.386 . S
C986 C988 1.391 . S
C987 C986 1.386 . S
C987 C991 1.393 . S
C988 H977 0.950 . S
C988 C986 1.391 . S
C988 C989 1.400 . S
C989 C983 1.491 . S
C989 C988 1.400 . S
C989 C990 1.398 . S
C990 H978 0.950 . S
C990 C989 1.398 . S
C990 C991 1.391 . S
C991 H979 0.950 . S
C991 C987 1.393 . S
C991 C990 1.391 . S
H992 C1000 0.950 . S
H993 C1005 0.950 . S
H994 C1002 0.950 . S
H995 C1004 0.950 . S
H996 C1006 0.950 . S
H997 C1008 0.950 . S
H998 C1010 0.950 . S
H999 C1011 0.950 . S
C1000 H992 0.950 . S
C1000 C1001 1.386 . S
C1000 C1002 1.391 . S
C1001 C1000 1.386 . S
C1001 C1005 1.393 . S
C1002 H994 0.950 . S
C1002 C1000 1.391 . S
C1002 C1003 1.400 . S
C1003 C1002 1.400 . S
C1003 C1004 1.398 . S
C1003 C1009 1.491 . S
C1004 H995 0.950 . S
C1004 C1003 1.398 . S
C1004 C1005 1.391 . S
C1005 H993 0.950 . S
C1005 C1001 1.393 . S
C1005 C1004 1.391 . S
C1006 H996 0.950 . S
C1006 C1007 1.386 . S
C1006 C1008 1.391 . S
C1007 C1006 1.386 . S
C1007 C1011 1.393 . S
C1008 H997 0.950 . S
C1008 C1006 1.391 . S
C1008 C1009 1.400 . S
C1009 C1003 1.491 . S
C1009 C1008 1.400 . S
C1009 C1010 1.398 . S
C1010 H998 0.950 . S
C1010 C1009 1.398 . S
C1010 C1011 1.391 . S
C1011 H999 0.950 . S
C1011 C1007 1.393 . S
C1011 C1010 1.391 . S
H1012 C1020 0.950 . S
H1013 C1025 0.950 . S
H1014 C1022 0.950 . S
H1015 C1024 0.950 . S
H1016 C1026 0.950 . S
H1017 C1028 0.950 . S
H1018 C1030 0.950 . S
H1019 C1031 0.950 . S
C1020 H1012 0.950 . S
C1020 C1021 1.386 . S
C1020 C1022 1.391 . S
C1021 C1020 1.386 . S
C1021 C1025 1.393 . S
C1022 H1014 0.950 . S
C1022 C1020 1.391 . S
C1022 C1023 1.400 . S
C1023 C1022 1.400 . S
C1023 C1024 1.398 . S
C1023 C1029 1.491 . S
C1024 H1015 0.950 . S
C1024 C1023 1.398 . S
C1024 C1025 1.391 . S
C1025 H1013 0.950 . S
C1025 C1021 1.393 . S
C1025 C1024 1.391 . S
C1026 H1016 0.950 . S
C1026 C1027 1.386 . S
C1026 C1028 1.391 . S
C1027 C1026 1.386 . S
C1027 C1031 1.393 . S
C1028 H1017 0.950 . S
C1028 C1026 1.391 . S
C1028 C1029 1.400 . S
C1029 C1023 1.491 . S
C1029 C1028 1.400 . S
C1029 C1030 1.398 . S
C1030 H1018 0.950 . S
C1030 C1029 1.398 . S
C1030 C1031 1.391 . S
C1031 H1019 0.950 . S
C1031 C1027 1.393 . S
C1031 C1030 1.391 . S
H1032 C1040 0.950 . S
H1033 C1045 0.950 . S
H1034 C1042 0.950 . S
H1035 C1044 0.950 . S
H1036 C1046 0.950 . S
H1037 C1048 0.950 . S
H1038 C1050 0.950 . S
H1039 C1051 0.950 . S
C1040 H1032 0.950 . S
C1040 C1041 1.386 . S
C1040 C1042 1.391 . S
C1041 C1040 1.386 . S
C1041 C1045 1.393 . S
C1042 H1034 0.950 . S
C1042 C1040 1.391 . S
C1042 C1043 1.400 . S
C1043 C1042 1.400 . S
C1043 C1044 1.398 . S
C1043 C1049 1.491 . S
C1044 H1035 0.950 . S
C1044 C1043 1.398 . S
C1044 C1045 1.391 . S
C1045 H1033 0.950 . S
C1045 C1041 1.393 . S
C1045 C1044 1.391 . S
C1046 H1036 0.950 . S
C1046 C1047 1.386 . S
C1046 C1048 1.391 . S
C1047 C1046 1.386 . S
C1047 C1051 1.393 . S
C1048 H1037 0.950 . S
C1048 C1046 1.391 . S
C1048 C1049 1.400 . S
C1049 C1043 1.491 . S
C1049 C1048 1.400 . S
C1049 C1050 1.398 . S
C1050 H1038 0.950 . S
C1050 C1049 1.398 . S
C1050 C1051 1.391 . S
C1051 H1039 0.950 . S
C1051 C1047 1.393 . S
C1051 C1050 1.391 . S
H1052 C1060 0.950 . S
H1053 C1065 0.950 . S
H1054 C1062 0.950 . S
H1055 C1064 0.950 . S
H1056 C1066 0.950 . S
H1057 C1068 0.950 . S
H1058 C1070 0.950 . S
H1059 C1071 0.950 . S
C1060 H1052 0.950 . S
C1060 C1061 1.386 . S
C1060 C1062 1.391 . S
C1061 C1060 1.386 . S
C1061 C1065 1.393 . S
C1062 H1054 0.950 . S
C1062 C1060 1.391 . S
C1062 C1063 1.400 . S
C1063 C1062 1.400 . S
C1063 C1064 1.398 . S
C1063 C1069 1.491 . S
C1064 H1055 0.950 . S
C1064 C1063 1.398 . S
C1064 C1065 1.391 . S
C1065 H1053 0.950 . S
C1065 C1061 1.393 . S
C1065 C1064 1.391 . S
C1066 H1056 0.950 . S
C1066 C1067 1.386 . S
C1066 C1068 1.391 . S
C1067 C1066 1.386 . S
C1067 C1071 1.393 . S
C1068 H1057 0.950 . S
C1068 C1066 1.391 . S
C1068 C1069 1.400 . S
C1069 C1063 1.491 . S
C1069 C1068 1.400 . S
C1069 C1070 1.398 . S
C1070 H1058 0.950 . S
C1070 C1069 1.398 . S
C1070 C1071 1.391 . S
C1071 H1059 0.950 . S
C1071 C1067 1.393 . S
C1071 C1070 1.391 . S
H1072 C1080 0.950 . S
H1073 C1085 0.950 . S
H1074 C1082 0.950 . S
H1075 C1084 0.950 . S
H1076 C1086 0.950 . S
H1077 C1088 0.950 . S
H1078 C1090 0.950 . S
H1079 C1091 0.950 . S
C1080 H1072 0.950 . S
C1080 C1081 1.386 . S
C1080 C1082 1.391 . S
C1081 C1080 1.386 . S
C1081 C1085 1.393 . S
C1082 H1074 0.950 . S
C1082 C1080 1.391 . S
C1082 C1083 1.400 . S
C1083 C1082 1.400 . S
C1083 C1084 1.398 . S
C1083 C1089 1.491 . S
C1084 H1075 0.950 . S
C1084 C1083 1.398 . S
C1084 C1085 1.391 . S
C1085 H1073 0.950 . S
C1085 C1081 1.393 . S
C1085 C1084 1.391 . S
C1086 H1076 0.950 . S
C1086 C1087 1.386 . S
C1086 C1088 1.391 . S
C1087 C1086 1.386 . S
C1087 C1091 1.393 . S
C1088 H1077 0.950 . S
C1088 C1086 1.391 . S
C1088 C1089 1.400 . S
C1089 C1083 1.491 . S
C1089 C1088 1.400 . S
C1089 C1090 1.398 . S
C1090 H1078 0.950 . S
C1090 C1089 1.398 . S
C1090 C1091 1.391 . S
C1091 H1079 0.950 . S
C1091 C1087 1.393 . S
C1091 C1090 1.391 . S
H1092 C1100 0.950 . S
H1093 C1105 0.950 . S
H1094 C1102 0.950 . S
H1095 C1104 0.950 . S
H1096 C1106 0.950 . S
H1097 C1108 0.950 . S
H1098 C1110 0.950 . S
H1099 C1111 0.950 . S
C1100 H1092 0.950 . S
C1100 C1101 1.386 . S
C1100 C1102 1.391 . S
C1101 C1100 1.386 . S
C1101 C1105 1.393 . S
C1102 H1094 0.950 . S
C1102 C1100 1.391 . S
C1102 C1103 1.400 . S
C1103 C1102 1.400 . S
C1103 C1104 1.398 . S
C1103 C1109 1.491 . S
C1104 H1095 0.950 . S
C1104 C1103 1.398 . S
C1104 C1105 1.391 . S
C1105 H1093 0.950 . S
C1105 C1101 1.393 . S
C1105 C1104 1.391 . S
C1106 H1096 0.950 . S
C1106 C1107 1.386 . S
C1106 C1108 1.391 . S
C1107 C1106 1.386 . S
C1107 C1111 1.393 . S
C1108 H1097 0.950 . S
C1108 C1106 1.391 . S
C1108 C1109 1.400 . S
C1109 C1103 1.491 . S
C1109 C1108 1.400 . S
C1109 C1110 1.398 . S
C1110 H1098 0.950 . S
C1110 C1109 1.398 . S
C1110 C1111 1.391 . S
C1111 H1099 0.950 . S
C1111 C1107 1.393 . S
C1111 C1110 1.391 . S
H1112 C1120 0.950 . S
H1113 C1125 0.950 . S
H1114 C1122 0.950 . S
H1115 C1124 0.950 . S
H1116 C1126 0.950 . S
H1117 C1128 0.950 . S
H1118 C1130 0.950 . S
H1119 C1131 0.950 . S
C1120 H1112 0.950 . S
C1120 C1121 1.386 . S
C1120 C1122 1.391 . S
C1121 C1120 1.386 . S
C1121 C1125 1.393 . S
C1122 H1114 0.950 . S
C1122 C1120 1.391 . S
C1122 C1123 1.400 . S
C1123 C1122 1.400 . S
C1123 C1124 1.398 . S
C1123 C1129 1.491 . S
C1124 H1115 0.950 . S
C1124 C1123 1.398 . S
C1124 C1125 1.391 . S
C1125 H1113 0.950 . S
C1125 C1121 1.393 . S
C1125 C1124 1.391 . S
C1126 H1116 0.950 . S
C1126 C1127 1.386 . S
C1126 C1128 1.391 . S
C1127 C1126 1.386 . S
C1127 C1131 1.393 . S
C1128 H1117 0.950 . S
C1128 C1126 1.391 . S
C1128 C1129 1.400 . S
C1129 C1123 1.491 . S
C1129 C1128 1.400 . S
C1129 C1130 1.398 . S
C1130 H1118 0.950 . S
C1130 C1129 1.398 . S
C1130 C1131 1.391 . S
C1131 H1119 0.950 . S
C1131 C1127 1.393 . S
C1131 C1130 1.391 . S
H1132 C1140 0.950 . S
H1133 C1145 0.950 . S
H1134 C1142 0.950 . S
H1135 C1144 0.950 . S
H1136 C1146 0.950 . S
H1137 C1148 0.950 . S
H1138 C1150 0.950 . S
H1139 C1151 0.950 . S
C1140 H1132 0.950 . S
C1140 C1141 1.386 . S
C1140 C1142 1.391 . S
C1141 C1140 1.386 . S
C1141 C1145 1.393 . S
C1142 H1134 0.950 . S
C1142 C1140 1.391 . S
C1142 C1143 1.400 . S
C1143 C1142 1.400 . S
C1143 C1144 1.398 . S
C1143 C1149 1.491 . S
C1144 H1135 0.950 . S
C1144 C1143 1.398 . S
C1144 C1145 1.391 . S
C1145 H1133 0.950 . S
C1145 C1141 1.393 . S
C1145 C1144 1.391 . S
C1146 H1136 0.950 . S
C1146 C1147 1.386 . S
C1146 C1148 1.391 . S
C1147 C1146 1.386 . S
C1147 C1151 1.393 . S
C1148 H1137 0.950 . S
C1148 C1146 1.391 . S
C1148 C1149 1.400 . S
C1149 C1143 1.491 . S
C1149 C1148 1.400 . S
C1149 C1150 1.398 . S
C1150 H1138 0.950 . S
C1150 C1149 1.398 . S
C1150 C1151 1.391 . S
C1151 H1139 0.950 . S
C1151 C1147 1.393 . S
C1151 C1150 1.391 . S
H1152 C1160 0.950 . S
H1153 C1165 0.950 . S
H1154 C1162 0.950 . S
H1155 C1164 0.950 . S
H1156 C1166 0.950 . S
H1157 C1168 0.950 . S
H1158 C1170 0.950 . S
H1159 C1171 0.950 . S
C1160 H1152 0.950 . S
C1160 C1161 1.386 . S
C1160 C1162 1.391 . S
C1161 C1160 1.386 . S
C1161 C1165 1.393 . S
C1162 H1154 0.950 . S
C1162 C1160 1.391 . S
C1162 C1163 1.400 . S
C1163 C1162 1.400 . S
C1163 C1164 1.398 . S
C1163 C1169 1.491 . S
C1164 H1155 0.950 . S
C1164 C1163 1.398 . S
C1164 C1165 1.391 . S
C1165 H1153 0.950 . S
C1165 C1161 1.393 . S
C1165 C1164 1.391 . S
C1166 H1156 0.950 . S
C1166 C1167 1.386 . S
C1166 C1168 1.391 . S
C1167 C1166 1.386 . S
C1167 C1171 1.393 . S
C1168 H1157 0.950 . S
C1168 C1166 1.391 . S
C1168 C1169 1.400 . S
C1169 C1163 1.491 . S
C1169 C1168 1.400 . S
C1169 C1170 1.398 . S
C1170 H1158 0.950 . S
C1170 C1169 1.398 . S
C1170 C1171 1.391 . S
C1171 H1159 0.950 . S
C1171 C1167 1.393 . S
C1171 C1170 1.391 . S
H1172 C1180 0.950 . S
H1173 C1185 0.950 . S
H1174 C1182 0.950 . S
H1175 C1184 0.950 . S
H1176 C1186 0.950 . S
H1177 C1188 0.950 . S
H1178 C1190 0.950 . S
H1179 C1191 0.950 . S
C1180 H1172 0.950 . S
C1180 C1181 1.386 . S
C1180 C1182 1.391 . S
C1181 C1180 1.386 . S
C1181 C1185 1.393 . S
C1182 H1174 0.950 . S
C1182 C1180 1.391 . S
C1182 C1183 1.400 . S
C1183 C1182 1.400 . S
C1183 C1184 1.398 . S
C1183 C1189 1.491 . S
C1184 H1175 0.950 . S
C1184 C1183 1.398 . S
C1184 C1185 1.391 . S
C1185 H1173 0.950 . S
C1185 C1181 1.393 . S
C1185 C1184 1.391 . S
C1186 H1176 0.950 . S
C1186 C1187 1.386 . S
C1186 C1188 1.391 . S
C1187 C1186 1.386 . S
C1187 C1191 1.393 . S
C1188 H1177 0.950 . S
C1188 C1186 1.391 . S
C1188 C1189 1.400 . S
C1189 C1183 1.491 . S
C1189 C1188 1.400 . S
C1189 C1190 1.398 . S
C1190 H1178 0.950 . S
C1190 C1189 1.398 . S
C1190 C1191 1.391 . S
C1191 H1179 0.950 . S
C1191 C1187 1.393 . S
C1191 C1190 1.391 . S
H1192 C1200 0.950 . S
H1193 C1205 0.950 . S
H1194 C1202 0.950 . S
H1195 C1204 0.950 . S
H1196 C1206 0.950 . S
H1197 C1208 0.950 . S
H1198 C1210 0.950 . S
H1199 C1211 0.950 . S
C1200 H1192 0.950 . S
C1200 C1201 1.386 . S
C1200 C1202 1.391 . S
C1201 C1200 1.386 . S
C1201 C1205 1.393 . S
C1202 H1194 0.950 . S
C1202 C1200 1.391 . S
C1202 C1203 1.400 . S
C1203 C1202 1.400 . S
C1203 C1204 1.398 . S
C1203 C1209 1.491 . S
C1204 H1195 0.950 . S
C1204 C1203 1.398 . S
C1204 C1205 1.391 . S
C1205 H1193 0.950 . S
C1205 C1201 1.393 . S
C1205 C1204 1.391 . S
C1206 H1196 0.950 . S
C1206 C1207 1.386 . S
C1206 C1208 1.391 . S
C1207 C1206 1.386 . S
C1207 C1211 1.393 . S
C1208 H1197 0.950 . S
C1208 C1206 1.391 . S
C1208 C1209 1.400 . S
C1209 C1203 1.491 . S
C1209 C1208 1.400 . S
C1209 C1210 1.398 . S
C1210 H1198 0.950 . S
C1210 C1209 1.398 . S
C1210 C1211 1.391 . S
C1211 H1199 0.950 . S
C1211 C1207 1.393 . S
C1211 C1210 1.391 . S
H1212 C1220 0.950 . S
H1213 C1225 0.950 . S
H1214 C1222 0.950 . S
H1215 C1224 0.950 . S
H1216 C1226 0.950 . S
H1217 C1228 0.950 . S
H1218 C1230 0.950 . S
H1219 C1231 0.950 . S
C1220 H1212 0.950 . S
C1220 C1221 1.386 . S
C1220 C1222 1.391 . S
C1221 C1220 1.386 . S
C1221 C1225 1.393 . S
C1222 H1214 0.950 . S
C1222 C1220 1.391 . S
C1222 C1223 1.400 . S
C1223 C1222 1.400 . S
C1223 C1224 1.398 . S
C1223 C1229 1.491 . S
C1224 H1215 0.950 . S
C1224 C1223 1.398 . S
C1224 C1225 1.391 . S
C1225 H1213 0.950 . S
C1225 C1221 1.393 . S
C1225 C1224 1.391 . S
C1226 H1216 0.950 . S
C1226 C1227 1.386 . S
C1226 C1228 1.391 1_545 S
C1227 C1226 1.386 . S
C1227 C1231 1.393 1_545 S
C1228 H1217 0.950 . S
C1228 C1226 1.391 1_565 S
C1228 C1229 1.400 . S
C1229 C1223 1.491 . S
C1229 C1228 1.400 . S
C1229 C1230 1.398 . S
C1230 H1218 0.950 . S
C1230 C1229 1.398 . S
C1230 C1231 1.391 . S
C1231 H1219 0.950 . S
C1231 C1227 1.393 1_565 S
C1231 C1230 1.391 . S
H1232 C1240 0.950 . S
H1233 C1245 0.950 . S
H1234 C1242 0.950 . S
H1235 C1244 0.950 . S
H1236 C1246 0.950 . S
H1237 C1248 0.950 . S
H1238 C1250 0.950 . S
H1239 C1251 0.950 . S
C1240 H1232 0.950 . S
C1240 C1241 1.386 . S
C1240 C1242 1.391 . S
C1241 C1240 1.386 . S
C1241 C1245 1.393 . S
C1242 H1234 0.950 . S
C1242 C1240 1.391 . S
C1242 C1243 1.400 . S
C1243 C1242 1.400 . S
C1243 C1244 1.398 . S
C1243 C1249 1.491 . S
C1244 H1235 0.950 . S
C1244 C1243 1.398 . S
C1244 C1245 1.391 . S
C1245 H1233 0.950 . S
C1245 C1241 1.393 . S
C1245 C1244 1.391 . S
C1246 H1236 0.950 . S
C1246 C1247 1.386 . S
C1246 C1248 1.391 . S
C1247 C1246 1.386 . S
C1247 C1251 1.393 . S
C1248 H1237 0.950 . S
C1248 C1246 1.391 . S
C1248 C1249 1.400 . S
C1249 C1243 1.491 . S
C1249 C1248 1.400 . S
C1249 C1250 1.398 . S
C1250 H1238 0.950 . S
C1250 C1249 1.398 . S
C1250 C1251 1.391 . S
C1251 H1239 0.950 . S
C1251 C1247 1.393 . S
C1251 C1250 1.391 . S
C787 C99 1.038 . S
C781 C5 1.660 . S
C807 C231 1.239 . S
C801 C16 1.288 . S
C827 C117 1.696 . S
C821 C30 1.908 . S
C847 C213 0.933 . S
C841 C40 1.627 . S
C867 C345 1.141 . S
C861 C8 1.548 . S
C887 C459 1.126 . S
C881 C18 1.351 . S
C901 C29 1.820 . S
C907 C599 1.459 . S
C927 C713 1.310 . S
C921 C38 1.423 . S
C947 C327 1.010 . S
C941 C19 1.454 . S
C961 C27 1.601 . S
C967 C441 1.086 . S
C987 C545 1.261 . S
C981 C41 1.570 . S
C1007 C659 1.149 . S
C1001 C7 1.517 . S
C1021 C52 1.680 . S
C1027 C257 1.141 . S
C1047 C89 1.485 . S
C1041 C62 1.752 . S
C1061 C74 1.304 . S
C1067 C203 1.074 . S
C1081 C82 1.379 . S
C1087 C143 1.111 . S
C1107 C555 1.329 . S
C1101 C51 1.840 . S
C1127 C669 1.498 . S
C1121 C60 1.616 . S
C1147 C317 0.989 . S
C1141 C71 1.173 . S
C1161 C84 1.368 . S
C1167 C431 1.057 . S
C1187 C573 1.408 . S
C1181 C63 1.691 . S
C1207 C687 1.186 . S
C1201 C73 1.531 . S
C1227 C371 1.341 . S
C1221 C85 1.619 . S
C1241 C49 1.412 . S
C1247 C485 1.318 . S
