# Generated by pormake.
# Topology nom, (4,4)-cn, num edge types: 1
# Building blocks:
#     Node 0, Type 0, BuildingBlock: NAHDIM_clean_linker_0, # of connection points: 4
#     Node 1, Type 0, BuildingBlock: NAHDIM_clean_linker_0, # of connection points: 4
#     Node 2, Type 0, BuildingBlock: NAHDIM_clean_linker_0, # of connection points: 4
#     Node 3, Type 0, BuildingBlock: NAHDIM_clean_linker_0, # of connection points: 4
#     Node 4, Type 0, BuildingBlock: NAHDIM_clean_linker_0, # of connection points: 4
#     Node 5, Type 0, BuildingBlock: NAHDIM_clean_linker_0, # of connection points: 4
#     Node 6, Type 1, BuildingBlock: AZAVOO_clean_sbu_0, # of connection points: 4
#     Node 7, Type 1, BuildingBlock: AZAVOO_clean_sbu_0, # of connection points: 4
#     Node 8, Type 1, BuildingBlock: AZAVOO_clean_sbu_0, # of connection points: 4
#     Node 9, Type 1, BuildingBlock: AZAVOO_clean_sbu_0, # of connection points: 4
#     Node 10, Type 1, BuildingBlock: AZAVOO_clean_sbu_0, # of connection points: 4
#     Node 11, Type 1, BuildingBlock: AZAVOO_clean_sbu_0, # of connection points: 4
#     Edge 12, Type (0, 1), BuildingBlock: UVAHIK_clean_linker_0, # of connection points: 2
#     Edge 13, Type (0, 1), BuildingBlock: UVAHIK_clean_linker_0, # of connection points: 2
#     Edge 14, Type (0, 1), BuildingBlock: UVAHIK_clean_linker_0, # of connection points: 2
#     Edge 15, Type (0, 1), BuildingBlock: UVAHIK_clean_linker_0, # of connection points: 2
#     Edge 16, Type (0, 1), BuildingBlock: UVAHIK_clean_linker_0, # of connection points: 2
#     Edge 17, Type (0, 1), BuildingBlock: UVAHIK_clean_linker_0, # of connection points: 2
#     Edge 18, Type (0, 1), BuildingBlock: UVAHIK_clean_linker_0, # of connection points: 2
#     Edge 19, Type (0, 1), BuildingBlock: UVAHIK_clean_linker_0, # of connection points: 2
#     Edge 20, Type (0, 1), BuildingBlock: UVAHIK_clean_linker_0, # of connection points: 2
#     Edge 21, Type (0, 1), BuildingBlock: UVAHIK_clean_linker_0, # of connection points: 2
#     Edge 22, Type (0, 1), BuildingBlock: UVAHIK_clean_linker_0, # of connection points: 2
#     Edge 23, Type (0, 1), BuildingBlock: UVAHIK_clean_linker_0, # of connection points: 2
#     Edge 24, Type (0, 1), BuildingBlock: UVAHIK_clean_linker_0, # of connection points: 2
#     Edge 25, Type (0, 1), BuildingBlock: UVAHIK_clean_linker_0, # of connection points: 2
#     Edge 26, Type (0, 1), BuildingBlock: UVAHIK_clean_linker_0, # of connection points: 2
#     Edge 27, Type (0, 1), BuildingBlock: UVAHIK_clean_linker_0, # of connection points: 2
#     Edge 28, Type (0, 1), BuildingBlock: UVAHIK_clean_linker_0, # of connection points: 2
#     Edge 29, Type (0, 1), BuildingBlock: UVAHIK_clean_linker_0, # of connection points: 2
#     Edge 30, Type (0, 1), BuildingBlock: UVAHIK_clean_linker_0, # of connection points: 2
#     Edge 31, Type (0, 1), BuildingBlock: UVAHIK_clean_linker_0, # of connection points: 2
#     Edge 32, Type (0, 1), BuildingBlock: UVAHIK_clean_linker_0, # of connection points: 2
#     Edge 33, Type (0, 1), BuildingBlock: UVAHIK_clean_linker_0, # of connection points: 2
#     Edge 34, Type (0, 1), BuildingBlock: UVAHIK_clean_linker_0, # of connection points: 2
#     Edge 35, Type (0, 1), BuildingBlock: UVAHIK_clean_linker_0, # of connection points: 2
# Relax obj value: 0.095
# Max RMSD: 0.169
# Mean RMSD: 0.146
data_MOF--net-nom--node1-AZAVOO_clean_sbu_0--node2-NAHDIM_clean_linker_0--edge1-UVAHIK_clean_linker_0
_symmetry_space_group_name_H-M    P1
_symmetry_Int_Tables_number       1
_symmetry_cell_setting            triclinic
loop_
_symmetry_equiv_pos_as_xyz
'x, y, z'
_cell_length_a     69.589448
_cell_length_b     70.244079
_cell_length_c     82.847129
_cell_angle_alpha  90.817534
_cell_angle_beta   90.871528
_cell_angle_gamma 120.0094
loop_
_atom_site_label
_atom_site_type_symbol
_atom_site_fract_x
_atom_site_fract_y
_atom_site_fract_z
_atom_type_partial_charge
C0 C 0.13046 0.57736 0.26294 0.0
C1 C 0.14005 0.58834 0.27954 0.0
C2 C 0.10509 0.57997 0.29222 0.0
C3 C 0.09796 0.55789 0.29563 0.0
C4 C 0.07603 0.54354 0.30003 0.0
C5 C 0.06085 0.55133 0.30092 0.0
C6 C 0.06813 0.5737 0.29802 0.0
C7 C 0.09028 0.5878 0.2939 0.0
C8 C 0.06893 0.51986 0.30332 0.0
C9 C 0.05235 0.58251 0.29884 0.0
C10 C 0.98819 0.47762 0.20896 0.0
C11 C 0.96957 0.47846 0.21796 0.0
C12 C 0.9717 0.47518 0.24706 0.0
C13 C 0.97024 0.49347 0.25235 0.0
C14 C 0.97894 0.50341 0.26755 0.0
C15 C 0.98906 0.4947 0.27766 0.0
C16 C 0.98918 0.47537 0.27278 0.0
C17 C 0.98027 0.46572 0.25754 0.0
C18 C 0.978 0.52365 0.27259 0.0
C19 C -0.00044 0.46547 0.28338 0.0
C20 C 0.89856 0.43764 0.35947 0.0
C21 C 0.9022 0.45864 0.35582 0.0
C22 C 0.92385 0.4766 0.35495 0.0
C23 C 0.94215 0.4734 0.35768 0.0
C24 C 0.93847 0.4525 0.36219 0.0
C25 C 0.91665 0.43492 0.36321 0.0
C26 C 0.92719 0.49884 0.35067 0.0
C27 C 0.9576 0.44857 0.36541 0.0
C28 C 0.09838 0.60679 0.40041 0.0
C29 C 0.08601 0.5846 0.4087 0.0
C30 C 0.04664 0.56347 0.40216 0.0
C31 C 0.03123 0.56853 0.3955 0.0
C32 C 0.01473 0.55396 0.38445 0.0
C33 C 0.01356 0.53379 0.38028 0.0
C34 C 0.02776 0.52772 0.38822 0.0
C35 C 0.04421 0.54268 0.39911 0.0
C36 C -0.00048 0.5607 0.37644 0.0
C37 C 0.02645 0.50602 0.38445 0.0
C38 C 0.03709 0.53565 0.30381 0.0
C39 C 0.02383 0.52326 0.2906 0.0
C40 C 0.00166 0.50715 0.29241 0.0
C41 C 0.99227 0.50318 0.30786 0.0
C42 C 0.97014 0.48682 0.31018 0.0
C43 C 0.96119 0.48285 0.32551 0.0
C44 C 0.97395 0.49533 0.33908 0.0
C45 C 0.96504 0.49142 0.35474 0.0
C46 C 0.97814 0.50426 0.36793 0.0
C47 C 0.00013 0.52081 0.36594 0.0
C48 C 0.00942 0.52475 0.35042 0.0
C49 C 0.03166 0.54101 0.34808 0.0
C50 C 0.04079 0.54454 0.33286 0.0
C51 C 0.02796 0.53221 0.31933 0.0
C52 C 0.00546 0.51587 0.32136 0.0
C53 C 0.99624 0.51203 0.33696 0.0
C54 C 0.8507 0.39322 0.34091 0.0
C55 C 0.86056 0.4161 0.34888 0.0
O56 O 0.12582 0.59405 0.28695 0.0
O57 O 0.06416 0.57918 0.41095 0.0
O58 O 0.87791 0.41966 0.35926 0.0
O59 O 0.96518 0.46643 0.23191 0.0
H60 H 0.14244 0.57683 0.28726 0.0
H61 H 0.11444 0.56187 0.26422 0.0
H62 H 0.1276 0.58852 0.25517 0.0
H63 H 0.14203 0.57317 0.25685 0.0
H64 H 0.10926 0.5516 0.29472 0.0
H65 H 0.09595 0.60488 0.29139 0.0
H66 H 0.05741 0.50915 0.29349 0.0
H67 H 0.08324 0.51701 0.30404 0.0
H68 H 0.05989 0.51484 0.31481 0.0
H69 H 0.06053 0.60026 0.29604 0.0
H70 H 0.03822 0.57318 0.29016 0.0
H71 H 0.04541 0.58018 0.3111 0.0
H72 H 0.97576 0.49615 0.22081 0.0
H73 H 0.99152 0.48668 0.19751 0.0
H74 H 0.00365 0.48549 0.21657 0.0
H75 H 0.98382 0.46037 0.20619 0.0
H76 H 0.96253 0.50014 0.24457 0.0
H77 H 0.98086 0.4513 0.25346 0.0
H78 H 0.99508 0.53805 0.27325 0.0
H79 H 0.96783 0.52722 0.26403 0.0
H80 H 0.97099 0.52156 0.28482 0.0
H81 H 0.9971 0.44967 0.27828 0.0
H82 H 0.01764 0.47718 0.28486 0.0
H83 H 0.99234 0.46259 0.29557 0.0
H84 H 0.86677 0.42783 0.33876 0.0
H85 H 0.88819 0.46102 0.35354 0.0
H86 H 0.91362 0.41872 0.36629 0.0
H87 H 0.93435 0.50319 0.33849 0.0
H88 H 0.91141 0.49919 0.35064 0.0
H89 H 0.93917 0.51162 0.35936 0.0
H90 H 0.95193 0.43128 0.36861 0.0
H91 H 0.96798 0.45259 0.35455 0.0
H92 H 0.96826 0.4596 0.37546 0.0
H93 H 0.08699 0.57259 0.40031 0.0
H94 H 0.11625 0.61203 0.3994 0.0
H95 H 0.09127 0.60521 0.38804 0.0
H96 H 0.09677 0.61969 0.40711 0.0
H97 H 0.033 0.58447 0.39824 0.0
H98 H 0.05559 0.53842 0.40487 0.0
H99 H 0.00356 0.56372 0.36348 0.0
H100 H 0.982 0.54723 0.37707 0.0
H101 H 0.00107 0.57586 0.38211 0.0
H102 H 0.03677 0.50264 0.39299 0.0
H103 H 0.00898 0.49242 0.38487 0.0
H104 H 0.03228 0.50619 0.37202 0.0
H105 H 0.03099 0.526 0.27871 0.0
H106 H 0.95955 0.47679 0.30016 0.0
H107 H 0.94412 0.4699 0.32656 0.0
H108 H 0.97123 0.50118 0.3799 0.0
H109 H 0.04237 0.55115 0.35799 0.0
H110 H 0.05802 0.55714 0.33181 0.0
H111 H 0.83636 0.38981 0.33285 0.0
H112 H 0.86346 0.3924 0.3335 0.0
H113 H 0.84517 0.38026 0.35009 0.0
C114 C 0.44679 0.90468 0.55872 0.0
C115 C 0.4395 0.89398 0.54179 0.0
C116 C 0.44851 0.92721 0.52682 0.0
C117 C 0.47139 0.93517 0.5255 0.0
C118 C 0.48576 0.95678 0.52081 0.0
C119 C 0.47715 0.97084 0.51756 0.0
C120 C 0.45408 0.96279 0.51859 0.0
C121 C 0.44001 0.94093 0.52296 0.0
C122 C 0.51024 0.96474 0.51959 0.0
C123 C 0.44438 0.97742 0.51541 0.0
C124 C 0.55549 0.11394 0.59997 0.0
C125 C 0.54482 0.10255 0.58436 0.0
C126 C 0.54479 0.07605 0.56496 0.0
C127 C 0.52561 0.07262 0.55647 0.0
C128 C 0.517 0.05782 0.54325 0.0
C129 C 0.52777 0.04622 0.53837 0.0
C130 C 0.54697 0.04948 0.54691 0.0
C131 C 0.55525 0.06442 0.56012 0.0
C132 C 0.49639 0.05462 0.53444 0.0
C133 C 0.55878 0.03732 0.54199 0.0
C134 C 0.59145 0.12748 0.45466 0.0
C135 C 0.57003 0.12329 0.4582 0.0
C136 C 0.55232 0.10163 0.45912 0.0
C137 C 0.55627 0.08388 0.45678 0.0
C138 C 0.5776 0.08809 0.45243 0.0
C139 C 0.59487 0.1099 0.45122 0.0
C140 C 0.52955 0.09772 0.4631 0.0
C141 C 0.58236 0.06958 0.44966 0.0
C142 C 0.41372 0.93979 0.40347 0.0
C143 C 0.43829 0.94672 0.40246 0.0
C144 C 0.46565 0.98345 0.41184 0.0
C145 C 0.46357 0.00094 0.41788 0.0
C146 C 0.47807 0.01505 0.4301 0.0
C147 C 0.49554 0.01195 0.43591 0.0
C148 C 0.49862 0.99515 0.42896 0.0
C149 C 0.48335 0.98079 0.41715 0.0
C150 C 0.47432 0.03287 0.43708 0.0
C151 C 0.51769 0.99205 0.43426 0.0
C152 C 0.49254 0.99418 0.5138 0.0
C153 C 0.50334 0.00893 0.52675 0.0
C154 C 0.51891 0.03092 0.52416 0.0
C155 C 0.52449 0.03838 0.50825 0.0
C156 C 0.54106 0.06007 0.50525 0.0
C157 C 0.54612 0.06738 0.48955 0.0
C158 C 0.53432 0.0535 0.47624 0.0
C159 C 0.5387 0.06109 0.46025 0.0
C160 C 0.52626 0.04704 0.44734 0.0
C161 C 0.50955 0.0254 0.44994 0.0
C162 C 0.5054 0.01731 0.46581 0.0
C163 C 0.48911 0.99548 0.46888 0.0
C164 C 0.48527 0.98768 0.48452 0.0
C165 C 0.49684 0.00168 0.49779 0.0
C166 C 0.51306 0.02383 0.49502 0.0
C167 C 0.51768 0.03152 0.479 0.0
C168 C 0.63615 0.17974 0.46927 0.0
C169 C 0.61184 0.16603 0.4637 0.0
O170 O 0.4342 0.90669 0.53203 0.0
O171 O 0.45038 0.96933 0.40086 0.0
O172 O 0.6092 0.14816 0.45456 0.0
O173 O 0.55359 0.09032 0.57784 0.0
H174 H 0.45313 0.89233 0.53639 0.0
H175 H 0.46189 0.92115 0.55811 0.0
H176 H 0.43339 0.90663 0.56424 0.0
H177 H 0.45082 0.89448 0.56667 0.0
H178 H 0.47825 0.9247 0.52813 0.0
H179 H 0.42234 0.93463 0.52392 0.0
H180 H 0.51957 0.97747 0.52915 0.0
H181 H 0.51403 0.95124 0.52097 0.0
H182 H 0.51631 0.97245 0.50775 0.0
H183 H 0.42627 0.96899 0.51756 0.0
H184 H 0.45286 0.99243 0.5233 0.0
H185 H 0.44721 0.98278 0.50271 0.0
H186 H 0.54276 0.11305 0.5753 0.0
H187 H 0.52999 0.09866 0.61652 0.0
H188 H 0.57163 0.11389 0.60109 0.0
H189 H 0.56361 0.13201 0.59741 0.0
H190 H 0.51724 0.08143 0.56005 0.0
H191 H 0.56999 0.0671 0.56675 0.0
H192 H 0.50033 0.0597 0.52173 0.0
H193 H 0.48344 0.03695 0.5342 0.0
H194 H 0.48949 0.06427 0.54011 0.0
H195 H 0.57366 0.04185 0.54978 0.0
H196 H 0.54724 0.01933 0.54264 0.0
H197 H 0.56396 0.04093 0.52927 0.0
H198 H 0.60183 0.16028 0.4748 0.0
H199 H 0.56712 0.13688 0.46033 0.0
H200 H 0.61139 0.11335 0.44822 0.0
H201 H 0.52576 0.09212 0.4757 0.0
H202 H 0.52839 0.11285 0.46193 0.0
H203 H 0.51673 0.08459 0.45504 0.0
H204 H 0.59994 0.07564 0.44658 0.0
H205 H 0.57854 0.0596 0.46067 0.0
H206 H 0.57149 0.05858 0.43967 0.0
H207 H 0.44315 0.9418 0.41388 0.0
H208 H 0.40347 0.92186 0.40549 0.0
H209 H 0.41131 0.94866 0.41374 0.0
H210 H 0.40783 0.9438 0.39216 0.0
H211 H 0.44997 0.00294 0.41344 0.0
H212 H 0.48517 0.96751 0.41204 0.0
H213 H 0.4731 0.03158 0.45042 0.0
H214 H 0.48868 0.04922 0.43443 0.0
H215 H 0.459 0.032 0.43206 0.0
H216 H 0.52012 0.98111 0.42574 0.0
H217 H 0.53331 0.00816 0.4353 0.0
H218 H 0.51436 0.98458 0.44634 0.0
H219 H 0.49941 0.00325 0.53902 0.0
H220 H 0.55042 0.07159 0.51502 0.0
H221 H 0.55919 0.08419 0.48802 0.0
H222 H 0.5294 0.05312 0.43514 0.0
H223 H 0.47922 0.98406 0.45921 0.0
H224 H 0.47277 0.97065 0.48611 0.0
H225 H 0.64713 0.18596 0.45872 0.0
H226 H 0.6387 0.19394 0.47698 0.0
H227 H 0.64094 0.16948 0.47648 0.0
C228 C 0.57646 0.45758 0.70733 0.0
C229 C 0.5818 0.4507 0.69107 0.0
C230 C 0.55807 0.45936 0.67427 0.0
C231 C 0.57263 0.48212 0.67332 0.0
C232 C 0.56476 0.49622 0.66883 0.0
C233 C 0.54186 0.48741 0.66536 0.0
C234 C 0.52729 0.46441 0.6657 0.0
C235 C 0.53571 0.45064 0.66991 0.0
C236 C 0.58082 0.52063 0.66826 0.0
C237 C 0.50273 0.45445 0.66221 0.0
C238 C 0.47366 0.54463 0.7572 0.0
C239 C 0.4756 0.53469 0.7418 0.0
C240 C 0.50135 0.54166 0.72006 0.0
C241 C 0.4855 0.52472 0.70983 0.0
C242 C 0.49147 0.51989 0.69491 0.0
C243 C 0.51371 0.53236 0.69 0.0
C244 C 0.5296 0.54976 0.70004 0.0
C245 C 0.52318 0.55419 0.71498 0.0
C246 C 0.47409 0.50109 0.68454 0.0
C247 C 0.55341 0.56338 0.6951 0.0
C248 C 0.48193 0.59508 0.60982 0.0
C249 C 0.46613 0.57301 0.61251 0.0
C250 C 0.47232 0.55682 0.61282 0.0
C251 C 0.49477 0.56289 0.61051 0.0
C252 C 0.51044 0.58491 0.60696 0.0
C253 C 0.50371 0.60069 0.60649 0.0
C254 C 0.45503 0.53335 0.61606 0.0
C255 C 0.53444 0.59189 0.60422 0.0
C256 C 0.52528 0.43926 0.56898 0.0
C257 C 0.5342 0.45927 0.55812 0.0
C258 C 0.51554 0.47965 0.56408 0.0
C259 C 0.49513 0.47347 0.57098 0.0
C260 C 0.49302 0.48745 0.58217 0.0
C261 C 0.51174 0.50816 0.58623 0.0
C262 C 0.5318 0.51532 0.57803 0.0
C263 C 0.53351 0.50092 0.56703 0.0
C264 C 0.47123 0.47952 0.59044 0.0
C265 C 0.55182 0.5376 0.5817 0.0
C266 C 0.53299 0.50245 0.66271 0.0
C267 C 0.52884 0.51158 0.67636 0.0
C268 C 0.52047 0.52589 0.67497 0.0
C269 C 0.5167 0.53186 0.65953 0.0
C270 C 0.50929 0.54702 0.6577 0.0
C271 C 0.50497 0.55225 0.64243 0.0
C272 C 0.50739 0.54212 0.62843 0.0
C273 C 0.50218 0.54662 0.61286 0.0
C274 C 0.504 0.53562 0.59927 0.0
C275 C 0.51137 0.5205 0.60078 0.0
C276 C 0.51751 0.51645 0.61616 0.0
C277 C 0.5258 0.50194 0.61802 0.0
C278 C 0.53141 0.49775 0.63321 0.0
C279 C 0.52833 0.50738 0.64716 0.0
C280 C 0.5202 0.5222 0.64558 0.0
C281 C 0.51513 0.52701 0.63004 0.0
C282 C 0.47158 0.63438 0.62912 0.0
C283 C 0.46126 0.61186 0.62052 0.0
O284 O 0.56478 0.44544 0.67983 0.0
O285 O 0.51778 0.46457 0.55519 0.0
O286 O 0.47681 0.61135 0.61054 0.0
O287 O 0.49624 0.5462 0.73488 0.0
H288 H 0.59759 0.4644 0.68659 0.0
H289 H 0.57527 0.47266 0.70608 0.0
H290 H 0.56042 0.44425 0.71178 0.0
H291 H 0.58978 0.46123 0.71648 0.0
H292 H 0.5901 0.48905 0.67625 0.0
H293 H 0.52466 0.43304 0.67053 0.0
H294 H 0.57753 0.52912 0.67833 0.0
H295 H 0.59839 0.52461 0.66932 0.0
H296 H 0.5784 0.52725 0.65679 0.0
H297 H 0.49352 0.43634 0.66359 0.0
H298 H 0.49574 0.46188 0.67048 0.0
H299 H 0.49996 0.45814 0.64969 0.0
H300 H 0.46923 0.51663 0.74209 0.0
H301 H 0.47085 0.53216 0.76663 0.0
H302 H 0.49111 0.55668 0.76155 0.0
H303 H 0.45018 0.55406 0.75156 0.0
H304 H 0.46847 0.51496 0.71348 0.0
H305 H 0.53527 0.56729 0.72287 0.0
H306 H 0.47209 0.50737 0.67279 0.0
H307 H 0.47951 0.48895 0.682 0.0
H308 H 0.45769 0.49253 0.69034 0.0
H309 H 0.56324 0.57765 0.70348 0.0
H310 H 0.56124 0.55296 0.69487 0.0
H311 H 0.55408 0.56948 0.68271 0.0
H312 H 0.45685 0.5997 0.63028 0.0
H313 H 0.44902 0.56843 0.61447 0.0
H314 H 0.51567 0.6177 0.60415 0.0
H315 H 0.45833 0.52883 0.62815 0.0
H316 H 0.43794 0.53083 0.61574 0.0
H317 H 0.45597 0.52204 0.60701 0.0
H318 H 0.54458 0.60967 0.60165 0.0
H319 H 0.54161 0.58837 0.61507 0.0
H320 H 0.53556 0.58224 0.59392 0.0
H321 H 0.5486 0.47286 0.5649 0.0
H322 H 0.53782 0.43401 0.57061 0.0
H323 H 0.52166 0.44365 0.58105 0.0
H324 H 0.50967 0.42528 0.56384 0.0
H325 H 0.48125 0.45715 0.56833 0.0
H326 H 0.54905 0.50597 0.5611 0.0
H327 H 0.47324 0.47682 0.60338 0.0
H328 H 0.4662 0.49222 0.58988 0.0
H329 H 0.45775 0.46392 0.58492 0.0
H330 H 0.56509 0.5419 0.5728 0.0
H331 H 0.547 0.55046 0.58177 0.0
H332 H 0.55865 0.53763 0.59391 0.0
H333 H 0.53169 0.50709 0.68827 0.0
H334 H 0.50681 0.55504 0.66807 0.0
H335 H 0.49937 0.56409 0.64177 0.0
H336 H 0.49951 0.53876 0.58741 0.0
H337 H 0.52811 0.49365 0.60777 0.0
H338 H 0.53779 0.48653 0.63389 0.0
H339 H 0.45927 0.63525 0.63703 0.0
H340 H 0.48601 0.63703 0.63677 0.0
H341 H 0.47747 0.6478 0.62029 0.0
C342 C 0.12834 0.57975 0.89694 0.0
C343 C 0.13877 0.58075 0.88058 0.0
C344 C 0.10513 0.55652 0.86425 0.0
C345 C 0.09805 0.57185 0.86181 0.0
C346 C 0.07684 0.56518 0.8553 0.0
C347 C 0.0623 0.54271 0.85134 0.0
C348 C 0.06955 0.52732 0.85339 0.0
C349 C 0.09105 0.53454 0.8596 0.0
C350 C 0.06969 0.58205 0.85308 0.0
C351 C 0.05436 0.50316 0.84955 0.0
C352 C 0.92567 0.46412 0.93033 0.0
C353 C 0.9381 0.46837 0.91514 0.0
C354 C 0.96078 0.49797 0.89705 0.0
C355 C 0.96139 0.48386 0.88511 0.0
C356 C 0.97421 0.49227 0.87139 0.0
C357 C 0.98634 0.51531 0.86934 0.0
C358 C 0.98515 0.52955 0.88102 0.0
C359 C 0.9724 0.52066 0.89478 0.0
C360 C 0.97527 0.47645 0.85936 0.0
C361 C 0.99771 0.55414 0.87911 0.0
C362 C 0.90227 0.4936 0.78214 0.0
C363 C 0.90701 0.47767 0.78793 0.0
C364 C 0.92901 0.48241 0.79007 0.0
C365 C 0.94661 0.50372 0.78676 0.0
C366 C 0.94186 0.51946 0.78021 0.0
C367 C 0.91966 0.51404 0.77776 0.0
C368 C 0.93338 0.4648 0.79631 0.0
C369 C 0.9602 0.54223 0.77631 0.0
C370 C 0.0965 0.50346 0.74593 0.0
C371 C 0.08387 0.51548 0.74175 0.0
C372 C 0.04627 0.50404 0.74975 0.0
C373 C 0.02895 0.48625 0.7573 0.0
C374 C 0.01464 0.48929 0.76737 0.0
C375 C 0.0175 0.51061 0.76952 0.0
C376 C 0.03375 0.52829 0.76072 0.0
C377 C 0.04813 0.52486 0.751 0.0
C378 C 0.99711 0.46991 0.77626 0.0
C379 C 0.03657 0.55098 0.76218 0.0
C380 C 0.03888 0.53516 0.84663 0.0
C381 C 0.02411 0.53119 0.85907 0.0
C382 C 0.0018 0.52422 0.85577 0.0
C383 C 0.9942 0.52243 0.83962 0.0
C384 C 0.9724 0.51747 0.8359 0.0
C385 C 0.96465 0.51431 0.81995 0.0
C386 C 0.97813 0.51505 0.80719 0.0
C387 C 0.96984 0.50993 0.79105 0.0
C388 C 0.98332 0.50955 0.77885 0.0
C389 C 0.00514 0.51463 0.78227 0.0
C390 C 0.01415 0.5211 0.79815 0.0
C391 C 0.0364 0.52742 0.80188 0.0
C392 C 0.04484 0.53295 0.81765 0.0
C393 C 0.03105 0.53128 0.8304 0.0
C394 C 0.00864 0.52509 0.8269 0.0
C395 C 0.00038 0.52069 0.8107 0.0
C396 C 0.85118 0.48941 0.79465 0.0
C397 C 0.86465 0.47794 0.79177 0.0
O398 O 0.12512 0.56205 0.87125 0.0
O399 O 0.06127 0.50071 0.7418 0.0
O400 O 0.88117 0.48985 0.78092 0.0
O401 O 0.9495 0.4903 0.91094 0.0
H402 H 0.14136 0.59561 0.87417 0.0
H403 H 0.11231 0.57938 0.89524 0.0
H404 H 0.12525 0.56475 0.90341 0.0
H405 H 0.1395 0.59449 0.90455 0.0
H406 H 0.10879 0.589 0.86509 0.0
H407 H 0.09669 0.52285 0.86142 0.0
H408 H 0.05668 0.5792 0.86187 0.0
H409 H 0.0837 0.59914 0.85492 0.0
H410 H 0.06237 0.58033 0.84077 0.0
H411 H 0.06236 0.49324 0.85221 0.0
H412 H 0.03906 0.49686 0.85668 0.0
H413 H 0.04926 0.50075 0.83659 0.0
H414 H 0.94837 0.46028 0.91424 0.0
H415 H 0.9338 0.45778 0.93887 0.0
H416 H 0.93245 0.4805 0.93686 0.0
H417 H 0.89239 0.44515 0.92255 0.0
H418 H 0.95222 0.46624 0.88651 0.0
H419 H 0.97172 0.53143 0.90397 0.0
H420 H 0.96696 0.4765 0.84784 0.0
H421 H 0.9928 0.48162 0.85676 0.0
H422 H 0.96701 0.45933 0.86372 0.0
H423 H 0.99256 0.5627 0.88793 0.0
H424 H 0.01575 0.56039 0.88097 0.0
H425 H 0.99513 0.55832 0.86669 0.0
H426 H 0.87227 0.47804 0.80374 0.0
H427 H 0.8936 0.46156 0.79084 0.0
H428 H 0.91579 0.52609 0.77306 0.0
H429 H 0.93892 0.46848 0.80917 0.0
H430 H 0.91831 0.44823 0.79545 0.0
H431 H 0.94681 0.46447 0.78947 0.0
H432 H 0.95372 0.55279 0.77176 0.0
H433 H 0.97077 0.55026 0.78727 0.0
H434 H 0.97092 0.54107 0.76702 0.0
H435 H 0.08864 0.52833 0.75146 0.0
H436 H 0.11469 0.51489 0.74541 0.0
H437 H 0.09256 0.49718 0.75838 0.0
H438 H 0.09174 0.48925 0.73754 0.0
H439 H 0.02741 0.47017 0.75596 0.0
H440 H 0.06102 0.53849 0.74461 0.0
H441 H -0.00023 0.47323 0.78949 0.0
H442 H 0.98046 0.46745 0.77304 0.0
H443 H 0.99721 0.45447 0.77338 0.0
H444 H 0.04761 0.56209 0.75284 0.0
H445 H 0.02017 0.55003 0.76112 0.0
H446 H 0.04387 0.55827 0.77427 0.0
H447 H 0.0299 0.53272 0.87152 0.0
H448 H 0.96115 0.51601 0.84533 0.0
H449 H 0.94774 0.51061 0.81782 0.0
H450 H 0.97655 0.50459 0.76664 0.0
H451 H 0.04761 0.52822 0.79266 0.0
H452 H 0.0621 0.53782 0.81981 0.0
H453 H 0.84389 0.49121 0.78315 0.0
H454 H 0.83762 0.47992 0.80314 0.0
H455 H 0.86214 0.50609 0.80004 0.0
C456 C 0.45179 0.90796 0.92223 0.0
C457 C 0.45352 0.89946 0.93885 0.0
C458 C 0.47897 0.93481 0.95248 0.0
C459 C 0.46315 0.9412 0.95555 0.0
C460 C 0.46971 0.96271 0.96079 0.0
C461 C 0.49256 0.97825 0.96288 0.0
C462 C 0.50854 0.9718 0.96016 0.0
C463 C 0.50148 0.95004 0.95517 0.0
C464 C 0.45221 0.96894 0.96387 0.0
C465 C 0.53303 0.988 0.96225 0.0
C466 C 0.51291 0.08996 0.87342 0.0
C467 C 0.50235 0.08009 0.8889 0.0
C468 C 0.514 0.07426 0.9155 0.0
C469 C 0.53241 0.07802 0.92493 0.0
C470 C 0.52993 0.06621 0.93899 0.0
C471 C 0.50837 0.05068 0.94394 0.0
C472 C 0.48958 0.04744 0.93478 0.0
C473 C 0.49258 0.05914 0.92057 0.0
C474 C 0.55041 0.06988 0.94826 0.0
C475 C 0.46633 0.03125 0.9398 0.0
C476 C 0.52237 0.13013 0.03462 0.0
C477 C 0.54065 0.12955 0.02822 0.0
C478 C 0.53965 0.10942 0.02488 0.0
C479 C 0.51967 0.0895 0.02741 0.0
C480 C 0.50138 0.0901 0.03414 0.0
C481 C 0.50317 0.11046 0.03793 0.0
C482 C 0.5599 0.10948 0.01853 0.0
C483 C 0.47983 0.06927 0.03715 0.0
C484 C 0.51279 0.93854 0.07137 0.0
C485 C 0.50329 0.95352 0.07533 0.0
C486 C 0.51899 0.99106 0.06611 0.0
C487 C 0.53841 0.00745 0.05938 0.0
C488 C 0.53783 0.0226 0.04882 0.0
C489 C 0.51732 0.0214 0.04518 0.0
C490 C 0.49792 0.00601 0.05302 0.0
C491 C 0.49896 0.99099 0.06346 0.0
C492 C 0.55889 0.03912 0.04089 0.0
C493 C 0.47593 0.00476 0.04975 0.0
C494 C 0.49955 0.00143 0.96721 0.0
C495 C 0.50121 0.01527 0.95473 0.0
C496 C 0.50561 0.03668 0.95795 0.0
C497 C 0.50798 0.04445 0.9741 0.0
C498 C 0.51067 0.06524 0.97786 0.0
C499 C 0.51334 0.07282 0.99382 0.0
C500 C 0.51409 0.06019 0.00659 0.0
C501 C 0.51764 0.06804 0.02283 0.0
C502 C 0.51872 0.05515 0.03514 0.0
C503 C 0.51568 0.03427 0.03175 0.0
C504 C 0.51135 0.02583 0.01569 0.0
C505 C 0.50732 0.0045 0.01197 0.0
C506 C 0.50309 0.99633 0.99614 0.0
C507 C 0.50338 0.00939 0.98337 0.0
C508 C 0.50748 0.03096 0.98683 0.0
C509 C 0.511 0.03902 0.00305 0.0
C510 C 0.52155 0.18092 0.02955 0.0
C511 C 0.53444 0.16857 0.02948 0.0
O512 O 0.47332 0.91438 0.94668 0.0
O513 O 0.52004 0.97527 0.07468 0.0
O514 O 0.52268 0.14929 0.03783 0.0
O515 O 0.51766 0.08518 0.90147 0.0
H516 H 0.43929 0.89697 0.94625 0.0
H517 H 0.45178 0.9237 0.92353 0.0
H518 H 0.46604 0.91074 0.91474 0.0
H519 H 0.43609 0.89592 0.91583 0.0
H520 H 0.44564 0.92962 0.9538 0.0
H521 H 0.51358 0.94497 0.9529 0.0
H522 H 0.4536 0.98116 0.95492 0.0
H523 H 0.43512 0.95455 0.96297 0.0
H524 H 0.45487 0.97676 0.97606 0.0
H525 H 0.54338 0.98048 0.95941 0.0
H526 H 0.53773 0.00215 0.95427 0.0
H527 H 0.53681 0.99452 0.97489 0.0
H528 H 0.48816 0.08237 0.89226 0.0
H529 H 0.50541 0.06269 0.85845 0.0
H530 H 0.50703 0.10187 0.87057 0.0
H531 H 0.53048 0.10321 0.87649 0.0
H532 H 0.54884 0.08978 0.92092 0.0
H533 H 0.47818 0.05631 0.91345 0.0
H534 H 0.551 0.07713 0.96037 0.0
H535 H 0.5498 0.05395 0.95006 0.0
H536 H 0.56594 0.0811 0.942 0.0
H537 H 0.45365 0.03361 0.93325 0.0
H538 H 0.46291 0.01429 0.93714 0.0
H539 H 0.4646 0.03279 0.95299 0.0
H540 H 0.53564 0.16452 0.0166 0.0
H541 H 0.5558 0.14474 0.02599 0.0
H542 H 0.48927 0.11112 0.04306 0.0
H543 H 0.55736 0.10508 0.00545 0.0
H544 H 0.5751 0.12586 0.02012 0.0
H545 H 0.56261 0.09708 0.02473 0.0
H546 H 0.4664 0.07263 0.04053 0.0
H547 H 0.47432 0.05831 0.02622 0.0
H548 H 0.48241 0.06032 0.04711 0.0
H549 H 0.49025 0.94962 0.06582 0.0
H550 H 0.49975 0.92099 0.07235 0.0
H551 H 0.51878 0.94125 0.0588 0.0
H552 H 0.52699 0.94205 0.0796 0.0
H553 H 0.55385 0.00764 0.06178 0.0
H554 H 0.48405 0.97895 0.06926 0.0
H555 H 0.5576 0.03518 0.02775 0.0
H556 H 0.56117 0.05587 0.04232 0.0
H557 H 0.57377 0.03918 0.04602 0.0
H558 H 0.46279 0.99314 0.0578 0.0
H559 H 0.47773 0.02129 0.05138 0.0
H560 H 0.47051 0.9993 0.03702 0.0
H561 H 0.49887 0.00922 0.94232 0.0
H562 H 0.51058 0.07579 0.9685 0.0
H563 H 0.51512 0.08886 0.99597 0.0
H564 H 0.52178 0.06136 0.04753 0.0
H565 H 0.50722 0.99377 0.02125 0.0
H566 H 0.49994 0.97975 0.99402 0.0
H567 H 0.51936 0.18514 0.04211 0.0
H568 H 0.53048 0.19629 0.02266 0.0
H569 H 0.5049 0.17048 0.02376 0.0
C570 C 0.56233 0.46373 0.09143 0.0
C571 C 0.57144 0.46588 0.10876 0.0
C572 C 0.56156 0.49224 0.12034 0.0
C573 C 0.53871 0.47734 0.12168 0.0
C574 C 0.52405 0.48473 0.12589 0.0
C575 C 0.53233 0.50744 0.12879 0.0
C576 C 0.55533 0.52244 0.12772 0.0
C577 C 0.56967 0.51458 0.12364 0.0
C578 C 0.4996 0.46829 0.12704 0.0
C579 C 0.56468 0.54678 0.13066 0.0
C580 C 0.46229 0.58264 0.0492 0.0
C581 C 0.47213 0.58005 0.06446 0.0
C582 C 0.47269 0.5514 0.08055 0.0
C583 C 0.48724 0.5659 0.09265 0.0
C584 C 0.49353 0.55799 0.10597 0.0
C585 C 0.48446 0.53503 0.10756 0.0
C586 C 0.4695 0.52036 0.09556 0.0
C587 C 0.46399 0.52879 0.08211 0.0
C588 C 0.51011 0.57432 0.11823 0.0
C589 C 0.45934 0.4958 0.09694 0.0
C590 C 0.4178 0.55434 0.19068 0.0
C591 C 0.43948 0.57014 0.18664 0.0
C592 C 0.45619 0.56462 0.18556 0.0
C593 C 0.45097 0.5427 0.18824 0.0
C594 C 0.42941 0.52701 0.19305 0.0
C595 C 0.41314 0.53315 0.19443 0.0
C596 C 0.47926 0.58209 0.1811 0.0
C597 C 0.42336 0.50358 0.19621 0.0
C598 C 0.59423 0.54104 0.24528 0.0
C599 C 0.569 0.52632 0.24414 0.0
C600 C 0.54296 0.53673 0.23353 0.0
C601 C 0.54409 0.55534 0.22683 0.0
C602 C 0.52879 0.55337 0.21481 0.0
C603 C 0.51147 0.5322 0.20985 0.0
C604 C 0.50924 0.51336 0.21755 0.0
C605 C 0.52526 0.5158 0.22917 0.0
C606 C 0.53156 0.57391 0.20707 0.0
C607 C 0.49037 0.49065 0.21315 0.0
C608 C 0.5167 0.51543 0.13232 0.0
C609 C 0.507 0.52018 0.11925 0.0
C610 C 0.49125 0.52668 0.12162 0.0
C611 C 0.48413 0.52743 0.13738 0.0
C612 C 0.46688 0.53191 0.14007 0.0
C613 C 0.46092 0.53394 0.15568 0.0
C614 C 0.47243 0.53221 0.16918 0.0
C615 C 0.4677 0.53597 0.18507 0.0
C616 C 0.47995 0.53481 0.19816 0.0
C617 C 0.49689 0.52991 0.19583 0.0
C618 C 0.50135 0.52534 0.18007 0.0
C619 C 0.51788 0.51978 0.17729 0.0
C620 C 0.52242 0.51578 0.16171 0.0
C621 C 0.51138 0.51823 0.14826 0.0
C622 C 0.49481 0.52399 0.15077 0.0
C623 C 0.48934 0.52692 0.1667 0.0
C624 C 0.37452 0.56298 0.17499 0.0
C625 C 0.39887 0.57308 0.18042 0.0
O626 O 0.57627 0.48592 0.11573 0.0
O627 O 0.55942 0.53948 0.24392 0.0
O628 O 0.40101 0.55891 0.1908 0.0
O629 O 0.46682 0.55855 0.0672 0.0
H630 H 0.55899 0.45224 0.11606 0.0
H631 H 0.54664 0.4642 0.09134 0.0
H632 H 0.57453 0.4774 0.08403 0.0
H633 H 0.55877 0.44783 0.08576 0.0
H634 H 0.5321 0.45996 0.11937 0.0
H635 H 0.5873 0.52594 0.12267 0.0
H636 H 0.49014 0.47179 0.11779 0.0
H637 H 0.49589 0.45107 0.12519 0.0
H638 H 0.49363 0.46989 0.13906 0.0
H639 H 0.58294 0.55633 0.1292 0.0
H640 H 0.55671 0.55294 0.12211 0.0
H641 H 0.56084 0.54982 0.14307 0.0
H642 H 0.49015 0.59221 0.06628 0.0
H643 H 0.4769 0.59334 0.04155 0.0
H644 H 0.45701 0.56726 0.04163 0.0
H645 H 0.4399 0.59234 0.05702 0.0
H646 H 0.49402 0.58344 0.09174 0.0
H647 H 0.45273 0.51772 0.07275 0.0
H648 H 0.50142 0.574 0.12943 0.0
H649 H 0.52296 0.56996 0.12141 0.0
H650 H 0.5185 0.59139 0.11376 0.0
H651 H 0.44582 0.48658 0.08778 0.0
H652 H 0.47235 0.49127 0.09523 0.0
H653 H 0.45259 0.49061 0.10917 0.0
H654 H 0.40817 0.57473 0.16919 0.0
H655 H 0.44339 0.58678 0.18425 0.0
H656 H 0.39644 0.52118 0.19778 0.0
H657 H 0.48227 0.57927 0.1684 0.0
H658 H 0.48156 0.5989 0.18223 0.0
H659 H 0.49192 0.58124 0.18888 0.0
H660 H 0.40568 0.49321 0.19943 0.0
H661 H 0.42654 0.49625 0.18534 0.0
H662 H 0.43399 0.50333 0.20625 0.0
H663 H 0.56511 0.51659 0.23259 0.0
H664 H 0.60239 0.53089 0.24522 0.0
H665 H 0.60006 0.55198 0.23476 0.0
H666 H 0.59933 0.55142 0.25652 0.0
H667 H 0.55766 0.57141 0.23053 0.0
H668 H 0.52405 0.50142 0.23479 0.0
H669 H 0.53202 0.57245 0.19373 0.0
H670 H 0.51714 0.57593 0.2099 0.0
H671 H 0.54695 0.58893 0.21138 0.0
H672 H 0.48884 0.4783 0.22204 0.0
H673 H 0.47445 0.49069 0.21237 0.0
H674 H 0.49323 0.48552 0.20111 0.0
H675 H 0.51212 0.51924 0.1071 0.0
H676 H 0.45783 0.53392 0.13012 0.0
H677 H 0.44751 0.53741 0.157 0.0
H678 H 0.4768 0.53853 0.21026 0.0
H679 H 0.52747 0.51837 0.18711 0.0
H680 H 0.53518 0.51139 0.16031 0.0
H681 H 0.36364 0.55951 0.18552 0.0
H682 H 0.3724 0.57428 0.16686 0.0
H683 H 0.36912 0.54724 0.16827 0.0
Mg684 Mg 0.6103 0.38613 0.37929 0.0
O685 O 0.60627 0.40197 0.4024 0.0
O686 O 0.6248 0.4384 0.39934 0.0
Mg687 Mg 0.63897 0.44562 0.374 0.0
C688 C 0.61296 0.42151 0.40771 0.0
C689 C 0.59861 0.33848 0.38339 0.0
O690 O 0.60304 0.34178 0.36799 0.0
O691 O 0.64645 0.39788 0.38612 0.0
O692 O 0.66326 0.43367 0.38079 0.0
O693 O 0.57947 0.38393 0.36865 0.0
O694 O 0.61327 0.41223 0.3661 0.0
C695 C 0.66397 0.41665 0.38512 0.0
C696 C 0.59222 0.40359 0.3635 0.0
O697 O 0.59943 0.35398 0.39202 0.0
Mg698 Mg 0.23798 0.63 0.58618 0.0
O699 O 0.21595 0.61593 0.5635 0.0
O700 O 0.19675 0.57933 0.56532 0.0
Mg701 Mg 0.20477 0.57044 0.5901 0.0
C702 C 0.202 0.5969 0.55772 0.0
C703 C 0.26361 0.67982 0.58235 0.0
O704 O 0.25537 0.67755 0.59682 0.0
O705 O 0.26045 0.61719 0.57775 0.0
O706 O 0.24067 0.58136 0.58289 0.0
O707 O 0.21172 0.63368 0.5983 0.0
O708 O 0.21469 0.60383 0.59933 0.0
C709 C 0.25853 0.59818 0.57842 0.0
C710 C 0.20393 0.61372 0.60306 0.0
O711 O 0.25921 0.66267 0.57409 0.0
Mg712 Mg 0.63145 0.24612 0.75532 0.0
O713 O 0.62851 0.22543 0.73295 0.0
O714 O 0.64227 0.20368 0.73921 0.0
Mg715 Mg 0.65427 0.21094 0.76573 0.0
C716 C 0.63315 0.21054 0.72914 0.0
C717 C 0.61135 0.27439 0.7468 0.0
O718 O 0.60348 0.26676 0.76107 0.0
O719 O 0.66833 0.26757 0.75189 0.0
O720 O 0.68193 0.24641 0.76017 0.0
O721 O 0.59843 0.22008 0.7628 0.0
O722 O 0.62994 0.22174 0.7702 0.0
C723 C 0.68466 0.26468 0.75506 0.0
C724 C 0.60853 0.21131 0.77017 0.0
O725 O 0.62411 0.26862 0.74026 0.0
Mg726 Mg 0.41079 0.6413 0.8874 0.0
O727 O 0.41524 0.62713 0.91102 0.0
O728 O 0.39829 0.59059 0.90736 0.0
Mg729 Mg 0.38567 0.58179 0.88116 0.0
C730 C 0.40898 0.60793 0.91627 0.0
C731 C 0.42698 0.69015 0.89064 0.0
O732 O 0.42851 0.68692 0.87517 0.0
O733 O 0.37418 0.62753 0.89254 0.0
O734 O 0.35951 0.59164 0.88678 0.0
O735 O 0.44257 0.64572 0.87773 0.0
O736 O 0.40992 0.6155 0.87452 0.0
C737 C 0.35748 0.60812 0.89096 0.0
C738 C 0.43094 0.6257 0.87216 0.0
O739 O 0.42007 0.6739 0.89993 0.0
Mg740 Mg 0.77138 0.39903 0.06386 0.0
O741 O 0.79373 0.40381 0.08599 0.0
O742 O 0.80959 0.38341 0.08124 0.0
Mg743 Mg 0.79956 0.36793 0.05585 0.0
C744 C 0.80635 0.39634 0.09033 0.0
C745 C 0.74408 0.42097 0.06838 0.0
O746 O 0.74742 0.42138 0.05279 0.0
O747 O 0.74682 0.36417 0.071 0.0
O748 O 0.76365 0.34542 0.06391 0.0
O749 O 0.79867 0.42804 0.05213 0.0
O750 O 0.79244 0.39408 0.04918 0.0
C751 C 0.74689 0.34611 0.0693 0.0
C752 C 0.80443 0.41462 0.046 0.0
O753 O 0.75256 0.41258 0.07751 0.0
Mg754 Mg 0.39833 0.80081 0.22752 0.0
O755 O 0.41476 0.81998 0.25105 0.0
O756 O 0.45103 0.84133 0.24665 0.0
Mg757 Mg 0.45765 0.83558 0.22055 0.0
C758 C 0.43438 0.83429 0.25585 0.0
C759 C 0.35006 0.7664 0.23088 0.0
O760 O 0.35259 0.76955 0.21527 0.0
O761 O 0.41264 0.7785 0.23181 0.0
O762 O 0.44816 0.7996 0.22534 0.0
O763 O 0.39278 0.82762 0.21889 0.0
O764 O 0.42298 0.82572 0.21429 0.0
C765 C 0.43191 0.78117 0.22953 0.0
C766 C 0.41236 0.83629 0.21285 0.0
O767 O 0.36671 0.7775 0.24032 0.0
C768 C 0.18142 0.60612 0.27654 0.0
C769 C 0.16259 0.60851 0.27742 0.0
C770 C 0.20203 0.62396 0.27285 0.0
C771 C 0.23477 0.68411 0.27205 0.0
H772 H 0.26588 0.67376 0.23763 0.0
C773 C 0.32504 0.74666 0.25378 0.0
C774 C 0.32842 0.74962 0.2371 0.0
C775 C 0.30471 0.73019 0.25947 0.0
C776 C 0.25737 0.6769 0.24723 0.0
H777 H 0.15058 0.63153 0.27487 0.0
H778 H 0.18684 0.66292 0.2688 0.0
H779 H 0.23069 0.64357 0.24659 0.0
H780 H 0.31298 0.7379 0.21333 0.0
H781 H 0.27773 0.70918 0.22326 0.0
H782 H 0.26157 0.71754 0.27262 0.0
C783 C 0.18559 0.64722 0.27118 0.0
C784 C 0.23734 0.6596 0.25245 0.0
C785 C 0.16487 0.62927 0.27467 0.0
C786 C 0.31099 0.73601 0.22626 0.0
C787 C 0.2908 0.71949 0.23193 0.0
C788 C 0.25501 0.70141 0.26695 0.0
C789 C 0.20428 0.64463 0.26998 0.0
C790 C 0.22579 0.66304 0.26485 0.0
C791 C 0.28752 0.71627 0.24857 0.0
C792 C 0.26639 0.69798 0.2544 0.0
H793 H 0.18005 0.59024 0.27832 0.0
H794 H 0.21619 0.62154 0.27205 0.0
H795 H 0.22621 0.68715 0.28168 0.0
H796 H 0.33814 0.75692 0.26244 0.0
H797 H 0.30263 0.72798 0.27236 0.0
C798 C 0.59772 0.19279 0.46216 0.0
C799 C 0.60515 0.18006 0.45408 0.0
C800 C 0.59377 0.20766 0.45376 0.0
C801 C 0.60997 0.23959 0.41642 0.0
H802 H 0.56391 0.25265 0.42798 0.0
C803 C 0.5961 0.30175 0.38132 0.0
C804 C 0.59477 0.31782 0.39075 0.0
C805 C 0.59456 0.28315 0.38842 0.0
C806 C 0.57688 0.24919 0.42467 0.0
H807 H 0.61426 0.1729 0.43081 0.0
H808 H 0.60658 0.19818 0.41601 0.0
H809 H 0.56605 0.2229 0.44128 0.0
H810 H 0.5898 0.32648 0.41496 0.0
H811 H 0.58711 0.29392 0.42738 0.0
H812 H 0.62081 0.26586 0.39985 0.0
C813 C 0.60408 0.19695 0.42891 0.0
C814 C 0.57816 0.2322 0.4323 0.0
C815 C 0.60825 0.18225 0.43734 0.0
C816 C 0.59096 0.31444 0.40736 0.0
C817 C 0.5893 0.29574 0.41446 0.0
C818 C 0.60857 0.2564 0.40872 0.0
C819 C 0.59719 0.21014 0.43705 0.0
C820 C 0.59485 0.22731 0.42836 0.0
C821 C 0.59155 0.28014 0.40511 0.0
C822 C 0.59213 0.26151 0.41284 0.0
H823 H 0.59559 0.19168 0.47511 0.0
H824 H 0.58886 0.21778 0.4605 0.0
H825 H 0.62335 0.23667 0.4133 0.0
H826 H 0.59888 0.30376 0.36847 0.0
H827 H 0.59603 0.27124 0.38088 0.0
C828 C 0.44218 0.62018 0.5976 0.0
C829 C 0.4407 0.60722 0.61082 0.0
C830 C 0.42296 0.61736 0.58977 0.0
C831 C 0.36283 0.57954 0.58375 0.0
H832 H 0.35915 0.63276 0.58238 0.0
C833 C 0.27967 0.57834 0.5823 0.0
C834 C 0.27845 0.59612 0.57587 0.0
C835 C 0.29968 0.57821 0.58251 0.0
C836 C 0.35994 0.61775 0.58223 0.0
H837 H 0.41805 0.58045 0.62567 0.0
H838 H 0.38446 0.57529 0.61183 0.0
H839 H 0.39406 0.63502 0.59004 0.0
H840 H 0.29679 0.62679 0.56334 0.0
H841 H 0.33148 0.62616 0.56311 0.0
H842 H 0.32868 0.5622 0.57605 0.0
C843 C 0.40048 0.58766 0.60756 0.0
C844 C 0.38 0.61908 0.58671 0.0
C845 C 0.41967 0.59068 0.61553 0.0
C846 C 0.29726 0.61298 0.56858 0.0
C847 C 0.31721 0.61269 0.56857 0.0
C848 C 0.3428 0.57822 0.57904 0.0
C849 C 0.40192 0.6013 0.59484 0.0
C850 C 0.3815 0.59996 0.58792 0.0
C851 C 0.31891 0.59572 0.57607 0.0
C852 C 0.34091 0.59726 0.57865 0.0
H853 H 0.45821 0.63293 0.59366 0.0
H854 H 0.42452 0.62799 0.57992 0.0
H855 H 0.36363 0.56456 0.58442 0.0
H856 H 0.26552 0.56509 0.58805 0.0
H857 H 0.30028 0.56496 0.58857 0.0
C858 C 0.84717 0.43687 0.7949 0.0
C859 C 0.84987 0.45453 0.78557 0.0
C860 C 0.83276 0.41521 0.7897 0.0
C861 C 0.79796 0.38068 0.75426 0.0
H862 H 0.76428 0.34049 0.78791 0.0
C863 C 0.7113 0.30269 0.74602 0.0
C864 C 0.70737 0.28389 0.75447 0.0
C865 C 0.73172 0.32215 0.74767 0.0
C866 C 0.7738 0.3514 0.77838 0.0
H867 H 0.84012 0.46339 0.76324 0.0
H868 H 0.81388 0.42565 0.75456 0.0
H869 H 0.79376 0.37731 0.79525 0.0
H870 H 0.72229 0.27041 0.77047 0.0
H871 H 0.75783 0.30459 0.77356 0.0
H872 H 0.77668 0.35481 0.73743 0.0
C873 C 0.82337 0.42839 0.76569 0.0
C874 C 0.79082 0.37257 0.78257 0.0
C875 C 0.8382 0.45007 0.77073 0.0
C876 C 0.72476 0.28459 0.76381 0.0
C877 C 0.74507 0.30416 0.76565 0.0
C878 C 0.7806 0.35956 0.75007 0.0
C879 C 0.82021 0.41064 0.77522 0.0
C880 C 0.80305 0.38761 0.77059 0.0
C881 C 0.74849 0.32326 0.75796 0.0
C882 C 0.76828 0.34481 0.76211 0.0
H883 H 0.85615 0.43982 0.80631 0.0
H884 H 0.83131 0.40207 0.79718 0.0
H885 H 0.80723 0.39159 0.74469 0.0
H886 H 0.69829 0.30264 0.73864 0.0
H887 H 0.73391 0.33668 0.74166 0.0
C888 C 0.43107 0.85829 0.93511 0.0
C889 C 0.45206 0.87732 0.93671 0.0
C890 C 0.42914 0.83795 0.93143 0.0
C891 C 0.45803 0.80649 0.93208 0.0
H892 H 0.41855 0.77407 0.89582 0.0
C893 C 0.43153 0.71616 0.91347 0.0
C894 C 0.43206 0.71208 0.89685 0.0
C895 C 0.43527 0.73665 0.91909 0.0
C896 C 0.42968 0.78296 0.90594 0.0
H897 H 0.48754 0.88994 0.9355 0.0
H898 H 0.48411 0.85414 0.92947 0.0
H899 H 0.42233 0.80907 0.90471 0.0
H900 H 0.43752 0.72652 0.87318 0.0
H901 H 0.44379 0.76207 0.88299 0.0
H902 H 0.46525 0.78018 0.9333 0.0
C903 C 0.4692 0.85506 0.93125 0.0
C904 C 0.4317 0.80288 0.9111 0.0
C905 C 0.47115 0.87551 0.93471 0.0
C906 C 0.43687 0.72905 0.88604 0.0
C907 C 0.44038 0.7494 0.89164 0.0
C908 C 0.45576 0.78634 0.92705 0.0
C909 C 0.44816 0.83617 0.92932 0.0
C910 C 0.44593 0.81487 0.92418 0.0
C911 C 0.43937 0.75333 0.90818 0.0
C912 C 0.44167 0.77448 0.91385 0.0
H913 H 0.41611 0.85927 0.93632 0.0
H914 H 0.41273 0.82361 0.93005 0.0
H915 H 0.46906 0.81542 0.94223 0.0
H916 H 0.42794 0.70344 0.92211 0.0
H917 H 0.4343 0.73924 0.9319 0.0
C918 C 0.59022 0.4431 0.10875 0.0
C919 C 0.59217 0.46397 0.10847 0.0
C920 C 0.60884 0.44074 0.10687 0.0
C921 C 0.6648 0.46935 0.08976 0.0
H922 H 0.66975 0.42263 0.11022 0.0
C923 C 0.71901 0.43644 0.06427 0.0
C924 C 0.72971 0.42906 0.07487 0.0
C925 C 0.70448 0.44302 0.07009 0.0
C926 C 0.66887 0.43599 0.10458 0.0
H927 H 0.6152 0.49879 0.10576 0.0
H928 H 0.64786 0.4948 0.1031 0.0
H929 H 0.6405 0.43002 0.11809 0.0
H930 H 0.73402 0.42339 0.09999 0.0
H931 H 0.70885 0.43529 0.11023 0.0
H932 H 0.69334 0.47554 0.07643 0.0
C933 C 0.63189 0.48018 0.10463 0.0
C934 C 0.65188 0.44004 0.10894 0.0
C935 C 0.61321 0.48251 0.10635 0.0
C936 C 0.72594 0.4289 0.0915 0.0
C937 C 0.71143 0.4356 0.09735 0.0
C938 C 0.68188 0.46543 0.08551 0.0
C939 C 0.62989 0.45923 0.10464 0.0
C940 C 0.64932 0.45644 0.10132 0.0
C941 C 0.70037 0.44255 0.08668 0.0
C942 C 0.68381 0.44836 0.09258 0.0
H943 H 0.57413 0.4285 0.11 0.0
H944 H 0.60652 0.4243 0.10657 0.0
H945 H 0.6633 0.48199 0.08352 0.0
H946 H 0.72148 0.43673 0.05138 0.0
H947 H 0.69597 0.44788 0.06147 0.0
C948 C 0.39778 0.86674 0.54123 0.0
C949 C 0.41975 0.87102 0.54311 0.0
C950 C 0.37987 0.84572 0.54386 0.0
C951 C 0.3651 0.79824 0.56811 0.0
H952 H 0.31546 0.76568 0.53801 0.0
C953 C 0.2859 0.7206 0.5865 0.0
C954 C 0.27906 0.70198 0.57637 0.0
C955 C 0.30183 0.74139 0.58149 0.0
C956 C 0.32924 0.77464 0.54649 0.0
H957 H 0.44008 0.85677 0.54947 0.0
H958 H 0.40878 0.82019 0.55442 0.0
H959 H 0.34625 0.80179 0.53067 0.0
H960 H 0.28285 0.69073 0.55273 0.0
H961 H 0.31068 0.72727 0.54394 0.0
H962 H 0.34819 0.77138 0.584 0.0
C963 C 0.4055 0.833 0.55062 0.0
C964 C 0.34673 0.79526 0.54234 0.0
C965 C 0.42335 0.85385 0.54772 0.0
C966 C 0.28785 0.70475 0.56085 0.0
C967 C 0.30368 0.72564 0.55577 0.0
C968 C 0.34752 0.77788 0.57235 0.0
C969 C 0.38362 0.82879 0.54883 0.0
C970 C 0.36486 0.80713 0.55309 0.0
C971 C 0.31113 0.74407 0.56619 0.0
C972 C 0.32945 0.76584 0.56158 0.0
H973 H 0.3944 0.87969 0.53802 0.0
H974 H 0.36312 0.84289 0.54259 0.0
H975 H 0.37883 0.80718 0.57665 0.0
H976 H 0.27935 0.71909 0.59849 0.0
H977 H 0.3071 0.7554 0.58967 0.0
C978 C 0.5674 0.40942 0.69145 0.0
C979 C 0.58506 0.43117 0.69354 0.0
C980 C 0.57028 0.39169 0.69539 0.0
C981 C 0.60122 0.37772 0.72344 0.0
H982 H 0.58469 0.32667 0.6956 0.0
C983 C 0.59465 0.29863 0.74752 0.0
C984 C 0.60649 0.29043 0.73911 0.0
C985 C 0.59128 0.31489 0.74088 0.0
C986 C 0.58939 0.34087 0.70345 0.0
H987 H 0.61934 0.45134 0.70162 0.0
H988 H 0.62421 0.42035 0.70884 0.0
H989 H 0.58082 0.35736 0.68553 0.0
H990 H 0.6233 0.29226 0.71685 0.0
H991 H 0.61717 0.32069 0.70518 0.0
H992 H 0.60948 0.36127 0.74143 0.0
C993 C 0.60833 0.41708 0.70384 0.0
C994 C 0.58709 0.3583 0.69774 0.0
C995 C 0.60559 0.43476 0.69965 0.0
C996 C 0.6142 0.29831 0.72365 0.0
C997 C 0.61061 0.31448 0.71694 0.0
C998 C 0.60318 0.3602 0.72922 0.0
C999 C 0.59065 0.39542 0.7019 0.0
C1000 C 0.59309 0.3769 0.70769 0.0
C1001 C 0.59948 0.32319 0.72564 0.0
C1002 C 0.5973 0.34162 0.71929 0.0
H1003 H 0.55122 0.40608 0.68711 0.0
H1004 H 0.55633 0.37512 0.69398 0.0
H1005 H 0.60576 0.3918 0.73139 0.0
H1006 H 0.58836 0.29283 0.7594 0.0
H1007 H 0.58239 0.32115 0.74774 0.0
C1008 C 0.18042 0.60343 0.88441 0.0
C1009 C 0.16121 0.5826 0.88321 0.0
C1010 C 0.2012 0.60543 0.88716 0.0
C1011 C 0.23095 0.57517 0.88203 0.0
H1012 H 0.27457 0.61994 0.91144 0.0
C1013 C 0.31644 0.5832 0.89306 0.0
C1014 C 0.33487 0.60463 0.8932 0.0
C1015 C 0.29493 0.57983 0.89378 0.0
C1016 C 0.26264 0.60748 0.90309 0.0
H1017 H 0.14854 0.54754 0.88496 0.0
H1018 H 0.18496 0.55101 0.8895 0.0
H1019 H 0.23745 0.61532 0.9089 0.0
H1020 H 0.34511 0.6393 0.89476 0.0
H1021 H 0.30756 0.63341 0.89572 0.0
H1022 H 0.25615 0.56764 0.87587 0.0
C1023 C 0.18395 0.56577 0.88799 0.0
C1024 C 0.24139 0.60482 0.90166 0.0
C1025 C 0.16313 0.56379 0.88536 0.0
C1026 C 0.33131 0.62258 0.89464 0.0
C1027 C 0.30976 0.6192 0.89527 0.0
C1028 C 0.25221 0.5779 0.88339 0.0
C1029 C 0.2032 0.58661 0.88883 0.0
C1030 C 0.22539 0.58875 0.89102 0.0
C1031 C 0.2913 0.59778 0.89457 0.0
C1032 C 0.26837 0.5942 0.89384 0.0
H1033 H 0.17934 0.6182 0.88313 0.0
H1034 H 0.21576 0.6217 0.88767 0.0
H1035 H 0.21907 0.56285 0.87357 0.0
H1036 H 0.31857 0.56897 0.89214 0.0
H1037 H 0.28112 0.56311 0.89355 0.0
C1038 C 0.56082 0.1855 0.05378 0.0
C1039 C 0.55739 0.18293 0.03694 0.0
C1040 C 0.58188 0.20002 0.06045 0.0
C1041 C 0.62366 0.24301 0.07022 0.0
H1042 H 0.67665 0.25239 0.04866 0.0
C1043 C 0.70595 0.32496 0.07381 0.0
C1044 C 0.72606 0.32513 0.07183 0.0
C1045 C 0.68578 0.30516 0.07327 0.0
C1046 C 0.66212 0.24978 0.05508 0.0
H1047 H 0.57308 0.19369 0.01391 0.0
H1048 H 0.6097 0.21919 0.02545 0.0
H1049 H 0.6408 0.22153 0.0403 0.0
H1050 H 0.74084 0.30444 0.0692 0.0
H1051 H 0.70568 0.26988 0.06863 0.0
H1052 H 0.64502 0.27134 0.08498 0.0
C1053 C 0.59637 0.20961 0.03356 0.0
C1054 C 0.64149 0.23223 0.05011 0.0
C1055 C 0.57537 0.19511 0.02692 0.0
C1056 C 0.72564 0.30494 0.07053 0.0
C1057 C 0.70546 0.28511 0.07012 0.0
C1058 C 0.64434 0.26053 0.07526 0.0
C1059 C 0.59987 0.21237 0.0504 0.0
C1060 C 0.62195 0.22903 0.05727 0.0
C1061 C 0.68525 0.28503 0.07088 0.0
C1062 C 0.66376 0.26451 0.06744 0.0
H1063 H 0.54714 0.17649 0.06177 0.0
H1064 H 0.58404 0.20169 0.07347 0.0
H1065 H 0.60894 0.24107 0.07597 0.0
H1066 H 0.70563 0.34019 0.07487 0.0
H1067 H 0.67057 0.3058 0.07377 0.0
C1068 C 0.39786 0.59765 0.2028 0.0
C1069 C 0.40729 0.5954 0.18854 0.0
C1070 C 0.4045 0.6185 0.20947 0.0
C1071 C 0.43199 0.67695 0.19753 0.0
H1072 H 0.42814 0.68728 0.24317 0.0
C1073 C 0.45267 0.76192 0.22189 0.0
C1074 C 0.43473 0.76161 0.22973 0.0
C1075 C 0.45315 0.74247 0.2193 0.0
C1076 C 0.42939 0.6846 0.23041 0.0
H1077 H 0.43202 0.61308 0.17066 0.0
H1078 H 0.4445 0.64929 0.1827 0.0
H1079 H 0.42231 0.65157 0.23374 0.0
H1080 H 0.40423 0.74094 0.24221 0.0
H1081 H 0.40532 0.70703 0.23787 0.0
H1082 H 0.43919 0.71 0.19426 0.0
C1083 C 0.43126 0.63512 0.18841 0.0
C1084 C 0.42588 0.66412 0.22496 0.0
C1085 C 0.42427 0.61433 0.18155 0.0
C1086 C 0.4182 0.74172 0.23603 0.0
C1087 C 0.41886 0.72231 0.23362 0.0
C1088 C 0.43587 0.69746 0.20301 0.0
C1089 C 0.42108 0.63757 0.20222 0.0
C1090 C 0.42674 0.65988 0.20839 0.0
C1091 C 0.43591 0.7224 0.22471 0.0
C1092 C 0.43425 0.70139 0.21945 0.0
H1093 H 0.38488 0.5833 0.20852 0.0
H1094 H 0.39605 0.61961 0.21999 0.0
H1095 H 0.43231 0.67431 0.18466 0.0
H1096 H 0.46571 0.77694 0.2169 0.0
H1097 H 0.46657 0.74297 0.21251 0.0
C1098 C 0.8373 0.43408 0.35325 0.0
C1099 C 0.84313 0.41846 0.35797 0.0
C1100 C 0.82007 0.43524 0.36074 0.0
C1101 C 0.76782 0.40027 0.37917 0.0
H1102 H 0.77026 0.45479 0.39185 0.0
C1103 C 0.68787 0.40114 0.39427 0.0
C1104 C 0.68596 0.41847 0.38767 0.0
C1105 C 0.7084 0.402 0.39488 0.0
C1106 C 0.76922 0.43942 0.38827 0.0
H1107 H 0.83634 0.39265 0.37484 0.0
H1108 H 0.80555 0.39415 0.38758 0.0
H1109 H 0.8043 0.45508 0.38468 0.0
H1110 H 0.70437 0.4507 0.37717 0.0
H1111 H 0.73969 0.45184 0.37766 0.0
H1112 H 0.73272 0.38472 0.38162 0.0
C1113 C 0.81441 0.40548 0.37809 0.0
C1114 C 0.78875 0.43961 0.38427 0.0
C1115 C 0.83194 0.40459 0.37078 0.0
C1116 C 0.70519 0.43706 0.38236 0.0
C1117 C 0.7256 0.43778 0.38277 0.0
C1118 C 0.74823 0.40012 0.38289 0.0
C1119 C 0.80814 0.42062 0.37298 0.0
C1120 C 0.78814 0.42011 0.37935 0.0
C1121 C 0.72742 0.42008 0.38871 0.0
C1122 C 0.74859 0.41978 0.38711 0.0
H1123 H 0.84573 0.44506 0.34348 0.0
H1124 H 0.81544 0.44695 0.3565 0.0
H1125 H 0.76688 0.38504 0.37526 0.0
H1126 H 0.67341 0.38669 0.39863 0.0
H1127 H 0.70922 0.38826 0.39987 0.0
C1128 C 0.10134 0.60112 0.43666 0.0
C1129 C 0.09683 0.58486 0.42474 0.0
C1130 C 0.11238 0.60184 0.45108 0.0
C1131 C 0.12381 0.56904 0.47891 0.0
H1132 H 0.17783 0.62351 0.49007 0.0
C1133 C 0.18023 0.57541 0.53302 0.0
C1134 C 0.19076 0.59527 0.54204 0.0
C1135 C 0.169 0.5738 0.51847 0.0
C1136 C 0.1626 0.60827 0.48733 0.0
H1137 H 0.09872 0.55561 0.41914 0.0
H1138 H 0.11755 0.55658 0.44459 0.0
H1139 H 0.1566 0.6211 0.46572 0.0
H1140 H 0.19758 0.62897 0.54297 0.0
H1141 H 0.17737 0.62599 0.51805 0.0
H1142 H 0.12922 0.55634 0.50072 0.0
C1143 C 0.11304 0.56905 0.44252 0.0
C1144 C 0.15052 0.6069 0.47332 0.0
C1145 C 0.10238 0.56857 0.42797 0.0
C1146 C 0.18985 0.61349 0.53621 0.0
C1147 C 0.17833 0.61179 0.52183 0.0
C1148 C 0.13566 0.57051 0.49309 0.0
C1149 C 0.11849 0.58593 0.45406 0.0
C1150 C 0.13105 0.58729 0.46899 0.0
C1151 C 0.16773 0.59194 0.51275 0.0
C1152 C 0.15524 0.59016 0.4975 0.0
H1153 H 0.09665 0.61348 0.43476 0.0
H1154 H 0.11611 0.61479 0.45994 0.0
H1155 H 0.10873 0.55377 0.47583 0.0
H1156 H 0.18076 0.56111 0.53715 0.0
H1157 H 0.16143 0.55836 0.51168 0.0
C1158 C 0.53827 0.07789 0.6083 0.0
C1159 C 0.5266 0.09014 0.59414 0.0
C1160 C 0.55471 0.09583 0.62488 0.0
C1161 C 0.56175 0.14848 0.65105 0.0
H1162 H 0.61636 0.15024 0.66417 0.0
C1163 C 0.61794 0.2083 0.70117 0.0
C1164 C 0.62591 0.19965 0.71299 0.0
C1165 C 0.60845 0.19668 0.6867 0.0
C1166 C 0.60107 0.1498 0.66072 0.0
H1167 H 0.51316 0.11852 0.59225 0.0
H1168 H 0.53882 0.14482 0.61988 0.0
H1169 H 0.59457 0.12709 0.64103 0.0
H1170 H 0.63116 0.17244 0.71851 0.0
H1171 H 0.61426 0.152 0.69335 0.0
H1172 H 0.56789 0.1708 0.67081 0.0
C1173 C 0.53857 0.12964 0.61701 0.0
C1174 C 0.58857 0.13651 0.64749 0.0
C1175 C 0.52164 0.11287 0.6002 0.0
C1176 C 0.62518 0.1796 0.70966 0.0
C1177 C 0.61555 0.1679 0.6952 0.0
C1178 C 0.57416 0.16167 0.66426 0.0
C1179 C 0.55538 0.12159 0.62876 0.0
C1180 C 0.56881 0.13575 0.64255 0.0
C1181 C 0.60656 0.17605 0.68374 0.0
C1182 C 0.59397 0.16252 0.66927 0.0
H1183 H 0.53897 0.06326 0.60513 0.0
H1184 H 0.56408 0.09097 0.63262 0.0
H1185 H 0.54632 0.14785 0.64783 0.0
H1186 H 0.61848 0.22383 0.70324 0.0
H1187 H 0.60216 0.20368 0.67796 0.0
C1188 C 0.47699 0.57147 0.7397 0.0
C1189 C 0.46067 0.54112 0.73607 0.0
C1190 C 0.47639 0.58033 0.76011 0.0
C1191 C 0.43653 0.56028 0.79869 0.0
H1192 H 0.48977 0.60783 0.8192 0.0
C1193 C 0.43076 0.59274 0.86045 0.0
C1194 C 0.44071 0.61568 0.86184 0.0
C1195 C 0.43655 0.58307 0.84806 0.0
C1196 C 0.47475 0.59458 0.81362 0.0
H1197 H 0.42652 0.50523 0.74556 0.0
H1198 H 0.4261 0.522 0.77741 0.0
H1199 H 0.49187 0.59323 0.79271 0.0
H1200 H 0.46582 0.6466 0.85228 0.0
H1201 H 0.47547 0.62978 0.83027 0.0
H1202 H 0.41912 0.56201 0.81906 0.0
C1203 C 0.43765 0.53291 0.76872 0.0
C1204 C 0.47596 0.58626 0.79844 0.0
C1205 C 0.43698 0.5225 0.74866 0.0
C1206 C 0.4579 0.62883 0.85147 0.0
C1207 C 0.46345 0.61916 0.83887 0.0
C1208 C 0.43527 0.56863 0.81374 0.0
C1209 C 0.45754 0.56112 0.77445 0.0
C1210 C 0.45679 0.56916 0.79082 0.0
C1211 C 0.4521 0.59616 0.83659 0.0
C1212 C 0.45431 0.58602 0.82137 0.0
H1213 H 0.48921 0.58235 0.73133 0.0
H1214 H 0.48722 0.59737 0.76367 0.0
H1215 H 0.42134 0.54749 0.79299 0.0
H1216 H 0.41782 0.58223 0.86852 0.0
H1217 H 0.42802 0.56529 0.84699 0.0
C1218 C 0.90836 0.42994 0.91728 0.0
C1219 C 0.91669 0.45687 0.90812 0.0
C1220 C 0.89791 0.42702 0.93734 0.0
C1221 C 0.88774 0.46183 0.97257 0.0
H1222 H 0.84744 0.40239 0.98586 0.0
C1223 C 0.82971 0.44202 0.02642 0.0
C1224 C 0.82267 0.42224 0.03448 0.0
C1225 C 0.84386 0.44738 0.01338 0.0
C1226 C 0.8591 0.4191 0.98259 0.0
H1227 H 0.90831 0.48911 0.90787 0.0
H1228 H 0.88999 0.48142 0.93987 0.0
H1229 H 0.86441 0.40833 0.95972 0.0
H1230 H 0.82654 0.39359 0.03622 0.0
H1231 H 0.85197 0.40334 0.01398 0.0
H1232 H 0.88237 0.47263 0.99548 0.0
C1233 C 0.89475 0.47025 0.93461 0.0
C1234 C 0.86878 0.42249 0.96751 0.0
C1235 C 0.90508 0.47461 0.91439 0.0
C1236 C 0.8314 0.40877 0.03009 0.0
C1237 C 0.84585 0.4143 0.01724 0.0
C1238 C 0.87828 0.45845 0.98779 0.0
C1239 C 0.892 0.44726 0.946 0.0
C1240 C 0.88293 0.44386 0.9623 0.0
C1241 C 0.85154 0.43321 0.00829 0.0
C1242 C 0.86356 0.43702 0.9929 0.0
H1243 H 0.91382 0.41903 0.91258 0.0
H1244 H 0.8954 0.41307 0.94428 0.0
H1245 H 0.89888 0.47848 0.96889 0.0
H1246 H 0.82322 0.45273 0.02951 0.0
H1247 H 0.84769 0.46198 0.00676 0.0
C1248 C 0.50615 0.95141 0.10571 0.0
C1249 C 0.49317 0.94895 0.09184 0.0
C1250 C 0.49633 0.94511 0.12072 0.0
C1251 C 0.44152 0.90779 0.13765 0.0
H1252 H 0.4744 0.9308 0.17819 0.0
C1253 C 0.40713 0.86317 0.19666 0.0
C1254 C 0.42145 0.85659 0.20348 0.0
C1255 C 0.41491 0.87978 0.18531 0.0
C1256 C 0.46495 0.92439 0.16696 0.0
H1257 H 0.46016 0.93988 0.08302 0.0
H1258 H 0.44311 0.92976 0.10932 0.0
H1259 H 0.48957 0.95073 0.15338 0.0
H1260 H 0.45552 0.86359 0.20484 0.0
H1261 H 0.46913 0.89272 0.18525 0.0
H1262 H 0.41709 0.88133 0.15123 0.0
C1263 C 0.4607 0.93563 0.10854 0.0
C1264 C 0.47368 0.93566 0.15272 0.0
C1265 C 0.47047 0.94155 0.09347 0.0
C1266 C 0.44403 0.86812 0.19972 0.0
C1267 C 0.45188 0.88495 0.18858 0.0
C1268 C 0.43266 0.89676 0.1519 0.0
C1269 C 0.47337 0.93665 0.12229 0.0
C1270 C 0.46247 0.92706 0.13778 0.0
C1271 C 0.43722 0.89035 0.18082 0.0
C1272 C 0.44463 0.90454 0.16659 0.0
H1273 H 0.52378 0.95748 0.10484 0.0
H1274 H 0.50666 0.94597 0.13092 0.0
H1275 H 0.43248 0.90039 0.12643 0.0
H1276 H 0.38963 0.8546 0.19934 0.0
H1277 H 0.40331 0.88373 0.17953 0.0
C1278 C 0.55914 0.49025 0.25673 0.0
C1279 C 0.56101 0.51103 0.25823 0.0
C1280 C 0.55497 0.47716 0.2702 0.0
C1281 C 0.5652 0.48389 0.31386 0.0
H1282 H 0.53714 0.42033 0.31115 0.0
C1283 C 0.59771 0.43688 0.34922 0.0
C1284 C 0.58318 0.41586 0.35497 0.0
C1285 C 0.58967 0.44807 0.34018 0.0
C1286 C 0.54465 0.43803 0.31228 0.0
H1287 H 0.5594 0.53423 0.27489 0.0
H1288 H 0.55156 0.51113 0.29841 0.0
H1289 H 0.53071 0.43988 0.28954 0.0
H1290 H 0.54864 0.39026 0.35601 0.0
H1291 H 0.53452 0.4099 0.33994 0.0
H1292 H 0.57951 0.48209 0.3364 0.0
C1293 C 0.55349 0.505 0.28684 0.0
C1294 C 0.54118 0.44926 0.2998 0.0
C1295 C 0.55781 0.51816 0.27337 0.0
C1296 C 0.56026 0.40645 0.35175 0.0
C1297 C 0.55218 0.41765 0.34254 0.0
C1298 C 0.56856 0.47267 0.32634 0.0
C1299 C 0.55264 0.4846 0.2855 0.0
C1300 C 0.5522 0.47239 0.30013 0.0
C1301 C 0.56688 0.43851 0.33654 0.0
C1302 C 0.55915 0.44972 0.32533 0.0
H1303 H 0.56185 0.48452 0.24524 0.0
H1304 H 0.55487 0.46176 0.26873 0.0
H1305 H 0.57404 0.50169 0.31454 0.0
H1306 H 0.61546 0.44453 0.35124 0.0
H1307 H 0.60151 0.46389 0.33544 0.0
C1308 C 0.4511 0.94545 0.37391 0.0
C1309 C 0.44184 0.93485 0.38842 0.0
C1310 C 0.45268 0.93364 0.36078 0.0
C1311 C 0.42408 0.88068 0.34135 0.0
H1312 H 0.47872 0.8969 0.31932 0.0
C1313 C 0.42336 0.83208 0.28467 0.0
C1314 C 0.43769 0.84401 0.27228 0.0
C1315 C 0.42561 0.84187 0.29991 0.0
C1316 C 0.46323 0.89229 0.32516 0.0
H1317 H 0.42714 0.90367 0.40048 0.0
H1318 H 0.42918 0.88287 0.37722 0.0
H1319 H 0.47962 0.91719 0.34377 0.0
H1320 H 0.46571 0.87544 0.26612 0.0
H1321 H 0.46894 0.89291 0.2923 0.0
H1322 H 0.40731 0.85678 0.32245 0.0
C1323 C 0.43553 0.90037 0.37623 0.0
C1324 C 0.46384 0.90383 0.33923 0.0
C1325 C 0.43439 0.91225 0.38948 0.0
C1326 C 0.45455 0.86578 0.27549 0.0
C1327 C 0.45647 0.87575 0.2906 0.0
C1328 C 0.42336 0.86947 0.32711 0.0
C1329 C 0.44456 0.91096 0.36176 0.0
C1330 C 0.44426 0.89815 0.34738 0.0
C1331 C 0.44187 0.86402 0.30299 0.0
C1332 C 0.44291 0.87517 0.31872 0.0
H1333 H 0.45679 0.96276 0.37256 0.0
H1334 H 0.45951 0.94206 0.34965 0.0
H1335 H 0.40872 0.8762 0.34738 0.0
H1336 H 0.41036 0.81517 0.28256 0.0
H1337 H 0.41442 0.83206 0.30921 0.0
C1338 C 0.56371 0.46994 0.53723 0.0
C1339 C 0.54215 0.45518 0.54226 0.0
C1340 C 0.57133 0.46626 0.52267 0.0
C1341 C 0.56385 0.42293 0.49444 0.0
H1342 H 0.59137 0.46949 0.46356 0.0
C1343 C 0.58707 0.40761 0.43085 0.0
C1344 C 0.60591 0.42473 0.42378 0.0
C1345 C 0.5795 0.41115 0.44549 0.0
C1346 C 0.5841 0.4564 0.47215 0.0
H1347 H 0.51125 0.42564 0.53552 0.0
H1348 H 0.5249 0.41883 0.5103 0.0
H1349 H 0.57772 0.47621 0.48868 0.0
H1350 H 0.63211 0.45871 0.42684 0.0
H1351 H 0.6195 0.46464 0.45266 0.0
H1352 H 0.57074 0.40325 0.47826 0.0
C1353 C 0.53591 0.43309 0.51777 0.0
C1354 C 0.57616 0.46025 0.48648 0.0
C1355 C 0.52815 0.43696 0.5322 0.0
C1356 C 0.6174 0.44525 0.4319 0.0
C1357 C 0.61004 0.44869 0.44666 0.0
C1358 C 0.5721 0.41916 0.48021 0.0
C1359 C 0.55759 0.44768 0.51291 0.0
C1360 C 0.56591 0.44354 0.49771 0.0
C1361 C 0.59079 0.43179 0.45354 0.0
C1362 C 0.58229 0.43583 0.46885 0.0
H1363 H 0.57474 0.48429 0.5446 0.0
H1364 H 0.58812 0.47775 0.51918 0.0
H1365 H 0.55621 0.40986 0.50303 0.0
H1366 H 0.57775 0.39165 0.42482 0.0
H1367 H 0.56444 0.39782 0.45025 0.0
C1368 C 0.0996 0.54892 0.72428 0.0
C1369 C 0.09031 0.52609 0.72548 0.0
C1370 C 0.10678 0.55901 0.70947 0.0
C1371 C 0.10679 0.54732 0.66511 0.0
H1372 H 0.16247 0.60259 0.6676 0.0
C1373 C 0.17404 0.5808 0.61662 0.0
C1374 C 0.18441 0.60335 0.61345 0.0
C1375 C 0.15785 0.57175 0.62834 0.0
C1376 C 0.14672 0.58735 0.6667 0.0
H1377 H 0.07995 0.49573 0.71196 0.0
H1378 H 0.09378 0.51335 0.68633 0.0
H1379 H 0.14331 0.58617 0.69221 0.0
H1380 H 0.18509 0.63387 0.61942 0.0
H1381 H 0.1572 0.61809 0.64022 0.0
H1382 H 0.1114 0.54803 0.63951 0.0
C1383 C 0.09511 0.52355 0.69668 0.0
C1384 C 0.13562 0.57792 0.68082 0.0
C1385 C 0.08747 0.51342 0.71144 0.0
C1386 C 0.17742 0.61643 0.6216 0.0
C1387 C 0.16151 0.60745 0.63352 0.0
C1388 C 0.11818 0.55659 0.65098 0.0
C1389 C 0.10526 0.54655 0.69555 0.0
C1390 C 0.11567 0.55758 0.68028 0.0
C1391 C 0.15203 0.58517 0.63726 0.0
C1392 C 0.13838 0.57654 0.65171 0.0
H1393 H 0.10161 0.55905 0.73486 0.0
H1394 H 0.11388 0.57666 0.70902 0.0
H1395 H 0.09126 0.5319 0.66414 0.0
H1396 H 0.17897 0.57028 0.61051 0.0
H1397 H 0.15088 0.55454 0.63111 0.0
C1398 C 0.52487 0.0647 0.87616 0.0
C1399 C 0.4968 0.06038 0.8805 0.0
C1400 C 0.53759 0.08111 0.85885 0.0
C1401 C 0.52639 0.11828 0.82709 0.0
H1402 H 0.57845 0.12085 0.80853 0.0
C1403 C 0.57258 0.17812 0.77671 0.0
C1404 C 0.5958 0.19035 0.77857 0.0
C1405 C 0.56017 0.15969 0.78601 0.0
C1406 C 0.56401 0.1204 0.81366 0.0
H1407 H 0.46134 0.05743 0.86714 0.0
H1408 H 0.48337 0.08239 0.83915 0.0
H1409 H 0.55777 0.09349 0.82872 0.0
H1410 H 0.62433 0.19229 0.7911 0.0
H1411 H 0.60264 0.16033 0.80761 0.0
H1412 H 0.53284 0.14548 0.8124 0.0
C1413 C 0.4925 0.07834 0.84777 0.0
C1414 C 0.55217 0.10475 0.82524 0.0
C1415 C 0.47829 0.06184 0.86474 0.0
C1416 C 0.60645 0.18318 0.78939 0.0
C1417 C 0.59401 0.16479 0.7988 0.0
C1418 C 0.53823 0.13395 0.81557 0.0
C1419 C 0.52184 0.08847 0.84529 0.0
C1420 C 0.5334 0.10372 0.83217 0.0
C1421 C 0.57068 0.15316 0.79749 0.0
C1422 C 0.55731 0.13536 0.80883 0.0
H1423 H 0.5346 0.06184 0.88509 0.0
H1424 H 0.555 0.08711 0.85691 0.0
H1425 H 0.51229 0.11825 0.83245 0.0
H1426 H 0.5639 0.18309 0.76833 0.0
H1427 H 0.54227 0.15081 0.78445 0.0
C1428 C 0.43013 0.56253 0.06347 0.0
C1429 C 0.45718 0.58547 0.07147 0.0
C1430 C 0.42283 0.56623 0.04327 0.0
C1431 C 0.43542 0.614 0.01116 0.0
H1432 H 0.41881 0.56513 0.98108 0.0
C1433 C 0.42995 0.62351 0.94249 0.0
C1434 C 0.41351 0.60553 0.9334 0.0
C1435 C 0.43385 0.62124 0.95876 0.0
C1436 C 0.42301 0.57883 0.98933 0.0
H1437 H 0.48457 0.62744 0.06968 0.0
H1438 H 0.47002 0.63147 0.03776 0.0
H1439 H 0.42555 0.56135 0.00946 0.0
H1440 H 0.38803 0.57116 0.9343 0.0
H1441 H 0.39425 0.56739 0.96271 0.0
H1442 H 0.43251 0.63143 0.99121 0.0
C1443 C 0.46119 0.61601 0.04384 0.0
C1444 C 0.4269 0.57663 0.00561 0.0
C1445 C 0.46981 0.61397 0.06401 0.0
C1446 C 0.401 0.58528 0.94093 0.0
C1447 C 0.40466 0.58309 0.95724 0.0
C1448 C 0.43119 0.61612 0.99493 0.0
C1449 C 0.43868 0.5923 0.0335 0.0
C1450 C 0.43333 0.59426 0.01659 0.0
C1451 C 0.42116 0.60103 0.96638 0.0
C1452 C 0.42514 0.59862 0.98376 0.0
H1453 H 0.42194 0.54658 0.06895 0.0
H1454 H 0.40897 0.55262 0.03692 0.0
H1455 H 0.44006 0.62775 0.01946 0.0
H1456 H 0.43996 0.63931 0.93701 0.0
H1457 H 0.447 0.63531 0.96529 0.0
C1458 C 0.94071 0.48306 0.2023 0.0
C1459 C 0.94872 0.4693 0.20748 0.0
C1460 C 0.92223 0.47496 0.19181 0.0
C1461 C 0.87529 0.42303 0.17396 0.0
H1462 H 0.87906 0.46102 0.13917 0.0
C1463 C 0.82791 0.39183 0.11291 0.0
C1464 C 0.81846 0.40356 0.10608 0.0
C1465 C 0.84081 0.39948 0.12712 0.0
C1466 C 0.87759 0.45034 0.14895 0.0
H1467 H 0.94325 0.43613 0.20623 0.0
H1468 H 0.91155 0.42214 0.18746 0.0
H1469 H 0.90743 0.4752 0.1606 0.0
H1470 H 0.81463 0.43222 0.10906 0.0
H1471 H 0.83756 0.44578 0.13382 0.0
H1472 H 0.84594 0.39787 0.16173 0.0
C1473 C 0.91918 0.43908 0.19171 0.0
C1474 C 0.89382 0.45846 0.16129 0.0
C1475 C 0.9375 0.44712 0.20233 0.0
C1476 C 0.82168 0.4228 0.11402 0.0
C1477 C 0.83486 0.43062 0.12814 0.0
C1478 C 0.8592 0.41484 0.16151 0.0
C1479 C 0.91147 0.45297 0.18614 0.0
C1480 C 0.89309 0.44482 0.17383 0.0
C1481 C 0.84475 0.41916 0.13471 0.0
C1482 C 0.86038 0.42834 0.14877 0.0
H1483 H 0.94891 0.50018 0.2062 0.0
H1484 H 0.91651 0.48603 0.18805 0.0
H1485 H 0.87392 0.41219 0.18358 0.0
H1486 H 0.82565 0.37689 0.10714 0.0
H1487 H 0.84839 0.39042 0.13185 0.0
loop_
_geom_bond_atom_site_label_1
_geom_bond_atom_site_label_2
_geom_bond_distance
_geom_bond_site_symmetry_2
_ccdc_geom_bond_type
C0 C1 1.560 . S
C0 H61 0.959 . S
C0 H62 0.959 . S
C0 H63 0.960 . S
C1 C0 1.560 . S
C1 O56 1.426 . S
C1 H60 0.980 . S
C2 C3 1.407 . S
C2 C7 1.418 . S
C2 O56 1.334 . S
C3 C2 1.407 . S
C3 C4 1.360 . S
C3 H64 0.929 . S
C4 C3 1.360 . S
C4 C5 1.401 . S
C4 C8 1.527 . S
C5 C4 1.401 . S
C5 C6 1.405 . S
C5 C38 1.587 . S
C6 C5 1.405 . S
C6 C7 1.332 . S
C6 C9 1.496 . S
C7 C2 1.418 . S
C7 C6 1.332 . S
C7 H65 0.929 . S
C8 C4 1.527 . S
C8 H66 0.959 . S
C8 H67 0.961 . S
C8 H68 0.961 . S
C9 C6 1.496 . S
C9 H69 0.960 . S
C9 H70 0.960 . S
C9 H71 0.961 . S
C10 C11 1.517 . S
C10 H73 0.961 . S
C10 H74 0.960 . S
C10 H75 0.959 . S
C11 C10 1.517 . S
C11 O59 1.468 . S
C11 H72 0.980 . S
C12 C13 1.349 . S
C12 C17 1.367 . S
C12 O59 1.408 . S
C13 C12 1.349 . S
C13 C14 1.407 . S
C13 H76 0.930 . S
C14 C13 1.407 . S
C14 C15 1.449 . S
C14 C18 1.535 . S
C15 C14 1.449 . S
C15 C16 1.384 . S
C15 C40 1.553 1_655 S
C16 C15 1.384 . S
C16 C17 1.364 . S
C16 C19 1.450 . S
C17 C12 1.367 . S
C17 C16 1.364 . S
C17 H77 0.931 . S
C18 C14 1.535 . S
C18 H78 0.959 1_655 S
C18 H79 0.961 . S
C18 H80 0.959 . S
C19 C16 1.450 . S
C19 H81 0.960 . S
C19 H82 0.960 1_655 S
C19 H83 0.960 . S
C20 C21 1.309 . S
C20 C25 1.304 . S
C20 O58 1.435 . S
C21 C20 1.309 . S
C21 C22 1.476 . S
C21 H85 0.930 . S
C22 C21 1.476 . S
C22 C23 1.400 . S
C22 C26 1.567 . S
C23 C22 1.400 . S
C23 C24 1.373 . S
C23 C45 1.432 . S
C24 C23 1.373 . S
C24 C25 1.339 . S
C24 C27 1.530 . S
C25 C20 1.304 . S
C25 C24 1.339 . S
C25 H86 0.930 . S
C26 C22 1.567 . S
C26 H87 0.961 . S
C26 H88 0.960 . S
C26 H89 0.958 . S
C27 C24 1.530 . S
C27 H90 0.961 . S
C27 H91 0.960 . S
C27 H92 0.960 . S
C28 C29 1.530 . S
C28 H94 0.961 . S
C28 H95 0.961 . S
C28 H96 0.959 . S
C29 C28 1.530 . S
C29 O57 1.412 . S
C29 H93 0.980 . S
C30 C31 1.288 . S
C30 C35 1.377 . S
C30 O57 1.393 . S
C31 C30 1.288 . S
C31 C32 1.369 . S
C31 H97 0.932 . S
C32 C31 1.369 . S
C32 C33 1.398 . S
C32 C36 1.527 . S
C33 C32 1.398 . S
C33 C34 1.380 . S
C33 C47 1.497 . S
C34 C33 1.380 . S
C34 C35 1.383 . S
C34 C37 1.603 . S
C35 C30 1.377 . S
C35 C34 1.383 . S
C35 H98 0.929 . S
C36 C32 1.527 . S
C36 H99 0.961 . S
C36 H100 0.959 1_455 S
C36 H101 0.959 . S
C37 C34 1.603 . S
C37 H102 0.960 . S
C37 H103 0.962 . S
C37 H104 0.961 . S
C38 C5 1.587 . S
C38 C39 1.360 . S
C38 C51 1.412 . S
C39 C38 1.360 . S
C39 C40 1.365 . S
C39 H105 0.929 . S
C40 C15 1.553 1_455 S
C40 C39 1.365 . S
C40 C41 1.404 1_455 S
C41 C40 1.404 1_655 S
C41 C42 1.395 . S
C41 C52 1.451 1_655 S
C42 C41 1.395 . S
C42 C43 1.322 . S
C42 H106 0.930 . S
C43 C42 1.322 . S
C43 C44 1.459 . S
C43 H107 0.929 . S
C44 C43 1.459 . S
C44 C45 1.445 . S
C44 C53 1.395 1_655 S
C45 C23 1.432 . S
C45 C44 1.445 . S
C45 C46 1.370 . S
C46 C45 1.370 . S
C46 C47 1.438 1_655 S
C46 H108 0.930 . S
C47 C33 1.497 . S
C47 C46 1.438 1_455 S
C47 C48 1.360 . S
C48 C47 1.360 . S
C48 C49 1.401 . S
C48 C53 1.446 . S
C49 C48 1.401 . S
C49 C50 1.347 . S
C49 H109 0.929 . S
C50 C49 1.347 . S
C50 C51 1.455 . S
C50 H110 0.930 . S
C51 C38 1.412 . S
C51 C50 1.455 . S
C51 C52 1.331 . S
C52 C41 1.451 1_455 S
C52 C51 1.331 . S
C52 C53 1.497 . S
C53 C44 1.395 1_455 S
C53 C48 1.446 . S
C53 C52 1.497 . S
C54 C55 1.582 . S
C54 H111 0.962 . S
C54 H112 0.959 . S
C54 H113 0.958 . S
C55 C54 1.582 . S
C55 O58 1.458 . S
C55 H84 0.980 . S
O56 C1 1.426 . S
O56 C2 1.334 . S
O57 C29 1.412 . S
O57 C30 1.393 . S
O58 C20 1.435 . S
O58 C55 1.458 . S
O59 C11 1.468 . S
O59 C12 1.408 . S
H60 C1 0.980 . S
H61 C0 0.959 . S
H62 C0 0.959 . S
H63 C0 0.960 . S
H64 C3 0.929 . S
H65 C7 0.929 . S
H66 C8 0.959 . S
H67 C8 0.961 . S
H68 C8 0.961 . S
H69 C9 0.960 . S
H70 C9 0.960 . S
H71 C9 0.961 . S
H72 C11 0.980 . S
H73 C10 0.961 . S
H74 C10 0.960 . S
H75 C10 0.959 . S
H76 C13 0.930 . S
H77 C17 0.931 . S
H78 C18 0.959 1_455 S
H79 C18 0.961 . S
H80 C18 0.959 . S
H81 C19 0.960 . S
H82 C19 0.960 1_455 S
H83 C19 0.960 . S
H84 C55 0.980 . S
H85 C21 0.930 . S
H86 C25 0.930 . S
H87 C26 0.961 . S
H88 C26 0.960 . S
H89 C26 0.958 . S
H90 C27 0.961 . S
H91 C27 0.960 . S
H92 C27 0.960 . S
H93 C29 0.980 . S
H94 C28 0.961 . S
H95 C28 0.961 . S
H96 C28 0.959 . S
H97 C31 0.932 . S
H98 C35 0.929 . S
H99 C36 0.961 . S
H100 C36 0.959 1_655 S
H101 C36 0.959 . S
H102 C37 0.960 . S
H103 C37 0.962 . S
H104 C37 0.961 . S
H105 C39 0.929 . S
H106 C42 0.930 . S
H107 C43 0.929 . S
H108 C46 0.930 . S
H109 C49 0.929 . S
H110 C50 0.930 . S
H111 C54 0.962 . S
H112 C54 0.959 . S
H113 C54 0.958 . S
C114 C115 1.560 . S
C114 H175 0.959 . S
C114 H176 0.959 . S
C114 H177 0.960 . S
C115 C114 1.560 . S
C115 O170 1.426 . S
C115 H174 0.980 . S
C116 C117 1.407 . S
C116 C121 1.418 . S
C116 O170 1.334 . S
C117 C116 1.407 . S
C117 C118 1.360 . S
C117 H178 0.929 . S
C118 C117 1.360 . S
C118 C119 1.401 . S
C118 C122 1.527 . S
C119 C118 1.401 . S
C119 C120 1.405 . S
C119 C152 1.587 . S
C120 C119 1.405 . S
C120 C121 1.332 . S
C120 C123 1.496 . S
C121 C116 1.418 . S
C121 C120 1.332 . S
C121 H179 0.929 . S
C122 C118 1.527 . S
C122 H180 0.959 . S
C122 H181 0.961 . S
C122 H182 0.961 . S
C123 C120 1.496 . S
C123 H183 0.960 . S
C123 H184 0.960 . S
C123 H185 0.961 . S
C124 C125 1.517 . S
C124 H187 0.961 . S
C124 H188 0.960 . S
C124 H189 0.959 . S
C125 C124 1.517 . S
C125 O173 1.468 . S
C125 H186 0.980 . S
C126 C127 1.349 . S
C126 C131 1.367 . S
C126 O173 1.408 . S
C127 C126 1.349 . S
C127 C128 1.407 . S
C127 H190 0.930 . S
C128 C127 1.407 . S
C128 C129 1.449 . S
C128 C132 1.535 . S
C129 C128 1.449 . S
C129 C130 1.384 . S
C129 C154 1.553 . S
C130 C129 1.384 . S
C130 C131 1.364 . S
C130 C133 1.450 . S
C131 C126 1.367 . S
C131 C130 1.364 . S
C131 H191 0.931 . S
C132 C128 1.535 . S
C132 H192 0.959 . S
C132 H193 0.961 . S
C132 H194 0.959 . S
C133 C130 1.450 . S
C133 H195 0.960 . S
C133 H196 0.960 . S
C133 H197 0.960 . S
C134 C135 1.309 . S
C134 C139 1.304 . S
C134 O172 1.435 . S
C135 C134 1.309 . S
C135 C136 1.476 . S
C135 H199 0.930 . S
C136 C135 1.476 . S
C136 C137 1.400 . S
C136 C140 1.567 . S
C137 C136 1.400 . S
C137 C138 1.373 . S
C137 C159 1.432 . S
C138 C137 1.373 . S
C138 C139 1.339 . S
C138 C141 1.530 . S
C139 C134 1.304 . S
C139 C138 1.339 . S
C139 H200 0.930 . S
C140 C136 1.567 . S
C140 H201 0.961 . S
C140 H202 0.960 . S
C140 H203 0.958 . S
C141 C138 1.530 . S
C141 H204 0.961 . S
C141 H205 0.960 . S
C141 H206 0.960 . S
C142 C143 1.530 . S
C142 H208 0.961 . S
C142 H209 0.961 . S
C142 H210 0.959 . S
C143 C142 1.530 . S
C143 O171 1.412 . S
C143 H207 0.980 . S
C144 C145 1.288 . S
C144 C149 1.377 . S
C144 O171 1.393 . S
C145 C144 1.288 . S
C145 C146 1.388 . S
C145 H211 0.932 . S
C146 C145 1.388 . S
C146 C147 1.419 1_565 S
C146 C150 1.488 1_565 S
C147 C146 1.419 1_545 S
C147 C148 1.380 1_545 S
C147 C161 1.497 . S
C148 C147 1.380 1_565 S
C148 C149 1.383 . S
C148 C151 1.603 . S
C149 C144 1.377 . S
C149 C148 1.383 . S
C149 H212 0.929 . S
C150 C146 1.488 1_545 S
C150 H213 0.961 . S
C150 H214 0.959 . S
C150 H215 0.959 . S
C151 C148 1.603 . S
C151 H216 0.960 . S
C151 H217 0.962 1_565 S
C151 H218 0.961 . S
C152 C119 1.587 . S
C152 C153 1.360 . S
C152 C165 1.412 . S
C153 C152 1.360 . S
C153 C154 1.365 1_565 S
C153 H219 0.929 . S
C154 C129 1.553 . S
C154 C153 1.365 1_545 S
C154 C155 1.404 . S
C155 C154 1.404 . S
C155 C156 1.395 . S
C155 C166 1.451 . S
C156 C155 1.395 . S
C156 C157 1.322 . S
C156 H220 0.930 . S
C157 C156 1.322 . S
C157 C158 1.459 . S
C157 H221 0.929 . S
C158 C157 1.459 . S
C158 C159 1.445 . S
C158 C167 1.395 . S
C159 C137 1.432 . S
C159 C158 1.445 . S
C159 C160 1.370 . S
C160 C159 1.370 . S
C160 C161 1.438 . S
C160 H222 0.930 . S
C161 C147 1.497 . S
C161 C160 1.438 . S
C161 C162 1.360 . S
C162 C161 1.360 . S
C162 C163 1.401 1_545 S
C162 C167 1.446 . S
C163 C162 1.401 1_565 S
C163 C164 1.347 . S
C163 H223 0.929 . S
C164 C163 1.347 . S
C164 C165 1.455 . S
C164 H224 0.930 . S
C165 C152 1.412 . S
C165 C164 1.455 . S
C165 C166 1.331 1_565 S
C166 C155 1.451 . S
C166 C165 1.331 1_545 S
C166 C167 1.497 . S
C167 C158 1.395 . S
C167 C162 1.446 . S
C167 C166 1.497 . S
C168 C169 1.582 . S
C168 H225 0.962 . S
C168 H226 0.959 . S
C168 H227 0.958 . S
C169 C168 1.582 . S
C169 O172 1.458 . S
C169 H198 0.980 . S
O170 C115 1.426 . S
O170 C116 1.334 . S
O171 C143 1.412 . S
O171 C144 1.393 . S
O172 C134 1.435 . S
O172 C169 1.458 . S
O173 C125 1.468 . S
O173 C126 1.408 . S
H174 C115 0.980 . S
H175 C114 0.959 . S
H176 C114 0.959 . S
H177 C114 0.960 . S
H178 C117 0.929 . S
H179 C121 0.929 . S
H180 C122 0.959 . S
H181 C122 0.961 . S
H182 C122 0.961 . S
H183 C123 0.960 . S
H184 C123 0.960 . S
H185 C123 0.961 . S
H186 C125 0.980 . S
H187 C124 0.961 . S
H188 C124 0.960 . S
H189 C124 0.959 . S
H190 C127 0.930 . S
H191 C131 0.931 . S
H192 C132 0.959 . S
H193 C132 0.961 . S
H194 C132 0.959 . S
H195 C133 0.960 . S
H196 C133 0.960 . S
H197 C133 0.960 . S
H198 C169 0.980 . S
H199 C135 0.930 . S
H200 C139 0.930 . S
H201 C140 0.961 . S
H202 C140 0.960 . S
H203 C140 0.958 . S
H204 C141 0.961 . S
H205 C141 0.960 . S
H206 C141 0.960 . S
H207 C143 0.980 . S
H208 C142 0.961 . S
H209 C142 0.961 . S
H210 C142 0.959 . S
H211 C145 0.932 . S
H212 C149 0.929 . S
H213 C150 0.961 . S
H214 C150 0.959 . S
H215 C150 0.959 . S
H216 C151 0.960 . S
H217 C151 0.962 1_545 S
H218 C151 0.961 . S
H219 C153 0.929 . S
H220 C156 0.930 . S
H221 C157 0.929 . S
H222 C160 0.930 . S
H223 C163 0.929 . S
H224 C164 0.930 . S
H225 C168 0.962 . S
H226 C168 0.959 . S
H227 C168 0.958 . S
C228 C229 1.560 . S
C228 H289 0.959 . S
C228 H290 0.959 . S
C228 H291 0.960 . S
C229 C228 1.560 . S
C229 O284 1.426 . S
C229 H288 0.980 . S
C230 C231 1.407 . S
C230 C235 1.418 . S
C230 O284 1.334 . S
C231 C230 1.407 . S
C231 C232 1.360 . S
C231 H292 0.929 . S
C232 C231 1.360 . S
C232 C233 1.401 . S
C232 C236 1.527 . S
C233 C232 1.401 . S
C233 C234 1.405 . S
C233 C266 1.587 . S
C234 C233 1.405 . S
C234 C235 1.332 . S
C234 C237 1.496 . S
C235 C230 1.418 . S
C235 C234 1.332 . S
C235 H293 0.929 . S
C236 C232 1.527 . S
C236 H294 0.959 . S
C236 H295 0.961 . S
C236 H296 0.961 . S
C237 C234 1.496 . S
C237 H297 0.960 . S
C237 H298 0.960 . S
C237 H299 0.961 . S
C238 C239 1.517 . S
C238 H301 0.961 . S
C238 H302 0.960 . S
C238 H303 0.959 . S
C239 C238 1.517 . S
C239 O287 1.468 . S
C239 H300 0.980 . S
C240 C241 1.349 . S
C240 C245 1.367 . S
C240 O287 1.408 . S
C241 C240 1.349 . S
C241 C242 1.407 . S
C241 H304 0.930 . S
C242 C241 1.407 . S
C242 C243 1.449 . S
C242 C246 1.535 . S
C243 C242 1.449 . S
C243 C244 1.384 . S
C243 C268 1.553 . S
C244 C243 1.384 . S
C244 C245 1.364 . S
C244 C247 1.450 . S
C245 C240 1.367 . S
C245 C244 1.364 . S
C245 H305 0.931 . S
C246 C242 1.535 . S
C246 H306 0.959 . S
C246 H307 0.961 . S
C246 H308 0.959 . S
C247 C244 1.450 . S
C247 H309 0.960 . S
C247 H310 0.960 . S
C247 H311 0.960 . S
C248 C249 1.309 . S
C248 C253 1.304 . S
C248 O286 1.435 . S
C249 C248 1.309 . S
C249 C250 1.476 . S
C249 H313 0.930 . S
C250 C249 1.476 . S
C250 C251 1.400 . S
C250 C254 1.567 . S
C251 C250 1.400 . S
C251 C252 1.373 . S
C251 C273 1.432 . S
C252 C251 1.373 . S
C252 C253 1.339 . S
C252 C255 1.530 . S
C253 C248 1.304 . S
C253 C252 1.339 . S
C253 H314 0.930 . S
C254 C250 1.567 . S
C254 H315 0.961 . S
C254 H316 0.960 . S
C254 H317 0.958 . S
C255 C252 1.530 . S
C255 H318 0.961 . S
C255 H319 0.960 . S
C255 H320 0.960 . S
C256 C257 1.530 . S
C256 H322 0.961 . S
C256 H323 0.961 . S
C256 H324 0.959 . S
C257 C256 1.530 . S
C257 O285 1.412 . S
C257 H321 0.980 . S
C258 C259 1.288 . S
C258 C263 1.377 . S
C258 O285 1.393 . S
C259 C258 1.288 . S
C259 C260 1.369 . S
C259 H325 0.932 . S
C260 C259 1.369 . S
C260 C261 1.398 . S
C260 C264 1.527 . S
C261 C260 1.398 . S
C261 C262 1.380 . S
C261 C275 1.497 . S
C262 C261 1.380 . S
C262 C263 1.383 . S
C262 C265 1.603 . S
C263 C258 1.377 . S
C263 C262 1.383 . S
C263 H326 0.929 . S
C264 C260 1.527 . S
C264 H327 0.961 . S
C264 H328 0.959 . S
C264 H329 0.959 . S
C265 C262 1.603 . S
C265 H330 0.960 . S
C265 H331 0.962 . S
C265 H332 0.961 . S
C266 C233 1.587 . S
C266 C267 1.360 . S
C266 C279 1.412 . S
C267 C266 1.360 . S
C267 C268 1.365 . S
C267 H333 0.929 . S
C268 C243 1.553 . S
C268 C267 1.365 . S
C268 C269 1.404 . S
C269 C268 1.404 . S
C269 C270 1.395 . S
C269 C280 1.451 . S
C270 C269 1.395 . S
C270 C271 1.322 . S
C270 H334 0.930 . S
C271 C270 1.322 . S
C271 C272 1.459 . S
C271 H335 0.929 . S
C272 C271 1.459 . S
C272 C273 1.445 . S
C272 C281 1.395 . S
C273 C251 1.432 . S
C273 C272 1.445 . S
C273 C274 1.370 . S
C274 C273 1.370 . S
C274 C275 1.438 . S
C274 H336 0.930 . S
C275 C261 1.497 . S
C275 C274 1.438 . S
C275 C276 1.360 . S
C276 C275 1.360 . S
C276 C277 1.401 . S
C276 C281 1.446 . S
C277 C276 1.401 . S
C277 C278 1.347 . S
C277 H337 0.929 . S
C278 C277 1.347 . S
C278 C279 1.455 . S
C278 H338 0.930 . S
C279 C266 1.412 . S
C279 C278 1.455 . S
C279 C280 1.331 . S
C280 C269 1.451 . S
C280 C279 1.331 . S
C280 C281 1.497 . S
C281 C272 1.395 . S
C281 C276 1.446 . S
C281 C280 1.497 . S
C282 C283 1.582 . S
C282 H339 0.962 . S
C282 H340 0.959 . S
C282 H341 0.958 . S
C283 C282 1.582 . S
C283 O286 1.458 . S
C283 H312 0.980 . S
O284 C229 1.426 . S
O284 C230 1.334 . S
O285 C257 1.412 . S
O285 C258 1.393 . S
O286 C248 1.435 . S
O286 C283 1.458 . S
O287 C239 1.468 . S
O287 C240 1.408 . S
H288 C229 0.980 . S
H289 C228 0.959 . S
H290 C228 0.959 . S
H291 C228 0.960 . S
H292 C231 0.929 . S
H293 C235 0.929 . S
H294 C236 0.959 . S
H295 C236 0.961 . S
H296 C236 0.961 . S
H297 C237 0.960 . S
H298 C237 0.960 . S
H299 C237 0.961 . S
H300 C239 0.980 . S
H301 C238 0.961 . S
H302 C238 0.960 . S
H303 C238 0.959 . S
H304 C241 0.930 . S
H305 C245 0.931 . S
H306 C246 0.959 . S
H307 C246 0.961 . S
H308 C246 0.959 . S
H309 C247 0.960 . S
H310 C247 0.960 . S
H311 C247 0.960 . S
H312 C283 0.980 . S
H313 C249 0.930 . S
H314 C253 0.930 . S
H315 C254 0.961 . S
H316 C254 0.960 . S
H317 C254 0.958 . S
H318 C255 0.961 . S
H319 C255 0.960 . S
H320 C255 0.960 . S
H321 C257 0.980 . S
H322 C256 0.961 . S
H323 C256 0.961 . S
H324 C256 0.959 . S
H325 C259 0.932 . S
H326 C263 0.929 . S
H327 C264 0.961 . S
H328 C264 0.959 . S
H329 C264 0.959 . S
H330 C265 0.960 . S
H331 C265 0.962 . S
H332 C265 0.961 . S
H333 C267 0.929 . S
H334 C270 0.930 . S
H335 C271 0.929 . S
H336 C274 0.930 . S
H337 C277 0.929 . S
H338 C278 0.930 . S
H339 C282 0.962 . S
H340 C282 0.959 . S
H341 C282 0.958 . S
C342 C343 1.560 . S
C342 H403 0.959 . S
C342 H404 0.959 . S
C342 H405 0.960 . S
C343 C342 1.560 . S
C343 O398 1.426 . S
C343 H402 0.980 . S
C344 C345 1.407 . S
C344 C349 1.418 . S
C344 O398 1.334 . S
C345 C344 1.407 . S
C345 C346 1.360 . S
C345 H406 0.929 . S
C346 C345 1.360 . S
C346 C347 1.401 . S
C346 C350 1.527 . S
C347 C346 1.401 . S
C347 C348 1.405 . S
C347 C380 1.587 . S
C348 C347 1.405 . S
C348 C349 1.332 . S
C348 C351 1.496 . S
C349 C344 1.418 . S
C349 C348 1.332 . S
C349 H407 0.929 . S
C350 C346 1.527 . S
C350 H408 0.959 . S
C350 H409 0.961 . S
C350 H410 0.961 . S
C351 C348 1.496 . S
C351 H411 0.960 . S
C351 H412 0.960 . S
C351 H413 0.961 . S
C352 C353 1.517 . S
C352 H415 0.961 . S
C352 H416 0.960 . S
C352 H417 0.959 . S
C353 C352 1.517 . S
C353 O401 1.468 . S
C353 H414 0.980 . S
C354 C355 1.349 . S
C354 C359 1.367 . S
C354 O401 1.408 . S
C355 C354 1.349 . S
C355 C356 1.407 . S
C355 H418 0.930 . S
C356 C355 1.407 . S
C356 C357 1.449 . S
C356 C360 1.535 . S
C357 C356 1.449 . S
C357 C358 1.384 . S
C357 C382 1.553 1_655 S
C358 C357 1.384 . S
C358 C359 1.364 . S
C358 C361 1.450 . S
C359 C354 1.367 . S
C359 C358 1.364 . S
C359 H419 0.931 . S
C360 C356 1.535 . S
C360 H420 0.959 1_655 S
C360 H421 0.961 1_655 S
C360 H422 0.959 . S
C361 C358 1.450 . S
C361 H423 0.960 . S
C361 H424 0.960 1_655 S
C361 H425 0.960 . S
C362 C363 1.309 . S
C362 C367 1.304 . S
C362 O400 1.435 . S
C363 C362 1.309 . S
C363 C364 1.476 . S
C363 H427 0.930 . S
C364 C363 1.476 . S
C364 C365 1.400 . S
C364 C368 1.567 . S
C365 C364 1.400 . S
C365 C366 1.373 . S
C365 C387 1.432 . S
C366 C365 1.373 . S
C366 C367 1.339 . S
C366 C369 1.530 . S
C367 C362 1.304 . S
C367 C366 1.339 . S
C367 H428 0.930 . S
C368 C364 1.567 . S
C368 H429 0.961 . S
C368 H430 0.960 . S
C368 H431 0.958 . S
C369 C366 1.530 . S
C369 H432 0.961 . S
C369 H433 0.960 . S
C369 H434 0.960 . S
C370 C371 1.530 . S
C370 H436 0.961 . S
C370 H437 0.961 . S
C370 H438 0.959 . S
C371 C370 1.530 . S
C371 O399 1.412 . S
C371 H435 0.980 . S
C372 C373 1.288 . S
C372 C377 1.377 . S
C372 O399 1.393 . S
C373 C372 1.288 . S
C373 C374 1.369 . S
C373 H439 0.932 . S
C374 C373 1.369 . S
C374 C375 1.398 . S
C374 C378 1.527 . S
C375 C374 1.398 . S
C375 C376 1.380 . S
C375 C389 1.497 . S
C376 C375 1.380 . S
C376 C377 1.383 . S
C376 C379 1.603 . S
C377 C372 1.377 . S
C377 C376 1.383 . S
C377 H440 0.929 . S
C378 C374 1.527 . S
C378 H441 0.961 . S
C378 H442 0.940 1_455 S
C378 H443 0.959 . S
C379 C376 1.603 . S
C379 H444 0.960 . S
C379 H445 0.962 . S
C379 H446 0.961 . S
C380 C347 1.587 . S
C380 C381 1.360 . S
C380 C393 1.412 . S
C381 C380 1.360 . S
C381 C382 1.365 . S
C381 H447 0.929 . S
C382 C357 1.553 1_455 S
C382 C381 1.365 . S
C382 C383 1.404 . S
C383 C382 1.404 . S
C383 C384 1.395 1_455 S
C383 C394 1.451 . S
C384 C383 1.395 1_655 S
C384 C385 1.322 . S
C384 H448 0.930 . S
C385 C384 1.322 . S
C385 C386 1.459 . S
C385 H449 0.929 . S
C386 C385 1.459 . S
C386 C387 1.445 . S
C386 C395 1.395 1_655 S
C387 C365 1.432 . S
C387 C386 1.445 . S
C387 C388 1.370 . S
C388 C387 1.370 . S
C388 C389 1.438 1_655 S
C388 H450 0.930 . S
C389 C375 1.497 . S
C389 C388 1.438 1_455 S
C389 C390 1.360 . S
C390 C389 1.360 . S
C390 C391 1.401 . S
C390 C395 1.446 . S
C391 C390 1.401 . S
C391 C392 1.347 . S
C391 H451 0.929 . S
C392 C391 1.347 . S
C392 C393 1.455 . S
C392 H452 0.930 . S
C393 C380 1.412 . S
C393 C392 1.455 . S
C393 C394 1.331 . S
C394 C383 1.451 . S
C394 C393 1.331 . S
C394 C395 1.497 . S
C395 C386 1.395 1_455 S
C395 C390 1.446 . S
C395 C394 1.497 . S
C396 C397 1.582 . S
C396 H453 0.962 . S
C396 H454 0.959 . S
C396 H455 0.958 . S
C397 C396 1.582 . S
C397 O400 1.458 . S
C397 H426 0.980 . S
O398 C343 1.426 . S
O398 C344 1.334 . S
O399 C371 1.412 . S
O399 C372 1.393 . S
O400 C362 1.435 . S
O400 C397 1.458 . S
O401 C353 1.468 . S
O401 C354 1.408 . S
H402 C343 0.980 . S
H403 C342 0.959 . S
H404 C342 0.959 . S
H405 C342 0.960 . S
H406 C345 0.929 . S
H407 C349 0.929 . S
H408 C350 0.959 . S
H409 C350 0.961 . S
H410 C350 0.961 . S
H411 C351 0.960 . S
H412 C351 0.960 . S
H413 C351 0.961 . S
H414 C353 0.980 . S
H415 C352 0.961 . S
H416 C352 0.960 . S
H417 C352 0.959 . S
H418 C355 0.930 . S
H419 C359 0.931 . S
H420 C360 0.959 1_455 S
H421 C360 0.961 1_455 S
H422 C360 0.959 . S
H423 C361 0.960 . S
H424 C361 0.960 1_455 S
H425 C361 0.960 . S
H426 C397 0.980 . S
H427 C363 0.930 . S
H428 C367 0.930 . S
H429 C368 0.961 . S
H430 C368 0.960 . S
H431 C368 0.958 . S
H432 C369 0.961 . S
H433 C369 0.960 . S
H434 C369 0.960 . S
H435 C371 0.980 . S
H436 C370 0.961 . S
H437 C370 0.961 . S
H438 C370 0.959 . S
H439 C373 0.932 . S
H440 C377 0.929 . S
H441 C378 0.961 . S
H442 C378 0.940 1_655 S
H443 C378 0.959 . S
H444 C379 0.960 . S
H445 C379 0.962 . S
H446 C379 0.961 . S
H447 C381 0.929 . S
H448 C384 0.930 . S
H449 C385 0.929 . S
H450 C388 0.930 . S
H451 C391 0.929 . S
H452 C392 0.930 . S
H453 C396 0.962 . S
H454 C396 0.959 . S
H455 C396 0.958 . S
C456 C457 1.560 . S
C456 H517 0.959 . S
C456 H518 0.959 . S
C456 H519 0.960 . S
C457 C456 1.560 . S
C457 O512 1.426 . S
C457 H516 0.980 . S
C458 C459 1.407 . S
C458 C463 1.418 . S
C458 O512 1.334 . S
C459 C458 1.407 . S
C459 C460 1.360 . S
C459 H520 0.929 . S
C460 C459 1.360 . S
C460 C461 1.401 . S
C460 C464 1.527 . S
C461 C460 1.401 . S
C461 C462 1.405 . S
C461 C494 1.587 . S
C462 C461 1.405 . S
C462 C463 1.332 . S
C462 C465 1.496 . S
C463 C458 1.418 . S
C463 C462 1.332 . S
C463 H521 0.929 . S
C464 C460 1.527 . S
C464 H522 0.959 . S
C464 H523 0.961 . S
C464 H524 0.961 . S
C465 C462 1.496 . S
C465 H525 0.960 . S
C465 H526 0.960 . S
C465 H527 0.961 . S
C466 C467 1.517 . S
C466 H529 0.961 . S
C466 H530 0.960 . S
C466 H531 0.959 . S
C467 C466 1.517 . S
C467 O515 1.468 . S
C467 H528 0.980 . S
C468 C469 1.349 . S
C468 C473 1.367 . S
C468 O515 1.408 . S
C469 C468 1.349 . S
C469 C470 1.407 . S
C469 H532 0.930 . S
C470 C469 1.407 . S
C470 C471 1.449 . S
C470 C474 1.535 . S
C471 C470 1.449 . S
C471 C472 1.384 . S
C471 C496 1.553 . S
C472 C471 1.384 . S
C472 C473 1.364 . S
C472 C475 1.450 . S
C473 C468 1.367 . S
C473 C472 1.364 . S
C473 H533 0.931 . S
C474 C470 1.535 . S
C474 H534 0.959 . S
C474 H535 0.961 . S
C474 H536 0.959 . S
C475 C472 1.450 . S
C475 H537 0.960 . S
C475 H538 0.960 . S
C475 H539 0.960 . S
C476 C477 1.309 . S
C476 C481 1.304 . S
C476 O514 1.435 . S
C477 C476 1.309 . S
C477 C478 1.476 . S
C477 H541 0.930 . S
C478 C477 1.476 . S
C478 C479 1.400 . S
C478 C482 1.567 . S
C479 C478 1.400 . S
C479 C480 1.373 . S
C479 C501 1.432 . S
C480 C479 1.373 . S
C480 C481 1.339 . S
C480 C483 1.530 . S
C481 C476 1.304 . S
C481 C480 1.339 . S
C481 H542 0.930 . S
C482 C478 1.567 . S
C482 H543 0.961 . S
C482 H544 0.960 . S
C482 H545 0.958 . S
C483 C480 1.530 . S
C483 H546 0.961 . S
C483 H547 0.960 . S
C483 H548 0.960 . S
C484 C485 1.530 . S
C484 H550 0.961 . S
C484 H551 0.961 . S
C484 H552 0.959 . S
C485 C484 1.530 . S
C485 O513 1.412 . S
C485 H549 0.980 . S
C486 C487 1.288 . S
C486 C491 1.377 . S
C486 O513 1.393 . S
C487 C486 1.288 . S
C487 C488 1.369 1_565 S
C487 H553 0.932 . S
C488 C487 1.369 1_545 S
C488 C489 1.398 . S
C488 C492 1.527 . S
C489 C488 1.398 . S
C489 C490 1.380 1_545 S
C489 C503 1.497 . S
C490 C489 1.380 1_565 S
C490 C491 1.383 . S
C490 C493 1.603 . S
C491 C486 1.377 . S
C491 C490 1.383 . S
C491 H554 0.929 . S
C492 C488 1.527 . S
C492 H555 0.961 . S
C492 H556 0.959 . S
C492 H557 0.959 . S
C493 C490 1.603 . S
C493 H558 0.960 . S
C493 H559 0.962 1_565 S
C493 H560 0.961 . S
C494 C461 1.587 . S
C494 C495 1.360 . S
C494 C507 1.412 . S
C495 C494 1.360 . S
C495 C496 1.365 1_565 S
C495 H561 0.929 . S
C496 C471 1.553 . S
C496 C495 1.365 1_545 S
C496 C497 1.404 . S
C497 C496 1.404 . S
C497 C498 1.395 . S
C497 C508 1.451 . S
C498 C497 1.395 . S
C498 C499 1.322 . S
C498 H562 0.930 . S
C499 C498 1.322 . S
C499 C500 1.459 . S
C499 H563 0.929 . S
C500 C499 1.459 . S
C500 C501 1.445 1_556 S
C500 C509 1.395 . S
C501 C479 1.432 . S
C501 C500 1.445 1_554 S
C501 C502 1.370 . S
C502 C501 1.370 . S
C502 C503 1.438 . S
C502 H564 0.930 . S
C503 C489 1.497 . S
C503 C502 1.438 . S
C503 C504 1.360 . S
C504 C503 1.360 . S
C504 C505 1.401 1_545 S
C504 C509 1.446 1_554 S
C505 C504 1.401 1_565 S
C505 C506 1.347 1_554 S
C505 H565 0.929 . S
C506 C505 1.347 1_556 S
C506 C507 1.455 . S
C506 H566 0.930 . S
C507 C494 1.412 . S
C507 C506 1.455 . S
C507 C508 1.331 1_565 S
C508 C497 1.451 . S
C508 C507 1.331 1_545 S
C508 C509 1.497 . S
C509 C500 1.395 . S
C509 C504 1.446 1_556 S
C509 C508 1.497 . S
C510 C511 1.582 . S
C510 H567 0.962 . S
C510 H568 0.959 . S
C510 H569 0.958 . S
C511 C510 1.582 . S
C511 O514 1.458 . S
C511 H540 0.980 . S
O512 C457 1.426 . S
O512 C458 1.334 . S
O513 C485 1.412 . S
O513 C486 1.393 . S
O514 C476 1.435 . S
O514 C511 1.458 . S
O515 C467 1.468 . S
O515 C468 1.408 . S
H516 C457 0.980 . S
H517 C456 0.959 . S
H518 C456 0.959 . S
H519 C456 0.960 . S
H520 C459 0.929 . S
H521 C463 0.929 . S
H522 C464 0.959 . S
H523 C464 0.961 . S
H524 C464 0.961 . S
H525 C465 0.960 . S
H526 C465 0.960 . S
H527 C465 0.961 . S
H528 C467 0.980 . S
H529 C466 0.961 . S
H530 C466 0.960 . S
H531 C466 0.959 . S
H532 C469 0.930 . S
H533 C473 0.931 . S
H534 C474 0.959 . S
H535 C474 0.961 . S
H536 C474 0.959 . S
H537 C475 0.960 . S
H538 C475 0.960 . S
H539 C475 0.960 . S
H540 C511 0.980 . S
H541 C477 0.930 . S
H542 C481 0.930 . S
H543 C482 0.961 . S
H544 C482 0.960 . S
H545 C482 0.958 . S
H546 C483 0.961 . S
H547 C483 0.960 . S
H548 C483 0.960 . S
H549 C485 0.980 . S
H550 C484 0.961 . S
H551 C484 0.961 . S
H552 C484 0.959 . S
H553 C487 0.932 . S
H554 C491 0.929 . S
H555 C492 0.961 . S
H556 C492 0.959 . S
H557 C492 0.959 . S
H558 C493 0.960 . S
H559 C493 0.962 1_545 S
H560 C493 0.961 . S
H561 C495 0.929 . S
H562 C498 0.930 . S
H563 C499 0.929 . S
H564 C502 0.930 . S
H565 C505 0.929 . S
H566 C506 0.930 . S
H567 C510 0.962 . S
H568 C510 0.959 . S
H569 C510 0.958 . S
C570 C571 1.560 . S
C570 H631 0.959 . S
C570 H632 0.959 . S
C570 H633 0.960 . S
C571 C570 1.560 . S
C571 O626 1.426 . S
C571 H630 0.980 . S
C572 C573 1.407 . S
C572 C577 1.418 . S
C572 O626 1.334 . S
C573 C572 1.407 . S
C573 C574 1.360 . S
C573 H634 0.929 . S
C574 C573 1.360 . S
C574 C575 1.401 . S
C574 C578 1.527 . S
C575 C574 1.401 . S
C575 C576 1.405 . S
C575 C608 1.587 . S
C576 C575 1.405 . S
C576 C577 1.332 . S
C576 C579 1.496 . S
C577 C572 1.418 . S
C577 C576 1.332 . S
C577 H635 0.929 . S
C578 C574 1.527 . S
C578 H636 0.959 . S
C578 H637 0.961 . S
C578 H638 0.961 . S
C579 C576 1.496 . S
C579 H639 0.960 . S
C579 H640 0.960 . S
C579 H641 0.961 . S
C580 C581 1.517 . S
C580 H643 0.961 . S
C580 H644 0.960 . S
C580 H645 0.959 . S
C581 C580 1.517 . S
C581 O629 1.468 . S
C581 H642 0.980 . S
C582 C583 1.349 . S
C582 C587 1.367 . S
C582 O629 1.408 . S
C583 C582 1.349 . S
C583 C584 1.407 . S
C583 H646 0.930 . S
C584 C583 1.407 . S
C584 C585 1.449 . S
C584 C588 1.535 . S
C585 C584 1.449 . S
C585 C586 1.384 . S
C585 C610 1.553 . S
C586 C585 1.384 . S
C586 C587 1.364 . S
C586 C589 1.450 . S
C587 C582 1.367 . S
C587 C586 1.364 . S
C587 H647 0.931 . S
C588 C584 1.535 . S
C588 H648 0.959 . S
C588 H649 0.961 . S
C588 H650 0.959 . S
C589 C586 1.450 . S
C589 H651 0.960 . S
C589 H652 0.960 . S
C589 H653 0.960 . S
C590 C591 1.309 . S
C590 C595 1.304 . S
C590 O628 1.435 . S
C591 C590 1.309 . S
C591 C592 1.476 . S
C591 H655 0.930 . S
C592 C591 1.476 . S
C592 C593 1.400 . S
C592 C596 1.567 . S
C593 C592 1.400 . S
C593 C594 1.373 . S
C593 C615 1.432 . S
C594 C593 1.373 . S
C594 C595 1.339 . S
C594 C597 1.530 . S
C595 C590 1.304 . S
C595 C594 1.339 . S
C595 H656 0.930 . S
C596 C592 1.567 . S
C596 H657 0.961 . S
C596 H658 0.960 . S
C596 H659 0.958 . S
C597 C594 1.530 . S
C597 H660 0.961 . S
C597 H661 0.960 . S
C597 H662 0.960 . S
C598 C599 1.530 . S
C598 H664 0.961 . S
C598 H665 0.961 . S
C598 H666 0.959 . S
C599 C598 1.530 . S
C599 O627 1.412 . S
C599 H663 0.980 . S
C600 C601 1.288 . S
C600 C605 1.377 . S
C600 O627 1.393 . S
C601 C600 1.288 . S
C601 C602 1.369 . S
C601 H667 0.932 . S
C602 C601 1.369 . S
C602 C603 1.398 . S
C602 C606 1.527 . S
C603 C602 1.398 . S
C603 C604 1.380 . S
C603 C617 1.497 . S
C604 C603 1.380 . S
C604 C605 1.383 . S
C604 C607 1.603 . S
C605 C600 1.377 . S
C605 C604 1.383 . S
C605 H668 0.929 . S
C606 C602 1.527 . S
C606 H669 0.961 . S
C606 H670 0.959 . S
C606 H671 0.959 . S
C607 C604 1.603 . S
C607 H672 0.960 . S
C607 H673 0.962 . S
C607 H674 0.961 . S
C608 C575 1.587 . S
C608 C609 1.360 . S
C608 C621 1.412 . S
C609 C608 1.360 . S
C609 C610 1.365 . S
C609 H675 0.929 . S
C610 C585 1.553 . S
C610 C609 1.365 . S
C610 C611 1.404 . S
C611 C610 1.404 . S
C611 C612 1.395 . S
C611 C622 1.451 . S
C612 C611 1.395 . S
C612 C613 1.322 . S
C612 H676 0.930 . S
C613 C612 1.322 . S
C613 C614 1.459 . S
C613 H677 0.929 . S
C614 C613 1.459 . S
C614 C615 1.445 . S
C614 C623 1.395 . S
C615 C593 1.432 . S
C615 C614 1.445 . S
C615 C616 1.370 . S
C616 C615 1.370 . S
C616 C617 1.438 . S
C616 H678 0.930 . S
C617 C603 1.497 . S
C617 C616 1.438 . S
C617 C618 1.360 . S
C618 C617 1.360 . S
C618 C619 1.401 . S
C618 C623 1.446 . S
C619 C618 1.401 . S
C619 C620 1.347 . S
C619 H679 0.929 . S
C620 C619 1.347 . S
C620 C621 1.455 . S
C620 H680 0.930 . S
C621 C608 1.412 . S
C621 C620 1.455 . S
C621 C622 1.331 . S
C622 C611 1.451 . S
C622 C621 1.331 . S
C622 C623 1.497 . S
C623 C614 1.395 . S
C623 C618 1.446 . S
C623 C622 1.497 . S
C624 C625 1.582 . S
C624 H681 0.962 . S
C624 H682 0.959 . S
C624 H683 0.958 . S
C625 C624 1.582 . S
C625 O628 1.458 . S
C625 H654 0.980 . S
O626 C571 1.426 . S
O626 C572 1.334 . S
O627 C599 1.412 . S
O627 C600 1.393 . S
O628 C590 1.435 . S
O628 C625 1.458 . S
O629 C581 1.468 . S
O629 C582 1.408 . S
H630 C571 0.980 . S
H631 C570 0.959 . S
H632 C570 0.959 . S
H633 C570 0.960 . S
H634 C573 0.929 . S
H635 C577 0.929 . S
H636 C578 0.959 . S
H637 C578 0.961 . S
H638 C578 0.961 . S
H639 C579 0.960 . S
H640 C579 0.960 . S
H641 C579 0.961 . S
H642 C581 0.980 . S
H643 C580 0.961 . S
H644 C580 0.960 . S
H645 C580 0.959 . S
H646 C583 0.930 . S
H647 C587 0.931 . S
H648 C588 0.959 . S
H649 C588 0.961 . S
H650 C588 0.959 . S
H651 C589 0.960 . S
H652 C589 0.960 . S
H653 C589 0.960 . S
H654 C625 0.980 . S
H655 C591 0.930 . S
H656 C595 0.930 . S
H657 C596 0.961 . S
H658 C596 0.960 . S
H659 C596 0.958 . S
H660 C597 0.961 . S
H661 C597 0.960 . S
H662 C597 0.960 . S
H663 C599 0.980 . S
H664 C598 0.961 . S
H665 C598 0.961 . S
H666 C598 0.959 . S
H667 C601 0.932 . S
H668 C605 0.929 . S
H669 C606 0.961 . S
H670 C606 0.959 . S
H671 C606 0.959 . S
H672 C607 0.960 . S
H673 C607 0.962 . S
H674 C607 0.961 . S
H675 C609 0.929 . S
H676 C612 0.930 . S
H677 C613 0.929 . S
H678 C616 0.930 . S
H679 C619 0.929 . S
H680 C620 0.930 . S
H681 C624 0.962 . S
H682 C624 0.959 . S
H683 C624 0.958 . S
Mg684 O685 2.028 . S
Mg684 O691 1.986 . S
Mg684 O693 2.114 . S
Mg684 O694 2.251 . S
Mg684 O697 2.010 . S
O685 Mg684 2.028 . S
O685 C688 1.250 . S
O686 Mg687 2.028 . S
O686 C688 1.248 . S
Mg687 O686 2.028 . S
Mg687 O692 2.032 . S
Mg687 O694 2.079 . S
C688 O685 1.250 . S
C688 O686 1.248 . S
C689 O690 1.264 . S
C689 O697 1.249 . S
O690 C689 1.264 . S
O691 Mg684 1.986 . S
O691 C695 1.246 . S
O692 Mg687 2.032 . S
O692 C695 1.259 . S
O693 Mg684 2.114 . S
O693 C696 1.252 . S
O694 Mg684 2.251 . S
O694 Mg687 2.079 . S
O694 C696 1.273 . S
C695 O691 1.246 . S
C695 O692 1.259 . S
C696 O693 1.252 . S
C696 O694 1.273 . S
O697 Mg684 2.010 . S
O697 C689 1.249 . S
Mg698 O699 2.028 . S
Mg698 O705 1.986 . S
Mg698 O707 2.114 . S
Mg698 O708 2.251 . S
Mg698 O711 2.010 . S
O699 Mg698 2.028 . S
O699 C702 1.250 . S
O700 Mg701 2.028 . S
O700 C702 1.248 . S
Mg701 O700 2.028 . S
Mg701 O706 2.032 . S
Mg701 O708 2.079 . S
C702 O699 1.250 . S
C702 O700 1.248 . S
C703 O704 1.264 . S
C703 O711 1.249 . S
O704 C703 1.264 . S
O705 Mg698 1.986 . S
O705 C709 1.246 . S
O706 Mg701 2.032 . S
O706 C709 1.259 . S
O707 Mg698 2.114 . S
O707 C710 1.252 . S
O708 Mg698 2.251 . S
O708 Mg701 2.079 . S
O708 C710 1.273 . S
C709 O705 1.246 . S
C709 O706 1.259 . S
C710 O707 1.252 . S
C710 O708 1.273 . S
O711 Mg698 2.010 . S
O711 C703 1.249 . S
Mg712 O713 2.028 . S
Mg712 O719 1.986 . S
Mg712 O721 2.114 . S
Mg712 O722 2.251 . S
Mg712 O725 2.010 . S
O713 Mg712 2.028 . S
O713 C716 1.250 . S
O714 Mg715 2.028 . S
O714 C716 1.248 . S
Mg715 O714 2.028 . S
Mg715 O720 2.032 . S
Mg715 O722 2.079 . S
C716 O713 1.250 . S
C716 O714 1.248 . S
C717 O718 1.264 . S
C717 O725 1.249 . S
O718 C717 1.264 . S
O719 Mg712 1.986 . S
O719 C723 1.246 . S
O720 Mg715 2.032 . S
O720 C723 1.259 . S
O721 Mg712 2.114 . S
O721 C724 1.252 . S
O722 Mg712 2.251 . S
O722 Mg715 2.079 . S
O722 C724 1.273 . S
C723 O719 1.246 . S
C723 O720 1.259 . S
C724 O721 1.252 . S
C724 O722 1.273 . S
O725 Mg712 2.010 . S
O725 C717 1.249 . S
Mg726 O727 2.028 . S
Mg726 O733 1.986 . S
Mg726 O735 2.114 . S
Mg726 O736 2.251 . S
Mg726 O739 2.010 . S
O727 Mg726 2.028 . S
O727 C730 1.250 . S
O728 Mg729 2.028 . S
O728 C730 1.248 . S
Mg729 O728 2.028 . S
Mg729 O734 2.032 . S
Mg729 O736 2.079 . S
C730 O727 1.250 . S
C730 O728 1.248 . S
C731 O732 1.264 . S
C731 O739 1.249 . S
O732 C731 1.264 . S
O733 Mg726 1.986 . S
O733 C737 1.246 . S
O734 Mg729 2.032 . S
O734 C737 1.259 . S
O735 Mg726 2.114 . S
O735 C738 1.252 . S
O736 Mg726 2.251 . S
O736 Mg729 2.079 . S
O736 C738 1.273 . S
C737 O733 1.246 . S
C737 O734 1.259 . S
C738 O735 1.252 . S
C738 O736 1.273 . S
O739 Mg726 2.010 . S
O739 C731 1.249 . S
Mg740 O741 2.028 . S
Mg740 O747 1.986 . S
Mg740 O749 2.114 . S
Mg740 O750 2.251 . S
Mg740 O753 2.010 . S
O741 Mg740 2.028 . S
O741 C744 1.250 . S
O742 Mg743 2.028 . S
O742 C744 1.248 . S
Mg743 O742 2.028 . S
Mg743 O748 2.032 . S
Mg743 O750 2.079 . S
C744 O741 1.250 . S
C744 O742 1.248 . S
C745 O746 1.264 . S
C745 O753 1.249 . S
O746 C745 1.264 . S
O747 Mg740 1.986 . S
O747 C751 1.246 . S
O748 Mg743 2.032 . S
O748 C751 1.259 . S
O749 Mg740 2.114 . S
O749 C752 1.252 . S
O750 Mg740 2.251 . S
O750 Mg743 2.079 . S
O750 C752 1.273 . S
C751 O747 1.246 . S
C751 O748 1.259 . S
C752 O749 1.252 . S
C752 O750 1.273 . S
O753 Mg740 2.010 . S
O753 C745 1.249 . S
Mg754 O755 2.028 . S
Mg754 O761 1.986 . S
Mg754 O763 2.114 . S
Mg754 O764 2.251 . S
Mg754 O767 2.010 . S
O755 Mg754 2.028 . S
O755 C758 1.250 . S
O756 Mg757 2.028 . S
O756 C758 1.248 . S
Mg757 O756 2.028 . S
Mg757 O762 2.032 . S
Mg757 O764 2.079 . S
C758 O755 1.250 . S
C758 O756 1.248 . S
C759 O760 1.264 . S
C759 O767 1.249 . S
O760 C759 1.264 . S
O761 Mg754 1.986 . S
O761 C765 1.246 . S
O762 Mg757 2.032 . S
O762 C765 1.259 . S
O763 Mg754 2.114 . S
O763 C766 1.252 . S
O764 Mg754 2.251 . S
O764 Mg757 2.079 . S
O764 C766 1.273 . S
C765 O761 1.246 . S
C765 O762 1.259 . S
C766 O763 1.252 . S
C766 O764 1.273 . S
O767 Mg754 2.010 . S
O767 C759 1.249 . S
C768 C769 1.349 . S
C768 C770 1.327 . S
C768 H793 0.950 . S
C769 C768 1.349 . S
C769 C785 1.349 . S
C770 C768 1.327 . S
C770 C789 1.429 . S
C770 H794 0.950 . S
C771 C788 1.574 . S
C771 C790 1.368 . S
C771 H795 0.949 . S
H772 C776 0.949 . S
C773 C774 1.349 . S
C773 C775 1.327 . S
C773 H796 0.950 . S
C774 C773 1.349 . S
C774 C786 1.349 . S
C775 C773 1.327 . S
C775 C791 1.429 . S
C775 H797 0.950 . S
C776 H772 0.949 . S
C776 C784 1.574 . S
C776 C792 1.368 . S
H777 C785 0.950 . S
H778 C783 0.950 . S
H779 C784 0.949 . S
H780 C786 0.950 . S
H781 C787 0.950 . S
H782 C788 0.949 . S
C783 H778 0.950 . S
C783 C785 1.327 . S
C783 C789 1.429 . S
C784 C776 1.574 . S
C784 H779 0.949 . S
C784 C790 1.368 . S
C785 C769 1.349 . S
C785 H777 0.950 . S
C785 C783 1.327 . S
C786 C774 1.349 . S
C786 H780 0.950 . S
C786 C787 1.327 . S
C787 H781 0.950 . S
C787 C786 1.327 . S
C787 C791 1.429 . S
C788 C771 1.574 . S
C788 H782 0.949 . S
C788 C792 1.368 . S
C789 C770 1.429 . S
C789 C783 1.429 . S
C789 C790 1.523 . S
C790 C771 1.368 . S
C790 C784 1.368 . S
C790 C789 1.523 . S
C791 C775 1.429 . S
C791 C787 1.429 . S
C791 C792 1.523 . S
C792 C776 1.368 . S
C792 C788 1.368 . S
C792 C791 1.523 . S
H793 C768 0.950 . S
H794 C770 0.950 . S
H795 C771 0.949 . S
H796 C773 0.950 . S
H797 C775 0.950 . S
C798 C799 1.349 . S
C798 C800 1.327 . S
C798 H823 0.950 . S
C799 C798 1.349 . S
C799 C815 1.349 . S
C800 C798 1.327 . S
C800 C819 1.429 . S
C800 H824 0.950 . S
C801 C818 1.574 . S
C801 C820 1.368 . S
C801 H825 0.949 . S
H802 C806 0.949 . S
C803 C804 1.349 . S
C803 C805 1.327 . S
C803 H826 0.950 . S
C804 C803 1.349 . S
C804 C816 1.349 . S
C805 C803 1.327 . S
C805 C821 1.429 . S
C805 H827 0.950 . S
C806 H802 0.949 . S
C806 C814 1.574 . S
C806 C822 1.368 . S
H807 C815 0.950 . S
H808 C813 0.950 . S
H809 C814 0.949 . S
H810 C816 0.950 . S
H811 C817 0.950 . S
H812 C818 0.949 . S
C813 H808 0.950 . S
C813 C815 1.327 . S
C813 C819 1.429 . S
C814 C806 1.574 . S
C814 H809 0.949 . S
C814 C820 1.368 . S
C815 C799 1.349 . S
C815 H807 0.950 . S
C815 C813 1.327 . S
C816 C804 1.349 . S
C816 H810 0.950 . S
C816 C817 1.327 . S
C817 H811 0.950 . S
C817 C816 1.327 . S
C817 C821 1.429 . S
C818 C801 1.574 . S
C818 H812 0.949 . S
C818 C822 1.368 . S
C819 C800 1.429 . S
C819 C813 1.429 . S
C819 C820 1.523 . S
C820 C801 1.368 . S
C820 C814 1.368 . S
C820 C819 1.523 . S
C821 C805 1.429 . S
C821 C817 1.429 . S
C821 C822 1.523 . S
C822 C806 1.368 . S
C822 C818 1.368 . S
C822 C821 1.523 . S
H823 C798 0.950 . S
H824 C800 0.950 . S
H825 C801 0.949 . S
H826 C803 0.950 . S
H827 C805 0.950 . S
C828 C829 1.349 . S
C828 C830 1.327 . S
C828 H853 0.950 . S
C829 C828 1.349 . S
C829 C845 1.349 . S
C830 C828 1.327 . S
C830 C849 1.429 . S
C830 H854 0.950 . S
C831 C848 1.574 . S
C831 C850 1.368 . S
C831 H855 0.949 . S
H832 C836 0.949 . S
C833 C834 1.349 . S
C833 C835 1.327 . S
C833 H856 0.950 . S
C834 C833 1.349 . S
C834 C846 1.349 . S
C835 C833 1.327 . S
C835 C851 1.429 . S
C835 H857 0.950 . S
C836 H832 0.949 . S
C836 C844 1.574 . S
C836 C852 1.368 . S
H837 C845 0.950 . S
H838 C843 0.950 . S
H839 C844 0.949 . S
H840 C846 0.950 . S
H841 C847 0.950 . S
H842 C848 0.949 . S
C843 H838 0.950 . S
C843 C845 1.327 . S
C843 C849 1.429 . S
C844 C836 1.574 . S
C844 H839 0.949 . S
C844 C850 1.368 . S
C845 C829 1.349 . S
C845 H837 0.950 . S
C845 C843 1.327 . S
C846 C834 1.349 . S
C846 H840 0.950 . S
C846 C847 1.327 . S
C847 H841 0.950 . S
C847 C846 1.327 . S
C847 C851 1.429 . S
C848 C831 1.574 . S
C848 H842 0.949 . S
C848 C852 1.368 . S
C849 C830 1.429 . S
C849 C843 1.429 . S
C849 C850 1.523 . S
C850 C831 1.368 . S
C850 C844 1.368 . S
C850 C849 1.523 . S
C851 C835 1.429 . S
C851 C847 1.429 . S
C851 C852 1.523 . S
C852 C836 1.368 . S
C852 C848 1.368 . S
C852 C851 1.523 . S
H853 C828 0.950 . S
H854 C830 0.950 . S
H855 C831 0.949 . S
H856 C833 0.950 . S
H857 C835 0.950 . S
C858 C859 1.349 . S
C858 C860 1.327 . S
C858 H883 0.950 . S
C859 C858 1.349 . S
C859 C875 1.349 . S
C860 C858 1.327 . S
C860 C879 1.429 . S
C860 H884 0.950 . S
C861 C878 1.574 . S
C861 C880 1.368 . S
C861 H885 0.949 . S
H862 C866 0.949 . S
C863 C864 1.349 . S
C863 C865 1.327 . S
C863 H886 0.950 . S
C864 C863 1.349 . S
C864 C876 1.349 . S
C865 C863 1.327 . S
C865 C881 1.429 . S
C865 H887 0.950 . S
C866 H862 0.949 . S
C866 C874 1.574 . S
C866 C882 1.368 . S
H867 C875 0.950 . S
H868 C873 0.950 . S
H869 C874 0.949 . S
H870 C876 0.950 . S
H871 C877 0.950 . S
H872 C878 0.949 . S
C873 H868 0.950 . S
C873 C875 1.327 . S
C873 C879 1.429 . S
C874 C866 1.574 . S
C874 H869 0.949 . S
C874 C880 1.368 . S
C875 C859 1.349 . S
C875 H867 0.950 . S
C875 C873 1.327 . S
C876 C864 1.349 . S
C876 H870 0.950 . S
C876 C877 1.327 . S
C877 H871 0.950 . S
C877 C876 1.327 . S
C877 C881 1.429 . S
C878 C861 1.574 . S
C878 H872 0.949 . S
C878 C882 1.368 . S
C879 C860 1.429 . S
C879 C873 1.429 . S
C879 C880 1.523 . S
C880 C861 1.368 . S
C880 C874 1.368 . S
C880 C879 1.523 . S
C881 C865 1.429 . S
C881 C877 1.429 . S
C881 C882 1.523 . S
C882 C866 1.368 . S
C882 C878 1.368 . S
C882 C881 1.523 . S
H883 C858 0.950 . S
H884 C860 0.950 . S
H885 C861 0.949 . S
H886 C863 0.950 . S
H887 C865 0.950 . S
C888 C889 1.349 . S
C888 C890 1.327 . S
C888 H913 0.950 . S
C889 C888 1.349 . S
C889 C905 1.349 . S
C890 C888 1.327 . S
C890 C909 1.429 . S
C890 H914 0.950 . S
C891 C908 1.574 . S
C891 C910 1.368 . S
C891 H915 0.949 . S
H892 C896 0.949 . S
C893 C894 1.349 . S
C893 C895 1.327 . S
C893 H916 0.950 . S
C894 C893 1.349 . S
C894 C906 1.349 . S
C895 C893 1.327 . S
C895 C911 1.429 . S
C895 H917 0.950 . S
C896 H892 0.949 . S
C896 C904 1.574 . S
C896 C912 1.368 . S
H897 C905 0.950 . S
H898 C903 0.950 . S
H899 C904 0.949 . S
H900 C906 0.950 . S
H901 C907 0.950 . S
H902 C908 0.949 . S
C903 H898 0.950 . S
C903 C905 1.327 . S
C903 C909 1.429 . S
C904 C896 1.574 . S
C904 H899 0.949 . S
C904 C910 1.368 . S
C905 C889 1.349 . S
C905 H897 0.950 . S
C905 C903 1.327 . S
C906 C894 1.349 . S
C906 H900 0.950 . S
C906 C907 1.327 . S
C907 H901 0.950 . S
C907 C906 1.327 . S
C907 C911 1.429 . S
C908 C891 1.574 . S
C908 H902 0.949 . S
C908 C912 1.368 . S
C909 C890 1.429 . S
C909 C903 1.429 . S
C909 C910 1.523 . S
C910 C891 1.368 . S
C910 C904 1.368 . S
C910 C909 1.523 . S
C911 C895 1.429 . S
C911 C907 1.429 . S
C911 C912 1.523 . S
C912 C896 1.368 . S
C912 C908 1.368 . S
C912 C911 1.523 . S
H913 C888 0.950 . S
H914 C890 0.950 . S
H915 C891 0.949 . S
H916 C893 0.950 . S
H917 C895 0.950 . S
C918 C919 1.349 . S
C918 C920 1.327 . S
C918 H943 0.950 . S
C919 C918 1.349 . S
C919 C935 1.349 . S
C920 C918 1.327 . S
C920 C939 1.429 . S
C920 H944 0.950 . S
C921 C938 1.574 . S
C921 C940 1.368 . S
C921 H945 0.949 . S
H922 C926 0.949 . S
C923 C924 1.349 . S
C923 C925 1.327 . S
C923 H946 0.950 . S
C924 C923 1.349 . S
C924 C936 1.349 . S
C925 C923 1.327 . S
C925 C941 1.429 . S
C925 H947 0.950 . S
C926 H922 0.949 . S
C926 C934 1.574 . S
C926 C942 1.368 . S
H927 C935 0.950 . S
H928 C933 0.950 . S
H929 C934 0.949 . S
H930 C936 0.950 . S
H931 C937 0.950 . S
H932 C938 0.949 . S
C933 H928 0.950 . S
C933 C935 1.327 . S
C933 C939 1.429 . S
C934 C926 1.574 . S
C934 H929 0.949 . S
C934 C940 1.368 . S
C935 C919 1.349 . S
C935 H927 0.950 . S
C935 C933 1.327 . S
C936 C924 1.349 . S
C936 H930 0.950 . S
C936 C937 1.327 . S
C937 H931 0.950 . S
C937 C936 1.327 . S
C937 C941 1.429 . S
C938 C921 1.574 . S
C938 H932 0.949 . S
C938 C942 1.368 . S
C939 C920 1.429 . S
C939 C933 1.429 . S
C939 C940 1.523 . S
C940 C921 1.368 . S
C940 C934 1.368 . S
C940 C939 1.523 . S
C941 C925 1.429 . S
C941 C937 1.429 . S
C941 C942 1.523 . S
C942 C926 1.368 . S
C942 C938 1.368 . S
C942 C941 1.523 . S
H943 C918 0.950 . S
H944 C920 0.950 . S
H945 C921 0.949 . S
H946 C923 0.950 . S
H947 C925 0.950 . S
C948 C949 1.349 . S
C948 C950 1.327 . S
C948 H973 0.950 . S
C949 C948 1.349 . S
C949 C965 1.349 . S
C950 C948 1.327 . S
C950 C969 1.429 . S
C950 H974 0.950 . S
C951 C968 1.574 . S
C951 C970 1.368 . S
C951 H975 0.949 . S
H952 C956 0.949 . S
C953 C954 1.349 . S
C953 C955 1.327 . S
C953 H976 0.950 . S
C954 C953 1.349 . S
C954 C966 1.349 . S
C955 C953 1.327 . S
C955 C971 1.429 . S
C955 H977 0.950 . S
C956 H952 0.949 . S
C956 C964 1.574 . S
C956 C972 1.368 . S
H957 C965 0.950 . S
H958 C963 0.950 . S
H959 C964 0.949 . S
H960 C966 0.950 . S
H961 C967 0.950 . S
H962 C968 0.949 . S
C963 H958 0.950 . S
C963 C965 1.327 . S
C963 C969 1.429 . S
C964 C956 1.574 . S
C964 H959 0.949 . S
C964 C970 1.368 . S
C965 C949 1.349 . S
C965 H957 0.950 . S
C965 C963 1.327 . S
C966 C954 1.349 . S
C966 H960 0.950 . S
C966 C967 1.327 . S
C967 H961 0.950 . S
C967 C966 1.327 . S
C967 C971 1.429 . S
C968 C951 1.574 . S
C968 H962 0.949 . S
C968 C972 1.368 . S
C969 C950 1.429 . S
C969 C963 1.429 . S
C969 C970 1.523 . S
C970 C951 1.368 . S
C970 C964 1.368 . S
C970 C969 1.523 . S
C971 C955 1.429 . S
C971 C967 1.429 . S
C971 C972 1.523 . S
C972 C956 1.368 . S
C972 C968 1.368 . S
C972 C971 1.523 . S
H973 C948 0.950 . S
H974 C950 0.950 . S
H975 C951 0.949 . S
H976 C953 0.950 . S
H977 C955 0.950 . S
C978 C979 1.349 . S
C978 C980 1.327 . S
C978 H1003 0.950 . S
C979 C978 1.349 . S
C979 C995 1.349 . S
C980 C978 1.327 . S
C980 C999 1.429 . S
C980 H1004 0.950 . S
C981 C998 1.574 . S
C981 C1000 1.368 . S
C981 H1005 0.949 . S
H982 C986 0.949 . S
C983 C984 1.349 . S
C983 C985 1.327 . S
C983 H1006 0.950 . S
C984 C983 1.349 . S
C984 C996 1.349 . S
C985 C983 1.327 . S
C985 C1001 1.429 . S
C985 H1007 0.950 . S
C986 H982 0.949 . S
C986 C994 1.574 . S
C986 C1002 1.368 . S
H987 C995 0.950 . S
H988 C993 0.950 . S
H989 C994 0.949 . S
H990 C996 0.950 . S
H991 C997 0.950 . S
H992 C998 0.949 . S
C993 H988 0.950 . S
C993 C995 1.327 . S
C993 C999 1.429 . S
C994 C986 1.574 . S
C994 H989 0.949 . S
C994 C1000 1.368 . S
C995 C979 1.349 . S
C995 H987 0.950 . S
C995 C993 1.327 . S
C996 C984 1.349 . S
C996 H990 0.950 . S
C996 C997 1.327 . S
C997 H991 0.950 . S
C997 C996 1.327 . S
C997 C1001 1.429 . S
C998 C981 1.574 . S
C998 H992 0.949 . S
C998 C1002 1.368 . S
C999 C980 1.429 . S
C999 C993 1.429 . S
C999 C1000 1.523 . S
C1000 C981 1.368 . S
C1000 C994 1.368 . S
C1000 C999 1.523 . S
C1001 C985 1.429 . S
C1001 C997 1.429 . S
C1001 C1002 1.523 . S
C1002 C986 1.368 . S
C1002 C998 1.368 . S
C1002 C1001 1.523 . S
H1003 C978 0.950 . S
H1004 C980 0.950 . S
H1005 C981 0.949 . S
H1006 C983 0.950 . S
H1007 C985 0.950 . S
C1008 C1009 1.349 . S
C1008 C1010 1.327 . S
C1008 H1033 0.950 . S
C1009 C1008 1.349 . S
C1009 C1025 1.349 . S
C1010 C1008 1.327 . S
C1010 C1029 1.429 . S
C1010 H1034 0.950 . S
C1011 C1028 1.574 . S
C1011 C1030 1.368 . S
C1011 H1035 0.949 . S
H1012 C1016 0.949 . S
C1013 C1014 1.349 . S
C1013 C1015 1.327 . S
C1013 H1036 0.950 . S
C1014 C1013 1.349 . S
C1014 C1026 1.349 . S
C1015 C1013 1.327 . S
C1015 C1031 1.429 . S
C1015 H1037 0.950 . S
C1016 H1012 0.949 . S
C1016 C1024 1.574 . S
C1016 C1032 1.368 . S
H1017 C1025 0.950 . S
H1018 C1023 0.950 . S
H1019 C1024 0.949 . S
H1020 C1026 0.950 . S
H1021 C1027 0.950 . S
H1022 C1028 0.949 . S
C1023 H1018 0.950 . S
C1023 C1025 1.327 . S
C1023 C1029 1.429 . S
C1024 C1016 1.574 . S
C1024 H1019 0.949 . S
C1024 C1030 1.368 . S
C1025 C1009 1.349 . S
C1025 H1017 0.950 . S
C1025 C1023 1.327 . S
C1026 C1014 1.349 . S
C1026 H1020 0.950 . S
C1026 C1027 1.327 . S
C1027 H1021 0.950 . S
C1027 C1026 1.327 . S
C1027 C1031 1.429 . S
C1028 C1011 1.574 . S
C1028 H1022 0.949 . S
C1028 C1032 1.368 . S
C1029 C1010 1.429 . S
C1029 C1023 1.429 . S
C1029 C1030 1.523 . S
C1030 C1011 1.368 . S
C1030 C1024 1.368 . S
C1030 C1029 1.523 . S
C1031 C1015 1.429 . S
C1031 C1027 1.429 . S
C1031 C1032 1.523 . S
C1032 C1016 1.368 . S
C1032 C1028 1.368 . S
C1032 C1031 1.523 . S
H1033 C1008 0.950 . S
H1034 C1010 0.950 . S
H1035 C1011 0.949 . S
H1036 C1013 0.950 . S
H1037 C1015 0.950 . S
C1038 C1039 1.349 . S
C1038 C1040 1.327 . S
C1038 H1063 0.950 . S
C1039 C1038 1.349 . S
C1039 C1055 1.349 . S
C1040 C1038 1.327 . S
C1040 C1059 1.429 . S
C1040 H1064 0.950 . S
C1041 C1058 1.574 . S
C1041 C1060 1.368 . S
C1041 H1065 0.949 . S
H1042 C1046 0.949 . S
C1043 C1044 1.349 . S
C1043 C1045 1.327 . S
C1043 H1066 0.950 . S
C1044 C1043 1.349 . S
C1044 C1056 1.349 . S
C1045 C1043 1.327 . S
C1045 C1061 1.429 . S
C1045 H1067 0.950 . S
C1046 H1042 0.949 . S
C1046 C1054 1.574 . S
C1046 C1062 1.368 . S
H1047 C1055 0.950 . S
H1048 C1053 0.950 . S
H1049 C1054 0.949 . S
H1050 C1056 0.950 . S
H1051 C1057 0.950 . S
H1052 C1058 0.949 . S
C1053 H1048 0.950 . S
C1053 C1055 1.327 . S
C1053 C1059 1.429 . S
C1054 C1046 1.574 . S
C1054 H1049 0.949 . S
C1054 C1060 1.368 . S
C1055 C1039 1.349 . S
C1055 H1047 0.950 . S
C1055 C1053 1.327 . S
C1056 C1044 1.349 . S
C1056 H1050 0.950 . S
C1056 C1057 1.327 . S
C1057 H1051 0.950 . S
C1057 C1056 1.327 . S
C1057 C1061 1.429 . S
C1058 C1041 1.574 . S
C1058 H1052 0.949 . S
C1058 C1062 1.368 . S
C1059 C1040 1.429 . S
C1059 C1053 1.429 . S
C1059 C1060 1.523 . S
C1060 C1041 1.368 . S
C1060 C1054 1.368 . S
C1060 C1059 1.523 . S
C1061 C1045 1.429 . S
C1061 C1057 1.429 . S
C1061 C1062 1.523 . S
C1062 C1046 1.368 . S
C1062 C1058 1.368 . S
C1062 C1061 1.523 . S
H1063 C1038 0.950 . S
H1064 C1040 0.950 . S
H1065 C1041 0.949 . S
H1066 C1043 0.950 . S
H1067 C1045 0.950 . S
C1068 C1069 1.349 . S
C1068 C1070 1.327 . S
C1068 H1093 0.950 . S
C1069 C1068 1.349 . S
C1069 C1085 1.349 . S
C1070 C1068 1.327 . S
C1070 C1089 1.429 . S
C1070 H1094 0.950 . S
C1071 C1088 1.574 . S
C1071 C1090 1.368 . S
C1071 H1095 0.949 . S
H1072 C1076 0.949 . S
C1073 C1074 1.349 . S
C1073 C1075 1.327 . S
C1073 H1096 0.950 . S
C1074 C1073 1.349 . S
C1074 C1086 1.349 . S
C1075 C1073 1.327 . S
C1075 C1091 1.429 . S
C1075 H1097 0.950 . S
C1076 H1072 0.949 . S
C1076 C1084 1.574 . S
C1076 C1092 1.368 . S
H1077 C1085 0.950 . S
H1078 C1083 0.950 . S
H1079 C1084 0.949 . S
H1080 C1086 0.950 . S
H1081 C1087 0.950 . S
H1082 C1088 0.949 . S
C1083 H1078 0.950 . S
C1083 C1085 1.327 . S
C1083 C1089 1.429 . S
C1084 C1076 1.574 . S
C1084 H1079 0.949 . S
C1084 C1090 1.368 . S
C1085 C1069 1.349 . S
C1085 H1077 0.950 . S
C1085 C1083 1.327 . S
C1086 C1074 1.349 . S
C1086 H1080 0.950 . S
C1086 C1087 1.327 . S
C1087 H1081 0.950 . S
C1087 C1086 1.327 . S
C1087 C1091 1.429 . S
C1088 C1071 1.574 . S
C1088 H1082 0.949 . S
C1088 C1092 1.368 . S
C1089 C1070 1.429 . S
C1089 C1083 1.429 . S
C1089 C1090 1.523 . S
C1090 C1071 1.368 . S
C1090 C1084 1.368 . S
C1090 C1089 1.523 . S
C1091 C1075 1.429 . S
C1091 C1087 1.429 . S
C1091 C1092 1.523 . S
C1092 C1076 1.368 . S
C1092 C1088 1.368 . S
C1092 C1091 1.523 . S
H1093 C1068 0.950 . S
H1094 C1070 0.950 . S
H1095 C1071 0.949 . S
H1096 C1073 0.950 . S
H1097 C1075 0.950 . S
C1098 C1099 1.349 . S
C1098 C1100 1.327 . S
C1098 H1123 0.950 . S
C1099 C1098 1.349 . S
C1099 C1115 1.349 . S
C1100 C1098 1.327 . S
C1100 C1119 1.429 . S
C1100 H1124 0.950 . S
C1101 C1118 1.574 . S
C1101 C1120 1.368 . S
C1101 H1125 0.949 . S
H1102 C1106 0.949 . S
C1103 C1104 1.349 . S
C1103 C1105 1.327 . S
C1103 H1126 0.950 . S
C1104 C1103 1.349 . S
C1104 C1116 1.349 . S
C1105 C1103 1.327 . S
C1105 C1121 1.429 . S
C1105 H1127 0.950 . S
C1106 H1102 0.949 . S
C1106 C1114 1.574 . S
C1106 C1122 1.368 . S
H1107 C1115 0.950 . S
H1108 C1113 0.950 . S
H1109 C1114 0.949 . S
H1110 C1116 0.950 . S
H1111 C1117 0.950 . S
H1112 C1118 0.949 . S
C1113 H1108 0.950 . S
C1113 C1115 1.327 . S
C1113 C1119 1.429 . S
C1114 C1106 1.574 . S
C1114 H1109 0.949 . S
C1114 C1120 1.368 . S
C1115 C1099 1.349 . S
C1115 H1107 0.950 . S
C1115 C1113 1.327 . S
C1116 C1104 1.349 . S
C1116 H1110 0.950 . S
C1116 C1117 1.327 . S
C1117 H1111 0.950 . S
C1117 C1116 1.327 . S
C1117 C1121 1.429 . S
C1118 C1101 1.574 . S
C1118 H1112 0.949 . S
C1118 C1122 1.368 . S
C1119 C1100 1.429 . S
C1119 C1113 1.429 . S
C1119 C1120 1.523 . S
C1120 C1101 1.368 . S
C1120 C1114 1.368 . S
C1120 C1119 1.523 . S
C1121 C1105 1.429 . S
C1121 C1117 1.429 . S
C1121 C1122 1.523 . S
C1122 C1106 1.368 . S
C1122 C1118 1.368 . S
C1122 C1121 1.523 . S
H1123 C1098 0.950 . S
H1124 C1100 0.950 . S
H1125 C1101 0.949 . S
H1126 C1103 0.950 . S
H1127 C1105 0.950 . S
C1128 C1129 1.349 . S
C1128 C1130 1.327 . S
C1128 H1153 0.950 . S
C1129 C1128 1.349 . S
C1129 C1145 1.349 . S
C1130 C1128 1.327 . S
C1130 C1149 1.429 . S
C1130 H1154 0.950 . S
C1131 C1148 1.574 . S
C1131 C1150 1.368 . S
C1131 H1155 0.949 . S
H1132 C1136 0.949 . S
C1133 C1134 1.349 . S
C1133 C1135 1.327 . S
C1133 H1156 0.950 . S
C1134 C1133 1.349 . S
C1134 C1146 1.349 . S
C1135 C1133 1.327 . S
C1135 C1151 1.429 . S
C1135 H1157 0.950 . S
C1136 H1132 0.949 . S
C1136 C1144 1.574 . S
C1136 C1152 1.368 . S
H1137 C1145 0.950 . S
H1138 C1143 0.950 . S
H1139 C1144 0.949 . S
H1140 C1146 0.950 . S
H1141 C1147 0.950 . S
H1142 C1148 0.949 . S
C1143 H1138 0.950 . S
C1143 C1145 1.327 . S
C1143 C1149 1.429 . S
C1144 C1136 1.574 . S
C1144 H1139 0.949 . S
C1144 C1150 1.368 . S
C1145 C1129 1.349 . S
C1145 H1137 0.950 . S
C1145 C1143 1.327 . S
C1146 C1134 1.349 . S
C1146 H1140 0.950 . S
C1146 C1147 1.327 . S
C1147 H1141 0.950 . S
C1147 C1146 1.327 . S
C1147 C1151 1.429 . S
C1148 C1131 1.574 . S
C1148 H1142 0.949 . S
C1148 C1152 1.368 . S
C1149 C1130 1.429 . S
C1149 C1143 1.429 . S
C1149 C1150 1.523 . S
C1150 C1131 1.368 . S
C1150 C1144 1.368 . S
C1150 C1149 1.523 . S
C1151 C1135 1.429 . S
C1151 C1147 1.429 . S
C1151 C1152 1.523 . S
C1152 C1136 1.368 . S
C1152 C1148 1.368 . S
C1152 C1151 1.523 . S
H1153 C1128 0.950 . S
H1154 C1130 0.950 . S
H1155 C1131 0.949 . S
H1156 C1133 0.950 . S
H1157 C1135 0.950 . S
C1158 C1159 1.349 . S
C1158 C1160 1.327 . S
C1158 H1183 0.950 . S
C1159 C1158 1.349 . S
C1159 C1175 1.349 . S
C1160 C1158 1.327 . S
C1160 C1179 1.429 . S
C1160 H1184 0.950 . S
C1161 C1178 1.574 . S
C1161 C1180 1.368 . S
C1161 H1185 0.949 . S
H1162 C1166 0.949 . S
C1163 C1164 1.349 . S
C1163 C1165 1.327 . S
C1163 H1186 0.950 . S
C1164 C1163 1.349 . S
C1164 C1176 1.349 . S
C1165 C1163 1.327 . S
C1165 C1181 1.429 . S
C1165 H1187 0.950 . S
C1166 H1162 0.949 . S
C1166 C1174 1.574 . S
C1166 C1182 1.368 . S
H1167 C1175 0.950 . S
H1168 C1173 0.950 . S
H1169 C1174 0.949 . S
H1170 C1176 0.950 . S
H1171 C1177 0.950 . S
H1172 C1178 0.949 . S
C1173 H1168 0.950 . S
C1173 C1175 1.327 . S
C1173 C1179 1.429 . S
C1174 C1166 1.574 . S
C1174 H1169 0.949 . S
C1174 C1180 1.368 . S
C1175 C1159 1.349 . S
C1175 H1167 0.950 . S
C1175 C1173 1.327 . S
C1176 C1164 1.349 . S
C1176 H1170 0.950 . S
C1176 C1177 1.327 . S
C1177 H1171 0.950 . S
C1177 C1176 1.327 . S
C1177 C1181 1.429 . S
C1178 C1161 1.574 . S
C1178 H1172 0.949 . S
C1178 C1182 1.368 . S
C1179 C1160 1.429 . S
C1179 C1173 1.429 . S
C1179 C1180 1.523 . S
C1180 C1161 1.368 . S
C1180 C1174 1.368 . S
C1180 C1179 1.523 . S
C1181 C1165 1.429 . S
C1181 C1177 1.429 . S
C1181 C1182 1.523 . S
C1182 C1166 1.368 . S
C1182 C1178 1.368 . S
C1182 C1181 1.523 . S
H1183 C1158 0.950 . S
H1184 C1160 0.950 . S
H1185 C1161 0.949 . S
H1186 C1163 0.950 . S
H1187 C1165 0.950 . S
C1188 C1189 1.349 . S
C1188 C1190 1.327 . S
C1188 H1213 0.950 . S
C1189 C1188 1.349 . S
C1189 C1205 1.349 . S
C1190 C1188 1.327 . S
C1190 C1209 1.429 . S
C1190 H1214 0.950 . S
C1191 C1208 1.574 . S
C1191 C1210 1.368 . S
C1191 H1215 0.949 . S
H1192 C1196 0.949 . S
C1193 C1194 1.349 . S
C1193 C1195 1.327 . S
C1193 H1216 0.950 . S
C1194 C1193 1.349 . S
C1194 C1206 1.349 . S
C1195 C1193 1.327 . S
C1195 C1211 1.429 . S
C1195 H1217 0.950 . S
C1196 H1192 0.949 . S
C1196 C1204 1.574 . S
C1196 C1212 1.368 . S
H1197 C1205 0.950 . S
H1198 C1203 0.950 . S
H1199 C1204 0.949 . S
H1200 C1206 0.950 . S
H1201 C1207 0.950 . S
H1202 C1208 0.949 . S
C1203 H1198 0.950 . S
C1203 C1205 1.327 . S
C1203 C1209 1.429 . S
C1204 C1196 1.574 . S
C1204 H1199 0.949 . S
C1204 C1210 1.368 . S
C1205 C1189 1.349 . S
C1205 H1197 0.950 . S
C1205 C1203 1.327 . S
C1206 C1194 1.349 . S
C1206 H1200 0.950 . S
C1206 C1207 1.327 . S
C1207 H1201 0.950 . S
C1207 C1206 1.327 . S
C1207 C1211 1.429 . S
C1208 C1191 1.574 . S
C1208 H1202 0.949 . S
C1208 C1212 1.368 . S
C1209 C1190 1.429 . S
C1209 C1203 1.429 . S
C1209 C1210 1.523 . S
C1210 C1191 1.368 . S
C1210 C1204 1.368 . S
C1210 C1209 1.523 . S
C1211 C1195 1.429 . S
C1211 C1207 1.429 . S
C1211 C1212 1.523 . S
C1212 C1196 1.368 . S
C1212 C1208 1.368 . S
C1212 C1211 1.523 . S
H1213 C1188 0.950 . S
H1214 C1190 0.950 . S
H1215 C1191 0.949 . S
H1216 C1193 0.950 . S
H1217 C1195 0.950 . S
C1218 C1219 1.349 . S
C1218 C1220 1.327 . S
C1218 H1243 0.950 . S
C1219 C1218 1.349 . S
C1219 C1235 1.349 . S
C1220 C1218 1.327 . S
C1220 C1239 1.429 . S
C1220 H1244 0.950 . S
C1221 C1238 1.574 . S
C1221 C1240 1.368 . S
C1221 H1245 0.949 . S
H1222 C1226 0.949 . S
C1223 C1224 1.349 . S
C1223 C1225 1.327 . S
C1223 H1246 0.950 . S
C1224 C1223 1.349 . S
C1224 C1236 1.349 . S
C1225 C1223 1.327 . S
C1225 C1241 1.429 . S
C1225 H1247 0.950 . S
C1226 H1222 0.949 . S
C1226 C1234 1.574 . S
C1226 C1242 1.368 . S
H1227 C1235 0.950 . S
H1228 C1233 0.950 . S
H1229 C1234 0.949 . S
H1230 C1236 0.950 . S
H1231 C1237 0.950 . S
H1232 C1238 0.949 . S
C1233 H1228 0.950 . S
C1233 C1235 1.327 . S
C1233 C1239 1.429 . S
C1234 C1226 1.574 . S
C1234 H1229 0.949 . S
C1234 C1240 1.368 . S
C1235 C1219 1.349 . S
C1235 H1227 0.950 . S
C1235 C1233 1.327 . S
C1236 C1224 1.349 . S
C1236 H1230 0.950 . S
C1236 C1237 1.327 . S
C1237 H1231 0.950 . S
C1237 C1236 1.327 . S
C1237 C1241 1.429 . S
C1238 C1221 1.574 . S
C1238 H1232 0.949 . S
C1238 C1242 1.368 . S
C1239 C1220 1.429 . S
C1239 C1233 1.429 . S
C1239 C1240 1.523 . S
C1240 C1221 1.368 . S
C1240 C1234 1.368 . S
C1240 C1239 1.523 . S
C1241 C1225 1.429 . S
C1241 C1237 1.429 . S
C1241 C1242 1.523 1_554 S
C1242 C1226 1.368 . S
C1242 C1238 1.368 . S
C1242 C1241 1.523 1_556 S
H1243 C1218 0.950 . S
H1244 C1220 0.950 . S
H1245 C1221 0.949 . S
H1246 C1223 0.950 . S
H1247 C1225 0.950 . S
C1248 C1249 1.349 . S
C1248 C1250 1.327 . S
C1248 H1273 0.950 . S
C1249 C1248 1.349 . S
C1249 C1265 1.349 . S
C1250 C1248 1.327 . S
C1250 C1269 1.429 . S
C1250 H1274 0.950 . S
C1251 C1268 1.574 . S
C1251 C1270 1.368 . S
C1251 H1275 0.949 . S
H1252 C1256 0.949 . S
C1253 C1254 1.349 . S
C1253 C1255 1.327 . S
C1253 H1276 0.950 . S
C1254 C1253 1.349 . S
C1254 C1266 1.349 . S
C1255 C1253 1.327 . S
C1255 C1271 1.429 . S
C1255 H1277 0.950 . S
C1256 H1252 0.949 . S
C1256 C1264 1.574 . S
C1256 C1272 1.368 . S
H1257 C1265 0.950 . S
H1258 C1263 0.950 . S
H1259 C1264 0.949 . S
H1260 C1266 0.950 . S
H1261 C1267 0.950 . S
H1262 C1268 0.949 . S
C1263 H1258 0.950 . S
C1263 C1265 1.327 . S
C1263 C1269 1.429 . S
C1264 C1256 1.574 . S
C1264 H1259 0.949 . S
C1264 C1270 1.368 . S
C1265 C1249 1.349 . S
C1265 H1257 0.950 . S
C1265 C1263 1.327 . S
C1266 C1254 1.349 . S
C1266 H1260 0.950 . S
C1266 C1267 1.327 . S
C1267 H1261 0.950 . S
C1267 C1266 1.327 . S
C1267 C1271 1.429 . S
C1268 C1251 1.574 . S
C1268 H1262 0.949 . S
C1268 C1272 1.368 . S
C1269 C1250 1.429 . S
C1269 C1263 1.429 . S
C1269 C1270 1.523 . S
C1270 C1251 1.368 . S
C1270 C1264 1.368 . S
C1270 C1269 1.523 . S
C1271 C1255 1.429 . S
C1271 C1267 1.429 . S
C1271 C1272 1.523 . S
C1272 C1256 1.368 . S
C1272 C1268 1.368 . S
C1272 C1271 1.523 . S
H1273 C1248 0.950 . S
H1274 C1250 0.950 . S
H1275 C1251 0.949 . S
H1276 C1253 0.950 . S
H1277 C1255 0.950 . S
C1278 C1279 1.349 . S
C1278 C1280 1.327 . S
C1278 H1303 0.950 . S
C1279 C1278 1.349 . S
C1279 C1295 1.349 . S
C1280 C1278 1.327 . S
C1280 C1299 1.429 . S
C1280 H1304 0.950 . S
C1281 C1298 1.574 . S
C1281 C1300 1.368 . S
C1281 H1305 0.949 . S
H1282 C1286 0.949 . S
C1283 C1284 1.349 . S
C1283 C1285 1.327 . S
C1283 H1306 0.950 . S
C1284 C1283 1.349 . S
C1284 C1296 1.349 . S
C1285 C1283 1.327 . S
C1285 C1301 1.429 . S
C1285 H1307 0.950 . S
C1286 H1282 0.949 . S
C1286 C1294 1.574 . S
C1286 C1302 1.368 . S
H1287 C1295 0.950 . S
H1288 C1293 0.950 . S
H1289 C1294 0.949 . S
H1290 C1296 0.950 . S
H1291 C1297 0.950 . S
H1292 C1298 0.949 . S
C1293 H1288 0.950 . S
C1293 C1295 1.327 . S
C1293 C1299 1.429 . S
C1294 C1286 1.574 . S
C1294 H1289 0.949 . S
C1294 C1300 1.368 . S
C1295 C1279 1.349 . S
C1295 H1287 0.950 . S
C1295 C1293 1.327 . S
C1296 C1284 1.349 . S
C1296 H1290 0.950 . S
C1296 C1297 1.327 . S
C1297 H1291 0.950 . S
C1297 C1296 1.327 . S
C1297 C1301 1.429 . S
C1298 C1281 1.574 . S
C1298 H1292 0.949 . S
C1298 C1302 1.368 . S
C1299 C1280 1.429 . S
C1299 C1293 1.429 . S
C1299 C1300 1.523 . S
C1300 C1281 1.368 . S
C1300 C1294 1.368 . S
C1300 C1299 1.523 . S
C1301 C1285 1.429 . S
C1301 C1297 1.429 . S
C1301 C1302 1.523 . S
C1302 C1286 1.368 . S
C1302 C1298 1.368 . S
C1302 C1301 1.523 . S
H1303 C1278 0.950 . S
H1304 C1280 0.950 . S
H1305 C1281 0.949 . S
H1306 C1283 0.950 . S
H1307 C1285 0.950 . S
C1308 C1309 1.349 . S
C1308 C1310 1.327 . S
C1308 H1333 0.950 . S
C1309 C1308 1.349 . S
C1309 C1325 1.349 . S
C1310 C1308 1.327 . S
C1310 C1329 1.429 . S
C1310 H1334 0.950 . S
C1311 C1328 1.574 . S
C1311 C1330 1.368 . S
C1311 H1335 0.949 . S
H1312 C1316 0.949 . S
C1313 C1314 1.349 . S
C1313 C1315 1.327 . S
C1313 H1336 0.950 . S
C1314 C1313 1.349 . S
C1314 C1326 1.349 . S
C1315 C1313 1.327 . S
C1315 C1331 1.429 . S
C1315 H1337 0.950 . S
C1316 H1312 0.949 . S
C1316 C1324 1.574 . S
C1316 C1332 1.368 . S
H1317 C1325 0.950 . S
H1318 C1323 0.950 . S
H1319 C1324 0.949 . S
H1320 C1326 0.950 . S
H1321 C1327 0.950 . S
H1322 C1328 0.949 . S
C1323 H1318 0.950 . S
C1323 C1325 1.327 . S
C1323 C1329 1.429 . S
C1324 C1316 1.574 . S
C1324 H1319 0.949 . S
C1324 C1330 1.368 . S
C1325 C1309 1.349 . S
C1325 H1317 0.950 . S
C1325 C1323 1.327 . S
C1326 C1314 1.349 . S
C1326 H1320 0.950 . S
C1326 C1327 1.327 . S
C1327 H1321 0.950 . S
C1327 C1326 1.327 . S
C1327 C1331 1.429 . S
C1328 C1311 1.574 . S
C1328 H1322 0.949 . S
C1328 C1332 1.368 . S
C1329 C1310 1.429 . S
C1329 C1323 1.429 . S
C1329 C1330 1.523 . S
C1330 C1311 1.368 . S
C1330 C1324 1.368 . S
C1330 C1329 1.523 . S
C1331 C1315 1.429 . S
C1331 C1327 1.429 . S
C1331 C1332 1.523 . S
C1332 C1316 1.368 . S
C1332 C1328 1.368 . S
C1332 C1331 1.523 . S
H1333 C1308 0.950 . S
H1334 C1310 0.950 . S
H1335 C1311 0.949 . S
H1336 C1313 0.950 . S
H1337 C1315 0.950 . S
C1338 C1339 1.349 . S
C1338 C1340 1.327 . S
C1338 H1363 0.950 . S
C1339 C1338 1.349 . S
C1339 C1355 1.349 . S
C1340 C1338 1.327 . S
C1340 C1359 1.429 . S
C1340 H1364 0.950 . S
C1341 C1358 1.574 . S
C1341 C1360 1.368 . S
C1341 H1365 0.949 . S
H1342 C1346 0.949 . S
C1343 C1344 1.349 . S
C1343 C1345 1.327 . S
C1343 H1366 0.950 . S
C1344 C1343 1.349 . S
C1344 C1356 1.349 . S
C1345 C1343 1.327 . S
C1345 C1361 1.429 . S
C1345 H1367 0.950 . S
C1346 H1342 0.949 . S
C1346 C1354 1.574 . S
C1346 C1362 1.368 . S
H1347 C1355 0.950 . S
H1348 C1353 0.950 . S
H1349 C1354 0.949 . S
H1350 C1356 0.950 . S
H1351 C1357 0.950 . S
H1352 C1358 0.949 . S
C1353 H1348 0.950 . S
C1353 C1355 1.327 . S
C1353 C1359 1.429 . S
C1354 C1346 1.574 . S
C1354 H1349 0.949 . S
C1354 C1360 1.368 . S
C1355 C1339 1.349 . S
C1355 H1347 0.950 . S
C1355 C1353 1.327 . S
C1356 C1344 1.349 . S
C1356 H1350 0.950 . S
C1356 C1357 1.327 . S
C1357 H1351 0.950 . S
C1357 C1356 1.327 . S
C1357 C1361 1.429 . S
C1358 C1341 1.574 . S
C1358 H1352 0.949 . S
C1358 C1362 1.368 . S
C1359 C1340 1.429 . S
C1359 C1353 1.429 . S
C1359 C1360 1.523 . S
C1360 C1341 1.368 . S
C1360 C1354 1.368 . S
C1360 C1359 1.523 . S
C1361 C1345 1.429 . S
C1361 C1357 1.429 . S
C1361 C1362 1.523 . S
C1362 C1346 1.368 . S
C1362 C1358 1.368 . S
C1362 C1361 1.523 . S
H1363 C1338 0.950 . S
H1364 C1340 0.950 . S
H1365 C1341 0.949 . S
H1366 C1343 0.950 . S
H1367 C1345 0.950 . S
C1368 C1369 1.349 . S
C1368 C1370 1.327 . S
C1368 H1393 0.950 . S
C1369 C1368 1.349 . S
C1369 C1385 1.349 . S
C1370 C1368 1.327 . S
C1370 C1389 1.429 . S
C1370 H1394 0.950 . S
C1371 C1388 1.574 . S
C1371 C1390 1.368 . S
C1371 H1395 0.949 . S
H1372 C1376 0.949 . S
C1373 C1374 1.349 . S
C1373 C1375 1.327 . S
C1373 H1396 0.950 . S
C1374 C1373 1.349 . S
C1374 C1386 1.349 . S
C1375 C1373 1.327 . S
C1375 C1391 1.429 . S
C1375 H1397 0.950 . S
C1376 H1372 0.949 . S
C1376 C1384 1.574 . S
C1376 C1392 1.368 . S
H1377 C1385 0.950 . S
H1378 C1383 0.950 . S
H1379 C1384 0.949 . S
H1380 C1386 0.950 . S
H1381 C1387 0.950 . S
H1382 C1388 0.949 . S
C1383 H1378 0.950 . S
C1383 C1385 1.327 . S
C1383 C1389 1.429 . S
C1384 C1376 1.574 . S
C1384 H1379 0.949 . S
C1384 C1390 1.368 . S
C1385 C1369 1.349 . S
C1385 H1377 0.950 . S
C1385 C1383 1.327 . S
C1386 C1374 1.349 . S
C1386 H1380 0.950 . S
C1386 C1387 1.327 . S
C1387 H1381 0.950 . S
C1387 C1386 1.327 . S
C1387 C1391 1.429 . S
C1388 C1371 1.574 . S
C1388 H1382 0.949 . S
C1388 C1392 1.368 . S
C1389 C1370 1.429 . S
C1389 C1383 1.429 . S
C1389 C1390 1.523 . S
C1390 C1371 1.368 . S
C1390 C1384 1.368 . S
C1390 C1389 1.523 . S
C1391 C1375 1.429 . S
C1391 C1387 1.429 . S
C1391 C1392 1.523 . S
C1392 C1376 1.368 . S
C1392 C1388 1.368 . S
C1392 C1391 1.523 . S
H1393 C1368 0.950 . S
H1394 C1370 0.950 . S
H1395 C1371 0.949 . S
H1396 C1373 0.950 . S
H1397 C1375 0.950 . S
C1398 C1399 1.349 . S
C1398 C1400 1.327 . S
C1398 H1423 0.950 . S
C1399 C1398 1.349 . S
C1399 C1415 1.349 . S
C1400 C1398 1.327 . S
C1400 C1419 1.429 . S
C1400 H1424 0.950 . S
C1401 C1418 1.574 . S
C1401 C1420 1.368 . S
C1401 H1425 0.949 . S
H1402 C1406 0.949 . S
C1403 C1404 1.349 . S
C1403 C1405 1.327 . S
C1403 H1426 0.950 . S
C1404 C1403 1.349 . S
C1404 C1416 1.349 . S
C1405 C1403 1.327 . S
C1405 C1421 1.429 . S
C1405 H1427 0.950 . S
C1406 H1402 0.949 . S
C1406 C1414 1.574 . S
C1406 C1422 1.368 . S
H1407 C1415 0.950 . S
H1408 C1413 0.950 . S
H1409 C1414 0.949 . S
H1410 C1416 0.950 . S
H1411 C1417 0.950 . S
H1412 C1418 0.949 . S
C1413 H1408 0.950 . S
C1413 C1415 1.327 . S
C1413 C1419 1.429 . S
C1414 C1406 1.574 . S
C1414 H1409 0.949 . S
C1414 C1420 1.368 . S
C1415 C1399 1.349 . S
C1415 H1407 0.950 . S
C1415 C1413 1.327 . S
C1416 C1404 1.349 . S
C1416 H1410 0.950 . S
C1416 C1417 1.327 . S
C1417 H1411 0.950 . S
C1417 C1416 1.327 . S
C1417 C1421 1.429 . S
C1418 C1401 1.574 . S
C1418 H1412 0.949 . S
C1418 C1422 1.368 . S
C1419 C1400 1.429 . S
C1419 C1413 1.429 . S
C1419 C1420 1.523 . S
C1420 C1401 1.368 . S
C1420 C1414 1.368 . S
C1420 C1419 1.523 . S
C1421 C1405 1.429 . S
C1421 C1417 1.429 . S
C1421 C1422 1.523 . S
C1422 C1406 1.368 . S
C1422 C1418 1.368 . S
C1422 C1421 1.523 . S
H1423 C1398 0.950 . S
H1424 C1400 0.950 . S
H1425 C1401 0.949 . S
H1426 C1403 0.950 . S
H1427 C1405 0.950 . S
C1428 C1429 1.349 . S
C1428 C1430 1.327 . S
C1428 H1453 0.950 . S
C1429 C1428 1.349 . S
C1429 C1445 1.349 . S
C1430 C1428 1.327 . S
C1430 C1449 1.429 . S
C1430 H1454 0.950 . S
C1431 C1448 1.574 1_554 S
C1431 C1450 1.368 . S
C1431 H1455 0.949 . S
H1432 C1436 0.949 . S
C1433 C1434 1.349 . S
C1433 C1435 1.327 . S
C1433 H1456 0.950 . S
C1434 C1433 1.349 . S
C1434 C1446 1.349 . S
C1435 C1433 1.327 . S
C1435 C1451 1.429 . S
C1435 H1457 0.950 . S
C1436 H1432 0.949 . S
C1436 C1444 1.574 1_556 S
C1436 C1452 1.368 . S
H1437 C1445 0.950 . S
H1438 C1443 0.950 . S
H1439 C1444 0.949 . S
H1440 C1446 0.950 . S
H1441 C1447 0.950 . S
H1442 C1448 0.949 . S
C1443 H1438 0.950 . S
C1443 C1445 1.327 . S
C1443 C1449 1.429 . S
C1444 C1436 1.574 1_554 S
C1444 H1439 0.949 . S
C1444 C1450 1.368 . S
C1445 C1429 1.349 . S
C1445 H1437 0.950 . S
C1445 C1443 1.327 . S
C1446 C1434 1.349 . S
C1446 H1440 0.950 . S
C1446 C1447 1.327 . S
C1447 H1441 0.950 . S
C1447 C1446 1.327 . S
C1447 C1451 1.429 . S
C1448 C1431 1.574 1_556 S
C1448 H1442 0.949 . S
C1448 C1452 1.368 . S
C1449 C1430 1.429 . S
C1449 C1443 1.429 . S
C1449 C1450 1.523 . S
C1450 C1431 1.368 . S
C1450 C1444 1.368 . S
C1450 C1449 1.523 . S
C1451 C1435 1.429 . S
C1451 C1447 1.429 . S
C1451 C1452 1.523 . S
C1452 C1436 1.368 . S
C1452 C1448 1.368 . S
C1452 C1451 1.523 . S
H1453 C1428 0.950 . S
H1454 C1430 0.950 . S
H1455 C1431 0.949 . S
H1456 C1433 0.950 . S
H1457 C1435 0.950 . S
C1458 C1459 1.349 . S
C1458 C1460 1.327 . S
C1458 H1483 0.950 . S
C1459 C1458 1.349 . S
C1459 C1475 1.349 . S
C1460 C1458 1.327 . S
C1460 C1479 1.429 . S
C1460 H1484 0.950 . S
C1461 C1478 1.574 . S
C1461 C1480 1.368 . S
C1461 H1485 0.949 . S
H1462 C1466 0.949 . S
C1463 C1464 1.349 . S
C1463 C1465 1.327 . S
C1463 H1486 0.950 . S
C1464 C1463 1.349 . S
C1464 C1476 1.349 . S
C1465 C1463 1.327 . S
C1465 C1481 1.429 . S
C1465 H1487 0.950 . S
C1466 H1462 0.949 . S
C1466 C1474 1.574 . S
C1466 C1482 1.368 . S
H1467 C1475 0.950 . S
H1468 C1473 0.950 . S
H1469 C1474 0.949 . S
H1470 C1476 0.950 . S
H1471 C1477 0.950 . S
H1472 C1478 0.949 . S
C1473 H1468 0.950 . S
C1473 C1475 1.327 . S
C1473 C1479 1.429 . S
C1474 C1466 1.574 . S
C1474 H1469 0.949 . S
C1474 C1480 1.368 . S
C1475 C1459 1.349 . S
C1475 H1467 0.950 . S
C1475 C1473 1.327 . S
C1476 C1464 1.349 . S
C1476 H1470 0.950 . S
C1476 C1477 1.327 . S
C1477 H1471 0.950 . S
C1477 C1476 1.327 . S
C1477 C1481 1.429 . S
C1478 C1461 1.574 . S
C1478 H1472 0.949 . S
C1478 C1482 1.368 . S
C1479 C1460 1.429 . S
C1479 C1473 1.429 . S
C1479 C1480 1.523 . S
C1480 C1461 1.368 . S
C1480 C1474 1.368 . S
C1480 C1479 1.523 . S
C1481 C1465 1.429 . S
C1481 C1477 1.429 . S
C1481 C1482 1.523 . S
C1482 C1466 1.368 . S
C1482 C1478 1.368 . S
C1482 C1481 1.523 . S
H1483 C1458 0.950 . S
H1484 C1460 0.950 . S
H1485 C1461 0.949 . S
H1486 C1463 0.950 . S
H1487 C1465 0.950 . S
C774 C759 1.256 . S
C769 C1 1.125 . S
C799 C169 1.443 . S
C804 C689 1.427 . S
C829 C283 1.372 . S
C834 C709 1.680 . S
C859 C397 1.157 . S
C864 C723 1.425 . S
C894 C731 1.088 . S
C889 C457 0.996 . S
C919 C571 1.023 . S
C924 C745 1.119 . S
C949 C115 1.158 . S
C954 C703 1.275 . S
C979 C229 1.011 . S
C984 C717 1.130 . S
C1009 C343 0.973 . S
C1014 C737 1.285 . S
C1044 C751 1.505 . S
C1039 C511 1.223 . S
C1074 C765 1.635 . S
C1069 C625 1.341 . S
C1104 C695 1.717 . S
C1099 C55 1.416 . S
C1129 C29 1.068 . S
C1134 C702 1.325 . S
C1159 C125 0.928 . S
C1164 C716 1.456 . S
C1194 C738 1.393 . S
C1189 C239 0.883 . S
C1219 C353 0.876 . S
C1224 C752 1.377 . S
C1254 C766 1.264 . S
C1249 C485 1.010 . S
C1284 C696 1.316 . S
C1279 C599 1.048 . S
C1314 C758 1.329 . S
C1309 C143 1.075 . S
C1339 C257 1.056 . S
C1344 C688 1.312 . S
C1374 C710 1.264 . S
C1369 C371 1.021 . S
C1399 C467 0.879 . S
C1404 C724 1.383 . S
C1429 C581 0.888 . S
C1434 C730 1.414 . S
C1459 C11 0.921 . S
C1464 C744 1.456 . S
