# Generated by pormake.
# Topology eea, (3,6)-cn, num edge types: 1
# Building blocks:
#     Node 0, Type 0, BuildingBlock: KAKCAD_clean_linker_0, # of connection points: 3
#     Node 1, Type 0, BuildingBlock: KAKCAD_clean_linker_0, # of connection points: 3
#     Node 2, Type 0, BuildingBlock: KAKCAD_clean_linker_0, # of connection points: 3
#     Node 3, Type 0, BuildingBlock: KAKCAD_clean_linker_0, # of connection points: 3
#     Node 4, Type 0, BuildingBlock: KAKCAD_clean_linker_0, # of connection points: 3
#     Node 5, Type 0, BuildingBlock: KAKCAD_clean_linker_0, # of connection points: 3
#     Node 6, Type 0, BuildingBlock: KAKCAD_clean_linker_0, # of connection points: 3
#     Node 7, Type 0, BuildingBlock: KAKCAD_clean_linker_0, # of connection points: 3
#     Node 8, Type 0, BuildingBlock: KAKCAD_clean_linker_0, # of connection points: 3
#     Node 9, Type 0, BuildingBlock: KAKCAD_clean_linker_0, # of connection points: 3
#     Node 10, Type 0, BuildingBlock: KAKCAD_clean_linker_0, # of connection points: 3
#     Node 11, Type 0, BuildingBlock: KAKCAD_clean_linker_0, # of connection points: 3
#     Node 12, Type 0, BuildingBlock: KAKCAD_clean_linker_0, # of connection points: 3
#     Node 13, Type 0, BuildingBlock: KAKCAD_clean_linker_0, # of connection points: 3
#     Node 14, Type 0, BuildingBlock: KAKCAD_clean_linker_0, # of connection points: 3
#     Node 15, Type 0, BuildingBlock: KAKCAD_clean_linker_0, # of connection points: 3
#     Node 16, Type 0, BuildingBlock: KAKCAD_clean_linker_0, # of connection points: 3
#     Node 17, Type 0, BuildingBlock: KAKCAD_clean_linker_0, # of connection points: 3
#     Node 18, Type 1, BuildingBlock: KUMBOL_clean_sbu_0, # of connection points: 6
#     Node 19, Type 1, BuildingBlock: KUMBOL_clean_sbu_0, # of connection points: 6
#     Node 20, Type 1, BuildingBlock: KUMBOL_clean_sbu_0, # of connection points: 6
#     Node 21, Type 1, BuildingBlock: KUMBOL_clean_sbu_0, # of connection points: 6
#     Node 22, Type 1, BuildingBlock: KUMBOL_clean_sbu_0, # of connection points: 6
#     Node 23, Type 1, BuildingBlock: KUMBOL_clean_sbu_0, # of connection points: 6
#     Node 24, Type 1, BuildingBlock: KUMBOL_clean_sbu_0, # of connection points: 6
#     Node 25, Type 1, BuildingBlock: KUMBOL_clean_sbu_0, # of connection points: 6
#     Node 26, Type 1, BuildingBlock: KUMBOL_clean_sbu_0, # of connection points: 6
#     Edge 27, Type (0, 1), BuildingBlock: EZIPEK_clean_linker_0, # of connection points: 2
#     Edge 28, Type (0, 1), BuildingBlock: EZIPEK_clean_linker_0, # of connection points: 2
#     Edge 29, Type (0, 1), BuildingBlock: EZIPEK_clean_linker_0, # of connection points: 2
#     Edge 30, Type (0, 1), BuildingBlock: EZIPEK_clean_linker_0, # of connection points: 2
#     Edge 31, Type (0, 1), BuildingBlock: EZIPEK_clean_linker_0, # of connection points: 2
#     Edge 32, Type (0, 1), BuildingBlock: EZIPEK_clean_linker_0, # of connection points: 2
#     Edge 33, Type (0, 1), BuildingBlock: EZIPEK_clean_linker_0, # of connection points: 2
#     Edge 34, Type (0, 1), BuildingBlock: EZIPEK_clean_linker_0, # of connection points: 2
#     Edge 35, Type (0, 1), BuildingBlock: EZIPEK_clean_linker_0, # of connection points: 2
#     Edge 36, Type (0, 1), BuildingBlock: EZIPEK_clean_linker_0, # of connection points: 2
#     Edge 37, Type (0, 1), BuildingBlock: EZIPEK_clean_linker_0, # of connection points: 2
#     Edge 38, Type (0, 1), BuildingBlock: EZIPEK_clean_linker_0, # of connection points: 2
#     Edge 39, Type (0, 1), BuildingBlock: EZIPEK_clean_linker_0, # of connection points: 2
#     Edge 40, Type (0, 1), BuildingBlock: EZIPEK_clean_linker_0, # of connection points: 2
#     Edge 41, Type (0, 1), BuildingBlock: EZIPEK_clean_linker_0, # of connection points: 2
#     Edge 42, Type (0, 1), BuildingBlock: EZIPEK_clean_linker_0, # of connection points: 2
#     Edge 43, Type (0, 1), BuildingBlock: EZIPEK_clean_linker_0, # of connection points: 2
#     Edge 44, Type (0, 1), BuildingBlock: EZIPEK_clean_linker_0, # of connection points: 2
#     Edge 45, Type (0, 1), BuildingBlock: EZIPEK_clean_linker_0, # of connection points: 2
#     Edge 46, Type (0, 1), BuildingBlock: EZIPEK_clean_linker_0, # of connection points: 2
#     Edge 47, Type (0, 1), BuildingBlock: EZIPEK_clean_linker_0, # of connection points: 2
#     Edge 48, Type (0, 1), BuildingBlock: EZIPEK_clean_linker_0, # of connection points: 2
#     Edge 49, Type (0, 1), BuildingBlock: EZIPEK_clean_linker_0, # of connection points: 2
#     Edge 50, Type (0, 1), BuildingBlock: EZIPEK_clean_linker_0, # of connection points: 2
#     Edge 51, Type (0, 1), BuildingBlock: EZIPEK_clean_linker_0, # of connection points: 2
#     Edge 52, Type (0, 1), BuildingBlock: EZIPEK_clean_linker_0, # of connection points: 2
#     Edge 53, Type (0, 1), BuildingBlock: EZIPEK_clean_linker_0, # of connection points: 2
#     Edge 54, Type (0, 1), BuildingBlock: EZIPEK_clean_linker_0, # of connection points: 2
#     Edge 55, Type (0, 1), BuildingBlock: EZIPEK_clean_linker_0, # of connection points: 2
#     Edge 56, Type (0, 1), BuildingBlock: EZIPEK_clean_linker_0, # of connection points: 2
#     Edge 57, Type (0, 1), BuildingBlock: EZIPEK_clean_linker_0, # of connection points: 2
#     Edge 58, Type (0, 1), BuildingBlock: EZIPEK_clean_linker_0, # of connection points: 2
#     Edge 59, Type (0, 1), BuildingBlock: EZIPEK_clean_linker_0, # of connection points: 2
#     Edge 60, Type (0, 1), BuildingBlock: EZIPEK_clean_linker_0, # of connection points: 2
#     Edge 61, Type (0, 1), BuildingBlock: EZIPEK_clean_linker_0, # of connection points: 2
#     Edge 62, Type (0, 1), BuildingBlock: EZIPEK_clean_linker_0, # of connection points: 2
#     Edge 63, Type (0, 1), BuildingBlock: EZIPEK_clean_linker_0, # of connection points: 2
#     Edge 64, Type (0, 1), BuildingBlock: EZIPEK_clean_linker_0, # of connection points: 2
#     Edge 65, Type (0, 1), BuildingBlock: EZIPEK_clean_linker_0, # of connection points: 2
#     Edge 66, Type (0, 1), BuildingBlock: EZIPEK_clean_linker_0, # of connection points: 2
#     Edge 67, Type (0, 1), BuildingBlock: EZIPEK_clean_linker_0, # of connection points: 2
#     Edge 68, Type (0, 1), BuildingBlock: EZIPEK_clean_linker_0, # of connection points: 2
#     Edge 69, Type (0, 1), BuildingBlock: EZIPEK_clean_linker_0, # of connection points: 2
#     Edge 70, Type (0, 1), BuildingBlock: EZIPEK_clean_linker_0, # of connection points: 2
#     Edge 71, Type (0, 1), BuildingBlock: EZIPEK_clean_linker_0, # of connection points: 2
#     Edge 72, Type (0, 1), BuildingBlock: EZIPEK_clean_linker_0, # of connection points: 2
#     Edge 73, Type (0, 1), BuildingBlock: EZIPEK_clean_linker_0, # of connection points: 2
#     Edge 74, Type (0, 1), BuildingBlock: EZIPEK_clean_linker_0, # of connection points: 2
#     Edge 75, Type (0, 1), BuildingBlock: EZIPEK_clean_linker_0, # of connection points: 2
#     Edge 76, Type (0, 1), BuildingBlock: EZIPEK_clean_linker_0, # of connection points: 2
#     Edge 77, Type (0, 1), BuildingBlock: EZIPEK_clean_linker_0, # of connection points: 2
#     Edge 78, Type (0, 1), BuildingBlock: EZIPEK_clean_linker_0, # of connection points: 2
#     Edge 79, Type (0, 1), BuildingBlock: EZIPEK_clean_linker_0, # of connection points: 2
#     Edge 80, Type (0, 1), BuildingBlock: EZIPEK_clean_linker_0, # of connection points: 2
# Relax obj value: 0.008
# Max RMSD: 0.088
# Mean RMSD: 0.072
data_MOF--net-eea--node1-KUMBOL_clean_sbu_0--node2-KAKCAD_clean_linker_0--edge1-EZIPEK_clean_linker_0
_symmetry_space_group_name_H-M    P1
_symmetry_Int_Tables_number       1
_symmetry_cell_setting            triclinic
loop_
_symmetry_equiv_pos_as_xyz
'x, y, z'
_cell_length_a     48.651727
_cell_length_b     49.813686
_cell_length_c     72.046369
_cell_angle_alpha  90.218204
_cell_angle_beta   90.144964
_cell_angle_gamma 120.00982
loop_
_atom_site_label
_atom_site_type_symbol
_atom_site_fract_x
_atom_site_fract_y
_atom_site_fract_z
_atom_type_partial_charge
C0 C 0.28627 0.1568 0.48966 0.0
C1 C 0.3104 0.15068 0.49475 0.0
C2 C 0.27515 0.15192 0.47137 0.0
C3 C 0.28799 0.14078 0.45792 0.0
C4 C 0.31199 0.13441 0.46321 0.0
C5 C 0.3231 0.13934 0.48148 0.0
C6 C 0.27651 0.13596 0.43843 0.0
C7 C 0.27042 0.15765 0.42977 0.0
C8 C 0.25936 0.15303 0.41143 0.0
C9 C 0.25419 0.12661 0.40161 0.0
C10 C 0.25944 0.1043 0.41014 0.0
C11 C 0.27097 0.10932 0.4285 0.0
C12 C 0.25074 0.07484 0.40035 0.0
C13 C 0.23388 0.04651 0.40975 0.0
C14 C 0.25826 0.07463 0.38151 0.0
C15 C 0.24937 0.04661 0.37233 0.0
C16 C 0.23275 0.0185 0.38188 0.0
C17 C 0.24992 0.17407 0.40315 0.0
C18 C 0.22176 0.17258 0.40896 0.0
C19 C 0.26801 0.19462 0.38903 0.0
C20 C 0.25795 0.21366 0.38081 0.0
C21 C 0.22931 0.21158 0.38635 0.0
C22 C 0.21136 0.19101 0.4005 0.0
C23 C 0.225 0.01863 0.40059 0.0
H24 H 0.27618 0.16545 0.49982 0.0
H25 H 0.25632 0.1566 0.4678 0.0
H26 H 0.32255 0.12612 0.45314 0.0
H27 H 0.34178 0.13455 0.48527 0.0
H28 H 0.27424 0.17819 0.43723 0.0
H29 H 0.27499 0.09213 0.4352 0.0
H30 H 0.24445 0.12269 0.38766 0.0
H31 H 0.22722 0.04585 0.42414 0.0
H32 H 0.27137 0.09614 0.37396 0.0
H33 H 0.25577 0.04684 0.35792 0.0
H34 H 0.20753 0.15671 0.41981 0.0
H35 H 0.2898 0.19589 0.38442 0.0
H36 H 0.21226 0.99707 0.40814 0.0
H37 H 0.18928 0.18927 0.40498 0.0
H38 H 0.27211 0.22958 0.36998 0.0
C39 C 0.87116 0.16817 0.48581 0.0
C40 C 0.86157 0.14495 0.4993 0.0
C41 C 0.87881 0.16319 0.4679 0.0
C42 C 0.87658 0.13475 0.46315 0.0
C43 C 0.86753 0.11181 0.47683 0.0
C44 C 0.86028 0.11693 0.49477 0.0
C45 C 0.88281 0.12854 0.4439 0.0
C46 C 0.90979 0.15049 0.4343 0.0
C47 C 0.91564 0.14422 0.4162 0.0
C48 C 0.8948 0.11575 0.40779 0.0
C49 C 0.86745 0.09343 0.41706 0.0
C50 C 0.86161 0.10035 0.4351 0.0
C51 C 0.84525 0.06308 0.40792 0.0
C52 C 0.84183 0.06076 0.38845 0.0
C53 C 0.82734 0.03606 0.41851 0.0
C54 C 0.80621 0.0079 0.40991 0.0
C55 C 0.80328 0.00579 0.39051 0.0
C56 C 0.94399 0.16707 0.40607 0.0
C57 C 0.94081 0.18118 0.38998 0.0
C58 C 0.97429 0.17428 0.4122 0.0
C59 C 1.00116 0.19572 0.40253 0.0
C60 C 0.99808 0.21039 0.38671 0.0
C61 C 0.96776 0.20285 0.38036 0.0
C62 C 0.82163 0.03238 0.37986 0.0
H63 H 0.87223 0.18992 0.48909 0.0
H64 H 0.88558 0.18121 0.45762 0.0
H65 H 0.86598 0.08983 0.47361 0.0
H66 H 0.85299 0.09881 0.50503 0.0
H67 H 0.92634 0.17232 0.4409 0.0
H68 H 0.84019 0.08413 0.44231 0.0
H69 H 0.90062 0.11094 0.39414 0.0
H70 H 0.85432 0.0809 0.3797 0.0
H71 H 0.82968 0.0364 0.43345 0.0
H72 H 0.79229 0.98765 0.41839 0.0
H73 H 0.91753 0.17582 0.38509 0.0
H74 H 0.97712 0.16331 0.42444 0.0
H75 H 0.81966 0.0313 0.36486 0.0
H76 H 0.96508 0.2143 0.36832 0.0
H77 H 0.02445 0.2014 0.40761 0.0
C78 C 0.8746 0.70755 0.48351 0.0
C79 C 0.86022 0.71811 0.4962 0.0
C80 C 0.88105 0.71908 0.46539 0.0
C81 C 0.87309 0.7413 0.45958 0.0
C82 C 0.85904 0.75209 0.47245 0.0
C83 C 0.85278 0.74069 0.4906 0.0
C84 C 0.87918 0.75298 0.44013 0.0
C85 C 0.90773 0.76003 0.43121 0.0
C86 C 0.91384 0.7712 0.41285 0.0
C87 C 0.89098 0.77572 0.40358 0.0
C88 C 0.86247 0.76887 0.41226 0.0
C89 C 0.85655 0.75729 0.43042 0.0
C90 C 0.83919 0.77469 0.4025 0.0
C91 C 0.8468 0.80519 0.39852 0.0
C92 C 0.80917 0.75005 0.39748 0.0
C93 C 0.7869 0.75589 0.38877 0.0
C94 C 0.79399 0.78652 0.38556 0.0
C95 C 0.94393 0.77799 0.40335 0.0
C96 C 0.95782 0.75951 0.40664 0.0
C97 C 0.95891 0.80281 0.39078 0.0
C98 C 0.98688 0.80887 0.38175 0.0
C99 C 1.00079 0.79064 0.38536 0.0
C100 C 0.98601 0.76589 0.39783 0.0
C101 C 0.82426 0.81108 0.39034 0.0
H102 H 0.88045 0.69008 0.48758 0.0
H103 H 0.89163 0.71007 0.45582 0.0
H104 H 0.85304 0.76951 0.46853 0.0
H105 H 0.84175 0.74916 0.50022 0.0
H106 H 0.92558 0.75755 0.4388 0.0
H107 H 0.83433 0.7518 0.43699 0.0
H108 H 0.8949 0.78399 0.38941 0.0
H109 H 0.86985 0.8245 0.40229 0.0
H110 H 0.80293 0.72635 0.4004 0.0
H111 H 0.76367 0.73663 0.38527 0.0
H112 H 0.94679 0.73984 0.41588 0.0
H113 H 0.94934 0.81791 0.38808 0.0
H114 H 0.8302 0.83487 0.38809 0.0
H115 H 0.99635 0.75148 0.40074 0.0
H116 H 0.998 0.82811 0.37219 0.0
C117 C 0.15007 0.26116 0.5298 0.0
C118 C 0.14874 0.28782 0.52503 0.0
C119 C 0.14272 0.24922 0.54783 0.0
C120 C 0.13325 0.26329 0.56141 0.0
C121 C 0.13098 0.28941 0.55645 0.0
C122 C 0.13889 0.30169 0.5385 0.0
C123 C 0.12671 0.2513 0.58082 0.0
C124 C 0.14808 0.24458 0.59003 0.0
C125 C 0.1427 0.23371 0.60843 0.0
C126 C 0.11523 0.22944 0.61755 0.0
C127 C 0.09311 0.23554 0.60859 0.0
C128 C 0.09934 0.24671 0.5902 0.0
C129 C 0.06336 0.22973 0.61832 0.0
C130 C 0.04769 0.20475 0.63074 0.0
C131 C 0.05007 0.24882 0.61518 0.0
C132 C 0.0218 0.24277 0.62388 0.0
C133 C 0.00627 0.21772 0.6361 0.0
C134 C 0.16581 0.22685 0.61808 0.0
C135 C 0.18038 0.21266 0.60843 0.0
C136 C 0.1737 0.23456 0.63695 0.0
C137 C 0.19578 0.22859 0.64583 0.0
C138 C 0.21055 0.21488 0.63602 0.0
C139 C 0.20246 0.20677 0.6173 0.0
C140 C 0.01968 0.199 0.63963 0.0
H141 H 0.15745 0.24997 0.51964 0.0
H142 H 0.14442 0.22891 0.55116 0.0
H143 H 0.12393 0.30088 0.56661 0.0
H144 H 0.13768 0.32226 0.53516 0.0
H145 H 0.16949 0.24871 0.58298 0.0
H146 H 0.08245 0.25101 0.58289 0.0
H147 H 0.11101 0.22116 0.63171 0.0
H148 H 0.05661 0.18909 0.63332 0.0
H149 H 0.06153 0.26857 0.60603 0.0
H150 H 0.01186 0.25751 0.62095 0.0
H151 H 0.1746 0.20592 0.59401 0.0
H152 H 0.1633 0.24583 0.64479 0.0
H153 H 0.00797 0.17943 0.64891 0.0
H154 H 0.21353 0.19611 0.60949 0.0
H155 H 0.20173 0.23509 0.66027 0.0
C156 C 0.68948 0.82657 0.53812 0.0
C157 C 0.70239 0.8499 0.52463 0.0
C158 C 0.70254 0.83216 0.55599 0.0
C159 C 0.72849 0.8613 0.56071 0.0
C160 C 0.74175 0.88437 0.54703 0.0
C161 C 0.72892 0.87865 0.52912 0.0
C162 C 0.74112 0.86808 0.57998 0.0
C163 C 0.74678 0.8469 0.58973 0.0
C164 C 0.75903 0.85349 0.60795 0.0
C165 C 0.76516 0.88146 0.61636 0.0
C166 C 0.75905 0.90258 0.60698 0.0
C167 C 0.74727 0.89582 0.58873 0.0
C168 C 0.76515 0.93171 0.61633 0.0
C169 C 0.75679 0.93139 0.63505 0.0
C170 C 0.77995 0.96008 0.6068 0.0
C171 C 0.78677 0.98758 0.61591 0.0
C172 C 0.77882 0.98714 0.63465 0.0
C173 C 0.76608 0.83166 0.61816 0.0
C174 C 0.77917 0.81578 0.60889 0.0
C175 C 0.76059 0.82718 0.63741 0.0
C176 C 0.76837 0.80764 0.64715 0.0
C177 C 0.78136 0.79193 0.63778 0.0
C178 C 0.78662 0.79603 0.61862 0.0
C179 C 0.76361 0.95888 0.64413 0.0
H180 H 0.66898 0.80424 0.53487 0.0
H181 H 0.69174 0.81403 0.56627 0.0
H182 H 0.76198 0.90691 0.55022 0.0
H183 H 0.73923 0.89686 0.51885 0.0
H184 H 0.74176 0.82537 0.58306 0.0
H185 H 0.74207 0.9118 0.58148 0.0
H186 H 0.77555 0.88726 0.63014 0.0
H187 H 0.74496 0.90986 0.64269 0.0
H188 H 0.78693 0.96112 0.59244 0.0
H189 H 0.79862 0.00928 0.60843 0.0
H190 H 0.7842 0.819 0.59418 0.0
H191 H 0.75004 0.83859 0.64495 0.0
H192 H 0.75729 0.95818 0.6586 0.0
H193 H 0.79667 0.784 0.6112 0.0
H194 H 0.76394 0.80449 0.66193 0.0
C195 C 0.11277 0.83768 0.53314 0.0
C196 C 0.143 0.84373 0.52771 0.0
C197 C 0.10733 0.84295 0.55149 0.0
C198 C 0.13214 0.85465 0.56466 0.0
C199 C 0.1624 0.86076 0.55909 0.0
C200 C 0.16775 0.85527 0.54079 0.0
C201 C 0.12663 0.86108 0.58403 0.0
C202 C 0.09901 0.83991 0.59351 0.0
C203 C 0.09294 0.84636 0.61159 0.0
C204 C 0.11488 0.87459 0.62008 0.0
C205 C 0.14277 0.89573 0.61088 0.0
C206 C 0.14864 0.88876 0.59297 0.0
C207 C 0.16485 0.92605 0.61948 0.0
C208 C 0.15415 0.94674 0.62382 0.0
C209 C 0.19675 0.9349 0.62287 0.0
C210 C 0.21763 0.96407 0.63056 0.0
C211 C 0.2071 0.98514 0.63436 0.0
C212 C 0.06358 0.82378 0.6215 0.0
C213 C 0.03454 0.80743 0.61188 0.0
C214 C 0.06435 0.81823 0.64061 0.0
C215 C 0.03679 0.7967 0.64982 0.0
C216 C 0.00807 0.78023 0.64005 0.0
C217 C 0.0071 0.78586 0.62107 0.0
C218 C 0.17515 0.97612 0.631 0.0
H219 H 0.09346 0.8289 0.52316 0.0
H220 H 0.08386 0.83838 0.5553 0.0
H221 H 0.1819 0.86953 0.56894 0.0
H222 H 0.19123 0.86006 0.53681 0.0
H223 H 0.08251 0.8181 0.58688 0.0
H224 H 0.16976 0.90557 0.5857 0.0
H225 H 0.11019 0.88037 0.63378 0.0
H226 H 0.12969 0.94043 0.62123 0.0
H227 H 0.20541 0.91919 0.61962 0.0
H228 H 0.24212 0.97051 0.63315 0.0
H229 H 0.03291 0.81146 0.59726 0.0
H230 H 0.08637 0.83014 0.64839 0.0
H231 H 0.16651 0.99197 0.63387 0.0
H232 H 0.98504 0.77342 0.61334 0.0
H233 H 0.03789 0.7926 0.66449 0.0
C234 C 0.9593 0.50092 0.82381 0.0
C235 C 0.98052 0.49225 0.83096 0.0
C236 C 0.9485 0.49367 0.80553 0.0
C237 C 0.95926 0.47819 0.79378 0.0
C238 C 0.97996 0.46883 0.80118 0.0
C239 C 0.9902 0.47549 0.81967 0.0
C240 C 0.94925 0.47244 0.77387 0.0
C241 C 0.94377 0.49382 0.76415 0.0
C242 C 0.93268 0.48801 0.74581 0.0
C243 C 0.92748 0.46093 0.73685 0.0
C244 C 0.93272 0.43924 0.7462 0.0
C245 C 0.94389 0.44519 0.76464 0.0
C246 C 0.92321 0.40901 0.73726 0.0
C247 C 0.89233 0.39121 0.73009 0.0
C248 C 0.9444 0.39764 0.73589 0.0
C249 C 0.93476 0.36889 0.72737 0.0
C250 C 0.90357 0.35089 0.72061 0.0
C251 C 0.923 0.50844 0.73673 0.0
C252 C 0.89658 0.50953 0.74347 0.0
C253 C 0.93901 0.52585 0.72105 0.0
C254 C 0.92876 0.54436 0.71227 0.0
C255 C 0.90179 0.5448 0.71878 0.0
C256 C 0.88589 0.52733 0.73447 0.0
C257 C 0.88257 0.36239 0.72195 0.0
H258 H 0.95126 0.51356 0.83238 0.0
H259 H 0.93172 0.50035 0.80064 0.0
H260 H 0.98894 0.45705 0.79261 0.0
H261 H 0.00645 0.46845 0.82502 0.0
H262 H 0.94786 0.51507 0.7708 0.0
H263 H 0.94671 0.4278 0.77201 0.0
H264 H 0.91813 0.45616 0.72279 0.0
H265 H 0.8755 0.39938 0.73111 0.0
H266 H 0.96836 0.41107 0.74128 0.0
H267 H 0.95127 0.36035 0.72641 0.0
H268 H 0.88387 0.49612 0.75551 0.0
H269 H 0.95945 0.52518 0.71569 0.0
H270 H 0.85841 0.34881 0.71685 0.0
H271 H 0.86517 0.52756 0.73976 0.0
H272 H 0.94146 0.55795 0.7003 0.0
C273 C 0.53943 0.49989 0.81881 0.0
C274 C 0.52999 0.47578 0.83165 0.0
C275 C 0.54683 0.49612 0.80061 0.0
C276 C 0.54459 0.46805 0.79495 0.0
C277 C 0.53598 0.44428 0.80802 0.0
C278 C 0.52891 0.44819 0.82626 0.0
C279 C 0.54995 0.46303 0.7753 0.0
C280 C 0.57616 0.48582 0.76557 0.0
C281 C 0.58119 0.48105 0.74692 0.0
C282 C 0.55932 0.45327 0.73799 0.0
C283 C 0.53281 0.43037 0.74748 0.0
C284 C 0.52842 0.43544 0.76616 0.0
C285 C 0.50936 0.40124 0.73796 0.0
C286 C 0.49931 0.40155 0.71976 0.0
C287 C 0.49685 0.37274 0.74705 0.0
C288 C 0.47302 0.34567 0.73873 0.0
C289 C 0.45923 0.34627 0.72149 0.0
C290 C 0.60983 0.50451 0.73694 0.0
C291 C 0.63952 0.51942 0.74595 0.0
C292 C 0.60797 0.51134 0.71818 0.0
C293 C 0.63533 0.53206 0.70854 0.0
C294 C 0.66487 0.54634 0.71756 0.0
C295 C 0.66678 0.54014 0.73632 0.0
C296 C 0.47539 0.37437 0.71146 0.0
H297 H 0.54037 0.52133 0.82279 0.0
H298 H 0.55325 0.51475 0.79081 0.0
H299 H 0.53445 0.42257 0.80408 0.0
H300 H 0.52177 0.42941 0.83604 0.0
H301 H 0.59276 0.5072 0.77257 0.0
H302 H 0.50765 0.41819 0.77348 0.0
H303 H 0.56344 0.44905 0.72378 0.0
H304 H 0.50958 0.42291 0.71194 0.0
H305 H 0.50572 0.37128 0.7606 0.0
H306 H 0.46601 0.32436 0.74604 0.0
H307 H 0.64189 0.51439 0.76029 0.0
H308 H 0.5854 0.50054 0.71093 0.0
H309 H 0.47038 0.37599 0.69707 0.0
H310 H 0.68952 0.55089 0.74342 0.0
H311 H 0.63359 0.53664 0.69402 0.0
C312 C 0.55463 0.06301 0.82348 0.0
C313 C 0.52458 0.05217 0.83135 0.0
C314 C 0.56153 0.07625 0.80577 0.0
C315 C 0.53801 0.07753 0.79481 0.0
C316 C 0.50779 0.06642 0.80296 0.0
C317 C 0.50158 0.05491 0.82108 0.0
C318 C 0.54452 0.08945 0.77503 0.0
C319 C 0.57113 0.09278 0.76518 0.0
C320 C 0.57734 0.10375 0.74683 0.0
C321 C 0.55504 0.10906 0.73752 0.0
C322 C 0.52788 0.10557 0.74672 0.0
C323 C 0.52391 0.09723 0.76563 0.0
C324 C 0.50351 0.11055 0.73678 0.0
C325 C 0.51199 0.13196 0.72214 0.0
C326 C 0.47124 0.09378 0.74194 0.0
C327 C 0.44856 0.09902 0.73328 0.0
C328 C 0.45719 0.1205 0.71881 0.0
C329 C 0.6077 0.11037 0.73771 0.0
C330 C 0.63646 0.12543 0.74775 0.0
C331 C 0.60847 0.10223 0.71904 0.0
C332 C 0.63725 0.10886 0.71071 0.0
C333 C 0.66579 0.12397 0.72085 0.0
C334 C 0.66514 0.13217 0.73941 0.0
C335 C 0.48906 0.13655 0.71312 0.0
H336 H 0.57294 0.06135 0.83111 0.0
H337 H 0.58552 0.08528 0.80094 0.0
H338 H 0.48821 0.06566 0.79545 0.0
H339 H 0.47818 0.04683 0.82682 0.0
H340 H 0.58727 0.0865 0.77146 0.0
H341 H 0.50476 0.09741 0.77301 0.0
H342 H 0.55912 0.11618 0.72315 0.0
H343 H 0.53643 0.14575 0.7178 0.0
H344 H 0.46324 0.07638 0.75269 0.0
H345 H 0.42414 0.08622 0.73788 0.0
H346 H 0.6369 0.13246 0.76205 0.0
H347 H 0.58679 0.09042 0.71094 0.0
H348 H 0.49633 0.15324 0.70198 0.0
H349 H 0.68692 0.14392 0.74744 0.0
H350 H 0.63732 0.10234 0.69636 0.0
C351 C 0.83222 0.62921 0.8715 0.0
C352 C 0.80764 0.61818 0.85831 0.0
C353 C 0.8264 0.6172 0.8895 0.0
C354 C 0.79581 0.59387 0.89474 0.0
C355 C 0.77124 0.58277 0.88142 0.0
C356 C 0.77713 0.59474 0.86337 0.0
C357 C 0.78974 0.5815 0.91409 0.0
C358 C 0.81192 0.57583 0.92319 0.0
C359 C 0.80721 0.56522 0.9416 0.0
C360 C 0.77998 0.56081 0.95108 0.0
C361 C 0.75684 0.56561 0.94222 0.0
C362 C 0.76206 0.57576 0.92359 0.0
C363 C 0.72727 0.5598 0.95229 0.0
C364 C 0.71421 0.53754 0.96655 0.0
C365 C 0.71151 0.57622 0.94769 0.0
C366 C 0.68335 0.56994 0.95659 0.0
C367 C 0.67058 0.54779 0.97075 0.0
C368 C 0.83048 0.55815 0.95074 0.0
C369 C 0.84322 0.54246 0.94088 0.0
C370 C 0.83997 0.56669 0.96935 0.0
C371 C 0.86167 0.55974 0.97782 0.0
C372 C 0.87419 0.54405 0.96786 0.0
C373 C 0.86477 0.53546 0.94936 0.0
C374 C 0.68665 0.53209 0.97587 0.0
H375 H 0.85591 0.64734 0.86788 0.0
H376 H 0.8458 0.62662 0.89942 0.0
H377 H 0.74751 0.5646 0.88488 0.0
H378 H 0.75786 0.58588 0.85336 0.0
H379 H 0.83301 0.57968 0.91588 0.0
H380 H 0.74468 0.57939 0.91638 0.0
H381 H 0.77684 0.55334 0.96537 0.0
H382 H 0.72477 0.52372 0.97039 0.0
H383 H 0.72086 0.59415 0.93727 0.0
H384 H 0.67151 0.5825 0.95243 0.0
H385 H 0.83615 0.53513 0.92664 0.0
H386 H 0.83089 0.57904 0.97731 0.0
H387 H 0.6773 0.51489 0.98677 0.0
H388 H 0.87408 0.52322 0.94148 0.0
H389 H 0.86867 0.56654 0.99213 0.0
C390 C 0.36542 0.16682 0.86748 0.0
C391 C 0.37918 0.19146 0.85488 0.0
C392 C 0.37691 0.1708 0.88565 0.0
C393 C 0.40209 0.19961 0.89155 0.0
C394 C 0.41632 0.22402 0.87875 0.0
C395 C 0.4051 0.21989 0.86051 0.0
C396 C 0.41255 0.20453 0.9112 0.0
C397 C 0.41835 0.18296 0.92034 0.0
C398 C 0.42772 0.1873 0.9391 0.0
C399 C 0.43029 0.21305 0.94869 0.0
C400 C 0.42578 0.23542 0.93964 0.0
C401 C 0.41673 0.23089 0.92086 0.0
C402 C 0.4318 0.26393 0.94977 0.0
C403 C 0.45738 0.27831 0.96237 0.0
C404 C 0.41252 0.2772 0.94687 0.0
C405 C 0.41892 0.30438 0.95624 0.0
C406 C 0.44449 0.31849 0.96873 0.0
C407 C 0.43601 0.16589 0.94869 0.0
C408 C 0.41935 0.13381 0.945 0.0
C409 C 0.46084 0.17765 0.96187 0.0
C410 C 0.46818 0.15785 0.9715 0.0
C411 C 0.45154 0.12597 0.9678 0.0
C412 C 0.42724 0.11404 0.95439 0.0
C413 C 0.46352 0.30521 0.97185 0.0
H414 H 0.3454 0.14472 0.86332 0.0
H415 H 0.36544 0.15168 0.89527 0.0
H416 H 0.436 0.24634 0.8829 0.0
H417 H 0.41605 0.23908 0.8509 0.0
H418 H 0.41648 0.16339 0.91264 0.0
H419 H 0.41302 0.24792 0.91369 0.0
H420 H 0.43589 0.21576 0.96338 0.0
H421 H 0.47315 0.26917 0.96465 0.0
H422 H 0.39246 0.26656 0.93743 0.0
H423 H 0.40415 0.31457 0.95365 0.0
H424 H 0.39995 0.12389 0.9351 0.0
H425 H 0.47486 0.20227 0.96471 0.0
H426 H 0.48359 0.31614 0.98128 0.0
H427 H 0.41421 0.08942 0.95136 0.0
H428 H 0.48716 0.16745 0.9817 0.0
C429 C 0.78068 0.16308 0.86291 0.0
C430 C 0.81162 0.17323 0.85669 0.0
C431 C 0.77547 0.17085 0.8807 0.0
C432 C 0.80105 0.1883 0.89294 0.0
C433 C 0.8321 0.19853 0.88655 0.0
C434 C 0.83732 0.19148 0.86853 0.0
C435 C 0.79526 0.19584 0.91218 0.0
C436 C 0.76721 0.17534 0.92168 0.0
C437 C 0.76037 0.18311 0.93916 0.0
C438 C 0.78242 0.21132 0.94752 0.0
C439 C 0.81099 0.23166 0.93864 0.0
C440 C 0.81719 0.2239 0.92098 0.0
C441 C 0.83366 0.26166 0.94757 0.0
C442 C 0.82302 0.28157 0.95391 0.0
C443 C 0.86582 0.27053 0.94991 0.0
C444 C 0.88694 0.29883 0.95853 0.0
C445 C 0.87634 0.31902 0.96442 0.0
C446 C 0.72964 0.16233 0.9484 0.0
C447 C 0.71741 0.13007 0.94901 0.0
C448 C 0.71202 0.17472 0.95641 0.0
C449 C 0.6828 0.15534 0.96474 0.0
C450 C 0.67073 0.12323 0.96538 0.0
C451 C 0.68824 0.11069 0.95753 0.0
C452 C 0.84419 0.31004 0.96213 0.0
H453 H 0.7605 0.14917 0.85395 0.0
H454 H 0.75126 0.16328 0.8847 0.0
H455 H 0.85247 0.21158 0.89551 0.0
H456 H 0.86141 0.19961 0.86397 0.0
H457 H 0.75024 0.15343 0.91539 0.0
H458 H 0.8386 0.24044 0.91388 0.0
H459 H 0.77755 0.21735 0.96111 0.0
H460 H 0.79839 0.27533 0.95223 0.0
H461 H 0.87451 0.25543 0.94526 0.0
H462 H 0.91161 0.30526 0.96028 0.0
H463 H 0.73051 0.11987 0.94304 0.0
H464 H 0.72056 0.19939 0.95592 0.0
H465 H 0.83551 0.32523 0.96662 0.0
H466 H 0.67918 0.08592 0.95786 0.0
H467 H 0.66946 0.16536 0.97063 0.0
C468 C 0.62526 0.82716 0.1529 0.0
C469 C 0.64188 0.81324 0.1601 0.0
C470 C 0.61652 0.8235 0.1342 0.0
C471 C 0.62514 0.80666 0.12211 0.0
C472 C 0.64217 0.79304 0.12947 0.0
C473 C 0.64981 0.79572 0.14833 0.0
C474 C 0.61576 0.80257 0.10209 0.0
C475 C 0.61174 0.8251 0.09255 0.0
C476 C 0.60095 0.82029 0.07401 0.0
C477 C 0.59555 0.79318 0.06482 0.0
C478 C 0.59918 0.77056 0.07408 0.0
C479 C 0.60918 0.77523 0.09261 0.0
C480 C 0.58878 0.74045 0.06503 0.0
C481 C 0.55696 0.72223 0.05956 0.0
C482 C 0.60994 0.72937 0.06229 0.0
C483 C 0.59924 0.70023 0.05414 0.0
C484 C 0.5671 0.68163 0.04925 0.0
C485 C 0.59285 0.84211 0.06466 0.0
C486 C 0.61005 0.87421 0.06836 0.0
C487 C 0.56669 0.8306 0.0524 0.0
C488 C 0.55785 0.85046 0.04422 0.0
C489 C 0.57435 0.88213 0.04851 0.0
C490 C 0.60066 0.894 0.06048 0.0
C491 C 0.54615 0.69294 0.05188 0.0
H492 H 0.61873 0.8406 0.16183 0.0
H493 H 0.60261 0.83359 0.1294 0.0
H494 H 0.64992 0.78044 0.1207 0.0
H495 H 0.66259 0.78476 0.15367 0.0
H496 H 0.6162 0.84605 0.09968 0.0
H497 H 0.6102 0.75668 0.09978 0.0
H498 H 0.58783 0.78912 0.05045 0.0
H499 H 0.5403 0.73038 0.06168 0.0
H500 H 0.63459 0.74323 0.06645 0.0
H501 H 0.61568 0.69179 0.05215 0.0
H502 H 0.63057 0.88406 0.07747 0.0
H503 H 0.5522 0.80603 0.04956 0.0
H504 H 0.52128 0.67886 0.04819 0.0
H505 H 0.61354 0.91847 0.06396 0.0
H506 H 0.53721 0.84093 0.03519 0.0
C507 C 0.20957 0.84592 0.15076 0.0
C508 C 0.1976 0.82246 0.1642 0.0
C509 C 0.21599 0.83984 0.13278 0.0
C510 C 0.21016 0.81008 0.12786 0.0
C511 C 0.19861 0.7868 0.14146 0.0
C512 C 0.19257 0.79298 0.15948 0.0
C513 C 0.21595 0.80306 0.10863 0.0
C514 C 0.24417 0.8233 0.09938 0.0
C515 C 0.2504 0.81595 0.08161 0.0
C516 C 0.22815 0.78768 0.07328 0.0
C517 C 0.19897 0.76739 0.08189 0.0
C518 C 0.19324 0.77577 0.09961 0.0
C519 C 0.17486 0.73761 0.0725 0.0
C520 C 0.17496 0.73371 0.05305 0.0
C521 C 0.15149 0.71252 0.08282 0.0
C522 C 0.12904 0.68505 0.07405 0.0
C523 C 0.13015 0.68101 0.05482 0.0
C524 C 0.28021 0.83764 0.07167 0.0
C525 C 0.30934 0.85351 0.08125 0.0
C526 C 0.27974 0.84259 0.05244 0.0
C527 C 0.30769 0.86274 0.04304 0.0
C528 C 0.33659 0.87836 0.05271 0.0
C529 C 0.33724 0.87367 0.07185 0.0
C530 C 0.15354 0.70561 0.04446 0.0
H531 H 0.21359 0.86882 0.15416 0.0
H532 H 0.2248 0.85822 0.12261 0.0
H533 H 0.19433 0.76378 0.13817 0.0
H534 H 0.18347 0.77463 0.16968 0.0
H535 H 0.26135 0.84473 0.1061 0.0
H536 H 0.17086 0.76151 0.1065 0.0
H537 H 0.23426 0.78142 0.06018 0.0
H538 H 0.19139 0.75227 0.04421 0.0
H539 H 0.15052 0.71348 0.09777 0.0
H540 H 0.11129 0.66645 0.08241 0.0
H541 H 0.31071 0.85003 0.09598 0.0
H542 H 0.25767 0.83112 0.04468 0.0
H543 H 0.155 0.70319 0.0296 0.0
H544 H 0.35942 0.88557 0.0795 0.0
H545 H 0.30681 0.86623 0.02827 0.0
C546 C 0.22566 0.41066 0.15692 0.0
C547 C 0.19509 0.3914 0.16393 0.0
C548 C 0.22996 0.42049 0.13844 0.0
C549 C 0.20377 0.41086 0.12637 0.0
C550 C 0.17309 0.3917 0.13356 0.0
C551 C 0.16881 0.38235 0.15216 0.0
C552 C 0.20852 0.42037 0.10636 0.0
C553 C 0.23542 0.42426 0.0967 0.0
C554 C 0.24049 0.43349 0.07802 0.0
C555 C 0.21754 0.43774 0.06867 0.0
C556 C 0.19033 0.43407 0.07789 0.0
C557 C 0.18636 0.42571 0.09681 0.0
C558 C 0.1665 0.43961 0.06788 0.0
C559 C 0.17604 0.46219 0.05385 0.0
C560 C 0.13395 0.42255 0.07233 0.0
C561 C 0.11189 0.42843 0.06338 0.0
C562 C 0.12167 0.45112 0.04953 0.0
C563 C 0.2703 0.43962 0.06846 0.0
C564 C 0.29968 0.45553 0.07781 0.0
C565 C 0.26988 0.43038 0.0499 0.0
C566 C 0.29812 0.43697 0.04093 0.0
C567 C 0.32728 0.45296 0.05036 0.0
C568 C 0.32783 0.46214 0.06884 0.0
C569 C 0.15387 0.46758 0.04465 0.0
H570 H 0.24627 0.4181 0.16578 0.0
H571 H 0.25392 0.43582 0.13371 0.0
H572 H 0.15231 0.38334 0.12477 0.0
H573 H 0.14499 0.3675 0.1573 0.0
H574 H 0.25236 0.41959 0.10362 0.0
H575 H 0.16639 0.42421 0.1043 0.0
H576 H 0.22115 0.44427 0.0542 0.0
H577 H 0.20079 0.47633 0.05018 0.0
H578 H 0.12536 0.40453 0.08271 0.0
H579 H 0.08715 0.41539 0.06735 0.0
H580 H 0.30103 0.46341 0.09199 0.0
H581 H 0.24769 0.41785 0.04233 0.0
H582 H 0.16197 0.48526 0.03405 0.0
H583 H 0.35014 0.47459 0.07632 0.0
H584 H 0.29728 0.4297 0.02666 0.0
C585 C 0.49797 0.9609 0.20537 0.0
C586 C 0.47267 0.94839 0.19263 0.0
C587 C 0.49365 0.94936 0.22344 0.0
C588 C 0.46386 0.92518 0.22913 0.0
C589 C 0.4387 0.91238 0.21619 0.0
C590 C 0.44311 0.92379 0.19808 0.0
C591 C 0.45883 0.91377 0.24859 0.0
C592 C 0.4816 0.90897 0.25774 0.0
C593 C 0.47681 0.89796 0.27612 0.0
C594 C 0.44888 0.89209 0.28531 0.0
C595 C 0.42613 0.89724 0.27652 0.0
C596 C 0.43125 0.90794 0.25814 0.0
C597 C 0.39686 0.89113 0.28652 0.0
C598 C 0.36722 0.8761 0.27745 0.0
C599 C 0.39828 0.89997 0.30525 0.0
C600 C 0.37065 0.8937 0.31472 0.0
C601 C 0.34119 0.87846 0.30562 0.0
C602 C 0.50066 0.8922 0.28567 0.0
C603 C 0.51735 0.88048 0.27577 0.0
C604 C 0.50671 0.89803 0.30485 0.0
C605 C 0.52867 0.89216 0.31386 0.0
C606 C 0.54549 0.88088 0.30383 0.0
C607 C 0.53962 0.87506 0.28474 0.0
C608 C 0.33964 0.86978 0.28694 0.0
H609 H 0.52094 0.97993 0.20139 0.0
H610 H 0.51341 0.9599 0.2331 0.0
H611 H 0.41559 0.89349 0.22007 0.0
H612 H 0.42336 0.91381 0.1884 0.0
H613 H 0.50304 0.91378 0.25048 0.0
H614 H 0.41407 0.9125 0.2514 0.0
H615 H 0.44432 0.88266 0.2992 0.0
H616 H 0.36525 0.86871 0.26311 0.0
H617 H 0.4208 0.91191 0.31254 0.0
H618 H 0.37216 0.90055 0.32914 0.0
H619 H 0.51297 0.87509 0.26112 0.0
H620 H 0.49476 0.9075 0.31292 0.0
H621 H 0.317 0.85792 0.27975 0.0
H622 H 0.55229 0.86623 0.27677 0.0
H623 H 0.5329 0.89681 0.3286 0.0
C624 C 0.02282 0.49432 0.20283 0.0
C625 C 0.03791 0.51895 0.19031 0.0
C626 C 0.03267 0.49823 0.22135 0.0
C627 C 0.05748 0.52696 0.22762 0.0
C628 C 0.07293 0.55137 0.21494 0.0
C629 C 0.06336 0.54733 0.19638 0.0
C630 C 0.06727 0.53173 0.24736 0.0
C631 C 0.07304 0.51032 0.25659 0.0
C632 C 0.08416 0.51584 0.27497 0.0
C633 C 0.0899 0.54319 0.28396 0.0
C634 C 0.08357 0.56468 0.27513 0.0
C635 C 0.07172 0.55831 0.25682 0.0
C636 C 0.09063 0.59417 0.28472 0.0
C637 C 0.09072 0.59608 0.30427 0.0
C638 C 0.09862 0.62115 0.27446 0.0
C639 C 0.1066 0.64898 0.28345 0.0
C640 C 0.10826 0.651 0.30288 0.0
C641 C 0.09122 0.49384 0.28464 0.0
C642 C 0.0814 0.48515 0.30308 0.0
C643 C 0.10882 0.48227 0.27573 0.0
C644 C 0.11697 0.46289 0.28519 0.0
C645 C 0.10756 0.45466 0.30365 0.0
C646 C 0.08937 0.46551 0.31251 0.0
C647 C 0.10022 0.62431 0.31322 0.0
H648 H 0.00313 0.47227 0.1983 0.0
H649 H 0.02039 0.47909 0.23087 0.0
H650 H 0.09244 0.57359 0.21939 0.0
H651 H 0.07528 0.56649 0.18684 0.0
H652 H 0.06934 0.48961 0.24939 0.0
H653 H 0.06569 0.57382 0.24976 0.0
H654 H 0.10048 0.54802 0.29768 0.0
H655 H 0.08372 0.57589 0.31282 0.0
H656 H 0.09971 0.62131 0.25947 0.0
H657 H 0.11275 0.66934 0.27519 0.0
H658 H 0.06753 0.49354 0.31017 0.0
H659 H 0.11691 0.4888 0.2616 0.0
H660 H 0.10128 0.62534 0.32824 0.0
H661 H 0.08167 0.45901 0.3267 0.0
H662 H 0.13086 0.45444 0.27816 0.0
C663 C 0.44514 0.50001 0.19802 0.0
C664 C 0.47604 0.50844 0.1925 0.0
C665 C 0.43942 0.50623 0.21612 0.0
C666 C 0.46457 0.5212 0.22895 0.0
C667 C 0.49554 0.52994 0.22321 0.0
C668 C 0.5012 0.52357 0.20517 0.0
C669 C 0.45858 0.52714 0.24837 0.0
C670 C 0.43256 0.50428 0.25821 0.0
C671 C 0.42706 0.50925 0.27671 0.0
C672 C 0.44846 0.53743 0.28548 0.0
C673 C 0.47457 0.561 0.27584 0.0
C674 C 0.47914 0.55551 0.2572 0.0
C675 C 0.49669 0.59143 0.28506 0.0
C676 C 0.48565 0.6039 0.29882 0.0
C677 C 0.52901 0.60856 0.28008 0.0
C678 C 0.54937 0.63741 0.2883 0.0
C679 C 0.53819 0.6495 0.30207 0.0
C680 C 0.39849 0.48524 0.28665 0.0
C681 C 0.36904 0.4693 0.27739 0.0
C682 C 0.40012 0.47848 0.30547 0.0
C683 C 0.37288 0.45656 0.31481 0.0
C684 C 0.34362 0.44099 0.30548 0.0
C685 C 0.34193 0.44744 0.28672 0.0
C686 C 0.50623 0.63229 0.30739 0.0
H687 H 0.42548 0.48843 0.18837 0.0
H688 H 0.41535 0.49949 0.22005 0.0
H689 H 0.51536 0.54117 0.23279 0.0
H690 H 0.5252 0.53022 0.20112 0.0
H691 H 0.4169 0.4822 0.25157 0.0
H692 H 0.49832 0.57356 0.24929 0.0
H693 H 0.44448 0.54103 0.29981 0.0
H694 H 0.46094 0.5921 0.30284 0.0
H695 H 0.53883 0.59969 0.26991 0.0
H696 H 0.57395 0.65023 0.284 0.0
H697 H 0.36675 0.47421 0.26302 0.0
H698 H 0.42245 0.49007 0.31295 0.0
H699 H 0.49702 0.64119 0.31795 0.0
H700 H 0.31945 0.43581 0.27935 0.0
H701 H 0.37451 0.45196 0.32933 0.0
Gd702 Gd 0.51776 0.02052 0.03635 0.0
Gd703 Gd 0.49521 0.98421 0.98993 0.0
C704 C 0.39985 0.89448 0.98545 0.0
C705 C 0.41582 0.85647 0.97852 0.0
C706 C 0.45567 0.9108 0.98271 0.0
C707 C 0.43208 0.91792 0.98603 0.0
C708 C 0.44777 0.88014 0.97834 0.0
C709 C 0.3919 0.86362 0.98211 0.0
C710 C 0.3766 0.90284 0.98798 0.0
C711 C 0.38571 0.93402 0.99039 0.0
N712 N 0.44057 0.94793 0.98924 0.0
C713 C 0.41796 0.95641 0.99072 0.0
H714 H 0.42466 0.98035 0.9925 0.0
C715 C 0.50966 0.92918 0.97598 0.0
N716 N 0.48627 0.9342 0.98269 0.0
C717 C 0.50312 0.89915 0.97169 0.0
C718 C 0.47211 0.8744 0.97323 0.0
H719 H 0.53346 0.94843 0.97429 0.0
H720 H 0.36731 0.84525 0.98184 0.0
H721 H 0.58405 0.0141 0.02326 0.0
H722 H 0.3516 0.88551 0.98777 0.0
H723 H 0.36794 0.94083 0.99205 0.0
H724 H 0.40931 0.83271 0.97542 0.0
H725 H 0.50044 0.07862 0.04376 0.0
H726 H 0.66229 0.08041 0.05514 0.0
H727 H 0.6386 0.03591 0.03351 0.0
H728 H 0.62779 0.1487 0.07738 0.0
H729 H 0.52191 0.89517 0.96701 0.0
H730 H 0.46702 0.85117 0.96974 0.0
H731 H 0.65779 0.12194 0.07177 0.0
H732 H 0.52582 0.13017 0.05774 0.0
N733 N 0.57396 0.04358 0.0403 0.0
C734 C 0.63758 0.0703 0.05112 0.0
C735 C 0.62434 0.04527 0.03889 0.0
C736 C 0.61951 0.08341 0.05692 0.0
C737 C 0.58738 0.06945 0.05123 0.0
C738 C 0.59272 0.03255 0.03334 0.0
N739 N 0.54089 0.07256 0.04689 0.0
C740 C 0.5705 0.08471 0.05434 0.0
C741 C 0.53881 0.11783 0.05668 0.0
C742 C 0.56904 0.13044 0.06442 0.0
C743 C 0.52483 0.08865 0.0482 0.0
C744 C 0.58532 0.114 0.06328 0.0
H745 H 0.57969 0.15297 0.07113 0.0
O746 O 0.48938 0.02529 0.05818 0.0
O747 O 0.47726 0.98725 0.01772 0.0
O748 O 0.4802 0.02035 0.99125 0.0
O749 O 0.49677 0.04536 0.02012 0.0
O750 O 0.47907 0.97334 0.04413 0.0
O751 O 0.51835 0.00431 0.06408 0.0
O752 O 0.52017 0.99445 0.9638 0.0
O753 O 0.52962 0.02738 1.00586 0.0
O754 O 0.53335 0.98503 0.03465 0.0
O755 O 0.51032 0.95597 1.00759 0.0
O756 O 0.54841 0.00885 0.98808 0.0
O757 O 0.47387 0.99018 0.9646 0.0
C758 C 0.46331 0.96493 0.02901 0.0
C759 C 0.61631 0.12653 0.07022 0.0
C760 C 0.63335 0.11123 0.06709 0.0
C761 C 0.49849 0.0123 0.07066 0.0
C762 C 0.50449 0.02434 0.08988 0.0
C763 C 0.52025 0.0562 0.09375 0.0
C764 C 0.49481 0.00326 0.10473 0.0
C765 C 0.50135 0.01416 0.12318 0.0
C766 C 0.52696 0.06705 0.112 0.0
C767 C 0.51765 0.04619 0.12666 0.0
C768 C 0.48334 0.04151 1.00352 0.0
C769 C 0.55544 0.0328 0.99829 0.0
C770 C 0.49778 0.99504 0.95426 0.0
C771 C 0.49152 0.98065 0.93572 0.0
C772 C 0.48352 0.94961 0.93356 0.0
C773 C 0.49726 -0.00077 0.9199 0.0
C774 C 0.49689 0.98734 0.90205 0.0
C775 C 0.48286 0.93763 0.91594 0.0
C776 C 0.49007 0.95645 0.90034 0.0
C777 C 0.52632 0.96144 0.0234 0.0
H778 H 0.52737 0.07279 0.08283 0.0
H779 H 0.48227 0.97852 0.10199 0.0
H780 H 0.53928 0.09174 0.11478 0.0
H781 H 0.52281 0.055 0.14077 0.0
H782 H 0.47849 0.93483 0.94546 0.0
H783 H 0.50304 0.02315 0.92151 0.0
H784 H 0.47718 0.91377 0.91439 0.0
H785 H 0.48988 0.94675 0.88682 0.0
Gd786 Gd 0.9797 0.49367 0.03124 0.0
Gd787 Gd 0.02281 0.50985 0.98702 0.0
C788 C 0.08506 0.46458 0.98408 0.0
C789 C 0.13655 0.50712 0.99335 0.0
C790 C 0.0916 0.51538 0.98947 0.0
C791 C 0.07217 0.48443 0.98525 0.0
C792 C 0.12437 0.52736 0.99265 0.0
C793 C 0.11689 0.47571 0.98905 0.0
C794 C 0.06601 0.43456 0.97716 0.0
C795 C 0.03595 0.42592 0.97024 0.0
N796 N 0.04144 0.47445 0.98062 0.0
C797 C 0.0245 0.44661 0.97148 0.0
H798 H 1.00217 0.44003 0.96487 0.0
C799 C 0.09908 0.56575 0.98756 0.0
N800 N 0.0791 0.53429 0.98863 0.0
C801 C 0.1316 0.57878 0.9909 0.0
C802 C 0.14418 0.55947 0.99407 0.0
H803 H 0.08996 0.58115 0.98471 0.0
H804 H 0.12689 0.46056 0.98875 0.0
H805 H 0.97005 0.55526 0.02596 0.0
H806 H 0.07495 0.41858 0.97609 0.0
H807 H 0.02171 0.40349 0.96368 0.0
H808 H 0.16146 0.51578 0.99627 0.0
H809 H 0.94966 0.424 0.05007 0.0
H810 H 0.87146 0.52573 0.03102 0.0
H811 H 0.92678 0.56727 0.02556 0.0
H812 H 0.82614 0.42001 0.05023 0.0
H813 H 0.14694 0.6037 0.99091 0.0
H814 H 0.16944 0.56958 0.99652 0.0
H815 H 0.83388 0.47041 0.03994 0.0
H816 H 0.89821 0.38226 0.06162 0.0
N817 N 0.93959 0.50698 0.03054 0.0
C818 C 0.89039 0.52025 0.03105 0.0
C819 C 0.92158 0.54377 0.02805 0.0
C820 C 0.88424 0.49024 0.03489 0.0
C821 C 0.90972 0.48433 0.0346 0.0
C822 C 0.94609 0.53681 0.02824 0.0
N823 N 0.93087 0.45204 0.04069 0.0
C824 C 0.90525 0.45596 0.04007 0.0
C825 C 0.89979 0.40275 0.05545 0.0
C826 C 0.87278 0.40572 0.05398 0.0
C827 C 0.92886 0.42636 0.04879 0.0
C828 C 0.87535 0.43272 0.0464 0.0
H829 H 0.85029 0.38739 0.05912 0.0
O830 O 0.99684 0.486 0.05755 0.0
O831 O 0.02295 0.49929 0.01672 0.0
O832 O 0.98321 0.45927 0.9876 0.0
O833 O 0.94986 0.45129 0.01279 0.0
O834 O 0.99992 0.46184 0.03414 0.0
O835 O 0.98559 0.52255 0.05523 0.0
O836 O 0.0328 0.5501 0.97052 0.0
O837 O 0.98604 0.51475 1.00326 0.0
O838 O 0.01335 0.54535 0.03016 0.0
O839 O 0.04738 0.55248 1.00572 0.0
O840 O 0.97544 0.50067 0.97606 0.0
O841 O 0.02526 0.50726 0.95698 0.0
C842 C 0.02401 0.47634 0.0234 0.0
C843 C 0.84943 0.43775 0.0457 0.0
C844 C 0.85383 0.46644 0.03984 0.0
C845 C 0.99383 0.50722 0.06628 0.0
C846 C 0.97769 0.49837 0.08422 0.0
C847 C 0.9445 0.48378 0.08529 0.0
C848 C 0.99571 0.50488 0.10053 0.0
C849 C 0.98051 0.49647 0.11779 0.0
C850 C 0.92936 0.47501 0.10242 0.0
C851 C 0.94727 0.48129 0.11865 0.0
C852 C 0.95634 0.44218 0.99677 0.0
C853 C 0.96489 0.50711 0.9907 0.0
C854 C 0.03045 0.53545 0.95504 0.0
C855 C 0.03484 0.55013 0.93679 0.0
C856 C 0.04662 0.5822 0.93569 0.0
C857 C 0.02484 0.53197 0.9205 0.0
C858 C 0.02566 0.54571 0.90336 0.0
C859 C 0.04808 0.59593 0.91861 0.0
C860 C 0.03748 0.57781 0.90254 0.0
C861 C 0.03967 0.56238 0.02079 0.0
H862 H 0.9303 0.4795 0.07298 0.0
H863 H 0.02141 0.5167 0.09986 0.0
H864 H 0.90375 0.46366 0.10313 0.0
H865 H 0.93528 0.47479 0.13191 0.0
H866 H 0.05431 0.59662 0.94805 0.0
H867 H 0.01547 0.50715 0.92116 0.0
H868 H 0.05709 0.62064 0.91787 0.0
H869 H 0.03842 0.5888 0.88943 0.0
Gd870 Gd 0.48479 0.50322 0.98826 0.0
Gd871 Gd 0.51286 0.49198 0.03408 0.0
C872 C 0.61743 0.51829 0.03447 0.0
C873 C 0.61373 0.46789 0.03385 0.0
C874 C 0.56582 0.47171 0.03569 0.0
C875 C 0.58395 0.50375 0.03496 0.0
C876 C 0.58073 0.4536 0.03606 0.0
C877 C 0.63206 0.50021 0.03303 0.0
C878 C 0.63532 0.55049 0.03639 0.0
C879 C 0.61993 0.5672 0.03981 0.0
N880 N 0.56914 0.5207 0.03636 0.0
C881 C 0.58678 0.55187 0.04009 0.0
H882 H 0.57592 0.56549 0.04354 0.0
C883 C 0.51674 0.42828 0.04366 0.0
N884 N 0.53397 0.45847 0.03787 0.0
C885 C 0.53032 0.40935 0.04403 0.0
C886 C 0.5623 0.42186 0.03965 0.0
H887 H 0.49208 0.41842 0.04735 0.0
H888 H 0.65765 0.51104 0.0322 0.0
H889 H 0.41205 0.44143 0.99252 0.0
H890 H 0.66103 0.56247 0.03612 0.0
H891 H 0.63359 0.59196 0.04224 0.0
H892 H 0.62547 0.45427 0.03369 0.0
H893 H 0.52657 0.57264 0.96875 0.0
H894 H 0.34353 0.47037 0.98534 0.0
H895 H 0.35638 0.42916 0.99194 0.0
H896 H 0.40668 0.57552 0.9652 0.0
H897 H 0.51615 0.38517 0.04778 0.0
H898 H 0.57287 0.40721 0.04007 0.0
H899 H 0.36263 0.52534 0.97558 0.0
H900 H 0.51795 0.61373 0.95601 0.0
N901 N 0.43095 0.48958 0.98755 0.0
C902 C 0.3681 0.47597 0.98579 0.0
C903 C 0.37524 0.45264 0.98945 0.0
C904 C 0.39271 0.50592 0.98186 0.0
C905 C 0.42428 0.51199 0.98279 0.0
C906 C 0.40694 0.45976 0.98986 0.0
N907 N 0.47869 0.54437 0.9774 0.0
C908 C 0.44895 0.54024 0.97726 0.0
C909 C 0.49837 0.59328 0.96208 0.0
C910 C 0.46818 0.5901 0.96275 0.0
C911 C 0.5032 0.57 0.96941 0.0
C912 C 0.44292 0.56319 0.97024 0.0
H913 H 0.46451 0.60819 0.9571 0.0
O914 O 0.51015 0.50842 0.96245 0.0
O915 O 0.52337 0.50135 1.00415 0.0
O916 O 0.52763 0.54229 0.02918 0.0
O917 O 0.49567 0.54524 1.00597 0.0
O918 O 0.53739 0.53516 0.9843 0.0
O919 O 0.46136 0.47225 0.96492 0.0
O920 O 0.4871 0.46434 0.05798 0.0
O921 O 0.47072 0.48414 0.01674 0.0
O922 O 0.46633 0.45213 0.99245 0.0
O923 O 0.4938 0.4471 0.01759 0.0
O924 O 0.47083 0.49554 0.04398 0.0
O925 O 0.52504 0.51239 0.06143 0.0
C926 C 0.54751 0.52323 0.99643 0.0
C927 C 0.41176 0.558 0.97027 0.0
C928 C 0.38669 0.52944 0.97618 0.0
C929 C 0.48552 0.48661 0.95392 0.0
C930 C 0.47902 0.49423 0.93539 0.0
C931 C 0.46016 0.508 0.93311 0.0
C932 C 0.49213 0.48799 0.91977 0.0
C933 C 0.48653 0.49571 0.90199 0.0
C934 C 0.4548 0.51588 0.91546 0.0
C935 C 0.46792 0.50979 0.89993 0.0
C936 C 0.51423 0.5566 0.02088 0.0
C937 C 0.45535 0.48996 0.02878 0.0
C938 C 0.50355 0.48722 0.06957 0.0
C939 C 0.51289 0.48008 0.08737 0.0
C940 C 0.5349 0.4698 0.08842 0.0
C941 C 0.5011 0.48592 0.10373 0.0
C942 C 0.51142 0.48173 0.12111 0.0
C943 C 0.54474 0.46501 0.10572 0.0
C944 C 0.53313 0.471 0.12201 0.0
C945 C 0.47608 0.43626 1.00243 0.0
H946 H 0.44942 0.51246 0.94491 0.0
H947 H 0.50648 0.47708 0.9214 0.0
H948 H 0.44028 0.52655 0.9138 0.0
H949 H 0.46333 0.51576 0.88627 0.0
H950 H 0.5448 0.46591 0.07597 0.0
H951 H 0.48443 0.49435 0.10297 0.0
H952 H 0.56169 0.457 0.1065 0.0
H953 H 0.54123 0.46749 0.13532 0.0
Gd954 Gd 0.18296 0.35444 0.36613 0.0
Gd955 Gd 0.15498 0.31306 0.32226 0.0
C956 C 0.05816 0.2272 0.31146 0.0
C957 C 0.07307 0.19119 0.29862 0.0
C958 C 0.11385 0.24284 0.30847 0.0
C959 C 0.09056 0.24967 0.31386 0.0
C960 C 0.10522 0.21373 0.30044 0.0
C961 C 0.04962 0.1979 0.30411 0.0
C962 C 0.03513 0.2349 0.31621 0.0
C963 C 0.04448 0.26452 0.32283 0.0
N964 N 0.09942 0.27837 0.32086 0.0
C965 C 0.07672 0.28614 0.32486 0.0
H966 H 0.08262 0.30864 0.33005 0.0
C967 C 0.16817 0.26052 0.30283 0.0
N968 N 0.14486 0.26514 0.3101 0.0
C969 C 0.1607 0.23205 0.29487 0.0
C970 C 0.12913 0.2084 0.29388 0.0
H971 H 0.19271 0.27847 0.30344 0.0
H972 H 0.02487 0.18042 0.3023 0.0
H973 H 0.24929 0.34978 0.36888 0.0
H974 H 0.01007 0.21825 0.31462 0.0
H975 H 0.02681 0.2708 0.32639 0.0
H976 H 0.06607 0.16869 0.29259 0.0
H977 H 0.1512 0.39803 0.37827 0.0
H978 H 0.32921 0.44175 0.36895 0.0
H979 H 0.30719 0.38496 0.36939 0.0
H980 H 0.28152 0.50539 0.37461 0.0
H981 H 0.17933 0.22838 0.28951 0.0
H982 H 0.1234 0.18637 0.28763 0.0
H983 H 0.31935 0.48667 0.37053 0.0
H984 H 0.16862 0.45349 0.38328 0.0
N985 N 0.23847 0.38615 0.36733 0.0
C986 C 0.30373 0.42639 0.36868 0.0
C987 C 0.2914 0.39436 0.36899 0.0
C988 C 0.28299 0.43819 0.36894 0.0
C989 C 0.25002 0.41716 0.3685 0.0
C990 C 0.2585 0.37447 0.36863 0.0
N991 N 0.19747 0.4065 0.3717 0.0
C992 C 0.22883 0.42768 0.37082 0.0
C993 C 0.18579 0.44657 0.3797 0.0
C994 C 0.2178 0.46888 0.37775 0.0
C995 C 0.17603 0.41525 0.37692 0.0
C996 C 0.23987 0.45952 0.37359 0.0
H997 H 0.22533 0.49312 0.37995 0.0
O998 O 0.16391 0.35494 0.39314 0.0
O999 O 0.1432 0.31129 0.35288 0.0
O1000 O 0.13523 0.34445 0.32876 0.0
O1001 O 0.17341 0.38386 0.3461 0.0
O1002 O 0.13085 0.33765 0.36891 0.0
O1003 O 0.19869 0.34047 0.39073 0.0
O1004 O 0.17576 0.35112 0.30245 0.0
O1005 O 0.19569 0.35214 0.33691 0.0
O1006 O 0.1924 0.31398 0.36488 0.0
O1007 O 0.16999 0.28365 0.33831 0.0
O1008 O 0.20615 0.32544 0.31968 0.0
O1009 O 0.14179 0.30582 0.29286 0.0
C1010 C 0.11974 0.31102 0.36089 0.0
C1011 C 0.27258 0.48078 0.37279 0.0
C1012 C 0.29412 0.47013 0.37046 0.0
C1013 C 0.17993 0.3444 0.40186 0.0
C1014 C 0.19224 0.35752 0.42036 0.0
C1015 C 0.21513 0.38888 0.42257 0.0
C1016 C 0.18007 0.33849 0.43613 0.0
C1017 C 0.19048 0.35091 0.45407 0.0
C1018 C 0.22568 0.4012 0.44032 0.0
C1019 C 0.21342 0.38242 0.45597 0.0
C1020 C 0.15159 0.37416 0.33288 0.0
C1021 C 0.21838 0.34954 0.33032 0.0
C1022 C 0.16178 0.33402 0.28806 0.0
C1023 C 0.18185 0.33805 0.27179 0.0
C1024 C 0.20714 0.33216 0.27317 0.0
C1025 C 0.17578 0.34773 0.25465 0.0
C1026 C 0.19494 0.35138 0.23913 0.0
C1027 C 0.22601 0.33569 0.25781 0.0
C1028 C 0.21996 0.3452 0.24088 0.0
C1029 C 0.1834 0.28831 0.35495 0.0
H1030 H 0.22466 0.40379 0.41059 0.0
H1031 H 0.16238 0.31419 0.43449 0.0
H1032 H 0.24334 0.42544 0.44197 0.0
H1033 H 0.22186 0.39246 0.46961 0.0
H1034 H 0.21241 0.32479 0.28606 0.0
H1035 H 0.15632 0.35235 0.25336 0.0
H1036 H 0.2454 0.33101 0.25904 0.0
H1037 H 0.23483 0.34776 0.22908 0.0
Gd1038 Gd 0.64635 0.82283 0.36644 0.0
Gd1039 Gd 0.6859 0.83884 0.32179 0.0
C1040 C 0.76729 0.82535 0.30209 0.0
C1041 C 0.80526 0.8767 0.29097 0.0
C1042 C 0.75583 0.86729 0.30511 0.0
C1043 C 0.74693 0.83643 0.30769 0.0
C1044 C 0.78515 0.88774 0.29671 0.0
C1045 C 0.79634 0.84558 0.29363 0.0
C1046 C 0.75815 0.79438 0.30544 0.0
C1047 C 0.72966 0.7754 0.31449 0.0
N1048 N 0.71905 0.81757 0.31641 0.0
C1049 C 0.71032 0.78736 0.31984 0.0
H1050 H 0.68866 0.77219 0.3268 0.0
C1051 C 0.74337 0.90729 0.30761 0.0
N1052 N 0.73593 0.87735 0.31083 0.0
C1053 C 0.77227 0.92845 0.29958 0.0
C1054 C 0.79335 0.91868 0.29417 0.0
H1055 H 0.72668 0.91476 0.3109 0.0
H1056 H 0.8122 0.83744 0.28923 0.0
H1057 H 0.64631 0.88949 0.37363 0.0
H1058 H 0.77315 0.78505 0.30137 0.0
H1059 H 0.72251 0.75147 0.31735 0.0
H1060 H 0.8278 0.89206 0.28446 0.0
H1061 H 0.60453 0.74743 0.37851 0.0
H1062 H 0.55053 0.87072 0.37002 0.0
H1063 H 0.60786 0.90803 0.37389 0.0
H1064 H 0.49028 0.75984 0.37112 0.0
H1065 H 0.77801 0.95215 0.29728 0.0
H1066 H 0.81564 0.93506 0.28778 0.0
H1067 H 0.50666 0.81511 0.36853 0.0
H1068 H 0.54823 0.70648 0.38148 0.0
N1069 N 0.61141 0.84248 0.36849 0.0
C1070 C 0.56735 0.8625 0.36975 0.0
C1071 C 0.59967 0.8836 0.37198 0.0
C1072 C 0.55701 0.83081 0.36851 0.0
C1073 C 0.57994 0.82138 0.36828 0.0
C1074 C 0.62145 0.87304 0.3716 0.0
N1075 N 0.59366 0.78258 0.37147 0.0
C1076 C 0.57072 0.79039 0.36996 0.0
C1077 C 0.55423 0.72995 0.37814 0.0
C1078 C 0.53027 0.73719 0.37526 0.0
C1079 C 0.58601 0.75318 0.37663 0.0
C1080 C 0.53837 0.76786 0.37157 0.0
H1081 H 0.50566 0.71918 0.37654 0.0
O1082 O 0.64623 0.80287 0.39304 0.0
O1083 O 0.6902 0.82897 0.3519 0.0
O1084 O 0.65032 0.787 0.32512 0.0
O1085 O 0.61446 0.78447 0.34696 0.0
O1086 O 0.66705 0.7912 0.36847 0.0
O1087 O 0.66004 0.85149 0.3914 0.0
O1088 O 0.66006 0.84525 0.29939 0.0
O1089 O 0.64498 0.83615 0.33738 0.0
O1090 O 0.68531 0.87392 0.36506 0.0
O1091 O 0.71837 0.87985 0.33987 0.0
O1092 O 0.67071 0.87484 0.32121 0.0
O1093 O 0.68185 0.81779 0.29431 0.0
C1094 C 0.69279 0.80708 0.3591 0.0
C1095 C 0.51531 0.77686 0.37021 0.0
C1096 C 0.52463 0.80833 0.36869 0.0
C1097 C 0.65456 0.82843 0.40219 0.0
C1098 C 0.63782 0.82531 0.41956 0.0
C1099 C 0.60505 0.81408 0.4198 0.0
C1100 C 0.65482 0.83194 0.43628 0.0
C1101 C 0.63904 0.82675 0.45329 0.0
C1102 C 0.58931 0.80916 0.43672 0.0
C1103 C 0.60615 0.81529 0.45341 0.0
C1104 C 0.62237 0.77202 0.33342 0.0
C1105 C 0.64612 0.86089 0.33181 0.0
C1106 C 0.66716 0.83097 0.28703 0.0
C1107 C 0.6793 0.84793 0.26951 0.0
C1108 C 0.69603 0.88054 0.26949 0.0
C1109 C 0.67115 0.83184 0.25253 0.0
C1110 C 0.6791 0.84839 0.23577 0.0
C1111 C 0.70542 0.89687 0.25291 0.0
C1112 C 0.69684 0.88091 0.2361 0.0
C1113 C 0.71173 0.89007 0.35527 0.0
H1114 H 0.59164 0.8088 0.40701 0.0
H1115 H 0.68019 0.84058 0.43611 0.0
H1116 H 0.56398 0.80036 0.43689 0.0
H1117 H 0.59361 0.81119 0.46643 0.0
H1118 H 0.70067 0.89352 0.2822 0.0
H1119 H 0.65736 0.80672 0.25231 0.0
H1120 H 0.71838 0.92196 0.25309 0.0
H1121 H 0.70334 0.89396 0.22329 0.0
Gd1122 Gd 0.15901 0.84083 0.32284 0.0
Gd1123 Gd 0.18175 0.82339 0.36856 0.0
C1124 C 0.27599 0.82442 0.37369 0.0
C1125 C 0.25861 0.77058 0.38064 0.0
C1126 C 0.2199 0.78728 0.37611 0.0
C1127 C 0.244 0.81706 0.37281 0.0
C1128 C 0.22689 0.76381 0.38057 0.0
C1129 C 0.28314 0.80087 0.37722 0.0
C1130 C 0.29979 0.85529 0.37127 0.0
C1131 C 0.29136 0.8779 0.36828 0.0
N1132 N 0.23615 0.83909 0.36933 0.0
C1133 C 0.25926 0.86932 0.36743 0.0
H1134 H 0.25304 0.8865 0.36384 0.0
C1135 C 0.16566 0.75427 0.38269 0.0
N1136 N 0.18968 0.7818 0.37623 0.0
C1137 C 0.1712 0.73 0.38694 0.0
C1138 C 0.2019 0.73462 0.38556 0.0
H1139 H 0.14217 0.75102 0.38441 0.0
H1140 H 0.30754 0.80597 0.37771 0.0
H1141 H 0.09341 0.7724 0.3102 0.0
H1142 H 0.32465 0.8619 0.37174 0.0
H1143 H 0.30951 0.90182 0.3662 0.0
H1144 H 0.26446 0.75278 0.38384 0.0
H1145 H 0.1885 0.91672 0.31118 0.0
H1146 H 0.01253 0.78367 0.31482 0.0
H1147 H 0.03604 0.75068 0.30844 0.0
H1148 H 0.05771 0.89309 0.31975 0.0
H1149 H 0.1519 0.70792 0.39151 0.0
H1150 H 0.20625 0.71593 0.38907 0.0
H1151 H 0.02088 0.83689 0.32002 0.0
H1152 H 0.16946 0.954 0.309 0.0
N1153 N 0.1033 0.81742 0.31918 0.0
C1154 C 0.038 0.79344 0.3159 0.0
C1155 C 0.05117 0.77478 0.31224 0.0
C1156 C 0.05806 0.82501 0.31947 0.0
C1157 C 0.09114 0.83665 0.32056 0.0
C1158 C 0.08402 0.78729 0.31365 0.0
N1159 N 0.14342 0.87867 0.31891 0.0
C1160 C 0.11188 0.86831 0.32037 0.0
C1161 C 0.15304 0.93005 0.31241 0.0
C1162 C 0.12119 0.92031 0.31567 0.0
C1163 C 0.16367 0.90874 0.31365 0.0
C1164 C 0.09999 0.88898 0.31916 0.0
H1165 H 0.11297 0.93683 0.31461 0.0
O1166 O 0.1858 0.86772 0.29906 0.0
O1167 O 0.19914 0.84587 0.34108 0.0
O1168 O 0.19567 0.87392 0.36853 0.0
O1169 O 0.1825 0.88581 0.3398 0.0
O1170 O 0.20047 0.83672 0.31349 0.0
O1171 O 0.14842 0.81959 0.29554 0.0
O1172 O 0.15499 0.81145 0.39433 0.0
O1173 O 0.14532 0.82843 0.35236 0.0
O1174 O 0.1407 0.7891 0.32585 0.0
O1175 O 0.16957 0.78257 0.34977 0.0
O1176 O 0.12888 0.79198 0.37057 0.0
O1177 O 0.20245 0.85071 0.39351 0.0
C1178 C 0.21467 0.84035 0.32896 0.0
C1179 C 0.06718 0.87751 0.32022 0.0
C1180 C 0.04621 0.84551 0.3204 0.0
C1181 C 0.16997 0.84477 0.28744 0.0
C1182 C 0.16121 0.8521 0.26946 0.0
C1183 C 0.14283 0.86652 0.26832 0.0
C1184 C 0.17116 0.84405 0.25311 0.0
C1185 C 0.16322 0.85086 0.23567 0.0
C1186 C 0.13498 0.87338 0.251 0.0
C1187 C 0.14516 0.86568 0.23475 0.0
C1188 C 0.19409 0.89355 0.35695 0.0
C1189 C 0.1202 0.80601 0.359 0.0
C1190 C 0.17811 0.83333 0.40383 0.0
C1191 C 0.18496 0.82446 0.42189 0.0
C1192 C 0.20425 0.81102 0.42324 0.0
C1193 C 0.17231 0.82985 0.43802 0.0
C1194 C 0.17931 0.82221 0.45547 0.0
C1195 C 0.21081 0.80297 0.44055 0.0
C1196 C 0.19847 0.80858 0.45662 0.0
C1197 C 0.15093 0.77264 0.33494 0.0
H1198 H 0.13448 0.87236 0.28074 0.0
H1199 H 0.18498 0.83247 0.25392 0.0
H1200 H 0.12086 0.8846 0.25017 0.0
H1201 H 0.13874 0.87103 0.22143 0.0
H1202 H 0.21444 0.80698 0.411 0.0
H1203 H 0.1574 0.84027 0.43707 0.0
H1204 H 0.22566 0.79255 0.44152 0.0
H1205 H 0.20395 0.80242 0.46998 0.0
Gd1206 Gd 0.8484 0.68148 0.69972 0.0
Gd1207 Gd 0.82359 0.64284 0.65385 0.0
C1208 C 0.73027 0.55164 0.64634 0.0
C1209 C 0.74828 0.51709 0.63499 0.0
C1210 C 0.78649 0.57076 0.64262 0.0
C1211 C 0.76213 0.57577 0.64772 0.0
C1212 C 0.77984 0.54155 0.63574 0.0
C1213 C 0.72353 0.52211 0.64033 0.0
C1214 C 0.70615 0.55816 0.65055 0.0
C1215 C 0.7141 0.58828 0.65557 0.0
N1216 N 0.7695 0.60463 0.65326 0.0
C1217 C 0.74605 0.61136 0.65665 0.0
H1218 H 0.75201 0.63393 0.66171 0.0
C1219 C 0.84119 0.59201 0.63656 0.0
N1220 N 0.81667 0.59495 0.6435 0.0
C1221 C 0.83577 0.56353 0.62954 0.0
C1222 C 0.80501 0.53808 0.62932 0.0
H1223 H 0.86501 0.61152 0.63643 0.0
H1224 H 0.69924 0.50322 0.63932 0.0
H1225 H 0.91789 0.68108 0.70387 0.0
H1226 H 0.6814 0.54025 0.64978 0.0
H1227 H 0.6957 0.59363 0.65896 0.0
H1228 H 0.74272 0.4944 0.62992 0.0
H1229 H 0.81402 0.72197 0.71551 0.0
H1230 H 0.99367 0.77474 0.70228 0.0
H1231 H 0.97485 0.71863 0.7037 0.0
H1232 H 0.941 0.83322 0.70935 0.0
H1233 H 0.85534 0.56124 0.62431 0.0
H1234 H 0.80089 0.51606 0.62387 0.0
H1235 H 0.98072 0.81738 0.70391 0.0
H1236 H 0.82937 0.77651 0.72153 0.0
N1237 N 0.90376 0.71516 0.7012 0.0
C1238 C 0.96842 0.75827 0.70218 0.0
C1239 C 0.9579 0.72665 0.70302 0.0
C1240 C 0.94624 0.76831 0.70248 0.0
C1241 C 0.91359 0.7459 0.7023 0.0
C1242 C 0.92533 0.70532 0.70287 0.0
N1243 N 0.8601 0.73265 0.70644 0.0
C1244 C 0.89117 0.75488 0.70525 0.0
C1245 C 0.84692 0.77081 0.71677 0.0
C1246 C 0.87821 0.79421 0.71398 0.0
C1247 C 0.83838 0.73996 0.71338 0.0
C1248 C 0.90094 0.78638 0.70858 0.0
H1249 H 0.88481 0.81811 0.71668 0.0
O1250 O 0.8214 0.67612 0.72487 0.0
O1251 O 0.80679 0.64875 0.68171 0.0
O1252 O 0.81229 0.68162 0.65484 0.0
O1253 O 0.82646 0.70592 0.68379 0.0
O1254 O 0.80817 0.63589 0.70868 0.0
O1255 O 0.86626 0.67626 0.72614 0.0
O1256 O 0.8502 0.66183 0.62836 0.0
O1257 O 0.86179 0.68181 0.67018 0.0
O1258 O 0.86533 0.64684 0.69527 0.0
O1259 O 0.8336 0.6118 0.67233 0.0
O1260 O 0.87557 0.65917 0.65153 0.0
O1261 O 0.80078 0.64864 0.6294 0.0
C1262 C 0.79214 0.62753 0.69363 0.0
C1263 C 0.93318 0.80889 0.70722 0.0
C1264 C 0.95579 0.79987 0.7041 0.0
C1265 C 0.84194 0.67362 0.7354 0.0
C1266 C 0.84851 0.68794 0.75393 0.0
C1267 C 0.86789 0.72003 0.75628 0.0
C1268 C 0.83632 0.6688 0.76962 0.0
C1269 C 0.84376 0.68169 0.7876 0.0
C1270 C 0.87496 0.73294 0.77411 0.0
C1271 C 0.86306 0.71393 0.78968 0.0
C1272 C 0.81493 0.70307 0.66669 0.0
C1273 C 0.88571 0.68173 0.66324 0.0
C1274 C 0.82601 0.65921 0.61912 0.0
C1275 C 0.8217 0.64649 0.60018 0.0
C1276 C 0.80834 0.61452 0.59722 0.0
C1277 C 0.83135 0.66657 0.58485 0.0
C1278 C 0.82792 0.65464 0.56671 0.0
C1279 C 0.8051 0.60269 0.57927 0.0
C1280 C 0.81487 0.62259 0.56408 0.0
C1281 C 0.85164 0.61883 0.68747 0.0
H1282 H 0.87778 0.73503 0.74439 0.0
H1283 H 0.82148 0.64392 0.76788 0.0
H1284 H 0.88992 0.75774 0.77587 0.0
H1285 H 0.86896 0.72434 0.8034 0.0
H1286 H 0.80028 0.59866 0.6087 0.0
H1287 H 0.8414 0.6913 0.58697 0.0
H1288 H 0.79484 0.57798 0.57711 0.0
H1289 H 0.81197 0.61299 0.55022 0.0
Gd1290 Gd 0.31209 0.15981 0.69755 0.0
Gd1291 Gd 0.35734 0.17639 0.65401 0.0
C1292 C 0.4443 0.16397 0.65606 0.0
C1293 C 0.48762 0.21707 0.65357 0.0
C1294 C 0.43287 0.20564 0.6524 0.0
C1295 C 0.42238 0.17462 0.65499 0.0
C1296 C 0.46557 0.22707 0.65082 0.0
C1297 C 0.47698 0.1855 0.65618 0.0
C1298 C 0.43276 0.13202 0.65587 0.0
C1299 C 0.40024 0.11168 0.65375 0.0
N1300 N 0.39068 0.15455 0.65457 0.0
C1301 C 0.37943 0.12338 0.65306 0.0
H1302 H 0.35437 0.10723 0.65168 0.0
C1303 C 0.41978 0.24258 0.6418 0.0
N1304 N 0.41088 0.21418 0.64922 0.0
C1305 C 0.4519 0.26496 0.64036 0.0
C1306 C 0.47496 0.2574 0.64538 0.0
H1307 H 0.40195 0.24806 0.63737 0.0
H1308 H 0.49418 0.17783 0.65736 0.0
H1309 H 0.30199 0.22162 0.69635 0.0
H1310 H 0.44879 0.12287 0.6566 0.0
H1311 H 0.3911 0.08693 0.653 0.0
H1312 H 0.51288 0.23328 0.65273 0.0
H1313 H 0.28195 0.08775 0.71386 0.0
H1314 H 0.20301 0.19058 0.70064 0.0
H1315 H 0.2583 0.23304 0.69646 0.0
H1316 H 0.15859 0.08372 0.71693 0.0
H1317 H 0.45884 0.28784 0.63519 0.0
H1318 H 0.49985 0.27459 0.64399 0.0
H1319 H 0.16588 0.13463 0.70829 0.0
H1320 H 0.23058 0.04493 0.72442 0.0
N1321 N 0.27178 0.17285 0.69848 0.0
C1322 C 0.22211 0.18537 0.7002 0.0
C1323 C 0.25326 0.20939 0.69789 0.0
C1324 C 0.21627 0.15521 0.70307 0.0
C1325 C 0.24199 0.14967 0.70221 0.0
C1326 C 0.27799 0.20275 0.69759 0.0
N1327 N 0.26353 0.11724 0.70685 0.0
C1328 C 0.23783 0.12107 0.70694 0.0
C1329 C 0.23225 0.06618 0.71947 0.0
C1330 C 0.20535 0.0694 0.71905 0.0
C1331 C 0.26135 0.09052 0.71341 0.0
C1332 C 0.20793 0.09714 0.71282 0.0
H1333 H 0.18282 0.05049 0.72374 0.0
O1334 O 0.32686 0.15134 0.72431 0.0
O1335 O 0.35523 0.16412 0.68377 0.0
O1336 O 0.31759 0.12542 0.65566 0.0
O1337 O 0.28124 0.11961 0.67857 0.0
O1338 O 0.33264 0.12863 0.70236 0.0
O1339 O 0.32148 0.19158 0.72055 0.0
O1340 O 0.35185 0.19272 0.62707 0.0
O1341 O 0.31448 0.17244 0.6677 0.0
O1342 O 0.34566 0.21146 0.69408 0.0
O1343 O 0.38429 0.21908 0.67214 0.0
O1344 O 0.33688 0.20759 0.64861 0.0
O1345 O 0.34809 0.14776 0.62959 0.0
C1346 C 0.35668 0.14197 0.69149 0.0
C1347 C 0.18185 0.10195 0.71271 0.0
C1348 C 0.18598 0.13091 0.70775 0.0
C1349 C 0.32727 0.17505 0.73221 0.0
C1350 C 0.31186 0.16927 0.75032 0.0
C1351 C 0.27886 0.15615 0.75172 0.0
C1352 C 0.33039 0.1762 0.76645 0.0
C1353 C 0.3159 0.16954 0.78393 0.0
C1354 C 0.26442 0.14954 0.7691 0.0
C1355 C 0.28281 0.15611 0.78517 0.0
C1356 C 0.28909 0.10962 0.6635 0.0
C1357 C 0.31296 0.19437 0.65964 0.0
C1358 C 0.3483 0.16826 0.61838 0.0
C1359 C 0.36633 0.17365 0.6013 0.0
C1360 C 0.39885 0.1835 0.60172 0.0
C1361 C 0.35048 0.16829 0.58427 0.0
C1362 C 0.367 0.17259 0.56765 0.0
C1363 C 0.4154 0.18805 0.58514 0.0
C1364 C 0.39957 0.18261 0.56814 0.0
C1365 C 0.37376 0.22853 0.68624 0.0
H1366 H 0.26431 0.15103 0.73945 0.0
H1367 H 0.35595 0.18655 0.76544 0.0
H1368 H 0.23893 0.13933 0.77011 0.0
H1369 H 0.27133 0.15093 0.79859 0.0
H1370 H 0.41132 0.18748 0.61478 0.0
H1371 H 0.32531 0.16059 0.58392 0.0
H1372 H 0.4405 0.19569 0.58548 0.0
H1373 H 0.41262 0.18613 0.55536 0.0
Gd1374 Gd 0.82143 0.17321 0.65682 0.0
Gd1375 Gd 0.85042 0.16049 0.70139 0.0
C1376 C 0.95932 0.21399 0.70646 0.0
C1377 C 0.97287 0.176 0.69547 0.0
C1378 C 0.91754 0.16245 0.69827 0.0
C1379 C 0.92677 0.19226 0.70379 0.0
C1380 C 0.94051 0.15354 0.69504 0.0
C1381 C 0.98229 0.2062 0.70134 0.0
C1382 C 0.96772 0.24224 0.7151 0.0
C1383 C 0.94395 0.24714 0.72219 0.0
N1384 N 0.90386 0.1987 0.7089 0.0
C1385 C 0.91212 0.22455 0.71955 0.0
H1386 H 0.89426 0.22793 0.72618 0.0
C1387 C 0.87708 0.11035 0.69998 0.0
N1388 N 0.88621 0.1412 0.69888 0.0
C1389 C 0.89872 0.10028 0.69644 0.0
C1390 C 0.93044 0.12201 0.69318 0.0
H1391 H 0.85283 0.09307 0.703 0.0
H1392 H 0.00737 0.22287 0.70278 0.0
H1393 H 0.75041 0.1112 0.66383 0.0
H1394 H 0.9924 0.25957 0.71735 0.0
H1395 H 0.95009 0.26804 0.72997 0.0
H1396 H 0.99081 0.16974 0.69258 0.0
H1397 H 0.85913 0.24062 0.63499 0.0
H1398 H 0.67894 0.13648 0.65797 0.0
H1399 H 0.69412 0.09689 0.66465 0.0
H1400 H 0.73782 0.24099 0.63598 0.0
H1401 H 0.89092 0.07576 0.69634 0.0
H1402 H 0.94729 0.11421 0.6907 0.0
H1403 H 0.69565 0.19075 0.64766 0.0
H1404 H 0.84806 0.28028 0.62239 0.0
N1405 N 0.76727 0.15844 0.65789 0.0
C1406 C 0.70373 0.14283 0.65777 0.0
C1407 C 0.71218 0.12043 0.66149 0.0
C1408 C 0.72734 0.17287 0.6531 0.0
C1409 C 0.75926 0.17992 0.65318 0.0
C1410 C 0.74417 0.12859 0.6611 0.0
N1411 N 0.81267 0.21268 0.64584 0.0
C1412 C 0.78283 0.20808 0.64687 0.0
C1413 C 0.82954 0.2602 0.62939 0.0
C1414 C 0.79937 0.25672 0.63142 0.0
C1415 C 0.83577 0.23774 0.63663 0.0
C1416 C 0.77538 0.23013 0.63997 0.0
H1417 H 0.79459 0.27414 0.62582 0.0
O1418 O 0.84621 0.18124 0.63047 0.0
O1419 O 0.86076 0.17013 0.67137 0.0
O1420 O 0.86075 0.2104 0.69979 0.0
O1421 O 0.83493 0.21659 0.67409 0.0
O1422 O 0.87335 0.20782 0.65444 0.0
O1423 O 0.79897 0.14242 0.63326 0.0
O1424 O 0.82346 0.11915 0.71803 0.0
O1425 O 0.8075 0.15369 0.68531 0.0
O1426 O 0.80463 0.12195 0.65869 0.0
O1427 O 0.83058 0.11622 0.68425 0.0
O1428 O 0.81205 0.16872 0.71233 0.0
O1429 O 0.8539 0.164 0.73159 0.0
C1430 C 0.8843 0.19425 0.66472 0.0
C1431 C 0.74397 0.22416 0.64095 0.0
C1432 C 0.71996 0.19556 0.64758 0.0
C1433 C 0.82241 0.15833 0.62204 0.0
C1434 C 0.81423 0.16514 0.6037 0.0
C1435 C 0.79379 0.17725 0.60196 0.0
C1436 C 0.82709 0.15955 0.5877 0.0
C1437 C 0.81969 0.16631 0.57009 0.0
C1438 C 0.78675 0.18431 0.5845 0.0
C1439 C 0.79963 0.1789 0.56861 0.0
C1440 C 0.85111 0.22673 0.68997 0.0
C1441 C 0.79442 0.16168 0.69781 0.0
C1442 C 0.83346 0.13464 0.73353 0.0
C1443 C 0.82371 0.11974 0.75183 0.0
C1444 C 0.80699 0.08725 0.75296 0.0
C1445 C 0.82853 0.13756 0.76803 0.0
C1446 C 0.81565 0.12286 0.78504 0.0
C1447 C 0.79484 0.0727 0.76988 0.0
C1448 C 0.79887 0.09033 0.78579 0.0
C1449 C 0.81327 0.10553 0.66898 0.0
H1450 H 0.78308 0.18102 0.61404 0.0
H1451 H 0.84258 0.14982 0.5889 0.0
H1452 H 0.77105 0.19375 0.58328 0.0
H1453 H 0.79366 0.18416 0.55512 0.0
H1454 H 0.8029 0.07304 0.7407 0.0
H1455 H 0.84124 0.16266 0.76736 0.0
H1456 H 0.78187 0.04765 0.77062 0.0
H1457 H 0.78887 0.07858 0.79876 0.0
C1458 C 0.38609 0.88865 0.03599 0.0
C1459 C 0.36655 0.89986 0.043 0.0
C1460 C 0.40816 0.95334 0.03695 0.0
C1461 C 0.42858 0.94248 0.03051 0.0
N1462 N 0.43848 0.89991 0.02663 0.0
N1463 N 0.35528 0.94145 0.04606 0.0
C1464 C 0.41777 0.91009 0.03058 0.0
C1465 C 0.37644 0.93178 0.04213 0.0
N1466 N 0.37401 0.85739 0.03416 0.0
N1467 N 0.41999 0.98429 0.03992 0.0
H1468 H 0.33209 0.92637 0.05035 0.0
H1469 H 0.35968 0.96383 0.04352 0.0
H1470 H 0.44281 0.00106 0.03617 0.0
H1471 H 0.40799 0.99341 0.04715 0.0
H1472 H 0.38545 0.84752 0.02711 0.0
H1473 H 0.35111 0.84112 0.03832 0.0
H1474 H 0.43374 0.87736 0.02881 0.0
H1475 H 0.46132 0.91457 0.02188 0.0
C1476 C 0.10161 0.48826 0.04362 0.0
C1477 C 0.0984 0.45865 0.04078 0.0
C1478 C 0.04819 0.44196 0.02409 0.0
C1479 C 0.05236 0.47225 0.02597 0.0
N1480 N 0.08874 0.52634 0.03296 0.0
N1481 N 0.07271 0.40982 0.02441 0.0
C1482 C 0.08086 0.49607 0.03423 0.0
C1483 C 0.07287 0.43621 0.02983 0.0
N1484 N 0.12333 0.50851 0.05615 0.0
N1485 N 0.0205 0.41853 0.01685 0.0
H1486 H 0.09066 0.40516 0.02808 0.0
H1487 H 0.05654 0.39406 0.01485 0.0
H1488 H 0.00296 0.42219 0.01111 0.0
H1489 H 0.0144 0.3953 0.01723 0.0
H1490 H 0.12413 0.52893 0.06035 0.0
H1491 H 0.13838 0.50353 0.06385 0.0
H1492 H 0.11081 0.5447 0.03695 0.0
H1493 H 0.07508 0.53337 0.02576 0.0
C1494 C 0.54185 0.6427 0.02371 0.0
C1495 C 0.55431 0.64966 0.04199 0.0
C1496 C 0.5317 0.59422 0.04797 0.0
C1497 C 0.52214 0.58764 0.02905 0.0
N1498 N 0.49947 0.60422 1.00515 0.0
N1499 N 0.56179 0.63221 0.07182 0.0
C1500 C 0.52214 0.61138 0.01834 0.0
C1501 C 0.54955 0.62546 0.05421 0.0
N1502 N 0.54883 0.666 0.01138 0.0
N1503 N 0.51977 0.57052 0.06043 0.0
H1504 H 0.57274 0.65445 0.07753 0.0
H1505 H 0.56286 0.61604 0.08046 0.0
H1506 H 0.50195 0.54838 0.0567 0.0
H1507 H 0.52353 0.57338 0.0747 0.0
H1508 H 0.54247 0.66175 0.99739 0.0
H1509 H 0.56352 0.68937 0.01475 0.0
H1510 H 0.4968 0.621 0.99808 0.0
H1511 H 0.47972 0.58217 1.0043 0.0
C1512 C 0.91921 0.37497 0.96133 0.0
C1513 C 0.89838 0.34999 0.97279 0.0
C1514 C 0.90803 0.38664 0.99812 0.0
C1515 C 0.93245 0.41124 0.98783 0.0
N1516 N 0.94594 0.43013 0.95647 0.0
N1517 N 0.87716 0.3314 1.00322 0.0
C1518 C 0.93426 0.40582 0.9685 0.0
C1519 C 0.89434 0.35566 0.99156 0.0
N1520 N 0.92453 0.36941 0.94348 0.0
N1521 N 0.8934 0.39298 0.01207 0.0
H1522 H 0.86681 0.30831 0.99892 0.0
H1523 H 0.87601 0.33438 0.01748 0.0
H1524 H 0.89618 0.41491 0.01353 0.0
H1525 H 0.87368 0.37585 0.01902 0.0
H1526 H 0.94276 0.38599 0.93535 0.0
H1527 H 0.91239 0.34763 0.93718 0.0
H1528 H 0.94538 0.42778 0.94209 0.0
H1529 H 0.95163 0.45224 0.96068 0.0
C1530 C 0.63712 0.56428 0.98907 0.0
C1531 C 0.63996 0.54057 0.97984 0.0
C1532 C 0.58505 0.50328 0.98847 0.0
C1533 C 0.58035 0.52789 0.99461 0.0
N1534 N 0.60221 0.58298 0.99912 0.0
N1535 N 0.61398 0.48823 0.96772 0.0
C1536 C 0.60654 0.55874 0.99441 0.0
C1537 C 0.61329 0.51019 0.97884 0.0
N1538 N 0.66372 0.59179 0.99329 0.0
N1539 N 0.56286 0.47323 0.99181 0.0
H1540 H 0.63347 0.49252 0.95963 0.0
H1541 H 0.59397 0.46679 0.96494 0.0
H1542 H 0.54248 0.46712 0.99928 0.0
H1543 H 0.56663 0.45472 0.98926 0.0
H1544 H 0.66336 0.60876 1.00162 0.0
H1545 H 0.68655 0.59629 0.99013 0.0
H1546 H 0.61938 0.60607 0.99699 0.0
H1547 H 0.58094 0.57996 1.00445 0.0
C1548 C 0.49038 0.10843 0.97554 0.0
C1549 C 0.45995 0.10519 0.97794 0.0
C1550 C 0.4446 0.06039 0.998 0.0
C1551 C 0.47581 0.06515 0.99675 0.0
N1552 N 0.53039 0.09822 0.98795 0.0
N1553 N 0.41067 0.08279 0.99485 0.0
C1554 C 0.49936 0.09072 0.98672 0.0
C1555 C 0.43778 0.08257 0.99022 0.0
N1556 N 0.51014 0.12722 0.96195 0.0
N1557 N 0.4212 0.03424 1.00608 0.0
H1558 H 0.40511 0.09903 0.98968 0.0
H1559 H 0.39523 0.06878 1.00516 0.0
H1560 H 0.42556 0.01779 0.01201 0.0
H1561 H 0.39727 0.02777 1.00556 0.0
H1562 H 0.53119 0.12788 0.95835 0.0
H1563 H 0.50407 0.13986 0.95301 0.0
H1564 H 0.54905 0.11841 0.98242 0.0
H1565 H 0.53766 0.08566 0.99604 0.0
C1566 C 0.6121 0.08555 0.96241 0.0
C1567 C 0.63924 0.10288 0.97388 0.0
C1568 C 0.6046 0.08681 1.00094 0.0
C1569 C 0.5799 0.06368 0.99031 0.0
N1570 N 0.55469 0.05875 0.96116 0.0
N1571 N 0.66091 0.12037 1.00475 0.0
C1572 C 0.58192 0.06778 0.97089 0.0
C1573 C 0.63542 0.10366 0.99336 0.0
N1574 N 0.61501 0.08589 0.94355 0.0
N1575 N 0.59695 0.09832 0.01578 0.0
H1576 H 0.68412 0.133 0.99985 0.0
H1577 H 0.65878 0.11958 0.01918 0.0
H1578 H 0.57316 0.09052 0.01846 0.0
H1579 H 0.61345 0.11825 0.02289 0.0
H1580 H 0.5965 0.07098 0.93478 0.0
H1581 H 0.63637 0.0999 0.93675 0.0
H1582 H 0.554 0.06326 0.94711 0.0
H1583 H 0.53324 0.05073 0.96815 0.0
C1584 C 0.9299 0.55806 0.97709 0.0
C1585 C 0.89699 0.53612 0.97668 0.0
C1586 C 0.90798 0.49563 0.98712 0.0
C1587 C 0.941 0.51771 0.98853 0.0
N1588 N 0.98243 0.57133 0.98779 0.0
N1589 N 0.85406 0.48623 0.98562 0.0
C1590 C 0.9516 0.5494 0.98446 0.0
C1591 C 0.88587 0.50564 0.98314 0.0
N1592 N 0.94057 0.58687 0.96975 0.0
N1593 N 0.89766 0.4648 0.98872 0.0
H1594 H 0.83719 0.49272 0.98263 0.0
H1595 H 0.84471 0.46495 0.99232 0.0
H1596 H 0.91291 0.45654 0.99155 0.0
H1597 H 0.87453 0.44741 0.98576 0.0
H1598 H 0.96444 0.60269 0.96745 0.0
H1599 H 0.92537 0.5943 0.96475 0.0
H1600 H 0.99104 0.59508 0.98703 0.0
H1601 H 0.99873 0.56574 0.99313 0.0
C1602 C 0.47504 0.37636 0.96893 0.0
C1603 C 0.45285 0.34845 0.97768 0.0
C1604 C 0.44967 0.37775 1.00424 0.0
C1605 C 0.46939 0.40584 0.99467 0.0
N1606 N 0.5002 0.43215 0.96751 0.0
N1607 N 0.4166 0.32168 1.00259 0.0
C1608 C 0.48189 0.40517 0.9769 0.0
C1609 C 0.43954 0.34889 0.99507 0.0
N1610 N 0.49023 0.37529 0.95321 0.0
N1611 N 0.44096 0.37856 0.02214 0.0
H1612 H 0.40932 0.30008 0.99651 0.0
H1613 H 0.40317 0.32048 0.0141 0.0
H1614 H 0.44737 0.39908 0.0292 0.0
H1615 H 0.42962 0.35911 0.03056 0.0
H1616 H 0.50967 0.39456 0.94749 0.0
H1617 H 0.48489 0.35468 0.94644 0.0
H1618 H 0.50601 0.43308 0.95354 0.0
H1619 H 0.5086 0.454 0.97337 0.0
C1620 C 0.08869 0.64962 0.0302 0.0
C1621 C 0.10741 0.65072 0.04569 0.0
C1622 C 0.07935 0.59387 0.04582 0.0
C1623 C 0.06354 0.59293 0.02898 0.0
N1624 N 0.06084 0.62129 1.00258 0.0
N1625 N 0.12671 0.62333 0.06437 0.0
C1626 C 0.07064 0.62122 0.02031 0.0
C1627 C 0.1045 0.62267 0.05243 0.0
N1628 N 0.08688 0.67518 0.02536 0.0
N1629 N 0.07062 0.56744 0.05565 0.0
H1630 H 0.14672 0.64385 0.06862 0.0
H1631 H 0.12723 0.60345 0.06825 0.0
H1632 H 0.05324 0.54557 0.05115 0.0
H1633 H 0.07916 0.56764 0.06896 0.0
H1634 H 0.07131 0.67462 0.0152 0.0
H1635 H 0.09818 0.69591 0.03286 0.0
H1636 H 0.06761 0.64161 0.99521 0.0
H1637 H 0.0494 0.60128 0.99452 0.0
C1638 C 0.36801 0.4386 0.04056 0.0
C1639 C 0.35763 0.46057 0.04105 0.0
C1640 C 0.41006 0.5012 0.03088 0.0
C1641 C 0.42053 0.47918 0.02959 0.0
N1642 N 0.40726 0.42566 0.03019 0.0
N1643 N 0.36559 0.51035 0.03195 0.0
C1644 C 0.39866 0.44743 0.03341 0.0
C1645 C 0.37762 0.49103 0.03454 0.0
N1646 N 0.34913 0.40969 0.04773 0.0
N1647 N 0.43135 0.53211 0.02979 0.0
H1648 H 0.34199 0.50368 0.03474 0.0
H1649 H 0.37807 0.53167 0.02532 0.0
H1650 H 0.45533 0.54059 0.02779 0.0
H1651 H 0.42574 0.54934 0.03259 0.0
H1652 H 0.35675 0.39381 0.04998 0.0
H1653 H 0.32624 0.40216 0.05258 0.0
H1654 H 0.39164 0.40187 0.03077 0.0
H1655 H 0.42945 0.43153 0.02508 0.0
C1656 C 0.53564 0.90096 0.05086 0.0
C1657 C 0.56204 0.90222 0.04179 0.0
C1658 C 0.56323 0.94002 0.01953 0.0
C1659 C 0.53756 0.93981 0.0291 0.0
N1660 N 0.5013 0.92238 0.05498 0.0
N1661 N 0.60258 0.92345 0.01843 0.0
C1662 C 0.52429 0.92084 0.04503 0.0
C1663 C 0.57623 0.92182 0.02631 0.0
N1664 N 0.52095 0.88021 0.06491 0.0
N1665 N 0.57535 0.95787 1.00406 0.0
H1666 H 0.61188 0.90956 0.02262 0.0
H1667 H 0.61633 0.93937 0.00834 0.0
H1668 H 0.56833 0.97337 0.99961 0.0
H1669 H 0.59144 0.9567 0.9951 0.0
H1670 H 0.49886 0.87464 0.07023 0.0
H1671 H 0.52988 0.86696 0.07071 0.0
H1672 H 0.4942 0.91328 0.06822 0.0
H1673 H 0.49006 0.93403 0.05034 0.0
C1674 C 0.03933 0.26603 0.38513 0.0
C1675 C 0.02715 0.23574 0.37814 0.0
C1676 C 0.0775 0.25176 0.36214 0.0
C1677 C 0.08946 0.28302 0.3683 0.0
N1678 N 0.0867 0.31065 0.39538 0.0
N1679 N 0.03194 0.19995 0.35795 0.0
C1680 C 0.07163 0.28805 0.38228 0.0
C1681 C 0.04546 0.22869 0.366 0.0
N1682 N 0.02046 0.27363 0.39528 0.0
N1683 N 0.09757 0.24303 0.35484 0.0
H1684 H 0.00859 0.18276 0.36059 0.0
H1685 H 0.04264 0.19403 0.34745 0.0
H1686 H 0.12167 0.25793 0.35463 0.0
H1687 H 0.0912 0.22028 0.35156 0.0
H1688 H 0.02739 0.29642 0.39896 0.0
H1689 H 0.99693 0.25777 0.39851 0.0
H1690 H 0.07519 0.31446 0.40638 0.0
H1691 H 0.11068 0.32007 0.39801 0.0
C1692 C 0.74377 0.78829 0.39068 0.0
C1693 C 0.76915 0.79342 0.37881 0.0
C1694 C 0.75214 0.82041 0.35716 0.0
C1695 C 0.72316 0.80903 0.3668 0.0
N1696 N 0.70842 0.80691 0.39852 0.0
N1697 N 0.79714 0.81409 0.35006 0.0
C1698 C 0.72303 0.79913 0.38526 0.0
C1699 C 0.7733 0.8095 0.36187 0.0
N1700 N 0.74009 0.77441 0.40753 0.0
N1701 N 0.76249 0.8458 0.34636 0.0
H1702 H 0.81264 0.80578 0.35272 0.0
H1703 H 0.79974 0.82397 0.33699 0.0
H1704 H 0.7493 0.85674 0.34491 0.0
H1705 H 0.78546 0.85793 0.34106 0.0
H1706 H 0.7197 0.76687 0.4155 0.0
H1707 H 0.75653 0.76915 0.41321 0.0
H1708 H 0.70865 0.80253 0.41263 0.0
H1709 H 0.70285 0.82401 0.39554 0.0
C1710 C 0.24525 0.97657 0.37598 0.0
C1711 C 0.22481 0.98856 0.37302 0.0
C1712 C 0.18381 0.93835 0.36073 0.0
C1713 C 0.20414 0.92581 0.36386 0.0
N1714 N 0.24891 0.93131 0.38217 0.0
N1715 N 0.17739 0.98367 0.35948 0.0
C1716 C 0.2336 0.9444 0.37345 0.0
C1717 C 0.19488 0.97025 0.36446 0.0
N1718 N 0.276 0.99605 0.38134 0.0
N1719 N 0.15264 0.91898 0.3563 0.0
H1720 H 0.18478 0.00688 0.36227 0.0
H1721 H 0.15716 0.97277 0.35114 0.0
H1722 H 0.14294 0.89524 0.3545 0.0
H1723 H 0.13553 0.9257 0.3563 0.0
H1724 H 0.29327 0.98952 0.38147 0.0
H1725 H 0.28513 0.01969 0.38375 0.0
H1726 H 0.26931 0.94377 0.39022 0.0
H1727 H 0.23858 0.90787 0.3847 0.0
C1728 C 0.55208 0.7044 0.30922 0.0
C1729 C 0.55965 0.68047 0.31077 0.0
C1730 C 0.60745 0.71581 0.32882 0.0
C1731 C 0.59914 0.73936 0.32759 0.0
N1732 N 0.55565 0.74948 0.32382 0.0
N1733 N 0.59061 0.66107 0.32571 0.0
C1734 C 0.56909 0.73177 0.32001 0.0
C1735 C 0.58638 0.68553 0.32155 0.0
N1736 N 0.52934 0.70163 0.29694 0.0
N1737 N 0.6348 0.72198 0.33772 0.0
H1738 H 0.5751 0.63848 0.32122 0.0
H1739 H 0.60782 0.66246 0.33489 0.0
H1740 H 0.64778 0.74183 0.34581 0.0
H1741 H 0.64478 0.70777 0.33689 0.0
H1742 H 0.52524 0.71984 0.29407 0.0
H1743 H 0.51704 0.6825 0.28818 0.0
H1744 H 0.53247 0.74301 0.31994 0.0
H1745 H 0.56574 0.76836 0.3328 0.0
C1746 C 0.29261 0.84073 0.32275 0.0
C1747 C 0.31152 0.87087 0.31555 0.0
C1748 C 0.27035 0.88355 0.32356 0.0
C1749 C 0.24946 0.85193 0.32823 0.0
N1750 N 0.24015 0.7997 0.33056 0.0
N1751 N 0.31907 0.92127 0.30847 0.0
C1752 C 0.26056 0.83039 0.32749 0.0
C1753 C 0.30078 0.89255 0.31604 0.0
N1754 N 0.30542 0.82201 0.32515 0.0
N1755 N 0.26097 0.90494 0.32619 0.0
H1756 H 0.34188 0.92896 0.30343 0.0
H1757 H 0.31115 0.9369 0.30617 0.0
H1758 H 0.23862 0.8991 0.33109 0.0
H1759 H 0.27606 0.92876 0.32508 0.0
H1760 H 0.29399 0.80106 0.33224 0.0
H1761 H 0.32876 0.82879 0.32157 0.0
H1762 H 0.2455 0.78229 0.32777 0.0
H1763 H 0.21719 0.79149 0.33517 0.0
C1764 C 0.14464 0.44695 0.3241 0.0
C1765 C 0.11667 0.43404 0.31325 0.0
C1766 C 0.11486 0.38429 0.31221 0.0
C1767 C 0.14198 0.39606 0.32429 0.0
N1768 N 0.18954 0.44311 0.33435 0.0
N1769 N 0.07064 0.3892 0.30103 0.0
C1770 C 0.15867 0.42861 0.32849 0.0
C1771 C 0.10031 0.40228 0.30874 0.0
N1772 N 0.15771 0.47683 0.33038 0.0
N1773 N 0.10531 0.35796 0.30192 0.0
H1774 H 0.05944 0.40193 0.2981 0.0
H1775 H 0.0559 0.36533 0.29946 0.0
H1776 H 0.11895 0.34752 0.30026 0.0
H1777 H 0.08706 0.34975 0.29213 0.0
H1778 H 0.17543 0.48635 0.3405 0.0
H1779 H 0.14875 0.49127 0.32683 0.0
H1780 H 0.20374 0.46704 0.33573 0.0
H1781 H 0.20292 0.43231 0.33523 0.0
C1782 C 0.30622 0.38794 0.31841 0.0
C1783 C 0.31402 0.41903 0.31533 0.0
C1784 C 0.25971 0.40568 0.32254 0.0
C1785 C 0.25192 0.37483 0.32707 0.0
N1786 N 0.27047 0.33873 0.3328 0.0
N1787 N 0.30107 0.45927 0.31994 0.0
C1788 C 0.27609 0.36664 0.32607 0.0
C1789 C 0.29176 0.42846 0.3194 0.0
N1790 N 0.32705 0.37842 0.31333 0.0
N1791 N 0.23669 0.41298 0.31923 0.0
H1792 H 0.32445 0.47664 0.31757 0.0
H1793 H 0.28631 0.46742 0.32467 0.0
H1794 H 0.21274 0.39703 0.31976 0.0
H1795 H 0.24149 0.43417 0.31364 0.0
H1796 H 0.3212 0.35525 0.31313 0.0
H1797 H 0.34956 0.39353 0.30809 0.0
H1798 H 0.28809 0.3328 0.33416 0.0
H1799 H 0.24899 0.32271 0.33881 0.0
C1800 C 0.59857 0.90055 0.3197 0.0
C1801 C 0.5696 0.87534 0.31313 0.0
C1802 C 0.59066 0.84051 0.31806 0.0
C1803 C 0.61798 0.86452 0.32719 0.0
N1804 N 0.64582 0.91739 0.33832 0.0
N1805 N 0.53543 0.82003 0.3103 0.0
C1806 C 0.62121 0.89456 0.32848 0.0
C1807 C 0.56476 0.84493 0.31383 0.0
N1808 N 0.60521 0.93031 0.31677 0.0
N1809 N 0.59038 0.8148 0.31132 0.0
H1810 H 0.51566 0.82224 0.30729 0.0
H1811 H 0.53034 0.79724 0.31221 0.0
H1812 H 0.60863 0.81008 0.31329 0.0
H1813 H 0.573 0.79955 0.30206 0.0
H1814 H 0.6274 0.94964 0.31931 0.0
H1815 H 0.5895 0.93573 0.31021 0.0
H1816 H 0.64801 0.93885 0.34127 0.0
H1817 H 0.6618 0.91327 0.34555 0.0
C1818 C 0.14997 0.70679 0.30732 0.0
C1819 C 0.11997 0.68153 0.31223 0.0
C1820 C 0.11418 0.71468 0.33518 0.0
C1821 C 0.14104 0.74105 0.32773 0.0
N1822 N 0.18107 0.76207 0.30381 0.0
N1823 N 0.07049 0.6633 0.32862 0.0
C1824 C 0.15797 0.7371 0.31294 0.0
C1825 C 0.1012 0.68588 0.32563 0.0
N1826 N 0.17134 0.70185 0.29782 0.0
N1827 N 0.10126 0.71681 0.35148 0.0
H1828 H 0.05945 0.64243 0.32126 0.0
H1829 H 0.05506 0.66672 0.337 0.0
H1830 H 0.11033 0.73746 0.3589 0.0
H1831 H 0.08356 0.69757 0.35837 0.0
H1832 H 0.19462 0.71935 0.29543 0.0
H1833 H 0.16702 0.67975 0.29426 0.0
H1834 H 0.19186 0.76014 0.29179 0.0
H1835 H 0.18723 0.78462 0.3072 0.0
C1836 C 0.78305 0.94909 0.38356 0.0
C1837 C 0.78035 0.97601 0.38126 0.0
C1838 C 0.73766 0.94798 0.35867 0.0
C1839 C 0.73671 0.91994 0.36328 0.0
N1840 N 0.75655 0.89303 0.38186 0.0
N1841 N 0.74969 0.99851 0.36966 0.0
C1842 C 0.75883 0.92024 0.37629 0.0
C1843 C 0.75611 0.97476 0.36967 0.0
N1844 N 0.80932 0.95125 0.39193 0.0
N1845 N 0.72201 0.94952 0.34339 0.0
H1846 H 0.7615 0.01796 0.37824 0.0
H1847 H 0.73029 0.99722 0.36266 0.0
H1848 H 0.70963 0.93068 0.33454 0.0
H1849 H 0.72428 0.97021 0.33851 0.0
H1850 H 0.81391 0.93296 0.39234 0.0
H1851 H 0.82813 0.97216 0.3968 0.0
H1852 H 0.76998 0.89162 0.39271 0.0
H1853 H 0.73949 0.87155 0.37659 0.0
C1854 C 0.06022 0.82355 0.38229 0.0
C1855 C 0.03123 0.79751 0.37644 0.0
C1856 C 0.06055 0.77827 0.35847 0.0
C1857 C 0.08971 0.80552 0.36284 0.0
N1858 N 0.11736 0.85389 0.3799 0.0
N1859 N 0.00334 0.75348 0.35609 0.0
C1860 C 0.08948 0.82841 0.37475 0.0
C1861 C 0.03132 0.77597 0.36364 0.0
N1862 N 0.05994 0.84228 0.39617 0.0
N1863 N 0.0607 0.7537 0.35014 0.0
H1864 H 0.98145 0.75132 0.35937 0.0
H1865 H 1.00216 0.73898 0.34528 0.0
H1866 H 0.08118 0.75521 0.3447 0.0
H1867 H 0.04071 0.73169 0.34915 0.0
H1868 H 0.08014 0.85949 0.40281 0.0
H1869 H 0.03917 0.83933 0.40221 0.0
H1870 H 0.11891 0.87342 0.38622 0.0
H1871 H 0.1394 0.85631 0.37726 0.0
C1872 C 0.20362 0.22357 0.35976 0.0
C1873 C 0.21762 0.23097 0.37775 0.0
C1874 C 0.19759 0.26655 0.38246 0.0
C1875 C 0.18918 0.26396 0.36345 0.0
N1876 N 0.165 0.22519 0.33946 0.0
N1877 N 0.23128 0.26253 0.40549 0.0
C1878 C 0.18704 0.23853 0.35325 0.0
C1879 C 0.21562 0.2534 0.38887 0.0
N1880 N 0.20564 0.20196 0.34902 0.0
N1881 N 0.1843 0.27743 0.39486 0.0
H1882 H 0.24535 0.25382 0.41059 0.0
H1883 H 0.23267 0.28092 0.41323 0.0
H1884 H 0.16584 0.28123 0.39097 0.0
H1885 H 0.18769 0.27766 0.40917 0.0
H1886 H 0.19943 0.19855 0.33501 0.0
H1887 H 0.21548 0.18883 0.35373 0.0
H1888 H 0.16064 0.20522 0.33231 0.0
H1889 H 0.14695 0.23037 0.33771 0.0
C1890 C 0.71277 0.55389 0.70067 0.0
C1891 C 0.69449 0.56665 0.70736 0.0
C1892 C 0.73763 0.61912 0.70043 0.0
C1893 C 0.75729 0.60651 0.69543 0.0
N1894 N 0.76488 0.56221 0.69385 0.0
N1895 N 0.68578 0.60983 0.71047 0.0
C1896 C 0.74506 0.57393 0.69613 0.0
C1897 C 0.70578 0.59886 0.70618 0.0
N1898 N 0.69908 0.52248 0.69855 0.0
N1899 N 0.75015 0.65056 0.70087 0.0
H1900 H 0.6626 0.59549 0.71503 0.0
H1901 H 0.69101 0.63255 0.70848 0.0
H1902 H 0.77305 0.66609 0.69656 0.0
H1903 H 0.73865 0.66173 0.70616 0.0
H1904 H 0.70996 0.51186 0.69167 0.0
H1905 H 0.67552 0.5071 0.70204 0.0
H1906 H 0.75837 0.53919 0.69622 0.0
H1907 H 0.78884 0.57617 0.69118 0.0
C1908 C 0.40575 0.10251 0.70112 0.0
C1909 C 0.43291 0.12674 0.71006 0.0
C1910 C 0.41468 0.16303 0.70157 0.0
C1911 C 0.38511 0.13804 0.69508 0.0
N1912 N 0.35158 0.08264 0.69077 0.0
N1913 N 0.45951 0.17893 0.72225 0.0
C1914 C 0.38035 0.10735 0.69567 0.0
C1915 C 0.43645 0.15673 0.71114 0.0
N1916 N 0.40473 0.07519 0.69708 0.0
N1917 N 0.42253 0.19295 0.69859 0.0
H1918 H 0.4752 0.17511 0.73015 0.0
H1919 H 0.46085 0.20004 0.72525 0.0
H1920 H 0.40788 0.19877 0.69154 0.0
H1921 H 0.44511 0.21177 0.70113 0.0
H1922 H 0.38709 0.05785 0.68886 0.0
H1923 H 0.42328 0.07116 0.70029 0.0
H1924 H 0.34549 0.05973 0.69323 0.0
H1925 H 0.33326 0.08499 0.68492 0.0
C1926 C 0.88288 0.29391 0.72464 0.0
C1927 C 0.89167 0.31937 0.71264 0.0
C1928 C 0.86395 0.28337 0.68695 0.0
C1929 C 0.85923 0.25805 0.6981 0.0
N1930 N 0.84753 0.23934 0.72942 0.0
N1931 N 0.89437 0.33864 0.68168 0.0
C1932 C 0.86436 0.26328 0.71755 0.0
C1933 C 0.88349 0.31415 0.69356 0.0
N1934 N 0.89195 0.29884 0.74288 0.0
N1935 N 0.84543 0.27828 0.67173 0.0
H1936 H 0.90882 0.36156 0.68604 0.0
H1937 H 0.89153 0.33585 0.66732 0.0
H1938 H 0.82477 0.25713 0.66985 0.0
H1939 H 0.84625 0.29606 0.66374 0.0
H1940 H 0.88985 0.28129 0.75161 0.0
H1941 H 0.90376 0.32077 0.74901 0.0
H1942 H 0.84784 0.24169 0.74379 0.0
H1943 H 0.82938 0.21815 0.72465 0.0
C1944 C 0.22267 0.02555 0.65923 0.0
C1945 C 0.22901 0.01694 0.64169 0.0
C1946 C 0.26905 0.07147 0.63616 0.0
C1947 C 0.26492 0.07911 0.65459 0.0
N1948 N 0.22133 0.06714 0.67502 0.0
N1949 N 0.25861 0.0319 0.61304 0.0
C1950 C 0.23733 0.05729 0.66409 0.0
C1951 C 0.2525 0.03993 0.63005 0.0
N1952 N 0.20249 0.0035 0.67133 0.0
N1953 N 0.28418 0.09475 0.62363 0.0
H1954 H 0.24524 0.00981 0.60729 0.0
H1955 H 0.27815 0.04673 0.60505 0.0
H1956 H 0.2894 0.11725 0.62673 0.0
H1957 H 0.28652 0.09133 0.6096 0.0
H1958 H 0.19925 0.00895 0.68485 0.0
H1959 H 0.19158 0.97979 0.66846 0.0
H1960 H 0.19936 0.05192 0.68084 0.0
H1961 H 0.22652 0.0901 0.6748 0.0
C1962 C 0.97384 0.23018 0.65809 0.0
C1963 C 0.97507 0.21023 0.64444 0.0
C1964 C 0.91682 0.17727 0.64571 0.0
C1965 C 0.91558 0.19765 0.65928 0.0
N1966 N 0.9421 0.24806 0.67397 0.0
N1967 N 0.94814 0.16726 0.62324 0.0
C1968 C 0.94389 0.22545 0.66414 0.0
C1969 C 0.94663 0.18424 0.63782 0.0
N1970 N 1.00141 0.25326 0.66568 0.0
N1971 N 0.88928 0.1523 0.63951 0.0
H1972 H 0.9693 0.17222 0.61679 0.0
H1973 H 0.92868 0.1492 0.61659 0.0
H1974 H 0.86691 0.14736 0.64385 0.0
H1975 H 0.88797 0.13525 0.63062 0.0
H1976 H 1.00211 0.26658 0.67704 0.0
H1977 H 0.02377 0.25728 0.66174 0.0
H1978 H 0.96134 0.2703 0.67594 0.0
H1979 H 0.92091 0.24533 0.67923 0.0
C1980 C 0.82024 0.7808 0.65411 0.0
C1981 C 0.78897 0.77043 0.64776 0.0
C1982 C 0.77563 0.71667 0.65165 0.0
C1983 C 0.80605 0.72641 0.65986 0.0
N1984 N 0.85747 0.76906 0.66901 0.0
N1985 N 0.73472 0.72947 0.64509 0.0
C1986 C 0.82822 0.75892 0.66137 0.0
C1987 C 0.76593 0.73872 0.6483 0.0
N1988 N 0.84263 0.81149 0.65252 0.0
N1989 N 0.75679 0.68709 0.64536 0.0
H1990 H 0.72685 0.74496 0.64198 0.0
H1991 H 0.71639 0.7069 0.64741 0.0
H1992 H 0.76468 0.6715 0.64385 0.0
H1993 H 0.73546 0.67972 0.6383 0.0
H1994 H 0.86684 0.82031 0.65453 0.0
H1995 H 0.83715 0.82822 0.64814 0.0
H1996 H 0.87301 0.79201 0.67272 0.0
H1997 H 0.86613 0.75436 0.67207 0.0
C1998 C 0.95359 0.7629 0.65191 0.0
C1999 C 0.97868 0.75669 0.6494 0.0
C2000 C 0.94433 0.70362 0.66042 0.0
C2001 C 0.91807 0.7088 0.66051 0.0
N2002 N 0.89721 0.74093 0.64943 0.0
N2003 N 0.99733 0.72004 0.64916 0.0
C2004 C 0.92246 0.73789 0.65466 0.0
C2005 C 0.97403 0.7268 0.65325 0.0
N2006 N 0.95932 0.79266 0.65125 0.0
N2007 N 0.94091 0.67657 0.66731 0.0
H2008 H 0.0195 0.73643 0.64408 0.0
H2009 H 0.99396 0.6977 0.64951 0.0
H2010 H 0.91951 0.65892 0.67254 0.0
H2011 H 0.95988 0.67281 0.66948 0.0
H2012 H 0.94213 0.7985 0.65467 0.0
H2013 H 0.98198 0.8116 0.64916 0.0
H2014 H 0.8998 0.76093 0.64322 0.0
H2015 H 0.87402 0.72251 0.64906 0.0
C2016 C 0.22868 0.17918 0.64862 0.0
C2017 C 0.23529 0.20975 0.64499 0.0
C2018 C 0.28986 0.22947 0.65607 0.0
C2019 C 0.28473 0.19871 0.65677 0.0
N2020 N 0.2503 0.14509 0.64817 0.0
N2021 N 0.27368 0.26431 0.64315 0.0
C2022 C 0.25424 0.17361 0.65187 0.0
C2023 C 0.26628 0.23504 0.64823 0.0
N2024 N 0.19802 0.15532 0.6486 0.0
N2025 N 0.31695 0.25335 0.66349 0.0
H2026 H 0.25715 0.26948 0.63748 0.0
H2027 H 0.2968 0.28302 0.64318 0.0
H2028 H 0.33364 0.24972 0.67032 0.0
H2029 H 0.32087 0.27581 0.66497 0.0
H2030 H 0.19174 0.13302 0.65291 0.0
H2031 H 0.17878 0.15863 0.64611 0.0
H2032 H 0.22907 0.12645 0.64335 0.0
H2033 H 0.26954 0.14169 0.64701 0.0
C2034 C 0.81931 0.03667 0.64993 0.0
C2035 C 0.78738 0.01651 0.64455 0.0
C2036 C 0.77188 0.05124 0.65933 0.0
C2037 C 0.80432 0.0737 0.66224 0.0
N2038 N 0.8595 0.08867 0.65825 0.0
N2039 N 0.73345 0.00596 0.64213 0.0
C2040 C 0.82822 0.06655 0.65713 0.0
C2041 C 0.76367 0.02415 0.6487 0.0
N2042 N 0.84107 0.02702 0.64851 0.0
N2043 N 0.74886 0.05498 0.6676 0.0
H2044 H 0.72645 0.98576 0.63442 0.0
H2045 H 0.71604 0.01226 0.64299 0.0
H2046 H 0.75443 0.07335 0.67656 0.0
H2047 H 0.72488 0.03817 0.66744 0.0
H2048 H 0.86383 0.03926 0.65418 0.0
H2049 H 0.83551 0.00539 0.64315 0.0
H2050 H 0.87769 0.08612 0.65251 0.0
H2051 H 0.86725 0.11058 0.66379 0.0
C2052 C 0.41845 0.31596 0.69539 0.0
C2053 C 0.43077 0.31711 0.71347 0.0
C2054 C 0.40174 0.26051 0.71422 0.0
C2055 C 0.39479 0.25933 0.69498 0.0
N2056 N 0.3968 0.28687 0.66701 0.0
N2057 N 0.40929 0.28996 0.74211 0.0
C2058 C 0.4034 0.28735 0.68543 0.0
C2059 C 0.41547 0.28922 0.72372 0.0
N2060 N 0.41512 0.34011 0.68938 0.0
N2061 N 0.39612 0.23443 0.72349 0.0
H2062 H 0.414 0.31053 0.74873 0.0
H2063 H 0.39554 0.26995 0.74983 0.0
H2064 H 0.38704 0.2129 0.71702 0.0
H2065 H 0.40338 0.23504 0.7372 0.0
H2066 H 0.4037 0.33962 0.67702 0.0
H2067 H 0.41908 0.35834 0.69825 0.0
H2068 H 0.40585 0.30694 0.65905 0.0
H2069 H 0.38372 0.26638 0.65956 0.0
C2070 C 0.70861 0.11091 0.71397 0.0
C2071 C 0.69673 0.13161 0.71221 0.0
C2072 C 0.74793 0.17145 0.69986 0.0
C2073 C 0.75963 0.15031 0.70042 0.0
N2074 N 0.74995 0.09883 0.7069 0.0
N2075 N 0.70237 0.17897 0.69999 0.0
C2076 C 0.73944 0.11961 0.70704 0.0
C2077 C 0.71554 0.16099 0.70398 0.0
N2078 N 0.69076 0.08334 0.72291 0.0
N2079 N 0.76808 0.20203 0.69634 0.0
H2080 H 0.67894 0.17238 0.70319 0.0
H2081 H 0.71368 0.19898 0.69201 0.0
H2082 H 0.79175 0.21068 0.69328 0.0
H2083 H 0.76197 0.21918 0.69788 0.0
H2084 H 0.69918 0.06868 0.72685 0.0
H2085 H 0.66766 0.07572 0.7274 0.0
H2086 H 0.73577 0.07537 0.70981 0.0
H2087 H 0.77245 0.10448 0.70235 0.0
C2088 C 0.87305 0.55435 0.69273 0.0
C2089 C 0.88999 0.56393 0.7098 0.0
C2090 C 0.87225 0.60139 0.71422 0.0
C2091 C 0.8594 0.59559 0.69598 0.0
N2092 N 0.83212 0.55408 0.67372 0.0
N2093 N 0.91026 0.60036 0.73528 0.0
C2094 C 0.85573 0.56881 0.68651 0.0
C2095 C 0.89104 0.58868 0.72003 0.0
N2096 N 0.87314 0.5312 0.68254 0.0
N2097 N 0.86263 0.61529 0.72692 0.0
H2098 H 0.92487 0.59193 0.73987 0.0
H2099 H 0.91399 0.62038 0.74215 0.0
H2100 H 0.84359 0.61867 0.7241 0.0
H2101 H 0.86931 0.61816 0.74086 0.0
H2102 H 0.86504 0.52615 0.66887 0.0
H2103 H 0.88342 0.51843 0.68719 0.0
H2104 H 0.82651 0.53309 0.66744 0.0
H2105 H 0.81427 0.55942 0.672 0.0
C2106 C 0.46247 0.97956 0.16903 0.0
C2107 C 0.47703 0.9619 0.17374 0.0
C2108 C 0.50568 0.97585 0.14415 0.0
C2109 C 0.49022 0.9926 0.13924 0.0
N2110 N 0.44775 0.00328 0.14457 0.0
N2111 N 0.50654 0.93722 0.1642 0.0
C2112 C 0.46655 0.99206 0.15091 0.0
C2113 C 0.49676 0.95811 0.16076 0.0
N2114 N 0.44618 0.98588 0.18214 0.0
N2115 N 0.52987 0.97804 0.13345 0.0
H2116 H 0.50032 0.92381 0.1762 0.0
H2117 H 0.51833 0.93114 0.15448 0.0
H2118 H 0.53686 0.9905 0.1211 0.0
H2119 H 0.54446 0.96932 0.13745 0.0
H2120 H 0.43821 0.00154 0.18005 0.0
H2121 H 0.44302 0.97765 0.1957 0.0
H2122 H 0.42808 0.00082 0.15176 0.0
H2123 H 0.44991 0.01224 0.13124 0.0
C2124 C 0.02986 0.49531 0.15855 0.0
C2125 C 0.02607 0.51535 0.171 0.0
C2126 C 0.99977 0.52844 0.14663 0.0
C2127 C 0.99914 0.50491 0.13524 0.0
N2128 N 0.01129 0.46399 0.13055 0.0
N2129 N 0.00355 0.54789 0.17786 0.0
C2130 C 0.0138 0.48793 0.14116 0.0
C2131 C 0.01019 0.53131 0.16528 0.0
N2132 N 0.04928 0.48387 0.16322 0.0
N2133 N 0.9908 0.54832 0.13951 0.0
H2134 H 0.01014 0.55012 0.1918 0.0
H2135 H 0.98898 0.5571 0.17486 0.0
H2136 H 0.98328 0.54702 0.12579 0.0
H2137 H 0.9938 0.56788 0.1466 0.0
H2138 H 0.05548 0.47164 0.15401 0.0
H2139 H 0.06152 0.48898 0.17583 0.0
H2140 H 0.01835 0.44853 0.13511 0.0
H2141 H 1.00007 0.45815 0.11761 0.0
C2142 C 0.49909 0.52577 0.16071 0.0
C2143 C 0.48233 0.50127 0.17345 0.0
C2144 C 0.47897 0.46376 0.15013 0.0
C2145 C 0.49964 0.48858 0.13851 0.0
N2146 N 0.5322 0.54362 0.13334 0.0
N2147 N 0.45956 0.4472 0.18129 0.0
C2148 C 0.51031 0.51975 0.14388 0.0
C2149 C 0.47292 0.47026 0.1684 0.0
N2150 N 0.50374 0.55465 0.16458 0.0
N2151 N 0.46459 0.43399 0.14355 0.0
H2152 H 0.45487 0.45096 0.19488 0.0
H2153 H 0.45557 0.42487 0.179 0.0
H2154 H 0.46827 0.42843 0.13015 0.0
H2155 H 0.44679 0.41521 0.15067 0.0
H2156 H 0.51291 0.5727 0.15504 0.0
H2157 H 0.49571 0.55981 0.17676 0.0
H2158 H 0.54353 0.56672 0.13761 0.0
H2159 H 0.54101 0.54023 0.12091 0.0
C2160 C 0.0256 0.5237 0.8532 0.0
C2161 C 0.99304 0.50174 0.85018 0.0
C2162 C 0.98175 0.50593 0.88288 0.0
C2163 C 0.01453 0.52705 0.88597 0.0
N2164 N 0.06846 0.54838 0.87558 0.0
N2165 N 0.94198 0.46575 0.86304 0.0
C2166 C 0.03672 0.53331 0.8716 0.0
C2167 C 0.97171 0.49077 0.86536 0.0
N2168 N 0.04557 0.53701 0.83852 0.0
N2169 N 0.95999 0.50161 0.89621 0.0
H2170 H 0.93412 0.45391 0.85042 0.0
H2171 H 0.9264 0.45493 0.87399 0.0
H2172 H 0.96622 0.51243 0.90917 0.0
H2173 H 0.93557 0.4892 0.89388 0.0
H2174 H 0.0686 0.55561 0.83999 0.0
H2175 H 0.03836 0.53154 0.82472 0.0
H2176 H 0.08559 0.55105 0.86596 0.0
H2177 H 0.07731 0.5553 0.88903 0.0
C2178 C 0.48698 0.46143 0.85519 0.0
C2179 C 0.51961 0.4789 0.85049 0.0
C2180 C 0.53134 0.50659 0.88026 0.0
C2181 C 0.49894 0.4881 0.88521 0.0
N2182 N 0.44782 0.44286 0.87968 0.0
N2183 N 0.57387 0.51322 0.85984 0.0
C2184 C 0.47737 0.46385 0.87339 0.0
C2185 C 0.54216 0.5 0.86346 0.0
N2186 N 0.46492 0.44377 0.84203 0.0
N2187 N 0.55145 0.53117 0.8912 0.0
H2188 H 0.58256 0.50878 0.84769 0.0
H2189 H 0.59153 0.52636 0.86952 0.0
H2190 H 0.54451 0.53643 0.90375 0.0
H2191 H 0.57436 0.54762 0.88726 0.0
H2192 H 0.44054 0.43333 0.84416 0.0
H2193 H 0.47077 0.44174 0.82838 0.0
H2194 H 0.43221 0.42284 0.87236 0.0
H2195 H 0.4401 0.44385 0.89303 0.0
C2196 C 0.48991 0.00679 0.85209 0.0
C2197 C 0.51676 0.03687 0.85 0.0
C2198 C 0.53175 0.0349 0.88237 0.0
C2199 C 0.50296 0.00638 0.88488 0.0
N2200 N 0.45019 0.97122 0.87332 0.0
N2201 N 0.55818 0.08286 0.86511 0.0
C2202 C 0.48058 0.99431 0.87012 0.0
C2203 C 0.53617 0.05201 0.86576 0.0
N2204 N 0.47427 0.98917 0.83691 0.0
N2205 N 0.5556 0.04502 0.89523 0.0
H2206 H 0.5611 0.09651 0.85352 0.0
H2207 H 0.57096 0.09547 0.87675 0.0
H2208 H 0.55418 0.03259 0.90714 0.0
H2209 H 0.57805 0.06417 0.89309 0.0
H2210 H 0.45628 0.96609 0.83792 0.0
H2211 H 0.48167 0.99619 0.82333 0.0
H2212 H 0.43241 0.96346 0.86322 0.0
H2213 H 0.442 0.96248 0.88656 0.0
C2214 C 0.13611 0.30311 0.49404 0.0
C2215 C 0.15856 0.30179 0.50611 0.0
C2216 C 0.19917 0.32571 0.48191 0.0
C2217 C 0.17817 0.33128 0.47107 0.0
N2218 N 0.12735 0.32835 0.4678 0.0
N2219 N 0.21315 0.31676 0.5126 0.0
C2220 C 0.14671 0.32064 0.47734 0.0
C2221 C 0.19054 0.31426 0.5003 0.0
N2222 N 0.10454 0.28696 0.49828 0.0
N2223 N 0.22721 0.33086 0.4745 0.0
H2224 H 0.20821 0.30967 0.52637 0.0
H2225 H 0.23734 0.32864 0.50965 0.0
H2226 H 0.23405 0.33878 0.46098 0.0
H2227 H 0.24204 0.32428 0.48104 0.0
H2228 H 0.08676 0.28448 0.48916 0.0
H2229 H 0.09588 0.27352 0.51021 0.0
H2230 H 0.10556 0.32431 0.47283 0.0
H2231 H 0.13411 0.34102 0.45553 0.0
C2232 C 0.68843 0.82318 0.49348 0.0
C2233 C 0.68728 0.84465 0.50601 0.0
C2234 C 0.65955 0.85795 0.48259 0.0
C2235 C 0.65694 0.83363 0.47107 0.0
N2236 N 0.66511 0.79006 0.46654 0.0
N2237 N 0.66678 0.87853 0.51378 0.0
C2238 C 0.67046 0.81544 0.47674 0.0
C2239 C 0.67153 0.86103 0.50091 0.0
N2240 N 0.70734 0.81083 0.49735 0.0
N2241 N 0.65144 0.87868 0.47584 0.0
H2242 H 0.67458 0.88094 0.52751 0.0
H2243 H 0.65249 0.88824 0.51133 0.0
H2244 H 0.64313 0.87754 0.46233 0.0
H2245 H 0.65594 0.89871 0.48298 0.0
H2246 H 0.71172 0.79759 0.48788 0.0
H2247 H 0.721 0.81614 0.50943 0.0
H2248 H 0.67152 0.77408 0.47103 0.0
H2249 H 0.65181 0.78338 0.45429 0.0
C2250 C 0.13692 0.80756 0.50153 0.0
C2251 C 0.14911 0.83828 0.50826 0.0
C2252 C 0.17975 0.85896 0.47972 0.0
C2253 C 0.16668 0.82826 0.47275 0.0
N2254 N 0.12699 0.77421 0.47477 0.0
N2255 N 0.17581 0.89318 0.50224 0.0
C2256 C 0.14334 0.80282 0.48296 0.0
C2257 C 0.16854 0.86401 0.49683 0.0
N2258 N 0.12059 0.78294 0.51311 0.0
N2259 N 0.2039 0.88313 0.47046 0.0
H2260 H 0.16783 0.89765 0.51466 0.0
H2261 H 0.1872 0.91249 0.49369 0.0
H2262 H 0.21274 0.88048 0.45784 0.0
H2263 H 0.21682 0.90545 0.47596 0.0
H2264 H 0.1143 0.76028 0.50957 0.0
H2265 H 0.11554 0.78538 0.52687 0.0
H2266 H 0.10752 0.75541 0.48086 0.0
H2267 H 0.13096 0.77005 0.46111 0.0
C2268 C 0.68357 0.83273 0.18531 0.0
C2269 C 0.65105 0.81733 0.18003 0.0
C2270 C 0.63587 0.81834 0.21226 0.0
C2271 C 0.66831 0.83254 0.21757 0.0
N2272 N 0.7214 0.84426 0.21024 0.0
N2273 N 0.59615 0.78734 0.1892 0.0
C2274 C 0.69158 0.83651 0.20442 0.0
C2275 C 0.62713 0.8074 0.19378 0.0
N2276 N 0.70688 0.84574 0.17224 0.0
N2277 N 0.61367 0.81698 0.22441 0.0
H2278 H 0.58904 0.77831 0.17583 0.0
H2279 H 0.57815 0.77724 0.19902 0.0
H2280 H 0.61895 0.82504 0.23804 0.0
H2281 H 0.59045 0.81012 0.22046 0.0
H2282 H 0.73079 0.85992 0.17561 0.0
H2283 H 0.70226 0.84507 0.15807 0.0
H2284 H 0.73857 0.84485 0.20136 0.0
H2285 H 0.72775 0.84687 0.22426 0.0
C2286 C 0.2135 0.84905 0.19545 0.0
C2287 C 0.18924 0.82848 0.18306 0.0
C2288 C 0.14926 0.81801 0.2069 0.0
C2289 C 0.17286 0.84175 0.21821 0.0
N2290 N 0.22719 0.88245 0.22254 0.0
N2291 N 0.13338 0.79701 0.17588 0.0
C2292 C 0.205 0.8579 0.21235 0.0
C2293 C 0.15692 0.8138 0.18851 0.0
N2294 N 0.24461 0.85948 0.19128 0.0
N2295 N 0.11966 0.79898 0.21391 0.0
H2296 H 0.13784 0.79387 0.16213 0.0
H2297 H 0.10942 0.78863 0.17856 0.0
H2298 H 0.11333 0.80113 0.22743 0.0
H2299 H 0.10248 0.77926 0.20698 0.0
H2300 H 0.26319 0.87192 0.20059 0.0
H2301 H 0.25168 0.8533 0.1791 0.0
H2302 H 0.25018 0.89727 0.21793 0.0
H2303 H 0.22197 0.88957 0.23502 0.0
C2304 C 0.1794 0.34872 0.18749 0.0
C2305 C 0.19088 0.38053 0.18358 0.0
C2306 C 0.20164 0.39309 0.21679 0.0
C2307 C 0.18923 0.36119 0.22068 0.0
N2308 N 0.15916 0.30802 0.2106 0.0
N2309 N 0.20592 0.43177 0.1948 0.0
C2310 C 0.17567 0.33881 0.20627 0.0
C2311 C 0.1998 0.40235 0.19836 0.0
N2312 N 0.17389 0.32826 0.17333 0.0
N2313 N 0.21639 0.41466 0.23055 0.0
H2314 H 0.2044 0.4392 0.18151 0.0
H2315 H 0.2096 0.44788 0.20515 0.0
H2316 H 0.21736 0.40872 0.2443 0.0
H2317 H 0.22939 0.43842 0.22812 0.0
H2318 H 0.1689 0.30559 0.17544 0.0
H2319 H 0.17706 0.33458 0.15939 0.0
H2320 H 0.14604 0.29063 0.20091 0.0
H2321 H 0.15607 0.30011 0.22425 0.0
C2322 C 0.83291 0.62555 0.82685 0.0
C2323 C 0.81405 0.63167 0.83927 0.0
C2324 C 0.8087 0.66426 0.8157 0.0
C2325 C 0.83131 0.66189 0.80447 0.0
N2326 N 0.86741 0.64244 0.8 0.0
N2327 N 0.78706 0.65994 0.84649 0.0
C2328 C 0.8439 0.64287 0.81012 0.0
C2329 C 0.80254 0.65168 0.83391 0.0
N2330 N 0.83981 0.60278 0.83091 0.0
N2331 N 0.79267 0.67808 0.80879 0.0
H2332 H 0.78222 0.65146 0.86001 0.0
H2333 H 0.78136 0.67718 0.84404 0.0
H2334 H 0.79635 0.6872 0.79542 0.0
H2335 H 0.77364 0.67779 0.81557 0.0
H2336 H 0.85067 0.595 0.82159 0.0
H2337 H 0.83208 0.58963 0.843 0.0
H2338 H 0.88007 0.63191 0.80452 0.0
H2339 H 0.876 0.65461 0.78765 0.0
C2340 C 0.34933 0.2039 0.83119 0.0
C2341 C 0.36545 0.18774 0.836 0.0
C2342 C 0.34975 0.15977 0.80632 0.0
C2343 C 0.33524 0.17728 0.80114 0.0
N2344 N 0.32842 0.2214 0.80647 0.0
N2345 N 0.38709 0.15553 0.82673 0.0
C2346 C 0.33734 0.20109 0.81291 0.0
C2347 C 0.36756 0.16727 0.8231 0.0
N2348 N 0.34401 0.22067 0.84431 0.0
N2349 N 0.3454 0.13518 0.79565 0.0
H2350 H 0.40067 0.16076 0.83884 0.0
H2351 H 0.39207 0.14298 0.81705 0.0
H2352 H 0.3325 0.1289 0.78326 0.0
H2353 H 0.35243 0.1195 0.7998 0.0
H2354 H 0.32939 0.23007 0.84203 0.0
H2355 H 0.35173 0.22284 0.85803 0.0
H2356 H 0.33243 0.24111 0.81381 0.0
H2357 H 0.3199 0.22028 0.79301 0.0
C2358 C 0.83062 0.14508 0.83577 0.0
C2359 C 0.81674 0.16412 0.83782 0.0
C2360 C 0.80412 0.15855 0.80453 0.0
C2361 C 0.8195 0.14085 0.8024 0.0
N2362 N 0.8556 0.1256 0.81489 0.0
N2363 N 0.79827 0.19583 0.82333 0.0
C2364 C 0.83553 0.13696 0.81769 0.0
C2365 C 0.80608 0.1731 0.8219 0.0
N2366 N 0.8373 0.13304 0.85101 0.0
N2367 N 0.7862 0.16012 0.79039 0.0
H2368 H 0.80007 0.20741 0.83578 0.0
H2369 H 0.79316 0.20532 0.81188 0.0
H2370 H 0.78368 0.14948 0.77753 0.0
H2371 H 0.77169 0.16982 0.79196 0.0
H2372 H 0.84429 0.11643 0.85011 0.0
H2373 H 0.83285 0.13717 0.86456 0.0
H2374 H 0.87012 0.12491 0.82531 0.0
H2375 H 0.86017 0.12 0.80172 0.0
C2376 C 0.31432 0.13091 0.52597 0.0
C2377 C 0.32278 0.15641 0.51401 0.0
C2378 C 0.3553 0.19243 0.53863 0.0
C2379 C 0.35026 0.16685 0.54963 0.0
N2380 N 0.3273 0.11164 0.55352 0.0
N2381 N 0.35396 0.21125 0.5079 0.0
C2382 C 0.33021 0.136 0.5433 0.0
C2383 C 0.34385 0.18718 0.52008 0.0
N2384 N 0.29068 0.10199 0.52087 0.0
N2385 N 0.37039 0.22166 0.54608 0.0
H2386 H 0.34602 0.20841 0.49419 0.0
H2387 H 0.37207 0.23368 0.51093 0.0
H2388 H 0.37902 0.22633 0.55968 0.0
H2389 H 0.37182 0.24082 0.53942 0.0
H2390 H 0.28111 0.08303 0.52974 0.0
H2391 H 0.27863 0.09746 0.50822 0.0
H2392 H 0.31593 0.08885 0.54869 0.0
H2393 H 0.3383 0.1144 0.56639 0.0
C2394 C 0.87421 0.17132 0.53058 0.0
C2395 C 0.8515 0.14941 0.51798 0.0
C2396 C 0.80994 0.1344 0.54137 0.0
C2397 C 0.83163 0.15908 0.55292 0.0
N2398 N 0.88374 0.20336 0.55796 0.0
N2399 N 0.79669 0.11356 0.51019 0.0
C2400 C 0.86368 0.17812 0.54744 0.0
C2401 C 0.81906 0.13175 0.52307 0.0
N2402 N 0.90584 0.18501 0.52664 0.0
N2403 N 0.78079 0.1131 0.54803 0.0
H2404 H 0.8022 0.11144 0.49648 0.0
H2405 H 0.77237 0.10285 0.51259 0.0
H2406 H 0.77343 0.11415 0.56147 0.0
H2407 H 0.76523 0.09283 0.54092 0.0
H2408 H 0.92368 0.19873 0.53609 0.0
H2409 H 0.91439 0.18045 0.51446 0.0
H2410 H 0.90627 0.2201 0.55362 0.0
H2411 H 0.87701 0.20888 0.57049 0.0
C2412 C 0.87652 0.71126 0.52827 0.0
C2413 C 0.85203 0.70464 0.51518 0.0
C2414 C 0.81217 0.67226 0.53817 0.0
C2415 C 0.83667 0.67501 0.55011 0.0
N2416 N 0.89243 0.69517 0.5561 0.0
N2417 N 0.79653 0.67552 0.50673 0.0
C2418 C 0.86899 0.69424 0.54515 0.0
C2419 C 0.81979 0.68443 0.51992 0.0
N2420 N 0.90686 0.73421 0.5247 0.0
N2421 N 0.78161 0.65831 0.54441 0.0
H2422 H 0.80104 0.68349 0.4931 0.0
H2423 H 0.77313 0.65813 0.50884 0.0
H2424 H 0.7753 0.64947 0.55781 0.0
H2425 H 0.76316 0.65829 0.53702 0.0
H2426 H 0.92517 0.7423 0.53445 0.0
H2427 H 0.91315 0.74714 0.51251 0.0
H2428 H 0.91615 0.70586 0.55216 0.0
H2429 H 0.88791 0.68337 0.56865 0.0
loop_
_geom_bond_atom_site_label_1
_geom_bond_atom_site_label_2
_geom_bond_distance
_geom_bond_site_symmetry_2
_ccdc_geom_bond_type
C0 C1 1.386 . S
C0 C2 1.397 . S
C0 H24 0.931 . S
C1 C0 1.386 . S
C1 C5 1.397 . S
C2 C0 1.397 . S
C2 C3 1.384 . S
C2 H25 0.930 . S
C3 C2 1.384 . S
C3 C4 1.377 . S
C3 C6 1.481 . S
C4 C3 1.377 . S
C4 C5 1.389 . S
C4 H26 0.929 . S
C5 C1 1.397 . S
C5 C4 1.389 . S
C5 H27 0.931 . S
C6 C3 1.481 . S
C6 C7 1.387 . S
C6 C11 1.390 . S
C7 C6 1.387 . S
C7 C8 1.401 . S
C7 H28 0.930 . S
C8 C7 1.401 . S
C8 C9 1.376 . S
C8 C17 1.511 . S
C9 C8 1.376 . S
C9 C10 1.392 . S
C9 H30 0.931 . S
C10 C9 1.392 . S
C10 C11 1.361 . S
C10 C12 1.500 . S
C11 C6 1.390 . S
C11 C10 1.361 . S
C11 H29 0.931 . S
C12 C10 1.500 . S
C12 C13 1.371 . S
C12 C14 1.365 . S
C13 C12 1.371 . S
C13 C23 1.386 . S
C13 H31 0.931 . S
C14 C12 1.365 . S
C14 C15 1.409 . S
C14 H32 0.929 . S
C15 C14 1.409 . S
C15 C16 1.380 . S
C15 H33 0.930 . S
C16 C15 1.380 . S
C16 C23 1.357 . S
C17 C8 1.511 . S
C17 C18 1.341 . S
C17 C19 1.371 . S
C18 C17 1.341 . S
C18 C22 1.394 . S
C18 H34 0.930 . S
C19 C17 1.371 . S
C19 C20 1.392 . S
C19 H35 0.931 . S
C20 C19 1.392 . S
C20 C21 1.331 . S
C20 H38 0.932 . S
C21 C20 1.331 . S
C21 C22 1.336 . S
C22 C18 1.394 . S
C22 C21 1.336 . S
C22 H37 0.929 . S
C23 C13 1.386 . S
C23 C16 1.357 . S
C23 H36 0.928 . S
H24 C0 0.931 . S
H25 C2 0.930 . S
H26 C4 0.929 . S
H27 C5 0.931 . S
H28 C7 0.930 . S
H29 C11 0.931 . S
H30 C9 0.931 . S
H31 C13 0.931 . S
H32 C14 0.929 . S
H33 C15 0.930 . S
H34 C18 0.930 . S
H35 C19 0.931 . S
H36 C23 0.928 . S
H37 C22 0.929 . S
H38 C20 0.932 . S
C39 C40 1.386 . S
C39 C41 1.397 . S
C39 H63 0.931 . S
C40 C39 1.386 . S
C40 C44 1.397 . S
C41 C39 1.397 . S
C41 C42 1.384 . S
C41 H64 0.930 . S
C42 C41 1.384 . S
C42 C43 1.377 . S
C42 C45 1.481 . S
C43 C42 1.377 . S
C43 C44 1.389 . S
C43 H65 0.929 . S
C44 C40 1.397 . S
C44 C43 1.389 . S
C44 H66 0.931 . S
C45 C42 1.481 . S
C45 C46 1.387 . S
C45 C50 1.390 . S
C46 C45 1.387 . S
C46 C47 1.401 . S
C46 H67 0.930 . S
C47 C46 1.401 . S
C47 C48 1.376 . S
C47 C56 1.511 . S
C48 C47 1.376 . S
C48 C49 1.392 . S
C48 H69 0.931 . S
C49 C48 1.392 . S
C49 C50 1.361 . S
C49 C51 1.500 . S
C50 C45 1.390 . S
C50 C49 1.361 . S
C50 H68 0.931 . S
C51 C49 1.500 . S
C51 C52 1.371 . S
C51 C53 1.365 . S
C52 C51 1.371 . S
C52 C62 1.386 . S
C52 H70 0.931 . S
C53 C51 1.365 . S
C53 C54 1.409 . S
C53 H71 0.929 . S
C54 C53 1.409 . S
C54 C55 1.380 . S
C54 H72 0.930 1_545 S
C55 C54 1.380 . S
C55 C62 1.357 . S
C56 C47 1.511 . S
C56 C57 1.341 . S
C56 C58 1.371 . S
C57 C56 1.341 . S
C57 C61 1.394 . S
C57 H73 0.930 . S
C58 C56 1.371 . S
C58 C59 1.392 . S
C58 H74 0.931 . S
C59 C58 1.392 . S
C59 C60 1.331 . S
C59 H77 0.932 . S
C60 C59 1.331 . S
C60 C61 1.336 . S
C61 C57 1.394 . S
C61 C60 1.336 . S
C61 H76 0.929 . S
C62 C52 1.386 . S
C62 C55 1.357 . S
C62 H75 0.928 . S
H63 C39 0.931 . S
H64 C41 0.930 . S
H65 C43 0.929 . S
H66 C44 0.931 . S
H67 C46 0.930 . S
H68 C50 0.931 . S
H69 C48 0.931 . S
H70 C52 0.931 . S
H71 C53 0.929 . S
H72 C54 0.930 1_565 S
H73 C57 0.930 . S
H74 C58 0.931 . S
H75 C62 0.928 . S
H76 C61 0.929 . S
H77 C59 0.932 . S
C78 C79 1.386 . S
C78 C80 1.397 . S
C78 H102 0.931 . S
C79 C78 1.386 . S
C79 C83 1.397 . S
C80 C78 1.397 . S
C80 C81 1.384 . S
C80 H103 0.930 . S
C81 C80 1.384 . S
C81 C82 1.377 . S
C81 C84 1.481 . S
C82 C81 1.377 . S
C82 C83 1.389 . S
C82 H104 0.929 . S
C83 C79 1.397 . S
C83 C82 1.389 . S
C83 H105 0.931 . S
C84 C81 1.481 . S
C84 C85 1.387 . S
C84 C89 1.390 . S
C85 C84 1.387 . S
C85 C86 1.401 . S
C85 H106 0.930 . S
C86 C85 1.401 . S
C86 C87 1.376 . S
C86 C95 1.511 . S
C87 C86 1.376 . S
C87 C88 1.392 . S
C87 H108 0.931 . S
C88 C87 1.392 . S
C88 C89 1.361 . S
C88 C90 1.500 . S
C89 C84 1.390 . S
C89 C88 1.361 . S
C89 H107 0.931 . S
C90 C88 1.500 . S
C90 C91 1.371 . S
C90 C92 1.365 . S
C91 C90 1.371 . S
C91 C101 1.386 . S
C91 H109 0.931 . S
C92 C90 1.365 . S
C92 C93 1.409 . S
C92 H110 0.929 . S
C93 C92 1.409 . S
C93 C94 1.380 . S
C93 H111 0.930 . S
C94 C93 1.380 . S
C94 C101 1.357 . S
C95 C86 1.511 . S
C95 C96 1.341 . S
C95 C97 1.371 . S
C96 C95 1.341 . S
C96 C100 1.394 . S
C96 H112 0.930 . S
C97 C95 1.371 . S
C97 C98 1.392 . S
C97 H113 0.931 . S
C98 C97 1.392 . S
C98 C99 1.331 . S
C98 H116 0.932 . S
C99 C98 1.331 . S
C99 C100 1.336 . S
C100 C96 1.394 . S
C100 C99 1.336 . S
C100 H115 0.929 1_655 S
C101 C91 1.386 . S
C101 C94 1.357 . S
C101 H114 0.928 . S
H102 C78 0.931 . S
H103 C80 0.930 . S
H104 C82 0.929 . S
H105 C83 0.931 . S
H106 C85 0.930 . S
H107 C89 0.931 . S
H108 C87 0.931 . S
H109 C91 0.931 . S
H110 C92 0.929 . S
H111 C93 0.930 . S
H112 C96 0.930 . S
H113 C97 0.931 . S
H114 C101 0.928 . S
H115 C100 0.929 1_455 S
H116 C98 0.932 . S
C117 C118 1.386 . S
C117 C119 1.397 . S
C117 H141 0.931 . S
C118 C117 1.386 . S
C118 C122 1.397 . S
C119 C117 1.397 . S
C119 C120 1.384 . S
C119 H142 0.930 . S
C120 C119 1.384 . S
C120 C121 1.377 . S
C120 C123 1.481 . S
C121 C120 1.377 . S
C121 C122 1.389 . S
C121 H143 0.929 . S
C122 C118 1.397 . S
C122 C121 1.389 . S
C122 H144 0.931 . S
C123 C120 1.481 . S
C123 C124 1.387 . S
C123 C128 1.390 . S
C124 C123 1.387 . S
C124 C125 1.401 . S
C124 H145 0.930 . S
C125 C124 1.401 . S
C125 C126 1.376 . S
C125 C134 1.511 . S
C126 C125 1.376 . S
C126 C127 1.392 . S
C126 H147 0.931 . S
C127 C126 1.392 . S
C127 C128 1.361 . S
C127 C129 1.500 . S
C128 C123 1.390 . S
C128 C127 1.361 . S
C128 H146 0.931 . S
C129 C127 1.500 . S
C129 C130 1.371 . S
C129 C131 1.365 . S
C130 C129 1.371 . S
C130 C140 1.386 . S
C130 H148 0.931 . S
C131 C129 1.365 . S
C131 C132 1.409 . S
C131 H149 0.929 . S
C132 C131 1.409 . S
C132 C133 1.380 . S
C132 H150 0.930 . S
C133 C132 1.380 . S
C133 C140 1.357 . S
C134 C125 1.511 . S
C134 C135 1.341 . S
C134 C136 1.371 . S
C135 C134 1.341 . S
C135 C139 1.394 . S
C135 H151 0.930 . S
C136 C134 1.371 . S
C136 C137 1.392 . S
C136 H152 0.931 . S
C137 C136 1.392 . S
C137 C138 1.331 . S
C137 H155 0.932 . S
C138 C137 1.331 . S
C138 C139 1.336 . S
C139 C135 1.394 . S
C139 C138 1.336 . S
C139 H154 0.929 . S
C140 C130 1.386 . S
C140 C133 1.357 . S
C140 H153 0.928 . S
H141 C117 0.931 . S
H142 C119 0.930 . S
H143 C121 0.929 . S
H144 C122 0.931 . S
H145 C124 0.930 . S
H146 C128 0.931 . S
H147 C126 0.931 . S
H148 C130 0.931 . S
H149 C131 0.929 . S
H150 C132 0.930 . S
H151 C135 0.930 . S
H152 C136 0.931 . S
H153 C140 0.928 . S
H154 C139 0.929 . S
H155 C137 0.932 . S
C156 C157 1.386 . S
C156 C158 1.397 . S
C156 H180 0.931 . S
C157 C156 1.386 . S
C157 C161 1.397 . S
C158 C156 1.397 . S
C158 C159 1.384 . S
C158 H181 0.930 . S
C159 C158 1.384 . S
C159 C160 1.377 . S
C159 C162 1.481 . S
C160 C159 1.377 . S
C160 C161 1.389 . S
C160 H182 0.929 . S
C161 C157 1.397 . S
C161 C160 1.389 . S
C161 H183 0.931 . S
C162 C159 1.481 . S
C162 C163 1.387 . S
C162 C167 1.390 . S
C163 C162 1.387 . S
C163 C164 1.401 . S
C163 H184 0.930 . S
C164 C163 1.401 . S
C164 C165 1.376 . S
C164 C173 1.511 . S
C165 C164 1.376 . S
C165 C166 1.392 . S
C165 H186 0.931 . S
C166 C165 1.392 . S
C166 C167 1.361 . S
C166 C168 1.500 . S
C167 C162 1.390 . S
C167 C166 1.361 . S
C167 H185 0.931 . S
C168 C166 1.500 . S
C168 C169 1.371 . S
C168 C170 1.365 . S
C169 C168 1.371 . S
C169 C179 1.386 . S
C169 H187 0.931 . S
C170 C168 1.365 . S
C170 C171 1.409 . S
C170 H188 0.929 . S
C171 C170 1.409 . S
C171 C172 1.380 . S
C171 H189 0.930 1_565 S
C172 C171 1.380 . S
C172 C179 1.357 . S
C173 C164 1.511 . S
C173 C174 1.341 . S
C173 C175 1.371 . S
C174 C173 1.341 . S
C174 C178 1.394 . S
C174 H190 0.930 . S
C175 C173 1.371 . S
C175 C176 1.392 . S
C175 H191 0.931 . S
C176 C175 1.392 . S
C176 C177 1.331 . S
C176 H194 0.932 . S
C177 C176 1.331 . S
C177 C178 1.336 . S
C178 C174 1.394 . S
C178 C177 1.336 . S
C178 H193 0.929 . S
C179 C169 1.386 . S
C179 C172 1.357 . S
C179 H192 0.928 . S
H180 C156 0.931 . S
H181 C158 0.930 . S
H182 C160 0.929 . S
H183 C161 0.931 . S
H184 C163 0.930 . S
H185 C167 0.931 . S
H186 C165 0.931 . S
H187 C169 0.931 . S
H188 C170 0.929 . S
H189 C171 0.930 1_545 S
H190 C174 0.930 . S
H191 C175 0.931 . S
H192 C179 0.928 . S
H193 C178 0.929 . S
H194 C176 0.932 . S
C195 C196 1.386 . S
C195 C197 1.397 . S
C195 H219 0.931 . S
C196 C195 1.386 . S
C196 C200 1.397 . S
C197 C195 1.397 . S
C197 C198 1.384 . S
C197 H220 0.930 . S
C198 C197 1.384 . S
C198 C199 1.377 . S
C198 C201 1.481 . S
C199 C198 1.377 . S
C199 C200 1.389 . S
C199 H221 0.929 . S
C200 C196 1.397 . S
C200 C199 1.389 . S
C200 H222 0.931 . S
C201 C198 1.481 . S
C201 C202 1.387 . S
C201 C206 1.390 . S
C202 C201 1.387 . S
C202 C203 1.401 . S
C202 H223 0.930 . S
C203 C202 1.401 . S
C203 C204 1.376 . S
C203 C212 1.511 . S
C204 C203 1.376 . S
C204 C205 1.392 . S
C204 H225 0.931 . S
C205 C204 1.392 . S
C205 C206 1.361 . S
C205 C207 1.500 . S
C206 C201 1.390 . S
C206 C205 1.361 . S
C206 H224 0.931 . S
C207 C205 1.500 . S
C207 C208 1.371 . S
C207 C209 1.365 . S
C208 C207 1.371 . S
C208 C218 1.386 . S
C208 H226 0.931 . S
C209 C207 1.365 . S
C209 C210 1.409 . S
C209 H227 0.929 . S
C210 C209 1.409 . S
C210 C211 1.380 . S
C210 H228 0.930 . S
C211 C210 1.380 . S
C211 C218 1.357 . S
C212 C203 1.511 . S
C212 C213 1.341 . S
C212 C214 1.371 . S
C213 C212 1.341 . S
C213 C217 1.394 . S
C213 H229 0.930 . S
C214 C212 1.371 . S
C214 C215 1.392 . S
C214 H230 0.931 . S
C215 C214 1.392 . S
C215 C216 1.331 . S
C215 H233 0.932 . S
C216 C215 1.331 . S
C216 C217 1.336 . S
C217 C213 1.394 . S
C217 C216 1.336 . S
C217 H232 0.929 1_455 S
C218 C208 1.386 . S
C218 C211 1.357 . S
C218 H231 0.928 . S
H219 C195 0.931 . S
H220 C197 0.930 . S
H221 C199 0.929 . S
H222 C200 0.931 . S
H223 C202 0.930 . S
H224 C206 0.931 . S
H225 C204 0.931 . S
H226 C208 0.931 . S
H227 C209 0.929 . S
H228 C210 0.930 . S
H229 C213 0.930 . S
H230 C214 0.931 . S
H231 C218 0.928 . S
H232 C217 0.929 1_655 S
H233 C215 0.932 . S
C234 C235 1.386 . S
C234 C236 1.397 . S
C234 H258 0.931 . S
C235 C234 1.386 . S
C235 C239 1.397 . S
C236 C234 1.397 . S
C236 C237 1.384 . S
C236 H259 0.930 . S
C237 C236 1.384 . S
C237 C238 1.377 . S
C237 C240 1.481 . S
C238 C237 1.377 . S
C238 C239 1.389 . S
C238 H260 0.929 . S
C239 C235 1.397 . S
C239 C238 1.389 . S
C239 H261 0.931 . S
C240 C237 1.481 . S
C240 C241 1.387 . S
C240 C245 1.390 . S
C241 C240 1.387 . S
C241 C242 1.401 . S
C241 H262 0.930 . S
C242 C241 1.401 . S
C242 C243 1.376 . S
C242 C251 1.511 . S
C243 C242 1.376 . S
C243 C244 1.392 . S
C243 H264 0.931 . S
C244 C243 1.392 . S
C244 C245 1.361 . S
C244 C246 1.500 . S
C245 C240 1.390 . S
C245 C244 1.361 . S
C245 H263 0.931 . S
C246 C244 1.500 . S
C246 C247 1.371 . S
C246 C248 1.365 . S
C247 C246 1.371 . S
C247 C257 1.386 . S
C247 H265 0.931 . S
C248 C246 1.365 . S
C248 C249 1.409 . S
C248 H266 0.929 . S
C249 C248 1.409 . S
C249 C250 1.380 . S
C249 H267 0.930 . S
C250 C249 1.380 . S
C250 C257 1.357 . S
C251 C242 1.511 . S
C251 C252 1.341 . S
C251 C253 1.371 . S
C252 C251 1.341 . S
C252 C256 1.394 . S
C252 H268 0.930 . S
C253 C251 1.371 . S
C253 C254 1.392 . S
C253 H269 0.931 . S
C254 C253 1.392 . S
C254 C255 1.331 . S
C254 H272 0.932 . S
C255 C254 1.331 . S
C255 C256 1.336 . S
C256 C252 1.394 . S
C256 C255 1.336 . S
C256 H271 0.929 . S
C257 C247 1.386 . S
C257 C250 1.357 . S
C257 H270 0.928 . S
H258 C234 0.931 . S
H259 C236 0.930 . S
H260 C238 0.929 . S
H261 C239 0.931 . S
H262 C241 0.930 . S
H263 C245 0.931 . S
H264 C243 0.931 . S
H265 C247 0.931 . S
H266 C248 0.929 . S
H267 C249 0.930 . S
H268 C252 0.930 . S
H269 C253 0.931 . S
H270 C257 0.928 . S
H271 C256 0.929 . S
H272 C254 0.932 . S
C273 C274 1.386 . S
C273 C275 1.397 . S
C273 H297 0.931 . S
C274 C273 1.386 . S
C274 C278 1.397 . S
C275 C273 1.397 . S
C275 C276 1.384 . S
C275 H298 0.930 . S
C276 C275 1.384 . S
C276 C277 1.377 . S
C276 C279 1.481 . S
C277 C276 1.377 . S
C277 C278 1.389 . S
C277 H299 0.929 . S
C278 C274 1.397 . S
C278 C277 1.389 . S
C278 H300 0.931 . S
C279 C276 1.481 . S
C279 C280 1.387 . S
C279 C284 1.390 . S
C280 C279 1.387 . S
C280 C281 1.401 . S
C280 H301 0.930 . S
C281 C280 1.401 . S
C281 C282 1.376 . S
C281 C290 1.511 . S
C282 C281 1.376 . S
C282 C283 1.392 . S
C282 H303 0.931 . S
C283 C282 1.392 . S
C283 C284 1.361 . S
C283 C285 1.500 . S
C284 C279 1.390 . S
C284 C283 1.361 . S
C284 H302 0.931 . S
C285 C283 1.500 . S
C285 C286 1.371 . S
C285 C287 1.365 . S
C286 C285 1.371 . S
C286 C296 1.386 . S
C286 H304 0.931 . S
C287 C285 1.365 . S
C287 C288 1.409 . S
C287 H305 0.929 . S
C288 C287 1.409 . S
C288 C289 1.380 . S
C288 H306 0.930 . S
C289 C288 1.380 . S
C289 C296 1.357 . S
C290 C281 1.511 . S
C290 C291 1.341 . S
C290 C292 1.371 . S
C291 C290 1.341 . S
C291 C295 1.394 . S
C291 H307 0.930 . S
C292 C290 1.371 . S
C292 C293 1.392 . S
C292 H308 0.931 . S
C293 C292 1.392 . S
C293 C294 1.331 . S
C293 H311 0.932 . S
C294 C293 1.331 . S
C294 C295 1.336 . S
C295 C291 1.394 . S
C295 C294 1.336 . S
C295 H310 0.929 . S
C296 C286 1.386 . S
C296 C289 1.357 . S
C296 H309 0.928 . S
H297 C273 0.931 . S
H298 C275 0.930 . S
H299 C277 0.929 . S
H300 C278 0.931 . S
H301 C280 0.930 . S
H302 C284 0.931 . S
H303 C282 0.931 . S
H304 C286 0.931 . S
H305 C287 0.929 . S
H306 C288 0.930 . S
H307 C291 0.930 . S
H308 C292 0.931 . S
H309 C296 0.928 . S
H310 C295 0.929 . S
H311 C293 0.932 . S
C312 C313 1.386 . S
C312 C314 1.397 . S
C312 H336 0.931 . S
C313 C312 1.386 . S
C313 C317 1.397 . S
C314 C312 1.397 . S
C314 C315 1.384 . S
C314 H337 0.930 . S
C315 C314 1.384 . S
C315 C316 1.377 . S
C315 C318 1.481 . S
C316 C315 1.377 . S
C316 C317 1.389 . S
C316 H338 0.929 . S
C317 C313 1.397 . S
C317 C316 1.389 . S
C317 H339 0.931 . S
C318 C315 1.481 . S
C318 C319 1.387 . S
C318 C323 1.390 . S
C319 C318 1.387 . S
C319 C320 1.401 . S
C319 H340 0.930 . S
C320 C319 1.401 . S
C320 C321 1.376 . S
C320 C329 1.511 . S
C321 C320 1.376 . S
C321 C322 1.392 . S
C321 H342 0.931 . S
C322 C321 1.392 . S
C322 C323 1.361 . S
C322 C324 1.500 . S
C323 C318 1.390 . S
C323 C322 1.361 . S
C323 H341 0.931 . S
C324 C322 1.500 . S
C324 C325 1.371 . S
C324 C326 1.365 . S
C325 C324 1.371 . S
C325 C335 1.386 . S
C325 H343 0.931 . S
C326 C324 1.365 . S
C326 C327 1.409 . S
C326 H344 0.929 . S
C327 C326 1.409 . S
C327 C328 1.380 . S
C327 H345 0.930 . S
C328 C327 1.380 . S
C328 C335 1.357 . S
C329 C320 1.511 . S
C329 C330 1.341 . S
C329 C331 1.371 . S
C330 C329 1.341 . S
C330 C334 1.394 . S
C330 H346 0.930 . S
C331 C329 1.371 . S
C331 C332 1.392 . S
C331 H347 0.931 . S
C332 C331 1.392 . S
C332 C333 1.331 . S
C332 H350 0.932 . S
C333 C332 1.331 . S
C333 C334 1.336 . S
C334 C330 1.394 . S
C334 C333 1.336 . S
C334 H349 0.929 . S
C335 C325 1.386 . S
C335 C328 1.357 . S
C335 H348 0.928 . S
H336 C312 0.931 . S
H337 C314 0.930 . S
H338 C316 0.929 . S
H339 C317 0.931 . S
H340 C319 0.930 . S
H341 C323 0.931 . S
H342 C321 0.931 . S
H343 C325 0.931 . S
H344 C326 0.929 . S
H345 C327 0.930 . S
H346 C330 0.930 . S
H347 C331 0.931 . S
H348 C335 0.928 . S
H349 C334 0.929 . S
H350 C332 0.932 . S
C351 C352 1.386 . S
C351 C353 1.397 . S
C351 H375 0.931 . S
C352 C351 1.386 . S
C352 C356 1.397 . S
C353 C351 1.397 . S
C353 C354 1.384 . S
C353 H376 0.930 . S
C354 C353 1.384 . S
C354 C355 1.377 . S
C354 C357 1.481 . S
C355 C354 1.377 . S
C355 C356 1.389 . S
C355 H377 0.929 . S
C356 C352 1.397 . S
C356 C355 1.389 . S
C356 H378 0.931 . S
C357 C354 1.481 . S
C357 C358 1.387 . S
C357 C362 1.390 . S
C358 C357 1.387 . S
C358 C359 1.401 . S
C358 H379 0.930 . S
C359 C358 1.401 . S
C359 C360 1.376 . S
C359 C368 1.511 . S
C360 C359 1.376 . S
C360 C361 1.392 . S
C360 H381 0.931 . S
C361 C360 1.392 . S
C361 C362 1.361 . S
C361 C363 1.500 . S
C362 C357 1.390 . S
C362 C361 1.361 . S
C362 H380 0.931 . S
C363 C361 1.500 . S
C363 C364 1.371 . S
C363 C365 1.365 . S
C364 C363 1.371 . S
C364 C374 1.386 . S
C364 H382 0.931 . S
C365 C363 1.365 . S
C365 C366 1.409 . S
C365 H383 0.929 . S
C366 C365 1.409 . S
C366 C367 1.380 . S
C366 H384 0.930 . S
C367 C366 1.380 . S
C367 C374 1.357 . S
C368 C359 1.511 . S
C368 C369 1.341 . S
C368 C370 1.371 . S
C369 C368 1.341 . S
C369 C373 1.394 . S
C369 H385 0.930 . S
C370 C368 1.371 . S
C370 C371 1.392 . S
C370 H386 0.931 . S
C371 C370 1.392 . S
C371 C372 1.331 . S
C371 H389 0.932 . S
C372 C371 1.331 . S
C372 C373 1.336 . S
C373 C369 1.394 . S
C373 C372 1.336 . S
C373 H388 0.929 . S
C374 C364 1.386 . S
C374 C367 1.357 . S
C374 H387 0.928 . S
H375 C351 0.931 . S
H376 C353 0.930 . S
H377 C355 0.929 . S
H378 C356 0.931 . S
H379 C358 0.930 . S
H380 C362 0.931 . S
H381 C360 0.931 . S
H382 C364 0.931 . S
H383 C365 0.929 . S
H384 C366 0.930 . S
H385 C369 0.930 . S
H386 C370 0.931 . S
H387 C374 0.928 . S
H388 C373 0.929 . S
H389 C371 0.932 . S
C390 C391 1.386 . S
C390 C392 1.397 . S
C390 H414 0.931 . S
C391 C390 1.386 . S
C391 C395 1.397 . S
C392 C390 1.397 . S
C392 C393 1.384 . S
C392 H415 0.930 . S
C393 C392 1.384 . S
C393 C394 1.377 . S
C393 C396 1.481 . S
C394 C393 1.377 . S
C394 C395 1.389 . S
C394 H416 0.929 . S
C395 C391 1.397 . S
C395 C394 1.389 . S
C395 H417 0.931 . S
C396 C393 1.481 . S
C396 C397 1.387 . S
C396 C401 1.390 . S
C397 C396 1.387 . S
C397 C398 1.401 . S
C397 H418 0.930 . S
C398 C397 1.401 . S
C398 C399 1.376 . S
C398 C407 1.511 . S
C399 C398 1.376 . S
C399 C400 1.392 . S
C399 H420 0.931 . S
C400 C399 1.392 . S
C400 C401 1.361 . S
C400 C402 1.500 . S
C401 C396 1.390 . S
C401 C400 1.361 . S
C401 H419 0.931 . S
C402 C400 1.500 . S
C402 C403 1.371 . S
C402 C404 1.365 . S
C403 C402 1.371 . S
C403 C413 1.386 . S
C403 H421 0.931 . S
C404 C402 1.365 . S
C404 C405 1.409 . S
C404 H422 0.929 . S
C405 C404 1.409 . S
C405 C406 1.380 . S
C405 H423 0.930 . S
C406 C405 1.380 . S
C406 C413 1.357 . S
C407 C398 1.511 . S
C407 C408 1.341 . S
C407 C409 1.371 . S
C408 C407 1.341 . S
C408 C412 1.394 . S
C408 H424 0.930 . S
C409 C407 1.371 . S
C409 C410 1.392 . S
C409 H425 0.931 . S
C410 C409 1.392 . S
C410 C411 1.331 . S
C410 H428 0.932 . S
C411 C410 1.331 . S
C411 C412 1.336 . S
C412 C408 1.394 . S
C412 C411 1.336 . S
C412 H427 0.929 . S
C413 C403 1.386 . S
C413 C406 1.357 . S
C413 H426 0.928 . S
H414 C390 0.931 . S
H415 C392 0.930 . S
H416 C394 0.929 . S
H417 C395 0.931 . S
H418 C397 0.930 . S
H419 C401 0.931 . S
H420 C399 0.931 . S
H421 C403 0.931 . S
H422 C404 0.929 . S
H423 C405 0.930 . S
H424 C408 0.930 . S
H425 C409 0.931 . S
H426 C413 0.928 . S
H427 C412 0.929 . S
H428 C410 0.932 . S
C429 C430 1.386 . S
C429 C431 1.397 . S
C429 H453 0.931 . S
C430 C429 1.386 . S
C430 C434 1.397 . S
C431 C429 1.397 . S
C431 C432 1.384 . S
C431 H454 0.930 . S
C432 C431 1.384 . S
C432 C433 1.377 . S
C432 C435 1.481 . S
C433 C432 1.377 . S
C433 C434 1.389 . S
C433 H455 0.929 . S
C434 C430 1.397 . S
C434 C433 1.389 . S
C434 H456 0.931 . S
C435 C432 1.481 . S
C435 C436 1.387 . S
C435 C440 1.390 . S
C436 C435 1.387 . S
C436 C437 1.401 . S
C436 H457 0.930 . S
C437 C436 1.401 . S
C437 C438 1.376 . S
C437 C446 1.511 . S
C438 C437 1.376 . S
C438 C439 1.392 . S
C438 H459 0.931 . S
C439 C438 1.392 . S
C439 C440 1.361 . S
C439 C441 1.500 . S
C440 C435 1.390 . S
C440 C439 1.361 . S
C440 H458 0.931 . S
C441 C439 1.500 . S
C441 C442 1.371 . S
C441 C443 1.365 . S
C442 C441 1.371 . S
C442 C452 1.386 . S
C442 H460 0.931 . S
C443 C441 1.365 . S
C443 C444 1.409 . S
C443 H461 0.929 . S
C444 C443 1.409 . S
C444 C445 1.380 . S
C444 H462 0.930 . S
C445 C444 1.380 . S
C445 C452 1.357 . S
C446 C437 1.511 . S
C446 C447 1.341 . S
C446 C448 1.371 . S
C447 C446 1.341 . S
C447 C451 1.394 . S
C447 H463 0.930 . S
C448 C446 1.371 . S
C448 C449 1.392 . S
C448 H464 0.931 . S
C449 C448 1.392 . S
C449 C450 1.331 . S
C449 H467 0.932 . S
C450 C449 1.331 . S
C450 C451 1.336 . S
C451 C447 1.394 . S
C451 C450 1.336 . S
C451 H466 0.929 . S
C452 C442 1.386 . S
C452 C445 1.357 . S
C452 H465 0.928 . S
H453 C429 0.931 . S
H454 C431 0.930 . S
H455 C433 0.929 . S
H456 C434 0.931 . S
H457 C436 0.930 . S
H458 C440 0.931 . S
H459 C438 0.931 . S
H460 C442 0.931 . S
H461 C443 0.929 . S
H462 C444 0.930 . S
H463 C447 0.930 . S
H464 C448 0.931 . S
H465 C452 0.928 . S
H466 C451 0.929 . S
H467 C449 0.932 . S
C468 C469 1.386 . S
C468 C470 1.397 . S
C468 H492 0.931 . S
C469 C468 1.386 . S
C469 C473 1.397 . S
C470 C468 1.397 . S
C470 C471 1.384 . S
C470 H493 0.930 . S
C471 C470 1.384 . S
C471 C472 1.377 . S
C471 C474 1.481 . S
C472 C471 1.377 . S
C472 C473 1.389 . S
C472 H494 0.929 . S
C473 C469 1.397 . S
C473 C472 1.389 . S
C473 H495 0.931 . S
C474 C471 1.481 . S
C474 C475 1.387 . S
C474 C479 1.390 . S
C475 C474 1.387 . S
C475 C476 1.401 . S
C475 H496 0.930 . S
C476 C475 1.401 . S
C476 C477 1.376 . S
C476 C485 1.511 . S
C477 C476 1.376 . S
C477 C478 1.392 . S
C477 H498 0.931 . S
C478 C477 1.392 . S
C478 C479 1.361 . S
C478 C480 1.500 . S
C479 C474 1.390 . S
C479 C478 1.361 . S
C479 H497 0.931 . S
C480 C478 1.500 . S
C480 C481 1.371 . S
C480 C482 1.365 . S
C481 C480 1.371 . S
C481 C491 1.386 . S
C481 H499 0.931 . S
C482 C480 1.365 . S
C482 C483 1.409 . S
C482 H500 0.929 . S
C483 C482 1.409 . S
C483 C484 1.380 . S
C483 H501 0.930 . S
C484 C483 1.380 . S
C484 C491 1.357 . S
C485 C476 1.511 . S
C485 C486 1.341 . S
C485 C487 1.371 . S
C486 C485 1.341 . S
C486 C490 1.394 . S
C486 H502 0.930 . S
C487 C485 1.371 . S
C487 C488 1.392 . S
C487 H503 0.931 . S
C488 C487 1.392 . S
C488 C489 1.331 . S
C488 H506 0.932 . S
C489 C488 1.331 . S
C489 C490 1.336 . S
C490 C486 1.394 . S
C490 C489 1.336 . S
C490 H505 0.929 . S
C491 C481 1.386 . S
C491 C484 1.357 . S
C491 H504 0.928 . S
H492 C468 0.931 . S
H493 C470 0.930 . S
H494 C472 0.929 . S
H495 C473 0.931 . S
H496 C475 0.930 . S
H497 C479 0.931 . S
H498 C477 0.931 . S
H499 C481 0.931 . S
H500 C482 0.929 . S
H501 C483 0.930 . S
H502 C486 0.930 . S
H503 C487 0.931 . S
H504 C491 0.928 . S
H505 C490 0.929 . S
H506 C488 0.932 . S
C507 C508 1.386 . S
C507 C509 1.397 . S
C507 H531 0.931 . S
C508 C507 1.386 . S
C508 C512 1.397 . S
C509 C507 1.397 . S
C509 C510 1.384 . S
C509 H532 0.930 . S
C510 C509 1.384 . S
C510 C511 1.377 . S
C510 C513 1.481 . S
C511 C510 1.377 . S
C511 C512 1.389 . S
C511 H533 0.929 . S
C512 C508 1.397 . S
C512 C511 1.389 . S
C512 H534 0.931 . S
C513 C510 1.481 . S
C513 C514 1.387 . S
C513 C518 1.390 . S
C514 C513 1.387 . S
C514 C515 1.401 . S
C514 H535 0.930 . S
C515 C514 1.401 . S
C515 C516 1.376 . S
C515 C524 1.511 . S
C516 C515 1.376 . S
C516 C517 1.392 . S
C516 H537 0.931 . S
C517 C516 1.392 . S
C517 C518 1.361 . S
C517 C519 1.500 . S
C518 C513 1.390 . S
C518 C517 1.361 . S
C518 H536 0.931 . S
C519 C517 1.500 . S
C519 C520 1.371 . S
C519 C521 1.365 . S
C520 C519 1.371 . S
C520 C530 1.386 . S
C520 H538 0.931 . S
C521 C519 1.365 . S
C521 C522 1.409 . S
C521 H539 0.929 . S
C522 C521 1.409 . S
C522 C523 1.380 . S
C522 H540 0.930 . S
C523 C522 1.380 . S
C523 C530 1.357 . S
C524 C515 1.511 . S
C524 C525 1.341 . S
C524 C526 1.371 . S
C525 C524 1.341 . S
C525 C529 1.394 . S
C525 H541 0.930 . S
C526 C524 1.371 . S
C526 C527 1.392 . S
C526 H542 0.931 . S
C527 C526 1.392 . S
C527 C528 1.331 . S
C527 H545 0.932 . S
C528 C527 1.331 . S
C528 C529 1.336 . S
C529 C525 1.394 . S
C529 C528 1.336 . S
C529 H544 0.929 . S
C530 C520 1.386 . S
C530 C523 1.357 . S
C530 H543 0.928 . S
H531 C507 0.931 . S
H532 C509 0.930 . S
H533 C511 0.929 . S
H534 C512 0.931 . S
H535 C514 0.930 . S
H536 C518 0.931 . S
H537 C516 0.931 . S
H538 C520 0.931 . S
H539 C521 0.929 . S
H540 C522 0.930 . S
H541 C525 0.930 . S
H542 C526 0.931 . S
H543 C530 0.928 . S
H544 C529 0.929 . S
H545 C527 0.932 . S
C546 C547 1.386 . S
C546 C548 1.397 . S
C546 H570 0.931 . S
C547 C546 1.386 . S
C547 C551 1.397 . S
C548 C546 1.397 . S
C548 C549 1.384 . S
C548 H571 0.930 . S
C549 C548 1.384 . S
C549 C550 1.377 . S
C549 C552 1.481 . S
C550 C549 1.377 . S
C550 C551 1.389 . S
C550 H572 0.929 . S
C551 C547 1.397 . S
C551 C550 1.389 . S
C551 H573 0.931 . S
C552 C549 1.481 . S
C552 C553 1.387 . S
C552 C557 1.390 . S
C553 C552 1.387 . S
C553 C554 1.401 . S
C553 H574 0.930 . S
C554 C553 1.401 . S
C554 C555 1.376 . S
C554 C563 1.511 . S
C555 C554 1.376 . S
C555 C556 1.392 . S
C555 H576 0.931 . S
C556 C555 1.392 . S
C556 C557 1.361 . S
C556 C558 1.500 . S
C557 C552 1.390 . S
C557 C556 1.361 . S
C557 H575 0.931 . S
C558 C556 1.500 . S
C558 C559 1.371 . S
C558 C560 1.365 . S
C559 C558 1.371 . S
C559 C569 1.386 . S
C559 H577 0.931 . S
C560 C558 1.365 . S
C560 C561 1.409 . S
C560 H578 0.929 . S
C561 C560 1.409 . S
C561 C562 1.380 . S
C561 H579 0.930 . S
C562 C561 1.380 . S
C562 C569 1.357 . S
C563 C554 1.511 . S
C563 C564 1.341 . S
C563 C565 1.371 . S
C564 C563 1.341 . S
C564 C568 1.394 . S
C564 H580 0.930 . S
C565 C563 1.371 . S
C565 C566 1.392 . S
C565 H581 0.931 . S
C566 C565 1.392 . S
C566 C567 1.331 . S
C566 H584 0.932 . S
C567 C566 1.331 . S
C567 C568 1.336 . S
C568 C564 1.394 . S
C568 C567 1.336 . S
C568 H583 0.929 . S
C569 C559 1.386 . S
C569 C562 1.357 . S
C569 H582 0.928 . S
H570 C546 0.931 . S
H571 C548 0.930 . S
H572 C550 0.929 . S
H573 C551 0.931 . S
H574 C553 0.930 . S
H575 C557 0.931 . S
H576 C555 0.931 . S
H577 C559 0.931 . S
H578 C560 0.929 . S
H579 C561 0.930 . S
H580 C564 0.930 . S
H581 C565 0.931 . S
H582 C569 0.928 . S
H583 C568 0.929 . S
H584 C566 0.932 . S
C585 C586 1.386 . S
C585 C587 1.397 . S
C585 H609 0.931 . S
C586 C585 1.386 . S
C586 C590 1.397 . S
C587 C585 1.397 . S
C587 C588 1.384 . S
C587 H610 0.930 . S
C588 C587 1.384 . S
C588 C589 1.377 . S
C588 C591 1.481 . S
C589 C588 1.377 . S
C589 C590 1.389 . S
C589 H611 0.929 . S
C590 C586 1.397 . S
C590 C589 1.389 . S
C590 H612 0.931 . S
C591 C588 1.481 . S
C591 C592 1.387 . S
C591 C596 1.390 . S
C592 C591 1.387 . S
C592 C593 1.401 . S
C592 H613 0.930 . S
C593 C592 1.401 . S
C593 C594 1.376 . S
C593 C602 1.511 . S
C594 C593 1.376 . S
C594 C595 1.392 . S
C594 H615 0.931 . S
C595 C594 1.392 . S
C595 C596 1.361 . S
C595 C597 1.500 . S
C596 C591 1.390 . S
C596 C595 1.361 . S
C596 H614 0.931 . S
C597 C595 1.500 . S
C597 C598 1.371 . S
C597 C599 1.365 . S
C598 C597 1.371 . S
C598 C608 1.386 . S
C598 H616 0.931 . S
C599 C597 1.365 . S
C599 C600 1.409 . S
C599 H617 0.929 . S
C600 C599 1.409 . S
C600 C601 1.380 . S
C600 H618 0.930 . S
C601 C600 1.380 . S
C601 C608 1.357 . S
C602 C593 1.511 . S
C602 C603 1.341 . S
C602 C604 1.371 . S
C603 C602 1.341 . S
C603 C607 1.394 . S
C603 H619 0.930 . S
C604 C602 1.371 . S
C604 C605 1.392 . S
C604 H620 0.931 . S
C605 C604 1.392 . S
C605 C606 1.331 . S
C605 H623 0.932 . S
C606 C605 1.331 . S
C606 C607 1.336 . S
C607 C603 1.394 . S
C607 C606 1.336 . S
C607 H622 0.929 . S
C608 C598 1.386 . S
C608 C601 1.357 . S
C608 H621 0.928 . S
H609 C585 0.931 . S
H610 C587 0.930 . S
H611 C589 0.929 . S
H612 C590 0.931 . S
H613 C592 0.930 . S
H614 C596 0.931 . S
H615 C594 0.931 . S
H616 C598 0.931 . S
H617 C599 0.929 . S
H618 C600 0.930 . S
H619 C603 0.930 . S
H620 C604 0.931 . S
H621 C608 0.928 . S
H622 C607 0.929 . S
H623 C605 0.932 . S
C624 C625 1.386 . S
C624 C626 1.397 . S
C624 H648 0.931 . S
C625 C624 1.386 . S
C625 C629 1.397 . S
C626 C624 1.397 . S
C626 C627 1.384 . S
C626 H649 0.930 . S
C627 C626 1.384 . S
C627 C628 1.377 . S
C627 C630 1.481 . S
C628 C627 1.377 . S
C628 C629 1.389 . S
C628 H650 0.929 . S
C629 C625 1.397 . S
C629 C628 1.389 . S
C629 H651 0.931 . S
C630 C627 1.481 . S
C630 C631 1.387 . S
C630 C635 1.390 . S
C631 C630 1.387 . S
C631 C632 1.401 . S
C631 H652 0.930 . S
C632 C631 1.401 . S
C632 C633 1.376 . S
C632 C641 1.511 . S
C633 C632 1.376 . S
C633 C634 1.392 . S
C633 H654 0.931 . S
C634 C633 1.392 . S
C634 C635 1.361 . S
C634 C636 1.500 . S
C635 C630 1.390 . S
C635 C634 1.361 . S
C635 H653 0.931 . S
C636 C634 1.500 . S
C636 C637 1.371 . S
C636 C638 1.365 . S
C637 C636 1.371 . S
C637 C647 1.386 . S
C637 H655 0.931 . S
C638 C636 1.365 . S
C638 C639 1.409 . S
C638 H656 0.929 . S
C639 C638 1.409 . S
C639 C640 1.380 . S
C639 H657 0.930 . S
C640 C639 1.380 . S
C640 C647 1.357 . S
C641 C632 1.511 . S
C641 C642 1.341 . S
C641 C643 1.371 . S
C642 C641 1.341 . S
C642 C646 1.394 . S
C642 H658 0.930 . S
C643 C641 1.371 . S
C643 C644 1.392 . S
C643 H659 0.931 . S
C644 C643 1.392 . S
C644 C645 1.331 . S
C644 H662 0.932 . S
C645 C644 1.331 . S
C645 C646 1.336 . S
C646 C642 1.394 . S
C646 C645 1.336 . S
C646 H661 0.929 . S
C647 C637 1.386 . S
C647 C640 1.357 . S
C647 H660 0.928 . S
H648 C624 0.931 . S
H649 C626 0.930 . S
H650 C628 0.929 . S
H651 C629 0.931 . S
H652 C631 0.930 . S
H653 C635 0.931 . S
H654 C633 0.931 . S
H655 C637 0.931 . S
H656 C638 0.929 . S
H657 C639 0.930 . S
H658 C642 0.930 . S
H659 C643 0.931 . S
H660 C647 0.928 . S
H661 C646 0.929 . S
H662 C644 0.932 . S
C663 C664 1.386 . S
C663 C665 1.397 . S
C663 H687 0.931 . S
C664 C663 1.386 . S
C664 C668 1.397 . S
C665 C663 1.397 . S
C665 C666 1.384 . S
C665 H688 0.930 . S
C666 C665 1.384 . S
C666 C667 1.377 . S
C666 C669 1.481 . S
C667 C666 1.377 . S
C667 C668 1.389 . S
C667 H689 0.929 . S
C668 C664 1.397 . S
C668 C667 1.389 . S
C668 H690 0.931 . S
C669 C666 1.481 . S
C669 C670 1.387 . S
C669 C674 1.390 . S
C670 C669 1.387 . S
C670 C671 1.401 . S
C670 H691 0.930 . S
C671 C670 1.401 . S
C671 C672 1.376 . S
C671 C680 1.511 . S
C672 C671 1.376 . S
C672 C673 1.392 . S
C672 H693 0.931 . S
C673 C672 1.392 . S
C673 C674 1.361 . S
C673 C675 1.500 . S
C674 C669 1.390 . S
C674 C673 1.361 . S
C674 H692 0.931 . S
C675 C673 1.500 . S
C675 C676 1.371 . S
C675 C677 1.365 . S
C676 C675 1.371 . S
C676 C686 1.386 . S
C676 H694 0.931 . S
C677 C675 1.365 . S
C677 C678 1.409 . S
C677 H695 0.929 . S
C678 C677 1.409 . S
C678 C679 1.380 . S
C678 H696 0.930 . S
C679 C678 1.380 . S
C679 C686 1.357 . S
C680 C671 1.511 . S
C680 C681 1.341 . S
C680 C682 1.371 . S
C681 C680 1.341 . S
C681 C685 1.394 . S
C681 H697 0.930 . S
C682 C680 1.371 . S
C682 C683 1.392 . S
C682 H698 0.931 . S
C683 C682 1.392 . S
C683 C684 1.331 . S
C683 H701 0.932 . S
C684 C683 1.331 . S
C684 C685 1.336 . S
C685 C681 1.394 . S
C685 C684 1.336 . S
C685 H700 0.929 . S
C686 C676 1.386 . S
C686 C679 1.357 . S
C686 H699 0.928 . S
H687 C663 0.931 . S
H688 C665 0.930 . S
H689 C667 0.929 . S
H690 C668 0.931 . S
H691 C670 0.930 . S
H692 C674 0.931 . S
H693 C672 0.931 . S
H694 C676 0.931 . S
H695 C677 0.929 . S
H696 C678 0.930 . S
H697 C681 0.930 . S
H698 C682 0.931 . S
H699 C686 0.928 . S
H700 C685 0.929 . S
H701 C683 0.932 . S
Gd702 N733 2.661 . S
Gd702 N739 2.601 . S
Gd702 O746 2.545 . S
Gd702 O747 2.606 1_545 S
Gd702 O749 2.429 . S
Gd702 O750 2.545 1_545 S
Gd702 O751 2.412 . S
Gd702 O753 2.362 1_554 S
Gd702 O754 2.324 1_545 S
Gd702 C761 2.828 . S
Gd703 N712 2.661 . S
Gd703 N716 2.601 . S
Gd703 O747 2.362 1_556 S
Gd703 O748 2.324 1_565 S
Gd703 O752 2.545 . S
Gd703 O753 2.606 1_565 S
Gd703 O755 2.429 . S
Gd703 O756 2.545 1_565 S
Gd703 O757 2.412 . S
Gd703 C770 2.828 . S
C704 C707 1.417 . S
C704 C709 1.431 . S
C704 C710 1.412 . S
C705 C708 1.437 . S
C705 C709 1.317 . S
C705 H724 0.929 . S
C706 C707 1.426 . S
C706 C708 1.413 . S
C706 N716 1.359 . S
C707 C704 1.417 . S
C707 C706 1.426 . S
C707 N712 1.350 . S
C708 C705 1.437 . S
C708 C706 1.413 . S
C708 C718 1.391 . S
C709 C704 1.431 . S
C709 C705 1.317 . S
C709 H720 0.930 . S
C710 C704 1.412 . S
C710 C711 1.355 . S
C710 H722 0.930 . S
C711 C710 1.355 . S
C711 C713 1.402 . S
C711 H723 0.930 . S
N712 Gd703 2.661 . S
N712 C707 1.350 . S
N712 C713 1.307 . S
C713 C711 1.402 . S
C713 N712 1.307 . S
C713 H714 0.930 . S
H714 C713 0.930 . S
C715 N716 1.334 . S
C715 C717 1.394 . S
C715 H719 0.930 . S
N716 Gd703 2.601 . S
N716 C706 1.359 . S
N716 C715 1.334 . S
C717 C715 1.394 . S
C717 C718 1.359 . S
C717 H729 0.930 . S
C718 C708 1.391 . S
C718 C717 1.359 . S
C718 H730 0.929 . S
H719 C715 0.930 . S
H720 C709 0.930 . S
H721 C738 0.930 . S
H722 C710 0.930 . S
H723 C711 0.930 . S
H724 C705 0.929 . S
H725 C743 0.930 . S
H726 C734 0.930 . S
H727 C735 0.930 . S
H728 C759 0.929 . S
H729 C717 0.930 . S
H730 C718 0.929 . S
H731 C760 0.930 . S
H732 C741 0.930 . S
N733 Gd702 2.661 . S
N733 C737 1.350 . S
N733 C738 1.307 . S
C734 H726 0.930 . S
C734 C735 1.355 . S
C734 C736 1.412 . S
C735 H727 0.930 . S
C735 C734 1.355 . S
C735 C738 1.402 . S
C736 C734 1.412 . S
C736 C737 1.417 . S
C736 C760 1.431 . S
C737 N733 1.350 . S
C737 C736 1.417 . S
C737 C740 1.426 . S
C738 H721 0.930 . S
C738 N733 1.307 . S
C738 C735 1.402 . S
N739 Gd702 2.601 . S
N739 C740 1.359 . S
N739 C743 1.334 . S
C740 C737 1.426 . S
C740 N739 1.359 . S
C740 C744 1.413 . S
C741 H732 0.930 . S
C741 C742 1.359 . S
C741 C743 1.394 . S
C742 C741 1.359 . S
C742 C744 1.391 . S
C742 H745 0.929 . S
C743 H725 0.930 . S
C743 N739 1.334 . S
C743 C741 1.394 . S
C744 C740 1.413 . S
C744 C742 1.391 . S
C744 C759 1.437 . S
H745 C742 0.929 . S
O746 Gd702 2.545 . S
O746 C761 1.258 . S
O747 Gd702 2.606 1_565 S
O747 Gd703 2.362 1_554 S
O747 C758 1.284 . S
O748 Gd703 2.324 1_545 S
O748 C768 1.254 . S
O749 Gd702 2.429 . S
O749 C768 1.268 1_554 S
O750 Gd702 2.545 1_565 S
O750 C758 1.250 . S
O751 Gd702 2.412 . S
O751 C761 1.252 . S
O752 Gd703 2.545 . S
O752 C770 1.258 . S
O753 Gd702 2.362 1_556 S
O753 Gd703 2.606 1_545 S
O753 C769 1.284 . S
O754 Gd702 2.324 1_565 S
O754 C777 1.254 . S
O755 Gd703 2.429 . S
O755 C777 1.268 1_556 S
O756 Gd703 2.545 1_545 S
O756 C769 1.250 . S
O757 Gd703 2.412 . S
O757 C770 1.252 . S
C758 O747 1.284 . S
C758 O750 1.250 . S
C759 H728 0.929 . S
C759 C744 1.437 . S
C759 C760 1.317 . S
C760 H731 0.930 . S
C760 C736 1.431 . S
C760 C759 1.317 . S
C761 Gd702 2.828 . S
C761 O746 1.258 . S
C761 O751 1.252 . S
C761 C762 1.497 . S
C762 C761 1.497 . S
C762 C763 1.395 . S
C762 C764 1.380 1_545 S
C763 C762 1.395 . S
C763 C766 1.398 . S
C763 H778 0.930 . S
C764 C762 1.380 1_565 S
C764 C765 1.391 . S
C764 H779 0.930 . S
C765 C764 1.391 . S
C765 C767 1.387 1_565 S
C766 C763 1.398 . S
C766 C767 1.380 . S
C766 H780 0.930 . S
C767 C765 1.387 1_545 S
C767 C766 1.380 . S
C767 H781 0.930 . S
C768 O748 1.254 . S
C768 O749 1.268 1_556 S
C769 O753 1.284 . S
C769 O756 1.250 . S
C770 Gd703 2.828 . S
C770 O752 1.258 . S
C770 O757 1.252 . S
C770 C771 1.497 . S
C771 C770 1.497 . S
C771 C772 1.395 . S
C771 C773 1.380 1_565 S
C772 C771 1.395 . S
C772 C775 1.398 . S
C772 H782 0.930 . S
C773 C771 1.380 1_545 S
C773 C774 1.391 . S
C773 H783 0.930 . S
C774 C773 1.391 . S
C774 C776 1.387 1_545 S
C775 C772 1.398 . S
C775 C776 1.380 . S
C775 H784 0.930 . S
C776 C774 1.387 1_565 S
C776 C775 1.380 . S
C776 H785 0.930 . S
C777 O754 1.254 . S
C777 O755 1.268 1_554 S
H778 C763 0.930 . S
H779 C764 0.930 . S
H780 C766 0.930 . S
H781 C767 0.930 . S
H782 C772 0.930 . S
H783 C773 0.930 . S
H784 C775 0.930 . S
H785 C776 0.930 . S
Gd786 N817 2.661 . S
Gd786 N823 2.601 . S
Gd786 O830 2.545 . S
Gd786 O831 2.606 1_655 S
Gd786 O833 2.429 . S
Gd786 O834 2.545 1_655 S
Gd786 O835 2.412 . S
Gd786 O837 2.362 1_554 S
Gd786 O838 2.324 1_655 S
Gd786 C845 2.828 . S
Gd787 N796 2.661 . S
Gd787 N800 2.601 . S
Gd787 O831 2.362 1_556 S
Gd787 O832 2.324 1_455 S
Gd787 O836 2.545 . S
Gd787 O837 2.606 1_455 S
Gd787 O839 2.429 . S
Gd787 O840 2.545 1_455 S
Gd787 O841 2.412 . S
Gd787 C854 2.828 . S
C788 C791 1.417 . S
C788 C793 1.431 . S
C788 C794 1.412 . S
C789 C792 1.437 . S
C789 C793 1.317 . S
C789 H808 0.929 . S
C790 C791 1.426 . S
C790 C792 1.413 . S
C790 N800 1.359 . S
C791 C788 1.417 . S
C791 C790 1.426 . S
C791 N796 1.350 . S
C792 C789 1.437 . S
C792 C790 1.413 . S
C792 C802 1.391 . S
C793 C788 1.431 . S
C793 C789 1.317 . S
C793 H804 0.930 . S
C794 C788 1.412 . S
C794 C795 1.355 . S
C794 H806 0.930 . S
C795 C794 1.355 . S
C795 C797 1.402 . S
C795 H807 0.930 . S
N796 Gd787 2.661 . S
N796 C791 1.350 . S
N796 C797 1.307 . S
C797 C795 1.402 . S
C797 N796 1.307 . S
C797 H798 0.930 . S
H798 C797 0.930 . S
C799 N800 1.334 . S
C799 C801 1.394 . S
C799 H803 0.930 . S
N800 Gd787 2.601 . S
N800 C790 1.359 . S
N800 C799 1.334 . S
C801 C799 1.394 . S
C801 C802 1.359 . S
C801 H813 0.930 . S
C802 C792 1.391 . S
C802 C801 1.359 . S
C802 H814 0.929 . S
H803 C799 0.930 . S
H804 C793 0.930 . S
H805 C822 0.930 . S
H806 C794 0.930 . S
H807 C795 0.930 . S
H808 C789 0.929 . S
H809 C827 0.930 . S
H810 C818 0.930 . S
H811 C819 0.930 . S
H812 C843 0.929 . S
H813 C801 0.930 . S
H814 C802 0.929 . S
H815 C844 0.930 . S
H816 C825 0.930 . S
N817 Gd786 2.661 . S
N817 C821 1.350 . S
N817 C822 1.307 . S
C818 H810 0.930 . S
C818 C819 1.355 . S
C818 C820 1.412 . S
C819 H811 0.930 . S
C819 C818 1.355 . S
C819 C822 1.402 . S
C820 C818 1.412 . S
C820 C821 1.417 . S
C820 C844 1.431 . S
C821 N817 1.350 . S
C821 C820 1.417 . S
C821 C824 1.426 . S
C822 H805 0.930 . S
C822 N817 1.307 . S
C822 C819 1.402 . S
N823 Gd786 2.601 . S
N823 C824 1.359 . S
N823 C827 1.334 . S
C824 C821 1.426 . S
C824 N823 1.359 . S
C824 C828 1.413 . S
C825 H816 0.930 . S
C825 C826 1.359 . S
C825 C827 1.394 . S
C826 C825 1.359 . S
C826 C828 1.391 . S
C826 H829 0.929 . S
C827 H809 0.930 . S
C827 N823 1.334 . S
C827 C825 1.394 . S
C828 C824 1.413 . S
C828 C826 1.391 . S
C828 C843 1.437 . S
H829 C826 0.929 . S
O830 Gd786 2.545 . S
O830 C845 1.258 . S
O831 Gd786 2.606 1_455 S
O831 Gd787 2.362 1_554 S
O831 C842 1.284 . S
O832 Gd787 2.324 1_655 S
O832 C852 1.254 . S
O833 Gd786 2.429 . S
O833 C852 1.268 1_554 S
O834 Gd786 2.545 1_455 S
O834 C842 1.250 . S
O835 Gd786 2.412 . S
O835 C845 1.252 . S
O836 Gd787 2.545 . S
O836 C854 1.258 . S
O837 Gd786 2.362 1_556 S
O837 Gd787 2.606 1_655 S
O837 C853 1.284 . S
O838 Gd786 2.324 1_455 S
O838 C861 1.254 . S
O839 Gd787 2.429 . S
O839 C861 1.268 1_556 S
O840 Gd787 2.545 1_655 S
O840 C853 1.250 . S
O841 Gd787 2.412 . S
O841 C854 1.252 . S
C842 O831 1.284 . S
C842 O834 1.250 . S
C843 H812 0.929 . S
C843 C828 1.437 . S
C843 C844 1.317 . S
C844 H815 0.930 . S
C844 C820 1.431 . S
C844 C843 1.317 . S
C845 Gd786 2.828 . S
C845 O830 1.258 . S
C845 O835 1.252 . S
C845 C846 1.497 . S
C846 C845 1.497 . S
C846 C847 1.395 . S
C846 C848 1.380 1_655 S
C847 C846 1.395 . S
C847 C850 1.398 . S
C847 H862 0.930 . S
C848 C846 1.380 1_455 S
C848 C849 1.391 . S
C848 H863 0.930 . S
C849 C848 1.391 . S
C849 C851 1.387 1_455 S
C850 C847 1.398 . S
C850 C851 1.380 . S
C850 H864 0.930 . S
C851 C849 1.387 1_655 S
C851 C850 1.380 . S
C851 H865 0.930 . S
C852 O832 1.254 . S
C852 O833 1.268 1_556 S
C853 O837 1.284 . S
C853 O840 1.250 . S
C854 Gd787 2.828 . S
C854 O836 1.258 . S
C854 O841 1.252 . S
C854 C855 1.497 . S
C855 C854 1.497 . S
C855 C856 1.395 . S
C855 C857 1.380 1_455 S
C856 C855 1.395 . S
C856 C859 1.398 . S
C856 H866 0.930 . S
C857 C855 1.380 1_655 S
C857 C858 1.391 . S
C857 H867 0.930 . S
C858 C857 1.391 . S
C858 C860 1.387 1_655 S
C859 C856 1.398 . S
C859 C860 1.380 . S
C859 H868 0.930 . S
C860 C858 1.387 1_455 S
C860 C859 1.380 . S
C860 H869 0.930 . S
C861 O838 1.254 . S
C861 O839 1.268 1_554 S
H862 C847 0.930 . S
H863 C848 0.930 . S
H864 C850 0.930 . S
H865 C851 0.930 . S
H866 C856 0.930 . S
H867 C857 0.930 . S
H868 C859 0.930 . S
H869 C860 0.930 . S
Gd870 N901 2.661 . S
Gd870 N907 2.601 . S
Gd870 O914 2.545 . S
Gd870 O915 2.606 . S
Gd870 O917 2.429 . S
Gd870 O918 2.545 . S
Gd870 O919 2.412 . S
Gd870 O921 2.362 1_556 S
Gd870 O922 2.324 . S
Gd870 C929 2.828 . S
Gd871 N880 2.661 . S
Gd871 N884 2.601 . S
Gd871 O915 2.362 1_554 S
Gd871 O916 2.324 . S
Gd871 O920 2.545 . S
Gd871 O921 2.606 . S
Gd871 O923 2.429 . S
Gd871 O924 2.545 . S
Gd871 O925 2.412 . S
Gd871 C938 2.828 . S
C872 C875 1.417 . S
C872 C877 1.431 . S
C872 C878 1.412 . S
C873 C876 1.437 . S
C873 C877 1.317 . S
C873 H892 0.929 . S
C874 C875 1.426 . S
C874 C876 1.413 . S
C874 N884 1.359 . S
C875 C872 1.417 . S
C875 C874 1.426 . S
C875 N880 1.350 . S
C876 C873 1.437 . S
C876 C874 1.413 . S
C876 C886 1.391 . S
C877 C872 1.431 . S
C877 C873 1.317 . S
C877 H888 0.930 . S
C878 C872 1.412 . S
C878 C879 1.355 . S
C878 H890 0.930 . S
C879 C878 1.355 . S
C879 C881 1.402 . S
C879 H891 0.930 . S
N880 Gd871 2.661 . S
N880 C875 1.350 . S
N880 C881 1.307 . S
C881 C879 1.402 . S
C881 N880 1.307 . S
C881 H882 0.930 . S
H882 C881 0.930 . S
C883 N884 1.334 . S
C883 C885 1.394 . S
C883 H887 0.930 . S
N884 Gd871 2.601 . S
N884 C874 1.359 . S
N884 C883 1.334 . S
C885 C883 1.394 . S
C885 C886 1.359 . S
C885 H897 0.930 . S
C886 C876 1.391 . S
C886 C885 1.359 . S
C886 H898 0.929 . S
H887 C883 0.930 . S
H888 C877 0.930 . S
H889 C906 0.930 . S
H890 C878 0.930 . S
H891 C879 0.930 . S
H892 C873 0.929 . S
H893 C911 0.930 . S
H894 C902 0.930 . S
H895 C903 0.930 . S
H896 C927 0.929 . S
H897 C885 0.930 . S
H898 C886 0.929 . S
H899 C928 0.930 . S
H900 C909 0.930 . S
N901 Gd870 2.661 . S
N901 C905 1.350 . S
N901 C906 1.307 . S
C902 H894 0.930 . S
C902 C903 1.355 . S
C902 C904 1.412 . S
C903 H895 0.930 . S
C903 C902 1.355 . S
C903 C906 1.402 . S
C904 C902 1.412 . S
C904 C905 1.417 . S
C904 C928 1.431 . S
C905 N901 1.350 . S
C905 C904 1.417 . S
C905 C908 1.426 . S
C906 H889 0.930 . S
C906 N901 1.307 . S
C906 C903 1.402 . S
N907 Gd870 2.601 . S
N907 C908 1.359 . S
N907 C911 1.334 . S
C908 C905 1.426 . S
C908 N907 1.359 . S
C908 C912 1.413 . S
C909 H900 0.930 . S
C909 C910 1.359 . S
C909 C911 1.394 . S
C910 C909 1.359 . S
C910 C912 1.391 . S
C910 H913 0.929 . S
C911 H893 0.930 . S
C911 N907 1.334 . S
C911 C909 1.394 . S
C912 C908 1.413 . S
C912 C910 1.391 . S
C912 C927 1.437 . S
H913 C910 0.929 . S
O914 Gd870 2.545 . S
O914 C929 1.258 . S
O915 Gd870 2.606 . S
O915 Gd871 2.362 1_556 S
O915 C926 1.284 . S
O916 Gd871 2.324 . S
O916 C936 1.254 . S
O917 Gd870 2.429 . S
O917 C936 1.268 1_556 S
O918 Gd870 2.545 . S
O918 C926 1.250 . S
O919 Gd870 2.412 . S
O919 C929 1.252 . S
O920 Gd871 2.545 . S
O920 C938 1.258 . S
O921 Gd870 2.362 1_554 S
O921 Gd871 2.606 . S
O921 C937 1.284 . S
O922 Gd870 2.324 . S
O922 C945 1.254 . S
O923 Gd871 2.429 . S
O923 C945 1.268 1_554 S
O924 Gd871 2.545 . S
O924 C937 1.250 . S
O925 Gd871 2.412 . S
O925 C938 1.252 . S
C926 O915 1.284 . S
C926 O918 1.250 . S
C927 H896 0.929 . S
C927 C912 1.437 . S
C927 C928 1.317 . S
C928 H899 0.930 . S
C928 C904 1.431 . S
C928 C927 1.317 . S
C929 Gd870 2.828 . S
C929 O914 1.258 . S
C929 O919 1.252 . S
C929 C930 1.497 . S
C930 C929 1.497 . S
C930 C931 1.395 . S
C930 C932 1.380 . S
C931 C930 1.395 . S
C931 C934 1.398 . S
C931 H946 0.930 . S
C932 C930 1.380 . S
C932 C933 1.391 . S
C932 H947 0.930 . S
C933 C932 1.391 . S
C933 C935 1.387 . S
C934 C931 1.398 . S
C934 C935 1.380 . S
C934 H948 0.930 . S
C935 C933 1.387 . S
C935 C934 1.380 . S
C935 H949 0.930 . S
C936 O916 1.254 . S
C936 O917 1.268 1_554 S
C937 O921 1.284 . S
C937 O924 1.250 . S
C938 Gd871 2.828 . S
C938 O920 1.258 . S
C938 O925 1.252 . S
C938 C939 1.497 . S
C939 C938 1.497 . S
C939 C940 1.395 . S
C939 C941 1.380 . S
C940 C939 1.395 . S
C940 C943 1.398 . S
C940 H950 0.930 . S
C941 C939 1.380 . S
C941 C942 1.391 . S
C941 H951 0.930 . S
C942 C941 1.391 . S
C942 C944 1.387 . S
C943 C940 1.398 . S
C943 C944 1.380 . S
C943 H952 0.930 . S
C944 C942 1.387 . S
C944 C943 1.380 . S
C944 H953 0.930 . S
C945 O922 1.254 . S
C945 O923 1.268 1_556 S
H946 C931 0.930 . S
H947 C932 0.930 . S
H948 C934 0.930 . S
H949 C935 0.930 . S
H950 C940 0.930 . S
H951 C941 0.930 . S
H952 C943 0.930 . S
H953 C944 0.930 . S
Gd954 N985 2.661 . S
Gd954 N991 2.601 . S
Gd954 O998 2.545 . S
Gd954 O999 2.606 . S
Gd954 O1001 2.429 . S
Gd954 O1002 2.545 . S
Gd954 O1003 2.412 . S
Gd954 O1005 2.362 . S
Gd954 O1006 2.324 . S
Gd954 C1013 2.828 . S
Gd955 N964 2.661 . S
Gd955 N968 2.601 . S
Gd955 O999 2.362 . S
Gd955 O1000 2.324 . S
Gd955 O1004 2.545 . S
Gd955 O1005 2.606 . S
Gd955 O1007 2.429 . S
Gd955 O1008 2.545 . S
Gd955 O1009 2.412 . S
Gd955 C1022 2.828 . S
C956 C959 1.417 . S
C956 C961 1.431 . S
C956 C962 1.412 . S
C957 C960 1.437 . S
C957 C961 1.317 . S
C957 H976 0.929 . S
C958 C959 1.426 . S
C958 C960 1.413 . S
C958 N968 1.359 . S
C959 C956 1.417 . S
C959 C958 1.426 . S
C959 N964 1.350 . S
C960 C957 1.437 . S
C960 C958 1.413 . S
C960 C970 1.391 . S
C961 C956 1.431 . S
C961 C957 1.317 . S
C961 H972 0.930 . S
C962 C956 1.412 . S
C962 C963 1.355 . S
C962 H974 0.930 . S
C963 C962 1.355 . S
C963 C965 1.402 . S
C963 H975 0.930 . S
N964 Gd955 2.661 . S
N964 C959 1.350 . S
N964 C965 1.307 . S
C965 C963 1.402 . S
C965 N964 1.307 . S
C965 H966 0.930 . S
H966 C965 0.930 . S
C967 N968 1.334 . S
C967 C969 1.394 . S
C967 H971 0.930 . S
N968 Gd955 2.601 . S
N968 C958 1.359 . S
N968 C967 1.334 . S
C969 C967 1.394 . S
C969 C970 1.359 . S
C969 H981 0.930 . S
C970 C960 1.391 . S
C970 C969 1.359 . S
C970 H982 0.929 . S
H971 C967 0.930 . S
H972 C961 0.930 . S
H973 C990 0.930 . S
H974 C962 0.930 . S
H975 C963 0.930 . S
H976 C957 0.929 . S
H977 C995 0.930 . S
H978 C986 0.930 . S
H979 C987 0.930 . S
H980 C1011 0.929 . S
H981 C969 0.930 . S
H982 C970 0.929 . S
H983 C1012 0.930 . S
H984 C993 0.930 . S
N985 Gd954 2.661 . S
N985 C989 1.350 . S
N985 C990 1.307 . S
C986 H978 0.930 . S
C986 C987 1.355 . S
C986 C988 1.412 . S
C987 H979 0.930 . S
C987 C986 1.355 . S
C987 C990 1.402 . S
C988 C986 1.412 . S
C988 C989 1.417 . S
C988 C1012 1.431 . S
C989 N985 1.350 . S
C989 C988 1.417 . S
C989 C992 1.426 . S
C990 H973 0.930 . S
C990 N985 1.307 . S
C990 C987 1.402 . S
N991 Gd954 2.601 . S
N991 C992 1.359 . S
N991 C995 1.334 . S
C992 C989 1.426 . S
C992 N991 1.359 . S
C992 C996 1.413 . S
C993 H984 0.930 . S
C993 C994 1.359 . S
C993 C995 1.394 . S
C994 C993 1.359 . S
C994 C996 1.391 . S
C994 H997 0.929 . S
C995 H977 0.930 . S
C995 N991 1.334 . S
C995 C993 1.394 . S
C996 C992 1.413 . S
C996 C994 1.391 . S
C996 C1011 1.437 . S
H997 C994 0.929 . S
O998 Gd954 2.545 . S
O998 C1013 1.258 . S
O999 Gd954 2.606 . S
O999 Gd955 2.362 . S
O999 C1010 1.284 . S
O1000 Gd955 2.324 . S
O1000 C1020 1.254 . S
O1001 Gd954 2.429 . S
O1001 C1020 1.268 . S
O1002 Gd954 2.545 . S
O1002 C1010 1.250 . S
O1003 Gd954 2.412 . S
O1003 C1013 1.252 . S
O1004 Gd955 2.545 . S
O1004 C1022 1.258 . S
O1005 Gd954 2.362 . S
O1005 Gd955 2.606 . S
O1005 C1021 1.284 . S
O1006 Gd954 2.324 . S
O1006 C1029 1.254 . S
O1007 Gd955 2.429 . S
O1007 C1029 1.268 . S
O1008 Gd955 2.545 . S
O1008 C1021 1.250 . S
O1009 Gd955 2.412 . S
O1009 C1022 1.252 . S
C1010 O999 1.284 . S
C1010 O1002 1.250 . S
C1011 H980 0.929 . S
C1011 C996 1.437 . S
C1011 C1012 1.317 . S
C1012 H983 0.930 . S
C1012 C988 1.431 . S
C1012 C1011 1.317 . S
C1013 Gd954 2.828 . S
C1013 O998 1.258 . S
C1013 O1003 1.252 . S
C1013 C1014 1.497 . S
C1014 C1013 1.497 . S
C1014 C1015 1.395 . S
C1014 C1016 1.380 . S
C1015 C1014 1.395 . S
C1015 C1018 1.398 . S
C1015 H1030 0.930 . S
C1016 C1014 1.380 . S
C1016 C1017 1.391 . S
C1016 H1031 0.930 . S
C1017 C1016 1.391 . S
C1017 C1019 1.387 . S
C1018 C1015 1.398 . S
C1018 C1019 1.380 . S
C1018 H1032 0.930 . S
C1019 C1017 1.387 . S
C1019 C1018 1.380 . S
C1019 H1033 0.930 . S
C1020 O1000 1.254 . S
C1020 O1001 1.268 . S
C1021 O1005 1.284 . S
C1021 O1008 1.250 . S
C1022 Gd955 2.828 . S
C1022 O1004 1.258 . S
C1022 O1009 1.252 . S
C1022 C1023 1.497 . S
C1023 C1022 1.497 . S
C1023 C1024 1.395 . S
C1023 C1025 1.380 . S
C1024 C1023 1.395 . S
C1024 C1027 1.398 . S
C1024 H1034 0.930 . S
C1025 C1023 1.380 . S
C1025 C1026 1.391 . S
C1025 H1035 0.930 . S
C1026 C1025 1.391 . S
C1026 C1028 1.387 . S
C1027 C1024 1.398 . S
C1027 C1028 1.380 . S
C1027 H1036 0.930 . S
C1028 C1026 1.387 . S
C1028 C1027 1.380 . S
C1028 H1037 0.930 . S
C1029 O1006 1.254 . S
C1029 O1007 1.268 . S
H1030 C1015 0.930 . S
H1031 C1016 0.930 . S
H1032 C1018 0.930 . S
H1033 C1019 0.930 . S
H1034 C1024 0.930 . S
H1035 C1025 0.930 . S
H1036 C1027 0.930 . S
H1037 C1028 0.930 . S
Gd1038 N1069 2.661 . S
Gd1038 N1075 2.601 . S
Gd1038 O1082 2.545 . S
Gd1038 O1083 2.606 . S
Gd1038 O1085 2.429 . S
Gd1038 O1086 2.545 . S
Gd1038 O1087 2.412 . S
Gd1038 O1089 2.362 . S
Gd1038 O1090 2.324 . S
Gd1038 C1097 2.828 . S
Gd1039 N1048 2.661 . S
Gd1039 N1052 2.601 . S
Gd1039 O1083 2.362 . S
Gd1039 O1084 2.324 . S
Gd1039 O1088 2.545 . S
Gd1039 O1089 2.606 . S
Gd1039 O1091 2.429 . S
Gd1039 O1092 2.545 . S
Gd1039 O1093 2.412 . S
Gd1039 C1106 2.828 . S
C1040 C1043 1.417 . S
C1040 C1045 1.431 . S
C1040 C1046 1.412 . S
C1041 C1044 1.437 . S
C1041 C1045 1.317 . S
C1041 H1060 0.929 . S
C1042 C1043 1.426 . S
C1042 C1044 1.413 . S
C1042 N1052 1.359 . S
C1043 C1040 1.417 . S
C1043 C1042 1.426 . S
C1043 N1048 1.350 . S
C1044 C1041 1.437 . S
C1044 C1042 1.413 . S
C1044 C1054 1.391 . S
C1045 C1040 1.431 . S
C1045 C1041 1.317 . S
C1045 H1056 0.930 . S
C1046 C1040 1.412 . S
C1046 C1047 1.355 . S
C1046 H1058 0.930 . S
C1047 C1046 1.355 . S
C1047 C1049 1.402 . S
C1047 H1059 0.930 . S
N1048 Gd1039 2.661 . S
N1048 C1043 1.350 . S
N1048 C1049 1.307 . S
C1049 C1047 1.402 . S
C1049 N1048 1.307 . S
C1049 H1050 0.930 . S
H1050 C1049 0.930 . S
C1051 N1052 1.334 . S
C1051 C1053 1.394 . S
C1051 H1055 0.930 . S
N1052 Gd1039 2.601 . S
N1052 C1042 1.359 . S
N1052 C1051 1.334 . S
C1053 C1051 1.394 . S
C1053 C1054 1.359 . S
C1053 H1065 0.930 . S
C1054 C1044 1.391 . S
C1054 C1053 1.359 . S
C1054 H1066 0.929 . S
H1055 C1051 0.930 . S
H1056 C1045 0.930 . S
H1057 C1074 0.930 . S
H1058 C1046 0.930 . S
H1059 C1047 0.930 . S
H1060 C1041 0.929 . S
H1061 C1079 0.930 . S
H1062 C1070 0.930 . S
H1063 C1071 0.930 . S
H1064 C1095 0.929 . S
H1065 C1053 0.930 . S
H1066 C1054 0.929 . S
H1067 C1096 0.930 . S
H1068 C1077 0.930 . S
N1069 Gd1038 2.661 . S
N1069 C1073 1.350 . S
N1069 C1074 1.307 . S
C1070 H1062 0.930 . S
C1070 C1071 1.355 . S
C1070 C1072 1.412 . S
C1071 H1063 0.930 . S
C1071 C1070 1.355 . S
C1071 C1074 1.402 . S
C1072 C1070 1.412 . S
C1072 C1073 1.417 . S
C1072 C1096 1.431 . S
C1073 N1069 1.350 . S
C1073 C1072 1.417 . S
C1073 C1076 1.426 . S
C1074 H1057 0.930 . S
C1074 N1069 1.307 . S
C1074 C1071 1.402 . S
N1075 Gd1038 2.601 . S
N1075 C1076 1.359 . S
N1075 C1079 1.334 . S
C1076 C1073 1.426 . S
C1076 N1075 1.359 . S
C1076 C1080 1.413 . S
C1077 H1068 0.930 . S
C1077 C1078 1.359 . S
C1077 C1079 1.394 . S
C1078 C1077 1.359 . S
C1078 C1080 1.391 . S
C1078 H1081 0.929 . S
C1079 H1061 0.930 . S
C1079 N1075 1.334 . S
C1079 C1077 1.394 . S
C1080 C1076 1.413 . S
C1080 C1078 1.391 . S
C1080 C1095 1.437 . S
H1081 C1078 0.929 . S
O1082 Gd1038 2.545 . S
O1082 C1097 1.258 . S
O1083 Gd1038 2.606 . S
O1083 Gd1039 2.362 . S
O1083 C1094 1.284 . S
O1084 Gd1039 2.324 . S
O1084 C1104 1.254 . S
O1085 Gd1038 2.429 . S
O1085 C1104 1.268 . S
O1086 Gd1038 2.545 . S
O1086 C1094 1.250 . S
O1087 Gd1038 2.412 . S
O1087 C1097 1.252 . S
O1088 Gd1039 2.545 . S
O1088 C1106 1.258 . S
O1089 Gd1038 2.362 . S
O1089 Gd1039 2.606 . S
O1089 C1105 1.284 . S
O1090 Gd1038 2.324 . S
O1090 C1113 1.254 . S
O1091 Gd1039 2.429 . S
O1091 C1113 1.268 . S
O1092 Gd1039 2.545 . S
O1092 C1105 1.250 . S
O1093 Gd1039 2.412 . S
O1093 C1106 1.252 . S
C1094 O1083 1.284 . S
C1094 O1086 1.250 . S
C1095 H1064 0.929 . S
C1095 C1080 1.437 . S
C1095 C1096 1.317 . S
C1096 H1067 0.930 . S
C1096 C1072 1.431 . S
C1096 C1095 1.317 . S
C1097 Gd1038 2.828 . S
C1097 O1082 1.258 . S
C1097 O1087 1.252 . S
C1097 C1098 1.497 . S
C1098 C1097 1.497 . S
C1098 C1099 1.395 . S
C1098 C1100 1.380 . S
C1099 C1098 1.395 . S
C1099 C1102 1.398 . S
C1099 H1114 0.930 . S
C1100 C1098 1.380 . S
C1100 C1101 1.391 . S
C1100 H1115 0.930 . S
C1101 C1100 1.391 . S
C1101 C1103 1.387 . S
C1102 C1099 1.398 . S
C1102 C1103 1.380 . S
C1102 H1116 0.930 . S
C1103 C1101 1.387 . S
C1103 C1102 1.380 . S
C1103 H1117 0.930 . S
C1104 O1084 1.254 . S
C1104 O1085 1.268 . S
C1105 O1089 1.284 . S
C1105 O1092 1.250 . S
C1106 Gd1039 2.828 . S
C1106 O1088 1.258 . S
C1106 O1093 1.252 . S
C1106 C1107 1.497 . S
C1107 C1106 1.497 . S
C1107 C1108 1.395 . S
C1107 C1109 1.380 . S
C1108 C1107 1.395 . S
C1108 C1111 1.398 . S
C1108 H1118 0.930 . S
C1109 C1107 1.380 . S
C1109 C1110 1.391 . S
C1109 H1119 0.930 . S
C1110 C1109 1.391 . S
C1110 C1112 1.387 . S
C1111 C1108 1.398 . S
C1111 C1112 1.380 . S
C1111 H1120 0.930 . S
C1112 C1110 1.387 . S
C1112 C1111 1.380 . S
C1112 H1121 0.930 . S
C1113 O1090 1.254 . S
C1113 O1091 1.268 . S
H1114 C1099 0.930 . S
H1115 C1100 0.930 . S
H1116 C1102 0.930 . S
H1117 C1103 0.930 . S
H1118 C1108 0.930 . S
H1119 C1109 0.930 . S
H1120 C1111 0.930 . S
H1121 C1112 0.930 . S
Gd1122 N1153 2.661 . S
Gd1122 N1159 2.601 . S
Gd1122 O1166 2.545 . S
Gd1122 O1167 2.606 . S
Gd1122 O1169 2.429 . S
Gd1122 O1170 2.545 . S
Gd1122 O1171 2.412 . S
Gd1122 O1173 2.362 . S
Gd1122 O1174 2.324 . S
Gd1122 C1181 2.828 . S
Gd1123 N1132 2.661 . S
Gd1123 N1136 2.601 . S
Gd1123 O1167 2.362 . S
Gd1123 O1168 2.324 . S
Gd1123 O1172 2.545 . S
Gd1123 O1173 2.606 . S
Gd1123 O1175 2.429 . S
Gd1123 O1176 2.545 . S
Gd1123 O1177 2.412 . S
Gd1123 C1190 2.828 . S
C1124 C1127 1.417 . S
C1124 C1129 1.431 . S
C1124 C1130 1.412 . S
C1125 C1128 1.437 . S
C1125 C1129 1.317 . S
C1125 H1144 0.929 . S
C1126 C1127 1.426 . S
C1126 C1128 1.413 . S
C1126 N1136 1.359 . S
C1127 C1124 1.417 . S
C1127 C1126 1.426 . S
C1127 N1132 1.350 . S
C1128 C1125 1.437 . S
C1128 C1126 1.413 . S
C1128 C1138 1.391 . S
C1129 C1124 1.431 . S
C1129 C1125 1.317 . S
C1129 H1140 0.930 . S
C1130 C1124 1.412 . S
C1130 C1131 1.355 . S
C1130 H1142 0.930 . S
C1131 C1130 1.355 . S
C1131 C1133 1.402 . S
C1131 H1143 0.930 . S
N1132 Gd1123 2.661 . S
N1132 C1127 1.350 . S
N1132 C1133 1.307 . S
C1133 C1131 1.402 . S
C1133 N1132 1.307 . S
C1133 H1134 0.930 . S
H1134 C1133 0.930 . S
C1135 N1136 1.334 . S
C1135 C1137 1.394 . S
C1135 H1139 0.930 . S
N1136 Gd1123 2.601 . S
N1136 C1126 1.359 . S
N1136 C1135 1.334 . S
C1137 C1135 1.394 . S
C1137 C1138 1.359 . S
C1137 H1149 0.930 . S
C1138 C1128 1.391 . S
C1138 C1137 1.359 . S
C1138 H1150 0.929 . S
H1139 C1135 0.930 . S
H1140 C1129 0.930 . S
H1141 C1158 0.930 . S
H1142 C1130 0.930 . S
H1143 C1131 0.930 . S
H1144 C1125 0.929 . S
H1145 C1163 0.930 . S
H1146 C1154 0.930 . S
H1147 C1155 0.930 . S
H1148 C1179 0.929 . S
H1149 C1137 0.930 . S
H1150 C1138 0.929 . S
H1151 C1180 0.930 . S
H1152 C1161 0.930 . S
N1153 Gd1122 2.661 . S
N1153 C1157 1.350 . S
N1153 C1158 1.307 . S
C1154 H1146 0.930 . S
C1154 C1155 1.355 . S
C1154 C1156 1.412 . S
C1155 H1147 0.930 . S
C1155 C1154 1.355 . S
C1155 C1158 1.402 . S
C1156 C1154 1.412 . S
C1156 C1157 1.417 . S
C1156 C1180 1.431 . S
C1157 N1153 1.350 . S
C1157 C1156 1.417 . S
C1157 C1160 1.426 . S
C1158 H1141 0.930 . S
C1158 N1153 1.307 . S
C1158 C1155 1.402 . S
N1159 Gd1122 2.601 . S
N1159 C1160 1.359 . S
N1159 C1163 1.334 . S
C1160 C1157 1.426 . S
C1160 N1159 1.359 . S
C1160 C1164 1.413 . S
C1161 H1152 0.930 . S
C1161 C1162 1.359 . S
C1161 C1163 1.394 . S
C1162 C1161 1.359 . S
C1162 C1164 1.391 . S
C1162 H1165 0.929 . S
C1163 H1145 0.930 . S
C1163 N1159 1.334 . S
C1163 C1161 1.394 . S
C1164 C1160 1.413 . S
C1164 C1162 1.391 . S
C1164 C1179 1.437 . S
H1165 C1162 0.929 . S
O1166 Gd1122 2.545 . S
O1166 C1181 1.258 . S
O1167 Gd1122 2.606 . S
O1167 Gd1123 2.362 . S
O1167 C1178 1.284 . S
O1168 Gd1123 2.324 . S
O1168 C1188 1.254 . S
O1169 Gd1122 2.429 . S
O1169 C1188 1.268 . S
O1170 Gd1122 2.545 . S
O1170 C1178 1.250 . S
O1171 Gd1122 2.412 . S
O1171 C1181 1.252 . S
O1172 Gd1123 2.545 . S
O1172 C1190 1.258 . S
O1173 Gd1122 2.362 . S
O1173 Gd1123 2.606 . S
O1173 C1189 1.284 . S
O1174 Gd1122 2.324 . S
O1174 C1197 1.254 . S
O1175 Gd1123 2.429 . S
O1175 C1197 1.268 . S
O1176 Gd1123 2.545 . S
O1176 C1189 1.250 . S
O1177 Gd1123 2.412 . S
O1177 C1190 1.252 . S
C1178 O1167 1.284 . S
C1178 O1170 1.250 . S
C1179 H1148 0.929 . S
C1179 C1164 1.437 . S
C1179 C1180 1.317 . S
C1180 H1151 0.930 . S
C1180 C1156 1.431 . S
C1180 C1179 1.317 . S
C1181 Gd1122 2.828 . S
C1181 O1166 1.258 . S
C1181 O1171 1.252 . S
C1181 C1182 1.497 . S
C1182 C1181 1.497 . S
C1182 C1183 1.395 . S
C1182 C1184 1.380 . S
C1183 C1182 1.395 . S
C1183 C1186 1.398 . S
C1183 H1198 0.930 . S
C1184 C1182 1.380 . S
C1184 C1185 1.391 . S
C1184 H1199 0.930 . S
C1185 C1184 1.391 . S
C1185 C1187 1.387 . S
C1186 C1183 1.398 . S
C1186 C1187 1.380 . S
C1186 H1200 0.930 . S
C1187 C1185 1.387 . S
C1187 C1186 1.380 . S
C1187 H1201 0.930 . S
C1188 O1168 1.254 . S
C1188 O1169 1.268 . S
C1189 O1173 1.284 . S
C1189 O1176 1.250 . S
C1190 Gd1123 2.828 . S
C1190 O1172 1.258 . S
C1190 O1177 1.252 . S
C1190 C1191 1.497 . S
C1191 C1190 1.497 . S
C1191 C1192 1.395 . S
C1191 C1193 1.380 . S
C1192 C1191 1.395 . S
C1192 C1195 1.398 . S
C1192 H1202 0.930 . S
C1193 C1191 1.380 . S
C1193 C1194 1.391 . S
C1193 H1203 0.930 . S
C1194 C1193 1.391 . S
C1194 C1196 1.387 . S
C1195 C1192 1.398 . S
C1195 C1196 1.380 . S
C1195 H1204 0.930 . S
C1196 C1194 1.387 . S
C1196 C1195 1.380 . S
C1196 H1205 0.930 . S
C1197 O1174 1.254 . S
C1197 O1175 1.268 . S
H1198 C1183 0.930 . S
H1199 C1184 0.930 . S
H1200 C1186 0.930 . S
H1201 C1187 0.930 . S
H1202 C1192 0.930 . S
H1203 C1193 0.930 . S
H1204 C1195 0.930 . S
H1205 C1196 0.930 . S
Gd1206 N1237 2.661 . S
Gd1206 N1243 2.601 . S
Gd1206 O1250 2.545 . S
Gd1206 O1251 2.606 . S
Gd1206 O1253 2.429 . S
Gd1206 O1254 2.545 . S
Gd1206 O1255 2.412 . S
Gd1206 O1257 2.362 . S
Gd1206 O1258 2.324 . S
Gd1206 C1265 2.828 . S
Gd1207 N1216 2.661 . S
Gd1207 N1220 2.601 . S
Gd1207 O1251 2.362 . S
Gd1207 O1252 2.324 . S
Gd1207 O1256 2.545 . S
Gd1207 O1257 2.606 . S
Gd1207 O1259 2.429 . S
Gd1207 O1260 2.545 . S
Gd1207 O1261 2.412 . S
Gd1207 C1274 2.828 . S
C1208 C1211 1.417 . S
C1208 C1213 1.431 . S
C1208 C1214 1.412 . S
C1209 C1212 1.437 . S
C1209 C1213 1.317 . S
C1209 H1228 0.929 . S
C1210 C1211 1.426 . S
C1210 C1212 1.413 . S
C1210 N1220 1.359 . S
C1211 C1208 1.417 . S
C1211 C1210 1.426 . S
C1211 N1216 1.350 . S
C1212 C1209 1.437 . S
C1212 C1210 1.413 . S
C1212 C1222 1.391 . S
C1213 C1208 1.431 . S
C1213 C1209 1.317 . S
C1213 H1224 0.930 . S
C1214 C1208 1.412 . S
C1214 C1215 1.355 . S
C1214 H1226 0.930 . S
C1215 C1214 1.355 . S
C1215 C1217 1.402 . S
C1215 H1227 0.930 . S
N1216 Gd1207 2.661 . S
N1216 C1211 1.350 . S
N1216 C1217 1.307 . S
C1217 C1215 1.402 . S
C1217 N1216 1.307 . S
C1217 H1218 0.930 . S
H1218 C1217 0.930 . S
C1219 N1220 1.334 . S
C1219 C1221 1.394 . S
C1219 H1223 0.930 . S
N1220 Gd1207 2.601 . S
N1220 C1210 1.359 . S
N1220 C1219 1.334 . S
C1221 C1219 1.394 . S
C1221 C1222 1.359 . S
C1221 H1233 0.930 . S
C1222 C1212 1.391 . S
C1222 C1221 1.359 . S
C1222 H1234 0.929 . S
H1223 C1219 0.930 . S
H1224 C1213 0.930 . S
H1225 C1242 0.930 . S
H1226 C1214 0.930 . S
H1227 C1215 0.930 . S
H1228 C1209 0.929 . S
H1229 C1247 0.930 . S
H1230 C1238 0.930 . S
H1231 C1239 0.930 . S
H1232 C1263 0.929 . S
H1233 C1221 0.930 . S
H1234 C1222 0.929 . S
H1235 C1264 0.930 . S
H1236 C1245 0.930 . S
N1237 Gd1206 2.661 . S
N1237 C1241 1.350 . S
N1237 C1242 1.307 . S
C1238 H1230 0.930 . S
C1238 C1239 1.355 . S
C1238 C1240 1.412 . S
C1239 H1231 0.930 . S
C1239 C1238 1.355 . S
C1239 C1242 1.402 . S
C1240 C1238 1.412 . S
C1240 C1241 1.417 . S
C1240 C1264 1.431 . S
C1241 N1237 1.350 . S
C1241 C1240 1.417 . S
C1241 C1244 1.426 . S
C1242 H1225 0.930 . S
C1242 N1237 1.307 . S
C1242 C1239 1.402 . S
N1243 Gd1206 2.601 . S
N1243 C1244 1.359 . S
N1243 C1247 1.334 . S
C1244 C1241 1.426 . S
C1244 N1243 1.359 . S
C1244 C1248 1.413 . S
C1245 H1236 0.930 . S
C1245 C1246 1.359 . S
C1245 C1247 1.394 . S
C1246 C1245 1.359 . S
C1246 C1248 1.391 . S
C1246 H1249 0.929 . S
C1247 H1229 0.930 . S
C1247 N1243 1.334 . S
C1247 C1245 1.394 . S
C1248 C1244 1.413 . S
C1248 C1246 1.391 . S
C1248 C1263 1.437 . S
H1249 C1246 0.929 . S
O1250 Gd1206 2.545 . S
O1250 C1265 1.258 . S
O1251 Gd1206 2.606 . S
O1251 Gd1207 2.362 . S
O1251 C1262 1.284 . S
O1252 Gd1207 2.324 . S
O1252 C1272 1.254 . S
O1253 Gd1206 2.429 . S
O1253 C1272 1.268 . S
O1254 Gd1206 2.545 . S
O1254 C1262 1.250 . S
O1255 Gd1206 2.412 . S
O1255 C1265 1.252 . S
O1256 Gd1207 2.545 . S
O1256 C1274 1.258 . S
O1257 Gd1206 2.362 . S
O1257 Gd1207 2.606 . S
O1257 C1273 1.284 . S
O1258 Gd1206 2.324 . S
O1258 C1281 1.254 . S
O1259 Gd1207 2.429 . S
O1259 C1281 1.268 . S
O1260 Gd1207 2.545 . S
O1260 C1273 1.250 . S
O1261 Gd1207 2.412 . S
O1261 C1274 1.252 . S
C1262 O1251 1.284 . S
C1262 O1254 1.250 . S
C1263 H1232 0.929 . S
C1263 C1248 1.437 . S
C1263 C1264 1.317 . S
C1264 H1235 0.930 . S
C1264 C1240 1.431 . S
C1264 C1263 1.317 . S
C1265 Gd1206 2.828 . S
C1265 O1250 1.258 . S
C1265 O1255 1.252 . S
C1265 C1266 1.497 . S
C1266 C1265 1.497 . S
C1266 C1267 1.395 . S
C1266 C1268 1.380 . S
C1267 C1266 1.395 . S
C1267 C1270 1.398 . S
C1267 H1282 0.930 . S
C1268 C1266 1.380 . S
C1268 C1269 1.391 . S
C1268 H1283 0.930 . S
C1269 C1268 1.391 . S
C1269 C1271 1.387 . S
C1270 C1267 1.398 . S
C1270 C1271 1.380 . S
C1270 H1284 0.930 . S
C1271 C1269 1.387 . S
C1271 C1270 1.380 . S
C1271 H1285 0.930 . S
C1272 O1252 1.254 . S
C1272 O1253 1.268 . S
C1273 O1257 1.284 . S
C1273 O1260 1.250 . S
C1274 Gd1207 2.828 . S
C1274 O1256 1.258 . S
C1274 O1261 1.252 . S
C1274 C1275 1.497 . S
C1275 C1274 1.497 . S
C1275 C1276 1.395 . S
C1275 C1277 1.380 . S
C1276 C1275 1.395 . S
C1276 C1279 1.398 . S
C1276 H1286 0.930 . S
C1277 C1275 1.380 . S
C1277 C1278 1.391 . S
C1277 H1287 0.930 . S
C1278 C1277 1.391 . S
C1278 C1280 1.387 . S
C1279 C1276 1.398 . S
C1279 C1280 1.380 . S
C1279 H1288 0.930 . S
C1280 C1278 1.387 . S
C1280 C1279 1.380 . S
C1280 H1289 0.930 . S
C1281 O1258 1.254 . S
C1281 O1259 1.268 . S
H1282 C1267 0.930 . S
H1283 C1268 0.930 . S
H1284 C1270 0.930 . S
H1285 C1271 0.930 . S
H1286 C1276 0.930 . S
H1287 C1277 0.930 . S
H1288 C1279 0.930 . S
H1289 C1280 0.930 . S
Gd1290 N1321 2.661 . S
Gd1290 N1327 2.601 . S
Gd1290 O1334 2.545 . S
Gd1290 O1335 2.606 . S
Gd1290 O1337 2.429 . S
Gd1290 O1338 2.545 . S
Gd1290 O1339 2.412 . S
Gd1290 O1341 2.362 . S
Gd1290 O1342 2.324 . S
Gd1290 C1349 2.828 . S
Gd1291 N1300 2.661 . S
Gd1291 N1304 2.601 . S
Gd1291 O1335 2.362 . S
Gd1291 O1336 2.324 . S
Gd1291 O1340 2.545 . S
Gd1291 O1341 2.606 . S
Gd1291 O1343 2.429 . S
Gd1291 O1344 2.545 . S
Gd1291 O1345 2.412 . S
Gd1291 C1358 2.828 . S
C1292 C1295 1.417 . S
C1292 C1297 1.431 . S
C1292 C1298 1.412 . S
C1293 C1296 1.437 . S
C1293 C1297 1.317 . S
C1293 H1312 0.929 . S
C1294 C1295 1.426 . S
C1294 C1296 1.413 . S
C1294 N1304 1.359 . S
C1295 C1292 1.417 . S
C1295 C1294 1.426 . S
C1295 N1300 1.350 . S
C1296 C1293 1.437 . S
C1296 C1294 1.413 . S
C1296 C1306 1.391 . S
C1297 C1292 1.431 . S
C1297 C1293 1.317 . S
C1297 H1308 0.930 . S
C1298 C1292 1.412 . S
C1298 C1299 1.355 . S
C1298 H1310 0.930 . S
C1299 C1298 1.355 . S
C1299 C1301 1.402 . S
C1299 H1311 0.930 . S
N1300 Gd1291 2.661 . S
N1300 C1295 1.350 . S
N1300 C1301 1.307 . S
C1301 C1299 1.402 . S
C1301 N1300 1.307 . S
C1301 H1302 0.930 . S
H1302 C1301 0.930 . S
C1303 N1304 1.334 . S
C1303 C1305 1.394 . S
C1303 H1307 0.930 . S
N1304 Gd1291 2.601 . S
N1304 C1294 1.359 . S
N1304 C1303 1.334 . S
C1305 C1303 1.394 . S
C1305 C1306 1.359 . S
C1305 H1317 0.930 . S
C1306 C1296 1.391 . S
C1306 C1305 1.359 . S
C1306 H1318 0.929 . S
H1307 C1303 0.930 . S
H1308 C1297 0.930 . S
H1309 C1326 0.930 . S
H1310 C1298 0.930 . S
H1311 C1299 0.930 . S
H1312 C1293 0.929 . S
H1313 C1331 0.930 . S
H1314 C1322 0.930 . S
H1315 C1323 0.930 . S
H1316 C1347 0.929 . S
H1317 C1305 0.930 . S
H1318 C1306 0.929 . S
H1319 C1348 0.930 . S
H1320 C1329 0.930 . S
N1321 Gd1290 2.661 . S
N1321 C1325 1.350 . S
N1321 C1326 1.307 . S
C1322 H1314 0.930 . S
C1322 C1323 1.355 . S
C1322 C1324 1.412 . S
C1323 H1315 0.930 . S
C1323 C1322 1.355 . S
C1323 C1326 1.402 . S
C1324 C1322 1.412 . S
C1324 C1325 1.417 . S
C1324 C1348 1.431 . S
C1325 N1321 1.350 . S
C1325 C1324 1.417 . S
C1325 C1328 1.426 . S
C1326 H1309 0.930 . S
C1326 N1321 1.307 . S
C1326 C1323 1.402 . S
N1327 Gd1290 2.601 . S
N1327 C1328 1.359 . S
N1327 C1331 1.334 . S
C1328 C1325 1.426 . S
C1328 N1327 1.359 . S
C1328 C1332 1.413 . S
C1329 H1320 0.930 . S
C1329 C1330 1.359 . S
C1329 C1331 1.394 . S
C1330 C1329 1.359 . S
C1330 C1332 1.391 . S
C1330 H1333 0.929 . S
C1331 H1313 0.930 . S
C1331 N1327 1.334 . S
C1331 C1329 1.394 . S
C1332 C1328 1.413 . S
C1332 C1330 1.391 . S
C1332 C1347 1.437 . S
H1333 C1330 0.929 . S
O1334 Gd1290 2.545 . S
O1334 C1349 1.258 . S
O1335 Gd1290 2.606 . S
O1335 Gd1291 2.362 . S
O1335 C1346 1.284 . S
O1336 Gd1291 2.324 . S
O1336 C1356 1.254 . S
O1337 Gd1290 2.429 . S
O1337 C1356 1.268 . S
O1338 Gd1290 2.545 . S
O1338 C1346 1.250 . S
O1339 Gd1290 2.412 . S
O1339 C1349 1.252 . S
O1340 Gd1291 2.545 . S
O1340 C1358 1.258 . S
O1341 Gd1290 2.362 . S
O1341 Gd1291 2.606 . S
O1341 C1357 1.284 . S
O1342 Gd1290 2.324 . S
O1342 C1365 1.254 . S
O1343 Gd1291 2.429 . S
O1343 C1365 1.268 . S
O1344 Gd1291 2.545 . S
O1344 C1357 1.250 . S
O1345 Gd1291 2.412 . S
O1345 C1358 1.252 . S
C1346 O1335 1.284 . S
C1346 O1338 1.250 . S
C1347 H1316 0.929 . S
C1347 C1332 1.437 . S
C1347 C1348 1.317 . S
C1348 H1319 0.930 . S
C1348 C1324 1.431 . S
C1348 C1347 1.317 . S
C1349 Gd1290 2.828 . S
C1349 O1334 1.258 . S
C1349 O1339 1.252 . S
C1349 C1350 1.497 . S
C1350 C1349 1.497 . S
C1350 C1351 1.395 . S
C1350 C1352 1.380 . S
C1351 C1350 1.395 . S
C1351 C1354 1.398 . S
C1351 H1366 0.930 . S
C1352 C1350 1.380 . S
C1352 C1353 1.391 . S
C1352 H1367 0.930 . S
C1353 C1352 1.391 . S
C1353 C1355 1.387 . S
C1354 C1351 1.398 . S
C1354 C1355 1.380 . S
C1354 H1368 0.930 . S
C1355 C1353 1.387 . S
C1355 C1354 1.380 . S
C1355 H1369 0.930 . S
C1356 O1336 1.254 . S
C1356 O1337 1.268 . S
C1357 O1341 1.284 . S
C1357 O1344 1.250 . S
C1358 Gd1291 2.828 . S
C1358 O1340 1.258 . S
C1358 O1345 1.252 . S
C1358 C1359 1.497 . S
C1359 C1358 1.497 . S
C1359 C1360 1.395 . S
C1359 C1361 1.380 . S
C1360 C1359 1.395 . S
C1360 C1363 1.398 . S
C1360 H1370 0.930 . S
C1361 C1359 1.380 . S
C1361 C1362 1.391 . S
C1361 H1371 0.930 . S
C1362 C1361 1.391 . S
C1362 C1364 1.387 . S
C1363 C1360 1.398 . S
C1363 C1364 1.380 . S
C1363 H1372 0.930 . S
C1364 C1362 1.387 . S
C1364 C1363 1.380 . S
C1364 H1373 0.930 . S
C1365 O1342 1.254 . S
C1365 O1343 1.268 . S
H1366 C1351 0.930 . S
H1367 C1352 0.930 . S
H1368 C1354 0.930 . S
H1369 C1355 0.930 . S
H1370 C1360 0.930 . S
H1371 C1361 0.930 . S
H1372 C1363 0.930 . S
H1373 C1364 0.930 . S
Gd1374 N1405 2.661 . S
Gd1374 N1411 2.601 . S
Gd1374 O1418 2.545 . S
Gd1374 O1419 2.606 . S
Gd1374 O1421 2.429 . S
Gd1374 O1422 2.545 . S
Gd1374 O1423 2.412 . S
Gd1374 O1425 2.362 . S
Gd1374 O1426 2.324 . S
Gd1374 C1433 2.828 . S
Gd1375 N1384 2.661 . S
Gd1375 N1388 2.601 . S
Gd1375 O1419 2.362 . S
Gd1375 O1420 2.324 . S
Gd1375 O1424 2.545 . S
Gd1375 O1425 2.606 . S
Gd1375 O1427 2.429 . S
Gd1375 O1428 2.545 . S
Gd1375 O1429 2.412 . S
Gd1375 C1442 2.828 . S
C1376 C1379 1.417 . S
C1376 C1381 1.431 . S
C1376 C1382 1.412 . S
C1377 C1380 1.437 . S
C1377 C1381 1.317 . S
C1377 H1396 0.929 . S
C1378 C1379 1.426 . S
C1378 C1380 1.413 . S
C1378 N1388 1.359 . S
C1379 C1376 1.417 . S
C1379 C1378 1.426 . S
C1379 N1384 1.350 . S
C1380 C1377 1.437 . S
C1380 C1378 1.413 . S
C1380 C1390 1.391 . S
C1381 C1376 1.431 . S
C1381 C1377 1.317 . S
C1381 H1392 0.930 . S
C1382 C1376 1.412 . S
C1382 C1383 1.355 . S
C1382 H1394 0.930 . S
C1383 C1382 1.355 . S
C1383 C1385 1.402 . S
C1383 H1395 0.930 . S
N1384 Gd1375 2.661 . S
N1384 C1379 1.350 . S
N1384 C1385 1.307 . S
C1385 C1383 1.402 . S
C1385 N1384 1.307 . S
C1385 H1386 0.930 . S
H1386 C1385 0.930 . S
C1387 N1388 1.334 . S
C1387 C1389 1.394 . S
C1387 H1391 0.930 . S
N1388 Gd1375 2.601 . S
N1388 C1378 1.359 . S
N1388 C1387 1.334 . S
C1389 C1387 1.394 . S
C1389 C1390 1.359 . S
C1389 H1401 0.930 . S
C1390 C1380 1.391 . S
C1390 C1389 1.359 . S
C1390 H1402 0.929 . S
H1391 C1387 0.930 . S
H1392 C1381 0.930 . S
H1393 C1410 0.930 . S
H1394 C1382 0.930 . S
H1395 C1383 0.930 . S
H1396 C1377 0.929 . S
H1397 C1415 0.930 . S
H1398 C1406 0.930 . S
H1399 C1407 0.930 . S
H1400 C1431 0.929 . S
H1401 C1389 0.930 . S
H1402 C1390 0.929 . S
H1403 C1432 0.930 . S
H1404 C1413 0.930 . S
N1405 Gd1374 2.661 . S
N1405 C1409 1.350 . S
N1405 C1410 1.307 . S
C1406 H1398 0.930 . S
C1406 C1407 1.355 . S
C1406 C1408 1.412 . S
C1407 H1399 0.930 . S
C1407 C1406 1.355 . S
C1407 C1410 1.402 . S
C1408 C1406 1.412 . S
C1408 C1409 1.417 . S
C1408 C1432 1.431 . S
C1409 N1405 1.350 . S
C1409 C1408 1.417 . S
C1409 C1412 1.426 . S
C1410 H1393 0.930 . S
C1410 N1405 1.307 . S
C1410 C1407 1.402 . S
N1411 Gd1374 2.601 . S
N1411 C1412 1.359 . S
N1411 C1415 1.334 . S
C1412 C1409 1.426 . S
C1412 N1411 1.359 . S
C1412 C1416 1.413 . S
C1413 H1404 0.930 . S
C1413 C1414 1.359 . S
C1413 C1415 1.394 . S
C1414 C1413 1.359 . S
C1414 C1416 1.391 . S
C1414 H1417 0.929 . S
C1415 H1397 0.930 . S
C1415 N1411 1.334 . S
C1415 C1413 1.394 . S
C1416 C1412 1.413 . S
C1416 C1414 1.391 . S
C1416 C1431 1.437 . S
H1417 C1414 0.929 . S
O1418 Gd1374 2.545 . S
O1418 C1433 1.258 . S
O1419 Gd1374 2.606 . S
O1419 Gd1375 2.362 . S
O1419 C1430 1.284 . S
O1420 Gd1375 2.324 . S
O1420 C1440 1.254 . S
O1421 Gd1374 2.429 . S
O1421 C1440 1.268 . S
O1422 Gd1374 2.545 . S
O1422 C1430 1.250 . S
O1423 Gd1374 2.412 . S
O1423 C1433 1.252 . S
O1424 Gd1375 2.545 . S
O1424 C1442 1.258 . S
O1425 Gd1374 2.362 . S
O1425 Gd1375 2.606 . S
O1425 C1441 1.284 . S
O1426 Gd1374 2.324 . S
O1426 C1449 1.254 . S
O1427 Gd1375 2.429 . S
O1427 C1449 1.268 . S
O1428 Gd1375 2.545 . S
O1428 C1441 1.250 . S
O1429 Gd1375 2.412 . S
O1429 C1442 1.252 . S
C1430 O1419 1.284 . S
C1430 O1422 1.250 . S
C1431 H1400 0.929 . S
C1431 C1416 1.437 . S
C1431 C1432 1.317 . S
C1432 H1403 0.930 . S
C1432 C1408 1.431 . S
C1432 C1431 1.317 . S
C1433 Gd1374 2.828 . S
C1433 O1418 1.258 . S
C1433 O1423 1.252 . S
C1433 C1434 1.497 . S
C1434 C1433 1.497 . S
C1434 C1435 1.395 . S
C1434 C1436 1.380 . S
C1435 C1434 1.395 . S
C1435 C1438 1.398 . S
C1435 H1450 0.930 . S
C1436 C1434 1.380 . S
C1436 C1437 1.391 . S
C1436 H1451 0.930 . S
C1437 C1436 1.391 . S
C1437 C1439 1.387 . S
C1438 C1435 1.398 . S
C1438 C1439 1.380 . S
C1438 H1452 0.930 . S
C1439 C1437 1.387 . S
C1439 C1438 1.380 . S
C1439 H1453 0.930 . S
C1440 O1420 1.254 . S
C1440 O1421 1.268 . S
C1441 O1425 1.284 . S
C1441 O1428 1.250 . S
C1442 Gd1375 2.828 . S
C1442 O1424 1.258 . S
C1442 O1429 1.252 . S
C1442 C1443 1.497 . S
C1443 C1442 1.497 . S
C1443 C1444 1.395 . S
C1443 C1445 1.380 . S
C1444 C1443 1.395 . S
C1444 C1447 1.398 . S
C1444 H1454 0.930 . S
C1445 C1443 1.380 . S
C1445 C1446 1.391 . S
C1445 H1455 0.930 . S
C1446 C1445 1.391 . S
C1446 C1448 1.387 . S
C1447 C1444 1.398 . S
C1447 C1448 1.380 . S
C1447 H1456 0.930 . S
C1448 C1446 1.387 . S
C1448 C1447 1.380 . S
C1448 H1457 0.930 . S
C1449 O1426 1.254 . S
C1449 O1427 1.268 . S
H1450 C1435 0.930 . S
H1451 C1436 0.930 . S
H1452 C1438 0.930 . S
H1453 C1439 0.930 . S
H1454 C1444 0.930 . S
H1455 C1445 0.930 . S
H1456 C1447 0.930 . S
H1457 C1448 0.930 . S
C1458 C1459 1.363 . S
C1458 C1464 1.379 . S
C1458 N1466 1.356 . S
C1459 C1458 1.363 . S
C1459 C1465 1.363 . S
C1460 C1461 1.363 . S
C1460 C1465 1.379 . S
C1460 N1467 1.356 . S
C1461 C1460 1.363 . S
C1461 C1464 1.363 . S
N1462 C1464 1.356 . S
N1462 H1474 0.984 . S
N1462 H1475 0.985 . S
N1463 C1465 1.356 . S
N1463 H1468 0.984 . S
N1463 H1469 0.985 . S
C1464 C1458 1.379 . S
C1464 C1461 1.363 . S
C1464 N1462 1.356 . S
C1465 C1459 1.363 . S
C1465 C1460 1.379 . S
C1465 N1463 1.356 . S
N1466 C1458 1.356 . S
N1466 H1472 0.984 . S
N1466 H1473 0.984 . S
N1467 C1460 1.356 . S
N1467 H1470 0.984 . S
N1467 H1471 0.985 . S
H1468 N1463 0.984 . S
H1469 N1463 0.985 . S
H1470 N1467 0.984 . S
H1471 N1467 0.985 . S
H1472 N1466 0.984 . S
H1473 N1466 0.984 . S
H1474 N1462 0.984 . S
H1475 N1462 0.985 . S
C1476 C1477 1.363 . S
C1476 C1482 1.379 . S
C1476 N1484 1.356 . S
C1477 C1476 1.363 . S
C1477 C1483 1.363 . S
C1478 C1479 1.363 . S
C1478 C1483 1.379 . S
C1478 N1485 1.356 . S
C1479 C1478 1.363 . S
C1479 C1482 1.363 . S
N1480 C1482 1.356 . S
N1480 H1492 0.984 . S
N1480 H1493 0.985 . S
N1481 C1483 1.356 . S
N1481 H1486 0.984 . S
N1481 H1487 0.985 . S
C1482 C1476 1.379 . S
C1482 C1479 1.363 . S
C1482 N1480 1.356 . S
C1483 C1477 1.363 . S
C1483 C1478 1.379 . S
C1483 N1481 1.356 . S
N1484 C1476 1.356 . S
N1484 H1490 0.984 . S
N1484 H1491 0.984 . S
N1485 C1478 1.356 . S
N1485 H1488 0.984 . S
N1485 H1489 0.959 1_554 S
H1486 N1481 0.984 . S
H1487 N1481 0.985 . S
H1488 N1485 0.984 . S
H1489 N1485 0.959 1_556 S
H1490 N1484 0.984 . S
H1491 N1484 0.984 . S
H1492 N1480 0.984 . S
H1493 N1480 0.985 . S
C1494 C1495 1.363 . S
C1494 C1500 1.379 . S
C1494 N1502 1.356 . S
C1495 C1494 1.363 . S
C1495 C1501 1.363 . S
C1496 C1497 1.363 . S
C1496 C1501 1.379 . S
C1496 N1503 1.356 . S
C1497 C1496 1.363 . S
C1497 C1500 1.363 . S
N1498 C1500 1.356 1_556 S
N1498 H1510 0.984 . S
N1498 H1511 0.985 . S
N1499 C1501 1.356 . S
N1499 H1504 0.984 . S
N1499 H1505 0.985 . S
C1500 C1494 1.379 . S
C1500 C1497 1.363 . S
C1500 N1498 1.356 1_554 S
C1501 C1495 1.363 . S
C1501 C1496 1.379 . S
C1501 N1499 1.356 . S
N1502 C1494 1.356 . S
N1502 H1508 0.984 1_554 S
N1502 H1509 0.984 . S
N1503 C1496 1.356 . S
N1503 H1506 0.984 . S
N1503 H1507 0.985 . S
H1504 N1499 0.984 . S
H1505 N1499 0.985 . S
H1506 N1503 0.984 . S
H1507 N1503 0.985 . S
H1508 N1502 0.984 1_556 S
H1509 N1502 0.984 . S
H1510 N1498 0.984 . S
H1511 N1498 0.985 . S
C1512 C1513 1.363 . S
C1512 C1518 1.379 . S
C1512 N1520 1.356 . S
C1513 C1512 1.363 . S
C1513 C1519 1.363 . S
C1514 C1515 1.363 . S
C1514 C1519 1.379 . S
C1514 N1521 1.356 1_556 S
C1515 C1514 1.363 . S
C1515 C1518 1.363 . S
N1516 C1518 1.356 . S
N1516 H1528 0.984 . S
N1516 H1529 0.985 . S
N1517 C1519 1.356 . S
N1517 H1522 0.984 . S
N1517 H1523 0.985 1_556 S
C1518 C1512 1.379 . S
C1518 C1515 1.363 . S
C1518 N1516 1.356 . S
C1519 C1513 1.363 . S
C1519 C1514 1.379 . S
C1519 N1517 1.356 . S
N1520 C1512 1.356 . S
N1520 H1526 0.984 . S
N1520 H1527 0.984 . S
N1521 C1514 1.356 1_554 S
N1521 H1524 0.984 . S
N1521 H1525 0.985 . S
H1522 N1517 0.984 . S
H1523 N1517 0.985 1_554 S
H1524 N1521 0.984 . S
H1525 N1521 0.985 . S
H1526 N1520 0.984 . S
H1527 N1520 0.984 . S
H1528 N1516 0.984 . S
H1529 N1516 0.985 . S
C1530 C1531 1.363 . S
C1530 C1536 1.379 . S
C1530 N1538 1.356 . S
C1531 C1530 1.363 . S
C1531 C1537 1.363 . S
C1532 C1533 1.363 . S
C1532 C1537 1.379 . S
C1532 N1539 1.356 . S
C1533 C1532 1.363 . S
C1533 C1536 1.363 . S
N1534 C1536 1.356 . S
N1534 H1546 0.986 1_556 S
N1534 H1547 0.985 . S
N1535 C1537 1.356 . S
N1535 H1540 0.984 . S
N1535 H1541 0.985 . S
C1536 C1530 1.379 . S
C1536 C1533 1.363 . S
C1536 N1534 1.356 . S
C1537 C1531 1.363 . S
C1537 C1532 1.379 . S
C1537 N1535 1.356 . S
N1538 C1530 1.356 . S
N1538 H1544 0.984 . S
N1538 H1545 0.984 . S
N1539 C1532 1.356 . S
N1539 H1542 0.984 . S
N1539 H1543 0.985 . S
H1540 N1535 0.984 . S
H1541 N1535 0.985 . S
H1542 N1539 0.984 . S
H1543 N1539 0.985 . S
H1544 N1538 0.984 . S
H1545 N1538 0.984 . S
H1546 N1534 0.986 1_554 S
H1547 N1534 0.985 . S
C1548 C1549 1.363 . S
C1548 C1554 1.379 . S
C1548 N1556 1.356 . S
C1549 C1548 1.363 . S
C1549 C1555 1.363 . S
C1550 C1551 1.363 . S
C1550 C1555 1.379 . S
C1550 N1557 1.356 . S
C1551 C1550 1.363 . S
C1551 C1554 1.363 . S
N1552 C1554 1.356 . S
N1552 H1564 0.984 . S
N1552 H1565 0.985 . S
N1553 C1555 1.356 . S
N1553 H1558 0.984 . S
N1553 H1559 0.985 . S
C1554 C1548 1.379 . S
C1554 C1551 1.363 . S
C1554 N1552 1.356 . S
C1555 C1549 1.363 . S
C1555 C1550 1.379 . S
C1555 N1553 1.356 . S
N1556 C1548 1.356 . S
N1556 H1562 0.984 . S
N1556 H1563 0.984 . S
N1557 C1550 1.356 . S
N1557 H1560 0.984 . S
N1557 H1561 0.985 . S
H1558 N1553 0.984 . S
H1559 N1553 0.985 . S
H1560 N1557 0.984 . S
H1561 N1557 0.985 . S
H1562 N1556 0.984 . S
H1563 N1556 0.984 . S
H1564 N1552 0.984 . S
H1565 N1552 0.985 . S
C1566 C1567 1.363 . S
C1566 C1572 1.379 . S
C1566 N1574 1.356 . S
C1567 C1566 1.363 . S
C1567 C1573 1.363 . S
C1568 C1569 1.363 . S
C1568 C1573 1.379 . S
C1568 N1575 1.356 1_556 S
C1569 C1568 1.363 . S
C1569 C1572 1.363 . S
N1570 C1572 1.356 . S
N1570 H1582 0.984 . S
N1570 H1583 0.985 . S
N1571 C1573 1.356 . S
N1571 H1576 0.984 . S
N1571 H1577 0.985 1_556 S
C1572 C1566 1.379 . S
C1572 C1569 1.363 . S
C1572 N1570 1.356 . S
C1573 C1567 1.363 . S
C1573 C1568 1.379 . S
C1573 N1571 1.356 . S
N1574 C1566 1.356 . S
N1574 H1580 0.984 . S
N1574 H1581 0.984 . S
N1575 C1568 1.356 1_554 S
N1575 H1578 0.984 . S
N1575 H1579 0.985 . S
H1576 N1571 0.984 . S
H1577 N1571 0.985 1_554 S
H1578 N1575 0.984 . S
H1579 N1575 0.985 . S
H1580 N1574 0.984 . S
H1581 N1574 0.984 . S
H1582 N1570 0.984 . S
H1583 N1570 0.985 . S
C1584 C1585 1.363 . S
C1584 C1590 1.379 . S
C1584 N1592 1.356 . S
C1585 C1584 1.363 . S
C1585 C1591 1.363 . S
C1586 C1587 1.363 . S
C1586 C1591 1.379 . S
C1586 N1593 1.356 . S
C1587 C1586 1.363 . S
C1587 C1590 1.363 . S
N1588 C1590 1.356 . S
N1588 H1600 0.984 . S
N1588 H1601 0.985 . S
N1589 C1591 1.356 . S
N1589 H1594 0.984 . S
N1589 H1595 0.985 . S
C1590 C1584 1.379 . S
C1590 C1587 1.363 . S
C1590 N1588 1.356 . S
C1591 C1585 1.363 . S
C1591 C1586 1.379 . S
C1591 N1589 1.356 . S
N1592 C1584 1.356 . S
N1592 H1598 0.984 . S
N1592 H1599 0.984 . S
N1593 C1586 1.356 . S
N1593 H1596 0.984 . S
N1593 H1597 0.985 . S
H1594 N1589 0.984 . S
H1595 N1589 0.985 . S
H1596 N1593 0.984 . S
H1597 N1593 0.985 . S
H1598 N1592 0.984 . S
H1599 N1592 0.984 . S
H1600 N1588 0.984 . S
H1601 N1588 0.985 . S
C1602 C1603 1.363 . S
C1602 C1608 1.379 . S
C1602 N1610 1.356 . S
C1603 C1602 1.363 . S
C1603 C1609 1.363 . S
C1604 C1605 1.363 . S
C1604 C1609 1.379 . S
C1604 N1611 1.356 1_556 S
C1605 C1604 1.363 . S
C1605 C1608 1.363 . S
N1606 C1608 1.356 . S
N1606 H1618 0.984 . S
N1606 H1619 0.985 . S
N1607 C1609 1.356 . S
N1607 H1612 0.984 . S
N1607 H1613 0.985 1_556 S
C1608 C1602 1.379 . S
C1608 C1605 1.363 . S
C1608 N1606 1.356 . S
C1609 C1603 1.363 . S
C1609 C1604 1.379 . S
C1609 N1607 1.356 . S
N1610 C1602 1.356 . S
N1610 H1616 0.984 . S
N1610 H1617 0.984 . S
N1611 C1604 1.356 1_554 S
N1611 H1614 0.984 . S
N1611 H1615 0.985 . S
H1612 N1607 0.984 . S
H1613 N1607 0.985 1_554 S
H1614 N1611 0.984 . S
H1615 N1611 0.985 . S
H1616 N1610 0.984 . S
H1617 N1610 0.984 . S
H1618 N1606 0.984 . S
H1619 N1606 0.985 . S
C1620 C1621 1.363 . S
C1620 C1626 1.379 . S
C1620 N1628 1.356 . S
C1621 C1620 1.363 . S
C1621 C1627 1.363 . S
C1622 C1623 1.363 . S
C1622 C1627 1.379 . S
C1622 N1629 1.356 . S
C1623 C1622 1.363 . S
C1623 C1626 1.363 . S
N1624 C1626 1.322 1_556 S
N1624 H1636 1.018 . S
N1624 H1637 0.987 . S
N1625 C1627 1.356 . S
N1625 H1630 0.984 . S
N1625 H1631 0.985 . S
C1626 C1620 1.379 . S
C1626 C1623 1.363 . S
C1626 N1624 1.322 1_554 S
C1627 C1621 1.363 . S
C1627 C1622 1.379 . S
C1627 N1625 1.356 . S
N1628 C1620 1.356 . S
N1628 H1634 0.984 . S
N1628 H1635 0.984 . S
N1629 C1622 1.356 . S
N1629 H1632 0.984 . S
N1629 H1633 0.985 . S
H1630 N1625 0.984 . S
H1631 N1625 0.985 . S
H1632 N1629 0.984 . S
H1633 N1629 0.985 . S
H1634 N1628 0.984 . S
H1635 N1628 0.984 . S
H1636 N1624 1.018 . S
H1637 N1624 0.987 . S
C1638 C1639 1.363 . S
C1638 C1644 1.379 . S
C1638 N1646 1.356 . S
C1639 C1638 1.363 . S
C1639 C1645 1.363 . S
C1640 C1641 1.363 . S
C1640 C1645 1.379 . S
C1640 N1647 1.356 . S
C1641 C1640 1.363 . S
C1641 C1644 1.363 . S
N1642 C1644 1.356 . S
N1642 H1654 0.984 . S
N1642 H1655 0.985 . S
N1643 C1645 1.356 . S
N1643 H1648 0.984 . S
N1643 H1649 0.985 . S
C1644 C1638 1.379 . S
C1644 C1641 1.363 . S
C1644 N1642 1.356 . S
C1645 C1639 1.363 . S
C1645 C1640 1.379 . S
C1645 N1643 1.356 . S
N1646 C1638 1.356 . S
N1646 H1652 0.984 . S
N1646 H1653 0.984 . S
N1647 C1640 1.356 . S
N1647 H1650 0.984 . S
N1647 H1651 0.985 . S
H1648 N1643 0.984 . S
H1649 N1643 0.985 . S
H1650 N1647 0.984 . S
H1651 N1647 0.985 . S
H1652 N1646 0.984 . S
H1653 N1646 0.984 . S
H1654 N1642 0.984 . S
H1655 N1642 0.985 . S
C1656 C1657 1.363 . S
C1656 C1662 1.379 . S
C1656 N1664 1.356 . S
C1657 C1656 1.363 . S
C1657 C1663 1.363 . S
C1658 C1659 1.363 . S
C1658 C1663 1.379 . S
C1658 N1665 1.356 1_554 S
C1659 C1658 1.363 . S
C1659 C1662 1.363 . S
N1660 C1662 1.356 . S
N1660 H1672 0.984 . S
N1660 H1673 0.985 . S
N1661 C1663 1.356 . S
N1661 H1666 0.984 . S
N1661 H1667 0.985 1_554 S
C1662 C1656 1.379 . S
C1662 C1659 1.363 . S
C1662 N1660 1.356 . S
C1663 C1657 1.363 . S
C1663 C1658 1.379 . S
C1663 N1661 1.356 . S
N1664 C1656 1.356 . S
N1664 H1670 0.984 . S
N1664 H1671 0.984 . S
N1665 C1658 1.356 1_556 S
N1665 H1668 0.984 . S
N1665 H1669 0.985 . S
H1666 N1661 0.984 . S
H1667 N1661 0.985 1_556 S
H1668 N1665 0.984 . S
H1669 N1665 0.985 . S
H1670 N1664 0.984 . S
H1671 N1664 0.984 . S
H1672 N1660 0.984 . S
H1673 N1660 0.985 . S
C1674 C1675 1.363 . S
C1674 C1680 1.379 . S
C1674 N1682 1.356 . S
C1675 C1674 1.363 . S
C1675 C1681 1.363 . S
C1676 C1677 1.363 . S
C1676 C1681 1.379 . S
C1676 N1683 1.356 . S
C1677 C1676 1.363 . S
C1677 C1680 1.363 . S
N1678 C1680 1.356 . S
N1678 H1690 0.984 . S
N1678 H1691 0.985 . S
N1679 C1681 1.356 . S
N1679 H1684 0.984 1_455 S
N1679 H1685 0.984 . S
C1680 C1674 1.379 . S
C1680 C1677 1.363 . S
C1680 N1678 1.356 . S
C1681 C1675 1.363 . S
C1681 C1676 1.379 . S
C1681 N1679 1.356 . S
N1682 C1674 1.356 . S
N1682 H1688 0.984 . S
N1682 H1689 0.984 . S
N1683 C1676 1.356 . S
N1683 H1686 0.984 . S
N1683 H1687 0.985 . S
H1684 N1679 0.984 1_655 S
H1685 N1679 0.984 . S
H1686 N1683 0.984 . S
H1687 N1683 0.985 . S
H1688 N1682 0.984 . S
H1689 N1682 0.984 . S
H1690 N1678 0.984 . S
H1691 N1678 0.985 . S
C1692 C1693 1.363 . S
C1692 C1698 1.379 . S
C1692 N1700 1.356 . S
C1693 C1692 1.363 . S
C1693 C1699 1.363 . S
C1694 C1695 1.363 . S
C1694 C1699 1.379 . S
C1694 N1701 1.356 . S
C1695 C1694 1.363 . S
C1695 C1698 1.363 . S
N1696 C1698 1.356 . S
N1696 H1708 0.984 . S
N1696 H1709 0.985 . S
N1697 C1699 1.356 . S
N1697 H1702 0.984 . S
N1697 H1703 0.985 . S
C1698 C1692 1.379 . S
C1698 C1695 1.363 . S
C1698 N1696 1.356 . S
C1699 C1693 1.363 . S
C1699 C1694 1.379 . S
C1699 N1697 1.356 . S
N1700 C1692 1.356 . S
N1700 H1706 0.984 . S
N1700 H1707 0.984 . S
N1701 C1694 1.356 . S
N1701 H1704 0.984 . S
N1701 H1705 0.985 . S
H1702 N1697 0.984 . S
H1703 N1697 0.985 . S
H1704 N1701 0.984 . S
H1705 N1701 0.985 . S
H1706 N1700 0.984 . S
H1707 N1700 0.984 . S
H1708 N1696 0.984 . S
H1709 N1696 0.985 . S
C1710 C1711 1.363 . S
C1710 C1716 1.379 . S
C1710 N1718 1.356 . S
C1711 C1710 1.363 . S
C1711 C1717 1.363 . S
C1712 C1713 1.363 . S
C1712 C1717 1.379 . S
C1712 N1719 1.356 . S
C1713 C1712 1.363 . S
C1713 C1716 1.363 . S
N1714 C1716 1.356 . S
N1714 H1726 0.984 . S
N1714 H1727 0.985 . S
N1715 C1717 1.321 1_545 S
N1715 H1720 1.010 . S
N1715 H1721 0.991 . S
C1716 C1710 1.379 . S
C1716 C1713 1.363 . S
C1716 N1714 1.356 . S
C1717 C1711 1.363 . S
C1717 C1712 1.379 . S
C1717 N1715 1.321 1_565 S
N1718 C1710 1.356 . S
N1718 H1724 0.984 . S
N1718 H1725 0.984 1_565 S
N1719 C1712 1.356 . S
N1719 H1722 0.984 . S
N1719 H1723 0.985 . S
H1720 N1715 1.010 . S
H1721 N1715 0.991 . S
H1722 N1719 0.984 . S
H1723 N1719 0.985 . S
H1724 N1718 0.984 . S
H1725 N1718 0.984 1_545 S
H1726 N1714 0.984 . S
H1727 N1714 0.985 . S
C1728 C1729 1.363 . S
C1728 C1734 1.379 . S
C1728 N1736 1.356 . S
C1729 C1728 1.363 . S
C1729 C1735 1.363 . S
C1730 C1731 1.363 . S
C1730 C1735 1.379 . S
C1730 N1737 1.356 . S
C1731 C1730 1.363 . S
C1731 C1734 1.363 . S
N1732 C1734 1.356 . S
N1732 H1744 0.984 . S
N1732 H1745 0.985 . S
N1733 C1735 1.356 . S
N1733 H1738 0.984 . S
N1733 H1739 0.985 . S
C1734 C1728 1.379 . S
C1734 C1731 1.363 . S
C1734 N1732 1.356 . S
C1735 C1729 1.363 . S
C1735 C1730 1.379 . S
C1735 N1733 1.356 . S
N1736 C1728 1.356 . S
N1736 H1742 0.984 . S
N1736 H1743 0.984 . S
N1737 C1730 1.356 . S
N1737 H1740 0.984 . S
N1737 H1741 0.985 . S
H1738 N1733 0.984 . S
H1739 N1733 0.985 . S
H1740 N1737 0.984 . S
H1741 N1737 0.985 . S
H1742 N1736 0.984 . S
H1743 N1736 0.984 . S
H1744 N1732 0.984 . S
H1745 N1732 0.985 . S
C1746 C1747 1.363 . S
C1746 C1752 1.379 . S
C1746 N1754 1.356 . S
C1747 C1746 1.363 . S
C1747 C1753 1.363 . S
C1748 C1749 1.363 . S
C1748 C1753 1.379 . S
C1748 N1755 1.356 . S
C1749 C1748 1.363 . S
C1749 C1752 1.363 . S
N1750 C1752 1.356 . S
N1750 H1762 0.984 . S
N1750 H1763 0.985 . S
N1751 C1753 1.356 . S
N1751 H1756 0.984 . S
N1751 H1757 0.985 . S
C1752 C1746 1.379 . S
C1752 C1749 1.363 . S
C1752 N1750 1.356 . S
C1753 C1747 1.363 . S
C1753 C1748 1.379 . S
C1753 N1751 1.356 . S
N1754 C1746 1.356 . S
N1754 H1760 0.984 . S
N1754 H1761 0.984 . S
N1755 C1748 1.356 . S
N1755 H1758 0.984 . S
N1755 H1759 0.985 . S
H1756 N1751 0.984 . S
H1757 N1751 0.985 . S
H1758 N1755 0.984 . S
H1759 N1755 0.985 . S
H1760 N1754 0.984 . S
H1761 N1754 0.984 . S
H1762 N1750 0.984 . S
H1763 N1750 0.985 . S
C1764 C1765 1.363 . S
C1764 C1770 1.379 . S
C1764 N1772 1.356 . S
C1765 C1764 1.363 . S
C1765 C1771 1.363 . S
C1766 C1767 1.363 . S
C1766 C1771 1.379 . S
C1766 N1773 1.356 . S
C1767 C1766 1.363 . S
C1767 C1770 1.363 . S
N1768 C1770 1.356 . S
N1768 H1780 0.984 . S
N1768 H1781 0.985 . S
N1769 C1771 1.356 . S
N1769 H1774 0.984 . S
N1769 H1775 0.985 . S
C1770 C1764 1.379 . S
C1770 C1767 1.363 . S
C1770 N1768 1.356 . S
C1771 C1765 1.363 . S
C1771 C1766 1.379 . S
C1771 N1769 1.356 . S
N1772 C1764 1.356 . S
N1772 H1778 0.984 . S
N1772 H1779 0.984 . S
N1773 C1766 1.356 . S
N1773 H1776 0.984 . S
N1773 H1777 0.985 . S
H1774 N1769 0.984 . S
H1775 N1769 0.985 . S
H1776 N1773 0.984 . S
H1777 N1773 0.985 . S
H1778 N1772 0.984 . S
H1779 N1772 0.984 . S
H1780 N1768 0.984 . S
H1781 N1768 0.985 . S
C1782 C1783 1.363 . S
C1782 C1788 1.379 . S
C1782 N1790 1.356 . S
C1783 C1782 1.363 . S
C1783 C1789 1.363 . S
C1784 C1785 1.363 . S
C1784 C1789 1.379 . S
C1784 N1791 1.356 . S
C1785 C1784 1.363 . S
C1785 C1788 1.363 . S
N1786 C1788 1.356 . S
N1786 H1798 0.984 . S
N1786 H1799 0.985 . S
N1787 C1789 1.356 . S
N1787 H1792 0.984 . S
N1787 H1793 0.985 . S
C1788 C1782 1.379 . S
C1788 C1785 1.363 . S
C1788 N1786 1.356 . S
C1789 C1783 1.363 . S
C1789 C1784 1.379 . S
C1789 N1787 1.356 . S
N1790 C1782 1.356 . S
N1790 H1796 0.984 . S
N1790 H1797 0.984 . S
N1791 C1784 1.356 . S
N1791 H1794 0.984 . S
N1791 H1795 0.985 . S
H1792 N1787 0.984 . S
H1793 N1787 0.985 . S
H1794 N1791 0.984 . S
H1795 N1791 0.985 . S
H1796 N1790 0.984 . S
H1797 N1790 0.984 . S
H1798 N1786 0.984 . S
H1799 N1786 0.985 . S
C1800 C1801 1.363 . S
C1800 C1806 1.379 . S
C1800 N1808 1.356 . S
C1801 C1800 1.363 . S
C1801 C1807 1.363 . S
C1802 C1803 1.363 . S
C1802 C1807 1.379 . S
C1802 N1809 1.356 . S
C1803 C1802 1.363 . S
C1803 C1806 1.363 . S
N1804 C1806 1.356 . S
N1804 H1816 0.984 . S
N1804 H1817 0.985 . S
N1805 C1807 1.356 . S
N1805 H1810 0.984 . S
N1805 H1811 0.985 . S
C1806 C1800 1.379 . S
C1806 C1803 1.363 . S
C1806 N1804 1.356 . S
C1807 C1801 1.363 . S
C1807 C1802 1.379 . S
C1807 N1805 1.356 . S
N1808 C1800 1.356 . S
N1808 H1814 0.984 . S
N1808 H1815 0.984 . S
N1809 C1802 1.356 . S
N1809 H1812 0.984 . S
N1809 H1813 0.985 . S
H1810 N1805 0.984 . S
H1811 N1805 0.985 . S
H1812 N1809 0.984 . S
H1813 N1809 0.985 . S
H1814 N1808 0.984 . S
H1815 N1808 0.984 . S
H1816 N1804 0.984 . S
H1817 N1804 0.985 . S
C1818 C1819 1.363 . S
C1818 C1824 1.379 . S
C1818 N1826 1.356 . S
C1819 C1818 1.363 . S
C1819 C1825 1.363 . S
C1820 C1821 1.363 . S
C1820 C1825 1.379 . S
C1820 N1827 1.356 . S
C1821 C1820 1.363 . S
C1821 C1824 1.363 . S
N1822 C1824 1.356 . S
N1822 H1834 0.984 . S
N1822 H1835 0.985 . S
N1823 C1825 1.356 . S
N1823 H1828 0.984 . S
N1823 H1829 0.985 . S
C1824 C1818 1.379 . S
C1824 C1821 1.363 . S
C1824 N1822 1.356 . S
C1825 C1819 1.363 . S
C1825 C1820 1.379 . S
C1825 N1823 1.356 . S
N1826 C1818 1.356 . S
N1826 H1832 0.984 . S
N1826 H1833 0.984 . S
N1827 C1820 1.356 . S
N1827 H1830 0.984 . S
N1827 H1831 0.985 . S
H1828 N1823 0.984 . S
H1829 N1823 0.985 . S
H1830 N1827 0.984 . S
H1831 N1827 0.985 . S
H1832 N1826 0.984 . S
H1833 N1826 0.984 . S
H1834 N1822 0.984 . S
H1835 N1822 0.985 . S
C1836 C1837 1.363 . S
C1836 C1842 1.379 . S
C1836 N1844 1.356 . S
C1837 C1836 1.363 . S
C1837 C1843 1.363 . S
C1838 C1839 1.363 . S
C1838 C1843 1.379 . S
C1838 N1845 1.356 . S
C1839 C1838 1.363 . S
C1839 C1842 1.363 . S
N1840 C1842 1.356 . S
N1840 H1852 0.984 . S
N1840 H1853 0.985 . S
N1841 C1843 1.356 1_545 S
N1841 H1846 0.984 . S
N1841 H1847 0.985 . S
C1842 C1836 1.379 . S
C1842 C1839 1.363 . S
C1842 N1840 1.356 . S
C1843 C1837 1.363 . S
C1843 C1838 1.379 . S
C1843 N1841 1.356 1_565 S
N1844 C1836 1.356 . S
N1844 H1850 0.984 . S
N1844 H1851 0.984 . S
N1845 C1838 1.356 . S
N1845 H1848 0.984 . S
N1845 H1849 0.985 . S
H1846 N1841 0.984 . S
H1847 N1841 0.985 . S
H1848 N1845 0.984 . S
H1849 N1845 0.985 . S
H1850 N1844 0.984 . S
H1851 N1844 0.984 . S
H1852 N1840 0.984 . S
H1853 N1840 0.985 . S
C1854 C1855 1.363 . S
C1854 C1860 1.379 . S
C1854 N1862 1.356 . S
C1855 C1854 1.363 . S
C1855 C1861 1.363 . S
C1856 C1857 1.363 . S
C1856 C1861 1.379 . S
C1856 N1863 1.356 . S
C1857 C1856 1.363 . S
C1857 C1860 1.363 . S
N1858 C1860 1.356 . S
N1858 H1870 0.984 . S
N1858 H1871 0.985 . S
N1859 C1861 1.356 . S
N1859 H1864 0.984 1_455 S
N1859 H1865 0.985 1_455 S
C1860 C1854 1.379 . S
C1860 C1857 1.363 . S
C1860 N1858 1.356 . S
C1861 C1855 1.363 . S
C1861 C1856 1.379 . S
C1861 N1859 1.356 . S
N1862 C1854 1.356 . S
N1862 H1868 0.984 . S
N1862 H1869 0.984 . S
N1863 C1856 1.356 . S
N1863 H1866 0.984 . S
N1863 H1867 0.985 . S
H1864 N1859 0.984 1_655 S
H1865 N1859 0.985 1_655 S
H1866 N1863 0.984 . S
H1867 N1863 0.985 . S
H1868 N1862 0.984 . S
H1869 N1862 0.984 . S
H1870 N1858 0.984 . S
H1871 N1858 0.985 . S
C1872 C1873 1.363 . S
C1872 C1878 1.379 . S
C1872 N1880 1.356 . S
C1873 C1872 1.363 . S
C1873 C1879 1.363 . S
C1874 C1875 1.363 . S
C1874 C1879 1.379 . S
C1874 N1881 1.356 . S
C1875 C1874 1.363 . S
C1875 C1878 1.363 . S
N1876 C1878 1.356 . S
N1876 H1888 0.984 . S
N1876 H1889 0.985 . S
N1877 C1879 1.356 . S
N1877 H1882 0.984 . S
N1877 H1883 0.985 . S
C1878 C1872 1.379 . S
C1878 C1875 1.363 . S
C1878 N1876 1.356 . S
C1879 C1873 1.363 . S
C1879 C1874 1.379 . S
C1879 N1877 1.356 . S
N1880 C1872 1.356 . S
N1880 H1886 0.984 . S
N1880 H1887 0.984 . S
N1881 C1874 1.356 . S
N1881 H1884 0.984 . S
N1881 H1885 0.985 . S
H1882 N1877 0.984 . S
H1883 N1877 0.985 . S
H1884 N1881 0.984 . S
H1885 N1881 0.985 . S
H1886 N1880 0.984 . S
H1887 N1880 0.984 . S
H1888 N1876 0.984 . S
H1889 N1876 0.985 . S
C1890 C1891 1.363 . S
C1890 C1896 1.379 . S
C1890 N1898 1.356 . S
C1891 C1890 1.363 . S
C1891 C1897 1.363 . S
C1892 C1893 1.363 . S
C1892 C1897 1.379 . S
C1892 N1899 1.356 . S
C1893 C1892 1.363 . S
C1893 C1896 1.363 . S
N1894 C1896 1.356 . S
N1894 H1906 0.984 . S
N1894 H1907 0.985 . S
N1895 C1897 1.356 . S
N1895 H1900 0.984 . S
N1895 H1901 0.985 . S
C1896 C1890 1.379 . S
C1896 C1893 1.363 . S
C1896 N1894 1.356 . S
C1897 C1891 1.363 . S
C1897 C1892 1.379 . S
C1897 N1895 1.356 . S
N1898 C1890 1.356 . S
N1898 H1904 0.984 . S
N1898 H1905 0.984 . S
N1899 C1892 1.356 . S
N1899 H1902 0.984 . S
N1899 H1903 0.985 . S
H1900 N1895 0.984 . S
H1901 N1895 0.985 . S
H1902 N1899 0.984 . S
H1903 N1899 0.985 . S
H1904 N1898 0.984 . S
H1905 N1898 0.984 . S
H1906 N1894 0.984 . S
H1907 N1894 0.985 . S
C1908 C1909 1.363 . S
C1908 C1914 1.379 . S
C1908 N1916 1.356 . S
C1909 C1908 1.363 . S
C1909 C1915 1.363 . S
C1910 C1911 1.363 . S
C1910 C1915 1.379 . S
C1910 N1917 1.356 . S
C1911 C1910 1.363 . S
C1911 C1914 1.363 . S
N1912 C1914 1.356 . S
N1912 H1924 0.984 . S
N1912 H1925 0.985 . S
N1913 C1915 1.356 . S
N1913 H1918 0.984 . S
N1913 H1919 0.985 . S
C1914 C1908 1.379 . S
C1914 C1911 1.363 . S
C1914 N1912 1.356 . S
C1915 C1909 1.363 . S
C1915 C1910 1.379 . S
C1915 N1913 1.356 . S
N1916 C1908 1.356 . S
N1916 H1922 0.984 . S
N1916 H1923 0.984 . S
N1917 C1910 1.356 . S
N1917 H1920 0.984 . S
N1917 H1921 0.985 . S
H1918 N1913 0.984 . S
H1919 N1913 0.985 . S
H1920 N1917 0.984 . S
H1921 N1917 0.985 . S
H1922 N1916 0.984 . S
H1923 N1916 0.984 . S
H1924 N1912 0.984 . S
H1925 N1912 0.985 . S
C1926 C1927 1.363 . S
C1926 C1932 1.379 . S
C1926 N1934 1.356 . S
C1927 C1926 1.363 . S
C1927 C1933 1.363 . S
C1928 C1929 1.363 . S
C1928 C1933 1.379 . S
C1928 N1935 1.356 . S
C1929 C1928 1.363 . S
C1929 C1932 1.363 . S
N1930 C1932 1.356 . S
N1930 H1942 0.984 . S
N1930 H1943 0.985 . S
N1931 C1933 1.356 . S
N1931 H1936 0.984 . S
N1931 H1937 0.985 . S
C1932 C1926 1.379 . S
C1932 C1929 1.363 . S
C1932 N1930 1.356 . S
C1933 C1927 1.363 . S
C1933 C1928 1.379 . S
C1933 N1931 1.356 . S
N1934 C1926 1.356 . S
N1934 H1940 0.984 . S
N1934 H1941 0.984 . S
N1935 C1928 1.356 . S
N1935 H1938 0.984 . S
N1935 H1939 0.985 . S
H1936 N1931 0.984 . S
H1937 N1931 0.985 . S
H1938 N1935 0.984 . S
H1939 N1935 0.985 . S
H1940 N1934 0.984 . S
H1941 N1934 0.984 . S
H1942 N1930 0.984 . S
H1943 N1930 0.985 . S
C1944 C1945 1.363 . S
C1944 C1950 1.379 . S
C1944 N1952 1.356 . S
C1945 C1944 1.363 . S
C1945 C1951 1.363 . S
C1946 C1947 1.363 . S
C1946 C1951 1.379 . S
C1946 N1953 1.356 . S
C1947 C1946 1.363 . S
C1947 C1950 1.363 . S
N1948 C1950 1.356 . S
N1948 H1960 0.984 . S
N1948 H1961 0.985 . S
N1949 C1951 1.356 . S
N1949 H1954 1.008 . S
N1949 H1955 0.985 . S
C1950 C1944 1.379 . S
C1950 C1947 1.363 . S
C1950 N1948 1.356 . S
C1951 C1945 1.363 . S
C1951 C1946 1.379 . S
C1951 N1949 1.356 . S
N1952 C1944 1.356 . S
N1952 H1958 0.984 . S
N1952 H1959 0.984 1_545 S
N1953 C1946 1.356 . S
N1953 H1956 0.984 . S
N1953 H1957 0.985 . S
H1954 N1949 1.008 . S
H1955 N1949 0.985 . S
H1956 N1953 0.984 . S
H1957 N1953 0.985 . S
H1958 N1952 0.984 . S
H1959 N1952 0.984 1_565 S
H1960 N1948 0.984 . S
H1961 N1948 0.985 . S
C1962 C1963 1.363 . S
C1962 C1968 1.379 . S
C1962 N1970 1.325 1_655 S
C1963 C1962 1.363 . S
C1963 C1969 1.363 . S
C1964 C1965 1.363 . S
C1964 C1969 1.379 . S
C1964 N1971 1.356 . S
C1965 C1964 1.363 . S
C1965 C1968 1.363 . S
N1966 C1968 1.356 . S
N1966 H1978 0.984 . S
N1966 H1979 0.985 . S
N1967 C1969 1.356 . S
N1967 H1972 0.984 . S
N1967 H1973 0.985 . S
C1968 C1962 1.379 . S
C1968 C1965 1.363 . S
C1968 N1966 1.356 . S
C1969 C1963 1.363 . S
C1969 C1964 1.379 . S
C1969 N1967 1.356 . S
N1970 C1962 1.325 1_455 S
N1970 H1976 0.986 . S
N1970 H1977 1.015 . S
N1971 C1964 1.356 . S
N1971 H1974 0.984 . S
N1971 H1975 0.985 . S
H1972 N1967 0.984 . S
H1973 N1967 0.985 . S
H1974 N1971 0.984 . S
H1975 N1971 0.985 . S
H1976 N1970 0.986 . S
H1977 N1970 1.015 . S
H1978 N1966 0.984 . S
H1979 N1966 0.985 . S
C1980 C1981 1.363 . S
C1980 C1986 1.379 . S
C1980 N1988 1.356 . S
C1981 C1980 1.363 . S
C1981 C1987 1.363 . S
C1982 C1983 1.363 . S
C1982 C1987 1.379 . S
C1982 N1989 1.356 . S
C1983 C1982 1.363 . S
C1983 C1986 1.363 . S
N1984 C1986 1.356 . S
N1984 H1996 0.984 . S
N1984 H1997 0.985 . S
N1985 C1987 1.356 . S
N1985 H1990 0.984 . S
N1985 H1991 0.985 . S
C1986 C1980 1.379 . S
C1986 C1983 1.363 . S
C1986 N1984 1.356 . S
C1987 C1981 1.363 . S
C1987 C1982 1.379 . S
C1987 N1985 1.356 . S
N1988 C1980 1.356 . S
N1988 H1994 0.984 . S
N1988 H1995 0.984 . S
N1989 C1982 1.356 . S
N1989 H1992 0.984 . S
N1989 H1993 0.985 . S
H1990 N1985 0.984 . S
H1991 N1985 0.985 . S
H1992 N1989 0.984 . S
H1993 N1989 0.985 . S
H1994 N1988 0.984 . S
H1995 N1988 0.984 . S
H1996 N1984 0.984 . S
H1997 N1984 0.985 . S
C1998 C1999 1.363 . S
C1998 C2004 1.379 . S
C1998 N2006 1.356 . S
C1999 C1998 1.363 . S
C1999 C2005 1.363 . S
C2000 C2001 1.363 . S
C2000 C2005 1.379 . S
C2000 N2007 1.356 . S
C2001 C2000 1.363 . S
C2001 C2004 1.363 . S
N2002 C2004 1.356 . S
N2002 H2014 0.984 . S
N2002 H2015 0.985 . S
N2003 C2005 1.356 . S
N2003 H2008 0.984 . S
N2003 H2009 0.985 . S
C2004 C1998 1.379 . S
C2004 C2001 1.363 . S
C2004 N2002 1.356 . S
C2005 C1999 1.363 . S
C2005 C2000 1.379 . S
C2005 N2003 1.356 . S
N2006 C1998 1.356 . S
N2006 H2012 0.985 1_655 S
N2006 H2013 0.984 1_655 S
N2007 C2000 1.356 . S
N2007 H2010 0.984 . S
N2007 H2011 0.985 . S
H2008 N2003 0.984 . S
H2009 N2003 0.985 . S
H2010 N2007 0.984 . S
H2011 N2007 0.985 . S
H2012 N2006 0.985 1_455 S
H2013 N2006 0.984 1_455 S
H2014 N2002 0.984 . S
H2015 N2002 0.985 . S
C2016 C2017 1.363 . S
C2016 C2022 1.379 . S
C2016 N2024 1.356 . S
C2017 C2016 1.363 . S
C2017 C2023 1.363 . S
C2018 C2019 1.363 . S
C2018 C2023 1.379 . S
C2018 N2025 1.356 . S
C2019 C2018 1.363 . S
C2019 C2022 1.363 . S
N2020 C2022 1.356 . S
N2020 H2032 0.984 . S
N2020 H2033 0.985 . S
N2021 C2023 1.356 . S
N2021 H2026 0.984 . S
N2021 H2027 0.985 . S
C2022 C2016 1.379 . S
C2022 C2019 1.363 . S
C2022 N2020 1.356 . S
C2023 C2017 1.363 . S
C2023 C2018 1.379 . S
C2023 N2021 1.356 . S
N2024 C2016 1.356 . S
N2024 H2030 0.984 . S
N2024 H2031 0.984 . S
N2025 C2018 1.356 . S
N2025 H2028 0.984 . S
N2025 H2029 0.985 . S
H2026 N2021 0.984 . S
H2027 N2021 0.985 . S
H2028 N2025 0.984 . S
H2029 N2025 0.985 . S
H2030 N2024 0.984 . S
H2031 N2024 0.984 . S
H2032 N2020 0.984 . S
H2033 N2020 0.985 . S
C2034 C2035 1.363 . S
C2034 C2040 1.379 . S
C2034 N2042 1.356 . S
C2035 C2034 1.363 . S
C2035 C2041 1.363 . S
C2036 C2037 1.363 . S
C2036 C2041 1.379 . S
C2036 N2043 1.356 . S
C2037 C2036 1.363 . S
C2037 C2040 1.363 . S
N2038 C2040 1.356 . S
N2038 H2050 0.984 . S
N2038 H2051 0.985 . S
N2039 C2041 1.356 1_565 S
N2039 H2044 0.984 . S
N2039 H2045 0.985 . S
C2040 C2034 1.379 . S
C2040 C2037 1.363 . S
C2040 N2038 1.356 . S
C2041 C2035 1.363 . S
C2041 C2036 1.379 . S
C2041 N2039 1.356 1_545 S
N2042 C2034 1.356 . S
N2042 H2048 0.984 . S
N2042 H2049 0.984 . S
N2043 C2036 1.356 . S
N2043 H2046 0.984 . S
N2043 H2047 0.985 . S
H2044 N2039 0.984 . S
H2045 N2039 0.985 . S
H2046 N2043 0.984 . S
H2047 N2043 0.985 . S
H2048 N2042 0.984 . S
H2049 N2042 0.984 . S
H2050 N2038 0.984 . S
H2051 N2038 0.985 . S
C2052 C2053 1.363 . S
C2052 C2058 1.379 . S
C2052 N2060 1.356 . S
C2053 C2052 1.363 . S
C2053 C2059 1.363 . S
C2054 C2055 1.363 . S
C2054 C2059 1.379 . S
C2054 N2061 1.356 . S
C2055 C2054 1.363 . S
C2055 C2058 1.363 . S
N2056 C2058 1.356 . S
N2056 H2068 0.984 . S
N2056 H2069 0.985 . S
N2057 C2059 1.356 . S
N2057 H2062 0.984 . S
N2057 H2063 0.985 . S
C2058 C2052 1.379 . S
C2058 C2055 1.363 . S
C2058 N2056 1.356 . S
C2059 C2053 1.363 . S
C2059 C2054 1.379 . S
C2059 N2057 1.356 . S
N2060 C2052 1.356 . S
N2060 H2066 0.984 . S
N2060 H2067 0.984 . S
N2061 C2054 1.356 . S
N2061 H2064 0.984 . S
N2061 H2065 0.985 . S
H2062 N2057 0.984 . S
H2063 N2057 0.985 . S
H2064 N2061 0.984 . S
H2065 N2061 0.985 . S
H2066 N2060 0.984 . S
H2067 N2060 0.984 . S
H2068 N2056 0.984 . S
H2069 N2056 0.985 . S
C2070 C2071 1.363 . S
C2070 C2076 1.379 . S
C2070 N2078 1.356 . S
C2071 C2070 1.363 . S
C2071 C2077 1.363 . S
C2072 C2073 1.363 . S
C2072 C2077 1.379 . S
C2072 N2079 1.356 . S
C2073 C2072 1.363 . S
C2073 C2076 1.363 . S
N2074 C2076 1.356 . S
N2074 H2086 0.984 . S
N2074 H2087 0.985 . S
N2075 C2077 1.356 . S
N2075 H2080 0.984 . S
N2075 H2081 0.985 . S
C2076 C2070 1.379 . S
C2076 C2073 1.363 . S
C2076 N2074 1.356 . S
C2077 C2071 1.363 . S
C2077 C2072 1.379 . S
C2077 N2075 1.356 . S
N2078 C2070 1.356 . S
N2078 H2084 0.984 . S
N2078 H2085 0.984 . S
N2079 C2072 1.356 . S
N2079 H2082 0.984 . S
N2079 H2083 0.985 . S
H2080 N2075 0.984 . S
H2081 N2075 0.985 . S
H2082 N2079 0.984 . S
H2083 N2079 0.985 . S
H2084 N2078 0.984 . S
H2085 N2078 0.984 . S
H2086 N2074 0.984 . S
H2087 N2074 0.985 . S
C2088 C2089 1.363 . S
C2088 C2094 1.379 . S
C2088 N2096 1.356 . S
C2089 C2088 1.363 . S
C2089 C2095 1.363 . S
C2090 C2091 1.363 . S
C2090 C2095 1.379 . S
C2090 N2097 1.356 . S
C2091 C2090 1.363 . S
C2091 C2094 1.363 . S
N2092 C2094 1.356 . S
N2092 H2104 0.984 . S
N2092 H2105 0.985 . S
N2093 C2095 1.356 . S
N2093 H2098 0.984 . S
N2093 H2099 0.985 . S
C2094 C2088 1.379 . S
C2094 C2091 1.363 . S
C2094 N2092 1.356 . S
C2095 C2089 1.363 . S
C2095 C2090 1.379 . S
C2095 N2093 1.356 . S
N2096 C2088 1.356 . S
N2096 H2102 0.984 . S
N2096 H2103 0.984 . S
N2097 C2090 1.356 . S
N2097 H2100 0.984 . S
N2097 H2101 0.985 . S
H2098 N2093 0.984 . S
H2099 N2093 0.985 . S
H2100 N2097 0.984 . S
H2101 N2097 0.985 . S
H2102 N2096 0.984 . S
H2103 N2096 0.984 . S
H2104 N2092 0.984 . S
H2105 N2092 0.985 . S
C2106 C2107 1.363 . S
C2106 C2112 1.379 . S
C2106 N2114 1.356 . S
C2107 C2106 1.363 . S
C2107 C2113 1.363 . S
C2108 C2109 1.363 . S
C2108 C2113 1.379 . S
C2108 N2115 1.356 . S
C2109 C2108 1.363 . S
C2109 C2112 1.363 . S
N2110 C2112 1.356 1_545 S
N2110 H2122 0.984 . S
N2110 H2123 0.985 . S
N2111 C2113 1.356 . S
N2111 H2116 0.984 . S
N2111 H2117 0.985 . S
C2112 C2106 1.379 . S
C2112 C2109 1.363 . S
C2112 N2110 1.356 1_565 S
C2113 C2107 1.363 . S
C2113 C2108 1.379 . S
C2113 N2111 1.356 . S
N2114 C2106 1.356 . S
N2114 H2120 0.984 1_565 S
N2114 H2121 0.984 . S
N2115 C2108 1.356 . S
N2115 H2118 0.984 . S
N2115 H2119 0.985 . S
H2116 N2111 0.984 . S
H2117 N2111 0.985 . S
H2118 N2115 0.984 . S
H2119 N2115 0.985 . S
H2120 N2114 0.984 1_545 S
H2121 N2114 0.984 . S
H2122 N2110 0.984 . S
H2123 N2110 0.985 . S
C2124 C2125 1.363 . S
C2124 C2130 1.379 . S
C2124 N2132 1.356 . S
C2125 C2124 1.363 . S
C2125 C2131 1.363 . S
C2126 C2127 1.363 . S
C2126 C2131 1.379 . S
C2126 N2133 1.356 . S
C2127 C2126 1.363 . S
C2127 C2130 1.363 . S
N2128 C2130 1.356 . S
N2128 H2140 0.984 . S
N2128 H2141 0.985 . S
N2129 C2131 1.356 . S
N2129 H2134 0.984 . S
N2129 H2135 0.985 . S
C2130 C2124 1.379 . S
C2130 C2127 1.363 . S
C2130 N2128 1.356 . S
C2131 C2125 1.363 . S
C2131 C2126 1.379 . S
C2131 N2129 1.356 . S
N2132 C2124 1.356 . S
N2132 H2138 0.984 . S
N2132 H2139 0.984 . S
N2133 C2126 1.356 . S
N2133 H2136 0.984 . S
N2133 H2137 0.985 . S
H2134 N2129 0.984 . S
H2135 N2129 0.985 . S
H2136 N2133 0.984 . S
H2137 N2133 0.985 . S
H2138 N2132 0.984 . S
H2139 N2132 0.984 . S
H2140 N2128 0.984 . S
H2141 N2128 0.985 . S
C2142 C2143 1.363 . S
C2142 C2148 1.379 . S
C2142 N2150 1.356 . S
C2143 C2142 1.363 . S
C2143 C2149 1.363 . S
C2144 C2145 1.363 . S
C2144 C2149 1.379 . S
C2144 N2151 1.356 . S
C2145 C2144 1.363 . S
C2145 C2148 1.363 . S
N2146 C2148 1.356 . S
N2146 H2158 0.984 . S
N2146 H2159 0.985 . S
N2147 C2149 1.356 . S
N2147 H2152 0.984 . S
N2147 H2153 0.985 . S
C2148 C2142 1.379 . S
C2148 C2145 1.363 . S
C2148 N2146 1.356 . S
C2149 C2143 1.363 . S
C2149 C2144 1.379 . S
C2149 N2147 1.356 . S
N2150 C2142 1.356 . S
N2150 H2156 0.984 . S
N2150 H2157 0.984 . S
N2151 C2144 1.356 . S
N2151 H2154 0.984 . S
N2151 H2155 0.985 . S
H2152 N2147 0.984 . S
H2153 N2147 0.985 . S
H2154 N2151 0.984 . S
H2155 N2151 0.985 . S
H2156 N2150 0.984 . S
H2157 N2150 0.984 . S
H2158 N2146 0.984 . S
H2159 N2146 0.985 . S
C2160 C2161 1.363 . S
C2160 C2166 1.379 . S
C2160 N2168 1.356 1_655 S
C2161 C2160 1.363 . S
C2161 C2167 1.363 . S
C2162 C2163 1.363 . S
C2162 C2167 1.379 . S
C2162 N2169 1.356 . S
C2163 C2162 1.363 . S
C2163 C2166 1.363 . S
N2164 C2166 1.356 1_455 S
N2164 H2176 0.984 . S
N2164 H2177 0.985 . S
N2165 C2167 1.356 . S
N2165 H2170 0.984 . S
N2165 H2171 0.985 . S
C2166 C2160 1.379 . S
C2166 C2163 1.363 . S
C2166 N2164 1.356 1_655 S
C2167 C2161 1.363 . S
C2167 C2162 1.379 . S
C2167 N2165 1.356 . S
N2168 C2160 1.356 1_455 S
N2168 H2174 0.984 . S
N2168 H2175 0.984 1_455 S
N2169 C2162 1.356 . S
N2169 H2172 0.984 . S
N2169 H2173 0.985 . S
H2170 N2165 0.984 . S
H2171 N2165 0.985 . S
H2172 N2169 0.984 . S
H2173 N2169 0.985 . S
H2174 N2168 0.984 . S
H2175 N2168 0.984 1_655 S
H2176 N2164 0.984 . S
H2177 N2164 0.985 . S
C2178 C2179 1.363 . S
C2178 C2184 1.379 . S
C2178 N2186 1.356 . S
C2179 C2178 1.363 . S
C2179 C2185 1.363 . S
C2180 C2181 1.363 . S
C2180 C2185 1.379 . S
C2180 N2187 1.356 . S
C2181 C2180 1.363 . S
C2181 C2184 1.363 . S
N2182 C2184 1.356 . S
N2182 H2194 0.984 . S
N2182 H2195 0.985 . S
N2183 C2185 1.356 . S
N2183 H2188 0.984 . S
N2183 H2189 0.985 . S
C2184 C2178 1.379 . S
C2184 C2181 1.363 . S
C2184 N2182 1.356 . S
C2185 C2179 1.363 . S
C2185 C2180 1.379 . S
C2185 N2183 1.356 . S
N2186 C2178 1.356 . S
N2186 H2192 0.984 . S
N2186 H2193 0.984 . S
N2187 C2180 1.356 . S
N2187 H2190 0.984 . S
N2187 H2191 0.985 . S
H2188 N2183 0.984 . S
H2189 N2183 0.985 . S
H2190 N2187 0.984 . S
H2191 N2187 0.985 . S
H2192 N2186 0.984 . S
H2193 N2186 0.984 . S
H2194 N2182 0.984 . S
H2195 N2182 0.985 . S
C2196 C2197 1.363 . S
C2196 C2202 1.379 . S
C2196 N2204 1.356 . S
C2197 C2196 1.363 . S
C2197 C2203 1.363 . S
C2198 C2199 1.363 . S
C2198 C2203 1.379 . S
C2198 N2205 1.356 . S
C2199 C2198 1.363 . S
C2199 C2202 1.363 . S
N2200 C2202 1.356 1_565 S
N2200 H2212 0.984 . S
N2200 H2213 0.985 . S
N2201 C2203 1.356 . S
N2201 H2206 0.984 . S
N2201 H2207 0.985 . S
C2202 C2196 1.379 . S
C2202 C2199 1.363 . S
C2202 N2200 1.356 1_545 S
C2203 C2197 1.363 . S
C2203 C2198 1.379 . S
C2203 N2201 1.356 . S
N2204 C2196 1.356 . S
N2204 H2210 0.984 1_545 S
N2204 H2211 0.984 . S
N2205 C2198 1.356 . S
N2205 H2208 0.984 . S
N2205 H2209 0.985 . S
H2206 N2201 0.984 . S
H2207 N2201 0.985 . S
H2208 N2205 0.984 . S
H2209 N2205 0.985 . S
H2210 N2204 0.984 1_565 S
H2211 N2204 0.984 . S
H2212 N2200 0.984 . S
H2213 N2200 0.985 . S
C2214 C2215 1.363 . S
C2214 C2220 1.379 . S
C2214 N2222 1.356 . S
C2215 C2214 1.363 . S
C2215 C2221 1.363 . S
C2216 C2217 1.363 . S
C2216 C2221 1.379 . S
C2216 N2223 1.356 . S
C2217 C2216 1.363 . S
C2217 C2220 1.363 . S
N2218 C2220 1.356 . S
N2218 H2230 0.984 . S
N2218 H2231 0.985 . S
N2219 C2221 1.356 . S
N2219 H2224 0.984 . S
N2219 H2225 0.985 . S
C2220 C2214 1.379 . S
C2220 C2217 1.363 . S
C2220 N2218 1.356 . S
C2221 C2215 1.363 . S
C2221 C2216 1.379 . S
C2221 N2219 1.356 . S
N2222 C2214 1.356 . S
N2222 H2228 0.984 . S
N2222 H2229 0.984 . S
N2223 C2216 1.356 . S
N2223 H2226 0.984 . S
N2223 H2227 0.985 . S
H2224 N2219 0.984 . S
H2225 N2219 0.985 . S
H2226 N2223 0.984 . S
H2227 N2223 0.985 . S
H2228 N2222 0.984 . S
H2229 N2222 0.984 . S
H2230 N2218 0.984 . S
H2231 N2218 0.985 . S
C2232 C2233 1.363 . S
C2232 C2238 1.379 . S
C2232 N2240 1.356 . S
C2233 C2232 1.363 . S
C2233 C2239 1.363 . S
C2234 C2235 1.363 . S
C2234 C2239 1.379 . S
C2234 N2241 1.356 . S
C2235 C2234 1.363 . S
C2235 C2238 1.363 . S
N2236 C2238 1.356 . S
N2236 H2248 0.984 . S
N2236 H2249 0.985 . S
N2237 C2239 1.356 . S
N2237 H2242 0.984 . S
N2237 H2243 0.985 . S
C2238 C2232 1.379 . S
C2238 C2235 1.363 . S
C2238 N2236 1.356 . S
C2239 C2233 1.363 . S
C2239 C2234 1.379 . S
C2239 N2237 1.356 . S
N2240 C2232 1.356 . S
N2240 H2246 0.984 . S
N2240 H2247 0.984 . S
N2241 C2234 1.356 . S
N2241 H2244 0.984 . S
N2241 H2245 0.985 . S
H2242 N2237 0.984 . S
H2243 N2237 0.985 . S
H2244 N2241 0.984 . S
H2245 N2241 0.985 . S
H2246 N2240 0.984 . S
H2247 N2240 0.984 . S
H2248 N2236 0.984 . S
H2249 N2236 0.985 . S
C2250 C2251 1.363 . S
C2250 C2256 1.379 . S
C2250 N2258 1.356 . S
C2251 C2250 1.363 . S
C2251 C2257 1.363 . S
C2252 C2253 1.363 . S
C2252 C2257 1.379 . S
C2252 N2259 1.356 . S
C2253 C2252 1.363 . S
C2253 C2256 1.363 . S
N2254 C2256 1.356 . S
N2254 H2266 0.984 . S
N2254 H2267 0.985 . S
N2255 C2257 1.356 . S
N2255 H2260 0.984 . S
N2255 H2261 0.985 . S
C2256 C2250 1.379 . S
C2256 C2253 1.363 . S
C2256 N2254 1.356 . S
C2257 C2251 1.363 . S
C2257 C2252 1.379 . S
C2257 N2255 1.356 . S
N2258 C2250 1.356 . S
N2258 H2264 0.984 . S
N2258 H2265 0.984 . S
N2259 C2252 1.356 . S
N2259 H2262 0.984 . S
N2259 H2263 0.985 . S
H2260 N2255 0.984 . S
H2261 N2255 0.985 . S
H2262 N2259 0.984 . S
H2263 N2259 0.985 . S
H2264 N2258 0.984 . S
H2265 N2258 0.984 . S
H2266 N2254 0.984 . S
H2267 N2254 0.985 . S
C2268 C2269 1.363 . S
C2268 C2274 1.379 . S
C2268 N2276 1.356 . S
C2269 C2268 1.363 . S
C2269 C2275 1.363 . S
C2270 C2271 1.363 . S
C2270 C2275 1.379 . S
C2270 N2277 1.356 . S
C2271 C2270 1.363 . S
C2271 C2274 1.363 . S
N2272 C2274 1.356 . S
N2272 H2284 0.984 . S
N2272 H2285 0.985 . S
N2273 C2275 1.356 . S
N2273 H2278 0.984 . S
N2273 H2279 0.985 . S
C2274 C2268 1.379 . S
C2274 C2271 1.363 . S
C2274 N2272 1.356 . S
C2275 C2269 1.363 . S
C2275 C2270 1.379 . S
C2275 N2273 1.356 . S
N2276 C2268 1.356 . S
N2276 H2282 0.984 . S
N2276 H2283 0.984 . S
N2277 C2270 1.356 . S
N2277 H2280 0.984 . S
N2277 H2281 0.985 . S
H2278 N2273 0.984 . S
H2279 N2273 0.985 . S
H2280 N2277 0.984 . S
H2281 N2277 0.985 . S
H2282 N2276 0.984 . S
H2283 N2276 0.984 . S
H2284 N2272 0.984 . S
H2285 N2272 0.985 . S
C2286 C2287 1.363 . S
C2286 C2292 1.379 . S
C2286 N2294 1.356 . S
C2287 C2286 1.363 . S
C2287 C2293 1.363 . S
C2288 C2289 1.363 . S
C2288 C2293 1.379 . S
C2288 N2295 1.356 . S
C2289 C2288 1.363 . S
C2289 C2292 1.363 . S
N2290 C2292 1.356 . S
N2290 H2302 0.984 . S
N2290 H2303 0.985 . S
N2291 C2293 1.356 . S
N2291 H2296 0.984 . S
N2291 H2297 0.985 . S
C2292 C2286 1.379 . S
C2292 C2289 1.363 . S
C2292 N2290 1.356 . S
C2293 C2287 1.363 . S
C2293 C2288 1.379 . S
C2293 N2291 1.356 . S
N2294 C2286 1.356 . S
N2294 H2300 0.984 . S
N2294 H2301 0.984 . S
N2295 C2288 1.356 . S
N2295 H2298 0.984 . S
N2295 H2299 0.985 . S
H2296 N2291 0.984 . S
H2297 N2291 0.985 . S
H2298 N2295 0.984 . S
H2299 N2295 0.985 . S
H2300 N2294 0.984 . S
H2301 N2294 0.984 . S
H2302 N2290 0.984 . S
H2303 N2290 0.985 . S
C2304 C2305 1.363 . S
C2304 C2310 1.379 . S
C2304 N2312 1.356 . S
C2305 C2304 1.363 . S
C2305 C2311 1.363 . S
C2306 C2307 1.363 . S
C2306 C2311 1.379 . S
C2306 N2313 1.356 . S
C2307 C2306 1.363 . S
C2307 C2310 1.363 . S
N2308 C2310 1.356 . S
N2308 H2320 0.984 . S
N2308 H2321 0.985 . S
N2309 C2311 1.356 . S
N2309 H2314 0.984 . S
N2309 H2315 0.985 . S
C2310 C2304 1.379 . S
C2310 C2307 1.363 . S
C2310 N2308 1.356 . S
C2311 C2305 1.363 . S
C2311 C2306 1.379 . S
C2311 N2309 1.356 . S
N2312 C2304 1.356 . S
N2312 H2318 0.984 . S
N2312 H2319 0.984 . S
N2313 C2306 1.356 . S
N2313 H2316 0.984 . S
N2313 H2317 0.985 . S
H2314 N2309 0.984 . S
H2315 N2309 0.985 . S
H2316 N2313 0.984 . S
H2317 N2313 0.985 . S
H2318 N2312 0.984 . S
H2319 N2312 0.984 . S
H2320 N2308 0.984 . S
H2321 N2308 0.985 . S
C2322 C2323 1.363 . S
C2322 C2328 1.379 . S
C2322 N2330 1.356 . S
C2323 C2322 1.363 . S
C2323 C2329 1.363 . S
C2324 C2325 1.363 . S
C2324 C2329 1.379 . S
C2324 N2331 1.356 . S
C2325 C2324 1.363 . S
C2325 C2328 1.363 . S
N2326 C2328 1.356 . S
N2326 H2338 0.984 . S
N2326 H2339 0.985 . S
N2327 C2329 1.356 . S
N2327 H2332 0.984 . S
N2327 H2333 0.985 . S
C2328 C2322 1.379 . S
C2328 C2325 1.363 . S
C2328 N2326 1.356 . S
C2329 C2323 1.363 . S
C2329 C2324 1.379 . S
C2329 N2327 1.356 . S
N2330 C2322 1.356 . S
N2330 H2336 0.984 . S
N2330 H2337 0.984 . S
N2331 C2324 1.356 . S
N2331 H2334 0.984 . S
N2331 H2335 0.985 . S
H2332 N2327 0.984 . S
H2333 N2327 0.985 . S
H2334 N2331 0.984 . S
H2335 N2331 0.985 . S
H2336 N2330 0.984 . S
H2337 N2330 0.984 . S
H2338 N2326 0.984 . S
H2339 N2326 0.985 . S
C2340 C2341 1.363 . S
C2340 C2346 1.379 . S
C2340 N2348 1.356 . S
C2341 C2340 1.363 . S
C2341 C2347 1.363 . S
C2342 C2343 1.363 . S
C2342 C2347 1.379 . S
C2342 N2349 1.356 . S
C2343 C2342 1.363 . S
C2343 C2346 1.363 . S
N2344 C2346 1.356 . S
N2344 H2356 0.984 . S
N2344 H2357 0.985 . S
N2345 C2347 1.356 . S
N2345 H2350 0.984 . S
N2345 H2351 0.985 . S
C2346 C2340 1.379 . S
C2346 C2343 1.363 . S
C2346 N2344 1.356 . S
C2347 C2341 1.363 . S
C2347 C2342 1.379 . S
C2347 N2345 1.356 . S
N2348 C2340 1.356 . S
N2348 H2354 0.984 . S
N2348 H2355 0.984 . S
N2349 C2342 1.356 . S
N2349 H2352 0.984 . S
N2349 H2353 0.985 . S
H2350 N2345 0.984 . S
H2351 N2345 0.985 . S
H2352 N2349 0.984 . S
H2353 N2349 0.985 . S
H2354 N2348 0.984 . S
H2355 N2348 0.984 . S
H2356 N2344 0.984 . S
H2357 N2344 0.985 . S
C2358 C2359 1.363 . S
C2358 C2364 1.379 . S
C2358 N2366 1.356 . S
C2359 C2358 1.363 . S
C2359 C2365 1.363 . S
C2360 C2361 1.363 . S
C2360 C2365 1.379 . S
C2360 N2367 1.356 . S
C2361 C2360 1.363 . S
C2361 C2364 1.363 . S
N2362 C2364 1.356 . S
N2362 H2374 0.984 . S
N2362 H2375 0.985 . S
N2363 C2365 1.356 . S
N2363 H2368 0.984 . S
N2363 H2369 0.985 . S
C2364 C2358 1.379 . S
C2364 C2361 1.363 . S
C2364 N2362 1.356 . S
C2365 C2359 1.363 . S
C2365 C2360 1.379 . S
C2365 N2363 1.356 . S
N2366 C2358 1.356 . S
N2366 H2372 0.984 . S
N2366 H2373 0.984 . S
N2367 C2360 1.356 . S
N2367 H2370 0.984 . S
N2367 H2371 0.985 . S
H2368 N2363 0.984 . S
H2369 N2363 0.985 . S
H2370 N2367 0.984 . S
H2371 N2367 0.985 . S
H2372 N2366 0.984 . S
H2373 N2366 0.984 . S
H2374 N2362 0.984 . S
H2375 N2362 0.985 . S
C2376 C2377 1.363 . S
C2376 C2382 1.379 . S
C2376 N2384 1.356 . S
C2377 C2376 1.363 . S
C2377 C2383 1.363 . S
C2378 C2379 1.363 . S
C2378 C2383 1.379 . S
C2378 N2385 1.356 . S
C2379 C2378 1.363 . S
C2379 C2382 1.363 . S
N2380 C2382 1.356 . S
N2380 H2392 0.984 . S
N2380 H2393 0.985 . S
N2381 C2383 1.356 . S
N2381 H2386 0.984 . S
N2381 H2387 0.985 . S
C2382 C2376 1.379 . S
C2382 C2379 1.363 . S
C2382 N2380 1.356 . S
C2383 C2377 1.363 . S
C2383 C2378 1.379 . S
C2383 N2381 1.356 . S
N2384 C2376 1.356 . S
N2384 H2390 0.984 . S
N2384 H2391 0.984 . S
N2385 C2378 1.356 . S
N2385 H2388 0.984 . S
N2385 H2389 0.985 . S
H2386 N2381 0.984 . S
H2387 N2381 0.985 . S
H2388 N2385 0.984 . S
H2389 N2385 0.985 . S
H2390 N2384 0.984 . S
H2391 N2384 0.984 . S
H2392 N2380 0.984 . S
H2393 N2380 0.985 . S
C2394 C2395 1.363 . S
C2394 C2400 1.379 . S
C2394 N2402 1.356 . S
C2395 C2394 1.363 . S
C2395 C2401 1.363 . S
C2396 C2397 1.363 . S
C2396 C2401 1.379 . S
C2396 N2403 1.356 . S
C2397 C2396 1.363 . S
C2397 C2400 1.363 . S
N2398 C2400 1.356 . S
N2398 H2410 0.984 . S
N2398 H2411 0.985 . S
N2399 C2401 1.356 . S
N2399 H2404 0.984 . S
N2399 H2405 0.985 . S
C2400 C2394 1.379 . S
C2400 C2397 1.363 . S
C2400 N2398 1.356 . S
C2401 C2395 1.363 . S
C2401 C2396 1.379 . S
C2401 N2399 1.356 . S
N2402 C2394 1.356 . S
N2402 H2408 0.984 . S
N2402 H2409 0.984 . S
N2403 C2396 1.356 . S
N2403 H2406 0.984 . S
N2403 H2407 0.985 . S
H2404 N2399 0.984 . S
H2405 N2399 0.985 . S
H2406 N2403 0.984 . S
H2407 N2403 0.985 . S
H2408 N2402 0.984 . S
H2409 N2402 0.984 . S
H2410 N2398 0.984 . S
H2411 N2398 0.985 . S
C2412 C2413 1.363 . S
C2412 C2418 1.379 . S
C2412 N2420 1.356 . S
C2413 C2412 1.363 . S
C2413 C2419 1.363 . S
C2414 C2415 1.363 . S
C2414 C2419 1.379 . S
C2414 N2421 1.356 . S
C2415 C2414 1.363 . S
C2415 C2418 1.363 . S
N2416 C2418 1.356 . S
N2416 H2428 0.984 . S
N2416 H2429 0.985 . S
N2417 C2419 1.356 . S
N2417 H2422 0.984 . S
N2417 H2423 0.985 . S
C2418 C2412 1.379 . S
C2418 C2415 1.363 . S
C2418 N2416 1.356 . S
C2419 C2413 1.363 . S
C2419 C2414 1.379 . S
C2419 N2417 1.356 . S
N2420 C2412 1.356 . S
N2420 H2426 0.984 . S
N2420 H2427 0.984 . S
N2421 C2414 1.356 . S
N2421 H2424 0.984 . S
N2421 H2425 0.985 . S
H2422 N2417 0.984 . S
H2423 N2417 0.985 . S
H2424 N2421 0.984 . S
H2425 N2421 0.985 . S
H2426 N2420 0.984 . S
H2427 N2420 0.984 . S
H2428 N2416 0.984 . S
H2429 N2416 0.985 . S
C1459 C528 1.462 . S
C1461 C758 1.386 . S
C1477 C562 1.512 . S
C1479 C842 1.439 . S
C1495 C484 1.511 . S
C1497 C936 1.454 . S
C1513 C445 1.468 . S
C1515 C852 1.416 . S
C1533 C926 1.382 . S
C1531 C367 1.461 . S
C1549 C411 1.448 . S
C1551 C768 1.389 . S
C1569 C769 1.402 . S
C1567 C450 1.472 . S
C1587 C853 1.428 . S
C1585 C372 1.494 . S
C1603 C406 1.508 . S
C1605 C945 1.453 . S
C1621 C523 1.465 . S
C1623 C861 1.415 . S
C1639 C567 1.442 . S
C1641 C937 1.370 . S
C1659 C777 1.405 . S
C1657 C489 1.456 . S
C1677 C1010 1.386 . S
C1675 C60 1.461 1_455 S
C1693 C94 1.512 . S
C1695 C1094 1.439 . S
C1711 C16 1.512 1_565 S
C1713 C1188 1.454 . S
C1729 C679 1.468 . S
C1731 C1104 1.416 . S
C1747 C601 1.461 . S
C1749 C1178 1.382 . S
C1765 C645 1.448 . S
C1767 C1020 1.389 . S
C1783 C684 1.472 . S
C1785 C1021 1.402 . S
C1801 C606 1.494 . S
C1803 C1105 1.428 . S
C1821 C1197 1.453 . S
C1819 C640 1.509 . S
C1837 C55 1.465 1_565 S
C1839 C1113 1.415 . S
C1857 C1189 1.369 . S
C1855 C99 1.442 1_455 S
C1873 C21 1.456 . S
C1875 C1029 1.405 . S
C1893 C1262 1.386 . S
C1891 C294 1.462 . S
C1909 C328 1.512 . S
C1911 C1346 1.439 . S
C1929 C1440 1.454 . S
C1927 C250 1.511 . S
C1947 C1356 1.416 . S
C1945 C211 1.468 1_545 S
C1965 C1430 1.381 . S
C1963 C133 1.460 1_655 S
C1981 C177 1.448 . S
C1983 C1272 1.389 . S
C1999 C216 1.472 1_655 S
C2001 C1273 1.401 . S
C2017 C138 1.494 . S
C2019 C1357 1.428 . S
C2037 C1449 1.453 . S
C2035 C172 1.508 1_545 S
C2053 C289 1.465 . S
C2055 C1365 1.414 . S
C2071 C333 1.442 . S
C2073 C1441 1.370 . S
C2089 C255 1.456 . S
C2091 C1281 1.405 . S
C2107 C586 1.491 . S
C2109 C765 1.383 . S
C2127 C849 1.360 . S
C2125 C625 1.507 . S
C2143 C664 1.495 . S
C2145 C942 1.364 . S
C2161 C235 1.517 . S
C2163 C858 1.368 . S
C2179 C274 1.484 . S
C2181 C933 1.355 . S
C2199 C774 1.385 . S
C2197 C313 1.491 . S
C2215 C118 1.491 . S
C2217 C1017 1.383 . S
C2233 C157 1.507 . S
C2235 C1101 1.360 . S
C2251 C196 1.495 . S
C2253 C1194 1.363 . S
C2269 C469 1.517 . S
C2271 C1110 1.368 . S
C2289 C1185 1.356 . S
C2287 C508 1.484 . S
C2305 C547 1.491 . S
C2307 C1026 1.385 . S
C2323 C352 1.491 . S
C2325 C1269 1.383 . S
C2341 C391 1.507 . S
C2343 C1353 1.360 . S
C2361 C1446 1.364 . S
C2359 C430 1.495 . S
C2377 C1 1.517 . S
C2379 C1362 1.369 . S
C2395 C40 1.484 . S
C2397 C1437 1.355 . S
C2413 C79 1.490 . S
C2415 C1278 1.385 . S
