# Generated by pormake.
# Topology pyr, (3,6)-cn, num edge types: 1
# Building blocks:
#     Node 0, Type 0, BuildingBlock: PAMTOO_clean_linker_0, # of connection points: 3
#     Node 1, Type 0, BuildingBlock: PAMTOO_clean_linker_0, # of connection points: 3
#     Node 2, Type 0, BuildingBlock: PAMTOO_clean_linker_0, # of connection points: 3
#     Node 3, Type 0, BuildingBlock: PAMTOO_clean_linker_0, # of connection points: 3
#     Node 4, Type 0, BuildingBlock: PAMTOO_clean_linker_0, # of connection points: 3
#     Node 5, Type 0, BuildingBlock: PAMTOO_clean_linker_0, # of connection points: 3
#     Node 6, Type 0, BuildingBlock: PAMTOO_clean_linker_0, # of connection points: 3
#     Node 7, Type 0, BuildingBlock: PAMTOO_clean_linker_0, # of connection points: 3
#     Node 8, Type 1, BuildingBlock: GEDQOX_clean_sbu_0, # of connection points: 6
#     Node 9, Type 1, BuildingBlock: GEDQOX_clean_sbu_0, # of connection points: 6
#     Node 10, Type 1, BuildingBlock: GEDQOX_clean_sbu_0, # of connection points: 6
#     Node 11, Type 1, BuildingBlock: GEDQOX_clean_sbu_0, # of connection points: 6
#     Edge 12, Type (0, 1), BuildingBlock: TEMPAE_clean_linker_10, # of connection points: 2
#     Edge 13, Type (0, 1), BuildingBlock: TEMPAE_clean_linker_10, # of connection points: 2
#     Edge 14, Type (0, 1), BuildingBlock: TEMPAE_clean_linker_10, # of connection points: 2
#     Edge 15, Type (0, 1), BuildingBlock: TEMPAE_clean_linker_10, # of connection points: 2
#     Edge 16, Type (0, 1), BuildingBlock: TEMPAE_clean_linker_10, # of connection points: 2
#     Edge 17, Type (0, 1), BuildingBlock: TEMPAE_clean_linker_10, # of connection points: 2
#     Edge 18, Type (0, 1), BuildingBlock: TEMPAE_clean_linker_10, # of connection points: 2
#     Edge 19, Type (0, 1), BuildingBlock: TEMPAE_clean_linker_10, # of connection points: 2
#     Edge 20, Type (0, 1), BuildingBlock: TEMPAE_clean_linker_10, # of connection points: 2
#     Edge 21, Type (0, 1), BuildingBlock: TEMPAE_clean_linker_10, # of connection points: 2
#     Edge 22, Type (0, 1), BuildingBlock: TEMPAE_clean_linker_10, # of connection points: 2
#     Edge 23, Type (0, 1), BuildingBlock: TEMPAE_clean_linker_10, # of connection points: 2
#     Edge 24, Type (0, 1), BuildingBlock: TEMPAE_clean_linker_10, # of connection points: 2
#     Edge 25, Type (0, 1), BuildingBlock: TEMPAE_clean_linker_10, # of connection points: 2
#     Edge 26, Type (0, 1), BuildingBlock: TEMPAE_clean_linker_10, # of connection points: 2
#     Edge 27, Type (0, 1), BuildingBlock: TEMPAE_clean_linker_10, # of connection points: 2
#     Edge 28, Type (0, 1), BuildingBlock: TEMPAE_clean_linker_10, # of connection points: 2
#     Edge 29, Type (0, 1), BuildingBlock: TEMPAE_clean_linker_10, # of connection points: 2
#     Edge 30, Type (0, 1), BuildingBlock: TEMPAE_clean_linker_10, # of connection points: 2
#     Edge 31, Type (0, 1), BuildingBlock: TEMPAE_clean_linker_10, # of connection points: 2
#     Edge 32, Type (0, 1), BuildingBlock: TEMPAE_clean_linker_10, # of connection points: 2
#     Edge 33, Type (0, 1), BuildingBlock: TEMPAE_clean_linker_10, # of connection points: 2
#     Edge 34, Type (0, 1), BuildingBlock: TEMPAE_clean_linker_10, # of connection points: 2
#     Edge 35, Type (0, 1), BuildingBlock: TEMPAE_clean_linker_10, # of connection points: 2
# Relax obj value: 0.168
# Max RMSD: 0.233
# Mean RMSD: 0.151
data_MOF--net-pyr--node1-GEDQOX_clean_sbu_0--node2-PAMTOO_clean_linker_0--edge1-TEMPAE_clean_linker_10
_symmetry_space_group_name_H-M    P1
_symmetry_Int_Tables_number       1
_symmetry_cell_setting            triclinic
loop_
_symmetry_equiv_pos_as_xyz
'x, y, z'
_cell_length_a     38.676525
_cell_length_b     39.760941
_cell_length_c     34.93472
_cell_angle_alpha  87.026041
_cell_angle_beta   91.66295
_cell_angle_gamma 89.880522
loop_
_atom_site_label
_atom_site_type_symbol
_atom_site_fract_x
_atom_site_fract_y
_atom_site_fract_z
_atom_type_partial_charge
H0 H 0.17907 0.22247 0.24706 0.0
H1 H 0.2546 0.14261 0.24714 0.0
H2 H 0.25852 0.22516 0.16248 0.0
H3 H 0.28323 0.16012 0.13329 0.0
C4 C 0.29388 0.14755 0.16028 0.0
O5 O 0.29105 0.16964 0.18996 0.0
H6 H 0.27733 0.12521 0.16658 0.0
C7 C 0.20151 0.2114 0.23466 0.0
C8 C 0.21646 0.22786 0.20212 0.0
C9 C 0.21448 0.18036 0.25096 0.0
C10 C 0.24378 0.16589 0.23446 0.0
C11 C 0.26016 0.18194 0.20263 0.0
C12 C 0.2459 0.21263 0.18652 0.0
H13 H 0.37207 0.82719 0.82464 0.0
H14 H 0.40603 0.76976 0.73163 0.0
H15 H 0.47788 0.79238 0.82143 0.0
H16 H 0.51437 0.78817 0.75075 0.0
C17 C 0.49164 0.77955 0.73375 0.0
O18 O 0.46938 0.76236 0.75795 0.0
H19 H 0.47861 0.80223 0.71978 0.0
C20 C 0.39226 0.81326 0.81152 0.0
C21 C 0.42583 0.81154 0.82846 0.0
C22 C 0.38503 0.79892 0.7762 0.0
C23 C 0.41103 0.78087 0.75893 0.0
C24 C 0.44406 0.77814 0.77591 0.0
C25 C 0.45146 0.79336 0.81032 0.0
H26 H 0.79391 0.39328 0.95295 0.0
H27 H 0.7165 0.42621 0.86785 0.0
H28 H 0.81075 0.48163 0.87938 0.0
H29 H 0.75411 0.52583 0.8477 0.0
C30 C 0.73603 0.5057 0.8391 0.0
O31 O 0.75356 0.47553 0.83906 0.0
H32 H 0.71473 0.50392 0.8599 0.0
C33 C 0.78477 0.41124 0.93047 0.0
C34 C 0.80571 0.43857 0.9192 0.0
C35 C 0.75217 0.40696 0.91263 0.0
C36 C 0.74091 0.42998 0.88303 0.0
C37 C 0.76217 0.45665 0.87105 0.0
C38 C 0.79419 0.46127 0.88948 0.0
H39 H 0.93808 0.8226 0.34152 0.0
H40 H 0.96123 0.7749 0.23818 0.0
H41 H 1.00323 0.87236 0.25769 0.0
H42 H 0.99103 0.84428 0.15199 0.0
C43 C 0.97442 0.83402 0.1752 0.0
O44 O 0.99498 0.82651 0.20762 0.0
H45 H 0.95516 0.85397 0.18064 0.0
C46 C 0.95142 0.82316 0.31465 0.0
C47 C 0.97264 0.85061 0.30399 0.0
C48 C 0.94757 0.79579 0.29127 0.0
C49 C 0.96394 0.79617 0.25615 0.0
C50 C 0.98217 0.82478 0.24327 0.0
C51 C 0.9872 0.85153 0.2674 0.0
H52 H 0.86264 0.93292 0.85718 0.0
H53 H 0.86369 0.85288 0.94631 0.0
H54 H 0.94069 0.85542 0.86004 0.0
H55 H 0.90808 0.78682 0.88467 0.0
C56 C 0.91098 0.78932 0.91619 0.0
O57 O 0.91985 0.82262 0.92288 0.0
H58 H 0.88535 0.7839 0.92864 0.0
C59 C 0.87386 0.91028 0.87095 0.0
C60 C 0.90357 0.89634 0.85466 0.0
C61 C 0.8581 0.89481 0.90383 0.0
C62 C 0.87391 0.86483 0.92052 0.0
C63 C 0.9036 0.85032 0.90488 0.0
C64 C 0.91779 0.86618 0.87181 0.0
H65 H 0.76782 0.22516 0.25653 0.0
H66 H 0.68933 0.2913 0.20568 0.0
H67 H 0.75685 0.32627 0.29432 0.0
H68 H 0.66382 0.31884 0.27988 0.0
C69 C 0.67214 0.34361 0.26682 0.0
O70 O 0.70348 0.34117 0.24916 0.0
H71 H 0.652 0.35104 0.24463 0.0
C72 C 0.7558 0.24986 0.25394 0.0
C73 C 0.76661 0.27515 0.27839 0.0
C74 C 0.72794 0.25544 0.22775 0.0
C75 C 0.71116 0.28677 0.22546 0.0
C76 C 0.72144 0.31198 0.24977 0.0
C77 C 0.74918 0.30633 0.2759 0.0
H78 H 0.32148 0.69242 0.19896 0.0
H79 H 0.28066 0.63735 0.29689 0.0
H80 H 0.37672 0.6898 0.30822 0.0
H81 H 0.33965 0.60114 0.3302 0.0
C82 C 0.34391 0.61857 0.35387 0.0
O83 O 0.3321 0.65064 0.34344 0.0
H84 H 0.32836 0.6083 0.37802 0.0
C85 C 0.32355 0.68423 0.22903 0.0
C86 C 0.35207 0.69414 0.25168 0.0
C87 C 0.29767 0.66376 0.2452 0.0
C88 C 0.3003 0.65341 0.28414 0.0
C89 C 0.32912 0.66218 0.30645 0.0
C90 C 0.35489 0.68255 0.29034 0.0
H91 H 0.22636 0.22192 0.80245 0.0
H92 H 0.32188 0.27549 0.78642 0.0
H93 H 0.29168 0.20132 0.70812 0.0
H94 H 0.37319 0.2088 0.72053 0.0
C95 C 0.37064 0.23444 0.73145 0.0
O96 O 0.33744 0.24621 0.72424 0.0
H97 H 0.37688 0.23289 0.76283 0.0
C98 C 0.24985 0.2261 0.78674 0.0
C99 C 0.25608 0.20776 0.75415 0.0
C100 C 0.27363 0.25035 0.79886 0.0
C101 C 0.30397 0.25592 0.77848 0.0
C102 C 0.31046 0.23779 0.74628 0.0
C103 C 0.2868 0.21378 0.73429 0.0
Nd104 Nd 0.08297 1.01132 0.55505 0.0
Nd105 Nd 1.03374 0.07012 0.55251 0.0
C106 C 0.12262 0.95831 0.546 0.0
C107 C 0.14011 0.93389 0.57286 0.0
C108 C 0.16186 0.9093 0.55921 0.0
C109 C 0.18185 0.88873 0.58495 0.0
C110 C 0.18048 0.89276 0.62465 0.0
C111 C 0.15745 0.91649 0.63821 0.0
C112 C 0.13736 0.93686 0.61249 0.0
C113 C 0.09843 0.0577 0.60841 0.0
C114 C 1.02455 1.00781 0.62036 0.0
C115 C 0.99404 0.12277 0.56308 0.0
C116 C 0.97482 0.14753 0.53799 0.0
C117 C 0.98807 0.15959 0.50286 0.0
C118 C 0.96746 0.17952 0.47709 0.0
C119 C 0.93319 0.18719 0.48585 0.0
C120 C 0.92047 0.17605 0.52156 0.0
C121 C 0.94119 0.15648 0.54746 0.0
C122 C 1.01891 0.02467 0.49855 0.0
C123 C 0.09197 0.07304 0.48661 0.0
O124 O 0.08881 0.95707 0.5445 0.0
O125 O 0.13444 0.98905 0.54686 0.0
O126 O 0.10166 0.02546 0.61495 0.0
O127 O 0.08887 0.06461 0.5741 0.0
O128 O 0.04706 0.98984 0.60212 0.0
O129 O 1.01794 0.03963 0.60883 0.0
O130 O 1.02788 0.1243 0.56328 0.0
O131 O 0.98237 0.09196 0.56254 0.0
O132 O 1.01289 0.05662 0.49295 0.0
O133 O 1.02868 1.01731 0.53263 0.0
O134 O 0.06927 0.09111 0.50457 0.0
O135 O 0.09891 0.0414 0.49865 0.0
H136 H 0.16432 0.90683 0.52866 0.0
H137 H 0.19963 0.87088 0.57372 0.0
H138 H 0.15571 0.91991 0.66866 0.0
H139 H 0.12057 0.95573 0.62347 0.0
H140 H 1.01383 0.15261 0.49473 0.0
H141 H 0.9777 0.18753 0.44957 0.0
H142 H 0.89419 0.18179 0.52901 0.0
H143 H 0.93048 0.14723 0.57432 0.0
Nd144 Nd 0.5824 1.00218 0.07223 0.0
Nd145 Nd 0.57654 0.04334 1.00748 0.0
C146 C 0.58862 0.9508 0.12365 0.0
C147 C 0.56644 0.92255 0.13607 0.0
C148 C 0.57381 0.90444 0.17083 0.0
C149 C 0.55253 0.87776 0.18295 0.0
C150 C 0.5237 0.8687 0.1603 0.0
C151 C 0.51651 0.8869 0.1254 0.0
C152 C 0.53758 0.9137 0.11353 0.0
C153 C 0.5279 0.04769 0.08002 0.0
C154 C 0.53499 0.97651 0.99985 0.0
C155 C 0.57107 0.09486 0.95632 0.0
C156 C 0.5842 0.12961 0.9531 0.0
C157 C 0.58074 0.15169 0.9829 0.0
C158 C 0.59516 0.18389 0.97998 0.0
C159 C 0.61366 0.1945 0.94744 0.0
C160 C 0.61674 0.17234 0.91757 0.0
C161 C 0.60201 0.14032 0.92033 0.0
C162 C 0.63057 0.9973 0.99994 0.0
C163 C 0.62314 0.06939 0.07853 0.0
O164 O 0.59986 0.95019 0.08883 0.0
O165 O 0.57814 0.98069 0.13192 0.0
O166 O 0.55216 0.0407 0.10553 0.0
O167 O 0.53352 0.03168 0.05007 0.0
O168 O 0.55201 0.96782 0.03194 0.0
O169 O 0.53718 1.00709 0.9845 0.0
O170 O 0.54805 0.088 0.98214 0.0
O171 O 0.59423 0.07116 0.95495 0.0
O172 O 0.60572 1.00362 0.97488 0.0
O173 O 0.62531 1.0137 0.02972 0.0
O174 O 0.60131 0.07859 0.05046 0.0
O175 O 0.62566 0.0375 0.08974 0.0
H176 H 0.59595 0.91097 0.18862 0.0
H177 H 0.55876 0.86405 0.20988 0.0
H178 H 0.49419 0.88083 0.10763 0.0
H179 H 0.5312 0.92761 0.08685 0.0
H180 H 0.56728 0.144 1.00866 0.0
H181 H 0.59188 0.20042 1.0033 0.0
H182 H 0.63134 0.17933 0.89242 0.0
H183 H 0.60519 0.12359 0.89716 0.0
Nd184 Nd 0.57921 0.54382 0.51853 0.0
Nd185 Nd 0.64387 0.5848 0.50209 0.0
C186 C 0.51703 0.51829 0.52972 0.0
C187 C 0.50348 0.48601 0.54478 0.0
C188 C 0.47095 0.48502 0.56131 0.0
C189 C 0.45896 0.45517 0.57899 0.0
C190 C 0.47932 0.42571 0.58036 0.0
C191 C 0.51173 0.42672 0.56306 0.0
C192 C 0.52378 0.45668 0.54554 0.0
C193 C 0.63236 0.53302 0.57188 0.0
C194 C 0.58485 0.61954 0.54696 0.0
C195 C 0.70727 0.60884 0.49784 0.0
C196 C 0.7355 0.61375 0.47086 0.0
C197 C 0.76976 0.61016 0.4846 0.0
C198 C 0.79709 0.6196 0.46114 0.0
C199 C 0.79055 0.63308 0.42359 0.0
C200 C 0.75622 0.63454 0.40911 0.0
C201 C 0.72891 0.62488 0.43254 0.0
C202 C 0.59046 0.59644 0.44951 0.0
C203 C 0.63644 0.50805 0.46927 0.0
O204 O 0.53371 0.53585 0.55482 0.0
O205 O 0.53225 0.51825 0.49676 0.0
O206 O 0.61227 0.50934 0.56013 0.0
O207 O 0.62328 0.56101 0.5564 0.0
O208 O 0.56426 0.59867 0.52905 0.0
O209 O 0.61863 0.6151 0.54738 0.0
O210 O 0.70072 0.57794 0.51031 0.0
O211 O 0.67941 0.62716 0.4909 0.0
O212 O 0.61176 0.61983 0.45948 0.0
O213 O 0.59958 0.56846 0.46482 0.0
O214 O 0.65678 0.534 0.47599 0.0
O215 O 0.60426 0.50668 0.48066 0.0
H216 H 0.45519 0.50758 0.56138 0.0
H217 H 0.43416 0.45546 0.59259 0.0
H218 H 0.52788 0.40441 0.56325 0.0
H219 H 0.54917 0.45711 0.53319 0.0
H220 H 0.77534 0.60136 0.51402 0.0
H221 H 0.82328 0.61763 0.4729 0.0
H222 H 0.75025 0.64503 0.38045 0.0
H223 H 0.70261 0.62761 0.42124 0.0
Nd224 Nd 0.04556 0.50959 0.08947 0.0
Nd225 Nd 0.10378 0.52176 0.03569 0.0
C226 C 0.98452 0.50726 0.1212 0.0
C227 C 0.96341 0.53488 0.13521 0.0
C228 C 0.93231 0.54467 0.1159 0.0
C229 C 0.91611 0.57504 0.12364 0.0
C230 C 0.93077 0.59617 0.15082 0.0
C231 C 0.96065 0.58504 0.17179 0.0
C232 C 0.97665 0.55481 0.1642 0.0
C233 C 0.10041 0.5439 0.11995 0.0
C234 C 0.04487 0.58018 0.03161 0.0
C235 C 0.16437 0.52534 1.00312 0.0
C236 C 0.18729 0.49901 0.9895 0.0
C237 C 0.19937 0.47222 1.01423 0.0
C238 C 0.21581 0.44451 0.99958 0.0
C239 C 0.22024 0.4429 0.95988 0.0
C240 C 0.20967 0.47058 0.93553 0.0
C241 C 0.19358 0.49838 0.95023 0.0
C242 C 0.04849 0.4881 1.00516 0.0
C243 C 0.104 0.45086 0.09278 0.0
O244 O 0.98827 0.50804 0.08407 0.0
O245 O 1.01344 0.50002 0.14035 0.0
O246 O 0.08319 0.52121 0.13932 0.0
O247 O 0.08762 0.54895 0.08668 0.0
O248 O 1.02681 0.55741 0.05178 0.0
O249 O 0.07803 0.57448 1.02558 0.0
O250 O 0.16088 0.52633 0.04025 0.0
O251 O 0.135 0.52936 0.98388 0.0
O252 O 0.06616 0.51033 0.98567 0.0
O253 O 0.06148 0.48302 0.03831 0.0
O254 O 0.12247 0.47389 0.07347 0.0
O255 O 0.07072 0.45653 0.09822 0.0
H256 H 0.92154 0.52973 0.0934 0.0
H257 H 0.89291 0.58257 0.10727 0.0
H258 H 0.97328 0.6007 0.19239 0.0
H259 H 1.00064 0.54823 0.17956 0.0
H260 H 0.195 0.47198 0.04471 0.0
H261 H 0.22418 0.42396 1.01926 0.0
H262 H 0.21214 0.47014 0.90477 0.0
H263 H 0.18439 0.51865 0.93057 0.0
C264 C 0.17929 0.13328 0.28329 0.0
C265 C 0.19756 0.16368 0.28572 0.0
C266 C 0.16179 0.11843 0.31517 0.0
C267 C 0.16315 0.13356 0.35126 0.0
C268 C 0.18224 0.16397 0.35392 0.0
C269 C 0.19855 0.1788 0.32127 0.0
C270 C 0.14118 0.08675 0.30997 0.0
C271 C 0.18567 0.18085 0.39152 0.0
C272 C 0.09429 0.11398 0.42793 0.0
C273 C 0.11005 0.08843 0.45189 0.0
C274 C 0.11076 0.1282 0.39503 0.0
C275 C 0.14467 0.11779 0.38598 0.0
C276 C 0.1609 0.09236 0.4105 0.0
C277 C 0.14332 0.07772 0.4424 0.0
C278 C 0.09155 0.15422 0.36959 0.0
C279 C 0.19726 0.08092 0.4034 0.0
H280 H 0.17797 0.12146 0.25602 0.0
H281 H 0.2125 0.20225 0.32365 0.0
H282 H 0.15162 0.06605 0.32948 0.0
H283 H 0.11392 0.09091 0.31767 0.0
H284 H 0.14158 0.07856 0.28006 0.0
H285 H 0.20282 0.20322 0.38968 0.0
H286 H 0.15986 0.18895 0.40062 0.0
H287 H 0.19622 0.16275 0.41417 0.0
H288 H 0.06857 0.12246 0.43446 0.0
H289 H 0.15609 0.05826 0.46057 0.0
H290 H 0.09025 0.14613 0.33965 0.0
H291 H 0.10563 0.17849 0.36934 0.0
H292 H 0.06482 0.15849 0.37914 0.0
H293 H 0.19829 0.06977 0.37502 0.0
H294 H 0.20695 0.06199 0.42568 0.0
H295 H 0.21496 0.10287 0.40282 0.0
C296 C 0.41987 0.86326 0.8666 0.0
C297 C 0.43543 0.83176 0.86209 0.0
C298 C 0.43236 0.88487 0.89425 0.0
C299 C 0.4621 0.87555 0.91686 0.0
C300 C 0.47674 0.84315 0.91419 0.0
C301 C 0.46269 0.82137 0.88753 0.0
C302 C 0.41512 0.9187 0.89735 0.0
C303 C 0.50894 0.83247 0.93718 0.0
C304 C 0.52066 0.94839 0.94 0.0
C305 C 0.51574 0.95097 0.97921 0.0
C306 C 0.50394 0.92337 0.91972 0.0
C307 C 0.48064 0.9013 0.9389 0.0
C308 C 0.4751 0.90424 0.97851 0.0
C309 C 0.49334 0.92873 0.99844 0.0
C310 C 0.51153 0.92035 0.87784 0.0
C311 C 0.44942 0.88212 0.99953 0.0
H312 H 0.39908 0.87212 0.84723 0.0
H313 H 0.47422 0.7967 0.88551 0.0
H314 H 0.41302 0.92481 0.92783 0.0
H315 H 0.43097 0.9386 0.88303 0.0
H316 H 0.38886 0.91948 0.88358 0.0
H317 H 0.51493 0.80532 0.93489 0.0
H318 H 0.53125 0.8474 0.92658 0.0
H319 H 0.50626 0.83752 0.96786 0.0
H320 H 0.53841 0.96543 0.9254 0.0
H321 H 0.48949 0.93104 0.02881 0.0
H322 H 0.48779 0.92574 0.86 0.0
H323 H 0.51978 0.89426 0.8727 0.0
H324 H 0.5321 0.93796 0.86802 0.0
H325 H 0.42307 0.88705 0.98703 0.0
H326 H 0.44927 0.88664 0.03065 0.0
H327 H 0.45526 0.85516 0.99604 0.0
C328 C 0.68649 0.51613 0.7913 0.0
C329 C 0.72216 0.51393 0.79908 0.0
C330 C 0.67347 0.52069 0.75348 0.0
C331 C 0.69673 0.52255 0.72285 0.0
C332 C 0.73282 0.52105 0.73068 0.0
C333 C 0.7451 0.51702 0.7688 0.0
C334 C 0.63482 0.52279 0.74625 0.0
C335 C 0.75837 0.52263 0.69878 0.0
C336 C 0.65908 0.49842 0.62662 0.0
C337 C 0.65239 0.53007 0.60845 0.0
C338 C 0.67463 0.49559 0.66345 0.0
C339 C 0.68315 0.52514 0.68261 0.0
C340 C 0.6774 0.55714 0.66386 0.0
C341 C 0.66236 0.5592 0.62682 0.0
C342 C 0.68097 0.46101 0.68233 0.0
C343 C 0.68579 0.58921 0.6835 0.0
H344 H 0.66876 0.51369 0.81475 0.0
H345 H 0.7727 0.5152 0.775 0.0
H346 H 0.62808 0.54601 0.72861 0.0
H347 H 0.626 0.50107 0.72987 0.0
H348 H 0.62039 0.52281 0.77329 0.0
H349 H 0.78561 0.52223 0.7098 0.0
H350 H 0.75436 0.50089 0.68049 0.0
H351 H 0.75414 0.54583 0.68019 0.0
H352 H 0.65151 0.47589 0.61236 0.0
H353 H 0.65721 0.58376 0.61285 0.0
H354 H 0.66458 0.45744 0.70775 0.0
H355 H 0.70832 0.45851 0.69258 0.0
H356 H 0.67511 0.44062 0.66259 0.0
H357 H 0.66961 0.59098 0.70903 0.0
H358 H 0.68118 0.61204 0.6643 0.0
H359 H 0.71321 0.58901 0.69374 0.0
C360 C 0.97779 0.7763 0.15031 0.0
C361 C 0.95721 0.80226 0.16281 0.0
C362 C 0.96433 0.74396 0.14644 0.0
C363 C 0.92922 0.73753 0.15488 0.0
C364 C 0.90768 0.76428 0.16511 0.0
C365 C 0.92206 0.79636 0.16931 0.0
C366 C 0.98859 0.71612 0.13639 0.0
C367 C 0.8701 0.75897 0.17404 0.0
C368 C 0.90874 0.65143 0.12121 0.0
C369 C 0.9185 0.63144 0.15414 0.0
C370 C 0.90713 0.68667 0.12229 0.0
C371 C 0.91694 0.70208 0.15649 0.0
C372 C 0.9221 0.68197 0.19076 0.0
C373 C 0.92213 0.64683 0.18929 0.0
C374 C 0.89823 0.70752 0.08607 0.0
C375 C 0.93101 0.69743 0.22826 0.0
H376 H 1.00504 0.78088 0.14584 0.0
H377 H 0.90623 0.81639 0.17948 0.0
H378 H 0.99364 0.6991 0.16216 0.0
H379 H 0.97682 0.70078 0.11388 0.0
H380 H 1.01374 0.72599 0.12618 0.0
H381 H 0.85469 0.78196 0.16581 0.0
H382 H 0.85875 0.73741 0.15919 0.0
H383 H 0.86774 0.75398 0.20541 0.0
H384 H 0.90504 0.64001 0.09394 0.0
H385 H 0.92779 0.6315 0.21529 0.0
H386 H 0.92232 0.71739 0.07335 0.0
H387 H 0.88197 0.72946 0.09243 0.0
H388 H 0.88428 0.69249 0.06462 0.0
H389 H 0.95675 0.70964 0.22664 0.0
H390 H 0.93174 0.67839 0.25266 0.0
H391 H 0.91181 0.71714 0.23405 0.0
C392 C 0.34185 0.10223 0.1631 0.0
C393 C 0.33134 0.13558 0.15306 0.0
C394 C 0.3736 0.08876 0.15097 0.0
C395 C 0.39626 0.10882 0.12799 0.0
C396 C 0.38628 0.14287 0.11876 0.0
C397 C 0.35426 0.15567 0.1312 0.0
C398 C 0.38248 0.05253 0.16203 0.0
C399 C 0.40916 0.16571 0.09485 0.0
C400 C 0.4923 0.08088 0.1251 0.0
C401 C 0.49425 0.0646 0.09029 0.0
C402 C 0.46122 0.09562 0.13715 0.0
C403 C 0.43034 0.09429 0.11425 0.0
C404 C 0.43216 0.07824 0.07875 0.0
C405 C 0.46382 0.06382 0.06722 0.0
C406 C 0.46143 0.11239 0.17493 0.0
C407 C 0.40037 0.07583 0.05306 0.0
H408 H 0.32454 0.08611 0.17952 0.0
H409 H 0.34656 0.18126 0.12267 0.0
H410 H 0.38484 0.03816 0.13583 0.0
H411 H 0.40787 0.05102 0.17765 0.0
H412 H 0.3627 0.04022 0.1804 0.0
H413 H 0.3987 0.19176 0.09114 0.0
H414 H 0.43543 0.16667 0.10838 0.0
H415 H 0.41194 0.15553 0.06612 0.0
H416 H 0.51535 0.08198 0.1434 0.0
H417 H 0.46455 0.0514 0.04036 0.0
H418 H 0.44348 0.09909 0.19471 0.0
H419 H 0.45211 0.13876 0.17054 0.0
H420 H 0.48759 0.11256 0.18892 0.0
H421 H 0.38007 0.06133 0.06842 0.0
H422 H 0.4058 0.06341 1.0261 0.0
H423 H 0.38974 0.10136 0.04569 0.0
C424 C 0.35258 0.81904 0.71679 0.0
C425 C 0.35196 0.80655 0.75502 0.0
C426 C 0.32222 0.82986 0.69707 0.0
C427 C 0.29034 0.82787 0.71594 0.0
C428 C 0.28928 0.81399 0.75405 0.0
C429 C 0.32024 0.80374 0.77332 0.0
C430 C 0.32456 0.84493 0.65662 0.0
C431 C 0.25567 0.811 0.77482 0.0
C432 C 0.22479 0.89293 0.67785 0.0
C433 C 0.20549 0.87477 0.65139 0.0
C434 C 0.25151 0.8775 0.70035 0.0
C435 C 0.25887 0.84297 0.69655 0.0
C436 C 0.23831 0.82405 0.67133 0.0
C437 C 0.212 0.84029 0.64873 0.0
C438 C 0.27312 0.89868 0.72652 0.0
C439 C 0.24505 0.78706 0.66703 0.0
H440 H 0.37714 0.82173 0.70275 0.0
H441 H 0.31972 0.7939 0.80283 0.0
H442 H 0.30639 0.83206 0.63711 0.0
H443 H 0.31695 0.87189 0.65582 0.0
H444 H 0.35106 0.84308 0.64544 0.0
H445 H 0.25869 0.79638 0.8027 0.0
H446 H 0.24584 0.83648 0.7803 0.0
H447 H 0.23579 0.79867 0.75684 0.0
H448 H 0.22011 0.91969 0.67964 0.0
H449 H 0.19688 0.82616 0.62851 0.0
H450 H 0.29984 0.90067 0.71587 0.0
H451 H 0.27487 0.88662 0.75586 0.0
H452 H 0.26246 0.92451 0.72823 0.0
H453 H 0.26986 0.78382 0.65247 0.0
H454 H 0.22418 0.7751 0.65 0.0
H455 H 0.24752 0.77358 0.6956 0.0
C456 C 0.86517 0.41649 0.9336 0.0
C457 C 0.84072 0.44221 0.93623 0.0
C458 C 0.8996 0.42101 0.94589 0.0
C459 C 0.9094 0.45172 0.96182 0.0
C460 C 0.88434 0.47718 0.96607 0.0
C461 C 0.8503 0.47227 0.9527 0.0
C462 C 0.92575 0.39357 0.94033 0.0
C463 C 0.89369 0.50994 0.98378 0.0
C464 C 0.99382 0.45745 1.01902 0.0
C465 C 1.01436 0.47561 0.99288 0.0
C466 C 0.95962 0.44906 1.00921 0.0
C467 C 0.9462 0.45815 0.972 0.0
C468 C 0.96754 0.47488 0.94483 0.0
C469 C 1.00132 0.48373 0.95576 0.0
C470 C 0.93744 0.43183 0.03917 0.0
C471 C 0.95434 0.48434 0.90459 0.0
H472 H 0.85762 0.39339 0.92047 0.0
H473 H 0.83117 0.49203 0.95477 0.0
H474 H 0.9452 0.40285 0.91961 0.0
H475 H 0.93983 0.38675 0.96775 0.0
H476 H 0.91356 0.37053 0.92942 0.0
H477 H 0.87061 0.52589 0.98788 0.0
H478 H 0.90716 0.50493 1.01198 0.0
H479 H 0.91174 0.52434 0.9651 0.0
H480 H 1.00403 0.45089 0.04766 0.0
H481 H 1.01732 0.49755 0.93544 0.0
H482 H 0.92552 0.40883 0.02799 0.0
H483 H 0.91605 0.44891 0.04615 0.0
H484 H 0.95239 0.42476 0.06603 0.0
H485 H 0.94308 0.462 0.89117 0.0
H486 H 0.97504 0.4948 0.88611 0.0
H487 H 0.93347 0.50344 0.90548 0.0
C488 C 0.94048 0.7353 0.31195 0.0
C489 C 0.92584 0.76717 0.30381 0.0
C490 C 0.92067 0.70897 0.32821 0.0
C491 C 0.88558 0.71493 0.33628 0.0
C492 C 0.87041 0.74677 0.32634 0.0
C493 C 0.89084 0.77258 0.31037 0.0
C494 C 0.93765 0.67534 0.33831 0.0
C495 C 0.83307 0.75415 0.33442 0.0
C496 C 0.8202 0.64704 0.36161 0.0
C497 C 0.81866 0.64954 0.40147 0.0
C498 C 0.84349 0.66671 0.34 0.0
C499 C 0.86548 0.68946 0.35875 0.0
C500 C 0.86542 0.69062 0.39916 0.0
C501 C 0.84201 0.67069 0.41998 0.0
C502 C 0.84328 0.6645 0.29698 0.0
C503 C 0.88846 0.7146 0.42025 0.0
H504 H 0.96766 0.73134 0.30683 0.0
H505 H 0.8797 0.79735 0.30384 0.0
H506 H 0.94068 0.67168 0.36993 0.0
H507 H 0.92123 0.65456 0.3282 0.0
H508 H 0.96357 0.67343 0.32568 0.0
H509 H 0.82462 0.77932 0.32229 0.0
H510 H 0.81597 0.73477 0.32231 0.0
H511 H 0.8295 0.75323 0.36586 0.0
H512 H 0.80253 0.63039 0.34721 0.0
H513 H 0.84071 0.67318 0.45066 0.0
H514 H 0.87005 0.66215 0.28682 0.0
H515 H 0.83211 0.68796 0.28312 0.0
H516 H 0.82785 0.64281 0.28733 0.0
H517 H 0.91561 0.71226 0.41136 0.0
H518 H 0.88771 0.71006 0.45186 0.0
H519 H 0.88003 0.7409 0.41292 0.0
C520 C 0.1964 0.26725 0.14524 0.0
C521 C 0.20137 0.26108 0.18512 0.0
C522 C 0.18087 0.29753 0.12934 0.0
C523 C 0.17042 0.32321 0.15354 0.0
C524 C 0.17609 0.31739 0.19375 0.0
C525 C 0.19097 0.28663 0.20888 0.0
C526 C 0.17503 0.30176 0.08648 0.0
C527 C 0.1665 0.34386 0.22102 0.0
C528 C 0.15722 0.41455 0.11066 0.0
C529 C 0.12094 0.41804 0.10787 0.0
C530 C 0.17348 0.38425 0.12529 0.0
C531 C 0.15334 0.35585 0.13707 0.0
C532 C 0.1167 0.35906 0.13371 0.0
C533 C 0.10111 0.38989 0.1197 0.0
C534 C 0.21243 0.38288 0.1287 0.0
C535 C 0.09378 0.32972 0.14484 0.0
H536 H 0.20386 0.24791 0.12632 0.0
H537 H 0.19489 0.28276 0.23964 0.0
H538 H 0.14705 0.30553 0.07962 0.0
H539 H 0.18865 0.32451 0.0751 0.0
H540 H 0.18422 0.27965 0.07141 0.0
H541 H 0.17372 0.33635 0.25128 0.0
H542 H 0.17956 0.36794 0.21305 0.0
H543 H 0.13823 0.34866 0.21893 0.0
H544 H 0.17312 0.43584 0.10197 0.0
H545 H 0.07316 0.39177 0.11763 0.0
H546 H 0.2224 0.36224 0.11186 0.0
H547 H 0.22065 0.37729 0.15907 0.0
H548 H 0.22457 0.40687 0.11848 0.0
H549 H 0.06594 0.33545 0.13904 0.0
H550 H 0.09766 0.3227 0.17581 0.0
H551 H 0.10091 0.30746 0.12882 0.0
C552 C 0.69613 0.38042 0.93103 0.0
C553 C 0.73109 0.37699 0.92249 0.0
C554 C 0.67541 0.35196 0.93802 0.0
C555 C 0.68992 0.31946 0.93544 0.0
C556 C 0.72537 0.31593 0.92734 0.0
C557 C 0.74562 0.3448 0.9213 0.0
C558 C 0.63792 0.35663 0.94747 0.0
C559 C 0.74163 0.28172 0.92372 0.0
C560 C 0.6473 0.24068 0.97757 0.0
C561 C 0.63081 0.22797 0.94506 0.0
C562 C 0.66548 0.27116 0.97524 0.0
C563 C 0.66782 0.28905 0.93935 0.0
C564 C 0.65062 0.27684 0.90659 0.0
C565 C 0.63205 0.24664 0.90992 0.0
C566 C 0.68304 0.28364 1.01095 0.0
C567 C 0.65276 0.29511 0.86772 0.0
H568 H 0.68504 0.40541 0.93212 0.0
H569 H 0.77259 0.34223 0.91426 0.0
H570 H 0.62104 0.3472 0.92419 0.0
H571 H 0.63192 0.34173 0.97418 0.0
H572 H 0.63134 0.38346 0.95119 0.0
H573 H 0.76973 0.28334 0.91819 0.0
H574 H 0.73805 0.26578 0.95031 0.0
H575 H 0.72866 0.2688 0.89985 0.0
H576 H 0.64694 0.22633 1.0047 0.0
H577 H 0.61881 0.23744 0.8848 0.0
H578 H 0.67599 0.31033 1.01458 0.0
H579 H 0.71152 0.28257 1.0082 0.0
H580 H 0.67605 0.26846 0.03718 0.0
H581 H 0.64364 0.32146 0.86914 0.0
H582 H 0.63715 0.28273 0.8453 0.0
H583 H 0.68009 0.29611 0.85889 0.0
C584 C 0.98119 0.86918 0.3713 0.0
C585 C 0.98004 0.87735 0.33161 0.0
C586 C 0.98702 0.89381 0.39794 0.0
C587 C 0.99377 0.92728 0.38478 0.0
C588 C 0.99391 0.9357 0.34492 0.0
C589 C 0.98633 0.91083 0.31883 0.0
C590 C 0.98571 0.88397 0.44026 0.0
C591 C 1.00222 0.97096 0.32984 0.0
C592 C 0.97947 0.99705 0.45279 0.0
C593 C 1.01248 0.99998 0.46958 0.0
C594 C 0.97294 0.97335 0.42512 0.0
C595 C 1.00052 0.95336 0.41297 0.0
C596 C 1.03422 0.95718 0.42913 0.0
C597 C 1.03964 0.98005 0.45793 0.0
C598 C 0.93642 0.96906 0.40971 0.0
C599 C 0.06453 0.93725 0.41592 0.0
H600 H 0.97771 0.84337 0.38187 0.0
H601 H 0.98514 0.91781 0.28845 0.0
H602 H 1.01146 0.88751 0.45422 0.0
H603 H 0.96718 0.90044 0.45423 0.0
H604 H 0.9778 0.85735 0.44569 0.0
H605 H 1.0036 0.97286 0.29808 0.0
H606 H 0.98222 0.9888 0.33859 0.0
H607 H 1.02735 0.97911 0.34236 0.0
H608 H 0.95862 1.0127 0.46205 0.0
H609 H 0.06527 0.98294 0.47072 0.0
H610 H 0.92785 0.94275 0.41586 0.0
H611 H 0.93537 0.97369 0.37813 0.0
H612 H 0.9179 0.98638 0.42245 0.0
H613 H 0.06076 0.91006 0.42318 0.0
H614 H 0.08944 0.94513 0.42929 0.0
H615 H 0.06629 0.94036 0.38428 0.0
C616 C 0.50342 0.76751 0.66511 0.0
C617 C 0.50391 0.75666 0.70394 0.0
C618 C 0.51579 0.7467 0.63726 0.0
C619 C 0.5289 0.71433 0.64863 0.0
C620 C 0.52948 0.7033 0.68785 0.0
C621 C 0.51726 0.72476 0.71509 0.0
C622 C 0.51519 0.75945 0.59577 0.0
C623 C 0.54315 0.66889 0.70106 0.0
C624 C 0.53436 0.64639 0.57666 0.0
C625 C 0.56991 0.64595 0.56982 0.0
C626 C 0.52047 0.6691 0.60158 0.0
C627 C 0.54262 0.69209 0.61973 0.0
C628 C 0.57828 0.69268 0.61171 0.0
C629 C 0.59153 0.66949 0.58697 0.0
C630 C 0.48233 0.66764 0.60959 0.0
C631 C 0.60264 0.71711 0.63017 0.0
H632 H 0.49352 0.79238 0.65656 0.0
H633 H 0.51809 0.71664 0.74522 0.0
H634 H 0.54188 0.75998 0.58493 0.0
H635 H 0.49997 0.74213 0.57801 0.0
H636 H 0.50387 0.78513 0.59164 0.0
H637 H 0.54091 0.66383 0.73247 0.0
H638 H 0.52877 0.64914 0.68599 0.0
H639 H 0.57075 0.66666 0.69374 0.0
H640 H 0.51748 0.62825 0.56354 0.0
H641 H 0.619 0.66944 0.58165 0.0
H642 H 0.47039 0.69292 0.60447 0.0
H643 H 0.47875 0.65987 0.64019 0.0
H644 H 0.4683 0.64962 0.59153 0.0
H645 H 0.5927 0.74323 0.62545 0.0
H646 H 0.62913 0.71594 0.61882 0.0
H647 H 0.60428 0.71143 0.6616 0.0
C648 C 0.91959 0.89862 0.78429 0.0
C649 C 0.92026 0.91344 0.82001 0.0
C650 C 0.93558 0.9141 0.75177 0.0
C651 C 0.95398 0.94487 0.75476 0.0
C652 C 0.95503 0.95968 0.79102 0.0
C653 C 0.93787 0.94418 0.82275 0.0
C654 C 0.93255 0.89749 0.71397 0.0
C655 C 0.97492 0.99174 0.79657 0.0
C656 C 1.02274 0.96653 0.67865 0.0
C657 C 1.00659 0.99201 0.65491 0.0
C658 C 1.00641 0.95167 0.71128 0.0
C659 C 0.97224 0.96131 0.72026 0.0
C660 C 0.95562 0.98667 0.69598 0.0
C661 C 0.97307 1.002 0.66434 0.0
C662 C 1.02603 0.92578 0.7365 0.0
C663 C 0.91899 0.99731 0.70303 0.0
H664 H 0.90612 0.87494 0.78167 0.0
H665 H 0.93891 0.95579 0.85016 0.0
H666 H 0.92167 0.91559 0.6915 0.0
H667 H 0.95855 0.88999 0.70481 0.0
H668 H 0.91586 0.87479 0.71556 0.0
H669 H 0.9743 0.99966 0.82658 0.0
H670 H 1.00228 0.98822 0.78885 0.0
H671 H 0.96406 1.01237 0.77726 0.0
H672 H 0.04865 0.9586 0.67215 0.0
H673 H 0.96001 1.02137 0.64632 0.0
H674 H 1.01248 0.90124 0.73634 0.0
H675 H 1.02699 0.93357 0.76657 0.0
H676 H 0.05291 0.92217 0.72707 0.0
H677 H 0.90175 0.97502 0.70324 0.0
H678 H 0.90903 1.01626 0.68092 0.0
H679 H 0.91759 1.00814 0.73156 0.0
C680 C 0.73652 0.21054 0.18132 0.0
C681 C 0.71464 0.22768 0.205 0.0
C682 C 0.72391 0.18413 0.15969 0.0
C683 C 0.68889 0.17427 0.16268 0.0
C684 C 0.66689 0.19128 0.18705 0.0
C685 C 0.67997 0.21801 0.20764 0.0
C686 C 0.74786 0.16713 0.13329 0.0
C687 C 0.62942 0.18143 0.19109 0.0
C688 C 0.64271 0.12876 0.08343 0.0
C689 C 0.64272 0.09542 0.09867 0.0
C690 C 0.65841 0.15453 0.10353 0.0
C691 C 0.67475 0.14675 0.13968 0.0
C692 C 0.67575 0.11298 0.15475 0.0
C693 C 0.6598 0.08765 0.13397 0.0
C694 C 0.65709 0.1901 0.08611 0.0
C695 C 0.69252 0.10382 0.19346 0.0
H696 H 0.76332 0.21819 0.17929 0.0
H697 H 0.66321 0.23113 0.22631 0.0
H698 H 0.74893 0.13966 0.14062 0.0
H699 H 0.73774 0.17051 0.10328 0.0
H700 H 0.77454 0.17737 0.1348 0.0
H701 H 0.61618 0.19628 0.21245 0.0
H702 H 0.61544 0.1853 0.16302 0.0
H703 H 0.62753 0.1543 0.19991 0.0
H704 H 0.62992 0.1349 0.05592 0.0
H705 H 0.65984 0.06195 0.14595 0.0
H706 H 0.68314 0.19734 0.0761 0.0
H707 H 0.6496 0.20822 0.10751 0.0
H708 H 0.63844 0.19261 0.06139 0.0
H709 H 0.71958 0.11298 0.19452 0.0
H710 H 0.69259 0.07622 0.20029 0.0
H711 H 0.67846 0.11634 0.21607 0.0
C712 C 0.40682 0.62006 0.33722 0.0
C713 C 0.38167 0.6193 0.3653 0.0
C714 C 0.44217 0.61932 0.34751 0.0
C715 C 0.45239 0.61745 0.38681 0.0
C716 C 0.42701 0.61787 0.41522 0.0
C717 C 0.39189 0.61906 0.40407 0.0
C718 C 0.46846 0.61945 0.31641 0.0
C719 C 0.43689 0.61588 0.45744 0.0
C720 C 0.53633 0.57477 0.42005 0.0
C721 C 0.55691 0.60231 0.42923 0.0
C722 C 0.50266 0.57945 0.40488 0.0
C723 C 0.48935 0.61253 0.39857 0.0
C724 C 0.5106 0.64052 0.40613 0.0
C725 C 0.54425 0.63506 0.42147 0.0
C726 C 0.48086 0.54893 0.39714 0.0
C727 C 0.49734 0.67614 0.39951 0.0
H728 H 0.39876 0.6206 0.3072 0.0
H729 H 0.37235 0.61894 0.42569 0.0
H730 H 0.48863 0.63866 0.32143 0.0
H731 H 0.48161 0.5946 0.31697 0.0
H732 H 0.45645 0.62466 0.28742 0.0
H733 H 0.41412 0.61826 0.47579 0.0
H734 H 0.44983 0.59142 0.46515 0.0
H735 H 0.45558 0.63605 0.46402 0.0
H736 H 0.54627 0.54943 0.42566 0.0
H737 H 0.56019 0.65638 0.42854 0.0
H738 H 0.47011 0.55078 0.36732 0.0
H739 H 0.45868 0.54782 0.41661 0.0
H740 H 0.49577 0.52505 0.40145 0.0
H741 H 0.48564 0.6799 0.37022 0.0
H742 H 0.5181 0.69506 0.40321 0.0
H743 H 0.47675 0.68083 0.42007 0.0
C744 C 0.23401 0.2905 0.82826 0.0
C745 C 0.26532 0.27267 0.82996 0.0
C746 C 0.22785 0.31577 0.85377 0.0
C747 C 0.25343 0.32296 0.882 0.0
C748 C 0.28419 0.30355 0.88537 0.0
C749 C 0.28996 0.27884 0.85896 0.0
C750 C 0.19486 0.33614 0.84895 0.0
C751 C 0.31163 0.30986 0.91573 0.0
C752 C 0.25344 0.41351 0.9107 0.0
C753 C 0.23308 0.41161 0.94333 0.0
C754 C 0.26131 0.38461 0.89129 0.0
C755 C 0.24919 0.35285 0.90531 0.0
C756 C 0.23069 0.35039 0.93967 0.0
C757 C 0.22253 0.37983 0.95807 0.0
C758 C 0.28106 0.38833 0.85464 0.0
C759 C 0.21803 0.31689 0.95602 0.0
H760 H 0.21512 0.28597 0.80558 0.0
H761 H 0.3141 0.26485 0.86038 0.0
H762 H 0.18153 0.33659 0.8766 0.0
H763 H 0.2011 0.36258 0.84001 0.0
H764 H 0.17673 0.32603 0.82716 0.0
H765 H 0.33164 0.28972 0.91788 0.0
H766 H 0.32452 0.33423 0.90882 0.0
H767 H 0.29982 0.31166 0.94413 0.0
H768 H 0.26245 0.4378 0.89963 0.0
H769 H 0.20654 0.37798 0.98305 0.0
H770 H 0.2643 0.38092 0.83018 0.0
H771 H 0.30389 0.37134 0.85618 0.0
H772 H 0.29002 0.41455 0.84859 0.0
H773 H 0.19629 0.30802 0.93779 0.0
H774 H 0.20886 0.31857 0.98572 0.0
H775 H 0.23885 0.29765 0.95613 0.0
C776 C 0.80051 0.88943 0.93923 0.0
C777 C 0.82544 0.90988 0.9206 0.0
C778 C 0.76989 0.90296 0.95423 0.0
C779 C 0.76293 0.93816 0.95071 0.0
C780 C 0.78798 0.95902 0.93227 0.0
C781 C 0.81853 0.94487 0.91782 0.0
C782 C 0.74455 0.87929 0.97348 0.0
C783 C 0.78231 0.99656 0.92733 0.0
C784 C 0.66783 0.96925 0.95194 0.0
C785 C 0.66455 0.98137 0.98892 0.0
C786 C 0.69917 0.95537 0.93948 0.0
C787 C 0.72889 0.95287 0.96438 0.0
C788 C 0.72573 0.96469 1.00201 0.0
C789 C 0.69394 0.97877 1.0137 0.0
C790 C 0.70051 0.9436 0.89917 0.0
C791 C 0.75612 0.96256 0.03004 0.0
H792 H 0.80444 0.86243 0.9415 0.0
H793 H 0.83723 0.9616 0.90449 0.0
H794 H 0.73894 0.88768 1.00247 0.0
H795 H 0.71974 0.87969 0.95671 0.0
H796 H 0.75432 0.85296 0.97626 0.0
H797 H 0.80425 1.00967 0.91323 0.0
H798 H 0.75836 1.00191 0.90979 0.0
H799 H 0.77866 1.00724 0.95565 0.0
H800 H 0.64567 0.9709 0.9322 0.0
H801 H 0.69218 0.9879 0.04228 0.0
H802 H 0.70767 0.91654 0.89988 0.0
H803 H 0.72075 0.95768 0.88321 0.0
H804 H 0.67543 0.94709 0.88314 0.0
H805 H 0.76514 0.93607 0.03416 0.0
H806 H 0.74969 0.97195 0.05838 0.0
H807 H 0.77796 0.97752 1.01837 0.0
C808 C 0.82292 0.24788 0.29999 0.0
C809 C 0.79442 0.26798 0.30805 0.0
C810 C 0.84722 0.23761 0.32884 0.0
C811 C 0.84332 0.24821 0.36653 0.0
C812 C 0.81581 0.27009 0.3744 0.0
C813 C 0.7915 0.27946 0.34517 0.0
C814 C 0.87607 0.21405 0.31936 0.0
C815 C 0.81109 0.28234 0.41411 0.0
C816 C 0.87785 0.18945 0.44762 0.0
C817 C 0.90979 0.20409 0.45656 0.0
C818 C 0.85594 0.20376 0.41856 0.0
C819 C 0.866 0.23376 0.39832 0.0
C820 C 0.89793 0.24909 0.40776 0.0
C821 C 0.91968 0.23384 0.43658 0.0
C822 C 0.82237 0.18631 0.40894 0.0
C823 C 0.90916 0.28141 0.38725 0.0
H824 H 0.82583 0.23951 0.27123 0.0
H825 H 0.76945 0.2947 0.3519 0.0
H826 H 0.90142 0.2241 0.32892 0.0
H827 H 0.87258 0.18931 0.33494 0.0
H828 H 0.87684 0.20997 0.28817 0.0
H829 H 0.79115 0.30248 0.41439 0.0
H830 H 0.80309 0.26102 0.4336 0.0
H831 H 0.83586 0.2921 0.42584 0.0
H832 H 0.87044 0.16617 0.4627 0.0
H833 H 0.94435 0.2452 0.44365 0.0
H834 H 0.82213 0.1792 0.37863 0.0
H835 H 0.80024 0.20365 0.41202 0.0
H836 H 0.81831 0.16324 0.42757 0.0
H837 H 0.91233 0.27735 0.35637 0.0
H838 H 0.93394 0.29096 0.39927 0.0
H839 H 0.88896 0.30106 0.3892 0.0
C840 C 0.27514 0.63115 0.1909 0.0
C841 C 0.26863 0.65146 0.22146 0.0
C842 C 0.24793 0.61507 0.17175 0.0
C843 C 0.2135 0.62005 0.18307 0.0
C844 C 0.20675 0.64208 0.21257 0.0
C845 C 0.2345 0.6572 0.23178 0.0
C846 C 0.2562 0.59133 0.14088 0.0
C847 C 0.17035 0.64866 0.22485 0.0
C848 C 0.13953 0.59367 0.11733 0.0
C849 C 0.12946 0.56322 0.13568 0.0
C850 C 0.16678 0.61262 0.13248 0.0
C851 C 0.1848 0.60031 0.16619 0.0
C852 C 0.17509 0.5692 0.18436 0.0
C853 C 0.14723 0.55121 0.16909 0.0
C854 C 0.17592 0.64598 0.11279 0.0
C855 C 0.19414 0.5549 0.21992 0.0
H856 H 0.30165 0.62652 0.18331 0.0
H857 H 0.22963 0.67302 0.25543 0.0
H858 H 0.24957 0.5652 0.15069 0.0
H859 H 0.24041 0.59763 0.11447 0.0
H860 H 0.28398 0.59204 0.13364 0.0
H861 H 0.16927 0.66907 0.24534 0.0
H862 H 0.15339 0.65565 0.19951 0.0
H863 H 0.15966 0.62539 0.23879 0.0
H864 H 0.12568 0.60299 0.09149 0.0
H865 H 0.13959 0.52751 0.18307 0.0
H866 H 0.20332 0.64576 0.10426 0.0
H867 H 0.17316 0.66643 0.13295 0.0
H868 H 0.15929 0.652 0.08687 0.0
H869 H 0.22213 0.55261 0.21439 0.0
H870 H 0.18427 0.52975 0.22958 0.0
H871 H 0.19156 0.5722 0.24359 0.0
C872 C 0.39977 0.29057 0.72664 0.0
C873 C 0.39474 0.25885 0.71182 0.0
C874 C 0.41685 0.31615 0.70561 0.0
C875 C 0.4292 0.30972 0.66892 0.0
C876 C 0.42566 0.27718 0.65464 0.0
C877 C 0.40809 0.25216 0.67615 0.0
C878 C 0.41983 0.35059 0.72169 0.0
C879 C 0.43883 0.26928 0.61584 0.0
C880 C 0.43221 0.38524 0.59833 0.0
C881 C 0.46713 0.3945 0.60097 0.0
C882 C 0.41973 0.35732 0.61978 0.0
C883 C 0.4428 0.3379 0.64418 0.0
C884 C 0.4783 0.34637 0.64607 0.0
C885 C 0.49003 0.37468 0.62457 0.0
C886 C 0.38163 0.34913 0.61703 0.0
C887 C 0.50368 0.32606 0.67155 0.0
H888 H 0.38886 0.29577 0.75398 0.0
H889 H 0.40373 0.22773 0.6645 0.0
H890 H 0.44691 0.35962 0.72056 0.0
H891 H 0.40358 0.36881 0.70398 0.0
H892 H 0.4114 0.35069 0.75182 0.0
H893 H 0.43771 0.24192 0.61093 0.0
H894 H 0.42298 0.28295 0.59304 0.0
H895 H 0.46592 0.27795 0.61291 0.0
H896 H 0.41449 0.40004 0.57963 0.0
H897 H 0.51698 0.38185 0.62714 0.0
H898 H 0.37001 0.351 0.64552 0.0
H899 H 0.378 0.32287 0.60847 0.0
H900 H 0.3673 0.36629 0.59603 0.0
H901 H 0.49727 0.32847 0.70204 0.0
H902 H 0.53079 0.3344 0.66757 0.0
H903 H 0.50181 0.29897 0.66562 0.0
C904 C 0.95032 0.76217 0.97106 0.0
C905 C 0.9368 0.76218 0.93319 0.0
C906 C 0.9695 0.73426 0.98801 0.0
C907 C 0.97517 0.70496 0.96709 0.0
C908 C 0.96183 0.70513 0.92876 0.0
C909 C 0.94298 0.73329 0.91261 0.0
C910 C 0.98367 0.73621 0.02848 0.0
C911 C 0.96665 0.67498 0.90491 0.0
C912 C 0.04618 0.63878 0.99743 0.0
C913 C 1.02743 0.61265 1.01605 0.0
C914 C 1.02988 0.66894 0.98231 0.0
C915 C 0.9936 0.67364 0.98529 0.0
C916 C 0.97465 0.64747 1.0044 0.0
C917 C 0.99159 0.61771 1.01947 0.0
C918 C 0.05158 0.6958 0.96277 0.0
C919 C 0.9361 0.65065 1.00846 0.0
H920 H 0.9453 0.78375 0.9878 0.0
H921 H 0.9321 0.73227 0.88375 0.0
H922 H 0.97122 0.75664 0.04375 0.0
H923 H 0.98017 0.71198 0.04504 0.0
H924 H 1.01185 0.74124 0.02775 0.0
H925 H 0.95618 0.67936 0.87511 0.0
H926 H 0.99452 0.66857 0.90379 0.0
H927 H 0.95343 0.65282 0.91835 0.0
H928 H 0.0738 0.63569 0.99453 0.0
H929 H 0.97645 0.59811 0.03367 0.0
H930 H 0.04853 0.71992 0.97695 0.0
H931 H 0.04256 0.70013 0.93247 0.0
H932 H 0.07947 0.68899 0.96334 0.0
H933 H 0.92983 0.67499 1.02075 0.0
H934 H 0.92536 0.62985 1.02691 0.0
H935 H 0.92308 0.65053 0.97975 0.0
C936 C 0.41369 0.71031 0.24093 0.0
C937 C 0.37833 0.71746 0.23551 0.0
C938 C 0.43875 0.73322 0.22761 0.0
C939 C 0.42811 0.76422 0.20909 0.0
C940 C 0.39239 0.77133 0.20317 0.0
C941 C 0.36793 0.74772 0.21619 0.0
C942 C 0.47657 0.72447 0.23381 0.0
C943 C 0.38 0.8043 0.1841 0.0
C944 C 0.48886 0.83907 0.21092 0.0
C945 C 0.50063 0.84088 0.17331 0.0
C946 C 0.46561 0.81394 0.22308 0.0
C947 C 0.45417 0.78983 0.19711 0.0
C948 C 0.46663 0.79107 0.15935 0.0
C949 C 0.48955 0.81672 0.14783 0.0
C950 C 0.45257 0.81373 0.26343 0.0
C951 C 0.4554 0.76555 0.13101 0.0
H952 H 0.42171 0.68677 0.25565 0.0
H953 H 0.34058 0.75339 0.21238 0.0
H954 H 0.48992 0.72645 0.2061 0.0
H955 H 0.4891 0.74264 0.25282 0.0
H956 H 0.48051 0.69864 0.24694 0.0
H957 H 0.35135 0.80564 0.18101 0.0
H958 H 0.38907 0.8255 0.20119 0.0
H959 H 0.39107 0.80794 0.15525 0.0
H960 H 0.49709 0.85792 0.23055 0.0
H961 H 0.49892 0.81787 0.11884 0.0
H962 H 0.458 0.789 0.27859 0.0
H963 H 0.4241 0.81738 0.26255 0.0
H964 H 0.46459 0.83378 0.28033 0.0
H965 H 0.46061 0.73967 0.14327 0.0
H966 H 0.46883 0.76898 0.1034 0.0
H967 H 0.42712 0.76766 0.12513 0.0
C968 C 0.24001 0.15519 0.72122 0.0
C969 C 0.22967 0.18437 0.7388 0.0
C970 C 0.21592 0.13509 0.70233 0.0
C971 C 0.1804 0.14379 0.7019 0.0
C972 C 0.16946 0.17208 0.72138 0.0
C973 C 0.19425 0.19228 0.7392 0.0
C974 C 0.22869 0.10525 0.68162 0.0
C975 C 0.13171 0.18163 0.72234 0.0
C976 C 0.12758 0.1126 0.61784 0.0
C977 C 0.11508 0.08199 0.6334 0.0
C978 C 0.14797 0.13362 0.64025 0.0
C979 C 0.15518 0.1241 0.67933 0.0
C980 C 0.14064 0.09426 0.69574 0.0
C981 C 0.1211 0.07329 0.67239 0.0
C982 C 0.16345 0.16496 0.62154 0.0
C983 C 0.14686 0.0838 0.73754 0.0
H984 H 0.26716 0.14837 0.7215 0.0
H985 H 0.18588 0.21493 0.75225 0.0
H986 H 0.2158 0.0819 0.69244 0.0
H987 H 0.22197 0.10872 0.65056 0.0
H988 H 0.25712 0.10169 0.68508 0.0
H989 H 0.1271 0.20189 0.74236 0.0
H990 H 0.12238 0.19053 0.69324 0.0
H991 H 0.11598 0.15938 0.73109 0.0
H992 H 0.12294 0.1193 0.58764 0.0
H993 H 0.11111 0.04972 0.68447 0.0
H994 H 0.19202 0.16232 0.62145 0.0
H995 H 0.15756 0.18724 0.63806 0.0
H996 H 0.15374 0.16979 0.5915 0.0
H997 H 0.17427 0.0761 0.74252 0.0
H998 H 0.13014 0.06241 0.74692 0.0
H999 H 0.14202 0.10526 0.75576 0.0
C1000 C 0.65866 0.40041 0.2914 0.0
C1001 C 0.67427 0.36874 0.2975 0.0
C1002 C 0.65734 0.42277 0.32106 0.0
C1003 C 0.67235 0.41328 0.35752 0.0
C1004 C 0.68997 0.38207 0.36311 0.0
C1005 C 0.6906 0.36006 0.33297 0.0
C1006 C 0.63835 0.45583 0.3139 0.0
C1007 C 0.70671 0.37123 0.40134 0.0
C1008 C 0.67975 0.48472 0.42538 0.0
C1009 C 0.64867 0.48123 0.44496 0.0
C1010 C 0.6889 0.46167 0.39818 0.0
C1011 C 0.6664 0.43467 0.3904 0.0
C1012 C 0.63608 0.42994 0.41173 0.0
C1013 C 0.62763 0.45321 0.43875 0.0
C1014 C 0.72171 0.46724 0.37639 0.0
C1015 C 0.61147 0.40134 0.4045 0.0
H1016 H 0.64639 0.40721 0.26378 0.0
H1017 H 0.7029 0.33558 0.33745 0.0
H1018 H 0.61493 0.45592 0.33151 0.0
H1019 H 0.65491 0.47701 0.32263 0.0
H1020 H 0.63025 0.46043 0.2833 0.0
H1021 H 0.72366 0.34882 0.39933 0.0
H1022 H 0.72229 0.39202 0.41288 0.0
H1023 H 0.68636 0.36488 0.42223 0.0
H1024 H 0.69629 0.50616 0.43012 0.0
H1025 H 0.60378 0.45001 0.45406 0.0
H1026 H 0.71508 0.47591 0.34637 0.0
H1027 H 0.73643 0.44334 0.37537 0.0
H1028 H 0.73863 0.48639 0.38934 0.0
H1029 H 0.59954 0.40495 0.3753 0.0
H1030 H 0.59047 0.39966 0.42555 0.0
H1031 H 0.62564 0.37701 0.40579 0.0
loop_
_geom_bond_atom_site_label_1
_geom_bond_atom_site_label_2
_geom_bond_distance
_geom_bond_site_symmetry_2
_ccdc_geom_bond_type
H0 C7 0.929 . S
H1 C10 0.930 . S
H2 C12 0.929 . S
H3 C4 0.969 . S
C4 H3 0.969 . S
C4 O5 1.550 . S
C4 H6 0.973 . S
O5 C4 1.550 . S
O5 C11 1.412 . S
H6 C4 0.973 . S
C7 H0 0.929 . S
C7 C8 1.400 . S
C7 C9 1.364 . S
C8 C7 1.400 . S
C8 C12 1.377 . S
C9 C7 1.364 . S
C9 C10 1.374 . S
C10 H1 0.930 . S
C10 C9 1.374 . S
C10 C11 1.383 . S
C11 O5 1.412 . S
C11 C10 1.383 . S
C11 C12 1.394 . S
C12 H2 0.929 . S
C12 C8 1.377 . S
C12 C11 1.394 . S
H13 C20 0.929 . S
H14 C23 0.930 . S
H15 C25 0.929 . S
H16 C17 0.969 . S
C17 H16 0.969 . S
C17 O18 1.550 . S
C17 H19 0.973 . S
O18 C17 1.550 . S
O18 C24 1.412 . S
H19 C17 0.973 . S
C20 H13 0.929 . S
C20 C21 1.400 . S
C20 C22 1.364 . S
C21 C20 1.400 . S
C21 C25 1.377 . S
C22 C20 1.364 . S
C22 C23 1.374 . S
C23 H14 0.930 . S
C23 C22 1.374 . S
C23 C24 1.383 . S
C24 O18 1.412 . S
C24 C23 1.383 . S
C24 C25 1.394 . S
C25 H15 0.929 . S
C25 C21 1.377 . S
C25 C24 1.394 . S
H26 C33 0.929 . S
H27 C36 0.930 . S
H28 C38 0.929 . S
H29 C30 0.969 . S
C30 H29 0.969 . S
C30 O31 1.550 . S
C30 H32 0.973 . S
O31 C30 1.550 . S
O31 C37 1.412 . S
H32 C30 0.973 . S
C33 H26 0.929 . S
C33 C34 1.400 . S
C33 C35 1.364 . S
C34 C33 1.400 . S
C34 C38 1.377 . S
C35 C33 1.364 . S
C35 C36 1.374 . S
C36 H27 0.930 . S
C36 C35 1.374 . S
C36 C37 1.383 . S
C37 O31 1.412 . S
C37 C36 1.383 . S
C37 C38 1.394 . S
C38 H28 0.929 . S
C38 C34 1.377 . S
C38 C37 1.394 . S
H39 C46 0.929 . S
H40 C49 0.930 . S
H41 C51 0.929 . S
H42 C43 0.969 . S
C43 H42 0.969 . S
C43 O44 1.550 . S
C43 H45 0.973 . S
O44 C43 1.550 . S
O44 C50 1.412 . S
H45 C43 0.973 . S
C46 H39 0.929 . S
C46 C47 1.400 . S
C46 C48 1.364 . S
C47 C46 1.400 . S
C47 C51 1.377 . S
C48 C46 1.364 . S
C48 C49 1.374 . S
C49 H40 0.930 . S
C49 C48 1.374 . S
C49 C50 1.383 . S
C50 O44 1.412 . S
C50 C49 1.383 . S
C50 C51 1.394 . S
C51 H41 0.929 . S
C51 C47 1.377 . S
C51 C50 1.394 . S
H52 C59 0.929 . S
H53 C62 0.930 . S
H54 C64 0.929 . S
H55 C56 0.969 . S
C56 H55 0.969 . S
C56 O57 1.550 . S
C56 H58 0.973 . S
O57 C56 1.550 . S
O57 C63 1.412 . S
H58 C56 0.973 . S
C59 H52 0.929 . S
C59 C60 1.400 . S
C59 C61 1.364 . S
C60 C59 1.400 . S
C60 C64 1.377 . S
C61 C59 1.364 . S
C61 C62 1.374 . S
C62 H53 0.930 . S
C62 C61 1.374 . S
C62 C63 1.383 . S
C63 O57 1.412 . S
C63 C62 1.383 . S
C63 C64 1.394 . S
C64 H54 0.929 . S
C64 C60 1.377 . S
C64 C63 1.394 . S
H65 C72 0.929 . S
H66 C75 0.930 . S
H67 C77 0.929 . S
H68 C69 0.969 . S
C69 H68 0.969 . S
C69 O70 1.550 . S
C69 H71 0.973 . S
O70 C69 1.550 . S
O70 C76 1.412 . S
H71 C69 0.973 . S
C72 H65 0.929 . S
C72 C73 1.400 . S
C72 C74 1.364 . S
C73 C72 1.400 . S
C73 C77 1.377 . S
C74 C72 1.364 . S
C74 C75 1.374 . S
C75 H66 0.930 . S
C75 C74 1.374 . S
C75 C76 1.383 . S
C76 O70 1.412 . S
C76 C75 1.383 . S
C76 C77 1.394 . S
C77 H67 0.929 . S
C77 C73 1.377 . S
C77 C76 1.394 . S
H78 C85 0.929 . S
H79 C88 0.930 . S
H80 C90 0.929 . S
H81 C82 0.969 . S
C82 H81 0.969 . S
C82 O83 1.550 . S
C82 H84 0.973 . S
O83 C82 1.550 . S
O83 C89 1.412 . S
H84 C82 0.973 . S
C85 H78 0.929 . S
C85 C86 1.400 . S
C85 C87 1.364 . S
C86 C85 1.400 . S
C86 C90 1.377 . S
C87 C85 1.364 . S
C87 C88 1.374 . S
C88 H79 0.930 . S
C88 C87 1.374 . S
C88 C89 1.383 . S
C89 O83 1.412 . S
C89 C88 1.383 . S
C89 C90 1.394 . S
C90 H80 0.929 . S
C90 C86 1.377 . S
C90 C89 1.394 . S
H91 C98 0.929 . S
H92 C101 0.930 . S
H93 C103 0.929 . S
H94 C95 0.969 . S
C95 H94 0.969 . S
C95 O96 1.550 . S
C95 H97 0.973 . S
O96 C95 1.550 . S
O96 C102 1.412 . S
H97 C95 0.973 . S
C98 H91 0.929 . S
C98 C99 1.400 . S
C98 C100 1.364 . S
C99 C98 1.400 . S
C99 C103 1.377 . S
C100 C98 1.364 . S
C100 C101 1.374 . S
C101 H92 0.930 . S
C101 C100 1.374 . S
C101 C102 1.383 . S
C102 O96 1.412 . S
C102 C101 1.383 . S
C102 C103 1.394 . S
C103 H93 0.929 . S
C103 C99 1.377 . S
C103 C102 1.394 . S
Nd104 C106 2.820 1_545 S
Nd104 O124 2.479 1_545 S
Nd104 O125 2.483 1_545 S
Nd104 O126 2.505 . S
Nd104 O127 2.701 . S
Nd104 O128 2.409 1_545 S
Nd104 O133 2.411 1_545 S
Nd104 O135 2.437 . S
Nd105 C115 2.836 . S
Nd105 O127 2.414 1_655 S
Nd105 O129 2.424 . S
Nd105 O130 2.500 . S
Nd105 O131 2.492 . S
Nd105 O132 2.487 1_545 S
Nd105 O133 2.682 1_645 S
Nd105 O134 2.410 1_655 S
C106 Nd104 2.820 1_565 S
C106 C107 1.498 . S
C106 O124 1.258 . S
C106 O125 1.239 . S
C107 C106 1.498 . S
C107 C108 1.366 . S
C107 C112 1.407 . S
C108 C107 1.366 . S
C108 C109 1.392 . S
C108 H136 0.930 . S
C109 C108 1.392 . S
C109 C110 1.398 . S
C109 H137 0.929 . S
C110 C109 1.398 . S
C110 C111 1.352 . S
C111 C110 1.352 . S
C111 C112 1.384 . S
C111 H138 0.930 . S
C112 C107 1.407 . S
C112 C111 1.384 . S
C112 H139 0.929 . S
C113 O126 1.241 . S
C113 O127 1.273 . S
C114 O128 1.251 . S
C114 O129 1.268 1_465 S
C115 Nd105 2.836 . S
C115 C116 1.498 . S
C115 O130 1.258 . S
C115 O131 1.239 . S
C116 C115 1.498 . S
C116 C117 1.366 . S
C116 C121 1.407 . S
C117 C116 1.366 . S
C117 C118 1.392 . S
C117 H140 0.930 . S
C118 C117 1.392 . S
C118 C119 1.398 . S
C118 H141 0.929 . S
C119 C118 1.398 . S
C119 C120 1.352 . S
C120 C119 1.352 . S
C120 C121 1.384 . S
C120 H142 0.930 . S
C121 C116 1.407 . S
C121 C120 1.384 . S
C121 H143 0.929 . S
C122 O132 1.241 . S
C122 O133 1.273 1_655 S
C123 O134 1.251 . S
C123 O135 1.268 . S
O124 Nd104 2.479 1_565 S
O124 C106 1.258 . S
O125 Nd104 2.483 1_565 S
O125 C106 1.239 . S
O126 Nd104 2.505 . S
O126 C113 1.241 . S
O127 Nd104 2.701 . S
O127 Nd105 2.414 1_455 S
O127 C113 1.273 . S
O128 Nd104 2.409 1_565 S
O128 C114 1.251 . S
O129 Nd105 2.424 . S
O129 C114 1.268 1_645 S
O130 Nd105 2.500 . S
O130 C115 1.258 . S
O131 Nd105 2.492 . S
O131 C115 1.239 . S
O132 Nd105 2.487 1_565 S
O132 C122 1.241 . S
O133 Nd104 2.411 1_565 S
O133 Nd105 2.682 1_465 S
O133 C122 1.273 1_455 S
O134 Nd105 2.410 1_455 S
O134 C123 1.251 . S
O135 Nd104 2.437 . S
O135 C123 1.268 . S
H136 C108 0.930 . S
H137 C109 0.929 . S
H138 C111 0.930 . S
H139 C112 0.929 . S
H140 C117 0.930 . S
H141 C118 0.929 . S
H142 C120 0.930 . S
H143 C121 0.929 . S
Nd144 C146 2.836 . S
Nd144 O164 2.500 . S
Nd144 O165 2.492 . S
Nd144 O166 2.487 1_565 S
Nd144 O167 2.682 1_565 S
Nd144 O168 2.410 1_554 S
Nd144 O173 2.405 1_554 S
Nd144 O175 2.424 1_565 S
Nd145 C155 2.836 . S
Nd145 O167 2.414 1_556 S
Nd145 O169 2.424 1_545 S
Nd145 O170 2.500 . S
Nd145 O171 2.492 . S
Nd145 O172 2.487 . S
Nd145 O173 2.687 1_545 S
Nd145 O174 2.410 1_556 S
C146 Nd144 2.836 . S
C146 C147 1.498 . S
C146 O164 1.258 . S
C146 O165 1.239 . S
C147 C146 1.498 . S
C147 C148 1.366 . S
C147 C152 1.407 . S
C148 C147 1.366 . S
C148 C149 1.392 . S
C148 H176 0.930 . S
C149 C148 1.392 . S
C149 C150 1.398 . S
C149 H177 0.929 . S
C150 C149 1.398 . S
C150 C151 1.352 . S
C151 C150 1.352 . S
C151 C152 1.384 . S
C151 H178 0.930 . S
C152 C147 1.407 . S
C152 C151 1.384 . S
C152 H179 0.929 . S
C153 O166 1.241 . S
C153 O167 1.273 . S
C154 O168 1.251 . S
C154 O169 1.268 . S
C155 Nd145 2.836 . S
C155 C156 1.498 . S
C155 O170 1.258 . S
C155 O171 1.239 . S
C156 C155 1.498 . S
C156 C157 1.366 . S
C156 C161 1.407 . S
C157 C156 1.366 . S
C157 C158 1.392 . S
C157 H180 0.930 . S
C158 C157 1.392 . S
C158 C159 1.398 . S
C158 H181 0.929 . S
C159 C158 1.398 . S
C159 C160 1.352 . S
C160 C159 1.352 . S
C160 C161 1.384 . S
C160 H182 0.930 . S
C161 C156 1.407 . S
C161 C160 1.384 . S
C161 H183 0.929 . S
C162 O172 1.241 1_565 S
C162 O173 1.280 . S
C163 O174 1.251 . S
C163 O175 1.268 . S
O164 Nd144 2.500 . S
O164 C146 1.258 . S
O165 Nd144 2.492 . S
O165 C146 1.239 . S
O166 Nd144 2.487 1_545 S
O166 C153 1.241 . S
O167 Nd144 2.682 1_545 S
O167 Nd145 2.414 1_554 S
O167 C153 1.273 . S
O168 Nd144 2.410 1_556 S
O168 C154 1.251 . S
O169 Nd145 2.424 1_565 S
O169 C154 1.268 . S
O170 Nd145 2.500 . S
O170 C155 1.258 . S
O171 Nd145 2.492 . S
O171 C155 1.239 . S
O172 Nd145 2.487 . S
O172 C162 1.241 1_545 S
O173 Nd144 2.405 1_556 S
O173 Nd145 2.687 1_565 S
O173 C162 1.280 . S
O174 Nd145 2.410 1_554 S
O174 C163 1.251 . S
O175 Nd144 2.424 1_545 S
O175 C163 1.268 . S
H176 C148 0.930 . S
H177 C149 0.929 . S
H178 C151 0.930 . S
H179 C152 0.929 . S
H180 C157 0.930 . S
H181 C158 0.929 . S
H182 C160 0.930 . S
H183 C161 0.929 . S
Nd184 C186 2.836 . S
Nd184 O204 2.500 . S
Nd184 O205 2.492 . S
Nd184 O206 2.487 . S
Nd184 O207 2.682 . S
Nd184 O208 2.410 . S
Nd184 O213 2.414 . S
Nd184 O215 2.424 . S
Nd185 C195 2.836 . S
Nd185 O207 2.414 . S
Nd185 O209 2.424 . S
Nd185 O210 2.500 . S
Nd185 O211 2.492 . S
Nd185 O212 2.487 . S
Nd185 O213 2.682 . S
Nd185 O214 2.410 . S
C186 Nd184 2.836 . S
C186 C187 1.498 . S
C186 O204 1.258 . S
C186 O205 1.239 . S
C187 C186 1.498 . S
C187 C188 1.366 . S
C187 C192 1.407 . S
C188 C187 1.366 . S
C188 C189 1.392 . S
C188 H216 0.930 . S
C189 C188 1.392 . S
C189 C190 1.398 . S
C189 H217 0.929 . S
C190 C189 1.398 . S
C190 C191 1.352 . S
C191 C190 1.352 . S
C191 C192 1.384 . S
C191 H218 0.930 . S
C192 C187 1.407 . S
C192 C191 1.384 . S
C192 H219 0.929 . S
C193 O206 1.241 . S
C193 O207 1.273 . S
C194 O208 1.251 . S
C194 O209 1.268 . S
C195 Nd185 2.836 . S
C195 C196 1.498 . S
C195 O210 1.258 . S
C195 O211 1.239 . S
C196 C195 1.498 . S
C196 C197 1.366 . S
C196 C201 1.407 . S
C197 C196 1.366 . S
C197 C198 1.392 . S
C197 H220 0.930 . S
C198 C197 1.392 . S
C198 C199 1.398 . S
C198 H221 0.929 . S
C199 C198 1.398 . S
C199 C200 1.352 . S
C200 C199 1.352 . S
C200 C201 1.384 . S
C200 H222 0.930 . S
C201 C196 1.407 . S
C201 C200 1.384 . S
C201 H223 0.929 . S
C202 O212 1.241 . S
C202 O213 1.273 . S
C203 O214 1.251 . S
C203 O215 1.268 . S
O204 Nd184 2.500 . S
O204 C186 1.258 . S
O205 Nd184 2.492 . S
O205 C186 1.239 . S
O206 Nd184 2.487 . S
O206 C193 1.241 . S
O207 Nd184 2.682 . S
O207 Nd185 2.414 . S
O207 C193 1.273 . S
O208 Nd184 2.410 . S
O208 C194 1.251 . S
O209 Nd185 2.424 . S
O209 C194 1.268 . S
O210 Nd185 2.500 . S
O210 C195 1.258 . S
O211 Nd185 2.492 . S
O211 C195 1.239 . S
O212 Nd185 2.487 . S
O212 C202 1.241 . S
O213 Nd184 2.414 . S
O213 Nd185 2.682 . S
O213 C202 1.273 . S
O214 Nd185 2.410 . S
O214 C203 1.251 . S
O215 Nd184 2.424 . S
O215 C203 1.268 . S
H216 C188 0.930 . S
H217 C189 0.929 . S
H218 C191 0.930 . S
H219 C192 0.929 . S
H220 C197 0.930 . S
H221 C198 0.929 . S
H222 C200 0.930 . S
H223 C201 0.929 . S
Nd224 C226 2.836 1_455 S
Nd224 O244 2.500 1_455 S
Nd224 O245 2.492 . S
Nd224 O246 2.487 . S
Nd224 O247 2.682 . S
Nd224 O248 2.410 . S
Nd224 O253 2.414 1_455 S
Nd224 O255 2.424 . S
Nd225 C235 2.836 . S
Nd225 O247 2.414 1_556 S
Nd225 O249 2.424 . S
Nd225 O250 2.500 . S
Nd225 O251 2.492 . S
Nd225 O252 2.487 1_455 S
Nd225 O253 2.682 1_456 S
Nd225 O254 2.410 1_556 S
C226 Nd224 2.836 1_655 S
C226 C227 1.498 . S
C226 O244 1.258 . S
C226 O245 1.239 1_655 S
C227 C226 1.498 . S
C227 C228 1.366 . S
C227 C232 1.407 . S
C228 C227 1.366 . S
C228 C229 1.392 . S
C228 H256 0.930 . S
C229 C228 1.392 . S
C229 C230 1.398 . S
C229 H257 0.929 . S
C230 C229 1.398 . S
C230 C231 1.352 . S
C231 C230 1.352 . S
C231 C232 1.384 . S
C231 H258 0.930 . S
C232 C227 1.407 . S
C232 C231 1.384 . S
C232 H259 0.929 1_655 S
C233 O246 1.241 . S
C233 O247 1.273 . S
C234 O248 1.251 . S
C234 O249 1.268 1_554 S
C235 Nd225 2.836 . S
C235 C236 1.498 . S
C235 O250 1.258 . S
C235 O251 1.239 . S
C236 C235 1.498 . S
C236 C237 1.366 . S
C236 C241 1.407 . S
C237 C236 1.366 . S
C237 C238 1.392 . S
C237 H260 0.930 . S
C238 C237 1.392 . S
C238 C239 1.398 . S
C238 H261 0.929 . S
C239 C238 1.398 . S
C239 C240 1.352 . S
C240 C239 1.352 . S
C240 C241 1.384 . S
C240 H262 0.930 . S
C241 C236 1.407 . S
C241 C240 1.384 . S
C241 H263 0.929 . S
C242 O252 1.241 . S
C242 O253 1.273 1_556 S
C243 O254 1.251 . S
C243 O255 1.268 . S
O244 Nd224 2.500 1_655 S
O244 C226 1.258 . S
O245 Nd224 2.492 . S
O245 C226 1.239 1_455 S
O246 Nd224 2.487 . S
O246 C233 1.241 . S
O247 Nd224 2.682 . S
O247 Nd225 2.414 1_554 S
O247 C233 1.273 . S
O248 Nd224 2.410 . S
O248 C234 1.251 . S
O249 Nd225 2.424 . S
O249 C234 1.268 1_556 S
O250 Nd225 2.500 . S
O250 C235 1.258 . S
O251 Nd225 2.492 . S
O251 C235 1.239 . S
O252 Nd225 2.487 1_655 S
O252 C242 1.241 . S
O253 Nd224 2.414 1_655 S
O253 Nd225 2.682 1_654 S
O253 C242 1.273 1_554 S
O254 Nd225 2.410 1_554 S
O254 C243 1.251 . S
O255 Nd224 2.424 . S
O255 C243 1.268 . S
H256 C228 0.930 . S
H257 C229 0.929 . S
H258 C231 0.930 . S
H259 C232 0.929 1_455 S
H260 C237 0.930 . S
H261 C238 0.929 . S
H262 C240 0.930 . S
H263 C241 0.929 . S
C264 C265 1.391 . S
C264 C266 1.394 . S
C264 H280 0.931 . S
C265 C264 1.391 . S
C265 C269 1.376 . S
C266 C264 1.394 . S
C266 C267 1.369 . S
C266 C270 1.531 . S
C267 C266 1.369 . S
C267 C268 1.410 . S
C267 C275 1.503 . S
C268 C267 1.410 . S
C268 C269 1.392 . S
C268 C271 1.511 . S
C269 C265 1.376 . S
C269 C268 1.392 . S
C269 H281 0.929 . S
C270 C266 1.531 . S
C270 H282 0.960 . S
C270 H283 0.962 . S
C270 H284 0.960 . S
C271 C268 1.511 . S
C271 H285 0.961 . S
C271 H286 0.961 . S
C271 H287 0.961 . S
C272 C273 1.370 . S
C272 C274 1.363 . S
C272 H288 0.931 . S
C273 C272 1.370 . S
C273 C277 1.408 . S
C274 C272 1.363 . S
C274 C275 1.370 . S
C274 C278 1.524 . S
C275 C267 1.503 . S
C275 C274 1.370 . S
C275 C276 1.403 . S
C276 C275 1.403 . S
C276 C277 1.404 . S
C276 C279 1.539 . S
C277 C273 1.408 . S
C277 C276 1.404 . S
C277 H289 0.930 . S
C278 C274 1.524 . S
C278 H290 0.956 . S
C278 H291 0.961 . S
C278 H292 0.961 . S
C279 C276 1.539 . S
C279 H293 0.958 . S
C279 H294 0.961 . S
C279 H295 0.960 . S
H280 C264 0.931 . S
H281 C269 0.929 . S
H282 C270 0.960 . S
H283 C270 0.962 . S
H284 C270 0.960 . S
H285 C271 0.961 . S
H286 C271 0.961 . S
H287 C271 0.961 . S
H288 C272 0.931 . S
H289 C277 0.930 . S
H290 C278 0.956 . S
H291 C278 0.961 . S
H292 C278 0.961 . S
H293 C279 0.958 . S
H294 C279 0.961 . S
H295 C279 0.960 . S
C296 C297 1.391 . S
C296 C298 1.394 . S
C296 H312 0.931 . S
C297 C296 1.391 . S
C297 C301 1.376 . S
C298 C296 1.394 . S
C298 C299 1.369 . S
C298 C302 1.531 . S
C299 C298 1.369 . S
C299 C300 1.410 . S
C299 C307 1.503 . S
C300 C299 1.410 . S
C300 C301 1.392 . S
C300 C303 1.511 . S
C301 C297 1.376 . S
C301 C300 1.392 . S
C301 H313 0.929 . S
C302 C298 1.531 . S
C302 H314 0.960 . S
C302 H315 0.962 . S
C302 H316 0.960 . S
C303 C300 1.511 . S
C303 H317 0.961 . S
C303 H318 0.961 . S
C303 H319 0.961 . S
C304 C305 1.370 . S
C304 C306 1.363 . S
C304 H320 0.931 . S
C305 C304 1.370 . S
C305 C309 1.408 . S
C306 C304 1.363 . S
C306 C307 1.370 . S
C306 C310 1.524 . S
C307 C299 1.503 . S
C307 C306 1.370 . S
C307 C308 1.403 . S
C308 C307 1.403 . S
C308 C309 1.404 . S
C308 C311 1.539 . S
C309 C305 1.408 . S
C309 C308 1.404 . S
C309 H321 0.930 . S
C310 C306 1.524 . S
C310 H322 0.956 . S
C310 H323 0.961 . S
C310 H324 0.961 . S
C311 C308 1.539 . S
C311 H325 0.958 . S
C311 H326 0.961 . S
C311 H327 0.960 . S
H312 C296 0.931 . S
H313 C301 0.929 . S
H314 C302 0.960 . S
H315 C302 0.962 . S
H316 C302 0.960 . S
H317 C303 0.961 . S
H318 C303 0.961 . S
H319 C303 0.961 . S
H320 C304 0.931 . S
H321 C309 0.930 . S
H322 C310 0.956 . S
H323 C310 0.961 . S
H324 C310 0.961 . S
H325 C311 0.958 . S
H326 C311 0.961 . S
H327 C311 0.960 . S
C328 C329 1.391 . S
C328 C330 1.394 . S
C328 H344 0.931 . S
C329 C328 1.391 . S
C329 C333 1.376 . S
C330 C328 1.394 . S
C330 C331 1.369 . S
C330 C334 1.531 . S
C331 C330 1.369 . S
C331 C332 1.410 . S
C331 C339 1.503 . S
C332 C331 1.410 . S
C332 C333 1.392 . S
C332 C335 1.511 . S
C333 C329 1.376 . S
C333 C332 1.392 . S
C333 H345 0.929 . S
C334 C330 1.531 . S
C334 H346 0.960 . S
C334 H347 0.962 . S
C334 H348 0.960 . S
C335 C332 1.511 . S
C335 H349 0.961 . S
C335 H350 0.961 . S
C335 H351 0.961 . S
C336 C337 1.370 . S
C336 C338 1.363 . S
C336 H352 0.931 . S
C337 C336 1.370 . S
C337 C341 1.408 . S
C338 C336 1.363 . S
C338 C339 1.370 . S
C338 C342 1.524 . S
C339 C331 1.503 . S
C339 C338 1.370 . S
C339 C340 1.403 . S
C340 C339 1.403 . S
C340 C341 1.404 . S
C340 C343 1.539 . S
C341 C337 1.408 . S
C341 C340 1.404 . S
C341 H353 0.930 . S
C342 C338 1.524 . S
C342 H354 0.956 . S
C342 H355 0.961 . S
C342 H356 0.961 . S
C343 C340 1.539 . S
C343 H357 0.958 . S
C343 H358 0.961 . S
C343 H359 0.960 . S
H344 C328 0.931 . S
H345 C333 0.929 . S
H346 C334 0.960 . S
H347 C334 0.962 . S
H348 C334 0.960 . S
H349 C335 0.961 . S
H350 C335 0.961 . S
H351 C335 0.961 . S
H352 C336 0.931 . S
H353 C341 0.930 . S
H354 C342 0.956 . S
H355 C342 0.961 . S
H356 C342 0.961 . S
H357 C343 0.958 . S
H358 C343 0.961 . S
H359 C343 0.960 . S
C360 C361 1.391 . S
C360 C362 1.394 . S
C360 H376 0.931 . S
C361 C360 1.391 . S
C361 C365 1.376 . S
C362 C360 1.394 . S
C362 C363 1.369 . S
C362 C366 1.531 . S
C363 C362 1.369 . S
C363 C364 1.410 . S
C363 C371 1.503 . S
C364 C363 1.410 . S
C364 C365 1.392 . S
C364 C367 1.511 . S
C365 C361 1.376 . S
C365 C364 1.392 . S
C365 H377 0.929 . S
C366 C362 1.531 . S
C366 H378 0.960 . S
C366 H379 0.962 . S
C366 H380 0.960 . S
C367 C364 1.511 . S
C367 H381 0.961 . S
C367 H382 0.961 . S
C367 H383 0.961 . S
C368 C369 1.370 . S
C368 C370 1.363 . S
C368 H384 0.931 . S
C369 C368 1.370 . S
C369 C373 1.408 . S
C370 C368 1.363 . S
C370 C371 1.370 . S
C370 C374 1.524 . S
C371 C363 1.503 . S
C371 C370 1.370 . S
C371 C372 1.403 . S
C372 C371 1.403 . S
C372 C373 1.404 . S
C372 C375 1.539 . S
C373 C369 1.408 . S
C373 C372 1.404 . S
C373 H385 0.930 . S
C374 C370 1.524 . S
C374 H386 0.956 . S
C374 H387 0.961 . S
C374 H388 0.961 . S
C375 C372 1.539 . S
C375 H389 0.958 . S
C375 H390 0.961 . S
C375 H391 0.960 . S
H376 C360 0.931 . S
H377 C365 0.929 . S
H378 C366 0.960 . S
H379 C366 0.962 . S
H380 C366 0.960 . S
H381 C367 0.961 . S
H382 C367 0.961 . S
H383 C367 0.961 . S
H384 C368 0.931 . S
H385 C373 0.930 . S
H386 C374 0.956 . S
H387 C374 0.961 . S
H388 C374 0.961 . S
H389 C375 0.958 . S
H390 C375 0.961 . S
H391 C375 0.960 . S
C392 C393 1.391 . S
C392 C394 1.394 . S
C392 H408 0.931 . S
C393 C392 1.391 . S
C393 C397 1.376 . S
C394 C392 1.394 . S
C394 C395 1.369 . S
C394 C398 1.531 . S
C395 C394 1.369 . S
C395 C396 1.410 . S
C395 C403 1.503 . S
C396 C395 1.410 . S
C396 C397 1.392 . S
C396 C399 1.511 . S
C397 C393 1.376 . S
C397 C396 1.392 . S
C397 H409 0.929 . S
C398 C394 1.531 . S
C398 H410 0.960 . S
C398 H411 0.962 . S
C398 H412 0.960 . S
C399 C396 1.511 . S
C399 H413 0.961 1_554 S
C399 H414 0.961 . S
C399 H415 0.961 . S
C400 C401 1.370 . S
C400 C402 1.363 . S
C400 H416 0.931 . S
C401 C400 1.370 . S
C401 C405 1.408 . S
C402 C400 1.363 . S
C402 C403 1.370 . S
C402 C406 1.524 . S
C403 C395 1.503 . S
C403 C402 1.370 . S
C403 C404 1.403 . S
C404 C403 1.403 . S
C404 C405 1.404 . S
C404 C407 1.539 . S
C405 C401 1.408 . S
C405 C404 1.404 . S
C405 H417 0.930 . S
C406 C402 1.524 . S
C406 H418 0.956 . S
C406 H419 0.961 . S
C406 H420 0.961 . S
C407 C404 1.539 . S
C407 H421 0.958 . S
C407 H422 0.961 1_545 S
C407 H423 0.960 . S
H408 C392 0.931 . S
H409 C397 0.929 . S
H410 C398 0.960 . S
H411 C398 0.962 . S
H412 C398 0.960 . S
H413 C399 0.961 1_556 S
H414 C399 0.961 . S
H415 C399 0.961 . S
H416 C400 0.931 . S
H417 C405 0.930 . S
H418 C406 0.956 . S
H419 C406 0.961 . S
H420 C406 0.961 . S
H421 C407 0.958 . S
H422 C407 0.961 1_565 S
H423 C407 0.960 . S
C424 C425 1.391 . S
C424 C426 1.394 . S
C424 H440 0.931 . S
C425 C424 1.391 . S
C425 C429 1.376 . S
C426 C424 1.394 . S
C426 C427 1.369 . S
C426 C430 1.531 . S
C427 C426 1.369 . S
C427 C428 1.410 . S
C427 C435 1.503 . S
C428 C427 1.410 . S
C428 C429 1.392 . S
C428 C431 1.511 . S
C429 C425 1.376 . S
C429 C428 1.392 . S
C429 H441 0.929 . S
C430 C426 1.531 . S
C430 H442 0.960 . S
C430 H443 0.962 . S
C430 H444 0.960 . S
C431 C428 1.511 . S
C431 H445 0.961 . S
C431 H446 0.961 . S
C431 H447 0.961 . S
C432 C433 1.370 . S
C432 C434 1.363 . S
C432 H448 0.931 . S
C433 C432 1.370 . S
C433 C437 1.408 . S
C434 C432 1.363 . S
C434 C435 1.370 . S
C434 C438 1.524 . S
C435 C427 1.503 . S
C435 C434 1.370 . S
C435 C436 1.403 . S
C436 C435 1.403 . S
C436 C437 1.404 . S
C436 C439 1.539 . S
C437 C433 1.408 . S
C437 C436 1.404 . S
C437 H449 0.930 . S
C438 C434 1.524 . S
C438 H450 0.956 . S
C438 H451 0.961 . S
C438 H452 0.961 . S
C439 C436 1.539 . S
C439 H453 0.958 . S
C439 H454 0.961 . S
C439 H455 0.960 . S
H440 C424 0.931 . S
H441 C429 0.929 . S
H442 C430 0.960 . S
H443 C430 0.962 . S
H444 C430 0.960 . S
H445 C431 0.961 . S
H446 C431 0.961 . S
H447 C431 0.961 . S
H448 C432 0.931 . S
H449 C437 0.930 . S
H450 C438 0.956 . S
H451 C438 0.961 . S
H452 C438 0.961 . S
H453 C439 0.958 . S
H454 C439 0.961 . S
H455 C439 0.960 . S
C456 C457 1.391 . S
C456 C458 1.394 . S
C456 H472 0.931 . S
C457 C456 1.391 . S
C457 C461 1.376 . S
C458 C456 1.394 . S
C458 C459 1.369 . S
C458 C462 1.531 . S
C459 C458 1.369 . S
C459 C460 1.410 . S
C459 C467 1.503 . S
C460 C459 1.410 . S
C460 C461 1.392 . S
C460 C463 1.511 . S
C461 C457 1.376 . S
C461 C460 1.392 . S
C461 H473 0.929 . S
C462 C458 1.531 . S
C462 H474 0.960 . S
C462 H475 0.962 . S
C462 H476 0.960 . S
C463 C460 1.511 . S
C463 H477 0.961 . S
C463 H478 0.961 . S
C463 H479 0.961 . S
C464 C465 1.370 . S
C464 C466 1.363 . S
C464 H480 0.931 . S
C465 C464 1.370 . S
C465 C469 1.408 . S
C466 C464 1.363 . S
C466 C467 1.370 . S
C466 C470 1.524 . S
C467 C459 1.503 . S
C467 C466 1.370 . S
C467 C468 1.403 . S
C468 C467 1.403 . S
C468 C469 1.404 . S
C468 C471 1.539 . S
C469 C465 1.408 . S
C469 C468 1.404 . S
C469 H481 0.930 . S
C470 C466 1.524 . S
C470 H482 0.956 . S
C470 H483 0.961 . S
C470 H484 0.961 . S
C471 C468 1.539 . S
C471 H485 0.958 . S
C471 H486 0.961 . S
C471 H487 0.960 . S
H472 C456 0.931 . S
H473 C461 0.929 . S
H474 C462 0.960 . S
H475 C462 0.962 . S
H476 C462 0.960 . S
H477 C463 0.961 . S
H478 C463 0.961 . S
H479 C463 0.961 . S
H480 C464 0.931 . S
H481 C469 0.930 . S
H482 C470 0.956 . S
H483 C470 0.961 . S
H484 C470 0.961 . S
H485 C471 0.958 . S
H486 C471 0.961 . S
H487 C471 0.960 . S
C488 C489 1.391 . S
C488 C490 1.394 . S
C488 H504 0.931 . S
C489 C488 1.391 . S
C489 C493 1.376 . S
C490 C488 1.394 . S
C490 C491 1.369 . S
C490 C494 1.531 . S
C491 C490 1.369 . S
C491 C492 1.410 . S
C491 C499 1.503 . S
C492 C491 1.410 . S
C492 C493 1.392 . S
C492 C495 1.511 . S
C493 C489 1.376 . S
C493 C492 1.392 . S
C493 H505 0.929 . S
C494 C490 1.531 . S
C494 H506 0.960 . S
C494 H507 0.962 . S
C494 H508 0.960 . S
C495 C492 1.511 . S
C495 H509 0.961 . S
C495 H510 0.961 . S
C495 H511 0.961 . S
C496 C497 1.370 . S
C496 C498 1.363 . S
C496 H512 0.931 . S
C497 C496 1.370 . S
C497 C501 1.408 . S
C498 C496 1.363 . S
C498 C499 1.370 . S
C498 C502 1.524 . S
C499 C491 1.503 . S
C499 C498 1.370 . S
C499 C500 1.403 . S
C500 C499 1.403 . S
C500 C501 1.404 . S
C500 C503 1.539 . S
C501 C497 1.408 . S
C501 C500 1.404 . S
C501 H513 0.930 . S
C502 C498 1.524 . S
C502 H514 0.956 . S
C502 H515 0.961 . S
C502 H516 0.961 . S
C503 C500 1.539 . S
C503 H517 0.958 . S
C503 H518 0.961 . S
C503 H519 0.960 . S
H504 C488 0.931 . S
H505 C493 0.929 . S
H506 C494 0.960 . S
H507 C494 0.962 . S
H508 C494 0.960 . S
H509 C495 0.961 . S
H510 C495 0.961 . S
H511 C495 0.961 . S
H512 C496 0.931 . S
H513 C501 0.930 . S
H514 C502 0.956 . S
H515 C502 0.961 . S
H516 C502 0.961 . S
H517 C503 0.958 . S
H518 C503 0.961 . S
H519 C503 0.960 . S
C520 C521 1.391 . S
C520 C522 1.394 . S
C520 H536 0.931 . S
C521 C520 1.391 . S
C521 C525 1.376 . S
C522 C520 1.394 . S
C522 C523 1.369 . S
C522 C526 1.531 . S
C523 C522 1.369 . S
C523 C524 1.410 . S
C523 C531 1.503 . S
C524 C523 1.410 . S
C524 C525 1.392 . S
C524 C527 1.511 . S
C525 C521 1.376 . S
C525 C524 1.392 . S
C525 H537 0.929 . S
C526 C522 1.531 . S
C526 H538 0.960 . S
C526 H539 0.962 . S
C526 H540 0.960 . S
C527 C524 1.511 . S
C527 H541 0.961 . S
C527 H542 0.961 . S
C527 H543 0.961 . S
C528 C529 1.370 . S
C528 C530 1.363 . S
C528 H544 0.931 . S
C529 C528 1.370 . S
C529 C533 1.408 . S
C530 C528 1.363 . S
C530 C531 1.370 . S
C530 C534 1.524 . S
C531 C523 1.503 . S
C531 C530 1.370 . S
C531 C532 1.403 . S
C532 C531 1.403 . S
C532 C533 1.404 . S
C532 C535 1.539 . S
C533 C529 1.408 . S
C533 C532 1.404 . S
C533 H545 0.930 . S
C534 C530 1.524 . S
C534 H546 0.956 . S
C534 H547 0.961 . S
C534 H548 0.961 . S
C535 C532 1.539 . S
C535 H549 0.958 . S
C535 H550 0.961 . S
C535 H551 0.960 . S
H536 C520 0.931 . S
H537 C525 0.929 . S
H538 C526 0.960 . S
H539 C526 0.962 . S
H540 C526 0.960 . S
H541 C527 0.961 . S
H542 C527 0.961 . S
H543 C527 0.961 . S
H544 C528 0.931 . S
H545 C533 0.930 . S
H546 C534 0.956 . S
H547 C534 0.961 . S
H548 C534 0.961 . S
H549 C535 0.958 . S
H550 C535 0.961 . S
H551 C535 0.960 . S
C552 C553 1.391 . S
C552 C554 1.394 . S
C552 H568 0.931 . S
C553 C552 1.391 . S
C553 C557 1.376 . S
C554 C552 1.394 . S
C554 C555 1.369 . S
C554 C558 1.531 . S
C555 C554 1.369 . S
C555 C556 1.410 . S
C555 C563 1.503 . S
C556 C555 1.410 . S
C556 C557 1.392 . S
C556 C559 1.511 . S
C557 C553 1.376 . S
C557 C556 1.392 . S
C557 H569 0.929 . S
C558 C554 1.531 . S
C558 H570 0.960 . S
C558 H571 0.962 . S
C558 H572 0.960 . S
C559 C556 1.511 . S
C559 H573 0.961 . S
C559 H574 0.961 . S
C559 H575 0.961 . S
C560 C561 1.370 . S
C560 C562 1.363 . S
C560 H576 0.931 . S
C561 C560 1.370 . S
C561 C565 1.408 . S
C562 C560 1.363 . S
C562 C563 1.370 . S
C562 C566 1.524 . S
C563 C555 1.503 . S
C563 C562 1.370 . S
C563 C564 1.403 . S
C564 C563 1.403 . S
C564 C565 1.404 . S
C564 C567 1.539 . S
C565 C561 1.408 . S
C565 C564 1.404 . S
C565 H577 0.930 . S
C566 C562 1.524 . S
C566 H578 0.956 . S
C566 H579 0.961 . S
C566 H580 0.961 . S
C567 C564 1.539 . S
C567 H581 0.958 . S
C567 H582 0.961 . S
C567 H583 0.960 . S
H568 C552 0.931 . S
H569 C557 0.929 . S
H570 C558 0.960 . S
H571 C558 0.962 . S
H572 C558 0.960 . S
H573 C559 0.961 . S
H574 C559 0.961 . S
H575 C559 0.961 . S
H576 C560 0.931 . S
H577 C565 0.930 . S
H578 C566 0.956 . S
H579 C566 0.961 . S
H580 C566 0.961 . S
H581 C567 0.958 . S
H582 C567 0.961 . S
H583 C567 0.960 . S
C584 C585 1.391 . S
C584 C586 1.394 . S
C584 H600 0.931 . S
C585 C584 1.391 . S
C585 C589 1.376 . S
C586 C584 1.394 . S
C586 C587 1.369 . S
C586 C590 1.531 . S
C587 C586 1.369 . S
C587 C588 1.410 . S
C587 C595 1.503 . S
C588 C587 1.410 . S
C588 C589 1.392 . S
C588 C591 1.511 . S
C589 C585 1.376 . S
C589 C588 1.392 . S
C589 H601 0.929 . S
C590 C586 1.531 . S
C590 H602 0.960 . S
C590 H603 0.962 . S
C590 H604 0.960 . S
C591 C588 1.511 . S
C591 H605 0.961 . S
C591 H606 0.961 . S
C591 H607 0.961 . S
C592 C593 1.370 . S
C592 C594 1.363 . S
C592 H608 0.931 . S
C593 C592 1.370 . S
C593 C597 1.408 1_655 S
C594 C592 1.363 . S
C594 C595 1.370 . S
C594 C598 1.524 . S
C595 C587 1.503 . S
C595 C594 1.370 . S
C595 C596 1.403 . S
C596 C595 1.403 . S
C596 C597 1.404 1_655 S
C596 C599 1.539 1_655 S
C597 C593 1.408 1_455 S
C597 C596 1.404 1_455 S
C597 H609 0.930 . S
C598 C594 1.524 . S
C598 H610 0.956 . S
C598 H611 0.961 . S
C598 H612 0.961 . S
C599 C596 1.539 1_455 S
C599 H613 0.958 . S
C599 H614 0.961 . S
C599 H615 0.960 . S
H600 C584 0.931 . S
H601 C589 0.929 . S
H602 C590 0.960 . S
H603 C590 0.962 . S
H604 C590 0.960 . S
H605 C591 0.961 . S
H606 C591 0.961 . S
H607 C591 0.961 . S
H608 C592 0.931 . S
H609 C597 0.930 . S
H610 C598 0.956 . S
H611 C598 0.961 . S
H612 C598 0.961 . S
H613 C599 0.958 . S
H614 C599 0.961 . S
H615 C599 0.960 . S
C616 C617 1.391 . S
C616 C618 1.394 . S
C616 H632 0.931 . S
C617 C616 1.391 . S
C617 C621 1.376 . S
C618 C616 1.394 . S
C618 C619 1.369 . S
C618 C622 1.531 . S
C619 C618 1.369 . S
C619 C620 1.410 . S
C619 C627 1.503 . S
C620 C619 1.410 . S
C620 C621 1.392 . S
C620 C623 1.511 . S
C621 C617 1.376 . S
C621 C620 1.392 . S
C621 H633 0.929 . S
C622 C618 1.531 . S
C622 H634 0.960 . S
C622 H635 0.962 . S
C622 H636 0.960 . S
C623 C620 1.511 . S
C623 H637 0.961 . S
C623 H638 0.961 . S
C623 H639 0.961 . S
C624 C625 1.370 . S
C624 C626 1.363 . S
C624 H640 0.931 . S
C625 C624 1.370 . S
C625 C629 1.408 . S
C626 C624 1.363 . S
C626 C627 1.370 . S
C626 C630 1.524 . S
C627 C619 1.503 . S
C627 C626 1.370 . S
C627 C628 1.403 . S
C628 C627 1.403 . S
C628 C629 1.404 . S
C628 C631 1.539 . S
C629 C625 1.408 . S
C629 C628 1.404 . S
C629 H641 0.930 . S
C630 C626 1.524 . S
C630 H642 0.956 . S
C630 H643 0.961 . S
C630 H644 0.961 . S
C631 C628 1.539 . S
C631 H645 0.958 . S
C631 H646 0.961 . S
C631 H647 0.960 . S
H632 C616 0.931 . S
H633 C621 0.929 . S
H634 C622 0.960 . S
H635 C622 0.962 . S
H636 C622 0.960 . S
H637 C623 0.961 . S
H638 C623 0.961 . S
H639 C623 0.961 . S
H640 C624 0.931 . S
H641 C629 0.930 . S
H642 C630 0.956 . S
H643 C630 0.961 . S
H644 C630 0.961 . S
H645 C631 0.958 . S
H646 C631 0.961 . S
H647 C631 0.960 . S
C648 C649 1.391 . S
C648 C650 1.394 . S
C648 H664 0.931 . S
C649 C648 1.391 . S
C649 C653 1.376 . S
C650 C648 1.394 . S
C650 C651 1.369 . S
C650 C654 1.531 . S
C651 C650 1.369 . S
C651 C652 1.410 . S
C651 C659 1.503 . S
C652 C651 1.410 . S
C652 C653 1.392 . S
C652 C655 1.511 . S
C653 C649 1.376 . S
C653 C652 1.392 . S
C653 H665 0.929 . S
C654 C650 1.531 . S
C654 H666 0.960 . S
C654 H667 0.962 . S
C654 H668 0.960 . S
C655 C652 1.511 . S
C655 H669 0.961 . S
C655 H670 0.961 . S
C655 H671 0.961 . S
C656 C657 1.370 . S
C656 C658 1.363 . S
C656 H672 0.931 1_655 S
C657 C656 1.370 . S
C657 C661 1.408 . S
C658 C656 1.363 . S
C658 C659 1.370 . S
C658 C662 1.524 . S
C659 C651 1.503 . S
C659 C658 1.370 . S
C659 C660 1.403 . S
C660 C659 1.403 . S
C660 C661 1.404 . S
C660 C663 1.539 . S
C661 C657 1.408 . S
C661 C660 1.404 . S
C661 H673 0.930 . S
C662 C658 1.524 . S
C662 H674 0.956 1_655 S
C662 H675 0.961 . S
C662 H676 0.961 1_655 S
C663 C660 1.539 . S
C663 H677 0.958 . S
C663 H678 0.961 . S
C663 H679 0.960 . S
H664 C648 0.931 . S
H665 C653 0.929 . S
H666 C654 0.960 . S
H667 C654 0.962 . S
H668 C654 0.960 . S
H669 C655 0.961 . S
H670 C655 0.961 . S
H671 C655 0.961 . S
H672 C656 0.931 1_455 S
H673 C661 0.930 . S
H674 C662 0.956 1_455 S
H675 C662 0.961 . S
H676 C662 0.961 1_455 S
H677 C663 0.958 . S
H678 C663 0.961 . S
H679 C663 0.960 . S
C680 C681 1.391 . S
C680 C682 1.394 . S
C680 H696 0.931 . S
C681 C680 1.391 . S
C681 C685 1.376 . S
C682 C680 1.394 . S
C682 C683 1.369 . S
C682 C686 1.531 . S
C683 C682 1.369 . S
C683 C684 1.410 . S
C683 C691 1.503 . S
C684 C683 1.410 . S
C684 C685 1.392 . S
C684 C687 1.511 . S
C685 C681 1.376 . S
C685 C684 1.392 . S
C685 H697 0.929 . S
C686 C682 1.531 . S
C686 H698 0.960 . S
C686 H699 0.962 . S
C686 H700 0.960 . S
C687 C684 1.511 . S
C687 H701 0.961 . S
C687 H702 0.961 . S
C687 H703 0.961 . S
C688 C689 1.370 . S
C688 C690 1.363 . S
C688 H704 0.931 . S
C689 C688 1.370 . S
C689 C693 1.408 . S
C690 C688 1.363 . S
C690 C691 1.370 . S
C690 C694 1.524 . S
C691 C683 1.503 . S
C691 C690 1.370 . S
C691 C692 1.403 . S
C692 C691 1.403 . S
C692 C693 1.404 . S
C692 C695 1.539 . S
C693 C689 1.408 . S
C693 C692 1.404 . S
C693 H705 0.930 . S
C694 C690 1.524 . S
C694 H706 0.956 . S
C694 H707 0.961 . S
C694 H708 0.961 . S
C695 C692 1.539 . S
C695 H709 0.958 . S
C695 H710 0.961 . S
C695 H711 0.960 . S
H696 C680 0.931 . S
H697 C685 0.929 . S
H698 C686 0.960 . S
H699 C686 0.962 . S
H700 C686 0.960 . S
H701 C687 0.961 . S
H702 C687 0.961 . S
H703 C687 0.961 . S
H704 C688 0.931 . S
H705 C693 0.930 . S
H706 C694 0.956 . S
H707 C694 0.961 . S
H708 C694 0.961 . S
H709 C695 0.958 . S
H710 C695 0.961 . S
H711 C695 0.960 . S
C712 C713 1.391 . S
C712 C714 1.394 . S
C712 H728 0.931 . S
C713 C712 1.391 . S
C713 C717 1.376 . S
C714 C712 1.394 . S
C714 C715 1.369 . S
C714 C718 1.531 . S
C715 C714 1.369 . S
C715 C716 1.410 . S
C715 C723 1.503 . S
C716 C715 1.410 . S
C716 C717 1.392 . S
C716 C719 1.511 . S
C717 C713 1.376 . S
C717 C716 1.392 . S
C717 H729 0.929 . S
C718 C714 1.531 . S
C718 H730 0.960 . S
C718 H731 0.962 . S
C718 H732 0.960 . S
C719 C716 1.511 . S
C719 H733 0.961 . S
C719 H734 0.961 . S
C719 H735 0.961 . S
C720 C721 1.370 . S
C720 C722 1.363 . S
C720 H736 0.931 . S
C721 C720 1.370 . S
C721 C725 1.408 . S
C722 C720 1.363 . S
C722 C723 1.370 . S
C722 C726 1.524 . S
C723 C715 1.503 . S
C723 C722 1.370 . S
C723 C724 1.403 . S
C724 C723 1.403 . S
C724 C725 1.404 . S
C724 C727 1.539 . S
C725 C721 1.408 . S
C725 C724 1.404 . S
C725 H737 0.930 . S
C726 C722 1.524 . S
C726 H738 0.956 . S
C726 H739 0.961 . S
C726 H740 0.961 . S
C727 C724 1.539 . S
C727 H741 0.958 . S
C727 H742 0.961 . S
C727 H743 0.960 . S
H728 C712 0.931 . S
H729 C717 0.929 . S
H730 C718 0.960 . S
H731 C718 0.962 . S
H732 C718 0.960 . S
H733 C719 0.961 . S
H734 C719 0.961 . S
H735 C719 0.961 . S
H736 C720 0.931 . S
H737 C725 0.930 . S
H738 C726 0.956 . S
H739 C726 0.961 . S
H740 C726 0.961 . S
H741 C727 0.958 . S
H742 C727 0.961 . S
H743 C727 0.960 . S
C744 C745 1.391 . S
C744 C746 1.394 . S
C744 H760 0.931 . S
C745 C744 1.391 . S
C745 C749 1.376 . S
C746 C744 1.394 . S
C746 C747 1.369 . S
C746 C750 1.531 . S
C747 C746 1.369 . S
C747 C748 1.410 . S
C747 C755 1.503 . S
C748 C747 1.410 . S
C748 C749 1.392 . S
C748 C751 1.511 . S
C749 C745 1.376 . S
C749 C748 1.392 . S
C749 H761 0.929 . S
C750 C746 1.531 . S
C750 H762 0.960 . S
C750 H763 0.962 . S
C750 H764 0.960 . S
C751 C748 1.511 . S
C751 H765 0.961 . S
C751 H766 0.961 . S
C751 H767 0.961 . S
C752 C753 1.370 . S
C752 C754 1.363 . S
C752 H768 0.931 . S
C753 C752 1.370 . S
C753 C757 1.408 . S
C754 C752 1.363 . S
C754 C755 1.370 . S
C754 C758 1.524 . S
C755 C747 1.503 . S
C755 C754 1.370 . S
C755 C756 1.403 . S
C756 C755 1.403 . S
C756 C757 1.404 . S
C756 C759 1.539 . S
C757 C753 1.408 . S
C757 C756 1.404 . S
C757 H769 0.930 . S
C758 C754 1.524 . S
C758 H770 0.956 . S
C758 H771 0.961 . S
C758 H772 0.961 . S
C759 C756 1.539 . S
C759 H773 0.958 . S
C759 H774 0.961 . S
C759 H775 0.960 . S
H760 C744 0.931 . S
H761 C749 0.929 . S
H762 C750 0.960 . S
H763 C750 0.962 . S
H764 C750 0.960 . S
H765 C751 0.961 . S
H766 C751 0.961 . S
H767 C751 0.961 . S
H768 C752 0.931 . S
H769 C757 0.930 . S
H770 C758 0.956 . S
H771 C758 0.961 . S
H772 C758 0.961 . S
H773 C759 0.958 . S
H774 C759 0.961 . S
H775 C759 0.960 . S
C776 C777 1.391 . S
C776 C778 1.394 . S
C776 H792 0.931 . S
C777 C776 1.391 . S
C777 C781 1.376 . S
C778 C776 1.394 . S
C778 C779 1.369 . S
C778 C782 1.531 1_556 S
C779 C778 1.369 . S
C779 C780 1.410 . S
C779 C787 1.503 . S
C780 C779 1.410 . S
C780 C781 1.392 . S
C780 C783 1.511 . S
C781 C777 1.376 . S
C781 C780 1.392 . S
C781 H793 0.929 . S
C782 C778 1.531 1_554 S
C782 H794 0.960 . S
C782 H795 0.962 . S
C782 H796 0.960 . S
C783 C780 1.511 . S
C783 H797 0.961 . S
C783 H798 0.961 . S
C783 H799 0.961 . S
C784 C785 1.370 . S
C784 C786 1.363 . S
C784 H800 0.931 . S
C785 C784 1.370 . S
C785 C789 1.408 . S
C786 C784 1.363 . S
C786 C787 1.370 . S
C786 C790 1.524 . S
C787 C779 1.503 . S
C787 C786 1.370 . S
C787 C788 1.403 . S
C788 C787 1.403 . S
C788 C789 1.404 . S
C788 C791 1.539 . S
C789 C785 1.408 . S
C789 C788 1.404 . S
C789 H801 0.930 . S
C790 C786 1.524 . S
C790 H802 0.956 . S
C790 H803 0.961 . S
C790 H804 0.961 . S
C791 C788 1.539 . S
C791 H805 0.937 1_556 S
C791 H806 0.961 1_565 S
C791 H807 0.960 . S
H792 C776 0.931 . S
H793 C781 0.929 . S
H794 C782 0.960 . S
H795 C782 0.962 . S
H796 C782 0.960 . S
H797 C783 0.961 . S
H798 C783 0.961 . S
H799 C783 0.961 . S
H800 C784 0.931 . S
H801 C789 0.930 . S
H802 C790 0.956 . S
H803 C790 0.961 . S
H804 C790 0.961 . S
H805 C791 0.937 1_554 S
H806 C791 0.961 1_545 S
H807 C791 0.960 . S
C808 C809 1.391 . S
C808 C810 1.394 . S
C808 H824 0.931 . S
C809 C808 1.391 . S
C809 C813 1.376 . S
C810 C808 1.394 . S
C810 C811 1.369 . S
C810 C814 1.531 . S
C811 C810 1.369 . S
C811 C812 1.410 . S
C811 C819 1.503 . S
C812 C811 1.410 . S
C812 C813 1.392 . S
C812 C815 1.511 . S
C813 C809 1.376 . S
C813 C812 1.392 . S
C813 H825 0.929 . S
C814 C810 1.531 . S
C814 H826 0.960 . S
C814 H827 0.962 . S
C814 H828 0.960 . S
C815 C812 1.511 . S
C815 H829 0.961 . S
C815 H830 0.961 . S
C815 H831 0.961 . S
C816 C817 1.370 . S
C816 C818 1.363 . S
C816 H832 0.931 . S
C817 C816 1.370 . S
C817 C821 1.408 . S
C818 C816 1.363 . S
C818 C819 1.370 . S
C818 C822 1.524 . S
C819 C811 1.503 . S
C819 C818 1.370 . S
C819 C820 1.403 . S
C820 C819 1.403 . S
C820 C821 1.404 . S
C820 C823 1.539 . S
C821 C817 1.408 . S
C821 C820 1.404 . S
C821 H833 0.930 . S
C822 C818 1.524 . S
C822 H834 0.956 . S
C822 H835 0.961 . S
C822 H836 0.961 . S
C823 C820 1.539 . S
C823 H837 0.958 . S
C823 H838 0.961 . S
C823 H839 0.960 . S
H824 C808 0.931 . S
H825 C813 0.929 . S
H826 C814 0.960 . S
H827 C814 0.962 . S
H828 C814 0.960 . S
H829 C815 0.961 . S
H830 C815 0.961 . S
H831 C815 0.961 . S
H832 C816 0.931 . S
H833 C821 0.930 . S
H834 C822 0.956 . S
H835 C822 0.961 . S
H836 C822 0.961 . S
H837 C823 0.958 . S
H838 C823 0.961 . S
H839 C823 0.960 . S
C840 C841 1.391 . S
C840 C842 1.394 . S
C840 H856 0.931 . S
C841 C840 1.391 . S
C841 C845 1.376 . S
C842 C840 1.394 . S
C842 C843 1.369 . S
C842 C846 1.531 . S
C843 C842 1.369 . S
C843 C844 1.410 . S
C843 C851 1.503 . S
C844 C843 1.410 . S
C844 C845 1.392 . S
C844 C847 1.511 . S
C845 C841 1.376 . S
C845 C844 1.392 . S
C845 H857 0.929 . S
C846 C842 1.531 . S
C846 H858 0.960 . S
C846 H859 0.962 . S
C846 H860 0.960 . S
C847 C844 1.511 . S
C847 H861 0.961 . S
C847 H862 0.961 . S
C847 H863 0.961 . S
C848 C849 1.370 . S
C848 C850 1.363 . S
C848 H864 0.931 . S
C849 C848 1.370 . S
C849 C853 1.408 . S
C850 C848 1.363 . S
C850 C851 1.370 . S
C850 C854 1.524 . S
C851 C843 1.503 . S
C851 C850 1.370 . S
C851 C852 1.403 . S
C852 C851 1.403 . S
C852 C853 1.404 . S
C852 C855 1.539 . S
C853 C849 1.408 . S
C853 C852 1.404 . S
C853 H865 0.930 . S
C854 C850 1.524 . S
C854 H866 0.956 . S
C854 H867 0.961 . S
C854 H868 0.961 . S
C855 C852 1.539 . S
C855 H869 0.958 . S
C855 H870 0.961 . S
C855 H871 0.960 . S
H856 C840 0.931 . S
H857 C845 0.929 . S
H858 C846 0.960 . S
H859 C846 0.962 . S
H860 C846 0.960 . S
H861 C847 0.961 . S
H862 C847 0.961 . S
H863 C847 0.961 . S
H864 C848 0.931 . S
H865 C853 0.930 . S
H866 C854 0.956 . S
H867 C854 0.961 . S
H868 C854 0.961 . S
H869 C855 0.958 . S
H870 C855 0.961 . S
H871 C855 0.960 . S
C872 C873 1.391 . S
C872 C874 1.394 . S
C872 H888 0.931 . S
C873 C872 1.391 . S
C873 C877 1.376 . S
C874 C872 1.394 . S
C874 C875 1.369 . S
C874 C878 1.531 . S
C875 C874 1.369 . S
C875 C876 1.410 . S
C875 C883 1.503 . S
C876 C875 1.410 . S
C876 C877 1.392 . S
C876 C879 1.511 . S
C877 C873 1.376 . S
C877 C876 1.392 . S
C877 H889 0.929 . S
C878 C874 1.531 . S
C878 H890 0.960 . S
C878 H891 0.962 . S
C878 H892 0.960 . S
C879 C876 1.511 . S
C879 H893 0.961 . S
C879 H894 0.961 . S
C879 H895 0.961 . S
C880 C881 1.370 . S
C880 C882 1.363 . S
C880 H896 0.931 . S
C881 C880 1.370 . S
C881 C885 1.408 . S
C882 C880 1.363 . S
C882 C883 1.370 . S
C882 C886 1.524 . S
C883 C875 1.503 . S
C883 C882 1.370 . S
C883 C884 1.403 . S
C884 C883 1.403 . S
C884 C885 1.404 . S
C884 C887 1.539 . S
C885 C881 1.408 . S
C885 C884 1.404 . S
C885 H897 0.930 . S
C886 C882 1.524 . S
C886 H898 0.956 . S
C886 H899 0.961 . S
C886 H900 0.961 . S
C887 C884 1.539 . S
C887 H901 0.958 . S
C887 H902 0.961 . S
C887 H903 0.960 . S
H888 C872 0.931 . S
H889 C877 0.929 . S
H890 C878 0.960 . S
H891 C878 0.962 . S
H892 C878 0.960 . S
H893 C879 0.961 . S
H894 C879 0.961 . S
H895 C879 0.961 . S
H896 C880 0.931 . S
H897 C885 0.930 . S
H898 C886 0.956 . S
H899 C886 0.961 . S
H900 C886 0.961 . S
H901 C887 0.958 . S
H902 C887 0.961 . S
H903 C887 0.960 . S
C904 C905 1.391 . S
C904 C906 1.394 . S
C904 H920 0.931 . S
C905 C904 1.391 . S
C905 C909 1.376 . S
C906 C904 1.394 . S
C906 C907 1.369 . S
C906 C910 1.531 1_556 S
C907 C906 1.369 . S
C907 C908 1.410 . S
C907 C915 1.503 . S
C908 C907 1.410 . S
C908 C909 1.392 . S
C908 C911 1.511 . S
C909 C905 1.376 . S
C909 C908 1.392 . S
C909 H921 0.929 . S
C910 C906 1.531 1_554 S
C910 H922 0.960 . S
C910 H923 0.962 . S
C910 H924 0.960 . S
C911 C908 1.511 . S
C911 H925 0.961 . S
C911 H926 0.961 . S
C911 H927 0.961 . S
C912 C913 1.370 1_455 S
C912 C914 1.363 1_455 S
C912 H928 0.931 1_556 S
C913 C912 1.370 1_655 S
C913 C917 1.408 . S
C914 C912 1.363 1_655 S
C914 C915 1.370 . S
C914 C918 1.524 1_655 S
C915 C907 1.503 . S
C915 C914 1.370 . S
C915 C916 1.403 . S
C916 C915 1.403 . S
C916 C917 1.404 . S
C916 C919 1.539 . S
C917 C913 1.408 . S
C917 C916 1.404 . S
C917 H929 0.930 . S
C918 C914 1.524 1_455 S
C918 H930 0.956 1_556 S
C918 H931 0.961 . S
C918 H932 0.961 1_556 S
C919 C916 1.539 . S
C919 H933 0.958 . S
C919 H934 0.961 . S
C919 H935 0.960 . S
H920 C904 0.931 . S
H921 C909 0.929 . S
H922 C910 0.960 . S
H923 C910 0.962 . S
H924 C910 0.960 . S
H925 C911 0.961 . S
H926 C911 0.961 . S
H927 C911 0.961 . S
H928 C912 0.931 1_554 S
H929 C917 0.930 . S
H930 C918 0.956 1_554 S
H931 C918 0.961 . S
H932 C918 0.961 1_554 S
H933 C919 0.958 . S
H934 C919 0.961 . S
H935 C919 0.960 . S
C936 C937 1.391 . S
C936 C938 1.394 . S
C936 H952 0.931 . S
C937 C936 1.391 . S
C937 C941 1.376 . S
C938 C936 1.394 . S
C938 C939 1.369 . S
C938 C942 1.531 . S
C939 C938 1.369 . S
C939 C940 1.410 . S
C939 C947 1.503 . S
C940 C939 1.410 . S
C940 C941 1.392 . S
C940 C943 1.511 . S
C941 C937 1.376 . S
C941 C940 1.392 . S
C941 H953 0.929 . S
C942 C938 1.531 . S
C942 H954 0.960 . S
C942 H955 0.962 . S
C942 H956 0.960 . S
C943 C940 1.511 . S
C943 H957 0.961 . S
C943 H958 0.961 . S
C943 H959 0.961 . S
C944 C945 1.370 . S
C944 C946 1.363 . S
C944 H960 0.931 . S
C945 C944 1.370 . S
C945 C949 1.408 . S
C946 C944 1.363 . S
C946 C947 1.370 . S
C946 C950 1.524 . S
C947 C939 1.503 . S
C947 C946 1.370 . S
C947 C948 1.403 . S
C948 C947 1.403 . S
C948 C949 1.404 . S
C948 C951 1.539 . S
C949 C945 1.408 . S
C949 C948 1.404 . S
C949 H961 0.930 . S
C950 C946 1.524 . S
C950 H962 0.956 . S
C950 H963 0.961 . S
C950 H964 0.961 . S
C951 C948 1.539 . S
C951 H965 0.958 . S
C951 H966 0.961 . S
C951 H967 0.960 . S
H952 C936 0.931 . S
H953 C941 0.929 . S
H954 C942 0.960 . S
H955 C942 0.962 . S
H956 C942 0.960 . S
H957 C943 0.961 . S
H958 C943 0.961 . S
H959 C943 0.961 . S
H960 C944 0.931 . S
H961 C949 0.930 . S
H962 C950 0.956 . S
H963 C950 0.961 . S
H964 C950 0.961 . S
H965 C951 0.958 . S
H966 C951 0.961 . S
H967 C951 0.960 . S
C968 C969 1.391 . S
C968 C970 1.394 . S
C968 H984 0.931 . S
C969 C968 1.391 . S
C969 C973 1.376 . S
C970 C968 1.394 . S
C970 C971 1.369 . S
C970 C974 1.531 . S
C971 C970 1.369 . S
C971 C972 1.410 . S
C971 C979 1.503 . S
C972 C971 1.410 . S
C972 C973 1.392 . S
C972 C975 1.511 . S
C973 C969 1.376 . S
C973 C972 1.392 . S
C973 H985 0.929 . S
C974 C970 1.531 . S
C974 H986 0.960 . S
C974 H987 0.962 . S
C974 H988 0.960 . S
C975 C972 1.511 . S
C975 H989 0.961 . S
C975 H990 0.961 . S
C975 H991 0.961 . S
C976 C977 1.370 . S
C976 C978 1.363 . S
C976 H992 0.931 . S
C977 C976 1.370 . S
C977 C981 1.408 . S
C978 C976 1.363 . S
C978 C979 1.370 . S
C978 C982 1.524 . S
C979 C971 1.503 . S
C979 C978 1.370 . S
C979 C980 1.403 . S
C980 C979 1.403 . S
C980 C981 1.404 . S
C980 C983 1.539 . S
C981 C977 1.408 . S
C981 C980 1.404 . S
C981 H993 0.930 . S
C982 C978 1.524 . S
C982 H994 0.956 . S
C982 H995 0.961 . S
C982 H996 0.961 . S
C983 C980 1.539 . S
C983 H997 0.958 . S
C983 H998 0.961 . S
C983 H999 0.960 . S
H984 C968 0.931 . S
H985 C973 0.929 . S
H986 C974 0.960 . S
H987 C974 0.962 . S
H988 C974 0.960 . S
H989 C975 0.961 . S
H990 C975 0.961 . S
H991 C975 0.961 . S
H992 C976 0.931 . S
H993 C981 0.930 . S
H994 C982 0.956 . S
H995 C982 0.961 . S
H996 C982 0.961 . S
H997 C983 0.958 . S
H998 C983 0.961 . S
H999 C983 0.960 . S
C1000 C1001 1.391 . S
C1000 C1002 1.394 . S
C1000 H1016 0.931 . S
C1001 C1000 1.391 . S
C1001 C1005 1.376 . S
C1002 C1000 1.394 . S
C1002 C1003 1.369 . S
C1002 C1006 1.531 . S
C1003 C1002 1.369 . S
C1003 C1004 1.410 . S
C1003 C1011 1.503 . S
C1004 C1003 1.410 . S
C1004 C1005 1.392 . S
C1004 C1007 1.511 . S
C1005 C1001 1.376 . S
C1005 C1004 1.392 . S
C1005 H1017 0.929 . S
C1006 C1002 1.531 . S
C1006 H1018 0.960 . S
C1006 H1019 0.962 . S
C1006 H1020 0.960 . S
C1007 C1004 1.511 . S
C1007 H1021 0.961 . S
C1007 H1022 0.961 . S
C1007 H1023 0.961 . S
C1008 C1009 1.370 . S
C1008 C1010 1.363 . S
C1008 H1024 0.931 . S
C1009 C1008 1.370 . S
C1009 C1013 1.408 . S
C1010 C1008 1.363 . S
C1010 C1011 1.370 . S
C1010 C1014 1.524 . S
C1011 C1003 1.503 . S
C1011 C1010 1.370 . S
C1011 C1012 1.403 . S
C1012 C1011 1.403 . S
C1012 C1013 1.404 . S
C1012 C1015 1.539 . S
C1013 C1009 1.408 . S
C1013 C1012 1.404 . S
C1013 H1025 0.930 . S
C1014 C1010 1.524 . S
C1014 H1026 0.956 . S
C1014 H1027 0.961 . S
C1014 H1028 0.961 . S
C1015 C1012 1.539 . S
C1015 H1029 0.958 . S
C1015 H1030 0.961 . S
C1015 H1031 0.960 . S
H1016 C1000 0.931 . S
H1017 C1005 0.929 . S
H1018 C1006 0.960 . S
H1019 C1006 0.962 . S
H1020 C1006 0.960 . S
H1021 C1007 0.961 . S
H1022 C1007 0.961 . S
H1023 C1007 0.961 . S
H1024 C1008 0.931 . S
H1025 C1013 0.930 . S
H1026 C1014 0.956 . S
H1027 C1014 0.961 . S
H1028 C1014 0.961 . S
H1029 C1015 0.958 . S
H1030 C1015 0.961 . S
H1031 C1015 0.960 . S
C265 C9 3.317 . S
C273 C123 3.283 . S
C297 C21 2.048 . S
C305 C154 2.089 . S
C337 C193 0.921 . S
C329 C30 0.951 . S
C361 C43 0.480 . S
C369 C230 0.468 . S
C401 C153 2.703 . S
C393 C4 2.755 . S
C433 C110 1.785 . S
C425 C22 1.797 . S
C465 C242 0.995 . S
C457 C34 1.034 . S
C497 C199 0.880 . S
C489 C48 0.898 . S
C521 C8 2.328 . S
C529 C243 2.324 . S
C561 C159 1.449 . S
C553 C35 1.459 . S
C585 C47 0.458 . S
C593 C122 0.548 . S
C617 C17 1.999 . S
C625 C194 2.132 . S
C657 C114 2.804 1_655 S
C649 C60 2.814 . S
C681 C74 2.374 . S
C689 C163 2.459 . S
C713 C82 0.806 . S
C721 C202 0.795 . S
C745 C100 0.734 . S
C753 C239 0.751 . S
C777 C61 3.225 . S
C785 C162 3.158 . S
C817 C119 1.391 . S
C809 C73 1.378 . S
C849 C233 1.501 . S
C841 C87 1.536 . S
C881 C190 0.760 . S
C873 C95 0.742 . S
C905 C56 2.416 . S
C913 C234 2.487 1_656 S
C945 C150 1.420 . S
C937 C86 1.433 . S
C977 C113 0.532 . S
C969 C99 0.431 . S
C1001 C69 2.079 . S
C1009 C203 2.189 . S
