# Generated by pormake.
# Topology pyr, (3,6)-cn, num edge types: 1
# Building blocks:
#     Node 0, Type 0, BuildingBlock: CUQRIR_clean_linker_1, # of connection points: 3
#     Node 1, Type 0, BuildingBlock: CUQRIR_clean_linker_1, # of connection points: 3
#     Node 2, Type 0, BuildingBlock: CUQRIR_clean_linker_1, # of connection points: 3
#     Node 3, Type 0, BuildingBlock: CUQRIR_clean_linker_1, # of connection points: 3
#     Node 4, Type 0, BuildingBlock: CUQRIR_clean_linker_1, # of connection points: 3
#     Node 5, Type 0, BuildingBlock: CUQRIR_clean_linker_1, # of connection points: 3
#     Node 6, Type 0, BuildingBlock: CUQRIR_clean_linker_1, # of connection points: 3
#     Node 7, Type 0, BuildingBlock: CUQRIR_clean_linker_1, # of connection points: 3
#     Node 8, Type 1, BuildingBlock: BETFEN_clean_sbu_0, # of connection points: 6
#     Node 9, Type 1, BuildingBlock: BETFEN_clean_sbu_0, # of connection points: 6
#     Node 10, Type 1, BuildingBlock: BETFEN_clean_sbu_0, # of connection points: 6
#     Node 11, Type 1, BuildingBlock: BETFEN_clean_sbu_0, # of connection points: 6
#     Edge 12, Type (0, 1), BuildingBlock: KIFKEQ_clean_linker_1, # of connection points: 2
#     Edge 13, Type (0, 1), BuildingBlock: KIFKEQ_clean_linker_1, # of connection points: 2
#     Edge 14, Type (0, 1), BuildingBlock: KIFKEQ_clean_linker_1, # of connection points: 2
#     Edge 15, Type (0, 1), BuildingBlock: KIFKEQ_clean_linker_1, # of connection points: 2
#     Edge 16, Type (0, 1), BuildingBlock: KIFKEQ_clean_linker_1, # of connection points: 2
#     Edge 17, Type (0, 1), BuildingBlock: KIFKEQ_clean_linker_1, # of connection points: 2
#     Edge 18, Type (0, 1), BuildingBlock: KIFKEQ_clean_linker_1, # of connection points: 2
#     Edge 19, Type (0, 1), BuildingBlock: KIFKEQ_clean_linker_1, # of connection points: 2
#     Edge 20, Type (0, 1), BuildingBlock: KIFKEQ_clean_linker_1, # of connection points: 2
#     Edge 21, Type (0, 1), BuildingBlock: KIFKEQ_clean_linker_1, # of connection points: 2
#     Edge 22, Type (0, 1), BuildingBlock: KIFKEQ_clean_linker_1, # of connection points: 2
#     Edge 23, Type (0, 1), BuildingBlock: KIFKEQ_clean_linker_1, # of connection points: 2
#     Edge 24, Type (0, 1), BuildingBlock: KIFKEQ_clean_linker_1, # of connection points: 2
#     Edge 25, Type (0, 1), BuildingBlock: KIFKEQ_clean_linker_1, # of connection points: 2
#     Edge 26, Type (0, 1), BuildingBlock: KIFKEQ_clean_linker_1, # of connection points: 2
#     Edge 27, Type (0, 1), BuildingBlock: KIFKEQ_clean_linker_1, # of connection points: 2
#     Edge 28, Type (0, 1), BuildingBlock: KIFKEQ_clean_linker_1, # of connection points: 2
#     Edge 29, Type (0, 1), BuildingBlock: KIFKEQ_clean_linker_1, # of connection points: 2
#     Edge 30, Type (0, 1), BuildingBlock: KIFKEQ_clean_linker_1, # of connection points: 2
#     Edge 31, Type (0, 1), BuildingBlock: KIFKEQ_clean_linker_1, # of connection points: 2
#     Edge 32, Type (0, 1), BuildingBlock: KIFKEQ_clean_linker_1, # of connection points: 2
#     Edge 33, Type (0, 1), BuildingBlock: KIFKEQ_clean_linker_1, # of connection points: 2
#     Edge 34, Type (0, 1), BuildingBlock: KIFKEQ_clean_linker_1, # of connection points: 2
#     Edge 35, Type (0, 1), BuildingBlock: KIFKEQ_clean_linker_1, # of connection points: 2
# Relax obj value: 0.208
# Max RMSD: 0.326
# Mean RMSD: 0.170
data_MOF--net-pyr--node1-BETFEN_clean_sbu_0--node2-CUQRIR_clean_linker_1--edge1-KIFKEQ_clean_linker_1
_symmetry_space_group_name_H-M    P1
_symmetry_Int_Tables_number       1
_symmetry_cell_setting            triclinic
loop_
_symmetry_equiv_pos_as_xyz
'x, y, z'
_cell_length_a     34.964197
_cell_length_b     38.698782
_cell_length_c     35.211556
_cell_angle_alpha  90.18091
_cell_angle_beta   101.56077
_cell_angle_gamma 114.03396
loop_
_atom_site_label
_atom_site_type_symbol
_atom_site_fract_x
_atom_site_fract_y
_atom_site_fract_z
_atom_type_partial_charge
C0 C 0.42157 0.42986 0.304 0.0
N1 N 0.42989 0.39863 0.30797 0.0
N2 N 0.43519 0.44776 0.27303 0.0
C3 C 0.39338 0.4393 0.32566 0.0
C4 C 0.45209 0.42614 0.25842 0.0
N5 N 0.44854 0.39611 0.27932 0.0
C6 C 0.47087 0.43394 0.22286 0.0
H7 H 0.36621 0.44123 0.30464 0.0
H8 H 0.41238 0.46754 0.34241 0.0
H9 H 0.38009 0.41813 0.34595 0.0
H10 H 0.48403 0.46482 0.21929 0.0
H11 H 0.44547 0.41882 0.19661 0.0
H12 H 0.49655 0.42369 0.22501 0.0
C13 C 0.30918 0.88625 0.68253 0.0
N14 N 0.303 0.90897 0.708 0.0
N15 N 0.32911 0.86575 0.70179 0.0
C16 C 0.29321 0.88197 0.63908 0.0
C17 C 0.33479 0.87669 0.73979 0.0
N18 N 0.31818 0.90226 0.74364 0.0
C19 C 0.36087 0.86561 0.77302 0.0
H20 H 0.26295 0.88586 0.63131 0.0
H21 H 0.28765 0.85359 0.62641 0.0
H22 H 0.31774 0.90392 0.62612 0.0
H23 H 0.38439 0.85734 0.76311 0.0
H24 H 0.33885 0.84111 0.78555 0.0
H25 H 0.37865 0.8893 0.79639 0.0
C26 C 0.5938 0.33513 0.84443 0.0
N27 N 0.6213 0.32927 0.87452 0.0
N28 N 0.61459 0.36716 0.82764 0.0
C29 C 0.54692 0.30963 0.83111 0.0
C30 C 0.65562 0.38037 0.8483 0.0
N31 N 0.65981 0.35741 0.87633 0.0
C32 C 0.6919 0.41618 0.84154 0.0
H33 H 0.5409 0.27964 0.83556 0.0
H34 H 0.53509 0.31191 0.79997 0.0
H35 H 0.52861 0.31843 0.84844 0.0
H36 H 0.71129 0.43282 0.86976 0.0
H37 H 0.68061 0.43439 0.82254 0.0
H38 H 0.71319 0.40837 0.82729 0.0
C39 C 0.85735 0.66876 0.34312 0.0
N40 N 0.89096 0.69807 0.33268 0.0
N41 N 0.84362 0.68024 0.37252 0.0
C42 C 0.83889 0.62836 0.3255 0.0
C43 C 0.86963 0.71784 0.37936 0.0
N44 N 0.89848 0.72905 0.35595 0.0
C45 C 0.86635 0.74418 0.40914 0.0
H46 H 0.8226 0.60827 0.34554 0.0
H47 H 0.86442 0.62119 0.31826 0.0
H48 H 0.81502 0.62504 0.29814 0.0
H49 H 0.89011 0.74736 0.43654 0.0
H50 H 0.83383 0.73302 0.41539 0.0
H51 H 0.8733 0.77278 0.39923 0.0
C52 C 0.59941 0.7019 0.77865 0.0
N53 N 0.63246 0.69954 0.76603 0.0
N54 N 0.59318 0.73288 0.76685 0.0
C55 C 0.57456 0.67516 0.80475 0.0
C56 C 0.62226 0.74809 0.74446 0.0
N57 N 0.64597 0.72787 0.74387 0.0
C58 C 0.6337 0.78708 0.73045 0.0
H59 H 0.54128 0.67313 0.79913 0.0
H60 H 0.58977 0.68589 0.83571 0.0
H61 H 0.57391 0.64656 0.79988 0.0
H62 H 0.65371 0.80878 0.7553 0.0
H63 H 0.60433 0.7916 0.71913 0.0
H64 H 0.65189 0.79134 0.70718 0.0
C65 C 0.7972 0.24736 0.46082 0.0
N66 N 0.79894 0.22212 0.43495 0.0
N67 N 0.76835 0.26122 0.4445 0.0
C68 C 0.82187 0.25701 0.50239 0.0
C69 C 0.75232 0.24329 0.40815 0.0
N70 N 0.77067 0.21958 0.40239 0.0
C71 C 0.71641 0.24693 0.37916 0.0
H72 H 0.82534 0.23173 0.51447 0.0
H73 H 0.80598 0.26789 0.52063 0.0
H74 H 0.85445 0.27946 0.50346 0.0
H75 H 0.71848 0.27624 0.38145 0.0
H76 H 0.6853 0.22741 0.38546 0.0
H77 H 0.71691 0.23932 0.34892 0.0
C78 C 0.40418 0.7098 0.26216 0.0
N79 N 0.44645 0.73193 0.27705 0.0
N80 N 0.39494 0.70671 0.22294 0.0
C81 C 0.3722 0.68947 0.28639 0.0
C82 C 0.43276 0.72843 0.21414 0.0
N83 N 0.46371 0.74619 0.24667 0.0
C84 C 0.43877 0.73528 0.17316 0.0
H85 H 0.3701 0.6602 0.28891 0.0
H86 H 0.33987 0.68754 0.27256 0.0
H87 H 0.38226 0.70434 0.31605 0.0
H88 H 0.43606 0.76209 0.16541 0.0
H89 H 0.41424 0.71159 0.15198 0.0
H90 H 0.47117 0.73821 0.17105 0.0
C91 C 0.14853 0.39022 0.76575 0.0
N92 N 0.17136 0.387 0.73943 0.0
N93 N 0.16612 0.42579 0.78513 0.0
C94 C 0.11017 0.35772 0.77424 0.0
C95 C 0.20093 0.44413 0.76904 0.0
N96 N 0.20457 0.42087 0.74151 0.0
C97 C 0.22893 0.48598 0.77768 0.0
H98 H 0.08076 0.35654 0.75412 0.0
H99 H 0.1072 0.36157 0.80459 0.0
H100 H 0.11242 0.33028 0.7697 0.0
H101 H 0.25709 0.49032 0.80142 0.0
H102 H 0.21122 0.50122 0.78743 0.0
H103 H 0.24052 0.49843 0.75164 0.0
Pr104 Pr 1.02624 0.04435 0.56383 0.0
Pr105 Pr 0.07908 0.07284 0.52137 0.0
C106 C 0.97804 1.00505 0.61355 0.0
C107 C 0.95448 0.96715 0.62583 0.0
C108 C 0.96478 0.96059 0.66492 0.0
C109 C 0.9388 0.92741 0.67894 0.0
C110 C 0.90174 0.9002 0.65416 0.0
C111 C 0.89289 0.90579 0.61446 0.0
C112 C 0.91899 0.93898 0.60042 0.0
C113 C 0.0679 0.12452 0.58778 0.0
C114 C 0.11584 0.0378 0.59094 0.0
C115 C 0.13089 0.11156 0.47392 0.0
C116 C 0.1707 0.14425 0.47057 0.0
C117 C 0.20825 0.13894 0.4711 0.0
C118 C 0.24403 0.16775 0.46172 0.0
C119 C 0.24297 0.20243 0.4514 0.0
C120 C 0.20615 0.20841 0.45266 0.0
C121 C 0.1703 0.17956 0.462 0.0
C122 C 0.03645 0.99327 0.49557 0.0
C123 C 0.98684 0.08016 0.49632 0.0
O124 O 0.9622 1.01343 0.57996 0.0
O125 O 1.01986 0.01946 0.62192 0.0
O126 O 0.08751 0.10438 0.58129 0.0
O127 O 1.0271 0.10379 0.57991 0.0
O128 O 0.12875 0.07029 0.57561 0.0
O129 O 0.07449 1.01648 0.58301 0.0
O130 O 0.13461 0.0837 0.49253 0.0
O131 O 0.09812 0.11767 0.4789 0.0
O132 O 1.01742 1.01378 0.50266 0.0
O133 O 0.07736 1.01323 0.50457 0.0
O134 O 0.97407 0.05035 0.51569 0.0
O135 O 1.02809 0.09776 0.49725 0.0
H136 H 0.99198 0.98189 0.68507 0.0
H137 H 0.94691 0.92367 0.70952 0.0
H138 H 0.86444 0.88559 0.59464 0.0
H139 H 0.91025 0.94323 0.57007 0.0
H140 H 0.20947 0.11195 0.47725 0.0
H141 H 0.27211 0.16246 0.46143 0.0
H142 H 0.20414 0.23466 0.4444 0.0
H143 H 0.14171 0.1844 0.4609 0.0
Pr144 Pr 0.51509 0.04834 0.09138 0.0
Pr145 Pr 0.57919 0.04284 0.06171 0.0
C146 C 0.46508 0.0574 0.13651 0.0
C147 C 0.4653 0.09075 0.15667 0.0
C148 C 0.49866 0.1267 0.15713 0.0
C149 C 0.49812 0.1588 0.17484 0.0
C150 C 0.46412 0.15552 0.19232 0.0
C151 C 0.43107 0.11924 0.19227 0.0
C152 C 0.43169 0.08711 0.17455 0.0
C153 C 0.54516 0.10736 0.04273 0.0
C154 C 0.61473 0.08818 0.14331 0.0
C155 C 0.62625 0.03345 1.01403 0.0
C156 C 0.61447 1.00156 0.98501 0.0
C157 C 0.57623 0.96906 0.9832 0.0
C158 C 0.56432 0.93825 0.956 0.0
C159 C 0.59041 0.9394 0.93003 0.0
C160 C 0.62825 0.97242 0.93129 0.0
C161 C 0.64023 1.00333 0.95869 0.0
C162 C 0.5519 0.98553 0.11251 0.0
C163 C 0.4797 1.00228 1.00908 0.0
O164 O 0.49753 0.04906 0.14984 0.0
O165 O 0.45553 0.05525 0.09862 0.0
O166 O 0.56934 0.09788 0.06825 0.0
O167 O 0.50531 0.08627 0.04193 0.0
O168 O 0.62635 0.09042 0.10996 0.0
O169 O 0.57433 0.06835 0.1445 0.0
O170 O 0.60395 0.05357 1.00623 0.0
O171 O 0.63066 0.02548 0.05018 0.0
O172 O 0.52627 0.9936 0.08677 0.0
O173 O 0.59141 1.00723 0.11229 0.0
O174 O 0.4676 1.00139 0.04212 0.0
O175 O 0.5204 0.02095 1.00865 0.0
H176 H 0.52479 0.12998 0.14324 0.0
H177 H 0.52372 0.18633 0.17384 0.0
H178 H 0.40467 0.1157 0.20582 0.0
H179 H 0.40573 0.05951 0.17447 0.0
H180 H 0.55572 0.96743 1.00311 0.0
H181 H 0.53479 0.91341 0.95541 0.0
H182 H 0.64918 0.97391 0.91186 0.0
H183 H 0.66967 0.02836 0.95958 0.0
Pr184 Pr 0.54027 0.58214 0.57655 0.0
Pr185 Pr 0.50382 0.50894 0.52666 0.0
C186 C 0.55326 0.65038 0.6092 0.0
C187 C 0.52665 0.6689 0.61902 0.0
C188 C 0.54367 0.69779 0.64968 0.0
C189 C 0.5197 0.7173 0.65757 0.0
C190 C 0.47835 0.70836 0.63481 0.0
C191 C 0.46115 0.67901 0.60442 0.0
C192 C 0.48498 0.6593 0.59673 0.0
C193 C 0.56397 0.5276 0.61384 0.0
C194 C 0.44012 0.51688 0.58125 0.0
C195 C 0.49578 0.44184 0.49519 0.0
C196 C 0.52707 0.42584 0.49241 0.0
C197 C 0.51579 0.39451 0.46577 0.0
C198 C 0.54483 0.3784 0.46409 0.0
C199 C 0.58586 0.39326 0.48922 0.0
C200 C 0.59719 0.42507 0.51561 0.0
C201 C 0.56813 0.44119 0.51715 0.0
C202 C 0.48379 0.56528 0.48789 0.0
C203 C 0.60412 0.57265 0.52353 0.0
O204 O 0.54939 0.64293 0.5721 0.0
O205 O 0.55578 0.62307 0.62982 0.0
O206 O 0.52733 0.5215 0.59327 0.0
O207 O 0.59001 0.56343 0.61596 0.0
O208 O 0.4455 0.49292 0.55812 0.0
O209 O 0.46897 0.55284 0.58839 0.0
O210 O 0.49104 0.44702 0.53028 0.0
O211 O 0.49722 0.47019 0.47463 0.0
O212 O 0.51921 0.57007 0.50993 0.0
O213 O 0.45691 0.52952 0.48449 0.0
O214 O 0.59784 0.59754 0.54446 0.0
O215 O 0.57595 0.5366 0.51791 0.0
H216 H 0.5758 0.7057 0.66704 0.0
H217 H 0.53397 0.74011 0.68073 0.0
H218 H 0.42923 0.67128 0.58665 0.0
H219 H 0.4711 0.63694 0.57298 0.0
H220 H 0.48441 0.38228 0.44644 0.0
H221 H 0.53515 0.35439 0.44291 0.0
H222 H 0.6282 0.43707 0.53572 0.0
H223 H 0.57753 0.46535 0.53809 0.0
Pr224 Pr 1.00896 0.58215 0.02523 0.0
Pr225 Pr 0.03299 0.53642 0.08576 0.0
C226 C 0.97314 0.61526 0.97051 0.0
C227 C 0.93445 0.62103 0.95378 0.0
C228 C 0.93867 0.65256 0.93279 0.0
C229 C 0.90231 0.65614 0.91183 0.0
C230 C 0.86098 0.62813 0.91141 0.0
C231 C 0.85682 0.59718 0.93371 0.0
C232 C 0.89331 0.59362 0.9547 0.0
C233 C 0.09582 0.61398 0.06265 0.0
C234 C 0.99124 0.59266 0.11624 0.0
C235 C 0.07448 0.50495 0.13709 0.0
C236 C 0.11914 0.50959 0.14783 0.0
C237 C 0.13337 0.49629 0.18227 0.0
C238 C 0.17639 0.50235 0.19376 0.0
C239 C 0.20601 0.52206 0.17107 0.0
C240 C 0.19146 0.53543 0.13649 0.0
C241 C 0.14836 0.52924 0.12498 0.0
C242 C 0.94593 0.50244 0.04897 0.0
C243 C 0.05568 0.53011 0.99596 0.0
O244 O 0.9703 0.58078 0.9656 0.0
O245 O 0.99641 0.63308 1.0044 0.0
O246 O 0.06463 0.59907 0.07848 0.0
O247 O 0.08298 0.6152 0.02569 0.0
O248 O 1.01555 0.57405 0.12748 0.0
O249 O 0.97963 0.59539 0.07815 0.0
O250 O 0.0684 0.53468 0.14637 0.0
O251 O 0.05292 0.48865 0.10225 0.0
O252 O 0.97643 0.51827 0.03216 0.0
O253 O 0.96007 0.5017 0.08578 0.0
O254 O 1.02978 0.54703 0.98406 0.0
O255 O 0.0662 0.52707 0.03404 0.0
H256 H 0.97019 0.6739 0.93166 0.0
H257 H 0.90659 0.68072 0.89566 0.0
H258 H 0.82545 0.57509 0.93389 0.0
H259 H 0.88943 0.56892 0.9706 0.0
H260 H 0.11122 0.48127 0.20032 0.0
H261 H 0.18623 0.49092 0.2201 0.0
H262 H 0.21342 0.55098 0.11852 0.0
H263 H 0.13791 0.5401 0.09845 0.0
H264 H 0.36913 0.32868 0.28152 0.0
H265 H 0.44605 0.40152 0.38611 0.0
H266 H 0.33021 0.27975 0.32025 0.0
H267 H 0.40631 0.35285 0.42547 0.0
H268 H 0.2799 0.27995 0.46689 0.0
H269 H 0.33142 0.32644 0.43459 0.0
H270 H 0.33746 0.23528 0.36851 0.0
H271 H 0.28519 0.18889 0.3999 0.0
C272 C 0.37841 0.3336 0.31296 0.0
C273 C 0.41084 0.36834 0.3311 0.0
C274 C 0.35612 0.30576 0.33516 0.0
C275 C 0.3654 0.31244 0.37595 0.0
C276 C 0.39857 0.34698 0.39412 0.0
C277 C 0.42136 0.37461 0.37183 0.0
C278 C 0.29252 0.2699 0.44569 0.0
C279 C 0.27829 0.23078 0.4358 0.0
C280 C 0.32232 0.29649 0.42748 0.0
C281 C 0.33828 0.28446 0.39887 0.0
C282 C 0.3254 0.24537 0.39017 0.0
C283 C 0.29578 0.21882 0.40847 0.0
H284 H 0.28492 0.87446 0.80512 0.0
H285 H 0.36852 0.97625 0.76412 0.0
H286 H 0.31822 0.90185 0.87263 0.0
H287 H 0.40175 1.00427 0.83145 0.0
H288 H 0.49819 0.99861 0.93847 0.0
H289 H 0.44977 0.98052 0.87512 0.0
H290 H 0.34163 0.95342 0.92891 0.0
H291 H 0.39085 0.97219 0.9935 0.0
C292 C 0.30886 0.90356 0.81073 0.0
C293 C 0.32444 0.92334 0.77977 0.0
C294 C 0.32812 0.91917 0.84929 0.0
C295 C 0.36332 0.95482 0.85734 0.0
C296 C 0.37519 0.97641 0.8261 0.0
C297 C 0.35583 0.96075 0.78759 0.0
C298 C 0.46414 0.9889 0.93713 0.0
C299 C 0.44848 0.98707 0.97123 0.0
C300 C 0.43636 0.97892 0.9006 0.0
C301 C 0.39195 0.96651 0.89689 0.0
C302 C 0.37581 0.96334 0.93091 0.0
C303 C 0.4039 0.9738 0.96782 0.0
H304 H 0.58975 0.34385 0.75052 0.0
H305 H 0.60498 0.43232 0.83412 0.0
H306 H 0.57558 0.38093 0.69703 0.0
H307 H 0.59175 0.46988 0.78117 0.0
H308 H 0.62675 0.54522 0.68072 0.0
H309 H 0.63401 0.50402 0.73161 0.0
H310 H 0.52354 0.40958 0.66484 0.0
H311 H 0.51579 0.45111 0.61409 0.0
C312 C 0.58893 0.37081 0.75732 0.0
C313 C 0.59806 0.38511 0.79639 0.0
C314 C 0.58114 0.39221 0.72679 0.0
C315 C 0.5831 0.42873 0.7347 0.0
C316 C 0.59058 0.44219 0.7739 0.0
C317 C 0.59761 0.42055 0.80425 0.0
C318 C 0.60414 0.51562 0.67668 0.0
C319 C 0.57066 0.50156 0.6432 0.0
C320 C 0.60809 0.49201 0.70607 0.0
C321 C 0.57914 0.45344 0.70261 0.0
C322 C 0.54645 0.43906 0.66853 0.0
C323 C 0.54201 0.46289 0.63942 0.0
H324 H 0.85723 0.68613 0.2546 0.0
H325 H 0.96883 0.6943 0.33833 0.0
H326 H 0.88098 0.66248 0.20342 0.0
H327 H 0.99373 0.67125 0.28721 0.0
H328 H 1.01054 0.59347 0.19718 0.0
H329 H 0.99004 0.62204 0.247 0.0
H330 H 0.92063 0.66389 0.15763 0.0
H331 H 0.9407 0.63448 0.10773 0.0
C332 C 0.88793 0.68437 0.26192 0.0
C333 C 0.9116 0.69396 0.30099 0.0
C334 C 0.9017 0.67024 0.23221 0.0
C335 C 0.93983 0.66415 0.2398 0.0
C336 C 0.964 0.67459 0.27898 0.0
C337 C 0.95017 0.68887 0.3087 0.0
C338 C 0.99082 0.60868 0.18777 0.0
C339 C 0.97757 0.61096 0.1474 0.0
C340 C 0.97911 0.62569 0.21694 0.0
C341 C 0.95325 0.64617 0.20775 0.0
C342 C 0.93997 0.64841 0.1672 0.0
C343 C 0.95181 0.63141 0.13798 0.0
H344 H 0.41233 0.35347 0.21061 0.0
H345 H 0.49415 0.36265 0.32279 0.0
H346 H 0.41724 0.29505 0.19162 0.0
H347 H 0.49828 0.30308 0.30448 0.0
H348 H 0.52993 0.21769 0.23647 0.0
H349 H 0.52748 0.27645 0.25886 0.0
H350 H 0.39132 0.2297 0.20862 0.0
H351 H 0.394 0.17166 0.18516 0.0
C352 C 0.43208 0.34322 0.23088 0.0
C353 C 0.45381 0.36287 0.26772 0.0
C354 C 0.43426 0.30941 0.22037 0.0
C355 C 0.45801 0.29432 0.2466 0.0
C356 C 0.48006 0.31418 0.2835 0.0
C357 C 0.47773 0.3481 0.29403 0.0
C358 C 0.4995 0.22002 0.23018 0.0
C359 C 0.46221 0.19006 0.20882 0.0
C360 C 0.49804 0.25353 0.24334 0.0
C361 C 0.45929 0.25785 0.23524 0.0
C362 C 0.42181 0.22748 0.21483 0.0
C363 C 0.42325 0.19401 0.20179 0.0
H364 H 0.23794 0.91144 0.73651 0.0
H365 H 0.32031 0.96308 0.65774 0.0
H366 H 0.19572 0.94763 0.71381 0.0
H367 H 0.27727 0.99796 0.63339 0.0
H368 H 0.20431 0.07224 0.60941 0.0
H369 H 0.25334 0.04622 0.64372 0.0
H370 H 0.14465 0.94445 0.65666 0.0
H371 H 0.09618 0.97076 0.62362 0.0
C372 C 0.24727 0.93097 0.71467 0.0
C373 C 0.28191 0.9341 0.69845 0.0
C374 C 0.22283 0.95137 0.70123 0.0
C375 C 0.23248 0.97536 0.67116 0.0
C376 C 0.26879 0.97999 0.6566 0.0
C377 C 0.29326 0.95972 0.67021 0.0
C378 C 0.191 0.0445 0.61998 0.0
C379 C 0.14629 0.02359 0.61363 0.0
C380 C 0.21909 0.02944 0.63949 0.0
C381 C 0.20313 0.99311 0.6531 0.0
C382 C 0.15836 0.97272 0.64734 0.0
C383 C 0.13042 0.98775 0.62799 0.0
H384 H 0.67113 0.37 0.95407 0.0
H385 H 0.73553 0.36408 0.86388 0.0
H386 H 0.74023 0.39849 1.00094 0.0
H387 H 0.8046 0.3954 0.90872 0.0
H388 H 0.92778 0.44469 0.99529 0.0
H389 H 0.85753 0.39978 0.95936 0.0
H390 H 0.79776 0.45639 1.01748 0.0
H391 H 0.86837 0.49892 0.05577 0.0
C392 C 0.70021 0.3742 0.94463 0.0
C393 C 0.69841 0.36538 0.9055 0.0
C394 C 0.73994 0.39125 0.97114 0.0
C395 C 0.77865 0.4004 0.95877 0.0
C396 C 0.77607 0.38882 0.91998 0.0
C397 C 0.73642 0.37107 0.89394 0.0
C398 C 0.89939 0.4471 1.00047 0.0
C399 C 0.90317 0.47526 0.02787 0.0
C400 C 0.85899 0.42154 0.97969 0.0
C401 C 0.82136 0.42442 0.98477 0.0
C402 C 0.82552 0.45251 1.01295 0.0
C403 C 0.866 0.4773 0.03467 0.0
H404 H 0.85263 0.6772 0.45075 0.0
H405 H 0.75845 0.63492 0.34285 0.0
H406 H 0.79611 0.65059 0.48732 0.0
H407 H 0.70154 0.60688 0.37948 0.0
H408 H 0.61524 0.53505 0.46259 0.0
H409 H 0.67212 0.55771 0.42592 0.0
H410 H 0.73461 0.66285 0.50024 0.0
H411 H 0.67727 0.64053 0.53644 0.0
C412 C 0.8198 0.66177 0.43475 0.0
C413 C 0.81039 0.65864 0.39365 0.0
C414 C 0.78717 0.6466 0.45582 0.0
C415 C 0.74368 0.62677 0.43672 0.0
C416 C 0.73443 0.62183 0.39552 0.0
C417 C 0.76717 0.63774 0.37435 0.0
C418 C 0.64121 0.56295 0.47144 0.0
C419 C 0.64127 0.5857 0.50298 0.0
C420 C 0.67386 0.57613 0.45003 0.0
C421 C 0.70847 0.61231 0.45974 0.0
C422 C 0.70896 0.63474 0.49178 0.0
C423 C 0.67584 0.62189 0.51268 0.0
H424 H 0.44556 0.51811 0.2968 0.0
H425 H 0.38237 0.42918 0.2025 0.0
H426 H 0.4004 0.55019 0.26786 0.0
H427 H 0.33756 0.4604 0.17358 0.0
H428 H 0.25676 0.51559 0.12391 0.0
H429 H 0.32546 0.5115 0.14391 0.0
H430 H 0.32518 0.53267 0.26442 0.0
H431 H 0.25779 0.53889 0.24428 0.0
C432 C 0.42305 0.50627 0.26917 0.0
C433 C 0.41755 0.47147 0.25163 0.0
C434 C 0.39704 0.52435 0.25273 0.0
C435 C 0.36508 0.50776 0.21849 0.0
C436 C 0.36222 0.47448 0.19951 0.0
C437 C 0.38805 0.45652 0.21598 0.0
C438 C 0.27202 0.52064 0.15459 0.0
C439 C 0.25119 0.52653 0.18259 0.0
C440 C 0.3113 0.518 0.16608 0.0
C441 C 0.33041 0.52087 0.2058 0.0
C442 C 0.31151 0.53029 0.23356 0.0
C443 C 0.27241 0.5332 0.22206 0.0
H444 H 0.55795 0.30464 0.91483 0.0
H445 H 0.66386 0.2843 0.89215 0.0
H446 H 0.54166 0.25257 0.95668 0.0
H447 H 0.64797 0.23209 0.93418 0.0
H448 H 0.62739 0.15918 0.03953 0.0
H449 H 0.64731 0.21368 1.00023 0.0
H450 H 0.51304 0.18503 0.9532 0.0
H451 H 0.49356 0.1316 0.99244 0.0
C452 C 0.57749 0.28873 0.91849 0.0
C453 C 0.61185 0.29839 0.8997 0.0
C454 C 0.56827 0.25879 0.94261 0.0
C455 C 0.59322 0.23753 0.9489 0.0
C456 C 0.62817 0.24778 0.93058 0.0
C457 C 0.63728 0.27771 0.90633 0.0
C458 C 0.60224 0.16471 1.02088 0.0
C459 C 0.55885 0.14099 1.01946 0.0
C460 C 0.6136 0.19587 0.9981 0.0
C461 C 0.58187 0.20429 0.97345 0.0
C462 C 0.53858 0.18029 0.97217 0.0
C463 C 0.52733 0.14928 0.99466 0.0
H464 H 0.89174 0.7895 0.32129 0.0
H465 H 0.97517 0.75823 0.4067 0.0
H466 H 0.92502 0.85445 0.35347 0.0
H467 H 1.00865 0.82262 0.43912 0.0
H468 H 0.07731 0.94869 0.48352 0.0
H469 H 0.05099 0.88874 0.44374 0.0
H470 H 0.92537 0.88892 0.41201 0.0
H471 H 0.95234 0.94989 0.45211 0.0
C472 C 0.91912 0.79702 0.3455 0.0
C473 C 0.93127 0.76817 0.36038 0.0
C474 C 0.93738 0.83422 0.36501 0.0
C475 C 0.96931 0.84451 0.39995 0.0
C476 C 0.98441 0.81671 0.41251 0.0
C477 C 0.9658 0.77953 0.39321 0.0
C478 C 0.04392 0.93612 0.46824 0.0
C479 C 1.01722 0.95477 0.4716 0.0
C480 C 1.02861 0.90121 0.44523 0.0
C481 C 0.9857 0.88302 0.42398 0.0
C482 C 0.95876 0.90169 0.4272 0.0
C483 C 0.97413 0.93675 0.45068 0.0
H484 H 0.37955 0.88007 0.64963 0.0
H485 H 0.31345 0.79448 0.71994 0.0
H486 H 0.41328 0.8401 0.63063 0.0
H487 H 0.34753 0.75467 0.70173 0.0
H488 H 0.46364 0.72486 0.70444 0.0
H489 H 0.42402 0.76149 0.71724 0.0
H490 H 0.39679 0.77676 0.59488 0.0
H491 H 0.43694 0.74042 0.58221 0.0
C492 C 0.37161 0.85232 0.66028 0.0
C493 C 0.34411 0.84027 0.68628 0.0
C494 C 0.39097 0.82953 0.64961 0.0
C495 C 0.38344 0.79444 0.66509 0.0
C496 C 0.35451 0.78182 0.68985 0.0
C497 C 0.33486 0.8044 0.70011 0.0
C498 C 0.4494 0.73624 0.68036 0.0
C499 C 0.45352 0.72995 0.64239 0.0
C500 C 0.42632 0.75685 0.68758 0.0
C501 C 0.40714 0.77188 0.65701 0.0
C502 C 0.41136 0.76566 0.61902 0.0
C503 C 0.43406 0.74467 0.61174 0.0
H504 H 0.72435 0.76013 0.79117 0.0
H505 H 0.65801 0.72887 0.67095 0.0
H506 H 0.79218 0.79502 0.77152 0.0
H507 H 0.72517 0.76516 0.65063 0.0
H508 H 0.85531 0.8258 0.62314 0.0
H509 H 0.79727 0.77633 0.64664 0.0
H510 H 0.8179 0.85435 0.74453 0.0
H511 H 0.87553 0.90315 0.72139 0.0
C512 C 0.72476 0.76002 0.76051 0.0
C513 C 0.68647 0.74192 0.73243 0.0
C514 C 0.76331 0.78033 0.74916 0.0
C515 C 0.76408 0.78345 0.70946 0.0
C516 C 0.72596 0.76314 0.68141 0.0
C517 C 0.68749 0.74249 0.69288 0.0
C518 C 0.84765 0.83213 0.6499 0.0
C519 C 0.87008 0.86844 0.67037 0.0
C520 C 0.81441 0.80382 0.66336 0.0
C521 C 0.80284 0.81128 0.6975 0.0
C522 C 0.8264 0.84719 0.71861 0.0
C523 C 0.85956 0.87533 0.70526 0.0
H524 H 0.81405 0.22307 0.34623 0.0
H525 H 0.69652 0.15857 0.38228 0.0
H526 H 0.78368 0.18631 0.28194 0.0
H527 H 0.66525 0.12275 0.31866 0.0
H528 H 0.61645 0.05262 0.20863 0.0
H529 H 0.66323 0.0783 0.27249 0.0
H530 H 0.73037 0.18392 0.22566 0.0
H531 H 0.68471 0.15684 0.16087 0.0
C532 C 0.78215 0.2002 0.3405 0.0
C533 C 0.75742 0.19313 0.3687 0.0
C534 C 0.76451 0.17955 0.30375 0.0
C535 C 0.72187 0.15165 0.29489 0.0
C536 C 0.69837 0.1434 0.32435 0.0
C537 C 0.71605 0.16387 0.36082 0.0
C538 C 0.64167 0.08115 0.21197 0.0
C539 C 0.64665 0.10314 0.18024 0.0
C540 C 0.66842 0.09593 0.24855 0.0
C541 C 0.69999 0.13353 0.25455 0.0
C542 C 0.70658 0.15479 0.22213 0.0
C543 C 0.68031 0.13951 0.1851 0.0
H544 H 0.47073 0.67483 0.27188 0.0
H545 H 0.46436 0.7533 0.3545 0.0
H546 H 0.4809 0.6356 0.32407 0.0
H547 H 0.47589 0.71468 0.40738 0.0
H548 H 0.53116 0.64248 0.49352 0.0
H549 H 0.52915 0.68702 0.4445 0.0
H550 H 0.42857 0.59475 0.36588 0.0
H551 H 0.42958 0.55048 0.41537 0.0
C552 C 0.47366 0.68469 0.30159 0.0
C553 C 0.46765 0.71774 0.30902 0.0
C554 C 0.47857 0.66177 0.33146 0.0
C555 C 0.47861 0.67153 0.37003 0.0
C556 C 0.47606 0.70619 0.3781 0.0
C557 C 0.47014 0.72873 0.34792 0.0
C558 C 0.50816 0.63175 0.466 0.0
C559 C 0.48029 0.59278 0.45872 0.0
C560 C 0.50709 0.65735 0.43781 0.0
C561 C 0.47895 0.64462 0.40096 0.0
C562 C 0.45098 0.60564 0.39373 0.0
C563 C 0.4513 0.58022 0.42228 0.0
H564 H 0.08521 0.4217 0.78326 0.0
H565 H 0.21173 0.4644 0.85712 0.0
H566 H 0.05969 0.44562 0.83306 0.0
H567 H 0.18657 0.48873 0.90715 0.0
H568 H 0.03116 0.5221 0.91501 0.0
H569 H 0.05716 0.49788 0.86622 0.0
H570 H 0.14621 0.478 0.95744 0.0
H571 H 0.11985 0.50232 1.00647 0.0
C572 C 0.1078 0.43614 0.81017 0.0
C573 C 0.15089 0.44072 0.8154 0.0
C574 C 0.09313 0.45039 0.83909 0.0
C575 C 0.12052 0.46972 0.87527 0.0
C576 C 0.16365 0.47401 0.8805 0.0
C577 C 0.17845 0.46017 0.85131 0.0
C578 C 0.0563 0.5126 0.92507 0.0
C579 C 0.07286 0.5146 0.96563 0.0
C580 C 0.0713 0.49822 0.89659 0.0
C581 C 0.1043 0.48531 0.90672 0.0
C582 C 0.1212 0.48763 0.94738 0.0
C583 C 0.10572 0.50159 0.97599 0.0
H584 H 0.53704 0.7644 0.74222 0.0
H585 H 0.62335 0.75436 0.84318 0.0
H586 H 0.52641 0.81199 0.78005 0.0
H587 H 0.61161 0.80014 0.88123 0.0
H588 H 0.56383 0.866 0.94756 0.0
H589 H 0.55283 0.81059 0.90626 0.0
H590 H 0.5822 0.88034 0.81155 0.0
H591 H 0.59281 0.93599 0.85283 0.0
C592 C 0.55262 0.77152 0.77267 0.0
C593 C 0.58033 0.75525 0.78996 0.0
C594 C 0.54672 0.79873 0.79425 0.0
C595 C 0.56799 0.80946 0.83359 0.0
C596 C 0.59413 0.79185 0.85119 0.0
C597 C 0.60059 0.76539 0.82952 0.0
C598 C 0.56698 0.86939 0.91766 0.0
C599 C 0.57952 0.90537 0.90348 0.0
C600 C 0.56079 0.8377 0.89411 0.0
C601 C 0.56672 0.84128 0.85583 0.0
C602 C 0.57704 0.8768 0.84088 0.0
C603 C 0.58363 0.90866 0.8646 0.0
H604 H 0.77156 0.14575 0.4249 0.0
H605 H 0.88505 0.25022 0.45939 0.0
H606 H 0.81561 0.10974 0.43401 0.0
H607 H 0.92939 0.21445 0.47073 0.0
H608 H 1.00357 0.1446 0.45798 0.0
H609 H 0.95734 0.17786 0.44014 0.0
H610 H 0.85688 0.08997 0.4834 0.0
H611 H 0.90252 0.05628 0.49999 0.0
C612 C 0.80605 0.16098 0.43432 0.0
C613 C 0.82496 0.20077 0.44124 0.0
C614 C 0.83136 0.14036 0.44004 0.0
C615 C 0.8763 0.15902 0.45312 0.0
C616 C 0.89508 0.19898 0.46005 0.0
C617 C 0.86971 0.21954 0.45411 0.0
C618 C 0.97134 0.13204 0.46305 0.0
C619 C 0.95687 0.09771 0.48045 0.0
C620 C 0.94491 0.15136 0.45322 0.0
C621 C 0.90334 0.13698 0.46067 0.0
C622 C 0.8884 0.10189 0.47677 0.0
C623 C 0.91474 0.08251 0.48642 0.0
H624 H 0.36078 0.74412 0.17296 0.0
H625 H 0.33507 0.63426 0.2154 0.0
H626 H 0.2892 0.71872 0.13021 0.0
H627 H 0.26239 0.60897 0.17377 0.0
H628 H 0.1237 0.60615 0.13822 0.0
H629 H 0.19737 0.62494 0.17416 0.0
H630 H 0.24331 0.6682 0.07145 0.0
H631 H 0.16896 0.6484 0.03489 0.0
C632 C 0.33989 0.71434 0.17255 0.0
C633 C 0.35328 0.69096 0.19703 0.0
C634 C 0.29904 0.69984 0.14821 0.0
C635 C 0.27049 0.66185 0.14853 0.0
C636 C 0.28391 0.63834 0.17296 0.0
C637 C 0.32519 0.65273 0.19682 0.0
C638 C 0.14945 0.61938 0.12316 0.0
C639 C 0.1407 0.6259 0.08379 0.0
C640 C 0.19158 0.62992 0.14371 0.0
C641 C 0.22589 0.64785 0.1255 0.0
C642 C 0.21727 0.6544 0.08608 0.0
C643 C 0.17491 0.64321 0.06525 0.0
H644 H 0.19344 0.40656 0.6624 0.0
H645 H 0.29156 0.46024 0.766 0.0
H646 H 0.2481 0.42842 0.62302 0.0
H647 H 0.34583 0.48332 0.72681 0.0
H648 H 0.42767 0.55304 0.64272 0.0
H649 H 0.37162 0.52887 0.67997 0.0
H650 H 0.31143 0.42347 0.60614 0.0
H651 H 0.36798 0.44759 0.56904 0.0
C652 C 0.22665 0.42268 0.67701 0.0
C653 C 0.23745 0.43163 0.71781 0.0
C654 C 0.25829 0.43554 0.65423 0.0
C655 C 0.30207 0.45839 0.67115 0.0
C656 C 0.31277 0.46666 0.71205 0.0
C657 C 0.28135 0.45332 0.73479 0.0
C658 C 0.40243 0.52476 0.63403 0.0
C659 C 0.40299 0.50263 0.60229 0.0
C660 C 0.37012 0.51061 0.65585 0.0
C661 C 0.33633 0.47379 0.64673 0.0
C662 C 0.3363 0.45196 0.61438 0.0
C663 C 0.36908 0.46591 0.59292 0.0
H664 H 0.66212 0.65534 0.73247 0.0
H665 H 0.66494 0.70587 0.84274 0.0
H666 H 0.7136 0.63074 0.76563 0.0
H667 H 0.71514 0.6813 0.87584 0.0
H668 H 0.78433 0.61366 0.93104 0.0
H669 H 0.72331 0.62307 0.89323 0.0
H670 H 0.79035 0.65999 0.80015 0.0
H671 H 0.85072 0.64932 0.83735 0.0
C672 C 0.67303 0.6603 0.76384 0.0
C673 C 0.65866 0.68133 0.78528 0.0
C674 C 0.70251 0.64652 0.78278 0.0
C675 C 0.71799 0.65367 0.82346 0.0
C676 C 0.70296 0.67431 0.84471 0.0
C677 C 0.67393 0.68818 0.82582 0.0
C678 C 0.78571 0.62309 0.90222 0.0
C679 C 0.82259 0.63123 0.88743 0.0
C680 C 0.75089 0.62871 0.88066 0.0
C681 C 0.75215 0.64254 0.84381 0.0
C682 C 0.78823 0.64906 0.82829 0.0
C683 C 0.82308 0.64349 0.84988 0.0
H684 H 0.43949 0.80222 0.25929 0.0
H685 H 0.53944 0.78062 0.22463 0.0
H686 H 0.46151 0.86217 0.22911 0.0
H687 H 0.56188 0.84056 0.19438 0.0
H688 H 0.60689 0.96246 0.15989 0.0
H689 H 0.59136 0.90945 0.20002 0.0
H690 H 0.45573 0.87973 0.16149 0.0
H691 H 0.47154 0.93343 0.12098 0.0
C692 C 0.46771 0.8113 0.24702 0.0
C693 C 0.48809 0.78669 0.24503 0.0
C694 C 0.47962 0.84524 0.22866 0.0
C695 C 0.51293 0.85616 0.20828 0.0
C696 C 0.53606 0.8334 0.20964 0.0
C697 C 0.52376 0.7992 0.22765 0.0
C698 C 0.57361 0.94469 0.15977 0.0
C699 C 0.54047 0.95234 0.13677 0.0
C700 C 0.56471 0.91402 0.18289 0.0
C701 C 0.52225 0.8899 0.18432 0.0
C702 C 0.48893 0.89778 0.16166 0.0
C703 C 0.4979 0.92846 0.13811 0.0
H704 H 0.09842 0.34791 0.68501 0.0
H705 H 0.21994 0.3467 0.73702 0.0
H706 H 0.07676 0.28745 0.64741 0.0
H707 H 0.19802 0.28482 0.70056 0.0
H708 H 0.15406 0.17831 0.61152 0.0
H709 H 0.18134 0.24237 0.64537 0.0
H710 H 0.05153 0.22377 0.64811 0.0
H711 H 1.02499 0.16166 0.6135 0.0
C712 C 0.12063 0.33459 0.68839 0.0
C713 C 0.16094 0.3525 0.71425 0.0
C714 C 0.10802 0.29927 0.66703 0.0
C715 C 0.13485 0.27958 0.67089 0.0
C716 C 0.17597 0.29829 0.69607 0.0
C717 C 0.18877 0.33406 0.71723 0.0
C718 C 0.13141 0.18806 0.61924 0.0
C719 C 0.08703 0.16419 0.60927 0.0
C720 C 0.14711 0.22506 0.63902 0.0
C721 C 0.11907 0.23967 0.64972 0.0
C722 C 0.07483 0.2152 0.63996 0.0
C723 C 0.05933 0.17874 0.62013 0.0
H724 H 0.71428 0.23981 0.49307 0.0
H725 H 0.78328 0.33358 0.4327 0.0
H726 H 0.67321 0.27371 0.51008 0.0
H727 H 0.74177 0.36743 0.44827 0.0
H728 H 0.67352 0.42848 0.49727 0.0
H729 H 0.72301 0.39914 0.49495 0.0
H730 H 0.61669 0.28826 0.47473 0.0
H731 H 0.56766 0.3174 0.47898 0.0
C732 C 0.72138 0.26824 0.48451 0.0
C733 C 0.7521 0.28446 0.4621 0.0
C734 C 0.69749 0.28745 0.49359 0.0
C735 C 0.70363 0.32319 0.4801 0.0
C736 C 0.73632 0.34022 0.45955 0.0
C737 C 0.76025 0.32101 0.45067 0.0
C738 C 0.66075 0.39779 0.49295 0.0
C739 C 0.61641 0.3754 0.48816 0.0
C740 C 0.68915 0.38095 0.49123 0.0
C741 C 0.67403 0.34124 0.48467 0.0
C742 C 0.62977 0.31886 0.48042 0.0
C743 C 0.60142 0.33567 0.48221 0.0
loop_
_geom_bond_atom_site_label_1
_geom_bond_atom_site_label_2
_geom_bond_distance
_geom_bond_site_symmetry_2
_ccdc_geom_bond_type
C0 N1 1.317 . S
C0 N2 1.348 . S
C0 C3 1.485 . S
N1 C0 1.317 . S
N1 N5 1.370 . S
N2 C0 1.348 . S
N2 C4 1.346 . S
C3 C0 1.485 . S
C3 H7 0.960 . S
C3 H8 0.961 . S
C3 H9 0.960 . S
C4 N2 1.346 . S
C4 N5 1.307 . S
C4 C6 1.486 . S
N5 N1 1.370 . S
N5 C4 1.307 . S
C6 C4 1.486 . S
C6 H10 0.960 . S
C6 H11 0.960 . S
C6 H12 0.959 . S
H7 C3 0.960 . S
H8 C3 0.961 . S
H9 C3 0.960 . S
H10 C6 0.960 . S
H11 C6 0.960 . S
H12 C6 0.959 . S
C13 N14 1.317 . S
C13 N15 1.348 . S
C13 C16 1.485 . S
N14 C13 1.317 . S
N14 N18 1.370 . S
N15 C13 1.348 . S
N15 C17 1.346 . S
C16 C13 1.485 . S
C16 H20 0.960 . S
C16 H21 0.961 . S
C16 H22 0.960 . S
C17 N15 1.346 . S
C17 N18 1.307 . S
C17 C19 1.486 . S
N18 N14 1.370 . S
N18 C17 1.307 . S
C19 C17 1.486 . S
C19 H23 0.960 . S
C19 H24 0.960 . S
C19 H25 0.959 . S
H20 C16 0.960 . S
H21 C16 0.961 . S
H22 C16 0.960 . S
H23 C19 0.960 . S
H24 C19 0.960 . S
H25 C19 0.959 . S
C26 N27 1.317 . S
C26 N28 1.348 . S
C26 C29 1.485 . S
N27 C26 1.317 . S
N27 N31 1.370 . S
N28 C26 1.348 . S
N28 C30 1.346 . S
C29 C26 1.485 . S
C29 H33 0.960 . S
C29 H34 0.961 . S
C29 H35 0.960 . S
C30 N28 1.346 . S
C30 N31 1.307 . S
C30 C32 1.486 . S
N31 N27 1.370 . S
N31 C30 1.307 . S
C32 C30 1.486 . S
C32 H36 0.960 . S
C32 H37 0.960 . S
C32 H38 0.959 . S
H33 C29 0.960 . S
H34 C29 0.961 . S
H35 C29 0.960 . S
H36 C32 0.960 . S
H37 C32 0.960 . S
H38 C32 0.959 . S
C39 N40 1.317 . S
C39 N41 1.348 . S
C39 C42 1.485 . S
N40 C39 1.317 . S
N40 N44 1.370 . S
N41 C39 1.348 . S
N41 C43 1.346 . S
C42 C39 1.485 . S
C42 H46 0.960 . S
C42 H47 0.961 . S
C42 H48 0.960 . S
C43 N41 1.346 . S
C43 N44 1.307 . S
C43 C45 1.486 . S
N44 N40 1.370 . S
N44 C43 1.307 . S
C45 C43 1.486 . S
C45 H49 0.960 . S
C45 H50 0.960 . S
C45 H51 0.959 . S
H46 C42 0.960 . S
H47 C42 0.961 . S
H48 C42 0.960 . S
H49 C45 0.960 . S
H50 C45 0.960 . S
H51 C45 0.959 . S
C52 N53 1.317 . S
C52 N54 1.348 . S
C52 C55 1.485 . S
N53 C52 1.317 . S
N53 N57 1.370 . S
N54 C52 1.348 . S
N54 C56 1.346 . S
C55 C52 1.485 . S
C55 H59 0.960 . S
C55 H60 0.961 . S
C55 H61 0.960 . S
C56 N54 1.346 . S
C56 N57 1.307 . S
C56 C58 1.486 . S
N57 N53 1.370 . S
N57 C56 1.307 . S
C58 C56 1.486 . S
C58 H62 0.960 . S
C58 H63 0.960 . S
C58 H64 0.959 . S
H59 C55 0.960 . S
H60 C55 0.961 . S
H61 C55 0.960 . S
H62 C58 0.960 . S
H63 C58 0.960 . S
H64 C58 0.959 . S
C65 N66 1.317 . S
C65 N67 1.348 . S
C65 C68 1.485 . S
N66 C65 1.317 . S
N66 N70 1.370 . S
N67 C65 1.348 . S
N67 C69 1.346 . S
C68 C65 1.485 . S
C68 H72 0.960 . S
C68 H73 0.961 . S
C68 H74 0.960 . S
C69 N67 1.346 . S
C69 N70 1.307 . S
C69 C71 1.486 . S
N70 N66 1.370 . S
N70 C69 1.307 . S
C71 C69 1.486 . S
C71 H75 0.960 . S
C71 H76 0.960 . S
C71 H77 0.959 . S
H72 C68 0.960 . S
H73 C68 0.961 . S
H74 C68 0.960 . S
H75 C71 0.960 . S
H76 C71 0.960 . S
H77 C71 0.959 . S
C78 N79 1.317 . S
C78 N80 1.348 . S
C78 C81 1.485 . S
N79 C78 1.317 . S
N79 N83 1.370 . S
N80 C78 1.348 . S
N80 C82 1.346 . S
C81 C78 1.485 . S
C81 H85 0.960 . S
C81 H86 0.961 . S
C81 H87 0.960 . S
C82 N80 1.346 . S
C82 N83 1.307 . S
C82 C84 1.486 . S
N83 N79 1.370 . S
N83 C82 1.307 . S
C84 C82 1.486 . S
C84 H88 0.960 . S
C84 H89 0.960 . S
C84 H90 0.959 . S
H85 C81 0.960 . S
H86 C81 0.961 . S
H87 C81 0.960 . S
H88 C84 0.960 . S
H89 C84 0.960 . S
H90 C84 0.959 . S
C91 N92 1.317 . S
C91 N93 1.348 . S
C91 C94 1.485 . S
N92 C91 1.317 . S
N92 N96 1.370 . S
N93 C91 1.348 . S
N93 C95 1.346 . S
C94 C91 1.485 . S
C94 H98 0.960 . S
C94 H99 0.961 . S
C94 H100 0.960 . S
C95 N93 1.346 . S
C95 N96 1.307 . S
C95 C97 1.486 . S
N96 N92 1.370 . S
N96 C95 1.307 . S
C97 C95 1.486 . S
C97 H101 0.960 . S
C97 H102 0.960 . S
C97 H103 0.959 . S
H98 C94 0.960 . S
H99 C94 0.961 . S
H100 C94 0.960 . S
H101 C97 0.960 . S
H102 C97 0.960 . S
H103 C97 0.959 . S
Pr104 C106 2.880 1_545 S
Pr104 O124 2.562 1_545 S
Pr104 O125 2.490 1_545 S
Pr104 O126 2.695 1_655 S
Pr104 O127 2.512 1_655 S
Pr104 O129 2.437 1_645 S
Pr104 O132 2.436 1_645 S
Pr104 O134 2.438 . S
Pr105 C115 2.880 . S
Pr105 O126 2.436 . S
Pr105 O128 2.438 . S
Pr105 O130 2.562 . S
Pr105 O131 2.490 . S
Pr105 O132 2.695 1_545 S
Pr105 O133 2.512 1_545 S
Pr105 O135 2.437 . S
C106 Pr104 2.880 1_565 S
C106 C107 1.491 . S
C106 O124 1.254 . S
C106 O125 1.225 . S
C107 C106 1.491 . S
C107 C108 1.392 . S
C107 C112 1.356 . S
C108 C107 1.392 . S
C108 C109 1.368 . S
C108 H136 0.929 . S
C109 C108 1.368 . S
C109 C110 1.386 . S
C109 H137 0.929 . S
C110 C109 1.386 . S
C110 C111 1.373 . S
C111 C110 1.373 . S
C111 C112 1.409 . S
C111 H138 0.931 . S
C112 C107 1.356 . S
C112 C111 1.409 . S
C112 H139 0.930 . S
C113 O126 1.270 . S
C113 O127 1.248 . S
C114 O128 1.267 1_565 S
C114 O129 1.278 . S
C115 Pr105 2.880 . S
C115 C116 1.491 . S
C115 O130 1.254 . S
C115 O131 1.225 . S
C116 C115 1.491 . S
C116 C117 1.392 . S
C116 C121 1.356 . S
C117 C116 1.392 . S
C117 C118 1.368 . S
C117 H140 0.929 . S
C118 C117 1.368 . S
C118 C119 1.386 . S
C118 H141 0.929 . S
C119 C118 1.386 . S
C119 C120 1.373 . S
C120 C119 1.373 . S
C120 C121 1.409 . S
C120 H142 0.931 . S
C121 C116 1.356 . S
C121 C120 1.409 . S
C121 H143 0.930 . S
C122 O132 1.270 . S
C122 O133 1.248 . S
C123 O134 1.267 1_455 S
C123 O135 1.278 . S
O124 Pr104 2.562 1_565 S
O124 C106 1.254 . S
O125 Pr104 2.490 1_565 S
O125 C106 1.225 . S
O126 Pr104 2.695 1_455 S
O126 Pr105 2.436 . S
O126 C113 1.270 . S
O127 Pr104 2.512 1_455 S
O127 C113 1.248 . S
O128 Pr105 2.438 . S
O128 C114 1.267 1_545 S
O129 Pr104 2.437 1_465 S
O129 C114 1.278 . S
O130 Pr105 2.562 . S
O130 C115 1.254 . S
O131 Pr105 2.490 . S
O131 C115 1.225 . S
O132 Pr104 2.436 1_465 S
O132 Pr105 2.695 1_565 S
O132 C122 1.270 . S
O133 Pr105 2.512 1_565 S
O133 C122 1.248 . S
O134 Pr104 2.438 . S
O134 C123 1.267 1_655 S
O135 Pr105 2.437 . S
O135 C123 1.278 . S
H136 C108 0.929 . S
H137 C109 0.929 . S
H138 C111 0.931 . S
H139 C112 0.930 . S
H140 C117 0.929 . S
H141 C118 0.929 . S
H142 C120 0.931 . S
H143 C121 0.930 . S
Pr144 C146 2.880 . S
Pr144 O164 2.562 . S
Pr144 O165 2.490 . S
Pr144 O166 2.695 . S
Pr144 O167 2.512 . S
Pr144 O169 2.437 . S
Pr144 O172 2.436 . S
Pr144 O174 2.438 . S
Pr145 C155 2.880 1_545 S
Pr145 O166 2.436 . S
Pr145 O168 2.438 . S
Pr145 O170 2.562 1_545 S
Pr145 O171 2.490 1_545 S
Pr145 O172 2.695 . S
Pr145 O173 2.512 1_545 S
Pr145 O175 2.437 1_545 S
C146 Pr144 2.880 . S
C146 C147 1.491 . S
C146 O164 1.254 . S
C146 O165 1.225 . S
C147 C146 1.491 . S
C147 C148 1.392 . S
C147 C152 1.356 . S
C148 C147 1.392 . S
C148 C149 1.368 . S
C148 H176 0.929 . S
C149 C148 1.368 . S
C149 C150 1.386 . S
C149 H177 0.929 . S
C150 C149 1.386 . S
C150 C151 1.373 . S
C151 C150 1.373 . S
C151 C152 1.409 . S
C151 H178 0.931 . S
C152 C147 1.356 . S
C152 C151 1.409 . S
C152 H179 0.930 . S
C153 O166 1.270 . S
C153 O167 1.248 . S
C154 O168 1.267 . S
C154 O169 1.278 . S
C155 Pr145 2.880 1_565 S
C155 C156 1.491 1_554 S
C155 O170 1.254 . S
C155 O171 1.225 . S
C156 C155 1.491 1_556 S
C156 C157 1.392 1_556 S
C156 C161 1.356 . S
C157 C156 1.392 1_554 S
C157 C158 1.368 1_554 S
C157 H180 0.929 . S
C158 C157 1.368 1_556 S
C158 C159 1.386 . S
C158 H181 0.929 . S
C159 C158 1.386 . S
C159 C160 1.373 . S
C160 C159 1.373 . S
C160 C161 1.409 . S
C160 H182 0.931 . S
C161 C156 1.356 . S
C161 C160 1.409 . S
C161 H183 0.930 . S
C162 O172 1.270 1_565 S
C162 O173 1.248 . S
C163 O174 1.267 1_565 S
C163 O175 1.278 . S
O164 Pr144 2.562 . S
O164 C146 1.254 . S
O165 Pr144 2.490 . S
O165 C146 1.225 . S
O166 Pr144 2.695 . S
O166 Pr145 2.436 . S
O166 C153 1.270 . S
O167 Pr144 2.512 . S
O167 C153 1.248 . S
O168 Pr145 2.438 . S
O168 C154 1.267 . S
O169 Pr144 2.437 . S
O169 C154 1.278 . S
O170 Pr145 2.562 1_565 S
O170 C155 1.254 . S
O171 Pr145 2.490 1_565 S
O171 C155 1.225 . S
O172 Pr144 2.436 . S
O172 Pr145 2.695 . S
O172 C162 1.270 1_545 S
O173 Pr145 2.512 1_565 S
O173 C162 1.248 . S
O174 Pr144 2.438 . S
O174 C163 1.267 1_545 S
O175 Pr145 2.437 1_565 S
O175 C163 1.278 . S
H176 C148 0.929 . S
H177 C149 0.929 . S
H178 C151 0.931 . S
H179 C152 0.930 . S
H180 C157 0.929 . S
H181 C158 0.929 . S
H182 C160 0.931 . S
H183 C161 0.930 . S
Pr184 C186 2.880 . S
Pr184 O204 2.562 . S
Pr184 O205 2.490 . S
Pr184 O206 2.695 . S
Pr184 O207 2.512 . S
Pr184 O209 2.437 . S
Pr184 O212 2.436 . S
Pr184 O214 2.438 . S
Pr185 C195 2.880 . S
Pr185 O206 2.436 . S
Pr185 O208 2.438 . S
Pr185 O210 2.562 . S
Pr185 O211 2.490 . S
Pr185 O212 2.695 . S
Pr185 O213 2.512 . S
Pr185 O215 2.437 . S
C186 Pr184 2.880 . S
C186 C187 1.491 . S
C186 O204 1.254 . S
C186 O205 1.225 . S
C187 C186 1.491 . S
C187 C188 1.392 . S
C187 C192 1.356 . S
C188 C187 1.392 . S
C188 C189 1.368 . S
C188 H216 0.929 . S
C189 C188 1.368 . S
C189 C190 1.386 . S
C189 H217 0.929 . S
C190 C189 1.386 . S
C190 C191 1.373 . S
C191 C190 1.373 . S
C191 C192 1.409 . S
C191 H218 0.931 . S
C192 C187 1.356 . S
C192 C191 1.409 . S
C192 H219 0.930 . S
C193 O206 1.270 . S
C193 O207 1.248 . S
C194 O208 1.267 . S
C194 O209 1.278 . S
C195 Pr185 2.880 . S
C195 C196 1.491 . S
C195 O210 1.254 . S
C195 O211 1.225 . S
C196 C195 1.491 . S
C196 C197 1.392 . S
C196 C201 1.356 . S
C197 C196 1.392 . S
C197 C198 1.368 . S
C197 H220 0.929 . S
C198 C197 1.368 . S
C198 C199 1.386 . S
C198 H221 0.929 . S
C199 C198 1.386 . S
C199 C200 1.373 . S
C200 C199 1.373 . S
C200 C201 1.409 . S
C200 H222 0.931 . S
C201 C196 1.356 . S
C201 C200 1.409 . S
C201 H223 0.930 . S
C202 O212 1.270 . S
C202 O213 1.248 . S
C203 O214 1.267 . S
C203 O215 1.278 . S
O204 Pr184 2.562 . S
O204 C186 1.254 . S
O205 Pr184 2.490 . S
O205 C186 1.225 . S
O206 Pr184 2.695 . S
O206 Pr185 2.436 . S
O206 C193 1.270 . S
O207 Pr184 2.512 . S
O207 C193 1.248 . S
O208 Pr185 2.438 . S
O208 C194 1.267 . S
O209 Pr184 2.437 . S
O209 C194 1.278 . S
O210 Pr185 2.562 . S
O210 C195 1.254 . S
O211 Pr185 2.490 . S
O211 C195 1.225 . S
O212 Pr184 2.436 . S
O212 Pr185 2.695 . S
O212 C202 1.270 . S
O213 Pr185 2.512 . S
O213 C202 1.248 . S
O214 Pr184 2.438 . S
O214 C203 1.267 . S
O215 Pr185 2.437 . S
O215 C203 1.278 . S
H216 C188 0.929 . S
H217 C189 0.929 . S
H218 C191 0.931 . S
H219 C192 0.930 . S
H220 C197 0.929 . S
H221 C198 0.929 . S
H222 C200 0.931 . S
H223 C201 0.930 . S
Pr224 C226 2.880 1_455 S
Pr224 O244 2.562 1_455 S
Pr224 O245 2.490 1_455 S
Pr224 O246 2.695 1_556 S
Pr224 O247 2.512 1_556 S
Pr224 O249 2.437 1_456 S
Pr224 O252 2.436 1_455 S
Pr224 O254 2.438 . S
Pr225 C235 2.880 . S
Pr225 O246 2.436 . S
Pr225 O248 2.438 1_455 S
Pr225 O250 2.562 . S
Pr225 O251 2.490 . S
Pr225 O252 2.695 1_454 S
Pr225 O253 2.512 1_454 S
Pr225 O255 2.437 1_554 S
C226 Pr224 2.880 1_655 S
C226 C227 1.491 . S
C226 O244 1.254 . S
C226 O245 1.225 . S
C227 C226 1.491 . S
C227 C228 1.392 . S
C227 C232 1.356 . S
C228 C227 1.392 . S
C228 C229 1.368 . S
C228 H256 0.929 . S
C229 C228 1.368 . S
C229 C230 1.386 . S
C229 H257 0.929 . S
C230 C229 1.386 . S
C230 C231 1.373 . S
C231 C230 1.373 . S
C231 C232 1.409 . S
C231 H258 0.931 . S
C232 C227 1.356 . S
C232 C231 1.409 . S
C232 H259 0.930 . S
C233 O246 1.270 . S
C233 O247 1.248 . S
C234 O248 1.267 . S
C234 O249 1.278 . S
C235 Pr225 2.880 . S
C235 C236 1.491 . S
C235 O250 1.254 . S
C235 O251 1.225 . S
C236 C235 1.491 . S
C236 C237 1.392 . S
C236 C241 1.356 . S
C237 C236 1.392 . S
C237 C238 1.368 . S
C237 H260 0.929 . S
C238 C237 1.368 . S
C238 C239 1.386 . S
C238 H261 0.929 . S
C239 C238 1.386 . S
C239 C240 1.373 . S
C240 C239 1.373 . S
C240 C241 1.409 . S
C240 H262 0.931 . S
C241 C236 1.356 . S
C241 C240 1.409 . S
C241 H263 0.930 . S
C242 O252 1.270 . S
C242 O253 1.248 . S
C243 O254 1.267 . S
C243 O255 1.278 . S
O244 Pr224 2.562 1_655 S
O244 C226 1.254 . S
O245 Pr224 2.490 1_655 S
O245 C226 1.225 . S
O246 Pr224 2.695 1_554 S
O246 Pr225 2.436 . S
O246 C233 1.270 . S
O247 Pr224 2.512 1_554 S
O247 C233 1.248 . S
O248 Pr225 2.438 1_655 S
O248 C234 1.267 . S
O249 Pr224 2.437 1_654 S
O249 C234 1.278 . S
O250 Pr225 2.562 . S
O250 C235 1.254 . S
O251 Pr225 2.490 . S
O251 C235 1.225 . S
O252 Pr224 2.436 1_655 S
O252 Pr225 2.695 1_656 S
O252 C242 1.270 . S
O253 Pr225 2.512 1_656 S
O253 C242 1.248 . S
O254 Pr224 2.438 . S
O254 C243 1.267 . S
O255 Pr225 2.437 1_556 S
O255 C243 1.278 . S
H256 C228 0.929 . S
H257 C229 0.929 . S
H258 C231 0.931 . S
H259 C232 0.930 . S
H260 C237 0.929 . S
H261 C238 0.929 . S
H262 C240 0.931 . S
H263 C241 0.930 . S
H264 C272 0.950 . S
H265 C277 0.950 . S
H266 C274 0.950 . S
H267 C276 0.950 . S
H268 C278 0.950 . S
H269 C280 0.950 . S
H270 C282 0.950 . S
H271 C283 0.950 . S
C272 H264 0.950 . S
C272 C273 1.386 . S
C272 C274 1.391 . S
C273 C272 1.386 . S
C273 C277 1.393 . S
C274 H266 0.950 . S
C274 C272 1.391 . S
C274 C275 1.400 . S
C275 C274 1.400 . S
C275 C276 1.398 . S
C275 C281 1.491 . S
C276 H267 0.950 . S
C276 C275 1.398 . S
C276 C277 1.391 . S
C277 H265 0.950 . S
C277 C273 1.393 . S
C277 C276 1.391 . S
C278 H268 0.950 . S
C278 C279 1.386 . S
C278 C280 1.391 . S
C279 C278 1.386 . S
C279 C283 1.393 . S
C280 H269 0.950 . S
C280 C278 1.391 . S
C280 C281 1.400 . S
C281 C275 1.491 . S
C281 C280 1.400 . S
C281 C282 1.398 . S
C282 H270 0.950 . S
C282 C281 1.398 . S
C282 C283 1.391 . S
C283 H271 0.950 . S
C283 C279 1.393 . S
C283 C282 1.391 . S
H284 C292 0.950 . S
H285 C297 0.950 . S
H286 C294 0.950 . S
H287 C296 0.950 . S
H288 C298 0.950 . S
H289 C300 0.950 . S
H290 C302 0.950 . S
H291 C303 0.950 . S
C292 H284 0.950 . S
C292 C293 1.386 . S
C292 C294 1.391 . S
C293 C292 1.386 . S
C293 C297 1.393 . S
C294 H286 0.950 . S
C294 C292 1.391 . S
C294 C295 1.400 . S
C295 C294 1.400 . S
C295 C296 1.398 . S
C295 C301 1.491 . S
C296 H287 0.950 . S
C296 C295 1.398 . S
C296 C297 1.391 . S
C297 H285 0.950 . S
C297 C293 1.393 . S
C297 C296 1.391 . S
C298 H288 0.950 . S
C298 C299 1.386 . S
C298 C300 1.391 . S
C299 C298 1.386 . S
C299 C303 1.393 . S
C300 H289 0.950 . S
C300 C298 1.391 . S
C300 C301 1.400 . S
C301 C295 1.491 . S
C301 C300 1.400 . S
C301 C302 1.398 . S
C302 H290 0.950 . S
C302 C301 1.398 . S
C302 C303 1.391 . S
C303 H291 0.950 . S
C303 C299 1.393 . S
C303 C302 1.391 . S
H304 C312 0.950 . S
H305 C317 0.950 . S
H306 C314 0.950 . S
H307 C316 0.950 . S
H308 C318 0.950 . S
H309 C320 0.950 . S
H310 C322 0.950 . S
H311 C323 0.950 . S
C312 H304 0.950 . S
C312 C313 1.386 . S
C312 C314 1.391 . S
C313 C312 1.386 . S
C313 C317 1.393 . S
C314 H306 0.950 . S
C314 C312 1.391 . S
C314 C315 1.400 . S
C315 C314 1.400 . S
C315 C316 1.398 . S
C315 C321 1.491 . S
C316 H307 0.950 . S
C316 C315 1.398 . S
C316 C317 1.391 . S
C317 H305 0.950 . S
C317 C313 1.393 . S
C317 C316 1.391 . S
C318 H308 0.950 . S
C318 C319 1.386 . S
C318 C320 1.391 . S
C319 C318 1.386 . S
C319 C323 1.393 . S
C320 H309 0.950 . S
C320 C318 1.391 . S
C320 C321 1.400 . S
C321 C315 1.491 . S
C321 C320 1.400 . S
C321 C322 1.398 . S
C322 H310 0.950 . S
C322 C321 1.398 . S
C322 C323 1.391 . S
C323 H311 0.950 . S
C323 C319 1.393 . S
C323 C322 1.391 . S
H324 C332 0.950 . S
H325 C337 0.950 . S
H326 C334 0.950 . S
H327 C336 0.950 . S
H328 C338 0.950 . S
H329 C340 0.950 . S
H330 C342 0.950 . S
H331 C343 0.950 . S
C332 H324 0.950 . S
C332 C333 1.386 . S
C332 C334 1.391 . S
C333 C332 1.386 . S
C333 C337 1.393 . S
C334 H326 0.950 . S
C334 C332 1.391 . S
C334 C335 1.400 . S
C335 C334 1.400 . S
C335 C336 1.398 . S
C335 C341 1.491 . S
C336 H327 0.950 . S
C336 C335 1.398 . S
C336 C337 1.391 . S
C337 H325 0.950 . S
C337 C333 1.393 . S
C337 C336 1.391 . S
C338 H328 0.950 . S
C338 C339 1.386 . S
C338 C340 1.391 . S
C339 C338 1.386 . S
C339 C343 1.393 . S
C340 H329 0.950 . S
C340 C338 1.391 . S
C340 C341 1.400 . S
C341 C335 1.491 . S
C341 C340 1.400 . S
C341 C342 1.398 . S
C342 H330 0.950 . S
C342 C341 1.398 . S
C342 C343 1.391 . S
C343 H331 0.950 . S
C343 C339 1.393 . S
C343 C342 1.391 . S
H344 C352 0.950 . S
H345 C357 0.950 . S
H346 C354 0.950 . S
H347 C356 0.950 . S
H348 C358 0.950 . S
H349 C360 0.950 . S
H350 C362 0.950 . S
H351 C363 0.950 . S
C352 H344 0.950 . S
C352 C353 1.386 . S
C352 C354 1.391 . S
C353 C352 1.386 . S
C353 C357 1.393 . S
C354 H346 0.950 . S
C354 C352 1.391 . S
C354 C355 1.400 . S
C355 C354 1.400 . S
C355 C356 1.398 . S
C355 C361 1.491 . S
C356 H347 0.950 . S
C356 C355 1.398 . S
C356 C357 1.391 . S
C357 H345 0.950 . S
C357 C353 1.393 . S
C357 C356 1.391 . S
C358 H348 0.950 . S
C358 C359 1.386 . S
C358 C360 1.391 . S
C359 C358 1.386 . S
C359 C363 1.393 . S
C360 H349 0.950 . S
C360 C358 1.391 . S
C360 C361 1.400 . S
C361 C355 1.491 . S
C361 C360 1.400 . S
C361 C362 1.398 . S
C362 H350 0.950 . S
C362 C361 1.398 . S
C362 C363 1.391 . S
C363 H351 0.950 . S
C363 C359 1.393 . S
C363 C362 1.391 . S
H364 C372 0.950 . S
H365 C377 0.950 . S
H366 C374 0.950 . S
H367 C376 0.950 . S
H368 C378 0.950 . S
H369 C380 0.950 . S
H370 C382 0.950 . S
H371 C383 0.950 . S
C372 H364 0.950 . S
C372 C373 1.386 . S
C372 C374 1.391 . S
C373 C372 1.386 . S
C373 C377 1.393 . S
C374 H366 0.950 . S
C374 C372 1.391 . S
C374 C375 1.400 . S
C375 C374 1.400 . S
C375 C376 1.398 . S
C375 C381 1.491 . S
C376 H367 0.950 . S
C376 C375 1.398 . S
C376 C377 1.391 . S
C377 H365 0.950 . S
C377 C373 1.393 . S
C377 C376 1.391 . S
C378 H368 0.950 . S
C378 C379 1.386 . S
C378 C380 1.391 . S
C379 C378 1.386 . S
C379 C383 1.393 . S
C380 H369 0.950 . S
C380 C378 1.391 . S
C380 C381 1.400 . S
C381 C375 1.491 . S
C381 C380 1.400 . S
C381 C382 1.398 . S
C382 H370 0.950 . S
C382 C381 1.398 . S
C382 C383 1.391 . S
C383 H371 0.950 . S
C383 C379 1.393 . S
C383 C382 1.391 . S
H384 C392 0.950 . S
H385 C397 0.950 . S
H386 C394 0.950 . S
H387 C396 0.950 . S
H388 C398 0.950 . S
H389 C400 0.950 . S
H390 C402 0.950 . S
H391 C403 0.950 . S
C392 H384 0.950 . S
C392 C393 1.386 . S
C392 C394 1.391 . S
C393 C392 1.386 . S
C393 C397 1.393 . S
C394 H386 0.950 . S
C394 C392 1.391 . S
C394 C395 1.400 . S
C395 C394 1.400 . S
C395 C396 1.398 . S
C395 C401 1.491 . S
C396 H387 0.950 . S
C396 C395 1.398 . S
C396 C397 1.391 . S
C397 H385 0.950 . S
C397 C393 1.393 . S
C397 C396 1.391 . S
C398 H388 0.950 . S
C398 C399 1.386 . S
C398 C400 1.391 . S
C399 C398 1.386 . S
C399 C403 1.393 . S
C400 H389 0.950 . S
C400 C398 1.391 . S
C400 C401 1.400 . S
C401 C395 1.491 . S
C401 C400 1.400 . S
C401 C402 1.398 . S
C402 H390 0.950 . S
C402 C401 1.398 . S
C402 C403 1.391 . S
C403 H391 0.950 . S
C403 C399 1.393 . S
C403 C402 1.391 . S
H404 C412 0.950 . S
H405 C417 0.950 . S
H406 C414 0.950 . S
H407 C416 0.950 . S
H408 C418 0.950 . S
H409 C420 0.950 . S
H410 C422 0.950 . S
H411 C423 0.950 . S
C412 H404 0.950 . S
C412 C413 1.386 . S
C412 C414 1.391 . S
C413 C412 1.386 . S
C413 C417 1.393 . S
C414 H406 0.950 . S
C414 C412 1.391 . S
C414 C415 1.400 . S
C415 C414 1.400 . S
C415 C416 1.398 . S
C415 C421 1.491 . S
C416 H407 0.950 . S
C416 C415 1.398 . S
C416 C417 1.391 . S
C417 H405 0.950 . S
C417 C413 1.393 . S
C417 C416 1.391 . S
C418 H408 0.950 . S
C418 C419 1.386 . S
C418 C420 1.391 . S
C419 C418 1.386 . S
C419 C423 1.393 . S
C420 H409 0.950 . S
C420 C418 1.391 . S
C420 C421 1.400 . S
C421 C415 1.491 . S
C421 C420 1.400 . S
C421 C422 1.398 . S
C422 H410 0.950 . S
C422 C421 1.398 . S
C422 C423 1.391 . S
C423 H411 0.950 . S
C423 C419 1.393 . S
C423 C422 1.391 . S
H424 C432 0.950 . S
H425 C437 0.950 . S
H426 C434 0.950 . S
H427 C436 0.950 . S
H428 C438 0.950 . S
H429 C440 0.950 . S
H430 C442 0.950 . S
H431 C443 0.950 . S
C432 H424 0.950 . S
C432 C433 1.386 . S
C432 C434 1.391 . S
C433 C432 1.386 . S
C433 C437 1.393 . S
C434 H426 0.950 . S
C434 C432 1.391 . S
C434 C435 1.400 . S
C435 C434 1.400 . S
C435 C436 1.398 . S
C435 C441 1.491 . S
C436 H427 0.950 . S
C436 C435 1.398 . S
C436 C437 1.391 . S
C437 H425 0.950 . S
C437 C433 1.393 . S
C437 C436 1.391 . S
C438 H428 0.950 . S
C438 C439 1.386 . S
C438 C440 1.391 . S
C439 C438 1.386 . S
C439 C443 1.393 . S
C440 H429 0.950 . S
C440 C438 1.391 . S
C440 C441 1.400 . S
C441 C435 1.491 . S
C441 C440 1.400 . S
C441 C442 1.398 . S
C442 H430 0.950 . S
C442 C441 1.398 . S
C442 C443 1.391 . S
C443 H431 0.950 . S
C443 C439 1.393 . S
C443 C442 1.391 . S
H444 C452 0.950 . S
H445 C457 0.950 . S
H446 C454 0.950 . S
H447 C456 0.950 . S
H448 C458 0.950 1_554 S
H449 C460 0.950 . S
H450 C462 0.950 . S
H451 C463 0.950 . S
C452 H444 0.950 . S
C452 C453 1.386 . S
C452 C454 1.391 . S
C453 C452 1.386 . S
C453 C457 1.393 . S
C454 H446 0.950 . S
C454 C452 1.391 . S
C454 C455 1.400 . S
C455 C454 1.400 . S
C455 C456 1.398 . S
C455 C461 1.491 . S
C456 H447 0.950 . S
C456 C455 1.398 . S
C456 C457 1.391 . S
C457 H445 0.950 . S
C457 C453 1.393 . S
C457 C456 1.391 . S
C458 H448 0.950 1_556 S
C458 C459 1.386 . S
C458 C460 1.391 . S
C459 C458 1.386 . S
C459 C463 1.393 . S
C460 H449 0.950 . S
C460 C458 1.391 . S
C460 C461 1.400 . S
C461 C455 1.491 . S
C461 C460 1.400 . S
C461 C462 1.398 . S
C462 H450 0.950 . S
C462 C461 1.398 . S
C462 C463 1.391 . S
C463 H451 0.950 . S
C463 C459 1.393 . S
C463 C462 1.391 . S
H464 C472 0.950 . S
H465 C477 0.950 . S
H466 C474 0.950 . S
H467 C476 0.950 . S
H468 C478 0.950 1_455 S
H469 C480 0.950 . S
H470 C482 0.950 . S
H471 C483 0.950 . S
C472 H464 0.950 . S
C472 C473 1.386 . S
C472 C474 1.391 . S
C473 C472 1.386 . S
C473 C477 1.393 . S
C474 H466 0.950 . S
C474 C472 1.391 . S
C474 C475 1.400 . S
C475 C474 1.400 . S
C475 C476 1.398 . S
C475 C481 1.491 . S
C476 H467 0.950 . S
C476 C475 1.398 . S
C476 C477 1.391 . S
C477 H465 0.950 . S
C477 C473 1.393 . S
C477 C476 1.391 . S
C478 H468 0.950 1_655 S
C478 C479 1.386 . S
C478 C480 1.391 . S
C479 C478 1.386 . S
C479 C483 1.393 . S
C480 H469 0.950 . S
C480 C478 1.391 . S
C480 C481 1.400 . S
C481 C475 1.491 . S
C481 C480 1.400 . S
C481 C482 1.398 . S
C482 H470 0.950 . S
C482 C481 1.398 . S
C482 C483 1.391 . S
C483 H471 0.950 . S
C483 C479 1.393 . S
C483 C482 1.391 . S
H484 C492 0.950 . S
H485 C497 0.950 . S
H486 C494 0.950 . S
H487 C496 0.950 . S
H488 C498 0.950 . S
H489 C500 0.950 . S
H490 C502 0.950 . S
H491 C503 0.950 . S
C492 H484 0.950 . S
C492 C493 1.386 . S
C492 C494 1.391 . S
C493 C492 1.386 . S
C493 C497 1.393 . S
C494 H486 0.950 . S
C494 C492 1.391 . S
C494 C495 1.400 . S
C495 C494 1.400 . S
C495 C496 1.398 . S
C495 C501 1.491 . S
C496 H487 0.950 . S
C496 C495 1.398 . S
C496 C497 1.391 . S
C497 H485 0.950 . S
C497 C493 1.393 . S
C497 C496 1.391 . S
C498 H488 0.950 . S
C498 C499 1.386 . S
C498 C500 1.391 . S
C499 C498 1.386 . S
C499 C503 1.393 . S
C500 H489 0.950 . S
C500 C498 1.391 . S
C500 C501 1.400 . S
C501 C495 1.491 . S
C501 C500 1.400 . S
C501 C502 1.398 . S
C502 H490 0.950 . S
C502 C501 1.398 . S
C502 C503 1.391 . S
C503 H491 0.950 . S
C503 C499 1.393 . S
C503 C502 1.391 . S
H504 C512 0.950 . S
H505 C517 0.950 . S
H506 C514 0.950 . S
H507 C516 0.950 . S
H508 C518 0.950 . S
H509 C520 0.950 . S
H510 C522 0.950 . S
H511 C523 0.950 . S
C512 H504 0.950 . S
C512 C513 1.386 . S
C512 C514 1.391 . S
C513 C512 1.386 . S
C513 C517 1.393 . S
C514 H506 0.950 . S
C514 C512 1.391 . S
C514 C515 1.400 . S
C515 C514 1.400 . S
C515 C516 1.398 . S
C515 C521 1.491 . S
C516 H507 0.950 . S
C516 C515 1.398 . S
C516 C517 1.391 . S
C517 H505 0.950 . S
C517 C513 1.393 . S
C517 C516 1.391 . S
C518 H508 0.950 . S
C518 C519 1.386 . S
C518 C520 1.391 . S
C519 C518 1.386 . S
C519 C523 1.393 . S
C520 H509 0.950 . S
C520 C518 1.391 . S
C520 C521 1.400 . S
C521 C515 1.491 . S
C521 C520 1.400 . S
C521 C522 1.398 . S
C522 H510 0.950 . S
C522 C521 1.398 . S
C522 C523 1.391 . S
C523 H511 0.950 . S
C523 C519 1.393 . S
C523 C522 1.391 . S
H524 C532 0.950 . S
H525 C537 0.950 . S
H526 C534 0.950 . S
H527 C536 0.950 . S
H528 C538 0.950 . S
H529 C540 0.950 . S
H530 C542 0.950 . S
H531 C543 0.950 . S
C532 H524 0.950 . S
C532 C533 1.386 . S
C532 C534 1.391 . S
C533 C532 1.386 . S
C533 C537 1.393 . S
C534 H526 0.950 . S
C534 C532 1.391 . S
C534 C535 1.400 . S
C535 C534 1.400 . S
C535 C536 1.398 . S
C535 C541 1.491 . S
C536 H527 0.950 . S
C536 C535 1.398 . S
C536 C537 1.391 . S
C537 H525 0.950 . S
C537 C533 1.393 . S
C537 C536 1.391 . S
C538 H528 0.950 . S
C538 C539 1.386 . S
C538 C540 1.391 . S
C539 C538 1.386 . S
C539 C543 1.393 . S
C540 H529 0.950 . S
C540 C538 1.391 . S
C540 C541 1.400 . S
C541 C535 1.491 . S
C541 C540 1.400 . S
C541 C542 1.398 . S
C542 H530 0.950 . S
C542 C541 1.398 . S
C542 C543 1.391 . S
C543 H531 0.950 . S
C543 C539 1.393 . S
C543 C542 1.391 . S
H544 C552 0.950 . S
H545 C557 0.950 . S
H546 C554 0.950 . S
H547 C556 0.950 . S
H548 C558 0.950 . S
H549 C560 0.950 . S
H550 C562 0.950 . S
H551 C563 0.950 . S
C552 H544 0.950 . S
C552 C553 1.386 . S
C552 C554 1.391 . S
C553 C552 1.386 . S
C553 C557 1.393 . S
C554 H546 0.950 . S
C554 C552 1.391 . S
C554 C555 1.400 . S
C555 C554 1.400 . S
C555 C556 1.398 . S
C555 C561 1.491 . S
C556 H547 0.950 . S
C556 C555 1.398 . S
C556 C557 1.391 . S
C557 H545 0.950 . S
C557 C553 1.393 . S
C557 C556 1.391 . S
C558 H548 0.950 . S
C558 C559 1.386 . S
C558 C560 1.391 . S
C559 C558 1.386 . S
C559 C563 1.393 . S
C560 H549 0.950 . S
C560 C558 1.391 . S
C560 C561 1.400 . S
C561 C555 1.491 . S
C561 C560 1.400 . S
C561 C562 1.398 . S
C562 H550 0.950 . S
C562 C561 1.398 . S
C562 C563 1.391 . S
C563 H551 0.950 . S
C563 C559 1.393 . S
C563 C562 1.391 . S
H564 C572 0.950 . S
H565 C577 0.950 . S
H566 C574 0.950 . S
H567 C576 0.950 . S
H568 C578 0.950 . S
H569 C580 0.950 . S
H570 C582 0.950 . S
H571 C583 0.950 . S
C572 H564 0.950 . S
C572 C573 1.386 . S
C572 C574 1.391 . S
C573 C572 1.386 . S
C573 C577 1.393 . S
C574 H566 0.950 . S
C574 C572 1.391 . S
C574 C575 1.400 . S
C575 C574 1.400 . S
C575 C576 1.398 . S
C575 C581 1.491 . S
C576 H567 0.950 . S
C576 C575 1.398 . S
C576 C577 1.391 . S
C577 H565 0.950 . S
C577 C573 1.393 . S
C577 C576 1.391 . S
C578 H568 0.950 . S
C578 C579 1.386 . S
C578 C580 1.391 . S
C579 C578 1.386 . S
C579 C583 1.393 . S
C580 H569 0.950 . S
C580 C578 1.391 . S
C580 C581 1.400 . S
C581 C575 1.491 . S
C581 C580 1.400 . S
C581 C582 1.398 . S
C582 H570 0.950 . S
C582 C581 1.398 . S
C582 C583 1.391 . S
C583 H571 0.950 . S
C583 C579 1.393 . S
C583 C582 1.391 . S
H584 C592 0.950 . S
H585 C597 0.950 . S
H586 C594 0.950 . S
H587 C596 0.950 . S
H588 C598 0.950 . S
H589 C600 0.950 . S
H590 C602 0.950 . S
H591 C603 0.950 . S
C592 H584 0.950 . S
C592 C593 1.386 . S
C592 C594 1.391 . S
C593 C592 1.386 . S
C593 C597 1.393 . S
C594 H586 0.950 . S
C594 C592 1.391 . S
C594 C595 1.400 . S
C595 C594 1.400 . S
C595 C596 1.398 . S
C595 C601 1.491 . S
C596 H587 0.950 . S
C596 C595 1.398 . S
C596 C597 1.391 . S
C597 H585 0.950 . S
C597 C593 1.393 . S
C597 C596 1.391 . S
C598 H588 0.950 . S
C598 C599 1.386 . S
C598 C600 1.391 . S
C599 C598 1.386 . S
C599 C603 1.393 . S
C600 H589 0.950 . S
C600 C598 1.391 . S
C600 C601 1.400 . S
C601 C595 1.491 . S
C601 C600 1.400 . S
C601 C602 1.398 . S
C602 H590 0.950 . S
C602 C601 1.398 . S
C602 C603 1.391 . S
C603 H591 0.950 . S
C603 C599 1.393 . S
C603 C602 1.391 . S
H604 C612 0.950 . S
H605 C617 0.950 . S
H606 C614 0.950 . S
H607 C616 0.950 . S
H608 C618 0.950 1_455 S
H609 C620 0.950 . S
H610 C622 0.950 . S
H611 C623 0.950 . S
C612 H604 0.950 . S
C612 C613 1.386 . S
C612 C614 1.391 . S
C613 C612 1.386 . S
C613 C617 1.393 . S
C614 H606 0.950 . S
C614 C612 1.391 . S
C614 C615 1.400 . S
C615 C614 1.400 . S
C615 C616 1.398 . S
C615 C621 1.491 . S
C616 H607 0.950 . S
C616 C615 1.398 . S
C616 C617 1.391 . S
C617 H605 0.950 . S
C617 C613 1.393 . S
C617 C616 1.391 . S
C618 H608 0.950 1_655 S
C618 C619 1.386 . S
C618 C620 1.391 . S
C619 C618 1.386 . S
C619 C623 1.393 . S
C620 H609 0.950 . S
C620 C618 1.391 . S
C620 C621 1.400 . S
C621 C615 1.491 . S
C621 C620 1.400 . S
C621 C622 1.398 . S
C622 H610 0.950 . S
C622 C621 1.398 . S
C622 C623 1.391 . S
C623 H611 0.950 . S
C623 C619 1.393 . S
C623 C622 1.391 . S
H624 C632 0.950 . S
H625 C637 0.950 . S
H626 C634 0.950 . S
H627 C636 0.950 . S
H628 C638 0.950 . S
H629 C640 0.950 . S
H630 C642 0.950 . S
H631 C643 0.950 . S
C632 H624 0.950 . S
C632 C633 1.386 . S
C632 C634 1.391 . S
C633 C632 1.386 . S
C633 C637 1.393 . S
C634 H626 0.950 . S
C634 C632 1.391 . S
C634 C635 1.400 . S
C635 C634 1.400 . S
C635 C636 1.398 . S
C635 C641 1.491 . S
C636 H627 0.950 . S
C636 C635 1.398 . S
C636 C637 1.391 . S
C637 H625 0.950 . S
C637 C633 1.393 . S
C637 C636 1.391 . S
C638 H628 0.950 . S
C638 C639 1.386 . S
C638 C640 1.391 . S
C639 C638 1.386 . S
C639 C643 1.393 . S
C640 H629 0.950 . S
C640 C638 1.391 . S
C640 C641 1.400 . S
C641 C635 1.491 . S
C641 C640 1.400 . S
C641 C642 1.398 . S
C642 H630 0.950 . S
C642 C641 1.398 . S
C642 C643 1.391 . S
C643 H631 0.950 . S
C643 C639 1.393 . S
C643 C642 1.391 . S
H644 C652 0.950 . S
H645 C657 0.950 . S
H646 C654 0.950 . S
H647 C656 0.950 . S
H648 C658 0.950 . S
H649 C660 0.950 . S
H650 C662 0.950 . S
H651 C663 0.950 . S
C652 H644 0.950 . S
C652 C653 1.386 . S
C652 C654 1.391 . S
C653 C652 1.386 . S
C653 C657 1.393 . S
C654 H646 0.950 . S
C654 C652 1.391 . S
C654 C655 1.400 . S
C655 C654 1.400 . S
C655 C656 1.398 . S
C655 C661 1.491 . S
C656 H647 0.950 . S
C656 C655 1.398 . S
C656 C657 1.391 . S
C657 H645 0.950 . S
C657 C653 1.393 . S
C657 C656 1.391 . S
C658 H648 0.950 . S
C658 C659 1.386 . S
C658 C660 1.391 . S
C659 C658 1.386 . S
C659 C663 1.393 . S
C660 H649 0.950 . S
C660 C658 1.391 . S
C660 C661 1.400 . S
C661 C655 1.491 . S
C661 C660 1.400 . S
C661 C662 1.398 . S
C662 H650 0.950 . S
C662 C661 1.398 . S
C662 C663 1.391 . S
C663 H651 0.950 . S
C663 C659 1.393 . S
C663 C662 1.391 . S
H664 C672 0.950 . S
H665 C677 0.950 . S
H666 C674 0.950 . S
H667 C676 0.950 . S
H668 C678 0.950 . S
H669 C680 0.950 . S
H670 C682 0.950 . S
H671 C683 0.950 . S
C672 H664 0.950 . S
C672 C673 1.386 . S
C672 C674 1.391 . S
C673 C672 1.386 . S
C673 C677 1.393 . S
C674 H666 0.950 . S
C674 C672 1.391 . S
C674 C675 1.400 . S
C675 C674 1.400 . S
C675 C676 1.398 . S
C675 C681 1.491 . S
C676 H667 0.950 . S
C676 C675 1.398 . S
C676 C677 1.391 . S
C677 H665 0.950 . S
C677 C673 1.393 . S
C677 C676 1.391 . S
C678 H668 0.950 . S
C678 C679 1.386 . S
C678 C680 1.391 . S
C679 C678 1.386 . S
C679 C683 1.393 . S
C680 H669 0.950 . S
C680 C678 1.391 . S
C680 C681 1.400 . S
C681 C675 1.491 . S
C681 C680 1.400 . S
C681 C682 1.398 . S
C682 H670 0.950 . S
C682 C681 1.398 . S
C682 C683 1.391 . S
C683 H671 0.950 . S
C683 C679 1.393 . S
C683 C682 1.391 . S
H684 C692 0.950 . S
H685 C697 0.950 . S
H686 C694 0.950 . S
H687 C696 0.950 . S
H688 C698 0.950 . S
H689 C700 0.950 . S
H690 C702 0.950 . S
H691 C703 0.950 . S
C692 H684 0.950 . S
C692 C693 1.386 . S
C692 C694 1.391 . S
C693 C692 1.386 . S
C693 C697 1.393 . S
C694 H686 0.950 . S
C694 C692 1.391 . S
C694 C695 1.400 . S
C695 C694 1.400 . S
C695 C696 1.398 . S
C695 C701 1.491 . S
C696 H687 0.950 . S
C696 C695 1.398 . S
C696 C697 1.391 . S
C697 H685 0.950 . S
C697 C693 1.393 . S
C697 C696 1.391 . S
C698 H688 0.950 . S
C698 C699 1.386 . S
C698 C700 1.391 . S
C699 C698 1.386 . S
C699 C703 1.393 . S
C700 H689 0.950 . S
C700 C698 1.391 . S
C700 C701 1.400 . S
C701 C695 1.491 . S
C701 C700 1.400 . S
C701 C702 1.398 . S
C702 H690 0.950 . S
C702 C701 1.398 . S
C702 C703 1.391 . S
C703 H691 0.950 . S
C703 C699 1.393 . S
C703 C702 1.391 . S
H704 C712 0.950 . S
H705 C717 0.950 . S
H706 C714 0.950 . S
H707 C716 0.950 . S
H708 C718 0.950 . S
H709 C720 0.950 . S
H710 C722 0.950 . S
H711 C723 0.950 . S
C712 H704 0.950 . S
C712 C713 1.386 . S
C712 C714 1.391 . S
C713 C712 1.386 . S
C713 C717 1.393 . S
C714 H706 0.950 . S
C714 C712 1.391 . S
C714 C715 1.400 . S
C715 C714 1.400 . S
C715 C716 1.398 . S
C715 C721 1.491 . S
C716 H707 0.950 . S
C716 C715 1.398 . S
C716 C717 1.391 . S
C717 H705 0.950 . S
C717 C713 1.393 . S
C717 C716 1.391 . S
C718 H708 0.950 . S
C718 C719 1.386 . S
C718 C720 1.391 . S
C719 C718 1.386 . S
C719 C723 1.393 . S
C720 H709 0.950 . S
C720 C718 1.391 . S
C720 C721 1.400 . S
C721 C715 1.491 . S
C721 C720 1.400 . S
C721 C722 1.398 . S
C722 H710 0.950 . S
C722 C721 1.398 . S
C722 C723 1.391 . S
C723 H711 0.950 . S
C723 C719 1.393 . S
C723 C722 1.391 . S
H724 C732 0.950 . S
H725 C737 0.950 . S
H726 C734 0.950 . S
H727 C736 0.950 . S
H728 C738 0.950 . S
H729 C740 0.950 . S
H730 C742 0.950 . S
H731 C743 0.950 . S
C732 H724 0.950 . S
C732 C733 1.386 . S
C732 C734 1.391 . S
C733 C732 1.386 . S
C733 C737 1.393 . S
C734 H726 0.950 . S
C734 C732 1.391 . S
C734 C735 1.400 . S
C735 C734 1.400 . S
C735 C736 1.398 . S
C735 C741 1.491 . S
C736 H727 0.950 . S
C736 C735 1.398 . S
C736 C737 1.391 . S
C737 H725 0.950 . S
C737 C733 1.393 . S
C737 C736 1.391 . S
C738 H728 0.950 . S
C738 C739 1.386 . S
C738 C740 1.391 . S
C739 C738 1.386 . S
C739 C743 1.393 . S
C740 H729 0.950 . S
C740 C738 1.391 . S
C740 C741 1.400 . S
C741 C735 1.491 . S
C741 C740 1.400 . S
C741 C742 1.398 . S
C742 H730 0.950 . S
C742 C741 1.398 . S
C742 C743 1.391 . S
C743 H731 0.950 . S
C743 C739 1.393 . S
C743 C742 1.391 . S
C273 N1 0.887 . S
C279 C119 0.888 . S
C293 N18 1.581 . S
C299 C163 1.619 1_556 S
C319 C193 1.794 . S
C313 N28 1.773 . S
C333 N40 2.863 . S
C339 C234 2.853 . S
C359 C150 1.140 . S
C353 N5 1.140 . S
C379 C114 2.291 . S
C373 N14 2.252 . S
C399 C242 1.274 . S
C393 N31 1.270 . S
C419 C203 1.959 . S
C413 N41 1.984 . S
C433 N2 0.891 . S
C439 C239 0.886 . S
C459 C153 2.184 1_556 S
C453 N27 2.255 . S
C473 N44 2.013 . S
C479 C122 2.063 1_655 S
C493 N15 1.669 . S
C499 C190 1.671 . S
C519 C110 1.450 . S
C513 N57 1.474 . S
C533 N70 1.242 . S
C539 C154 1.263 . S
C553 N79 2.072 . S
C559 C202 2.174 . S
C573 N93 2.668 . S
C579 C243 2.616 . S
C593 N54 0.684 . S
C599 C159 0.672 . S
C619 C123 2.836 1_655 S
C613 N66 2.863 . S
C639 C233 0.723 . S
C633 N80 0.714 . S
C659 C194 2.071 . S
C653 N96 2.148 . S
C673 N53 0.881 . S
C679 C230 0.916 . S
C699 C162 1.638 . S
C693 N83 1.608 . S
C719 C113 2.147 . S
C713 N92 2.248 . S
C733 N67 2.083 . S
C739 C199 2.063 . S
