# Generated by pormake.
# Topology zzz, (3,6)-cn, num edge types: 1
# Building blocks:
#     Node 0, Type 0, BuildingBlock: MIDCAF_clean_linker_0, # of connection points: 3
#     Node 1, Type 0, BuildingBlock: MIDCAF_clean_linker_0, # of connection points: 3
#     Node 2, Type 0, BuildingBlock: MIDCAF_clean_linker_0, # of connection points: 3
#     Node 3, Type 0, BuildingBlock: MIDCAF_clean_linker_0, # of connection points: 3
#     Node 4, Type 0, BuildingBlock: MIDCAF_clean_linker_0, # of connection points: 3
#     Node 5, Type 0, BuildingBlock: MIDCAF_clean_linker_0, # of connection points: 3
#     Node 6, Type 0, BuildingBlock: MIDCAF_clean_linker_0, # of connection points: 3
#     Node 7, Type 0, BuildingBlock: MIDCAF_clean_linker_0, # of connection points: 3
#     Node 8, Type 1, BuildingBlock: KUMBOL_clean_sbu_1, # of connection points: 6
#     Node 9, Type 1, BuildingBlock: KUMBOL_clean_sbu_1, # of connection points: 6
#     Node 10, Type 1, BuildingBlock: KUMBOL_clean_sbu_1, # of connection points: 6
#     Node 11, Type 1, BuildingBlock: KUMBOL_clean_sbu_1, # of connection points: 6
#     Edge 12, Type (0, 1), BuildingBlock: UVAHIK_clean_linker_0, # of connection points: 2
#     Edge 13, Type (0, 1), BuildingBlock: UVAHIK_clean_linker_0, # of connection points: 2
#     Edge 14, Type (0, 1), BuildingBlock: UVAHIK_clean_linker_0, # of connection points: 2
#     Edge 15, Type (0, 1), BuildingBlock: UVAHIK_clean_linker_0, # of connection points: 2
#     Edge 16, Type (0, 1), BuildingBlock: UVAHIK_clean_linker_0, # of connection points: 2
#     Edge 17, Type (0, 1), BuildingBlock: UVAHIK_clean_linker_0, # of connection points: 2
#     Edge 18, Type (0, 1), BuildingBlock: UVAHIK_clean_linker_0, # of connection points: 2
#     Edge 19, Type (0, 1), BuildingBlock: UVAHIK_clean_linker_0, # of connection points: 2
#     Edge 20, Type (0, 1), BuildingBlock: UVAHIK_clean_linker_0, # of connection points: 2
#     Edge 21, Type (0, 1), BuildingBlock: UVAHIK_clean_linker_0, # of connection points: 2
#     Edge 22, Type (0, 1), BuildingBlock: UVAHIK_clean_linker_0, # of connection points: 2
#     Edge 23, Type (0, 1), BuildingBlock: UVAHIK_clean_linker_0, # of connection points: 2
#     Edge 24, Type (0, 1), BuildingBlock: UVAHIK_clean_linker_0, # of connection points: 2
#     Edge 25, Type (0, 1), BuildingBlock: UVAHIK_clean_linker_0, # of connection points: 2
#     Edge 26, Type (0, 1), BuildingBlock: UVAHIK_clean_linker_0, # of connection points: 2
#     Edge 27, Type (0, 1), BuildingBlock: UVAHIK_clean_linker_0, # of connection points: 2
#     Edge 28, Type (0, 1), BuildingBlock: UVAHIK_clean_linker_0, # of connection points: 2
#     Edge 29, Type (0, 1), BuildingBlock: UVAHIK_clean_linker_0, # of connection points: 2
#     Edge 30, Type (0, 1), BuildingBlock: UVAHIK_clean_linker_0, # of connection points: 2
#     Edge 31, Type (0, 1), BuildingBlock: UVAHIK_clean_linker_0, # of connection points: 2
#     Edge 32, Type (0, 1), BuildingBlock: UVAHIK_clean_linker_0, # of connection points: 2
#     Edge 33, Type (0, 1), BuildingBlock: UVAHIK_clean_linker_0, # of connection points: 2
#     Edge 34, Type (0, 1), BuildingBlock: UVAHIK_clean_linker_0, # of connection points: 2
#     Edge 35, Type (0, 1), BuildingBlock: UVAHIK_clean_linker_0, # of connection points: 2
# Relax obj value: 0.290
# Max RMSD: 0.212
# Mean RMSD: 0.181
data_MOF--net-zzz--node1-KUMBOL_clean_sbu_1--node2-MIDCAF_clean_linker_0--edge1-UVAHIK_clean_linker_0
_symmetry_space_group_name_H-M    P1
_symmetry_Int_Tables_number       1
_symmetry_cell_setting            triclinic
loop_
_symmetry_equiv_pos_as_xyz
'x, y, z'
_cell_length_a     70.477767
_cell_length_b     70.603115
_cell_length_c     26.141866
_cell_angle_alpha  90.044033
_cell_angle_beta   89.935571
_cell_angle_gamma 90.485072
loop_
_atom_site_label
_atom_site_type_symbol
_atom_site_fract_x
_atom_site_fract_y
_atom_site_fract_z
_atom_type_partial_charge
C0 C 0.78806 0.53395 0.28385 0.0
C1 C 0.80695 0.52923 0.27156 0.0
C2 C 0.81225 0.5289 0.21975 0.0
C3 C 0.7994 0.53377 0.18154 0.0
H4 H 0.71831 0.51889 0.12224 0.0
H5 H 0.68661 0.5128 0.08645 0.0
H6 H 0.68285 0.57175 0.04329 0.0
H7 H 0.71383 0.57769 0.08 0.0
H8 H 0.75227 0.574 0.98204 0.0
H9 H 0.76951 0.58137 0.90368 0.0
H10 H 0.82242 0.57985 0.98646 0.0
H11 H 0.80532 0.57245 0.06504 0.0
H12 H 0.76077 0.54284 0.25571 0.0
H13 H 0.78344 0.53422 0.32336 0.0
H14 H 0.82666 0.52561 0.20859 0.0
H15 H 0.80431 0.53384 0.14224 0.0
N16 N 0.74932 0.54437 0.15076 0.0
N17 N 0.74843 0.56142 0.07337 0.0
N18 N 0.7774 0.5565 0.11377 0.0
C19 C 0.73919 0.55184 0.11098 0.0
C20 C 0.76746 0.56382 0.07431 0.0
C21 C 0.76861 0.54693 0.15229 0.0
C22 C 0.7185 0.54878 0.10411 0.0
C23 C 0.71029 0.53062 0.10696 0.0
C24 C 0.69226 0.5271 0.08558 0.0
C25 C 0.68211 0.54171 0.06119 0.0
C26 C 0.68993 0.56011 0.06202 0.0
C27 C 0.70781 0.56356 0.08311 0.0
C28 C 0.77745 0.57218 0.0297 0.0
C29 C 0.76754 0.57567 0.98399 0.0
C30 C 0.77738 0.57992 0.93902 0.0
C31 C 0.79727 0.58099 0.93897 0.0
C32 C 0.80706 0.57923 0.98547 0.0
C33 C 0.79725 0.57481 0.03042 0.0
C34 C 0.78073 0.53908 0.19361 0.0
C35 C 0.77501 0.53869 0.24516 0.0
C36 C 0.96378 0.80756 0.2384 0.0
C37 C 0.97863 0.80513 0.27349 0.0
C38 C 0.99031 0.78912 0.26818 0.0
C39 C 0.98723 0.77598 0.22829 0.0
H40 H 0.004 0.71768 0.11565 0.0
H41 H 0.0104 0.68591 0.08173 0.0
H42 H 0.9511 0.67975 0.04213 0.0
H43 H 0.94492 0.71082 0.07725 0.0
H44 H 0.95388 0.74766 0.96737 0.0
H45 H 0.94786 0.76309 0.88595 0.0
H46 H 0.946 0.81735 0.96195 0.0
H47 H 0.95194 0.802 0.04382 0.0
H48 H 0.94948 0.79739 0.17184 0.0
H49 H 0.95464 0.8198 0.24071 0.0
H50 H 1.00185 0.78678 0.29471 0.0
H51 H 0.99661 0.76399 0.22452 0.0
N52 N 0.97425 0.74772 0.1462 0.0
N53 N 0.96367 0.74576 0.06094 0.0
N54 N 0.96314 0.77481 0.1032 0.0
C55 C 0.97072 0.73722 0.10314 0.0
C56 C 0.95998 0.76449 0.0603 0.0
C57 C 0.97014 0.76667 0.14635 0.0
C58 C 0.97393 0.71659 0.09962 0.0
C59 C 0.99228 0.70907 0.10185 0.0
C60 C 0.99596 0.69101 0.08143 0.0
C61 C 0.98134 0.68019 0.05831 0.0
C62 C 0.96276 0.68733 0.05995 0.0
C63 C 0.95915 0.70523 0.08023 0.0
C64 C 0.95373 0.77362 0.0122 0.0
C65 C 0.95192 0.76286 0.96708 0.0
C66 C 0.94847 0.77167 0.9203 0.0
C67 C 0.94661 0.79141 0.91757 0.0
C68 C 0.94722 0.80207 0.96298 0.0
C69 C 0.95078 0.79327 0.00985 0.0
C70 C 0.97267 0.77887 0.19243 0.0
C71 C 0.9609 0.79472 0.19851 0.0
C72 C 0.72482 0.96241 0.30002 0.0
C73 C 0.72193 0.98176 0.30996 0.0
C74 C 0.73302 0.99513 0.28282 0.0
C75 C 0.74572 0.9893 0.24445 0.0
H76 H 0.81307 0.97284 0.16135 0.0
H77 H 0.84308 0.98071 0.11744 0.0
H78 H 0.81317 0.98341 0.97362 0.0
H79 H 0.78363 0.97554 0.01692 0.0
H80 H 0.75478 0.93876 1.00396 0.0
H81 H 0.72991 0.92728 0.94683 0.0
H82 H 0.69291 0.91836 0.07669 0.0
H83 H 0.71776 0.9292 0.1336 0.0
H84 H 0.7382 0.94168 0.25282 0.0
H85 H 0.71649 0.95166 0.31948 0.0
H86 H 0.73134 0.01014 0.28986 0.0
H87 H 0.7531 0.99992 0.22194 0.0
N88 N 0.77237 0.97121 0.16383 0.0
N89 N 0.76745 0.95394 0.08769 0.0
N90 N 0.74546 0.9516 0.15408 0.0
C91 C 0.77832 0.966 0.11601 0.0
C92 C 0.75107 0.94659 0.1065 0.0
C93 C 0.75582 0.96382 0.18299 0.0
C94 C 0.79602 0.97356 0.09259 0.0
C95 C 0.81295 0.9755 0.12056 0.0
C96 C 0.83011 0.97982 0.09535 0.0
C97 C 0.83052 0.98265 0.04198 0.0
C98 C 0.81339 0.98151 0.01473 0.0
C99 C 0.79644 0.97691 0.03959 0.0
C100 C 0.73807 0.93546 0.07329 0.0
C101 C 0.74153 0.93382 0.02048 0.0
C102 C 0.72726 0.92727 0.98765 0.0
C103 C 0.70926 0.92228 0.00698 0.0
C104 C 0.70657 0.92201 0.06028 0.0
C105 C 0.72082 0.92848 0.09304 0.0
C106 C 0.7474 0.97 0.23221 0.0
C107 C 0.73731 0.95665 0.26163 0.0
C108 C 0.5908 0.71336 0.0189 0.0
C109 C 0.58769 0.71783 0.96713 0.0
C110 C 0.5804 0.73577 0.95501 0.0
C111 C 0.57501 0.74829 0.99362 0.0
H112 H 0.57601 0.80966 0.07763 0.0
H113 H 0.56855 0.83941 0.03568 0.0
H114 H 0.50892 0.8296 0.06468 0.0
H115 H 0.51661 0.79952 0.10718 0.0
H116 H 0.51658 0.74629 0.20159 0.0
H117 H 0.50996 0.72188 0.26628 0.0
H118 H 0.56986 0.71888 0.30001 0.0
H119 H 0.57631 0.74263 0.23455 0.0
H120 H 0.58678 0.72147 0.09707 0.0
H121 H 0.59683 0.69989 0.02969 0.0
H122 H 0.57756 0.73973 0.91578 0.0
H123 H 0.56848 0.76152 0.98275 0.0
N124 N 0.56203 0.7726 0.07544 0.0
N125 N 0.54614 0.77435 0.15464 0.0
N126 N 0.56229 0.74663 0.13053 0.0
C127 C 0.55166 0.78263 0.10964 0.0
C128 C 0.5518 0.75628 0.16527 0.0
C129 C 0.56729 0.75458 0.08535 0.0
C130 C 0.5469 0.80238 0.09601 0.0
C131 C 0.56135 0.81413 0.07641 0.0
C132 C 0.55705 0.83122 0.05236 0.0
C133 C 0.53812 0.83692 0.04648 0.0
C134 C 0.52365 0.82556 0.06824 0.0
C135 C 0.52802 0.80848 0.09314 0.0
C136 C 0.54694 0.74641 0.21346 0.0
C137 C 0.52818 0.74085 0.22426 0.0
C138 C 0.52444 0.72678 0.26113 0.0
C139 C 0.53943 0.71806 0.28772 0.0
C140 C 0.558 0.72486 0.27945 0.0
C141 C 0.56171 0.73869 0.24249 0.0
C142 C 0.57652 0.74306 0.04528 0.0
C143 C 0.58511 0.72576 0.05757 0.0
C144 C 0.21212 0.49723 0.98134 0.0
C145 C 0.21501 0.48939 0.93255 0.0
C146 C 0.23173 0.47905 0.92363 0.0
C147 C 0.24488 0.47608 0.96323 0.0
H148 H 0.30177 0.50534 0.09703 0.0
H149 H 0.33296 0.51094 0.13642 0.0
H150 H 0.33686 0.45133 0.17146 0.0
H151 H 0.30593 0.44592 0.13244 0.0
H152 H 0.26312 0.46277 0.23952 0.0
H153 H 0.24381 0.45643 0.31446 0.0
H154 H 0.19666 0.44075 0.21698 0.0
H155 H 0.2158 0.44812 0.14183 0.0
H156 H 0.22183 0.49935 0.05875 0.0
H157 H 0.19936 0.50508 0.98977 0.0
H158 H 0.23439 0.47289 0.88638 0.0
H159 H 0.2572 0.4674 0.95603 0.0
N160 N 0.27168 0.47857 0.0604 0.0
N161 N 0.27084 0.46484 0.14247 0.0
N162 N 0.24263 0.46898 0.09732 0.0
C163 C 0.28093 0.4725 0.1033 0.0
C164 C 0.25175 0.46301 0.13986 0.0
C165 C 0.25238 0.47661 0.05739 0.0
C166 C 0.30156 0.47517 0.11125 0.0
C167 C 0.30971 0.49338 0.11127 0.0
C168 C 0.32743 0.4966 0.13453 0.0
C169 C 0.33737 0.48161 0.15763 0.0
C170 C 0.32977 0.46319 0.15377 0.0
C171 C 0.31204 0.46005 0.13126 0.0
C172 C 0.24087 0.45627 0.18476 0.0
C173 C 0.24871 0.45769 0.23402 0.0
C174 C 0.23763 0.45389 0.27715 0.0
C175 C 0.21853 0.44828 0.27201 0.0
C176 C 0.21115 0.44552 0.2225 0.0
C177 C 0.22214 0.44967 0.17936 0.0
C178 C 0.24133 0.48308 0.01259 0.0
C179 C 0.22501 0.49395 0.0209 0.0
C180 C 0.05777 0.20878 0.97401 0.0
C181 C 0.04383 0.21191 0.9367 0.0
C182 C 0.03334 0.22884 0.93928 0.0
C183 C 0.03667 0.24214 0.97861 0.0
H184 H 0.01607 0.29621 0.1093 0.0
H185 H 0.0086 0.32713 0.14685 0.0
H186 H 0.06844 0.34078 0.15244 0.0
H187 H 0.07564 0.31017 0.11458 0.0
H188 H 0.06754 0.27077 0.24137 0.0
H189 H 0.07271 0.25481 0.32259 0.0
H190 H 0.08092 0.20193 0.24296 0.0
H191 H 0.07583 0.21778 0.16147 0.0
H192 H 0.07174 0.21862 0.04123 0.0
H193 H 0.06594 0.19585 0.97406 0.0
H194 H 0.02255 0.23178 0.91101 0.0
H195 H 0.02819 0.25484 0.98012 0.0
N196 N 0.04803 0.26996 0.06181 0.0
N197 N 0.05938 0.27284 0.14623 0.0
N198 N 0.06112 0.24376 0.10439 0.0
C199 C 0.05142 0.28078 0.10435 0.0
C200 C 0.06418 0.25435 0.14682 0.0
C201 C 0.05322 0.2513 0.06164 0.0
C202 C 0.0464 0.30099 0.10814 0.0
C203 C 0.02748 0.30626 0.11628 0.0
C204 C 0.02327 0.32383 0.13872 0.0
C205 C 0.03792 0.33643 0.15346 0.0
C206 C 0.05674 0.33164 0.1413 0.0
C207 C 0.0609 0.3141 0.11926 0.0
C208 C 0.07085 0.24548 0.19483 0.0
C209 C 0.07084 0.25582 0.24088 0.0
C210 C 0.07381 0.24671 0.28751 0.0
C211 C 0.07702 0.22713 0.28907 0.0
C212 C 0.0786 0.21708 0.24288 0.0
C213 C 0.0755 0.22615 0.19619 0.0
C214 C 0.05037 0.23863 0.0165 0.0
C215 C 0.06098 0.22187 0.01309 0.0
C216 C 0.30615 0.02146 0.9839 0.0
C217 C 0.30135 0.02374 0.93206 0.0
C218 C 0.28328 0.03107 0.92029 0.0
C219 C 0.27087 0.03691 0.95945 0.0
H220 H 0.21664 0.02205 0.08951 0.0
H221 H 0.18581 0.01596 0.13049 0.0
H222 H 0.1885 0.07123 0.20136 0.0
H223 H 0.21858 0.07739 0.15988 0.0
H224 H 0.26107 0.08553 0.21122 0.0
H225 H 0.28336 0.09931 0.27248 0.0
H226 H 0.32941 0.08889 0.16694 0.0
H227 H 0.30732 0.07598 0.1057 0.0
H228 H 0.2986 0.02634 0.06195 0.0
H229 H 0.31994 0.01621 0.99494 0.0
H230 H 0.27899 0.03288 0.88086 0.0
H231 H 0.25758 0.04354 0.9494 0.0
N232 N 0.24782 0.04356 0.06381 0.0
N233 N 0.25127 0.06522 0.13198 0.0
N234 N 0.27729 0.05815 0.08058 0.0
C235 C 0.24009 0.05325 0.10414 0.0
C236 C 0.26983 0.0678 0.1204 0.0
C237 C 0.26656 0.04619 0.05193 0.0
C238 C 0.22017 0.05016 0.12154 0.0
C239 C 0.21038 0.03302 0.1129 0.0
C240 C 0.19281 0.02947 0.13688 0.0
C241 C 0.18461 0.04306 0.16959 0.0
C242 C 0.1941 0.06048 0.17608 0.0
C243 C 0.21155 0.06396 0.15246 0.0
C244 C 0.28244 0.07924 0.15392 0.0
C245 C 0.27591 0.08662 0.20068 0.0
C246 C 0.2887 0.09446 0.23594 0.0
C247 C 0.30827 0.09503 0.22517 0.0
C248 C 0.31449 0.08897 0.17672 0.0
C249 C 0.30175 0.08128 0.14155 0.0
C250 C 0.27638 0.0356 0.01093 0.0
C251 C 0.29389 0.02732 0.02259 0.0
C252 C 0.46017 0.31208 0.25497 0.0
C253 C 0.45044 0.30301 0.29528 0.0
C254 C 0.44411 0.28425 0.28816 0.0
C255 C 0.44837 0.27449 0.24307 0.0
H256 H 0.44692 0.22014 0.16412 0.0
H257 H 0.45155 0.18905 0.2008 0.0
H258 H 0.50826 0.18774 0.13785 0.0
H259 H 0.50361 0.21951 0.10196 0.0
H260 H 0.50363 0.30178 0.08192 0.0
H261 H 0.50931 0.32524 0.01546 0.0
H262 H 0.47754 0.29094 0.90822 0.0
H263 H 0.47227 0.26702 0.97532 0.0
H264 H 0.47235 0.30969 0.18046 0.0
H265 H 0.46562 0.32638 0.25913 0.0
H266 H 0.43628 0.27691 0.3179 0.0
H267 H 0.44382 0.25986 0.23947 0.0
N268 N 0.46589 0.25332 0.16091 0.0
N269 N 0.48074 0.25215 0.08019 0.0
N270 N 0.47278 0.2814 0.11769 0.0
C271 C 0.47349 0.24303 0.12221 0.0
C272 C 0.48016 0.27152 0.07789 0.0
C273 C 0.46551 0.27244 0.15912 0.0
C274 C 0.47489 0.22229 0.13013 0.0
C275 C 0.4602 0.213 0.15678 0.0
C276 C 0.46288 0.19505 0.17781 0.0
C277 C 0.48037 0.18579 0.17294 0.0
C278 C 0.49469 0.19454 0.14312 0.0
C279 C 0.49195 0.21261 0.12176 0.0
C280 C 0.48751 0.28258 0.03381 0.0
C281 C 0.49832 0.29897 0.04374 0.0
C282 C 0.50138 0.31254 0.00573 0.0
C283 C 0.49346 0.31028 0.95674 0.0
C284 C 0.48383 0.29317 0.94553 0.0
C285 C 0.48089 0.2794 0.98381 0.0
C286 C 0.45885 0.28336 0.2039 0.0
C287 C 0.4642 0.30243 0.20974 0.0
C288 C 0.06076 0.02625 0.69247 0.0
C289 C 0.05192 0.03583 0.77834 0.0
C290 C 0.04869 0.02487 0.73409 0.0
C291 C 0.06715 0.04878 0.7793 0.0
C292 C 0.07663 0.03854 0.69423 0.0
C293 C 0.07948 0.05014 0.7373 0.0
N294 N 0.05766 0.01469 0.65167 0.0
C295 C 0.07107 0.01321 0.61418 0.0
C296 C 0.08951 0.03829 0.65346 0.0
C297 C 0.08691 0.02528 0.61377 0.0
Gd298 Gd 0.9895 0.01944 0.56446 0.0
Gd299 Gd 0.0295 0.99638 0.65405 0.0
N300 N 0.03394 0.01245 0.73162 0.0
C301 C 0.0399 0.03321 0.8205 0.0
C302 C 0.02269 0.00915 0.77324 0.0
C303 C 0.02538 0.01961 0.81816 0.0
H304 H 0.01143 0.9987 0.77127 0.0
H305 H 0.01621 0.01726 0.85082 0.0
H306 H 0.01196 0.03813 0.46156 0.0
H307 H 0.06985 1.00251 0.5849 0.0
H308 H 0.01784 0.02958 0.37151 0.0
H309 H 0.0419 0.04135 0.85525 0.0
H310 H 0.06975 0.05751 0.81271 0.0
H311 H 0.95006 0.99691 0.59934 0.0
H312 H 0.10188 0.0475 0.65332 0.0
H313 H 0.09725 0.02434 0.58324 0.0
H314 H 0.97621 0.97652 0.34208 0.0
H315 H 0.09147 0.05983 0.73909 0.0
H316 H 0.93238 0.96062 0.47623 0.0
H317 H 0.92748 0.97319 0.56372 0.0
N318 N 0.96744 0.9973 0.53293 0.0
C319 C 0.96967 0.99153 0.48385 0.0
C320 C 0.95211 0.9915 0.56103 0.0
C321 C 0.9422 0.97104 0.4916 0.0
C322 C 0.93937 0.97812 0.541 0.0
C323 C 0.95736 0.97794 0.46208 0.0
H324 H 0.95111 0.96148 0.39403 0.0
N325 N 0.99409 0.0143 0.47612 0.0
C326 C 0.98371 1.00006 0.45477 0.0
C327 C 0.99896 0.00542 0.3732 0.0
C328 C 0.98594 0.99512 0.40285 0.0
C329 C 0.00538 0.02551 0.44612 0.0
C330 C 0.00843 0.02094 0.3947 0.0
O331 O 0.01542 0.02402 0.67609 0.0
O332 O 0.01206 0.03849 0.59889 0.0
O333 O 0.97499 0.04135 0.52144 0.0
O334 O 0.96693 0.03556 0.59953 0.0
O335 O 0.99919 0.98945 0.67836 0.0
O336 O 0.98116 0.01418 0.64666 0.0
O337 O 0.99018 0.9874 0.57657 0.0
O338 O 0.02191 0.9823 0.57951 0.0
O339 O 0.02543 0.96956 0.6929 0.0
O340 O 0.05374 0.97895 0.67351 0.0
O341 O 0.02029 0.02712 0.54604 0.0
O342 O 0.0362 1.00019 0.56959 0.0
C343 C 0.01527 0.03945 0.64822 0.0
C344 C 0.98385 1.00009 0.67885 0.0
C345 C 0.96533 0.06709 0.57342 0.0
C346 C 0.98168 0.09767 0.57709 0.0
C347 C 0.95022 0.09391 0.61418 0.0
C348 C 0.94982 0.07493 0.59921 0.0
C349 C 0.96603 0.10526 0.6032 0.0
C350 C 0.98131 0.07844 0.56292 0.0
C351 C 0.96504 0.04681 0.56069 0.0
C352 C 0.97454 0.98068 0.38173 0.0
C353 C 0.96023 0.97214 0.41127 0.0
H354 H 1.00113 1.00206 0.33318 0.0
C355 C 0.00478 0.97639 0.56835 0.0
C356 C 0.03448 0.01526 0.54032 0.0
C357 C 0.04587 0.94678 0.65709 0.0
C358 C 0.03259 0.91707 0.62392 0.0
C359 C 0.06347 0.92823 0.59487 0.0
C360 C 0.06204 0.94415 0.62639 0.0
C361 C 0.04882 0.91478 0.59336 0.0
C362 C 0.03142 0.93297 0.6562 0.0
C363 C 0.04302 0.96459 0.6861 0.0
H364 H 0.9382 0.09988 0.63409 0.0
H365 H 0.93747 0.06631 0.6082 0.0
H366 H 0.96582 0.12006 0.61409 0.0
H367 H 0.9935 0.07227 0.54407 0.0
H368 H 0.07589 0.92641 0.57103 0.0
H369 H 0.07342 0.95456 0.62593 0.0
H370 H 0.05009 0.90273 0.56798 0.0
H371 H 0.01911 0.93467 0.68061 0.0
C372 C 0.49529 0.94756 0.60081 0.0
C373 C 0.46339 0.94269 0.6328 0.0
C374 C 0.47718 0.9543 0.60897 0.0
C375 C 0.46854 0.92477 0.65131 0.0
C376 C 0.50018 0.92907 0.61589 0.0
C377 C 0.4869 0.91795 0.64274 0.0
N378 N 0.50781 0.95872 0.57515 0.0
C379 C 0.52475 0.9517 0.55858 0.0
C380 C 0.51801 0.92213 0.60189 0.0
C381 C 0.5302 0.93337 0.57221 0.0
Gd382 Gd 0.51683 0.02899 0.65433 0.0
Gd383 Gd 0.498 0.98947 0.55516 0.0
N384 N 0.4726 0.97145 0.58926 0.0
C385 C 0.44466 0.94905 0.63494 0.0
C386 C 0.45401 0.97669 0.58634 0.0
C387 C 0.43987 0.96592 0.61051 0.0
H388 H 0.44998 0.98926 0.56559 0.0
H389 H 0.42526 0.97053 0.60969 0.0
H390 H 0.55675 0.04685 0.60624 0.0
H391 H 0.53419 0.9605 0.53604 0.0
H392 H 0.56775 0.07612 0.56261 0.0
H393 H 0.43364 0.94059 0.65301 0.0
H394 H 0.45821 0.91576 0.67037 0.0
H395 H 0.47623 0.04116 0.71627 0.0
H396 H 0.52229 0.90798 0.61259 0.0
H397 H 0.54382 0.92798 0.56016 0.0
H398 H 0.51277 0.11599 0.56244 0.0
H399 H 0.49048 0.90382 0.65547 0.0
H400 H 0.45857 0.09476 0.65814 0.0
H401 H 0.45262 0.06659 0.71226 0.0
N402 N 0.49435 0.05353 0.65989 0.0
C403 C 0.49861 0.06958 0.63346 0.0
C404 C 0.47861 0.05286 0.69041 0.0
C405 C 0.46877 0.08336 0.65862 0.0
C406 C 0.46534 0.06747 0.68914 0.0
C407 C 0.48585 0.08484 0.6315 0.0
H408 H 0.48114 0.11309 0.6019 0.0
N409 N 0.52863 0.05669 0.61627 0.0
C410 C 0.51643 0.07133 0.61159 0.0
C411 C 0.54058 0.08978 0.56828 0.0
C412 C 0.52196 0.0882 0.58674 0.0
C413 C 0.54704 0.0584 0.60061 0.0
C414 C 0.55325 0.07491 0.57595 0.0
O415 O 0.51674 0.98113 0.62263 0.0
O416 O 0.50562 1.00112 0.68331 0.0
O417 O 0.54117 0.02356 0.70281 0.0
O418 O 0.52077 0.04466 0.72509 0.0
O419 O 0.47618 0.00975 0.58863 0.0
O420 O 0.48837 0.01473 0.66879 0.0
O421 O 0.51762 0.03418 0.56872 0.0
O422 O 0.49009 0.02012 0.54303 0.0
O423 O 0.48237 0.97542 0.49426 0.0
O424 O 0.50878 0.98971 0.47738 0.0
O425 O 0.54082 0.0129 0.61603 0.0
O426 O 0.52848 0.99871 0.54229 0.0
C427 C 0.51324 0.98495 0.67085 0.0
C428 C 0.47379 0.01305 0.63774 0.0
C429 C 0.5312 0.02337 0.78898 0.0
C430 C 0.53948 0.99723 0.84584 0.0
C431 C 0.51122 0.01572 0.8622 0.0
C432 C 0.5151 0.02689 0.81934 0.0
C433 C 0.52327 1.00093 0.87538 0.0
C434 C 0.5434 0.00862 0.80291 0.0
C435 C 0.53435 0.03363 0.74024 0.0
C436 C 0.5089 0.103 0.58206 0.0
C437 C 0.49086 0.10132 0.6044 0.0
H438 H 0.54539 0.10251 0.54896 0.0
C439 C 0.50277 0.03371 0.53858 0.0
C440 C 0.54281 0.00475 0.57072 0.0
C441 C 0.48536 0.99022 0.41421 0.0
C442 C 0.46461 0.01421 0.37798 0.0
C443 C 0.48192 0.99267 0.32235 0.0
C444 C 0.48992 0.98395 0.36495 0.0
C445 C 0.46929 0.00763 0.32868 0.0
C446 C 0.47288 0.0054 0.42064 0.0
C447 C 0.49398 0.98111 0.45868 0.0
H448 H 0.49871 0.01843 0.88504 0.0
H449 H 0.50527 0.03802 0.80952 0.0
H450 H 0.51986 0.99231 0.90845 0.0
H451 H 0.55597 0.00598 0.78015 0.0
H452 H 0.48537 0.98771 0.2843 0.0
H453 H 0.49965 0.97231 0.35949 0.0
H454 H 0.46291 0.01375 0.29493 0.0
H455 H 0.46968 0.01031 0.45893 0.0
C456 C 0.47062 0.4958 0.74017 0.0
C457 C 0.48715 0.50023 0.82046 0.0
C458 C 0.48467 0.50473 0.76835 0.0
C459 C 0.47608 0.48575 0.84264 0.0
C460 C 0.45857 0.48222 0.76309 0.0
C461 C 0.46177 0.47679 0.81402 0.0
N462 N 0.46798 0.50131 0.69105 0.0
C463 C 0.45252 0.49523 0.66401 0.0
C464 C 0.44329 0.47503 0.73463 0.0
C465 C 0.44005 0.48183 0.68518 0.0
Gd466 Gd 0.52945 0.50168 0.56511 0.0
Gd467 Gd 0.48969 0.52342 0.65779 0.0
N468 N 0.49467 0.51902 0.74608 0.0
C469 C 0.49999 0.51106 0.84927 0.0
C470 C 0.50566 0.53081 0.77527 0.0
C471 C 0.50896 0.5267 0.82682 0.0
H472 H 0.51176 0.54351 0.75899 0.0
H473 H 0.51815 0.53577 0.84938 0.0
H474 H 0.51057 0.50333 0.44886 0.0
H475 H 0.45011 0.50044 0.6257 0.0
H476 H 0.51347 0.52267 0.3701 0.0
H477 H 0.50233 0.50807 0.8894 0.0
H478 H 0.47795 0.48193 0.88243 0.0
H479 H 0.5698 0.51045 0.63272 0.0
H480 H 0.43366 0.46461 0.75091 0.0
H481 H 0.42804 0.47668 0.66331 0.0
H482 H 0.56395 0.5667 0.40804 0.0
H483 H 0.45286 0.46615 0.83212 0.0
H484 H 0.59769 0.55827 0.56541 0.0
H485 H 0.59536 0.53436 0.63433 0.0
N486 N 0.55617 0.52208 0.56736 0.0
C487 C 0.55817 0.53404 0.52691 0.0
C488 C 0.56993 0.52141 0.60405 0.0
C489 C 0.58608 0.54811 0.56532 0.0
C490 C 0.58477 0.53469 0.60437 0.0
C491 C 0.573 0.54757 0.52513 0.0
H492 H 0.58582 0.57027 0.48085 0.0
N493 N 0.53225 0.51845 0.48816 0.0
C494 C 0.54604 0.53194 0.48566 0.0
C495 C 0.5361 0.54014 0.40015 0.0
C496 C 0.54814 0.5434 0.44188 0.0
C497 C 0.52102 0.51458 0.44691 0.0
C498 C 0.52264 0.52549 0.40243 0.0
O499 O 0.49069 0.49141 0.64524 0.0
O500 O 0.52248 0.48644 0.63845 0.0
O501 O 0.52696 0.47488 0.52513 0.0
O502 O 0.5547 0.48637 0.54223 0.0
O503 O 0.52052 0.53104 0.67552 0.0
O504 O 0.53675 0.50461 0.64946 0.0
O505 O 0.51339 0.52836 0.54544 0.0
O506 O 0.51185 0.54274 0.62277 0.0
O507 O 0.47354 0.54364 0.70239 0.0
O508 O 0.46906 0.54151 0.62095 0.0
O509 O 0.49936 0.49353 0.54186 0.0
O510 O 0.47978 0.51644 0.5776 0.0
C511 C 0.50551 0.48048 0.65142 0.0
C512 C 0.53471 0.51916 0.68053 0.0
C513 C 0.55011 0.45344 0.55483 0.0
C514 C 0.54085 0.42215 0.58679 0.0
C515 C 0.5725 0.43452 0.60327 0.0
C516 C 0.56819 0.45106 0.57653 0.0
C517 C 0.55894 0.4201 0.60838 0.0
C518 C 0.53656 0.43883 0.56008 0.0
C519 C 0.54501 0.47137 0.52906 0.0
C520 C 0.56226 0.55755 0.44103 0.0
C521 C 0.57467 0.55963 0.48258 0.0
H522 H 0.53725 0.54865 0.36579 0.0
C523 C 0.51368 0.54385 0.57304 0.0
C524 C 0.48335 0.50316 0.54341 0.0
C525 C 0.46798 0.57178 0.65675 0.0
C526 C 0.48755 0.60035 0.66357 0.0
C527 C 0.45564 0.60192 0.62838 0.0
C528 C 0.45327 0.58245 0.6357 0.0
C529 C 0.47263 0.61087 0.6423 0.0
C530 C 0.48514 0.58072 0.67001 0.0
C531 C 0.46578 0.5512 0.66224 0.0
H532 H 0.58643 0.43286 0.62002 0.0
H533 H 0.57895 0.46204 0.57326 0.0
H534 H 0.56258 0.40735 0.62903 0.0
H535 H 0.5227 0.44028 0.54269 0.0
H536 H 0.44422 0.61013 0.61218 0.0
H537 H 0.44003 0.5757 0.62463 0.0
H538 H 0.47391 0.62605 0.63739 0.0
H539 H 0.49667 0.57232 0.68503 0.0
C540 C 0.02444 0.46867 0.73762 0.0
C541 C 0.0193 0.48465 0.81827 0.0
C542 C 0.0152 0.4823 0.76587 0.0
C543 C 0.03372 0.47384 0.84077 0.0
C544 C 0.03796 0.45685 0.7607 0.0
C545 C 0.04301 0.45991 0.81204 0.0
N546 N 0.01919 0.46613 0.68824 0.0
C547 C 0.02545 0.45088 0.66101 0.0
C548 C 0.0454 0.44187 0.73202 0.0
C549 C 0.03883 0.43865 0.68227 0.0
Gd550 Gd 0.01939 0.52799 0.56252 0.0
Gd551 Gd 0.99739 0.48765 0.65429 0.0
N552 N 1.00098 0.49202 0.74317 0.0
C553 C 0.00818 0.49711 0.84693 0.0
C554 C 0.98899 0.50274 0.77199 0.0
C555 C 0.99269 0.50589 0.82389 0.0
H556 H 0.97648 0.50881 0.75504 0.0
H557 H 0.98345 0.51486 0.8462 0.0
H558 H 0.01543 0.50967 0.44573 0.0
H559 H 0.02047 0.44855 0.6224 0.0
H560 H 0.99438 0.5125 0.37024 0.0
H561 H 0.01087 0.49936 0.88729 0.0
H562 H 0.03726 0.4756 0.88083 0.0
H563 H 0.01265 0.56803 0.63199 0.0
H564 H 0.05578 0.43241 0.74839 0.0
H565 H 0.04414 0.42684 0.66022 0.0
H566 H 0.95173 0.56261 0.41578 0.0
H567 H 0.05359 0.45117 0.83033 0.0
H568 H 0.96392 0.59605 0.57227 0.0
H569 H 0.98916 0.59356 0.63762 0.0
N570 N 0.9996 0.55476 0.56772 0.0
C571 C 0.9869 0.55686 0.52912 0.0
C572 C 1.00118 0.56834 0.60474 0.0
C573 C 0.97395 0.58452 0.57034 0.0
C574 C 0.98812 0.58312 0.60738 0.0
C575 C 0.97351 0.57159 0.52976 0.0
H576 H 0.94999 0.58433 0.48937 0.0
N577 N 1.00141 0.53119 0.4876 0.0
C578 C 0.98801 0.54487 0.48738 0.0
C579 C 0.9778 0.53494 0.40332 0.0
C580 C 0.9756 0.54693 0.44559 0.0
C581 C 0.00428 0.52007 0.44561 0.0
C582 C 0.99238 0.52163 0.40305 0.0
O583 O 0.02948 0.48876 0.64195 0.0
O584 O 0.03495 0.52052 0.63484 0.0
O585 O 0.04537 0.52573 0.51869 0.0
O586 O 0.0355 0.55327 0.54175 0.0
O587 O 0.99048 0.51841 0.67344 0.0
O588 O 0.01719 0.53465 0.6474 0.0
O589 O 0.99237 0.51177 0.54398 0.0
O590 O 0.97833 0.51015 0.62167 0.0
O591 O 0.97556 0.47173 0.69505 0.0
O592 O 0.98053 0.46643 0.61487 0.0
O593 O 0.02736 0.49821 0.53808 0.0
O594 O 0.0043 0.47838 0.5735 0.0
C595 C 0.04076 0.50356 0.64706 0.0
C596 C 1.00273 0.53247 0.6789 0.0
C597 C 0.06833 0.54713 0.55121 0.0
C598 C 0.099 0.53535 0.5806 0.0
C599 C 0.08859 0.56675 0.60524 0.0
C600 C 0.0718 0.56418 0.57758 0.0
C601 C 0.10214 0.55243 0.60688 0.0
C602 C 0.08215 0.5329 0.55258 0.0
C603 C 0.04988 0.54346 0.52568 0.0
C604 C 0.96158 0.56094 0.44722 0.0
C605 C 0.96055 0.57327 0.48921 0.0
H606 H 0.96852 0.53605 0.37044 0.0
C607 C 0.97706 0.51245 0.57219 0.0
C608 C 0.01764 0.48212 0.53939 0.0
C609 C 0.94909 0.4649 0.64214 0.0
C610 C 0.91981 0.48309 0.64135 0.0
C611 C 0.9212 0.45247 0.59895 0.0
C612 C 0.94012 0.45056 0.61377 0.0
C613 C 0.91106 0.46863 0.61257 0.0
C614 C 0.93895 0.4812 0.65544 0.0
C615 C 0.96942 0.46341 0.6537 0.0
H616 H 0.09108 0.57987 0.62569 0.0
H617 H 0.06143 0.57542 0.57749 0.0
H618 H 0.11502 0.55466 0.62873 0.0
H619 H 0.07984 0.51986 0.53152 0.0
H620 H 0.91435 0.44137 0.57694 0.0
H621 H 0.94783 0.43802 0.60246 0.0
H622 H 0.8963 0.46962 0.60152 0.0
H623 H 0.94602 0.49252 0.6762 0.0
C624 C 0.15372 0.05337 0.2095 0.0
C625 C 0.16693 0.03896 0.1996 0.0
C626 C 0.13843 0.05032 0.24286 0.0
C627 C 0.1233 0.01878 0.34967 0.0
H628 H 0.07491 0.04367 0.33201 0.0
C629 C 0.05903 1.00264 0.48025 0.0
C630 C 0.04854 0.01811 0.49848 0.0
C631 C 0.07279 0.00508 0.4422 0.0
C632 C 0.0884 0.03675 0.3377 0.0
H633 H 0.17375 0.00969 0.2159 0.0
H634 H 0.14675 1.00414 0.27241 0.0
H635 H 0.09955 0.04734 0.26693 0.0
H636 H 0.04427 0.04831 0.49062 0.0
H637 H 0.06817 0.05256 0.42326 0.0
H638 H 0.11204 0.00805 0.42018 0.0
C639 C 0.14849 0.01802 0.2554 0.0
C640 C 0.10258 0.03885 0.30037 0.0
C641 C 0.16387 0.02111 0.22222 0.0
C642 C 0.05196 0.03608 0.47705 0.0
C643 C 0.06565 0.0385 0.43848 0.0
C644 C 0.10908 0.01656 0.3867 0.0
C645 C 0.13576 0.03271 0.2671 0.0
C646 C 0.12028 0.02994 0.30585 0.0
C647 C 0.07637 0.02304 0.42094 0.0
C648 C 0.09146 0.02554 0.3813 0.0
H649 H 0.15537 0.06722 0.19221 0.0
H650 H 0.1291 0.06205 0.25092 0.0
H651 H 0.13682 0.01202 0.35607 0.0
H652 H 0.05666 0.98856 0.49552 0.0
H653 H 0.08056 0.99282 0.42912 0.0
C654 C 0.50148 0.1652 0.22737 0.0
C655 C 0.48395 0.16808 0.20291 0.0
C656 C 0.504 0.14994 0.26093 0.0
C657 C 0.48198 0.10403 0.30408 0.0
H658 H 0.51235 0.1131 0.42537 0.0
C659 C 0.48269 0.05266 0.47803 0.0
C660 C 0.50058 0.04853 0.49875 0.0
C661 C 0.48073 0.06698 0.44128 0.0
C662 C 0.50393 0.11029 0.39151 0.0
H663 H 0.45567 0.15627 0.19286 0.0
H664 H 0.4598 0.13023 0.25233 0.0
H665 H 0.50918 0.13803 0.3616 0.0
H666 H 0.53047 0.05584 0.49596 0.0
H667 H 0.52703 0.08095 0.43268 0.0
H668 H 0.47649 0.07639 0.3349 0.0
C669 C 0.47175 0.13962 0.24534 0.0
C670 C 0.50218 0.12457 0.35465 0.0
C671 C 0.46929 0.15477 0.21149 0.0
C672 C 0.51644 0.05891 0.48156 0.0
C673 C 0.51447 0.07329 0.44518 0.0
C674 C 0.48359 0.08982 0.34122 0.0
C675 C 0.48904 0.13713 0.27133 0.0
C676 C 0.49121 0.12167 0.31023 0.0
C677 C 0.4966 0.0775 0.42446 0.0
C678 C 0.49461 0.09275 0.38534 0.0
H679 H 0.51308 0.17517 0.22226 0.0
H680 H 0.51767 0.14834 0.27921 0.0
H681 H 0.47366 0.10103 0.2702 0.0
H682 H 0.47016 0.04505 0.49085 0.0
H683 H 0.46672 0.07009 0.42675 0.0
C684 C 0.35446 0.50022 0.22592 0.0
C685 C 0.35437 0.4852 0.19054 0.0
C686 C 0.3691 0.50214 0.2618 0.0
C687 C 0.4182 0.48742 0.29334 0.0
H688 H 0.40254 0.49825 0.43242 0.0
C689 C 0.47101 0.48587 0.46507 0.0
C690 C 0.46878 0.49987 0.50291 0.0
C691 C 0.45741 0.48351 0.42623 0.0
C692 C 0.40726 0.49546 0.39374 0.0
H693 H 0.37023 0.46094 0.16381 0.0
H694 H 0.39581 0.46432 0.22636 0.0
H695 H 0.37884 0.4962 0.36505 0.0
H696 H 0.45028 0.52238 0.52901 0.0
H697 H 0.42705 0.51849 0.46167 0.0
H698 H 0.44669 0.48687 0.32208 0.0
C699 C 0.3845 0.47461 0.22638 0.0
C700 C 0.39362 0.49428 0.35499 0.0
C701 C 0.36977 0.47261 0.19069 0.0
C702 C 0.45255 0.51134 0.50094 0.0
C703 C 0.43906 0.50903 0.46224 0.0
C704 C 0.43191 0.48872 0.33215 0.0
C705 C 0.38414 0.48916 0.26317 0.0
C706 C 0.39888 0.49036 0.30419 0.0
C707 C 0.44123 0.49509 0.42425 0.0
C708 C 0.42665 0.49289 0.38291 0.0
H709 H 0.34277 0.51007 0.2274 0.0
H710 H 0.36849 0.51369 0.28906 0.0
H711 H 0.42278 0.48449 0.2546 0.0
H712 H 0.48329 0.47674 0.46529 0.0
H713 H 0.45951 0.47248 0.39805 0.0
C714 C 0.04465 0.37021 0.18097 0.0
C715 C 0.03402 0.35334 0.18636 0.0
C716 C 0.04257 0.38516 0.21585 0.0
C717 C 0.01072 0.40391 0.31774 0.0
H718 H 0.05636 0.4292 0.36607 0.0
C719 C 0.01014 0.45074 0.49836 0.0
C720 C 0.02073 0.46775 0.49836 0.0
C721 C 0.01198 0.43758 0.45871 0.0
C722 C 0.04343 0.42248 0.35257 0.0
H723 H 0.01265 0.33928 0.23286 0.0
H724 H 0.00893 0.36526 0.2931 0.0
H725 H 0.05856 0.40527 0.29893 0.0
H726 H 0.04198 0.48388 0.45651 0.0
H727 H 0.04509 0.4609 0.38699 0.0
H728 H 0.99561 0.42097 0.37157 0.0
C729 C 0.01874 0.36707 0.26152 0.0
C730 C 0.04469 0.40873 0.31394 0.0
C731 C 0.02083 0.35213 0.22671 0.0
C732 C 0.03356 0.47099 0.45791 0.0
C733 C 0.0354 0.45776 0.41806 0.0
C734 C 0.00947 0.41763 0.3563 0.0
C735 C 0.02978 0.3837 0.2571 0.0
C736 C 0.02836 0.39911 0.29631 0.0
C737 C 0.02445 0.44096 0.41764 0.0
C738 C 0.02583 0.42697 0.37473 0.0
H739 H 0.05478 0.3718 0.15005 0.0
H740 H 0.05107 0.39786 0.21058 0.0
H741 H 0.99779 0.3971 0.30458 0.0
H742 H 1.00021 0.44756 0.52887 0.0
H743 H 0.00362 0.42466 0.46043 0.0
C744 C 0.86454 0.9744 0.02238 0.0
C745 C 0.84866 0.98589 0.01362 0.0
C746 C 0.88074 0.97597 0.99128 0.0
C747 C 0.90498 0.00791 0.89827 0.0
H748 H 0.92711 0.96176 0.84523 0.0
C749 C 0.95321 0.00892 0.72114 0.0
C750 C 0.96932 0.99728 0.71974 0.0
C751 C 0.93979 0.00718 0.76024 0.0
C752 C 0.9213 0.97479 0.86022 0.0
H753 H 0.83772 0.00861 0.96674 0.0
H754 H 0.86581 0.01138 0.9128 0.0
H755 H 0.90176 0.9599 0.90904 0.0
H756 H 0.98356 0.97426 0.75843 0.0
H757 H 0.96007 0.97129 0.8272 0.0
H758 H 0.9243 0.02283 0.84929 0.0
C759 C 0.86584 1.00113 0.94361 0.0
C760 C 0.90676 0.97373 0.89687 0.0
C761 C 0.84965 0.99946 0.97434 0.0
C762 C 0.97139 0.98352 0.75826 0.0
C763 C 0.95788 0.98177 0.79762 0.0
C764 C 0.9195 0.00897 0.86181 0.0
C765 C 0.88151 0.98921 0.95107 0.0
C766 C 0.89817 0.99028 0.91569 0.0
C767 C 0.94199 0.99375 0.7994 0.0
C768 C 0.92763 0.99244 0.84147 0.0
H769 H 0.86418 0.96369 0.05204 0.0
H770 H 0.8926 0.9667 0.99846 0.0
H771 H 0.899 0.02096 0.91261 0.0
H772 H 0.9509 0.01958 0.6921 0.0
H773 H 0.92755 0.01635 0.7595 0.0
C774 C 0.5451 0.8702 0.01617 0.0
C775 C 0.53372 0.85373 0.01396 0.0
C776 C 0.54252 0.88503 0.98131 0.0
C777 C 0.52359 0.8942 0.85184 0.0
H778 H 0.52807 0.94705 0.89083 0.0
C779 C 0.52792 0.9547 0.70218 0.0
C780 C 0.51647 0.97054 0.71129 0.0
C781 C 0.53023 0.94078 0.73981 0.0
C782 C 0.52673 0.93236 0.87933 0.0
H783 H 0.51032 0.84028 0.97381 0.0
H784 H 0.50561 0.86623 0.91356 0.0
H785 H 0.53068 0.92242 0.95605 0.0
H786 H 0.49919 0.98461 0.76836 0.0
H787 H 0.5035 0.96058 0.83418 0.0
H788 H 0.51953 0.90414 0.7752 0.0
C789 C 0.51671 0.86758 0.94197 0.0
C790 C 0.52836 0.91822 0.91668 0.0
C791 C 0.51924 0.85279 0.97702 0.0
C792 C 0.50799 0.97251 0.75975 0.0
C793 C 0.5105 0.95874 0.79762 0.0
C794 C 0.52211 0.90832 0.81448 0.0
C795 C 0.52853 0.88377 0.94308 0.0
C796 C 0.5267 0.89894 0.9035 0.0
C797 C 0.52147 0.94259 0.78797 0.0
C798 C 0.52357 0.92759 0.82774 0.0
H799 H 0.5563 0.87148 0.04433 0.0
H800 H 0.55194 0.8972 0.98325 0.0
H801 H 0.52252 0.87952 0.84009 0.0
H802 H 0.53521 0.95311 0.66609 0.0
H803 H 0.5391 0.92872 0.73143 0.0
C804 C 0.66263 0.52121 1.00117 0.0
C805 C 0.66445 0.53781 0.03079 0.0
C806 C 0.64737 0.51879 0.96726 0.0
C807 C 0.61432 0.54652 0.88964 0.0
H808 H 0.58623 0.49941 0.87555 0.0
C809 C 0.55155 0.53923 0.74679 0.0
C810 C 0.54869 0.52163 0.72278 0.0
C811 C 0.56477 0.54122 0.78664 0.0
C812 C 0.59408 0.51261 0.87825 0.0
H813 H 0.65067 0.56429 0.04988 0.0
H814 H 0.62446 0.56023 0.98996 0.0
H815 H 0.61074 0.50231 0.9409 0.0
H816 H 0.55785 0.49239 0.72124 0.0
H817 H 0.58132 0.49598 0.78844 0.0
H818 H 0.5983 0.5567 0.82606 0.0
C819 C 0.63501 0.5492 0.99263 0.0
C820 C 0.6081 0.51427 0.91606 0.0
C821 C 0.65009 0.55151 0.02698 0.0
C822 C 0.55959 0.50616 0.739 0.0
C823 C 0.57295 0.50819 0.77819 0.0
C824 C 0.60051 0.54479 0.85133 0.0
C825 C 0.63364 0.53297 0.96166 0.0
C826 C 0.6184 0.53125 0.92223 0.0
C827 C 0.57573 0.52572 0.80295 0.0
C828 C 0.59018 0.52778 0.84485 0.0
H829 H 0.67345 0.51042 1.00229 0.0
H830 H 0.64678 0.50615 0.94378 0.0
H831 H 0.62218 0.55972 0.89291 0.0
H832 H 0.54366 0.55153 0.73466 0.0
H833 H 0.56625 0.55493 0.80483 0.0
C834 C 0.97193 0.64786 0.02422 0.0
C835 C 0.98542 0.66265 0.02783 0.0
C836 C 0.97438 0.63288 0.98967 0.0
C837 C 1.00139 0.62076 0.87093 0.0
H838 H 0.98029 0.57063 0.89475 0.0
C839 C 0.01631 0.55733 0.73711 0.0
C840 C 1.0006 0.54635 0.72142 0.0
C841 C 0.01453 0.57091 0.77576 0.0
C842 C 0.98614 0.58461 0.88745 0.0
H843 H 0.01266 0.67246 0.99894 0.0
H844 H 0.01742 0.64595 0.94123 0.0
H845 H 0.97812 0.59473 0.96152 0.0
H846 H 0.97059 0.54131 0.73403 0.0
H847 H 0.96763 0.56463 0.80308 0.0
H848 H 0.00979 0.61038 0.79728 0.0
C849 C 0.00453 0.64625 0.96375 0.0
C850 C 0.98486 0.5985 0.9257 0.0
C851 C 1.00197 0.66137 0.99784 0.0
C852 C 0.98307 0.54921 0.74587 0.0
C853 C 0.98135 0.56263 0.78526 0.0
C854 C 1.0029 0.60679 0.83309 0.0
C855 C 0.99054 0.63202 0.95805 0.0
C856 C 0.99242 0.61685 0.91803 0.0
C857 C 0.99705 0.57376 0.80032 0.0
C858 C 0.99525 0.58857 0.84078 0.0
H859 H 0.95916 0.64804 0.04725 0.0
H860 H 0.96317 0.62237 0.98659 0.0
H861 H 0.00698 0.63475 0.86264 0.0
H862 H 0.03007 0.55548 0.71935 0.0
H863 H 0.02693 0.57911 0.78676 0.0
C864 C 0.06017 0.22001 0.37052 0.0
C865 C 0.07567 0.21672 0.33809 0.0
C866 C 0.05639 0.20795 0.41147 0.0
C867 C 0.06442 0.15819 0.44649 0.0
H868 H 0.03028 0.17241 0.55596 0.0
C869 C 0.00584 0.10842 0.51324 0.0
C870 C 0.99794 0.10996 0.56233 0.0
C871 C 0.02033 0.12066 0.49765 0.0
C872 C 0.04013 0.16805 0.52653 0.0
H873 H 0.10033 0.19925 0.32551 0.0
H874 H 0.0942 0.17847 0.39857 0.0
H875 H 0.04838 0.1967 0.51175 0.0
H876 H 0.99958 0.12505 0.63447 0.0
H877 H 0.02537 0.14611 0.60788 0.0
H878 H 0.05655 0.12951 0.46209 0.0
C879 C 0.08456 0.19001 0.39138 0.0
C880 C 0.05033 0.18208 0.50048 0.0
C881 C 0.08816 0.20195 0.34971 0.0
C882 C 0.0052 0.12373 0.59606 0.0
C883 C 0.02 0.13579 0.58078 0.0
C884 C 0.0546 0.14413 0.47338 0.0
C885 C 0.06815 0.19238 0.42151 0.0
C886 C 0.0617 0.17744 0.45805 0.0
C887 C 0.02754 0.13464 0.53098 0.0
C888 C 0.04144 0.14896 0.51162 0.0
H889 H 0.05013 0.23112 0.36211 0.0
H890 H 0.04343 0.21016 0.43283 0.0
H891 H 0.07306 0.1539 0.41432 0.0
H892 H 1.00031 0.09823 0.48596 0.0
H893 H 0.02527 0.1196 0.45854 0.0
C894 C 0.31972 0.09169 0.31555 0.0
C895 C 0.32252 0.09894 0.26598 0.0
C896 C 0.335 0.09 0.3492 0.0
C897 C 0.38798 0.09678 0.35935 0.0
H898 H 0.38498 0.04457 0.4045 0.0
C899 C 0.44957 0.04458 0.34941 0.0
C900 C 0.45057 0.02963 0.38477 0.0
C901 C 0.43513 0.05795 0.35267 0.0
C902 C 0.38608 0.05932 0.39349 0.0
H903 H 0.34289 0.11303 0.21638 0.0
H904 H 0.36963 0.10898 0.27328 0.0
H905 H 0.35639 0.0607 0.38038 0.0
H906 H 0.43759 0.01769 0.45311 0.0
H907 H 0.41263 0.04115 0.45907 0.0
H908 H 0.41812 0.09459 0.36906 0.0
C909 C 0.35573 0.10465 0.28672 0.0
C910 C 0.36956 0.0687 0.37971 0.0
C911 C 0.34038 0.10672 0.25354 0.0
C912 C 0.43739 0.02902 0.42524 0.0
C913 C 0.42297 0.04241 0.42855 0.0
C914 C 0.40461 0.08728 0.3728 0.0
C915 C 0.35345 0.09511 0.3336 0.0
C916 C 0.37033 0.0873 0.36037 0.0
C917 C 0.42131 0.05665 0.39134 0.0
C918 C 0.40386 0.0682 0.38806 0.0
H919 H 0.30617 0.08571 0.32695 0.0
H920 H 0.33257 0.08324 0.38583 0.0
H921 H 0.3891 0.11122 0.34572 0.0
H922 H 0.45971 0.04574 0.31841 0.0
H923 H 0.43422 0.06867 0.32318 0.0
C924 C 0.4514 0.30234 0.39148 0.0
C925 C 0.44876 0.31256 0.34587 0.0
C926 C 0.45386 0.31182 0.43801 0.0
C927 C 0.45667 0.36087 0.49532 0.0
H928 H 0.49958 0.33927 0.56617 0.0
C929 C 0.50765 0.4101 0.59944 0.0
C930 C 0.52678 0.40649 0.58847 0.0
C931 C 0.49385 0.39603 0.59219 0.0
C932 C 0.48764 0.34559 0.54679 0.0
H933 H 0.44424 0.34063 0.31475 0.0
H934 H 0.44987 0.35712 0.39417 0.0
H935 H 0.48139 0.31982 0.50786 0.0
H936 H 0.54669 0.38514 0.56406 0.0
H937 H 0.52281 0.36105 0.54834 0.0
H938 H 0.46434 0.38722 0.52933 0.0
C939 C 0.44976 0.3418 0.39496 0.0
C940 C 0.47687 0.33426 0.51382 0.0
C941 C 0.44688 0.33232 0.34878 0.0
C942 C 0.53204 0.38826 0.57318 0.0
C943 C 0.51824 0.37435 0.56455 0.0
C944 C 0.46778 0.37234 0.52709 0.0
C945 C 0.45416 0.33174 0.43987 0.0
C946 C 0.46189 0.34204 0.4853 0.0
C947 C 0.49883 0.37826 0.57198 0.0
C948 C 0.48411 0.3651 0.55092 0.0
H949 H 0.45285 0.28709 0.391 0.0
H950 H 0.45658 0.3035 0.47195 0.0
H951 H 0.44476 0.3672 0.47584 0.0
H952 H 0.50325 0.42405 0.61149 0.0
H953 H 0.47918 0.39947 0.5999 0.0
C954 C 0.21279 0.44196 0.36591 0.0
C955 C 0.2059 0.44754 0.31768 0.0
C956 C 0.20175 0.44438 0.40996 0.0
C957 C 0.18179 0.46852 0.49126 0.0
H958 H 0.12696 0.46416 0.4879 0.0
C959 C 0.13249 0.52494 0.5679 0.0
C960 C 0.11356 0.52034 0.57935 0.0
C961 C 0.14529 0.51072 0.55495 0.0
C962 C 0.14227 0.46512 0.49067 0.0
H963 H 0.18154 0.45924 0.27823 0.0
H964 H 0.16235 0.46293 0.35412 0.0
H965 H 0.14577 0.447 0.42581 0.0
H966 H 0.09374 0.49724 0.59242 0.0
H967 H 0.11618 0.47234 0.57132 0.0
H968 H 0.17822 0.48733 0.55481 0.0
C969 C 0.17622 0.45659 0.35804 0.0
C970 C 0.15303 0.45539 0.45458 0.0
C971 C 0.18728 0.45441 0.31428 0.0
C972 C 0.10819 0.50118 0.58293 0.0
C973 C 0.12103 0.48694 0.57067 0.0
C974 C 0.171 0.47824 0.52756 0.0
C975 C 0.18351 0.45212 0.40649 0.0
C976 C 0.17281 0.45781 0.45278 0.0
C977 C 0.13941 0.49161 0.55367 0.0
C978 C 0.15106 0.47744 0.52591 0.0
H979 H 0.22693 0.43628 0.3699 0.0
H980 H 0.20766 0.44069 0.44683 0.0
H981 H 0.19702 0.47065 0.49088 0.0
H982 H 0.13703 0.53959 0.56475 0.0
H983 H 0.15927 0.51491 0.54176 0.0
C984 C 0.93437 0.81646 0.85824 0.0
C985 C 0.94639 0.80107 0.86729 0.0
C986 C 0.93646 0.82736 0.81389 0.0
C987 C 0.96406 0.83103 0.69094 0.0
H988 H 0.96617 0.88413 0.72817 0.0
C989 C 0.02123 0.88333 0.62596 0.0
C990 C 0.01707 0.90274 0.62411 0.0
C991 C 0.00695 0.8701 0.63689 0.0
C992 C 0.96523 0.86945 0.71628 0.0
H993 H 0.96935 0.78442 0.83598 0.0
H994 H 0.97341 0.80358 0.75992 0.0
H995 H 0.9505 0.86185 0.78447 0.0
H996 H 0.99434 0.92324 0.62574 0.0
H997 H 0.96944 0.90017 0.64487 0.0
H998 H 0.98027 0.83871 0.6245 0.0
C999 C 0.96199 0.80708 0.78591 0.0
C1000 C 0.95616 0.85659 0.74871 0.0
C1001 C 0.95974 0.79609 0.82982 0.0
C1002 C 0.99806 0.90843 0.62818 0.0
C1003 C 0.98378 0.89522 0.63895 0.0
C1004 C 0.97334 0.84392 0.65867 0.0
C1005 C 0.95083 0.82325 0.77818 0.0
C1006 C 0.95619 0.8371 0.73765 0.0
C1007 C 0.98825 0.87606 0.64607 0.0
C1008 C 0.97467 0.86314 0.67216 0.0
H1009 H 0.92378 0.82044 0.88623 0.0
H1010 H 0.92734 0.83947 0.80869 0.0
H1011 H 0.96394 0.81618 0.68058 0.0
H1012 H 0.03573 0.87848 0.62296 0.0
H1013 H 0.01088 0.85545 0.64239 0.0
C1014 C 0.67698 0.90916 0.9843 0.0
C1015 C 0.69247 0.92115 0.97269 0.0
C1016 C 0.65924 0.91222 0.96188 0.0
C1017 C 0.63345 0.95323 0.9297 0.0
H1018 H 0.59463 0.92152 0.8674 0.0
C1019 C 0.55858 0.98039 0.91194 0.0
C1020 C 0.55285 0.98212 0.86075 0.0
C1021 C 0.57346 0.96844 0.92491 0.0
C1022 C 0.60538 0.93041 0.88503 0.0
H1023 H 0.70188 0.94437 0.92413 0.0
H1024 H 0.67114 0.94946 0.88509 0.0
H1025 H 0.62638 0.90841 0.88449 0.0
H1026 H 0.55686 0.97129 0.78387 0.0
H1027 H 0.58302 0.95036 0.80675 0.0
H1028 H 0.61277 0.97512 0.93113 0.0
C1029 C 0.67271 0.93783 0.91176 0.0
C1030 C 0.62343 0.92297 0.89465 0.0
C1031 C 0.69037 0.93478 0.93396 0.0
C1032 C 0.56123 0.97046 0.8235 0.0
C1033 C 0.57602 0.95834 0.83661 0.0
C1034 C 0.61548 0.96049 0.92106 0.0
C1035 C 0.65681 0.92729 0.92765 0.0
C1036 C 0.63764 0.93447 0.91644 0.0
C1037 C 0.58279 0.9579 0.88703 0.0
C1038 C 0.6013 0.94923 0.89852 0.0
H1039 H 0.67823 0.89832 0.01337 0.0
H1040 H 0.64714 0.9039 0.97461 0.0
H1041 H 0.6441 0.96229 0.94724 0.0
H1042 H 0.55241 0.98918 0.94149 0.0
H1043 H 0.5784 0.96822 0.96414 0.0
C1044 C 0.58342 0.68435 0.93706 0.0
C1045 C 0.58926 0.70307 0.92663 0.0
C1046 C 0.5806 0.67143 0.89738 0.0
C1047 C 0.56281 0.67306 0.7695 0.0
H1048 H 0.56782 0.6185 0.77692 0.0
C1049 C 0.51332 0.6249 0.65291 0.0
C1050 C 0.50527 0.60988 0.68096 0.0
C1051 C 0.52932 0.63457 0.67117 0.0
C1052 C 0.5663 0.63372 0.77419 0.0
H1053 H 0.59883 0.7221 0.86651 0.0
H1054 H 0.5932 0.69961 0.79697 0.0
H1055 H 0.58735 0.63872 0.83191 0.0
H1056 H 0.50791 0.59312 0.75009 0.0
H1057 H 0.53528 0.6102 0.78259 0.0
H1058 H 0.54077 0.66824 0.71511 0.0
C1059 C 0.59074 0.69508 0.83602 0.0
C1060 C 0.57759 0.64527 0.80541 0.0
C1061 C 0.59383 0.70798 0.87586 0.0
C1062 C 0.51389 0.60443 0.72703 0.0
C1063 C 0.52973 0.6142 0.74558 0.0
C1064 C 0.55139 0.66154 0.73874 0.0
C1065 C 0.58336 0.67695 0.84632 0.0
C1066 C 0.57539 0.66502 0.80482 0.0
C1067 C 0.53745 0.62963 0.71839 0.0
C1068 C 0.55241 0.64169 0.74232 0.0
H1069 H 0.57952 0.68001 0.97538 0.0
H1070 H 0.5747 0.65762 0.90651 0.0
H1071 H 0.56063 0.68823 0.76859 0.0
H1072 H 0.50716 0.62928 0.61696 0.0
H1073 H 0.53507 0.64618 0.64878 0.0
C1074 C 0.82422 0.59173 0.88271 0.0
C1075 C 0.80791 0.58052 0.89015 0.0
C1076 C 0.83621 0.58836 0.84103 0.0
C1077 C 0.84172 0.55686 0.72518 0.0
H1078 H 0.89425 0.55705 0.76841 0.0
C1079 C 0.896 0.50877 0.62567 0.0
C1080 C 0.90885 0.49976 0.6585 0.0
C1081 C 0.88535 0.52414 0.64287 0.0
C1082 C 0.87963 0.55675 0.75577 0.0
H1083 H 0.79082 0.55768 0.85873 0.0
H1084 H 0.81181 0.55125 0.78808 0.0
H1085 H 0.87116 0.57443 0.81754 0.0
H1086 H 0.92031 0.49953 0.73539 0.0
H1087 H 0.90118 0.52538 0.76621 0.0
H1088 H 0.84984 0.53744 0.66682 0.0
C1089 C 0.81528 0.56311 0.81268 0.0
C1090 C 0.86634 0.56713 0.78349 0.0
C1091 C 0.80317 0.56672 0.8536 0.0
C1092 C 0.91082 0.50642 0.70881 0.0
C1093 C 0.8999 0.52144 0.72634 0.0
C1094 C 0.85491 0.54604 0.69833 0.0
C1095 C 0.83235 0.5734 0.80676 0.0
C1096 C 0.84702 0.56657 0.77007 0.0
C1097 C 0.88689 0.53048 0.6938 0.0
C1098 C 0.87388 0.54511 0.71482 0.0
H1099 H 0.82806 0.60259 0.9102 0.0
H1100 H 0.84893 0.59694 0.8371 0.0
H1101 H 0.82712 0.55665 0.71237 0.0
H1102 H 0.89428 0.50402 0.58652 0.0
H1103 H 0.87576 0.53087 0.61631 0.0
C1104 C 0.02144 0.19187 0.8832 0.0
C1105 C 0.04007 0.19705 0.89698 0.0
C1106 C 0.01802 0.17633 0.85081 0.0
C1107 C 0.04206 0.14248 0.76102 0.0
H1108 H 0.99985 0.10956 0.79678 0.0
C1109 C 0.02446 0.07392 0.6458 0.0
C1110 C 0.01768 0.05819 0.67331 0.0
C1111 C 0.02705 0.09148 0.67006 0.0
C1112 C 0.01184 0.11845 0.78645 0.0
H1113 H 0.06973 0.19049 0.88458 0.0
H1114 H 0.06384 0.16332 0.82979 0.0
H1115 H 0.00455 0.1391 0.84294 0.0
H1116 H 0.00801 0.04862 0.74764 0.0
H1117 H 0.01241 0.07905 0.78985 0.0
H1118 H 0.04985 0.12142 0.70611 0.0
C1119 C 0.05178 0.17125 0.84347 0.0
C1120 C 0.01435 0.13566 0.81248 0.0
C1121 C 0.05517 0.18678 0.87559 0.0
C1122 C 0.01337 0.06044 0.72542 0.0
C1123 C 0.01569 0.07802 0.74948 0.0
C1124 C 0.03962 0.1252 0.73522 0.0
C1125 C 0.03315 0.16553 0.83128 0.0
C1126 C 0.02963 0.14786 0.80064 0.0
C1127 C 0.02242 0.0939 0.72212 0.0
C1128 C 0.02461 0.11278 0.74798 0.0
H1129 H 0.00943 0.19937 0.89901 0.0
H1130 H 1.00348 0.17263 0.84167 0.0
H1131 H 0.05382 0.15157 0.75005 0.0
H1132 H 0.02802 0.07263 0.60562 0.0
H1133 H 0.0325 0.10319 0.6477 0.0
C1134 C 0.31823 0.03219 0.84938 0.0
C1135 C 0.31595 0.01996 0.89161 0.0
C1136 C 0.33383 0.0304 0.81626 0.0
C1137 C 0.38308 0.01587 0.82038 0.0
H1138 H 0.38204 0.01449 0.67219 0.0
C1139 C 0.4519 1.00365 0.70822 0.0
C1140 C 0.45456 0.01253 0.66074 0.0
C1141 C 0.43423 1.00385 0.73243 0.0
C1142 C 0.38267 0.01515 0.71351 0.0
H1143 H 0.32768 0.99524 0.92902 0.0
H1144 H 0.35504 0.99259 0.8725 0.0
H1145 H 0.35224 0.01618 0.72031 0.0
H1146 H 0.44078 0.02838 0.6008 0.0
H1147 H 0.40993 0.02957 0.64414 0.0
H1148 H 0.41324 0.01572 0.81459 0.0
C1149 C 0.34482 1.00367 0.86537 0.0
C1150 C 0.36553 0.01601 0.74103 0.0
C1151 C 0.32914 0.00525 0.8979 0.0
C1152 C 0.43905 0.02137 0.63738 0.0
C1153 C 0.42135 0.02195 0.66225 0.0
C1154 C 0.40013 0.01538 0.79308 0.0
C1155 C 0.34762 0.01649 0.82496 0.0
C1156 C 0.36558 0.0161 0.79481 0.0
C1157 C 0.41874 0.0134 0.71061 0.0
C1158 C 0.40027 0.01469 0.73917 0.0
H1159 H 0.30853 0.04379 0.84338 0.0
H1160 H 0.33565 0.04051 0.78547 0.0
H1161 H 0.38359 0.01632 0.86179 0.0
H1162 H 0.46354 0.99645 0.72672 0.0
H1163 H 0.43281 0.99648 0.76854 0.0
C1164 C 0.49082 0.34502 0.93756 0.0
C1165 C 0.49392 0.32648 0.91979 0.0
C1166 C 0.49118 0.36044 0.90406 0.0
C1167 C 0.5091 0.37646 0.77824 0.0
H1168 H 0.47333 0.41716 0.79983 0.0
C1169 C 0.51955 0.45182 0.69357 0.0
C1170 C 0.50345 0.46157 0.67611 0.0
C1171 C 0.5177 0.43432 0.71841 0.0
C1172 C 0.48332 0.40587 0.79282 0.0
H1173 H 0.49969 0.30973 0.85214 0.0
H1174 H 0.50026 0.33679 0.79321 0.0
H1175 H 0.47094 0.38847 0.85119 0.0
H1176 H 0.47297 0.45974 0.668 0.0
H1177 H 0.46959 0.42957 0.71282 0.0
H1178 H 0.52145 0.39398 0.71969 0.0
C1179 C 0.4977 0.33933 0.83348 0.0
C1180 C 0.48208 0.38946 0.82272 0.0
C1181 C 0.49722 0.32379 0.86717 0.0
C1182 C 0.48554 0.45304 0.68276 0.0
C1183 C 0.48365 0.43565 0.70815 0.0
C1184 C 0.51039 0.39295 0.74838 0.0
C1185 C 0.49462 0.35787 0.85154 0.0
C1186 C 0.49512 0.37463 0.81648 0.0
C1187 C 0.4997 0.4261 0.72666 0.0
C1188 C 0.49766 0.40798 0.75579 0.0
H1189 H 0.4879 0.34768 0.97759 0.0
H1190 H 0.48899 0.37447 0.91961 0.0
H1191 H 0.51943 0.36539 0.77241 0.0
H1192 H 0.53363 0.45783 0.68872 0.0
H1193 H 0.53037 0.42746 0.73227 0.0
C1194 C 0.19346 0.47474 0.86628 0.0
C1195 C 0.19982 0.4909 0.89295 0.0
C1196 C 0.17761 0.47564 0.83397 0.0
C1197 C 0.14669 0.50861 0.76219 0.0
H1198 H 0.10805 0.46985 0.78141 0.0
C1199 C 0.07006 0.51754 0.68721 0.0
C1200 C 0.05995 0.50149 0.67007 0.0
C1201 C 0.08795 0.51576 0.70984 0.0
C1202 C 0.11878 0.48064 0.77473 0.0
H1203 H 0.19498 0.52086 0.90464 0.0
H1204 H 0.16751 0.52248 0.84787 0.0
H1205 H 0.13804 0.46765 0.82725 0.0
H1206 H 0.06137 0.4711 0.66075 0.0
H1207 H 0.09242 0.46785 0.70075 0.0
H1208 H 0.1275 0.52157 0.70947 0.0
C1209 C 0.17472 0.50908 0.85206 0.0
C1210 C 0.13601 0.47938 0.80119 0.0
C1211 C 0.19041 0.50814 0.88484 0.0
C1212 C 0.06842 0.48365 0.67512 0.0
C1213 C 0.08632 0.48183 0.69793 0.0
C1214 C 0.12952 0.50979 0.73532 0.0
C1215 C 0.16787 0.49277 0.82697 0.0
C1216 C 0.1501 0.49348 0.79583 0.0
C1217 C 0.09632 0.49786 0.71591 0.0
C1218 C 0.11518 0.49597 0.74181 0.0
H1219 H 0.20026 0.46121 0.872 0.0
H1220 H 0.17282 0.46284 0.81489 0.0
H1221 H 0.15733 0.51958 0.7566 0.0
H1222 H 0.06407 0.53156 0.68375 0.0
H1223 H 0.09503 0.52844 0.72356 0.0
C1224 C 0.9666 0.82806 0.33961 0.0
C1225 C 0.98202 0.81985 0.31378 0.0
C1226 C 0.96929 0.84356 0.37231 0.0
C1227 C 0.0056 0.8718 0.44374 0.0
H1228 H 0.96868 0.91187 0.42948 0.0
C1229 C 0.01784 0.94788 0.5231 0.0
C1230 C 1.00221 0.95748 0.54398 0.0
C1231 C 0.01546 0.93029 0.49895 0.0
C1232 C 0.97899 0.90075 0.43461 0.0
H1233 H 0.01253 0.82116 0.30403 0.0
H1234 H 0.01726 0.84828 0.36115 0.0
H1235 H 0.96462 0.88259 0.38155 0.0
H1236 H 0.97206 0.95541 0.55855 0.0
H1237 H 0.96774 0.92503 0.51537 0.0
H1238 H 0.02005 0.89019 0.49662 0.0
C1239 C 1.00305 0.84262 0.3563 0.0
C1240 C 0.97666 0.88388 0.40704 0.0
C1241 C 1.00035 0.82702 0.32355 0.0
C1242 C 0.98424 0.94879 0.54121 0.0
C1243 C 0.98181 0.93128 0.51668 0.0
C1244 C 0.00793 0.88872 0.47144 0.0
C1245 C 0.98748 0.85139 0.38019 0.0
C1246 C 0.98993 0.86916 0.41102 0.0
C1247 C 0.99738 0.92182 0.49492 0.0
C1248 C 0.99469 0.90347 0.46704 0.0
H1249 H 0.95232 0.82269 0.3338 0.0
H1250 H 0.957 0.84957 0.39095 0.0
H1251 H 0.01599 0.86073 0.44833 0.0
H1252 H 0.03194 0.95406 0.52479 0.0
H1253 H 0.02777 0.92353 0.48243 0.0
C1254 C 0.70159 0.97714 0.38878 0.0
C1255 C 0.70608 0.98765 0.34456 0.0
C1256 C 0.68508 0.98086 0.4169 0.0
C1257 C 0.63747 1.00196 0.40038 0.0
H1258 H 0.63373 0.99456 0.54699 0.0
C1259 C 0.56487 0.9945 0.50044 0.0
C1260 C 0.56227 1.00306 0.54858 0.0
C1261 C 0.58288 0.99358 0.47802 0.0
C1262 C 0.63452 0.99687 0.5061 0.0
H1263 H 0.6969 0.01097 0.29687 0.0
H1264 H 0.66852 0.01781 0.34664 0.0
H1265 H 0.6646 0.99252 0.50493 0.0
H1266 H 0.57696 0.01701 0.61121 0.0
H1267 H 0.60836 0.01562 0.57172 0.0
H1268 H 0.60751 0.00655 0.40147 0.0
C1269 C 0.67757 0.00638 0.35902 0.0
C1270 C 0.65224 0.99549 0.48182 0.0
C1271 C 0.69406 1.00263 0.33083 0.0
C1272 C 0.57833 0.01037 0.57406 0.0
C1273 C 0.5964 0.00948 0.55148 0.0
C1274 C 0.61981 1.00335 0.4246 0.0
C1275 C 0.67258 0.99524 0.40175 0.0
C1276 C 0.65395 0.99785 0.42849 0.0
C1277 C 0.5989 1.00123 0.50287 0.0
C1278 C 0.618 1.0006 0.47773 0.0
H1279 H 0.7106 0.96565 0.401 0.0
H1280 H 0.68176 0.97189 0.44933 0.0
H1281 H 0.63808 1.00365 0.35924 0.0
H1282 H 0.55297 0.98854 0.4796 0.0
H1283 H 0.58422 0.98673 0.44113 0.0
C1284 C 0.54895 0.68567 0.31786 0.0
C1285 C 0.53615 0.70086 0.32018 0.0
C1286 C 0.54597 0.66926 0.34675 0.0
C1287 C 0.5203 0.64994 0.45942 0.0
H1288 H 0.53144 0.60171 0.39549 0.0
C1289 C 0.52232 0.57856 0.57192 0.0
C1290 C 0.51481 0.56251 0.54708 0.0
C1291 C 0.52443 0.59578 0.54553 0.0
C1292 C 0.52812 0.61503 0.41392 0.0
H1293 H 0.51008 0.71049 0.35533 0.0
H1294 H 0.50475 0.68164 0.40559 0.0
H1295 H 0.53549 0.63087 0.34695 0.0
H1296 H 0.50277 0.5522 0.47602 0.0
H1297 H 0.50623 0.58207 0.4304 0.0
H1298 H 0.51267 0.63394 0.5262 0.0
C1299 C 0.51725 0.68261 0.38159 0.0
C1300 C 0.53065 0.63181 0.3862 0.0
C1301 C 0.52022 0.6991 0.35242 0.0
C1302 C 0.50893 0.56421 0.49597 0.0
C1303 C 0.51096 0.58135 0.46975 0.0
C1304 C 0.51782 0.6331 0.48728 0.0
C1305 C 0.53005 0.6674 0.37885 0.0
C1306 C 0.52684 0.64953 0.40852 0.0
C1307 C 0.51889 0.59736 0.49394 0.0
C1308 C 0.52168 0.61541 0.46486 0.0
H1309 H 0.5612 0.68627 0.29287 0.0
H1310 H 0.55626 0.658 0.344 0.0
H1311 H 0.51736 0.66331 0.47804 0.0
H1312 H 0.52705 0.57768 0.61125 0.0
H1313 H 0.5309 0.60771 0.56503 0.0
C1314 C 0.82297 0.53698 0.35574 0.0
C1315 C 0.82158 0.52554 0.31178 0.0
C1316 C 0.83823 0.53501 0.38984 0.0
C1317 C 0.87822 0.50263 0.42431 0.0
H1318 H 0.9017 0.54847 0.4773 0.0
C1319 C 0.95492 0.50425 0.50096 0.0
C1320 C 0.95829 0.51374 0.54731 0.0
C1321 C 0.93733 0.50557 0.47657 0.0
C1322 C 0.89519 0.53552 0.46328 0.0
H1323 H 0.8347 0.50228 0.27109 0.0
H1324 H 0.8613 0.49915 0.32922 0.0
H1325 H 0.87226 0.55047 0.42835 0.0
H1326 H 0.94622 0.53257 0.60374 0.0
H1327 H 0.91566 0.53571 0.5596 0.0
H1328 H 0.90148 0.48779 0.45801 0.0
C1329 C 0.85062 0.5096 0.33796 0.0
C1330 C 0.87824 0.53664 0.43532 0.0
C1331 C 0.8354 0.51154 0.3041 0.0
C1332 C 0.94386 0.52493 0.56833 0.0
C1333 C 0.92644 0.52678 0.54296 0.0
C1334 C 0.89522 0.50156 0.45182 0.0
C1335 C 0.85248 0.5215 0.38095 0.0
C1336 C 0.86964 0.52022 0.41468 0.0
C1337 C 0.92283 0.51681 0.49727 0.0
C1338 C 0.90408 0.518 0.47098 0.0
H1339 H 0.81267 0.54798 0.36281 0.0
H1340 H 0.83896 0.54424 0.42287 0.0
H1341 H 0.87188 0.48961 0.41029 0.0
H1342 H 0.96588 0.49565 0.48376 0.0
H1343 H 0.93517 0.498 0.44097 0.0
loop_
_geom_bond_atom_site_label_1
_geom_bond_atom_site_label_2
_geom_bond_distance
_geom_bond_site_symmetry_2
_ccdc_geom_bond_type
C0 C1 1.384 . S
C0 H13 0.947 . S
C0 C35 1.382 . S
C1 C0 1.384 . S
C1 C2 1.378 . S
C2 C1 1.378 . S
C2 C3 1.378 . S
C2 H14 0.952 . S
C3 C2 1.378 . S
C3 H15 0.950 . S
C3 C34 1.383 . S
H4 C23 0.947 . S
H5 C24 0.946 . S
H6 C26 0.953 . S
H7 C27 0.945 . S
H8 C29 0.952 . S
H9 C30 0.949 1_556 S
H10 C32 0.950 . S
H11 C33 0.948 . S
H12 C35 0.951 . S
H13 C0 0.947 . S
H14 C2 0.952 . S
H15 C3 0.950 . S
N16 C19 1.382 . S
N16 C21 1.363 . S
N17 C19 1.371 . S
N17 C20 1.372 . S
N18 C20 1.361 . S
N18 C21 1.377 . S
C19 N16 1.382 . S
C19 N17 1.371 . S
C19 C22 1.480 . S
C20 N17 1.372 . S
C20 N18 1.361 . S
C20 C28 1.457 . S
C21 N16 1.363 . S
C21 N18 1.377 . S
C21 C34 1.479 . S
C22 C19 1.480 . S
C22 C23 1.383 . S
C22 C27 1.385 . S
C23 H4 0.947 . S
C23 C22 1.383 . S
C23 C24 1.388 . S
C24 H5 0.946 . S
C24 C23 1.388 . S
C24 C25 1.384 . S
C25 C24 1.384 . S
C25 C26 1.377 . S
C26 H6 0.953 . S
C26 C25 1.377 . S
C26 C27 1.369 . S
C27 H7 0.945 . S
C27 C22 1.385 . S
C27 C26 1.369 . S
C28 C20 1.457 . S
C28 C29 1.372 . S
C28 C33 1.364 . S
C29 H8 0.952 . S
C29 C28 1.372 . S
C29 C30 1.389 . S
C30 H9 0.949 1_554 S
C30 C29 1.389 . S
C30 C31 1.387 . S
C31 C30 1.387 . S
C31 C32 1.372 . S
C32 H10 0.950 . S
C32 C31 1.372 . S
C32 C33 1.379 . S
C33 H11 0.948 . S
C33 C28 1.364 . S
C33 C32 1.379 . S
C34 C3 1.383 . S
C34 C21 1.479 . S
C34 C35 1.398 . S
C35 C0 1.382 . S
C35 H12 0.951 . S
C35 C34 1.398 . S
C36 C37 1.384 . S
C36 H49 0.947 . S
C36 C71 1.382 . S
C37 C36 1.384 . S
C37 C38 1.378 . S
C38 C37 1.378 . S
C38 C39 1.378 . S
C38 H50 0.952 . S
C39 C38 1.378 . S
C39 H51 0.950 . S
C39 C70 1.383 . S
H40 C59 0.947 . S
H41 C60 0.946 . S
H42 C62 0.953 . S
H43 C63 0.945 . S
H44 C65 0.952 . S
H45 C66 0.949 1_556 S
H46 C68 0.950 . S
H47 C69 0.948 . S
H48 C71 0.951 . S
H49 C36 0.947 . S
H50 C38 0.952 . S
H51 C39 0.950 . S
N52 C55 1.382 . S
N52 C57 1.363 . S
N53 C55 1.371 . S
N53 C56 1.372 . S
N54 C56 1.361 . S
N54 C57 1.377 . S
C55 N52 1.382 . S
C55 N53 1.371 . S
C55 C58 1.480 . S
C56 N53 1.372 . S
C56 N54 1.361 . S
C56 C64 1.457 . S
C57 N52 1.363 . S
C57 N54 1.377 . S
C57 C70 1.479 . S
C58 C55 1.480 . S
C58 C59 1.383 . S
C58 C63 1.385 . S
C59 H40 0.947 . S
C59 C58 1.383 . S
C59 C60 1.388 . S
C60 H41 0.946 . S
C60 C59 1.388 . S
C60 C61 1.384 . S
C61 C60 1.384 . S
C61 C62 1.377 . S
C62 H42 0.953 . S
C62 C61 1.377 . S
C62 C63 1.369 . S
C63 H43 0.945 . S
C63 C58 1.385 . S
C63 C62 1.369 . S
C64 C56 1.457 . S
C64 C65 1.372 . S
C64 C69 1.364 . S
C65 H44 0.952 . S
C65 C64 1.372 . S
C65 C66 1.389 . S
C66 H45 0.949 1_554 S
C66 C65 1.389 . S
C66 C67 1.387 . S
C67 C66 1.387 . S
C67 C68 1.372 . S
C68 H46 0.950 . S
C68 C67 1.372 . S
C68 C69 1.379 . S
C69 H47 0.948 . S
C69 C64 1.364 . S
C69 C68 1.379 . S
C70 C39 1.383 . S
C70 C57 1.479 . S
C70 C71 1.398 . S
C71 C36 1.382 . S
C71 H48 0.951 . S
C71 C70 1.398 . S
C72 C73 1.384 . S
C72 H85 0.947 . S
C72 C107 1.382 . S
C73 C72 1.384 . S
C73 C74 1.378 . S
C74 C73 1.378 . S
C74 C75 1.378 . S
C74 H86 0.952 . S
C75 C74 1.378 . S
C75 H87 0.950 . S
C75 C106 1.383 . S
H76 C95 0.947 . S
H77 C96 0.946 . S
H78 C98 0.953 . S
H79 C99 0.945 . S
H80 C101 0.952 . S
H81 C102 0.949 1_556 S
H82 C104 0.950 . S
H83 C105 0.948 . S
H84 C107 0.951 . S
H85 C72 0.947 . S
H86 C74 0.952 . S
H87 C75 0.950 . S
N88 C91 1.382 . S
N88 C93 1.363 . S
N89 C91 1.371 . S
N89 C92 1.372 . S
N90 C92 1.361 . S
N90 C93 1.377 . S
C91 N88 1.382 . S
C91 N89 1.371 . S
C91 C94 1.480 . S
C92 N89 1.372 . S
C92 N90 1.361 . S
C92 C100 1.457 . S
C93 N88 1.363 . S
C93 N90 1.377 . S
C93 C106 1.479 . S
C94 C91 1.480 . S
C94 C95 1.383 . S
C94 C99 1.385 . S
C95 H76 0.947 . S
C95 C94 1.383 . S
C95 C96 1.388 . S
C96 H77 0.946 . S
C96 C95 1.388 . S
C96 C97 1.384 . S
C97 C96 1.384 . S
C97 C98 1.377 . S
C98 H78 0.953 . S
C98 C97 1.377 . S
C98 C99 1.369 . S
C99 H79 0.945 . S
C99 C94 1.385 . S
C99 C98 1.369 . S
C100 C92 1.457 . S
C100 C101 1.372 . S
C100 C105 1.364 . S
C101 H80 0.952 . S
C101 C100 1.372 . S
C101 C102 1.389 . S
C102 H81 0.949 1_554 S
C102 C101 1.389 . S
C102 C103 1.387 . S
C103 C102 1.387 . S
C103 C104 1.372 . S
C104 H82 0.950 . S
C104 C103 1.372 . S
C104 C105 1.379 . S
C105 H83 0.948 . S
C105 C100 1.364 . S
C105 C104 1.379 . S
C106 C75 1.383 . S
C106 C93 1.479 . S
C106 C107 1.398 . S
C107 C72 1.382 . S
C107 H84 0.951 . S
C107 C106 1.398 . S
C108 C109 1.384 . S
C108 H121 0.947 . S
C108 C143 1.382 . S
C109 C108 1.384 . S
C109 C110 1.378 . S
C110 C109 1.378 . S
C110 C111 1.378 . S
C110 H122 0.952 1_554 S
C111 C110 1.378 . S
C111 H123 0.950 . S
C111 C142 1.383 . S
H112 C131 0.947 . S
H113 C132 0.946 . S
H114 C134 0.953 . S
H115 C135 0.945 . S
H116 C137 0.952 . S
H117 C138 0.949 . S
H118 C140 0.950 . S
H119 C141 0.948 . S
H120 C143 0.951 . S
H121 C108 0.947 . S
H122 C110 0.952 1_556 S
H123 C111 0.950 . S
N124 C127 1.382 . S
N124 C129 1.363 . S
N125 C127 1.371 . S
N125 C128 1.372 . S
N126 C128 1.361 . S
N126 C129 1.377 . S
C127 N124 1.382 . S
C127 N125 1.371 . S
C127 C130 1.480 . S
C128 N125 1.372 . S
C128 N126 1.361 . S
C128 C136 1.457 . S
C129 N124 1.363 . S
C129 N126 1.377 . S
C129 C142 1.479 . S
C130 C127 1.480 . S
C130 C131 1.383 . S
C130 C135 1.385 . S
C131 H112 0.947 . S
C131 C130 1.383 . S
C131 C132 1.388 . S
C132 H113 0.946 . S
C132 C131 1.388 . S
C132 C133 1.384 . S
C133 C132 1.384 . S
C133 C134 1.377 . S
C134 H114 0.953 . S
C134 C133 1.377 . S
C134 C135 1.369 . S
C135 H115 0.945 . S
C135 C130 1.385 . S
C135 C134 1.369 . S
C136 C128 1.457 . S
C136 C137 1.372 . S
C136 C141 1.364 . S
C137 H116 0.952 . S
C137 C136 1.372 . S
C137 C138 1.389 . S
C138 H117 0.949 . S
C138 C137 1.389 . S
C138 C139 1.387 . S
C139 C138 1.387 . S
C139 C140 1.372 . S
C140 H118 0.950 . S
C140 C139 1.372 . S
C140 C141 1.379 . S
C141 H119 0.948 . S
C141 C136 1.364 . S
C141 C140 1.379 . S
C142 C111 1.383 . S
C142 C129 1.479 . S
C142 C143 1.398 . S
C143 C108 1.382 . S
C143 H120 0.951 . S
C143 C142 1.398 . S
C144 C145 1.384 . S
C144 H157 0.947 . S
C144 C179 1.382 . S
C145 C144 1.384 . S
C145 C146 1.378 . S
C146 C145 1.378 . S
C146 C147 1.378 . S
C146 H158 0.952 . S
C147 C146 1.378 . S
C147 H159 0.950 . S
C147 C178 1.383 . S
H148 C167 0.947 1_556 S
H149 C168 0.946 . S
H150 C170 0.953 . S
H151 C171 0.945 . S
H152 C173 0.952 . S
H153 C174 0.949 . S
H154 C176 0.950 . S
H155 C177 0.948 . S
H156 C179 0.951 . S
H157 C144 0.947 . S
H158 C146 0.952 . S
H159 C147 0.950 . S
N160 C163 1.382 1_556 S
N160 C165 1.363 . S
N161 C163 1.371 . S
N161 C164 1.372 . S
N162 C164 1.361 . S
N162 C165 1.377 1_554 S
C163 N160 1.382 1_554 S
C163 N161 1.371 . S
C163 C166 1.480 . S
C164 N161 1.372 . S
C164 N162 1.361 . S
C164 C172 1.457 . S
C165 N160 1.363 . S
C165 N162 1.377 1_556 S
C165 C178 1.479 . S
C166 C163 1.480 . S
C166 C167 1.383 . S
C166 C171 1.385 . S
C167 H148 0.947 1_554 S
C167 C166 1.383 . S
C167 C168 1.388 . S
C168 H149 0.946 . S
C168 C167 1.388 . S
C168 C169 1.384 . S
C169 C168 1.384 . S
C169 C170 1.377 . S
C170 H150 0.953 . S
C170 C169 1.377 . S
C170 C171 1.369 . S
C171 H151 0.945 . S
C171 C166 1.385 . S
C171 C170 1.369 . S
C172 C164 1.457 . S
C172 C173 1.372 . S
C172 C177 1.364 . S
C173 H152 0.952 . S
C173 C172 1.372 . S
C173 C174 1.389 . S
C174 H153 0.949 . S
C174 C173 1.389 . S
C174 C175 1.387 . S
C175 C174 1.387 . S
C175 C176 1.372 . S
C176 H154 0.950 . S
C176 C175 1.372 . S
C176 C177 1.379 . S
C177 H155 0.948 . S
C177 C172 1.364 . S
C177 C176 1.379 . S
C178 C147 1.383 . S
C178 C165 1.479 . S
C178 C179 1.398 . S
C179 C144 1.382 . S
C179 H156 0.951 . S
C179 C178 1.398 . S
C180 C181 1.384 . S
C180 H193 0.947 . S
C180 C215 1.382 . S
C181 C180 1.384 . S
C181 C182 1.378 . S
C182 C181 1.378 . S
C182 C183 1.378 . S
C182 H194 0.952 . S
C183 C182 1.378 . S
C183 H195 0.950 . S
C183 C214 1.383 . S
H184 C203 0.947 1_556 S
H185 C204 0.946 . S
H186 C206 0.953 . S
H187 C207 0.945 . S
H188 C209 0.952 . S
H189 C210 0.949 . S
H190 C212 0.950 . S
H191 C213 0.948 . S
H192 C215 0.951 . S
H193 C180 0.947 . S
H194 C182 0.952 . S
H195 C183 0.950 . S
N196 C199 1.382 1_556 S
N196 C201 1.363 . S
N197 C199 1.371 . S
N197 C200 1.372 . S
N198 C200 1.361 . S
N198 C201 1.377 1_554 S
C199 N196 1.382 1_554 S
C199 N197 1.371 . S
C199 C202 1.480 . S
C200 N197 1.372 . S
C200 N198 1.361 . S
C200 C208 1.457 . S
C201 N196 1.363 . S
C201 N198 1.377 1_556 S
C201 C214 1.479 . S
C202 C199 1.480 . S
C202 C203 1.383 . S
C202 C207 1.385 . S
C203 H184 0.947 1_554 S
C203 C202 1.383 . S
C203 C204 1.388 . S
C204 H185 0.946 . S
C204 C203 1.388 . S
C204 C205 1.384 . S
C205 C204 1.384 . S
C205 C206 1.377 . S
C206 H186 0.953 . S
C206 C205 1.377 . S
C206 C207 1.369 . S
C207 H187 0.945 . S
C207 C202 1.385 . S
C207 C206 1.369 . S
C208 C200 1.457 . S
C208 C209 1.372 . S
C208 C213 1.364 . S
C209 H188 0.952 . S
C209 C208 1.372 . S
C209 C210 1.389 . S
C210 H189 0.949 . S
C210 C209 1.389 . S
C210 C211 1.387 . S
C211 C210 1.387 . S
C211 C212 1.372 . S
C212 H190 0.950 . S
C212 C211 1.372 . S
C212 C213 1.379 . S
C213 H191 0.948 . S
C213 C208 1.364 . S
C213 C212 1.379 . S
C214 C183 1.383 . S
C214 C201 1.479 . S
C214 C215 1.398 . S
C215 C180 1.382 . S
C215 H192 0.951 . S
C215 C214 1.398 . S
C216 C217 1.384 . S
C216 H229 0.947 . S
C216 C251 1.382 . S
C217 C216 1.384 . S
C217 C218 1.378 . S
C218 C217 1.378 . S
C218 C219 1.378 . S
C218 H230 0.952 . S
C219 C218 1.378 . S
C219 H231 0.950 . S
C219 C250 1.383 . S
H220 C239 0.947 1_556 S
H221 C240 0.946 . S
H222 C242 0.953 . S
H223 C243 0.945 . S
H224 C245 0.952 . S
H225 C246 0.949 . S
H226 C248 0.950 . S
H227 C249 0.948 . S
H228 C251 0.951 . S
H229 C216 0.947 . S
H230 C218 0.952 . S
H231 C219 0.950 . S
N232 C235 1.364 1_556 S
N232 C237 1.367 . S
N233 C235 1.371 . S
N233 C236 1.372 . S
N234 C236 1.361 . S
N234 C237 1.377 1_554 S
C235 N232 1.364 1_554 S
C235 N233 1.371 . S
C235 C238 1.480 . S
C236 N233 1.372 . S
C236 N234 1.361 . S
C236 C244 1.457 . S
C237 N232 1.367 . S
C237 N234 1.377 1_556 S
C237 C250 1.479 . S
C238 C235 1.480 . S
C238 C239 1.383 . S
C238 C243 1.385 . S
C239 H220 0.947 1_554 S
C239 C238 1.383 . S
C239 C240 1.388 . S
C240 H221 0.946 . S
C240 C239 1.388 . S
C240 C241 1.384 . S
C241 C240 1.384 . S
C241 C242 1.377 . S
C242 H222 0.953 . S
C242 C241 1.377 . S
C242 C243 1.369 . S
C243 H223 0.945 . S
C243 C238 1.385 . S
C243 C242 1.369 . S
C244 C236 1.457 . S
C244 C245 1.372 . S
C244 C249 1.364 . S
C245 H224 0.952 . S
C245 C244 1.372 . S
C245 C246 1.389 . S
C246 H225 0.949 . S
C246 C245 1.389 . S
C246 C247 1.387 . S
C247 C246 1.387 . S
C247 C248 1.372 . S
C248 H226 0.950 . S
C248 C247 1.372 . S
C248 C249 1.379 . S
C249 H227 0.948 . S
C249 C244 1.364 . S
C249 C248 1.379 . S
C250 C219 1.383 . S
C250 C237 1.479 . S
C250 C251 1.398 . S
C251 C216 1.382 . S
C251 H228 0.951 . S
C251 C250 1.398 . S
C252 C253 1.384 . S
C252 H265 0.947 . S
C252 C287 1.382 . S
C253 C252 1.384 . S
C253 C254 1.378 . S
C254 C253 1.378 . S
C254 C255 1.378 . S
C254 H266 0.952 . S
C255 C254 1.378 . S
C255 H267 0.950 . S
C255 C286 1.383 . S
H256 C275 0.947 . S
H257 C276 0.946 . S
H258 C278 0.953 . S
H259 C279 0.945 1_556 S
H260 C281 0.952 . S
H261 C282 0.949 . S
H262 C284 0.950 . S
H263 C285 0.948 . S
H264 C287 0.951 . S
H265 C252 0.947 . S
H266 C254 0.952 . S
H267 C255 0.950 . S
N268 C271 1.382 . S
N268 C273 1.363 . S
N269 C271 1.371 1_556 S
N269 C272 1.372 . S
N270 C272 1.361 1_554 S
N270 C273 1.377 . S
C271 N268 1.382 . S
C271 N269 1.371 1_554 S
C271 C274 1.480 . S
C272 N269 1.372 . S
C272 N270 1.361 1_556 S
C272 C280 1.457 . S
C273 N268 1.363 . S
C273 N270 1.377 . S
C273 C286 1.479 . S
C274 C271 1.480 . S
C274 C275 1.383 . S
C274 C279 1.385 . S
C275 H256 0.947 . S
C275 C274 1.383 . S
C275 C276 1.388 . S
C276 H257 0.946 . S
C276 C275 1.388 . S
C276 C277 1.384 . S
C277 C276 1.384 . S
C277 C278 1.377 . S
C278 H258 0.953 . S
C278 C277 1.377 . S
C278 C279 1.369 . S
C279 H259 0.945 1_554 S
C279 C274 1.385 . S
C279 C278 1.369 . S
C280 C272 1.457 . S
C280 C281 1.372 . S
C280 C285 1.364 . S
C281 H260 0.952 . S
C281 C280 1.372 . S
C281 C282 1.389 . S
C282 H261 0.949 . S
C282 C281 1.389 . S
C282 C283 1.387 . S
C283 C282 1.387 . S
C283 C284 1.372 . S
C284 H262 0.950 . S
C284 C283 1.372 . S
C284 C285 1.379 . S
C285 H263 0.948 . S
C285 C280 1.364 . S
C285 C284 1.379 . S
C286 C255 1.383 . S
C286 C273 1.479 . S
C286 C287 1.398 . S
C287 C252 1.382 . S
C287 H264 0.951 . S
C287 C286 1.398 . S
C288 C290 1.422 . S
C288 C292 1.415 . S
C288 N294 1.369 1_545 S
C289 C290 1.421 . S
C289 C291 1.417 . S
C289 C301 1.422 . S
C290 C288 1.422 . S
C290 C289 1.421 . S
C290 N300 1.359 . S
C291 C289 1.417 . S
C291 C293 1.329 . S
C291 H310 0.930 . S
C292 C288 1.415 . S
C292 C293 1.437 . S
C292 C296 1.413 . S
C293 C291 1.329 . S
C293 C292 1.437 . S
C293 H315 0.929 . S
N294 C288 1.369 1_565 S
N294 C295 1.338 . S
N294 Gd299 2.622 . S
C295 N294 1.338 . S
C295 C297 1.378 1_565 S
C295 H307 0.929 . S
C296 C292 1.413 . S
C296 C297 1.348 . S
C296 H312 0.931 . S
C297 C295 1.378 1_545 S
C297 C296 1.348 . S
C297 H313 0.930 . S
Gd298 N318 2.622 . S
Gd298 N325 2.570 . S
Gd298 O332 2.353 1_655 S
Gd298 O333 2.453 1_655 S
Gd298 O334 2.427 . S
Gd298 O336 2.388 . S
Gd298 O337 2.386 1_545 S
Gd298 O341 2.307 1_655 S
Gd298 C351 2.805 . S
Gd299 N294 2.622 . S
Gd299 N300 2.570 1_565 S
Gd299 O331 2.386 1_565 S
Gd299 O335 2.304 1_465 S
Gd299 O338 2.353 . S
Gd299 O339 2.468 . S
Gd299 O340 2.427 . S
Gd299 O342 2.388 . S
Gd299 C363 2.805 . S
N300 C290 1.359 . S
N300 Gd299 2.570 1_545 S
N300 C302 1.343 . S
C301 C289 1.422 . S
C301 C303 1.321 . S
C301 H309 0.931 . S
C302 N300 1.343 . S
C302 C303 1.390 . S
C302 H304 0.888 1_445 S
C303 C301 1.321 . S
C303 C302 1.390 . S
C303 H305 0.930 . S
H304 C302 0.888 1_665 S
H305 C303 0.930 . S
H306 C329 0.947 . S
H307 C295 0.929 . S
H308 C330 0.893 1_455 S
H309 C301 0.931 . S
H310 C291 0.930 . S
H311 C320 0.929 . S
H312 C296 0.931 . S
H313 C297 0.930 . S
H314 C352 0.930 . S
H315 C293 0.929 . S
H316 C321 0.944 . S
H317 C322 0.930 . S
N318 Gd298 2.622 . S
N318 C319 1.369 . S
N318 C320 1.338 . S
C319 N318 1.369 . S
C319 C323 1.415 1_545 S
C319 C326 1.422 . S
C320 H311 0.929 . S
C320 N318 1.338 . S
C320 C322 1.378 . S
C321 H316 0.944 . S
C321 C322 1.333 1_565 S
C321 C323 1.416 . S
C322 H317 0.930 . S
C322 C320 1.378 . S
C322 C321 1.333 1_545 S
C323 C319 1.415 1_565 S
C323 C321 1.416 . S
C323 C353 1.437 . S
H324 C353 0.929 . S
N325 Gd298 2.570 . S
N325 C326 1.359 . S
N325 C329 1.329 1_655 S
C326 C319 1.422 . S
C326 N325 1.359 . S
C326 C328 1.421 1_545 S
C327 C328 1.422 . S
C327 C330 1.360 . S
C327 H354 0.931 . S
C328 C326 1.421 1_565 S
C328 C327 1.422 . S
C328 C352 1.417 . S
C329 H306 0.947 . S
C329 N325 1.329 1_455 S
C329 C330 1.388 1_445 S
C330 H308 0.893 1_655 S
C330 C327 1.360 . S
C330 C329 1.388 1_665 S
O331 Gd299 2.386 1_545 S
O331 C343 1.265 . S
O332 Gd298 2.353 1_455 S
O332 C343 1.242 . S
O333 Gd298 2.453 1_455 S
O333 C351 1.228 1_455 S
O334 Gd298 2.427 . S
O334 C351 1.252 . S
O335 Gd299 2.304 1_645 S
O335 C344 1.263 . S
O336 Gd298 2.388 . S
O336 C344 1.252 . S
O337 Gd298 2.386 1_565 S
O337 C355 1.265 . S
O338 Gd299 2.353 . S
O338 C355 1.242 1_455 S
O339 Gd299 2.468 . S
O339 C363 1.263 . S
O340 Gd299 2.427 . S
O340 C363 1.252 . S
O341 Gd298 2.307 1_455 S
O341 C356 1.261 . S
O342 Gd299 2.388 . S
O342 C356 1.252 1_565 S
C343 O331 1.265 . S
C343 O332 1.242 . S
C344 O335 1.263 . S
C344 O336 1.252 . S
C345 C348 1.394 . S
C345 C350 1.413 . S
C345 C351 1.500 . S
C346 C349 1.383 . S
C346 C350 1.403 . S
C347 C348 1.396 . S
C347 C349 1.365 . S
C347 H364 0.929 . S
C348 C345 1.394 . S
C348 C347 1.396 . S
C348 H365 0.930 . S
C349 C346 1.383 . S
C349 C347 1.365 . S
C349 H366 0.931 . S
C350 C345 1.413 . S
C350 C346 1.403 . S
C350 H367 0.881 1_655 S
C351 Gd298 2.805 . S
C351 O333 1.228 1_655 S
C351 O334 1.252 . S
C351 C345 1.500 . S
C352 H314 0.930 . S
C352 C328 1.417 . S
C352 C353 1.329 . S
C353 C323 1.437 . S
C353 H324 0.929 . S
C353 C352 1.329 . S
H354 C327 0.931 . S
C355 O337 1.265 . S
C355 O338 1.242 1_655 S
C356 O341 1.261 . S
C356 O342 1.252 1_545 S
C357 C360 1.394 . S
C357 C362 1.370 . S
C357 C363 1.500 . S
C358 C361 1.383 . S
C358 C362 1.395 . S
C359 C360 1.396 . S
C359 C361 1.365 . S
C359 H368 0.929 . S
C360 C357 1.394 . S
C360 C359 1.396 . S
C360 H369 0.930 . S
C361 C358 1.383 . S
C361 C359 1.365 . S
C361 H370 0.931 . S
C362 C357 1.370 . S
C362 C358 1.395 . S
C362 H371 0.930 . S
C363 Gd299 2.805 . S
C363 O339 1.263 . S
C363 O340 1.252 . S
C363 C357 1.500 . S
H364 C347 0.929 . S
H365 C348 0.930 . S
H366 C349 0.931 . S
H367 C350 0.881 1_455 S
H368 C359 0.929 . S
H369 C360 0.930 . S
H370 C361 0.931 . S
H371 C362 0.930 . S
C372 C374 1.422 . S
C372 C376 1.415 . S
C372 N378 1.369 . S
C373 C374 1.421 . S
C373 C375 1.417 . S
C373 C385 1.422 . S
C374 C372 1.422 . S
C374 C373 1.421 . S
C374 N384 1.359 . S
C375 C373 1.417 . S
C375 C377 1.329 . S
C375 H394 0.930 . S
C376 C372 1.415 . S
C376 C377 1.437 . S
C376 C380 1.413 . S
C377 C375 1.329 . S
C377 C376 1.437 . S
C377 H399 0.929 . S
N378 C372 1.369 . S
N378 C379 1.338 . S
N378 Gd383 2.622 . S
C379 N378 1.338 . S
C379 C381 1.378 . S
C379 H391 0.929 . S
C380 C376 1.413 . S
C380 C381 1.348 . S
C380 H396 0.931 . S
C381 C379 1.378 . S
C381 C380 1.348 . S
C381 H397 0.930 . S
Gd382 N402 2.622 . S
Gd382 N409 2.570 . S
Gd382 O416 2.353 1_545 S
Gd382 O417 2.468 . S
Gd382 O418 2.427 . S
Gd382 O420 2.388 . S
Gd382 O421 2.386 . S
Gd382 O425 2.307 . S
Gd382 C435 2.805 . S
Gd383 N378 2.622 . S
Gd383 N384 2.570 . S
Gd383 O415 2.386 . S
Gd383 O419 2.307 1_565 S
Gd383 O422 2.353 1_565 S
Gd383 O423 2.468 . S
Gd383 O424 2.427 . S
Gd383 O426 2.388 . S
Gd383 C447 2.805 . S
N384 C374 1.359 . S
N384 Gd383 2.570 . S
N384 C386 1.343 . S
C385 C373 1.422 . S
C385 C387 1.321 . S
C385 H393 0.931 . S
C386 N384 1.343 . S
C386 C387 1.390 . S
C386 H388 0.931 . S
C387 C385 1.321 . S
C387 C386 1.390 . S
C387 H389 0.930 . S
H388 C386 0.931 . S
H389 C387 0.930 . S
H390 C413 0.931 . S
H391 C379 0.929 . S
H392 C414 0.930 . S
H393 C385 0.931 . S
H394 C375 0.930 . S
H395 C404 0.929 . S
H396 C380 0.931 . S
H397 C381 0.930 . S
H398 C436 0.930 . S
H399 C377 0.929 . S
H400 C405 0.931 . S
H401 C406 0.930 . S
N402 Gd382 2.622 . S
N402 C403 1.369 . S
N402 C404 1.338 . S
C403 N402 1.369 . S
C403 C407 1.415 . S
C403 C410 1.422 . S
C404 H395 0.929 . S
C404 N402 1.338 . S
C404 C406 1.378 . S
C405 H400 0.931 . S
C405 C406 1.348 . S
C405 C407 1.413 . S
C406 H401 0.930 . S
C406 C404 1.378 . S
C406 C405 1.348 . S
C407 C403 1.415 . S
C407 C405 1.413 . S
C407 C437 1.437 . S
H408 C437 0.929 . S
N409 Gd382 2.570 . S
N409 C410 1.359 . S
N409 C413 1.343 . S
C410 C403 1.422 . S
C410 N409 1.359 . S
C410 C412 1.421 . S
C411 C412 1.422 . S
C411 C414 1.321 . S
C411 H438 0.931 . S
C412 C410 1.421 . S
C412 C411 1.422 . S
C412 C436 1.417 . S
C413 H390 0.931 . S
C413 N409 1.343 . S
C413 C414 1.390 . S
C414 H392 0.930 . S
C414 C411 1.321 . S
C414 C413 1.390 . S
O415 Gd383 2.386 . S
O415 C427 1.265 . S
O416 Gd382 2.353 1_565 S
O416 C427 1.242 . S
O417 Gd382 2.468 . S
O417 C435 1.263 . S
O418 Gd382 2.427 . S
O418 C435 1.252 . S
O419 Gd383 2.307 1_545 S
O419 C428 1.261 . S
O420 Gd382 2.388 . S
O420 C428 1.252 . S
O421 Gd382 2.386 . S
O421 C439 1.265 . S
O422 Gd383 2.353 1_545 S
O422 C439 1.242 . S
O423 Gd383 2.468 . S
O423 C447 1.263 . S
O424 Gd383 2.427 . S
O424 C447 1.252 . S
O425 Gd382 2.307 . S
O425 C440 1.261 1_545 S
O426 Gd383 2.388 . S
O426 C440 1.252 . S
C427 O415 1.265 . S
C427 O416 1.242 . S
C428 O419 1.261 . S
C428 O420 1.252 . S
C429 C432 1.394 . S
C429 C434 1.370 . S
C429 C435 1.500 . S
C430 C433 1.383 . S
C430 C434 1.395 . S
C431 C432 1.396 . S
C431 C433 1.365 . S
C431 H448 0.929 . S
C432 C429 1.394 . S
C432 C431 1.396 . S
C432 H449 0.930 . S
C433 C430 1.383 . S
C433 C431 1.365 . S
C433 H450 0.931 . S
C434 C429 1.370 . S
C434 C430 1.395 . S
C434 H451 0.930 . S
C435 Gd382 2.805 . S
C435 O417 1.263 . S
C435 O418 1.252 . S
C435 C429 1.500 . S
C436 H398 0.930 . S
C436 C412 1.417 . S
C436 C437 1.329 . S
C437 C407 1.437 . S
C437 H408 0.929 . S
C437 C436 1.329 . S
H438 C411 0.931 . S
C439 O421 1.265 . S
C439 O422 1.242 . S
C440 O425 1.261 1_565 S
C440 O426 1.252 . S
C441 C444 1.394 . S
C441 C446 1.370 1_565 S
C441 C447 1.500 . S
C442 C445 1.383 1_545 S
C442 C446 1.395 . S
C443 C444 1.396 . S
C443 C445 1.365 . S
C443 H452 0.929 . S
C444 C441 1.394 . S
C444 C443 1.396 . S
C444 H453 0.930 . S
C445 C442 1.383 1_565 S
C445 C443 1.365 . S
C445 H454 0.931 . S
C446 C441 1.370 1_545 S
C446 C442 1.395 . S
C446 H455 0.930 . S
C447 Gd383 2.805 . S
C447 O423 1.263 . S
C447 O424 1.252 . S
C447 C441 1.500 . S
H448 C431 0.929 . S
H449 C432 0.930 . S
H450 C433 0.931 . S
H451 C434 0.930 . S
H452 C443 0.929 . S
H453 C444 0.930 . S
H454 C445 0.931 . S
H455 C446 0.930 . S
C456 C458 1.422 . S
C456 C460 1.415 . S
C456 N462 1.369 . S
C457 C458 1.421 . S
C457 C459 1.417 . S
C457 C469 1.422 . S
C458 C456 1.422 . S
C458 C457 1.421 . S
C458 N468 1.359 . S
C459 C457 1.417 . S
C459 C461 1.329 . S
C459 H478 0.930 . S
C460 C456 1.415 . S
C460 C461 1.437 . S
C460 C464 1.413 . S
C461 C459 1.329 . S
C461 C460 1.437 . S
C461 H483 0.929 . S
N462 C456 1.369 . S
N462 C463 1.338 . S
N462 Gd467 2.622 . S
C463 N462 1.338 . S
C463 C465 1.378 . S
C463 H475 0.929 . S
C464 C460 1.413 . S
C464 C465 1.348 . S
C464 H480 0.931 . S
C465 C463 1.378 . S
C465 C464 1.348 . S
C465 H481 0.930 . S
Gd466 N486 2.622 . S
Gd466 N493 2.570 . S
Gd466 O500 2.353 . S
Gd466 O501 2.468 . S
Gd466 O502 2.427 . S
Gd466 O504 2.388 . S
Gd466 O505 2.386 . S
Gd466 O509 2.307 . S
Gd466 C519 2.805 . S
Gd467 N462 2.622 . S
Gd467 N468 2.570 . S
Gd467 O499 2.386 . S
Gd467 O503 2.307 . S
Gd467 O506 2.353 . S
Gd467 O507 2.468 . S
Gd467 O508 2.427 . S
Gd467 O510 2.388 . S
Gd467 C531 2.805 . S
N468 C458 1.359 . S
N468 Gd467 2.570 . S
N468 C470 1.343 . S
C469 C457 1.422 . S
C469 C471 1.321 . S
C469 H477 0.931 . S
C470 N468 1.343 . S
C470 C471 1.390 . S
C470 H472 0.931 . S
C471 C469 1.321 . S
C471 C470 1.390 . S
C471 H473 0.930 . S
H472 C470 0.931 . S
H473 C471 0.930 . S
H474 C497 0.931 . S
H475 C463 0.929 . S
H476 C498 0.930 . S
H477 C469 0.931 . S
H478 C459 0.930 . S
H479 C488 0.929 . S
H480 C464 0.931 . S
H481 C465 0.930 . S
H482 C520 0.930 . S
H483 C461 0.929 . S
H484 C489 0.931 . S
H485 C490 0.930 . S
N486 Gd466 2.622 . S
N486 C487 1.369 . S
N486 C488 1.338 . S
C487 N486 1.369 . S
C487 C491 1.415 . S
C487 C494 1.422 . S
C488 H479 0.929 . S
C488 N486 1.338 . S
C488 C490 1.378 . S
C489 H484 0.931 . S
C489 C490 1.348 . S
C489 C491 1.413 . S
C490 H485 0.930 . S
C490 C488 1.378 . S
C490 C489 1.348 . S
C491 C487 1.415 . S
C491 C489 1.413 . S
C491 C521 1.437 . S
H492 C521 0.929 . S
N493 Gd466 2.570 . S
N493 C494 1.359 . S
N493 C497 1.343 . S
C494 C487 1.422 . S
C494 N493 1.359 . S
C494 C496 1.421 . S
C495 C496 1.422 . S
C495 C498 1.321 . S
C495 H522 0.931 . S
C496 C494 1.421 . S
C496 C495 1.422 . S
C496 C520 1.417 . S
C497 H474 0.931 . S
C497 N493 1.343 . S
C497 C498 1.390 . S
C498 H476 0.930 . S
C498 C495 1.321 . S
C498 C497 1.390 . S
O499 Gd467 2.386 . S
O499 C511 1.265 . S
O500 Gd466 2.353 . S
O500 C511 1.242 . S
O501 Gd466 2.468 . S
O501 C519 1.263 . S
O502 Gd466 2.427 . S
O502 C519 1.252 . S
O503 Gd467 2.307 . S
O503 C512 1.261 . S
O504 Gd466 2.388 . S
O504 C512 1.252 . S
O505 Gd466 2.386 . S
O505 C523 1.265 . S
O506 Gd467 2.353 . S
O506 C523 1.242 . S
O507 Gd467 2.468 . S
O507 C531 1.263 . S
O508 Gd467 2.427 . S
O508 C531 1.252 . S
O509 Gd466 2.307 . S
O509 C524 1.261 . S
O510 Gd467 2.388 . S
O510 C524 1.252 . S
C511 O499 1.265 . S
C511 O500 1.242 . S
C512 O503 1.261 . S
C512 O504 1.252 . S
C513 C516 1.394 . S
C513 C518 1.370 . S
C513 C519 1.500 . S
C514 C517 1.383 . S
C514 C518 1.395 . S
C515 C516 1.396 . S
C515 C517 1.365 . S
C515 H532 0.929 . S
C516 C513 1.394 . S
C516 C515 1.396 . S
C516 H533 0.930 . S
C517 C514 1.383 . S
C517 C515 1.365 . S
C517 H534 0.931 . S
C518 C513 1.370 . S
C518 C514 1.395 . S
C518 H535 0.930 . S
C519 Gd466 2.805 . S
C519 O501 1.263 . S
C519 O502 1.252 . S
C519 C513 1.500 . S
C520 H482 0.930 . S
C520 C496 1.417 . S
C520 C521 1.329 . S
C521 C491 1.437 . S
C521 H492 0.929 . S
C521 C520 1.329 . S
H522 C495 0.931 . S
C523 O505 1.265 . S
C523 O506 1.242 . S
C524 O509 1.261 . S
C524 O510 1.252 . S
C525 C528 1.394 . S
C525 C530 1.370 . S
C525 C531 1.500 . S
C526 C529 1.383 . S
C526 C530 1.395 . S
C527 C528 1.396 . S
C527 C529 1.365 . S
C527 H536 0.929 . S
C528 C525 1.394 . S
C528 C527 1.396 . S
C528 H537 0.930 . S
C529 C526 1.383 . S
C529 C527 1.365 . S
C529 H538 0.931 . S
C530 C525 1.370 . S
C530 C526 1.395 . S
C530 H539 0.930 . S
C531 Gd467 2.805 . S
C531 O507 1.263 . S
C531 O508 1.252 . S
C531 C525 1.500 . S
H532 C515 0.929 . S
H533 C516 0.930 . S
H534 C517 0.931 . S
H535 C518 0.930 . S
H536 C527 0.929 . S
H537 C528 0.930 . S
H538 C529 0.931 . S
H539 C530 0.930 . S
C540 C542 1.422 . S
C540 C544 1.415 . S
C540 N546 1.369 1_455 S
C541 C542 1.421 . S
C541 C543 1.417 . S
C541 C553 1.422 . S
C542 C540 1.422 . S
C542 C541 1.421 . S
C542 N552 1.359 . S
C543 C541 1.417 . S
C543 C545 1.329 . S
C543 H562 0.930 . S
C544 C540 1.415 . S
C544 C545 1.437 . S
C544 C548 1.413 . S
C545 C543 1.329 . S
C545 C544 1.437 . S
C545 H567 0.929 . S
N546 C540 1.369 1_655 S
N546 C547 1.338 . S
N546 Gd551 2.622 . S
C547 N546 1.338 . S
C547 C549 1.378 1_655 S
C547 H559 0.929 . S
C548 C544 1.413 . S
C548 C549 1.348 . S
C548 H564 0.931 . S
C549 C547 1.378 1_455 S
C549 C548 1.348 . S
C549 H565 0.930 1_455 S
Gd550 N570 2.622 . S
Gd550 N577 2.570 . S
Gd550 O584 2.353 . S
Gd550 O585 2.468 . S
Gd550 O586 2.427 . S
Gd550 O588 2.388 . S
Gd550 O589 2.386 1_455 S
Gd550 O593 2.307 . S
Gd550 C603 2.805 . S
Gd551 N546 2.622 . S
Gd551 N552 2.570 1_655 S
Gd551 O583 2.386 1_655 S
Gd551 O587 2.296 1_655 S
Gd551 O590 2.353 . S
Gd551 O591 2.468 . S
Gd551 O592 2.427 . S
Gd551 O594 2.388 . S
Gd551 C615 2.805 . S
N552 C542 1.359 . S
N552 Gd551 2.570 1_455 S
N552 C554 1.343 . S
C553 C541 1.422 . S
C553 C555 1.321 . S
C553 H561 0.931 . S
C554 N552 1.343 . S
C554 C555 1.390 . S
C554 H556 0.916 1_455 S
C555 C553 1.321 . S
C555 C554 1.390 . S
C555 H557 0.930 . S
H556 C554 0.916 1_655 S
H557 C555 0.930 . S
H558 C581 0.931 . S
H559 C547 0.929 . S
H560 C582 0.932 . S
H561 C553 0.931 . S
H562 C543 0.930 . S
H563 C572 0.929 . S
H564 C548 0.931 . S
H565 C549 0.930 1_655 S
H566 C604 0.930 . S
H567 C545 0.929 . S
H568 C573 0.931 1_655 S
H569 C574 0.930 . S
N570 Gd550 2.622 . S
N570 C571 1.369 . S
N570 C572 1.338 . S
C571 N570 1.369 . S
C571 C575 1.409 1_455 S
C571 C578 1.422 . S
C572 H563 0.929 . S
C572 N570 1.338 . S
C572 C574 1.378 . S
C573 H568 0.931 1_455 S
C573 C574 1.348 . S
C573 C575 1.412 1_455 S
C574 H569 0.930 . S
C574 C572 1.378 . S
C574 C573 1.348 . S
C575 C571 1.409 1_655 S
C575 C573 1.412 1_655 S
C575 C605 1.445 . S
H576 C605 0.929 . S
N577 Gd550 2.570 . S
N577 C578 1.359 . S
N577 C581 1.343 . S
C578 C571 1.422 . S
C578 N577 1.359 . S
C578 C580 1.421 1_455 S
C579 C580 1.422 . S
C579 C582 1.329 . S
C579 H606 0.931 . S
C580 C578 1.421 1_655 S
C580 C579 1.422 . S
C580 C604 1.417 . S
C581 H558 0.931 . S
C581 N577 1.343 . S
C581 C582 1.380 1_455 S
C582 H560 0.932 . S
C582 C579 1.329 . S
C582 C581 1.380 1_655 S
O583 Gd551 2.386 1_455 S
O583 C595 1.265 . S
O584 Gd550 2.353 . S
O584 C595 1.242 . S
O585 Gd550 2.468 . S
O585 C603 1.263 . S
O586 Gd550 2.427 . S
O586 C603 1.252 . S
O587 Gd551 2.296 1_455 S
O587 C596 1.271 . S
O588 Gd550 2.388 . S
O588 C596 1.252 . S
O589 Gd550 2.386 1_655 S
O589 C607 1.265 . S
O590 Gd551 2.353 . S
O590 C607 1.242 . S
O591 Gd551 2.468 . S
O591 C615 1.263 . S
O592 Gd551 2.427 . S
O592 C615 1.252 . S
O593 Gd550 2.307 . S
O593 C608 1.261 . S
O594 Gd551 2.388 . S
O594 C608 1.252 1_655 S
C595 O583 1.265 . S
C595 O584 1.242 . S
C596 O587 1.271 . S
C596 O588 1.252 . S
C597 C600 1.394 . S
C597 C602 1.370 . S
C597 C603 1.500 . S
C598 C601 1.383 . S
C598 C602 1.395 . S
C599 C600 1.396 . S
C599 C601 1.365 . S
C599 H616 0.929 . S
C600 C597 1.394 . S
C600 C599 1.396 . S
C600 H617 0.930 . S
C601 C598 1.383 . S
C601 C599 1.365 . S
C601 H618 0.931 . S
C602 C597 1.370 . S
C602 C598 1.395 . S
C602 H619 0.930 . S
C603 Gd550 2.805 . S
C603 O585 1.263 . S
C603 O586 1.252 . S
C603 C597 1.500 . S
C604 H566 0.930 . S
C604 C580 1.417 . S
C604 C605 1.329 . S
C605 C575 1.445 . S
C605 H576 0.929 . S
C605 C604 1.329 . S
H606 C579 0.931 . S
C607 O589 1.265 . S
C607 O590 1.242 . S
C608 O593 1.261 . S
C608 O594 1.252 1_455 S
C609 C612 1.394 . S
C609 C614 1.370 . S
C609 C615 1.500 . S
C610 C613 1.383 . S
C610 C614 1.395 . S
C611 C612 1.396 . S
C611 C613 1.365 . S
C611 H620 0.929 . S
C612 C609 1.394 . S
C612 C611 1.396 . S
C612 H621 0.930 . S
C613 C610 1.383 . S
C613 C611 1.365 . S
C613 H622 0.931 . S
C614 C609 1.370 . S
C614 C610 1.395 . S
C614 H623 0.930 . S
C615 Gd551 2.805 . S
C615 O591 1.263 . S
C615 O592 1.252 . S
C615 C609 1.500 . S
H616 C599 0.929 . S
H617 C600 0.930 . S
H618 C601 0.931 . S
H619 C602 0.930 . S
H620 C611 0.929 . S
H621 C612 0.930 . S
H622 C613 0.931 . S
H623 C614 0.930 . S
C624 C625 1.349 . S
C624 C626 1.327 . S
C624 H649 0.950 . S
C625 C624 1.349 . S
C625 C641 1.349 . S
C626 C624 1.327 . S
C626 C645 1.429 . S
C626 H650 0.950 . S
C627 C644 1.574 . S
C627 C646 1.368 . S
C627 H651 0.949 . S
H628 C632 0.949 . S
C629 C630 1.349 . S
C629 C631 1.327 . S
C629 H652 0.950 1_545 S
C630 C629 1.349 . S
C630 C642 1.349 . S
C631 C629 1.327 . S
C631 C647 1.429 . S
C631 H653 0.923 1_545 S
C632 H628 0.949 . S
C632 C640 1.574 . S
C632 C648 1.368 . S
H633 C641 0.950 . S
H634 C639 0.950 . S
H635 C640 0.949 . S
H636 C642 0.950 . S
H637 C643 0.950 . S
H638 C644 0.949 . S
C639 H634 0.950 . S
C639 C641 1.327 . S
C639 C645 1.429 . S
C640 C632 1.574 . S
C640 H635 0.949 . S
C640 C646 1.368 . S
C641 C625 1.349 . S
C641 H633 0.950 . S
C641 C639 1.327 . S
C642 C630 1.349 . S
C642 H636 0.950 . S
C642 C643 1.327 . S
C643 H637 0.950 . S
C643 C642 1.327 . S
C643 C647 1.429 . S
C644 C627 1.574 . S
C644 H638 0.949 . S
C644 C648 1.368 . S
C645 C626 1.429 . S
C645 C639 1.429 . S
C645 C646 1.523 . S
C646 C627 1.368 . S
C646 C640 1.368 . S
C646 C645 1.523 . S
C647 C631 1.429 . S
C647 C643 1.429 . S
C647 C648 1.523 . S
C648 C632 1.368 . S
C648 C644 1.368 . S
C648 C647 1.523 . S
H649 C624 0.950 . S
H650 C626 0.950 . S
H651 C627 0.949 . S
H652 C629 0.950 1_565 S
H653 C631 0.923 1_565 S
C654 C655 1.349 . S
C654 C656 1.327 . S
C654 H679 0.950 . S
C655 C654 1.349 . S
C655 C671 1.349 . S
C656 C654 1.327 . S
C656 C675 1.429 . S
C656 H680 0.950 . S
C657 C674 1.574 . S
C657 C676 1.368 . S
C657 H681 0.949 . S
H658 C662 0.949 . S
C659 C660 1.349 . S
C659 C661 1.327 . S
C659 H682 0.950 . S
C660 C659 1.349 . S
C660 C672 1.349 . S
C661 C659 1.327 . S
C661 C677 1.429 . S
C661 H683 0.950 . S
C662 H658 0.949 . S
C662 C670 1.574 . S
C662 C678 1.368 . S
H663 C671 0.950 . S
H664 C669 0.950 . S
H665 C670 0.949 . S
H666 C672 0.950 . S
H667 C673 0.950 . S
H668 C674 0.949 . S
C669 H664 0.950 . S
C669 C671 1.327 . S
C669 C675 1.429 . S
C670 C662 1.574 . S
C670 H665 0.949 . S
C670 C676 1.368 . S
C671 C655 1.349 . S
C671 H663 0.950 . S
C671 C669 1.327 . S
C672 C660 1.349 . S
C672 H666 0.950 . S
C672 C673 1.327 . S
C673 H667 0.950 . S
C673 C672 1.327 . S
C673 C677 1.429 . S
C674 C657 1.574 . S
C674 H668 0.949 . S
C674 C678 1.368 . S
C675 C656 1.429 . S
C675 C669 1.429 . S
C675 C676 1.523 . S
C676 C657 1.368 . S
C676 C670 1.368 . S
C676 C675 1.523 . S
C677 C661 1.429 . S
C677 C673 1.429 . S
C677 C678 1.523 . S
C678 C662 1.368 . S
C678 C674 1.368 . S
C678 C677 1.523 . S
H679 C654 0.950 . S
H680 C656 0.950 . S
H681 C657 0.949 . S
H682 C659 0.950 . S
H683 C661 0.950 . S
C684 C685 1.349 . S
C684 C686 1.327 . S
C684 H709 0.950 . S
C685 C684 1.349 . S
C685 C701 1.349 . S
C686 C684 1.327 . S
C686 C705 1.429 . S
C686 H710 0.950 . S
C687 C704 1.574 . S
C687 C706 1.368 . S
C687 H711 0.949 . S
H688 C692 0.949 . S
C689 C690 1.349 . S
C689 C691 1.327 . S
C689 H712 0.950 . S
C690 C689 1.349 . S
C690 C702 1.349 . S
C691 C689 1.327 . S
C691 C707 1.429 . S
C691 H713 0.950 . S
C692 H688 0.949 . S
C692 C700 1.574 . S
C692 C708 1.368 . S
H693 C701 0.950 . S
H694 C699 0.950 . S
H695 C700 0.949 . S
H696 C702 0.950 . S
H697 C703 0.950 . S
H698 C704 0.949 . S
C699 H694 0.950 . S
C699 C701 1.327 . S
C699 C705 1.429 . S
C700 C692 1.574 . S
C700 H695 0.949 . S
C700 C706 1.368 . S
C701 C685 1.349 . S
C701 H693 0.950 . S
C701 C699 1.327 . S
C702 C690 1.349 . S
C702 H696 0.950 . S
C702 C703 1.327 . S
C703 H697 0.950 . S
C703 C702 1.327 . S
C703 C707 1.429 . S
C704 C687 1.574 . S
C704 H698 0.949 . S
C704 C708 1.368 . S
C705 C686 1.429 . S
C705 C699 1.429 . S
C705 C706 1.523 . S
C706 C687 1.368 . S
C706 C700 1.368 . S
C706 C705 1.523 . S
C707 C691 1.429 . S
C707 C703 1.429 . S
C707 C708 1.523 . S
C708 C692 1.368 . S
C708 C704 1.368 . S
C708 C707 1.523 . S
H709 C684 0.950 . S
H710 C686 0.950 . S
H711 C687 0.949 . S
H712 C689 0.950 . S
H713 C691 0.950 . S
C714 C715 1.349 . S
C714 C716 1.327 . S
C714 H739 0.950 . S
C715 C714 1.349 . S
C715 C731 1.349 . S
C716 C714 1.327 . S
C716 C735 1.429 . S
C716 H740 0.950 . S
C717 C734 1.574 . S
C717 C736 1.368 . S
C717 H741 0.949 . S
H718 C722 0.949 . S
C719 C720 1.349 . S
C719 C721 1.327 . S
C719 H742 0.952 1_455 S
C720 C719 1.349 . S
C720 C732 1.349 . S
C721 C719 1.327 . S
C721 C737 1.429 . S
C721 H743 0.950 . S
C722 H718 0.949 . S
C722 C730 1.574 . S
C722 C738 1.368 . S
H723 C731 0.950 . S
H724 C729 0.950 . S
H725 C730 0.949 . S
H726 C732 0.950 . S
H727 C733 0.950 . S
H728 C734 0.949 . S
C729 H724 0.950 . S
C729 C731 1.327 . S
C729 C735 1.429 . S
C730 C722 1.574 . S
C730 H725 0.949 . S
C730 C736 1.368 . S
C731 C715 1.349 . S
C731 H723 0.950 . S
C731 C729 1.327 . S
C732 C720 1.349 . S
C732 H726 0.950 . S
C732 C733 1.327 . S
C733 H727 0.950 . S
C733 C732 1.327 . S
C733 C737 1.429 . S
C734 C717 1.574 . S
C734 H728 0.949 . S
C734 C738 1.368 . S
C735 C716 1.429 . S
C735 C729 1.429 . S
C735 C736 1.523 . S
C736 C717 1.368 . S
C736 C730 1.368 . S
C736 C735 1.523 . S
C737 C721 1.429 . S
C737 C733 1.429 . S
C737 C738 1.523 . S
C738 C722 1.368 . S
C738 C734 1.368 . S
C738 C737 1.523 . S
H739 C714 0.950 . S
H740 C716 0.950 . S
H741 C717 0.949 . S
H742 C719 0.952 1_655 S
H743 C721 0.950 . S
C744 C745 1.349 . S
C744 C746 1.327 1_554 S
C744 H769 0.950 . S
C745 C744 1.349 . S
C745 C761 1.349 . S
C746 C744 1.327 1_556 S
C746 C765 1.429 . S
C746 H770 0.950 . S
C747 C764 1.574 . S
C747 C766 1.368 . S
C747 H771 0.950 . S
H748 C752 0.949 . S
C749 C750 1.349 1_545 S
C749 C751 1.327 . S
C749 H772 0.950 . S
C750 C749 1.349 1_565 S
C750 C762 1.349 . S
C751 C749 1.327 . S
C751 C767 1.429 1_545 S
C751 H773 0.950 . S
C752 H748 0.949 . S
C752 C760 1.574 . S
C752 C768 1.368 . S
H753 C761 0.950 . S
H754 C759 0.950 . S
H755 C760 0.949 . S
H756 C762 0.950 . S
H757 C763 0.950 . S
H758 C764 0.949 1_545 S
C759 H754 0.950 . S
C759 C761 1.327 . S
C759 C765 1.429 1_554 S
C760 C752 1.574 . S
C760 H755 0.949 . S
C760 C766 1.368 . S
C761 C745 1.349 . S
C761 H753 0.950 . S
C761 C759 1.327 . S
C762 C750 1.349 . S
C762 H756 0.950 . S
C762 C763 1.327 . S
C763 H757 0.950 . S
C763 C762 1.327 . S
C763 C767 1.429 . S
C764 C747 1.574 . S
C764 H758 0.949 1_565 S
C764 C768 1.368 . S
C765 C746 1.429 . S
C765 C759 1.429 1_556 S
C765 C766 1.523 . S
C766 C747 1.368 . S
C766 C760 1.368 . S
C766 C765 1.523 . S
C767 C751 1.429 1_565 S
C767 C763 1.429 . S
C767 C768 1.523 . S
C768 C752 1.368 . S
C768 C764 1.368 . S
C768 C767 1.523 . S
H769 C744 0.950 . S
H770 C746 0.950 . S
H771 C747 0.950 . S
H772 C749 0.950 . S
H773 C751 0.950 . S
C774 C775 1.349 . S
C774 C776 1.327 . S
C774 H799 0.950 . S
C775 C774 1.349 . S
C775 C791 1.349 . S
C776 C774 1.327 . S
C776 C795 1.429 1_554 S
C776 H800 0.950 1_554 S
C777 C794 1.574 . S
C777 C796 1.368 . S
C777 H801 0.949 . S
H778 C782 0.949 . S
C779 C780 1.349 . S
C779 C781 1.327 . S
C779 H802 0.950 . S
C780 C779 1.349 . S
C780 C792 1.349 . S
C781 C779 1.327 . S
C781 C797 1.429 . S
C781 H803 0.950 . S
C782 H778 0.949 . S
C782 C790 1.574 . S
C782 C798 1.368 . S
H783 C791 0.950 . S
H784 C789 0.950 . S
H785 C790 0.949 . S
H786 C792 0.950 . S
H787 C793 0.950 . S
H788 C794 0.949 . S
C789 H784 0.950 . S
C789 C791 1.327 . S
C789 C795 1.429 1_554 S
C790 C782 1.574 . S
C790 H785 0.949 . S
C790 C796 1.368 . S
C791 C775 1.349 . S
C791 H783 0.950 . S
C791 C789 1.327 . S
C792 C780 1.349 . S
C792 H786 0.950 . S
C792 C793 1.327 . S
C793 H787 0.950 . S
C793 C792 1.327 . S
C793 C797 1.429 . S
C794 C777 1.574 . S
C794 H788 0.949 . S
C794 C798 1.368 . S
C795 C776 1.429 1_556 S
C795 C789 1.429 1_556 S
C795 C796 1.523 . S
C796 C777 1.368 . S
C796 C790 1.368 . S
C796 C795 1.523 . S
C797 C781 1.429 . S
C797 C793 1.429 . S
C797 C798 1.523 . S
C798 C782 1.368 . S
C798 C794 1.368 . S
C798 C797 1.523 . S
H799 C774 0.950 . S
H800 C776 0.950 1_556 S
H801 C777 0.949 . S
H802 C779 0.950 . S
H803 C781 0.950 . S
C804 C805 1.349 . S
C804 C806 1.327 . S
C804 H829 0.950 . S
C805 C804 1.349 . S
C805 C821 1.349 . S
C806 C804 1.327 . S
C806 C825 1.429 1_554 S
C806 H830 0.950 . S
C807 C824 1.574 . S
C807 C826 1.368 . S
C807 H831 0.949 . S
H808 C812 0.949 . S
C809 C810 1.349 . S
C809 C811 1.327 . S
C809 H832 0.950 . S
C810 C809 1.349 . S
C810 C822 1.349 . S
C811 C809 1.327 . S
C811 C827 1.429 . S
C811 H833 0.950 . S
C812 H808 0.949 . S
C812 C820 1.574 . S
C812 C828 1.368 . S
H813 C821 0.950 . S
H814 C819 0.950 . S
H815 C820 0.949 . S
H816 C822 0.950 . S
H817 C823 0.950 . S
H818 C824 0.949 . S
C819 H814 0.950 . S
C819 C821 1.327 1_556 S
C819 C825 1.429 . S
C820 C812 1.574 . S
C820 H815 0.949 . S
C820 C826 1.368 . S
C821 C805 1.349 . S
C821 H813 0.950 . S
C821 C819 1.327 1_554 S
C822 C810 1.349 . S
C822 H816 0.950 . S
C822 C823 1.327 . S
C823 H817 0.950 . S
C823 C822 1.327 . S
C823 C827 1.429 . S
C824 C807 1.574 . S
C824 H818 0.949 . S
C824 C828 1.368 . S
C825 C806 1.429 1_556 S
C825 C819 1.429 . S
C825 C826 1.523 . S
C826 C807 1.368 . S
C826 C820 1.368 . S
C826 C825 1.523 . S
C827 C811 1.429 . S
C827 C823 1.429 . S
C827 C828 1.523 . S
C828 C812 1.368 . S
C828 C824 1.368 . S
C828 C827 1.523 . S
H829 C804 0.950 . S
H830 C806 0.950 . S
H831 C807 0.949 . S
H832 C809 0.950 . S
H833 C811 0.950 . S
C834 C835 1.349 . S
C834 C836 1.327 . S
C834 H859 0.950 . S
C835 C834 1.349 . S
C835 C851 1.349 . S
C836 C834 1.327 . S
C836 C855 1.429 1_554 S
C836 H860 0.950 . S
C837 C854 1.574 . S
C837 C856 1.368 . S
C837 H861 0.949 . S
H838 C842 0.949 . S
C839 C840 1.346 1_455 S
C839 C841 1.324 1_455 S
C839 H862 0.955 . S
C840 C839 1.346 1_655 S
C840 C852 1.349 . S
C841 C839 1.324 1_655 S
C841 C857 1.429 . S
C841 H863 0.954 . S
C842 H838 0.949 . S
C842 C850 1.574 . S
C842 C858 1.368 . S
H843 C851 0.950 . S
H844 C849 0.950 . S
H845 C850 0.949 . S
H846 C852 0.950 . S
H847 C853 0.950 . S
H848 C854 0.949 . S
C849 H844 0.950 . S
C849 C851 1.327 1_556 S
C849 C855 1.429 . S
C850 C842 1.574 . S
C850 H845 0.949 . S
C850 C856 1.368 . S
C851 C835 1.349 . S
C851 H843 0.950 . S
C851 C849 1.327 1_554 S
C852 C840 1.349 . S
C852 H846 0.950 . S
C852 C853 1.327 . S
C853 H847 0.950 . S
C853 C852 1.327 . S
C853 C857 1.429 . S
C854 C837 1.574 . S
C854 H848 0.949 . S
C854 C858 1.368 . S
C855 C836 1.429 1_556 S
C855 C849 1.429 . S
C855 C856 1.523 . S
C856 C837 1.368 . S
C856 C850 1.368 . S
C856 C855 1.523 . S
C857 C841 1.429 . S
C857 C853 1.429 . S
C857 C858 1.523 . S
C858 C842 1.368 . S
C858 C854 1.368 . S
C858 C857 1.523 . S
H859 C834 0.950 . S
H860 C836 0.950 . S
H861 C837 0.949 . S
H862 C839 0.955 . S
H863 C841 0.954 . S
C864 C865 1.349 . S
C864 C866 1.327 . S
C864 H889 0.950 . S
C865 C864 1.349 . S
C865 C881 1.349 . S
C866 C864 1.327 . S
C866 C885 1.429 . S
C866 H890 0.950 . S
C867 C884 1.574 . S
C867 C886 1.368 . S
C867 H891 0.949 . S
H868 C872 0.949 . S
C869 C870 1.349 . S
C869 C871 1.327 . S
C869 H892 0.950 . S
C870 C869 1.349 . S
C870 C882 1.349 . S
C871 C869 1.327 . S
C871 C887 1.429 . S
C871 H893 0.950 . S
C872 H868 0.949 . S
C872 C880 1.574 . S
C872 C888 1.368 . S
H873 C881 0.950 . S
H874 C879 0.950 . S
H875 C880 0.949 . S
H876 C882 0.950 1_655 S
H877 C883 0.950 . S
H878 C884 0.949 . S
C879 H874 0.950 . S
C879 C881 1.327 . S
C879 C885 1.429 . S
C880 C872 1.574 . S
C880 H875 0.949 . S
C880 C886 1.368 . S
C881 C865 1.349 . S
C881 H873 0.950 . S
C881 C879 1.327 . S
C882 C870 1.349 . S
C882 H876 0.950 1_455 S
C882 C883 1.327 . S
C883 H877 0.950 . S
C883 C882 1.327 . S
C883 C887 1.429 . S
C884 C867 1.574 . S
C884 H878 0.949 . S
C884 C888 1.368 . S
C885 C866 1.429 . S
C885 C879 1.429 . S
C885 C886 1.523 . S
C886 C867 1.368 . S
C886 C880 1.368 . S
C886 C885 1.523 . S
C887 C871 1.429 . S
C887 C883 1.429 . S
C887 C888 1.523 . S
C888 C872 1.368 . S
C888 C884 1.368 . S
C888 C887 1.523 . S
H889 C864 0.950 . S
H890 C866 0.950 . S
H891 C867 0.949 . S
H892 C869 0.950 . S
H893 C871 0.950 . S
C894 C895 1.349 . S
C894 C896 1.327 . S
C894 H919 0.950 . S
C895 C894 1.349 . S
C895 C911 1.349 . S
C896 C894 1.327 . S
C896 C915 1.429 . S
C896 H920 0.950 . S
C897 C914 1.574 . S
C897 C916 1.368 . S
C897 H921 0.949 . S
H898 C902 0.949 . S
C899 C900 1.349 . S
C899 C901 1.327 . S
C899 H922 0.950 . S
C900 C899 1.349 . S
C900 C912 1.349 1_545 S
C901 C899 1.327 . S
C901 C917 1.429 . S
C901 H923 0.950 . S
C902 H898 0.949 . S
C902 C910 1.574 . S
C902 C918 1.368 . S
H903 C911 0.950 . S
H904 C909 0.950 . S
H905 C910 0.949 . S
H906 C912 0.950 . S
H907 C913 0.952 . S
H908 C914 0.949 . S
C909 H904 0.950 . S
C909 C911 1.327 . S
C909 C915 1.429 . S
C910 C902 1.574 . S
C910 H905 0.949 . S
C910 C916 1.368 . S
C911 C895 1.349 . S
C911 H903 0.950 . S
C911 C909 1.327 . S
C912 C900 1.349 1_565 S
C912 H906 0.950 . S
C912 C913 1.329 . S
C913 H907 0.952 . S
C913 C912 1.329 . S
C913 C917 1.424 1_565 S
C914 C897 1.574 . S
C914 H908 0.949 . S
C914 C918 1.368 . S
C915 C896 1.429 . S
C915 C909 1.429 . S
C915 C916 1.523 . S
C916 C897 1.368 . S
C916 C910 1.368 . S
C916 C915 1.523 . S
C917 C901 1.429 . S
C917 C913 1.424 1_545 S
C917 C918 1.523 . S
C918 C902 1.368 . S
C918 C914 1.368 . S
C918 C917 1.523 . S
H919 C894 0.950 . S
H920 C896 0.950 . S
H921 C897 0.949 . S
H922 C899 0.950 . S
H923 C901 0.950 . S
C924 C925 1.349 . S
C924 C926 1.327 . S
C924 H949 0.950 . S
C925 C924 1.349 . S
C925 C941 1.349 . S
C926 C924 1.327 . S
C926 C945 1.429 . S
C926 H950 0.950 . S
C927 C944 1.574 . S
C927 C946 1.368 . S
C927 H951 0.949 . S
H928 C932 0.949 . S
C929 C930 1.349 . S
C929 C931 1.327 . S
C929 H952 0.950 . S
C930 C929 1.349 . S
C930 C942 1.349 . S
C931 C929 1.327 . S
C931 C947 1.429 . S
C931 H953 0.950 . S
C932 H928 0.949 . S
C932 C940 1.574 . S
C932 C948 1.368 . S
H933 C941 0.950 . S
H934 C939 0.950 . S
H935 C940 0.949 . S
H936 C942 0.950 . S
H937 C943 0.950 . S
H938 C944 0.949 . S
C939 H934 0.950 . S
C939 C941 1.327 . S
C939 C945 1.429 . S
C940 C932 1.574 . S
C940 H935 0.949 . S
C940 C946 1.368 . S
C941 C925 1.349 . S
C941 H933 0.950 . S
C941 C939 1.327 . S
C942 C930 1.349 . S
C942 H936 0.950 . S
C942 C943 1.327 . S
C943 H937 0.950 . S
C943 C942 1.327 . S
C943 C947 1.429 . S
C944 C927 1.574 . S
C944 H938 0.949 . S
C944 C948 1.368 . S
C945 C926 1.429 . S
C945 C939 1.429 . S
C945 C946 1.523 . S
C946 C927 1.368 . S
C946 C940 1.368 . S
C946 C945 1.523 . S
C947 C931 1.429 . S
C947 C943 1.429 . S
C947 C948 1.523 . S
C948 C932 1.368 . S
C948 C944 1.368 . S
C948 C947 1.523 . S
H949 C924 0.950 . S
H950 C926 0.950 . S
H951 C927 0.949 . S
H952 C929 0.950 . S
H953 C931 0.950 . S
C954 C955 1.349 . S
C954 C956 1.327 . S
C954 H979 0.950 . S
C955 C954 1.349 . S
C955 C971 1.349 . S
C956 C954 1.327 . S
C956 C975 1.429 . S
C956 H980 0.950 . S
C957 C974 1.574 . S
C957 C976 1.368 . S
C957 H981 0.949 . S
H958 C962 0.949 . S
C959 C960 1.349 . S
C959 C961 1.327 . S
C959 H982 0.950 . S
C960 C959 1.349 . S
C960 C972 1.349 . S
C961 C959 1.327 . S
C961 C977 1.429 . S
C961 H983 0.950 . S
C962 H958 0.949 . S
C962 C970 1.574 . S
C962 C978 1.368 . S
H963 C971 0.950 . S
H964 C969 0.950 . S
H965 C970 0.949 . S
H966 C972 0.950 . S
H967 C973 0.950 . S
H968 C974 0.949 . S
C969 H964 0.950 . S
C969 C971 1.327 . S
C969 C975 1.429 . S
C970 C962 1.574 . S
C970 H965 0.949 . S
C970 C976 1.368 . S
C971 C955 1.349 . S
C971 H963 0.950 . S
C971 C969 1.327 . S
C972 C960 1.349 . S
C972 H966 0.950 . S
C972 C973 1.327 . S
C973 H967 0.950 . S
C973 C972 1.327 . S
C973 C977 1.429 . S
C974 C957 1.574 . S
C974 H968 0.949 . S
C974 C978 1.368 . S
C975 C956 1.429 . S
C975 C969 1.429 . S
C975 C976 1.523 . S
C976 C957 1.368 . S
C976 C970 1.368 . S
C976 C975 1.523 . S
C977 C961 1.429 . S
C977 C973 1.429 . S
C977 C978 1.523 . S
C978 C962 1.368 . S
C978 C974 1.368 . S
C978 C977 1.523 . S
H979 C954 0.950 . S
H980 C956 0.950 . S
H981 C957 0.949 . S
H982 C959 0.950 . S
H983 C961 0.950 . S
C984 C985 1.349 . S
C984 C986 1.327 1_554 S
C984 H1009 0.950 . S
C985 C984 1.349 . S
C985 C1001 1.349 . S
C986 C984 1.327 1_556 S
C986 C1005 1.429 . S
C986 H1010 0.950 . S
C987 C1004 1.574 1_655 S
C987 C1006 1.368 . S
C987 H1011 0.949 1_655 S
H988 C992 0.949 . S
C989 C990 1.349 . S
C989 C991 1.327 . S
C989 H1012 0.950 . S
C990 C989 1.349 . S
C990 C1002 1.349 1_455 S
C991 C989 1.327 . S
C991 C1007 1.429 1_455 S
C991 H1013 0.950 . S
C992 H988 0.949 . S
C992 C1000 1.574 . S
C992 C1008 1.368 . S
H993 C1001 0.950 . S
H994 C999 0.987 . S
H995 C1000 0.949 . S
H996 C1002 0.950 . S
H997 C1003 0.950 . S
H998 C1004 0.949 . S
C999 H994 0.987 . S
C999 C1001 1.327 1_556 S
C999 C1005 1.429 . S
C1000 C992 1.574 . S
C1000 H995 0.949 . S
C1000 C1006 1.368 . S
C1001 C985 1.349 . S
C1001 H993 0.950 . S
C1001 C999 1.327 1_554 S
C1002 C990 1.349 1_655 S
C1002 H996 0.950 . S
C1002 C1003 1.327 . S
C1003 H997 0.950 . S
C1003 C1002 1.327 . S
C1003 C1007 1.429 . S
C1004 C987 1.574 1_455 S
C1004 H998 0.949 . S
C1004 C1008 1.368 1_455 S
C1005 C986 1.429 . S
C1005 C999 1.429 . S
C1005 C1006 1.523 . S
C1006 C987 1.368 . S
C1006 C1000 1.368 . S
C1006 C1005 1.523 . S
C1007 C991 1.429 1_655 S
C1007 C1003 1.429 . S
C1007 C1008 1.523 . S
C1008 C992 1.368 . S
C1008 C1004 1.368 1_655 S
C1008 C1007 1.523 . S
H1009 C984 0.950 . S
H1010 C986 0.950 . S
H1011 C987 0.949 1_455 S
H1012 C989 0.950 . S
H1013 C991 0.950 . S
C1014 C1015 1.349 . S
C1014 C1016 1.327 1_554 S
C1014 H1039 0.950 . S
C1015 C1014 1.349 . S
C1015 C1031 1.349 1_554 S
C1016 C1014 1.327 1_556 S
C1016 C1035 1.429 . S
C1016 H1040 0.950 . S
C1017 C1034 1.574 1_565 S
C1017 C1036 1.368 . S
C1017 H1041 0.949 1_565 S
H1018 C1022 0.949 . S
C1019 C1020 1.349 . S
C1019 C1021 1.327 . S
C1019 H1042 0.950 . S
C1020 C1019 1.349 . S
C1020 C1032 1.349 1_545 S
C1021 C1019 1.327 . S
C1021 C1037 1.429 1_545 S
C1021 H1043 0.950 . S
C1022 H1018 0.949 . S
C1022 C1030 1.574 . S
C1022 C1038 1.368 . S
H1023 C1031 0.950 1_554 S
H1024 C1029 0.950 . S
H1025 C1030 0.949 . S
H1026 C1032 0.950 . S
H1027 C1033 0.950 . S
H1028 C1034 0.949 . S
C1029 H1024 0.950 . S
C1029 C1031 1.327 . S
C1029 C1035 1.429 . S
C1030 C1022 1.574 . S
C1030 H1025 0.949 . S
C1030 C1036 1.368 . S
C1031 C1015 1.349 1_556 S
C1031 H1023 0.950 1_556 S
C1031 C1029 1.327 . S
C1032 C1020 1.349 1_565 S
C1032 H1026 0.950 . S
C1032 C1033 1.327 . S
C1033 H1027 0.950 . S
C1033 C1032 1.327 . S
C1033 C1037 1.429 . S
C1034 C1017 1.574 1_545 S
C1034 H1028 0.949 . S
C1034 C1038 1.368 1_545 S
C1035 C1016 1.429 . S
C1035 C1029 1.429 . S
C1035 C1036 1.523 . S
C1036 C1017 1.368 . S
C1036 C1030 1.368 . S
C1036 C1035 1.523 . S
C1037 C1021 1.429 1_565 S
C1037 C1033 1.429 . S
C1037 C1038 1.523 . S
C1038 C1022 1.368 . S
C1038 C1034 1.368 1_565 S
C1038 C1037 1.523 . S
H1039 C1014 0.950 . S
H1040 C1016 0.950 . S
H1041 C1017 0.949 1_545 S
H1042 C1019 0.950 . S
H1043 C1021 0.950 . S
C1044 C1045 1.349 . S
C1044 C1046 1.327 . S
C1044 H1069 0.950 . S
C1045 C1044 1.349 . S
C1045 C1061 1.349 1_554 S
C1046 C1044 1.327 . S
C1046 C1065 1.429 1_554 S
C1046 H1070 0.950 . S
C1047 C1064 1.574 . S
C1047 C1066 1.368 . S
C1047 H1071 0.949 . S
H1048 C1052 0.949 . S
C1049 C1050 1.349 . S
C1049 C1051 1.327 . S
C1049 H1072 0.950 . S
C1050 C1049 1.349 . S
C1050 C1062 1.349 . S
C1051 C1049 1.327 . S
C1051 C1067 1.429 . S
C1051 H1073 0.950 . S
C1052 H1048 0.949 . S
C1052 C1060 1.574 . S
C1052 C1068 1.368 . S
H1053 C1061 0.950 . S
H1054 C1059 0.950 . S
H1055 C1060 0.949 . S
H1056 C1062 0.950 . S
H1057 C1063 0.950 . S
H1058 C1064 0.949 . S
C1059 H1054 0.950 . S
C1059 C1061 1.327 . S
C1059 C1065 1.429 . S
C1060 C1052 1.574 . S
C1060 H1055 0.949 . S
C1060 C1066 1.368 . S
C1061 C1045 1.349 1_556 S
C1061 H1053 0.950 . S
C1061 C1059 1.327 . S
C1062 C1050 1.349 . S
C1062 H1056 0.950 . S
C1062 C1063 1.327 . S
C1063 H1057 0.950 . S
C1063 C1062 1.327 . S
C1063 C1067 1.429 . S
C1064 C1047 1.574 . S
C1064 H1058 0.949 . S
C1064 C1068 1.368 . S
C1065 C1046 1.429 1_556 S
C1065 C1059 1.429 . S
C1065 C1066 1.523 . S
C1066 C1047 1.368 . S
C1066 C1060 1.368 . S
C1066 C1065 1.523 . S
C1067 C1051 1.429 . S
C1067 C1063 1.429 . S
C1067 C1068 1.523 . S
C1068 C1052 1.368 . S
C1068 C1064 1.368 . S
C1068 C1067 1.523 . S
H1069 C1044 0.950 . S
H1070 C1046 0.950 . S
H1071 C1047 0.949 . S
H1072 C1049 0.950 . S
H1073 C1051 0.950 . S
C1074 C1075 1.349 . S
C1074 C1076 1.327 . S
C1074 H1099 0.950 . S
C1075 C1074 1.349 . S
C1075 C1091 1.349 1_554 S
C1076 C1074 1.327 . S
C1076 C1095 1.429 1_554 S
C1076 H1100 0.950 . S
C1077 C1094 1.574 . S
C1077 C1096 1.368 . S
C1077 H1101 0.949 . S
H1078 C1082 0.949 . S
C1079 C1080 1.349 . S
C1079 C1081 1.327 . S
C1079 H1102 0.950 . S
C1080 C1079 1.349 . S
C1080 C1092 1.349 . S
C1081 C1079 1.327 . S
C1081 C1097 1.429 . S
C1081 H1103 0.950 . S
C1082 H1078 0.949 . S
C1082 C1090 1.574 . S
C1082 C1098 1.368 . S
H1083 C1091 0.950 . S
H1084 C1089 0.950 . S
H1085 C1090 0.949 . S
H1086 C1092 0.950 . S
H1087 C1093 0.950 . S
H1088 C1094 0.949 . S
C1089 H1084 0.950 . S
C1089 C1091 1.327 . S
C1089 C1095 1.429 . S
C1090 C1082 1.574 . S
C1090 H1085 0.949 . S
C1090 C1096 1.368 . S
C1091 C1075 1.349 1_556 S
C1091 H1083 0.950 . S
C1091 C1089 1.327 . S
C1092 C1080 1.349 . S
C1092 H1086 0.950 . S
C1092 C1093 1.327 . S
C1093 H1087 0.950 . S
C1093 C1092 1.327 . S
C1093 C1097 1.429 . S
C1094 C1077 1.574 . S
C1094 H1088 0.949 . S
C1094 C1098 1.368 . S
C1095 C1076 1.429 1_556 S
C1095 C1089 1.429 . S
C1095 C1096 1.523 . S
C1096 C1077 1.368 . S
C1096 C1090 1.368 . S
C1096 C1095 1.523 . S
C1097 C1081 1.429 . S
C1097 C1093 1.429 . S
C1097 C1098 1.523 . S
C1098 C1082 1.368 . S
C1098 C1094 1.368 . S
C1098 C1097 1.523 . S
H1099 C1074 0.950 . S
H1100 C1076 0.950 . S
H1101 C1077 0.949 . S
H1102 C1079 0.950 . S
H1103 C1081 0.950 . S
C1104 C1105 1.349 . S
C1104 C1106 1.327 . S
C1104 H1129 0.950 . S
C1105 C1104 1.349 . S
C1105 C1121 1.349 . S
C1106 C1104 1.327 . S
C1106 C1125 1.429 . S
C1106 H1130 0.950 . S
C1107 C1124 1.574 . S
C1107 C1126 1.368 . S
C1107 H1131 0.949 . S
H1108 C1112 0.949 . S
C1109 C1110 1.349 . S
C1109 C1111 1.327 . S
C1109 H1132 0.950 . S
C1110 C1109 1.349 . S
C1110 C1122 1.349 . S
C1111 C1109 1.327 . S
C1111 C1127 1.429 . S
C1111 H1133 0.950 . S
C1112 H1108 0.949 . S
C1112 C1120 1.574 . S
C1112 C1128 1.368 . S
H1113 C1121 0.950 . S
H1114 C1119 0.950 . S
H1115 C1120 0.949 . S
H1116 C1122 0.950 . S
H1117 C1123 0.950 . S
H1118 C1124 0.949 . S
C1119 H1114 0.950 . S
C1119 C1121 1.327 . S
C1119 C1125 1.429 . S
C1120 C1112 1.574 . S
C1120 H1115 0.949 . S
C1120 C1126 1.368 . S
C1121 C1105 1.349 . S
C1121 H1113 0.950 . S
C1121 C1119 1.327 . S
C1122 C1110 1.349 . S
C1122 H1116 0.950 . S
C1122 C1123 1.327 . S
C1123 H1117 0.950 . S
C1123 C1122 1.327 . S
C1123 C1127 1.429 . S
C1124 C1107 1.574 . S
C1124 H1118 0.949 . S
C1124 C1128 1.368 . S
C1125 C1106 1.429 . S
C1125 C1119 1.429 . S
C1125 C1126 1.523 . S
C1126 C1107 1.368 . S
C1126 C1120 1.368 . S
C1126 C1125 1.523 . S
C1127 C1111 1.429 . S
C1127 C1123 1.429 . S
C1127 C1128 1.523 . S
C1128 C1112 1.368 . S
C1128 C1124 1.368 . S
C1128 C1127 1.523 . S
H1129 C1104 0.950 . S
H1130 C1106 0.950 . S
H1131 C1107 0.949 . S
H1132 C1109 0.950 . S
H1133 C1111 0.950 . S
C1134 C1135 1.349 . S
C1134 C1136 1.327 . S
C1134 H1159 0.950 . S
C1135 C1134 1.349 . S
C1135 C1151 1.349 . S
C1136 C1134 1.327 . S
C1136 C1155 1.429 . S
C1136 H1160 0.950 . S
C1137 C1154 1.574 . S
C1137 C1156 1.368 . S
C1137 H1161 0.949 . S
H1138 C1142 0.949 . S
C1139 C1140 1.349 . S
C1139 C1141 1.327 . S
C1139 H1162 0.950 1_545 S
C1140 C1139 1.349 . S
C1140 C1152 1.349 . S
C1141 C1139 1.327 . S
C1141 C1157 1.429 . S
C1141 H1163 0.924 1_545 S
C1142 H1138 0.949 . S
C1142 C1150 1.574 . S
C1142 C1158 1.368 . S
H1143 C1151 0.950 . S
H1144 C1149 0.950 . S
H1145 C1150 0.949 . S
H1146 C1152 0.950 . S
H1147 C1153 0.950 . S
H1148 C1154 0.949 . S
C1149 H1144 0.950 . S
C1149 C1151 1.327 . S
C1149 C1155 1.429 . S
C1150 C1142 1.574 . S
C1150 H1145 0.949 . S
C1150 C1156 1.368 . S
C1151 C1135 1.349 . S
C1151 H1143 0.950 . S
C1151 C1149 1.327 . S
C1152 C1140 1.349 . S
C1152 H1146 0.950 . S
C1152 C1153 1.327 . S
C1153 H1147 0.950 . S
C1153 C1152 1.327 . S
C1153 C1157 1.429 . S
C1154 C1137 1.574 . S
C1154 H1148 0.949 . S
C1154 C1158 1.368 . S
C1155 C1136 1.429 . S
C1155 C1149 1.429 . S
C1155 C1156 1.523 . S
C1156 C1137 1.368 . S
C1156 C1150 1.368 . S
C1156 C1155 1.523 . S
C1157 C1141 1.429 . S
C1157 C1153 1.429 . S
C1157 C1158 1.523 . S
C1158 C1142 1.368 . S
C1158 C1154 1.368 . S
C1158 C1157 1.523 . S
H1159 C1134 0.950 . S
H1160 C1136 0.950 . S
H1161 C1137 0.949 . S
H1162 C1139 0.950 1_565 S
H1163 C1141 0.924 1_565 S
C1164 C1165 1.349 . S
C1164 C1166 1.327 . S
C1164 H1189 0.950 . S
C1165 C1164 1.349 . S
C1165 C1181 1.349 . S
C1166 C1164 1.327 . S
C1166 C1185 1.429 . S
C1166 H1190 0.950 . S
C1167 C1184 1.574 . S
C1167 C1186 1.368 . S
C1167 H1191 0.949 . S
H1168 C1172 0.949 . S
C1169 C1170 1.349 . S
C1169 C1171 1.327 . S
C1169 H1192 0.950 . S
C1170 C1169 1.349 . S
C1170 C1182 1.349 . S
C1171 C1169 1.327 . S
C1171 C1187 1.429 . S
C1171 H1193 0.950 . S
C1172 H1168 0.949 . S
C1172 C1180 1.574 . S
C1172 C1188 1.368 . S
H1173 C1181 0.950 . S
H1174 C1179 0.950 . S
H1175 C1180 0.949 . S
H1176 C1182 0.950 . S
H1177 C1183 0.950 . S
H1178 C1184 0.949 . S
C1179 H1174 0.950 . S
C1179 C1181 1.327 . S
C1179 C1185 1.429 . S
C1180 C1172 1.574 . S
C1180 H1175 0.949 . S
C1180 C1186 1.368 . S
C1181 C1165 1.349 . S
C1181 H1173 0.950 . S
C1181 C1179 1.327 . S
C1182 C1170 1.349 . S
C1182 H1176 0.950 . S
C1182 C1183 1.327 . S
C1183 H1177 0.950 . S
C1183 C1182 1.327 . S
C1183 C1187 1.429 . S
C1184 C1167 1.574 . S
C1184 H1178 0.949 . S
C1184 C1188 1.368 . S
C1185 C1166 1.429 . S
C1185 C1179 1.429 . S
C1185 C1186 1.523 . S
C1186 C1167 1.368 . S
C1186 C1180 1.368 . S
C1186 C1185 1.523 . S
C1187 C1171 1.429 . S
C1187 C1183 1.429 . S
C1187 C1188 1.523 . S
C1188 C1172 1.368 . S
C1188 C1184 1.368 . S
C1188 C1187 1.523 . S
H1189 C1164 0.950 . S
H1190 C1166 0.950 . S
H1191 C1167 0.949 . S
H1192 C1169 0.950 . S
H1193 C1171 0.950 . S
C1194 C1195 1.349 . S
C1194 C1196 1.327 . S
C1194 H1219 0.950 . S
C1195 C1194 1.349 . S
C1195 C1211 1.349 . S
C1196 C1194 1.327 . S
C1196 C1215 1.429 . S
C1196 H1220 0.950 . S
C1197 C1214 1.574 . S
C1197 C1216 1.368 . S
C1197 H1221 0.949 . S
H1198 C1202 0.949 . S
C1199 C1200 1.349 . S
C1199 C1201 1.327 . S
C1199 H1222 0.950 . S
C1200 C1199 1.349 . S
C1200 C1212 1.349 . S
C1201 C1199 1.327 . S
C1201 C1217 1.429 . S
C1201 H1223 0.950 . S
C1202 H1198 0.949 . S
C1202 C1210 1.574 . S
C1202 C1218 1.368 . S
H1203 C1211 0.950 . S
H1204 C1209 0.950 . S
H1205 C1210 0.949 . S
H1206 C1212 0.950 . S
H1207 C1213 0.950 . S
H1208 C1214 0.949 . S
C1209 H1204 0.950 . S
C1209 C1211 1.327 . S
C1209 C1215 1.429 . S
C1210 C1202 1.574 . S
C1210 H1205 0.949 . S
C1210 C1216 1.368 . S
C1211 C1195 1.349 . S
C1211 H1203 0.950 . S
C1211 C1209 1.327 . S
C1212 C1200 1.349 . S
C1212 H1206 0.950 . S
C1212 C1213 1.327 . S
C1213 H1207 0.950 . S
C1213 C1212 1.327 . S
C1213 C1217 1.429 . S
C1214 C1197 1.574 . S
C1214 H1208 0.949 . S
C1214 C1218 1.368 . S
C1215 C1196 1.429 . S
C1215 C1209 1.429 . S
C1215 C1216 1.523 . S
C1216 C1197 1.368 . S
C1216 C1210 1.368 . S
C1216 C1215 1.523 . S
C1217 C1201 1.429 . S
C1217 C1213 1.429 . S
C1217 C1218 1.523 . S
C1218 C1202 1.368 . S
C1218 C1214 1.368 . S
C1218 C1217 1.523 . S
H1219 C1194 0.950 . S
H1220 C1196 0.950 . S
H1221 C1197 0.949 . S
H1222 C1199 0.950 . S
H1223 C1201 0.950 . S
C1224 C1225 1.349 . S
C1224 C1226 1.327 . S
C1224 H1249 0.950 . S
C1225 C1224 1.349 . S
C1225 C1241 1.349 . S
C1226 C1224 1.327 . S
C1226 C1245 1.429 . S
C1226 H1250 0.950 . S
C1227 C1244 1.574 . S
C1227 C1246 1.368 . S
C1227 H1251 0.949 . S
H1228 C1232 0.949 . S
C1229 C1230 1.349 . S
C1229 C1231 1.327 . S
C1229 H1252 0.950 1_655 S
C1230 C1229 1.349 . S
C1230 C1242 1.349 . S
C1231 C1229 1.327 . S
C1231 C1247 1.429 . S
C1231 H1253 0.950 1_655 S
C1232 H1228 0.949 . S
C1232 C1240 1.574 . S
C1232 C1248 1.368 . S
H1233 C1241 0.950 . S
H1234 C1239 0.950 . S
H1235 C1240 0.949 . S
H1236 C1242 0.950 . S
H1237 C1243 0.950 . S
H1238 C1244 0.949 . S
C1239 H1234 0.950 . S
C1239 C1241 1.327 . S
C1239 C1245 1.429 . S
C1240 C1232 1.574 . S
C1240 H1235 0.949 . S
C1240 C1246 1.368 . S
C1241 C1225 1.349 . S
C1241 H1233 0.950 . S
C1241 C1239 1.327 . S
C1242 C1230 1.349 . S
C1242 H1236 0.950 . S
C1242 C1243 1.327 . S
C1243 H1237 0.950 . S
C1243 C1242 1.327 . S
C1243 C1247 1.429 . S
C1244 C1227 1.574 . S
C1244 H1238 0.949 . S
C1244 C1248 1.368 . S
C1245 C1226 1.429 . S
C1245 C1239 1.429 . S
C1245 C1246 1.523 . S
C1246 C1227 1.368 . S
C1246 C1240 1.368 . S
C1246 C1245 1.523 . S
C1247 C1231 1.429 . S
C1247 C1243 1.429 . S
C1247 C1248 1.523 . S
C1248 C1232 1.368 . S
C1248 C1244 1.368 . S
C1248 C1247 1.523 . S
H1249 C1224 0.950 . S
H1250 C1226 0.950 . S
H1251 C1227 0.949 . S
H1252 C1229 0.950 1_455 S
H1253 C1231 0.950 1_455 S
C1254 C1255 1.349 . S
C1254 C1256 1.327 . S
C1254 H1279 0.950 . S
C1255 C1254 1.349 . S
C1255 C1271 1.349 . S
C1256 C1254 1.327 . S
C1256 C1275 1.429 . S
C1256 H1280 0.950 . S
C1257 C1274 1.574 . S
C1257 C1276 1.368 . S
C1257 H1281 0.949 . S
H1258 C1262 0.949 . S
C1259 C1260 1.349 . S
C1259 C1261 1.327 . S
C1259 H1282 0.950 . S
C1260 C1259 1.349 . S
C1260 C1272 1.349 . S
C1261 C1259 1.327 . S
C1261 C1277 1.429 . S
C1261 H1283 0.950 . S
C1262 H1258 0.949 . S
C1262 C1270 1.574 . S
C1262 C1278 1.368 . S
H1263 C1271 0.950 . S
H1264 C1269 0.950 . S
H1265 C1270 0.949 . S
H1266 C1272 0.950 . S
H1267 C1273 0.950 . S
H1268 C1274 0.949 . S
C1269 H1264 0.950 . S
C1269 C1271 1.327 . S
C1269 C1275 1.429 . S
C1270 C1262 1.574 . S
C1270 H1265 0.949 . S
C1270 C1276 1.368 . S
C1271 C1255 1.349 . S
C1271 H1263 0.950 . S
C1271 C1269 1.327 . S
C1272 C1260 1.349 . S
C1272 H1266 0.950 . S
C1272 C1273 1.327 . S
C1273 H1267 0.950 . S
C1273 C1272 1.327 . S
C1273 C1277 1.429 . S
C1274 C1257 1.574 . S
C1274 H1268 0.949 . S
C1274 C1278 1.368 . S
C1275 C1256 1.429 . S
C1275 C1269 1.429 . S
C1275 C1276 1.523 . S
C1276 C1257 1.368 . S
C1276 C1270 1.368 . S
C1276 C1275 1.523 . S
C1277 C1261 1.429 . S
C1277 C1273 1.429 . S
C1277 C1278 1.523 . S
C1278 C1262 1.368 . S
C1278 C1274 1.368 . S
C1278 C1277 1.523 . S
H1279 C1254 0.950 . S
H1280 C1256 0.950 . S
H1281 C1257 0.949 . S
H1282 C1259 0.950 . S
H1283 C1261 0.950 . S
C1284 C1285 1.349 . S
C1284 C1286 1.327 . S
C1284 H1309 0.950 . S
C1285 C1284 1.349 . S
C1285 C1301 1.349 . S
C1286 C1284 1.327 . S
C1286 C1305 1.429 . S
C1286 H1310 0.950 . S
C1287 C1304 1.574 . S
C1287 C1306 1.368 . S
C1287 H1311 0.949 . S
H1288 C1292 0.949 . S
C1289 C1290 1.349 . S
C1289 C1291 1.327 . S
C1289 H1312 0.950 . S
C1290 C1289 1.349 . S
C1290 C1302 1.349 . S
C1291 C1289 1.327 . S
C1291 C1307 1.429 . S
C1291 H1313 0.950 . S
C1292 H1288 0.949 . S
C1292 C1300 1.574 . S
C1292 C1308 1.368 . S
H1293 C1301 0.950 . S
H1294 C1299 0.950 . S
H1295 C1300 0.949 . S
H1296 C1302 0.950 . S
H1297 C1303 0.950 . S
H1298 C1304 0.949 . S
C1299 H1294 0.950 . S
C1299 C1301 1.327 . S
C1299 C1305 1.429 . S
C1300 C1292 1.574 . S
C1300 H1295 0.949 . S
C1300 C1306 1.368 . S
C1301 C1285 1.349 . S
C1301 H1293 0.950 . S
C1301 C1299 1.327 . S
C1302 C1290 1.349 . S
C1302 H1296 0.950 . S
C1302 C1303 1.327 . S
C1303 H1297 0.950 . S
C1303 C1302 1.327 . S
C1303 C1307 1.429 . S
C1304 C1287 1.574 . S
C1304 H1298 0.949 . S
C1304 C1308 1.368 . S
C1305 C1286 1.429 . S
C1305 C1299 1.429 . S
C1305 C1306 1.523 . S
C1306 C1287 1.368 . S
C1306 C1300 1.368 . S
C1306 C1305 1.523 . S
C1307 C1291 1.429 . S
C1307 C1303 1.429 . S
C1307 C1308 1.523 . S
C1308 C1292 1.368 . S
C1308 C1304 1.368 . S
C1308 C1307 1.523 . S
H1309 C1284 0.950 . S
H1310 C1286 0.950 . S
H1311 C1287 0.949 . S
H1312 C1289 0.950 . S
H1313 C1291 0.950 . S
C1314 C1315 1.349 . S
C1314 C1316 1.327 . S
C1314 H1339 0.950 . S
C1315 C1314 1.349 . S
C1315 C1331 1.349 . S
C1316 C1314 1.327 . S
C1316 C1335 1.429 . S
C1316 H1340 0.950 . S
C1317 C1334 1.574 . S
C1317 C1336 1.368 . S
C1317 H1341 0.949 . S
H1318 C1322 0.949 . S
C1319 C1320 1.349 . S
C1319 C1321 1.327 . S
C1319 H1342 0.950 . S
C1320 C1319 1.349 . S
C1320 C1332 1.349 . S
C1321 C1319 1.327 . S
C1321 C1337 1.429 . S
C1321 H1343 0.950 . S
C1322 H1318 0.949 . S
C1322 C1330 1.574 . S
C1322 C1338 1.368 . S
H1323 C1331 0.950 . S
H1324 C1329 0.950 . S
H1325 C1330 0.949 . S
H1326 C1332 0.950 . S
H1327 C1333 0.950 . S
H1328 C1334 0.949 . S
C1329 H1324 0.950 . S
C1329 C1331 1.327 . S
C1329 C1335 1.429 . S
C1330 C1322 1.574 . S
C1330 H1325 0.949 . S
C1330 C1336 1.368 . S
C1331 C1315 1.349 . S
C1331 H1323 0.950 . S
C1331 C1329 1.327 . S
C1332 C1320 1.349 . S
C1332 H1326 0.950 . S
C1332 C1333 1.327 . S
C1333 H1327 0.950 . S
C1333 C1332 1.327 . S
C1333 C1337 1.429 . S
C1334 C1317 1.574 . S
C1334 H1328 0.949 . S
C1334 C1338 1.368 . S
C1335 C1316 1.429 . S
C1335 C1329 1.429 . S
C1335 C1336 1.523 . S
C1336 C1317 1.368 . S
C1336 C1330 1.368 . S
C1336 C1335 1.523 . S
C1337 C1321 1.429 . S
C1337 C1333 1.429 . S
C1337 C1338 1.523 . S
C1338 C1322 1.368 . S
C1338 C1334 1.368 . S
C1338 C1337 1.523 . S
H1339 C1314 0.950 . S
H1340 C1316 0.950 . S
H1341 C1317 0.949 . S
H1342 C1319 0.950 . S
H1343 C1321 0.950 . S
C625 C241 2.053 . S
C630 C356 2.183 . S
C660 C439 2.213 . S
C655 C277 2.100 . S
C690 C524 2.172 . S
C685 C169 2.040 . S
C720 C608 2.162 . S
C715 C205 2.031 . S
C750 C344 2.183 1_565 S
C745 C97 2.023 . S
C775 C133 2.129 . S
C780 C427 2.214 . S
C805 C25 2.013 . S
C810 C512 2.173 . S
C835 C61 2.003 . S
C840 C596 2.161 1_655 S
C870 C346 0.432 1_455 S
C865 C211 0.288 . S
C900 C442 0.525 . S
C895 C247 0.267 . S
C930 C514 0.427 . S
C925 C253 0.354 . S
C955 C175 0.279 . S
C960 C598 0.426 . S
C985 C67 0.381 . S
C990 C358 0.432 . S
C1020 C430 0.525 . S
C1015 C103 0.377 . S
C1050 C526 0.427 . S
C1045 C109 0.274 . S
C1075 C31 0.378 . S
C1080 C610 0.426 . S
C1105 C181 2.444 . S
C1110 C343 2.650 . S
C1135 C217 2.421 . S
C1140 C428 2.648 . S
C1170 C511 2.677 . S
C1165 C283 2.385 . S
C1200 C595 2.670 . S
C1195 C145 2.463 . S
C1225 C37 2.425 . S
C1230 C355 2.649 . S
C1260 C440 2.647 . S
C1255 C73 2.402 . S
C1290 C523 2.678 . S
C1285 C139 2.411 . S
C1315 C1 2.445 . S
C1320 C607 2.670 . S
