# Generated by pormake.
# Topology anh, (6,3)-cn, num edge types: 1
# Building blocks:
#     Node 0, Type 0, BuildingBlock: INOVEN_clean_sbu_0, # of connection points: 6
#     Node 1, Type 0, BuildingBlock: INOVEN_clean_sbu_0, # of connection points: 6
#     Node 2, Type 0, BuildingBlock: INOVEN_clean_sbu_0, # of connection points: 6
#     Node 3, Type 1, BuildingBlock: MIDCAF_clean_linker_0, # of connection points: 3
#     Node 4, Type 1, BuildingBlock: MIDCAF_clean_linker_0, # of connection points: 3
#     Node 5, Type 1, BuildingBlock: MIDCAF_clean_linker_0, # of connection points: 3
#     Node 6, Type 1, BuildingBlock: MIDCAF_clean_linker_0, # of connection points: 3
#     Node 7, Type 1, BuildingBlock: MIDCAF_clean_linker_0, # of connection points: 3
#     Node 8, Type 1, BuildingBlock: MIDCAF_clean_linker_0, # of connection points: 3
#     Edge 9, Type (0, 1), BuildingBlock: MIFKUJ_clean_linker_0, # of connection points: 2
#     Edge 10, Type (0, 1), BuildingBlock: MIFKUJ_clean_linker_0, # of connection points: 2
#     Edge 11, Type (0, 1), BuildingBlock: MIFKUJ_clean_linker_0, # of connection points: 2
#     Edge 12, Type (0, 1), BuildingBlock: MIFKUJ_clean_linker_0, # of connection points: 2
#     Edge 13, Type (0, 1), BuildingBlock: MIFKUJ_clean_linker_0, # of connection points: 2
#     Edge 14, Type (0, 1), BuildingBlock: MIFKUJ_clean_linker_0, # of connection points: 2
#     Edge 15, Type (0, 1), BuildingBlock: MIFKUJ_clean_linker_0, # of connection points: 2
#     Edge 16, Type (0, 1), BuildingBlock: MIFKUJ_clean_linker_0, # of connection points: 2
#     Edge 17, Type (0, 1), BuildingBlock: MIFKUJ_clean_linker_0, # of connection points: 2
#     Edge 18, Type (0, 1), BuildingBlock: MIFKUJ_clean_linker_0, # of connection points: 2
#     Edge 19, Type (0, 1), BuildingBlock: MIFKUJ_clean_linker_0, # of connection points: 2
#     Edge 20, Type (0, 1), BuildingBlock: MIFKUJ_clean_linker_0, # of connection points: 2
#     Edge 21, Type (0, 1), BuildingBlock: MIFKUJ_clean_linker_0, # of connection points: 2
#     Edge 22, Type (0, 1), BuildingBlock: MIFKUJ_clean_linker_0, # of connection points: 2
#     Edge 23, Type (0, 1), BuildingBlock: MIFKUJ_clean_linker_0, # of connection points: 2
#     Edge 24, Type (0, 1), BuildingBlock: MIFKUJ_clean_linker_0, # of connection points: 2
#     Edge 25, Type (0, 1), BuildingBlock: MIFKUJ_clean_linker_0, # of connection points: 2
#     Edge 26, Type (0, 1), BuildingBlock: MIFKUJ_clean_linker_0, # of connection points: 2
# Relax obj value: 0.162
# Max RMSD: 0.202
# Mean RMSD: 0.152
data_MOF--net-anh--node1-INOVEN_clean_sbu_0--node2-MIDCAF_clean_linker_0--edge1-MIFKUJ_clean_linker_0
_symmetry_space_group_name_H-M    P1
_symmetry_Int_Tables_number       1
_symmetry_cell_setting            triclinic
loop_
_symmetry_equiv_pos_as_xyz
'x, y, z'
_cell_length_a     45.854279
_cell_length_b     52.426943
_cell_length_c     82.598963
_cell_angle_alpha  93.261607
_cell_angle_beta   89.512949
_cell_angle_gamma 126.99456
loop_
_atom_site_label
_atom_site_type_symbol
_atom_site_fract_x
_atom_site_fract_y
_atom_site_fract_z
_atom_type_partial_charge
Gd0 Gd 0.0976 0.51758 0.15124 0.0
Gd1 Gd 0.05636 0.54418 0.16006 0.0
C2 C 0.14316 0.5948 0.15786 0.0
C3 C 0.14288 0.50712 0.14068 0.0
C4 C 0.18309 0.52554 0.14144 0.0
C5 C 0.1998 0.52212 0.15444 0.0
C6 C 0.20506 0.54599 0.12929 0.0
C7 C 0.25937 0.55789 0.14282 0.0
C8 C 0.24291 0.562 0.12996 0.0
C9 C 0.23739 0.53821 0.15517 0.0
C10 C 0.07691 0.51158 0.18224 0.0
C11 C 1.01166 0.46871 0.15243 0.0
C12 C 1.02361 0.56349 0.17576 0.0
C13 C 0.98672 0.54345 0.18224 0.0
C14 C 0.96388 0.5528 0.18173 0.0
C15 C 0.97289 0.51312 0.1875 0.0
C16 C 0.91296 0.50061 0.19028 0.0
C17 C 0.93636 0.4919 0.19145 0.0
C18 C 0.92723 0.53156 0.18581 0.0
C19 C 0.0557 0.53048 0.12795 0.0
O20 O 0.14432 0.57008 0.15663 0.0
O21 O 0.11186 0.59092 0.15827 0.0
O22 O 0.12692 0.49808 0.15455 0.0
O23 O 0.12866 0.51674 0.13139 0.0
O24 O 0.07566 0.48951 0.17363 0.0
O25 O 0.08971 0.53574 0.1742 0.0
O26 O 1.01424 0.49118 0.16194 0.0
O27 O 1.03991 0.47491 0.14413 0.0
O28 O 1.02512 0.56302 0.15992 0.0
O29 O 0.04728 0.56097 0.18263 0.0
O30 O 1.02797 0.52614 0.13525 0.0
O31 O 0.08247 0.54312 0.13778 0.0
H32 H 0.18373 0.50636 0.16395 0.0
H33 H 0.19299 0.54912 0.11911 0.0
H34 H 0.25917 0.57694 0.12024 0.0
H35 H 0.24892 0.53381 0.16505 0.0
H36 H 0.97398 0.57597 0.1776 0.0
H37 H 0.98997 0.5053 0.18803 0.0
H38 H 0.92615 0.46832 0.19494 0.0
H39 H 0.90963 0.53873 0.18462 0.0
Gd40 Gd 0.5847 0.00934 0.48479 0.0
Gd41 Gd 0.53931 0.03186 0.47785 0.0
C42 C 0.49718 0.95727 0.4766 0.0
C43 C 0.61072 0.98131 0.49593 0.0
C44 C 0.59977 0.94862 0.49767 0.0
C45 C 0.60669 0.93342 0.48535 0.0
C46 C 0.58465 0.93319 0.51211 0.0
C47 C 0.58441 0.88846 0.50199 0.0
C48 C 0.57694 0.90341 0.51422 0.0
C49 C 0.59901 0.90368 0.48746 0.0
C50 C 0.58284 0.02079 0.45356 0.0
C51 C 0.62782 0.08439 0.48487 0.0
C52 C 0.51446 0.06127 0.4675 0.0
C53 C 0.52305 0.09282 0.47164 0.0
C54 C 0.54375 0.11079 0.48577 0.0
C55 C 0.51023 0.10501 0.46159 0.0
C56 C 0.53719 0.15226 0.4802 0.0
C57 C 0.51732 0.13456 0.46581 0.0
C58 C 0.55064 0.14019 0.49005 0.0
C59 C 0.54267 0.02183 0.50926 0.0
O60 O 0.52615 0.96383 0.48457 0.0
O61 O 0.49795 0.98004 0.47003 0.0
O62 O 0.61593 0.99102 0.48122 0.0
O63 O 0.59473 0.9906 0.50501 0.0
O64 O 0.61149 0.02682 0.46085 0.0
O65 O 0.55602 0.00726 0.46274 0.0
O66 O 0.59705 0.07804 0.47916 0.0
O67 O 0.6294 0.06169 0.48978 0.0
O68 O 0.49916 0.04098 0.47888 0.0
O69 O 0.54012 0.06149 0.46028 0.0
O70 O 0.51374 0.01562 0.50219 0.0
O71 O 0.56883 0.03484 0.49975 0.0
H72 H 0.61863 0.94471 0.47413 0.0
H73 H 0.57945 0.94442 0.52194 0.0
H74 H 0.56619 0.89258 0.52565 0.0
H75 H 0.60471 0.89268 0.47773 0.0
H76 H 0.55421 0.10189 0.4936 0.0
H77 H 0.49433 0.09149 0.4506 0.0
H78 H 0.50639 0.14312 0.45804 0.0
H79 H 0.56645 0.15347 0.50109 0.0
Gd80 Gd 0.60972 0.5672 0.84456 0.0
Gd81 Gd 0.55979 0.49599 0.84846 0.0
C82 C 0.52128 0.53032 0.84841 0.0
C83 C 0.63942 0.62429 0.83554 0.0
C84 C 0.62845 0.64528 0.83299 0.0
C85 C 0.64026 0.67119 0.84418 0.0
C86 C 0.60742 0.64056 0.81925 0.0
C87 C 0.61106 0.68777 0.8278 0.0
C88 C 0.59888 0.66158 0.81668 0.0
C89 C 0.6315 0.69204 0.84168 0.0
C90 C 0.60192 0.54962 0.87523 0.0
C91 C 0.64943 0.53383 0.84634 0.0
C92 C 0.53021 0.43853 0.85682 0.0
C93 C 0.53509 0.4134 0.85278 0.0
C94 C 0.52727 0.39861 0.83704 0.0
C95 C 0.54739 0.40374 0.86483 0.0
C96 C 0.54359 0.3648 0.84553 0.0
C97 C 0.55183 0.37985 0.86123 0.0
C98 C 0.53139 0.37457 0.83348 0.0
C99 C 0.56783 0.51269 0.81755 0.0
O100 O 0.55214 0.55418 0.84211 0.0
O101 O 0.51939 0.50647 0.85445 0.0
O102 O 0.64075 0.61815 0.85054 0.0
O103 O 0.62613 0.59937 0.8253 0.0
O104 O 0.63268 0.57352 0.86984 0.0
O105 O 0.57697 0.53748 0.86449 0.0
O106 O 0.61688 0.508 0.85017 0.0
O107 O 0.65326 0.55959 0.84186 0.0
O108 O 0.5166 0.44511 0.84534 0.0
O109 O 0.55673 0.46413 0.8653 0.0
O110 O 0.53761 0.48842 0.82302 0.0
O111 O 0.59292 0.52553 0.82831 0.0
H112 H 0.65658 0.67552 0.85486 0.0
H113 H 0.59794 0.62088 0.81036 0.0
H114 H 0.58352 0.65774 0.80574 0.0
H115 H 0.64086 0.71158 0.85065 0.0
H116 H 0.51788 0.4055 0.82743 0.0
H117 H 0.55337 0.41457 0.87708 0.0
H118 H 0.561 0.3727 0.87081 0.0
H119 H 0.52529 0.36377 0.82122 0.0
C120 C 0.45806 0.93331 0.19646 0.0
C121 C 0.46189 0.92175 0.18147 0.0
C122 C 0.49498 0.94144 0.17338 0.0
C123 C 0.52361 0.97194 0.18027 0.0
H124 H 0.63323 0.07376 0.17477 0.0
H125 H 0.68276 0.12381 0.16301 0.0
H126 H 0.68542 0.17796 0.20508 0.0
H127 H 0.63686 0.12868 0.21679 0.0
H128 H 0.62588 0.09287 0.25087 0.0
H129 H 0.62525 0.09427 0.28045 0.0
H130 H 0.52735 0.99658 0.27807 0.0
H131 H 0.52748 0.99521 0.24865 0.0
H132 H 0.48244 0.97094 0.21507 0.0
H133 H 0.43326 0.91874 0.20315 0.0
H134 H 0.49871 0.93325 0.16177 0.0
H135 H 0.54896 0.98641 0.17395 0.0
N136 N 0.5768 0.03952 0.19613 0.0
N137 N 0.60269 0.06862 0.2213 0.0
N138 N 0.5509 0.0154 0.22058 0.0
C139 C 0.60298 0.06744 0.2048 0.0
C140 C 0.57693 0.04267 0.22929 0.0
C141 C 0.55036 0.0134 0.20412 0.0
C142 C 0.63114 0.09715 0.19675 0.0
C143 C 0.64426 0.0964 0.1814 0.0
C144 C 0.67272 0.12501 0.17472 0.0
C145 C 0.68794 0.15487 0.1831 0.0
C146 C 0.67411 0.15546 0.19823 0.0
C147 C 0.64636 0.12708 0.20499 0.0
C148 C 0.57675 0.04393 0.2473 0.0
C149 C 0.60415 0.0717 0.25664 0.0
C150 C 0.6039 0.07248 0.2736 0.0
C151 C 0.57621 0.04556 0.28163 0.0
C152 C 0.54878 0.01789 0.27229 0.0
C153 C 0.54904 0.01707 0.25537 0.0
C154 C 0.51983 0.98292 0.19551 0.0
C155 C 0.48653 0.96329 0.20337 0.0
C156 C 0.59187 0.44442 0.55923 0.0
C157 C 0.57918 0.43484 0.54299 0.0
C158 C 0.57004 0.45206 0.53478 0.0
C159 C 0.5724 0.47757 0.54281 0.0
H160 H 0.58318 0.56502 0.53677 0.0
H161 H 0.57609 0.60207 0.52392 0.0
H162 H 0.54908 0.62466 0.57008 0.0
H163 H 0.55582 0.58786 0.58283 0.0
H164 H 0.56588 0.56518 0.61467 0.0
H165 H 0.5695 0.56847 0.64425 0.0
H166 H 0.61776 0.51871 0.64259 0.0
H167 H 0.61402 0.51513 0.61294 0.0
H168 H 0.60355 0.47601 0.57983 0.0
H169 H 0.59996 0.43221 0.56583 0.0
H170 H 0.55996 0.44521 0.52229 0.0
H171 H 0.56429 0.48979 0.53624 0.0
N172 N 0.57798 0.5305 0.56051 0.0
N173 N 0.58013 0.55529 0.58552 0.0
N174 N 0.5879 0.51506 0.58477 0.0
C175 C 0.57625 0.55251 0.56909 0.0
C176 C 0.5861 0.53681 0.59345 0.0
C177 C 0.58373 0.5116 0.56832 0.0
C178 C 0.57023 0.57351 0.56085 0.0
C179 C 0.57542 0.57769 0.54413 0.0
C180 C 0.57156 0.59903 0.53678 0.0
C181 C 0.56194 0.61623 0.54598 0.0
C182 C 0.55604 0.61149 0.5626 0.0
C183 C 0.56023 0.59052 0.56994 0.0
C184 C 0.58955 0.53978 0.61141 0.0
C185 C 0.57747 0.55508 0.62057 0.0
C186 C 0.57938 0.55686 0.63751 0.0
C187 C 0.59389 0.54384 0.64568 0.0
C188 C 0.60671 0.52916 0.63658 0.0
C189 C 0.60432 0.52695 0.61961 0.0
C190 C 0.5839 0.48637 0.55924 0.0
C191 C 0.59412 0.46975 0.56725 0.0
C192 C 0.96083 0.50642 0.87278 0.0
C193 C 0.96394 0.52646 0.86111 0.0
C194 C 0.99787 0.54563 0.85337 0.0
C195 C 1.02764 0.54525 0.85751 0.0
H196 H 0.16992 0.57564 0.85982 0.0
H197 H 0.22332 0.5769 0.85362 0.0
H198 H 0.16675 0.48183 0.87035 0.0
H199 H 0.1145 0.4813 0.87686 0.0
H200 H 0.12507 0.52256 0.92191 0.0
H201 H 0.12251 0.52018 0.95134 0.0
H202 H 1.03918 0.53466 0.95164 0.0
H203 H 1.04096 0.53618 0.92232 0.0
H204 H 0.98656 0.49107 0.88638 0.0
H205 H 0.93592 0.49165 0.87935 0.0
H206 H 1.00165 0.56127 0.84421 0.0
H207 H 0.05354 0.56116 0.85179 0.0
N208 N 0.08281 0.52964 0.86847 0.0
N209 N 0.10892 0.5299 0.89312 0.0
N210 N 0.05759 0.52924 0.89353 0.0
C211 C 0.10926 0.53001 0.87666 0.0
C212 C 0.08353 0.52986 0.90166 0.0
C213 C 0.05651 0.52905 0.8771 0.0
C214 C 0.13737 0.52806 0.8685 0.0
C215 C 0.16852 0.55464 0.86163 0.0
C216 C 0.1994 0.5554 0.85822 0.0
C217 C 0.20022 0.52967 0.86169 0.0
C218 C 0.16814 0.50256 0.86782 0.0
C219 C 0.13761 0.50193 0.87128 0.0
C220 C 0.08312 0.52942 0.91966 0.0
C221 C 0.10623 0.52528 0.92825 0.0
C222 C 0.10488 0.52406 0.94516 0.0
C223 C 0.08049 0.52705 0.95391 0.0
C224 C 0.05778 0.53161 0.94532 0.0
C225 C 0.059 0.5327 0.92845 0.0
C226 C 1.02443 0.52588 0.86962 0.0
C227 C 0.99028 0.50618 0.87691 0.0
C228 C 0.13507 0.63193 0.44247 0.0
C229 C 0.16288 0.6361 0.45221 0.0
C230 C 0.15807 0.60853 0.45724 0.0
C231 C 0.12733 0.57781 0.45189 0.0
H232 H 1.00097 0.48001 0.46297 0.0
H233 H 0.95347 0.42976 0.47502 0.0
H234 H 0.94594 0.37656 0.43133 0.0
H235 H 0.99287 0.42628 0.41935 0.0
H236 H 1.00161 0.46143 0.38621 0.0
H237 H 1.00105 0.4597 0.35663 0.0
H238 H 0.08689 0.56154 0.35845 0.0
H239 H 0.08797 0.56337 0.38791 0.0
H240 H 0.08507 0.59915 0.42869 0.0
H241 H 0.1369 0.65232 0.43877 0.0
H242 H 0.17885 0.61058 0.46463 0.0
H243 H 0.12523 0.55709 0.45524 0.0
N244 N 0.05117 0.51564 0.44056 0.0
N245 N 1.02456 0.48654 0.41551 0.0
N246 N 0.07075 0.54165 0.41617 0.0
C247 C 1.02639 0.48726 0.43197 0.0
C248 C 0.0466 0.51359 0.40751 0.0
C249 C 0.07339 0.54293 0.43259 0.0
C250 C 1.00063 0.45719 0.44018 0.0
C251 C 0.9895 0.45754 0.45606 0.0
C252 C 0.96215 0.42882 0.4629 0.0
C253 C 0.94593 0.3992 0.45411 0.0
C254 C 0.95808 0.39891 0.43849 0.0
C255 C 0.98487 0.42749 0.43158 0.0
C256 C 0.04498 0.51251 0.38951 0.0
C257 C 1.02032 0.4835 0.38033 0.0
C258 C 1.01983 0.48251 0.36336 0.0
C259 C 0.04405 0.51045 0.3552 0.0
C260 C 0.06827 0.5395 0.36437 0.0
C261 C 0.06872 0.54054 0.3813 0.0
C262 C 0.10121 0.57412 0.44122 0.0
C263 C 0.10498 0.60141 0.43686 0.0
C264 C 0.55847 0.108 0.7708 0.0
C265 C 0.56648 0.11422 0.78756 0.0
C266 C 0.57613 0.09709 0.79547 0.0
C267 C 0.57719 0.07385 0.78679 0.0
H268 H 0.58415 0.99571 0.79087 0.0
H269 H 0.58424 0.95418 0.80302 0.0
H270 H 0.55508 0.90204 0.75631 0.0
H271 H 0.55478 0.94297 0.74422 0.0
H272 H 0.55667 0.97332 0.71272 0.0
H273 H 0.55452 0.97267 0.68325 0.0
H274 H 0.58044 0.0669 0.68671 0.0
H275 H 0.58139 0.06712 0.71614 0.0
H276 H 0.5535 0.08116 0.74922 0.0
H277 H 0.5514 0.12106 0.76431 0.0
H278 H 0.58233 0.10133 0.8084 0.0
H279 H 0.58449 0.0609 0.79322 0.0
N280 N 0.57047 0.02083 0.76785 0.0
N281 N 0.56948 0.998 0.74234 0.0
N282 N 0.56984 0.04285 0.74398 0.0
C283 C 0.56999 0.99798 0.75879 0.0
C284 C 0.5696 0.02041 0.73483 0.0
C285 C 0.57019 0.0433 0.76045 0.0
C286 C 0.56952 0.97281 0.76654 0.0
C287 C 0.5776 0.97531 0.78322 0.0
C288 C 0.57784 0.95162 0.79017 0.0
C289 C 0.56951 0.92475 0.78064 0.0
C290 C 0.56113 0.92218 0.76404 0.0
C291 C 0.56125 0.94589 0.75708 0.0
C292 C 0.56907 0.02022 0.71685 0.0
C293 C 0.56196 0.99393 0.70721 0.0
C294 C 0.56093 0.99363 0.69027 0.0
C295 C 0.56726 0.01971 0.68255 0.0
C296 C 0.57477 0.04613 0.69221 0.0
C297 C 0.57551 0.04633 0.70913 0.0
C298 C 0.56917 0.06768 0.76998 0.0
C299 C 0.55995 0.08519 0.76213 0.0
C300 C 0.57959 0.35036 0.11586 0.0
C301 C 0.56698 0.34223 0.13171 0.0
C302 C 0.53441 0.33769 0.13582 0.0
C303 C 0.51671 0.34388 0.12485 0.0
H304 H 0.49687 0.41363 0.12912 0.0
H305 H 0.47739 0.4444 0.14154 0.0
H306 H 0.428 0.43799 0.09574 0.0
H307 H 0.44748 0.40746 0.08327 0.0
H308 H 0.4737 0.38977 0.0512 0.0
H309 H 0.48881 0.40174 0.02308 0.0
H310 H 0.57562 0.39239 0.02806 0.0
H311 H 0.56061 0.38052 0.05652 0.0
H312 H 0.57313 0.36407 0.09302 0.0
H313 H 0.60484 0.35449 0.1123 0.0
H314 H 0.52352 0.33081 0.14779 0.0
H315 H 0.49268 0.3417 0.12868 0.0
N316 N 0.49984 0.37872 0.10624 0.0
N317 N 0.49282 0.39288 0.08103 0.0
N318 N 0.52135 0.36805 0.08287 0.0
C319 C 0.48819 0.39204 0.09727 0.0
C320 C 0.50928 0.38095 0.07372 0.0
C321 C 0.51608 0.3664 0.09914 0.0
C322 C 0.4737 0.40811 0.1052 0.0
C323 C 0.48149 0.41846 0.12175 0.0
C324 C 0.47064 0.43627 0.12884 0.0
C325 C 0.45129 0.44354 0.11958 0.0
C326 C 0.44268 0.43248 0.10317 0.0
C327 C 0.45394 0.41511 0.09603 0.0
C328 C 0.51608 0.38436 0.05614 0.0
C329 C 0.49576 0.38987 0.04631 0.0
C330 C 0.50423 0.39648 0.03012 0.0
C331 C 0.53335 0.39792 0.02334 0.0
C332 C 0.55311 0.39153 0.033 0.0
C333 C 0.54436 0.38456 0.04924 0.0
C334 C 0.53087 0.35427 0.10945 0.0
C335 C 0.56156 0.3561 0.1048 0.0
H336 H 0.29545 0.55684 0.11672 0.0
H337 H 0.3486 0.55711 0.11787 0.0
H338 H 0.36301 0.58386 0.16913 0.0
H339 H 0.31004 0.58432 0.16803 0.0
H340 H 0.42255 0.59078 0.12969 0.0
H341 H 0.3585 0.52506 0.18615 0.0
H342 H 0.30185 0.50086 0.20142 0.0
H343 H 0.23988 0.47479 0.15682 0.0
H344 H 0.29609 0.49856 0.14134 0.0
H345 H 0.49409 0.50077 0.13741 0.0
H346 H 0.47712 0.53536 0.14702 0.0
H347 H 0.36772 0.46497 0.12728 0.0
H348 H 0.38443 0.43051 0.11776 0.0
H349 H 0.36904 0.49079 0.15771 0.0
H350 H 0.42943 0.52605 0.10561 0.0
H351 H 0.48233 0.54767 0.08806 0.0
H352 H 0.54743 0.63095 0.12092 0.0
H353 H 0.49496 0.60958 0.13876 0.0
C354 C 0.31099 0.56449 0.12807 0.0
C355 C 0.29794 0.56963 0.14238 0.0
C356 C 0.34149 0.56466 0.12871 0.0
C357 C 0.35912 0.56978 0.14365 0.0
C358 C 0.34944 0.57952 0.15752 0.0
C359 C 0.31902 0.57951 0.15688 0.0
C360 C 0.3801 0.55696 0.1452 0.0
C361 C 0.41154 0.56944 0.13617 0.0
C362 C 0.36544 0.5289 0.15351 0.0
C363 C 0.33143 0.51382 0.16266 0.0
C364 C 0.33273 0.51405 0.17964 0.0
C365 C 0.30073 0.50043 0.18832 0.0
C366 C 0.2673 0.48638 0.1801 0.0
C367 C 0.26577 0.48572 0.16318 0.0
C368 C 0.29768 0.49926 0.15445 0.0
C369 C 0.46629 0.49256 0.13539 0.0
C370 C 0.44055 0.46312 0.12678 0.0
C371 C 0.45673 0.51234 0.14081 0.0
C372 C 0.42125 0.50271 0.13778 0.0
C373 C 0.39522 0.47276 0.12977 0.0
C374 C 0.40482 0.45321 0.12424 0.0
C375 C 0.41109 0.52417 0.14191 0.0
C376 C 0.38138 0.51309 0.15193 0.0
C377 C 0.42716 0.55325 0.13436 0.0
C378 C 0.45849 0.56607 0.1236 0.0
C379 C 0.45512 0.54886 0.10914 0.0
C380 C 0.48499 0.56108 0.09914 0.0
C381 C 0.51826 0.59062 0.1034 0.0
C382 C 0.52168 0.60804 0.11766 0.0
C383 C 0.49189 0.59589 0.12771 0.0
H384 H 0.54135 0.60005 0.09564 0.0
H385 H 0.24259 0.47595 0.18684 0.0
H386 H 0.63299 0.13905 0.48825 0.0
H387 H 0.68772 0.19411 0.48659 0.0
H388 H 0.75278 0.16018 0.47954 0.0
H389 H 0.69832 0.10521 0.48219 0.0
H390 H 0.79113 0.21299 0.49668 0.0
H391 H 0.71976 0.18092 0.44703 0.0
H392 H 0.66393 0.15969 0.43063 0.0
H393 H 0.66282 0.23693 0.44988 0.0
H394 H 0.71847 0.25845 0.46652 0.0
H395 H 0.93686 0.34259 0.45383 0.0
H396 H 0.88361 0.29099 0.46221 0.0
H397 H 0.83201 0.33477 0.47737 0.0
H398 H 0.88523 0.38651 0.46893 0.0
H399 H 0.78678 0.27904 0.45752 0.0
H400 H 0.86333 0.31303 0.50542 0.0
H401 H 0.92001 0.33311 0.52076 0.0
H402 H 0.91275 0.25081 0.50299 0.0
H403 H 0.85628 0.23045 0.48736 0.0
C404 C 0.65906 0.1434 0.48653 0.0
C405 C 0.66138 0.11783 0.48525 0.0
C406 C 0.69035 0.1749 0.48545 0.0
C407 C 0.72443 0.18143 0.48246 0.0
C408 C 0.72691 0.15592 0.48177 0.0
C409 C 0.69574 0.12446 0.48328 0.0
C410 C 0.75716 0.21455 0.47952 0.0
C411 C 0.79018 0.22723 0.48798 0.0
C412 C 0.75606 0.23362 0.46838 0.0
C413 C 0.72308 0.22113 0.45812 0.0
C414 C 0.70753 0.19331 0.4478 0.0
C415 C 0.67592 0.18123 0.43847 0.0
C416 C 0.65979 0.19691 0.43924 0.0
C417 C 0.67533 0.2248 0.4493 0.0
C418 C 0.70693 0.23697 0.45867 0.0
C419 C 0.91429 0.34128 0.45908 0.0
C420 C 0.91526 0.36864 0.46072 0.0
C421 C 0.88395 0.31181 0.46393 0.0
C422 C 0.85385 0.30902 0.47048 0.0
C423 C 0.85495 0.33638 0.47238 0.0
C424 C 0.88549 0.36597 0.46768 0.0
C425 C 0.82061 0.27722 0.47458 0.0
C426 C 0.78756 0.2648 0.46629 0.0
C427 C 0.82186 0.25824 0.48565 0.0
C428 C 0.85572 0.27036 0.49511 0.0
C429 C 0.87397 0.29934 0.50468 0.0
C430 C 0.90603 0.31074 0.51345 0.0
C431 C 0.92002 0.29328 0.51282 0.0
C432 C 0.9019 0.26433 0.50346 0.0
C433 C 0.86984 0.25283 0.49466 0.0
H434 H 0.94485 0.30216 0.51962 0.0
H435 H 0.63528 0.18749 0.43203 0.0
H436 H 0.54862 0.67586 0.81472 0.0
H437 H 0.5383 0.71491 0.8083 0.0
H438 H 0.64588 0.79162 0.82762 0.0
H439 H 0.65687 0.75298 0.8337 0.0
H440 H 0.59285 0.79921 0.8372 0.0
H441 H 0.6334 0.77675 0.78813 0.0
H442 H 0.63128 0.74177 0.76614 0.0
H443 H 0.52284 0.70769 0.75206 0.0
H444 H 0.52412 0.74214 0.77415 0.0
H445 H 0.62111 0.9328 0.80144 0.0
H446 H 0.62455 0.89142 0.81117 0.0
H447 H 0.52287 0.81853 0.78557 0.0
H448 H 0.51961 0.85983 0.77565 0.0
H449 H 0.57021 0.80729 0.77976 0.0
H450 H 0.5299 0.83116 0.82785 0.0
H451 H 0.53104 0.86532 0.85002 0.0
H452 H 0.63689 0.89579 0.86621 0.0
H453 H 0.63662 0.86214 0.84399 0.0
C454 C 0.57021 0.70104 0.81752 0.0
C455 C 0.60368 0.7112 0.82466 0.0
C456 C 0.56416 0.72332 0.81393 0.0
C457 C 0.59143 0.7562 0.81739 0.0
C458 C 0.62441 0.76636 0.82492 0.0
C459 C 0.63057 0.74416 0.82843 0.0
C460 C 0.58627 0.78018 0.8126 0.0
C461 C 0.5882 0.80121 0.82463 0.0
C462 C 0.57943 0.7823 0.79625 0.0
C463 C 0.57871 0.76175 0.7829 0.0
C464 C 0.60899 0.7616 0.78043 0.0
C465 C 0.60796 0.7419 0.76794 0.0
C466 C 0.5769 0.72245 0.75774 0.0
C467 C 0.54685 0.72273 0.75999 0.0
C468 C 0.54772 0.74234 0.77249 0.0
C469 C 0.59921 0.90793 0.79811 0.0
C470 C 0.57015 0.89961 0.78774 0.0
C471 C 0.60118 0.88425 0.80368 0.0
C472 C 0.57382 0.85173 0.79922 0.0
C473 C 0.54439 0.8434 0.78915 0.0
C474 C 0.54257 0.86704 0.78347 0.0
C475 C 0.57671 0.8265 0.80436 0.0
C476 C 0.57451 0.80524 0.79237 0.0
C477 C 0.58312 0.82411 0.82076 0.0
C478 C 0.58337 0.84435 0.83416 0.0
C479 C 0.55355 0.84534 0.83606 0.0
C480 C 0.55402 0.86457 0.84865 0.0
C481 C 0.58406 0.88277 0.8595 0.0
C482 C 0.61366 0.88171 0.85779 0.0
C483 C 0.61335 0.86253 0.84521 0.0
H484 H 0.58437 0.89765 0.86924 0.0
H485 H 0.57616 0.70722 0.74807 0.0
H486 H 0.86615 0.50763 0.20696 0.0
H487 H 0.7993 0.47038 0.20596 0.0
H488 H 0.80356 0.4026 0.17593 0.0
H489 H 0.87002 0.43938 0.17712 0.0
H490 H 0.76285 0.45617 0.17926 0.0
H491 H 0.72447 0.32715 0.1763 0.0
H492 H 0.74196 0.29755 0.19013 0.0
H493 H 0.78247 0.36476 0.2315 0.0
H494 H 0.76447 0.3944 0.21814 0.0
H495 H 0.60948 0.32134 0.12915 0.0
H496 H 0.66041 0.33764 0.14748 0.0
H497 H 0.62874 0.38186 0.1814 0.0
H498 H 0.57892 0.36693 0.16304 0.0
H499 H 0.67807 0.33809 0.18155 0.0
H500 H 0.70369 0.45908 0.18701 0.0
H501 H 0.68553 0.48846 0.17334 0.0
H502 H 0.67323 0.43829 0.12791 0.0
H503 H 0.69197 0.40912 0.14126 0.0
C504 C 0.85271 0.48447 0.20046 0.0
C505 C 0.87317 0.47648 0.19202 0.0
C506 C 0.81461 0.46316 0.19995 0.0
C507 C 0.79635 0.43363 0.19091 0.0
C508 C 0.81689 0.42491 0.18326 0.0
C509 C 0.85495 0.44608 0.18387 0.0
C510 C 0.75664 0.41462 0.1871 0.0
C511 C 0.74419 0.43048 0.18026 0.0
C512 C 0.73237 0.38093 0.18797 0.0
C513 C 0.7433 0.36317 0.19612 0.0
C514 C 0.7369 0.33554 0.18839 0.0
C515 C 0.74689 0.31873 0.19615 0.0
C516 C 0.76338 0.32929 0.21166 0.0
C517 C 0.76974 0.35662 0.21948 0.0
C518 C 0.7597 0.37348 0.2118 0.0
C519 C 0.61283 0.33387 0.14069 0.0
C520 C 0.59063 0.34348 0.14442 0.0
C521 C 0.64164 0.34276 0.15124 0.0
C522 C 0.64855 0.36135 0.16564 0.0
C523 C 0.62385 0.36761 0.17029 0.0
C524 C 0.59525 0.35893 0.15974 0.0
C525 C 0.68506 0.37984 0.17374 0.0
C526 C 0.69681 0.3639 0.18112 0.0
C527 C 0.70897 0.41356 0.17344 0.0
C528 C 0.69873 0.43164 0.16518 0.0
C529 C 0.69725 0.45445 0.17409 0.0
C530 C 0.68687 0.47107 0.1664 0.0
C531 C 0.67809 0.46516 0.14978 0.0
C532 C 0.67991 0.44278 0.14079 0.0
C533 C 0.69041 0.4262 0.14841 0.0
H534 H 0.66997 0.47798 0.14386 0.0
H535 H 0.77126 0.31631 0.2176 0.0
H536 H 0.44053 0.93143 0.45453 0.0
H537 H 0.38459 0.87659 0.45193 0.0
H538 H 0.42078 0.85263 0.49247 0.0
H539 H 0.47765 0.90723 0.49465 0.0
H540 H 0.39029 0.80537 0.47124 0.0
H541 H 0.35336 0.86596 0.49545 0.0
H542 H 0.34742 0.90969 0.49866 0.0
H543 H 0.28833 0.87912 0.45293 0.0
H544 H 0.29434 0.83545 0.44934 0.0
H545 H 0.20739 0.65955 0.47998 0.0
H546 H 0.2647 0.71319 0.48563 0.0
H547 H 0.25374 0.74105 0.43934 0.0
H548 H 0.19784 0.68749 0.43317 0.0
H549 H 0.27027 0.7854 0.46624 0.0
H550 H 0.31111 0.72547 0.44251 0.0
H551 H 0.31629 0.68123 0.44094 0.0
H552 H 0.36676 0.71028 0.48866 0.0
H553 H 0.36137 0.75444 0.49061 0.0
C554 C 0.4366 0.9145 0.4629 0.0
C555 C 0.46346 0.92377 0.47487 0.0
C556 C 0.40443 0.88312 0.46147 0.0
C557 C 0.39786 0.86046 0.47224 0.0
C558 C 0.42498 0.86958 0.48404 0.0
C559 C 0.4575 0.90085 0.48529 0.0
C560 C 0.36284 0.82731 0.47109 0.0
C561 C 0.36407 0.80111 0.47044 0.0
C562 C 0.32839 0.82143 0.46994 0.0
C563 C 0.32457 0.84759 0.47207 0.0
C564 C 0.33931 0.86869 0.48603 0.0
C565 C 0.3359 0.89345 0.48793 0.0
C566 C 0.31758 0.89722 0.47599 0.0
C567 C 0.30254 0.87618 0.46216 0.0
C568 C 0.3059 0.8514 0.46019 0.0
C569 C 0.21728 0.67691 0.4709 0.0
C570 C 0.19747 0.66895 0.45615 0.0
C571 C 0.24999 0.70765 0.47421 0.0
C572 C 0.26339 0.73112 0.46292 0.0
C573 C 0.24371 0.7234 0.44829 0.0
C574 C 0.21144 0.69268 0.44486 0.0
C575 C 0.29799 0.76382 0.46616 0.0
C576 C 0.29658 0.78986 0.46722 0.0
C577 C 0.33213 0.76949 0.46798 0.0
C578 C 0.33542 0.743 0.46678 0.0
C579 C 0.32298 0.72223 0.45273 0.0
C580 C 0.32603 0.69722 0.45176 0.0
C581 C 0.34173 0.69288 0.46471 0.0
C582 C 0.35453 0.71362 0.47865 0.0
C583 C 0.3515 0.73865 0.47969 0.0
H584 H 0.34408 0.67351 0.46393 0.0
H585 H 0.31497 0.91641 0.47748 0.0
H586 H 0.59943 0.3624 0.85441 0.0
H587 H 0.60541 0.31966 0.84749 0.0
H588 H 0.50205 0.26576 0.82097 0.0
H589 H 0.49565 0.30805 0.82804 0.0
H590 H 0.5079 0.22783 0.8397 0.0
H591 H 0.58106 0.30748 0.80122 0.0
H592 H 0.62984 0.36155 0.79286 0.0
H593 H 0.71002 0.35981 0.81814 0.0
H594 H 0.66159 0.30586 0.82684 0.0
H595 H 0.5124 0.12129 0.78558 0.0
H596 H 0.511 0.16354 0.79861 0.0
H597 H 0.61477 0.20472 0.8228 0.0
H598 H 0.61645 0.16242 0.80961 0.0
H599 H 0.61282 0.24988 0.80835 0.0
H600 H 0.53987 0.16763 0.84452 0.0
H601 H 0.49087 0.11337 0.85253 0.0
H602 H 0.41022 0.11971 0.83158 0.0
H603 H 0.45878 0.17386 0.82322 0.0
C604 C 0.57784 0.34131 0.84723 0.0
C605 C 0.54715 0.3387 0.8417 0.0
C606 C 0.58141 0.317 0.84319 0.0
C607 C 0.55431 0.2896 0.8336 0.0
C608 C 0.52333 0.28669 0.82836 0.0
C609 C 0.51986 0.31101 0.8323 0.0
C610 C 0.55823 0.26406 0.82875 0.0
C611 C 0.53071 0.23261 0.83275 0.0
C612 C 0.58853 0.27042 0.82009 0.0
C613 C 0.61766 0.30281 0.81485 0.0
C614 C 0.60905 0.31875 0.80512 0.0
C615 C 0.63664 0.34934 0.80029 0.0
C616 C 0.67299 0.36415 0.80501 0.0
C617 C 0.68184 0.34834 0.81452 0.0
C618 C 0.65434 0.31775 0.8194 0.0
C619 C 0.53488 0.13927 0.79372 0.0
C620 C 0.56459 0.13858 0.79654 0.0
C621 C 0.53393 0.16329 0.80125 0.0
C622 C 0.56267 0.18721 0.81177 0.0
C623 C 0.59226 0.18646 0.81476 0.0
C624 C 0.59307 0.16218 0.80732 0.0
C625 C 0.56214 0.21354 0.81905 0.0
C626 C 0.59027 0.24514 0.8155 0.0
C627 C 0.53238 0.20732 0.82812 0.0
C628 C 0.50303 0.17474 0.83313 0.0
C629 C 0.51171 0.15737 0.8415 0.0
C630 C 0.484 0.12664 0.84612 0.0
C631 C 0.44746 0.11307 0.84253 0.0
C632 C 0.43854 0.13024 0.83434 0.0
C633 C 0.46615 0.16097 0.82967 0.0
H634 H 0.42604 0.08928 0.84613 0.0
H635 H 0.69432 0.38784 0.80126 0.0
H636 H 0.52654 0.83599 0.51626 0.0
H637 H 0.51861 0.78681 0.52178 0.0
H638 H 0.62073 0.82236 0.49926 0.0
H639 H 0.62892 0.87158 0.49377 0.0
H640 H 0.56926 0.75963 0.49054 0.0
H641 H 0.61598 0.82645 0.54023 0.0
H642 H 0.61654 0.8594 0.56294 0.0
H643 H 0.51126 0.7785 0.57688 0.0
H644 H 0.50985 0.74516 0.5541 0.0
H645 H 0.60918 0.66174 0.52526 0.0
H646 H 0.60839 0.70461 0.51562 0.0
H647 H 0.50841 0.66768 0.54055 0.0
H648 H 0.50925 0.62496 0.55031 0.0
H649 H 0.55591 0.7296 0.54748 0.0
H650 H 0.51059 0.66174 0.49856 0.0
H651 H 0.51031 0.62892 0.47587 0.0
H652 H 0.61273 0.71125 0.46045 0.0
H653 H 0.61388 0.7445 0.48319 0.0
C654 C 0.54735 0.83337 0.51252 0.0
C655 C 0.57845 0.85781 0.50464 0.0
C656 C 0.54274 0.80521 0.51564 0.0
C657 C 0.56928 0.80104 0.51109 0.0
C658 C 0.59985 0.825 0.50285 0.0
C659 C 0.60444 0.85312 0.49969 0.0
C660 C 0.56589 0.77223 0.51539 0.0
C661 C 0.56667 0.75318 0.503 0.0
C662 C 0.56175 0.76346 0.53161 0.0
C663 C 0.56264 0.78341 0.54536 0.0
C664 C 0.59283 0.81575 0.54807 0.0
C665 C 0.59332 0.83449 0.56096 0.0
C666 C 0.56391 0.82108 0.57132 0.0
C667 C 0.53399 0.78887 0.56883 0.0
C668 C 0.53334 0.77004 0.55594 0.0
C669 C 0.58665 0.66239 0.52841 0.0
C670 C 0.55935 0.64004 0.5386 0.0
C671 C 0.58622 0.68692 0.5229 0.0
C672 C 0.55824 0.68933 0.5273 0.0
C673 C 0.53037 0.66642 0.53706 0.0
C674 C 0.5309 0.64204 0.54264 0.0
C675 C 0.55923 0.71683 0.52263 0.0
C676 C 0.55816 0.73578 0.53498 0.0
C677 C 0.56312 0.72546 0.50638 0.0
C678 C 0.56247 0.70555 0.49267 0.0
C679 C 0.5332 0.6728 0.49041 0.0
C680 C 0.53286 0.65413 0.47752 0.0
C681 C 0.56153 0.66797 0.46675 0.0
C682 C 0.59056 0.70055 0.46882 0.0
C683 C 0.59105 0.71933 0.48169 0.0
H684 H 0.56121 0.65348 0.45678 0.0
H685 H 0.56434 0.83562 0.5813 0.0
H686 H 0.72176 0.58243 0.84045 0.0
H687 H 0.77489 0.58228 0.8424 0.0
H688 H 0.70536 0.48462 0.85598 0.0
H689 H 0.65234 0.48496 0.85447 0.0
H690 H 0.7638 0.51335 0.87358 0.0
H691 H 0.74534 0.50975 0.81627 0.0
H692 H 0.7376 0.52743 0.79069 0.0
H693 H 0.84349 0.61771 0.79847 0.0
H694 H 0.85166 0.60071 0.82422 0.0
H695 H 0.88956 0.47737 0.86109 0.0
H696 H 0.83852 0.47994 0.8583 0.0
H697 H 0.91344 0.58032 0.85025 0.0
H698 H 0.9651 0.57815 0.85338 0.0
H699 H 0.85371 0.55174 0.83001 0.0
H700 H 0.87213 0.55351 0.88716 0.0
H701 H 0.87906 0.5346 0.91246 0.0
H702 H 0.77176 0.44589 0.90451 0.0
H703 H 0.7644 0.46408 0.87902 0.0
C704 C 0.71761 0.56081 0.84379 0.0
C705 C 0.68227 0.53364 0.84716 0.0
C706 C 0.74824 0.56066 0.84481 0.0
C707 C 0.74471 0.53322 0.84906 0.0
C708 C 0.70943 0.50619 0.8526 0.0
C709 C 0.67882 0.50637 0.85166 0.0
C710 C 0.77751 0.53274 0.85007 0.0
C711 C 0.78303 0.52135 0.86389 0.0
C712 C 0.80373 0.54382 0.83773 0.0
C713 C 0.79894 0.55408 0.82225 0.0
C714 C 0.76686 0.53346 0.81258 0.0
C715 C 0.76242 0.54335 0.79804 0.0
C716 C 0.78999 0.57371 0.79298 0.0
C717 C 0.82212 0.59422 0.80242 0.0
C718 C 0.82669 0.58446 0.81698 0.0
C719 C 0.89558 0.50022 0.85888 0.0
C720 C 0.93216 0.52767 0.85774 0.0
C721 C 0.866 0.50161 0.85724 0.0
C722 C 0.87161 0.53047 0.85436 0.0
C723 C 0.90793 0.55768 0.85255 0.0
C724 C 0.93768 0.55635 0.85427 0.0
C725 C 0.8397 0.53212 0.85343 0.0
C726 C 0.83441 0.54375 0.83967 0.0
C727 C 0.81352 0.52104 0.86576 0.0
C728 C 0.81788 0.51003 0.88108 0.0
C729 C 0.85014 0.52986 0.89073 0.0
C730 C 0.85412 0.51929 0.90512 0.0
C731 C 0.82591 0.48903 0.91007 0.0
C732 C 0.79362 0.4693 0.90065 0.0
C733 C 0.78952 0.47974 0.88623 0.0
H734 H 0.82904 0.48089 0.92122 0.0
H735 H 0.7865 0.58132 0.78172 0.0
H736 H 0.21268 0.61372 0.15247 0.0
H737 H 0.26943 0.66836 0.15325 0.0
H738 H 0.20933 0.70536 0.16595 0.0
H739 H 0.15253 0.65103 0.16478 0.0
H740 H 0.25696 0.74008 0.14403 0.0
H741 H 0.26228 0.69953 0.19442 0.0
H742 H 0.2618 0.66126 0.2107 0.0
H743 H 0.35532 0.6806 0.18597 0.0
H744 H 0.35611 0.71876 0.16943 0.0
H745 H 0.38887 0.89398 0.18035 0.0
H746 H 0.33836 0.83819 0.17321 0.0
H747 H 0.41489 0.81866 0.16051 0.0
H748 H 0.46589 0.87468 0.16812 0.0
H749 H 0.36324 0.77397 0.17925 0.0
H750 H 0.36248 0.81918 0.13112 0.0
H751 H 0.36301 0.85715 0.11458 0.0
H752 H 0.26129 0.82878 0.13436 0.0
H753 H 0.26039 0.79096 0.1512 0.0
C754 C 0.21153 0.63348 0.15548 0.0
C755 C 0.17794 0.62788 0.15863 0.0
C756 C 0.24409 0.66477 0.15596 0.0
C757 C 0.24389 0.69114 0.15985 0.0
C758 C 0.21034 0.68553 0.1629 0.0
C759 C 0.1778 0.65435 0.16228 0.0
C760 C 0.27836 0.72464 0.16077 0.0
C761 C 0.28005 0.74751 0.15185 0.0
C762 C 0.30918 0.73429 0.17049 0.0
C763 C 0.30904 0.71174 0.18059 0.0
C764 C 0.28262 0.69549 0.19241 0.0
C765 C 0.28231 0.67384 0.20168 0.0
C766 C 0.30845 0.66844 0.19934 0.0
C767 C 0.33506 0.68478 0.18776 0.0
C768 C 0.33548 0.70645 0.17845 0.0
C769 C 0.39504 0.87791 0.17592 0.0
C770 C 0.43149 0.88882 0.17487 0.0
C771 C 0.36605 0.84598 0.17171 0.0
C772 C 0.37265 0.82409 0.16619 0.0
C773 C 0.40904 0.83505 0.16471 0.0
C774 C 0.43818 0.86715 0.16891 0.0
C775 C 0.34141 0.78958 0.16285 0.0
C776 C 0.34033 0.7665 0.17129 0.0
C777 C 0.31115 0.7797 0.15265 0.0
C778 C 0.31151 0.80238 0.14251 0.0
C779 C 0.34035 0.8212 0.13204 0.0
C780 C 0.34069 0.84267 0.12259 0.0
C781 C 0.31223 0.84542 0.12344 0.0
C782 C 0.28332 0.82664 0.13372 0.0
C783 C 0.28286 0.80515 0.1432 0.0
H784 H 0.31255 0.86205 0.11612 0.0
H785 H 0.30814 0.65164 0.20652 0.0
H786 H 0.52869 0.17079 0.5103 0.0
H787 H 0.5358 0.21977 0.51867 0.0
H788 H 0.56441 0.25105 0.47007 0.0
H789 H 0.55768 0.20204 0.46161 0.0
H790 H 0.60979 0.2997 0.49408 0.0
H791 H 0.48206 0.22253 0.48154 0.0
H792 H 0.42122 0.17067 0.48263 0.0
H793 H 0.42035 0.18761 0.53404 0.0
H794 H 0.48146 0.23939 0.5333 0.0
H795 H 0.59468 0.42673 0.51168 0.0
H796 H 0.58698 0.37963 0.49884 0.0
H797 H 0.54619 0.33184 0.54339 0.0
H798 H 0.55248 0.37812 0.55605 0.0
H799 H 0.50564 0.292 0.51843 0.0
H800 H 0.63468 0.36654 0.53154 0.0
H801 H 0.69622 0.41789 0.53099 0.0
H802 H 0.69518 0.40568 0.47909 0.0
H803 H 0.63339 0.35443 0.47933 0.0
C804 C 0.53684 0.18822 0.50142 0.0
C805 C 0.54259 0.18254 0.48529 0.0
C806 C 0.54063 0.21608 0.50619 0.0
C807 C 0.55027 0.23889 0.49495 0.0
C808 C 0.55681 0.23368 0.47891 0.0
C809 C 0.55274 0.20562 0.47408 0.0
C810 C 0.5531 0.26795 0.50005 0.0
C811 C 0.58687 0.29812 0.49914 0.0
C812 C 0.52335 0.26579 0.50689 0.0
C813 C 0.48649 0.23473 0.50738 0.0
C814 C 0.46903 0.21509 0.4931 0.0
C815 C 0.43447 0.18573 0.49365 0.0
C816 C 0.41696 0.17582 0.5084 0.0
C817 C 0.43395 0.1953 0.52263 0.0
C818 C 0.46854 0.22468 0.52215 0.0
C819 C 0.58377 0.40607 0.51869 0.0
C820 C 0.57449 0.40635 0.53495 0.0
C821 C 0.57969 0.37927 0.51138 0.0
C822 C 0.56641 0.35229 0.52021 0.0
C823 C 0.55661 0.35237 0.53634 0.0
C824 C 0.56059 0.37904 0.54362 0.0
C825 C 0.56258 0.32384 0.51279 0.0
C826 C 0.52853 0.29371 0.51323 0.0
C827 C 0.59213 0.32606 0.50559 0.0
C828 C 0.62925 0.35685 0.50543 0.0
C829 C 0.64745 0.37494 0.52 0.0
C830 C 0.68239 0.404 0.51975 0.0
C831 C 0.69955 0.41509 0.50501 0.0
C832 C 0.68183 0.3971 0.4905 0.0
C833 C 0.64685 0.36804 0.49068 0.0
H834 H 0.72661 0.43759 0.50484 0.0
H835 H 0.3902 0.15308 0.5088 0.0
H836 H 0.50665 0.56445 0.83042 0.0
H837 H 0.45368 0.56497 0.83131 0.0
H838 H 0.40975 0.49959 0.86956 0.0
H839 H 0.46164 0.49754 0.86794 0.0
H840 H 0.35603 0.48254 0.85219 0.0
H841 H 0.45543 0.58887 0.87363 0.0
H842 H 0.51604 0.64109 0.87269 0.0
H843 H 0.4821 0.66023 0.82967 0.0
H844 H 0.42137 0.60796 0.83026 0.0
H845 H 0.22532 0.50413 0.88057 0.0
H846 H 0.27903 0.50543 0.87739 0.0
H847 H 0.30848 0.56096 0.83561 0.0
H848 H 0.25422 0.55956 0.83862 0.0
H849 H 0.36921 0.58367 0.85325 0.0
H850 H 0.26981 0.47892 0.83234 0.0
H851 H 0.20959 0.42622 0.83256 0.0
H852 H 0.24416 0.40414 0.8742 0.0
H853 H 0.30445 0.4569 0.87437 0.0
C854 C 0.48574 0.55016 0.83905 0.0
C855 C 0.48882 0.53102 0.84914 0.0
C856 C 0.45532 0.5507 0.83968 0.0
C857 C 0.42736 0.53295 0.85081 0.0
C858 C 0.43046 0.51368 0.86083 0.0
C859 C 0.46045 0.51257 0.85994 0.0
C860 C 0.39472 0.5338 0.8519 0.0
C861 C 0.3593 0.50485 0.85269 0.0
C862 C 0.39786 0.56257 0.85201 0.0
C863 C 0.43396 0.59439 0.85192 0.0
C864 C 0.46092 0.60419 0.86395 0.0
C865 C 0.4953 0.63378 0.86347 0.0
C866 C 0.50294 0.65392 0.8511 0.0
C867 C 0.47614 0.64459 0.83924 0.0
C868 C 0.44172 0.615 0.83965 0.0
C869 C 0.24268 0.51629 0.87049 0.0
C870 C 0.23439 0.53128 0.85972 0.0
C871 C 0.27384 0.51711 0.86872 0.0
C872 C 0.29808 0.53281 0.85606 0.0
C873 C 0.29052 0.54853 0.84549 0.0
C874 C 0.25924 0.54774 0.84726 0.0
C875 C 0.33086 0.53249 0.85389 0.0
C876 C 0.36615 0.56146 0.85283 0.0
C877 C 0.3277 0.50377 0.85355 0.0
C878 C 0.29153 0.47198 0.85345 0.0
C879 C 0.26448 0.46292 0.84162 0.0
C880 C 0.23035 0.43302 0.84166 0.0
C881 C 0.22303 0.41188 0.85341 0.0
C882 C 0.24986 0.42056 0.86512 0.0
C883 C 0.28403 0.45044 0.86514 0.0
H884 H 0.19659 0.38874 0.85342 0.0
H885 H 0.5296 0.67678 0.85073 0.0
H886 H 0.94368 0.45132 0.15851 0.0
H887 H 0.88728 0.39754 0.16068 0.0
H888 H 0.94479 0.35763 0.14899 0.0
H889 H 1.00114 0.41166 0.14594 0.0
H890 H 0.87928 0.31978 0.13576 0.0
H891 H 0.92449 0.36865 0.19 0.0
H892 H 0.94698 0.41156 0.2116 0.0
H893 H 0.84636 0.40028 0.20824 0.0
H894 H 0.82359 0.35775 0.18637 0.0
H895 H 0.75149 0.16934 0.17046 0.0
H896 H 0.80493 0.22168 0.16279 0.0
H897 H 0.74744 0.26193 0.17318 0.0
H898 H 0.69452 0.21002 0.18132 0.0
H899 H 0.8126 0.29962 0.18676 0.0
H900 H 0.76588 0.24848 0.13365 0.0
H901 H 0.7437 0.20623 0.11173 0.0
H902 H 0.84703 0.22194 0.11267 0.0
H903 H 0.86969 0.26401 0.13475 0.0
C904 C 0.94427 0.43108 0.15621 0.0
C905 C 0.97697 0.43577 0.15216 0.0
C906 C 0.91198 0.40026 0.15759 0.0
C907 C 0.91179 0.37335 0.1555 0.0
C908 C 0.94413 0.37791 0.15079 0.0
C909 C 0.97637 0.40881 0.14904 0.0
C910 C 0.87827 0.34074 0.15876 0.0
C911 C 0.86501 0.31529 0.14702 0.0
C912 C 0.85893 0.3348 0.17327 0.0
C913 C 0.8723 0.35997 0.1866 0.0
C914 C 0.90718 0.37535 0.19387 0.0
C915 C 0.92 0.39963 0.20613 0.0
C916 C 0.89803 0.40854 0.21133 0.0
C917 C 0.86323 0.39322 0.20425 0.0
C918 C 0.85035 0.36901 0.19194 0.0
C919 C 0.75009 0.18927 0.17087 0.0
C920 C 0.7188 0.18553 0.17656 0.0
C921 C 0.78068 0.21923 0.16648 0.0
C922 C 0.78039 0.24598 0.1674 0.0
C923 C 0.74864 0.24192 0.17256 0.0
C924 C 0.71831 0.21215 0.17714 0.0
C925 C 0.81359 0.27851 0.16379 0.0
C926 C 0.82682 0.304 0.1755 0.0
C927 C 0.83286 0.28441 0.14927 0.0
C928 C 0.81935 0.25918 0.13596 0.0
C929 C 0.78378 0.24275 0.12927 0.0
C930 C 0.77114 0.21887 0.1168 0.0
C931 C 0.79391 0.21135 0.11084 0.0
C932 C 0.82941 0.22776 0.11731 0.0
C933 C 0.84218 0.25165 0.12979 0.0
H934 H 0.78407 0.19285 0.10119 0.0
H935 H 0.90802 0.42739 0.22079 0.0
H936 H 0.11607 0.54965 0.11079 0.0
H937 H 0.12065 0.54669 0.0813 0.0
H938 H 1.00545 0.50157 0.07546 0.0
H939 H 1.00065 0.50417 0.10503 0.0
H940 H 1.0274 0.47315 0.05496 0.0
H941 H 0.06673 0.57992 0.06997 0.0
H942 H 0.10394 0.6324 0.08533 0.0
H943 H 0.20172 0.65032 0.06628 0.0
H944 H 0.16509 0.59772 0.05097 0.0
H945 H 1.01951 0.49813 0.97235 0.0
H946 H 1.01636 0.49716 0.0018 0.0
H947 H 0.13333 0.54979 0.00583 0.0
H948 H 0.13692 0.55219 0.97633 0.0
H949 H 0.11197 0.57375 0.02744 0.0
H950 H 0.0737 0.46845 0.01171 0.0
H951 H 1.03745 0.41574 -0.00344 0.0
H952 H 0.9392 0.39453 0.017 0.0
H953 H 0.97482 0.44732 0.03212 0.0
C954 C 0.09165 0.53884 0.10323 0.0
C955 C 0.05801 0.52722 0.11018 0.0
C956 C 0.09435 0.53731 0.08638 0.0
C957 C 0.06348 0.52425 0.07616 0.0
C958 C 1.02963 0.5118 0.08311 0.0
C959 C 1.02694 0.5134 0.09998 0.0
C960 C 0.06672 0.52436 0.05823 0.0
C961 C 0.04556 0.49516 0.04891 0.0
C962 C 0.09117 0.553 0.05038 0.0
C963 C 0.1132 0.58475 0.05945 0.0
C964 C 0.09618 0.59495 0.06915 0.0
C965 C 0.11716 0.62473 0.07783 0.0
C966 C 0.15517 0.64465 0.07682 0.0
C967 C 0.17227 0.63485 0.06708 0.0
C968 C 0.15142 0.60507 0.05838 0.0
C969 C 0.04466 0.50976 0.97947 0.0
C970 C 0.07851 0.52533 0.9719 0.0
C971 C 0.04275 0.50881 -0.00366 0.0
C972 C 0.07455 0.52302 0.00608 0.0
C973 C 0.10838 0.53853 -0.00141 0.0
C974 C 0.11035 0.53963 0.98169 0.0
C975 C 0.07253 0.5225 0.02408 0.0
C976 C 0.0939 0.55167 0.03345 0.0
C977 C 0.04843 0.49379 0.03197 0.0
C978 C 1.02691 0.46197 0.02294 0.0
C979 C 0.04434 0.45265 0.01288 0.0
C980 C 1.0239 0.42274 0.00432 0.0
C981 C 0.98604 0.40183 0.00579 0.0
C982 C 0.96853 0.41076 0.01586 0.0
C983 C 0.98884 0.44066 0.02445 0.0
H984 H 0.97027 0.37869 -0.00085 0.0
H985 H 0.17137 0.66769 0.08355 0.0
H986 H 0.52303 0.00357 0.43564 0.0
H987 H 0.52016 0.01034 0.4067 0.0
H988 H 0.63569 0.05619 0.40382 0.0
H989 H 0.63874 0.04971 0.43271 0.0
H990 H 0.61558 0.08719 0.38729 0.0
H991 H 0.57445 0.97869 0.39103 0.0
H992 H 0.53553 0.9244 0.40094 0.0
H993 H 0.44021 0.91009 0.38091 0.0
H994 H 0.47856 0.9645 0.37107 0.0
H995 H 0.63439 0.07054 0.30278 0.0
H996 H 0.63363 0.06902 0.33231 0.0
H997 H 0.51706 0.01968 0.33079 0.0
H998 H 0.51764 0.02118 0.30124 0.0
H999 H 0.53464 0.99122 0.34982 0.0
H1000 H 0.57578 0.09831 0.34448 0.0
H1001 H 0.61438 0.15269 0.3347 0.0
H1002 H 0.70893 0.17004 0.35773 0.0
H1003 H 0.67097 0.11558 0.36746 0.0
C1004 C 0.5478 0.01519 0.42882 0.0
C1005 C 0.58105 0.02587 0.43634 0.0
C1006 C 0.54612 0.01899 0.4123 0.0
C1007 C 0.57765 0.03346 0.40307 0.0
C1008 C 0.61104 0.04493 0.41071 0.0
C1009 C 0.61271 0.04108 0.42718 0.0
C1010 C 0.57583 0.0359 0.38535 0.0
C1011 C 0.59814 0.0662 0.37906 0.0
C1012 C 0.55238 0.00858 0.37468 0.0
C1013 C 0.52933 0.97578 0.38048 0.0
C1014 C 0.54516 0.96405 0.38885 0.0
C1015 C 0.52321 0.93325 0.39443 0.0
C1016 C 0.48541 0.91385 0.3916 0.0
C1017 C 0.46949 0.92517 0.38312 0.0
C1018 C 0.49132 0.95598 0.37753 0.0
C1019 C 0.60867 0.05979 0.30874 0.0
C1020 C 0.57608 0.04598 0.29965 0.0
C1021 C 0.60827 0.05891 0.32563 0.0
C1022 C 0.57532 0.04447 0.33379 0.0
C1023 C 0.54279 0.03088 0.32475 0.0
C1024 C 0.54316 0.03169 0.30787 0.0
C1025 C 0.57465 0.04254 0.35168 0.0
C1026 C 0.55189 0.01229 0.35802 0.0
C1027 C 0.59763 0.06993 0.36239 0.0
C1028 C 0.62056 0.10274 0.35657 0.0
C1029 C 0.60485 0.11362 0.34735 0.0
C1030 C 0.62661 0.14448 0.34183 0.0
C1031 C 0.6641 0.16478 0.34555 0.0
C1032 C 0.67989 0.15428 0.35484 0.0
C1033 C 0.65826 0.12343 0.36037 0.0
H1034 H 0.6809 0.18867 0.34127 0.0
H1035 H 0.46845 0.89001 0.39593 0.0
H1036 H 0.63217 0.55207 0.80214 0.0
H1037 H 0.63989 0.56119 0.77312 0.0
H1038 H 0.52271 0.50042 0.76553 0.0
H1039 H 0.51503 0.49044 0.79433 0.0
H1040 H 0.55029 0.48449 0.74376 0.0
H1041 H 0.57697 0.58438 0.7637 0.0
H1042 H 0.60788 0.63464 0.78088 0.0
H1043 H 0.71148 0.66563 0.76229 0.0
H1044 H 0.68113 0.61552 0.74495 0.0
H1045 H 0.53781 0.52647 0.66551 0.0
H1046 H 0.53738 0.52514 0.69511 0.0
H1047 H 0.65032 0.56133 0.696 0.0
H1048 H 0.65083 0.56241 0.66628 0.0
H1049 H 0.62849 0.59098 0.72079 0.0
H1050 H 0.5969 0.489 0.69953 0.0
H1051 H 0.56189 0.43932 0.68179 0.0
H1052 H 0.46217 0.41265 0.7032 0.0
H1053 H 0.49656 0.46246 0.72089 0.0
C1054 C 0.60814 0.54089 0.79425 0.0
C1055 C 0.57301 0.5204 0.8004 0.0
C1056 C 0.61254 0.54624 0.7777 0.0
C1057 C 0.58186 0.53163 0.76711 0.0
C1058 C 0.54679 0.51182 0.7734 0.0
C1059 C 0.54242 0.50618 0.78987 0.0
C1060 C 0.58599 0.53553 0.74935 0.0
C1061 C 0.56709 0.50784 0.7388 0.0
C1062 C 0.60846 0.56592 0.74279 0.0
C1063 C 0.62683 0.59607 0.75317 0.0
C1064 C 0.60637 0.60182 0.76337 0.0
C1065 C 0.62378 0.63029 0.77311 0.0
C1066 C 0.66165 0.65322 0.77277 0.0
C1067 C 0.68216 0.64781 0.76258 0.0
C1068 C 0.66486 0.61943 0.75275 0.0
C1069 C 0.56265 0.53446 0.67204 0.0
C1070 C 0.59434 0.54449 0.66364 0.0
C1071 C 0.56234 0.53363 0.6889 0.0
C1072 C 0.59381 0.54312 0.69768 0.0
C1073 C 0.62583 0.55401 0.6894 0.0
C1074 C 0.626 0.55439 0.67247 0.0
C1075 C 0.59244 0.54001 0.71541 0.0
C1076 C 0.61188 0.56774 0.72588 0.0
C1077 C 0.56995 0.50969 0.72194 0.0
C1078 C 0.54927 0.4796 0.71142 0.0
C1079 C 0.56748 0.47268 0.70035 0.0
C1080 C 0.54775 0.44447 0.69033 0.0
C1081 C 0.50982 0.42288 0.69134 0.0
C1082 C 0.49155 0.42941 0.70241 0.0
C1083 C 0.51115 0.45762 0.71245 0.0
H1084 H 0.49459 0.40105 0.68357 0.0
H1085 H 0.67507 0.67522 0.78035 0.0
H1086 H 0.48781 0.9915 0.53057 0.0
H1087 H 0.49326 0.98941 0.55986 0.0
H1088 H 0.61018 0.04387 0.5566 0.0
H1089 H 0.60485 0.04587 0.52724 0.0
H1090 H 0.52257 0.96613 0.57837 0.0
H1091 H 0.64686 0.09775 0.59043 0.0
H1092 H 0.6767 0.14959 0.5782 0.0
H1093 H 0.57368 0.11783 0.5572 0.0
H1094 H 0.54318 0.06603 0.5695 0.0
H1095 H 0.59148 0.9959 0.66023 0.0
H1096 H 0.58787 0.99465 0.63064 0.0
H1097 H 0.53684 0.04191 0.63435 0.0
H1098 H 0.53934 0.04249 0.66389 0.0
H1099 H 0.59187 0.06847 0.61225 0.0
H1100 H 0.48578 0.96402 0.62493 0.0
H1101 H 0.45323 0.91193 0.63712 0.0
H1102 H 0.5143 0.88876 0.60882 0.0
H1103 H 0.54759 0.94094 0.59663 0.0
C1104 C 0.51464 0.00283 0.53609 0.0
C1105 C 0.54594 0.01905 0.5267 0.0
C1106 C 0.51769 1.00148 0.55279 0.0
C1107 C 0.55212 0.01667 0.56039 0.0
C1108 C 0.58338 0.0322 0.55096 0.0
C1109 C 0.5803 0.0333 0.53422 0.0
C1110 C 0.55533 0.01747 0.57828 0.0
C1111 C 0.5379 0.98849 0.58579 0.0
C1112 C 0.57496 0.04664 0.58794 0.0
C1113 C 0.59286 0.07791 0.58073 0.0
C1114 C 0.63058 0.1019 0.58325 0.0
C1115 C 0.6476 0.13127 0.5763 0.0
C1116 C 0.62712 0.13696 0.56688 0.0
C1117 C 0.58954 0.11335 0.56445 0.0
C1118 C 0.57238 0.08397 0.57139 0.0
C1119 C 0.5791 0.00572 0.65478 0.0
C1120 C 0.56566 0.01927 0.66451 0.0
C1121 C 0.57725 0.00513 0.63785 0.0
C1122 C 0.56199 0.01811 0.63031 0.0
C1123 C 0.54892 0.03193 0.63994 0.0
C1124 C 0.55053 0.03235 0.65685 0.0
C1125 C 0.55933 0.01712 0.61237 0.0
C1126 C 0.57687 0.0461 0.60485 0.0
C1127 C 0.53952 0.98793 0.60272 0.0
C1128 C 0.51944 0.95651 0.61 0.0
C1129 C 0.49248 0.94793 0.62141 0.0
C1130 C 0.47386 0.91837 0.6283 0.0
C1131 C 0.48177 0.89709 0.62378 0.0
C1132 C 0.50825 0.90529 0.61233 0.0
C1133 C 0.52698 0.93484 0.60542 0.0
H1134 H 0.46731 0.87421 0.62913 0.0
H1135 H 0.64035 0.15969 0.56149 0.0
H1136 H 0.65541 0.56517 0.89717 0.0
H1137 H 0.64771 0.5386 0.9221 0.0
H1138 H 0.53118 0.47444 0.91256 0.0
H1139 H 0.53867 0.50106 0.88785 0.0
H1140 H 0.54794 0.49768 0.9438 0.0
H1141 H 0.58364 0.45065 0.90451 0.0
H1142 H 0.62412 0.45266 0.8839 0.0
H1143 H 0.71157 0.49605 0.91964 0.0
H1144 H 0.67183 0.49491 0.94041 0.0
H1145 H 0.48897 0.37798 -0.00362 0.0
H1146 H 0.50531 0.40263 0.97037 0.0
H1147 H 0.61842 0.46647 0.98649 0.0
H1148 H 0.60221 0.44198 0.01266 0.0
H1149 H 0.6077 0.44582 0.95258 0.0
H1150 H 0.57174 0.49297 0.99168 0.0
H1151 H 0.53147 0.49202 0.01201 0.0
H1152 H 0.44442 0.44876 0.97606 0.0
H1153 H 0.484 0.44893 0.95556 0.0
C1154 C 0.62818 0.54555 0.90049 0.0
C1155 C 0.59762 0.5351 0.89064 0.0
C1156 C 0.62384 0.53028 0.91464 0.0
C1157 C 0.5889 0.50436 0.91906 0.0
C1158 C 0.55836 0.49437 0.90935 0.0
C1159 C 0.56268 0.50957 0.89525 0.0
C1160 C 0.5838 0.48757 0.93385 0.0
C1161 C 0.56072 0.48608 0.94563 0.0
C1162 C 0.60122 0.47311 0.93637 0.0
C1163 C 0.62485 0.47298 0.92399 0.0
C1164 C 0.61157 0.4608 0.90796 0.0
C1165 C 0.63437 0.46178 0.89625 0.0
C1166 C 0.67041 0.47454 0.90045 0.0
C1167 C 0.68366 0.48622 0.9164 0.0
C1168 C 0.66101 0.48541 0.92815 0.0
C1169 C 0.51741 0.3969 0.99429 0.0
C1170 C 0.54424 0.40838 0.00663 0.0
C1171 C 0.52672 0.41087 0.97942 0.0
C1172 C 0.56297 0.43667 0.97664 0.0
C1173 C 0.5903 0.44657 0.98843 0.0
C1174 C 0.58099 0.43254 0.00335 0.0
C1175 C 0.5713 0.4555 0.96231 0.0
C1176 C 0.59504 0.4575 0.95071 0.0
C1177 C 0.55448 0.47048 0.95987 0.0
C1178 C 0.53073 0.47068 0.97213 0.0
C1179 C 0.54392 0.48302 0.98814 0.0
C1180 C 0.52123 0.48265 -0.00031 0.0
C1181 C 0.48538 0.47027 0.99534 0.0
C1182 C 0.47218 0.4583 0.97941 0.0
C1183 C 0.49474 0.45854 0.96782 0.0
H1184 H 0.46786 0.47001 0.0043 0.0
H1185 H 0.68805 0.47534 0.89136 0.0
H1186 H 0.09176 0.56008 0.20349 0.0
H1187 H 0.08105 0.55772 0.23264 0.0
H1188 H 1.03198 0.45688 0.22914 0.0
H1189 H 0.04261 0.45913 0.19996 0.0
H1190 H 1.02075 0.52378 0.25138 0.0
H1191 H 0.06199 0.44165 0.26245 0.0
H1192 H 0.09961 0.42698 0.25006 0.0
H1193 H 0.16804 0.51864 0.22973 0.0
H1194 H 0.13116 0.534 0.24219 0.0
H1195 H 0.98589 0.47783 0.33337 0.0
H1196 H 0.98767 0.4762 0.30369 0.0
H1197 H 0.10547 0.53924 0.30674 0.0
H1198 H 0.10392 0.54033 0.33632 0.0
H1199 H 0.08105 0.49065 0.28458 0.0
H1200 H 0.05793 0.56734 0.29802 0.0
H1201 H 1.02479 0.58655 0.31048 0.0
H1202 H 0.92816 0.51403 0.28219 0.0
H1203 H 0.96061 0.49409 0.26972 0.0
C1204 C 0.07816 0.53732 0.2089 0.0
C1205 C 0.06816 0.50982 0.19953 0.0
C1206 C 0.07205 0.536 0.22553 0.0
C1207 C 0.05607 0.50721 0.23306 0.0
C1208 C 0.04476 0.47942 0.22359 0.0
C1209 C 0.05088 0.48075 0.20696 0.0
C1210 C 0.05339 0.50678 0.25095 0.0
C1211 C 1.03372 0.51635 0.25865 0.0
C1212 C 0.07082 0.49758 0.26043 0.0
C1213 C 0.09355 0.4888 0.2531 0.0
C1214 C 0.08514 0.4587 0.25538 0.0
C1215 C 0.10633 0.45026 0.24834 0.0
C1216 C 0.13611 0.47182 0.23907 0.0
C1217 C 0.14488 0.50192 0.23687 0.0
C1218 C 0.12382 0.51048 0.2439 0.0
C1219 C 1.01215 0.49114 0.3277 0.0
C1220 C 0.04477 0.50933 0.33719 0.0
C1221 C 1.01312 0.49039 0.31076 0.0
C1222 C 0.04671 0.50782 0.30301 0.0
C1223 C 0.07926 0.52567 0.31246 0.0
C1224 C 0.07831 0.52649 0.32937 0.0
C1225 C 0.04819 0.50747 0.28506 0.0
C1226 C 0.06768 0.49773 0.27733 0.0
C1227 C 1.03112 0.51706 0.2756 0.0
C1228 C 1.01158 0.529 0.28308 0.0
C1229 C 1.02952 0.55531 0.29456 0.0
C1230 C 1.01088 0.56637 0.30161 0.0
C1231 C 0.97436 0.55146 0.29717 0.0
C1232 C 0.95643 0.52551 0.28564 0.0
C1233 C 0.97494 0.51434 0.27858 0.0
H1234 H 0.95998 0.56006 0.30263 0.0
H1235 H 0.15245 0.46523 0.23361 0.0
loop_
_geom_bond_atom_site_label_1
_geom_bond_atom_site_label_2
_geom_bond_distance
_geom_bond_site_symmetry_2
_ccdc_geom_bond_type
Gd0 C3 2.818 . S
Gd0 O20 2.377 . S
Gd0 O22 2.448 . S
Gd0 O23 2.506 . S
Gd0 O24 2.435 . S
Gd0 O25 2.717 . S
Gd0 O27 2.395 1_455 S
Gd0 O31 2.327 . S
Gd1 C12 2.818 1_455 S
Gd1 O21 2.395 . S
Gd1 O25 2.327 . S
Gd1 O26 2.377 1_455 S
Gd1 O28 2.448 1_455 S
Gd1 O29 2.506 1_455 S
Gd1 O30 2.435 . S
Gd1 O31 2.717 . S
C2 O20 1.240 . S
C2 O21 1.240 . S
C3 Gd0 2.818 . S
C3 C4 1.510 . S
C3 O22 1.249 . S
C3 O23 1.252 . S
C4 C3 1.510 . S
C4 C5 1.404 . S
C4 C6 1.352 . S
C5 C4 1.404 . S
C5 C9 1.389 . S
C5 H32 0.930 . S
C6 C4 1.352 . S
C6 C8 1.374 . S
C6 H33 0.931 . S
C7 C8 1.359 . S
C7 C9 1.364 . S
C8 C6 1.374 . S
C8 C7 1.359 . S
C8 H34 0.931 . S
C9 C5 1.389 . S
C9 C7 1.364 . S
C9 H35 0.931 . S
C10 O24 1.256 . S
C10 O25 1.257 . S
C11 O26 1.240 . S
C11 O27 1.240 . S
C12 Gd1 2.818 1_655 S
C12 C13 1.510 . S
C12 O28 1.249 . S
C12 O29 1.252 . S
C13 C12 1.510 . S
C13 C14 1.404 . S
C13 C15 1.352 . S
C14 C13 1.404 . S
C14 C18 1.389 . S
C14 H36 0.930 . S
C15 C13 1.352 . S
C15 C17 1.374 . S
C15 H37 0.931 . S
C16 C17 1.359 . S
C16 C18 1.364 . S
C17 C15 1.374 . S
C17 C16 1.359 . S
C17 H38 0.931 . S
C18 C14 1.389 . S
C18 C16 1.364 . S
C18 H39 0.931 . S
C19 O30 1.256 . S
C19 O31 1.257 . S
O20 Gd0 2.377 . S
O20 C2 1.240 . S
O21 Gd1 2.395 . S
O21 C2 1.240 . S
O22 Gd0 2.448 . S
O22 C3 1.249 . S
O23 Gd0 2.506 . S
O23 C3 1.252 . S
O24 Gd0 2.435 . S
O24 C10 1.256 . S
O25 Gd0 2.717 . S
O25 Gd1 2.327 . S
O25 C10 1.257 . S
O26 Gd1 2.377 1_655 S
O26 C11 1.240 . S
O27 Gd0 2.395 1_655 S
O27 C11 1.240 . S
O28 Gd1 2.448 1_655 S
O28 C12 1.249 . S
O29 Gd1 2.506 1_655 S
O29 C12 1.252 . S
O30 Gd1 2.435 . S
O30 C19 1.256 . S
O31 Gd0 2.327 . S
O31 Gd1 2.717 . S
O31 C19 1.257 . S
H32 C5 0.930 . S
H33 C6 0.931 . S
H34 C8 0.931 . S
H35 C9 0.931 . S
H36 C14 0.930 . S
H37 C15 0.931 . S
H38 C17 0.931 . S
H39 C18 0.931 . S
Gd40 C43 2.818 . S
Gd40 O60 2.377 . S
Gd40 O62 2.448 . S
Gd40 O63 2.506 . S
Gd40 O64 2.435 . S
Gd40 O65 2.717 1_565 S
Gd40 O67 2.395 1_565 S
Gd40 O71 2.327 1_565 S
Gd41 C52 2.818 . S
Gd41 O61 2.395 1_545 S
Gd41 O65 2.327 . S
Gd41 O66 2.377 . S
Gd41 O68 2.448 . S
Gd41 O69 2.506 . S
Gd41 O70 2.435 . S
Gd41 O71 2.717 . S
C42 O60 1.240 . S
C42 O61 1.240 . S
C43 Gd40 2.818 . S
C43 C44 1.510 . S
C43 O62 1.249 . S
C43 O63 1.252 . S
C44 C43 1.510 . S
C44 C45 1.404 . S
C44 C46 1.352 . S
C45 C44 1.404 . S
C45 C49 1.389 . S
C45 H72 0.930 . S
C46 C44 1.352 . S
C46 C48 1.374 . S
C46 H73 0.931 . S
C47 C48 1.359 . S
C47 C49 1.364 . S
C48 C46 1.374 . S
C48 C47 1.359 . S
C48 H74 0.931 . S
C49 C45 1.389 . S
C49 C47 1.364 . S
C49 H75 0.931 . S
C50 O64 1.256 1_545 S
C50 O65 1.257 . S
C51 O66 1.240 . S
C51 O67 1.240 . S
C52 Gd41 2.818 . S
C52 C53 1.510 . S
C52 O68 1.249 . S
C52 O69 1.252 . S
C53 C52 1.510 . S
C53 C54 1.404 . S
C53 C55 1.352 . S
C54 C53 1.404 . S
C54 C58 1.389 . S
C54 H76 0.930 . S
C55 C53 1.352 . S
C55 C57 1.374 . S
C55 H77 0.931 . S
C56 C57 1.359 . S
C56 C58 1.364 . S
C57 C55 1.374 . S
C57 C56 1.359 . S
C57 H78 0.931 . S
C58 C54 1.389 . S
C58 C56 1.364 . S
C58 H79 0.931 . S
C59 O70 1.256 . S
C59 O71 1.257 . S
O60 Gd40 2.377 . S
O60 C42 1.240 . S
O61 Gd41 2.395 1_565 S
O61 C42 1.240 . S
O62 Gd40 2.448 . S
O62 C43 1.249 . S
O63 Gd40 2.506 . S
O63 C43 1.252 . S
O64 Gd40 2.435 . S
O64 C50 1.256 1_565 S
O65 Gd40 2.717 1_545 S
O65 Gd41 2.327 . S
O65 C50 1.257 . S
O66 Gd41 2.377 . S
O66 C51 1.240 . S
O67 Gd40 2.395 1_545 S
O67 C51 1.240 . S
O68 Gd41 2.448 . S
O68 C52 1.249 . S
O69 Gd41 2.506 . S
O69 C52 1.252 . S
O70 Gd41 2.435 . S
O70 C59 1.256 . S
O71 Gd40 2.327 1_545 S
O71 Gd41 2.717 . S
O71 C59 1.257 . S
H72 C45 0.930 . S
H73 C46 0.931 . S
H74 C48 0.931 . S
H75 C49 0.931 . S
H76 C54 0.930 . S
H77 C55 0.931 . S
H78 C57 0.931 . S
H79 C58 0.931 . S
Gd80 C83 2.818 . S
Gd80 O100 2.377 . S
Gd80 O102 2.448 . S
Gd80 O103 2.506 . S
Gd80 O104 2.435 . S
Gd80 O105 2.717 . S
Gd80 O107 2.395 . S
Gd80 O111 2.327 . S
Gd81 C92 2.818 . S
Gd81 O101 2.395 . S
Gd81 O105 2.327 . S
Gd81 O106 2.377 . S
Gd81 O108 2.448 . S
Gd81 O109 2.506 . S
Gd81 O110 2.435 . S
Gd81 O111 2.717 . S
C82 O100 1.240 . S
C82 O101 1.240 . S
C83 Gd80 2.818 . S
C83 C84 1.510 . S
C83 O102 1.249 . S
C83 O103 1.252 . S
C84 C83 1.510 . S
C84 C85 1.404 . S
C84 C86 1.352 . S
C85 C84 1.404 . S
C85 C89 1.389 . S
C85 H112 0.930 . S
C86 C84 1.352 . S
C86 C88 1.374 . S
C86 H113 0.931 . S
C87 C88 1.359 . S
C87 C89 1.364 . S
C88 C86 1.374 . S
C88 C87 1.359 . S
C88 H114 0.931 . S
C89 C85 1.389 . S
C89 C87 1.364 . S
C89 H115 0.931 . S
C90 O104 1.256 . S
C90 O105 1.257 . S
C91 O106 1.240 . S
C91 O107 1.240 . S
C92 Gd81 2.818 . S
C92 C93 1.510 . S
C92 O108 1.249 . S
C92 O109 1.252 . S
C93 C92 1.510 . S
C93 C94 1.404 . S
C93 C95 1.352 . S
C94 C93 1.404 . S
C94 C98 1.389 . S
C94 H116 0.930 . S
C95 C93 1.352 . S
C95 C97 1.374 . S
C95 H117 0.931 . S
C96 C97 1.359 . S
C96 C98 1.364 . S
C97 C95 1.374 . S
C97 C96 1.359 . S
C97 H118 0.931 . S
C98 C94 1.389 . S
C98 C96 1.364 . S
C98 H119 0.931 . S
C99 O110 1.256 . S
C99 O111 1.257 . S
O100 Gd80 2.377 . S
O100 C82 1.240 . S
O101 Gd81 2.395 . S
O101 C82 1.240 . S
O102 Gd80 2.448 . S
O102 C83 1.249 . S
O103 Gd80 2.506 . S
O103 C83 1.252 . S
O104 Gd80 2.435 . S
O104 C90 1.256 . S
O105 Gd80 2.717 . S
O105 Gd81 2.327 . S
O105 C90 1.257 . S
O106 Gd81 2.377 . S
O106 C91 1.240 . S
O107 Gd80 2.395 . S
O107 C91 1.240 . S
O108 Gd81 2.448 . S
O108 C92 1.249 . S
O109 Gd81 2.506 . S
O109 C92 1.252 . S
O110 Gd81 2.435 . S
O110 C99 1.256 . S
O111 Gd80 2.327 . S
O111 Gd81 2.717 . S
O111 C99 1.257 . S
H112 C85 0.930 . S
H113 C86 0.931 . S
H114 C88 0.931 . S
H115 C89 0.931 . S
H116 C94 0.930 . S
H117 C95 0.931 . S
H118 C97 0.931 . S
H119 C98 0.931 . S
C120 C121 1.384 . S
C120 H133 0.947 . S
C120 C155 1.382 . S
C121 C120 1.384 . S
C121 C122 1.378 . S
C122 C121 1.378 . S
C122 C123 1.378 . S
C122 H134 0.952 . S
C123 C122 1.378 . S
C123 H135 0.950 . S
C123 C154 1.383 . S
H124 C143 0.947 . S
H125 C144 0.946 . S
H126 C146 0.953 . S
H127 C147 0.945 . S
H128 C149 0.952 . S
H129 C150 0.949 . S
H130 C152 0.950 . S
H131 C153 0.948 . S
H132 C155 0.951 . S
H133 C120 0.947 . S
H134 C122 0.952 . S
H135 C123 0.950 . S
N136 C139 1.382 . S
N136 C141 1.363 1_545 S
N137 C139 1.371 . S
N137 C140 1.372 . S
N138 C140 1.361 1_565 S
N138 C141 1.377 . S
C139 N136 1.382 . S
C139 N137 1.371 . S
C139 C142 1.480 . S
C140 N137 1.372 . S
C140 N138 1.361 1_545 S
C140 C148 1.457 . S
C141 N136 1.363 1_565 S
C141 N138 1.377 . S
C141 C154 1.479 . S
C142 C139 1.480 . S
C142 C143 1.383 . S
C142 C147 1.385 . S
C143 H124 0.947 . S
C143 C142 1.383 . S
C143 C144 1.388 . S
C144 H125 0.946 . S
C144 C143 1.388 . S
C144 C145 1.384 . S
C145 C144 1.384 . S
C145 C146 1.377 . S
C146 H126 0.953 . S
C146 C145 1.377 . S
C146 C147 1.369 . S
C147 H127 0.945 . S
C147 C142 1.385 . S
C147 C146 1.369 . S
C148 C140 1.457 . S
C148 C149 1.372 . S
C148 C153 1.364 1_545 S
C149 H128 0.952 . S
C149 C148 1.372 . S
C149 C150 1.389 . S
C150 H129 0.949 . S
C150 C149 1.389 . S
C150 C151 1.387 . S
C151 C150 1.387 . S
C151 C152 1.372 1_545 S
C152 H130 0.950 . S
C152 C151 1.372 1_565 S
C152 C153 1.379 . S
C153 H131 0.948 . S
C153 C148 1.364 1_565 S
C153 C152 1.379 . S
C154 C123 1.383 . S
C154 C141 1.479 . S
C154 C155 1.398 . S
C155 C120 1.382 . S
C155 H132 0.951 . S
C155 C154 1.398 . S
C156 C157 1.384 . S
C156 H169 0.947 . S
C156 C191 1.382 . S
C157 C156 1.384 . S
C157 C158 1.378 . S
C158 C157 1.378 . S
C158 C159 1.378 . S
C158 H170 0.952 . S
C159 C158 1.378 . S
C159 H171 0.950 . S
C159 C190 1.383 . S
H160 C179 0.947 . S
H161 C180 0.946 . S
H162 C182 0.953 . S
H163 C183 0.945 . S
H164 C185 0.952 . S
H165 C186 0.949 . S
H166 C188 0.950 . S
H167 C189 0.948 . S
H168 C191 0.951 . S
H169 C156 0.947 . S
H170 C158 0.952 . S
H171 C159 0.950 . S
N172 C175 1.382 . S
N172 C177 1.363 . S
N173 C175 1.371 . S
N173 C176 1.372 . S
N174 C176 1.361 . S
N174 C177 1.377 . S
C175 N172 1.382 . S
C175 N173 1.371 . S
C175 C178 1.480 . S
C176 N173 1.372 . S
C176 N174 1.361 . S
C176 C184 1.457 . S
C177 N172 1.363 . S
C177 N174 1.377 . S
C177 C190 1.479 . S
C178 C175 1.480 . S
C178 C179 1.383 . S
C178 C183 1.385 . S
C179 H160 0.947 . S
C179 C178 1.383 . S
C179 C180 1.388 . S
C180 H161 0.946 . S
C180 C179 1.388 . S
C180 C181 1.384 . S
C181 C180 1.384 . S
C181 C182 1.377 . S
C182 H162 0.953 . S
C182 C181 1.377 . S
C182 C183 1.369 . S
C183 H163 0.945 . S
C183 C178 1.385 . S
C183 C182 1.369 . S
C184 C176 1.457 . S
C184 C185 1.372 . S
C184 C189 1.364 . S
C185 H164 0.952 . S
C185 C184 1.372 . S
C185 C186 1.389 . S
C186 H165 0.949 . S
C186 C185 1.389 . S
C186 C187 1.387 . S
C187 C186 1.387 . S
C187 C188 1.372 . S
C188 H166 0.950 . S
C188 C187 1.372 . S
C188 C189 1.379 . S
C189 H167 0.948 . S
C189 C184 1.364 . S
C189 C188 1.379 . S
C190 C159 1.383 . S
C190 C177 1.479 . S
C190 C191 1.398 . S
C191 C156 1.382 . S
C191 H168 0.951 . S
C191 C190 1.398 . S
C192 C193 1.384 . S
C192 H205 0.947 . S
C192 C227 1.382 . S
C193 C192 1.384 . S
C193 C194 1.378 . S
C194 C193 1.378 . S
C194 C195 1.378 1_655 S
C194 H206 0.952 . S
C195 C194 1.378 1_455 S
C195 H207 0.950 . S
C195 C226 1.383 . S
H196 C215 0.947 . S
H197 C216 0.946 . S
H198 C218 0.953 . S
H199 C219 0.945 . S
H200 C221 0.952 . S
H201 C222 0.949 . S
H202 C224 0.950 . S
H203 C225 0.948 . S
H204 C227 0.951 . S
H205 C192 0.947 . S
H206 C194 0.952 . S
H207 C195 0.950 . S
N208 C211 1.382 . S
N208 C213 1.363 . S
N209 C211 1.371 . S
N209 C212 1.372 . S
N210 C212 1.361 . S
N210 C213 1.377 . S
C211 N208 1.382 . S
C211 N209 1.371 . S
C211 C214 1.480 . S
C212 N209 1.372 . S
C212 N210 1.361 . S
C212 C220 1.457 . S
C213 N208 1.363 . S
C213 N210 1.377 . S
C213 C226 1.479 . S
C214 C211 1.480 . S
C214 C215 1.383 . S
C214 C219 1.385 . S
C215 H196 0.947 . S
C215 C214 1.383 . S
C215 C216 1.388 . S
C216 H197 0.946 . S
C216 C215 1.388 . S
C216 C217 1.384 . S
C217 C216 1.384 . S
C217 C218 1.377 . S
C218 H198 0.953 . S
C218 C217 1.377 . S
C218 C219 1.369 . S
C219 H199 0.945 . S
C219 C214 1.385 . S
C219 C218 1.369 . S
C220 C212 1.457 . S
C220 C221 1.372 . S
C220 C225 1.364 . S
C221 H200 0.952 . S
C221 C220 1.372 . S
C221 C222 1.389 . S
C222 H201 0.949 . S
C222 C221 1.389 . S
C222 C223 1.387 . S
C223 C222 1.387 . S
C223 C224 1.372 . S
C224 H202 0.950 . S
C224 C223 1.372 . S
C224 C225 1.379 . S
C225 H203 0.948 . S
C225 C220 1.364 . S
C225 C224 1.379 . S
C226 C195 1.383 . S
C226 C213 1.479 . S
C226 C227 1.398 1_455 S
C227 C192 1.382 . S
C227 H204 0.951 . S
C227 C226 1.398 1_655 S
C228 C229 1.384 . S
C228 H241 0.947 . S
C228 C263 1.382 . S
C229 C228 1.384 . S
C229 C230 1.378 . S
C230 C229 1.378 . S
C230 C231 1.378 . S
C230 H242 0.952 . S
C231 C230 1.378 . S
C231 H243 0.950 . S
C231 C262 1.383 . S
H232 C251 0.947 . S
H233 C252 0.946 . S
H234 C254 0.953 . S
H235 C255 0.945 . S
H236 C257 0.952 . S
H237 C258 0.949 . S
H238 C260 0.950 . S
H239 C261 0.948 . S
H240 C263 0.951 . S
H241 C228 0.947 . S
H242 C230 0.952 . S
H243 C231 0.950 . S
N244 C247 1.382 1_455 S
N244 C249 1.363 . S
N245 C247 1.371 . S
N245 C248 1.372 1_655 S
N246 C248 1.361 . S
N246 C249 1.377 . S
C247 N244 1.382 1_655 S
C247 N245 1.371 . S
C247 C250 1.480 . S
C248 N245 1.372 1_455 S
C248 N246 1.361 . S
C248 C256 1.457 . S
C249 N244 1.363 . S
C249 N246 1.377 . S
C249 C262 1.479 . S
C250 C247 1.480 . S
C250 C251 1.383 . S
C250 C255 1.385 . S
C251 H232 0.947 . S
C251 C250 1.383 . S
C251 C252 1.388 . S
C252 H233 0.946 . S
C252 C251 1.388 . S
C252 C253 1.384 . S
C253 C252 1.384 . S
C253 C254 1.377 . S
C254 H234 0.953 . S
C254 C253 1.377 . S
C254 C255 1.369 . S
C255 H235 0.945 . S
C255 C250 1.385 . S
C255 C254 1.369 . S
C256 C248 1.457 . S
C256 C257 1.372 1_455 S
C256 C261 1.364 . S
C257 H236 0.952 . S
C257 C256 1.372 1_655 S
C257 C258 1.389 . S
C258 H237 0.949 . S
C258 C257 1.389 . S
C258 C259 1.376 1_655 S
C259 C258 1.376 1_455 S
C259 C260 1.384 . S
C260 H238 0.950 . S
C260 C259 1.384 . S
C260 C261 1.379 . S
C261 H239 0.948 . S
C261 C256 1.364 . S
C261 C260 1.379 . S
C262 C231 1.383 . S
C262 C249 1.479 . S
C262 C263 1.398 . S
C263 C228 1.382 . S
C263 H240 0.951 . S
C263 C262 1.398 . S
C264 C265 1.384 . S
C264 H277 0.947 . S
C264 C299 1.382 . S
C265 C264 1.384 . S
C265 C266 1.378 . S
C266 C265 1.378 . S
C266 C267 1.378 . S
C266 H278 0.952 . S
C267 C266 1.378 . S
C267 H279 0.950 . S
C267 C298 1.383 . S
H268 C287 0.947 . S
H269 C288 0.946 . S
H270 C290 0.953 . S
H271 C291 0.945 . S
H272 C293 0.952 . S
H273 C294 0.949 . S
H274 C296 0.950 . S
H275 C297 0.948 . S
H276 C299 0.951 . S
H277 C264 0.947 . S
H278 C266 0.952 . S
H279 C267 0.950 . S
N280 C283 1.382 1_545 S
N280 C285 1.363 . S
N281 C283 1.371 . S
N281 C284 1.372 1_565 S
N282 C284 1.361 . S
N282 C285 1.377 . S
C283 N280 1.382 1_565 S
C283 N281 1.371 . S
C283 C286 1.480 . S
C284 N281 1.372 1_545 S
C284 N282 1.361 . S
C284 C292 1.457 . S
C285 N280 1.363 . S
C285 N282 1.377 . S
C285 C298 1.479 . S
C286 C283 1.480 . S
C286 C287 1.383 . S
C286 C291 1.385 . S
C287 H268 0.947 . S
C287 C286 1.383 . S
C287 C288 1.388 . S
C288 H269 0.946 . S
C288 C287 1.388 . S
C288 C289 1.384 . S
C289 C288 1.384 . S
C289 C290 1.377 . S
C290 H270 0.953 . S
C290 C289 1.377 . S
C290 C291 1.369 . S
C291 H271 0.945 . S
C291 C286 1.385 . S
C291 C290 1.369 . S
C292 C284 1.457 . S
C292 C293 1.372 1_545 S
C292 C297 1.364 . S
C293 H272 0.952 . S
C293 C292 1.372 1_565 S
C293 C294 1.389 . S
C294 H273 0.949 . S
C294 C293 1.389 . S
C294 C295 1.386 1_565 S
C295 C294 1.386 1_545 S
C295 C296 1.372 . S
C296 H274 0.950 . S
C296 C295 1.372 . S
C296 C297 1.379 . S
C297 H275 0.948 . S
C297 C292 1.364 . S
C297 C296 1.379 . S
C298 C267 1.383 . S
C298 C285 1.479 . S
C298 C299 1.398 . S
C299 C264 1.382 . S
C299 H276 0.951 . S
C299 C298 1.398 . S
C300 C301 1.384 . S
C300 H313 0.947 . S
C300 C335 1.382 . S
C301 C300 1.384 . S
C301 C302 1.378 . S
C302 C301 1.378 . S
C302 C303 1.378 . S
C302 H314 0.952 . S
C303 C302 1.378 . S
C303 H315 0.950 . S
C303 C334 1.383 . S
H304 C323 0.947 . S
H305 C324 0.946 . S
H306 C326 0.953 . S
H307 C327 0.945 . S
H308 C329 0.952 . S
H309 C330 0.949 . S
H310 C332 0.950 . S
H311 C333 0.948 . S
H312 C335 0.951 . S
H313 C300 0.947 . S
H314 C302 0.952 . S
H315 C303 0.950 . S
N316 C319 1.382 . S
N316 C321 1.363 . S
N317 C319 1.371 . S
N317 C320 1.372 . S
N318 C320 1.361 . S
N318 C321 1.377 . S
C319 N316 1.382 . S
C319 N317 1.371 . S
C319 C322 1.480 . S
C320 N317 1.372 . S
C320 N318 1.361 . S
C320 C328 1.457 . S
C321 N316 1.363 . S
C321 N318 1.377 . S
C321 C334 1.479 . S
C322 C319 1.480 . S
C322 C323 1.383 . S
C322 C327 1.385 . S
C323 H304 0.947 . S
C323 C322 1.383 . S
C323 C324 1.388 . S
C324 H305 0.946 . S
C324 C323 1.388 . S
C324 C325 1.384 . S
C325 C324 1.384 . S
C325 C326 1.377 . S
C326 H306 0.953 . S
C326 C325 1.377 . S
C326 C327 1.369 . S
C327 H307 0.945 . S
C327 C322 1.385 . S
C327 C326 1.369 . S
C328 C320 1.457 . S
C328 C329 1.372 . S
C328 C333 1.364 . S
C329 H308 0.952 . S
C329 C328 1.372 . S
C329 C330 1.389 . S
C330 H309 0.949 . S
C330 C329 1.389 . S
C330 C331 1.387 . S
C331 C330 1.387 . S
C331 C332 1.372 . S
C332 H310 0.950 . S
C332 C331 1.372 . S
C332 C333 1.379 . S
C333 H311 0.948 . S
C333 C328 1.364 . S
C333 C332 1.379 . S
C334 C303 1.383 . S
C334 C321 1.479 . S
C334 C335 1.398 . S
C335 C300 1.382 . S
C335 H312 0.951 . S
C335 C334 1.398 . S
H336 C354 0.951 . S
H337 C356 0.951 . S
H338 C358 0.950 . S
H339 C359 0.950 . S
H340 C361 0.950 . S
H341 C364 0.950 . S
H342 C365 0.950 . S
H343 C367 0.950 . S
H344 C368 0.950 . S
H345 C369 0.951 . S
H346 C371 0.951 . S
H347 C373 0.950 . S
H348 C374 0.950 . S
H349 C376 0.950 . S
H350 C379 0.950 . S
H351 C380 0.950 . S
H352 C382 0.950 . S
H353 C383 0.950 . S
C354 H336 0.951 . S
C354 C355 1.366 . S
C354 C356 1.388 . S
C355 C354 1.366 . S
C355 C359 1.385 . S
C356 H337 0.951 . S
C356 C354 1.388 . S
C356 C357 1.366 . S
C357 C356 1.366 . S
C357 C358 1.414 . S
C357 C360 1.499 . S
C358 H338 0.950 . S
C358 C357 1.414 . S
C358 C359 1.374 . S
C359 H339 0.950 . S
C359 C355 1.385 . S
C359 C358 1.374 . S
C360 C357 1.499 . S
C360 C361 1.373 . S
C360 C362 1.389 . S
C361 H340 0.950 . S
C361 C360 1.373 . S
C361 C377 1.377 . S
C362 C360 1.389 . S
C362 C363 1.524 . S
C362 C376 1.377 . S
C363 C362 1.524 . S
C363 C364 1.397 . S
C363 C368 1.363 . S
C364 H341 0.950 . S
C364 C363 1.397 . S
C364 C365 1.334 . S
C365 H342 0.950 . S
C365 C364 1.334 . S
C365 C366 1.287 . S
C366 C365 1.287 . S
C366 C367 1.524 . S
C366 H385 0.913 . S
C367 H343 0.950 . S
C367 C366 1.524 . S
C367 C368 1.415 . S
C368 H344 0.950 . S
C368 C363 1.363 . S
C368 C367 1.415 . S
C369 H345 0.951 . S
C369 C370 1.366 . S
C369 C371 1.388 . S
C370 C369 1.366 . S
C370 C374 1.385 . S
C371 H346 0.951 . S
C371 C369 1.388 . S
C371 C372 1.366 . S
C372 C371 1.366 . S
C372 C373 1.414 . S
C372 C375 1.499 . S
C373 H347 0.950 . S
C373 C372 1.414 . S
C373 C374 1.374 . S
C374 H348 0.950 . S
C374 C370 1.385 . S
C374 C373 1.374 . S
C375 C372 1.499 . S
C375 C376 1.373 . S
C375 C377 1.389 . S
C376 H349 0.950 . S
C376 C362 1.377 . S
C376 C375 1.373 . S
C377 C361 1.377 . S
C377 C375 1.389 . S
C377 C378 1.524 . S
C378 C377 1.524 . S
C378 C379 1.397 . S
C378 C383 1.363 . S
C379 H350 0.950 . S
C379 C378 1.397 . S
C379 C380 1.334 . S
C380 H351 0.950 . S
C380 C379 1.334 . S
C380 C381 1.287 . S
C381 C380 1.287 . S
C381 C382 1.524 . S
C381 H384 0.999 . S
C382 H352 0.950 . S
C382 C381 1.524 . S
C382 C383 1.415 . S
C383 H353 0.950 . S
C383 C378 1.363 . S
C383 C382 1.415 . S
H384 C381 0.999 . S
H385 C366 0.913 . S
H386 C404 0.951 . S
H387 C406 0.951 . S
H388 C408 0.950 . S
H389 C409 0.950 . S
H390 C411 0.950 . S
H391 C414 0.950 . S
H392 C415 0.950 . S
H393 C417 0.950 . S
H394 C418 0.950 . S
H395 C419 0.951 . S
H396 C421 0.951 . S
H397 C423 0.950 . S
H398 C424 0.950 . S
H399 C426 0.950 . S
H400 C429 0.950 . S
H401 C430 0.950 . S
H402 C432 0.950 . S
H403 C433 0.950 . S
C404 H386 0.951 . S
C404 C405 1.366 . S
C404 C406 1.388 . S
C405 C404 1.366 . S
C405 C409 1.385 . S
C406 H387 0.951 . S
C406 C404 1.388 . S
C406 C407 1.366 . S
C407 C406 1.366 . S
C407 C408 1.414 . S
C407 C410 1.499 . S
C408 H388 0.950 . S
C408 C407 1.414 . S
C408 C409 1.374 . S
C409 H389 0.950 . S
C409 C405 1.385 . S
C409 C408 1.374 . S
C410 C407 1.499 . S
C410 C411 1.373 . S
C410 C412 1.389 . S
C411 H390 0.950 . S
C411 C410 1.373 . S
C411 C427 1.377 . S
C412 C410 1.389 . S
C412 C413 1.524 . S
C412 C426 1.377 . S
C413 C412 1.524 . S
C413 C414 1.397 . S
C413 C418 1.363 . S
C414 H391 0.950 . S
C414 C413 1.397 . S
C414 C415 1.334 . S
C415 H392 0.950 . S
C415 C414 1.334 . S
C415 C416 1.287 . S
C416 C415 1.287 . S
C416 C417 1.524 . S
C416 H435 0.913 . S
C417 H393 0.950 . S
C417 C416 1.524 . S
C417 C418 1.415 . S
C418 H394 0.950 . S
C418 C413 1.363 . S
C418 C417 1.415 . S
C419 H395 0.951 . S
C419 C420 1.366 . S
C419 C421 1.388 . S
C420 C419 1.366 . S
C420 C424 1.385 . S
C421 H396 0.951 . S
C421 C419 1.388 . S
C421 C422 1.366 . S
C422 C421 1.366 . S
C422 C423 1.414 . S
C422 C425 1.499 . S
C423 H397 0.950 . S
C423 C422 1.414 . S
C423 C424 1.374 . S
C424 H398 0.950 . S
C424 C420 1.385 . S
C424 C423 1.374 . S
C425 C422 1.499 . S
C425 C426 1.373 . S
C425 C427 1.389 . S
C426 H399 0.950 . S
C426 C412 1.377 . S
C426 C425 1.373 . S
C427 C411 1.377 . S
C427 C425 1.389 . S
C427 C428 1.524 . S
C428 C427 1.524 . S
C428 C429 1.397 . S
C428 C433 1.363 . S
C429 H400 0.950 . S
C429 C428 1.397 . S
C429 C430 1.334 . S
C430 H401 0.950 . S
C430 C429 1.334 . S
C430 C431 1.287 . S
C431 C430 1.287 . S
C431 C432 1.524 . S
C431 H434 0.999 . S
C432 H402 0.950 . S
C432 C431 1.524 . S
C432 C433 1.415 . S
C433 H403 0.950 . S
C433 C428 1.363 . S
C433 C432 1.415 . S
H434 C431 0.999 . S
H435 C416 0.913 . S
H436 C454 0.951 . S
H437 C456 0.951 . S
H438 C458 0.950 . S
H439 C459 0.950 . S
H440 C461 0.950 . S
H441 C464 0.950 . S
H442 C465 0.950 . S
H443 C467 0.950 . S
H444 C468 0.950 . S
H445 C469 0.951 . S
H446 C471 0.951 . S
H447 C473 0.950 . S
H448 C474 0.950 . S
H449 C476 0.950 . S
H450 C479 0.950 . S
H451 C480 0.950 . S
H452 C482 0.950 . S
H453 C483 0.950 . S
C454 H436 0.951 . S
C454 C455 1.366 . S
C454 C456 1.388 . S
C455 C454 1.366 . S
C455 C459 1.385 . S
C456 H437 0.951 . S
C456 C454 1.388 . S
C456 C457 1.366 . S
C457 C456 1.366 . S
C457 C458 1.414 . S
C457 C460 1.499 . S
C458 H438 0.950 . S
C458 C457 1.414 . S
C458 C459 1.374 . S
C459 H439 0.950 . S
C459 C455 1.385 . S
C459 C458 1.374 . S
C460 C457 1.499 . S
C460 C461 1.373 . S
C460 C462 1.389 . S
C461 H440 0.950 . S
C461 C460 1.373 . S
C461 C477 1.377 . S
C462 C460 1.389 . S
C462 C463 1.524 . S
C462 C476 1.377 . S
C463 C462 1.524 . S
C463 C464 1.397 . S
C463 C468 1.363 . S
C464 H441 0.950 . S
C464 C463 1.397 . S
C464 C465 1.334 . S
C465 H442 0.950 . S
C465 C464 1.334 . S
C465 C466 1.287 . S
C466 C465 1.287 . S
C466 C467 1.524 . S
C466 H485 0.913 . S
C467 H443 0.950 . S
C467 C466 1.524 . S
C467 C468 1.415 . S
C468 H444 0.950 . S
C468 C463 1.363 . S
C468 C467 1.415 . S
C469 H445 0.951 . S
C469 C470 1.366 . S
C469 C471 1.388 . S
C470 C469 1.366 . S
C470 C474 1.385 . S
C471 H446 0.951 . S
C471 C469 1.388 . S
C471 C472 1.366 . S
C472 C471 1.366 . S
C472 C473 1.414 . S
C472 C475 1.499 . S
C473 H447 0.950 . S
C473 C472 1.414 . S
C473 C474 1.374 . S
C474 H448 0.950 . S
C474 C470 1.385 . S
C474 C473 1.374 . S
C475 C472 1.499 . S
C475 C476 1.373 . S
C475 C477 1.389 . S
C476 H449 0.950 . S
C476 C462 1.377 . S
C476 C475 1.373 . S
C477 C461 1.377 . S
C477 C475 1.389 . S
C477 C478 1.524 . S
C478 C477 1.524 . S
C478 C479 1.397 . S
C478 C483 1.363 . S
C479 H450 0.950 . S
C479 C478 1.397 . S
C479 C480 1.334 . S
C480 H451 0.950 . S
C480 C479 1.334 . S
C480 C481 1.287 . S
C481 C480 1.287 . S
C481 C482 1.524 . S
C481 H484 0.999 . S
C482 H452 0.950 . S
C482 C481 1.524 . S
C482 C483 1.415 . S
C483 H453 0.950 . S
C483 C478 1.363 . S
C483 C482 1.415 . S
H484 C481 0.999 . S
H485 C466 0.913 . S
H486 C504 0.951 . S
H487 C506 0.951 . S
H488 C508 0.950 . S
H489 C509 0.950 . S
H490 C511 0.950 . S
H491 C514 0.950 . S
H492 C515 0.950 . S
H493 C517 0.950 . S
H494 C518 0.950 . S
H495 C519 0.951 . S
H496 C521 0.951 . S
H497 C523 0.950 . S
H498 C524 0.950 . S
H499 C526 0.950 . S
H500 C529 0.950 . S
H501 C530 0.950 . S
H502 C532 0.950 . S
H503 C533 0.950 . S
C504 H486 0.951 . S
C504 C505 1.366 . S
C504 C506 1.388 . S
C505 C504 1.366 . S
C505 C509 1.385 . S
C506 H487 0.951 . S
C506 C504 1.388 . S
C506 C507 1.366 . S
C507 C506 1.366 . S
C507 C508 1.414 . S
C507 C510 1.499 . S
C508 H488 0.950 . S
C508 C507 1.414 . S
C508 C509 1.374 . S
C509 H489 0.950 . S
C509 C505 1.385 . S
C509 C508 1.374 . S
C510 C507 1.499 . S
C510 C511 1.373 . S
C510 C512 1.389 . S
C511 H490 0.950 . S
C511 C510 1.373 . S
C511 C527 1.377 . S
C512 C510 1.389 . S
C512 C513 1.524 . S
C512 C526 1.377 . S
C513 C512 1.524 . S
C513 C514 1.397 . S
C513 C518 1.363 . S
C514 H491 0.950 . S
C514 C513 1.397 . S
C514 C515 1.334 . S
C515 H492 0.950 . S
C515 C514 1.334 . S
C515 C516 1.287 . S
C516 C515 1.287 . S
C516 C517 1.524 . S
C516 H535 0.913 . S
C517 H493 0.950 . S
C517 C516 1.524 . S
C517 C518 1.415 . S
C518 H494 0.950 . S
C518 C513 1.363 . S
C518 C517 1.415 . S
C519 H495 0.951 . S
C519 C520 1.366 . S
C519 C521 1.388 . S
C520 C519 1.366 . S
C520 C524 1.385 . S
C521 H496 0.951 . S
C521 C519 1.388 . S
C521 C522 1.366 . S
C522 C521 1.366 . S
C522 C523 1.414 . S
C522 C525 1.499 . S
C523 H497 0.950 . S
C523 C522 1.414 . S
C523 C524 1.374 . S
C524 H498 0.950 . S
C524 C520 1.385 . S
C524 C523 1.374 . S
C525 C522 1.499 . S
C525 C526 1.373 . S
C525 C527 1.389 . S
C526 H499 0.950 . S
C526 C512 1.377 . S
C526 C525 1.373 . S
C527 C511 1.377 . S
C527 C525 1.389 . S
C527 C528 1.524 . S
C528 C527 1.524 . S
C528 C529 1.397 . S
C528 C533 1.363 . S
C529 H500 0.950 . S
C529 C528 1.397 . S
C529 C530 1.334 . S
C530 H501 0.950 . S
C530 C529 1.334 . S
C530 C531 1.287 . S
C531 C530 1.287 . S
C531 C532 1.524 . S
C531 H534 0.999 . S
C532 H502 0.950 . S
C532 C531 1.524 . S
C532 C533 1.415 . S
C533 H503 0.950 . S
C533 C528 1.363 . S
C533 C532 1.415 . S
H534 C531 0.999 . S
H535 C516 0.913 . S
H536 C554 0.951 . S
H537 C556 0.951 . S
H538 C558 0.950 . S
H539 C559 0.950 . S
H540 C561 0.950 . S
H541 C564 0.950 . S
H542 C565 0.950 . S
H543 C567 0.950 . S
H544 C568 0.950 . S
H545 C569 0.951 . S
H546 C571 0.951 . S
H547 C573 0.950 . S
H548 C574 0.950 . S
H549 C576 0.950 . S
H550 C579 0.950 . S
H551 C580 0.950 . S
H552 C582 0.950 . S
H553 C583 0.950 . S
C554 H536 0.951 . S
C554 C555 1.366 . S
C554 C556 1.388 . S
C555 C554 1.366 . S
C555 C559 1.385 . S
C556 H537 0.951 . S
C556 C554 1.388 . S
C556 C557 1.366 . S
C557 C556 1.366 . S
C557 C558 1.414 . S
C557 C560 1.499 . S
C558 H538 0.950 . S
C558 C557 1.414 . S
C558 C559 1.374 . S
C559 H539 0.950 . S
C559 C555 1.385 . S
C559 C558 1.374 . S
C560 C557 1.499 . S
C560 C561 1.373 . S
C560 C562 1.389 . S
C561 H540 0.950 . S
C561 C560 1.373 . S
C561 C577 1.377 . S
C562 C560 1.389 . S
C562 C563 1.524 . S
C562 C576 1.377 . S
C563 C562 1.524 . S
C563 C564 1.397 . S
C563 C568 1.363 . S
C564 H541 0.950 . S
C564 C563 1.397 . S
C564 C565 1.334 . S
C565 H542 0.950 . S
C565 C564 1.334 . S
C565 C566 1.287 . S
C566 C565 1.287 . S
C566 C567 1.524 . S
C566 H585 0.913 . S
C567 H543 0.950 . S
C567 C566 1.524 . S
C567 C568 1.415 . S
C568 H544 0.950 . S
C568 C563 1.363 . S
C568 C567 1.415 . S
C569 H545 0.951 . S
C569 C570 1.366 . S
C569 C571 1.388 . S
C570 C569 1.366 . S
C570 C574 1.385 . S
C571 H546 0.951 . S
C571 C569 1.388 . S
C571 C572 1.366 . S
C572 C571 1.366 . S
C572 C573 1.414 . S
C572 C575 1.499 . S
C573 H547 0.950 . S
C573 C572 1.414 . S
C573 C574 1.374 . S
C574 H548 0.950 . S
C574 C570 1.385 . S
C574 C573 1.374 . S
C575 C572 1.499 . S
C575 C576 1.373 . S
C575 C577 1.389 . S
C576 H549 0.950 . S
C576 C562 1.377 . S
C576 C575 1.373 . S
C577 C561 1.377 . S
C577 C575 1.389 . S
C577 C578 1.524 . S
C578 C577 1.524 . S
C578 C579 1.397 . S
C578 C583 1.363 . S
C579 H550 0.950 . S
C579 C578 1.397 . S
C579 C580 1.334 . S
C580 H551 0.950 . S
C580 C579 1.334 . S
C580 C581 1.287 . S
C581 C580 1.287 . S
C581 C582 1.524 . S
C581 H584 0.999 . S
C582 H552 0.950 . S
C582 C581 1.524 . S
C582 C583 1.415 . S
C583 H553 0.950 . S
C583 C578 1.363 . S
C583 C582 1.415 . S
H584 C581 0.999 . S
H585 C566 0.913 . S
H586 C604 0.951 . S
H587 C606 0.951 . S
H588 C608 0.950 . S
H589 C609 0.950 . S
H590 C611 0.950 . S
H591 C614 0.950 . S
H592 C615 0.950 . S
H593 C617 0.950 . S
H594 C618 0.950 . S
H595 C619 0.951 . S
H596 C621 0.951 . S
H597 C623 0.950 . S
H598 C624 0.950 . S
H599 C626 0.950 . S
H600 C629 0.950 . S
H601 C630 0.950 . S
H602 C632 0.950 . S
H603 C633 0.950 . S
C604 H586 0.951 . S
C604 C605 1.366 . S
C604 C606 1.388 . S
C605 C604 1.366 . S
C605 C609 1.385 . S
C606 H587 0.951 . S
C606 C604 1.388 . S
C606 C607 1.366 . S
C607 C606 1.366 . S
C607 C608 1.414 . S
C607 C610 1.499 . S
C608 H588 0.950 . S
C608 C607 1.414 . S
C608 C609 1.374 . S
C609 H589 0.950 . S
C609 C605 1.385 . S
C609 C608 1.374 . S
C610 C607 1.499 . S
C610 C611 1.373 . S
C610 C612 1.389 . S
C611 H590 0.950 . S
C611 C610 1.373 . S
C611 C627 1.377 . S
C612 C610 1.389 . S
C612 C613 1.524 . S
C612 C626 1.377 . S
C613 C612 1.524 . S
C613 C614 1.397 . S
C613 C618 1.363 . S
C614 H591 0.950 . S
C614 C613 1.397 . S
C614 C615 1.334 . S
C615 H592 0.950 . S
C615 C614 1.334 . S
C615 C616 1.287 . S
C616 C615 1.287 . S
C616 C617 1.524 . S
C616 H635 0.913 . S
C617 H593 0.950 . S
C617 C616 1.524 . S
C617 C618 1.415 . S
C618 H594 0.950 . S
C618 C613 1.363 . S
C618 C617 1.415 . S
C619 H595 0.951 . S
C619 C620 1.366 . S
C619 C621 1.388 . S
C620 C619 1.366 . S
C620 C624 1.385 . S
C621 H596 0.951 . S
C621 C619 1.388 . S
C621 C622 1.366 . S
C622 C621 1.366 . S
C622 C623 1.414 . S
C622 C625 1.499 . S
C623 H597 0.950 . S
C623 C622 1.414 . S
C623 C624 1.374 . S
C624 H598 0.950 . S
C624 C620 1.385 . S
C624 C623 1.374 . S
C625 C622 1.499 . S
C625 C626 1.373 . S
C625 C627 1.389 . S
C626 H599 0.950 . S
C626 C612 1.377 . S
C626 C625 1.373 . S
C627 C611 1.377 . S
C627 C625 1.389 . S
C627 C628 1.524 . S
C628 C627 1.524 . S
C628 C629 1.397 . S
C628 C633 1.363 . S
C629 H600 0.950 . S
C629 C628 1.397 . S
C629 C630 1.334 . S
C630 H601 0.950 . S
C630 C629 1.334 . S
C630 C631 1.287 . S
C631 C630 1.287 . S
C631 C632 1.524 . S
C631 H634 0.999 . S
C632 H602 0.950 . S
C632 C631 1.524 . S
C632 C633 1.415 . S
C633 H603 0.950 . S
C633 C628 1.363 . S
C633 C632 1.415 . S
H634 C631 0.999 . S
H635 C616 0.913 . S
H636 C654 0.951 . S
H637 C656 0.951 . S
H638 C658 0.950 . S
H639 C659 0.950 . S
H640 C661 0.950 . S
H641 C664 0.950 . S
H642 C665 0.950 . S
H643 C667 0.950 . S
H644 C668 0.950 . S
H645 C669 0.951 . S
H646 C671 0.951 . S
H647 C673 0.950 . S
H648 C674 0.950 . S
H649 C676 0.950 . S
H650 C679 0.950 . S
H651 C680 0.950 . S
H652 C682 0.950 . S
H653 C683 0.950 . S
C654 H636 0.951 . S
C654 C655 1.366 . S
C654 C656 1.388 . S
C655 C654 1.366 . S
C655 C659 1.385 . S
C656 H637 0.951 . S
C656 C654 1.388 . S
C656 C657 1.366 . S
C657 C656 1.366 . S
C657 C658 1.414 . S
C657 C660 1.499 . S
C658 H638 0.950 . S
C658 C657 1.414 . S
C658 C659 1.374 . S
C659 H639 0.950 . S
C659 C655 1.385 . S
C659 C658 1.374 . S
C660 C657 1.499 . S
C660 C661 1.373 . S
C660 C662 1.389 . S
C661 H640 0.950 . S
C661 C660 1.373 . S
C661 C677 1.377 . S
C662 C660 1.389 . S
C662 C663 1.524 . S
C662 C676 1.377 . S
C663 C662 1.524 . S
C663 C664 1.397 . S
C663 C668 1.363 . S
C664 H641 0.950 . S
C664 C663 1.397 . S
C664 C665 1.334 . S
C665 H642 0.950 . S
C665 C664 1.334 . S
C665 C666 1.287 . S
C666 C665 1.287 . S
C666 C667 1.524 . S
C666 H685 0.913 . S
C667 H643 0.950 . S
C667 C666 1.524 . S
C667 C668 1.415 . S
C668 H644 0.950 . S
C668 C663 1.363 . S
C668 C667 1.415 . S
C669 H645 0.951 . S
C669 C670 1.366 . S
C669 C671 1.388 . S
C670 C669 1.366 . S
C670 C674 1.385 . S
C671 H646 0.951 . S
C671 C669 1.388 . S
C671 C672 1.366 . S
C672 C671 1.366 . S
C672 C673 1.414 . S
C672 C675 1.499 . S
C673 H647 0.950 . S
C673 C672 1.414 . S
C673 C674 1.374 . S
C674 H648 0.950 . S
C674 C670 1.385 . S
C674 C673 1.374 . S
C675 C672 1.499 . S
C675 C676 1.373 . S
C675 C677 1.389 . S
C676 H649 0.950 . S
C676 C662 1.377 . S
C676 C675 1.373 . S
C677 C661 1.377 . S
C677 C675 1.389 . S
C677 C678 1.524 . S
C678 C677 1.524 . S
C678 C679 1.397 . S
C678 C683 1.363 . S
C679 H650 0.950 . S
C679 C678 1.397 . S
C679 C680 1.334 . S
C680 H651 0.950 . S
C680 C679 1.334 . S
C680 C681 1.287 . S
C681 C680 1.287 . S
C681 C682 1.524 . S
C681 H684 0.999 . S
C682 H652 0.950 . S
C682 C681 1.524 . S
C682 C683 1.415 . S
C683 H653 0.950 . S
C683 C678 1.363 . S
C683 C682 1.415 . S
H684 C681 0.999 . S
H685 C666 0.913 . S
H686 C704 0.951 . S
H687 C706 0.951 . S
H688 C708 0.950 . S
H689 C709 0.950 . S
H690 C711 0.950 . S
H691 C714 0.950 . S
H692 C715 0.950 . S
H693 C717 0.950 . S
H694 C718 0.950 . S
H695 C719 0.951 . S
H696 C721 0.951 . S
H697 C723 0.950 . S
H698 C724 0.950 . S
H699 C726 0.950 . S
H700 C729 0.950 . S
H701 C730 0.950 . S
H702 C732 0.950 . S
H703 C733 0.950 . S
C704 H686 0.951 . S
C704 C705 1.366 . S
C704 C706 1.388 . S
C705 C704 1.366 . S
C705 C709 1.385 . S
C706 H687 0.951 . S
C706 C704 1.388 . S
C706 C707 1.366 . S
C707 C706 1.366 . S
C707 C708 1.414 . S
C707 C710 1.499 . S
C708 H688 0.950 . S
C708 C707 1.414 . S
C708 C709 1.374 . S
C709 H689 0.950 . S
C709 C705 1.385 . S
C709 C708 1.374 . S
C710 C707 1.499 . S
C710 C711 1.373 . S
C710 C712 1.389 . S
C711 H690 0.950 . S
C711 C710 1.373 . S
C711 C727 1.377 . S
C712 C710 1.389 . S
C712 C713 1.524 . S
C712 C726 1.377 . S
C713 C712 1.524 . S
C713 C714 1.397 . S
C713 C718 1.363 . S
C714 H691 0.950 . S
C714 C713 1.397 . S
C714 C715 1.334 . S
C715 H692 0.950 . S
C715 C714 1.334 . S
C715 C716 1.287 . S
C716 C715 1.287 . S
C716 C717 1.524 . S
C716 H735 0.913 . S
C717 H693 0.950 . S
C717 C716 1.524 . S
C717 C718 1.415 . S
C718 H694 0.950 . S
C718 C713 1.363 . S
C718 C717 1.415 . S
C719 H695 0.951 . S
C719 C720 1.366 . S
C719 C721 1.388 . S
C720 C719 1.366 . S
C720 C724 1.385 . S
C721 H696 0.951 . S
C721 C719 1.388 . S
C721 C722 1.366 . S
C722 C721 1.366 . S
C722 C723 1.414 . S
C722 C725 1.499 . S
C723 H697 0.950 . S
C723 C722 1.414 . S
C723 C724 1.374 . S
C724 H698 0.950 . S
C724 C720 1.385 . S
C724 C723 1.374 . S
C725 C722 1.499 . S
C725 C726 1.373 . S
C725 C727 1.389 . S
C726 H699 0.950 . S
C726 C712 1.377 . S
C726 C725 1.373 . S
C727 C711 1.377 . S
C727 C725 1.389 . S
C727 C728 1.524 . S
C728 C727 1.524 . S
C728 C729 1.397 . S
C728 C733 1.363 . S
C729 H700 0.950 . S
C729 C728 1.397 . S
C729 C730 1.334 . S
C730 H701 0.950 . S
C730 C729 1.334 . S
C730 C731 1.287 . S
C731 C730 1.287 . S
C731 C732 1.524 . S
C731 H734 0.999 . S
C732 H702 0.950 . S
C732 C731 1.524 . S
C732 C733 1.415 . S
C733 H703 0.950 . S
C733 C728 1.363 . S
C733 C732 1.415 . S
H734 C731 0.999 . S
H735 C716 0.913 . S
H736 C754 0.951 . S
H737 C756 0.951 . S
H738 C758 0.950 . S
H739 C759 0.950 . S
H740 C761 0.950 . S
H741 C764 0.950 . S
H742 C765 0.950 . S
H743 C767 0.950 . S
H744 C768 0.950 . S
H745 C769 0.951 . S
H746 C771 0.951 . S
H747 C773 0.950 . S
H748 C774 0.950 . S
H749 C776 0.950 . S
H750 C779 0.950 . S
H751 C780 0.950 . S
H752 C782 0.950 . S
H753 C783 0.950 . S
C754 H736 0.951 . S
C754 C755 1.366 . S
C754 C756 1.388 . S
C755 C754 1.366 . S
C755 C759 1.385 . S
C756 H737 0.951 . S
C756 C754 1.388 . S
C756 C757 1.366 . S
C757 C756 1.366 . S
C757 C758 1.414 . S
C757 C760 1.499 . S
C758 H738 0.950 . S
C758 C757 1.414 . S
C758 C759 1.374 . S
C759 H739 0.950 . S
C759 C755 1.385 . S
C759 C758 1.374 . S
C760 C757 1.499 . S
C760 C761 1.373 . S
C760 C762 1.389 . S
C761 H740 0.950 . S
C761 C760 1.373 . S
C761 C777 1.377 . S
C762 C760 1.389 . S
C762 C763 1.524 . S
C762 C776 1.377 . S
C763 C762 1.524 . S
C763 C764 1.397 . S
C763 C768 1.363 . S
C764 H741 0.950 . S
C764 C763 1.397 . S
C764 C765 1.334 . S
C765 H742 0.950 . S
C765 C764 1.334 . S
C765 C766 1.287 . S
C766 C765 1.287 . S
C766 C767 1.524 . S
C766 H785 0.913 . S
C767 H743 0.950 . S
C767 C766 1.524 . S
C767 C768 1.415 . S
C768 H744 0.950 . S
C768 C763 1.363 . S
C768 C767 1.415 . S
C769 H745 0.951 . S
C769 C770 1.366 . S
C769 C771 1.388 . S
C770 C769 1.366 . S
C770 C774 1.385 . S
C771 H746 0.951 . S
C771 C769 1.388 . S
C771 C772 1.366 . S
C772 C771 1.366 . S
C772 C773 1.414 . S
C772 C775 1.499 . S
C773 H747 0.950 . S
C773 C772 1.414 . S
C773 C774 1.374 . S
C774 H748 0.950 . S
C774 C770 1.385 . S
C774 C773 1.374 . S
C775 C772 1.499 . S
C775 C776 1.373 . S
C775 C777 1.389 . S
C776 H749 0.950 . S
C776 C762 1.377 . S
C776 C775 1.373 . S
C777 C761 1.377 . S
C777 C775 1.389 . S
C777 C778 1.524 . S
C778 C777 1.524 . S
C778 C779 1.397 . S
C778 C783 1.363 . S
C779 H750 0.950 . S
C779 C778 1.397 . S
C779 C780 1.334 . S
C780 H751 0.950 . S
C780 C779 1.334 . S
C780 C781 1.287 . S
C781 C780 1.287 . S
C781 C782 1.524 . S
C781 H784 0.999 . S
C782 H752 0.950 . S
C782 C781 1.524 . S
C782 C783 1.415 . S
C783 H753 0.950 . S
C783 C778 1.363 . S
C783 C782 1.415 . S
H784 C781 0.999 . S
H785 C766 0.913 . S
H786 C804 0.951 . S
H787 C806 0.951 . S
H788 C808 0.950 . S
H789 C809 0.950 . S
H790 C811 0.950 . S
H791 C814 0.950 . S
H792 C815 0.950 . S
H793 C817 0.950 . S
H794 C818 0.950 . S
H795 C819 0.951 . S
H796 C821 0.951 . S
H797 C823 0.950 . S
H798 C824 0.950 . S
H799 C826 0.950 . S
H800 C829 0.950 . S
H801 C830 0.950 . S
H802 C832 0.950 . S
H803 C833 0.950 . S
C804 H786 0.951 . S
C804 C805 1.366 . S
C804 C806 1.388 . S
C805 C804 1.366 . S
C805 C809 1.385 . S
C806 H787 0.951 . S
C806 C804 1.388 . S
C806 C807 1.366 . S
C807 C806 1.366 . S
C807 C808 1.414 . S
C807 C810 1.499 . S
C808 H788 0.950 . S
C808 C807 1.414 . S
C808 C809 1.374 . S
C809 H789 0.950 . S
C809 C805 1.385 . S
C809 C808 1.374 . S
C810 C807 1.499 . S
C810 C811 1.373 . S
C810 C812 1.389 . S
C811 H790 0.950 . S
C811 C810 1.373 . S
C811 C827 1.377 . S
C812 C810 1.389 . S
C812 C813 1.524 . S
C812 C826 1.377 . S
C813 C812 1.524 . S
C813 C814 1.397 . S
C813 C818 1.363 . S
C814 H791 0.950 . S
C814 C813 1.397 . S
C814 C815 1.334 . S
C815 H792 0.950 . S
C815 C814 1.334 . S
C815 C816 1.287 . S
C816 C815 1.287 . S
C816 C817 1.524 . S
C816 H835 0.913 . S
C817 H793 0.950 . S
C817 C816 1.524 . S
C817 C818 1.415 . S
C818 H794 0.950 . S
C818 C813 1.363 . S
C818 C817 1.415 . S
C819 H795 0.951 . S
C819 C820 1.366 . S
C819 C821 1.388 . S
C820 C819 1.366 . S
C820 C824 1.385 . S
C821 H796 0.951 . S
C821 C819 1.388 . S
C821 C822 1.366 . S
C822 C821 1.366 . S
C822 C823 1.414 . S
C822 C825 1.499 . S
C823 H797 0.950 . S
C823 C822 1.414 . S
C823 C824 1.374 . S
C824 H798 0.950 . S
C824 C820 1.385 . S
C824 C823 1.374 . S
C825 C822 1.499 . S
C825 C826 1.373 . S
C825 C827 1.389 . S
C826 H799 0.950 . S
C826 C812 1.377 . S
C826 C825 1.373 . S
C827 C811 1.377 . S
C827 C825 1.389 . S
C827 C828 1.524 . S
C828 C827 1.524 . S
C828 C829 1.397 . S
C828 C833 1.363 . S
C829 H800 0.950 . S
C829 C828 1.397 . S
C829 C830 1.334 . S
C830 H801 0.950 . S
C830 C829 1.334 . S
C830 C831 1.287 . S
C831 C830 1.287 . S
C831 C832 1.524 . S
C831 H834 0.999 . S
C832 H802 0.950 . S
C832 C831 1.524 . S
C832 C833 1.415 . S
C833 H803 0.950 . S
C833 C828 1.363 . S
C833 C832 1.415 . S
H834 C831 0.999 . S
H835 C816 0.913 . S
H836 C854 0.951 . S
H837 C856 0.951 . S
H838 C858 0.950 . S
H839 C859 0.950 . S
H840 C861 0.950 . S
H841 C864 0.950 . S
H842 C865 0.950 . S
H843 C867 0.950 . S
H844 C868 0.950 . S
H845 C869 0.951 . S
H846 C871 0.951 . S
H847 C873 0.950 . S
H848 C874 0.950 . S
H849 C876 0.950 . S
H850 C879 0.950 . S
H851 C880 0.950 . S
H852 C882 0.950 . S
H853 C883 0.950 . S
C854 H836 0.951 . S
C854 C855 1.366 . S
C854 C856 1.388 . S
C855 C854 1.366 . S
C855 C859 1.385 . S
C856 H837 0.951 . S
C856 C854 1.388 . S
C856 C857 1.366 . S
C857 C856 1.366 . S
C857 C858 1.414 . S
C857 C860 1.499 . S
C858 H838 0.950 . S
C858 C857 1.414 . S
C858 C859 1.374 . S
C859 H839 0.950 . S
C859 C855 1.385 . S
C859 C858 1.374 . S
C860 C857 1.499 . S
C860 C861 1.373 . S
C860 C862 1.389 . S
C861 H840 0.950 . S
C861 C860 1.373 . S
C861 C877 1.377 . S
C862 C860 1.389 . S
C862 C863 1.524 . S
C862 C876 1.377 . S
C863 C862 1.524 . S
C863 C864 1.397 . S
C863 C868 1.363 . S
C864 H841 0.950 . S
C864 C863 1.397 . S
C864 C865 1.334 . S
C865 H842 0.950 . S
C865 C864 1.334 . S
C865 C866 1.287 . S
C866 C865 1.287 . S
C866 C867 1.524 . S
C866 H885 0.913 . S
C867 H843 0.950 . S
C867 C866 1.524 . S
C867 C868 1.415 . S
C868 H844 0.950 . S
C868 C863 1.363 . S
C868 C867 1.415 . S
C869 H845 0.951 . S
C869 C870 1.366 . S
C869 C871 1.388 . S
C870 C869 1.366 . S
C870 C874 1.385 . S
C871 H846 0.951 . S
C871 C869 1.388 . S
C871 C872 1.366 . S
C872 C871 1.366 . S
C872 C873 1.414 . S
C872 C875 1.499 . S
C873 H847 0.950 . S
C873 C872 1.414 . S
C873 C874 1.374 . S
C874 H848 0.950 . S
C874 C870 1.385 . S
C874 C873 1.374 . S
C875 C872 1.499 . S
C875 C876 1.373 . S
C875 C877 1.389 . S
C876 H849 0.950 . S
C876 C862 1.377 . S
C876 C875 1.373 . S
C877 C861 1.377 . S
C877 C875 1.389 . S
C877 C878 1.524 . S
C878 C877 1.524 . S
C878 C879 1.397 . S
C878 C883 1.363 . S
C879 H850 0.950 . S
C879 C878 1.397 . S
C879 C880 1.334 . S
C880 H851 0.950 . S
C880 C879 1.334 . S
C880 C881 1.287 . S
C881 C880 1.287 . S
C881 C882 1.524 . S
C881 H884 0.999 . S
C882 H852 0.950 . S
C882 C881 1.524 . S
C882 C883 1.415 . S
C883 H853 0.950 . S
C883 C878 1.363 . S
C883 C882 1.415 . S
H884 C881 0.999 . S
H885 C866 0.913 . S
H886 C904 0.951 . S
H887 C906 0.951 . S
H888 C908 0.950 . S
H889 C909 0.950 . S
H890 C911 0.950 . S
H891 C914 0.950 . S
H892 C915 0.950 . S
H893 C917 0.950 . S
H894 C918 0.950 . S
H895 C919 0.951 . S
H896 C921 0.951 . S
H897 C923 0.950 . S
H898 C924 0.950 . S
H899 C926 0.950 . S
H900 C929 0.950 . S
H901 C930 0.950 . S
H902 C932 0.950 . S
H903 C933 0.950 . S
C904 H886 0.951 . S
C904 C905 1.366 . S
C904 C906 1.388 . S
C905 C904 1.366 . S
C905 C909 1.385 . S
C906 H887 0.951 . S
C906 C904 1.388 . S
C906 C907 1.366 . S
C907 C906 1.366 . S
C907 C908 1.414 . S
C907 C910 1.499 . S
C908 H888 0.950 . S
C908 C907 1.414 . S
C908 C909 1.374 . S
C909 H889 0.950 . S
C909 C905 1.385 . S
C909 C908 1.374 . S
C910 C907 1.499 . S
C910 C911 1.373 . S
C910 C912 1.389 . S
C911 H890 0.950 . S
C911 C910 1.373 . S
C911 C927 1.377 . S
C912 C910 1.389 . S
C912 C913 1.524 . S
C912 C926 1.377 . S
C913 C912 1.524 . S
C913 C914 1.397 . S
C913 C918 1.363 . S
C914 H891 0.950 . S
C914 C913 1.397 . S
C914 C915 1.334 . S
C915 H892 0.950 . S
C915 C914 1.334 . S
C915 C916 1.287 . S
C916 C915 1.287 . S
C916 C917 1.524 . S
C916 H935 0.913 . S
C917 H893 0.950 . S
C917 C916 1.524 . S
C917 C918 1.415 . S
C918 H894 0.950 . S
C918 C913 1.363 . S
C918 C917 1.415 . S
C919 H895 0.951 . S
C919 C920 1.366 . S
C919 C921 1.388 . S
C920 C919 1.366 . S
C920 C924 1.385 . S
C921 H896 0.951 . S
C921 C919 1.388 . S
C921 C922 1.366 . S
C922 C921 1.366 . S
C922 C923 1.414 . S
C922 C925 1.499 . S
C923 H897 0.950 . S
C923 C922 1.414 . S
C923 C924 1.374 . S
C924 H898 0.950 . S
C924 C920 1.385 . S
C924 C923 1.374 . S
C925 C922 1.499 . S
C925 C926 1.373 . S
C925 C927 1.389 . S
C926 H899 0.950 . S
C926 C912 1.377 . S
C926 C925 1.373 . S
C927 C911 1.377 . S
C927 C925 1.389 . S
C927 C928 1.524 . S
C928 C927 1.524 . S
C928 C929 1.397 . S
C928 C933 1.363 . S
C929 H900 0.950 . S
C929 C928 1.397 . S
C929 C930 1.334 . S
C930 H901 0.950 . S
C930 C929 1.334 . S
C930 C931 1.287 . S
C931 C930 1.287 . S
C931 C932 1.524 . S
C931 H934 0.999 . S
C932 H902 0.950 . S
C932 C931 1.524 . S
C932 C933 1.415 . S
C933 H903 0.950 . S
C933 C928 1.363 . S
C933 C932 1.415 . S
H934 C931 0.999 . S
H935 C916 0.913 . S
H936 C954 0.951 . S
H937 C956 0.951 . S
H938 C958 0.950 1_655 S
H939 C959 0.950 1_655 S
H940 C961 0.950 . S
H941 C964 0.947 1_655 S
H942 C965 0.950 1_655 S
H943 C967 0.950 . S
H944 C968 0.950 . S
H945 C969 0.951 . S
H946 C971 0.951 . S
H947 C973 0.950 . S
H948 C974 0.950 . S
H949 C976 0.950 . S
H950 C979 0.950 . S
H951 C980 0.950 . S
H952 C982 0.950 1_655 S
H953 C983 0.950 1_655 S
C954 H936 0.951 . S
C954 C955 1.366 . S
C954 C956 1.388 . S
C955 C954 1.366 . S
C955 C959 1.385 . S
C956 H937 0.951 . S
C956 C954 1.388 . S
C956 C957 1.366 . S
C957 C956 1.366 . S
C957 C958 1.414 . S
C957 C960 1.499 . S
C958 H938 0.950 1_455 S
C958 C957 1.414 . S
C958 C959 1.374 . S
C959 H939 0.950 1_455 S
C959 C955 1.385 . S
C959 C958 1.374 . S
C960 C957 1.499 . S
C960 C961 1.373 . S
C960 C962 1.389 . S
C961 H940 0.950 . S
C961 C960 1.373 . S
C961 C977 1.377 . S
C962 C960 1.389 . S
C962 C963 1.524 . S
C962 C976 1.377 . S
C963 C962 1.524 . S
C963 C964 1.397 . S
C963 C968 1.363 . S
C964 H941 0.947 1_455 S
C964 C963 1.397 . S
C964 C965 1.334 . S
C965 H942 0.950 1_455 S
C965 C964 1.334 . S
C965 C966 1.287 . S
C966 C965 1.287 . S
C966 C967 1.524 . S
C966 H985 0.913 . S
C967 H943 0.950 . S
C967 C966 1.524 . S
C967 C968 1.415 . S
C968 H944 0.950 . S
C968 C963 1.363 . S
C968 C967 1.415 . S
C969 H945 0.951 . S
C969 C970 1.366 . S
C969 C971 1.388 1_556 S
C970 C969 1.366 . S
C970 C974 1.385 . S
C971 H946 0.951 . S
C971 C969 1.388 1_554 S
C971 C972 1.366 . S
C972 C971 1.366 . S
C972 C973 1.414 . S
C972 C975 1.499 . S
C973 H947 0.950 . S
C973 C972 1.414 . S
C973 C974 1.374 1_554 S
C974 H948 0.950 . S
C974 C970 1.385 . S
C974 C973 1.374 1_556 S
C975 C972 1.499 . S
C975 C976 1.373 . S
C975 C977 1.389 . S
C976 H949 0.950 . S
C976 C962 1.377 . S
C976 C975 1.373 . S
C977 C961 1.377 . S
C977 C975 1.389 . S
C977 C978 1.524 . S
C978 C977 1.524 . S
C978 C979 1.397 . S
C978 C983 1.363 . S
C979 H950 0.950 . S
C979 C978 1.397 . S
C979 C980 1.334 . S
C980 H951 0.950 . S
C980 C979 1.334 . S
C980 C981 1.287 . S
C981 C980 1.287 . S
C981 C982 1.524 . S
C981 H984 0.999 . S
C982 H952 0.950 1_455 S
C982 C981 1.524 . S
C982 C983 1.415 . S
C983 H953 0.950 1_455 S
C983 C978 1.363 . S
C983 C982 1.415 . S
H984 C981 0.999 . S
H985 C966 0.913 . S
H986 C1004 0.951 . S
H987 C1006 0.951 . S
H988 C1008 0.950 . S
H989 C1009 0.950 . S
H990 C1011 0.950 . S
H991 C1014 0.950 1_545 S
H992 C1015 0.950 . S
H993 C1017 0.950 . S
H994 C1018 0.950 . S
H995 C1019 0.951 . S
H996 C1021 0.951 . S
H997 C1023 0.950 . S
H998 C1024 0.950 . S
H999 C1026 0.950 . S
H1000 C1029 0.950 . S
H1001 C1030 0.950 . S
H1002 C1032 0.950 . S
H1003 C1033 0.950 . S
C1004 H986 0.951 . S
C1004 C1005 1.366 1_565 S
C1004 C1006 1.388 . S
C1005 C1004 1.366 1_545 S
C1005 C1009 1.385 . S
C1006 H987 0.951 . S
C1006 C1004 1.388 . S
C1006 C1007 1.366 1_565 S
C1007 C1006 1.366 1_545 S
C1007 C1008 1.414 . S
C1007 C1010 1.499 . S
C1008 H988 0.950 . S
C1008 C1007 1.414 . S
C1008 C1009 1.374 . S
C1009 H989 0.950 . S
C1009 C1005 1.385 . S
C1009 C1008 1.374 . S
C1010 C1007 1.499 . S
C1010 C1011 1.373 . S
C1010 C1012 1.389 1_545 S
C1011 H990 0.950 . S
C1011 C1010 1.373 . S
C1011 C1027 1.377 . S
C1012 C1010 1.389 1_565 S
C1012 C1013 1.524 . S
C1012 C1026 1.377 . S
C1013 C1012 1.524 . S
C1013 C1014 1.397 . S
C1013 C1018 1.363 . S
C1014 H991 0.950 1_565 S
C1014 C1013 1.397 . S
C1014 C1015 1.334 . S
C1015 H992 0.950 . S
C1015 C1014 1.334 . S
C1015 C1016 1.287 . S
C1016 C1015 1.287 . S
C1016 C1017 1.524 . S
C1016 H1035 0.913 . S
C1017 H993 0.950 . S
C1017 C1016 1.524 . S
C1017 C1018 1.415 . S
C1018 H994 0.950 . S
C1018 C1013 1.363 . S
C1018 C1017 1.415 . S
C1019 H995 0.951 . S
C1019 C1020 1.366 . S
C1019 C1021 1.388 . S
C1020 C1019 1.366 . S
C1020 C1024 1.385 1_545 S
C1021 H996 0.951 . S
C1021 C1019 1.388 . S
C1021 C1022 1.366 . S
C1022 C1021 1.366 . S
C1022 C1023 1.414 1_545 S
C1022 C1025 1.499 . S
C1023 H997 0.950 . S
C1023 C1022 1.414 1_565 S
C1023 C1024 1.374 . S
C1024 H998 0.950 . S
C1024 C1020 1.385 1_565 S
C1024 C1023 1.374 . S
C1025 C1022 1.499 . S
C1025 C1026 1.373 1_545 S
C1025 C1027 1.389 . S
C1026 H999 0.950 . S
C1026 C1012 1.377 . S
C1026 C1025 1.373 1_565 S
C1027 C1011 1.377 . S
C1027 C1025 1.389 . S
C1027 C1028 1.524 . S
C1028 C1027 1.524 . S
C1028 C1029 1.397 . S
C1028 C1033 1.363 . S
C1029 H1000 0.950 . S
C1029 C1028 1.397 . S
C1029 C1030 1.334 . S
C1030 H1001 0.950 . S
C1030 C1029 1.334 . S
C1030 C1031 1.287 . S
C1031 C1030 1.287 . S
C1031 C1032 1.524 . S
C1031 H1034 0.999 . S
C1032 H1002 0.950 . S
C1032 C1031 1.524 . S
C1032 C1033 1.415 . S
C1033 H1003 0.950 . S
C1033 C1028 1.363 . S
C1033 C1032 1.415 . S
H1034 C1031 0.999 . S
H1035 C1016 0.913 . S
H1036 C1054 0.951 . S
H1037 C1056 0.951 . S
H1038 C1058 0.950 . S
H1039 C1059 0.950 . S
H1040 C1061 0.950 . S
H1041 C1064 0.950 . S
H1042 C1065 0.950 . S
H1043 C1067 0.950 . S
H1044 C1068 0.950 . S
H1045 C1069 0.951 . S
H1046 C1071 0.951 . S
H1047 C1073 0.950 . S
H1048 C1074 0.950 . S
H1049 C1076 0.950 . S
H1050 C1079 0.950 . S
H1051 C1080 0.950 . S
H1052 C1082 0.950 . S
H1053 C1083 0.950 . S
C1054 H1036 0.951 . S
C1054 C1055 1.366 . S
C1054 C1056 1.388 . S
C1055 C1054 1.366 . S
C1055 C1059 1.385 . S
C1056 H1037 0.951 . S
C1056 C1054 1.388 . S
C1056 C1057 1.366 . S
C1057 C1056 1.366 . S
C1057 C1058 1.414 . S
C1057 C1060 1.499 . S
C1058 H1038 0.950 . S
C1058 C1057 1.414 . S
C1058 C1059 1.374 . S
C1059 H1039 0.950 . S
C1059 C1055 1.385 . S
C1059 C1058 1.374 . S
C1060 C1057 1.499 . S
C1060 C1061 1.373 . S
C1060 C1062 1.389 . S
C1061 H1040 0.950 . S
C1061 C1060 1.373 . S
C1061 C1077 1.377 . S
C1062 C1060 1.389 . S
C1062 C1063 1.524 . S
C1062 C1076 1.377 . S
C1063 C1062 1.524 . S
C1063 C1064 1.397 . S
C1063 C1068 1.363 . S
C1064 H1041 0.950 . S
C1064 C1063 1.397 . S
C1064 C1065 1.334 . S
C1065 H1042 0.950 . S
C1065 C1064 1.334 . S
C1065 C1066 1.287 . S
C1066 C1065 1.287 . S
C1066 C1067 1.524 . S
C1066 H1085 0.913 . S
C1067 H1043 0.950 . S
C1067 C1066 1.524 . S
C1067 C1068 1.415 . S
C1068 H1044 0.950 . S
C1068 C1063 1.363 . S
C1068 C1067 1.415 . S
C1069 H1045 0.951 . S
C1069 C1070 1.366 . S
C1069 C1071 1.388 . S
C1070 C1069 1.366 . S
C1070 C1074 1.385 . S
C1071 H1046 0.951 . S
C1071 C1069 1.388 . S
C1071 C1072 1.366 . S
C1072 C1071 1.366 . S
C1072 C1073 1.414 . S
C1072 C1075 1.499 . S
C1073 H1047 0.950 . S
C1073 C1072 1.414 . S
C1073 C1074 1.374 . S
C1074 H1048 0.950 . S
C1074 C1070 1.385 . S
C1074 C1073 1.374 . S
C1075 C1072 1.499 . S
C1075 C1076 1.373 . S
C1075 C1077 1.389 . S
C1076 H1049 0.950 . S
C1076 C1062 1.377 . S
C1076 C1075 1.373 . S
C1077 C1061 1.377 . S
C1077 C1075 1.389 . S
C1077 C1078 1.524 . S
C1078 C1077 1.524 . S
C1078 C1079 1.397 . S
C1078 C1083 1.363 . S
C1079 H1050 0.950 . S
C1079 C1078 1.397 . S
C1079 C1080 1.334 . S
C1080 H1051 0.950 . S
C1080 C1079 1.334 . S
C1080 C1081 1.287 . S
C1081 C1080 1.287 . S
C1081 C1082 1.524 . S
C1081 H1084 0.999 . S
C1082 H1052 0.950 . S
C1082 C1081 1.524 . S
C1082 C1083 1.415 . S
C1083 H1053 0.950 . S
C1083 C1078 1.363 . S
C1083 C1082 1.415 . S
H1084 C1081 0.999 . S
H1085 C1066 0.913 . S
H1086 C1104 0.951 . S
H1087 C1106 0.951 . S
H1088 C1108 0.950 . S
H1089 C1109 0.950 . S
H1090 C1111 0.950 . S
H1091 C1114 0.950 . S
H1092 C1115 0.950 . S
H1093 C1117 0.950 . S
H1094 C1118 0.950 . S
H1095 C1119 0.951 . S
H1096 C1121 0.951 . S
H1097 C1123 0.950 . S
H1098 C1124 0.950 . S
H1099 C1126 0.950 . S
H1100 C1129 0.950 . S
H1101 C1130 0.950 . S
H1102 C1132 0.950 . S
H1103 C1133 0.950 . S
C1104 H1086 0.951 . S
C1104 C1105 1.366 . S
C1104 C1106 1.388 . S
C1105 C1104 1.366 . S
C1105 C1109 1.385 1_545 S
C1106 H1087 0.951 . S
C1106 C1104 1.388 . S
C1106 C1107 1.366 . S
C1107 C1106 1.366 . S
C1107 C1108 1.414 1_545 S
C1107 C1110 1.499 . S
C1108 H1088 0.950 . S
C1108 C1107 1.414 1_565 S
C1108 C1109 1.374 . S
C1109 H1089 0.950 . S
C1109 C1105 1.385 1_565 S
C1109 C1108 1.374 . S
C1110 C1107 1.499 . S
C1110 C1111 1.373 1_545 S
C1110 C1112 1.389 . S
C1111 H1090 0.950 . S
C1111 C1110 1.373 1_565 S
C1111 C1127 1.377 . S
C1112 C1110 1.389 . S
C1112 C1113 1.524 . S
C1112 C1126 1.377 . S
C1113 C1112 1.524 . S
C1113 C1114 1.397 . S
C1113 C1118 1.363 . S
C1114 H1091 0.950 . S
C1114 C1113 1.397 . S
C1114 C1115 1.334 . S
C1115 H1092 0.950 . S
C1115 C1114 1.334 . S
C1115 C1116 1.287 . S
C1116 C1115 1.287 . S
C1116 C1117 1.524 . S
C1116 H1135 0.913 . S
C1117 H1093 0.950 . S
C1117 C1116 1.524 . S
C1117 C1118 1.415 . S
C1118 H1094 0.950 . S
C1118 C1113 1.363 . S
C1118 C1117 1.415 . S
C1119 H1095 0.951 . S
C1119 C1120 1.366 . S
C1119 C1121 1.388 . S
C1120 C1119 1.366 . S
C1120 C1124 1.385 1_565 S
C1121 H1096 0.951 . S
C1121 C1119 1.388 . S
C1121 C1122 1.366 . S
C1122 C1121 1.366 . S
C1122 C1123 1.414 1_565 S
C1122 C1125 1.495 1_565 S
C1123 H1097 0.950 . S
C1123 C1122 1.414 1_545 S
C1123 C1124 1.374 . S
C1124 H1098 0.950 . S
C1124 C1120 1.385 1_545 S
C1124 C1123 1.374 . S
C1125 C1122 1.495 1_545 S
C1125 C1126 1.396 . S
C1125 C1127 1.370 1_545 S
C1126 H1099 0.950 . S
C1126 C1112 1.377 . S
C1126 C1125 1.396 . S
C1127 C1111 1.377 . S
C1127 C1125 1.370 1_565 S
C1127 C1128 1.524 . S
C1128 C1127 1.524 . S
C1128 C1129 1.397 . S
C1128 C1133 1.363 . S
C1129 H1100 0.950 . S
C1129 C1128 1.397 . S
C1129 C1130 1.334 . S
C1130 H1101 0.950 . S
C1130 C1129 1.334 . S
C1130 C1131 1.287 . S
C1131 C1130 1.287 . S
C1131 C1132 1.524 . S
C1131 H1134 0.999 . S
C1132 H1102 0.950 . S
C1132 C1131 1.524 . S
C1132 C1133 1.415 . S
C1133 H1103 0.950 . S
C1133 C1128 1.363 . S
C1133 C1132 1.415 . S
H1134 C1131 0.999 . S
H1135 C1116 0.913 . S
H1136 C1154 0.951 . S
H1137 C1156 0.951 . S
H1138 C1158 0.950 . S
H1139 C1159 0.950 . S
H1140 C1161 0.950 . S
H1141 C1164 0.950 . S
H1142 C1165 0.950 . S
H1143 C1167 0.950 . S
H1144 C1168 0.950 . S
H1145 C1169 0.951 . S
H1146 C1171 0.951 . S
H1147 C1173 0.950 . S
H1148 C1174 0.950 . S
H1149 C1176 0.950 . S
H1150 C1179 0.950 . S
H1151 C1180 0.950 . S
H1152 C1182 0.950 . S
H1153 C1183 0.950 . S
C1154 H1136 0.951 . S
C1154 C1155 1.366 . S
C1154 C1156 1.388 . S
C1155 C1154 1.366 . S
C1155 C1159 1.385 . S
C1156 H1137 0.951 . S
C1156 C1154 1.388 . S
C1156 C1157 1.366 . S
C1157 C1156 1.366 . S
C1157 C1158 1.414 . S
C1157 C1160 1.499 . S
C1158 H1138 0.950 . S
C1158 C1157 1.414 . S
C1158 C1159 1.374 . S
C1159 H1139 0.950 . S
C1159 C1155 1.385 . S
C1159 C1158 1.374 . S
C1160 C1157 1.499 . S
C1160 C1161 1.373 . S
C1160 C1162 1.389 . S
C1161 H1140 0.950 . S
C1161 C1160 1.373 . S
C1161 C1177 1.377 . S
C1162 C1160 1.389 . S
C1162 C1163 1.524 . S
C1162 C1176 1.377 . S
C1163 C1162 1.524 . S
C1163 C1164 1.397 . S
C1163 C1168 1.363 . S
C1164 H1141 0.950 . S
C1164 C1163 1.397 . S
C1164 C1165 1.334 . S
C1165 H1142 0.950 . S
C1165 C1164 1.334 . S
C1165 C1166 1.287 . S
C1166 C1165 1.287 . S
C1166 C1167 1.524 . S
C1166 H1185 0.913 . S
C1167 H1143 0.950 . S
C1167 C1166 1.524 . S
C1167 C1168 1.415 . S
C1168 H1144 0.950 . S
C1168 C1163 1.363 . S
C1168 C1167 1.415 . S
C1169 H1145 0.951 . S
C1169 C1170 1.366 . S
C1169 C1171 1.388 1_554 S
C1170 C1169 1.366 . S
C1170 C1174 1.385 . S
C1171 H1146 0.951 . S
C1171 C1169 1.388 1_556 S
C1171 C1172 1.366 . S
C1172 C1171 1.366 . S
C1172 C1173 1.414 . S
C1172 C1175 1.499 . S
C1173 H1147 0.950 . S
C1173 C1172 1.414 . S
C1173 C1174 1.374 1_556 S
C1174 H1148 0.950 . S
C1174 C1170 1.385 . S
C1174 C1173 1.374 1_554 S
C1175 C1172 1.499 . S
C1175 C1176 1.373 . S
C1175 C1177 1.389 . S
C1176 H1149 0.950 . S
C1176 C1162 1.377 . S
C1176 C1175 1.373 . S
C1177 C1161 1.377 . S
C1177 C1175 1.389 . S
C1177 C1178 1.524 . S
C1178 C1177 1.524 . S
C1178 C1179 1.397 . S
C1178 C1183 1.363 . S
C1179 H1150 0.950 . S
C1179 C1178 1.397 . S
C1179 C1180 1.334 . S
C1180 H1151 0.950 . S
C1180 C1179 1.334 . S
C1180 C1181 1.287 . S
C1181 C1180 1.287 . S
C1181 C1182 1.524 . S
C1181 H1184 0.999 . S
C1182 H1152 0.950 . S
C1182 C1181 1.524 . S
C1182 C1183 1.415 . S
C1183 H1153 0.950 . S
C1183 C1178 1.363 . S
C1183 C1182 1.415 . S
H1184 C1181 0.999 . S
H1185 C1166 0.913 . S
H1186 C1204 0.951 . S
H1187 C1206 0.951 . S
H1188 C1208 0.950 . S
H1189 C1209 0.950 . S
H1190 C1211 0.947 . S
H1191 C1214 0.950 1_655 S
H1192 C1215 0.950 1_655 S
H1193 C1217 0.950 . S
H1194 C1218 0.950 . S
H1195 C1219 0.951 . S
H1196 C1221 0.951 . S
H1197 C1223 0.950 . S
H1198 C1224 0.950 . S
H1199 C1226 0.950 . S
H1200 C1229 0.950 . S
H1201 C1230 0.950 . S
H1202 C1232 0.950 . S
H1203 C1233 0.950 . S
C1204 H1186 0.951 . S
C1204 C1205 1.366 . S
C1204 C1206 1.388 . S
C1205 C1204 1.366 . S
C1205 C1209 1.385 1_455 S
C1206 H1187 0.951 . S
C1206 C1204 1.388 . S
C1206 C1207 1.366 . S
C1207 C1206 1.366 . S
C1207 C1208 1.414 1_455 S
C1207 C1210 1.499 . S
C1208 H1188 0.950 . S
C1208 C1207 1.414 1_655 S
C1208 C1209 1.374 . S
C1209 H1189 0.950 . S
C1209 C1205 1.385 1_655 S
C1209 C1208 1.374 . S
C1210 C1207 1.499 . S
C1210 C1211 1.376 1_455 S
C1210 C1212 1.389 . S
C1211 H1190 0.947 . S
C1211 C1210 1.376 1_655 S
C1211 C1227 1.376 . S
C1212 C1210 1.389 . S
C1212 C1213 1.524 . S
C1212 C1226 1.377 . S
C1213 C1212 1.524 . S
C1213 C1214 1.397 . S
C1213 C1218 1.363 . S
C1214 H1191 0.950 1_455 S
C1214 C1213 1.397 . S
C1214 C1215 1.334 . S
C1215 H1192 0.950 1_455 S
C1215 C1214 1.334 . S
C1215 C1216 1.287 . S
C1216 C1215 1.287 . S
C1216 C1217 1.524 . S
C1216 H1235 0.913 . S
C1217 H1193 0.950 . S
C1217 C1216 1.524 . S
C1217 C1218 1.415 . S
C1218 H1194 0.950 . S
C1218 C1213 1.363 . S
C1218 C1217 1.415 . S
C1219 H1195 0.951 . S
C1219 C1220 1.391 . S
C1219 C1221 1.388 . S
C1220 C1219 1.391 . S
C1220 C1224 1.357 1_655 S
C1221 H1196 0.951 . S
C1221 C1219 1.388 . S
C1221 C1222 1.366 1_655 S
C1222 C1221 1.366 1_455 S
C1222 C1223 1.414 . S
C1222 C1225 1.499 . S
C1223 H1197 0.950 . S
C1223 C1222 1.414 . S
C1223 C1224 1.374 . S
C1224 H1198 0.950 . S
C1224 C1220 1.357 1_455 S
C1224 C1223 1.374 . S
C1225 C1222 1.499 . S
C1225 C1226 1.373 . S
C1225 C1227 1.384 1_455 S
C1226 H1199 0.950 . S
C1226 C1212 1.377 . S
C1226 C1225 1.373 . S
C1227 C1211 1.376 . S
C1227 C1225 1.384 1_655 S
C1227 C1228 1.531 . S
C1228 C1227 1.531 . S
C1228 C1229 1.397 1_655 S
C1228 C1233 1.363 . S
C1229 H1200 0.950 . S
C1229 C1228 1.397 1_455 S
C1229 C1230 1.334 . S
C1230 H1201 0.950 . S
C1230 C1229 1.334 . S
C1230 C1231 1.287 1_455 S
C1231 C1230 1.287 1_655 S
C1231 C1232 1.524 . S
C1231 H1234 0.999 . S
C1232 H1202 0.950 . S
C1232 C1231 1.524 . S
C1232 C1233 1.415 . S
C1233 H1203 0.950 . S
C1233 C1228 1.363 . S
C1233 C1232 1.415 . S
H1234 C1231 0.999 . S
H1235 C1216 0.913 . S
C355 C7 0.506 . S
C370 C325 0.490 . S
C405 C51 1.844 . S
C420 C253 1.787 . S
C455 C87 1.140 . S
C470 C289 1.133 . S
C505 C16 0.308 . S
C520 C301 0.223 . S
C570 C229 1.957 . S
C555 C42 1.986 . S
C620 C265 1.297 . S
C605 C96 1.300 . S
C655 C47 1.137 . S
C670 C181 1.134 . S
C705 C91 3.065 . S
C720 C193 3.025 . S
C755 C2 2.020 . S
C770 C121 1.996 . S
C820 C157 1.273 . S
C805 C56 1.269 . S
C870 C217 2.853 . S
C855 C82 2.907 . S
C905 C11 1.832 . S
C920 C145 1.779 . S
C970 C223 1.756 . S
C955 C19 1.696 . S
C1005 C50 1.344 . S
C1020 C151 1.378 . S
C1055 C99 1.463 . S
C1070 C187 1.510 . S
C1120 C295 1.484 1_565 S
C1105 C59 1.452 . S
C1170 C331 1.135 . S
C1155 C90 1.117 . S
C1205 C10 1.342 . S
C1220 C259 1.370 1_655 S
