# Generated by pormake.
# Topology ssa, (4,4)-cn, num edge types: 1
# Building blocks:
#     Node 0, Type 0, BuildingBlock: NAWXER_clean_sbu_0, # of connection points: 4
#     Node 1, Type 0, BuildingBlock: NAWXER_clean_sbu_0, # of connection points: 4
#     Node 2, Type 0, BuildingBlock: NAWXER_clean_sbu_0, # of connection points: 4
#     Node 3, Type 0, BuildingBlock: NAWXER_clean_sbu_0, # of connection points: 4
#     Node 4, Type 0, BuildingBlock: NAWXER_clean_sbu_0, # of connection points: 4
#     Node 5, Type 0, BuildingBlock: NAWXER_clean_sbu_0, # of connection points: 4
#     Node 6, Type 1, BuildingBlock: GIZVER_clean_linker_0, # of connection points: 4
#     Node 7, Type 1, BuildingBlock: GIZVER_clean_linker_0, # of connection points: 4
#     Node 8, Type 1, BuildingBlock: GIZVER_clean_linker_0, # of connection points: 4
#     Node 9, Type 1, BuildingBlock: GIZVER_clean_linker_0, # of connection points: 4
#     Node 10, Type 1, BuildingBlock: GIZVER_clean_linker_0, # of connection points: 4
#     Node 11, Type 1, BuildingBlock: GIZVER_clean_linker_0, # of connection points: 4
#     Edge 12, Type (0, 1), BuildingBlock: AJUNOK_clean_linker_0, # of connection points: 2
#     Edge 13, Type (0, 1), BuildingBlock: AJUNOK_clean_linker_0, # of connection points: 2
#     Edge 14, Type (0, 1), BuildingBlock: AJUNOK_clean_linker_0, # of connection points: 2
#     Edge 15, Type (0, 1), BuildingBlock: AJUNOK_clean_linker_0, # of connection points: 2
#     Edge 16, Type (0, 1), BuildingBlock: AJUNOK_clean_linker_0, # of connection points: 2
#     Edge 17, Type (0, 1), BuildingBlock: AJUNOK_clean_linker_0, # of connection points: 2
#     Edge 18, Type (0, 1), BuildingBlock: AJUNOK_clean_linker_0, # of connection points: 2
#     Edge 19, Type (0, 1), BuildingBlock: AJUNOK_clean_linker_0, # of connection points: 2
#     Edge 20, Type (0, 1), BuildingBlock: AJUNOK_clean_linker_0, # of connection points: 2
#     Edge 21, Type (0, 1), BuildingBlock: AJUNOK_clean_linker_0, # of connection points: 2
#     Edge 22, Type (0, 1), BuildingBlock: AJUNOK_clean_linker_0, # of connection points: 2
#     Edge 23, Type (0, 1), BuildingBlock: AJUNOK_clean_linker_0, # of connection points: 2
#     Edge 24, Type (0, 1), BuildingBlock: AJUNOK_clean_linker_0, # of connection points: 2
#     Edge 25, Type (0, 1), BuildingBlock: AJUNOK_clean_linker_0, # of connection points: 2
#     Edge 26, Type (0, 1), BuildingBlock: AJUNOK_clean_linker_0, # of connection points: 2
#     Edge 27, Type (0, 1), BuildingBlock: AJUNOK_clean_linker_0, # of connection points: 2
#     Edge 28, Type (0, 1), BuildingBlock: AJUNOK_clean_linker_0, # of connection points: 2
#     Edge 29, Type (0, 1), BuildingBlock: AJUNOK_clean_linker_0, # of connection points: 2
#     Edge 30, Type (0, 1), BuildingBlock: AJUNOK_clean_linker_0, # of connection points: 2
#     Edge 31, Type (0, 1), BuildingBlock: AJUNOK_clean_linker_0, # of connection points: 2
#     Edge 32, Type (0, 1), BuildingBlock: AJUNOK_clean_linker_0, # of connection points: 2
#     Edge 33, Type (0, 1), BuildingBlock: AJUNOK_clean_linker_0, # of connection points: 2
#     Edge 34, Type (0, 1), BuildingBlock: AJUNOK_clean_linker_0, # of connection points: 2
#     Edge 35, Type (0, 1), BuildingBlock: AJUNOK_clean_linker_0, # of connection points: 2
# Relax obj value: 0.007
# Max RMSD: 0.038
# Mean RMSD: 0.029
data_MOF--net-ssa--node1-NAWXER_clean_sbu_0--node2-GIZVER_clean_linker_0--edge1-AJUNOK_clean_linker_0
_symmetry_space_group_name_H-M    P1
_symmetry_Int_Tables_number       1
_symmetry_cell_setting            triclinic
loop_
_symmetry_equiv_pos_as_xyz
'x, y, z'
_cell_length_a     37.641794
_cell_length_b     37.752665
_cell_length_c     22.98509
_cell_angle_alpha  90.61031
_cell_angle_beta   89.439307
_cell_angle_gamma 120.16696
loop_
_atom_site_label
_atom_site_type_symbol
_atom_site_fract_x
_atom_site_fract_y
_atom_site_fract_z
_atom_type_partial_charge
C0 C 0.11652 0.59948 0.94431 0.0
C1 C 1.0281 0.4548 0.88844 0.0
O2 O 0.08266 0.58008 -0.0274 0.0
Zn3 Zn 1.02906 0.52116 -0.02335 0.0
O4 O 0.12442 0.58162 0.90305 0.0
Zn5 Zn 0.07332 0.52875 0.90886 0.0
O6 O 1.02692 0.54184 0.88298 0.0
O7 O 0.9849 0.53179 -0.04342 0.0
O8 O 0.06179 0.47994 0.86348 0.0
O9 O 1.01361 0.46764 0.9286 0.0
O10 O 1.03507 0.50277 0.05324 0.0
O11 O 0.08315 0.51051 -0.01008 0.0
C12 C 0.99537 0.54216 0.90386 0.0
C13 C 0.06734 0.50124 0.04064 0.0
C14 C 0.53651 0.06526 0.53542 0.0
C15 C 0.589 0.98327 0.44541 0.0
O16 O 0.53676 0.0341 0.55501 0.0
Zn17 Zn 0.56188 1.02267 0.48968 0.0
O18 O 0.55045 0.07781 0.48413 0.0
Zn19 Zn 0.57637 0.05991 0.41469 0.0
O20 O 0.53574 0.04313 0.35342 0.0
O21 O 0.51544 0.99799 0.42421 0.0
O22 O 0.592 1.0118 0.41214 0.0
O23 O 0.57278 0.97821 0.49566 0.0
O24 O 0.62317 0.0748 0.48586 0.0
O25 O 0.62982 0.10899 0.40496 0.0
C26 C 0.50921 1.0088 0.37452 0.0
C27 C 0.64507 0.1048 0.4517 0.0
C28 C 0.496 0.46306 0.88785 0.0
C29 C 0.54963 0.60084 -0.03368 0.0
O30 O 0.49404 0.49286 0.86631 0.0
Zn31 Zn 0.51993 0.53195 0.92862 0.0
O32 O 0.51122 0.46686 0.93863 0.0
Zn33 Zn 0.53694 0.51285 0.00487 0.0
O34 O 0.49741 0.49038 0.06815 0.0
O35 O 0.47448 0.51135 -0.00386 0.0
O36 O 0.55322 0.57659 0.00147 0.0
O37 O 0.53122 0.58741 0.91808 0.0
O38 O 0.58137 0.54097 0.92985 0.0
O39 O 0.59062 0.518 0.01344 0.0
C40 C 0.46962 0.49605 0.04702 0.0
C41 C 0.60422 0.53456 -0.03583 0.0
C42 C 0.08986 0.6265 0.40479 0.0
C43 C 1.01728 0.5257 0.55792 0.0
O44 O 0.09844 0.63347 0.45869 0.0
Zn45 Zn 0.05369 0.58102 0.48794 0.0
O46 O 0.05728 0.59381 0.38888 0.0
Zn47 Zn 1.00889 0.539 0.42363 0.0
O48 O 0.95774 0.54042 0.41694 0.0
O49 O 0.99961 0.58443 0.4825 0.0
O50 O 1.00156 0.51633 0.50743 0.0
O51 O 0.04896 0.5606 0.56782 0.0
O52 O 0.0689 0.54027 0.44619 0.0
O53 O 1.0201 0.4987 0.38558 0.0
C54 C 0.9652 0.56751 0.45588 0.0
C55 C 0.05484 0.51071 0.40958 0.0
C56 C 0.57819 1.00315 0.01944 0.0
C57 C 0.5454 0.10412 0.94595 0.0
O58 O 0.58742 0.03753 0.04212 0.0
Zn59 Zn 0.56602 0.05681 -0.01877 0.0
O60 O 0.56193 0.99372 -0.03114 0.0
Zn61 Zn 0.54324 1.02123 0.90392 0.0
O62 O 0.58033 0.03335 0.8394 0.0
O63 O 0.61075 0.07518 0.91322 0.0
O64 O 0.53679 0.07459 0.91025 0.0
O65 O 0.56348 0.10664 -0.00644 0.0
O66 O 0.50127 1.01043 -0.02022 0.0
O67 O 0.48685 0.97864 0.89421 0.0
C68 C 0.61205 0.06371 0.86103 0.0
C69 C 0.47536 0.9832 0.94458 0.0
C70 C 0.59576 0.55353 0.54425 0.0
C71 C 0.45726 0.49679 0.46858 0.0
O72 O 0.56547 0.55516 0.56601 0.0
Zn73 Zn 0.52656 0.52715 0.50517 0.0
O74 O 0.59216 0.53712 0.49394 0.0
Zn75 Zn 0.54492 0.50781 0.4296 0.0
O76 O 0.56448 0.54362 0.36325 0.0
O77 O 0.54749 0.5707 0.43601 0.0
O78 O 0.48123 0.49162 0.43391 0.0
O79 O 0.47104 0.5165 0.51597 0.0
O80 O 0.51835 0.46616 0.50707 0.0
O81 O 0.54071 0.45463 0.42341 0.0
C82 C 0.56069 0.5729 0.38388 0.0
C83 C 0.52494 0.44261 0.47357 0.0
H84 H 0.21565 0.48259 0.15619 0.0
H85 H 0.21307 0.47879 0.34301 0.0
H86 H 0.10138 0.43453 0.24696 0.0
H87 H 0.27532 0.5273 0.21102 0.0
H88 H 0.27349 0.52928 0.28783 0.0
H89 H 0.30133 0.48772 0.16202 0.0
H90 H 0.37582 0.45838 0.26884 0.0
H91 H 0.28777 0.48418 0.34859 0.0
C92 C 0.19834 0.4715 0.19639 0.0
C93 C 0.15561 0.45531 0.19572 0.0
C94 C 0.21936 0.47891 0.24951 0.0
C95 C 0.19677 0.46951 0.30203 0.0
C96 C 0.1541 0.4546 0.30134 0.0
C97 C 0.13371 0.44381 0.24797 0.0
C98 C 0.26541 0.50764 0.25042 0.0
C99 C 0.29022 0.48635 0.25461 0.0
C100 C 0.30904 0.48119 0.20434 0.0
C101 C 0.3401 0.47096 0.20909 0.0
C102 C 0.35022 0.46371 0.26444 0.0
C103 C 0.33147 0.46806 0.31487 0.0
C104 C 0.30097 0.47881 0.30972 0.0
H105 H 0.8048 0.25946 0.59448 0.0
H106 H 0.77127 0.22561 0.77309 0.0
H107 H 0.72741 0.13303 0.63991 0.0
H108 H 0.80464 0.30741 0.67507 0.0
H109 H 0.8067 0.29536 0.74907 0.0
H110 H 0.86716 0.35153 0.62959 0.0
H111 H 0.98051 0.38069 0.70928 0.0
H112 H 0.86704 0.28484 0.78037 0.0
C113 C 0.79093 0.23586 0.62732 0.0
C114 C 0.7666 0.19468 0.61026 0.0
C115 C 0.79457 0.24693 0.68666 0.0
C116 C 0.77199 0.21654 0.72843 0.0
C117 C 0.74703 0.17535 0.71159 0.0
C118 C 0.74709 0.16469 0.6531 0.0
C119 C 0.81565 0.29158 0.70415 0.0
C120 C 0.862 0.31233 0.70112 0.0
C121 C 0.88374 0.3441 0.66089 0.0
C122 C 0.92658 0.36886 0.66461 0.0
C123 C 0.94777 0.35965 0.70531 0.0
C124 C 0.9269 0.33076 0.74905 0.0
C125 C 0.88382 0.30595 0.74548 0.0
H126 H 0.56017 0.76354 0.10753 0.0
H127 H 0.54738 0.72675 0.2866 0.0
H128 H 0.59891 0.67976 0.16185 0.0
H129 H 0.50881 0.76579 0.17712 0.0
H130 H 0.51369 0.76172 0.25323 0.0
H131 H 0.55284 0.82943 0.12574 0.0
H132 H 0.61332 0.93696 0.23302 0.0
H133 H 0.5692 0.81839 0.30855 0.0
C134 C 0.5659 0.74758 0.14179 0.0
C135 C 0.58096 0.72127 0.12762 0.0
C136 C 0.55484 0.75063 0.19954 0.0
C137 C 0.55904 0.72701 0.24324 0.0
C138 C 0.57478 0.70109 0.22968 0.0
C139 C 0.58754 0.70034 0.17249 0.0
C140 C 0.53171 0.77293 0.21214 0.0
C141 C 0.5597 0.8188 0.21611 0.0
C142 C 0.56578 0.8436 0.16735 0.0
C143 C 0.58565 0.88647 0.17326 0.0
C144 C 0.60087 0.90425 0.22772 0.0
C145 C 0.59534 0.88014 0.27679 0.0
C146 C 0.57526 0.83735 0.27048 0.0
H147 H 0.78203 0.61876 0.65645 0.0
H148 H 0.79516 0.60445 0.83984 0.0
H149 H 0.67526 0.55642 0.76576 0.0
H150 H 0.84787 0.66252 0.70742 0.0
H151 H 0.85383 0.65421 0.78203 0.0
H152 H 0.8481 0.6154 0.62978 0.0
H153 H 0.91698 0.55709 0.67234 0.0
H154 H 0.87644 0.60718 0.80886 0.0
C155 C 0.76845 0.60635 0.69851 0.0
C156 C 0.72565 0.58645 0.7055 0.0
C157 C 0.79387 0.61252 0.74672 0.0
C158 C 0.77591 0.59828 0.80199 0.0
C159 C 0.73304 0.57758 0.80855 0.0
C160 C 0.70836 0.57135 0.76014 0.0
C161 C 0.83991 0.63819 0.74031 0.0
C162 C 0.8586 0.6126 0.72171 0.0
C163 C 0.86088 0.60439 0.66222 0.0
C164 C 0.88141 0.5837 0.64446 0.0
C165 C 0.89964 0.57138 0.68646 0.0
C166 C 0.89866 0.58015 0.74573 0.0
C167 C 0.87694 0.59972 0.7633 0.0
H168 H 0.32646 0.82212 0.08601 0.0
H169 H 0.35522 0.83886 0.26872 0.0
H170 H 0.41075 0.94149 0.15381 0.0
H171 H 0.33211 0.76813 0.15299 0.0
H172 H 0.32489 0.77191 0.22878 0.0
H173 H 0.2764 0.75162 0.08253 0.0
H174 H 0.15461 0.68572 0.15431 0.0
H175 H 0.25766 0.75184 0.26785 0.0
C176 C 0.3416 0.84216 0.12263 0.0
C177 C 0.36731 0.88433 0.11352 0.0
C178 C 0.33756 0.82541 0.17839 0.0
C179 C 0.35779 0.85168 0.22589 0.0
C180 C 0.38323 0.8941 0.21763 0.0
C181 C 0.38806 0.90965 0.16129 0.0
C182 C 0.31794 0.77956 0.18529 0.0
C183 C 0.27203 0.75692 0.17591 0.0
C184 C 0.25587 0.74391 0.11958 0.0
C185 C 0.21339 0.71894 0.11129 0.0
C186 C 0.18723 0.70678 0.16002 0.0
C187 C 0.20293 0.71759 0.21662 0.0
C188 C 0.24523 0.74404 0.22423 0.0
H189 H 0.44804 0.27801 0.78942 0.0
H190 H 0.46714 0.25804 0.60914 0.0
H191 H 0.50293 0.37904 0.67097 0.0
H192 H 0.41454 0.20924 0.74983 0.0
H193 H 0.41645 0.20103 0.67364 0.0
H194 H 0.47154 0.2172 0.81508 0.0
H195 H 0.53423 0.15523 0.75397 0.0
H196 H 0.46252 0.18007 0.63494 0.0
C197 C 0.45999 0.2899 0.7465 0.0
C198 C 0.47553 0.33161 0.73517 0.0
C199 C 0.45744 0.26308 0.70137 0.0
C200 C 0.47094 0.27862 0.64485 0.0
C201 C 0.48768 0.32058 0.63425 0.0
C202 C 0.49073 0.34673 0.67976 0.0
C203 C 0.43582 0.21752 0.71193 0.0
C204 C 0.46582 0.20284 0.72284 0.0
C205 C 0.48086 0.20458 0.77945 0.0
C206 C 0.50593 0.18773 0.79051 0.0
C207 C 0.51607 0.16955 0.74493 0.0
C208 C 0.49954 0.16543 0.68947 0.0
C209 C 0.47561 0.18342 0.67783 0.0
C210 C 0.12876 0.51691 0.09721 0.0
C211 C 0.08792 0.48877 0.08236 0.0
C212 C 0.15204 0.5048 0.12959 0.0
C213 C 0.13551 0.46386 0.14719 0.0
H214 H 0.14269 0.54864 0.08397 0.0
H215 H 0.18244 0.52811 0.14339 0.0
S216 S 1.03166 0.37752 0.11204 0.0
N217 N 1.03294 0.41786 0.08248 0.0
N218 N 0.07687 0.3946 0.14307 0.0
C219 C 0.09529 0.43504 0.12981 0.0
C220 C 0.0714 0.44762 0.09757 0.0
C221 C 0.69507 0.17448 0.4878 0.0
C222 C 0.68677 0.13527 0.47052 0.0
C223 C 0.72695 0.19795 0.52703 0.0
C224 C 0.75122 0.18269 0.54991 0.0
H225 H 0.674 0.18496 0.47651 0.0
H226 H 0.72896 0.22551 0.54518 0.0
S227 S 0.74807 0.08655 0.50568 0.0
N228 N 0.70979 0.08572 0.46997 0.0
N229 N 0.77037 0.13024 0.54239 0.0
C230 C 0.74708 0.1465 0.52559 0.0
C231 C 0.71435 0.12243 0.48653 0.0
C232 C 0.6026 0.66543 0.01181 0.0
C233 C 0.56373 0.643 -0.01396 0.0
C234 C 0.61138 0.69763 0.05055 0.0
C235 C 0.58072 0.70681 0.06704 0.0
H236 H 0.62498 0.65562 0.00622 0.0
H237 H 0.64026 0.71144 0.07378 0.0
S238 S 0.47811 0.66417 -0.00116 0.0
N239 N 0.49809 0.6383 -0.03173 0.0
N240 N 0.51334 0.69712 0.04403 0.0
C241 C 0.54407 0.68875 0.03461 0.0
C242 C 0.5357 0.6568 -0.00632 0.0
C243 C 0.89925 0.53747 0.50942 0.0
C244 C 0.93218 0.57217 0.48341 0.0
C245 C 0.879 0.54142 0.5586 0.0
C246 C 0.89041 0.58019 0.58237 0.0
H247 H 0.89261 0.50705 0.49654 0.0
H248 H 0.85705 0.51395 0.58139 0.0
S249 S 0.96938 0.68045 0.52362 0.0
N250 N 0.97137 0.6464 0.48005 0.0
N251 N 0.93252 0.65385 0.57132 0.0
C252 C 0.91963 0.61507 0.5523 0.0
C253 C 0.94068 0.61104 0.50293 0.0
C254 C 0.41499 0.96849 0.00501 0.0
C255 C 0.43446 0.95387 -0.03242 0.0
C256 C 0.38678 0.94295 0.04684 0.0
C257 C 0.37876 0.90256 0.05433 0.0
H258 H 0.42461 1.0008 0.0058 0.0
H259 H 0.37531 0.95646 0.07823 0.0
S260 S 0.41202 0.84677 -0.04591 0.0
N261 N 0.43567 0.89423 0.92965 0.0
N262 N 0.3844 0.84642 0.01061 0.0
C263 C 0.39286 0.8859 0.01085 0.0
C264 C 0.42066 0.91175 -0.03303 0.0
C265 C 0.54655 0.39759 0.52009 0.0
C266 C 0.51516 0.40237 0.49571 0.0
C267 C 0.5372 0.36595 0.55967 0.0
C268 C 0.49624 0.33815 0.57533 0.0
H269 H 0.57844 0.42077 0.51329 0.0
H270 H 0.56215 0.36597 0.58283 0.0
S271 S 0.40323 0.33482 0.51715 0.0
N272 N 0.44186 0.37465 0.48492 0.0
N273 N 0.42422 0.31472 0.55837 0.0
C274 C 0.46468 0.34012 0.54619 0.0
C275 C 0.47419 0.37258 0.50672 0.0
C276 C 0.56653 0.91192 0.41587 0.0
C277 C 0.59825 0.95289 0.42025 0.0
C278 C 0.56819 0.88577 0.37354 0.0
C279 C 0.60184 0.8999 0.33493 0.0
H280 H 0.5383 0.90142 0.44044 0.0
H281 H 0.54099 0.8561 0.36681 0.0
S282 S 0.69737 1.00111 0.34067 0.0
N283 N 0.66724 1.00402 0.39091 0.0
N284 N 0.67135 0.95433 0.31308 0.0
C285 C 0.63627 0.9388 0.34529 0.0
C286 C 0.63415 0.96559 0.38741 0.0
C287 C 0.65195 0.51542 0.91792 0.0
C288 C 0.6456 0.54565 0.94383 0.0
C289 C 0.68488 0.52623 0.87922 0.0
C290 C 0.71244 0.56755 0.8659 0.0
H291 H 0.62911 0.48332 0.92284 0.0
H292 H 0.68629 0.50216 0.85508 0.0
S293 S 0.71173 0.65792 0.92863 0.0
N294 N 0.67149 0.61825 -0.04152 0.0
N295 N 0.73378 0.63864 0.88655 0.0
C296 C 0.70876 0.59795 0.89639 0.0
C297 C 0.67503 0.58695 0.93509 0.0
C298 C 0.14403 0.69367 0.36102 0.0
C299 C 0.12025 0.65063 0.35901 0.0
C300 C 0.1714 0.71566 0.31527 0.0
C301 C 0.17594 0.69511 0.26671 0.0
H302 H 0.14071 0.71038 0.39725 0.0
H303 H 0.18844 0.74882 0.31727 0.0
S304 S 0.12621 0.5825 0.2461 0.0
N305 N 0.1065 0.58837 0.30736 0.0
N306 N 0.15843 0.62933 0.22342 0.0
C307 C 0.15402 0.65208 0.26617 0.0
C308 C 0.12604 0.62994 0.31178 0.0
C309 C 0.56597 0.17201 0.90436 0.0
C310 C 0.53513 0.13523 0.92866 0.0
C311 C 0.55592 0.19397 0.86534 0.0
C312 C 0.51477 0.17975 0.84993 0.0
H313 H 0.59803 0.18121 0.91005 0.0
H314 H 0.58056 0.21924 0.84183 0.0
S315 S 0.42288 0.08906 0.91017 0.0
N316 N 0.46206 0.0887 0.94129 0.0
N317 N 0.44307 0.13023 0.86876 0.0
C318 C 0.48369 0.14609 0.88001 0.0
C319 C 0.49393 0.12353 0.91904 0.0
C320 C 0.39279 0.44608 0.42023 0.0
C321 C 0.41557 0.48414 0.44837 0.0
C322 C 0.36047 0.43846 0.38299 0.0
C323 C 0.35072 0.46913 0.3714 0.0
H324 H 0.40221 0.42333 0.42323 0.0
H325 H 0.34608 0.4101 0.35819 0.0
S326 S 0.39724 0.5716 0.44172 0.0
N327 N 0.42247 0.55045 0.46934 0.0
N328 N 0.36275 0.5369 0.39738 0.0
C329 C 0.37022 0.50554 0.40447 0.0
C330 C 0.40263 0.51295 0.44335 0.0
C331 C 0.96016 0.39094 0.87989 0.0
C332 C 1.0028 0.41173 0.86877 0.0
C333 C 0.93348 0.3552 0.8493 0.0
C334 C 0.94869 0.33991 0.80564 0.0
H335 H 0.9467 0.40448 0.90769 0.0
H336 H 0.90084 0.34417 0.85282 0.0
S337 S 0.05803 0.37166 0.78083 0.0
N338 N 0.05943 0.40652 0.82637 0.0
N339 N 1.00886 0.33833 0.77005 0.0
C340 C 0.99127 0.35435 0.80538 0.0
C341 C 1.01861 0.39148 0.83524 0.0
C342 C 0.93048 0.54268 0.87854 0.0
C343 C 0.97155 0.55416 0.86552 0.0
C344 C 0.90708 0.55168 0.84029 0.0
C345 C 0.92395 0.5725 0.78774 0.0
H346 H 0.91596 0.52576 0.9178 0.0
H347 H 0.87532 0.54144 0.85122 0.0
S348 S 1.03144 0.61382 0.73672 0.0
N349 N 1.02885 0.59047 0.79821 0.0
N350 N 0.9853 0.60776 0.72755 0.0
C351 C 0.96541 0.58558 0.7755 0.0
C352 C 0.98906 0.57631 0.81402 0.0
C353 C 0.46304 0.9379 0.33769 0.0
C354 C 0.47349 0.97929 0.33982 0.0
C355 C 0.43211 0.90982 0.30053 0.0
C356 C 0.40988 0.92192 0.26496 0.0
H357 H 0.48032 0.92756 0.36276 0.0
H358 H 0.42715 0.87901 0.29752 0.0
S359 S 0.42078 1.02537 0.26274 0.0
N360 N 0.45677 0.03021 0.30808 0.0
N361 N 0.39696 0.97711 0.24067 0.0
C362 C 0.41812 0.96266 0.27019 0.0
C363 C 0.45037 0.99144 0.30687 0.0
C364 C 0.49995 0.3997 0.86837 0.0
C365 C 0.48469 0.42566 0.85289 0.0
C366 C 0.49472 0.36739 0.83186 0.0
C367 C 0.47392 0.3599 0.77883 0.0
H368 H 0.51784 0.40554 0.90759 0.0
H369 H 0.50889 0.34963 0.84366 0.0
S370 S 0.42236 0.41427 0.72249 0.0
N371 N 0.44389 0.43842 0.78381 0.0
N372 N 0.43363 0.37744 0.71582 0.0
C373 C 0.45599 0.38364 0.76488 0.0
C374 C 0.46152 0.41662 0.80169 0.0
C375 C 0.06497 0.45231 0.37875 0.0
C376 C 0.08149 0.49382 0.39323 0.0
C377 C 0.09043 0.43753 0.35828 0.0
C378 C 0.13294 0.46421 0.34884 0.0
H379 H 1.03213 0.43146 0.38146 0.0
H380 H 0.07611 0.40592 0.34379 0.0
S381 S 0.19159 0.57478 0.38806 0.0
N382 N 0.14355 0.56016 0.40522 0.0
N383 N 0.19069 0.5333 0.36283 0.0
C384 C 0.15012 0.50498 0.36849 0.0
C385 C 0.12446 0.51965 0.39098 0.0
C386 C 0.64217 0.09244 0.76453 0.0
C387 C 0.64819 0.08913 0.82388 0.0
C388 C 0.6744 0.12003 0.72913 0.0
C389 C 0.71452 0.14486 0.751 0.0
H390 H 0.61183 0.07495 0.74564 0.0
H391 H 0.66726 0.12275 0.68444 0.0
S392 S 0.74709 0.14515 0.90289 0.0
N393 N 0.69729 0.11164 0.90315 0.0
N394 N 0.75872 0.16235 0.83558 0.0
C395 C 0.72128 0.14089 0.81005 0.0
C396 C 0.68801 0.11324 0.84662 0.0
C397 C 0.55587 0.5989 0.28723 0.0
C398 C 0.56671 0.60696 0.34607 0.0
C399 C 0.55789 0.62931 0.25092 0.0
C400 C 0.57209 0.66965 0.27125 0.0
H401 H 0.54442 0.5684 0.26936 0.0
H402 H 0.54765 0.62079 0.20644 0.0
S403 S 0.60547 0.70681 0.42199 0.0
N404 N 0.59191 0.65786 0.42377 0.0
N405 N 0.59788 0.71594 0.35444 0.0
C406 C 0.58332 0.67823 0.33013 0.0
C407 C 0.58027 0.64676 0.36767 0.0
C408 C 0.53166 0.12819 0.55584 0.0
C409 C 0.52261 0.08857 0.57236 0.0
C410 C 0.52242 0.15249 0.59257 0.0
C411 C 0.50381 0.13797 0.647 0.0
H412 H 0.54731 0.14119 0.51509 0.0
H413 H 0.5314 0.18336 0.57941 0.0
S414 S 0.46882 0.03484 0.70782 0.0
N415 N 0.49045 0.03487 0.64498 0.0
N416 N 0.47278 0.08031 0.71332 0.0
C417 C 0.49252 0.0977 0.66263 0.0
C418 C 0.50204 0.07308 0.62555 0.0
C419 C 0.41345 0.45223 0.11683 0.0
C420 C 0.43295 0.48736 0.08203 0.0
C421 C 0.38081 0.44533 0.15399 0.0
C422 C 0.36716 0.47389 0.15914 0.0
H423 H 0.42392 0.43024 0.11601 0.0
H424 H 0.36737 0.41825 0.181 0.0
S425 S 0.40842 0.57086 0.07666 0.0
N426 N 0.43553 0.55024 0.05285 0.0
N427 N 0.37582 0.53856 0.12496 0.0
C428 C 0.38567 0.50853 0.12294 0.0
C429 C 0.41826 0.51501 0.08404 0.0
C430 C 1.01303 0.46291 0.59267 0.0
C431 C 1.00045 0.492 0.59921 0.0
C432 C 0.988 0.42253 0.61129 0.0
C433 C 0.9494 0.40975 0.63714 0.0
H434 H 0.04125 0.47074 0.5695 0.0
H435 H 0.99877 0.40098 0.60508 0.0
S436 S 0.90352 0.47505 0.66668 0.0
N437 N 0.94755 0.50586 0.63372 0.0
N438 N 0.90113 0.43032 0.67173 0.0
C439 C 0.9371 0.43899 0.64555 0.0
C440 C 0.96252 0.48004 0.62603 0.0
C441 C 0.61823 0.97984 0.07829 0.0
C442 C 0.58089 0.97182 0.05376 0.0
C443 C 0.62016 0.95077 0.11377 0.0
C444 C 0.58468 0.91299 0.12659 0.0
H445 H 0.64595 1.0089 0.07056 0.0
H446 H 0.64935 0.95844 0.13302 0.0
S447 S 0.47893 0.87952 0.0771 0.0
N448 N 0.50758 0.92446 0.04594 0.0
N449 N 0.51085 0.87054 0.1142 0.0
C450 C 0.54724 0.90477 0.10193 0.0
C451 C 0.54543 0.93406 0.06523 0.0
C452 C 0.63936 0.59064 0.62983 0.0
C453 C 0.63347 0.5672 0.5791 0.0
C454 C 0.67106 0.59889 0.66853 0.0
C455 C 0.69812 0.58399 0.65818 0.0
H456 H 0.61844 0.60153 0.64094 0.0
H457 H 0.67343 0.6157 0.7082 0.0
S458 S 0.69844 0.52405 0.52992 0.0
N459 N 0.65949 0.53162 0.51864 0.0
N460 N 0.71899 0.54715 0.59225 0.0
C461 C 0.6943 0.56265 0.60621 0.0
C462 C 0.66196 0.55422 0.56646 0.0
C463 C 0.18638 0.64549 -0.01561 0.0
C464 C 0.14783 0.63956 -0.03186 0.0
C465 C 0.21012 0.67482 0.02693 0.0
C466 C 0.19603 0.69913 0.05418 0.0
H467 H 0.19623 0.62456 -0.0311 0.0
H468 H 0.23761 0.67564 0.04244 0.0
S469 S 0.10164 0.70143 0.01707 0.0
N470 N 0.09993 0.6647 -0.02464 0.0
N471 N 0.14478 0.72019 0.05429 0.0
C472 C 0.15997 0.69671 0.03305 0.0
C473 C 0.13581 0.6668 -0.00977 0.0
loop_
_geom_bond_atom_site_label_1
_geom_bond_atom_site_label_2
_geom_bond_distance
_geom_bond_site_symmetry_2
_ccdc_geom_bond_type
C0 O2 1.247 . S
C0 O4 1.258 . S
C1 O8 1.247 . S
C1 O9 1.258 1_556 S
O2 C0 1.247 . S
O2 Zn3 2.028 1_455 S
Zn3 O2 2.028 1_655 S
Zn3 O7 2.035 . S
Zn3 O9 2.035 . S
Zn3 O10 2.028 1_655 S
O4 C0 1.258 . S
O4 Zn5 2.035 1_554 S
Zn5 O4 2.035 1_556 S
Zn5 O6 2.028 1_455 S
Zn5 O8 2.028 1_455 S
Zn5 O11 2.035 1_556 S
O6 Zn5 2.028 1_655 S
O6 C12 1.247 . S
O7 Zn3 2.035 . S
O7 C12 1.258 1_554 S
O8 C1 1.247 . S
O8 Zn5 2.028 1_655 S
O9 C1 1.258 1_554 S
O9 Zn3 2.035 . S
O10 Zn3 2.028 1_455 S
O10 C13 1.247 . S
O11 Zn5 2.035 1_554 S
O11 C13 1.258 . S
C12 O6 1.247 . S
C12 O7 1.258 1_556 S
C13 O10 1.247 . S
C13 O11 1.258 . S
C14 O16 1.247 . S
C14 O18 1.258 . S
C15 O22 1.247 . S
C15 O23 1.258 . S
O16 C14 1.247 . S
O16 Zn17 2.028 1_545 S
Zn17 O16 2.028 1_565 S
Zn17 O21 2.035 . S
Zn17 O23 2.035 . S
Zn17 O24 2.028 1_565 S
O18 C14 1.258 . S
O18 Zn19 2.035 . S
Zn19 O18 2.035 . S
Zn19 O20 2.028 1_545 S
Zn19 O22 2.028 1_545 S
Zn19 O25 2.035 . S
O20 Zn19 2.028 1_565 S
O20 C26 1.247 . S
O21 Zn17 2.035 . S
O21 C26 1.258 . S
O22 C15 1.247 . S
O22 Zn19 2.028 1_565 S
O23 C15 1.258 . S
O23 Zn17 2.035 . S
O24 Zn17 2.028 1_545 S
O24 C27 1.247 . S
O25 Zn19 2.035 . S
O25 C27 1.258 . S
C26 O20 1.247 . S
C26 O21 1.258 . S
C27 O24 1.247 . S
C27 O25 1.258 . S
C28 O30 1.247 . S
C28 O32 1.258 1_556 S
C29 O36 1.247 . S
C29 O37 1.258 . S
O30 C28 1.247 . S
O30 Zn31 2.028 . S
Zn31 O30 2.028 . S
Zn31 O35 2.035 1_556 S
Zn31 O37 2.035 1_556 S
Zn31 O38 2.028 . S
O32 C28 1.258 1_554 S
O32 Zn33 2.035 . S
Zn33 O32 2.035 . S
Zn33 O34 2.028 . S
Zn33 O36 2.028 . S
Zn33 O39 2.035 . S
O34 Zn33 2.028 . S
O34 C40 1.247 . S
O35 Zn31 2.035 1_554 S
O35 C40 1.258 . S
O36 C29 1.247 . S
O36 Zn33 2.028 . S
O37 C29 1.258 . S
O37 Zn31 2.035 1_554 S
O38 Zn31 2.028 . S
O38 C41 1.247 . S
O39 Zn33 2.035 . S
O39 C41 1.258 1_554 S
C40 O34 1.247 . S
C40 O35 1.258 . S
C41 O38 1.247 . S
C41 O39 1.258 1_556 S
C42 O44 1.247 . S
C42 O46 1.258 . S
C43 O50 1.247 . S
C43 O51 1.258 . S
O44 C42 1.247 . S
O44 Zn45 2.028 . S
Zn45 O44 2.028 . S
Zn45 O49 2.035 1_455 S
Zn45 O51 2.035 1_455 S
Zn45 O52 2.028 . S
O46 C42 1.258 . S
O46 Zn47 2.035 1_455 S
Zn47 O46 2.035 1_655 S
Zn47 O48 2.028 . S
Zn47 O50 2.028 . S
Zn47 O53 2.035 1_655 S
O48 Zn47 2.028 . S
O48 C54 1.247 . S
O49 Zn45 2.035 1_655 S
O49 C54 1.258 . S
O50 C43 1.247 . S
O50 Zn47 2.028 . S
O51 C43 1.258 . S
O51 Zn45 2.035 1_655 S
O52 Zn45 2.028 . S
O52 C55 1.247 . S
O53 Zn47 2.035 1_455 S
O53 C55 1.258 . S
C54 O48 1.247 . S
C54 O49 1.258 . S
C55 O52 1.247 . S
C55 O53 1.258 . S
C56 O58 1.247 . S
C56 O60 1.258 1_554 S
C57 O64 1.247 . S
C57 O65 1.258 1_556 S
O58 C56 1.247 . S
O58 Zn59 2.028 1_565 S
Zn59 O58 2.028 1_545 S
Zn59 O63 2.035 . S
Zn59 O65 2.035 . S
Zn59 O66 2.028 1_545 S
O60 C56 1.258 1_556 S
O60 Zn61 2.035 . S
Zn61 O60 2.035 . S
Zn61 O62 2.028 1_565 S
Zn61 O64 2.028 1_565 S
Zn61 O67 2.044 . S
O62 Zn61 2.028 1_545 S
O62 C68 1.247 . S
O63 Zn59 2.035 . S
O63 C68 1.258 1_554 S
O64 C57 1.247 . S
O64 Zn61 2.028 1_545 S
O65 C57 1.258 1_554 S
O65 Zn59 2.035 . S
O66 Zn59 2.028 1_565 S
O66 C69 1.247 . S
O67 Zn61 2.044 . S
O67 C69 1.244 1_556 S
C68 O62 1.247 . S
C68 O63 1.258 1_556 S
C69 O66 1.247 . S
C69 O67 1.244 1_554 S
C70 O72 1.247 . S
C70 O74 1.258 . S
C71 O78 1.247 . S
C71 O79 1.258 . S
O72 C70 1.247 . S
O72 Zn73 2.028 . S
Zn73 O72 2.028 . S
Zn73 O77 2.035 . S
Zn73 O79 2.035 . S
Zn73 O80 2.028 . S
O74 C70 1.258 . S
O74 Zn75 2.035 . S
Zn75 O74 2.035 . S
Zn75 O76 2.028 . S
Zn75 O78 2.028 . S
Zn75 O81 2.035 . S
O76 Zn75 2.028 . S
O76 C82 1.247 . S
O77 Zn73 2.035 . S
O77 C82 1.258 . S
O78 C71 1.247 . S
O78 Zn75 2.028 . S
O79 C71 1.258 . S
O79 Zn73 2.035 . S
O80 Zn73 2.028 . S
O80 C83 1.247 . S
O81 Zn75 2.035 . S
O81 C83 1.258 . S
C82 O76 1.247 . S
C82 O77 1.258 . S
C83 O80 1.247 . S
C83 O81 1.258 . S
H84 C92 0.930 . S
H85 C95 0.930 . S
H86 C97 0.930 . S
H87 C98 0.970 . S
H88 C98 0.970 . S
H89 C100 0.930 . S
H90 C102 0.930 . S
H91 C104 0.930 . S
C92 H84 0.930 . S
C92 C93 1.382 . S
C92 C94 1.426 . S
C93 C92 1.382 . S
C93 C97 1.389 . S
C94 C92 1.426 . S
C94 C95 1.375 . S
C94 C98 1.532 . S
C95 H85 0.930 . S
C95 C94 1.375 . S
C95 C96 1.416 . S
C96 C95 1.416 . S
C96 C97 1.371 . S
C97 H86 0.930 . S
C97 C93 1.389 . S
C97 C96 1.371 . S
C98 H87 0.970 . S
C98 H88 0.970 . S
C98 C94 1.532 . S
C98 C99 1.499 . S
C99 C98 1.499 . S
C99 C100 1.370 . S
C99 C104 1.415 . S
C100 H89 0.930 . S
C100 C99 1.370 . S
C100 C101 1.407 . S
C101 C100 1.407 . S
C101 C102 1.365 . S
C102 H90 0.930 . S
C102 C101 1.365 . S
C102 C103 1.393 . S
C103 C102 1.393 . S
C103 C104 1.387 . S
C104 H91 0.930 . S
C104 C99 1.415 . S
C104 C103 1.387 . S
H105 C113 0.930 . S
H106 C116 0.930 . S
H107 C118 0.930 . S
H108 C119 0.970 . S
H109 C119 0.970 . S
H110 C121 0.930 . S
H111 C123 0.930 . S
H112 C125 0.930 . S
C113 H105 0.930 . S
C113 C114 1.382 . S
C113 C115 1.426 . S
C114 C113 1.382 . S
C114 C118 1.389 . S
C115 C113 1.426 . S
C115 C116 1.375 . S
C115 C119 1.532 . S
C116 H106 0.930 . S
C116 C115 1.375 . S
C116 C117 1.416 . S
C117 C116 1.416 . S
C117 C118 1.371 . S
C118 H107 0.930 . S
C118 C114 1.389 . S
C118 C117 1.371 . S
C119 H108 0.970 . S
C119 H109 0.970 . S
C119 C115 1.532 . S
C119 C120 1.499 . S
C120 C119 1.499 . S
C120 C121 1.370 . S
C120 C125 1.415 . S
C121 H110 0.930 . S
C121 C120 1.370 . S
C121 C122 1.407 . S
C122 C121 1.407 . S
C122 C123 1.365 . S
C123 H111 0.930 . S
C123 C122 1.365 . S
C123 C124 1.393 . S
C124 C123 1.393 . S
C124 C125 1.387 . S
C125 H112 0.930 . S
C125 C120 1.415 . S
C125 C124 1.387 . S
H126 C134 0.930 . S
H127 C137 0.930 . S
H128 C139 0.930 . S
H129 C140 0.970 . S
H130 C140 0.970 . S
H131 C142 0.930 . S
H132 C144 0.930 . S
H133 C146 0.930 . S
C134 H126 0.930 . S
C134 C135 1.382 . S
C134 C136 1.426 . S
C135 C134 1.382 . S
C135 C139 1.389 . S
C136 C134 1.426 . S
C136 C137 1.375 . S
C136 C140 1.532 . S
C137 H127 0.930 . S
C137 C136 1.375 . S
C137 C138 1.416 . S
C138 C137 1.416 . S
C138 C139 1.371 . S
C139 H128 0.930 . S
C139 C135 1.389 . S
C139 C138 1.371 . S
C140 H129 0.970 . S
C140 H130 0.970 . S
C140 C136 1.532 . S
C140 C141 1.499 . S
C141 C140 1.499 . S
C141 C142 1.370 . S
C141 C146 1.415 . S
C142 H131 0.930 . S
C142 C141 1.370 . S
C142 C143 1.407 . S
C143 C142 1.407 . S
C143 C144 1.365 . S
C144 H132 0.930 . S
C144 C143 1.365 . S
C144 C145 1.393 . S
C145 C144 1.393 . S
C145 C146 1.387 . S
C146 H133 0.930 . S
C146 C141 1.415 . S
C146 C145 1.387 . S
H147 C155 0.930 . S
H148 C158 0.930 . S
H149 C160 0.930 . S
H150 C161 0.970 . S
H151 C161 0.970 . S
H152 C163 0.930 . S
H153 C165 0.930 . S
H154 C167 0.930 . S
C155 H147 0.930 . S
C155 C156 1.382 . S
C155 C157 1.426 . S
C156 C155 1.382 . S
C156 C160 1.389 . S
C157 C155 1.426 . S
C157 C158 1.375 . S
C157 C161 1.532 . S
C158 H148 0.930 . S
C158 C157 1.375 . S
C158 C159 1.416 . S
C159 C158 1.416 . S
C159 C160 1.371 . S
C160 H149 0.930 . S
C160 C156 1.389 . S
C160 C159 1.371 . S
C161 H150 0.970 . S
C161 H151 0.970 . S
C161 C157 1.532 . S
C161 C162 1.499 . S
C162 C161 1.499 . S
C162 C163 1.370 . S
C162 C167 1.415 . S
C163 H152 0.930 . S
C163 C162 1.370 . S
C163 C164 1.407 . S
C164 C163 1.407 . S
C164 C165 1.365 . S
C165 H153 0.930 . S
C165 C164 1.365 . S
C165 C166 1.393 . S
C166 C165 1.393 . S
C166 C167 1.387 . S
C167 H154 0.930 . S
C167 C162 1.415 . S
C167 C166 1.387 . S
H168 C176 0.930 . S
H169 C179 0.930 . S
H170 C181 0.930 . S
H171 C182 0.970 . S
H172 C182 0.970 . S
H173 C184 0.930 . S
H174 C186 0.930 . S
H175 C188 0.930 . S
C176 H168 0.930 . S
C176 C177 1.382 . S
C176 C178 1.426 . S
C177 C176 1.382 . S
C177 C181 1.389 . S
C178 C176 1.426 . S
C178 C179 1.375 . S
C178 C182 1.532 . S
C179 H169 0.930 . S
C179 C178 1.375 . S
C179 C180 1.416 . S
C180 C179 1.416 . S
C180 C181 1.371 . S
C181 H170 0.930 . S
C181 C177 1.389 . S
C181 C180 1.371 . S
C182 H171 0.970 . S
C182 H172 0.970 . S
C182 C178 1.532 . S
C182 C183 1.499 . S
C183 C182 1.499 . S
C183 C184 1.370 . S
C183 C188 1.415 . S
C184 H173 0.930 . S
C184 C183 1.370 . S
C184 C185 1.407 . S
C185 C184 1.407 . S
C185 C186 1.365 . S
C186 H174 0.930 . S
C186 C185 1.365 . S
C186 C187 1.393 . S
C187 C186 1.393 . S
C187 C188 1.387 . S
C188 H175 0.930 . S
C188 C183 1.415 . S
C188 C187 1.387 . S
H189 C197 0.930 . S
H190 C200 0.930 . S
H191 C202 0.930 . S
H192 C203 0.970 . S
H193 C203 0.970 . S
H194 C205 0.930 . S
H195 C207 0.930 . S
H196 C209 0.930 . S
C197 H189 0.930 . S
C197 C198 1.382 . S
C197 C199 1.426 . S
C198 C197 1.382 . S
C198 C202 1.389 . S
C199 C197 1.426 . S
C199 C200 1.375 . S
C199 C203 1.532 . S
C200 H190 0.930 . S
C200 C199 1.375 . S
C200 C201 1.416 . S
C201 C200 1.416 . S
C201 C202 1.371 . S
C202 H191 0.930 . S
C202 C198 1.389 . S
C202 C201 1.371 . S
C203 H192 0.970 . S
C203 H193 0.970 . S
C203 C199 1.532 . S
C203 C204 1.499 . S
C204 C203 1.499 . S
C204 C205 1.370 . S
C204 C209 1.415 . S
C205 H194 0.930 . S
C205 C204 1.370 . S
C205 C206 1.407 . S
C206 C205 1.407 . S
C206 C207 1.365 . S
C207 H195 0.930 . S
C207 C206 1.365 . S
C207 C208 1.393 . S
C208 C207 1.393 . S
C208 C209 1.387 . S
C209 H196 0.930 . S
C209 C204 1.415 . S
C209 C208 1.387 . S
C210 C211 1.369 . S
C210 C212 1.419 . S
C210 H214 0.930 . S
C211 C210 1.369 . S
C211 C220 1.429 . S
C212 C210 1.419 . S
C212 C213 1.363 . S
C212 H215 0.929 . S
C213 C212 1.363 . S
C213 C219 1.428 . S
H214 C210 0.930 . S
H215 C212 0.929 . S
S216 N217 1.613 . S
S216 N218 1.610 . S
N217 S216 1.613 . S
N217 C220 1.350 . S
N218 S216 1.610 . S
N218 C219 1.351 . S
C219 C213 1.428 . S
C219 N218 1.351 . S
C219 C220 1.434 . S
C220 C211 1.429 . S
C220 N217 1.350 . S
C220 C219 1.434 . S
C221 C222 1.369 . S
C221 C223 1.419 . S
C221 H225 0.930 . S
C222 C221 1.369 . S
C222 C231 1.429 . S
C223 C221 1.419 . S
C223 C224 1.363 . S
C223 H226 0.929 . S
C224 C223 1.363 . S
C224 C230 1.428 . S
H225 C221 0.930 . S
H226 C223 0.929 . S
S227 N228 1.613 . S
S227 N229 1.610 . S
N228 S227 1.613 . S
N228 C231 1.350 . S
N229 S227 1.610 . S
N229 C230 1.351 . S
C230 C224 1.428 . S
C230 N229 1.351 . S
C230 C231 1.434 . S
C231 C222 1.429 . S
C231 N228 1.350 . S
C231 C230 1.434 . S
C232 C233 1.369 . S
C232 C234 1.419 . S
C232 H236 0.930 . S
C233 C232 1.369 . S
C233 C242 1.429 . S
C234 C232 1.419 . S
C234 C235 1.363 . S
C234 H237 0.929 . S
C235 C234 1.363 . S
C235 C241 1.428 . S
H236 C232 0.930 . S
H237 C234 0.929 . S
S238 N239 1.613 . S
S238 N240 1.610 . S
N239 S238 1.613 . S
N239 C242 1.350 . S
N240 S238 1.610 . S
N240 C241 1.351 . S
C241 C235 1.428 . S
C241 N240 1.351 . S
C241 C242 1.434 . S
C242 C233 1.429 . S
C242 N239 1.350 . S
C242 C241 1.434 . S
C243 C244 1.369 . S
C243 C245 1.419 . S
C243 H247 0.930 . S
C244 C243 1.369 . S
C244 C253 1.429 . S
C245 C243 1.419 . S
C245 C246 1.363 . S
C245 H248 0.929 . S
C246 C245 1.363 . S
C246 C252 1.428 . S
H247 C243 0.930 . S
H248 C245 0.929 . S
S249 N250 1.613 . S
S249 N251 1.610 . S
N250 S249 1.613 . S
N250 C253 1.350 . S
N251 S249 1.610 . S
N251 C252 1.351 . S
C252 C246 1.428 . S
C252 N251 1.351 . S
C252 C253 1.434 . S
C253 C244 1.429 . S
C253 N250 1.350 . S
C253 C252 1.434 . S
C254 C255 1.369 . S
C254 C256 1.419 . S
C254 H258 0.930 . S
C255 C254 1.369 . S
C255 C264 1.429 . S
C256 C254 1.419 . S
C256 C257 1.363 . S
C256 H259 0.929 . S
C257 C256 1.363 . S
C257 C263 1.428 . S
H258 C254 0.930 . S
H259 C256 0.929 . S
S260 N261 1.613 . S
S260 N262 1.610 . S
N261 S260 1.613 . S
N261 C264 1.350 . S
N262 S260 1.610 . S
N262 C263 1.351 . S
C263 C257 1.428 . S
C263 N262 1.351 . S
C263 C264 1.434 . S
C264 C255 1.429 . S
C264 N261 1.350 . S
C264 C263 1.434 . S
C265 C266 1.369 . S
C265 C267 1.419 . S
C265 H269 0.930 . S
C266 C265 1.369 . S
C266 C275 1.429 . S
C267 C265 1.419 . S
C267 C268 1.363 . S
C267 H270 0.929 . S
C268 C267 1.363 . S
C268 C274 1.428 . S
H269 C265 0.930 . S
H270 C267 0.929 . S
S271 N272 1.613 . S
S271 N273 1.610 . S
N272 S271 1.613 . S
N272 C275 1.350 . S
N273 S271 1.610 . S
N273 C274 1.351 . S
C274 C268 1.428 . S
C274 N273 1.351 . S
C274 C275 1.434 . S
C275 C266 1.429 . S
C275 N272 1.350 . S
C275 C274 1.434 . S
C276 C277 1.369 . S
C276 C278 1.419 . S
C276 H280 0.930 . S
C277 C276 1.369 . S
C277 C286 1.429 . S
C278 C276 1.419 . S
C278 C279 1.363 . S
C278 H281 0.929 . S
C279 C278 1.363 . S
C279 C285 1.428 . S
H280 C276 0.930 . S
H281 C278 0.929 . S
S282 N283 1.613 . S
S282 N284 1.610 . S
N283 S282 1.613 . S
N283 C286 1.350 . S
N284 S282 1.610 . S
N284 C285 1.351 . S
C285 C279 1.428 . S
C285 N284 1.351 . S
C285 C286 1.434 . S
C286 C277 1.429 . S
C286 N283 1.350 . S
C286 C285 1.434 . S
C287 C288 1.369 . S
C287 C289 1.419 . S
C287 H291 0.930 . S
C288 C287 1.369 . S
C288 C297 1.429 . S
C289 C287 1.419 . S
C289 C290 1.363 . S
C289 H292 0.929 . S
C290 C289 1.363 . S
C290 C296 1.428 . S
H291 C287 0.930 . S
H292 C289 0.929 . S
S293 N294 1.613 . S
S293 N295 1.610 . S
N294 S293 1.613 . S
N294 C297 1.350 . S
N295 S293 1.610 . S
N295 C296 1.351 . S
C296 C290 1.428 . S
C296 N295 1.351 . S
C296 C297 1.434 . S
C297 C288 1.429 . S
C297 N294 1.350 . S
C297 C296 1.434 . S
C298 C299 1.369 . S
C298 C300 1.419 . S
C298 H302 0.930 . S
C299 C298 1.369 . S
C299 C308 1.429 . S
C300 C298 1.419 . S
C300 C301 1.363 . S
C300 H303 0.929 . S
C301 C300 1.363 . S
C301 C307 1.428 . S
H302 C298 0.930 . S
H303 C300 0.929 . S
S304 N305 1.613 . S
S304 N306 1.610 . S
N305 S304 1.613 . S
N305 C308 1.350 . S
N306 S304 1.610 . S
N306 C307 1.351 . S
C307 C301 1.428 . S
C307 N306 1.351 . S
C307 C308 1.434 . S
C308 C299 1.429 . S
C308 N305 1.350 . S
C308 C307 1.434 . S
C309 C310 1.369 . S
C309 C311 1.419 . S
C309 H313 0.930 . S
C310 C309 1.369 . S
C310 C319 1.429 . S
C311 C309 1.419 . S
C311 C312 1.363 . S
C311 H314 0.929 . S
C312 C311 1.363 . S
C312 C318 1.428 . S
H313 C309 0.930 . S
H314 C311 0.929 . S
S315 N316 1.613 . S
S315 N317 1.610 . S
N316 S315 1.613 . S
N316 C319 1.350 . S
N317 S315 1.610 . S
N317 C318 1.351 . S
C318 C312 1.428 . S
C318 N317 1.351 . S
C318 C319 1.434 . S
C319 C310 1.429 . S
C319 N316 1.350 . S
C319 C318 1.434 . S
C320 C321 1.369 . S
C320 C322 1.419 . S
C320 H324 0.930 . S
C321 C320 1.369 . S
C321 C330 1.429 . S
C322 C320 1.419 . S
C322 C323 1.363 . S
C322 H325 0.929 . S
C323 C322 1.363 . S
C323 C329 1.428 . S
H324 C320 0.930 . S
H325 C322 0.929 . S
S326 N327 1.613 . S
S326 N328 1.610 . S
N327 S326 1.613 . S
N327 C330 1.350 . S
N328 S326 1.610 . S
N328 C329 1.351 . S
C329 C323 1.428 . S
C329 N328 1.351 . S
C329 C330 1.434 . S
C330 C321 1.429 . S
C330 N327 1.350 . S
C330 C329 1.434 . S
C331 C332 1.369 . S
C331 C333 1.419 . S
C331 H335 0.930 . S
C332 C331 1.369 . S
C332 C341 1.429 . S
C333 C331 1.419 . S
C333 C334 1.363 . S
C333 H336 0.929 . S
C334 C333 1.363 . S
C334 C340 1.428 . S
H335 C331 0.930 . S
H336 C333 0.929 . S
S337 N338 1.613 . S
S337 N339 1.610 . S
N338 S337 1.613 . S
N338 C341 1.350 . S
N339 S337 1.610 . S
N339 C340 1.351 . S
C340 C334 1.428 . S
C340 N339 1.351 . S
C340 C341 1.434 . S
C341 C332 1.429 . S
C341 N338 1.350 . S
C341 C340 1.434 . S
C342 C343 1.369 . S
C342 C344 1.419 . S
C342 H346 0.930 . S
C343 C342 1.369 . S
C343 C352 1.429 . S
C344 C342 1.419 . S
C344 C345 1.363 . S
C344 H347 0.929 . S
C345 C344 1.363 . S
C345 C351 1.428 . S
H346 C342 0.930 . S
H347 C344 0.929 . S
S348 N349 1.613 . S
S348 N350 1.610 . S
N349 S348 1.613 . S
N349 C352 1.350 . S
N350 S348 1.610 . S
N350 C351 1.351 . S
C351 C345 1.428 . S
C351 N350 1.351 . S
C351 C352 1.434 . S
C352 C343 1.429 . S
C352 N349 1.350 . S
C352 C351 1.434 . S
C353 C354 1.369 . S
C353 C355 1.419 . S
C353 H357 0.930 . S
C354 C353 1.369 . S
C354 C363 1.429 . S
C355 C353 1.419 . S
C355 C356 1.363 . S
C355 H358 0.929 . S
C356 C355 1.363 . S
C356 C362 1.428 . S
H357 C353 0.930 . S
H358 C355 0.929 . S
S359 N360 1.613 . S
S359 N361 1.610 . S
N360 S359 1.613 . S
N360 C363 1.350 . S
N361 S359 1.610 . S
N361 C362 1.351 . S
C362 C356 1.428 . S
C362 N361 1.351 . S
C362 C363 1.434 . S
C363 C354 1.429 . S
C363 N360 1.350 . S
C363 C362 1.434 . S
C364 C365 1.369 . S
C364 C366 1.419 . S
C364 H368 0.930 . S
C365 C364 1.369 . S
C365 C374 1.429 . S
C366 C364 1.419 . S
C366 C367 1.363 . S
C366 H369 0.929 . S
C367 C366 1.363 . S
C367 C373 1.428 . S
H368 C364 0.930 . S
H369 C366 0.929 . S
S370 N371 1.613 . S
S370 N372 1.610 . S
N371 S370 1.613 . S
N371 C374 1.350 . S
N372 S370 1.610 . S
N372 C373 1.351 . S
C373 C367 1.428 . S
C373 N372 1.351 . S
C373 C374 1.434 . S
C374 C365 1.429 . S
C374 N371 1.350 . S
C374 C373 1.434 . S
C375 C376 1.369 . S
C375 C377 1.419 . S
C375 H379 0.930 . S
C376 C375 1.369 . S
C376 C385 1.429 . S
C377 C375 1.419 . S
C377 C378 1.363 . S
C377 H380 0.929 . S
C378 C377 1.363 . S
C378 C384 1.428 . S
H379 C375 0.930 . S
H380 C377 0.929 . S
S381 N382 1.613 . S
S381 N383 1.610 . S
N382 S381 1.613 . S
N382 C385 1.350 . S
N383 S381 1.610 . S
N383 C384 1.351 . S
C384 C378 1.428 . S
C384 N383 1.351 . S
C384 C385 1.434 . S
C385 C376 1.429 . S
C385 N382 1.350 . S
C385 C384 1.434 . S
C386 C387 1.369 . S
C386 C388 1.419 . S
C386 H390 0.930 . S
C387 C386 1.369 . S
C387 C396 1.429 . S
C388 C386 1.419 . S
C388 C389 1.363 . S
C388 H391 0.929 . S
C389 C388 1.363 . S
C389 C395 1.428 . S
H390 C386 0.930 . S
H391 C388 0.929 . S
S392 N393 1.613 . S
S392 N394 1.610 1_554 S
N393 S392 1.613 . S
N393 C396 1.350 1_554 S
N394 S392 1.610 1_556 S
N394 C395 1.351 . S
C395 C389 1.428 . S
C395 N394 1.351 . S
C395 C396 1.434 . S
C396 C387 1.429 . S
C396 N393 1.350 1_556 S
C396 C395 1.434 . S
C397 C398 1.369 . S
C397 C399 1.419 . S
C397 H401 0.930 . S
C398 C397 1.369 . S
C398 C407 1.429 . S
C399 C397 1.419 . S
C399 C400 1.363 . S
C399 H402 0.929 . S
C400 C399 1.363 . S
C400 C406 1.428 . S
H401 C397 0.930 . S
H402 C399 0.929 . S
S403 N404 1.613 . S
S403 N405 1.610 . S
N404 S403 1.613 . S
N404 C407 1.350 . S
N405 S403 1.610 . S
N405 C406 1.351 . S
C406 C400 1.428 . S
C406 N405 1.351 . S
C406 C407 1.434 . S
C407 C398 1.429 . S
C407 N404 1.350 . S
C407 C406 1.434 . S
C408 C409 1.369 . S
C408 C410 1.419 . S
C408 H412 0.930 . S
C409 C408 1.369 . S
C409 C418 1.429 . S
C410 C408 1.419 . S
C410 C411 1.363 . S
C410 H413 0.929 . S
C411 C410 1.363 . S
C411 C417 1.428 . S
H412 C408 0.930 . S
H413 C410 0.929 . S
S414 N415 1.613 . S
S414 N416 1.610 . S
N415 S414 1.613 . S
N415 C418 1.350 . S
N416 S414 1.610 . S
N416 C417 1.351 . S
C417 C411 1.428 . S
C417 N416 1.351 . S
C417 C418 1.434 . S
C418 C409 1.429 . S
C418 N415 1.350 . S
C418 C417 1.434 . S
C419 C420 1.369 . S
C419 C421 1.419 . S
C419 H423 0.930 . S
C420 C419 1.369 . S
C420 C429 1.429 . S
C421 C419 1.419 . S
C421 C422 1.363 . S
C421 H424 0.929 . S
C422 C421 1.363 . S
C422 C428 1.428 . S
H423 C419 0.930 . S
H424 C421 0.929 . S
S425 N426 1.613 . S
S425 N427 1.610 . S
N426 S425 1.613 . S
N426 C429 1.350 . S
N427 S425 1.610 . S
N427 C428 1.351 . S
C428 C422 1.428 . S
C428 N427 1.351 . S
C428 C429 1.434 . S
C429 C420 1.429 . S
C429 N426 1.350 . S
C429 C428 1.434 . S
C430 C431 1.369 . S
C430 C432 1.419 . S
C430 H434 0.930 . S
C431 C430 1.369 . S
C431 C440 1.429 . S
C432 C430 1.419 . S
C432 C433 1.363 . S
C432 H435 0.929 . S
C433 C432 1.363 . S
C433 C439 1.428 . S
H434 C430 0.930 . S
H435 C432 0.929 . S
S436 N437 1.613 . S
S436 N438 1.610 . S
N437 S436 1.613 . S
N437 C440 1.350 . S
N438 S436 1.610 . S
N438 C439 1.351 . S
C439 C433 1.428 . S
C439 N438 1.351 . S
C439 C440 1.434 . S
C440 C431 1.429 . S
C440 N437 1.350 . S
C440 C439 1.434 . S
C441 C442 1.369 . S
C441 C443 1.419 . S
C441 H445 0.930 . S
C442 C441 1.369 . S
C442 C451 1.429 . S
C443 C441 1.419 . S
C443 C444 1.363 . S
C443 H446 0.929 . S
C444 C443 1.363 . S
C444 C450 1.428 . S
H445 C441 0.930 . S
H446 C443 0.929 . S
S447 N448 1.613 . S
S447 N449 1.610 . S
N448 S447 1.613 . S
N448 C451 1.350 . S
N449 S447 1.610 . S
N449 C450 1.351 . S
C450 C444 1.428 . S
C450 N449 1.351 . S
C450 C451 1.434 . S
C451 C442 1.429 . S
C451 N448 1.350 . S
C451 C450 1.434 . S
C452 C453 1.369 . S
C452 C454 1.419 . S
C452 H456 0.930 . S
C453 C452 1.369 . S
C453 C462 1.429 . S
C454 C452 1.419 . S
C454 C455 1.363 . S
C454 H457 0.929 . S
C455 C454 1.363 . S
C455 C461 1.428 . S
H456 C452 0.930 . S
H457 C454 0.929 . S
S458 N459 1.613 . S
S458 N460 1.610 . S
N459 S458 1.613 . S
N459 C462 1.350 . S
N460 S458 1.610 . S
N460 C461 1.351 . S
C461 C455 1.428 . S
C461 N460 1.351 . S
C461 C462 1.434 . S
C462 C453 1.429 . S
C462 N459 1.350 . S
C462 C461 1.434 . S
C463 C464 1.369 . S
C463 C465 1.419 . S
C463 H467 0.930 . S
C464 C463 1.369 . S
C464 C473 1.429 . S
C465 C463 1.419 . S
C465 C466 1.363 . S
C465 H468 0.929 . S
C466 C465 1.363 . S
C466 C472 1.428 . S
H467 C463 0.930 . S
H468 C465 0.929 . S
S469 N470 1.613 . S
S469 N471 1.610 . S
N470 S469 1.613 . S
N470 C473 1.350 . S
N471 S469 1.610 . S
N471 C472 1.351 . S
C472 C466 1.428 . S
C472 N471 1.351 . S
C472 C473 1.434 . S
C473 C464 1.429 . S
C473 N470 1.350 . S
C473 C472 1.434 . S
C211 C13 1.580 . S
C213 C93 1.410 . S
C222 C27 1.617 . S
C224 C114 1.441 . S
C235 C135 1.407 . S
C233 C29 1.587 . S
C246 C164 1.555 . S
C244 C54 1.628 . S
C257 C177 1.412 . S
C255 C69 1.583 . S
C268 C201 1.541 . S
C266 C83 1.619 . S
C277 C15 1.573 . S
C279 C145 1.429 . S
C288 C41 1.623 . S
C290 C159 1.545 . S
C301 C187 1.424 . S
C299 C42 1.579 . S
C312 C206 1.549 . S
C310 C57 1.629 . S
C321 C71 1.581 . S
C323 C103 1.424 . S
C334 C124 1.458 . S
C332 C1 1.615 . S
C345 C166 1.543 . S
C343 C12 1.612 . S
C354 C26 1.659 . S
C356 C180 1.442 . S
C367 C198 1.557 . S
C365 C28 1.623 . S
C376 C55 1.664 . S
C378 C96 1.432 . S
C387 C68 1.626 . S
C389 C117 1.409 . S
C398 C82 1.660 . S
C400 C138 1.439 . S
C409 C14 1.610 . S
C411 C208 1.551 . S
C422 C101 1.457 . S
C420 C40 1.663 . S
C431 C43 1.626 . S
C433 C122 1.424 . S
C442 C56 1.668 . S
C444 C143 1.458 . S
C453 C70 1.621 . S
C455 C156 1.558 . S
C464 C0 1.660 . S
C466 C185 1.465 . S
