# Generated by pormake.
# Topology zzz, (3,6)-cn, num edge types: 1
# Building blocks:
#     Node 0, Type 0, BuildingBlock: BETDAH_clean_linker_0, # of connection points: 3
#     Node 1, Type 0, BuildingBlock: BETDAH_clean_linker_0, # of connection points: 3
#     Node 2, Type 0, BuildingBlock: BETDAH_clean_linker_0, # of connection points: 3
#     Node 3, Type 0, BuildingBlock: BETDAH_clean_linker_0, # of connection points: 3
#     Node 4, Type 0, BuildingBlock: BETDAH_clean_linker_0, # of connection points: 3
#     Node 5, Type 0, BuildingBlock: BETDAH_clean_linker_0, # of connection points: 3
#     Node 6, Type 0, BuildingBlock: BETDAH_clean_linker_0, # of connection points: 3
#     Node 7, Type 0, BuildingBlock: BETDAH_clean_linker_0, # of connection points: 3
#     Node 8, Type 1, BuildingBlock: INOVEN_clean_sbu_0, # of connection points: 6
#     Node 9, Type 1, BuildingBlock: INOVEN_clean_sbu_0, # of connection points: 6
#     Node 10, Type 1, BuildingBlock: INOVEN_clean_sbu_0, # of connection points: 6
#     Node 11, Type 1, BuildingBlock: INOVEN_clean_sbu_0, # of connection points: 6
#     Edge 12, Type (0, 1), BuildingBlock: CIFDUS_clean_linker_0, # of connection points: 2
#     Edge 13, Type (0, 1), BuildingBlock: CIFDUS_clean_linker_0, # of connection points: 2
#     Edge 14, Type (0, 1), BuildingBlock: CIFDUS_clean_linker_0, # of connection points: 2
#     Edge 15, Type (0, 1), BuildingBlock: CIFDUS_clean_linker_0, # of connection points: 2
#     Edge 16, Type (0, 1), BuildingBlock: CIFDUS_clean_linker_0, # of connection points: 2
#     Edge 17, Type (0, 1), BuildingBlock: CIFDUS_clean_linker_0, # of connection points: 2
#     Edge 18, Type (0, 1), BuildingBlock: CIFDUS_clean_linker_0, # of connection points: 2
#     Edge 19, Type (0, 1), BuildingBlock: CIFDUS_clean_linker_0, # of connection points: 2
#     Edge 20, Type (0, 1), BuildingBlock: CIFDUS_clean_linker_0, # of connection points: 2
#     Edge 21, Type (0, 1), BuildingBlock: CIFDUS_clean_linker_0, # of connection points: 2
#     Edge 22, Type (0, 1), BuildingBlock: CIFDUS_clean_linker_0, # of connection points: 2
#     Edge 23, Type (0, 1), BuildingBlock: CIFDUS_clean_linker_0, # of connection points: 2
#     Edge 24, Type (0, 1), BuildingBlock: CIFDUS_clean_linker_0, # of connection points: 2
#     Edge 25, Type (0, 1), BuildingBlock: CIFDUS_clean_linker_0, # of connection points: 2
#     Edge 26, Type (0, 1), BuildingBlock: CIFDUS_clean_linker_0, # of connection points: 2
#     Edge 27, Type (0, 1), BuildingBlock: CIFDUS_clean_linker_0, # of connection points: 2
#     Edge 28, Type (0, 1), BuildingBlock: CIFDUS_clean_linker_0, # of connection points: 2
#     Edge 29, Type (0, 1), BuildingBlock: CIFDUS_clean_linker_0, # of connection points: 2
#     Edge 30, Type (0, 1), BuildingBlock: CIFDUS_clean_linker_0, # of connection points: 2
#     Edge 31, Type (0, 1), BuildingBlock: CIFDUS_clean_linker_0, # of connection points: 2
#     Edge 32, Type (0, 1), BuildingBlock: CIFDUS_clean_linker_0, # of connection points: 2
#     Edge 33, Type (0, 1), BuildingBlock: CIFDUS_clean_linker_0, # of connection points: 2
#     Edge 34, Type (0, 1), BuildingBlock: CIFDUS_clean_linker_0, # of connection points: 2
#     Edge 35, Type (0, 1), BuildingBlock: CIFDUS_clean_linker_0, # of connection points: 2
# Relax obj value: 0.295
# Max RMSD: 0.195
# Mean RMSD: 0.161
data_MOF--net-zzz--node1-INOVEN_clean_sbu_0--node2-BETDAH_clean_linker_0--edge1-CIFDUS_clean_linker_0
_symmetry_space_group_name_H-M    P1
_symmetry_Int_Tables_number       1
_symmetry_cell_setting            triclinic
loop_
_symmetry_equiv_pos_as_xyz
'x, y, z'
_cell_length_a     45.515374
_cell_length_b     45.571842
_cell_length_c     11.836826
_cell_angle_alpha  89.986389
_cell_angle_beta   90.274787
_cell_angle_gamma 89.818873
loop_
_atom_site_label
_atom_site_type_symbol
_atom_site_fract_x
_atom_site_fract_y
_atom_site_fract_z
_atom_type_partial_charge
H0 H 0.82084 0.47389 0.49666 0.0
H1 H 0.73738 0.48453 0.33169 0.0
H2 H 0.7684 0.55005 0.56796 0.0
C3 C 0.80035 0.48592 0.48704 0.0
C4 C 0.79719 0.51266 0.5432 0.0
C5 C 0.77898 0.47575 0.41086 0.0
C6 C 0.75336 0.49225 0.39281 0.0
C7 C 0.74892 0.51893 0.45052 0.0
C8 C 0.77108 0.5291 0.52602 0.0
N9 N 0.72309 0.53628 0.43064 0.0
C10 C 0.70266 0.53106 0.34358 0.0
H11 H 0.99456 0.83005 0.3846 0.0
H12 H 1.00493 0.73944 0.30697 0.0
H13 H 0.02576 0.77097 0.6429 0.0
C14 C 0.99915 0.80802 0.41467 0.0
C15 C 1.0092 0.80391 0.52573 0.0
C16 C 0.99721 0.78485 0.3373 0.0
C17 C 1.00555 0.7567 0.36958 0.0
C18 C 1.01555 0.75117 0.48013 0.0
C19 C 1.01761 0.77499 0.55819 0.0
N20 N 0.0242 0.72211 0.51247 0.0
C21 C 0.02385 0.69788 0.43882 0.0
H22 H 0.72595 1.00318 0.30493 0.0
H23 H 0.81749 1.01397 0.24732 0.0
H24 H 0.78131 0.0333 0.57689 0.0
C25 C 0.74752 1.00765 0.33985 0.0
C26 C 0.75009 1.01683 0.45265 0.0
C27 C 0.77177 1.0061 0.26738 0.0
C28 C 0.79931 1.01456 0.30594 0.0
C29 C 0.80315 0.02452 0.4174 0.0
C30 C 0.77842 0.02557 0.49107 0.0
N31 N 0.83148 0.03415 0.45452 0.0
C32 C 0.85578 0.03602 0.38208 0.0
H33 H 0.48284 0.72702 0.41954 0.0
H34 H 0.48726 0.80827 0.23728 0.0
H35 H 0.55998 0.78024 0.44791 0.0
C36 C 0.49406 0.74751 0.40228 0.0
C37 C 0.52244 0.75135 0.44467 0.0
C38 C 0.48134 0.76763 0.3269 0.0
C39 C 0.49683 0.7931 0.29766 0.0
C40 C 0.52495 0.79837 0.34446 0.0
C41 C 0.53785 0.77705 0.41626 0.0
N42 N 0.54114 0.82423 0.31838 0.0
C43 C 0.53366 0.84429 0.2336 0.0
H44 H 0.23043 0.51297 0.25043 0.0
H45 H 0.3231 0.51769 0.29062 0.0
H46 H 0.28403 0.53042 0.95931 0.0
C47 C 0.25175 0.5148 0.2107 0.0
C48 C 0.25343 0.51997 0.09417 0.0
C49 C 0.27673 0.51324 0.27987 0.0
C50 C 0.30426 0.51852 0.2346 0.0
C51 C 0.30734 0.52522 0.11911 0.0
C52 C 0.28177 0.52561 0.04841 0.0
N53 N 0.33578 0.53201 0.07489 0.0
C54 C 0.36046 0.53617 0.14496 0.0
H55 H 0.98451 0.23098 0.18797 0.0
H56 H 0.99753 0.31602 0.33502 0.0
H57 H 0.05826 0.28286 0.08556 0.0
C58 C 0.99638 0.2516 0.19012 0.0
C59 C 0.02181 0.2543 0.12536 0.0
C60 C 0.98776 0.27353 0.26651 0.0
C61 C 1.00406 0.29947 0.27438 0.0
C62 C 0.02918 0.30347 0.20705 0.0
C63 C 0.03832 0.28045 0.13423 0.0
N64 N 0.04606 0.32982 0.2138 0.0
C65 C 0.03971 0.3536 0.28493 0.0
H66 H 0.31674 0.98711 0.06322 0.0
H67 H 0.23567 1.00181 0.23848 0.0
H68 H 0.27689 0.0724 0.05446 0.0
C69 C 0.29815 1.00125 0.08175 0.0
C70 C 0.29942 0.03056 0.04788 0.0
C71 C 0.27556 0.99078 0.15124 0.0
C72 C 0.25265 1.00974 0.18252 0.0
C73 C 0.25243 0.03911 0.14498 0.0
C74 C 0.27623 0.04953 0.07928 0.0
N75 N 0.22924 0.05883 0.17474 0.0
C76 C 0.20744 0.05338 0.25535 0.0
H77 H 0.56851 0.33265 0.09309 0.0
H78 H 0.55786 0.24726 0.24099 0.0
H79 H 0.49851 0.27738 0.97885 0.0
C80 C 0.55768 0.31145 0.09412 0.0
C81 C 0.53311 0.30741 0.02523 0.0
C82 C 0.56662 0.29015 0.17267 0.0
C83 C 0.55131 0.26347 0.17879 0.0
C84 C 0.52715 0.2583 0.10607 0.0
C85 C 0.51781 0.28069 0.03122 0.0
N86 N 0.51123 0.2314 0.10803 0.0
C87 C 0.51697 0.20773 0.17996 0.0
Gd88 Gd 0.04223 0.02742 0.87064 0.0
Gd89 Gd 1.00193 0.03865 0.69317 0.0
C90 C 1.01768 0.97269 0.71606 0.0
C91 C 0.06503 1.00115 0.04075 0.0
C92 C 0.05632 0.97097 0.06802 0.0
C93 C 0.07757 0.94909 0.08344 0.0
C94 C 0.02706 0.96279 0.04763 0.0
C95 C 0.04091 0.91128 0.04262 0.0
C96 C 1.01971 0.9336 0.03054 0.0
C97 C 0.06982 0.91951 0.07347 0.0
C98 C 0.07109 0.04239 0.67961 0.0
C99 C 0.02563 0.09443 0.84556 0.0
C100 C 0.97213 0.05972 0.52574 0.0
C101 C 0.95457 0.08643 0.51134 0.0
C102 C 0.94297 0.1013 0.60519 0.0
C103 C 0.95155 0.09854 0.40366 0.0
C104 C 0.92712 0.14129 0.48339 0.0
C105 C 0.93768 0.12559 0.38946 0.0
C106 C 0.92942 0.12866 0.59134 0.0
C107 C 0.97455 0.02314 0.88788 0.0
O108 O 0.02654 0.98137 0.81706 0.0
O109 O 1.01092 0.99253 0.63975 0.0
O110 O 0.07888 1.00352 0.94478 0.0
O111 O 0.04446 1.02103 0.05234 0.0
O112 O 0.078 0.0514 0.78029 0.0
O113 O 0.0489 0.02557 0.6839 0.0
O114 O 1.01088 0.08507 0.75595 0.0
O115 O 0.03977 0.07565 0.91108 0.0
O116 O 0.96166 0.04032 0.59576 0.0
O117 O 1.00038 0.06387 0.53813 0.0
O118 O 0.96778 1.01301 0.78921 0.0
O119 O 0.99559 0.04099 0.87936 0.0
H120 H 0.10033 0.95489 0.09826 0.0
H121 H 1.01013 0.97918 0.03387 0.0
H122 H 0.99744 0.92908 1.00401 0.0
H123 H 0.08678 0.90331 0.08883 0.0
H124 H 0.94552 0.09235 0.68951 0.0
H125 H 0.96105 0.08763 0.33111 0.0
H126 H 0.9371 0.13512 0.30561 0.0
H127 H 0.92195 0.14051 0.6652 0.0
Gd128 Gd 0.52819 0.04595 0.80768 0.0
Gd129 Gd 0.51147 1.00945 0.59691 0.0
C130 C 0.58 1.0203 0.6371 0.0
C131 C 0.55688 0.06002 0.98342 0.0
C132 C 0.58455 0.04451 1.00648 0.0
C133 C 0.6101 0.06009 0.03281 0.0
C134 C 0.58682 1.01493 0.97336 0.0
C135 C 0.63977 1.01713 0.98512 0.0
C136 C 0.61404 1.00151 0.96161 0.0
C137 C 0.63752 0.04641 0.02338 0.0
C138 C 0.50977 0.07822 0.63048 0.0
C139 C 0.46018 0.03081 0.77585 0.0
C140 C 0.48842 0.99171 0.41093 0.0
C141 C 0.463 0.97217 0.39937 0.0
C142 C 0.4516 0.95869 0.4964 0.0
C143 C 0.44764 0.97008 0.2971 0.0
C144 C 0.4075 0.9452 0.39363 0.0
C145 C 0.42005 0.95658 0.29409 0.0
C146 C 0.4242 0.94516 0.49348 0.0
C147 C 0.51731 0.97281 0.77951 0.0
O148 O 0.57278 0.03138 0.73679 0.0
O149 O 0.55976 1.01273 0.5622 0.0
O150 O 0.55758 0.07631 0.8922 0.0
O151 O 0.53318 0.04379 0.98981 0.0
O152 O 0.50425 0.08443 0.73548 0.0
O153 O 0.52616 0.05565 0.62351 0.0
O154 O 0.46732 0.02125 0.67364 0.0
O155 O 0.48031 0.03959 0.84954 0.0
O156 O 0.51209 0.97964 0.45442 0.0
O157 O 0.48223 1.01736 0.45547 0.0
O158 O 0.51152 0.96392 0.67831 0.0
O159 O 0.52044 1.00013 0.77485 0.0
H160 H 0.60893 0.08306 0.05599 0.0
H161 H 0.56764 1.00263 0.94806 0.0
H162 H 0.6149 0.97911 0.93125 0.0
H163 H 0.65692 0.05883 0.04581 0.0
H164 H 0.46289 0.96036 0.57662 0.0
H165 H 0.45603 0.9805 0.2216 0.0
H166 H 0.40754 0.95739 0.21607 0.0
H167 H 0.41514 0.93663 0.57129 0.0
Gd168 Gd 0.50983 0.53478 0.84034 0.0
Gd169 Gd 0.55608 0.52501 0.63484 0.0
C170 C 0.53516 0.59112 0.69776 0.0
C171 C 0.48486 0.55 0.02575 0.0
C172 C 0.46443 0.57456 0.04457 0.0
C173 C 0.45043 0.58776 0.95144 0.0
C174 C 0.46321 0.58832 0.15018 0.0
C175 C 0.439 0.63067 0.06444 0.0
C176 C 0.45037 0.61613 0.16033 0.0
C177 C 0.43779 0.61556 0.96127 0.0
C178 C 0.48179 0.53482 0.63402 0.0
C179 C 0.53088 0.4687 0.7776 0.0
C180 C 0.57968 0.50923 0.44762 0.0
C181 C 0.59857 0.48378 0.42468 0.0
C182 C 0.60972 0.46709 0.51516 0.0
C183 C 0.60171 0.47341 0.31421 0.0
C184 C 0.62377 0.42823 0.38561 0.0
C185 C 0.61451 0.44599 0.29461 0.0
C186 C 0.62215 0.43948 0.49584 0.0
C187 C 0.58442 0.52573 0.84048 0.0
O188 O 0.52219 0.58095 0.79012 0.0
O189 O 0.54763 0.57379 0.62132 0.0
O190 O 0.47501 0.52851 0.96235 0.0
O191 O 0.51155 0.55819 0.99903 0.0
O192 O 0.46875 0.53798 0.73015 0.0
O193 O 0.50879 0.5315 0.65521 0.0
O194 O 0.54429 0.4788 0.6862 0.0
O195 O 0.51812 0.486 0.8533 0.0
O196 O 0.59103 0.52969 0.51239 0.0
O197 O 0.5527 0.50236 0.47521 0.0
O198 O 0.59737 0.52254 0.74399 0.0
O199 O 0.55726 0.52844 0.82017 0.0
H200 H 0.45128 0.57769 0.86884 0.0
H201 H 0.47416 0.57865 0.2227 0.0
H202 H 0.45196 0.62735 0.24079 0.0
H203 H 0.42916 0.6262 0.88619 0.0
H204 H 0.60711 0.47458 0.60138 0.0
H205 H 0.59258 0.48558 0.24375 0.0
H206 H 0.61489 0.43773 0.20883 0.0
H207 H 0.62897 0.42626 0.56744 0.0
Gd208 Gd 1.01444 0.51156 0.93175 0.0
Gd209 Gd 0.03115 0.54848 0.75476 0.0
C210 C 0.96343 0.5346 0.75291 0.0
C211 C 0.98887 0.48408 0.09454 0.0
C212 C 0.96205 0.46645 0.09479 0.0
C213 C 0.94869 0.45836 0.99226 0.0
C214 C 0.94838 0.45973 0.19684 0.0
C215 C 0.90621 0.44026 0.09392 0.0
C216 C 0.92073 0.4466 0.19658 0.0
C217 C 0.92093 0.44537 0.99177 0.0
C218 C 0.03429 0.48003 0.75289 0.0
C219 C 0.08182 0.52398 0.9226 0.0
C220 C 0.06108 0.56867 0.59021 0.0
C221 C 0.08903 0.55467 0.56021 0.0
C222 C 0.11407 0.57151 0.54002 0.0
C223 C 0.09207 0.52436 0.57897 0.0
C224 C 0.14505 0.52814 0.56822 0.0
C225 C 0.11966 0.51142 0.58588 0.0
C226 C 0.14184 0.55827 0.54193 0.0
C227 C 1.01272 0.5801 0.93638 0.0
O228 O 0.96935 0.52171 0.85088 0.0
O229 O 0.98485 0.54594 0.69304 0.0
O230 O 1.01065 0.47302 0.03734 0.0
O231 O 0.98498 0.51208 0.07513 0.0
O232 O 0.04112 0.47492 0.85696 0.0
O233 O 1.01709 0.50186 0.74688 0.0
O234 O 0.07511 0.5304 0.81723 0.0
O235 O 0.06038 0.52007 0.99552 0.0
O236 O 0.0613 0.58113 0.68954 0.0
O237 O 0.03775 0.55252 0.57387 0.0
O238 O 1.00575 0.58573 0.83222 0.0
O239 O 0.02927 0.55772 0.94061 0.0
H240 H 0.95911 0.46333 0.91245 0.0
H241 H 0.95835 0.46604 0.27644 0.0
H242 H 0.90983 0.4436 0.27687 0.0
H243 H 0.91033 0.4408 0.91159 0.0
H244 H 0.11224 0.59497 0.52686 0.0
H245 H 0.07313 0.51086 0.59662 0.0
H246 H 0.12088 0.48841 0.60799 0.0
H247 H 0.16069 0.5718 0.52332 0.0
H248 H 0.15138 0.03241 0.24067 0.0
H249 H 0.21397 0.07161 0.46885 0.0
H250 H 0.17715 0.07254 0.61882 0.0
H251 H 0.12715 0.06276 0.68529 0.0
H252 H 0.06412 0.02236 0.46176 0.0
H253 H 0.10075 0.02152 0.31001 0.0
C254 C 0.15688 0.04093 0.32363 0.0
C255 C 0.1854 0.05182 0.34424 0.0
C256 C 0.13541 0.04139 0.40997 0.0
C257 C 0.19226 0.06298 0.45147 0.0
C258 C 0.17115 0.0636 0.53708 0.0
C259 C 0.12131 0.05383 0.60332 0.0
C260 C 0.09277 0.04273 0.58512 0.0
C261 C 0.14263 0.05302 0.51729 0.0
C262 C 0.08582 0.03111 0.47824 0.0
C263 C 0.10684 0.03057 0.39146 0.0
H264 H 0.47917 0.18999 0.33823 0.0
H265 H 0.56095 0.16746 0.17874 0.0
H266 H 0.56497 0.12314 0.29642 0.0
H267 H 0.54577 0.09168 0.45152 0.0
H268 H 0.46464 0.11608 0.61338 0.0
H269 H 0.45946 0.15824 0.48761 0.0
C270 C 0.49787 0.17534 0.32973 0.0
C271 C 0.51988 0.18193 0.25128 0.0
C272 C 0.49996 0.15003 0.39763 0.0
C273 C 0.54391 0.16282 0.23972 0.0
C274 C 0.54612 0.13745 0.30664 0.0
C275 C 0.52673 0.10595 0.45745 0.0
C276 C 0.50546 0.10065 0.54111 0.0
C277 C 0.52431 0.13084 0.38647 0.0
C278 C 0.4812 0.11964 0.54937 0.0
C279 C 0.4783 0.14387 0.4779 0.0
H280 H 0.4177 0.51663 0.15894 0.0
H281 H 0.35155 0.56711 0.33238 0.0
H282 H 0.38421 0.5727 0.49512 0.0
H283 H 0.42979 0.5605 0.59411 0.0
H284 H 0.49725 0.51072 0.4264 0.0
H285 H 0.46634 0.5079 0.25542 0.0
C286 C 0.41069 0.52908 0.2321 0.0
C287 C 0.38213 0.54133 0.23421 0.0
C288 C 0.42981 0.53222 0.32649 0.0
C289 C 0.37334 0.55748 0.32901 0.0
C290 C 0.392 0.56063 0.42223 0.0
C291 C 0.43795 0.54923 0.51979 0.0
C292 C 0.46582 0.5357 0.52352 0.0
C293 C 0.42002 0.54767 0.4228 0.0
C294 C 0.47605 0.52146 0.42595 0.0
C295 C 0.45819 0.51966 0.32843 0.0
H296 H 0.07582 0.37404 0.44708 0.0
H297 H 0.99228 0.38984 0.28599 0.0
H298 H 0.98366 0.43215 0.41045 0.0
H299 H 0.99951 0.46408 0.57077 0.0
H300 H 0.08249 0.44625 0.73433 0.0
H301 H 0.09201 0.40613 0.60276 0.0
C302 C 0.05578 0.38686 0.43924 0.0
C303 C 0.03465 0.37885 0.35816 0.0
C304 C 0.05102 0.41111 0.51117 0.0
C305 C 1.00881 0.39559 0.34829 0.0
C306 C 1.00395 0.41986 0.41916 0.0
C307 C 1.01981 0.45163 0.57626 0.0
C308 C 0.04032 0.4582 0.66229 0.0
C309 C 0.02485 0.42783 0.50152 0.0
C310 C 0.06635 0.4416 0.66921 0.0
C311 C 0.07179 0.41856 0.59411 0.0
H312 H 0.87997 0.99187 0.26086 0.0
H313 H 0.88399 0.08513 0.31609 0.0
H314 H 0.92222 0.08953 0.17143 0.0
H315 H 0.9549 0.06675 0.02862 0.0
H316 H 0.94799 0.97402 0.96385 0.0
H317 H 0.91167 0.96925 0.11482 0.0
C318 C 0.88959 1.01306 0.24214 0.0
C319 C 0.87955 0.03811 0.30003 0.0
C320 C 0.91154 1.0154 0.15845 0.0
C321 C 0.89166 0.06551 0.27354 0.0
C322 C 0.91354 0.06801 0.19092 0.0
C323 C 0.94568 0.04548 0.04881 0.0
C324 C 0.95442 1.02066 0.98616 0.0
C325 C 0.92387 0.0431 0.13324 0.0
C326 C 0.94175 0.99337 0.01136 0.0
C327 C 0.92091 0.99066 0.09752 0.0
H328 H 0.52818 0.90356 0.24473 0.0
H329 H 0.52848 0.83028 0.01477 0.0
H330 H 0.52346 0.86378 0.85395 0.0
H331 H 0.52028 0.91378 0.77829 0.0
H332 H 0.51859 0.98759 1.00542 0.0
H333 H 0.52297 0.9543 0.16774 0.0
C334 C 0.52691 0.89507 0.15924 0.0
C335 C 0.52862 0.86457 0.14084 0.0
C336 C 0.5241 0.91459 0.06697 0.0
C337 C 0.52709 0.85368 0.03035 0.0
C338 C 0.52431 0.87283 0.93856 0.0
C339 C 0.52093 0.92263 0.86334 0.0
C340 C 0.51985 0.95322 0.87959 0.0
C341 C 0.52305 0.9033 0.95574 0.0
C342 C 0.52028 0.96424 0.9904 0.0
C343 C 0.52253 0.94514 0.08325 0.0
H344 H 0.64419 0.54477 0.32428 0.0
H345 H 0.71742 0.50707 0.14529 0.0
H346 H 0.68674 0.50094 0.97684 0.0
H347 H 0.64004 0.50809 0.87726 0.0
H348 H 0.56595 0.5456 0.05074 0.0
H349 H 0.59577 0.55018 0.2238 0.0
C350 C 0.65328 0.53511 0.24832 0.0
C351 C 0.68311 0.52637 0.24695 0.0
C352 C 0.63537 0.53182 0.15065 0.0
C353 C 0.6946 0.51387 0.14839 0.0
C354 C 0.67705 0.51043 0.05195 0.0
C355 C 0.63024 0.51711 0.9531 0.0
C356 C 0.6007 0.5266 0.95052 0.0
C357 C 0.64753 0.51957 0.05168 0.0
C358 C 0.58849 0.53807 0.05001 0.0
C359 C 0.60568 0.54083 0.14888 0.0
H360 H 0.99065 0.69086 0.25028 0.0
H361 H 0.05726 0.64868 0.45307 0.0
H362 H 0.05887 0.60735 0.32006 0.0
H363 H 0.04251 0.58394 0.14012 0.0
H364 H 0.97673 0.62754 0.93667 0.0
H365 H 0.97362 0.66721 0.07457 0.0
C366 C 1.00553 0.67263 0.26522 0.0
C367 C 0.02396 0.67291 0.36102 0.0
C368 C 1.0065 0.64907 0.1876 0.0
C369 C 0.04293 0.64901 0.3797 0.0
C370 C 0.04385 0.62536 0.3035 0.0
C371 C 0.02732 0.60199 0.12663 0.0
C372 C 1.00988 0.60266 0.02754 0.0
C373 C 0.0259 0.6252 0.20633 0.0
C374 C 0.99046 0.62639 0.01157 0.0
C375 C 0.98868 0.64919 0.09054 0.0
H376 H 0.93208 0.25526 0.22835 0.0
H377 H 0.99448 0.27259 0.49427 0.0
H378 H 0.97206 0.23493 0.6116 0.0
H379 H 0.94817 0.1869 0.60428 0.0
H380 H 0.89028 0.16601 0.32669 0.0
H381 H 0.89672 0.21521 0.24933 0.0
C382 C 0.93958 0.25184 0.31454 0.0
C383 C 0.96543 0.2657 0.35143 0.0
C384 C 0.92798 0.22864 0.37773 0.0
C385 C 0.97485 0.26176 0.46356 0.0
C386 C 0.96234 0.23981 0.52992 0.0
C387 C 0.93573 0.19363 0.53023 0.0
C388 C 0.91963 0.17269 0.46877 0.0
C389 C 0.94087 0.22136 0.48312 0.0
C390 C 0.90339 0.18169 0.37357 0.0
C391 C 0.90725 0.20974 0.32896 0.0
H392 H 0.28055 0.98311 0.37564 0.0
H393 H 0.28537 0.93605 0.06147 0.0
H394 H 0.32819 0.90893 0.12946 0.0
H395 H 0.37323 0.91446 0.245 0.0
H396 H 0.3695 0.96524 0.55215 0.0
H397 H 0.31754 0.97453 0.52215 0.0
C398 C 0.28977 0.96551 0.32504 0.0
C399 C 0.28131 0.96286 0.21137 0.0
C400 C 0.31565 0.95167 0.36196 0.0
C401 C 0.29238 0.93915 0.14825 0.0
C402 C 0.31739 0.92416 0.18612 0.0
C403 C 0.36069 0.92652 0.30749 0.0
C404 C 0.37538 0.94004 0.39818 0.0
C405 C 0.33087 0.93271 0.28763 0.0
C406 C 0.35884 0.95491 0.48057 0.0
C407 C 0.32905 0.96048 0.46304 0.0
H408 H 0.62163 0.3103 0.13776 0.0
H409 H 0.55875 0.29315 0.39975 0.0
H410 H 0.57844 0.33362 0.51148 0.0
H411 H 0.6009 0.38238 0.50053 0.0
H412 H 0.65853 0.40316 0.22385 0.0
H413 H 0.65373 0.35317 0.1517 0.0
C414 C 0.61345 0.31448 0.22224 0.0
C415 C 0.58824 0.29954 0.25912 0.0
C416 C 0.6231 0.33944 0.28078 0.0
C417 C 0.57793 0.30462 0.369 0.0
C418 C 0.58878 0.32825 0.43176 0.0
C419 C 0.61348 0.3756 0.42736 0.0
C420 C 0.62949 0.39657 0.36587 0.0
C421 C 0.60944 0.34728 0.38352 0.0
C422 C 0.6456 0.3875 0.27109 0.0
C423 C 0.6428 0.35894 0.22979 0.0
H424 H 0.25377 0.46636 0.38342 0.0
H425 H 0.28823 0.55236 0.44849 0.0
H426 H 0.2501 0.56115 0.58891 0.0
H427 H 0.19808 0.5521 0.62739 0.0
H428 H 0.15885 0.47117 0.51052 0.0
H429 H 0.20659 0.45245 0.46031 0.0
C430 C 0.25381 0.48626 0.43389 0.0
C431 C 0.27227 0.50935 0.40207 0.0
C432 C 0.22952 0.4926 0.50144 0.0
C433 C 0.27337 0.53466 0.4694 0.0
C434 C 0.25105 0.53996 0.54749 0.0
C435 C 0.19994 0.53024 0.59209 0.0
C436 C 0.1745 0.51384 0.56819 0.0
C437 C 0.22729 0.52047 0.55337 0.0
C438 C 0.17768 0.48481 0.52882 0.0
C439 C 0.20518 0.47397 0.49898 0.0
H440 H 0.03595 0.78163 0.16748 0.0
H441 H 0.94704 0.80679 0.24299 0.0
H442 H 0.95124 0.84943 0.12031 0.0
H443 H 0.98588 0.88672 0.06545 0.0
H444 H 0.07591 0.86319 0.99006 0.0
H445 H 0.06564 0.81265 0.04157 0.0
C446 C 1.01693 0.79541 0.15076 0.0
C447 C 0.99185 0.79242 0.21823 0.0
C448 C 1.02037 0.82105 0.08698 0.0
C449 C 0.96687 0.80944 0.19374 0.0
C450 C 0.96956 0.83423 0.12579 0.0
C451 C 1.00331 0.87083 0.05473 0.0
C452 C 0.03242 0.87969 0.03278 0.0
C453 C 0.99723 0.84173 0.08315 0.0
C454 C 0.05387 0.85773 0.01637 0.0
C455 C 0.04792 0.82857 0.04379 0.0
H456 H 0.74762 0.95771 0.17612 0.0
H457 H 0.78249 0.04223 0.08917 0.0
H458 H 0.74427 0.04879 0.94644 0.0
H459 H 0.69177 0.03988 0.91422 0.0
H460 H 0.65281 0.9604 0.04299 0.0
H461 H 0.70082 0.94209 0.09742 0.0
C462 C 0.74773 0.97668 0.1206 0.0
C463 C 0.76627 1.00023 0.14676 0.0
C464 C 0.72365 0.98177 0.0496 0.0
C465 C 0.76752 0.02426 0.07275 0.0
C466 C 0.7452 0.02831 0.99293 0.0
C467 C 0.69396 1.01826 0.95178 0.0
C468 C 0.66869 1.00227 0.97998 0.0
C469 C 0.72141 1.00883 0.99138 0.0
C470 C 0.6718 0.9736 0.02268 0.0
C471 C 0.69935 0.96309 0.05468 0.0
H472 H 0.47771 0.75827 0.10309 0.0
H473 H 0.42777 0.75175 0.40971 0.0
H474 H 0.40312 0.70799 0.33841 0.0
H475 H 0.40928 0.66398 0.21879 0.0
H476 H 0.46148 0.66993 0.91676 0.0
H477 H 0.4713 0.7214 0.95454 0.0
C478 C 0.46007 0.74836 0.1511 0.0
C479 C 0.45535 0.75733 0.26298 0.0
C480 C 0.44729 0.72226 0.11199 0.0
C481 C 0.43208 0.74476 0.32386 0.0
C482 C 0.41847 0.71932 0.28408 0.0
C483 C 0.42183 0.67692 0.15924 0.0
C484 C 0.4353 0.66302 0.06696 0.0
C485 C 0.428 0.70649 0.18298 0.0
C486 C 0.45105 0.68006 0.98896 0.0
C487 C 0.4569 0.70953 0.01099 0.0
H488 H 0.78214 0.47791 0.18445 0.0
H489 H 0.79653 0.42025 0.46761 0.0
H490 H 0.83585 0.39526 0.36611 0.0
H491 H 0.87594 0.40317 0.23141 0.0
H492 H 0.86422 0.46534 0.96023 0.0
H493 H 0.8139 0.47429 0.01859 0.0
C494 C 0.79271 0.45872 0.22101 0.0
C495 C 0.78746 0.45157 0.33447 0.0
C496 C 0.8166 0.4459 0.1651 0.0
C497 C 0.8008 0.42642 0.38083 0.0
C498 C 0.82362 0.41247 0.32344 0.0
C499 C 0.86191 0.41776 0.18258 0.0
C500 C 0.87414 0.43461 0.09526 0.0
C501 C 0.83346 0.42404 0.22065 0.0
C502 C 0.85557 0.45259 0.0296 0.0
C503 C 0.82677 0.45799 0.06377 0.0
H504 H 0.99279 0.22684 0.95426 0.0
H505 H 0.07123 0.22103 0.15764 0.0
H506 H 0.0801 0.17101 0.08836 0.0
H507 H 0.0626 0.12687 0.98345 0.0
H508 H 0.98479 0.13429 0.77536 0.0
H509 H 0.97874 0.18527 0.83225 0.0
C510 C 1.01232 0.21492 0.98066 0.0
C511 C 0.03151 0.22785 0.06014 0.0
C512 C 1.01708 0.18606 0.94117 0.0
C513 C 0.05645 0.2119 0.09493 0.0
C514 C 0.06127 0.18309 0.05644 0.0
C515 C 0.04446 0.13971 0.94996 0.0
C516 C 0.02401 0.12635 0.87591 0.0
C517 C 0.04127 0.16957 0.9819 0.0
C518 C 1.00087 0.14366 0.8325 0.0
C519 C 0.99733 0.17297 0.86517 0.0
H520 H 0.32438 1.00886 0.85726 0.0
H521 H 0.33799 0.07277 0.11989 0.0
H522 H 0.38915 0.07903 0.05966 0.0
H523 H 0.43162 0.06255 0.94248 0.0
H524 H 0.41651 0.99878 0.6789 0.0
H525 H 0.36485 0.99614 0.72979 0.0
C526 C 0.33833 0.02479 0.89926 0.0
C527 C 0.32719 0.04053 0.99237 0.0
C528 C 0.36785 0.02779 0.86549 0.0
C529 C 0.34572 0.0608 0.04671 0.0
C530 C 0.37517 0.06401 0.01327 0.0
C531 C 0.41699 0.04817 0.89595 0.0
C532 C 0.42831 0.03068 0.80738 0.0
C533 C 0.38678 0.04699 0.92469 0.0
C534 C 0.40874 1.01249 0.74737 0.0
C535 C 0.37903 1.01093 0.77634 0.0
H536 H 0.56089 0.33466 0.85305 0.0
H537 H 0.48347 0.33946 0.05969 0.0
H538 H 0.47492 0.39019 0.99828 0.0
H539 H 0.49333 0.43517 0.90447 0.0
H540 H 0.57052 0.4294 0.69503 0.0
H541 H 0.57524 0.37733 0.73831 0.0
C542 C 0.54154 0.34651 0.88109 0.0
C543 C 0.52263 0.33327 0.95972 0.0
C544 C 0.53716 0.37582 0.84712 0.0
C545 C 0.49796 0.34899 0.99735 0.0
C546 C 0.49338 0.37817 0.96367 0.0
C547 C 0.51103 0.42245 0.86769 0.0
C548 C 0.53178 0.43643 0.79795 0.0
C549 C 0.51347 0.39218 0.89185 0.0
C550 C 0.5543 0.41941 0.74943 0.0
C551 C 0.55706 0.38953 0.77418 0.0
H552 H 0.20484 0.48565 0.12638 0.0
H553 H 0.23625 0.55536 0.9123 0.0
H554 H 0.18645 0.56142 0.83397 0.0
H555 H 0.13244 0.54988 0.83999 0.0
H556 H 0.10201 0.48566 0.08016 0.0
H557 H 0.15256 0.47547 0.13753 0.0
C558 C 0.20105 0.50258 0.06359 0.0
C559 C 0.2247 0.52053 0.02828 0.0
C560 C 0.17209 0.50731 0.02487 0.0
C561 C 0.21893 0.54115 0.94215 0.0
C562 C 0.19021 0.54487 0.89815 0.0
C563 C 0.13693 0.53369 0.90502 0.0
C564 C 0.11319 0.51867 0.9563 0.0
C565 C 0.16638 0.52863 0.94116 0.0
C566 C 0.11957 0.49779 0.04023 0.0
C567 C 0.14858 0.49181 0.07263 0.0
H568 H 0.97138 0.8503 0.54024 0.0
H569 H 0.05397 0.81956 0.67562 0.0
H570 H 0.06297 0.86838 0.75748 0.0
H571 H 0.04984 0.92219 0.76996 0.0
H572 H 0.97012 0.95199 0.60738 0.0
H573 H 0.95808 0.90182 0.55475 0.0
C574 C 0.99147 0.85407 0.58761 0.0
C575 C 1.01219 0.83102 0.5991 0.0
C576 C 0.99733 0.88257 0.62789 0.0
C577 C 0.0375 0.83653 0.66473 0.0
C578 C 0.04284 0.86471 0.71041 0.0
C579 C 0.0298 0.91757 0.72357 0.0
C580 C 1.01102 0.94111 0.69174 0.0
C581 C 0.02338 0.88829 0.68924 0.0
C582 C 0.98515 0.93459 0.63169 0.0
C583 C 0.97815 0.90578 0.6019 0.0
H584 H 0.70326 0.97927 0.44828 0.0
H585 H 0.73303 0.058 0.61466 0.0
H586 H 0.68389 0.06472 0.69639 0.0
H587 H 0.63024 0.05111 0.70208 0.0
H588 H 0.60134 0.97599 0.50979 0.0
H589 H 0.65172 0.9658 0.45394 0.0
C590 C 0.69921 0.99821 0.50147 0.0
C591 C 0.72215 1.01848 0.52206 0.0
C592 C 0.6705 1.00296 0.54197 0.0
C593 C 0.7162 0.04195 0.59618 0.0
C594 C 0.68782 0.04602 0.64193 0.0
C595 C 0.63505 0.03247 0.64827 0.0
C596 C 0.61167 1.01451 0.60932 0.0
C597 C 0.66445 0.02718 0.61247 0.0
C598 C 0.61853 0.99045 0.53988 0.0
C599 C 0.64749 0.98448 0.50818 0.0
H600 H 0.50333 0.72518 0.63585 0.0
H601 H 0.57007 0.71904 0.38049 0.0
H602 H 0.58142 0.66868 0.43996 0.0
H603 H 0.56739 0.62415 0.54792 0.0
H604 H 0.49994 0.63123 0.80219 0.0
H605 H 0.49392 0.68314 0.75957 0.0
C606 C 0.52109 0.71313 0.59608 0.0
C607 C 0.53599 0.7259 0.5045 0.0
C608 C 0.52684 0.68396 0.62859 0.0
C609 C 0.55866 0.70993 0.45248 0.0
C610 C 0.56478 0.68092 0.48528 0.0
C611 C 0.55158 0.6371 0.59481 0.0
C612 C 0.53392 0.62345 0.67725 0.0
C613 C 0.5482 0.6673 0.57036 0.0
C614 C 0.51381 0.64084 0.738 0.0
C615 C 0.51028 0.67065 0.71379 0.0
H616 H 0.84605 0.5381 0.46009 0.0
H617 H 0.80812 0.50764 0.77063 0.0
H618 H 0.85595 0.51246 0.86617 0.0
H619 H 0.91028 0.52041 0.85533 0.0
H620 H 0.94698 0.55076 0.54051 0.0
H621 H 0.89855 0.55045 0.45369 0.0
C622 C 0.84808 0.53345 0.54969 0.0
C623 C 0.82329 0.5233 0.60877 0.0
C624 C 0.87587 0.53537 0.60289 0.0
C625 C 0.82656 0.51632 0.72391 0.0
C626 C 0.85411 0.51856 0.778 0.0
C627 C 0.90766 0.52719 0.76806 0.0
C628 C 0.93272 0.53544 0.70509 0.0
C629 C 0.87922 0.52726 0.71757 0.0
C630 C 0.9285 0.54424 0.59195 0.0
C631 C 0.90063 0.54411 0.54164 0.0
loop_
_geom_bond_atom_site_label_1
_geom_bond_atom_site_label_2
_geom_bond_distance
_geom_bond_site_symmetry_2
_ccdc_geom_bond_type
H0 C3 0.929 . S
H1 C6 0.929 . S
H2 C8 0.930 . S
C3 H0 0.929 . S
C3 C4 1.398 . S
C3 C5 1.396 . S
C4 C3 1.398 . S
C4 C8 1.407 . S
C5 C3 1.396 . S
C5 C6 1.394 . S
C6 H1 0.929 . S
C6 C5 1.394 . S
C6 C7 1.382 . S
C7 C6 1.382 . S
C7 C8 1.392 . S
C7 N9 1.420 . S
C8 H2 0.930 . S
C8 C4 1.407 . S
C8 C7 1.392 . S
N9 C7 1.420 . S
N9 C10 1.244 . S
C10 N9 1.244 . S
H11 C14 0.929 . S
H12 C17 0.929 . S
H13 C19 0.930 . S
C14 H11 0.929 . S
C14 C15 1.395 1_655 S
C14 C16 1.394 1_655 S
C15 C14 1.395 1_455 S
C15 C19 1.414 . S
C16 C14 1.394 1_455 S
C16 C17 1.397 . S
C17 H12 0.929 . S
C17 C16 1.397 . S
C17 C18 1.382 . S
C18 C17 1.382 . S
C18 C19 1.392 . S
C18 N20 1.420 . S
C19 H13 0.930 . S
C19 C15 1.414 . S
C19 C18 1.392 . S
N20 C18 1.420 . S
N20 C21 1.232 1_455 S
C21 N20 1.232 1_655 S
H22 C25 0.929 . S
H23 C28 0.929 . S
H24 C30 0.930 . S
C25 H22 0.929 . S
C25 C26 1.395 1_565 S
C25 C27 1.394 1_565 S
C26 C25 1.395 1_545 S
C26 C30 1.414 . S
C27 C25 1.394 1_545 S
C27 C28 1.397 . S
C28 H23 0.929 . S
C28 C27 1.397 . S
C28 C29 1.382 . S
C29 C28 1.382 . S
C29 C30 1.392 . S
C29 N31 1.420 . S
C30 H24 0.930 . S
C30 C26 1.414 . S
C30 C29 1.392 . S
N31 C29 1.420 . S
N31 C32 1.232 1_545 S
C32 N31 1.232 1_565 S
H33 C36 0.929 . S
H34 C39 0.929 . S
H35 C41 0.930 . S
C36 H33 0.929 . S
C36 C37 1.398 . S
C36 C38 1.396 . S
C37 C36 1.398 . S
C37 C41 1.407 . S
C38 C36 1.396 . S
C38 C39 1.394 . S
C39 H34 0.929 . S
C39 C38 1.394 . S
C39 C40 1.382 . S
C40 C39 1.382 . S
C40 C41 1.392 . S
C40 N42 1.420 . S
C41 H35 0.930 . S
C41 C37 1.407 . S
C41 C40 1.392 . S
N42 C40 1.420 . S
N42 C43 1.244 . S
C43 N42 1.244 . S
H44 C47 0.929 . S
H45 C50 0.929 . S
H46 C52 0.930 . S
C47 H44 0.929 . S
C47 C48 1.398 . S
C47 C49 1.396 1_556 S
C48 C47 1.398 . S
C48 C52 1.407 . S
C49 C47 1.396 1_554 S
C49 C50 1.394 . S
C50 H45 0.929 . S
C50 C49 1.394 . S
C50 C51 1.382 . S
C51 C50 1.382 . S
C51 C52 1.392 1_554 S
C51 N53 1.420 . S
C52 H46 0.930 . S
C52 C48 1.407 . S
C52 C51 1.392 1_556 S
N53 C51 1.420 . S
N53 C54 1.244 . S
C54 N53 1.244 . S
H55 C58 0.929 . S
H56 C61 0.929 . S
H57 C63 0.930 . S
C58 H55 0.929 . S
C58 C59 1.394 1_655 S
C58 C60 1.394 1_656 S
C59 C58 1.394 1_455 S
C59 C63 1.416 . S
C60 C58 1.394 1_454 S
C60 C61 1.398 . S
C61 H56 0.929 . S
C61 C60 1.398 . S
C61 C62 1.382 . S
C62 C61 1.382 . S
C62 C63 1.392 1_554 S
C62 N64 1.420 . S
C63 H57 0.930 . S
C63 C59 1.416 . S
C63 C62 1.392 1_556 S
N64 C62 1.420 . S
N64 C65 1.236 1_455 S
C65 N64 1.236 1_655 S
H66 C69 0.929 . S
H67 C72 0.929 . S
H68 C74 0.930 . S
C69 H66 0.929 . S
C69 C70 1.394 1_565 S
C69 C71 1.394 1_566 S
C70 C69 1.394 1_545 S
C70 C74 1.416 . S
C71 C69 1.394 1_544 S
C71 C72 1.398 . S
C72 H67 0.929 . S
C72 C71 1.398 . S
C72 C73 1.382 . S
C73 C72 1.382 . S
C73 C74 1.392 1_554 S
C73 N75 1.420 . S
C74 H68 0.930 . S
C74 C70 1.416 . S
C74 C73 1.392 1_556 S
N75 C73 1.420 . S
N75 C76 1.236 1_545 S
C76 N75 1.236 1_565 S
H77 C80 0.929 . S
H78 C83 0.929 . S
H79 C85 0.930 . S
C80 H77 0.929 . S
C80 C81 1.398 . S
C80 C82 1.396 1_556 S
C81 C80 1.398 . S
C81 C85 1.407 . S
C82 C80 1.396 1_554 S
C82 C83 1.394 . S
C83 H78 0.929 . S
C83 C82 1.394 . S
C83 C84 1.382 . S
C84 C83 1.382 . S
C84 C85 1.392 1_554 S
C84 N86 1.420 . S
C85 H79 0.930 . S
C85 C81 1.407 . S
C85 C84 1.392 1_556 S
N86 C84 1.420 . S
N86 C87 1.244 . S
C87 N86 1.244 . S
Gd88 C91 2.818 1_556 S
Gd88 O108 2.377 . S
Gd88 O110 2.448 . S
Gd88 O111 2.506 1_556 S
Gd88 O112 2.435 . S
Gd88 O113 2.717 1_565 S
Gd88 O115 2.395 1_565 S
Gd88 O119 2.327 1_455 S
Gd89 C100 2.818 . S
Gd89 O109 2.395 1_545 S
Gd89 O113 2.327 1_655 S
Gd89 O114 2.377 . S
Gd89 O116 2.448 . S
Gd89 O117 2.506 . S
Gd89 O118 2.435 . S
Gd89 O119 2.717 1_545 S
C90 O108 1.240 1_655 S
C90 O109 1.240 . S
C91 Gd88 2.818 1_554 S
C91 C92 1.510 . S
C91 O110 1.249 1_554 S
C91 O111 1.252 . S
C92 C91 1.510 . S
C92 C93 1.404 . S
C92 C94 1.352 . S
C93 C92 1.404 . S
C93 C97 1.389 . S
C93 H120 0.930 . S
C94 C92 1.352 . S
C94 C96 1.374 . S
C94 H121 0.931 1_455 S
C95 C96 1.359 . S
C95 C97 1.364 . S
C96 C94 1.374 . S
C96 C95 1.359 . S
C96 H122 0.931 1_455 S
C97 C93 1.389 . S
C97 C95 1.364 . S
C97 H123 0.931 . S
C98 O112 1.256 . S
C98 O113 1.257 1_565 S
C99 O114 1.240 1_455 S
C99 O115 1.240 . S
C100 Gd89 2.818 . S
C100 C101 1.510 . S
C100 O116 1.249 . S
C100 O117 1.252 . S
C101 C100 1.510 . S
C101 C102 1.404 . S
C101 C103 1.352 . S
C102 C101 1.404 . S
C102 C106 1.389 . S
C102 H124 0.930 . S
C103 C101 1.352 . S
C103 C105 1.374 . S
C103 H125 0.931 1_655 S
C104 C105 1.359 . S
C104 C106 1.364 . S
C105 C103 1.374 . S
C105 C104 1.359 . S
C105 H126 0.931 1_655 S
C106 C102 1.389 . S
C106 C104 1.364 . S
C106 H127 0.931 . S
C107 O118 1.256 . S
C107 O119 1.257 1_545 S
O108 Gd88 2.377 . S
O108 C90 1.240 1_455 S
O109 Gd89 2.395 1_565 S
O109 C90 1.240 . S
O110 Gd88 2.448 . S
O110 C91 1.249 1_556 S
O111 Gd88 2.506 1_554 S
O111 C91 1.252 . S
O112 Gd88 2.435 . S
O112 C98 1.256 . S
O113 Gd88 2.717 1_545 S
O113 Gd89 2.327 1_455 S
O113 C98 1.257 1_545 S
O114 Gd89 2.377 . S
O114 C99 1.240 1_655 S
O115 Gd88 2.395 1_545 S
O115 C99 1.240 . S
O116 Gd89 2.448 . S
O116 C100 1.249 . S
O117 Gd89 2.506 . S
O117 C100 1.252 . S
O118 Gd89 2.435 . S
O118 C107 1.256 . S
O119 Gd88 2.327 1_655 S
O119 Gd89 2.717 1_565 S
O119 C107 1.257 1_565 S
H120 C93 0.930 . S
H121 C94 0.931 1_655 S
H122 C96 0.931 1_655 S
H123 C97 0.931 . S
H124 C102 0.930 . S
H125 C103 0.931 1_455 S
H126 C105 0.931 1_455 S
H127 C106 0.931 . S
Gd128 C131 2.818 1_556 S
Gd128 O148 2.377 . S
Gd128 O150 2.448 . S
Gd128 O151 2.505 1_556 S
Gd128 O152 2.435 . S
Gd128 O153 2.717 . S
Gd128 O155 2.395 . S
Gd128 O159 2.327 1_545 S
Gd129 C140 2.818 . S
Gd129 O149 2.395 . S
Gd129 O153 2.327 1_565 S
Gd129 O154 2.377 . S
Gd129 O156 2.448 . S
Gd129 O157 2.506 . S
Gd129 O158 2.435 . S
Gd129 O159 2.717 . S
C130 O148 1.240 1_565 S
C130 O149 1.240 . S
C131 Gd128 2.818 1_554 S
C131 C132 1.510 . S
C131 O150 1.249 1_554 S
C131 O151 1.252 . S
C132 C131 1.510 . S
C132 C133 1.404 . S
C132 C134 1.352 . S
C133 C132 1.404 . S
C133 C137 1.389 . S
C133 H160 0.930 . S
C134 C132 1.352 . S
C134 C136 1.374 . S
C134 H161 0.931 1_545 S
C135 C136 1.359 . S
C135 C137 1.364 . S
C136 C134 1.374 . S
C136 C135 1.359 . S
C136 H162 0.931 1_545 S
C137 C133 1.389 . S
C137 C135 1.364 . S
C137 H163 0.931 . S
C138 O152 1.256 . S
C138 O153 1.257 . S
C139 O154 1.240 1_545 S
C139 O155 1.240 . S
C140 Gd129 2.818 . S
C140 C141 1.510 . S
C140 O156 1.249 . S
C140 O157 1.252 . S
C141 C140 1.510 . S
C141 C142 1.404 . S
C141 C143 1.352 . S
C142 C141 1.404 . S
C142 C146 1.389 . S
C142 H164 0.930 . S
C143 C141 1.352 . S
C143 C145 1.374 . S
C143 H165 0.931 1_565 S
C144 C145 1.359 . S
C144 C146 1.364 . S
C145 C143 1.374 . S
C145 C144 1.359 . S
C145 H166 0.931 1_565 S
C146 C142 1.389 . S
C146 C144 1.364 . S
C146 H167 0.931 . S
C147 O158 1.256 . S
C147 O159 1.257 . S
O148 Gd128 2.377 . S
O148 C130 1.240 1_545 S
O149 Gd129 2.395 . S
O149 C130 1.240 . S
O150 Gd128 2.448 . S
O150 C131 1.249 1_556 S
O151 Gd128 2.505 1_554 S
O151 C131 1.252 . S
O152 Gd128 2.435 . S
O152 C138 1.256 . S
O153 Gd128 2.717 . S
O153 Gd129 2.327 1_545 S
O153 C138 1.257 . S
O154 Gd129 2.377 . S
O154 C139 1.240 1_565 S
O155 Gd128 2.395 . S
O155 C139 1.240 . S
O156 Gd129 2.448 . S
O156 C140 1.249 . S
O157 Gd129 2.506 . S
O157 C140 1.252 . S
O158 Gd129 2.435 . S
O158 C147 1.256 . S
O159 Gd128 2.327 1_565 S
O159 Gd129 2.717 . S
O159 C147 1.257 . S
H160 C133 0.930 . S
H161 C134 0.931 1_565 S
H162 C136 0.931 1_565 S
H163 C137 0.931 . S
H164 C142 0.930 . S
H165 C143 0.931 1_545 S
H166 C145 0.931 1_545 S
H167 C146 0.931 . S
Gd168 C171 2.818 1_556 S
Gd168 O188 2.377 . S
Gd168 O190 2.448 . S
Gd168 O191 2.504 1_556 S
Gd168 O192 2.435 . S
Gd168 O193 2.717 . S
Gd168 O195 2.395 . S
Gd168 O199 2.327 . S
Gd169 C180 2.818 . S
Gd169 O189 2.395 . S
Gd169 O193 2.327 . S
Gd169 O194 2.377 . S
Gd169 O196 2.448 . S
Gd169 O197 2.506 . S
Gd169 O198 2.435 . S
Gd169 O199 2.717 . S
C170 O188 1.240 . S
C170 O189 1.240 . S
C171 Gd168 2.818 1_554 S
C171 C172 1.510 . S
C171 O190 1.249 1_554 S
C171 O191 1.252 . S
C172 C171 1.510 . S
C172 C173 1.404 . S
C172 C174 1.352 . S
C173 C172 1.404 . S
C173 C177 1.389 . S
C173 H200 0.930 . S
C174 C172 1.352 . S
C174 C176 1.374 . S
C174 H201 0.931 . S
C175 C176 1.359 . S
C175 C177 1.364 . S
C176 C174 1.374 . S
C176 C175 1.359 . S
C176 H202 0.931 . S
C177 C173 1.389 . S
C177 C175 1.364 . S
C177 H203 0.931 . S
C178 O192 1.256 . S
C178 O193 1.257 . S
C179 O194 1.240 . S
C179 O195 1.240 . S
C180 Gd169 2.818 . S
C180 C181 1.510 . S
C180 O196 1.249 . S
C180 O197 1.252 . S
C181 C180 1.510 . S
C181 C182 1.404 . S
C181 C183 1.352 . S
C182 C181 1.404 . S
C182 C186 1.389 . S
C182 H204 0.930 . S
C183 C181 1.352 . S
C183 C185 1.374 . S
C183 H205 0.931 . S
C184 C185 1.359 . S
C184 C186 1.364 . S
C185 C183 1.374 . S
C185 C184 1.359 . S
C185 H206 0.931 . S
C186 C182 1.389 . S
C186 C184 1.364 . S
C186 H207 0.931 . S
C187 O198 1.256 . S
C187 O199 1.257 . S
O188 Gd168 2.377 . S
O188 C170 1.240 . S
O189 Gd169 2.395 . S
O189 C170 1.240 . S
O190 Gd168 2.448 . S
O190 C171 1.249 1_556 S
O191 Gd168 2.504 1_554 S
O191 C171 1.252 . S
O192 Gd168 2.435 . S
O192 C178 1.256 . S
O193 Gd168 2.717 . S
O193 Gd169 2.327 . S
O193 C178 1.257 . S
O194 Gd169 2.377 . S
O194 C179 1.240 . S
O195 Gd168 2.395 . S
O195 C179 1.240 . S
O196 Gd169 2.448 . S
O196 C180 1.249 . S
O197 Gd169 2.506 . S
O197 C180 1.252 . S
O198 Gd169 2.435 . S
O198 C187 1.256 . S
O199 Gd168 2.327 . S
O199 Gd169 2.717 . S
O199 C187 1.257 . S
H200 C173 0.930 . S
H201 C174 0.931 . S
H202 C176 0.931 . S
H203 C177 0.931 . S
H204 C182 0.930 . S
H205 C183 0.931 . S
H206 C185 0.931 . S
H207 C186 0.931 . S
Gd208 C211 2.818 1_556 S
Gd208 O228 2.377 . S
Gd208 O230 2.448 . S
Gd208 O231 2.505 1_556 S
Gd208 O232 2.435 . S
Gd208 O233 2.717 1_655 S
Gd208 O235 2.395 1_655 S
Gd208 O239 2.327 . S
Gd209 C220 2.818 . S
Gd209 O229 2.395 1_455 S
Gd209 O233 2.327 . S
Gd209 O234 2.377 . S
Gd209 O236 2.448 . S
Gd209 O237 2.506 . S
Gd209 O238 2.435 . S
Gd209 O239 2.717 1_455 S
C210 O228 1.240 . S
C210 O229 1.240 . S
C211 Gd208 2.818 1_554 S
C211 C212 1.510 . S
C211 O230 1.249 1_554 S
C211 O231 1.252 . S
C212 C211 1.510 . S
C212 C213 1.404 . S
C212 C214 1.352 . S
C213 C212 1.404 . S
C213 C217 1.389 . S
C213 H240 0.930 . S
C214 C212 1.352 . S
C214 C216 1.374 . S
C214 H241 0.931 . S
C215 C216 1.359 . S
C215 C217 1.364 . S
C216 C214 1.374 . S
C216 C215 1.359 . S
C216 H242 0.931 . S
C217 C213 1.389 . S
C217 C215 1.364 . S
C217 H243 0.931 . S
C218 O232 1.276 . S
C218 O233 1.247 1_655 S
C219 O234 1.240 . S
C219 O235 1.240 . S
C220 Gd209 2.818 . S
C220 C221 1.510 . S
C220 O236 1.249 . S
C220 O237 1.252 . S
C221 C220 1.510 . S
C221 C222 1.404 . S
C221 C223 1.352 . S
C222 C221 1.404 . S
C222 C226 1.389 . S
C222 H244 0.930 . S
C223 C221 1.352 . S
C223 C225 1.374 . S
C223 H245 0.931 . S
C224 C225 1.359 . S
C224 C226 1.364 . S
C225 C223 1.374 . S
C225 C224 1.359 . S
C225 H246 0.931 . S
C226 C222 1.389 . S
C226 C224 1.364 . S
C226 H247 0.931 . S
C227 O238 1.256 . S
C227 O239 1.257 1_455 S
O228 Gd208 2.377 . S
O228 C210 1.240 . S
O229 Gd209 2.395 1_655 S
O229 C210 1.240 . S
O230 Gd208 2.448 . S
O230 C211 1.249 1_556 S
O231 Gd208 2.505 1_554 S
O231 C211 1.252 . S
O232 Gd208 2.435 . S
O232 C218 1.276 . S
O233 Gd208 2.717 1_455 S
O233 Gd209 2.327 . S
O233 C218 1.247 1_455 S
O234 Gd209 2.377 . S
O234 C219 1.240 . S
O235 Gd208 2.395 1_455 S
O235 C219 1.240 . S
O236 Gd209 2.448 . S
O236 C220 1.249 . S
O237 Gd209 2.506 . S
O237 C220 1.252 . S
O238 Gd209 2.435 . S
O238 C227 1.256 . S
O239 Gd208 2.327 . S
O239 Gd209 2.717 1_655 S
O239 C227 1.257 1_655 S
H240 C213 0.930 . S
H241 C214 0.931 . S
H242 C216 0.931 . S
H243 C217 0.931 . S
H244 C222 0.930 . S
H245 C223 0.931 . S
H246 C225 0.931 . S
H247 C226 0.931 . S
H248 C254 0.930 . S
H249 C257 0.930 . S
H250 C258 0.930 . S
H251 C259 0.930 . S
H252 C262 0.930 . S
H253 C263 0.930 . S
C254 H248 0.930 . S
C254 C255 1.355 1_565 S
C254 C256 1.415 . S
C255 C254 1.355 1_545 S
C255 C257 1.419 . S
C256 C254 1.415 . S
C256 C261 1.425 1_565 S
C256 C263 1.409 . S
C257 H249 0.930 . S
C257 C255 1.419 . S
C257 C258 1.362 . S
C258 H250 0.930 . S
C258 C257 1.362 . S
C258 C261 1.409 . S
C259 H251 0.930 . S
C259 C260 1.355 1_545 S
C259 C261 1.415 . S
C260 C259 1.355 1_565 S
C260 C262 1.419 . S
C261 C256 1.425 1_545 S
C261 C258 1.409 . S
C261 C259 1.415 . S
C262 H252 0.930 . S
C262 C260 1.419 . S
C262 C263 1.362 . S
C263 H253 0.930 . S
C263 C256 1.409 . S
C263 C262 1.362 . S
H264 C270 0.930 . S
H265 C273 0.930 . S
H266 C274 0.930 . S
H267 C275 0.930 . S
H268 C278 0.930 . S
H269 C279 0.930 . S
C270 H264 0.930 . S
C270 C271 1.355 . S
C270 C272 1.415 . S
C271 C270 1.355 . S
C271 C273 1.419 . S
C272 C270 1.415 . S
C272 C277 1.425 . S
C272 C279 1.409 . S
C273 H265 0.930 . S
C273 C271 1.419 . S
C273 C274 1.362 . S
C274 H266 0.930 . S
C274 C273 1.362 . S
C274 C277 1.409 . S
C275 H267 0.930 . S
C275 C276 1.355 . S
C275 C277 1.415 . S
C276 C275 1.355 . S
C276 C278 1.419 . S
C277 C272 1.425 . S
C277 C274 1.409 . S
C277 C275 1.415 . S
C278 H268 0.930 . S
C278 C276 1.419 . S
C278 C279 1.362 . S
C279 H269 0.930 . S
C279 C272 1.409 . S
C279 C278 1.362 . S
H280 C286 0.930 . S
H281 C289 0.930 . S
H282 C290 0.930 . S
H283 C291 0.930 . S
H284 C294 0.930 . S
H285 C295 0.930 . S
C286 H280 0.930 . S
C286 C287 1.355 . S
C286 C288 1.415 . S
C287 C286 1.355 . S
C287 C289 1.419 . S
C288 C286 1.415 . S
C288 C293 1.425 . S
C288 C295 1.409 . S
C289 H281 0.930 . S
C289 C287 1.419 . S
C289 C290 1.362 . S
C290 H282 0.930 . S
C290 C289 1.362 . S
C290 C293 1.409 . S
C291 H283 0.930 . S
C291 C292 1.355 . S
C291 C293 1.415 . S
C292 C291 1.355 . S
C292 C294 1.419 . S
C293 C288 1.425 . S
C293 C290 1.409 . S
C293 C291 1.415 . S
C294 H284 0.930 . S
C294 C292 1.419 . S
C294 C295 1.362 . S
C295 H285 0.930 . S
C295 C288 1.409 . S
C295 C294 1.362 . S
H296 C302 0.930 . S
H297 C305 0.930 . S
H298 C306 0.930 . S
H299 C307 0.930 . S
H300 C310 0.930 . S
H301 C311 0.930 . S
C302 H296 0.930 . S
C302 C303 1.355 1_655 S
C302 C304 1.415 . S
C303 C302 1.355 1_455 S
C303 C305 1.419 . S
C304 C302 1.415 . S
C304 C309 1.425 1_655 S
C304 C311 1.409 . S
C305 H297 0.930 . S
C305 C303 1.419 . S
C305 C306 1.362 . S
C306 H298 0.930 . S
C306 C305 1.362 . S
C306 C309 1.409 . S
C307 H299 0.930 . S
C307 C308 1.355 . S
C307 C309 1.415 . S
C308 C307 1.355 . S
C308 C310 1.419 1_455 S
C309 C304 1.425 1_455 S
C309 C306 1.409 . S
C309 C307 1.415 . S
C310 H300 0.930 . S
C310 C308 1.419 1_655 S
C310 C311 1.362 . S
C311 H301 0.930 . S
C311 C304 1.409 . S
C311 C310 1.362 . S
H312 C318 0.930 . S
H313 C321 0.930 . S
H314 C322 0.930 . S
H315 C323 0.930 . S
H316 C326 0.930 . S
H317 C327 0.930 . S
C318 H312 0.930 . S
C318 C319 1.337 1_565 S
C318 C320 1.415 . S
C319 C318 1.337 1_545 S
C319 C321 1.442 . S
C320 C318 1.415 . S
C320 C325 1.425 1_565 S
C320 C327 1.409 . S
C321 H313 0.930 . S
C321 C319 1.442 . S
C321 C322 1.362 . S
C322 H314 0.930 . S
C322 C321 1.362 . S
C322 C325 1.409 . S
C323 H315 0.930 . S
C323 C324 1.355 1_544 S
C323 C325 1.415 . S
C324 C323 1.355 1_566 S
C324 C326 1.419 . S
C325 C320 1.425 1_545 S
C325 C322 1.409 . S
C325 C323 1.415 . S
C326 H316 0.930 . S
C326 C324 1.419 . S
C326 C327 1.362 1_556 S
C327 H317 0.930 . S
C327 C320 1.409 . S
C327 C326 1.362 1_554 S
H328 C334 0.930 . S
H329 C337 0.930 . S
H330 C338 0.930 . S
H331 C339 0.930 1_556 S
H332 C342 0.930 . S
H333 C343 0.930 . S
C334 H328 0.930 . S
C334 C335 1.355 . S
C334 C336 1.415 . S
C335 C334 1.355 . S
C335 C337 1.419 . S
C336 C334 1.415 . S
C336 C341 1.425 . S
C336 C343 1.409 . S
C337 H329 0.930 . S
C337 C335 1.419 . S
C337 C338 1.362 . S
C338 H330 0.930 . S
C338 C337 1.362 . S
C338 C341 1.409 . S
C339 H331 0.930 1_554 S
C339 C340 1.355 1_554 S
C339 C341 1.415 . S
C340 C339 1.355 1_556 S
C340 C342 1.419 1_556 S
C341 C336 1.425 . S
C341 C338 1.409 . S
C341 C339 1.415 . S
C342 H332 0.930 . S
C342 C340 1.419 1_554 S
C342 C343 1.362 . S
C343 H333 0.930 . S
C343 C336 1.409 . S
C343 C342 1.362 . S
H344 C350 0.930 . S
H345 C353 0.930 . S
H346 C354 0.930 . S
H347 C355 0.930 . S
H348 C358 0.930 . S
H349 C359 0.930 . S
C350 H344 0.930 . S
C350 C351 1.355 . S
C350 C352 1.415 . S
C351 C350 1.355 . S
C351 C353 1.419 . S
C352 C350 1.415 . S
C352 C357 1.425 . S
C352 C359 1.409 . S
C353 H345 0.930 . S
C353 C351 1.419 . S
C353 C354 1.362 . S
C354 H346 0.930 . S
C354 C353 1.362 . S
C354 C357 1.409 . S
C355 H347 0.930 . S
C355 C356 1.355 1_554 S
C355 C357 1.415 . S
C356 C355 1.355 1_556 S
C356 C358 1.419 . S
C357 C352 1.425 . S
C357 C354 1.409 . S
C357 C355 1.415 . S
C358 H348 0.930 . S
C358 C356 1.419 . S
C358 C359 1.362 1_556 S
C359 H349 0.930 . S
C359 C352 1.409 . S
C359 C358 1.362 1_554 S
H360 C366 0.930 . S
H361 C369 0.930 . S
H362 C370 0.930 . S
H363 C371 0.930 . S
H364 C374 0.930 . S
H365 C375 0.930 . S
C366 H360 0.930 . S
C366 C367 1.361 . S
C366 C368 1.415 . S
C367 C366 1.361 . S
C367 C369 1.412 1_655 S
C368 C366 1.415 . S
C368 C373 1.425 1_655 S
C368 C375 1.409 . S
C369 H361 0.930 . S
C369 C367 1.412 1_455 S
C369 C370 1.362 . S
C370 H362 0.930 . S
C370 C369 1.362 . S
C370 C373 1.409 . S
C371 H363 0.930 . S
C371 C372 1.355 1_454 S
C371 C373 1.415 . S
C372 C371 1.355 1_656 S
C372 C374 1.419 . S
C373 C368 1.425 1_455 S
C373 C370 1.409 . S
C373 C371 1.415 . S
C374 H364 0.930 . S
C374 C372 1.419 . S
C374 C375 1.362 1_556 S
C375 H365 0.930 . S
C375 C368 1.409 . S
C375 C374 1.362 1_554 S
H376 C382 0.930 . S
H377 C385 0.930 . S
H378 C386 0.930 . S
H379 C387 0.930 . S
H380 C390 0.930 . S
H381 C391 0.930 . S
C382 H376 0.930 . S
C382 C383 1.355 1_655 S
C382 C384 1.415 . S
C383 C382 1.355 1_455 S
C383 C385 1.419 . S
C384 C382 1.415 . S
C384 C389 1.425 . S
C384 C391 1.409 . S
C385 H377 0.930 . S
C385 C383 1.419 . S
C385 C386 1.362 . S
C386 H378 0.930 . S
C386 C385 1.362 . S
C386 C389 1.409 1_455 S
C387 H379 0.930 . S
C387 C388 1.355 . S
C387 C389 1.415 . S
C388 C387 1.355 . S
C388 C390 1.419 . S
C389 C384 1.425 . S
C389 C386 1.409 1_655 S
C389 C387 1.415 . S
C390 H380 0.930 . S
C390 C388 1.419 . S
C390 C391 1.362 . S
C391 H381 0.930 . S
C391 C384 1.409 . S
C391 C390 1.362 . S
H392 C398 0.930 . S
H393 C401 0.930 . S
H394 C402 0.930 . S
H395 C403 0.930 . S
H396 C406 0.930 . S
H397 C407 0.930 . S
C398 H392 0.930 . S
C398 C399 1.341 1_545 S
C398 C400 1.415 1_545 S
C399 C398 1.341 1_565 S
C399 C401 1.453 . S
C400 C398 1.415 1_565 S
C400 C405 1.425 . S
C400 C407 1.409 1_565 S
C401 H393 0.930 . S
C401 C399 1.453 . S
C401 C402 1.362 . S
C402 H394 0.930 . S
C402 C401 1.362 . S
C402 C405 1.409 . S
C403 H395 0.930 . S
C403 C404 1.355 . S
C403 C405 1.415 . S
C404 C403 1.355 . S
C404 C406 1.419 . S
C405 C400 1.425 . S
C405 C402 1.409 . S
C405 C403 1.415 . S
C406 H396 0.930 . S
C406 C404 1.419 . S
C406 C407 1.362 1_565 S
C407 H397 0.930 . S
C407 C400 1.409 1_545 S
C407 C406 1.362 1_545 S
H408 C414 0.930 . S
H409 C417 0.930 . S
H410 C418 0.930 . S
H411 C419 0.930 . S
H412 C422 0.930 . S
H413 C423 0.930 . S
C414 H408 0.930 . S
C414 C415 1.355 . S
C414 C416 1.415 . S
C415 C414 1.355 . S
C415 C417 1.419 . S
C416 C414 1.415 . S
C416 C421 1.425 . S
C416 C423 1.409 . S
C417 H409 0.930 . S
C417 C415 1.419 . S
C417 C418 1.362 . S
C418 H410 0.930 . S
C418 C417 1.362 . S
C418 C421 1.409 . S
C419 H411 0.930 . S
C419 C420 1.355 . S
C419 C421 1.415 . S
C420 C419 1.355 . S
C420 C422 1.419 . S
C421 C416 1.425 . S
C421 C418 1.409 . S
C421 C419 1.415 . S
C422 H412 0.930 . S
C422 C420 1.419 . S
C422 C423 1.362 . S
C423 H413 0.930 . S
C423 C416 1.409 . S
C423 C422 1.362 . S
H424 C430 0.930 . S
H425 C433 0.930 . S
H426 C434 0.930 . S
H427 C435 0.930 . S
H428 C438 0.930 . S
H429 C439 0.930 . S
C430 H424 0.930 . S
C430 C431 1.355 . S
C430 C432 1.415 . S
C431 C430 1.355 . S
C431 C433 1.419 . S
C432 C430 1.415 . S
C432 C437 1.425 . S
C432 C439 1.409 . S
C433 H425 0.930 . S
C433 C431 1.419 . S
C433 C434 1.362 . S
C434 H426 0.930 . S
C434 C433 1.362 . S
C434 C437 1.409 . S
C435 H427 0.930 . S
C435 C436 1.355 . S
C435 C437 1.415 . S
C436 C435 1.355 . S
C436 C438 1.419 . S
C437 C432 1.425 . S
C437 C434 1.409 . S
C437 C435 1.415 . S
C438 H428 0.930 . S
C438 C436 1.419 . S
C438 C439 1.362 . S
C439 H429 0.930 . S
C439 C432 1.409 . S
C439 C438 1.362 . S
H440 C446 0.930 . S
H441 C449 0.930 . S
H442 C450 0.930 . S
H443 C451 0.930 . S
H444 C454 0.930 . S
H445 C455 0.930 . S
C446 H440 0.930 . S
C446 C447 1.355 1_455 S
C446 C448 1.415 . S
C447 C446 1.355 1_655 S
C447 C449 1.419 . S
C448 C446 1.415 . S
C448 C453 1.425 . S
C448 C455 1.409 . S
C449 H441 0.930 . S
C449 C447 1.419 . S
C449 C450 1.362 . S
C450 H442 0.930 . S
C450 C449 1.362 . S
C450 C453 1.409 1_655 S
C451 H443 0.930 . S
C451 C452 1.355 . S
C451 C453 1.415 . S
C452 C451 1.355 . S
C452 C454 1.419 . S
C453 C448 1.425 . S
C453 C450 1.409 1_455 S
C453 C451 1.415 . S
C454 H444 0.930 . S
C454 C452 1.419 . S
C454 C455 1.362 . S
C455 H445 0.930 . S
C455 C448 1.409 . S
C455 C454 1.362 . S
H456 C462 0.930 . S
H457 C465 0.930 . S
H458 C466 0.930 . S
H459 C467 0.930 . S
H460 C470 0.930 . S
H461 C471 0.930 1_565 S
C462 H456 0.930 . S
C462 C463 1.355 . S
C462 C464 1.415 1_565 S
C463 C462 1.355 . S
C463 C465 1.418 1_565 S
C464 C462 1.415 1_545 S
C464 C469 1.425 . S
C464 C471 1.409 . S
C465 H457 0.930 . S
C465 C463 1.418 1_545 S
C465 C466 1.362 . S
C466 H458 0.930 . S
C466 C465 1.362 . S
C466 C469 1.409 . S
C467 H459 0.930 . S
C467 C468 1.355 . S
C467 C469 1.415 . S
C468 C467 1.355 . S
C468 C470 1.419 . S
C469 C464 1.425 . S
C469 C466 1.409 . S
C469 C467 1.415 . S
C470 H460 0.930 . S
C470 C468 1.419 . S
C470 C471 1.362 . S
C471 H461 0.930 1_545 S
C471 C464 1.409 . S
C471 C470 1.362 . S
H472 C478 0.930 . S
H473 C481 0.930 . S
H474 C482 0.930 . S
H475 C483 0.930 . S
H476 C486 0.930 . S
H477 C487 0.930 . S
C478 H472 0.930 . S
C478 C479 1.355 . S
C478 C480 1.415 . S
C479 C478 1.355 . S
C479 C481 1.419 . S
C480 C478 1.415 . S
C480 C485 1.425 . S
C480 C487 1.409 . S
C481 H473 0.930 . S
C481 C479 1.419 . S
C481 C482 1.362 . S
C482 H474 0.930 . S
C482 C481 1.362 . S
C482 C485 1.409 . S
C483 H475 0.930 . S
C483 C484 1.355 . S
C483 C485 1.415 . S
C484 C483 1.355 . S
C484 C486 1.419 . S
C485 C480 1.425 . S
C485 C482 1.409 . S
C485 C483 1.415 . S
C486 H476 0.930 . S
C486 C484 1.419 . S
C486 C487 1.362 . S
C487 H477 0.930 . S
C487 C480 1.409 . S
C487 C486 1.362 . S
H488 C494 0.930 . S
H489 C497 0.930 . S
H490 C498 0.930 . S
H491 C499 0.930 . S
H492 C502 0.930 . S
H493 C503 0.930 . S
C494 H488 0.930 . S
C494 C495 1.355 . S
C494 C496 1.415 . S
C495 C494 1.355 . S
C495 C497 1.419 . S
C496 C494 1.415 . S
C496 C501 1.425 . S
C496 C503 1.409 . S
C497 H489 0.930 . S
C497 C495 1.419 . S
C497 C498 1.362 . S
C498 H490 0.930 . S
C498 C497 1.362 . S
C498 C501 1.409 . S
C499 H491 0.930 . S
C499 C500 1.355 . S
C499 C501 1.415 . S
C500 C499 1.355 . S
C500 C502 1.419 . S
C501 C496 1.425 . S
C501 C498 1.409 . S
C501 C499 1.415 . S
C502 H492 0.930 . S
C502 C500 1.419 . S
C502 C503 1.362 . S
C503 H493 0.930 . S
C503 C496 1.409 . S
C503 C502 1.362 . S
H504 C510 0.930 . S
H505 C513 0.930 . S
H506 C514 0.930 . S
H507 C515 0.930 . S
H508 C518 0.930 . S
H509 C519 0.930 1_554 S
C510 H504 0.930 . S
C510 C511 1.355 1_655 S
C510 C512 1.415 1_655 S
C511 C510 1.355 1_455 S
C511 C513 1.419 . S
C512 C510 1.415 1_455 S
C512 C517 1.425 . S
C512 C519 1.409 1_455 S
C513 H505 0.930 . S
C513 C511 1.419 . S
C513 C514 1.362 . S
C514 H506 0.930 . S
C514 C513 1.362 . S
C514 C517 1.409 . S
C515 H507 0.930 . S
C515 C516 1.355 . S
C515 C517 1.415 . S
C516 C515 1.355 . S
C516 C518 1.419 1_455 S
C517 C512 1.425 . S
C517 C514 1.409 . S
C517 C515 1.415 . S
C518 H508 0.930 . S
C518 C516 1.419 1_655 S
C518 C519 1.362 . S
C519 H509 0.930 1_556 S
C519 C512 1.409 1_655 S
C519 C518 1.362 . S
H520 C526 0.930 . S
H521 C529 0.930 . S
H522 C530 0.930 . S
H523 C531 0.930 . S
H524 C534 0.930 . S
H525 C535 0.930 . S
C526 H520 0.930 . S
C526 C527 1.355 1_565 S
C526 C528 1.415 . S
C527 C526 1.355 1_545 S
C527 C529 1.419 . S
C528 C526 1.415 . S
C528 C533 1.425 1_565 S
C528 C535 1.409 . S
C529 H521 0.930 . S
C529 C527 1.419 . S
C529 C530 1.362 . S
C530 H522 0.930 . S
C530 C529 1.362 . S
C530 C533 1.409 . S
C531 H523 0.930 . S
C531 C532 1.355 . S
C531 C533 1.415 . S
C532 C531 1.355 . S
C532 C534 1.419 1_545 S
C533 C528 1.425 1_545 S
C533 C530 1.409 . S
C533 C531 1.415 . S
C534 H524 0.930 . S
C534 C532 1.419 1_565 S
C534 C535 1.362 . S
C535 H525 0.930 . S
C535 C528 1.409 . S
C535 C534 1.362 . S
H536 C542 0.930 . S
H537 C545 0.930 . S
H538 C546 0.930 . S
H539 C547 0.930 . S
H540 C550 0.930 . S
H541 C551 0.930 . S
C542 H536 0.930 . S
C542 C543 1.355 . S
C542 C544 1.415 . S
C543 C542 1.355 . S
C543 C545 1.419 . S
C544 C542 1.415 . S
C544 C549 1.425 . S
C544 C551 1.409 . S
C545 H537 0.930 . S
C545 C543 1.419 . S
C545 C546 1.362 . S
C546 H538 0.930 . S
C546 C545 1.362 . S
C546 C549 1.409 . S
C547 H539 0.930 . S
C547 C548 1.355 . S
C547 C549 1.415 . S
C548 C547 1.355 . S
C548 C550 1.419 . S
C549 C544 1.425 . S
C549 C546 1.409 . S
C549 C547 1.415 . S
C550 H540 0.930 . S
C550 C548 1.419 . S
C550 C551 1.362 . S
C551 H541 0.930 . S
C551 C544 1.409 . S
C551 C550 1.362 . S
H552 C558 0.930 . S
H553 C561 0.930 . S
H554 C562 0.930 . S
H555 C563 0.930 . S
H556 C566 0.930 . S
H557 C567 0.930 . S
C558 H552 0.930 . S
C558 C559 1.355 . S
C558 C560 1.415 . S
C559 C558 1.355 . S
C559 C561 1.419 . S
C560 C558 1.415 . S
C560 C565 1.425 . S
C560 C567 1.409 . S
C561 H553 0.930 . S
C561 C559 1.419 . S
C561 C562 1.362 . S
C562 H554 0.930 . S
C562 C561 1.362 . S
C562 C565 1.409 . S
C563 H555 0.930 . S
C563 C564 1.355 . S
C563 C565 1.415 . S
C564 C563 1.355 . S
C564 C566 1.419 . S
C565 C560 1.425 . S
C565 C562 1.409 . S
C565 C563 1.415 . S
C566 H556 0.930 . S
C566 C564 1.419 . S
C566 C567 1.362 . S
C567 H557 0.930 . S
C567 C560 1.409 . S
C567 C566 1.362 . S
H568 C574 0.930 . S
H569 C577 0.930 . S
H570 C578 0.930 . S
H571 C579 0.930 1_455 S
H572 C582 0.930 . S
H573 C583 0.930 . S
C574 H568 0.930 . S
C574 C575 1.355 . S
C574 C576 1.415 . S
C575 C574 1.355 . S
C575 C577 1.419 1_655 S
C576 C574 1.415 . S
C576 C581 1.425 . S
C576 C583 1.409 . S
C577 H569 0.930 . S
C577 C575 1.419 1_455 S
C577 C578 1.362 . S
C578 H570 0.930 . S
C578 C577 1.362 . S
C578 C581 1.409 1_455 S
C579 H571 0.930 1_655 S
C579 C580 1.355 . S
C579 C581 1.415 . S
C580 C579 1.355 . S
C580 C582 1.419 . S
C581 C576 1.425 . S
C581 C578 1.409 1_655 S
C581 C579 1.415 . S
C582 H572 0.930 . S
C582 C580 1.419 . S
C582 C583 1.362 . S
C583 H573 0.930 . S
C583 C576 1.409 . S
C583 C582 1.362 . S
H584 C590 0.930 . S
H585 C593 0.930 . S
H586 C594 0.930 . S
H587 C595 0.930 . S
H588 C598 0.930 . S
H589 C599 0.930 . S
C590 H584 0.930 . S
C590 C591 1.355 . S
C590 C592 1.415 . S
C591 C590 1.355 . S
C591 C593 1.419 1_565 S
C592 C590 1.415 . S
C592 C597 1.425 1_565 S
C592 C599 1.409 . S
C593 H585 0.930 . S
C593 C591 1.419 1_545 S
C593 C594 1.362 . S
C594 H586 0.930 . S
C594 C593 1.362 . S
C594 C597 1.409 . S
C595 H587 0.930 . S
C595 C596 1.355 1_545 S
C595 C597 1.415 . S
C596 C595 1.355 1_565 S
C596 C598 1.419 . S
C597 C592 1.425 1_545 S
C597 C594 1.409 . S
C597 C595 1.415 . S
C598 H588 0.930 . S
C598 C596 1.419 . S
C598 C599 1.362 . S
C599 H589 0.930 . S
C599 C592 1.409 . S
C599 C598 1.362 . S
H600 C606 0.930 . S
H601 C609 0.930 . S
H602 C610 0.930 . S
H603 C611 0.930 . S
H604 C614 0.930 . S
H605 C615 0.930 . S
C606 H600 0.930 . S
C606 C607 1.355 . S
C606 C608 1.415 . S
C607 C606 1.355 . S
C607 C609 1.419 . S
C608 C606 1.415 . S
C608 C613 1.425 . S
C608 C615 1.409 . S
C609 H601 0.930 . S
C609 C607 1.419 . S
C609 C610 1.362 . S
C610 H602 0.930 . S
C610 C609 1.362 . S
C610 C613 1.409 . S
C611 H603 0.930 . S
C611 C612 1.355 . S
C611 C613 1.415 . S
C612 C611 1.355 . S
C612 C614 1.419 . S
C613 C608 1.425 . S
C613 C610 1.409 . S
C613 C611 1.415 . S
C614 H604 0.930 . S
C614 C612 1.419 . S
C614 C615 1.362 . S
C615 H605 0.930 . S
C615 C608 1.409 . S
C615 C614 1.362 . S
H616 C622 0.930 . S
H617 C625 0.930 . S
H618 C626 0.930 . S
H619 C627 0.930 . S
H620 C630 0.930 . S
H621 C631 0.930 . S
C622 H616 0.930 . S
C622 C623 1.355 . S
C622 C624 1.415 . S
C623 C622 1.355 . S
C623 C625 1.419 . S
C624 C622 1.415 . S
C624 C629 1.425 . S
C624 C631 1.409 . S
C625 H617 0.930 . S
C625 C623 1.419 . S
C625 C626 1.362 . S
C626 H618 0.930 . S
C626 C625 1.362 . S
C626 C629 1.409 . S
C627 H619 0.930 . S
C627 C628 1.355 . S
C627 C629 1.415 . S
C628 C627 1.355 . S
C628 C630 1.419 . S
C629 C624 1.425 . S
C629 C626 1.409 . S
C629 C627 1.415 . S
C630 H620 0.930 . S
C630 C628 1.419 . S
C630 C631 1.362 . S
C631 H621 0.930 . S
C631 C624 1.409 . S
C631 C630 1.362 . S
C255 C76 1.850 1_545 S
C260 C98 2.040 . S
C276 C138 2.062 . S
C271 C87 1.902 . S
C292 C178 2.051 . S
C287 C54 1.843 . S
C308 C218 2.047 1_455 S
C303 C65 1.921 1_455 S
C324 C107 2.055 1_565 S
C319 C32 1.922 1_545 S
C335 C43 1.842 . S
C340 C147 2.058 . S
C351 C10 1.922 . S
C356 C187 2.058 . S
C367 C21 1.922 . S
C372 C227 2.052 1_655 S
C388 C104 0.702 . S
C383 C60 0.726 . S
C404 C144 0.562 . S
C399 C71 0.552 1_565 S
C420 C184 0.721 . S
C415 C82 0.721 . S
C431 C49 0.659 . S
C436 C224 0.582 . S
C447 C16 0.626 1_655 S
C452 C95 0.700 . S
C468 C135 0.613 . S
C463 C27 0.684 1_565 S
C484 C175 0.607 . S
C479 C38 0.680 . S
C495 C5 0.556 . S
C500 C215 0.560 . S
C511 C59 2.121 . S
C516 C99 2.365 . S
C527 C70 2.085 . S
C532 C139 2.357 . S
C548 C179 2.354 . S
C543 C81 2.067 . S
C564 C219 2.391 . S
C559 C48 2.101 . S
C575 C15 2.048 1_655 S
C580 C90 2.380 . S
C596 C130 2.375 . S
C591 C26 2.045 1_565 S
C612 C170 2.357 . S
C607 C37 2.053 . S
C623 C4 2.079 . S
C628 C210 2.394 . S
