# Generated by pormake.
# Topology zzz, (3,6)-cn, num edge types: 1
# Building blocks:
#     Node 0, Type 0, BuildingBlock: BETDIP_clean_linker_0, # of connection points: 3
#     Node 1, Type 0, BuildingBlock: BETDIP_clean_linker_0, # of connection points: 3
#     Node 2, Type 0, BuildingBlock: BETDIP_clean_linker_0, # of connection points: 3
#     Node 3, Type 0, BuildingBlock: BETDIP_clean_linker_0, # of connection points: 3
#     Node 4, Type 0, BuildingBlock: BETDIP_clean_linker_0, # of connection points: 3
#     Node 5, Type 0, BuildingBlock: BETDIP_clean_linker_0, # of connection points: 3
#     Node 6, Type 0, BuildingBlock: BETDIP_clean_linker_0, # of connection points: 3
#     Node 7, Type 0, BuildingBlock: BETDIP_clean_linker_0, # of connection points: 3
#     Node 8, Type 1, BuildingBlock: INOVEN_clean_sbu_0, # of connection points: 6
#     Node 9, Type 1, BuildingBlock: INOVEN_clean_sbu_0, # of connection points: 6
#     Node 10, Type 1, BuildingBlock: INOVEN_clean_sbu_0, # of connection points: 6
#     Node 11, Type 1, BuildingBlock: INOVEN_clean_sbu_0, # of connection points: 6
#     Edge 12, Type (0, 1), BuildingBlock: KIFKEQ_clean_linker_1, # of connection points: 2
#     Edge 13, Type (0, 1), BuildingBlock: KIFKEQ_clean_linker_1, # of connection points: 2
#     Edge 14, Type (0, 1), BuildingBlock: KIFKEQ_clean_linker_1, # of connection points: 2
#     Edge 15, Type (0, 1), BuildingBlock: KIFKEQ_clean_linker_1, # of connection points: 2
#     Edge 16, Type (0, 1), BuildingBlock: KIFKEQ_clean_linker_1, # of connection points: 2
#     Edge 17, Type (0, 1), BuildingBlock: KIFKEQ_clean_linker_1, # of connection points: 2
#     Edge 18, Type (0, 1), BuildingBlock: KIFKEQ_clean_linker_1, # of connection points: 2
#     Edge 19, Type (0, 1), BuildingBlock: KIFKEQ_clean_linker_1, # of connection points: 2
#     Edge 20, Type (0, 1), BuildingBlock: KIFKEQ_clean_linker_1, # of connection points: 2
#     Edge 21, Type (0, 1), BuildingBlock: KIFKEQ_clean_linker_1, # of connection points: 2
#     Edge 22, Type (0, 1), BuildingBlock: KIFKEQ_clean_linker_1, # of connection points: 2
#     Edge 23, Type (0, 1), BuildingBlock: KIFKEQ_clean_linker_1, # of connection points: 2
#     Edge 24, Type (0, 1), BuildingBlock: KIFKEQ_clean_linker_1, # of connection points: 2
#     Edge 25, Type (0, 1), BuildingBlock: KIFKEQ_clean_linker_1, # of connection points: 2
#     Edge 26, Type (0, 1), BuildingBlock: KIFKEQ_clean_linker_1, # of connection points: 2
#     Edge 27, Type (0, 1), BuildingBlock: KIFKEQ_clean_linker_1, # of connection points: 2
#     Edge 28, Type (0, 1), BuildingBlock: KIFKEQ_clean_linker_1, # of connection points: 2
#     Edge 29, Type (0, 1), BuildingBlock: KIFKEQ_clean_linker_1, # of connection points: 2
#     Edge 30, Type (0, 1), BuildingBlock: KIFKEQ_clean_linker_1, # of connection points: 2
#     Edge 31, Type (0, 1), BuildingBlock: KIFKEQ_clean_linker_1, # of connection points: 2
#     Edge 32, Type (0, 1), BuildingBlock: KIFKEQ_clean_linker_1, # of connection points: 2
#     Edge 33, Type (0, 1), BuildingBlock: KIFKEQ_clean_linker_1, # of connection points: 2
#     Edge 34, Type (0, 1), BuildingBlock: KIFKEQ_clean_linker_1, # of connection points: 2
#     Edge 35, Type (0, 1), BuildingBlock: KIFKEQ_clean_linker_1, # of connection points: 2
# Relax obj value: 0.259
# Max RMSD: 0.184
# Mean RMSD: 0.159
data_MOF--net-zzz--node1-INOVEN_clean_sbu_0--node2-BETDIP_clean_linker_0--edge1-KIFKEQ_clean_linker_1
_symmetry_space_group_name_H-M    P1
_symmetry_Int_Tables_number       1
_symmetry_cell_setting            triclinic
loop_
_symmetry_equiv_pos_as_xyz
'x, y, z'
_cell_length_a     53.038632
_cell_length_b     52.972292
_cell_length_c     13.495235
_cell_angle_alpha  90.168763
_cell_angle_beta   89.954894
_cell_angle_gamma 90.222641
loop_
_atom_site_label
_atom_site_type_symbol
_atom_site_fract_x
_atom_site_fract_y
_atom_site_fract_z
_atom_type_partial_charge
H0 H 0.75901 0.52126 0.43214 0.0
H1 H 0.74328 0.58313 0.23425 0.0
H2 H 0.81242 0.58175 0.39841 0.0
H3 H 0.7016 0.57515 0.31721 0.0
C4 C 0.70193 0.55592 0.2888 0.0
C5 C 0.76407 0.53943 0.40117 0.0
C6 C 0.78742 0.55079 0.42624 0.0
C7 C 0.74723 0.55185 0.336 0.0
C8 C 0.75489 0.57462 0.29098 0.0
C9 C 0.77834 0.58547 0.31319 0.0
C10 C 0.79383 0.57395 0.38372 0.0
N11 N 0.72349 0.54074 0.31001 0.0
H12 H 0.99638 0.76509 0.46054 0.0
H13 H 0.05089 0.73521 0.25503 0.0
H14 H 0.06345 0.80738 0.39283 0.0
H15 H 0.99369 0.73865 0.19451 0.0
C16 C 0.99775 0.722 0.23866 0.0
C17 C 1.01447 0.76657 0.42368 0.0
C18 C 0.02974 0.78826 0.4381 0.0
C19 C 0.02242 0.74718 0.35831 0.0
C20 C 0.04536 0.7497 0.3075 0.0
C21 C 0.06043 0.77125 0.31963 0.0
C22 C 0.05267 0.79001 0.38676 0.0
N23 N 1.00688 0.72587 0.33688 0.0
H24 H 0.77399 0.02117 0.46471 0.0
H25 H 0.79224 0.96765 0.23395 0.0
H26 H 0.71972 0.96529 0.37434 0.0
H27 H 0.8326 0.9706 0.34698 0.0
C28 C 0.83306 0.99015 0.32263 0.0
C29 C 0.76908 1.00476 0.42059 0.0
C30 C 0.74493 0.99355 0.43049 0.0
C31 C 0.78692 0.99445 0.35338 0.0
C32 C 0.77963 0.97422 0.29169 0.0
C33 C 0.75545 0.96371 0.29881 0.0
C34 C 0.73879 0.97279 0.37102 0.0
N35 N 0.81142 1.00544 0.34175 0.0
H36 H 0.51318 0.77604 0.42773 0.0
H37 H 0.57294 0.79656 0.2262 0.0
H38 H 0.5754 0.72588 0.38063 0.0
H39 H 0.56106 0.83861 0.34189 0.0
C40 C 0.54382 0.83635 0.29912 0.0
C41 C 0.53136 0.77215 0.39456 0.0
C42 C 0.54384 0.74925 0.41565 0.0
C43 C 0.54266 0.79007 0.33043 0.0
C44 C 0.5654 0.784 0.28223 0.0
C45 C 0.57719 0.76078 0.29919 0.0
C46 C 0.56688 0.74425 0.36949 0.0
N47 N 0.53022 0.81314 0.30701 0.0
H48 H 0.26389 0.50459 0.1036 0.0
H49 H 0.28331 0.5721 0.26774 0.0
H50 H 0.21468 0.56886 0.10092 0.0
H51 H 0.32382 0.55935 0.18931 0.0
C52 C 0.32299 0.54114 0.22628 0.0
C53 C 0.25987 0.52387 0.12516 0.0
C54 C 0.23742 0.53557 0.09248 0.0
C55 C 0.27734 0.53752 0.18447 0.0
C56 C 0.27115 0.56213 0.21625 0.0
C57 C 0.24873 0.57353 0.18547 0.0
C58 C 0.23251 0.56038 0.12181 0.0
N59 N 0.30055 0.52634 0.21546 0.0
H60 H 0.0286 0.27028 0.09973 0.0
H61 H 0.96687 0.29 0.29367 0.0
H62 H 0.96388 0.22145 0.1249 0.0
H63 H 0.97849 0.33072 0.19304 0.0
C64 C 0.99647 0.32967 0.23154 0.0
C65 C 1.01008 0.26629 0.12984 0.0
C66 C 0.99711 0.24398 0.10162 0.0
C67 C 0.99856 0.28376 0.19552 0.0
C68 C 0.97503 0.27773 0.23789 0.0
C69 C 0.96249 0.25541 0.21203 0.0
C70 C 0.97329 0.23917 0.14217 0.0
N71 N 1.01071 0.30695 0.22197 0.0
H72 H 0.26281 0.0356 0.05784 0.0
H73 H 0.24301 0.97205 0.24275 0.0
H74 H 0.31277 0.97215 0.08278 0.0
H75 H 0.20292 0.98236 0.15377 0.0
C76 C 0.20333 1.00114 0.18657 0.0
C77 C 0.26694 1.01701 0.08663 0.0
C78 C 0.28977 1.00488 0.06026 0.0
C79 C 0.24922 1.0046 0.1488 0.0
C80 C 0.25546 0.98096 0.18951 0.0
C81 C 0.2782 0.96918 0.16509 0.0
C82 C 0.29476 0.98095 0.0989 0.0
N83 N 0.22562 1.01607 0.1736 0.0
H84 H 0.49904 0.26997 0.07618 0.0
H85 H 0.56741 0.24961 0.2297 0.0
H86 H 0.56206 0.32088 0.08076 0.0
H87 H 0.55395 0.20965 0.15369 0.0
C88 C 0.53597 0.21051 0.1924 0.0
C89 C 0.5183 0.27414 0.09736 0.0
C90 C 0.52961 0.29717 0.06831 0.0
C91 C 0.5323 0.25632 0.15266 0.0
C92 C 0.55705 0.26247 0.18278 0.0
C93 C 0.56804 0.28569 0.15723 0.0
C94 C 0.55427 0.30246 0.09826 0.0
N95 N 0.5212 0.23286 0.18242 0.0
Gd96 Gd 0.03377 1.01314 0.83599 0.0
Gd97 Gd 1.00159 0.02659 0.65603 0.0
C98 C 1.01396 0.96768 0.68854 0.0
C99 C 0.05494 0.99356 0.99001 0.0
C100 C 0.06102 0.96731 0.01448 0.0
C101 C 0.08396 0.96139 0.06023 0.0
C102 C 0.04526 0.94781 0.98142 0.0
C103 C 0.07572 0.9165 0.03519 0.0
C104 C 0.05268 0.92278 0.99001 0.0
C105 C 0.09118 0.93615 0.07141 0.0
C106 C 0.06004 0.0278 0.67276 0.0
C107 C 1.01871 0.07073 0.81265 0.0
C108 C 0.98641 0.04293 0.48699 0.0
C109 C 0.96752 0.0618 0.45898 0.0
C110 C 0.94723 0.06737 0.52225 0.0
C111 C 0.97098 0.07598 0.37279 0.0
C112 C 0.93532 0.10262 0.4176 0.0
C113 C 0.95505 0.09621 0.35218 0.0
C114 C 0.93121 0.08755 0.5016 0.0
C115 C 0.96992 0.02234 0.8153 0.0
O116 O 0.02391 0.97419 0.77512 0.0
O117 O 1.00576 0.98489 0.62565 0.0
O118 O 0.06762 1.00268 0.91522 0.0
O119 O 0.03096 0.99932 0.98665 0.0
O120 O 0.06518 0.03493 0.76255 0.0
O121 O 0.04089 1.01347 0.6735 0.0
O122 O 1.01278 0.06501 0.71964 0.0
O123 O 0.02434 0.05298 0.87744 0.0
O124 O 0.97763 0.02223 0.52764 0.0
O125 O 1.00645 0.05197 0.53199 0.0
O126 O 0.96281 0.02761 0.7263 0.0
O127 O 0.99351 1.01937 0.81453 0.0
H128 H 0.09646 0.97627 0.08583 0.0
H129 H 0.0274 0.95191 0.94635 0.0
H130 H 0.04038 0.90841 0.95932 0.0
H131 H 0.10878 0.93214 0.10858 0.0
H132 H 0.9442 0.05667 0.58939 0.0
H133 H 0.98664 0.07207 0.32352 0.0
H134 H 0.95913 0.10766 0.28776 0.0
H135 H 0.91612 0.09183 0.55298 0.0
Gd136 Gd 0.52355 0.03323 0.8248 0.0
Gd137 Gd 0.50965 1.00756 0.64307 0.0
C138 C 0.56726 1.01613 0.6732 0.0
C139 C 0.54662 0.04173 0.98863 0.0
C140 C 0.56869 0.02741 0.02482 0.0
C141 C 0.59302 0.03351 0.99094 0.0
C142 C 0.56513 1.00482 0.07796 0.0
C143 C 0.60878 0.99318 0.04928 0.0
C144 C 0.58496 0.98783 0.08972 0.0
C145 C 0.61283 1.01655 1.00294 0.0
C146 C 0.51283 0.06613 0.6768 0.0
C147 C 0.46474 0.02675 0.79442 0.0
C148 C 0.49043 0.99034 0.4805 0.0
C149 C 0.46889 0.97361 0.45984 0.0
C150 C 0.46996 0.95644 0.38077 0.0
C151 C 0.44753 0.97397 0.52111 0.0
C152 C 0.42749 0.94163 0.4194 0.0
C153 C 0.42699 0.9583 0.50078 0.0
C154 C 0.44947 0.94051 0.36081 0.0
C155 C 0.52039 0.97513 0.79358 0.0
O156 O 0.56032 1.01635 0.76721 0.0
O157 O 0.54976 1.01751 0.60423 0.0
O158 O 0.5503 0.0556 0.90974 0.0
O159 O 0.52551 0.02898 0.98411 0.0
O160 O 0.50725 0.06986 0.76943 0.0
O161 O 0.52502 0.0458 0.66742 0.0
O162 O 0.47096 1.01826 0.70517 0.0
O163 O 0.48228 0.03274 0.85966 0.0
O164 O 0.50935 0.97966 0.52538 0.0
O165 O 0.48513 1.0127 0.51654 0.0
O166 O 0.52671 0.97155 0.7022 0.0
O167 O 0.50783 0.9952 0.80042 0.0
H168 H 0.59653 0.0508 0.95043 0.0
H169 H 0.54668 0.9996 0.10583 0.0
H170 H 0.5814 0.97008 0.12697 0.0
H171 H 0.63124 0.0215 0.97384 0.0
H172 H 0.48653 0.95553 0.3339 0.0
H173 H 0.44647 0.98671 0.58375 0.0
H174 H 0.41033 0.96011 0.54661 0.0
H175 H 0.45065 0.92769 0.29836 0.0
Gd176 Gd 0.50269 0.53169 0.84236 0.0
Gd177 Gd 0.52759 0.51386 0.6431 0.0
C178 C 0.52053 0.57324 0.67692 0.0
C179 C 0.49722 0.5552 0.00712 0.0
C180 C 0.51251 0.57692 0.04212 0.0
C181 C 0.51024 0.60058 0.99616 0.0
C182 C 0.53246 0.57307 0.10902 0.0
C183 C 0.54947 0.61467 0.07155 0.0
C184 C 0.55084 0.59174 0.12332 0.0
C185 C 0.52853 0.61919 0.01058 0.0
C186 C 0.46962 0.51822 0.69774 0.0
C187 C 0.51 0.47225 0.80917 0.0
C188 C 0.5388 0.49441 0.47473 0.0
C189 C 0.55678 0.47389 0.45749 0.0
C190 C 0.56377 0.46651 0.36164 0.0
C191 C 0.56685 0.46121 0.53951 0.0
C192 C 0.58893 0.43233 0.43039 0.0
C193 C 0.58279 0.44066 0.52615 0.0
C194 C 0.57981 0.44582 0.3481 0.0
C195 C 0.56351 0.5191 0.78913 0.0
O196 O 0.51716 0.56802 0.77216 0.0
O197 O 0.5219 0.5551 0.60939 0.0
O198 O 0.48251 0.55925 0.93065 0.0
O199 O 0.50941 0.53379 1.00036 0.0
O200 O 0.46544 0.51536 0.79216 0.0
O201 O 0.49037 0.52966 0.68525 0.0
O202 O 0.5147 0.47722 0.71458 0.0
O203 O 0.50734 0.4904 0.87603 0.0
O204 O 0.54896 0.51554 0.50656 0.0
O205 O 0.51854 0.48782 0.52462 0.0
O206 O 0.56846 0.51214 0.69944 0.0
O207 O 0.5402 0.52267 0.79294 0.0
H208 H 0.49499 0.60439 0.94507 0.0
H209 H 0.53468 0.55507 0.14587 0.0
H210 H 0.5666 0.58785 0.17184 0.0
H211 H 0.52647 0.63705 0.97256 0.0
H212 H 0.55628 0.47622 0.29763 0.0
H213 H 0.56175 0.46673 0.6142 0.0
H214 H 0.5896 0.4307 0.59077 0.0
H215 H 0.58399 0.43956 0.2734 0.0
Gd216 Gd 1.00347 0.50842 0.86082 0.0
Gd217 Gd 0.02124 0.53087 0.65668 0.0
C218 C 0.96172 0.52471 0.69448 0.0
C219 C 0.98122 0.50562 0.02893 0.0
C220 C 0.96052 0.52205 0.06393 0.0
C221 C 0.93681 0.52103 0.0177 0.0
C222 C 0.9656 0.54179 0.13113 0.0
C223 C 0.92497 0.56075 0.09497 0.0
C224 C 0.94796 0.56099 0.14653 0.0
C225 C 0.9193 0.54022 0.03269 0.0
C226 C 1.01585 0.4738 0.7203 0.0
C227 C 0.06304 0.5149 0.8239 0.0
C228 C 0.03907 0.53945 0.48344 0.0
C229 C 0.0595 0.55676 0.4543 0.0
C230 C 0.05778 0.57089 0.36691 0.0
C231 C 0.08007 0.56065 0.51795 0.0
C232 C 0.09789 0.59153 0.40441 0.0
C233 C 0.0991 0.57766 0.493 0.0
C234 C 0.07681 0.58817 0.34212 0.0
C235 C 1.01686 0.56862 0.79585 0.0
O236 O 0.96703 0.52214 0.79004 0.0
O237 O 0.97975 0.5253 0.62657 0.0
O238 O 0.97594 0.49014 0.95556 0.0
O239 O 1.00296 0.51709 0.01756 0.0
O240 O 1.01854 0.47013 0.81513 0.0
O241 O 1.00489 0.4946 0.70605 0.0
O242 O 0.05802 0.51888 0.72882 0.0
O243 O 0.04497 0.51282 0.89123 0.0
O244 O 1.01868 0.55054 0.5167 0.0
O245 O 0.04587 0.51985 0.53661 0.0
O246 O 0.02388 0.57223 0.70521 0.0
O247 O 1.01295 0.54539 0.80484 0.0
H248 H 0.93209 0.506 0.96635 0.0
H249 H 0.98372 0.54309 0.16781 0.0
H250 H 0.95267 0.57644 0.196 0.0
H251 H 0.90135 0.53909 0.99465 0.0
H252 H 0.04174 0.56857 0.31799 0.0
H253 H 0.08158 0.55038 0.58697 0.0
H254 H 0.1152 0.57923 0.54195 0.0
H255 H 0.07511 0.59871 0.27384 0.0
H256 H 0.16126 0.97381 0.21879 0.0
H257 H 0.19561 0.04509 0.29614 0.0
H258 H 0.12599 0.98273 0.32788 0.0
H259 H 0.15962 0.05468 0.40412 0.0
H260 H 0.10769 0.04747 0.6797 0.0
H261 H 0.14115 0.04359 0.55705 0.0
H262 H 0.08937 1.00571 0.35852 0.0
H263 H 0.05618 1.00876 0.48373 0.0
C264 C 0.16107 0.99165 0.25832 0.0
C265 C 0.18131 1.00868 0.24883 0.0
C266 C 0.14063 0.99691 0.32064 0.0
C267 C 0.13962 1.01952 0.37558 0.0
C268 C 0.15973 0.0369 0.36439 0.0
C269 C 0.18034 0.03153 0.30185 0.0
C270 C 0.10337 0.03851 0.60945 0.0
C271 C 0.07927 0.0282 0.59204 0.0
C272 C 0.12261 0.03641 0.53845 0.0
C273 C 0.11831 0.02408 0.44733 0.0
C274 C 0.09376 1.01481 0.42835 0.0
C275 C 0.07457 1.01674 0.49986 0.0
H276 H 0.5627 0.16799 0.21777 0.0
H277 H 0.4945 0.20428 0.31675 0.0
H278 H 0.55493 0.13307 0.33001 0.0
H279 H 0.48614 0.16872 0.42863 0.0
H280 H 0.49764 0.11522 0.69908 0.0
H281 H 0.50076 0.14952 0.579 0.0
H282 H 0.52984 0.09717 0.36135 0.0
H283 H 0.52743 0.06317 0.48269 0.0
C284 C 0.54579 0.16832 0.26287 0.0
C285 C 0.52923 0.18891 0.25809 0.0
C286 C 0.5412 0.14812 0.32704 0.0
C287 C 0.51979 0.14776 0.38869 0.0
C288 C 0.50296 0.16833 0.38316 0.0
C289 C 0.50762 0.18868 0.31852 0.0
C290 C 0.50455 0.11103 0.62532 0.0
C291 C 0.51255 0.08649 0.60086 0.0
C292 C 0.5062 0.13071 0.55602 0.0
C293 C 0.5158 0.12637 0.46011 0.0
C294 C 0.52287 0.10151 0.43486 0.0
C295 C 0.52135 0.0819 0.50429 0.0
H296 H 0.32922 0.49955 0.34969 0.0
H297 H 0.36655 0.56684 0.24499 0.0
H298 H 0.36549 0.49062 0.45711 0.0
H299 H 0.40225 0.55843 0.35242 0.0
H300 H 0.47228 0.53048 0.50071 0.0
H301 H 0.43774 0.53243 0.38125 0.0
H302 H 0.38592 0.50584 0.60533 0.0
H303 H 0.42063 0.50327 0.72352 0.0
C304 C 0.34521 0.51232 0.34908 0.0
C305 C 0.34503 0.53388 0.28858 0.0
C306 C 0.36597 0.50733 0.41113 0.0
C307 C 0.38705 0.52374 0.41375 0.0
C308 C 0.38678 0.54503 0.35166 0.0
C309 C 0.36615 0.54998 0.29028 0.0
C310 C 0.45356 0.52475 0.52401 0.0
C311 C 0.44922 0.51692 0.62195 0.0
C312 C 0.43365 0.52604 0.45569 0.0
C313 C 0.40877 0.51961 0.48341 0.0
C314 C 0.40471 0.51077 0.58049 0.0
C315 C 0.42465 0.50943 0.64868 0.0
H316 H 0.03628 0.33435 0.36511 0.0
H317 H 0.97187 0.3737 0.24814 0.0
H318 H 0.04443 0.36982 0.47877 0.0
H319 H 0.97948 0.40858 0.36146 0.0
H320 H 0.02879 0.42422 0.74719 0.0
H321 H 0.02728 0.38993 0.62559 0.0
H322 H 1.00612 0.44326 0.39905 0.0
H323 H 1.00694 0.47726 0.52138 0.0
C324 C 0.02402 0.35063 0.36306 0.0
C325 C 1.00347 0.35127 0.29731 0.0
C326 C 0.02854 0.37091 0.42869 0.0
C327 C 1.01269 0.3923 0.42956 0.0
C328 C 0.99245 0.39284 0.36227 0.0
C329 C 0.98795 0.37269 0.29742 0.0
C330 C 0.02404 0.42862 0.67115 0.0
C331 C 1.01771 0.45345 0.64426 0.0
C332 C 0.02331 0.40895 0.60109 0.0
C333 C 1.01629 0.41359 0.50215 0.0
C334 C 1.01107 0.43872 0.47473 0.0
C335 C 1.0117 0.45833 0.5448 0.0
H336 H 0.87593 0.96411 0.28953 0.0
H337 H 0.84005 0.0346 0.21747 0.0
H338 H 0.91068 0.97414 0.17778 0.0
H339 H 0.8751 0.04496 0.10595 0.0
H340 H 0.92069 0.03507 0.81592 0.0
H341 H 0.88968 0.03019 0.94684 0.0
H342 H 0.94719 1.00051 0.14013 0.0
H343 H 0.9785 1.00524 0.00673 0.0
C344 C 0.87569 0.982 0.25082 0.0
C345 C 0.85515 0.99849 0.26216 0.0
C346 C 0.89575 0.98783 0.18704 0.0
C347 C 0.89582 1.01033 0.13194 0.0
C348 C 0.87561 0.02729 0.146 0.0
C349 C 0.85554 0.02146 0.21045 0.0
C350 C 0.92687 0.02766 0.88655 0.0
C351 C 0.95212 0.02043 0.90053 0.0
C352 C 0.90902 0.02506 0.96227 0.0
C353 C 0.91575 1.015 0.05477 0.0
C354 C 0.9412 1.00815 0.06968 0.0
C355 C 0.95922 1.01094 0.99351 0.0
H356 H 0.5587 0.88518 0.30977 0.0
H357 H 0.51295 0.83456 0.13437 0.0
H358 H 0.55083 0.91924 0.19167 0.0
H359 H 0.50552 0.86857 0.01452 0.0
H360 H 0.5332 0.92574 0.76891 0.0
H361 H 0.53563 0.89265 0.89431 0.0
H362 H 0.51412 0.94633 0.1198 0.0
H363 H 0.51088 0.9794 0.99322 0.0
C364 C 0.54667 0.88145 0.2465 0.0
C365 C 0.53634 0.85724 0.23167 0.0
C366 C 0.54214 0.90098 0.17899 0.0
C367 C 0.52761 0.89663 0.09355 0.0
C368 C 0.51688 0.87249 0.07947 0.0
C369 C 0.52099 0.85306 0.14836 0.0
C370 C 0.52885 0.9305 0.84513 0.0
C371 C 0.52191 0.95526 0.87111 0.0
C372 C 0.53009 0.91147 0.91689 0.0
C373 C 0.52495 0.91678 0.01698 0.0
C374 C 0.51822 0.94162 0.04331 0.0
C375 C 0.5164 0.96057 0.97093 0.0
H376 H 0.65957 0.58207 0.24987 0.0
H377 H 0.69606 0.51157 0.18062 0.0
H378 H 0.62545 0.57175 0.13593 0.0
H379 H 0.66153 0.50085 0.06691 0.0
H380 H 0.61313 0.50683 0.78208 0.0
H381 H 0.64546 0.51356 0.90777 0.0
H382 H 0.58949 0.54544 0.10378 0.0
H383 H 0.5573 0.53915 0.97576 0.0
C384 C 0.66011 0.56414 0.21105 0.0
C385 C 0.68056 0.54767 0.22435 0.0
C386 C 0.64041 0.55814 0.14595 0.0
C387 C 0.64056 0.53544 0.09156 0.0
C388 C 0.66084 0.51865 0.10643 0.0
C389 C 0.68059 0.52468 0.17218 0.0
C390 C 0.60769 0.51518 0.85224 0.0
C391 C 0.58257 0.52246 0.86909 0.0
C392 C 0.62625 0.51886 0.92487 0.0
C393 C 0.62027 0.53003 0.01665 0.0
C394 C 0.59497 0.53703 0.03385 0.0
C395 C 0.57639 0.53327 0.96094 0.0
H396 H 0.97978 0.71248 0.05632 0.0
H397 H 1.01576 0.67536 0.30231 0.0
H398 H 0.98299 0.67407 0.95802 0.0
H399 H 1.0193 0.63648 0.20247 0.0
H400 H 1.00093 0.56571 0.99174 0.0
H401 H 0.9948 0.60106 0.10859 0.0
H402 H 1.01954 0.65311 0.88264 0.0
H403 H 0.02547 0.61827 0.76799 0.0
C404 C 0.98818 0.69596 0.0898 0.0
C405 C 0.99763 0.69707 0.18686 0.0
C406 C 0.99016 0.67393 0.03316 0.0
C407 C 1.00177 0.65222 0.07153 0.0
C408 C 1.01021 0.65283 0.17061 0.0
C409 C 1.00824 0.67511 0.22775 0.0
C410 C 1.00511 0.5847 0.96776 0.0
C411 C 1.01356 0.58914 0.87047 0.0
C412 C 1.00168 0.60495 0.0346 0.0
C413 C 1.0064 0.63004 1.00478 0.0
C414 C 1.01525 0.63418 0.9079 0.0
C415 C 1.01877 0.61411 0.84206 0.0
H416 H 0.96174 0.24599 0.4081 0.0
H417 H 0.91578 0.2415 0.14547 0.0
H418 H 0.93882 0.21109 0.47959 0.0
H419 H 0.89147 0.20716 0.21902 0.0
H420 H 0.91813 0.12308 0.24461 0.0
H421 H 0.909 0.16707 0.21662 0.0
H422 H 0.91022 0.1808 0.53284 0.0
H423 H 0.92124 0.13688 0.55995 0.0
C424 C 0.94552 0.23861 0.36849 0.0
C425 C 0.941 0.24575 0.27028 0.0
C426 C 0.93223 0.2184 0.40947 0.0
C427 C 0.91409 0.20528 0.35273 0.0
C428 C 0.90613 0.21606 0.26282 0.0
C429 C 0.9198 0.23596 0.22104 0.0
C430 C 0.91598 0.13538 0.30831 0.0
C431 C 0.9215 0.1267 0.40395 0.0
C432 C 0.91026 0.16071 0.29258 0.0
C433 C 0.90969 0.17792 0.37246 0.0
C434 C 0.91133 0.16831 0.46933 0.0
C435 C 0.91744 0.14298 0.48494 0.0
H436 H 0.28442 0.96556 0.36332 0.0
H437 H 0.29481 0.92421 0.09084 0.0
H438 H 0.31856 0.94227 0.43865 0.0
H439 H 0.32875 0.90013 0.16698 0.0
H440 H 0.41009 0.93378 0.2316 0.0
H441 H 0.36753 0.92373 0.18383 0.0
H442 H 0.348 0.90977 0.48985 0.0
H443 H 0.39134 0.9195 0.53816 0.0
C444 C 0.2929 0.95026 0.32168 0.0
C445 C 0.28763 0.94718 0.22058 0.0
C446 C 0.31261 0.93681 0.36487 0.0
C447 C 0.32714 0.92011 0.30719 0.0
C448 C 0.31841 0.91348 0.2122 0.0
C449 C 0.29886 0.92712 0.16875 0.0
C450 C 0.3972 0.92744 0.28866 0.0
C451 C 0.40402 0.92823 0.38914 0.0
C452 C 0.37257 0.92152 0.26106 0.0
C453 C 0.3541 0.91642 0.33332 0.0
C454 C 0.36167 0.9141 0.43264 0.0
C455 C 0.38645 0.91988 0.46029 0.0
H456 H 0.60619 0.31392 0.07505 0.0
H457 H 0.5838 0.27888 0.34969 0.0
H458 H 0.62675 0.34726 0.1655 0.0
H459 H 0.60755 0.31032 0.44121 0.0
H460 H 0.57736 0.38873 0.52346 0.0
H461 H 0.58947 0.34691 0.47715 0.0
H462 H 0.64213 0.37755 0.26238 0.0
H463 H 0.62825 0.42 0.3063 0.0
C464 C 0.60679 0.31265 0.15515 0.0
C465 C 0.59151 0.29512 0.20532 0.0
C466 C 0.6189 0.33185 0.20793 0.0
C467 C 0.61672 0.33304 0.31195 0.0
C468 C 0.60761 0.31137 0.36114 0.0
C469 C 0.59439 0.29284 0.30833 0.0
C470 C 0.59202 0.38659 0.46811 0.0
C471 C 0.60135 0.40758 0.41662 0.0
C472 C 0.59931 0.36231 0.4415 0.0
C473 C 0.61637 0.35825 0.36275 0.0
C474 C 0.62811 0.37959 0.32008 0.0
C475 C 0.6203 0.40401 0.34539 0.0
H476 H 0.24144 0.58143 0.38149 0.0
H477 H 0.232 0.6166 0.0964 0.0
H478 H 0.20492 0.6037 0.44362 0.0
H479 H 0.19538 0.63936 0.15878 0.0
H480 H 0.12894 0.62137 0.51971 0.0
H481 H 0.17159 0.63502 0.47665 0.0
H482 H 0.1591 0.61059 0.17485 0.0
H483 H 0.11729 0.59643 0.21788 0.0
C484 C 0.23264 0.59532 0.33415 0.0
C485 C 0.23884 0.5966 0.23326 0.0
C486 C 0.21151 0.60814 0.3697 0.0
C487 C 0.19653 0.62234 0.30442 0.0
C488 C 0.20613 0.6279 0.2098 0.0
C489 C 0.22723 0.61502 0.17423 0.0
C490 C 0.13516 0.61946 0.4436 0.0
C491 C 0.11998 0.60697 0.37304 0.0
C492 C 0.15949 0.62755 0.41887 0.0
C493 C 0.16895 0.62353 0.32289 0.0
C494 C 0.15249 0.6142 0.2495 0.0
C495 C 0.12833 0.60591 0.27437 0.0
H496 H 0.06053 0.76283 0.11948 0.0
H497 H 0.10619 0.79439 0.35439 0.0
H498 H 0.07796 0.79329 1.00504 0.0
H499 H 0.12259 0.82578 0.23996 0.0
H500 H 0.12337 0.89501 0.03451 0.0
H501 H 0.13397 0.85072 0.06721 0.0
H502 H 0.05469 0.83293 0.08953 0.0
H503 H 0.04417 0.87642 0.06565 0.0
C504 C 0.07546 0.77514 0.14578 0.0
C505 C 0.08071 0.77744 0.24755 0.0
C506 C 0.08555 0.79264 0.07952 0.0
C507 C 0.10028 0.81275 0.11562 0.0
C508 C 0.1106 0.81089 0.211 0.0
C509 C 0.10091 0.79305 0.277 0.0
C510 C 0.10822 0.88161 0.04636 0.0
C511 C 0.08283 0.88949 0.04689 0.0
C512 C 0.11436 0.85623 0.06311 0.0
C513 C 0.09517 0.83831 0.07752 0.0
C514 C 0.06991 0.8461 0.07458 0.0
C515 C 0.06386 0.87127 0.0609 0.0
H516 H 0.7301 0.91858 0.3103 0.0
H517 H 0.75467 0.97568 0.10447 0.0
H518 H 0.6926 0.91106 0.21012 0.0
H519 H 0.71721 0.96903 0.0067 0.0
H520 H 0.64156 0.97846 0.90388 0.0
H521 H 0.68044 0.95449 0.92496 0.0
H522 H 0.66156 0.94296 0.23359 0.0
H523 H 0.62291 0.96633 0.21147 0.0
C524 C 0.72827 0.92838 0.24032 0.0
C525 C 0.74453 0.94853 0.21731 0.0
C526 C 0.70661 0.92434 0.1835 0.0
C527 C 0.70109 0.94062 0.10429 0.0
C528 C 0.72039 0.95654 0.06876 0.0
C529 C 0.74214 0.96034 0.12493 0.0
C530 C 0.64562 0.9703 0.97558 0.0
C531 C 0.62965 0.97482 0.05687 0.0
C532 C 0.66776 0.95641 0.98746 0.0
C533 C 0.67445 0.94705 0.0812 0.0
C534 C 0.65709 0.94952 0.1598 0.0
C535 C 0.63492 0.96322 0.14765 0.0
H536 H 0.57196 0.75864 0.0999 0.0
H537 H 0.62221 0.73693 0.33529 0.0
H538 H 0.58094 0.7199 0.01332 0.0
H539 H 0.63178 0.6979 0.24734 0.0
H540 H 0.57223 0.63055 0.24186 0.0
H541 H 0.59729 0.66836 0.26472 0.0
H542 H 0.59698 0.68117 0.94833 0.0
H543 H 0.57146 0.6431 0.92591 0.0
C544 C 0.58642 0.74645 0.12984 0.0
C545 C 0.59522 0.74995 0.22698 0.0
C546 C 0.59154 0.72392 0.08009 0.0
C547 C 0.60576 0.70502 0.12699 0.0
C548 C 0.61977 0.71164 0.2117 0.0
C549 C 0.61454 0.73418 0.26163 0.0
C550 C 0.57822 0.64092 0.17685 0.0
C551 C 0.56926 0.63432 0.08256 0.0
C552 C 0.59289 0.6626 0.18963 0.0
C553 C 0.59893 0.67815 0.10828 0.0
C554 C 0.59232 0.66989 0.01264 0.0
C555 C 0.57753 0.64823 0.99996 0.0
H556 H 0.7825 0.58291 0.11365 0.0
H557 H 0.80255 0.6296 0.36377 0.0
H558 H 0.82169 0.59362 0.0337 0.0
H559 H 0.84202 0.64096 0.28262 0.0
H560 H 0.90938 0.58204 0.26825 0.0
H561 H 0.87184 0.60702 0.29365 0.0
H562 H 0.86051 0.61094 0.97666 0.0
H563 H 0.89821 0.58534 0.95183 0.0
C564 C 0.79446 0.59698 0.14853 0.0
C565 C 0.79025 0.60431 0.24711 0.0
C566 C 0.81723 0.60312 0.10262 0.0
C567 C 0.83576 0.61683 0.15497 0.0
C568 C 0.82858 0.62937 0.24254 0.0
C569 C 0.80581 0.6231 0.28865 0.0
C570 C 0.89941 0.589 0.2039 0.0
C571 C 0.90621 0.58111 0.10839 0.0
C572 C 0.87789 0.60361 0.21816 0.0
C573 C 0.86273 0.61066 0.13704 0.0
C574 C 0.87143 0.60541 0.04076 0.0
C575 C 0.89289 0.59061 0.02659 0.0
H576 H 0.97816 0.22673 0.92726 0.0
H577 H 0.03851 0.21432 0.13457 0.0
H578 H 0.98625 0.18594 0.85034 0.0
H579 H 0.04732 0.1735 0.05602 0.0
H580 H 1.01077 0.11356 0.70135 0.0
H581 H 1.01098 0.15748 0.75681 0.0
H582 H 0.02746 0.13314 0.05494 0.0
H583 H 0.02794 0.08947 0.99906 0.0
C584 C 0.99394 0.21568 0.95355 0.0
C585 C 1.00787 0.22391 0.03635 0.0
C586 C 0.99856 0.19212 0.90966 0.0
C587 C 1.01724 0.17597 0.94743 0.0
C588 C 0.03243 0.18508 0.02584 0.0
C589 C 0.02777 0.20875 0.06981 0.0
C590 C 1.01459 0.11756 0.77865 0.0
C591 C 1.01925 0.09777 0.84551 0.0
C592 C 1.01464 0.14285 0.81072 0.0
C593 C 1.01927 0.14916 0.91074 0.0
C594 C 0.02428 0.12931 0.97709 0.0
C595 C 0.0243 0.10408 0.94502 0.0
H596 H 0.30775 0.98781 0.8843 0.0
H597 H 0.31933 0.04613 0.10262 0.0
H598 H 0.34899 0.99655 0.81317 0.0
H599 H 0.36061 0.05571 0.02973 0.0
H600 H 0.44487 0.03682 0.97829 0.0
H601 H 0.40085 0.03669 0.02899 0.0
H602 H 0.37842 0.02127 0.72706 0.0
H603 H 0.42262 0.02065 0.67708 0.0
C604 C 0.31871 1.00335 0.9142 0.0
C605 C 0.31007 1.01648 0.99835 0.0
C606 C 0.34256 1.00835 0.87365 0.0
C607 C 0.35864 0.02665 0.91607 0.0
C608 C 0.34914 0.0411 0.99591 0.0
C609 C 0.32519 0.03603 0.03664 0.0
C610 C 0.43058 0.03357 0.92233 0.0
C611 C 0.43752 0.02851 0.82351 0.0
C612 C 0.40514 0.03371 0.95142 0.0
C613 C 0.3857 0.02894 0.88258 0.0
C614 C 0.39267 0.02462 0.78301 0.0
C615 C 0.41814 0.02435 0.75404 0.0
H616 H 0.53978 0.31279 0.8817 0.0
H617 H 0.49274 0.32915 0.13374 0.0
H618 H 0.53149 0.35448 0.81453 0.0
H619 H 0.48349 0.37089 0.06538 0.0
H620 H 0.50666 0.45344 0.99856 0.0
H621 H 0.50547 0.40951 0.05078 0.0
H622 H 0.50624 0.38568 0.74429 0.0
H623 H 0.5084 0.42963 0.6924 0.0
C624 C 0.52655 0.32491 0.92015 0.0
C625 C 0.51657 0.31747 0.01213 0.0
C626 C 0.52189 0.34903 0.88202 0.0
C627 C 0.50707 0.36654 0.93484 0.0
C628 C 0.49543 0.35828 0.02326 0.0
C629 C 0.50022 0.33408 0.06159 0.0
C630 C 0.50644 0.43887 0.94212 0.0
C631 C 0.50781 0.44528 0.84109 0.0
C632 C 0.50551 0.41351 0.97216 0.0
C633 C 0.50573 0.39368 0.90214 0.0
C634 C 0.50643 0.40019 0.80091 0.0
C635 C 0.50757 0.42555 0.77093 0.0
H636 H 0.22203 0.54677 0.90627 0.0
H637 H 0.20541 0.49797 0.15254 0.0
H638 H 0.1806 0.53825 0.83627 0.0
H639 H 0.16391 0.48859 0.08142 0.0
H640 H 0.10588 0.51416 0.70839 0.0
H641 H 0.14973 0.51252 0.76203 0.0
H642 H 0.12531 0.51062 0.0674 0.0
H643 H 0.08156 0.51141 0.01359 0.0
C644 C 0.20991 0.53316 0.94285 0.0
C645 C 0.21721 0.52273 0.03412 0.0
C646 C 0.18595 0.52836 0.90307 0.0
C647 C 0.16844 0.51299 0.95353 0.0
C648 C 0.17655 0.50096 0.04112 0.0
C649 C 0.2006 0.50583 0.08102 0.0
C650 C 0.10982 0.51319 0.78702 0.0
C651 C 0.08997 0.51301 0.85641 0.0
C652 C 0.1351 0.51235 0.818 0.0
C653 C 0.14141 0.51145 0.91947 0.0
C654 C 0.12147 0.51081 0.98864 0.0
C655 C 0.09621 0.51151 0.95764 0.0
H656 H 0.98735 0.81754 0.4161 0.0
H657 H 0.05555 0.8113 0.58727 0.0
H658 H 0.98064 0.86013 0.48304 0.0
H659 H 0.04948 0.85372 0.65198 0.0
H660 H 0.02793 0.92655 0.79839 0.0
H661 H 0.02743 0.88221 0.75243 0.0
H662 H 0.9978 0.90179 0.46482 0.0
H663 H 0.99754 0.94626 0.513 0.0
C664 C 1.00047 0.82495 0.47042 0.0
C665 C 0.02182 0.81087 0.49721 0.0
C666 C 0.99694 0.8496 0.50749 0.0
C667 C 1.01463 0.86078 0.57254 0.0
C668 C 0.03519 0.84597 0.60327 0.0
C669 C 0.03871 0.82148 0.56622 0.0
C670 C 0.02109 0.92149 0.72581 0.0
C671 C 1.01286 0.94027 0.65996 0.0
C672 C 0.02094 0.89588 0.6988 0.0
C673 C 1.0127 0.88805 0.60428 0.0
C674 C 1.00398 0.9068 0.53875 0.0
C675 C 1.00403 0.93248 0.56619 0.0
H676 H 0.7249 0.97334 0.59819 0.0
H677 H 0.71599 0.0349 0.39384 0.0
H678 H 0.6826 0.98081 0.66342 0.0
H679 H 0.67359 0.04272 0.45914 0.0
H680 H 0.58884 0.02227 0.4895 0.0
H681 H 0.63345 0.02092 0.44517 0.0
H682 H 0.65263 1.00697 0.75099 0.0
H683 H 0.6079 1.00777 0.79464 0.0
C684 C 0.71431 0.98928 0.57055 0.0
C685 C 0.72409 1.00393 0.49257 0.0
C686 C 0.68987 0.99345 0.60722 0.0
C687 C 0.67431 1.01218 0.56588 0.0
C688 C 0.68476 0.02786 0.49197 0.0
C689 C 0.70931 0.02378 0.45584 0.0
C690 C 0.60254 1.0189 0.54742 0.0
C691 C 0.59463 1.01515 0.64589 0.0
C692 C 0.62825 1.0184 0.52214 0.0
C693 C 0.64691 1.01402 0.59442 0.0
C694 C 0.63895 1.01025 0.69297 0.0
C695 C 0.61323 1.01086 0.71825 0.0
H696 H 0.50533 0.71764 0.36404 0.0
H697 H 0.55981 0.73188 0.59404 0.0
H698 H 0.49735 0.67551 0.43212 0.0
H699 H 0.55219 0.68987 0.66207 0.0
H700 H 0.52377 0.61574 0.79342 0.0
H701 H 0.52453 0.65985 0.74204 0.0
H702 H 0.5211 0.63634 0.43565 0.0
H703 H 0.51986 0.59226 0.48739 0.0
C704 C 0.51477 0.71216 0.43176 0.0
C705 C 0.53273 0.72832 0.47512 0.0
C706 C 0.51064 0.68779 0.46969 0.0
C707 C 0.52436 0.67898 0.55208 0.0
C708 C 0.54107 0.6959 0.59923 0.0
C709 C 0.54531 0.72014 0.56085 0.0
C710 C 0.52304 0.61993 0.71516 0.0
C711 C 0.52172 0.60026 0.64492 0.0
C712 C 0.52358 0.64533 0.68549 0.0
C713 C 0.52269 0.65189 0.58447 0.0
C714 C 0.52133 0.63219 0.51417 0.0
C715 C 0.52091 0.60679 0.5439 0.0
H716 H 0.80381 0.56479 0.60908 0.0
H717 H 0.81809 0.51182 0.3733 0.0
H718 H 0.84529 0.55621 0.67931 0.0
H719 H 0.85964 0.50279 0.44374 0.0
H720 H 0.94284 0.52431 0.50472 0.0
H721 H 0.89896 0.5258 0.45177 0.0
H722 H 0.87506 0.52858 0.75756 0.0
H723 H 0.91904 0.52762 0.81032 0.0
C724 C 0.81538 0.55034 0.57508 0.0
C725 C 0.80739 0.53855 0.48693 0.0
C726 C 0.83935 0.54556 0.61476 0.0
C727 C 0.85619 0.52904 0.56669 0.0
C728 C 0.84746 0.51595 0.48211 0.0
C729 C 0.82338 0.52066 0.44276 0.0
C730 C 0.92829 0.52524 0.56093 0.0
C731 C 0.93471 0.52586 0.66217 0.0
C732 C 0.90297 0.52581 0.53044 0.0
C733 C 0.88319 0.52708 0.60011 0.0
C734 C 0.88963 0.52772 0.70141 0.0
C735 C 0.91497 0.52707 0.73188 0.0
loop_
_geom_bond_atom_site_label_1
_geom_bond_atom_site_label_2
_geom_bond_distance
_geom_bond_site_symmetry_2
_ccdc_geom_bond_type
H0 C5 0.930 . S
H1 C8 0.930 . S
H2 C10 0.930 . S
H3 C4 1.016 . S
C4 H3 1.016 . S
C4 N11 1.286 . S
C5 H0 0.930 . S
C5 C6 1.397 . S
C5 C7 1.361 . S
C6 C5 1.397 . S
C6 C10 1.390 . S
C7 C5 1.361 . S
C7 C8 1.393 . S
C7 N11 1.413 . S
C8 H1 0.930 . S
C8 C7 1.393 . S
C8 C9 1.399 . S
C9 C8 1.399 . S
C9 C10 1.381 . S
C10 H2 0.930 . S
C10 C6 1.390 . S
C10 C9 1.381 . S
N11 C4 1.286 . S
N11 C7 1.413 . S
H12 C17 0.930 . S
H13 C20 0.930 . S
H14 C22 0.930 . S
H15 C16 1.016 . S
C16 H15 1.016 . S
C16 N23 1.286 1_655 S
C17 H12 0.930 . S
C17 C18 1.402 . S
C17 C19 1.361 . S
C18 C17 1.402 . S
C18 C22 1.387 1_455 S
C19 C17 1.361 . S
C19 C20 1.393 . S
C19 N23 1.413 . S
C20 H13 0.930 . S
C20 C19 1.393 . S
C20 C21 1.398 . S
C21 C20 1.398 . S
C21 C22 1.381 1_455 S
C22 H14 0.930 . S
C22 C18 1.387 1_655 S
C22 C21 1.381 1_655 S
N23 C16 1.286 1_455 S
N23 C19 1.413 . S
H24 C29 0.930 . S
H25 C32 0.930 . S
H26 C34 0.930 . S
H27 C28 1.016 . S
C28 H27 1.016 . S
C28 N35 1.286 1_565 S
C29 H24 0.930 . S
C29 C30 1.395 1_545 S
C29 C31 1.361 . S
C30 C29 1.395 1_565 S
C30 C34 1.391 . S
C31 C29 1.361 . S
C31 C32 1.393 . S
C31 N35 1.413 . S
C32 H25 0.930 . S
C32 C31 1.393 . S
C32 C33 1.393 1_545 S
C33 C32 1.393 1_565 S
C33 C34 1.385 . S
C34 H26 0.930 . S
C34 C30 1.391 . S
C34 C33 1.385 . S
N35 C28 1.286 1_545 S
N35 C31 1.413 . S
H36 C41 0.930 . S
H37 C44 0.930 . S
H38 C46 0.930 . S
H39 C40 1.016 . S
C40 H39 1.016 . S
C40 N47 1.286 . S
C41 H36 0.930 . S
C41 C42 1.397 . S
C41 C43 1.361 . S
C42 C41 1.397 . S
C42 C46 1.390 . S
C43 C41 1.361 . S
C43 C44 1.393 . S
C43 N47 1.413 . S
C44 H37 0.930 . S
C44 C43 1.393 . S
C44 C45 1.399 . S
C45 C44 1.399 . S
C45 C46 1.381 . S
C46 H38 0.930 . S
C46 C42 1.390 . S
C46 C45 1.381 . S
N47 C40 1.286 . S
N47 C43 1.413 . S
H48 C53 0.930 . S
H49 C56 0.930 . S
H50 C58 0.930 . S
H51 C52 1.016 . S
C52 H51 1.016 . S
C52 N59 1.286 . S
C53 H48 0.930 . S
C53 C54 1.397 . S
C53 C55 1.361 1_556 S
C54 C53 1.397 . S
C54 C58 1.390 . S
C55 C53 1.361 1_554 S
C55 C56 1.393 . S
C55 N59 1.413 . S
C56 H49 0.930 . S
C56 C55 1.393 . S
C56 C57 1.399 . S
C57 C56 1.399 . S
C57 C58 1.381 1_554 S
C58 H50 0.930 . S
C58 C54 1.390 . S
C58 C57 1.381 1_556 S
N59 C52 1.286 . S
N59 C55 1.413 . S
H60 C65 0.930 . S
H61 C68 0.930 . S
H62 C70 0.930 1_655 S
H63 C64 1.016 1_655 S
C64 H63 1.016 1_455 S
C64 N71 1.286 . S
C65 H60 0.930 . S
C65 C66 1.397 . S
C65 C67 1.361 1_556 S
C66 C65 1.397 . S
C66 C70 1.390 . S
C67 C65 1.361 1_554 S
C67 C68 1.393 . S
C67 N71 1.413 . S
C68 H61 0.930 . S
C68 C67 1.393 . S
C68 C69 1.399 . S
C69 C68 1.399 . S
C69 C70 1.381 1_554 S
C70 H62 0.930 1_455 S
C70 C66 1.390 . S
C70 C69 1.381 1_556 S
N71 C64 1.286 . S
N71 C67 1.413 . S
H72 C77 0.930 . S
H73 C80 0.930 . S
H74 C82 0.929 1_565 S
H75 C76 1.016 1_565 S
C76 H75 1.016 1_545 S
C76 N83 1.286 . S
C77 H72 0.930 . S
C77 C78 1.397 . S
C77 C79 1.361 1_556 S
C78 C77 1.397 . S
C78 C82 1.391 . S
C79 C77 1.361 1_554 S
C79 C80 1.393 . S
C79 N83 1.413 . S
C80 H73 0.930 . S
C80 C79 1.393 . S
C80 C81 1.399 . S
C81 C80 1.399 . S
C81 C82 1.381 1_554 S
C82 H74 0.929 1_545 S
C82 C78 1.391 . S
C82 C81 1.381 1_556 S
N83 C76 1.286 . S
N83 C79 1.413 . S
H84 C89 0.930 . S
H85 C92 0.930 . S
H86 C94 0.930 . S
H87 C88 1.016 . S
C88 H87 1.016 . S
C88 N95 1.286 . S
C89 H84 0.930 . S
C89 C90 1.397 . S
C89 C91 1.361 1_556 S
C90 C89 1.397 . S
C90 C94 1.390 . S
C91 C89 1.361 1_554 S
C91 C92 1.393 . S
C91 N95 1.413 . S
C92 H85 0.930 . S
C92 C91 1.393 . S
C92 C93 1.399 . S
C93 C92 1.399 . S
C93 C94 1.381 1_554 S
C94 H86 0.930 . S
C94 C90 1.390 . S
C94 C93 1.381 1_556 S
N95 C88 1.286 . S
N95 C91 1.413 . S
Gd96 C99 2.818 . S
Gd96 O116 2.377 . S
Gd96 O118 2.448 . S
Gd96 O119 2.506 . S
Gd96 O120 2.435 . S
Gd96 O121 2.717 1_565 S
Gd96 O123 2.395 1_565 S
Gd96 O127 2.327 1_455 S
Gd97 C108 2.818 . S
Gd97 O117 2.395 1_545 S
Gd97 O121 2.327 1_655 S
Gd97 O122 2.377 . S
Gd97 O124 2.448 . S
Gd97 O125 2.515 . S
Gd97 O126 2.435 . S
Gd97 O127 2.717 1_545 S
C98 O116 1.240 1_655 S
C98 O117 1.240 . S
C99 Gd96 2.818 . S
C99 C100 1.510 . S
C99 O118 1.249 . S
C99 O119 1.252 . S
C100 C99 1.510 . S
C100 C101 1.404 1_556 S
C100 C102 1.352 1_556 S
C101 C100 1.404 1_554 S
C101 C105 1.389 . S
C101 H128 0.930 1_554 S
C102 C100 1.352 1_554 S
C102 C104 1.374 . S
C102 H129 0.931 1_455 S
C103 C104 1.359 . S
C103 C105 1.364 . S
C104 C102 1.374 . S
C104 C103 1.359 . S
C104 H130 0.931 1_455 S
C105 C101 1.389 . S
C105 C103 1.364 . S
C105 H131 0.931 . S
C106 O120 1.269 . S
C106 O121 1.250 1_565 S
C107 O122 1.240 1_455 S
C107 O123 1.240 . S
C108 Gd97 2.818 . S
C108 C109 1.510 . S
C108 O124 1.249 . S
C108 O125 1.273 . S
C109 C108 1.510 . S
C109 C110 1.404 . S
C109 C111 1.352 . S
C110 C109 1.404 . S
C110 C114 1.389 . S
C110 H132 0.930 . S
C111 C109 1.352 . S
C111 C113 1.374 . S
C111 H133 0.931 1_655 S
C112 C113 1.359 . S
C112 C114 1.364 . S
C113 C111 1.374 . S
C113 C112 1.359 . S
C113 H134 0.931 1_655 S
C114 C110 1.389 . S
C114 C112 1.364 . S
C114 H135 0.931 . S
C115 O126 1.256 . S
C115 O127 1.257 1_545 S
O116 Gd96 2.377 . S
O116 C98 1.240 1_455 S
O117 Gd97 2.395 1_565 S
O117 C98 1.240 . S
O118 Gd96 2.448 . S
O118 C99 1.249 . S
O119 Gd96 2.506 . S
O119 C99 1.252 . S
O120 Gd96 2.435 . S
O120 C106 1.269 . S
O121 Gd96 2.717 1_545 S
O121 Gd97 2.327 1_455 S
O121 C106 1.250 1_545 S
O122 Gd97 2.377 . S
O122 C107 1.240 1_655 S
O123 Gd96 2.395 1_545 S
O123 C107 1.240 . S
O124 Gd97 2.448 . S
O124 C108 1.249 . S
O125 Gd97 2.515 . S
O125 C108 1.273 . S
O126 Gd97 2.435 . S
O126 C115 1.256 . S
O127 Gd96 2.327 1_655 S
O127 Gd97 2.717 1_565 S
O127 C115 1.257 1_565 S
H128 C101 0.930 1_556 S
H129 C102 0.931 1_655 S
H130 C104 0.931 1_655 S
H131 C105 0.931 . S
H132 C110 0.930 . S
H133 C111 0.931 1_455 S
H134 C113 0.931 1_455 S
H135 C114 0.931 . S
Gd136 C139 2.818 . S
Gd136 O156 2.377 . S
Gd136 O158 2.448 . S
Gd136 O159 2.506 . S
Gd136 O160 2.435 . S
Gd136 O161 2.717 . S
Gd136 O163 2.395 . S
Gd136 O167 2.327 1_545 S
Gd137 C148 2.818 . S
Gd137 O157 2.395 . S
Gd137 O161 2.327 1_565 S
Gd137 O162 2.377 . S
Gd137 O164 2.448 . S
Gd137 O165 2.506 . S
Gd137 O166 2.435 . S
Gd137 O167 2.717 . S
C138 O156 1.240 1_565 S
C138 O157 1.240 . S
C139 Gd136 2.818 . S
C139 C140 1.510 . S
C139 O158 1.249 . S
C139 O159 1.252 . S
C140 C139 1.510 . S
C140 C141 1.404 1_556 S
C140 C142 1.352 1_556 S
C141 C140 1.404 1_554 S
C141 C145 1.389 . S
C141 H168 0.930 1_554 S
C142 C140 1.352 1_554 S
C142 C144 1.374 . S
C142 H169 0.931 1_545 S
C143 C144 1.359 . S
C143 C145 1.364 . S
C144 C142 1.374 . S
C144 C143 1.359 . S
C144 H170 0.931 1_545 S
C145 C141 1.389 . S
C145 C143 1.364 . S
C145 H171 0.931 . S
C146 O160 1.256 . S
C146 O161 1.257 . S
C147 O162 1.240 1_545 S
C147 O163 1.240 . S
C148 Gd137 2.818 . S
C148 C149 1.510 . S
C148 O164 1.249 . S
C148 O165 1.252 . S
C149 C148 1.510 . S
C149 C150 1.404 . S
C149 C151 1.352 . S
C150 C149 1.404 . S
C150 C154 1.389 . S
C150 H172 0.930 . S
C151 C149 1.352 . S
C151 C153 1.374 . S
C151 H173 0.931 1_565 S
C152 C153 1.359 . S
C152 C154 1.364 . S
C153 C151 1.374 . S
C153 C152 1.359 . S
C153 H174 0.931 1_565 S
C154 C150 1.389 . S
C154 C152 1.364 . S
C154 H175 0.931 . S
C155 O166 1.256 . S
C155 O167 1.257 . S
O156 Gd136 2.377 . S
O156 C138 1.240 1_545 S
O157 Gd137 2.395 . S
O157 C138 1.240 . S
O158 Gd136 2.448 . S
O158 C139 1.249 . S
O159 Gd136 2.506 . S
O159 C139 1.252 . S
O160 Gd136 2.435 . S
O160 C146 1.256 . S
O161 Gd136 2.717 . S
O161 Gd137 2.327 1_545 S
O161 C146 1.257 . S
O162 Gd137 2.377 . S
O162 C147 1.240 1_565 S
O163 Gd136 2.395 . S
O163 C147 1.240 . S
O164 Gd137 2.448 . S
O164 C148 1.249 . S
O165 Gd137 2.506 . S
O165 C148 1.252 . S
O166 Gd137 2.435 . S
O166 C155 1.256 . S
O167 Gd136 2.327 1_565 S
O167 Gd137 2.717 . S
O167 C155 1.257 . S
H168 C141 0.930 1_556 S
H169 C142 0.931 1_565 S
H170 C144 0.931 1_565 S
H171 C145 0.931 . S
H172 C150 0.930 . S
H173 C151 0.931 1_545 S
H174 C153 0.931 1_545 S
H175 C154 0.931 . S
Gd176 C179 2.818 . S
Gd176 O196 2.377 . S
Gd176 O198 2.448 . S
Gd176 O199 2.506 . S
Gd176 O200 2.435 . S
Gd176 O201 2.717 . S
Gd176 O203 2.395 . S
Gd176 O207 2.327 . S
Gd177 C188 2.818 . S
Gd177 O197 2.395 . S
Gd177 O201 2.327 . S
Gd177 O202 2.377 . S
Gd177 O204 2.448 . S
Gd177 O205 2.506 . S
Gd177 O206 2.435 . S
Gd177 O207 2.717 . S
C178 O196 1.240 . S
C178 O197 1.240 . S
C179 Gd176 2.818 . S
C179 C180 1.510 . S
C179 O198 1.249 . S
C179 O199 1.252 . S
C180 C179 1.510 . S
C180 C181 1.404 1_556 S
C180 C182 1.352 1_556 S
C181 C180 1.404 1_554 S
C181 C185 1.389 . S
C181 H208 0.930 1_554 S
C182 C180 1.352 1_554 S
C182 C184 1.374 . S
C182 H209 0.931 . S
C183 C184 1.359 . S
C183 C185 1.364 . S
C184 C182 1.374 . S
C184 C183 1.359 . S
C184 H210 0.931 . S
C185 C181 1.389 . S
C185 C183 1.364 . S
C185 H211 0.931 . S
C186 O200 1.256 . S
C186 O201 1.257 . S
C187 O202 1.240 . S
C187 O203 1.240 . S
C188 Gd177 2.818 . S
C188 C189 1.510 . S
C188 O204 1.249 . S
C188 O205 1.252 . S
C189 C188 1.510 . S
C189 C190 1.404 . S
C189 C191 1.352 . S
C190 C189 1.404 . S
C190 C194 1.389 . S
C190 H212 0.930 . S
C191 C189 1.352 . S
C191 C193 1.374 . S
C191 H213 0.931 . S
C192 C193 1.359 . S
C192 C194 1.364 . S
C193 C191 1.374 . S
C193 C192 1.359 . S
C193 H214 0.931 . S
C194 C190 1.389 . S
C194 C192 1.364 . S
C194 H215 0.931 . S
C195 O206 1.256 . S
C195 O207 1.257 . S
O196 Gd176 2.377 . S
O196 C178 1.240 . S
O197 Gd177 2.395 . S
O197 C178 1.240 . S
O198 Gd176 2.448 . S
O198 C179 1.249 . S
O199 Gd176 2.506 . S
O199 C179 1.252 . S
O200 Gd176 2.435 . S
O200 C186 1.256 . S
O201 Gd176 2.717 . S
O201 Gd177 2.327 . S
O201 C186 1.257 . S
O202 Gd177 2.377 . S
O202 C187 1.240 . S
O203 Gd176 2.395 . S
O203 C187 1.240 . S
O204 Gd177 2.448 . S
O204 C188 1.249 . S
O205 Gd177 2.506 . S
O205 C188 1.252 . S
O206 Gd177 2.435 . S
O206 C195 1.256 . S
O207 Gd176 2.327 . S
O207 Gd177 2.717 . S
O207 C195 1.257 . S
H208 C181 0.930 1_556 S
H209 C182 0.931 . S
H210 C184 0.931 . S
H211 C185 0.931 . S
H212 C190 0.930 . S
H213 C191 0.931 . S
H214 C193 0.931 . S
H215 C194 0.931 . S
Gd216 C219 2.818 . S
Gd216 O236 2.377 . S
Gd216 O238 2.448 . S
Gd216 O239 2.506 . S
Gd216 O240 2.435 . S
Gd216 O241 2.717 1_655 S
Gd216 O243 2.395 1_655 S
Gd216 O247 2.327 . S
Gd217 C228 2.818 . S
Gd217 O237 2.395 1_455 S
Gd217 O241 2.327 . S
Gd217 O242 2.377 . S
Gd217 O244 2.448 . S
Gd217 O245 2.506 . S
Gd217 O246 2.435 . S
Gd217 O247 2.717 1_455 S
C218 O236 1.240 . S
C218 O237 1.240 . S
C219 Gd216 2.818 . S
C219 C220 1.510 . S
C219 O238 1.249 . S
C219 O239 1.252 . S
C220 C219 1.510 . S
C220 C221 1.404 1_556 S
C220 C222 1.352 1_556 S
C221 C220 1.404 1_554 S
C221 C225 1.389 . S
C221 H248 0.930 1_554 S
C222 C220 1.352 1_554 S
C222 C224 1.374 . S
C222 H249 0.931 . S
C223 C224 1.359 . S
C223 C225 1.364 . S
C224 C222 1.374 . S
C224 C223 1.359 . S
C224 H250 0.931 . S
C225 C221 1.389 . S
C225 C223 1.364 . S
C225 H251 0.931 . S
C226 O240 1.249 1_455 S
C226 O241 1.261 . S
C227 O242 1.240 . S
C227 O243 1.240 . S
C228 Gd217 2.818 . S
C228 C229 1.510 . S
C228 O244 1.249 . S
C228 O245 1.252 . S
C229 C228 1.510 . S
C229 C230 1.404 . S
C229 C231 1.352 . S
C230 C229 1.404 . S
C230 C234 1.389 . S
C230 H252 0.930 . S
C231 C229 1.352 . S
C231 C233 1.374 . S
C231 H253 0.931 . S
C232 C233 1.359 . S
C232 C234 1.364 . S
C233 C231 1.374 . S
C233 C232 1.359 . S
C233 H254 0.931 . S
C234 C230 1.389 . S
C234 C232 1.364 . S
C234 H255 0.931 . S
C235 O246 1.256 . S
C235 O247 1.257 1_455 S
O236 Gd216 2.377 . S
O236 C218 1.240 . S
O237 Gd217 2.395 1_655 S
O237 C218 1.240 . S
O238 Gd216 2.448 . S
O238 C219 1.249 . S
O239 Gd216 2.506 . S
O239 C219 1.252 . S
O240 Gd216 2.435 . S
O240 C226 1.249 1_655 S
O241 Gd216 2.717 1_455 S
O241 Gd217 2.327 . S
O241 C226 1.261 . S
O242 Gd217 2.377 . S
O242 C227 1.240 . S
O243 Gd216 2.395 1_455 S
O243 C227 1.240 . S
O244 Gd217 2.448 . S
O244 C228 1.249 . S
O245 Gd217 2.506 . S
O245 C228 1.252 . S
O246 Gd217 2.435 . S
O246 C235 1.256 . S
O247 Gd216 2.327 . S
O247 Gd217 2.717 1_655 S
O247 C235 1.257 1_655 S
H248 C221 0.930 1_556 S
H249 C222 0.931 . S
H250 C224 0.931 . S
H251 C225 0.931 . S
H252 C230 0.930 . S
H253 C231 0.931 . S
H254 C233 0.931 . S
H255 C234 0.931 . S
H256 C264 0.950 . S
H257 C269 0.950 . S
H258 C266 0.950 . S
H259 C268 0.950 . S
H260 C270 0.947 1_565 S
H261 C272 0.949 1_565 S
H262 C274 0.950 . S
H263 C275 0.950 . S
C264 H256 0.950 . S
C264 C265 1.386 . S
C264 C266 1.391 . S
C265 C264 1.386 . S
C265 C269 1.393 1_545 S
C266 H258 0.950 . S
C266 C264 1.391 . S
C266 C267 1.400 . S
C267 C266 1.400 . S
C267 C268 1.398 1_545 S
C267 C273 1.491 . S
C268 H259 0.950 . S
C268 C267 1.398 1_565 S
C268 C269 1.391 . S
C269 H257 0.950 . S
C269 C265 1.393 1_565 S
C269 C268 1.391 . S
C270 H260 0.947 1_545 S
C270 C271 1.389 . S
C270 C272 1.391 . S
C271 C270 1.389 . S
C271 C275 1.393 . S
C272 H261 0.949 1_545 S
C272 C270 1.391 . S
C272 C273 1.401 . S
C273 C267 1.491 . S
C273 C272 1.401 . S
C273 C274 1.398 . S
C274 H262 0.950 . S
C274 C273 1.398 . S
C274 C275 1.391 . S
C275 H263 0.950 . S
C275 C271 1.393 . S
C275 C274 1.391 . S
H276 C284 0.950 . S
H277 C289 0.950 . S
H278 C286 0.950 . S
H279 C288 0.950 . S
H280 C290 0.950 . S
H281 C292 0.950 . S
H282 C294 0.950 . S
H283 C295 0.950 . S
C284 H276 0.950 . S
C284 C285 1.386 . S
C284 C286 1.391 . S
C285 C284 1.386 . S
C285 C289 1.393 . S
C286 H278 0.950 . S
C286 C284 1.391 . S
C286 C287 1.400 . S
C287 C286 1.400 . S
C287 C288 1.398 . S
C287 C293 1.491 . S
C288 H279 0.950 . S
C288 C287 1.398 . S
C288 C289 1.391 . S
C289 H277 0.950 . S
C289 C285 1.393 . S
C289 C288 1.391 . S
C290 H280 0.950 . S
C290 C291 1.386 . S
C290 C292 1.391 . S
C291 C290 1.386 . S
C291 C295 1.393 . S
C292 H281 0.950 . S
C292 C290 1.391 . S
C292 C293 1.400 . S
C293 C287 1.491 . S
C293 C292 1.400 . S
C293 C294 1.398 . S
C294 H282 0.950 . S
C294 C293 1.398 . S
C294 C295 1.391 . S
C295 H283 0.950 . S
C295 C291 1.393 . S
C295 C294 1.391 . S
H296 C304 0.950 . S
H297 C309 0.950 . S
H298 C306 0.950 . S
H299 C308 0.950 . S
H300 C310 0.950 . S
H301 C312 0.950 . S
H302 C314 0.950 . S
H303 C315 0.950 . S
C304 H296 0.950 . S
C304 C305 1.386 . S
C304 C306 1.391 . S
C305 C304 1.386 . S
C305 C309 1.393 . S
C306 H298 0.950 . S
C306 C304 1.391 . S
C306 C307 1.400 . S
C307 C306 1.400 . S
C307 C308 1.398 . S
C307 C313 1.491 . S
C308 H299 0.950 . S
C308 C307 1.398 . S
C308 C309 1.391 . S
C309 H297 0.950 . S
C309 C305 1.393 . S
C309 C308 1.391 . S
C310 H300 0.950 . S
C310 C311 1.386 . S
C310 C312 1.391 . S
C311 C310 1.386 . S
C311 C315 1.393 . S
C312 H301 0.950 . S
C312 C310 1.391 . S
C312 C313 1.400 . S
C313 C307 1.491 . S
C313 C312 1.400 . S
C313 C314 1.398 . S
C314 H302 0.950 . S
C314 C313 1.398 . S
C314 C315 1.391 . S
C315 H303 0.950 . S
C315 C311 1.393 . S
C315 C314 1.391 . S
H316 C324 0.950 . S
H317 C329 0.950 . S
H318 C326 0.950 . S
H319 C328 0.950 . S
H320 C330 0.950 . S
H321 C332 0.950 . S
H322 C334 0.950 . S
H323 C335 0.950 . S
C324 H316 0.950 . S
C324 C325 1.386 . S
C324 C326 1.391 . S
C325 C324 1.386 . S
C325 C329 1.393 1_455 S
C326 H318 0.950 . S
C326 C324 1.391 . S
C326 C327 1.400 . S
C327 C326 1.400 . S
C327 C328 1.398 1_455 S
C327 C333 1.491 . S
C328 H319 0.950 . S
C328 C327 1.398 1_655 S
C328 C329 1.391 . S
C329 H317 0.950 . S
C329 C325 1.393 1_655 S
C329 C328 1.391 . S
C330 H320 0.950 . S
C330 C331 1.386 1_655 S
C330 C332 1.391 . S
C331 C330 1.386 1_455 S
C331 C335 1.393 . S
C332 H321 0.950 . S
C332 C330 1.391 . S
C332 C333 1.400 1_655 S
C333 C327 1.491 . S
C333 C332 1.400 1_455 S
C333 C334 1.398 . S
C334 H322 0.950 . S
C334 C333 1.398 . S
C334 C335 1.391 . S
C335 H323 0.950 . S
C335 C331 1.393 . S
C335 C334 1.391 . S
H336 C344 0.949 1_545 S
H337 C349 0.950 . S
H338 C346 0.949 . S
H339 C348 0.950 . S
H340 C350 0.950 . S
H341 C352 0.950 . S
H342 C354 0.950 . S
H343 C355 0.950 . S
C344 H336 0.949 1_565 S
C344 C345 1.386 . S
C344 C346 1.391 1_565 S
C345 C344 1.386 . S
C345 C349 1.393 . S
C346 H338 0.949 . S
C346 C344 1.391 1_545 S
C346 C347 1.401 1_545 S
C347 C346 1.401 1_565 S
C347 C348 1.398 . S
C347 C353 1.491 . S
C348 H339 0.950 . S
C348 C347 1.398 . S
C348 C349 1.391 . S
C349 H337 0.950 . S
C349 C345 1.393 . S
C349 C348 1.391 . S
C350 H340 0.950 . S
C350 C351 1.390 . S
C350 C352 1.391 . S
C351 C350 1.390 . S
C351 C355 1.389 1_566 S
C352 H341 0.950 . S
C352 C350 1.391 . S
C352 C353 1.400 1_556 S
C353 C347 1.491 . S
C353 C352 1.400 1_554 S
C353 C354 1.398 1_565 S
C354 H342 0.950 . S
C354 C353 1.398 1_545 S
C354 C355 1.391 . S
C355 H343 0.950 . S
C355 C351 1.389 1_544 S
C355 C354 1.391 . S
H356 C364 0.950 . S
H357 C369 0.950 . S
H358 C366 0.950 . S
H359 C368 0.950 . S
H360 C370 0.950 . S
H361 C372 0.950 . S
H362 C374 0.950 . S
H363 C375 0.950 . S
C364 H356 0.950 . S
C364 C365 1.386 . S
C364 C366 1.391 . S
C365 C364 1.386 . S
C365 C369 1.393 . S
C366 H358 0.950 . S
C366 C364 1.391 . S
C366 C367 1.400 . S
C367 C366 1.400 . S
C367 C368 1.398 . S
C367 C373 1.491 . S
C368 H359 0.950 . S
C368 C367 1.398 . S
C368 C369 1.391 . S
C369 H357 0.950 . S
C369 C365 1.393 . S
C369 C368 1.391 . S
C370 H360 0.950 . S
C370 C371 1.386 . S
C370 C372 1.391 . S
C371 C370 1.386 . S
C371 C375 1.393 1_556 S
C372 H361 0.950 . S
C372 C370 1.391 . S
C372 C373 1.400 1_556 S
C373 C367 1.491 . S
C373 C372 1.400 1_554 S
C373 C374 1.398 . S
C374 H362 0.950 . S
C374 C373 1.398 . S
C374 C375 1.391 . S
C375 H363 0.950 . S
C375 C371 1.393 1_554 S
C375 C374 1.391 . S
H376 C384 0.950 . S
H377 C389 0.950 . S
H378 C386 0.950 . S
H379 C388 0.950 . S
H380 C390 0.950 . S
H381 C392 0.950 . S
H382 C394 0.950 . S
H383 C395 0.950 . S
C384 H376 0.950 . S
C384 C385 1.386 . S
C384 C386 1.391 . S
C385 C384 1.386 . S
C385 C389 1.393 . S
C386 H378 0.950 . S
C386 C384 1.391 . S
C386 C387 1.400 . S
C387 C386 1.400 . S
C387 C388 1.398 . S
C387 C393 1.491 . S
C388 H379 0.950 . S
C388 C387 1.398 . S
C388 C389 1.391 . S
C389 H377 0.950 . S
C389 C385 1.393 . S
C389 C388 1.391 . S
C390 H380 0.950 . S
C390 C391 1.386 . S
C390 C392 1.391 . S
C391 C390 1.386 . S
C391 C395 1.393 1_556 S
C392 H381 0.950 . S
C392 C390 1.391 . S
C392 C393 1.400 1_556 S
C393 C387 1.491 . S
C393 C392 1.400 1_554 S
C393 C394 1.398 . S
C394 H382 0.950 . S
C394 C393 1.398 . S
C394 C395 1.391 . S
C395 H383 0.950 . S
C395 C391 1.393 1_554 S
C395 C394 1.391 . S
H396 C404 0.950 . S
H397 C409 0.950 . S
H398 C406 0.950 . S
H399 C408 0.950 . S
H400 C410 0.950 . S
H401 C412 0.950 . S
H402 C414 0.950 . S
H403 C415 0.950 . S
C404 H396 0.950 . S
C404 C405 1.390 . S
C404 C406 1.391 . S
C405 C404 1.390 . S
C405 C409 1.388 1_655 S
C406 H398 0.950 . S
C406 C404 1.391 . S
C406 C407 1.418 . S
C407 C406 1.418 . S
C407 C408 1.381 1_655 S
C407 C413 1.490 . S
C408 H399 0.950 . S
C408 C407 1.381 1_455 S
C408 C409 1.391 . S
C409 H397 0.950 . S
C409 C405 1.388 1_455 S
C409 C408 1.391 . S
C410 H400 0.950 . S
C410 C411 1.386 1_455 S
C410 C412 1.391 1_556 S
C411 C410 1.386 1_655 S
C411 C415 1.393 . S
C412 H401 0.950 . S
C412 C410 1.391 1_554 S
C412 C413 1.365 1_455 S
C413 C407 1.490 . S
C413 C412 1.365 1_655 S
C413 C414 1.435 . S
C414 H402 0.950 . S
C414 C413 1.435 . S
C414 C415 1.391 1_554 S
C415 H403 0.950 . S
C415 C411 1.393 . S
C415 C414 1.391 1_556 S
H416 C424 0.950 . S
H417 C429 0.950 . S
H418 C426 0.950 . S
H419 C428 0.950 . S
H420 C430 0.950 . S
H421 C432 0.950 . S
H422 C434 0.950 1_455 S
H423 C435 0.950 1_455 S
C424 H416 0.950 . S
C424 C425 1.386 . S
C424 C426 1.391 . S
C425 C424 1.386 . S
C425 C429 1.393 1_455 S
C426 H418 0.950 . S
C426 C424 1.391 . S
C426 C427 1.400 1_455 S
C427 C426 1.400 1_655 S
C427 C428 1.398 . S
C427 C433 1.491 . S
C428 H419 0.950 . S
C428 C427 1.398 . S
C428 C429 1.391 . S
C429 H417 0.950 . S
C429 C425 1.393 1_655 S
C429 C428 1.391 . S
C430 H420 0.950 . S
C430 C431 1.386 . S
C430 C432 1.391 . S
C431 C430 1.386 . S
C431 C435 1.393 . S
C432 H421 0.950 . S
C432 C430 1.391 . S
C432 C433 1.400 . S
C433 C427 1.491 . S
C433 C432 1.400 . S
C433 C434 1.398 . S
C434 H422 0.950 1_655 S
C434 C433 1.398 . S
C434 C435 1.391 . S
C435 H423 0.950 1_655 S
C435 C431 1.393 . S
C435 C434 1.391 . S
H436 C444 0.950 . S
H437 C449 0.950 . S
H438 C446 0.950 . S
H439 C448 0.950 . S
H440 C450 0.950 . S
H441 C452 0.950 . S
H442 C454 0.950 . S
H443 C455 0.950 . S
C444 H436 0.950 . S
C444 C445 1.386 . S
C444 C446 1.391 1_545 S
C445 C444 1.386 . S
C445 C449 1.393 1_545 S
C446 H438 0.950 . S
C446 C444 1.391 1_565 S
C446 C447 1.400 . S
C447 C446 1.400 . S
C447 C448 1.398 . S
C447 C453 1.491 . S
C448 H439 0.950 . S
C448 C447 1.398 . S
C448 C449 1.391 . S
C449 H437 0.950 . S
C449 C445 1.393 1_565 S
C449 C448 1.391 . S
C450 H440 0.950 . S
C450 C451 1.386 . S
C450 C452 1.391 . S
C451 C450 1.386 . S
C451 C455 1.393 . S
C452 H441 0.950 . S
C452 C450 1.391 . S
C452 C453 1.400 . S
C453 C447 1.491 . S
C453 C452 1.400 . S
C453 C454 1.398 . S
C454 H442 0.950 . S
C454 C453 1.398 . S
C454 C455 1.391 . S
C455 H443 0.950 . S
C455 C451 1.393 . S
C455 C454 1.391 . S
H456 C464 0.950 . S
H457 C469 0.950 . S
H458 C466 0.950 . S
H459 C468 0.950 . S
H460 C470 0.950 . S
H461 C472 0.950 . S
H462 C474 0.950 . S
H463 C475 0.950 . S
C464 H456 0.950 . S
C464 C465 1.386 . S
C464 C466 1.391 . S
C465 C464 1.386 . S
C465 C469 1.393 . S
C466 H458 0.950 . S
C466 C464 1.391 . S
C466 C467 1.400 . S
C467 C466 1.400 . S
C467 C468 1.398 . S
C467 C473 1.491 . S
C468 H459 0.950 . S
C468 C467 1.398 . S
C468 C469 1.391 . S
C469 H457 0.950 . S
C469 C465 1.393 . S
C469 C468 1.391 . S
C470 H460 0.950 . S
C470 C471 1.386 . S
C470 C472 1.391 . S
C471 C470 1.386 . S
C471 C475 1.393 . S
C472 H461 0.950 . S
C472 C470 1.391 . S
C472 C473 1.400 . S
C473 C467 1.491 . S
C473 C472 1.400 . S
C473 C474 1.398 . S
C474 H462 0.950 . S
C474 C473 1.398 . S
C474 C475 1.391 . S
C475 H463 0.950 . S
C475 C471 1.393 . S
C475 C474 1.391 . S
H476 C484 0.950 . S
H477 C489 0.950 . S
H478 C486 0.950 . S
H479 C488 0.950 . S
H480 C490 0.950 . S
H481 C492 0.950 . S
H482 C494 0.950 . S
H483 C495 0.950 . S
C484 H476 0.950 . S
C484 C485 1.386 . S
C484 C486 1.391 . S
C485 C484 1.386 . S
C485 C489 1.393 . S
C486 H478 0.950 . S
C486 C484 1.391 . S
C486 C487 1.400 . S
C487 C486 1.400 . S
C487 C488 1.398 . S
C487 C493 1.491 . S
C488 H479 0.950 . S
C488 C487 1.398 . S
C488 C489 1.391 . S
C489 H477 0.950 . S
C489 C485 1.393 . S
C489 C488 1.391 . S
C490 H480 0.950 . S
C490 C491 1.386 . S
C490 C492 1.391 . S
C491 C490 1.386 . S
C491 C495 1.393 . S
C492 H481 0.950 . S
C492 C490 1.391 . S
C492 C493 1.400 . S
C493 C487 1.491 . S
C493 C492 1.400 . S
C493 C494 1.398 . S
C494 H482 0.950 . S
C494 C493 1.398 . S
C494 C495 1.391 . S
C495 H483 0.950 . S
C495 C491 1.393 . S
C495 C494 1.391 . S
H496 C504 0.950 . S
H497 C509 0.950 . S
H498 C506 0.950 . S
H499 C508 0.950 . S
H500 C510 0.950 . S
H501 C512 0.950 . S
H502 C514 0.950 1_655 S
H503 C515 0.945 1_655 S
C504 H496 0.950 . S
C504 C505 1.386 . S
C504 C506 1.391 . S
C505 C504 1.386 . S
C505 C509 1.393 1_655 S
C506 H498 0.950 . S
C506 C504 1.391 . S
C506 C507 1.400 1_655 S
C507 C506 1.400 1_455 S
C507 C508 1.398 . S
C507 C513 1.491 . S
C508 H499 0.950 . S
C508 C507 1.398 . S
C508 C509 1.391 . S
C509 H497 0.950 . S
C509 C505 1.393 1_455 S
C509 C508 1.391 . S
C510 H500 0.950 . S
C510 C511 1.386 . S
C510 C512 1.391 . S
C511 C510 1.386 . S
C511 C515 1.393 . S
C512 H501 0.950 . S
C512 C510 1.391 . S
C512 C513 1.400 . S
C513 C507 1.491 . S
C513 C512 1.400 . S
C513 C514 1.398 . S
C514 H502 0.950 1_455 S
C514 C513 1.398 . S
C514 C515 1.391 . S
C515 H503 0.945 1_455 S
C515 C511 1.393 . S
C515 C514 1.391 . S
H516 C524 0.950 . S
H517 C529 0.950 . S
H518 C526 0.950 . S
H519 C528 0.950 . S
H520 C530 0.950 . S
H521 C532 0.950 . S
H522 C534 0.950 1_565 S
H523 C535 0.950 . S
C524 H516 0.950 . S
C524 C525 1.386 . S
C524 C526 1.391 . S
C525 C524 1.386 . S
C525 C529 1.393 1_565 S
C526 H518 0.950 . S
C526 C524 1.391 . S
C526 C527 1.400 1_565 S
C527 C526 1.400 1_545 S
C527 C528 1.398 . S
C527 C533 1.491 . S
C528 H519 0.950 . S
C528 C527 1.398 . S
C528 C529 1.391 . S
C529 H517 0.950 . S
C529 C525 1.393 1_545 S
C529 C528 1.391 . S
C530 H520 0.950 . S
C530 C531 1.386 . S
C530 C532 1.391 . S
C531 C530 1.386 . S
C531 C535 1.393 . S
C532 H521 0.950 . S
C532 C530 1.391 . S
C532 C533 1.400 . S
C533 C527 1.491 . S
C533 C532 1.400 . S
C533 C534 1.398 . S
C534 H522 0.950 1_545 S
C534 C533 1.398 . S
C534 C535 1.391 . S
C535 H523 0.950 . S
C535 C531 1.393 . S
C535 C534 1.391 . S
H536 C544 0.950 . S
H537 C549 0.950 . S
H538 C546 0.950 . S
H539 C548 0.950 . S
H540 C550 0.950 . S
H541 C552 0.950 . S
H542 C554 0.950 . S
H543 C555 0.950 . S
C544 H536 0.950 . S
C544 C545 1.386 . S
C544 C546 1.391 . S
C545 C544 1.386 . S
C545 C549 1.393 . S
C546 H538 0.950 . S
C546 C544 1.391 . S
C546 C547 1.400 . S
C547 C546 1.400 . S
C547 C548 1.398 . S
C547 C553 1.491 . S
C548 H539 0.950 . S
C548 C547 1.398 . S
C548 C549 1.391 . S
C549 H537 0.950 . S
C549 C545 1.393 . S
C549 C548 1.391 . S
C550 H540 0.950 . S
C550 C551 1.386 . S
C550 C552 1.391 . S
C551 C550 1.386 . S
C551 C555 1.393 . S
C552 H541 0.950 . S
C552 C550 1.391 . S
C552 C553 1.400 . S
C553 C547 1.491 . S
C553 C552 1.400 . S
C553 C554 1.398 . S
C554 H542 0.950 . S
C554 C553 1.398 . S
C554 C555 1.391 . S
C555 H543 0.950 . S
C555 C551 1.393 . S
C555 C554 1.391 . S
H556 C564 0.950 . S
H557 C569 0.950 . S
H558 C566 0.950 . S
H559 C568 0.950 . S
H560 C570 0.950 . S
H561 C572 0.950 . S
H562 C574 0.950 . S
H563 C575 0.950 1_556 S
C564 H556 0.950 . S
C564 C565 1.386 . S
C564 C566 1.391 . S
C565 C564 1.386 . S
C565 C569 1.393 . S
C566 H558 0.950 . S
C566 C564 1.391 . S
C566 C567 1.400 . S
C567 C566 1.400 . S
C567 C568 1.398 . S
C567 C573 1.491 . S
C568 H559 0.950 . S
C568 C567 1.398 . S
C568 C569 1.391 . S
C569 H557 0.950 . S
C569 C565 1.393 . S
C569 C568 1.391 . S
C570 H560 0.950 . S
C570 C571 1.386 . S
C570 C572 1.391 . S
C571 C570 1.386 . S
C571 C575 1.393 . S
C572 H561 0.950 . S
C572 C570 1.391 . S
C572 C573 1.400 . S
C573 C567 1.491 . S
C573 C572 1.400 . S
C573 C574 1.398 . S
C574 H562 0.950 . S
C574 C573 1.398 . S
C574 C575 1.391 . S
C575 H563 0.950 1_554 S
C575 C571 1.393 . S
C575 C574 1.391 . S
H576 C584 0.950 . S
H577 C589 0.950 . S
H578 C586 0.950 . S
H579 C588 0.950 . S
H580 C590 0.950 . S
H581 C592 0.950 . S
H582 C594 0.950 . S
H583 C595 0.950 . S
C584 H576 0.950 . S
C584 C585 1.386 1_655 S
C584 C586 1.391 . S
C585 C584 1.386 1_455 S
C585 C589 1.393 . S
C586 H578 0.950 . S
C586 C584 1.391 . S
C586 C587 1.400 1_655 S
C587 C586 1.400 1_455 S
C587 C588 1.398 . S
C587 C593 1.491 . S
C588 H579 0.950 . S
C588 C587 1.398 . S
C588 C589 1.391 . S
C589 H577 0.950 . S
C589 C585 1.393 . S
C589 C588 1.391 . S
C590 H580 0.950 . S
C590 C591 1.386 . S
C590 C592 1.391 . S
C591 C590 1.386 . S
C591 C595 1.393 1_455 S
C592 H581 0.950 . S
C592 C590 1.391 . S
C592 C593 1.400 . S
C593 C587 1.491 . S
C593 C592 1.400 . S
C593 C594 1.398 1_455 S
C594 H582 0.950 . S
C594 C593 1.398 1_655 S
C594 C595 1.391 . S
C595 H583 0.950 . S
C595 C591 1.393 1_655 S
C595 C594 1.391 . S
H596 C604 0.950 . S
H597 C609 0.950 . S
H598 C606 0.950 . S
H599 C608 0.950 . S
H600 C610 0.950 . S
H601 C612 0.950 . S
H602 C614 0.950 . S
H603 C615 0.950 . S
C604 H596 0.950 . S
C604 C605 1.386 1_565 S
C604 C606 1.391 . S
C605 C604 1.386 1_545 S
C605 C609 1.393 . S
C606 H598 0.950 . S
C606 C604 1.391 . S
C606 C607 1.400 1_565 S
C607 C606 1.400 1_545 S
C607 C608 1.398 . S
C607 C613 1.491 . S
C608 H599 0.950 . S
C608 C607 1.398 . S
C608 C609 1.391 . S
C609 H597 0.950 . S
C609 C605 1.393 . S
C609 C608 1.391 . S
C610 H600 0.950 . S
C610 C611 1.386 . S
C610 C612 1.391 . S
C611 C610 1.386 . S
C611 C615 1.393 1_545 S
C612 H601 0.950 . S
C612 C610 1.391 . S
C612 C613 1.400 . S
C613 C607 1.491 . S
C613 C612 1.400 . S
C613 C614 1.398 1_545 S
C614 H602 0.950 . S
C614 C613 1.398 1_565 S
C614 C615 1.391 . S
C615 H603 0.950 . S
C615 C611 1.393 1_565 S
C615 C614 1.391 . S
H616 C624 0.950 . S
H617 C629 0.950 1_554 S
H618 C626 0.950 . S
H619 C628 0.950 . S
H620 C630 0.950 . S
H621 C632 0.950 . S
H622 C634 0.950 . S
H623 C635 0.950 . S
C624 H616 0.950 . S
C624 C625 1.386 . S
C624 C626 1.391 . S
C625 C624 1.386 . S
C625 C629 1.393 . S
C626 H618 0.950 . S
C626 C624 1.391 . S
C626 C627 1.400 . S
C627 C626 1.400 . S
C627 C628 1.398 . S
C627 C633 1.491 . S
C628 H619 0.950 . S
C628 C627 1.398 . S
C628 C629 1.391 . S
C629 H617 0.950 1_556 S
C629 C625 1.393 . S
C629 C628 1.391 . S
C630 H620 0.950 . S
C630 C631 1.386 . S
C630 C632 1.391 . S
C631 C630 1.386 . S
C631 C635 1.393 . S
C632 H621 0.950 . S
C632 C630 1.391 . S
C632 C633 1.400 . S
C633 C627 1.491 . S
C633 C632 1.400 . S
C633 C634 1.398 . S
C634 H622 0.950 . S
C634 C633 1.398 . S
C634 C635 1.391 . S
C635 H623 0.950 . S
C635 C631 1.393 . S
C635 C634 1.391 . S
H636 C644 0.950 . S
H637 C649 0.950 . S
H638 C646 0.950 . S
H639 C648 0.950 . S
H640 C650 0.950 . S
H641 C652 0.950 . S
H642 C654 0.950 . S
H643 C655 0.950 . S
C644 H636 0.950 . S
C644 C645 1.386 . S
C644 C646 1.391 . S
C645 C644 1.386 . S
C645 C649 1.393 . S
C646 H638 0.950 . S
C646 C644 1.391 . S
C646 C647 1.400 . S
C647 C646 1.400 . S
C647 C648 1.398 . S
C647 C653 1.491 . S
C648 H639 0.950 . S
C648 C647 1.398 . S
C648 C649 1.391 . S
C649 H637 0.950 . S
C649 C645 1.393 . S
C649 C648 1.391 . S
C650 H640 0.950 . S
C650 C651 1.386 . S
C650 C652 1.391 . S
C651 C650 1.386 . S
C651 C655 1.393 . S
C652 H641 0.950 . S
C652 C650 1.391 . S
C652 C653 1.400 . S
C653 C647 1.491 . S
C653 C652 1.400 . S
C653 C654 1.398 . S
C654 H642 0.950 . S
C654 C653 1.398 . S
C654 C655 1.391 . S
C655 H643 0.950 . S
C655 C651 1.393 . S
C655 C654 1.391 . S
H656 C664 0.950 . S
H657 C669 0.950 . S
H658 C666 0.950 . S
H659 C668 0.950 . S
H660 C670 0.950 . S
H661 C672 0.950 . S
H662 C674 0.950 . S
H663 C675 0.950 . S
C664 H656 0.950 . S
C664 C665 1.386 . S
C664 C666 1.391 . S
C665 C664 1.386 . S
C665 C669 1.393 1_655 S
C666 H658 0.950 . S
C666 C664 1.391 . S
C666 C667 1.400 . S
C667 C666 1.400 . S
C667 C668 1.398 1_655 S
C667 C673 1.491 . S
C668 H659 0.950 . S
C668 C667 1.398 1_455 S
C668 C669 1.391 . S
C669 H657 0.950 . S
C669 C665 1.393 1_455 S
C669 C668 1.391 . S
C670 H660 0.950 . S
C670 C671 1.386 1_455 S
C670 C672 1.391 . S
C671 C670 1.386 1_655 S
C671 C675 1.393 . S
C672 H661 0.950 . S
C672 C670 1.391 . S
C672 C673 1.400 1_455 S
C673 C667 1.491 . S
C673 C672 1.400 1_655 S
C673 C674 1.398 . S
C674 H662 0.950 . S
C674 C673 1.398 . S
C674 C675 1.391 . S
C675 H663 0.950 . S
C675 C671 1.393 . S
C675 C674 1.391 . S
H676 C684 0.950 . S
H677 C689 0.949 . S
H678 C686 0.950 . S
H679 C688 0.950 . S
H680 C690 0.950 . S
H681 C692 0.950 . S
H682 C694 0.950 . S
H683 C695 0.950 . S
C684 H676 0.950 . S
C684 C685 1.386 . S
C684 C686 1.391 . S
C685 C684 1.386 . S
C685 C689 1.393 . S
C686 H678 0.950 . S
C686 C684 1.391 . S
C686 C687 1.400 . S
C687 C686 1.400 . S
C687 C688 1.398 . S
C687 C693 1.491 . S
C688 H679 0.950 . S
C688 C687 1.398 . S
C688 C689 1.391 . S
C689 H677 0.949 . S
C689 C685 1.393 . S
C689 C688 1.391 . S
C690 H680 0.950 . S
C690 C691 1.386 . S
C690 C692 1.391 . S
C691 C690 1.386 . S
C691 C695 1.393 . S
C692 H681 0.950 . S
C692 C690 1.391 . S
C692 C693 1.400 . S
C693 C687 1.491 . S
C693 C692 1.400 . S
C693 C694 1.398 . S
C694 H682 0.950 . S
C694 C693 1.398 . S
C694 C695 1.391 . S
C695 H683 0.950 . S
C695 C691 1.393 . S
C695 C694 1.391 . S
H696 C704 0.950 . S
H697 C709 0.950 . S
H698 C706 0.950 . S
H699 C708 0.950 . S
H700 C710 0.950 . S
H701 C712 0.950 . S
H702 C714 0.950 . S
H703 C715 0.950 . S
C704 H696 0.950 . S
C704 C705 1.386 . S
C704 C706 1.391 . S
C705 C704 1.386 . S
C705 C709 1.393 . S
C706 H698 0.950 . S
C706 C704 1.391 . S
C706 C707 1.400 . S
C707 C706 1.400 . S
C707 C708 1.398 . S
C707 C713 1.491 . S
C708 H699 0.950 . S
C708 C707 1.398 . S
C708 C709 1.391 . S
C709 H697 0.950 . S
C709 C705 1.393 . S
C709 C708 1.391 . S
C710 H700 0.950 . S
C710 C711 1.386 . S
C710 C712 1.391 . S
C711 C710 1.386 . S
C711 C715 1.393 . S
C712 H701 0.950 . S
C712 C710 1.391 . S
C712 C713 1.400 . S
C713 C707 1.491 . S
C713 C712 1.400 . S
C713 C714 1.398 . S
C714 H702 0.950 . S
C714 C713 1.398 . S
C714 C715 1.391 . S
C715 H703 0.950 . S
C715 C711 1.393 . S
C715 C714 1.391 . S
H716 C724 0.950 . S
H717 C729 0.950 . S
H718 C726 0.950 . S
H719 C728 0.950 . S
H720 C730 0.950 . S
H721 C732 0.950 . S
H722 C734 0.950 . S
H723 C735 0.950 . S
C724 H716 0.950 . S
C724 C725 1.386 . S
C724 C726 1.391 . S
C725 C724 1.386 . S
C725 C729 1.393 . S
C726 H718 0.950 . S
C726 C724 1.391 . S
C726 C727 1.400 . S
C727 C726 1.400 . S
C727 C728 1.398 . S
C727 C733 1.491 . S
C728 H719 0.950 . S
C728 C727 1.398 . S
C728 C729 1.391 . S
C729 H717 0.950 . S
C729 C725 1.393 . S
C729 C728 1.391 . S
C730 H720 0.950 . S
C730 C731 1.386 . S
C730 C732 1.391 . S
C731 C730 1.386 . S
C731 C735 1.393 . S
C732 H721 0.950 . S
C732 C730 1.391 . S
C732 C733 1.400 . S
C733 C727 1.491 . S
C733 C732 1.400 . S
C733 C734 1.398 . S
C734 H722 0.950 . S
C734 C733 1.398 . S
C734 C735 1.391 . S
C735 H723 0.950 . S
C735 C731 1.393 . S
C735 C734 1.391 . S
C265 C76 1.817 . S
C271 C106 1.968 1_545 S
C291 C146 1.971 . S
C285 C88 1.806 . S
C311 C186 1.963 . S
C305 C52 1.825 . S
C331 C226 1.972 . S
C325 C64 1.821 . S
C351 C115 1.961 1_565 S
C345 C28 1.817 . S
C365 C40 1.821 . S
C371 C155 1.962 . S
C385 C4 1.806 . S
C391 C195 1.964 . S
C405 C16 1.805 . S
C411 C235 1.970 1_655 S
C431 C112 0.501 . S
C425 C69 0.535 . S
C451 C152 0.480 . S
C445 C81 0.501 . S
C471 C192 0.503 . S
C465 C93 0.480 . S
C485 C57 0.536 . S
C491 C232 0.546 . S
C505 C21 0.488 1_655 S
C511 C103 0.499 . S
C531 C143 0.488 . S
C525 C33 0.497 . S
C551 C183 0.526 . S
C545 C45 0.558 . S
C565 C9 0.546 . S
C571 C223 0.547 . S
C585 C66 2.030 . S
C591 C107 2.267 . S
C605 C78 2.025 . S
C611 C147 2.259 . S
C631 C187 2.258 . S
C625 C90 2.014 . S
C651 C227 2.267 . S
C645 C54 2.033 . S
C665 C18 2.037 1_655 S
C671 C98 2.264 . S
C691 C138 2.269 . S
C685 C30 2.022 . S
C711 C178 2.259 . S
C705 C42 2.012 . S
C725 C6 2.029 . S
C731 C218 2.268 . S
