# Generated by pormake.
# Topology pts, (4,4)-cn, num edge types: 1
# Building blocks:
#     Node 0, Type 0, BuildingBlock: MUDLON_clean_linker_0, # of connection points: 4
#     Node 1, Type 0, BuildingBlock: MUDLON_clean_linker_0, # of connection points: 4
#     Node 2, Type 1, BuildingBlock: AZAVOO_clean_sbu_0, # of connection points: 4
#     Node 3, Type 1, BuildingBlock: AZAVOO_clean_sbu_0, # of connection points: 4
#     Edge 4, Type (0, 1), BuildingBlock: MIFKUJ_clean_linker_0, # of connection points: 2
#     Edge 5, Type (0, 1), BuildingBlock: MIFKUJ_clean_linker_0, # of connection points: 2
#     Edge 6, Type (0, 1), BuildingBlock: MIFKUJ_clean_linker_0, # of connection points: 2
#     Edge 7, Type (0, 1), BuildingBlock: MIFKUJ_clean_linker_0, # of connection points: 2
#     Edge 8, Type (0, 1), BuildingBlock: MIFKUJ_clean_linker_0, # of connection points: 2
#     Edge 9, Type (0, 1), BuildingBlock: MIFKUJ_clean_linker_0, # of connection points: 2
#     Edge 10, Type (0, 1), BuildingBlock: MIFKUJ_clean_linker_0, # of connection points: 2
#     Edge 11, Type (0, 1), BuildingBlock: MIFKUJ_clean_linker_0, # of connection points: 2
# Relax obj value: 0.016
# Max RMSD: 0.070
# Mean RMSD: 0.066
data_MOF--net-pts--node1-AZAVOO_clean_sbu_0--node2-MUDLON_clean_linker_0--edge1-MIFKUJ_clean_linker_0
_symmetry_space_group_name_H-M    P1
_symmetry_Int_Tables_number       1
_symmetry_cell_setting            triclinic
loop_
_symmetry_equiv_pos_as_xyz
'x, y, z'
_cell_length_a     41.248803
_cell_length_b     42.126009
_cell_length_c     54.278569
_cell_angle_alpha  90.024144
_cell_angle_beta   95.694269
_cell_angle_gamma 89.998781
loop_
_atom_site_label
_atom_site_type_symbol
_atom_site_fract_x
_atom_site_fract_y
_atom_site_fract_z
_atom_type_partial_charge
H0 H 0.68354 0.04581 0.02736 0.0
N1 N 0.66114 0.98767 0.01098 0.0
H2 H 0.72267 0.05568 0.06338 0.0
H3 H 0.68038 0.94675 0.04667 0.0
H4 H 0.7194 0.95645 0.08297 0.0
H5 H 0.69641 0.94504 0.98972 0.0
H6 H 0.73282 0.95424 0.95756 0.0
H7 H 0.66429 0.04222 0.98411 0.0
H8 H 0.7017 0.05223 0.95258 0.0
H9 H 0.62453 0.04015 0.01953 0.0
H10 H 0.61924 0.94216 0.99692 0.0
H11 H 0.56497 0.0422 0.01813 0.0
H12 H 0.55986 0.94417 0.99439 0.0
H13 H 0.41865 0.046 0.02843 0.0
H14 H 0.38363 0.06094 0.06055 0.0
H15 H 0.34647 0.96502 0.06073 0.0
H16 H 0.38091 0.95069 0.02827 0.0
H17 H 0.39506 0.9451 0.97202 0.0
H18 H 0.35388 0.95222 0.93675 0.0
H19 H 0.35521 0.05344 0.94973 0.0
H20 H 0.39617 0.04601 0.98498 0.0
H21 H 0.45443 0.03969 0.99149 0.0
H22 H 0.5139 0.04105 0.9921 0.0
H23 H 0.51899 0.94581 0.02194 0.0
N24 N 0.41775 0.989 0.00431 0.0
H25 H 0.45967 0.94438 0.02025 0.0
C26 C 0.67919 0.99539 0.03428 0.0
C27 C 0.69071 0.02629 0.03962 0.0
C28 C 0.71323 0.03188 0.06015 0.0
C29 C 0.72433 0.00678 0.07586 0.0
C30 C 0.71116 0.97631 0.07132 0.0
C31 C 0.6889 0.9707 0.05064 0.0
C32 C 0.67798 0.99291 0.98937 0.0
C33 C 0.69699 0.96827 0.98124 0.0
C34 C 0.71804 0.97373 0.9631 0.0
C35 C 0.72075 0.00417 0.95285 0.0
C36 C 0.70023 0.02851 0.96005 0.0
C37 C 0.67893 0.0229 0.97815 0.0
C38 C 0.62624 0.99074 0.00868 0.0
C39 C 0.61053 0.01916 0.01407 0.0
C40 C 0.57642 0.02033 0.01309 0.0
C41 C 0.5575 0.9932 0.0065 0.0
C42 C 0.57353 0.96528 0.00019 0.0
C43 C 0.60744 0.9641 0.0014 0.0
C44 C 0.40215 0.99721 0.02597 0.0
C45 C 0.40332 0.02816 0.0357 0.0
C46 C 0.38334 0.03661 0.05407 0.0
C47 C 0.36189 0.01427 0.06289 0.0
C48 C 0.36218 0.98295 0.05396 0.0
C49 C 0.38207 0.9746 0.03567 0.0
C50 C 0.39868 0.99488 0.98108 0.0
C51 C 0.38706 0.96886 0.96678 0.0
C52 C 0.36353 0.97301 0.94668 0.0
C53 C 0.35105 0.00339 0.94061 0.0
C54 C 0.36402 0.0297 0.95419 0.0
C55 C 0.38769 0.02551 0.97421 0.0
C56 C 0.45266 0.99163 0.0055 0.0
C57 C 0.46837 0.01912 0.99806 0.0
C58 C 0.50245 0.01992 0.9986 0.0
C59 C 0.52135 0.99337 0.00675 0.0
C60 C 0.50534 0.9664 0.01491 0.0
C61 C 0.47145 0.96557 0.01418 0.0
H62 H 0.93635 0.67614 0.51754 0.0
N63 N 0.97567 0.63721 0.49626 0.0
H64 H 0.94849 0.70666 0.55575 0.0
H65 H 0.03163 0.6334 0.52778 0.0
H66 H 0.04418 0.66414 0.56595 0.0
H67 H 0.03503 0.66399 0.48986 0.0
H68 H 0.04736 0.69773 0.45549 0.0
H69 H 0.93785 0.64879 0.45465 0.0
H70 H 0.95058 0.68199 0.41964 0.0
H71 H 0.93535 0.59512 0.51265 0.0
H72 H 0.02676 0.60283 0.48093 0.0
H73 H 0.94037 0.53749 0.51317 0.0
H74 H 0.03091 0.54521 0.47956 0.0
H75 H 0.94799 0.35766 0.50576 0.0
H76 H 0.95338 0.3244 0.54294 0.0
H77 H 0.04371 0.37172 0.56768 0.0
H78 H 0.03831 0.40449 0.53054 0.0
H79 H 0.05419 0.38278 0.49213 0.0
H80 H 0.07769 0.35189 0.46015 0.0
H81 H 0.98533 0.35428 0.41515 0.0
H82 H 0.96173 0.38469 0.44753 0.0
H83 H 0.93777 0.43654 0.48611 0.0
H84 H 0.93524 0.49434 0.48687 0.0
H85 H 0.04028 0.49807 0.50149 0.0
N86 N 0.99005 0.40009 0.49192 0.0
H87 H 0.04242 0.44032 0.49868 0.0
C88 C 0.98304 0.65277 0.51979 0.0
C89 C 0.95973 0.67313 0.52825 0.0
C90 C 0.96667 0.69035 0.5501 0.0
C91 C 0.99727 0.6877 0.56383 0.0
C92 C 0.02046 0.66672 0.55565 0.0
C93 C 0.01332 0.64917 0.53389 0.0
C94 C 0.98509 0.65439 0.4751 0.0
C95 C 0.01635 0.66769 0.47473 0.0
C96 C 0.02349 0.68687 0.455 0.0
C97 C 0.99983 0.69255 0.43508 0.0
C98 C 0.96925 0.67784 0.43477 0.0
C99 C 0.96194 0.65905 0.45472 0.0
C100 C 0.98019 0.60329 0.49638 0.0
C101 C 0.95632 0.58426 0.50553 0.0
C102 C 0.95915 0.55128 0.50557 0.0
C103 C 0.98577 0.53643 0.49596 0.0
C104 C 0.01016 0.55565 0.48726 0.0
C105 C 0.00763 0.58876 0.48774 0.0
C106 C 0.99264 0.38345 0.51523 0.0
C107 C 0.96867 0.36111 0.51943 0.0
C108 C 0.97173 0.34229 0.54072 0.0
C109 C 0.99904 0.3454 0.55822 0.0
C110 C 0.02257 0.36856 0.5544 0.0
C111 C 0.0194 0.38745 0.53314 0.0
C112 C 0.00592 0.38553 0.47234 0.0
C113 C 0.03903 0.37695 0.47536 0.0
C114 C 0.05248 0.35934 0.45705 0.0
C115 C 0.03327 0.3506 0.43526 0.0
C116 C 1.00075 0.3609 0.43167 0.0
C117 C 0.98722 0.37809 0.45013 0.0
C118 C 0.99006 0.43418 0.49276 0.0
C119 C 0.96016 0.44998 0.48943 0.0
C120 C 0.95884 0.48303 0.49013 0.0
C121 C 0.98754 0.50112 0.49466 0.0
C122 C 0.01766 0.4851 0.4978 0.0
C123 C 0.01894 0.45195 0.49658 0.0
Mg124 Mg 0.08351 0.00985 0.2702 0.0
O125 O 0.03118 0.0124 0.25101 0.0
O126 O 0.99768 0.00555 0.28057 0.0
Mg127 Mg 0.02773 -0.00113 0.31798 0.0
C128 C 0.00253 0.01018 0.25796 0.0
C129 C 0.1314 0.04472 0.24012 0.0
O130 O 0.14192 0.05186 0.2631 0.0
O131 O 0.07795 0.05983 0.28572 0.0
O132 O 0.04706 0.04992 0.31649 0.0
O133 O 0.08371 0.9568 0.26575 0.0
O134 O 0.06791 0.98189 0.29816 0.0
C135 C 0.06374 0.06888 0.30438 0.0
C136 C 0.07152 0.95554 0.2868 0.0
O137 O 0.1054 0.02852 0.23608 0.0
Mg138 Mg 0.99588 0.01045 0.73714 0.0
O139 O 0.04572 0.00902 0.76092 0.0
O140 O 0.08315 -0.00045 0.73464 0.0
Mg141 Mg 0.05889 0.99683 0.6952 0.0
C142 C 0.07525 0.00431 0.75649 0.0
C143 C 0.97134 0.01522 0.78959 0.0
O144 O 0.99079 0.99056 0.79289 0.0
O145 O 0.00719 0.0601 0.72355 0.0
O146 O 0.04456 0.04943 0.69755 0.0
O147 O 0.99012 0.95786 0.74012 0.0
O148 O 0.01433 0.98149 0.71064 0.0
C149 C 0.02666 0.06902 0.70803 0.0
C150 C 0.00599 0.9555 0.72079 0.0
O151 O 0.96972 0.02994 0.76907 0.0
H152 H 0.3718 0.05244 0.10404 0.0
H153 H 0.33221 0.06637 0.13313 0.0
H154 H 0.25876 0.01105 0.09031 0.0
H155 H 0.29776 0.99782 0.06092 0.0
H156 H 0.23375 0.06618 0.10523 0.0
H157 H 0.30008 0.98088 0.14226 0.0
H158 H 0.35162 0.95493 0.15795 0.0
H159 H 0.37199 0.03054 0.21029 0.0
H160 H 0.32072 0.05716 0.19467 0.0
H161 H 0.12238 0.02478 0.19184 0.0
H162 H 0.16109 0.02873 0.16071 0.0
H163 H 0.22633 0.08298 0.2116 0.0
H164 H 0.188 0.07872 0.24295 0.0
H165 H 0.25742 0.03495 0.19327 0.0
H166 H 0.1871 0.11709 0.15921 0.0
H167 H 0.13497 0.14198 0.14365 0.0
H168 H 0.12128 0.07211 0.08595 0.0
H169 H 0.17313 0.04651 0.10136 0.0
C170 C 0.34712 0.04354 0.10071 0.0
C171 C 0.33804 0.02368 0.08036 0.0
C172 C 0.32458 0.05138 0.1174 0.0
C173 C 0.29262 0.03946 0.11402 0.0
C174 C 0.28329 0.02045 0.09332 0.0
C175 C 0.30574 0.0126 0.0767 0.0
C176 C 0.26909 0.04558 0.13247 0.0
C177 C 0.2388 0.05923 0.12447 0.0
C178 C 0.276 0.03718 0.15768 0.0
C179 C 0.30678 0.02119 0.1671 0.0
C180 C 0.31568 0.9921 0.15697 0.0
C181 C 0.34482 0.97725 0.16588 0.0
C182 C 0.36512 0.99113 0.18505 0.0
C183 C 0.35627 0.01985 0.1954 0.0
C184 C 0.32718 0.03482 0.18654 0.0
C185 C 0.14468 0.03806 0.19627 0.0
C186 C 0.1522 0.05121 0.21996 0.0
C187 C 0.16677 0.04041 0.1784 0.0
C188 C 0.19662 0.05623 0.18379 0.0
C189 C 0.2035 0.07059 0.20705 0.0
C190 C 0.1815 0.06818 0.22494 0.0
C191 C 0.22181 0.05529 0.16604 0.0
C192 C 0.25244 0.04246 0.17415 0.0
C193 C 0.21512 0.06438 0.14095 0.0
C194 C 0.18392 0.07973 0.13158 0.0
C195 C 0.17286 0.10688 0.14332 0.0
C196 C 0.14338 0.12114 0.1345 0.0
C197 C 0.12479 0.1086 0.11386 0.0
C198 C 0.13569 0.08179 0.10195 0.0
C199 C 0.16515 0.06742 0.1107 0.0
H200 H 0.10197 0.11968 0.10706 0.0
H201 H 0.38766 0.97959 0.19193 0.0
H202 H 0.95423 0.32436 0.58861 0.0
H203 H 0.9616 0.28247 0.61998 0.0
H204 H 0.06255 0.2736 0.60661 0.0
H205 H 0.05526 0.31496 0.57502 0.0
H206 H 0.0299 0.21721 0.60288 0.0
H207 H 0.04304 0.30425 0.66018 0.0
H208 H 0.02743 0.35416 0.67959 0.0
H209 H 0.94078 0.30991 0.70106 0.0
H210 H 0.95564 0.25982 0.68146 0.0
H211 H 0.07625 0.10084 0.6895 0.0
H212 H 0.07405 0.15322 0.67023 0.0
H213 H 0.97528 0.16507 0.68838 0.0
H214 H 0.97775 0.11295 0.70855 0.0
H215 H 0.00682 0.2212 0.69084 0.0
H216 H 0.9903 0.13641 0.63196 0.0
H217 H 0.0033 0.08619 0.61174 0.0
H218 H 0.09278 0.12627 0.5918 0.0
H219 H 0.08051 0.17661 0.61221 0.0
C220 C 0.97806 0.31367 0.59255 0.0
C221 C 0.00413 0.32288 0.57929 0.0
C222 C 0.9823 0.28996 0.61061 0.0
C223 C 0.01266 0.27504 0.61567 0.0
C224 C 0.03896 0.28491 0.60303 0.0
C225 C 0.03479 0.30869 0.5851 0.0
C226 C 0.01632 0.24714 0.63234 0.0
C227 C 0.02542 0.21824 0.62223 0.0
C228 C 0.00927 0.24828 0.65731 0.0
C229 C 1.0003 0.27836 0.66913 0.0
C230 C 0.02051 0.30523 0.66884 0.0
C231 C 0.01183 0.33354 0.67992 0.0
C232 C 0.98309 0.33523 0.69149 0.0
C233 C 0.96302 0.30858 0.69206 0.0
C234 C 0.97157 0.28021 0.68099 0.0
C235 C 0.05426 0.11484 0.6898 0.0
C236 C 0.02699 0.10261 0.70019 0.0
C237 C 0.05301 0.14474 0.67874 0.0
C238 C 0.02419 0.16267 0.67727 0.0
C239 C 0.99769 0.15153 0.68916 0.0
C240 C 0.99912 0.12174 0.70065 0.0
C241 C 0.02088 0.19143 0.66142 0.0
C242 C 0.01157 0.22032 0.67155 0.0
C243 C 0.02731 0.19033 0.63628 0.0
C244 C 0.03464 0.16016 0.62382 0.0
C245 C 0.01285 0.13444 0.6234 0.0
C246 C 0.02007 0.10597 0.61189 0.0
C247 C 0.04889 0.10302 0.60054 0.0
C248 C 0.07049 0.12857 0.60063 0.0
C249 C 0.06341 0.15709 0.61215 0.0
H250 H 0.05444 0.08095 0.59164 0.0
H251 H 0.97642 0.35717 0.70006 0.0
H252 H 0.72916 0.98531 0.12374 0.0
H253 H 0.77621 0.98976 0.15493 0.0
H254 H 0.82805 0.04296 0.10344 0.0
H255 H 0.78123 0.03851 0.0722 0.0
H256 H 0.864 0.99269 0.12563 0.0
H257 H 0.80069 0.08094 0.15001 0.0
H258 H 0.75134 0.10741 0.16207 0.0
H259 H 0.7517 0.04651 0.22551 0.0
H260 H 0.80082 0.01935 0.21363 0.0
H261 H 1.00032 0.03211 0.21023 0.0
H262 H 0.95284 0.03513 0.17954 0.0
H263 H 0.89265 0.99538 0.23241 0.0
H264 H 0.93966 0.99327 0.26336 0.0
H265 H 0.86096 0.04099 0.20874 0.0
H266 H 0.92112 0.95069 0.18432 0.0
H267 H 0.96922 0.92174 0.17255 0.0
H268 H 0.9734 0.98301 0.10973 0.0
H269 H 0.92555 0.01259 0.12132 0.0
C270 C 0.75052 0.99815 0.11917 0.0
C271 C 0.75148 0.01167 0.09558 0.0
C272 C 0.77729 0.00079 0.13701 0.0
C273 C 0.80555 0.01679 0.1315 0.0
C274 C 0.80644 0.03058 0.10806 0.0
C275 C 0.77958 0.02824 0.09032 0.0
C276 C 0.8347 0.01798 0.14982 0.0
C277 C 0.86354 0.00367 0.14368 0.0
C278 C 0.83373 0.03154 0.17357 0.0
C279 C 0.80426 0.04791 0.18079 0.0
C280 C 0.79009 0.073 0.16642 0.0
C281 C 0.76219 0.08817 0.17324 0.0
C282 C 0.74835 0.07859 0.19451 0.0
C283 C 0.76243 0.05388 0.20903 0.0
C284 C 0.79032 0.03861 0.20227 0.0
C285 C 0.97697 0.02404 0.21532 0.0
C286 C 0.97385 0.01236 0.23925 0.0
C287 C 0.94984 0.02566 0.19772 0.0
C288 C 0.91917 0.01505 0.20351 0.0
C289 C 0.91598 0.00374 0.22747 0.0
C290 C 0.94297 0.00249 0.24515 0.0
C291 C 0.8904 0.01551 0.18466 0.0
C292 C 0.86157 0.03009 0.19068 0.0
C293 C 0.89123 0.00183 0.16087 0.0
C294 C 0.91997 0.98406 0.15384 0.0
C295 C 0.93245 0.95814 0.16811 0.0
C296 C 0.95964 0.94159 0.16145 0.0
C297 C 0.97441 0.95059 0.14045 0.0
C298 C 0.96196 0.9761 0.12602 0.0
C299 C 0.9348 0.99275 0.13261 0.0
H300 H 0.99546 0.93775 0.13532 0.0
H301 H 0.72675 0.09037 0.19976 0.0
H302 H 0.9606 0.69966 0.60206 0.0
H303 H 0.97037 0.74049 0.63412 0.0
H304 H 0.06175 0.76403 0.60633 0.0
H305 H 0.05209 0.72335 0.5742 0.0
H306 H 0.02304 0.7559 0.67208 0.0
H307 H 0.0606 0.84587 0.60124 0.0
H308 H 0.0546 0.85469 0.55606 0.0
H309 H 0.96317 0.80514 0.54987 0.0
H310 H 0.96839 0.7965 0.59503 0.0
H311 H 0.05204 0.94106 0.68951 0.0
H312 H 0.05947 0.89086 0.66856 0.0
H313 H 0.9823 0.84924 0.70605 0.0
H314 H 0.97576 0.89919 0.72787 0.0
H315 H 0.01932 0.86447 0.63649 0.0
H316 H 0.98738 0.76932 0.70812 0.0
H317 H 0.99535 0.76024 0.7532 0.0
H318 H 0.07951 0.82078 0.75882 0.0
H319 H 0.07233 0.82987 0.71374 0.0
C320 C 0.98302 0.7132 0.60308 0.0
C321 C 0.00546 0.70856 0.58554 0.0
C322 C 0.98868 0.73629 0.6215 0.0
C323 C 0.01664 0.75535 0.62243 0.0
C324 C 0.03999 0.74954 0.60584 0.0
C325 C 0.03449 0.72626 0.58757 0.0
C326 C 0.0194 0.78364 0.63866 0.0
C327 C 0.0221 0.77971 0.66444 0.0
C328 C 0.01891 0.81457 0.62855 0.0
C329 C 0.01512 0.82021 0.60145 0.0
C330 C 0.03917 0.83697 0.59023 0.0
C331 C 0.03591 0.84194 0.56463 0.0
C332 C 0.00859 0.83038 0.55009 0.0
C333 C 0.98439 0.81397 0.56114 0.0
C334 C 0.9875 0.80901 0.58673 0.0
C335 C 0.03702 0.92115 0.69364 0.0
C336 C 0.01319 0.92421 0.71026 0.0
C337 C 0.04129 0.89237 0.68162 0.0
C338 C 0.02155 0.86612 0.68571 0.0
C339 C 0.99835 0.86885 0.7029 0.0
C340 C 0.99449 0.89752 0.71527 0.0
C341 C 0.02309 0.83709 0.67026 0.0
C342 C 0.02089 0.84082 0.64443 0.0
C343 C 0.02439 0.80607 0.68043 0.0
C344 C 0.02911 0.8005 0.70755 0.0
C345 C 0.00767 0.78058 0.71895 0.0
C346 C 0.01203 0.77546 0.74451 0.0
C347 C 0.03786 0.79 0.75887 0.0
C348 C 0.05944 0.80962 0.74769 0.0
C349 C 0.0552 0.81481 0.72214 0.0
H350 H 0.04118 0.78601 0.77866 0.0
H351 H 0.00613 0.8342 0.53028 0.0
H352 H 0.34171 0.97504 0.89502 0.0
H353 H 0.29363 0.97848 0.86487 0.0
H354 H 0.24883 0.04349 0.91271 0.0
H355 H 0.29657 0.03968 0.94316 0.0
H356 H 0.20683 0.99652 0.89505 0.0
H357 H 0.27853 0.07108 0.86171 0.0
H358 H 0.33002 0.0895 0.84708 0.0
H359 H 0.32244 0.01789 0.79048 0.0
H360 H 0.27111 -0.00126 0.805 0.0
H361 H 0.07529 0.03217 0.80231 0.0
H362 H 0.12099 0.03537 0.83476 0.0
H363 H 0.18 0.97946 0.78969 0.0
H364 H 0.13513 0.97724 0.75706 0.0
H365 H 0.21387 0.02692 0.80747 0.0
H366 H 0.1449 0.94955 0.84226 0.0
H367 H 0.09384 0.92991 0.8569 0.0
H368 H 0.09658 0.00508 0.91053 0.0
H369 H 0.14748 0.02539 0.896 0.0
C370 C 0.32165 0.99012 0.89909 0.0
C371 C 0.32302 0.0072 0.92142 0.0
C372 C 0.29427 0.99221 0.8818 0.0
C373 C 0.26774 0.01142 0.88649 0.0
C374 C 0.26906 0.0286 0.90871 0.0
C375 C 0.2965 0.02664 0.92596 0.0
C376 C 0.23835 0.01298 0.86839 0.0
C377 C 0.20822 0.00362 0.87597 0.0
C378 C 0.24031 0.02174 0.84344 0.0
C379 C 0.2711 0.03332 0.83458 0.0
C380 C 0.28796 0.05911 0.84626 0.0
C381 C 0.3171 0.06971 0.83797 0.0
C382 C 0.32953 0.05484 0.8179 0.0
C383 C 0.31279 0.02938 0.80604 0.0
C384 C 0.28366 0.01866 0.81427 0.0
C385 C 0.09797 0.0204 0.79945 0.0
C386 C 0.10164 0.00459 0.77708 0.0
C387 C 0.12405 0.02216 0.81803 0.0
C388 C 0.15398 0.0075 0.81476 0.0
C389 C 0.15731 0.99117 0.79262 0.0
C390 C 0.13155 0.98985 0.77398 0.0
C391 C 0.18233 0.00967 0.8339 0.0
C392 C 0.21233 0.01991 0.82656 0.0
C393 C 0.18025 0.0015 0.85901 0.0
C394 C 0.14979 0.98918 0.86786 0.0
C395 C 0.13449 0.96201 0.85706 0.0
C396 C 0.1056 0.95074 0.86536 0.0
C397 C 0.09192 0.96629 0.88458 0.0
C398 C 0.10717 0.99309 0.89561 0.0
C399 C 0.13605 0.00447 0.88737 0.0
H400 H 0.06955 0.95754 0.89097 0.0
H401 H 0.35209 0.06308 0.81151 0.0
H402 H 0.06369 0.29454 0.44591 0.0
H403 H 0.07808 0.25394 0.41704 0.0
H404 H 0.04583 0.31501 0.35555 0.0
H405 H 0.02999 0.35537 0.3847 0.0
H406 H 0.02222 0.26067 0.3462 0.0
H407 H 0.12958 0.29355 0.37065 0.0
H408 H 0.17751 0.30996 0.39848 0.0
H409 H 0.18076 0.21834 0.43326 0.0
H410 H 0.13256 0.20149 0.4059 0.0
H411 H 0.07291 0.12269 0.27726 0.0
H412 H 0.07651 0.17775 0.29269 0.0
H413 H 0.06765 0.14411 0.36673 0.0
H414 H 0.06311 0.08965 0.35152 0.0
H415 H 0.1203 0.19233 0.35986 0.0
H416 H 0.00331 0.16818 0.33961 0.0
H417 H 0.95662 0.1532 0.30993 0.0
H418 H 0.97607 0.23223 0.26365 0.0
H419 H 0.02318 0.2474 0.29295 0.0
C420 C 0.06036 0.2996 0.42625 0.0
C421 C 0.0459 0.32813 0.41752 0.0
C422 C 0.06877 0.27641 0.40969 0.0
C423 C 0.06369 0.28151 0.384 0.0
C424 C 0.05013 0.31049 0.37525 0.0
C425 C 0.04113 0.33354 0.39187 0.0
C426 C 0.06958 0.25525 0.36663 0.0
C427 C 0.04415 0.24635 0.34877 0.0
C428 C 0.09817 0.23639 0.36971 0.0
C429 C 0.12733 0.24629 0.38622 0.0
C430 C 0.14039 0.27694 0.38432 0.0
C431 C 0.16763 0.28632 0.40001 0.0
C432 C 0.18216 0.26521 0.41764 0.0
C433 C 0.1695 0.23466 0.41958 0.0
C434 C 0.14224 0.22516 0.40394 0.0
C435 C 0.07191 0.12715 0.29682 0.0
C436 C 0.06747 0.10198 0.31318 0.0
C437 C 0.074 0.15848 0.30557 0.0
C438 C 0.07246 0.1648 0.33083 0.0
C439 C 0.06904 0.13961 0.3472 0.0
C440 C 0.06621 0.10857 0.33844 0.0
C441 C 0.07256 0.19758 0.34051 0.0
C442 C 0.09903 0.20751 0.35687 0.0
C443 C 0.04533 0.21772 0.33571 0.0
C444 C 0.01697 0.20864 0.31825 0.0
C445 C 0.99781 0.18216 0.32298 0.0
C446 C 0.97123 0.17368 0.30626 0.0
C447 C 0.96345 0.19168 0.28487 0.0
C448 C 0.98217 0.21826 0.2802 0.0
C449 C 0.0088 0.22681 0.29685 0.0
H450 H 0.94287 0.18509 0.27195 0.0
H451 H 0.20324 0.27253 0.42978 0.0
H452 H 0.71643 0.04153 0.91099 0.0
H453 H 0.7591 0.05181 0.88364 0.0
H454 H 0.82507 0.99136 0.92894 0.0
H455 H 0.78327 0.98212 0.95678 0.0
H456 H 0.85591 0.04287 0.91642 0.0
H457 H 0.78418 0.96568 0.8736 0.0
H458 H 0.73152 0.94527 0.85452 0.0
H459 H 0.7238 0.02403 0.80407 0.0
H460 H 0.77627 0.04511 0.82308 0.0
H461 H 0.97 0.9903 0.83595 0.0
H462 H 0.92774 0.99724 0.86398 0.0
H463 H 0.8775 0.06327 0.81284 0.0
H464 H 0.91968 0.05641 0.78459 0.0
H465 H 0.83718 0.01691 0.82699 0.0
H466 H 0.91347 0.08992 0.8671 0.0
H467 H 0.96701 0.10833 0.88596 0.0
H468 H 0.96708 0.03573 0.94146 0.0
H469 H 0.91373 0.01657 0.92272 0.0
C470 C 0.74012 0.03067 0.91523 0.0
C471 C 0.74626 0.01068 0.93594 0.0
C472 C 0.76442 0.03638 0.89948 0.0
C473 C 0.79521 0.02206 0.90407 0.0
C474 C 0.80152 0.00262 0.92496 0.0
C475 C 0.77739 0.99703 0.94071 0.0
C476 C 0.8209 0.02661 0.88702 0.0
C477 C 0.85186 0.03702 0.89689 0.0
C478 C 0.81544 0.01981 0.86139 0.0
C479 C 0.78393 0.00717 0.84996 0.0
C480 C 0.77112 0.97878 0.85857 0.0
C481 C 0.74134 0.96706 0.84775 0.0
C482 C 0.72427 0.9834 0.82815 0.0
C483 C 0.73701 0.01144 0.81929 0.0
C484 C 0.76677 0.02327 0.83007 0.0
C485 C 0.95025 0.00669 0.83081 0.0
C486 C 0.94817 0.0227 0.80798 0.0
C487 C 0.92615 0.01072 0.8469 0.0
C488 C 0.8995 0.03086 0.84053 0.0
C489 C 0.89785 0.04762 0.81811 0.0
C490 C 0.92207 0.04376 0.80205 0.0
C491 C 0.87234 0.03252 0.85651 0.0
C492 C 0.84111 0.02325 0.84644 0.0
C493 C 0.87762 0.04014 0.88198 0.0
C494 C 0.90968 0.05166 0.89338 0.0
C495 C 0.92501 0.07772 0.88321 0.0
C496 C 0.95531 0.08832 0.89391 0.0
C497 C 0.97047 0.07317 0.91487 0.0
C498 C 0.95531 0.04743 0.92521 0.0
C499 C 0.92502 0.03672 0.91458 0.0
H500 H 0.99393 0.08141 0.92311 0.0
H501 H 0.70123 0.97429 0.81979 0.0
H502 H 0.99256 0.68459 0.38471 0.0
H503 H 1.00169 0.72464 0.35302 0.0
H504 H 0.02903 0.79297 0.41052 0.0
H505 H 0.02077 0.75308 0.44207 0.0
H506 H 0.97695 0.81082 0.36869 0.0
H507 H 0.08686 0.76703 0.38767 0.0
H508 H 0.12653 0.72306 0.39021 0.0
H509 H 0.10332 0.70378 0.31277 0.0
H510 H 0.06313 0.74739 0.30989 0.0
H511 H 0.05463 0.94582 0.33326 0.0
H512 H 0.03819 0.89652 0.35155 0.0
H513 H 0.04851 0.8471 0.28312 0.0
H514 H 0.06568 0.89683 0.26461 0.0
H515 H 0.07435 0.81313 0.32187 0.0
H516 H 0.97284 0.86229 0.30017 0.0
H517 H 0.9323 0.90543 0.29604 0.0
H518 H 0.93578 0.9126 0.37516 0.0
H519 H 0.97676 0.86986 0.37981 0.0
C520 C 1.00071 0.70814 0.39047 0.0
C521 C 0.00617 0.71583 0.41575 0.0
C522 C 0.00591 0.73087 0.37244 0.0
C523 C 0.01598 0.76162 0.37956 0.0
C524 C 0.02127 0.7693 0.40476 0.0
C525 C 0.01673 0.74651 0.42271 0.0
C526 C 0.02057 0.78637 0.36097 0.0
C527 C 0.99819 0.81144 0.3584 0.0
C528 C 0.04757 0.78628 0.34687 0.0
C529 C 0.07167 0.76012 0.34865 0.0
C530 C 0.08994 0.75317 0.37126 0.0
C531 C 0.11258 0.72838 0.37275 0.0
C532 C 0.11735 0.71055 0.35169 0.0
C533 C 0.09954 0.71755 0.32908 0.0
C534 C 0.07684 0.7423 0.32751 0.0
C535 C 0.05309 0.92462 0.32192 0.0
C536 C 0.06107 0.92533 0.29737 0.0
C537 C 0.0436 0.89639 0.33242 0.0
C538 C 0.04142 0.86822 0.31855 0.0
C539 C 0.04977 0.86864 0.29408 0.0
C540 C 0.05951 0.89703 0.28354 0.0
C541 C 0.03137 0.83848 0.3303 0.0
C542 C 0.05262 0.81235 0.33159 0.0
C543 C 0.00295 0.83733 0.34295 0.0
C544 C 0.97802 0.8629 0.34033 0.0
C545 C 0.96512 0.87318 0.3167 0.0
C546 C 0.94204 0.89756 0.31427 0.0
C547 C 0.93149 0.91176 0.33532 0.0
C548 C 0.94396 0.90156 0.35887 0.0
C549 C 0.96709 0.87722 0.36141 0.0
H550 H 0.91362 0.93064 0.3334 0.0
H551 H 0.13491 0.69139 0.35287 0.0
loop_
_geom_bond_atom_site_label_1
_geom_bond_atom_site_label_2
_geom_bond_distance
_geom_bond_site_symmetry_2
_ccdc_geom_bond_type
H0 C27 0.929 . S
N1 C26 1.433 . S
N1 C32 1.435 1_554 S
N1 C38 1.423 . S
H2 C28 0.930 . S
H3 C31 0.931 1_565 S
H4 C30 0.929 . S
H5 C33 0.930 . S
H6 C34 0.932 . S
H7 C37 0.929 . S
H8 C36 0.931 . S
H9 C39 0.929 . S
H10 C43 0.932 1_565 S
H11 C40 0.931 . S
H12 C42 0.929 . S
H13 C45 0.929 . S
H14 C46 0.930 . S
H15 C48 0.929 . S
H16 C49 0.931 1_565 S
H17 C51 0.930 . S
H18 C52 0.932 . S
H19 C54 0.931 . S
H20 C55 0.929 . S
H21 C57 0.929 . S
H22 C58 0.931 . S
H23 C60 0.929 . S
N24 C44 1.433 . S
N24 C50 1.435 1_554 S
N24 C56 1.423 1_554 S
H25 C61 0.932 1_565 S
C26 N1 1.433 . S
C26 C27 1.363 . S
C26 C31 1.370 . S
C27 H0 0.929 . S
C27 C26 1.363 . S
C27 C28 1.385 . S
C28 H2 0.930 . S
C28 C27 1.385 . S
C28 C29 1.357 . S
C29 C28 1.357 . S
C29 C30 1.406 1_545 S
C30 H4 0.929 . S
C30 C29 1.406 1_565 S
C30 C31 1.391 1_565 S
C31 H3 0.931 1_545 S
C31 C26 1.370 . S
C31 C30 1.391 1_545 S
C32 N1 1.435 1_556 S
C32 C33 1.358 1_545 S
C32 C37 1.371 . S
C33 H5 0.930 . S
C33 C32 1.358 1_565 S
C33 C34 1.405 . S
C34 H6 0.932 . S
C34 C33 1.405 . S
C34 C35 1.383 1_565 S
C35 C34 1.383 1_545 S
C35 C36 1.393 . S
C36 H8 0.931 . S
C36 C35 1.393 . S
C36 C37 1.382 . S
C37 H7 0.929 . S
C37 C32 1.371 . S
C37 C36 1.382 . S
C38 N1 1.423 . S
C38 C39 1.361 . S
C38 C43 1.390 1_554 S
C39 H9 0.929 . S
C39 C38 1.361 . S
C39 C40 1.376 . S
C40 H11 0.931 . S
C40 C39 1.376 . S
C40 C41 1.396 1_554 S
C41 C40 1.396 1_556 S
C41 C42 1.348 . S
C41 C59 1.472 . S
C42 H12 0.929 . S
C42 C41 1.348 . S
C42 C43 1.443 . S
C43 H10 0.932 1_545 S
C43 C38 1.390 1_556 S
C43 C42 1.443 . S
C44 N24 1.433 . S
C44 C45 1.363 . S
C44 C49 1.370 . S
C45 H13 0.929 . S
C45 C44 1.363 . S
C45 C46 1.385 . S
C46 H14 0.930 . S
C46 C45 1.385 . S
C46 C47 1.357 . S
C47 C46 1.357 . S
C47 C48 1.406 1_545 S
C48 H15 0.929 . S
C48 C47 1.406 1_565 S
C48 C49 1.391 1_565 S
C49 H16 0.931 1_545 S
C49 C44 1.370 . S
C49 C48 1.391 1_545 S
C50 N24 1.435 1_556 S
C50 C51 1.358 1_545 S
C50 C55 1.371 . S
C51 H17 0.930 . S
C51 C50 1.358 1_565 S
C51 C52 1.405 . S
C52 H18 0.932 . S
C52 C51 1.405 . S
C52 C53 1.383 1_565 S
C53 C52 1.383 1_545 S
C53 C54 1.393 . S
C54 H19 0.931 . S
C54 C53 1.393 . S
C54 C55 1.382 . S
C55 H20 0.929 . S
C55 C50 1.371 . S
C55 C54 1.382 . S
C56 N24 1.423 1_556 S
C56 C57 1.362 1_556 S
C56 C61 1.388 . S
C57 H21 0.929 . S
C57 C56 1.362 1_554 S
C57 C58 1.376 . S
C58 H22 0.931 . S
C58 C57 1.376 . S
C58 C59 1.396 1_554 S
C59 C41 1.472 . S
C59 C58 1.396 1_556 S
C59 C60 1.348 . S
C60 H23 0.929 . S
C60 C59 1.348 . S
C60 C61 1.443 . S
C61 H25 0.932 1_545 S
C61 C56 1.388 . S
C61 C60 1.443 . S
H62 C89 0.929 1_655 S
N63 C88 1.433 . S
N63 C94 1.435 . S
N63 C100 1.423 . S
H64 C90 0.930 1_655 S
H65 C93 0.931 . S
H66 C92 0.929 . S
H67 C95 0.930 . S
H68 C96 0.932 . S
H69 C99 0.929 1_655 S
H70 C98 0.931 . S
H71 C101 0.929 . S
H72 C105 0.932 . S
H73 C102 0.931 . S
H74 C104 0.929 . S
H75 C107 0.929 1_655 S
H76 C108 0.930 1_655 S
H77 C110 0.929 . S
H78 C111 0.931 . S
H79 C113 0.930 . S
H80 C114 0.932 . S
H81 C116 0.931 . S
H82 C117 0.929 1_655 S
H83 C119 0.929 . S
H84 C120 0.931 . S
H85 C122 0.929 . S
N86 C106 1.433 . S
N86 C112 1.435 . S
N86 C118 1.423 . S
H87 C123 0.932 . S
C88 N63 1.433 . S
C88 C89 1.363 . S
C88 C93 1.370 . S
C89 H62 0.929 1_455 S
C89 C88 1.363 . S
C89 C90 1.385 . S
C90 H64 0.930 1_455 S
C90 C89 1.385 . S
C90 C91 1.357 . S
C91 C90 1.357 . S
C91 C92 1.406 . S
C92 H66 0.929 . S
C92 C91 1.406 . S
C92 C93 1.391 . S
C93 H65 0.931 . S
C93 C88 1.370 . S
C93 C92 1.391 . S
C94 N63 1.435 . S
C94 C95 1.358 . S
C94 C99 1.371 . S
C95 H67 0.930 . S
C95 C94 1.358 . S
C95 C96 1.405 . S
C96 H68 0.932 . S
C96 C95 1.405 . S
C96 C97 1.383 . S
C97 C96 1.383 . S
C97 C98 1.393 . S
C98 H70 0.931 . S
C98 C97 1.393 . S
C98 C99 1.382 . S
C99 H69 0.929 1_455 S
C99 C94 1.371 . S
C99 C98 1.382 . S
C100 N63 1.423 . S
C100 C101 1.362 1_455 S
C100 C105 1.388 . S
C101 H71 0.929 . S
C101 C100 1.362 1_655 S
C101 C102 1.376 . S
C102 H73 0.931 . S
C102 C101 1.376 . S
C102 C103 1.396 1_655 S
C103 C102 1.396 1_455 S
C103 C104 1.348 . S
C103 C121 1.472 . S
C104 H74 0.929 . S
C104 C103 1.348 . S
C104 C105 1.443 . S
C105 H72 0.932 . S
C105 C100 1.388 . S
C105 C104 1.443 . S
C106 N86 1.433 . S
C106 C107 1.363 . S
C106 C111 1.370 . S
C107 H75 0.929 1_455 S
C107 C106 1.363 . S
C107 C108 1.385 . S
C108 H76 0.930 1_455 S
C108 C107 1.385 . S
C108 C109 1.357 . S
C109 C108 1.357 . S
C109 C110 1.406 . S
C110 H77 0.929 . S
C110 C109 1.406 . S
C110 C111 1.391 . S
C111 H78 0.931 . S
C111 C106 1.370 . S
C111 C110 1.391 . S
C112 N86 1.435 . S
C112 C113 1.358 . S
C112 C117 1.371 . S
C113 H79 0.930 . S
C113 C112 1.358 . S
C113 C114 1.405 . S
C114 H80 0.932 . S
C114 C113 1.405 . S
C114 C115 1.383 . S
C115 C114 1.383 . S
C115 C116 1.393 . S
C116 H81 0.931 . S
C116 C115 1.393 . S
C116 C117 1.382 . S
C117 H82 0.929 1_455 S
C117 C112 1.371 . S
C117 C116 1.382 . S
C118 N86 1.423 . S
C118 C119 1.362 1_455 S
C118 C123 1.388 . S
C119 H83 0.929 . S
C119 C118 1.362 1_655 S
C119 C120 1.376 . S
C120 H84 0.931 . S
C120 C119 1.376 . S
C120 C121 1.396 1_655 S
C121 C103 1.472 . S
C121 C120 1.396 1_455 S
C121 C122 1.348 . S
C122 H85 0.929 . S
C122 C121 1.348 . S
C122 C123 1.443 . S
C123 H87 0.932 . S
C123 C118 1.388 . S
C123 C122 1.443 . S
Mg124 O125 2.028 . S
Mg124 O131 1.986 . S
Mg124 O133 2.114 1_545 S
Mg124 O134 2.251 1_545 S
Mg124 O137 2.010 . S
O125 Mg124 2.028 . S
O125 C128 1.250 . S
O126 Mg127 2.028 . S
O126 C128 1.248 1_655 S
Mg127 O126 2.028 . S
Mg127 O132 2.032 1_655 S
Mg127 O134 2.079 1_645 S
C128 O125 1.250 . S
C128 O126 1.248 1_455 S
C129 O130 1.264 . S
C129 O137 1.249 . S
O130 C129 1.264 . S
O131 Mg124 1.986 . S
O131 C135 1.246 . S
O132 Mg127 2.032 1_455 S
O132 C135 1.259 . S
O133 Mg124 2.114 1_565 S
O133 C136 1.252 . S
O134 Mg124 2.251 1_565 S
O134 Mg127 2.079 1_465 S
O134 C136 1.273 . S
C135 O131 1.246 . S
C135 O132 1.259 . S
C136 O133 1.252 . S
C136 O134 1.273 . S
O137 Mg124 2.010 . S
O137 C129 1.249 . S
Mg138 O139 2.028 1_655 S
Mg138 O145 1.986 1_655 S
Mg138 O147 2.114 1_545 S
Mg138 O148 2.251 1_645 S
Mg138 O151 2.010 . S
O139 Mg138 2.028 1_455 S
O139 C142 1.250 . S
O140 Mg141 2.028 . S
O140 C142 1.248 . S
Mg141 O140 2.028 . S
Mg141 O146 2.032 . S
Mg141 O148 2.079 1_545 S
C142 O139 1.250 . S
C142 O140 1.248 . S
C143 O144 1.264 . S
C143 O151 1.249 . S
O144 C143 1.264 . S
O145 Mg138 1.986 1_455 S
O145 C149 1.244 . S
O146 Mg141 2.032 . S
O146 C149 1.259 . S
O147 Mg138 2.114 1_565 S
O147 C150 1.252 1_655 S
O148 Mg138 2.251 1_465 S
O148 Mg141 2.079 1_565 S
O148 C150 1.273 . S
C149 O145 1.244 . S
C149 O146 1.259 . S
C150 O147 1.252 1_455 S
C150 O148 1.273 . S
O151 Mg138 2.010 . S
O151 C143 1.249 . S
H152 C170 0.951 . S
H153 C172 0.951 . S
H154 C174 0.950 1_565 S
H155 C175 0.950 1_565 S
H156 C177 0.950 . S
H157 C180 0.950 . S
H158 C181 0.950 . S
H159 C183 0.950 . S
H160 C184 0.950 . S
H161 C185 0.951 . S
H162 C187 0.951 . S
H163 C189 0.950 . S
H164 C190 0.950 . S
H165 C192 0.948 1_565 S
H166 C195 0.950 . S
H167 C196 0.950 . S
H168 C198 0.950 . S
H169 C199 0.950 . S
C170 H152 0.951 . S
C170 C171 1.366 . S
C170 C172 1.388 . S
C171 C170 1.366 . S
C171 C175 1.385 . S
C172 H153 0.951 . S
C172 C170 1.388 . S
C172 C173 1.366 . S
C173 C172 1.366 . S
C173 C174 1.414 . S
C173 C176 1.499 . S
C174 H154 0.950 1_545 S
C174 C173 1.414 . S
C174 C175 1.374 . S
C175 H155 0.950 1_545 S
C175 C171 1.385 . S
C175 C174 1.374 . S
C176 C173 1.499 . S
C176 C177 1.373 . S
C176 C178 1.389 1_545 S
C177 H156 0.950 . S
C177 C176 1.373 . S
C177 C193 1.377 . S
C178 C176 1.389 1_565 S
C178 C179 1.524 . S
C178 C192 1.376 1_565 S
C179 C178 1.524 . S
C179 C180 1.397 . S
C179 C184 1.363 . S
C180 H157 0.950 . S
C180 C179 1.397 . S
C180 C181 1.334 . S
C181 H158 0.950 . S
C181 C180 1.334 . S
C181 C182 1.287 . S
C182 C181 1.287 . S
C182 C183 1.524 . S
C182 H201 0.913 . S
C183 H159 0.950 . S
C183 C182 1.524 . S
C183 C184 1.415 . S
C184 H160 0.950 . S
C184 C179 1.363 . S
C184 C183 1.415 . S
C185 H161 0.951 . S
C185 C186 1.366 . S
C185 C187 1.388 . S
C186 C185 1.366 . S
C186 C190 1.385 . S
C187 H162 0.951 . S
C187 C185 1.388 . S
C187 C188 1.366 . S
C188 C187 1.366 . S
C188 C189 1.414 . S
C188 C191 1.499 . S
C189 H163 0.950 . S
C189 C188 1.414 . S
C189 C190 1.374 . S
C190 H164 0.950 . S
C190 C186 1.385 . S
C190 C189 1.374 . S
C191 C188 1.499 . S
C191 C192 1.376 . S
C191 C193 1.389 . S
C192 H165 0.948 1_545 S
C192 C178 1.376 1_545 S
C192 C191 1.376 . S
C193 C177 1.377 . S
C193 C191 1.389 . S
C193 C194 1.524 . S
C194 C193 1.524 . S
C194 C195 1.397 . S
C194 C199 1.363 . S
C195 H166 0.950 . S
C195 C194 1.397 . S
C195 C196 1.334 . S
C196 H167 0.950 . S
C196 C195 1.334 . S
C196 C197 1.287 . S
C197 C196 1.287 . S
C197 C198 1.524 . S
C197 H200 0.999 . S
C198 H168 0.950 . S
C198 C197 1.524 . S
C198 C199 1.415 . S
C199 H169 0.950 . S
C199 C194 1.363 . S
C199 C198 1.415 . S
H200 C197 0.999 . S
H201 C182 0.913 . S
H202 C220 0.951 . S
H203 C222 0.951 . S
H204 C224 0.950 . S
H205 C225 0.950 . S
H206 C227 0.950 . S
H207 C230 0.950 . S
H208 C231 0.950 . S
H209 C233 0.950 . S
H210 C234 0.950 . S
H211 C235 0.951 . S
H212 C237 0.951 . S
H213 C239 0.950 . S
H214 C240 0.950 . S
H215 C242 0.950 1_655 S
H216 C245 0.950 1_655 S
H217 C246 0.950 . S
H218 C248 0.950 . S
H219 C249 0.950 . S
C220 H202 0.951 . S
C220 C221 1.366 1_655 S
C220 C222 1.388 . S
C221 C220 1.366 1_455 S
C221 C225 1.385 . S
C222 H203 0.951 . S
C222 C220 1.388 . S
C222 C223 1.366 1_655 S
C223 C222 1.366 1_455 S
C223 C224 1.414 . S
C223 C226 1.499 . S
C224 H204 0.950 . S
C224 C223 1.414 . S
C224 C225 1.374 . S
C225 H205 0.950 . S
C225 C221 1.385 . S
C225 C224 1.374 . S
C226 C223 1.499 . S
C226 C227 1.373 . S
C226 C228 1.389 . S
C227 H206 0.950 . S
C227 C226 1.373 . S
C227 C243 1.377 . S
C228 C226 1.389 . S
C228 C229 1.520 1_455 S
C228 C242 1.377 . S
C229 C228 1.520 1_655 S
C229 C230 1.387 1_655 S
C229 C234 1.376 . S
C230 H207 0.950 . S
C230 C229 1.387 1_455 S
C230 C231 1.334 . S
C231 H208 0.950 . S
C231 C230 1.334 . S
C231 C232 1.287 1_455 S
C232 C231 1.287 1_655 S
C232 C233 1.524 . S
C232 H251 0.913 . S
C233 H209 0.950 . S
C233 C232 1.524 . S
C233 C234 1.415 . S
C234 H210 0.950 . S
C234 C229 1.376 . S
C234 C233 1.415 . S
C235 H211 0.951 . S
C235 C236 1.366 . S
C235 C237 1.388 . S
C236 C235 1.366 . S
C236 C240 1.385 1_455 S
C237 H212 0.951 . S
C237 C235 1.388 . S
C237 C238 1.366 . S
C238 C237 1.366 . S
C238 C239 1.414 1_455 S
C238 C241 1.499 . S
C239 H213 0.950 . S
C239 C238 1.414 1_655 S
C239 C240 1.374 . S
C240 H214 0.950 . S
C240 C236 1.385 1_655 S
C240 C239 1.374 . S
C241 C238 1.499 . S
C241 C242 1.373 . S
C241 C243 1.389 . S
C242 H215 0.950 1_455 S
C242 C228 1.377 . S
C242 C241 1.373 . S
C243 C227 1.377 . S
C243 C241 1.389 . S
C243 C244 1.524 . S
C244 C243 1.524 . S
C244 C245 1.397 . S
C244 C249 1.363 . S
C245 H216 0.950 1_455 S
C245 C244 1.397 . S
C245 C246 1.334 . S
C246 H217 0.950 . S
C246 C245 1.334 . S
C246 C247 1.287 . S
C247 C246 1.287 . S
C247 C248 1.524 . S
C247 H250 0.999 . S
C248 H218 0.950 . S
C248 C247 1.524 . S
C248 C249 1.415 . S
C249 H219 0.950 . S
C249 C244 1.363 . S
C249 C248 1.415 . S
H250 C247 0.999 . S
H251 C232 0.913 . S
H252 C270 0.959 . S
H253 C272 0.951 1_565 S
H254 C274 0.950 . S
H255 C275 0.950 . S
H256 C277 0.937 1_565 S
H257 C280 0.950 . S
H258 C281 0.950 . S
H259 C283 0.950 . S
H260 C284 0.950 . S
H261 C285 0.951 . S
H262 C287 0.951 . S
H263 C289 0.950 1_565 S
H264 C290 0.949 1_565 S
H265 C292 0.950 . S
H266 C295 0.950 . S
H267 C296 0.950 . S
H268 C298 0.950 . S
H269 C299 0.950 1_545 S
C270 H252 0.959 . S
C270 C271 1.360 1_565 S
C270 C272 1.387 1_565 S
C271 C270 1.360 1_545 S
C271 C275 1.385 . S
C272 H253 0.951 1_545 S
C272 C270 1.387 1_545 S
C272 C273 1.366 . S
C273 C272 1.366 . S
C273 C274 1.414 . S
C273 C276 1.499 . S
C274 H254 0.950 . S
C274 C273 1.414 . S
C274 C275 1.374 . S
C275 H255 0.950 . S
C275 C271 1.385 . S
C275 C274 1.374 . S
C276 C273 1.499 . S
C276 C277 1.389 . S
C276 C278 1.389 . S
C277 H256 0.937 1_545 S
C277 C276 1.389 . S
C277 C293 1.376 1_545 S
C278 C276 1.389 . S
C278 C279 1.524 . S
C278 C292 1.377 . S
C279 C278 1.524 . S
C279 C280 1.397 . S
C279 C284 1.363 . S
C280 H257 0.950 . S
C280 C279 1.397 . S
C280 C281 1.334 . S
C281 H258 0.950 . S
C281 C280 1.334 . S
C281 C282 1.287 . S
C282 C281 1.287 . S
C282 C283 1.524 . S
C282 H301 0.913 . S
C283 H259 0.950 . S
C283 C282 1.524 . S
C283 C284 1.415 . S
C284 H260 0.950 . S
C284 C279 1.363 . S
C284 C283 1.415 . S
C285 H261 0.951 . S
C285 C286 1.366 . S
C285 C287 1.388 . S
C286 C285 1.366 . S
C286 C290 1.385 . S
C287 H262 0.951 . S
C287 C285 1.388 . S
C287 C288 1.366 . S
C288 C287 1.366 . S
C288 C289 1.414 . S
C288 C291 1.499 . S
C289 H263 0.950 1_545 S
C289 C288 1.414 . S
C289 C290 1.374 . S
C290 H264 0.949 1_545 S
C290 C286 1.385 . S
C290 C289 1.374 . S
C291 C288 1.499 . S
C291 C292 1.373 . S
C291 C293 1.388 1_545 S
C292 H265 0.950 . S
C292 C278 1.377 . S
C292 C291 1.373 . S
C293 C277 1.376 1_565 S
C293 C291 1.388 1_565 S
C293 C294 1.526 . S
C294 C293 1.526 . S
C294 C295 1.397 . S
C294 C299 1.363 . S
C295 H266 0.950 . S
C295 C294 1.397 . S
C295 C296 1.334 . S
C296 H267 0.950 . S
C296 C295 1.334 . S
C296 C297 1.287 . S
C297 C296 1.287 . S
C297 C298 1.524 . S
C297 H300 0.999 . S
C298 H268 0.950 . S
C298 C297 1.524 . S
C298 C299 1.415 . S
C299 H269 0.950 1_565 S
C299 C294 1.363 . S
C299 C298 1.415 . S
H300 C297 0.999 . S
H301 C282 0.913 . S
H302 C320 0.956 . S
H303 C322 0.978 . S
H304 C324 0.950 . S
H305 C325 0.950 . S
H306 C327 0.950 . S
H307 C330 0.950 . S
H308 C331 0.950 . S
H309 C333 0.950 . S
H310 C334 0.950 . S
H311 C335 0.951 . S
H312 C337 0.951 . S
H313 C339 0.950 . S
H314 C340 0.950 . S
H315 C342 0.950 . S
H316 C345 0.943 1_655 S
H317 C346 0.958 . S
H318 C348 0.950 . S
H319 C349 0.950 . S
C320 H302 0.956 . S
C320 C321 1.360 1_655 S
C320 C322 1.386 . S
C321 C320 1.360 1_455 S
C321 C325 1.385 . S
C322 H303 0.978 . S
C322 C320 1.386 . S
C322 C323 1.342 1_655 S
C323 C322 1.342 1_455 S
C323 C324 1.414 . S
C323 C326 1.499 . S
C324 H304 0.950 . S
C324 C323 1.414 . S
C324 C325 1.374 . S
C325 H305 0.950 . S
C325 C321 1.385 . S
C325 C324 1.374 . S
C326 C323 1.499 . S
C326 C327 1.373 . S
C326 C328 1.389 . S
C327 H306 0.950 . S
C327 C326 1.373 . S
C327 C343 1.377 . S
C328 C326 1.389 . S
C328 C329 1.524 . S
C328 C342 1.377 . S
C329 C328 1.524 . S
C329 C330 1.397 . S
C329 C334 1.363 1_455 S
C330 H307 0.950 . S
C330 C329 1.397 . S
C330 C331 1.334 . S
C331 H308 0.950 . S
C331 C330 1.334 . S
C331 C332 1.287 . S
C332 C331 1.287 . S
C332 C333 1.524 1_455 S
C332 H351 0.913 . S
C333 H309 0.950 . S
C333 C332 1.524 1_655 S
C333 C334 1.415 . S
C334 H310 0.950 . S
C334 C329 1.363 1_655 S
C334 C333 1.415 . S
C335 H311 0.951 . S
C335 C336 1.366 . S
C335 C337 1.388 . S
C336 C335 1.366 . S
C336 C340 1.385 1_455 S
C337 H312 0.951 . S
C337 C335 1.388 . S
C337 C338 1.366 . S
C338 C337 1.366 . S
C338 C339 1.414 1_455 S
C338 C341 1.499 . S
C339 H313 0.950 . S
C339 C338 1.414 1_655 S
C339 C340 1.374 . S
C340 H314 0.950 . S
C340 C336 1.385 1_655 S
C340 C339 1.374 . S
C341 C338 1.499 . S
C341 C342 1.373 . S
C341 C343 1.389 . S
C342 H315 0.950 . S
C342 C328 1.377 . S
C342 C341 1.373 . S
C343 C327 1.377 . S
C343 C341 1.389 . S
C343 C344 1.524 . S
C344 C343 1.524 . S
C344 C345 1.404 . S
C344 C349 1.363 . S
C345 H316 0.943 1_455 S
C345 C344 1.404 . S
C345 C346 1.332 1_455 S
C346 H317 0.958 . S
C346 C345 1.332 1_655 S
C346 C347 1.280 1_655 S
C347 C346 1.280 1_455 S
C347 C348 1.524 . S
C347 H350 0.999 . S
C348 H318 0.950 . S
C348 C347 1.524 . S
C348 C349 1.415 . S
C349 H319 0.950 . S
C349 C344 1.363 . S
C349 C348 1.415 . S
H350 C347 0.999 . S
H351 C332 0.913 . S
H352 C370 0.951 . S
H353 C372 0.951 . S
H354 C374 0.950 . S
H355 C375 0.950 . S
H356 C377 0.950 . S
H357 C380 0.950 . S
H358 C381 0.950 . S
H359 C383 0.950 . S
H360 C384 0.950 . S
H361 C385 0.951 . S
H362 C387 0.951 . S
H363 C389 0.950 . S
H364 C390 0.950 . S
H365 C392 0.950 1_565 S
H366 C395 0.950 1_565 S
H367 C396 0.974 . S
H368 C398 0.950 . S
H369 C399 0.950 . S
C370 H352 0.951 . S
C370 C371 1.366 1_565 S
C370 C372 1.388 . S
C371 C370 1.366 1_545 S
C371 C375 1.385 . S
C372 H353 0.951 . S
C372 C370 1.388 . S
C372 C373 1.366 1_565 S
C373 C372 1.366 1_545 S
C373 C374 1.414 . S
C373 C376 1.499 . S
C374 H354 0.950 . S
C374 C373 1.414 . S
C374 C375 1.374 . S
C375 H355 0.950 . S
C375 C371 1.385 . S
C375 C374 1.374 . S
C376 C373 1.499 . S
C376 C377 1.373 . S
C376 C378 1.389 . S
C377 H356 0.950 . S
C377 C376 1.373 . S
C377 C393 1.377 . S
C378 C376 1.389 . S
C378 C379 1.524 1_545 S
C378 C392 1.377 . S
C379 C378 1.524 1_565 S
C379 C380 1.397 1_565 S
C379 C384 1.363 . S
C380 H357 0.950 . S
C380 C379 1.397 1_545 S
C380 C381 1.334 . S
C381 H358 0.950 . S
C381 C380 1.334 . S
C381 C382 1.287 1_545 S
C382 C381 1.287 1_565 S
C382 C383 1.524 . S
C382 H401 0.913 . S
C383 H359 0.950 . S
C383 C382 1.524 . S
C383 C384 1.415 . S
C384 H360 0.950 . S
C384 C379 1.363 . S
C384 C383 1.415 . S
C385 H361 0.951 . S
C385 C386 1.366 . S
C385 C387 1.388 . S
C386 C385 1.366 . S
C386 C390 1.385 1_545 S
C387 H362 0.951 . S
C387 C385 1.388 . S
C387 C388 1.366 . S
C388 C387 1.366 . S
C388 C389 1.414 1_545 S
C388 C391 1.499 . S
C389 H363 0.950 . S
C389 C388 1.414 1_565 S
C389 C390 1.374 . S
C390 H364 0.950 . S
C390 C386 1.385 1_565 S
C390 C389 1.374 . S
C391 C388 1.499 . S
C391 C392 1.373 . S
C391 C393 1.389 . S
C392 H365 0.950 1_545 S
C392 C378 1.377 . S
C392 C391 1.373 . S
C393 C377 1.377 . S
C393 C391 1.389 . S
C393 C394 1.524 . S
C394 C393 1.524 . S
C394 C395 1.397 . S
C394 C399 1.363 . S
C395 H366 0.950 1_545 S
C395 C394 1.397 . S
C395 C396 1.334 . S
C396 H367 0.974 . S
C396 C395 1.334 . S
C396 C397 1.287 . S
C397 C396 1.287 . S
C397 C398 1.524 . S
C397 H400 0.999 . S
C398 H368 0.950 . S
C398 C397 1.524 . S
C398 C399 1.415 . S
C399 H369 0.950 . S
C399 C394 1.363 . S
C399 C398 1.415 . S
H400 C397 0.999 . S
H401 C382 0.913 . S
H402 C420 0.951 . S
H403 C422 0.951 . S
H404 C424 0.950 . S
H405 C425 0.950 . S
H406 C427 0.950 . S
H407 C430 0.950 . S
H408 C431 0.950 . S
H409 C433 0.950 . S
H410 C434 0.950 . S
H411 C435 0.951 . S
H412 C437 0.951 . S
H413 C439 0.950 . S
H414 C440 0.950 . S
H415 C442 0.950 . S
H416 C445 0.950 . S
H417 C446 0.950 . S
H418 C448 0.950 . S
H419 C449 0.950 1_455 S
C420 H402 0.951 . S
C420 C421 1.366 . S
C420 C422 1.388 . S
C421 C420 1.366 . S
C421 C425 1.385 . S
C422 H403 0.951 . S
C422 C420 1.388 . S
C422 C423 1.366 . S
C423 C422 1.366 . S
C423 C424 1.414 . S
C423 C426 1.499 . S
C424 H404 0.950 . S
C424 C423 1.414 . S
C424 C425 1.374 . S
C425 H405 0.950 . S
C425 C421 1.385 . S
C425 C424 1.374 . S
C426 C423 1.499 . S
C426 C427 1.373 . S
C426 C428 1.389 . S
C427 H406 0.950 . S
C427 C426 1.373 . S
C427 C443 1.377 . S
C428 C426 1.389 . S
C428 C429 1.524 . S
C428 C442 1.377 . S
C429 C428 1.524 . S
C429 C430 1.397 . S
C429 C434 1.363 . S
C430 H407 0.950 . S
C430 C429 1.397 . S
C430 C431 1.334 . S
C431 H408 0.950 . S
C431 C430 1.334 . S
C431 C432 1.287 . S
C432 C431 1.287 . S
C432 C433 1.524 . S
C432 H451 0.913 . S
C433 H409 0.950 . S
C433 C432 1.524 . S
C433 C434 1.415 . S
C434 H410 0.950 . S
C434 C429 1.363 . S
C434 C433 1.415 . S
C435 H411 0.951 . S
C435 C436 1.366 . S
C435 C437 1.388 . S
C436 C435 1.366 . S
C436 C440 1.385 . S
C437 H412 0.951 . S
C437 C435 1.388 . S
C437 C438 1.366 . S
C438 C437 1.366 . S
C438 C439 1.414 . S
C438 C441 1.499 . S
C439 H413 0.950 . S
C439 C438 1.414 . S
C439 C440 1.374 . S
C440 H414 0.950 . S
C440 C436 1.385 . S
C440 C439 1.374 . S
C441 C438 1.499 . S
C441 C442 1.373 . S
C441 C443 1.389 . S
C442 H415 0.950 . S
C442 C428 1.377 . S
C442 C441 1.373 . S
C443 C427 1.377 . S
C443 C441 1.389 . S
C443 C444 1.522 1_455 S
C444 C443 1.522 1_655 S
C444 C445 1.400 . S
C444 C449 1.363 . S
C445 H416 0.950 . S
C445 C444 1.400 . S
C445 C446 1.334 . S
C446 H417 0.950 . S
C446 C445 1.334 . S
C446 C447 1.287 . S
C447 C446 1.287 . S
C447 C448 1.524 . S
C447 H450 0.999 . S
C448 H418 0.950 . S
C448 C447 1.524 . S
C448 C449 1.415 . S
C449 H419 0.950 1_655 S
C449 C444 1.363 . S
C449 C448 1.415 . S
H450 C447 0.999 . S
H451 C432 0.913 . S
H452 C470 0.951 . S
H453 C472 0.951 . S
H454 C474 0.950 . S
H455 C475 0.950 . S
H456 C477 0.950 . S
H457 C480 0.950 . S
H458 C481 0.950 . S
H459 C483 0.950 . S
H460 C484 0.950 1_545 S
H461 C485 0.949 1_565 S
H462 C487 0.951 1_565 S
H463 C489 0.950 . S
H464 C490 0.950 . S
H465 C492 0.950 1_565 S
H466 C495 0.950 . S
H467 C496 0.950 . S
H468 C498 0.950 . S
H469 C499 0.950 . S
C470 H452 0.951 . S
C470 C471 1.366 . S
C470 C472 1.388 . S
C471 C470 1.366 . S
C471 C475 1.385 1_545 S
C472 H453 0.951 . S
C472 C470 1.388 . S
C472 C473 1.366 . S
C473 C472 1.366 . S
C473 C474 1.414 1_545 S
C473 C476 1.499 . S
C474 H454 0.950 . S
C474 C473 1.414 1_565 S
C474 C475 1.374 . S
C475 H455 0.950 . S
C475 C471 1.385 1_565 S
C475 C474 1.374 . S
C476 C473 1.499 . S
C476 C477 1.373 . S
C476 C478 1.389 . S
C477 H456 0.950 . S
C477 C476 1.373 . S
C477 C493 1.377 . S
C478 C476 1.389 . S
C478 C479 1.525 1_545 S
C478 C492 1.376 . S
C479 C478 1.525 1_565 S
C479 C480 1.397 . S
C479 C484 1.363 . S
C480 H457 0.950 . S
C480 C479 1.397 . S
C480 C481 1.334 . S
C481 H458 0.950 . S
C481 C480 1.334 . S
C481 C482 1.287 . S
C482 C481 1.287 . S
C482 C483 1.524 . S
C482 H501 0.913 . S
C483 H459 0.950 . S
C483 C482 1.524 . S
C483 C484 1.415 . S
C484 H460 0.950 1_565 S
C484 C479 1.363 . S
C484 C483 1.415 . S
C485 H461 0.949 1_545 S
C485 C486 1.366 . S
C485 C487 1.388 . S
C486 C485 1.366 . S
C486 C490 1.385 . S
C487 H462 0.951 1_545 S
C487 C485 1.388 . S
C487 C488 1.366 . S
C488 C487 1.366 . S
C488 C489 1.414 . S
C488 C491 1.499 . S
C489 H463 0.950 . S
C489 C488 1.414 . S
C489 C490 1.374 . S
C490 H464 0.950 . S
C490 C486 1.385 . S
C490 C489 1.374 . S
C491 C488 1.499 . S
C491 C492 1.373 . S
C491 C493 1.389 . S
C492 H465 0.950 1_545 S
C492 C478 1.376 . S
C492 C491 1.373 . S
C493 C477 1.377 . S
C493 C491 1.389 . S
C493 C494 1.524 . S
C494 C493 1.524 . S
C494 C495 1.397 . S
C494 C499 1.363 . S
C495 H466 0.950 . S
C495 C494 1.397 . S
C495 C496 1.334 . S
C496 H467 0.950 . S
C496 C495 1.334 . S
C496 C497 1.287 . S
C497 C496 1.287 . S
C497 C498 1.524 . S
C497 H500 0.999 . S
C498 H468 0.950 . S
C498 C497 1.524 . S
C498 C499 1.415 . S
C499 H469 0.950 . S
C499 C494 1.363 . S
C499 C498 1.415 . S
H500 C497 0.999 . S
H501 C482 0.913 . S
H502 C520 0.951 . S
H503 C522 0.951 . S
H504 C524 0.950 . S
H505 C525 0.950 . S
H506 C527 0.950 . S
H507 C530 0.950 . S
H508 C531 0.950 . S
H509 C533 0.950 . S
H510 C534 0.950 . S
H511 C535 0.951 . S
H512 C537 0.951 . S
H513 C539 0.950 . S
H514 C540 0.950 . S
H515 C542 0.950 . S
H516 C545 0.950 . S
H517 C546 0.950 . S
H518 C548 0.950 . S
H519 C549 0.950 . S
C520 H502 0.951 . S
C520 C521 1.366 . S
C520 C522 1.388 . S
C521 C520 1.366 . S
C521 C525 1.385 . S
C522 H503 0.951 . S
C522 C520 1.388 . S
C522 C523 1.366 . S
C523 C522 1.366 . S
C523 C524 1.414 . S
C523 C526 1.499 . S
C524 H504 0.950 . S
C524 C523 1.414 . S
C524 C525 1.374 . S
C525 H505 0.950 . S
C525 C521 1.385 . S
C525 C524 1.374 . S
C526 C523 1.499 . S
C526 C527 1.373 . S
C526 C528 1.389 . S
C527 H506 0.950 . S
C527 C526 1.373 . S
C527 C543 1.377 . S
C528 C526 1.389 . S
C528 C529 1.524 . S
C528 C542 1.377 . S
C529 C528 1.524 . S
C529 C530 1.397 . S
C529 C534 1.363 . S
C530 H507 0.950 . S
C530 C529 1.397 . S
C530 C531 1.334 . S
C531 H508 0.950 . S
C531 C530 1.334 . S
C531 C532 1.287 . S
C532 C531 1.287 . S
C532 C533 1.524 . S
C532 H551 0.913 . S
C533 H509 0.950 . S
C533 C532 1.524 . S
C533 C534 1.415 . S
C534 H510 0.950 . S
C534 C529 1.363 . S
C534 C533 1.415 . S
C535 H511 0.951 . S
C535 C536 1.366 . S
C535 C537 1.388 . S
C536 C535 1.366 . S
C536 C540 1.385 . S
C537 H512 0.951 . S
C537 C535 1.388 . S
C537 C538 1.366 . S
C538 C537 1.366 . S
C538 C539 1.414 . S
C538 C541 1.499 . S
C539 H513 0.950 . S
C539 C538 1.414 . S
C539 C540 1.374 . S
C540 H514 0.950 . S
C540 C536 1.385 . S
C540 C539 1.374 . S
C541 C538 1.499 . S
C541 C542 1.373 . S
C541 C543 1.389 . S
C542 H515 0.950 . S
C542 C528 1.377 . S
C542 C541 1.373 . S
C543 C527 1.377 . S
C543 C541 1.389 . S
C543 C544 1.524 1_455 S
C544 C543 1.524 1_655 S
C544 C545 1.397 . S
C544 C549 1.363 . S
C545 H516 0.950 . S
C545 C544 1.397 . S
C545 C546 1.334 . S
C546 H517 0.950 . S
C546 C545 1.334 . S
C546 C547 1.287 . S
C547 C546 1.287 . S
C547 C548 1.524 . S
C547 H550 0.999 . S
C548 H518 0.950 . S
C548 C547 1.524 . S
C548 C549 1.415 . S
C549 H519 0.950 . S
C549 C544 1.363 . S
C549 C548 1.415 . S
H550 C547 0.999 . S
H551 C532 0.913 . S
C186 C129 1.456 . S
C171 C47 1.660 . S
C236 C149 1.747 . S
C221 C109 1.652 . S
C286 C128 1.697 1_655 S
C271 C29 1.646 . S
C336 C150 1.770 . S
C321 C91 1.656 . S
C386 C142 1.354 . S
C371 C53 1.372 . S
C436 C135 1.364 . S
C421 C115 1.371 . S
C486 C143 1.186 . S
C471 C35 1.393 . S
C521 C97 1.373 . S
C536 C136 1.390 . S
