# Generated by pormake.
# Topology hwx, (6,3)-cn, num edge types: 1
# Building blocks:
#     Node 0, Type 0, BuildingBlock: IZENUY_clean_sbu_0, # of connection points: 6
#     Node 1, Type 0, BuildingBlock: IZENUY_clean_sbu_0, # of connection points: 6
#     Node 2, Type 0, BuildingBlock: IZENUY_clean_sbu_0, # of connection points: 6
#     Node 3, Type 0, BuildingBlock: IZENUY_clean_sbu_0, # of connection points: 6
#     Node 4, Type 1, BuildingBlock: ESEHIV_clean_linker_0, # of connection points: 3
#     Node 5, Type 1, BuildingBlock: ESEHIV_clean_linker_0, # of connection points: 3
#     Node 6, Type 1, BuildingBlock: ESEHIV_clean_linker_0, # of connection points: 3
#     Node 7, Type 1, BuildingBlock: ESEHIV_clean_linker_0, # of connection points: 3
#     Node 8, Type 1, BuildingBlock: ESEHIV_clean_linker_0, # of connection points: 3
#     Node 9, Type 1, BuildingBlock: ESEHIV_clean_linker_0, # of connection points: 3
#     Node 10, Type 1, BuildingBlock: ESEHIV_clean_linker_0, # of connection points: 3
#     Node 11, Type 1, BuildingBlock: ESEHIV_clean_linker_0, # of connection points: 3
#     Edge 12, Type (0, 1), BuildingBlock: CIFDUS_clean_linker_0, # of connection points: 2
#     Edge 13, Type (0, 1), BuildingBlock: CIFDUS_clean_linker_0, # of connection points: 2
#     Edge 14, Type (0, 1), BuildingBlock: CIFDUS_clean_linker_0, # of connection points: 2
#     Edge 15, Type (0, 1), BuildingBlock: CIFDUS_clean_linker_0, # of connection points: 2
#     Edge 16, Type (0, 1), BuildingBlock: CIFDUS_clean_linker_0, # of connection points: 2
#     Edge 17, Type (0, 1), BuildingBlock: CIFDUS_clean_linker_0, # of connection points: 2
#     Edge 18, Type (0, 1), BuildingBlock: CIFDUS_clean_linker_0, # of connection points: 2
#     Edge 19, Type (0, 1), BuildingBlock: CIFDUS_clean_linker_0, # of connection points: 2
#     Edge 20, Type (0, 1), BuildingBlock: CIFDUS_clean_linker_0, # of connection points: 2
#     Edge 21, Type (0, 1), BuildingBlock: CIFDUS_clean_linker_0, # of connection points: 2
#     Edge 22, Type (0, 1), BuildingBlock: CIFDUS_clean_linker_0, # of connection points: 2
#     Edge 23, Type (0, 1), BuildingBlock: CIFDUS_clean_linker_0, # of connection points: 2
#     Edge 24, Type (0, 1), BuildingBlock: CIFDUS_clean_linker_0, # of connection points: 2
#     Edge 25, Type (0, 1), BuildingBlock: CIFDUS_clean_linker_0, # of connection points: 2
#     Edge 26, Type (0, 1), BuildingBlock: CIFDUS_clean_linker_0, # of connection points: 2
#     Edge 27, Type (0, 1), BuildingBlock: CIFDUS_clean_linker_0, # of connection points: 2
#     Edge 28, Type (0, 1), BuildingBlock: CIFDUS_clean_linker_0, # of connection points: 2
#     Edge 29, Type (0, 1), BuildingBlock: CIFDUS_clean_linker_0, # of connection points: 2
#     Edge 30, Type (0, 1), BuildingBlock: CIFDUS_clean_linker_0, # of connection points: 2
#     Edge 31, Type (0, 1), BuildingBlock: CIFDUS_clean_linker_0, # of connection points: 2
#     Edge 32, Type (0, 1), BuildingBlock: CIFDUS_clean_linker_0, # of connection points: 2
#     Edge 33, Type (0, 1), BuildingBlock: CIFDUS_clean_linker_0, # of connection points: 2
#     Edge 34, Type (0, 1), BuildingBlock: CIFDUS_clean_linker_0, # of connection points: 2
#     Edge 35, Type (0, 1), BuildingBlock: CIFDUS_clean_linker_0, # of connection points: 2
# Relax obj value: 0.051
# Max RMSD: 0.076
# Mean RMSD: 0.067
data_MOF--net-hwx--node1-IZENUY_clean_sbu_0--node2-ESEHIV_clean_linker_0--edge1-CIFDUS_clean_linker_0
_symmetry_space_group_name_H-M    P1
_symmetry_Int_Tables_number       1
_symmetry_cell_setting            triclinic
loop_
_symmetry_equiv_pos_as_xyz
'x, y, z'
_cell_length_a     39.159482
_cell_length_b     39.297289
_cell_length_c     18.846102
_cell_angle_alpha  90.071849
_cell_angle_beta   90.315658
_cell_angle_gamma 89.956733
loop_
_atom_site_label
_atom_site_type_symbol
_atom_site_fract_x
_atom_site_fract_y
_atom_site_fract_z
_atom_type_partial_charge
Fe0 Fe 0.25878 0.22363 0.12078 0.0
Fe1 Fe 0.25178 0.23029 0.95977 0.0
O2 O 0.24177 0.20874 0.0393 0.0
Fe3 Fe 0.21447 0.17264 0.03727 0.0
O4 O 0.1838 0.1933 0.09518 0.0
O5 O 0.22152 0.21169 0.17304 0.0
O6 O 0.23892 0.26494 0.11014 0.0
C7 C 0.24242 0.28367 0.05661 0.0
C8 C 0.26452 0.15541 0.14197 0.0
O9 O 0.25547 0.27239 1.00022 0.0
C10 C 0.25147 0.16094 0.91774 0.0
O11 O 0.29911 0.2381 0.08295 0.0
O12 O 0.29697 0.22193 0.97102 0.0
O13 O 0.23554 0.15102 0.11278 0.0
O14 O 0.27969 0.18351 0.13711 0.0
C15 C 0.18421 0.21797 0.9377 0.0
O16 O 0.24941 0.19235 0.90404 0.0
O17 O 0.24312 0.14959 0.97793 0.0
C18 C 0.31376 0.22964 0.026 0.0
O19 O 0.20737 0.24 0.94421 0.0
O20 O 0.18834 0.18815 0.96217 0.0
C21 C 0.19087 0.20677 0.15421 0.0
Fe22 Fe 0.24238 0.728 0.58084 0.0
Fe23 Fe 0.2748 0.66567 0.50892 0.0
O24 O 0.25415 0.70584 0.50315 0.0
Fe25 Fe 0.24523 0.72469 0.4199 0.0
O26 O 0.2716 0.76151 0.4407 0.0
O27 O 0.24684 0.77044 0.54263 0.0
O28 O 0.28666 0.73104 0.60856 0.0
C29 C 0.30635 0.70579 0.61653 0.0
C30 C 0.18601 0.73824 0.49882 0.0
O31 O 0.29947 0.67702 0.5891 0.0
C32 C 0.22808 0.65855 0.3924 0.0
O33 O 0.23648 0.69022 0.63498 0.0
O34 O 0.24047 0.64717 0.56175 0.0
O35 O 0.2062 0.74594 0.44919 0.0
O36 O 0.19737 0.72582 0.55619 0.0
C37 C 0.30987 0.69502 0.39874 0.0
O38 O 0.25353 0.64836 0.42894 0.0
O39 O 0.21871 0.68925 0.39381 0.0
C40 C 0.23216 0.65909 0.62143 0.0
O41 O 0.31131 0.68037 0.45807 0.0
O42 O 0.28209 0.70676 0.37511 0.0
C43 C 0.26602 0.7805 0.49328 0.0
Fe44 Fe 0.73153 0.77998 0.9118 0.0
Fe45 Fe 0.74629 0.77768 0.07144 0.0
O46 O 0.75188 0.7972 0.98767 0.0
Fe47 Fe 0.77795 0.83387 0.97867 0.0
O48 O 0.75265 0.85214 0.9051 0.0
O49 O 0.7078 0.81883 0.8976 0.0
O50 O 0.69429 0.76367 0.95866 0.0
C51 C 0.68172 0.77155 0.01797 0.0
C52 C 0.79628 0.79791 0.86108 0.0
O53 O 0.70031 0.78234 0.0677 0.0
C54 C 0.81369 0.79485 0.08274 0.0
O55 O 0.75427 0.74028 0.9214 0.0
O56 O 0.7444 0.7341 0.03558 0.0
O57 O 0.80651 0.8119 0.91771 0.0
O58 O 0.76485 0.79281 0.85035 0.0
C59 C 0.74304 0.84855 0.10033 0.0
O60 O 0.79182 0.77136 0.08267 0.0
O61 O 0.80761 0.82266 0.05117 0.0
C62 C 0.75396 0.72213 0.97635 0.0
O63 O 0.74697 0.81802 0.12071 0.0
O64 O 0.75123 0.85786 0.03864 0.0
C65 C 0.72197 0.84701 0.88559 0.0
Fe66 Fe 0.71648 0.31797 0.48145 0.0
Fe67 Fe 0.7614 0.2652 0.55699 0.0
O68 O 0.74556 0.28347 0.4778 0.0
Fe69 Fe 0.75902 0.26641 0.39568 0.0
O70 O 0.77682 0.30665 0.36873 0.0
O71 O 0.73364 0.33899 0.40184 0.0
O72 O 0.74563 0.34401 0.53447 0.0
C73 C 0.75586 0.33493 0.59507 0.0
C74 C 0.68922 0.2817 0.37029 0.0
O75 O 0.75786 0.30376 0.61032 0.0
C76 C 0.75072 0.20819 0.47101 0.0
O77 O 0.69451 0.3018 0.5609 0.0
O78 O 0.719 0.25221 0.58228 0.0
O79 O 0.71896 0.27501 0.34856 0.0
O80 O 0.68457 0.29537 0.42987 0.0
C81 C 0.8192 0.26757 0.47906 0.0
O82 O 0.76742 0.2225 0.52012 0.0
O83 O 0.74145 0.22497 0.41741 0.0
C84 C 0.69411 0.2724 0.58909 0.0
O85 O 0.80448 0.27763 0.53472 0.0
O86 O 0.80207 0.25514 0.42788 0.0
C87 C 0.76072 0.33442 0.36612 0.0
H88 H 0.19259 0.57726 0.00823 0.0
H89 H 0.19431 0.48321 0.89165 0.0
H90 H 0.18738 0.48263 0.11979 0.0
C91 C 0.19117 0.54973 0.00719 0.0
C92 C 0.191 0.53174 0.07148 0.0
C93 C 0.19148 0.53234 0.94172 0.0
C94 C 0.19153 0.49656 0.94159 0.0
C95 C 0.19074 0.47816 0.00567 0.0
C96 C 0.18896 0.49621 0.06994 0.0
H97 H 0.88719 0.78547 0.47392 0.0
H98 H 0.98236 0.7558 0.37979 0.0
H99 H 0.97708 0.77643 0.60428 0.0
C100 C 0.91429 0.78023 0.47926 0.0
C101 C 0.93007 0.78234 0.54615 0.0
C102 C 0.9331 0.77106 0.41916 0.0
C103 C 0.96804 0.76376 0.42599 0.0
C104 C 0.98404 0.76533 0.49308 0.0
C105 C 0.96494 0.77516 0.5525 0.0
H106 H 0.77432 0.42121 0.97945 0.0
H107 H 0.76419 0.51387 0.09716 0.0
H108 H 0.76527 0.51676 0.86879 0.0
C109 C 0.77217 0.4487 0.98017 0.0
C110 C 0.77099 0.46695 0.91584 0.0
C111 C 0.7689 0.46552 0.04542 0.0
C112 C 0.76595 0.50092 0.04647 0.0
C113 C 0.76451 0.51969 0.98329 0.0
C114 C 0.76749 0.5026 0.9179 0.0
H115 H 0.11993 0.26507 0.54846 0.0
H116 H 0.02249 0.27284 0.64897 0.0
H117 H 0.02901 0.27194 0.42019 0.0
C118 C 0.09242 0.26776 0.54394 0.0
C119 C 0.07678 0.26801 0.47684 0.0
C120 C 0.07289 0.2696 0.60562 0.0
C121 C 0.03738 0.27199 0.60068 0.0
C122 C 0.02117 0.2733 0.53393 0.0
C123 C 0.04108 0.27085 0.47202 0.0
H124 H 0.68518 0.9187 0.50736 0.0
H125 H 0.68735 0.01956 0.59406 0.0
H126 H 0.68174 0.00549 0.36819 0.0
C127 C 0.68312 0.94593 0.49945 0.0
C128 C 0.68207 0.95925 0.4302 0.0
C129 C 0.68493 0.96755 0.55869 0.0
C130 C 0.68522 0.00282 0.54846 0.0
C131 C 0.68454 0.01664 0.47982 0.0
C132 C 0.68187 0.99479 0.42113 0.0
H133 H 0.61092 0.26483 0.96451 0.0
H134 H 0.51999 0.26029 0.09084 0.0
H135 H 0.51314 0.27269 0.86345 0.0
C136 C 0.5833 0.26502 0.96856 0.0
C137 C 0.56364 0.26953 0.90716 0.0
C138 C 0.56782 0.2615 0.03501 0.0
C139 C 0.53204 0.26285 0.03952 0.0
C140 C 0.51187 0.26685 0.97778 0.0
C141 C 0.52808 0.27047 0.91182 0.0
H142 H 0.29298 0.07858 0.52799 0.0
H143 H 0.28684 0.98084 0.42741 0.0
H144 H 0.30017 0.9877 0.65402 0.0
C145 C 0.29416 0.05108 0.53176 0.0
C146 C 0.2969 0.03547 0.59871 0.0
C147 C 0.29081 0.0314 0.46992 0.0
C148 C 0.29093 0.99585 0.47499 0.0
C149 C 0.29459 0.97974 0.54111 0.0
C150 C 0.29818 -0.00017 0.60258 0.0
H151 H 0.38947 0.69386 0.01273 0.0
H152 H 0.47977 0.7103 0.89034 0.0
H153 H 0.47905 0.73377 0.11464 0.0
C154 C 0.41624 0.70087 0.01017 0.0
C155 C 0.43301 0.71245 0.07132 0.0
C156 C 0.43299 0.7006 0.94491 0.0
C157 C 0.4671 0.71105 0.94126 0.0
C158 C 0.48444 0.72283 0.00229 0.0
C159 C 0.46699 0.72336 0.06751 0.0
H160 H 0.19371 0.25615 0.25237 0.0
H161 H 0.12662 0.1793 0.16652 0.0
H162 H 0.08344 0.1937 0.25567 0.0
H163 H 0.06708 0.22538 0.36419 0.0
H164 H 0.1349 0.30253 0.44681 0.0
H165 H 0.17548 0.29096 0.35215 0.0
C166 C 0.16962 0.24252 0.25312 0.0
C167 C 0.16354 0.21627 0.20405 0.0
C168 C 0.14511 0.25104 0.30383 0.0
C169 C 0.13192 0.19944 0.2043 0.0
C170 C 0.1073 0.20765 0.25522 0.0
C171 C 0.09044 0.24006 0.36045 0.0
C172 C 0.09825 0.26445 0.41282 0.0
C173 C 0.11387 0.23306 0.30603 0.0
C174 C 0.12864 0.28326 0.40768 0.0
C175 C 0.15183 0.27666 0.35367 0.0
H176 H 0.19302 0.60096 0.63588 0.0
H177 H 0.26399 0.66656 0.74642 0.0
H178 H 0.25831 0.63297 0.85346 0.0
H179 H 0.23276 0.58617 0.91739 0.0
H180 H 0.15964 0.52082 0.81323 0.0
H181 H 0.16681 0.55263 0.7024 0.0
C182 C 0.20722 0.60763 0.68343 0.0
C183 C 0.22857 0.6364 0.68339 0.0
C184 C 0.2034 0.58836 0.74619 0.0
C185 C 0.24695 0.64484 0.74533 0.0
C186 C 0.24383 0.62562 0.8067 0.0
C187 C 0.21792 0.57912 0.87089 0.0
C188 C 0.19533 0.55148 0.87406 0.0
C189 C 0.22185 0.59766 0.80807 0.0
C190 C 0.17724 0.54206 0.81231 0.0
C191 C 0.18126 0.5603 0.74894 0.0
H192 H 0.83011 0.74229 0.17073 0.0
H193 H 0.864 0.84208 0.10639 0.0
H194 H 0.90697 0.84193 0.20079 0.0
H195 H 0.9305 0.81615 0.3105 0.0
H196 H 0.89436 0.7179 0.3773 0.0
H197 H 0.85688 0.71456 0.27306 0.0
C198 C 0.84721 0.76384 0.17647 0.0
C199 C 0.84344 0.79232 0.13181 0.0
C200 C 0.87136 0.76392 0.23186 0.0
C201 C 0.86607 0.81987 0.14012 0.0
C202 C 0.89062 0.81988 0.19436 0.0
C203 C 0.9149 0.79379 0.301 0.0
C204 C 0.91511 0.76719 0.35066 0.0
C205 C 0.89285 0.79248 0.24182 0.0
C206 C 0.89458 0.73848 0.33908 0.0
C207 C 0.8731 0.73668 0.27981 0.0
H208 H 0.787 0.3974 0.61277 0.0
H209 H 0.71929 0.32551 0.71256 0.0
H210 H 0.7167 0.36075 0.81835 0.0
H211 H 0.73508 0.41025 0.8849 0.0
H212 H 0.80487 0.48205 0.79193 0.0
H213 H 0.80487 0.44911 0.6811 0.0
C214 C 0.77157 0.38979 0.65764 0.0
C215 C 0.75365 0.3588 0.65531 0.0
C216 C 0.77065 0.41004 0.71963 0.0
C217 C 0.73369 0.34906 0.71362 0.0
C218 C 0.73211 0.36919 0.77413 0.0
C219 C 0.75064 0.41858 0.84075 0.0
C220 C 0.77041 0.44821 0.84717 0.0
C221 C 0.75089 0.39937 0.7782 0.0
C222 C 0.78947 0.45923 0.78843 0.0
C223 C 0.78956 0.44033 0.72516 0.0
H224 H 0.68583 0.23963 0.25704 0.0
H225 H 0.6272 0.31398 0.37299 0.0
H226 H 0.58236 0.31193 0.28218 0.0
H227 H 0.56287 0.29333 0.16339 0.0
H228 H 0.62187 0.21857 0.04925 0.0
H229 H 0.66343 0.21641 0.14589 0.0
C230 C 0.66309 0.25517 0.26277 0.0
C231 C 0.66008 0.27729 0.32098 0.0
C232 C 0.63759 0.25398 0.2104 0.0
C233 C 0.6302 0.29682 0.32844 0.0
C234 C 0.60461 0.29577 0.27639 0.0
C235 C 0.58445 0.27607 0.16046 0.0
C236 C 0.58964 0.25661 0.09876 0.0
C237 C 0.60843 0.27505 0.21624 0.0
C238 C 0.61774 0.23436 0.09559 0.0
C239 C 0.64147 0.23304 0.15084 0.0
H240 H 0.29486 0.10663 0.90169 0.0
H241 H 0.21579 0.16443 0.79656 0.0
H242 H 0.22327 0.13117 0.68864 0.0
H243 H 0.25262 0.08674 0.62321 0.0
H244 H 0.33333 0.0293 0.72349 0.0
H245 H 0.32495 0.06115 0.83403 0.0
C246 C 0.27912 0.11148 0.85526 0.0
C247 C 0.2548 0.13777 0.85677 0.0
C248 C 0.28409 0.09264 0.79237 0.0
C249 C 0.23474 0.14429 0.79626 0.0
C250 C 0.23904 0.12539 0.73454 0.0
C251 C 0.26884 0.08154 0.66877 0.0
C252 C 0.29385 0.056 0.66474 0.0
C253 C 0.2639 0.09985 0.73167 0.0
C254 C 0.3139 0.04891 0.72516 0.0
C255 C 0.3091 0.06709 0.78838 0.0
H256 H 0.32182 0.74188 0.29901 0.0
H257 H 0.36522 0.65184 0.39413 0.0
H258 H 0.41031 0.65121 0.30405 0.0
H259 H 0.4333 0.67317 0.19002 0.0
H260 H 0.38758 0.76211 0.09548 0.0
H261 H 0.34744 0.76655 0.19387 0.0
C262 C 0.34131 0.72222 0.30039 0.0
C263 C 0.33994 0.69659 0.35212 0.0
C264 C 0.36658 0.72185 0.24839 0.0
C265 C 0.36572 0.67174 0.35444 0.0
C266 C 0.39134 0.6713 0.3028 0.0
C267 C 0.4149 0.69379 0.19221 0.0
C268 C 0.41306 0.71732 0.13631 0.0
C269 C 0.39147 0.69574 0.24838 0.0
C270 C 0.38919 0.74387 0.13848 0.0
C271 C 0.36626 0.74631 0.19437 0.0
H272 H 0.74521 0.90876 0.84245 0.0
H273 H 0.66225 0.83777 0.81193 0.0
H274 H 0.64149 0.87082 0.71124 0.0
H275 H 0.65086 0.91603 0.62321 0.0
H276 H 0.73418 0.98641 0.65311 0.0
H277 H 0.75053 0.95771 0.76293 0.0
C278 C 0.72228 0.90078 0.81452 0.0
C279 C 0.70578 0.87046 0.83397 0.0
C280 C 0.71065 0.91966 0.75606 0.0
C281 C 0.67576 0.8608 0.79776 0.0
C282 C 0.66389 0.87961 0.73987 0.0
C283 C 0.67231 0.92526 0.65441 0.0
C284 C 0.69141 0.95308 0.63002 0.0
C285 C 0.6818 0.90843 0.71714 0.0
C286 C 0.71894 0.96514 0.6711 0.0
C287 C 0.72846 0.94861 0.73363 0.0
H288 H 0.8589 0.82602 0.83291 0.0
H289 H 0.78609 0.75153 0.75789 0.0
H290 H 0.8209 0.74049 0.65413 0.0
H291 H 0.87082 0.75281 0.58254 0.0
H292 H 0.94437 0.82698 0.65413 0.0
H293 H 0.91064 0.83728 0.76134 0.0
C294 C 0.85094 0.80719 0.79411 0.0
C295 C 0.81984 0.78989 0.80268 0.0
C296 C 0.87101 0.80109 0.73368 0.0
C297 C 0.80974 0.76553 0.75201 0.0
C298 C 0.82959 0.75914 0.6926 0.0
C299 C 0.87925 0.7715 0.62128 0.0
C300 C 0.90966 0.78943 0.61028 0.0
C301 C 0.85995 0.7771 0.68238 0.0
C302 C 0.92087 0.81294 0.66165 0.0
C303 C 0.90164 0.81881 0.72281 0.0
H304 H 0.72716 0.39244 0.32903 0.0
H305 H 0.81588 0.33202 0.2778 0.0
H306 H 0.82697 0.36789 0.1751 0.0
H307 H 0.80906 0.41396 0.09449 0.0
H308 H 0.72016 0.4738 0.14576 0.0
H309 H 0.71168 0.4407 0.25363 0.0
C310 C 0.74921 0.38736 0.29607 0.0
C311 C 0.77037 0.35932 0.31085 0.0
C312 C 0.75527 0.40781 0.23651 0.0
C313 C 0.79894 0.35328 0.26753 0.0
C314 C 0.80528 0.3737 0.2085 0.0
C315 C 0.78793 0.4197 0.12952 0.0
C316 C 0.76525 0.44614 0.11226 0.0
C317 C 0.78316 0.40054 0.19152 0.0
C318 C 0.73814 0.45369 0.15832 0.0
C319 C 0.73318 0.43472 0.21985 0.0
H320 H 0.173 0.27616 0.86425 0.0
H321 H 0.1311 0.17604 0.90013 0.0
H322 H 0.0894 0.18523 0.80504 0.0
H323 H 0.06965 0.2191 0.70228 0.0
H324 H 0.11537 0.31675 0.66153 0.0
H325 H 0.15077 0.31133 0.76839 0.0
C326 C 0.15451 0.25643 0.85208 0.0
C327 C 0.15552 0.22525 0.88863 0.0
C328 C 0.13146 0.26142 0.79608 0.0
C329 C 0.13109 0.20017 0.87243 0.0
C330 C 0.10731 0.20536 0.8179 0.0
C331 C 0.08693 0.23935 0.71801 0.0
C332 C 0.09013 0.26827 0.67501 0.0
C333 C 0.10797 0.23546 0.77799 0.0
C334 C 0.11272 0.29434 0.6945 0.0
C335 C 0.13293 0.29118 0.75522 0.0
H336 H 0.2475 0.59417 0.35687 0.0
H337 H 0.17435 0.67251 0.30369 0.0
H338 H 0.15496 0.63945 0.20171 0.0
H339 H 0.16203 0.59036 0.12151 0.0
H340 H 0.23593 0.51281 0.17443 0.0
H341 H 0.25137 0.54327 0.28247 0.0
C342 C 0.22697 0.60383 0.32368 0.0
C343 C 0.21279 0.636 0.33766 0.0
C344 C 0.21614 0.5849 0.26447 0.0
C345 C 0.18604 0.64796 0.29403 0.0
C346 C 0.17494 0.62912 0.2354 0.0
C347 C 0.18134 0.58011 0.157 0.0
C348 C 0.19773 0.54938 0.13989 0.0
C349 C 0.1904 0.59794 0.21905 0.0
C350 C 0.22255 0.53621 0.18672 0.0
C351 C 0.2316 0.55372 0.24838 0.0
H352 H 0.33044 0.65663 0.70402 0.0
H353 H 0.34516 0.76155 0.64457 0.0
H354 H 0.38911 0.7678 0.73646 0.0
H355 H 0.41985 0.74472 0.83973 0.0
H356 H 0.4008 0.64184 0.90716 0.0
H357 H 0.36215 0.63317 0.8058 0.0
C358 C 0.34368 0.68068 0.71058 0.0
C359 C 0.33478 0.70859 0.66768 0.0
C360 C 0.36796 0.68439 0.76505 0.0
C361 C 0.35162 0.73979 0.67729 0.0
C362 C 0.37669 0.74336 0.7297 0.0
C363 C 0.40767 0.72025 0.83112 0.0
C364 C 0.41325 0.69376 0.87967 0.0
C365 C 0.3846 0.71602 0.77467 0.0
C366 C 0.3969 0.66236 0.86966 0.0
C367 C 0.3748 0.65752 0.81207 0.0
H368 H 0.69977 0.83941 0.21001 0.0
H369 H 0.76121 0.91534 0.10606 0.0
H370 H 0.74611 0.95698 0.19711 0.0
H371 H 0.7192 0.97019 0.31037 0.0
H372 H 0.65428 0.89573 0.41061 0.0
H373 H 0.66735 0.8549 0.31688 0.0
C374 C 0.70968 0.86515 0.20729 0.0
C375 C 0.73188 0.87427 0.15216 0.0
C376 C 0.70049 0.88905 0.25914 0.0
C377 C 0.74412 0.90778 0.1482 0.0
C378 C 0.73557 0.93153 0.20028 0.0
C379 C 0.70701 0.94544 0.31103 0.0
C380 C 0.68594 0.9361 0.36813 0.0
C381 C 0.71416 0.92229 0.25647 0.0
C382 C 0.67111 0.90348 0.3682 0.0
C383 C 0.67846 0.88013 0.31446 0.0
H384 H 0.63979 0.31127 0.62855 0.0
H385 H 0.68875 0.21442 0.6677 0.0
H386 H 0.65057 0.204 0.76667 0.0
H387 H 0.60734 0.22481 0.84944 0.0
H388 H 0.55794 0.32111 0.81151 0.0
H389 H 0.59206 0.32928 0.70409 0.0
C390 C 0.64182 0.28768 0.65808 0.0
C391 C 0.66752 0.26399 0.64148 0.0
C392 C 0.61991 0.28187 0.71541 0.0
C393 C 0.6695 0.23334 0.6798 0.0
C394 C 0.64772 0.22733 0.73657 0.0
C395 C 0.60391 0.24737 0.81701 0.0
C396 C 0.58072 0.27255 0.83811 0.0
C397 C 0.62355 0.25183 0.756 0.0
C398 C 0.57584 0.3015 0.79578 0.0
C399 C 0.59539 0.3062 0.73479 0.0
H400 H 0.2336 0.09743 0.18906 0.0
H401 H 0.32492 0.15793 0.21474 0.0
H402 H 0.3419 0.12387 0.31674 0.0
H403 H 0.3282 0.08043 0.40595 0.0
H404 H 0.23762 0.01939 0.38006 0.0
H405 H 0.22305 0.04998 0.27101 0.0
C406 C 0.25751 0.10281 0.21614 0.0
C407 C 0.27759 0.1306 0.19476 0.0
C408 C 0.2671 0.08326 0.27541 0.0
C409 C 0.30866 0.13698 0.23036 0.0
C410 C 0.31841 0.11758 0.28901 0.0
C411 C 0.30545 0.07376 0.37593 0.0
C412 C 0.28386 0.04801 0.40093 0.0
C413 C 0.29734 0.09133 0.31325 0.0
C414 C 0.25463 0.03915 0.36148 0.0
C415 C 0.24625 0.05668 0.29934 0.0
H416 H 0.20758 0.31949 0.95886 0.0
H417 H 0.25693 0.32806 0.16311 0.0
H418 H 0.24532 0.38934 0.16489 0.0
H419 H 0.22435 0.44008 0.10511 0.0
H420 H 0.16836 0.4309 0.90751 0.0
H421 H 0.18028 0.36996 0.9054 0.0
C422 C 0.21559 0.33491 0.00377 0.0
C423 C 0.23339 0.31979 0.06041 0.0
C424 C 0.20801 0.36976 0.00517 0.0
C425 C 0.24323 0.33948 0.11905 0.0
C426 C 0.2367 0.37438 0.11987 0.0
C427 C 0.21366 0.42491 0.06242 0.0
C428 C 0.19541 0.44048 0.00647 0.0
C429 C 0.21939 0.38977 0.06289 0.0
C430 C 0.18304 0.41999 0.95068 0.0
C431 C 0.1896 0.38503 0.94965 0.0
H432 H 0.13252 0.71785 0.58079 0.0
H433 H 0.15735 0.77744 0.39569 0.0
H434 H 0.09729 0.79018 0.37649 0.0
H435 H 0.03752 0.78493 0.4121 0.0
H436 H 0.012 0.72483 0.5956 0.0
H437 H 0.07231 0.71189 0.6155 0.0
C438 C 0.12477 0.73377 0.53657 0.0
C439 C 0.14945 0.7467 0.49005 0.0
C440 C 0.08999 0.74089 0.52525 0.0
C441 C 0.13894 0.76707 0.43248 0.0
C442 C 0.10454 0.77441 0.42125 0.0
C443 C 0.04518 0.76871 0.45593 0.0
C444 C 0.02044 0.75601 0.50239 0.0
C445 C 0.07984 0.76138 0.4671 0.0
C446 C 0.0307 0.7353 0.55955 0.0
C447 C 0.06514 0.72781 0.5709 0.0
H448 H 0.7254 0.67161 0.05216 0.0
H449 H 0.79618 0.69066 0.88236 0.0
H450 H 0.80552 0.62939 0.86801 0.0
H451 H 0.79382 0.57035 0.90527 0.0
H452 H 0.71947 0.55229 0.06937 0.0
H453 H 0.71132 0.61319 0.08438 0.0
C454 C 0.74306 0.66232 0.01241 0.0
C455 C 0.76038 0.68542 0.96897 0.0
C456 C 0.74759 0.62725 0.0033 0.0
C457 C 0.78266 0.67317 0.91658 0.0
C458 C 0.78796 0.63822 0.9083 0.0
C459 C 0.77557 0.57978 0.94366 0.0
C460 C 0.75783 0.5568 0.98704 0.0
C461 C 0.77049 0.61499 0.95134 0.0
C462 C 0.7342 0.56943 0.0366 0.0
C463 C 0.72935 0.60426 0.04506 0.0
H464 H 0.86341 0.30146 0.56459 0.0
H465 H 0.85945 0.23083 0.38909 0.0
H466 H 0.92168 0.22689 0.38952 0.0
H467 H 0.97703 0.24177 0.44291 0.0
H468 H 0.9808 0.31428 0.61513 0.0
H469 H 0.91875 0.31882 0.61329 0.0
C470 C 0.87616 0.2852 0.52642 0.0
C471 C 0.85685 0.26625 0.47737 0.0
C472 C 0.91188 0.2832 0.52663 0.0
C473 C 0.87374 0.24567 0.42756 0.0
C474 C 0.90932 0.24333 0.42782 0.0
C475 C 0.96433 0.25894 0.47935 0.0
C476 C 0.98355 0.27734 0.52957 0.0
C477 C 0.92863 0.2618 0.47746 0.0
C478 C 0.9666 0.29923 0.57692 0.0
C479 C 0.93112 0.30203 0.57565 0.0
H480 H 0.70266 0.17168 0.39849 0.0
H481 H 0.78225 0.1625 0.55696 0.0
H482 H 0.76824 0.10278 0.57372 0.0
H483 H 0.73342 0.05348 0.54491 0.0
H484 H 0.65273 0.06146 0.38915 0.0
H485 H 0.66729 0.12139 0.36934 0.0
C486 C 0.71711 0.15646 0.43611 0.0
C487 C 0.74349 0.17147 0.47629 0.0
C488 C 0.7086 0.12209 0.44635 0.0
C489 C 0.76178 0.15159 0.52545 0.0
C490 C 0.75378 0.11744 0.53521 0.0
C491 C 0.7186 0.06845 0.50745 0.0
C492 C 0.69172 0.05328 0.46933 0.0
C493 C 0.72708 0.10257 0.49652 0.0
C494 C 0.67348 0.0727 0.41929 0.0
C495 C 0.6818 0.10689 0.40799 0.0
H496 H 0.35136 0.26938 0.94001 0.0
H497 H 0.35855 0.19568 0.10841 0.0
H498 H 0.4209 0.20078 0.10917 0.0
H499 H 0.47298 0.2259 0.06101 0.0
H500 H 0.46549 0.30411 0.9008 0.0
H501 H 0.40361 0.29751 0.89744 0.0
C502 C 0.3668 0.25433 0.97624 0.0
C503 C 0.35096 0.23182 0.02325 0.0
C504 C 0.40238 0.25833 0.97805 0.0
C505 C 0.37067 0.21291 0.07142 0.0
C506 C 0.40614 0.21592 0.07199 0.0
C507 C 0.45786 0.24202 0.02633 0.0
C508 C 0.47401 0.26525 0.98086 0.0
C509 C 0.42225 0.23867 0.02573 0.0
C510 C 0.45386 0.28551 0.93543 0.0
C511 C 0.41842 0.28188 0.93361 0.0
H512 H 0.25236 0.82773 0.59297 0.0
H513 H 0.30609 0.81359 0.39562 0.0
H514 H 0.32233 0.87382 0.39623 0.0
H515 H 0.31865 0.93089 0.45045 0.0
H516 H 0.26065 0.94416 0.64308 0.0
H517 H 0.24959 0.88347 0.64749 0.0
C518 C 0.26773 0.83764 0.54998 0.0
C519 C 0.27768 0.81625 0.49392 0.0
C520 C 0.27644 0.87209 0.55015 0.0
C521 C 0.29784 0.82959 0.43912 0.0
C522 C 0.30714 0.86399 0.4395 0.0
C523 C 0.30354 0.92052 0.49333 0.0
C524 C 0.29067 0.94223 0.54647 0.0
C525 C 0.29612 0.88557 0.4943 0.0
C526 C 0.27159 0.92818 0.60224 0.0
C527 C 0.26484 0.89344 0.60442 0.0
H528 H 0.63028 0.77983 0.92501 0.0
H529 H 0.65235 0.74683 0.1384 0.0
H530 H 0.59287 0.72873 0.15286 0.0
H531 H 0.53588 0.71903 0.1013 0.0
H532 H 0.51314 0.75764 0.89147 0.0
H533 H 0.57192 0.77606 0.87868 0.0
C534 C 0.6219 0.7689 0.97484 0.0
C535 C 0.64544 0.7643 0.03034 0.0
C536 C 0.58781 0.75907 0.98295 0.0
C537 C 0.63446 0.75063 0.09508 0.0
C538 C 0.60059 0.74013 0.10313 0.0
C539 C 0.54347 0.73199 0.05319 0.0
C540 C 0.51999 0.73605 0.99685 0.0
C541 C 0.57716 0.74378 0.04696 0.0
C542 C 0.53071 0.75283 0.93484 0.0
C543 C 0.56432 0.76384 0.92765 0.0
loop_
_geom_bond_atom_site_label_1
_geom_bond_atom_site_label_2
_geom_bond_distance
_geom_bond_site_symmetry_2
_ccdc_geom_bond_type
Fe0 O2 1.929 . S
Fe0 O5 1.997 . S
Fe0 O6 2.002 . S
Fe0 O11 1.976 . S
Fe0 O14 1.996 . S
Fe1 O2 1.907 1_556 S
Fe1 O9 1.997 . S
Fe1 O12 1.996 . S
Fe1 O16 1.976 . S
Fe1 O19 2.002 . S
O2 Fe0 1.929 . S
O2 Fe1 1.907 1_554 S
O2 Fe3 1.918 . S
Fe3 O2 1.918 . S
Fe3 O4 2.003 . S
Fe3 O13 1.976 . S
Fe3 O17 1.995 1_554 S
Fe3 O20 1.996 1_554 S
O4 Fe3 2.003 . S
O4 C21 1.295 . S
O5 Fe0 1.997 . S
O5 C21 1.235 . S
O6 Fe0 2.002 . S
O6 C7 1.295 . S
C7 O6 1.295 . S
C7 O9 1.235 1_554 S
C8 O13 1.287 . S
C8 O14 1.255 . S
O9 Fe1 1.997 . S
O9 C7 1.235 1_556 S
C10 O16 1.287 . S
C10 O17 1.255 . S
O11 Fe0 1.976 . S
O11 C18 1.287 1_554 S
O12 Fe1 1.996 . S
O12 C18 1.255 . S
O13 Fe3 1.976 . S
O13 C8 1.287 . S
O14 Fe0 1.996 . S
O14 C8 1.255 . S
C15 O19 1.295 . S
C15 O20 1.235 . S
O16 Fe1 1.976 . S
O16 C10 1.287 . S
O17 Fe3 1.995 1_556 S
O17 C10 1.255 . S
C18 O11 1.287 1_556 S
C18 O12 1.255 . S
O19 Fe1 2.002 . S
O19 C15 1.295 . S
O20 Fe3 1.996 1_556 S
O20 C15 1.235 . S
C21 O4 1.295 . S
C21 O5 1.235 . S
Fe22 O24 1.918 . S
Fe22 O27 1.997 . S
Fe22 O28 2.002 . S
Fe22 O33 1.976 . S
Fe22 O36 1.996 . S
Fe23 O24 1.918 . S
Fe23 O31 1.997 . S
Fe23 O34 1.996 . S
Fe23 O38 1.976 . S
Fe23 O41 2.002 . S
O24 Fe22 1.918 . S
O24 Fe23 1.918 . S
O24 Fe25 1.918 . S
Fe25 O24 1.918 . S
Fe25 O26 2.002 . S
Fe25 O35 1.976 . S
Fe25 O39 1.996 . S
Fe25 O42 1.997 . S
O26 Fe25 2.002 . S
O26 C43 1.295 . S
O27 Fe22 1.997 . S
O27 C43 1.235 . S
O28 Fe22 2.002 . S
O28 C29 1.295 . S
C29 O28 1.295 . S
C29 O31 1.235 . S
C30 O35 1.287 . S
C30 O36 1.255 . S
O31 Fe23 1.997 . S
O31 C29 1.235 . S
C32 O38 1.287 . S
C32 O39 1.255 . S
O33 Fe22 1.976 . S
O33 C40 1.287 . S
O34 Fe23 1.996 . S
O34 C40 1.255 . S
O35 Fe25 1.976 . S
O35 C30 1.287 . S
O36 Fe22 1.996 . S
O36 C30 1.255 . S
C37 O41 1.295 . S
C37 O42 1.235 . S
O38 Fe23 1.976 . S
O38 C32 1.287 . S
O39 Fe25 1.996 . S
O39 C32 1.255 . S
C40 O33 1.287 . S
C40 O34 1.255 . S
O41 Fe23 2.002 . S
O41 C37 1.295 . S
O42 Fe25 1.997 . S
O42 C37 1.235 . S
C43 O26 1.295 . S
C43 O27 1.235 . S
Fe44 O46 1.910 1_556 S
Fe44 O49 1.997 . S
Fe44 O50 2.002 . S
Fe44 O55 1.976 . S
Fe44 O58 1.996 . S
Fe45 O46 1.926 . S
Fe45 O53 1.997 . S
Fe45 O56 1.996 . S
Fe45 O60 1.976 . S
Fe45 O63 2.002 . S
O46 Fe44 1.910 1_554 S
O46 Fe45 1.926 . S
O46 Fe47 1.918 . S
Fe47 O46 1.918 . S
Fe47 O48 2.002 1_554 S
Fe47 O57 1.976 1_554 S
Fe47 O61 1.996 . S
Fe47 O64 1.997 . S
O48 Fe47 2.002 1_556 S
O48 C65 1.295 . S
O49 Fe44 1.997 . S
O49 C65 1.235 . S
O50 Fe44 2.002 . S
O50 C51 1.295 . S
C51 O50 1.295 . S
C51 O53 1.235 1_556 S
C52 O57 1.287 . S
C52 O58 1.255 . S
O53 Fe45 1.997 . S
O53 C51 1.235 1_554 S
C54 O60 1.287 . S
C54 O61 1.255 . S
O55 Fe44 1.976 . S
O55 C62 1.287 1_556 S
O56 Fe45 1.996 . S
O56 C62 1.255 . S
O57 Fe47 1.976 1_556 S
O57 C52 1.287 . S
O58 Fe44 1.996 . S
O58 C52 1.255 . S
C59 O63 1.295 . S
C59 O64 1.235 . S
O60 Fe45 1.976 . S
O60 C54 1.287 . S
O61 Fe47 1.996 . S
O61 C54 1.255 . S
C62 O55 1.287 1_554 S
C62 O56 1.255 . S
O63 Fe45 2.002 . S
O63 C59 1.295 . S
O64 Fe47 1.997 . S
O64 C59 1.235 . S
C65 O48 1.295 . S
C65 O49 1.235 . S
Fe66 O68 1.918 . S
Fe66 O71 1.997 . S
Fe66 O72 2.002 . S
Fe66 O77 1.976 . S
Fe66 O80 1.996 . S
Fe67 O68 1.918 . S
Fe67 O75 1.997 . S
Fe67 O78 1.996 . S
Fe67 O82 1.976 . S
Fe67 O85 2.002 . S
O68 Fe66 1.918 . S
O68 Fe67 1.918 . S
O68 Fe69 1.918 . S
Fe69 O68 1.918 . S
Fe69 O70 2.002 . S
Fe69 O79 1.976 . S
Fe69 O83 1.996 . S
Fe69 O86 1.997 . S
O70 Fe69 2.002 . S
O70 C87 1.295 . S
O71 Fe66 1.997 . S
O71 C87 1.235 . S
O72 Fe66 2.002 . S
O72 C73 1.295 . S
C73 O72 1.295 . S
C73 O75 1.235 . S
C74 O79 1.287 . S
C74 O80 1.255 . S
O75 Fe67 1.997 . S
O75 C73 1.235 . S
C76 O82 1.287 . S
C76 O83 1.255 . S
O77 Fe66 1.976 . S
O77 C84 1.287 . S
O78 Fe67 1.996 . S
O78 C84 1.255 . S
O79 Fe69 1.976 . S
O79 C74 1.287 . S
O80 Fe66 1.996 . S
O80 C74 1.255 . S
C81 O85 1.295 . S
C81 O86 1.235 . S
O82 Fe67 1.976 . S
O82 C76 1.287 . S
O83 Fe69 1.996 . S
O83 C76 1.255 . S
C84 O77 1.287 . S
C84 O78 1.255 . S
O85 Fe67 2.002 . S
O85 C81 1.295 . S
O86 Fe69 1.997 . S
O86 C81 1.235 . S
C87 O70 1.295 . S
C87 O71 1.235 . S
H88 C91 0.931 . S
H89 C94 0.928 . S
H90 C96 0.930 . S
C91 H88 0.931 . S
C91 C92 1.400 1_556 S
C91 C93 1.373 . S
C92 C91 1.400 1_554 S
C92 C96 1.429 . S
C93 C91 1.373 . S
C93 C94 1.372 . S
C94 H89 0.928 . S
C94 C93 1.372 . S
C94 C95 1.404 . S
C95 C94 1.404 . S
C95 C96 1.390 1_556 S
C96 H90 0.930 . S
C96 C92 1.429 . S
C96 C95 1.390 1_554 S
H97 C100 0.931 . S
H98 C103 0.928 1_455 S
H99 C105 0.930 1_455 S
C100 H97 0.931 . S
C100 C101 1.413 . S
C100 C102 1.360 . S
C101 C100 1.413 . S
C101 C105 1.429 . S
C102 C100 1.360 . S
C102 C103 1.372 . S
C103 H98 0.928 1_655 S
C103 C102 1.372 . S
C103 C104 1.404 1_655 S
C104 C103 1.404 1_455 S
C104 C105 1.391 1_455 S
C105 H99 0.930 1_655 S
C105 C101 1.429 . S
C105 C104 1.391 1_655 S
H106 C109 0.931 . S
H107 C112 0.928 . S
H108 C114 0.930 . S
C109 H106 0.931 . S
C109 C110 1.413 1_554 S
C109 C111 1.360 . S
C110 C109 1.413 1_556 S
C110 C114 1.429 . S
C111 C109 1.360 . S
C111 C112 1.372 . S
C112 H107 0.928 . S
C112 C111 1.372 . S
C112 C113 1.404 . S
C113 C112 1.404 . S
C113 C114 1.391 1_554 S
C114 H108 0.930 . S
C114 C110 1.429 . S
C114 C113 1.391 1_556 S
H115 C118 0.931 . S
H116 C121 0.917 1_655 S
H117 C123 0.932 . S
C118 H115 0.931 . S
C118 C119 1.413 . S
C118 C120 1.360 . S
C119 C118 1.413 . S
C119 C123 1.426 1_455 S
C120 C118 1.360 . S
C120 C121 1.396 . S
C121 H116 0.917 1_455 S
C121 C120 1.396 . S
C121 C122 1.392 1_455 S
C122 C121 1.392 1_655 S
C122 C123 1.392 . S
C123 H117 0.932 . S
C123 C119 1.426 1_655 S
C123 C122 1.392 . S
H124 C127 0.931 . S
H125 C130 0.928 . S
H126 C132 0.930 . S
C127 H124 0.931 . S
C127 C128 1.413 . S
C127 C129 1.360 . S
C128 C127 1.413 . S
C128 C132 1.429 1_565 S
C129 C127 1.360 . S
C129 C130 1.372 1_565 S
C130 H125 0.928 . S
C130 C129 1.372 1_545 S
C130 C131 1.404 . S
C131 C130 1.404 . S
C131 C132 1.391 . S
C132 H126 0.930 . S
C132 C128 1.429 1_545 S
C132 C131 1.391 . S
H133 C136 0.931 . S
H134 C139 0.928 . S
H135 C141 0.930 . S
C136 H133 0.931 . S
C136 C137 1.413 1_554 S
C136 C138 1.360 . S
C137 C136 1.413 1_556 S
C137 C141 1.429 . S
C138 C136 1.360 . S
C138 C139 1.372 . S
C139 H134 0.928 . S
C139 C138 1.372 . S
C139 C140 1.404 . S
C140 C139 1.404 . S
C140 C141 1.391 1_554 S
C141 H135 0.930 . S
C141 C137 1.429 . S
C141 C140 1.391 1_556 S
H142 C145 0.931 . S
H143 C148 0.928 . S
H144 C150 0.930 . S
C145 H142 0.931 . S
C145 C146 1.413 . S
C145 C147 1.360 . S
C146 C145 1.413 . S
C146 C150 1.429 1_545 S
C147 C145 1.360 . S
C147 C148 1.372 1_545 S
C148 H143 0.928 . S
C148 C147 1.372 1_565 S
C148 C149 1.404 . S
C149 C148 1.404 . S
C149 C150 1.391 . S
C150 H144 0.930 . S
C150 C146 1.429 1_565 S
C150 C149 1.391 . S
H151 C154 0.931 . S
H152 C157 0.928 . S
H153 C159 0.930 . S
C154 H151 0.931 . S
C154 C155 1.406 1_556 S
C154 C156 1.367 . S
C155 C154 1.406 1_554 S
C155 C159 1.429 . S
C156 C154 1.367 . S
C156 C157 1.372 . S
C157 H152 0.928 . S
C157 C156 1.372 . S
C157 C158 1.402 1_556 S
C158 C157 1.402 1_554 S
C158 C159 1.392 . S
C159 H153 0.930 . S
C159 C155 1.429 . S
C159 C158 1.392 . S
H160 C166 0.930 . S
H161 C169 0.930 . S
H162 C170 0.930 . S
H163 C171 0.930 . S
H164 C174 0.930 . S
H165 C175 0.930 . S
C166 H160 0.930 . S
C166 C167 1.355 . S
C166 C168 1.415 . S
C167 C166 1.355 . S
C167 C169 1.419 . S
C168 C166 1.415 . S
C168 C173 1.425 . S
C168 C175 1.409 . S
C169 H161 0.930 . S
C169 C167 1.419 . S
C169 C170 1.362 . S
C170 H162 0.930 . S
C170 C169 1.362 . S
C170 C173 1.409 . S
C171 H163 0.930 . S
C171 C172 1.355 . S
C171 C173 1.415 . S
C172 C171 1.355 . S
C172 C174 1.419 . S
C173 C168 1.425 . S
C173 C170 1.409 . S
C173 C171 1.415 . S
C174 H164 0.930 . S
C174 C172 1.419 . S
C174 C175 1.362 . S
C175 H165 0.930 . S
C175 C168 1.409 . S
C175 C174 1.362 . S
H176 C182 0.930 . S
H177 C185 0.930 . S
H178 C186 0.930 . S
H179 C187 0.930 . S
H180 C190 0.930 . S
H181 C191 0.930 . S
C182 H176 0.930 . S
C182 C183 1.355 . S
C182 C184 1.415 . S
C183 C182 1.355 . S
C183 C185 1.419 . S
C184 C182 1.415 . S
C184 C189 1.425 . S
C184 C191 1.409 . S
C185 H177 0.930 . S
C185 C183 1.419 . S
C185 C186 1.362 . S
C186 H178 0.930 . S
C186 C185 1.362 . S
C186 C189 1.409 . S
C187 H179 0.930 . S
C187 C188 1.355 . S
C187 C189 1.415 . S
C188 C187 1.355 . S
C188 C190 1.419 . S
C189 C184 1.425 . S
C189 C186 1.409 . S
C189 C187 1.415 . S
C190 H180 0.930 . S
C190 C188 1.419 . S
C190 C191 1.362 . S
C191 H181 0.930 . S
C191 C184 1.409 . S
C191 C190 1.362 . S
H192 C198 0.930 . S
H193 C201 0.930 . S
H194 C202 0.930 . S
H195 C203 0.930 . S
H196 C206 0.930 . S
H197 C207 0.930 . S
C198 H192 0.930 . S
C198 C199 1.355 . S
C198 C200 1.415 . S
C199 C198 1.355 . S
C199 C201 1.419 . S
C200 C198 1.415 . S
C200 C205 1.425 . S
C200 C207 1.409 . S
C201 H193 0.930 . S
C201 C199 1.419 . S
C201 C202 1.362 . S
C202 H194 0.930 . S
C202 C201 1.362 . S
C202 C205 1.409 . S
C203 H195 0.930 . S
C203 C204 1.355 . S
C203 C205 1.415 . S
C204 C203 1.355 . S
C204 C206 1.419 . S
C205 C200 1.425 . S
C205 C202 1.409 . S
C205 C203 1.415 . S
C206 H196 0.930 . S
C206 C204 1.419 . S
C206 C207 1.362 . S
C207 H197 0.930 . S
C207 C200 1.409 . S
C207 C206 1.362 . S
H208 C214 0.930 . S
H209 C217 0.930 . S
H210 C218 0.930 . S
H211 C219 0.930 . S
H212 C222 0.930 . S
H213 C223 0.930 . S
C214 H208 0.930 . S
C214 C215 1.355 . S
C214 C216 1.415 . S
C215 C214 1.355 . S
C215 C217 1.419 . S
C216 C214 1.415 . S
C216 C221 1.425 . S
C216 C223 1.409 . S
C217 H209 0.930 . S
C217 C215 1.419 . S
C217 C218 1.362 . S
C218 H210 0.930 . S
C218 C217 1.362 . S
C218 C221 1.409 . S
C219 H211 0.930 . S
C219 C220 1.355 . S
C219 C221 1.415 . S
C220 C219 1.355 . S
C220 C222 1.419 . S
C221 C216 1.425 . S
C221 C218 1.409 . S
C221 C219 1.415 . S
C222 H212 0.930 . S
C222 C220 1.419 . S
C222 C223 1.362 . S
C223 H213 0.930 . S
C223 C216 1.409 . S
C223 C222 1.362 . S
H224 C230 0.930 . S
H225 C233 0.930 . S
H226 C234 0.930 . S
H227 C235 0.930 . S
H228 C238 0.930 . S
H229 C239 0.930 . S
C230 H224 0.930 . S
C230 C231 1.355 . S
C230 C232 1.415 . S
C231 C230 1.355 . S
C231 C233 1.419 . S
C232 C230 1.415 . S
C232 C237 1.425 . S
C232 C239 1.409 . S
C233 H225 0.930 . S
C233 C231 1.419 . S
C233 C234 1.362 . S
C234 H226 0.930 . S
C234 C233 1.362 . S
C234 C237 1.409 . S
C235 H227 0.930 . S
C235 C236 1.355 . S
C235 C237 1.415 . S
C236 C235 1.355 . S
C236 C238 1.419 . S
C237 C232 1.425 . S
C237 C234 1.409 . S
C237 C235 1.415 . S
C238 H228 0.930 . S
C238 C236 1.419 . S
C238 C239 1.362 . S
C239 H229 0.930 . S
C239 C232 1.409 . S
C239 C238 1.362 . S
H240 C246 0.930 . S
H241 C249 0.930 . S
H242 C250 0.930 . S
H243 C251 0.930 . S
H244 C254 0.930 . S
H245 C255 0.930 . S
C246 H240 0.930 . S
C246 C247 1.355 . S
C246 C248 1.415 . S
C247 C246 1.355 . S
C247 C249 1.419 . S
C248 C246 1.415 . S
C248 C253 1.425 . S
C248 C255 1.409 . S
C249 H241 0.930 . S
C249 C247 1.419 . S
C249 C250 1.362 . S
C250 H242 0.930 . S
C250 C249 1.362 . S
C250 C253 1.409 . S
C251 H243 0.930 . S
C251 C252 1.355 . S
C251 C253 1.415 . S
C252 C251 1.355 . S
C252 C254 1.419 . S
C253 C248 1.425 . S
C253 C250 1.409 . S
C253 C251 1.415 . S
C254 H244 0.930 . S
C254 C252 1.419 . S
C254 C255 1.362 . S
C255 H245 0.930 . S
C255 C248 1.409 . S
C255 C254 1.362 . S
H256 C262 0.930 . S
H257 C265 0.930 . S
H258 C266 0.930 . S
H259 C267 0.930 . S
H260 C270 0.930 . S
H261 C271 0.930 . S
C262 H256 0.930 . S
C262 C263 1.355 . S
C262 C264 1.415 . S
C263 C262 1.355 . S
C263 C265 1.419 . S
C264 C262 1.415 . S
C264 C269 1.425 . S
C264 C271 1.409 . S
C265 H257 0.930 . S
C265 C263 1.419 . S
C265 C266 1.362 . S
C266 H258 0.930 . S
C266 C265 1.362 . S
C266 C269 1.409 . S
C267 H259 0.930 . S
C267 C268 1.355 . S
C267 C269 1.415 . S
C268 C267 1.355 . S
C268 C270 1.419 . S
C269 C264 1.425 . S
C269 C266 1.409 . S
C269 C267 1.415 . S
C270 H260 0.930 . S
C270 C268 1.419 . S
C270 C271 1.362 . S
C271 H261 0.930 . S
C271 C264 1.409 . S
C271 C270 1.362 . S
H272 C278 0.930 . S
H273 C281 0.930 . S
H274 C282 0.930 . S
H275 C283 0.930 . S
H276 C286 0.930 . S
H277 C287 0.930 . S
C278 H272 0.930 . S
C278 C279 1.355 . S
C278 C280 1.415 . S
C279 C278 1.355 . S
C279 C281 1.419 . S
C280 C278 1.415 . S
C280 C285 1.425 . S
C280 C287 1.409 . S
C281 H273 0.930 . S
C281 C279 1.419 . S
C281 C282 1.362 . S
C282 H274 0.930 . S
C282 C281 1.362 . S
C282 C285 1.409 . S
C283 H275 0.930 . S
C283 C284 1.355 . S
C283 C285 1.415 . S
C284 C283 1.355 . S
C284 C286 1.419 . S
C285 C280 1.425 . S
C285 C282 1.409 . S
C285 C283 1.415 . S
C286 H276 0.930 . S
C286 C284 1.419 . S
C286 C287 1.362 . S
C287 H277 0.930 . S
C287 C280 1.409 . S
C287 C286 1.362 . S
H288 C294 0.930 . S
H289 C297 0.930 . S
H290 C298 0.930 . S
H291 C299 0.930 . S
H292 C302 0.930 . S
H293 C303 0.930 . S
C294 H288 0.930 . S
C294 C295 1.355 . S
C294 C296 1.415 . S
C295 C294 1.355 . S
C295 C297 1.419 . S
C296 C294 1.415 . S
C296 C301 1.425 . S
C296 C303 1.409 . S
C297 H289 0.930 . S
C297 C295 1.419 . S
C297 C298 1.362 . S
C298 H290 0.930 . S
C298 C297 1.362 . S
C298 C301 1.409 . S
C299 H291 0.930 . S
C299 C300 1.355 . S
C299 C301 1.415 . S
C300 C299 1.355 . S
C300 C302 1.419 . S
C301 C296 1.425 . S
C301 C298 1.409 . S
C301 C299 1.415 . S
C302 H292 0.930 . S
C302 C300 1.419 . S
C302 C303 1.362 . S
C303 H293 0.930 . S
C303 C296 1.409 . S
C303 C302 1.362 . S
H304 C310 0.930 . S
H305 C313 0.930 . S
H306 C314 0.930 . S
H307 C315 0.930 . S
H308 C318 0.930 . S
H309 C319 0.930 . S
C310 H304 0.930 . S
C310 C311 1.355 . S
C310 C312 1.415 . S
C311 C310 1.355 . S
C311 C313 1.419 . S
C312 C310 1.415 . S
C312 C317 1.425 . S
C312 C319 1.409 . S
C313 H305 0.930 . S
C313 C311 1.419 . S
C313 C314 1.362 . S
C314 H306 0.930 . S
C314 C313 1.362 . S
C314 C317 1.409 . S
C315 H307 0.930 . S
C315 C316 1.355 . S
C315 C317 1.415 . S
C316 C315 1.355 . S
C316 C318 1.419 . S
C317 C312 1.425 . S
C317 C314 1.409 . S
C317 C315 1.415 . S
C318 H308 0.930 . S
C318 C316 1.419 . S
C318 C319 1.362 . S
C319 H309 0.930 . S
C319 C312 1.409 . S
C319 C318 1.362 . S
H320 C326 0.930 . S
H321 C329 0.930 . S
H322 C330 0.930 . S
H323 C331 0.930 . S
H324 C334 0.930 . S
H325 C335 0.930 . S
C326 H320 0.930 . S
C326 C327 1.355 . S
C326 C328 1.415 . S
C327 C326 1.355 . S
C327 C329 1.419 . S
C328 C326 1.415 . S
C328 C333 1.425 . S
C328 C335 1.409 . S
C329 H321 0.930 . S
C329 C327 1.419 . S
C329 C330 1.362 . S
C330 H322 0.930 . S
C330 C329 1.362 . S
C330 C333 1.409 . S
C331 H323 0.930 . S
C331 C332 1.355 . S
C331 C333 1.415 . S
C332 C331 1.355 . S
C332 C334 1.419 . S
C333 C328 1.425 . S
C333 C330 1.409 . S
C333 C331 1.415 . S
C334 H324 0.930 . S
C334 C332 1.419 . S
C334 C335 1.362 . S
C335 H325 0.930 . S
C335 C328 1.409 . S
C335 C334 1.362 . S
H336 C342 0.930 . S
H337 C345 0.930 . S
H338 C346 0.930 . S
H339 C347 0.930 . S
H340 C350 0.930 . S
H341 C351 0.930 . S
C342 H336 0.930 . S
C342 C343 1.355 . S
C342 C344 1.415 . S
C343 C342 1.355 . S
C343 C345 1.419 . S
C344 C342 1.415 . S
C344 C349 1.425 . S
C344 C351 1.409 . S
C345 H337 0.930 . S
C345 C343 1.419 . S
C345 C346 1.362 . S
C346 H338 0.930 . S
C346 C345 1.362 . S
C346 C349 1.409 . S
C347 H339 0.930 . S
C347 C348 1.355 . S
C347 C349 1.415 . S
C348 C347 1.355 . S
C348 C350 1.419 . S
C349 C344 1.425 . S
C349 C346 1.409 . S
C349 C347 1.415 . S
C350 H340 0.930 . S
C350 C348 1.419 . S
C350 C351 1.362 . S
C351 H341 0.930 . S
C351 C344 1.409 . S
C351 C350 1.362 . S
H352 C358 0.930 . S
H353 C361 0.930 . S
H354 C362 0.930 . S
H355 C363 0.930 . S
H356 C366 0.930 . S
H357 C367 0.930 . S
C358 H352 0.930 . S
C358 C359 1.355 . S
C358 C360 1.415 . S
C359 C358 1.355 . S
C359 C361 1.419 . S
C360 C358 1.415 . S
C360 C365 1.425 . S
C360 C367 1.409 . S
C361 H353 0.930 . S
C361 C359 1.419 . S
C361 C362 1.362 . S
C362 H354 0.930 . S
C362 C361 1.362 . S
C362 C365 1.409 . S
C363 H355 0.930 . S
C363 C364 1.355 . S
C363 C365 1.415 . S
C364 C363 1.355 . S
C364 C366 1.419 . S
C365 C360 1.425 . S
C365 C362 1.409 . S
C365 C363 1.415 . S
C366 H356 0.930 . S
C366 C364 1.419 . S
C366 C367 1.362 . S
C367 H357 0.930 . S
C367 C360 1.409 . S
C367 C366 1.362 . S
H368 C374 0.930 . S
H369 C377 0.930 . S
H370 C378 0.930 . S
H371 C379 0.930 . S
H372 C382 0.930 . S
H373 C383 0.930 . S
C374 H368 0.930 . S
C374 C375 1.355 . S
C374 C376 1.415 . S
C375 C374 1.355 . S
C375 C377 1.419 . S
C376 C374 1.415 . S
C376 C381 1.425 . S
C376 C383 1.409 . S
C377 H369 0.930 . S
C377 C375 1.419 . S
C377 C378 1.362 . S
C378 H370 0.930 . S
C378 C377 1.362 . S
C378 C381 1.409 . S
C379 H371 0.930 . S
C379 C380 1.355 . S
C379 C381 1.415 . S
C380 C379 1.355 . S
C380 C382 1.419 . S
C381 C376 1.425 . S
C381 C378 1.409 . S
C381 C379 1.415 . S
C382 H372 0.930 . S
C382 C380 1.419 . S
C382 C383 1.362 . S
C383 H373 0.930 . S
C383 C376 1.409 . S
C383 C382 1.362 . S
H384 C390 0.930 . S
H385 C393 0.930 . S
H386 C394 0.930 . S
H387 C395 0.930 . S
H388 C398 0.930 . S
H389 C399 0.930 . S
C390 H384 0.930 . S
C390 C391 1.355 . S
C390 C392 1.415 . S
C391 C390 1.355 . S
C391 C393 1.419 . S
C392 C390 1.415 . S
C392 C397 1.425 . S
C392 C399 1.409 . S
C393 H385 0.930 . S
C393 C391 1.419 . S
C393 C394 1.362 . S
C394 H386 0.930 . S
C394 C393 1.362 . S
C394 C397 1.409 . S
C395 H387 0.930 . S
C395 C396 1.355 . S
C395 C397 1.415 . S
C396 C395 1.355 . S
C396 C398 1.419 . S
C397 C392 1.425 . S
C397 C394 1.409 . S
C397 C395 1.415 . S
C398 H388 0.930 . S
C398 C396 1.419 . S
C398 C399 1.362 . S
C399 H389 0.930 . S
C399 C392 1.409 . S
C399 C398 1.362 . S
H400 C406 0.930 . S
H401 C409 0.930 . S
H402 C410 0.930 . S
H403 C411 0.930 . S
H404 C414 0.930 . S
H405 C415 0.930 . S
C406 H400 0.930 . S
C406 C407 1.355 . S
C406 C408 1.415 . S
C407 C406 1.355 . S
C407 C409 1.419 . S
C408 C406 1.415 . S
C408 C413 1.425 . S
C408 C415 1.409 . S
C409 H401 0.930 . S
C409 C407 1.419 . S
C409 C410 1.362 . S
C410 H402 0.930 . S
C410 C409 1.362 . S
C410 C413 1.409 . S
C411 H403 0.930 . S
C411 C412 1.355 . S
C411 C413 1.415 . S
C412 C411 1.355 . S
C412 C414 1.419 . S
C413 C408 1.425 . S
C413 C410 1.409 . S
C413 C411 1.415 . S
C414 H404 0.930 . S
C414 C412 1.419 . S
C414 C415 1.362 . S
C415 H405 0.930 . S
C415 C408 1.409 . S
C415 C414 1.362 . S
H416 C422 0.930 . S
H417 C425 0.930 . S
H418 C426 0.930 . S
H419 C427 0.930 . S
H420 C430 0.930 . S
H421 C431 0.930 . S
C422 H416 0.930 . S
C422 C423 1.355 1_556 S
C422 C424 1.415 . S
C423 C422 1.355 1_554 S
C423 C425 1.419 . S
C424 C422 1.415 . S
C424 C429 1.425 1_556 S
C424 C431 1.409 . S
C425 H417 0.930 . S
C425 C423 1.419 . S
C425 C426 1.362 . S
C426 H418 0.930 . S
C426 C425 1.362 . S
C426 C429 1.409 . S
C427 H419 0.930 . S
C427 C428 1.355 1_554 S
C427 C429 1.415 . S
C428 C427 1.355 1_556 S
C428 C430 1.419 . S
C429 C424 1.425 1_554 S
C429 C426 1.409 . S
C429 C427 1.415 . S
C430 H420 0.930 . S
C430 C428 1.419 . S
C430 C431 1.362 . S
C431 H421 0.930 . S
C431 C424 1.409 . S
C431 C430 1.362 . S
H432 C438 0.930 . S
H433 C441 0.930 . S
H434 C442 0.930 . S
H435 C443 0.930 . S
H436 C446 0.930 . S
H437 C447 0.930 . S
C438 H432 0.930 . S
C438 C439 1.355 . S
C438 C440 1.415 . S
C439 C438 1.355 . S
C439 C441 1.419 . S
C440 C438 1.415 . S
C440 C445 1.425 . S
C440 C447 1.409 . S
C441 H433 0.930 . S
C441 C439 1.419 . S
C441 C442 1.362 . S
C442 H434 0.930 . S
C442 C441 1.362 . S
C442 C445 1.409 . S
C443 H435 0.930 . S
C443 C444 1.355 . S
C443 C445 1.415 . S
C444 C443 1.355 . S
C444 C446 1.419 . S
C445 C440 1.425 . S
C445 C442 1.409 . S
C445 C443 1.415 . S
C446 H436 0.930 . S
C446 C444 1.419 . S
C446 C447 1.362 . S
C447 H437 0.930 . S
C447 C440 1.409 . S
C447 C446 1.362 . S
H448 C454 0.930 . S
H449 C457 0.930 . S
H450 C458 0.930 . S
H451 C459 0.930 . S
H452 C462 0.930 . S
H453 C463 0.930 . S
C454 H448 0.930 . S
C454 C455 1.355 1_554 S
C454 C456 1.415 . S
C455 C454 1.355 1_556 S
C455 C457 1.419 . S
C456 C454 1.415 . S
C456 C461 1.425 1_554 S
C456 C463 1.409 . S
C457 H449 0.930 . S
C457 C455 1.419 . S
C457 C458 1.362 . S
C458 H450 0.930 . S
C458 C457 1.362 . S
C458 C461 1.409 . S
C459 H451 0.930 . S
C459 C460 1.355 1_556 S
C459 C461 1.415 . S
C460 C459 1.355 1_554 S
C460 C462 1.419 . S
C461 C456 1.425 1_556 S
C461 C458 1.409 . S
C461 C459 1.415 . S
C462 H452 0.930 . S
C462 C460 1.419 . S
C462 C463 1.362 . S
C463 H453 0.930 . S
C463 C456 1.409 . S
C463 C462 1.362 . S
H464 C470 0.930 . S
H465 C473 0.930 . S
H466 C474 0.930 . S
H467 C475 0.930 . S
H468 C478 0.930 . S
H469 C479 0.930 . S
C470 H464 0.930 . S
C470 C471 1.355 . S
C470 C472 1.415 . S
C471 C470 1.355 . S
C471 C473 1.419 . S
C472 C470 1.415 . S
C472 C477 1.425 . S
C472 C479 1.409 . S
C473 H465 0.930 . S
C473 C471 1.419 . S
C473 C474 1.362 . S
C474 H466 0.930 . S
C474 C473 1.362 . S
C474 C477 1.409 . S
C475 H467 0.930 . S
C475 C476 1.355 . S
C475 C477 1.415 . S
C476 C475 1.355 . S
C476 C478 1.419 . S
C477 C472 1.425 . S
C477 C474 1.409 . S
C477 C475 1.415 . S
C478 H468 0.930 . S
C478 C476 1.419 . S
C478 C479 1.362 . S
C479 H469 0.930 . S
C479 C472 1.409 . S
C479 C478 1.362 . S
H480 C486 0.930 . S
H481 C489 0.930 . S
H482 C490 0.930 . S
H483 C491 0.930 . S
H484 C494 0.930 . S
H485 C495 0.930 . S
C486 H480 0.930 . S
C486 C487 1.355 . S
C486 C488 1.415 . S
C487 C486 1.355 . S
C487 C489 1.419 . S
C488 C486 1.415 . S
C488 C493 1.425 . S
C488 C495 1.409 . S
C489 H481 0.930 . S
C489 C487 1.419 . S
C489 C490 1.362 . S
C490 H482 0.930 . S
C490 C489 1.362 . S
C490 C493 1.409 . S
C491 H483 0.930 . S
C491 C492 1.355 . S
C491 C493 1.415 . S
C492 C491 1.355 . S
C492 C494 1.419 . S
C493 C488 1.425 . S
C493 C490 1.409 . S
C493 C491 1.415 . S
C494 H484 0.930 . S
C494 C492 1.419 . S
C494 C495 1.362 . S
C495 H485 0.930 . S
C495 C488 1.409 . S
C495 C494 1.362 . S
H496 C502 0.930 . S
H497 C505 0.930 . S
H498 C506 0.930 . S
H499 C507 0.930 . S
H500 C510 0.930 . S
H501 C511 0.930 . S
C502 H496 0.930 . S
C502 C503 1.351 1_556 S
C502 C504 1.415 . S
C503 C502 1.351 1_554 S
C503 C505 1.424 . S
C504 C502 1.415 . S
C504 C509 1.425 1_556 S
C504 C511 1.409 . S
C505 H497 0.930 . S
C505 C503 1.424 . S
C505 C506 1.362 . S
C506 H498 0.930 . S
C506 C505 1.362 . S
C506 C509 1.409 . S
C507 H499 0.930 . S
C507 C508 1.354 1_554 S
C507 C509 1.415 . S
C508 C507 1.354 1_556 S
C508 C510 1.420 . S
C509 C504 1.425 1_554 S
C509 C506 1.409 . S
C509 C507 1.415 . S
C510 H500 0.930 . S
C510 C508 1.420 . S
C510 C511 1.362 . S
C511 H501 0.930 . S
C511 C504 1.409 . S
C511 C510 1.362 . S
H512 C518 0.930 . S
H513 C521 0.930 . S
H514 C522 0.930 . S
H515 C523 0.930 . S
H516 C526 0.930 . S
H517 C527 0.930 . S
C518 H512 0.930 . S
C518 C519 1.355 . S
C518 C520 1.415 . S
C519 C518 1.355 . S
C519 C521 1.419 . S
C520 C518 1.415 . S
C520 C525 1.425 . S
C520 C527 1.409 . S
C521 H513 0.930 . S
C521 C519 1.419 . S
C521 C522 1.362 . S
C522 H514 0.930 . S
C522 C521 1.362 . S
C522 C525 1.409 . S
C523 H515 0.930 . S
C523 C524 1.355 . S
C523 C525 1.415 . S
C524 C523 1.355 . S
C524 C526 1.419 . S
C525 C520 1.425 . S
C525 C522 1.409 . S
C525 C523 1.415 . S
C526 H516 0.930 . S
C526 C524 1.419 . S
C526 C527 1.362 . S
C527 H517 0.930 . S
C527 C520 1.409 . S
C527 C526 1.362 . S
H528 C534 0.930 . S
H529 C537 0.930 . S
H530 C538 0.930 . S
H531 C539 0.930 . S
H532 C542 0.930 . S
H533 C543 0.930 . S
C534 H528 0.930 . S
C534 C535 1.355 1_556 S
C534 C536 1.415 . S
C535 C534 1.355 1_554 S
C535 C537 1.419 . S
C536 C534 1.415 . S
C536 C541 1.425 1_556 S
C536 C543 1.409 . S
C537 H529 0.930 . S
C537 C535 1.419 . S
C537 C538 1.362 . S
C538 H530 0.930 . S
C538 C537 1.362 . S
C538 C541 1.409 . S
C539 H531 0.930 . S
C539 C540 1.355 1_554 S
C539 C541 1.415 . S
C540 C539 1.355 1_556 S
C540 C542 1.419 . S
C541 C536 1.425 1_554 S
C541 C538 1.409 . S
C541 C539 1.415 . S
C542 H532 0.930 . S
C542 C540 1.419 . S
C542 C543 1.362 . S
C543 H533 0.930 . S
C543 C536 1.409 . S
C543 C542 1.362 . S
C167 C21 1.510 . S
C172 C119 1.495 . S
C183 C40 1.530 . S
C188 C93 1.527 . S
C204 C102 1.467 . S
C199 C54 1.462 . S
C215 C73 1.550 . S
C220 C110 1.559 . S
C236 C138 1.437 . S
C231 C74 1.469 . S
C252 C146 1.524 . S
C247 C10 1.530 . S
C268 C155 1.498 . S
C263 C37 1.518 . S
C284 C129 1.532 . S
C279 C65 1.582 . S
C295 C52 1.460 . S
C300 C101 1.472 . S
C311 C87 1.545 . S
C316 C111 1.552 . S
C327 C15 1.527 . S
C332 C120 1.511 . S
C348 C92 1.507 . S
C343 C32 1.524 . S
C359 C29 1.498 . S
C364 C156 1.532 . S
C380 C128 1.565 . S
C375 C59 1.561 . S
C396 C137 1.470 . S
C391 C84 1.485 . S
C407 C8 1.534 . S
C412 C147 1.479 . S
C428 C95 1.618 . S
C423 C7 1.618 . S
C444 C104 1.520 . S
C439 C30 1.544 . S
C455 C62 1.639 1_556 S
C460 C113 1.583 . S
C471 C81 1.533 . S
C476 C122 1.539 . S
C492 C131 1.630 . S
C487 C76 1.639 . S
C503 C18 1.567 1_554 S
C508 C140 1.562 1_556 S
C519 C43 1.636 . S
C524 C149 1.573 . S
C535 C51 1.544 1_554 S
C540 C158 1.547 1_556 S
