# Generated by pormake.
# Topology ftw, (4,12)-cn, num edge types: 1
# Building blocks:
#     Node 0, Type 0, BuildingBlock: KUFVIS_clean_linker_0, # of connection points: 4
#     Node 1, Type 0, BuildingBlock: KUFVIS_clean_linker_0, # of connection points: 4
#     Node 2, Type 0, BuildingBlock: KUFVIS_clean_linker_0, # of connection points: 4
#     Node 3, Type 1, BuildingBlock: EZIPEK_clean_sbu_0, # of connection points: 12
#     Edge 4, Type (0, 1), BuildingBlock: XUDNAN_clean_linker_2, # of connection points: 2
#     Edge 5, Type (0, 1), BuildingBlock: XUDNAN_clean_linker_2, # of connection points: 2
#     Edge 6, Type (0, 1), BuildingBlock: XUDNAN_clean_linker_2, # of connection points: 2
#     Edge 7, Type (0, 1), BuildingBlock: XUDNAN_clean_linker_2, # of connection points: 2
#     Edge 8, Type (0, 1), BuildingBlock: XUDNAN_clean_linker_2, # of connection points: 2
#     Edge 9, Type (0, 1), BuildingBlock: XUDNAN_clean_linker_2, # of connection points: 2
#     Edge 10, Type (0, 1), BuildingBlock: XUDNAN_clean_linker_2, # of connection points: 2
#     Edge 11, Type (0, 1), BuildingBlock: XUDNAN_clean_linker_2, # of connection points: 2
#     Edge 12, Type (0, 1), BuildingBlock: XUDNAN_clean_linker_2, # of connection points: 2
#     Edge 13, Type (0, 1), BuildingBlock: XUDNAN_clean_linker_2, # of connection points: 2
#     Edge 14, Type (0, 1), BuildingBlock: XUDNAN_clean_linker_2, # of connection points: 2
#     Edge 15, Type (0, 1), BuildingBlock: XUDNAN_clean_linker_2, # of connection points: 2
# Relax obj value: 0.081
# Max RMSD: 0.235
# Mean RMSD: 0.179
data_MOF--net-ftw--node1-EZIPEK_clean_sbu_0--node2-KUFVIS_clean_linker_0--edge1-XUDNAN_clean_linker_2
_symmetry_space_group_name_H-M    P1
_symmetry_Int_Tables_number       1
_symmetry_cell_setting            triclinic
loop_
_symmetry_equiv_pos_as_xyz
'x, y, z'
_cell_length_a     23.624046
_cell_length_b     24.982664
_cell_length_c     24.213533
_cell_angle_alpha  90.04706
_cell_angle_beta   90.131219
_cell_angle_gamma 89.745283
loop_
_atom_site_label
_atom_site_type_symbol
_atom_site_fract_x
_atom_site_fract_y
_atom_site_fract_z
_atom_type_partial_charge
H0 H -0.00985 0.34483 0.51807 0.0
H1 H 0.00809 0.4916 0.6072 0.0
H2 H 0.97684 0.49344 0.43146 0.0
H3 H 0.00595 0.57333 0.43182 0.0
H4 H 0.97638 0.71964 0.51937 0.0
H5 H -0.01513 0.57259 0.60877 0.0
C6 C -0.00898 0.38809 0.51843 0.0
C7 C 0.98361 0.41602 0.46854 0.0
C8 C -0.00087 0.41503 0.56882 0.0
C9 C 0.001 0.47164 0.56845 0.0
C10 C -0.00689 0.5019 0.51936 0.0
C11 C -0.01602 0.47264 0.46978 0.0
C12 C -0.00741 0.5633 0.51989 0.0
C13 C -0.00319 0.59326 0.47028 0.0
C14 C -0.0098 0.64957 0.46922 0.0
C15 C 0.98354 0.67684 0.51957 0.0
C16 C -0.01614 0.64953 0.57025 0.0
C17 C -0.01309 0.59293 0.56971 0.0
H18 H 0.50423 1.02764 0.72037 0.0
H19 H 0.57426 1.00453 0.55941 0.0
H20 H 0.41539 0.08907 0.57924 0.0
H21 H 0.39849 0.04864 0.49796 0.0
H22 H 0.47945 0.05853 0.3401 0.0
H23 H 0.58017 0.05883 0.48716 0.0
C24 C 0.50132 1.03325 0.67603 0.0
C25 C 0.45426 0.05938 0.65317 0.0
C26 C 0.54494 1.01466 0.64208 0.0
C27 C 0.54098 1.02118 0.58495 0.0
C28 C 0.49419 0.04775 0.56125 0.0
C29 C 0.45115 0.06718 0.59606 0.0
C30 C 0.48981 0.05397 0.50039 0.0
C31 C 0.43677 0.0536 0.47405 0.0
C32 C 0.43265 0.057 0.41644 0.0
C33 C 0.48221 0.05804 0.38475 0.0
C34 C 0.53536 0.05613 0.41022 0.0
C35 C 0.53881 0.05711 0.4679 0.0
H36 H 0.49384 0.71453 0.03156 0.0
H37 H 0.58088 0.56461 0.0167 0.0
H38 H 0.39887 0.57238 1.00117 0.0
H39 H 0.4008 0.49374 0.03702 0.0
H40 H 0.48205 0.34329 1.00626 0.0
H41 H 0.57312 0.48751 0.97639 0.0
C42 C 0.49284 0.67193 0.02322 0.0
C43 C 0.44061 0.64656 0.017 0.0
C44 C 0.54365 0.6429 0.02089 0.0
C45 C 0.54161 0.58681 0.01591 0.0
C46 C 0.48957 0.55972 1.01033 0.0
C47 C 0.4394 0.59087 1.00882 0.0
C48 C 0.48742 0.49941 1.00784 0.0
C49 C 0.43766 0.47187 0.02329 0.0
C50 C 0.43445 0.41576 0.02079 0.0
C51 C 0.48282 0.38667 1.00579 0.0
C52 C 0.53265 0.41249 0.99027 0.0
C53 C 0.5348 0.46862 0.99073 0.0
C54 C -0.00645 0.16321 0.8853 0.0
C55 C 0.96553 0.16412 0.15242 0.0
C56 C -0.00218 0.90211 0.88655 0.0
C57 C -0.0145 0.90358 0.15441 0.0
C58 C 0.13065 0.90988 0.0327 0.0
C59 C 0.1125 0.16979 0.03601 0.0
C60 C 0.85978 0.89641 0.01846 0.0
C61 C 0.84225 0.15438 0.99605 0.0
C62 C 0.84119 1.02353 0.14246 0.0
C63 C 0.11127 0.04402 0.16399 0.0
C64 C 0.8639 1.00717 0.87759 0.0
C65 C 0.13414 0.05092 0.89906 0.0
Eu66 Eu 0.97895 0.13413 0.019 0.0
O67 O 0.02897 0.08296 0.07156 0.0
O68 O 0.93712 0.07782 0.96509 0.0
Eu69 Eu 0.09298 0.03817 0.02848 0.0
Eu70 Eu 0.8806 1.02751 1.01176 0.0
O71 O 0.03629 0.082 0.97531 0.0
O72 O 0.92859 0.07872 0.06581 0.0
Eu73 Eu -0.00418 1.03285 0.91405 0.0
Eu74 Eu 0.97875 1.03386 0.12461 0.0
O75 O 0.04538 0.98734 0.97328 0.0
O76 O 0.03632 0.9883 0.07412 0.0
O77 O 0.93695 0.98413 0.06508 0.0
O78 O 0.9454 0.98462 0.96826 0.0
Eu79 Eu -0.00617 0.93304 0.02054 0.0
O80 O -0.00855 0.17875 0.93813 0.0
O81 O 0.96557 0.17939 0.09951 0.0
O82 O -0.00557 0.88752 0.93952 0.0
O83 O -0.01065 0.88828 0.10169 0.0
O84 O 0.14611 0.96135 0.03197 0.0
O85 O 0.13371 0.12015 0.03375 0.0
O86 O 0.83847 0.94595 0.0153 0.0
O87 O 0.829 0.1025 0.99559 0.0
O88 O 0.89341 1.02426 0.16301 0.0
O89 O 0.05663 0.04266 0.17685 0.0
O90 O 0.91665 1.01931 0.86255 0.0
O91 O 0.08315 0.04444 0.8759 0.0
O92 O 0.91452 0.88366 0.01994 0.0
O93 O 0.07791 0.89196 0.02837 0.0
O94 O 0.89357 0.17447 1.00583 0.0
O95 O 0.05794 0.18333 0.03264 0.0
O96 O 0.97053 0.11361 0.17025 0.0
O97 O 0.98273 0.95442 0.17192 0.0
O98 O -0.00813 0.11246 0.86754 0.0
O99 O 0.00246 0.95259 0.86848 0.0
O100 O 0.14589 0.04792 0.95273 0.0
O101 O 0.13317 0.04129 0.11331 0.0
O102 O 0.84322 1.00805 0.92872 0.0
O103 O 0.82671 1.02767 0.0893 0.0
H104 H 0.02893 0.31767 0.43662 0.0
H105 H 0.91635 0.44417 0.37921 0.0
H106 H 0.90118 0.39454 0.29267 0.0
H107 H 0.09058 0.28253 0.30644 0.0
H108 H 0.09096 0.21159 0.32002 0.0
H109 H 0.0958 0.25839 0.37643 0.0
H110 H 0.0083 0.21501 0.42227 0.0
H111 H 0.00333 0.16811 0.36592 0.0
H112 H 0.94328 0.20941 0.3836 0.0
H113 H 0.89931 0.3316 0.21075 0.0
H114 H 0.90689 0.25815 0.14267 0.0
H115 H 0.01249 0.16833 0.25675 0.0
C116 C 0.00049 0.33502 0.4064 0.0
C117 C 0.97442 0.38569 0.41541 0.0
C118 C 0.93833 0.40649 0.37353 0.0
C119 C 0.92888 0.37821 0.32415 0.0
C120 C 0.95498 0.32853 0.31707 0.0
C121 C -0.01037 0.30683 0.35728 0.0
C122 C 0.01102 0.25178 0.34019 0.0
C123 C 0.07594 0.25106 0.33548 0.0
C124 C -0.00978 0.20852 0.38039 0.0
C125 C 0.98319 0.24604 0.28392 0.0
C126 C 0.95151 0.29104 0.27115 0.0
C127 C 0.92361 0.29603 0.22058 0.0
C128 C 0.92825 0.25411 0.1821 0.0
C129 C 0.95982 0.20724 0.1945 0.0
C130 C -0.0127 0.20323 0.24637 0.0
H131 H 0.56426 0.10121 0.31039 0.0
H132 H 0.62105 0.98681 0.43406 0.0
H133 H 0.70265 0.96343 0.37599 0.0
H134 H 0.60108 1.02017 0.19249 0.0
H135 H 0.62394 0.07596 0.15113 0.0
H136 H 0.57015 0.08549 0.20291 0.0
H137 H 0.62994 0.16022 0.24876 0.0
H138 H 0.6835 0.15135 0.19673 0.0
H139 H 0.70204 0.14615 0.26879 0.0
H140 H 0.77696 0.95209 0.30654 0.0
H141 H 0.84489 0.95702 0.22975 0.0
H142 H 0.73882 0.0752 0.14796 0.0
C143 C 0.59391 0.07129 0.32521 0.0
C144 C 0.58663 0.04622 0.37696 0.0
C145 C 0.62648 1.00746 0.39513 0.0
C146 C 0.67256 0.99337 0.36219 0.0
C147 C 0.67786 1.01807 0.31109 0.0
C148 C 0.64001 0.05637 0.29262 0.0
C149 C 0.65611 0.07686 0.23598 0.0
C150 C 0.61007 0.06382 0.1931 0.0
C151 C 0.66866 0.13721 0.2377 0.0
C152 C 0.70928 0.04434 0.22593 0.0
C153 C 0.72068 1.01057 0.26984 0.0
C154 C 0.76851 0.97808 0.27172 0.0
C155 C 0.80671 0.98119 0.22808 0.0
C156 C 0.79655 1.01634 0.18332 0.0
C157 C 0.74672 0.04743 0.18147 0.0
H158 H 0.02501 0.75406 0.44649 0.0
H159 H 0.94797 0.61491 0.36918 0.0
H160 H 0.94124 0.66419 0.28172 0.0
H161 H 0.93351 0.85028 0.37907 0.0
H162 H -0.01214 0.90022 0.37217 0.0
H163 H -0.00935 0.85313 0.42845 0.0
H164 H 0.09144 0.82409 0.39869 0.0
H165 H 0.08894 0.87108 0.34232 0.0
H166 H 0.10325 0.80134 0.32896 0.0
H167 H 0.94298 0.72742 0.20219 0.0
H168 H 0.94877 0.80206 0.13656 0.0
H169 H 0.01572 0.90459 0.26574 0.0
C170 C 0.00628 0.73375 0.41151 0.0
C171 C -0.01224 0.67975 0.41544 0.0
C172 C 0.9642 0.65532 0.3677 0.0
C173 C 0.95956 0.68328 0.31765 0.0
C174 C 0.97777 0.73619 0.31562 0.0
C175 C 0.00022 0.76146 0.3613 0.0
C176 C 0.01454 0.81944 0.34819 0.0
C177 C 0.97955 0.85804 0.38411 0.0
C178 C 0.07834 0.82956 0.35494 0.0
C179 C -0.00328 0.82265 0.28791 0.0
C180 C 0.97616 0.77386 0.27006 0.0
C181 C 0.95863 0.76589 0.21582 0.0
C182 C 0.96215 0.80873 0.17874 0.0
C183 C 0.98227 0.85955 0.1958 0.0
C184 C -0.00047 0.86653 0.25145 0.0
H185 H 0.4022 1.00493 0.32146 0.0
H186 H 0.33678 0.11007 0.44956 0.0
H187 H 0.24459 0.11356 0.40143 0.0
H188 H 0.33952 0.0748 0.2105 0.0
H189 H 0.32551 1.01558 0.17024 0.0
H190 H 0.38402 1.01642 0.21794 0.0
H191 H 0.34439 0.93215 0.26675 0.0
H192 H 0.28579 0.93102 0.21903 0.0
H193 H 0.27278 0.93287 0.29233 0.0
H194 H 0.16133 0.10846 0.33754 0.0
H195 H 0.09374 0.09783 0.26031 0.0
H196 H 0.2174 1.00219 0.17137 0.0
C197 C 0.36868 1.02891 0.33944 0.0
C198 C 0.37666 0.05731 0.3892 0.0
C199 C 0.33128 0.08738 0.41181 0.0
C200 C 0.27893 0.08979 0.38473 0.0
C201 C 0.27302 0.06214 0.33514 0.0
C202 C 0.31671 1.03245 0.31263 0.0
C203 C 0.30082 1.00921 0.25718 0.0
C204 C 0.33977 1.03029 0.21127 0.0
C205 C 0.30094 0.94766 0.25897 0.0
C206 C 0.24155 1.03121 0.25158 0.0
C207 C 0.22593 0.06092 0.29732 0.0
C208 C 0.17297 0.08519 0.30157 0.0
C209 C 0.13498 0.0789 0.25767 0.0
C210 C 0.15083 0.04943 0.21015 0.0
C211 C 0.20465 1.02533 0.20714 0.0
H212 H 0.02777 0.74994 0.59475 0.0
H213 H 0.93041 0.62062 0.6674 0.0
H214 H 0.92673 0.67007 0.75512 0.0
H215 H 0.10777 0.78664 0.71412 0.0
H216 H 0.10327 0.85766 0.70169 0.0
H217 H 0.10058 0.8115 0.64456 0.0
H218 H 0.00503 0.85261 0.61299 0.0
H219 H 0.00761 0.89911 0.66986 0.0
H220 H 0.94701 0.85632 0.66111 0.0
H221 H 0.93483 0.73215 0.83578 0.0
H222 H 0.94819 0.80522 0.90242 0.0
H223 H 0.0333 0.89909 0.77681 0.0
C224 C 0.005 0.73199 0.6287 0.0
C225 C 0.98009 0.68046 0.62355 0.0
C226 C 0.95143 0.65892 0.66991 0.0
C227 C 0.94857 0.68707 0.72007 0.0
C228 C 0.97371 0.73734 0.72348 0.0
C229 C 0.00075 0.76001 0.67889 0.0
C230 C 0.0226 0.81556 0.69325 0.0
C231 C 0.08741 0.81795 0.6881 0.0
C232 C -0.00616 0.85843 0.65716 0.0
C233 C 0.00409 0.82028 0.75314 0.0
C234 C 0.97633 0.7744 0.76964 0.0
C235 C 0.95629 0.76832 0.82324 0.0
C236 C 0.96446 0.81016 0.86096 0.0
C237 C -0.00793 0.85813 0.8452 0.0
C238 C 0.01192 0.86315 0.79025 0.0
H239 H 0.34197 0.03687 0.64234 0.0
H240 H 0.46314 0.11973 0.74612 0.0
H241 H 0.3882 0.13775 0.81446 0.0
H242 H 0.2138 0.12227 0.68133 0.0
H243 H 0.16799 0.06478 0.68006 0.0
H244 H 0.22768 0.06814 0.6339 0.0
H245 H 0.26382 0.9771 0.67141 0.0
H246 H 0.20491 0.97376 0.71809 0.0
H247 H 0.27619 0.96942 0.7445 0.0
H248 H 0.30927 0.13087 0.87757 0.0
H249 H 0.22683 0.1053 0.93195 0.0
H250 H 0.15149 1.03003 0.78798 0.0
C251 C 0.3519 0.06056 0.67854 0.0
C252 C 0.40788 0.07727 0.68926 0.0
C253 C 0.42031 0.10672 0.73756 0.0
C254 C 0.37804 0.11739 0.77626 0.0
C255 C 0.32367 0.09862 0.76564 0.0
C256 C 0.31006 0.07142 0.71774 0.0
C257 C 0.24994 0.05032 0.71975 0.0
C258 C 0.21264 0.07805 0.67617 0.0
C259 C 0.2487 0.98903 0.71307 0.0
C260 C 0.23327 0.06717 0.77759 0.0
C261 C 0.27636 0.09566 0.80269 0.0
C262 C 0.27443 0.11022 0.85793 0.0
C263 C 0.22732 0.09525 0.88856 0.0
C264 C 0.18215 0.06658 0.86397 0.0
C265 C 0.18479 0.05301 0.80745 0.0
H266 H 0.94938 0.31804 0.5979 0.0
H267 H 0.06397 0.43962 0.66085 0.0
H268 H 0.07243 0.38974 0.74796 0.0
H269 H 0.87955 0.28596 0.72378 0.0
H270 H 0.87739 0.21496 0.71067 0.0
H271 H 0.87776 0.26136 0.65378 0.0
H272 H 0.96634 0.2142 0.61337 0.0
H273 H 0.96604 0.16753 0.67006 0.0
H274 H 0.02856 0.2062 0.65586 0.0
H275 H 0.06652 0.32805 0.82995 0.0
H276 H 0.05274 0.25558 0.89776 0.0
H277 H 0.9508 0.16862 0.77877 0.0
C278 C 0.97704 0.33419 0.62937 0.0
C279 C 0.00539 0.38377 0.62178 0.0
C280 C 0.04023 0.40296 0.66534 0.0
C281 C 0.04587 0.3745 0.7151 0.0
C282 C 0.01736 0.32611 0.72087 0.0
C283 C -0.01573 0.30566 0.67891 0.0
C284 C 0.95985 0.25164 0.695 0.0
C285 C 0.89478 0.25363 0.69586 0.0
C286 C 0.9815 0.20727 0.65627 0.0
C287 C -0.01606 0.24519 0.75284 0.0
C288 C 0.01652 0.28897 0.76707 0.0
C289 C 0.04151 0.29341 0.81904 0.0
C290 C 0.03322 0.25209 0.85739 0.0
C291 C 0.0009 0.2063 0.84358 0.0
C292 C 0.97624 0.20282 0.79034 0.0
H293 H 0.65158 0.05265 0.63405 0.0
H294 H 0.55166 0.92746 0.70898 0.0
H295 H 0.63459 0.89885 0.76406 0.0
H296 H 0.79598 0.98041 0.64124 0.0
H297 H 0.83075 0.04231 0.65851 0.0
H298 H 0.76983 0.04273 0.61344 0.0
H299 H 0.72034 0.11103 0.67813 0.0
H300 H 0.78059 0.11044 0.72336 0.0
H301 H 0.71148 0.09474 0.75014 0.0
H302 H 0.71777 0.89659 0.82352 0.0
H303 H 0.79523 0.92198 0.88632 0.0
H304 H 0.84317 0.05004 0.77547 0.0
C305 C 0.64834 1.01766 0.66023 0.0
C306 C 0.59616 0.99141 0.66698 0.0
C307 C 0.59187 0.94732 0.7031 0.0
C308 C 0.63876 0.93071 0.73411 0.0
C309 C 0.68932 0.95875 0.72833 0.0
C310 C 0.69462 1.00119 0.69206 0.0
C311 C 0.75 1.03048 0.70074 0.0
C312 C 0.78895 1.02354 0.65049 0.0
C313 C 0.73994 0.09016 0.71391 0.0
C314 C 0.77295 1.00046 0.75026 0.0
C315 C 0.73808 0.95817 0.76425 0.0
C316 C 0.74617 0.92862 0.8123 0.0
C317 C 0.78988 0.9436 0.84786 0.0
C318 C 0.82476 0.98778 0.83522 0.0
C319 C 0.81761 1.01539 0.78504 0.0
H320 H 0.39491 0.32581 0.96872 0.0
H321 H 0.35089 0.44016 0.09719 0.0
H322 H 0.26133 0.39189 0.11291 0.0
H323 H 0.25684 0.30267 0.91528 0.0
H324 H 0.26826 0.23198 0.90512 0.0
H325 H 0.32705 0.27745 0.90159 0.0
H326 H 0.37986 0.22315 0.97702 0.0
H327 H 0.32143 0.17727 0.98058 0.0
H328 H 0.34559 0.21075 0.0422 0.0
H329 H 0.17498 0.33065 0.11302 0.0
H330 H 0.10427 0.25802 0.1026 0.0
H331 H 0.21171 0.18078 0.9816 0.0
C332 C 0.36715 0.3406 1.00084 0.0
C333 C 0.38037 0.38706 0.03163 0.0
C334 C 0.34158 0.40533 0.07223 0.0
C335 C 0.29069 0.37794 0.08176 0.0
C336 C 0.27954 0.33205 0.05087 0.0
C337 C 0.31711 0.31327 1.01169 0.0
C338 C 0.29684 0.26182 0.98556 0.0
C339 C 0.28664 0.26895 0.9232 0.0
C340 C 0.3384 0.21552 0.99706 0.0
C341 C 0.24189 0.25442 0.0162 0.0
C342 C 0.23199 0.29563 0.05313 0.0
C343 C 0.18262 0.29797 0.0846 0.0
C344 C 0.14274 0.25681 0.07835 0.0
C345 C 0.1533 0.21367 0.04182 0.0
C346 C 0.20334 0.21272 1.0105 0.0
H347 H 0.41742 0.74749 0.97619 0.0
H348 H 0.34419 0.61813 0.07179 0.0
H349 H 0.25907 0.67325 0.08811 0.0
H350 H 0.36746 0.85441 0.06291 0.0
H351 H 0.35346 0.8997 1.00656 0.0
H352 H 0.40821 0.84964 1.00022 0.0
H353 H 0.36084 0.81318 0.91128 0.0
H354 H 0.30629 0.86345 0.91706 0.0
H355 H 0.28746 0.79372 0.91299 0.0
H356 H 0.18352 0.74172 0.0959 0.0
H357 H 0.11793 0.8182 0.09008 0.0
H358 H 0.24009 0.90578 0.99201 0.0
C359 C 0.38348 0.73072 1.00058 0.0
C360 C 0.38749 0.67828 0.02259 0.0
C361 C 0.34181 0.65772 0.05372 0.0
C362 C 0.29353 0.68895 0.06371 0.0
C363 C 0.29158 0.74071 0.04244 0.0
C364 C 0.33504 0.76146 1.01122 0.0
C365 C 0.32196 0.81841 0.9932 0.0
C366 C 0.36536 0.85786 0.01717 0.0
C367 C 0.31894 0.8224 0.92987 0.0
C368 C 0.26417 0.82634 0.01914 0.0
C369 C 0.24778 0.78089 0.04743 0.0
C370 C 0.1958 0.7775 0.07388 0.0
C371 C 0.15888 0.82117 0.07026 0.0
C372 C 0.17397 0.86781 0.04051 0.0
C373 C 0.22782 0.87086 0.01552 0.0
H374 H 0.63898 0.40776 0.03634 0.0
H375 H 0.53398 0.3397 0.90742 0.0
H376 H 0.60676 0.27073 0.88949 0.0
H377 H 0.77965 0.37761 0.96885 0.0
H378 H 0.81239 0.36162 0.03414 0.0
H379 H 0.75633 0.41073 0.031 0.0
H380 H 0.70044 0.35731 0.10434 0.0
H381 H 0.75583 0.30772 0.10711 0.0
H382 H 0.68425 0.2879 0.09167 0.0
H383 H 0.68165 0.20167 0.89556 0.0
H384 H 0.76019 0.14032 0.9191 0.0
H385 H 0.82046 0.25318 0.04189 0.0
C386 C 0.63259 0.37953 1.00296 0.0
C387 C 0.58137 0.37917 0.97272 0.0
C388 C 0.57329 0.3407 0.93055 0.0
C389 C 0.6143 0.30142 0.92017 0.0
C390 C 0.66339 0.30136 0.95208 0.0
C391 C 0.67334 0.33982 0.99205 0.0
C392 C 0.72778 0.32782 0.02326 0.0
C393 C 0.77164 0.37208 1.01372 0.0
C394 C 0.71635 0.3197 0.08525 0.0
C395 C 0.74568 0.27584 0.99577 0.0
C396 C 0.70785 0.26149 0.95478 0.0
C397 C 0.71228 0.21297 0.9267 0.0
C398 C 0.7567 0.17822 0.94065 0.0
C399 C 0.79643 0.19231 0.98193 0.0
C400 C 0.79118 0.24201 1.00943 0.0
H401 H 0.569 0.74147 0.97757 0.0
H402 H 0.64259 0.6107 0.07239 0.0
H403 H 0.73248 0.66006 0.07808 0.0
H404 H 0.69291 0.78113 0.90294 0.0
H405 H 0.67751 0.85162 0.9089 0.0
H406 H 0.62058 0.80394 0.9081 0.0
H407 H 0.58408 0.8421 1.00122 0.0
H408 H 0.64115 0.88965 1.0021 0.0
H409 H 0.6314 0.84495 0.05966 0.0
H410 H 0.81406 0.72332 0.07328 0.0
H411 H 0.88011 0.79868 0.06417 0.0
H412 H 0.74984 0.89205 0.98136 0.0
C413 C 0.60368 0.72313 1.00002 0.0
C414 C 0.59848 0.67181 0.02421 0.0
C415 C 0.64558 0.64928 0.05235 0.0
C416 C 0.69677 0.67721 0.0562 0.0
C417 C 0.69991 0.72784 0.0324 0.0
C418 C 0.65448 0.75084 1.00537 0.0
C419 C 0.66783 0.807 0.98603 0.0
C420 C 0.66452 0.81111 0.92272 0.0
C421 C 0.6288 0.84836 1.01394 0.0
C422 C 0.72812 0.81197 1.00633 0.0
C423 C 0.74598 0.76559 0.03233 0.0
C424 C 0.80047 0.75996 0.05336 0.0
C425 C 0.83766 0.80301 0.04791 0.0
C426 C 0.81993 0.85138 0.0225 0.0
C427 C 0.76437 0.8558 1.0015 0.0
loop_
_geom_bond_atom_site_label_1
_geom_bond_atom_site_label_2
_geom_bond_distance
_geom_bond_site_symmetry_2
_ccdc_geom_bond_type
H0 C6 0.928 1_655 S
H1 C9 0.931 . S
H2 C11 0.930 1_655 S
H3 C13 0.930 . S
H4 C15 0.930 . S
H5 C17 0.929 1_655 S
C6 H0 0.928 1_455 S
C6 C7 1.380 1_455 S
C6 C8 1.394 . S
C7 C6 1.380 1_655 S
C7 C11 1.382 1_655 S
C8 C6 1.394 . S
C8 C9 1.400 . S
C9 H1 0.931 . S
C9 C8 1.400 . S
C9 C10 1.375 . S
C10 C9 1.375 . S
C10 C11 1.417 . S
C10 C12 1.501 . S
C11 H2 0.930 1_455 S
C11 C7 1.382 1_455 S
C11 C10 1.417 . S
C12 C10 1.501 . S
C12 C13 1.384 . S
C12 C17 1.410 . S
C13 H3 0.930 . S
C13 C12 1.384 . S
C13 C14 1.389 . S
C14 C13 1.389 . S
C14 C15 1.405 . S
C15 H4 0.930 . S
C15 C14 1.405 . S
C15 C16 1.365 . S
C16 C15 1.365 . S
C16 C17 1.400 . S
C17 H5 0.929 1_455 S
C17 C12 1.410 . S
C17 C16 1.400 . S
H18 C24 0.930 . S
H19 C27 0.931 . S
H20 C29 0.931 . S
H21 C31 0.930 . S
H22 C33 0.930 . S
H23 C35 0.931 . S
C24 H18 0.930 . S
C24 C25 1.380 . S
C24 C26 1.394 1_545 S
C25 C24 1.380 . S
C25 C29 1.382 . S
C26 C24 1.394 1_565 S
C26 C27 1.400 . S
C27 H19 0.931 . S
C27 C26 1.400 . S
C27 C28 1.375 . S
C28 C27 1.375 . S
C28 C29 1.415 1_565 S
C28 C30 1.501 . S
C29 H20 0.931 . S
C29 C25 1.382 . S
C29 C28 1.415 1_545 S
C30 C28 1.501 . S
C30 C31 1.384 . S
C30 C35 1.408 1_565 S
C31 H21 0.930 . S
C31 C30 1.384 . S
C31 C32 1.389 . S
C32 C31 1.389 . S
C32 C33 1.405 . S
C33 H22 0.930 . S
C33 C32 1.405 . S
C33 C34 1.364 1_565 S
C34 C33 1.364 1_545 S
C34 C35 1.400 . S
C35 H23 0.931 . S
C35 C30 1.408 1_545 S
C35 C34 1.400 . S
H36 C42 0.930 . S
H37 C45 0.931 . S
H38 C47 0.931 1_556 S
H39 C49 0.930 . S
H40 C51 0.930 . S
H41 C53 0.931 1_556 S
C42 H36 0.930 . S
C42 C43 1.380 1_554 S
C42 C44 1.394 . S
C43 C42 1.380 1_556 S
C43 C47 1.382 1_556 S
C44 C42 1.394 . S
C44 C45 1.400 . S
C45 H37 0.931 . S
C45 C44 1.400 . S
C45 C46 1.375 . S
C46 C45 1.375 . S
C46 C47 1.415 . S
C46 C48 1.501 . S
C47 H38 0.931 1_554 S
C47 C43 1.382 1_554 S
C47 C46 1.415 . S
C48 C46 1.501 . S
C48 C49 1.384 . S
C48 C53 1.408 . S
C49 H39 0.930 . S
C49 C48 1.384 . S
C49 C50 1.389 . S
C50 C49 1.389 . S
C50 C51 1.405 . S
C51 H40 0.930 . S
C51 C50 1.405 . S
C51 C52 1.364 . S
C52 C51 1.364 . S
C52 C53 1.400 . S
C53 H41 0.931 1_554 S
C53 C48 1.408 . S
C53 C52 1.400 . S
C54 O80 1.283 . S
C54 O98 1.283 . S
C55 O81 1.283 . S
C55 O96 1.283 . S
C56 O82 1.283 . S
C56 O99 1.283 . S
C57 O83 1.283 . S
C57 O97 1.283 . S
C58 O84 1.283 . S
C58 O93 1.283 . S
C59 O85 1.283 . S
C59 O95 1.283 . S
C60 O86 1.283 . S
C60 O92 1.283 . S
C61 O87 1.283 . S
C61 O94 1.283 . S
C62 O88 1.283 . S
C62 O103 1.283 . S
C63 O89 1.283 . S
C63 O101 1.283 . S
C64 O90 1.283 . S
C64 O102 1.283 . S
C65 O91 1.283 . S
C65 O100 1.283 . S
Eu66 O67 2.370 . S
Eu66 O68 2.370 1_454 S
Eu66 O71 2.370 1_554 S
Eu66 O72 2.370 1_455 S
Eu66 O80 2.363 1_554 S
Eu66 O81 2.363 . S
Eu66 O94 2.363 1_455 S
Eu66 O95 2.363 . S
O67 Eu66 2.370 . S
O67 Eu69 2.370 . S
O67 Eu74 2.371 . S
O68 Eu66 2.370 1_656 S
O68 Eu70 2.371 1_556 S
O68 Eu73 2.370 1_655 S
Eu69 O67 2.370 . S
Eu69 O71 2.370 1_554 S
Eu69 O75 2.371 1_544 S
Eu69 O76 2.371 1_545 S
Eu69 O84 2.364 1_545 S
Eu69 O85 2.362 . S
Eu69 O100 2.363 1_554 S
Eu69 O101 2.363 . S
Eu70 O68 2.371 1_554 S
Eu70 O72 2.371 . S
Eu70 O77 2.370 1_545 S
Eu70 O78 2.370 1_544 S
Eu70 O86 2.362 1_545 S
Eu70 O87 2.364 . S
Eu70 O102 2.363 1_554 S
Eu70 O103 2.363 . S
O71 Eu66 2.370 1_556 S
O71 Eu69 2.370 1_556 S
O71 Eu73 2.370 . S
O72 Eu66 2.370 1_655 S
O72 Eu70 2.371 . S
O72 Eu74 2.371 1_655 S
Eu73 O68 2.370 1_455 S
Eu73 O71 2.370 . S
Eu73 O75 2.371 1_545 S
Eu73 O78 2.371 1_445 S
Eu73 O90 2.363 1_455 S
Eu73 O91 2.363 . S
Eu73 O98 2.362 . S
Eu73 O99 2.364 1_545 S
Eu74 O67 2.371 . S
Eu74 O72 2.371 1_455 S
Eu74 O76 2.370 1_545 S
Eu74 O77 2.370 1_445 S
Eu74 O88 2.363 1_455 S
Eu74 O89 2.363 . S
Eu74 O96 2.364 . S
Eu74 O97 2.362 1_545 S
O75 Eu69 2.371 1_566 S
O75 Eu73 2.371 1_565 S
O75 Eu79 2.370 1_556 S
O76 Eu69 2.371 1_565 S
O76 Eu74 2.370 1_565 S
O76 Eu79 2.370 . S
O77 Eu70 2.370 1_565 S
O77 Eu74 2.370 1_665 S
O77 Eu79 2.370 1_655 S
O78 Eu70 2.370 1_566 S
O78 Eu73 2.371 1_665 S
O78 Eu79 2.370 1_656 S
Eu79 O75 2.370 1_554 S
Eu79 O76 2.370 . S
Eu79 O77 2.370 1_455 S
Eu79 O78 2.370 1_454 S
Eu79 O82 2.363 1_554 S
Eu79 O83 2.363 . S
Eu79 O92 2.363 1_455 S
Eu79 O93 2.363 . S
O80 C54 1.283 . S
O80 Eu66 2.363 1_556 S
O81 C55 1.283 . S
O81 Eu66 2.363 . S
O82 C56 1.283 . S
O82 Eu79 2.363 1_556 S
O83 C57 1.283 . S
O83 Eu79 2.363 . S
O84 C58 1.283 . S
O84 Eu69 2.364 1_565 S
O85 C59 1.283 . S
O85 Eu69 2.362 . S
O86 C60 1.283 . S
O86 Eu70 2.362 1_565 S
O87 C61 1.283 . S
O87 Eu70 2.364 . S
O88 C62 1.283 . S
O88 Eu74 2.363 1_655 S
O89 C63 1.283 . S
O89 Eu74 2.363 . S
O90 C64 1.283 . S
O90 Eu73 2.363 1_655 S
O91 C65 1.283 . S
O91 Eu73 2.363 . S
O92 C60 1.283 . S
O92 Eu79 2.363 1_655 S
O93 C58 1.283 . S
O93 Eu79 2.363 . S
O94 C61 1.283 . S
O94 Eu66 2.363 1_655 S
O95 C59 1.283 . S
O95 Eu66 2.363 . S
O96 C55 1.283 . S
O96 Eu74 2.364 . S
O97 C57 1.283 . S
O97 Eu74 2.362 1_565 S
O98 C54 1.283 . S
O98 Eu73 2.362 . S
O99 C56 1.283 . S
O99 Eu73 2.364 1_565 S
O100 C65 1.283 . S
O100 Eu69 2.363 1_556 S
O101 C63 1.283 . S
O101 Eu69 2.363 . S
O102 C64 1.283 . S
O102 Eu70 2.363 1_556 S
O103 C62 1.283 . S
O103 Eu70 2.363 . S
H104 C116 0.930 . S
H105 C118 0.930 . S
H106 C119 0.930 . S
H107 C123 0.959 . S
H108 C123 0.959 . S
H109 C123 0.961 . S
H110 C124 0.960 . S
H111 C124 0.961 . S
H112 C124 0.959 . S
H113 C127 0.929 . S
H114 C128 0.931 . S
H115 C130 0.930 . S
C116 H104 0.930 . S
C116 C117 1.399 1_455 S
C116 C121 1.399 . S
C117 C116 1.399 1_655 S
C117 C118 1.376 . S
C118 H105 0.930 . S
C118 C117 1.376 . S
C118 C119 1.388 . S
C119 H106 0.930 . S
C119 C118 1.388 . S
C119 C120 1.390 . S
C120 C119 1.390 . S
C120 C121 1.394 1_655 S
C120 C126 1.465 . S
C121 C116 1.399 . S
C121 C120 1.394 1_455 S
C121 C122 1.516 . S
C122 C121 1.516 . S
C122 C123 1.502 . S
C122 C124 1.561 . S
C122 C125 1.526 . S
C123 H107 0.959 . S
C123 H108 0.959 . S
C123 H109 0.961 . S
C123 C122 1.502 . S
C124 H110 0.960 . S
C124 H111 0.961 . S
C124 H112 0.959 . S
C124 C122 1.561 . S
C125 C122 1.526 . S
C125 C126 1.396 1_455 S
C125 C130 1.390 . S
C126 C120 1.465 . S
C126 C125 1.396 1_655 S
C126 C127 1.399 . S
C127 H113 0.929 . S
C127 C126 1.399 . S
C127 C128 1.385 . S
C128 H114 0.931 . S
C128 C127 1.385 . S
C128 C129 1.389 . S
C129 C128 1.389 . S
C129 C130 1.387 1_655 S
C130 H115 0.930 . S
C130 C125 1.390 . S
C130 C129 1.387 1_455 S
H131 C143 0.930 . S
H132 C145 0.930 . S
H133 C146 0.930 . S
H134 C150 0.959 . S
H135 C150 0.959 . S
H136 C150 0.961 . S
H137 C151 0.960 . S
H138 C151 0.961 . S
H139 C151 0.959 . S
H140 C154 0.929 . S
H141 C155 0.931 . S
H142 C157 0.930 . S
C143 H131 0.930 . S
C143 C144 1.399 . S
C143 C148 1.399 . S
C144 C143 1.399 . S
C144 C145 1.376 1_545 S
C145 H132 0.930 . S
C145 C144 1.376 1_565 S
C145 C146 1.388 . S
C146 H133 0.930 . S
C146 C145 1.388 . S
C146 C147 1.390 . S
C147 C146 1.390 . S
C147 C148 1.394 1_565 S
C147 C153 1.465 . S
C148 C143 1.399 . S
C148 C147 1.394 1_545 S
C148 C149 1.516 . S
C149 C148 1.516 . S
C149 C150 1.502 . S
C149 C151 1.561 . S
C149 C152 1.526 . S
C150 H134 0.959 . S
C150 H135 0.959 . S
C150 H136 0.961 . S
C150 C149 1.502 . S
C151 H137 0.960 . S
C151 H138 0.961 . S
C151 H139 0.959 . S
C151 C149 1.561 . S
C152 C149 1.526 . S
C152 C153 1.396 1_545 S
C152 C157 1.390 . S
C153 C147 1.465 . S
C153 C152 1.396 1_565 S
C153 C154 1.399 . S
C154 H140 0.929 . S
C154 C153 1.399 . S
C154 C155 1.385 . S
C155 H141 0.931 . S
C155 C154 1.385 . S
C155 C156 1.389 . S
C156 C155 1.389 . S
C156 C157 1.387 1_565 S
C157 H142 0.930 . S
C157 C152 1.390 . S
C157 C156 1.387 1_545 S
H158 C170 0.930 . S
H159 C172 0.930 . S
H160 C173 0.930 . S
H161 C177 0.959 . S
H162 C177 0.959 . S
H163 C177 0.961 . S
H164 C178 0.960 . S
H165 C178 0.961 . S
H166 C178 0.959 . S
H167 C181 0.929 . S
H168 C182 0.931 . S
H169 C184 0.930 . S
C170 H158 0.930 . S
C170 C171 1.399 . S
C170 C175 1.399 . S
C171 C170 1.399 . S
C171 C172 1.376 . S
C172 H159 0.930 . S
C172 C171 1.376 . S
C172 C173 1.388 . S
C173 H160 0.930 . S
C173 C172 1.388 . S
C173 C174 1.390 . S
C174 C173 1.390 . S
C174 C175 1.394 . S
C174 C180 1.465 . S
C175 C170 1.399 . S
C175 C174 1.394 . S
C175 C176 1.516 . S
C176 C175 1.516 . S
C176 C177 1.502 1_455 S
C176 C178 1.561 . S
C176 C179 1.526 . S
C177 H161 0.959 . S
C177 H162 0.959 . S
C177 H163 0.961 . S
C177 C176 1.502 1_655 S
C178 H164 0.960 . S
C178 H165 0.961 . S
C178 H166 0.959 . S
C178 C176 1.561 . S
C179 C176 1.526 . S
C179 C180 1.396 . S
C179 C184 1.390 . S
C180 C174 1.465 . S
C180 C179 1.396 . S
C180 C181 1.399 . S
C181 H167 0.929 . S
C181 C180 1.399 . S
C181 C182 1.385 . S
C182 H168 0.931 . S
C182 C181 1.385 . S
C182 C183 1.389 . S
C183 C182 1.389 . S
C183 C184 1.387 . S
C184 H169 0.930 . S
C184 C179 1.390 . S
C184 C183 1.387 . S
H185 C197 0.930 . S
H186 C199 0.930 . S
H187 C200 0.930 . S
H188 C204 0.959 . S
H189 C204 0.959 . S
H190 C204 0.961 . S
H191 C205 0.960 . S
H192 C205 0.961 . S
H193 C205 0.959 . S
H194 C208 0.929 . S
H195 C209 0.931 . S
H196 C211 0.930 . S
C197 H185 0.930 . S
C197 C198 1.399 . S
C197 C202 1.399 . S
C198 C197 1.399 . S
C198 C199 1.376 1_565 S
C199 H186 0.930 . S
C199 C198 1.376 1_545 S
C199 C200 1.388 . S
C200 H187 0.930 . S
C200 C199 1.388 . S
C200 C201 1.390 . S
C201 C200 1.390 . S
C201 C202 1.394 1_545 S
C201 C207 1.465 . S
C202 C197 1.399 . S
C202 C201 1.394 1_565 S
C202 C203 1.516 . S
C203 C202 1.516 . S
C203 C204 1.502 . S
C203 C205 1.561 . S
C203 C206 1.526 . S
C204 H188 0.959 . S
C204 H189 0.959 . S
C204 H190 0.961 . S
C204 C203 1.502 . S
C205 H191 0.960 . S
C205 H192 0.961 . S
C205 H193 0.959 . S
C205 C203 1.561 . S
C206 C203 1.526 . S
C206 C207 1.396 1_565 S
C206 C211 1.390 . S
C207 C201 1.465 . S
C207 C206 1.396 1_545 S
C207 C208 1.399 . S
C208 H194 0.929 . S
C208 C207 1.399 . S
C208 C209 1.385 . S
C209 H195 0.931 . S
C209 C208 1.385 . S
C209 C210 1.389 . S
C210 C209 1.389 . S
C210 C211 1.387 1_545 S
C211 H196 0.930 . S
C211 C206 1.390 . S
C211 C210 1.387 1_565 S
H212 C224 0.930 . S
H213 C226 0.930 . S
H214 C227 0.930 . S
H215 C231 0.959 . S
H216 C231 0.959 . S
H217 C231 0.961 . S
H218 C232 0.960 . S
H219 C232 0.961 . S
H220 C232 0.959 . S
H221 C235 0.929 . S
H222 C236 0.931 . S
H223 C238 0.930 . S
C224 H212 0.930 . S
C224 C225 1.399 1_455 S
C224 C229 1.399 . S
C225 C224 1.399 1_655 S
C225 C226 1.376 . S
C226 H213 0.930 . S
C226 C225 1.376 . S
C226 C227 1.388 . S
C227 H214 0.930 . S
C227 C226 1.388 . S
C227 C228 1.390 . S
C228 C227 1.390 . S
C228 C229 1.394 1_655 S
C228 C234 1.465 . S
C229 C224 1.399 . S
C229 C228 1.394 1_455 S
C229 C230 1.516 . S
C230 C229 1.516 . S
C230 C231 1.502 . S
C230 C232 1.561 1_455 S
C230 C233 1.526 . S
C231 H215 0.959 . S
C231 H216 0.959 . S
C231 H217 0.961 . S
C231 C230 1.502 . S
C232 H218 0.960 . S
C232 H219 0.961 . S
C232 H220 0.959 . S
C232 C230 1.561 1_655 S
C233 C230 1.526 . S
C233 C234 1.396 1_455 S
C233 C238 1.390 . S
C234 C228 1.465 . S
C234 C233 1.396 1_655 S
C234 C235 1.399 . S
C235 H221 0.929 . S
C235 C234 1.399 . S
C235 C236 1.385 . S
C236 H222 0.931 . S
C236 C235 1.385 . S
C236 C237 1.390 . S
C237 C236 1.390 . S
C237 C238 1.386 1_655 S
C238 H223 0.930 . S
C238 C233 1.390 . S
C238 C237 1.386 1_455 S
H239 C251 0.930 . S
H240 C253 0.930 . S
H241 C254 0.930 . S
H242 C258 0.959 . S
H243 C258 0.959 . S
H244 C258 0.961 . S
H245 C259 0.960 . S
H246 C259 0.961 . S
H247 C259 0.959 . S
H248 C262 0.929 . S
H249 C263 0.931 . S
H250 C265 0.930 . S
C251 H239 0.930 . S
C251 C252 1.399 1_565 S
C251 C256 1.399 . S
C252 C251 1.399 1_545 S
C252 C253 1.376 . S
C253 H240 0.930 . S
C253 C252 1.376 . S
C253 C254 1.388 . S
C254 H241 0.930 . S
C254 C253 1.388 . S
C254 C255 1.390 . S
C255 C254 1.390 . S
C255 C256 1.394 1_545 S
C255 C261 1.465 . S
C256 C251 1.399 . S
C256 C255 1.394 1_565 S
C256 C257 1.516 . S
C257 C256 1.516 . S
C257 C258 1.502 . S
C257 C259 1.561 . S
C257 C260 1.526 . S
C258 H242 0.959 . S
C258 H243 0.959 . S
C258 H244 0.961 . S
C258 C257 1.502 . S
C259 H245 0.960 . S
C259 H246 0.961 . S
C259 H247 0.959 . S
C259 C257 1.561 . S
C260 C257 1.526 . S
C260 C261 1.396 1_565 S
C260 C265 1.390 . S
C261 C255 1.465 . S
C261 C260 1.396 1_545 S
C261 C262 1.399 . S
C262 H248 0.929 . S
C262 C261 1.399 . S
C262 C263 1.385 . S
C263 H249 0.931 . S
C263 C262 1.385 . S
C263 C264 1.389 . S
C264 C263 1.389 . S
C264 C265 1.387 1_545 S
C265 H250 0.930 . S
C265 C260 1.390 . S
C265 C264 1.387 1_565 S
H266 C278 0.930 1_655 S
H267 C280 0.930 . S
H268 C281 0.930 . S
H269 C285 0.959 . S
H270 C285 0.959 . S
H271 C285 0.961 . S
H272 C286 0.960 . S
H273 C286 0.961 . S
H274 C286 0.959 . S
H275 C289 0.929 . S
H276 C290 0.931 . S
H277 C292 0.932 . S
C278 H266 0.930 1_455 S
C278 C279 1.399 . S
C278 C283 1.399 . S
C279 C278 1.399 . S
C279 C280 1.376 . S
C280 H267 0.930 . S
C280 C279 1.376 . S
C280 C281 1.388 . S
C281 H268 0.930 . S
C281 C280 1.388 . S
C281 C282 1.390 . S
C282 C281 1.390 . S
C282 C283 1.394 . S
C282 C288 1.465 . S
C283 C278 1.399 . S
C283 C282 1.394 . S
C283 C284 1.517 . S
C284 C283 1.517 . S
C284 C285 1.497 1_455 S
C284 C286 1.565 . S
C284 C287 1.526 . S
C285 H269 0.959 . S
C285 H270 0.959 . S
C285 H271 0.961 . S
C285 C284 1.497 1_655 S
C286 H272 0.960 . S
C286 H273 0.961 . S
C286 H274 0.959 . S
C286 C284 1.565 . S
C287 C284 1.526 . S
C287 C288 1.396 . S
C287 C292 1.389 1_455 S
C288 C282 1.465 . S
C288 C287 1.396 . S
C288 C289 1.399 . S
C289 H275 0.929 . S
C289 C288 1.399 . S
C289 C290 1.385 . S
C290 H276 0.931 . S
C290 C289 1.385 . S
C290 C291 1.389 . S
C291 C290 1.389 . S
C291 C292 1.385 1_455 S
C292 H277 0.932 . S
C292 C287 1.389 1_655 S
C292 C291 1.385 1_655 S
H293 C305 0.930 . S
H294 C307 0.930 . S
H295 C308 0.930 . S
H296 C312 0.959 . S
H297 C312 0.959 1_545 S
H298 C312 0.961 . S
H299 C313 0.960 . S
H300 C313 0.961 . S
H301 C313 0.959 . S
H302 C316 0.929 . S
H303 C317 0.931 . S
H304 C319 0.930 . S
C305 H293 0.930 . S
C305 C306 1.399 1_545 S
C305 C310 1.399 . S
C306 C305 1.399 1_565 S
C306 C307 1.376 . S
C307 H294 0.930 . S
C307 C306 1.376 . S
C307 C308 1.388 . S
C308 H295 0.930 . S
C308 C307 1.388 . S
C308 C309 1.390 . S
C309 C308 1.390 . S
C309 C310 1.394 1_565 S
C309 C315 1.465 . S
C310 C305 1.399 . S
C310 C309 1.394 1_545 S
C310 C311 1.516 . S
C311 C310 1.516 . S
C311 C312 1.502 1_545 S
C311 C313 1.561 . S
C311 C314 1.526 . S
C312 H296 0.959 . S
C312 H297 0.959 1_565 S
C312 H298 0.961 . S
C312 C311 1.502 1_565 S
C313 H299 0.960 . S
C313 H300 0.961 . S
C313 H301 0.959 . S
C313 C311 1.561 . S
C314 C311 1.526 . S
C314 C315 1.396 1_545 S
C314 C319 1.390 . S
C315 C309 1.465 . S
C315 C314 1.396 1_565 S
C315 C316 1.399 . S
C316 H302 0.929 . S
C316 C315 1.399 . S
C316 C317 1.385 . S
C317 H303 0.931 . S
C317 C316 1.385 . S
C317 C318 1.389 . S
C318 C317 1.389 . S
C318 C319 1.387 1_565 S
C319 H304 0.930 . S
C319 C314 1.390 . S
C319 C318 1.387 1_545 S
H320 C332 0.930 . S
H321 C334 0.930 . S
H322 C335 0.930 . S
H323 C339 0.959 . S
H324 C339 0.959 . S
H325 C339 0.961 . S
H326 C340 0.960 . S
H327 C340 0.961 . S
H328 C340 0.959 . S
H329 C343 0.929 . S
H330 C344 0.931 . S
H331 C346 0.930 . S
C332 H320 0.930 . S
C332 C333 1.399 1_556 S
C332 C337 1.399 . S
C333 C332 1.399 1_554 S
C333 C334 1.376 . S
C334 H321 0.930 . S
C334 C333 1.376 . S
C334 C335 1.388 . S
C335 H322 0.930 . S
C335 C334 1.388 . S
C335 C336 1.390 . S
C336 C335 1.390 . S
C336 C337 1.394 1_554 S
C336 C342 1.465 . S
C337 C332 1.399 . S
C337 C336 1.394 1_556 S
C337 C338 1.516 . S
C338 C337 1.516 . S
C338 C339 1.502 . S
C338 C340 1.561 . S
C338 C341 1.526 . S
C339 H323 0.959 . S
C339 H324 0.959 . S
C339 H325 0.961 . S
C339 C338 1.502 . S
C340 H326 0.960 . S
C340 H327 0.961 . S
C340 H328 0.959 . S
C340 C338 1.561 . S
C341 C338 1.526 . S
C341 C342 1.396 1_556 S
C341 C346 1.390 . S
C342 C336 1.465 . S
C342 C341 1.396 1_554 S
C342 C343 1.399 . S
C343 H329 0.929 . S
C343 C342 1.399 . S
C343 C344 1.385 . S
C344 H330 0.931 . S
C344 C343 1.385 . S
C344 C345 1.389 . S
C345 C344 1.389 . S
C345 C346 1.387 1_554 S
C346 H331 0.930 . S
C346 C341 1.390 . S
C346 C345 1.387 1_556 S
H347 C359 0.930 . S
H348 C361 0.930 . S
H349 C362 0.930 . S
H350 C366 0.959 . S
H351 C366 0.959 . S
H352 C366 0.961 . S
H353 C367 0.960 . S
H354 C367 0.961 . S
H355 C367 0.959 . S
H356 C370 0.929 . S
H357 C371 0.931 . S
H358 C373 0.930 . S
C359 H347 0.930 . S
C359 C360 1.399 1_556 S
C359 C364 1.399 . S
C360 C359 1.399 1_554 S
C360 C361 1.376 . S
C361 H348 0.930 . S
C361 C360 1.376 . S
C361 C362 1.388 . S
C362 H349 0.930 . S
C362 C361 1.388 . S
C362 C363 1.390 . S
C363 C362 1.390 . S
C363 C364 1.394 1_554 S
C363 C369 1.465 . S
C364 C359 1.399 . S
C364 C363 1.394 1_556 S
C364 C365 1.516 . S
C365 C364 1.516 . S
C365 C366 1.502 . S
C365 C367 1.561 . S
C365 C368 1.526 . S
C366 H350 0.959 . S
C366 H351 0.959 . S
C366 H352 0.961 . S
C366 C365 1.502 . S
C367 H353 0.960 . S
C367 H354 0.961 . S
C367 H355 0.959 . S
C367 C365 1.561 . S
C368 C365 1.526 . S
C368 C369 1.396 1_556 S
C368 C373 1.390 . S
C369 C363 1.465 . S
C369 C368 1.396 1_554 S
C369 C370 1.399 . S
C370 H356 0.929 . S
C370 C369 1.399 . S
C370 C371 1.385 . S
C371 H357 0.931 . S
C371 C370 1.385 . S
C371 C372 1.389 . S
C372 C371 1.389 . S
C372 C373 1.387 1_554 S
C373 H358 0.930 . S
C373 C368 1.390 . S
C373 C372 1.387 1_556 S
H374 C386 0.930 . S
H375 C388 0.930 . S
H376 C389 0.930 . S
H377 C393 0.959 . S
H378 C393 0.959 . S
H379 C393 0.961 . S
H380 C394 0.960 . S
H381 C394 0.961 . S
H382 C394 0.959 . S
H383 C397 0.929 . S
H384 C398 0.931 . S
H385 C400 0.930 . S
C386 H374 0.930 . S
C386 C387 1.399 1_554 S
C386 C391 1.399 . S
C387 C386 1.399 1_556 S
C387 C388 1.376 . S
C388 H375 0.930 . S
C388 C387 1.376 . S
C388 C389 1.388 . S
C389 H376 0.930 . S
C389 C388 1.388 . S
C389 C390 1.390 . S
C390 C389 1.390 . S
C390 C391 1.394 1_556 S
C390 C396 1.465 . S
C391 C386 1.399 . S
C391 C390 1.394 1_554 S
C391 C392 1.516 . S
C392 C391 1.516 . S
C392 C393 1.502 . S
C392 C394 1.561 . S
C392 C395 1.526 . S
C393 H377 0.959 . S
C393 H378 0.959 . S
C393 H379 0.961 . S
C393 C392 1.502 . S
C394 H380 0.960 . S
C394 H381 0.961 . S
C394 H382 0.959 . S
C394 C392 1.561 . S
C395 C392 1.526 . S
C395 C396 1.396 1_554 S
C395 C400 1.390 . S
C396 C390 1.465 . S
C396 C395 1.396 1_556 S
C396 C397 1.399 . S
C397 H383 0.929 . S
C397 C396 1.399 . S
C397 C398 1.385 . S
C398 H384 0.931 . S
C398 C397 1.385 . S
C398 C399 1.389 . S
C399 C398 1.389 . S
C399 C400 1.387 1_556 S
C400 H385 0.930 . S
C400 C395 1.390 . S
C400 C399 1.387 1_554 S
H401 C413 0.930 . S
H402 C415 0.930 . S
H403 C416 0.930 . S
H404 C420 0.959 . S
H405 C420 0.959 . S
H406 C420 0.961 . S
H407 C421 0.960 . S
H408 C421 0.961 . S
H409 C421 0.959 . S
H410 C424 0.929 . S
H411 C425 0.931 . S
H412 C427 0.930 . S
C413 H401 0.930 . S
C413 C414 1.399 1_556 S
C413 C418 1.399 . S
C414 C413 1.399 1_554 S
C414 C415 1.376 . S
C415 H402 0.930 . S
C415 C414 1.376 . S
C415 C416 1.388 . S
C416 H403 0.930 . S
C416 C415 1.388 . S
C416 C417 1.390 . S
C417 C416 1.390 . S
C417 C418 1.394 1_554 S
C417 C423 1.465 . S
C418 C413 1.399 . S
C418 C417 1.394 1_556 S
C418 C419 1.516 . S
C419 C418 1.516 . S
C419 C420 1.502 . S
C419 C421 1.561 . S
C419 C422 1.526 . S
C420 H404 0.959 . S
C420 H405 0.959 . S
C420 H406 0.961 . S
C420 C419 1.502 . S
C421 H407 0.960 . S
C421 H408 0.961 . S
C421 H409 0.959 . S
C421 C419 1.561 . S
C422 C419 1.526 . S
C422 C423 1.396 1_556 S
C422 C427 1.390 . S
C423 C417 1.465 . S
C423 C422 1.396 1_554 S
C423 C424 1.399 . S
C424 H410 0.929 . S
C424 C423 1.399 . S
C424 C425 1.385 . S
C425 H411 0.931 . S
C425 C424 1.385 . S
C425 C426 1.389 . S
C426 C425 1.389 . S
C426 C427 1.387 1_554 S
C427 H412 0.930 . S
C427 C422 1.390 . S
C427 C426 1.387 1_556 S
C129 C55 1.893 1_655 S
C117 C7 1.879 . S
C156 C62 1.208 1_565 S
C144 C34 1.199 . S
C183 C57 1.896 . S
C171 C14 1.895 . S
C210 C63 1.211 . S
C198 C32 1.219 . S
C225 C16 1.889 1_655 S
C237 C56 1.894 1_655 S
C264 C65 1.203 . S
C252 C25 1.186 . S
C279 C8 1.887 . S
C291 C54 1.888 . S
C306 C26 1.171 . S
C318 C64 1.197 1_565 S
C333 C50 1.509 . S
C345 C59 1.537 . S
C360 C43 1.529 1_554 S
C372 C58 1.539 . S
C399 C61 1.537 1_556 S
C387 C52 1.503 1_556 S
C426 C60 1.531 . S
C414 C44 1.503 . S
