# Generated by pormake.
# Topology pyr, (3,6)-cn, num edge types: 1
# Building blocks:
#     Node 0, Type 0, BuildingBlock: KAKCAD_clean_linker_0, # of connection points: 3
#     Node 1, Type 0, BuildingBlock: KAKCAD_clean_linker_0, # of connection points: 3
#     Node 2, Type 0, BuildingBlock: KAKCAD_clean_linker_0, # of connection points: 3
#     Node 3, Type 0, BuildingBlock: KAKCAD_clean_linker_0, # of connection points: 3
#     Node 4, Type 0, BuildingBlock: KAKCAD_clean_linker_0, # of connection points: 3
#     Node 5, Type 0, BuildingBlock: KAKCAD_clean_linker_0, # of connection points: 3
#     Node 6, Type 0, BuildingBlock: KAKCAD_clean_linker_0, # of connection points: 3
#     Node 7, Type 0, BuildingBlock: KAKCAD_clean_linker_0, # of connection points: 3
#     Node 8, Type 1, BuildingBlock: BETDIP_clean_sbu_0, # of connection points: 6
#     Node 9, Type 1, BuildingBlock: BETDIP_clean_sbu_0, # of connection points: 6
#     Node 10, Type 1, BuildingBlock: BETDIP_clean_sbu_0, # of connection points: 6
#     Node 11, Type 1, BuildingBlock: BETDIP_clean_sbu_0, # of connection points: 6
#     Edge 12, Type (0, 1), None
#     Edge 13, Type (0, 1), None
#     Edge 14, Type (0, 1), None
#     Edge 15, Type (0, 1), None
#     Edge 16, Type (0, 1), None
#     Edge 17, Type (0, 1), None
#     Edge 18, Type (0, 1), None
#     Edge 19, Type (0, 1), None
#     Edge 20, Type (0, 1), None
#     Edge 21, Type (0, 1), None
#     Edge 22, Type (0, 1), None
#     Edge 23, Type (0, 1), None
#     Edge 24, Type (0, 1), None
#     Edge 25, Type (0, 1), None
#     Edge 26, Type (0, 1), None
#     Edge 27, Type (0, 1), None
#     Edge 28, Type (0, 1), None
#     Edge 29, Type (0, 1), None
#     Edge 30, Type (0, 1), None
#     Edge 31, Type (0, 1), None
#     Edge 32, Type (0, 1), None
#     Edge 33, Type (0, 1), None
#     Edge 34, Type (0, 1), None
#     Edge 35, Type (0, 1), None
# Relax obj value: 0.238
# Max RMSD: 0.221
# Mean RMSD: 0.104
data_MOF--net-pyr--node1-BETDIP_clean_sbu_0--node2-KAKCAD_clean_linker_0--edge1-none
_symmetry_space_group_name_H-M    P1
_symmetry_Int_Tables_number       1
_symmetry_cell_setting            triclinic
loop_
_symmetry_equiv_pos_as_xyz
'x, y, z'
_cell_length_a     24.650608
_cell_length_b     26.166234
_cell_length_c     23.950257
_cell_angle_alpha  88.733249
_cell_angle_beta   93.435207
_cell_angle_gamma 104.88261
loop_
_atom_site_label
_atom_site_type_symbol
_atom_site_fract_x
_atom_site_fract_y
_atom_site_fract_z
_atom_type_partial_charge
C0 C 0.41732 0.23452 0.5442 0.0
C1 C 0.38937 0.26224 0.57707 0.0
C2 C 0.44847 0.25984 0.50023 0.0
C3 C 0.45265 0.31372 0.48825 0.0
C4 C 0.43308 0.34295 0.52799 0.0
C5 C 0.40072 0.31729 0.57123 0.0
C6 C 0.4614 0.33382 0.4293 0.0
C7 C 0.42979 0.36825 0.40747 0.0
C8 C 0.413 0.36815 0.35046 0.0
C9 C 0.4345 0.33836 0.31361 0.0
C10 C 0.47081 0.3077 0.33368 0.0
C11 C 0.486 0.30738 0.39113 0.0
C12 C 0.48023 0.26585 0.29774 0.0
C13 C 0.43341 0.22786 0.27539 0.0
C14 C 0.53444 0.26144 0.28786 0.0
C15 C 0.54147 0.22041 0.25443 0.0
C16 C 0.49432 0.18254 0.23178 0.0
C17 C 0.36393 0.38918 0.33247 0.0
C18 C 0.31835 0.38134 0.36719 0.0
C19 C 0.35986 0.4134 0.2799 0.0
C20 C 0.31095 0.42868 0.26238 0.0
C21 C 0.26526 0.41987 0.2971 0.0
C22 C 0.2702 0.39704 0.35009 0.0
C23 C 0.44032 0.1866 0.24316 0.0
H24 H 0.40972 0.19196 0.54798 0.0
H25 H 0.46286 0.23497 0.47218 0.0
H26 H 0.43723 0.3848 0.52264 0.0
H27 H 0.38076 0.33982 0.59708 0.0
H28 H 0.41158 0.39038 0.43521 0.0
H29 H 0.51159 0.28143 0.40623 0.0
H30 H 0.41927 0.33522 0.27008 0.0
H31 H 0.39117 0.22983 0.28336 0.0
H32 H 0.57112 0.29002 0.30536 0.0
H33 H 0.58361 0.21838 0.24628 0.0
H34 H 0.31881 0.36145 0.40728 0.0
H35 H 0.39412 0.4199 0.25214 0.0
H36 H 0.40302 0.15847 0.22618 0.0
H37 H 0.23639 0.39055 0.3784 0.0
H38 H 0.30834 0.44598 0.22114 0.0
C39 C 0.10491 0.83303 1.04997 0.0
C40 C 0.16216 0.83602 1.06237 0.0
C41 C 0.07469 0.7988 1.00838 0.0
C42 C 0.10173 0.76788 0.9781 0.0
C43 C 0.15431 0.76232 1.00039 0.0
C44 C 0.18433 0.79629 1.04189 0.0
C45 C 0.08564 0.7563 0.9173 0.0
C46 C 0.06256 0.79213 0.88481 0.0
C47 C 0.07162 0.79908 0.8276 0.0
C48 C 0.10372 0.76964 0.80249 0.0
C49 C 0.1252 0.73228 0.83359 0.0
C50 C 0.11018 0.72191 0.88922 0.0
C51 C 0.17386 0.71507 0.81328 0.0
C52 C 0.1788 0.70755 0.75597 0.0
C53 C 0.22009 0.71414 0.85063 0.0
C54 C 0.27043 0.70861 0.83113 0.0
C55 C 0.27636 0.70454 0.7737 0.0
C56 C 0.06029 0.84604 0.7982 0.0
C57 C 1.00594 0.854 0.79245 0.0
C58 C 0.10551 0.88496 0.77835 0.0
C59 C 0.09683 0.9308 0.75296 0.0
C60 C 0.04252 0.93879 0.74605 0.0
C61 C 0.99697 0.89977 0.76582 0.0
C62 C 0.22965 0.70271 0.73636 0.0
H63 H 0.08541 0.86118 1.06766 0.0
H64 H 0.03259 0.80139 0.99574 0.0
H65 H 0.17669 0.73756 0.9811 0.0
H66 H 0.22767 0.79587 1.05166 0.0
H67 H 0.04423 0.82 0.90459 0.0
H68 H 0.12509 0.69192 0.91271 0.0
H69 H 0.11604 0.77959 0.76013 0.0
H70 H 0.14407 0.70733 0.726 0.0
H71 H 0.21908 0.72111 0.89485 0.0
H72 H 0.3058 0.71058 0.86086 0.0
H73 H 0.97053 0.82465 0.80806 0.0
H74 H 0.14795 0.88025 0.78321 0.0
H75 H 0.23284 0.69868 0.69184 0.0
H76 H 0.95464 0.90472 0.76094 0.0
H77 H 0.13293 0.95966 0.7379 0.0
C78 C 0.84024 0.52033 1.03887 0.0
C79 C 0.866 0.48501 1.06836 0.0
C80 C 0.7895 0.5015 1.00628 0.0
C81 C 0.76399 0.44663 1.00104 0.0
C82 C 0.79217 0.41173 1.02846 0.0
C83 C 0.84144 0.43056 1.06214 0.0
C84 C 0.70774 0.42534 0.96926 0.0
C85 C 0.68957 0.45291 0.92329 0.0
C86 C 0.63603 0.43407 0.89472 0.0
C87 C 0.60116 0.38487 0.91268 0.0
C88 C 0.6192 0.35551 0.95732 0.0
C89 C 0.67163 0.37677 0.98541 0.0
C90 C 0.58427 0.30264 0.9766 0.0
C91 C 0.53214 0.29769 0.99992 0.0
C92 C 0.60599 0.25767 0.9775 0.0
C93 C 0.57677 0.2094 1.00139 0.0
C94 C 0.52573 0.205 1.0268 0.0
C95 C 0.61743 0.4663 0.84668 0.0
C96 C 0.6373 0.52203 0.84515 0.0
C97 C 0.58042 0.44251 0.80156 0.0
C98 C 0.56442 0.47315 0.75704 0.0
C99 C 0.58537 0.52859 0.75559 0.0
C100 C 0.62213 0.55232 0.80043 0.0
C101 C 0.50356 0.24976 1.025 0.0
H102 H 0.8583 0.56235 1.04223 0.0
H103 H 0.76974 0.53021 0.9865 0.0
H104 H 0.77634 0.36936 1.02428 0.0
H105 H 0.86059 0.402 1.08333 0.0
H106 H 0.71805 0.48877 0.90886 0.0
H107 H 0.68338 0.35529 1.02131 0.0
H108 H 0.56004 0.36923 0.89226 0.0
H109 H 0.51447 0.33151 1.00068 0.0
H110 H 0.64611 0.26004 0.96006 0.0
H111 H 0.5945 0.17572 1.00031 0.0
H112 H 0.66429 0.54298 0.87907 0.0
H113 H 0.56421 0.39999 0.79999 0.0
H114 H 0.4642 0.248 1.04375 0.0
H115 H 0.6387 0.59484 0.8016 0.0
H116 H 0.53584 0.4533 0.7235 0.0
C117 C 0.93037 0.61645 0.31152 0.0
C118 C 0.94587 0.64277 0.26062 0.0
C119 C 0.91502 0.64284 0.35649 0.0
C120 C 0.91554 0.69694 0.35279 0.0
C121 C 0.93154 0.7234 0.30208 0.0
C122 C 0.94595 0.69676 0.25672 0.0
C123 C 0.89724 0.72482 0.40053 0.0
C124 C 0.8488 0.69944 0.42922 0.0
C125 C 0.82844 0.7252 0.47189 0.0
C126 C 0.85829 0.77746 0.48555 0.0
C127 C 0.90832 0.80305 0.46051 0.0
C128 C 0.92732 0.77656 0.41756 0.0
C129 C 0.94121 0.85606 0.48307 0.0
C130 C 0.9144 0.89652 0.49271 0.0
C131 C 0.99772 0.86407 0.50234 0.0
C132 C 0.0257 0.90982 0.53244 0.0
C133 C 0.99847 0.94955 0.54351 0.0
C134 C 0.77619 0.69843 0.5023 0.0
C135 C 0.73349 0.65723 0.47742 0.0
C136 C 0.76761 0.7146 0.5565 0.0
C137 C 0.71762 0.69251 0.58317 0.0
C138 C 0.67563 0.65172 0.55793 0.0
C139 C 0.68457 0.6337 0.50524 0.0
C140 C 0.94279 0.9428 0.52198 0.0
H141 H 0.92996 0.57511 0.31675 0.0
H142 H 0.90335 0.62086 0.39465 0.0
H143 H 0.93201 0.76474 0.29701 0.0
H144 H 0.95794 0.71885 0.21872 0.0
H145 H 0.82691 0.65944 0.4177 0.0
H146 H 0.96558 0.79612 0.39764 0.0
H147 H 0.84328 0.79882 0.51682 0.0
H148 H 0.87084 0.89182 0.47856 0.0
H149 H 0.01957 0.83372 0.49656 0.0
H150 H 0.06867 0.91355 0.54808 0.0
H151 H 0.73674 0.64359 0.43578 0.0
H152 H 0.79942 0.74431 0.57913 0.0
H153 H 0.92062 0.97258 0.52885 0.0
H154 H 0.65264 0.60247 0.48449 0.0
H155 H 0.71222 0.7068 0.62407 0.0
C156 C 0.70162 0.81484 0.74283 0.0
C157 C 0.68127 0.84568 0.70221 0.0
C158 C 0.66772 0.78989 0.78492 0.0
C159 C 0.61207 0.79444 0.78728 0.0
C160 C 0.5892 0.81838 0.74164 0.0
C161 C 0.62357 0.84393 0.69953 0.0
C162 C 0.58421 0.78493 0.84177 0.0
C163 C 0.59996 0.74994 0.88106 0.0
C164 C 0.59893 0.75844 0.93852 0.0
C165 C 0.57037 0.7946 0.95653 0.0
C166 C 0.54749 0.82536 0.91748 0.0
C167 C 0.55543 0.82097 0.8603 0.0
C168 C 0.5272 0.87002 0.9375 0.0
C169 C 0.48329 0.86149 0.97418 0.0
C170 C 0.556 0.92212 0.92435 0.0
C171 C 0.54371 0.96482 0.95022 0.0
C172 C 0.5015 0.95636 0.98875 0.0
C173 C 0.64295 0.74347 0.97546 0.0
C174 C 0.65028 0.69194 0.97459 0.0
C175 C 0.68633 0.78413 0.99966 0.0
C176 C 0.73781 0.77459 1.01767 0.0
C177 C 0.74646 0.724 1.01299 0.0
C178 C 0.70154 0.68219 0.99373 0.0
C179 C 0.46995 0.90444 0.99902 0.0
H180 H 0.74568 0.81505 0.74649 0.0
H181 H 0.68805 0.77241 0.81874 0.0
H182 H 0.54605 0.82105 0.74065 0.0
H183 H 0.60613 0.86603 0.66761 0.0
H184 H 0.6218 0.72178 0.86752 0.0
H185 H 0.54381 0.84928 0.83139 0.0
H186 H 0.57087 0.80252 1.00084 0.0
H187 H 0.46067 0.82162 0.98504 0.0
H188 H 0.59041 0.92973 0.89665 0.0
H189 H 0.56894 1.00442 0.94198 0.0
H190 H 0.61789 0.66012 0.95538 0.0
H191 H 0.68244 0.82444 0.99984 0.0
H192 H 0.43773 0.89681 1.02917 0.0
H193 H 0.70748 0.64286 0.98951 0.0
H194 H 0.77192 0.80735 1.03242 0.0
C195 C 0.88791 0.22104 0.26978 0.0
C196 C 0.85658 0.24087 0.22795 0.0
C197 C 0.91853 0.25413 0.31153 0.0
C198 C 0.91908 0.30813 0.31203 0.0
C199 C 0.89401 0.32922 0.26575 0.0
C200 C 0.86265 0.29574 0.22411 0.0
C201 C 0.9339 0.33772 0.36556 0.0
C202 C 0.97392 0.32512 0.40389 0.0
C203 C 0.97089 0.33194 0.46135 0.0
C204 C 0.93434 0.36074 0.47956 0.0
C205 C 0.89622 0.37703 0.44148 0.0
C206 C 0.89683 0.36567 0.38445 0.0
C207 C 0.84834 0.3955 0.46164 0.0
C208 C 0.82063 0.37193 0.50908 0.0
C209 C 0.82611 0.43249 0.43051 0.0
C210 C 0.77653 0.44418 0.44535 0.0
C211 C 0.74843 0.41965 0.49205 0.0
C212 C 0.99007 0.29417 0.50006 0.0
C213 C 0.04247 0.28267 0.49569 0.0
C214 C 0.95021 0.26118 0.53332 0.0
C215 C 0.96071 0.21603 0.55841 0.0
C216 C 1.01162 0.20285 0.55168 0.0
C217 C 0.05348 0.23759 0.52203 0.0
C218 C 0.77155 0.3841 0.52423 0.0
H219 H 0.88499 0.17904 0.27286 0.0
H220 H 0.93675 0.23574 0.3462 0.0
H221 H 0.89467 0.37078 0.26413 0.0
H222 H 0.83932 0.3122 0.19183 0.0
H223 H 1.00138 0.30219 0.38992 0.0
H224 H 0.86364 0.37274 0.35601 0.0
H225 H 0.93207 0.36594 0.52405 0.0
H226 H 0.83528 0.3422 0.5333 0.0
H227 H 0.84649 0.45168 0.39399 0.0
H228 H 0.76003 0.47227 0.42019 0.0
H229 H 0.0738 0.30721 0.46995 0.0
H230 H 0.90904 0.26804 0.53684 0.0
H231 H 0.7505 0.3641 0.56006 0.0
H232 H 0.09344 0.22863 0.51703 0.0
H233 H 0.92815 0.19072 0.58226 0.0
C234 C 0.16645 0.63881 0.22779 0.0
C235 C 0.16274 0.64705 0.16949 0.0
C236 C 0.21659 0.6608 0.25986 0.0
C237 C 0.26433 0.69207 0.23458 0.0
C238 C 0.2608 0.69874 0.17594 0.0
C239 C 0.21089 0.67671 0.14402 0.0
C240 C 0.31668 0.71994 0.26879 0.0
C241 C 0.33798 0.69555 0.31521 0.0
C242 C 0.38708 0.72185 0.34771 0.0
C243 C 0.41638 0.7737 0.32979 0.0
C244 C 0.39658 0.7987 0.28202 0.0
C245 C 0.34558 0.77159 0.25411 0.0
C246 C 0.42771 0.85232 0.25874 0.0
C247 C 0.45885 0.89456 0.29273 0.0
C248 C 0.42391 0.86234 0.20054 0.0
C249 C 0.44705 0.91246 0.17767 0.0
C250 C 0.47693 0.95486 0.21138 0.0
C251 C 0.40702 0.69382 0.39899 0.0
C252 C 0.36877 0.65343 0.42767 0.0
C253 C 0.464 0.7053 0.41939 0.0
C254 C 0.48175 0.67674 0.46495 0.0
C255 C 0.44348 0.63491 0.49115 0.0
C256 C 0.38676 0.62412 0.47187 0.0
C257 C 0.48345 0.945 0.2693 0.0
H258 H 0.13011 0.6165 0.24893 0.0
H259 H 0.21723 0.65487 0.30476 0.0
H260 H 0.29667 0.72157 0.15447 0.0
H261 H 0.20975 0.68385 1.09929 0.0
H262 H 0.31658 0.6551 0.3248 0.0
H263 H 0.32744 0.7912 0.22038 0.0
H264 H 0.45455 0.79456 0.35257 0.0
H265 H 0.46316 0.88915 0.33756 0.0
H266 H 0.40269 0.83124 0.17184 0.0
H267 H 0.44186 0.91776 0.13288 0.0
H268 H 0.32424 0.64385 0.41626 0.0
H269 H 0.49558 0.73539 0.39935 0.0
H270 H 0.50657 0.97654 0.29664 0.0
H271 H 0.35584 0.59273 0.49121 0.0
H272 H 0.52592 0.68619 0.47833 0.0
C273 C 0.11012 0.2046 0.74941 0.0
C274 C 0.05168 0.19058 0.7376 0.0
C275 C 0.13737 0.25438 0.7726 0.0
C276 C 0.10686 0.29123 0.78549 0.0
C277 C 0.04817 0.27608 0.77573 0.0
C278 C 0.02118 0.22686 0.75178 0.0
C279 C 0.1365 0.34676 0.80381 0.0
C280 C 0.18338 0.37484 0.77531 0.0
C281 C 0.2122 0.42739 0.78895 0.0
C282 C 0.19168 0.45264 0.83195 0.0
C283 C 0.14434 0.42585 0.86167 0.0
C284 C 0.1173 0.37271 0.84704 0.0
C285 C 0.12337 0.45327 0.908 0.0
C286 C 0.11031 0.42816 0.96003 0.0
C287 C 0.11606 0.50484 0.90079 0.0
C288 C 0.09537 0.52987 0.94353 0.0
C289 C 0.08263 0.50483 0.99568 0.0
C290 C 0.2635 0.45474 0.75764 0.0
C291 C 0.29881 0.42535 0.73724 0.0
C292 C 0.27727 0.50961 0.74632 0.0
C293 C 0.32425 0.53384 0.71552 0.0
C294 C 0.35856 0.50394 0.69448 0.0
C295 C 0.34494 0.44935 0.70579 0.0
C296 C 0.09099 0.45369 1.00326 0.0
H297 H 0.13501 0.17796 0.73912 0.0
H298 H 0.18266 0.26443 0.77969 0.0
H299 H 0.02321 0.30325 0.78434 0.0
H300 H 0.97606 0.21763 0.74332 0.0
H301 H 0.19632 0.35577 0.74065 0.0
H302 H 0.08094 0.35165 0.869 0.0
H303 H 0.21344 0.49275 0.84358 0.0
H304 H 0.11565 0.38875 0.96764 0.0
H305 H 0.12534 0.5256 0.86148 0.0
H306 H 0.0897 0.56915 0.93577 0.0
H307 H 0.29147 0.38347 0.74608 0.0
H308 H 0.25136 0.53393 0.76046 0.0
H309 H 0.08154 0.43278 1.04246 0.0
H310 H 0.37081 0.42503 0.69144 0.0
H311 H 0.33342 0.57602 0.7078 0.0
Tb312 Tb 0.96469 1.05605 0.64938 0.0
Tb313 Tb 0.08757 0.07998 0.63794 0.0
C314 C 0.85933 1.02257 0.64666 0.0
C315 C 0.81224 0.97558 0.65058 0.0
C316 C 0.81892 0.92419 0.64678 0.0
C317 C 0.77406 0.88068 0.6578 0.0
C318 C 0.72237 0.88825 0.67343 0.0
C319 C 0.71514 0.93987 0.67272 0.0
C320 C 0.75969 0.98301 0.66142 0.0
C321 C 0.02143 0.14083 0.70735 0.0
C322 C 0.03468 0.98656 0.71561 0.0
C323 C 0.19288 0.11124 0.63764 0.0
C324 C 0.24184 0.15664 0.63422 0.0
C325 C 0.2381 0.20383 0.60739 0.0
C326 C 0.28716 0.24154 0.59409 0.0
C327 C 0.34029 0.23212 0.60707 0.0
C328 C 0.34361 0.187 0.63848 0.0
C329 C 0.29466 0.14957 0.65199 0.0
C330 C 0.02861 0.9961 0.57889 0.0
C331 C 0.01927 0.15291 0.57648 0.0
O332 O 0.88886 1.02726 0.60243 0.0
O333 O 0.89056 1.03719 0.69258 0.0
O334 O 0.03742 0.09903 0.70054 0.0
O335 O 0.97078 0.13322 0.68594 0.0
O336 O 0.985 0.98763 0.69222 0.0
O337 O 0.0798 1.02511 0.70741 0.0
O338 O 0.16523 0.10561 0.68318 0.0
O339 O 0.15988 0.09912 0.59234 0.0
O340 O 0.01475 1.03877 0.58597 0.0
O341 O 0.07828 1.00146 0.60209 0.0
O342 O 0.0689 0.15033 0.59856 0.0
O343 O 0.97369 0.11426 0.5829 0.0
H344 H 0.85923 0.91786 0.63767 0.0
H345 H 0.7808 0.84139 0.65726 0.0
H346 H 0.67654 0.94758 0.68528 0.0
H347 H 0.75384 1.02255 0.66401 0.0
H348 H 0.19755 0.20992 0.59356 0.0
H349 H 0.28332 0.27571 0.56932 0.0
H350 H 0.38395 0.1789 0.64906 0.0
H351 H 0.29814 0.11336 0.67304 0.0
Tb352 Tb 0.56126 0.08273 1.11753 0.0
Tb353 Tb 0.43694 1.06348 1.09951 0.0
C354 C 0.66566 0.10925 1.10626 0.0
C355 C 0.71715 0.13894 0.13666 0.0
C356 C 0.75436 0.17989 1.10875 0.0
C357 C 0.80091 0.21236 0.13775 0.0
C358 C 0.81119 0.20383 0.19497 0.0
C359 C 0.77465 0.16175 0.22239 0.0
C360 C 0.72791 0.12968 0.19356 0.0
C361 C 0.50121 1.0078 0.18439 0.0
C362 C 0.50001 0.1409 0.1933 0.0
C363 C 0.33204 1.03014 1.09898 0.0
C364 C 0.28754 0.98057 1.09525 0.0
C365 C 0.29518 0.93309 1.11879 0.0
C366 C 0.25236 0.88631 1.11271 0.0
C367 C 0.20149 0.88623 1.08249 0.0
C368 C 0.19337 0.93467 1.06168 0.0
C369 C 0.23592 0.98125 1.06811 0.0
C370 C 0.49531 0.15481 1.05539 0.0
C371 C 0.49822 1.00002 1.02531 0.0
O372 O 0.63146 0.13776 1.08912 0.0
O373 O 0.63902 1.06336 1.12659 0.0
O374 O 0.49078 1.01753 0.13375 0.0
O375 O 0.54888 1.0406 0.19955 0.0
O376 O 0.54734 0.14543 0.16849 0.0
O377 O 0.45511 0.10222 0.18042 0.0
O378 O 0.3652 1.03654 0.14458 0.0
O379 O 0.35915 1.04618 1.05359 0.0
O380 O 0.50771 0.11083 1.05723 0.0
O381 O 0.44621 0.14707 1.07503 0.0
O382 O 0.44937 1.00259 1.04373 0.0
O383 O 0.54639 1.03093 1.04512 0.0
H384 H 0.74646 0.18769 1.06478 0.0
H385 H 0.82832 0.2445 1.11572 0.0
H386 H 0.78084 0.15494 0.26682 0.0
H387 H 0.69946 0.09876 0.21614 0.0
H388 H 0.33456 0.93191 0.14071 0.0
H389 H 0.25996 0.84992 1.12972 0.0
H390 H 0.1555 0.93636 1.03718 0.0
H391 H 0.22909 1.01767 1.05028 0.0
Tb392 Tb 0.51892 0.62824 0.65207 0.0
Tb393 Tb 0.51106 0.53296 0.59132 0.0
C394 C 0.49113 0.70637 0.68869 0.0
C395 C 0.43915 0.70937 0.71451 0.0
C396 C 0.40644 0.74122 0.68954 0.0
C397 C 0.35335 0.73921 0.70839 0.0
C398 C 0.33216 0.7056 0.75297 0.0
C399 C 0.36554 0.67471 0.77893 0.0
C400 C 0.41839 0.67631 0.7597 0.0
C401 C 0.56838 0.56251 0.70937 0.0
C402 C 0.41031 0.52952 0.66423 0.0
C403 C 0.53623 0.45497 0.55045 0.0
C404 C 0.59042 0.44568 0.53575 0.0
C405 C 0.6341 0.44727 0.57684 0.0
C406 C 0.68536 0.43922 0.56248 0.0
C407 C 0.69442 0.42985 0.5067 0.0
C408 C 0.65095 0.42861 0.46551 0.0
C409 C 0.59933 0.43614 0.47998 0.0
C410 C 0.462 0.60029 0.5358 0.0
C411 C 0.62192 0.62873 0.58506 0.0
O412 O 0.48421 0.69265 0.63609 0.0
O413 O 0.52424 0.68216 0.71718 0.0
O414 O 0.52292 0.54998 0.67914 0.0
O415 O 0.58628 0.61375 0.70905 0.0
O416 O 0.43329 0.58088 0.67014 0.0
O417 O 0.43559 0.50005 0.63643 0.0
O418 O 0.52937 0.45955 0.60362 0.0
O419 O 0.51777 0.4897 0.52003 0.0
O420 O 0.5085 0.61143 0.56422 0.0
O421 O 0.44152 0.54935 0.53797 0.0
O422 O 0.5989 0.57735 0.58087 0.0
O423 O 0.59567 0.65988 0.60875 0.0
H424 H 0.4214 0.76672 0.65442 0.0
H425 H 0.32898 0.7642 0.68829 0.0
H426 H 0.35019 0.64834 0.81326 0.0
H427 H 0.4422 0.6506 0.77928 0.0
H428 H 0.62892 0.4549 0.62021 0.0
H429 H 0.71819 0.44076 0.59504 0.0
H430 H 0.6565 0.42082 0.42227 0.0
H431 H 0.56635 0.43458 0.44755 0.0
Tb432 Tb 1.0067 0.61896 1.08646 0.0
Tb433 Tb 0.01653 0.52678 0.16581 0.0
C434 C 0.96422 0.68092 1.02763 0.0
C435 C 0.91078 0.69601 1.02854 0.0
C436 C 0.86921 0.67001 1.0645 0.0
C437 C 0.81575 0.67946 1.06018 0.0
C438 C 0.80381 0.71637 1.02114 0.0
C439 C 0.84634 0.74421 0.98709 0.0
C440 C 0.8993 0.73372 0.99041 0.0
C441 C 0.10837 0.62848 0.13564 0.0
C442 C 0.96474 0.61524 0.2132 0.0
C443 C 0.05528 0.47025 0.23546 0.0
C444 C 0.10922 0.45786 0.24913 0.0
C445 C 0.16017 0.49167 0.23348 0.0
C446 C 0.21112 0.47922 0.24823 0.0
C447 C 0.21161 0.43254 0.27836 0.0
C448 C 0.16004 0.39815 0.29215 0.0
C449 C 0.10943 0.41089 0.27795 0.0
C450 C 0.91708 0.50244 1.10713 0.0
C451 C 0.05927 0.53091 1.04115 0.0
O452 O 0.95919 0.63149 1.01463 0.0
O453 O 1.00043 0.69649 1.07003 0.0
O454 O 0.06149 0.60804 0.15594 0.0
O455 O 0.09863 0.6482 1.08678 0.0
O456 O 0.9699 0.63854 0.16305 0.0
O457 O 0.97879 0.57006 0.22352 0.0
O458 O 0.05287 0.51852 0.24569 0.0
O459 O 0.03065 0.45301 0.18716 0.0
O460 O 0.95618 0.54417 1.10688 0.0
O461 O 0.93304 0.47238 0.14486 0.0
O462 O 0.06525 0.51583 1.09417 0.0
O463 O 0.0327 0.56797 1.02734 0.0
H464 H 0.87755 0.64122 1.09472 0.0
H465 H 0.78363 0.65769 1.08689 0.0
H466 H 0.83785 0.77262 0.9564 0.0
H467 H 0.93074 0.75402 0.96222 0.0
H468 H 0.16053 0.52775 0.21032 0.0
H469 H 0.25002 0.5066 0.23712 0.0
H470 H 0.15868 0.36122 0.31404 0.0
H471 H 0.07035 0.38403 0.28963 0.0
loop_
_geom_bond_atom_site_label_1
_geom_bond_atom_site_label_2
_geom_bond_distance
_geom_bond_site_symmetry_2
_ccdc_geom_bond_type
C0 C1 1.386 . S
C0 C2 1.397 . S
C0 H24 0.931 . S
C1 C0 1.386 . S
C1 C5 1.397 . S
C2 C0 1.397 . S
C2 C3 1.384 . S
C2 H25 0.930 . S
C3 C2 1.384 . S
C3 C4 1.377 . S
C3 C6 1.481 . S
C4 C3 1.377 . S
C4 C5 1.389 . S
C4 H26 0.929 . S
C5 C1 1.397 . S
C5 C4 1.389 . S
C5 H27 0.931 . S
C6 C3 1.481 . S
C6 C7 1.387 . S
C6 C11 1.390 . S
C7 C6 1.387 . S
C7 C8 1.401 . S
C7 H28 0.930 . S
C8 C7 1.401 . S
C8 C9 1.376 . S
C8 C17 1.511 . S
C9 C8 1.376 . S
C9 C10 1.392 . S
C9 H30 0.931 . S
C10 C9 1.392 . S
C10 C11 1.361 . S
C10 C12 1.500 . S
C11 C6 1.390 . S
C11 C10 1.361 . S
C11 H29 0.931 . S
C12 C10 1.500 . S
C12 C13 1.371 . S
C12 C14 1.365 . S
C13 C12 1.371 . S
C13 C23 1.386 . S
C13 H31 0.931 . S
C14 C12 1.365 . S
C14 C15 1.409 . S
C14 H32 0.929 . S
C15 C14 1.409 . S
C15 C16 1.380 . S
C15 H33 0.930 . S
C16 C15 1.380 . S
C16 C23 1.357 . S
C17 C8 1.511 . S
C17 C18 1.341 . S
C17 C19 1.371 . S
C18 C17 1.341 . S
C18 C22 1.394 . S
C18 H34 0.930 . S
C19 C17 1.371 . S
C19 C20 1.392 . S
C19 H35 0.931 . S
C20 C19 1.392 . S
C20 C21 1.331 . S
C20 H38 0.932 . S
C21 C20 1.331 . S
C21 C22 1.336 . S
C22 C18 1.394 . S
C22 C21 1.336 . S
C22 H37 0.929 . S
C23 C13 1.386 . S
C23 C16 1.357 . S
C23 H36 0.928 . S
H24 C0 0.931 . S
H25 C2 0.930 . S
H26 C4 0.929 . S
H27 C5 0.931 . S
H28 C7 0.930 . S
H29 C11 0.931 . S
H30 C9 0.931 . S
H31 C13 0.931 . S
H32 C14 0.929 . S
H33 C15 0.930 . S
H34 C18 0.930 . S
H35 C19 0.931 . S
H36 C23 0.928 . S
H37 C22 0.929 . S
H38 C20 0.932 . S
C39 C40 1.386 . S
C39 C41 1.397 . S
C39 H63 0.931 . S
C40 C39 1.386 . S
C40 C44 1.397 . S
C41 C39 1.397 . S
C41 C42 1.384 . S
C41 H64 0.930 . S
C42 C41 1.384 . S
C42 C43 1.377 . S
C42 C45 1.481 . S
C43 C42 1.377 . S
C43 C44 1.389 . S
C43 H65 0.929 . S
C44 C40 1.397 . S
C44 C43 1.389 . S
C44 H66 0.931 . S
C45 C42 1.481 . S
C45 C46 1.387 . S
C45 C50 1.390 . S
C46 C45 1.387 . S
C46 C47 1.401 . S
C46 H67 0.930 . S
C47 C46 1.401 . S
C47 C48 1.376 . S
C47 C56 1.511 1_455 S
C48 C47 1.376 . S
C48 C49 1.392 . S
C48 H69 0.931 . S
C49 C48 1.392 . S
C49 C50 1.361 . S
C49 C51 1.500 . S
C50 C45 1.390 . S
C50 C49 1.361 . S
C50 H68 0.931 . S
C51 C49 1.500 . S
C51 C52 1.371 . S
C51 C53 1.365 . S
C52 C51 1.371 . S
C52 C62 1.386 . S
C52 H70 0.931 . S
C53 C51 1.365 . S
C53 C54 1.409 . S
C53 H71 0.929 . S
C54 C53 1.409 . S
C54 C55 1.380 . S
C54 H72 0.930 . S
C55 C54 1.380 . S
C55 C62 1.357 . S
C56 C47 1.511 1_655 S
C56 C57 1.341 . S
C56 C58 1.371 . S
C57 C56 1.341 . S
C57 C61 1.394 . S
C57 H73 0.930 . S
C58 C56 1.371 . S
C58 C59 1.392 . S
C58 H74 0.931 . S
C59 C58 1.392 . S
C59 C60 1.331 . S
C59 H77 0.932 . S
C60 C59 1.331 . S
C60 C61 1.336 . S
C61 C57 1.394 . S
C61 C60 1.336 . S
C61 H76 0.929 . S
C62 C52 1.386 . S
C62 C55 1.357 . S
C62 H75 0.928 . S
H63 C39 0.931 . S
H64 C41 0.930 . S
H65 C43 0.929 . S
H66 C44 0.931 . S
H67 C46 0.930 . S
H68 C50 0.931 . S
H69 C48 0.931 . S
H70 C52 0.931 . S
H71 C53 0.929 . S
H72 C54 0.930 . S
H73 C57 0.930 . S
H74 C58 0.931 . S
H75 C62 0.928 . S
H76 C61 0.929 . S
H77 C59 0.932 . S
C78 C79 1.386 . S
C78 C80 1.397 . S
C78 H102 0.931 . S
C79 C78 1.386 . S
C79 C83 1.397 . S
C80 C78 1.397 . S
C80 C81 1.384 . S
C80 H103 0.930 . S
C81 C80 1.384 . S
C81 C82 1.377 . S
C81 C84 1.481 . S
C82 C81 1.377 . S
C82 C83 1.389 . S
C82 H104 0.929 . S
C83 C79 1.397 . S
C83 C82 1.389 . S
C83 H105 0.931 . S
C84 C81 1.481 . S
C84 C85 1.387 . S
C84 C89 1.390 . S
C85 C84 1.387 . S
C85 C86 1.401 . S
C85 H106 0.930 . S
C86 C85 1.401 . S
C86 C87 1.376 . S
C86 C95 1.511 . S
C87 C86 1.376 . S
C87 C88 1.392 . S
C87 H108 0.931 . S
C88 C87 1.392 . S
C88 C89 1.361 . S
C88 C90 1.500 . S
C89 C84 1.390 . S
C89 C88 1.361 . S
C89 H107 0.931 . S
C90 C88 1.500 . S
C90 C91 1.371 . S
C90 C92 1.365 . S
C91 C90 1.371 . S
C91 C101 1.386 . S
C91 H109 0.931 . S
C92 C90 1.365 . S
C92 C93 1.409 . S
C92 H110 0.929 . S
C93 C92 1.409 . S
C93 C94 1.380 . S
C93 H111 0.930 . S
C94 C93 1.380 . S
C94 C101 1.357 . S
C95 C86 1.511 . S
C95 C96 1.341 . S
C95 C97 1.371 . S
C96 C95 1.341 . S
C96 C100 1.394 . S
C96 H112 0.930 . S
C97 C95 1.371 . S
C97 C98 1.392 . S
C97 H113 0.931 . S
C98 C97 1.392 . S
C98 C99 1.331 . S
C98 H116 0.932 . S
C99 C98 1.331 . S
C99 C100 1.336 . S
C100 C96 1.394 . S
C100 C99 1.336 . S
C100 H115 0.929 . S
C101 C91 1.386 . S
C101 C94 1.357 . S
C101 H114 0.928 . S
H102 C78 0.931 . S
H103 C80 0.930 . S
H104 C82 0.929 . S
H105 C83 0.931 . S
H106 C85 0.930 . S
H107 C89 0.931 . S
H108 C87 0.931 . S
H109 C91 0.931 . S
H110 C92 0.929 . S
H111 C93 0.930 . S
H112 C96 0.930 . S
H113 C97 0.931 . S
H114 C101 0.928 . S
H115 C100 0.929 . S
H116 C98 0.932 . S
C117 C118 1.386 . S
C117 C119 1.397 . S
C117 H141 0.931 . S
C118 C117 1.386 . S
C118 C122 1.397 . S
C119 C117 1.397 . S
C119 C120 1.384 . S
C119 H142 0.930 . S
C120 C119 1.384 . S
C120 C121 1.377 . S
C120 C123 1.481 . S
C121 C120 1.377 . S
C121 C122 1.389 . S
C121 H143 0.929 . S
C122 C118 1.397 . S
C122 C121 1.389 . S
C122 H144 0.931 . S
C123 C120 1.481 . S
C123 C124 1.387 . S
C123 C128 1.390 . S
C124 C123 1.387 . S
C124 C125 1.401 . S
C124 H145 0.930 . S
C125 C124 1.401 . S
C125 C126 1.376 . S
C125 C134 1.511 . S
C126 C125 1.376 . S
C126 C127 1.392 . S
C126 H147 0.931 . S
C127 C126 1.392 . S
C127 C128 1.361 . S
C127 C129 1.500 . S
C128 C123 1.390 . S
C128 C127 1.361 . S
C128 H146 0.931 . S
C129 C127 1.500 . S
C129 C130 1.371 . S
C129 C131 1.365 . S
C130 C129 1.371 . S
C130 C140 1.386 . S
C130 H148 0.931 . S
C131 C129 1.365 . S
C131 C132 1.409 . S
C131 H149 0.929 . S
C132 C131 1.409 . S
C132 C133 1.380 . S
C132 H150 0.930 1_655 S
C133 C132 1.380 . S
C133 C140 1.357 . S
C134 C125 1.511 . S
C134 C135 1.341 . S
C134 C136 1.371 . S
C135 C134 1.341 . S
C135 C139 1.394 . S
C135 H151 0.930 . S
C136 C134 1.371 . S
C136 C137 1.392 . S
C136 H152 0.931 . S
C137 C136 1.392 . S
C137 C138 1.331 . S
C137 H155 0.932 . S
C138 C137 1.331 . S
C138 C139 1.336 . S
C139 C135 1.394 . S
C139 C138 1.336 . S
C139 H154 0.929 . S
C140 C130 1.386 . S
C140 C133 1.357 . S
C140 H153 0.928 . S
H141 C117 0.931 . S
H142 C119 0.930 . S
H143 C121 0.929 . S
H144 C122 0.931 . S
H145 C124 0.930 . S
H146 C128 0.931 . S
H147 C126 0.931 . S
H148 C130 0.931 . S
H149 C131 0.929 . S
H150 C132 0.930 1_455 S
H151 C135 0.930 . S
H152 C136 0.931 . S
H153 C140 0.928 . S
H154 C139 0.929 . S
H155 C137 0.932 . S
C156 C157 1.386 . S
C156 C158 1.397 . S
C156 H180 0.931 . S
C157 C156 1.386 . S
C157 C161 1.397 . S
C158 C156 1.397 . S
C158 C159 1.384 . S
C158 H181 0.930 . S
C159 C158 1.384 . S
C159 C160 1.377 . S
C159 C162 1.481 . S
C160 C159 1.377 . S
C160 C161 1.389 . S
C160 H182 0.929 . S
C161 C157 1.397 . S
C161 C160 1.389 . S
C161 H183 0.931 . S
C162 C159 1.481 . S
C162 C163 1.387 . S
C162 C167 1.390 . S
C163 C162 1.387 . S
C163 C164 1.401 . S
C163 H184 0.930 . S
C164 C163 1.401 . S
C164 C165 1.376 . S
C164 C173 1.511 . S
C165 C164 1.376 . S
C165 C166 1.392 . S
C165 H186 0.931 . S
C166 C165 1.392 . S
C166 C167 1.361 . S
C166 C168 1.500 . S
C167 C162 1.390 . S
C167 C166 1.361 . S
C167 H185 0.931 . S
C168 C166 1.500 . S
C168 C169 1.371 . S
C168 C170 1.365 . S
C169 C168 1.371 . S
C169 C179 1.386 . S
C169 H187 0.931 . S
C170 C168 1.365 . S
C170 C171 1.409 . S
C170 H188 0.929 . S
C171 C170 1.409 . S
C171 C172 1.380 . S
C171 H189 0.930 . S
C172 C171 1.380 . S
C172 C179 1.357 . S
C173 C164 1.511 . S
C173 C174 1.341 . S
C173 C175 1.371 . S
C174 C173 1.341 . S
C174 C178 1.394 . S
C174 H190 0.930 . S
C175 C173 1.371 . S
C175 C176 1.392 . S
C175 H191 0.931 . S
C176 C175 1.392 . S
C176 C177 1.331 . S
C176 H194 0.932 . S
C177 C176 1.331 . S
C177 C178 1.336 . S
C178 C174 1.394 . S
C178 C177 1.336 . S
C178 H193 0.929 . S
C179 C169 1.386 . S
C179 C172 1.357 . S
C179 H192 0.928 . S
H180 C156 0.931 . S
H181 C158 0.930 . S
H182 C160 0.929 . S
H183 C161 0.931 . S
H184 C163 0.930 . S
H185 C167 0.931 . S
H186 C165 0.931 . S
H187 C169 0.931 . S
H188 C170 0.929 . S
H189 C171 0.930 . S
H190 C174 0.930 . S
H191 C175 0.931 . S
H192 C179 0.928 . S
H193 C178 0.929 . S
H194 C176 0.932 . S
C195 C196 1.386 . S
C195 C197 1.397 . S
C195 H219 0.931 . S
C196 C195 1.386 . S
C196 C200 1.397 . S
C197 C195 1.397 . S
C197 C198 1.384 . S
C197 H220 0.930 . S
C198 C197 1.384 . S
C198 C199 1.377 . S
C198 C201 1.481 . S
C199 C198 1.377 . S
C199 C200 1.389 . S
C199 H221 0.929 . S
C200 C196 1.397 . S
C200 C199 1.389 . S
C200 H222 0.931 . S
C201 C198 1.481 . S
C201 C202 1.387 . S
C201 C206 1.390 . S
C202 C201 1.387 . S
C202 C203 1.401 . S
C202 H223 0.930 . S
C203 C202 1.401 . S
C203 C204 1.376 . S
C203 C212 1.511 1_655 S
C204 C203 1.376 . S
C204 C205 1.392 . S
C204 H225 0.931 . S
C205 C204 1.392 . S
C205 C206 1.361 . S
C205 C207 1.500 . S
C206 C201 1.390 . S
C206 C205 1.361 . S
C206 H224 0.931 . S
C207 C205 1.500 . S
C207 C208 1.371 . S
C207 C209 1.365 . S
C208 C207 1.371 . S
C208 C218 1.386 . S
C208 H226 0.931 . S
C209 C207 1.365 . S
C209 C210 1.409 . S
C209 H227 0.929 . S
C210 C209 1.409 . S
C210 C211 1.380 . S
C210 H228 0.930 . S
C211 C210 1.380 . S
C211 C218 1.357 . S
C212 C203 1.511 1_455 S
C212 C213 1.341 . S
C212 C214 1.371 . S
C213 C212 1.341 . S
C213 C217 1.394 . S
C213 H229 0.930 1_455 S
C214 C212 1.371 . S
C214 C215 1.392 . S
C214 H230 0.931 . S
C215 C214 1.392 . S
C215 C216 1.331 . S
C215 H233 0.932 . S
C216 C215 1.331 . S
C216 C217 1.336 . S
C217 C213 1.394 . S
C217 C216 1.336 . S
C217 H232 0.929 . S
C218 C208 1.386 . S
C218 C211 1.357 . S
C218 H231 0.928 . S
H219 C195 0.931 . S
H220 C197 0.930 . S
H221 C199 0.929 . S
H222 C200 0.931 . S
H223 C202 0.930 . S
H224 C206 0.931 . S
H225 C204 0.931 . S
H226 C208 0.931 . S
H227 C209 0.929 . S
H228 C210 0.930 . S
H229 C213 0.930 1_655 S
H230 C214 0.931 . S
H231 C218 0.928 . S
H232 C217 0.929 . S
H233 C215 0.932 . S
C234 C235 1.386 . S
C234 C236 1.397 . S
C234 H258 0.931 . S
C235 C234 1.386 . S
C235 C239 1.397 . S
C236 C234 1.397 . S
C236 C237 1.384 . S
C236 H259 0.930 . S
C237 C236 1.384 . S
C237 C238 1.377 . S
C237 C240 1.481 . S
C238 C237 1.377 . S
C238 C239 1.389 . S
C238 H260 0.929 . S
C239 C235 1.397 . S
C239 C238 1.389 . S
C239 H261 0.931 . S
C240 C237 1.481 . S
C240 C241 1.387 . S
C240 C245 1.390 . S
C241 C240 1.387 . S
C241 C242 1.401 . S
C241 H262 0.930 . S
C242 C241 1.401 . S
C242 C243 1.376 . S
C242 C251 1.511 . S
C243 C242 1.376 . S
C243 C244 1.392 . S
C243 H264 0.931 . S
C244 C243 1.392 . S
C244 C245 1.361 . S
C244 C246 1.500 . S
C245 C240 1.390 . S
C245 C244 1.361 . S
C245 H263 0.931 . S
C246 C244 1.500 . S
C246 C247 1.371 . S
C246 C248 1.365 . S
C247 C246 1.371 . S
C247 C257 1.386 . S
C247 H265 0.931 . S
C248 C246 1.365 . S
C248 C249 1.409 . S
C248 H266 0.929 . S
C249 C248 1.409 . S
C249 C250 1.380 . S
C249 H267 0.930 . S
C250 C249 1.380 . S
C250 C257 1.357 . S
C251 C242 1.511 . S
C251 C252 1.341 . S
C251 C253 1.371 . S
C252 C251 1.341 . S
C252 C256 1.394 . S
C252 H268 0.930 . S
C253 C251 1.371 . S
C253 C254 1.392 . S
C253 H269 0.931 . S
C254 C253 1.392 . S
C254 C255 1.331 . S
C254 H272 0.932 . S
C255 C254 1.331 . S
C255 C256 1.336 . S
C256 C252 1.394 . S
C256 C255 1.336 . S
C256 H271 0.929 . S
C257 C247 1.386 . S
C257 C250 1.357 . S
C257 H270 0.928 . S
H258 C234 0.931 . S
H259 C236 0.930 . S
H260 C238 0.929 . S
H261 C239 0.931 . S
H262 C241 0.930 . S
H263 C245 0.931 . S
H264 C243 0.931 . S
H265 C247 0.931 . S
H266 C248 0.929 . S
H267 C249 0.930 . S
H268 C252 0.930 . S
H269 C253 0.931 . S
H270 C257 0.928 . S
H271 C256 0.929 . S
H272 C254 0.932 . S
C273 C274 1.386 . S
C273 C275 1.397 . S
C273 H297 0.931 . S
C274 C273 1.386 . S
C274 C278 1.397 . S
C275 C273 1.397 . S
C275 C276 1.384 . S
C275 H298 0.930 . S
C276 C275 1.384 . S
C276 C277 1.377 . S
C276 C279 1.481 . S
C277 C276 1.377 . S
C277 C278 1.389 . S
C277 H299 0.929 . S
C278 C274 1.397 . S
C278 C277 1.389 . S
C278 H300 0.931 1_455 S
C279 C276 1.481 . S
C279 C280 1.387 . S
C279 C284 1.390 . S
C280 C279 1.387 . S
C280 C281 1.401 . S
C280 H301 0.930 . S
C281 C280 1.401 . S
C281 C282 1.376 . S
C281 C290 1.511 . S
C282 C281 1.376 . S
C282 C283 1.392 . S
C282 H303 0.931 . S
C283 C282 1.392 . S
C283 C284 1.361 . S
C283 C285 1.500 . S
C284 C279 1.390 . S
C284 C283 1.361 . S
C284 H302 0.931 . S
C285 C283 1.500 . S
C285 C286 1.371 . S
C285 C287 1.365 . S
C286 C285 1.371 . S
C286 C296 1.386 . S
C286 H304 0.931 . S
C287 C285 1.365 . S
C287 C288 1.409 . S
C287 H305 0.929 . S
C288 C287 1.409 . S
C288 C289 1.380 . S
C288 H306 0.930 . S
C289 C288 1.380 . S
C289 C296 1.357 . S
C290 C281 1.511 . S
C290 C291 1.341 . S
C290 C292 1.371 . S
C291 C290 1.341 . S
C291 C295 1.394 . S
C291 H307 0.930 . S
C292 C290 1.371 . S
C292 C293 1.392 . S
C292 H308 0.931 . S
C293 C292 1.392 . S
C293 C294 1.331 . S
C293 H311 0.932 . S
C294 C293 1.331 . S
C294 C295 1.336 . S
C295 C291 1.394 . S
C295 C294 1.336 . S
C295 H310 0.929 . S
C296 C286 1.386 . S
C296 C289 1.357 . S
C296 H309 0.928 . S
H297 C273 0.931 . S
H298 C275 0.930 . S
H299 C277 0.929 . S
H300 C278 0.931 1_655 S
H301 C280 0.930 . S
H302 C284 0.931 . S
H303 C282 0.931 . S
H304 C286 0.931 . S
H305 C287 0.929 . S
H306 C288 0.930 . S
H307 C291 0.930 . S
H308 C292 0.931 . S
H309 C296 0.928 . S
H310 C295 0.929 . S
H311 C293 0.932 . S
Tb312 C314 2.809 1_545 S
Tb312 O332 2.484 1_545 S
Tb312 O333 2.440 1_545 S
Tb312 O334 2.658 1_655 S
Tb312 O335 2.409 . S
Tb312 O336 2.378 1_545 S
Tb312 O340 2.325 1_545 S
Tb312 O343 2.341 . S
Tb313 C323 2.809 . S
Tb313 O334 2.325 . S
Tb313 O337 2.341 1_545 S
Tb313 O338 2.484 . S
Tb313 O339 2.440 . S
Tb313 O340 2.658 1_445 S
Tb313 O341 2.409 1_545 S
Tb313 O342 2.378 . S
C314 Tb312 2.809 1_565 S
C314 C315 1.514 . S
C314 O332 1.248 . S
C314 O333 1.266 . S
C315 C314 1.514 . S
C315 C316 1.359 . S
C315 C320 1.348 . S
C316 C315 1.359 . S
C316 C317 1.380 . S
C316 H344 0.929 . S
C317 C316 1.380 . S
C317 C318 1.347 . S
C317 H345 0.931 . S
C318 C317 1.347 . S
C318 C319 1.369 . S
C319 C318 1.369 . S
C319 C320 1.408 . S
C319 H346 0.930 . S
C320 C315 1.348 . S
C320 C319 1.408 . S
C320 H347 0.930 . S
C321 O334 1.281 . S
C321 O335 1.254 1_455 S
C322 O336 1.236 1_455 S
C322 O337 1.266 . S
C323 Tb313 2.809 . S
C323 C324 1.514 . S
C323 O338 1.248 . S
C323 O339 1.266 . S
C324 C323 1.514 . S
C324 C325 1.359 . S
C324 C329 1.348 . S
C325 C324 1.359 . S
C325 C326 1.380 . S
C325 H348 0.929 . S
C326 C325 1.380 . S
C326 C327 1.347 . S
C326 H349 0.931 . S
C327 C326 1.347 . S
C327 C328 1.369 . S
C328 C327 1.369 . S
C328 C329 1.408 . S
C328 H350 0.930 . S
C329 C324 1.348 . S
C329 C328 1.408 . S
C329 H351 0.930 . S
C330 O340 1.281 . S
C330 O341 1.254 1_655 S
C331 O342 1.236 1_655 S
C331 O343 1.266 . S
O332 Tb312 2.484 1_565 S
O332 C314 1.248 . S
O333 Tb312 2.440 1_565 S
O333 C314 1.266 . S
O334 Tb312 2.658 1_455 S
O334 Tb313 2.325 . S
O334 C321 1.281 . S
O335 Tb312 2.409 . S
O335 C321 1.254 1_655 S
O336 Tb312 2.378 1_565 S
O336 C322 1.236 1_655 S
O337 Tb313 2.341 1_565 S
O337 C322 1.266 . S
O338 Tb313 2.484 . S
O338 C323 1.248 . S
O339 Tb313 2.440 . S
O339 C323 1.266 . S
O340 Tb312 2.325 1_565 S
O340 Tb313 2.658 1_665 S
O340 C330 1.281 . S
O341 Tb313 2.409 1_565 S
O341 C330 1.254 1_455 S
O342 Tb313 2.378 . S
O342 C331 1.236 1_455 S
O343 Tb312 2.341 . S
O343 C331 1.266 . S
H344 C316 0.929 . S
H345 C317 0.931 . S
H346 C319 0.930 . S
H347 C320 0.930 . S
H348 C325 0.929 . S
H349 C326 0.931 . S
H350 C328 0.930 . S
H351 C329 0.930 . S
Tb352 C354 2.809 . S
Tb352 O372 2.484 . S
Tb352 O373 2.440 . S
Tb352 O374 2.658 1_545 S
Tb352 O375 2.409 1_545 S
Tb352 O376 2.378 . S
Tb352 O380 2.325 1_554 S
Tb352 O383 2.341 1_544 S
Tb353 C363 2.809 . S
Tb353 O374 2.325 1_556 S
Tb353 O377 2.341 1_566 S
Tb353 O378 2.484 . S
Tb353 O379 2.440 . S
Tb353 O380 2.658 1_565 S
Tb353 O381 2.409 1_565 S
Tb353 O382 2.378 . S
C354 Tb352 2.809 . S
C354 C355 1.514 . S
C354 O372 1.248 . S
C354 O373 1.266 . S
C355 C354 1.514 . S
C355 C356 1.359 . S
C355 C360 1.348 . S
C356 C355 1.359 . S
C356 C357 1.380 . S
C356 H384 0.929 . S
C357 C356 1.380 . S
C357 C358 1.347 . S
C357 H385 0.931 . S
C358 C357 1.347 . S
C358 C359 1.369 . S
C359 C358 1.369 . S
C359 C360 1.408 . S
C359 H386 0.930 . S
C360 C355 1.348 . S
C360 C359 1.408 . S
C360 H387 0.930 . S
C361 O374 1.281 . S
C361 O375 1.254 . S
C362 O376 1.236 . S
C362 O377 1.266 . S
C363 Tb353 2.809 . S
C363 C364 1.514 . S
C363 O378 1.248 . S
C363 O379 1.266 . S
C364 C363 1.514 . S
C364 C365 1.359 . S
C364 C369 1.348 . S
C365 C364 1.359 . S
C365 C366 1.380 . S
C365 H388 0.929 . S
C366 C365 1.380 . S
C366 C367 1.347 . S
C366 H389 0.931 . S
C367 C366 1.347 . S
C367 C368 1.369 . S
C368 C367 1.369 . S
C368 C369 1.408 . S
C368 H390 0.930 . S
C369 C364 1.348 . S
C369 C368 1.408 . S
C369 H391 0.930 . S
C370 O380 1.281 . S
C370 O381 1.254 . S
C371 O382 1.236 . S
C371 O383 1.266 . S
O372 Tb352 2.484 . S
O372 C354 1.248 . S
O373 Tb352 2.440 . S
O373 C354 1.266 . S
O374 Tb352 2.658 1_565 S
O374 Tb353 2.325 1_554 S
O374 C361 1.281 . S
O375 Tb352 2.409 1_565 S
O375 C361 1.254 . S
O376 Tb352 2.378 . S
O376 C362 1.236 . S
O377 Tb353 2.341 1_544 S
O377 C362 1.266 . S
O378 Tb353 2.484 . S
O378 C363 1.248 . S
O379 Tb353 2.440 . S
O379 C363 1.266 . S
O380 Tb352 2.325 1_556 S
O380 Tb353 2.658 1_545 S
O380 C370 1.281 . S
O381 Tb353 2.409 1_545 S
O381 C370 1.254 . S
O382 Tb353 2.378 . S
O382 C371 1.236 . S
O383 Tb352 2.341 1_566 S
O383 C371 1.266 . S
H384 C356 0.929 . S
H385 C357 0.931 . S
H386 C359 0.930 . S
H387 C360 0.930 . S
H388 C365 0.929 . S
H389 C366 0.931 . S
H390 C368 0.930 . S
H391 C369 0.930 . S
Tb392 C394 2.809 . S
Tb392 O412 2.484 . S
Tb392 O413 2.440 . S
Tb392 O414 2.658 . S
Tb392 O415 2.409 . S
Tb392 O416 2.378 . S
Tb392 O420 2.325 . S
Tb392 O423 2.341 . S
Tb393 C403 2.809 . S
Tb393 O414 2.325 . S
Tb393 O417 2.341 . S
Tb393 O418 2.484 . S
Tb393 O419 2.440 . S
Tb393 O420 2.658 . S
Tb393 O421 2.409 . S
Tb393 O422 2.378 . S
C394 Tb392 2.809 . S
C394 C395 1.514 . S
C394 O412 1.248 . S
C394 O413 1.266 . S
C395 C394 1.514 . S
C395 C396 1.359 . S
C395 C400 1.348 . S
C396 C395 1.359 . S
C396 C397 1.380 . S
C396 H424 0.929 . S
C397 C396 1.380 . S
C397 C398 1.347 . S
C397 H425 0.931 . S
C398 C397 1.347 . S
C398 C399 1.369 . S
C399 C398 1.369 . S
C399 C400 1.408 . S
C399 H426 0.930 . S
C400 C395 1.348 . S
C400 C399 1.408 . S
C400 H427 0.930 . S
C401 O414 1.281 . S
C401 O415 1.254 . S
C402 O416 1.236 . S
C402 O417 1.266 . S
C403 Tb393 2.809 . S
C403 C404 1.514 . S
C403 O418 1.248 . S
C403 O419 1.266 . S
C404 C403 1.514 . S
C404 C405 1.359 . S
C404 C409 1.348 . S
C405 C404 1.359 . S
C405 C406 1.380 . S
C405 H428 0.929 . S
C406 C405 1.380 . S
C406 C407 1.347 . S
C406 H429 0.931 . S
C407 C406 1.347 . S
C407 C408 1.369 . S
C408 C407 1.369 . S
C408 C409 1.408 . S
C408 H430 0.930 . S
C409 C404 1.348 . S
C409 C408 1.408 . S
C409 H431 0.930 . S
C410 O420 1.281 . S
C410 O421 1.254 . S
C411 O422 1.236 . S
C411 O423 1.266 . S
O412 Tb392 2.484 . S
O412 C394 1.248 . S
O413 Tb392 2.440 . S
O413 C394 1.266 . S
O414 Tb392 2.658 . S
O414 Tb393 2.325 . S
O414 C401 1.281 . S
O415 Tb392 2.409 . S
O415 C401 1.254 . S
O416 Tb392 2.378 . S
O416 C402 1.236 . S
O417 Tb393 2.341 . S
O417 C402 1.266 . S
O418 Tb393 2.484 . S
O418 C403 1.248 . S
O419 Tb393 2.440 . S
O419 C403 1.266 . S
O420 Tb392 2.325 . S
O420 Tb393 2.658 . S
O420 C410 1.281 . S
O421 Tb393 2.409 . S
O421 C410 1.254 . S
O422 Tb393 2.378 . S
O422 C411 1.236 . S
O423 Tb392 2.341 . S
O423 C411 1.266 . S
H424 C396 0.929 . S
H425 C397 0.931 . S
H426 C399 0.930 . S
H427 C400 0.930 . S
H428 C405 0.929 . S
H429 C406 0.931 . S
H430 C408 0.930 . S
H431 C409 0.930 . S
Tb432 C434 2.809 . S
Tb432 O452 2.484 . S
Tb432 O453 2.440 . S
Tb432 O454 2.658 1_656 S
Tb432 O455 2.409 1_656 S
Tb432 O456 2.378 1_556 S
Tb432 O460 2.325 . S
Tb432 O463 2.341 1_655 S
Tb433 C443 2.809 . S
Tb433 O454 2.325 . S
Tb433 O457 2.341 1_455 S
Tb433 O458 2.484 . S
Tb433 O459 2.440 . S
Tb433 O460 2.658 1_454 S
Tb433 O461 2.408 1_455 S
Tb433 O462 2.378 1_554 S
C434 Tb432 2.809 . S
C434 C435 1.514 . S
C434 O452 1.248 . S
C434 O453 1.266 . S
C435 C434 1.514 . S
C435 C436 1.359 . S
C435 C440 1.348 . S
C436 C435 1.359 . S
C436 C437 1.380 . S
C436 H464 0.929 . S
C437 C436 1.380 . S
C437 C438 1.347 . S
C437 H465 0.931 . S
C438 C437 1.347 . S
C438 C439 1.369 . S
C439 C438 1.369 . S
C439 C440 1.408 . S
C439 H466 0.930 . S
C440 C435 1.348 . S
C440 C439 1.408 . S
C440 H467 0.930 . S
C441 O454 1.281 . S
C441 O455 1.254 . S
C442 O456 1.236 . S
C442 O457 1.266 . S
C443 Tb433 2.809 . S
C443 C444 1.514 . S
C443 O458 1.248 . S
C443 O459 1.266 . S
C444 C443 1.514 . S
C444 C445 1.359 . S
C444 C449 1.348 . S
C445 C444 1.359 . S
C445 C446 1.380 . S
C445 H468 0.929 . S
C446 C445 1.380 . S
C446 C447 1.347 . S
C446 H469 0.931 . S
C447 C446 1.347 . S
C447 C448 1.369 . S
C448 C447 1.369 . S
C448 C449 1.408 . S
C448 H470 0.930 . S
C449 C444 1.348 . S
C449 C448 1.408 . S
C449 H471 0.930 . S
C450 O460 1.281 . S
C450 O461 1.254 1_556 S
C451 O462 1.236 . S
C451 O463 1.266 . S
O452 Tb432 2.484 . S
O452 C434 1.248 . S
O453 Tb432 2.440 . S
O453 C434 1.266 . S
O454 Tb432 2.658 1_454 S
O454 Tb433 2.325 . S
O454 C441 1.281 . S
O455 Tb432 2.409 1_454 S
O455 C441 1.254 . S
O456 Tb432 2.378 1_554 S
O456 C442 1.236 . S
O457 Tb433 2.341 1_655 S
O457 C442 1.266 . S
O458 Tb433 2.484 . S
O458 C443 1.248 . S
O459 Tb433 2.440 . S
O459 C443 1.266 . S
O460 Tb432 2.325 . S
O460 Tb433 2.658 1_656 S
O460 C450 1.281 . S
O461 Tb433 2.408 1_655 S
O461 C450 1.254 1_554 S
O462 Tb433 2.378 1_556 S
O462 C451 1.236 . S
O463 Tb432 2.341 1_455 S
O463 C451 1.266 . S
H464 C436 0.929 . S
H465 C437 0.931 . S
H466 C439 0.930 . S
H467 C440 0.930 . S
H468 C445 0.929 . S
H469 C446 0.931 . S
H470 C448 0.930 . S
H471 C449 0.930 . S
C1 C327 2.266 . S
C40 C367 2.703 . S
C401 C99 3.613 . S
C118 C442 3.808 . S
C362 C16 3.066 . S
C322 C60 4.359 1_455 S
C450 C79 2.453 . S
C411 C138 2.706 . S
C21 C447 3.780 . S
C370 C94 2.924 . S
C133 C330 3.455 . S
C55 C398 3.279 . S
C318 C157 2.289 . S
C196 C358 2.679 . S
C255 C410 3.628 . S
C289 C451 3.801 . S
C172 C371 3.046 . S
C331 C216 4.300 1_655 S
C441 C235 2.458 . S
C402 C294 2.717 . S
C177 C438 3.827 . S
C361 C250 2.923 . S
C321 C274 3.458 . S
C211 C407 3.299 . S
