# Generated by pormake.
# Topology zzz, (3,6)-cn, num edge types: 1
# Building blocks:
#     Node 0, Type 0, BuildingBlock: PAMTOO_clean_linker_0, # of connection points: 3
#     Node 1, Type 0, BuildingBlock: PAMTOO_clean_linker_0, # of connection points: 3
#     Node 2, Type 0, BuildingBlock: PAMTOO_clean_linker_0, # of connection points: 3
#     Node 3, Type 0, BuildingBlock: PAMTOO_clean_linker_0, # of connection points: 3
#     Node 4, Type 0, BuildingBlock: PAMTOO_clean_linker_0, # of connection points: 3
#     Node 5, Type 0, BuildingBlock: PAMTOO_clean_linker_0, # of connection points: 3
#     Node 6, Type 0, BuildingBlock: PAMTOO_clean_linker_0, # of connection points: 3
#     Node 7, Type 0, BuildingBlock: PAMTOO_clean_linker_0, # of connection points: 3
#     Node 8, Type 1, BuildingBlock: CUKXOW_clean_sbu_0, # of connection points: 6
#     Node 9, Type 1, BuildingBlock: CUKXOW_clean_sbu_0, # of connection points: 6
#     Node 10, Type 1, BuildingBlock: CUKXOW_clean_sbu_0, # of connection points: 6
#     Node 11, Type 1, BuildingBlock: CUKXOW_clean_sbu_0, # of connection points: 6
#     Edge 12, Type (0, 1), BuildingBlock: AJUNOK_clean_linker_0, # of connection points: 2
#     Edge 13, Type (0, 1), BuildingBlock: AJUNOK_clean_linker_0, # of connection points: 2
#     Edge 14, Type (0, 1), BuildingBlock: AJUNOK_clean_linker_0, # of connection points: 2
#     Edge 15, Type (0, 1), BuildingBlock: AJUNOK_clean_linker_0, # of connection points: 2
#     Edge 16, Type (0, 1), BuildingBlock: AJUNOK_clean_linker_0, # of connection points: 2
#     Edge 17, Type (0, 1), BuildingBlock: AJUNOK_clean_linker_0, # of connection points: 2
#     Edge 18, Type (0, 1), BuildingBlock: AJUNOK_clean_linker_0, # of connection points: 2
#     Edge 19, Type (0, 1), BuildingBlock: AJUNOK_clean_linker_0, # of connection points: 2
#     Edge 20, Type (0, 1), BuildingBlock: AJUNOK_clean_linker_0, # of connection points: 2
#     Edge 21, Type (0, 1), BuildingBlock: AJUNOK_clean_linker_0, # of connection points: 2
#     Edge 22, Type (0, 1), BuildingBlock: AJUNOK_clean_linker_0, # of connection points: 2
#     Edge 23, Type (0, 1), BuildingBlock: AJUNOK_clean_linker_0, # of connection points: 2
#     Edge 24, Type (0, 1), BuildingBlock: AJUNOK_clean_linker_0, # of connection points: 2
#     Edge 25, Type (0, 1), BuildingBlock: AJUNOK_clean_linker_0, # of connection points: 2
#     Edge 26, Type (0, 1), BuildingBlock: AJUNOK_clean_linker_0, # of connection points: 2
#     Edge 27, Type (0, 1), BuildingBlock: AJUNOK_clean_linker_0, # of connection points: 2
#     Edge 28, Type (0, 1), BuildingBlock: AJUNOK_clean_linker_0, # of connection points: 2
#     Edge 29, Type (0, 1), BuildingBlock: AJUNOK_clean_linker_0, # of connection points: 2
#     Edge 30, Type (0, 1), BuildingBlock: AJUNOK_clean_linker_0, # of connection points: 2
#     Edge 31, Type (0, 1), BuildingBlock: AJUNOK_clean_linker_0, # of connection points: 2
#     Edge 32, Type (0, 1), BuildingBlock: AJUNOK_clean_linker_0, # of connection points: 2
#     Edge 33, Type (0, 1), BuildingBlock: AJUNOK_clean_linker_0, # of connection points: 2
#     Edge 34, Type (0, 1), BuildingBlock: AJUNOK_clean_linker_0, # of connection points: 2
#     Edge 35, Type (0, 1), BuildingBlock: AJUNOK_clean_linker_0, # of connection points: 2
# Relax obj value: 0.059
# Max RMSD: 0.120
# Mean RMSD: 0.077
data_MOF--net-zzz--node1-CUKXOW_clean_sbu_0--node2-PAMTOO_clean_linker_0--edge1-AJUNOK_clean_linker_0
_symmetry_space_group_name_H-M    P1
_symmetry_Int_Tables_number       1
_symmetry_cell_setting            triclinic
loop_
_symmetry_equiv_pos_as_xyz
'x, y, z'
_cell_length_a     35.982041
_cell_length_b     38.396981
_cell_length_c     12.466235
_cell_angle_alpha  94.041291
_cell_angle_beta   86.252676
_cell_angle_gamma 93.417958
loop_
_atom_site_label
_atom_site_type_symbol
_atom_site_fract_x
_atom_site_fract_y
_atom_site_fract_z
_atom_type_partial_charge
H0 H 0.89043 0.50335 0.17633 0.0
H1 H 0.80971 0.50197 0.93668 0.0
H2 H 0.7783 0.53065 0.26961 0.0
H3 H 0.72163 0.48335 0.15394 0.0
C4 C 0.72776 0.49149 0.07052 0.0
O5 O 0.75406 0.51921 0.07338 0.0
H6 H 0.73913 0.4689 0.02074 0.0
C7 C 0.86189 0.50574 0.15534 0.0
C8 C 0.83557 0.51719 0.23515 0.0
C9 C 0.85318 0.50055 0.04783 0.0
C10 C 0.81672 0.50535 0.02013 0.0
C11 C 0.78932 0.51516 0.10055 0.0
C12 C 0.79893 0.52167 0.20831 0.0
H13 H 0.03989 0.89016 0.10538 0.0
H14 H 0.05296 0.80948 0.85131 0.0
H15 H 1.01613 0.78264 0.17291 0.0
H16 H 0.07598 0.73804 0.05202 0.0
C17 C 0.06544 0.73797 -0.03001 0.0
O18 O 0.03436 0.75759 -0.02495 0.0
H19 H 0.08782 0.74978 0.9159 0.0
C20 C 0.03951 0.86258 0.07877 0.0
C21 C 0.0269 0.83776 0.15114 0.0
C22 C 0.04888 0.85283 -0.02892 0.0
C23 C 0.04668 0.81732 0.93542 0.0
C24 C 0.03595 0.79185 0.00906 0.0
C25 C 0.0257 0.80213 0.11712 0.0
H26 H 0.65141 1.00209 0.17115 0.0
H27 H 0.74975 0.02115 0.96427 0.0
H28 H 0.75964 1.00456 0.29929 0.0
H29 H 0.80235 0.96516 0.04651 0.0
C30 C 0.81881 0.98731 0.08666 0.0
O31 O 0.79681 0.01535 0.11316 0.0
H32 H 0.82849 0.97785 0.16173 0.0
C33 C 0.68161 1.00385 0.1586 0.0
C34 C 0.70342 1.0017 0.24618 0.0
C35 C 0.6979 1.01136 0.05757 0.0
C36 C 0.73685 0.01507 0.04222 0.0
C37 C 0.75924 1.01155 0.12858 0.0
C38 C 0.74246 1.00557 0.23149 0.0
H39 H 0.53537 0.65342 0.20145 0.0
H40 H 0.5248 0.73954 0.00592 0.0
H41 H 0.57199 0.75726 0.31583 0.0
H42 H 0.59737 0.78246 0.03449 0.0
C43 C 0.58418 0.8019 0.09351 0.0
O44 O 0.55243 0.78723 0.14477 0.0
H45 H 0.60492 0.8099 0.15409 0.0
C46 C 0.53836 0.68132 0.19089 0.0
C47 C 0.55509 0.70361 0.26922 0.0
C48 C 0.52739 0.69389 0.09634 0.0
C49 C 0.53228 0.72967 0.08046 0.0
C50 C 0.54793 0.75268 0.16031 0.0
C51 C 0.55933 0.73964 0.25518 0.0
H52 H 0.18779 0.54975 0.22674 0.0
H53 H 0.26954 0.55557 0.46436 0.0
H54 H 0.30061 0.52501 0.13247 0.0
H55 H 0.34242 0.48937 0.28154 0.0
C56 C 0.33633 0.50609 0.35641 0.0
O57 O 0.32502 0.53776 0.32783 0.0
H58 H 0.31363 0.49262 0.40569 0.0
C59 C 0.21657 0.54844 0.24704 0.0
C60 C 0.243 0.53721 0.16729 0.0
C61 C 0.22563 0.55495 0.35393 0.0
C62 C 0.26236 0.55143 0.3812 0.0
C63 C 0.28973 0.54155 0.30078 0.0
C64 C 0.27995 0.5341 0.19352 0.0
H65 H 1.00287 0.16195 0.28621 0.0
H66 H 0.99255 0.24316 0.53999 0.0
H67 H 0.02475 0.26923 0.21455 0.0
H68 H 0.06172 0.31314 0.35778 0.0
C69 C 0.04406 0.31177 0.43414 0.0
O70 O 1.01007 0.29484 0.4134 0.0
H71 H 0.05867 0.29655 0.48982 0.0
C72 C 1.0032 0.18957 0.31233 0.0
C73 C 1.01466 0.21426 0.2385 0.0
C74 C 0.99514 0.1995 0.42066 0.0
C75 C 0.99761 0.23515 0.45549 0.0
C76 C 1.00735 0.26047 0.38041 0.0
C77 C 1.01584 0.24991 0.27153 0.0
H78 H 0.40168 0.02007 0.25269 0.0
H79 H 0.3057 0.01179 0.4761 0.0
H80 H 0.29204 0.02572 0.14098 0.0
H81 H 0.23293 0.05963 0.27247 0.0
C82 C 0.2382 0.04929 0.35083 0.0
O83 O 0.25703 0.01891 0.3319 0.0
H84 H 0.25562 0.0696 0.39586 0.0
C85 C 0.37173 0.02052 0.27008 0.0
C86 C 0.34889 0.02432 0.18599 0.0
C87 C 0.35673 0.0157 0.37462 0.0
C88 C 0.31784 0.01526 0.39547 0.0
C89 C 0.29447 0.01933 0.31147 0.0
C90 C 0.31004 0.02333 0.20611 0.0
H91 H 0.51891 0.38379 0.28856 0.0
H92 H 0.53169 0.2965 0.47761 0.0
H93 H 0.48014 0.28067 0.17382 0.0
H94 H 0.44936 0.22689 0.32713 0.0
C95 C 0.46951 0.2349 0.3894 0.0
O96 O 0.50149 0.2498 0.34023 0.0
H97 H 0.45567 0.25408 0.44779 0.0
C98 C 0.51563 0.35586 0.29847 0.0
C99 C 0.49764 0.33405 0.22144 0.0
C100 C 0.52825 0.34269 0.39008 0.0
C101 C 0.52306 0.30686 0.40508 0.0
C102 C 0.50603 0.28441 0.3264 0.0
C103 C 0.49351 0.29797 0.23395 0.0
Tb104 Tb 1.00788 0.99897 0.61058 0.0
C105 C 0.09252 0.03113 0.58625 0.0
Tb106 Tb 0.03723 0.05309 0.78246 0.0
O107 O 0.97618 0.03831 0.54134 0.0
O108 O 0.02431 0.0526 0.62051 0.0
O109 O 0.06707 1.00654 0.55461 0.0
C110 C 0.04163 0.11474 0.89476 0.0
O111 O 0.08531 0.05481 0.66685 0.0
C112 C 0.04881 0.98772 0.81072 0.0
C113 C 0.9536 0.01915 0.81284 0.0
O114 O 0.06382 0.08952 0.90157 0.0
O115 O 1.01683 0.10482 0.82659 0.0
O116 O 0.06923 0.01391 0.85158 0.0
O117 O 1.02126 0.99954 0.77182 0.0
O118 O 0.97877 0.04416 0.84314 0.0
O119 O 0.96051 0.99627 0.72966 0.0
C120 C 1.00257 0.9378 0.49505 0.0
O121 O 0.98019 0.96307 0.49192 0.0
O122 O 0.02811 0.94745 0.56116 0.0
C123 C 0.99683 0.06446 0.58126 0.0
Tb124 Tb 0.52412 0.05236 0.68211 0.0
C125 C 0.58794 1.00533 0.58091 0.0
Tb126 Tb 0.52961 0.97694 0.76137 0.0
O127 O 0.57629 0.07188 0.7516 0.0
O128 O 0.54583 0.02916 0.81208 0.0
O129 O 0.56638 0.03139 0.56678 0.0
C130 C 0.54618 0.92194 0.86637 0.0
O131 O 0.58058 0.98264 0.6564 0.0
C132 C 0.47741 0.98257 0.62699 0.0
C133 C 0.46345 0.02266 0.85335 0.0
O134 O 0.54572 0.92263 0.76222 0.0
O135 O 0.53738 0.95217 0.91067 0.0
O136 O 0.47781 0.957 0.68967 0.0
O137 O 0.50826 0.99999 0.63084 0.0
O138 O 0.48509 0.99701 0.87036 0.0
O139 O 0.47164 0.04561 0.77929 0.0
C140 C 0.50793 0.11099 0.59529 0.0
O141 O 0.50656 0.10636 0.69774 0.0
O142 O 0.5184 0.08263 0.54203 0.0
C143 C 0.57683 0.04633 0.81387 0.0
Tb144 Tb 0.54991 0.54197 0.66357 0.0
C145 C 0.46423 0.51779 0.62652 0.0
Tb146 Tb 0.50612 0.4941 0.82125 0.0
O147 O 0.57777 0.49769 0.57801 0.0
O148 O 0.52596 0.49054 0.65883 0.0
O149 O 0.49293 0.54035 0.60543 0.0
C150 C 0.48974 0.43577 0.92284 0.0
O151 O 0.4651 0.49423 0.6995 0.0
C152 C 0.50443 0.56157 0.87177 0.0
C153 C 0.59314 0.51465 0.85052 0.0
O154 O 0.4691 0.46266 0.92931 0.0
O155 O 0.51958 0.4424 0.86246 0.0
O156 O 0.47859 0.53895 0.90524 0.0
O157 O 0.5308 0.54509 0.82656 0.0
O158 O 0.56302 0.49422 0.87471 0.0
O159 O 0.59358 0.53808 0.77645 0.0
C160 C 0.56655 0.60157 0.56762 0.0
O161 O 0.58462 0.57313 0.54964 0.0
O162 O 0.53917 0.59603 0.63814 0.0
C163 C 0.55269 0.47458 0.61307 0.0
Tb164 Tb 1.01032 0.53547 0.62395 0.0
C165 C 0.03902 0.45728 0.60853 0.0
Tb166 Tb 0.06971 0.51572 0.77418 0.0
O167 O 0.0523 0.56338 0.52163 0.0
O168 O 0.06656 0.52244 0.60916 0.0
O169 O 1.01322 0.47857 0.58454 0.0
C170 C 0.13551 0.51315 0.86069 0.0
O171 O 0.067 0.46812 0.66931 0.0
C172 C 0.99958 0.50559 0.84292 0.0
C173 C 0.04305 0.59411 0.78826 0.0
O174 O 0.1059 0.49326 0.88305 0.0
O175 O 0.12771 0.53488 0.79149 0.0
O176 O 0.02628 0.48814 0.8748 0.0
O177 O 1.01381 0.52968 0.78859 0.0
O178 O 0.06806 0.57225 0.81299 0.0
O179 O 1.01496 0.58402 0.72666 0.0
C180 C 0.94379 0.53686 0.54038 0.0
O181 O 0.97253 0.55802 0.51969 0.0
O182 O 0.95285 0.51467 0.60651 0.0
C183 C 0.07965 0.54719 0.55511 0.0
C184 C 0.19346 0.06025 0.51324 0.0
C185 C 0.20124 0.04233 0.41277 0.0
C186 C 0.15846 0.0561 0.56866 0.0
C187 C 0.12971 0.03376 0.52623 0.0
H188 H 0.21444 0.07806 0.54877 0.0
H189 H 0.15397 0.07079 0.64536 0.0
S190 S 0.1364 0.98048 0.26549 0.0
N191 N 0.17778 1.00126 0.27294 0.0
N192 N 0.11201 0.99299 0.37693 0.0
C193 C 0.13742 0.01519 0.42626 0.0
C194 C 0.17311 0.01962 0.36964 0.0
C195 C 0.4839 0.17139 0.38529 0.0
C196 C 0.47913 0.20336 0.44532 0.0
C197 C 0.49334 0.1417 0.43467 0.0
C198 C 0.49836 0.14293 0.54589 0.0
H199 H 0.48022 0.16935 0.29946 0.0
H200 H 0.49647 0.11754 0.38535 0.0
S201 S 0.4915 0.22105 0.73749 0.0
N202 N 0.48205 0.23507 0.62054 0.0
N203 N 0.49922 0.17913 0.71392 0.0
C204 C 0.49421 0.17488 0.6066 0.0
C205 C 0.48489 0.20519 0.55607 0.0
C206 C 0.384 0.54275 0.46794 0.0
C207 C 0.37065 0.51014 0.42155 0.0
C208 C 0.41483 0.54527 0.53267 0.0
C209 C 0.43261 0.51526 0.55566 0.0
H210 H 0.37054 0.56644 0.45497 0.0
H211 H 0.42425 0.57073 0.567 0.0
S212 S 0.4098 0.42434 0.44973 0.0
N213 N 0.37869 0.44769 0.40023 0.0
N214 N 0.43596 0.45244 0.52252 0.0
C215 C 0.41978 0.48276 0.50905 0.0
C216 C 0.38893 0.48023 0.44219 0.0
C217 C 0.05868 0.3609 0.57264 0.0
C218 C 0.03929 0.34869 0.48193 0.0
C219 C 0.05792 0.39585 0.61298 0.0
C220 C 0.03779 0.42022 0.56436 0.0
H221 H 0.07514 0.34342 0.61195 0.0
H222 H 0.07351 0.40377 0.68291 0.0
S223 S 0.98266 0.40149 0.32326 0.0
N224 N 0.99978 0.36366 0.34323 0.0
N225 N 0.99778 0.42938 0.41993 0.0
C226 C 1.01785 0.40827 0.47411 0.0
C227 C 1.01888 0.37258 0.43248 0.0
C228 C 0.85748 0.98244 0.90948 0.0
C229 C 0.85235 0.99809 0.01444 0.0
C230 C 0.88982 0.99011 0.84429 0.0
C231 C 0.91832 0.01392 0.881 0.0
H232 H 0.83667 0.96355 0.87815 0.0
H233 H 0.89263 0.9768 0.76488 0.0
S234 S 0.91737 0.06293 0.14938 0.0
N235 N 0.87764 0.03905 0.15158 0.0
N236 N 0.9383 0.05395 0.02959 0.0
C237 C 0.91292 0.03053 -0.01488 0.0
C238 C 0.88002 0.02248 0.05158 0.0
C239 C 0.56926 0.83012 0.92504 0.0
C240 C 0.57444 0.83322 0.03632 0.0
C241 C 0.56034 0.859 0.87043 0.0
C242 C 0.55574 0.89186 0.92546 0.0
H243 H 0.57233 0.80522 0.87978 0.0
H244 H 0.55682 0.85548 0.78463 0.0
S245 S 0.56523 0.91335 0.21784 0.0
N246 N 0.57362 0.87144 0.19997 0.0
N247 N 0.55666 0.92567 0.09801 0.0
C248 C 0.56037 0.89516 0.03706 0.0
C249 C 0.56963 0.86582 0.09238 0.0
C250 C 0.69482 0.51687 0.92218 0.0
C251 C 0.69264 0.50109 0.02123 0.0
C252 C 0.66251 0.52233 0.86913 0.0
C253 C 0.62682 0.51154 0.91201 0.0
H254 H 0.72179 0.52432 0.88425 0.0
H255 H 0.66567 0.53398 0.79219 0.0
S256 S 0.60592 0.47009 0.17167 0.0
N257 N 0.65182 0.47568 0.16152 0.0
N258 N 0.59136 0.48571 0.06274 0.0
C259 C 0.62431 0.49635 0.01225 0.0
C260 C 0.65711 0.49107 0.06635 0.0
C261 C 0.06966 0.67272 -0.02452 0.0
C262 C 0.05637 0.70094 0.92597 0.0
C263 C 0.06464 0.6383 0.93127 0.0
C264 C 0.04602 0.63064 0.83581 0.0
H265 H 0.08466 0.67733 0.04817 0.0
H266 H 0.07568 0.61755 -0.02785 0.0
S267 S 1.00727 0.69537 0.67229 0.0
N268 N 0.02493 0.71914 0.77434 0.0
N269 N 1.01479 0.65436 0.69208 0.0
C270 C 0.03235 0.65859 0.78574 0.0
C271 C 0.03785 0.69374 0.8303 0.0
C272 C 0.96005 0.14611 0.48187 0.0
C273 C 0.99007 0.17098 0.4946 0.0
C274 C 0.96162 0.11213 0.51547 0.0
C275 C 0.99346 0.10175 0.56171 0.0
H276 H 0.93651 0.15217 0.4379 0.0
H277 H 0.93862 0.09336 0.49961 0.0
S278 S 0.07845 0.15809 0.61874 0.0
N279 N 0.05118 0.18389 0.56317 0.0
N280 N 0.05482 0.12001 0.62412 0.0
C281 C 0.02266 0.12713 0.58091 0.0
C282 C 1.02072 0.1618 0.54816 0.0
C283 C 0.41524 0.03218 0.46557 0.0
C284 C 0.38299 1.00985 0.45749 0.0
C285 C 0.44532 0.02306 0.52098 0.0
C286 C 0.44428 0.99188 0.57297 0.0
H287 H 0.41805 0.05608 0.42364 0.0
H288 H 0.46999 0.04006 0.52012 0.0
S289 S 0.36499 0.92552 0.5842 0.0
N290 N 0.35085 0.95571 0.51041 0.0
N291 N 0.40711 0.93938 0.61929 0.0
C292 C 0.41132 0.97016 0.5712 0.0
C293 C 0.38068 0.9791 0.51287 0.0
C294 C 0.57346 0.38994 0.45172 0.0
C295 C 0.54116 0.36857 0.47409 0.0
C296 C 0.57823 0.42349 0.50298 0.0
C297 C 0.55034 0.43703 0.57582 0.0
H298 H 0.59357 0.38183 0.38768 0.0
H299 H 0.60264 0.43975 0.47952 0.0
S300 S 0.46224 0.38935 0.66793 0.0
N301 N 0.48318 0.36122 0.58166 0.0
N302 N 0.49033 0.42493 0.67219 0.0
C303 C 0.51908 0.41479 0.60358 0.0
C304 C 0.51504 0.38028 0.55439 0.0
C305 C 0.182 0.53153 0.4962 0.0
C306 C 0.1943 0.55976 0.43483 0.0
C307 C 0.14514 0.52851 0.53983 0.0
C308 C 0.11954 0.55367 0.52344 0.0
H309 H 0.19986 0.51008 0.50204 0.0
H310 H 0.13608 0.50521 0.58064 0.0
S311 S 0.14015 0.63534 0.3838 0.0
N312 N 0.17973 0.61532 0.37095 0.0
N313 N 0.1105 0.60998 0.45411 0.0
C314 C 0.13253 0.58355 0.47064 0.0
C315 C 0.17 0.58659 0.42637 0.0
C316 C 0.08469 0.90621 0.91299 0.0
C317 C 0.05486 0.88133 0.89762 0.0
C318 C 0.08348 0.94016 0.87899 0.0
C319 C 0.05215 0.95045 0.83003 0.0
H320 H 0.10769 0.90019 0.95921 0.0
H321 H 0.10624 0.95899 0.89684 0.0
S322 S 0.96796 0.89389 0.76567 0.0
N323 N 0.99468 0.86817 0.82348 0.0
N324 N 0.99154 0.93204 0.76242 0.0
C325 C 0.02324 0.92501 0.80826 0.0
C326 C 0.02488 0.89036 0.8411 0.0
C327 C 0.64553 0.99349 0.94214 0.0
C328 C 0.6728 0.01905 -0.02541 0.0
C329 C 0.61513 1.00239 0.88731 0.0
C330 C 0.61042 0.03709 0.8652 0.0
H331 H 0.64694 0.96672 0.96327 0.0
H332 H 0.59529 0.98198 0.86229 0.0
S333 S 0.67592 0.1132 0.92544 0.0
N334 N 0.6949 0.08001 -0.02569 0.0
N335 N 0.63736 0.09677 0.87165 0.0
C336 C 0.63869 0.06254 0.89154 0.0
C337 C 0.66994 0.05348 0.9465 0.0
C338 C 0.48288 0.64787 0.0227 0.0
C339 C 0.51696 0.66751 0.01069 0.0
C340 C 0.47814 0.61429 -0.02847 0.0
C341 C 0.50766 0.59905 0.90905 0.0
H342 H 0.46087 0.65742 0.07861 0.0
H343 H 0.45204 0.59937 -0.01335 0.0
S344 S 0.60186 0.6411 0.84978 0.0
N345 N 0.57948 0.67084 0.92645 0.0
N346 N 0.57169 0.6073 0.83481 0.0
C347 C 0.54115 0.61943 0.89191 0.0
C348 C 0.54547 0.65386 0.94149 0.0
C349 C 0.90933 0.46953 -0.02308 0.0
C350 C 0.88476 0.49618 0.96719 0.0
C351 C 0.94609 0.47196 0.93212 0.0
C352 C 0.95951 0.50121 0.87671 0.0
H353 H 0.9009 0.44802 0.02653 0.0
H354 H 0.9646 0.45166 0.94562 0.0
S355 S 0.90503 0.57653 0.82148 0.0
N356 N 0.87528 0.55109 0.89092 0.0
N357 N 0.94437 0.55621 0.80838 0.0
C358 C 0.93438 0.52684 0.86031 0.0
C359 C 0.89689 0.52409 0.90476 0.0
C360 C 1.00284 0.19355 0.05087 0.0
C361 C 0.02838 0.2006 0.13093 0.0
C362 C 1.00903 0.16745 0.96826 0.0
C363 C 0.04058 0.14728 0.96487 0.0
H364 H 0.97638 0.20585 0.05795 0.0
H365 H 0.98746 0.16117 0.9122 0.0
S366 S 0.11842 0.15983 0.14656 0.0
N367 N 0.08851 0.18898 0.19404 0.0
N368 N 0.10003 0.13955 0.03963 0.0
C369 C 0.06801 0.15652 0.03826 0.0
C370 C 0.06192 0.18339 0.1212 0.0
C371 C 0.38861 0.0572 0.05294 0.0
C372 C 0.36751 0.0264 0.07761 0.0
C373 C 0.41819 0.05649 -0.02639 0.0
C374 C 0.42802 0.02477 0.91911 0.0
H375 H 0.38418 0.08132 0.10136 0.0
H376 H 0.43522 0.08026 0.96118 0.0
S377 S 0.37829 0.93811 0.94396 0.0
N378 N 0.35574 0.96442 0.03287 0.0
N379 N 0.41168 0.96285 0.88524 0.0
C380 C 0.40531 0.99446 0.9371 0.0
C381 C 0.37487 0.99535 0.01605 0.0
C382 C 0.46025 0.37803 0.14851 0.0
C383 C 0.48478 0.3507 0.12857 0.0
C384 C 0.45937 0.40429 0.0763 0.0
C385 C 0.48321 0.404 -0.0174 0.0
H386 H 0.44441 0.38095 0.2253 0.0
H387 H 0.44242 0.42636 0.09865 0.0
S388 S 0.54627 0.33415 0.88299 0.0
N389 N 0.52867 0.3219 0.00106 0.0
N390 N 0.52697 0.37104 0.86428 0.0
C391 C 0.50451 0.37469 0.95591 0.0
C392 C 0.50523 0.34794 0.02923 0.0
C393 C 0.2226 0.55061 -0.01027 0.0
C394 C 0.22865 0.52536 0.06201 0.0
C395 C 0.19419 0.54514 0.91734 0.0
C396 C 0.1705 0.5146 0.91703 0.0
H397 H 0.23735 0.57603 -0.00344 0.0
H398 H 0.18874 0.56623 0.8682 0.0
S399 S 0.17907 0.4384 0.07858 0.0
N400 N 0.21229 0.46699 0.11873 0.0
N401 N 0.15846 0.45686 -0.01573 0.0
C402 C 0.17871 0.48784 -0.01859 0.0
C403 C 0.20803 0.49318 0.05343 0.0
C404 C 0.03864 0.85759 0.3394 0.0
C405 C 1.01314 0.85138 0.25884 0.0
C406 C 0.03331 0.88399 0.42166 0.0
C407 C 1.00264 0.90527 0.42453 0.0
H408 H 0.06458 0.84441 0.33278 0.0
H409 H 0.05491 0.88954 0.47804 0.0
S410 S 0.92506 0.89534 0.24149 0.0
N411 N 0.95386 0.86513 0.1947 0.0
N412 N 0.94388 0.91499 0.34869 0.0
C413 C 0.97512 0.89689 0.35078 0.0
C414 C 0.98036 0.86977 0.26802 0.0
C415 C 0.6725 0.03254 0.4042 0.0
C416 C 0.68342 1.00069 0.35303 0.0
C417 C 0.64243 0.03354 0.48129 0.0
C418 C 0.62251 1.00269 0.5108 0.0
H419 H 0.6853 0.05703 0.37796 0.0
H420 H 0.63379 0.0588 0.51493 0.0
S421 S 0.6426 0.91243 0.40784 0.0
N422 N 0.67376 0.93751 0.34146 0.0
N423 N 0.61794 0.93918 0.48996 0.0
C424 C 0.63499 0.97048 0.4664 0.0
C425 C 0.66528 0.96954 0.38636 0.0
C426 C 0.54516 0.68687 0.45781 0.0
C427 C 0.5681 0.68715 0.36244 0.0
C428 C 0.54708 0.66042 0.52908 0.0
C429 C 0.57175 0.6333 0.50647 0.0
H430 H 0.52326 0.70513 0.47221 0.0
H431 H 0.52715 0.65979 0.59803 0.0
S432 S 0.64172 0.62589 0.27552 0.0
N433 N 0.61942 0.66106 0.2559 0.0
N434 N 0.62303 0.61126 0.38949 0.0
C435 C 0.59738 0.63542 0.41703 0.0
C436 C 0.59555 0.66245 0.34503 0.0
C437 C 0.87187 0.55879 0.35198 0.0
C438 C 0.84981 0.52736 0.3418 0.0
C439 C 0.90081 0.5627 0.42263 0.0
C440 C 0.90832 0.53546 0.48625 0.0
H441 H 0.86945 0.5789 0.29642 0.0
H442 H 0.91899 0.58622 0.42178 0.0
S443 S 0.85423 0.4505 0.50269 0.0
N444 N 0.83433 0.47042 0.41004 0.0
N445 N 0.88783 0.47808 0.54617 0.0
C446 C 0.88372 0.50555 0.48577 0.0
C447 C 0.85457 0.50145 0.41271 0.0
loop_
_geom_bond_atom_site_label_1
_geom_bond_atom_site_label_2
_geom_bond_distance
_geom_bond_site_symmetry_2
_ccdc_geom_bond_type
H0 C7 0.929 . S
H1 C10 0.930 . S
H2 C12 0.929 . S
H3 C4 0.969 . S
C4 H3 0.969 . S
C4 O5 1.550 1_556 S
C4 H6 0.973 . S
O5 C4 1.550 1_554 S
O5 C11 1.412 . S
H6 C4 0.973 . S
C7 H0 0.929 . S
C7 C8 1.400 . S
C7 C9 1.364 . S
C8 C7 1.400 . S
C8 C12 1.377 . S
C9 C7 1.364 . S
C9 C10 1.374 1_554 S
C10 H1 0.930 . S
C10 C9 1.374 1_556 S
C10 C11 1.383 1_556 S
C11 O5 1.412 . S
C11 C10 1.383 1_554 S
C11 C12 1.394 . S
C12 H2 0.929 . S
C12 C8 1.377 . S
C12 C11 1.394 . S
H13 C20 0.929 . S
H14 C23 0.930 . S
H15 C25 0.929 . S
H16 C17 0.969 . S
C17 H16 0.969 . S
C17 O18 1.550 1_556 S
C17 H19 0.973 . S
O18 C17 1.550 1_554 S
O18 C24 1.412 . S
H19 C17 0.973 . S
C20 H13 0.929 . S
C20 C21 1.400 . S
C20 C22 1.364 1_554 S
C21 C20 1.400 . S
C21 C25 1.377 . S
C22 C20 1.364 1_556 S
C22 C23 1.374 . S
C23 H14 0.930 . S
C23 C22 1.374 . S
C23 C24 1.383 1_556 S
C24 O18 1.412 . S
C24 C23 1.383 1_554 S
C24 C25 1.394 . S
C25 H15 0.929 . S
C25 C21 1.377 . S
C25 C24 1.394 . S
H26 C33 0.929 . S
H27 C36 0.930 1_556 S
H28 C38 0.929 . S
H29 C30 0.969 . S
C30 H29 0.969 . S
C30 O31 1.550 1_556 S
C30 H32 0.973 . S
O31 C30 1.550 1_554 S
O31 C37 1.412 . S
H32 C30 0.973 . S
C33 H26 0.929 . S
C33 C34 1.400 . S
C33 C35 1.364 . S
C34 C33 1.400 . S
C34 C38 1.377 . S
C35 C33 1.364 . S
C35 C36 1.374 . S
C36 H27 0.930 1_554 S
C36 C35 1.374 . S
C36 C37 1.383 . S
C37 O31 1.412 . S
C37 C36 1.383 . S
C37 C38 1.394 . S
C38 H28 0.929 . S
C38 C34 1.377 . S
C38 C37 1.394 . S
H39 C46 0.929 . S
H40 C49 0.930 1_556 S
H41 C51 0.929 . S
H42 C43 0.969 . S
C43 H42 0.969 . S
C43 O44 1.550 . S
C43 H45 0.973 1_554 S
O44 C43 1.550 . S
O44 C50 1.412 . S
H45 C43 0.973 1_556 S
C46 H39 0.929 . S
C46 C47 1.400 . S
C46 C48 1.364 . S
C47 C46 1.400 . S
C47 C51 1.377 . S
C48 C46 1.364 . S
C48 C49 1.374 . S
C49 H40 0.930 1_554 S
C49 C48 1.374 . S
C49 C50 1.383 . S
C50 O44 1.412 . S
C50 C49 1.383 . S
C50 C51 1.394 . S
C51 H41 0.929 . S
C51 C47 1.377 . S
C51 C50 1.394 . S
H52 C59 0.929 . S
H53 C62 0.930 . S
H54 C64 0.929 . S
H55 C56 0.969 . S
C56 H55 0.969 . S
C56 O57 1.550 . S
C56 H58 0.973 . S
O57 C56 1.550 . S
O57 C63 1.412 . S
H58 C56 0.973 . S
C59 H52 0.929 . S
C59 C60 1.400 . S
C59 C61 1.364 . S
C60 C59 1.400 . S
C60 C64 1.377 . S
C61 C59 1.364 . S
C61 C62 1.374 . S
C62 H53 0.930 . S
C62 C61 1.374 . S
C62 C63 1.383 . S
C63 O57 1.412 . S
C63 C62 1.383 . S
C63 C64 1.394 . S
C64 H54 0.929 . S
C64 C60 1.377 . S
C64 C63 1.394 . S
H65 C72 0.929 . S
H66 C75 0.930 . S
H67 C77 0.929 . S
H68 C69 0.969 . S
C69 H68 0.969 . S
C69 O70 1.550 . S
C69 H71 0.973 . S
O70 C69 1.550 . S
O70 C76 1.412 . S
H71 C69 0.973 . S
C72 H65 0.929 . S
C72 C73 1.400 . S
C72 C74 1.364 . S
C73 C72 1.400 . S
C73 C77 1.377 . S
C74 C72 1.364 . S
C74 C75 1.374 . S
C75 H66 0.930 . S
C75 C74 1.374 . S
C75 C76 1.383 . S
C76 O70 1.412 . S
C76 C75 1.383 . S
C76 C77 1.394 . S
C77 H67 0.929 . S
C77 C73 1.377 . S
C77 C76 1.394 . S
H78 C85 0.929 . S
H79 C88 0.930 . S
H80 C90 0.929 . S
H81 C82 0.969 . S
C82 H81 0.969 . S
C82 O83 1.550 . S
C82 H84 0.973 . S
O83 C82 1.550 . S
O83 C89 1.412 . S
H84 C82 0.973 . S
C85 H78 0.929 . S
C85 C86 1.400 . S
C85 C87 1.364 . S
C86 C85 1.400 . S
C86 C90 1.377 . S
C87 C85 1.364 . S
C87 C88 1.374 . S
C88 H79 0.930 . S
C88 C87 1.374 . S
C88 C89 1.383 . S
C89 O83 1.412 . S
C89 C88 1.383 . S
C89 C90 1.394 . S
C90 H80 0.929 . S
C90 C86 1.377 . S
C90 C89 1.394 . S
H91 C98 0.929 . S
H92 C101 0.930 . S
H93 C103 0.929 . S
H94 C95 0.969 . S
C95 H94 0.969 . S
C95 O96 1.550 . S
C95 H97 0.973 . S
O96 C95 1.550 . S
O96 C102 1.412 . S
H97 C95 0.973 . S
C98 H91 0.929 . S
C98 C99 1.400 . S
C98 C100 1.364 . S
C99 C98 1.400 . S
C99 C103 1.377 . S
C100 C98 1.364 . S
C100 C101 1.374 . S
C101 H92 0.930 . S
C101 C100 1.374 . S
C101 C102 1.383 . S
C102 O96 1.412 . S
C102 C101 1.383 . S
C102 C103 1.394 . S
C103 H93 0.929 . S
C103 C99 1.377 . S
C103 C102 1.394 . S
Tb104 O107 2.453 1_565 S
Tb104 O108 2.596 1_665 S
Tb104 O109 2.374 1_665 S
Tb104 O117 2.339 1_655 S
Tb104 O119 2.353 1_565 S
Tb104 O121 2.427 . S
Tb104 O122 2.513 1_655 S
C105 O109 1.251 . S
C105 O111 1.263 . S
Tb106 O108 2.343 . S
Tb106 O111 2.353 . S
Tb106 O114 2.427 . S
Tb106 O115 2.513 1_455 S
Tb106 O116 2.453 1_545 S
Tb106 O117 2.600 1_545 S
Tb106 O118 2.374 1_455 S
O107 Tb104 2.453 1_545 S
O107 C123 1.245 1_655 S
O108 Tb104 2.596 1_445 S
O108 Tb106 2.343 . S
O108 C123 1.259 . S
O109 Tb104 2.374 1_445 S
O109 C105 1.251 . S
C110 O114 1.275 . S
C110 O115 1.246 1_455 S
O111 C105 1.263 . S
O111 Tb106 2.353 . S
C112 O116 1.245 . S
C112 O117 1.262 . S
C113 O118 1.250 . S
C113 O119 1.263 . S
O114 Tb106 2.427 . S
O114 C110 1.275 . S
O115 Tb106 2.513 1_655 S
O115 C110 1.246 1_655 S
O116 Tb106 2.453 1_565 S
O116 C112 1.245 . S
O117 Tb104 2.339 1_455 S
O117 Tb106 2.600 1_565 S
O117 C112 1.262 . S
O118 Tb106 2.374 1_655 S
O118 C113 1.250 . S
O119 Tb104 2.353 1_545 S
O119 C113 1.263 . S
C120 O121 1.275 . S
C120 O122 1.246 1_655 S
O121 Tb104 2.427 . S
O121 C120 1.275 . S
O122 Tb104 2.513 1_455 S
O122 C120 1.246 1_455 S
C123 O107 1.245 1_455 S
C123 O108 1.259 . S
Tb124 O127 2.453 . S
Tb124 O128 2.596 1_545 S
Tb124 O129 2.374 . S
Tb124 O137 2.343 . S
Tb124 O139 2.353 . S
Tb124 O141 2.427 . S
Tb124 O142 2.513 . S
C125 O129 1.226 1_565 S
C125 O131 1.282 . S
Tb126 O128 2.343 . S
Tb126 O131 2.353 . S
Tb126 O134 2.427 . S
Tb126 O135 2.513 . S
Tb126 O136 2.453 . S
Tb126 O137 2.596 1_565 S
Tb126 O138 2.374 . S
O127 Tb124 2.453 . S
O127 C143 1.245 . S
O128 Tb124 2.596 1_565 S
O128 Tb126 2.343 . S
O128 C143 1.259 1_565 S
O129 Tb124 2.374 . S
O129 C125 1.226 1_545 S
C130 O134 1.275 . S
C130 O135 1.246 . S
O131 C125 1.282 . S
O131 Tb126 2.353 . S
C132 O136 1.245 1_545 S
C132 O137 1.259 . S
C133 O138 1.250 1_545 S
C133 O139 1.263 . S
O134 Tb126 2.427 . S
O134 C130 1.275 . S
O135 Tb126 2.513 . S
O135 C130 1.246 . S
O136 Tb126 2.453 . S
O136 C132 1.245 1_565 S
O137 Tb124 2.343 . S
O137 Tb126 2.596 1_545 S
O137 C132 1.259 . S
O138 Tb126 2.374 . S
O138 C133 1.250 1_565 S
O139 Tb124 2.353 . S
O139 C133 1.263 . S
C140 O141 1.275 . S
C140 O142 1.246 . S
O141 Tb124 2.427 . S
O141 C140 1.275 . S
O142 Tb124 2.513 . S
O142 C140 1.246 . S
C143 O127 1.245 . S
C143 O128 1.259 1_545 S
Tb144 O147 2.453 . S
Tb144 O148 2.596 . S
Tb144 O149 2.374 . S
Tb144 O157 2.343 . S
Tb144 O159 2.353 . S
Tb144 O161 2.427 . S
Tb144 O162 2.513 . S
C145 O149 1.251 . S
C145 O151 1.263 . S
Tb146 O148 2.343 . S
Tb146 O151 2.353 . S
Tb146 O154 2.427 . S
Tb146 O155 2.513 . S
Tb146 O156 2.453 . S
Tb146 O157 2.596 . S
Tb146 O158 2.374 . S
O147 Tb144 2.453 . S
O147 C163 1.245 . S
O148 Tb144 2.596 . S
O148 Tb146 2.343 . S
O148 C163 1.259 . S
O149 Tb144 2.374 . S
O149 C145 1.251 . S
C150 O154 1.275 . S
C150 O155 1.246 . S
O151 C145 1.263 . S
O151 Tb146 2.353 . S
C152 O156 1.245 . S
C152 O157 1.259 . S
C153 O158 1.250 . S
C153 O159 1.263 . S
O154 Tb146 2.427 . S
O154 C150 1.275 . S
O155 Tb146 2.513 . S
O155 C150 1.246 . S
O156 Tb146 2.453 . S
O156 C152 1.245 . S
O157 Tb144 2.343 . S
O157 Tb146 2.596 . S
O157 C152 1.259 . S
O158 Tb146 2.374 . S
O158 C153 1.250 . S
O159 Tb144 2.353 . S
O159 C153 1.263 . S
C160 O161 1.275 . S
C160 O162 1.246 . S
O161 Tb144 2.427 . S
O161 C160 1.275 . S
O162 Tb144 2.513 . S
O162 C160 1.246 . S
C163 O147 1.245 . S
C163 O148 1.259 . S
Tb164 O167 2.453 1_655 S
Tb164 O168 2.596 1_655 S
Tb164 O169 2.374 1_655 S
Tb164 O177 2.343 . S
Tb164 O179 2.353 1_655 S
Tb164 O181 2.427 . S
Tb164 O182 2.513 . S
C165 O169 1.251 . S
C165 O171 1.263 . S
Tb166 O168 2.343 . S
Tb166 O171 2.353 . S
Tb166 O174 2.427 . S
Tb166 O175 2.513 . S
Tb166 O176 2.453 1_455 S
Tb166 O177 2.596 1_455 S
Tb166 O178 2.374 . S
O167 Tb164 2.453 1_455 S
O167 C183 1.245 . S
O168 Tb164 2.596 1_455 S
O168 Tb166 2.343 . S
O168 C183 1.259 . S
O169 Tb164 2.374 1_455 S
O169 C165 1.251 . S
C170 O174 1.275 . S
C170 O175 1.246 . S
O171 C165 1.263 . S
O171 Tb166 2.353 . S
C172 O176 1.245 . S
C172 O177 1.259 . S
C173 O178 1.260 . S
C173 O179 1.263 . S
O174 Tb166 2.427 . S
O174 C170 1.275 . S
O175 Tb166 2.513 . S
O175 C170 1.246 . S
O176 Tb166 2.453 1_655 S
O176 C172 1.245 . S
O177 Tb164 2.343 . S
O177 Tb166 2.596 1_655 S
O177 C172 1.259 . S
O178 Tb166 2.374 . S
O178 C173 1.260 . S
O179 Tb164 2.353 1_455 S
O179 C173 1.263 . S
C180 O181 1.275 . S
C180 O182 1.246 . S
O181 Tb164 2.427 . S
O181 C180 1.275 . S
O182 Tb164 2.513 . S
O182 C180 1.246 . S
C183 O167 1.245 . S
C183 O168 1.259 . S
C184 C185 1.369 . S
C184 C186 1.419 . S
C184 H188 0.930 . S
C185 C184 1.369 . S
C185 C194 1.429 . S
C186 C184 1.419 . S
C186 C187 1.363 . S
C186 H189 0.929 . S
C187 C186 1.363 . S
C187 C193 1.415 1_545 S
H188 C184 0.930 . S
H189 C186 0.929 . S
S190 N191 1.613 . S
S190 N192 1.610 . S
N191 S190 1.613 . S
N191 C194 1.350 1_565 S
N192 S190 1.610 . S
N192 C193 1.370 . S
C193 C187 1.415 1_565 S
C193 N192 1.370 . S
C193 C194 1.430 1_565 S
C194 C185 1.429 . S
C194 N191 1.350 1_545 S
C194 C193 1.430 1_545 S
C195 C196 1.369 . S
C195 C197 1.419 . S
C195 H199 0.930 . S
C196 C195 1.369 . S
C196 C205 1.429 . S
C197 C195 1.419 . S
C197 C198 1.363 . S
C197 H200 0.929 . S
C198 C197 1.363 . S
C198 C204 1.428 . S
H199 C195 0.930 . S
H200 C197 0.929 . S
S201 N202 1.613 . S
S201 N203 1.610 . S
N202 S201 1.613 . S
N202 C205 1.350 . S
N203 S201 1.610 . S
N203 C204 1.351 . S
C204 C198 1.428 . S
C204 N203 1.351 . S
C204 C205 1.434 . S
C205 C196 1.429 . S
C205 N202 1.350 . S
C205 C204 1.434 . S
C206 C207 1.369 . S
C206 C208 1.419 . S
C206 H210 0.930 . S
C207 C206 1.369 . S
C207 C216 1.429 . S
C208 C206 1.419 . S
C208 C209 1.363 . S
C208 H211 0.929 . S
C209 C208 1.363 . S
C209 C215 1.428 . S
H210 C206 0.930 . S
H211 C208 0.929 . S
S212 N213 1.613 . S
S212 N214 1.610 . S
N213 S212 1.613 . S
N213 C216 1.350 . S
N214 S212 1.610 . S
N214 C215 1.351 . S
C215 C209 1.428 . S
C215 N214 1.351 . S
C215 C216 1.434 . S
C216 C207 1.429 . S
C216 N213 1.350 . S
C216 C215 1.434 . S
C217 C218 1.369 . S
C217 C219 1.419 . S
C217 H221 0.930 . S
C218 C217 1.369 . S
C218 C227 1.429 . S
C219 C217 1.419 . S
C219 C220 1.363 . S
C219 H222 0.929 . S
C220 C219 1.363 . S
C220 C226 1.428 . S
H221 C217 0.930 . S
H222 C219 0.929 . S
S223 N224 1.613 . S
S223 N225 1.610 . S
N224 S223 1.613 . S
N224 C227 1.350 . S
N225 S223 1.610 . S
N225 C226 1.351 . S
C226 C220 1.428 . S
C226 N225 1.351 . S
C226 C227 1.434 . S
C227 C218 1.429 . S
C227 N224 1.350 . S
C227 C226 1.434 . S
C228 C229 1.369 . S
C228 C230 1.419 1_565 S
C228 H232 0.930 1_565 S
C229 C228 1.369 . S
C229 C238 1.429 1_556 S
C230 C228 1.419 1_545 S
C230 C231 1.363 1_545 S
C230 H233 0.929 . S
C231 C230 1.363 1_565 S
C231 C237 1.428 . S
H232 C228 0.930 1_545 S
H233 C230 0.929 . S
S234 N235 1.613 . S
S234 N236 1.610 . S
N235 S234 1.613 . S
N235 C238 1.350 . S
N236 S234 1.610 . S
N236 C237 1.351 1_554 S
C237 C231 1.428 . S
C237 N236 1.351 1_556 S
C237 C238 1.434 1_556 S
C238 C229 1.429 1_554 S
C238 N235 1.350 . S
C238 C237 1.434 1_554 S
C239 C240 1.369 . S
C239 C241 1.419 . S
C239 H243 0.930 . S
C240 C239 1.369 . S
C240 C249 1.429 . S
C241 C239 1.419 . S
C241 C242 1.363 . S
C241 H244 0.929 . S
C242 C241 1.363 . S
C242 C248 1.428 . S
H243 C239 0.930 . S
H244 C241 0.929 . S
S245 N246 1.613 . S
S245 N247 1.610 1_554 S
N246 S245 1.613 . S
N246 C249 1.350 1_554 S
N247 S245 1.610 1_556 S
N247 C248 1.351 . S
C248 C242 1.428 . S
C248 N247 1.351 . S
C248 C249 1.434 . S
C249 C240 1.429 . S
C249 N246 1.350 1_556 S
C249 C248 1.434 . S
C250 C251 1.369 . S
C250 C252 1.419 . S
C250 H254 0.930 . S
C251 C250 1.369 . S
C251 C260 1.429 1_556 S
C252 C250 1.419 . S
C252 C253 1.363 . S
C252 H255 0.929 . S
C253 C252 1.363 . S
C253 C259 1.428 . S
H254 C250 0.930 . S
H255 C252 0.929 . S
S256 N257 1.613 . S
S256 N258 1.610 . S
N257 S256 1.613 . S
N257 C260 1.350 . S
N258 S256 1.610 . S
N258 C259 1.351 1_554 S
C259 C253 1.428 . S
C259 N258 1.351 1_556 S
C259 C260 1.434 1_556 S
C260 C251 1.429 1_554 S
C260 N257 1.350 . S
C260 C259 1.434 1_554 S
C261 C262 1.369 . S
C261 C263 1.419 . S
C261 H265 0.930 . S
C262 C261 1.369 . S
C262 C271 1.429 . S
C263 C261 1.419 . S
C263 C264 1.363 . S
C263 H266 0.929 . S
C264 C263 1.363 . S
C264 C270 1.428 1_655 S
H265 C261 0.930 . S
H266 C263 0.929 . S
S267 N268 1.613 . S
S267 N269 1.610 . S
N268 S267 1.613 . S
N268 C271 1.350 1_455 S
N269 S267 1.610 . S
N269 C270 1.351 . S
C270 C264 1.428 1_455 S
C270 N269 1.351 . S
C270 C271 1.434 1_455 S
C271 C262 1.429 . S
C271 N268 1.350 1_655 S
C271 C270 1.434 1_655 S
C272 C273 1.369 . S
C272 C274 1.419 . S
C272 H276 0.930 . S
C273 C272 1.369 . S
C273 C282 1.429 . S
C274 C272 1.419 . S
C274 C275 1.363 . S
C274 H277 0.929 . S
C275 C274 1.363 . S
C275 C281 1.428 . S
H276 C272 0.930 . S
H277 C274 0.929 . S
S278 N279 1.613 . S
S278 N280 1.610 . S
N279 S278 1.613 . S
N279 C282 1.350 . S
N280 S278 1.610 . S
N280 C281 1.351 . S
C281 C275 1.428 . S
C281 N280 1.351 . S
C281 C282 1.434 . S
C282 C273 1.429 . S
C282 N279 1.350 . S
C282 C281 1.434 . S
C283 C284 1.369 . S
C283 C285 1.419 . S
C283 H287 0.930 . S
C284 C283 1.369 . S
C284 C293 1.429 . S
C285 C283 1.419 . S
C285 C286 1.363 . S
C285 H288 0.929 . S
C286 C285 1.363 . S
C286 C292 1.428 . S
H287 C283 0.930 . S
H288 C285 0.929 . S
S289 N290 1.613 . S
S289 N291 1.610 . S
N290 S289 1.613 . S
N290 C293 1.350 1_565 S
N291 S289 1.610 . S
N291 C292 1.351 1_565 S
C292 C286 1.428 . S
C292 N291 1.351 1_545 S
C292 C293 1.434 . S
C293 C284 1.429 . S
C293 N290 1.350 1_545 S
C293 C292 1.434 . S
C294 C295 1.369 . S
C294 C296 1.419 . S
C294 H298 0.930 . S
C295 C294 1.369 . S
C295 C304 1.429 . S
C296 C294 1.419 . S
C296 C297 1.363 . S
C296 H299 0.929 . S
C297 C296 1.363 . S
C297 C303 1.428 . S
H298 C294 0.930 . S
H299 C296 0.929 . S
S300 N301 1.613 . S
S300 N302 1.610 . S
N301 S300 1.613 . S
N301 C304 1.350 . S
N302 S300 1.610 . S
N302 C303 1.351 . S
C303 C297 1.428 . S
C303 N302 1.351 . S
C303 C304 1.434 . S
C304 C295 1.429 . S
C304 N301 1.350 . S
C304 C303 1.434 . S
C305 C306 1.369 . S
C305 C307 1.419 . S
C305 H309 0.930 . S
C306 C305 1.369 . S
C306 C315 1.429 . S
C307 C305 1.419 . S
C307 C308 1.363 . S
C307 H310 0.929 . S
C308 C307 1.363 . S
C308 C314 1.428 . S
H309 C305 0.930 . S
H310 C307 0.929 . S
S311 N312 1.613 . S
S311 N313 1.610 . S
N312 S311 1.613 . S
N312 C315 1.350 . S
N313 S311 1.610 . S
N313 C314 1.351 . S
C314 C308 1.428 . S
C314 N313 1.351 . S
C314 C315 1.434 . S
C315 C306 1.429 . S
C315 N312 1.350 . S
C315 C314 1.434 . S
C316 C317 1.369 . S
C316 C318 1.419 1_655 S
C316 H320 0.921 1_655 S
C317 C316 1.369 . S
C317 C326 1.429 . S
C318 C316 1.419 1_455 S
C318 C319 1.363 1_455 S
C318 H321 0.929 . S
C319 C318 1.363 1_655 S
C319 C325 1.428 . S
H320 C316 0.921 1_455 S
H321 C318 0.929 . S
S322 N323 1.613 . S
S322 N324 1.610 . S
N323 S322 1.613 . S
N323 C326 1.350 . S
N324 S322 1.610 . S
N324 C325 1.351 . S
C325 C319 1.428 . S
C325 N324 1.351 . S
C325 C326 1.434 . S
C326 C317 1.429 . S
C326 N323 1.350 . S
C326 C325 1.434 . S
C327 C328 1.369 . S
C327 C329 1.419 . S
C327 H331 0.930 . S
C328 C327 1.369 . S
C328 C337 1.429 1_565 S
C329 C327 1.419 . S
C329 C330 1.363 . S
C329 H332 0.929 . S
C330 C329 1.363 . S
C330 C336 1.428 1_565 S
H331 C327 0.930 . S
H332 C329 0.929 . S
S333 N334 1.613 . S
S333 N335 1.610 . S
N334 S333 1.613 . S
N334 C337 1.350 . S
N335 S333 1.610 . S
N335 C336 1.351 . S
C336 C330 1.428 1_545 S
C336 N335 1.351 . S
C336 C337 1.434 . S
C337 C328 1.429 1_545 S
C337 N334 1.350 . S
C337 C336 1.434 . S
C338 C339 1.369 . S
C338 C340 1.419 . S
C338 H342 0.930 . S
C339 C338 1.369 . S
C339 C348 1.429 . S
C340 C338 1.419 . S
C340 C341 1.363 . S
C340 H343 0.929 . S
C341 C340 1.363 . S
C341 C347 1.428 . S
H342 C338 0.930 . S
H343 C340 0.929 . S
S344 N345 1.613 . S
S344 N346 1.610 . S
N345 S344 1.613 . S
N345 C348 1.350 . S
N346 S344 1.610 . S
N346 C347 1.351 . S
C347 C341 1.428 . S
C347 N346 1.351 . S
C347 C348 1.434 . S
C348 C339 1.429 . S
C348 N345 1.350 . S
C348 C347 1.434 . S
C349 C350 1.369 . S
C349 C351 1.419 . S
C349 H353 0.930 . S
C350 C349 1.369 . S
C350 C359 1.429 . S
C351 C349 1.419 . S
C351 C352 1.363 . S
C351 H354 0.929 . S
C352 C351 1.363 . S
C352 C358 1.428 . S
H353 C349 0.930 . S
H354 C351 0.929 . S
S355 N356 1.613 . S
S355 N357 1.610 . S
N356 S355 1.613 . S
N356 C359 1.350 . S
N357 S355 1.610 . S
N357 C358 1.351 . S
C358 C352 1.428 . S
C358 N357 1.351 . S
C358 C359 1.434 . S
C359 C350 1.429 . S
C359 N356 1.350 . S
C359 C358 1.434 . S
C360 C361 1.369 . S
C360 C362 1.419 . S
C360 H364 0.930 . S
C361 C360 1.369 . S
C361 C370 1.429 . S
C362 C360 1.419 . S
C362 C363 1.363 . S
C362 H365 0.929 . S
C363 C362 1.363 . S
C363 C369 1.428 . S
H364 C360 0.930 . S
H365 C362 0.929 . S
S366 N367 1.613 . S
S366 N368 1.610 . S
N367 S366 1.613 . S
N367 C370 1.350 . S
N368 S366 1.610 . S
N368 C369 1.351 . S
C369 C363 1.428 . S
C369 N368 1.351 . S
C369 C370 1.434 . S
C370 C361 1.429 . S
C370 N367 1.350 . S
C370 C369 1.434 . S
C371 C372 1.369 . S
C371 C373 1.419 . S
C371 H375 0.930 . S
C372 C371 1.369 . S
C372 C381 1.429 . S
C373 C371 1.419 . S
C373 C374 1.363 . S
C373 H376 0.929 . S
C374 C373 1.363 . S
C374 C380 1.428 1_554 S
H375 C371 0.930 . S
H376 C373 0.929 . S
S377 N378 1.613 . S
S377 N379 1.610 . S
N378 S377 1.613 . S
N378 C381 1.350 1_556 S
N379 S377 1.610 . S
N379 C380 1.351 . S
C380 C374 1.428 1_556 S
C380 N379 1.351 . S
C380 C381 1.434 1_556 S
C381 C372 1.429 . S
C381 N378 1.350 1_554 S
C381 C380 1.434 1_554 S
C382 C383 1.369 . S
C382 C384 1.419 1_554 S
C382 H386 0.930 . S
C383 C382 1.369 . S
C383 C392 1.429 . S
C384 C382 1.419 1_556 S
C384 C385 1.363 1_556 S
C384 H387 0.929 . S
C385 C384 1.363 1_554 S
C385 C391 1.428 . S
H386 C382 0.930 . S
H387 C384 0.929 . S
S388 N389 1.613 . S
S388 N390 1.610 . S
N389 S388 1.613 . S
N389 C392 1.350 . S
N390 S388 1.610 . S
N390 C391 1.351 . S
C391 C385 1.428 . S
C391 N390 1.351 . S
C391 C392 1.434 . S
C392 C383 1.429 . S
C392 N389 1.350 . S
C392 C391 1.434 . S
C393 C394 1.369 . S
C393 C395 1.419 . S
C393 H397 0.930 . S
C394 C393 1.369 . S
C394 C403 1.429 . S
C395 C393 1.419 . S
C395 C396 1.363 . S
C395 H398 0.929 . S
C396 C395 1.363 . S
C396 C402 1.428 . S
H397 C393 0.930 . S
H398 C395 0.929 . S
S399 N400 1.613 . S
S399 N401 1.610 1_554 S
N400 S399 1.613 . S
N400 C403 1.350 . S
N401 S399 1.610 1_556 S
N401 C402 1.351 1_556 S
C402 C396 1.428 . S
C402 N401 1.351 1_554 S
C402 C403 1.434 . S
C403 C394 1.429 . S
C403 N400 1.350 . S
C403 C402 1.434 . S
C404 C405 1.369 . S
C404 C406 1.419 . S
C404 H408 0.930 1_655 S
C405 C404 1.369 . S
C405 C414 1.429 . S
C406 C404 1.419 . S
C406 C407 1.363 . S
C406 H409 0.929 1_655 S
C407 C406 1.363 . S
C407 C413 1.428 . S
H408 C404 0.930 1_455 S
H409 C406 0.929 1_455 S
S410 N411 1.613 . S
S410 N412 1.610 . S
N411 S410 1.613 . S
N411 C414 1.350 . S
N412 S410 1.610 . S
N412 C413 1.351 . S
C413 C407 1.428 . S
C413 N412 1.351 . S
C413 C414 1.434 . S
C414 C405 1.429 . S
C414 N411 1.350 . S
C414 C413 1.434 . S
C415 C416 1.369 . S
C415 C417 1.426 . S
C415 H419 0.930 . S
C416 C415 1.369 . S
C416 C425 1.429 . S
C417 C415 1.426 . S
C417 C418 1.369 . S
C417 H420 0.916 1_565 S
C418 C417 1.369 . S
C418 C424 1.428 . S
H419 C415 0.930 . S
H420 C417 0.916 1_545 S
S421 N422 1.613 . S
S421 N423 1.610 . S
N422 S421 1.613 . S
N422 C425 1.350 . S
N423 S421 1.610 . S
N423 C424 1.351 . S
C424 C418 1.428 . S
C424 N423 1.351 . S
C424 C425 1.434 . S
C425 C416 1.429 . S
C425 N422 1.350 . S
C425 C424 1.434 . S
C426 C427 1.369 . S
C426 C428 1.419 . S
C426 H430 0.930 . S
C427 C426 1.369 . S
C427 C436 1.429 . S
C428 C426 1.419 . S
C428 C429 1.363 . S
C428 H431 0.929 . S
C429 C428 1.363 . S
C429 C435 1.428 . S
H430 C426 0.930 . S
H431 C428 0.929 . S
S432 N433 1.613 . S
S432 N434 1.610 . S
N433 S432 1.613 . S
N433 C436 1.350 . S
N434 S432 1.610 . S
N434 C435 1.351 . S
C435 C429 1.428 . S
C435 N434 1.351 . S
C435 C436 1.434 . S
C436 C427 1.429 . S
C436 N433 1.350 . S
C436 C435 1.434 . S
C437 C438 1.369 . S
C437 C439 1.419 . S
C437 H441 0.930 . S
C438 C437 1.369 . S
C438 C447 1.429 . S
C439 C437 1.419 . S
C439 C440 1.363 . S
C439 H442 0.929 . S
C440 C439 1.363 . S
C440 C446 1.428 . S
H441 C437 0.930 . S
H442 C439 0.929 . S
S443 N444 1.613 . S
S443 N445 1.610 . S
N444 S443 1.613 . S
N444 C447 1.350 . S
N445 S443 1.610 . S
N445 C446 1.351 . S
C446 C440 1.428 . S
C446 N445 1.351 . S
C446 C447 1.434 . S
C447 C438 1.429 . S
C447 N444 1.350 . S
C447 C446 1.434 . S
C185 C82 1.521 . S
C187 C105 1.597 . S
C198 C140 1.607 . S
C196 C95 1.511 . S
C209 C145 1.378 . S
C207 C56 1.291 . S
C220 C165 1.543 . S
C218 C69 1.504 . S
C231 C113 1.597 1_565 S
C229 C30 1.463 . S
C240 C43 1.419 1_556 S
C242 C130 1.608 . S
C251 C4 1.266 . S
C253 C153 1.376 . S
C262 C17 1.419 . S
C264 C173 1.533 1_655 S
C275 C123 1.428 . S
C273 C74 1.373 . S
C286 C132 1.197 . S
C284 C87 1.170 . S
C297 C163 1.462 . S
C295 C100 1.408 . S
C306 C61 1.120 . S
C308 C183 1.130 . S
C317 C22 1.370 . S
C319 C112 1.428 1_655 S
C330 C143 1.196 1_565 S
C328 C35 1.160 1_556 S
C341 C152 1.460 . S
C339 C48 1.401 1_556 S
C350 C9 1.118 1_556 S
C352 C172 1.129 . S
C361 C73 1.470 . S
C363 C110 1.474 1_554 S
C372 C86 1.506 . S
C374 C133 1.566 1_554 S
C385 C150 1.570 1_554 S
C383 C99 1.522 . S
C396 C170 1.563 1_554 S
C394 C60 1.544 . S
C405 C21 1.467 . S
C407 C120 1.476 . S
C418 C125 1.572 . S
C416 C34 1.493 . S
C429 C160 1.569 . S
C427 C47 1.514 . S
C438 C8 1.536 . S
C440 C180 1.560 . S
