# Generated by pormake.
# Topology zzz, (3,6)-cn, num edge types: 1
# Building blocks:
#     Node 0, Type 0, BuildingBlock: ESEHIV_clean_linker_0, # of connection points: 3
#     Node 1, Type 0, BuildingBlock: ESEHIV_clean_linker_0, # of connection points: 3
#     Node 2, Type 0, BuildingBlock: ESEHIV_clean_linker_0, # of connection points: 3
#     Node 3, Type 0, BuildingBlock: ESEHIV_clean_linker_0, # of connection points: 3
#     Node 4, Type 0, BuildingBlock: ESEHIV_clean_linker_0, # of connection points: 3
#     Node 5, Type 0, BuildingBlock: ESEHIV_clean_linker_0, # of connection points: 3
#     Node 6, Type 0, BuildingBlock: ESEHIV_clean_linker_0, # of connection points: 3
#     Node 7, Type 0, BuildingBlock: ESEHIV_clean_linker_0, # of connection points: 3
#     Node 8, Type 1, BuildingBlock: JUFBIX_clean_sbu_0, # of connection points: 6
#     Node 9, Type 1, BuildingBlock: JUFBIX_clean_sbu_0, # of connection points: 6
#     Node 10, Type 1, BuildingBlock: JUFBIX_clean_sbu_0, # of connection points: 6
#     Node 11, Type 1, BuildingBlock: JUFBIX_clean_sbu_0, # of connection points: 6
#     Edge 12, Type (0, 1), BuildingBlock: CIFDUS_clean_linker_0, # of connection points: 2
#     Edge 13, Type (0, 1), BuildingBlock: CIFDUS_clean_linker_0, # of connection points: 2
#     Edge 14, Type (0, 1), BuildingBlock: CIFDUS_clean_linker_0, # of connection points: 2
#     Edge 15, Type (0, 1), BuildingBlock: CIFDUS_clean_linker_0, # of connection points: 2
#     Edge 16, Type (0, 1), BuildingBlock: CIFDUS_clean_linker_0, # of connection points: 2
#     Edge 17, Type (0, 1), BuildingBlock: CIFDUS_clean_linker_0, # of connection points: 2
#     Edge 18, Type (0, 1), BuildingBlock: CIFDUS_clean_linker_0, # of connection points: 2
#     Edge 19, Type (0, 1), BuildingBlock: CIFDUS_clean_linker_0, # of connection points: 2
#     Edge 20, Type (0, 1), BuildingBlock: CIFDUS_clean_linker_0, # of connection points: 2
#     Edge 21, Type (0, 1), BuildingBlock: CIFDUS_clean_linker_0, # of connection points: 2
#     Edge 22, Type (0, 1), BuildingBlock: CIFDUS_clean_linker_0, # of connection points: 2
#     Edge 23, Type (0, 1), BuildingBlock: CIFDUS_clean_linker_0, # of connection points: 2
#     Edge 24, Type (0, 1), BuildingBlock: CIFDUS_clean_linker_0, # of connection points: 2
#     Edge 25, Type (0, 1), BuildingBlock: CIFDUS_clean_linker_0, # of connection points: 2
#     Edge 26, Type (0, 1), BuildingBlock: CIFDUS_clean_linker_0, # of connection points: 2
#     Edge 27, Type (0, 1), BuildingBlock: CIFDUS_clean_linker_0, # of connection points: 2
#     Edge 28, Type (0, 1), BuildingBlock: CIFDUS_clean_linker_0, # of connection points: 2
#     Edge 29, Type (0, 1), BuildingBlock: CIFDUS_clean_linker_0, # of connection points: 2
#     Edge 30, Type (0, 1), BuildingBlock: CIFDUS_clean_linker_0, # of connection points: 2
#     Edge 31, Type (0, 1), BuildingBlock: CIFDUS_clean_linker_0, # of connection points: 2
#     Edge 32, Type (0, 1), BuildingBlock: CIFDUS_clean_linker_0, # of connection points: 2
#     Edge 33, Type (0, 1), BuildingBlock: CIFDUS_clean_linker_0, # of connection points: 2
#     Edge 34, Type (0, 1), BuildingBlock: CIFDUS_clean_linker_0, # of connection points: 2
#     Edge 35, Type (0, 1), BuildingBlock: CIFDUS_clean_linker_0, # of connection points: 2
# Relax obj value: 0.277
# Max RMSD: 0.233
# Mean RMSD: 0.184
data_MOF--net-zzz--node1-JUFBIX_clean_sbu_0--node2-ESEHIV_clean_linker_0--edge1-CIFDUS_clean_linker_0
_symmetry_space_group_name_H-M    P1
_symmetry_Int_Tables_number       1
_symmetry_cell_setting            triclinic
loop_
_symmetry_equiv_pos_as_xyz
'x, y, z'
_cell_length_a     39.217791
_cell_length_b     40.009698
_cell_length_c     15.602569
_cell_angle_alpha  79.809679
_cell_angle_beta   90.468788
_cell_angle_gamma 85.557787
loop_
_atom_site_label
_atom_site_type_symbol
_atom_site_fract_x
_atom_site_fract_y
_atom_site_fract_z
_atom_type_partial_charge
H0 H 0.84012 0.57087 0.34255 0.0
H1 H 0.77346 0.55628 0.13654 0.0
H2 H 0.73378 0.55725 0.39355 0.0
C3 C 0.81446 0.56826 0.31929 0.0
C4 C 0.78746 0.56607 0.37765 0.0
C5 C 0.80967 0.56412 0.2335 0.0
C6 C 0.77704 0.55955 0.20351 0.0
C7 C 0.74926 0.55792 0.25985 0.0
C8 C 0.75464 0.56012 0.34843 0.0
H9 H 0.05104 0.82825 0.40211 0.0
H10 H 0.04608 0.79234 0.15958 0.0
H11 H 0.99611 0.74105 0.38306 0.0
C12 C 0.04324 0.8099 0.3641 0.0
C13 C 0.02162 0.7853 0.40169 0.0
C14 C 0.05051 0.81436 0.27542 0.0
C15 C 0.04157 0.78919 0.22871 0.0
C16 C 0.02425 0.76104 0.26813 0.0
C17 C 0.01243 0.76039 0.35388 0.0
H18 H 0.69602 0.02033 0.26087 0.0
H19 H 0.77503 0.02017 0.07187 0.0
H20 H 0.80046 0.99241 0.34597 0.0
C21 C 0.72286 0.01761 0.24507 0.0
C22 C 0.74696 1.00747 0.31314 0.0
C23 C 0.73247 0.02204 0.15788 0.0
C24 C 0.76714 0.01678 0.13911 0.0
C25 C 0.79181 1.00605 0.20603 0.0
C26 C 0.78175 1.00133 0.29388 0.0
H27 H 0.48773 0.67533 0.24015 0.0
H28 H 0.51306 0.7705 0.30692 0.0
H29 H 0.49895 0.76096 0.03774 0.0
C30 C 0.49168 0.70213 0.22056 0.0
C31 C 0.49168 0.71606 0.13202 0.0
C32 C 0.49923 0.72127 0.28431 0.0
C33 C 0.50656 0.7556 0.25842 0.0
C34 C 0.5061 0.77017 0.16882 0.0
C35 C 0.49873 0.75011 0.10655 0.0
H36 H 0.14249 0.5575 0.20061 0.0
H37 H 0.21044 0.54935 0.42149 0.0
H38 H 0.24282 0.50554 0.19939 0.0
C39 C 0.16728 0.5494 0.23209 0.0
C40 C 0.19183 0.53131 0.1897 0.0
C41 C 0.17344 0.55555 0.31602 0.0
C42 C 0.20563 0.54545 0.35553 0.0
C43 C 0.23092 0.52776 0.31399 0.0
C44 C 0.22388 0.5201 0.23091 0.0
H45 H 0.98016 0.20033 0.32956 0.0
H46 H 0.95522 0.2788 0.47983 0.0
H47 H 0.0088 0.3019 0.23962 0.0
C48 C 0.97937 0.22671 0.33768 0.0
C49 C 0.99406 0.2501 0.27358 0.0
C50 C 0.96561 0.23636 0.41314 0.0
C51 C 0.96643 0.27042 0.42321 0.0
C52 C 0.98259 0.29393 0.36264 0.0
C53 C 0.99657 0.28382 0.28717 0.0
H54 H 0.31686 0.01759 0.36958 0.0
H55 H 0.23806 0.01704 0.55926 0.0
H56 H 0.21232 0.04568 0.2855 0.0
C57 C 0.29004 0.02029 0.38559 0.0
C58 C 0.26587 0.0306 0.31775 0.0
C59 C 0.28051 0.01556 0.47285 0.0
C60 C 0.24588 0.02071 0.49195 0.0
C61 C 0.22115 0.03167 0.42533 0.0
C62 C 0.2311 0.03669 0.33737 0.0
H63 H 0.53164 0.3548 0.34313 0.0
H64 H 0.49024 0.26116 0.31006 0.0
H65 H 0.529 0.27356 0.5614 0.0
C66 C 0.52686 0.3286 0.36896 0.0
C67 C 0.53305 0.31609 0.45735 0.0
C68 C 0.51122 0.30936 0.31522 0.0
C69 C 0.50284 0.27609 0.35054 0.0
C70 C 0.51013 0.26269 0.43949 0.0
C71 C 0.52488 0.28305 0.49225 0.0
Co72 Co 0.0206 0.03724 0.8507 0.0
C73 C 0.96232 0.0144 0.93805 0.0
Co74 Co 0.99517 0.9989 0.79093 0.0
C75 C 0.01871 0.09838 0.92242 0.0
C76 C 0.07033 0.07739 0.91967 0.0
N77 N 0.03807 0.07243 0.89781 0.0
N78 N 0.03723 0.11937 0.95996 0.0
C79 C 0.06992 0.10608 0.95788 0.0
H80 H 0.99123 0.10112 0.91402 0.0
H81 H 0.09259 0.06076 0.91054 0.0
C82 C 0.05335 0.02168 0.70351 0.0
N83 N 0.97686 0.96381 0.74577 0.0
C84 C 0.99456 0.93628 0.72412 0.0
C85 C 0.94376 0.95861 0.73366 0.0
N86 N 0.97398 0.91385 0.6995 0.0
C87 C 0.94189 0.92805 0.70506 0.0
C88 C 0.96983 0.06338 0.72342 0.0
O89 O 0.05483 0.04005 0.76233 0.0
O90 O 0.02919 1.00214 0.70434 0.0
O91 O 0.96614 0.03265 0.71626 0.0
O92 O 0.99199 0.06957 0.77697 0.0
O93 O 0.96115 0.99595 0.87959 0.0
H94 H 0.92234 0.97563 0.74637 0.0
H95 H 0.02221 0.93291 0.72647 0.0
O96 O 0.98631 0.03404 0.937 0.0
O97 O 0.04919 1.004 0.92507 0.0
O98 O 0.02451 0.96617 0.86449 0.0
C99 C 0.04649 0.97322 0.91738 0.0
H100 H 0.09206 0.11555 0.9844 0.0
H101 H 0.91862 0.91697 0.6911 0.0
Co102 Co 0.4894 0.03146 0.85721 0.0
C103 C 0.50461 0.96299 0.92741 0.0
Co104 Co 0.52355 1.00458 0.774 0.0
C105 C 0.42811 0.04674 0.95278 0.0
C106 C 0.46452 0.08404 0.95004 0.0
N107 N 0.45951 0.0545 0.9237 0.0
N108 N 0.41319 0.07038 0.9961 0.0
C109 C 0.43641 0.09373 0.99456 0.0
H110 H 0.41636 0.02433 0.94115 0.0
H111 H 0.48715 0.0978 0.93732 0.0
C112 C 0.50838 0.07293 0.70333 0.0
N113 N 0.55347 0.98164 0.70746 0.0
C114 C 0.58476 0.98971 0.67817 0.0
C115 C 0.54872 0.95205 0.68111 0.0
N116 N 0.59986 0.96621 0.63473 0.0
C117 C 0.57689 0.94262 0.63639 0.0
C118 C 0.45517 1.00255 0.73601 0.0
O119 O 0.49119 0.07244 0.77247 0.0
O120 O 0.5248 0.04559 0.69057 0.0
O121 O 0.48498 0.99285 0.71406 0.0
O122 O 0.45188 0.01983 0.79664 0.0
O123 O 0.52206 0.96382 0.85866 0.0
H124 H 0.52623 0.93809 0.69394 0.0
H125 H 0.59629 0.01225 0.68973 0.0
O126 O 0.48785 0.99015 0.94044 0.0
O127 O 0.52796 0.04294 0.91764 0.0
O128 O 0.56112 0.01648 0.83414 0.0
C129 C 0.55779 0.03353 0.89523 0.0
H130 H 0.43378 0.11617 0.02445 0.0
H131 H 0.57973 0.92021 0.60644 0.0
Co132 Co 0.52232 0.51757 0.80442 0.0
C133 C 0.49512 0.46409 0.92378 0.0
Co134 Co 0.4665 0.51252 0.79435 0.0
C135 C 0.58239 0.54052 0.88174 0.0
C136 C 0.59253 0.49276 0.83947 0.0
N137 N 0.5685 0.51915 0.83516 0.0
N138 N 0.61339 0.52793 0.91647 0.0
C139 C 0.61994 0.49801 0.88956 0.0
H140 H 0.56892 0.56331 0.8969 0.0
H141 H 0.58916 0.46955 0.81504 0.0
C142 C 0.49489 0.56593 0.6746 0.0
N143 N 0.42081 0.50939 0.7639 0.0
C144 C 0.40754 0.51786 0.6819 0.0
C145 C 0.3953 0.49528 0.81148 0.0
N146 N 0.37503 0.50972 0.67618 0.0
C147 C 0.3671 0.49535 0.75751 0.0
C148 C 0.47893 0.55784 0.8968 0.0
O149 O 0.52398 0.55479 0.70958 0.0
O150 O 0.46861 0.55069 0.70139 0.0
O151 O 0.45415 0.54341 0.87008 0.0
O152 O 0.50934 0.54924 0.87715 0.0
O153 O 0.46583 0.47408 0.88849 0.0
H154 H 0.39725 0.48492 0.88039 0.0
H155 H 0.42182 0.52865 0.62612 0.0
O156 O 0.52052 0.4808 0.89832 0.0
O157 O 0.53397 0.48519 0.73029 0.0
O158 O 0.47863 0.48183 0.72039 0.0
C159 C 0.50874 0.47136 0.70379 0.0
H160 H 0.64212 0.48034 0.90892 0.0
H161 H 0.34268 0.48582 0.77654 0.0
Co162 Co 0.99439 0.56691 0.79087 0.0
C163 C 0.04863 0.51968 0.86046 0.0
Co164 Co 0.98868 0.51369 0.77277 0.0
C165 C 0.0041 0.61751 0.89871 0.0
C166 C 0.99846 0.64 0.76366 0.0
N167 N 0.9989 0.60986 0.81864 0.0
N168 N 0.00691 0.65107 0.89554 0.0
C169 C 0.00378 0.66531 0.81073 0.0
H170 H 0.00686 0.5987 0.95796 0.0
H171 H 0.99508 0.64327 0.69372 0.0
C172 C 0.9341 0.56088 0.70507 0.0
N173 N 0.98295 0.47087 0.74401 0.0
C174 C 1.00103 0.45419 0.6884 0.0
C175 C 0.95422 0.45435 0.75809 0.0
N176 N 0.98422 0.42862 0.66616 0.0
C177 C 0.95487 0.42859 0.71014 0.0
C178 C 0.95944 0.5263 0.92123 0.0
O179 O 0.95171 0.58275 0.73107 0.0
O180 O 0.94609 0.52998 0.71579 0.0
O181 O 0.96536 0.50235 0.87839 0.0
O182 O 0.97064 0.5551 0.89411 0.0
O183 O 0.03164 0.49779 0.83211 0.0
H184 H 0.9329 0.46214 0.79558 0.0
H185 H 0.0247 0.46223 0.65942 0.0
O186 O 0.03661 0.55064 0.84958 0.0
O187 O 0.01817 0.57826 0.6864 0.0
O188 O 0.01145 0.52608 0.66705 0.0
C189 C 0.02239 0.5551 0.64055 0.0
H190 H 0.00574 0.69202 0.78474 0.0
H191 H 0.93469 0.412 0.705 0.0
H192 H 0.16936 0.99007 0.44373 0.0
H193 H 0.19579 0.08952 0.47645 0.0
H194 H 0.14499 0.0963 0.56398 0.0
H195 H 0.09683 0.07085 0.64584 0.0
H196 H 0.07022 0.97136 0.61135 0.0
H197 H 0.11697 0.96765 0.51046 0.0
C198 C 0.16314 0.0137 0.46729 0.0
C199 C 0.18578 0.03955 0.45246 0.0
C200 C 0.13427 0.01704 0.51926 0.0
C201 C 0.17819 0.06966 0.48551 0.0
C202 C 0.14944 0.0733 0.53662 0.0
C203 C 0.10112 0.04851 0.61563 0.0
C204 C 0.08029 0.02127 0.63715 0.0
C205 C 0.12793 0.04667 0.55648 0.0
C206 C 0.0859 0.99269 0.59637 0.0
C207 C 0.11268 0.9905 0.53852 0.0
H208 H 0.53934 0.20063 0.41898 0.0
H209 H 0.46127 0.24886 0.55884 0.0
H210 H 0.4526 0.19409 0.65088 0.0
H211 H 0.4706 0.13345 0.69974 0.0
H212 H 0.54967 0.08497 0.56233 0.0
H213 H 0.55458 0.13854 0.46176 0.0
C214 C 0.51986 0.19882 0.46818 0.0
C215 C 0.50066 0.22854 0.48165 0.0
C216 C 0.51562 0.16728 0.5224 0.0
C217 C 0.47602 0.22616 0.54684 0.0
C218 C 0.47128 0.19493 0.59989 0.0
C219 C 0.48878 0.1345 0.64751 0.0
C220 C 0.5099 0.10516 0.63933 0.0
C221 C 0.49151 0.16545 0.58974 0.0
C222 C 0.53312 0.10708 0.57061 0.0
C223 C 0.53597 0.13777 0.51288 0.0
H224 H 0.28287 0.56493 0.34331 0.0
H225 H 0.24812 0.46421 0.40421 0.0
H226 H 0.29065 0.44894 0.52368 0.0
H227 H 0.3334 0.46682 0.62122 0.0
H228 H 0.36884 0.56723 0.55692 0.0
H229 H 0.33053 0.58028 0.42875 0.0
C230 C 0.28561 0.53926 0.38078 0.0
C231 C 0.26295 0.51548 0.36434 0.0
C232 C 0.30964 0.53099 0.45018 0.0
C233 C 0.26594 0.48258 0.41455 0.0
C234 C 0.28985 0.47408 0.4837 0.0
C235 C 0.33269 0.49143 0.57869 0.0
C236 C 0.35342 0.51626 0.59893 0.0
C237 C 0.31104 0.49847 0.504 0.0
C238 C 0.35294 0.54786 0.54263 0.0
C239 C 0.33109 0.55528 0.46941 0.0
H240 H 0.03299 0.31593 0.45297 0.0
H241 H 0.9345 0.34692 0.32819 0.0
H242 H 0.92723 0.3943 0.40818 0.0
H243 H 0.94496 0.42088 0.53087 0.0
H244 H 0.04336 0.39054 0.65612 0.0
H245 H 0.05499 0.34903 0.559 0.0
C246 C 0.01071 0.33406 0.44057 0.0
C247 C 0.98453 0.3284 0.38372 0.0
C248 C 0.00637 0.3607 0.48881 0.0
C249 C 0.95525 0.35133 0.37005 0.0
C250 C 0.95088 0.37805 0.4169 0.0
C251 C 0.96914 0.40549 0.53561 0.0
C252 C 0.99312 0.40819 0.60109 0.0
C253 C 0.97558 0.38203 0.47918 0.0
C254 C 0.02459 0.38865 0.60627 0.0
C255 C 0.03112 0.36493 0.55095 0.0
H256 H 0.84481 0.04632 0.19371 0.0
H257 H 0.81624 0.94878 0.15087 0.0
H258 H 0.86779 0.94153 0.06644 0.0
H259 H 0.91738 0.96618 0.99017 0.0
H260 H 0.94617 0.06381 0.03398 0.0
H261 H 0.89853 0.06779 0.13225 0.0
C262 C 0.85066 0.02299 0.16854 0.0
C263 C 0.82721 0.99783 0.17957 0.0
C264 C 0.88002 0.01938 0.11837 0.0
C265 C 0.8344 0.9681 0.14458 0.0
C266 C 0.86362 0.96419 0.09533 0.0
C267 C 0.9134 0.98815 0.02191 0.0
C268 C 0.9351 0.01482 0.00371 0.0
C269 C 0.88602 0.99018 0.07928 0.0
C270 C 0.92983 0.04293 0.04638 0.0
C271 C 0.90252 0.04527 0.10269 0.0
H272 H 0.47077 0.82989 0.18899 0.0
H273 H 0.56004 0.78935 0.07105 0.0
H274 H 0.56861 0.84589 0.98901 0.0
H275 H 0.54755 0.90554 0.93961 0.0
H276 H 0.45807 0.947 0.05555 0.0
H277 H 0.45277 0.89178 0.1493 0.0
C278 C 0.49259 0.83378 0.14718 0.0
C279 C 0.5149 0.80559 0.1364 0.0
C280 C 0.49695 0.86643 0.09854 0.0
C281 C 0.54274 0.81075 0.08077 0.0
C282 C 0.54747 0.84301 0.03331 0.0
C283 C 0.52702 0.90262 0.98585 0.0
C284 C 0.50304 0.93035 0.98969 0.0
C285 C 0.52419 0.87083 0.03971 0.0
C286 C 0.47686 0.92611 0.05088 0.0
C287 C 0.47378 0.89447 0.10453 0.0
H288 H 0.71022 0.59932 0.13524 0.0
H289 H 0.71597 0.50024 0.29865 0.0
H290 H 0.67214 0.48227 0.20738 0.0
H291 H 0.63817 0.49259 0.06958 0.0
H292 H 0.63158 0.59191 0.90762 0.0
H293 H 0.6697 0.61228 0.0095 0.0
C294 C 0.70088 0.57422 0.1524 0.0
C295 C 0.71598 0.55115 0.22372 0.0
C296 C 0.67623 0.56398 0.09863 0.0
C297 C 0.70423 0.51853 0.24495 0.0
C298 C 0.67958 0.50814 0.19198 0.0
C299 C 0.64496 0.51874 0.05734 0.0
C300 C 0.63284 0.54066 0.98063 0.0
C301 C 0.66643 0.53023 0.11679 0.0
C302 C 0.64096 0.57469 0.96598 0.0
C303 C 0.6627 0.58623 0.02413 0.0
H304 H 0.06628 0.73571 0.15368 0.0
H305 H 0.96584 0.72651 0.26199 0.0
H306 H 0.95267 0.68866 0.16078 0.0
H307 H 0.96808 0.66232 0.03098 0.0
H308 H 0.06622 0.67749 0.9157 0.0
H309 H 0.0818 0.70941 0.02857 0.0
C310 C 0.04136 0.72564 0.15519 0.0
C311 C 0.01697 0.73453 0.21497 0.0
C312 C 0.03348 0.70519 0.0945 0.0
C313 C 0.98526 0.72016 0.21732 0.0
C314 C 0.97757 0.69874 0.15868 0.0
C315 C 0.99291 0.67245 0.03172 0.0
C316 C 0.01615 0.66773 0.96576 0.0
C317 C 0.0012 0.6917 0.09557 0.0
C318 C 0.04815 0.68103 0.96608 0.0
C319 C 0.05696 0.6992 0.03046 0.0
H320 H 0.93603 0.17691 0.40187 0.0
H321 H 0.97016 0.23583 0.58922 0.0
H322 H 0.96395 0.18848 0.70585 0.0
H323 H 0.96199 0.12768 0.75079 0.0
H324 H 0.93957 0.06493 0.56263 0.0
H325 H 0.92804 0.11611 0.45085 0.0
C326 C 0.9422 0.17952 0.46807 0.0
C327 C 0.95444 0.21002 0.4853 0.0
C328 C 0.94116 0.15113 0.53503 0.0
C329 C 0.96054 0.21314 0.57255 0.0
C330 C 0.95743 0.18575 0.6399 0.0
C331 C 0.9539 0.12516 0.68568 0.0
C332 C 0.95252 0.09265 0.66412 0.0
C333 C 0.94968 0.15423 0.62116 0.0
C334 C 0.94112 0.08974 0.58045 0.0
C335 C 0.93491 0.11898 0.51643 0.0
H336 H 0.34027 0.97519 0.47989 0.0
H337 H 0.28155 0.04213 0.62274 0.0
H338 H 0.32952 0.03989 0.72373 0.0
H339 H 0.39002 0.02569 0.75925 0.0
H340 H 0.4512 0.96415 0.60765 0.0
H341 H 0.40047 0.95819 0.52096 0.0
C342 C 0.33791 0.98927 0.53317 0.0
C343 C 0.30738 1.00913 0.54275 0.0
C344 C 0.36623 0.9894 0.58842 0.0
C345 C 0.30449 0.02634 0.61388 0.0
C346 C 0.33211 0.02547 0.67117 0.0
C347 C 0.3923 1.01065 0.70783 0.0
C348 C 0.4244 0.99574 0.6891 0.0
C349 C 0.36339 1.0081 0.65712 0.0
C350 C 0.42681 0.97616 0.62271 0.0
C351 C 0.39784 0.97274 0.57323 0.0
H352 H 0.49625 0.33024 0.59112 0.0
H353 H 0.58552 0.35822 0.44518 0.0
H354 H 0.58817 0.4085 0.51459 0.0
H355 H 0.56015 0.44824 0.60398 0.0
H356 H 0.46734 0.42071 0.73624 0.0
H357 H 0.47099 0.36684 0.68534 0.0
C358 C 0.51696 0.34672 0.57679 0.0
C359 C 0.54081 0.34052 0.51417 0.0
C360 C 0.51712 0.37627 0.61294 0.0
C361 C 0.56704 0.36251 0.49411 0.0
C362 C 0.56831 0.3914 0.53299 0.0
C363 C 0.54093 0.4303 0.62154 0.0
C364 C 0.51312 0.43882 0.67185 0.0
C365 C 0.54266 0.39926 0.59016 0.0
C366 C 0.48851 0.41522 0.69533 0.0
C367 C 0.49068 0.38418 0.66704 0.0
H368 H 0.10975 0.53476 0.32138 0.0
H369 H 0.17323 0.60132 0.4285 0.0
H370 H 0.12866 0.61155 0.53208 0.0
H371 H 0.07514 0.59497 0.60417 0.0
H372 H 0.01448 0.52535 0.50007 0.0
H373 H 0.05403 0.52383 0.38088 0.0
C374 C 0.11349 0.55243 0.36529 0.0
C375 C 0.14476 0.56718 0.36751 0.0
C376 C 0.08828 0.55749 0.42538 0.0
C377 C 0.14945 0.58938 0.42631 0.0
C378 C 0.124 0.59523 0.48538 0.0
C379 C 0.07023 0.58024 0.55395 0.0
C380 C 0.04226 0.56009 0.56075 0.0
C381 C 0.09381 0.57846 0.48742 0.0
C382 C 0.03611 0.54081 0.49615 0.0
C383 C 0.05872 0.53985 0.42828 0.0
H384 H 0.08554 0.82836 0.12183 0.0
H385 H 0.039 0.87771 0.32291 0.0
H386 H 0.04466 0.9325 0.2355 0.0
H387 H 0.04874 0.96617 0.09058 0.0
H388 H 0.08115 0.91673 0.87804 0.0
H389 H 0.09428 0.86292 0.9791 0.0
C390 C 0.07646 0.85092 0.14697 0.0
C391 C 0.06125 0.84791 0.22927 0.0
C392 C 0.07665 0.8829 0.09277 0.0
C393 C 0.05135 0.87811 0.26115 0.0
C394 C 0.05399 0.91001 0.21022 0.0
C395 C 0.05997 0.94386 0.0673 0.0
C396 C 0.06423 0.94509 0.97796 0.0
C397 C 0.06471 0.91261 0.12441 0.0
C398 C 0.07795 0.91609 0.94723 0.0
C399 C 0.08511 0.88534 0.0048 0.0
H400 H 0.67262 0.06232 0.14973 0.0
H401 H 0.73157 0.99483 0.00889 0.0
H402 H 0.68358 0.99643 0.90828 0.0
H403 H 0.623 1.01029 0.87268 0.0
H404 H 0.56166 0.07241 0.02252 0.0
H405 H 0.61236 0.07891 0.10864 0.0
C406 C 0.67503 0.04798 0.09697 0.0
C407 C 0.70563 0.02815 0.08788 0.0
C408 C 0.64671 0.04749 0.04201 0.0
C409 C 0.70858 1.0106 0.01738 0.0
C410 C 0.68094 0.0111 0.96032 0.0
C411 C 0.62068 0.02556 0.92359 0.0
C412 C 0.58855 0.04049 0.94198 0.0
C413 C 0.64959 0.02844 0.974 0.0
C414 C 0.58608 0.06037 0.00774 0.0
C415 C 0.61503 0.06411 0.05689 0.0
H416 H 0.44453 0.66988 0.12721 0.0
H417 H 0.53246 0.71061 0.9945 0.0
H418 H 0.53489 0.66568 0.90698 0.0
H419 H 0.51598 0.61186 0.87949 0.0
H420 H 0.42822 0.57015 0.0102 0.0
H421 H 0.42183 0.61842 0.08839 0.0
C422 C 0.46388 0.66911 0.07818 0.0
C423 C 0.48845 0.69333 0.06765 0.0
C424 C 0.46554 0.64279 0.02932 0.0
C425 C 0.51313 0.69245 0.00326 0.0
C426 C 0.51478 0.66654 0.95398 0.0
C427 C 0.49545 0.61331 0.92525 0.0
C428 C 0.47308 0.58723 0.94111 0.0
C429 C 0.49182 0.64107 0.96852 0.0
C430 C 0.44594 0.58984 0.99812 0.0
C431 C 0.44232 0.61737 0.04253 0.0
H432 H 0.82896 0.5125 0.14954 0.0
H433 H 0.85814 0.60912 0.19952 0.0
H434 H 0.91044 0.60297 0.11762 0.0
H435 H 0.94599 0.5716 0.02728 0.0
H436 H 0.91645 0.47582 0.97123 0.0
H437 H 0.86661 0.4794 0.06357 0.0
C438 C 0.84668 0.53229 0.14136 0.0
C439 C 0.83971 0.56148 0.17866 0.0
C440 C 0.87675 0.52837 0.09513 0.0
C441 C 0.86305 0.58666 0.17019 0.0
C442 C 0.89293 0.58303 0.12408 0.0
C443 C 0.92896 0.5512 0.03611 0.0
C444 C 0.93467 0.52365 0.99192 0.0
C445 C 0.89989 0.55409 0.08605 0.0
C446 C 0.91262 0.49725 0.00485 0.0
C447 C 0.88391 0.49952 0.05661 0.0
H448 H 0.95772 0.22266 0.16114 0.0
H449 H 0.06001 0.24609 0.21609 0.0
H450 H 0.08284 0.20915 0.11624 0.0
H451 H 0.07375 0.16437 0.02921 0.0
H452 H 0.97029 0.13968 0.98414 0.0
H453 H 0.94827 0.18276 0.06349 0.0
C454 C 0.98495 0.22045 0.1491 0.0
C455 C 0.00715 0.23713 0.19548 0.0
C456 C 0.99783 0.19821 0.09476 0.0
C457 C 0.04239 0.23389 0.18016 0.0
C458 C 0.05542 0.21233 0.1241 0.0
C459 C 0.04639 0.16829 0.0361 0.0
C460 C 0.02415 0.14767 1.00086 0.0
C461 C 0.03344 0.19329 0.08367 0.0
C462 C 0.98861 0.15429 0.00996 0.0
C463 C 0.97569 0.17922 0.05585 0.0
H464 H 0.28634 0.08948 0.22967 0.0
H465 H 0.28018 0.98383 0.21437 0.0
H466 H 0.32469 0.98736 0.1047 0.0
H467 H 0.37217 0.01783 0.03452 0.0
H468 H 0.37825 0.12384 0.05185 0.0
H469 H 0.32748 0.12266 0.13946 0.0
C470 C 0.29356 0.06778 0.19884 0.0
C471 C 0.27958 0.03663 0.22869 0.0
C472 C 0.32025 0.06966 0.13874 0.0
C473 C 0.28996 1.00829 0.19065 0.0
C474 C 0.31594 1.01016 0.12927 0.0
C475 C 0.36222 0.04093 0.05573 0.0
C476 C 0.38024 0.07056 0.03817 0.0
C477 C 0.33245 0.04029 0.10607 0.0
C478 C 0.36617 0.10018 0.06638 0.0
C479 C 0.33669 0.09972 0.11611 0.0
H480 H 0.55373 0.33607 0.19328 0.0
H481 H 0.44698 0.32518 0.24117 0.0
H482 H 0.43142 0.37179 0.11864 0.0
H483 H 0.44902 0.42141 0.01124 0.0
H484 H 0.55708 0.43315 0.97819 0.0
H485 H 0.57105 0.38135 0.08159 0.0
C486 C 0.52705 0.34314 0.17474 0.0
C487 C 0.50158 0.3271 0.2255 0.0
C488 C 0.51849 0.37115 0.10848 0.0
C489 C 0.46707 0.33675 0.20196 0.0
C490 C 0.45822 0.36389 0.13302 0.0
C491 C 0.47555 0.41251 0.02664 0.0
C492 C 0.50181 0.43179 0.98762 0.0
C493 C 0.48378 0.38233 0.08817 0.0
C494 C 0.53612 0.41951 0.00785 0.0
C495 C 0.54433 0.38955 0.06676 0.0
H496 H 0.15852 0.47771 0.16023 0.0
H497 H 0.19771 0.57073 0.03191 0.0
H498 H 0.15818 0.57307 0.90858 0.0
H499 H 0.10472 0.55515 0.85378 0.0
H500 H 0.06467 0.46243 0.98203 0.0
H501 H 0.1123 0.45311 0.08856 0.0
C502 C 0.1596 0.4974 0.10299 0.0
C503 C 0.18123 0.52381 0.10439 0.0
C504 C 0.13585 0.49917 0.03377 0.0
C505 C 0.1818 0.5498 0.03124 0.0
C506 C 0.15871 0.55146 0.96154 0.0
C507 C 0.10698 0.53244 0.90378 0.0
C508 C 0.08104 0.50975 0.91108 0.0
C509 C 0.13439 0.52734 0.96455 0.0
C510 C 0.08433 0.48024 0.9753 0.0
C511 C 0.11147 0.47504 0.03646 0.0
H512 H 0.04959 0.79266 0.55649 0.0
H513 H 0.9532 0.79741 0.41912 0.0
H514 H 0.92771 0.83642 0.50928 0.0
H515 H 0.93697 0.87888 0.60216 0.0
H516 H 0.03466 0.8759 0.73424 0.0
H517 H 0.05562 0.82738 0.6698 0.0
C518 C 0.02256 0.801 0.5493 0.0
C519 C 0.00345 0.79246 0.48055 0.0
C520 C 0.00875 0.82518 0.59749 0.0
C521 C 0.96846 0.8034 0.47175 0.0
C522 C 0.95409 0.82642 0.52203 0.0
C523 C 0.96258 0.86726 0.61863 0.0
C524 C 0.98445 0.88205 0.6711 0.0
C525 C 0.97464 0.83914 0.58108 0.0
C526 C 0.01753 0.86616 0.69166 0.0
C527 C 0.02951 0.83803 0.65551 0.0
H528 H 0.72707 0.94839 0.40144 0.0
H529 H 0.73182 0.05428 0.41595 0.0
H530 H 0.68727 0.05032 0.5255 0.0
H531 H 0.64018 0.0193 0.59584 0.0
H532 H 0.6354 0.91307 0.57911 0.0
H533 H 0.68623 0.91477 0.49158 0.0
C534 C 0.71953 0.97007 0.43206 0.0
C535 C 0.73313 1.0014 0.40206 0.0
C536 C 0.69281 0.96792 0.49205 0.0
C537 C 0.72233 0.0297 0.4398 0.0
C538 C 0.69633 0.02757 0.50112 0.0
C539 C 0.65043 0.99626 0.57479 0.0
C540 C 0.63279 0.9664 0.59253 0.0
C541 C 0.68021 0.99722 0.52449 0.0
C542 C 0.64721 0.93688 0.56446 0.0
C543 C 0.67672 0.93765 0.51479 0.0
H544 H 0.44957 0.68888 0.37337 0.0
H545 H 0.55501 0.70956 0.39567 0.0
H546 H 0.5634 0.66326 0.52228 0.0
H547 H 0.54207 0.61198 0.61458 0.0
H548 H 0.43676 0.59089 0.5822 0.0
H549 H 0.42729 0.64152 0.4711 0.0
C550 C 0.47409 0.68393 0.4079 0.0
C551 C 0.50154 0.70272 0.37579 0.0
C552 C 0.47906 0.65631 0.47716 0.0
C553 C 0.53333 0.69585 0.42016 0.0
C554 C 0.53825 0.66892 0.49146 0.0
C555 C 0.51709 0.6185 0.58316 0.0
C556 C 0.49037 0.59714 0.6063 0.0
C557 C 0.51161 0.64806 0.51837 0.0
C558 C 0.45801 0.6064 0.56557 0.0
C559 C 0.4524 0.63559 0.50208 0.0
H560 H 0.81202 0.6171 0.44561 0.0
H561 H 0.78789 0.51265 0.51169 0.0
H562 H 0.83037 0.50261 0.631 0.0
H563 H 0.88289 0.52013 0.69186 0.0
H564 H 0.90937 0.62388 0.61943 0.0
H565 H 0.85772 0.63769 0.52685 0.0
C566 C 0.81485 0.59268 0.48931 0.0
C567 C 0.79704 0.56558 0.46985 0.0
C568 C 0.84083 0.58664 0.554 0.0
C569 C 0.80104 0.53394 0.52596 0.0
C570 C 0.82595 0.52802 0.59286 0.0
C571 C 0.87707 0.54592 0.65684 0.0
C572 C 0.90036 0.57077 0.66063 0.0
C573 C 0.84746 0.55357 0.60342 0.0
C574 C 0.89209 0.60422 0.61668 0.0
C575 C 0.86255 0.61211 0.56378 0.0
loop_
_geom_bond_atom_site_label_1
_geom_bond_atom_site_label_2
_geom_bond_distance
_geom_bond_site_symmetry_2
_ccdc_geom_bond_type
H0 C3 0.931 . S
H1 C6 0.928 . S
H2 C8 0.930 . S
C3 H0 0.931 . S
C3 C4 1.413 . S
C3 C5 1.360 . S
C4 C3 1.413 . S
C4 C8 1.429 . S
C5 C3 1.360 . S
C5 C6 1.372 . S
C6 H1 0.928 . S
C6 C5 1.372 . S
C6 C7 1.404 . S
C7 C6 1.404 . S
C7 C8 1.391 . S
C8 H2 0.930 . S
C8 C4 1.429 . S
C8 C7 1.391 . S
H9 C12 0.931 . S
H10 C15 0.928 1_556 S
H11 C17 0.931 . S
C12 H9 0.931 . S
C12 C13 1.414 . S
C12 C14 1.360 . S
C13 C12 1.414 . S
C13 C17 1.430 1_655 S
C14 C12 1.360 . S
C14 C15 1.374 . S
C15 H10 0.928 1_554 S
C15 C14 1.374 . S
C15 C16 1.403 . S
C16 C15 1.403 . S
C16 C17 1.390 1_655 S
C17 H11 0.931 . S
C17 C13 1.430 1_455 S
C17 C16 1.390 1_455 S
H18 C21 0.931 . S
H19 C24 0.928 1_556 S
H20 C26 0.930 . S
C21 H18 0.931 . S
C21 C22 1.413 . S
C21 C23 1.360 . S
C22 C21 1.413 . S
C22 C26 1.429 . S
C23 C21 1.360 . S
C23 C24 1.372 . S
C24 H19 0.928 1_554 S
C24 C23 1.372 . S
C24 C25 1.404 . S
C25 C24 1.404 . S
C25 C26 1.391 . S
C26 H20 0.930 . S
C26 C22 1.429 . S
C26 C25 1.391 . S
H27 C30 0.931 . S
H28 C33 0.928 . S
H29 C35 0.930 1_556 S
C30 H27 0.931 . S
C30 C31 1.413 . S
C30 C32 1.360 . S
C31 C30 1.413 . S
C31 C35 1.429 . S
C32 C30 1.360 . S
C32 C33 1.372 . S
C33 H28 0.928 . S
C33 C32 1.372 . S
C33 C34 1.404 . S
C34 C33 1.404 . S
C34 C35 1.391 . S
C35 H29 0.930 1_554 S
C35 C31 1.429 . S
C35 C34 1.391 . S
H36 C39 0.931 . S
H37 C42 0.928 . S
H38 C44 0.930 . S
C39 H36 0.931 . S
C39 C40 1.413 . S
C39 C41 1.360 . S
C40 C39 1.413 . S
C40 C44 1.429 . S
C41 C39 1.360 . S
C41 C42 1.372 . S
C42 H37 0.928 . S
C42 C41 1.372 . S
C42 C43 1.404 . S
C43 C42 1.404 . S
C43 C44 1.391 . S
C44 H38 0.930 . S
C44 C40 1.429 . S
C44 C43 1.391 . S
H45 C48 0.930 . S
H46 C51 0.928 . S
H47 C53 0.931 . S
C48 H45 0.930 . S
C48 C49 1.413 . S
C48 C50 1.360 . S
C49 C48 1.413 . S
C49 C53 1.428 1_655 S
C50 C48 1.360 . S
C50 C51 1.371 . S
C51 H46 0.928 . S
C51 C50 1.371 . S
C51 C52 1.404 . S
C52 C51 1.404 . S
C52 C53 1.391 1_655 S
C53 H47 0.931 . S
C53 C49 1.428 1_455 S
C53 C52 1.391 1_455 S
H54 C57 0.931 . S
H55 C60 0.928 . S
H56 C62 0.930 . S
C57 H54 0.931 . S
C57 C58 1.413 . S
C57 C59 1.360 . S
C58 C57 1.413 . S
C58 C62 1.429 . S
C59 C57 1.360 . S
C59 C60 1.372 . S
C60 H55 0.928 . S
C60 C59 1.372 . S
C60 C61 1.404 . S
C61 C60 1.404 . S
C61 C62 1.391 . S
C62 H56 0.930 . S
C62 C58 1.429 . S
C62 C61 1.391 . S
H63 C66 0.931 . S
H64 C69 0.928 . S
H65 C71 0.930 . S
C66 H63 0.931 . S
C66 C67 1.413 . S
C66 C68 1.360 . S
C67 C66 1.413 . S
C67 C71 1.429 . S
C68 C66 1.360 . S
C68 C69 1.372 . S
C69 H64 0.928 . S
C69 C68 1.372 . S
C69 C70 1.404 . S
C70 C69 1.404 . S
C70 C71 1.391 . S
C71 H65 0.930 . S
C71 C67 1.429 . S
C71 C70 1.391 . S
Co72 N77 2.061 . S
Co72 O89 2.021 . S
Co72 O92 2.062 1_455 S
Co72 O96 2.117 1_455 S
Co72 O97 2.020 1_545 S
C73 O93 1.259 1_545 S
C73 O96 1.258 . S
Co74 N83 2.074 . S
Co74 O90 2.111 1_665 S
Co74 O91 1.999 1_565 S
Co74 O93 2.024 . S
Co74 O98 2.078 1_655 S
C75 N77 1.340 1_554 S
C75 N78 1.347 . S
C75 H80 0.931 1_554 S
C76 N77 1.347 1_654 S
C76 C79 1.350 . S
C76 H81 0.930 . S
N77 Co72 2.061 . S
N77 C75 1.340 1_556 S
N77 C76 1.347 1_456 S
N78 C75 1.347 . S
N78 C79 1.373 1_455 S
C79 C76 1.350 . S
C79 N78 1.373 1_655 S
C79 H100 0.931 . S
H80 C75 0.931 1_556 S
H81 C76 0.930 . S
C82 O89 1.259 . S
C82 O90 1.258 . S
N83 Co74 2.074 . S
N83 C84 1.335 . S
N83 C85 1.353 1_655 S
C84 N83 1.335 . S
C84 N86 1.347 . S
C84 H95 0.931 . S
C85 N83 1.353 1_455 S
C85 C87 1.350 . S
C85 H94 0.930 . S
N86 C84 1.347 . S
N86 C87 1.373 1_655 S
C87 C85 1.350 . S
C87 N86 1.373 1_455 S
C87 H101 0.931 . S
C88 O91 1.256 . S
C88 O92 1.255 . S
O89 Co72 2.021 . S
O89 C82 1.259 . S
O90 Co74 2.111 1_445 S
O90 C82 1.258 . S
O91 Co74 1.999 1_545 S
O91 C88 1.256 . S
O92 Co72 2.062 1_655 S
O92 C88 1.255 . S
O93 C73 1.259 1_565 S
O93 Co74 2.024 . S
H94 C85 0.930 . S
H95 C84 0.931 . S
O96 Co72 2.117 1_655 S
O96 C73 1.258 . S
O97 Co72 2.020 1_565 S
O97 C99 1.256 . S
O98 Co74 2.078 1_455 S
O98 C99 1.255 . S
C99 O97 1.256 . S
C99 O98 1.255 . S
H100 C79 0.931 . S
H101 C87 0.931 . S
Co102 N107 2.057 . S
Co102 O119 2.021 . S
Co102 O122 2.062 . S
Co102 O126 2.117 1_545 S
Co102 O127 2.020 . S
C103 O123 1.259 . S
C103 O126 1.258 . S
Co104 N113 2.059 . S
Co104 O120 2.117 . S
Co104 O121 2.020 . S
Co104 O123 2.021 1_545 S
Co104 O128 2.062 1_545 S
C105 N107 1.316 1_554 S
C105 N108 1.347 . S
C105 H110 0.931 1_554 S
C106 N107 1.395 1_554 S
C106 C109 1.362 . S
C106 H111 0.902 1_545 S
N107 Co102 2.057 . S
N107 C105 1.316 1_556 S
N107 C106 1.395 1_556 S
N108 C105 1.347 . S
N108 C109 1.373 . S
C109 C106 1.362 . S
C109 N108 1.373 . S
C109 H130 0.928 1_545 S
H110 C105 0.931 1_556 S
H111 C106 0.902 1_565 S
C112 O119 1.259 . S
C112 O120 1.258 . S
N113 Co104 2.059 . S
N113 C114 1.303 1_545 S
N113 C115 1.385 . S
C114 N113 1.303 1_565 S
C114 N116 1.347 . S
C114 H125 0.931 . S
C115 N113 1.385 . S
C115 C117 1.350 . S
C115 H124 0.930 . S
N116 C114 1.347 . S
N116 C117 1.373 1_565 S
C117 C115 1.350 . S
C117 N116 1.373 1_545 S
C117 H131 0.931 . S
C118 O121 1.256 . S
C118 O122 1.255 . S
O119 Co102 2.021 . S
O119 C112 1.259 . S
O120 Co104 2.117 . S
O120 C112 1.258 . S
O121 Co104 2.020 . S
O121 C118 1.256 . S
O122 Co102 2.062 . S
O122 C118 1.255 . S
O123 C103 1.259 . S
O123 Co104 2.021 1_565 S
H124 C115 0.930 . S
H125 C114 0.931 . S
O126 Co102 2.117 1_565 S
O126 C103 1.258 . S
O127 Co102 2.020 . S
O127 C129 1.256 . S
O128 Co104 2.062 1_565 S
O128 C129 1.255 1_565 S
C129 O127 1.256 . S
C129 O128 1.255 1_545 S
H130 C109 0.928 1_565 S
H131 C117 0.931 . S
Co132 N137 2.057 . S
Co132 O149 2.021 . S
Co132 O152 2.062 . S
Co132 O156 2.117 . S
Co132 O157 2.020 . S
C133 O153 1.259 . S
C133 O156 1.258 . S
Co134 N143 2.057 . S
Co134 O150 2.117 . S
Co134 O151 2.020 . S
Co134 O153 2.021 . S
Co134 O158 2.062 . S
C135 N137 1.316 . S
C135 N138 1.347 . S
C135 H140 0.931 . S
C136 N137 1.375 . S
C136 C139 1.350 . S
C136 H141 0.930 . S
N137 Co132 2.057 . S
N137 C135 1.316 . S
N137 C136 1.375 . S
N138 C135 1.347 . S
N138 C139 1.373 . S
C139 C136 1.350 . S
C139 N138 1.373 . S
C139 H160 0.930 . S
H140 C135 0.931 . S
H141 C136 0.930 . S
C142 O149 1.259 . S
C142 O150 1.258 . S
N143 Co134 2.057 . S
N143 C144 1.316 . S
N143 C145 1.375 . S
C144 N143 1.316 . S
C144 N146 1.347 . S
C144 H155 0.931 . S
C145 N143 1.375 . S
C145 C147 1.350 . S
C145 H154 0.930 . S
N146 C144 1.347 . S
N146 C147 1.373 . S
C147 C145 1.350 . S
C147 N146 1.373 . S
C147 H161 0.931 . S
C148 O151 1.256 . S
C148 O152 1.255 . S
O149 Co132 2.021 . S
O149 C142 1.259 . S
O150 Co134 2.117 . S
O150 C142 1.258 . S
O151 Co134 2.020 . S
O151 C148 1.256 . S
O152 Co132 2.062 . S
O152 C148 1.255 . S
O153 C133 1.259 . S
O153 Co134 2.021 . S
H154 C145 0.930 . S
H155 C144 0.931 . S
O156 Co132 2.117 . S
O156 C133 1.258 . S
O157 Co132 2.020 . S
O157 C159 1.256 . S
O158 Co134 2.062 . S
O158 C159 1.255 . S
C159 O157 1.256 . S
C159 O158 1.255 . S
H160 C139 0.930 . S
H161 C147 0.931 . S
Co162 N167 2.057 . S
Co162 O179 2.021 1_455 S
Co162 O182 2.062 1_455 S
Co162 O186 2.117 . S
Co162 O187 2.020 . S
C163 O183 1.259 . S
C163 O186 1.258 . S
Co164 N173 2.057 . S
Co164 O180 2.117 . S
Co164 O181 2.020 . S
Co164 O183 2.021 1_655 S
Co164 O188 2.062 1_655 S
C165 N167 1.316 . S
C165 N168 1.347 . S
C165 H170 0.931 1_455 S
C166 N167 1.375 . S
C166 C169 1.350 . S
C166 H171 0.930 . S
N167 Co162 2.057 . S
N167 C165 1.316 . S
N167 C166 1.375 . S
N168 C165 1.347 . S
N168 C169 1.373 . S
C169 C166 1.350 . S
C169 N168 1.373 . S
C169 H190 0.931 . S
H170 C165 0.931 1_655 S
H171 C166 0.930 . S
C172 O179 1.259 . S
C172 O180 1.258 . S
N173 Co164 2.057 . S
N173 C174 1.316 . S
N173 C175 1.375 . S
C174 N173 1.316 . S
C174 N176 1.347 . S
C174 H185 0.931 1_655 S
C175 N173 1.375 . S
C175 C177 1.350 . S
C175 H184 0.930 . S
N176 C174 1.347 . S
N176 C177 1.373 . S
C177 C175 1.350 . S
C177 N176 1.373 . S
C177 H191 0.931 . S
C178 O181 1.256 . S
C178 O182 1.255 . S
O179 Co162 2.021 1_655 S
O179 C172 1.259 . S
O180 Co164 2.117 . S
O180 C172 1.258 . S
O181 Co164 2.020 . S
O181 C178 1.256 . S
O182 Co162 2.062 1_655 S
O182 C178 1.255 . S
O183 C163 1.259 . S
O183 Co164 2.021 1_455 S
H184 C175 0.930 . S
H185 C174 0.931 1_455 S
O186 Co162 2.117 . S
O186 C163 1.258 . S
O187 Co162 2.020 . S
O187 C189 1.256 . S
O188 Co164 2.062 1_455 S
O188 C189 1.255 . S
C189 O187 1.256 . S
C189 O188 1.255 . S
H190 C169 0.931 . S
H191 C177 0.931 . S
H192 C198 0.930 . S
H193 C201 0.930 . S
H194 C202 0.930 . S
H195 C203 0.930 . S
H196 C206 0.930 . S
H197 C207 0.930 . S
C198 H192 0.930 . S
C198 C199 1.355 . S
C198 C200 1.415 . S
C199 C198 1.355 . S
C199 C201 1.419 . S
C200 C198 1.415 . S
C200 C205 1.425 . S
C200 C207 1.409 . S
C201 H193 0.930 . S
C201 C199 1.419 . S
C201 C202 1.362 . S
C202 H194 0.930 . S
C202 C201 1.362 . S
C202 C205 1.409 . S
C203 H195 0.930 . S
C203 C204 1.355 . S
C203 C205 1.415 . S
C204 C203 1.355 . S
C204 C206 1.419 . S
C205 C200 1.425 . S
C205 C202 1.409 . S
C205 C203 1.415 . S
C206 H196 0.930 . S
C206 C204 1.419 . S
C206 C207 1.362 . S
C207 H197 0.930 . S
C207 C200 1.409 . S
C207 C206 1.362 . S
H208 C214 0.930 . S
H209 C217 0.930 . S
H210 C218 0.930 . S
H211 C219 0.930 . S
H212 C222 0.930 . S
H213 C223 0.930 . S
C214 H208 0.930 . S
C214 C215 1.355 . S
C214 C216 1.415 . S
C215 C214 1.355 . S
C215 C217 1.419 . S
C216 C214 1.415 . S
C216 C221 1.425 . S
C216 C223 1.409 . S
C217 H209 0.930 . S
C217 C215 1.419 . S
C217 C218 1.362 . S
C218 H210 0.930 . S
C218 C217 1.362 . S
C218 C221 1.409 . S
C219 H211 0.930 . S
C219 C220 1.355 . S
C219 C221 1.415 . S
C220 C219 1.355 . S
C220 C222 1.419 . S
C221 C216 1.425 . S
C221 C218 1.409 . S
C221 C219 1.415 . S
C222 H212 0.930 . S
C222 C220 1.419 . S
C222 C223 1.362 . S
C223 H213 0.930 . S
C223 C216 1.409 . S
C223 C222 1.362 . S
H224 C230 0.930 . S
H225 C233 0.930 . S
H226 C234 0.930 . S
H227 C235 0.930 . S
H228 C238 0.930 . S
H229 C239 0.930 . S
C230 H224 0.930 . S
C230 C231 1.355 . S
C230 C232 1.415 . S
C231 C230 1.355 . S
C231 C233 1.419 . S
C232 C230 1.415 . S
C232 C237 1.425 . S
C232 C239 1.409 . S
C233 H225 0.930 . S
C233 C231 1.419 . S
C233 C234 1.362 . S
C234 H226 0.930 . S
C234 C233 1.362 . S
C234 C237 1.409 . S
C235 H227 0.930 . S
C235 C236 1.355 . S
C235 C237 1.415 . S
C236 C235 1.355 . S
C236 C238 1.419 . S
C237 C232 1.425 . S
C237 C234 1.409 . S
C237 C235 1.415 . S
C238 H228 0.930 . S
C238 C236 1.419 . S
C238 C239 1.362 . S
C239 H229 0.930 . S
C239 C232 1.409 . S
C239 C238 1.362 . S
H240 C246 0.930 . S
H241 C249 0.930 . S
H242 C250 0.930 . S
H243 C251 0.930 . S
H244 C254 0.930 . S
H245 C255 0.930 . S
C246 H240 0.930 . S
C246 C247 1.355 1_455 S
C246 C248 1.411 1_455 S
C247 C246 1.355 1_655 S
C247 C249 1.419 . S
C248 C246 1.411 1_655 S
C248 C253 1.439 . S
C248 C255 1.400 1_655 S
C249 H241 0.930 . S
C249 C247 1.419 . S
C249 C250 1.362 . S
C250 H242 0.930 . S
C250 C249 1.362 . S
C250 C253 1.409 . S
C251 H243 0.930 . S
C251 C252 1.355 . S
C251 C253 1.415 . S
C252 C251 1.355 . S
C252 C254 1.419 1_655 S
C253 C248 1.439 . S
C253 C250 1.409 . S
C253 C251 1.415 . S
C254 H244 0.930 . S
C254 C252 1.419 1_455 S
C254 C255 1.362 . S
C255 H245 0.930 . S
C255 C248 1.400 1_455 S
C255 C254 1.362 . S
H256 C262 0.930 . S
H257 C265 0.930 . S
H258 C266 0.930 . S
H259 C267 0.930 . S
H260 C270 0.930 . S
H261 C271 0.930 1_545 S
C262 H256 0.930 . S
C262 C263 1.355 1_556 S
C262 C264 1.415 . S
C263 C262 1.355 1_554 S
C263 C265 1.419 . S
C264 C262 1.415 . S
C264 C269 1.425 . S
C264 C271 1.409 . S
C265 H257 0.930 . S
C265 C263 1.419 . S
C265 C266 1.362 . S
C266 H258 0.930 . S
C266 C265 1.362 . S
C266 C269 1.409 1_554 S
C267 H259 0.930 . S
C267 C268 1.355 . S
C267 C269 1.415 . S
C268 C267 1.355 . S
C268 C270 1.419 1_565 S
C269 C264 1.425 . S
C269 C266 1.409 1_556 S
C269 C267 1.415 . S
C270 H260 0.930 . S
C270 C268 1.419 1_545 S
C270 C271 1.362 1_545 S
C271 H261 0.930 1_565 S
C271 C264 1.409 . S
C271 C270 1.362 1_565 S
H272 C278 0.930 . S
H273 C281 0.930 . S
H274 C282 0.930 . S
H275 C283 0.930 . S
H276 C286 0.930 . S
H277 C287 0.930 . S
C278 H272 0.930 . S
C278 C279 1.355 . S
C278 C280 1.415 . S
C279 C278 1.355 . S
C279 C281 1.419 1_554 S
C280 C278 1.415 . S
C280 C285 1.425 1_554 S
C280 C287 1.409 . S
C281 H273 0.930 . S
C281 C279 1.419 1_556 S
C281 C282 1.362 . S
C282 H274 0.930 . S
C282 C281 1.362 . S
C282 C285 1.409 . S
C283 H275 0.930 . S
C283 C284 1.355 . S
C283 C285 1.415 . S
C284 C283 1.355 . S
C284 C286 1.419 . S
C285 C280 1.425 1_556 S
C285 C282 1.409 . S
C285 C283 1.415 . S
C286 H276 0.930 . S
C286 C284 1.419 . S
C286 C287 1.362 1_556 S
C287 H277 0.930 . S
C287 C280 1.409 . S
C287 C286 1.362 1_554 S
H288 C294 0.930 . S
H289 C297 0.930 . S
H290 C298 0.930 . S
H291 C299 0.930 . S
H292 C302 0.930 . S
H293 C303 0.930 . S
C294 H288 0.930 . S
C294 C295 1.355 . S
C294 C296 1.415 1_554 S
C295 C294 1.355 . S
C295 C297 1.419 . S
C296 C294 1.415 1_556 S
C296 C301 1.425 1_556 S
C296 C303 1.409 . S
C297 H289 0.930 . S
C297 C295 1.419 . S
C297 C298 1.362 . S
C298 H290 0.930 . S
C298 C297 1.362 . S
C298 C301 1.409 . S
C299 H291 0.930 . S
C299 C300 1.355 . S
C299 C301 1.415 1_556 S
C300 C299 1.355 . S
C300 C302 1.419 . S
C301 C296 1.425 1_554 S
C301 C298 1.409 . S
C301 C299 1.415 1_554 S
C302 H292 0.930 . S
C302 C300 1.419 . S
C302 C303 1.362 . S
C303 H293 0.930 . S
C303 C296 1.409 . S
C303 C302 1.362 . S
H304 C310 0.930 . S
H305 C313 0.930 . S
H306 C314 0.930 . S
H307 C315 0.930 . S
H308 C318 0.930 . S
H309 C319 0.930 1_554 S
C310 H304 0.930 . S
C310 C311 1.339 1_455 S
C310 C312 1.415 . S
C311 C310 1.339 1_655 S
C311 C313 1.437 . S
C312 C310 1.415 . S
C312 C317 1.425 1_454 S
C312 C319 1.409 1_554 S
C313 H305 0.930 . S
C313 C311 1.437 . S
C313 C314 1.362 1_554 S
C314 H306 0.930 . S
C314 C313 1.362 1_556 S
C314 C317 1.409 . S
C315 H307 0.930 . S
C315 C316 1.355 1_655 S
C315 C317 1.415 . S
C316 C315 1.355 1_455 S
C316 C318 1.419 . S
C317 C312 1.425 1_656 S
C317 C314 1.409 . S
C317 C315 1.415 . S
C318 H308 0.930 . S
C318 C316 1.419 . S
C318 C319 1.362 . S
C319 H309 0.930 1_556 S
C319 C312 1.409 1_556 S
C319 C318 1.362 . S
H320 C326 0.930 . S
H321 C329 0.930 . S
H322 C330 0.930 . S
H323 C331 0.930 . S
H324 C334 0.930 . S
H325 C335 0.930 . S
C326 H320 0.930 . S
C326 C327 1.355 1_655 S
C326 C328 1.415 . S
C327 C326 1.355 1_455 S
C327 C329 1.419 . S
C328 C326 1.415 . S
C328 C333 1.425 1_655 S
C328 C335 1.409 . S
C329 H321 0.930 . S
C329 C327 1.419 . S
C329 C330 1.362 . S
C330 H322 0.930 . S
C330 C329 1.362 . S
C330 C333 1.409 . S
C331 H323 0.930 . S
C331 C332 1.355 1_455 S
C331 C333 1.415 . S
C332 C331 1.355 1_655 S
C332 C334 1.419 . S
C333 C328 1.425 1_455 S
C333 C330 1.409 . S
C333 C331 1.415 . S
C334 H324 0.930 . S
C334 C332 1.419 . S
C334 C335 1.362 . S
C335 H325 0.930 . S
C335 C328 1.409 . S
C335 C334 1.362 . S
H336 C342 0.930 . S
H337 C345 0.930 . S
H338 C346 0.930 . S
H339 C347 0.930 . S
H340 C350 0.930 1_565 S
H341 C351 0.930 . S
C342 H336 0.930 . S
C342 C343 1.355 . S
C342 C344 1.415 . S
C343 C342 1.355 . S
C343 C345 1.419 . S
C344 C342 1.415 . S
C344 C349 1.425 . S
C344 C351 1.409 . S
C345 H337 0.930 . S
C345 C343 1.419 . S
C345 C346 1.362 . S
C346 H338 0.930 . S
C346 C345 1.362 . S
C346 C349 1.409 . S
C347 H339 0.930 . S
C347 C348 1.355 . S
C347 C349 1.415 . S
C348 C347 1.355 . S
C348 C350 1.419 . S
C349 C344 1.425 . S
C349 C346 1.409 . S
C349 C347 1.415 . S
C350 H340 0.930 1_545 S
C350 C348 1.419 . S
C350 C351 1.362 . S
C351 H341 0.930 . S
C351 C344 1.409 . S
C351 C350 1.362 . S
H352 C358 0.930 . S
H353 C361 0.930 . S
H354 C362 0.930 . S
H355 C363 0.930 . S
H356 C366 0.930 . S
H357 C367 0.930 . S
C358 H352 0.930 . S
C358 C359 1.355 . S
C358 C360 1.415 . S
C359 C358 1.355 . S
C359 C361 1.419 . S
C360 C358 1.415 . S
C360 C365 1.425 . S
C360 C367 1.409 . S
C361 H353 0.930 . S
C361 C359 1.419 . S
C361 C362 1.362 . S
C362 H354 0.930 . S
C362 C361 1.362 . S
C362 C365 1.409 . S
C363 H355 0.930 . S
C363 C364 1.355 . S
C363 C365 1.415 . S
C364 C363 1.355 . S
C364 C366 1.419 . S
C365 C360 1.425 . S
C365 C362 1.409 . S
C365 C363 1.415 . S
C366 H356 0.930 . S
C366 C364 1.419 . S
C366 C367 1.362 . S
C367 H357 0.930 . S
C367 C360 1.409 . S
C367 C366 1.362 . S
H368 C374 0.930 . S
H369 C377 0.930 . S
H370 C378 0.930 . S
H371 C379 0.930 . S
H372 C382 0.930 . S
H373 C383 0.930 . S
C374 H368 0.930 . S
C374 C375 1.355 . S
C374 C376 1.415 . S
C375 C374 1.355 . S
C375 C377 1.419 . S
C376 C374 1.415 . S
C376 C381 1.425 . S
C376 C383 1.409 . S
C377 H369 0.930 . S
C377 C375 1.419 . S
C377 C378 1.362 . S
C378 H370 0.930 . S
C378 C377 1.362 . S
C378 C381 1.409 . S
C379 H371 0.930 . S
C379 C380 1.355 . S
C379 C381 1.415 . S
C380 C379 1.355 . S
C380 C382 1.419 . S
C381 C376 1.425 . S
C381 C378 1.409 . S
C381 C379 1.415 . S
C382 H372 0.930 . S
C382 C380 1.419 . S
C382 C383 1.362 . S
C383 H373 0.930 . S
C383 C376 1.409 . S
C383 C382 1.362 . S
H384 C390 0.930 . S
H385 C393 0.930 . S
H386 C394 0.930 . S
H387 C395 0.930 1_554 S
H388 C398 0.930 . S
H389 C399 0.930 . S
C390 H384 0.930 . S
C390 C391 1.355 1_456 S
C390 C392 1.415 . S
C391 C390 1.355 1_654 S
C391 C393 1.419 . S
C392 C390 1.415 . S
C392 C397 1.425 1_556 S
C392 C399 1.409 . S
C393 H385 0.930 . S
C393 C391 1.419 . S
C393 C394 1.362 . S
C394 H386 0.930 . S
C394 C393 1.362 . S
C394 C397 1.409 1_655 S
C395 H387 0.930 1_556 S
C395 C396 1.355 . S
C395 C397 1.415 1_556 S
C396 C395 1.355 . S
C396 C398 1.419 . S
C397 C392 1.425 1_554 S
C397 C394 1.409 1_455 S
C397 C395 1.415 1_554 S
C398 H388 0.930 . S
C398 C396 1.419 . S
C398 C399 1.362 . S
C399 H389 0.930 . S
C399 C392 1.409 . S
C399 C398 1.362 . S
H400 C406 0.930 . S
H401 C409 0.930 . S
H402 C410 0.930 . S
H403 C411 0.930 . S
H404 C414 0.930 . S
H405 C415 0.930 . S
C406 H400 0.930 . S
C406 C407 1.355 . S
C406 C408 1.415 . S
C407 C406 1.355 . S
C407 C409 1.419 1_554 S
C408 C406 1.415 . S
C408 C413 1.425 1_554 S
C408 C415 1.409 . S
C409 H401 0.930 . S
C409 C407 1.419 1_556 S
C409 C410 1.362 . S
C410 H402 0.930 . S
C410 C409 1.362 . S
C410 C413 1.409 . S
C411 H403 0.930 . S
C411 C412 1.339 1_565 S
C411 C413 1.415 . S
C412 C411 1.339 1_545 S
C412 C414 1.426 1_556 S
C413 C408 1.425 1_556 S
C413 C410 1.409 . S
C413 C411 1.415 . S
C414 H404 0.930 . S
C414 C412 1.426 1_554 S
C414 C415 1.362 1_545 S
C415 H405 0.930 . S
C415 C408 1.409 . S
C415 C414 1.362 1_565 S
H416 C422 0.930 . S
H417 C425 0.930 . S
H418 C426 0.930 . S
H419 C427 0.930 . S
H420 C430 0.930 . S
H421 C431 0.930 . S
C422 H416 0.930 . S
C422 C423 1.355 . S
C422 C424 1.415 . S
C423 C422 1.355 . S
C423 C425 1.419 1_554 S
C424 C422 1.415 . S
C424 C429 1.425 1_554 S
C424 C431 1.409 . S
C425 H417 0.930 . S
C425 C423 1.419 1_556 S
C425 C426 1.362 . S
C426 H418 0.930 . S
C426 C425 1.362 . S
C426 C429 1.409 . S
C427 H419 0.930 . S
C427 C428 1.355 . S
C427 C429 1.415 . S
C428 C427 1.355 . S
C428 C430 1.419 1_556 S
C429 C424 1.425 1_556 S
C429 C426 1.409 . S
C429 C427 1.415 . S
C430 H420 0.930 . S
C430 C428 1.419 1_554 S
C430 C431 1.362 . S
C431 H421 0.930 . S
C431 C424 1.409 . S
C431 C430 1.362 . S
H432 C438 0.930 . S
H433 C441 0.930 . S
H434 C442 0.930 . S
H435 C443 0.930 . S
H436 C446 0.930 . S
H437 C447 0.930 . S
C438 H432 0.930 . S
C438 C439 1.355 . S
C438 C440 1.415 1_554 S
C439 C438 1.355 . S
C439 C441 1.419 . S
C440 C438 1.415 1_556 S
C440 C445 1.425 . S
C440 C447 1.409 . S
C441 H433 0.930 . S
C441 C439 1.419 . S
C441 C442 1.362 . S
C442 H434 0.930 . S
C442 C441 1.362 . S
C442 C445 1.409 1_554 S
C443 H435 0.930 . S
C443 C444 1.355 . S
C443 C445 1.415 . S
C444 C443 1.355 . S
C444 C446 1.419 . S
C445 C440 1.425 . S
C445 C442 1.409 1_556 S
C445 C443 1.415 . S
C446 H436 0.930 . S
C446 C444 1.419 . S
C446 C447 1.362 . S
C447 H437 0.930 . S
C447 C440 1.409 . S
C447 C446 1.362 . S
H448 C454 0.930 . S
H449 C457 0.930 . S
H450 C458 0.930 . S
H451 C459 0.930 . S
H452 C462 0.930 . S
H453 C463 0.930 . S
C454 H448 0.930 . S
C454 C455 1.355 1_655 S
C454 C456 1.415 . S
C455 C454 1.355 1_455 S
C455 C457 1.419 . S
C456 C454 1.415 . S
C456 C461 1.425 1_655 S
C456 C463 1.409 . S
C457 H449 0.930 . S
C457 C455 1.419 . S
C457 C458 1.362 . S
C458 H450 0.930 . S
C458 C457 1.362 . S
C458 C461 1.409 . S
C459 H451 0.930 . S
C459 C460 1.355 . S
C459 C461 1.415 . S
C460 C459 1.355 . S
C460 C462 1.419 1_455 S
C461 C456 1.425 1_455 S
C461 C458 1.409 . S
C461 C459 1.415 . S
C462 H452 0.930 . S
C462 C460 1.419 1_655 S
C462 C463 1.362 . S
C463 H453 0.930 . S
C463 C456 1.409 . S
C463 C462 1.362 . S
H464 C470 0.930 . S
H465 C473 0.930 . S
H466 C474 0.930 . S
H467 C475 0.930 . S
H468 C478 0.930 . S
H469 C479 0.930 . S
C470 H464 0.930 . S
C470 C471 1.355 . S
C470 C472 1.415 . S
C471 C470 1.355 . S
C471 C473 1.419 . S
C472 C470 1.415 . S
C472 C477 1.425 . S
C472 C479 1.409 . S
C473 H465 0.930 . S
C473 C471 1.419 . S
C473 C474 1.362 . S
C474 H466 0.930 . S
C474 C473 1.362 . S
C474 C477 1.409 . S
C475 H467 0.930 . S
C475 C476 1.355 . S
C475 C477 1.415 . S
C476 C475 1.355 . S
C476 C478 1.419 . S
C477 C472 1.425 . S
C477 C474 1.409 . S
C477 C475 1.415 . S
C478 H468 0.930 . S
C478 C476 1.419 . S
C478 C479 1.362 . S
C479 H469 0.930 . S
C479 C472 1.409 . S
C479 C478 1.362 . S
H480 C486 0.930 . S
H481 C489 0.930 . S
H482 C490 0.930 . S
H483 C491 0.930 . S
H484 C494 0.930 . S
H485 C495 0.930 . S
C486 H480 0.930 . S
C486 C487 1.355 . S
C486 C488 1.415 . S
C487 C486 1.355 . S
C487 C489 1.419 . S
C488 C486 1.415 . S
C488 C493 1.425 . S
C488 C495 1.409 . S
C489 H481 0.930 . S
C489 C487 1.419 . S
C489 C490 1.362 . S
C490 H482 0.930 . S
C490 C489 1.362 . S
C490 C493 1.409 . S
C491 H483 0.930 . S
C491 C492 1.355 . S
C491 C493 1.415 . S
C492 C491 1.355 . S
C492 C494 1.419 . S
C493 C488 1.425 . S
C493 C490 1.409 . S
C493 C491 1.415 . S
C494 H484 0.930 . S
C494 C492 1.419 . S
C494 C495 1.362 . S
C495 H485 0.930 . S
C495 C488 1.409 . S
C495 C494 1.362 . S
H496 C502 0.930 . S
H497 C505 0.930 . S
H498 C506 0.930 . S
H499 C507 0.930 . S
H500 C510 0.930 . S
H501 C511 0.930 . S
C502 H496 0.930 . S
C502 C503 1.355 . S
C502 C504 1.415 . S
C503 C502 1.355 . S
C503 C505 1.419 . S
C504 C502 1.415 . S
C504 C509 1.425 . S
C504 C511 1.409 . S
C505 H497 0.930 . S
C505 C503 1.419 . S
C505 C506 1.362 . S
C506 H498 0.930 . S
C506 C505 1.362 . S
C506 C509 1.409 . S
C507 H499 0.930 . S
C507 C508 1.355 . S
C507 C509 1.415 . S
C508 C507 1.355 . S
C508 C510 1.419 1_554 S
C509 C504 1.425 . S
C509 C506 1.409 . S
C509 C507 1.415 . S
C510 H500 0.930 . S
C510 C508 1.419 1_556 S
C510 C511 1.362 1_556 S
C511 H501 0.930 . S
C511 C504 1.409 . S
C511 C510 1.362 1_554 S
H512 C518 0.930 . S
H513 C521 0.930 . S
H514 C522 0.930 . S
H515 C523 0.930 . S
H516 C526 0.930 . S
H517 C527 0.930 . S
C518 H512 0.930 . S
C518 C519 1.355 1_455 S
C518 C520 1.415 . S
C519 C518 1.355 1_655 S
C519 C521 1.419 . S
C520 C518 1.415 . S
C520 C525 1.425 1_455 S
C520 C527 1.409 . S
C521 H513 0.930 . S
C521 C519 1.419 . S
C521 C522 1.362 . S
C522 H514 0.930 . S
C522 C521 1.362 . S
C522 C525 1.409 . S
C523 H515 0.930 . S
C523 C524 1.355 . S
C523 C525 1.415 . S
C524 C523 1.355 . S
C524 C526 1.419 1_655 S
C525 C520 1.425 1_655 S
C525 C522 1.409 . S
C525 C523 1.415 . S
C526 H516 0.930 . S
C526 C524 1.419 1_455 S
C526 C527 1.362 . S
C527 H517 0.930 . S
C527 C520 1.409 . S
C527 C526 1.362 . S
H528 C534 0.930 . S
H529 C537 0.930 . S
H530 C538 0.930 . S
H531 C539 0.930 . S
H532 C542 0.930 . S
H533 C543 0.930 . S
C534 H528 0.930 . S
C534 C535 1.355 . S
C534 C536 1.415 . S
C535 C534 1.355 . S
C535 C537 1.419 . S
C536 C534 1.415 . S
C536 C541 1.425 . S
C536 C543 1.409 . S
C537 H529 0.930 . S
C537 C535 1.419 . S
C537 C538 1.362 . S
C538 H530 0.930 . S
C538 C537 1.362 . S
C538 C541 1.409 . S
C539 H531 0.930 . S
C539 C540 1.355 . S
C539 C541 1.415 . S
C540 C539 1.355 . S
C540 C542 1.419 . S
C541 C536 1.425 . S
C541 C538 1.409 . S
C541 C539 1.415 . S
C542 H532 0.930 . S
C542 C540 1.419 . S
C542 C543 1.362 . S
C543 H533 0.930 . S
C543 C536 1.409 . S
C543 C542 1.362 . S
H544 C550 0.930 . S
H545 C553 0.930 . S
H546 C554 0.930 . S
H547 C555 0.930 . S
H548 C558 0.930 . S
H549 C559 0.930 . S
C550 H544 0.930 . S
C550 C551 1.355 . S
C550 C552 1.415 . S
C551 C550 1.355 . S
C551 C553 1.419 . S
C552 C550 1.415 . S
C552 C557 1.425 . S
C552 C559 1.409 . S
C553 H545 0.930 . S
C553 C551 1.419 . S
C553 C554 1.362 . S
C554 H546 0.930 . S
C554 C553 1.362 . S
C554 C557 1.409 . S
C555 H547 0.930 . S
C555 C556 1.355 . S
C555 C557 1.415 . S
C556 C555 1.355 . S
C556 C558 1.419 . S
C557 C552 1.425 . S
C557 C554 1.409 . S
C557 C555 1.415 . S
C558 H548 0.930 . S
C558 C556 1.419 . S
C558 C559 1.362 . S
C559 H549 0.930 . S
C559 C552 1.409 . S
C559 C558 1.362 . S
H560 C566 0.930 . S
H561 C569 0.930 . S
H562 C570 0.930 . S
H563 C571 0.930 . S
H564 C574 0.930 . S
H565 C575 0.930 . S
C566 H560 0.930 . S
C566 C567 1.355 . S
C566 C568 1.415 . S
C567 C566 1.355 . S
C567 C569 1.419 . S
C568 C566 1.415 . S
C568 C573 1.425 . S
C568 C575 1.409 . S
C569 H561 0.930 . S
C569 C567 1.419 . S
C569 C570 1.362 . S
C570 H562 0.930 . S
C570 C569 1.362 . S
C570 C573 1.409 . S
C571 H563 0.930 . S
C571 C572 1.355 . S
C571 C573 1.415 . S
C572 C571 1.355 . S
C572 C574 1.419 . S
C573 C568 1.425 . S
C573 C570 1.409 . S
C573 C571 1.415 . S
C574 H564 0.930 . S
C574 C572 1.419 . S
C574 C575 1.362 . S
C575 H565 0.930 . S
C575 C568 1.409 . S
C575 C574 1.362 . S
C199 C61 1.717 . S
C204 C82 1.734 . S
C220 C112 1.735 . S
C215 C70 1.723 . S
C236 N146 1.454 . S
C231 C43 1.496 . S
C252 N176 1.323 . S
C247 C52 1.334 . S
C268 C73 1.743 1_565 S
C263 C25 1.733 . S
C279 C34 1.706 . S
C284 C103 1.726 . S
C295 C7 1.487 . S
C300 N138 1.519 . S
C311 C16 1.301 . S
C316 N168 1.240 . S
C332 C88 0.443 . S
C327 C50 0.473 1_455 S
C348 C118 0.780 . S
C343 C59 0.787 . S
C364 C159 0.914 . S
C359 C67 0.926 . S
C375 C41 0.629 . S
C380 C189 0.636 . S
C391 C14 0.216 . S
C396 C99 0.292 . S
C412 C129 0.785 . S
C407 C23 0.828 . S
C428 C148 0.964 . S
C423 C31 0.962 . S
C439 C5 0.732 . S
C444 C178 0.746 . S
C455 C49 1.332 1_455 S
C460 N78 1.329 . S
C471 C58 1.422 . S
C476 N108 1.487 . S
C492 C133 1.675 1_554 S
C487 C68 1.623 . S
C508 C163 1.759 1_554 S
C503 C40 1.670 . S
C519 C13 1.352 . S
C524 N86 1.315 . S
C540 N116 1.458 . S
C535 C22 1.429 . S
C556 C142 1.673 . S
C551 C32 1.619 . S
C567 C4 1.677 . S
C572 C172 1.762 . S
