# Generated by pormake.
# Topology bpr, (3,3)-cn, num edge types: 1
# Building blocks:
#     Node 0, Type 0, BuildingBlock: OLANEW_clean_sbu_2, # of connection points: 3
#     Node 1, Type 0, BuildingBlock: OLANEW_clean_sbu_2, # of connection points: 3
#     Node 2, Type 0, BuildingBlock: OLANEW_clean_sbu_2, # of connection points: 3
#     Node 3, Type 0, BuildingBlock: OLANEW_clean_sbu_2, # of connection points: 3
#     Node 4, Type 0, BuildingBlock: OLANEW_clean_sbu_2, # of connection points: 3
#     Node 5, Type 0, BuildingBlock: OLANEW_clean_sbu_2, # of connection points: 3
#     Node 6, Type 0, BuildingBlock: OLANEW_clean_sbu_2, # of connection points: 3
#     Node 7, Type 0, BuildingBlock: OLANEW_clean_sbu_2, # of connection points: 3
#     Node 8, Type 0, BuildingBlock: OLANEW_clean_sbu_2, # of connection points: 3
#     Node 9, Type 0, BuildingBlock: OLANEW_clean_sbu_2, # of connection points: 3
#     Node 10, Type 0, BuildingBlock: OLANEW_clean_sbu_2, # of connection points: 3
#     Node 11, Type 0, BuildingBlock: OLANEW_clean_sbu_2, # of connection points: 3
#     Node 12, Type 0, BuildingBlock: OLANEW_clean_sbu_2, # of connection points: 3
#     Node 13, Type 0, BuildingBlock: OLANEW_clean_sbu_2, # of connection points: 3
#     Node 14, Type 0, BuildingBlock: OLANEW_clean_sbu_2, # of connection points: 3
#     Node 15, Type 0, BuildingBlock: OLANEW_clean_sbu_2, # of connection points: 3
#     Node 16, Type 0, BuildingBlock: OLANEW_clean_sbu_2, # of connection points: 3
#     Node 17, Type 0, BuildingBlock: OLANEW_clean_sbu_2, # of connection points: 3
#     Node 18, Type 0, BuildingBlock: OLANEW_clean_sbu_2, # of connection points: 3
#     Node 19, Type 0, BuildingBlock: OLANEW_clean_sbu_2, # of connection points: 3
#     Node 20, Type 0, BuildingBlock: OLANEW_clean_sbu_2, # of connection points: 3
#     Node 21, Type 0, BuildingBlock: OLANEW_clean_sbu_2, # of connection points: 3
#     Node 22, Type 0, BuildingBlock: OLANEW_clean_sbu_2, # of connection points: 3
#     Node 23, Type 0, BuildingBlock: OLANEW_clean_sbu_2, # of connection points: 3
#     Node 24, Type 0, BuildingBlock: OLANEW_clean_sbu_2, # of connection points: 3
#     Node 25, Type 0, BuildingBlock: OLANEW_clean_sbu_2, # of connection points: 3
#     Node 26, Type 0, BuildingBlock: OLANEW_clean_sbu_2, # of connection points: 3
#     Node 27, Type 0, BuildingBlock: OLANEW_clean_sbu_2, # of connection points: 3
#     Node 28, Type 0, BuildingBlock: OLANEW_clean_sbu_2, # of connection points: 3
#     Node 29, Type 0, BuildingBlock: OLANEW_clean_sbu_2, # of connection points: 3
#     Node 30, Type 0, BuildingBlock: OLANEW_clean_sbu_2, # of connection points: 3
#     Node 31, Type 0, BuildingBlock: OLANEW_clean_sbu_2, # of connection points: 3
#     Node 32, Type 0, BuildingBlock: OLANEW_clean_sbu_2, # of connection points: 3
#     Node 33, Type 0, BuildingBlock: OLANEW_clean_sbu_2, # of connection points: 3
#     Node 34, Type 0, BuildingBlock: OLANEW_clean_sbu_2, # of connection points: 3
#     Node 35, Type 0, BuildingBlock: OLANEW_clean_sbu_2, # of connection points: 3
#     Node 36, Type 0, BuildingBlock: OLANEW_clean_sbu_2, # of connection points: 3
#     Node 37, Type 0, BuildingBlock: OLANEW_clean_sbu_2, # of connection points: 3
#     Node 38, Type 0, BuildingBlock: OLANEW_clean_sbu_2, # of connection points: 3
#     Node 39, Type 0, BuildingBlock: OLANEW_clean_sbu_2, # of connection points: 3
#     Node 40, Type 0, BuildingBlock: OLANEW_clean_sbu_2, # of connection points: 3
#     Node 41, Type 0, BuildingBlock: OLANEW_clean_sbu_2, # of connection points: 3
#     Node 42, Type 0, BuildingBlock: OLANEW_clean_sbu_2, # of connection points: 3
#     Node 43, Type 0, BuildingBlock: OLANEW_clean_sbu_2, # of connection points: 3
#     Node 44, Type 0, BuildingBlock: OLANEW_clean_sbu_2, # of connection points: 3
#     Node 45, Type 0, BuildingBlock: OLANEW_clean_sbu_2, # of connection points: 3
#     Node 46, Type 0, BuildingBlock: OLANEW_clean_sbu_2, # of connection points: 3
#     Node 47, Type 0, BuildingBlock: OLANEW_clean_sbu_2, # of connection points: 3
#     Node 48, Type 1, BuildingBlock: ESEHIV_clean_linker_0, # of connection points: 3
#     Node 49, Type 1, BuildingBlock: ESEHIV_clean_linker_0, # of connection points: 3
#     Node 50, Type 1, BuildingBlock: ESEHIV_clean_linker_0, # of connection points: 3
#     Node 51, Type 1, BuildingBlock: ESEHIV_clean_linker_0, # of connection points: 3
#     Node 52, Type 1, BuildingBlock: ESEHIV_clean_linker_0, # of connection points: 3
#     Node 53, Type 1, BuildingBlock: ESEHIV_clean_linker_0, # of connection points: 3
#     Node 54, Type 1, BuildingBlock: ESEHIV_clean_linker_0, # of connection points: 3
#     Node 55, Type 1, BuildingBlock: ESEHIV_clean_linker_0, # of connection points: 3
#     Node 56, Type 1, BuildingBlock: ESEHIV_clean_linker_0, # of connection points: 3
#     Node 57, Type 1, BuildingBlock: ESEHIV_clean_linker_0, # of connection points: 3
#     Node 58, Type 1, BuildingBlock: ESEHIV_clean_linker_0, # of connection points: 3
#     Node 59, Type 1, BuildingBlock: ESEHIV_clean_linker_0, # of connection points: 3
#     Node 60, Type 1, BuildingBlock: ESEHIV_clean_linker_0, # of connection points: 3
#     Node 61, Type 1, BuildingBlock: ESEHIV_clean_linker_0, # of connection points: 3
#     Node 62, Type 1, BuildingBlock: ESEHIV_clean_linker_0, # of connection points: 3
#     Node 63, Type 1, BuildingBlock: ESEHIV_clean_linker_0, # of connection points: 3
#     Node 64, Type 1, BuildingBlock: ESEHIV_clean_linker_0, # of connection points: 3
#     Node 65, Type 1, BuildingBlock: ESEHIV_clean_linker_0, # of connection points: 3
#     Node 66, Type 1, BuildingBlock: ESEHIV_clean_linker_0, # of connection points: 3
#     Node 67, Type 1, BuildingBlock: ESEHIV_clean_linker_0, # of connection points: 3
#     Node 68, Type 1, BuildingBlock: ESEHIV_clean_linker_0, # of connection points: 3
#     Node 69, Type 1, BuildingBlock: ESEHIV_clean_linker_0, # of connection points: 3
#     Node 70, Type 1, BuildingBlock: ESEHIV_clean_linker_0, # of connection points: 3
#     Node 71, Type 1, BuildingBlock: ESEHIV_clean_linker_0, # of connection points: 3
#     Node 72, Type 1, BuildingBlock: ESEHIV_clean_linker_0, # of connection points: 3
#     Node 73, Type 1, BuildingBlock: ESEHIV_clean_linker_0, # of connection points: 3
#     Node 74, Type 1, BuildingBlock: ESEHIV_clean_linker_0, # of connection points: 3
#     Node 75, Type 1, BuildingBlock: ESEHIV_clean_linker_0, # of connection points: 3
#     Node 76, Type 1, BuildingBlock: ESEHIV_clean_linker_0, # of connection points: 3
#     Node 77, Type 1, BuildingBlock: ESEHIV_clean_linker_0, # of connection points: 3
#     Node 78, Type 1, BuildingBlock: ESEHIV_clean_linker_0, # of connection points: 3
#     Node 79, Type 1, BuildingBlock: ESEHIV_clean_linker_0, # of connection points: 3
#     Node 80, Type 1, BuildingBlock: ESEHIV_clean_linker_0, # of connection points: 3
#     Node 81, Type 1, BuildingBlock: ESEHIV_clean_linker_0, # of connection points: 3
#     Node 82, Type 1, BuildingBlock: ESEHIV_clean_linker_0, # of connection points: 3
#     Node 83, Type 1, BuildingBlock: ESEHIV_clean_linker_0, # of connection points: 3
#     Node 84, Type 1, BuildingBlock: ESEHIV_clean_linker_0, # of connection points: 3
#     Node 85, Type 1, BuildingBlock: ESEHIV_clean_linker_0, # of connection points: 3
#     Node 86, Type 1, BuildingBlock: ESEHIV_clean_linker_0, # of connection points: 3
#     Node 87, Type 1, BuildingBlock: ESEHIV_clean_linker_0, # of connection points: 3
#     Node 88, Type 1, BuildingBlock: ESEHIV_clean_linker_0, # of connection points: 3
#     Node 89, Type 1, BuildingBlock: ESEHIV_clean_linker_0, # of connection points: 3
#     Node 90, Type 1, BuildingBlock: ESEHIV_clean_linker_0, # of connection points: 3
#     Node 91, Type 1, BuildingBlock: ESEHIV_clean_linker_0, # of connection points: 3
#     Node 92, Type 1, BuildingBlock: ESEHIV_clean_linker_0, # of connection points: 3
#     Node 93, Type 1, BuildingBlock: ESEHIV_clean_linker_0, # of connection points: 3
#     Node 94, Type 1, BuildingBlock: ESEHIV_clean_linker_0, # of connection points: 3
#     Node 95, Type 1, BuildingBlock: ESEHIV_clean_linker_0, # of connection points: 3
#     Edge 96, Type (0, 1), None
#     Edge 97, Type (0, 1), None
#     Edge 98, Type (0, 1), None
#     Edge 99, Type (0, 1), None
#     Edge 100, Type (0, 1), None
#     Edge 101, Type (0, 1), None
#     Edge 102, Type (0, 1), None
#     Edge 103, Type (0, 1), None
#     Edge 104, Type (0, 1), None
#     Edge 105, Type (0, 1), None
#     Edge 106, Type (0, 1), None
#     Edge 107, Type (0, 1), None
#     Edge 108, Type (0, 1), None
#     Edge 109, Type (0, 1), None
#     Edge 110, Type (0, 1), None
#     Edge 111, Type (0, 1), None
#     Edge 112, Type (0, 1), None
#     Edge 113, Type (0, 1), None
#     Edge 114, Type (0, 1), None
#     Edge 115, Type (0, 1), None
#     Edge 116, Type (0, 1), None
#     Edge 117, Type (0, 1), None
#     Edge 118, Type (0, 1), None
#     Edge 119, Type (0, 1), None
#     Edge 120, Type (0, 1), None
#     Edge 121, Type (0, 1), None
#     Edge 122, Type (0, 1), None
#     Edge 123, Type (0, 1), None
#     Edge 124, Type (0, 1), None
#     Edge 125, Type (0, 1), None
#     Edge 126, Type (0, 1), None
#     Edge 127, Type (0, 1), None
#     Edge 128, Type (0, 1), None
#     Edge 129, Type (0, 1), None
#     Edge 130, Type (0, 1), None
#     Edge 131, Type (0, 1), None
#     Edge 132, Type (0, 1), None
#     Edge 133, Type (0, 1), None
#     Edge 134, Type (0, 1), None
#     Edge 135, Type (0, 1), None
#     Edge 136, Type (0, 1), None
#     Edge 137, Type (0, 1), None
#     Edge 138, Type (0, 1), None
#     Edge 139, Type (0, 1), None
#     Edge 140, Type (0, 1), None
#     Edge 141, Type (0, 1), None
#     Edge 142, Type (0, 1), None
#     Edge 143, Type (0, 1), None
#     Edge 144, Type (0, 1), None
#     Edge 145, Type (0, 1), None
#     Edge 146, Type (0, 1), None
#     Edge 147, Type (0, 1), None
#     Edge 148, Type (0, 1), None
#     Edge 149, Type (0, 1), None
#     Edge 150, Type (0, 1), None
#     Edge 151, Type (0, 1), None
#     Edge 152, Type (0, 1), None
#     Edge 153, Type (0, 1), None
#     Edge 154, Type (0, 1), None
#     Edge 155, Type (0, 1), None
#     Edge 156, Type (0, 1), None
#     Edge 157, Type (0, 1), None
#     Edge 158, Type (0, 1), None
#     Edge 159, Type (0, 1), None
#     Edge 160, Type (0, 1), None
#     Edge 161, Type (0, 1), None
#     Edge 162, Type (0, 1), None
#     Edge 163, Type (0, 1), None
#     Edge 164, Type (0, 1), None
#     Edge 165, Type (0, 1), None
#     Edge 166, Type (0, 1), None
#     Edge 167, Type (0, 1), None
#     Edge 168, Type (0, 1), None
#     Edge 169, Type (0, 1), None
#     Edge 170, Type (0, 1), None
#     Edge 171, Type (0, 1), None
#     Edge 172, Type (0, 1), None
#     Edge 173, Type (0, 1), None
#     Edge 174, Type (0, 1), None
#     Edge 175, Type (0, 1), None
#     Edge 176, Type (0, 1), None
#     Edge 177, Type (0, 1), None
#     Edge 178, Type (0, 1), None
#     Edge 179, Type (0, 1), None
#     Edge 180, Type (0, 1), None
#     Edge 181, Type (0, 1), None
#     Edge 182, Type (0, 1), None
#     Edge 183, Type (0, 1), None
#     Edge 184, Type (0, 1), None
#     Edge 185, Type (0, 1), None
#     Edge 186, Type (0, 1), None
#     Edge 187, Type (0, 1), None
#     Edge 188, Type (0, 1), None
#     Edge 189, Type (0, 1), None
#     Edge 190, Type (0, 1), None
#     Edge 191, Type (0, 1), None
#     Edge 192, Type (0, 1), None
#     Edge 193, Type (0, 1), None
#     Edge 194, Type (0, 1), None
#     Edge 195, Type (0, 1), None
#     Edge 196, Type (0, 1), None
#     Edge 197, Type (0, 1), None
#     Edge 198, Type (0, 1), None
#     Edge 199, Type (0, 1), None
#     Edge 200, Type (0, 1), None
#     Edge 201, Type (0, 1), None
#     Edge 202, Type (0, 1), None
#     Edge 203, Type (0, 1), None
#     Edge 204, Type (0, 1), None
#     Edge 205, Type (0, 1), None
#     Edge 206, Type (0, 1), None
#     Edge 207, Type (0, 1), None
#     Edge 208, Type (0, 1), None
#     Edge 209, Type (0, 1), None
#     Edge 210, Type (0, 1), None
#     Edge 211, Type (0, 1), None
#     Edge 212, Type (0, 1), None
#     Edge 213, Type (0, 1), None
#     Edge 214, Type (0, 1), None
#     Edge 215, Type (0, 1), None
#     Edge 216, Type (0, 1), None
#     Edge 217, Type (0, 1), None
#     Edge 218, Type (0, 1), None
#     Edge 219, Type (0, 1), None
#     Edge 220, Type (0, 1), None
#     Edge 221, Type (0, 1), None
#     Edge 222, Type (0, 1), None
#     Edge 223, Type (0, 1), None
#     Edge 224, Type (0, 1), None
#     Edge 225, Type (0, 1), None
#     Edge 226, Type (0, 1), None
#     Edge 227, Type (0, 1), None
#     Edge 228, Type (0, 1), None
#     Edge 229, Type (0, 1), None
#     Edge 230, Type (0, 1), None
#     Edge 231, Type (0, 1), None
#     Edge 232, Type (0, 1), None
#     Edge 233, Type (0, 1), None
#     Edge 234, Type (0, 1), None
#     Edge 235, Type (0, 1), None
#     Edge 236, Type (0, 1), None
#     Edge 237, Type (0, 1), None
#     Edge 238, Type (0, 1), None
#     Edge 239, Type (0, 1), None
# Relax obj value: 0.026
# Max RMSD: 0.101
# Mean RMSD: 0.056
data_MOF--net-bpr--node1-OLANEW_clean_sbu_2--node2-ESEHIV_clean_linker_0--edge1-none
_symmetry_space_group_name_H-M    P1
_symmetry_Int_Tables_number       1
_symmetry_cell_setting            triclinic
loop_
_symmetry_equiv_pos_as_xyz
'x, y, z'
_cell_length_a     33.871681
_cell_length_b     38.26062
_cell_length_c     36.306417
_cell_angle_alpha  90.126711
_cell_angle_beta   89.809728
_cell_angle_gamma 90.278282
loop_
_atom_site_label
_atom_site_type_symbol
_atom_site_fract_x
_atom_site_fract_y
_atom_site_fract_z
_atom_type_partial_charge
O0 O 0.0701 0.36211 0.2466 0.0
Cd1 Cd 0.02545 0.36599 0.19461 0.0
O2 O 0.04494 0.31359 0.26914 0.0
Cd3 Cd -0.013 0.32292 0.24454 0.0
O4 O 0.92964 0.32936 0.272 0.0
C5 C 0.92883 0.31222 0.30195 0.0
O6 O 0.95976 0.29322 0.3103 0.0
C7 C 0.07224 0.33649 0.26863 0.0
C8 C 0.07484 0.37925 0.13469 0.0
O9 O 0.06145 0.40402 0.15492 0.0
O10 O 0.06341 0.34797 0.14164 0.0
O11 O 0.8035 0.79963 0.53315 0.0
Cd12 Cd 0.8091 0.7721 0.47255 0.0
O13 O 0.84299 0.76578 0.5655 0.0
Cd14 Cd 0.8482 0.72146 0.52789 0.0
O15 O 0.862 0.67129 0.55327 0.0
C16 C 0.83874 0.64524 0.55619 0.0
O17 O 0.80456 0.64572 0.53921 0.0
C18 C 0.82145 0.79273 0.56292 0.0
C19 C 0.82355 0.82491 0.42077 0.0
O20 O 0.78872 0.81863 0.43299 0.0
O21 O 0.85184 0.8057 0.43221 0.0
O22 O 0.40677 0.64727 0.82506 0.0
Cd23 Cd 0.45305 0.66246 0.77591 0.0
O24 O 0.37052 0.60899 0.79488 0.0
Cd25 Cd 0.39917 0.61609 0.74146 0.0
O26 O 0.38381 0.5992 0.68598 0.0
C27 C 0.38012 0.6177 0.65715 0.0
O28 O 0.38941 0.65106 0.65814 0.0
C29 C 0.37844 0.62538 0.8244 0.0
C30 C 0.52955 0.66079 0.80402 0.0
O31 O 0.50648 0.68644 0.8108 0.0
O32 O 0.51696 0.636 0.78332 0.0
O33 O 0.60524 0.18255 0.07356 0.0
Cd34 Cd 0.6021 0.2316 0.03035 0.0
O35 O 0.61523 0.13909 0.03437 0.0
Cd36 Cd 0.6055 0.16531 -0.01846 0.0
O37 O 0.59469 0.15017 0.92395 0.0
C38 C 0.6028 0.11816 0.91842 0.0
O39 O 0.61586 0.09968 0.94628 0.0
C40 C 0.61194 0.15042 0.06719 0.0
C41 C 0.59519 0.29324 0.0715 0.0
O42 O 0.5651 0.27435 0.06336 0.0
O43 O 0.62899 0.28374 0.05923 0.0
O44 O 0.08015 0.6251 0.17752 0.0
Cd45 Cd 0.03616 0.62441 0.23183 0.0
O46 O 0.05142 0.67154 0.15468 0.0
Cd47 Cd 0.00261 0.6687 0.19342 0.0
O48 O 0.94434 0.65726 0.17201 0.0
C49 C 0.93383 0.62639 0.16335 0.0
O50 O 0.95677 0.59993 0.17142 0.0
C51 C 0.07801 0.64834 0.15257 0.0
C52 C 0.07305 0.60636 0.29782 0.0
O53 O 0.06177 0.5832 0.27451 0.0
O54 O 0.06713 0.63857 0.29005 0.0
O55 O 0.6076 0.77445 0.37989 0.0
Cd56 Cd 0.61048 0.72572 0.42341 0.0
O57 O 0.64696 0.80935 0.41131 0.0
Cd58 Cd 0.64093 0.78277 0.46407 0.0
O59 O 0.62882 0.81188 0.51481 0.0
C60 C 0.64295 0.84271 0.51362 0.0
O61 O 0.66352 0.85203 0.48446 0.0
C62 C 0.6274 0.80265 0.38233 0.0
C63 C 0.60776 0.66336 0.38325 0.0
O64 O 0.57642 0.68038 0.39138 0.0
O65 O 0.64089 0.67516 0.39497 0.0
O66 O 0.3996 0.37549 0.69131 0.0
Cd67 Cd 0.44334 0.38082 0.74495 0.0
O68 O 0.41048 0.31932 0.68459 0.0
Cd69 Cd 0.4609 0.32338 0.72194 0.0
O70 O 0.51769 0.33686 0.69712 0.0
C71 C 0.51847 0.32157 0.66608 0.0
O72 O 0.48923 0.30023 0.65791 0.0
C73 C 0.39233 0.34678 0.67488 0.0
C74 C 0.39789 0.38362 0.80894 0.0
O75 O 0.40654 0.41115 0.79049 0.0
O76 O 0.41173 0.35433 0.79772 0.0
O77 O 0.85356 0.17257 0.88682 0.0
Cd78 Cd 0.85698 0.22154 0.93052 0.0
O79 O 0.80863 0.14191 0.91661 0.0
Cd80 Cd 0.81959 0.16957 0.96827 0.0
O81 O 0.83544 0.14972 0.02272 0.0
C82 C 0.83238 0.11661 0.02384 0.0
O83 O 0.82131 0.09996 -0.00613 0.0
C84 C 0.83008 0.14657 0.88829 0.0
C85 C 0.85824 0.28512 0.8924 0.0
O86 O 0.88941 0.26666 0.8962 0.0
O87 O 0.82615 0.27397 0.90714 0.0
O88 O 0.31061 0.02719 0.34593 0.0
Cd89 Cd 0.26087 0.97998 0.34304 0.0
O90 O 0.27463 0.06708 0.37438 0.0
Cd91 Cd 0.21607 0.04464 0.36638 0.0
O92 O 0.16084 0.07355 0.36038 0.0
C93 C 0.16175 0.10318 0.37631 0.0
O94 O 0.19372 0.11219 0.3945 0.0
C95 C 0.30752 0.05688 0.36151 0.0
C96 C 0.29902 0.91523 0.33686 0.0
O97 O 0.29327 0.93491 0.3089 0.0
O98 O 0.28586 0.92551 0.36817 0.0
O99 O 0.12016 0.03592 0.61361 0.0
Cd100 Cd 0.16992 -0.01051 0.61029 0.0
O101 O 0.15762 0.08127 0.59885 0.0
Cd102 Cd 0.21598 0.05742 0.59791 0.0
O103 O 0.27602 0.07787 0.59193 0.0
C104 C 0.30235 0.07824 0.61684 0.0
O105 O 0.29532 0.06281 0.64849 0.0
C106 C 0.12404 0.06836 0.60685 0.0
C107 C 0.13026 0.92523 0.6133 0.0
O108 O 0.13803 0.94293 0.6424 0.0
O109 O 0.14237 0.93715 0.58229 0.0
O110 O 0.17751 0.88505 0.84752 0.0
Cd111 Cd 0.23835 0.91915 0.84194 0.0
O112 O 0.13756 0.92295 0.82168 0.0
Cd113 Cd 0.17917 0.96693 0.822 0.0
O114 O 0.16046 0.02129 0.81876 0.0
C115 C 0.16205 0.04521 0.84315 0.0
O116 O 0.18149 0.03979 0.87383 0.0
C117 C 0.1435 0.89305 0.83564 0.0
C118 C 0.30136 0.87257 0.84618 0.0
O119 O 0.28446 0.88464 0.87513 0.0
O120 O 0.28934 0.88327 0.81476 0.0
O121 O 0.3269 0.92299 0.12266 0.0
Cd122 Cd 0.27728 0.96905 0.12452 0.0
O123 O 0.29065 0.88932 0.087 0.0
Cd124 Cd 0.23508 0.91685 0.09497 0.0
O125 O 0.17525 0.89587 0.09209 0.0
C126 C 0.1557 0.88484 0.11974 0.0
O127 O 0.16969 0.88978 0.15306 0.0
C128 C 0.32312 0.89561 0.10315 0.0
C129 C 0.31639 0.03297 0.11763 0.0
O130 O 0.31265 0.0176 0.14878 0.0
O131 O 0.30053 0.01864 0.08934 0.0
O132 O 0.30978 0.30146 0.02937 0.0
Cd133 Cd 0.3157 0.27491 0.96831 0.0
O134 O 0.34812 0.26648 0.0617 0.0
Cd135 Cd 0.35501 0.22229 0.02429 0.0
O136 O 0.36998 0.17328 0.05157 0.0
C137 C 0.34603 0.14799 0.05637 0.0
O138 O 0.31122 0.14883 0.04056 0.0
C139 C 0.32707 0.29375 0.05927 0.0
C140 C 0.32904 0.32882 0.91754 0.0
O141 O 0.29433 0.32166 0.92954 0.0
O142 O 0.35776 0.30995 0.92868 0.0
O143 O 0.88743 0.86542 0.19176 0.0
Cd144 Cd 0.93363 0.86943 0.24379 0.0
O145 O 0.91341 0.81675 0.17119 0.0
Cd146 Cd 0.965 0.82463 0.20644 0.0
O147 O 0.02337 0.84118 0.18782 0.0
C148 C 0.03609 0.81838 0.16544 0.0
O149 O 0.01654 0.78872 0.16269 0.0
C150 C 0.88693 0.84006 0.16904 0.0
C151 C 0.89158 0.87527 0.3095 0.0
O152 O 0.90096 0.9021 0.29023 0.0
O153 O 0.9031 0.84521 0.29825 0.0
O154 O 0.09767 0.6934 0.57795 0.0
Cd155 Cd 0.09676 0.74131 0.53296 0.0
O156 O 0.11586 0.65242 0.53865 0.0
Cd157 Cd 0.10853 0.68061 0.48668 0.0
O158 O 0.1028 0.65979 0.43056 0.0
C159 C 0.11097 0.6274 0.43061 0.0
O160 O 0.12068 0.61287 0.46206 0.0
C161 C 0.10794 0.66208 0.57135 0.0
C162 C 0.08889 0.80478 0.57061 0.0
O163 O 0.05905 0.78543 0.56288 0.0
O164 O 0.12302 0.79479 0.55964 0.0
O165 O 0.92492 0.58551 0.68875 0.0
Cd166 Cd -0.02005 0.60186 0.72858 0.0
O167 O 0.9118 0.64119 0.68114 0.0
Cd168 Cd 0.9307 0.65084 0.73762 0.0
O169 O 0.90622 0.64411 0.79306 0.0
C170 C 0.87975 0.62056 0.7961 0.0
O171 O 0.87057 0.60189 0.7669 0.0
C172 C 0.90774 0.60958 0.67093 0.0
C173 C 0.04608 0.60737 0.68261 0.0
O174 O 0.03869 0.57915 0.70037 0.0
O175 O 0.023 0.63341 0.68761 0.0
O176 O 0.04947 0.19577 0.45283 0.0
Cd177 Cd 0.04565 0.22625 0.51128 0.0
O178 O 0.11116 0.21303 0.45274 0.0
Cd179 Cd 0.16652 0.22355 0.42415 0.0
O180 O 0.17395 0.26862 0.38826 0.0
C181 C 0.14718 0.27078 0.36396 0.0
O182 O 0.12162 0.24498 0.36093 0.0
C183 C 0.08336 0.19571 0.43783 0.0
C184 C 0.05245 0.17424 0.56377 0.0
O185 O 0.01858 0.18666 0.55538 0.0
O186 O 0.08318 0.18746 0.54846 0.0
O187 O 0.50267 0.32539 0.18028 0.0
Cd188 Cd 0.46129 0.32836 0.23493 0.0
O189 O 0.5094 0.38241 0.1852 0.0
Cd190 Cd 0.45069 0.3865 0.20991 0.0
O191 O 0.39065 0.37614 0.19079 0.0
C192 C 0.38906 0.35106 0.16782 0.0
O193 O 0.42157 0.33371 0.16069 0.0
C194 C 0.52071 0.35341 0.17162 0.0
C195 C 0.51513 0.33441 0.29234 0.0
O196 O 0.49847 0.30506 0.28506 0.0
O197 O 0.50503 0.36123 0.27363 0.0
O198 O 0.33576 0.77562 0.93969 0.0
Cd199 Cd 0.33393 0.73009 -0.01309 0.0
O200 O 0.39749 0.76243 0.9269 0.0
Cd201 Cd 0.40651 0.74348 -0.01714 0.0
O202 O 0.40788 0.76891 0.03672 0.0
C203 C 0.38566 0.79556 0.03768 0.0
O204 O 0.36472 0.80298 0.00837 0.0
C205 C 0.36572 0.77814 0.91856 0.0
C206 C 0.33214 0.66869 0.94581 0.0
O207 O 0.36473 0.68414 0.95348 0.0
O208 O 0.30018 0.68092 0.95961 0.0
O209 O 0.93684 0.32741 0.77865 0.0
Cd210 Cd -0.01822 0.33021 0.72569 0.0
O211 O 0.92675 0.38415 0.77719 0.0
Cd212 Cd -0.0177 0.39194 0.74785 0.0
O213 O 0.04354 0.38861 0.76591 0.0
C214 C 0.04993 0.36338 0.78778 0.0
O215 O 0.02096 0.34142 0.79485 0.0
C216 C 0.91795 0.35412 0.78984 0.0
C217 C 0.93576 0.33448 0.66242 0.0
O218 O 0.95026 0.30514 0.67247 0.0
O219 O 0.94407 0.3617 0.68154 0.0
O220 O 0.3454 0.1843 0.53584 0.0
Cd221 Cd 0.35337 0.23956 0.50339 0.0
O222 O 0.40982 0.17815 0.53276 0.0
Cd223 Cd 0.41209 0.20243 0.47845 0.0
O224 O 0.40494 0.17862 0.42398 0.0
C225 C 0.38284 0.15166 0.42474 0.0
O226 O 0.36651 0.14267 0.45623 0.0
C227 C 0.37677 0.16972 0.54701 0.0
C228 C 0.34702 0.29279 0.55618 0.0
O229 O 0.31773 0.2846 0.53558 0.0
O230 O 0.37958 0.27651 0.55126 0.0
O231 O 0.51763 0.62309 0.27596 0.0
Cd232 Cd 0.47271 0.61688 0.22389 0.0
O233 O 0.52899 0.5667 0.27184 0.0
Cd234 Cd 0.47104 0.55832 0.24764 0.0
O235 O 0.41026 0.5635 0.26642 0.0
C236 C 0.40226 0.59078 0.28503 0.0
O237 O 0.42965 0.61491 0.28891 0.0
C238 C 0.53812 0.59662 0.28471 0.0
C239 C 0.52104 0.60714 0.16267 0.0
O240 O 0.50653 0.63718 0.17038 0.0
O241 O 0.5114 0.5812 0.18309 0.0
O242 O 0.11306 0.79966 0.0162 0.0
Cd243 Cd 0.11045 0.74816 -0.02262 0.0
O244 O 0.052 0.78503 0.03023 0.0
Cd245 Cd 0.04175 0.76566 0.97459 0.0
O246 O 0.04512 0.78332 0.91771 0.0
C247 C 0.07473 0.80279 0.91085 0.0
O248 O 0.10068 0.80834 0.93704 0.0
C249 C 0.08364 0.80158 0.03791 0.0
C250 C 0.11688 0.69488 0.02881 0.0
O251 O 0.14665 0.70426 0.00925 0.0
O252 O 0.08351 0.70928 0.02265 0.0
O253 O 0.68288 0.97326 0.54285 0.0
Cd254 Cd 0.72579 0.02325 0.55379 0.0
O255 O 0.68838 0.96886 0.6026 0.0
Cd256 Cd 0.69009 0.93712 0.65229 0.0
O257 O 0.7387 0.90103 0.6608 0.0
C258 C 0.7431 0.87978 0.63419 0.0
O259 O 0.71654 0.8794 0.60792 0.0
C260 C 0.67437 0.95733 0.57246 0.0
C261 C 0.67798 0.07842 0.57447 0.0
O262 O 0.68981 0.07476 0.54111 0.0
O263 O 0.68979 0.05639 0.59852 0.0
O264 O 0.75933 0.94587 0.39623 0.0
Cd265 Cd 0.7178 -0.00214 0.39269 0.0
O266 O 0.77981 0.95742 0.34007 0.0
Cd267 Cd 0.72199 0.97814 0.32619 0.0
O268 O 0.67124 0.94328 0.31901 0.0
C269 C 0.67976 0.91157 0.32569 0.0
O270 O 0.7162 0.90375 0.3345 0.0
C271 C 0.78367 0.94064 0.37007 0.0
C272 C 0.76801 0.0558 0.38789 0.0
O273 O 0.75346 0.04639 0.41897 0.0
O274 O 0.75786 0.03855 0.35913 0.0
O275 O 0.77128 0.004 0.07721 0.0
Cd276 Cd 0.72795 0.95434 0.0906 0.0
O277 O 0.78289 0.00938 0.1364 0.0
Cd278 Cd 0.72475 -0.01188 0.14894 0.0
O279 O 0.67187 0.02061 0.1488 0.0
C280 C 0.67212 0.04495 0.12495 0.0
O281 O 0.70186 0.04692 0.10173 0.0
C282 C 0.79121 0.01747 0.10331 0.0
C283 C 0.77493 0.89564 0.10148 0.0
O284 O 0.75912 0.90174 0.07013 0.0
O285 O 0.76777 0.91687 0.12798 0.0
O286 O 0.66569 0.01084 0.85661 0.0
Cd287 Cd 0.71466 0.96512 0.84394 0.0
O288 O 0.65448 0.01921 0.79769 0.0
Cd289 Cd 0.71154 -0.0033 0.78511 0.0
O290 O 0.7675 0.02289 0.7964 0.0
C291 C 0.76509 0.04973 0.81707 0.0
O292 O 0.73041 0.05875 0.83017 0.0
C293 C 0.6459 0.02543 0.83117 0.0
C294 C 0.67838 0.90193 0.82528 0.0
O295 O 0.69195 0.90687 0.85779 0.0
O296 O 0.68226 0.92656 0.8017 0.0
O297 O 0.58735 0.67418 0.93496 0.0
Cd298 Cd 0.59288 0.70351 -0.00573 0.0
O299 O 0.6458 0.69601 0.92384 0.0
Cd300 Cd 0.68935 0.71948 0.88731 0.0
O301 O 0.68673 0.7687 0.85782 0.0
C302 C 0.65358 0.77371 0.84251 0.0
O303 O 0.62676 0.74882 0.84399 0.0
C304 C 0.61597 0.6787 0.91278 0.0
C305 C 0.58653 0.65515 0.05035 0.0
O306 O 0.55627 0.6727 0.04037 0.0
O307 O 0.61958 0.66106 0.03419 0.0
O308 O 0.01364 0.11657 0.78594 0.0
Cd309 Cd 0.96253 0.10859 0.73948 0.0
O310 O 0.03057 0.06148 0.7787 0.0
Cd311 Cd -0.02699 0.04778 0.75636 0.0
O312 O 0.91174 0.0554 0.77243 0.0
C313 C 0.90855 0.0766 0.79925 0.0
O314 O 0.94078 0.09029 0.81332 0.0
C315 C 0.03761 0.09175 0.7919 0.0
C316 C 0.00325 0.10889 0.67307 0.0
O317 O -0.014 0.13641 0.68512 0.0
O318 O -0.00044 0.0806 0.69156 0.0
O319 O 0.837 0.27019 0.44024 0.0
Cd320 Cd 0.83683 0.22234 0.48464 0.0
O321 O 0.89988 0.25992 0.42967 0.0
Cd322 Cd 0.90804 0.24029 0.48559 0.0
O323 O 0.908 0.26483 0.54003 0.0
C324 C 0.88259 0.28907 0.54214 0.0
O325 O 0.85953 0.29442 0.51369 0.0
C326 C 0.86769 0.27449 0.42043 0.0
C327 C 0.83332 0.16266 0.44068 0.0
O328 O 0.86621 0.17798 0.44748 0.0
O329 O 0.80207 0.17433 0.45633 0.0
O330 O 0.56321 0.86974 0.73873 0.0
Cd331 Cd 0.5185 0.87219 0.68677 0.0
O332 O 0.54121 0.81948 0.7599 0.0
Cd333 Cd 0.48144 0.82768 0.73916 0.0
O334 O 0.42546 0.83298 0.76916 0.0
C335 C 0.42482 0.81482 0.79845 0.0
O336 O 0.45529 0.79478 0.80549 0.0
C337 C 0.56738 0.84338 0.75947 0.0
C338 C 0.56973 0.88184 0.62734 0.0
O339 O 0.55639 0.9077 0.64602 0.0
O340 O 0.55713 0.85114 0.63537 0.0
O341 O 0.91263 0.12955 0.32385 0.0
Cd342 Cd 0.96583 0.13543 0.27897 0.0
O343 O 0.86944 0.10034 0.29053 0.0
Cd344 Cd 0.90129 0.10365 0.23819 0.0
O345 O 0.8874 0.08732 0.18213 0.0
C346 C 0.88283 0.10657 0.15395 0.0
O347 O 0.89066 0.14017 0.15615 0.0
C348 C 0.87967 0.11387 0.32102 0.0
C349 C 0.03307 0.14278 0.32213 0.0
O350 O 0.01135 0.16903 0.31425 0.0
O351 O 0.02436 0.11306 0.30791 0.0
O352 O 0.55475 0.14995 0.67154 0.0
Cd353 Cd 0.51215 0.14324 0.72651 0.0
O354 O 0.55977 0.09296 0.6641 0.0
Cd355 Cd 0.50565 0.0826 0.6953 0.0
O356 O 0.44486 0.08608 0.67566 0.0
C357 C 0.4439 0.10676 0.64836 0.0
O358 O 0.47686 0.12243 0.63846 0.0
C359 C 0.57018 0.12384 0.65523 0.0
C360 C 0.55235 0.1159 0.78746 0.0
O361 O 0.53893 0.0963 0.76171 0.0
O362 O 0.5468 0.14891 0.78487 0.0
O363 O 0.11237 0.27483 0.88058 0.0
Cd364 Cd 0.11548 0.22589 0.92386 0.0
O365 O 0.14737 0.31202 0.91374 0.0
Cd366 Cd 0.14286 0.28591 0.96685 0.0
O367 O 0.13176 0.31448 0.01817 0.0
C368 C 0.14435 0.34584 0.01712 0.0
O369 O 0.16321 0.35646 -0.01253 0.0
C370 C 0.12987 0.30412 0.88394 0.0
C371 C 0.11186 0.16321 0.88409 0.0
O372 O 0.08069 0.18022 0.89279 0.0
O373 O 0.14523 0.17527 0.89492 0.0
O374 O 0.3336 0.67999 0.37603 0.0
Cd375 Cd 0.331 0.73148 0.41691 0.0
O376 O 0.31809 0.64068 0.41809 0.0
Cd377 Cd 0.32465 0.67381 0.46672 0.0
O378 O 0.33754 0.65664 0.5228 0.0
C379 C 0.33486 0.62357 0.52512 0.0
O380 O 0.3258 0.6057 0.49534 0.0
C381 C 0.32557 0.64855 0.38484 0.0
C382 C 0.33846 0.7938 0.37677 0.0
O383 O 0.36846 0.77532 0.38545 0.0
O384 O 0.30432 0.78329 0.38742 0.0
O385 O 0.8017 0.52017 0.87984 0.0
Cd386 Cd 0.76333 0.46531 0.88044 0.0
O387 O 0.74943 0.5517 0.86662 0.0
Cd388 Cd 0.72139 0.59997 0.84736 0.0
O389 O 0.70712 0.6359 0.79894 0.0
C390 C 0.6742 0.64935 0.789 0.0
O391 O 0.70812 0.63618 0.79822 0.0
C392 C 0.78638 0.54959 0.87228 0.0
C393 C 0.80952 0.40634 0.8651 0.0
O394 O 0.79775 0.42667 0.83942 0.0
O395 O 0.79956 0.41367 0.8983 0.0
O396 O 0.63499 0.51935 0.12341 0.0
Cd397 Cd 0.6838 0.47223 0.12324 0.0
O398 O 0.67553 0.55783 0.09847 0.0
Cd399 Cd 0.73138 0.53013 0.1016 0.0
O400 O 0.78762 0.55738 0.09487 0.0
C401 C 0.81081 0.56462 0.12128 0.0
O402 O 0.80336 0.55207 0.15424 0.0
C403 C 0.64135 0.54951 0.11008 0.0
C404 C 0.64173 0.40947 0.12171 0.0
O405 O 0.64831 0.42602 0.1518 0.0
O406 O 0.65649 0.42172 0.09185 0.0
O407 O 0.67632 0.37816 0.34565 0.0
Cd408 Cd 0.73743 0.41233 0.34061 0.0
O409 O 0.63346 0.41833 0.3286 0.0
Cd410 Cd 0.67189 0.46452 0.32769 0.0
O411 O 0.65273 0.51875 0.32189 0.0
C412 C 0.65469 0.54354 0.34528 0.0
O413 O 0.67391 0.53891 0.37624 0.0
C414 C 0.6412 0.38715 0.33803 0.0
C415 C 0.80178 0.36696 0.34625 0.0
O416 O 0.78381 0.37874 0.37477 0.0
O417 O 0.79006 0.37719 0.31455 0.0
O418 O 0.8222 0.41856 0.6198 0.0
Cd419 Cd 0.77187 0.46402 0.61982 0.0
O420 O 0.78323 0.37921 0.59437 0.0
Cd421 Cd 0.72767 0.40701 0.60107 0.0
O422 O 0.66686 0.38865 0.59708 0.0
C423 C 0.64569 0.37888 0.62421 0.0
O424 O 0.65875 0.38341 0.65792 0.0
C425 C 0.81707 0.38843 0.60588 0.0
C426 C 0.8102 0.52844 0.61445 0.0
O427 O 0.80552 0.51289 0.64538 0.0
O428 O 0.79569 0.51405 0.58557 0.0
O429 O 0.43292 0.08784 0.18906 0.0
Cd430 Cd 0.48884 0.0994 0.22951 0.0
O431 O 0.42755 0.14392 0.17716 0.0
Cd432 Cd 0.453 0.15514 0.23118 0.0
O433 O 0.43526 0.14666 0.28855 0.0
C434 C 0.41304 0.12008 0.29284 0.0
O435 O 0.40534 0.10042 0.26401 0.0
C436 C 0.41865 0.11235 0.16968 0.0
C437 C 0.5542 0.10172 0.18287 0.0
O438 O 0.5452 0.07374 0.20042 0.0
O439 O 0.53333 0.12904 0.18867 0.0
O440 O -0.00079 0.83644 0.68049 0.0
Cd441 Cd 0.95958 0.83775 0.73634 0.0
O442 O 0.00235 0.89376 0.68367 0.0
Cd443 Cd 0.94387 0.89428 0.70922 0.0
O444 O 0.88432 0.88041 0.691 0.0
C445 C 0.88328 0.85436 0.66921 0.0
O446 O 0.91626 0.83758 0.66243 0.0
C447 C 0.01514 0.86508 0.67057 0.0
C448 C 0.01512 0.84235 0.79243 0.0
O449 O -0.00179 0.81319 0.78485 0.0
O450 O 0.00452 0.86961 0.77467 0.0
O451 O 0.43467 0.82927 0.27277 0.0
Cd452 Cd 0.48336 0.82976 0.22301 0.0
O453 O 0.42507 0.88566 0.26547 0.0
Cd454 Cd 0.48394 0.89187 0.24218 0.0
O455 O 0.54415 0.88747 0.26242 0.0
C456 C 0.54895 0.86313 0.28572 0.0
O457 O 0.51892 0.84251 0.29343 0.0
C458 C 0.41461 0.85661 0.27952 0.0
C459 C 0.43963 0.8371 0.15882 0.0
O460 O 0.45193 0.80696 0.16879 0.0
O461 O 0.44954 0.86372 0.17819 0.0
O462 O 0.83203 0.67518 0.03858 0.0
Cd463 Cd 0.83257 0.72931 0.00342 0.0
O464 O 0.89679 0.67805 0.03622 0.0
Cd465 Cd 0.89309 0.69983 -0.01916 0.0
O466 O 0.8788 0.67749 0.92701 0.0
C467 C 0.85311 0.65315 0.92805 0.0
O468 O 0.83634 0.6457 0.95978 0.0
C469 C 0.86545 0.66575 0.05071 0.0
C470 C 0.83202 0.78398 0.0547 0.0
O471 O 0.8004 0.77455 0.03803 0.0
O472 O 0.86418 0.76825 0.04651 0.0
O473 O 0.60233 0.29329 0.5222 0.0
Cd474 Cd 0.59857 0.23965 0.48716 0.0
O475 O 0.53928 0.28357 0.53215 0.0
Cd476 Cd 0.53316 0.26268 0.47659 0.0
O477 O 0.5406 0.27897 0.41956 0.0
C478 C 0.57175 0.29641 0.4125 0.0
O479 O 0.59797 0.3008 0.43872 0.0
C480 C 0.57146 0.29848 0.54132 0.0
C481 C 0.60901 0.18727 0.53945 0.0
O482 O 0.63739 0.19747 0.51859 0.0
O483 O 0.57499 0.20103 0.53494 0.0
O484 O 0.17971 0.47746 0.04979 0.0
Cd485 Cd 0.22334 0.52716 0.06055 0.0
O486 O 0.18996 0.46983 0.10857 0.0
Cd487 Cd 0.19579 0.43528 0.15573 0.0
O488 O 0.24457 0.39889 0.16126 0.0
C489 C 0.2499 0.38032 0.13264 0.0
O490 O 0.2244 0.38262 0.1056 0.0
C491 C 0.17395 0.4597 0.07877 0.0
C492 C 0.17851 0.586 0.07509 0.0
O493 O 0.19117 0.57922 0.04255 0.0
O494 O 0.18764 0.56506 0.10118 0.0
O495 O 0.26325 0.45 0.89635 0.0
Cd496 Cd 0.22157 0.50195 0.89417 0.0
O497 O 0.28044 0.46072 0.83906 0.0
Cd498 Cd 0.22167 0.48081 0.82751 0.0
O499 O 0.17106 0.44558 0.82057 0.0
C500 C 0.17989 0.4141 0.82801 0.0
O501 O 0.21628 0.40692 0.83762 0.0
C502 C 0.28613 0.4445 0.86912 0.0
C503 C 0.27122 0.56048 0.89125 0.0
O504 O 0.25657 0.55018 0.92198 0.0
O505 O 0.26156 0.54374 0.86201 0.0
O506 O 0.27397 0.5109 0.57959 0.0
Cd507 Cd 0.23361 0.45922 0.5925 0.0
O508 O 0.27926 0.52034 0.63904 0.0
Cd509 Cd 0.22091 0.49801 0.64856 0.0
O510 O 0.16737 0.52982 0.6488 0.0
C511 C 0.16834 0.55564 0.62676 0.0
O512 O 0.19921 0.5594 0.60508 0.0
C513 C 0.29042 0.52679 0.60628 0.0
C514 C 0.28359 0.40222 0.60291 0.0
O515 O 0.26795 0.40812 0.57145 0.0
O516 O 0.27499 0.42284 0.62958 0.0
O517 O 0.16634 0.50691 0.33461 0.0
Cd518 Cd 0.22881 0.47661 0.33739 0.0
O519 O 0.16967 0.50817 0.39494 0.0
Cd520 Cd 0.19671 0.4563 0.3944 0.0
O521 O 0.18754 0.4021 0.37692 0.0
C522 C 0.17028 0.39939 0.34601 0.0
O523 O 0.16279 0.42811 0.32758 0.0
C524 C 0.15594 0.52047 0.36508 0.0
C525 C 0.283 0.53157 0.33635 0.0
O526 O 0.27575 0.51371 0.30721 0.0
O527 O 0.26617 0.52236 0.36646 0.0
H528 H 0.17795 0.40956 0.02658 0.0
H529 H 0.12022 0.43699 0.12771 0.0
H530 H 0.09492 0.33784 0.07625 0.0
C531 C 0.15719 0.403 0.04831 0.0
C532 C 0.13743 0.37055 0.04793 0.0
C533 C 0.15161 0.4266 0.07739 0.0
C534 C 0.12476 0.41844 0.10549 0.0
C535 C 0.10366 0.38675 0.10502 0.0
C536 C 0.11077 0.36252 0.07656 0.0
H537 H 0.78375 0.88558 0.4174 0.0
H538 H 0.84509 0.92973 0.32471 0.0
H539 H 0.87742 0.82812 0.36494 0.0
C540 C 0.80698 0.88407 0.39684 0.0
C541 C 0.8307 0.85406 0.39488 0.0
C542 C 0.81218 0.91154 0.37168 0.0
C543 C 0.8417 0.90893 0.34473 0.0
C544 C 0.86502 0.87887 0.34169 0.0
C545 C 0.85983 0.85161 0.36726 0.0
H546 H 0.30084 0.56259 0.54292 0.0
H547 H 0.33938 0.55731 0.655 0.0
H548 H 0.37377 0.64485 0.58741 0.0
C549 C 0.3182 0.57324 0.56537 0.0
C550 C 0.33802 0.6053 0.5608 0.0
C551 C 0.31785 0.55627 0.5995 0.0
C552 C 0.33979 0.57044 0.62858 0.0
C553 C 0.36028 0.60228 0.6246 0.0
C554 C 0.35883 0.61993 0.59064 0.0
H555 H 0.63733 0.05882 0.89626 0.0
H556 H 0.59445 0.05694 0.78522 0.0
H557 H 0.56252 0.14164 0.85753 0.0
C558 C 0.6193 0.07013 0.8748 0.0
C559 C 0.59947 0.10174 0.88149 0.0
C560 C 0.61835 0.05421 0.84 0.0
C561 C 0.59526 0.0691 0.81222 0.0
C562 C 0.57503 0.10057 0.81819 0.0
C563 C 0.57776 0.11719 0.8528 0.0
H564 H 0.14511 0.56502 0.42165 0.0
H565 H 0.11341 0.54723 0.30889 0.0
H566 H 0.0781 0.64241 0.36313 0.0
C567 C 0.13016 0.57353 0.39692 0.0
C568 C 0.11115 0.60608 0.39648 0.0
C569 C 0.13169 0.55248 0.36536 0.0
C570 C 0.11247 0.56352 0.33334 0.0
C571 C 0.09301 0.59583 0.33222 0.0
C572 C 0.09298 0.6174 0.36377 0.0
H573 H 0.67896 0.9053 0.5226 0.0
H574 H 0.61762 0.93789 0.62007 0.0
H575 H 0.5906 0.83794 0.57108 0.0
C576 C 0.65695 0.90009 0.54366 0.0
C577 C 0.63579 0.86836 0.54349 0.0
C578 C 0.651 0.92479 0.57161 0.0
C579 C 0.62247 0.91845 0.59877 0.0
C580 C 0.60008 0.88745 0.59853 0.0
C581 C 0.60748 0.86208 0.57123 0.0
H582 H 0.28718 0.3884 0.91484 0.0
H583 H 0.34825 0.43604 0.82399 0.0
H584 H 0.38396 0.33477 0.86277 0.0
C585 C 0.31076 0.3879 0.89458 0.0
C586 C 0.33556 0.35862 0.89232 0.0
C587 C 0.31535 0.41598 0.87009 0.0
C588 C 0.34531 0.41473 0.84346 0.0
C589 C 0.36999 0.38553 0.84031 0.0
C590 C 0.36533 0.35762 0.86519 0.0
H591 H 0.79923 0.05499 0.04066 0.0
H592 H 0.84323 0.04575 0.15068 0.0
H593 H 0.87407 0.13577 0.08535 0.0
C594 C 0.81774 0.06479 0.06272 0.0
C595 C 0.83738 0.097 0.05856 0.0
C596 C 0.81899 0.04665 0.09616 0.0
C597 C 0.84246 0.05974 0.12476 0.0
C598 C 0.8625 0.09183 0.1213 0.0
C599 C 0.85949 0.11063 0.08812 0.0
H600 H 0.03557 0.18763 0.37913 0.0
H601 H 0.14584 0.15471 0.42475 0.0
H602 H 0.10011 0.10382 0.32774 0.0
C603 C 0.06159 0.17128 0.37754 0.0
C604 C 0.06514 0.14635 0.34928 0.0
C605 C 0.09049 0.1742 0.40484 0.0
C606 C 0.12387 0.15278 0.40318 0.0
C607 C 0.12743 0.12695 0.37578 0.0
C608 C 0.09772 0.12367 0.34897 0.0
H609 H 0.03314 0.81432 0.62183 0.0
H610 H 0.06979 0.91573 0.6596 0.0
H611 H 0.13358 0.86511 0.57174 0.0
C612 C 0.0531 0.83649 0.61996 0.0
C613 C 0.08395 0.83611 0.59406 0.0
C614 C 0.04788 0.86503 0.64367 0.0
C615 C 0.07387 0.89351 0.6414 0.0
C616 C 0.10474 0.89388 0.61551 0.0
C617 C 0.10978 0.86504 0.59177 0.0
H618 H 0.41631 0.77762 0.86093 0.0
H619 H 0.31204 0.82782 0.90208 0.0
H620 H 0.36093 0.85871 0.79744 0.0
C621 C 0.393 0.79664 0.85748 0.0
C622 C 0.39228 0.81766 0.82575 0.0
C623 C 0.36408 0.79995 0.88498 0.0
C624 C 0.33425 0.82487 0.88074 0.0
C625 C 0.33288 0.84616 0.84931 0.0
C626 C 0.36168 0.84213 0.82158 0.0
H627 H 0.37315 0.05481 0.16362 0.0
H628 H 0.40009 0.15228 0.1108 0.0
H629 H 0.31076 0.08414 0.06547 0.0
C630 C 0.36827 0.07312 0.14135 0.0
C631 C 0.3396 0.06564 0.11464 0.0
C632 C 0.39022 0.10422 0.14007 0.0
C633 C 0.38356 0.12796 0.11143 0.0
C634 C 0.35497 0.121 0.08428 0.0
C635 C 0.3332 0.08959 0.08594 0.0
H636 H 0.03843 0.79256 0.09759 0.0
H637 H 0.13727 0.8511 0.05683 0.0
H638 H 0.09833 0.86493 0.16929 0.0
C639 C 0.06151 0.81182 0.10214 0.0
C640 C 0.06519 0.82773 0.13675 0.0
C641 C 0.08712 0.82029 0.07327 0.0
C642 C 0.11696 0.84509 0.0791 0.0
C643 C 0.12152 0.8613 0.11368 0.0
C644 C 0.09519 0.85271 0.1425 0.0
H645 H 0.35915 0.90615 0.29025 0.0
H646 H 0.39453 0.80406 0.32584 0.0
H647 H 0.29409 0.85387 0.37623 0.0
C648 C 0.3545 0.88345 0.30758 0.0
C649 C 0.3235 0.88345 0.33333 0.0
C650 C 0.38043 0.85511 0.30491 0.0
C651 C 0.37459 0.82607 0.3278 0.0
C652 C 0.34339 0.82516 0.35335 0.0
C653 C 0.31788 0.85408 0.35619 0.0
H654 H 0.31501 0.12828 0.5658 0.0
H655 H 0.43494 0.15249 0.59322 0.0
H656 H 0.37184 0.07385 0.65484 0.0
C657 C 0.34068 0.12377 0.58286 0.0
C658 C 0.33921 0.09846 0.6109 0.0
C659 C 0.37511 0.14329 0.57651 0.0
C660 C 0.40835 0.13734 0.5983 0.0
C661 C 0.40754 0.11254 0.62675 0.0
C662 C 0.37269 0.09325 0.63315 0.0
H663 H 0.05381 0.14704 0.83663 0.0
H664 H 0.09909 0.04874 0.79924 0.0
H665 H 0.163 0.10792 0.88078 0.0
C666 C 0.07653 0.1272 0.83737 0.0
C667 C 0.10913 0.13145 0.86089 0.0
C668 C 0.07287 0.09743 0.81506 0.0
C669 C 0.10229 0.07194 0.81616 0.0
C670 C 0.13473 0.07517 0.83991 0.0
C671 C 0.13825 0.10525 0.86212 0.0
H672 H 0.86321 0.40191 0.81062 0.0
H673 H 0.9061 0.29897 0.83517 0.0
H674 H 0.81317 0.34372 0.90091 0.0
C675 C 0.86191 0.37829 0.82704 0.0
C676 C 0.83514 0.37615 0.85659 0.0
C677 C 0.88779 0.35067 0.81922 0.0
C678 C 0.88617 0.3204 0.84096 0.0
C679 C 0.85924 0.31754 0.87029 0.0
C680 C 0.83379 0.34559 0.87809 0.0
H681 H 0.81591 0.6123 0.06656 0.0
H682 H 0.92023 0.66527 0.10395 0.0
H683 H 0.87557 0.57689 0.16443 0.0
C684 C 0.83986 0.61453 0.08617 0.0
C685 C 0.84228 0.59107 0.1159 0.0
C686 C 0.86798 0.64117 0.08172 0.0
C687 C 0.89849 0.64458 0.10729 0.0
C688 C 0.9012 0.62168 0.13723 0.0
C689 C 0.87339 0.59461 0.14128 0.0
H690 H 0.55369 0.65049 0.33116 0.0
H691 H 0.59568 0.55006 0.29666 0.0
H692 H 0.65596 0.60606 0.38308 0.0
C693 C 0.57496 0.62953 0.33345 0.0
C694 C 0.60547 0.63203 0.35944 0.0
C695 C 0.57144 0.6001 0.31065 0.0
C696 C 0.59886 0.57303 0.31394 0.0
C697 C 0.62933 0.57463 0.34008 0.0
C698 C 0.6328 0.60454 0.3626 0.0
H699 H 0.91983 0.27554 0.36439 0.0
H700 H 0.81262 0.32269 0.4026 0.0
H701 H 0.86332 0.35455 0.29891 0.0
C702 C 0.89599 0.2939 0.36024 0.0
C703 C 0.89539 0.31464 0.32834 0.0
C704 C 0.86621 0.29643 0.38696 0.0
C705 C 0.83554 0.32038 0.38183 0.0
C706 C 0.83422 0.34147 0.35021 0.0
C707 C 0.86399 0.33817 0.3232 0.0
H708 H 0.54846 0.67488 0.87414 0.0
H709 H 0.67413 0.6602 0.86393 0.0
H710 H 0.59864 0.64628 0.76975 0.0
C711 C 0.5741 0.66801 0.85772 0.0
C712 C 0.56918 0.6596 0.82048 0.0
C713 C 0.61179 0.66822 0.87376 0.0
C714 C 0.64487 0.65964 0.85199 0.0
C715 C 0.64023 0.65185 0.81433 0.0
C716 C 0.60229 0.65154 0.79892 0.0
H717 H 0.80256 0.59798 0.92365 0.0
H718 H 0.82755 0.56849 0.81216 0.0
H719 H 0.88543 0.65856 0.85943 0.0
C720 C 0.81799 0.60308 0.89799 0.0
C721 C 0.8447 0.63126 0.89525 0.0
C722 C 0.81195 0.58052 0.86814 0.0
C723 C 0.83221 0.58633 0.83501 0.0
C724 C 0.85869 0.61461 0.83144 0.0
C725 C 0.86479 0.63695 0.86177 0.0
H726 H 0.10997 0.12545 0.56547 0.0
H727 H 0.0628 0.0646 0.65494 0.0
H728 H 0.00331 0.15795 0.61975 0.0
C729 C 0.08745 0.12122 0.58631 0.0
C730 C 0.05579 0.14459 0.58933 0.0
C731 C 0.08966 0.09185 0.60931 0.0
C732 C 0.0603 0.08646 0.63615 0.0
C733 C 0.02968 0.11082 0.64076 0.0
C734 C 0.02709 0.13929 0.61663 0.0
H735 H 0.57796 0.37865 0.29319 0.0
H736 H 0.63116 0.34033 0.39234 0.0
H737 H 0.5211 0.29641 0.35449 0.0
C738 C 0.57738 0.36107 0.31658 0.0
C739 C 0.54632 0.33684 0.32047 0.0
C740 C 0.60861 0.36167 0.34191 0.0
C741 C 0.60771 0.33891 0.37214 0.0
C742 C 0.57562 0.31602 0.37758 0.0
C743 C 0.54567 0.31437 0.35095 0.0
H744 H 0.33413 0.84763 0.04987 0.0
H745 H 0.38366 0.88617 0.15084 0.0
H746 H 0.43391 0.79576 0.09804 0.0
C747 C 0.3561 0.84577 0.07141 0.0
C748 C 0.38462 0.81927 0.06988 0.0
C749 C 0.35546 0.86992 0.1005 0.0
C750 C 0.38432 0.86788 0.128 0.0
C751 C 0.41228 0.84084 0.12759 0.0
C752 C 0.41218 0.81646 0.09856 0.0
H753 H 0.82862 0.33928 0.55426 0.0
H754 H 0.87793 0.38176 0.65342 0.0
H755 H 0.93123 0.2917 0.60242 0.0
C756 C 0.85094 0.33845 0.57558 0.0
C757 C 0.88062 0.31296 0.57422 0.0
C758 C 0.84991 0.36333 0.6039 0.0
C759 C 0.87907 0.36284 0.63116 0.0
C760 C 0.90795 0.33659 0.63129 0.0
C761 C 0.90862 0.31165 0.60272 0.0
H762 H 0.32898 0.09992 0.41666 0.0
H763 H 0.35885 0.06957 0.3065 0.0
H764 H 0.4204 0.1556 0.358 0.0
C765 C 0.34727 0.10339 0.39236 0.0
C766 C 0.3763 0.12979 0.39156 0.0
C767 C 0.34118 0.08151 0.3619 0.0
C768 C 0.36443 0.08602 0.33029 0.0
C769 C 0.39254 0.11318 0.32824 0.0
C770 C 0.39861 0.1348 0.35918 0.0
H771 H 0.63581 0.60142 0.0611 0.0
H772 H 0.57681 0.55654 0.15488 0.0
H773 H 0.53135 0.64986 0.10432 0.0
C774 C 0.61183 0.6018 0.08097 0.0
C775 C 0.58344 0.62819 0.07912 0.0
C776 C 0.60942 0.57559 0.10782 0.0
C777 C 0.5781 0.57607 0.13332 0.0
C778 C 0.55025 0.60331 0.13268 0.0
C779 C 0.55274 0.62888 0.10507 0.0
H780 H 0.07873 0.88563 0.79195 0.0
H781 H 0.13355 0.84638 0.88993 0.0
H782 H 0.02216 0.80377 0.85416 0.0
C783 C 0.07845 0.86803 0.81532 0.0
C784 C 0.04709 0.84416 0.81982 0.0
C785 C 0.11026 0.86823 0.84005 0.0
C786 C 0.10961 0.84541 0.8702 0.0
C787 C 0.07747 0.82274 0.87612 0.0
C788 C 0.04686 0.8215 0.85016 0.0
H789 H 0.75826 0.83133 0.58192 0.0
H790 H 0.87679 0.80748 0.61374 0.0
H791 H 0.80996 0.88307 0.67576 0.0
C792 C 0.78279 0.83517 0.60063 0.0
C793 C 0.77938 0.85875 0.6302 0.0
C794 C 0.81771 0.81649 0.59481 0.0
C795 C 0.84955 0.82146 0.61883 0.0
C796 C 0.84734 0.84587 0.64778 0.0
C797 C 0.81184 0.86401 0.65371 0.0
H798 H 0.81988 0.06772 0.33255 0.0
H799 H 0.87993 0.15544 0.3813 0.0
H800 H 0.78124 0.10825 0.43739 0.0
C801 C 0.82282 0.08648 0.3548 0.0
C802 C 0.79741 0.08443 0.38545 0.0
C803 C 0.85295 0.11177 0.35329 0.0
C804 C 0.85724 0.1354 0.38263 0.0
C805 C 0.83101 0.13475 0.41264 0.0
C806 C 0.80129 0.10905 0.41406 0.0
H807 H 0.56556 0.14856 0.12779 0.0
H808 H 0.66191 0.09624 0.07436 0.0
H809 H 0.61297 0.05448 0.17479 0.0
C810 C 0.58706 0.12766 0.12743 0.0
C811 C 0.58591 0.10168 0.15477 0.0
C812 C 0.61393 0.12538 0.09803 0.0
C813 C 0.641 0.09776 0.09698 0.0
C814 C 0.6415 0.07245 0.12502 0.0
C815 C 0.61338 0.07428 0.15348 0.0
H816 H 0.61775 0.89562 0.77826 0.0
H817 H 0.59443 0.78624 0.79501 0.0
H818 H 0.6908 0.83648 0.85167 0.0
C819 C 0.62537 0.87088 0.79083 0.0
C820 C 0.65692 0.86953 0.81571 0.0
C821 C 0.60225 0.84108 0.7837 0.0
C822 C 0.61198 0.80939 0.80066 0.0
C823 C 0.64434 0.80729 0.82462 0.0
C824 C 0.66645 0.8376 0.83242 0.0
H825 H 0.77054 0.10356 0.86597 0.0
H826 H 0.89257 0.12851 0.84713 0.0
H827 H 0.83864 0.04327 0.7882 0.0
C828 C 0.79801 0.09858 0.85153 0.0
C829 C 0.8003 0.07125 0.82552 0.0
C830 C 0.83114 0.11956 0.85912 0.0
C831 C 0.86674 0.11281 0.84075 0.0
C832 C 0.86983 0.08503 0.81561 0.0
C833 C 0.83639 0.06463 0.80774 0.0
H834 H 0.63014 0.08186 0.63459 0.0
H835 H 0.56884 0.17573 0.60394 0.0
H836 H 0.66225 0.13614 0.53529 0.0
C837 C 0.62655 0.10388 0.61617 0.0
C838 C 0.64998 0.10635 0.58429 0.0
C839 C 0.59741 0.12894 0.62371 0.0
C840 C 0.59192 0.15676 0.59888 0.0
C841 C 0.61533 0.1594 0.56687 0.0
C842 C 0.64451 0.13438 0.56014 0.0
H843 H 0.56869 0.81152 0.33289 0.0
H844 H 0.67957 0.85446 0.36827 0.0
H845 H 0.61144 0.90834 0.28664 0.0
C846 C 0.59146 0.8314 0.33055 0.0
C847 C 0.58619 0.85982 0.30652 0.0
C848 C 0.62484 0.82952 0.35322 0.0
C849 C 0.65384 0.85565 0.35062 0.0
C850 C 0.64924 0.88402 0.3266 0.0
C851 C 0.61529 0.88612 0.30471 0.0
H852 H 0.88018 0.79183 0.11378 0.0
H853 H 0.82812 0.88636 0.15608 0.0
H854 H 0.78278 0.83901 0.05727 0.0
C855 C 0.85834 0.81236 0.112 0.0
C856 C 0.83124 0.81208 0.08271 0.0
C857 C 0.85719 0.83885 0.13901 0.0
C858 C 0.82875 0.86539 0.13598 0.0
C859 C 0.80218 0.86589 0.10633 0.0
C860 C 0.80327 0.83886 0.08015 0.0
H861 H 0.13407 0.59987 0.13593 0.0
H862 H 0.07788 0.69233 0.0938 0.0
H863 H 0.16517 0.63958 0.02877 0.0
C864 C 0.13092 0.61946 0.11464 0.0
C865 C 0.15277 0.6164 0.08177 0.0
C866 C 0.10372 0.6468 0.1194 0.0
C867 C 0.09891 0.67124 0.0908 0.0
C868 C 0.12127 0.66881 0.05829 0.0
C869 C 0.14828 0.64158 0.05411 0.0
H870 H 0.07138 0.31172 0.83416 0.0
H871 H 0.18073 0.35687 0.87033 0.0
H872 H 0.11145 0.40987 0.78883 0.0
C873 C 0.09358 0.33211 0.83195 0.0
C874 C 0.0875 0.36064 0.80823 0.0
C875 C 0.12685 0.33087 0.85477 0.0
C876 C 0.1551 0.35764 0.85253 0.0
C877 C 0.14988 0.38606 0.82867 0.0
C878 C 0.1159 0.38759 0.80671 0.0
H879 H 0.3899 0.29952 0.61885 0.0
H880 H 0.33439 0.39295 0.65953 0.0
H881 H 0.29626 0.34712 0.5572 0.0
C882 C 0.36793 0.31985 0.61604 0.0
C883 C 0.34327 0.3201 0.58493 0.0
C884 C 0.36474 0.34595 0.64325 0.0
C885 C 0.33657 0.37247 0.63896 0.0
C886 C 0.31177 0.37315 0.60799 0.0
C887 C 0.31514 0.3467 0.58125 0.0
H888 H 0.05833 0.65654 0.62977 0.0
H889 H 0.15925 0.60905 0.57867 0.0
H890 H 0.1066 0.56174 0.67455 0.0
C891 C 0.08052 0.63622 0.62945 0.0
C892 C 0.07889 0.60909 0.65556 0.0
C893 C 0.10906 0.63595 0.6013 0.0
C894 C 0.13712 0.60909 0.60031 0.0
C895 C 0.13696 0.58253 0.62702 0.0
C896 C 0.10736 0.58245 0.65424 0.0
H897 H 0.26459 0.33352 0.07851 0.0
H898 H 0.38201 0.30622 0.11079 0.0
H899 H 0.31644 0.38123 0.17466 0.0
C900 C 0.28902 0.33634 0.09753 0.0
C901 C 0.28584 0.359 0.12793 0.0
C902 C 0.32347 0.31704 0.09153 0.0
C903 C 0.35511 0.32067 0.11601 0.0
C904 C 0.35319 0.34422 0.14572 0.0
C905 C 0.31812 0.36287 0.15194 0.0
H906 H 0.53758 0.30344 0.12128 0.0
H907 H 0.57887 0.40116 0.16508 0.0
H908 H 0.64323 0.35115 0.07731 0.0
C909 C 0.559 0.32459 0.12115 0.0
C910 C 0.59094 0.32372 0.09636 0.0
C911 C 0.55452 0.35241 0.14594 0.0
C912 C 0.58237 0.37953 0.14601 0.0
C913 C 0.61434 0.37936 0.12139 0.0
C914 C 0.61859 0.3514 0.09643 0.0
H915 H 0.86516 0.55063 0.66223 0.0
H916 H 0.89047 0.64966 0.61232 0.0
H917 H 0.80499 0.58027 0.56284 0.0
C918 C 0.86044 0.56912 0.6401 0.0
C919 C 0.83283 0.5615 0.61245 0.0
C920 C 0.88122 0.60082 0.64012 0.0
C921 C 0.87477 0.6249 0.61181 0.0
C922 C 0.84745 0.61778 0.58365 0.0
C923 C 0.82662 0.58582 0.58402 0.0
H924 H 0.5213 0.29528 0.59804 0.0
H925 H 0.62772 0.34499 0.56145 0.0
H926 H 0.58495 0.3633 0.67186 0.0
C927 C 0.54574 0.31293 0.60348 0.0
C928 C 0.54933 0.3288 0.63817 0.0
C929 C 0.57391 0.31849 0.57595 0.0
C930 C 0.60567 0.34105 0.58277 0.0
C931 C 0.60999 0.35746 0.61724 0.0
C932 C 0.58171 0.3511 0.64507 0.0
H933 H 0.32243 0.57529 0.83611 0.0
H934 H 0.37816 0.66449 0.88638 0.0
H935 H 0.28278 0.61214 0.94218 0.0
C936 C 0.32488 0.59351 0.8589 0.0
C937 C 0.2998 0.58984 0.88965 0.0
C938 C 0.35345 0.62025 0.85756 0.0
C939 C 0.35682 0.64329 0.88747 0.0
C940 C 0.33109 0.64086 0.91771 0.0
C941 C 0.30269 0.61402 0.91881 0.0
H942 H 0.1187 0.38962 0.29079 0.0
H943 H 0.09676 0.28032 0.3075 0.0
H944 H 0.1827 0.3342 0.37431 0.0
C945 C 0.12579 0.36541 0.30468 0.0
C946 C 0.1535 0.36561 0.33339 0.0
C947 C 0.10486 0.33491 0.29555 0.0
C948 C 0.11314 0.30385 0.31433 0.0
C949 C 0.14164 0.30314 0.34239 0.0
C950 C 0.16177 0.33419 0.3518 0.0
H951 H 0.28131 0.58923 0.38034 0.0
H952 H 0.37898 0.64343 0.33024 0.0
H953 H 0.34455 0.54161 0.29059 0.0
C954 C 0.30443 0.59036 0.35965 0.0
C955 C 0.30939 0.56235 0.33493 0.0
C956 C 0.32875 0.62018 0.3573 0.0
C957 C 0.35907 0.62117 0.33088 0.0
C958 C 0.36577 0.59248 0.30744 0.0
C959 C 0.33988 0.56374 0.30876 0.0
loop_
_geom_bond_atom_site_label_1
_geom_bond_atom_site_label_2
_geom_bond_distance
_geom_bond_site_symmetry_2
_ccdc_geom_bond_type
O0 Cd1 2.300 . S
O0 C7 1.275 . S
Cd1 O0 2.300 . S
Cd1 O9 2.381 . S
Cd1 O10 2.378 . S
O2 Cd3 2.385 1_455 S
O2 C7 1.255 . S
Cd3 O2 2.385 1_655 S
Cd3 O4 2.317 . S
O4 Cd3 2.317 . S
O4 C5 1.232 . S
C5 O4 1.232 . S
C5 O6 1.218 . S
O6 C5 1.218 . S
C7 O0 1.275 . S
C7 O2 1.255 . S
C8 O9 1.258 . S
C8 O10 1.256 . S
O9 Cd1 2.381 . S
O9 C8 1.258 . S
O10 Cd1 2.378 . S
O10 C8 1.256 . S
O11 Cd12 2.300 . S
O11 C18 1.275 . S
Cd12 O11 2.300 . S
Cd12 O20 2.381 . S
Cd12 O21 2.378 . S
O13 Cd14 2.385 . S
O13 C18 1.255 . S
Cd14 O13 2.385 . S
Cd14 O15 2.317 . S
O15 Cd14 2.317 . S
O15 C16 1.232 . S
C16 O15 1.232 . S
C16 O17 1.218 . S
O17 C16 1.218 . S
C18 O11 1.275 . S
C18 O13 1.255 . S
C19 O20 1.258 . S
C19 O21 1.256 . S
O20 Cd12 2.381 . S
O20 C19 1.258 . S
O21 Cd12 2.378 . S
O21 C19 1.256 . S
O22 Cd23 2.300 . S
O22 C29 1.275 . S
Cd23 O22 2.300 . S
Cd23 O31 2.381 . S
Cd23 O32 2.378 . S
O24 Cd25 2.385 . S
O24 C29 1.255 . S
Cd25 O24 2.385 . S
Cd25 O26 2.317 . S
O26 Cd25 2.317 . S
O26 C27 1.232 . S
C27 O26 1.232 . S
C27 O28 1.218 . S
O28 C27 1.218 . S
C29 O22 1.275 . S
C29 O24 1.255 . S
C30 O31 1.258 . S
C30 O32 1.256 . S
O31 Cd23 2.381 . S
O31 C30 1.258 . S
O32 Cd23 2.378 . S
O32 C30 1.256 . S
O33 Cd34 2.300 . S
O33 C40 1.275 . S
Cd34 O33 2.300 . S
Cd34 O42 2.381 . S
Cd34 O43 2.378 . S
O35 Cd36 2.385 1_554 S
O35 C40 1.255 . S
Cd36 O35 2.385 1_556 S
Cd36 O37 2.317 . S
O37 Cd36 2.317 . S
O37 C38 1.232 . S
C38 O37 1.232 . S
C38 O39 1.218 . S
O39 C38 1.218 . S
C40 O33 1.275 . S
C40 O35 1.255 . S
C41 O42 1.258 . S
C41 O43 1.256 . S
O42 Cd34 2.381 . S
O42 C41 1.258 . S
O43 Cd34 2.378 . S
O43 C41 1.256 . S
O44 Cd45 2.300 . S
O44 C51 1.275 . S
Cd45 O44 2.300 . S
Cd45 O53 2.381 . S
Cd45 O54 2.378 . S
O46 Cd47 2.385 1_455 S
O46 C51 1.255 . S
Cd47 O46 2.385 1_655 S
Cd47 O48 2.317 . S
O48 Cd47 2.317 . S
O48 C49 1.232 . S
C49 O48 1.232 . S
C49 O50 1.218 . S
O50 C49 1.218 . S
C51 O44 1.275 . S
C51 O46 1.255 . S
C52 O53 1.258 . S
C52 O54 1.256 . S
O53 Cd45 2.381 . S
O53 C52 1.258 . S
O54 Cd45 2.378 . S
O54 C52 1.256 . S
O55 Cd56 2.300 . S
O55 C62 1.275 . S
Cd56 O55 2.300 . S
Cd56 O64 2.381 . S
Cd56 O65 2.378 . S
O57 Cd58 2.385 . S
O57 C62 1.255 . S
Cd58 O57 2.385 . S
Cd58 O59 2.317 . S
O59 Cd58 2.317 . S
O59 C60 1.232 . S
C60 O59 1.232 . S
C60 O61 1.218 . S
O61 C60 1.218 . S
C62 O55 1.275 . S
C62 O57 1.255 . S
C63 O64 1.258 . S
C63 O65 1.256 . S
O64 Cd56 2.381 . S
O64 C63 1.258 . S
O65 Cd56 2.378 . S
O65 C63 1.256 . S
O66 Cd67 2.300 . S
O66 C73 1.275 . S
Cd67 O66 2.300 . S
Cd67 O75 2.381 . S
Cd67 O76 2.378 . S
O68 Cd69 2.385 . S
O68 C73 1.255 . S
Cd69 O68 2.385 . S
Cd69 O70 2.317 . S
O70 Cd69 2.317 . S
O70 C71 1.232 . S
C71 O70 1.232 . S
C71 O72 1.218 . S
O72 C71 1.218 . S
C73 O66 1.275 . S
C73 O68 1.255 . S
C74 O75 1.258 . S
C74 O76 1.256 . S
O75 Cd67 2.381 . S
O75 C74 1.258 . S
O76 Cd67 2.378 . S
O76 C74 1.256 . S
O77 Cd78 2.300 . S
O77 C84 1.275 . S
Cd78 O77 2.300 . S
Cd78 O86 2.381 . S
Cd78 O87 2.378 . S
O79 Cd80 2.385 1_556 S
O79 C84 1.255 . S
Cd80 O79 2.385 1_554 S
Cd80 O81 2.317 . S
O81 Cd80 2.317 . S
O81 C82 1.232 . S
C82 O81 1.232 . S
C82 O83 1.218 . S
O83 C82 1.218 . S
C84 O77 1.275 . S
C84 O79 1.255 . S
C85 O86 1.258 . S
C85 O87 1.256 . S
O86 Cd78 2.381 . S
O86 C85 1.258 . S
O87 Cd78 2.378 . S
O87 C85 1.256 . S
O88 Cd89 2.300 . S
O88 C95 1.275 . S
Cd89 O88 2.300 . S
Cd89 O97 2.381 1_545 S
Cd89 O98 2.378 1_545 S
O90 Cd91 2.385 . S
O90 C95 1.255 . S
Cd91 O90 2.385 . S
Cd91 O92 2.317 . S
O92 Cd91 2.317 . S
O92 C93 1.232 . S
C93 O92 1.232 . S
C93 O94 1.218 . S
O94 C93 1.218 . S
C95 O88 1.275 . S
C95 O90 1.255 . S
C96 O97 1.258 . S
C96 O98 1.256 . S
O97 Cd89 2.381 1_565 S
O97 C96 1.258 . S
O98 Cd89 2.378 1_565 S
O98 C96 1.256 . S
O99 Cd100 2.300 . S
O99 C106 1.275 . S
Cd100 O99 2.300 . S
Cd100 O108 2.381 1_545 S
Cd100 O109 2.378 1_545 S
O101 Cd102 2.385 . S
O101 C106 1.255 . S
Cd102 O101 2.385 . S
Cd102 O103 2.317 . S
O103 Cd102 2.317 . S
O103 C104 1.232 . S
C104 O103 1.232 . S
C104 O105 1.218 . S
O105 C104 1.218 . S
C106 O99 1.275 . S
C106 O101 1.255 . S
C107 O108 1.258 . S
C107 O109 1.256 . S
O108 Cd100 2.381 1_565 S
O108 C107 1.258 . S
O109 Cd100 2.378 1_565 S
O109 C107 1.256 . S
O110 Cd111 2.300 . S
O110 C117 1.275 . S
Cd111 O110 2.300 . S
Cd111 O119 2.381 . S
Cd111 O120 2.378 . S
O112 Cd113 2.385 1_565 S
O112 C117 1.255 . S
Cd113 O112 2.385 1_545 S
Cd113 O114 2.317 . S
O114 Cd113 2.317 . S
O114 C115 1.232 . S
C115 O114 1.232 . S
C115 O116 1.218 . S
O116 C115 1.218 . S
C117 O110 1.275 . S
C117 O112 1.255 . S
C118 O119 1.258 . S
C118 O120 1.256 . S
O119 Cd111 2.381 . S
O119 C118 1.258 . S
O120 Cd111 2.378 . S
O120 C118 1.256 . S
O121 Cd122 2.300 1_565 S
O121 C128 1.275 . S
Cd122 O121 2.300 1_545 S
Cd122 O130 2.381 . S
Cd122 O131 2.378 . S
O123 Cd124 2.385 . S
O123 C128 1.255 . S
Cd124 O123 2.385 . S
Cd124 O125 2.317 . S
O125 Cd124 2.317 . S
O125 C126 1.232 . S
C126 O125 1.232 . S
C126 O127 1.218 . S
O127 C126 1.218 . S
C128 O121 1.275 . S
C128 O123 1.255 . S
C129 O130 1.258 . S
C129 O131 1.256 . S
O130 Cd122 2.381 . S
O130 C129 1.258 . S
O131 Cd122 2.378 . S
O131 C129 1.256 . S
O132 Cd133 2.300 . S
O132 C139 1.275 . S
Cd133 O132 2.300 . S
Cd133 O141 2.381 1_554 S
Cd133 O142 2.378 1_554 S
O134 Cd135 2.385 . S
O134 C139 1.255 . S
Cd135 O134 2.385 . S
Cd135 O136 2.317 . S
O136 Cd135 2.317 . S
O136 C137 1.232 . S
C137 O136 1.232 . S
C137 O138 1.218 . S
O138 C137 1.218 . S
C139 O132 1.275 . S
C139 O134 1.255 . S
C140 O141 1.258 . S
C140 O142 1.256 . S
O141 Cd133 2.381 1_556 S
O141 C140 1.258 . S
O142 Cd133 2.378 1_556 S
O142 C140 1.256 . S
O143 Cd144 2.300 . S
O143 C150 1.275 . S
Cd144 O143 2.300 . S
Cd144 O152 2.381 . S
Cd144 O153 2.378 . S
O145 Cd146 2.385 1_655 S
O145 C150 1.255 . S
Cd146 O145 2.385 1_455 S
Cd146 O147 2.317 . S
O147 Cd146 2.317 . S
O147 C148 1.232 . S
C148 O147 1.232 . S
C148 O149 1.218 . S
O149 C148 1.218 . S
C150 O143 1.275 . S
C150 O145 1.255 . S
C151 O152 1.258 . S
C151 O153 1.256 . S
O152 Cd144 2.381 . S
O152 C151 1.258 . S
O153 Cd144 2.378 . S
O153 C151 1.256 . S
O154 Cd155 2.300 . S
O154 C161 1.275 . S
Cd155 O154 2.300 . S
Cd155 O163 2.381 . S
Cd155 O164 2.378 . S
O156 Cd157 2.385 . S
O156 C161 1.255 . S
Cd157 O156 2.385 . S
Cd157 O158 2.317 . S
O158 Cd157 2.317 . S
O158 C159 1.232 . S
C159 O158 1.232 . S
C159 O160 1.218 . S
O160 C159 1.218 . S
C161 O154 1.275 . S
C161 O156 1.255 . S
C162 O163 1.258 . S
C162 O164 1.256 . S
O163 Cd155 2.381 . S
O163 C162 1.258 . S
O164 Cd155 2.378 . S
O164 C162 1.256 . S
O165 Cd166 2.300 1_655 S
O165 C172 1.275 . S
Cd166 O165 2.300 1_455 S
Cd166 O174 2.381 . S
Cd166 O175 2.378 . S
O167 Cd168 2.385 . S
O167 C172 1.255 . S
Cd168 O167 2.385 . S
Cd168 O169 2.317 . S
O169 Cd168 2.317 . S
O169 C170 1.232 . S
C170 O169 1.232 . S
C170 O171 1.218 . S
O171 C170 1.218 . S
C172 O165 1.275 . S
C172 O167 1.255 . S
C173 O174 1.258 . S
C173 O175 1.256 . S
O174 Cd166 2.381 . S
O174 C173 1.258 . S
O175 Cd166 2.378 . S
O175 C173 1.256 . S
O176 Cd177 2.300 . S
O176 C183 1.275 . S
Cd177 O176 2.300 . S
Cd177 O185 2.381 . S
Cd177 O186 2.378 . S
O178 Cd179 2.385 . S
O178 C183 1.255 . S
Cd179 O178 2.385 . S
Cd179 O180 2.317 . S
O180 Cd179 2.317 . S
O180 C181 1.232 . S
C181 O180 1.232 . S
C181 O182 1.218 . S
O182 C181 1.218 . S
C183 O176 1.275 . S
C183 O178 1.255 . S
C184 O185 1.258 . S
C184 O186 1.256 . S
O185 Cd177 2.381 . S
O185 C184 1.258 . S
O186 Cd177 2.378 . S
O186 C184 1.256 . S
O187 Cd188 2.300 . S
O187 C194 1.275 . S
Cd188 O187 2.300 . S
Cd188 O196 2.381 . S
Cd188 O197 2.378 . S
O189 Cd190 2.385 . S
O189 C194 1.255 . S
Cd190 O189 2.385 . S
Cd190 O191 2.317 . S
O191 Cd190 2.317 . S
O191 C192 1.232 . S
C192 O191 1.232 . S
C192 O193 1.218 . S
O193 C192 1.218 . S
C194 O187 1.275 . S
C194 O189 1.255 . S
C195 O196 1.258 . S
C195 O197 1.256 . S
O196 Cd188 2.381 . S
O196 C195 1.258 . S
O197 Cd188 2.378 . S
O197 C195 1.256 . S
O198 Cd199 2.300 . S
O198 C205 1.275 . S
Cd199 O198 2.300 . S
Cd199 O207 2.381 . S
Cd199 O208 2.378 . S
O200 Cd201 2.385 1_556 S
O200 C205 1.255 . S
Cd201 O200 2.385 1_554 S
Cd201 O202 2.317 . S
O202 Cd201 2.317 . S
O202 C203 1.232 . S
C203 O202 1.232 . S
C203 O204 1.218 . S
O204 C203 1.218 . S
C205 O198 1.275 . S
C205 O200 1.255 . S
C206 O207 1.258 . S
C206 O208 1.256 . S
O207 Cd199 2.381 . S
O207 C206 1.258 . S
O208 Cd199 2.378 . S
O208 C206 1.256 . S
O209 Cd210 2.300 . S
O209 C216 1.275 . S
Cd210 O209 2.300 . S
Cd210 O218 2.381 . S
Cd210 O219 2.378 . S
O211 Cd212 2.385 1_655 S
O211 C216 1.255 . S
Cd212 O211 2.385 1_455 S
Cd212 O213 2.317 . S
O213 Cd212 2.317 . S
O213 C214 1.232 . S
C214 O213 1.232 . S
C214 O215 1.218 . S
O215 C214 1.218 . S
C216 O209 1.275 . S
C216 O211 1.255 . S
C217 O218 1.258 . S
C217 O219 1.256 . S
O218 Cd210 2.381 . S
O218 C217 1.258 . S
O219 Cd210 2.378 . S
O219 C217 1.256 . S
O220 Cd221 2.300 . S
O220 C227 1.275 . S
Cd221 O220 2.300 . S
Cd221 O229 2.381 . S
Cd221 O230 2.378 . S
O222 Cd223 2.385 . S
O222 C227 1.255 . S
Cd223 O222 2.385 . S
Cd223 O224 2.317 . S
O224 Cd223 2.317 . S
O224 C225 1.232 . S
C225 O224 1.232 . S
C225 O226 1.218 . S
O226 C225 1.218 . S
C227 O220 1.275 . S
C227 O222 1.255 . S
C228 O229 1.258 . S
C228 O230 1.256 . S
O229 Cd221 2.381 . S
O229 C228 1.258 . S
O230 Cd221 2.378 . S
O230 C228 1.256 . S
O231 Cd232 2.300 . S
O231 C238 1.275 . S
Cd232 O231 2.300 . S
Cd232 O240 2.381 . S
Cd232 O241 2.378 . S
O233 Cd234 2.385 . S
O233 C238 1.255 . S
Cd234 O233 2.385 . S
Cd234 O235 2.317 . S
O235 Cd234 2.317 . S
O235 C236 1.232 . S
C236 O235 1.232 . S
C236 O237 1.218 . S
O237 C236 1.218 . S
C238 O231 1.275 . S
C238 O233 1.255 . S
C239 O240 1.258 . S
C239 O241 1.256 . S
O240 Cd232 2.381 . S
O240 C239 1.258 . S
O241 Cd232 2.378 . S
O241 C239 1.256 . S
O242 Cd243 2.300 . S
O242 C249 1.275 . S
Cd243 O242 2.300 . S
Cd243 O251 2.381 . S
Cd243 O252 2.378 . S
O244 Cd245 2.385 1_554 S
O244 C249 1.255 . S
Cd245 O244 2.385 1_556 S
Cd245 O246 2.317 . S
O246 Cd245 2.317 . S
O246 C247 1.232 . S
C247 O246 1.232 . S
C247 O248 1.218 . S
O248 C247 1.218 . S
C249 O242 1.275 . S
C249 O244 1.255 . S
C250 O251 1.258 . S
C250 O252 1.256 . S
O251 Cd243 2.381 . S
O251 C250 1.258 . S
O252 Cd243 2.378 . S
O252 C250 1.256 . S
O253 Cd254 2.300 1_565 S
O253 C260 1.275 . S
Cd254 O253 2.300 1_545 S
Cd254 O262 2.381 . S
Cd254 O263 2.378 . S
O255 Cd256 2.385 . S
O255 C260 1.255 . S
Cd256 O255 2.385 . S
Cd256 O257 2.317 . S
O257 Cd256 2.317 . S
O257 C258 1.232 . S
C258 O257 1.232 . S
C258 O259 1.218 . S
O259 C258 1.218 . S
C260 O253 1.275 . S
C260 O255 1.255 . S
C261 O262 1.258 . S
C261 O263 1.256 . S
O262 Cd254 2.381 . S
O262 C261 1.258 . S
O263 Cd254 2.378 . S
O263 C261 1.256 . S
O264 Cd265 2.300 1_565 S
O264 C271 1.275 . S
Cd265 O264 2.300 1_545 S
Cd265 O273 2.381 . S
Cd265 O274 2.378 . S
O266 Cd267 2.385 . S
O266 C271 1.255 . S
Cd267 O266 2.385 . S
Cd267 O268 2.317 . S
O268 Cd267 2.317 . S
O268 C269 1.232 . S
C269 O268 1.232 . S
C269 O270 1.218 . S
O270 C269 1.218 . S
C271 O264 1.275 . S
C271 O266 1.255 . S
C272 O273 1.258 . S
C272 O274 1.256 . S
O273 Cd265 2.381 . S
O273 C272 1.258 . S
O274 Cd265 2.378 . S
O274 C272 1.256 . S
O275 Cd276 2.300 1_545 S
O275 C282 1.275 . S
Cd276 O275 2.300 1_565 S
Cd276 O284 2.381 . S
Cd276 O285 2.378 . S
O277 Cd278 2.385 . S
O277 C282 1.255 . S
Cd278 O277 2.385 . S
Cd278 O279 2.317 . S
O279 Cd278 2.317 . S
O279 C280 1.232 . S
C280 O279 1.232 . S
C280 O281 1.218 . S
O281 C280 1.218 . S
C282 O275 1.275 . S
C282 O277 1.255 . S
C283 O284 1.258 . S
C283 O285 1.256 . S
O284 Cd276 2.381 . S
O284 C283 1.258 . S
O285 Cd276 2.378 . S
O285 C283 1.256 . S
O286 Cd287 2.300 1_545 S
O286 C293 1.275 . S
Cd287 O286 2.300 1_565 S
Cd287 O295 2.381 . S
Cd287 O296 2.378 . S
O288 Cd289 2.385 . S
O288 C293 1.255 . S
Cd289 O288 2.385 . S
Cd289 O290 2.317 . S
O290 Cd289 2.317 . S
O290 C291 1.232 . S
C291 O290 1.232 . S
C291 O292 1.218 . S
O292 C291 1.218 . S
C293 O286 1.275 . S
C293 O288 1.255 . S
C294 O295 1.258 . S
C294 O296 1.256 . S
O295 Cd287 2.381 . S
O295 C294 1.258 . S
O296 Cd287 2.378 . S
O296 C294 1.256 . S
O297 Cd298 2.300 1_556 S
O297 C304 1.275 . S
Cd298 O297 2.300 1_554 S
Cd298 O306 2.381 . S
Cd298 O307 2.378 . S
O299 Cd300 2.385 . S
O299 C304 1.255 . S
Cd300 O299 2.385 . S
Cd300 O301 2.317 . S
O301 Cd300 2.317 . S
O301 C302 1.232 . S
C302 O301 1.232 . S
C302 O303 1.218 . S
O303 C302 1.218 . S
C304 O297 1.275 . S
C304 O299 1.255 . S
C305 O306 1.258 . S
C305 O307 1.256 . S
O306 Cd298 2.381 . S
O306 C305 1.258 . S
O307 Cd298 2.378 . S
O307 C305 1.256 . S
O308 Cd309 2.300 . S
O308 C315 1.275 . S
Cd309 O308 2.300 . S
Cd309 O317 2.381 . S
Cd309 O318 2.378 . S
O310 Cd311 2.385 1_455 S
O310 C315 1.255 . S
Cd311 O310 2.385 1_655 S
Cd311 O312 2.317 . S
O312 Cd311 2.317 . S
O312 C313 1.232 . S
C313 O312 1.232 . S
C313 O314 1.218 . S
O314 C313 1.218 . S
C315 O308 1.275 . S
C315 O310 1.255 . S
C316 O317 1.258 . S
C316 O318 1.256 . S
O317 Cd309 2.381 . S
O317 C316 1.258 . S
O318 Cd309 2.378 . S
O318 C316 1.256 . S
O319 Cd320 2.300 . S
O319 C326 1.275 . S
Cd320 O319 2.300 . S
Cd320 O328 2.381 . S
Cd320 O329 2.378 . S
O321 Cd322 2.385 . S
O321 C326 1.255 . S
Cd322 O321 2.385 . S
Cd322 O323 2.317 . S
O323 Cd322 2.317 . S
O323 C324 1.232 . S
C324 O323 1.232 . S
C324 O325 1.218 . S
O325 C324 1.218 . S
C326 O319 1.275 . S
C326 O321 1.255 . S
C327 O328 1.258 . S
C327 O329 1.256 . S
O328 Cd320 2.381 . S
O328 C327 1.258 . S
O329 Cd320 2.378 . S
O329 C327 1.256 . S
O330 Cd331 2.300 . S
O330 C337 1.275 . S
Cd331 O330 2.300 . S
Cd331 O339 2.381 . S
Cd331 O340 2.378 . S
O332 Cd333 2.385 . S
O332 C337 1.255 . S
Cd333 O332 2.385 . S
Cd333 O334 2.317 . S
O334 Cd333 2.317 . S
O334 C335 1.232 . S
C335 O334 1.232 . S
C335 O336 1.218 . S
O336 C335 1.218 . S
C337 O330 1.275 . S
C337 O332 1.255 . S
C338 O339 1.258 . S
C338 O340 1.256 . S
O339 Cd331 2.381 . S
O339 C338 1.258 . S
O340 Cd331 2.378 . S
O340 C338 1.256 . S
O341 Cd342 2.284 1_655 S
O341 C348 1.275 . S
Cd342 O341 2.284 1_455 S
Cd342 O350 2.396 . S
Cd342 O351 2.401 . S
O343 Cd344 2.385 . S
O343 C348 1.255 . S
Cd344 O343 2.385 . S
Cd344 O345 2.317 . S
O345 Cd344 2.317 . S
O345 C346 1.232 . S
C346 O345 1.232 . S
C346 O347 1.218 . S
O347 C346 1.218 . S
C348 O341 1.275 . S
C348 O343 1.255 . S
C349 O350 1.258 . S
C349 O351 1.256 . S
O350 Cd342 2.396 . S
O350 C349 1.258 . S
O351 Cd342 2.401 . S
O351 C349 1.256 . S
O352 Cd353 2.300 . S
O352 C359 1.275 . S
Cd353 O352 2.300 . S
Cd353 O361 2.381 . S
Cd353 O362 2.378 . S
O354 Cd355 2.385 . S
O354 C359 1.255 . S
Cd355 O354 2.385 . S
Cd355 O356 2.317 . S
O356 Cd355 2.317 . S
O356 C357 1.232 . S
C357 O356 1.232 . S
C357 O358 1.218 . S
O358 C357 1.218 . S
C359 O352 1.275 . S
C359 O354 1.255 . S
C360 O361 1.258 . S
C360 O362 1.256 . S
O361 Cd353 2.381 . S
O361 C360 1.258 . S
O362 Cd353 2.378 . S
O362 C360 1.256 . S
O363 Cd364 2.300 . S
O363 C370 1.275 . S
Cd364 O363 2.300 . S
Cd364 O372 2.381 . S
Cd364 O373 2.378 . S
O365 Cd366 2.385 1_556 S
O365 C370 1.255 . S
Cd366 O365 2.385 1_554 S
Cd366 O367 2.317 . S
O367 Cd366 2.317 . S
O367 C368 1.232 . S
C368 O367 1.232 . S
C368 O369 1.218 . S
O369 C368 1.218 . S
C370 O363 1.275 . S
C370 O365 1.255 . S
C371 O372 1.258 . S
C371 O373 1.256 . S
O372 Cd364 2.381 . S
O372 C371 1.258 . S
O373 Cd364 2.378 . S
O373 C371 1.256 . S
O374 Cd375 2.300 . S
O374 C381 1.275 . S
Cd375 O374 2.300 . S
Cd375 O383 2.381 . S
Cd375 O384 2.378 . S
O376 Cd377 2.385 . S
O376 C381 1.255 . S
Cd377 O376 2.385 . S
Cd377 O378 2.317 . S
O378 Cd377 2.317 . S
O378 C379 1.232 . S
C379 O378 1.232 . S
C379 O380 1.218 . S
O380 C379 1.218 . S
C381 O374 1.275 . S
C381 O376 1.255 . S
C382 O383 1.258 . S
C382 O384 1.256 . S
O383 Cd375 2.381 . S
O383 C382 1.258 . S
O384 Cd375 2.378 . S
O384 C382 1.256 . S
O385 Cd386 2.300 . S
O385 C392 1.275 . S
Cd386 O385 2.300 . S
Cd386 O394 2.381 . S
Cd386 O395 2.378 . S
O387 Cd388 2.385 . S
O387 C392 1.255 . S
Cd388 O387 2.385 . S
Cd388 O389 2.317 . S
O389 Cd388 2.317 . S
O389 C390 1.232 . S
C390 O389 1.232 . S
C390 O391 1.218 . S
O391 C390 1.218 . S
C392 O385 1.275 . S
C392 O387 1.255 . S
C393 O394 1.258 . S
C393 O395 1.256 . S
O394 Cd386 2.381 . S
O394 C393 1.258 . S
O395 Cd386 2.378 . S
O395 C393 1.256 . S
O396 Cd397 2.300 . S
O396 C403 1.275 . S
Cd397 O396 2.300 . S
Cd397 O405 2.381 . S
Cd397 O406 2.378 . S
O398 Cd399 2.385 . S
O398 C403 1.255 . S
Cd399 O398 2.385 . S
Cd399 O400 2.317 . S
O400 Cd399 2.317 . S
O400 C401 1.232 . S
C401 O400 1.232 . S
C401 O402 1.218 . S
O402 C401 1.218 . S
C403 O396 1.275 . S
C403 O398 1.255 . S
C404 O405 1.258 . S
C404 O406 1.256 . S
O405 Cd397 2.381 . S
O405 C404 1.258 . S
O406 Cd397 2.378 . S
O406 C404 1.256 . S
O407 Cd408 2.300 . S
O407 C414 1.275 . S
Cd408 O407 2.300 . S
Cd408 O416 2.381 . S
Cd408 O417 2.378 . S
O409 Cd410 2.385 . S
O409 C414 1.255 . S
Cd410 O409 2.385 . S
Cd410 O411 2.317 . S
O411 Cd410 2.317 . S
O411 C412 1.232 . S
C412 O411 1.232 . S
C412 O413 1.218 . S
O413 C412 1.218 . S
C414 O407 1.275 . S
C414 O409 1.255 . S
C415 O416 1.258 . S
C415 O417 1.256 . S
O416 Cd408 2.381 . S
O416 C415 1.258 . S
O417 Cd408 2.378 . S
O417 C415 1.256 . S
O418 Cd419 2.300 . S
O418 C425 1.275 . S
Cd419 O418 2.300 . S
Cd419 O427 2.381 . S
Cd419 O428 2.378 . S
O420 Cd421 2.385 . S
O420 C425 1.255 . S
Cd421 O420 2.385 . S
Cd421 O422 2.317 . S
O422 Cd421 2.317 . S
O422 C423 1.232 . S
C423 O422 1.232 . S
C423 O424 1.218 . S
O424 C423 1.218 . S
C425 O418 1.275 . S
C425 O420 1.255 . S
C426 O427 1.258 . S
C426 O428 1.256 . S
O427 Cd419 2.381 . S
O427 C426 1.258 . S
O428 Cd419 2.378 . S
O428 C426 1.256 . S
O429 Cd430 2.300 . S
O429 C436 1.275 . S
Cd430 O429 2.300 . S
Cd430 O438 2.381 . S
Cd430 O439 2.378 . S
O431 Cd432 2.385 . S
O431 C436 1.255 . S
Cd432 O431 2.385 . S
Cd432 O433 2.317 . S
O433 Cd432 2.317 . S
O433 C434 1.232 . S
C434 O433 1.232 . S
C434 O435 1.218 . S
O435 C434 1.218 . S
C436 O429 1.275 . S
C436 O431 1.255 . S
C437 O438 1.258 . S
C437 O439 1.256 . S
O438 Cd430 2.381 . S
O438 C437 1.258 . S
O439 Cd430 2.378 . S
O439 C437 1.256 . S
O440 Cd441 2.300 . S
O440 C447 1.275 . S
Cd441 O440 2.300 . S
Cd441 O449 2.381 . S
Cd441 O450 2.378 . S
O442 Cd443 2.385 1_455 S
O442 C447 1.255 . S
Cd443 O442 2.385 1_655 S
Cd443 O444 2.317 . S
O444 Cd443 2.317 . S
O444 C445 1.232 . S
C445 O444 1.232 . S
C445 O446 1.218 . S
O446 C445 1.218 . S
C447 O440 1.275 . S
C447 O442 1.255 . S
C448 O449 1.258 . S
C448 O450 1.256 . S
O449 Cd441 2.381 . S
O449 C448 1.258 . S
O450 Cd441 2.378 . S
O450 C448 1.256 . S
O451 Cd452 2.300 . S
O451 C458 1.275 . S
Cd452 O451 2.300 . S
Cd452 O460 2.381 . S
Cd452 O461 2.378 . S
O453 Cd454 2.385 . S
O453 C458 1.255 . S
Cd454 O453 2.385 . S
Cd454 O455 2.317 . S
O455 Cd454 2.317 . S
O455 C456 1.232 . S
C456 O455 1.232 . S
C456 O457 1.218 . S
O457 C456 1.218 . S
C458 O451 1.275 . S
C458 O453 1.255 . S
C459 O460 1.258 . S
C459 O461 1.256 . S
O460 Cd452 2.381 . S
O460 C459 1.258 . S
O461 Cd452 2.378 . S
O461 C459 1.256 . S
O462 Cd463 2.300 . S
O462 C469 1.275 . S
Cd463 O462 2.300 . S
Cd463 O471 2.381 . S
Cd463 O472 2.378 . S
O464 Cd465 2.385 1_554 S
O464 C469 1.255 . S
Cd465 O464 2.385 1_556 S
Cd465 O466 2.317 . S
O466 Cd465 2.317 . S
O466 C467 1.232 . S
C467 O466 1.232 . S
C467 O468 1.218 . S
O468 C467 1.218 . S
C469 O462 1.275 . S
C469 O464 1.255 . S
C470 O471 1.258 . S
C470 O472 1.256 . S
O471 Cd463 2.381 . S
O471 C470 1.258 . S
O472 Cd463 2.378 . S
O472 C470 1.256 . S
O473 Cd474 2.300 . S
O473 C480 1.275 . S
Cd474 O473 2.300 . S
Cd474 O482 2.381 . S
Cd474 O483 2.378 . S
O475 Cd476 2.385 . S
O475 C480 1.255 . S
Cd476 O475 2.385 . S
Cd476 O477 2.317 . S
O477 Cd476 2.317 . S
O477 C478 1.232 . S
C478 O477 1.232 . S
C478 O479 1.218 . S
O479 C478 1.218 . S
C480 O473 1.275 . S
C480 O475 1.255 . S
C481 O482 1.258 . S
C481 O483 1.256 . S
O482 Cd474 2.381 . S
O482 C481 1.258 . S
O483 Cd474 2.378 . S
O483 C481 1.256 . S
O484 Cd485 2.300 . S
O484 C491 1.275 . S
Cd485 O484 2.300 . S
Cd485 O493 2.381 . S
Cd485 O494 2.378 . S
O486 Cd487 2.385 . S
O486 C491 1.255 . S
Cd487 O486 2.385 . S
Cd487 O488 2.317 . S
O488 Cd487 2.317 . S
O488 C489 1.232 . S
C489 O488 1.232 . S
C489 O490 1.218 . S
O490 C489 1.218 . S
C491 O484 1.275 . S
C491 O486 1.255 . S
C492 O493 1.258 . S
C492 O494 1.256 . S
O493 Cd485 2.381 . S
O493 C492 1.258 . S
O494 Cd485 2.378 . S
O494 C492 1.256 . S
O495 Cd496 2.300 . S
O495 C502 1.275 . S
Cd496 O495 2.300 . S
Cd496 O504 2.381 . S
Cd496 O505 2.378 . S
O497 Cd498 2.385 . S
O497 C502 1.255 . S
Cd498 O497 2.385 . S
Cd498 O499 2.317 . S
O499 Cd498 2.317 . S
O499 C500 1.232 . S
C500 O499 1.232 . S
C500 O501 1.218 . S
O501 C500 1.218 . S
C502 O495 1.275 . S
C502 O497 1.255 . S
C503 O504 1.258 . S
C503 O505 1.256 . S
O504 Cd496 2.381 . S
O504 C503 1.258 . S
O505 Cd496 2.378 . S
O505 C503 1.256 . S
O506 Cd507 2.300 . S
O506 C513 1.275 . S
Cd507 O506 2.300 . S
Cd507 O515 2.381 . S
Cd507 O516 2.378 . S
O508 Cd509 2.385 . S
O508 C513 1.255 . S
Cd509 O508 2.385 . S
Cd509 O510 2.317 . S
O510 Cd509 2.317 . S
O510 C511 1.232 . S
C511 O510 1.232 . S
C511 O512 1.218 . S
O512 C511 1.218 . S
C513 O506 1.275 . S
C513 O508 1.255 . S
C514 O515 1.258 . S
C514 O516 1.256 . S
O515 Cd507 2.381 . S
O515 C514 1.258 . S
O516 Cd507 2.378 . S
O516 C514 1.256 . S
O517 Cd518 2.300 . S
O517 C524 1.275 . S
Cd518 O517 2.300 . S
Cd518 O526 2.381 . S
Cd518 O527 2.378 . S
O519 Cd520 2.385 . S
O519 C524 1.255 . S
Cd520 O519 2.385 . S
Cd520 O521 2.317 . S
O521 Cd520 2.317 . S
O521 C522 1.232 . S
C522 O521 1.232 . S
C522 O523 1.218 . S
O523 C522 1.218 . S
C524 O517 1.275 . S
C524 O519 1.255 . S
C525 O526 1.258 . S
C525 O527 1.256 . S
O526 Cd518 2.381 . S
O526 C525 1.258 . S
O527 Cd518 2.378 . S
O527 C525 1.256 . S
H528 C531 0.931 . S
H529 C534 0.928 . S
H530 C536 0.930 . S
C531 H528 0.931 . S
C531 C532 1.413 . S
C531 C533 1.360 . S
C532 C531 1.413 . S
C532 C536 1.429 . S
C533 C531 1.360 . S
C533 C534 1.372 . S
C534 H529 0.928 . S
C534 C533 1.372 . S
C534 C535 1.404 . S
C535 C534 1.404 . S
C535 C536 1.391 . S
C536 H530 0.930 . S
C536 C532 1.429 . S
C536 C535 1.391 . S
H537 C540 0.931 . S
H538 C543 0.928 . S
H539 C545 0.930 . S
C540 H537 0.931 . S
C540 C541 1.413 . S
C540 C542 1.360 . S
C541 C540 1.413 . S
C541 C545 1.429 . S
C542 C540 1.360 . S
C542 C543 1.372 . S
C543 H538 0.928 . S
C543 C542 1.372 . S
C543 C544 1.404 . S
C544 C543 1.404 . S
C544 C545 1.391 . S
C545 H539 0.930 . S
C545 C541 1.429 . S
C545 C544 1.391 . S
H546 C549 0.931 . S
H547 C552 0.928 . S
H548 C554 0.930 . S
C549 H546 0.931 . S
C549 C550 1.413 . S
C549 C551 1.360 . S
C550 C549 1.413 . S
C550 C554 1.429 . S
C551 C549 1.360 . S
C551 C552 1.372 . S
C552 H547 0.928 . S
C552 C551 1.372 . S
C552 C553 1.404 . S
C553 C552 1.404 . S
C553 C554 1.391 . S
C554 H548 0.930 . S
C554 C550 1.429 . S
C554 C553 1.391 . S
H555 C558 0.931 . S
H556 C561 0.928 . S
H557 C563 0.930 . S
C558 H555 0.931 . S
C558 C559 1.413 . S
C558 C560 1.360 . S
C559 C558 1.413 . S
C559 C563 1.429 . S
C560 C558 1.360 . S
C560 C561 1.372 . S
C561 H556 0.928 . S
C561 C560 1.372 . S
C561 C562 1.404 . S
C562 C561 1.404 . S
C562 C563 1.391 . S
C563 H557 0.930 . S
C563 C559 1.429 . S
C563 C562 1.391 . S
H564 C567 0.931 . S
H565 C570 0.928 . S
H566 C572 0.930 . S
C567 H564 0.931 . S
C567 C568 1.413 . S
C567 C569 1.360 . S
C568 C567 1.413 . S
C568 C572 1.429 . S
C569 C567 1.360 . S
C569 C570 1.372 . S
C570 H565 0.928 . S
C570 C569 1.372 . S
C570 C571 1.404 . S
C571 C570 1.404 . S
C571 C572 1.391 . S
C572 H566 0.930 . S
C572 C568 1.429 . S
C572 C571 1.391 . S
H573 C576 0.931 . S
H574 C579 0.928 . S
H575 C581 0.930 . S
C576 H573 0.931 . S
C576 C577 1.413 . S
C576 C578 1.360 . S
C577 C576 1.413 . S
C577 C581 1.429 . S
C578 C576 1.360 . S
C578 C579 1.372 . S
C579 H574 0.928 . S
C579 C578 1.372 . S
C579 C580 1.404 . S
C580 C579 1.404 . S
C580 C581 1.391 . S
C581 H575 0.930 . S
C581 C577 1.429 . S
C581 C580 1.391 . S
H582 C585 0.931 . S
H583 C588 0.928 . S
H584 C590 0.930 . S
C585 H582 0.931 . S
C585 C586 1.413 . S
C585 C587 1.360 . S
C586 C585 1.413 . S
C586 C590 1.429 . S
C587 C585 1.360 . S
C587 C588 1.372 . S
C588 H583 0.928 . S
C588 C587 1.372 . S
C588 C589 1.404 . S
C589 C588 1.404 . S
C589 C590 1.391 . S
C590 H584 0.930 . S
C590 C586 1.429 . S
C590 C589 1.391 . S
H591 C594 0.931 . S
H592 C597 0.928 . S
H593 C599 0.930 . S
C594 H591 0.931 . S
C594 C595 1.413 . S
C594 C596 1.360 . S
C595 C594 1.413 . S
C595 C599 1.429 . S
C596 C594 1.360 . S
C596 C597 1.372 . S
C597 H592 0.928 . S
C597 C596 1.372 . S
C597 C598 1.404 . S
C598 C597 1.404 . S
C598 C599 1.391 . S
C599 H593 0.930 . S
C599 C595 1.429 . S
C599 C598 1.391 . S
H600 C603 0.931 . S
H601 C606 0.928 . S
H602 C608 0.930 . S
C603 H600 0.931 . S
C603 C604 1.413 . S
C603 C605 1.360 . S
C604 C603 1.413 . S
C604 C608 1.429 . S
C605 C603 1.360 . S
C605 C606 1.372 . S
C606 H601 0.928 . S
C606 C605 1.372 . S
C606 C607 1.404 . S
C607 C606 1.404 . S
C607 C608 1.391 . S
C608 H602 0.930 . S
C608 C604 1.429 . S
C608 C607 1.391 . S
H609 C612 0.931 . S
H610 C615 0.928 . S
H611 C617 0.930 . S
C612 H609 0.931 . S
C612 C613 1.413 . S
C612 C614 1.360 . S
C613 C612 1.413 . S
C613 C617 1.429 . S
C614 C612 1.360 . S
C614 C615 1.372 . S
C615 H610 0.928 . S
C615 C614 1.372 . S
C615 C616 1.404 . S
C616 C615 1.404 . S
C616 C617 1.391 . S
C617 H611 0.930 . S
C617 C613 1.429 . S
C617 C616 1.391 . S
H618 C621 0.931 . S
H619 C624 0.928 . S
H620 C626 0.930 . S
C621 H618 0.931 . S
C621 C622 1.413 . S
C621 C623 1.360 . S
C622 C621 1.413 . S
C622 C626 1.429 . S
C623 C621 1.360 . S
C623 C624 1.372 . S
C624 H619 0.928 . S
C624 C623 1.372 . S
C624 C625 1.404 . S
C625 C624 1.404 . S
C625 C626 1.391 . S
C626 H620 0.930 . S
C626 C622 1.429 . S
C626 C625 1.391 . S
H627 C630 0.931 . S
H628 C633 0.928 . S
H629 C635 0.930 . S
C630 H627 0.931 . S
C630 C631 1.413 . S
C630 C632 1.360 . S
C631 C630 1.413 . S
C631 C635 1.429 . S
C632 C630 1.360 . S
C632 C633 1.372 . S
C633 H628 0.928 . S
C633 C632 1.372 . S
C633 C634 1.404 . S
C634 C633 1.404 . S
C634 C635 1.391 . S
C635 H629 0.930 . S
C635 C631 1.429 . S
C635 C634 1.391 . S
H636 C639 0.931 . S
H637 C642 0.928 . S
H638 C644 0.930 . S
C639 H636 0.931 . S
C639 C640 1.413 . S
C639 C641 1.360 . S
C640 C639 1.413 . S
C640 C644 1.429 . S
C641 C639 1.360 . S
C641 C642 1.372 . S
C642 H637 0.928 . S
C642 C641 1.372 . S
C642 C643 1.404 . S
C643 C642 1.404 . S
C643 C644 1.391 . S
C644 H638 0.930 . S
C644 C640 1.429 . S
C644 C643 1.391 . S
H645 C648 0.931 . S
H646 C651 0.928 . S
H647 C653 0.930 . S
C648 H645 0.931 . S
C648 C649 1.413 . S
C648 C650 1.360 . S
C649 C648 1.413 . S
C649 C653 1.429 . S
C650 C648 1.360 . S
C650 C651 1.372 . S
C651 H646 0.928 . S
C651 C650 1.372 . S
C651 C652 1.404 . S
C652 C651 1.404 . S
C652 C653 1.391 . S
C653 H647 0.930 . S
C653 C649 1.429 . S
C653 C652 1.391 . S
H654 C657 0.931 . S
H655 C660 0.928 . S
H656 C662 0.930 . S
C657 H654 0.931 . S
C657 C658 1.413 . S
C657 C659 1.360 . S
C658 C657 1.413 . S
C658 C662 1.429 . S
C659 C657 1.360 . S
C659 C660 1.372 . S
C660 H655 0.928 . S
C660 C659 1.372 . S
C660 C661 1.404 . S
C661 C660 1.404 . S
C661 C662 1.391 . S
C662 H656 0.930 . S
C662 C658 1.429 . S
C662 C661 1.391 . S
H663 C666 0.931 . S
H664 C669 0.928 . S
H665 C671 0.930 . S
C666 H663 0.931 . S
C666 C667 1.413 . S
C666 C668 1.360 . S
C667 C666 1.413 . S
C667 C671 1.429 . S
C668 C666 1.360 . S
C668 C669 1.372 . S
C669 H664 0.928 . S
C669 C668 1.372 . S
C669 C670 1.404 . S
C670 C669 1.404 . S
C670 C671 1.391 . S
C671 H665 0.930 . S
C671 C667 1.429 . S
C671 C670 1.391 . S
H672 C675 0.931 . S
H673 C678 0.928 . S
H674 C680 0.930 . S
C675 H672 0.931 . S
C675 C676 1.413 . S
C675 C677 1.360 . S
C676 C675 1.413 . S
C676 C680 1.429 . S
C677 C675 1.360 . S
C677 C678 1.372 . S
C678 H673 0.928 . S
C678 C677 1.372 . S
C678 C679 1.404 . S
C679 C678 1.404 . S
C679 C680 1.391 . S
C680 H674 0.930 . S
C680 C676 1.429 . S
C680 C679 1.391 . S
H681 C684 0.931 . S
H682 C687 0.928 . S
H683 C689 0.930 . S
C684 H681 0.931 . S
C684 C685 1.413 . S
C684 C686 1.360 . S
C685 C684 1.413 . S
C685 C689 1.429 . S
C686 C684 1.360 . S
C686 C687 1.372 . S
C687 H682 0.928 . S
C687 C686 1.372 . S
C687 C688 1.404 . S
C688 C687 1.404 . S
C688 C689 1.391 . S
C689 H683 0.930 . S
C689 C685 1.429 . S
C689 C688 1.391 . S
H690 C693 0.931 . S
H691 C696 0.928 . S
H692 C698 0.930 . S
C693 H690 0.931 . S
C693 C694 1.413 . S
C693 C695 1.360 . S
C694 C693 1.413 . S
C694 C698 1.429 . S
C695 C693 1.360 . S
C695 C696 1.372 . S
C696 H691 0.928 . S
C696 C695 1.372 . S
C696 C697 1.404 . S
C697 C696 1.404 . S
C697 C698 1.391 . S
C698 H692 0.930 . S
C698 C694 1.429 . S
C698 C697 1.391 . S
H699 C702 0.931 . S
H700 C705 0.928 . S
H701 C707 0.930 . S
C702 H699 0.931 . S
C702 C703 1.413 . S
C702 C704 1.360 . S
C703 C702 1.413 . S
C703 C707 1.429 . S
C704 C702 1.360 . S
C704 C705 1.372 . S
C705 H700 0.928 . S
C705 C704 1.372 . S
C705 C706 1.404 . S
C706 C705 1.404 . S
C706 C707 1.391 . S
C707 H701 0.930 . S
C707 C703 1.429 . S
C707 C706 1.391 . S
H708 C711 0.931 . S
H709 C714 0.928 . S
H710 C716 0.930 . S
C711 H708 0.931 . S
C711 C712 1.413 . S
C711 C713 1.360 . S
C712 C711 1.413 . S
C712 C716 1.429 . S
C713 C711 1.360 . S
C713 C714 1.372 . S
C714 H709 0.928 . S
C714 C713 1.372 . S
C714 C715 1.404 . S
C715 C714 1.404 . S
C715 C716 1.391 . S
C716 H710 0.930 . S
C716 C712 1.429 . S
C716 C715 1.391 . S
H717 C720 0.931 . S
H718 C723 0.928 . S
H719 C725 0.930 . S
C720 H717 0.931 . S
C720 C721 1.413 . S
C720 C722 1.360 . S
C721 C720 1.413 . S
C721 C725 1.429 . S
C722 C720 1.360 . S
C722 C723 1.372 . S
C723 H718 0.928 . S
C723 C722 1.372 . S
C723 C724 1.404 . S
C724 C723 1.404 . S
C724 C725 1.391 . S
C725 H719 0.930 . S
C725 C721 1.429 . S
C725 C724 1.391 . S
H726 C729 0.931 . S
H727 C732 0.928 . S
H728 C734 0.930 . S
C729 H726 0.931 . S
C729 C730 1.413 . S
C729 C731 1.360 . S
C730 C729 1.413 . S
C730 C734 1.429 . S
C731 C729 1.360 . S
C731 C732 1.372 . S
C732 H727 0.928 . S
C732 C731 1.372 . S
C732 C733 1.404 . S
C733 C732 1.404 . S
C733 C734 1.391 . S
C734 H728 0.930 . S
C734 C730 1.429 . S
C734 C733 1.391 . S
H735 C738 0.931 . S
H736 C741 0.928 . S
H737 C743 0.930 . S
C738 H735 0.931 . S
C738 C739 1.413 . S
C738 C740 1.360 . S
C739 C738 1.413 . S
C739 C743 1.429 . S
C740 C738 1.360 . S
C740 C741 1.372 . S
C741 H736 0.928 . S
C741 C740 1.372 . S
C741 C742 1.404 . S
C742 C741 1.404 . S
C742 C743 1.391 . S
C743 H737 0.930 . S
C743 C739 1.429 . S
C743 C742 1.391 . S
H744 C747 0.931 . S
H745 C750 0.928 . S
H746 C752 0.930 . S
C747 H744 0.931 . S
C747 C748 1.413 . S
C747 C749 1.360 . S
C748 C747 1.413 . S
C748 C752 1.429 . S
C749 C747 1.360 . S
C749 C750 1.372 . S
C750 H745 0.928 . S
C750 C749 1.372 . S
C750 C751 1.404 . S
C751 C750 1.404 . S
C751 C752 1.391 . S
C752 H746 0.930 . S
C752 C748 1.429 . S
C752 C751 1.391 . S
H753 C756 0.931 . S
H754 C759 0.928 . S
H755 C761 0.930 . S
C756 H753 0.931 . S
C756 C757 1.413 . S
C756 C758 1.360 . S
C757 C756 1.413 . S
C757 C761 1.429 . S
C758 C756 1.360 . S
C758 C759 1.372 . S
C759 H754 0.928 . S
C759 C758 1.372 . S
C759 C760 1.404 . S
C760 C759 1.404 . S
C760 C761 1.391 . S
C761 H755 0.930 . S
C761 C757 1.429 . S
C761 C760 1.391 . S
H762 C765 0.931 . S
H763 C768 0.928 . S
H764 C770 0.930 . S
C765 H762 0.931 . S
C765 C766 1.413 . S
C765 C767 1.360 . S
C766 C765 1.413 . S
C766 C770 1.429 . S
C767 C765 1.360 . S
C767 C768 1.372 . S
C768 H763 0.928 . S
C768 C767 1.372 . S
C768 C769 1.404 . S
C769 C768 1.404 . S
C769 C770 1.391 . S
C770 H764 0.930 . S
C770 C766 1.429 . S
C770 C769 1.391 . S
H771 C774 0.931 . S
H772 C777 0.928 . S
H773 C779 0.930 . S
C774 H771 0.931 . S
C774 C775 1.413 . S
C774 C776 1.360 . S
C775 C774 1.413 . S
C775 C779 1.429 . S
C776 C774 1.360 . S
C776 C777 1.372 . S
C777 H772 0.928 . S
C777 C776 1.372 . S
C777 C778 1.404 . S
C778 C777 1.404 . S
C778 C779 1.391 . S
C779 H773 0.930 . S
C779 C775 1.429 . S
C779 C778 1.391 . S
H780 C783 0.931 . S
H781 C786 0.928 . S
H782 C788 0.930 . S
C783 H780 0.931 . S
C783 C784 1.413 . S
C783 C785 1.360 . S
C784 C783 1.413 . S
C784 C788 1.429 . S
C785 C783 1.360 . S
C785 C786 1.372 . S
C786 H781 0.928 . S
C786 C785 1.372 . S
C786 C787 1.404 . S
C787 C786 1.404 . S
C787 C788 1.391 . S
C788 H782 0.930 . S
C788 C784 1.429 . S
C788 C787 1.391 . S
H789 C792 0.931 . S
H790 C795 0.928 . S
H791 C797 0.930 . S
C792 H789 0.931 . S
C792 C793 1.413 . S
C792 C794 1.360 . S
C793 C792 1.413 . S
C793 C797 1.429 . S
C794 C792 1.360 . S
C794 C795 1.372 . S
C795 H790 0.928 . S
C795 C794 1.372 . S
C795 C796 1.404 . S
C796 C795 1.404 . S
C796 C797 1.391 . S
C797 H791 0.930 . S
C797 C793 1.429 . S
C797 C796 1.391 . S
H798 C801 0.931 . S
H799 C804 0.928 . S
H800 C806 0.930 . S
C801 H798 0.931 . S
C801 C802 1.413 . S
C801 C803 1.360 . S
C802 C801 1.413 . S
C802 C806 1.429 . S
C803 C801 1.360 . S
C803 C804 1.372 . S
C804 H799 0.928 . S
C804 C803 1.372 . S
C804 C805 1.404 . S
C805 C804 1.404 . S
C805 C806 1.391 . S
C806 H800 0.930 . S
C806 C802 1.429 . S
C806 C805 1.391 . S
H807 C810 0.931 . S
H808 C813 0.928 . S
H809 C815 0.930 . S
C810 H807 0.931 . S
C810 C811 1.413 . S
C810 C812 1.360 . S
C811 C810 1.413 . S
C811 C815 1.429 . S
C812 C810 1.360 . S
C812 C813 1.372 . S
C813 H808 0.928 . S
C813 C812 1.372 . S
C813 C814 1.404 . S
C814 C813 1.404 . S
C814 C815 1.391 . S
C815 H809 0.930 . S
C815 C811 1.429 . S
C815 C814 1.391 . S
H816 C819 0.931 . S
H817 C822 0.928 . S
H818 C824 0.930 . S
C819 H816 0.931 . S
C819 C820 1.413 . S
C819 C821 1.360 . S
C820 C819 1.413 . S
C820 C824 1.429 . S
C821 C819 1.360 . S
C821 C822 1.372 . S
C822 H817 0.928 . S
C822 C821 1.372 . S
C822 C823 1.404 . S
C823 C822 1.404 . S
C823 C824 1.391 . S
C824 H818 0.930 . S
C824 C820 1.429 . S
C824 C823 1.391 . S
H825 C828 0.931 . S
H826 C831 0.928 . S
H827 C833 0.930 . S
C828 H825 0.931 . S
C828 C829 1.413 . S
C828 C830 1.360 . S
C829 C828 1.413 . S
C829 C833 1.429 . S
C830 C828 1.360 . S
C830 C831 1.372 . S
C831 H826 0.928 . S
C831 C830 1.372 . S
C831 C832 1.404 . S
C832 C831 1.404 . S
C832 C833 1.391 . S
C833 H827 0.930 . S
C833 C829 1.429 . S
C833 C832 1.391 . S
H834 C837 0.931 . S
H835 C840 0.928 . S
H836 C842 0.930 . S
C837 H834 0.931 . S
C837 C838 1.413 . S
C837 C839 1.360 . S
C838 C837 1.413 . S
C838 C842 1.429 . S
C839 C837 1.360 . S
C839 C840 1.372 . S
C840 H835 0.928 . S
C840 C839 1.372 . S
C840 C841 1.404 . S
C841 C840 1.404 . S
C841 C842 1.391 . S
C842 H836 0.930 . S
C842 C838 1.429 . S
C842 C841 1.391 . S
H843 C846 0.931 . S
H844 C849 0.928 . S
H845 C851 0.930 . S
C846 H843 0.931 . S
C846 C847 1.413 . S
C846 C848 1.360 . S
C847 C846 1.413 . S
C847 C851 1.429 . S
C848 C846 1.360 . S
C848 C849 1.372 . S
C849 H844 0.928 . S
C849 C848 1.372 . S
C849 C850 1.404 . S
C850 C849 1.404 . S
C850 C851 1.391 . S
C851 H845 0.930 . S
C851 C847 1.429 . S
C851 C850 1.391 . S
H852 C855 0.931 . S
H853 C858 0.928 . S
H854 C860 0.930 . S
C855 H852 0.931 . S
C855 C856 1.413 . S
C855 C857 1.360 . S
C856 C855 1.413 . S
C856 C860 1.429 . S
C857 C855 1.360 . S
C857 C858 1.372 . S
C858 H853 0.928 . S
C858 C857 1.372 . S
C858 C859 1.404 . S
C859 C858 1.404 . S
C859 C860 1.391 . S
C860 H854 0.930 . S
C860 C856 1.429 . S
C860 C859 1.391 . S
H861 C864 0.931 . S
H862 C867 0.928 . S
H863 C869 0.930 . S
C864 H861 0.931 . S
C864 C865 1.413 . S
C864 C866 1.360 . S
C865 C864 1.413 . S
C865 C869 1.429 . S
C866 C864 1.360 . S
C866 C867 1.372 . S
C867 H862 0.928 . S
C867 C866 1.372 . S
C867 C868 1.404 . S
C868 C867 1.404 . S
C868 C869 1.391 . S
C869 H863 0.930 . S
C869 C865 1.429 . S
C869 C868 1.391 . S
H870 C873 0.931 . S
H871 C876 0.928 . S
H872 C878 0.930 . S
C873 H870 0.931 . S
C873 C874 1.413 . S
C873 C875 1.360 . S
C874 C873 1.413 . S
C874 C878 1.429 . S
C875 C873 1.360 . S
C875 C876 1.372 . S
C876 H871 0.928 . S
C876 C875 1.372 . S
C876 C877 1.404 . S
C877 C876 1.404 . S
C877 C878 1.391 . S
C878 H872 0.930 . S
C878 C874 1.429 . S
C878 C877 1.391 . S
H879 C882 0.931 . S
H880 C885 0.928 . S
H881 C887 0.930 . S
C882 H879 0.931 . S
C882 C883 1.413 . S
C882 C884 1.360 . S
C883 C882 1.413 . S
C883 C887 1.429 . S
C884 C882 1.360 . S
C884 C885 1.372 . S
C885 H880 0.928 . S
C885 C884 1.372 . S
C885 C886 1.404 . S
C886 C885 1.404 . S
C886 C887 1.391 . S
C887 H881 0.930 . S
C887 C883 1.429 . S
C887 C886 1.391 . S
H888 C891 0.931 . S
H889 C894 0.928 . S
H890 C896 0.930 . S
C891 H888 0.931 . S
C891 C892 1.413 . S
C891 C893 1.360 . S
C892 C891 1.413 . S
C892 C896 1.429 . S
C893 C891 1.360 . S
C893 C894 1.372 . S
C894 H889 0.928 . S
C894 C893 1.372 . S
C894 C895 1.404 . S
C895 C894 1.404 . S
C895 C896 1.391 . S
C896 H890 0.930 . S
C896 C892 1.429 . S
C896 C895 1.391 . S
H897 C900 0.931 . S
H898 C903 0.928 . S
H899 C905 0.930 . S
C900 H897 0.931 . S
C900 C901 1.413 . S
C900 C902 1.360 . S
C901 C900 1.413 . S
C901 C905 1.429 . S
C902 C900 1.360 . S
C902 C903 1.372 . S
C903 H898 0.928 . S
C903 C902 1.372 . S
C903 C904 1.404 . S
C904 C903 1.404 . S
C904 C905 1.391 . S
C905 H899 0.930 . S
C905 C901 1.429 . S
C905 C904 1.391 . S
H906 C909 0.931 . S
H907 C912 0.928 . S
H908 C914 0.930 . S
C909 H906 0.931 . S
C909 C910 1.413 . S
C909 C911 1.360 . S
C910 C909 1.413 . S
C910 C914 1.429 . S
C911 C909 1.360 . S
C911 C912 1.372 . S
C912 H907 0.928 . S
C912 C911 1.372 . S
C912 C913 1.404 . S
C913 C912 1.404 . S
C913 C914 1.391 . S
C914 H908 0.930 . S
C914 C910 1.429 . S
C914 C913 1.391 . S
H915 C918 0.931 . S
H916 C921 0.928 . S
H917 C923 0.930 . S
C918 H915 0.931 . S
C918 C919 1.413 . S
C918 C920 1.360 . S
C919 C918 1.413 . S
C919 C923 1.429 . S
C920 C918 1.360 . S
C920 C921 1.372 . S
C921 H916 0.928 . S
C921 C920 1.372 . S
C921 C922 1.404 . S
C922 C921 1.404 . S
C922 C923 1.391 . S
C923 H917 0.930 . S
C923 C919 1.429 . S
C923 C922 1.391 . S
H924 C927 0.931 . S
H925 C930 0.928 . S
H926 C932 0.930 . S
C927 H924 0.931 . S
C927 C928 1.413 . S
C927 C929 1.360 . S
C928 C927 1.413 . S
C928 C932 1.429 . S
C929 C927 1.360 . S
C929 C930 1.372 . S
C930 H925 0.928 . S
C930 C929 1.372 . S
C930 C931 1.404 . S
C931 C930 1.404 . S
C931 C932 1.391 . S
C932 H926 0.930 . S
C932 C928 1.429 . S
C932 C931 1.391 . S
H933 C936 0.931 . S
H934 C939 0.928 . S
H935 C941 0.930 . S
C936 H933 0.931 . S
C936 C937 1.413 . S
C936 C938 1.360 . S
C937 C936 1.413 . S
C937 C941 1.429 . S
C938 C936 1.360 . S
C938 C939 1.372 . S
C939 H934 0.928 . S
C939 C938 1.372 . S
C939 C940 1.404 . S
C940 C939 1.404 . S
C940 C941 1.391 . S
C941 H935 0.930 . S
C941 C937 1.429 . S
C941 C940 1.391 . S
H942 C945 0.931 . S
H943 C948 0.928 . S
H944 C950 0.930 . S
C945 H942 0.931 . S
C945 C946 1.413 . S
C945 C947 1.360 . S
C946 C945 1.413 . S
C946 C950 1.429 . S
C947 C945 1.360 . S
C947 C948 1.372 . S
C948 H943 0.928 . S
C948 C947 1.372 . S
C948 C949 1.404 . S
C949 C948 1.404 . S
C949 C950 1.391 . S
C950 H944 0.930 . S
C950 C946 1.429 . S
C950 C949 1.391 . S
H951 C954 0.931 . S
H952 C957 0.928 . S
H953 C959 0.930 . S
C954 H951 0.931 . S
C954 C955 1.413 . S
C954 C956 1.360 . S
C955 C954 1.413 . S
C955 C959 1.429 . S
C956 C954 1.360 . S
C956 C957 1.372 . S
C957 H952 0.928 . S
C957 C956 1.372 . S
C957 C958 1.404 . S
C958 C957 1.404 . S
C958 C959 1.391 . S
C959 H953 0.930 . S
C959 C955 1.429 . S
C959 C958 1.391 . S
C491 C533 1.539 . S
C271 C542 1.545 . S
C551 C513 1.474 . S
C293 C560 1.576 . S
C524 C569 1.843 . S
C260 C578 1.544 . S
C502 C587 1.539 . S
C282 C596 1.460 . S
C183 C605 1.575 . S
C447 C614 1.736 . S
C205 C623 1.760 . S
C436 C632 1.495 . S
C249 C641 1.566 . S
C650 C458 1.594 . S
C659 C227 1.757 . S
C315 C668 1.726 . S
C677 C216 1.593 . S
C686 C469 1.762 . S
C238 C695 1.686 . S
C326 C704 1.746 . S
C713 C304 1.478 . S
C392 C722 1.452 . S
C731 C106 1.602 . S
C740 C414 1.560 . S
C749 C128 1.729 . S
C758 C425 1.733 . S
C95 C767 1.432 . S
C776 C403 1.580 . S
C117 C785 1.610 . S
C794 C18 1.504 . S
C803 C348 1.669 . S
C40 C812 1.705 . S
C821 C337 1.735 . S
C830 C84 1.744 . S
C359 C839 1.619 . S
C848 C62 1.770 . S
C857 C150 1.663 . S
C51 C866 1.648 . S
C875 C370 1.763 . S
C73 C884 1.626 . S
C893 C161 1.662 . S
C139 C902 1.494 . S
C194 C911 1.725 . S
C920 C172 1.480 . S
C480 C929 1.560 . S
C29 C938 1.669 . S
C947 C7 1.602 . S
C956 C381 1.624 . S
C368 C532 1.977 . S
C151 C544 1.699 . S
C379 C550 1.784 . S
C562 C360 1.679 . S
C159 C568 2.299 . S
C338 C580 1.735 . S
C586 C140 1.814 . S
C346 C598 1.229 . S
C349 C604 1.474 . S
C613 C162 1.849 . S
C335 C622 2.138 . S
C634 C137 1.201 . S
C148 C640 2.045 . S
C382 C652 1.649 . S
C661 C357 1.972 . S
C667 C371 1.781 . S
C129 C631 1.582 . S
C393 C676 1.710 . S
C401 C685 1.153 . S
C697 C412 1.791 . S
C643 C126 1.491 . S
C107 C616 1.733 . S
C415 C706 1.561 . S
C715 C390 1.350 . S
C721 C467 1.546 . S
C316 C733 1.902 . S
C742 C478 1.450 . S
C751 C459 1.729 . S
C324 C757 1.756 . S
C434 C769 1.092 . S
C305 C775 1.566 . S
C784 C448 1.490 . S
C796 C445 1.495 . S
C327 C805 2.086 . S
C811 C437 1.464 . S
C302 C823 1.140 . S
C832 C313 1.527 . S
C481 C841 1.802 . S
C847 C456 1.413 . S
C470 C856 1.751 . S
C294 C820 1.610 . S
C492 C865 1.691 . S
C500 C877 1.158 . S
C886 C514 1.582 . S
C291 C829 1.177 . S
C272 C802 1.629 . S
C895 C511 1.151 . S
C489 C901 1.439 . S
C577 C60 2.002 . S
C589 C74 1.676 . S
C595 C82 2.000 . S
C571 C52 1.711 . S
C559 C38 2.101 . S
C8 C535 1.639 . S
C19 C541 1.834 . S
C27 C553 1.182 . S
C30 C712 1.442 . S
C41 C910 1.829 . S
C5 C703 1.956 . S
C16 C922 1.170 . S
C71 C928 1.988 . S
C679 C85 1.771 . S
C49 C688 1.929 . S
C63 C694 1.759 . S
C919 C426 1.569 . S
C96 C649 1.815 . S
C104 C658 1.221 . S
C115 C670 1.908 . S
C931 C423 1.484 . S
C913 C404 1.690 . S
C625 C118 1.645 . S
C93 C607 1.636 . S
C225 C766 1.485 . S
C239 C778 1.971 . S
C247 C787 1.453 . S
C217 C760 1.699 . S
C748 C203 1.736 . S
C724 C170 1.101 . S
C730 C184 1.544 . S
C195 C739 1.480 . S
C904 C192 1.509 . S
C206 C940 2.092 . S
C173 C892 1.454 . S
C949 C181 1.106 . S
C236 C958 1.550 . S
C868 C250 1.845 . S
C214 C874 1.342 . S
C228 C883 1.705 . S
C522 C946 1.809 . S
C838 C261 1.653 . S
C269 C850 1.159 . S
C283 C859 1.568 . S
C525 C955 1.880 . S
C503 C937 1.635 . S
C814 C280 1.154 . S
C793 C258 1.428 . S
