# Generated by pormake.
# Topology anh, (6,3)-cn, num edge types: 1
# Building blocks:
#     Node 0, Type 0, BuildingBlock: CUWYAW_clean_sbu_0, # of connection points: 6
#     Node 1, Type 0, BuildingBlock: CUWYAW_clean_sbu_0, # of connection points: 6
#     Node 2, Type 0, BuildingBlock: CUWYAW_clean_sbu_0, # of connection points: 6
#     Node 3, Type 1, BuildingBlock: KAKCAD_clean_linker_0, # of connection points: 3
#     Node 4, Type 1, BuildingBlock: KAKCAD_clean_linker_0, # of connection points: 3
#     Node 5, Type 1, BuildingBlock: KAKCAD_clean_linker_0, # of connection points: 3
#     Node 6, Type 1, BuildingBlock: KAKCAD_clean_linker_0, # of connection points: 3
#     Node 7, Type 1, BuildingBlock: KAKCAD_clean_linker_0, # of connection points: 3
#     Node 8, Type 1, BuildingBlock: KAKCAD_clean_linker_0, # of connection points: 3
#     Edge 9, Type (0, 1), BuildingBlock: OJICUG_clean_linker_0, # of connection points: 2
#     Edge 10, Type (0, 1), BuildingBlock: OJICUG_clean_linker_0, # of connection points: 2
#     Edge 11, Type (0, 1), BuildingBlock: OJICUG_clean_linker_0, # of connection points: 2
#     Edge 12, Type (0, 1), BuildingBlock: OJICUG_clean_linker_0, # of connection points: 2
#     Edge 13, Type (0, 1), BuildingBlock: OJICUG_clean_linker_0, # of connection points: 2
#     Edge 14, Type (0, 1), BuildingBlock: OJICUG_clean_linker_0, # of connection points: 2
#     Edge 15, Type (0, 1), BuildingBlock: OJICUG_clean_linker_0, # of connection points: 2
#     Edge 16, Type (0, 1), BuildingBlock: OJICUG_clean_linker_0, # of connection points: 2
#     Edge 17, Type (0, 1), BuildingBlock: OJICUG_clean_linker_0, # of connection points: 2
#     Edge 18, Type (0, 1), BuildingBlock: OJICUG_clean_linker_0, # of connection points: 2
#     Edge 19, Type (0, 1), BuildingBlock: OJICUG_clean_linker_0, # of connection points: 2
#     Edge 20, Type (0, 1), BuildingBlock: OJICUG_clean_linker_0, # of connection points: 2
#     Edge 21, Type (0, 1), BuildingBlock: OJICUG_clean_linker_0, # of connection points: 2
#     Edge 22, Type (0, 1), BuildingBlock: OJICUG_clean_linker_0, # of connection points: 2
#     Edge 23, Type (0, 1), BuildingBlock: OJICUG_clean_linker_0, # of connection points: 2
#     Edge 24, Type (0, 1), BuildingBlock: OJICUG_clean_linker_0, # of connection points: 2
#     Edge 25, Type (0, 1), BuildingBlock: OJICUG_clean_linker_0, # of connection points: 2
#     Edge 26, Type (0, 1), BuildingBlock: OJICUG_clean_linker_0, # of connection points: 2
# Relax obj value: 0.306
# Max RMSD: 0.193
# Mean RMSD: 0.164
data_MOF--net-anh--node1-CUWYAW_clean_sbu_0--node2-KAKCAD_clean_linker_0--edge1-OJICUG_clean_linker_0
_symmetry_space_group_name_H-M    P1
_symmetry_Int_Tables_number       1
_symmetry_cell_setting            triclinic
loop_
_symmetry_equiv_pos_as_xyz
'x, y, z'
_cell_length_a     28.055962
_cell_length_b     28.153491
_cell_length_c     52.451052
_cell_angle_alpha  90.389999
_cell_angle_beta   89.583742
_cell_angle_gamma 120.02904
loop_
_atom_site_label
_atom_site_type_symbol
_atom_site_fract_x
_atom_site_fract_y
_atom_site_fract_z
_atom_type_partial_charge
C0 C 1.08922 0.41353 0.15241 0.0
Eu1 Eu 0.15023 0.51817 0.16065 0.0
C2 C 1.02926 0.38054 0.14931 0.0
C3 C 0.99842 0.34105 0.16777 0.0
C4 C 0.94259 0.32307 0.17084 0.0
C5 C 0.91688 0.34406 0.15528 0.0
C6 C 0.94605 0.37759 0.13457 0.0
C7 C 1.00207 0.39613 0.13168 0.0
C8 C 0.17415 0.56339 0.20819 0.0
C9 C 1.06945 0.5718 0.1576 0.0
C10 C 0.24921 0.74138 0.16734 0.0
Eu11 Eu 0.19872 0.63627 0.15986 0.0
C12 C 0.29592 0.79565 0.16104 0.0
C13 C 0.29212 0.82532 0.14044 0.0
C14 C 0.32683 0.88195 0.13907 0.0
C15 C 0.3657 0.90962 0.15827 0.0
C16 C 0.37342 0.87903 0.17724 0.0
C17 C 0.33866 0.82248 0.17865 0.0
C18 C 0.17495 0.58838 0.11313 0.0
C19 C 0.28197 0.584 0.15695 0.0
O20 O 1.11641 0.44875 0.13436 0.0
O21 O 1.10513 0.43471 0.17514 0.0
O22 O 0.18444 0.52579 0.20014 0.0
O23 O 0.15209 0.57651 0.19068 0.0
O24 O 1.07651 0.53021 0.15084 0.0
O25 O 1.1112 0.61615 0.16738 0.0
O26 O 0.25718 0.70812 0.18175 0.0
O27 O 0.21219 0.71616 0.14972 0.0
O28 O 0.16606 0.62781 0.1193 0.0
O29 O 0.19716 0.5783 0.13123 0.0
O30 O 0.27741 0.62843 0.16089 0.0
O31 O 0.23728 0.53541 0.15427 0.0
H32 H 1.01858 0.32841 0.18148 0.0
H33 H 0.92127 0.29726 0.18703 0.0
H34 H 0.92672 0.39326 0.12198 0.0
H35 H 1.0247 0.42627 0.11706 0.0
H36 H 0.2595 0.80574 0.12652 0.0
H37 H 0.32044 0.90455 0.12413 0.0
H38 H 0.40265 0.89919 0.19251 0.0
H39 H 0.34228 0.80071 0.1948 0.0
C40 C 0.55514 0.20097 0.49468 0.0
Eu41 Eu 0.59195 0.13368 0.49668 0.0
C42 C 0.58753 0.25782 0.50373 0.0
C43 C 0.61581 0.26814 0.52698 0.0
C44 C 0.66043 0.31966 0.53216 0.0
C45 C 0.67755 0.36184 0.51426 0.0
C46 C 0.64696 0.35307 0.49191 0.0
C47 C 0.60223 0.30114 0.48661 0.0
C48 C 0.6166 0.10791 0.54283 0.0
C49 C 0.72681 0.21507 0.49276 0.0
C50 C 0.7163 1.03579 0.49525 0.0
Eu51 Eu 0.66028 1.08569 0.49165 0.0
C52 C 0.73058 0.9928 0.49112 0.0
C53 C 0.76827 0.99957 0.4717 0.0
C54 C 0.79691 0.97102 0.47255 0.0
C55 C 0.78819 0.9353 0.49281 0.0
C56 C 0.74621 0.92419 0.51066 0.0
C57 C 0.71773 0.95289 0.50985 0.0
C58 C 0.63483 0.11463 0.44672 0.0
C59 C 0.52478 1.00368 0.48939 0.0
O60 O 0.57669 0.19024 0.47485 0.0
O61 O 0.53887 0.16298 0.51216 0.0
O62 O 0.56826 0.09805 0.53604 0.0
O63 O 0.65067 0.1305 0.52474 0.0
O64 O 0.6777 0.2092 0.48839 0.0
O65 O 0.72997 0.17177 0.4994 0.0
O66 O 0.67921 1.02989 0.51224 0.0
O67 O 0.72109 1.0676 0.47625 0.0
O68 O 0.68365 0.12383 0.45205 0.0
O69 O 0.60255 1.08997 0.46472 0.0
O70 O 0.57346 1.0076 0.49358 0.0
O71 O 0.52189 1.04887 0.48679 0.0
H72 H 0.6063 0.2355 0.54043 0.0
H73 H 0.68295 0.32595 0.54973 0.0
H74 H 0.65964 0.38532 0.47789 0.0
H75 H 0.58186 0.29378 0.46834 0.0
H76 H 0.77925 1.03037 0.45707 0.0
H77 H 0.82867 0.97986 0.45845 0.0
H78 H 0.73889 0.89725 0.52667 0.0
H79 H 0.68924 0.94719 0.52517 0.0
C80 C 0.86924 0.72599 0.83037 0.0
Eu81 Eu 0.76482 0.6896 0.82943 0.0
C82 C 0.89282 0.69333 0.83983 0.0
C83 C 0.87289 0.66464 0.86289 0.0
C84 C 0.8789 0.61967 0.8681 0.0
C85 C 0.90497 0.6026 0.85043 0.0
C86 C 0.92881 0.63365 0.82835 0.0
C87 C 0.92264 0.6788 0.82304 0.0
C88 C 0.7052 0.6603 0.87366 0.0
C89 C 0.70983 0.55453 0.82329 0.0
C90 C 0.54401 0.57694 0.81965 0.0
Eu91 Eu 0.64969 0.62366 0.8202 0.0
C92 C 0.48401 0.55047 0.81937 0.0
C93 C 0.45317 0.50876 0.80167 0.0
C94 C 0.39596 0.47836 0.80384 0.0
C95 C 0.36913 0.48965 0.82365 0.0
C96 C 0.40007 0.53404 0.84018 0.0
C97 C 0.45705 0.56413 0.83807 0.0
C98 C 0.712 0.65142 0.7775 0.0
C99 C 0.70496 0.75877 0.82107 0.0
O100 O 0.84 0.70593 0.8097 0.0
O101 O 0.84465 0.74068 0.84735 0.0
O102 O 0.74563 0.70884 0.86866 0.0
O103 O 0.69759 0.62875 0.85492 0.0
O104 O 0.75463 0.60371 0.82146 0.0
O105 O 0.6617 0.55111 0.82704 0.0
O106 O 0.57307 0.60317 0.8397 0.0
O107 O 0.57219 0.57561 0.80001 0.0
O108 O 0.67108 0.60255 0.78148 0.0
O109 O 0.71709 0.68282 0.79562 0.0
O110 O 0.65963 0.71027 0.82391 0.0
O111 O 0.75321 0.76136 0.81957 0.0
H112 H 0.84895 0.67415 0.8761 0.0
H113 H 0.86123 0.59689 0.88552 0.0
H114 H 0.94924 0.62109 0.81451 0.0
H115 H 0.93726 0.69958 0.80493 0.0
H116 H 0.47334 0.49784 0.78696 0.0
H117 H 0.37295 0.44459 0.79078 0.0
H118 H 0.38072 0.54331 0.85588 0.0
H119 H 0.48011 0.59654 0.85177 0.0
C120 C 0.60396 0.26955 0.36147 0.0
C121 C 0.57776 0.21267 0.36538 0.0
C122 C 0.59304 0.29048 0.33957 0.0
C123 C 0.55647 0.25481 0.32098 0.0
C124 C 0.52871 0.19792 0.32563 0.0
C125 C 0.53895 0.17721 0.34763 0.0
C126 C 0.55407 0.27513 0.29516 0.0
C127 C 0.60348 0.31307 0.28314 0.0
C128 C 0.60639 0.31857 0.25653 0.0
C129 C 0.5585 0.28887 0.2421 0.0
C130 C 0.5092 0.25003 0.25365 0.0
C131 C 0.50621 0.24654 0.28035 0.0
C132 C 0.47091 0.20206 0.238 0.0
C133 C 0.45841 0.2088 0.21277 0.0
C134 C 0.45915 0.14969 0.246 0.0
C135 C 0.44077 0.10671 0.22867 0.0
C136 C 0.43342 0.11497 0.20305 0.0
C137 C 0.65969 0.33892 0.24321 0.0
C138 C 0.66975 0.36644 0.21979 0.0
C139 C 0.69453 0.31924 0.25089 0.0
C140 C 0.73544 0.32279 0.23462 0.0
C141 C 0.74227 0.34592 0.21035 0.0
C142 C 0.7109 0.36997 0.20344 0.0
C143 C 0.43963 0.1653 0.19534 0.0
H144 H 0.63366 0.29771 0.3751 0.0
H145 H 0.61485 0.33446 0.33671 0.0
H146 H 0.50155 0.16875 0.31159 0.0
H147 H 0.51868 0.13313 0.35005 0.0
H148 H 0.6414 0.33298 0.29393 0.0
H149 H 0.46824 0.21585 0.28922 0.0
H150 H 0.5621 0.28885 0.2215 0.0
H151 H 0.46717 0.24871 0.20609 0.0
H152 H 0.46904 0.14288 0.26505 0.0
H153 H 0.43514 1.06762 0.23498 0.0
H154 H 0.64332 0.38178 0.21342 0.0
H155 H 0.68746 0.29696 0.26857 0.0
H156 H 0.43336 0.17192 0.17562 0.0
H157 H 0.716 0.38858 0.18487 0.0
H158 H 0.76024 0.30528 0.24061 0.0
C159 C 0.87488 0.75674 0.67949 0.0
C160 C 0.86906 0.71455 0.69554 0.0
C161 C 0.90757 0.77005 0.65768 0.0
C162 C 0.93593 0.74198 0.65157 0.0
C163 C 0.93172 0.7011 0.66825 0.0
C164 C 0.89827 0.68726 0.68997 0.0
C165 C 0.96337 0.75057 0.6263 0.0
C166 C 0.98814 0.80244 0.61473 0.0
C167 C 0.99687 0.80756 0.58826 0.0
C168 C 0.9922 0.76259 0.57447 0.0
C169 C 0.96691 0.71021 0.58542 0.0
C170 C 0.95344 0.70477 0.61151 0.0
C171 C 0.94166 0.6608 0.5687 0.0
C172 C 0.91798 0.66226 0.54532 0.0
C173 C 0.93315 0.6101 0.57754 0.0
C174 C 0.89734 0.56165 0.56472 0.0
C175 C 0.87039 0.56317 0.54249 0.0
C176 C 0.98896 0.84877 0.57412 0.0
C177 C 0.94775 0.85976 0.58276 0.0
C178 C 1.00975 0.86461 0.54914 0.0
C179 C 0.98461 0.88365 0.53229 0.0
C180 C 0.93912 0.88768 0.54042 0.0
C181 C 0.92306 0.87882 0.56604 0.0
C182 C 0.88361 0.61414 0.53219 0.0
H183 H 0.85212 0.77784 0.68316 0.0
H184 H 0.90813 0.80048 0.645 0.0
H185 H 0.95311 0.67882 0.66414 0.0
H186 H 0.89471 0.65483 0.70224 0.0
H187 H 0.99361 0.83765 0.62563 0.0
H188 H 0.92952 0.66419 0.61965 0.0
H189 H 1.00037 0.76645 0.55419 0.0
H190 H 0.92228 0.69995 0.53786 0.0
H191 H 0.95144 0.6075 0.59521 0.0
H192 H 0.88806 0.52301 0.57323 0.0
H193 H 0.92993 0.84811 0.60163 0.0
H194 H 1.04211 0.85774 0.54198 0.0
H195 H 0.86467 0.61677 0.51473 0.0
H196 H 0.88856 0.88283 0.5727 0.0
H197 H 0.99797 0.89126 0.51256 0.0
C198 C 1.11513 0.43161 0.01215 0.0
C199 C 1.0797 0.43643 0.02961 0.0
C200 C 1.09405 0.39641 0.99132 0.0
C201 C 1.03688 0.36461 0.9875 0.0
C202 C 1.00126 0.36884 0.00521 0.0
C203 C 1.02251 0.40458 0.02607 0.0
C204 C 1.01567 0.33253 0.96354 0.0
C205 C 1.04319 0.30743 0.95239 0.0
C206 C 1.03742 0.29462 0.92628 0.0
C207 C 0.9946 0.29523 0.91295 0.0
C208 C 0.96697 0.32072 0.92349 0.0
C209 C 0.97707 0.33835 0.94904 0.0
C210 C 0.94038 0.34241 0.90633 0.0
C211 C 0.96367 0.36311 0.88218 0.0
C212 C 0.89821 0.35133 0.91537 0.0
C213 C 0.88427 0.3853 0.90198 0.0
C214 C 0.91146 0.40991 0.87905 0.0
C215 C 1.08615 0.30251 0.91133 0.0
C216 C 1.13837 0.34615 0.91823 0.0
C217 C 1.07998 0.27816 0.88708 0.0
C218 C 1.12286 0.30141 0.86919 0.0
C219 C 0.17226 0.34875 0.87553 0.0
C220 C 0.18079 0.36903 0.90049 0.0
C221 C 0.94865 0.39565 0.86855 0.0
H222 H 0.1594 0.45642 0.01414 0.0
H223 H 1.12294 0.39597 0.97767 0.0
H224 H 0.95706 0.3451 0.00272 0.0
H225 H 0.99432 0.4073 0.03942 0.0
H226 H 1.075 0.30521 0.96302 0.0
H227 H 0.95991 0.3624 0.95675 0.0
H228 H 0.98867 0.28387 0.89299 0.0
H229 H 0.9969 0.35832 0.87448 0.0
H230 H 0.87866 0.3352 0.93363 0.0
H231 H 0.85528 0.39543 0.91061 0.0
H232 H 0.14542 0.36676 0.93645 0.0
H233 H 1.04073 0.24401 0.88124 0.0
H234 H 0.96922 0.41287 0.85059 0.0
H235 H 0.21931 0.40499 0.9058 0.0
H236 H 1.11615 0.28483 0.85001 0.0
C237 C 1.10589 0.58118 0.32833 0.0
C238 C 0.1561 0.59092 0.31753 0.0
C239 C 1.0999 0.58334 0.35488 0.0
C240 C 0.14408 0.59571 0.37136 0.0
C241 C 0.19433 0.60579 0.36051 0.0
C242 C 0.20023 0.60342 0.33405 0.0
C243 C 1.13833 0.59869 0.39971 0.0
C244 C 1.09055 0.55982 0.41257 0.0
C245 C 1.08479 0.56146 0.43932 0.0
C246 C 1.12936 0.60416 0.45333 0.0
C247 C 0.17821 0.644 0.44061 0.0
C248 C 0.18133 0.64032 0.41392 0.0
C249 C 0.2274 0.69051 0.45386 0.0
C250 C 0.22289 0.72962 0.46899 0.0
C251 C 0.28093 0.70098 0.44788 0.0
C252 C 0.32813 0.74957 0.45572 0.0
C253 C 0.32403 0.79011 0.46991 0.0
C254 C 1.03185 0.51722 0.45152 0.0
C255 C 0.98068 0.50044 0.43977 0.0
C256 C 1.03165 0.48719 0.47298 0.0
C257 C 0.98244 0.44073 0.48157 0.0
C258 C 0.93148 0.42282 0.46916 0.0
C259 C 0.93175 0.45442 0.44834 0.0
C260 C 0.27037 0.77864 0.47682 0.0
H261 H 1.07079 0.57088 0.31631 0.0
H262 H 1.06074 0.57582 0.36248 0.0
H263 H 0.22915 0.6149 0.37251 0.0
H264 H 0.23971 0.61172 0.32653 0.0
H265 H 1.05804 0.52686 0.40166 0.0
H266 H 0.2176 0.67114 0.40397 0.0
H267 H 1.12612 0.60634 0.47384 0.0
H268 H 0.18262 0.72359 0.47376 0.0
H269 H 0.28635 0.67218 0.43616 0.0
H270 H 0.36792 0.7562 0.4496 0.0
H271 H 0.97854 0.52236 0.42333 0.0
H272 H 1.06992 0.49824 0.48254 0.0
H273 H 0.26483 0.80796 0.48802 0.0
H274 H 0.89431 0.44257 0.43788 0.0
H275 H 0.98458 0.41856 0.49789 0.0
C276 C 0.63475 1.08301 0.66808 0.0
C277 C 0.66567 0.12711 0.65143 0.0
C278 C 0.64278 1.08924 0.69447 0.0
C279 C 0.68221 0.13971 0.70515 0.0
C280 C 0.71354 0.18381 0.68854 0.0
C281 C 0.70549 0.17755 0.66204 0.0
C282 C 0.69044 0.1457 0.73347 0.0
C283 C 0.68867 0.10284 0.74774 0.0
C284 C 0.69408 0.10572 0.77444 0.0
C285 C 0.70243 0.1543 0.78714 0.0
C286 C 0.70501 0.19885 0.77305 0.0
C287 C 0.69884 0.19332 0.74629 0.0
C288 C 0.71295 0.25148 0.78518 0.0
C289 C 0.6805 0.25137 0.80585 0.0
C290 C 0.74908 0.30266 0.77391 0.0
C291 C 0.75122 0.35141 0.78219 0.0
C292 C 0.71714 0.35132 0.80211 0.0
C293 C 0.69055 1.05644 0.78769 0.0
C294 C 0.64739 1.00333 0.78157 0.0
C295 C 0.73374 1.06039 0.80275 0.0
C296 C 0.73487 1.01277 0.81034 0.0
C297 C 0.69273 0.95955 0.80321 0.0
C298 C 0.6484 0.95599 0.78914 0.0
C299 C 0.68236 0.30034 0.81408 0.0
H300 H 0.60415 1.04335 0.66072 0.0
H301 H 0.61736 1.05444 0.70656 0.0
H302 H 0.74464 0.22314 0.696 0.0
H303 H 0.72973 0.21262 0.6499 0.0
H304 H 0.6838 1.06676 0.73784 0.0
H305 H 0.69883 0.22583 0.73536 0.0
H306 H 0.70675 0.15735 0.80768 0.0
H307 H 0.65188 0.21305 0.81498 0.0
H308 H 0.775 0.30489 0.75802 0.0
H309 H 0.7783 0.38898 0.77213 0.0
H310 H 0.6135 0.99838 0.76987 0.0
H311 H 0.76805 0.10034 0.8076 0.0
H312 H 0.6559 0.298 0.82973 0.0
H313 H 0.61529 0.91657 0.78285 0.0
H314 H 0.76943 1.01789 0.8215 0.0
C315 C 0.69133 0.57504 0.99388 0.0
C316 C 0.68561 0.61722 0.98252 0.0
C317 C 0.6919 0.57042 0.0205 0.0
C318 C 0.68594 0.60727 0.0366 0.0
C319 C 0.67996 0.6492 0.0254 0.0
C320 C 0.68025 0.65439 -0.00118 0.0
C321 C 0.68513 0.60162 0.06497 0.0
C322 C 0.72466 0.59341 0.0773 0.0
C323 C 0.72437 0.58709 0.10404 0.0
C324 C 0.68234 0.5897 0.11855 0.0
C325 C 0.64214 0.59864 0.10633 0.0
C326 C 0.6446 0.60437 0.07962 0.0
C327 C 0.59618 0.60178 0.1201 0.0
C328 C 0.5577 0.55886 0.13563 0.0
C329 C 0.58532 0.64431 0.11424 0.0
C330 C 0.53681 0.64292 0.12252 0.0
C331 C 0.49679 0.59884 0.13705 0.0
C332 C 0.76904 0.57839 0.11562 0.0
C333 C 0.78792 0.54706 0.10238 0.0
C334 C 0.79702 0.60477 0.13822 0.0
C335 C 0.84344 0.60169 0.14652 0.0
C336 C 0.86381 0.57224 0.13251 0.0
C337 C 0.83431 0.54455 0.11041 0.0
C338 C 0.50879 0.55734 0.14391 0.0
H339 H 0.69463 0.5449 0.98226 0.0
H340 H 0.69594 0.53725 0.02851 0.0
H341 H 0.67595 0.67869 0.03725 0.0
H342 H 0.67719 0.68834 0.99116 0.0
H343 H 0.7569 0.59339 0.06583 0.0
H344 H 0.61358 0.60975 0.06997 0.0
H345 H 0.68089 0.58489 0.13905 0.0
H346 H 0.56406 0.52505 0.14034 0.0
H347 H 0.61366 0.67801 0.10225 0.0
H348 H 0.52975 0.67553 0.11643 0.0
H349 H 0.76739 0.52501 0.08519 0.0
H350 H 0.78427 0.62939 0.14907 0.0
H351 H 0.47991 0.52297 0.15539 0.0
H352 H 0.84775 0.52193 0.09852 0.0
H353 H 0.86346 0.62291 0.16393 0.0
C354 C 0.38685 0.63938 0.15301 0.0
C355 C 0.33759 0.5884 0.15341 0.0
H356 H 0.47472 0.68292 0.14818 0.0
C357 C 0.3417 0.54094 0.14934 0.0
H358 H 0.38583 0.67695 0.15603 0.0
C359 C 0.39283 0.54427 0.14466 0.0
C360 C 0.44219 0.59525 0.14379 0.0
H361 H 0.30506 0.50076 0.14937 0.0
H362 H 0.39323 0.5066 0.14096 0.0
C363 C 0.43813 0.64275 0.14828 0.0
C364 C 0.83137 0.27502 0.49201 0.0
C365 C 0.77898 0.26952 0.48854 0.0
H366 H 0.91917 0.32577 0.48869 0.0
C367 C 0.77743 0.31589 0.47967 0.0
H368 H 0.83481 0.24053 0.49866 0.0
C369 C 0.82632 0.36544 0.47406 0.0
C370 C 0.87889 0.37071 0.47697 0.0
H371 H 0.73826 0.31383 0.47677 0.0
H372 H 0.82265 0.39977 0.4674 0.0
C373 C 0.88024 0.32451 0.48638 0.0
C374 C 0.65066 0.80889 0.81754 0.0
C375 C 0.70156 0.81026 0.81775 0.0
H376 H 0.60769 0.8536 0.8135 0.0
C377 C 0.74952 0.86156 0.814 0.0
H378 H 0.61269 0.77049 0.82038 0.0
C379 C 0.74672 0.90955 0.80983 0.0
C380 C 0.69581 0.90832 0.80923 0.0
H381 H 0.7896 0.8647 0.81392 0.0
H382 H 0.78475 0.94747 0.80638 0.0
C383 C 0.64783 0.85694 0.81338 0.0
C384 C 0.97345 0.5276 0.13853 0.0
C385 C 1.01583 0.57061 0.1525 0.0
H386 H 0.89302 0.4925 0.12241 0.0
C387 C 1.00736 0.61393 0.16032 0.0
H388 H 0.97837 0.49392 0.13179 0.0
C389 C 0.95846 0.61423 0.15428 0.0
C390 C 0.91572 0.57105 0.14022 0.0
H391 H 1.03904 0.64836 0.17086 0.0
H392 H 0.9551 0.64933 0.16017 0.0
C393 C 0.92434 0.52747 0.13274 0.0
C394 C 0.42197 0.94491 0.48135 0.0
C395 C 0.47333 0.94856 0.48564 0.0
H396 H 0.33604 0.89392 0.47301 0.0
C397 C 0.47466 0.89918 0.48555 0.0
H398 H 0.41876 0.98167 0.48116 0.0
C399 C 0.4266 0.84822 0.48097 0.0
C400 C 0.37521 0.84455 0.47632 0.0
H401 H 0.51307 0.89984 0.48877 0.0
H402 H 0.4299 0.81154 0.48116 0.0
C403 C 0.37397 0.89405 0.47682 0.0
C404 C 0.76256 0.50447 0.81287 0.0
C405 C 0.71294 0.50269 0.81967 0.0
H406 H 0.80339 0.45966 0.80262 0.0
C407 C 0.66542 0.45039 0.82177 0.0
H408 H 0.80023 0.54358 0.81109 0.0
C409 C 0.6671 0.40188 0.81678 0.0
C410 C 0.71637 0.40351 0.80935 0.0
H411 H 0.62627 0.44675 0.82689 0.0
H412 H 0.62905 0.36303 0.818 0.0
C413 C 0.76423 0.45592 0.80779 0.0
C414 C 0.88531 0.95681 0.49806 0.0
C415 C 0.82863 0.91782 0.49834 0.0
H416 H 0.96564 0.97736 0.51134 0.0
C417 C 0.81092 0.86559 0.50844 0.0
H418 H 0.90009 0.99766 0.49063 0.0
C419 C 0.84832 0.85448 0.52043 0.0
C420 C 0.90394 0.89527 0.5223 0.0
H421 H 0.76764 0.83468 0.50863 0.0
H422 H 0.83325 0.81521 0.52972 0.0
C423 C 0.92284 0.9455 0.50998 0.0
C424 C 0.85664 0.50377 0.86226 0.0
C425 C 0.90526 0.55129 0.85485 0.0
H426 H 0.81995 0.42068 0.87491 0.0
C427 C 0.95447 0.55025 0.85295 0.0
H428 H 0.81795 0.50354 0.86342 0.0
C429 C 0.95577 0.50327 0.85978 0.0
C430 C 0.90765 0.45624 0.86827 0.0
H431 H 0.99242 0.58657 0.8474 0.0
H432 H 0.99519 0.50495 0.85962 0.0
C433 C 0.85776 0.45648 0.86881 0.0
C434 C 0.44318 1.00085 0.17149 0.0
C435 C 0.38962 0.9693 0.16193 0.0
H436 H 0.49919 1.07309 0.19212 0.0
C437 C 0.35501 0.99217 0.16116 0.0
H438 H 0.47084 0.98448 0.172 0.0
C439 C 0.37144 1.04302 0.17248 0.0
C440 C 0.42241 1.07118 0.18468 0.0
H441 H 0.31328 0.96862 0.15412 0.0
H442 H 0.34251 1.05782 0.17374 0.0
C443 C 0.45936 1.05138 0.18293 0.0
C444 C 0.72905 0.46366 0.51701 0.0
C445 C 0.72867 0.41394 0.51871 0.0
H446 H 0.77374 0.54973 0.52384 0.0
C447 C 0.77668 0.4138 0.52599 0.0
H448 H 0.69229 0.46451 0.51158 0.0
C449 C 0.82394 0.46267 0.53242 0.0
C450 C 0.82363 0.51236 0.53206 0.0
H451 H 0.77733 0.37572 0.52712 0.0
H452 H 0.86022 0.46134 0.53824 0.0
C453 C 0.77594 0.51242 0.52385 0.0
C454 C 0.2926 0.39433 0.83128 0.0
C455 C 0.31104 0.45085 0.82992 0.0
H456 H 0.2327 0.31677 0.84702 0.0
C457 C 0.27729 0.47064 0.83934 0.0
H458 H 0.318 0.37802 0.82433 0.0
C459 C 0.22923 0.43579 0.85255 0.0
C460 C 0.21395 0.38061 0.85618 0.0
H461 H 0.29017 0.51384 0.83818 0.0
H462 H 0.2059 0.45268 0.86141 0.0
C463 C 0.24408 0.35929 0.84434 0.0
C464 C 0.82348 0.29246 0.17529 0.0
C465 C 0.86513 0.34062 0.16406 0.0
H466 H 0.75125 0.25649 0.19873 0.0
C467 C 0.86173 0.38875 0.16542 0.0
H468 H 0.82483 0.2547 0.17436 0.0
C469 C 0.81984 0.38989 0.1793 0.0
C470 C 0.78097 0.34291 0.19225 0.0
H471 H 0.89382 0.42668 0.15749 0.0
H472 H 0.82006 0.42834 0.18129 0.0
C473 C 0.78174 0.29363 0.18932 0.0
C474 C 0.17082 0.5157 0.08489 0.0
C475 C 0.15167 0.55182 0.09102 0.0
H476 H 0.16219 0.45014 0.06101 0.0
C477 C 1.1081 0.54964 0.07711 0.0
H478 H 0.20414 0.51638 0.09552 0.0
C479 C 1.08377 0.51137 0.05736 0.0
C480 C 1.10312 0.47527 0.0512 0.0
H481 H 1.09227 0.57674 0.08176 0.0
H482 H 1.05043 0.51053 0.0467 0.0
C483 C 0.14682 0.47782 0.06518 0.0
C484 C 0.66236 0.18203 0.41118 0.0
C485 C 0.62096 0.1395 0.42565 0.0
H486 H 0.6809 0.23936 0.3808 0.0
C487 C 0.56554 0.1225 0.42083 0.0
H488 H 0.7054 0.19618 0.4148 0.0
C489 C 0.55159 0.14713 0.40158 0.0
C490 C 0.59285 0.18957 0.38699 0.0
H491 H 0.5329 1.09003 0.43191 0.0
H492 H 0.50851 0.13301 0.39808 0.0
C493 C 0.64839 0.20713 0.39204 0.0
C494 C 0.79166 0.72231 0.75307 0.0
C495 C 0.75192 0.66694 0.75657 0.0
H496 H 0.86043 0.78067 0.73107 0.0
C497 C 0.752 0.6269 0.74054 0.0
H498 H 0.79262 0.75388 0.76535 0.0
C499 C 0.79119 0.6422 0.72109 0.0
C500 C 0.83041 0.69776 0.71731 0.0
H501 H 0.72197 0.58388 0.74308 0.0
H502 H 0.79002 0.61079 0.70863 0.0
C503 C 0.83042 0.73761 0.73353 0.0
C504 C 0.68575 0.13987 0.57885 0.0
C505 C 0.63108 0.11009 0.57022 0.0
H506 H 0.7398 0.16872 0.61121 0.0
C507 C 0.5886 1.08492 0.58835 0.0
H508 H 0.7194 0.15994 0.56535 0.0
C509 C 0.60007 1.09014 0.61445 0.0
C510 C 0.6545 0.12072 0.62332 0.0
H511 H 0.546 1.06182 0.58239 0.0
H512 H 0.56586 1.07126 0.62771 0.0
C513 C 0.69733 0.14532 0.60514 0.0
C514 C 0.66116 0.65555 0.91584 0.0
C515 C 0.69337 0.6416 0.90044 0.0
H516 H 0.63123 0.65671 0.95331 0.0
C517 C 0.72091 0.61712 0.91176 0.0
H518 H 0.64004 0.67505 0.90756 0.0
C519 C 0.71768 0.6083 0.93818 0.0
C520 C 0.68626 0.62323 0.95397 0.0
H521 H 0.7471 0.60719 0.90032 0.0
H522 H 0.74172 0.59179 0.94626 0.0
C523 C 0.65698 0.64579 0.94219 0.0
C524 C 0.14367 0.60031 0.24519 0.0
C525 C 0.17212 0.57442 0.23588 0.0
H526 H 1.11617 0.6259 0.27815 0.0
C527 C 0.19633 0.55558 0.25354 0.0
H528 H 1.12444 0.61518 0.23209 0.0
C529 C 0.19152 0.5615 0.2798 0.0
C530 C 0.1622 0.58637 0.2893 0.0
H531 H 0.21843 0.53532 0.24706 0.0
H532 H 0.20974 0.54522 0.2927 0.0
C533 C 1.13854 0.60599 0.2716 0.0
loop_
_geom_bond_atom_site_label_1
_geom_bond_atom_site_label_2
_geom_bond_distance
_geom_bond_site_symmetry_2
_ccdc_geom_bond_type
C0 Eu1 2.835 . S
C0 C2 1.500 . S
C0 O20 1.257 . S
C0 O21 1.260 . S
Eu1 C0 2.835 . S
Eu1 O20 2.473 . S
Eu1 O21 2.480 . S
Eu1 O22 2.430 1_655 S
Eu1 O23 2.670 1_655 S
Eu1 O24 2.394 . S
Eu1 O29 2.355 1_655 S
Eu1 O31 2.374 1_655 S
C2 C0 1.500 . S
C2 C3 1.377 . S
C2 C7 1.377 . S
C3 C2 1.377 . S
C3 C4 1.395 . S
C3 H32 0.931 . S
C4 C3 1.395 . S
C4 C5 1.383 . S
C4 H33 0.931 . S
C5 C4 1.383 . S
C5 C6 1.394 . S
C6 C5 1.394 . S
C6 C7 1.378 . S
C6 H34 0.931 . S
C7 C2 1.377 . S
C7 C6 1.378 . S
C7 H35 0.931 . S
C8 O22 1.259 . S
C8 O23 1.270 . S
C9 O24 1.251 . S
C9 O25 1.251 . S
C10 Eu11 2.835 . S
C10 C12 1.500 . S
C10 O26 1.257 . S
C10 O27 1.260 . S
Eu11 C10 2.835 . S
Eu11 O23 2.355 . S
Eu11 O25 2.374 1_455 S
Eu11 O26 2.473 . S
Eu11 O27 2.480 . S
Eu11 O28 2.430 . S
Eu11 O29 2.670 . S
Eu11 O30 2.394 . S
C12 C10 1.500 . S
C12 C13 1.377 . S
C12 C17 1.377 . S
C13 C12 1.377 . S
C13 C14 1.395 . S
C13 H36 0.931 . S
C14 C13 1.395 . S
C14 C15 1.383 . S
C14 H37 0.931 . S
C15 C14 1.383 . S
C15 C16 1.394 . S
C16 C15 1.394 . S
C16 C17 1.378 . S
C16 H38 0.931 . S
C17 C12 1.377 . S
C17 C16 1.378 . S
C17 H39 0.931 . S
C18 O28 1.259 . S
C18 O29 1.270 . S
C19 O30 1.251 . S
C19 O31 1.251 . S
O20 C0 1.257 . S
O20 Eu1 2.473 . S
O21 C0 1.260 . S
O21 Eu1 2.480 . S
O22 Eu1 2.430 1_455 S
O22 C8 1.259 . S
O23 Eu1 2.670 1_455 S
O23 C8 1.270 . S
O23 Eu11 2.355 . S
O24 Eu1 2.394 . S
O24 C9 1.251 . S
O25 C9 1.251 . S
O25 Eu11 2.374 1_655 S
O26 C10 1.257 . S
O26 Eu11 2.473 . S
O27 C10 1.260 . S
O27 Eu11 2.480 . S
O28 Eu11 2.430 . S
O28 C18 1.259 . S
O29 Eu1 2.355 1_455 S
O29 Eu11 2.670 . S
O29 C18 1.270 . S
O30 Eu11 2.394 . S
O30 C19 1.251 . S
O31 Eu1 2.374 1_455 S
O31 C19 1.251 . S
H32 C3 0.931 . S
H33 C4 0.931 . S
H34 C6 0.931 . S
H35 C7 0.931 . S
H36 C13 0.931 . S
H37 C14 0.931 . S
H38 C16 0.931 . S
H39 C17 0.931 . S
C40 Eu41 2.835 . S
C40 C42 1.500 . S
C40 O60 1.257 . S
C40 O61 1.260 . S
Eu41 C40 2.835 . S
Eu41 O60 2.473 . S
Eu41 O61 2.480 . S
Eu41 O62 2.430 . S
Eu41 O63 2.670 . S
Eu41 O64 2.394 . S
Eu41 O69 2.355 . S
Eu41 O71 2.374 1_545 S
C42 C40 1.500 . S
C42 C43 1.377 . S
C42 C47 1.377 . S
C43 C42 1.377 . S
C43 C44 1.395 . S
C43 H72 0.931 . S
C44 C43 1.395 . S
C44 C45 1.383 . S
C44 H73 0.931 . S
C45 C44 1.383 . S
C45 C46 1.394 . S
C46 C45 1.394 . S
C46 C47 1.378 . S
C46 H74 0.931 . S
C47 C42 1.377 . S
C47 C46 1.378 . S
C47 H75 0.931 . S
C48 O62 1.259 . S
C48 O63 1.270 . S
C49 O64 1.251 . S
C49 O65 1.251 . S
C50 Eu51 2.835 . S
C50 C52 1.500 . S
C50 O66 1.257 . S
C50 O67 1.260 . S
Eu51 C50 2.835 . S
Eu51 O63 2.355 1_565 S
Eu51 O65 2.374 1_565 S
Eu51 O66 2.473 . S
Eu51 O67 2.480 . S
Eu51 O68 2.430 1_565 S
Eu51 O69 2.670 1_565 S
Eu51 O70 2.394 . S
C52 C50 1.500 . S
C52 C53 1.377 . S
C52 C57 1.377 . S
C53 C52 1.377 . S
C53 C54 1.395 . S
C53 H76 0.931 . S
C54 C53 1.395 . S
C54 C55 1.383 . S
C54 H77 0.931 . S
C55 C54 1.383 . S
C55 C56 1.394 . S
C56 C55 1.394 . S
C56 C57 1.378 . S
C56 H78 0.931 . S
C57 C52 1.377 . S
C57 C56 1.378 . S
C57 H79 0.931 . S
C58 O68 1.259 . S
C58 O69 1.270 . S
C59 O70 1.251 . S
C59 O71 1.251 . S
O60 C40 1.257 . S
O60 Eu41 2.473 . S
O61 C40 1.260 . S
O61 Eu41 2.480 . S
O62 Eu41 2.430 . S
O62 C48 1.259 . S
O63 Eu41 2.670 . S
O63 C48 1.270 . S
O63 Eu51 2.355 1_545 S
O64 Eu41 2.394 . S
O64 C49 1.251 . S
O65 C49 1.251 . S
O65 Eu51 2.374 1_545 S
O66 C50 1.257 . S
O66 Eu51 2.473 . S
O67 C50 1.260 . S
O67 Eu51 2.480 . S
O68 Eu51 2.430 1_545 S
O68 C58 1.259 . S
O69 Eu41 2.355 . S
O69 Eu51 2.670 1_545 S
O69 C58 1.270 . S
O70 Eu51 2.394 . S
O70 C59 1.251 . S
O71 Eu41 2.374 1_565 S
O71 C59 1.251 . S
H72 C43 0.931 . S
H73 C44 0.931 . S
H74 C46 0.931 . S
H75 C47 0.931 . S
H76 C53 0.931 . S
H77 C54 0.931 . S
H78 C56 0.931 . S
H79 C57 0.931 . S
C80 Eu81 2.835 . S
C80 C82 1.500 . S
C80 O100 1.257 . S
C80 O101 1.260 . S
Eu81 C80 2.835 . S
Eu81 O100 2.473 . S
Eu81 O101 2.480 . S
Eu81 O102 2.430 . S
Eu81 O103 2.670 . S
Eu81 O104 2.394 . S
Eu81 O109 2.355 . S
Eu81 O111 2.374 . S
C82 C80 1.500 . S
C82 C83 1.377 . S
C82 C87 1.377 . S
C83 C82 1.377 . S
C83 C84 1.395 . S
C83 H112 0.931 . S
C84 C83 1.395 . S
C84 C85 1.383 . S
C84 H113 0.931 . S
C85 C84 1.383 . S
C85 C86 1.394 . S
C86 C85 1.394 . S
C86 C87 1.378 . S
C86 H114 0.931 . S
C87 C82 1.377 . S
C87 C86 1.378 . S
C87 H115 0.931 . S
C88 O102 1.259 . S
C88 O103 1.270 . S
C89 O104 1.251 . S
C89 O105 1.251 . S
C90 Eu91 2.835 . S
C90 C92 1.500 . S
C90 O106 1.257 . S
C90 O107 1.260 . S
Eu91 C90 2.835 . S
Eu91 O103 2.355 . S
Eu91 O105 2.374 . S
Eu91 O106 2.473 . S
Eu91 O107 2.480 . S
Eu91 O108 2.430 . S
Eu91 O109 2.670 . S
Eu91 O110 2.394 . S
C92 C90 1.500 . S
C92 C93 1.377 . S
C92 C97 1.377 . S
C93 C92 1.377 . S
C93 C94 1.395 . S
C93 H116 0.931 . S
C94 C93 1.395 . S
C94 C95 1.383 . S
C94 H117 0.931 . S
C95 C94 1.383 . S
C95 C96 1.394 . S
C96 C95 1.394 . S
C96 C97 1.378 . S
C96 H118 0.931 . S
C97 C92 1.377 . S
C97 C96 1.378 . S
C97 H119 0.931 . S
C98 O108 1.259 . S
C98 O109 1.270 . S
C99 O110 1.251 . S
C99 O111 1.251 . S
O100 C80 1.257 . S
O100 Eu81 2.473 . S
O101 C80 1.260 . S
O101 Eu81 2.480 . S
O102 Eu81 2.430 . S
O102 C88 1.259 . S
O103 Eu81 2.670 . S
O103 C88 1.270 . S
O103 Eu91 2.355 . S
O104 Eu81 2.394 . S
O104 C89 1.251 . S
O105 C89 1.251 . S
O105 Eu91 2.374 . S
O106 C90 1.257 . S
O106 Eu91 2.473 . S
O107 C90 1.260 . S
O107 Eu91 2.480 . S
O108 Eu91 2.430 . S
O108 C98 1.259 . S
O109 Eu81 2.355 . S
O109 Eu91 2.670 . S
O109 C98 1.270 . S
O110 Eu91 2.394 . S
O110 C99 1.251 . S
O111 Eu81 2.374 . S
O111 C99 1.251 . S
H112 C83 0.931 . S
H113 C84 0.931 . S
H114 C86 0.931 . S
H115 C87 0.931 . S
H116 C93 0.931 . S
H117 C94 0.931 . S
H118 C96 0.931 . S
H119 C97 0.931 . S
C120 C121 1.386 . S
C120 C122 1.397 . S
C120 H144 0.931 . S
C121 C120 1.386 . S
C121 C125 1.397 . S
C122 C120 1.397 . S
C122 C123 1.384 . S
C122 H145 0.930 . S
C123 C122 1.384 . S
C123 C124 1.377 . S
C123 C126 1.481 . S
C124 C123 1.377 . S
C124 C125 1.389 . S
C124 H146 0.929 1_545 S
C125 C121 1.397 . S
C125 C124 1.389 . S
C125 H147 0.931 1_545 S
C126 C123 1.481 . S
C126 C127 1.387 . S
C126 C131 1.390 . S
C127 C126 1.387 . S
C127 C128 1.401 . S
C127 H148 0.930 . S
C128 C127 1.401 . S
C128 C129 1.376 . S
C128 C137 1.511 . S
C129 C128 1.376 . S
C129 C130 1.392 . S
C129 H150 0.931 . S
C130 C129 1.392 . S
C130 C131 1.361 . S
C130 C132 1.500 1_545 S
C131 C126 1.390 . S
C131 C130 1.361 . S
C131 H149 0.931 1_545 S
C132 C130 1.500 1_565 S
C132 C133 1.371 . S
C132 C134 1.365 . S
C133 C132 1.371 . S
C133 C143 1.386 . S
C133 H151 0.931 1_565 S
C134 C132 1.365 . S
C134 C135 1.409 . S
C134 H152 0.929 . S
C135 C134 1.409 . S
C135 C136 1.380 . S
C135 H153 0.930 . S
C136 C135 1.380 . S
C136 C143 1.357 . S
C137 C128 1.511 . S
C137 C138 1.341 . S
C137 C139 1.371 . S
C138 C137 1.341 . S
C138 C142 1.394 . S
C138 H154 0.930 . S
C139 C137 1.371 . S
C139 C140 1.392 . S
C139 H155 0.931 . S
C140 C139 1.392 . S
C140 C141 1.331 . S
C140 H158 0.932 . S
C141 C140 1.331 . S
C141 C142 1.336 . S
C142 C138 1.394 . S
C142 C141 1.336 . S
C142 H157 0.929 . S
C143 C133 1.386 . S
C143 C136 1.357 . S
C143 H156 0.928 . S
H144 C120 0.931 . S
H145 C122 0.930 . S
H146 C124 0.929 1_565 S
H147 C125 0.931 1_565 S
H148 C127 0.930 . S
H149 C131 0.931 1_565 S
H150 C129 0.931 . S
H151 C133 0.931 1_545 S
H152 C134 0.929 . S
H153 C135 0.930 . S
H154 C138 0.930 . S
H155 C139 0.931 . S
H156 C143 0.928 . S
H157 C142 0.929 . S
H158 C140 0.932 . S
C159 C160 1.386 . S
C159 C161 1.397 . S
C159 H183 0.931 . S
C160 C159 1.386 . S
C160 C164 1.397 . S
C161 C159 1.397 . S
C161 C162 1.384 . S
C161 H184 0.930 . S
C162 C161 1.384 . S
C162 C163 1.377 . S
C162 C165 1.481 . S
C163 C162 1.377 . S
C163 C164 1.389 . S
C163 H185 0.929 . S
C164 C160 1.397 . S
C164 C163 1.389 . S
C164 H186 0.931 . S
C165 C162 1.481 . S
C165 C166 1.387 . S
C165 C170 1.390 . S
C166 C165 1.387 . S
C166 C167 1.401 . S
C166 H187 0.930 . S
C167 C166 1.401 . S
C167 C168 1.376 . S
C167 C176 1.511 . S
C168 C167 1.376 . S
C168 C169 1.392 . S
C168 H189 0.931 . S
C169 C168 1.392 . S
C169 C170 1.361 . S
C169 C171 1.500 . S
C170 C165 1.390 . S
C170 C169 1.361 . S
C170 H188 0.931 . S
C171 C169 1.500 . S
C171 C172 1.371 . S
C171 C173 1.365 . S
C172 C171 1.371 . S
C172 C182 1.386 . S
C172 H190 0.931 . S
C173 C171 1.365 . S
C173 C174 1.409 . S
C173 H191 0.929 . S
C174 C173 1.409 . S
C174 C175 1.380 . S
C174 H192 0.930 . S
C175 C174 1.380 . S
C175 C182 1.357 . S
C176 C167 1.511 . S
C176 C177 1.341 . S
C176 C178 1.371 . S
C177 C176 1.341 . S
C177 C181 1.394 . S
C177 H193 0.930 . S
C178 C176 1.371 . S
C178 C179 1.392 . S
C178 H194 0.931 . S
C179 C178 1.392 . S
C179 C180 1.331 . S
C179 H197 0.932 . S
C180 C179 1.331 . S
C180 C181 1.336 . S
C181 C177 1.394 . S
C181 C180 1.336 . S
C181 H196 0.929 . S
C182 C172 1.386 . S
C182 C175 1.357 . S
C182 H195 0.928 . S
H183 C159 0.931 . S
H184 C161 0.930 . S
H185 C163 0.929 . S
H186 C164 0.931 . S
H187 C166 0.930 . S
H188 C170 0.931 . S
H189 C168 0.931 . S
H190 C172 0.931 . S
H191 C173 0.929 . S
H192 C174 0.930 . S
H193 C177 0.930 . S
H194 C178 0.931 . S
H195 C182 0.928 . S
H196 C181 0.929 . S
H197 C179 0.932 . S
C198 C199 1.386 . S
C198 C200 1.397 1_554 S
C198 H222 0.931 . S
C199 C198 1.386 . S
C199 C203 1.397 1_455 S
C200 C198 1.397 1_556 S
C200 C201 1.384 . S
C200 H223 0.930 . S
C201 C200 1.384 . S
C201 C202 1.377 1_455 S
C201 C204 1.481 . S
C202 C201 1.377 1_655 S
C202 C203 1.389 1_556 S
C202 H224 0.929 . S
C203 C199 1.397 1_655 S
C203 C202 1.389 1_554 S
C203 H225 0.931 . S
C204 C201 1.481 . S
C204 C205 1.387 . S
C204 C209 1.390 1_455 S
C205 C204 1.387 . S
C205 C206 1.401 . S
C205 H226 0.930 . S
C206 C205 1.401 . S
C206 C207 1.376 . S
C206 C215 1.511 . S
C207 C206 1.376 . S
C207 C208 1.392 1_455 S
C207 H228 0.931 . S
C208 C207 1.392 1_655 S
C208 C209 1.361 . S
C208 C210 1.500 . S
C209 C204 1.390 1_655 S
C209 C208 1.361 . S
C209 H227 0.931 . S
C210 C208 1.500 . S
C210 C211 1.371 . S
C210 C212 1.365 . S
C211 C210 1.371 . S
C211 C221 1.386 . S
C211 H229 0.931 . S
C212 C210 1.365 . S
C212 C213 1.409 . S
C212 H230 0.929 . S
C213 C212 1.409 . S
C213 C214 1.380 . S
C213 H231 0.930 . S
C214 C213 1.380 . S
C214 C221 1.357 . S
C215 C206 1.511 . S
C215 C216 1.341 . S
C215 C217 1.371 . S
C216 C215 1.341 . S
C216 C220 1.394 . S
C216 H232 0.930 . S
C217 C215 1.371 . S
C217 C218 1.392 . S
C217 H233 0.931 . S
C218 C217 1.392 . S
C218 C219 1.331 . S
C218 H236 0.932 . S
C219 C218 1.331 . S
C219 C220 1.336 . S
C220 C216 1.394 . S
C220 C219 1.336 . S
C220 H235 0.929 . S
C221 C211 1.386 . S
C221 C214 1.357 . S
C221 H234 0.928 . S
H222 C198 0.931 . S
H223 C200 0.930 . S
H224 C202 0.929 . S
H225 C203 0.931 . S
H226 C205 0.930 . S
H227 C209 0.931 . S
H228 C207 0.931 . S
H229 C211 0.931 . S
H230 C212 0.929 . S
H231 C213 0.930 . S
H232 C216 0.930 . S
H233 C217 0.931 . S
H234 C221 0.928 . S
H235 C220 0.929 . S
H236 C218 0.932 . S
C237 C238 1.386 . S
C237 C239 1.397 . S
C237 H261 0.931 1_455 S
C238 C237 1.386 . S
C238 C242 1.397 . S
C239 C237 1.397 . S
C239 C240 1.384 . S
C239 H262 0.930 1_455 S
C240 C239 1.384 . S
C240 C241 1.377 . S
C240 C243 1.481 . S
C241 C240 1.377 . S
C241 C242 1.389 . S
C241 H263 0.929 . S
C242 C238 1.397 . S
C242 C241 1.389 . S
C242 H264 0.931 . S
C243 C240 1.481 . S
C243 C244 1.387 . S
C243 C248 1.390 . S
C244 C243 1.387 . S
C244 C245 1.401 . S
C244 H265 0.930 1_455 S
C245 C244 1.401 . S
C245 C246 1.376 . S
C245 C254 1.511 1_455 S
C246 C245 1.376 . S
C246 C247 1.392 . S
C246 H267 0.931 . S
C247 C246 1.392 . S
C247 C248 1.361 . S
C247 C249 1.500 . S
C248 C243 1.390 . S
C248 C247 1.361 . S
C248 H266 0.931 . S
C249 C247 1.500 . S
C249 C250 1.371 . S
C249 C251 1.365 . S
C250 C249 1.371 . S
C250 C260 1.386 . S
C250 H268 0.931 . S
C251 C249 1.365 . S
C251 C252 1.409 . S
C251 H269 0.929 . S
C252 C251 1.409 . S
C252 C253 1.380 . S
C252 H270 0.930 . S
C253 C252 1.380 . S
C253 C260 1.357 . S
C254 C245 1.511 1_655 S
C254 C255 1.341 . S
C254 C256 1.371 . S
C255 C254 1.341 . S
C255 C259 1.394 . S
C255 H271 0.930 . S
C256 C254 1.371 . S
C256 C257 1.392 . S
C256 H272 0.931 1_655 S
C257 C256 1.392 . S
C257 C258 1.331 . S
C257 H275 0.932 . S
C258 C257 1.331 . S
C258 C259 1.336 . S
C259 C255 1.394 . S
C259 C258 1.336 . S
C259 H274 0.929 . S
C260 C250 1.386 . S
C260 C253 1.357 . S
C260 H273 0.928 . S
H261 C237 0.931 1_655 S
H262 C239 0.930 1_655 S
H263 C241 0.929 . S
H264 C242 0.931 . S
H265 C244 0.930 1_655 S
H266 C248 0.931 . S
H267 C246 0.931 . S
H268 C250 0.931 . S
H269 C251 0.929 . S
H270 C252 0.930 . S
H271 C255 0.930 . S
H272 C256 0.931 1_455 S
H273 C260 0.928 . S
H274 C259 0.929 . S
H275 C257 0.932 . S
C276 C277 1.386 1_565 S
C276 C278 1.397 . S
C276 H300 0.931 . S
C277 C276 1.386 1_545 S
C277 C281 1.397 . S
C278 C276 1.397 . S
C278 C279 1.384 1_565 S
C278 H301 0.930 . S
C279 C278 1.384 1_545 S
C279 C280 1.377 . S
C279 C282 1.481 . S
C280 C279 1.377 . S
C280 C281 1.389 . S
C280 H302 0.929 . S
C281 C277 1.397 . S
C281 C280 1.389 . S
C281 H303 0.931 . S
C282 C279 1.481 . S
C282 C283 1.387 1_545 S
C282 C287 1.390 . S
C283 C282 1.387 1_565 S
C283 C284 1.401 . S
C283 H304 0.930 . S
C284 C283 1.401 . S
C284 C285 1.376 1_565 S
C284 C293 1.511 . S
C285 C284 1.376 1_545 S
C285 C286 1.392 . S
C285 H306 0.931 . S
C286 C285 1.392 . S
C286 C287 1.361 . S
C286 C288 1.500 . S
C287 C282 1.390 . S
C287 C286 1.361 . S
C287 H305 0.931 . S
C288 C286 1.500 . S
C288 C289 1.371 . S
C288 C290 1.365 . S
C289 C288 1.371 . S
C289 C299 1.386 . S
C289 H307 0.931 . S
C290 C288 1.365 . S
C290 C291 1.409 . S
C290 H308 0.929 . S
C291 C290 1.409 . S
C291 C292 1.380 . S
C291 H309 0.930 . S
C292 C291 1.380 . S
C292 C299 1.357 . S
C293 C284 1.511 . S
C293 C294 1.341 . S
C293 C295 1.371 . S
C294 C293 1.341 . S
C294 C298 1.394 . S
C294 H310 0.930 . S
C295 C293 1.371 . S
C295 C296 1.392 . S
C295 H311 0.931 . S
C296 C295 1.392 . S
C296 C297 1.331 . S
C296 H314 0.932 . S
C297 C296 1.331 . S
C297 C298 1.336 . S
C298 C294 1.394 . S
C298 C297 1.336 . S
C298 H313 0.929 . S
C299 C289 1.386 . S
C299 C292 1.357 . S
C299 H312 0.928 . S
H300 C276 0.931 . S
H301 C278 0.930 . S
H302 C280 0.929 . S
H303 C281 0.931 . S
H304 C283 0.930 . S
H305 C287 0.931 . S
H306 C285 0.931 . S
H307 C289 0.931 . S
H308 C290 0.929 . S
H309 C291 0.930 . S
H310 C294 0.930 . S
H311 C295 0.931 . S
H312 C299 0.928 . S
H313 C298 0.929 . S
H314 C296 0.932 . S
C315 C316 1.386 1_554 S
C315 C317 1.397 . S
C315 H339 0.931 . S
C316 C315 1.386 1_556 S
C316 C320 1.397 1_556 S
C317 C315 1.397 . S
C317 C318 1.384 . S
C317 H340 0.930 . S
C318 C317 1.384 . S
C318 C319 1.377 . S
C318 C321 1.481 . S
C319 C318 1.377 . S
C319 C320 1.389 . S
C319 H341 0.929 . S
C320 C316 1.397 1_554 S
C320 C319 1.389 . S
C320 H342 0.931 . S
C321 C318 1.481 . S
C321 C322 1.387 . S
C321 C326 1.390 . S
C322 C321 1.387 . S
C322 C323 1.401 . S
C322 H343 0.930 . S
C323 C322 1.401 . S
C323 C324 1.376 . S
C323 C332 1.511 . S
C324 C323 1.376 . S
C324 C325 1.392 . S
C324 H345 0.931 . S
C325 C324 1.392 . S
C325 C326 1.361 . S
C325 C327 1.500 . S
C326 C321 1.390 . S
C326 C325 1.361 . S
C326 H344 0.931 . S
C327 C325 1.500 . S
C327 C328 1.371 . S
C327 C329 1.365 . S
C328 C327 1.371 . S
C328 C338 1.386 . S
C328 H346 0.931 . S
C329 C327 1.365 . S
C329 C330 1.409 . S
C329 H347 0.929 . S
C330 C329 1.409 . S
C330 C331 1.380 . S
C330 H348 0.930 . S
C331 C330 1.380 . S
C331 C338 1.357 . S
C332 C323 1.511 . S
C332 C333 1.341 . S
C332 C334 1.371 . S
C333 C332 1.341 . S
C333 C337 1.394 . S
C333 H349 0.930 . S
C334 C332 1.371 . S
C334 C335 1.392 . S
C334 H350 0.931 . S
C335 C334 1.392 . S
C335 C336 1.331 . S
C335 H353 0.932 . S
C336 C335 1.331 . S
C336 C337 1.336 . S
C337 C333 1.394 . S
C337 C336 1.336 . S
C337 H352 0.929 . S
C338 C328 1.386 . S
C338 C331 1.357 . S
C338 H351 0.928 . S
H339 C315 0.931 . S
H340 C317 0.930 . S
H341 C319 0.929 . S
H342 C320 0.931 . S
H343 C322 0.930 . S
H344 C326 0.931 . S
H345 C324 0.931 . S
H346 C328 0.931 . S
H347 C329 0.929 . S
H348 C330 0.930 . S
H349 C333 0.930 . S
H350 C334 0.931 . S
H351 C338 0.928 . S
H352 C337 0.929 . S
H353 C335 0.932 . S
C354 C355 1.387 . S
C354 H358 0.950 . S
C354 C363 1.390 . S
C355 C354 1.387 . S
C355 C357 1.387 . S
H356 C363 0.950 . S
C357 C355 1.387 . S
C357 C359 1.390 . S
C357 H361 0.950 . S
H358 C354 0.950 . S
C359 C357 1.390 . S
C359 C360 1.387 . S
C359 H362 0.950 . S
C360 C359 1.387 . S
C360 C363 1.387 . S
H361 C357 0.950 . S
H362 C359 0.950 . S
C363 C354 1.390 . S
C363 H356 0.950 . S
C363 C360 1.387 . S
C364 C365 1.387 . S
C364 H368 0.950 . S
C364 C373 1.390 . S
C365 C364 1.387 . S
C365 C367 1.387 . S
H366 C373 0.950 . S
C367 C365 1.387 . S
C367 C369 1.390 . S
C367 H371 0.950 . S
H368 C364 0.950 . S
C369 C367 1.390 . S
C369 C370 1.387 . S
C369 H372 0.950 . S
C370 C369 1.387 . S
C370 C373 1.387 . S
H371 C367 0.950 . S
H372 C369 0.950 . S
C373 C364 1.390 . S
C373 H366 0.950 . S
C373 C370 1.387 . S
C374 C375 1.387 . S
C374 H378 0.950 . S
C374 C383 1.390 . S
C375 C374 1.387 . S
C375 C377 1.387 . S
H376 C383 0.950 . S
C377 C375 1.387 . S
C377 C379 1.390 . S
C377 H381 0.950 . S
H378 C374 0.950 . S
C379 C377 1.390 . S
C379 C380 1.387 . S
C379 H382 0.950 . S
C380 C379 1.387 . S
C380 C383 1.387 . S
H381 C377 0.950 . S
H382 C379 0.950 . S
C383 C374 1.390 . S
C383 H376 0.950 . S
C383 C380 1.387 . S
C384 C385 1.387 . S
C384 H388 0.950 . S
C384 C393 1.390 . S
C385 C384 1.387 . S
C385 C387 1.387 . S
H386 C393 0.950 . S
C387 C385 1.387 . S
C387 C389 1.390 . S
C387 H391 0.950 . S
H388 C384 0.950 . S
C389 C387 1.390 . S
C389 C390 1.387 . S
C389 H392 0.950 . S
C390 C389 1.387 . S
C390 C393 1.387 . S
H391 C387 0.950 . S
H392 C389 0.950 . S
C393 C384 1.390 . S
C393 H386 0.950 . S
C393 C390 1.387 . S
C394 C395 1.387 . S
C394 H398 0.950 . S
C394 C403 1.390 . S
C395 C394 1.387 . S
C395 C397 1.387 . S
H396 C403 0.950 . S
C397 C395 1.387 . S
C397 C399 1.390 . S
C397 H401 0.950 . S
H398 C394 0.950 . S
C399 C397 1.390 . S
C399 C400 1.387 . S
C399 H402 0.950 . S
C400 C399 1.387 . S
C400 C403 1.387 . S
H401 C397 0.950 . S
H402 C399 0.950 . S
C403 C394 1.390 . S
C403 H396 0.950 . S
C403 C400 1.387 . S
C404 C405 1.387 . S
C404 H408 0.950 . S
C404 C413 1.390 . S
C405 C404 1.387 . S
C405 C407 1.387 . S
H406 C413 0.950 . S
C407 C405 1.387 . S
C407 C409 1.390 . S
C407 H411 0.950 . S
H408 C404 0.950 . S
C409 C407 1.390 . S
C409 C410 1.387 . S
C409 H412 0.950 . S
C410 C409 1.387 . S
C410 C413 1.387 . S
H411 C407 0.950 . S
H412 C409 0.950 . S
C413 C404 1.390 . S
C413 H406 0.950 . S
C413 C410 1.387 . S
C414 C415 1.387 . S
C414 H418 0.950 . S
C414 C423 1.390 . S
C415 C414 1.387 . S
C415 C417 1.387 . S
H416 C423 0.950 . S
C417 C415 1.387 . S
C417 C419 1.390 . S
C417 H421 0.950 . S
H418 C414 0.950 . S
C419 C417 1.390 . S
C419 C420 1.387 . S
C419 H422 0.950 . S
C420 C419 1.387 . S
C420 C423 1.387 . S
H421 C417 0.950 . S
H422 C419 0.950 . S
C423 C414 1.390 . S
C423 H416 0.950 . S
C423 C420 1.387 . S
C424 C425 1.387 . S
C424 H428 0.950 . S
C424 C433 1.390 . S
C425 C424 1.387 . S
C425 C427 1.387 . S
H426 C433 0.950 . S
C427 C425 1.387 . S
C427 C429 1.390 . S
C427 H431 0.950 . S
H428 C424 0.950 . S
C429 C427 1.390 . S
C429 C430 1.387 . S
C429 H432 0.950 . S
C430 C429 1.387 . S
C430 C433 1.387 . S
H431 C427 0.950 . S
H432 C429 0.950 . S
C433 C424 1.390 . S
C433 H426 0.950 . S
C433 C430 1.387 . S
C434 C435 1.387 . S
C434 H438 0.950 . S
C434 C443 1.390 . S
C435 C434 1.387 . S
C435 C437 1.387 . S
H436 C443 0.950 . S
C437 C435 1.387 . S
C437 C439 1.390 . S
C437 H441 0.950 . S
H438 C434 0.950 . S
C439 C437 1.390 . S
C439 C440 1.387 . S
C439 H442 0.950 . S
C440 C439 1.387 . S
C440 C443 1.387 . S
H441 C437 0.950 . S
H442 C439 0.950 . S
C443 C434 1.390 . S
C443 H436 0.950 . S
C443 C440 1.387 . S
C444 C445 1.387 . S
C444 H448 0.950 . S
C444 C453 1.390 . S
C445 C444 1.387 . S
C445 C447 1.387 . S
H446 C453 0.950 . S
C447 C445 1.387 . S
C447 C449 1.390 . S
C447 H451 0.950 . S
H448 C444 0.950 . S
C449 C447 1.390 . S
C449 C450 1.387 . S
C449 H452 0.950 . S
C450 C449 1.387 . S
C450 C453 1.387 . S
H451 C447 0.950 . S
H452 C449 0.950 . S
C453 C444 1.390 . S
C453 H446 0.950 . S
C453 C450 1.387 . S
C454 C455 1.387 . S
C454 H458 0.950 . S
C454 C463 1.390 . S
C455 C454 1.387 . S
C455 C457 1.387 . S
H456 C463 0.950 . S
C457 C455 1.387 . S
C457 C459 1.390 . S
C457 H461 0.950 . S
H458 C454 0.950 . S
C459 C457 1.390 . S
C459 C460 1.387 . S
C459 H462 0.950 . S
C460 C459 1.387 . S
C460 C463 1.387 . S
H461 C457 0.950 . S
H462 C459 0.950 . S
C463 C454 1.390 . S
C463 H456 0.950 . S
C463 C460 1.387 . S
C464 C465 1.387 . S
C464 H468 0.950 . S
C464 C473 1.390 . S
C465 C464 1.387 . S
C465 C467 1.387 . S
H466 C473 0.950 . S
C467 C465 1.387 . S
C467 C469 1.390 . S
C467 H471 0.950 . S
H468 C464 0.950 . S
C469 C467 1.390 . S
C469 C470 1.387 . S
C469 H472 0.950 . S
C470 C469 1.387 . S
C470 C473 1.387 . S
H471 C467 0.950 . S
H472 C469 0.950 . S
C473 C464 1.390 . S
C473 H466 0.950 . S
C473 C470 1.387 . S
C474 C475 1.387 . S
C474 H478 0.950 . S
C474 C483 1.390 . S
C475 C474 1.387 . S
C475 C477 1.387 1_455 S
H476 C483 0.950 . S
C477 C475 1.387 1_655 S
C477 C479 1.390 . S
C477 H481 0.950 . S
H478 C474 0.950 . S
C479 C477 1.390 . S
C479 C480 1.387 1_655 S
C479 H482 0.950 . S
C480 C479 1.387 1_455 S
C480 C483 1.387 . S
H481 C477 0.950 . S
H482 C479 0.950 . S
C483 C474 1.390 . S
C483 H476 0.950 . S
C483 C480 1.387 . S
C484 C485 1.387 . S
C484 H488 0.950 . S
C484 C493 1.390 . S
C485 C484 1.387 . S
C485 C487 1.387 . S
H486 C493 0.950 . S
C487 C485 1.387 . S
C487 C489 1.390 . S
C487 H491 0.950 . S
H488 C484 0.950 . S
C489 C487 1.390 . S
C489 C490 1.387 . S
C489 H492 0.950 . S
C490 C489 1.387 . S
C490 C493 1.387 . S
H491 C487 0.950 . S
H492 C489 0.950 . S
C493 C484 1.390 . S
C493 H486 0.950 . S
C493 C490 1.387 . S
C494 C495 1.387 . S
C494 H498 0.950 . S
C494 C503 1.390 . S
C495 C494 1.387 . S
C495 C497 1.387 . S
H496 C503 0.950 . S
C497 C495 1.387 . S
C497 C499 1.390 . S
C497 H501 0.950 . S
H498 C494 0.950 . S
C499 C497 1.390 . S
C499 C500 1.387 . S
C499 H502 0.950 . S
C500 C499 1.387 . S
C500 C503 1.387 . S
H501 C497 0.950 . S
H502 C499 0.950 . S
C503 C494 1.390 . S
C503 H496 0.950 . S
C503 C500 1.387 . S
C504 C505 1.387 . S
C504 H508 0.950 1_545 S
C504 C513 1.390 . S
C505 C504 1.387 . S
C505 C507 1.387 . S
H506 C513 0.951 1_565 S
C507 C505 1.387 . S
C507 C509 1.390 . S
C507 H511 0.950 . S
H508 C504 0.950 1_565 S
C509 C507 1.390 . S
C509 C510 1.387 . S
C509 H512 0.950 . S
C510 C509 1.387 . S
C510 C513 1.386 . S
H511 C507 0.950 . S
H512 C509 0.950 . S
C513 C504 1.390 . S
C513 H506 0.951 1_545 S
C513 C510 1.386 . S
C514 C515 1.387 . S
C514 H518 0.950 . S
C514 C523 1.390 . S
C515 C514 1.387 . S
C515 C517 1.387 . S
H516 C523 0.950 . S
C517 C515 1.387 . S
C517 C519 1.390 . S
C517 H521 0.950 . S
H518 C514 0.950 . S
C519 C517 1.390 . S
C519 C520 1.387 . S
C519 H522 0.950 . S
C520 C519 1.387 . S
C520 C523 1.387 . S
H521 C517 0.950 . S
H522 C519 0.950 . S
C523 C514 1.390 . S
C523 H516 0.950 . S
C523 C520 1.387 . S
C524 C525 1.387 . S
C524 H528 0.950 . S
C524 C533 1.390 . S
C525 C524 1.387 . S
C525 C527 1.387 . S
H526 C533 0.950 . S
C527 C525 1.387 . S
C527 C529 1.390 . S
C527 H531 0.950 1_455 S
H528 C524 0.950 . S
C529 C527 1.390 . S
C529 C530 1.387 . S
C529 H532 0.950 . S
C530 C529 1.387 . S
C530 C533 1.387 . S
H531 C527 0.950 1_655 S
H532 C529 0.950 . S
C533 C524 1.390 . S
C533 H526 0.950 . S
C533 C530 1.387 . S
C355 C19 3.108 . S
C360 C331 3.044 . S
C365 C49 3.173 . S
C370 C258 3.112 . S
C375 C99 3.107 . S
C380 C297 3.041 . S
C385 C9 3.161 . S
C390 C336 3.100 . S
C400 C253 3.028 . S
C395 C59 3.098 . S
C410 C292 3.099 . S
C405 C89 3.162 . S
C415 C55 0.648 . S
C420 C180 0.635 . S
C425 C85 0.665 . S
C430 C214 0.600 . S
C435 C15 0.622 . S
C440 C136 0.604 . S
C450 C175 0.602 . S
C445 C45 0.674 . S
C460 C219 0.606 . S
C455 C95 0.622 . S
C465 C5 0.663 . S
C470 C141 0.590 . S
C480 C199 1.036 . S
C475 C18 1.034 . S
C485 C58 1.032 . S
C490 C121 1.035 . S
C495 C98 1.042 . S
C500 C160 1.042 . S
C510 C277 1.818 . S
C505 C48 1.725 . S
C520 C316 1.820 . S
C515 C88 1.730 . S
C525 C8 1.727 . S
C530 C238 1.820 . S
