# Generated by pormake.
# Topology ftw, (4,12)-cn, num edge types: 1
# Building blocks:
#     Node 0, Type 0, BuildingBlock: NAWXER_clean_linker_0, # of connection points: 4
#     Node 1, Type 0, BuildingBlock: NAWXER_clean_linker_0, # of connection points: 4
#     Node 2, Type 0, BuildingBlock: NAWXER_clean_linker_0, # of connection points: 4
#     Node 3, Type 1, BuildingBlock: QEWDON_clean_sbu_0, # of connection points: 12
#     Edge 4, Type (0, 1), BuildingBlock: FUNLAD_clean_linker_0, # of connection points: 2
#     Edge 5, Type (0, 1), BuildingBlock: FUNLAD_clean_linker_0, # of connection points: 2
#     Edge 6, Type (0, 1), BuildingBlock: FUNLAD_clean_linker_0, # of connection points: 2
#     Edge 7, Type (0, 1), BuildingBlock: FUNLAD_clean_linker_0, # of connection points: 2
#     Edge 8, Type (0, 1), BuildingBlock: FUNLAD_clean_linker_0, # of connection points: 2
#     Edge 9, Type (0, 1), BuildingBlock: FUNLAD_clean_linker_0, # of connection points: 2
#     Edge 10, Type (0, 1), BuildingBlock: FUNLAD_clean_linker_0, # of connection points: 2
#     Edge 11, Type (0, 1), BuildingBlock: FUNLAD_clean_linker_0, # of connection points: 2
#     Edge 12, Type (0, 1), BuildingBlock: FUNLAD_clean_linker_0, # of connection points: 2
#     Edge 13, Type (0, 1), BuildingBlock: FUNLAD_clean_linker_0, # of connection points: 2
#     Edge 14, Type (0, 1), BuildingBlock: FUNLAD_clean_linker_0, # of connection points: 2
#     Edge 15, Type (0, 1), BuildingBlock: FUNLAD_clean_linker_0, # of connection points: 2
# Relax obj value: 0.054
# Max RMSD: 0.160
# Mean RMSD: 0.117
data_MOF--net-ftw--node1-QEWDON_clean_sbu_0--node2-NAWXER_clean_linker_0--edge1-FUNLAD_clean_linker_0
_symmetry_space_group_name_H-M    P1
_symmetry_Int_Tables_number       1
_symmetry_cell_setting            triclinic
loop_
_symmetry_equiv_pos_as_xyz
'x, y, z'
_cell_length_a     30.416669
_cell_length_b     33.029233
_cell_length_c     32.353137
_cell_angle_alpha  90.527562
_cell_angle_beta   90.483089
_cell_angle_gamma 89.199572
loop_
_atom_site_label
_atom_site_type_symbol
_atom_site_fract_x
_atom_site_fract_y
_atom_site_fract_z
_atom_type_partial_charge
C0 C 0.02915 0.61009 0.60254 0.0
C1 C -0.00296 0.61284 0.63359 0.0
C2 C 0.02735 0.57959 0.57218 0.0
C3 C -0.00685 0.55138 0.57195 0.0
C4 C 0.96238 0.58507 0.63268 0.0
C5 C 0.96062 0.55462 0.60241 0.0
C6 C -0.00654 0.5159 0.54331 0.0
C7 C 0.97547 0.62238 0.45848 0.0
C8 C 0.00783 0.62659 0.42805 0.0
C9 C 0.97443 0.5877 0.48293 0.0
C10 C 0.00601 0.55662 0.47783 0.0
C11 C 0.03968 0.59563 0.42333 0.0
C12 C 0.0386 0.56096 0.44778 0.0
C13 C 0.0028 0.518 0.50066 0.0
C14 C 0.97074 0.34876 0.43691 0.0
C15 C 0.00487 0.34603 0.4078 0.0
C16 C 0.96941 0.38035 0.46615 0.0
C17 C 0.00248 0.40969 0.46729 0.0
C18 C 0.0381 0.37522 0.40936 0.0
C19 C 0.03677 0.40671 0.43857 0.0
C20 C -0.00023 0.44558 0.49535 0.0
C21 C 0.00927 0.34088 0.58672 0.0
C22 C 0.97495 0.34006 0.61562 0.0
C23 C 0.01307 0.37357 0.55968 0.0
C24 C 0.98227 0.4057 0.56076 0.0
C25 C 0.94335 0.3715 0.6154 0.0
C26 C 0.94709 0.40396 0.58844 0.0
C27 C -0.01086 0.44367 0.53778 0.0
H28 H 0.0567 0.6305 0.60261 0.0
H29 H 0.05364 0.57716 0.54991 0.0
H30 H 0.93671 0.58659 0.65566 0.0
H31 H 0.93403 0.53316 0.60313 0.0
H32 H 0.95061 0.64573 0.46313 0.0
H33 H 0.94809 0.58474 0.50497 0.0
H34 H 0.06465 0.59755 0.39979 0.0
H35 H 0.06296 0.5372 0.44282 0.0
H36 H 0.94416 0.32728 0.43621 0.0
H37 H 0.94173 0.38253 0.48691 0.0
H38 H 0.06518 0.37386 0.38785 0.0
H39 H 0.06254 0.42903 0.43852 0.0
H40 H 0.03433 0.31727 0.58638 0.0
H41 H 0.04115 0.37461 0.53938 0.0
H42 H 0.91612 0.37145 0.63677 0.0
H43 H 0.92299 0.42839 0.58999 0.0
N44 N 0.98662 0.47888 0.55983 0.0
N45 N 0.00604 0.48274 0.47863 0.0
C46 C 0.55881 0.03633 0.67719 0.0
C47 C 0.59775 0.01282 0.67934 0.0
C48 C 0.53118 0.0343 0.64243 0.0
C49 C 0.541 0.00775 0.60944 0.0
C50 C 0.60792 0.98696 0.6458 0.0
C51 C 0.57988 0.98441 0.61144 0.0
C52 C 0.51331 0.00634 0.57132 0.0
C53 C 0.41618 0.97398 0.67181 0.0
C54 C 0.37875 -0.00061 0.67364 0.0
C55 C 0.44602 0.97737 0.6393 0.0
C56 C 0.43925 0.00677 0.60863 0.0
C57 C 0.37273 0.02929 0.64346 0.0
C58 C 0.40257 0.03286 0.61131 0.0
C59 C 0.4668 0.008 0.57118 0.0
C60 C 0.41247 0.97971 0.39498 0.0
C61 C 0.37868 0.00913 0.39212 0.0
C62 C 0.44217 0.98019 0.42837 0.0
C63 C 0.43837 0.00997 0.4595 0.0
C64 C 0.37545 0.03908 0.42314 0.0
C65 C 0.40473 0.03929 0.45655 0.0
C66 C 0.46617 0.00891 0.49727 0.0
C67 C 0.55943 0.03951 0.39462 0.0
C68 C 0.59579 0.01303 0.39069 0.0
C69 C 0.5316 0.03703 0.42869 0.0
C70 C 0.53921 0.00761 0.45915 0.0
C71 C 0.60307 0.98344 0.42106 0.0
C72 C 0.5752 0.98091 0.45498 0.0
C73 C 0.51253 0.00658 0.49721 0.0
H74 H 0.54948 0.05641 0.70234 0.0
H75 H 0.50255 0.05408 0.64123 0.0
H76 H 0.63803 0.96911 0.64556 0.0
H77 H 0.58885 0.96428 0.58616 0.0
H78 H 0.4214 0.95048 0.69454 0.0
H79 H 0.47341 0.95617 0.63737 0.0
H80 H 0.34453 0.04967 0.64443 0.0
H81 H 0.39652 0.05565 0.58798 0.0
H82 H 0.41578 0.9563 0.37151 0.0
H83 H 0.46729 0.95671 0.43043 0.0
H84 H 0.3494 0.06177 0.42223 0.0
H85 H 0.40081 0.06223 0.48045 0.0
H86 H 0.55332 0.063 0.37207 0.0
H87 H 0.505 0.05894 0.43181 0.0
H88 H 0.63043 0.96223 0.41867 0.0
H89 H 0.58196 0.95815 0.47819 0.0
N90 N 0.53414 0.00531 0.53421 0.0
N91 N 0.44537 0.00956 0.5342 0.0
C92 C 0.35498 0.40345 1.001 0.0
C93 C 0.32377 0.40947 0.03239 0.0
C94 C 0.39449 0.42446 1.00187 0.0
C95 C 0.4038 0.45145 0.03444 0.0
C96 C 0.33303 0.43682 0.06472 0.0
C97 C 0.37258 0.45773 0.06561 0.0
C98 C 0.44433 0.47557 0.03476 0.0
C99 C 0.49327 0.34633 0.04767 0.0
C100 C 0.52133 0.33283 0.01591 0.0
C101 C 0.48075 0.38717 0.05068 0.0
C102 C 0.49583 0.41522 0.02182 0.0
C103 C 0.53575 0.36093 0.98674 0.0
C104 C 0.52331 0.40168 0.98982 0.0
C105 C 0.48655 0.45912 0.02672 0.0
C106 C 0.60536 0.59726 0.06776 0.0
C107 C 0.63616 0.59316 0.03578 0.0
C108 C 0.56643 0.57545 0.06654 0.0
C109 C 0.5573 0.54949 0.03307 0.0
C110 C 0.62719 0.56677 1.00254 0.0
C111 C 0.5882 0.54493 1.00136 0.0
C112 C 0.51692 0.52522 0.03215 0.0
C113 C 0.46786 0.65471 0.02086 0.0
C114 C 0.43942 0.66766 0.05257 0.0
C115 C 0.48064 0.61397 0.01739 0.0
C116 C 0.46548 0.58548 0.04576 0.0
C117 C 0.42512 0.63915 0.08137 0.0
C118 C 0.43785 0.59852 0.07785 0.0
C119 C 0.47473 0.54164 0.04023 0.0
H120 H 0.349 0.38233 0.97584 0.0
H121 H 0.41741 0.42001 0.97675 0.0
H122 H 0.30941 0.44255 0.08903 0.0
H123 H 0.37879 0.47891 0.0907 0.0
H124 H 0.48154 0.32544 0.07056 0.0
H125 H 0.4604 0.39698 0.07629 0.0
H126 H 0.55807 0.35177 0.96237 0.0
H127 H 0.53577 0.42283 0.9675 0.0
H128 H 0.61116 0.61761 0.09361 0.0
H129 H 0.54368 0.5786 0.09198 0.0
H130 H 0.65054 0.56261 0.97772 0.0
H131 H 0.58206 0.52457 0.97555 0.0
H132 H 0.47952 0.67593 0.99825 0.0
H133 H 0.50115 0.60456 0.99174 0.0
H134 H 0.40254 0.64786 0.10569 0.0
H135 H 0.42538 0.57704 0.09984 0.0
N136 N 0.44018 0.5161 0.04137 0.0
N137 N 0.52113 0.48468 0.02552 0.0
Zn138 Zn 0.03805 0.07631 0.99185 0.0
Zn139 Zn 0.02229 0.07418 0.09097 0.0
O140 O 0.02562 0.03967 0.03973 0.0
H141 H 0.02965 0.01069 0.03769 0.0
C142 C 0.91532 0.10046 0.90382 0.0
O143 O 0.92571 0.0621 0.89807 0.0
Zn144 Zn 0.94494 0.91638 0.10065 0.0
Zn145 Zn 0.94299 0.93526 1.00319 0.0
O146 O 0.96202 0.95836 0.05957 0.0
H147 H 0.96593 0.9866 0.06641 0.0
Zn148 Zn 0.87542 0.07092 0.98211 0.0
O149 O 0.91432 0.0615 0.03281 0.0
Zn150 Zn 0.87438 0.04849 0.07987 0.0
H151 H 0.89913 0.06645 1.00699 0.0
Zn152 Zn 0.06752 0.90767 0.98958 0.0
O153 O 0.03392 0.91415 0.04387 0.0
H154 H 0.04658 0.91027 0.01683 0.0
Zn155 Zn 0.07689 0.93143 0.08781 0.0
C156 C 0.05556 0.87768 0.90494 0.0
O157 O 0.07922 0.90995 0.89834 0.0
O158 O 0.04829 0.13526 1.0101 0.0
O159 O 0.04254 0.13123 0.0785 0.0
O160 O 0.92198 0.87628 1.00468 0.0
O161 O 0.91918 0.86716 0.07253 0.0
O162 O 0.8098 0.07527 0.99746 0.0
O163 O 0.81037 0.06098 0.06461 0.0
C164 C 0.07717 0.01393 0.13416 0.0
O165 O 0.13467 0.90737 0.99885 0.0
O166 O 0.13941 0.92193 0.06606 0.0
O167 O 0.90901 0.96929 0.95899 0.0
C168 C 0.05028 0.15144 0.04597 0.0
O169 O 0.08066 0.05368 0.94731 0.0
C170 C 0.87927 0.97375 0.1296 0.0
O171 O 0.89542 0.11115 0.93665 0.0
C172 C 0.91303 0.85447 0.03563 0.0
O173 O 0.04452 0.86976 0.94181 0.0
C174 C 0.9318 0.08938 0.13534 0.0
O175 O 0.06172 0.04998 0.13494 0.0
O176 O 0.06563 0.99046 0.10451 0.0
C177 C 0.78979 0.07095 0.03156 0.0
O178 O 0.89907 0.94076 0.1384 0.0
O179 O 0.88687 0.9905 0.09522 0.0
C180 C 0.03226 0.88529 0.15306 0.0
O181 O 0.89131 0.08194 0.12969 0.0
O182 O 0.95862 0.07608 0.10822 0.0
C183 C 0.15749 0.91302 0.03158 0.0
O184 O 0.0684 0.89679 0.13783 0.0
O185 O -0.00425 0.89502 0.13597 0.0
C186 C 0.8686 0.97818 0.96428 0.0
O187 O 0.8505 0.97005 0.99993 0.0
C188 C 0.11094 0.02834 0.95663 0.0
O189 O 0.1142 0.01544 0.99485 0.0
C190 C -0.00765 0.27407 0.38388 0.0
C191 C 0.00497 0.31385 0.37501 0.0
C192 C -0.00876 0.24429 0.35273 0.0
C193 C 0.00235 0.25366 0.31172 0.0
C194 C 0.01601 0.29314 0.30317 0.0
C195 C 0.01715 0.32286 0.33427 0.0
C196 C -0.00028 0.22352 0.27701 0.0
C197 C 0.97316 0.19114 0.27744 0.0
C198 C 0.96549 0.16379 0.24118 0.0
C199 C 0.92548 0.14329 0.23885 0.0
C200 C 0.91539 0.11876 0.20485 0.0
C201 C 0.94533 0.11342 0.17228 0.0
H202 H 0.02808 0.17187 0.21055 0.0
C203 C 0.98637 0.13234 0.17531 0.0
C204 C -0.00369 0.15756 0.20931 0.0
H205 H 0.0104 0.12835 0.15119 0.0
H206 H 0.98367 0.26579 0.41505 0.0
H207 H 0.98201 0.21398 0.36116 0.0
H208 H 0.02496 0.30133 0.27202 0.0
H209 H 0.02662 0.35322 0.3261 0.0
H210 H 0.01735 0.2303 0.24892 0.0
H211 H 0.95268 0.18637 0.30422 0.0
H212 H 0.90129 0.14699 0.26305 0.0
H213 H 0.8837 0.10417 0.20401 0.0
C214 C 0.67239 0.01339 0.36272 0.0
C215 C 0.62684 0.01681 0.35575 0.0
C216 C 0.7018 0.01551 0.32994 0.0
C217 C 0.68636 0.02142 0.28925 0.0
C218 C 0.64082 0.02515 0.28234 0.0
C219 C 0.61136 0.02315 0.31524 0.0
C220 C 0.71641 0.02032 0.25315 0.0
C221 C 0.75978 0.028 0.256 0.0
C222 C 0.79115 0.01919 0.22203 0.0
C223 C 0.83437 0.00759 0.23256 0.0
C224 C 0.86358 0.99416 0.20217 0.0
C225 C 0.85047 0.99307 0.16053 0.0
H226 H 0.74603 0.02962 0.17059 0.0
C227 C 0.8082 0.00685 0.14952 0.0
C228 C 0.77868 0.01987 0.18 0.0
H229 H 0.79717 0.00542 0.11767 0.0
H230 H 0.68541 0.00884 0.39363 0.0
H231 H 0.7364 0.01114 0.3367 0.0
H232 H 0.62794 0.02918 0.2513 0.0
H233 H 0.57642 0.0255 0.3088 0.0
H234 H 0.70237 0.0109 0.2237 0.0
H235 H 0.77379 0.03763 0.28537 0.0
H236 H 0.84497 0.00711 0.26461 0.0
H237 H 0.89613 0.98372 0.21132 0.0
C238 C 0.0466 0.68056 0.3883 0.0
C239 C 0.00726 0.66217 0.40005 0.0
C240 C 0.04611 0.71277 0.36046 0.0
C241 C 0.00614 0.72718 0.34339 0.0
C242 C 0.96682 0.70947 0.35604 0.0
C243 C 0.96732 0.67732 0.38387 0.0
C244 C 0.00373 0.76043 0.3125 0.0
C245 C 0.0377 0.77125 0.28858 0.0
C246 C 0.03464 0.80254 0.25567 0.0
C247 C 0.07368 0.81928 0.24099 0.0
C248 C 0.07284 0.84683 0.20842 0.0
C249 C 0.03284 0.85814 0.18941 0.0
H250 H 0.96366 0.80147 0.24636 0.0
C251 C -0.00636 0.84187 0.20439 0.0
C252 C -0.00552 0.8143 0.237 0.0
H253 H 0.96225 0.84969 0.19032 0.0
H254 H 0.07787 0.67021 0.40085 0.0
H255 H 0.07712 0.72634 0.35289 0.0
H256 H 0.93551 0.71999 0.3437 0.0
H257 H 0.9364 0.66366 0.39186 0.0
H258 H 0.97205 0.77546 0.3086 0.0
H259 H 0.06941 0.7563 0.29252 0.0
H260 H 0.10512 0.81071 0.25454 0.0
H261 H 0.1037 0.85876 0.19776 0.0
C262 C 0.32507 0.97215 0.34614 0.0
C263 C 0.34577 0.00834 0.35789 0.0
C264 C 0.29073 0.97244 0.31693 0.0
C265 C 0.27671 0.00902 0.2986 0.0
C266 C 0.29859 0.04481 0.30947 0.0
C267 C 0.33262 0.04452 0.33867 0.0
C268 C 0.23816 0.01225 0.26997 0.0
C269 C 0.21717 0.98081 0.25208 0.0
C270 C 0.17845 0.98704 0.22423 0.0
C271 C 0.17121 0.96029 0.19096 0.0
C272 C 0.13713 0.96772 0.16246 0.0
C273 C 0.10931 0.00176 0.16684 0.0
H274 H 0.15213 0.03996 0.25639 0.0
C275 C 0.11497 0.02699 0.20172 0.0
C276 C 0.14891 0.01968 0.2301 0.0
H277 H 0.09373 0.05316 0.20673 0.0
H278 H 0.3342 0.94385 0.36077 0.0
H279 H 0.27458 0.94421 0.31004 0.0
H280 H 0.28876 0.07344 0.29588 0.0
H281 H 0.34826 0.07282 0.34667 0.0
H282 H 0.22695 0.04276 0.26268 0.0
H283 H 0.22968 0.95015 0.25578 0.0
H284 H 0.19299 0.93449 0.18605 0.0
H285 H 0.13382 0.94766 0.13636 0.0
C286 C 0.01503 0.6828 0.66041 0.0
C287 C 0.00068 0.64325 0.66786 0.0
C288 C 0.01948 0.71085 0.69292 0.0
C289 C 0.00951 0.70003 0.73383 0.0
C290 C -0.0047 0.66047 0.74115 0.0
C291 C -0.00917 0.63252 0.7087 0.0
C292 C 0.01517 0.72808 0.77 0.0
C293 C 0.01904 0.76864 0.76713 0.0
C294 C 0.02673 0.79612 0.80333 0.0
C295 C 0.04611 0.83378 0.79645 0.0
C296 C 0.05494 0.8603 0.82933 0.0
C297 C 0.04414 0.85007 0.87005 0.0
H298 H -0.00136 0.75812 0.85066 0.0
C299 C 0.02358 0.81288 0.87696 0.0
C300 C 0.01493 0.78619 0.84402 0.0
H301 H 0.01449 0.80418 0.9079 0.0
H302 H 0.02278 0.69218 0.62935 0.0
H303 H 0.0316 0.74052 0.68567 0.0
H304 H 0.98779 0.65098 0.77225 0.0
H305 H 0.98051 0.60214 0.71584 0.0
H306 H 0.01651 0.71424 0.80028 0.0
H307 H 0.01799 0.78269 0.73698 0.0
H308 H 0.05516 0.84252 0.76549 0.0
H309 H 0.07056 0.88877 0.82275 0.0
C310 C 0.35635 0.99037 0.74761 0.0
C311 C 0.34481 0.99405 0.70568 0.0
C312 C 0.3237 0.98841 0.7778 0.0
C313 C 0.27879 0.98962 0.76644 0.0
C314 C 0.26767 0.99179 0.7243 0.0
C315 C 0.30018 0.99405 0.69433 0.0
C316 C 0.24226 0.99154 0.79684 0.0
C317 C 0.24713 0.98931 0.83823 0.0
C318 C 0.21012 -0.00294 0.8672 0.0
C319 C 0.21238 0.98118 0.9073 0.0
C320 C 0.17959 0.99041 0.93613 0.0
C321 C 0.14401 0.016 0.92549 0.0
H322 H 0.17184 0.03649 0.82656 0.0
C323 C 0.14147 0.03147 0.88525 0.0
C324 C 0.1742 0.02235 0.85653 0.0
H325 H 0.11473 0.05155 0.87611 0.0
H326 H 0.39056 0.99043 0.75716 0.0
H327 H 0.33414 0.98705 0.80975 0.0
H328 H 0.23353 0.99267 0.71444 0.0
H329 H 0.29032 0.99618 0.66216 0.0
H330 H 0.20942 0.99594 0.78411 0.0
H331 H 0.27888 0.9819 0.8518 0.0
H332 H 0.23984 0.96196 0.91652 0.0
H333 H 0.18267 0.97819 0.96696 0.0
C334 C 0.96396 0.31876 0.68887 0.0
C335 C 0.97323 0.30811 0.64766 0.0
C336 C 0.96165 0.28921 0.71933 0.0
C337 C 0.96807 0.24799 0.7093 0.0
C338 C 0.97851 0.23743 0.66829 0.0
C339 C 0.98105 0.26713 0.63776 0.0
C340 C 0.96505 0.21549 0.74088 0.0
C341 C 0.94178 0.21985 0.77607 0.0
C342 C 0.93763 0.18832 0.8085 0.0
C343 C 0.91995 0.20006 0.84684 0.0
C344 C 0.9135 0.17174 0.87793 0.0
C345 C 0.92442 0.13072 0.87148 0.0
H346 H 0.96201 0.13645 0.773 0.0
C347 C 0.9426 0.11883 0.83335 0.0
C348 C 0.94906 0.14724 0.80214 0.0
H349 H 0.95115 0.08741 0.82727 0.0
H350 H 0.95908 0.35019 0.69778 0.0
H351 H 0.95555 0.29913 0.75073 0.0
H352 H 0.98416 0.20602 0.6597 0.0
H353 H 0.98837 0.25797 0.60631 0.0
H354 H 0.98191 0.1871 0.73413 0.0
H355 H 0.92426 0.24815 0.78182 0.0
H356 H 0.91075 0.23139 0.85278 0.0
H357 H 0.89946 0.18203 0.9069 0.0
C358 C 0.65211 0.98131 0.72933 0.0
C359 C 0.62795 0.01552 0.71598 0.0
C360 C 0.68119 0.98393 0.76292 0.0
C361 C 0.68649 0.02073 0.78443 0.0
C362 C 0.66171 0.05466 0.77199 0.0
C363 C 0.6332 0.05228 0.73786 0.0
C364 C 0.71638 0.02374 0.82088 0.0
C365 C 0.75516 0.0036 0.82265 0.0
C366 C 0.78456 0.00319 0.8596 0.0
C367 C 0.82954 0.99486 0.85421 0.0
C368 C 0.85736 0.98902 0.8883 0.0
C369 C 0.84068 0.99074 0.92868 0.0
H370 H 0.73352 0.01238 0.90545 0.0
C371 C 0.7959 0.00041 0.93417 0.0
C372 C 0.76815 0.00679 0.90003 0.0
H373 H 0.78185 0.00155 0.96481 0.0
H374 H 0.64821 0.95218 0.71425 0.0
H375 H 0.69878 0.95685 0.77257 0.0
H376 H 0.665 0.08329 0.78825 0.0
H377 H 0.61583 0.0795 0.72836 0.0
H378 H 0.70681 0.04394 0.84603 0.0
H379 H 0.76622 0.98675 0.79556 0.0
H380 H 0.84301 0.99175 0.82342 0.0
H381 H 0.89158 0.98137 0.88285 0.0
C382 C 0.26505 0.37057 0.0679 0.0
C383 C 0.28186 0.38706 0.0315 0.0
C384 C 0.2269 0.34754 0.06675 0.0
C385 C 0.2046 0.34069 0.02908 0.0
C386 C 0.22096 0.35786 0.9929 0.0
C387 C 0.25903 0.38095 0.99407 0.0
C388 C 0.1673 0.31238 0.02546 0.0
C389 C 0.14166 0.30198 0.05733 0.0
C390 C 0.1111 0.26737 0.05477 0.0
C391 C 0.10304 0.24523 0.09068 0.0
C392 C 0.08082 0.20852 0.08834 0.0
C393 C 0.06621 0.19338 0.04994 0.0
H394 H 0.09635 0.27131 0.98899 0.0
C395 C 0.07086 0.21732 0.01461 0.0
C396 C 0.09279 0.25409 0.01702 0.0
H397 H 0.05896 0.20701 0.98473 0.0
H398 H 0.28228 0.37418 0.09711 0.0
H399 H 0.21635 0.33379 0.09513 0.0
H400 H 0.20461 0.35284 0.96344 0.0
H401 H 0.27078 0.39375 0.96558 0.0
H402 H 0.16286 0.29786 0.99552 0.0
H403 H 0.14617 0.31635 0.08733 0.0
H404 H 0.11614 0.25513 0.12028 0.0
H405 H 0.07726 0.19106 0.11627 0.0
C406 C 0.40689 0.72853 0.01725 0.0
C407 C 0.42146 0.70976 0.05379 0.0
C408 C 0.38371 0.76535 0.01876 0.0
C409 C 0.37477 0.7844 0.05698 0.0
C410 C 0.39142 0.76666 0.09327 0.0
C411 C 0.41463 0.72987 0.09173 0.0
C412 C 0.34321 0.81906 0.06082 0.0
C413 C 0.33113 0.84323 0.02919 0.0
C414 C 0.29068 0.86908 0.03019 0.0
C415 C 0.26787 0.87583 0.99294 0.0
C416 C 0.22555 0.89276 0.99308 0.0
C417 C 0.20527 0.90368 0.03054 0.0
H418 H 0.28952 0.88071 0.09646 0.0
C419 C 0.22984 0.90076 0.06744 0.0
C420 C 0.27218 0.88367 0.06729 0.0
H421 H 0.21558 0.90961 0.09679 0.0
H422 H 0.411 0.71359 0.98756 0.0
H423 H 0.37065 0.77716 0.99006 0.0
H424 H 0.38498 0.78052 0.12314 0.0
H425 H 0.42597 0.71649 0.12041 0.0
H426 H 0.3265 0.82206 0.09021 0.0
H427 H 0.34789 0.84036 0.99982 0.0
H428 H 0.28161 0.86555 0.96382 0.0
H429 H 0.2079 0.89524 0.96397 0.0
C430 C 0.55286 0.27139 0.05113 0.0
C431 C 0.53836 0.29041 0.01468 0.0
C432 C 0.5746 0.23382 0.04948 0.0
C433 C 0.5821 0.2143 1.01123 0.0
C434 C 0.56566 0.23247 0.97509 0.0
C435 C 0.54392 0.26998 0.97676 0.0
C436 C 0.61174 0.17828 1.00705 0.0
C437 C 0.62299 0.15343 0.03841 0.0
C438 C 0.66098 0.12454 0.03617 0.0
C439 C 0.68323 0.11434 0.07294 0.0
C440 C 0.7238 0.09391 0.07177 0.0
C441 C 0.74289 0.08334 0.03369 0.0
H442 H 0.66076 0.11524 0.96945 0.0
C443 C 0.71857 0.08989 0.99716 0.0
C444 C 0.67789 0.11 0.99837 0.0
H445 H 0.73187 0.08113 0.96737 0.0
H446 H 0.54968 0.28655 0.0808 0.0
H447 H 0.58759 0.22162 0.07804 0.0
H448 H 0.57101 0.21825 0.94519 0.0
H449 H 0.53258 0.28354 0.94816 0.0
H450 H 0.62742 0.17441 0.97727 0.0
H451 H 0.60725 0.15728 0.06819 0.0
H452 H 0.67063 0.12446 0.10257 0.0
H453 H 0.74144 0.08891 0.10054 0.0
C454 C 0.69239 0.63591 1.00139 0.0
C455 C 0.67725 0.61674 0.03704 0.0
C456 C 0.7294 0.66046 1.00327 0.0
C457 C 0.7522 0.6661 0.0409 0.0
C458 C 0.73759 0.64612 0.07622 0.0
C459 C 0.70065 0.62159 0.07433 0.0
C460 C 0.78846 0.6954 0.04568 0.0
C461 C 0.81254 0.70917 0.01412 0.0
C462 C 0.84343 0.74331 0.01912 0.0
C463 C 0.85079 0.7685 0.98524 0.0
C464 C 0.87502 0.80388 0.99007 0.0
C465 C 0.89245 0.81465 0.02895 0.0
H466 H 0.86059 0.73296 0.08364 0.0
C467 C 0.88762 0.78802 0.06217 0.0
C468 C 0.86367 0.75257 0.05726 0.0
H469 H 0.90153 0.79496 0.0923 0.0
H470 H 0.67464 0.63321 0.97235 0.0
H471 H 0.73861 0.6762 0.97557 0.0
H472 H 0.7544 0.65003 0.10562 0.0
H473 H 0.69015 0.60674 0.1022 0.0
H474 H 0.79383 0.70738 0.07663 0.0
H475 H 0.80711 0.69755 0.98304 0.0
H476 H 0.83611 0.76177 0.95537 0.0
H477 H 0.87851 0.82356 0.96374 0.0
loop_
_geom_bond_atom_site_label_1
_geom_bond_atom_site_label_2
_geom_bond_distance
_geom_bond_site_symmetry_2
_ccdc_geom_bond_type
C0 C1 1.384 1_455 S
C0 C2 1.384 . S
C0 H28 0.931 . S
C1 C0 1.384 1_655 S
C1 C4 1.382 . S
C2 C0 1.384 . S
C2 C3 1.381 1_455 S
C2 H29 0.930 . S
C3 C2 1.381 1_655 S
C3 C5 1.381 . S
C3 C6 1.487 . S
C4 C1 1.382 . S
C4 C5 1.387 . S
C4 H30 0.930 . S
C5 C3 1.381 . S
C5 C4 1.387 . S
C5 H31 0.931 . S
C6 C3 1.487 . S
C6 C13 1.399 1_655 S
C6 N44 1.343 . S
C7 C8 1.384 1_655 S
C7 C9 1.384 . S
C7 H32 0.931 . S
C8 C7 1.384 1_455 S
C8 C11 1.382 . S
C9 C7 1.384 . S
C9 C10 1.381 1_655 S
C9 H33 0.930 . S
C10 C9 1.381 1_455 S
C10 C12 1.381 . S
C10 C13 1.487 . S
C11 C8 1.382 . S
C11 C12 1.387 . S
C11 H34 0.930 . S
C12 C10 1.381 . S
C12 C11 1.387 . S
C12 H35 0.931 . S
C13 C6 1.399 1_455 S
C13 C10 1.487 . S
C13 N45 1.343 . S
C14 C15 1.384 1_655 S
C14 C16 1.384 . S
C14 H36 0.931 . S
C15 C14 1.384 1_455 S
C15 C18 1.382 . S
C16 C14 1.384 . S
C16 C17 1.381 1_655 S
C16 H37 0.930 . S
C17 C16 1.381 1_455 S
C17 C19 1.381 . S
C17 C20 1.487 . S
C18 C15 1.382 . S
C18 C19 1.387 . S
C18 H38 0.930 . S
C19 C17 1.381 . S
C19 C18 1.387 . S
C19 H39 0.931 . S
C20 C17 1.487 . S
C20 C27 1.399 1_455 S
C20 N45 1.343 . S
C21 C22 1.384 1_455 S
C21 C23 1.384 . S
C21 H40 0.931 . S
C22 C21 1.384 1_655 S
C22 C25 1.382 . S
C23 C21 1.384 . S
C23 C24 1.381 1_455 S
C23 H41 0.930 . S
C24 C23 1.381 1_655 S
C24 C26 1.381 . S
C24 C27 1.487 . S
C25 C22 1.382 . S
C25 C26 1.387 . S
C25 H42 0.930 . S
C26 C24 1.381 . S
C26 C25 1.387 . S
C26 H43 0.931 . S
C27 C20 1.399 1_655 S
C27 C24 1.487 . S
C27 N44 1.343 . S
H28 C0 0.931 . S
H29 C2 0.930 . S
H30 C4 0.930 . S
H31 C5 0.931 . S
H32 C7 0.931 . S
H33 C9 0.930 . S
H34 C11 0.930 . S
H35 C12 0.931 . S
H36 C14 0.931 . S
H37 C16 0.930 . S
H38 C18 0.930 . S
H39 C19 0.931 . S
H40 C21 0.931 . S
H41 C23 0.930 . S
H42 C25 0.930 . S
H43 C26 0.931 . S
N44 C6 1.343 . S
N44 C27 1.343 . S
N45 C13 1.343 . S
N45 C20 1.343 . S
C46 C47 1.365 1_545 S
C46 C48 1.384 . S
C46 H74 0.931 . S
C47 C46 1.365 1_565 S
C47 C50 1.402 . S
C48 C46 1.384 . S
C48 C49 1.381 1_545 S
C48 H75 0.930 . S
C49 C48 1.381 1_565 S
C49 C51 1.381 . S
C49 C52 1.487 . S
C50 C47 1.402 . S
C50 C51 1.387 . S
C50 H76 0.930 . S
C51 C49 1.381 . S
C51 C50 1.387 . S
C51 H77 0.931 . S
C52 C49 1.487 . S
C52 C59 1.399 1_565 S
C52 N90 1.343 . S
C53 C54 1.384 1_565 S
C53 C55 1.384 . S
C53 H78 0.931 . S
C54 C53 1.384 1_545 S
C54 C57 1.382 . S
C55 C53 1.384 . S
C55 C56 1.381 1_565 S
C55 H79 0.930 . S
C56 C55 1.381 1_545 S
C56 C58 1.381 . S
C56 C59 1.487 . S
C57 C54 1.382 . S
C57 C58 1.387 . S
C57 H80 0.930 . S
C58 C56 1.381 . S
C58 C57 1.387 . S
C58 H81 0.931 . S
C59 C52 1.399 1_545 S
C59 C56 1.487 . S
C59 N91 1.343 . S
C60 C61 1.384 1_565 S
C60 C62 1.384 . S
C60 H82 0.931 . S
C61 C60 1.384 1_545 S
C61 C64 1.382 . S
C62 C60 1.384 . S
C62 C63 1.381 1_565 S
C62 H83 0.930 . S
C63 C62 1.381 1_545 S
C63 C65 1.381 . S
C63 C66 1.487 . S
C64 C61 1.382 . S
C64 C65 1.387 . S
C64 H84 0.930 . S
C65 C63 1.381 . S
C65 C64 1.387 . S
C65 H85 0.931 . S
C66 C63 1.487 . S
C66 C73 1.399 1_545 S
C66 N91 1.343 . S
C67 C68 1.365 1_545 S
C67 C69 1.384 . S
C67 H86 0.931 . S
C68 C67 1.365 1_565 S
C68 C71 1.402 . S
C69 C67 1.384 . S
C69 C70 1.381 1_545 S
C69 H87 0.930 . S
C70 C69 1.381 1_565 S
C70 C72 1.381 . S
C70 C73 1.487 . S
C71 C68 1.402 . S
C71 C72 1.387 . S
C71 H88 0.930 . S
C72 C70 1.381 . S
C72 C71 1.387 . S
C72 H89 0.931 . S
C73 C66 1.399 1_565 S
C73 C70 1.487 . S
C73 N90 1.343 . S
H74 C46 0.931 . S
H75 C48 0.930 . S
H76 C50 0.930 . S
H77 C51 0.931 . S
H78 C53 0.931 . S
H79 C55 0.930 . S
H80 C57 0.930 . S
H81 C58 0.931 . S
H82 C60 0.931 . S
H83 C62 0.930 . S
H84 C64 0.930 . S
H85 C65 0.931 . S
H86 C67 0.931 . S
H87 C69 0.930 . S
H88 C71 0.930 . S
H89 C72 0.931 . S
N90 C52 1.343 . S
N90 C73 1.343 . S
N91 C59 1.343 . S
N91 C66 1.343 . S
C92 C93 1.384 1_556 S
C92 C94 1.384 . S
C92 H120 0.931 . S
C93 C92 1.384 1_554 S
C93 C96 1.382 . S
C94 C92 1.384 . S
C94 C95 1.381 1_556 S
C94 H121 0.930 . S
C95 C94 1.381 1_554 S
C95 C97 1.381 . S
C95 C98 1.487 . S
C96 C93 1.382 . S
C96 C97 1.387 . S
C96 H122 0.930 . S
C97 C95 1.381 . S
C97 C96 1.387 . S
C97 H123 0.931 . S
C98 C95 1.487 . S
C98 C105 1.399 . S
C98 N136 1.343 . S
C99 C100 1.384 . S
C99 C101 1.384 . S
C99 H124 0.931 . S
C100 C99 1.384 . S
C100 C103 1.382 1_554 S
C101 C99 1.384 . S
C101 C102 1.381 . S
C101 H125 0.930 . S
C102 C101 1.381 . S
C102 C104 1.381 1_554 S
C102 C105 1.487 . S
C103 C100 1.382 1_556 S
C103 C104 1.387 . S
C103 H126 0.930 . S
C104 C102 1.381 1_556 S
C104 C103 1.387 . S
C104 H127 0.931 . S
C105 C98 1.399 . S
C105 C102 1.487 . S
C105 N137 1.343 . S
C106 C107 1.384 . S
C106 C108 1.384 . S
C106 H128 0.931 . S
C107 C106 1.384 . S
C107 C110 1.382 1_554 S
C108 C106 1.384 . S
C108 C109 1.381 . S
C108 H129 0.930 . S
C109 C108 1.381 . S
C109 C111 1.381 1_554 S
C109 C112 1.487 . S
C110 C107 1.382 1_556 S
C110 C111 1.387 . S
C110 H130 0.930 . S
C111 C109 1.381 1_556 S
C111 C110 1.387 . S
C111 H131 0.931 . S
C112 C109 1.487 . S
C112 C119 1.399 . S
C112 N137 1.343 . S
C113 C114 1.384 1_556 S
C113 C115 1.384 . S
C113 H132 0.931 . S
C114 C113 1.384 1_554 S
C114 C117 1.382 . S
C115 C113 1.384 . S
C115 C116 1.381 1_556 S
C115 H133 0.930 . S
C116 C115 1.381 1_554 S
C116 C118 1.381 . S
C116 C119 1.487 . S
C117 C114 1.382 . S
C117 C118 1.387 . S
C117 H134 0.930 . S
C118 C116 1.381 . S
C118 C117 1.387 . S
C118 H135 0.931 . S
C119 C112 1.399 . S
C119 C116 1.487 . S
C119 N136 1.343 . S
H120 C92 0.931 . S
H121 C94 0.930 . S
H122 C96 0.930 . S
H123 C97 0.931 . S
H124 C99 0.931 . S
H125 C101 0.930 . S
H126 C103 0.930 . S
H127 C104 0.931 . S
H128 C106 0.931 . S
H129 C108 0.930 . S
H130 C110 0.930 . S
H131 C111 0.931 . S
H132 C113 0.931 . S
H133 C115 0.930 . S
H134 C117 0.930 . S
H135 C118 0.931 . S
N136 C98 1.343 . S
N136 C119 1.343 . S
N137 C105 1.343 . S
N137 C112 1.343 . S
Zn138 O140 1.933 1_556 S
Zn138 O158 1.985 . S
Zn138 O169 1.955 . S
Zn139 O140 1.911 . S
Zn139 O159 1.970 . S
Zn139 O175 1.945 . S
Zn139 O182 1.981 . S
O140 Zn138 1.933 1_554 S
O140 Zn139 1.911 . S
O140 H141 0.841 . S
H141 O140 0.841 . S
C142 O143 1.246 . S
C142 O171 1.276 1_455 S
O143 C142 1.246 . S
Zn144 O146 1.911 . S
Zn144 O161 1.970 . S
Zn144 O178 1.945 . S
Zn144 O185 1.981 . S
Zn145 O146 1.933 1_556 S
Zn145 O160 1.985 . S
Zn145 O167 1.955 . S
O146 Zn144 1.911 . S
O146 Zn145 1.933 1_554 S
O146 H147 0.841 . S
H147 O146 0.841 . S
Zn148 O149 1.933 1_556 S
Zn148 O162 1.985 . S
Zn148 O171 1.955 . S
O149 Zn148 1.933 1_554 S
O149 Zn150 1.911 . S
O149 H151 0.841 . S
Zn150 O149 1.911 . S
Zn150 O163 1.970 . S
Zn150 O179 1.981 . S
Zn150 O181 1.945 . S
H151 O149 0.841 . S
Zn152 O153 1.933 1_556 S
Zn152 O165 1.985 . S
Zn152 O173 1.955 . S
O153 Zn152 1.933 1_554 S
O153 H154 0.841 . S
O153 Zn155 1.911 . S
H154 O153 0.841 . S
Zn155 O153 1.911 . S
Zn155 O166 1.970 . S
Zn155 O176 1.981 . S
Zn155 O184 1.945 . S
C156 O157 1.246 . S
C156 O173 1.276 1_655 S
O157 C156 1.246 . S
O158 Zn138 1.985 . S
O158 C168 1.245 1_556 S
O159 Zn139 1.970 . S
O159 C168 1.263 . S
O160 Zn145 1.985 . S
O160 C172 1.245 1_556 S
O161 Zn144 1.970 . S
O161 C172 1.263 . S
O162 Zn148 1.985 . S
O162 C177 1.245 1_556 S
O163 Zn150 1.970 . S
O163 C177 1.263 . S
C164 O175 1.262 . S
C164 O176 1.245 1_545 S
O165 Zn152 1.985 . S
O165 C183 1.245 1_556 S
O166 Zn155 1.970 . S
O166 C183 1.263 . S
O167 Zn145 1.955 . S
O167 C186 1.276 1_565 S
C168 O158 1.245 1_554 S
C168 O159 1.263 . S
O169 Zn138 1.955 . S
O169 C188 1.276 1_545 S
C170 O178 1.262 1_545 S
C170 O179 1.245 . S
O171 C142 1.276 1_655 S
O171 Zn148 1.955 . S
C172 O160 1.245 1_554 S
C172 O161 1.263 . S
O173 Zn152 1.955 . S
O173 C156 1.276 1_455 S
C174 O181 1.262 1_455 S
C174 O182 1.245 . S
O175 Zn139 1.945 . S
O175 C164 1.262 . S
O176 Zn155 1.981 . S
O176 C164 1.245 1_565 S
C177 O162 1.245 1_554 S
C177 O163 1.263 . S
O178 Zn144 1.945 . S
O178 C170 1.262 1_565 S
O179 Zn150 1.981 . S
O179 C170 1.245 . S
C180 O184 1.262 . S
C180 O185 1.245 1_455 S
O181 Zn150 1.945 . S
O181 C174 1.262 1_655 S
O182 Zn139 1.981 . S
O182 C174 1.245 . S
C183 O165 1.245 1_554 S
C183 O166 1.263 . S
O184 Zn155 1.945 . S
O184 C180 1.262 . S
O185 Zn144 1.981 . S
O185 C180 1.245 1_655 S
C186 O167 1.276 1_545 S
C186 O187 1.246 . S
O187 C186 1.246 . S
C188 O169 1.276 1_565 S
C188 O189 1.246 . S
O189 C188 1.246 . S
C190 C191 1.384 1_655 S
C190 C192 1.383 . S
C190 H206 0.951 . S
C191 C190 1.384 1_455 S
C191 C195 1.384 . S
C192 C190 1.383 . S
C192 C193 1.408 . S
C192 H207 0.951 . S
C193 C192 1.408 . S
C193 C194 1.369 1_655 S
C193 C196 1.480 1_655 S
C194 C193 1.369 1_455 S
C194 C195 1.367 . S
C194 H208 0.951 . S
C195 C191 1.384 . S
C195 C194 1.367 . S
C195 H209 0.950 . S
C196 C193 1.480 1_455 S
C196 C197 1.294 1_455 S
C196 H210 0.954 . S
C197 C196 1.294 1_655 S
C197 C198 1.479 . S
C197 H211 0.950 . S
C198 C197 1.479 . S
C198 C199 1.375 . S
C198 C204 1.404 1_655 S
C199 C198 1.375 . S
C199 C200 1.369 . S
C199 H212 0.950 . S
C200 C199 1.369 . S
C200 C201 1.392 1_655 S
C200 H213 0.951 . S
C201 C200 1.392 1_455 S
C201 C203 1.384 . S
H202 C204 0.949 . S
C203 C201 1.384 . S
C203 C204 1.385 . S
C203 H205 0.950 . S
C204 C198 1.404 1_455 S
C204 H202 0.949 . S
C204 C203 1.385 . S
H205 C203 0.950 . S
H206 C190 0.951 . S
H207 C192 0.951 . S
H208 C194 0.951 . S
H209 C195 0.950 . S
H210 C196 0.954 . S
H211 C197 0.950 . S
H212 C199 0.950 . S
H213 C200 0.951 . S
C214 C215 1.379 1_565 S
C214 C216 1.383 . S
C214 H230 0.951 . S
C215 C214 1.379 1_545 S
C215 C219 1.390 . S
C216 C214 1.383 . S
C216 C217 1.402 1_565 S
C216 H231 0.951 . S
C217 C216 1.402 1_545 S
C217 C218 1.375 . S
C217 C220 1.481 . S
C218 C217 1.375 . S
C218 C219 1.367 . S
C218 H232 0.951 . S
C219 C215 1.390 . S
C219 C218 1.367 . S
C219 H233 0.950 . S
C220 C217 1.481 . S
C220 C221 1.297 1_545 S
C220 H234 0.950 . S
C221 C220 1.297 1_565 S
C221 C222 1.479 . S
C221 H235 0.950 . S
C222 C221 1.479 . S
C222 C223 1.375 . S
C222 C228 1.404 1_565 S
C223 C222 1.375 . S
C223 C224 1.369 . S
C223 H236 0.950 . S
C224 C223 1.369 . S
C224 C225 1.392 1_565 S
C224 H237 0.951 . S
C225 C224 1.392 1_545 S
C225 C227 1.384 . S
H226 C228 0.949 . S
C227 C225 1.384 . S
C227 C228 1.385 . S
C227 H229 0.950 . S
C228 C222 1.404 1_545 S
C228 H226 0.949 . S
C228 C227 1.385 . S
H229 C227 0.950 . S
H230 C214 0.951 . S
H231 C216 0.951 . S
H232 C218 0.951 . S
H233 C219 0.950 . S
H234 C220 0.950 . S
H235 C221 0.950 . S
H236 C223 0.950 . S
H237 C224 0.951 . S
C238 C239 1.386 1_455 S
C238 C240 1.383 . S
C238 H254 0.951 . S
C239 C238 1.386 1_655 S
C239 C243 1.383 . S
C240 C238 1.383 . S
C240 C241 1.402 1_455 S
C240 H255 0.951 . S
C241 C240 1.402 1_655 S
C241 C242 1.375 . S
C241 C244 1.481 . S
C242 C241 1.375 . S
C242 C243 1.367 . S
C242 H256 0.951 . S
C243 C239 1.383 . S
C243 C242 1.367 . S
C243 H257 0.950 . S
C244 C241 1.481 . S
C244 C245 1.297 1_655 S
C244 H258 0.950 . S
C245 C244 1.297 1_455 S
C245 C246 1.479 . S
C245 H259 0.950 . S
C246 C245 1.479 . S
C246 C247 1.375 . S
C246 C252 1.404 1_455 S
C247 C246 1.375 . S
C247 C248 1.369 . S
C247 H260 0.950 . S
C248 C247 1.369 . S
C248 C249 1.392 1_455 S
C248 H261 0.951 . S
C249 C248 1.392 1_655 S
C249 C251 1.384 . S
H250 C252 0.949 . S
C251 C249 1.384 . S
C251 C252 1.385 . S
C251 H253 0.950 . S
C252 C246 1.404 1_655 S
C252 H250 0.949 . S
C252 C251 1.385 . S
H253 C251 0.950 . S
H254 C238 0.951 . S
H255 C240 0.951 . S
H256 C242 0.951 . S
H257 C243 0.950 . S
H258 C244 0.950 . S
H259 C245 0.950 . S
H260 C247 0.950 . S
H261 C248 0.951 . S
C262 C263 1.386 1_565 S
C262 C264 1.383 . S
C262 H278 0.951 . S
C263 C262 1.386 1_545 S
C263 C267 1.383 . S
C264 C262 1.383 . S
C264 C265 1.402 1_565 S
C264 H279 0.951 . S
C265 C264 1.402 1_545 S
C265 C266 1.375 . S
C265 C268 1.481 . S
C266 C265 1.375 . S
C266 C267 1.367 . S
C266 H280 0.951 . S
C267 C263 1.383 . S
C267 C266 1.367 . S
C267 H281 0.950 . S
C268 C265 1.481 . S
C268 C269 1.297 1_545 S
C268 H282 0.950 . S
C269 C268 1.297 1_565 S
C269 C270 1.479 . S
C269 H283 0.950 . S
C270 C269 1.479 . S
C270 C271 1.375 . S
C270 C276 1.404 1_565 S
C271 C270 1.375 . S
C271 C272 1.369 . S
C271 H284 0.950 . S
C272 C271 1.369 . S
C272 C273 1.392 . S
C272 H285 0.951 . S
C273 C272 1.392 . S
C273 C275 1.384 1_565 S
H274 C276 0.949 . S
C275 C273 1.384 1_545 S
C275 C276 1.385 . S
C275 H277 0.950 . S
C276 C270 1.404 1_545 S
C276 H274 0.949 . S
C276 C275 1.385 . S
H277 C275 0.950 . S
H278 C262 0.951 . S
H279 C264 0.951 . S
H280 C266 0.951 . S
H281 C267 0.950 . S
H282 C268 0.950 . S
H283 C269 0.950 . S
H284 C271 0.950 . S
H285 C272 0.951 . S
C286 C287 1.386 . S
C286 C288 1.383 . S
C286 H302 0.951 . S
C287 C286 1.386 . S
C287 C291 1.383 1_655 S
C288 C286 1.383 . S
C288 C289 1.402 . S
C288 H303 0.951 . S
C289 C288 1.402 . S
C289 C290 1.375 1_655 S
C289 C292 1.481 . S
C290 C289 1.375 1_455 S
C290 C291 1.367 . S
C290 H304 0.951 . S
C291 C287 1.383 1_455 S
C291 C290 1.367 . S
C291 H305 0.950 . S
C292 C289 1.481 . S
C292 C293 1.297 . S
C292 H306 0.949 . S
C293 C292 1.297 . S
C293 C294 1.479 . S
C293 H307 0.950 . S
C294 C293 1.479 . S
C294 C295 1.375 . S
C294 C300 1.404 . S
C295 C294 1.375 . S
C295 C296 1.369 . S
C295 H308 0.950 . S
C296 C295 1.369 . S
C296 C297 1.392 . S
C296 H309 0.951 . S
C297 C296 1.392 . S
C297 C299 1.384 . S
H298 C300 0.949 . S
C299 C297 1.384 . S
C299 C300 1.385 . S
C299 H301 0.950 . S
C300 C294 1.404 . S
C300 H298 0.949 . S
C300 C299 1.385 . S
H301 C299 0.950 . S
H302 C286 0.951 . S
H303 C288 0.951 . S
H304 C290 0.951 . S
H305 C291 0.950 . S
H306 C292 0.949 . S
H307 C293 0.950 . S
H308 C295 0.950 . S
H309 C296 0.951 . S
C310 C311 1.386 1_565 S
C310 C312 1.383 . S
C310 H326 0.951 . S
C311 C310 1.386 1_545 S
C311 C315 1.383 . S
C312 C310 1.383 . S
C312 C313 1.402 1_565 S
C312 H327 0.951 . S
C313 C312 1.402 1_545 S
C313 C314 1.375 . S
C313 C316 1.481 . S
C314 C313 1.375 . S
C314 C315 1.367 . S
C314 H328 0.951 . S
C315 C311 1.383 . S
C315 C314 1.367 . S
C315 H329 0.950 . S
C316 C313 1.481 . S
C316 C317 1.297 . S
C316 H330 0.950 . S
C317 C316 1.297 . S
C317 C318 1.479 . S
C317 H331 0.950 1_545 S
C318 C317 1.479 . S
C318 C319 1.375 1_545 S
C318 C324 1.404 . S
C319 C318 1.375 1_565 S
C319 C320 1.369 . S
C319 H332 0.950 . S
C320 C319 1.369 . S
C320 C321 1.392 . S
C320 H333 0.951 . S
C321 C320 1.392 . S
C321 C323 1.384 1_565 S
H322 C324 0.949 . S
C323 C321 1.384 1_545 S
C323 C324 1.385 . S
C323 H325 0.950 . S
C324 C318 1.404 . S
C324 H322 0.949 . S
C324 C323 1.385 . S
H325 C323 0.950 . S
H326 C310 0.951 . S
H327 C312 0.951 . S
H328 C314 0.951 . S
H329 C315 0.950 . S
H330 C316 0.950 . S
H331 C317 0.950 1_565 S
H332 C319 0.950 . S
H333 C320 0.951 . S
C334 C335 1.386 1_655 S
C334 C336 1.383 . S
C334 H350 0.951 . S
C335 C334 1.386 1_455 S
C335 C339 1.383 . S
C336 C334 1.383 . S
C336 C337 1.402 1_655 S
C336 H351 0.951 . S
C337 C336 1.402 1_455 S
C337 C338 1.375 . S
C337 C340 1.481 . S
C338 C337 1.375 . S
C338 C339 1.367 . S
C338 H352 0.951 . S
C339 C335 1.383 . S
C339 C338 1.367 . S
C339 H353 0.950 . S
C340 C337 1.481 . S
C340 C341 1.297 1_455 S
C340 H354 0.950 . S
C341 C340 1.297 1_655 S
C341 C342 1.479 . S
C341 H355 0.950 . S
C342 C341 1.479 . S
C342 C343 1.375 . S
C342 C348 1.404 1_655 S
C343 C342 1.375 . S
C343 C344 1.369 . S
C343 H356 0.950 . S
C344 C343 1.369 . S
C344 C345 1.392 1_655 S
C344 H357 0.951 . S
C345 C344 1.392 1_455 S
C345 C347 1.384 . S
H346 C348 0.949 . S
C347 C345 1.384 . S
C347 C348 1.385 . S
C347 H349 0.950 . S
C348 C342 1.404 1_455 S
C348 H346 0.949 . S
C348 C347 1.385 . S
H349 C347 0.950 . S
H350 C334 0.951 . S
H351 C336 0.951 . S
H352 C338 0.951 . S
H353 C339 0.950 . S
H354 C340 0.950 . S
H355 C341 0.950 . S
H356 C343 0.950 . S
H357 C344 0.951 . S
C358 C359 1.386 1_565 S
C358 C360 1.383 . S
C358 H374 0.951 . S
C359 C358 1.386 1_545 S
C359 C363 1.383 . S
C360 C358 1.383 . S
C360 C361 1.402 1_565 S
C360 H375 0.951 . S
C361 C360 1.402 1_545 S
C361 C362 1.375 . S
C361 C364 1.481 . S
C362 C361 1.375 . S
C362 C363 1.367 . S
C362 H376 0.951 . S
C363 C359 1.383 . S
C363 C362 1.367 . S
C363 H377 0.950 . S
C364 C361 1.481 . S
C364 C365 1.297 1_545 S
C364 H378 0.950 . S
C365 C364 1.297 1_565 S
C365 C366 1.483 . S
C365 H379 0.950 . S
C366 C365 1.483 . S
C366 C367 1.391 . S
C366 C372 1.386 1_565 S
C367 C366 1.391 . S
C367 C368 1.369 . S
C367 H380 0.950 . S
C368 C367 1.369 . S
C368 C369 1.392 1_565 S
C368 H381 0.951 . S
C369 C368 1.392 1_545 S
C369 C371 1.384 . S
H370 C372 0.949 . S
C371 C369 1.384 . S
C371 C372 1.385 . S
C371 H373 0.950 . S
C372 C366 1.386 1_545 S
C372 H370 0.949 . S
C372 C371 1.385 . S
H373 C371 0.950 . S
H374 C358 0.951 . S
H375 C360 0.951 . S
H376 C362 0.951 . S
H377 C363 0.950 . S
H378 C364 0.950 . S
H379 C365 0.950 . S
H380 C367 0.950 . S
H381 C368 0.951 . S
C382 C383 1.386 . S
C382 C384 1.383 . S
C382 H398 0.951 . S
C383 C382 1.386 . S
C383 C387 1.383 1_554 S
C384 C382 1.383 . S
C384 C385 1.402 . S
C384 H399 0.951 . S
C385 C384 1.402 . S
C385 C386 1.375 1_554 S
C385 C388 1.483 . S
C386 C385 1.375 1_556 S
C386 C387 1.367 . S
C386 H400 0.951 . S
C387 C383 1.383 1_556 S
C387 C386 1.367 . S
C387 H401 0.950 . S
C388 C385 1.483 . S
C388 C389 1.306 . S
C388 H402 0.938 1_554 S
C389 C388 1.306 . S
C389 C390 1.479 . S
C389 H403 0.950 . S
C390 C389 1.479 . S
C390 C391 1.375 . S
C390 C396 1.404 1_554 S
C391 C390 1.375 . S
C391 C392 1.369 . S
C391 H404 0.950 . S
C392 C391 1.369 . S
C392 C393 1.392 . S
C392 H405 0.951 . S
C393 C392 1.392 . S
C393 C395 1.384 1_554 S
H394 C396 0.949 . S
C395 C393 1.384 1_556 S
C395 C396 1.385 . S
C395 H397 0.950 . S
C396 C390 1.404 1_556 S
C396 H394 0.949 . S
C396 C395 1.385 . S
H397 C395 0.950 . S
H398 C382 0.951 . S
H399 C384 0.951 . S
H400 C386 0.951 . S
H401 C387 0.950 . S
H402 C388 0.938 1_556 S
H403 C389 0.950 . S
H404 C391 0.950 . S
H405 C392 0.951 . S
C406 C407 1.386 . S
C406 C408 1.383 . S
C406 H422 0.951 1_554 S
C407 C406 1.386 . S
C407 C411 1.383 . S
C408 C406 1.383 . S
C408 C409 1.402 . S
C408 H423 0.951 . S
C409 C408 1.402 . S
C409 C410 1.375 . S
C409 C412 1.481 . S
C410 C409 1.375 . S
C410 C411 1.367 . S
C410 H424 0.951 . S
C411 C407 1.383 . S
C411 C410 1.367 . S
C411 H425 0.950 . S
C412 C409 1.481 . S
C412 C413 1.297 . S
C412 H426 0.950 . S
C413 C412 1.297 . S
C413 C414 1.479 . S
C413 H427 0.950 . S
C414 C413 1.479 . S
C414 C415 1.375 . S
C414 C420 1.404 . S
C415 C414 1.375 . S
C415 C416 1.369 . S
C415 H428 0.950 . S
C416 C415 1.369 . S
C416 C417 1.392 . S
C416 H429 0.951 1_554 S
C417 C416 1.392 . S
C417 C419 1.384 . S
H418 C420 0.949 . S
C419 C417 1.384 . S
C419 C420 1.385 . S
C419 H421 0.950 . S
C420 C414 1.404 . S
C420 H418 0.949 . S
C420 C419 1.385 . S
H421 C419 0.950 . S
H422 C406 0.951 1_556 S
H423 C408 0.951 . S
H424 C410 0.951 . S
H425 C411 0.950 . S
H426 C412 0.950 . S
H427 C413 0.950 . S
H428 C415 0.950 . S
H429 C416 0.951 1_556 S
C430 C431 1.386 . S
C430 C432 1.383 . S
C430 H446 0.951 . S
C431 C430 1.386 . S
C431 C435 1.383 1_554 S
C432 C430 1.383 . S
C432 C433 1.402 . S
C432 H447 0.951 . S
C433 C432 1.402 . S
C433 C434 1.375 1_554 S
C433 C436 1.481 . S
C434 C433 1.375 1_556 S
C434 C435 1.367 . S
C434 H448 0.951 . S
C435 C431 1.383 1_556 S
C435 C434 1.367 . S
C435 H449 0.950 . S
C436 C433 1.481 . S
C436 C437 1.297 . S
C436 H450 0.950 1_554 S
C437 C436 1.297 . S
C437 C438 1.479 . S
C437 H451 0.950 . S
C438 C437 1.479 . S
C438 C439 1.375 . S
C438 C444 1.404 1_554 S
C439 C438 1.375 . S
C439 C440 1.369 . S
C439 H452 0.950 . S
C440 C439 1.369 . S
C440 C441 1.392 . S
C440 H453 0.951 . S
C441 C440 1.392 . S
C441 C443 1.384 1_554 S
H442 C444 0.949 . S
C443 C441 1.384 1_556 S
C443 C444 1.385 . S
C443 H445 0.950 . S
C444 C438 1.404 1_556 S
C444 H442 0.949 . S
C444 C443 1.385 . S
H445 C443 0.950 . S
H446 C430 0.951 . S
H447 C432 0.951 . S
H448 C434 0.951 . S
H449 C435 0.950 . S
H450 C436 0.950 1_556 S
H451 C437 0.950 . S
H452 C439 0.950 . S
H453 C440 0.951 . S
C454 C455 1.386 1_556 S
C454 C456 1.383 . S
C454 H470 0.951 . S
C455 C454 1.386 1_554 S
C455 C459 1.383 . S
C456 C454 1.383 . S
C456 C457 1.402 1_556 S
C456 H471 0.951 . S
C457 C456 1.402 1_554 S
C457 C458 1.375 . S
C457 C460 1.481 . S
C458 C457 1.375 . S
C458 C459 1.367 . S
C458 H472 0.951 . S
C459 C455 1.383 . S
C459 C458 1.367 . S
C459 H473 0.950 . S
C460 C457 1.481 . S
C460 C461 1.297 . S
C460 H474 0.950 . S
C461 C460 1.297 . S
C461 C462 1.479 . S
C461 H475 0.950 1_554 S
C462 C461 1.479 . S
C462 C463 1.375 1_554 S
C462 C468 1.404 . S
C463 C462 1.375 1_556 S
C463 C464 1.369 . S
C463 H476 0.950 . S
C464 C463 1.369 . S
C464 C465 1.392 1_556 S
C464 H477 0.951 . S
C465 C464 1.392 1_554 S
C465 C467 1.384 . S
H466 C468 0.949 . S
C467 C465 1.384 . S
C467 C468 1.385 . S
C467 H469 0.950 . S
C468 C462 1.404 . S
C468 H466 0.949 . S
C468 C467 1.385 . S
H469 C467 0.950 . S
H470 C454 0.951 . S
H471 C456 0.951 . S
H472 C458 0.951 . S
H473 C459 0.950 . S
H474 C460 0.950 . S
H475 C461 0.950 1_556 S
H476 C463 0.950 . S
H477 C464 0.951 . S
C201 C174 1.868 . S
C191 C15 1.992 . S
C225 C170 1.302 . S
C215 C68 1.455 1_545 S
C249 C180 1.865 1_655 S
C239 C8 1.996 1_655 S
C273 C164 1.423 1_565 S
C263 C61 1.441 . S
C287 C1 2.122 . S
C297 C156 2.042 . S
C321 C188 1.408 . S
C311 C54 1.573 . S
C335 C22 2.135 1_455 S
C345 C142 1.997 . S
C359 C47 1.571 1_545 S
C369 C186 1.493 . S
C383 C93 0.965 . S
C393 C168 1.006 . S
C407 C114 0.973 . S
C417 C183 0.916 . S
C441 C177 1.016 . S
C431 C100 0.973 . S
C465 C172 0.886 . S
C455 C107 0.981 . S
