# Generated by pormake.
# Topology pyr, (3,6)-cn, num edge types: 1
# Building blocks:
#     Node 0, Type 0, BuildingBlock: KAKCAD_clean_linker_0, # of connection points: 3
#     Node 1, Type 0, BuildingBlock: KAKCAD_clean_linker_0, # of connection points: 3
#     Node 2, Type 0, BuildingBlock: KAKCAD_clean_linker_0, # of connection points: 3
#     Node 3, Type 0, BuildingBlock: KAKCAD_clean_linker_0, # of connection points: 3
#     Node 4, Type 0, BuildingBlock: KAKCAD_clean_linker_0, # of connection points: 3
#     Node 5, Type 0, BuildingBlock: KAKCAD_clean_linker_0, # of connection points: 3
#     Node 6, Type 0, BuildingBlock: KAKCAD_clean_linker_0, # of connection points: 3
#     Node 7, Type 0, BuildingBlock: KAKCAD_clean_linker_0, # of connection points: 3
#     Node 8, Type 1, BuildingBlock: BETDAH_clean_sbu_0, # of connection points: 6
#     Node 9, Type 1, BuildingBlock: BETDAH_clean_sbu_0, # of connection points: 6
#     Node 10, Type 1, BuildingBlock: BETDAH_clean_sbu_0, # of connection points: 6
#     Node 11, Type 1, BuildingBlock: BETDAH_clean_sbu_0, # of connection points: 6
#     Edge 12, Type (0, 1), BuildingBlock: AJUNOK_clean_linker_0, # of connection points: 2
#     Edge 13, Type (0, 1), BuildingBlock: AJUNOK_clean_linker_0, # of connection points: 2
#     Edge 14, Type (0, 1), BuildingBlock: AJUNOK_clean_linker_0, # of connection points: 2
#     Edge 15, Type (0, 1), BuildingBlock: AJUNOK_clean_linker_0, # of connection points: 2
#     Edge 16, Type (0, 1), BuildingBlock: AJUNOK_clean_linker_0, # of connection points: 2
#     Edge 17, Type (0, 1), BuildingBlock: AJUNOK_clean_linker_0, # of connection points: 2
#     Edge 18, Type (0, 1), BuildingBlock: AJUNOK_clean_linker_0, # of connection points: 2
#     Edge 19, Type (0, 1), BuildingBlock: AJUNOK_clean_linker_0, # of connection points: 2
#     Edge 20, Type (0, 1), BuildingBlock: AJUNOK_clean_linker_0, # of connection points: 2
#     Edge 21, Type (0, 1), BuildingBlock: AJUNOK_clean_linker_0, # of connection points: 2
#     Edge 22, Type (0, 1), BuildingBlock: AJUNOK_clean_linker_0, # of connection points: 2
#     Edge 23, Type (0, 1), BuildingBlock: AJUNOK_clean_linker_0, # of connection points: 2
#     Edge 24, Type (0, 1), BuildingBlock: AJUNOK_clean_linker_0, # of connection points: 2
#     Edge 25, Type (0, 1), BuildingBlock: AJUNOK_clean_linker_0, # of connection points: 2
#     Edge 26, Type (0, 1), BuildingBlock: AJUNOK_clean_linker_0, # of connection points: 2
#     Edge 27, Type (0, 1), BuildingBlock: AJUNOK_clean_linker_0, # of connection points: 2
#     Edge 28, Type (0, 1), BuildingBlock: AJUNOK_clean_linker_0, # of connection points: 2
#     Edge 29, Type (0, 1), BuildingBlock: AJUNOK_clean_linker_0, # of connection points: 2
#     Edge 30, Type (0, 1), BuildingBlock: AJUNOK_clean_linker_0, # of connection points: 2
#     Edge 31, Type (0, 1), BuildingBlock: AJUNOK_clean_linker_0, # of connection points: 2
#     Edge 32, Type (0, 1), BuildingBlock: AJUNOK_clean_linker_0, # of connection points: 2
#     Edge 33, Type (0, 1), BuildingBlock: AJUNOK_clean_linker_0, # of connection points: 2
#     Edge 34, Type (0, 1), BuildingBlock: AJUNOK_clean_linker_0, # of connection points: 2
#     Edge 35, Type (0, 1), BuildingBlock: AJUNOK_clean_linker_0, # of connection points: 2
# Relax obj value: 0.130
# Max RMSD: 0.133
# Mean RMSD: 0.064
data_MOF--net-pyr--node1-BETDAH_clean_sbu_0--node2-KAKCAD_clean_linker_0--edge1-AJUNOK_clean_linker_0
_symmetry_space_group_name_H-M    P1
_symmetry_Int_Tables_number       1
_symmetry_cell_setting            triclinic
loop_
_symmetry_equiv_pos_as_xyz
'x, y, z'
_cell_length_a     36.585696
_cell_length_b     38.573107
_cell_length_c     34.554283
_cell_angle_alpha  90.369648
_cell_angle_beta   88.54796
_cell_angle_gamma 102.83164
loop_
_atom_site_label
_atom_site_type_symbol
_atom_site_fract_x
_atom_site_fract_y
_atom_site_fract_z
_atom_type_partial_charge
C0 C 0.26696 0.28724 0.34914 0.0
C1 C 0.28035 0.26945 0.37904 0.0
C2 C 0.29035 0.30151 0.31829 0.0
C3 C 0.32812 0.29888 0.31659 0.0
C4 C 0.3423 0.2832 0.34795 0.0
C5 C 0.31851 0.26843 0.3789 0.0
C6 C 0.35008 0.30784 0.27972 0.0
C7 C 0.34259 0.3345 0.25569 0.0
C8 C 0.35169 0.3351 0.21608 0.0
C9 C 0.37243 0.31136 0.20106 0.0
C10 C 0.38362 0.28677 0.22556 0.0
C11 C 0.37204 0.28504 0.26476 0.0
C12 C 0.40281 0.2595 0.20971 0.0
C13 C 0.39011 0.24085 0.17582 0.0
C14 C 0.43194 0.24995 0.23002 0.0
C15 C 0.44729 0.22162 0.2173 0.0
C16 C 0.43346 0.20215 0.18432 0.0
C17 C 0.33173 0.35485 0.19056 0.0
C18 C 0.30303 0.33564 0.16758 0.0
C19 C 0.33472 0.39145 0.19604 0.0
C20 C 0.30781 0.40803 0.18111 0.0
C21 C 0.2771 0.38809 0.16117 0.0
C22 C 0.27588 0.35211 0.15306 0.0
C23 C 0.40531 0.21248 0.16326 0.0
H24 H 0.23754 0.28789 0.34808 0.0
H25 H 0.27774 0.31228 0.29447 0.0
H26 H 0.37131 0.28106 0.34784 0.0
H27 H 0.32953 0.25504 0.40187 0.0
H28 H 0.32583 0.35243 0.26683 0.0
H29 H 0.37721 0.26367 0.28254 0.0
H30 H 0.3788 0.31138 0.17025 0.0
H31 H 0.36745 0.24729 0.15977 0.0
H32 H 0.44242 0.26404 0.25611 0.0
H33 H 0.46917 0.21428 0.23383 0.0
H34 H 0.29976 0.30723 0.16364 0.0
H35 H 0.35645 0.40664 0.21399 0.0
H36 H 0.3947 0.19826 0.13727 0.0
H37 H 0.25249 0.3361 0.13785 0.0
H38 H 0.30984 0.436 0.18702 0.0
C39 C 0.29704 0.85599 0.77717 0.0
C40 C 0.33584 0.87009 0.77448 0.0
C41 C 0.27664 0.84603 0.74383 0.0
C42 C 0.29475 0.84999 0.70732 0.0
C43 C 0.33391 0.86214 0.70485 0.0
C44 C 0.35428 0.87226 0.7382 0.0
C45 C 0.27268 0.84507 0.67173 0.0
C46 C 0.24198 0.86095 0.66852 0.0
C47 C 0.2236 0.86027 0.63328 0.0
C48 C 0.23509 0.84215 0.6014 0.0
C49 C 0.26577 0.82637 0.60447 0.0
C50 C 0.28434 0.82774 0.63963 0.0
C51 C 0.27998 0.80891 0.57129 0.0
C52 C 0.25963 0.77588 0.55847 0.0
C53 C 0.31754 0.82084 0.55938 0.0
C54 C 0.33619 0.79781 0.54015 0.0
C55 C 0.31741 0.76256 0.53279 0.0
C56 C 0.19595 0.88238 0.6284 0.0
C57 C 0.20416 0.91774 0.64153 0.0
C58 C 0.16305 0.86958 0.6079 0.0
C59 C 0.13957 0.8923 0.59928 0.0
C60 C 0.14875 0.92806 0.61095 0.0
C61 C 0.18081 0.94041 0.63281 0.0
C62 C 0.2783 0.75278 0.53901 0.0
H63 H 0.28211 0.85467 0.80479 0.0
H64 H 0.2465 0.83653 0.74644 0.0
H65 H 0.34852 0.86578 0.677 0.0
H66 H 0.38417 0.88328 0.73553 0.0
H67 H 0.23355 0.87544 0.69292 0.0
H68 H 0.30817 0.81548 0.64188 0.0
H69 H 0.22171 0.84205 0.57375 0.0
H70 H 0.23053 0.76638 0.56736 0.0
H71 H 0.33353 0.84644 0.56892 0.0
H72 H 0.3663 0.80623 0.53607 0.0
H73 H 0.22974 0.9285 0.65676 0.0
H74 H 0.15606 0.84236 0.59772 0.0
H75 H 0.26314 0.72586 0.53321 0.0
H76 H 0.18899 0.96806 0.64128 0.0
H77 H 0.11486 0.88227 0.58237 0.0
C78 C 0.80132 0.45311 0.91128 0.0
C79 C 0.8048 0.45017 0.95157 0.0
C80 C 0.76821 0.43608 0.89276 0.0
C81 C 0.73745 0.41586 0.91406 0.0
C82 C 0.74069 0.41415 0.95458 0.0
C83 C 0.77377 0.43088 0.97295 0.0
C84 C 0.70242 0.39591 0.89458 0.0
C85 C 0.68731 0.41037 0.86279 0.0
C86 C 0.65314 0.39271 0.84571 0.0
C87 C 0.63509 0.35883 0.86127 0.0
C88 C 0.65057 0.34289 0.89199 0.0
C89 C 0.6839 0.36214 0.90834 0.0
C90 C 0.63225 0.30646 0.90805 0.0
C91 C 0.59299 0.29505 0.91234 0.0
C92 C 0.65423 0.28316 0.92103 0.0
C93 C 0.63779 0.25055 0.93896 0.0
C94 C 0.59868 0.23977 0.94458 0.0
C95 C 0.63675 0.40971 0.81203 0.0
C96 C 0.6482 0.44652 0.8036 0.0
C97 C 0.60938 0.38964 0.78757 0.0
C98 C 0.5944 0.40545 0.75672 0.0
C99 C 0.60708 0.44186 0.74753 0.0
C100 C 0.63424 0.46198 0.7719 0.0
C101 C 0.57653 0.26228 0.93014 0.0
H102 H 0.82466 0.46776 0.89389 0.0
H103 H 0.76718 0.43801 0.86158 0.0
H104 H 0.7175 0.39984 0.97237 0.0
H105 H 0.77503 0.42875 1.0041 0.0
H106 H 0.7025 0.43574 0.8518 0.0
H107 H 0.69559 0.35069 0.93232 0.0
H108 H 0.60896 0.34442 0.84964 0.0
H109 H 0.57486 0.31186 0.90291 0.0
H110 H 0.68447 0.29019 0.91759 0.0
H111 H 0.65595 0.23411 0.9493 0.0
H112 H 0.6679 0.46418 0.8215 0.0
H113 H 0.59922 0.3614 0.79167 0.0
H114 H 0.54626 0.25466 0.93269 0.0
H115 H 0.64514 0.49001 0.76649 0.0
H116 H 0.57231 0.38876 0.7405 0.0
C117 C 0.88233 0.63969 0.24388 0.0
C118 C 0.92105 0.64151 0.23842 0.0
C119 C 0.86846 0.65685 0.27522 0.0
C120 C 0.89271 0.67702 0.30225 0.0
C121 C 0.9316 0.68025 0.2959 0.0
C122 C 0.94552 0.66276 0.26455 0.0
C123 C 0.87702 0.69329 0.33727 0.0
C124 C 0.8446 0.67385 0.35713 0.0
C125 C 0.82863 0.68809 0.38953 0.0
C126 C 0.84568 0.72274 0.40173 0.0
C127 C 0.87797 0.74325 0.38294 0.0
C128 C 0.89371 0.72792 0.35088 0.0
C129 C 0.89438 0.78051 0.39759 0.0
C130 C 0.87069 0.80181 0.41305 0.0
C131 C 0.93344 0.79459 0.39853 0.0
C132 C 0.94808 0.828 0.41571 0.0
C133 C 0.92415 0.84813 0.43283 0.0
C134 C 0.79411 0.66724 0.41085 0.0
C135 C 0.76509 0.64398 0.39131 0.0
C136 C 0.78922 0.67136 0.45113 0.0
C137 C 0.75639 0.65381 0.47088 0.0
C138 C 0.7274 0.63058 0.45145 0.0
C139 C 0.73234 0.62595 0.41128 0.0
C140 C 0.88529 0.83473 0.43063 0.0
H141 H 0.86247 0.62486 0.22382 0.0
H142 H 0.83845 0.65432 0.27821 0.0
H143 H 0.95132 0.69541 0.31589 0.0
H144 H 0.97549 0.66505 0.26147 0.0
H145 H 0.8323 0.64702 0.34788 0.0
H146 H 0.91816 0.74333 0.33572 0.0
H147 H 0.83356 0.73399 0.42633 0.0
H148 H 0.84052 0.79295 0.41193 0.0
H149 H 0.9528 0.7793 0.38717 0.0
H150 H 0.9782 0.83758 0.41676 0.0
H151 H 0.7672 0.6402 0.36034 0.0
H152 H 0.81081 0.68833 0.46776 0.0
H153 H 0.866 0.84979 0.44272 0.0
H154 H 0.71081 0.60836 0.39513 0.0
H155 H 0.75355 0.65917 0.50145 0.0
C156 C 0.7356 0.7827 0.72576 0.0
C157 C 0.74828 0.81891 0.71695 0.0
C158 C 0.70959 0.77216 0.75614 0.0
C159 C 0.6963 0.79778 0.77829 0.0
C160 C 0.70526 0.83336 0.76581 0.0
C161 C 0.73094 0.84379 0.73537 0.0
C162 C 0.68113 0.78962 0.81833 0.0
C163 C 0.69875 0.76955 0.84241 0.0
C164 C 0.69295 0.76922 0.8827 0.0
C165 C 0.66903 0.78963 0.89908 0.0
C166 C 0.65046 0.80955 0.87531 0.0
C167 C 0.65554 0.80795 0.83487 0.0
C168 C 0.62978 0.83547 0.89246 0.0
C169 C 0.60924 0.82836 0.92762 0.0
C170 C 0.63237 0.86877 0.87463 0.0
C171 C 0.61542 0.8943 0.89165 0.0
C172 C 0.59616 0.8875 0.92723 0.0
C173 C 0.71649 0.75146 0.90686 0.0
C174 C 0.72354 0.7185 0.89519 0.0
C175 C 0.73636 0.76939 0.93807 0.0
C176 C 0.7646 0.75593 0.95521 0.0
C177 C 0.77377 0.72451 0.94118 0.0
C178 C 0.75194 0.70528 0.91201 0.0
C179 C 0.59283 0.85428 0.945 0.0
H180 H 0.74805 0.76295 0.71135 0.0
H181 H 0.70246 0.7444 0.76444 0.0
H182 H 0.69579 0.85395 0.78207 0.0
H183 H 0.74018 0.87192 0.72913 0.0
H184 H 0.71996 0.75677 0.83017 0.0
H185 H 0.64136 0.82288 0.81615 0.0
H186 H 0.6663 0.79118 0.93028 0.0
H187 H 0.60627 0.803 0.942 0.0
H188 H 0.64878 0.87587 0.84821 0.0
H189 H 0.61883 0.92002 0.87788 0.0
H190 H 0.70833 0.7038 0.87157 0.0
H191 H 0.73172 0.79487 0.94772 0.0
H192 H 0.57813 0.84868 0.97265 0.0
H193 H 0.75811 0.68091 0.90067 0.0
H194 H 0.78018 0.7708 0.97848 0.0
C195 C 0.70545 0.24506 0.36056 0.0
C196 C 0.72186 0.24278 0.32382 0.0
C197 C 0.72785 0.25728 0.39199 0.0
C198 C 0.76709 0.26711 0.38724 0.0
C199 C 0.78332 0.26659 0.35008 0.0
C200 C 0.76083 0.25463 0.31853 0.0
C201 C 0.79065 0.27309 0.42181 0.0
C202 C 0.81812 0.25337 0.42671 0.0
C203 C 0.8342 0.25191 0.46298 0.0
C204 C 0.82334 0.27119 0.49421 0.0
C205 C 0.79682 0.29169 0.48913 0.0
C206 C 0.78109 0.2931 0.45282 0.0
C207 C 0.7791 0.30578 0.52241 0.0
C208 C 0.75187 0.28215 0.54443 0.0
C209 C 0.78094 0.34235 0.52471 0.0
C210 C 0.75297 0.35479 0.54485 0.0
C211 C 0.72256 0.33065 0.56218 0.0
C212 C 0.8574 0.22593 0.47015 0.0
C213 C 0.84546 0.19059 0.45751 0.0
C214 C 0.889 0.23513 0.4934 0.0
C215 C 0.90692 0.209 0.50581 0.0
C216 C 0.89331 0.17334 0.49535 0.0
C217 C 0.86337 0.16448 0.46997 0.0
C218 C 0.72352 0.29453 0.56413 0.0
H219 H 0.67546 0.23586 0.36524 0.0
H220 H 0.7146 0.25687 0.42043 0.0
H221 H 0.81348 0.274 0.34575 0.0
H222 H 0.7741 0.25258 0.29048 0.0
H223 H 0.82497 0.23705 0.40314 0.0
H224 H 0.75905 0.30755 0.44956 0.0
H225 H 0.83357 0.26848 0.52296 0.0
H226 H 0.74988 0.25374 0.54254 0.0
H227 H 0.80156 0.36081 0.50749 0.0
H228 H 0.75266 0.38272 0.54248 0.0
H229 H 0.82088 0.18267 0.43995 0.0
H230 H 0.89896 0.26226 0.50311 0.0
H231 H 0.70027 0.27549 0.57719 0.0
H232 H 0.85246 0.1371 0.46162 0.0
H233 H 0.93054 0.21643 0.52478 0.0
C234 C 0.23104 0.64922 0.20438 0.0
C235 C 0.23075 0.64259 0.16424 0.0
C236 C 0.26451 0.66526 0.22279 0.0
C237 C 0.29837 0.67582 0.20135 0.0
C238 C 0.29805 0.66877 0.16127 0.0
C239 C 0.2648 0.65202 0.14306 0.0
C240 C 0.33345 0.69591 0.22001 0.0
C241 C 0.34764 0.68287 0.25324 0.0
C242 C 0.38134 0.70146 0.27007 0.0
C243 C 0.40004 0.73444 0.25337 0.0
C244 C 0.38601 0.74834 0.22033 0.0
C245 C 0.35289 0.72847 0.20402 0.0
C246 C 0.40537 0.78342 0.20219 0.0
C247 C 0.41953 0.81379 0.2248 0.0
C248 C 0.40813 0.78725 0.16157 0.0
C249 C 0.4242 0.82013 0.14417 0.0
C250 C 0.43817 0.85053 0.16668 0.0
C251 C 0.39736 0.68566 0.30412 0.0
C252 C 0.37397 0.66795 0.33438 0.0
C253 C 0.4361 0.68688 0.30608 0.0
C254 C 0.4507 0.67019 0.33645 0.0
C255 C 0.42719 0.65191 0.36623 0.0
C256 C 0.38866 0.65165 0.36502 0.0
C257 C 0.43542 0.84689 0.2073 0.0
H258 H 0.20525 0.64218 0.22148 0.0
H259 H 0.26369 0.67046 0.2536 0.0
H260 H 0.32362 0.67645 0.14391 0.0
H261 H 0.26548 0.64732 0.11213 0.0
H262 H 0.33307 0.65748 0.2651 0.0
H263 H 0.34143 0.73884 0.1791 0.0
H264 H 0.42568 0.74922 0.26594 0.0
H265 H 0.41762 0.81217 0.25608 0.0
H266 H 0.39789 0.76465 0.14298 0.0
H267 H 0.4253 0.82182 0.11288 0.0
H268 H 0.3441 0.66665 0.33441 0.0
H269 H 0.45518 0.69996 0.28348 0.0
H270 H 0.44594 0.86962 0.22562 0.0
H271 H 0.36962 0.63799 0.38736 0.0
H272 H 0.48058 0.67156 0.33656 0.0
C273 C 0.14429 0.26068 0.67586 0.0
C274 C 0.10528 0.24748 0.67638 0.0
C275 C 0.16028 0.29359 0.69286 0.0
C276 C 0.13783 0.31521 0.71019 0.0
C277 C 0.09865 0.30155 0.71139 0.0
C278 C 0.08266 0.26813 0.69493 0.0
C279 C 0.15536 0.35241 0.72448 0.0
C280 C 0.18738 0.37247 0.70485 0.0
C281 C 0.20474 0.40728 0.71619 0.0
C282 C 0.1889 0.42244 0.74801 0.0
C283 C 0.15737 0.40328 0.76955 0.0
C284 C 0.14076 0.36815 0.75703 0.0
C285 C 0.14253 0.4203 0.80496 0.0
C286 C 0.16636 0.44708 0.82645 0.0
C287 C 0.10455 0.41079 0.81754 0.0
C288 C 0.09116 0.42742 0.84986 0.0
C289 C 0.11501 0.45458 0.87082 0.0
C290 C 0.23984 0.4273 0.69508 0.0
C291 C 0.24606 0.4217 0.65526 0.0
C292 C 0.26822 0.45129 0.71466 0.0
C293 C 0.3017 0.46834 0.6954 0.0
C294 C 0.30848 0.46147 0.65602 0.0
C295 C 0.27979 0.43816 0.63627 0.0
C296 C 0.15281 0.46421 0.85802 0.0
H297 H 0.16263 0.24534 0.6624 0.0
H298 H 0.19053 0.30204 0.69218 0.0
H299 H 0.08013 0.3171 0.72401 0.0
H300 H 0.05246 0.25889 0.69575 0.0
H301 H 0.19902 0.36077 0.6803 0.0
H302 H 0.11712 0.35258 0.77317 0.0
H303 H 0.20091 0.4498 0.75538 0.0
H304 H 0.19594 0.45515 0.81914 0.0
H305 H 0.08471 0.39082 0.80212 0.0
H306 H 0.06189 0.41884 0.85841 0.0
H307 H 0.22489 0.40444 0.63843 0.0
H308 H 0.26507 0.45648 0.74524 0.0
H309 H 0.17224 0.48567 0.87185 0.0
H310 H 0.28356 0.43201 0.60601 0.0
H311 H 0.32224 0.487 0.71156 0.0
Ho312 Ho 0.02553 0.06519 0.51711 0.0
Ho313 Ho 1.00257 1.02894 0.59517 0.0
C314 C 0.04474 0.11072 0.59825 0.0
C315 C 0.04243 0.10936 0.46084 0.0
C316 C 0.07784 0.13561 0.45619 0.0
C317 C 0.08283 0.16179 0.42753 0.0
C318 C 0.11771 0.18524 0.42252 0.0
C319 C 0.14785 0.18242 0.44589 0.0
C320 C 0.14245 0.15676 0.47518 0.0
C321 C 0.10758 0.13367 0.48047 0.0
C322 C 0.07572 1.03221 0.54737 0.0
C323 C 0.98198 0.98385 0.51391 0.0
C324 C 0.98916 0.98479 0.65193 0.0
C325 C 0.956 0.95591 0.6603 0.0
C326 C 0.95688 0.92031 0.6522 0.0
C327 C 0.92422 0.89352 0.65593 0.0
C328 C 0.89023 0.90201 0.66766 0.0
C329 C 0.88964 0.93736 0.67679 0.0
C330 C 0.92213 0.96399 0.67331 0.0
C331 C 0.9523 0.06222 0.56534 0.0
O332 O 0.03943 0.11113 0.56036 0.0
O333 O 0.03779 0.08036 0.61772 0.0
O334 O 0.04587 0.0764 0.45838 0.0
O335 O 0.02132 0.11475 0.4904 0.0
O336 O 0.07109 1.03476 0.51063 0.0
O337 O 0.05608 0.04984 0.56566 0.0
O338 O 0.98766 0.98335 0.55174 0.0
O339 O 0.98941 1.01421 0.49433 0.0
O340 O 0.98377 1.01717 0.65419 0.0
O341 O 1.00969 0.98016 0.62156 0.0
O342 O 0.95641 0.05867 0.60209 0.0
O343 O 0.972 1.04471 0.54687 0.0
H344 H 0.06011 0.16364 0.40872 0.0
H345 H 0.12155 0.20482 0.39957 0.0
H346 H 0.16533 0.1543 0.49351 0.0
H347 H 0.10399 0.1137 0.50301 0.0
H348 H 0.98259 0.91333 0.64211 0.0
H349 H 0.92532 0.86637 0.64888 0.0
H350 H 0.86393 0.94443 0.68678 0.0
H351 H 0.92035 0.99103 0.68008 0.0
Ho352 Ho 0.55524 0.053 0.07679 0.0
Ho353 Ho 0.4835 1.03999 1.04214 0.0
C354 C 0.48987 0.08633 0.11637 0.0
C355 C 0.61793 0.07896 0.1098 0.0
C356 C 0.62917 0.10544 0.14023 0.0
C357 C 0.66523 0.12729 0.13878 0.0
C358 C 0.67646 0.15245 0.16774 0.0
C359 C 0.6517 0.15601 0.19849 0.0
C360 C 0.61542 0.13432 0.19971 0.0
C361 C 0.60411 0.10933 0.17059 0.0
C362 C 0.51191 0.98815 0.09634 0.0
C363 C 0.54813 1.00417 1.00455 0.0
C364 C 0.4208 1.01604 1.00822 0.0
C365 C 0.40949 0.99138 0.97617 0.0
C366 C 0.42563 0.96187 0.97026 0.0
C367 C 0.41676 0.94041 0.93766 0.0
C368 C 0.39195 0.94843 0.91058 0.0
C369 C 0.37579 0.97786 0.91668 0.0
C370 C 0.38446 0.99915 0.94933 0.0
C371 C 0.5271 0.10489 1.02295 0.0
O372 O 0.52623 0.09033 0.10991 0.0
O373 O 0.46599 0.06247 0.097 0.0
O374 O 0.59508 0.04947 0.12067 0.0
O375 O 0.60848 0.09114 0.07727 0.0
O376 O 0.54726 0.99436 0.08729 0.0
O377 O 0.50075 1.01704 0.09532 0.0
O378 O 0.5118 1.00183 1.00935 0.0
O379 O 0.57246 1.02789 1.02358 0.0
O380 O 0.44405 1.04561 0.99849 0.0
O381 O 0.42999 1.00251 1.04013 0.0
O382 O 0.49202 0.0989 1.03314 0.0
O383 O 0.53798 0.07582 1.02347 0.0
H384 H 0.68481 0.12463 0.11547 0.0
H385 H 0.70484 0.16845 0.16669 0.0
H386 H 0.59597 0.13661 0.22326 0.0
H387 H 0.57596 0.09287 0.172 0.0
H388 H 0.44546 0.95573 0.99044 0.0
H389 H 0.42977 0.91801 0.9332 0.0
H390 H 0.35642 0.98433 0.89614 0.0
H391 H 0.37212 1.02204 0.95331 0.0
Ho392 Ho 0.51456 0.51351 0.52982 0.0
Ho393 Ho 0.52202 0.57577 0.57721 0.0
C394 C 0.54961 0.51311 0.61684 0.0
C395 C 0.52615 0.45758 0.49498 0.0
C396 C 0.5524 0.43528 0.5049 0.0
C397 C 0.59079 0.45055 0.50853 0.0
C398 C 0.61477 0.43077 0.52315 0.0
C399 C 0.60089 0.39548 0.53508 0.0
C400 C 0.56281 0.3797 0.53008 0.0
C401 C 0.53871 0.39952 0.5152 0.0
C402 C 0.44955 0.51649 0.56847 0.0
C403 C 0.48662 0.57607 0.49081 0.0
C404 C 0.50781 0.63112 0.61034 0.0
C405 C 0.47755 0.64832 0.59954 0.0
C406 C 0.44234 0.62724 0.59006 0.0
C407 C 0.41535 0.64255 0.57369 0.0
C408 C 0.42314 0.67911 0.56608 0.0
C409 C 0.45806 0.70035 0.57611 0.0
C410 C 0.48515 0.68501 0.59266 0.0
C411 C 0.5872 0.57295 0.539 0.0
O412 O 0.54767 0.50001 0.5811 0.0
O413 O 0.53827 0.54267 0.62424 0.0
O414 O 0.49855 0.45672 0.51987 0.0
O415 O 0.54124 0.48986 0.48332 0.0
O416 O 0.45165 0.5071 0.53252 0.0
O417 O 0.48217 0.52394 0.58191 0.0
O418 O 0.48689 0.58792 0.52693 0.0
O419 O 0.49991 0.54768 0.48296 0.0
O420 O 0.53438 0.63301 0.58398 0.0
O421 O 0.49709 0.59928 0.62518 0.0
O422 O 0.58481 0.58287 0.57473 0.0
O423 O 0.5547 0.56541 0.52511 0.0
H424 H 0.60232 0.47809 0.50098 0.0
H425 H 0.64427 0.4432 0.52519 0.0
H426 H 0.55151 0.3524 0.5387 0.0
H427 H 0.50918 0.38729 0.51289 0.0
H428 H 0.43596 0.59868 0.59411 0.0
H429 H 0.38859 0.62569 0.56632 0.0
H430 H 0.4643 0.72882 0.57139 0.0
H431 H 0.51232 0.70158 0.59917 0.0
Ho432 Ho 1.01819 0.51579 0.07682 0.0
Ho433 Ho 0.02017 0.57982 1.03382 0.0
C434 C 0.09045 0.58129 0.08509 0.0
C435 C 0.03472 0.46061 0.10797 0.0
C436 C 0.07081 0.45128 0.11505 0.0
C437 C 0.10233 0.46468 0.09107 0.0
C438 C 0.13677 0.45636 0.0984 0.0
C439 C 0.14034 0.4349 0.13011 0.0
C440 C 0.10878 0.4216 0.15412 0.0
C441 C 0.07427 0.42977 0.14663 0.0
C442 C 0.97881 0.55914 0.11434 0.0
C443 C 0.94689 0.51446 1.02699 0.0
C444 C 1.00628 0.6359 1.00165 0.0
C445 C 0.97204 0.64844 0.99398 0.0
C446 C 0.93954 0.63746 1.01727 0.0
C447 C 0.90746 0.65031 1.01024 0.0
C448 C 0.90731 0.67424 0.97976 0.0
C449 C 0.93965 0.68437 0.9559 0.0
C450 C 0.97178 0.67172 0.9631 0.0
C451 C 0.05881 0.535 0.99733 0.0
O452 O 0.07847 0.54637 0.08432 0.0
O453 O 0.07014 0.60175 0.06997 0.0
O454 O 0.028 0.48736 0.12806 0.0
O455 O 0.02599 0.46204 0.07169 0.0
O456 O 0.96853 0.52479 0.11217 0.0
O457 O 1.01016 0.56896 0.09657 0.0
O458 O 0.95981 0.54937 1.02584 0.0
O459 O 0.96691 0.49403 1.04277 0.0
O460 O 1.01077 0.60801 0.98217 0.0
O461 O 1.01453 0.63428 1.038 0.0
O462 O 0.07028 0.56927 0.99924 0.0
O463 O 0.02711 0.52654 1.01426 0.0
H464 H 0.10031 0.48164 0.06674 0.0
H465 H 0.16071 0.46698 0.07956 0.0
H466 H 0.11073 0.40457 0.17843 0.0
H467 H 0.0503 0.41933 0.16551 0.0
H468 H 0.93906 0.61921 1.04108 0.0
H469 H 0.88294 0.6419 1.02898 0.0
H470 H 0.94003 0.70188 0.93144 0.0
H471 H 0.99647 0.68011 0.94456 0.0
C472 C 0.22415 0.26323 0.42282 0.0
C473 C 0.25258 0.2481 0.40631 0.0
C474 C 0.19095 0.24181 0.43789 0.0
C475 C 0.18545 0.20464 0.43754 0.0
H476 H 0.22644 0.29169 0.42141 0.0
H477 H 0.16869 0.25425 0.44805 0.0
S478 S 0.25269 0.15201 0.40191 0.0
N479 N 0.2742 0.19376 0.39355 0.0
N480 N 0.21205 0.15356 0.42295 0.0
C481 C 0.21485 0.18928 0.42437 0.0
C482 C 0.24851 0.21105 0.4086 0.0
C483 C 0.37386 0.92354 0.80605 0.0
C484 C 0.35563 0.88745 0.8085 0.0
C485 C 0.38699 0.94278 0.83918 0.0
C486 C 0.38263 0.92645 0.87572 0.0
H487 H 0.37617 0.93751 0.77868 0.0
H488 H 0.39957 0.97089 0.83641 0.0
S489 S 0.34024 0.83185 0.89697 0.0
N490 N 0.33643 0.83546 0.8497 0.0
N491 N 0.36127 0.87179 0.91228 0.0
C492 C 0.36641 0.88996 0.8783 0.0
C493 C 0.35278 0.8704 0.84457 0.0
C494 C 0.58816 0.49484 0.71573 0.0
C495 C 0.59211 0.45919 0.71346 0.0
C496 C 0.57479 0.51186 0.68466 0.0
C497 C 0.56452 0.4943 0.64927 0.0
H498 H 0.59491 0.50993 0.74217 0.0
H499 H 0.57249 0.53912 0.68853 0.0
S500 S 0.56673 0.40024 0.62806 0.0
N501 N 0.58363 0.40693 0.67192 0.0
N502 N 0.55738 0.43828 0.61472 0.0
C503 C 0.56773 0.45857 0.64657 0.0
C504 C 0.58161 0.44124 0.67818 0.0
C505 C 0.9672 0.63574 0.18294 0.0
C506 C 0.93545 0.62053 0.20634 0.0
C507 C 0.98069 0.61627 0.15287 0.0
C508 C 0.96326 0.58054 0.14487 0.0
H509 H 0.98163 0.66307 0.18766 0.0
H510 H 1.00522 0.62927 0.136 0.0
S511 S 0.88034 0.52746 0.19845 0.0
N512 N 0.88807 0.5667 0.21981 0.0
N513 N 0.91259 0.53084 0.16359 0.0
C514 C 0.93157 0.5651 0.16806 0.0
C515 C 0.91795 0.5848 0.19859 0.0
C516 C 0.48654 0.17382 0.16528 0.0
C517 C 0.44792 0.17082 0.17188 0.0
C518 C 0.50024 0.14545 0.14953 0.0
C519 C 0.47571 0.11306 0.13989 0.0
H520 H 0.50617 0.19879 0.17073 0.0
H521 H 0.53001 0.14962 0.14319 0.0
S522 S 0.37265 0.09015 0.15792 0.0
N523 N 0.38586 0.13188 0.1722 0.0
N524 N 0.41132 0.07848 0.14264 0.0
C525 C 0.43726 0.10906 0.14889 0.0
C526 C 0.42341 0.13797 0.1648 0.0
C527 C 0.12213 0.95488 0.55632 0.0
C528 C 0.12783 0.95355 0.59632 0.0
C529 C 0.1056 0.98082 0.54083 0.0
C530 C 0.09413 1.00618 0.56468 0.0
H531 H 0.13132 0.93638 0.53686 0.0
H532 H 0.10177 0.98088 0.50968 0.0
S533 S 0.10194 1.0135 0.67137 0.0
N534 N 0.11991 0.97906 0.65968 0.0
N535 N 0.08925 1.0284 0.63025 0.0
C536 C 0.09939 1.00506 0.60477 0.0
C537 C 0.11616 0.97854 0.62061 0.0
C538 C 0.85866 0.50237 0.96571 0.0
C539 C 0.84083 0.46633 0.97128 0.0
C540 C 0.89228 0.51786 0.98443 0.0
C541 C 0.90998 0.49792 1.00911 0.0
H542 H 0.84632 0.51883 0.947 0.0
H543 H 0.90475 0.54567 0.97898 0.0
S544 S 0.87519 0.40207 1.03247 0.0
N545 N 0.84382 0.41104 1.00286 0.0
N546 N 0.90657 0.43971 1.03764 0.0
C547 C 0.89238 0.46177 1.01472 0.0
C548 C 0.85804 0.44616 0.99597 0.0
C549 C 0.65635 0.61003 0.45633 0.0
C550 C 0.69178 0.61243 0.47286 0.0
C551 C 0.62261 0.59579 0.47707 0.0
C552 C 0.62277 0.58369 0.51544 0.0
H553 H 0.65452 0.62036 0.42755 0.0
H554 H 0.59623 0.59561 0.46344 0.0
S555 S 0.70723 0.57894 0.57046 0.0
N556 N 0.7242 0.59709 0.52875 0.0
N557 N 0.66118 0.572 0.56784 0.0
C558 C 0.65777 0.58452 0.53174 0.0
C559 C 0.69208 0.59845 0.51052 0.0
C560 C 0.22822 0.39881 0.11587 0.0
C561 C 0.24433 0.40334 0.15262 0.0
C562 C 0.19514 0.41006 0.10846 0.0
C563 C 0.17674 0.42573 0.13772 0.0
H564 H 0.24103 0.38605 0.09284 0.0
H565 H 0.18326 0.4055 0.07998 0.0
S566 S 0.20777 0.44446 0.23849 0.0
N567 N 0.23957 0.42517 0.21839 0.0
N568 N 0.17768 0.44657 0.20424 0.0
C569 C 0.19292 0.4311 0.1743 0.0
C570 C 0.22667 0.41988 0.1818 0.0
C571 C 0.5939 0.1739 0.95895 0.0
C572 C 0.58128 0.2056 0.96588 0.0
C573 C 0.57739 0.14163 0.97815 0.0
C574 C 0.5474 0.13954 1.0051 0.0
H575 H 0.61625 0.17378 0.93783 0.0
H576 H 0.58753 0.11799 0.97105 0.0
S577 S 0.50697 0.21531 1.03789 0.0
N578 N 0.53914 0.2329 1.005 0.0
N579 N 0.50801 0.17281 1.04007 0.0
C580 C 0.53545 0.1712 1.01328 0.0
C581 C 0.55229 0.20395 0.99398 0.0
C582 C 0.96335 0.91144 0.43513 0.0
C583 C 0.93922 0.88248 0.4539 0.0
C584 C 0.97634 0.94426 0.45431 0.0
C585 C 0.96655 0.94932 0.49342 0.0
H586 H 0.97179 0.9089 0.40517 0.0
H587 H 0.99475 0.96566 0.43852 0.0
S588 S 0.90444 0.88169 0.55583 0.0
N589 N 0.9061 0.86125 0.5139 0.0
N590 N 0.93106 0.922 0.55002 0.0
C591 C 0.94276 0.92036 0.51255 0.0
C592 C 0.92899 0.8873 0.49282 0.0
C593 C 0.33177 0.70799 0.55981 0.0
C594 C 0.33974 0.73492 0.53152 0.0
C595 C 0.35827 0.68861 0.56916 0.0
C596 C 0.39369 0.69541 0.5506 0.0
H597 H 0.30625 0.70393 0.5774 0.0
H598 H 0.3519 0.66994 0.593 0.0
S599 S 0.42526 0.75712 0.4686 0.0
N600 N 0.38312 0.76317 0.48064 0.0
N601 N 0.43324 0.72643 0.49838 0.0
C602 C 0.40076 0.7197 0.51975 0.0
C603 C 0.37364 0.73945 0.51008 0.0
C604 C 0.78699 0.85928 0.66798 0.0
C605 C 0.78421 0.83216 0.69559 0.0
C606 C 0.82195 0.88004 0.65645 0.0
C607 C 0.85524 0.8744 0.67223 0.0
H608 H 0.76188 0.8661 0.65734 0.0
H609 H 0.82282 0.90208 0.63692 0.0
S610 S 0.86339 0.80452 0.74241 0.0
N611 N 0.81791 0.79879 0.73582 0.0
N612 N 0.88359 0.83791 0.71402 0.0
C613 C 0.85308 0.84549 0.69724 0.0
C614 C 0.8175 0.8243 0.70896 0.0
C615 C 0.67947 0.18818 0.29908 0.0
C616 C 0.69935 0.22334 0.2925 0.0
C617 C 0.66251 0.16702 0.26866 0.0
C618 C 0.66492 0.18038 0.23074 0.0
H619 H 0.67862 0.17638 0.32756 0.0
H620 H 0.64901 0.13953 0.27453 0.0
S621 S 0.70878 0.27225 0.19963 0.0
N622 N 0.71712 0.27174 0.24637 0.0
N623 N 0.68493 0.23187 0.18894 0.0
C624 C 0.68279 0.21608 0.22421 0.0
C625 C 0.70012 0.23761 0.25519 0.0
C626 C 0.43412 0.63731 0.4373 0.0
C627 C 0.44259 0.63245 0.39776 0.0
C628 C 0.44849 0.61932 0.467 0.0
C629 C 0.4714 0.595 0.45873 0.0
H630 H 0.41664 0.65554 0.44541 0.0
H631 H 0.44128 0.62441 0.49679 0.0
S632 S 0.50133 0.57206 0.35991 0.0
N633 N 0.47522 0.60105 0.35222 0.0
N634 N 0.50165 0.56732 0.40734 0.0
C635 C 0.47977 0.58976 0.41925 0.0
C636 C 0.46559 0.60841 0.38912 0.0
C637 C 0.06409 0.48069 0.90455 0.0
C638 C 0.1004 0.4735 0.90481 0.0
C639 C 0.05046 0.49962 0.93488 0.0
C640 C 0.07265 0.51294 0.9667 0.0
H641 H 0.04615 0.47238 0.88022 0.0
H642 H 0.02263 0.50474 0.93284 0.0
S643 S 0.16763 0.49882 0.98487 0.0
N644 N 0.15651 0.47869 0.94308 0.0
N645 N 0.13171 0.51603 0.99797 0.0
C646 C 0.10852 0.5056 0.96795 0.0
C647 C 0.12215 0.48554 0.93767 0.0
C648 C 0.55448 0.93098 0.93227 0.0
C649 C 0.58316 0.91652 0.94746 0.0
C650 C 0.54323 0.95965 0.95066 0.0
C651 C 0.56132 0.97546 0.9839 0.0
H652 H 0.54053 0.91985 0.90625 0.0
H653 H 0.52052 0.96968 0.93867 0.0
S654 S 0.63757 0.94663 1.03505 0.0
N655 N 0.62866 0.91926 0.99784 0.0
N656 N 0.60865 0.97374 1.03172 0.0
C657 C 0.59017 0.9612 0.99909 0.0
C658 C 0.60082 0.93156 0.98101 0.0
C659 C 0.91995 0.11917 0.49066 0.0
C660 C 0.90803 0.14497 0.51354 0.0
C661 C 0.93353 0.09187 0.50771 0.0
C662 C 0.93534 0.08948 0.5482 0.0
H663 H 0.91921 0.12038 0.45931 0.0
H664 H 0.94305 0.07283 0.48915 0.0
S665 S 0.90473 0.14912 0.62078 0.0
N666 N 0.89677 0.1654 0.57853 0.0
N667 N 0.92256 0.11427 0.61073 0.0
C668 C 0.92259 0.11462 0.57138 0.0
C669 C 0.90893 0.14242 0.55402 0.0
C670 C 0.18956 0.5941 0.12506 0.0
C671 C 0.19487 0.62718 0.14418 0.0
C672 C 0.15582 0.57935 0.10614 0.0
C673 C 0.12643 0.59758 0.10455 0.0
H674 H 0.21148 0.57928 0.12517 0.0
H675 H 0.15291 0.55362 0.09232 0.0
S676 S 0.1266 0.68526 0.1498 0.0
N677 N 0.16781 0.67753 0.16049 0.0
N678 N 0.10525 0.65066 0.12424 0.0
C679 C 0.13171 0.63088 0.12323 0.0
C680 C 0.16564 0.64543 0.14319 0.0
C681 C 0.34543 0.48902 0.59639 0.0
C682 C 0.3451 0.47802 0.63537 0.0
C683 C 0.37918 0.50221 0.57546 0.0
C684 C 0.41431 0.50565 0.59255 0.0
H685 H 0.31932 0.48721 0.58166 0.0
H686 H 0.37772 0.50951 0.54539 0.0
S687 S 0.43004 0.48078 0.69337 0.0
N688 N 0.38397 0.47117 0.68976 0.0
N689 N 0.44686 0.49735 0.65099 0.0
C690 C 0.41462 0.4958 0.6317 0.0
C691 C 0.38026 0.48173 0.65291 0.0
C692 C 0.80566 0.67678 0.9625 0.0
C693 C 0.80756 0.71289 0.95448 0.0
C694 C 0.83787 0.66464 0.97139 0.0
C695 C 0.87329 0.6881 0.97246 0.0
H696 H 0.7791 0.65764 0.96141 0.0
H697 H 0.83513 0.63648 0.97646 0.0
S698 S 0.89341 0.78543 0.95525 0.0
N699 N 0.8479 0.77208 0.94874 0.0
N700 N 0.90807 0.74943 0.96678 0.0
C701 C 0.87546 0.72441 0.96553 0.0
C702 C 0.84271 0.73677 0.95633 0.0
C703 C 0.44549 0.91744 0.15848 0.0
C704 C 0.45611 0.88556 0.14769 0.0
C705 C 0.46225 0.95043 0.14086 0.0
C706 C 0.49092 0.95305 0.11229 0.0
H707 H 0.4239 0.91686 0.18066 0.0
H708 H 0.45345 0.97415 0.15049 0.0
S709 S 0.5288 0.87792 0.073 0.0
N710 N 0.49696 0.85926 0.10575 0.0
N711 N 0.52837 0.92061 0.07337 0.0
C712 C 0.50145 0.92139 0.10102 0.0
C713 C 0.48414 0.88791 0.11846 0.0
C714 C 0.0975 0.20682 0.61777 0.0
C715 C 0.0887 0.21258 0.65696 0.0
C716 C 0.08296 0.17416 0.59904 0.0
C717 C 0.05971 0.14529 0.61887 0.0
H718 H 0.11562 0.22791 0.60128 0.0
H719 H 0.09053 0.17136 0.56885 0.0
S720 S 0.02806 0.14636 0.72179 0.0
N721 N 0.05468 0.18651 0.71472 0.0
N722 N 0.02829 0.12515 0.68013 0.0
C723 C 0.05083 0.15067 0.65811 0.0
C724 C 0.06498 0.1842 0.67692 0.0
C725 C 0.65665 0.32478 0.54363 0.0
C726 C 0.68656 0.34161 0.5668 0.0
C727 C 0.62726 0.34125 0.5358 0.0
C728 C 0.62684 0.37503 0.55095 0.0
H729 H 0.65772 0.30036 0.52841 0.0
H730 H 0.60651 0.32874 0.51526 0.0
S731 S 0.69371 0.42588 0.6209 0.0
N732 N 0.71065 0.3906 0.61018 0.0
N733 N 0.65502 0.42161 0.59599 0.0
C734 C 0.65434 0.3902 0.57766 0.0
C735 C 0.68429 0.37342 0.58551 0.0
loop_
_geom_bond_atom_site_label_1
_geom_bond_atom_site_label_2
_geom_bond_distance
_geom_bond_site_symmetry_2
_ccdc_geom_bond_type
C0 C1 1.386 . S
C0 C2 1.397 . S
C0 H24 0.931 . S
C1 C0 1.386 . S
C1 C5 1.397 . S
C2 C0 1.397 . S
C2 C3 1.384 . S
C2 H25 0.930 . S
C3 C2 1.384 . S
C3 C4 1.377 . S
C3 C6 1.481 . S
C4 C3 1.377 . S
C4 C5 1.389 . S
C4 H26 0.929 . S
C5 C1 1.397 . S
C5 C4 1.389 . S
C5 H27 0.931 . S
C6 C3 1.481 . S
C6 C7 1.387 . S
C6 C11 1.390 . S
C7 C6 1.387 . S
C7 C8 1.401 . S
C7 H28 0.930 . S
C8 C7 1.401 . S
C8 C9 1.376 . S
C8 C17 1.511 . S
C9 C8 1.376 . S
C9 C10 1.392 . S
C9 H30 0.931 . S
C10 C9 1.392 . S
C10 C11 1.361 . S
C10 C12 1.500 . S
C11 C6 1.390 . S
C11 C10 1.361 . S
C11 H29 0.931 . S
C12 C10 1.500 . S
C12 C13 1.371 . S
C12 C14 1.365 . S
C13 C12 1.371 . S
C13 C23 1.386 . S
C13 H31 0.931 . S
C14 C12 1.365 . S
C14 C15 1.409 . S
C14 H32 0.929 . S
C15 C14 1.409 . S
C15 C16 1.380 . S
C15 H33 0.930 . S
C16 C15 1.380 . S
C16 C23 1.357 . S
C17 C8 1.511 . S
C17 C18 1.341 . S
C17 C19 1.371 . S
C18 C17 1.341 . S
C18 C22 1.394 . S
C18 H34 0.930 . S
C19 C17 1.371 . S
C19 C20 1.392 . S
C19 H35 0.931 . S
C20 C19 1.392 . S
C20 C21 1.331 . S
C20 H38 0.932 . S
C21 C20 1.331 . S
C21 C22 1.336 . S
C22 C18 1.394 . S
C22 C21 1.336 . S
C22 H37 0.929 . S
C23 C13 1.386 . S
C23 C16 1.357 . S
C23 H36 0.928 . S
H24 C0 0.931 . S
H25 C2 0.930 . S
H26 C4 0.929 . S
H27 C5 0.931 . S
H28 C7 0.930 . S
H29 C11 0.931 . S
H30 C9 0.931 . S
H31 C13 0.931 . S
H32 C14 0.929 . S
H33 C15 0.930 . S
H34 C18 0.930 . S
H35 C19 0.931 . S
H36 C23 0.928 . S
H37 C22 0.929 . S
H38 C20 0.932 . S
C39 C40 1.386 . S
C39 C41 1.397 . S
C39 H63 0.931 . S
C40 C39 1.386 . S
C40 C44 1.397 . S
C41 C39 1.397 . S
C41 C42 1.384 . S
C41 H64 0.930 . S
C42 C41 1.384 . S
C42 C43 1.377 . S
C42 C45 1.481 . S
C43 C42 1.377 . S
C43 C44 1.389 . S
C43 H65 0.929 . S
C44 C40 1.397 . S
C44 C43 1.389 . S
C44 H66 0.931 . S
C45 C42 1.481 . S
C45 C46 1.387 . S
C45 C50 1.390 . S
C46 C45 1.387 . S
C46 C47 1.401 . S
C46 H67 0.930 . S
C47 C46 1.401 . S
C47 C48 1.376 . S
C47 C56 1.511 . S
C48 C47 1.376 . S
C48 C49 1.392 . S
C48 H69 0.931 . S
C49 C48 1.392 . S
C49 C50 1.361 . S
C49 C51 1.500 . S
C50 C45 1.390 . S
C50 C49 1.361 . S
C50 H68 0.931 . S
C51 C49 1.500 . S
C51 C52 1.371 . S
C51 C53 1.365 . S
C52 C51 1.371 . S
C52 C62 1.386 . S
C52 H70 0.931 . S
C53 C51 1.365 . S
C53 C54 1.409 . S
C53 H71 0.929 . S
C54 C53 1.409 . S
C54 C55 1.380 . S
C54 H72 0.930 . S
C55 C54 1.380 . S
C55 C62 1.357 . S
C56 C47 1.511 . S
C56 C57 1.341 . S
C56 C58 1.371 . S
C57 C56 1.341 . S
C57 C61 1.394 . S
C57 H73 0.930 . S
C58 C56 1.371 . S
C58 C59 1.392 . S
C58 H74 0.931 . S
C59 C58 1.392 . S
C59 C60 1.331 . S
C59 H77 0.932 . S
C60 C59 1.331 . S
C60 C61 1.336 . S
C61 C57 1.394 . S
C61 C60 1.336 . S
C61 H76 0.929 . S
C62 C52 1.386 . S
C62 C55 1.357 . S
C62 H75 0.928 . S
H63 C39 0.931 . S
H64 C41 0.930 . S
H65 C43 0.929 . S
H66 C44 0.931 . S
H67 C46 0.930 . S
H68 C50 0.931 . S
H69 C48 0.931 . S
H70 C52 0.931 . S
H71 C53 0.929 . S
H72 C54 0.930 . S
H73 C57 0.930 . S
H74 C58 0.931 . S
H75 C62 0.928 . S
H76 C61 0.929 . S
H77 C59 0.932 . S
C78 C79 1.386 . S
C78 C80 1.397 . S
C78 H102 0.931 . S
C79 C78 1.386 . S
C79 C83 1.397 . S
C80 C78 1.397 . S
C80 C81 1.384 . S
C80 H103 0.930 . S
C81 C80 1.384 . S
C81 C82 1.377 . S
C81 C84 1.481 . S
C82 C81 1.377 . S
C82 C83 1.389 . S
C82 H104 0.929 . S
C83 C79 1.397 . S
C83 C82 1.389 . S
C83 H105 0.931 . S
C84 C81 1.481 . S
C84 C85 1.387 . S
C84 C89 1.390 . S
C85 C84 1.387 . S
C85 C86 1.401 . S
C85 H106 0.930 . S
C86 C85 1.401 . S
C86 C87 1.376 . S
C86 C95 1.511 . S
C87 C86 1.376 . S
C87 C88 1.392 . S
C87 H108 0.931 . S
C88 C87 1.392 . S
C88 C89 1.361 . S
C88 C90 1.500 . S
C89 C84 1.390 . S
C89 C88 1.361 . S
C89 H107 0.931 . S
C90 C88 1.500 . S
C90 C91 1.371 . S
C90 C92 1.365 . S
C91 C90 1.371 . S
C91 C101 1.386 . S
C91 H109 0.931 . S
C92 C90 1.365 . S
C92 C93 1.409 . S
C92 H110 0.929 . S
C93 C92 1.409 . S
C93 C94 1.380 . S
C93 H111 0.930 . S
C94 C93 1.380 . S
C94 C101 1.357 . S
C95 C86 1.511 . S
C95 C96 1.341 . S
C95 C97 1.371 . S
C96 C95 1.341 . S
C96 C100 1.394 . S
C96 H112 0.930 . S
C97 C95 1.371 . S
C97 C98 1.392 . S
C97 H113 0.931 . S
C98 C97 1.392 . S
C98 C99 1.331 . S
C98 H116 0.932 . S
C99 C98 1.331 . S
C99 C100 1.336 . S
C100 C96 1.394 . S
C100 C99 1.336 . S
C100 H115 0.929 . S
C101 C91 1.386 . S
C101 C94 1.357 . S
C101 H114 0.928 . S
H102 C78 0.931 . S
H103 C80 0.930 . S
H104 C82 0.929 . S
H105 C83 0.931 . S
H106 C85 0.930 . S
H107 C89 0.931 . S
H108 C87 0.931 . S
H109 C91 0.931 . S
H110 C92 0.929 . S
H111 C93 0.930 . S
H112 C96 0.930 . S
H113 C97 0.931 . S
H114 C101 0.928 . S
H115 C100 0.929 . S
H116 C98 0.932 . S
C117 C118 1.386 . S
C117 C119 1.397 . S
C117 H141 0.931 . S
C118 C117 1.386 . S
C118 C122 1.397 . S
C119 C117 1.397 . S
C119 C120 1.384 . S
C119 H142 0.930 . S
C120 C119 1.384 . S
C120 C121 1.377 . S
C120 C123 1.481 . S
C121 C120 1.377 . S
C121 C122 1.389 . S
C121 H143 0.929 . S
C122 C118 1.397 . S
C122 C121 1.389 . S
C122 H144 0.931 . S
C123 C120 1.481 . S
C123 C124 1.387 . S
C123 C128 1.390 . S
C124 C123 1.387 . S
C124 C125 1.401 . S
C124 H145 0.930 . S
C125 C124 1.401 . S
C125 C126 1.376 . S
C125 C134 1.511 . S
C126 C125 1.376 . S
C126 C127 1.392 . S
C126 H147 0.931 . S
C127 C126 1.392 . S
C127 C128 1.361 . S
C127 C129 1.500 . S
C128 C123 1.390 . S
C128 C127 1.361 . S
C128 H146 0.931 . S
C129 C127 1.500 . S
C129 C130 1.371 . S
C129 C131 1.365 . S
C130 C129 1.371 . S
C130 C140 1.386 . S
C130 H148 0.931 . S
C131 C129 1.365 . S
C131 C132 1.409 . S
C131 H149 0.929 . S
C132 C131 1.409 . S
C132 C133 1.380 . S
C132 H150 0.930 . S
C133 C132 1.380 . S
C133 C140 1.357 . S
C134 C125 1.511 . S
C134 C135 1.341 . S
C134 C136 1.371 . S
C135 C134 1.341 . S
C135 C139 1.394 . S
C135 H151 0.930 . S
C136 C134 1.371 . S
C136 C137 1.392 . S
C136 H152 0.931 . S
C137 C136 1.392 . S
C137 C138 1.331 . S
C137 H155 0.932 . S
C138 C137 1.331 . S
C138 C139 1.336 . S
C139 C135 1.394 . S
C139 C138 1.336 . S
C139 H154 0.929 . S
C140 C130 1.386 . S
C140 C133 1.357 . S
C140 H153 0.928 . S
H141 C117 0.931 . S
H142 C119 0.930 . S
H143 C121 0.929 . S
H144 C122 0.931 . S
H145 C124 0.930 . S
H146 C128 0.931 . S
H147 C126 0.931 . S
H148 C130 0.931 . S
H149 C131 0.929 . S
H150 C132 0.930 . S
H151 C135 0.930 . S
H152 C136 0.931 . S
H153 C140 0.928 . S
H154 C139 0.929 . S
H155 C137 0.932 . S
C156 C157 1.386 . S
C156 C158 1.397 . S
C156 H180 0.931 . S
C157 C156 1.386 . S
C157 C161 1.397 . S
C158 C156 1.397 . S
C158 C159 1.384 . S
C158 H181 0.930 . S
C159 C158 1.384 . S
C159 C160 1.377 . S
C159 C162 1.481 . S
C160 C159 1.377 . S
C160 C161 1.389 . S
C160 H182 0.929 . S
C161 C157 1.397 . S
C161 C160 1.389 . S
C161 H183 0.931 . S
C162 C159 1.481 . S
C162 C163 1.387 . S
C162 C167 1.390 . S
C163 C162 1.387 . S
C163 C164 1.401 . S
C163 H184 0.930 . S
C164 C163 1.401 . S
C164 C165 1.376 . S
C164 C173 1.511 . S
C165 C164 1.376 . S
C165 C166 1.392 . S
C165 H186 0.931 . S
C166 C165 1.392 . S
C166 C167 1.361 . S
C166 C168 1.500 . S
C167 C162 1.390 . S
C167 C166 1.361 . S
C167 H185 0.931 . S
C168 C166 1.500 . S
C168 C169 1.371 . S
C168 C170 1.365 . S
C169 C168 1.371 . S
C169 C179 1.386 . S
C169 H187 0.931 . S
C170 C168 1.365 . S
C170 C171 1.409 . S
C170 H188 0.929 . S
C171 C170 1.409 . S
C171 C172 1.380 . S
C171 H189 0.930 . S
C172 C171 1.380 . S
C172 C179 1.357 . S
C173 C164 1.511 . S
C173 C174 1.341 . S
C173 C175 1.371 . S
C174 C173 1.341 . S
C174 C178 1.394 . S
C174 H190 0.930 . S
C175 C173 1.371 . S
C175 C176 1.392 . S
C175 H191 0.931 . S
C176 C175 1.392 . S
C176 C177 1.331 . S
C176 H194 0.932 . S
C177 C176 1.331 . S
C177 C178 1.336 . S
C178 C174 1.394 . S
C178 C177 1.336 . S
C178 H193 0.929 . S
C179 C169 1.386 . S
C179 C172 1.357 . S
C179 H192 0.928 . S
H180 C156 0.931 . S
H181 C158 0.930 . S
H182 C160 0.929 . S
H183 C161 0.931 . S
H184 C163 0.930 . S
H185 C167 0.931 . S
H186 C165 0.931 . S
H187 C169 0.931 . S
H188 C170 0.929 . S
H189 C171 0.930 . S
H190 C174 0.930 . S
H191 C175 0.931 . S
H192 C179 0.928 . S
H193 C178 0.929 . S
H194 C176 0.932 . S
C195 C196 1.386 . S
C195 C197 1.397 . S
C195 H219 0.931 . S
C196 C195 1.386 . S
C196 C200 1.397 . S
C197 C195 1.397 . S
C197 C198 1.384 . S
C197 H220 0.930 . S
C198 C197 1.384 . S
C198 C199 1.377 . S
C198 C201 1.481 . S
C199 C198 1.377 . S
C199 C200 1.389 . S
C199 H221 0.929 . S
C200 C196 1.397 . S
C200 C199 1.389 . S
C200 H222 0.931 . S
C201 C198 1.481 . S
C201 C202 1.387 . S
C201 C206 1.390 . S
C202 C201 1.387 . S
C202 C203 1.401 . S
C202 H223 0.930 . S
C203 C202 1.401 . S
C203 C204 1.376 . S
C203 C212 1.511 . S
C204 C203 1.376 . S
C204 C205 1.392 . S
C204 H225 0.931 . S
C205 C204 1.392 . S
C205 C206 1.361 . S
C205 C207 1.500 . S
C206 C201 1.390 . S
C206 C205 1.361 . S
C206 H224 0.931 . S
C207 C205 1.500 . S
C207 C208 1.371 . S
C207 C209 1.365 . S
C208 C207 1.371 . S
C208 C218 1.386 . S
C208 H226 0.931 . S
C209 C207 1.365 . S
C209 C210 1.409 . S
C209 H227 0.929 . S
C210 C209 1.409 . S
C210 C211 1.380 . S
C210 H228 0.930 . S
C211 C210 1.380 . S
C211 C218 1.357 . S
C212 C203 1.511 . S
C212 C213 1.341 . S
C212 C214 1.371 . S
C213 C212 1.341 . S
C213 C217 1.394 . S
C213 H229 0.930 . S
C214 C212 1.371 . S
C214 C215 1.392 . S
C214 H230 0.931 . S
C215 C214 1.392 . S
C215 C216 1.331 . S
C215 H233 0.932 . S
C216 C215 1.331 . S
C216 C217 1.336 . S
C217 C213 1.394 . S
C217 C216 1.336 . S
C217 H232 0.929 . S
C218 C208 1.386 . S
C218 C211 1.357 . S
C218 H231 0.928 . S
H219 C195 0.931 . S
H220 C197 0.930 . S
H221 C199 0.929 . S
H222 C200 0.931 . S
H223 C202 0.930 . S
H224 C206 0.931 . S
H225 C204 0.931 . S
H226 C208 0.931 . S
H227 C209 0.929 . S
H228 C210 0.930 . S
H229 C213 0.930 . S
H230 C214 0.931 . S
H231 C218 0.928 . S
H232 C217 0.929 . S
H233 C215 0.932 . S
C234 C235 1.386 . S
C234 C236 1.397 . S
C234 H258 0.931 . S
C235 C234 1.386 . S
C235 C239 1.397 . S
C236 C234 1.397 . S
C236 C237 1.384 . S
C236 H259 0.930 . S
C237 C236 1.384 . S
C237 C238 1.377 . S
C237 C240 1.481 . S
C238 C237 1.377 . S
C238 C239 1.389 . S
C238 H260 0.929 . S
C239 C235 1.397 . S
C239 C238 1.389 . S
C239 H261 0.931 . S
C240 C237 1.481 . S
C240 C241 1.387 . S
C240 C245 1.390 . S
C241 C240 1.387 . S
C241 C242 1.401 . S
C241 H262 0.930 . S
C242 C241 1.401 . S
C242 C243 1.376 . S
C242 C251 1.511 . S
C243 C242 1.376 . S
C243 C244 1.392 . S
C243 H264 0.931 . S
C244 C243 1.392 . S
C244 C245 1.361 . S
C244 C246 1.500 . S
C245 C240 1.390 . S
C245 C244 1.361 . S
C245 H263 0.931 . S
C246 C244 1.500 . S
C246 C247 1.371 . S
C246 C248 1.365 . S
C247 C246 1.371 . S
C247 C257 1.386 . S
C247 H265 0.931 . S
C248 C246 1.365 . S
C248 C249 1.409 . S
C248 H266 0.929 . S
C249 C248 1.409 . S
C249 C250 1.380 . S
C249 H267 0.930 . S
C250 C249 1.380 . S
C250 C257 1.357 . S
C251 C242 1.511 . S
C251 C252 1.341 . S
C251 C253 1.371 . S
C252 C251 1.341 . S
C252 C256 1.394 . S
C252 H268 0.930 . S
C253 C251 1.371 . S
C253 C254 1.392 . S
C253 H269 0.931 . S
C254 C253 1.392 . S
C254 C255 1.331 . S
C254 H272 0.932 . S
C255 C254 1.331 . S
C255 C256 1.336 . S
C256 C252 1.394 . S
C256 C255 1.336 . S
C256 H271 0.929 . S
C257 C247 1.386 . S
C257 C250 1.357 . S
C257 H270 0.928 . S
H258 C234 0.931 . S
H259 C236 0.930 . S
H260 C238 0.929 . S
H261 C239 0.931 . S
H262 C241 0.930 . S
H263 C245 0.931 . S
H264 C243 0.931 . S
H265 C247 0.931 . S
H266 C248 0.929 . S
H267 C249 0.930 . S
H268 C252 0.930 . S
H269 C253 0.931 . S
H270 C257 0.928 . S
H271 C256 0.929 . S
H272 C254 0.932 . S
C273 C274 1.386 . S
C273 C275 1.397 . S
C273 H297 0.931 . S
C274 C273 1.386 . S
C274 C278 1.397 . S
C275 C273 1.397 . S
C275 C276 1.384 . S
C275 H298 0.930 . S
C276 C275 1.384 . S
C276 C277 1.377 . S
C276 C279 1.481 . S
C277 C276 1.377 . S
C277 C278 1.389 . S
C277 H299 0.929 . S
C278 C274 1.397 . S
C278 C277 1.389 . S
C278 H300 0.931 . S
C279 C276 1.481 . S
C279 C280 1.387 . S
C279 C284 1.390 . S
C280 C279 1.387 . S
C280 C281 1.401 . S
C280 H301 0.930 . S
C281 C280 1.401 . S
C281 C282 1.376 . S
C281 C290 1.511 . S
C282 C281 1.376 . S
C282 C283 1.392 . S
C282 H303 0.931 . S
C283 C282 1.392 . S
C283 C284 1.361 . S
C283 C285 1.500 . S
C284 C279 1.390 . S
C284 C283 1.361 . S
C284 H302 0.931 . S
C285 C283 1.500 . S
C285 C286 1.371 . S
C285 C287 1.365 . S
C286 C285 1.371 . S
C286 C296 1.386 . S
C286 H304 0.931 . S
C287 C285 1.365 . S
C287 C288 1.409 . S
C287 H305 0.929 . S
C288 C287 1.409 . S
C288 C289 1.380 . S
C288 H306 0.930 . S
C289 C288 1.380 . S
C289 C296 1.357 . S
C290 C281 1.511 . S
C290 C291 1.341 . S
C290 C292 1.371 . S
C291 C290 1.341 . S
C291 C295 1.394 . S
C291 H307 0.930 . S
C292 C290 1.371 . S
C292 C293 1.392 . S
C292 H308 0.931 . S
C293 C292 1.392 . S
C293 C294 1.331 . S
C293 H311 0.932 . S
C294 C293 1.331 . S
C294 C295 1.336 . S
C295 C291 1.394 . S
C295 C294 1.336 . S
C295 H310 0.929 . S
C296 C286 1.386 . S
C296 C289 1.357 . S
C296 H309 0.928 . S
H297 C273 0.931 . S
H298 C275 0.930 . S
H299 C277 0.929 . S
H300 C278 0.931 . S
H301 C280 0.930 . S
H302 C284 0.931 . S
H303 C282 0.931 . S
H304 C286 0.931 . S
H305 C287 0.929 . S
H306 C288 0.930 . S
H307 C291 0.930 . S
H308 C292 0.931 . S
H309 C296 0.928 . S
H310 C295 0.929 . S
H311 C293 0.932 . S
Ho312 C315 2.811 . S
Ho312 O332 2.322 . S
Ho312 O334 2.378 . S
Ho312 O335 2.524 . S
Ho312 O336 2.381 1_545 S
Ho312 O337 2.669 1_545 S
Ho312 O339 2.346 1_445 S
Ho312 O343 2.305 1_455 S
Ho313 C324 2.811 . S
Ho313 O333 2.346 1_665 S
Ho313 O337 2.305 1_655 S
Ho313 O338 2.322 . S
Ho313 O340 2.378 . S
Ho313 O341 2.524 . S
Ho313 O342 2.381 1_565 S
Ho313 O343 2.669 1_565 S
C314 O332 1.259 . S
C314 O333 1.268 . S
C315 Ho312 2.811 . S
C315 C316 1.488 . S
C315 O334 1.215 . S
C315 O335 1.289 . S
C316 C315 1.488 . S
C316 C317 1.348 . S
C316 C321 1.413 . S
C317 C316 1.348 . S
C317 C318 1.442 . S
C317 H344 0.930 . S
C318 C317 1.442 . S
C318 C319 1.381 . S
C318 H345 0.931 . S
C319 C318 1.381 . S
C319 C320 1.321 . S
C320 C319 1.321 . S
C320 C321 1.403 . S
C320 H346 0.934 . S
C321 C316 1.413 . S
C321 C320 1.403 . S
C321 H347 0.930 . S
C322 O336 1.275 . S
C322 O337 1.256 . S
C323 O338 1.259 . S
C323 O339 1.268 . S
C324 Ho313 2.811 . S
C324 C325 1.488 . S
C324 O340 1.215 . S
C324 O341 1.289 . S
C325 C324 1.488 . S
C325 C326 1.348 . S
C325 C330 1.413 . S
C326 C325 1.348 . S
C326 C327 1.442 . S
C326 H348 0.930 . S
C327 C326 1.442 . S
C327 C328 1.381 . S
C327 H349 0.931 . S
C328 C327 1.381 . S
C328 C329 1.321 . S
C329 C328 1.321 . S
C329 C330 1.403 . S
C329 H350 0.934 . S
C330 C325 1.413 . S
C330 C329 1.403 . S
C330 H351 0.930 . S
C331 O342 1.275 . S
C331 O343 1.256 . S
O332 Ho312 2.322 . S
O332 C314 1.259 . S
O333 Ho313 2.346 1_445 S
O333 C314 1.268 . S
O334 Ho312 2.378 . S
O334 C315 1.215 . S
O335 Ho312 2.524 . S
O335 C315 1.289 . S
O336 Ho312 2.381 1_565 S
O336 C322 1.275 . S
O337 Ho312 2.669 1_565 S
O337 Ho313 2.305 1_455 S
O337 C322 1.256 . S
O338 Ho313 2.322 . S
O338 C323 1.259 . S
O339 Ho312 2.346 1_665 S
O339 C323 1.268 . S
O340 Ho313 2.378 . S
O340 C324 1.215 . S
O341 Ho313 2.524 . S
O341 C324 1.289 . S
O342 Ho313 2.381 1_545 S
O342 C331 1.275 . S
O343 Ho312 2.305 1_655 S
O343 Ho313 2.669 1_545 S
O343 C331 1.256 . S
H344 C317 0.930 . S
H345 C318 0.931 . S
H346 C320 0.934 . S
H347 C321 0.930 . S
H348 C326 0.930 . S
H349 C327 0.931 . S
H350 C329 0.934 . S
H351 C330 0.930 . S
Ho352 C355 2.811 1_565 S
Ho352 O372 2.322 1_565 S
Ho352 O374 2.378 1_565 S
Ho352 O375 2.524 1_565 S
Ho352 O376 2.381 . S
Ho352 O377 2.669 . S
Ho352 O379 2.346 1_554 S
Ho352 O383 2.305 1_564 S
Ho353 C364 2.811 1_545 S
Ho353 O373 2.346 1_556 S
Ho353 O377 2.305 1_546 S
Ho353 O378 2.322 1_545 S
Ho353 O380 2.378 1_545 S
Ho353 O381 2.524 1_545 S
Ho353 O382 2.381 . S
Ho353 O383 2.669 . S
C354 O372 1.259 . S
C354 O373 1.268 . S
C355 Ho352 2.811 1_545 S
C355 C356 1.488 . S
C355 O374 1.215 . S
C355 O375 1.289 . S
C356 C355 1.488 . S
C356 C357 1.348 . S
C356 C361 1.413 . S
C357 C356 1.348 . S
C357 C358 1.442 . S
C357 H384 0.930 . S
C358 C357 1.442 . S
C358 C359 1.381 . S
C358 H385 0.931 . S
C359 C358 1.381 . S
C359 C360 1.321 . S
C360 C359 1.321 . S
C360 C361 1.403 . S
C360 H386 0.934 . S
C361 C356 1.413 . S
C361 C360 1.403 . S
C361 H387 0.930 . S
C362 O376 1.275 . S
C362 O377 1.256 . S
C363 O378 1.259 . S
C363 O379 1.268 . S
C364 Ho353 2.811 1_565 S
C364 C365 1.488 . S
C364 O380 1.215 . S
C364 O381 1.289 . S
C365 C364 1.488 . S
C365 C366 1.348 . S
C365 C370 1.413 . S
C366 C365 1.348 . S
C366 C367 1.442 . S
C366 H388 0.930 . S
C367 C366 1.442 . S
C367 C368 1.381 . S
C367 H389 0.931 . S
C368 C367 1.381 . S
C368 C369 1.321 . S
C369 C368 1.321 . S
C369 C370 1.403 . S
C369 H390 0.934 . S
C370 C365 1.413 . S
C370 C369 1.403 . S
C370 H391 0.930 . S
C371 O382 1.275 . S
C371 O383 1.256 . S
O372 Ho352 2.322 1_545 S
O372 C354 1.259 . S
O373 Ho353 2.346 1_554 S
O373 C354 1.268 . S
O374 Ho352 2.378 1_545 S
O374 C355 1.215 . S
O375 Ho352 2.524 1_545 S
O375 C355 1.289 . S
O376 Ho352 2.381 . S
O376 C362 1.275 . S
O377 Ho352 2.669 . S
O377 Ho353 2.305 1_564 S
O377 C362 1.256 . S
O378 Ho353 2.322 1_565 S
O378 C363 1.259 . S
O379 Ho352 2.346 1_556 S
O379 C363 1.268 . S
O380 Ho353 2.378 1_565 S
O380 C364 1.215 . S
O381 Ho353 2.524 1_565 S
O381 C364 1.289 . S
O382 Ho353 2.381 . S
O382 C371 1.275 . S
O383 Ho352 2.305 1_546 S
O383 Ho353 2.669 . S
O383 C371 1.256 . S
H384 C357 0.930 . S
H385 C358 0.931 . S
H386 C360 0.934 . S
H387 C361 0.930 . S
H388 C366 0.930 . S
H389 C367 0.931 . S
H390 C369 0.934 . S
H391 C370 0.930 . S
Ho392 C395 2.811 . S
Ho392 O412 2.322 . S
Ho392 O414 2.378 . S
Ho392 O415 2.524 . S
Ho392 O416 2.381 . S
Ho392 O417 2.669 . S
Ho392 O419 2.346 . S
Ho392 O423 2.305 . S
Ho393 C404 2.811 . S
Ho393 O413 2.346 . S
Ho393 O417 2.305 . S
Ho393 O418 2.322 . S
Ho393 O420 2.378 . S
Ho393 O421 2.524 . S
Ho393 O422 2.381 . S
Ho393 O423 2.669 . S
C394 O412 1.259 . S
C394 O413 1.268 . S
C395 Ho392 2.811 . S
C395 C396 1.488 . S
C395 O414 1.215 . S
C395 O415 1.289 . S
C396 C395 1.488 . S
C396 C397 1.348 . S
C396 C401 1.413 . S
C397 C396 1.348 . S
C397 C398 1.442 . S
C397 H424 0.930 . S
C398 C397 1.442 . S
C398 C399 1.381 . S
C398 H425 0.931 . S
C399 C398 1.381 . S
C399 C400 1.321 . S
C400 C399 1.321 . S
C400 C401 1.403 . S
C400 H426 0.934 . S
C401 C396 1.413 . S
C401 C400 1.403 . S
C401 H427 0.930 . S
C402 O416 1.275 . S
C402 O417 1.256 . S
C403 O418 1.259 . S
C403 O419 1.268 . S
C404 Ho393 2.811 . S
C404 C405 1.488 . S
C404 O420 1.215 . S
C404 O421 1.289 . S
C405 C404 1.488 . S
C405 C406 1.348 . S
C405 C410 1.413 . S
C406 C405 1.348 . S
C406 C407 1.442 . S
C406 H428 0.930 . S
C407 C406 1.442 . S
C407 C408 1.381 . S
C407 H429 0.931 . S
C408 C407 1.381 . S
C408 C409 1.321 . S
C409 C408 1.321 . S
C409 C410 1.403 . S
C409 H430 0.934 . S
C410 C405 1.413 . S
C410 C409 1.403 . S
C410 H431 0.930 . S
C411 O422 1.275 . S
C411 O423 1.256 . S
O412 Ho392 2.322 . S
O412 C394 1.259 . S
O413 Ho393 2.346 . S
O413 C394 1.268 . S
O414 Ho392 2.378 . S
O414 C395 1.215 . S
O415 Ho392 2.524 . S
O415 C395 1.289 . S
O416 Ho392 2.381 . S
O416 C402 1.275 . S
O417 Ho392 2.669 . S
O417 Ho393 2.305 . S
O417 C402 1.256 . S
O418 Ho393 2.322 . S
O418 C403 1.259 . S
O419 Ho392 2.346 . S
O419 C403 1.268 . S
O420 Ho393 2.378 . S
O420 C404 1.215 . S
O421 Ho393 2.524 . S
O421 C404 1.289 . S
O422 Ho393 2.381 . S
O422 C411 1.275 . S
O423 Ho392 2.305 . S
O423 Ho393 2.669 . S
O423 C411 1.256 . S
H424 C397 0.930 . S
H425 C398 0.931 . S
H426 C400 0.934 . S
H427 C401 0.930 . S
H428 C406 0.930 . S
H429 C407 0.931 . S
H430 C409 0.934 . S
H431 C410 0.930 . S
Ho432 C435 2.811 . S
Ho432 O452 2.322 . S
Ho432 O454 2.378 . S
Ho432 O455 2.524 . S
Ho432 O456 2.381 1_455 S
Ho432 O457 2.669 1_455 S
Ho432 O459 2.346 1_454 S
Ho432 O463 2.305 1_554 S
Ho433 C444 2.811 . S
Ho433 O453 2.346 1_656 S
Ho433 O457 2.305 1_556 S
Ho433 O458 2.322 . S
Ho433 O460 2.378 . S
Ho433 O461 2.524 . S
Ho433 O462 2.381 1_655 S
Ho433 O463 2.669 1_655 S
C434 O452 1.259 . S
C434 O453 1.268 . S
C435 Ho432 2.811 . S
C435 C436 1.488 . S
C435 O454 1.215 . S
C435 O455 1.289 . S
C436 C435 1.488 . S
C436 C437 1.348 . S
C436 C441 1.413 . S
C437 C436 1.348 . S
C437 C438 1.442 . S
C437 H464 0.930 . S
C438 C437 1.442 . S
C438 C439 1.381 . S
C438 H465 0.931 . S
C439 C438 1.381 . S
C439 C440 1.321 . S
C440 C439 1.321 . S
C440 C441 1.403 . S
C440 H466 0.934 . S
C441 C436 1.413 . S
C441 C440 1.403 . S
C441 H467 0.930 . S
C442 O456 1.275 . S
C442 O457 1.256 . S
C443 O458 1.259 . S
C443 O459 1.268 . S
C444 Ho433 2.811 . S
C444 C445 1.488 . S
C444 O460 1.215 . S
C444 O461 1.289 . S
C445 C444 1.488 . S
C445 C446 1.348 . S
C445 C450 1.413 . S
C446 C445 1.348 . S
C446 C447 1.442 . S
C446 H468 0.930 . S
C447 C446 1.442 . S
C447 C448 1.381 . S
C447 H469 0.931 . S
C448 C447 1.381 . S
C448 C449 1.321 . S
C449 C448 1.321 . S
C449 C450 1.403 . S
C449 H470 0.934 . S
C450 C445 1.413 . S
C450 C449 1.403 . S
C450 H471 0.930 . S
C451 O462 1.275 . S
C451 O463 1.256 . S
O452 Ho432 2.322 . S
O452 C434 1.259 . S
O453 Ho433 2.346 1_454 S
O453 C434 1.268 . S
O454 Ho432 2.378 . S
O454 C435 1.215 . S
O455 Ho432 2.524 . S
O455 C435 1.289 . S
O456 Ho432 2.381 1_655 S
O456 C442 1.275 . S
O457 Ho432 2.669 1_655 S
O457 Ho433 2.305 1_554 S
O457 C442 1.256 . S
O458 Ho433 2.322 . S
O458 C443 1.259 . S
O459 Ho432 2.346 1_656 S
O459 C443 1.268 . S
O460 Ho433 2.378 . S
O460 C444 1.215 . S
O461 Ho433 2.524 . S
O461 C444 1.289 . S
O462 Ho433 2.381 1_455 S
O462 C451 1.275 . S
O463 Ho432 2.305 1_556 S
O463 Ho433 2.669 1_455 S
O463 C451 1.256 . S
H464 C437 0.930 . S
H465 C438 0.931 . S
H466 C440 0.934 . S
H467 C441 0.930 . S
H468 C446 0.930 . S
H469 C447 0.931 . S
H470 C449 0.934 . S
H471 C450 0.930 . S
C472 C473 1.369 . S
C472 C474 1.419 . S
C472 H476 0.930 . S
C473 C472 1.369 . S
C473 C482 1.429 . S
C474 C472 1.419 . S
C474 C475 1.363 . S
C474 H477 0.929 . S
C475 C474 1.363 . S
C475 C481 1.428 . S
H476 C472 0.930 . S
H477 C474 0.929 . S
S478 N479 1.613 . S
S478 N480 1.610 . S
N479 S478 1.613 . S
N479 C482 1.350 . S
N480 S478 1.610 . S
N480 C481 1.351 . S
C481 C475 1.428 . S
C481 N480 1.351 . S
C481 C482 1.434 . S
C482 C473 1.429 . S
C482 N479 1.350 . S
C482 C481 1.434 . S
C483 C484 1.369 . S
C483 C485 1.419 . S
C483 H487 0.930 . S
C484 C483 1.369 . S
C484 C493 1.429 . S
C485 C483 1.419 . S
C485 C486 1.363 . S
C485 H488 0.929 . S
C486 C485 1.363 . S
C486 C492 1.428 . S
H487 C483 0.930 . S
H488 C485 0.929 . S
S489 N490 1.613 . S
S489 N491 1.610 . S
N490 S489 1.613 . S
N490 C493 1.350 . S
N491 S489 1.610 . S
N491 C492 1.351 . S
C492 C486 1.428 . S
C492 N491 1.351 . S
C492 C493 1.434 . S
C493 C484 1.429 . S
C493 N490 1.350 . S
C493 C492 1.434 . S
C494 C495 1.369 . S
C494 C496 1.419 . S
C494 H498 0.930 . S
C495 C494 1.369 . S
C495 C504 1.429 . S
C496 C494 1.419 . S
C496 C497 1.363 . S
C496 H499 0.929 . S
C497 C496 1.363 . S
C497 C503 1.428 . S
H498 C494 0.930 . S
H499 C496 0.929 . S
S500 N501 1.613 . S
S500 N502 1.610 . S
N501 S500 1.613 . S
N501 C504 1.350 . S
N502 S500 1.610 . S
N502 C503 1.351 . S
C503 C497 1.428 . S
C503 N502 1.351 . S
C503 C504 1.434 . S
C504 C495 1.429 . S
C504 N501 1.350 . S
C504 C503 1.434 . S
C505 C506 1.369 . S
C505 C507 1.419 . S
C505 H509 0.930 . S
C506 C505 1.369 . S
C506 C515 1.429 . S
C507 C505 1.419 . S
C507 C508 1.363 . S
C507 H510 0.929 . S
C508 C507 1.363 . S
C508 C514 1.428 . S
H509 C505 0.930 . S
H510 C507 0.929 . S
S511 N512 1.613 . S
S511 N513 1.610 . S
N512 S511 1.613 . S
N512 C515 1.350 . S
N513 S511 1.610 . S
N513 C514 1.351 . S
C514 C508 1.428 . S
C514 N513 1.351 . S
C514 C515 1.434 . S
C515 C506 1.429 . S
C515 N512 1.350 . S
C515 C514 1.434 . S
C516 C517 1.369 . S
C516 C518 1.419 . S
C516 H520 0.930 . S
C517 C516 1.369 . S
C517 C526 1.429 . S
C518 C516 1.419 . S
C518 C519 1.363 . S
C518 H521 0.929 . S
C519 C518 1.363 . S
C519 C525 1.428 . S
H520 C516 0.930 . S
H521 C518 0.929 . S
S522 N523 1.613 . S
S522 N524 1.610 . S
N523 S522 1.613 . S
N523 C526 1.350 . S
N524 S522 1.610 . S
N524 C525 1.351 . S
C525 C519 1.428 . S
C525 N524 1.351 . S
C525 C526 1.434 . S
C526 C517 1.429 . S
C526 N523 1.350 . S
C526 C525 1.434 . S
C527 C528 1.369 . S
C527 C529 1.419 . S
C527 H531 0.930 . S
C528 C527 1.369 . S
C528 C537 1.429 . S
C529 C527 1.419 . S
C529 C530 1.363 . S
C529 H532 0.929 . S
C530 C529 1.363 . S
C530 C536 1.428 . S
H531 C527 0.930 . S
H532 C529 0.929 . S
S533 N534 1.613 . S
S533 N535 1.610 . S
N534 S533 1.613 . S
N534 C537 1.350 . S
N535 S533 1.610 . S
N535 C536 1.351 . S
C536 C530 1.428 . S
C536 N535 1.351 . S
C536 C537 1.434 . S
C537 C528 1.429 . S
C537 N534 1.350 . S
C537 C536 1.434 . S
C538 C539 1.369 . S
C538 C540 1.419 . S
C538 H542 0.930 . S
C539 C538 1.369 . S
C539 C548 1.429 . S
C540 C538 1.419 . S
C540 C541 1.363 . S
C540 H543 0.929 . S
C541 C540 1.363 . S
C541 C547 1.428 . S
H542 C538 0.930 . S
H543 C540 0.929 . S
S544 N545 1.613 . S
S544 N546 1.610 . S
N545 S544 1.613 . S
N545 C548 1.350 . S
N546 S544 1.610 . S
N546 C547 1.351 . S
C547 C541 1.428 . S
C547 N546 1.351 . S
C547 C548 1.434 . S
C548 C539 1.429 . S
C548 N545 1.350 . S
C548 C547 1.434 . S
C549 C550 1.369 . S
C549 C551 1.419 . S
C549 H553 0.930 . S
C550 C549 1.369 . S
C550 C559 1.429 . S
C551 C549 1.419 . S
C551 C552 1.363 . S
C551 H554 0.929 . S
C552 C551 1.363 . S
C552 C558 1.428 . S
H553 C549 0.930 . S
H554 C551 0.929 . S
S555 N556 1.613 . S
S555 N557 1.610 . S
N556 S555 1.613 . S
N556 C559 1.350 . S
N557 S555 1.610 . S
N557 C558 1.351 . S
C558 C552 1.428 . S
C558 N557 1.351 . S
C558 C559 1.434 . S
C559 C550 1.429 . S
C559 N556 1.350 . S
C559 C558 1.434 . S
C560 C561 1.369 . S
C560 C562 1.419 . S
C560 H564 0.930 . S
C561 C560 1.369 . S
C561 C570 1.429 . S
C562 C560 1.419 . S
C562 C563 1.363 . S
C562 H565 0.929 . S
C563 C562 1.363 . S
C563 C569 1.428 . S
H564 C560 0.930 . S
H565 C562 0.929 . S
S566 N567 1.613 . S
S566 N568 1.610 . S
N567 S566 1.613 . S
N567 C570 1.350 . S
N568 S566 1.610 . S
N568 C569 1.351 . S
C569 C563 1.428 . S
C569 N568 1.351 . S
C569 C570 1.434 . S
C570 C561 1.429 . S
C570 N567 1.350 . S
C570 C569 1.434 . S
C571 C572 1.369 . S
C571 C573 1.419 . S
C571 H575 0.930 . S
C572 C571 1.369 . S
C572 C581 1.429 . S
C573 C571 1.419 . S
C573 C574 1.363 . S
C573 H576 0.929 . S
C574 C573 1.363 . S
C574 C580 1.428 . S
H575 C571 0.930 . S
H576 C573 0.929 . S
S577 N578 1.613 . S
S577 N579 1.610 . S
N578 S577 1.613 . S
N578 C581 1.350 . S
N579 S577 1.610 . S
N579 C580 1.351 . S
C580 C574 1.428 . S
C580 N579 1.351 . S
C580 C581 1.434 . S
C581 C572 1.429 . S
C581 N578 1.350 . S
C581 C580 1.434 . S
C582 C583 1.369 . S
C582 C584 1.419 . S
C582 H586 0.930 . S
C583 C582 1.369 . S
C583 C592 1.429 . S
C584 C582 1.419 . S
C584 C585 1.363 . S
C584 H587 0.929 . S
C585 C584 1.363 . S
C585 C591 1.428 . S
H586 C582 0.930 . S
H587 C584 0.929 . S
S588 N589 1.613 . S
S588 N590 1.610 . S
N589 S588 1.613 . S
N589 C592 1.350 . S
N590 S588 1.610 . S
N590 C591 1.351 . S
C591 C585 1.428 . S
C591 N590 1.351 . S
C591 C592 1.434 . S
C592 C583 1.429 . S
C592 N589 1.350 . S
C592 C591 1.434 . S
C593 C594 1.369 . S
C593 C595 1.419 . S
C593 H597 0.930 . S
C594 C593 1.369 . S
C594 C603 1.429 . S
C595 C593 1.419 . S
C595 C596 1.363 . S
C595 H598 0.929 . S
C596 C595 1.363 . S
C596 C602 1.428 . S
H597 C593 0.930 . S
H598 C595 0.929 . S
S599 N600 1.613 . S
S599 N601 1.610 . S
N600 S599 1.613 . S
N600 C603 1.350 . S
N601 S599 1.610 . S
N601 C602 1.351 . S
C602 C596 1.428 . S
C602 N601 1.351 . S
C602 C603 1.434 . S
C603 C594 1.429 . S
C603 N600 1.350 . S
C603 C602 1.434 . S
C604 C605 1.369 . S
C604 C606 1.419 . S
C604 H608 0.930 . S
C605 C604 1.369 . S
C605 C614 1.429 . S
C606 C604 1.419 . S
C606 C607 1.363 . S
C606 H609 0.929 . S
C607 C606 1.363 . S
C607 C613 1.428 . S
H608 C604 0.930 . S
H609 C606 0.929 . S
S610 N611 1.613 . S
S610 N612 1.610 . S
N611 S610 1.613 . S
N611 C614 1.350 . S
N612 S610 1.610 . S
N612 C613 1.351 . S
C613 C607 1.428 . S
C613 N612 1.351 . S
C613 C614 1.434 . S
C614 C605 1.429 . S
C614 N611 1.350 . S
C614 C613 1.434 . S
C615 C616 1.369 . S
C615 C617 1.419 . S
C615 H619 0.930 . S
C616 C615 1.369 . S
C616 C625 1.429 . S
C617 C615 1.419 . S
C617 C618 1.363 . S
C617 H620 0.929 . S
C618 C617 1.363 . S
C618 C624 1.428 . S
H619 C615 0.930 . S
H620 C617 0.929 . S
S621 N622 1.613 . S
S621 N623 1.610 . S
N622 S621 1.613 . S
N622 C625 1.350 . S
N623 S621 1.610 . S
N623 C624 1.351 . S
C624 C618 1.428 . S
C624 N623 1.351 . S
C624 C625 1.434 . S
C625 C616 1.429 . S
C625 N622 1.350 . S
C625 C624 1.434 . S
C626 C627 1.369 . S
C626 C628 1.419 . S
C626 H630 0.930 . S
C627 C626 1.369 . S
C627 C636 1.429 . S
C628 C626 1.419 . S
C628 C629 1.363 . S
C628 H631 0.929 . S
C629 C628 1.363 . S
C629 C635 1.428 . S
H630 C626 0.930 . S
H631 C628 0.929 . S
S632 N633 1.613 . S
S632 N634 1.610 . S
N633 S632 1.613 . S
N633 C636 1.350 . S
N634 S632 1.610 . S
N634 C635 1.351 . S
C635 C629 1.428 . S
C635 N634 1.351 . S
C635 C636 1.434 . S
C636 C627 1.429 . S
C636 N633 1.350 . S
C636 C635 1.434 . S
C637 C638 1.369 . S
C637 C639 1.419 . S
C637 H641 0.930 . S
C638 C637 1.369 . S
C638 C647 1.429 . S
C639 C637 1.419 . S
C639 C640 1.363 . S
C639 H642 0.929 . S
C640 C639 1.363 . S
C640 C646 1.428 . S
H641 C637 0.930 . S
H642 C639 0.929 . S
S643 N644 1.613 . S
S643 N645 1.610 . S
N644 S643 1.613 . S
N644 C647 1.350 . S
N645 S643 1.610 . S
N645 C646 1.351 . S
C646 C640 1.428 . S
C646 N645 1.351 . S
C646 C647 1.434 . S
C647 C638 1.429 . S
C647 N644 1.350 . S
C647 C646 1.434 . S
C648 C649 1.369 . S
C648 C650 1.419 . S
C648 H652 0.930 . S
C649 C648 1.369 . S
C649 C658 1.429 . S
C650 C648 1.419 . S
C650 C651 1.363 . S
C650 H653 0.929 . S
C651 C650 1.363 . S
C651 C657 1.428 . S
H652 C648 0.930 . S
H653 C650 0.929 . S
S654 N655 1.613 . S
S654 N656 1.610 . S
N655 S654 1.613 . S
N655 C658 1.350 . S
N656 S654 1.610 . S
N656 C657 1.351 . S
C657 C651 1.428 . S
C657 N656 1.351 . S
C657 C658 1.434 . S
C658 C649 1.429 . S
C658 N655 1.350 . S
C658 C657 1.434 . S
C659 C660 1.369 . S
C659 C661 1.419 . S
C659 H663 0.930 . S
C660 C659 1.369 . S
C660 C669 1.429 . S
C661 C659 1.419 . S
C661 C662 1.363 . S
C661 H664 0.929 . S
C662 C661 1.363 . S
C662 C668 1.428 . S
H663 C659 0.930 . S
H664 C661 0.929 . S
S665 N666 1.613 . S
S665 N667 1.610 . S
N666 S665 1.613 . S
N666 C669 1.350 . S
N667 S665 1.610 . S
N667 C668 1.351 . S
C668 C662 1.428 . S
C668 N667 1.351 . S
C668 C669 1.434 . S
C669 C660 1.429 . S
C669 N666 1.350 . S
C669 C668 1.434 . S
C670 C671 1.369 . S
C670 C672 1.419 . S
C670 H674 0.930 . S
C671 C670 1.369 . S
C671 C680 1.429 . S
C672 C670 1.419 . S
C672 C673 1.363 . S
C672 H675 0.929 . S
C673 C672 1.363 . S
C673 C679 1.428 . S
H674 C670 0.930 . S
H675 C672 0.929 . S
S676 N677 1.613 . S
S676 N678 1.610 . S
N677 S676 1.613 . S
N677 C680 1.350 . S
N678 S676 1.610 . S
N678 C679 1.351 . S
C679 C673 1.428 . S
C679 N678 1.351 . S
C679 C680 1.434 . S
C680 C671 1.429 . S
C680 N677 1.350 . S
C680 C679 1.434 . S
C681 C682 1.369 . S
C681 C683 1.419 . S
C681 H685 0.930 . S
C682 C681 1.369 . S
C682 C691 1.429 . S
C683 C681 1.419 . S
C683 C684 1.363 . S
C683 H686 0.929 . S
C684 C683 1.363 . S
C684 C690 1.428 . S
H685 C681 0.930 . S
H686 C683 0.929 . S
S687 N688 1.613 . S
S687 N689 1.610 . S
N688 S687 1.613 . S
N688 C691 1.350 . S
N689 S687 1.610 . S
N689 C690 1.351 . S
C690 C684 1.428 . S
C690 N689 1.351 . S
C690 C691 1.434 . S
C691 C682 1.429 . S
C691 N688 1.350 . S
C691 C690 1.434 . S
C692 C693 1.369 . S
C692 C694 1.419 . S
C692 H696 0.930 . S
C693 C692 1.369 . S
C693 C702 1.429 . S
C694 C692 1.419 . S
C694 C695 1.363 . S
C694 H697 0.929 . S
C695 C694 1.363 . S
C695 C701 1.428 . S
H696 C692 0.930 . S
H697 C694 0.929 . S
S698 N699 1.613 . S
S698 N700 1.610 . S
N699 S698 1.613 . S
N699 C702 1.350 . S
N700 S698 1.610 . S
N700 C701 1.351 . S
C701 C695 1.428 . S
C701 N700 1.351 . S
C701 C702 1.434 . S
C702 C693 1.429 . S
C702 N699 1.350 . S
C702 C701 1.434 . S
C703 C704 1.369 . S
C703 C705 1.419 . S
C703 H707 0.930 . S
C704 C703 1.369 . S
C704 C713 1.429 . S
C705 C703 1.419 . S
C705 C706 1.363 . S
C705 H708 0.929 . S
C706 C705 1.363 . S
C706 C712 1.428 . S
H707 C703 0.930 . S
H708 C705 0.929 . S
S709 N710 1.613 1_556 S
S709 N711 1.610 1_556 S
N710 S709 1.613 1_554 S
N710 C713 1.350 . S
N711 S709 1.610 1_554 S
N711 C712 1.351 . S
C712 C706 1.428 . S
C712 N711 1.351 . S
C712 C713 1.434 . S
C713 C704 1.429 . S
C713 N710 1.350 . S
C713 C712 1.434 . S
C714 C715 1.369 . S
C714 C716 1.419 . S
C714 H718 0.930 . S
C715 C714 1.369 . S
C715 C724 1.429 . S
C716 C714 1.419 . S
C716 C717 1.363 . S
C716 H719 0.929 . S
C717 C716 1.363 . S
C717 C723 1.428 . S
H718 C714 0.930 . S
H719 C716 0.929 . S
S720 N721 1.613 . S
S720 N722 1.610 . S
N721 S720 1.613 . S
N721 C724 1.350 . S
N722 S720 1.610 . S
N722 C723 1.351 . S
C723 C717 1.428 . S
C723 N722 1.351 . S
C723 C724 1.434 . S
C724 C715 1.429 . S
C724 N721 1.350 . S
C724 C723 1.434 . S
C725 C726 1.369 . S
C725 C727 1.419 . S
C725 H729 0.930 . S
C726 C725 1.369 . S
C726 C735 1.429 . S
C727 C725 1.419 . S
C727 C728 1.363 . S
C727 H730 0.929 . S
C728 C727 1.363 . S
C728 C734 1.428 . S
H729 C725 0.930 . S
H730 C727 0.929 . S
S731 N732 1.613 . S
S731 N733 1.610 . S
N732 S731 1.613 . S
N732 C735 1.350 . S
N733 S731 1.610 . S
N733 C734 1.351 . S
C734 C728 1.428 . S
C734 N733 1.351 . S
C734 C735 1.434 . S
C735 C726 1.429 . S
C735 N732 1.350 . S
C735 C734 1.434 . S
C473 C1 1.312 . S
C475 C319 1.422 . S
C484 C40 1.106 . S
C486 C368 1.093 . S
C497 C394 2.490 . S
C495 C99 2.546 . S
C506 C118 2.445 . S
C508 C442 2.393 . S
C519 C354 2.639 . S
C517 C16 2.419 . S
C530 C322 0.875 . S
C528 C60 0.892 . S
C541 C443 1.934 . S
C539 C79 1.989 . S
C552 C411 1.678 . S
C550 C138 1.687 . S
C561 C21 1.709 . S
C563 C439 1.844 . S
C574 C371 2.353 . S
C572 C94 2.439 . S
C583 C133 2.342 . S
C585 C323 2.334 . S
C594 C55 1.083 . S
C596 C408 1.131 . S
C607 C328 1.428 . S
C605 C157 1.326 . S
C616 C196 1.097 . S
C618 C359 1.102 . S
C627 C255 2.544 . S
C629 C403 2.490 . S
C638 C289 2.441 . S
C640 C451 2.391 . S
C649 C172 2.408 . S
C651 C363 2.635 . S
C662 C331 0.863 . S
C660 C216 0.893 . S
C673 C434 1.933 . S
C671 C235 1.993 . S
C684 C402 1.675 . S
C682 C294 1.687 . S
C693 C177 1.727 . S
C695 C448 1.842 . S
C706 C362 2.356 . S
C704 C250 2.440 . S
C717 C314 2.338 . S
C715 C274 2.344 . S
C726 C211 1.097 . S
C728 C399 1.124 . S
