# Generated by pormake.
# Topology rtl, (3,6)-cn, num edge types: 1
# Building blocks:
#     Node 0, Type 0, BuildingBlock: QEWDON_clean_linker_0, # of connection points: 3
#     Node 1, Type 0, BuildingBlock: QEWDON_clean_linker_0, # of connection points: 3
#     Node 2, Type 0, BuildingBlock: QEWDON_clean_linker_0, # of connection points: 3
#     Node 3, Type 0, BuildingBlock: QEWDON_clean_linker_0, # of connection points: 3
#     Node 4, Type 1, BuildingBlock: KUMJIN_clean_sbu_1, # of connection points: 6
#     Node 5, Type 1, BuildingBlock: KUMJIN_clean_sbu_1, # of connection points: 6
#     Edge 6, Type (0, 1), BuildingBlock: OJICUG_clean_linker_0, # of connection points: 2
#     Edge 7, Type (0, 1), BuildingBlock: OJICUG_clean_linker_0, # of connection points: 2
#     Edge 8, Type (0, 1), BuildingBlock: OJICUG_clean_linker_0, # of connection points: 2
#     Edge 9, Type (0, 1), BuildingBlock: OJICUG_clean_linker_0, # of connection points: 2
#     Edge 10, Type (0, 1), BuildingBlock: OJICUG_clean_linker_0, # of connection points: 2
#     Edge 11, Type (0, 1), BuildingBlock: OJICUG_clean_linker_0, # of connection points: 2
#     Edge 12, Type (0, 1), BuildingBlock: OJICUG_clean_linker_0, # of connection points: 2
#     Edge 13, Type (0, 1), BuildingBlock: OJICUG_clean_linker_0, # of connection points: 2
#     Edge 14, Type (0, 1), BuildingBlock: OJICUG_clean_linker_0, # of connection points: 2
#     Edge 15, Type (0, 1), BuildingBlock: OJICUG_clean_linker_0, # of connection points: 2
#     Edge 16, Type (0, 1), BuildingBlock: OJICUG_clean_linker_0, # of connection points: 2
#     Edge 17, Type (0, 1), BuildingBlock: OJICUG_clean_linker_0, # of connection points: 2
# Relax obj value: 0.086
# Max RMSD: 0.289
# Mean RMSD: 0.218
data_MOF--net-rtl--node1-KUMJIN_clean_sbu_1--node2-QEWDON_clean_linker_0--edge1-OJICUG_clean_linker_0
_symmetry_space_group_name_H-M    P1
_symmetry_Int_Tables_number       1
_symmetry_cell_setting            triclinic
loop_
_symmetry_equiv_pos_as_xyz
'x, y, z'
_cell_length_a     27.827773
_cell_length_b     28.068048
_cell_length_c     20.566907
_cell_angle_alpha  75.197479
_cell_angle_beta   100.43853
_cell_angle_gamma 91.739409
loop_
_atom_site_label
_atom_site_type_symbol
_atom_site_fract_x
_atom_site_fract_y
_atom_site_fract_z
_atom_type_partial_charge
H0 H 0.25099 0.85798 0.13002 0.0
C1 C 0.234 0.86736 0.07651 0.0
C2 C 0.18927 0.89376 0.05579 0.0
C3 C 0.25794 0.85483 0.02788 0.0
H4 H 0.13378 0.92677 0.96941 0.0
C5 C 0.16838 0.90664 0.98633 0.0
C6 C 0.19175 0.89496 0.9377 0.0
C7 C 0.23623 0.86853 0.95826 0.0
C8 C 0.30813 0.83298 0.04901 0.0
H9 H 0.25487 0.86077 0.92007 0.0
C10 C 0.32078 0.79006 0.03134 0.0
C11 C 0.3688 0.77037 0.05314 0.0
C12 C 0.34419 0.85618 0.08695 0.0
H13 H 0.3356 0.88945 0.10036 0.0
C14 C 0.3918 0.8372 0.1072 0.0
H15 H 0.29327 0.7714 0.00283 0.0
C16 C 0.40402 0.7945 0.09074 0.0
H17 H 0.44102 0.7798 0.10814 0.0
H18 H 0.41926 0.85546 0.13628 0.0
H19 H 0.76217 0.70616 0.61596 0.0
C20 C 0.73553 0.69551 0.64923 0.0
C21 C 0.69441 0.66791 0.63031 0.0
C22 C 0.7451 0.70586 0.71357 0.0
H23 H 0.63042 0.6304 0.66396 0.0
C24 C 0.66199 0.65193 0.67691 0.0
C25 C 0.67149 0.66142 0.74195 0.0
C26 C 0.71272 0.68876 0.75933 0.0
C27 C 0.79204 0.72858 0.73697 0.0
H28 H 0.72036 0.69562 0.80974 0.0
C29 C 0.80946 0.77228 0.697 0.0
C30 C 0.85374 0.7931 0.72203 0.0
C31 C 0.82014 0.70544 0.80073 0.0
H32 H 0.80826 0.67147 0.83189 0.0
C33 C 0.86425 0.72517 0.82467 0.0
H34 H 0.788 0.79067 0.64799 0.0
C35 C 0.88092 0.76853 0.7859 0.0
H36 H 0.91554 0.78275 0.80591 0.0
H37 H 0.88567 0.70673 0.87363 0.0
H38 H 0.79498 0.18488 0.20171 0.0
C39 C 0.81385 0.177 0.16382 0.0
C40 C 0.85802 0.14996 0.18485 0.0
C41 C 0.79252 0.19081 0.09404 0.0
H42 H 0.91586 0.11749 0.15368 0.0
C43 C 0.88151 0.13802 0.13647 0.0
C44 C 0.86107 0.15122 0.06689 0.0
C45 C 0.81663 0.17808 0.04574 0.0
C46 C 0.74204 0.2118 0.07233 0.0
H47 H 0.79981 0.18742 0.99216 0.0
C48 C 0.72884 0.25634 0.08539 0.0
C49 C 0.68068 0.27553 0.0613 0.0
C50 C 0.70637 0.18624 0.03751 0.0
H51 H 0.71546 0.15177 0.02767 0.0
C52 C 0.65862 0.20449 0.01554 0.0
H53 H 0.75611 0.27673 0.11147 0.0
C54 C 0.64589 0.24887 0.02691 0.0
H55 H 0.60871 0.26279 0.00817 0.0
H56 H 0.63146 0.18439 0.98888 0.0
H57 H 0.34633 0.306 0.5374 0.0
C58 C 0.35415 0.32563 0.48788 0.0
C59 C 0.37626 0.37211 0.47977 0.0
C60 C 0.34623 0.30266 0.43342 0.0
H61 H 0.40444 0.43217 0.40964 0.0
C62 C 0.38745 0.3964 0.41586 0.0
C63 C 0.38037 0.3741 0.36137 0.0
C64 C 0.35977 0.3271 0.37052 0.0
C65 C 0.33092 0.25047 0.44427 0.0
H66 H 0.35516 0.30899 0.32916 0.0
C67 C 0.28544 0.23461 0.46293 0.0
C68 C 0.27112 0.18528 0.46738 0.0
C69 C 0.36226 0.21622 0.43305 0.0
H70 H 0.39745 0.22744 0.41925 0.0
C71 C 0.34867 0.16734 0.4393 0.0
H72 H 0.2607 0.26076 0.47098 0.0
C73 C 0.30335 0.15201 0.4558 0.0
H74 H 0.29328 0.11394 0.45938 0.0
H75 H 0.37315 0.14133 0.4305 0.0
Eu76 Eu 0.05151 0.9733 0.5209 0.0
C77 C 0.95506 0.17684 0.50654 0.0
N78 N 0.9988 0.15818 0.54443 0.0
C79 C 0.03522 0.23737 0.5143 0.0
C80 C 0.9501 0.22681 0.46977 0.0
C81 C 0.0385 0.18758 0.54959 0.0
C82 C 0.9909 0.25706 0.47401 0.0
C83 C 0.87004 0.16368 0.46229 0.0
C84 C 0.91544 0.1455 0.5028 0.0
C85 C 0.86504 0.21342 0.42571 0.0
C86 C 0.90491 0.24488 0.42946 0.0
Eu87 Eu 1.00076 0.07389 0.60173 0.0
N88 N 0.92172 0.097 0.53693 0.0
C89 C 0.83102 0.13122 0.45933 0.0
C90 C 0.88315 0.06582 0.53665 0.0
C91 C 0.83751 0.08223 0.49718 0.0
H92 H 0.07252 0.17287 0.58187 0.0
H93 H 0.80723 0.05713 0.49644 0.0
H94 H 0.9861 0.87043 0.54581 0.0
H95 H 0.24645 0.99834 0.61061 0.0
H96 H 0.88684 0.02851 0.56741 0.0
H97 H 0.79562 0.14374 0.42867 0.0
H98 H 0.16584 0.02083 0.53904 0.0
H99 H 0.06684 0.26058 0.51839 0.0
H100 H 0.83048 0.22791 0.39415 0.0
H101 H 0.90048 0.28312 0.40072 0.0
H102 H 0.99486 0.78461 0.61702 0.0
H103 H 0.98853 0.29563 0.44653 0.0
H104 H 0.26072 0.91547 0.68999 0.0
N105 N 0.05808 0.88982 0.58302 0.0
C106 C 0.10234 0.87401 0.62188 0.0
C107 C 0.02527 0.80946 0.61931 0.0
C108 C 0.10931 0.82521 0.66277 0.0
C109 C 1.0201 0.85821 0.57982 0.0
C110 C 0.06997 0.79296 0.6614 0.0
N111 N 0.13235 0.95431 0.58284 0.0
C112 C 0.17035 0.98596 0.57612 0.0
C113 C 0.18669 0.89194 0.66241 0.0
C114 C 0.1405 0.90717 0.62192 0.0
C115 C 0.22473 0.92571 0.65968 0.0
C116 C 0.21672 0.97264 0.61539 0.0
H117 H 0.07384 0.75521 0.69212 0.0
H118 H 0.16095 0.77304 0.73609 0.0
H119 H 0.2287 0.83139 0.73564 0.0
O120 O 0.09303 0.98158 0.43838 0.0
O121 O 0.05783 0.9573 0.63602 0.0
O122 O 0.07054 0.03254 0.66014 0.0
O123 O 0.03941 0.92445 0.45213 0.0
O124 O 0.07977 0.05228 0.49568 0.0
O125 O 0.0803 0.08243 0.59048 0.0
O126 O 0.95825 0.06354 0.68343 0.0
O127 O 0.99234 0.08959 0.48636 0.0
O128 O 0.98136 1.01399 0.46253 0.0
O129 O 1.01125 0.1215 0.67215 0.0
O130 O 0.97058 0.99593 0.62592 0.0
O131 O 0.97228 0.96231 0.53444 0.0
C132 C 0.07792 0.98466 0.67612 0.0
C133 C 0.05559 0.95704 0.34053 0.0
C134 C 0.07357 0.95365 0.22991 0.0
C135 C 0.02977 0.98011 0.1978 0.0
C136 C 1.01226 0.98351 0.3077 0.0
C137 C 0.9994 0.99484 0.23656 0.0
C138 C 0.08602 0.94209 0.30165 0.0
C139 C 0.09672 0.0824 0.53429 0.0
C140 C 0.07079 0.9463 0.41499 0.0
C141 C 0.15501 0.81029 0.704 0.0
C142 C 0.19358 0.84355 0.70383 0.0
C143 C 0.97296 0.06173 0.44649 0.0
C144 C 0.99445 0.08674 0.78286 0.0
C145 C 0.97623 0.08962 0.89353 0.0
C146 C 1.01936 0.062 0.92571 0.0
C147 C 0.03712 0.05912 0.81573 0.0
C148 C 0.96422 0.10197 0.82174 0.0
C149 C 0.04952 0.04694 0.88695 0.0
C150 C 0.9558 0.96336 0.59035 0.0
C151 C 0.97976 0.09855 0.70829 0.0
H152 H 1.01879 0.98914 0.14272 0.0
H153 H 0.98863 0.99554 0.33702 0.0
H154 H 0.96588 1.01526 0.21135 0.0
H155 H 0.11996 0.92246 0.32728 0.0
H156 H 0.03002 0.05233 0.98086 0.0
H157 H 0.06061 0.04687 0.7864 0.0
H158 H 0.93079 0.1225 0.79601 0.0
H159 H 0.08253 0.02564 0.91221 0.0
Eu160 Eu 0.47446 0.49888 0.98708 0.0
C161 C 0.65674 0.61781 0.06606 0.0
N162 N 0.64837 0.5694 0.09224 0.0
C163 C 0.72866 0.54781 0.08135 0.0
C164 C 0.70119 0.63303 0.04416 0.0
C165 C 0.68374 0.53443 0.10157 0.0
C166 C 0.73727 0.59727 0.05188 0.0
C167 C 0.6284 0.70274 0.03547 0.0
C168 C 0.62063 0.65206 0.06145 0.0
C169 C 0.67197 0.71804 0.01144 0.0
C170 C 0.70829 0.68326 0.01583 0.0
Eu171 Eu 0.57205 0.54944 0.12577 0.0
N172 N 0.57903 0.63608 0.08555 0.0
C173 C 0.59284 0.73663 0.03642 0.0
C174 C 0.54652 0.66924 0.09216 0.0
C175 C 0.55214 0.71981 0.06609 0.0
H176 H 0.67719 0.49624 0.12463 0.0
H177 H 0.52557 0.74581 0.07012 0.0
H178 H 0.37944 0.5815 0.94981 0.0
H179 H 0.46969 0.29942 0.08244 0.0
H180 H 0.51688 0.65703 0.11924 0.0
H181 H 0.59742 0.77587 0.01696 0.0
H182 H 0.50329 0.37942 0.02739 0.0
H183 H 0.75652 0.51999 0.08827 0.0
H184 H 0.67837 0.75677 0.99077 0.0
H185 H 0.74201 0.69566 0.99809 0.0
H186 H 0.29982 0.58666 0.98346 0.0
H187 H 0.77197 0.60749 0.03584 0.0
H188 H 0.3911 0.29757 0.12333 0.0
N189 N 0.39461 0.50758 0.00924 0.0
C190 C 0.37494 0.46565 0.04332 0.0
C191 C 0.32097 0.55261 1.00181 0.0
C192 C 0.32843 0.46637 0.06131 0.0
C193 C 0.36687 0.54984 0.98428 0.0
C194 C 0.30209 0.51095 0.04177 0.0
N195 N 0.44467 0.42155 0.03871 0.0
C196 C 0.46886 0.37854 0.045 0.0
C197 C 0.37978 0.37672 0.08897 0.0
C198 C 0.40014 0.42125 0.05699 0.0
C199 C 0.40551 0.33254 0.0989 0.0
C200 C 0.44995 0.33342 0.07601 0.0
H201 H 0.26628 0.51307 0.05465 0.0
H202 H 0.27358 0.42244 0.11098 0.0
H203 H 0.31862 0.34395 0.1353 0.0
O204 O 0.49134 0.46612 0.90815 0.0
O205 O 0.49176 0.45732 0.09943 0.0
O206 O 0.50019 0.51888 0.15348 0.0
O207 O 0.41999 0.49831 0.89624 0.0
O208 O 0.55236 0.46887 0.00986 0.0
O209 O 0.58647 0.47007 0.12184 0.0
O210 O 0.58483 0.58222 0.21247 0.0
O211 O 0.58882 0.55493 0.01937 0.0
O212 O 0.51501 0.56864 0.94569 0.0
O213 O 0.61551 0.51031 0.22449 0.0
O214 O 0.49282 0.57623 0.10044 0.0
O215 O 0.46593 0.57978 0.9866 0.0
C216 C 0.48356 0.47561 0.14882 0.0
C217 C 0.44842 0.49598 0.79606 0.0
C218 C 0.43432 0.48274 0.6817 0.0
C219 C 0.45164 0.53034 0.65674 0.0
C220 C 0.46518 0.54343 0.77047 0.0
C221 C 0.4667 0.56055 0.70092 0.0
C222 C 0.43248 0.46592 0.75159 0.0
C223 C 0.58374 0.45218 0.06744 0.0
C224 C 0.44872 0.47649 0.86923 0.0
C225 C 0.30897 0.42242 0.09606 0.0
C226 C 0.33453 0.37768 0.10968 0.0
C227 C 0.56275 0.57346 0.95827 0.0
C228 C 0.65647 0.56147 0.29378 0.0
C229 C 0.69259 0.59841 0.38677 0.0
C230 C 0.7377 0.60015 0.36472 0.0
C231 C 0.70197 0.56317 0.27313 0.0
C232 C 0.65211 0.57857 0.35126 0.0
C233 C 0.74235 0.58227 0.30865 0.0
C234 C 0.46598 0.59676 0.0407 0.0
C235 C 0.6122 0.54628 0.25311 0.0
H236 H 0.45339 0.54419 0.603 0.0
H237 H 0.47726 0.5669 0.80438 0.0
H238 H 0.4799 0.59714 0.68129 0.0
H239 H 0.42 0.429 0.77167 0.0
H240 H 0.76949 0.61499 0.39131 0.0
H241 H 0.70622 0.55039 0.22921 0.0
H242 H 0.6169 0.5779 0.36699 0.0
H243 H 0.77731 0.58366 0.29224 0.0
C244 C 0.20834 0.1645 0.54414 0.0
C245 C 0.22221 0.16739 0.48089 0.0
H246 H 0.15794 0.13479 0.61135 0.0
C247 C 0.19205 0.1464 0.43344 0.0
H248 H 0.23134 0.17989 0.58188 0.0
C249 C 0.15017 0.12099 0.44984 0.0
C250 C 0.13752 0.11539 0.51453 0.0
H251 H 0.202 0.14807 0.38435 0.0
H252 H 0.12869 0.10413 0.41249 0.0
C253 C 0.16641 0.13854 0.56095 0.0
C254 C 0.38969 0.6814 0.09881 0.0
C255 C 0.38287 0.72276 0.04271 0.0
H256 H 0.4206 0.60892 0.14145 0.0
C257 C 0.39841 0.72035 0.98225 0.0
H258 H 0.37854 0.68266 0.14618 0.0
C259 C 0.42277 0.67793 0.97941 0.0
C260 C 0.43246 0.63782 0.03739 0.0
H261 H 0.39428 0.75222 0.93878 0.0
H262 H 0.43672 0.67775 0.93361 0.0
C263 C 0.41408 0.6394 0.09616 0.0
C264 C 0.89253 0.8751 0.71945 0.0
C265 C 0.87258 0.84043 0.68377 0.0
H266 H 0.93399 0.94034 0.71846 0.0
C267 C 0.8752 0.84962 0.61398 0.0
H268 H 0.8902 0.86985 0.77283 0.0
C269 C 0.90012 0.89091 0.58208 0.0
C270 C 0.92327 0.92344 0.61955 0.0
H271 H 0.86 0.82379 0.58493 0.0
H272 H 0.9026 0.8964 0.52874 0.0
C273 C 0.91751 0.91585 0.68795 0.0
C274 C 0.66132 0.33387 0.12893 0.0
C275 C 0.66579 0.32472 0.06612 0.0
H276 H 0.63174 0.38189 0.17915 0.0
C277 C 0.64834 0.3604 0.00547 0.0
H278 H 0.67407 0.30662 0.17638 0.0
C279 C 0.62417 0.40281 0.00689 0.0
C280 C 0.61653 0.41081 0.06908 0.0
H281 H 0.65136 0.35427 0.95642 0.0
H282 H 0.6098 0.42854 0.95863 0.0
C283 C 0.63693 0.37678 0.13043 0.0
C284 C 0.15752 0.87756 0.16668 0.0
C285 C 0.16428 0.91008 0.10474 0.0
H286 H 0.12285 0.8655 0.25448 0.0
C287 C 0.14361 0.95784 0.08678 0.0
H288 H 0.17274 0.84049 0.18169 0.0
C289 C 0.11494 0.97202 0.12789 0.0
C290 C 0.1064 0.93897 0.18844 0.0
H291 H 0.14898 0.9842 0.0401 0.0
H292 H 0.09925 1.00894 0.11201 0.0
C293 C 0.12883 0.89188 0.20817 0.0
C294 C 0.66571 0.60757 0.8573 0.0
C295 C 0.64215 0.6382 0.79523 0.0
H296 H 0.6589 0.56157 0.955 0.0
C297 C 0.59147 0.64661 0.78577 0.0
H298 H 0.70458 0.59983 0.8657 0.0
C299 C 0.56531 0.62587 0.8385 0.0
C300 C 0.58918 0.5955 0.901 0.0
H301 H 0.57242 0.67014 0.73835 0.0
H302 H 0.52665 0.63422 0.83072 0.0
C303 C 0.63952 0.58604 0.90891 0.0
C304 C 0.87632 0.07939 0.28683 0.0
C305 C 0.8795 0.13007 0.25728 0.0
H306 H 0.90342 0.01789 0.37023 0.0
C307 C 0.91178 0.15861 0.29146 0.0
H308 H 0.85237 0.05663 0.26016 0.0
C309 C 0.94184 0.13637 0.35339 0.0
C310 C 0.93985 0.0853 0.38223 0.0
H311 H 0.91567 0.19748 0.26843 0.0
H312 H 0.96787 0.15894 0.37739 0.0
C313 C 0.90609 0.05719 0.34901 0.0
C314 C 0.36092 0.39909 0.58261 0.0
C315 C 0.39231 0.39471 0.53799 0.0
H316 H 0.34966 0.43089 0.66354 0.0
C317 C 0.43888 0.41582 0.5455 0.0
H318 H 0.32492 0.38314 0.5781 0.0
C319 C 0.45251 0.44358 0.59291 0.0
C320 C 0.42036 0.45018 0.63511 0.0
H321 H 0.46453 0.41193 0.51327 0.0
H322 H 0.48816 0.46039 0.59613 0.0
C323 C 0.37496 0.42653 0.63109 0.0
C324 C 0.70416 0.6824 0.50688 0.0
C325 C 0.6885 0.65209 0.56494 0.0
H326 H 0.718 0.68908 0.40567 0.0
C327 C 0.67065 0.60505 0.56136 0.0
H328 H 0.717 0.71924 0.50658 0.0
C329 C 0.6701 0.58835 0.50252 0.0
C330 C 0.68818 0.61784 0.44632 0.0
H331 H 0.65895 0.58012 0.60496 0.0
H332 H 0.65751 0.55151 0.50209 0.0
C333 C 0.70451 0.66529 0.44873 0.0
C334 C 0.89353 0.16704 0.95663 0.0
C335 C 0.88604 0.13457 0.01822 0.0
H336 H 0.92865 0.17866 0.86935 0.0
C337 C 0.90588 0.08646 0.03607 0.0
H338 H 0.87895 0.20437 0.94174 0.0
C339 C 0.93439 0.07184 0.99513 0.0
C340 C 0.94364 0.10481 0.93491 0.0
H341 H 0.89993 0.06016 0.0825 0.0
H342 H 0.94937 0.03464 0.01086 0.0
C343 C 0.9221 0.15231 0.91537 0.0
C344 C 0.39478 0.44981 0.27174 0.0
C345 C 0.40017 0.39848 0.29874 0.0
H346 H 0.41743 0.51432 0.20369 0.0
C347 C 0.43044 0.37216 0.27178 0.0
H348 H 0.37123 0.47105 0.29076 0.0
C349 C 0.45687 0.39708 0.22179 0.0
C350 C 0.45341 0.44863 0.19794 0.0
H351 H 0.43579 0.33272 0.29192 0.0
H352 H 0.48135 0.37628 0.20359 0.0
C353 C 0.42143 0.47464 0.22232 0.0
C354 C 0.13492 0.88734 0.8331 0.0
C355 C 0.16996 0.91463 0.86542 0.0
H356 H 0.07727 0.88867 0.74829 0.0
C357 C 0.17608 0.96452 0.83416 0.0
H358 H 0.1288 0.84917 0.85754 0.0
C359 C 0.14657 0.9873 0.77203 0.0
C360 C 0.11034 0.96048 0.74053 0.0
H361 H 0.20219 0.98639 0.85946 0.0
H362 H 0.15149 0.02604 0.74935 0.0
C363 C 0.10529 0.9101 0.77108 0.0
loop_
_geom_bond_atom_site_label_1
_geom_bond_atom_site_label_2
_geom_bond_distance
_geom_bond_site_symmetry_2
_ccdc_geom_bond_type
H0 C1 0.949 . S
C1 H0 0.949 . S
C1 C2 1.395 . S
C1 C3 1.391 . S
C2 C1 1.395 . S
C2 C5 1.390 . S
C3 C1 1.391 . S
C3 C7 1.387 1_554 S
C3 C8 1.491 . S
H4 C5 0.950 . S
C5 C2 1.390 . S
C5 H4 0.950 . S
C5 C6 1.378 1_554 S
C6 C5 1.378 1_556 S
C6 C7 1.409 . S
C7 C3 1.387 1_556 S
C7 C6 1.409 . S
C7 H9 0.951 . S
C8 C3 1.491 . S
C8 C10 1.382 . S
C8 C12 1.404 1_554 S
H9 C7 0.951 . S
C10 C8 1.382 . S
C10 C11 1.390 . S
C10 H15 0.949 . S
C11 C10 1.390 . S
C11 C16 1.399 . S
C12 C8 1.404 1_556 S
C12 H13 0.950 . S
C12 C14 1.375 . S
H13 C12 0.950 . S
C14 C12 1.375 . S
C14 C16 1.382 1_556 S
C14 H18 0.950 . S
H15 C10 0.949 . S
C16 C11 1.399 . S
C16 C14 1.382 1_554 S
C16 H17 0.952 . S
H17 C16 0.952 . S
H18 C14 0.950 . S
H19 C20 0.949 . S
C20 H19 0.949 . S
C20 C21 1.395 . S
C20 C22 1.391 . S
C21 C20 1.395 . S
C21 C24 1.390 . S
C22 C20 1.391 . S
C22 C26 1.387 . S
C22 C27 1.491 . S
H23 C24 0.950 . S
C24 C21 1.390 . S
C24 H23 0.950 . S
C24 C25 1.378 . S
C25 C24 1.378 . S
C25 C26 1.409 . S
C26 C22 1.387 . S
C26 C25 1.409 . S
C26 H28 0.951 . S
C27 C22 1.491 . S
C27 C29 1.382 . S
C27 C31 1.404 . S
H28 C26 0.951 . S
C29 C27 1.382 . S
C29 C30 1.390 . S
C29 H34 0.949 . S
C30 C29 1.390 . S
C30 C35 1.399 . S
C31 C27 1.404 . S
C31 H32 0.950 . S
C31 C33 1.375 . S
H32 C31 0.950 . S
C33 C31 1.375 . S
C33 C35 1.382 . S
C33 H37 0.950 . S
H34 C29 0.949 . S
C35 C30 1.399 . S
C35 C33 1.382 . S
C35 H36 0.952 . S
H36 C35 0.952 . S
H37 C33 0.950 . S
H38 C39 0.949 . S
C39 H38 0.949 . S
C39 C40 1.395 . S
C39 C41 1.391 . S
C40 C39 1.395 . S
C40 C43 1.390 . S
C41 C39 1.391 . S
C41 C45 1.387 . S
C41 C46 1.491 . S
H42 C43 0.950 . S
C43 C40 1.390 . S
C43 H42 0.950 . S
C43 C44 1.378 . S
C44 C43 1.378 . S
C44 C45 1.409 . S
C45 C41 1.387 . S
C45 C44 1.409 . S
C45 H47 0.951 1_554 S
C46 C41 1.491 . S
C46 C48 1.382 . S
C46 C50 1.404 1_554 S
H47 C45 0.951 1_556 S
C48 C46 1.382 . S
C48 C49 1.390 . S
C48 H53 0.949 . S
C49 C48 1.390 . S
C49 C54 1.399 . S
C50 C46 1.404 1_556 S
C50 H51 0.950 . S
C50 C52 1.375 . S
H51 C50 0.950 . S
C52 C50 1.375 . S
C52 C54 1.382 1_556 S
C52 H56 0.950 . S
H53 C48 0.949 . S
C54 C49 1.399 . S
C54 C52 1.382 1_554 S
C54 H55 0.952 1_554 S
H55 C54 0.952 1_556 S
H56 C52 0.950 . S
H57 C58 0.949 . S
C58 H57 0.949 . S
C58 C59 1.395 . S
C58 C60 1.391 . S
C59 C58 1.395 . S
C59 C62 1.390 . S
C60 C58 1.391 . S
C60 C64 1.387 . S
C60 C65 1.491 . S
H61 C62 0.950 . S
C62 C59 1.390 . S
C62 H61 0.950 . S
C62 C63 1.378 . S
C63 C62 1.378 . S
C63 C64 1.409 . S
C64 C60 1.387 . S
C64 C63 1.409 . S
C64 H66 0.951 . S
C65 C60 1.491 . S
C65 C67 1.382 . S
C65 C69 1.404 . S
H66 C64 0.951 . S
C67 C65 1.382 . S
C67 C68 1.390 . S
C67 H72 0.949 . S
C68 C67 1.390 . S
C68 C73 1.399 . S
C69 C65 1.404 . S
C69 H70 0.950 . S
C69 C71 1.375 . S
H70 C69 0.950 . S
C71 C69 1.375 . S
C71 C73 1.382 . S
C71 H75 0.950 . S
H72 C67 0.949 . S
C73 C68 1.399 . S
C73 C71 1.382 . S
C73 H74 0.952 . S
H74 C73 0.952 . S
H75 C71 0.950 . S
Eu76 N105 2.600 . S
Eu76 N111 2.562 . S
Eu76 O120 2.462 . S
Eu76 O121 2.373 . S
Eu76 O123 2.432 . S
Eu76 O124 2.291 1_565 S
Eu76 O128 2.335 1_465 S
Eu76 O131 2.372 1_455 S
Eu76 C140 2.787 . S
C77 N78 1.365 . S
C77 C80 1.405 . S
C77 C84 1.448 . S
N78 C77 1.365 . S
N78 C81 1.319 1_655 S
N78 Eu87 2.600 . S
C79 C81 1.397 . S
C79 C82 1.367 1_455 S
C79 H99 0.931 . S
C80 C77 1.405 . S
C80 C82 1.403 . S
C80 C86 1.439 . S
C81 N78 1.319 1_455 S
C81 C79 1.397 . S
C81 H92 0.930 . S
C82 C79 1.367 1_655 S
C82 C80 1.403 . S
C82 H103 0.929 . S
C83 C84 1.430 . S
C83 C85 1.387 . S
C83 C89 1.404 . S
C84 C77 1.448 . S
C84 C83 1.430 . S
C84 N88 1.351 . S
C85 C83 1.387 . S
C85 C86 1.374 . S
C85 H100 0.931 . S
C86 C80 1.439 . S
C86 C85 1.374 . S
C86 H101 0.931 . S
Eu87 N78 2.600 . S
Eu87 N88 2.562 . S
Eu87 O122 2.335 1_655 S
Eu87 O125 2.372 1_655 S
Eu87 O126 2.462 . S
Eu87 O127 2.373 . S
Eu87 O129 2.432 . S
Eu87 O130 2.291 1_545 S
Eu87 C151 2.787 . S
N88 C84 1.351 . S
N88 Eu87 2.562 . S
N88 C90 1.325 . S
C89 C83 1.404 . S
C89 C91 1.366 . S
C89 H97 0.930 . S
C90 N88 1.325 . S
C90 C91 1.416 . S
C90 H96 0.929 . S
C91 C89 1.366 . S
C91 C90 1.416 . S
C91 H93 0.930 . S
H92 C81 0.930 . S
H93 C91 0.930 . S
H94 C109 0.930 1_655 S
H95 C116 0.930 . S
H96 C90 0.929 . S
H97 C89 0.930 . S
H98 C112 0.929 . S
H99 C79 0.931 . S
H100 C85 0.931 . S
H101 C86 0.931 . S
H102 C107 0.931 1_655 S
H103 C82 0.929 . S
H104 C115 0.930 . S
N105 Eu76 2.600 . S
N105 C106 1.365 . S
N105 C109 1.319 . S
C106 N105 1.365 . S
C106 C108 1.405 . S
C106 C114 1.448 . S
C107 H102 0.931 1_455 S
C107 C109 1.397 . S
C107 C110 1.367 . S
C108 C106 1.405 . S
C108 C110 1.403 . S
C108 C141 1.439 . S
C109 H94 0.930 1_455 S
C109 N105 1.319 . S
C109 C107 1.397 . S
C110 C107 1.367 . S
C110 C108 1.403 . S
C110 H117 0.929 . S
N111 Eu76 2.562 . S
N111 C112 1.325 . S
N111 C114 1.351 . S
C112 H98 0.929 . S
C112 N111 1.325 . S
C112 C116 1.416 . S
C113 C114 1.430 . S
C113 C115 1.404 . S
C113 C142 1.387 . S
C114 C106 1.448 . S
C114 N111 1.351 . S
C114 C113 1.430 . S
C115 H104 0.930 . S
C115 C113 1.404 . S
C115 C116 1.366 . S
C116 H95 0.930 . S
C116 C112 1.416 . S
C116 C115 1.366 . S
H117 C110 0.929 . S
H118 C141 0.931 . S
H119 C142 0.931 . S
O120 Eu76 2.462 . S
O120 C140 1.252 . S
O121 Eu76 2.373 . S
O121 C132 1.249 . S
O122 Eu87 2.335 1_455 S
O122 C132 1.264 1_545 S
O123 Eu76 2.432 . S
O123 C140 1.268 . S
O124 Eu76 2.291 1_545 S
O124 C139 1.255 . S
O125 Eu87 2.372 1_455 S
O125 C139 1.257 . S
O126 Eu87 2.462 . S
O126 C151 1.252 . S
O127 Eu87 2.373 . S
O127 C143 1.249 . S
O128 Eu76 2.335 1_645 S
O128 C143 1.264 . S
O129 Eu87 2.432 . S
O129 C151 1.268 . S
O130 Eu87 2.291 1_565 S
O130 C150 1.255 . S
O131 Eu76 2.372 1_655 S
O131 C150 1.257 . S
C132 O121 1.249 . S
C132 O122 1.264 1_565 S
C133 C136 1.382 . S
C133 C138 1.390 . S
C133 C140 1.506 . S
C134 C135 1.398 . S
C134 C138 1.392 . S
C135 C134 1.398 . S
C135 C137 1.372 . S
C135 H152 0.931 . S
C136 C133 1.382 . S
C136 C137 1.390 . S
C136 H153 0.931 . S
C137 C135 1.372 . S
C137 C136 1.390 . S
C137 H154 0.929 . S
C138 C133 1.390 . S
C138 C134 1.392 . S
C138 H155 0.930 . S
C139 O124 1.255 . S
C139 O125 1.257 . S
C140 Eu76 2.787 . S
C140 O120 1.252 . S
C140 O123 1.268 . S
C140 C133 1.506 . S
C141 C108 1.439 . S
C141 H118 0.931 . S
C141 C142 1.374 . S
C142 C113 1.387 . S
C142 H119 0.931 . S
C142 C141 1.374 . S
C143 O127 1.249 . S
C143 O128 1.264 . S
C144 C147 1.382 . S
C144 C148 1.390 . S
C144 C151 1.506 . S
C145 C146 1.398 . S
C145 C148 1.392 . S
C146 C145 1.398 . S
C146 C149 1.372 . S
C146 H156 0.931 . S
C147 C144 1.382 . S
C147 C149 1.390 . S
C147 H157 0.931 . S
C148 C144 1.390 . S
C148 C145 1.392 . S
C148 H158 0.930 . S
C149 C146 1.372 . S
C149 C147 1.390 . S
C149 H159 0.929 . S
C150 O130 1.255 . S
C150 O131 1.257 . S
C151 Eu87 2.787 . S
C151 O126 1.252 . S
C151 O129 1.268 . S
C151 C144 1.506 . S
H152 C135 0.931 . S
H153 C136 0.931 . S
H154 C137 0.929 . S
H155 C138 0.930 . S
H156 C146 0.931 . S
H157 C147 0.931 . S
H158 C148 0.930 . S
H159 C149 0.929 . S
Eu160 N189 2.600 . S
Eu160 N195 2.562 . S
Eu160 O204 2.462 1_554 S
Eu160 O205 2.373 . S
Eu160 O207 2.432 1_554 S
Eu160 O208 2.291 . S
Eu160 O212 2.335 1_554 S
Eu160 O215 2.372 . S
Eu160 C224 2.787 1_554 S
C161 N162 1.365 . S
C161 C164 1.405 . S
C161 C168 1.448 . S
N162 C161 1.365 . S
N162 C165 1.319 . S
N162 Eu171 2.600 . S
C163 C165 1.397 . S
C163 C166 1.367 . S
C163 H183 0.931 . S
C164 C161 1.405 . S
C164 C166 1.403 . S
C164 C170 1.439 . S
C165 N162 1.319 . S
C165 C163 1.397 . S
C165 H176 0.930 . S
C166 C163 1.367 . S
C166 C164 1.403 . S
C166 H187 0.929 . S
C167 C168 1.430 . S
C167 C169 1.387 . S
C167 C173 1.404 . S
C168 C161 1.448 . S
C168 C167 1.430 . S
C168 N172 1.351 . S
C169 C167 1.387 . S
C169 C170 1.374 . S
C169 H184 0.931 . S
C170 C164 1.439 . S
C170 C169 1.374 . S
C170 H185 0.931 . S
Eu171 N162 2.600 . S
Eu171 N172 2.562 . S
Eu171 O206 2.335 . S
Eu171 O209 2.372 . S
Eu171 O210 2.462 . S
Eu171 O211 2.373 . S
Eu171 O213 2.432 . S
Eu171 O214 2.291 . S
Eu171 C235 2.787 . S
N172 C168 1.351 . S
N172 Eu171 2.562 . S
N172 C174 1.325 . S
C173 C167 1.404 . S
C173 C175 1.366 . S
C173 H181 0.930 . S
C174 N172 1.325 . S
C174 C175 1.416 . S
C174 H180 0.929 . S
C175 C173 1.366 . S
C175 C174 1.416 . S
C175 H177 0.930 . S
H176 C165 0.930 . S
H177 C175 0.930 . S
H178 C193 0.930 . S
H179 C200 0.930 . S
H180 C174 0.929 . S
H181 C173 0.930 . S
H182 C196 0.929 . S
H183 C163 0.931 . S
H184 C169 0.931 . S
H185 C170 0.931 . S
H186 C191 0.931 . S
H187 C166 0.929 . S
H188 C199 0.930 . S
N189 Eu160 2.600 . S
N189 C190 1.365 . S
N189 C193 1.319 1_554 S
C190 N189 1.365 . S
C190 C192 1.405 . S
C190 C198 1.448 . S
C191 H186 0.931 . S
C191 C193 1.397 . S
C191 C194 1.367 1_556 S
C192 C190 1.405 . S
C192 C194 1.403 . S
C192 C225 1.439 . S
C193 H178 0.930 . S
C193 N189 1.319 1_556 S
C193 C191 1.397 . S
C194 C191 1.367 1_554 S
C194 C192 1.403 . S
C194 H201 0.929 . S
N195 Eu160 2.562 . S
N195 C196 1.325 . S
N195 C198 1.351 . S
C196 H182 0.929 . S
C196 N195 1.325 . S
C196 C200 1.416 . S
C197 C198 1.430 . S
C197 C199 1.404 . S
C197 C226 1.387 . S
C198 C190 1.448 . S
C198 N195 1.351 . S
C198 C197 1.430 . S
C199 H188 0.930 . S
C199 C197 1.404 . S
C199 C200 1.366 . S
C200 H179 0.930 . S
C200 C196 1.416 . S
C200 C199 1.366 . S
H201 C194 0.929 . S
H202 C225 0.931 . S
H203 C226 0.931 . S
O204 Eu160 2.462 1_556 S
O204 C224 1.252 . S
O205 Eu160 2.373 . S
O205 C216 1.249 . S
O206 Eu171 2.335 . S
O206 C216 1.264 . S
O207 Eu160 2.432 1_556 S
O207 C224 1.268 . S
O208 Eu160 2.291 . S
O208 C223 1.255 . S
O209 Eu171 2.372 . S
O209 C223 1.257 . S
O210 Eu171 2.462 . S
O210 C235 1.252 . S
O211 Eu171 2.373 . S
O211 C227 1.249 1_554 S
O212 Eu160 2.335 1_556 S
O212 C227 1.264 . S
O213 Eu171 2.432 . S
O213 C235 1.268 . S
O214 Eu171 2.291 . S
O214 C234 1.255 . S
O215 Eu160 2.372 . S
O215 C234 1.257 . S
C216 O205 1.249 . S
C216 O206 1.264 . S
C217 C220 1.382 . S
C217 C222 1.390 . S
C217 C224 1.506 . S
C218 C219 1.398 . S
C218 C222 1.392 . S
C219 C218 1.398 . S
C219 C221 1.372 . S
C219 H236 0.931 . S
C220 C217 1.382 . S
C220 C221 1.390 . S
C220 H237 0.931 . S
C221 C219 1.372 . S
C221 C220 1.390 . S
C221 H238 0.929 . S
C222 C217 1.390 . S
C222 C218 1.392 . S
C222 H239 0.930 . S
C223 O208 1.255 . S
C223 O209 1.257 . S
C224 Eu160 2.787 1_556 S
C224 O204 1.252 . S
C224 O207 1.268 . S
C224 C217 1.506 . S
C225 C192 1.439 . S
C225 H202 0.931 . S
C225 C226 1.374 . S
C226 C197 1.387 . S
C226 H203 0.931 . S
C226 C225 1.374 . S
C227 O211 1.249 1_556 S
C227 O212 1.264 . S
C228 C231 1.382 . S
C228 C232 1.390 . S
C228 C235 1.506 . S
C229 C230 1.398 . S
C229 C232 1.392 . S
C230 C229 1.398 . S
C230 C233 1.372 . S
C230 H240 0.931 . S
C231 C228 1.382 . S
C231 C233 1.390 . S
C231 H241 0.931 . S
C232 C228 1.390 . S
C232 C229 1.392 . S
C232 H242 0.930 . S
C233 C230 1.372 . S
C233 C231 1.390 . S
C233 H243 0.929 . S
C234 O214 1.255 . S
C234 O215 1.257 . S
C235 Eu171 2.787 . S
C235 O210 1.252 . S
C235 O213 1.268 . S
C235 C228 1.506 . S
H236 C219 0.931 . S
H237 C220 0.931 . S
H238 C221 0.929 . S
H239 C222 0.930 . S
H240 C230 0.931 . S
H241 C231 0.931 . S
H242 C232 0.930 . S
H243 C233 0.929 . S
C244 C245 1.387 . S
C244 H248 0.950 . S
C244 C253 1.390 . S
C245 C244 1.387 . S
C245 C247 1.387 . S
H246 C253 0.950 . S
C247 C245 1.387 . S
C247 C249 1.390 . S
C247 H251 0.950 . S
H248 C244 0.950 . S
C249 C247 1.390 . S
C249 C250 1.387 . S
C249 H252 0.950 . S
C250 C249 1.387 . S
C250 C253 1.387 . S
H251 C247 0.950 . S
H252 C249 0.950 . S
C253 C244 1.390 . S
C253 H246 0.950 . S
C253 C250 1.387 . S
C254 C255 1.387 . S
C254 H258 0.950 . S
C254 C263 1.390 . S
C255 C254 1.387 . S
C255 C257 1.387 . S
H256 C263 0.950 . S
C257 C255 1.387 . S
C257 C259 1.390 . S
C257 H261 0.950 1_554 S
H258 C254 0.950 . S
C259 C257 1.390 . S
C259 C260 1.387 . S
C259 H262 0.950 1_554 S
C260 C259 1.387 . S
C260 C263 1.387 . S
H261 C257 0.950 1_556 S
H262 C259 0.950 1_556 S
C263 C254 1.390 . S
C263 H256 0.950 . S
C263 C260 1.387 . S
C264 C265 1.387 . S
C264 H268 0.950 . S
C264 C273 1.390 . S
C265 C264 1.387 . S
C265 C267 1.387 . S
H266 C273 0.950 . S
C267 C265 1.387 . S
C267 C269 1.390 . S
C267 H271 0.950 . S
H268 C264 0.950 . S
C269 C267 1.390 . S
C269 C270 1.387 . S
C269 H272 0.950 . S
C270 C269 1.387 . S
C270 C273 1.387 . S
H271 C267 0.950 . S
H272 C269 0.950 . S
C273 C264 1.390 . S
C273 H266 0.950 . S
C273 C270 1.387 . S
C274 C275 1.387 . S
C274 H278 0.950 . S
C274 C283 1.390 . S
C275 C274 1.387 . S
C275 C277 1.387 . S
H276 C283 0.950 . S
C277 C275 1.387 . S
C277 C279 1.390 . S
C277 H281 0.950 1_554 S
H278 C274 0.950 . S
C279 C277 1.390 . S
C279 C280 1.387 . S
C279 H282 0.950 1_554 S
C280 C279 1.387 . S
C280 C283 1.387 . S
H281 C277 0.950 1_556 S
H282 C279 0.950 1_556 S
C283 C274 1.390 . S
C283 H276 0.950 . S
C283 C280 1.387 . S
C284 C285 1.387 . S
C284 H288 0.950 . S
C284 C293 1.390 . S
C285 C284 1.387 . S
C285 C287 1.387 . S
H286 C293 0.950 . S
C287 C285 1.387 . S
C287 C289 1.390 . S
C287 H291 0.950 . S
H288 C284 0.950 . S
C289 C287 1.390 . S
C289 C290 1.387 . S
C289 H292 0.950 1_565 S
C290 C289 1.387 . S
C290 C293 1.387 . S
H291 C287 0.950 . S
H292 C289 0.950 1_545 S
C293 C284 1.390 . S
C293 H286 0.950 . S
C293 C290 1.387 . S
C294 C295 1.387 . S
C294 H298 0.950 . S
C294 C303 1.390 . S
C295 C294 1.387 . S
C295 C297 1.387 . S
H296 C303 0.950 . S
C297 C295 1.387 . S
C297 C299 1.390 . S
C297 H301 0.950 . S
H298 C294 0.950 . S
C299 C297 1.390 . S
C299 C300 1.387 . S
C299 H302 0.950 . S
C300 C299 1.387 . S
C300 C303 1.387 . S
H301 C297 0.950 . S
H302 C299 0.950 . S
C303 C294 1.390 . S
C303 H296 0.950 . S
C303 C300 1.387 . S
C304 C305 1.387 . S
C304 H308 0.950 . S
C304 C313 1.390 . S
C305 C304 1.387 . S
C305 C307 1.387 . S
H306 C313 0.950 . S
C307 C305 1.387 . S
C307 C309 1.390 . S
C307 H311 0.950 . S
H308 C304 0.950 . S
C309 C307 1.390 . S
C309 C310 1.387 . S
C309 H312 0.950 . S
C310 C309 1.387 . S
C310 C313 1.387 . S
H311 C307 0.950 . S
H312 C309 0.950 . S
C313 C304 1.390 . S
C313 H306 0.950 . S
C313 C310 1.387 . S
C314 C315 1.387 . S
C314 H318 0.950 . S
C314 C323 1.390 . S
C315 C314 1.387 . S
C315 C317 1.387 . S
H316 C323 0.950 . S
C317 C315 1.387 . S
C317 C319 1.390 . S
C317 H321 0.950 . S
H318 C314 0.950 . S
C319 C317 1.390 . S
C319 C320 1.387 . S
C319 H322 0.950 . S
C320 C319 1.387 . S
C320 C323 1.387 . S
H321 C317 0.950 . S
H322 C319 0.950 . S
C323 C314 1.390 . S
C323 H316 0.950 . S
C323 C320 1.387 . S
C324 C325 1.387 . S
C324 H328 0.950 . S
C324 C333 1.390 . S
C325 C324 1.387 . S
C325 C327 1.387 . S
H326 C333 0.950 . S
C327 C325 1.387 . S
C327 C329 1.390 . S
C327 H331 0.950 . S
H328 C324 0.950 . S
C329 C327 1.390 . S
C329 C330 1.387 . S
C329 H332 0.950 . S
C330 C329 1.387 . S
C330 C333 1.387 . S
H331 C327 0.950 . S
H332 C329 0.950 . S
C333 C324 1.390 . S
C333 H326 0.950 . S
C333 C330 1.387 . S
C334 C335 1.387 . S
C334 H338 0.950 . S
C334 C343 1.390 . S
C335 C334 1.387 . S
C335 C337 1.387 1_556 S
H336 C343 0.950 . S
C337 C335 1.387 1_554 S
C337 C339 1.390 1_554 S
C337 H341 0.950 . S
H338 C334 0.950 . S
C339 C337 1.390 1_556 S
C339 C340 1.387 . S
C339 H342 0.950 . S
C340 C339 1.387 . S
C340 C343 1.387 . S
H341 C337 0.950 . S
H342 C339 0.950 . S
C343 C334 1.390 . S
C343 H336 0.950 . S
C343 C340 1.387 . S
C344 C345 1.387 . S
C344 H348 0.950 . S
C344 C353 1.390 . S
C345 C344 1.387 . S
C345 C347 1.387 . S
H346 C353 0.950 . S
C347 C345 1.387 . S
C347 C349 1.390 . S
C347 H351 0.950 . S
H348 C344 0.950 . S
C349 C347 1.390 . S
C349 C350 1.387 . S
C349 H352 0.950 . S
C350 C349 1.387 . S
C350 C353 1.387 . S
H351 C347 0.950 . S
H352 C349 0.950 . S
C353 C344 1.390 . S
C353 H346 0.950 . S
C353 C350 1.387 . S
C354 C355 1.387 . S
C354 H358 0.950 . S
C354 C363 1.390 . S
C355 C354 1.387 . S
C355 C357 1.387 . S
H356 C363 0.950 . S
C357 C355 1.387 . S
C357 C359 1.390 . S
C357 H361 0.950 . S
H358 C354 0.950 . S
C359 C357 1.390 . S
C359 C360 1.387 . S
C359 H362 0.950 1_565 S
C360 C359 1.387 . S
C360 C363 1.387 . S
H361 C357 0.950 . S
H362 C359 0.950 1_545 S
C363 C354 1.390 . S
C363 H356 0.950 . S
C363 C360 1.387 . S
C250 C139 1.663 . S
C245 C68 1.635 . S
C255 C11 1.536 . S
C260 C234 1.701 . S
C265 C30 1.601 . S
C270 C150 1.695 . S
C275 C49 1.595 . S
C280 C223 1.642 . S
C290 C134 1.477 . S
C285 C2 1.647 . S
C300 C227 1.760 . S
C295 C25 1.754 . S
C305 C40 1.677 . S
C310 C143 1.706 . S
C315 C59 1.650 . S
C320 C218 1.490 . S
C330 C229 1.437 . S
C325 C21 1.599 . S
C340 C145 1.389 . S
C335 C44 1.590 1_556 S
C350 C216 1.661 . S
C345 C63 1.658 . S
C355 C6 1.634 . S
C360 C132 1.649 . S
