# Generated by pormake.
# Topology pyr, (3,6)-cn, num edge types: 1
# Building blocks:
#     Node 0, Type 0, BuildingBlock: VETTIZ_charged_linker_0, # of connection points: 3
#     Node 1, Type 0, BuildingBlock: VETTIZ_charged_linker_0, # of connection points: 3
#     Node 2, Type 0, BuildingBlock: VETTIZ_charged_linker_0, # of connection points: 3
#     Node 3, Type 0, BuildingBlock: VETTIZ_charged_linker_0, # of connection points: 3
#     Node 4, Type 0, BuildingBlock: VETTIZ_charged_linker_0, # of connection points: 3
#     Node 5, Type 0, BuildingBlock: VETTIZ_charged_linker_0, # of connection points: 3
#     Node 6, Type 0, BuildingBlock: VETTIZ_charged_linker_0, # of connection points: 3
#     Node 7, Type 0, BuildingBlock: VETTIZ_charged_linker_0, # of connection points: 3
#     Node 8, Type 1, BuildingBlock: MIDCAF_clean_sbu_0, # of connection points: 6
#     Node 9, Type 1, BuildingBlock: MIDCAF_clean_sbu_0, # of connection points: 6
#     Node 10, Type 1, BuildingBlock: MIDCAF_clean_sbu_0, # of connection points: 6
#     Node 11, Type 1, BuildingBlock: MIDCAF_clean_sbu_0, # of connection points: 6
#     Edge 12, Type (0, 1), BuildingBlock: TEMPAE_clean_linker_10, # of connection points: 2
#     Edge 13, Type (0, 1), BuildingBlock: TEMPAE_clean_linker_10, # of connection points: 2
#     Edge 14, Type (0, 1), BuildingBlock: TEMPAE_clean_linker_10, # of connection points: 2
#     Edge 15, Type (0, 1), BuildingBlock: TEMPAE_clean_linker_10, # of connection points: 2
#     Edge 16, Type (0, 1), BuildingBlock: TEMPAE_clean_linker_10, # of connection points: 2
#     Edge 17, Type (0, 1), BuildingBlock: TEMPAE_clean_linker_10, # of connection points: 2
#     Edge 18, Type (0, 1), BuildingBlock: TEMPAE_clean_linker_10, # of connection points: 2
#     Edge 19, Type (0, 1), BuildingBlock: TEMPAE_clean_linker_10, # of connection points: 2
#     Edge 20, Type (0, 1), BuildingBlock: TEMPAE_clean_linker_10, # of connection points: 2
#     Edge 21, Type (0, 1), BuildingBlock: TEMPAE_clean_linker_10, # of connection points: 2
#     Edge 22, Type (0, 1), BuildingBlock: TEMPAE_clean_linker_10, # of connection points: 2
#     Edge 23, Type (0, 1), BuildingBlock: TEMPAE_clean_linker_10, # of connection points: 2
#     Edge 24, Type (0, 1), BuildingBlock: TEMPAE_clean_linker_10, # of connection points: 2
#     Edge 25, Type (0, 1), BuildingBlock: TEMPAE_clean_linker_10, # of connection points: 2
#     Edge 26, Type (0, 1), BuildingBlock: TEMPAE_clean_linker_10, # of connection points: 2
#     Edge 27, Type (0, 1), BuildingBlock: TEMPAE_clean_linker_10, # of connection points: 2
#     Edge 28, Type (0, 1), BuildingBlock: TEMPAE_clean_linker_10, # of connection points: 2
#     Edge 29, Type (0, 1), BuildingBlock: TEMPAE_clean_linker_10, # of connection points: 2
#     Edge 30, Type (0, 1), BuildingBlock: TEMPAE_clean_linker_10, # of connection points: 2
#     Edge 31, Type (0, 1), BuildingBlock: TEMPAE_clean_linker_10, # of connection points: 2
#     Edge 32, Type (0, 1), BuildingBlock: TEMPAE_clean_linker_10, # of connection points: 2
#     Edge 33, Type (0, 1), BuildingBlock: TEMPAE_clean_linker_10, # of connection points: 2
#     Edge 34, Type (0, 1), BuildingBlock: TEMPAE_clean_linker_10, # of connection points: 2
#     Edge 35, Type (0, 1), BuildingBlock: TEMPAE_clean_linker_10, # of connection points: 2
# Relax obj value: 0.019
# Max RMSD: 0.063
# Mean RMSD: 0.021
data_MOF--net-pyr--node1-MIDCAF_clean_sbu_0--node2-VETTIZ_charged_linker_0--edge1-TEMPAE_clean_linker_10
_symmetry_space_group_name_H-M    P1
_symmetry_Int_Tables_number       1
_symmetry_cell_setting            triclinic
loop_
_symmetry_equiv_pos_as_xyz
'x, y, z'
_cell_length_a     43.976906
_cell_length_b     44.017176
_cell_length_c     44.027777
_cell_angle_alpha  89.937076
_cell_angle_beta   90.037475
_cell_angle_gamma 90.179109
loop_
_atom_site_label
_atom_site_type_symbol
_atom_site_fract_x
_atom_site_fract_y
_atom_site_fract_z
_atom_type_partial_charge
C0 C 0.19502 0.18106 0.32678 0.0
C1 C 0.16778 0.1923 0.33903 0.0
C2 C 0.15475 0.2186 0.32623 0.0
C3 C 0.19487 0.22077 0.28848 0.0
C4 C 0.20809 0.19554 0.30165 0.0
C5 C 0.23648 0.18583 0.2854 0.0
H6 H 0.3285 0.19755 0.16316 0.0
C7 C 0.21338 0.2294 0.26177 0.0
C8 C 0.23792 0.20913 0.25999 0.0
H9 H 0.33608 0.13542 0.23863 0.0
H10 H 0.29368 0.15989 0.26368 0.0
H11 H 0.31884 0.25655 0.20417 0.0
H12 H 0.25498 0.19801 0.1585 0.0
H13 H 0.24495 0.23603 0.15114 0.0
H14 H 0.28143 0.22232 0.13899 0.0
H15 H 0.31156 0.25998 0.16423 0.0
H16 H 0.28884 0.2798 0.19203 0.0
C17 C 0.2637 0.18894 0.3076 0.0
C18 C 0.23122 0.15323 0.27317 0.0
C19 C 0.17847 0.31506 0.19261 0.0
C20 C 0.19023 0.32751 0.16561 0.0
C21 C 0.21772 0.31605 0.15391 0.0
C22 C 0.2329 0.29214 0.1685 0.0
C23 C 0.2205 0.27951 0.19512 0.0
C24 C 0.19395 0.29128 0.20696 0.0
C25 C 0.18436 0.27536 0.23568 0.0
C26 C 0.20953 0.25208 0.23911 0.0
C27 C 0.23045 0.2544 0.21511 0.0
C28 C 0.1846 0.29882 0.2619 0.0
C29 C 0.15304 0.26022 0.22986 0.0
C30 C 0.32096 0.18948 0.18517 0.0
C31 C 0.33517 0.16458 0.19906 0.0
C32 C 0.32525 0.15464 0.22774 0.0
C33 C 0.3006 0.16878 0.24207 0.0
C34 C 0.28583 0.19308 0.22748 0.0
C35 C 0.29656 0.20355 0.19988 0.0
C36 C 0.27882 0.23037 0.18835 0.0
C37 C 0.25511 0.23372 0.21317 0.0
C38 C 0.25908 0.21155 0.23577 0.0
C39 C 0.30049 0.25819 0.18684 0.0
C40 C 0.26432 0.22152 0.15753 0.0
H41 H 0.15691 0.25255 0.29209 0.0
H42 H 0.20586 0.16118 0.33641 0.0
H43 H 0.2079 0.15089 0.26362 0.0
H44 H 0.24663 0.1471 0.25444 0.0
H45 H 0.23368 0.13615 0.2916 0.0
H46 H 0.25973 0.20727 0.32451 0.0
H47 H 0.26752 0.16751 0.32038 0.0
H48 H 0.28499 0.19562 0.29598 0.0
H49 H 0.15762 0.32367 0.20242 0.0
H50 H 0.22714 0.32512 0.13305 0.0
H51 H 0.25349 0.28415 0.15825 0.0
H52 H 0.20306 0.31588 0.25867 0.0
H53 H 0.16273 0.31132 0.26306 0.0
H54 H 0.18935 0.28842 0.28424 0.0
H55 H 0.1519 0.25065 0.2065 0.0
H56 H 0.14843 0.24078 0.24502 0.0
H57 H 0.13432 0.27695 0.23215 0.0
H58 H 0.13368 0.22762 0.33515 0.0
C59 C 0.16816 0.2329 0.30107 0.0
C60 C 0.20984 0.84079 0.68603 0.0
C61 C 0.19567 0.86644 0.69847 0.0
C62 C 0.20511 0.87742 0.72692 0.0
C63 C 0.24441 0.83891 0.72898 0.0
C64 C 0.23394 0.82721 0.70177 0.0
C65 C 0.25173 0.79979 0.69181 0.0
H66 H 0.37851 0.71516 0.70581 0.0
C67 C 0.27132 0.82114 0.73825 0.0
C68 C 0.27552 0.79791 0.71679 0.0
H69 H 0.30363 0.70152 0.64315 0.0
H70 H 0.27645 0.74264 0.66665 0.0
H71 H 0.3778 0.78832 0.70862 0.0
H72 H 0.33615 0.71829 0.76269 0.0
H73 H 0.34354 0.7484 0.78774 0.0
H74 H 0.37481 0.7298 0.76878 0.0
H75 H 0.39859 0.76238 0.73229 0.0
H76 H 0.38346 0.79717 0.74724 0.0
C77 C 0.26611 0.80683 0.6605 0.0
C78 C 0.2302 0.77183 0.69188 0.0
C79 C 0.33579 0.857 0.82724 0.0
C80 C 0.36323 0.84655 0.83984 0.0
C81 C 0.3768 0.82023 0.8278 0.0
C82 C 0.36367 0.805 0.80312 0.0
C83 C 0.33664 0.81615 0.79028 0.0
C84 C 0.3229 0.84145 0.80265 0.0
C85 C 0.29409 0.84982 0.78626 0.0
C86 C 0.29282 0.82535 0.76198 0.0
C87 C 0.31801 0.80597 0.76425 0.0
C88 C 0.29857 0.88193 0.77248 0.0
C89 C 0.26719 0.84721 0.80886 0.0
C90 C 0.35608 0.72042 0.69722 0.0
C91 C 0.34375 0.70501 0.67197 0.0
C92 C 0.31441 0.71336 0.66183 0.0
C93 C 0.29841 0.73714 0.67569 0.0
C94 C 0.31154 0.75266 0.70029 0.0
C95 C 0.33948 0.74355 0.71123 0.0
C96 C 0.34891 0.76095 0.73906 0.0
C97 C 0.32231 0.78254 0.74257 0.0
C98 C 0.30083 0.77808 0.71939 0.0
C99 C 0.37885 0.77806 0.73171 0.0
C100 C 0.35123 0.73836 0.76604 0.0
H101 H 0.23607 0.8735 0.76362 0.0
H102 H 0.20262 0.83187 0.66425 0.0
H103 H 0.2107 0.77505 0.70764 0.0
H104 H 0.24161 0.75102 0.70016 0.0
H105 H 0.22067 0.76751 0.6689 0.0
H106 H 0.2773 0.82954 0.66076 0.0
H107 H 0.24851 0.80702 0.64239 0.0
H108 H 0.28385 0.7905 0.65391 0.0
H109 H 0.32463 0.87694 0.83628 0.0
H110 H 0.39807 0.81189 0.83698 0.0
H111 H 0.37538 0.78542 0.79467 0.0
H112 H 0.3217 0.88425 0.76248 0.0
H113 H 0.29611 0.89975 0.79015 0.0
H114 H 0.28278 0.88699 0.75372 0.0
H115 H 0.27161 0.82953 0.82639 0.0
H116 H 0.24584 0.83989 0.79775 0.0
H117 H 0.26329 0.86903 0.82088 0.0
H118 H 0.19431 0.89721 0.73673 0.0
C119 C 0.22944 0.86376 0.74229 0.0
C120 C 0.69782 0.21283 0.85808 0.0
C121 C 0.66967 0.19958 0.85029 0.0
C122 C 0.65303 0.21226 0.82592 0.0
C123 C 0.69206 0.25046 0.81807 0.0
C124 C 0.70834 0.23825 0.84196 0.0
C125 C 0.73673 0.25618 0.84872 0.0
H126 H 0.82939 0.37483 0.81635 0.0
C127 C 0.70915 0.27697 0.80631 0.0
C128 C 0.73537 0.28042 0.82415 0.0
H129 H 0.83301 0.31297 0.89294 0.0
H130 H 0.79071 0.28521 0.87298 0.0
H131 H 0.75579 0.38312 0.82018 0.0
H132 H 0.81253 0.32573 0.76487 0.0
H133 H 0.78198 0.33779 0.74217 0.0
H134 H 0.80841 0.36554 0.7571 0.0
H135 H 0.78154 0.39767 0.792 0.0
H136 H 0.74376 0.38563 0.7821 0.0
C137 C 0.73373 0.26985 0.8811 0.0
C138 C 0.76442 0.23498 0.8445 0.0
C139 C 0.6665 0.33841 0.71829 0.0
C140 C 0.67806 0.36284 0.7013 0.0
C141 C 0.7075 0.37383 0.7075 0.0
C142 C 0.7249 0.36131 0.7311 0.0
C143 C 0.71275 0.33743 0.74858 0.0
C144 C 0.68437 0.32581 0.74145 0.0
C145 C 0.67598 0.2991 0.76109 0.0
C146 C 0.70351 0.29725 0.78184 0.0
C147 C 0.72476 0.32012 0.7748 0.0
C148 C 0.6467 0.30718 0.77885 0.0
C149 C 0.67302 0.27074 0.74041 0.0
C150 C 0.82107 0.35544 0.82901 0.0
C151 C 0.8352 0.34622 0.85631 0.0
C152 C 0.8235 0.32042 0.87153 0.0
C153 C 0.79841 0.30445 0.86015 0.0
C154 C 0.78411 0.31451 0.83352 0.0
C155 C 0.79542 0.33959 0.81836 0.0
C156 C 0.77613 0.34786 0.79126 0.0
C157 C 0.75118 0.32389 0.79311 0.0
C158 C 0.75625 0.30427 0.81776 0.0
C159 C 0.76366 0.38032 0.79633 0.0
C160 C 0.79565 0.34433 0.76223 0.0
H161 H 0.65019 0.24598 0.79169 0.0
H162 H 0.71139 0.20385 0.87653 0.0
H163 H 0.76181 0.22113 0.82353 0.0
H164 H 0.78605 0.24747 0.84174 0.0
H165 H 0.76667 0.2191 0.864 0.0
H166 H 0.70955 0.27167 0.88827 0.0
H167 H 0.74559 0.25564 0.89825 0.0
H168 H 0.74251 0.29341 0.88245 0.0
H169 H 0.64404 0.32936 0.71362 0.0
H170 H 0.71671 0.39266 0.69453 0.0
H171 H 0.747 0.37092 0.73507 0.0
H172 H 0.64722 0.33134 0.78627 0.0
H173 H 0.62616 0.30396 0.7645 0.0
H174 H 0.64398 0.29392 0.79996 0.0
H175 H 0.68895 0.27213 0.72082 0.0
H176 H 0.67922 0.24944 0.75213 0.0
H177 H 0.64964 0.26856 0.73111 0.0
H178 H 0.63092 0.2033 0.81976 0.0
C179 C 0.66412 0.23738 0.80974 0.0
C180 C 0.86671 0.81668 0.35125 0.0
C181 C 0.85249 0.83198 0.37534 0.0
C182 C 0.82297 0.82326 0.38415 0.0
C183 C 0.82287 0.78335 0.3461 0.0
C184 C 0.85137 0.7928 0.33674 0.0
C185 C 0.86276 0.77483 0.31003 0.0
H186 H 0.84088 0.66211 0.20741 0.0
C187 C 0.81363 0.75738 0.3268 0.0
C188 C 0.83667 0.75265 0.30526 0.0
H189 H 0.91846 0.72175 0.21626 0.0
H190 H 0.8946 0.74723 0.25864 0.0
H191 H 0.83639 0.64881 0.27693 0.0
H192 H 0.78676 0.71271 0.22198 0.0
H193 H 0.76089 0.6934 0.2458 0.0
H194 H 0.78273 0.67224 0.21848 0.0
H195 H 0.8054 0.63707 0.25314 0.0
H196 H 0.79936 0.65005 0.29154 0.0
C197 C 0.89237 0.75844 0.3197 0.0
C198 C 0.86654 0.79687 0.28281 0.0
C199 C 0.71854 0.69702 0.35319 0.0
C200 C 0.70532 0.67047 0.3411 0.0
C201 C 0.71781 0.65794 0.31441 0.0
C202 C 0.74355 0.67097 0.30066 0.0
C203 C 0.75717 0.69678 0.31376 0.0
C204 C 0.74436 0.70961 0.33935 0.0
C205 C 0.76189 0.73691 0.35028 0.0
C206 C 0.78795 0.73771 0.32767 0.0
C207 C 0.78506 0.71421 0.30627 0.0
C208 C 0.77308 0.73033 0.38299 0.0
C209 C 0.74121 0.76523 0.34744 0.0
C210 C 0.85234 0.68104 0.21824 0.0
C211 C 0.88126 0.69043 0.20835 0.0
C212 C 0.89604 0.71445 0.22345 0.0
C213 C 0.88214 0.72913 0.24804 0.0
C214 C 0.85331 0.71935 0.25797 0.0
C215 C 0.83897 0.69556 0.24323 0.0
C216 C 0.80943 0.68688 0.25828 0.0
C217 C 0.80789 0.71008 0.28377 0.0
C218 C 0.83362 0.72909 0.28341 0.0
C219 C 0.81248 0.65396 0.27051 0.0
C220 C 0.78343 0.69128 0.23501 0.0
H221 H 0.78585 0.79303 0.37776 0.0
H222 H 0.88923 0.82331 0.34376 0.0
H223 H 0.84853 0.81458 0.28298 0.0
H224 H 0.86404 0.78553 0.26059 0.0
H225 H 0.88888 0.80867 0.28363 0.0
H226 H 0.89101 0.75086 0.34379 0.0
H227 H 0.91239 0.77373 0.31759 0.0
H228 H 0.89663 0.73748 0.30664 0.0
H229 H 0.70922 0.70761 0.37331 0.0
H230 H 0.70828 0.63744 0.30466 0.0
H231 H 0.7522 0.66011 0.28066 0.0
H232 H 0.78224 0.70685 0.38467 0.0
H233 H 0.75417 0.73237 0.39957 0.0
H234 H 0.79176 0.74538 0.39031 0.0
H235 H 0.7241 0.76237 0.32902 0.0
H236 H 0.75405 0.78593 0.34106 0.0
H237 H 0.72862 0.76951 0.36887 0.0
H238 H 0.81167 0.83486 0.40265 0.0
C239 C 0.80812 0.79894 0.36975 0.0
C240 C 0.90928 0.81342 0.9697 0.0
C241 C 0.92994 0.79183 0.95855 0.0
C242 C 0.94941 0.79993 0.9344 0.0
C243 C 0.92626 0.84958 0.93145 0.0
C244 C 0.90778 0.84206 0.95574 0.0
C245 C 0.88619 0.86729 0.96361 0.0
H246 H 0.82384 0.0029 0.92759 0.0
C247 C 0.91808 0.8804 0.9211 0.0
C248 C 0.89474 0.89105 0.93997 0.0
H249 H 0.79857 0.94081 0.99969 0.0
H250 H 0.84092 0.90891 0.9876 0.0
H251 H 0.83545 0.95185 0.8787 0.0
H252 H 0.89726 0.99876 0.9384 0.0
H253 H 0.91617 0.99405 0.9036 0.0
H254 H 0.88183 0.01643 0.90506 0.0
H255 H 0.84534 0.99116 0.87391 0.0
H256 H 0.86794 0.96136 0.85755 0.0
C257 C 0.85332 0.85523 0.95912 0.0
C258 C 0.89348 0.87817 0.99628 0.0
C259 C 0.9666 0.92355 0.82547 0.0
C260 C 0.96172 0.95047 0.80902 0.0
C261 C 0.94198 0.97262 0.82102 0.0
C262 C 0.92637 0.96756 0.84826 0.0
C263 C 0.93029 0.93992 0.86369 0.0
C264 C 0.95062 0.91875 0.85262 0.0
C265 C 0.95177 0.89069 0.87209 0.0
C266 C 0.92848 0.89837 0.89636 0.0
C267 C 0.91581 0.92714 0.89118 0.0
C268 C 0.94162 0.86331 0.85233 0.0
C269 C 0.98427 0.88797 0.88544 0.0
C270 C 0.8275 0.98251 0.94086 0.0
C271 C 0.80763 0.97456 0.96467 0.0
C272 C 0.81363 0.94795 0.98157 0.0
C273 C 0.83808 0.92909 0.97424 0.0
C274 C 0.85669 0.93651 0.94944 0.0
C275 C 0.85171 0.96315 0.93361 0.0
C276 C 0.87358 0.96697 0.90759 0.0
C277 C 0.89209 0.93797 0.91017 0.0
C278 C 0.8819 0.92014 0.93463 0.0
C279 C 0.85484 0.96812 0.87777 0.0
C280 C 0.8932 0.99562 0.91365 0.0
H281 H 0.96302 0.83319 0.90245 0.0
H282 H 0.89407 0.80786 0.98824 0.0
H283 H 0.91831 0.87681 0.00098 0.0
H284 H 0.88764 0.90227 1.00004 0.0
H285 H 0.88163 0.86393 0.01345 0.0
H286 H 0.85209 0.83941 0.93945 0.0
H287 H 0.84534 0.84265 0.97951 0.0
H288 H 0.83682 0.87326 0.9537 0.0
H289 H 0.98156 0.90609 0.81681 0.0
H290 H 0.9383 0.99382 0.80904 0.0
H291 H 0.91136 0.98511 0.85591 0.0
H292 H 0.9231 0.87001 0.83646 0.0
H293 H 0.96079 0.85461 0.83847 0.0
H294 H 0.93196 0.84441 0.86569 0.0
H295 H 0.99444 0.91079 0.88952 0.0
H296 H 0.98462 0.87674 0.90791 0.0
H297 H 0.99958 0.87558 0.86972 0.0
H298 H 0.96601 0.78393 0.92588 0.0
C299 C 0.94775 0.82862 0.92089 0.0
C300 C 0.72713 0.09436 0.44962 0.0
C301 C 0.73891 0.06873 0.43472 0.0
C302 C 0.72255 0.05609 0.41025 0.0
C303 C 0.68489 0.09612 0.41429 0.0
C304 C 0.70036 0.10768 0.43902 0.0
C305 C 0.68613 0.13615 0.45122 0.0
H306 H 0.58205 0.24747 0.43598 0.0
C307 C 0.65902 0.11656 0.40795 0.0
C308 C 0.65954 0.13993 0.42963 0.0
H309 H 0.65403 0.2407 0.5026 0.0
H310 H 0.66775 0.1914 0.48297 0.0
H311 H 0.55958 0.17779 0.4401 0.0
H312 H 0.6218 0.22409 0.38023 0.0
H313 H 0.59853 0.20043 0.358 0.0
H314 H 0.58151 0.23054 0.37965 0.0
H315 H 0.54659 0.20241 0.41032 0.0
H316 H 0.55407 0.16265 0.4036 0.0
C317 C 0.6754 0.12985 0.48414 0.0
C318 C 0.70964 0.16235 0.44817 0.0
C319 C 0.59447 0.09989 0.3139 0.0
C320 C 0.57002 0.1159 0.30106 0.0
C321 C 0.55749 0.14057 0.31702 0.0
C322 C 0.57009 0.15 0.34477 0.0
C323 C 0.59549 0.1346 0.3566 0.0
C324 C 0.60674 0.10952 0.34155 0.0
C325 C 0.63341 0.09553 0.35766 0.0
C326 C 0.6368 0.11675 0.38455 0.0
C327 C 0.61477 0.13978 0.38365 0.0
C328 C 0.62438 0.06296 0.36767 0.0
C329 C 0.66123 0.09707 0.33611 0.0
C330 C 0.60091 0.23547 0.44625 0.0
C331 C 0.61727 0.24823 0.47061 0.0
C332 C 0.64106 0.23141 0.48384 0.0
C333 C 0.64912 0.20287 0.47225 0.0
C334 C 0.63336 0.19108 0.44703 0.0
C335 C 0.60939 0.20715 0.43477 0.0
C336 C 0.59549 0.19145 0.40778 0.0
C337 C 0.61534 0.16342 0.40556 0.0
C338 C 0.63752 0.16339 0.42853 0.0
C339 C 0.56211 0.18324 0.41554 0.0
C340 C 0.59922 0.2126 0.37984 0.0
H341 H 0.68444 0.05935 0.38087 0.0
H342 H 0.73885 0.10429 0.46887 0.0
H343 H 0.72398 0.15936 0.42758 0.0
H344 H 0.69903 0.18483 0.44516 0.0
H345 H 0.72508 0.16314 0.46813 0.0
H346 H 0.66653 0.10625 0.4864 0.0
H347 H 0.69442 0.13252 0.50054 0.0
H348 H 0.65635 0.14455 0.49116 0.0
H349 H 0.60413 0.08042 0.30242 0.0
H350 H 0.53854 0.15311 0.30758 0.0
H351 H 0.55998 0.1693 0.35561 0.0
H352 H 0.59978 0.06165 0.37345 0.0
H353 H 0.62873 0.04626 0.3493 0.0
H354 H 0.63624 0.0556 0.38854 0.0
H355 H 0.66152 0.1189 0.32333 0.0
H356 H 0.6832 0.09641 0.34817 0.0
H357 H 0.6606 0.07832 0.31925 0.0
H358 H 0.73117 0.03636 0.39841 0.0
C359 C 0.69555 0.06962 0.39999 0.0
C360 C 0.48022 0.59426 0.20271 0.0
C361 C 0.4712 0.56973 0.22119 0.0
C362 C 0.44718 0.55084 0.21121 0.0
C363 C 0.44037 0.58203 0.16641 0.0
C364 C 0.46448 0.60002 0.17561 0.0
C365 C 0.4698 0.62631 0.1544 0.0
H366 H 0.42375 0.71003 0.034 0.0
C367 C 0.42744 0.59541 0.13846 0.0
C368 C 0.44468 0.62131 0.13122 0.0
H369 H 0.49911 0.72683 0.09514 0.0
H370 H 0.48924 0.67978 0.12075 0.0
H371 H 0.37838 0.68994 0.08481 0.0
H372 H 0.43539 0.63648 0.02629 0.0
H373 H 0.39983 0.61823 0.02843 0.0
H374 H 0.40229 0.65609 0.01283 0.0
H375 H 0.36955 0.68405 0.04546 0.0
H376 H 0.3572 0.65777 0.07443 0.0
C377 C 0.46532 0.65612 0.17261 0.0
C378 C 0.50178 0.62266 0.14013 0.0
C379 C 0.33089 0.55081 0.09279 0.0
C380 C 0.31188 0.56014 0.0688 0.0
C381 C 0.32098 0.58522 0.05088 0.0
C382 C 0.34794 0.60105 0.0571 0.0
C383 C 0.36602 0.59213 0.0818 0.0
C384 C 0.35761 0.56717 0.09894 0.0
C385 C 0.37915 0.56163 0.12491 0.0
C386 C 0.40174 0.58746 0.12055 0.0
C387 C 0.39387 0.6053 0.09529 0.0
C388 C 0.36103 0.56472 0.15496 0.0
C389 C 0.39418 0.53022 0.12017 0.0
C390 C 0.43817 0.70357 0.05286 0.0
C391 C 0.4624 0.72235 0.06228 0.0
C392 C 0.48069 0.71272 0.08683 0.0
C393 C 0.4747 0.68544 0.10204 0.0
C394 C 0.44985 0.66753 0.09304 0.0
C395 C 0.4323 0.67643 0.06858 0.0
C396 C 0.40642 0.65473 0.06277 0.0
C397 C 0.41133 0.63149 0.08786 0.0
C398 C 0.43673 0.63925 0.10559 0.0
C399 C 0.3762 0.67234 0.0668 0.0
C400 C 0.41088 0.64066 0.03086 0.0
H401 H 0.41355 0.54179 0.17798 0.0
H402 H 0.49873 0.60908 0.20943 0.0
H403 H 0.50715 0.59827 0.13631 0.0
H404 H 0.50364 0.63327 0.11745 0.0
H405 H 0.51969 0.63217 0.1552 0.0
H406 H 0.44716 0.65337 0.19 0.0
H407 H 0.48652 0.66277 0.18464 0.0
H408 H 0.45764 0.6753 0.15843 0.0
H409 H 0.32488 0.53156 0.10691 0.0
H410 H 0.3067 0.59346 0.03263 0.0
H411 H 0.35322 0.62014 0.04287 0.0
H412 H 0.34292 0.58221 0.15283 0.0
H413 H 0.34984 0.54294 0.16121 0.0
H414 H 0.37512 0.57254 0.17419 0.0
H415 H 0.39857 0.52601 0.09564 0.0
H416 H 0.41667 0.52841 0.13118 0.0
H417 H 0.37927 0.51162 0.12858 0.0
H418 H 0.43929 0.53207 0.22507 0.0
C419 C 0.43192 0.55673 0.18393 0.0
C420 C 0.07393 0.32875 0.5767 0.0
C421 C 0.08916 0.31488 0.55229 0.0
C422 C 0.11466 0.32974 0.53962 0.0
C423 C 0.11008 0.37052 0.57645 0.0
C424 C 0.08463 0.35638 0.58826 0.0
C425 C 0.07146 0.37332 0.61478 0.0
H426 H 0.08719 0.48239 0.72092 0.0
C427 C 0.11598 0.39816 0.59472 0.0
C428 C 0.09321 0.40006 0.61699 0.0
H429 H 0.01564 0.41515 0.71288 0.0
H430 H 0.03642 0.39846 0.66517 0.0
H431 H 0.08328 0.50402 0.65201 0.0
H432 H 0.14282 0.44109 0.69718 0.0
H433 H 0.1646 0.4665 0.67497 0.0
H434 H 0.14143 0.48112 0.70502 0.0
H435 H 0.11652 0.51682 0.67187 0.0
H436 H 0.11801 0.50567 0.63238 0.0
C437 C 0.03882 0.38352 0.60631 0.0
C438 C 0.07331 0.35233 0.64302 0.0
C439 C 0.21198 0.46037 0.57675 0.0
C440 C 0.22388 0.48689 0.59032 0.0
C441 C 0.20631 0.50173 0.61265 0.0
C442 C 0.17835 0.4897 0.62223 0.0
C443 C 0.16753 0.46258 0.60931 0.0
C444 C 0.18379 0.44892 0.58629 0.0
C445 C 0.16792 0.42115 0.57404 0.0
C446 C 0.1398 0.42005 0.59403 0.0
C447 C 0.14003 0.44405 0.61505 0.0
C448 C 0.1598 0.42702 0.54028 0.0
C449 C 0.18884 0.39341 0.57933 0.0
C450 C 0.07563 0.46441 0.70871 0.0
C451 C 0.05001 0.4497 0.7212 0.0
C452 C 0.03584 0.42637 0.70433 0.0
C453 C 0.04791 0.41674 0.67652 0.0
C454 C 0.0745 0.43049 0.66529 0.0
C455 C 0.08734 0.45457 0.68081 0.0
C456 C 0.11496 0.46709 0.66485 0.0
C457 C 0.11724 0.44569 0.63787 0.0
C458 C 0.09371 0.42408 0.6385 0.0
C459 C 0.10812 0.50017 0.65485 0.0
C460 C 0.14253 0.46402 0.68653 0.0
H461 H 0.14485 0.36743 0.54111 0.0
H462 H 0.05459 0.31786 0.58742 0.0
H463 H 0.09516 0.33964 0.64328 0.0
H464 H 0.07286 0.36475 0.66472 0.0
H465 H 0.05454 0.33538 0.64299 0.0
H466 H 0.03669 0.3877 0.58147 0.0
H467 H 0.02177 0.36593 0.61257 0.0
H468 H 0.03251 0.40535 0.61696 0.0
H469 H 0.22464 0.44811 0.55965 0.0
H470 H 0.21422 0.52263 0.62295 0.0
H471 H 0.16639 0.50177 0.63964 0.0
H472 H 0.15523 0.45153 0.53612 0.0
H473 H 0.17868 0.42016 0.52504 0.0
H474 H 0.1387 0.41529 0.53321 0.0
H475 H 0.19955 0.39456 0.60221 0.0
H476 H 0.17656 0.37154 0.57885 0.0
H477 H 0.20737 0.3927 0.56222 0.0
H478 H 0.12664 0.31984 0.52059 0.0
C479 C 0.12514 0.35746 0.55151 0.0
Zn480 Zn 0.97603 0.05989 0.57017 0.0
Zn481 Zn 0.04815 0.99606 0.49481 0.0
Zn482 Zn 0.01109 0.02853 0.53249 0.0
C483 C 0.06172 0.05812 0.48752 0.0
C484 C 0.98741 0.98348 0.47874 0.0
O485 O 0.01916 0.0127 0.57999 0.0
O486 O 0.98891 0.04096 0.60843 0.0
C487 C 0.01391 0.10178 0.54168 0.0
O488 O 0.03983 0.06085 0.50677 0.0
O489 O 0.07068 0.03222 0.47914 0.0
O490 O 0.01434 0.97844 0.47017 0.0
O491 O 0.98221 0.00128 0.50139 0.0
O492 O 0.99338 0.10037 0.56162 0.0
O493 O 0.02283 0.07758 0.52786 0.0
O494 O 0.96348 0.02083 0.51857 0.0
O495 O 0.93677 0.04754 0.55166 0.0
C496 C 0.93774 0.03031 0.52876 0.0
O497 O 0.03911 0.99768 0.56034 0.0
O498 O 0.06636 0.97077 0.52774 0.0
C499 C 0.00859 0.02032 0.6062 0.0
C500 C 0.05885 0.97682 0.55475 0.0
Zn501 Zn 0.48362 0.04305 0.99703 0.0
Zn502 Zn 0.55781 0.97863 0.06368 0.0
Zn503 Zn 0.52377 0.0111 0.02889 0.0
C504 C 0.59536 0.00429 0.01906 0.0
C505 C 0.51685 0.93821 0.04064 0.0
O506 O 0.4973 0.04153 0.05963 0.0
O507 O 0.46518 0.06662 0.03014 0.0
C508 C 0.54256 0.05767 0.97565 0.0
O509 O 0.57083 0.01869 0.01217 0.0
O510 O 0.59518 0.9843 0.03962 0.0
O511 O 0.53671 0.93958 0.06122 0.0
O512 O 0.51021 0.96205 0.02493 0.0
O513 O 0.51476 0.06392 0.97219 0.0
O514 O 0.55083 0.03766 0.99542 0.0
O515 O 0.49337 0.97927 0.00418 0.0
O516 O 0.46057 0.00845 0.97951 0.0
C517 C 0.4704 0.9824 0.98623 0.0
O518 O 0.52004 0.02757 0.07675 0.0
O519 O 0.55361 1.00026 0.10227 0.0
C520 C 0.47576 0.06111 0.05619 0.0
C521 C 0.53397 0.02104 0.10173 0.0
Zn522 Zn 0.54847 0.557 0.53746 0.0
Zn523 Zn 0.47551 0.48188 0.48372 0.0
Zn524 Zn 0.51061 0.51892 0.51077 0.0
C525 C 0.52146 0.44649 0.50608 0.0
C526 C 0.49445 0.52151 0.43934 0.0
O527 O 0.48281 0.54739 0.5417 0.0
O528 O 0.51656 0.58129 0.55756 0.0
C529 C 0.56391 0.49891 0.5581 0.0
O530 O 0.52837 0.47226 0.51823 0.0
O531 O 0.49924 0.44449 0.48807 0.0
O532 O 0.47398 0.50188 0.4437 0.0
O533 O 0.51214 0.52954 0.46132 0.0
O534 O 0.57073 0.52651 0.56217 0.0
O535 O 0.54296 0.4917 0.53881 0.0
O536 O 0.5348 0.54665 0.47544 0.0
O537 O 0.56822 0.57439 0.50104 0.0
C538 C 0.55678 0.56616 0.4761 0.0
O539 O 0.46293 0.5252 0.52887 0.0
O540 O 0.43955 0.48519 0.50926 0.0
C541 C 0.48956 0.57147 0.55704 0.0
C542 C 0.43911 0.50809 0.52637 0.0
Zn543 Zn 0.05434 0.55474 0.97676 0.0
Zn544 Zn 0.99302 0.48568 0.04854 0.0
Zn545 Zn 0.02351 0.51961 0.00971 0.0
C546 C 0.05396 0.4736 0.05897 0.0
C547 C 0.97554 0.46821 0.98936 0.0
O548 O 0.00552 0.56672 0.01489 0.0
O549 O 0.0301 0.59178 0.97891 0.0
C550 C 0.09562 0.5342 0.01728 0.0
O551 O 0.05659 0.49411 0.03818 0.0
O552 O 0.02807 0.46498 0.06787 0.0
O553 O 0.96905 0.46422 0.01702 0.0
O554 O 0.99659 0.48722 0.9817 0.0
O555 O 0.09286 0.55593 0.99887 0.0
O556 O 0.07286 0.5164 0.02259 0.0
O557 O 0.0161 0.50397 0.9619 0.0
O558 O 0.05249 0.53044 0.93932 0.0
C559 C 0.03196 0.51042 0.93807 0.0
O560 O 0.99401 0.54947 0.03886 0.0
O561 O 0.97264 0.51797 0.07174 0.0
C562 C 0.01028 0.59129 0.99956 0.0
C563 C 0.97678 0.5447 0.06219 0.0
C564 C 0.14956 0.14412 0.36306 0.0
C565 C 0.15233 0.17583 0.36413 0.0
C566 C 0.13432 0.1281 0.38602 0.0
C567 C 0.12158 0.14413 0.41081 0.0
C568 C 0.12473 0.17614 0.41226 0.0
C569 C 0.13987 0.19162 0.38877 0.0
C570 C 0.13153 0.09397 0.38351 0.0
C571 C 0.11167 0.19462 0.4379 0.0
C572 C 0.0588 0.09961 0.4497 0.0
C573 C 0.07503 0.08491 0.47272 0.0
C574 C 0.07324 0.12061 0.43047 0.0
C575 C 0.10457 0.12694 0.43452 0.0
C576 C 0.12037 0.11383 0.45929 0.0
C577 C 0.1055 0.09252 0.47787 0.0
C578 C 0.05548 0.1345 0.40464 0.0
C579 C 0.1534 0.12111 0.4651 0.0
H580 H 0.15877 0.13183 0.34385 0.0
H581 H 0.14209 0.21614 0.38984 0.0
H582 H 0.14159 0.08301 0.40386 0.0
H583 H 0.10718 0.08734 0.38263 0.0
H584 H 0.14304 0.08492 0.36299 0.0
H585 H 0.12782 0.21281 0.44475 0.0
H586 H 0.09065 0.20589 0.42976 0.0
H587 H 0.10606 0.18073 0.45813 0.0
H588 H 0.03527 0.09337 0.44566 0.0
H589 H 0.11796 0.08093 0.49568 0.0
H590 H 0.06292 0.12423 0.38288 0.0
H591 H 0.05997 0.15929 0.40323 0.0
H592 H 0.03061 0.13077 0.40718 0.0
H593 H 0.1675 0.11203 0.44631 0.0
H594 H 0.16162 0.11127 0.48685 0.0
H595 H 0.15681 0.14611 0.46567 0.0
C596 C 0.38155 0.89534 0.86231 0.0
C597 C 0.37837 0.86374 0.86455 0.0
C598 C 0.39695 0.91192 0.88474 0.0
C599 C 0.40925 0.89657 0.91023 0.0
C600 C 0.40555 0.8647 0.91291 0.0
C601 C 0.3904 0.84864 0.88987 0.0
C602 C 0.40047 0.94586 0.8809 0.0
C603 C 0.41813 0.84697 0.93939 0.0
C604 C 0.47263 0.94033 0.94904 0.0
C605 C 0.45644 0.95601 0.97137 0.0
C606 C 0.45786 0.91945 0.92996 0.0
C607 C 0.42627 0.91424 0.93351 0.0
C608 C 0.41038 0.9285 0.95751 0.0
C609 C 0.4256 0.94967 0.9759 0.0
C610 C 0.47563 0.90444 0.90483 0.0
C611 C 0.37702 0.92244 0.9628 0.0
H612 H 0.37262 0.90704 0.84256 0.0
H613 H 0.38786 0.8242 0.89178 0.0
H614 H 0.39029 0.9578 0.90059 0.0
H615 H 0.42496 0.95198 0.88023 0.0
H616 H 0.3895 0.95433 0.8598 0.0
H617 H 0.40177 0.82908 0.94659 0.0
H618 H 0.43919 0.83533 0.93198 0.0
H619 H 0.42354 0.86145 0.95926 0.0
H620 H 0.49644 0.94567 0.94542 0.0
H621 H 0.41318 0.96204 0.99318 0.0
H622 H 0.46873 0.91428 0.88267 0.0
H623 H 0.47056 0.87974 0.90406 0.0
H624 H 0.50054 0.90764 0.90763 0.0
H625 H 0.3636 0.93142 0.94343 0.0
H626 H 0.36868 0.93315 0.98404 0.0
H627 H 0.37279 0.89759 0.96404 0.0
C628 C 0.6333 0.39435 0.68739 0.0
C629 C 0.65894 0.37799 0.67826 0.0
C630 C 0.61648 0.41144 0.66637 0.0
C631 C 0.62516 0.41153 0.63538 0.0
C632 C 0.65004 0.39354 0.62583 0.0
C633 C 0.66703 0.37738 0.64752 0.0
C634 C 0.59031 0.4305 0.67755 0.0
C635 C 0.65916 0.392 0.59285 0.0
C636 C 0.5678 0.44641 0.58065 0.0
C637 C 0.58013 0.47549 0.57618 0.0
C638 C 0.58296 0.42466 0.59848 0.0
C639 C 0.61019 0.43282 0.61371 0.0
C640 C 0.62255 0.46226 0.60953 0.0
C641 C 0.60762 0.48302 0.59056 0.0
C642 C 0.56921 0.39336 0.60157 0.0
C643 C 0.65114 0.47222 0.62583 0.0
H644 H 0.62718 0.39474 0.71125 0.0
H645 H 0.68675 0.36444 0.64053 0.0
H646 H 0.59522 0.45489 0.67331 0.0
H647 H 0.5693 0.42468 0.66487 0.0
H648 H 0.58598 0.4273 0.70221 0.0
H649 H 0.67561 0.37342 0.58845 0.0
H650 H 0.63881 0.38849 0.57838 0.0
H651 H 0.66975 0.41384 0.58591 0.0
H652 H 0.54601 0.44074 0.5707 0.0
H653 H 0.61731 0.50548 0.58744 0.0
H654 H 0.55481 0.39258 0.62223 0.0
H655 H 0.58698 0.37568 0.60384 0.0
H656 H 0.55462 0.38772 0.58173 0.0
H657 H 0.64779 0.47042 0.65075 0.0
H658 H 0.65768 0.49598 0.62027 0.0
H659 H 0.6703 0.45708 0.61974 0.0
C660 C 0.88463 0.67302 0.15434 0.0
C661 C 0.89687 0.67382 0.18371 0.0
C662 C 0.89851 0.65579 0.13134 0.0
C663 C 0.9245 0.63814 0.13828 0.0
C664 C 0.93735 0.63963 0.16778 0.0
C665 C 0.92356 0.65776 0.19004 0.0
C666 C 0.88497 0.65584 0.09984 0.0
C667 C 0.96481 0.62095 0.17625 0.0
C668 C 0.93628 0.56374 0.09673 0.0
C669 C 0.96199 0.56993 0.07888 0.0
C670 C 0.92352 0.58598 0.11552 0.0
C671 C 0.93626 0.61555 0.11601 0.0
C672 C 0.96135 0.62243 0.09696 0.0
C673 C 0.97444 0.59928 0.07927 0.0
C674 C 0.89717 0.57739 0.13583 0.0
C675 C 0.97525 0.65379 0.09603 0.0
H676 H 0.86414 0.68576 0.14945 0.0
H677 H 0.93293 0.65845 0.21282 0.0
H678 H 0.90311 0.65893 0.0826 0.0
H679 H 0.87389 0.63363 0.09532 0.0
H680 H 0.86778 0.67405 0.09692 0.0
H681 H 0.97258 0.62541 0.19985 0.0
H682 H 0.95931 0.59642 0.17409 0.0
H683 H 0.98385 0.6259 0.16048 0.0
H684 H 0.92653 0.54109 0.09667 0.0
H685 H 0.99495 0.604 0.06653 0.0
H686 H 0.87756 0.59258 0.13151 0.0
H687 H 0.90381 0.58028 0.15998 0.0
H688 H 0.88965 0.55352 0.13239 0.0
H689 H 0.95778 0.67167 0.09903 0.0
H690 H 0.98735 0.65787 0.07425 0.0
H691 H 0.992 0.65604 0.11474 0.0
C692 C 0.38958 0.15115 0.19041 0.0
C693 C 0.35891 0.1478 0.18264 0.0
C694 C 0.4123 0.13658 0.17341 0.0
C695 C 0.40391 0.11814 0.1484 0.0
C696 C 0.37274 0.11389 0.14134 0.0
C697 C 0.35061 0.12902 0.15842 0.0
C698 C 0.4452 0.14195 0.18145 0.0
C699 C 0.36278 0.0941 0.11513 0.0
C700 C 0.45312 0.10723 0.07905 0.0
C701 C 0.46226 0.07696 0.08236 0.0
C702 C 0.43592 0.12163 0.10154 0.0
C703 C 0.42735 0.1052 0.12784 0.0
C704 C 0.43827 0.07525 0.13223 0.0
C705 C 0.45544 0.06134 0.10923 0.0
C706 C 0.42531 0.1538 0.09622 0.0
C707 C 0.43015 0.05702 0.16011 0.0
H708 H 0.39579 0.16581 0.20921 0.0
H709 H 0.32675 0.12646 0.1527 0.0
H710 H 0.45846 0.12073 0.1792 0.0
H711 H 0.45508 0.15881 0.16549 0.0
H712 H 0.44784 0.15081 0.20493 0.0
H713 H 0.33766 0.09167 0.11388 0.0
H714 H 0.37097 0.10403 0.09344 0.0
H715 H 0.37295 0.07116 0.1173 0.0
H716 H 0.4586 0.11936 0.0583 0.0
H717 H 0.46225 0.03781 0.11168 0.0
H718 H 0.42982 0.16798 0.11655 0.0
H719 H 0.40039 0.15385 0.09225 0.0
H720 H 0.43663 0.16445 0.07631 0.0
H721 H 0.42848 0.07164 0.18054 0.0
H722 H 0.44715 0.03891 0.16448 0.0
H723 H 0.40768 0.04604 0.15655 0.0
C724 C 0.18256 0.89992 0.65523 0.0
C725 C 0.17298 0.88328 0.68055 0.0
C726 C 0.16163 0.91597 0.63742 0.0
C727 C 0.1303 0.91476 0.64482 0.0
C728 C 0.12056 0.89815 0.67065 0.0
C729 C 0.14216 0.88277 0.68847 0.0
C730 C 0.17303 0.93384 0.61041 0.0
C731 C 0.08733 0.89597 0.67889 0.0
C732 C 0.08275 0.97534 0.60619 0.0
C733 C 0.07364 0.96017 0.57975 0.0
C734 C 0.09966 0.96031 0.62868 0.0
C735 C 0.10791 0.92954 0.6243 0.0
C736 C 0.09745 0.91378 0.59827 0.0
C737 C 0.08065 0.92938 0.57619 0.0
C738 C 0.11016 0.9779 0.65617 0.0
C739 C 0.10522 0.8808 0.59303 0.0
H740 H 0.20652 0.90037 0.64942 0.0
H741 H 0.13496 0.86982 0.70817 0.0
H742 H 0.16376 0.92395 0.58916 0.0
H743 H 0.16499 0.95767 0.61175 0.0
H744 H 0.19825 0.93397 0.6089 0.0
H745 H 0.08372 0.88442 0.70104 0.0
H746 H 0.07711 0.91895 0.67987 0.0
H747 H 0.07497 0.88312 0.66105 0.0
H748 H 0.07779 0.99931 0.60869 0.0
H749 H 0.07344 0.91762 0.55577 0.0
H750 H 0.13484 0.98279 0.65407 0.0
H751 H 0.10686 0.96442 0.67721 0.0
H752 H 0.09787 0.99979 0.65859 0.0
H753 H 0.12991 0.87866 0.58836 0.0
H754 H 0.09248 0.87098 0.57357 0.0
H755 H 0.1002 0.86718 0.61365 0.0
C756 C 0.86168 0.39604 0.86726 0.0
C757 C 0.86062 0.36424 0.87016 0.0
C758 C 0.88328 0.41345 0.88317 0.0
C759 C 0.90368 0.39892 0.90333 0.0
C760 C 0.90373 0.36684 0.90536 0.0
C761 C 0.88268 0.34992 0.88831 0.0
C762 C 0.88316 0.44756 0.87962 0.0
C763 C 0.92463 0.35039 0.92704 0.0
C764 C 0.97015 0.44202 0.93891 0.0
C765 C 0.95748 0.45141 0.96646 0.0
C766 C 0.95285 0.42524 0.91784 0.0
C767 C 0.92239 0.41731 0.9248 0.0
C768 C 0.90967 0.42647 0.95283 0.0
C769 C 0.9273 0.44348 0.97319 0.0
C770 C 0.96717 0.41584 0.88828 0.0
C771 C 0.87754 0.41794 0.96156 0.0
H772 H 0.84483 0.40766 0.85363 0.0
H773 H 0.88298 0.32538 0.89003 0.0
H774 H 0.87349 0.45811 0.90034 0.0
H775 H 0.9067 0.45629 0.87696 0.0
H776 H 0.86944 0.45494 0.85976 0.0
H777 H 0.92393 0.32537 0.92382 0.0
H778 H 0.94842 0.3583 0.92425 0.0
H779 H 0.9178 0.35552 0.95075 0.0
H780 H 0.99379 0.447 0.93426 0.0
H781 H 0.91739 0.45056 0.99458 0.0
H782 H 0.95363 0.42493 0.86907 0.0
H783 H 0.96707 0.39075 0.88616 0.0
H784 H 0.99097 0.42403 0.88631 0.0
H785 H 0.86124 0.42761 0.94495 0.0
H786 H 0.87136 0.42617 0.98458 0.0
H787 H 0.87478 0.39287 0.96103 0.0
C788 C 0.68024 0.65251 0.38898 0.0
C789 C 0.67974 0.65508 0.35722 0.0
C790 C 0.657 0.63731 0.40471 0.0
C791 C 0.6325 0.62418 0.38837 0.0
C792 C 0.63156 0.62702 0.35633 0.0
C793 C 0.65529 0.64227 0.34113 0.0
C794 C 0.65893 0.63496 0.4389 0.0
C795 C 0.60611 0.61331 0.33785 0.0
C796 C 0.59402 0.56203 0.43417 0.0
C797 C 0.57051 0.57817 0.44811 0.0
C798 C 0.61298 0.57608 0.41263 0.0
C799 C 0.6085 0.6071 0.40529 0.0
C800 C 0.58334 0.62276 0.41776 0.0
C801 C 0.56476 0.60815 0.43929 0.0
C802 C 0.63902 0.55833 0.39926 0.0
C803 C 0.57739 0.65561 0.41006 0.0
H804 H 0.69927 0.66183 0.4016 0.0
H805 H 0.65458 0.64427 0.3166 0.0
H806 H 0.63814 0.64459 0.44937 0.0
H807 H 0.66024 0.61074 0.44576 0.0
H808 H 0.67905 0.64708 0.44825 0.0
H809 H 0.60385 0.62463 0.31539 0.0
H810 H 0.6112 0.58899 0.33379 0.0
H811 H 0.58401 0.6147 0.34988 0.0
H812 H 0.59861 0.53893 0.44138 0.0
H813 H 0.54678 0.62068 0.45048 0.0
H814 H 0.66083 0.56698 0.4086 0.0
H815 H 0.63974 0.5614 0.37426 0.0
H816 H 0.63725 0.53367 0.4044 0.0
H817 H 0.5955 0.67005 0.42014 0.0
H818 H 0.55505 0.66344 0.41877 0.0
H819 H 0.57804 0.65904 0.38509 0.0
C820 C 0.14191 0.349 0.1449 0.0
C821 C 0.17337 0.35171 0.14924 0.0
C822 C 0.12555 0.37133 0.12918 0.0
C823 C 0.14094 0.39723 0.11768 0.0
C824 C 0.1727 0.40026 0.12224 0.0
C825 C 0.18858 0.37728 0.13769 0.0
C826 C 0.09172 0.36712 0.12477 0.0
C827 C 0.19034 0.42719 0.11036 0.0
C828 C 0.09691 0.43737 0.05539 0.0
C829 C 0.08081 0.45892 0.07222 0.0
C830 C 0.11821 0.41831 0.06956 0.0
C831 C 0.12329 0.42094 0.10122 0.0
C832 C 0.10858 0.44421 0.11778 0.0
C833 C 0.08714 0.46269 0.10312 0.0
C834 C 0.13387 0.39417 0.05104 0.0
C835 C 0.11427 0.44846 0.1513 0.0
H836 H 0.13012 0.32906 0.1534 0.0
H837 H 0.21291 0.37955 0.14106 0.0
H838 H 0.07929 0.38627 0.13536 0.0
H839 H 0.08618 0.36723 0.10018 0.0
H840 H 0.08326 0.34553 0.13482 0.0
H841 H 0.2102 0.43233 0.1251 0.0
H842 H 0.19915 0.42157 0.08745 0.0
H843 H 0.17613 0.44788 0.10851 0.0
H844 H 0.09165 0.43437 0.03152 0.0
H845 H 0.07445 0.47933 0.11605 0.0
H846 H 0.12496 0.37147 0.0576 0.0
H847 H 0.15867 0.39429 0.05574 0.0
H848 H 0.13026 0.39738 0.02627 0.0
H849 H 0.10515 0.42864 0.16401 0.0
H850 H 0.1034 0.46939 0.1602 0.0
H851 H 0.13908 0.44968 0.15582 0.0
C852 C 0.6386 0.15158 0.85429 0.0
C853 C 0.65677 0.17382 0.86832 0.0
C854 C 0.62304 0.1296 0.87147 0.0
C855 C 0.62629 0.12929 0.90345 0.0
C856 C 0.64638 0.15012 0.91756 0.0
C857 C 0.66104 0.17236 0.89993 0.0
C858 C 0.60155 0.10806 0.85552 0.0
C859 C 0.65095 0.15015 0.95154 0.0
C860 C 0.55768 0.10533 0.94961 0.0
C861 C 0.56492 0.07542 0.95785 0.0
C862 C 0.57747 0.1229 0.93194 0.0
C863 C 0.60546 0.11041 0.92235 0.0
C864 C 0.61301 0.08022 0.93061 0.0
C865 C 0.59246 0.06294 0.94811 0.0
C866 C 0.56824 0.15483 0.92334 0.0
C867 C 0.64262 0.0662 0.92081 0.0
H868 H 0.63578 0.15182 0.82984 0.0
H869 H 0.67474 0.18943 0.91125 0.0
H870 H 0.6051 0.08442 0.86343 0.0
H871 H 0.57776 0.11428 0.86108 0.0
H872 H 0.60429 0.10875 0.83044 0.0
H873 H 0.67092 0.16407 0.95839 0.0
H874 H 0.63045 0.15956 0.96274 0.0
H875 H 0.65408 0.12666 0.96007 0.0
H876 H 0.53635 0.11512 0.95705 0.0
H877 H 0.59755 0.03952 0.95348 0.0
H878 H 0.56811 0.15733 0.89826 0.0
H879 H 0.58496 0.17139 0.93246 0.0
H880 H 0.54535 0.16086 0.93209 0.0
H881 H 0.64394 0.06548 0.89567 0.0
H882 H 0.64538 0.04275 0.9297 0.0
H883 H 0.66187 0.08042 0.92884 0.0
C884 C 0.89688 0.85029 0.40541 0.0
C885 C 0.86884 0.85643 0.39172 0.0
C886 C 0.91314 0.87315 0.42061 0.0
C887 C 0.9014 0.90309 0.42148 0.0
C888 C 0.87288 0.90934 0.40787 0.0
C889 C 0.85676 0.8858 0.39338 0.0
C890 C 0.94312 0.86532 0.43538 0.0
C891 C 0.85994 0.94103 0.4075 0.0
C892 C 0.93856 0.9543 0.48037 0.0
C893 C 0.96239 0.96703 0.46347 0.0
C894 C 0.91729 0.93472 0.46665 0.0
C895 C 0.92001 0.92785 0.43532 0.0
C896 C 0.94287 0.94231 0.41784 0.0
C897 C 0.964 0.96144 0.4322 0.0
C898 C 0.89304 0.92007 0.48601 0.0
C899 C 0.94594 0.93644 0.38421 0.0
H900 H 0.90602 0.82746 0.40432 0.0
H901 H 0.83512 0.89053 0.38259 0.0
H902 H 0.96184 0.87771 0.42385 0.0
H903 H 0.94306 0.87257 0.45951 0.0
H904 H 0.94805 0.8406 0.43441 0.0
H905 H 0.83533 0.94107 0.4018 0.0
H906 H 0.86322 0.95233 0.42974 0.0
H907 H 0.87216 0.9548 0.39024 0.0
H908 H 0.93739 0.9585 0.5046 0.0
H909 H 0.9823 0.97149 0.41907 0.0
H910 H 0.89771 0.8954 0.48812 0.0
H911 H 0.8704 0.9225 0.47515 0.0
H912 H 0.89207 0.93009 0.50914 0.0
H913 H 0.95361 0.91274 0.38047 0.0
H914 H 0.96254 0.95207 0.37329 0.0
H915 H 0.9236 0.93901 0.37278 0.0
C916 C 0.38345 0.66369 0.67155 0.0
C917 C 0.36187 0.68124 0.65582 0.0
C918 C 0.40318 0.64402 0.65613 0.0
C919 C 0.40042 0.64061 0.62431 0.0
C920 C 0.37739 0.65652 0.60853 0.0
C921 C 0.35887 0.67707 0.6243 0.0
C922 C 0.428 0.62815 0.67372 0.0
C923 C 0.3731 0.65287 0.5747 0.0
C924 C 0.47009 0.62007 0.5781 0.0
C925 C 0.46621 0.58871 0.57386 0.0
C926 C 0.44904 0.63707 0.59478 0.0
C927 C 0.42318 0.62247 0.60717 0.0
C928 C 0.41923 0.59078 0.60314 0.0
C929 C 0.44108 0.57419 0.58688 0.0
C930 C 0.45466 0.67064 0.59932 0.0
C931 C 0.39185 0.57452 0.61578 0.0
H932 H 0.3855 0.6657 0.69597 0.0
H933 H 0.34276 0.69057 0.61154 0.0
H934 H 0.42747 0.60337 0.6693 0.0
H935 H 0.45051 0.63668 0.66607 0.0
H936 H 0.42608 0.63191 0.69859 0.0
H937 H 0.35084 0.66189 0.56695 0.0
H938 H 0.39139 0.6653 0.56253 0.0
H939 H 0.37466 0.62861 0.56815 0.0
H940 H 0.48972 0.6314 0.56834 0.0
H941 H 0.43887 0.5498 0.58496 0.0
H942 H 0.45446 0.67615 0.62391 0.0
H943 H 0.43621 0.68392 0.58847 0.0
H944 H 0.47673 0.67817 0.58957 0.0
H945 H 0.39106 0.57691 0.64083 0.0
H946 H 0.39184 0.54996 0.61009 0.0
H947 H 0.37092 0.58511 0.60662 0.0
C948 C 0.00648 0.94911 0.77337 0.0
C949 C 0.97558 0.955 0.77862 0.0
C950 C 0.01977 0.95527 0.74493 0.0
C951 C 0.00149 0.96698 0.72115 0.0
C952 C 0.96998 0.97158 0.72609 0.0
C953 C 0.9575 0.9656 0.7547 0.0
C954 C 0.05324 0.94912 0.74076 0.0
C955 C 0.94948 0.98393 0.70143 0.0
C956 C 0.0234 0.02198 0.66021 0.0
C957 C 0.01761 0.00458 0.63425 0.0
C958 C 0.02247 0.00881 0.68913 0.0
C959 C 0.0149 0.97769 0.69201 0.0
C960 C 0.01331 0.95926 0.66569 0.0
C961 C 0.01447 0.97303 0.63687 0.0
C962 C 0.02603 0.02894 0.71663 0.0
C963 C 0.00704 0.92566 0.66788 0.0
H964 H 0.02048 0.94056 0.79174 0.0
H965 H 0.93345 0.96942 0.75845 0.0
H966 H 0.05616 0.92487 0.73462 0.0
H967 H 0.06361 0.96321 0.72258 0.0
H968 H 0.0659 0.9531 0.76224 0.0
H969 H 0.92528 0.98483 0.70859 0.0
H970 H 0.95685 0.00724 0.69515 0.0
H971 H 0.9511 0.96961 0.68079 0.0
H972 H 0.02637 0.04636 0.65802 0.0
H973 H 0.0103 0.95953 0.6167 0.0
H974 H 0.04031 0.01763 0.73407 0.0
H975 H 0.00335 0.03315 0.72682 0.0
H976 H 0.03648 0.0512 0.71076 0.0
H977 H 0.01814 0.9157 0.68821 0.0
H978 H 0.01512 0.91355 0.6473 0.0
H979 H 0.98216 0.92192 0.66996 0.0
C980 C 0.57946 0.10222 0.24709 0.0
C981 C 0.55866 0.10733 0.27057 0.0
C982 C 0.56984 0.0914 0.2188 0.0
C983 C 0.53854 0.08553 0.21377 0.0
C984 C 0.51719 0.09196 0.237 0.0
C985 C 0.52754 0.10297 0.26514 0.0
C986 C 0.59347 0.0847 0.19483 0.0
C987 C 0.48361 0.08595 0.23332 0.0
C988 C 0.52501 0.06928 0.13039 0.0
C989 C 0.52805 0.03764 0.13013 0.0
C990 C 0.52524 0.08536 0.15795 0.0
C991 C 0.52943 0.06932 0.18558 0.0
C992 C 0.5299 0.03719 0.18542 0.0
C993 C 0.52925 0.02176 0.15768 0.0
C994 C 0.52331 0.11953 0.15702 0.0
C995 C 0.53345 0.01917 0.21441 0.0
H996 H 0.60349 0.10614 0.25111 0.0
H997 H 0.51136 0.10693 0.28328 0.0
H998 H 0.59335 0.06005 0.18952 0.0
H999 H 0.588 0.09708 0.17357 0.0
H1000 H 0.61676 0.09126 0.20213 0.0
H1001 H 0.4767 0.06741 0.249 0.0
H1002 H 0.47057 0.10646 0.23996 0.0
H1003 H 0.47712 0.07942 0.20991 0.0
H1004 H 0.52414 0.08162 0.10908 0.0
H1005 H 0.53116 0.9972 0.15745 0.0
H1006 H 0.54625 0.12906 0.1525 0.0
H1007 H 0.51492 0.12908 0.17876 0.0
H1008 H 0.50805 0.12703 0.13834 0.0
H1009 H 0.556 0.02405 0.22468 0.0
H1010 H 0.53156 0.99429 0.21053 0.0
H1011 H 0.51583 0.02599 0.23106 0.0
C1012 C 0.49115 0.58999 0.27076 0.0
C1013 C 0.48479 0.56506 0.25185 0.0
C1014 C 0.49898 0.58577 0.3014 0.0
C1015 C 0.49983 0.55602 0.31353 0.0
C1016 C 0.49593 0.53077 0.29402 0.0
C1017 C 0.48869 0.5356 0.26338 0.0
C1018 C 0.50421 0.61319 0.3213 0.0
C1019 C 0.49712 0.49863 0.30597 0.0
C1020 C 0.52521 0.53746 0.39417 0.0
C1021 C 0.49707 0.53493 0.40881 0.0
C1022 C 0.52682 0.54572 0.36332 0.0
C1023 C 0.49962 0.55132 0.34699 0.0
C1024 C 0.4713 0.55008 0.36223 0.0
C1025 C 0.47041 0.5418 0.3929 0.0
C1026 C 0.55743 0.54645 0.34795 0.0
C1027 C 0.44171 0.55593 0.34579 0.0
H1028 H 0.48829 0.61289 0.26219 0.0
H1029 H 0.48482 0.5162 0.24872 0.0
H1030 H 0.48418 0.61657 0.33622 0.0
H1031 H 0.52428 0.60968 0.33618 0.0
H1032 H 0.50774 0.63419 0.30771 0.0
H1033 H 0.49679 0.48155 0.28742 0.0
H1034 H 0.51792 0.49521 0.3198 0.0
H1035 H 0.47725 0.49444 0.32096 0.0
H1036 H 0.5457 0.53122 0.40625 0.0
H1037 H 0.44864 0.53979 0.4043 0.0
H1038 H 0.55828 0.56387 0.32975 0.0
H1039 H 0.56185 0.52402 0.33742 0.0
H1040 H 0.57592 0.55099 0.36451 0.0
H1041 H 0.44247 0.57836 0.3343 0.0
H1042 H 0.42182 0.55548 0.36133 0.0
H1043 H 0.43823 0.53842 0.32799 0.0
C1044 C 0.0307 0.43365 0.7724 0.0
C1045 C 0.03964 0.45702 0.75258 0.0
C1046 C 0.02451 0.43946 0.80311 0.0
C1047 C 0.02722 0.46945 0.81442 0.0
C1048 C 0.03482 0.49339 0.79422 0.0
C1049 C 0.04078 0.48691 0.76356 0.0
C1050 C 0.01572 0.41324 0.8234 0.0
C1051 C 0.0385 0.52564 0.80533 0.0
C1052 C 0.00077 0.49522 0.89282 0.0
C1053 C 0.02821 0.49435 0.90896 0.0
C1054 C 0.99952 0.48561 0.86229 0.0
C1055 C 0.0264 0.47539 0.84777 0.0
C1056 C 0.0537 0.47314 0.86466 0.0
C1057 C 0.05423 0.48269 0.89496 0.0
C1058 C 0.96985 0.48773 0.84526 0.0
C1059 C 0.08285 0.46219 0.85026 0.0
H1060 H 0.02987 0.41043 0.76429 0.0
H1061 H 0.04707 0.50524 0.74833 0.0
H1062 H 0.02785 0.41427 0.84546 0.0
H1063 H 0.99097 0.41446 0.82791 0.0
H1064 H 0.0205 0.39091 0.8127 0.0
H1065 H 0.04232 0.54194 0.78643 0.0
H1066 H 0.01806 0.53279 0.81817 0.0
H1067 H 0.05818 0.52697 0.82108 0.0
H1068 H 0.98074 0.50464 0.90357 0.0
H1069 H 0.07549 0.48228 0.90748 0.0
H1070 H 0.96606 0.46707 0.83132 0.0
H1071 H 0.97063 0.50745 0.82956 0.0
H1072 H 0.95026 0.49071 0.86087 0.0
H1073 H 0.07935 0.43941 0.84005 0.0
H1074 H 0.10185 0.46077 0.86684 0.0
H1075 H 0.08963 0.47789 0.8317 0.0
C1076 C 0.76735 0.99448 0.99964 0.0
C1077 C 0.77902 0.99175 0.97013 0.0
C1078 C 0.73735 0.00394 0.0046 0.0
C1079 C 0.71872 0.01153 0.97946 0.0
C1080 C 0.73146 0.01214 0.94995 0.0
C1081 C 0.76143 0.00207 0.94559 0.0
C1082 C 0.72476 0.00268 0.03649 0.0
C1083 C 0.71287 0.02156 0.92274 0.0
C1084 C 0.63861 0.98308 0.99102 0.0
C1085 C 0.62403 0.0088 0.00249 0.0
C1086 C 0.6689 0.98432 0.98152 0.0
C1087 C 0.68512 0.01209 0.98357 0.0
C1088 C 0.66982 0.03876 0.99308 0.0
C1089 C 0.63931 0.03676 0.00269 0.0
C1090 C 0.68412 0.95529 0.97141 0.0
C1091 C 0.68609 0.06891 0.99464 0.0
H1092 H 0.78112 0.98752 0.01883 0.0
H1093 H 0.77023 1.00034 0.92268 0.0
H1094 H 0.7116 0.02346 0.04168 0.0
H1095 H 0.70902 0.98302 0.03851 0.0
H1096 H 0.74297 1.00013 0.0538 0.0
H1097 H 0.72564 0.01921 0.90111 0.0
H1098 H 0.69176 0.00778 0.9212 0.0
H1099 H 0.70613 0.04565 0.92533 0.0
H1100 H 0.62666 0.96147 0.99101 0.0
H1101 H 0.62797 0.0566 0.01179 0.0
H1102 H 0.70232 0.94912 0.98775 0.0
H1103 H 0.69492 0.95853 0.94888 0.0
H1104 H 0.66788 0.93596 0.96983 0.0
H1105 H 0.70258 0.06872 0.0137 0.0
H1106 H 0.67004 0.08801 0.9982 0.0
H1107 H 0.69916 0.07301 0.97347 0.0
C1108 C 0.79275 0.07665 0.45036 0.0
C1109 C 0.7689 0.05648 0.44398 0.0
C1110 C 0.82056 0.06623 0.46159 0.0
C1111 C 0.82492 0.03469 0.46621 0.0
C1112 C 0.80147 0.01396 0.45837 0.0
C1113 C 0.77364 0.02516 0.44736 0.0
C1114 C 0.84483 0.08922 0.46977 0.0
C1115 C 0.80473 0.98012 0.46265 0.0
C1116 C 0.90829 0.02148 0.48097 0.0
C1117 C 0.90906 0.02355 0.51271 0.0
C1118 C 0.88049 0.02128 0.46531 0.0
C1119 C 0.85307 0.02452 0.48181 0.0
C1120 C 0.85368 0.02385 0.51393 0.0
C1121 C 0.88171 0.02333 0.529 0.0
C1122 C 0.88082 0.02026 0.43108 0.0
C1123 C 0.82487 0.02637 0.53237 0.0
H1124 H 0.78946 0.10083 0.44701 0.0
H1125 H 0.75529 0.00941 0.44241 0.0
H1126 H 0.85017 0.08762 0.49436 0.0
H1127 H 0.86603 0.08437 0.45708 0.0
H1128 H 0.83779 0.1129 0.46465 0.0
H1129 H 0.79644 0.96802 0.44211 0.0
H1130 H 0.82843 0.97298 0.46732 0.0
H1131 H 0.79019 0.97276 0.48191 0.0
H1132 H 0.92933 0.02203 0.46821 0.0
H1133 H 0.88226 0.02451 0.5536 0.0
H1134 H 0.8829 0.04372 0.42208 0.0
H1135 H 0.85962 0.01008 0.42189 0.0
H1136 H 0.90059 0.00701 0.4227 0.0
H1137 H 0.81478 0.04923 0.52904 0.0
H1138 H 0.82899 0.02293 0.55703 0.0
H1139 H 0.80795 0.00935 0.52455 0.0
C1140 C 0.26978 0.54308 0.03418 0.0
C1141 C 0.28162 0.54562 0.06368 0.0
C1142 C 0.2393 0.53504 0.02927 0.0
C1143 C 0.2203 0.52867 0.05444 0.0
C1144 C 0.23289 0.52797 0.084 0.0
C1145 C 0.2633 0.53686 0.08836 0.0
C1146 C 0.22687 0.53571 0.9973 0.0
C1147 C 0.21369 0.52002 0.11128 0.0
C1148 C 0.14018 0.55683 0.04269 0.0
C1149 C 0.12517 0.53064 0.03258 0.0
C1150 C 0.17071 0.55599 0.0515 0.0
C1151 C 0.18672 0.52817 0.05018 0.0
C1152 C 0.17111 0.50119 0.04184 0.0
C1153 C 0.14039 0.50278 0.03295 0.0
C1154 C 0.18633 0.58538 0.06014 0.0
C1155 C 0.18718 0.47106 0.04011 0.0
H1156 H 0.28401 0.54871 0.01487 0.0
H1157 H 0.27205 0.53858 0.1113 0.0
H1158 H 0.21414 0.5145 0.99238 0.0
H1159 H 0.21072 0.55491 0.99494 0.0
H1160 H 0.24509 0.53847 0.98004 0.0
H1161 H 0.22791 0.51377 0.13118 0.0
H1162 H 0.19956 0.53988 0.11759 0.0
H1163 H 0.19807 0.50089 0.10603 0.0
H1164 H 0.1283 0.5784 0.04235 0.0
H1165 H 0.12903 0.48271 0.02433 0.0
H1166 H 0.20408 0.59095 0.04309 0.0
H1167 H 0.1978 0.58297 0.08245 0.0
H1168 H 0.17023 0.60473 0.06146 0.0
H1169 H 0.19697 0.46825 0.01707 0.0
H1170 H 0.17107 0.452 0.04397 0.0
H1171 H 0.20598 0.46953 0.05684 0.0
C1172 C 0.27406 0.51052 0.6048 0.0
C1173 C 0.25505 0.49797 0.58239 0.0
C1174 C 0.3045 0.518 0.59856 0.0
C1175 C 0.3165 0.51253 0.56924 0.0
C1176 C 0.29714 0.50102 0.54618 0.0
C1177 C 0.26664 0.49431 0.55292 0.0
C1178 C 0.32378 0.53119 0.62367 0.0
C1179 C 0.30907 0.49396 0.51481 0.0
C1180 C 0.39334 0.5394 0.53914 0.0
C1181 C 0.41085 0.51322 0.54354 0.0
C1182 C 0.36291 0.54045 0.54921 0.0
C1183 C 0.34989 0.51462 0.56352 0.0
C1184 C 0.36825 0.48894 0.56953 0.0
C1185 C 0.39844 0.48863 0.55951 0.0
C1186 C 0.3443 0.56856 0.54331 0.0
C1187 C 0.35542 0.46086 0.58466 0.0
H1188 H 0.26561 0.5134 0.62771 0.0
H1189 H 0.25208 0.48544 0.53515 0.0
H1190 H 0.34647 0.52032 0.62454 0.0
H1191 H 0.3271 0.55576 0.61923 0.0
H1192 H 0.31288 0.52871 0.64629 0.0
H1193 H 0.29076 0.48668 0.499 0.0
H1194 H 0.32067 0.5141 0.50502 0.0
H1195 H 0.32614 0.47548 0.51631 0.0
H1196 H 0.40288 0.55829 0.52647 0.0
H1197 H 0.41198 0.4683 0.56264 0.0
H1198 H 0.3333 0.57618 0.56465 0.0
H1199 H 0.32589 0.56337 0.52689 0.0
H1200 H 0.3583 0.58743 0.534 0.0
H1201 H 0.34494 0.46686 0.60675 0.0
H1202 H 0.37304 0.44328 0.5887 0.0
H1203 H 0.33731 0.45088 0.57016 0.0
C1204 C 0.9333 0.73584 0.95171 0.0
C1205 C 0.93144 0.76073 0.9714 0.0
C1206 C 0.94013 0.70681 0.96264 0.0
C1207 C 0.94515 0.70252 0.99413 0.0
C1208 C 0.94016 0.72688 0.01448 0.0
C1209 C 0.93344 0.75589 0.00285 0.0
C1210 C 0.94465 0.68136 0.94011 0.0
C1211 C 0.94394 0.7227 0.04828 0.0
C1212 C 0.96205 0.6197 0.01016 0.0
C1213 C 0.99356 0.61958 0.00555 0.0
C1214 C 0.94581 0.6472 0.00986 0.0
C1215 C 0.96155 0.67479 0.00415 0.0
C1216 C 0.99369 0.67477 0.00227 0.0
C1217 C 0.00923 0.64717 0.003 0.0
C1218 C 0.91172 0.6462 0.01322 0.0
C1219 C 0.01158 0.70359 0.99652 0.0
H1220 H 0.93078 0.73939 0.92746 0.0
H1221 H 0.93156 0.77502 0.0182 0.0
H1222 H 0.96913 0.67539 0.93904 0.0
H1223 H 0.93202 0.66078 0.94745 0.0
H1224 H 0.93696 0.68766 0.91691 0.0
H1225 H 0.9351 0.74242 0.06126 0.0
H1226 H 0.93193 0.70184 0.05587 0.0
H1227 H 0.96837 0.71983 0.05382 0.0
H1228 H 0.94993 0.59832 0.01234 0.0
H1229 H 0.03371 0.64704 0.99996 0.0
H1230 H 0.90126 0.64214 0.99064 0.0
H1231 H 0.90261 0.66783 0.02233 0.0
H1232 H 0.90472 0.62729 0.02845 0.0
H1233 H 0.00678 0.71196 0.97322 0.0
H1234 H 0.03648 0.70004 0.99871 0.0
H1235 H 0.0047 0.72163 0.01265 0.0
C1236 C 0.44289 0.77161 0.04078 0.0
C1237 C 0.46755 0.75286 0.04842 0.0
C1238 C 0.44743 0.80219 0.03275 0.0
C1239 C 0.4772 0.81449 0.03318 0.0
C1240 C 0.50229 0.79511 0.03846 0.0
C1241 C 0.49716 0.76447 0.04561 0.0
C1242 C 0.42006 0.8217 0.02615 0.0
C1243 C 0.53446 0.8072 0.03895 0.0
C1244 C 0.5001 0.89432 0.00852 0.0
C1245 C 0.5008 0.90913 0.03661 0.0
C1246 C 0.49058 0.86381 0.00647 0.0
C1247 C 0.48199 0.84798 0.03323 0.0
C1248 C 0.48107 0.86361 0.0613 0.0
C1249 C 0.49047 0.89396 0.06259 0.0
C1250 C 0.49196 0.8482 0.97607 0.0
C1251 C 0.47227 0.84771 0.09046 0.0
H1252 H 0.41986 0.76302 0.04274 0.0
H1253 H 0.51642 0.74992 0.05038 0.0
H1254 H 0.41165 0.83167 0.04768 0.0
H1255 H 0.42572 0.84058 0.01043 0.0
H1256 H 0.40132 0.808 0.01613 0.0
H1257 H 0.55154 0.78884 0.0416 0.0
H1258 H 0.53941 0.81978 0.01769 0.0
H1259 H 0.53715 0.82338 0.0581 0.0
H1260 H 0.50891 0.9058 0.9886 0.0
H1261 H 0.49116 0.90551 0.08433 0.0
H1262 H 0.47576 0.82889 0.97462 0.0
H1263 H 0.51525 0.83934 0.97241 0.0
H1264 H 0.48707 0.86446 0.95746 0.0
H1265 H 0.4495 0.83709 0.0881 0.0
H1266 H 0.4718 0.86343 0.11017 0.0
H1267 H 0.48875 0.82929 0.09538 0.0
C1268 C 0.101 0.26182 0.53488 0.0
C1269 C 0.07939 0.28424 0.54163 0.0
C1270 C 0.09217 0.23162 0.52938 0.0
C1271 C 0.06102 0.22354 0.5312 0.0
C1272 C 0.03898 0.24643 0.53594 0.0
C1273 C 0.04842 0.2765 0.54083 0.0
C1274 C 0.11663 0.20829 0.52389 0.0
C1275 C 0.00553 0.23884 0.53785 0.0
C1276 C 0.03014 0.14552 0.50899 0.0
C1277 C 0.02939 0.13111 0.53729 0.0
C1278 C 0.04115 0.17547 0.50625 0.0
C1279 C 0.05172 0.191 0.53246 0.0
C1280 C 0.05184 0.17592 0.56088 0.0
C1281 C 0.04055 0.14624 0.56292 0.0
C1282 C 0.03957 0.19071 0.47562 0.0
C1283 C 0.06261 0.1916 0.58946 0.0
H1284 H 0.12502 0.26739 0.5355 0.0
H1285 H 0.0315 0.29382 0.54513 0.0
H1286 H 0.12637 0.20121 0.54604 0.0
H1287 H 0.10786 0.18776 0.51219 0.0
H1288 H 0.1354 0.21818 0.51016 0.0
H1289 H 0.9912 0.25942 0.5404 0.0
H1290 H 0.99822 0.22649 0.51714 0.0
H1291 H 0.00137 0.22365 0.55756 0.0
H1292 H 0.02068 0.13405 0.48936 0.0
H1293 H 0.03974 0.13499 0.58484 0.0
H1294 H 0.05551 0.21017 0.47366 0.0
H1295 H 0.01613 0.19918 0.47188 0.0
H1296 H 0.04449 0.1742 0.4573 0.0
H1297 H 0.08657 0.19904 0.58675 0.0
H1298 H 0.06108 0.17666 0.60977 0.0
H1299 H 0.04874 0.21221 0.59362 0.0
C1300 C 0.60856 0.28626 0.51238 0.0
C1301 C 0.60988 0.27934 0.48128 0.0
C1302 C 0.59873 0.31497 0.52228 0.0
C1303 C 0.58982 0.33695 0.50058 0.0
C1304 C 0.59296 0.33065 0.46921 0.0
C1305 C 0.60311 0.30203 0.46 0.0
C1306 C 0.59676 0.32144 0.55586 0.0
C1307 C 0.58396 0.35355 0.44527 0.0
C1308 C 0.52465 0.39076 0.5121 0.0
C1309 C 0.5395 0.41892 0.51171 0.0
C1310 C 0.54107 0.36364 0.51123 0.0
C1311 C 0.57321 0.36475 0.50992 0.0
C1312 C 0.58843 0.39308 0.5123 0.0
C1313 C 0.57131 0.41999 0.51283 0.0
C1314 C 0.52385 0.33397 0.50889 0.0
C1315 C 0.62264 0.39537 0.51173 0.0
H1316 H 0.61403 0.26891 0.52897 0.0
H1317 H 0.60507 0.29716 0.43595 0.0
H1318 H 0.60909 0.3428 0.56116 0.0
H1319 H 0.57269 0.32476 0.56255 0.0
H1320 H 0.60648 0.30278 0.5698 0.0
H1321 H 0.5895 0.34576 0.42193 0.0
H1322 H 0.55912 0.35778 0.44654 0.0
H1323 H 0.59569 0.37551 0.44936 0.0
H1324 H 0.5 0.38997 0.51155 0.0
H1325 H 0.58283 0.4418 0.51245 0.0
H1326 H 0.53316 0.31703 0.52503 0.0
H1327 H 0.52646 0.3246 0.48565 0.0
H1328 H 0.49919 0.33678 0.51356 0.0
H1329 H 0.63351 0.37492 0.52164 0.0
H1330 H 0.63059 0.41578 0.52431 0.0
H1331 H 0.63036 0.3976 0.48784 0.0
loop_
_geom_bond_atom_site_label_1
_geom_bond_atom_site_label_2
_geom_bond_distance
_geom_bond_site_symmetry_2
_ccdc_geom_bond_type
C0 C1 1.391 . S
C0 C4 1.391 . S
C0 H42 0.948 . S
C1 C0 1.391 . S
C1 C2 1.391 . S
C2 C1 1.391 . S
C2 H58 0.947 . S
C2 C59 1.392 . S
C3 C4 1.391 . S
C3 C7 1.397 . S
C3 C59 1.419 . S
C4 C0 1.391 . S
C4 C3 1.391 . S
C4 C5 1.399 . S
C5 C4 1.399 . S
C5 C8 1.396 . S
C5 C17 1.453 . S
C5 C18 1.684 . S
H6 C30 0.948 . S
C7 C3 1.397 . S
C7 C8 1.394 . S
C7 C26 1.723 . S
C8 C5 1.396 . S
C8 C7 1.394 . S
C8 C38 1.723 . S
H9 C32 0.947 . S
H10 C33 0.948 . S
H11 C39 0.982 . S
H12 C40 0.979 . S
H13 C40 0.980 . S
H14 C40 0.983 . S
H15 C39 0.979 . S
H16 C39 0.977 . S
C17 C5 1.453 . S
C17 H46 0.982 . S
C17 H47 0.979 . S
C17 H48 0.977 . S
C18 C5 1.684 . S
C18 H43 0.979 . S
C18 H44 0.980 . S
C18 H45 0.983 . S
C19 C20 1.391 . S
C19 C24 1.391 . S
C19 H49 0.948 . S
C20 C19 1.391 . S
C20 C21 1.391 . S
C21 C20 1.391 . S
C21 C22 1.392 . S
C21 H50 0.947 . S
C22 C21 1.392 . S
C22 C23 1.419 . S
C22 H51 0.948 . S
C23 C22 1.419 . S
C23 C24 1.391 . S
C23 C27 1.397 . S
C24 C19 1.391 . S
C24 C23 1.391 . S
C24 C25 1.399 . S
C25 C24 1.399 . S
C25 C26 1.396 . S
C25 C28 1.453 . S
C25 C29 1.684 . S
C26 C7 1.723 . S
C26 C25 1.396 . S
C26 C27 1.394 . S
C27 C23 1.397 . S
C27 C26 1.394 . S
C27 C37 1.723 . S
C28 C25 1.453 . S
C28 H52 0.982 . S
C28 H53 0.979 . S
C28 H54 0.977 . S
C29 C25 1.684 . S
C29 H55 0.979 . S
C29 H56 0.980 . S
C29 H57 0.983 . S
C30 H6 0.948 . S
C30 C31 1.391 . S
C30 C35 1.391 . S
C31 C30 1.391 . S
C31 C32 1.391 . S
C32 H9 0.947 . S
C32 C31 1.391 . S
C32 C33 1.392 . S
C33 H10 0.948 . S
C33 C32 1.392 . S
C33 C34 1.419 . S
C34 C33 1.419 . S
C34 C35 1.391 . S
C34 C38 1.397 . S
C35 C30 1.391 . S
C35 C34 1.391 . S
C35 C36 1.399 . S
C36 C35 1.399 . S
C36 C37 1.396 . S
C36 C39 1.453 . S
C36 C40 1.684 . S
C37 C27 1.723 . S
C37 C36 1.396 . S
C37 C38 1.394 . S
C38 C8 1.723 . S
C38 C34 1.397 . S
C38 C37 1.394 . S
C39 H11 0.982 . S
C39 H15 0.979 . S
C39 H16 0.977 . S
C39 C36 1.453 . S
C40 H12 0.979 . S
C40 H13 0.980 . S
C40 H14 0.983 . S
C40 C36 1.684 . S
H41 C59 0.948 . S
H42 C0 0.948 . S
H43 C18 0.979 . S
H44 C18 0.980 . S
H45 C18 0.983 . S
H46 C17 0.982 . S
H47 C17 0.979 . S
H48 C17 0.977 . S
H49 C19 0.948 . S
H50 C21 0.947 . S
H51 C22 0.948 . S
H52 C28 0.982 . S
H53 C28 0.979 . S
H54 C28 0.977 . S
H55 C29 0.979 . S
H56 C29 0.980 . S
H57 C29 0.983 . S
H58 C2 0.947 . S
C59 C2 1.392 . S
C59 C3 1.419 . S
C59 H41 0.948 . S
C60 C61 1.391 . S
C60 C64 1.391 . S
C60 H102 0.948 . S
C61 C60 1.391 . S
C61 C62 1.391 . S
C62 C61 1.391 . S
C62 H118 0.947 . S
C62 C119 1.392 . S
C63 C64 1.391 . S
C63 C67 1.397 . S
C63 C119 1.419 . S
C64 C60 1.391 . S
C64 C63 1.391 . S
C64 C65 1.399 . S
C65 C64 1.399 . S
C65 C68 1.396 . S
C65 C77 1.453 . S
C65 C78 1.684 . S
H66 C90 0.948 . S
C67 C63 1.397 . S
C67 C68 1.394 . S
C67 C86 1.723 . S
C68 C65 1.396 . S
C68 C67 1.394 . S
C68 C98 1.723 . S
H69 C92 0.947 . S
H70 C93 0.948 . S
H71 C99 0.982 . S
H72 C100 0.979 . S
H73 C100 0.980 . S
H74 C100 0.983 . S
H75 C99 0.979 . S
H76 C99 0.977 . S
C77 C65 1.453 . S
C77 H106 0.982 . S
C77 H107 0.979 . S
C77 H108 0.977 . S
C78 C65 1.684 . S
C78 H103 0.979 . S
C78 H104 0.980 . S
C78 H105 0.983 . S
C79 C80 1.391 . S
C79 C84 1.391 . S
C79 H109 0.948 . S
C80 C79 1.391 . S
C80 C81 1.391 . S
C81 C80 1.391 . S
C81 C82 1.392 . S
C81 H110 0.947 . S
C82 C81 1.392 . S
C82 C83 1.419 . S
C82 H111 0.948 . S
C83 C82 1.419 . S
C83 C84 1.391 . S
C83 C87 1.397 . S
C84 C79 1.391 . S
C84 C83 1.391 . S
C84 C85 1.399 . S
C85 C84 1.399 . S
C85 C86 1.396 . S
C85 C88 1.453 . S
C85 C89 1.684 . S
C86 C67 1.723 . S
C86 C85 1.396 . S
C86 C87 1.394 . S
C87 C83 1.397 . S
C87 C86 1.394 . S
C87 C97 1.723 . S
C88 C85 1.453 . S
C88 H112 0.982 . S
C88 H113 0.979 . S
C88 H114 0.977 . S
C89 C85 1.684 . S
C89 H115 0.979 . S
C89 H116 0.980 . S
C89 H117 0.983 . S
C90 H66 0.948 . S
C90 C91 1.391 . S
C90 C95 1.391 . S
C91 C90 1.391 . S
C91 C92 1.391 . S
C92 H69 0.947 . S
C92 C91 1.391 . S
C92 C93 1.392 . S
C93 H70 0.948 . S
C93 C92 1.392 . S
C93 C94 1.419 . S
C94 C93 1.419 . S
C94 C95 1.391 . S
C94 C98 1.397 . S
C95 C90 1.391 . S
C95 C94 1.391 . S
C95 C96 1.399 . S
C96 C95 1.399 . S
C96 C97 1.396 . S
C96 C99 1.453 . S
C96 C100 1.684 . S
C97 C87 1.723 . S
C97 C96 1.396 . S
C97 C98 1.394 . S
C98 C68 1.723 . S
C98 C94 1.397 . S
C98 C97 1.394 . S
C99 H71 0.982 . S
C99 H75 0.979 . S
C99 H76 0.977 . S
C99 C96 1.453 . S
C100 H72 0.979 . S
C100 H73 0.980 . S
C100 H74 0.983 . S
C100 C96 1.684 . S
H101 C119 0.948 . S
H102 C60 0.948 . S
H103 C78 0.979 . S
H104 C78 0.980 . S
H105 C78 0.983 . S
H106 C77 0.982 . S
H107 C77 0.979 . S
H108 C77 0.977 . S
H109 C79 0.948 . S
H110 C81 0.947 . S
H111 C82 0.948 . S
H112 C88 0.982 . S
H113 C88 0.979 . S
H114 C88 0.977 . S
H115 C89 0.979 . S
H116 C89 0.980 . S
H117 C89 0.983 . S
H118 C62 0.947 . S
C119 C62 1.392 . S
C119 C63 1.419 . S
C119 H101 0.948 . S
C120 C121 1.391 . S
C120 C124 1.391 . S
C120 H162 0.948 . S
C121 C120 1.391 . S
C121 C122 1.391 . S
C122 C121 1.391 . S
C122 H178 0.947 . S
C122 C179 1.392 . S
C123 C124 1.391 . S
C123 C127 1.397 . S
C123 C179 1.419 . S
C124 C120 1.391 . S
C124 C123 1.391 . S
C124 C125 1.399 . S
C125 C124 1.399 . S
C125 C128 1.396 . S
C125 C137 1.453 . S
C125 C138 1.684 . S
H126 C150 0.948 . S
C127 C123 1.397 . S
C127 C128 1.394 . S
C127 C146 1.723 . S
C128 C125 1.396 . S
C128 C127 1.394 . S
C128 C158 1.723 . S
H129 C152 0.947 . S
H130 C153 0.948 . S
H131 C159 0.982 . S
H132 C160 0.979 . S
H133 C160 0.980 . S
H134 C160 0.983 . S
H135 C159 0.979 . S
H136 C159 0.977 . S
C137 C125 1.453 . S
C137 H166 0.982 . S
C137 H167 0.979 . S
C137 H168 0.977 . S
C138 C125 1.684 . S
C138 H163 0.979 . S
C138 H164 0.980 . S
C138 H165 0.983 . S
C139 C140 1.391 . S
C139 C144 1.391 . S
C139 H169 0.948 . S
C140 C139 1.391 . S
C140 C141 1.391 . S
C141 C140 1.391 . S
C141 C142 1.392 . S
C141 H170 0.947 . S
C142 C141 1.392 . S
C142 C143 1.419 . S
C142 H171 0.948 . S
C143 C142 1.419 . S
C143 C144 1.391 . S
C143 C147 1.397 . S
C144 C139 1.391 . S
C144 C143 1.391 . S
C144 C145 1.399 . S
C145 C144 1.399 . S
C145 C146 1.396 . S
C145 C148 1.453 . S
C145 C149 1.684 . S
C146 C127 1.723 . S
C146 C145 1.396 . S
C146 C147 1.394 . S
C147 C143 1.397 . S
C147 C146 1.394 . S
C147 C157 1.723 . S
C148 C145 1.453 . S
C148 H172 0.982 . S
C148 H173 0.979 . S
C148 H174 0.977 . S
C149 C145 1.684 . S
C149 H175 0.979 . S
C149 H176 0.980 . S
C149 H177 0.983 . S
C150 H126 0.948 . S
C150 C151 1.391 . S
C150 C155 1.391 . S
C151 C150 1.391 . S
C151 C152 1.391 . S
C152 H129 0.947 . S
C152 C151 1.391 . S
C152 C153 1.392 . S
C153 H130 0.948 . S
C153 C152 1.392 . S
C153 C154 1.419 . S
C154 C153 1.419 . S
C154 C155 1.391 . S
C154 C158 1.397 . S
C155 C150 1.391 . S
C155 C154 1.391 . S
C155 C156 1.399 . S
C156 C155 1.399 . S
C156 C157 1.396 . S
C156 C159 1.453 . S
C156 C160 1.684 . S
C157 C147 1.723 . S
C157 C156 1.396 . S
C157 C158 1.394 . S
C158 C128 1.723 . S
C158 C154 1.397 . S
C158 C157 1.394 . S
C159 H131 0.982 . S
C159 H135 0.979 . S
C159 H136 0.977 . S
C159 C156 1.453 . S
C160 H132 0.979 . S
C160 H133 0.980 . S
C160 H134 0.983 . S
C160 C156 1.684 . S
H161 C179 0.948 . S
H162 C120 0.948 . S
H163 C138 0.979 . S
H164 C138 0.980 . S
H165 C138 0.983 . S
H166 C137 0.982 . S
H167 C137 0.979 . S
H168 C137 0.977 . S
H169 C139 0.948 . S
H170 C141 0.947 . S
H171 C142 0.948 . S
H172 C148 0.982 . S
H173 C148 0.979 . S
H174 C148 0.977 . S
H175 C149 0.979 . S
H176 C149 0.980 . S
H177 C149 0.983 . S
H178 C122 0.947 . S
C179 C122 1.392 . S
C179 C123 1.419 . S
C179 H161 0.948 . S
C180 C181 1.391 . S
C180 C184 1.391 . S
C180 H222 0.948 . S
C181 C180 1.391 . S
C181 C182 1.391 . S
C182 C181 1.391 . S
C182 H238 0.947 . S
C182 C239 1.392 . S
C183 C184 1.391 . S
C183 C187 1.397 . S
C183 C239 1.419 . S
C184 C180 1.391 . S
C184 C183 1.391 . S
C184 C185 1.399 . S
C185 C184 1.399 . S
C185 C188 1.396 . S
C185 C197 1.453 . S
C185 C198 1.684 . S
H186 C210 0.948 . S
C187 C183 1.397 . S
C187 C188 1.394 . S
C187 C206 1.723 . S
C188 C185 1.396 . S
C188 C187 1.394 . S
C188 C218 1.723 . S
H189 C212 0.947 . S
H190 C213 0.948 . S
H191 C219 0.982 . S
H192 C220 0.979 . S
H193 C220 0.980 . S
H194 C220 0.983 . S
H195 C219 0.979 . S
H196 C219 0.977 . S
C197 C185 1.453 . S
C197 H226 0.982 . S
C197 H227 0.979 . S
C197 H228 0.977 . S
C198 C185 1.684 . S
C198 H223 0.979 . S
C198 H224 0.980 . S
C198 H225 0.983 . S
C199 C200 1.391 . S
C199 C204 1.391 . S
C199 H229 0.948 . S
C200 C199 1.391 . S
C200 C201 1.391 . S
C201 C200 1.391 . S
C201 C202 1.392 . S
C201 H230 0.947 . S
C202 C201 1.392 . S
C202 C203 1.419 . S
C202 H231 0.948 . S
C203 C202 1.419 . S
C203 C204 1.391 . S
C203 C207 1.397 . S
C204 C199 1.391 . S
C204 C203 1.391 . S
C204 C205 1.399 . S
C205 C204 1.399 . S
C205 C206 1.396 . S
C205 C208 1.453 . S
C205 C209 1.684 . S
C206 C187 1.723 . S
C206 C205 1.396 . S
C206 C207 1.394 . S
C207 C203 1.397 . S
C207 C206 1.394 . S
C207 C217 1.723 . S
C208 C205 1.453 . S
C208 H232 0.982 . S
C208 H233 0.979 . S
C208 H234 0.977 . S
C209 C205 1.684 . S
C209 H235 0.979 . S
C209 H236 0.980 . S
C209 H237 0.983 . S
C210 H186 0.948 . S
C210 C211 1.391 . S
C210 C215 1.391 . S
C211 C210 1.391 . S
C211 C212 1.391 . S
C212 H189 0.947 . S
C212 C211 1.391 . S
C212 C213 1.392 . S
C213 H190 0.948 . S
C213 C212 1.392 . S
C213 C214 1.419 . S
C214 C213 1.419 . S
C214 C215 1.391 . S
C214 C218 1.397 . S
C215 C210 1.391 . S
C215 C214 1.391 . S
C215 C216 1.399 . S
C216 C215 1.399 . S
C216 C217 1.396 . S
C216 C219 1.453 . S
C216 C220 1.684 . S
C217 C207 1.723 . S
C217 C216 1.396 . S
C217 C218 1.394 . S
C218 C188 1.723 . S
C218 C214 1.397 . S
C218 C217 1.394 . S
C219 H191 0.982 . S
C219 H195 0.979 . S
C219 H196 0.977 . S
C219 C216 1.453 . S
C220 H192 0.979 . S
C220 H193 0.980 . S
C220 H194 0.983 . S
C220 C216 1.684 . S
H221 C239 0.948 . S
H222 C180 0.948 . S
H223 C198 0.979 . S
H224 C198 0.980 . S
H225 C198 0.983 . S
H226 C197 0.982 . S
H227 C197 0.979 . S
H228 C197 0.977 . S
H229 C199 0.948 . S
H230 C201 0.947 . S
H231 C202 0.948 . S
H232 C208 0.982 . S
H233 C208 0.979 . S
H234 C208 0.977 . S
H235 C209 0.979 . S
H236 C209 0.980 . S
H237 C209 0.983 . S
H238 C182 0.947 . S
C239 C182 1.392 . S
C239 C183 1.419 . S
C239 H221 0.948 . S
C240 C241 1.391 . S
C240 C244 1.391 . S
C240 H282 0.948 1_556 S
C241 C240 1.391 . S
C241 C242 1.391 1_655 S
C242 C241 1.391 1_455 S
C242 H298 0.947 . S
C242 C299 1.392 1_455 S
C243 C244 1.391 . S
C243 C247 1.397 . S
C243 C299 1.419 . S
C244 C240 1.391 . S
C244 C243 1.391 . S
C244 C245 1.399 . S
C245 C244 1.399 . S
C245 C248 1.396 . S
C245 C257 1.453 . S
C245 C258 1.684 1_556 S
H246 C270 0.948 1_545 S
C247 C243 1.397 . S
C247 C248 1.394 . S
C247 C266 1.723 . S
C248 C245 1.396 . S
C248 C247 1.394 . S
C248 C278 1.723 . S
H249 C272 0.947 . S
H250 C273 0.948 1_554 S
H251 C279 0.982 . S
H252 C280 0.979 . S
H253 C280 0.980 . S
H254 C280 0.983 . S
H255 C279 0.979 1_545 S
H256 C279 0.977 . S
C257 C245 1.453 . S
C257 H286 0.982 . S
C257 H287 0.979 1_556 S
C257 H288 0.977 . S
C258 C245 1.684 1_554 S
C258 H283 0.979 . S
C258 H284 0.980 . S
C258 H285 0.983 . S
C259 C260 1.391 . S
C259 C264 1.391 . S
C259 H289 0.948 1_655 S
C260 C259 1.391 . S
C260 C261 1.391 1_565 S
C261 C260 1.391 1_545 S
C261 C262 1.392 1_545 S
C261 H290 0.947 . S
C262 C261 1.392 1_565 S
C262 C263 1.419 . S
C262 H291 0.948 1_565 S
C263 C262 1.419 . S
C263 C264 1.391 . S
C263 C267 1.397 . S
C264 C259 1.391 . S
C264 C263 1.391 . S
C264 C265 1.399 . S
C265 C264 1.399 . S
C265 C266 1.396 . S
C265 C268 1.453 . S
C265 C269 1.684 1_655 S
C266 C247 1.723 . S
C266 C265 1.396 . S
C266 C267 1.394 . S
C267 C263 1.397 . S
C267 C266 1.394 . S
C267 C277 1.723 . S
C268 C265 1.453 . S
C268 H292 0.982 . S
C268 H293 1.004 . S
C268 H294 0.977 . S
C269 C265 1.684 1_455 S
C269 H295 0.979 . S
C269 H296 0.980 . S
C269 H297 0.983 . S
C270 H246 0.948 1_565 S
C270 C271 1.391 . S
C270 C275 1.391 . S
C271 C270 1.391 . S
C271 C272 1.391 1_556 S
C272 H249 0.947 . S
C272 C271 1.391 1_554 S
C272 C273 1.392 1_554 S
C273 H250 0.948 1_556 S
C273 C272 1.392 1_556 S
C273 C274 1.419 . S
C274 C273 1.419 . S
C274 C275 1.391 . S
C274 C278 1.397 . S
C275 C270 1.391 . S
C275 C274 1.391 . S
C275 C276 1.399 . S
C276 C275 1.399 . S
C276 C277 1.396 . S
C276 C279 1.453 . S
C276 C280 1.684 1_565 S
C277 C267 1.723 . S
C277 C276 1.396 . S
C277 C278 1.394 . S
C278 C248 1.723 . S
C278 C274 1.397 . S
C278 C277 1.394 . S
C279 H251 0.982 . S
C279 H255 0.979 1_565 S
C279 H256 0.977 . S
C279 C276 1.453 . S
C280 H252 0.979 . S
C280 H253 0.980 . S
C280 H254 0.983 . S
C280 C276 1.684 1_545 S
H281 C299 0.948 1_455 S
H282 C240 0.948 1_554 S
H283 C258 0.979 . S
H284 C258 0.980 . S
H285 C258 0.983 . S
H286 C257 0.982 . S
H287 C257 0.979 1_554 S
H288 C257 0.977 . S
H289 C259 0.948 1_455 S
H290 C261 0.947 . S
H291 C262 0.948 1_545 S
H292 C268 0.982 . S
H293 C268 1.004 . S
H294 C268 0.977 . S
H295 C269 0.979 . S
H296 C269 0.980 . S
H297 C269 0.983 . S
H298 C242 0.947 . S
C299 C242 1.392 1_655 S
C299 C243 1.419 . S
C299 H281 0.948 1_655 S
C300 C301 1.391 . S
C300 C304 1.391 . S
C300 H342 0.948 . S
C301 C300 1.391 . S
C301 C302 1.391 . S
C302 C301 1.391 . S
C302 H358 0.947 . S
C302 C359 1.392 . S
C303 C304 1.391 . S
C303 C307 1.397 . S
C303 C359 1.419 . S
C304 C300 1.391 . S
C304 C303 1.391 . S
C304 C305 1.399 . S
C305 C304 1.399 . S
C305 C308 1.396 . S
C305 C317 1.453 . S
C305 C318 1.684 . S
H306 C330 0.948 . S
C307 C303 1.397 . S
C307 C308 1.394 . S
C307 C326 1.723 . S
C308 C305 1.396 . S
C308 C307 1.394 . S
C308 C338 1.723 . S
H309 C332 0.947 . S
H310 C333 0.948 . S
H311 C339 0.982 . S
H312 C340 0.979 . S
H313 C340 0.980 . S
H314 C340 0.983 . S
H315 C339 0.979 . S
H316 C339 0.977 . S
C317 C305 1.453 . S
C317 H346 0.982 . S
C317 H347 0.979 . S
C317 H348 0.977 . S
C318 C305 1.684 . S
C318 H343 0.979 . S
C318 H344 0.980 . S
C318 H345 0.983 . S
C319 C320 1.391 . S
C319 C324 1.391 . S
C319 H349 0.948 . S
C320 C319 1.391 . S
C320 C321 1.391 . S
C321 C320 1.391 . S
C321 C322 1.392 . S
C321 H350 0.947 . S
C322 C321 1.392 . S
C322 C323 1.419 . S
C322 H351 0.948 . S
C323 C322 1.419 . S
C323 C324 1.391 . S
C323 C327 1.397 . S
C324 C319 1.391 . S
C324 C323 1.391 . S
C324 C325 1.399 . S
C325 C324 1.399 . S
C325 C326 1.396 . S
C325 C328 1.453 . S
C325 C329 1.684 . S
C326 C307 1.723 . S
C326 C325 1.396 . S
C326 C327 1.394 . S
C327 C323 1.397 . S
C327 C326 1.394 . S
C327 C337 1.723 . S
C328 C325 1.453 . S
C328 H352 0.982 . S
C328 H353 0.979 . S
C328 H354 0.977 . S
C329 C325 1.684 . S
C329 H355 0.979 . S
C329 H356 0.980 . S
C329 H357 0.983 . S
C330 H306 0.948 . S
C330 C331 1.391 . S
C330 C335 1.391 . S
C331 C330 1.391 . S
C331 C332 1.391 . S
C332 H309 0.947 . S
C332 C331 1.391 . S
C332 C333 1.392 . S
C333 H310 0.948 . S
C333 C332 1.392 . S
C333 C334 1.419 . S
C334 C333 1.419 . S
C334 C335 1.391 . S
C334 C338 1.397 . S
C335 C330 1.391 . S
C335 C334 1.391 . S
C335 C336 1.399 . S
C336 C335 1.399 . S
C336 C337 1.396 . S
C336 C339 1.453 . S
C336 C340 1.684 . S
C337 C327 1.723 . S
C337 C336 1.396 . S
C337 C338 1.394 . S
C338 C308 1.723 . S
C338 C334 1.397 . S
C338 C337 1.394 . S
C339 H311 0.982 . S
C339 H315 0.979 . S
C339 H316 0.977 . S
C339 C336 1.453 . S
C340 H312 0.979 . S
C340 H313 0.980 . S
C340 H314 0.983 . S
C340 C336 1.684 . S
H341 C359 0.948 . S
H342 C300 0.948 . S
H343 C318 0.979 . S
H344 C318 0.980 . S
H345 C318 0.983 . S
H346 C317 0.982 . S
H347 C317 0.979 . S
H348 C317 0.977 . S
H349 C319 0.948 . S
H350 C321 0.947 . S
H351 C322 0.948 . S
H352 C328 0.982 . S
H353 C328 0.979 . S
H354 C328 0.977 . S
H355 C329 0.979 . S
H356 C329 0.980 . S
H357 C329 0.983 . S
H358 C302 0.947 . S
C359 C302 1.392 . S
C359 C303 1.419 . S
C359 H341 0.948 . S
C360 C361 1.391 . S
C360 C364 1.391 . S
C360 H402 0.948 . S
C361 C360 1.391 . S
C361 C362 1.391 . S
C362 C361 1.391 . S
C362 H418 0.947 . S
C362 C419 1.392 . S
C363 C364 1.391 . S
C363 C367 1.397 . S
C363 C419 1.419 . S
C364 C360 1.391 . S
C364 C363 1.391 . S
C364 C365 1.399 . S
C365 C364 1.399 . S
C365 C368 1.396 . S
C365 C377 1.453 . S
C365 C378 1.684 . S
H366 C390 0.948 . S
C367 C363 1.397 . S
C367 C368 1.394 . S
C367 C386 1.723 . S
C368 C365 1.396 . S
C368 C367 1.394 . S
C368 C398 1.723 . S
H369 C392 0.947 . S
H370 C393 0.948 . S
H371 C399 0.982 . S
H372 C400 0.979 . S
H373 C400 0.980 . S
H374 C400 0.983 . S
H375 C399 0.979 . S
H376 C399 0.977 . S
C377 C365 1.453 . S
C377 H406 0.982 . S
C377 H407 0.979 . S
C377 H408 0.977 . S
C378 C365 1.684 . S
C378 H403 0.979 . S
C378 H404 0.980 . S
C378 H405 0.983 . S
C379 C380 1.391 . S
C379 C384 1.391 . S
C379 H409 0.948 . S
C380 C379 1.391 . S
C380 C381 1.391 . S
C381 C380 1.391 . S
C381 C382 1.392 . S
C381 H410 0.947 . S
C382 C381 1.392 . S
C382 C383 1.419 . S
C382 H411 0.948 . S
C383 C382 1.419 . S
C383 C384 1.391 . S
C383 C387 1.397 . S
C384 C379 1.391 . S
C384 C383 1.391 . S
C384 C385 1.399 . S
C385 C384 1.399 . S
C385 C386 1.396 . S
C385 C388 1.453 . S
C385 C389 1.684 . S
C386 C367 1.723 . S
C386 C385 1.396 . S
C386 C387 1.394 . S
C387 C383 1.397 . S
C387 C386 1.394 . S
C387 C397 1.723 . S
C388 C385 1.453 . S
C388 H412 0.982 . S
C388 H413 0.979 . S
C388 H414 0.977 . S
C389 C385 1.684 . S
C389 H415 0.979 . S
C389 H416 0.980 . S
C389 H417 0.983 . S
C390 H366 0.948 . S
C390 C391 1.391 . S
C390 C395 1.391 . S
C391 C390 1.391 . S
C391 C392 1.391 . S
C392 H369 0.947 . S
C392 C391 1.391 . S
C392 C393 1.392 . S
C393 H370 0.948 . S
C393 C392 1.392 . S
C393 C394 1.419 . S
C394 C393 1.419 . S
C394 C395 1.391 . S
C394 C398 1.397 . S
C395 C390 1.391 . S
C395 C394 1.391 . S
C395 C396 1.399 . S
C396 C395 1.399 . S
C396 C397 1.396 . S
C396 C399 1.453 . S
C396 C400 1.684 . S
C397 C387 1.723 . S
C397 C396 1.396 . S
C397 C398 1.394 . S
C398 C368 1.723 . S
C398 C394 1.397 . S
C398 C397 1.394 . S
C399 H371 0.982 . S
C399 H375 0.979 . S
C399 H376 0.977 . S
C399 C396 1.453 . S
C400 H372 0.979 . S
C400 H373 0.980 . S
C400 H374 0.983 . S
C400 C396 1.684 . S
H401 C419 0.948 . S
H402 C360 0.948 . S
H403 C378 0.979 . S
H404 C378 0.980 . S
H405 C378 0.983 . S
H406 C377 0.982 . S
H407 C377 0.979 . S
H408 C377 0.977 . S
H409 C379 0.948 . S
H410 C381 0.947 . S
H411 C382 0.948 . S
H412 C388 0.982 . S
H413 C388 0.979 . S
H414 C388 0.977 . S
H415 C389 0.979 . S
H416 C389 0.980 . S
H417 C389 0.983 . S
H418 C362 0.947 . S
C419 C362 1.392 . S
C419 C363 1.419 . S
C419 H401 0.948 . S
C420 C421 1.391 . S
C420 C424 1.391 . S
C420 H462 0.948 . S
C421 C420 1.391 . S
C421 C422 1.391 . S
C422 C421 1.391 . S
C422 H478 0.947 . S
C422 C479 1.392 . S
C423 C424 1.391 . S
C423 C427 1.397 . S
C423 C479 1.419 . S
C424 C420 1.391 . S
C424 C423 1.391 . S
C424 C425 1.399 . S
C425 C424 1.399 . S
C425 C428 1.396 . S
C425 C437 1.453 . S
C425 C438 1.684 . S
H426 C450 0.948 . S
C427 C423 1.397 . S
C427 C428 1.394 . S
C427 C446 1.723 . S
C428 C425 1.396 . S
C428 C427 1.394 . S
C428 C458 1.723 . S
H429 C452 0.947 . S
H430 C453 0.948 . S
H431 C459 0.982 . S
H432 C460 0.979 . S
H433 C460 0.980 . S
H434 C460 0.983 . S
H435 C459 0.979 . S
H436 C459 0.977 . S
C437 C425 1.453 . S
C437 H466 0.982 . S
C437 H467 0.979 . S
C437 H468 0.977 . S
C438 C425 1.684 . S
C438 H463 0.979 . S
C438 H464 0.980 . S
C438 H465 0.983 . S
C439 C440 1.391 . S
C439 C444 1.391 . S
C439 H469 0.948 . S
C440 C439 1.391 . S
C440 C441 1.391 . S
C441 C440 1.391 . S
C441 C442 1.392 . S
C441 H470 0.947 . S
C442 C441 1.392 . S
C442 C443 1.419 . S
C442 H471 0.948 . S
C443 C442 1.419 . S
C443 C444 1.391 . S
C443 C447 1.397 . S
C444 C439 1.391 . S
C444 C443 1.391 . S
C444 C445 1.399 . S
C445 C444 1.399 . S
C445 C446 1.396 . S
C445 C448 1.453 . S
C445 C449 1.684 . S
C446 C427 1.723 . S
C446 C445 1.396 . S
C446 C447 1.394 . S
C447 C443 1.397 . S
C447 C446 1.394 . S
C447 C457 1.723 . S
C448 C445 1.453 . S
C448 H472 0.982 . S
C448 H473 0.979 . S
C448 H474 0.977 . S
C449 C445 1.684 . S
C449 H475 0.979 . S
C449 H476 0.980 . S
C449 H477 0.983 . S
C450 H426 0.948 . S
C450 C451 1.391 . S
C450 C455 1.391 . S
C451 C450 1.391 . S
C451 C452 1.391 . S
C452 H429 0.947 . S
C452 C451 1.391 . S
C452 C453 1.392 . S
C453 H430 0.948 . S
C453 C452 1.392 . S
C453 C454 1.419 . S
C454 C453 1.419 . S
C454 C455 1.391 . S
C454 C458 1.397 . S
C455 C450 1.391 . S
C455 C454 1.391 . S
C455 C456 1.399 . S
C456 C455 1.399 . S
C456 C457 1.396 . S
C456 C459 1.453 . S
C456 C460 1.684 . S
C457 C447 1.723 . S
C457 C456 1.396 . S
C457 C458 1.394 . S
C458 C428 1.723 . S
C458 C454 1.397 . S
C458 C457 1.394 . S
C459 H431 0.982 . S
C459 H435 0.979 . S
C459 H436 0.977 . S
C459 C456 1.453 . S
C460 H432 0.979 . S
C460 H433 0.980 . S
C460 H434 0.983 . S
C460 C456 1.684 . S
H461 C479 0.948 . S
H462 C420 0.948 . S
H463 C438 0.979 . S
H464 C438 0.980 . S
H465 C438 0.983 . S
H466 C437 0.982 . S
H467 C437 0.979 . S
H468 C437 0.977 . S
H469 C439 0.948 . S
H470 C441 0.947 . S
H471 C442 0.948 . S
H472 C448 0.982 . S
H473 C448 0.979 . S
H474 C448 0.977 . S
H475 C449 0.979 . S
H476 C449 0.980 . S
H477 C449 0.983 . S
H478 C422 0.947 . S
C479 C422 1.392 . S
C479 C423 1.419 . S
C479 H461 0.948 . S
Zn480 O486 1.920 . S
Zn480 O492 1.898 . S
Zn480 O495 1.905 . S
Zn481 O489 1.905 1_565 S
Zn481 O490 1.898 . S
Zn481 O498 1.920 . S
Zn482 O485 2.080 1_455 S
Zn482 O488 2.114 . S
Zn482 O491 2.120 1_445 S
Zn482 O493 2.120 . S
Zn482 O494 2.114 1_455 S
Zn482 O497 2.080 . S
C483 O488 1.166 . S
C483 O489 1.182 . S
C484 O490 1.167 1_655 S
C484 O491 1.299 . S
O485 Zn482 2.080 1_655 S
O485 C499 1.305 . S
O486 Zn480 1.920 . S
O486 C499 1.234 . S
C487 O492 1.167 1_455 S
C487 O493 1.299 . S
O488 Zn482 2.114 . S
O488 C483 1.166 . S
O489 Zn481 1.905 1_545 S
O489 C483 1.182 . S
O490 Zn481 1.898 . S
O490 C484 1.167 1_455 S
O491 Zn482 2.120 1_665 S
O491 C484 1.299 . S
O492 Zn480 1.898 . S
O492 C487 1.167 1_655 S
O493 Zn482 2.120 . S
O493 C487 1.299 . S
O494 Zn482 2.114 1_655 S
O494 C496 1.166 . S
O495 Zn480 1.905 . S
O495 C496 1.182 . S
C496 O494 1.166 . S
C496 O495 1.182 . S
O497 Zn482 2.080 . S
O497 C500 1.305 1_545 S
O498 Zn481 1.920 . S
O498 C500 1.234 . S
C499 O485 1.305 . S
C499 O486 1.234 . S
C500 O497 1.305 1_565 S
C500 O498 1.234 . S
Zn501 O507 1.920 1_556 S
Zn501 O513 1.898 . S
Zn501 O516 1.905 . S
Zn502 O510 1.905 . S
Zn502 O511 1.898 . S
Zn502 O519 1.920 . S
Zn503 O506 2.080 . S
Zn503 O509 2.114 1_545 S
Zn503 O512 2.120 1_545 S
Zn503 O514 2.120 . S
Zn503 O515 2.114 1_544 S
Zn503 O518 2.080 . S
C504 O509 1.166 . S
C504 O510 1.182 . S
C505 O511 1.167 . S
C505 O512 1.299 . S
O506 Zn503 2.080 . S
O506 C520 1.305 . S
O507 Zn501 1.920 1_554 S
O507 C520 1.234 . S
C508 O513 1.167 . S
C508 O514 1.299 1_556 S
O509 Zn503 2.114 1_565 S
O509 C504 1.166 . S
O510 Zn502 1.905 . S
O510 C504 1.182 . S
O511 Zn502 1.898 . S
O511 C505 1.167 . S
O512 Zn503 2.120 1_565 S
O512 C505 1.299 . S
O513 Zn501 1.898 . S
O513 C508 1.167 . S
O514 Zn503 2.120 . S
O514 C508 1.299 1_554 S
O515 Zn503 2.114 1_566 S
O515 C517 1.166 . S
O516 Zn501 1.905 . S
O516 C517 1.182 1_545 S
C517 O515 1.166 . S
C517 O516 1.182 1_565 S
O518 Zn503 2.080 . S
O518 C521 1.305 . S
O519 Zn502 1.920 . S
O519 C521 1.234 1_565 S
C520 O506 1.305 . S
C520 O507 1.234 . S
C521 O518 1.305 . S
C521 O519 1.234 1_545 S
Zn522 O528 1.920 . S
Zn522 O534 1.898 . S
Zn522 O537 1.905 . S
Zn523 O531 1.905 . S
Zn523 O532 1.898 . S
Zn523 O540 1.920 . S
Zn524 O527 2.080 . S
Zn524 O530 2.114 . S
Zn524 O533 2.120 . S
Zn524 O535 2.120 . S
Zn524 O536 2.114 . S
Zn524 O539 2.080 . S
C525 O530 1.166 . S
C525 O531 1.182 . S
C526 O532 1.167 . S
C526 O533 1.299 . S
O527 Zn524 2.080 . S
O527 C541 1.305 . S
O528 Zn522 1.920 . S
O528 C541 1.234 . S
C529 O534 1.167 . S
C529 O535 1.299 . S
O530 Zn524 2.114 . S
O530 C525 1.166 . S
O531 Zn523 1.905 . S
O531 C525 1.182 . S
O532 Zn523 1.898 . S
O532 C526 1.167 . S
O533 Zn524 2.120 . S
O533 C526 1.299 . S
O534 Zn522 1.898 . S
O534 C529 1.167 . S
O535 Zn524 2.120 . S
O535 C529 1.299 . S
O536 Zn524 2.114 . S
O536 C538 1.166 . S
O537 Zn522 1.905 . S
O537 C538 1.182 . S
C538 O536 1.166 . S
C538 O537 1.182 . S
O539 Zn524 2.080 . S
O539 C542 1.305 . S
O540 Zn523 1.920 . S
O540 C542 1.234 . S
C541 O527 1.305 . S
C541 O528 1.234 . S
C542 O539 1.305 . S
C542 O540 1.234 . S
Zn543 O549 1.920 . S
Zn543 O555 1.898 . S
Zn543 O558 1.905 . S
Zn544 O552 1.905 1_655 S
Zn544 O553 1.898 . S
Zn544 O561 1.920 . S
Zn545 O548 2.080 1_554 S
Zn545 O551 2.114 . S
Zn545 O554 2.120 1_454 S
Zn545 O556 2.120 . S
Zn545 O557 2.114 1_554 S
Zn545 O560 2.080 . S
C546 O551 1.166 . S
C546 O552 1.182 . S
C547 O553 1.167 1_556 S
C547 O554 1.299 . S
O548 Zn545 2.080 1_556 S
O548 C562 1.305 . S
O549 Zn543 1.920 . S
O549 C562 1.234 . S
C550 O555 1.167 1_554 S
C550 O556 1.299 . S
O551 Zn545 2.114 . S
O551 C546 1.166 . S
O552 Zn544 1.905 1_455 S
O552 C546 1.182 . S
O553 Zn544 1.898 . S
O553 C547 1.167 1_554 S
O554 Zn545 2.120 1_656 S
O554 C547 1.299 . S
O555 Zn543 1.898 . S
O555 C550 1.167 1_556 S
O556 Zn545 2.120 . S
O556 C550 1.299 . S
O557 Zn545 2.114 1_556 S
O557 C559 1.166 . S
O558 Zn543 1.905 . S
O558 C559 1.182 . S
C559 O557 1.166 . S
C559 O558 1.182 . S
O560 Zn545 2.080 . S
O560 C563 1.305 1_455 S
O561 Zn544 1.920 . S
O561 C563 1.234 . S
C562 O548 1.305 . S
C562 O549 1.234 . S
C563 O560 1.305 1_655 S
C563 O561 1.234 . S
C564 C565 1.391 . S
C564 C566 1.394 . S
C564 H580 0.931 . S
C565 C564 1.391 . S
C565 C569 1.376 . S
C566 C564 1.394 . S
C566 C567 1.369 . S
C566 C570 1.531 . S
C567 C566 1.369 . S
C567 C568 1.410 . S
C567 C575 1.503 . S
C568 C567 1.410 . S
C568 C569 1.392 . S
C568 C571 1.511 . S
C569 C565 1.376 . S
C569 C568 1.392 . S
C569 H581 0.929 . S
C570 C566 1.531 . S
C570 H582 0.960 . S
C570 H583 0.962 . S
C570 H584 0.960 . S
C571 C568 1.511 . S
C571 H585 0.961 . S
C571 H586 0.961 . S
C571 H587 0.961 . S
C572 C573 1.370 . S
C572 C574 1.363 . S
C572 H588 0.931 . S
C573 C572 1.370 . S
C573 C577 1.408 . S
C574 C572 1.363 . S
C574 C575 1.370 . S
C574 C578 1.524 . S
C575 C567 1.503 . S
C575 C574 1.370 . S
C575 C576 1.403 . S
C576 C575 1.403 . S
C576 C577 1.404 . S
C576 C579 1.539 . S
C577 C573 1.408 . S
C577 C576 1.404 . S
C577 H589 0.930 . S
C578 C574 1.524 . S
C578 H590 0.956 . S
C578 H591 0.961 . S
C578 H592 0.961 . S
C579 C576 1.539 . S
C579 H593 0.958 . S
C579 H594 0.961 . S
C579 H595 0.960 . S
H580 C564 0.931 . S
H581 C569 0.929 . S
H582 C570 0.960 . S
H583 C570 0.962 . S
H584 C570 0.960 . S
H585 C571 0.961 . S
H586 C571 0.961 . S
H587 C571 0.961 . S
H588 C572 0.931 . S
H589 C577 0.930 . S
H590 C578 0.956 . S
H591 C578 0.961 . S
H592 C578 0.961 . S
H593 C579 0.958 . S
H594 C579 0.961 . S
H595 C579 0.960 . S
C596 C597 1.391 . S
C596 C598 1.394 . S
C596 H612 0.931 . S
C597 C596 1.391 . S
C597 C601 1.376 . S
C598 C596 1.394 . S
C598 C599 1.369 . S
C598 C602 1.531 . S
C599 C598 1.369 . S
C599 C600 1.410 . S
C599 C607 1.503 . S
C600 C599 1.410 . S
C600 C601 1.392 . S
C600 C603 1.511 . S
C601 C597 1.376 . S
C601 C600 1.392 . S
C601 H613 0.929 . S
C602 C598 1.531 . S
C602 H614 0.960 . S
C602 H615 0.962 . S
C602 H616 0.960 . S
C603 C600 1.511 . S
C603 H617 0.961 . S
C603 H618 0.961 . S
C603 H619 0.961 . S
C604 C605 1.370 . S
C604 C606 1.363 . S
C604 H620 0.931 . S
C605 C604 1.370 . S
C605 C609 1.408 . S
C606 C604 1.363 . S
C606 C607 1.370 . S
C606 C610 1.524 . S
C607 C599 1.503 . S
C607 C606 1.370 . S
C607 C608 1.403 . S
C608 C607 1.403 . S
C608 C609 1.404 . S
C608 C611 1.539 1_565 S
C609 C605 1.408 . S
C609 C608 1.404 . S
C609 H621 0.930 1_565 S
C610 C606 1.524 . S
C610 H622 0.956 . S
C610 H623 0.961 . S
C610 H624 0.961 . S
C611 C608 1.539 1_545 S
C611 H625 0.958 . S
C611 H626 0.961 . S
C611 H627 0.960 1_545 S
H612 C596 0.931 . S
H613 C601 0.929 . S
H614 C602 0.960 . S
H615 C602 0.962 . S
H616 C602 0.960 . S
H617 C603 0.961 . S
H618 C603 0.961 . S
H619 C603 0.961 . S
H620 C604 0.931 . S
H621 C609 0.930 1_545 S
H622 C610 0.956 . S
H623 C610 0.961 . S
H624 C610 0.961 . S
H625 C611 0.958 . S
H626 C611 0.961 . S
H627 C611 0.960 1_565 S
C628 C629 1.391 . S
C628 C630 1.394 . S
C628 H644 0.931 . S
C629 C628 1.391 . S
C629 C633 1.376 . S
C630 C628 1.394 . S
C630 C631 1.369 . S
C630 C634 1.531 . S
C631 C630 1.369 . S
C631 C632 1.410 . S
C631 C639 1.503 . S
C632 C631 1.410 . S
C632 C633 1.392 . S
C632 C635 1.511 . S
C633 C629 1.376 . S
C633 C632 1.392 . S
C633 H645 0.929 . S
C634 C630 1.531 . S
C634 H646 0.960 . S
C634 H647 0.962 . S
C634 H648 0.960 . S
C635 C632 1.511 . S
C635 H649 0.961 . S
C635 H650 0.961 . S
C635 H651 0.961 . S
C636 C637 1.370 . S
C636 C638 1.363 . S
C636 H652 0.931 . S
C637 C636 1.370 . S
C637 C641 1.408 . S
C638 C636 1.363 . S
C638 C639 1.370 . S
C638 C642 1.524 . S
C639 C631 1.503 . S
C639 C638 1.370 . S
C639 C640 1.403 . S
C640 C639 1.403 . S
C640 C641 1.404 . S
C640 C643 1.539 . S
C641 C637 1.408 . S
C641 C640 1.404 . S
C641 H653 0.930 . S
C642 C638 1.524 . S
C642 H654 0.956 . S
C642 H655 0.961 . S
C642 H656 0.961 . S
C643 C640 1.539 . S
C643 H657 0.958 . S
C643 H658 0.961 . S
C643 H659 0.960 . S
H644 C628 0.931 . S
H645 C633 0.929 . S
H646 C634 0.960 . S
H647 C634 0.962 . S
H648 C634 0.960 . S
H649 C635 0.961 . S
H650 C635 0.961 . S
H651 C635 0.961 . S
H652 C636 0.931 . S
H653 C641 0.930 . S
H654 C642 0.956 . S
H655 C642 0.961 . S
H656 C642 0.961 . S
H657 C643 0.958 . S
H658 C643 0.961 . S
H659 C643 0.960 . S
C660 C661 1.391 . S
C660 C662 1.394 . S
C660 H676 0.931 . S
C661 C660 1.391 . S
C661 C665 1.376 . S
C662 C660 1.394 . S
C662 C663 1.369 . S
C662 C666 1.531 . S
C663 C662 1.369 . S
C663 C664 1.410 . S
C663 C671 1.503 . S
C664 C663 1.410 . S
C664 C665 1.392 . S
C664 C667 1.511 . S
C665 C661 1.376 . S
C665 C664 1.392 . S
C665 H677 0.929 . S
C666 C662 1.531 . S
C666 H678 0.960 . S
C666 H679 0.962 . S
C666 H680 0.960 . S
C667 C664 1.511 . S
C667 H681 0.961 1_655 S
C667 H682 0.962 1_655 S
C667 H683 0.961 1_655 S
C668 C669 1.370 . S
C668 C670 1.363 . S
C668 H684 0.931 . S
C669 C668 1.370 . S
C669 C673 1.408 . S
C670 C668 1.363 . S
C670 C671 1.370 . S
C670 C674 1.524 . S
C671 C663 1.503 . S
C671 C670 1.370 . S
C671 C672 1.403 . S
C672 C671 1.403 . S
C672 C673 1.404 . S
C672 C675 1.539 . S
C673 C669 1.408 . S
C673 C672 1.404 . S
C673 H685 0.930 . S
C674 C670 1.524 . S
C674 H686 0.956 . S
C674 H687 0.961 . S
C674 H688 0.961 . S
C675 C672 1.539 . S
C675 H689 0.958 . S
C675 H690 0.961 . S
C675 H691 0.960 . S
H676 C660 0.931 . S
H677 C665 0.929 . S
H678 C666 0.960 . S
H679 C666 0.962 . S
H680 C666 0.960 . S
H681 C667 0.961 1_455 S
H682 C667 0.962 1_455 S
H683 C667 0.961 1_455 S
H684 C668 0.931 . S
H685 C673 0.930 . S
H686 C674 0.956 . S
H687 C674 0.961 . S
H688 C674 0.961 . S
H689 C675 0.958 . S
H690 C675 0.961 . S
H691 C675 0.960 . S
C692 C693 1.391 . S
C692 C694 1.394 . S
C692 H708 0.931 . S
C693 C692 1.391 . S
C693 C697 1.376 . S
C694 C692 1.394 . S
C694 C695 1.369 . S
C694 C698 1.531 . S
C695 C694 1.369 . S
C695 C696 1.410 . S
C695 C703 1.503 . S
C696 C695 1.410 . S
C696 C697 1.392 . S
C696 C699 1.511 . S
C697 C693 1.376 . S
C697 C696 1.392 . S
C697 H709 0.929 . S
C698 C694 1.531 . S
C698 H710 0.960 . S
C698 H711 0.962 . S
C698 H712 0.960 . S
C699 C696 1.511 . S
C699 H713 0.961 . S
C699 H714 0.961 . S
C699 H715 0.961 . S
C700 C701 1.370 . S
C700 C702 1.363 . S
C700 H716 0.931 . S
C701 C700 1.370 . S
C701 C705 1.408 . S
C702 C700 1.363 . S
C702 C703 1.370 . S
C702 C706 1.524 . S
C703 C695 1.503 . S
C703 C702 1.370 . S
C703 C704 1.403 . S
C704 C703 1.403 . S
C704 C705 1.404 . S
C704 C707 1.539 . S
C705 C701 1.408 . S
C705 C704 1.404 . S
C705 H717 0.930 . S
C706 C702 1.524 . S
C706 H718 0.956 . S
C706 H719 0.961 . S
C706 H720 0.961 . S
C707 C704 1.539 . S
C707 H721 0.958 . S
C707 H722 0.961 . S
C707 H723 0.960 . S
H708 C692 0.931 . S
H709 C697 0.929 . S
H710 C698 0.960 . S
H711 C698 0.962 . S
H712 C698 0.960 . S
H713 C699 0.961 . S
H714 C699 0.961 . S
H715 C699 0.961 . S
H716 C700 0.931 . S
H717 C705 0.930 . S
H718 C706 0.956 . S
H719 C706 0.961 . S
H720 C706 0.961 . S
H721 C707 0.958 . S
H722 C707 0.961 . S
H723 C707 0.960 . S
C724 C725 1.391 . S
C724 C726 1.394 . S
C724 H740 0.931 . S
C725 C724 1.391 . S
C725 C729 1.376 . S
C726 C724 1.394 . S
C726 C727 1.369 . S
C726 C730 1.531 . S
C727 C726 1.369 . S
C727 C728 1.410 . S
C727 C735 1.503 . S
C728 C727 1.410 . S
C728 C729 1.392 . S
C728 C731 1.511 . S
C729 C725 1.376 . S
C729 C728 1.392 . S
C729 H741 0.929 . S
C730 C726 1.531 . S
C730 H742 0.960 . S
C730 H743 0.962 . S
C730 H744 0.960 . S
C731 C728 1.511 . S
C731 H745 0.961 . S
C731 H746 0.961 . S
C731 H747 0.961 . S
C732 C733 1.370 . S
C732 C734 1.363 . S
C732 H748 0.931 1_565 S
C733 C732 1.370 . S
C733 C737 1.408 . S
C734 C732 1.363 . S
C734 C735 1.370 . S
C734 C738 1.529 . S
C735 C727 1.503 . S
C735 C734 1.370 . S
C735 C736 1.403 . S
C736 C735 1.403 . S
C736 C737 1.404 . S
C736 C739 1.539 . S
C737 C733 1.408 . S
C737 C736 1.404 . S
C737 H749 0.930 . S
C738 C734 1.529 . S
C738 H750 0.955 1_565 S
C738 H751 0.966 . S
C738 H752 0.953 1_565 S
C739 C736 1.539 . S
C739 H753 0.958 . S
C739 H754 0.961 . S
C739 H755 0.960 . S
H740 C724 0.931 . S
H741 C729 0.929 . S
H742 C730 0.960 . S
H743 C730 0.962 . S
H744 C730 0.960 . S
H745 C731 0.961 . S
H746 C731 0.961 . S
H747 C731 0.961 . S
H748 C732 0.931 1_545 S
H749 C737 0.930 . S
H750 C738 0.955 1_545 S
H751 C738 0.966 . S
H752 C738 0.953 1_545 S
H753 C739 0.958 . S
H754 C739 0.961 . S
H755 C739 0.960 . S
C756 C757 1.391 . S
C756 C758 1.394 . S
C756 H772 0.931 . S
C757 C756 1.391 . S
C757 C761 1.376 . S
C758 C756 1.394 . S
C758 C759 1.369 . S
C758 C762 1.531 . S
C759 C758 1.369 . S
C759 C760 1.410 . S
C759 C767 1.503 . S
C760 C759 1.410 . S
C760 C761 1.392 . S
C760 C763 1.511 . S
C761 C757 1.376 . S
C761 C760 1.392 . S
C761 H773 0.929 . S
C762 C758 1.531 . S
C762 H774 0.960 . S
C762 H775 0.962 . S
C762 H776 0.960 . S
C763 C760 1.511 . S
C763 H777 0.961 . S
C763 H778 0.961 . S
C763 H779 0.961 . S
C764 C765 1.370 . S
C764 C766 1.363 . S
C764 H780 0.931 . S
C765 C764 1.370 . S
C765 C769 1.408 . S
C766 C764 1.363 . S
C766 C767 1.370 . S
C766 C770 1.524 . S
C767 C759 1.503 . S
C767 C766 1.370 . S
C767 C768 1.403 . S
C768 C767 1.403 . S
C768 C769 1.404 . S
C768 C771 1.539 . S
C769 C765 1.408 . S
C769 C768 1.404 . S
C769 H781 0.930 1_556 S
C770 C766 1.524 . S
C770 H782 0.956 . S
C770 H783 0.961 . S
C770 H784 0.961 . S
C771 C768 1.539 . S
C771 H785 0.958 . S
C771 H786 0.961 1_556 S
C771 H787 0.960 . S
H772 C756 0.931 . S
H773 C761 0.929 . S
H774 C762 0.960 . S
H775 C762 0.962 . S
H776 C762 0.960 . S
H777 C763 0.961 . S
H778 C763 0.961 . S
H779 C763 0.961 . S
H780 C764 0.931 . S
H781 C769 0.930 1_554 S
H782 C770 0.956 . S
H783 C770 0.961 . S
H784 C770 0.961 . S
H785 C771 0.958 . S
H786 C771 0.961 1_554 S
H787 C771 0.960 . S
C788 C789 1.391 . S
C788 C790 1.394 . S
C788 H804 0.931 . S
C789 C788 1.391 . S
C789 C793 1.376 . S
C790 C788 1.394 . S
C790 C791 1.369 . S
C790 C794 1.531 . S
C791 C790 1.369 . S
C791 C792 1.410 . S
C791 C799 1.503 . S
C792 C791 1.410 . S
C792 C793 1.392 . S
C792 C795 1.511 . S
C793 C789 1.376 . S
C793 C792 1.392 . S
C793 H805 0.929 . S
C794 C790 1.531 . S
C794 H806 0.960 . S
C794 H807 0.962 . S
C794 H808 0.960 . S
C795 C792 1.511 . S
C795 H809 0.961 . S
C795 H810 0.961 . S
C795 H811 0.961 . S
C796 C797 1.370 . S
C796 C798 1.363 . S
C796 H812 0.931 . S
C797 C796 1.370 . S
C797 C801 1.408 . S
C798 C796 1.363 . S
C798 C799 1.370 . S
C798 C802 1.524 . S
C799 C791 1.503 . S
C799 C798 1.370 . S
C799 C800 1.403 . S
C800 C799 1.403 . S
C800 C801 1.404 . S
C800 C803 1.539 . S
C801 C797 1.408 . S
C801 C800 1.404 . S
C801 H813 0.930 . S
C802 C798 1.524 . S
C802 H814 0.956 . S
C802 H815 0.961 . S
C802 H816 0.961 . S
C803 C800 1.539 . S
C803 H817 0.958 . S
C803 H818 0.961 . S
C803 H819 0.960 . S
H804 C788 0.931 . S
H805 C793 0.929 . S
H806 C794 0.960 . S
H807 C794 0.962 . S
H808 C794 0.960 . S
H809 C795 0.961 . S
H810 C795 0.961 . S
H811 C795 0.961 . S
H812 C796 0.931 . S
H813 C801 0.930 . S
H814 C802 0.956 . S
H815 C802 0.961 . S
H816 C802 0.961 . S
H817 C803 0.958 . S
H818 C803 0.961 . S
H819 C803 0.960 . S
C820 C821 1.391 . S
C820 C822 1.394 . S
C820 H836 0.931 . S
C821 C820 1.391 . S
C821 C825 1.376 . S
C822 C820 1.394 . S
C822 C823 1.369 . S
C822 C826 1.531 . S
C823 C822 1.369 . S
C823 C824 1.410 . S
C823 C831 1.503 . S
C824 C823 1.410 . S
C824 C825 1.392 . S
C824 C827 1.511 . S
C825 C821 1.376 . S
C825 C824 1.392 . S
C825 H837 0.929 . S
C826 C822 1.531 . S
C826 H838 0.960 . S
C826 H839 0.962 . S
C826 H840 0.960 . S
C827 C824 1.511 . S
C827 H841 0.961 . S
C827 H842 0.961 . S
C827 H843 0.961 . S
C828 C829 1.370 . S
C828 C830 1.363 . S
C828 H844 0.931 . S
C829 C828 1.370 . S
C829 C833 1.408 . S
C830 C828 1.363 . S
C830 C831 1.370 . S
C830 C834 1.524 . S
C831 C823 1.503 . S
C831 C830 1.370 . S
C831 C832 1.403 . S
C832 C831 1.403 . S
C832 C833 1.404 . S
C832 C835 1.539 . S
C833 C829 1.408 . S
C833 C832 1.404 . S
C833 H845 0.930 . S
C834 C830 1.524 . S
C834 H846 0.956 . S
C834 H847 0.961 . S
C834 H848 0.961 . S
C835 C832 1.539 . S
C835 H849 0.958 . S
C835 H850 0.961 . S
C835 H851 0.960 . S
H836 C820 0.931 . S
H837 C825 0.929 . S
H838 C826 0.960 . S
H839 C826 0.962 . S
H840 C826 0.960 . S
H841 C827 0.961 . S
H842 C827 0.961 . S
H843 C827 0.961 . S
H844 C828 0.931 . S
H845 C833 0.930 . S
H846 C834 0.956 . S
H847 C834 0.961 . S
H848 C834 0.961 . S
H849 C835 0.958 . S
H850 C835 0.961 . S
H851 C835 0.960 . S
C852 C853 1.391 . S
C852 C854 1.394 . S
C852 H868 0.931 . S
C853 C852 1.391 . S
C853 C857 1.376 . S
C854 C852 1.394 . S
C854 C855 1.369 . S
C854 C858 1.531 . S
C855 C854 1.369 . S
C855 C856 1.410 . S
C855 C863 1.503 . S
C856 C855 1.410 . S
C856 C857 1.392 . S
C856 C859 1.511 . S
C857 C853 1.376 . S
C857 C856 1.392 . S
C857 H869 0.929 . S
C858 C854 1.531 . S
C858 H870 0.960 . S
C858 H871 0.962 . S
C858 H872 0.960 . S
C859 C856 1.511 . S
C859 H873 0.961 . S
C859 H874 0.961 . S
C859 H875 0.961 . S
C860 C861 1.370 . S
C860 C862 1.363 . S
C860 H876 0.931 . S
C861 C860 1.370 . S
C861 C865 1.408 . S
C862 C860 1.363 . S
C862 C863 1.370 . S
C862 C866 1.524 . S
C863 C855 1.503 . S
C863 C862 1.370 . S
C863 C864 1.403 . S
C864 C863 1.403 . S
C864 C865 1.404 . S
C864 C867 1.539 . S
C865 C861 1.408 . S
C865 C864 1.404 . S
C865 H877 0.930 . S
C866 C862 1.524 . S
C866 H878 0.956 . S
C866 H879 0.961 . S
C866 H880 0.961 . S
C867 C864 1.539 . S
C867 H881 0.958 . S
C867 H882 0.961 . S
C867 H883 0.960 . S
H868 C852 0.931 . S
H869 C857 0.929 . S
H870 C858 0.960 . S
H871 C858 0.962 . S
H872 C858 0.960 . S
H873 C859 0.961 . S
H874 C859 0.961 . S
H875 C859 0.961 . S
H876 C860 0.931 . S
H877 C865 0.930 . S
H878 C866 0.956 . S
H879 C866 0.961 . S
H880 C866 0.961 . S
H881 C867 0.958 . S
H882 C867 0.961 . S
H883 C867 0.960 . S
C884 C885 1.391 . S
C884 C886 1.394 . S
C884 H900 0.931 . S
C885 C884 1.391 . S
C885 C889 1.376 . S
C886 C884 1.394 . S
C886 C887 1.369 . S
C886 C890 1.531 . S
C887 C886 1.369 . S
C887 C888 1.410 . S
C887 C895 1.503 . S
C888 C887 1.410 . S
C888 C889 1.392 . S
C888 C891 1.511 . S
C889 C885 1.376 . S
C889 C888 1.392 . S
C889 H901 0.929 . S
C890 C886 1.531 . S
C890 H902 0.960 . S
C890 H903 0.962 . S
C890 H904 0.960 . S
C891 C888 1.511 . S
C891 H905 0.961 . S
C891 H906 0.961 . S
C891 H907 0.961 . S
C892 C893 1.370 . S
C892 C894 1.363 . S
C892 H908 0.931 . S
C893 C892 1.370 . S
C893 C897 1.408 . S
C894 C892 1.363 . S
C894 C895 1.370 . S
C894 C898 1.524 . S
C895 C887 1.503 . S
C895 C894 1.370 . S
C895 C896 1.403 . S
C896 C895 1.403 . S
C896 C897 1.404 . S
C896 C899 1.539 . S
C897 C893 1.408 . S
C897 C896 1.404 . S
C897 H909 0.930 . S
C898 C894 1.524 . S
C898 H910 0.956 . S
C898 H911 0.961 . S
C898 H912 0.961 . S
C899 C896 1.539 . S
C899 H913 0.958 . S
C899 H914 0.961 . S
C899 H915 0.960 . S
H900 C884 0.931 . S
H901 C889 0.929 . S
H902 C890 0.960 . S
H903 C890 0.962 . S
H904 C890 0.960 . S
H905 C891 0.961 . S
H906 C891 0.961 . S
H907 C891 0.961 . S
H908 C892 0.931 . S
H909 C897 0.930 . S
H910 C898 0.956 . S
H911 C898 0.961 . S
H912 C898 0.961 . S
H913 C899 0.958 . S
H914 C899 0.961 . S
H915 C899 0.960 . S
C916 C917 1.391 . S
C916 C918 1.394 . S
C916 H932 0.931 . S
C917 C916 1.391 . S
C917 C921 1.376 . S
C918 C916 1.394 . S
C918 C919 1.369 . S
C918 C922 1.531 . S
C919 C918 1.369 . S
C919 C920 1.410 . S
C919 C927 1.503 . S
C920 C919 1.410 . S
C920 C921 1.392 . S
C920 C923 1.511 . S
C921 C917 1.376 . S
C921 C920 1.392 . S
C921 H933 0.929 . S
C922 C918 1.531 . S
C922 H934 0.960 . S
C922 H935 0.962 . S
C922 H936 0.960 . S
C923 C920 1.511 . S
C923 H937 0.961 . S
C923 H938 0.961 . S
C923 H939 0.961 . S
C924 C925 1.370 . S
C924 C926 1.363 . S
C924 H940 0.931 . S
C925 C924 1.370 . S
C925 C929 1.408 . S
C926 C924 1.363 . S
C926 C927 1.370 . S
C926 C930 1.524 . S
C927 C919 1.503 . S
C927 C926 1.370 . S
C927 C928 1.403 . S
C928 C927 1.403 . S
C928 C929 1.404 . S
C928 C931 1.539 . S
C929 C925 1.408 . S
C929 C928 1.404 . S
C929 H941 0.930 . S
C930 C926 1.524 . S
C930 H942 0.956 . S
C930 H943 0.961 . S
C930 H944 0.961 . S
C931 C928 1.539 . S
C931 H945 0.958 . S
C931 H946 0.961 . S
C931 H947 0.960 . S
H932 C916 0.931 . S
H933 C921 0.929 . S
H934 C922 0.960 . S
H935 C922 0.962 . S
H936 C922 0.960 . S
H937 C923 0.961 . S
H938 C923 0.961 . S
H939 C923 0.961 . S
H940 C924 0.931 . S
H941 C929 0.930 . S
H942 C930 0.956 . S
H943 C930 0.961 . S
H944 C930 0.961 . S
H945 C931 0.958 . S
H946 C931 0.961 . S
H947 C931 0.960 . S
C948 C949 1.391 1_455 S
C948 C950 1.394 . S
C948 H964 0.931 . S
C949 C948 1.391 1_655 S
C949 C953 1.376 1_565 S
C950 C948 1.394 . S
C950 C951 1.369 1_455 S
C950 C954 1.531 . S
C951 C950 1.369 1_655 S
C951 C952 1.410 1_565 S
C951 C959 1.503 1_565 S
C952 C951 1.410 1_545 S
C952 C953 1.392 . S
C952 C955 1.511 . S
C953 C949 1.376 1_545 S
C953 C952 1.392 . S
C953 H965 0.929 . S
C954 C950 1.531 . S
C954 H966 0.960 . S
C954 H967 0.962 . S
C954 H968 0.960 . S
C955 C952 1.511 . S
C955 H969 0.961 . S
C955 H970 0.961 . S
C955 H971 0.961 . S
C956 C957 1.372 . S
C956 C958 1.364 . S
C956 H972 0.928 1_655 S
C957 C956 1.372 . S
C957 C961 1.408 1_545 S
C958 C956 1.364 . S
C958 C959 1.370 . S
C958 C962 1.524 1_655 S
C959 C951 1.503 1_545 S
C959 C958 1.370 . S
C959 C960 1.403 1_545 S
C960 C959 1.403 1_565 S
C960 C961 1.404 . S
C960 C963 1.539 . S
C961 C957 1.408 1_565 S
C961 C960 1.404 . S
C961 H973 0.930 . S
C962 C958 1.524 1_455 S
C962 H974 0.956 . S
C962 H975 0.961 1_455 S
C962 H976 0.961 . S
C963 C960 1.539 . S
C963 H977 0.958 . S
C963 H978 0.961 . S
C963 H979 0.960 . S
H964 C948 0.931 . S
H965 C953 0.929 . S
H966 C954 0.960 . S
H967 C954 0.962 . S
H968 C954 0.960 . S
H969 C955 0.961 . S
H970 C955 0.961 . S
H971 C955 0.961 . S
H972 C956 0.928 1_455 S
H973 C961 0.930 . S
H974 C962 0.956 . S
H975 C962 0.961 1_655 S
H976 C962 0.961 . S
H977 C963 0.958 . S
H978 C963 0.961 . S
H979 C963 0.960 . S
C980 C981 1.391 . S
C980 C982 1.394 . S
C980 H996 0.931 . S
C981 C980 1.391 . S
C981 C985 1.376 . S
C982 C980 1.394 . S
C982 C983 1.369 . S
C982 C986 1.531 1_545 S
C983 C982 1.369 . S
C983 C984 1.410 . S
C983 C991 1.503 . S
C984 C983 1.410 . S
C984 C985 1.392 . S
C984 C987 1.511 . S
C985 C981 1.376 . S
C985 C984 1.392 . S
C985 H997 0.929 . S
C986 C982 1.531 1_565 S
C986 H998 0.960 . S
C986 H999 0.962 1_565 S
C986 H1000 0.960 . S
C987 C984 1.511 . S
C987 H1001 0.961 . S
C987 H1002 0.961 . S
C987 H1003 0.961 . S
C988 C989 1.370 . S
C988 C990 1.363 . S
C988 H1004 0.931 . S
C989 C988 1.370 . S
C989 C993 1.408 . S
C990 C988 1.363 . S
C990 C991 1.370 . S
C990 C994 1.524 . S
C991 C983 1.503 . S
C991 C990 1.370 . S
C991 C992 1.403 . S
C992 C991 1.403 . S
C992 C993 1.404 . S
C992 C995 1.539 1_545 S
C993 C989 1.408 . S
C993 C992 1.404 . S
C993 H1005 0.930 1_545 S
C994 C990 1.524 . S
C994 H1006 0.956 . S
C994 H1007 0.961 . S
C994 H1008 0.961 . S
C995 C992 1.539 1_565 S
C995 H1009 0.958 . S
C995 H1010 0.961 . S
C995 H1011 0.960 . S
H996 C980 0.931 . S
H997 C985 0.929 . S
H998 C986 0.960 . S
H999 C986 0.962 1_545 S
H1000 C986 0.960 . S
H1001 C987 0.961 . S
H1002 C987 0.961 . S
H1003 C987 0.961 . S
H1004 C988 0.931 . S
H1005 C993 0.930 1_565 S
H1006 C994 0.956 . S
H1007 C994 0.961 . S
H1008 C994 0.961 . S
H1009 C995 0.958 . S
H1010 C995 0.961 . S
H1011 C995 0.960 . S
C1012 C1013 1.391 . S
C1012 C1014 1.394 . S
C1012 H1028 0.931 . S
C1013 C1012 1.391 . S
C1013 C1017 1.376 . S
C1014 C1012 1.394 . S
C1014 C1015 1.369 . S
C1014 C1018 1.531 . S
C1015 C1014 1.369 . S
C1015 C1016 1.410 . S
C1015 C1023 1.503 . S
C1016 C1015 1.410 . S
C1016 C1017 1.392 . S
C1016 C1019 1.511 . S
C1017 C1013 1.376 . S
C1017 C1016 1.392 . S
C1017 H1029 0.929 . S
C1018 C1014 1.531 . S
C1018 H1030 0.960 . S
C1018 H1031 0.962 . S
C1018 H1032 0.960 . S
C1019 C1016 1.511 . S
C1019 H1033 0.961 . S
C1019 H1034 0.961 . S
C1019 H1035 0.961 . S
C1020 C1021 1.370 . S
C1020 C1022 1.363 . S
C1020 H1036 0.931 . S
C1021 C1020 1.370 . S
C1021 C1025 1.408 . S
C1022 C1020 1.363 . S
C1022 C1023 1.370 . S
C1022 C1026 1.524 . S
C1023 C1015 1.503 . S
C1023 C1022 1.370 . S
C1023 C1024 1.403 . S
C1024 C1023 1.403 . S
C1024 C1025 1.404 . S
C1024 C1027 1.539 . S
C1025 C1021 1.408 . S
C1025 C1024 1.404 . S
C1025 H1037 0.930 . S
C1026 C1022 1.524 . S
C1026 H1038 0.956 . S
C1026 H1039 0.961 . S
C1026 H1040 0.961 . S
C1027 C1024 1.539 . S
C1027 H1041 0.958 . S
C1027 H1042 0.961 . S
C1027 H1043 0.960 . S
H1028 C1012 0.931 . S
H1029 C1017 0.929 . S
H1030 C1018 0.960 . S
H1031 C1018 0.962 . S
H1032 C1018 0.960 . S
H1033 C1019 0.961 . S
H1034 C1019 0.961 . S
H1035 C1019 0.961 . S
H1036 C1020 0.931 . S
H1037 C1025 0.930 . S
H1038 C1026 0.956 . S
H1039 C1026 0.961 . S
H1040 C1026 0.961 . S
H1041 C1027 0.958 . S
H1042 C1027 0.961 . S
H1043 C1027 0.960 . S
C1044 C1045 1.391 . S
C1044 C1046 1.394 . S
C1044 H1060 0.931 . S
C1045 C1044 1.391 . S
C1045 C1049 1.376 . S
C1046 C1044 1.394 . S
C1046 C1047 1.369 . S
C1046 C1050 1.531 . S
C1047 C1046 1.369 . S
C1047 C1048 1.410 . S
C1047 C1055 1.503 . S
C1048 C1047 1.410 . S
C1048 C1049 1.392 . S
C1048 C1051 1.511 . S
C1049 C1045 1.376 . S
C1049 C1048 1.392 . S
C1049 H1061 0.929 . S
C1050 C1046 1.531 . S
C1050 H1062 0.960 . S
C1050 H1063 0.962 . S
C1050 H1064 0.960 . S
C1051 C1048 1.511 . S
C1051 H1065 0.961 . S
C1051 H1066 0.961 . S
C1051 H1067 0.961 . S
C1052 C1053 1.370 . S
C1052 C1054 1.363 . S
C1052 H1068 0.931 . S
C1053 C1052 1.370 . S
C1053 C1057 1.408 . S
C1054 C1052 1.363 . S
C1054 C1055 1.370 . S
C1054 C1058 1.524 . S
C1055 C1047 1.503 . S
C1055 C1054 1.370 . S
C1055 C1056 1.403 . S
C1056 C1055 1.403 . S
C1056 C1057 1.404 . S
C1056 C1059 1.539 . S
C1057 C1053 1.408 . S
C1057 C1056 1.404 . S
C1057 H1069 0.930 . S
C1058 C1054 1.524 . S
C1058 H1070 0.956 1_455 S
C1058 H1071 0.961 . S
C1058 H1072 0.961 1_455 S
C1059 C1056 1.539 . S
C1059 H1073 0.958 . S
C1059 H1074 0.961 . S
C1059 H1075 0.960 . S
H1060 C1044 0.931 . S
H1061 C1049 0.929 . S
H1062 C1050 0.960 . S
H1063 C1050 0.962 . S
H1064 C1050 0.960 . S
H1065 C1051 0.961 . S
H1066 C1051 0.961 . S
H1067 C1051 0.961 . S
H1068 C1052 0.931 . S
H1069 C1057 0.930 . S
H1070 C1058 0.956 1_655 S
H1071 C1058 0.961 . S
H1072 C1058 0.961 1_655 S
H1073 C1059 0.958 . S
H1074 C1059 0.961 . S
H1075 C1059 0.960 . S
C1076 C1077 1.391 1_554 S
C1076 C1078 1.394 . S
C1076 H1092 0.931 . S
C1077 C1076 1.391 1_556 S
C1077 C1081 1.376 . S
C1078 C1076 1.394 . S
C1078 C1079 1.369 . S
C1078 C1082 1.531 . S
C1079 C1078 1.369 . S
C1079 C1080 1.412 1_554 S
C1079 C1087 1.503 . S
C1080 C1079 1.412 1_556 S
C1080 C1081 1.394 . S
C1080 C1083 1.507 1_565 S
C1081 C1077 1.376 . S
C1081 C1080 1.394 . S
C1081 H1093 0.929 . S
C1082 C1078 1.531 . S
C1082 H1094 0.960 . S
C1082 H1095 0.962 . S
C1082 H1096 0.960 . S
C1083 C1080 1.507 1_545 S
C1083 H1097 0.970 . S
C1083 H1098 0.961 1_545 S
C1083 H1099 0.961 . S
C1084 C1085 1.370 . S
C1084 C1086 1.363 . S
C1084 H1100 0.931 . S
C1085 C1084 1.370 . S
C1085 C1089 1.408 1_565 S
C1086 C1084 1.363 . S
C1086 C1087 1.370 . S
C1086 C1090 1.524 1_554 S
C1087 C1079 1.503 . S
C1087 C1086 1.370 . S
C1087 C1088 1.403 1_565 S
C1088 C1087 1.403 1_545 S
C1088 C1089 1.404 . S
C1088 C1091 1.539 . S
C1089 C1085 1.408 1_545 S
C1089 C1088 1.404 . S
C1089 H1101 0.930 . S
C1090 C1086 1.524 1_556 S
C1090 H1102 0.956 1_556 S
C1090 H1103 0.961 . S
C1090 H1104 0.961 . S
C1091 C1088 1.539 . S
C1091 H1105 0.958 . S
C1091 H1106 0.961 . S
C1091 H1107 0.960 . S
H1092 C1076 0.931 . S
H1093 C1081 0.929 . S
H1094 C1082 0.960 . S
H1095 C1082 0.962 . S
H1096 C1082 0.960 . S
H1097 C1083 0.970 . S
H1098 C1083 0.961 1_565 S
H1099 C1083 0.961 . S
H1100 C1084 0.931 . S
H1101 C1089 0.930 . S
H1102 C1090 0.956 1_554 S
H1103 C1090 0.961 . S
H1104 C1090 0.961 . S
H1105 C1091 0.958 . S
H1106 C1091 0.961 . S
H1107 C1091 0.960 . S
C1108 C1109 1.391 . S
C1108 C1110 1.394 . S
C1108 H1124 0.931 . S
C1109 C1108 1.391 . S
C1109 C1113 1.376 . S
C1110 C1108 1.394 . S
C1110 C1111 1.369 . S
C1110 C1114 1.531 . S
C1111 C1110 1.369 . S
C1111 C1112 1.410 . S
C1111 C1119 1.503 . S
C1112 C1111 1.410 . S
C1112 C1113 1.392 . S
C1112 C1115 1.511 . S
C1113 C1109 1.376 . S
C1113 C1112 1.392 . S
C1113 H1125 0.929 . S
C1114 C1110 1.531 . S
C1114 H1126 0.960 . S
C1114 H1127 0.962 . S
C1114 H1128 0.960 . S
C1115 C1112 1.511 . S
C1115 H1129 0.961 1_545 S
C1115 H1130 0.961 . S
C1115 H1131 0.961 . S
C1116 C1117 1.370 . S
C1116 C1118 1.363 . S
C1116 H1132 0.931 . S
C1117 C1116 1.370 . S
C1117 C1121 1.408 . S
C1118 C1116 1.363 . S
C1118 C1119 1.370 . S
C1118 C1122 1.524 . S
C1119 C1111 1.503 . S
C1119 C1118 1.370 . S
C1119 C1120 1.403 . S
C1120 C1119 1.403 . S
C1120 C1121 1.404 . S
C1120 C1123 1.539 . S
C1121 C1117 1.408 . S
C1121 C1120 1.404 . S
C1121 H1133 0.930 . S
C1122 C1118 1.524 . S
C1122 H1134 0.956 . S
C1122 H1135 0.961 . S
C1122 H1136 0.939 1_545 S
C1123 C1120 1.539 . S
C1123 H1137 0.958 . S
C1123 H1138 0.961 . S
C1123 H1139 0.960 . S
H1124 C1108 0.931 . S
H1125 C1113 0.929 . S
H1126 C1114 0.960 . S
H1127 C1114 0.962 . S
H1128 C1114 0.960 . S
H1129 C1115 0.961 1_565 S
H1130 C1115 0.961 . S
H1131 C1115 0.961 . S
H1132 C1116 0.931 . S
H1133 C1121 0.930 . S
H1134 C1122 0.956 . S
H1135 C1122 0.961 . S
H1136 C1122 0.939 1_565 S
H1137 C1123 0.958 . S
H1138 C1123 0.961 . S
H1139 C1123 0.960 . S
C1140 C1141 1.391 . S
C1140 C1142 1.394 . S
C1140 H1156 0.931 1_554 S
C1141 C1140 1.391 . S
C1141 C1145 1.376 . S
C1142 C1140 1.394 . S
C1142 C1143 1.369 . S
C1142 C1146 1.531 1_554 S
C1143 C1142 1.369 . S
C1143 C1144 1.410 . S
C1143 C1151 1.503 . S
C1144 C1143 1.410 . S
C1144 C1145 1.392 . S
C1144 C1147 1.511 . S
C1145 C1141 1.376 . S
C1145 C1144 1.392 . S
C1145 H1157 0.929 . S
C1146 C1142 1.531 1_556 S
C1146 H1158 0.960 . S
C1146 H1159 0.962 . S
C1146 H1160 0.960 . S
C1147 C1144 1.511 . S
C1147 H1161 0.961 . S
C1147 H1162 0.961 . S
C1147 H1163 0.961 . S
C1148 C1149 1.370 . S
C1148 C1150 1.363 . S
C1148 H1164 0.931 . S
C1149 C1148 1.370 . S
C1149 C1153 1.408 . S
C1150 C1148 1.363 . S
C1150 C1151 1.370 . S
C1150 C1154 1.524 . S
C1151 C1143 1.503 . S
C1151 C1150 1.370 . S
C1151 C1152 1.403 . S
C1152 C1151 1.403 . S
C1152 C1153 1.404 . S
C1152 C1155 1.539 . S
C1153 C1149 1.408 . S
C1153 C1152 1.404 . S
C1153 H1165 0.930 . S
C1154 C1150 1.524 . S
C1154 H1166 0.956 . S
C1154 H1167 0.961 . S
C1154 H1168 0.961 . S
C1155 C1152 1.539 . S
C1155 H1169 0.958 1_554 S
C1155 H1170 0.961 . S
C1155 H1171 0.960 . S
H1156 C1140 0.931 1_556 S
H1157 C1145 0.929 . S
H1158 C1146 0.960 . S
H1159 C1146 0.962 . S
H1160 C1146 0.960 . S
H1161 C1147 0.961 . S
H1162 C1147 0.961 . S
H1163 C1147 0.961 . S
H1164 C1148 0.931 . S
H1165 C1153 0.930 . S
H1166 C1154 0.956 . S
H1167 C1154 0.961 . S
H1168 C1154 0.961 . S
H1169 C1155 0.958 1_556 S
H1170 C1155 0.961 . S
H1171 C1155 0.960 . S
C1172 C1173 1.391 . S
C1172 C1174 1.394 . S
C1172 H1188 0.931 . S
C1173 C1172 1.391 . S
C1173 C1177 1.376 . S
C1174 C1172 1.394 . S
C1174 C1175 1.369 . S
C1174 C1178 1.531 . S
C1175 C1174 1.369 . S
C1175 C1176 1.410 . S
C1175 C1183 1.503 . S
C1176 C1175 1.410 . S
C1176 C1177 1.392 . S
C1176 C1179 1.511 . S
C1177 C1173 1.376 . S
C1177 C1176 1.392 . S
C1177 H1189 0.929 . S
C1178 C1174 1.531 . S
C1178 H1190 0.960 . S
C1178 H1191 0.962 . S
C1178 H1192 0.960 . S
C1179 C1176 1.511 . S
C1179 H1193 0.961 . S
C1179 H1194 0.961 . S
C1179 H1195 0.961 . S
C1180 C1181 1.370 . S
C1180 C1182 1.363 . S
C1180 H1196 0.931 . S
C1181 C1180 1.370 . S
C1181 C1185 1.408 . S
C1182 C1180 1.363 . S
C1182 C1183 1.370 . S
C1182 C1186 1.524 . S
C1183 C1175 1.503 . S
C1183 C1182 1.370 . S
C1183 C1184 1.403 . S
C1184 C1183 1.403 . S
C1184 C1185 1.404 . S
C1184 C1187 1.539 . S
C1185 C1181 1.408 . S
C1185 C1184 1.404 . S
C1185 H1197 0.930 . S
C1186 C1182 1.524 . S
C1186 H1198 0.956 . S
C1186 H1199 0.961 . S
C1186 H1200 0.961 . S
C1187 C1184 1.539 . S
C1187 H1201 0.958 . S
C1187 H1202 0.961 . S
C1187 H1203 0.960 . S
H1188 C1172 0.931 . S
H1189 C1177 0.929 . S
H1190 C1178 0.960 . S
H1191 C1178 0.962 . S
H1192 C1178 0.960 . S
H1193 C1179 0.961 . S
H1194 C1179 0.961 . S
H1195 C1179 0.961 . S
H1196 C1180 0.931 . S
H1197 C1185 0.930 . S
H1198 C1186 0.956 . S
H1199 C1186 0.961 . S
H1200 C1186 0.961 . S
H1201 C1187 0.958 . S
H1202 C1187 0.961 . S
H1203 C1187 0.960 . S
C1204 C1205 1.391 1_455 S
C1204 C1206 1.394 . S
C1204 H1220 0.931 . S
C1205 C1204 1.391 1_655 S
C1205 C1209 1.376 1_556 S
C1206 C1204 1.394 . S
C1206 C1207 1.369 . S
C1206 C1210 1.531 . S
C1207 C1206 1.369 . S
C1207 C1208 1.410 1_456 S
C1207 C1215 1.503 . S
C1208 C1207 1.410 1_654 S
C1208 C1209 1.392 . S
C1208 C1211 1.511 . S
C1209 C1205 1.376 1_554 S
C1209 C1208 1.392 . S
C1209 H1221 0.929 . S
C1210 C1206 1.531 . S
C1210 H1222 0.960 . S
C1210 H1223 0.962 . S
C1210 H1224 0.960 . S
C1211 C1208 1.511 . S
C1211 H1225 0.961 . S
C1211 H1226 0.961 . S
C1211 H1227 0.961 . S
C1212 C1213 1.370 1_655 S
C1212 C1214 1.363 . S
C1212 H1228 0.931 . S
C1213 C1212 1.370 1_455 S
C1213 C1217 1.408 1_556 S
C1214 C1212 1.363 . S
C1214 C1215 1.370 1_655 S
C1214 C1218 1.524 . S
C1215 C1207 1.503 . S
C1215 C1214 1.370 1_455 S
C1215 C1216 1.403 1_556 S
C1216 C1215 1.403 1_554 S
C1216 C1217 1.404 . S
C1216 C1219 1.539 . S
C1217 C1213 1.408 1_554 S
C1217 C1216 1.404 . S
C1217 H1229 0.930 . S
C1218 C1214 1.524 . S
C1218 H1230 0.956 . S
C1218 H1231 0.961 . S
C1218 H1232 0.961 . S
C1219 C1216 1.539 . S
C1219 H1233 0.958 . S
C1219 H1234 0.961 . S
C1219 H1235 0.960 . S
H1220 C1204 0.931 . S
H1221 C1209 0.929 . S
H1222 C1210 0.960 . S
H1223 C1210 0.962 . S
H1224 C1210 0.960 . S
H1225 C1211 0.961 . S
H1226 C1211 0.961 . S
H1227 C1211 0.961 . S
H1228 C1212 0.931 . S
H1229 C1217 0.930 . S
H1230 C1218 0.956 . S
H1231 C1218 0.961 . S
H1232 C1218 0.961 . S
H1233 C1219 0.958 . S
H1234 C1219 0.961 . S
H1235 C1219 0.960 . S
C1236 C1237 1.391 . S
C1236 C1238 1.394 . S
C1236 H1252 0.931 . S
C1237 C1236 1.391 . S
C1237 C1241 1.376 . S
C1238 C1236 1.394 . S
C1238 C1239 1.369 . S
C1238 C1242 1.531 . S
C1239 C1238 1.369 . S
C1239 C1240 1.410 . S
C1239 C1247 1.503 . S
C1240 C1239 1.410 . S
C1240 C1241 1.392 . S
C1240 C1243 1.511 . S
C1241 C1237 1.376 . S
C1241 C1240 1.392 . S
C1241 H1253 0.929 . S
C1242 C1238 1.531 . S
C1242 H1254 0.960 . S
C1242 H1255 0.962 . S
C1242 H1256 0.960 . S
C1243 C1240 1.511 . S
C1243 H1257 0.961 . S
C1243 H1258 0.961 . S
C1243 H1259 0.961 . S
C1244 C1245 1.370 . S
C1244 C1246 1.363 . S
C1244 H1260 0.931 . S
C1245 C1244 1.370 . S
C1245 C1249 1.408 . S
C1246 C1244 1.363 . S
C1246 C1247 1.370 . S
C1246 C1250 1.524 1_554 S
C1247 C1239 1.503 . S
C1247 C1246 1.370 . S
C1247 C1248 1.403 . S
C1248 C1247 1.403 . S
C1248 C1249 1.404 . S
C1248 C1251 1.539 . S
C1249 C1245 1.408 . S
C1249 C1248 1.404 . S
C1249 H1261 0.930 . S
C1250 C1246 1.524 1_556 S
C1250 H1262 0.956 1_556 S
C1250 H1263 0.961 . S
C1250 H1264 0.961 . S
C1251 C1248 1.539 . S
C1251 H1265 0.958 . S
C1251 H1266 0.961 . S
C1251 H1267 0.960 . S
H1252 C1236 0.931 . S
H1253 C1241 0.929 . S
H1254 C1242 0.960 . S
H1255 C1242 0.962 . S
H1256 C1242 0.960 . S
H1257 C1243 0.961 . S
H1258 C1243 0.961 . S
H1259 C1243 0.961 . S
H1260 C1244 0.931 . S
H1261 C1249 0.930 . S
H1262 C1250 0.956 1_554 S
H1263 C1250 0.961 . S
H1264 C1250 0.961 . S
H1265 C1251 0.958 . S
H1266 C1251 0.961 . S
H1267 C1251 0.960 . S
C1268 C1269 1.391 . S
C1268 C1270 1.394 . S
C1268 H1284 0.931 . S
C1269 C1268 1.391 . S
C1269 C1273 1.376 . S
C1270 C1268 1.394 . S
C1270 C1271 1.369 . S
C1270 C1274 1.531 . S
C1271 C1270 1.369 . S
C1271 C1272 1.410 . S
C1271 C1279 1.503 . S
C1272 C1271 1.410 . S
C1272 C1273 1.392 . S
C1272 C1275 1.511 1_455 S
C1273 C1269 1.376 . S
C1273 C1272 1.392 . S
C1273 H1285 0.929 1_455 S
C1274 C1270 1.531 . S
C1274 H1286 0.960 . S
C1274 H1287 0.962 . S
C1274 H1288 0.960 . S
C1275 C1272 1.511 1_655 S
C1275 H1289 0.961 . S
C1275 H1290 0.961 . S
C1275 H1291 0.961 . S
C1276 C1277 1.370 . S
C1276 C1278 1.363 . S
C1276 H1292 0.931 . S
C1277 C1276 1.370 . S
C1277 C1281 1.408 . S
C1278 C1276 1.363 . S
C1278 C1279 1.370 . S
C1278 C1282 1.524 . S
C1279 C1271 1.503 . S
C1279 C1278 1.370 . S
C1279 C1280 1.403 . S
C1280 C1279 1.403 . S
C1280 C1281 1.404 . S
C1280 C1283 1.539 1_455 S
C1281 C1277 1.408 . S
C1281 C1280 1.404 . S
C1281 H1293 0.920 1_455 S
C1282 C1278 1.524 . S
C1282 H1294 0.956 . S
C1282 H1295 0.961 . S
C1282 H1296 0.961 . S
C1283 C1280 1.539 1_655 S
C1283 H1297 0.958 1_655 S
C1283 H1298 0.961 . S
C1283 H1299 0.960 . S
H1284 C1268 0.931 . S
H1285 C1273 0.929 1_655 S
H1286 C1274 0.960 . S
H1287 C1274 0.962 . S
H1288 C1274 0.960 . S
H1289 C1275 0.961 . S
H1290 C1275 0.961 . S
H1291 C1275 0.961 . S
H1292 C1276 0.931 . S
H1293 C1281 0.920 1_655 S
H1294 C1282 0.956 . S
H1295 C1282 0.961 . S
H1296 C1282 0.961 . S
H1297 C1283 0.958 1_455 S
H1298 C1283 0.961 . S
H1299 C1283 0.960 . S
C1300 C1301 1.391 . S
C1300 C1302 1.394 . S
C1300 H1316 0.931 . S
C1301 C1300 1.391 . S
C1301 C1305 1.376 . S
C1302 C1300 1.394 . S
C1302 C1303 1.369 . S
C1302 C1306 1.531 . S
C1303 C1302 1.369 . S
C1303 C1304 1.410 . S
C1303 C1311 1.503 . S
C1304 C1303 1.410 . S
C1304 C1305 1.392 . S
C1304 C1307 1.511 . S
C1305 C1301 1.376 . S
C1305 C1304 1.392 . S
C1305 H1317 0.929 . S
C1306 C1302 1.531 . S
C1306 H1318 0.960 . S
C1306 H1319 0.962 . S
C1306 H1320 0.960 . S
C1307 C1304 1.511 . S
C1307 H1321 0.961 . S
C1307 H1322 0.961 . S
C1307 H1323 0.961 . S
C1308 C1309 1.370 . S
C1308 C1310 1.363 . S
C1308 H1324 0.931 . S
C1309 C1308 1.370 . S
C1309 C1313 1.408 . S
C1310 C1308 1.363 . S
C1310 C1311 1.370 . S
C1310 C1314 1.524 . S
C1311 C1303 1.503 . S
C1311 C1310 1.370 . S
C1311 C1312 1.403 . S
C1312 C1311 1.403 . S
C1312 C1313 1.404 . S
C1312 C1315 1.539 . S
C1313 C1309 1.408 . S
C1313 C1312 1.404 . S
C1313 H1325 0.930 . S
C1314 C1310 1.524 . S
C1314 H1326 0.956 . S
C1314 H1327 0.961 . S
C1314 H1328 0.961 . S
C1315 C1312 1.539 . S
C1315 H1329 0.958 . S
C1315 H1330 0.961 . S
C1315 H1331 0.960 . S
H1316 C1300 0.931 . S
H1317 C1305 0.929 . S
H1318 C1306 0.960 . S
H1319 C1306 0.962 . S
H1320 C1306 0.960 . S
H1321 C1307 0.961 . S
H1322 C1307 0.961 . S
H1323 C1307 0.961 . S
H1324 C1308 0.931 . S
H1325 C1313 0.930 . S
H1326 C1314 0.956 . S
H1327 C1314 0.961 . S
H1328 C1314 0.961 . S
H1329 C1315 0.958 . S
H1330 C1315 0.961 . S
H1331 C1315 0.960 . S
C565 C1 1.528 . S
C573 C483 1.421 . S
C597 C80 1.507 . S
C605 C517 1.391 . S
C637 C529 1.380 . S
C629 C140 1.468 . S
C661 C211 1.472 . S
C669 C563 1.427 . S
C701 C520 1.429 . S
C693 C31 1.484 . S
C733 C500 1.394 . S
C725 C61 1.499 . S
C765 C547 1.373 . S
C757 C151 1.467 . S
C797 C538 1.401 . S
C789 C200 1.511 . S
C821 C20 1.517 . S
C829 C546 1.435 . S
C861 C508 1.414 . S
C853 C121 1.475 . S
C885 C181 1.479 . S
C893 C484 1.410 . S
C917 C91 1.472 . S
C925 C541 1.426 . S
C957 C499 1.627 . S
C949 C260 1.708 . S
C981 C320 1.670 . S
C989 C521 1.613 . S
C1013 C361 1.721 . S
C1021 C526 1.637 . S
C1045 C451 1.637 . S
C1053 C559 1.650 . S
C1077 C271 1.751 . S
C1085 C504 1.645 . S
C1117 C496 1.628 . S
C1109 C301 1.677 . S
C1149 C550 1.651 . S
C1141 C380 1.766 . S
C1181 C542 1.622 . S
C1173 C440 1.614 . S
C1205 C241 1.720 . S
C1213 C562 1.608 . S
C1245 C505 1.626 . S
C1237 C391 1.721 . S
C1277 C487 1.599 . S
C1269 C421 1.648 . S
C1301 C331 1.609 . S
C1309 C525 1.640 . S
