# Generated by pormake.
# Topology nom, (4,4)-cn, num edge types: 1
# Building blocks:
#     Node 0, Type 0, BuildingBlock: MIFKUJ_clean_linker_1, # of connection points: 4
#     Node 1, Type 0, BuildingBlock: MIFKUJ_clean_linker_1, # of connection points: 4
#     Node 2, Type 0, BuildingBlock: MIFKUJ_clean_linker_1, # of connection points: 4
#     Node 3, Type 0, BuildingBlock: MIFKUJ_clean_linker_1, # of connection points: 4
#     Node 4, Type 0, BuildingBlock: MIFKUJ_clean_linker_1, # of connection points: 4
#     Node 5, Type 0, BuildingBlock: MIFKUJ_clean_linker_1, # of connection points: 4
#     Node 6, Type 1, BuildingBlock: CEKHIL_clean_sbu_0, # of connection points: 4
#     Node 7, Type 1, BuildingBlock: CEKHIL_clean_sbu_0, # of connection points: 4
#     Node 8, Type 1, BuildingBlock: CEKHIL_clean_sbu_0, # of connection points: 4
#     Node 9, Type 1, BuildingBlock: CEKHIL_clean_sbu_0, # of connection points: 4
#     Node 10, Type 1, BuildingBlock: CEKHIL_clean_sbu_0, # of connection points: 4
#     Node 11, Type 1, BuildingBlock: CEKHIL_clean_sbu_0, # of connection points: 4
#     Edge 12, Type (0, 1), BuildingBlock: AJUNOK_clean_linker_0, # of connection points: 2
#     Edge 13, Type (0, 1), BuildingBlock: AJUNOK_clean_linker_0, # of connection points: 2
#     Edge 14, Type (0, 1), BuildingBlock: AJUNOK_clean_linker_0, # of connection points: 2
#     Edge 15, Type (0, 1), BuildingBlock: AJUNOK_clean_linker_0, # of connection points: 2
#     Edge 16, Type (0, 1), BuildingBlock: AJUNOK_clean_linker_0, # of connection points: 2
#     Edge 17, Type (0, 1), BuildingBlock: AJUNOK_clean_linker_0, # of connection points: 2
#     Edge 18, Type (0, 1), BuildingBlock: AJUNOK_clean_linker_0, # of connection points: 2
#     Edge 19, Type (0, 1), BuildingBlock: AJUNOK_clean_linker_0, # of connection points: 2
#     Edge 20, Type (0, 1), BuildingBlock: AJUNOK_clean_linker_0, # of connection points: 2
#     Edge 21, Type (0, 1), BuildingBlock: AJUNOK_clean_linker_0, # of connection points: 2
#     Edge 22, Type (0, 1), BuildingBlock: AJUNOK_clean_linker_0, # of connection points: 2
#     Edge 23, Type (0, 1), BuildingBlock: AJUNOK_clean_linker_0, # of connection points: 2
#     Edge 24, Type (0, 1), BuildingBlock: AJUNOK_clean_linker_0, # of connection points: 2
#     Edge 25, Type (0, 1), BuildingBlock: AJUNOK_clean_linker_0, # of connection points: 2
#     Edge 26, Type (0, 1), BuildingBlock: AJUNOK_clean_linker_0, # of connection points: 2
#     Edge 27, Type (0, 1), BuildingBlock: AJUNOK_clean_linker_0, # of connection points: 2
#     Edge 28, Type (0, 1), BuildingBlock: AJUNOK_clean_linker_0, # of connection points: 2
#     Edge 29, Type (0, 1), BuildingBlock: AJUNOK_clean_linker_0, # of connection points: 2
#     Edge 30, Type (0, 1), BuildingBlock: AJUNOK_clean_linker_0, # of connection points: 2
#     Edge 31, Type (0, 1), BuildingBlock: AJUNOK_clean_linker_0, # of connection points: 2
#     Edge 32, Type (0, 1), BuildingBlock: AJUNOK_clean_linker_0, # of connection points: 2
#     Edge 33, Type (0, 1), BuildingBlock: AJUNOK_clean_linker_0, # of connection points: 2
#     Edge 34, Type (0, 1), BuildingBlock: AJUNOK_clean_linker_0, # of connection points: 2
#     Edge 35, Type (0, 1), BuildingBlock: AJUNOK_clean_linker_0, # of connection points: 2
# Relax obj value: 0.002
# Max RMSD: 0.101
# Mean RMSD: 0.066
data_MOF--net-nom--node1-CEKHIL_clean_sbu_0--node2-MIFKUJ_clean_linker_1--edge1-AJUNOK_clean_linker_0
_symmetry_space_group_name_H-M    P1
_symmetry_Int_Tables_number       1
_symmetry_cell_setting            triclinic
loop_
_symmetry_equiv_pos_as_xyz
'x, y, z'
_cell_length_a     41.698396
_cell_length_b     41.238534
_cell_length_c     43.740883
_cell_angle_alpha  90.107505
_cell_angle_beta   89.953952
_cell_angle_gamma 121.2053
loop_
_atom_site_label
_atom_site_type_symbol
_atom_site_fract_x
_atom_site_fract_y
_atom_site_fract_z
_atom_type_partial_charge
H0 H 0.99186 0.47931 0.27919 0.0
H1 H 0.94875 0.44961 0.23644 0.0
H2 H 0.89752 0.51514 0.25707 0.0
H3 H 0.94203 0.54616 0.29935 0.0
H4 H 0.04442 0.5508 0.29116 0.0
H5 H 0.92292 0.45889 0.33244 0.0
H6 H 0.85644 0.43322 0.34153 0.0
H7 H 0.88353 0.53072 0.39747 0.0
H8 H 0.9497 0.55829 0.38527 0.0
H9 H 0.05448 0.60676 0.41551 0.0
H10 H 0.09829 0.62776 0.45859 0.0
H11 H 0.14255 0.56022 0.42496 0.0
H12 H 0.09794 0.53838 0.38238 0.0
H13 H 0.99842 0.54006 0.39741 0.0
H14 H 0.11185 0.63653 0.3517 0.0
H15 H 0.17776 0.67301 0.33579 0.0
H16 H 0.16568 0.57344 0.292 0.0
H17 H 0.09959 0.53694 0.30779 0.0
C18 C 0.96999 0.51469 0.29275 0.0
C19 C 0.97174 0.48776 0.27432 0.0
C20 C 0.94688 0.47058 0.25 0.0
C21 C 0.91961 0.47989 0.24345 0.0
C22 C 0.91847 0.50767 0.26134 0.0
C23 C 0.94363 0.52512 0.28568 0.0
C24 C 0.99549 0.53084 0.31957 0.0
C25 C 0.03423 0.54807 0.31441 0.0
C26 C 0.98225 0.52861 0.34991 0.0
C27 C 0.94157 0.51127 0.35722 0.0
C28 C 0.91459 0.47534 0.34593 0.0
C29 C 0.87641 0.46035 0.3516 0.0
C30 C 0.86419 0.48017 0.36974 0.0
C31 C 0.89145 0.51527 0.38231 0.0
C32 C 0.92956 0.5308 0.37583 0.0
C33 C 0.07321 0.57141 0.3954 0.0
C34 C 0.07348 0.59633 0.41745 0.0
C35 C 0.09877 0.60858 0.4419 0.0
C36 C 0.12431 0.59613 0.44484 0.0
C37 C 0.12333 0.5704 0.42322 0.0
C38 C 0.09805 0.55817 0.39876 0.0
C39 C 0.0471 0.55927 0.36886 0.0
C40 C 1.0084 0.54284 0.3741 0.0
C41 C 0.06018 0.56284 0.33849 0.0
C42 C 0.10081 0.58399 0.33096 0.0
C43 C 0.12348 0.62239 0.33903 0.0
C44 C 0.16101 0.64322 0.32987 0.0
C45 C 0.17659 0.62596 0.31262 0.0
C46 C 0.15428 0.58727 0.3054 0.0
C47 C 0.11658 0.56652 0.31426 0.0
H48 H 0.40346 0.93191 0.53191 0.0
H49 H 0.36543 0.86526 0.5468 0.0
H50 H 0.4487 0.84458 0.5083 0.0
H51 H 0.48605 0.91116 0.49262 0.0
H52 H 0.48 0.98465 0.54978 0.0
H53 H 0.40638 0.93174 0.45226 0.0
H54 H 0.38561 0.88816 0.40864 0.0
H55 H 0.50036 0.9196 0.39174 0.0
H56 H 0.52094 0.96462 0.43431 0.0
H57 H 0.56392 0.08618 0.44592 0.0
H58 H 0.58856 0.15209 0.43042 0.0
H59 H 0.51817 0.16212 0.49727 0.0
H60 H 0.49198 0.0957 0.51184 0.0
H61 H 0.50141 0.02682 0.4417 0.0
H62 H 0.57759 0.09275 0.52465 0.0
H63 H 0.60681 0.13661 0.5676 0.0
H64 H 0.50289 0.07763 0.61766 0.0
H65 H 0.47277 0.0348 0.57406 0.0
C66 C 0.44742 0.92637 0.51103 0.0
C67 C 0.41336 0.91292 0.52651 0.0
C68 C 0.39172 0.87487 0.53504 0.0
C69 C 0.40387 0.84952 0.52852 0.0
C70 C 0.43808 0.86311 0.513 0.0
C71 C 0.45959 0.90119 0.50421 0.0
C72 C 0.47035 0.96701 0.50273 0.0
C73 C 0.48444 0.9942 0.52623 0.0
C74 C 0.47802 0.979 0.472 0.0
C75 C 0.46519 0.95156 0.44631 0.0
C76 C 0.427 0.9293 0.43901 0.0
C77 C 0.4152 0.90424 0.41417 0.0
C78 C 0.44134 0.90068 0.39629 0.0
C79 C 0.47954 0.92241 0.40429 0.0
C80 C 0.49136 0.94792 0.4288 0.0
C81 C 0.52629 0.08585 0.48032 0.0
C82 C 0.55357 0.10238 0.45721 0.0
C83 C 0.56776 0.14 0.44843 0.0
C84 C 0.55526 0.16188 0.46284 0.0
C85 C 0.52837 0.14572 0.48611 0.0
C86 C 0.51362 0.10788 0.4945 0.0
C87 C 0.51006 0.0453 0.48886 0.0
C88 C 0.49739 0.01791 0.46541 0.0
C89 C 0.50509 0.03328 0.51982 0.0
C90 C 0.52267 0.06059 0.54574 0.0
C91 C 0.56066 0.08968 0.54447 0.0
C92 C 0.57745 0.11466 0.56903 0.0
C93 C 0.55692 0.11045 0.59567 0.0
C94 C 0.51912 0.08139 0.5972 0.0
C95 C 0.50206 0.05684 0.57238 0.0
H96 H 0.52057 0.54084 0.71222 0.0
H97 H 0.51173 0.57377 0.75477 0.0
H98 H 0.39278 0.49161 0.75394 0.0
H99 H 0.40174 0.45968 0.71013 0.0
H100 H 0.49961 0.46164 0.71046 0.0
H101 H 0.47388 0.55075 0.65817 0.0
H102 H 0.4356 0.57862 0.64786 0.0
H103 H 0.34305 0.46851 0.62166 0.0
H104 H 0.38189 0.44085 0.63148 0.0
H105 H 0.44444 0.38979 0.59169 0.0
H106 H 0.46714 0.3721 0.54681 0.0
H107 H 0.58097 0.45822 0.56977 0.0
H108 H 0.55813 0.47433 0.61546 0.0
H109 H 0.4532 0.46041 0.60578 0.0
H110 H 0.47494 0.37042 0.65164 0.0
H111 H 0.50612 0.33583 0.66533 0.0
H112 H 0.59638 0.43718 0.7069 0.0
H113 H 0.56528 0.47184 0.693 0.0
C114 C 0.46189 0.49769 0.70819 0.0
C115 C 0.49259 0.52985 0.72125 0.0
C116 C 0.4875 0.54844 0.74578 0.0
C117 C 0.45165 0.53472 0.75838 0.0
C118 C 0.42075 0.50279 0.74489 0.0
C119 C 0.42583 0.48446 0.71996 0.0
C120 C 0.46813 0.47821 0.68234 0.0
C121 C 0.48976 0.4616 0.6875 0.0
C122 C 0.45365 0.4766 0.65275 0.0
C123 C 0.43056 0.49362 0.64604 0.0
C124 C 0.44527 0.53255 0.65042 0.0
C125 C 0.42326 0.5484 0.64467 0.0
C126 C 0.38598 0.52562 0.63455 0.0
C127 C 0.3716 0.48676 0.62952 0.0
C128 C 0.39372 0.47094 0.63515 0.0
C129 C 0.49955 0.43335 0.6069 0.0
C130 C 0.47427 0.40474 0.58707 0.0
C131 C 0.48733 0.39497 0.56124 0.0
C132 C 0.5259 0.41437 0.55421 0.0
C133 C 0.55115 0.44266 0.57445 0.0
C134 C 0.53812 0.45196 0.60055 0.0
C135 C 0.48587 0.44498 0.63369 0.0
C136 C 0.46277 0.46003 0.62876 0.0
C137 C 0.49814 0.44427 0.66369 0.0
C138 C 0.51797 0.42388 0.67098 0.0
C139 C 0.50167 0.38536 0.66337 0.0
C140 C 0.51931 0.36553 0.6714 0.0
C141 C 0.55374 0.38391 0.68697 0.0
C142 C 0.57009 0.42247 0.69453 0.0
C143 C 0.55227 0.44222 0.68674 0.0
H144 H 0.0523 0.54078 0.78095 0.0
H145 H 0.09607 0.57212 0.73884 0.0
H146 H 0.14813 0.50712 0.75813 0.0
H147 H 0.10293 0.47437 0.7995 0.0
H148 H 0.99981 0.46839 0.78997 0.0
H149 H 0.11592 0.56116 0.8437 0.0
H150 H 0.1828 0.58838 0.85386 0.0
H151 H 0.16071 0.47861 0.88295 0.0
H152 H 0.09362 0.45176 0.87348 0.0
H153 H 0.98687 0.41016 0.91556 0.0
H154 H 0.94376 0.39168 0.95891 0.0
H155 H 0.89744 0.45536 0.921 0.0
H156 H 0.94194 0.4755 0.8787 0.0
H157 H 0.04227 0.47342 0.89671 0.0
H158 H 0.93012 0.37946 0.84792 0.0
H159 H 0.86427 0.34407 0.83157 0.0
H160 H 0.87836 0.44529 0.78964 0.0
H161 H 0.94423 0.48058 0.80582 0.0
C162 C 0.07445 0.50543 0.79365 0.0
C163 C 0.07287 0.53294 0.77598 0.0
C164 C 0.09809 0.55105 0.75203 0.0
C165 C 0.12557 0.54211 0.74512 0.0
C166 C 0.12697 0.51426 0.7626 0.0
C167 C 0.10146 0.49589 0.78651 0.0
C168 C 0.04763 0.48712 0.81943 0.0
C169 C 1.00911 0.46984 0.81337 0.0
C170 C 0.0596 0.48727 0.84977 0.0
C171 C 0.09987 0.50436 0.85753 0.0
C172 C 0.1255 0.54299 0.85232 0.0
C173 C 0.16374 0.55841 0.85788 0.0
C174 C 0.1772 0.53545 0.86857 0.0
C175 C 0.15127 0.497 0.87465 0.0
C176 C 0.11296 0.48164 0.86926 0.0
C177 C 0.96752 0.44391 0.89354 0.0
C178 C 0.96766 0.42042 0.91668 0.0
C179 C 0.9428 0.40966 0.94136 0.0
C180 C 0.91727 0.42222 0.94355 0.0
C181 C 0.91716 0.44573 0.92038 0.0
C182 C 0.94223 0.45674 0.89585 0.0
C183 C 0.99432 0.45587 0.86741 0.0
C184 C 0.03282 0.47177 0.87335 0.0
C185 C 0.98232 0.45358 0.83677 0.0
C186 C 0.94201 0.43271 0.82825 0.0
C187 C 0.91893 0.39412 0.83547 0.0
C188 C 0.88146 0.37391 0.82604 0.0
C189 C 0.86632 0.39208 0.80956 0.0
C190 C 0.8893 0.43079 0.80264 0.0
C191 C 0.9269 0.45087 0.81172 0.0
H192 H 0.64335 0.10025 0.99039 0.0
H193 H 0.68136 0.16654 0.00706 0.0
H194 H 0.58387 0.1584 0.04918 0.0
H195 H 0.54587 0.0918 0.03283 0.0
H196 H 0.55586 0.032 0.04821 0.0
H197 H 0.61113 0.04536 0.92328 0.0
H198 H 0.63235 0.08988 0.88054 0.0
H199 H 0.57208 0.14027 0.91754 0.0
H200 H 0.54962 0.09464 0.95966 0.0
H201 H 0.48138 0.93216 0.9425 0.0
H202 H 0.45606 0.8659 0.92764 0.0
H203 H 0.52312 0.85507 0.99725 0.0
H204 H 0.54959 0.92166 0.01137 0.0
H205 H 0.54585 0.99124 0.94009 0.0
H206 H 0.46106 0.92994 0.02237 0.0
H207 H 0.42946 0.88516 0.06433 0.0
H208 H 0.53502 0.93128 0.11176 0.0
H209 H 0.56668 0.97618 0.06965 0.0
C210 C 0.59179 0.09115 0.01036 0.0
C211 C 0.63008 0.11279 1.00302 0.0
C212 C 0.65176 0.15052 0.01258 0.0
C213 C 0.63542 0.16734 0.02939 0.0
C214 C 0.59696 0.14598 0.03614 0.0
C215 C 0.57537 0.10802 0.02696 0.0
C216 C 0.5694 0.05058 1.00145 0.0
C217 C 0.55359 0.02304 0.02457 0.0
C218 C 0.5655 0.03898 0.97052 0.0
C219 C 0.57899 0.06673 0.9449 0.0
C220 C 0.60225 0.06581 0.92214 0.0
C221 C 0.61455 0.09143 0.89781 0.0
C222 C 0.60376 0.1185 0.89558 0.0
C223 C 0.58042 0.11941 0.91834 0.0
C224 C 0.56801 0.09366 0.94267 0.0
C225 C 0.51704 0.93194 0.9784 0.0
C226 C 0.49081 0.91566 0.95453 0.0
C227 C 0.47631 0.87784 0.94607 0.0
C228 C 0.48745 0.85547 0.96152 0.0
C229 C 0.51369 0.87164 0.98533 0.0
C230 C 0.52864 0.90962 0.99348 0.0
C231 C 0.53315 0.9725 0.9869 0.0
C232 C 0.54792 1.0001 0.96373 0.0
C233 C 0.53501 0.98414 0.01768 0.0
C234 C 0.51625 0.95634 0.04282 0.0
C235 C 0.47749 0.9302 0.04165 0.0
C236 C 0.45947 0.90471 0.06561 0.0
C237 C 0.47987 0.90463 0.09114 0.0
C238 C 0.51875 0.93043 0.09215 0.0
C239 C 0.53675 0.95626 0.06828 0.0
H240 H 0.52088 0.47307 0.21083 0.0
H241 H 0.53141 0.43979 0.25201 0.0
H242 H 0.64838 0.52851 0.25499 0.0
H243 H 0.63783 0.56044 0.21232 0.0
H244 H 0.54062 0.55522 0.2115 0.0
H245 H 0.56472 0.46499 0.15813 0.0
H246 H 0.60279 0.43675 0.14817 0.0
H247 H 0.6961 0.54669 0.12286 0.0
H248 H 0.6575 0.57473 0.1324 0.0
H249 H 0.59419 0.62761 0.09348 0.0
H250 H 0.57071 0.64616 0.04967 0.0
H251 H 0.45768 0.55695 0.07141 0.0
H252 H 0.48123 0.54014 0.11603 0.0
H253 H 0.58541 0.55515 0.10631 0.0
H254 H 0.56574 0.64634 0.15334 0.0
H255 H 0.5346 0.68126 0.16616 0.0
H256 H 0.44267 0.58001 0.20616 0.0
H257 H 0.47387 0.54504 0.19323 0.0
C258 C 0.57854 0.51917 0.20861 0.0
C259 C 0.54879 0.48525 0.22033 0.0
C260 C 0.55491 0.46634 0.24395 0.0
C261 C 0.59082 0.48131 0.25686 0.0
C262 C 0.62058 0.51561 0.24518 0.0
C263 C 0.61454 0.53417 0.22105 0.0
C264 C 0.57163 0.53826 0.18299 0.0
C265 C 0.55016 0.55502 0.18846 0.0
C266 C 0.58554 0.53937 0.15326 0.0
C267 C 0.60842 0.52207 0.14643 0.0
C268 C 0.59345 0.48308 0.15064 0.0
C269 C 0.61534 0.46701 0.14511 0.0
C270 C 0.65277 0.48962 0.13532 0.0
C271 C 0.66743 0.52854 0.13045 0.0
C272 C 0.64543 0.54459 0.13591 0.0
C273 C 0.53945 0.58274 0.10812 0.0
C274 C 0.56435 0.61234 0.0889 0.0
C275 C 0.55083 0.62278 0.06381 0.0
C276 C 0.51217 0.60335 0.0571 0.0
C277 C 0.48741 0.57337 0.07631 0.0
C278 C 0.50089 0.56345 0.10169 0.0
C279 C 0.55341 0.57115 0.13463 0.0
C280 C 0.57621 0.5558 0.12938 0.0
C281 C 0.54157 0.57223 0.16473 0.0
C282 C 0.522 0.59293 0.17206 0.0
C283 C 0.53871 0.63152 0.16461 0.0
C284 C 0.52104 0.65152 0.17209 0.0
C285 C 0.48612 0.63327 0.18693 0.0
C286 C 0.46935 0.59464 0.19435 0.0
C287 C 0.48724 0.57471 0.18714 0.0
Co288 Co 0.64227 0.37798 0.40661 0.0
O289 O 0.68077 0.37817 0.38204 0.0
O290 O 0.69016 0.42416 0.41379 0.0
C291 C 0.61715 0.3175 0.42293 0.0
O292 O 0.61028 0.38671 0.43737 0.0
Co293 Co 0.55797 0.32326 0.39266 0.0
O294 O 0.54954 0.341 0.43219 0.0
C295 C 0.60112 0.39263 0.35566 0.0
C296 C 0.70405 0.41059 0.39452 0.0
C297 C 0.57569 0.36984 0.44595 0.0
O298 O 0.6303 0.40342 0.37253 0.0
O299 O 0.57039 0.36095 0.3591 0.0
O300 O 0.64644 0.34506 0.43636 0.0
O301 O 0.60572 0.32694 0.39902 0.0
Co302 Co 0.27801 0.63526 0.59192 0.0
O303 O 0.31409 0.6333 0.61807 0.0
O304 O 0.27622 0.58763 0.58627 0.0
C305 C 0.31702 0.69456 0.57421 0.0
O306 O 0.23845 0.62803 0.56041 0.0
Co307 Co 0.25405 0.69385 0.60385 0.0
O308 O 0.23259 0.67921 0.56212 0.0
C309 C 0.22589 0.62718 0.64418 0.0
C310 C 0.30287 0.6001 0.60656 0.0
C311 C 0.22621 0.64862 0.54935 0.0
O312 O 0.2393 0.6127 0.62577 0.0
O313 O 0.2315 0.66056 0.64066 0.0
O314 O 0.31712 0.66584 0.56207 0.0
O315 O 0.29611 0.68694 0.59811 0.0
Co316 Co 0.65552 0.27179 0.74252 0.0
O317 O 0.6582 0.30893 0.71427 0.0
O318 O 0.6106 0.2746 0.7453 0.0
C319 C 0.71421 0.30851 0.76133 0.0
O320 O 0.64356 0.23235 0.77603 0.0
Co321 Co 0.70771 0.23948 0.73637 0.0
O322 O 0.69142 0.22215 0.77879 0.0
C323 C 0.64161 0.21019 0.69612 0.0
C324 C 0.62574 0.30098 0.72459 0.0
C325 C 0.66125 0.21838 0.78951 0.0
O326 O 0.63151 0.23107 0.70995 0.0
O327 O 0.67174 0.21048 0.70236 0.0
O328 O 0.68684 0.31194 0.77149 0.0
O329 O 0.70596 0.28548 0.73853 0.0
Co330 Co 0.39855 0.6385 0.90653 0.0
O331 O 0.36095 0.63712 0.88005 0.0
O332 O 0.3505 0.59255 0.91349 0.0
C333 C 0.42282 0.69894 0.92245 0.0
O334 O 0.42959 0.63088 0.93889 0.0
Co335 Co 0.48308 0.69314 0.89391 0.0
O336 O 0.4905 0.67631 0.93421 0.0
C337 C 0.44137 0.62315 0.85742 0.0
C338 C 0.33722 0.60505 0.89274 0.0
C339 C 0.46392 0.64806 0.94816 0.0
O340 O 0.41188 0.61245 0.87383 0.0
O341 O 0.47181 0.65512 0.86073 0.0
O342 O 0.39286 0.67148 0.93511 0.0
O343 O 0.43518 0.68967 0.89892 0.0
Co344 Co 0.76333 0.38198 0.09269 0.0
O345 O 0.72726 0.38324 0.11958 0.0
O346 O 0.76306 0.42847 0.08682 0.0
C347 C 0.72517 0.32166 0.07602 0.0
O348 O 0.80246 0.39018 0.06027 0.0
Co349 Co 0.79125 0.32656 0.10357 0.0
O350 O 0.81226 0.34152 0.06183 0.0
C351 C 0.81775 0.39314 0.1438 0.0
C352 C 0.737 0.41585 0.10761 0.0
C353 C 0.81678 0.37142 0.04919 0.0
O354 O 0.80314 0.40659 0.12565 0.0
O355 O 0.81324 0.3602 0.14025 0.0
O356 O 0.72337 0.34946 0.06397 0.0
O357 O 0.74738 0.33075 0.09922 0.0
Co358 Co 0.38601 0.74763 0.24204 0.0
O359 O 0.3823 0.70974 0.21376 0.0
O360 O 0.4306 0.74426 0.24411 0.0
C361 C 0.32735 0.71176 0.26154 0.0
O362 O 0.39973 0.78778 0.27536 0.0
Co363 Co 0.33505 0.78142 0.23822 0.0
O364 O 0.35227 0.79838 0.28067 0.0
C365 C 0.3975 0.80661 0.19425 0.0
C366 C 0.41494 0.71762 0.22361 0.0
C367 C 0.38275 0.80173 0.28997 0.0
O368 O 0.4094 0.78788 0.20909 0.0
O369 O 0.36711 0.80552 0.20119 0.0
O370 O 0.35454 0.70782 0.27141 0.0
O371 O 0.33582 0.73488 0.2389 0.0
C372 C 0.24235 0.63936 0.30722 0.0
C373 C 0.21527 0.64886 0.30042 0.0
C374 C 0.27878 0.66036 0.29509 0.0
C375 C 0.28918 0.69112 0.27521 0.0
H376 H 0.23532 0.6156 0.3221 0.0
H377 H 0.2987 0.65197 0.30091 0.0
S378 S 0.22772 0.72652 0.24981 0.0
N379 N 0.20093 0.69066 0.27264 0.0
N380 N 0.26878 0.72956 0.24923 0.0
C381 C 0.2621 0.70067 0.2682 0.0
C382 C 0.22531 0.67969 0.28096 0.0
C383 C 0.59318 0.23183 0.47204 0.0
C384 C 0.56953 0.20126 0.4529 0.0
C385 C 0.60817 0.26941 0.46231 0.0
C386 C 0.59946 0.27763 0.43331 0.0
H387 H 0.60069 0.22661 0.49443 0.0
H388 H 0.62683 0.29216 0.47758 0.0
S389 S 0.53713 0.20692 0.37541 0.0
N390 N 0.53719 0.18116 0.40424 0.0
N391 N 0.56453 0.25157 0.38598 0.0
C392 C 0.57498 0.24706 0.41432 0.0
C393 C 0.56026 0.20891 0.4241 0.0
C394 C 0.3417 0.53464 0.60159 0.0
C395 C 0.36247 0.54258 0.62886 0.0
C396 C 0.32132 0.55228 0.59497 0.0
C397 C 0.32116 0.57871 0.61527 0.0
H398 H 0.34209 0.5155 0.58481 0.0
H399 H 0.30668 0.54615 0.57332 0.0
S400 S 0.36661 0.60535 0.69161 0.0
N401 N 0.37818 0.57554 0.6777 0.0
N402 N 0.34075 0.60927 0.66502 0.0
C403 C 0.34055 0.58571 0.64314 0.0
C404 C 0.36098 0.56754 0.64998 0.0
C405 C 0.81485 0.33827 0.78 0.0
C406 C 0.82698 0.37039 0.79862 0.0
C407 C 0.7783 0.31836 0.76814 0.0
C408 C 0.75233 0.32948 0.77488 0.0
H409 H 0.83404 0.32895 0.77402 0.0
H410 H 0.77041 0.29411 0.75355 0.0
S411 S 0.77001 0.41081 0.82385 0.0
N412 N 0.81016 0.4119 0.824 0.0
N413 N 0.74128 0.3743 0.80218 0.0
C414 C 0.76397 0.36113 0.79407 0.0
C415 C 0.80134 0.38166 0.80578 0.0
C416 C 0.47576 0.80645 0.92215 0.0
C417 C 0.47197 0.8154 0.95246 0.0
C418 C 0.46072 0.7687 0.91286 0.0
C419 C 0.44064 0.73854 0.93341 0.0
H420 H 0.49053 0.82884 0.90551 0.0
H421 H 0.46404 0.76308 0.88923 0.0
S422 S 0.42369 0.74708 0.01551 0.0
N423 N 0.4477 0.7913 1.00319 0.0
N424 N 0.4187 0.72025 0.98566 0.0
C425 C 0.43695 0.74716 0.96386 0.0
C426 C 0.45284 0.78563 0.97342 0.0
C427 C 0.69727 0.48057 0.10259 0.0
C428 C 0.67615 0.47243 0.12967 0.0
C429 C 0.7178 0.46305 0.09604 0.0
C430 C 0.71783 0.43651 0.11622 0.0
H431 H 0.69714 0.49988 0.0859 0.0
H432 H 0.73283 0.46952 0.07456 0.0
S433 S 0.6711 0.409 0.19203 0.0
N434 N 0.65967 0.4389 0.17818 0.0
N435 N 0.69741 0.40539 0.16563 0.0
C436 C 0.69792 0.42914 0.14387 0.0
C437 C 0.67729 0.4472 0.15064 0.0
C438 C 0.36717 0.80171 0.56919 0.0
C439 C 0.38153 0.80951 0.53922 0.0
C440 C 0.34615 0.76446 0.5801 0.0
C441 C 0.3389 0.73345 0.5616 0.0
H442 H 0.37261 0.82464 0.58456 0.0
H443 H 0.33596 0.76003 0.60341 0.0
S444 S 0.3678 0.73813 0.48069 0.0
N445 N 0.38512 0.78284 0.49061 0.0
N446 N 0.34636 0.71281 0.51138 0.0
C447 C 0.35276 0.7407 0.53149 0.0
C448 C 0.37392 0.7787 0.52026 0.0
C449 C 0.55268 0.32891 0.71256 0.0
C450 C 0.57231 0.36273 0.69567 0.0
C451 C 0.57007 0.30903 0.72172 0.0
C452 C 0.60759 0.32193 0.71397 0.0
H453 H 0.52384 0.31808 0.71919 0.0
H454 H 0.55393 0.28339 0.73501 0.0
S455 S 0.6706 0.40828 0.66872 0.0
N456 N 0.63078 0.40771 0.67078 0.0
N457 N 0.6635 0.37051 0.68766 0.0
C458 C 0.62728 0.35545 0.69659 0.0
C459 C 0.60966 0.37582 0.68757 0.0
C460 C 0.23118 0.54397 0.90061 0.0
C461 C 0.21813 0.55162 0.87347 0.0
C462 C 0.26972 0.56032 0.90626 0.0
C463 C 0.29669 0.58513 0.88507 0.0
H464 H 0.21149 0.52598 0.91801 0.0
H465 H 0.27842 0.5544 0.92782 0.0
S466 S 0.27717 0.61055 0.80882 0.0
N467 N 0.23531 0.58267 0.8239 0.0
N468 N 0.30754 0.61405 0.83477 0.0
C469 C 0.284 0.59195 0.85739 0.0
C470 C 0.24481 0.57507 0.85154 0.0
C471 C 0.65145 0.23485 0.03234 0.0
C472 C 0.65888 0.2066 0.04104 0.0
C473 C 0.67344 0.27213 0.04338 0.0
C474 C 0.70316 0.28228 0.06399 0.0
H475 H 0.62865 0.22812 0.01673 0.0
H476 H 0.66673 0.293 0.03601 0.0
S477 S 0.73299 0.21782 0.09431 0.0
N478 N 0.69753 0.19079 0.07139 0.0
N479 N 0.73825 0.26032 0.09283 0.0
C480 C 0.71053 0.25397 0.073 0.0
C481 C 0.68855 0.21628 0.06133 0.0
C482 C 0.48726 0.68849 0.21235 0.0
C483 C 0.46769 0.6548 0.19522 0.0
C484 C 0.47011 0.70874 0.22119 0.0
C485 C 0.43285 0.69638 0.21289 0.0
H486 H 0.51587 0.69892 0.21948 0.0
H487 H 0.48621 0.73421 0.23474 0.0
S488 S 0.37028 0.61088 0.16644 0.0
N489 N 0.40967 0.6107 0.16926 0.0
N490 N 0.3774 0.64866 0.18551 0.0
C491 C 0.41327 0.6631 0.19514 0.0
C492 C 0.43066 0.64232 0.18645 0.0
C493 C 0.80005 0.42421 0.38122 0.0
C494 C 0.82327 0.46351 0.37614 0.0
C495 C 0.76156 0.40751 0.38684 0.0
C496 C 0.74473 0.42945 0.38843 0.0
H497 H 0.81169 0.40605 0.38117 0.0
H498 H 0.74492 0.37716 0.39054 0.0
S499 S 0.79152 0.5328 0.37504 0.0
N500 N 0.82534 0.52345 0.37111 0.0
N501 N 0.75336 0.49203 0.38357 0.0
C502 C 0.76725 0.46863 0.3836 0.0
C503 C 0.80639 0.48566 0.37704 0.0
C504 C 0.15615 0.58446 0.48869 0.0
C505 C 0.15194 0.61009 0.47038 0.0
C506 C 0.18092 0.59711 0.51372 0.0
C507 C 0.20237 0.63586 0.5214 0.0
H508 H 0.13947 0.55431 0.48411 0.0
H509 H 0.18247 0.57625 0.52761 0.0
S510 S 0.20539 0.71483 0.47806 0.0
N511 N 0.17398 0.67619 0.45982 0.0
N512 N 0.22019 0.70001 0.50675 0.0
C513 C 0.19944 0.66184 0.50248 0.0
C514 C 0.17433 0.64896 0.47704 0.0
C515 C 0.58812 0.17393 0.62151 0.0
C516 C 0.57578 0.13508 0.62243 0.0
C517 C 0.60814 0.19801 0.6461 0.0
C518 C 0.61726 0.18408 0.6719 0.0
H519 H 0.58255 0.18576 0.60155 0.0
H520 H 0.61769 0.22789 0.64446 0.0
S521 S 0.5904 0.08447 0.68565 0.0
N522 N 0.57275 0.08359 0.65164 0.0
N523 N 0.61149 0.129 0.69731 0.0
C524 C 0.60465 0.14525 0.67318 0.0
C525 C 0.58359 0.12068 0.64855 0.0
C526 C 0.41789 0.56217 0.7861 0.0
C527 C 0.44685 0.55403 0.78537 0.0
C528 C 0.41502 0.58317 0.81024 0.0
C529 C 0.44128 0.59707 0.8342 0.0
H530 H 0.39809 0.55342 0.76739 0.0
H531 H 0.39314 0.58991 0.8095 0.0
S532 S 0.51878 0.57912 0.84563 0.0
N533 N 0.49932 0.55775 0.81301 0.0
N534 N 0.49482 0.59849 0.85737 0.0
C535 C 0.46927 0.58783 0.83445 0.0
C536 C 0.47183 0.56599 0.8103 0.0
C537 C 0.87099 0.37195 0.97901 0.0
C538 C 0.8905 0.41011 0.96973 0.0
C539 C 0.84671 0.35979 1.0042 0.0
C540 C 0.84066 0.38519 0.02126 0.0
H541 H 0.87451 0.35119 0.96669 0.0
H542 H 0.83268 0.33011 0.0104 0.0
S543 S 0.88534 0.48841 0.00676 0.0
N544 N 0.90248 0.47348 0.97985 0.0
N545 N 0.85633 0.4505 0.0269 0.0
C546 C 0.85946 0.42337 0.01193 0.0
C547 C 0.88446 0.43584 0.98629 0.0
C548 C 0.42973 0.88003 0.13082 0.0
C549 C 0.45997 0.87934 0.11744 0.0
C550 C 0.41014 0.85665 0.15561 0.0
C551 C 0.41976 0.83128 0.16811 0.0
H552 H 0.4213 0.89914 0.12221 0.0
H553 H 0.38724 0.85871 0.16504 0.0
S554 S 0.49612 0.81754 0.14017 0.0
N555 N 0.49835 0.85081 0.11772 0.0
N556 N 0.46146 0.80647 0.16432 0.0
C557 C 0.45003 0.83023 0.15478 0.0
C558 C 0.47013 0.85433 0.1295 0.0
C559 C 0.56888 0.44537 0.30615 0.0
C560 C 0.59628 0.46134 0.28299 0.0
C561 C 0.57132 0.42398 0.32983 0.0
C562 C 0.60169 0.41832 0.33187 0.0
H563 H 0.54499 0.44906 0.30585 0.0
H564 H 0.54906 0.41155 0.34668 0.0
S565 S 0.68119 0.45385 0.2777 0.0
N566 N 0.65484 0.46944 0.26369 0.0
N567 N 0.66012 0.43062 0.30929 0.0
C568 C 0.63002 0.43505 0.30967 0.0
C569 C 0.62719 0.45625 0.28502 0.0
C570 C 0.39557 0.83858 0.37111 0.0
C571 C 0.42857 0.87462 0.36928 0.0
C572 C 0.38149 0.81457 0.34553 0.0
C573 C 0.40033 0.82526 0.31736 0.0
H574 H 0.38018 0.82897 0.3924 0.0
H575 H 0.35546 0.78759 0.3477 0.0
S576 S 0.48675 0.91648 0.29961 0.0
N577 N 0.47879 0.92002 0.3361 0.0
N578 N 0.45304 0.87393 0.28864 0.0
C579 C 0.43362 0.86061 0.3152 0.0
C580 C 0.44762 0.88549 0.34102 0.0
C581 C 0.57189 0.40216 0.52664 0.0
C582 C 0.53972 0.40525 0.52584 0.0
C583 C 0.58446 0.39219 0.50041 0.0
C584 C 0.56501 0.38445 0.47256 0.0
H585 H 0.58695 0.40653 0.54787 0.0
H586 H 0.60868 0.38915 0.50221 0.0
S587 S 0.48249 0.39328 0.45697 0.0
N588 N 0.49143 0.40378 0.4936 0.0
N589 N 0.51408 0.38347 0.44494 0.0
C590 C 0.53367 0.38859 0.47114 0.0
C591 C 0.52126 0.39935 0.4976 0.0
C592 C 0.17054 0.60246 0.71835 0.0
C593 C 0.15299 0.5628 0.72014 0.0
C594 C 0.1945 0.6228 0.69411 0.0
C595 C 0.20216 0.60447 0.6705 0.0
H596 H 0.16551 0.618 0.7358 0.0
H597 H 0.20688 0.65326 0.69387 0.0
S598 S 0.16371 0.5008 0.66472 0.0
N599 N 0.14514 0.50577 0.69644 0.0
N600 N 0.19066 0.544 0.65097 0.0
C601 C 0.18556 0.56481 0.67241 0.0
C602 C 0.16093 0.54402 0.69718 0.0
C603 C 0.65582 0.16491 0.86184 0.0
C604 C 0.61765 0.14597 0.86974 0.0
C605 C 0.66958 0.18903 0.83649 0.0
C606 C 0.64582 0.19539 0.81784 0.0
H607 H 0.67529 0.16083 0.87525 0.0
H608 H 0.69919 0.20247 0.83131 0.0
S609 S 0.54342 0.15291 0.82894 0.0
N610 N 0.55616 0.13541 0.85716 0.0
N611 N 0.58208 0.18115 0.80959 0.0
C612 C 0.60768 0.17746 0.82597 0.0
C613 C 0.5936 0.15268 0.85186 0.0
C614 C 0.51814 0.62172 1.00176 0.0
C615 C 0.49818 0.61354 0.02947 0.0
C616 C 0.50643 0.63227 0.97556 0.0
C617 C 0.47385 0.63437 0.97573 0.0
H618 H 0.5431 0.61992 1.00022 0.0
H619 H 0.52302 0.63873 0.95491 0.0
S620 S 0.41215 0.61756 0.04228 0.0
N621 N 0.44479 0.60999 0.05556 0.0
N622 N 0.42208 0.62828 1.00578 0.0
C623 C 0.45322 0.62584 1.00297 0.0
C624 C 0.46552 0.61577 0.02994 0.0
C625 C 0.87377 0.41924 0.21756 0.0
C626 C 0.89163 0.45895 0.21887 0.0
C627 C 0.8494 0.39848 0.19366 0.0
C628 C 0.84158 0.41641 0.1699 0.0
H629 H 0.87894 0.40397 0.2351 0.0
H630 H 0.83685 0.36799 0.19377 0.0
S631 S 0.88036 0.51999 0.16307 0.0
N632 N 0.89934 0.5156 0.19473 0.0
N633 N 0.85303 0.47653 0.14979 0.0
C634 C 0.85833 0.45612 0.17139 0.0
C635 C 0.88341 0.47736 0.19585 0.0
loop_
_geom_bond_atom_site_label_1
_geom_bond_atom_site_label_2
_geom_bond_distance
_geom_bond_site_symmetry_2
_ccdc_geom_bond_type
H0 C19 0.949 . S
H1 C20 0.950 . S
H2 C22 0.950 . S
H3 C23 0.950 . S
H4 C25 0.950 . S
H5 C28 0.950 . S
H6 C29 0.950 . S
H7 C31 0.951 . S
H8 C32 0.949 . S
H9 C34 0.949 . S
H10 C35 0.950 . S
H11 C37 0.950 . S
H12 C38 0.950 . S
H13 C40 0.950 1_655 S
H14 C43 0.950 . S
H15 C44 0.950 . S
H16 C46 0.951 . S
H17 C47 0.949 . S
C18 C19 1.376 . S
C18 C23 1.386 . S
C18 C24 1.483 . S
C19 H0 0.949 . S
C19 C18 1.376 . S
C19 C20 1.397 . S
C20 H1 0.950 . S
C20 C19 1.397 . S
C20 C21 1.391 . S
C21 C20 1.391 . S
C21 C22 1.405 . S
C22 H2 0.950 . S
C22 C21 1.405 . S
C22 C23 1.367 . S
C23 H3 0.950 . S
C23 C18 1.386 . S
C23 C22 1.367 . S
C24 C18 1.483 . S
C24 C25 1.382 1_655 S
C24 C26 1.403 . S
C25 H4 0.950 . S
C25 C24 1.382 1_455 S
C25 C41 1.411 . S
C26 C24 1.403 . S
C26 C27 1.489 . S
C26 C40 1.411 1_655 S
C27 C26 1.489 . S
C27 C28 1.383 . S
C27 C32 1.382 . S
C28 H5 0.950 . S
C28 C27 1.383 . S
C28 C29 1.395 . S
C29 H6 0.950 . S
C29 C28 1.395 . S
C29 C30 1.288 . S
C30 C29 1.288 . S
C30 C31 1.392 . S
C31 H7 0.951 . S
C31 C30 1.392 . S
C31 C32 1.392 . S
C32 H8 0.949 . S
C32 C27 1.382 . S
C32 C31 1.392 . S
C33 C34 1.376 . S
C33 C38 1.386 . S
C33 C39 1.483 . S
C34 H9 0.949 . S
C34 C33 1.376 . S
C34 C35 1.397 . S
C35 H10 0.950 . S
C35 C34 1.397 . S
C35 C36 1.391 . S
C36 C35 1.391 . S
C36 C37 1.405 . S
C37 H11 0.950 . S
C37 C36 1.405 . S
C37 C38 1.367 . S
C38 H12 0.950 . S
C38 C33 1.386 . S
C38 C37 1.367 . S
C39 C33 1.483 . S
C39 C40 1.382 . S
C39 C41 1.403 . S
C40 H13 0.950 1_455 S
C40 C26 1.411 1_455 S
C40 C39 1.382 . S
C41 C25 1.411 . S
C41 C39 1.403 . S
C41 C42 1.489 . S
C42 C41 1.489 . S
C42 C43 1.383 . S
C42 C47 1.382 . S
C43 H14 0.950 . S
C43 C42 1.383 . S
C43 C44 1.395 . S
C44 H15 0.950 . S
C44 C43 1.395 . S
C44 C45 1.288 . S
C45 C44 1.288 . S
C45 C46 1.392 . S
C46 H16 0.951 . S
C46 C45 1.392 . S
C46 C47 1.392 . S
C47 H17 0.949 . S
C47 C42 1.382 . S
C47 C46 1.392 . S
H48 C67 0.949 . S
H49 C68 0.950 . S
H50 C70 0.950 . S
H51 C71 0.950 . S
H52 C73 0.950 . S
H53 C76 0.950 . S
H54 C77 0.950 . S
H55 C79 0.951 . S
H56 C80 0.949 . S
H57 C82 0.949 . S
H58 C83 0.950 . S
H59 C85 0.950 . S
H60 C86 0.950 . S
H61 C88 0.950 . S
H62 C91 0.950 . S
H63 C92 0.950 . S
H64 C94 0.951 . S
H65 C95 0.949 . S
C66 C67 1.376 . S
C66 C71 1.386 . S
C66 C72 1.483 . S
C67 H48 0.949 . S
C67 C66 1.376 . S
C67 C68 1.397 . S
C68 H49 0.950 . S
C68 C67 1.397 . S
C68 C69 1.391 . S
C69 C68 1.391 . S
C69 C70 1.405 . S
C70 H50 0.950 . S
C70 C69 1.405 . S
C70 C71 1.367 . S
C71 H51 0.950 . S
C71 C66 1.386 . S
C71 C70 1.367 . S
C72 C66 1.483 . S
C72 C73 1.382 . S
C72 C74 1.403 . S
C73 H52 0.950 . S
C73 C72 1.382 . S
C73 C89 1.411 1_565 S
C74 C72 1.403 . S
C74 C75 1.489 . S
C74 C88 1.411 1_565 S
C75 C74 1.489 . S
C75 C76 1.383 . S
C75 C80 1.382 . S
C76 H53 0.950 . S
C76 C75 1.383 . S
C76 C77 1.395 . S
C77 H54 0.950 . S
C77 C76 1.395 . S
C77 C78 1.288 . S
C78 C77 1.288 . S
C78 C79 1.392 . S
C79 H55 0.951 . S
C79 C78 1.392 . S
C79 C80 1.392 . S
C80 H56 0.949 . S
C80 C75 1.382 . S
C80 C79 1.392 . S
C81 C82 1.376 . S
C81 C86 1.386 . S
C81 C87 1.483 . S
C82 H57 0.949 . S
C82 C81 1.376 . S
C82 C83 1.397 . S
C83 H58 0.950 . S
C83 C82 1.397 . S
C83 C84 1.391 . S
C84 C83 1.391 . S
C84 C85 1.405 . S
C85 H59 0.950 . S
C85 C84 1.405 . S
C85 C86 1.367 . S
C86 H60 0.950 . S
C86 C81 1.386 . S
C86 C85 1.367 . S
C87 C81 1.483 . S
C87 C88 1.382 . S
C87 C89 1.403 . S
C88 H61 0.950 . S
C88 C74 1.411 1_545 S
C88 C87 1.382 . S
C89 C73 1.411 1_545 S
C89 C87 1.403 . S
C89 C90 1.489 . S
C90 C89 1.489 . S
C90 C91 1.383 . S
C90 C95 1.382 . S
C91 H62 0.950 . S
C91 C90 1.383 . S
C91 C92 1.395 . S
C92 H63 0.950 . S
C92 C91 1.395 . S
C92 C93 1.288 . S
C93 C92 1.288 . S
C93 C94 1.392 . S
C94 H64 0.951 . S
C94 C93 1.392 . S
C94 C95 1.392 . S
C95 H65 0.949 . S
C95 C90 1.382 . S
C95 C94 1.392 . S
H96 C115 0.949 . S
H97 C116 0.950 . S
H98 C118 0.950 . S
H99 C119 0.950 . S
H100 C121 0.950 . S
H101 C124 0.950 . S
H102 C125 0.950 . S
H103 C127 0.951 . S
H104 C128 0.949 . S
H105 C130 0.949 . S
H106 C131 0.950 . S
H107 C133 0.950 . S
H108 C134 0.950 . S
H109 C136 0.950 . S
H110 C139 0.950 . S
H111 C140 0.950 . S
H112 C142 0.951 . S
H113 C143 0.949 . S
C114 C115 1.376 . S
C114 C119 1.386 . S
C114 C120 1.483 . S
C115 H96 0.949 . S
C115 C114 1.376 . S
C115 C116 1.397 . S
C116 H97 0.950 . S
C116 C115 1.397 . S
C116 C117 1.391 . S
C117 C116 1.391 . S
C117 C118 1.405 . S
C118 H98 0.950 . S
C118 C117 1.405 . S
C118 C119 1.367 . S
C119 H99 0.950 . S
C119 C114 1.386 . S
C119 C118 1.367 . S
C120 C114 1.483 . S
C120 C121 1.382 . S
C120 C122 1.403 . S
C121 H100 0.950 . S
C121 C120 1.382 . S
C121 C137 1.411 . S
C122 C120 1.403 . S
C122 C123 1.489 . S
C122 C136 1.411 . S
C123 C122 1.489 . S
C123 C124 1.383 . S
C123 C128 1.382 . S
C124 H101 0.950 . S
C124 C123 1.383 . S
C124 C125 1.395 . S
C125 H102 0.950 . S
C125 C124 1.395 . S
C125 C126 1.288 . S
C126 C125 1.288 . S
C126 C127 1.392 . S
C127 H103 0.951 . S
C127 C126 1.392 . S
C127 C128 1.392 . S
C128 H104 0.949 . S
C128 C123 1.382 . S
C128 C127 1.392 . S
C129 C130 1.376 . S
C129 C134 1.386 . S
C129 C135 1.483 . S
C130 H105 0.949 . S
C130 C129 1.376 . S
C130 C131 1.397 . S
C131 H106 0.950 . S
C131 C130 1.397 . S
C131 C132 1.391 . S
C132 C131 1.391 . S
C132 C133 1.405 . S
C133 H107 0.950 . S
C133 C132 1.405 . S
C133 C134 1.367 . S
C134 H108 0.950 . S
C134 C129 1.386 . S
C134 C133 1.367 . S
C135 C129 1.483 . S
C135 C136 1.382 . S
C135 C137 1.403 . S
C136 H109 0.950 . S
C136 C122 1.411 . S
C136 C135 1.382 . S
C137 C121 1.411 . S
C137 C135 1.403 . S
C137 C138 1.489 . S
C138 C137 1.489 . S
C138 C139 1.383 . S
C138 C143 1.382 . S
C139 H110 0.950 . S
C139 C138 1.383 . S
C139 C140 1.395 . S
C140 H111 0.950 . S
C140 C139 1.395 . S
C140 C141 1.288 . S
C141 C140 1.288 . S
C141 C142 1.392 . S
C142 H112 0.951 . S
C142 C141 1.392 . S
C142 C143 1.392 . S
C143 H113 0.949 . S
C143 C138 1.382 . S
C143 C142 1.392 . S
H144 C163 0.949 . S
H145 C164 0.950 . S
H146 C166 0.950 . S
H147 C167 0.950 . S
H148 C169 0.944 1_655 S
H149 C172 0.950 . S
H150 C173 0.950 . S
H151 C175 0.951 . S
H152 C176 0.949 . S
H153 C178 0.949 . S
H154 C179 0.950 . S
H155 C181 0.950 . S
H156 C182 0.950 . S
H157 C184 0.950 . S
H158 C187 0.950 . S
H159 C188 0.950 . S
H160 C190 0.951 . S
H161 C191 0.949 . S
C162 C163 1.376 . S
C162 C167 1.386 . S
C162 C168 1.483 . S
C163 H144 0.949 . S
C163 C162 1.376 . S
C163 C164 1.397 . S
C164 H145 0.950 . S
C164 C163 1.397 . S
C164 C165 1.391 . S
C165 C164 1.391 . S
C165 C166 1.405 . S
C166 H146 0.950 . S
C166 C165 1.405 . S
C166 C167 1.367 . S
C167 H147 0.950 . S
C167 C162 1.386 . S
C167 C166 1.367 . S
C168 C162 1.483 . S
C168 C169 1.397 . S
C168 C170 1.403 . S
C169 H148 0.944 1_455 S
C169 C168 1.397 . S
C169 C185 1.401 1_455 S
C170 C168 1.403 . S
C170 C171 1.489 . S
C170 C184 1.411 . S
C171 C170 1.489 . S
C171 C172 1.383 . S
C171 C176 1.382 . S
C172 H149 0.950 . S
C172 C171 1.383 . S
C172 C173 1.395 . S
C173 H150 0.950 . S
C173 C172 1.395 . S
C173 C174 1.288 . S
C174 C173 1.288 . S
C174 C175 1.392 . S
C175 H151 0.951 . S
C175 C174 1.392 . S
C175 C176 1.392 . S
C176 H152 0.949 . S
C176 C171 1.382 . S
C176 C175 1.392 . S
C177 C178 1.376 . S
C177 C182 1.386 . S
C177 C183 1.483 . S
C178 H153 0.949 . S
C178 C177 1.376 . S
C178 C179 1.397 . S
C179 H154 0.950 . S
C179 C178 1.397 . S
C179 C180 1.391 . S
C180 C179 1.391 . S
C180 C181 1.405 . S
C181 H155 0.950 . S
C181 C180 1.405 . S
C181 C182 1.367 . S
C182 H156 0.950 . S
C182 C177 1.386 . S
C182 C181 1.367 . S
C183 C177 1.483 . S
C183 C184 1.382 1_655 S
C183 C185 1.403 . S
C184 H157 0.950 . S
C184 C170 1.411 . S
C184 C183 1.382 1_455 S
C185 C169 1.401 1_655 S
C185 C183 1.403 . S
C185 C186 1.489 . S
C186 C185 1.489 . S
C186 C187 1.383 . S
C186 C191 1.382 . S
C187 H158 0.950 . S
C187 C186 1.383 . S
C187 C188 1.395 . S
C188 H159 0.950 . S
C188 C187 1.395 . S
C188 C189 1.288 . S
C189 C188 1.288 . S
C189 C190 1.392 . S
C190 H160 0.951 . S
C190 C189 1.392 . S
C190 C191 1.392 . S
C191 H161 0.949 . S
C191 C186 1.382 . S
C191 C190 1.392 . S
H192 C211 0.949 . S
H193 C212 0.950 . S
H194 C214 0.950 . S
H195 C215 0.930 1_556 S
H196 C217 0.950 . S
H197 C220 0.950 . S
H198 C221 0.950 . S
H199 C223 0.951 . S
H200 C224 0.949 . S
H201 C226 0.949 . S
H202 C227 0.950 . S
H203 C229 0.950 . S
H204 C230 0.972 . S
H205 C232 0.950 . S
H206 C235 0.950 . S
H207 C236 0.950 . S
H208 C238 0.951 . S
H209 C239 0.949 . S
C210 C211 1.376 . S
C210 C215 1.395 . S
C210 C216 1.480 1_554 S
C211 H192 0.949 . S
C211 C210 1.376 . S
C211 C212 1.397 . S
C212 H193 0.950 . S
C212 C211 1.397 . S
C212 C213 1.391 . S
C213 C212 1.391 . S
C213 C214 1.405 . S
C214 H194 0.950 . S
C214 C213 1.405 . S
C214 C215 1.380 . S
C215 H195 0.930 1_554 S
C215 C210 1.395 . S
C215 C214 1.380 . S
C216 C210 1.480 1_556 S
C216 C217 1.374 1_556 S
C216 C218 1.412 . S
C217 H196 0.950 . S
C217 C216 1.374 1_554 S
C217 C233 1.411 1_545 S
C218 C216 1.412 . S
C218 C219 1.489 . S
C218 C232 1.411 1_545 S
C219 C218 1.489 . S
C219 C220 1.383 . S
C219 C224 1.382 . S
C220 H197 0.950 . S
C220 C219 1.383 . S
C220 C221 1.395 . S
C221 H198 0.950 . S
C221 C220 1.395 . S
C221 C222 1.288 . S
C222 C221 1.288 . S
C222 C223 1.392 . S
C223 H199 0.951 . S
C223 C222 1.392 . S
C223 C224 1.392 . S
C224 H200 0.949 . S
C224 C219 1.382 . S
C224 C223 1.392 . S
C225 C226 1.376 . S
C225 C230 1.386 . S
C225 C231 1.483 . S
C226 H201 0.949 . S
C226 C225 1.376 . S
C226 C227 1.397 . S
C227 H202 0.950 . S
C227 C226 1.397 . S
C227 C228 1.391 . S
C228 C227 1.391 . S
C228 C229 1.405 . S
C229 H203 0.950 . S
C229 C228 1.405 . S
C229 C230 1.367 . S
C230 H204 0.972 . S
C230 C225 1.386 . S
C230 C229 1.367 . S
C231 C225 1.483 . S
C231 C232 1.382 . S
C231 C233 1.403 1_556 S
C232 H205 0.950 . S
C232 C218 1.411 1_565 S
C232 C231 1.382 . S
C233 C217 1.411 1_565 S
C233 C231 1.403 1_554 S
C233 C234 1.489 . S
C234 C233 1.489 . S
C234 C235 1.383 . S
C234 C239 1.382 . S
C235 H206 0.950 . S
C235 C234 1.383 . S
C235 C236 1.395 . S
C236 H207 0.950 . S
C236 C235 1.395 . S
C236 C237 1.288 . S
C237 C236 1.288 . S
C237 C238 1.392 . S
C238 H208 0.951 . S
C238 C237 1.392 . S
C238 C239 1.392 . S
C239 H209 0.949 . S
C239 C234 1.382 . S
C239 C238 1.392 . S
H240 C259 0.949 . S
H241 C260 0.950 . S
H242 C262 0.950 . S
H243 C263 0.950 . S
H244 C265 0.950 . S
H245 C268 0.950 . S
H246 C269 0.950 . S
H247 C271 0.951 . S
H248 C272 0.949 . S
H249 C274 0.949 . S
H250 C275 0.950 . S
H251 C277 0.950 . S
H252 C278 0.950 . S
H253 C280 0.950 . S
H254 C283 0.950 . S
H255 C284 0.950 . S
H256 C286 0.951 . S
H257 C287 0.949 . S
C258 C259 1.376 . S
C258 C263 1.386 . S
C258 C264 1.483 . S
C259 H240 0.949 . S
C259 C258 1.376 . S
C259 C260 1.397 . S
C260 H241 0.950 . S
C260 C259 1.397 . S
C260 C261 1.391 . S
C261 C260 1.391 . S
C261 C262 1.405 . S
C262 H242 0.950 . S
C262 C261 1.405 . S
C262 C263 1.367 . S
C263 H243 0.950 . S
C263 C258 1.386 . S
C263 C262 1.367 . S
C264 C258 1.483 . S
C264 C265 1.382 . S
C264 C266 1.403 . S
C265 H244 0.950 . S
C265 C264 1.382 . S
C265 C281 1.411 . S
C266 C264 1.403 . S
C266 C267 1.489 . S
C266 C280 1.411 . S
C267 C266 1.489 . S
C267 C268 1.383 . S
C267 C272 1.382 . S
C268 H245 0.950 . S
C268 C267 1.383 . S
C268 C269 1.395 . S
C269 H246 0.950 . S
C269 C268 1.395 . S
C269 C270 1.288 . S
C270 C269 1.288 . S
C270 C271 1.392 . S
C271 H247 0.951 . S
C271 C270 1.392 . S
C271 C272 1.392 . S
C272 H248 0.949 . S
C272 C267 1.382 . S
C272 C271 1.392 . S
C273 C274 1.376 . S
C273 C278 1.386 . S
C273 C279 1.483 . S
C274 H249 0.949 . S
C274 C273 1.376 . S
C274 C275 1.397 . S
C275 H250 0.950 . S
C275 C274 1.397 . S
C275 C276 1.391 . S
C276 C275 1.391 . S
C276 C277 1.405 . S
C277 H251 0.950 . S
C277 C276 1.405 . S
C277 C278 1.367 . S
C278 H252 0.950 . S
C278 C273 1.386 . S
C278 C277 1.367 . S
C279 C273 1.483 . S
C279 C280 1.382 . S
C279 C281 1.403 . S
C280 H253 0.950 . S
C280 C266 1.411 . S
C280 C279 1.382 . S
C281 C265 1.411 . S
C281 C279 1.403 . S
C281 C282 1.489 . S
C282 C281 1.489 . S
C282 C283 1.383 . S
C282 C287 1.382 . S
C283 H254 0.950 . S
C283 C282 1.383 . S
C283 C284 1.395 . S
C284 H255 0.950 . S
C284 C283 1.395 . S
C284 C285 1.288 . S
C285 C284 1.288 . S
C285 C286 1.392 . S
C286 H256 0.951 . S
C286 C285 1.392 . S
C286 C287 1.392 . S
C287 H257 0.949 . S
C287 C282 1.382 . S
C287 C286 1.392 . S
Co288 O289 2.216 . S
Co288 O290 2.091 . S
Co288 O292 2.004 . S
Co288 O298 2.021 . S
Co288 O300 2.137 . S
Co288 O301 2.244 . S
O289 Co288 2.216 . S
O289 C296 1.247 . S
O290 Co288 2.091 . S
O290 C296 1.261 . S
C291 O300 1.247 . S
C291 O301 1.272 . S
O292 Co288 2.004 . S
O292 C297 1.259 . S
Co293 O294 2.061 . S
Co293 O299 2.052 . S
Co293 O301 2.135 . S
O294 Co293 2.061 . S
O294 C297 1.235 . S
C295 O298 1.238 . S
C295 O299 1.241 . S
C296 O289 1.247 . S
C296 O290 1.261 . S
C297 O292 1.259 . S
C297 O294 1.235 . S
O298 Co288 2.021 . S
O298 C295 1.238 . S
O299 Co293 2.052 . S
O299 C295 1.241 . S
O300 Co288 2.137 . S
O300 C291 1.247 . S
O301 Co288 2.244 . S
O301 C291 1.272 . S
O301 Co293 2.135 . S
Co302 O303 2.216 . S
Co302 O304 2.091 . S
Co302 O306 2.004 . S
Co302 O312 2.021 . S
Co302 O314 2.137 . S
Co302 O315 2.244 . S
O303 Co302 2.216 . S
O303 C310 1.247 . S
O304 Co302 2.091 . S
O304 C310 1.261 . S
C305 O314 1.247 . S
C305 O315 1.272 . S
O306 Co302 2.004 . S
O306 C311 1.259 . S
Co307 O308 2.061 . S
Co307 O313 2.052 . S
Co307 O315 2.135 . S
O308 Co307 2.061 . S
O308 C311 1.235 . S
C309 O312 1.238 . S
C309 O313 1.241 . S
C310 O303 1.247 . S
C310 O304 1.261 . S
C311 O306 1.259 . S
C311 O308 1.235 . S
O312 Co302 2.021 . S
O312 C309 1.238 . S
O313 Co307 2.052 . S
O313 C309 1.241 . S
O314 Co302 2.137 . S
O314 C305 1.247 . S
O315 Co302 2.244 . S
O315 C305 1.272 . S
O315 Co307 2.135 . S
Co316 O317 2.216 . S
Co316 O318 2.091 . S
Co316 O320 2.004 . S
Co316 O326 2.021 . S
Co316 O328 2.137 . S
Co316 O329 2.244 . S
O317 Co316 2.216 . S
O317 C324 1.247 . S
O318 Co316 2.091 . S
O318 C324 1.261 . S
C319 O328 1.247 . S
C319 O329 1.272 . S
O320 Co316 2.004 . S
O320 C325 1.259 . S
Co321 O322 2.061 . S
Co321 O327 2.052 . S
Co321 O329 2.135 . S
O322 Co321 2.061 . S
O322 C325 1.235 . S
C323 O326 1.238 . S
C323 O327 1.241 . S
C324 O317 1.247 . S
C324 O318 1.261 . S
C325 O320 1.259 . S
C325 O322 1.235 . S
O326 Co316 2.021 . S
O326 C323 1.238 . S
O327 Co321 2.052 . S
O327 C323 1.241 . S
O328 Co316 2.137 . S
O328 C319 1.247 . S
O329 Co316 2.244 . S
O329 C319 1.272 . S
O329 Co321 2.135 . S
Co330 O331 2.216 . S
Co330 O332 2.091 . S
Co330 O334 2.004 . S
Co330 O340 2.021 . S
Co330 O342 2.137 . S
Co330 O343 2.244 . S
O331 Co330 2.216 . S
O331 C338 1.247 . S
O332 Co330 2.091 . S
O332 C338 1.261 . S
C333 O342 1.247 . S
C333 O343 1.272 . S
O334 Co330 2.004 . S
O334 C339 1.259 . S
Co335 O336 2.061 . S
Co335 O341 2.052 . S
Co335 O343 2.135 . S
O336 Co335 2.061 . S
O336 C339 1.235 . S
C337 O340 1.238 . S
C337 O341 1.241 . S
C338 O331 1.247 . S
C338 O332 1.261 . S
C339 O334 1.259 . S
C339 O336 1.235 . S
O340 Co330 2.021 . S
O340 C337 1.238 . S
O341 Co335 2.052 . S
O341 C337 1.241 . S
O342 Co330 2.137 . S
O342 C333 1.247 . S
O343 Co330 2.244 . S
O343 C333 1.272 . S
O343 Co335 2.135 . S
Co344 O345 2.216 . S
Co344 O346 2.091 . S
Co344 O348 2.004 . S
Co344 O354 2.021 . S
Co344 O356 2.137 . S
Co344 O357 2.244 . S
O345 Co344 2.216 . S
O345 C352 1.247 . S
O346 Co344 2.091 . S
O346 C352 1.261 . S
C347 O356 1.247 . S
C347 O357 1.272 . S
O348 Co344 2.004 . S
O348 C353 1.259 . S
Co349 O350 2.061 . S
Co349 O355 2.052 . S
Co349 O357 2.135 . S
O350 Co349 2.061 . S
O350 C353 1.235 . S
C351 O354 1.238 . S
C351 O355 1.241 . S
C352 O345 1.247 . S
C352 O346 1.261 . S
C353 O348 1.259 . S
C353 O350 1.235 . S
O354 Co344 2.021 . S
O354 C351 1.238 . S
O355 Co349 2.052 . S
O355 C351 1.241 . S
O356 Co344 2.137 . S
O356 C347 1.247 . S
O357 Co344 2.244 . S
O357 C347 1.272 . S
O357 Co349 2.135 . S
Co358 O359 2.216 . S
Co358 O360 2.091 . S
Co358 O362 2.004 . S
Co358 O368 2.021 . S
Co358 O370 2.137 . S
Co358 O371 2.244 . S
O359 Co358 2.216 . S
O359 C366 1.247 . S
O360 Co358 2.091 . S
O360 C366 1.261 . S
C361 O370 1.247 . S
C361 O371 1.272 . S
O362 Co358 2.004 . S
O362 C367 1.259 . S
Co363 O364 2.061 . S
Co363 O369 2.052 . S
Co363 O371 2.135 . S
O364 Co363 2.061 . S
O364 C367 1.235 . S
C365 O368 1.238 . S
C365 O369 1.241 . S
C366 O359 1.247 . S
C366 O360 1.261 . S
C367 O362 1.259 . S
C367 O364 1.235 . S
O368 Co358 2.021 . S
O368 C365 1.238 . S
O369 Co363 2.052 . S
O369 C365 1.241 . S
O370 Co358 2.137 . S
O370 C361 1.247 . S
O371 Co358 2.244 . S
O371 C361 1.272 . S
O371 Co363 2.135 . S
C372 C373 1.369 . S
C372 C374 1.419 . S
C372 H376 0.930 . S
C373 C372 1.369 . S
C373 C382 1.429 . S
C374 C372 1.419 . S
C374 C375 1.363 . S
C374 H377 0.929 . S
C375 C374 1.363 . S
C375 C381 1.428 . S
H376 C372 0.930 . S
H377 C374 0.929 . S
S378 N379 1.613 . S
S378 N380 1.610 . S
N379 S378 1.613 . S
N379 C382 1.350 . S
N380 S378 1.610 . S
N380 C381 1.351 . S
C381 C375 1.428 . S
C381 N380 1.351 . S
C381 C382 1.434 . S
C382 C373 1.429 . S
C382 N379 1.350 . S
C382 C381 1.434 . S
C383 C384 1.369 . S
C383 C385 1.419 . S
C383 H387 0.930 . S
C384 C383 1.369 . S
C384 C393 1.429 . S
C385 C383 1.419 . S
C385 C386 1.363 . S
C385 H388 0.929 . S
C386 C385 1.363 . S
C386 C392 1.428 . S
H387 C383 0.930 . S
H388 C385 0.929 . S
S389 N390 1.613 . S
S389 N391 1.610 . S
N390 S389 1.613 . S
N390 C393 1.350 . S
N391 S389 1.610 . S
N391 C392 1.351 . S
C392 C386 1.428 . S
C392 N391 1.351 . S
C392 C393 1.434 . S
C393 C384 1.429 . S
C393 N390 1.350 . S
C393 C392 1.434 . S
C394 C395 1.369 . S
C394 C396 1.419 . S
C394 H398 0.930 . S
C395 C394 1.369 . S
C395 C404 1.429 . S
C396 C394 1.419 . S
C396 C397 1.363 . S
C396 H399 0.929 . S
C397 C396 1.363 . S
C397 C403 1.428 . S
H398 C394 0.930 . S
H399 C396 0.929 . S
S400 N401 1.613 . S
S400 N402 1.610 . S
N401 S400 1.613 . S
N401 C404 1.350 . S
N402 S400 1.610 . S
N402 C403 1.351 . S
C403 C397 1.428 . S
C403 N402 1.351 . S
C403 C404 1.434 . S
C404 C395 1.429 . S
C404 N401 1.350 . S
C404 C403 1.434 . S
C405 C406 1.369 . S
C405 C407 1.419 . S
C405 H409 0.930 . S
C406 C405 1.369 . S
C406 C415 1.429 . S
C407 C405 1.419 . S
C407 C408 1.363 . S
C407 H410 0.929 . S
C408 C407 1.363 . S
C408 C414 1.428 . S
H409 C405 0.930 . S
H410 C407 0.929 . S
S411 N412 1.613 . S
S411 N413 1.610 . S
N412 S411 1.613 . S
N412 C415 1.350 . S
N413 S411 1.610 . S
N413 C414 1.351 . S
C414 C408 1.428 . S
C414 N413 1.351 . S
C414 C415 1.434 . S
C415 C406 1.429 . S
C415 N412 1.350 . S
C415 C414 1.434 . S
C416 C417 1.369 . S
C416 C418 1.419 . S
C416 H420 0.930 . S
C417 C416 1.369 . S
C417 C426 1.429 . S
C418 C416 1.419 . S
C418 C419 1.363 . S
C418 H421 0.929 . S
C419 C418 1.363 . S
C419 C425 1.428 . S
H420 C416 0.930 . S
H421 C418 0.929 . S
S422 N423 1.613 . S
S422 N424 1.610 . S
N423 S422 1.613 . S
N423 C426 1.350 . S
N424 S422 1.610 . S
N424 C425 1.351 . S
C425 C419 1.428 . S
C425 N424 1.351 . S
C425 C426 1.434 . S
C426 C417 1.429 . S
C426 N423 1.350 . S
C426 C425 1.434 . S
C427 C428 1.369 . S
C427 C429 1.419 . S
C427 H431 0.930 . S
C428 C427 1.369 . S
C428 C437 1.429 . S
C429 C427 1.419 . S
C429 C430 1.363 . S
C429 H432 0.929 . S
C430 C429 1.363 . S
C430 C436 1.428 . S
H431 C427 0.930 . S
H432 C429 0.929 . S
S433 N434 1.613 . S
S433 N435 1.610 . S
N434 S433 1.613 . S
N434 C437 1.350 . S
N435 S433 1.610 . S
N435 C436 1.351 . S
C436 C430 1.428 . S
C436 N435 1.351 . S
C436 C437 1.434 . S
C437 C428 1.429 . S
C437 N434 1.350 . S
C437 C436 1.434 . S
C438 C439 1.369 . S
C438 C440 1.419 . S
C438 H442 0.930 . S
C439 C438 1.369 . S
C439 C448 1.429 . S
C440 C438 1.419 . S
C440 C441 1.363 . S
C440 H443 0.929 . S
C441 C440 1.363 . S
C441 C447 1.428 . S
H442 C438 0.930 . S
H443 C440 0.929 . S
S444 N445 1.613 . S
S444 N446 1.610 . S
N445 S444 1.613 . S
N445 C448 1.350 . S
N446 S444 1.610 . S
N446 C447 1.351 . S
C447 C441 1.428 . S
C447 N446 1.351 . S
C447 C448 1.434 . S
C448 C439 1.429 . S
C448 N445 1.350 . S
C448 C447 1.434 . S
C449 C450 1.369 . S
C449 C451 1.419 . S
C449 H453 0.930 . S
C450 C449 1.369 . S
C450 C459 1.429 . S
C451 C449 1.419 . S
C451 C452 1.363 . S
C451 H454 0.929 . S
C452 C451 1.363 . S
C452 C458 1.428 . S
H453 C449 0.930 . S
H454 C451 0.929 . S
S455 N456 1.613 . S
S455 N457 1.610 . S
N456 S455 1.613 . S
N456 C459 1.350 . S
N457 S455 1.610 . S
N457 C458 1.351 . S
C458 C452 1.428 . S
C458 N457 1.351 . S
C458 C459 1.434 . S
C459 C450 1.429 . S
C459 N456 1.350 . S
C459 C458 1.434 . S
C460 C461 1.369 . S
C460 C462 1.419 . S
C460 H464 0.930 . S
C461 C460 1.369 . S
C461 C470 1.429 . S
C462 C460 1.419 . S
C462 C463 1.363 . S
C462 H465 0.929 . S
C463 C462 1.363 . S
C463 C469 1.428 . S
H464 C460 0.930 . S
H465 C462 0.929 . S
S466 N467 1.613 . S
S466 N468 1.610 . S
N467 S466 1.613 . S
N467 C470 1.350 . S
N468 S466 1.610 . S
N468 C469 1.351 . S
C469 C463 1.428 . S
C469 N468 1.351 . S
C469 C470 1.434 . S
C470 C461 1.429 . S
C470 N467 1.350 . S
C470 C469 1.434 . S
C471 C472 1.369 . S
C471 C473 1.419 . S
C471 H475 0.930 . S
C472 C471 1.369 . S
C472 C481 1.429 . S
C473 C471 1.419 . S
C473 C474 1.363 . S
C473 H476 0.929 . S
C474 C473 1.363 . S
C474 C480 1.428 . S
H475 C471 0.930 . S
H476 C473 0.929 . S
S477 N478 1.613 . S
S477 N479 1.610 . S
N478 S477 1.613 . S
N478 C481 1.350 . S
N479 S477 1.610 . S
N479 C480 1.351 . S
C480 C474 1.428 . S
C480 N479 1.351 . S
C480 C481 1.434 . S
C481 C472 1.429 . S
C481 N478 1.350 . S
C481 C480 1.434 . S
C482 C483 1.369 . S
C482 C484 1.419 . S
C482 H486 0.930 . S
C483 C482 1.369 . S
C483 C492 1.429 . S
C484 C482 1.419 . S
C484 C485 1.363 . S
C484 H487 0.929 . S
C485 C484 1.363 . S
C485 C491 1.428 . S
H486 C482 0.930 . S
H487 C484 0.929 . S
S488 N489 1.613 . S
S488 N490 1.610 . S
N489 S488 1.613 . S
N489 C492 1.350 . S
N490 S488 1.610 . S
N490 C491 1.351 . S
C491 C485 1.428 . S
C491 N490 1.351 . S
C491 C492 1.434 . S
C492 C483 1.429 . S
C492 N489 1.350 . S
C492 C491 1.434 . S
C493 C494 1.369 . S
C493 C495 1.419 . S
C493 H497 0.930 . S
C494 C493 1.369 . S
C494 C503 1.429 . S
C495 C493 1.419 . S
C495 C496 1.363 . S
C495 H498 0.929 . S
C496 C495 1.363 . S
C496 C502 1.428 . S
H497 C493 0.930 . S
H498 C495 0.929 . S
S499 N500 1.613 . S
S499 N501 1.610 . S
N500 S499 1.613 . S
N500 C503 1.350 . S
N501 S499 1.610 . S
N501 C502 1.351 . S
C502 C496 1.428 . S
C502 N501 1.351 . S
C502 C503 1.434 . S
C503 C494 1.429 . S
C503 N500 1.350 . S
C503 C502 1.434 . S
C504 C505 1.369 . S
C504 C506 1.419 . S
C504 H508 0.930 . S
C505 C504 1.369 . S
C505 C514 1.429 . S
C506 C504 1.419 . S
C506 C507 1.363 . S
C506 H509 0.929 . S
C507 C506 1.363 . S
C507 C513 1.428 . S
H508 C504 0.930 . S
H509 C506 0.929 . S
S510 N511 1.613 . S
S510 N512 1.610 . S
N511 S510 1.613 . S
N511 C514 1.350 . S
N512 S510 1.610 . S
N512 C513 1.351 . S
C513 C507 1.428 . S
C513 N512 1.351 . S
C513 C514 1.434 . S
C514 C505 1.429 . S
C514 N511 1.350 . S
C514 C513 1.434 . S
C515 C516 1.369 . S
C515 C517 1.419 . S
C515 H519 0.930 . S
C516 C515 1.369 . S
C516 C525 1.429 . S
C517 C515 1.419 . S
C517 C518 1.363 . S
C517 H520 0.929 . S
C518 C517 1.363 . S
C518 C524 1.428 . S
H519 C515 0.930 . S
H520 C517 0.929 . S
S521 N522 1.613 . S
S521 N523 1.610 . S
N522 S521 1.613 . S
N522 C525 1.350 . S
N523 S521 1.610 . S
N523 C524 1.351 . S
C524 C518 1.428 . S
C524 N523 1.351 . S
C524 C525 1.434 . S
C525 C516 1.429 . S
C525 N522 1.350 . S
C525 C524 1.434 . S
C526 C527 1.369 . S
C526 C528 1.419 . S
C526 H530 0.930 . S
C527 C526 1.369 . S
C527 C536 1.429 . S
C528 C526 1.419 . S
C528 C529 1.363 . S
C528 H531 0.929 . S
C529 C528 1.363 . S
C529 C535 1.428 . S
H530 C526 0.930 . S
H531 C528 0.929 . S
S532 N533 1.613 . S
S532 N534 1.610 . S
N533 S532 1.613 . S
N533 C536 1.350 . S
N534 S532 1.610 . S
N534 C535 1.351 . S
C535 C529 1.428 . S
C535 N534 1.351 . S
C535 C536 1.434 . S
C536 C527 1.429 . S
C536 N533 1.350 . S
C536 C535 1.434 . S
C537 C538 1.369 . S
C537 C539 1.419 . S
C537 H541 0.930 . S
C538 C537 1.369 . S
C538 C547 1.429 . S
C539 C537 1.419 . S
C539 C540 1.348 1_556 S
C539 H542 0.929 . S
C540 C539 1.348 1_554 S
C540 C546 1.427 1_554 S
H541 C537 0.930 . S
H542 C539 0.929 . S
S543 N544 1.613 1_554 S
S543 N545 1.610 . S
N544 S543 1.613 1_556 S
N544 C547 1.350 . S
N545 S543 1.610 . S
N545 C546 1.326 1_554 S
C546 C540 1.427 1_556 S
C546 N545 1.326 1_556 S
C546 C547 1.462 . S
C547 C538 1.429 . S
C547 N544 1.350 . S
C547 C546 1.462 . S
C548 C549 1.369 . S
C548 C550 1.419 . S
C548 H552 0.930 . S
C549 C548 1.369 . S
C549 C558 1.429 . S
C550 C548 1.419 . S
C550 C551 1.363 . S
C550 H553 0.929 . S
C551 C550 1.363 . S
C551 C557 1.428 . S
H552 C548 0.930 . S
H553 C550 0.929 . S
S554 N555 1.613 . S
S554 N556 1.610 . S
N555 S554 1.613 . S
N555 C558 1.350 . S
N556 S554 1.610 . S
N556 C557 1.351 . S
C557 C551 1.428 . S
C557 N556 1.351 . S
C557 C558 1.434 . S
C558 C549 1.429 . S
C558 N555 1.350 . S
C558 C557 1.434 . S
C559 C560 1.369 . S
C559 C561 1.419 . S
C559 H563 0.930 . S
C560 C559 1.369 . S
C560 C569 1.429 . S
C561 C559 1.419 . S
C561 C562 1.363 . S
C561 H564 0.929 . S
C562 C561 1.363 . S
C562 C568 1.428 . S
H563 C559 0.930 . S
H564 C561 0.929 . S
S565 N566 1.613 . S
S565 N567 1.610 . S
N566 S565 1.613 . S
N566 C569 1.350 . S
N567 S565 1.610 . S
N567 C568 1.351 . S
C568 C562 1.428 . S
C568 N567 1.351 . S
C568 C569 1.434 . S
C569 C560 1.429 . S
C569 N566 1.350 . S
C569 C568 1.434 . S
C570 C571 1.369 . S
C570 C572 1.419 . S
C570 H574 0.930 . S
C571 C570 1.369 . S
C571 C580 1.429 . S
C572 C570 1.419 . S
C572 C573 1.363 . S
C572 H575 0.929 . S
C573 C572 1.363 . S
C573 C579 1.428 . S
H574 C570 0.930 . S
H575 C572 0.929 . S
S576 N577 1.613 . S
S576 N578 1.610 . S
N577 S576 1.613 . S
N577 C580 1.350 . S
N578 S576 1.610 . S
N578 C579 1.351 . S
C579 C573 1.428 . S
C579 N578 1.351 . S
C579 C580 1.434 . S
C580 C571 1.429 . S
C580 N577 1.350 . S
C580 C579 1.434 . S
C581 C582 1.369 . S
C581 C583 1.419 . S
C581 H585 0.930 . S
C582 C581 1.369 . S
C582 C591 1.429 . S
C583 C581 1.419 . S
C583 C584 1.363 . S
C583 H586 0.929 . S
C584 C583 1.363 . S
C584 C590 1.428 . S
H585 C581 0.930 . S
H586 C583 0.929 . S
S587 N588 1.613 . S
S587 N589 1.610 . S
N588 S587 1.613 . S
N588 C591 1.350 . S
N589 S587 1.610 . S
N589 C590 1.351 . S
C590 C584 1.428 . S
C590 N589 1.351 . S
C590 C591 1.434 . S
C591 C582 1.429 . S
C591 N588 1.350 . S
C591 C590 1.434 . S
C592 C593 1.369 . S
C592 C594 1.419 . S
C592 H596 0.930 . S
C593 C592 1.369 . S
C593 C602 1.429 . S
C594 C592 1.419 . S
C594 C595 1.363 . S
C594 H597 0.929 . S
C595 C594 1.363 . S
C595 C601 1.428 . S
H596 C592 0.930 . S
H597 C594 0.929 . S
S598 N599 1.613 . S
S598 N600 1.610 . S
N599 S598 1.613 . S
N599 C602 1.350 . S
N600 S598 1.610 . S
N600 C601 1.351 . S
C601 C595 1.428 . S
C601 N600 1.351 . S
C601 C602 1.434 . S
C602 C593 1.429 . S
C602 N599 1.350 . S
C602 C601 1.434 . S
C603 C604 1.369 . S
C603 C605 1.419 . S
C603 H607 0.930 . S
C604 C603 1.369 . S
C604 C613 1.429 . S
C605 C603 1.419 . S
C605 C606 1.363 . S
C605 H608 0.929 . S
C606 C605 1.363 . S
C606 C612 1.428 . S
H607 C603 0.930 . S
H608 C605 0.929 . S
S609 N610 1.613 . S
S609 N611 1.610 . S
N610 S609 1.613 . S
N610 C613 1.350 . S
N611 S609 1.610 . S
N611 C612 1.351 . S
C612 C606 1.428 . S
C612 N611 1.351 . S
C612 C613 1.434 . S
C613 C604 1.429 . S
C613 N610 1.350 . S
C613 C612 1.434 . S
C614 C615 1.369 . S
C614 C616 1.419 1_554 S
C614 H618 0.930 . S
C615 C614 1.369 . S
C615 C624 1.429 . S
C616 C614 1.419 1_556 S
C616 C617 1.363 . S
C616 H619 0.929 . S
C617 C616 1.363 . S
C617 C623 1.428 1_556 S
H618 C614 0.930 . S
H619 C616 0.929 . S
S620 N621 1.613 . S
S620 N622 1.610 . S
N621 S620 1.613 . S
N621 C624 1.350 . S
N622 S620 1.610 . S
N622 C623 1.351 . S
C623 C617 1.428 1_554 S
C623 N622 1.351 . S
C623 C624 1.434 . S
C624 C615 1.429 . S
C624 N621 1.350 . S
C624 C623 1.434 . S
C625 C626 1.369 . S
C625 C627 1.419 . S
C625 H629 0.930 . S
C626 C625 1.369 . S
C626 C635 1.429 . S
C627 C625 1.419 . S
C627 C628 1.363 . S
C627 H630 0.929 . S
C628 C627 1.363 . S
C628 C634 1.428 . S
H629 C625 0.930 . S
H630 C627 0.929 . S
S631 N632 1.613 . S
S631 N633 1.610 . S
N632 S631 1.613 . S
N632 C635 1.350 . S
N633 S631 1.610 . S
N633 C634 1.351 . S
C634 C628 1.428 . S
C634 N633 1.351 . S
C634 C635 1.434 . S
C635 C626 1.429 . S
C635 N632 1.350 . S
C635 C634 1.434 . S
C375 C361 1.623 . S
C373 C45 1.626 . S
C384 C84 1.612 . S
C386 C291 1.614 . S
C395 C126 1.589 . S
C397 C310 1.644 . S
C406 C189 1.629 . S
C408 C319 1.620 . S
C419 C333 1.615 . S
C417 C228 1.609 . S
C428 C270 1.592 . S
C430 C352 1.644 . S
C439 C69 1.574 . S
C441 C305 1.596 . S
C450 C141 1.626 . S
C452 C324 1.623 . S
C461 C174 1.575 . S
C463 C338 1.617 . S
C474 C347 1.597 . S
C472 C213 1.574 . S
C485 C366 1.624 . S
C483 C285 1.626 . S
C496 C296 1.618 . S
C494 C30 1.569 . S
C505 C36 1.504 . S
C507 C311 1.489 . S
C516 C93 1.507 . S
C518 C323 1.490 . S
C529 C337 1.478 . S
C527 C117 1.504 . S
C538 C180 1.505 . S
C540 C353 1.507 . S
C551 C365 1.491 . S
C549 C237 1.508 . S
C562 C295 1.478 . S
C560 C261 1.502 . S
C573 C367 1.495 . S
C571 C78 1.501 . S
C582 C132 1.512 . S
C584 C297 1.502 . S
C595 C309 1.490 . S
C593 C165 1.509 . S
C604 C222 1.499 . S
C606 C325 1.497 . S
C615 C276 1.512 . S
C617 C339 1.505 . S
C626 C21 1.509 . S
C628 C351 1.489 . S
