# Generated by pormake.
# Topology llk, (3,12)-cn, num edge types: 1
# Building blocks:
#     Node 0, Type 0, BuildingBlock: BETDAH_clean_linker_0, # of connection points: 3
#     Node 1, Type 0, BuildingBlock: BETDAH_clean_linker_0, # of connection points: 3
#     Node 2, Type 0, BuildingBlock: BETDAH_clean_linker_0, # of connection points: 3
#     Node 3, Type 0, BuildingBlock: BETDAH_clean_linker_0, # of connection points: 3
#     Node 4, Type 0, BuildingBlock: BETDAH_clean_linker_0, # of connection points: 3
#     Node 5, Type 0, BuildingBlock: BETDAH_clean_linker_0, # of connection points: 3
#     Node 6, Type 0, BuildingBlock: BETDAH_clean_linker_0, # of connection points: 3
#     Node 7, Type 0, BuildingBlock: BETDAH_clean_linker_0, # of connection points: 3
#     Node 8, Type 0, BuildingBlock: BETDAH_clean_linker_0, # of connection points: 3
#     Node 9, Type 0, BuildingBlock: BETDAH_clean_linker_0, # of connection points: 3
#     Node 10, Type 0, BuildingBlock: BETDAH_clean_linker_0, # of connection points: 3
#     Node 11, Type 0, BuildingBlock: BETDAH_clean_linker_0, # of connection points: 3
#     Node 12, Type 0, BuildingBlock: BETDAH_clean_linker_0, # of connection points: 3
#     Node 13, Type 0, BuildingBlock: BETDAH_clean_linker_0, # of connection points: 3
#     Node 14, Type 0, BuildingBlock: BETDAH_clean_linker_0, # of connection points: 3
#     Node 15, Type 0, BuildingBlock: BETDAH_clean_linker_0, # of connection points: 3
#     Node 16, Type 0, BuildingBlock: BETDAH_clean_linker_0, # of connection points: 3
#     Node 17, Type 0, BuildingBlock: BETDAH_clean_linker_0, # of connection points: 3
#     Node 18, Type 0, BuildingBlock: BETDAH_clean_linker_0, # of connection points: 3
#     Node 19, Type 0, BuildingBlock: BETDAH_clean_linker_0, # of connection points: 3
#     Node 20, Type 0, BuildingBlock: BETDAH_clean_linker_0, # of connection points: 3
#     Node 21, Type 0, BuildingBlock: BETDAH_clean_linker_0, # of connection points: 3
#     Node 22, Type 0, BuildingBlock: BETDAH_clean_linker_0, # of connection points: 3
#     Node 23, Type 0, BuildingBlock: BETDAH_clean_linker_0, # of connection points: 3
#     Node 24, Type 1, BuildingBlock: QEWDON_clean_sbu_0, # of connection points: 12
#     Node 25, Type 1, BuildingBlock: QEWDON_clean_sbu_0, # of connection points: 12
#     Node 26, Type 1, BuildingBlock: QEWDON_clean_sbu_0, # of connection points: 12
#     Node 27, Type 1, BuildingBlock: QEWDON_clean_sbu_0, # of connection points: 12
#     Node 28, Type 1, BuildingBlock: QEWDON_clean_sbu_0, # of connection points: 12
#     Node 29, Type 1, BuildingBlock: QEWDON_clean_sbu_0, # of connection points: 12
#     Edge 30, Type (0, 1), BuildingBlock: AJUNOK_clean_linker_0, # of connection points: 2
#     Edge 31, Type (0, 1), BuildingBlock: AJUNOK_clean_linker_0, # of connection points: 2
#     Edge 32, Type (0, 1), BuildingBlock: AJUNOK_clean_linker_0, # of connection points: 2
#     Edge 33, Type (0, 1), BuildingBlock: AJUNOK_clean_linker_0, # of connection points: 2
#     Edge 34, Type (0, 1), BuildingBlock: AJUNOK_clean_linker_0, # of connection points: 2
#     Edge 35, Type (0, 1), BuildingBlock: AJUNOK_clean_linker_0, # of connection points: 2
#     Edge 36, Type (0, 1), BuildingBlock: AJUNOK_clean_linker_0, # of connection points: 2
#     Edge 37, Type (0, 1), BuildingBlock: AJUNOK_clean_linker_0, # of connection points: 2
#     Edge 38, Type (0, 1), BuildingBlock: AJUNOK_clean_linker_0, # of connection points: 2
#     Edge 39, Type (0, 1), BuildingBlock: AJUNOK_clean_linker_0, # of connection points: 2
#     Edge 40, Type (0, 1), BuildingBlock: AJUNOK_clean_linker_0, # of connection points: 2
#     Edge 41, Type (0, 1), BuildingBlock: AJUNOK_clean_linker_0, # of connection points: 2
#     Edge 42, Type (0, 1), BuildingBlock: AJUNOK_clean_linker_0, # of connection points: 2
#     Edge 43, Type (0, 1), BuildingBlock: AJUNOK_clean_linker_0, # of connection points: 2
#     Edge 44, Type (0, 1), BuildingBlock: AJUNOK_clean_linker_0, # of connection points: 2
#     Edge 45, Type (0, 1), BuildingBlock: AJUNOK_clean_linker_0, # of connection points: 2
#     Edge 46, Type (0, 1), BuildingBlock: AJUNOK_clean_linker_0, # of connection points: 2
#     Edge 47, Type (0, 1), BuildingBlock: AJUNOK_clean_linker_0, # of connection points: 2
#     Edge 48, Type (0, 1), BuildingBlock: AJUNOK_clean_linker_0, # of connection points: 2
#     Edge 49, Type (0, 1), BuildingBlock: AJUNOK_clean_linker_0, # of connection points: 2
#     Edge 50, Type (0, 1), BuildingBlock: AJUNOK_clean_linker_0, # of connection points: 2
#     Edge 51, Type (0, 1), BuildingBlock: AJUNOK_clean_linker_0, # of connection points: 2
#     Edge 52, Type (0, 1), BuildingBlock: AJUNOK_clean_linker_0, # of connection points: 2
#     Edge 53, Type (0, 1), BuildingBlock: AJUNOK_clean_linker_0, # of connection points: 2
#     Edge 54, Type (0, 1), BuildingBlock: AJUNOK_clean_linker_0, # of connection points: 2
#     Edge 55, Type (0, 1), BuildingBlock: AJUNOK_clean_linker_0, # of connection points: 2
#     Edge 56, Type (0, 1), BuildingBlock: AJUNOK_clean_linker_0, # of connection points: 2
#     Edge 57, Type (0, 1), BuildingBlock: AJUNOK_clean_linker_0, # of connection points: 2
#     Edge 58, Type (0, 1), BuildingBlock: AJUNOK_clean_linker_0, # of connection points: 2
#     Edge 59, Type (0, 1), BuildingBlock: AJUNOK_clean_linker_0, # of connection points: 2
#     Edge 60, Type (0, 1), BuildingBlock: AJUNOK_clean_linker_0, # of connection points: 2
#     Edge 61, Type (0, 1), BuildingBlock: AJUNOK_clean_linker_0, # of connection points: 2
#     Edge 62, Type (0, 1), BuildingBlock: AJUNOK_clean_linker_0, # of connection points: 2
#     Edge 63, Type (0, 1), BuildingBlock: AJUNOK_clean_linker_0, # of connection points: 2
#     Edge 64, Type (0, 1), BuildingBlock: AJUNOK_clean_linker_0, # of connection points: 2
#     Edge 65, Type (0, 1), BuildingBlock: AJUNOK_clean_linker_0, # of connection points: 2
#     Edge 66, Type (0, 1), BuildingBlock: AJUNOK_clean_linker_0, # of connection points: 2
#     Edge 67, Type (0, 1), BuildingBlock: AJUNOK_clean_linker_0, # of connection points: 2
#     Edge 68, Type (0, 1), BuildingBlock: AJUNOK_clean_linker_0, # of connection points: 2
#     Edge 69, Type (0, 1), BuildingBlock: AJUNOK_clean_linker_0, # of connection points: 2
#     Edge 70, Type (0, 1), BuildingBlock: AJUNOK_clean_linker_0, # of connection points: 2
#     Edge 71, Type (0, 1), BuildingBlock: AJUNOK_clean_linker_0, # of connection points: 2
#     Edge 72, Type (0, 1), BuildingBlock: AJUNOK_clean_linker_0, # of connection points: 2
#     Edge 73, Type (0, 1), BuildingBlock: AJUNOK_clean_linker_0, # of connection points: 2
#     Edge 74, Type (0, 1), BuildingBlock: AJUNOK_clean_linker_0, # of connection points: 2
#     Edge 75, Type (0, 1), BuildingBlock: AJUNOK_clean_linker_0, # of connection points: 2
#     Edge 76, Type (0, 1), BuildingBlock: AJUNOK_clean_linker_0, # of connection points: 2
#     Edge 77, Type (0, 1), BuildingBlock: AJUNOK_clean_linker_0, # of connection points: 2
#     Edge 78, Type (0, 1), BuildingBlock: AJUNOK_clean_linker_0, # of connection points: 2
#     Edge 79, Type (0, 1), BuildingBlock: AJUNOK_clean_linker_0, # of connection points: 2
#     Edge 80, Type (0, 1), BuildingBlock: AJUNOK_clean_linker_0, # of connection points: 2
#     Edge 81, Type (0, 1), BuildingBlock: AJUNOK_clean_linker_0, # of connection points: 2
#     Edge 82, Type (0, 1), BuildingBlock: AJUNOK_clean_linker_0, # of connection points: 2
#     Edge 83, Type (0, 1), BuildingBlock: AJUNOK_clean_linker_0, # of connection points: 2
#     Edge 84, Type (0, 1), BuildingBlock: AJUNOK_clean_linker_0, # of connection points: 2
#     Edge 85, Type (0, 1), BuildingBlock: AJUNOK_clean_linker_0, # of connection points: 2
#     Edge 86, Type (0, 1), BuildingBlock: AJUNOK_clean_linker_0, # of connection points: 2
#     Edge 87, Type (0, 1), BuildingBlock: AJUNOK_clean_linker_0, # of connection points: 2
#     Edge 88, Type (0, 1), BuildingBlock: AJUNOK_clean_linker_0, # of connection points: 2
#     Edge 89, Type (0, 1), BuildingBlock: AJUNOK_clean_linker_0, # of connection points: 2
#     Edge 90, Type (0, 1), BuildingBlock: AJUNOK_clean_linker_0, # of connection points: 2
#     Edge 91, Type (0, 1), BuildingBlock: AJUNOK_clean_linker_0, # of connection points: 2
#     Edge 92, Type (0, 1), BuildingBlock: AJUNOK_clean_linker_0, # of connection points: 2
#     Edge 93, Type (0, 1), BuildingBlock: AJUNOK_clean_linker_0, # of connection points: 2
#     Edge 94, Type (0, 1), BuildingBlock: AJUNOK_clean_linker_0, # of connection points: 2
#     Edge 95, Type (0, 1), BuildingBlock: AJUNOK_clean_linker_0, # of connection points: 2
#     Edge 96, Type (0, 1), BuildingBlock: AJUNOK_clean_linker_0, # of connection points: 2
#     Edge 97, Type (0, 1), BuildingBlock: AJUNOK_clean_linker_0, # of connection points: 2
#     Edge 98, Type (0, 1), BuildingBlock: AJUNOK_clean_linker_0, # of connection points: 2
#     Edge 99, Type (0, 1), BuildingBlock: AJUNOK_clean_linker_0, # of connection points: 2
#     Edge 100, Type (0, 1), BuildingBlock: AJUNOK_clean_linker_0, # of connection points: 2
#     Edge 101, Type (0, 1), BuildingBlock: AJUNOK_clean_linker_0, # of connection points: 2
# Relax obj value: 0.096
# Max RMSD: 0.166
# Mean RMSD: 0.132
data_MOF--net-llk--node1-QEWDON_clean_sbu_0--node2-BETDAH_clean_linker_0--edge1-AJUNOK_clean_linker_0
_symmetry_space_group_name_H-M    P1
_symmetry_Int_Tables_number       1
_symmetry_cell_setting            triclinic
loop_
_symmetry_equiv_pos_as_xyz
'x, y, z'
_cell_length_a     35.430819
_cell_length_b     36.607534
_cell_length_c     36.579369
_cell_angle_alpha  90.147696
_cell_angle_beta   89.866155
_cell_angle_gamma 89.750706
loop_
_atom_site_label
_atom_site_type_symbol
_atom_site_fract_x
_atom_site_fract_y
_atom_site_fract_z
_atom_type_partial_charge
H0 H 0.03014 0.25717 0.39249 0.0
H1 H 0.04902 0.32158 0.296 0.0
H2 H 0.05766 0.20479 0.29035 0.0
C3 C 0.03782 0.25905 0.36386 0.0
C4 C 0.04303 0.2268 0.34345 0.0
C5 C 0.04036 0.29359 0.34713 0.0
C6 C 0.04903 0.29539 0.30962 0.0
C7 C 0.05594 0.26343 0.28921 0.0
C8 C 0.05305 0.22939 0.30634 0.0
N9 N 0.06433 0.26453 0.25117 0.0
C10 C 0.06842 0.29674 0.23145 0.0
H11 H 0.65067 0.06976 0.2136 0.0
H12 H 0.73231 0.12051 0.28299 0.0
H13 H 0.75755 0.10326 0.16896 0.0
C14 C 0.67796 0.08269 0.21702 0.0
C15 C 0.70255 0.0855 0.18731 0.0
C16 C 0.68854 0.09552 0.25132 0.0
C17 C 0.72384 0.11166 0.25594 0.0
C18 C 0.74911 0.11429 0.22638 0.0
C19 C 0.73795 0.10205 0.19171 0.0
N20 N 0.78697 0.12517 0.23229 0.0
C21 C 0.80427 0.11637 0.26514 0.0
H22 H 0.00617 0.6531 0.25921 0.0
H23 H 0.02595 0.74757 0.32606 0.0
H24 H 0.03752 0.75468 0.20897 0.0
C25 C 0.01299 0.68188 0.26137 0.0
C26 C 0.0204 0.70205 0.22971 0.0
C27 C 0.01498 0.69809 0.29602 0.0
C28 C 0.02472 0.73505 0.29924 0.0
C29 C 0.03274 0.75564 0.26771 0.0
C30 C 0.03113 0.73883 0.23317 0.0
N31 N 0.04266 0.79314 0.26976 0.0
C32 C 0.03111 0.81635 0.29786 0.0
H33 H 0.22169 0.99714 0.32838 0.0
H34 H 0.30218 0.9602 0.24811 0.0
H35 H 0.18312 0.94772 0.22869 0.0
C36 C 0.22794 0.98577 0.30161 0.0
C37 C 0.19816 0.97428 0.27927 0.0
C38 C 0.26554 0.98062 0.29085 0.0
C39 C 0.27321 0.96458 0.25659 0.0
C40 C 0.24345 0.9529 0.23397 0.0
C41 C 0.20603 0.95717 0.24581 0.0
N42 N 0.25033 0.93568 0.1998 0.0
C43 C 0.28023 0.94498 0.17706 0.0
H44 H 0.97135 0.75902 0.64024 0.0
H45 H -0.00332 0.6915 0.73316 0.0
H46 H 0.00744 0.80775 0.74137 0.0
C47 C 0.97928 0.75635 0.66872 0.0
C48 C 0.98883 0.78779 0.68867 0.0
C49 C 0.98249 0.72135 0.68419 0.0
C50 C -0.00747 0.71824 0.72127 0.0
C51 C 0.00027 0.74955 0.7423 0.0
C52 C -0.00105 0.78404 0.72567 0.0
N53 N 0.01186 0.74714 0.77946 0.0
C54 C 0.01121 0.71516 0.80004 0.0
H55 H 0.28353 0.01079 0.68603 0.0
H56 H 0.3188 0.9803 0.79337 0.0
H57 H 0.2015 0.97083 0.76275 0.0
C58 C 0.27647 0.00141 0.71333 0.0
C59 C 0.23936 0.99173 0.72143 0.0
C60 C 0.305 0.99692 0.73921 0.0
C61 C 0.29614 0.98382 0.77396 0.0
C62 C 0.2585 0.97493 0.78306 0.0
C63 C 0.23033 0.97826 0.75631 0.0
N64 N 0.24862 0.96277 0.81872 0.0
C65 C 0.274 0.96563 0.84744 0.0
H66 H 0.04165 0.35621 0.74928 0.0
H67 H 0.00387 0.2685 0.68061 0.0
H68 H 0.97678 0.2685 0.79537 0.0
C69 C 0.02778 0.33003 0.74623 0.0
C70 C 0.00998 0.31415 0.77648 0.0
C71 C 0.02559 0.31367 0.7116 0.0
C72 C 0.00593 0.28079 0.70751 0.0
C73 C 0.98854 0.26423 0.73788 0.0
C74 C 0.99046 0.28115 0.77212 0.0
N75 N 0.9688 0.23076 0.73461 0.0
C76 C 0.97585 0.20691 0.70591 0.0
H77 H 0.80472 0.06698 0.69826 0.0
H78 H 0.71927 0.10523 0.77254 0.0
H79 H 0.83459 0.09421 0.80881 0.0
C80 C 0.79658 0.07682 0.72519 0.0
C81 C 0.82379 0.07932 0.7527 0.0
C82 C 0.75905 0.08641 0.73195 0.0
C83 C 0.74854 0.09854 0.76694 0.0
C84 C 0.77574 0.10135 0.79487 0.0
C85 C 0.81361 0.0924 0.78739 0.0
N86 N 0.76531 0.11174 0.83088 0.0
C87 C 0.73112 0.10117 0.84618 0.0
H88 H 0.35237 0.28252 0.02668 0.0
H89 H 0.24996 0.33946 0.05349 0.0
H90 H 0.25085 0.22172 0.04632 0.0
C91 C 0.32246 0.28193 0.03316 0.0
C92 C 0.30385 0.24847 0.0352 0.0
C93 C 0.30324 0.31461 0.03984 0.0
C94 C 0.26475 0.31394 0.0486 0.0
C95 C 0.24553 0.28031 0.05071 0.0
C96 C 0.2655 0.2476 0.04484 0.0
N97 N 0.20606 0.27885 0.05729 0.0
C98 C 0.18255 0.30792 0.04838 0.0
H99 H 0.31099 0.77353 0.99594 0.0
H100 H 0.21926 0.71615 0.04589 0.0
H101 H 0.21423 0.83334 0.0352 0.0
C102 C 0.28297 0.77378 0.00797 0.0
C103 C 0.26408 0.80717 0.01292 0.0
C104 C 0.26722 0.741 0.02037 0.0
C105 C 0.2315 0.74158 0.03679 0.0
C106 C 0.21199 0.77483 0.04195 0.0
C107 C 0.22883 0.80764 0.03069 0.0
N108 N 0.17552 0.77567 0.05825 0.0
C109 C 0.15234 0.74511 0.05799 0.0
H110 H 0.81688 0.3588 0.00556 0.0
H111 H 0.75595 0.27579 0.94739 0.0
H112 H 0.87739 0.27166 0.95218 0.0
C113 C 0.81664 0.33425 0.9889 0.0
C114 C 0.85087 0.31709 0.98006 0.0
C115 C 0.7823 0.31997 0.9767 0.0
C116 C 0.78245 0.28714 0.95668 0.0
C117 C 0.81668 0.26932 0.94803 0.0
C118 C 0.85093 0.28504 0.95896 0.0
N119 N 0.8172 0.23538 0.92904 0.0
C120 C 0.78661 0.21168 0.92976 0.0
H121 H 0.78046 0.66489 0.97516 0.0
H122 H 0.73233 0.76956 0.95186 0.0
H123 H 0.85347 0.75672 0.95645 0.0
C124 C 0.78421 0.69349 0.96838 0.0
C125 C 0.82061 0.70809 0.96581 0.0
C126 C 0.75259 0.71583 0.96356 0.0
C127 C 0.75726 0.75278 0.95556 0.0
C128 C 0.7938 0.76778 0.95273 0.0
C129 C 0.82536 0.74525 0.95801 0.0
N130 N 0.79927 0.80548 0.94564 0.0
C131 C 0.76933 0.82989 0.94731 0.0
H132 H 0.53863 0.77608 0.85881 0.0
H133 H 0.56579 0.82535 0.7559 0.0
H134 H 0.55514 0.7083 0.76394 0.0
C135 C 0.54607 0.77329 0.83015 0.0
C136 C 0.54678 0.73846 0.81417 0.0
C137 C 0.55268 0.80471 0.80936 0.0
C138 C 0.56057 0.80105 0.77191 0.0
C139 C 0.56136 0.76618 0.75532 0.0
C140 C 0.55453 0.73507 0.77666 0.0
N141 N 0.56821 0.7616 0.71727 0.0
C142 C 0.57294 0.79078 0.6935 0.0
H143 H 0.20774 0.57712 0.72918 0.0
H144 H 0.29689 0.57748 0.80799 0.0
H145 H 0.32311 0.57915 0.69277 0.0
C146 C 0.23759 0.57899 0.73547 0.0
C147 C 0.2639 0.57934 0.70687 0.0
C148 C 0.24928 0.57826 0.77189 0.0
C149 C 0.28804 0.57837 0.77978 0.0
C150 C 0.31501 0.57928 0.75136 0.0
C151 C 0.30264 0.57952 0.71483 0.0
N152 N 0.35448 0.57909 0.75862 0.0
C153 C 0.36983 0.57252 0.79305 0.0
H154 H 0.44202 0.14429 0.74467 0.0
H155 H 0.4423 0.23442 0.81994 0.0
H156 H 0.43497 0.2544 0.70436 0.0
C157 C 0.43966 0.17341 0.74967 0.0
C158 C 0.43895 0.19751 0.7199 0.0
C159 C 0.44217 0.18646 0.78571 0.0
C160 C 0.43978 0.22423 0.79224 0.0
C161 C 0.4365 0.24888 0.76297 0.0
C162 C 0.43588 0.23531 0.72692 0.0
N163 N 0.43637 0.2874 0.76872 0.0
C164 C 0.44716 0.30439 0.80127 0.0
H165 H 0.70477 0.47056 0.88438 0.0
H166 H 0.78879 0.47161 0.7998 0.0
H167 H 0.67103 0.47162 0.77133 0.0
C168 C 0.71195 0.46967 0.85556 0.0
C169 C 0.68326 0.46988 0.8291 0.0
C170 C 0.74994 0.47024 0.84506 0.0
C171 C 0.75934 0.47062 0.80778 0.0
C172 C 0.73088 0.47115 0.78106 0.0
C173 C 0.69297 0.47045 0.7919 0.0
N174 N 0.73938 0.47389 0.74325 0.0
C175 C 0.77519 0.4815 0.72976 0.0
H176 H 0.5114 0.27556 0.15623 0.0
H177 H 0.51928 0.21218 0.25463 0.0
H178 H 0.51089 0.3297 0.26058 0.0
C179 C 0.51107 0.27423 0.18587 0.0
C180 C 0.50952 0.30667 0.20619 0.0
C181 C 0.51504 0.24026 0.20306 0.0
C182 C 0.51609 0.23846 0.24142 0.0
C183 C 0.51384 0.27076 0.26244 0.0
C184 C 0.51138 0.30476 0.24455 0.0
N185 N 0.51515 0.27029 0.30136 0.0
C186 C 0.51077 0.23924 0.323 0.0
H187 H 0.77133 0.49798 0.15962 0.0
H188 H 0.79646 0.48628 0.27351 0.0
H189 H 0.68153 0.47666 0.23578 0.0
C190 C 0.76175 0.49292 0.18734 0.0
C191 C 0.7232 0.48806 0.19422 0.0
C192 C 0.78801 0.49326 0.21581 0.0
C193 C 0.77598 0.48596 0.25158 0.0
C194 C 0.7374 0.47921 0.25881 0.0
C195 C 0.7113 0.48019 0.22996 0.0
N196 N 0.72376 0.4731 0.29486 0.0
C197 C 0.74573 0.47866 0.32576 0.0
H198 H 0.53307 0.87986 0.24276 0.0
H199 H 0.56386 0.79381 0.16874 0.0
H200 H 0.57602 0.77826 0.28505 0.0
C201 C 0.54465 0.85272 0.23826 0.0
C202 C 0.55517 0.83119 0.26818 0.0
C203 C 0.54759 0.83922 0.20262 0.0
C204 C 0.56163 0.80391 0.19651 0.0
C205 C 0.57186 0.78157 0.22618 0.0
C206 C 0.56865 0.79544 0.26205 0.0
N207 N 0.58456 0.745 0.22071 0.0
C208 C 0.57834 0.72535 0.18856 0.0
H209 H 0.32333 0.5747 0.16097 0.0
H210 H 0.23803 0.58144 0.24321 0.0
H211 H 0.35434 0.60298 0.27121 0.0
C212 C 0.31537 0.58105 0.18898 0.0
C213 C 0.34305 0.59013 0.21462 0.0
C214 C 0.27795 0.57739 0.19956 0.0
C215 C 0.26745 0.58429 0.2357 0.0
C216 C 0.2948 0.59429 0.26178 0.0
C217 C 0.33286 0.59676 0.25113 0.0
N218 N 0.28473 0.60068 0.29884 0.0
C219 C 0.24871 0.59328 0.31188 0.0
H220 H 0.87549 0.77073 0.51173 0.0
H221 H 0.78008 0.8361 0.48098 0.0
H222 H 0.77318 0.71864 0.47651 0.0
C223 C 0.84674 0.77263 0.50173 0.0
C224 C 0.82659 0.74066 0.49434 0.0
C225 C 0.83016 0.807 0.49677 0.0
C226 C 0.79288 0.80943 0.48418 0.0
C227 C 0.77199 0.77759 0.47692 0.0
C228 C 0.78927 0.74325 0.48153 0.0
N229 N 0.73338 0.77925 0.46629 0.0
C230 C 0.71216 0.81141 0.46591 0.0
H231 H 0.85759 0.25196 0.49775 0.0
H232 H 0.74819 0.20646 0.52002 0.0
H233 H 0.7663 0.32188 0.53178 0.0
C234 C 0.82809 0.25554 0.50488 0.0
C235 C 0.81457 0.29059 0.51335 0.0
C236 C 0.80461 0.22488 0.50804 0.0
C237 C 0.76648 0.22996 0.51783 0.0
C238 C 0.75266 0.26505 0.52666 0.0
C239 C 0.77677 0.29507 0.52405 0.0
N240 N 0.71555 0.27092 0.54037 0.0
C241 C 0.68843 0.24374 0.54272 0.0
H242 H 0.24959 0.85712 0.5282 0.0
H243 H 0.18538 0.75808 0.53182 0.0
H244 H 0.29923 0.75923 0.57256 0.0
C245 C 0.24769 0.82839 0.53509 0.0
C246 C 0.27863 0.81068 0.55128 0.0
C247 C 0.21419 0.80944 0.52782 0.0
C248 C 0.21152 0.77239 0.537 0.0
C249 C 0.24211 0.75422 0.5535 0.0
C250 C 0.27552 0.77348 0.56042 0.0
N251 N 0.24007 0.71681 0.56362 0.0
C252 C 0.21007 0.69416 0.55447 0.0
H253 H 0.25474 0.14406 0.49542 0.0
H254 H 0.19545 0.24643 0.48861 0.0
H255 H 0.3164 0.24314 0.47644 0.0
C256 C 0.25522 0.17345 0.49176 0.0
C257 C 0.2897 0.19107 0.48583 0.0
C258 C 0.22127 0.19321 0.49297 0.0
C259 C 0.22177 0.23127 0.48805 0.0
C260 C 0.25632 0.2494 0.48253 0.0
C261 C 0.28996 0.2291 0.48113 0.0
N262 N 0.25863 0.28789 0.47839 0.0
C263 C 0.22811 0.31186 0.47986 0.0
Zn264 Zn 0.91782 0.9879 0.41407 0.0
Zn265 Zn 0.92162 0.06806 0.45132 0.0
O266 O 0.94702 0.01887 0.44954 0.0
H267 H 0.96822 0.01082 0.46404 0.0
C268 C 0.91199 0.93616 0.54306 0.0
O269 O 0.91382 0.96561 0.52276 0.0
Zn270 Zn 0.07952 0.05847 0.56231 0.0
Zn271 Zn 0.06335 0.97216 0.56615 0.0
O272 O 0.03728 0.02151 0.56763 0.0
H273 H 0.01709 0.02388 0.58523 0.0
Zn274 Zn 0.95092 0.98487 0.59238 0.0
O275 O 0.95244 0.02457 0.55375 0.0
Zn276 Zn 0.95374 0.07117 0.58092 0.0
H277 H 0.963 0.02138 0.52958 0.0
Zn278 Zn 0.05041 0.96002 0.44763 0.0
O279 O 0.04707 0.00896 0.47349 0.0
H280 H 0.03497 0.01255 0.49689 0.0
Zn281 Zn 0.05263 0.04738 0.43545 0.0
C282 C 0.09502 0.89395 0.45896 0.0
O283 O 0.08784 0.89004 0.42396 0.0
O284 O 0.87939 0.02012 0.38692 0.0
O285 O 0.87276 0.06922 0.42272 0.0
O286 O 0.11277 0.97748 0.59384 0.0
O287 O 0.1242 0.03708 0.59076 0.0
O288 O 0.93761 0.00371 0.64439 0.0
O289 O 0.94076 0.06331 0.63403 0.0
C290 C 0.98717 0.09994 0.41899 0.0
O291 O 0.06688 0.96516 0.39384 0.0
O292 O 0.06939 0.02541 0.38721 0.0
O293 O 0.03431 0.92605 0.58412 0.0
C294 C 0.86354 0.05056 0.39455 0.0
O295 O 0.94675 0.94847 0.38347 0.0
C296 C 0.02926 0.11078 0.59203 0.0
O297 O 0.92636 0.93681 0.57489 0.0
C298 C 0.1327 0.00507 0.60216 0.0
O299 O 0.08097 0.92113 0.47592 0.0
C300 C 0.90304 0.10299 0.52691 0.0
O301 O 0.95225 0.10501 0.4242 0.0
O302 O 0.00224 0.07155 0.43253 0.0
C303 C 0.93497 0.03662 0.65562 0.0
O304 O 0.06435 0.10561 0.58725 0.0
O305 O 0.00711 0.0886 0.57636 0.0
C306 C 0.10033 0.08954 0.48364 0.0
O307 O 0.91388 0.10401 0.55996 0.0
O308 O 0.92047 0.08219 0.50467 0.0
C309 C 0.07399 0.99317 0.37447 0.0
O310 O 0.0909 0.08428 0.45059 0.0
O311 O 0.08611 0.06865 0.50789 0.0
C312 C 0.01978 0.92617 0.61598 0.0
O313 O 0.02069 0.95651 0.63522 0.0
C314 C 0.96648 0.92285 0.39721 0.0
O315 O 0.96936 0.92058 0.43293 0.0
Zn316 Zn 0.43778 0.05464 0.04205 0.0
Zn317 Zn 0.44525 0.07559 0.95559 0.0
O318 O 0.45911 0.03792 0.99322 0.0
H319 H 0.47812 0.01917 0.99015 0.0
C320 C 0.54806 0.13682 0.08859 0.0
O321 O 0.52141 0.12282 0.06802 0.0
Zn322 Zn 0.57372 0.96114 0.93646 0.0
Zn323 Zn 0.59179 0.96299 0.02298 0.0
O324 O 0.56437 0.98936 0.98267 0.0
H325 H 0.54574 0.00841 0.98614 0.0
Zn326 Zn 0.59538 0.11461 0.02583 0.0
O327 O 0.55302 0.0989 0.99252 0.0
Zn328 Zn 0.57752 0.09478 0.9435 0.0
H329 H 0.53068 0.08595 0.00023 0.0
Zn330 Zn 0.43935 0.9527 0.02728 0.0
O331 O 0.4755 0.94457 0.98509 0.0
H332 H 0.49884 0.93093 0.98662 0.0
Zn333 Zn 0.4412 0.94639 0.94232 0.0
C334 C 0.49408 0.92725 0.08152 0.0
O335 O 0.51823 0.93776 0.0564 0.0
O336 O 0.40765 0.1024 0.03783 0.0
O337 O 0.41549 0.11669 0.97927 0.0
O338 O 0.62724 0.92362 0.0034 0.0
O339 O 0.61116 0.91987 0.94489 0.0
O340 O 0.6428 0.13282 -0.00199 0.0
O341 O 0.62881 0.11995 0.94025 0.0
C342 C 0.4074 0.01843 0.91736 0.0
O343 O 0.38666 0.93274 0.01499 0.0
O344 O 0.39136 0.9212 0.95548 0.0
O345 O 0.61545 0.99274 0.06481 0.0
C346 C 0.40165 0.12348 0.01082 0.0
O347 O 0.41411 0.01753 0.07817 0.0
C348 C 0.6027 0.02786 0.90698 0.0
O349 O 0.5819 0.13651 0.07697 0.0
C350 C 0.63141 0.90962 0.9718 0.0
O351 O 0.45908 0.93265 0.07632 0.0
C352 C 0.50833 0.11043 0.90704 0.0
O353 O 0.40913 0.05299 0.91966 0.0
O354 O 0.43342 0.99972 0.93219 0.0
C355 C 0.65129 0.13279 0.96419 0.0
O356 O 0.60187 0.99367 0.90143 0.0
O357 O 0.58072 0.04177 0.93063 0.0
C358 C 0.50456 0.92473 0.89755 0.0
O359 O 0.54366 0.11597 0.90603 0.0
O360 O 0.49449 0.09402 0.93457 0.0
C361 C 0.37304 0.91948 0.98563 0.0
O362 O 0.46898 0.92137 0.90066 0.0
O363 O 0.52169 0.94501 0.92031 0.0
C364 C 0.63461 0.02151 0.05942 0.0
O365 O 0.63753 0.03471 0.02618 0.0
C366 C 0.38124 0.00641 0.07016 0.0
O367 O 0.36654 0.01652 0.03879 0.0
Zn368 Zn 0.96029 0.46255 0.94799 0.0
Zn369 Zn 0.94365 0.54943 0.94634 0.0
O370 O 0.98453 0.51232 0.94859 0.0
H371 H 0.00858 0.51668 0.96003 0.0
C372 C 0.96434 0.41372 0.0341 0.0
O373 O 0.98611 0.43235 0.01186 0.0
Zn374 Zn 0.09237 0.56275 0.06578 0.0
Zn375 Zn 0.09811 0.47656 0.08597 0.0
O376 O 0.06194 0.51656 0.06906 0.0
H377 H 0.04087 0.51151 0.05324 0.0
Zn378 Zn 0.97368 0.47727 0.08511 0.0
O379 O 0.9706 0.51918 0.04846 0.0
Zn380 Zn 0.96188 0.56372 0.07906 0.0
H381 H 0.97955 0.51824 0.02353 0.0
Zn382 Zn 0.09863 0.4913 0.93096 0.0
O383 O 0.07658 0.52911 0.96446 0.0
H384 H 0.06543 0.5241 0.98802 0.0
Zn385 Zn 0.07289 0.5745 0.93436 0.0
C386 C 0.1193 0.43928 0.98784 0.0
O387 O 0.11657 0.46896 0.00797 0.0
O388 O 0.90287 0.46428 0.94291 0.0
O389 O 0.89422 0.52359 0.93286 0.0
O390 O 0.14857 0.49734 0.10323 0.0
O391 O 0.14498 0.55483 0.08439 0.0
O392 O 0.94403 0.48971 0.13207 0.0
O393 O 0.93083 0.54848 0.12374 0.0
C394 C -0.00779 0.59548 0.90131 0.0
O395 O 0.13267 0.51476 0.89223 0.0
O396 O 0.11055 0.57189 0.89177 0.0
O397 O 0.07975 0.43105 0.11539 0.0
C398 C 0.88172 0.49096 0.93411 0.0
O399 O 0.97797 0.4263 0.90866 0.0
C400 C 0.03717 0.606 0.10583 0.0
O401 O 0.95708 0.42662 0.0656 0.0
C402 C 0.16277 0.52902 0.10018 0.0
O403 O 0.11333 0.44151 0.95367 0.0
C404 C 0.92717 0.59972 0.01519 0.0
O405 O 0.95806 0.58653 0.90718 0.0
O406 O 0.01758 0.57997 0.92053 0.0
C407 C 0.92721 0.51892 0.14196 0.0
O408 O 0.07181 0.60129 0.09859 0.0
O409 O 0.01354 0.58441 0.091 0.0
C410 C 0.09258 0.61333 0.00048 0.0
O411 O 0.93303 0.6012 0.04954 0.0
O412 O 0.94018 0.57234 -0.00256 0.0
C413 C 0.13306 0.54722 0.87966 0.0
O414 O 0.08696 0.61687 0.96642 0.0
O415 O 0.09082 0.58157 0.01434 0.0
C416 C 0.09233 0.42865 0.14786 0.0
O417 O 0.11325 0.45537 0.16048 0.0
C418 C 0.00697 0.4062 0.90518 0.0
O419 O 0.0348 0.40869 0.92868 0.0
Zn420 Zn 0.46157 0.48163 0.989 0.0
Zn421 Zn 0.47119 0.47384 0.07598 0.0
O422 O 0.48461 0.50598 0.03378 0.0
H423 H 0.50646 0.52159 0.03386 0.0
C424 C 0.50493 0.38211 0.92791 0.0
O425 O 0.50074 0.41757 0.93187 0.0
Zn426 Zn 0.57815 0.58316 0.03957 0.0
Zn427 Zn 0.5573 0.58243 0.95679 0.0
O428 O 0.5642 0.54836 0.00015 0.0
H429 H 0.57208 0.52313 -0.00157 0.0
Zn430 Zn 0.55457 0.38807 0.99525 0.0
O431 O 0.5471 0.44087 0.01212 0.0
Zn432 Zn 0.58911 0.44534 0.04917 0.0
H433 H 0.53639 0.46039 -0.00228 0.0
Zn434 Zn 0.44003 0.59322 0.96244 0.0
O435 O 0.47489 0.58418 0.00474 0.0
H436 H 0.50123 0.57858 0.00136 0.0
Zn437 Zn 0.44986 0.59865 0.05157 0.0
C438 C 0.49373 0.63428 0.92058 0.0
O439 O 0.50651 0.6384 0.95402 0.0
O440 O 0.42078 0.44436 0.00238 0.0
O441 O 0.42752 0.44087 0.06274 0.0
O442 O 0.59542 0.62497 0.95991 0.0
O443 O 0.61154 0.6221 0.01851 0.0
O444 O 0.61036 0.37285 -0.00021 0.0
O445 O 0.63636 0.42024 0.02881 0.0
C446 C 0.4474 0.53875 0.11518 0.0
O447 O 0.39092 0.61728 0.97987 0.0
O448 O 0.39689 0.61924 0.04057 0.0
O449 O 0.56101 0.55563 0.9075 0.0
C450 C 0.41058 0.43192 0.03334 0.0
O451 O 0.45374 0.50907 0.93969 0.0
C452 C 0.61392 0.52221 0.08068 0.0
O453 O 0.52492 0.36477 0.95103 0.0
C454 C 0.61507 0.6361 0.98682 0.0
O455 O 0.46448 0.61496 0.91574 0.0
C456 C 0.53893 0.42239 0.10498 0.0
O457 O 0.4551 0.50494 0.11864 0.0
O458 O 0.45174 0.55301 0.08365 0.0
C459 C 0.63921 0.38985 0.0116 0.0
O460 O 0.60804 0.55628 0.07696 0.0
O461 O 0.59581 0.49985 0.06049 0.0
C462 C 0.51694 0.63314 0.07688 0.0
O463 O 0.57266 0.41784 0.09412 0.0
O464 O 0.51847 0.4451 0.08761 0.0
C465 C 0.37807 0.62568 0.01139 0.0
O466 O 0.48148 0.63757 0.07612 0.0
O467 O 0.53055 0.60665 0.05843 0.0
C468 C 0.5557 0.52139 0.90568 0.0
O469 O 0.5403 0.50478 0.93374 0.0
C470 C 0.42152 0.52346 0.93433 0.0
O471 O 0.39641 0.5222 0.96079 0.0
Zn472 Zn 0.93523 0.47203 0.4613 0.0
Zn473 Zn 0.92332 0.55942 0.45894 0.0
O474 O 0.96291 0.52046 0.46406 0.0
H475 H 0.98588 0.52376 0.47777 0.0
C476 C 0.90286 0.42175 0.53321 0.0
O477 O 0.88541 0.45264 0.52609 0.0
Zn478 Zn 0.08296 0.55832 0.5672 0.0
Zn479 Zn 0.11297 0.47679 0.57346 0.0
O480 O 0.06471 0.50733 0.57034 0.0
H481 H 0.03977 0.49887 0.56394 0.0
Zn482 Zn 0.94589 0.47201 0.57664 0.0
O483 O 0.93754 0.51665 0.54475 0.0
Zn484 Zn 0.94058 0.55596 0.58269 0.0
H485 H 0.92046 0.51591 0.52424 0.0
Zn486 Zn 0.08048 0.48553 0.42292 0.0
O487 O 0.06045 0.52105 0.46078 0.0
H488 H 0.05274 0.51469 0.48529 0.0
Zn489 Zn 0.05713 0.57019 0.43616 0.0
C490 C 0.12738 0.43484 0.46589 0.0
O491 O 0.13491 0.46521 0.48363 0.0
O492 O 0.88247 0.47758 0.43902 0.0
O493 O 0.87482 0.53785 0.43736 0.0
O494 O 0.15976 0.50668 0.58964 0.0
O495 O 0.13625 0.5628 0.58632 0.0
O496 O 0.91826 0.47839 0.62574 0.0
O497 O 0.9127 0.53867 0.62814 0.0
C498 C 0.97691 0.6012 0.41571 0.0
O499 O 0.11033 0.51349 0.38387 0.0
O500 O 0.08667 0.56979 0.3885 0.0
O501 O 0.10539 0.42851 0.60146 0.0
C502 C 0.86289 0.50558 0.43069 0.0
O503 O 0.9639 0.42542 0.44388 0.0
C504 C 0.01542 0.59174 0.60163 0.0
O505 O 0.9322 0.4225 0.55309 0.0
C506 C 0.1633 0.54107 0.59396 0.0
O507 O 0.10401 0.43597 0.43963 0.0
C508 C 0.90544 0.60588 0.53169 0.0
O509 O 0.94235 0.59697 0.4238 0.0
O510 O 0.00127 0.58211 0.43273 0.0
C511 C 0.90577 0.50715 0.64131 0.0
O512 O 0.05095 0.59253 0.5969 0.0
O513 O -0.00341 0.56502 0.58907 0.0
C514 C 0.09264 0.60154 0.4996 0.0
O515 O 0.91355 0.60139 0.56522 0.0
O516 O 0.9166 0.58149 0.50929 0.0
C517 C 0.1088 0.54661 0.3733 0.0
O518 O 0.08544 0.60735 0.4662 0.0
O519 O 0.07818 0.57399 0.51509 0.0
C520 C 0.07639 0.409 0.59605 0.0
O521 O 0.05253 0.41863 0.57032 0.0
C522 C 0.99019 0.42722 0.42025 0.0
O523 O 0.0007 0.45946 0.4084 0.0
Zn524 Zn 0.46176 0.97457 0.42338 0.0
Zn525 Zn 0.4338 0.05839 0.4428 0.0
O526 O 0.47909 0.02474 0.43901 0.0
H527 H 0.50545 0.03111 0.43803 0.0
C528 C 0.40928 0.90261 0.58078 0.0
O529 O 0.42601 0.90274 0.61278 0.0
Zn530 Zn 0.57734 0.08468 0.57757 0.0
Zn531 Zn 0.59425 0.99933 0.59118 0.0
O532 O 0.55326 0.03526 0.57787 0.0
H533 H 0.53138 0.02863 0.56375 0.0
Zn534 Zn 0.45447 0.96778 0.57711 0.0
O535 O 0.46252 0.0135 0.54595 0.0
Zn536 Zn 0.44929 0.05655 0.5778 0.0
H537 H 0.47515 0.01434 0.52251 0.0
Zn538 Zn 0.57687 0.00419 0.43511 0.0
O539 O 0.56503 0.04212 0.47488 0.0
H540 H 0.55316 0.03637 0.49796 0.0
Zn541 Zn 0.55924 0.08938 0.44683 0.0
C542 C 0.63088 0.94881 0.46075 0.0
O543 O 0.64926 0.97845 0.47025 0.0
O544 O 0.41005 0.97957 0.39901 0.0
O545 O 0.39008 0.03559 0.41357 0.0
O546 O 0.63796 0.02507 0.61699 0.0
O547 O 0.62686 0.08385 0.6057 0.0
O548 O 0.4414 0.97992 0.63075 0.0
O549 O 0.42742 0.0388 0.62549 0.0
C550 C 0.48003 0.11749 0.41896 0.0
O551 O 0.59799 0.02734 0.38831 0.0
O552 O 0.58807 0.08603 0.40033 0.0
O553 O 0.57811 0.94961 0.61325 0.0
C554 C 0.38546 0.00501 0.39707 0.0
O555 O 0.49975 0.94112 0.39487 0.0
C556 C 0.50809 0.11539 0.60367 0.0
O557 O 0.41804 0.9273 0.55786 0.0
C558 C 0.64663 0.05865 0.62045 0.0
O559 O 0.59823 0.95219 0.44679 0.0
C560 C 0.40854 0.08981 0.51715 0.0
O561 O 0.44586 0.10719 0.41942 0.0
O562 O 0.50408 0.09748 0.4353 0.0
C563 C 0.42809 0.00942 0.64412 0.0
O564 O 0.54343 0.12081 0.60275 0.0
O565 O 0.49593 0.08648 0.58819 0.0
C566 C 0.58856 0.1285 0.50847 0.0
O567 O 0.41281 0.08898 0.55166 0.0
O568 O 0.42528 0.06597 0.49742 0.0
C569 C 0.60106 0.0609 0.37982 0.0
O570 O 0.58156 0.13117 0.4746 0.0
O571 O 0.57978 0.09921 0.52484 0.0
C572 C 0.59933 0.92173 0.60997 0.0
O573 O 0.63085 0.92471 0.59123 0.0
C574 C 0.49643 0.90653 0.39423 0.0
O575 O 0.4696 0.89142 0.41382 0.0
C576 C 0.16012 0.17328 0.4669 0.0
C577 C 0.18548 0.17283 0.49618 0.0
C578 C 0.13126 0.14745 0.46455 0.0
C579 C 0.1263 0.12035 0.49158 0.0
H580 H 0.16424 0.19199 0.44433 0.0
H581 H 0.114 0.14766 0.4402 0.0
S582 S 0.18213 0.11184 0.57668 0.0
N583 N 0.20166 0.14636 0.55484 0.0
N584 N 0.14696 0.09786 0.55064 0.0
C585 C 0.14961 0.12174 0.52253 0.0
C586 C 0.17934 0.14794 0.52474 0.0
C587 C 0.84956 0.17902 0.48045 0.0
C588 C 0.82213 0.18788 0.50715 0.0
C589 C 0.87386 0.14889 0.48482 0.0
C590 C 0.87148 0.12695 0.51613 0.0
H591 H 0.85389 0.19689 0.45727 0.0
H592 H 0.89643 0.14465 0.46523 0.0
S593 S 0.80083 0.1344 0.59081 0.0
N594 N 0.79144 0.16923 0.56372 0.0
N595 N 0.8364 0.1125 0.57134 0.0
C596 C 0.84187 0.13329 0.54101 0.0
C597 C 0.81728 0.16379 0.53667 0.0
C598 C 0.86736 0.84231 0.54233 0.0
C599 C 0.85125 0.84012 0.50733 0.0
C600 C 0.88729 0.87327 0.55341 0.0
C601 C 0.89194 0.90328 0.52987 0.0
H602 H 0.8641 0.82004 0.56153 0.0
H603 H 0.89881 0.87373 0.58082 0.0
S604 S 0.85717 0.9098 0.43426 0.0
N605 N 0.84252 0.86949 0.44851 0.0
N606 N 0.87999 0.928 0.4691 0.0
C607 C 0.87646 0.90112 0.49443 0.0
C608 C 0.85604 0.86952 0.48325 0.0
C609 C 0.16799 0.86107 0.52719 0.0
C610 C 0.18185 0.82883 0.51105 0.0
C611 C 0.13887 0.88113 0.51084 0.0
C612 C 0.12289 0.86998 0.4774 0.0
H613 H 0.17999 0.87103 0.55253 0.0
H614 H 0.12967 0.90615 0.52406 0.0
S615 S 0.14842 0.78642 0.42494 0.0
N616 N 0.17675 0.78573 0.46072 0.0
N617 N 0.12224 0.82359 0.42957 0.0
C618 C 0.13594 0.83721 0.46145 0.0
C619 C 0.16535 0.81658 0.47839 0.0
C620 C 0.49394 0.199 0.15295 0.0
C621 C 0.52089 0.20762 0.17972 0.0
C622 C 0.50221 0.17414 0.12484 0.0
C623 C 0.53804 0.15761 0.12205 0.0
H624 H 0.46693 0.21299 0.15273 0.0
H625 H 0.48111 0.16964 0.10394 0.0
S626 S 0.61683 0.16768 0.18797 0.0
N627 N 0.58342 0.1951 0.2039 0.0
N628 N 0.59928 0.14864 0.15074 0.0
C629 C 0.56442 0.16426 0.14998 0.0
C630 C 0.55574 0.18919 0.17894 0.0
C631 C 0.83424 0.53666 0.18924 0.0
C632 C 0.8274 0.50334 0.20705 0.0
C633 C 0.86852 0.54317 0.17137 0.0
C634 C 0.89712 0.51636 0.17028 0.0
H635 H 0.81188 0.55682 0.18693 0.0
H636 H 0.87116 0.56813 0.15577 0.0
S637 S 0.89547 0.4274 0.21905 0.0
N638 N 0.85353 0.44554 0.22728 0.0
N639 N 0.91835 0.45752 0.19389 0.0
C640 C 0.892 0.48448 0.19136 0.0
C641 C 0.85699 0.478 0.20969 0.0
C642 C 0.55875 0.87508 0.14574 0.0
C643 C 0.53362 0.86155 0.17203 0.0
C644 C 0.5458 0.89711 0.11706 0.0
C645 C 0.5072 0.90598 0.11353 0.0
H646 H 0.5886 0.86881 0.14755 0.0
H647 H 0.56621 0.90687 0.09732 0.0
S648 S 0.43013 0.8757 0.17547 0.0
N649 N 0.46881 0.85772 0.19307 0.0
N650 N 0.444 0.89863 0.13906 0.0
C651 C 0.48183 0.89233 0.13989 0.0
C652 C 0.49517 0.8702 0.16915 0.0
C653 C 0.23719 0.58679 0.14546 0.0
C654 C 0.25048 0.56375 0.17306 0.0
C655 C 0.21081 0.57436 0.12005 0.0
C656 C 0.19671 0.53842 0.12162 0.0
H657 H 0.24637 0.6149 0.14426 0.0
H658 H 0.20026 0.59363 0.10006 0.0
S659 S 0.22624 0.46666 0.18758 0.0
N660 N 0.25053 0.50315 0.19959 0.0
N661 N 0.20076 0.47917 0.15197 0.0
C662 C 0.21151 0.51458 0.1483 0.0
C663 C 0.2383 0.52747 0.17417 0.0
C664 C 0.56421 0.84759 0.86148 0.0
C665 C 0.54784 0.841 0.82703 0.0
C666 C 0.55274 0.87732 0.88311 0.0
C667 C 0.52459 0.90142 0.87095 0.0
H668 H 0.58414 0.82819 0.87283 0.0
H669 H 0.56342 0.87941 0.9107 0.0
S670 S 0.47633 0.89919 0.78125 0.0
N671 N 0.50459 0.8632 0.78048 0.0
N672 N 0.48353 0.91933 0.82105 0.0
C673 C 0.51026 0.89691 0.83547 0.0
C674 C 0.52189 0.86669 0.81342 0.0
C675 C 0.2242 0.54364 0.82516 0.0
C676 C 0.22074 0.57328 0.80112 0.0
C677 C 0.19554 0.53544 0.85017 0.0
C678 C 0.1624 0.55679 0.8524 0.0
H679 H 0.24874 0.52591 0.82387 0.0
H680 H 0.19951 0.51212 0.86794 0.0
S681 S 0.14035 0.63837 0.79621 0.0
N682 N 0.18228 0.62479 0.78159 0.0
N683 N 0.12828 0.60945 0.82874 0.0
C684 C 0.15896 0.58706 0.82902 0.0
C685 C 0.18812 0.59525 0.80332 0.0
C686 C 0.43762 0.16322 0.8505 0.0
C687 C 0.45436 0.16151 0.81548 0.0
C688 C 0.45304 0.14382 0.88015 0.0
C689 C 0.48576 0.12251 0.87556 0.0
H690 H 0.4134 0.18077 0.85529 0.0
H691 H 0.4409 0.14744 0.90711 0.0
S692 S 0.53883 0.10663 0.78946 0.0
N693 N 0.5047 0.13518 0.77814 0.0
N694 N 0.5324 0.09809 0.83326 0.0
C695 C 0.5012 0.11875 0.84037 0.0
C696 C 0.48589 0.13847 0.81046 0.0
C697 C 0.8096 0.44722 0.87272 0.0
C698 C 0.78012 0.47294 0.87273 0.0
C699 C 0.84115 0.45188 0.89514 0.0
C700 C 0.84463 0.48285 0.91779 0.0
H701 H 0.80882 0.42398 0.85433 0.0
H702 H 0.86403 0.43224 0.8929 0.0
S703 S 0.77279 0.55554 0.93128 0.0
N704 N 0.75442 0.52846 0.89987 0.0
N705 N 0.81407 0.53734 0.94196 0.0
C706 C 0.81429 0.50758 0.91971 0.0
C707 C 0.78191 0.50259 0.89717 0.0
C708 C 0.6968 0.68257 0.93963 0.0
C709 C 0.71467 0.70054 0.96867 0.0
C710 C 0.66291 0.66381 0.94522 0.0
C711 C 0.64625 0.66198 0.9802 0.0
H712 H 0.70981 0.68196 0.9128 0.0
H713 H 0.65089 0.64899 0.9224 0.0
S714 S 0.68064 0.70818 0.06413 0.0
N715 N 0.71231 0.71829 0.03255 0.0
N716 N 0.64871 0.68273 0.04347 0.0
C717 C 0.66306 0.68159 0.00899 0.0
C718 C 0.69735 0.70091 0.00312 0.0
C719 C 0.3068 0.69756 0.98412 0.0
C720 C 0.28948 0.70673 0.01748 0.0
C721 C 0.33326 0.6692 0.98193 0.0
C722 C 0.34381 0.64911 0.01315 0.0
H723 H 0.30101 0.71348 0.95981 0.0
H724 H 0.34719 0.66465 0.95591 0.0
S725 S 0.3021 0.65871 0.10575 0.0
N726 N 0.28144 0.69109 0.08156 0.0
N727 N 0.33075 0.63708 0.07726 0.0
C728 C 0.32437 0.65605 0.04602 0.0
C729 C 0.29731 0.68503 0.04823 0.0
C730 C 0.34367 0.35708 0.00473 0.0
C731 C 0.32458 0.34893 0.03737 0.0
C732 C 0.37037 0.385 0.00339 0.0
C733 C 0.3793 0.40542 0.03482 0.0
H734 H 0.33902 0.34069 0.98045 0.0
H735 H 0.38531 0.38942 0.97792 0.0
S736 S 0.33418 0.39677 0.12611 0.0
N737 N 0.31402 0.36477 0.10103 0.0
N738 N 0.36432 0.41762 0.09877 0.0
C739 C 0.35889 0.39872 0.0672 0.0
C740 C 0.33142 0.37039 0.0684 0.0
C741 C 0.71564 0.31856 -0.00069 0.0
C742 C 0.74627 0.33882 0.98582 0.0
C743 C 0.68136 0.33555 0.00817 0.0
C744 C 0.67658 0.3735 0.00446 0.0
H745 H 0.71822 0.28932 0.00321 0.0
H746 H 0.65838 0.31883 0.01813 0.0
S747 S 0.74678 0.43866 0.96785 0.0
N748 N 0.76872 0.39876 0.96709 0.0
N749 N 0.70445 0.43075 0.98504 0.0
C750 C 0.70683 0.3942 0.99111 0.0
C751 C 0.74164 0.37684 0.98148 0.0
C752 C 0.00217 0.69005 0.62654 0.0
C753 C 0.98243 0.68851 0.65998 0.0
C754 C 0.00955 0.65854 0.60618 0.0
C755 C -0.00237 0.62413 0.61829 0.0
H756 H 0.01449 0.71536 0.61712 0.0
H757 H 0.02688 0.66087 0.58183 0.0
S758 S 0.94134 0.60514 0.70143 0.0
N759 N 0.94736 0.64987 0.70209 0.0
N760 N 0.96289 0.59021 0.66413 0.0
C761 C 0.9757 0.62217 0.65017 0.0
C762 C 0.96783 0.65447 0.671 0.0
C763 C 0.35482 0.0364 0.71333 0.0
C764 C 0.34427 0.00237 0.72747 0.0
C765 C 0.3856 0.03936 0.68961 0.0
C766 C 0.40624 0.00815 0.67869 0.0
H767 H 0.33712 0.06019 0.71796 0.0
H768 H 0.39074 0.06565 0.67708 0.0
S769 S 0.39472 0.9144 0.71562 0.0
N770 N 0.36041 0.93836 0.73486 0.0
N771 N 0.41846 0.94354 0.6901 0.0
C772 C 0.39896 0.97492 0.69675 0.0
C773 C 0.36773 0.97209 0.72117 0.0
C774 C 0.01759 0.34144 0.6498 0.0
C775 C 0.04119 0.33284 0.67941 0.0
C776 C 0.02996 0.36454 0.62176 0.0
C777 C 0.06639 0.37981 0.62236 0.0
H778 H 0.98873 0.3318 0.64924 0.0
H779 H 0.01013 0.37174 0.60044 0.0
S780 S 0.14087 0.36056 0.69114 0.0
N781 N 0.1038 0.33757 0.70569 0.0
N782 N 0.12738 0.38086 0.65306 0.0
C783 C 0.09109 0.36923 0.65061 0.0
C784 C 0.07838 0.34583 0.67916 0.0
C785 C 0.7282 0.04662 0.68583 0.0
C786 C 0.73093 0.081 0.7027 0.0
C787 C 0.70206 0.04028 0.65805 0.0
C788 C 0.67764 0.06812 0.64585 0.0
H789 H 0.74601 0.02419 0.69468 0.0
H790 H 0.7005 0.01299 0.64663 0.0
S791 S 0.67609 0.16405 0.67934 0.0
N792 N 0.70905 0.1439 0.7041 0.0
N793 N 0.65959 0.13224 0.65163 0.0
C794 C 0.6811 0.10314 0.66164 0.0
C795 C 0.70768 0.10946 0.69025 0.0
C796 C -0.00091 0.32771 0.39163 0.0
C797 C 0.03041 0.32753 0.36786 0.0
C798 C 0.98717 0.35976 0.4093 0.0
C799 C 0.00566 0.39323 0.40356 0.0
H800 H 0.98273 0.30315 0.3958 0.0
H801 H 0.96243 0.35839 0.42669 0.0
S802 S 0.09144 0.4071 0.34684 0.0
N803 N 0.0819 0.36322 0.3423 0.0
N804 N 0.0582 0.42383 0.37385 0.0
C805 C 0.03757 0.39337 0.38057 0.0
C806 C 0.05019 0.36052 0.3631 0.0
C807 C 0.6537 0.05198 0.29038 0.0
C808 C 0.66444 0.08809 0.28306 0.0
C809 C 0.63261 0.04358 0.32144 0.0
C810 C 0.62143 0.07105 0.34617 0.0
H811 H 0.66244 0.02992 0.27239 0.0
H812 H 0.62549 0.01527 0.32624 0.0
S813 S 0.64134 0.1704 0.33771 0.0
N814 N 0.66161 0.1517 0.3015 0.0
N815 N 0.62195 0.13632 0.36038 0.0
C816 C 0.63141 0.10756 0.33857 0.0
C817 C 0.65302 0.11596 0.30691 0.0
C818 C 0.03172 0.6669 0.35493 0.0
C819 C 0.00475 0.67604 0.32825 0.0
C820 C 0.02292 0.64236 0.38324 0.0
C821 C 0.98683 0.6266 0.38576 0.0
H822 H 0.05995 0.67804 0.35333 0.0
H823 H 0.04437 0.63584 0.40325 0.0
S824 S 0.90656 0.64243 0.32218 0.0
N825 N 0.94089 0.66813 0.3061 0.0
N826 N 0.92413 0.62214 0.35863 0.0
C827 C 0.95965 0.6361 0.35924 0.0
C828 C 0.96867 0.6608 0.33066 0.0
C829 C 0.32283 0.96116 0.32525 0.0
C830 C 0.29631 0.98853 0.3172 0.0
C831 C 0.35052 0.9665 0.35191 0.0
C832 C 0.35316 0.9996 0.37164 0.0
H833 H 0.32179 0.93505 0.31129 0.0
H834 H 0.37027 0.94438 0.35673 0.0
S835 S 0.29037 0.0803 0.36029 0.0
N836 N 0.27425 0.05011 0.33061 0.0
N837 N 0.32638 0.06034 0.38085 0.0
C838 C 0.32662 0.02727 0.36387 0.0
C839 C 0.29825 0.02171 0.33666 0.0
C840 C 0.04786 0.18103 0.39473 0.0
C841 C 0.03382 0.19075 0.36001 0.0
C842 C 0.03505 0.14952 0.41285 0.0
C843 C 0.00788 0.12677 0.3968 0.0
H844 H 0.06778 0.19865 0.40855 0.0
H845 H 0.04447 0.14431 0.44048 0.0
S846 S 0.96208 0.13971 0.3068 0.0
N847 N 0.9913 0.17453 0.31047 0.0
N848 N 0.96771 0.11553 0.34444 0.0
C849 C -0.0054 0.13548 0.36177 0.0
C850 C 0.00753 0.16734 0.34333 0.0
C851 C 0.83361 0.12192 0.32614 0.0
C852 C 0.81588 0.10067 0.29937 0.0
C853 C 0.84605 0.10598 0.35885 0.0
C854 C 0.84129 0.06831 0.36545 0.0
H855 H 0.8388 0.15067 0.32139 0.0
H856 H 0.86154 0.12282 0.378 0.0
S857 S 0.79198 0.00252 0.30511 0.0
N858 N 0.79059 0.04152 0.28253 0.0
N859 N 0.81443 0.01126 0.34367 0.0
C860 C 0.82163 0.04745 0.33948 0.0
C861 C 0.80882 0.06375 0.30644 0.0
C862 C 0.00112 0.87554 0.31068 0.0
C863 C 0.01701 0.84301 0.32374 0.0
C864 C 0.98546 0.90136 0.33473 0.0
C865 C 0.98509 0.89554 0.37283 0.0
H866 H 0.0004 0.88095 0.28157 0.0
H867 H 0.97326 0.92594 0.32323 0.0
S868 S 0.02463 0.81437 0.42041 0.0
N869 N 0.0327 0.80624 0.37663 0.0
N870 N 0.00315 0.85449 0.42226 0.0
C871 C 0.00175 0.86314 0.38618 0.0
C872 C 0.01772 0.83689 0.36151 0.0
C873 C 0.14665 0.01398 0.3028 0.0
C874 C 0.15919 0.97891 0.29287 0.0
C875 C 0.11545 0.0187 0.32583 0.0
C876 C 0.0962 0.98838 0.34033 0.0
H877 H 0.16287 0.03778 0.29503 0.0
H878 H 0.10883 0.04616 0.33497 0.0
S879 S 0.11312 0.89119 0.31553 0.0
N880 N 0.14652 0.91381 0.29373 0.0
N881 N 0.08761 0.92239 0.33711 0.0
C882 C 0.10569 0.95339 0.3268 0.0
C883 C 0.13742 0.9487 0.30312 0.0
C884 C 0.01163 0.82467 0.63538 0.0
C885 C -0.0071 0.82348 0.66939 0.0
C886 C 0.01862 0.85783 0.61761 0.0
C887 C 0.00756 0.89139 0.63321 0.0
H888 H 0.02224 0.79981 0.62285 0.0
H889 H 0.03416 0.85711 0.59208 0.0
S890 S 0.954 0.90323 0.71989 0.0
N891 N 0.96051 0.85867 0.71644 0.0
N892 N 0.97429 0.92117 0.68346 0.0
C893 C 0.98755 0.8906 0.66655 0.0
C894 C 0.98018 0.85668 0.68456 0.0
C895 C 0.20284 0.02864 0.67671 0.0
C896 C 0.21105 0.99447 0.69214 0.0
C897 C 0.17861 0.03169 0.6467 0.0
C898 C 0.16225 0.0006 0.63055 0.0
H899 H 0.21514 0.05321 0.68809 0.0
H900 H 0.17203 0.05876 0.63675 0.0
S901 S 0.17802 0.90435 0.65957 0.0
N902 N 0.203 0.92886 0.68865 0.0
N903 N 0.15801 0.93402 0.63167 0.0
C904 C 0.17132 0.96603 0.64535 0.0
C905 C 0.19554 0.96312 0.6763 0.0
C906 C 0.96373 0.16615 0.65357 0.0
C907 C 0.98912 0.18418 0.67652 0.0
C908 C 0.97694 0.14328 0.62548 0.0
C909 C 0.01585 0.13758 0.61971 0.0
H910 H 0.93358 0.16943 0.65752 0.0
H911 H 0.95644 0.12987 0.60848 0.0
S912 S 0.09337 0.18229 0.67142 0.0
N913 N 0.05431 0.19758 0.69091 0.0
N914 N 0.07955 0.15463 0.63839 0.0
C915 C 0.04141 0.15693 0.64201 0.0
C916 C 0.02787 0.18017 0.67045 0.0
C917 C 0.88729 0.09254 0.72858 0.0
C918 C 0.86224 0.06704 0.74347 0.0
C919 C 0.91488 0.08155 0.70332 0.0
C920 C 0.91774 0.04482 0.69178 0.0
H921 H 0.88275 0.12149 0.73314 0.0
H922 H 0.9313 0.10256 0.69002 0.0
S923 S 0.86455 0.96677 0.73051 0.0
N924 N 0.84659 0.00313 0.75106 0.0
N925 N 0.8983 0.98214 0.70347 0.0
C926 C 0.89651 0.01852 0.71078 0.0
C927 C 0.86862 0.0298 0.73665 0.0
C928 C 0.29572 0.96264 0.11428 0.0
C929 C 0.30755 0.95668 0.15028 0.0
C930 C 0.32033 0.97737 0.08824 0.0
C931 C 0.35773 0.98664 0.09731 0.0
H932 H 0.2669 0.95679 0.10637 0.0
H933 H 0.30951 0.98235 0.06103 0.0
S934 S 0.4026 0.9738 0.18817 0.0
N935 N 0.35894 0.95917 0.19383 0.0
N936 N 0.40572 0.98671 0.14503 0.0
C937 C 0.37023 0.97933 0.13317 0.0
C938 C 0.34496 0.9644 0.15968 0.0
C939 C 0.05517 0.33589 0.17804 0.0
C940 C 0.07369 0.3303 0.21143 0.0
C941 C 0.06096 0.36798 0.15782 0.0
C942 C 0.0854 0.39556 0.17043 0.0
H943 H 0.03635 0.31523 0.16733 0.0
H944 H 0.04632 0.37103 0.13203 0.0
S945 S 0.14042 0.39309 0.25691 0.0
N946 N 0.11707 0.35415 0.25655 0.0
N947 N 0.12813 0.41454 0.21908 0.0
C948 C 0.10375 0.3901 0.20422 0.0
C949 C 0.09785 0.35741 0.22459 0.0
C950 C 0.68079 0.0319 0.15183 0.0
C951 C 0.69096 0.06892 0.15257 0.0
C952 C 0.66319 0.0168 0.12126 0.0
C953 C 0.65525 0.03817 0.09028 0.0
H954 H 0.68535 0.01483 0.1756 0.0
H955 H 0.65527 0.98826 0.1222 0.0
S956 S 0.67653 0.13676 0.07947 0.0
N957 N 0.69228 0.12664 0.1206 0.0
N958 N 0.65984 0.09823 0.06242 0.0
C959 C 0.66659 0.07498 0.0904 0.0
C960 C 0.68433 0.09038 0.12175 0.0
C961 C 0.05121 0.68528 0.17059 0.0
C962 C 0.01961 0.68334 0.19363 0.0
C963 C 0.05488 0.66194 0.14045 0.0
C964 C 0.02719 0.63554 0.13214 0.0
H965 H 0.07446 0.70324 0.17721 0.0
H966 H 0.08079 0.66335 0.12472 0.0
S967 S 0.93535 0.62518 0.17955 0.0
N968 N 0.95724 0.65741 0.20286 0.0
N969 N 0.96444 0.6132 0.14621 0.0
C970 C -0.00619 0.63586 0.15284 0.0
C971 C 0.99002 0.65974 0.18367 0.0
C972 C 0.30468 0.00493 0.89273 0.0
C973 C 0.3057 0.97372 0.87055 0.0
C974 C 0.3378 0.01852 0.90847 0.0
C975 C 0.37299 0.00148 0.90223 0.0
H976 H 0.27849 0.01987 0.8966 0.0
H977 H 0.33596 0.04309 0.92498 0.0
S978 S 0.38986 0.91924 0.84511 0.0
N979 N 0.34378 0.92573 0.84323 0.0
N980 N 0.40636 0.95207 0.87163 0.0
C981 C 0.37396 0.96972 0.88067 0.0
C982 C 0.34014 0.95563 0.86508 0.0
C983 C 0.04297 0.34682 0.82741 0.0
C984 C 0.00927 0.33392 0.81176 0.0
C985 C 0.04235 0.36898 0.85878 0.0
C986 C 0.00794 0.37949 0.87492 0.0
H987 H 0.06991 0.34027 0.81489 0.0
H988 H 0.0688 0.37909 0.86953 0.0
S989 S 0.91206 0.35114 0.84558 0.0
N990 N 0.94084 0.33184 0.81563 0.0
N991 N 0.9395 0.37338 0.87434 0.0
C992 C 0.97417 0.36566 0.8602 0.0
C993 C 0.97487 0.34289 0.82865 0.0
C994 C 0.66334 0.08518 0.84379 0.0
C995 C 0.69782 0.08581 0.86273 0.0
C996 C 0.63183 0.067 0.85841 0.0
C997 C 0.63427 0.04913 0.89226 0.0
H998 H 0.66095 0.09806 0.81725 0.0
H999 H 0.60582 0.06627 0.84296 0.0
S1000 S 0.71809 0.04343 0.95234 0.0
N1001 N 0.73244 0.06762 0.91689 0.0
N1002 N 0.67343 0.03347 0.94432 0.0
C1003 C 0.66847 0.05008 0.91148 0.0
C1004 C 0.70028 0.06853 0.89672 0.0
C1005 C 0.97728 0.66086 0.82196 0.0
C1006 C 0.00915 0.6833 0.82332 0.0
C1007 C 0.9729 0.63187 0.84662 0.0
C1008 C 0.00036 0.6241 0.87348 0.0
H1009 H 0.95511 0.66625 0.8023 0.0
H1010 H 0.94736 0.6158 0.84497 0.0
S1011 S 0.08948 0.67519 0.88736 0.0
N1012 N 0.06894 0.69609 0.85268 0.0
N1013 N 0.06103 0.64149 0.89891 0.0
C1014 C 0.03296 0.64594 0.87418 0.0
C1015 C 0.03724 0.67564 0.84915 0.0
C1016 C 0.16319 0.37225 0.05458 0.0
C1017 C 0.16222 0.33928 0.03507 0.0
C1018 C 0.14798 0.40429 0.0396 0.0
C1019 C 0.13178 0.40437 0.00441 0.0
H1020 H 0.17679 0.37353 0.08107 0.0
H1021 H 0.15017 0.42937 0.05522 0.0
S1022 S 0.12018 0.32353 0.94391 0.0
N1023 N 0.14224 0.30751 0.98027 0.0
N1024 N 0.11358 0.36755 0.95175 0.0
C1025 C 0.12953 0.37096 0.98534 0.0
C1026 C 0.14485 0.33841 0.00078 0.0
C1027 C 0.14589 0.67817 0.06193 0.0
C1028 C 0.13137 0.71218 0.05093 0.0
C1029 C 0.13103 0.64552 0.04784 0.0
C1030 C 0.10149 0.64617 0.02225 0.0
H1031 H 0.17029 0.67684 0.07969 0.0
H1032 H 0.14462 0.61998 0.05484 0.0
S1033 S 0.0511 0.72842 0.98849 0.0
N1034 N 0.08396 0.74469 0.01597 0.0
N1035 N 0.05583 0.68354 0.98956 0.0
C1036 C 0.08516 0.68005 0.01322 0.0
C1037 C 0.10019 0.71309 0.02759 0.0
C1038 C 0.33013 0.18818 0.05396 0.0
C1039 C 0.32543 0.21493 0.02701 0.0
C1040 C 0.35505 0.15886 0.04852 0.0
C1041 C 0.37597 0.15519 0.01582 0.0
H1042 H 0.31544 0.1906 0.07987 0.0
H1043 H 0.35799 0.13905 0.07029 0.0
S1044 S 0.37154 0.21762 0.93596 0.0
N1045 N 0.34197 0.23559 0.96603 0.0
N1046 N 0.38884 0.18061 0.95555 0.0
C1047 C 0.37058 0.18148 0.98826 0.0
C1048 C 0.34528 0.2113 0.99391 0.0
C1049 C 0.90827 0.35438 0.9692 0.0
C1050 C 0.88612 0.33374 0.99324 0.0
C1051 C 0.93592 0.37819 0.9826 0.0
C1052 C 0.942 0.38239 0.02039 0.0
H1053 H 0.90238 0.35402 0.94016 0.0
H1054 H 0.95063 0.39525 0.96337 0.0
S1055 S 0.89513 0.32947 0.09394 0.0
N1056 N 0.87476 0.31533 0.05591 0.0
N1057 N 0.92687 0.35985 0.08125 0.0
C1058 C 0.92204 0.35946 0.04441 0.0
C1059 C 0.89397 0.33525 0.03075 0.0
C1060 C 0.72587 0.86353 0.98707 0.0
C1061 C 0.73475 0.84981 0.95239 0.0
C1062 C 0.69141 0.88115 0.99347 0.0
C1063 C 0.66465 0.88571 0.96529 0.0
H1064 H 0.74571 0.86067 0.00941 0.0
H1065 H 0.68629 0.89209 0.02058 0.0
S1066 S 0.67417 0.85086 0.87018 0.0
N1067 N 0.7141 0.83895 0.89021 0.0
N1068 N 0.64915 0.87256 0.90168 0.0
C1069 C 0.67303 0.87076 0.93063 0.0
C1070 C 0.7082 0.8527 0.9243 0.0
C1071 C 0.87342 0.68904 0.00613 0.0
C1072 C 0.85309 0.68428 0.97369 0.0
C1073 C 0.89877 0.66219 0.01811 0.0
C1074 C 0.90459 0.62955 -0.00185 0.0
H1075 H 0.86817 0.71268 0.02332 0.0
H1076 H 0.9128 0.66656 0.04403 0.0
S1077 S 0.86126 0.6075 0.9084 0.0
N1078 N 0.84291 0.64746 0.91963 0.0
N1079 N 0.8897 0.59648 0.94235 0.0
C1080 C 0.88593 0.62593 0.96442 0.0
C1081 C 0.86032 0.65341 0.95218 0.0
C1082 C 0.29297 0.86691 0.0295 0.0
C1083 C 0.28371 0.8413 0.00242 0.0
C1084 C 0.31977 0.89414 0.02276 0.0
C1085 C 0.33828 0.8969 0.98863 0.0
H1086 H 0.28163 0.86422 0.05689 0.0
H1087 H 0.32777 0.91156 0.04536 0.0
S1088 S 0.31775 0.84065 0.90649 0.0
N1089 N 0.29053 0.82339 0.93878 0.0
N1090 N 0.34062 0.87482 0.92579 0.0
C1091 C 0.32628 0.87365 0.96025 0.0
C1092 C 0.29915 0.84574 0.96726 0.0
C1093 C 0.7225 0.19088 0.9131 0.0
C1094 C 0.7545 0.18824 0.93553 0.0
C1095 C 0.68952 0.17129 0.92141 0.0
C1096 C 0.68755 0.14911 0.95275 0.0
H1097 H 0.72257 0.20898 0.88971 0.0
H1098 H 0.66495 0.17482 0.90419 0.0
S1099 S 0.76581 0.12981 0.01718 0.0
N1100 N 0.78369 0.1595 0.98802 0.0
N1101 N 0.72196 0.12276 0.00376 0.0
C1102 C 0.72018 0.14502 0.97418 0.0
C1103 C 0.75366 0.16464 0.96553 0.0
C1104 C 0.5552 0.70279 0.87148 0.0
C1105 C 0.53756 0.70647 0.83731 0.0
C1106 C 0.542 0.67793 0.89742 0.0
C1107 C 0.51061 0.65561 0.89025 0.0
H1108 H 0.57838 0.72053 0.87888 0.0
H1109 H 0.55557 0.67753 0.9239 0.0
S1110 S 0.45732 0.65147 0.80301 0.0
N1111 N 0.48917 0.6836 0.79628 0.0
N1112 N 0.46468 0.63611 0.84481 0.0
C1113 C 0.49442 0.65705 0.85512 0.0
C1114 C 0.50785 0.68264 0.82868 0.0
C1115 C 0.36339 0.56919 0.86013 0.0
C1116 C 0.38517 0.56353 0.82856 0.0
C1117 C 0.37605 0.55718 0.89435 0.0
C1118 C 0.41107 0.5392 0.89828 0.0
H1119 H 0.33603 0.5823 0.85843 0.0
H1120 H 0.35779 0.56145 0.91778 0.0
S1121 S 0.48026 0.52141 0.82377 0.0
N1122 N 0.44428 0.54139 0.80313 0.0
N1123 N 0.46855 0.51898 0.86743 0.0
C1124 C 0.43392 0.53505 0.86691 0.0
C1125 C 0.42081 0.54716 0.83203 0.0
C1126 C 0.4803 0.30569 0.8608 0.0
C1127 C 0.45971 0.3239 0.83362 0.0
C1128 C 0.49425 0.32462 0.8914 0.0
C1129 C 0.48822 0.36254 0.89592 0.0
H1130 H 0.48608 0.2767 0.85822 0.0
H1131 H 0.51029 0.30937 0.91144 0.0
S1132 S 0.43503 0.42231 0.83191 0.0
N1133 N 0.43328 0.38138 0.81287 0.0
N1134 N 0.45927 0.4172 0.87008 0.0
C1135 C 0.4671 0.38083 0.86883 0.0
C1136 C 0.45294 0.36145 0.83774 0.0
C1137 C 0.62393 0.50634 0.82885 0.0
C1138 C 0.6437 0.4753 0.84094 0.0
C1139 C 0.59186 0.51882 0.84753 0.0
C1140 C 0.5786 0.50066 0.87887 0.0
H1141 H 0.63528 0.52305 0.80707 0.0
H1142 H 0.57949 0.54466 0.83937 0.0
S1143 S 0.61514 0.41289 0.91546 0.0
N1144 N 0.64388 0.4228 0.88134 0.0
N1145 N 0.58349 0.44612 0.91668 0.0
C1146 C 0.59518 0.4669 0.88811 0.0
C1147 C 0.62796 0.45434 0.86915 0.0
C1148 C 0.54189 0.36512 0.1906 0.0
C1149 C 0.51059 0.34208 0.18628 0.0
C1150 C 0.54915 0.39327 0.16558 0.0
C1151 C 0.525 0.39992 0.13576 0.0
H1152 H 0.5625 0.35957 0.21173 0.0
H1153 H 0.57506 0.40865 0.1684 0.0
S1154 S 0.43698 0.34992 0.11471 0.0
N1155 N 0.4535 0.32973 0.15176 0.0
N1156 N 0.46695 0.38302 0.10511 0.0
C1157 C 0.49202 0.37902 0.13285 0.0
C1158 C 0.48489 0.34997 0.15801 0.0
C1159 C 0.66596 0.47148 0.15659 0.0
C1160 C 0.69564 0.49569 0.16462 0.0
C1161 C 0.64012 0.47909 0.12835 0.0
C1162 C 0.64315 0.5111 0.10741 0.0
H1163 H 0.66266 0.44663 0.17227 0.0
H1164 H 0.61703 0.46056 0.12385 0.0
S1165 S 0.71566 0.58353 0.118 0.0
N1166 N 0.72565 0.55352 0.15011 0.0
N1167 N 0.67891 0.56671 0.09624 0.0
C1168 C 0.67312 0.53514 0.115 0.0
C1169 C 0.69883 0.52776 0.14382 0.0
C1170 C 0.54174 0.71716 0.13189 0.0
C1171 C 0.56868 0.70388 0.15659 0.0
C1172 C 0.5275 0.69475 0.10399 0.0
C1173 C 0.53975 0.65828 0.09972 0.0
H1174 H 0.53022 0.74444 0.13514 0.0
H1175 H 0.50528 0.70551 0.08674 0.0
S1176 S 0.61084 0.6112 0.15727 0.0
N1177 N 0.60832 0.65288 0.17456 0.0
N1178 N 0.58108 0.61051 0.12257 0.0
C1179 C 0.56802 0.64537 0.12337 0.0
C1180 C 0.58253 0.66824 0.1518 0.0
C1181 C 0.39972 0.55262 0.20659 0.0
C1182 C 0.38237 0.58681 0.20233 0.0
C1183 C 0.42397 0.53884 0.17958 0.0
C1184 C 0.4312 0.55862 0.14721 0.0
H1185 H 0.39077 0.53456 0.22835 0.0
H1186 H 0.43411 0.51107 0.18272 0.0
S1187 S 0.40185 0.65455 0.13022 0.0
N1188 N 0.38144 0.64394 0.16934 0.0
N1189 N 0.42528 0.6176 0.11742 0.0
C1190 C 0.4182 0.59493 0.14567 0.0
C1191 C 0.39444 0.60925 0.17378 0.0
C1192 C 0.83632 0.46122 0.70499 0.0
C1193 C 0.81125 0.48966 0.71349 0.0
C1194 C 0.86881 0.46777 0.68414 0.0
C1195 C 0.87713 0.50301 0.67081 0.0
H1196 H 0.82994 0.43346 0.7131 0.0
H1197 H 0.88638 0.4446 0.67677 0.0
S1198 S 0.82168 0.58738 0.69013 0.0
N1199 N 0.79794 0.55457 0.71073 0.0
N1200 N 0.85876 0.56733 0.67123 0.0
C1201 C 0.85329 0.53212 0.68158 0.0
C1202 C 0.82027 0.52529 0.7029 0.0
C1203 C 0.61067 0.82657 0.64994 0.0
C1204 C 0.57771 0.82249 0.67071 0.0
C1205 C 0.6169 0.85838 0.62955 0.0
C1206 C 0.5904 0.88725 0.62947 0.0
H1207 H 0.63208 0.80533 0.64993 0.0
H1208 H 0.64309 0.86058 0.61441 0.0
S1209 S 0.49839 0.88811 0.67855 0.0
N1210 N 0.51761 0.84841 0.68933 0.0
N1211 N 0.52887 0.90838 0.65115 0.0
C1212 C 0.55674 0.88279 0.64963 0.0
C1213 C 0.55053 0.85033 0.67028 0.0
C1214 C 0.25121 0.54077 0.65247 0.0
C1215 C 0.24925 0.57522 0.66933 0.0
C1216 C 0.22547 0.531 0.62508 0.0
C1217 C 0.19677 0.55532 0.61387 0.0
H1218 H 0.27023 0.52007 0.66298 0.0
H1219 H 0.2262 0.50319 0.61491 0.0
S1220 S 0.18543 0.65158 0.64489 0.0
N1221 N 0.22098 0.63557 0.66924 0.0
N1222 N 0.17248 0.61769 0.61789 0.0
C1223 C 0.19766 0.59137 0.62763 0.0
C1224 C 0.22393 0.60117 0.65541 0.0
C1225 C 0.43342 0.14961 0.67048 0.0
C1226 C 0.44913 0.18273 0.68296 0.0
C1227 C 0.45038 0.12933 0.64207 0.0
C1228 C 0.48397 0.14104 0.62541 0.0
H1229 H 0.40925 0.13809 0.68442 0.0
H1230 H 0.4386 0.10323 0.63504 0.0
S1231 S 0.53205 0.22947 0.64244 0.0
N1232 N 0.49713 0.22882 0.67235 0.0
N1233 N 0.52832 0.1912 0.61885 0.0
C1234 C 0.49743 0.17604 0.6348 0.0
C1235 C 0.48021 0.19672 0.66359 0.0
C1236 C 0.78797 0.45734 0.37462 0.0
C1237 C 0.77085 0.48616 0.35573 0.0
C1238 C 0.81607 0.46413 0.40066 0.0
C1239 C 0.82823 0.50003 0.40843 0.0
H1240 H 0.78056 0.42932 0.36837 0.0
H1241 H 0.82938 0.44086 0.41364 0.0
S1242 S 0.78897 0.58487 0.3675 0.0
N1243 N 0.76542 0.55157 0.3475 0.0
N1244 N 0.81825 0.5648 0.3963 0.0
C1245 C 0.80959 0.52913 0.39074 0.0
C1246 C 0.78095 0.52205 0.36429 0.0
C1247 C 0.52054 0.82998 0.32771 0.0
C1248 C 0.54819 0.84596 0.30539 0.0
C1249 C 0.5057 0.84881 0.35805 0.0
C1250 C 0.51789 0.88436 0.36701 0.0
H1251 H 0.50835 0.80394 0.32016 0.0
H1252 H 0.48287 0.83624 0.37314 0.0
S1253 S 0.59525 0.93482 0.32108 0.0
N1254 N 0.59108 0.89677 0.29709 0.0
N1255 N 0.56352 0.9322 0.35409 0.0
C1256 C 0.54798 0.89912 0.34671 0.0
C1257 C 0.56303 0.87991 0.31591 0.0
C1258 C 0.18782 0.60743 0.34134 0.0
C1259 C 0.21113 0.58279 0.32248 0.0
C1260 C 0.15254 0.59642 0.35467 0.0
C1261 C 0.13978 0.56025 0.34986 0.0
H1262 H 0.19746 0.63492 0.34701 0.0
H1263 H 0.13645 0.61573 0.371 0.0
S1264 S 0.18862 0.48749 0.29672 0.0
N1265 N 0.21782 0.52253 0.29541 0.0
N1266 N 0.15166 0.50142 0.3207 0.0
C1267 C 0.16196 0.53629 0.32854 0.0
C1268 C 0.19773 0.54766 0.31486 0.0
C1269 C 0.52806 0.17877 0.34894 0.0
C1270 C 0.50418 0.2095 0.34837 0.0
C1271 C 0.52127 0.14963 0.37316 0.0
C1272 C 0.49043 0.15034 0.3975 0.0
H1273 H 0.55161 0.1769 0.33008 0.0
H1274 H 0.5391 0.12572 0.37147 0.0
S1275 S 0.42049 0.2255 0.40724 0.0
N1276 N 0.44934 0.2396 0.37469 0.0
N1277 N 0.43641 0.18498 0.41988 0.0
C1278 C 0.4668 0.18134 0.39739 0.0
C1279 C 0.47378 0.21092 0.37294 0.0
C1280 C 0.70288 0.87549 0.48525 0.0
C1281 C 0.69031 0.84492 0.46564 0.0
C1282 C 0.68297 0.9087 0.48411 0.0
C1283 C 0.64957 0.91243 0.46353 0.0
H1284 H 0.72846 0.87394 0.50133 0.0
H1285 H 0.69409 0.9317 0.49927 0.0
S1286 S 0.60456 0.83929 0.4083 0.0
N1287 N 0.64245 0.81961 0.42581 0.0
N1288 N 0.60455 0.88174 0.42373 0.0
C1289 C 0.63631 0.8815 0.44449 0.0
C1290 C 0.65684 0.8478 0.44551 0.0
C1291 C 0.66819 0.18004 0.55197 0.0
C1292 C 0.65971 0.21605 0.54165 0.0
C1293 C 0.64276 0.15162 0.54464 0.0
C1294 C 0.60845 0.15863 0.52666 0.0
H1295 H 0.69542 0.17348 0.56376 0.0
H1296 H 0.65149 0.12379 0.55012 0.0
S1297 S 0.57175 0.24915 0.49838 0.0
N1298 N 0.6136 0.25791 0.51613 0.0
N1299 N 0.56592 0.20456 0.50204 0.0
C1300 C 0.59876 0.19497 0.51868 0.0
C1301 C 0.62446 0.22376 0.52627 0.0
C1302 C 0.85846 0.69899 0.53821 0.0
C1303 C 0.84436 0.705 0.50291 0.0
C1304 C 0.87793 0.66688 0.54686 0.0
C1305 C 0.88433 0.6393 0.52054 0.0
H1306 H 0.85465 0.71949 0.55934 0.0
H1307 H 0.88835 0.66396 0.57453 0.0
S1308 S 0.85324 0.64247 0.42376 0.0
N1309 N 0.83819 0.68152 0.44123 0.0
N1310 N 0.87416 0.62042 0.45751 0.0
C1311 C 0.86992 0.64489 0.4851 0.0
C1312 C 0.85003 0.67786 0.47631 0.0
C1313 C 0.32934 0.85406 0.53143 0.0
C1314 C 0.31382 0.83151 0.55868 0.0
C1315 C 0.36082 0.87609 0.53846 0.0
C1316 C 0.37813 0.87654 0.57307 0.0
H1317 H 0.31678 0.85496 0.50447 0.0
H1318 H 0.37122 0.89337 0.51669 0.0
S1319 S 0.34839 0.82221 0.65386 0.0
N1320 N 0.31812 0.81086 0.62159 0.0
N1321 N 0.37753 0.85167 0.63482 0.0
C1322 C 0.36339 0.85339 0.60035 0.0
C1323 C 0.33124 0.83104 0.59316 0.0
C1324 C 0.20744 0.3735 0.49766 0.0
C1325 C 0.19986 0.34037 0.47992 0.0
C1326 C 0.18278 0.40338 0.4944 0.0
C1327 C 0.14987 0.40121 0.47294 0.0
H1328 H 0.23321 0.37676 0.51322 0.0
H1329 H 0.19048 0.42876 0.50765 0.0
S1330 S 0.11586 0.31837 0.42436 0.0
N1331 N 0.15635 0.30558 0.44271 0.0
N1332 N 0.10963 0.36153 0.43638 0.0
C1333 C 0.14121 0.36734 0.45652 0.0
C1334 C 0.16638 0.33695 0.46002 0.0
C1335 C 0.32807 0.13596 0.46804 0.0
C1336 C 0.32521 0.16941 0.48714 0.0
C1337 C 0.35754 0.1112 0.47513 0.0
C1338 C 0.38479 0.1191 0.50174 0.0
H1339 H 0.30621 0.12802 0.44897 0.0
H1340 H 0.35721 0.08471 0.46191 0.0
S1341 S 0.39333 0.20489 0.55526 0.0
N1342 N 0.35464 0.21053 0.5308 0.0
N1343 N 0.41013 0.16435 0.54369 0.0
C1344 C 0.38413 0.1537 0.51856 0.0
C1345 C 0.3543 0.17884 0.51135 0.0
C1346 C 0.83014 0.35519 0.49759 0.0
C1347 C 0.84052 0.32223 0.51447 0.0
C1348 C 0.85185 0.38676 0.50201 0.0
C1349 C 0.88464 0.38662 0.52371 0.0
H1350 H 0.80448 0.35681 0.4816 0.0
H1351 H 0.84199 0.41176 0.48937 0.0
S1352 S 0.92516 0.30642 0.57203 0.0
N1353 N 0.88655 0.29075 0.55241 0.0
N1354 N 0.92773 0.34985 0.56034 0.0
C1355 C 0.8964 0.35328 0.5392 0.0
C1356 C 0.87421 0.32115 0.53473 0.0
C1357 C 0.14254 0.6823 0.54236 0.0
C1358 C 0.18012 0.6699 0.54347 0.0
C1359 C 0.1136 0.6595 0.52944 0.0
C1360 C 0.12157 0.62367 0.51783 0.0
H1361 H 0.1356 0.70993 0.55076 0.0
H1362 H 0.08507 0.67014 0.52782 0.0
S1363 S 0.21541 0.57871 0.5155 0.0
N1364 N 0.22375 0.61987 0.53219 0.0
N1365 N 0.16949 0.57706 0.50795 0.0
C1366 C 0.15895 0.61098 0.51935 0.0
C1367 C 0.18828 0.63413 0.53225 0.0
loop_
_geom_bond_atom_site_label_1
_geom_bond_atom_site_label_2
_geom_bond_distance
_geom_bond_site_symmetry_2
_ccdc_geom_bond_type
H0 C3 0.929 . S
H1 C6 0.929 . S
H2 C8 0.930 . S
C3 H0 0.929 . S
C3 C4 1.398 . S
C3 C5 1.396 . S
C4 C3 1.398 . S
C4 C8 1.407 . S
C5 C3 1.396 . S
C5 C6 1.394 . S
C6 H1 0.929 . S
C6 C5 1.394 . S
C6 C7 1.382 . S
C7 C6 1.382 . S
C7 C8 1.392 . S
C7 N9 1.420 . S
C8 H2 0.930 . S
C8 C4 1.407 . S
C8 C7 1.392 . S
N9 C7 1.420 . S
N9 C10 1.244 . S
C10 N9 1.244 . S
H11 C14 0.929 . S
H12 C17 0.929 . S
H13 C19 0.930 . S
C14 H11 0.929 . S
C14 C15 1.398 . S
C14 C16 1.396 . S
C15 C14 1.398 . S
C15 C19 1.407 . S
C16 C14 1.396 . S
C16 C17 1.394 . S
C17 H12 0.929 . S
C17 C16 1.394 . S
C17 C18 1.382 . S
C18 C17 1.382 . S
C18 C19 1.392 . S
C18 N20 1.420 . S
C19 H13 0.930 . S
C19 C15 1.407 . S
C19 C18 1.392 . S
N20 C18 1.420 . S
N20 C21 1.244 . S
C21 N20 1.244 . S
H22 C25 0.929 . S
H23 C28 0.929 . S
H24 C30 0.930 . S
C25 H22 0.929 . S
C25 C26 1.398 . S
C25 C27 1.396 . S
C26 C25 1.398 . S
C26 C30 1.407 . S
C27 C25 1.396 . S
C27 C28 1.394 . S
C28 H23 0.929 . S
C28 C27 1.394 . S
C28 C29 1.382 . S
C29 C28 1.382 . S
C29 C30 1.392 . S
C29 N31 1.420 . S
C30 H24 0.930 . S
C30 C26 1.407 . S
C30 C29 1.392 . S
N31 C29 1.420 . S
N31 C32 1.244 . S
C32 N31 1.244 . S
H33 C36 0.929 . S
H34 C39 0.929 . S
H35 C41 0.930 . S
C36 H33 0.929 . S
C36 C37 1.400 . S
C36 C38 1.396 . S
C37 C36 1.400 . S
C37 C41 1.405 1_545 S
C38 C36 1.396 . S
C38 C39 1.394 1_545 S
C39 H34 0.929 . S
C39 C38 1.394 1_565 S
C39 C40 1.382 . S
C40 C39 1.382 . S
C40 C41 1.392 . S
C40 N42 1.420 . S
C41 H35 0.930 . S
C41 C37 1.405 1_565 S
C41 C40 1.392 . S
N42 C40 1.420 . S
N42 C43 1.244 1_565 S
C43 N42 1.244 1_545 S
H44 C47 0.934 . S
H45 C50 0.929 . S
H46 C52 0.930 . S
C47 H44 0.934 . S
C47 C48 1.395 1_655 S
C47 C49 1.394 1_655 S
C48 C47 1.395 1_455 S
C48 C52 1.407 . S
C49 C47 1.394 1_455 S
C49 C50 1.394 . S
C50 H45 0.929 . S
C50 C49 1.394 . S
C50 C51 1.382 . S
C51 C50 1.382 . S
C51 C52 1.392 . S
C51 N53 1.420 . S
C52 H46 0.930 . S
C52 C48 1.407 . S
C52 C51 1.392 . S
N53 C51 1.420 . S
N53 C54 1.244 1_455 S
C54 N53 1.244 1_655 S
H55 C58 0.929 1_565 S
H56 C61 0.929 . S
H57 C63 0.930 . S
C58 H55 0.929 1_545 S
C58 C59 1.398 . S
C58 C60 1.396 . S
C59 C58 1.398 . S
C59 C63 1.407 . S
C60 C58 1.396 . S
C60 C61 1.394 . S
C61 H56 0.929 . S
C61 C60 1.394 . S
C61 C62 1.382 . S
C62 C61 1.382 . S
C62 C63 1.392 . S
C62 N64 1.420 . S
C63 H57 0.930 . S
C63 C59 1.407 . S
C63 C62 1.392 . S
N64 C62 1.420 . S
N64 C65 1.244 . S
C65 N64 1.244 . S
H66 C69 0.929 . S
H67 C72 0.929 . S
H68 C74 0.930 . S
C69 H66 0.929 . S
C69 C70 1.398 . S
C69 C71 1.396 . S
C70 C69 1.398 . S
C70 C74 1.407 . S
C71 C69 1.396 . S
C71 C72 1.394 . S
C72 H67 0.929 . S
C72 C71 1.394 . S
C72 C73 1.382 . S
C73 C72 1.382 . S
C73 C74 1.392 . S
C73 N75 1.420 . S
C74 H68 0.930 . S
C74 C70 1.407 . S
C74 C73 1.392 . S
N75 C73 1.420 . S
N75 C76 1.244 . S
C76 N75 1.244 . S
H77 C80 0.929 . S
H78 C83 0.929 . S
H79 C85 0.930 . S
C80 H77 0.929 . S
C80 C81 1.398 . S
C80 C82 1.396 . S
C81 C80 1.398 . S
C81 C85 1.407 . S
C82 C80 1.396 . S
C82 C83 1.394 . S
C83 H78 0.929 . S
C83 C82 1.394 . S
C83 C84 1.382 . S
C84 C83 1.382 . S
C84 C85 1.392 . S
C84 N86 1.420 . S
C85 H79 0.930 . S
C85 C81 1.407 . S
C85 C84 1.392 . S
N86 C84 1.420 . S
N86 C87 1.244 . S
C87 N86 1.244 . S
H88 C91 0.929 . S
H89 C94 0.929 . S
H90 C96 0.930 . S
C91 H88 0.929 . S
C91 C92 1.398 . S
C91 C93 1.396 . S
C92 C91 1.398 . S
C92 C96 1.407 . S
C93 C91 1.396 . S
C93 C94 1.394 . S
C94 H89 0.929 . S
C94 C93 1.394 . S
C94 C95 1.382 . S
C95 C94 1.382 . S
C95 C96 1.392 . S
C95 N97 1.420 . S
C96 H90 0.930 . S
C96 C92 1.407 . S
C96 C95 1.392 . S
N97 C95 1.420 . S
N97 C98 1.244 . S
C98 N97 1.244 . S
H99 C102 0.929 . S
H100 C105 0.929 . S
H101 C107 0.930 . S
C102 H99 0.929 . S
C102 C103 1.398 . S
C102 C104 1.396 . S
C103 C102 1.398 . S
C103 C107 1.407 . S
C104 C102 1.396 . S
C104 C105 1.394 . S
C105 H100 0.929 . S
C105 C104 1.394 . S
C105 C106 1.382 . S
C106 C105 1.382 . S
C106 C107 1.392 . S
C106 N108 1.420 . S
C107 H101 0.930 . S
C107 C103 1.407 . S
C107 C106 1.392 . S
N108 C106 1.420 . S
N108 C109 1.244 . S
C109 N108 1.244 . S
H110 C113 0.929 . S
H111 C116 0.929 . S
H112 C118 0.930 . S
C113 H110 0.929 . S
C113 C114 1.396 1_554 S
C113 C115 1.397 . S
C114 C113 1.396 1_556 S
C114 C118 1.411 . S
C115 C113 1.397 . S
C115 C116 1.392 1_554 S
C116 H111 0.929 . S
C116 C115 1.392 1_556 S
C116 C117 1.382 . S
C117 C116 1.382 . S
C117 C118 1.392 . S
C117 N119 1.420 . S
C118 H112 0.930 . S
C118 C114 1.411 . S
C118 C117 1.392 . S
N119 C117 1.420 . S
N119 C120 1.244 1_556 S
C120 N119 1.244 1_554 S
H121 C124 0.932 . S
H122 C127 0.929 . S
H123 C129 0.930 . S
C124 H121 0.932 . S
C124 C125 1.397 1_556 S
C124 C126 1.394 1_556 S
C125 C124 1.397 1_554 S
C125 C129 1.407 . S
C126 C124 1.394 1_554 S
C126 C127 1.394 . S
C127 H122 0.929 . S
C127 C126 1.394 . S
C127 C128 1.382 . S
C128 C127 1.382 . S
C128 C129 1.392 . S
C128 N130 1.420 . S
C129 H123 0.930 . S
C129 C125 1.407 . S
C129 C128 1.392 . S
N130 C128 1.420 . S
N130 C131 1.244 . S
C131 N130 1.244 . S
H132 C135 0.929 . S
H133 C138 0.929 . S
H134 C140 0.930 . S
C135 H132 0.929 . S
C135 C136 1.398 . S
C135 C137 1.396 . S
C136 C135 1.398 . S
C136 C140 1.407 . S
C137 C135 1.396 . S
C137 C138 1.394 . S
C138 H133 0.929 . S
C138 C137 1.394 . S
C138 C139 1.382 . S
C139 C138 1.382 . S
C139 C140 1.392 . S
C139 N141 1.420 . S
C140 H134 0.930 . S
C140 C136 1.407 . S
C140 C139 1.392 . S
N141 C139 1.420 . S
N141 C142 1.244 . S
C142 N141 1.244 . S
H143 C146 0.929 . S
H144 C149 0.929 . S
H145 C151 0.930 . S
C146 H143 0.929 . S
C146 C147 1.398 . S
C146 C148 1.396 . S
C147 C146 1.398 . S
C147 C151 1.407 . S
C148 C146 1.396 . S
C148 C149 1.394 . S
C149 H144 0.929 . S
C149 C148 1.394 . S
C149 C150 1.382 . S
C150 C149 1.382 . S
C150 C151 1.392 . S
C150 N152 1.420 . S
C151 H145 0.930 . S
C151 C147 1.407 . S
C151 C150 1.392 . S
N152 C150 1.420 . S
N152 C153 1.244 . S
C153 N152 1.244 . S
H154 C157 0.929 . S
H155 C160 0.929 . S
H156 C162 0.930 . S
C157 H154 0.929 . S
C157 C158 1.398 . S
C157 C159 1.396 . S
C158 C157 1.398 . S
C158 C162 1.407 . S
C159 C157 1.396 . S
C159 C160 1.394 . S
C160 H155 0.929 . S
C160 C159 1.394 . S
C160 C161 1.382 . S
C161 C160 1.382 . S
C161 C162 1.392 . S
C161 N163 1.420 . S
C162 H156 0.930 . S
C162 C158 1.407 . S
C162 C161 1.392 . S
N163 C161 1.420 . S
N163 C164 1.244 . S
C164 N163 1.244 . S
H165 C168 0.929 . S
H166 C171 0.929 . S
H167 C173 0.930 . S
C168 H165 0.929 . S
C168 C169 1.398 . S
C168 C170 1.396 . S
C169 C168 1.398 . S
C169 C173 1.407 . S
C170 C168 1.396 . S
C170 C171 1.394 . S
C171 H166 0.929 . S
C171 C170 1.394 . S
C171 C172 1.382 . S
C172 C171 1.382 . S
C172 C173 1.392 . S
C172 N174 1.420 . S
C173 H167 0.930 . S
C173 C169 1.407 . S
C173 C172 1.392 . S
N174 C172 1.420 . S
N174 C175 1.244 . S
C175 N174 1.244 . S
H176 C179 0.929 . S
H177 C182 0.929 . S
H178 C184 0.930 . S
C179 H176 0.929 . S
C179 C180 1.398 . S
C179 C181 1.396 . S
C180 C179 1.398 . S
C180 C184 1.407 . S
C181 C179 1.396 . S
C181 C182 1.394 . S
C182 H177 0.929 . S
C182 C181 1.394 . S
C182 C183 1.382 . S
C183 C182 1.382 . S
C183 C184 1.392 . S
C183 N185 1.420 . S
C184 H178 0.930 . S
C184 C180 1.407 . S
C184 C183 1.392 . S
N185 C183 1.420 . S
N185 C186 1.244 . S
C186 N185 1.244 . S
H187 C190 0.929 . S
H188 C193 0.929 . S
H189 C195 0.930 . S
C190 H187 0.929 . S
C190 C191 1.398 . S
C190 C192 1.396 . S
C191 C190 1.398 . S
C191 C195 1.407 . S
C192 C190 1.396 . S
C192 C193 1.394 . S
C193 H188 0.929 . S
C193 C192 1.394 . S
C193 C194 1.382 . S
C194 C193 1.382 . S
C194 C195 1.392 . S
C194 N196 1.420 . S
C195 H189 0.930 . S
C195 C191 1.407 . S
C195 C194 1.392 . S
N196 C194 1.420 . S
N196 C197 1.244 . S
C197 N196 1.244 . S
H198 C201 0.929 . S
H199 C204 0.929 . S
H200 C206 0.930 . S
C201 H198 0.929 . S
C201 C202 1.398 . S
C201 C203 1.396 . S
C202 C201 1.398 . S
C202 C206 1.407 . S
C203 C201 1.396 . S
C203 C204 1.394 . S
C204 H199 0.929 . S
C204 C203 1.394 . S
C204 C205 1.382 . S
C205 C204 1.382 . S
C205 C206 1.392 . S
C205 N207 1.420 . S
C206 H200 0.930 . S
C206 C202 1.407 . S
C206 C205 1.392 . S
N207 C205 1.420 . S
N207 C208 1.244 . S
C208 N207 1.244 . S
H209 C212 0.929 . S
H210 C215 0.929 . S
H211 C217 0.930 . S
C212 H209 0.929 . S
C212 C213 1.398 . S
C212 C214 1.396 . S
C213 C212 1.398 . S
C213 C217 1.407 . S
C214 C212 1.396 . S
C214 C215 1.394 . S
C215 H210 0.929 . S
C215 C214 1.394 . S
C215 C216 1.382 . S
C216 C215 1.382 . S
C216 C217 1.392 . S
C216 N218 1.420 . S
C217 H211 0.930 . S
C217 C213 1.407 . S
C217 C216 1.392 . S
N218 C216 1.420 . S
N218 C219 1.244 . S
C219 N218 1.244 . S
H220 C223 0.929 . S
H221 C226 0.929 . S
H222 C228 0.930 . S
C223 H220 0.929 . S
C223 C224 1.398 . S
C223 C225 1.396 . S
C224 C223 1.398 . S
C224 C228 1.407 . S
C225 C223 1.396 . S
C225 C226 1.394 . S
C226 H221 0.929 . S
C226 C225 1.394 . S
C226 C227 1.382 . S
C227 C226 1.382 . S
C227 C228 1.392 . S
C227 N229 1.420 . S
C228 H222 0.930 . S
C228 C224 1.407 . S
C228 C227 1.392 . S
N229 C227 1.420 . S
N229 C230 1.244 . S
C230 N229 1.244 . S
H231 C234 0.929 . S
H232 C237 0.929 . S
H233 C239 0.930 . S
C234 H231 0.929 . S
C234 C235 1.398 . S
C234 C236 1.396 . S
C235 C234 1.398 . S
C235 C239 1.407 . S
C236 C234 1.396 . S
C236 C237 1.394 . S
C237 H232 0.929 . S
C237 C236 1.394 . S
C237 C238 1.382 . S
C238 C237 1.382 . S
C238 C239 1.392 . S
C238 N240 1.420 . S
C239 H233 0.930 . S
C239 C235 1.407 . S
C239 C238 1.392 . S
N240 C238 1.420 . S
N240 C241 1.244 . S
C241 N240 1.244 . S
H242 C245 0.929 . S
H243 C248 0.929 . S
H244 C250 0.930 . S
C245 H242 0.929 . S
C245 C246 1.398 . S
C245 C247 1.396 . S
C246 C245 1.398 . S
C246 C250 1.407 . S
C247 C245 1.396 . S
C247 C248 1.394 . S
C248 H243 0.929 . S
C248 C247 1.394 . S
C248 C249 1.382 . S
C249 C248 1.382 . S
C249 C250 1.392 . S
C249 N251 1.420 . S
C250 H244 0.930 . S
C250 C246 1.407 . S
C250 C249 1.392 . S
N251 C249 1.420 . S
N251 C252 1.244 . S
C252 N251 1.244 . S
H253 C256 0.929 . S
H254 C259 0.929 . S
H255 C261 0.930 . S
C256 H253 0.929 . S
C256 C257 1.398 . S
C256 C258 1.396 . S
C257 C256 1.398 . S
C257 C261 1.407 . S
C258 C256 1.396 . S
C258 C259 1.394 . S
C259 H254 0.929 . S
C259 C258 1.394 . S
C259 C260 1.382 . S
C260 C259 1.382 . S
C260 C261 1.392 . S
C260 N262 1.420 . S
C261 H255 0.930 . S
C261 C257 1.407 . S
C261 C260 1.392 . S
N262 C260 1.420 . S
N262 C263 1.244 . S
C263 N262 1.244 . S
Zn264 O266 1.933 1_665 S
Zn264 O284 1.985 . S
Zn264 O295 1.959 . S
Zn265 O266 1.911 1_655 S
Zn265 O285 1.970 . S
Zn265 O301 1.934 1_655 S
Zn265 O308 1.981 . S
O266 Zn264 1.933 1_445 S
O266 Zn265 1.911 1_455 S
O266 H267 0.841 . S
H267 O266 0.841 . S
C268 O269 1.246 . S
C268 O297 1.276 . S
O269 C268 1.246 . S
Zn270 O272 1.911 . S
Zn270 O287 1.970 . S
Zn270 O304 1.945 . S
Zn270 O311 1.981 . S
Zn271 O272 1.933 1_565 S
Zn271 O286 1.985 . S
Zn271 O293 1.955 . S
O272 Zn270 1.911 . S
O272 Zn271 1.933 1_545 S
O272 H273 0.841 . S
H273 O272 0.841 . S
Zn274 O275 1.933 1_565 S
Zn274 O288 1.985 . S
Zn274 O297 1.955 . S
O275 Zn274 1.933 1_545 S
O275 Zn276 1.911 . S
O275 H277 0.841 . S
Zn276 O275 1.911 . S
Zn276 O289 1.970 . S
Zn276 O305 1.981 1_655 S
Zn276 O307 1.945 . S
H277 O275 0.841 . S
Zn278 O279 1.933 1_565 S
Zn278 O291 1.985 . S
Zn278 O299 1.955 . S
O279 Zn278 1.933 1_545 S
O279 H280 0.841 . S
O279 Zn281 1.911 . S
H280 O279 0.841 . S
Zn281 O279 1.911 . S
Zn281 O292 1.970 . S
Zn281 O302 1.981 . S
Zn281 O310 1.945 . S
C282 O283 1.246 . S
C282 O299 1.276 . S
O283 C282 1.246 . S
O284 Zn264 1.985 . S
O284 C294 1.245 1_565 S
O285 Zn265 1.970 . S
O285 C294 1.263 . S
O286 Zn271 1.985 . S
O286 C298 1.245 1_565 S
O287 Zn270 1.970 . S
O287 C298 1.263 . S
O288 Zn274 1.985 . S
O288 C303 1.245 1_565 S
O289 Zn276 1.970 . S
O289 C303 1.263 . S
C290 O301 1.291 . S
C290 O302 1.245 . S
O291 Zn278 1.985 . S
O291 C309 1.245 1_565 S
O292 Zn281 1.970 . S
O292 C309 1.263 . S
O293 Zn271 1.955 . S
O293 C312 1.276 . S
C294 O284 1.245 1_545 S
C294 O285 1.263 . S
O295 Zn264 1.959 . S
O295 C314 1.262 1_655 S
C296 O304 1.262 . S
C296 O305 1.245 . S
O297 C268 1.276 . S
O297 Zn274 1.955 . S
C298 O286 1.245 1_545 S
C298 O287 1.263 . S
O299 Zn278 1.955 . S
O299 C282 1.276 . S
C300 O307 1.262 . S
C300 O308 1.245 . S
O301 Zn265 1.934 1_455 S
O301 C290 1.291 . S
O302 Zn281 1.981 . S
O302 C290 1.245 . S
C303 O288 1.245 1_545 S
C303 O289 1.263 . S
O304 Zn270 1.945 . S
O304 C296 1.262 . S
O305 Zn276 1.981 1_455 S
O305 C296 1.245 . S
C306 O310 1.262 . S
C306 O311 1.245 . S
O307 Zn276 1.945 . S
O307 C300 1.262 . S
O308 Zn265 1.981 . S
O308 C300 1.245 . S
C309 O291 1.245 1_545 S
C309 O292 1.263 . S
O310 Zn281 1.945 . S
O310 C306 1.262 . S
O311 Zn270 1.981 . S
O311 C306 1.245 . S
C312 O293 1.276 . S
C312 O313 1.246 . S
O313 C312 1.246 . S
C314 O295 1.262 1_455 S
C314 O315 1.246 . S
O315 C314 1.246 . S
Zn316 O318 1.933 . S
Zn316 O336 1.985 . S
Zn316 O347 1.955 . S
Zn317 O318 1.911 1_556 S
Zn317 O337 1.970 . S
Zn317 O353 1.945 . S
Zn317 O360 1.981 . S
O318 Zn316 1.933 . S
O318 Zn317 1.911 1_554 S
O318 H319 0.841 . S
H319 O318 0.841 . S
C320 O321 1.246 . S
C320 O349 1.276 . S
O321 C320 1.246 . S
Zn322 O324 1.911 1_556 S
Zn322 O339 1.970 . S
Zn322 O356 1.945 . S
Zn322 O363 1.981 . S
Zn323 O324 1.933 . S
Zn323 O338 1.985 . S
Zn323 O345 1.955 . S
O324 Zn322 1.911 1_554 S
O324 Zn323 1.933 . S
O324 H325 0.841 1_565 S
H325 O324 0.841 1_545 S
Zn326 O327 1.933 . S
Zn326 O340 1.985 . S
Zn326 O349 1.955 . S
O327 Zn326 1.933 . S
O327 Zn328 1.911 1_554 S
O327 H329 0.841 . S
Zn328 O327 1.911 1_556 S
Zn328 O341 1.970 . S
Zn328 O357 1.981 . S
Zn328 O359 1.945 . S
H329 O327 0.841 . S
Zn330 O331 1.933 . S
Zn330 O343 1.985 . S
Zn330 O351 1.955 . S
O331 Zn330 1.933 . S
O331 H332 0.841 . S
O331 Zn333 1.911 1_554 S
H332 O331 0.841 . S
Zn333 O331 1.911 1_556 S
Zn333 O344 1.970 . S
Zn333 O354 1.981 . S
Zn333 O362 1.945 . S
C334 O335 1.246 . S
C334 O351 1.276 . S
O335 C334 1.246 . S
O336 Zn316 1.985 . S
O336 C346 1.245 . S
O337 Zn317 1.970 . S
O337 C346 1.263 1_556 S
O338 Zn323 1.985 . S
O338 C350 1.245 . S
O339 Zn322 1.970 . S
O339 C350 1.263 1_556 S
O340 Zn326 1.985 . S
O340 C355 1.245 . S
O341 Zn328 1.970 . S
O341 C355 1.263 1_556 S
C342 O353 1.262 . S
C342 O354 1.245 1_545 S
O343 Zn330 1.985 . S
O343 C361 1.245 . S
O344 Zn333 1.970 . S
O344 C361 1.263 1_556 S
O345 Zn323 1.955 . S
O345 C364 1.276 1_565 S
C346 O336 1.245 . S
C346 O337 1.263 1_554 S
O347 Zn316 1.955 . S
O347 C366 1.276 . S
C348 O356 1.262 1_545 S
C348 O357 1.245 . S
O349 C320 1.276 . S
O349 Zn326 1.955 . S
C350 O338 1.245 . S
C350 O339 1.263 1_554 S
O351 Zn330 1.955 . S
O351 C334 1.276 . S
C352 O359 1.262 . S
C352 O360 1.245 . S
O353 Zn317 1.945 . S
O353 C342 1.262 . S
O354 Zn333 1.981 . S
O354 C342 1.245 1_565 S
C355 O340 1.245 . S
C355 O341 1.263 1_554 S
O356 Zn322 1.945 . S
O356 C348 1.262 1_565 S
O357 Zn328 1.981 . S
O357 C348 1.245 . S
C358 O362 1.262 . S
C358 O363 1.245 . S
O359 Zn328 1.945 . S
O359 C352 1.262 . S
O360 Zn317 1.981 . S
O360 C352 1.245 . S
C361 O343 1.245 . S
C361 O344 1.263 1_554 S
O362 Zn333 1.945 . S
O362 C358 1.262 . S
O363 Zn322 1.981 . S
O363 C358 1.245 . S
C364 O345 1.276 1_545 S
C364 O365 1.246 . S
O365 C364 1.246 . S
C366 O347 1.276 . S
C366 O367 1.246 1_545 S
O367 C366 1.246 1_565 S
Zn368 O370 1.933 . S
Zn368 O388 1.985 . S
Zn368 O399 1.955 . S
Zn369 O370 1.911 . S
Zn369 O389 1.970 . S
Zn369 O405 1.945 . S
Zn369 O412 1.981 . S
O370 Zn368 1.933 . S
O370 Zn369 1.911 . S
O370 H371 0.839 1_655 S
H371 O370 0.839 1_455 S
C372 O373 1.246 1_554 S
C372 O401 1.276 . S
O373 C372 1.246 1_556 S
Zn374 O376 1.911 . S
Zn374 O391 1.970 . S
Zn374 O408 1.945 . S
Zn374 O415 1.981 . S
Zn375 O376 1.933 . S
Zn375 O390 1.985 . S
Zn375 O397 1.955 . S
O376 Zn374 1.911 . S
O376 Zn375 1.933 . S
O376 H377 0.841 . S
H377 O376 0.841 . S
Zn378 O379 1.933 . S
Zn378 O392 1.985 . S
Zn378 O401 1.955 . S
O379 Zn378 1.933 . S
O379 Zn380 1.911 . S
O379 H381 0.841 . S
Zn380 O379 1.911 . S
Zn380 O393 1.970 . S
Zn380 O409 1.981 . S
Zn380 O411 1.945 . S
H381 O379 0.841 . S
Zn382 O383 1.933 . S
Zn382 O395 1.985 . S
Zn382 O403 1.955 . S
O383 Zn382 1.933 . S
O383 H384 0.841 . S
O383 Zn385 1.911 . S
H384 O383 0.841 . S
Zn385 O383 1.911 . S
Zn385 O396 1.970 . S
Zn385 O406 1.981 . S
Zn385 O414 1.945 . S
C386 O387 1.246 . S
C386 O403 1.276 1_554 S
O387 C386 1.246 . S
O388 Zn368 1.985 . S
O388 C398 1.245 . S
O389 Zn369 1.970 . S
O389 C398 1.263 . S
O390 Zn375 1.985 . S
O390 C402 1.245 . S
O391 Zn374 1.970 . S
O391 C402 1.263 . S
O392 Zn378 1.985 . S
O392 C407 1.245 . S
O393 Zn380 1.970 . S
O393 C407 1.263 . S
C394 O405 1.262 1_455 S
C394 O406 1.245 . S
O395 Zn382 1.985 . S
O395 C413 1.245 . S
O396 Zn385 1.970 . S
O396 C413 1.263 . S
O397 Zn375 1.955 . S
O397 C416 1.276 . S
C398 O388 1.245 . S
C398 O389 1.263 . S
O399 Zn368 1.955 . S
O399 C418 1.276 1_655 S
C400 O408 1.262 . S
C400 O409 1.245 1_455 S
O401 C372 1.276 . S
O401 Zn378 1.955 . S
C402 O390 1.245 . S
C402 O391 1.263 . S
O403 Zn382 1.955 . S
O403 C386 1.276 1_556 S
C404 O411 1.262 . S
C404 O412 1.245 1_554 S
O405 Zn369 1.945 . S
O405 C394 1.262 1_655 S
O406 Zn385 1.981 . S
O406 C394 1.245 . S
C407 O392 1.245 . S
C407 O393 1.263 . S
O408 Zn374 1.945 . S
O408 C400 1.262 . S
O409 Zn380 1.981 . S
O409 C400 1.245 1_655 S
C410 O414 1.262 1_554 S
C410 O415 1.245 . S
O411 Zn380 1.945 . S
O411 C404 1.262 . S
O412 Zn369 1.981 . S
O412 C404 1.245 1_556 S
C413 O395 1.245 . S
C413 O396 1.263 . S
O414 Zn385 1.945 . S
O414 C410 1.262 1_556 S
O415 Zn374 1.981 . S
O415 C410 1.245 . S
C416 O397 1.276 . S
C416 O417 1.246 1_455 S
O417 C416 1.246 1_655 S
C418 O399 1.276 1_455 S
C418 O419 1.246 . S
O419 C418 1.246 . S
Zn420 O422 1.933 1_556 S
Zn420 O440 1.985 . S
Zn420 O451 1.955 . S
Zn421 O422 1.911 . S
Zn421 O441 1.970 . S
Zn421 O457 1.945 . S
Zn421 O464 1.981 . S
O422 Zn420 1.933 1_554 S
O422 Zn421 1.911 . S
O422 H423 0.841 . S
H423 O422 0.841 . S
C424 O425 1.246 . S
C424 O453 1.276 . S
O425 C424 1.246 . S
Zn426 O428 1.911 . S
Zn426 O443 1.970 . S
Zn426 O460 1.945 . S
Zn426 O467 1.981 . S
Zn427 O428 1.933 1_556 S
Zn427 O442 1.985 . S
Zn427 O449 1.955 . S
O428 Zn426 1.911 . S
O428 Zn427 1.933 1_554 S
O428 H429 0.841 . S
H429 O428 0.841 . S
Zn430 O431 1.933 1_556 S
Zn430 O444 1.985 . S
Zn430 O453 1.955 . S
O431 Zn430 1.933 1_554 S
O431 Zn432 1.911 . S
O431 H433 0.841 . S
Zn432 O431 1.911 . S
Zn432 O445 1.970 . S
Zn432 O461 1.981 . S
Zn432 O463 1.945 . S
H433 O431 0.841 . S
Zn434 O435 1.933 1_556 S
Zn434 O447 1.985 . S
Zn434 O455 1.955 . S
O435 Zn434 1.933 1_554 S
O435 H436 0.841 . S
O435 Zn437 1.911 . S
H436 O435 0.841 . S
Zn437 O435 1.911 . S
Zn437 O448 1.970 . S
Zn437 O458 1.981 . S
Zn437 O466 1.945 . S
C438 O439 1.246 . S
C438 O455 1.276 . S
O439 C438 1.246 . S
O440 Zn420 1.985 . S
O440 C450 1.245 1_556 S
O441 Zn421 1.970 . S
O441 C450 1.263 . S
O442 Zn427 1.985 . S
O442 C454 1.245 1_556 S
O443 Zn426 1.970 . S
O443 C454 1.263 . S
O444 Zn430 1.985 . S
O444 C459 1.245 1_556 S
O445 Zn432 1.970 . S
O445 C459 1.263 . S
C446 O457 1.262 . S
C446 O458 1.245 . S
O447 Zn434 1.985 . S
O447 C465 1.245 1_556 S
O448 Zn437 1.970 . S
O448 C465 1.263 . S
O449 Zn427 1.955 . S
O449 C468 1.276 . S
C450 O440 1.245 1_554 S
C450 O441 1.263 . S
O451 Zn420 1.955 . S
O451 C470 1.276 . S
C452 O460 1.262 . S
C452 O461 1.245 . S
O453 C424 1.276 . S
O453 Zn430 1.955 . S
C454 O442 1.245 1_554 S
C454 O443 1.263 . S
O455 Zn434 1.955 . S
O455 C438 1.276 . S
C456 O463 1.262 . S
C456 O464 1.245 . S
O457 Zn421 1.945 . S
O457 C446 1.262 . S
O458 Zn437 1.981 . S
O458 C446 1.245 . S
C459 O444 1.245 1_554 S
C459 O445 1.263 . S
O460 Zn426 1.945 . S
O460 C452 1.262 . S
O461 Zn432 1.981 . S
O461 C452 1.245 . S
C462 O466 1.262 . S
C462 O467 1.245 . S
O463 Zn432 1.945 . S
O463 C456 1.262 . S
O464 Zn421 1.981 . S
O464 C456 1.245 . S
C465 O447 1.245 1_554 S
C465 O448 1.263 . S
O466 Zn437 1.945 . S
O466 C462 1.262 . S
O467 Zn426 1.981 . S
O467 C462 1.245 . S
C468 O449 1.276 . S
C468 O469 1.246 . S
O469 C468 1.246 . S
C470 O451 1.276 . S
C470 O471 1.246 . S
O471 C470 1.246 . S
Zn472 O474 1.933 . S
Zn472 O492 1.985 . S
Zn472 O503 1.955 . S
Zn473 O474 1.911 . S
Zn473 O493 1.970 . S
Zn473 O509 1.945 . S
Zn473 O516 1.981 . S
O474 Zn472 1.933 . S
O474 Zn473 1.911 . S
O474 H475 0.841 1_655 S
H475 O474 0.841 1_455 S
C476 O477 1.246 . S
C476 O505 1.276 . S
O477 C476 1.246 . S
Zn478 O480 1.911 . S
Zn478 O495 1.970 . S
Zn478 O512 1.945 . S
Zn478 O519 1.981 . S
Zn479 O480 1.933 . S
Zn479 O494 1.985 . S
Zn479 O501 1.955 . S
O480 Zn478 1.911 . S
O480 Zn479 1.933 . S
O480 H481 0.841 . S
H481 O480 0.841 . S
Zn482 O483 1.933 . S
Zn482 O496 1.985 . S
Zn482 O505 1.955 . S
O483 Zn482 1.933 . S
O483 Zn484 1.911 . S
O483 H485 0.841 . S
Zn484 O483 1.911 . S
Zn484 O497 1.970 . S
Zn484 O513 1.984 . S
Zn484 O515 1.945 . S
H485 O483 0.841 . S
Zn486 O487 1.933 . S
Zn486 O499 1.985 . S
Zn486 O507 1.955 . S
O487 Zn486 1.933 . S
O487 H488 0.841 . S
O487 Zn489 1.911 . S
H488 O487 0.841 . S
Zn489 O487 1.911 . S
Zn489 O500 1.970 . S
Zn489 O510 1.981 . S
Zn489 O518 1.945 . S
C490 O491 1.246 . S
C490 O507 1.276 . S
O491 C490 1.246 . S
O492 Zn472 1.985 . S
O492 C502 1.245 . S
O493 Zn473 1.970 . S
O493 C502 1.263 . S
O494 Zn479 1.985 . S
O494 C506 1.245 . S
O495 Zn478 1.970 . S
O495 C506 1.263 . S
O496 Zn482 1.985 . S
O496 C511 1.245 . S
O497 Zn484 1.970 . S
O497 C511 1.263 . S
C498 O509 1.262 1_455 S
C498 O510 1.245 . S
O499 Zn486 1.985 . S
O499 C517 1.245 . S
O500 Zn489 1.970 . S
O500 C517 1.263 . S
O501 Zn479 1.955 . S
O501 C520 1.276 . S
C502 O492 1.245 . S
C502 O493 1.263 . S
O503 Zn472 1.955 . S
O503 C522 1.276 1_655 S
C504 O512 1.262 . S
C504 O513 1.243 1_455 S
O505 C476 1.276 . S
O505 Zn482 1.955 . S
C506 O494 1.245 . S
C506 O495 1.263 . S
O507 Zn486 1.955 . S
O507 C490 1.276 . S
C508 O515 1.262 . S
C508 O516 1.245 . S
O509 Zn473 1.945 . S
O509 C498 1.262 1_655 S
O510 Zn489 1.981 . S
O510 C498 1.245 . S
C511 O496 1.245 . S
C511 O497 1.263 . S
O512 Zn478 1.945 . S
O512 C504 1.262 . S
O513 Zn484 1.984 . S
O513 C504 1.243 1_655 S
C514 O518 1.262 . S
C514 O519 1.245 . S
O515 Zn484 1.945 . S
O515 C508 1.262 . S
O516 Zn473 1.981 . S
O516 C508 1.245 . S
C517 O499 1.245 . S
C517 O500 1.263 . S
O518 Zn489 1.945 . S
O518 C514 1.262 . S
O519 Zn478 1.981 . S
O519 C514 1.245 . S
C520 O501 1.276 . S
C520 O521 1.260 . S
O521 C520 1.260 . S
C522 O503 1.276 1_455 S
C522 O523 1.246 . S
O523 C522 1.246 . S
Zn524 O526 1.933 1_565 S
Zn524 O544 1.985 . S
Zn524 O555 1.955 . S
Zn525 O526 1.911 . S
Zn525 O545 1.970 . S
Zn525 O561 1.945 . S
Zn525 O568 1.981 . S
O526 Zn524 1.933 1_545 S
O526 Zn525 1.911 . S
O526 H527 0.841 . S
H527 O526 0.841 . S
C528 O529 1.246 . S
C528 O557 1.276 . S
O529 C528 1.246 . S
Zn530 O532 1.911 . S
Zn530 O547 1.970 . S
Zn530 O564 1.945 . S
Zn530 O571 1.981 . S
Zn531 O532 1.933 1_565 S
Zn531 O546 1.985 . S
Zn531 O553 1.955 . S
O532 Zn530 1.911 . S
O532 Zn531 1.933 1_545 S
O532 H533 0.841 . S
H533 O532 0.841 . S
Zn534 O535 1.933 1_565 S
Zn534 O548 1.985 . S
Zn534 O557 1.955 . S
O535 Zn534 1.933 1_545 S
O535 Zn536 1.911 . S
O535 H537 0.841 . S
Zn536 O535 1.911 . S
Zn536 O549 1.970 . S
Zn536 O565 1.981 . S
Zn536 O567 1.945 . S
H537 O535 0.841 . S
Zn538 O539 1.933 1_565 S
Zn538 O551 1.985 . S
Zn538 O559 1.955 . S
O539 Zn538 1.933 1_545 S
O539 H540 0.841 . S
O539 Zn541 1.911 . S
H540 O539 0.841 . S
Zn541 O539 1.911 . S
Zn541 O552 1.970 . S
Zn541 O562 1.981 . S
Zn541 O570 1.945 . S
C542 O543 1.246 . S
C542 O559 1.276 . S
O543 C542 1.246 . S
O544 Zn524 1.985 . S
O544 C554 1.245 1_565 S
O545 Zn525 1.970 . S
O545 C554 1.263 . S
O546 Zn531 1.985 . S
O546 C558 1.245 1_565 S
O547 Zn530 1.970 . S
O547 C558 1.263 . S
O548 Zn534 1.985 . S
O548 C563 1.245 1_565 S
O549 Zn536 1.970 . S
O549 C563 1.263 . S
C550 O561 1.262 . S
C550 O562 1.245 . S
O551 Zn538 1.985 . S
O551 C569 1.245 1_565 S
O552 Zn541 1.970 . S
O552 C569 1.263 . S
O553 Zn531 1.955 . S
O553 C572 1.276 . S
C554 O544 1.245 1_545 S
C554 O545 1.263 . S
O555 Zn524 1.955 . S
O555 C574 1.276 . S
C556 O564 1.262 . S
C556 O565 1.245 . S
O557 C528 1.276 . S
O557 Zn534 1.955 . S
C558 O546 1.245 1_545 S
C558 O547 1.263 . S
O559 Zn538 1.955 . S
O559 C542 1.276 . S
C560 O567 1.262 . S
C560 O568 1.245 . S
O561 Zn525 1.945 . S
O561 C550 1.262 . S
O562 Zn541 1.981 . S
O562 C550 1.245 . S
C563 O548 1.245 1_545 S
C563 O549 1.263 . S
O564 Zn530 1.945 . S
O564 C556 1.262 . S
O565 Zn536 1.981 . S
O565 C556 1.245 . S
C566 O570 1.262 . S
C566 O571 1.245 . S
O567 Zn536 1.945 . S
O567 C560 1.262 . S
O568 Zn525 1.981 . S
O568 C560 1.245 . S
C569 O551 1.245 1_545 S
C569 O552 1.263 . S
O570 Zn541 1.945 . S
O570 C566 1.262 . S
O571 Zn530 1.981 . S
O571 C566 1.245 . S
C572 O553 1.276 . S
C572 O573 1.246 . S
O573 C572 1.246 . S
C574 O555 1.276 . S
C574 O575 1.246 . S
O575 C574 1.246 . S
C576 C577 1.369 . S
C576 C578 1.419 . S
C576 H580 0.930 . S
C577 C576 1.369 . S
C577 C586 1.429 . S
C578 C576 1.419 . S
C578 C579 1.363 . S
C578 H581 0.929 . S
C579 C578 1.363 . S
C579 C585 1.428 . S
H580 C576 0.930 . S
H581 C578 0.929 . S
S582 N583 1.613 . S
S582 N584 1.610 . S
N583 S582 1.613 . S
N583 C586 1.350 . S
N584 S582 1.610 . S
N584 C585 1.351 . S
C585 C579 1.428 . S
C585 N584 1.351 . S
C585 C586 1.434 . S
C586 C577 1.429 . S
C586 N583 1.350 . S
C586 C585 1.434 . S
C587 C588 1.369 . S
C587 C589 1.419 . S
C587 H591 0.930 . S
C588 C587 1.369 . S
C588 C597 1.429 . S
C589 C587 1.419 . S
C589 C590 1.363 . S
C589 H592 0.929 . S
C590 C589 1.363 . S
C590 C596 1.428 . S
H591 C587 0.930 . S
H592 C589 0.929 . S
S593 N594 1.613 . S
S593 N595 1.610 . S
N594 S593 1.613 . S
N594 C597 1.350 . S
N595 S593 1.610 . S
N595 C596 1.351 . S
C596 C590 1.428 . S
C596 N595 1.351 . S
C596 C597 1.434 . S
C597 C588 1.429 . S
C597 N594 1.350 . S
C597 C596 1.434 . S
C598 C599 1.369 . S
C598 C600 1.419 . S
C598 H602 0.930 . S
C599 C598 1.369 . S
C599 C608 1.429 . S
C600 C598 1.419 . S
C600 C601 1.363 . S
C600 H603 0.929 . S
C601 C600 1.363 . S
C601 C607 1.428 . S
H602 C598 0.930 . S
H603 C600 0.929 . S
S604 N605 1.613 . S
S604 N606 1.610 . S
N605 S604 1.613 . S
N605 C608 1.350 . S
N606 S604 1.610 . S
N606 C607 1.351 . S
C607 C601 1.428 . S
C607 N606 1.351 . S
C607 C608 1.434 . S
C608 C599 1.429 . S
C608 N605 1.350 . S
C608 C607 1.434 . S
C609 C610 1.369 . S
C609 C611 1.419 . S
C609 H613 0.930 . S
C610 C609 1.369 . S
C610 C619 1.429 . S
C611 C609 1.419 . S
C611 C612 1.363 . S
C611 H614 0.929 . S
C612 C611 1.363 . S
C612 C618 1.428 . S
H613 C609 0.930 . S
H614 C611 0.929 . S
S615 N616 1.613 . S
S615 N617 1.610 . S
N616 S615 1.613 . S
N616 C619 1.350 . S
N617 S615 1.610 . S
N617 C618 1.351 . S
C618 C612 1.428 . S
C618 N617 1.351 . S
C618 C619 1.434 . S
C619 C610 1.429 . S
C619 N616 1.350 . S
C619 C618 1.434 . S
C620 C621 1.369 . S
C620 C622 1.419 . S
C620 H624 0.930 . S
C621 C620 1.369 . S
C621 C630 1.429 . S
C622 C620 1.419 . S
C622 C623 1.363 . S
C622 H625 0.929 . S
C623 C622 1.363 . S
C623 C629 1.428 . S
H624 C620 0.930 . S
H625 C622 0.929 . S
S626 N627 1.613 . S
S626 N628 1.610 . S
N627 S626 1.613 . S
N627 C630 1.350 . S
N628 S626 1.610 . S
N628 C629 1.351 . S
C629 C623 1.428 . S
C629 N628 1.351 . S
C629 C630 1.434 . S
C630 C621 1.429 . S
C630 N627 1.350 . S
C630 C629 1.434 . S
C631 C632 1.369 . S
C631 C633 1.419 . S
C631 H635 0.930 . S
C632 C631 1.369 . S
C632 C641 1.429 . S
C633 C631 1.419 . S
C633 C634 1.363 . S
C633 H636 0.929 . S
C634 C633 1.363 . S
C634 C640 1.428 . S
H635 C631 0.930 . S
H636 C633 0.929 . S
S637 N638 1.613 . S
S637 N639 1.610 . S
N638 S637 1.613 . S
N638 C641 1.350 . S
N639 S637 1.610 . S
N639 C640 1.351 . S
C640 C634 1.428 . S
C640 N639 1.351 . S
C640 C641 1.434 . S
C641 C632 1.429 . S
C641 N638 1.350 . S
C641 C640 1.434 . S
C642 C643 1.369 . S
C642 C644 1.419 . S
C642 H646 0.930 . S
C643 C642 1.369 . S
C643 C652 1.429 . S
C644 C642 1.419 . S
C644 C645 1.363 . S
C644 H647 0.929 . S
C645 C644 1.363 . S
C645 C651 1.428 . S
H646 C642 0.930 . S
H647 C644 0.929 . S
S648 N649 1.613 . S
S648 N650 1.610 . S
N649 S648 1.613 . S
N649 C652 1.350 . S
N650 S648 1.610 . S
N650 C651 1.351 . S
C651 C645 1.428 . S
C651 N650 1.351 . S
C651 C652 1.434 . S
C652 C643 1.429 . S
C652 N649 1.350 . S
C652 C651 1.434 . S
C653 C654 1.369 . S
C653 C655 1.419 . S
C653 H657 0.930 . S
C654 C653 1.369 . S
C654 C663 1.429 . S
C655 C653 1.419 . S
C655 C656 1.363 . S
C655 H658 0.929 . S
C656 C655 1.363 . S
C656 C662 1.428 . S
H657 C653 0.930 . S
H658 C655 0.929 . S
S659 N660 1.613 . S
S659 N661 1.610 . S
N660 S659 1.613 . S
N660 C663 1.350 . S
N661 S659 1.610 . S
N661 C662 1.351 . S
C662 C656 1.428 . S
C662 N661 1.351 . S
C662 C663 1.434 . S
C663 C654 1.429 . S
C663 N660 1.350 . S
C663 C662 1.434 . S
C664 C665 1.369 . S
C664 C666 1.419 . S
C664 H668 0.930 . S
C665 C664 1.369 . S
C665 C674 1.429 . S
C666 C664 1.419 . S
C666 C667 1.363 . S
C666 H669 0.929 . S
C667 C666 1.363 . S
C667 C673 1.428 . S
H668 C664 0.930 . S
H669 C666 0.929 . S
S670 N671 1.613 . S
S670 N672 1.610 . S
N671 S670 1.613 . S
N671 C674 1.350 . S
N672 S670 1.610 . S
N672 C673 1.351 . S
C673 C667 1.428 . S
C673 N672 1.351 . S
C673 C674 1.434 . S
C674 C665 1.429 . S
C674 N671 1.350 . S
C674 C673 1.434 . S
C675 C676 1.369 . S
C675 C677 1.419 . S
C675 H679 0.930 . S
C676 C675 1.369 . S
C676 C685 1.429 . S
C677 C675 1.419 . S
C677 C678 1.363 . S
C677 H680 0.929 . S
C678 C677 1.363 . S
C678 C684 1.428 . S
H679 C675 0.930 . S
H680 C677 0.929 . S
S681 N682 1.613 . S
S681 N683 1.610 . S
N682 S681 1.613 . S
N682 C685 1.350 . S
N683 S681 1.610 . S
N683 C684 1.351 . S
C684 C678 1.428 . S
C684 N683 1.351 . S
C684 C685 1.434 . S
C685 C676 1.429 . S
C685 N682 1.350 . S
C685 C684 1.434 . S
C686 C687 1.369 . S
C686 C688 1.419 . S
C686 H690 0.930 . S
C687 C686 1.369 . S
C687 C696 1.429 . S
C688 C686 1.419 . S
C688 C689 1.363 . S
C688 H691 0.929 . S
C689 C688 1.363 . S
C689 C695 1.428 . S
H690 C686 0.930 . S
H691 C688 0.929 . S
S692 N693 1.613 . S
S692 N694 1.610 . S
N693 S692 1.613 . S
N693 C696 1.350 . S
N694 S692 1.610 . S
N694 C695 1.351 . S
C695 C689 1.428 . S
C695 N694 1.351 . S
C695 C696 1.434 . S
C696 C687 1.429 . S
C696 N693 1.350 . S
C696 C695 1.434 . S
C697 C698 1.369 . S
C697 C699 1.419 . S
C697 H701 0.930 . S
C698 C697 1.369 . S
C698 C707 1.429 . S
C699 C697 1.419 . S
C699 C700 1.363 . S
C699 H702 0.929 . S
C700 C699 1.363 . S
C700 C706 1.428 . S
H701 C697 0.930 . S
H702 C699 0.929 . S
S703 N704 1.613 . S
S703 N705 1.610 . S
N704 S703 1.613 . S
N704 C707 1.350 . S
N705 S703 1.610 . S
N705 C706 1.351 . S
C706 C700 1.428 . S
C706 N705 1.351 . S
C706 C707 1.434 . S
C707 C698 1.429 . S
C707 N704 1.350 . S
C707 C706 1.434 . S
C708 C709 1.369 1_556 S
C708 C710 1.419 . S
C708 H712 0.930 . S
C709 C708 1.369 1_554 S
C709 C718 1.429 . S
C710 C708 1.419 . S
C710 C711 1.363 1_556 S
C710 H713 0.929 . S
C711 C710 1.363 1_554 S
C711 C717 1.428 . S
H712 C708 0.930 . S
H713 C710 0.929 . S
S714 N715 1.613 . S
S714 N716 1.610 . S
N715 S714 1.613 . S
N715 C718 1.350 . S
N716 S714 1.610 . S
N716 C717 1.351 . S
C717 C711 1.428 . S
C717 N716 1.351 . S
C717 C718 1.434 . S
C718 C709 1.429 . S
C718 N715 1.350 . S
C718 C717 1.434 . S
C719 C720 1.369 . S
C719 C721 1.419 . S
C719 H723 0.930 . S
C720 C719 1.369 . S
C720 C729 1.429 . S
C721 C719 1.419 . S
C721 C722 1.363 . S
C721 H724 0.929 . S
C722 C721 1.363 . S
C722 C728 1.428 . S
H723 C719 0.930 . S
H724 C721 0.929 . S
S725 N726 1.613 . S
S725 N727 1.610 . S
N726 S725 1.613 . S
N726 C729 1.350 . S
N727 S725 1.610 . S
N727 C728 1.351 . S
C728 C722 1.428 . S
C728 N727 1.351 . S
C728 C729 1.434 . S
C729 C720 1.429 . S
C729 N726 1.350 . S
C729 C728 1.434 . S
C730 C731 1.369 . S
C730 C732 1.419 . S
C730 H734 0.924 1_554 S
C731 C730 1.369 . S
C731 C740 1.429 . S
C732 C730 1.419 . S
C732 C733 1.363 . S
C732 H735 0.929 1_554 S
C733 C732 1.363 . S
C733 C739 1.428 . S
H734 C730 0.924 1_556 S
H735 C732 0.929 1_556 S
S736 N737 1.613 . S
S736 N738 1.610 . S
N737 S736 1.613 . S
N737 C740 1.350 . S
N738 S736 1.610 . S
N738 C739 1.351 . S
C739 C733 1.428 . S
C739 N738 1.351 . S
C739 C740 1.434 . S
C740 C731 1.429 . S
C740 N737 1.350 . S
C740 C739 1.434 . S
C741 C742 1.369 1_556 S
C741 C743 1.419 . S
C741 H745 0.930 . S
C742 C741 1.369 1_554 S
C742 C751 1.429 . S
C743 C741 1.419 . S
C743 C744 1.363 1_556 S
C743 H746 0.929 . S
C744 C743 1.363 1_554 S
C744 C750 1.428 . S
H745 C741 0.930 . S
H746 C743 0.929 . S
S747 N748 1.613 . S
S747 N749 1.610 . S
N748 S747 1.613 . S
N748 C751 1.350 . S
N749 S747 1.610 . S
N749 C750 1.351 . S
C750 C744 1.428 . S
C750 N749 1.351 . S
C750 C751 1.434 . S
C751 C742 1.429 . S
C751 N748 1.350 . S
C751 C750 1.434 . S
C752 C753 1.369 . S
C752 C754 1.419 . S
C752 H756 0.930 . S
C753 C752 1.369 . S
C753 C762 1.429 1_455 S
C754 C752 1.419 . S
C754 C755 1.363 . S
C754 H757 0.929 . S
C755 C754 1.363 . S
C755 C761 1.428 1_455 S
H756 C752 0.930 . S
H757 C754 0.929 . S
S758 N759 1.613 . S
S758 N760 1.610 . S
N759 S758 1.613 . S
N759 C762 1.350 . S
N760 S758 1.610 . S
N760 C761 1.351 . S
C761 C755 1.428 1_655 S
C761 N760 1.351 . S
C761 C762 1.434 . S
C762 C753 1.429 1_655 S
C762 N759 1.350 . S
C762 C761 1.434 . S
C763 C764 1.369 . S
C763 C765 1.419 . S
C763 H767 0.930 . S
C764 C763 1.369 . S
C764 C773 1.429 1_545 S
C765 C763 1.419 . S
C765 C766 1.363 . S
C765 H768 0.929 . S
C766 C765 1.363 . S
C766 C772 1.437 . S
H767 C763 0.930 . S
H768 C765 0.929 . S
S769 N770 1.613 . S
S769 N771 1.610 . S
N770 S769 1.613 . S
N770 C773 1.350 . S
N771 S769 1.610 . S
N771 C772 1.344 1_565 S
C772 C766 1.437 . S
C772 N771 1.344 1_545 S
C772 C773 1.431 1_545 S
C773 C764 1.429 1_565 S
C773 N770 1.350 . S
C773 C772 1.431 1_565 S
C774 C775 1.369 1_655 S
C774 C776 1.419 . S
C774 H778 0.930 . S
C775 C774 1.369 1_455 S
C775 C784 1.429 . S
C776 C774 1.419 . S
C776 C777 1.363 1_655 S
C776 H779 0.929 . S
C777 C776 1.363 1_455 S
C777 C783 1.428 . S
H778 C774 0.930 . S
H779 C776 0.929 . S
S780 N781 1.613 . S
S780 N782 1.610 . S
N781 S780 1.613 . S
N781 C784 1.350 . S
N782 S780 1.610 . S
N782 C783 1.351 . S
C783 C777 1.428 . S
C783 N782 1.351 . S
C783 C784 1.434 . S
C784 C775 1.429 . S
C784 N781 1.350 . S
C784 C783 1.434 . S
C785 C786 1.369 . S
C785 C787 1.419 . S
C785 H789 0.930 . S
C786 C785 1.369 . S
C786 C795 1.429 . S
C787 C785 1.419 . S
C787 C788 1.363 . S
C787 H790 0.929 . S
C788 C787 1.363 . S
C788 C794 1.428 . S
H789 C785 0.930 . S
H790 C787 0.929 . S
S791 N792 1.613 . S
S791 N793 1.610 . S
N792 S791 1.613 . S
N792 C795 1.350 . S
N793 S791 1.610 . S
N793 C794 1.351 . S
C794 C788 1.428 . S
C794 N793 1.351 . S
C794 C795 1.434 . S
C795 C786 1.429 . S
C795 N792 1.350 . S
C795 C794 1.434 . S
C796 C797 1.369 . S
C796 C798 1.419 . S
C796 H800 0.930 . S
C797 C796 1.369 . S
C797 C806 1.429 . S
C798 C796 1.419 . S
C798 C799 1.363 . S
C798 H801 0.929 . S
C799 C798 1.363 . S
C799 C805 1.428 . S
H800 C796 0.930 . S
H801 C798 0.929 . S
S802 N803 1.613 . S
S802 N804 1.610 . S
N803 S802 1.613 . S
N803 C806 1.350 . S
N804 S802 1.610 . S
N804 C805 1.351 . S
C805 C799 1.428 . S
C805 N804 1.351 . S
C805 C806 1.434 . S
C806 C797 1.429 . S
C806 N803 1.350 . S
C806 C805 1.434 . S
C807 C808 1.369 . S
C807 C809 1.419 . S
C807 H811 0.930 1_545 S
C808 C807 1.369 . S
C808 C817 1.429 . S
C809 C807 1.419 . S
C809 C810 1.363 . S
C809 H812 0.929 1_545 S
C810 C809 1.363 . S
C810 C816 1.428 . S
H811 C807 0.930 1_565 S
H812 C809 0.929 1_565 S
S813 N814 1.613 . S
S813 N815 1.610 . S
N814 S813 1.613 . S
N814 C817 1.350 . S
N815 S813 1.610 . S
N815 C816 1.351 . S
C816 C810 1.428 . S
C816 N815 1.351 . S
C816 C817 1.434 . S
C817 C808 1.429 . S
C817 N814 1.350 . S
C817 C816 1.434 . S
C818 C819 1.369 . S
C818 C820 1.419 . S
C818 H822 0.930 . S
C819 C818 1.369 . S
C819 C828 1.429 . S
C820 C818 1.419 . S
C820 C821 1.363 . S
C820 H823 0.929 . S
C821 C820 1.363 . S
C821 C827 1.428 . S
H822 C818 0.930 . S
H823 C820 0.929 . S
S824 N825 1.613 . S
S824 N826 1.610 . S
N825 S824 1.613 . S
N825 C828 1.350 1_655 S
N826 S824 1.610 . S
N826 C827 1.351 1_655 S
C827 C821 1.428 . S
C827 N826 1.351 1_455 S
C827 C828 1.434 . S
C828 C819 1.429 . S
C828 N825 1.350 1_455 S
C828 C827 1.434 . S
C829 C830 1.369 1_565 S
C829 C831 1.417 1_565 S
C829 H833 0.930 . S
C830 C829 1.369 1_545 S
C830 C839 1.429 . S
C831 C829 1.417 1_545 S
C831 C832 1.367 . S
C831 H834 0.927 1_545 S
C832 C831 1.367 . S
C832 C838 1.428 . S
H833 C829 0.930 . S
H834 C831 0.927 1_565 S
S835 N836 1.613 . S
S835 N837 1.610 . S
N836 S835 1.613 . S
N836 C839 1.350 . S
N837 S835 1.610 . S
N837 C838 1.351 . S
C838 C832 1.428 . S
C838 N837 1.351 . S
C838 C839 1.434 . S
C839 C830 1.429 . S
C839 N836 1.350 . S
C839 C838 1.434 . S
C840 C841 1.369 . S
C840 C842 1.419 . S
C840 H844 0.930 . S
C841 C840 1.369 . S
C841 C850 1.429 . S
C842 C840 1.419 . S
C842 C843 1.363 . S
C842 H845 0.929 . S
C843 C842 1.363 . S
C843 C849 1.428 . S
H844 C840 0.930 . S
H845 C842 0.929 . S
S846 N847 1.613 . S
S846 N848 1.610 . S
N847 S846 1.613 . S
N847 C850 1.350 1_655 S
N848 S846 1.610 . S
N848 C849 1.351 1_655 S
C849 C843 1.428 . S
C849 N848 1.351 1_455 S
C849 C850 1.434 . S
C850 C841 1.429 . S
C850 N847 1.350 1_455 S
C850 C849 1.434 . S
C851 C852 1.369 . S
C851 C853 1.419 . S
C851 H855 0.930 . S
C852 C851 1.369 . S
C852 C861 1.429 . S
C853 C851 1.419 . S
C853 C854 1.363 . S
C853 H856 0.929 . S
C854 C853 1.363 . S
C854 C860 1.428 . S
H855 C851 0.930 . S
H856 C853 0.929 . S
S857 N858 1.613 1_565 S
S857 N859 1.606 1_565 S
N858 S857 1.613 1_545 S
N858 C861 1.350 . S
N859 S857 1.606 1_545 S
N859 C860 1.364 . S
C860 C854 1.428 . S
C860 N859 1.364 . S
C860 C861 1.434 . S
C861 C852 1.429 . S
C861 N858 1.350 . S
C861 C860 1.434 . S
C862 C863 1.369 . S
C862 C864 1.419 . S
C862 H866 0.930 . S
C863 C862 1.369 . S
C863 C872 1.429 . S
C864 C862 1.419 . S
C864 C865 1.363 . S
C864 H867 0.929 . S
C865 C864 1.363 . S
C865 C871 1.428 . S
H866 C862 0.930 . S
H867 C864 0.929 . S
S868 N869 1.613 . S
S868 N870 1.610 . S
N869 S868 1.613 . S
N869 C872 1.350 . S
N870 S868 1.610 . S
N870 C871 1.351 . S
C871 C865 1.428 . S
C871 N870 1.351 . S
C871 C872 1.434 . S
C872 C863 1.429 . S
C872 N869 1.350 . S
C872 C871 1.434 . S
C873 C874 1.369 . S
C873 C875 1.419 . S
C873 H877 0.930 . S
C874 C873 1.369 . S
C874 C883 1.429 1_545 S
C875 C873 1.419 . S
C875 C876 1.363 . S
C875 H878 0.929 . S
C876 C875 1.363 . S
C876 C882 1.428 1_545 S
H877 C873 0.930 . S
H878 C875 0.929 . S
S879 N880 1.613 . S
S879 N881 1.610 . S
N880 S879 1.613 . S
N880 C883 1.350 . S
N881 S879 1.610 . S
N881 C882 1.351 . S
C882 C876 1.428 1_565 S
C882 N881 1.351 . S
C882 C883 1.434 . S
C883 C874 1.429 1_565 S
C883 N880 1.350 . S
C883 C882 1.434 . S
C884 C885 1.369 . S
C884 C886 1.419 . S
C884 H888 0.930 . S
C885 C884 1.369 . S
C885 C894 1.429 . S
C886 C884 1.419 . S
C886 C887 1.363 . S
C886 H889 0.929 . S
C887 C886 1.363 . S
C887 C893 1.428 . S
H888 C884 0.930 . S
H889 C886 0.929 . S
S890 N891 1.613 . S
S890 N892 1.610 . S
N891 S890 1.613 . S
N891 C894 1.350 . S
N892 S890 1.610 . S
N892 C893 1.351 . S
C893 C887 1.428 . S
C893 N892 1.351 . S
C893 C894 1.434 . S
C894 C885 1.429 . S
C894 N891 1.350 . S
C894 C893 1.434 . S
C895 C896 1.369 . S
C895 C897 1.419 . S
C895 H899 0.930 . S
C896 C895 1.369 . S
C896 C905 1.429 1_545 S
C897 C895 1.419 . S
C897 C898 1.363 . S
C897 H900 0.929 . S
C898 C897 1.363 . S
C898 C904 1.428 1_545 S
H899 C895 0.930 . S
H900 C897 0.929 . S
S901 N902 1.613 . S
S901 N903 1.610 . S
N902 S901 1.613 . S
N902 C905 1.350 . S
N903 S901 1.610 . S
N903 C904 1.351 . S
C904 C898 1.428 1_565 S
C904 N903 1.351 . S
C904 C905 1.434 . S
C905 C896 1.429 1_565 S
C905 N902 1.350 . S
C905 C904 1.434 . S
C906 C907 1.369 . S
C906 C908 1.419 . S
C906 H910 0.930 . S
C907 C906 1.369 . S
C907 C916 1.429 . S
C908 C906 1.419 . S
C908 C909 1.363 . S
C908 H911 0.929 . S
C909 C908 1.363 . S
C909 C915 1.428 . S
H910 C906 0.930 . S
H911 C908 0.929 . S
S912 N913 1.613 . S
S912 N914 1.610 . S
N913 S912 1.613 . S
N913 C916 1.350 . S
N914 S912 1.610 . S
N914 C915 1.351 . S
C915 C909 1.428 . S
C915 N914 1.351 . S
C915 C916 1.434 . S
C916 C907 1.429 . S
C916 N913 1.350 . S
C916 C915 1.434 . S
C917 C918 1.369 . S
C917 C919 1.419 . S
C917 H921 0.930 . S
C918 C917 1.369 . S
C918 C927 1.429 . S
C919 C917 1.419 . S
C919 C920 1.363 . S
C919 H922 0.929 . S
C920 C919 1.363 . S
C920 C926 1.428 . S
H921 C917 0.930 . S
H922 C919 0.929 . S
S923 N924 1.613 . S
S923 N925 1.610 . S
N924 S923 1.613 . S
N924 C927 1.350 1_565 S
N925 S923 1.610 . S
N925 C926 1.351 1_565 S
C926 C920 1.428 . S
C926 N925 1.351 1_545 S
C926 C927 1.434 . S
C927 C918 1.429 . S
C927 N924 1.350 1_545 S
C927 C926 1.434 . S
C928 C929 1.369 . S
C928 C930 1.419 . S
C928 H932 0.930 . S
C929 C928 1.369 . S
C929 C938 1.429 1_545 S
C930 C928 1.419 . S
C930 C931 1.363 . S
C930 H933 0.929 . S
C931 C930 1.363 . S
C931 C937 1.428 1_545 S
H932 C928 0.930 . S
H933 C930 0.929 . S
S934 N935 1.613 . S
S934 N936 1.610 . S
N935 S934 1.613 . S
N935 C938 1.350 . S
N936 S934 1.610 . S
N936 C937 1.351 . S
C937 C931 1.428 1_565 S
C937 N936 1.351 . S
C937 C938 1.434 . S
C938 C929 1.429 1_565 S
C938 N935 1.350 . S
C938 C937 1.434 . S
C939 C940 1.369 . S
C939 C941 1.419 1_455 S
C939 H943 0.930 1_455 S
C940 C939 1.369 . S
C940 C949 1.429 . S
C941 C939 1.419 1_655 S
C941 C942 1.363 1_655 S
C941 H944 0.929 . S
C942 C941 1.363 1_455 S
C942 C948 1.428 . S
H943 C939 0.930 1_655 S
H944 C941 0.929 . S
S945 N946 1.613 . S
S945 N947 1.610 . S
N946 S945 1.613 . S
N946 C949 1.350 . S
N947 S945 1.610 . S
N947 C948 1.351 . S
C948 C942 1.428 . S
C948 N947 1.351 . S
C948 C949 1.434 . S
C949 C940 1.429 . S
C949 N946 1.350 . S
C949 C948 1.434 . S
C950 C951 1.369 . S
C950 C952 1.419 . S
C950 H954 0.930 1_545 S
C951 C950 1.369 . S
C951 C960 1.429 . S
C952 C950 1.419 . S
C952 C953 1.363 . S
C952 H955 0.929 1_545 S
C953 C952 1.363 . S
C953 C959 1.428 . S
H954 C950 0.930 1_565 S
H955 C952 0.929 1_565 S
S956 N957 1.613 . S
S956 N958 1.610 . S
N957 S956 1.613 . S
N957 C960 1.350 . S
N958 S956 1.610 . S
N958 C959 1.351 . S
C959 C953 1.428 . S
C959 N958 1.351 . S
C959 C960 1.434 . S
C960 C951 1.429 . S
C960 N957 1.350 . S
C960 C959 1.434 . S
C961 C962 1.369 . S
C961 C963 1.419 . S
C961 H965 0.930 . S
C962 C961 1.369 . S
C962 C971 1.429 1_455 S
C963 C961 1.419 . S
C963 C964 1.363 . S
C963 H966 0.929 . S
C964 C963 1.363 . S
C964 C970 1.428 1_455 S
H965 C961 0.930 . S
H966 C963 0.929 . S
S967 N968 1.613 . S
S967 N969 1.610 . S
N968 S967 1.613 . S
N968 C971 1.350 . S
N969 S967 1.610 . S
N969 C970 1.351 . S
C970 C964 1.428 1_655 S
C970 N969 1.351 . S
C970 C971 1.434 . S
C971 C962 1.429 1_655 S
C971 N968 1.350 . S
C971 C970 1.434 . S
C972 C973 1.369 . S
C972 C974 1.419 . S
C972 H976 0.930 . S
C973 C972 1.369 . S
C973 C982 1.429 1_545 S
C974 C972 1.419 . S
C974 C975 1.363 . S
C974 H977 0.929 . S
C975 C974 1.363 . S
C975 C981 1.428 1_545 S
H976 C972 0.930 . S
H977 C974 0.929 . S
S978 N979 1.613 . S
S978 N980 1.610 . S
N979 S978 1.613 . S
N979 C982 1.350 . S
N980 S978 1.610 . S
N980 C981 1.351 . S
C981 C975 1.428 1_565 S
C981 N980 1.351 . S
C981 C982 1.434 . S
C982 C973 1.429 1_565 S
C982 N979 1.350 . S
C982 C981 1.434 . S
C983 C984 1.369 . S
C983 C985 1.419 . S
C983 H987 0.930 . S
C984 C983 1.369 . S
C984 C993 1.429 . S
C985 C983 1.419 . S
C985 C986 1.363 . S
C985 H988 0.929 . S
C986 C985 1.363 . S
C986 C992 1.428 . S
H987 C983 0.930 . S
H988 C985 0.929 . S
S989 N990 1.613 . S
S989 N991 1.610 . S
N990 S989 1.613 . S
N990 C993 1.350 . S
N991 S989 1.610 . S
N991 C992 1.351 . S
C992 C986 1.428 . S
C992 N991 1.351 . S
C992 C993 1.434 . S
C993 C984 1.429 . S
C993 N990 1.350 . S
C993 C992 1.434 . S
C994 C995 1.369 . S
C994 C996 1.419 . S
C994 H998 0.930 . S
C995 C994 1.369 . S
C995 C1004 1.429 . S
C996 C994 1.419 . S
C996 C997 1.363 . S
C996 H999 0.929 . S
C997 C996 1.363 . S
C997 C1003 1.428 . S
H998 C994 0.930 . S
H999 C996 0.929 . S
S1000 N1001 1.613 . S
S1000 N1002 1.610 . S
N1001 S1000 1.613 . S
N1001 C1004 1.350 1_565 S
N1002 S1000 1.610 . S
N1002 C1003 1.351 1_565 S
C1003 C997 1.428 . S
C1003 N1002 1.351 1_545 S
C1003 C1004 1.434 . S
C1004 C995 1.429 . S
C1004 N1001 1.350 1_545 S
C1004 C1003 1.434 . S
C1005 C1006 1.365 1_655 S
C1005 C1007 1.419 . S
C1005 H1009 0.930 . S
C1006 C1005 1.365 1_455 S
C1006 C1015 1.433 . S
C1007 C1005 1.419 . S
C1007 C1008 1.363 1_655 S
C1007 H1010 0.929 . S
C1008 C1007 1.363 1_455 S
C1008 C1014 1.428 . S
H1009 C1005 0.930 . S
H1010 C1007 0.929 . S
S1011 N1012 1.613 . S
S1011 N1013 1.610 . S
N1012 S1011 1.613 . S
N1012 C1015 1.350 . S
N1013 S1011 1.610 . S
N1013 C1014 1.351 . S
C1014 C1008 1.428 . S
C1014 N1013 1.351 . S
C1014 C1015 1.434 . S
C1015 C1006 1.433 . S
C1015 N1012 1.350 . S
C1015 C1014 1.434 . S
C1016 C1017 1.369 . S
C1016 C1018 1.419 . S
C1016 H1020 0.930 . S
C1017 C1016 1.369 . S
C1017 C1026 1.429 . S
C1018 C1016 1.419 . S
C1018 C1019 1.363 . S
C1018 H1021 0.929 . S
C1019 C1018 1.363 . S
C1019 C1025 1.428 . S
H1020 C1016 0.930 . S
H1021 C1018 0.929 . S
S1022 N1023 1.613 . S
S1022 N1024 1.610 . S
N1023 S1022 1.613 . S
N1023 C1026 1.350 . S
N1024 S1022 1.610 . S
N1024 C1025 1.351 . S
C1025 C1019 1.428 . S
C1025 N1024 1.351 . S
C1025 C1026 1.434 . S
C1026 C1017 1.429 . S
C1026 N1023 1.350 . S
C1026 C1025 1.434 . S
C1027 C1028 1.369 . S
C1027 C1029 1.419 . S
C1027 H1031 0.930 . S
C1028 C1027 1.369 . S
C1028 C1037 1.429 . S
C1029 C1027 1.419 . S
C1029 C1030 1.363 . S
C1029 H1032 0.929 . S
C1030 C1029 1.363 . S
C1030 C1036 1.428 . S
H1031 C1027 0.930 . S
H1032 C1029 0.929 . S
S1033 N1034 1.613 . S
S1033 N1035 1.610 . S
N1034 S1033 1.613 . S
N1034 C1037 1.350 . S
N1035 S1033 1.610 . S
N1035 C1036 1.351 . S
C1036 C1030 1.428 . S
C1036 N1035 1.351 . S
C1036 C1037 1.434 . S
C1037 C1028 1.429 . S
C1037 N1034 1.350 . S
C1037 C1036 1.434 . S
C1038 C1039 1.369 . S
C1038 C1040 1.419 . S
C1038 H1042 0.930 . S
C1039 C1038 1.369 . S
C1039 C1048 1.429 1_554 S
C1040 C1038 1.419 . S
C1040 C1041 1.363 . S
C1040 H1043 0.929 . S
C1041 C1040 1.363 . S
C1041 C1047 1.428 1_554 S
H1042 C1038 0.930 . S
H1043 C1040 0.929 . S
S1044 N1045 1.613 . S
S1044 N1046 1.610 . S
N1045 S1044 1.613 . S
N1045 C1048 1.350 . S
N1046 S1044 1.610 . S
N1046 C1047 1.351 . S
C1047 C1041 1.428 1_556 S
C1047 N1046 1.351 . S
C1047 C1048 1.434 . S
C1048 C1039 1.429 1_556 S
C1048 N1045 1.350 . S
C1048 C1047 1.434 . S
C1049 C1050 1.374 . S
C1049 C1051 1.419 . S
C1049 H1053 0.930 . S
C1050 C1049 1.374 . S
C1050 C1059 1.425 1_556 S
C1051 C1049 1.419 . S
C1051 C1052 1.363 . S
C1051 H1054 0.929 . S
C1052 C1051 1.363 . S
C1052 C1058 1.428 1_556 S
H1053 C1049 0.930 . S
H1054 C1051 0.929 . S
S1055 N1056 1.613 . S
S1055 N1057 1.610 . S
N1056 S1055 1.613 . S
N1056 C1059 1.350 . S
N1057 S1055 1.610 . S
N1057 C1058 1.351 . S
C1058 C1052 1.428 1_554 S
C1058 N1057 1.351 . S
C1058 C1059 1.434 . S
C1059 C1050 1.425 1_554 S
C1059 N1056 1.350 . S
C1059 C1058 1.434 . S
C1060 C1061 1.369 . S
C1060 C1062 1.419 . S
C1060 H1064 0.930 . S
C1061 C1060 1.369 . S
C1061 C1070 1.429 . S
C1062 C1060 1.419 . S
C1062 C1063 1.363 . S
C1062 H1065 0.929 . S
C1063 C1062 1.363 . S
C1063 C1069 1.428 . S
H1064 C1060 0.930 . S
H1065 C1062 0.929 . S
S1066 N1067 1.613 . S
S1066 N1068 1.610 . S
N1067 S1066 1.613 . S
N1067 C1070 1.350 . S
N1068 S1066 1.610 . S
N1068 C1069 1.351 . S
C1069 C1063 1.428 . S
C1069 N1068 1.351 . S
C1069 C1070 1.434 . S
C1070 C1061 1.429 . S
C1070 N1067 1.350 . S
C1070 C1069 1.434 . S
C1071 C1072 1.382 . S
C1071 C1073 1.419 . S
C1071 H1075 0.930 . S
C1072 C1071 1.382 . S
C1072 C1081 1.415 1_554 S
C1073 C1071 1.419 . S
C1073 C1074 1.363 1_554 S
C1073 H1076 0.929 . S
C1074 C1073 1.363 1_556 S
C1074 C1080 1.428 . S
H1075 C1071 0.930 . S
H1076 C1073 0.929 . S
S1077 N1078 1.613 . S
S1077 N1079 1.610 . S
N1078 S1077 1.613 . S
N1078 C1081 1.350 . S
N1079 S1077 1.610 . S
N1079 C1080 1.351 . S
C1080 C1074 1.428 . S
C1080 N1079 1.351 . S
C1080 C1081 1.434 . S
C1081 C1072 1.415 1_556 S
C1081 N1078 1.350 . S
C1081 C1080 1.434 . S
C1082 C1083 1.369 . S
C1082 C1084 1.419 . S
C1082 H1086 0.930 . S
C1083 C1082 1.369 . S
C1083 C1092 1.429 1_554 S
C1084 C1082 1.419 . S
C1084 C1085 1.363 . S
C1084 H1087 0.929 . S
C1085 C1084 1.363 . S
C1085 C1091 1.428 1_554 S
H1086 C1082 0.930 . S
H1087 C1084 0.929 . S
S1088 N1089 1.613 . S
S1088 N1090 1.610 . S
N1089 S1088 1.613 . S
N1089 C1092 1.350 . S
N1090 S1088 1.610 . S
N1090 C1091 1.351 . S
C1091 C1085 1.428 1_556 S
C1091 N1090 1.351 . S
C1091 C1092 1.434 . S
C1092 C1083 1.429 1_556 S
C1092 N1089 1.350 . S
C1092 C1091 1.434 . S
C1093 C1094 1.369 1_556 S
C1093 C1095 1.418 1_556 S
C1093 H1097 0.930 . S
C1094 C1093 1.369 1_554 S
C1094 C1103 1.429 . S
C1095 C1093 1.418 1_554 S
C1095 C1096 1.367 . S
C1095 H1098 0.926 1_554 S
C1096 C1095 1.367 . S
C1096 C1102 1.428 . S
H1097 C1093 0.930 . S
H1098 C1095 0.926 1_556 S
S1099 N1100 1.613 . S
S1099 N1101 1.610 . S
N1100 S1099 1.613 . S
N1100 C1103 1.350 . S
N1101 S1099 1.610 . S
N1101 C1102 1.351 . S
C1102 C1096 1.428 . S
C1102 N1101 1.351 . S
C1102 C1103 1.434 . S
C1103 C1094 1.429 . S
C1103 N1100 1.350 . S
C1103 C1102 1.434 . S
C1104 C1105 1.369 . S
C1104 C1106 1.419 . S
C1104 H1108 0.930 . S
C1105 C1104 1.369 . S
C1105 C1114 1.429 . S
C1106 C1104 1.419 . S
C1106 C1107 1.363 . S
C1106 H1109 0.929 . S
C1107 C1106 1.363 . S
C1107 C1113 1.428 . S
H1108 C1104 0.930 . S
H1109 C1106 0.929 . S
S1110 N1111 1.613 . S
S1110 N1112 1.610 . S
N1111 S1110 1.613 . S
N1111 C1114 1.350 . S
N1112 S1110 1.610 . S
N1112 C1113 1.351 . S
C1113 C1107 1.428 . S
C1113 N1112 1.351 . S
C1113 C1114 1.434 . S
C1114 C1105 1.429 . S
C1114 N1111 1.350 . S
C1114 C1113 1.434 . S
C1115 C1116 1.369 . S
C1115 C1117 1.419 . S
C1115 H1119 0.930 . S
C1116 C1115 1.369 . S
C1116 C1125 1.429 . S
C1117 C1115 1.419 . S
C1117 C1118 1.363 . S
C1117 H1120 0.929 . S
C1118 C1117 1.363 . S
C1118 C1124 1.428 . S
H1119 C1115 0.930 . S
H1120 C1117 0.929 . S
S1121 N1122 1.613 . S
S1121 N1123 1.610 . S
N1122 S1121 1.613 . S
N1122 C1125 1.350 . S
N1123 S1121 1.610 . S
N1123 C1124 1.351 . S
C1124 C1118 1.428 . S
C1124 N1123 1.351 . S
C1124 C1125 1.434 . S
C1125 C1116 1.429 . S
C1125 N1122 1.350 . S
C1125 C1124 1.434 . S
C1126 C1127 1.369 . S
C1126 C1128 1.419 . S
C1126 H1130 0.930 . S
C1127 C1126 1.369 . S
C1127 C1136 1.429 . S
C1128 C1126 1.419 . S
C1128 C1129 1.363 . S
C1128 H1131 0.929 . S
C1129 C1128 1.363 . S
C1129 C1135 1.428 . S
H1130 C1126 0.930 . S
H1131 C1128 0.929 . S
S1132 N1133 1.613 . S
S1132 N1134 1.610 . S
N1133 S1132 1.613 . S
N1133 C1136 1.350 . S
N1134 S1132 1.610 . S
N1134 C1135 1.351 . S
C1135 C1129 1.428 . S
C1135 N1134 1.351 . S
C1135 C1136 1.434 . S
C1136 C1127 1.429 . S
C1136 N1133 1.350 . S
C1136 C1135 1.434 . S
C1137 C1138 1.369 . S
C1137 C1139 1.419 . S
C1137 H1141 0.930 . S
C1138 C1137 1.369 . S
C1138 C1147 1.429 . S
C1139 C1137 1.419 . S
C1139 C1140 1.363 . S
C1139 H1142 0.929 . S
C1140 C1139 1.363 . S
C1140 C1146 1.428 . S
H1141 C1137 0.930 . S
H1142 C1139 0.929 . S
S1143 N1144 1.613 . S
S1143 N1145 1.610 . S
N1144 S1143 1.613 . S
N1144 C1147 1.350 . S
N1145 S1143 1.610 . S
N1145 C1146 1.351 . S
C1146 C1140 1.428 . S
C1146 N1145 1.351 . S
C1146 C1147 1.434 . S
C1147 C1138 1.429 . S
C1147 N1144 1.350 . S
C1147 C1146 1.434 . S
C1148 C1149 1.369 . S
C1148 C1150 1.419 . S
C1148 H1152 0.930 . S
C1149 C1148 1.369 . S
C1149 C1158 1.429 . S
C1150 C1148 1.419 . S
C1150 C1151 1.363 . S
C1150 H1153 0.929 . S
C1151 C1150 1.363 . S
C1151 C1157 1.428 . S
H1152 C1148 0.930 . S
H1153 C1150 0.929 . S
S1154 N1155 1.613 . S
S1154 N1156 1.610 . S
N1155 S1154 1.613 . S
N1155 C1158 1.350 . S
N1156 S1154 1.610 . S
N1156 C1157 1.351 . S
C1157 C1151 1.428 . S
C1157 N1156 1.351 . S
C1157 C1158 1.434 . S
C1158 C1149 1.429 . S
C1158 N1155 1.350 . S
C1158 C1157 1.434 . S
C1159 C1160 1.369 . S
C1159 C1161 1.419 . S
C1159 H1163 0.930 . S
C1160 C1159 1.369 . S
C1160 C1169 1.429 . S
C1161 C1159 1.419 . S
C1161 C1162 1.363 . S
C1161 H1164 0.929 . S
C1162 C1161 1.363 . S
C1162 C1168 1.428 . S
H1163 C1159 0.930 . S
H1164 C1161 0.929 . S
S1165 N1166 1.613 . S
S1165 N1167 1.610 . S
N1166 S1165 1.613 . S
N1166 C1169 1.350 . S
N1167 S1165 1.610 . S
N1167 C1168 1.351 . S
C1168 C1162 1.428 . S
C1168 N1167 1.351 . S
C1168 C1169 1.434 . S
C1169 C1160 1.429 . S
C1169 N1166 1.350 . S
C1169 C1168 1.434 . S
C1170 C1171 1.369 . S
C1170 C1172 1.419 . S
C1170 H1174 0.930 . S
C1171 C1170 1.369 . S
C1171 C1180 1.429 . S
C1172 C1170 1.419 . S
C1172 C1173 1.363 . S
C1172 H1175 0.929 . S
C1173 C1172 1.363 . S
C1173 C1179 1.428 . S
H1174 C1170 0.930 . S
H1175 C1172 0.929 . S
S1176 N1177 1.613 . S
S1176 N1178 1.610 . S
N1177 S1176 1.613 . S
N1177 C1180 1.350 . S
N1178 S1176 1.610 . S
N1178 C1179 1.351 . S
C1179 C1173 1.428 . S
C1179 N1178 1.351 . S
C1179 C1180 1.434 . S
C1180 C1171 1.429 . S
C1180 N1177 1.350 . S
C1180 C1179 1.434 . S
C1181 C1182 1.369 . S
C1181 C1183 1.419 . S
C1181 H1185 0.930 . S
C1182 C1181 1.369 . S
C1182 C1191 1.429 . S
C1183 C1181 1.419 . S
C1183 C1184 1.363 . S
C1183 H1186 0.929 . S
C1184 C1183 1.363 . S
C1184 C1190 1.428 . S
H1185 C1181 0.930 . S
H1186 C1183 0.929 . S
S1187 N1188 1.613 . S
S1187 N1189 1.610 . S
N1188 S1187 1.613 . S
N1188 C1191 1.350 . S
N1189 S1187 1.610 . S
N1189 C1190 1.351 . S
C1190 C1184 1.428 . S
C1190 N1189 1.351 . S
C1190 C1191 1.434 . S
C1191 C1182 1.429 . S
C1191 N1188 1.350 . S
C1191 C1190 1.434 . S
C1192 C1193 1.369 . S
C1192 C1194 1.419 . S
C1192 H1196 0.930 . S
C1193 C1192 1.369 . S
C1193 C1202 1.429 . S
C1194 C1192 1.419 . S
C1194 C1195 1.363 . S
C1194 H1197 0.929 . S
C1195 C1194 1.363 . S
C1195 C1201 1.428 . S
H1196 C1192 0.930 . S
H1197 C1194 0.929 . S
S1198 N1199 1.613 . S
S1198 N1200 1.610 . S
N1199 S1198 1.613 . S
N1199 C1202 1.350 . S
N1200 S1198 1.610 . S
N1200 C1201 1.351 . S
C1201 C1195 1.428 . S
C1201 N1200 1.351 . S
C1201 C1202 1.434 . S
C1202 C1193 1.429 . S
C1202 N1199 1.350 . S
C1202 C1201 1.434 . S
C1203 C1204 1.369 . S
C1203 C1205 1.419 . S
C1203 H1207 0.930 . S
C1204 C1203 1.369 . S
C1204 C1213 1.429 . S
C1205 C1203 1.419 . S
C1205 C1206 1.363 . S
C1205 H1208 0.929 . S
C1206 C1205 1.363 . S
C1206 C1212 1.428 . S
H1207 C1203 0.930 . S
H1208 C1205 0.929 . S
S1209 N1210 1.613 . S
S1209 N1211 1.610 . S
N1210 S1209 1.613 . S
N1210 C1213 1.350 . S
N1211 S1209 1.610 . S
N1211 C1212 1.351 . S
C1212 C1206 1.428 . S
C1212 N1211 1.351 . S
C1212 C1213 1.434 . S
C1213 C1204 1.429 . S
C1213 N1210 1.350 . S
C1213 C1212 1.434 . S
C1214 C1215 1.369 . S
C1214 C1216 1.419 . S
C1214 H1218 0.930 . S
C1215 C1214 1.369 . S
C1215 C1224 1.429 . S
C1216 C1214 1.419 . S
C1216 C1217 1.363 . S
C1216 H1219 0.929 . S
C1217 C1216 1.363 . S
C1217 C1223 1.428 . S
H1218 C1214 0.930 . S
H1219 C1216 0.929 . S
S1220 N1221 1.613 . S
S1220 N1222 1.610 . S
N1221 S1220 1.613 . S
N1221 C1224 1.350 . S
N1222 S1220 1.610 . S
N1222 C1223 1.351 . S
C1223 C1217 1.428 . S
C1223 N1222 1.351 . S
C1223 C1224 1.434 . S
C1224 C1215 1.429 . S
C1224 N1221 1.350 . S
C1224 C1223 1.434 . S
C1225 C1226 1.369 . S
C1225 C1227 1.419 . S
C1225 H1229 0.930 . S
C1226 C1225 1.369 . S
C1226 C1235 1.429 . S
C1227 C1225 1.419 . S
C1227 C1228 1.363 . S
C1227 H1230 0.929 . S
C1228 C1227 1.363 . S
C1228 C1234 1.428 . S
H1229 C1225 0.930 . S
H1230 C1227 0.929 . S
S1231 N1232 1.613 . S
S1231 N1233 1.610 . S
N1232 S1231 1.613 . S
N1232 C1235 1.350 . S
N1233 S1231 1.610 . S
N1233 C1234 1.351 . S
C1234 C1228 1.428 . S
C1234 N1233 1.351 . S
C1234 C1235 1.434 . S
C1235 C1226 1.429 . S
C1235 N1232 1.350 . S
C1235 C1234 1.434 . S
C1236 C1237 1.369 . S
C1236 C1238 1.419 . S
C1236 H1240 0.930 . S
C1237 C1236 1.369 . S
C1237 C1246 1.429 . S
C1238 C1236 1.419 . S
C1238 C1239 1.363 . S
C1238 H1241 0.929 . S
C1239 C1238 1.363 . S
C1239 C1245 1.428 . S
H1240 C1236 0.930 . S
H1241 C1238 0.929 . S
S1242 N1243 1.613 . S
S1242 N1244 1.610 . S
N1243 S1242 1.613 . S
N1243 C1246 1.350 . S
N1244 S1242 1.610 . S
N1244 C1245 1.351 . S
C1245 C1239 1.428 . S
C1245 N1244 1.351 . S
C1245 C1246 1.434 . S
C1246 C1237 1.429 . S
C1246 N1243 1.350 . S
C1246 C1245 1.434 . S
C1247 C1248 1.369 . S
C1247 C1249 1.419 . S
C1247 H1251 0.930 . S
C1248 C1247 1.369 . S
C1248 C1257 1.429 . S
C1249 C1247 1.419 . S
C1249 C1250 1.363 . S
C1249 H1252 0.929 . S
C1250 C1249 1.363 . S
C1250 C1256 1.428 . S
H1251 C1247 0.930 . S
H1252 C1249 0.929 . S
S1253 N1254 1.613 . S
S1253 N1255 1.610 . S
N1254 S1253 1.613 . S
N1254 C1257 1.350 . S
N1255 S1253 1.610 . S
N1255 C1256 1.351 . S
C1256 C1250 1.428 . S
C1256 N1255 1.351 . S
C1256 C1257 1.434 . S
C1257 C1248 1.429 . S
C1257 N1254 1.350 . S
C1257 C1256 1.434 . S
C1258 C1259 1.369 . S
C1258 C1260 1.419 . S
C1258 H1262 0.930 . S
C1259 C1258 1.369 . S
C1259 C1268 1.429 . S
C1260 C1258 1.419 . S
C1260 C1261 1.363 . S
C1260 H1263 0.929 . S
C1261 C1260 1.363 . S
C1261 C1267 1.428 . S
H1262 C1258 0.930 . S
H1263 C1260 0.929 . S
S1264 N1265 1.613 . S
S1264 N1266 1.610 . S
N1265 S1264 1.613 . S
N1265 C1268 1.350 . S
N1266 S1264 1.610 . S
N1266 C1267 1.351 . S
C1267 C1261 1.428 . S
C1267 N1266 1.351 . S
C1267 C1268 1.434 . S
C1268 C1259 1.429 . S
C1268 N1265 1.350 . S
C1268 C1267 1.434 . S
C1269 C1270 1.369 . S
C1269 C1271 1.419 . S
C1269 H1273 0.930 . S
C1270 C1269 1.369 . S
C1270 C1279 1.429 . S
C1271 C1269 1.419 . S
C1271 C1272 1.363 . S
C1271 H1274 0.929 . S
C1272 C1271 1.363 . S
C1272 C1278 1.428 . S
H1273 C1269 0.930 . S
H1274 C1271 0.929 . S
S1275 N1276 1.613 . S
S1275 N1277 1.610 . S
N1276 S1275 1.613 . S
N1276 C1279 1.350 . S
N1277 S1275 1.610 . S
N1277 C1278 1.351 . S
C1278 C1272 1.428 . S
C1278 N1277 1.351 . S
C1278 C1279 1.434 . S
C1279 C1270 1.429 . S
C1279 N1276 1.350 . S
C1279 C1278 1.434 . S
C1280 C1281 1.369 . S
C1280 C1282 1.419 . S
C1280 H1284 0.930 . S
C1281 C1280 1.369 . S
C1281 C1290 1.429 . S
C1282 C1280 1.419 . S
C1282 C1283 1.363 . S
C1282 H1285 0.929 . S
C1283 C1282 1.363 . S
C1283 C1289 1.428 . S
H1284 C1280 0.930 . S
H1285 C1282 0.929 . S
S1286 N1287 1.613 . S
S1286 N1288 1.610 . S
N1287 S1286 1.613 . S
N1287 C1290 1.350 . S
N1288 S1286 1.610 . S
N1288 C1289 1.351 . S
C1289 C1283 1.428 . S
C1289 N1288 1.351 . S
C1289 C1290 1.434 . S
C1290 C1281 1.429 . S
C1290 N1287 1.350 . S
C1290 C1289 1.434 . S
C1291 C1292 1.369 . S
C1291 C1293 1.419 . S
C1291 H1295 0.930 . S
C1292 C1291 1.369 . S
C1292 C1301 1.429 . S
C1293 C1291 1.419 . S
C1293 C1294 1.363 . S
C1293 H1296 0.929 . S
C1294 C1293 1.363 . S
C1294 C1300 1.428 . S
H1295 C1291 0.930 . S
H1296 C1293 0.929 . S
S1297 N1298 1.613 . S
S1297 N1299 1.610 . S
N1298 S1297 1.613 . S
N1298 C1301 1.350 . S
N1299 S1297 1.610 . S
N1299 C1300 1.351 . S
C1300 C1294 1.428 . S
C1300 N1299 1.351 . S
C1300 C1301 1.434 . S
C1301 C1292 1.429 . S
C1301 N1298 1.350 . S
C1301 C1300 1.434 . S
C1302 C1303 1.369 . S
C1302 C1304 1.419 . S
C1302 H1306 0.930 . S
C1303 C1302 1.369 . S
C1303 C1312 1.429 . S
C1304 C1302 1.419 . S
C1304 C1305 1.363 . S
C1304 H1307 0.929 . S
C1305 C1304 1.363 . S
C1305 C1311 1.428 . S
H1306 C1302 0.930 . S
H1307 C1304 0.929 . S
S1308 N1309 1.613 . S
S1308 N1310 1.610 . S
N1309 S1308 1.613 . S
N1309 C1312 1.350 . S
N1310 S1308 1.610 . S
N1310 C1311 1.351 . S
C1311 C1305 1.428 . S
C1311 N1310 1.351 . S
C1311 C1312 1.434 . S
C1312 C1303 1.429 . S
C1312 N1309 1.350 . S
C1312 C1311 1.434 . S
C1313 C1314 1.369 . S
C1313 C1315 1.419 . S
C1313 H1317 0.930 . S
C1314 C1313 1.369 . S
C1314 C1323 1.429 . S
C1315 C1313 1.419 . S
C1315 C1316 1.363 . S
C1315 H1318 0.929 . S
C1316 C1315 1.363 . S
C1316 C1322 1.428 . S
H1317 C1313 0.930 . S
H1318 C1315 0.929 . S
S1319 N1320 1.613 . S
S1319 N1321 1.610 . S
N1320 S1319 1.613 . S
N1320 C1323 1.350 . S
N1321 S1319 1.610 . S
N1321 C1322 1.351 . S
C1322 C1316 1.428 . S
C1322 N1321 1.351 . S
C1322 C1323 1.434 . S
C1323 C1314 1.429 . S
C1323 N1320 1.350 . S
C1323 C1322 1.434 . S
C1324 C1325 1.369 . S
C1324 C1326 1.419 . S
C1324 H1328 0.930 . S
C1325 C1324 1.369 . S
C1325 C1334 1.429 . S
C1326 C1324 1.419 . S
C1326 C1327 1.363 . S
C1326 H1329 0.929 . S
C1327 C1326 1.363 . S
C1327 C1333 1.428 . S
H1328 C1324 0.930 . S
H1329 C1326 0.929 . S
S1330 N1331 1.613 . S
S1330 N1332 1.610 . S
N1331 S1330 1.613 . S
N1331 C1334 1.350 . S
N1332 S1330 1.610 . S
N1332 C1333 1.351 . S
C1333 C1327 1.428 . S
C1333 N1332 1.351 . S
C1333 C1334 1.434 . S
C1334 C1325 1.429 . S
C1334 N1331 1.350 . S
C1334 C1333 1.434 . S
C1335 C1336 1.369 . S
C1335 C1337 1.419 . S
C1335 H1339 0.930 . S
C1336 C1335 1.369 . S
C1336 C1345 1.429 . S
C1337 C1335 1.419 . S
C1337 C1338 1.363 . S
C1337 H1340 0.929 . S
C1338 C1337 1.363 . S
C1338 C1344 1.428 . S
H1339 C1335 0.930 . S
H1340 C1337 0.929 . S
S1341 N1342 1.613 . S
S1341 N1343 1.610 . S
N1342 S1341 1.613 . S
N1342 C1345 1.350 . S
N1343 S1341 1.610 . S
N1343 C1344 1.351 . S
C1344 C1338 1.428 . S
C1344 N1343 1.351 . S
C1344 C1345 1.434 . S
C1345 C1336 1.429 . S
C1345 N1342 1.350 . S
C1345 C1344 1.434 . S
C1346 C1347 1.369 . S
C1346 C1348 1.419 . S
C1346 H1350 0.930 . S
C1347 C1346 1.369 . S
C1347 C1356 1.429 . S
C1348 C1346 1.419 . S
C1348 C1349 1.363 . S
C1348 H1351 0.929 . S
C1349 C1348 1.363 . S
C1349 C1355 1.428 . S
H1350 C1346 0.930 . S
H1351 C1348 0.929 . S
S1352 N1353 1.613 . S
S1352 N1354 1.610 . S
N1353 S1352 1.613 . S
N1353 C1356 1.350 . S
N1354 S1352 1.610 . S
N1354 C1355 1.351 . S
C1355 C1349 1.428 . S
C1355 N1354 1.351 . S
C1355 C1356 1.434 . S
C1356 C1347 1.429 . S
C1356 N1353 1.350 . S
C1356 C1355 1.434 . S
C1357 C1358 1.369 . S
C1357 C1359 1.419 . S
C1357 H1361 0.930 . S
C1358 C1357 1.369 . S
C1358 C1367 1.429 . S
C1359 C1357 1.419 . S
C1359 C1360 1.363 . S
C1359 H1362 0.929 . S
C1360 C1359 1.363 . S
C1360 C1366 1.428 . S
H1361 C1357 0.930 . S
H1362 C1359 0.929 . S
S1363 N1364 1.613 . S
S1363 N1365 1.610 . S
N1364 S1363 1.613 . S
N1364 C1367 1.350 . S
N1365 S1363 1.610 . S
N1365 C1366 1.351 . S
C1366 C1360 1.428 . S
C1366 N1365 1.351 . S
C1366 C1367 1.434 . S
C1367 C1358 1.429 . S
C1367 N1364 1.350 . S
C1367 C1366 1.434 . S
C579 C306 1.328 . S
C577 C258 1.388 . S
C588 C236 1.667 . S
C590 C300 1.586 . S
C601 C268 1.681 . S
C599 C225 1.778 . S
C610 C247 1.557 . S
C612 C282 1.435 . S
C623 C320 1.823 . S
C621 C181 1.984 . S
C634 C407 1.402 . S
C632 C192 1.452 . S
C643 C203 1.968 . S
C645 C334 1.885 . S
C656 C402 1.384 . S
C654 C214 1.397 . S
C665 C137 2.067 . S
C667 C358 1.942 . S
C678 C413 1.600 . S
C676 C148 1.641 . S
C687 C159 1.992 . S
C689 C352 1.934 . S
C698 C170 1.137 . S
C700 C398 1.120 . S
C711 C454 1.142 . S
C709 C126 1.173 . S
C720 C104 1.678 . S
C722 C465 1.638 . S
C731 C93 1.458 . S
C733 C450 1.429 . S
C744 C459 1.452 . S
C742 C115 1.472 . S
C753 C49 1.612 . S
C755 C504 1.558 . S
C764 C60 0.899 . S
C766 C563 0.883 . S
C775 C71 1.753 . S
C777 C520 1.594 . S
C786 C82 1.389 . S
C788 C558 1.357 . S
C799 C522 1.711 . S
C797 C5 1.814 . S
C810 C569 0.994 . S
C808 C16 1.011 . S
C819 C27 1.703 . S
C821 C498 1.571 . S
C832 C554 1.060 . S
C830 C38 1.083 . S
C843 C290 1.611 . S
C841 C4 1.666 . S
C852 C21 1.258 . S
C854 C294 1.311 . S
C863 C32 1.517 . S
C865 C314 1.509 . S
C874 C37 1.060 . S
C876 C309 1.085 . S
C885 C48 1.709 . S
C887 C312 1.664 . S
C898 C298 1.309 . S
C896 C59 1.297 . S
C907 C76 1.441 . S
C909 C296 1.477 . S
C920 C303 1.305 . S
C918 C81 1.313 . S
C931 C366 1.422 . S
C929 C43 1.394 . S
C940 C10 1.750 . S
C942 C416 1.735 . S
C953 C364 1.403 . S
C951 C15 1.444 . S
C964 C400 1.804 . S
C962 C26 1.932 . S
C973 C65 1.170 . S
C975 C342 1.180 . S
C986 C418 1.769 . S
C984 C70 1.859 . S
C997 C348 1.446 . S
C995 C87 1.428 . S
C1008 C394 1.622 . S
C1006 C54 1.565 1_455 S
C1019 C386 1.477 . S
C1017 C98 1.404 . S
C1028 C109 1.284 . S
C1030 C410 1.385 . S
C1041 C346 1.349 . S
C1039 C92 1.323 . S
C1052 C372 1.352 1_556 S
C1050 C114 1.333 . S
C1061 C131 1.048 . S
C1063 C350 1.130 . S
C1072 C125 1.373 . S
C1074 C404 1.406 1_556 S
C1085 C361 1.517 . S
C1083 C103 1.484 . S
C1096 C355 1.390 . S
C1094 C120 1.245 . S
C1107 C438 1.843 . S
C1105 C136 1.915 . S
C1118 C470 1.519 . S
C1116 C153 1.427 . S
C1127 C164 1.674 . S
C1129 C424 1.770 . S
C1140 C468 1.209 . S
C1138 C169 1.205 . S
C1151 C456 1.838 . S
C1149 C180 1.858 . S
C1160 C191 1.394 . S
C1162 C452 1.439 . S
C1171 C208 1.661 . S
C1173 C462 1.774 . S
C1184 C446 1.402 . S
C1182 C213 1.458 . S
C1195 C511 1.369 . S
C1193 C175 1.265 . S
C1204 C142 1.572 . S
C1206 C572 1.628 . S
C1217 C506 1.313 . S
C1215 C147 1.277 . S
C1228 C556 1.692 . S
C1226 C158 1.719 . S
C1239 C502 1.157 . S
C1237 C197 1.065 . S
C1248 C202 1.631 . S
C1250 C574 1.622 . S
C1261 C517 1.373 . S
C1259 C219 1.306 . S
C1272 C550 1.479 . S
C1270 C186 1.379 . S
C1283 C542 1.594 . S
C1281 C230 1.568 . S
C1292 C241 1.633 . S
C1294 C566 1.625 . S
C1305 C508 1.556 . S
C1303 C224 1.591 . S
C1314 C246 1.720 . S
C1316 C528 1.630 . S
C1327 C490 1.354 . S
C1325 C263 1.346 . S
C1338 C560 1.509 . S
C1336 C257 1.541 . S
C1349 C476 1.559 . S
C1347 C235 1.620 . S
C1358 C252 1.320 . S
C1360 C514 1.321 . S
