# Generated by pormake.
# Topology zzz, (3,6)-cn, num edge types: 1
# Building blocks:
#     Node 0, Type 0, BuildingBlock: KAKCAD_clean_linker_0, # of connection points: 3
#     Node 1, Type 0, BuildingBlock: KAKCAD_clean_linker_0, # of connection points: 3
#     Node 2, Type 0, BuildingBlock: KAKCAD_clean_linker_0, # of connection points: 3
#     Node 3, Type 0, BuildingBlock: KAKCAD_clean_linker_0, # of connection points: 3
#     Node 4, Type 0, BuildingBlock: KAKCAD_clean_linker_0, # of connection points: 3
#     Node 5, Type 0, BuildingBlock: KAKCAD_clean_linker_0, # of connection points: 3
#     Node 6, Type 0, BuildingBlock: KAKCAD_clean_linker_0, # of connection points: 3
#     Node 7, Type 0, BuildingBlock: KAKCAD_clean_linker_0, # of connection points: 3
#     Node 8, Type 1, BuildingBlock: JUFBIX_clean_sbu_0, # of connection points: 6
#     Node 9, Type 1, BuildingBlock: JUFBIX_clean_sbu_0, # of connection points: 6
#     Node 10, Type 1, BuildingBlock: JUFBIX_clean_sbu_0, # of connection points: 6
#     Node 11, Type 1, BuildingBlock: JUFBIX_clean_sbu_0, # of connection points: 6
#     Edge 12, Type (0, 1), BuildingBlock: UVAHIK_clean_linker_0, # of connection points: 2
#     Edge 13, Type (0, 1), BuildingBlock: UVAHIK_clean_linker_0, # of connection points: 2
#     Edge 14, Type (0, 1), BuildingBlock: UVAHIK_clean_linker_0, # of connection points: 2
#     Edge 15, Type (0, 1), BuildingBlock: UVAHIK_clean_linker_0, # of connection points: 2
#     Edge 16, Type (0, 1), BuildingBlock: UVAHIK_clean_linker_0, # of connection points: 2
#     Edge 17, Type (0, 1), BuildingBlock: UVAHIK_clean_linker_0, # of connection points: 2
#     Edge 18, Type (0, 1), BuildingBlock: UVAHIK_clean_linker_0, # of connection points: 2
#     Edge 19, Type (0, 1), BuildingBlock: UVAHIK_clean_linker_0, # of connection points: 2
#     Edge 20, Type (0, 1), BuildingBlock: UVAHIK_clean_linker_0, # of connection points: 2
#     Edge 21, Type (0, 1), BuildingBlock: UVAHIK_clean_linker_0, # of connection points: 2
#     Edge 22, Type (0, 1), BuildingBlock: UVAHIK_clean_linker_0, # of connection points: 2
#     Edge 23, Type (0, 1), BuildingBlock: UVAHIK_clean_linker_0, # of connection points: 2
#     Edge 24, Type (0, 1), BuildingBlock: UVAHIK_clean_linker_0, # of connection points: 2
#     Edge 25, Type (0, 1), BuildingBlock: UVAHIK_clean_linker_0, # of connection points: 2
#     Edge 26, Type (0, 1), BuildingBlock: UVAHIK_clean_linker_0, # of connection points: 2
#     Edge 27, Type (0, 1), BuildingBlock: UVAHIK_clean_linker_0, # of connection points: 2
#     Edge 28, Type (0, 1), BuildingBlock: UVAHIK_clean_linker_0, # of connection points: 2
#     Edge 29, Type (0, 1), BuildingBlock: UVAHIK_clean_linker_0, # of connection points: 2
#     Edge 30, Type (0, 1), BuildingBlock: UVAHIK_clean_linker_0, # of connection points: 2
#     Edge 31, Type (0, 1), BuildingBlock: UVAHIK_clean_linker_0, # of connection points: 2
#     Edge 32, Type (0, 1), BuildingBlock: UVAHIK_clean_linker_0, # of connection points: 2
#     Edge 33, Type (0, 1), BuildingBlock: UVAHIK_clean_linker_0, # of connection points: 2
#     Edge 34, Type (0, 1), BuildingBlock: UVAHIK_clean_linker_0, # of connection points: 2
#     Edge 35, Type (0, 1), BuildingBlock: UVAHIK_clean_linker_0, # of connection points: 2
# Relax obj value: 0.295
# Max RMSD: 0.220
# Mean RMSD: 0.189
data_MOF--net-zzz--node1-JUFBIX_clean_sbu_0--node2-KAKCAD_clean_linker_0--edge1-UVAHIK_clean_linker_0
_symmetry_space_group_name_H-M    P1
_symmetry_Int_Tables_number       1
_symmetry_cell_setting            triclinic
loop_
_symmetry_equiv_pos_as_xyz
'x, y, z'
_cell_length_a     70.890368
_cell_length_b     73.18756
_cell_length_c     28.056782
_cell_angle_alpha  83.93274
_cell_angle_beta   90.120154
_cell_angle_gamma 86.849844
loop_
_atom_site_label
_atom_site_type_symbol
_atom_site_fract_x
_atom_site_fract_y
_atom_site_fract_z
_atom_type_partial_charge
C0 C 0.81322 0.567 0.12801 0.0
C1 C 0.82895 0.55634 0.14776 0.0
C2 C 0.79862 0.57263 0.15761 0.0
C3 C 0.79936 0.56739 0.20738 0.0
C4 C 0.81518 0.55662 0.22671 0.0
C5 C 0.82986 0.55134 0.19732 0.0
C6 C 0.78344 0.57224 0.23915 0.0
C7 C 0.76461 0.57222 0.22363 0.0
C8 C 0.74963 0.57423 0.25569 0.0
C9 C 0.75347 0.57591 0.30418 0.0
C10 C 0.77225 0.57671 0.31963 0.0
C11 C 0.787 0.57531 0.28677 0.0
C12 C 0.77742 0.57659 0.37067 0.0
C13 C 0.78874 0.59026 0.38482 0.0
C14 C 0.77541 0.56053 0.40179 0.0
C15 C 0.78616 0.55732 0.444 0.0
C16 C 0.79888 0.57024 0.45591 0.0
C17 C 0.73016 0.57364 0.23756 0.0
C18 C 0.72282 0.58791 0.20431 0.0
C19 C 0.72014 0.55769 0.24714 0.0
C20 C 0.70354 0.55558 0.2216 0.0
C21 C 0.69667 0.56946 0.18619 0.0
C22 C 0.70615 0.58593 0.17925 0.0
C23 C 0.79929 0.58717 0.42736 0.0
H24 H 0.8123 0.57107 0.08977 0.0
H25 H 0.78679 0.58108 0.14147 0.0
H26 H 0.81608 0.55177 0.2645 0.0
H27 H 0.84174 0.54286 0.21323 0.0
H28 H 0.76147 0.56977 0.1871 0.0
H29 H 0.80144 0.57571 0.29924 0.0
H30 H 0.742 0.57664 0.32951 0.0
H31 H 0.79066 0.60265 0.36098 0.0
H32 H 0.76698 0.5497 0.39124 0.0
H33 H 0.78553 0.5442 0.46561 0.0
H34 H 0.73043 0.60029 0.19631 0.0
H35 H 0.72577 0.54642 0.27221 0.0
H36 H 0.80904 0.59732 0.43553 0.0
H37 H 0.70106 0.59708 0.15317 0.0
H38 H 0.69675 0.54265 0.22767 0.0
C39 C 0.02229 0.804 0.09817 0.0
C40 C 0.03462 0.81783 0.10573 0.0
C41 C 0.01826 0.7906 0.13531 0.0
C42 C 0.02651 0.79068 0.18088 0.0
C43 C 0.03934 0.80414 0.18804 0.0
C44 C 0.04338 0.81756 0.1508 0.0
C45 C 0.02099 0.77726 0.22116 0.0
C46 C 0.01863 0.75889 0.21391 0.0
C47 C 0.01198 0.74643 0.25066 0.0
C48 C 0.00765 0.75242 0.29566 0.0
C49 C 0.01065 0.77072 0.30399 0.0
C50 C 0.01716 0.78298 0.26639 0.0
C51 C 0.00682 0.77774 0.35101 0.0
C52 C 0.98917 0.77605 0.37316 0.0
C53 C 0.02013 0.78843 0.37058 0.0
C54 C 0.01548 0.7983 0.40919 0.0
C55 C 0.99738 0.7977 0.42956 0.0
C56 C 0.00961 0.72736 0.23978 0.0
C57 C 0.99151 0.72119 0.23278 0.0
C58 C 0.02545 0.71694 0.22575 0.0
C59 C 0.02323 0.70147 0.2016 0.0
C60 C 0.00509 0.69617 0.19064 0.0
C61 C 0.98925 0.70565 0.20843 0.0
C62 C 0.98447 0.78597 0.41205 0.0
H63 H 0.0155 0.80372 0.06366 0.0
H64 H 0.0082 0.78053 0.12869 0.0
H65 H 0.04608 0.80442 0.22261 0.0
H66 H 0.05285 0.82811 0.1578 0.0
H67 H 0.02181 0.75425 0.17921 0.0
H68 H 0.01861 0.79727 0.27199 0.0
H69 H 0.00247 0.74285 0.32412 0.0
H70 H 0.97863 0.76793 0.35872 0.0
H71 H 0.03391 0.78987 0.35441 0.0
H72 H 0.02578 0.80726 0.42107 0.0
H73 H 0.97909 0.72921 0.24266 0.0
H74 H 0.03954 0.72152 0.23056 0.0
H75 H 0.9705 0.78494 0.42731 0.0
H76 H 0.9751 0.70192 0.20041 0.0
H77 H 0.0357 0.69425 0.1891 0.0
C78 C 0.71005 0.95225 0.09535 0.0
C79 C 0.69382 0.96243 0.10792 0.0
C80 C 0.72479 0.94789 0.12848 0.0
C81 C 0.72365 0.95391 0.17448 0.0
C82 C 0.7075 0.9645 0.18629 0.0
C83 C 0.69267 0.96855 0.15354 0.0
C84 C 0.73911 0.94917 0.21028 0.0
C85 C 0.75808 0.94882 0.19637 0.0
C86 C 0.77277 0.94499 0.2304 0.0
C87 C 0.76829 0.94218 0.27952 0.0
C88 C 0.74926 0.94218 0.29367 0.0
C89 C 0.73491 0.9454 0.25892 0.0
C90 C 0.74344 0.93988 0.34437 0.0
C91 C 0.73172 0.9256 0.35974 0.0
C92 C 0.74509 0.95441 0.37265 0.0
C93 C 0.7337 0.95558 0.41309 0.0
C94 C 0.72051 0.94223 0.42577 0.0
C95 C 0.79257 0.94428 0.21318 0.0
C96 C 0.79708 0.93514 0.17276 0.0
C97 C 0.80649 0.95413 0.23322 0.0
C98 C 0.82418 0.95576 0.21129 0.0
C99 C 0.82825 0.94753 0.16898 0.0
C100 C 0.8146 0.93681 0.15084 0.0
C101 C 0.7204 0.92673 0.40011 0.0
H102 H 0.71113 0.94732 0.06033 0.0
H103 H 0.7369 0.93952 0.11833 0.0
H104 H 0.70631 0.96981 0.22081 0.0
H105 H 0.68035 0.97664 0.16369 0.0
H106 H 0.76152 0.95205 0.15891 0.0
H107 H 0.72029 0.94525 0.27022 0.0
H108 H 0.77942 0.93963 0.3063 0.0
H109 H 0.73007 0.91439 0.33803 0.0
H110 H 0.75386 0.96569 0.36108 0.0
H111 H 0.73437 0.96754 0.4326 0.0
H112 H 0.7867 0.92723 0.15686 0.0
H113 H 0.80341 0.96132 0.26436 0.0
H114 H 0.71037 0.91624 0.40848 0.0
H115 H 0.81701 0.93042 0.11814 0.0
H116 H 0.83446 0.96386 0.22677 0.0
C117 C 0.45341 0.70559 0.37006 0.0
C118 C 0.47259 0.70257 0.38295 0.0
C119 C 0.44808 0.71645 0.32773 0.0
C120 C 0.46177 0.72469 0.29788 0.0
C121 C 0.48076 0.72302 0.31265 0.0
C122 C 0.48615 0.71197 0.35481 0.0
C123 C 0.45687 0.73107 0.24747 0.0
C124 C 0.45864 0.74937 0.22782 0.0
C125 C 0.45467 0.75455 0.17876 0.0
C126 C 0.44965 0.74098 0.14969 0.0
C127 C 0.44804 0.72269 0.16904 0.0
C128 C 0.45141 0.71795 0.21804 0.0
C129 C 0.4442 0.70812 0.13795 0.0
C130 C 0.43175 0.69439 0.15289 0.0
C131 C 0.4542 0.70697 0.09513 0.0
C132 C 0.4525 0.69191 0.06902 0.0
C133 C 0.44072 0.67772 0.08513 0.0
C134 C 0.45607 0.77387 0.15682 0.0
C135 C 0.44299 0.7814 0.1213 0.0
C136 C 0.47096 0.78455 0.16875 0.0
C137 C 0.47314 0.802 0.14419 0.0
C138 C 0.46057 0.809 0.10704 0.0
C139 C 0.44529 0.79867 0.09651 0.0
C140 C 0.43 0.67936 0.12671 0.0
H141 H 0.44265 0.69844 0.39067 0.0
H142 H 0.43338 0.71737 0.3166 0.0
H143 H 0.49156 0.72906 0.28975 0.0
H144 H 0.50102 0.71002 0.3641 0.0
H145 H 0.46281 0.75949 0.25076 0.0
H146 H 0.45072 0.70373 0.23311 0.0
H147 H 0.44724 0.74457 0.11161 0.0
H148 H 0.42367 0.69508 0.18544 0.0
H149 H 0.46408 0.71722 0.08304 0.0
H150 H 0.46115 0.69097 0.0375 0.0
H151 H 0.43106 0.7738 0.11205 0.0
H152 H 0.48135 0.77915 0.19568 0.0
H153 H 0.42055 0.66883 0.13959 0.0
H154 H 0.43519 0.80389 0.06866 0.0
H155 H 0.48507 0.8097 0.15293 0.0
C156 C 0.18758 0.48482 0.38231 0.0
C157 C 0.17341 0.47272 0.39681 0.0
C158 C 0.20254 0.47922 0.35395 0.0
C159 C 0.2035 0.46152 0.33894 0.0
C160 C 0.18966 0.44926 0.35413 0.0
C161 C 0.17487 0.45473 0.38313 0.0
C162 C 0.21815 0.45629 0.30476 0.0
C163 C 0.23723 0.45874 0.31345 0.0
C164 C 0.25102 0.45462 0.27975 0.0
C165 C 0.24552 0.44837 0.23628 0.0
C166 C 0.22629 0.44613 0.22695 0.0
C167 C 0.21283 0.44983 0.26184 0.0
C168 C 0.21941 0.4421 0.17939 0.0
C169 C 0.2242 0.45324 0.13784 0.0
C170 C 0.20504 0.42975 0.17663 0.0
C171 C 0.19428 0.43 0.13479 0.0
C172 C 0.19769 0.44259 0.09474 0.0
C173 C 0.27104 0.45705 0.29114 0.0
C174 C 0.27646 0.47413 0.30333 0.0
C175 C 0.2841 0.44185 0.29664 0.0
C176 C 0.30192 0.44346 0.317 0.0
C177 C 0.30701 0.46037 0.33147 0.0
C178 C 0.29431 0.47582 0.32297 0.0
C179 C 0.21344 0.45348 0.09585 0.0
H180 H 0.18682 0.49885 0.39148 0.0
H181 H 0.21296 0.48898 0.34216 0.0
H182 H 0.19023 0.43547 0.34325 0.0
H183 H 0.16452 0.44488 0.39454 0.0
H184 H 0.24139 0.46368 0.34684 0.0
H185 H 0.19793 0.44874 0.25441 0.0
H186 H 0.25605 0.44564 0.20962 0.0
H187 H 0.23519 0.46291 0.13894 0.0
H188 H 0.20116 0.4209 0.20809 0.0
H189 H 0.18229 0.42143 0.13545 0.0
H190 H 0.26654 0.48601 0.29956 0.0
H191 H 0.28013 0.42851 0.28785 0.0
H192 H 0.21671 0.46305 0.06526 0.0
H193 H 0.29772 0.48897 0.33414 0.0
H194 H 0.31148 0.43137 0.32288 0.0
C195 C 0.94934 0.21396 0.41312 0.0
C196 C 0.95488 0.19535 0.41133 0.0
C197 C 0.95654 0.22748 0.38017 0.0
C198 C 0.96975 0.22266 0.34551 0.0
C199 C 0.97521 0.20394 0.34411 0.0
C200 C 0.96772 0.19046 0.3763 0.0
C201 C 0.9783 0.23698 0.31182 0.0
C202 C 0.98234 0.25409 0.32656 0.0
C203 C 0.99137 0.26725 0.29581 0.0
C204 C 0.99697 0.26302 0.2499 0.0
C205 C 0.99264 0.24606 0.23443 0.0
C206 C 0.98315 0.23334 0.26517 0.0
C207 C 0.99795 0.24076 0.18672 0.0
C208 C 0.98375 0.23967 0.15242 0.0
C209 C 0.01597 0.23262 0.17981 0.0
C210 C 0.01936 0.22236 0.14094 0.0
C211 C 0.00471 0.22003 0.10852 0.0
C212 C 0.99468 0.28527 0.31305 0.0
C213 C 0.97947 0.29544 0.33124 0.0
C214 C 0.01302 0.2913 0.31704 0.0
C215 C 0.01617 0.30669 0.34127 0.0
C216 C 0.00098 0.31642 0.36129 0.0
C217 C 0.98256 0.31086 0.35488 0.0
C218 C 0.98713 0.22952 0.11351 0.0
H219 H 0.93942 0.21801 0.4399 0.0
H220 H 0.95173 0.24169 0.38193 0.0
H221 H 0.98569 0.19964 0.31896 0.0
H222 H 0.97246 0.1762 0.37482 0.0
H223 H 0.97895 0.25711 0.36265 0.0
H224 H 0.9797 0.22043 0.25248 0.0
H225 H 0.00419 0.27294 0.22613 0.0
H226 H 0.96967 0.24565 0.15749 0.0
H227 H 0.02699 0.23297 0.20647 0.0
H228 H 0.03302 0.21516 0.13844 0.0
H229 H 0.96519 0.29102 0.32867 0.0
H230 H 0.02498 0.28358 0.3036 0.0
H231 H 0.97564 0.2283 0.08874 0.0
H232 H 0.97056 0.31787 0.37025 0.0
H233 H 0.0305 0.31073 0.3453 0.0
C234 C 0.28985 0.06372 0.44417 0.0
C235 C 0.30527 0.07463 0.43358 0.0
C236 C 0.27456 0.06458 0.41253 0.0
C237 C 0.27426 0.07654 0.3698 0.0
C238 C 0.28917 0.08833 0.36082 0.0
C239 C 0.3046 0.08728 0.39226 0.0
C240 C 0.25951 0.07517 0.33278 0.0
C241 C 0.24105 0.07115 0.34607 0.0
C242 C 0.22792 0.06656 0.31233 0.0
C243 C 0.23311 0.06686 0.26382 0.0
C244 C 0.25145 0.07157 0.24969 0.0
C245 C 0.26444 0.07565 0.28438 0.0
C246 C 0.25845 0.0704 0.20033 0.0
C247 C 0.25893 0.05357 0.18044 0.0
C248 C 0.26839 0.08493 0.17767 0.0
C249 C 0.27996 0.08221 0.13855 0.0
C250 C 0.28187 0.06487 0.12119 0.0
C251 C 0.20939 0.0604 0.33007 0.0
C252 C 0.20901 0.04691 0.36955 0.0
C253 C 0.19235 0.06945 0.31287 0.0
C254 C 0.1754 0.06602 0.33723 0.0
C255 C 0.1754 0.05357 0.37905 0.0
C256 C 0.19223 0.04359 0.39383 0.0
C257 C 0.27056 0.05082 0.14121 0.0
H258 H 0.29011 0.05367 0.47546 0.0
H259 H 0.26354 0.05506 0.42036 0.0
H260 H 0.28922 0.09794 0.32871 0.0
H261 H 0.31626 0.09598 0.3836 0.0
H262 H 0.23697 0.07107 0.38332 0.0
H263 H 0.27888 0.07801 0.27387 0.0
H264 H 0.22321 0.06301 0.23766 0.0
H265 H 0.25151 0.04211 0.19751 0.0
H266 H 0.26829 0.09802 0.1925 0.0
H267 H 0.28849 0.09334 0.12444 0.0
H268 H 0.22193 0.03957 0.38313 0.0
H269 H 0.19232 0.07994 0.28259 0.0
H270 H 0.27144 0.0374 0.12815 0.0
H271 H 0.19255 0.03368 0.42543 0.0
H272 H 0.16256 0.07386 0.32511 0.0
C273 C 0.52386 0.30632 0.1693 0.0
C274 C 0.53874 0.31135 0.13834 0.0
C275 C 0.52743 0.29468 0.21153 0.0
C276 C 0.54588 0.28782 0.22345 0.0
C277 C 0.56049 0.29157 0.19092 0.0
C278 C 0.55693 0.30312 0.14851 0.0
C279 C 0.5505 0.28122 0.27376 0.0
C280 C 0.54953 0.26269 0.29219 0.0
C281 C 0.55296 0.25734 0.34141 0.0
C282 C 0.55694 0.27088 0.3716 0.0
C283 C 0.55791 0.28937 0.35329 0.0
C284 C 0.55488 0.29435 0.30426 0.0
C285 C 0.56046 0.30384 0.38552 0.0
C286 C 0.54938 0.30444 0.42682 0.0
C287 C 0.57264 0.31805 0.37295 0.0
C288 C 0.57309 0.33302 0.39992 0.0
C289 C 0.56121 0.33411 0.43964 0.0
C290 C 0.55162 0.23792 0.36258 0.0
C291 C 0.53698 0.22721 0.34926 0.0
C292 C 0.56421 0.23045 0.39931 0.0
C293 C 0.56155 0.21325 0.42411 0.0
C294 C 0.54642 0.20295 0.41237 0.0
C295 C 0.53446 0.20983 0.37383 0.0
C296 C 0.54971 0.31947 0.45352 0.0
H297 H 0.50973 0.3125 0.16299 0.0
H298 H 0.51605 0.29224 0.23674 0.0
H299 H 0.57488 0.28663 0.19991 0.0
H300 H 0.56865 0.30642 0.12504 0.0
H301 H 0.54614 0.25259 0.26837 0.0
H302 H 0.55507 0.30871 0.28993 0.0
H303 H 0.55892 0.26713 0.40977 0.0
H304 H 0.53976 0.29374 0.43716 0.0
H305 H 0.58143 0.31784 0.34144 0.0
H306 H 0.58203 0.34416 0.38831 0.0
H307 H 0.52696 0.23257 0.32139 0.0
H308 H 0.57592 0.23811 0.40971 0.0
H309 H 0.54054 0.3199 0.48429 0.0
H310 H 0.52264 0.20216 0.36415 0.0
H311 H 0.57119 0.2081 0.45308 0.0
Co312 Co 0.00217 0.01813 0.79119 0.0
C313 C 0.97026 0.99962 0.82292 0.0
Co314 Co 0.99026 0.00108 0.73885 0.0
C315 C 0.01337 0.05032 0.83494 0.0
C316 C 0.01577 0.0256 0.8831 0.0
N317 N 0.01141 0.03195 0.83733 0.0
N318 N 0.01866 0.05568 0.8775 0.0
C319 C 0.02025 0.04006 0.90772 0.0
H320 H 0.01051 0.05961 0.80281 0.0
H321 H 0.01496 0.01146 0.89826 0.0
C322 C 0.02222 0.01954 0.70718 0.0
N323 N 0.98097 0.98732 0.69235 0.0
C324 C 0.98122 0.96882 0.6916 0.0
C325 C 0.97445 0.99426 0.64857 0.0
N326 N 0.97534 0.96404 0.64893 0.0
C327 C 0.97092 0.98008 0.62205 0.0
C328 C 0.97543 0.03727 0.73062 0.0
O329 O 0.02211 0.02501 0.74879 0.0
O330 O 0.00943 0.00924 0.69575 0.0
O331 O 0.97423 0.02169 0.71508 0.0
O332 O 0.98703 0.03887 0.76428 0.0
O333 O 0.9712 0.99302 0.78272 0.0
H334 H 0.97306 0.00873 0.63578 0.0
H335 H 0.98652 0.95906 0.72085 0.0
O336 O 0.98215 0.01107 0.83287 0.0
O337 O 0.01722 0.99707 0.81764 0.0
O338 O 0.00638 0.98084 0.76329 0.0
C339 C 0.01694 0.98192 0.79934 0.0
H340 H 0.02345 0.03917 0.94564 0.0
H341 H 0.9659 0.98152 0.58532 0.0
Co342 Co 0.49346 0.01571 0.78902 0.0
C343 C 0.48999 0.97799 0.80988 0.0
Co344 Co 0.50573 0.9991 0.73417 0.0
C345 C 0.46345 0.02716 0.84908 0.0
C346 C 0.48706 0.04393 0.85329 0.0
N347 N 0.48121 0.02932 0.833 0.0
N348 N 0.4578 0.03992 0.87826 0.0
C349 C 0.47272 0.05046 0.88118 0.0
H350 H 0.45479 0.01644 0.83907 0.0
H351 H 0.50067 0.04971 0.84724 0.0
C352 C 0.50927 0.03677 0.71325 0.0
N353 N 0.51796 0.98538 0.69037 0.0
C354 C 0.5362 0.98644 0.67716 0.0
C355 C 0.51155 0.97156 0.66776 0.0
N356 N 0.54159 0.97371 0.64769 0.0
C357 C 0.52604 0.96438 0.64139 0.0
C358 C 0.46906 0.0098 0.71375 0.0
O359 O 0.50051 0.03772 0.75252 0.0
O360 O 0.51328 0.02108 0.69914 0.0
O361 O 0.48313 0.001 0.69742 0.0
O362 O 0.47072 0.01673 0.75305 0.0
O363 O 0.498 0.97716 0.76958 0.0
H364 H 0.49744 0.96669 0.67132 0.0
H365 H 0.54542 0.99629 0.68949 0.0
O366 O 0.48665 0.9936 0.82506 0.0
O367 O 0.51633 0.01462 0.82451 0.0
O368 O 0.5282 0.99741 0.77135 0.0
C369 C 0.53016 0.00514 0.80933 0.0
H370 H 0.47308 0.06241 0.90076 0.0
H371 H 0.52533 0.95277 0.62068 0.0
Co372 Co 0.51875 0.51027 0.77012 0.0
C373 C 0.50714 0.4786 0.82151 0.0
Co374 Co 0.48981 0.50373 0.75099 0.0
C375 C 0.5495 0.5189 0.83024 0.0
C376 C 0.55718 0.52007 0.7563 0.0
N377 N 0.5428 0.51634 0.78646 0.0
N378 N 0.56746 0.52423 0.82859 0.0
C379 C 0.57233 0.52489 0.78201 0.0
H380 H 0.54111 0.51742 0.86246 0.0
H381 H 0.55658 0.5196 0.71792 0.0
C382 C 0.5016 0.53547 0.69982 0.0
N383 N 0.46582 0.49761 0.73447 0.0
C384 C 0.45876 0.49681 0.69004 0.0
C385 C 0.45208 0.49171 0.76447 0.0
N386 N 0.44123 0.49044 0.69111 0.0
C387 C 0.43697 0.48724 0.73794 0.0
C388 C 0.4905 0.5263 0.82347 0.0
O389 O 0.51663 0.53135 0.72433 0.0
O390 O 0.48786 0.525 0.70538 0.0
O391 O 0.47953 0.51799 0.7983 0.0
O392 O 0.50822 0.52462 0.81704 0.0
O393 O 0.49209 0.48245 0.79686 0.0
H394 H 0.45315 0.49038 0.80316 0.0
H395 H 0.46662 0.5002 0.65756 0.0
O396 O 0.5207 0.48926 0.81582 0.0
O397 O 0.52899 0.49577 0.72282 0.0
O398 O 0.5002 0.48961 0.70393 0.0
C399 C 0.51788 0.4877 0.69745 0.0
H400 H 0.58586 0.52863 0.76735 0.0
H401 H 0.4239 0.48198 0.75203 0.0
Co402 Co 0.00187 0.52105 0.78115 0.0
C403 C 0.02857 0.49369 0.81912 0.0
Co404 Co 0.99564 0.49263 0.7677 0.0
C405 C 0.99826 0.55505 0.82632 0.0
C406 C 0.02369 0.5528 0.78595 0.0
N407 N 0.00761 0.54428 0.79675 0.0
N408 N 0.00795 0.56981 0.83477 0.0
C409 C 0.0239 0.56845 0.80902 0.0
H410 H 0.98486 0.55181 0.84254 0.0
H411 H 0.03503 0.5475 0.76472 0.0
C412 C 0.96885 0.51993 0.7304 0.0
N413 N 0.99006 0.46935 0.7521 0.0
C414 C 0.99974 0.45877 0.72269 0.0
C415 C 0.97417 0.46048 0.7627 0.0
N416 N 0.99043 0.44382 0.71396 0.0
C417 C 0.97439 0.44481 0.73951 0.0
C418 C 0.97959 0.50256 0.85059 0.0
O419 O 0.97967 0.53108 0.7471 0.0
O420 O 0.97343 0.50279 0.73514 0.0
O421 O 0.98147 0.48923 0.82512 0.0
O422 O 0.98763 0.51735 0.8379 0.0
O423 O 0.01801 0.48266 0.80107 0.0
H424 H 0.9627 0.46554 0.78394 0.0
H425 H 0.01313 0.46224 0.70678 0.0
O426 O 0.02382 0.5108 0.81472 0.0
O427 O 0.01616 0.52436 0.72424 0.0
O428 O 0.00972 0.49648 0.7103 0.0
C429 C 0.01791 0.51124 0.69814 0.0
H430 H 0.03547 0.5775 0.80897 0.0
H431 H 0.96308 0.43546 0.73931 0.0
C432 C 0.14085 0.0484 0.39198 0.0
C433 C 0.15856 0.05204 0.41015 0.0
C434 C 0.12547 0.04586 0.4229 0.0
C435 C 0.11508 0.03456 0.55245 0.0
H436 H 0.06375 0.05064 0.51423 0.0
C437 C 0.05349 0.03279 0.68682 0.0
C438 C 0.03713 0.02481 0.67229 0.0
C439 C 0.06786 0.03698 0.65402 0.0
C440 C 0.07802 0.04601 0.52526 0.0
H441 H 0.17387 0.057 0.47401 0.0
H442 H 0.14712 0.05321 0.52742 0.0
H443 H 0.08956 0.05649 0.45798 0.0
H444 H 0.0228 0.01546 0.61161 0.0
H445 H 0.04782 0.02296 0.55443 0.0
H446 H 0.10356 0.02433 0.61989 0.0
C447 C 0.14511 0.05154 0.48989 0.0
C448 C 0.09281 0.04928 0.49299 0.0
C449 C 0.16044 0.05382 0.45924 0.0
C450 C 0.03526 0.02153 0.62403 0.0
C451 C 0.04953 0.02592 0.59116 0.0
C452 C 0.10036 0.03149 0.58478 0.0
C453 C 0.12749 0.04717 0.47242 0.0
C454 C 0.11156 0.04362 0.50622 0.0
C455 C 0.06607 0.0335 0.60591 0.0
C456 C 0.08167 0.03717 0.57158 0.0
H457 H 0.13907 0.04696 0.35423 0.0
H458 H 0.11216 0.0424 0.40817 0.0
H459 H 0.12924 0.02958 0.56364 0.0
H460 H 0.05534 0.03551 0.72369 0.0
H461 H 0.0804 0.04296 0.66628 0.0
C462 C 0.53924 0.16949 0.42127 0.0
C463 C 0.54257 0.18562 0.44225 0.0
C464 C 0.53581 0.1532 0.45008 0.0
C465 C 0.51819 0.13598 0.56788 0.0
H466 H 0.54691 0.09069 0.54948 0.0
C467 C 0.51315 0.07082 0.70143 0.0
C468 C 0.51401 0.05369 0.683 0.0
C469 C 0.51701 0.08684 0.6721 0.0
C470 C 0.53853 0.10312 0.55474 0.0
H471 H 0.54448 0.19753 0.50951 0.0
H472 H 0.53821 0.16919 0.55967 0.0
H473 H 0.55218 0.11863 0.49685 0.0
H474 H 0.51952 0.03992 0.61928 0.0
H475 H 0.52559 0.06779 0.56786 0.0
H476 H 0.50413 0.12056 0.62478 0.0
C477 C 0.53841 0.16908 0.52109 0.0
C478 C 0.54162 0.11913 0.5246 0.0
C479 C 0.54214 0.18524 0.49242 0.0
C480 C 0.51889 0.0529 0.63472 0.0
C481 C 0.52249 0.06891 0.60524 0.0
C482 C 0.51488 0.11992 0.59757 0.0
C483 C 0.53529 0.15288 0.50026 0.0
C484 C 0.53156 0.13574 0.53108 0.0
C485 C 0.52156 0.08614 0.62343 0.0
C486 C 0.52508 0.10327 0.59163 0.0
H487 H 0.53954 0.16942 0.38269 0.0
H488 H 0.53334 0.1409 0.43313 0.0
H489 H 0.5101 0.14857 0.57332 0.0
H490 H 0.50953 0.07186 0.73858 0.0
H491 H 0.51652 0.09975 0.68775 0.0
C492 C 0.32896 0.4486 0.39919 0.0
C493 C 0.32452 0.46164 0.35983 0.0
C494 C 0.34385 0.45107 0.4302 0.0
C495 C 0.37184 0.48814 0.46955 0.0
H496 H 0.40081 0.44717 0.53852 0.0
C497 C 0.43087 0.49781 0.60665 0.0
C498 C 0.42983 0.4869 0.65082 0.0
C499 C 0.4196 0.49449 0.56781 0.0
C500 C 0.39278 0.45874 0.51959 0.0
H501 H 0.33284 0.48697 0.32052 0.0
H502 H 0.3592 0.49106 0.37381 0.0
H503 H 0.37905 0.4415 0.4749 0.0
H504 H 0.41654 0.46366 0.68845 0.0
H505 H 0.39691 0.45783 0.62072 0.0
H506 H 0.38567 0.50534 0.51434 0.0
C507 C 0.35086 0.47917 0.38162 0.0
C508 C 0.38027 0.4555 0.4832 0.0
C509 C 0.33583 0.47678 0.35087 0.0
C510 C 0.4175 0.47244 0.65509 0.0
C511 C 0.40641 0.46897 0.61614 0.0
C512 C 0.3845 0.49138 0.50559 0.0
C513 C 0.35478 0.46658 0.42239 0.0
C514 C 0.36938 0.47013 0.45819 0.0
C515 C 0.40726 0.48001 0.57216 0.0
C516 C 0.39488 0.47669 0.53151 0.0
H517 H 0.32033 0.43694 0.40746 0.0
H518 H 0.3462 0.44121 0.46151 0.0
H519 H 0.3635 0.49973 0.45179 0.0
H520 H 0.44016 0.50912 0.6024 0.0
H521 H 0.4206 0.50317 0.53427 0.0
C522 C 0.99191 0.34721 0.38927 0.0
C523 C 0.00418 0.33136 0.39203 0.0
C524 C 0.99335 0.36011 0.4223 0.0
C525 C 0.00968 0.36328 0.54553 0.0
H526 H 0.99987 0.41569 0.51169 0.0
C527 C 0.98821 0.41323 0.68487 0.0
C528 C 0.99522 0.43092 0.67971 0.0
C529 C 0.99166 0.40118 0.64996 0.0
C530 C 0.00286 0.40112 0.52175 0.0
H531 H 0.02802 0.317 0.43082 0.0
H532 H 0.03071 0.33966 0.48809 0.0
H533 H 0.00229 0.39515 0.44865 0.0
H534 H 0.01165 0.44967 0.63372 0.0
H535 H 0.01788 0.42857 0.57325 0.0
H536 H 0.01016 0.36923 0.61863 0.0
C537 C 0.01983 0.34199 0.46063 0.0
C538 C 0.00405 0.38932 0.48561 0.0
C539 C 0.01844 0.32912 0.42743 0.0
C540 C 0.00617 0.4361 0.63922 0.0
C541 C 0.00956 0.42407 0.60419 0.0
C542 C 0.00842 0.37507 0.58167 0.0
C543 C 0.00706 0.35746 0.45905 0.0
C544 C 0.00726 0.37022 0.49707 0.0
C545 C 0.00217 0.40653 0.60886 0.0
C546 C 0.00477 0.39411 0.57029 0.0
H547 H 0.98088 0.34943 0.36217 0.0
H548 H 0.98319 0.37178 0.42017 0.0
H549 H 0.01197 0.34863 0.55573 0.0
H550 H 0.97989 0.40873 0.71577 0.0
H551 H 0.98561 0.38784 0.65455 0.0
C552 C 0.85304 0.96888 0.13694 0.0
C553 C 0.84583 0.95124 0.14127 0.0
C554 C 0.8679 0.97309 0.10566 0.0
C555 C 0.88755 0.96062 0.99342 0.0
H556 H 0.931 0.98678 0.02636 0.0
C557 C 0.94688 0.97727 0.85676 0.0
C558 C 0.95588 0.9938 0.8587 0.0
C559 C 0.93409 0.97139 0.89237 0.0
C560 C 0.91881 0.97973 0.01623 0.0
H561 H 0.84964 0.92386 0.11827 0.0
H562 H 0.87515 0.93146 0.06267 0.0
H563 H 0.90806 0.97778 0.08791 0.0
H564 H 0.95816 0.01738 0.89864 0.0
H565 H 0.93534 0.00763 0.95927 0.0
H566 H 0.89769 0.96314 0.9215 0.0
C567 C 0.86913 0.94201 0.08332 0.0
C568 C 0.90576 0.97447 0.05169 0.0
C569 C 0.85448 0.93771 0.11509 0.0
C570 C 0.95156 0.00449 0.89636 0.0
C571 C 0.93857 0.99879 0.93146 0.0
C572 C 0.90042 0.96614 0.95776 0.0
C573 C 0.87574 0.95984 0.07762 0.0
C574 C 0.89 0.96488 0.04062 0.0
C575 C 0.92979 0.98205 0.93035 0.0
C576 C 0.91623 0.97582 0.96858 0.0
H577 H 0.84663 0.97974 0.15591 0.0
H578 H 0.87268 0.98698 0.10175 0.0
H579 H 0.87536 0.95345 0.98377 0.0
H580 H 0.95006 0.96865 0.8284 0.0
H581 H 0.92788 0.9583 0.89054 0.0
C582 C 0.46705 0.84262 0.09908 0.0
C583 C 0.46371 0.82661 0.07762 0.0
C584 C 0.4694 0.85927 0.07077 0.0
C585 C 0.46102 0.88199 0.9463 0.0
H586 H 0.49576 0.91675 0.98563 0.0
C587 C 0.48596 0.94396 0.82091 0.0
C588 C 0.48552 0.96097 0.84006 0.0
C589 C 0.48256 0.9278 0.85016 0.0
C590 C 0.48591 0.90721 0.97441 0.0
H591 H 0.46093 0.81524 0.0099 0.0
H592 H 0.46567 0.84397 0.96055 0.0
H593 H 0.49178 0.88804 0.03627 0.0
H594 H 0.48109 0.97435 0.90488 0.0
H595 H 0.47547 0.94606 0.95598 0.0
H596 H 0.45566 0.90104 0.88367 0.0
C597 C 0.46578 0.84399 0.99913 0.0
C598 C 0.48354 0.89078 0.00351 0.0
C599 C 0.46317 0.82746 0.0274 0.0
C600 C 0.48148 0.96148 0.88898 0.0
C601 C 0.47838 0.94529 0.91834 0.0
C602 C 0.4636 0.8983 0.91693 0.0
C603 C 0.46874 0.86019 0.02034 0.0
C604 C 0.47108 0.8779 0.98983 0.0
C605 C 0.47895 0.92828 0.89927 0.0
C606 C 0.47607 0.91106 0.93067 0.0
H607 H 0.46741 0.84234 0.13775 0.0
H608 H 0.47138 0.87147 0.08851 0.0
H609 H 0.45097 0.87267 0.93496 0.0
H610 H 0.48902 0.94312 0.78337 0.0
H611 H 0.48318 0.91485 0.83461 0.0
C612 C 0.68152 0.57247 0.1046 0.0
C613 C 0.68081 0.56619 0.15369 0.0
C614 C 0.66732 0.56872 0.07316 0.0
C615 C 0.63118 0.53593 0.05702 0.0
H616 H 0.61345 0.5731 0.95568 0.0
C617 C 0.5752 0.52219 0.91538 0.0
C618 C 0.57873 0.52917 0.86775 0.0
C619 C 0.58611 0.52711 0.95318 0.0
C620 C 0.61835 0.56252 0.98353 0.0
H621 H 0.66427 0.55117 0.20811 0.0
H622 H 0.63949 0.54439 0.15277 0.0
H623 H 0.635 0.58119 0.01688 0.0
H624 H 0.59644 0.54705 0.82293 0.0
H625 H 0.61564 0.55523 0.88831 0.0
H626 H 0.61486 0.51714 0.02298 0.0
C627 C 0.65118 0.55221 0.13884 0.0
C628 C 0.63067 0.56717 0.01867 0.0
C629 C 0.66539 0.55608 0.1705 0.0
C630 C 0.59342 0.5412 0.85895 0.0
C631 C 0.60429 0.54612 0.89664 0.0
C632 C 0.61888 0.53125 0.02171 0.0
C633 C 0.65204 0.55845 0.08977 0.0
C634 C 0.6375 0.55387 0.05533 0.0
C635 C 0.60077 0.53919 0.94425 0.0
C636 C 0.6126 0.54441 0.98403 0.0
H637 H 0.69338 0.57986 0.08997 0.0
H638 H 0.66861 0.57341 0.03544 0.0
H639 H 0.63633 0.52533 0.08456 0.0
H640 H 0.56413 0.51276 0.92349 0.0
H641 H 0.58295 0.5216 0.98945 0.0
C642 C 0.98986 0.66859 0.16323 0.0
C643 C 0.00285 0.68245 0.1558 0.0
C644 C 0.98767 0.65619 0.12896 0.0
C645 C 0.99462 0.65172 0.00049 0.0
H646 H 0.99741 0.59904 0.03668 0.0
C647 C 0.01162 0.60021 0.86364 0.0
C648 C 0.00356 0.58299 0.86861 0.0
C649 C 0.00878 0.61243 0.8983 0.0
C650 C 0.99624 0.61371 0.02593 0.0
H651 H 0.02331 0.69444 0.10612 0.0
H652 H 0.01949 0.67295 0.04684 0.0
H653 H 0.99737 0.62008 0.09882 0.0
H654 H 0.98574 0.56539 0.91392 0.0
H655 H 0.98037 0.58693 0.97377 0.0
H656 H 0.99356 0.64554 0.9278 0.0
C657 C 0.01106 0.67156 0.07905 0.0
C658 C 0.99626 0.62575 0.06161 0.0
C659 C 0.01341 0.68374 0.11335 0.0
C660 C 0.99207 0.57856 0.90858 0.0
C661 C 0.98918 0.59084 0.9433 0.0
C662 C 0.99444 0.63974 0.96493 0.0
C663 C 0.99814 0.65768 0.08631 0.0
C664 C 0.99591 0.64488 0.04917 0.0
C665 C 0.99768 0.60786 0.93889 0.0
C666 C 0.99573 0.62056 0.97706 0.0
H667 H 0.98151 0.66729 0.19557 0.0
H668 H 0.97757 0.64564 0.13543 0.0
H669 H 0.99398 0.66641 0.98984 0.0
H670 H 0.02036 0.6042 0.83313 0.0
H671 H 0.01577 0.62528 0.89384 0.0
C672 C 0.95139 0.18203 0.49628 0.0
C673 C 0.94827 0.18096 0.4473 0.0
C674 C 0.94821 0.16698 0.52975 0.0
C675 C 0.94739 0.1166 0.53346 0.0
H676 H 0.93575 0.11954 0.66751 0.0
C677 C 0.9533 0.05202 0.66656 0.0
C678 C 0.96497 0.05368 0.70625 0.0
C679 C 0.94596 0.06768 0.63845 0.0
C680 C 0.93894 0.11853 0.63011 0.0
H681 H 0.93796 0.16414 0.39495 0.0
H682 H 0.93164 0.13812 0.4534 0.0
H683 H 0.9319 0.14718 0.61039 0.0
H684 H 0.97688 0.07306 0.74977 0.0
H685 H 0.96417 0.1004 0.7004 0.0
H686 H 0.9548 0.08814 0.5531 0.0
C687 C 0.93718 0.15025 0.46605 0.0
C688 C 0.93681 0.13435 0.59742 0.0
C689 C 0.94067 0.16516 0.43258 0.0
C690 C 0.96802 0.07132 0.71926 0.0
C691 C 0.96064 0.087 0.69113 0.0
C692 C 0.94935 0.10083 0.56593 0.0
C693 C 0.94163 0.15068 0.51482 0.0
C694 C 0.9414 0.13365 0.54882 0.0
C695 C 0.95011 0.08532 0.64948 0.0
C696 C 0.94552 0.10168 0.61475 0.0
H697 H 0.95738 0.19406 0.50836 0.0
H698 H 0.95199 0.16779 0.56685 0.0
H699 H 0.9515 0.11553 0.49667 0.0
H700 H 0.9505 0.03863 0.65585 0.0
H701 H 0.93763 0.06599 0.60695 0.0
C702 C 0.32186 0.06897 0.51311 0.0
C703 C 0.32272 0.0712 0.46284 0.0
C704 C 0.33798 0.0631 0.5404 0.0
C705 C 0.38176 0.03534 0.53275 0.0
H706 H 0.39675 0.05699 0.64626 0.0
C707 C 0.45132 0.01305 0.63595 0.0
C708 C 0.45141 0.01365 0.68578 0.0
C709 C 0.43532 0.01949 0.60873 0.0
C710 C 0.39258 0.05058 0.61511 0.0
H711 H 0.34115 0.06956 0.40167 0.0
H712 H 0.36934 0.05928 0.44943 0.0
H713 H 0.36976 0.07071 0.59873 0.0
H714 H 0.43454 0.02029 0.74668 0.0
H715 H 0.40645 0.03082 0.69955 0.0
H716 H 0.40424 0.01496 0.54948 0.0
C717 C 0.35619 0.06206 0.46763 0.0
C718 C 0.37721 0.05854 0.58777 0.0
C719 C 0.34013 0.06813 0.4404 0.0
C720 C 0.43493 0.01984 0.70821 0.0
C721 C 0.41889 0.02604 0.68113 0.0
C722 C 0.39702 0.02726 0.56035 0.0
C723 C 0.35516 0.05913 0.5178 0.0
C724 C 0.3717 0.05102 0.5463 0.0
C725 C 0.41905 0.02644 0.63094 0.0
C726 C 0.40262 0.03478 0.60187 0.0
H727 H 0.3086 0.07131 0.53123 0.0
H728 H 0.33682 0.0609 0.57905 0.0
H729 H 0.3776 0.02911 0.50128 0.0
H730 H 0.46389 0.00847 0.61772 0.0
H731 H 0.43601 0.01973 0.57012 0.0
C732 C 0.54157 0.35917 0.47212 0.0
C733 C 0.55954 0.35114 0.46381 0.0
C734 C 0.53969 0.37573 0.4925 0.0
C735 C 0.56291 0.40449 0.56974 0.0
H736 H 0.52627 0.44212 0.51418 0.0
C737 C 0.54473 0.47088 0.65934 0.0
C738 C 0.52525 0.47526 0.66281 0.0
C739 C 0.55133 0.45774 0.62965 0.0
C740 C 0.53652 0.43174 0.53022 0.0
H741 H 0.58966 0.35397 0.4708 0.0
H742 H 0.58634 0.38299 0.50747 0.0
H743 H 0.5333 0.41473 0.47354 0.0
H744 H 0.49751 0.46978 0.63658 0.0
H745 H 0.50893 0.44687 0.58566 0.0
H746 H 0.56552 0.42109 0.62756 0.0
C747 C 0.57376 0.37642 0.49783 0.0
C748 C 0.54056 0.41609 0.5069 0.0
C749 C 0.57565 0.35991 0.47679 0.0
C750 C 0.5126 0.46673 0.6348 0.0
C751 C 0.51918 0.45367 0.60523 0.0
C752 C 0.55876 0.42011 0.59334 0.0
C753 C 0.55574 0.38456 0.50536 0.0
C754 C 0.55341 0.4021 0.52707 0.0
C755 C 0.53858 0.44881 0.60277 0.0
C756 C 0.54512 0.43366 0.57447 0.0
H757 H 0.52891 0.35284 0.46192 0.0
H758 H 0.52563 0.38158 0.49849 0.0
H759 H 0.57283 0.39386 0.5861 0.0
H760 H 0.55483 0.47725 0.68042 0.0
H761 H 0.56638 0.45442 0.62815 0.0
C762 C 0.1589 0.49137 0.45921 0.0
C763 C 0.15688 0.47899 0.4247 0.0
C764 C 0.14327 0.49748 0.48461 0.0
C765 C 0.09051 0.49964 0.48391 0.0
H766 H 0.09711 0.50599 0.61826 0.0
C767 C 0.03099 0.49887 0.62467 0.0
C768 C 0.03115 0.51207 0.65757 0.0
C769 C 0.04538 0.49772 0.59106 0.0
C770 C 0.09512 0.50453 0.58058 0.0
H771 H 0.1366 0.46357 0.38956 0.0
H772 H 0.10971 0.47332 0.43566 0.0
H773 H 0.12443 0.4977 0.57114 0.0
H774 H 0.04599 0.53497 0.67964 0.0
H775 H 0.07135 0.53269 0.6213 0.0
H776 H 0.06094 0.50556 0.49457 0.0
C777 C 0.12326 0.47874 0.44229 0.0
C778 C 0.11078 0.49982 0.55346 0.0
C779 C 0.13882 0.47284 0.41642 0.0
C780 C 0.04546 0.52468 0.65466 0.0
C781 C 0.06002 0.52333 0.62154 0.0
C782 C 0.07481 0.50406 0.51131 0.0
C783 C 0.12525 0.49117 0.47666 0.0
C784 C 0.10868 0.49714 0.50484 0.0
C785 C 0.06032 0.50957 0.59023 0.0
C786 C 0.07697 0.50642 0.55994 0.0
H787 H 0.17259 0.49626 0.46701 0.0
H788 H 0.14534 0.50723 0.51033 0.0
H789 H 0.08838 0.49809 0.44636 0.0
H790 H 0.02012 0.48898 0.62605 0.0
H791 H 0.04537 0.48692 0.56745 0.0
C792 C 0.05526 0.83992 0.05829 0.0
C793 C 0.03733 0.8331 0.06763 0.0
C794 C 0.05743 0.85479 0.02341 0.0
C795 C 0.03266 0.88159 0.91954 0.0
H796 H 0.06305 0.92122 0.95065 0.0
C797 C 0.03234 0.9641 0.87124 0.0
C798 C 0.027 0.96515 0.82277 0.0
C799 C 0.03849 0.94725 0.89594 0.0
C800 C 0.05451 0.91027 0.94138 0.0
H801 H 0.00761 0.8367 0.04835 0.0
H802 H 0.01133 0.86256 0.98819 0.0
H803 H 0.06341 0.89268 0.00415 0.0
H804 H 0.02559 0.94983 0.76093 0.0
H805 H 0.03704 0.92058 0.80348 0.0
H806 H 0.0227 0.89944 0.85876 0.0
C807 C 0.02383 0.8562 0.00669 0.0
C808 C 0.05489 0.89382 0.97177 0.0
C809 C 0.02168 0.84137 0.0413 0.0
C810 C 0.02938 0.94937 0.79849 0.0
C811 C 0.03581 0.93258 0.82299 0.0
C812 C 0.03215 0.89804 0.88946 0.0
C813 C 0.0417 0.86313 0.99733 0.0
C814 C 0.04353 0.8795 0.96189 0.0
C815 C 0.03968 0.93114 0.8725 0.0
C816 C 0.04267 0.91279 0.90061 0.0
H817 H 0.0676 0.83372 0.0778 0.0
H818 H 0.07141 0.85972 0.01678 0.0
H819 H 0.02403 0.87069 0.91036 0.0
H820 H 0.03062 0.97604 0.89092 0.0
H821 H 0.04116 0.9467 0.93409 0.0
C822 C 0.65963 0.96181 0.08809 0.0
C823 C 0.67787 0.96651 0.074 0.0
C824 C 0.64435 0.96611 0.05678 0.0
C825 C 0.627 0.99868 0.95909 0.0
H826 H 0.59321 0.96096 0.93262 0.0
C827 C 0.56156 0.98854 0.82469 0.0
C828 C 0.54815 0.00221 0.83629 0.0
C829 C 0.5781 0.98477 0.85168 0.0
C830 C 0.60258 0.9716 0.93965 0.0
H831 H 0.69462 0.97933 0.01667 0.0
H832 H 0.66764 0.98728 0.96189 0.0
H833 H 0.62102 0.9527 0.9838 0.0
H834 H 0.54184 0.02312 0.88412 0.0
H835 H 0.57113 0.01669 0.93098 0.0
H836 H 0.60824 0.01765 0.91576 0.0
C837 C 0.66528 0.98015 0.99703 0.0
C838 C 0.61838 0.9669 0.96896 0.0
C839 C 0.68065 0.97553 0.02808 0.0
C840 C 0.5519 0.01247 0.87451 0.0
C841 C 0.56864 0.00886 0.90112 0.0
C842 C 0.61097 0.00345 0.93041 0.0
C843 C 0.64703 0.97545 0.01121 0.0
C844 C 0.6307 0.98039 0.97889 0.0
C845 C 0.58169 0.99478 0.89032 0.0
C846 C 0.59868 0.98992 0.92045 0.0
H847 H 0.65722 0.95479 0.12333 0.0
H848 H 0.63037 0.96244 0.06849 0.0
H849 H 0.63628 0.00931 0.96662 0.0
H850 H 0.55912 0.98041 0.79538 0.0
H851 H 0.58805 0.97395 0.84252 0.0
C852 C 0.44137 0.64334 0.08785 0.0
C853 C 0.44081 0.66066 0.06074 0.0
C854 C 0.44355 0.62722 0.06541 0.0
C855 C 0.4415 0.6086 0.94764 0.0
H856 H 0.47937 0.57264 0.00514 0.0
C857 C 0.46317 0.54259 0.86069 0.0
C858 C 0.48276 0.53881 0.85753 0.0
C859 C 0.45602 0.55575 0.88957 0.0
C860 C 0.46875 0.58254 0.98866 0.0
H861 H 0.44112 0.67459 0.9886 0.0
H862 H 0.44534 0.64647 0.94947 0.0
H863 H 0.46997 0.59929 0.04639 0.0
H864 H 0.51017 0.54539 0.88351 0.0
H865 H 0.49773 0.56837 0.9335 0.0
H866 H 0.44092 0.59221 0.88889 0.0
C867 C 0.44393 0.64534 0.98808 0.0
C868 C 0.46319 0.59771 0.01255 0.0
C869 C 0.44173 0.66147 0.01053 0.0
C870 C 0.495 0.54798 0.88512 0.0
C871 C 0.48786 0.56108 0.91403 0.0
C872 C 0.44706 0.5934 0.92374 0.0
C873 C 0.44526 0.62805 0.01536 0.0
C874 C 0.44974 0.61108 0.99194 0.0
C875 C 0.46832 0.56532 0.91602 0.0
C876 C 0.461 0.58038 0.94361 0.0
H877 H 0.4409 0.64221 0.12662 0.0
H878 H 0.44428 0.61411 0.08738 0.0
H879 H 0.43095 0.61856 0.93108 0.0
H880 H 0.45336 0.53571 0.83997 0.0
H881 H 0.44088 0.55857 0.89083 0.0
C882 C 0.84022 0.53981 0.07874 0.0
C883 C 0.84426 0.54986 0.11705 0.0
C884 C 0.85488 0.53224 0.05253 0.0
C885 C 0.90672 0.52019 0.05953 0.0
H886 H 0.9012 0.5181 0.92273 0.0
C887 C 0.9679 0.51426 0.92586 0.0
C888 C 0.96616 0.50218 0.89058 0.0
C889 C 0.95332 0.51677 0.95824 0.0
C890 C 0.90281 0.51834 0.96108 0.0
H891 H 0.86654 0.56054 0.1571 0.0
H892 H 0.89214 0.54814 0.11011 0.0
H893 H 0.87491 0.53033 0.96773 0.0
H894 H 0.94825 0.48265 0.86269 0.0
H895 H 0.92249 0.48738 0.91894 0.0
H896 H 0.93506 0.5091 0.05187 0.0
C897 C 0.87776 0.54541 0.10124 0.0
C898 C 0.88775 0.52533 0.98694 0.0
C899 C 0.86313 0.5527 0.12788 0.0
C900 C 0.95001 0.49192 0.88984 0.0
C901 C 0.93524 0.49471 0.92167 0.0
C902 C 0.92187 0.51349 0.03346 0.0
C903 C 0.87387 0.53482 0.06369 0.0
C904 C 0.88957 0.52655 0.03644 0.0
C905 C 0.93661 0.5075 0.95531 0.0
C906 C 0.92008 0.51266 0.98397 0.0
H907 H 0.82575 0.53729 0.07015 0.0
H908 H 0.8513 0.52399 0.02433 0.0
H909 H 0.90852 0.52046 0.09777 0.0
H910 H 0.98019 0.52238 0.92709 0.0
H911 H 0.95465 0.52679 0.98368 0.0
C912 C 0.99243 0.19414 0.06781 0.0
C913 C 0.00697 0.20607 0.07359 0.0
C914 C 0.99487 0.17991 0.03857 0.0
C915 C 0.03214 0.15083 0.98695 0.0
H916 H 0.98949 0.1344 0.91948 0.0
C917 C 0.03045 0.07736 0.93124 0.0
C918 C 0.0202 0.07421 0.89017 0.0
C919 C 0.03044 0.09492 0.94657 0.0
C920 C 0.00168 0.1389 0.93737 0.0
H921 H 0.03536 0.21259 0.0519 0.0
H922 H 0.03956 0.18779 0.00018 0.0
H923 H 0.98617 0.16283 0.957 0.0
H924 H 0.00252 0.0875 0.83192 0.0
H925 H 0.00297 0.1182 0.8578 0.0
H926 H 0.04772 0.127 0.96681 0.0
C927 C 0.02634 0.18933 0.01896 0.0
C928 C 0.99969 0.15513 0.95956 0.0
C929 C 0.02392 0.20358 0.0485 0.0
C930 C 0.01062 0.08932 0.86361 0.0
C931 C 0.01069 0.10695 0.87883 0.0
C932 C 0.03418 0.13465 0.96447 0.0
C933 C 0.0119 0.17717 0.01404 0.0
C934 C 0.01474 0.16109 0.98566 0.0
C935 C 0.0203 0.10992 0.92108 0.0
C936 C 0.01885 0.12823 0.94029 0.0
H937 H 0.97936 0.19532 0.08742 0.0
H938 H 0.98357 0.17063 0.03667 0.0
H939 H 0.04404 0.15489 0.00689 0.0
H940 H 0.03827 0.06618 0.9522 0.0
H941 H 0.03785 0.09655 0.9795 0.0
C942 C 0.30225 0.07449 0.05032 0.0
C943 C 0.29728 0.06099 0.08693 0.0
C944 C 0.31854 0.0719 0.02319 0.0
C945 C 0.35454 0.03679 0.99026 0.0
H946 H 0.38706 0.0779 0.97468 0.0
C947 C 0.42342 0.03516 0.8799 0.0
C948 C 0.4394 0.04227 0.89964 0.0
C949 C 0.40561 0.03744 0.90046 0.0
C950 C 0.37818 0.06627 0.97891 0.0
H951 H 0.30536 0.03388 0.12241 0.0
H952 H 0.33349 0.02927 0.07469 0.0
H953 H 0.35638 0.08153 0.01285 0.0
H954 H 0.44898 0.05728 0.95695 0.0
H955 H 0.41789 0.06136 0.99256 0.0
H956 H 0.37652 0.02142 0.95718 0.0
C957 C 0.32474 0.04183 0.06677 0.0
C958 C 0.36049 0.06841 0.00023 0.0
C959 C 0.30851 0.04446 0.09404 0.0
C960 C 0.43702 0.05182 0.94038 0.0
C961 C 0.41917 0.05416 0.96082 0.0
C962 C 0.37219 0.03467 0.96866 0.0
C963 C 0.3302 0.0557 0.03181 0.0
C964 C 0.34851 0.05366 0.00649 0.0
C965 C 0.40325 0.04697 0.94115 0.0
C966 C 0.38429 0.04935 0.96307 0.0
H967 H 0.29378 0.08727 0.04335 0.0
H968 H 0.32217 0.08271 0.99591 0.0
H969 H 0.34561 0.02519 0.99428 0.0
H970 H 0.42454 0.02807 0.84803 0.0
H971 H 0.3936 0.03198 0.88398 0.0
C972 C 0.5189 0.32948 0.07286 0.0
C973 C 0.53579 0.3269 0.09976 0.0
C974 C 0.51532 0.3454 0.04108 0.0
C975 C 0.52917 0.39349 0.02095 0.0
H976 H 0.50546 0.39354 0.89631 0.0
C977 C 0.52586 0.45745 0.88227 0.0
C978 C 0.50923 0.46151 0.85492 0.0
C979 C 0.52831 0.44097 0.91218 0.0
C980 C 0.51187 0.39377 0.93129 0.0
H981 H 0.56233 0.33899 0.11329 0.0
H982 H 0.55634 0.36628 0.05718 0.0
H983 H 0.51156 0.36446 0.94672 0.0
H984 H 0.48204 0.45147 0.83801 0.0
H985 H 0.48629 0.42272 0.89067 0.0
H986 H 0.52954 0.42271 0.0057 0.0
C987 C 0.54571 0.35616 0.06112 0.0
C988 C 0.5154 0.37711 0.96013 0.0
C989 C 0.54928 0.34031 0.09279 0.0
C990 C 0.49502 0.44877 0.85859 0.0
C991 C 0.49751 0.43223 0.8885 0.0
C992 C 0.52566 0.4101 0.99221 0.0
C993 C 0.52854 0.35911 0.03565 0.0
C994 C 0.52427 0.37676 0.00511 0.0
C995 C 0.51422 0.42812 0.91553 0.0
C996 C 0.51713 0.41045 0.94683 0.0
H997 H 0.50826 0.31937 0.07705 0.0
H998 H 0.50193 0.34726 0.02207 0.0
H999 H 0.53562 0.39378 0.05588 0.0
H1000 H 0.53713 0.46691 0.88021 0.0
H1001 H 0.54146 0.43815 0.932 0.0
C1002 C 0.17298 0.43213 0.04015 0.0
C1003 C 0.1832 0.44636 0.05587 0.0
C1004 C 0.1571 0.43618 0.01027 0.0
C1005 C 0.12052 0.47326 0.98407 0.0
H1006 H 0.10689 0.44738 0.87647 0.0
C1007 C 0.05843 0.49979 0.86056 0.0
C1008 C 0.04642 0.48704 0.84442 0.0
C1009 C 0.07527 0.49387 0.88455 0.0
C1010 C 0.1104 0.45458 0.90682 0.0
H1011 H 0.18512 0.47602 0.05043 0.0
H1012 H 0.15789 0.48297 0.99776 0.0
H1013 H 0.13671 0.43878 0.91955 0.0
H1014 H 0.04285 0.458 0.84041 0.0
H1015 H 0.0723 0.44759 0.88324 0.0
H1016 H 0.09431 0.4889 0.97215 0.0
C1017 C 0.16197 0.46869 0.00907 0.0
C1018 C 0.1275 0.44969 0.93135 0.0
C1019 C 0.1778 0.46466 0.03875 0.0
C1020 C 0.05178 0.46817 0.85249 0.0
C1021 C 0.06869 0.46222 0.87675 0.0
C1022 C 0.10349 0.47806 0.95983 0.0
C1023 C 0.15108 0.45455 0.99574 0.0
C1024 C 0.13285 0.45918 0.96982 0.0
C1025 C 0.08056 0.47502 0.89339 0.0
C1026 C 0.0983 0.46899 0.92047 0.0
H1027 H 0.17686 0.41787 0.05227 0.0
H1028 H 0.14902 0.42499 0.00053 0.0
H1029 H 0.12398 0.48051 0.01437 0.0
H1030 H 0.05488 0.51444 0.85457 0.0
H1031 H 0.08423 0.50415 0.8959 0.0
C1032 C 0.97365 0.81993 0.46231 0.0
C1033 C 0.99164 0.81074 0.46513 0.0
C1034 C 0.96934 0.83444 0.48989 0.0
C1035 C 0.98711 0.85948 0.58959 0.0
H1036 H 0.96046 0.90126 0.51781 0.0
C1037 C 0.97345 0.93016 0.66571 0.0
C1038 C 0.97561 0.94587 0.63311 0.0
C1039 C 0.97362 0.91261 0.64972 0.0
C1040 C 0.96801 0.88977 0.53838 0.0
H1041 H 0.01862 0.8087 0.50251 0.0
H1042 H 0.01142 0.83436 0.54898 0.0
H1043 H 0.96384 0.87219 0.48374 0.0
H1044 H 0.98043 0.95525 0.55841 0.0
H1045 H 0.98089 0.92498 0.53083 0.0
H1046 H 0.9921 0.87754 0.64314 0.0
C1047 C 0.00052 0.83031 0.52581 0.0
C1048 C 0.96969 0.87293 0.51911 0.0
C1049 C 0.00475 0.81569 0.49858 0.0
C1050 C 0.97822 0.94357 0.5844 0.0
C1051 C 0.97847 0.92613 0.56852 0.0
C1052 C 0.98552 0.87643 0.60879 0.0
C1053 C 0.98295 0.84028 0.52074 0.0
C1054 C 0.97953 0.8576 0.54403 0.0
C1055 C 0.97603 0.91041 0.60079 0.0
C1056 C 0.97627 0.89189 0.58294 0.0
H1057 H 0.96317 0.81662 0.43691 0.0
H1058 H 0.9555 0.84147 0.4858 0.0
H1059 H 0.99455 0.84794 0.61019 0.0
H1060 H 0.97132 0.93146 0.70341 0.0
H1061 H 0.97159 0.90083 0.67556 0.0
C1062 C 0.69791 0.93112 0.49046 0.0
C1063 C 0.70506 0.94566 0.46021 0.0
C1064 C 0.6814 0.93388 0.51666 0.0
C1065 C 0.64817 0.97002 0.55782 0.0
H1066 H 0.61138 0.93291 0.55353 0.0
C1067 C 0.56299 0.96179 0.58698 0.0
C1068 C 0.56034 0.97016 0.62949 0.0
C1069 C 0.58117 0.95836 0.56949 0.0
C1070 C 0.62146 0.94345 0.55485 0.0
H1071 H 0.70062 0.97467 0.4351 0.0
H1072 H 0.67208 0.97947 0.48089 0.0
H1073 H 0.6426 0.92797 0.51938 0.0
H1074 H 0.57491 0.981 0.68761 0.0
H1075 H 0.6065 0.97507 0.65713 0.0
H1076 H 0.62681 0.98576 0.59191 0.0
C1077 C 0.67932 0.96597 0.48486 0.0
C1078 C 0.63946 0.9405 0.53587 0.0
C1079 C 0.69578 0.96321 0.45867 0.0
C1080 C 0.57634 0.97489 0.65424 0.0
C1081 C 0.59451 0.97146 0.63678 0.0
C1082 C 0.63017 0.97296 0.57685 0.0
C1083 C 0.67165 0.95125 0.51328 0.0
C1084 C 0.653 0.95382 0.53672 0.0
C1085 C 0.59716 0.96318 0.59414 0.0
C1086 C 0.61652 0.95978 0.57522 0.0
H1087 H 0.70482 0.91748 0.49295 0.0
H1088 H 0.67607 0.92232 0.53892 0.0
H1089 H 0.65828 0.98051 0.55943 0.0
H1090 H 0.55099 0.95814 0.56677 0.0
H1091 H 0.58268 0.95221 0.53615 0.0
C1092 C 0.49281 0.6746 0.41309 0.0
C1093 C 0.47841 0.68782 0.42154 0.0
C1094 C 0.49648 0.65908 0.44596 0.0
C1095 C 0.47298 0.63062 0.5428 0.0
H1096 H 0.52301 0.60675 0.56148 0.0
C1097 C 0.48412 0.55672 0.63654 0.0
C1098 C 0.49986 0.55277 0.66715 0.0
C1099 C 0.48211 0.57347 0.60747 0.0
C1100 C 0.50896 0.6133 0.55714 0.0
H1101 H 0.45728 0.69565 0.47234 0.0
H1102 H 0.464 0.66879 0.53047 0.0
H1103 H 0.51905 0.63631 0.513 0.0
H1104 H 0.52588 0.56332 0.69106 0.0
H1105 H 0.52217 0.5926 0.64132 0.0
H1106 H 0.46295 0.60788 0.58798 0.0
C1107 C 0.47213 0.67014 0.49778 0.0
C1108 C 0.50665 0.63019 0.5288 0.0
C1109 C 0.46835 0.6856 0.46467 0.0
C1110 C 0.51363 0.56586 0.66766 0.0
C1111 C 0.51154 0.58266 0.63891 0.0
C1112 C 0.47531 0.6138 0.57141 0.0
C1113 C 0.48593 0.65644 0.4883 0.0
C1114 C 0.48861 0.63902 0.52091 0.0
C1115 C 0.4957 0.58675 0.60859 0.0
C1116 C 0.4933 0.60483 0.57866 0.0
H1117 H 0.5006 0.67573 0.37983 0.0
H1118 H 0.50703 0.64876 0.43699 0.0
H1119 H 0.45883 0.63683 0.53707 0.0
H1120 H 0.4733 0.54689 0.63512 0.0
H1121 H 0.46991 0.57597 0.58393 0.0
C1122 C 0.8185 0.57656 0.52673 0.0
C1123 C 0.8139 0.56487 0.49235 0.0
C1124 C 0.83404 0.57203 0.55754 0.0
C1125 C 0.86883 0.53292 0.59818 0.0
H1126 H 0.89868 0.57196 0.63522 0.0
C1127 C 0.93497 0.51538 0.7156 0.0
C1128 C 0.95049 0.5264 0.70818 0.0
C1129 C 0.91754 0.52092 0.69411 0.0
C1130 C 0.89068 0.56084 0.62475 0.0
H1131 H 0.82214 0.53956 0.46244 0.0
H1132 H 0.84942 0.532 0.51421 0.0
H1133 H 0.86996 0.57966 0.58828 0.0
H1134 H 0.96001 0.55196 0.67305 0.0
H1135 H 0.92987 0.5612 0.63264 0.0
H1136 H 0.89009 0.51408 0.6311 0.0
C1137 C 0.84073 0.54425 0.5194 0.0
C1138 C 0.87392 0.56529 0.59848 0.0
C1139 C 0.82505 0.54859 0.48945 0.0
C1140 C 0.94821 0.54324 0.67929 0.0
C1141 C 0.93085 0.54856 0.6565 0.0
C1142 C 0.88574 0.52849 0.62336 0.0
C1143 C 0.84555 0.5559 0.55387 0.0
C1144 C 0.86282 0.55137 0.58446 0.0
C1145 C 0.91528 0.53737 0.66324 0.0
C1146 C 0.89698 0.54235 0.63707 0.0
H1147 H 0.81015 0.58924 0.52951 0.0
H1148 H 0.83705 0.58123 0.58401 0.0
H1149 H 0.86056 0.52175 0.58919 0.0
H1150 H 0.93627 0.50249 0.73854 0.0
H1151 H 0.90587 0.51217 0.70181 0.0
loop_
_geom_bond_atom_site_label_1
_geom_bond_atom_site_label_2
_geom_bond_distance
_geom_bond_site_symmetry_2
_ccdc_geom_bond_type
C0 C1 1.386 . S
C0 C2 1.397 1_556 S
C0 H24 0.931 . S
C1 C0 1.386 . S
C1 C5 1.397 1_556 S
C2 C0 1.397 1_554 S
C2 C3 1.384 . S
C2 H25 0.930 . S
C3 C2 1.384 . S
C3 C4 1.377 . S
C3 C6 1.481 . S
C4 C3 1.377 . S
C4 C5 1.389 . S
C4 H26 0.929 . S
C5 C1 1.397 1_554 S
C5 C4 1.389 . S
C5 H27 0.931 . S
C6 C3 1.481 . S
C6 C7 1.387 . S
C6 C11 1.390 . S
C7 C6 1.387 . S
C7 C8 1.401 . S
C7 H28 0.930 . S
C8 C7 1.401 . S
C8 C9 1.376 . S
C8 C17 1.511 . S
C9 C8 1.376 . S
C9 C10 1.392 . S
C9 H30 0.931 . S
C10 C9 1.392 . S
C10 C11 1.361 . S
C10 C12 1.500 . S
C11 C6 1.390 . S
C11 C10 1.361 . S
C11 H29 0.931 . S
C12 C10 1.500 . S
C12 C13 1.371 . S
C12 C14 1.365 . S
C13 C12 1.371 . S
C13 C23 1.386 . S
C13 H31 0.931 . S
C14 C12 1.365 . S
C14 C15 1.409 . S
C14 H32 0.929 . S
C15 C14 1.409 . S
C15 C16 1.380 . S
C15 H33 0.930 . S
C16 C15 1.380 . S
C16 C23 1.357 . S
C17 C8 1.511 . S
C17 C18 1.341 . S
C17 C19 1.371 . S
C18 C17 1.341 . S
C18 C22 1.394 . S
C18 H34 0.930 . S
C19 C17 1.371 . S
C19 C20 1.392 . S
C19 H35 0.931 . S
C20 C19 1.392 . S
C20 C21 1.331 . S
C20 H38 0.932 . S
C21 C20 1.331 . S
C21 C22 1.336 . S
C22 C18 1.394 . S
C22 C21 1.336 . S
C22 H37 0.929 . S
C23 C13 1.386 . S
C23 C16 1.357 . S
C23 H36 0.928 . S
H24 C0 0.931 . S
H25 C2 0.930 . S
H26 C4 0.929 . S
H27 C5 0.931 . S
H28 C7 0.930 . S
H29 C11 0.931 . S
H30 C9 0.931 . S
H31 C13 0.931 . S
H32 C14 0.929 . S
H33 C15 0.930 . S
H34 C18 0.930 . S
H35 C19 0.931 . S
H36 C23 0.928 . S
H37 C22 0.929 . S
H38 C20 0.932 . S
C39 C40 1.395 . S
C39 C41 1.397 1_556 S
C39 H63 0.931 . S
C40 C39 1.395 . S
C40 C44 1.389 1_656 S
C41 C39 1.397 1_554 S
C41 C42 1.389 . S
C41 H64 0.930 . S
C42 C41 1.389 . S
C42 C43 1.372 1_655 S
C42 C45 1.479 . S
C43 C42 1.372 1_455 S
C43 C44 1.389 . S
C43 H65 0.929 . S
C44 C40 1.389 1_454 S
C44 C43 1.389 . S
C44 H66 0.931 . S
C45 C42 1.479 . S
C45 C46 1.390 . S
C45 C50 1.390 . S
C46 C45 1.390 . S
C46 C47 1.401 . S
C46 H67 0.930 . S
C47 C46 1.401 . S
C47 C48 1.376 . S
C47 C56 1.514 . S
C48 C47 1.376 . S
C48 C49 1.389 . S
C48 H69 0.936 . S
C49 C48 1.389 . S
C49 C50 1.362 . S
C49 C51 1.499 1_655 S
C50 C45 1.390 . S
C50 C49 1.362 . S
C50 H68 0.931 . S
C51 C49 1.499 1_455 S
C51 C52 1.363 1_455 S
C51 C53 1.374 . S
C52 C51 1.363 1_655 S
C52 C62 1.386 . S
C52 H70 0.931 . S
C53 C51 1.374 . S
C53 C54 1.409 . S
C53 H71 0.929 . S
C54 C53 1.409 . S
C54 C55 1.378 . S
C54 H72 0.930 . S
C55 C54 1.378 . S
C55 C62 1.360 1_455 S
C56 C47 1.514 . S
C56 C57 1.341 . S
C56 C58 1.371 1_655 S
C57 C56 1.341 . S
C57 C61 1.394 . S
C57 H73 0.930 . S
C58 C56 1.371 1_455 S
C58 C59 1.392 . S
C58 H74 0.931 . S
C59 C58 1.392 . S
C59 C60 1.322 1_455 S
C59 H77 0.932 . S
C60 C59 1.322 1_655 S
C60 C61 1.344 . S
C61 C57 1.394 . S
C61 C60 1.344 . S
C61 H76 0.929 . S
C62 C52 1.386 . S
C62 C55 1.360 1_655 S
C62 H75 0.928 . S
H63 C39 0.931 . S
H64 C41 0.930 . S
H65 C43 0.929 . S
H66 C44 0.931 . S
H67 C46 0.930 . S
H68 C50 0.931 . S
H69 C48 0.936 . S
H70 C52 0.931 . S
H71 C53 0.929 . S
H72 C54 0.930 . S
H73 C57 0.930 . S
H74 C58 0.931 . S
H75 C62 0.928 . S
H76 C61 0.929 . S
H77 C59 0.932 . S
C78 C79 1.386 . S
C78 C80 1.397 1_556 S
C78 H102 0.931 . S
C79 C78 1.386 . S
C79 C83 1.397 1_556 S
C80 C78 1.397 1_554 S
C80 C81 1.384 . S
C80 H103 0.932 . S
C81 C80 1.384 . S
C81 C82 1.377 . S
C81 C84 1.481 . S
C82 C81 1.377 . S
C82 C83 1.389 . S
C82 H104 0.929 . S
C83 C79 1.397 1_554 S
C83 C82 1.389 . S
C83 H105 0.931 . S
C84 C81 1.481 . S
C84 C85 1.387 . S
C84 C89 1.390 . S
C85 C84 1.387 . S
C85 C86 1.401 . S
C85 H106 0.930 . S
C86 C85 1.401 . S
C86 C87 1.376 . S
C86 C95 1.511 . S
C87 C86 1.376 . S
C87 C88 1.392 . S
C87 H108 0.931 . S
C88 C87 1.392 . S
C88 C89 1.361 . S
C88 C90 1.500 . S
C89 C84 1.390 . S
C89 C88 1.361 . S
C89 H107 0.931 . S
C90 C88 1.500 . S
C90 C91 1.371 . S
C90 C92 1.365 . S
C91 C90 1.371 . S
C91 C101 1.386 . S
C91 H109 0.931 . S
C92 C90 1.365 . S
C92 C93 1.409 . S
C92 H110 0.929 . S
C93 C92 1.409 . S
C93 C94 1.380 . S
C93 H111 0.930 . S
C94 C93 1.380 . S
C94 C101 1.357 . S
C95 C86 1.511 . S
C95 C96 1.341 . S
C95 C97 1.371 . S
C96 C95 1.341 . S
C96 C100 1.394 . S
C96 H112 0.930 . S
C97 C95 1.371 . S
C97 C98 1.392 . S
C97 H113 0.931 . S
C98 C97 1.392 . S
C98 C99 1.331 . S
C98 H116 0.932 . S
C99 C98 1.331 . S
C99 C100 1.336 . S
C100 C96 1.394 . S
C100 C99 1.336 . S
C100 H115 0.929 . S
C101 C91 1.386 . S
C101 C94 1.357 . S
C101 H114 0.928 . S
H102 C78 0.931 . S
H103 C80 0.932 . S
H104 C82 0.929 . S
H105 C83 0.931 . S
H106 C85 0.930 . S
H107 C89 0.931 . S
H108 C87 0.931 . S
H109 C91 0.931 . S
H110 C92 0.929 . S
H111 C93 0.930 . S
H112 C96 0.930 . S
H113 C97 0.931 . S
H114 C101 0.928 . S
H115 C100 0.929 . S
H116 C98 0.932 . S
C117 C118 1.386 . S
C117 C119 1.397 . S
C117 H141 0.931 . S
C118 C117 1.386 . S
C118 C122 1.397 . S
C119 C117 1.397 . S
C119 C120 1.384 . S
C119 H142 0.930 . S
C120 C119 1.384 . S
C120 C121 1.377 . S
C120 C123 1.481 . S
C121 C120 1.377 . S
C121 C122 1.389 . S
C121 H143 0.929 . S
C122 C118 1.397 . S
C122 C121 1.389 . S
C122 H144 0.931 . S
C123 C120 1.481 . S
C123 C124 1.387 . S
C123 C128 1.390 . S
C124 C123 1.387 . S
C124 C125 1.401 . S
C124 H145 0.930 . S
C125 C124 1.401 . S
C125 C126 1.376 . S
C125 C134 1.511 . S
C126 C125 1.376 . S
C126 C127 1.392 . S
C126 H147 0.931 . S
C127 C126 1.392 . S
C127 C128 1.361 . S
C127 C129 1.500 . S
C128 C123 1.390 . S
C128 C127 1.361 . S
C128 H146 0.931 . S
C129 C127 1.500 . S
C129 C130 1.371 . S
C129 C131 1.365 . S
C130 C129 1.371 . S
C130 C140 1.386 1_554 S
C130 H148 0.931 . S
C131 C129 1.365 . S
C131 C132 1.409 . S
C131 H149 0.929 . S
C132 C131 1.409 . S
C132 C133 1.380 1_554 S
C132 H150 0.930 . S
C133 C132 1.380 1_556 S
C133 C140 1.357 . S
C134 C125 1.511 . S
C134 C135 1.341 . S
C134 C136 1.371 . S
C135 C134 1.341 . S
C135 C139 1.394 . S
C135 H151 0.930 . S
C136 C134 1.371 . S
C136 C137 1.392 . S
C136 H152 0.931 . S
C137 C136 1.392 . S
C137 C138 1.331 . S
C137 H155 0.932 . S
C138 C137 1.331 . S
C138 C139 1.336 . S
C139 C135 1.394 . S
C139 C138 1.336 . S
C139 H154 0.929 . S
C140 C130 1.386 1_556 S
C140 C133 1.357 . S
C140 H153 0.928 . S
H141 C117 0.931 . S
H142 C119 0.930 . S
H143 C121 0.929 . S
H144 C122 0.931 . S
H145 C124 0.930 . S
H146 C128 0.931 . S
H147 C126 0.931 . S
H148 C130 0.931 . S
H149 C131 0.929 . S
H150 C132 0.930 . S
H151 C135 0.930 . S
H152 C136 0.931 . S
H153 C140 0.928 . S
H154 C139 0.929 . S
H155 C137 0.932 . S
C156 C157 1.386 . S
C156 C158 1.397 . S
C156 H180 0.931 . S
C157 C156 1.386 . S
C157 C161 1.397 . S
C158 C156 1.397 . S
C158 C159 1.384 . S
C158 H181 0.930 . S
C159 C158 1.384 . S
C159 C160 1.377 . S
C159 C162 1.481 . S
C160 C159 1.377 . S
C160 C161 1.389 . S
C160 H182 0.929 . S
C161 C157 1.397 . S
C161 C160 1.389 . S
C161 H183 0.931 . S
C162 C159 1.481 . S
C162 C163 1.387 . S
C162 C167 1.390 . S
C163 C162 1.387 . S
C163 C164 1.401 . S
C163 H184 0.930 . S
C164 C163 1.401 . S
C164 C165 1.376 . S
C164 C173 1.511 . S
C165 C164 1.376 . S
C165 C166 1.392 . S
C165 H186 0.931 . S
C166 C165 1.392 . S
C166 C167 1.361 . S
C166 C168 1.500 . S
C167 C162 1.390 . S
C167 C166 1.361 . S
C167 H185 0.931 . S
C168 C166 1.500 . S
C168 C169 1.371 . S
C168 C170 1.365 . S
C169 C168 1.371 . S
C169 C179 1.386 . S
C169 H187 0.931 . S
C170 C168 1.365 . S
C170 C171 1.409 . S
C170 H188 0.929 . S
C171 C170 1.409 . S
C171 C172 1.380 . S
C171 H189 0.930 . S
C172 C171 1.380 . S
C172 C179 1.357 . S
C173 C164 1.511 . S
C173 C174 1.341 . S
C173 C175 1.371 . S
C174 C173 1.341 . S
C174 C178 1.394 . S
C174 H190 0.930 . S
C175 C173 1.371 . S
C175 C176 1.392 . S
C175 H191 0.931 . S
C176 C175 1.392 . S
C176 C177 1.331 . S
C176 H194 0.932 . S
C177 C176 1.331 . S
C177 C178 1.336 . S
C178 C174 1.394 . S
C178 C177 1.336 . S
C178 H193 0.929 . S
C179 C169 1.386 . S
C179 C172 1.357 . S
C179 H192 0.928 . S
H180 C156 0.931 . S
H181 C158 0.930 . S
H182 C160 0.929 . S
H183 C161 0.931 . S
H184 C163 0.930 . S
H185 C167 0.931 . S
H186 C165 0.931 . S
H187 C169 0.931 . S
H188 C170 0.929 . S
H189 C171 0.930 . S
H190 C174 0.930 . S
H191 C175 0.931 . S
H192 C179 0.928 . S
H193 C178 0.929 . S
H194 C176 0.932 . S
C195 C196 1.386 . S
C195 C197 1.397 . S
C195 H219 0.931 . S
C196 C195 1.386 . S
C196 C200 1.397 1_655 S
C197 C195 1.397 . S
C197 C198 1.380 . S
C197 H220 0.930 . S
C198 C197 1.380 . S
C198 C199 1.381 1_655 S
C198 C201 1.482 . S
C199 C198 1.381 1_455 S
C199 C200 1.389 . S
C199 H221 0.929 . S
C200 C196 1.397 1_455 S
C200 C199 1.389 . S
C200 H222 0.931 . S
C201 C198 1.482 . S
C201 C202 1.389 . S
C201 C206 1.390 . S
C202 C201 1.389 . S
C202 C203 1.399 . S
C202 H223 0.935 . S
C203 C202 1.399 . S
C203 C204 1.376 . S
C203 C212 1.511 . S
C204 C203 1.376 . S
C204 C205 1.393 1_655 S
C204 H225 0.932 . S
C205 C204 1.393 1_455 S
C205 C206 1.361 1_455 S
C205 C207 1.499 . S
C206 C201 1.390 . S
C206 C205 1.361 1_655 S
C206 H224 0.931 1_655 S
C207 C205 1.499 . S
C207 C208 1.358 1_455 S
C207 C209 1.379 . S
C208 C207 1.358 1_655 S
C208 C218 1.386 . S
C208 H226 0.931 . S
C209 C207 1.379 . S
C209 C210 1.409 . S
C209 H227 0.929 . S
C210 C209 1.409 . S
C210 C211 1.384 . S
C210 H228 0.930 . S
C211 C210 1.384 . S
C211 C218 1.354 1_455 S
C212 C203 1.511 . S
C212 C213 1.341 . S
C212 C214 1.371 1_655 S
C213 C212 1.341 . S
C213 C217 1.394 . S
C213 H229 0.930 . S
C214 C212 1.371 1_455 S
C214 C215 1.392 . S
C214 H230 0.931 . S
C215 C214 1.392 . S
C215 C216 1.326 1_455 S
C215 H233 0.932 . S
C216 C215 1.326 1_655 S
C216 C217 1.341 . S
C217 C213 1.394 . S
C217 C216 1.341 . S
C217 H232 0.929 . S
C218 C208 1.386 . S
C218 C211 1.354 1_655 S
C218 H231 0.928 . S
H219 C195 0.931 . S
H220 C197 0.930 . S
H221 C199 0.929 . S
H222 C200 0.931 . S
H223 C202 0.935 . S
H224 C206 0.931 1_455 S
H225 C204 0.932 . S
H226 C208 0.931 . S
H227 C209 0.929 . S
H228 C210 0.930 . S
H229 C213 0.930 . S
H230 C214 0.931 . S
H231 C218 0.928 . S
H232 C217 0.929 . S
H233 C215 0.932 . S
C234 C235 1.386 . S
C234 C236 1.397 . S
C234 H258 0.931 . S
C235 C234 1.386 . S
C235 C239 1.397 . S
C236 C234 1.397 . S
C236 C237 1.384 . S
C236 H259 0.930 . S
C237 C236 1.384 . S
C237 C238 1.377 . S
C237 C240 1.481 . S
C238 C237 1.377 . S
C238 C239 1.389 . S
C238 H260 0.929 . S
C239 C235 1.397 . S
C239 C238 1.389 . S
C239 H261 0.931 . S
C240 C237 1.481 . S
C240 C241 1.387 . S
C240 C245 1.390 . S
C241 C240 1.387 . S
C241 C242 1.401 . S
C241 H262 0.930 . S
C242 C241 1.401 . S
C242 C243 1.376 . S
C242 C251 1.511 . S
C243 C242 1.376 . S
C243 C244 1.392 . S
C243 H264 0.931 . S
C244 C243 1.392 . S
C244 C245 1.361 . S
C244 C246 1.500 . S
C245 C240 1.390 . S
C245 C244 1.361 . S
C245 H263 0.931 . S
C246 C244 1.500 . S
C246 C247 1.371 . S
C246 C248 1.365 . S
C247 C246 1.371 . S
C247 C257 1.386 . S
C247 H265 0.931 . S
C248 C246 1.365 . S
C248 C249 1.409 . S
C248 H266 0.929 . S
C249 C248 1.409 . S
C249 C250 1.380 . S
C249 H267 0.930 . S
C250 C249 1.380 . S
C250 C257 1.357 . S
C251 C242 1.511 . S
C251 C252 1.341 . S
C251 C253 1.371 . S
C252 C251 1.341 . S
C252 C256 1.394 . S
C252 H268 0.930 . S
C253 C251 1.371 . S
C253 C254 1.392 . S
C253 H269 0.931 . S
C254 C253 1.392 . S
C254 C255 1.331 . S
C254 H272 0.932 . S
C255 C254 1.331 . S
C255 C256 1.336 . S
C256 C252 1.394 . S
C256 C255 1.336 . S
C256 H271 0.929 . S
C257 C247 1.386 . S
C257 C250 1.357 . S
C257 H270 0.928 . S
H258 C234 0.931 . S
H259 C236 0.930 . S
H260 C238 0.929 . S
H261 C239 0.931 . S
H262 C241 0.930 . S
H263 C245 0.931 . S
H264 C243 0.931 . S
H265 C247 0.931 . S
H266 C248 0.929 . S
H267 C249 0.930 . S
H268 C252 0.930 . S
H269 C253 0.931 . S
H270 C257 0.928 . S
H271 C256 0.929 . S
H272 C254 0.932 . S
C273 C274 1.386 . S
C273 C275 1.397 . S
C273 H297 0.931 . S
C274 C273 1.386 . S
C274 C278 1.397 . S
C275 C273 1.397 . S
C275 C276 1.384 . S
C275 H298 0.930 . S
C276 C275 1.384 . S
C276 C277 1.377 . S
C276 C279 1.481 . S
C277 C276 1.377 . S
C277 C278 1.389 . S
C277 H299 0.929 . S
C278 C274 1.397 . S
C278 C277 1.389 . S
C278 H300 0.931 . S
C279 C276 1.481 . S
C279 C280 1.387 . S
C279 C284 1.390 . S
C280 C279 1.387 . S
C280 C281 1.401 . S
C280 H301 0.930 . S
C281 C280 1.401 . S
C281 C282 1.376 . S
C281 C290 1.511 . S
C282 C281 1.376 . S
C282 C283 1.392 . S
C282 H303 0.931 . S
C283 C282 1.392 . S
C283 C284 1.361 . S
C283 C285 1.500 . S
C284 C279 1.390 . S
C284 C283 1.361 . S
C284 H302 0.931 . S
C285 C283 1.500 . S
C285 C286 1.371 . S
C285 C287 1.365 . S
C286 C285 1.371 . S
C286 C296 1.386 . S
C286 H304 0.931 . S
C287 C285 1.365 . S
C287 C288 1.409 . S
C287 H305 0.929 . S
C288 C287 1.409 . S
C288 C289 1.380 . S
C288 H306 0.930 . S
C289 C288 1.380 . S
C289 C296 1.357 . S
C290 C281 1.511 . S
C290 C291 1.341 . S
C290 C292 1.371 . S
C291 C290 1.341 . S
C291 C295 1.394 . S
C291 H307 0.930 . S
C292 C290 1.371 . S
C292 C293 1.392 . S
C292 H308 0.931 . S
C293 C292 1.392 . S
C293 C294 1.331 . S
C293 H311 0.932 . S
C294 C293 1.331 . S
C294 C295 1.336 . S
C295 C291 1.394 . S
C295 C294 1.336 . S
C295 H310 0.929 . S
C296 C286 1.386 . S
C296 C289 1.357 . S
C296 H309 0.928 . S
H297 C273 0.931 . S
H298 C275 0.930 . S
H299 C277 0.929 . S
H300 C278 0.931 . S
H301 C280 0.930 . S
H302 C284 0.931 . S
H303 C282 0.931 . S
H304 C286 0.931 . S
H305 C287 0.929 . S
H306 C288 0.930 . S
H307 C291 0.930 . S
H308 C292 0.931 . S
H309 C296 0.928 . S
H310 C295 0.929 . S
H311 C293 0.932 . S
Co312 N317 2.057 . S
Co312 O329 2.021 . S
Co312 O332 2.062 1_455 S
Co312 O336 2.117 1_455 S
Co312 O337 2.020 1_545 S
C313 O333 1.259 1_545 S
C313 O336 1.258 . S
Co314 N323 2.057 . S
Co314 O330 2.117 1_665 S
Co314 O331 2.020 1_565 S
Co314 O333 2.021 . S
Co314 O338 2.062 1_655 S
C315 N317 1.316 . S
C315 N318 1.347 . S
C315 H320 0.931 . S
C316 N317 1.375 1_655 S
C316 C319 1.350 . S
C316 H321 0.930 . S
N317 Co312 2.057 . S
N317 C315 1.316 . S
N317 C316 1.375 1_455 S
N318 C315 1.347 . S
N318 C319 1.373 1_455 S
C319 C316 1.350 . S
C319 N318 1.373 1_655 S
C319 H340 0.931 . S
H320 C315 0.931 . S
H321 C316 0.930 . S
C322 O329 1.259 . S
C322 O330 1.258 . S
N323 Co314 2.057 . S
N323 C324 1.316 . S
N323 C325 1.375 1_655 S
C324 N323 1.316 . S
C324 N326 1.347 . S
C324 H335 0.931 . S
C325 N323 1.375 1_455 S
C325 C327 1.350 . S
C325 H334 0.930 . S
N326 C324 1.347 . S
N326 C327 1.373 1_655 S
C327 C325 1.350 . S
C327 N326 1.373 1_455 S
C327 H341 0.931 . S
C328 O331 1.256 . S
C328 O332 1.255 . S
O329 Co312 2.021 . S
O329 C322 1.259 . S
O330 Co314 2.117 1_445 S
O330 C322 1.258 . S
O331 Co314 2.020 1_545 S
O331 C328 1.256 . S
O332 Co312 2.062 1_655 S
O332 C328 1.255 . S
O333 C313 1.259 1_565 S
O333 Co314 2.021 . S
H334 C325 0.930 . S
H335 C324 0.931 . S
O336 Co312 2.117 1_655 S
O336 C313 1.258 . S
O337 Co312 2.020 1_565 S
O337 C339 1.256 . S
O338 Co314 2.062 1_455 S
O338 C339 1.255 . S
C339 O337 1.256 . S
C339 O338 1.255 . S
H340 C319 0.931 . S
H341 C327 0.931 . S
Co342 N347 2.057 . S
Co342 O359 2.021 . S
Co342 O362 2.062 . S
Co342 O366 2.117 1_545 S
Co342 O367 2.020 . S
C343 O363 1.259 . S
C343 O366 1.258 . S
Co344 N353 2.053 1_545 S
Co344 O360 2.147 . S
Co344 O361 2.023 . S
Co344 O363 1.993 1_545 S
Co344 O368 2.063 1_545 S
C345 N347 1.316 . S
C345 N348 1.347 . S
C345 H350 0.931 . S
C346 N347 1.375 . S
C346 C349 1.350 . S
C346 H351 0.930 1_545 S
N347 Co342 2.057 . S
N347 C345 1.316 . S
N347 C346 1.375 . S
N348 C345 1.347 . S
N348 C349 1.373 . S
C349 C346 1.350 . S
C349 N348 1.373 . S
C349 H370 0.931 . S
H350 C345 0.931 . S
H351 C346 0.930 1_565 S
C352 O359 1.259 . S
C352 O360 1.258 . S
N353 Co344 2.053 1_565 S
N353 C354 1.316 . S
N353 C355 1.375 1_565 S
C354 N353 1.316 . S
C354 N356 1.347 . S
C354 H365 0.931 . S
C355 N353 1.375 1_545 S
C355 C357 1.350 . S
C355 H364 0.930 . S
N356 C354 1.347 . S
N356 C357 1.373 1_565 S
C357 C355 1.350 . S
C357 N356 1.373 1_545 S
C357 H371 0.931 . S
C358 O361 1.256 . S
C358 O362 1.255 . S
O359 Co342 2.021 . S
O359 C352 1.259 . S
O360 Co344 2.147 . S
O360 C352 1.258 . S
O361 Co344 2.023 . S
O361 C358 1.256 . S
O362 Co342 2.062 . S
O362 C358 1.255 . S
O363 C343 1.259 . S
O363 Co344 1.993 1_565 S
H364 C355 0.930 . S
H365 C354 0.931 . S
O366 Co342 2.117 1_565 S
O366 C343 1.258 . S
O367 Co342 2.020 . S
O367 C369 1.256 . S
O368 Co344 2.063 1_565 S
O368 C369 1.255 1_565 S
C369 O367 1.256 . S
C369 O368 1.255 1_545 S
H370 C349 0.931 . S
H371 C357 0.931 . S
Co372 N377 2.057 . S
Co372 O389 2.021 . S
Co372 O392 2.062 . S
Co372 O396 2.117 . S
Co372 O397 2.020 . S
C373 O393 1.259 . S
C373 O396 1.258 . S
Co374 N383 2.057 . S
Co374 O390 2.117 . S
Co374 O391 2.020 . S
Co374 O393 2.021 . S
Co374 O398 2.062 . S
C375 N377 1.316 . S
C375 N378 1.347 . S
C375 H380 0.931 . S
C376 N377 1.375 . S
C376 C379 1.350 . S
C376 H381 0.930 . S
N377 Co372 2.057 . S
N377 C375 1.316 . S
N377 C376 1.375 . S
N378 C375 1.347 . S
N378 C379 1.373 . S
C379 C376 1.350 . S
C379 N378 1.373 . S
C379 H400 0.931 . S
H380 C375 0.931 . S
H381 C376 0.930 . S
C382 O389 1.259 . S
C382 O390 1.258 . S
N383 Co374 2.057 . S
N383 C384 1.316 . S
N383 C385 1.375 . S
C384 N383 1.316 . S
C384 N386 1.347 . S
C384 H395 0.931 . S
C385 N383 1.375 . S
C385 C387 1.350 . S
C385 H394 0.930 . S
N386 C384 1.347 . S
N386 C387 1.373 . S
C387 C385 1.350 . S
C387 N386 1.373 . S
C387 H401 0.931 . S
C388 O391 1.256 . S
C388 O392 1.255 . S
O389 Co372 2.021 . S
O389 C382 1.259 . S
O390 Co374 2.117 . S
O390 C382 1.258 . S
O391 Co374 2.020 . S
O391 C388 1.256 . S
O392 Co372 2.062 . S
O392 C388 1.255 . S
O393 C373 1.259 . S
O393 Co374 2.021 . S
H394 C385 0.930 . S
H395 C384 0.931 . S
O396 Co372 2.117 . S
O396 C373 1.258 . S
O397 Co372 2.020 . S
O397 C399 1.256 . S
O398 Co374 2.062 . S
O398 C399 1.255 . S
C399 O397 1.256 . S
C399 O398 1.255 . S
H400 C379 0.931 . S
H401 C387 0.931 . S
Co402 N407 2.057 . S
Co402 O419 2.021 1_455 S
Co402 O422 2.062 1_455 S
Co402 O426 2.117 . S
Co402 O427 2.020 . S
C403 O423 1.259 . S
C403 O426 1.258 . S
Co404 N413 2.057 . S
Co404 O420 2.117 . S
Co404 O421 2.020 . S
Co404 O423 2.021 1_655 S
Co404 O428 2.062 1_655 S
C405 N407 1.316 . S
C405 N408 1.347 . S
C405 H410 0.931 1_455 S
C406 N407 1.375 . S
C406 C409 1.350 . S
C406 H411 0.930 . S
N407 Co402 2.057 . S
N407 C405 1.316 . S
N407 C406 1.375 . S
N408 C405 1.347 . S
N408 C409 1.373 . S
C409 C406 1.350 . S
C409 N408 1.373 . S
C409 H430 0.931 . S
H410 C405 0.931 1_655 S
H411 C406 0.930 . S
C412 O419 1.259 . S
C412 O420 1.258 . S
N413 Co404 2.057 . S
N413 C414 1.316 . S
N413 C415 1.375 . S
C414 N413 1.316 . S
C414 N416 1.347 . S
C414 H425 0.931 1_655 S
C415 N413 1.375 . S
C415 C417 1.350 . S
C415 H424 0.930 . S
N416 C414 1.347 . S
N416 C417 1.373 . S
C417 C415 1.350 . S
C417 N416 1.373 . S
C417 H431 0.931 . S
C418 O421 1.256 . S
C418 O422 1.255 . S
O419 Co402 2.021 1_655 S
O419 C412 1.259 . S
O420 Co404 2.117 . S
O420 C412 1.258 . S
O421 Co404 2.020 . S
O421 C418 1.256 . S
O422 Co402 2.062 1_655 S
O422 C418 1.255 . S
O423 C403 1.259 . S
O423 Co404 2.021 1_455 S
H424 C415 0.930 . S
H425 C414 0.931 1_455 S
O426 Co402 2.117 . S
O426 C403 1.258 . S
O427 Co402 2.020 . S
O427 C429 1.256 . S
O428 Co404 2.062 1_455 S
O428 C429 1.255 . S
C429 O427 1.256 . S
C429 O428 1.255 . S
H430 C409 0.931 . S
H431 C417 0.931 . S
C432 C433 1.349 . S
C432 C434 1.327 . S
C432 H457 0.950 . S
C433 C432 1.349 . S
C433 C449 1.349 . S
C434 C432 1.327 . S
C434 C453 1.429 . S
C434 H458 0.950 . S
C435 C452 1.574 . S
C435 C454 1.368 . S
C435 H459 0.949 . S
H436 C440 0.949 . S
C437 C438 1.349 . S
C437 C439 1.327 . S
C437 H460 0.950 . S
C438 C437 1.349 . S
C438 C450 1.349 . S
C439 C437 1.327 . S
C439 C455 1.429 . S
C439 H461 0.950 . S
C440 H436 0.949 . S
C440 C448 1.574 . S
C440 C456 1.368 . S
H441 C449 0.950 . S
H442 C447 0.950 . S
H443 C448 0.949 . S
H444 C450 0.950 . S
H445 C451 0.950 . S
H446 C452 0.949 . S
C447 H442 0.950 . S
C447 C449 1.327 . S
C447 C453 1.429 . S
C448 C440 1.574 . S
C448 H443 0.949 . S
C448 C454 1.368 . S
C449 C433 1.349 . S
C449 H441 0.950 . S
C449 C447 1.327 . S
C450 C438 1.349 . S
C450 H444 0.950 . S
C450 C451 1.327 . S
C451 H445 0.950 . S
C451 C450 1.327 . S
C451 C455 1.429 . S
C452 C435 1.574 . S
C452 H446 0.949 . S
C452 C456 1.368 . S
C453 C434 1.429 . S
C453 C447 1.429 . S
C453 C454 1.523 . S
C454 C435 1.368 . S
C454 C448 1.368 . S
C454 C453 1.523 . S
C455 C439 1.429 . S
C455 C451 1.429 . S
C455 C456 1.523 . S
C456 C440 1.368 . S
C456 C452 1.368 . S
C456 C455 1.523 . S
H457 C432 0.950 . S
H458 C434 0.950 . S
H459 C435 0.949 . S
H460 C437 0.950 . S
H461 C439 0.950 . S
C462 C463 1.349 . S
C462 C464 1.327 . S
C462 H487 0.950 . S
C463 C462 1.349 . S
C463 C479 1.349 . S
C464 C462 1.327 . S
C464 C483 1.429 . S
C464 H488 0.950 . S
C465 C482 1.574 . S
C465 C484 1.368 . S
C465 H489 0.949 . S
H466 C470 0.949 . S
C467 C468 1.349 . S
C467 C469 1.327 . S
C467 H490 0.950 . S
C468 C467 1.349 . S
C468 C480 1.349 . S
C469 C467 1.327 . S
C469 C485 1.429 . S
C469 H491 0.950 . S
C470 H466 0.949 . S
C470 C478 1.574 . S
C470 C486 1.368 . S
H471 C479 0.950 . S
H472 C477 0.950 . S
H473 C478 0.949 . S
H474 C480 0.950 . S
H475 C481 0.950 . S
H476 C482 0.949 . S
C477 H472 0.950 . S
C477 C479 1.327 . S
C477 C483 1.429 . S
C478 C470 1.574 . S
C478 H473 0.949 . S
C478 C484 1.368 . S
C479 C463 1.349 . S
C479 H471 0.950 . S
C479 C477 1.327 . S
C480 C468 1.349 . S
C480 H474 0.950 . S
C480 C481 1.327 . S
C481 H475 0.950 . S
C481 C480 1.327 . S
C481 C485 1.429 . S
C482 C465 1.574 . S
C482 H476 0.949 . S
C482 C486 1.368 . S
C483 C464 1.429 . S
C483 C477 1.429 . S
C483 C484 1.523 . S
C484 C465 1.368 . S
C484 C478 1.368 . S
C484 C483 1.523 . S
C485 C469 1.429 . S
C485 C481 1.429 . S
C485 C486 1.523 . S
C486 C470 1.368 . S
C486 C482 1.368 . S
C486 C485 1.523 . S
H487 C462 0.950 . S
H488 C464 0.950 . S
H489 C465 0.949 . S
H490 C467 0.950 . S
H491 C469 0.950 . S
C492 C493 1.349 . S
C492 C494 1.327 . S
C492 H517 0.950 . S
C493 C492 1.349 . S
C493 C509 1.349 . S
C494 C492 1.327 . S
C494 C513 1.429 . S
C494 H518 0.950 . S
C495 C512 1.574 . S
C495 C514 1.368 . S
C495 H519 0.949 . S
H496 C500 0.949 . S
C497 C498 1.349 . S
C497 C499 1.327 . S
C497 H520 0.950 . S
C498 C497 1.349 . S
C498 C510 1.349 . S
C499 C497 1.327 . S
C499 C515 1.429 . S
C499 H521 0.950 . S
C500 H496 0.949 . S
C500 C508 1.574 . S
C500 C516 1.368 . S
H501 C509 0.950 . S
H502 C507 0.950 . S
H503 C508 0.949 . S
H504 C510 0.950 . S
H505 C511 0.950 . S
H506 C512 0.949 . S
C507 H502 0.950 . S
C507 C509 1.327 . S
C507 C513 1.429 . S
C508 C500 1.574 . S
C508 H503 0.949 . S
C508 C514 1.368 . S
C509 C493 1.349 . S
C509 H501 0.950 . S
C509 C507 1.327 . S
C510 C498 1.349 . S
C510 H504 0.950 . S
C510 C511 1.327 . S
C511 H505 0.950 . S
C511 C510 1.327 . S
C511 C515 1.429 . S
C512 C495 1.574 . S
C512 H506 0.949 . S
C512 C516 1.368 . S
C513 C494 1.429 . S
C513 C507 1.429 . S
C513 C514 1.523 . S
C514 C495 1.368 . S
C514 C508 1.368 . S
C514 C513 1.523 . S
C515 C499 1.429 . S
C515 C511 1.429 . S
C515 C516 1.523 . S
C516 C500 1.368 . S
C516 C512 1.368 . S
C516 C515 1.523 . S
H517 C492 0.950 . S
H518 C494 0.950 . S
H519 C495 0.949 . S
H520 C497 0.950 . S
H521 C499 0.950 . S
C522 C523 1.344 1_455 S
C522 C524 1.327 . S
C522 H547 0.950 . S
C523 C522 1.344 1_655 S
C523 C539 1.355 . S
C524 C522 1.327 . S
C524 C543 1.429 1_455 S
C524 H548 0.950 . S
C525 C542 1.574 . S
C525 C544 1.368 . S
C525 H549 0.949 . S
H526 C530 0.949 1_455 S
C527 C528 1.349 . S
C527 C529 1.327 . S
C527 H550 0.950 . S
C528 C527 1.349 . S
C528 C540 1.349 . S
C529 C527 1.327 . S
C529 C545 1.429 . S
C529 H551 0.950 . S
C530 H526 0.949 1_655 S
C530 C538 1.574 1_655 S
C530 C546 1.368 . S
H531 C539 0.950 . S
H532 C537 0.950 . S
H533 C538 0.949 . S
H534 C540 0.950 . S
H535 C541 0.956 . S
H536 C542 0.949 . S
C537 H532 0.950 . S
C537 C539 1.327 . S
C537 C543 1.429 . S
C538 C530 1.574 1_455 S
C538 H533 0.949 . S
C538 C544 1.369 1_455 S
C539 C523 1.355 . S
C539 H531 0.950 . S
C539 C537 1.327 . S
C540 C528 1.349 . S
C540 H534 0.950 . S
C540 C541 1.327 . S
C541 H535 0.956 . S
C541 C540 1.327 . S
C541 C545 1.429 . S
C542 C525 1.574 . S
C542 H536 0.949 . S
C542 C546 1.368 . S
C543 C524 1.429 1_655 S
C543 C537 1.429 . S
C543 C544 1.523 . S
C544 C525 1.368 . S
C544 C538 1.369 1_655 S
C544 C543 1.523 . S
C545 C529 1.429 . S
C545 C541 1.429 . S
C545 C546 1.523 . S
C546 C530 1.368 . S
C546 C542 1.368 . S
C546 C545 1.523 . S
H547 C522 0.950 . S
H548 C524 0.950 . S
H549 C525 0.949 . S
H550 C527 0.950 . S
H551 C529 0.950 . S
C552 C553 1.349 . S
C552 C554 1.327 . S
C552 H577 0.950 . S
C553 C552 1.349 . S
C553 C569 1.349 1_554 S
C554 C552 1.327 . S
C554 C573 1.429 1_554 S
C554 H578 0.950 . S
C555 C572 1.574 . S
C555 C574 1.368 . S
C555 H579 0.949 . S
H556 C560 0.949 . S
C557 C558 1.349 . S
C557 C559 1.327 . S
C557 H580 0.950 . S
C558 C557 1.349 . S
C558 C570 1.349 1_565 S
C559 C557 1.327 . S
C559 C575 1.429 . S
C559 H581 0.950 . S
C560 H556 0.949 . S
C560 C568 1.574 . S
C560 C576 1.368 . S
H561 C569 0.950 . S
H562 C567 0.950 . S
H563 C568 0.949 1_554 S
H564 C570 0.950 . S
H565 C571 0.950 . S
H566 C572 0.949 . S
C567 H562 0.950 . S
C567 C569 1.327 . S
C567 C573 1.429 . S
C568 C560 1.574 . S
C568 H563 0.949 1_556 S
C568 C574 1.368 . S
C569 C553 1.349 1_556 S
C569 H561 0.950 . S
C569 C567 1.327 . S
C570 C558 1.349 1_545 S
C570 H564 0.950 . S
C570 C571 1.327 1_545 S
C571 H565 0.950 . S
C571 C570 1.327 1_565 S
C571 C575 1.429 . S
C572 C555 1.574 . S
C572 H566 0.949 . S
C572 C576 1.368 . S
C573 C554 1.429 1_556 S
C573 C567 1.429 . S
C573 C574 1.523 . S
C574 C555 1.368 . S
C574 C568 1.368 . S
C574 C573 1.523 . S
C575 C559 1.429 . S
C575 C571 1.429 . S
C575 C576 1.523 . S
C576 C560 1.368 . S
C576 C572 1.368 . S
C576 C575 1.523 . S
H577 C552 0.950 . S
H578 C554 0.950 . S
H579 C555 0.949 . S
H580 C557 0.950 . S
H581 C559 0.950 . S
C582 C583 1.349 . S
C582 C584 1.327 . S
C582 H607 0.950 . S
C583 C582 1.349 . S
C583 C599 1.349 . S
C584 C582 1.327 . S
C584 C603 1.429 1_554 S
C584 H608 0.950 . S
C585 C602 1.574 . S
C585 C604 1.368 . S
C585 H609 0.949 . S
H586 C590 0.949 . S
C587 C588 1.349 . S
C587 C589 1.327 . S
C587 H610 0.950 . S
C588 C587 1.349 . S
C588 C600 1.349 . S
C589 C587 1.327 . S
C589 C605 1.429 . S
C589 H611 0.950 . S
C590 H586 0.949 . S
C590 C598 1.574 . S
C590 C606 1.368 . S
H591 C599 0.950 . S
H592 C597 0.950 . S
H593 C598 0.949 1_554 S
H594 C600 0.950 . S
H595 C601 0.950 . S
H596 C602 0.949 . S
C597 H592 0.950 . S
C597 C599 1.327 1_556 S
C597 C603 1.429 . S
C598 C590 1.574 . S
C598 H593 0.949 1_556 S
C598 C604 1.368 . S
C599 C583 1.349 . S
C599 H591 0.950 . S
C599 C597 1.327 1_554 S
C600 C588 1.349 . S
C600 H594 0.950 . S
C600 C601 1.327 . S
C601 H595 0.950 . S
C601 C600 1.327 . S
C601 C605 1.429 . S
C602 C585 1.574 . S
C602 H596 0.949 . S
C602 C606 1.368 . S
C603 C584 1.429 1_556 S
C603 C597 1.429 . S
C603 C604 1.523 . S
C604 C585 1.368 . S
C604 C598 1.368 . S
C604 C603 1.523 . S
C605 C589 1.429 . S
C605 C601 1.429 . S
C605 C606 1.523 . S
C606 C590 1.368 . S
C606 C602 1.368 . S
C606 C605 1.523 . S
H607 C582 0.950 . S
H608 C584 0.950 . S
H609 C585 0.949 . S
H610 C587 0.950 . S
H611 C589 0.950 . S
C612 C613 1.349 . S
C612 C614 1.327 1_554 S
C612 H637 0.950 1_554 S
C613 C612 1.349 . S
C613 C629 1.349 . S
C614 C612 1.327 1_556 S
C614 C633 1.429 1_556 S
C614 H638 0.950 . S
C615 C632 1.562 1_554 S
C615 C634 1.358 1_554 S
C615 H639 0.969 . S
H616 C620 0.949 . S
C617 C618 1.349 . S
C617 C619 1.327 . S
C617 H640 0.950 . S
C618 C617 1.349 . S
C618 C630 1.349 . S
C619 C617 1.327 . S
C619 C635 1.429 . S
C619 H641 0.950 . S
C620 H616 0.949 . S
C620 C628 1.574 . S
C620 C636 1.368 . S
H621 C629 0.950 . S
H622 C627 0.950 . S
H623 C628 0.949 . S
H624 C630 0.950 . S
H625 C631 0.950 . S
H626 C632 0.949 . S
C627 H622 0.950 . S
C627 C629 1.327 . S
C627 C633 1.429 . S
C628 C620 1.574 . S
C628 H623 0.949 . S
C628 C634 1.368 . S
C629 C613 1.349 . S
C629 H621 0.950 . S
C629 C627 1.327 . S
C630 C618 1.349 . S
C630 H624 0.950 . S
C630 C631 1.327 . S
C631 H625 0.950 . S
C631 C630 1.327 . S
C631 C635 1.429 . S
C632 C615 1.562 1_556 S
C632 H626 0.949 . S
C632 C636 1.368 . S
C633 C614 1.429 1_554 S
C633 C627 1.429 . S
C633 C634 1.523 1_554 S
C634 C615 1.358 1_556 S
C634 C628 1.368 . S
C634 C633 1.523 1_556 S
C635 C619 1.429 . S
C635 C631 1.429 . S
C635 C636 1.523 . S
C636 C620 1.368 . S
C636 C632 1.368 . S
C636 C635 1.523 . S
H637 C612 0.950 1_556 S
H638 C614 0.950 . S
H639 C615 0.969 . S
H640 C617 0.950 . S
H641 C619 0.950 . S
C642 C643 1.352 . S
C642 C644 1.327 . S
C642 H667 0.950 . S
C643 C642 1.352 . S
C643 C659 1.346 1_455 S
C644 C642 1.327 . S
C644 C663 1.429 . S
C644 H668 0.950 . S
C645 C662 1.576 . S
C645 C664 1.378 . S
C645 H669 0.942 1_455 S
H646 C650 0.949 . S
C647 C648 1.349 . S
C647 C649 1.327 . S
C647 H670 0.950 . S
C648 C647 1.349 . S
C648 C660 1.349 . S
C649 C647 1.327 . S
C649 C665 1.429 . S
C649 H671 0.950 . S
C650 H646 0.949 . S
C650 C658 1.574 1_556 S
C650 C666 1.368 . S
H651 C659 0.950 . S
H652 C657 0.944 1_556 S
H653 C658 0.949 . S
H654 C660 0.950 . S
H655 C661 0.950 . S
H656 C662 0.953 . S
C657 H652 0.944 1_554 S
C657 C659 1.332 . S
C657 C663 1.430 1_655 S
C658 C650 1.574 1_554 S
C658 H653 0.949 . S
C658 C664 1.368 1_554 S
C659 C643 1.346 1_655 S
C659 H651 0.950 . S
C659 C657 1.332 . S
C660 C648 1.349 . S
C660 H654 0.950 . S
C660 C661 1.327 . S
C661 H655 0.950 . S
C661 C660 1.327 . S
C661 C665 1.429 . S
C662 C645 1.576 . S
C662 H656 0.953 . S
C662 C666 1.368 . S
C663 C644 1.429 . S
C663 C657 1.430 1_455 S
C663 C664 1.523 1_554 S
C664 C645 1.378 . S
C664 C658 1.368 1_556 S
C664 C663 1.523 1_556 S
C665 C649 1.429 . S
C665 C661 1.429 . S
C665 C666 1.523 . S
C666 C650 1.368 . S
C666 C662 1.368 . S
C666 C665 1.523 . S
H667 C642 0.950 . S
H668 C644 0.950 . S
H669 C645 0.942 1_655 S
H670 C647 0.950 . S
H671 C649 0.950 . S
C672 C673 1.349 1_655 S
C672 C674 1.327 . S
C672 H697 0.950 . S
C673 C672 1.349 1_455 S
C673 C689 1.349 . S
C674 C672 1.327 . S
C674 C693 1.429 . S
C674 H698 0.950 . S
C675 C692 1.574 . S
C675 C694 1.368 1_455 S
C675 H699 0.949 . S
H676 C680 0.949 . S
C677 C678 1.349 . S
C677 C679 1.335 . S
C677 H700 0.950 1_655 S
C678 C677 1.349 . S
C678 C690 1.349 . S
C679 C677 1.335 . S
C679 C695 1.446 . S
C679 H701 0.926 1_655 S
C680 H676 0.949 . S
C680 C688 1.574 . S
C680 C696 1.368 . S
H681 C689 0.950 . S
H682 C687 0.950 . S
H683 C688 0.949 . S
H684 C690 0.950 . S
H685 C691 0.950 . S
H686 C692 0.949 . S
C687 H682 0.950 . S
C687 C689 1.327 . S
C687 C693 1.429 1_455 S
C688 C680 1.574 . S
C688 H683 0.949 . S
C688 C694 1.368 . S
C689 C673 1.349 . S
C689 H681 0.950 . S
C689 C687 1.327 . S
C690 C678 1.349 . S
C690 H684 0.950 . S
C690 C691 1.327 . S
C691 H685 0.950 . S
C691 C690 1.327 . S
C691 C695 1.429 . S
C692 C675 1.574 . S
C692 H686 0.949 . S
C692 C696 1.368 1_455 S
C693 C674 1.429 . S
C693 C687 1.429 1_655 S
C693 C694 1.523 . S
C694 C675 1.368 1_655 S
C694 C688 1.368 . S
C694 C693 1.523 . S
C695 C679 1.446 . S
C695 C691 1.429 . S
C695 C696 1.523 . S
C696 C680 1.368 . S
C696 C692 1.368 1_655 S
C696 C695 1.523 . S
H697 C672 0.950 . S
H698 C674 0.950 . S
H699 C675 0.949 . S
H700 C677 0.950 1_455 S
H701 C679 0.926 1_455 S
C702 C703 1.349 . S
C702 C704 1.327 . S
C702 H727 0.950 . S
C703 C702 1.349 . S
C703 C719 1.349 . S
C704 C702 1.327 . S
C704 C723 1.429 . S
C704 H728 0.950 . S
C705 C722 1.574 . S
C705 C724 1.368 . S
C705 H729 0.949 . S
H706 C710 0.949 . S
C707 C708 1.349 . S
C707 C709 1.327 . S
C707 H730 0.950 . S
C708 C707 1.349 . S
C708 C720 1.349 . S
C709 C707 1.327 . S
C709 C725 1.429 . S
C709 H731 0.950 . S
C710 H706 0.949 . S
C710 C718 1.574 . S
C710 C726 1.368 . S
H711 C719 0.950 . S
H712 C717 0.950 . S
H713 C718 0.949 . S
H714 C720 0.950 . S
H715 C721 0.950 . S
H716 C722 0.949 . S
C717 H712 0.950 . S
C717 C719 1.327 . S
C717 C723 1.429 . S
C718 C710 1.574 . S
C718 H713 0.949 . S
C718 C724 1.368 . S
C719 C703 1.349 . S
C719 H711 0.950 . S
C719 C717 1.327 . S
C720 C708 1.349 . S
C720 H714 0.950 . S
C720 C721 1.327 . S
C721 H715 0.950 . S
C721 C720 1.327 . S
C721 C725 1.429 . S
C722 C705 1.574 . S
C722 H716 0.949 . S
C722 C726 1.368 . S
C723 C704 1.429 . S
C723 C717 1.429 . S
C723 C724 1.523 . S
C724 C705 1.368 . S
C724 C718 1.368 . S
C724 C723 1.523 . S
C725 C709 1.429 . S
C725 C721 1.429 . S
C725 C726 1.523 . S
C726 C710 1.368 . S
C726 C722 1.368 . S
C726 C725 1.523 . S
H727 C702 0.950 . S
H728 C704 0.950 . S
H729 C705 0.949 . S
H730 C707 0.950 . S
H731 C709 0.950 . S
C732 C733 1.349 . S
C732 C734 1.327 . S
C732 H757 0.950 . S
C733 C732 1.349 . S
C733 C749 1.349 . S
C734 C732 1.327 . S
C734 C753 1.429 . S
C734 H758 0.950 . S
C735 C752 1.574 . S
C735 C754 1.368 . S
C735 H759 0.949 . S
H736 C740 0.949 . S
C737 C738 1.349 . S
C737 C739 1.327 . S
C737 H760 0.950 . S
C738 C737 1.349 . S
C738 C750 1.349 . S
C739 C737 1.327 . S
C739 C755 1.429 . S
C739 H761 0.950 . S
C740 H736 0.949 . S
C740 C748 1.574 . S
C740 C756 1.368 . S
H741 C749 0.950 . S
H742 C747 0.950 . S
H743 C748 0.949 . S
H744 C750 0.950 . S
H745 C751 0.950 . S
H746 C752 0.949 . S
C747 H742 0.950 . S
C747 C749 1.327 . S
C747 C753 1.429 . S
C748 C740 1.574 . S
C748 H743 0.949 . S
C748 C754 1.368 . S
C749 C733 1.349 . S
C749 H741 0.950 . S
C749 C747 1.327 . S
C750 C738 1.349 . S
C750 H744 0.950 . S
C750 C751 1.327 . S
C751 H745 0.950 . S
C751 C750 1.327 . S
C751 C755 1.429 . S
C752 C735 1.574 . S
C752 H746 0.949 . S
C752 C756 1.368 . S
C753 C734 1.429 . S
C753 C747 1.429 . S
C753 C754 1.523 . S
C754 C735 1.368 . S
C754 C748 1.368 . S
C754 C753 1.523 . S
C755 C739 1.429 . S
C755 C751 1.429 . S
C755 C756 1.523 . S
C756 C740 1.368 . S
C756 C752 1.368 . S
C756 C755 1.523 . S
H757 C732 0.950 . S
H758 C734 0.950 . S
H759 C735 0.949 . S
H760 C737 0.950 . S
H761 C739 0.950 . S
C762 C763 1.349 . S
C762 C764 1.327 . S
C762 H787 0.950 . S
C763 C762 1.349 . S
C763 C779 1.349 . S
C764 C762 1.327 . S
C764 C783 1.429 . S
C764 H788 0.950 . S
C765 C782 1.574 . S
C765 C784 1.368 . S
C765 H789 0.949 . S
H766 C770 0.949 . S
C767 C768 1.349 . S
C767 C769 1.327 . S
C767 H790 0.950 . S
C768 C767 1.349 . S
C768 C780 1.349 . S
C769 C767 1.327 . S
C769 C785 1.429 . S
C769 H791 0.950 . S
C770 H766 0.949 . S
C770 C778 1.574 . S
C770 C786 1.368 . S
H771 C779 0.950 . S
H772 C777 0.950 . S
H773 C778 0.949 . S
H774 C780 0.950 . S
H775 C781 0.950 . S
H776 C782 0.949 . S
C777 H772 0.950 . S
C777 C779 1.327 . S
C777 C783 1.429 . S
C778 C770 1.574 . S
C778 H773 0.949 . S
C778 C784 1.368 . S
C779 C763 1.349 . S
C779 H771 0.950 . S
C779 C777 1.327 . S
C780 C768 1.349 . S
C780 H774 0.950 . S
C780 C781 1.327 . S
C781 H775 0.950 . S
C781 C780 1.327 . S
C781 C785 1.429 . S
C782 C765 1.574 . S
C782 H776 0.949 . S
C782 C786 1.368 . S
C783 C764 1.429 . S
C783 C777 1.429 . S
C783 C784 1.523 . S
C784 C765 1.368 . S
C784 C778 1.368 . S
C784 C783 1.523 . S
C785 C769 1.429 . S
C785 C781 1.429 . S
C785 C786 1.523 . S
C786 C770 1.368 . S
C786 C782 1.368 . S
C786 C785 1.523 . S
H787 C762 0.950 . S
H788 C764 0.950 . S
H789 C765 0.949 . S
H790 C767 0.950 . S
H791 C769 0.950 . S
C792 C793 1.349 1_454 S
C792 C794 1.327 1_554 S
C792 H817 0.950 . S
C793 C792 1.349 1_656 S
C793 C809 1.349 . S
C794 C792 1.327 1_556 S
C794 C813 1.429 . S
C794 H818 0.950 . S
C795 C812 1.574 . S
C795 C814 1.368 1_655 S
C795 H819 0.949 . S
H796 C800 0.949 . S
C797 C798 1.349 1_655 S
C797 C799 1.327 . S
C797 H820 0.950 . S
C798 C797 1.349 1_455 S
C798 C810 1.349 . S
C799 C797 1.327 . S
C799 C815 1.429 1_655 S
C799 H821 0.950 . S
C800 H796 0.949 . S
C800 C808 1.574 . S
C800 C816 1.368 . S
H801 C809 0.950 . S
H802 C807 0.950 . S
H803 C808 0.949 . S
H804 C810 0.950 . S
H805 C811 0.950 . S
H806 C812 0.949 . S
C807 H802 0.950 . S
C807 C809 1.327 . S
C807 C813 1.429 1_655 S
C808 C800 1.574 . S
C808 H803 0.949 . S
C808 C814 1.368 . S
C809 C793 1.349 . S
C809 H801 0.950 . S
C809 C807 1.327 . S
C810 C798 1.349 . S
C810 H804 0.950 . S
C810 C811 1.327 . S
C811 H805 0.950 . S
C811 C810 1.327 . S
C811 C815 1.429 . S
C812 C795 1.574 . S
C812 H806 0.949 . S
C812 C816 1.368 1_655 S
C813 C794 1.429 . S
C813 C807 1.429 1_455 S
C813 C814 1.523 . S
C814 C795 1.368 1_455 S
C814 C808 1.368 . S
C814 C813 1.523 . S
C815 C799 1.429 1_455 S
C815 C811 1.429 . S
C815 C816 1.523 . S
C816 C800 1.368 . S
C816 C812 1.368 1_455 S
C816 C815 1.523 . S
H817 C792 0.950 . S
H818 C794 0.950 . S
H819 C795 0.949 . S
H820 C797 0.950 . S
H821 C799 0.950 . S
C822 C823 1.349 . S
C822 C824 1.327 . S
C822 H847 0.950 . S
C823 C822 1.349 . S
C823 C839 1.349 . S
C824 C822 1.327 . S
C824 C843 1.429 . S
C824 H848 0.950 . S
C825 C842 1.574 . S
C825 C844 1.368 . S
C825 H849 0.949 . S
H826 C830 0.949 . S
C827 C828 1.349 . S
C827 C829 1.327 . S
C827 H850 0.950 . S
C828 C827 1.349 . S
C828 C840 1.349 1_545 S
C829 C827 1.327 . S
C829 C845 1.429 1_545 S
C829 H851 0.950 . S
C830 H826 0.949 . S
C830 C838 1.574 . S
C830 C846 1.368 . S
H831 C839 0.950 . S
H832 C837 0.950 . S
H833 C838 0.949 . S
H834 C840 0.950 . S
H835 C841 0.950 . S
H836 C842 0.949 1_545 S
C837 H832 0.950 . S
C837 C839 1.327 . S
C837 C843 1.429 . S
C838 C830 1.574 . S
C838 H833 0.949 . S
C838 C844 1.368 . S
C839 C823 1.349 . S
C839 H831 0.950 . S
C839 C837 1.327 . S
C840 C828 1.349 1_565 S
C840 H834 0.950 . S
C840 C841 1.327 . S
C841 H835 0.950 . S
C841 C840 1.327 . S
C841 C845 1.429 . S
C842 C825 1.574 . S
C842 H836 0.949 1_565 S
C842 C846 1.368 . S
C843 C824 1.429 . S
C843 C837 1.429 . S
C843 C844 1.523 . S
C844 C825 1.368 . S
C844 C838 1.368 . S
C844 C843 1.523 . S
C845 C829 1.429 1_565 S
C845 C841 1.429 . S
C845 C846 1.523 . S
C846 C830 1.368 . S
C846 C842 1.368 . S
C846 C845 1.523 . S
H847 C822 0.950 . S
H848 C824 0.950 . S
H849 C825 0.949 . S
H850 C827 0.950 . S
H851 C829 0.950 . S
C852 C853 1.349 1_554 S
C852 C854 1.327 1_554 S
C852 H877 0.950 . S
C853 C852 1.349 1_556 S
C853 C869 1.349 . S
C854 C852 1.327 1_556 S
C854 C873 1.429 . S
C854 H878 0.950 1_556 S
C855 C872 1.574 . S
C855 C874 1.368 . S
C855 H879 0.949 . S
H856 C860 0.949 . S
C857 C858 1.349 . S
C857 C859 1.327 . S
C857 H880 0.950 . S
C858 C857 1.349 . S
C858 C870 1.349 . S
C859 C857 1.327 . S
C859 C875 1.429 . S
C859 H881 0.950 . S
C860 H856 0.949 . S
C860 C868 1.574 . S
C860 C876 1.368 . S
H861 C869 0.950 . S
H862 C867 0.950 . S
H863 C868 0.949 . S
H864 C870 0.950 . S
H865 C871 0.950 . S
H866 C872 0.949 . S
C867 H862 0.950 . S
C867 C869 1.327 . S
C867 C873 1.429 . S
C868 C860 1.574 . S
C868 H863 0.949 . S
C868 C874 1.368 . S
C869 C853 1.349 . S
C869 H861 0.950 . S
C869 C867 1.327 . S
C870 C858 1.349 . S
C870 H864 0.950 . S
C870 C871 1.327 . S
C871 H865 0.950 . S
C871 C870 1.327 . S
C871 C875 1.429 . S
C872 C855 1.574 . S
C872 H866 0.949 . S
C872 C876 1.368 . S
C873 C854 1.429 . S
C873 C867 1.429 . S
C873 C874 1.523 . S
C874 C855 1.368 . S
C874 C868 1.368 . S
C874 C873 1.523 . S
C875 C859 1.429 . S
C875 C871 1.429 . S
C875 C876 1.523 . S
C876 C860 1.368 . S
C876 C872 1.368 . S
C876 C875 1.523 . S
H877 C852 0.950 . S
H878 C854 0.950 1_554 S
H879 C855 0.949 . S
H880 C857 0.950 . S
H881 C859 0.950 . S
C882 C883 1.349 . S
C882 C884 1.327 . S
C882 H907 0.950 . S
C883 C882 1.349 . S
C883 C899 1.349 1_556 S
C884 C882 1.327 . S
C884 C903 1.429 . S
C884 H908 0.950 . S
C885 C902 1.574 . S
C885 C904 1.368 . S
C885 H909 0.949 . S
H886 C890 0.949 . S
C887 C888 1.349 . S
C887 C889 1.327 . S
C887 H910 0.950 . S
C888 C887 1.349 . S
C888 C900 1.349 . S
C889 C887 1.327 . S
C889 C905 1.429 . S
C889 H911 0.950 . S
C890 H886 0.949 . S
C890 C898 1.574 . S
C890 C906 1.368 . S
H891 C899 0.950 . S
H892 C897 0.950 1_554 S
H893 C898 0.949 . S
H894 C900 0.950 . S
H895 C901 0.950 . S
H896 C902 0.949 . S
C897 H892 0.950 1_556 S
C897 C899 1.327 1_556 S
C897 C903 1.429 . S
C898 C890 1.574 . S
C898 H893 0.949 . S
C898 C904 1.368 . S
C899 C883 1.349 1_554 S
C899 H891 0.950 . S
C899 C897 1.327 1_554 S
C900 C888 1.349 . S
C900 H894 0.950 . S
C900 C901 1.327 . S
C901 H895 0.950 . S
C901 C900 1.327 . S
C901 C905 1.429 . S
C902 C885 1.574 . S
C902 H896 0.949 . S
C902 C906 1.368 . S
C903 C884 1.429 . S
C903 C897 1.429 . S
C903 C904 1.523 . S
C904 C885 1.368 . S
C904 C898 1.368 . S
C904 C903 1.523 . S
C905 C889 1.429 . S
C905 C901 1.429 . S
C905 C906 1.523 . S
C906 C890 1.368 . S
C906 C902 1.368 . S
C906 C905 1.523 . S
H907 C882 0.950 . S
H908 C884 0.950 . S
H909 C885 0.949 . S
H910 C887 0.950 . S
H911 C889 0.950 . S
C912 C913 1.312 1_655 S
C912 C914 1.327 . S
C912 H937 0.950 . S
C913 C912 1.312 1_455 S
C913 C929 1.387 . S
C914 C912 1.327 . S
C914 C933 1.429 1_655 S
C914 H938 0.950 . S
C915 C932 1.574 . S
C915 C934 1.368 . S
C915 H939 0.949 . S
H916 C920 0.949 1_556 S
C917 C918 1.349 . S
C917 C919 1.327 . S
C917 H940 0.950 . S
C918 C917 1.349 . S
C918 C930 1.349 1_455 S
C919 C917 1.327 . S
C919 C935 1.429 . S
C919 H941 0.950 1_556 S
C920 H916 0.949 1_554 S
C920 C928 1.574 . S
C920 C936 1.368 1_655 S
H921 C929 0.950 . S
H922 C927 0.950 . S
H923 C928 0.949 . S
H924 C930 0.950 . S
H925 C931 0.950 . S
H926 C932 0.949 . S
C927 H922 0.950 . S
C927 C929 1.327 . S
C927 C933 1.429 . S
C928 C920 1.574 . S
C928 H923 0.949 . S
C928 C934 1.368 1_655 S
C929 C913 1.387 . S
C929 H921 0.950 . S
C929 C927 1.327 . S
C930 C918 1.349 1_655 S
C930 H924 0.950 . S
C930 C931 1.327 . S
C931 H925 0.950 . S
C931 C930 1.327 . S
C931 C935 1.429 1_655 S
C932 C915 1.574 . S
C932 H926 0.949 . S
C932 C936 1.368 . S
C933 C914 1.429 1_455 S
C933 C927 1.429 . S
C933 C934 1.523 . S
C934 C915 1.368 . S
C934 C928 1.368 1_455 S
C934 C933 1.523 . S
C935 C919 1.429 . S
C935 C931 1.429 1_455 S
C935 C936 1.523 1_556 S
C936 C920 1.368 1_455 S
C936 C932 1.368 . S
C936 C935 1.523 1_554 S
H937 C912 0.950 . S
H938 C914 0.950 . S
H939 C915 0.949 . S
H940 C917 0.950 . S
H941 C919 0.950 1_554 S
C942 C943 1.349 . S
C942 C944 1.327 . S
C942 H967 0.950 . S
C943 C942 1.349 . S
C943 C959 1.349 . S
C944 C942 1.327 . S
C944 C963 1.429 . S
C944 H968 0.950 . S
C945 C962 1.574 . S
C945 C964 1.368 . S
C945 H969 0.949 . S
H946 C950 0.949 . S
C947 C948 1.349 . S
C947 C949 1.327 . S
C947 H970 0.950 . S
C948 C947 1.349 . S
C948 C960 1.349 . S
C949 C947 1.327 . S
C949 C965 1.429 1_556 S
C949 H971 0.950 . S
C950 H946 0.949 . S
C950 C958 1.574 . S
C950 C966 1.368 . S
H951 C959 0.950 . S
H952 C957 0.950 . S
H953 C958 0.949 . S
H954 C960 0.950 . S
H955 C961 0.950 . S
H956 C962 0.949 . S
C957 H952 0.950 . S
C957 C959 1.327 . S
C957 C963 1.429 . S
C958 C950 1.574 . S
C958 H953 0.949 . S
C958 C964 1.368 . S
C959 C943 1.349 . S
C959 H951 0.950 . S
C959 C957 1.327 . S
C960 C948 1.349 . S
C960 H954 0.950 . S
C960 C961 1.327 1_556 S
C961 H955 0.950 . S
C961 C960 1.327 1_554 S
C961 C965 1.429 . S
C962 C945 1.574 . S
C962 H956 0.949 . S
C962 C966 1.368 . S
C963 C944 1.429 . S
C963 C957 1.429 . S
C963 C964 1.523 . S
C964 C945 1.368 . S
C964 C958 1.368 . S
C964 C963 1.523 . S
C965 C949 1.429 1_554 S
C965 C961 1.429 . S
C965 C966 1.523 . S
C966 C950 1.368 . S
C966 C962 1.368 . S
C966 C965 1.523 . S
H967 C942 0.950 . S
H968 C944 0.950 . S
H969 C945 0.949 . S
H970 C947 0.950 . S
H971 C949 0.950 . S
C972 C973 1.349 . S
C972 C974 1.327 . S
C972 H997 0.950 . S
C973 C972 1.349 . S
C973 C989 1.349 . S
C974 C972 1.327 . S
C974 C993 1.429 . S
C974 H998 0.950 . S
C975 C992 1.574 . S
C975 C994 1.368 . S
C975 H999 0.949 . S
H976 C980 0.949 . S
C977 C978 1.349 . S
C977 C979 1.327 . S
C977 H1000 0.950 . S
C978 C977 1.349 . S
C978 C990 1.349 . S
C979 C977 1.327 . S
C979 C995 1.429 . S
C979 H1001 0.966 . S
C980 H976 0.949 . S
C980 C988 1.574 1_556 S
C980 C996 1.368 . S
H981 C989 0.950 . S
H982 C987 0.950 . S
H983 C988 0.949 1_556 S
H984 C990 0.950 . S
H985 C991 0.950 . S
H986 C992 0.949 . S
C987 H982 0.950 . S
C987 C989 1.327 . S
C987 C993 1.429 . S
C988 C980 1.574 1_554 S
C988 H983 0.949 1_554 S
C988 C994 1.368 . S
C989 C973 1.349 . S
C989 H981 0.950 . S
C989 C987 1.327 . S
C990 C978 1.349 . S
C990 H984 0.950 . S
C990 C991 1.327 . S
C991 H985 0.950 . S
C991 C990 1.327 . S
C991 C995 1.429 . S
C992 C975 1.574 . S
C992 H986 0.949 . S
C992 C996 1.368 1_554 S
C993 C974 1.429 . S
C993 C987 1.429 . S
C993 C994 1.523 . S
C994 C975 1.368 . S
C994 C988 1.368 . S
C994 C993 1.523 . S
C995 C979 1.429 . S
C995 C991 1.429 . S
C995 C996 1.523 . S
C996 C980 1.368 . S
C996 C992 1.368 1_556 S
C996 C995 1.523 . S
H997 C972 0.950 . S
H998 C974 0.950 . S
H999 C975 0.949 . S
H1000 C977 0.950 . S
H1001 C979 0.966 . S
C1002 C1003 1.349 . S
C1002 C1004 1.327 . S
C1002 H1027 0.950 . S
C1003 C1002 1.349 . S
C1003 C1019 1.349 . S
C1004 C1002 1.327 . S
C1004 C1023 1.429 . S
C1004 H1028 0.950 . S
C1005 C1022 1.574 . S
C1005 C1024 1.368 . S
C1005 H1029 0.949 . S
H1006 C1010 0.949 . S
C1007 C1008 1.349 . S
C1007 C1009 1.327 . S
C1007 H1030 0.950 . S
C1008 C1007 1.349 . S
C1008 C1020 1.349 . S
C1009 C1007 1.327 . S
C1009 C1025 1.429 . S
C1009 H1031 0.950 . S
C1010 H1006 0.949 . S
C1010 C1018 1.574 1_556 S
C1010 C1026 1.368 . S
H1011 C1019 0.950 . S
H1012 C1017 0.950 . S
H1013 C1018 0.949 . S
H1014 C1020 0.950 . S
H1015 C1021 0.950 . S
H1016 C1022 0.949 . S
C1017 H1012 0.950 . S
C1017 C1019 1.327 . S
C1017 C1023 1.429 . S
C1018 C1010 1.574 1_554 S
C1018 H1013 0.949 . S
C1018 C1024 1.368 . S
C1019 C1003 1.349 . S
C1019 H1011 0.950 . S
C1019 C1017 1.327 . S
C1020 C1008 1.349 . S
C1020 H1014 0.950 . S
C1020 C1021 1.327 . S
C1021 H1015 0.950 . S
C1021 C1020 1.327 . S
C1021 C1025 1.429 . S
C1022 C1005 1.574 . S
C1022 H1016 0.949 . S
C1022 C1026 1.368 1_554 S
C1023 C1004 1.429 . S
C1023 C1017 1.429 . S
C1023 C1024 1.523 . S
C1024 C1005 1.368 . S
C1024 C1018 1.368 . S
C1024 C1023 1.523 . S
C1025 C1009 1.429 . S
C1025 C1021 1.429 . S
C1025 C1026 1.523 . S
C1026 C1010 1.368 . S
C1026 C1022 1.368 1_556 S
C1026 C1025 1.523 . S
H1027 C1002 0.950 . S
H1028 C1004 0.950 . S
H1029 C1005 0.949 . S
H1030 C1007 0.950 . S
H1031 C1009 0.950 . S
C1032 C1033 1.381 . S
C1032 C1034 1.327 . S
C1032 H1057 0.950 . S
C1033 C1032 1.381 . S
C1033 C1049 1.319 1_655 S
C1034 C1032 1.327 . S
C1034 C1053 1.429 . S
C1034 H1058 0.950 . S
C1035 C1052 1.574 . S
C1035 C1054 1.368 1_455 S
C1035 H1059 0.949 . S
H1036 C1040 0.949 . S
C1037 C1038 1.349 1_455 S
C1037 C1039 1.327 . S
C1037 H1060 0.950 . S
C1038 C1037 1.349 1_655 S
C1038 C1050 1.349 . S
C1039 C1037 1.327 . S
C1039 C1055 1.429 1_455 S
C1039 H1061 0.950 . S
C1040 H1036 0.949 . S
C1040 C1048 1.574 . S
C1040 C1056 1.368 . S
H1041 C1049 0.950 . S
H1042 C1047 0.950 . S
H1043 C1048 0.949 . S
H1044 C1050 0.950 . S
H1045 C1051 0.950 . S
H1046 C1052 0.949 . S
C1047 H1042 0.950 . S
C1047 C1049 1.327 . S
C1047 C1053 1.429 1_455 S
C1048 C1040 1.574 . S
C1048 H1043 0.949 . S
C1048 C1054 1.368 . S
C1049 C1033 1.319 1_455 S
C1049 H1041 0.950 . S
C1049 C1047 1.327 . S
C1050 C1038 1.349 . S
C1050 H1044 0.950 . S
C1050 C1051 1.327 . S
C1051 H1045 0.950 . S
C1051 C1050 1.327 . S
C1051 C1055 1.429 . S
C1052 C1035 1.574 . S
C1052 H1046 0.949 . S
C1052 C1056 1.368 1_455 S
C1053 C1034 1.429 . S
C1053 C1047 1.429 1_655 S
C1053 C1054 1.523 . S
C1054 C1035 1.368 1_655 S
C1054 C1048 1.368 . S
C1054 C1053 1.523 . S
C1055 C1039 1.429 1_655 S
C1055 C1051 1.429 . S
C1055 C1056 1.523 . S
C1056 C1040 1.368 . S
C1056 C1052 1.368 1_655 S
C1056 C1055 1.523 . S
H1057 C1032 0.950 . S
H1058 C1034 0.950 . S
H1059 C1035 0.949 . S
H1060 C1037 0.950 . S
H1061 C1039 0.950 . S
C1062 C1063 1.349 . S
C1062 C1064 1.327 . S
C1062 H1087 0.950 . S
C1063 C1062 1.349 . S
C1063 C1079 1.349 . S
C1064 C1062 1.327 . S
C1064 C1083 1.429 . S
C1064 H1088 0.950 . S
C1065 C1082 1.574 . S
C1065 C1084 1.368 . S
C1065 H1089 0.949 . S
H1066 C1070 0.949 . S
C1067 C1068 1.349 . S
C1067 C1069 1.327 . S
C1067 H1090 0.950 . S
C1068 C1067 1.349 . S
C1068 C1080 1.349 . S
C1069 C1067 1.327 . S
C1069 C1085 1.429 . S
C1069 H1091 0.950 . S
C1070 H1066 0.949 . S
C1070 C1078 1.574 . S
C1070 C1086 1.368 . S
H1071 C1079 0.950 . S
H1072 C1077 0.950 . S
H1073 C1078 0.949 . S
H1074 C1080 0.950 . S
H1075 C1081 0.950 . S
H1076 C1082 0.949 . S
C1077 H1072 0.950 . S
C1077 C1079 1.327 . S
C1077 C1083 1.429 . S
C1078 C1070 1.574 . S
C1078 H1073 0.949 . S
C1078 C1084 1.368 . S
C1079 C1063 1.349 . S
C1079 H1071 0.950 . S
C1079 C1077 1.327 . S
C1080 C1068 1.349 . S
C1080 H1074 0.950 . S
C1080 C1081 1.327 . S
C1081 H1075 0.950 . S
C1081 C1080 1.327 . S
C1081 C1085 1.429 . S
C1082 C1065 1.574 . S
C1082 H1076 0.949 . S
C1082 C1086 1.368 . S
C1083 C1064 1.429 . S
C1083 C1077 1.429 . S
C1083 C1084 1.523 . S
C1084 C1065 1.368 . S
C1084 C1078 1.368 . S
C1084 C1083 1.523 . S
C1085 C1069 1.429 . S
C1085 C1081 1.429 . S
C1085 C1086 1.523 . S
C1086 C1070 1.368 . S
C1086 C1082 1.368 . S
C1086 C1085 1.523 . S
H1087 C1062 0.950 . S
H1088 C1064 0.950 . S
H1089 C1065 0.949 . S
H1090 C1067 0.950 . S
H1091 C1069 0.950 . S
C1092 C1093 1.349 . S
C1092 C1094 1.327 . S
C1092 H1117 0.950 . S
C1093 C1092 1.349 . S
C1093 C1109 1.349 . S
C1094 C1092 1.327 . S
C1094 C1113 1.429 . S
C1094 H1118 0.950 . S
C1095 C1112 1.574 . S
C1095 C1114 1.368 . S
C1095 H1119 0.949 . S
H1096 C1100 0.949 . S
C1097 C1098 1.349 . S
C1097 C1099 1.327 . S
C1097 H1120 0.950 . S
C1098 C1097 1.349 . S
C1098 C1110 1.349 . S
C1099 C1097 1.327 . S
C1099 C1115 1.429 . S
C1099 H1121 0.950 . S
C1100 H1096 0.949 . S
C1100 C1108 1.574 . S
C1100 C1116 1.368 . S
H1101 C1109 0.950 . S
H1102 C1107 0.950 . S
H1103 C1108 0.949 . S
H1104 C1110 0.950 . S
H1105 C1111 0.950 . S
H1106 C1112 0.949 . S
C1107 H1102 0.950 . S
C1107 C1109 1.327 . S
C1107 C1113 1.429 . S
C1108 C1100 1.574 . S
C1108 H1103 0.949 . S
C1108 C1114 1.368 . S
C1109 C1093 1.349 . S
C1109 H1101 0.950 . S
C1109 C1107 1.327 . S
C1110 C1098 1.349 . S
C1110 H1104 0.950 . S
C1110 C1111 1.327 . S
C1111 H1105 0.950 . S
C1111 C1110 1.327 . S
C1111 C1115 1.429 . S
C1112 C1095 1.574 . S
C1112 H1106 0.949 . S
C1112 C1116 1.368 . S
C1113 C1094 1.429 . S
C1113 C1107 1.429 . S
C1113 C1114 1.523 . S
C1114 C1095 1.368 . S
C1114 C1108 1.368 . S
C1114 C1113 1.523 . S
C1115 C1099 1.429 . S
C1115 C1111 1.429 . S
C1115 C1116 1.523 . S
C1116 C1100 1.368 . S
C1116 C1112 1.368 . S
C1116 C1115 1.523 . S
H1117 C1092 0.950 . S
H1118 C1094 0.950 . S
H1119 C1095 0.949 . S
H1120 C1097 0.950 . S
H1121 C1099 0.950 . S
C1122 C1123 1.349 . S
C1122 C1124 1.327 . S
C1122 H1147 0.950 . S
C1123 C1122 1.349 . S
C1123 C1139 1.349 . S
C1124 C1122 1.327 . S
C1124 C1143 1.429 . S
C1124 H1148 0.950 . S
C1125 C1142 1.574 . S
C1125 C1144 1.368 . S
C1125 H1149 0.949 . S
H1126 C1130 0.949 . S
C1127 C1128 1.349 . S
C1127 C1129 1.327 . S
C1127 H1150 0.950 . S
C1128 C1127 1.349 . S
C1128 C1140 1.349 . S
C1129 C1127 1.327 . S
C1129 C1145 1.429 . S
C1129 H1151 0.950 . S
C1130 H1126 0.949 . S
C1130 C1138 1.574 . S
C1130 C1146 1.368 . S
H1131 C1139 0.950 . S
H1132 C1137 0.950 . S
H1133 C1138 0.949 . S
H1134 C1140 0.950 . S
H1135 C1141 0.950 . S
H1136 C1142 0.949 . S
C1137 H1132 0.950 . S
C1137 C1139 1.327 . S
C1137 C1143 1.429 . S
C1138 C1130 1.574 . S
C1138 H1133 0.949 . S
C1138 C1144 1.368 . S
C1139 C1123 1.349 . S
C1139 H1131 0.950 . S
C1139 C1137 1.327 . S
C1140 C1128 1.349 . S
C1140 H1134 0.950 . S
C1140 C1141 1.327 . S
C1141 H1135 0.950 . S
C1141 C1140 1.327 . S
C1141 C1145 1.429 . S
C1142 C1125 1.574 . S
C1142 H1136 0.949 . S
C1142 C1146 1.368 . S
C1143 C1124 1.429 . S
C1143 C1137 1.429 . S
C1143 C1144 1.523 . S
C1144 C1125 1.368 . S
C1144 C1138 1.368 . S
C1144 C1143 1.523 . S
C1145 C1129 1.429 . S
C1145 C1141 1.429 . S
C1145 C1146 1.523 . S
C1146 C1130 1.368 . S
C1146 C1142 1.368 . S
C1146 C1145 1.523 . S
H1147 C1122 0.950 . S
H1148 C1124 0.950 . S
H1149 C1125 0.949 . S
H1150 C1127 0.950 . S
H1151 C1129 0.950 . S
C433 C255 1.756 . S
C438 C322 1.783 . S
C468 C352 1.687 . S
C463 C294 1.662 . S
C498 N386 1.702 . S
C493 C177 1.697 . S
C528 N416 1.270 . S
C523 C216 1.310 . S
C558 C313 1.788 1_565 S
C553 C99 1.775 . S
C583 C138 1.665 . S
C588 C343 1.686 . S
C613 C21 1.710 . S
C618 N378 1.702 . S
C643 C60 1.312 1_455 S
C648 N408 1.272 . S
C678 C328 0.717 . S
C673 C196 0.732 1_455 S
C708 C358 0.321 . S
C703 C235 0.471 . S
C738 C399 0.208 . S
C733 C289 0.270 . S
C763 C157 0.480 . S
C768 C429 0.376 . S
C793 C40 0.730 . S
C798 C339 0.711 . S
C828 C369 0.321 . S
C823 C79 0.452 . S
C858 C388 0.208 . S
C853 C133 0.274 . S
C883 C1 0.455 . S
C888 C418 0.381 . S
C913 C211 1.605 . S
C918 N318 1.642 . S
C943 C250 1.745 . S
C948 N348 1.789 . S
C978 C373 1.813 . S
C973 C274 1.745 . S
C1008 C403 2.104 . S
C1003 C172 2.007 . S
C1033 C55 1.605 1_655 S
C1038 N326 1.645 . S
C1068 N356 1.789 . S
C1063 C94 1.742 . S
C1098 C382 1.813 . S
C1093 C118 1.747 . S
C1123 C16 2.006 . S
C1128 C412 2.109 . S
