# Generated by pormake.
# Topology ctn, (3,4)-cn, num edge types: 1
# Building blocks:
#     Node 0, Type 0, BuildingBlock: VETTIZ_charged_linker_0, # of connection points: 3
#     Node 1, Type 0, BuildingBlock: VETTIZ_charged_linker_0, # of connection points: 3
#     Node 2, Type 0, BuildingBlock: VETTIZ_charged_linker_0, # of connection points: 3
#     Node 3, Type 0, BuildingBlock: VETTIZ_charged_linker_0, # of connection points: 3
#     Node 4, Type 0, BuildingBlock: VETTIZ_charged_linker_0, # of connection points: 3
#     Node 5, Type 0, BuildingBlock: VETTIZ_charged_linker_0, # of connection points: 3
#     Node 6, Type 0, BuildingBlock: VETTIZ_charged_linker_0, # of connection points: 3
#     Node 7, Type 0, BuildingBlock: VETTIZ_charged_linker_0, # of connection points: 3
#     Node 8, Type 0, BuildingBlock: VETTIZ_charged_linker_0, # of connection points: 3
#     Node 9, Type 0, BuildingBlock: VETTIZ_charged_linker_0, # of connection points: 3
#     Node 10, Type 0, BuildingBlock: VETTIZ_charged_linker_0, # of connection points: 3
#     Node 11, Type 0, BuildingBlock: VETTIZ_charged_linker_0, # of connection points: 3
#     Node 12, Type 0, BuildingBlock: VETTIZ_charged_linker_0, # of connection points: 3
#     Node 13, Type 0, BuildingBlock: VETTIZ_charged_linker_0, # of connection points: 3
#     Node 14, Type 0, BuildingBlock: VETTIZ_charged_linker_0, # of connection points: 3
#     Node 15, Type 0, BuildingBlock: VETTIZ_charged_linker_0, # of connection points: 3
#     Node 16, Type 1, BuildingBlock: TATPOV_clean_sbu_0, # of connection points: 4
#     Node 17, Type 1, BuildingBlock: TATPOV_clean_sbu_0, # of connection points: 4
#     Node 18, Type 1, BuildingBlock: TATPOV_clean_sbu_0, # of connection points: 4
#     Node 19, Type 1, BuildingBlock: TATPOV_clean_sbu_0, # of connection points: 4
#     Node 20, Type 1, BuildingBlock: TATPOV_clean_sbu_0, # of connection points: 4
#     Node 21, Type 1, BuildingBlock: TATPOV_clean_sbu_0, # of connection points: 4
#     Node 22, Type 1, BuildingBlock: TATPOV_clean_sbu_0, # of connection points: 4
#     Node 23, Type 1, BuildingBlock: TATPOV_clean_sbu_0, # of connection points: 4
#     Node 24, Type 1, BuildingBlock: TATPOV_clean_sbu_0, # of connection points: 4
#     Node 25, Type 1, BuildingBlock: TATPOV_clean_sbu_0, # of connection points: 4
#     Node 26, Type 1, BuildingBlock: TATPOV_clean_sbu_0, # of connection points: 4
#     Node 27, Type 1, BuildingBlock: TATPOV_clean_sbu_0, # of connection points: 4
#     Edge 28, Type (0, 1), BuildingBlock: EZIPEK_clean_linker_0, # of connection points: 2
#     Edge 29, Type (0, 1), BuildingBlock: EZIPEK_clean_linker_0, # of connection points: 2
#     Edge 30, Type (0, 1), BuildingBlock: EZIPEK_clean_linker_0, # of connection points: 2
#     Edge 31, Type (0, 1), BuildingBlock: EZIPEK_clean_linker_0, # of connection points: 2
#     Edge 32, Type (0, 1), BuildingBlock: EZIPEK_clean_linker_0, # of connection points: 2
#     Edge 33, Type (0, 1), BuildingBlock: EZIPEK_clean_linker_0, # of connection points: 2
#     Edge 34, Type (0, 1), BuildingBlock: EZIPEK_clean_linker_0, # of connection points: 2
#     Edge 35, Type (0, 1), BuildingBlock: EZIPEK_clean_linker_0, # of connection points: 2
#     Edge 36, Type (0, 1), BuildingBlock: EZIPEK_clean_linker_0, # of connection points: 2
#     Edge 37, Type (0, 1), BuildingBlock: EZIPEK_clean_linker_0, # of connection points: 2
#     Edge 38, Type (0, 1), BuildingBlock: EZIPEK_clean_linker_0, # of connection points: 2
#     Edge 39, Type (0, 1), BuildingBlock: EZIPEK_clean_linker_0, # of connection points: 2
#     Edge 40, Type (0, 1), BuildingBlock: EZIPEK_clean_linker_0, # of connection points: 2
#     Edge 41, Type (0, 1), BuildingBlock: EZIPEK_clean_linker_0, # of connection points: 2
#     Edge 42, Type (0, 1), BuildingBlock: EZIPEK_clean_linker_0, # of connection points: 2
#     Edge 43, Type (0, 1), BuildingBlock: EZIPEK_clean_linker_0, # of connection points: 2
#     Edge 44, Type (0, 1), BuildingBlock: EZIPEK_clean_linker_0, # of connection points: 2
#     Edge 45, Type (0, 1), BuildingBlock: EZIPEK_clean_linker_0, # of connection points: 2
#     Edge 46, Type (0, 1), BuildingBlock: EZIPEK_clean_linker_0, # of connection points: 2
#     Edge 47, Type (0, 1), BuildingBlock: EZIPEK_clean_linker_0, # of connection points: 2
#     Edge 48, Type (0, 1), BuildingBlock: EZIPEK_clean_linker_0, # of connection points: 2
#     Edge 49, Type (0, 1), BuildingBlock: EZIPEK_clean_linker_0, # of connection points: 2
#     Edge 50, Type (0, 1), BuildingBlock: EZIPEK_clean_linker_0, # of connection points: 2
#     Edge 51, Type (0, 1), BuildingBlock: EZIPEK_clean_linker_0, # of connection points: 2
#     Edge 52, Type (0, 1), BuildingBlock: EZIPEK_clean_linker_0, # of connection points: 2
#     Edge 53, Type (0, 1), BuildingBlock: EZIPEK_clean_linker_0, # of connection points: 2
#     Edge 54, Type (0, 1), BuildingBlock: EZIPEK_clean_linker_0, # of connection points: 2
#     Edge 55, Type (0, 1), BuildingBlock: EZIPEK_clean_linker_0, # of connection points: 2
#     Edge 56, Type (0, 1), BuildingBlock: EZIPEK_clean_linker_0, # of connection points: 2
#     Edge 57, Type (0, 1), BuildingBlock: EZIPEK_clean_linker_0, # of connection points: 2
#     Edge 58, Type (0, 1), BuildingBlock: EZIPEK_clean_linker_0, # of connection points: 2
#     Edge 59, Type (0, 1), BuildingBlock: EZIPEK_clean_linker_0, # of connection points: 2
#     Edge 60, Type (0, 1), BuildingBlock: EZIPEK_clean_linker_0, # of connection points: 2
#     Edge 61, Type (0, 1), BuildingBlock: EZIPEK_clean_linker_0, # of connection points: 2
#     Edge 62, Type (0, 1), BuildingBlock: EZIPEK_clean_linker_0, # of connection points: 2
#     Edge 63, Type (0, 1), BuildingBlock: EZIPEK_clean_linker_0, # of connection points: 2
#     Edge 64, Type (0, 1), BuildingBlock: EZIPEK_clean_linker_0, # of connection points: 2
#     Edge 65, Type (0, 1), BuildingBlock: EZIPEK_clean_linker_0, # of connection points: 2
#     Edge 66, Type (0, 1), BuildingBlock: EZIPEK_clean_linker_0, # of connection points: 2
#     Edge 67, Type (0, 1), BuildingBlock: EZIPEK_clean_linker_0, # of connection points: 2
#     Edge 68, Type (0, 1), BuildingBlock: EZIPEK_clean_linker_0, # of connection points: 2
#     Edge 69, Type (0, 1), BuildingBlock: EZIPEK_clean_linker_0, # of connection points: 2
#     Edge 70, Type (0, 1), BuildingBlock: EZIPEK_clean_linker_0, # of connection points: 2
#     Edge 71, Type (0, 1), BuildingBlock: EZIPEK_clean_linker_0, # of connection points: 2
#     Edge 72, Type (0, 1), BuildingBlock: EZIPEK_clean_linker_0, # of connection points: 2
#     Edge 73, Type (0, 1), BuildingBlock: EZIPEK_clean_linker_0, # of connection points: 2
#     Edge 74, Type (0, 1), BuildingBlock: EZIPEK_clean_linker_0, # of connection points: 2
#     Edge 75, Type (0, 1), BuildingBlock: EZIPEK_clean_linker_0, # of connection points: 2
# Relax obj value: 0.003
# Max RMSD: 0.047
# Mean RMSD: 0.021
data_MOF--net-ctn--node1-TATPOV_clean_sbu_0--node2-VETTIZ_charged_linker_0--edge1-EZIPEK_clean_linker_0
_symmetry_space_group_name_H-M    P1
_symmetry_Int_Tables_number       1
_symmetry_cell_setting            triclinic
loop_
_symmetry_equiv_pos_as_xyz
'x, y, z'
_cell_length_a     51.996228
_cell_length_b     51.977716
_cell_length_c     52.012972
_cell_angle_alpha  91.125502
_cell_angle_beta   91.17532
_cell_angle_gamma 91.180454
loop_
_atom_site_label
_atom_site_type_symbol
_atom_site_fract_x
_atom_site_fract_y
_atom_site_fract_z
_atom_type_partial_charge
C0 C 0.03039 0.09479 0.96828 0.0
C1 C 0.01092 0.11316 0.9683 0.0
C2 C 0.99295 0.11327 0.98812 0.0
C3 C 0.01349 0.0767 0.00743 0.0
C4 C 0.03137 0.07682 0.98809 0.0
C5 C 0.05085 0.056 0.99137 0.0
H6 H 0.09357 0.95353 0.05796 0.0
C7 C 0.01958 0.05542 0.02486 0.0
C8 C 0.04155 0.04325 0.01566 0.0
H9 H 0.12631 0.9869 0.9904 0.0
H10 H 0.09343 0.0193 0.98993 0.0
H11 H 0.08325 0.00743 0.08715 0.0
H12 H 0.03431 0.95759 0.03952 0.0
H13 H 0.01617 0.96802 0.06573 0.0
H14 H 0.04446 0.94932 0.07145 0.0
H15 H 0.07062 0.97736 0.09829 0.0
H16 H 0.05279 0.00668 0.10112 0.0
C17 C 0.07773 0.06902 0.99543 0.0
C18 C 0.04857 0.03757 0.96764 0.0
C19 C 0.9618 0.03762 0.10051 0.0
C20 C 0.96247 0.01931 0.11998 0.0
C21 C 0.98229 0.00127 0.12043 0.0
C22 C 0.00127 0.00142 0.10164 0.0
C23 C 0.00043 0.01985 0.0822 0.0
C24 C 0.98096 0.03758 0.08193 0.0
C25 C 0.9833 0.05592 0.06006 0.0
C26 C 0.00728 0.04622 0.04714 0.0
C27 C 0.0172 0.02505 0.06013 0.0
C28 C 0.9874 0.0835 0.07155 0.0
C29 C 0.95902 0.05232 0.04247 0.0
C30 C 0.09357 0.96792 0.04317 0.0
C31 C 0.11235 0.96783 0.02417 0.0
C32 C 0.11192 0.98675 0.00517 0.0
C33 C 0.09283 0.00547 0.00496 0.0
C34 C 0.07397 0.00527 0.02398 0.0
C35 C 0.07466 0.98678 0.04275 0.0
C36 C 0.05324 0.98962 0.06154 0.0
C37 C 0.03949 0.01275 0.05093 0.0
C38 C 0.05165 0.02183 0.02887 0.0
C39 C 0.0654 0.9954 0.08854 0.0
C40 C 0.03612 0.96487 0.05975 0.0
H41 H 0.97976 0.0962 0.02215 0.0
H42 H 0.04445 0.09447 0.95321 0.0
H43 H 0.02805 0.0344 0.96167 0.0
H44 H 0.05586 0.0182 0.97143 0.0
H45 H 0.05885 0.04567 0.95102 0.0
H46 H 0.07636 0.08742 0.00657 0.0
H47 H 0.08659 0.07349 0.97674 0.0
H48 H 0.09108 0.05731 0.00684 0.0
H49 H 0.94674 0.0517 0.09987 0.0
H50 H 0.98302 0.98707 0.13538 0.0
H51 H 0.01585 0.98718 0.103 0.0
H52 H 0.99826 0.08318 0.09021 0.0
H53 H 0.96874 0.09279 0.07514 0.0
H54 H 0.99918 0.09601 0.05929 0.0
H55 H 0.95299 0.03167 0.04097 0.0
H56 H 0.96219 0.05809 0.02246 0.0
H57 H 0.94262 0.06318 0.05024 0.0
H58 H 0.97787 0.12736 0.98832 0.0
C59 C 0.9941 0.09516 0.00766 0.0
C60 C 0.22435 0.62371 0.24848 0.0
C61 C 0.20204 0.61797 0.23378 0.0
C62 C 0.19437 0.63469 0.21422 0.0
C63 C 0.23099 0.66294 0.22469 0.0
C64 C 0.23843 0.64624 0.24371 0.0
C65 C 0.26244 0.65533 0.25792 0.0
H66 H 0.35997 0.74252 0.27272 0.0
C67 C 0.24935 0.68506 0.22545 0.0
C68 C 0.26763 0.68078 0.24508 0.0
H69 H 0.35011 0.67037 0.31124 0.0
H70 H 0.30885 0.66311 0.28948 0.0
H71 H 0.30474 0.76179 0.27895 0.0
H72 H 0.33805 0.72178 0.21499 0.0
H73 H 0.32268 0.74998 0.20471 0.0
H74 H 0.34862 0.75273 0.22769 0.0
H75 H 0.32061 0.779 0.2541 0.0
H76 H 0.28673 0.77057 0.25164 0.0
C77 C 0.25605 0.65913 0.2867 0.0
C78 C 0.2838 0.63558 0.25264 0.0
C79 C 0.24422 0.755 0.15845 0.0
C80 C 0.25766 0.77858 0.15598 0.0
C81 C 0.2742 0.78746 0.17621 0.0
C82 C 0.27929 0.77197 0.19735 0.0
C83 C 0.26737 0.74757 0.19853 0.0
C84 C 0.24897 0.74009 0.18018 0.0
C85 C 0.23583 0.71501 0.18675 0.0
C86 C 0.25095 0.70782 0.21082 0.0
C87 C 0.2699 0.72667 0.2171 0.0
C88 C 0.20726 0.72039 0.19248 0.0
C89 C 0.2396 0.69545 0.16442 0.0
C90 C 0.34872 0.72525 0.27637 0.0
C91 C 0.35799 0.70685 0.2934 0.0
C92 C 0.3431 0.68464 0.29807 0.0
C93 C 0.31929 0.6805 0.28535 0.0
C94 C 0.31047 0.69873 0.26773 0.0
C95 C 0.32499 0.72081 0.26372 0.0
C96 C 0.31268 0.73797 0.24422 0.0
C97 C 0.28877 0.72208 0.23653 0.0
C98 C 0.28764 0.69919 0.25037 0.0
C99 C 0.30592 0.76376 0.25774 0.0
C100 C 0.3314 0.74094 0.22165 0.0
H101 H 0.20214 0.66927 0.19441 0.0
H102 H 0.23054 0.611 0.26357 0.0
H103 H 0.28076 0.62571 0.23361 0.0
H104 H 0.30314 0.64467 0.25157 0.0
H105 H 0.28414 0.62049 0.26746 0.0
H106 H 0.23672 0.66763 0.28878 0.0
H107 H 0.25592 0.64049 0.29678 0.0
H108 H 0.26947 0.67268 0.29699 0.0
H109 H 0.23083 0.74811 0.14351 0.0
H110 H 0.28426 0.80583 0.17491 0.0
H111 H 0.29282 0.77927 0.21166 0.0
H112 H 0.20462 0.74069 0.19891 0.0
H113 H 0.19477 0.71688 0.17513 0.0
H114 H 0.19993 0.70875 0.20844 0.0
H115 H 0.26001 0.69571 0.15839 0.0
H116 H 0.2351 0.67544 0.16974 0.0
H117 H 0.22742 0.70019 0.14744 0.0
H118 H 0.17716 0.63034 0.20272 0.0
C119 C 0.20878 0.6572 0.20957 0.0
C120 C 0.99123 0.36952 0.97904 0.0
C121 C 0.97779 0.36593 0.95557 0.0
C122 C 0.95923 0.38374 0.94805 0.0
C123 C 0.96805 0.4089 0.98706 0.0
C124 C 0.98607 0.39111 0.99444 0.0
C125 C 0.99876 0.39804 0.01993 0.0
H126 H 0.01205 0.48066 0.1217 0.0
C127 C 0.9677 0.42936 0.00716 0.0
C128 C 0.98568 0.42309 0.02644 0.0
H129 H 0.04895 0.40781 0.11031 0.0
H130 H 0.02735 0.40203 0.06884 0.0
H131 H 0.95824 0.461 0.10495 0.0
H132 H 0.0162 0.50046 0.0621 0.0
H133 H 0.98652 0.51419 0.05417 0.0
H134 H 0.99823 0.51565 0.08705 0.0
H135 H 0.96326 0.49518 0.10776 0.0
H136 H 0.94152 0.48081 0.08379 0.0
C137 C 0.99204 0.37659 0.03915 0.0
C138 C 0.02794 0.40215 0.01563 0.0
C139 C 0.90706 0.50434 0.99836 0.0
C140 C 0.9024 0.5257 0.01438 0.0
C141 C 0.91682 0.52958 0.0373 0.0
C142 C 0.93571 0.51214 0.0444 0.0
C143 C 0.94003 0.49056 0.02844 0.0
C144 C 0.9259 0.48698 0.00581 0.0
C145 C 0.93295 0.46276 0.99151 0.0
C146 C 0.95344 0.45228 0.00945 0.0
C147 C 0.95749 0.46871 0.03095 0.0
C148 C 0.90877 0.44483 0.98953 0.0
C149 C 0.94405 0.47046 0.96528 0.0
C150 C 0.01559 0.46366 0.11001 0.0
C151 C 0.03214 0.44468 0.11889 0.0
C152 C 0.03624 0.42261 0.10356 0.0
C153 C 0.02363 0.4193 0.07963 0.0
C154 C 0.0066 0.43818 0.07116 0.0
C155 C 0.00284 0.45989 0.08629 0.0
C156 C 0.98308 0.47723 0.07493 0.0
C157 C 0.97568 0.46245 0.05038 0.0
C158 C 0.98962 0.43972 0.04818 0.0
C159 C 0.96034 0.47892 0.09375 0.0
C160 C 0.99646 0.50338 0.06935 0.0
H161 H 0.94001 0.41827 0.95691 0.0
H162 H 0.00556 0.35594 0.98508 0.0
H163 H 0.03127 0.41245 0.9974 0.0
H164 H 0.03755 0.41424 0.03077 0.0
H165 H 0.03784 0.38345 0.01431 0.0
H166 H 0.97288 0.36755 0.03449 0.0
H167 H 0.00644 0.36111 0.0387 0.0
H168 H 0.9904 0.38398 0.0591 0.0
H169 H 0.89599 0.50108 0.98068 0.0
H170 H 0.91327 0.54603 0.04975 0.0
H171 H 0.94603 0.51604 0.06216 0.0
H172 H 0.89731 0.44629 0.00731 0.0
H173 H 0.89609 0.45007 0.97308 0.0
H174 H 0.91347 0.42428 0.98767 0.0
H175 H 0.95554 0.48873 0.96718 0.0
H176 H 0.95753 0.45626 0.95755 0.0
H177 H 0.92842 0.47343 0.95083 0.0
H178 H 0.94878 0.38109 0.92992 0.0
C179 C 0.95428 0.40526 0.96369 0.0
C180 C 0.65305 0.7823 0.26033 0.0
C181 C 0.63479 0.76221 0.25639 0.0
C182 C 0.63852 0.74393 0.23652 0.0
C183 C 0.67843 0.7656 0.22536 0.0
C184 C 0.67419 0.78405 0.24419 0.0
C185 C 0.69326 0.80618 0.24341 0.0
H186 H 0.81044 0.84983 0.2105 0.0
C187 C 0.70244 0.77285 0.21231 0.0
C188 C 0.71112 0.79669 0.22263 0.0
H189 H 0.75077 0.89159 0.24903 0.0
H190 H 0.72126 0.85577 0.24209 0.0
H191 H 0.77221 0.83653 0.16414 0.0
H192 H 0.79665 0.78937 0.22679 0.0
H193 H 0.79926 0.77238 0.1971 0.0
H194 H 0.81749 0.80179 0.2026 0.0
H195 H 0.80114 0.81848 0.16257 0.0
H196 H 0.77032 0.80463 0.15248 0.0
C197 C 0.67869 0.83064 0.23528 0.0
C198 C 0.70706 0.80889 0.26996 0.0
C199 C 0.73913 0.71246 0.1453 0.0
C200 C 0.76127 0.71375 0.13038 0.0
C201 C 0.77944 0.73386 0.13494 0.0
C202 C 0.77521 0.75297 0.15374 0.0
C203 C 0.75246 0.75201 0.16789 0.0
C204 C 0.73505 0.73179 0.16377 0.0
C205 C 0.71168 0.73416 0.18011 0.0
C206 C 0.71749 0.75956 0.19408 0.0
C207 C 0.74148 0.76988 0.187 0.0
C208 C 0.68756 0.73556 0.16218 0.0
C209 C 0.71132 0.71123 0.19867 0.0
C210 C 0.79097 0.85122 0.21734 0.0
C211 C 0.78322 0.87324 0.23121 0.0
C212 C 0.75742 0.87462 0.23895 0.0
C213 C 0.74028 0.85383 0.23495 0.0
C214 C 0.74854 0.83166 0.22213 0.0
C215 C 0.77297 0.83111 0.2122 0.0
C216 C 0.7763 0.80781 0.19489 0.0
C217 C 0.75044 0.7939 0.19768 0.0
C218 C 0.73477 0.80762 0.21449 0.0
C219 C 0.78037 0.81716 0.16708 0.0
C220 C 0.79869 0.79192 0.20574 0.0
H221 H 0.66221 0.73077 0.20648 0.0
H222 H 0.65025 0.79702 0.27499 0.0
H223 H 0.71521 0.79018 0.2757 0.0
H224 H 0.72314 0.82307 0.27017 0.0
H225 H 0.69343 0.81502 0.28496 0.0
H226 H 0.65886 0.82612 0.22783 0.0
H227 H 0.67685 0.8444 0.25173 0.0
H228 H 0.68828 0.84061 0.2193 0.0
H229 H 0.7249 0.69717 0.14199 0.0
H230 H 0.79663 0.73502 0.12356 0.0
H231 H 0.78958 0.76795 0.15632 0.0
H232 H 0.69231 0.74486 0.14373 0.0
H233 H 0.67946 0.71606 0.15748 0.0
H234 H 0.67234 0.74756 0.17041 0.0
H235 H 0.73098 0.70779 0.20655 0.0
H236 H 0.69935 0.7145 0.21562 0.0
H237 H 0.70445 0.69329 0.18855 0.0
H238 H 0.62442 0.72859 0.23285 0.0
C239 C 0.66039 0.74531 0.22122 0.0
C240 C 0.05065 0.91653 0.5238 0.0
C241 C 0.0279 0.90154 0.52278 0.0
C242 C 0.00886 0.90634 0.504 0.0
C243 C 0.03532 0.94073 0.48724 0.0
C244 C 0.05394 0.93604 0.50585 0.0
C245 C 0.07698 0.95381 0.50391 0.0
H246 H 0.13348 0.05721 0.44954 0.0
C247 C 0.04456 0.96231 0.47164 0.0
C248 C 0.06887 0.97021 0.48138 0.0
H249 H 0.16585 0.00693 0.50629 0.0
H250 H 0.1266 0.98122 0.50556 0.0
H251 H 0.07202 0.05665 0.46826 0.0
H252 H 0.11518 0.01181 0.41435 0.0
H253 H 0.08387 0.01347 0.40141 0.0
H254 H 0.10294 0.04268 0.40621 0.0
H255 H 0.08582 0.0694 0.43967 0.0
H256 H 0.0546 0.05378 0.43879 0.0
C257 C 0.0796 0.9698 0.52928 0.0
C258 C 0.10076 0.9374 0.49771 0.0
C259 C 0.98978 0.99222 0.39661 0.0
C260 C 0.99315 0.0116 0.37855 0.0
C261 C 0.0152 0.02777 0.38023 0.0
C262 C 0.03376 0.0246 0.39984 0.0
C263 C 0.03027 0.00491 0.41773 0.0
C264 C 0.00851 0.98918 0.41591 0.0
C265 C 0.008 0.96918 0.43636 0.0
C266 C 0.03331 0.97507 0.45045 0.0
C267 C 0.04623 0.99607 0.43959 0.0
C268 C 0.98455 0.97422 0.45359 0.0
C269 C 0.00774 0.94229 0.42291 0.0
C270 C 0.13185 0.04084 0.46203 0.0
C271 C 0.1525 0.03424 0.47831 0.0
C272 C 0.15003 0.01246 0.49384 0.0
C273 C 0.12731 0.99753 0.49328 0.0
C274 C 0.107 0.00407 0.47657 0.0
C275 C 0.10964 0.02512 0.46095 0.0
C276 C 0.08739 0.02721 0.44217 0.0
C277 C 0.07055 0.00453 0.44984 0.0
C278 C 0.08197 0.99136 0.47031 0.0
C279 C 0.07421 0.05317 0.44725 0.0
C280 C 0.0977 0.02382 0.41454 0.0
H281 H 0.99726 0.92852 0.47231 0.0
H282 H 0.0655 0.91304 0.53815 0.0
H283 H 0.09507 0.91885 0.48794 0.0
H284 H 0.1138 0.94694 0.48411 0.0
H285 H 0.11178 0.93276 0.51548 0.0
H286 H 0.06052 0.97697 0.53514 0.0
H287 H 0.08726 0.95793 0.54512 0.0
H288 H 0.09207 0.98709 0.52771 0.0
H289 H 0.97292 0.97961 0.39561 0.0
H290 H 0.01796 0.0428 0.36636 0.0
H291 H 0.05014 0.03751 0.40028 0.0
H292 H 0.98007 0.99506 0.45453 0.0
H293 H 0.96706 0.96375 0.44604 0.0
H294 H 0.98804 0.96899 0.47384 0.0
H295 H 0.0203 0.94235 0.40584 0.0
H296 H 0.01542 0.92709 0.43526 0.0
H297 H 0.98801 0.93653 0.41617 0.0
H298 H 0.99122 0.89486 0.50312 0.0
C299 C 0.01244 0.92585 0.48621 0.0
C300 C 0.25948 0.65651 0.78017 0.0
C301 C 0.25858 0.64005 0.75845 0.0
C302 C 0.24061 0.64446 0.73847 0.0
C303 C 0.22357 0.68035 0.76283 0.0
C304 C 0.24195 0.67654 0.7819 0.0
C305 C 0.24014 0.69566 0.80382 0.0
H306 H 0.17872 0.79491 0.86037 0.0
C307 C 0.20761 0.70214 0.77109 0.0
C308 C 0.21747 0.7114 0.79495 0.0
H309 H 0.24582 0.75574 0.88821 0.0
H310 H 0.24522 0.72839 0.85002 0.0
H311 H 0.14787 0.74185 0.83716 0.0
H312 H 0.19576 0.80082 0.80473 0.0
H313 H 0.17428 0.79055 0.77995 0.0
H314 H 0.16199 0.80529 0.80885 0.0
H315 H 0.13953 0.77516 0.83542 0.0
H316 H 0.13277 0.75317 0.80901 0.0
C317 C 0.23418 0.68062 0.82851 0.0
C318 C 0.26549 0.71192 0.80531 0.0
C319 C 0.12704 0.7246 0.71964 0.0
C320 C 0.10708 0.74235 0.72379 0.0
C321 C 0.11219 0.7619 0.7428 0.0
C322 C 0.13334 0.7609 0.75981 0.0
C323 C 0.15068 0.74083 0.75742 0.0
C324 C 0.14803 0.72373 0.73694 0.0
C325 C 0.16983 0.70508 0.73604 0.0
C326 C 0.18528 0.71323 0.76008 0.0
C327 C 0.17379 0.73411 0.77257 0.0
C328 C 0.15827 0.67752 0.73804 0.0
C329 C 0.18509 0.70972 0.71121 0.0
C330 C 0.19314 0.78033 0.85808 0.0
C331 C 0.21233 0.77723 0.87704 0.0
C332 C 0.23092 0.75826 0.87366 0.0
C333 C 0.23051 0.74249 0.8515 0.0
C334 C 0.21121 0.74567 0.83259 0.0
C335 C 0.19297 0.76437 0.83603 0.0
C336 C 0.17405 0.76509 0.81381 0.0
C337 C 0.1839 0.74368 0.79654 0.0
C338 C 0.2056 0.73235 0.80767 0.0
C339 C 0.14703 0.75862 0.82421 0.0
C340 C 0.17639 0.79181 0.80117 0.0
H341 H 0.20957 0.66674 0.72492 0.0
H342 H 0.27327 0.65354 0.79568 0.0
H343 H 0.27344 0.71467 0.78583 0.0
H344 H 0.26276 0.73163 0.81297 0.0
H345 H 0.28039 0.70237 0.81715 0.0
H346 H 0.22072 0.66412 0.82411 0.0
H347 H 0.252 0.67276 0.83719 0.0
H348 H 0.22443 0.69227 0.84319 0.0
H349 H 0.12707 0.7117 0.70316 0.0
H350 H 0.10032 0.77858 0.74464 0.0
H351 H 0.13537 0.77592 0.77417 0.0
H352 H 0.14353 0.67686 0.75324 0.0
H353 H 0.14877 0.67118 0.71959 0.0
H354 H 0.17259 0.66315 0.74344 0.0
H355 H 0.1841 0.73016 0.70534 0.0
H356 H 0.20588 0.7062 0.71381 0.0
H357 H 0.17732 0.69757 0.69493 0.0
H358 H 0.23982 0.63195 0.72155 0.0
C359 C 0.22308 0.66453 0.74055 0.0
C360 C 0.88463 0.49243 0.49424 0.0
C361 C 0.8785 0.46979 0.48011 0.0
C362 C 0.89457 0.46177 0.46021 0.0
C363 C 0.92292 0.4986 0.4689 0.0
C364 C 0.90696 0.50647 0.48838 0.0
C365 C 0.91662 0.53089 0.50161 0.0
H366 H 0.00657 0.62685 0.51183 0.0
C367 C 0.94465 0.51725 0.46792 0.0
C368 C 0.94117 0.53614 0.48711 0.0
H369 H 0.93526 0.6197 0.55241 0.0
H370 H 0.92614 0.5785 0.53139 0.0
H371 H 0.98279 0.61339 0.4601 0.0
H372 H 0.02268 0.56442 0.51256 0.0
H373 H 0.03394 0.558 0.48143 0.0
H374 H 0.0381 0.58988 0.49538 0.0
H375 H 0.01725 0.61301 0.46205 0.0
H376 H 0.999 0.59127 0.44083 0.0
C377 C 0.8964 0.55199 0.49721 0.0
C378 C 0.92222 0.52502 0.53023 0.0
C379 C 0.01263 0.50661 0.40014 0.0
C380 C 0.0345 0.52131 0.39414 0.0
C381 C 0.04154 0.54311 0.40929 0.0
C382 C 0.02669 0.55032 0.4303 0.0
C383 C 0.0045 0.53569 0.43592 0.0
C384 C 0.99789 0.51417 0.42102 0.0
C385 C 0.97354 0.50116 0.42961 0.0
C386 C 0.96639 0.51865 0.45191 0.0
C387 C 0.98462 0.53875 0.45553 0.0
C388 C 0.9535 0.50181 0.40716 0.0
C389 C 0.98021 0.47377 0.43856 0.0
C390 C 0.98928 0.61604 0.51644 0.0
C391 C 0.97157 0.62624 0.53367 0.0
C392 C 0.94907 0.61202 0.53911 0.0
C393 C 0.94377 0.58826 0.52678 0.0
C394 C 0.96101 0.57886 0.50856 0.0
C395 C 0.98337 0.59266 0.50374 0.0
C396 C 0.99827 0.58092 0.48221 0.0
C397 C 0.9813 0.5577 0.47507 0.0
C398 C 0.95964 0.55645 0.4907 0.0
C399 C -0.00033 0.60056 0.46013 0.0
C400 C 0.02476 0.57296 0.49324 0.0
H401 H 0.92834 0.46892 0.43921 0.0
H402 H 0.87243 0.49886 0.50963 0.0
H403 H 0.93173 0.50614 0.53204 0.0
H404 H 0.93555 0.53918 0.53974 0.0
H405 H 0.90414 0.52412 0.54122 0.0
H406 H 0.88542 0.54856 0.47883 0.0
H407 H 0.88228 0.55245 0.51295 0.0
H408 H 0.90523 0.57137 0.49532 0.0
H409 H 0.007 0.48978 0.38858 0.0
H410 H 0.05846 0.55451 0.40475 0.0
H411 H 0.03292 0.56714 0.44118 0.0
H412 H 0.95508 0.52026 0.39675 0.0
H413 H 0.95649 0.48592 0.39303 0.0
H414 H 0.93343 0.50085 0.41364 0.0
H415 H -0.00013 0.47349 0.44741 0.0
H416 H 0.96742 0.46674 0.45372 0.0
H417 H 0.97963 0.45976 0.42215 0.0
H418 H 0.88998 0.44428 0.44923 0.0
C419 C 0.91678 0.47604 0.45453 0.0
C420 C 0.82768 0.75246 0.86657 0.0
C421 C 0.81468 0.7556 0.88972 0.0
C422 C 0.80589 0.77998 0.89708 0.0
C423 C 0.81956 0.79692 0.85639 0.0
C424 C 0.82984 0.77334 0.85014 0.0
C425 C 0.84107 0.77284 0.82372 0.0
H426 H 0.8503 0.82793 0.70847 0.0
C427 C 0.82155 0.81339 0.83369 0.0
C428 C 0.8344 0.79952 0.81459 0.0
H429 H 0.88426 0.75702 0.73357 0.0
H430 H 0.8693 0.76506 0.77583 0.0
H431 H 0.86715 0.86113 0.75961 0.0
H432 H 0.79895 0.82101 0.73209 0.0
H433 H 0.78758 0.84511 0.75267 0.0
H434 H 0.805 0.85397 0.72438 0.0
H435 H 0.8474 0.8708 0.73291 0.0
H436 H 0.84065 0.88099 0.76534 0.0
C437 C 0.87054 0.76938 0.82648 0.0
C438 C 0.82693 0.75134 0.80755 0.0
C439 C 0.76872 0.89407 0.82974 0.0
C440 C 0.7599 0.90808 0.80861 0.0
C441 C 0.77205 0.90531 0.78484 0.0
C442 C 0.79143 0.88729 0.78162 0.0
C443 C 0.798 0.87131 0.80214 0.0
C444 C 0.78706 0.87515 0.82587 0.0
C445 C 0.79361 0.85427 0.84436 0.0
C446 C 0.8105 0.83742 0.82791 0.0
C447 C 0.813 0.84756 0.80325 0.0
C448 C 0.80879 0.8666 0.86752 0.0
C449 C 0.76809 0.8403 0.85146 0.0
C450 C 0.85319 0.8128 0.72197 0.0
C451 C 0.86515 0.7894 0.71545 0.0
C452 C 0.87209 0.7734 0.73623 0.0
C453 C 0.86398 0.77842 0.76131 0.0
C454 C 0.84931 0.80015 0.76631 0.0
C455 C 0.84494 0.81737 0.74702 0.0
C456 C 0.82999 0.84016 0.75604 0.0
C457 C 0.8263 0.83374 0.78407 0.0
C458 C 0.83738 0.81013 0.78988 0.0
C459 C 0.847 0.8647 0.75325 0.0
C460 C 0.80411 0.84032 0.74052 0.0
H461 H 0.80099 0.81887 0.88688 0.0
H462 H 0.83471 0.73378 0.86082 0.0
H463 H 0.80576 0.75244 0.80994 0.0
H464 H 0.83013 0.75267 0.78675 0.0
H465 H 0.833 0.73201 0.8137 0.0
H466 H 0.87799 0.77578 0.84582 0.0
H467 H 0.87574 0.7489 0.82373 0.0
H468 H 0.8814 0.78131 0.81282 0.0
H469 H 0.75946 0.89586 0.84815 0.0
H470 H 0.76562 0.91617 0.76843 0.0
H471 H 0.79948 0.88551 0.76288 0.0
H472 H 0.8215 0.88267 0.86124 0.0
H473 H 0.79557 0.87454 0.88204 0.0
H474 H 0.82188 0.85298 0.87689 0.0
H475 H 0.7546 0.83893 0.83458 0.0
H476 H 0.77049 0.8202 0.85711 0.0
H477 H 0.75826 0.85082 0.86711 0.0
H478 H 0.79601 0.78257 0.91505 0.0
C479 C 0.8086 0.80083 0.88063 0.0
C480 C 0.33378 0.24338 0.37051 0.0
C481 C 0.31651 0.24234 0.39082 0.0
C482 C 0.29979 0.26282 0.39514 0.0
C483 C 0.31521 0.28345 0.35692 0.0
C484 C 0.33282 0.26413 0.35379 0.0
C485 C 0.34855 0.26755 0.33011 0.0
H486 H 0.36264 0.32505 0.21673 0.0
C487 C 0.31716 0.30066 0.33483 0.0
C488 C 0.33711 0.29187 0.31934 0.0
H489 H 0.40617 0.26246 0.24752 0.0
H490 H 0.38594 0.26831 0.28802 0.0
H491 H 0.36621 0.36066 0.26303 0.0
H492 H 0.30646 0.30577 0.24016 0.0
H493 H 0.29333 0.33637 0.24568 0.0
H494 H 0.31666 0.33267 0.22141 0.0
H495 H 0.34102 0.36902 0.24085 0.0
H496 H 0.33744 0.37272 0.27522 0.0
C497 C 0.37715 0.27162 0.33846 0.0
C498 C 0.3433 0.24377 0.31219 0.0
C499 C 0.24372 0.35993 0.31427 0.0
C500 C 0.2374 0.37351 0.29174 0.0
C501 C 0.2583 0.38079 0.27613 0.0
C502 C 0.28243 0.36966 0.27907 0.0
C503 C 0.28602 0.35137 0.29811 0.0
C504 C 0.26762 0.3482 0.31647 0.0
C505 C 0.27571 0.32959 0.33676 0.0
C506 C 0.30128 0.32082 0.32632 0.0
C507 C 0.30687 0.33336 0.30338 0.0
C508 C 0.27911 0.34442 0.36279 0.0
C509 C 0.25527 0.30744 0.33687 0.0
C510 C 0.36647 0.31081 0.23097 0.0
C511 C 0.38245 0.2896 0.22643 0.0
C512 C 0.39087 0.27617 0.24849 0.0
C513 C 0.37952 0.27997 0.27246 0.0
C514 C 0.35993 0.29791 0.27484 0.0
C515 C 0.35458 0.31379 0.25465 0.0
C516 C 0.3337 0.33239 0.2606 0.0
C517 C 0.32708 0.32465 0.28774 0.0
C518 C 0.34235 0.30424 0.29586 0.0
C519 C 0.34498 0.36019 0.25976 0.0
C520 C 0.31128 0.32673 0.24103 0.0
H521 H 0.28581 0.29845 0.38225 0.0
H522 H 0.34688 0.22779 0.36709 0.0
H523 H 0.32231 0.23917 0.31081 0.0
H524 H 0.34941 0.24655 0.2923 0.0
H525 H 0.3531 0.22658 0.31971 0.0
H526 H 0.37901 0.28035 0.35813 0.0
H527 H 0.38742 0.25309 0.3386 0.0
H528 H 0.38744 0.28528 0.32603 0.0
H529 H 0.23082 0.35776 0.32999 0.0
H530 H 0.25596 0.39453 0.26095 0.0
H531 H 0.297 0.37483 0.26571 0.0
H532 H 0.28292 0.36532 0.35999 0.0
H533 H 0.2616 0.3426 0.37456 0.0
H534 H 0.29595 0.33786 0.37408 0.0
H535 H 0.25074 0.30045 0.3169 0.0
H536 H 0.26148 0.29045 0.34744 0.0
H537 H 0.23711 0.31407 0.34544 0.0
H538 H 0.28651 0.26222 0.41091 0.0
C539 C 0.29929 0.2836 0.37842 0.0
C540 C 0.50816 0.87558 0.48789 0.0
C541 C 0.49267 0.87312 0.46555 0.0
C542 C 0.47339 0.89108 0.4608 0.0
C543 C 0.48532 0.914 0.50039 0.0
C544 C 0.50413 0.89614 0.50505 0.0
C545 C 0.51869 0.90171 0.5299 0.0
H546 H 0.5358 0.9766 0.63719 0.0
C547 C 0.4862 0.93305 0.52182 0.0
C548 C 0.5057 0.92598 0.53919 0.0
H549 H 0.57545 0.90714 0.61723 0.0
H550 H 0.55168 0.90388 0.5766 0.0
H551 H 0.48159 0.95619 0.62096 0.0
H552 H 0.53639 0.00168 0.57963 0.0
H553 H 0.50593 0.01465 0.57382 0.0
H554 H 0.51882 0.01424 0.60626 0.0
H555 H 0.48694 0.98986 0.62779 0.0
H556 H 0.46379 0.97857 0.6036 0.0
C557 C 0.51396 0.87887 0.54805 0.0
C558 C 0.54731 0.9068 0.52362 0.0
C559 C 0.42417 0.00718 0.52181 0.0
C560 C 0.42021 0.02756 0.53922 0.0
C561 C 0.43554 0.03008 0.56173 0.0
C562 C 0.45483 0.01233 0.56683 0.0
C563 C 0.45862 0.99187 0.54926 0.0
C564 C 0.44339 0.98957 0.52721 0.0
C565 C 0.44988 0.96649 0.51092 0.0
C566 C 0.4716 0.95532 0.52677 0.0
C567 C 0.47664 0.97027 0.54913 0.0
C568 C 0.42591 0.94823 0.5093 0.0
C569 C 0.45918 0.97615 0.48461 0.0
C570 C 0.53953 0.96095 0.62378 0.0
C571 C 0.55744 0.94218 0.62998 0.0
C572 C 0.56175 0.92182 0.61249 0.0
C573 C 0.54784 0.91995 0.5891 0.0
C574 C 0.52936 0.93853 0.5834 0.0
C575 C 0.52565 0.9587 0.60057 0.0
C576 C 0.50469 0.97617 0.5919 0.0
C577 C 0.49629 0.96316 0.56672 0.0
C578 C 0.5108 0.94118 0.56177 0.0
C579 C 0.48311 0.97545 0.61206 0.0
C580 C 0.51685 0.00321 0.5878 0.0
H581 H 0.45469 0.92469 0.47341 0.0
H582 H 0.52306 0.86185 0.49181 0.0
H583 H 0.54901 0.91805 0.50573 0.0
H584 H 0.55771 0.91846 0.5386 0.0
H585 H 0.55752 0.88845 0.52063 0.0
H586 H 0.49421 0.87054 0.54511 0.0
H587 H 0.52777 0.86323 0.54445 0.0
H588 H 0.51506 0.8846 0.5686 0.0
H589 H 0.4124 0.00496 0.50444 0.0
H590 H 0.43253 0.04577 0.57528 0.0
H591 H 0.46595 0.01518 0.58429 0.0
H592 H 0.41498 0.94904 0.52746 0.0
H593 H 0.41261 0.95362 0.4934 0.0
H594 H 0.43087 0.92778 0.50686 0.0
H595 H 0.47055 0.99444 0.48705 0.0
H596 H 0.47228 0.96272 0.47504 0.0
H597 H 0.44265 0.97985 0.47144 0.0
H598 H 0.46136 0.8893 0.44357 0.0
C599 C 0.46963 0.91155 0.4781 0.0
C600 C 0.14438 0.27436 0.75636 0.0
C601 C 0.13132 0.25046 0.75698 0.0
C602 C 0.14099 0.22926 0.74334 0.0
C603 C 0.17627 0.2559 0.72841 0.0
C604 C 0.1669 0.2766 0.74215 0.0
C605 C 0.18354 0.30046 0.73976 0.0
H606 H 0.3001 0.35083 0.71313 0.0
C607 C 0.20024 0.26442 0.71611 0.0
C608 C 0.2049 0.29036 0.723 0.0
H609 H 0.23386 0.39108 0.74083 0.0
H610 H 0.20764 0.3524 0.73513 0.0
H611 H 0.26838 0.33188 0.66561 0.0
H612 H 0.29057 0.29131 0.73321 0.0
H613 H 0.2972 0.27303 0.70496 0.0
H614 H 0.31184 0.3044 0.70972 0.0
H615 H 0.29668 0.31291 0.66621 0.0
H616 H 0.26573 0.29919 0.65641 0.0
C617 C 0.16766 0.32131 0.72606 0.0
C618 C 0.19353 0.30867 0.76698 0.0
C619 C 0.24499 0.2046 0.65425 0.0
C620 C 0.26679 0.20791 0.63914 0.0
C621 C 0.28296 0.22972 0.64326 0.0
C622 C 0.27678 0.24869 0.66153 0.0
C623 C 0.25405 0.24589 0.67548 0.0
C624 C 0.23886 0.22388 0.6721 0.0
C625 C 0.21522 0.22442 0.68825 0.0
C626 C 0.21777 0.25119 0.70034 0.0
C627 C 0.24069 0.26353 0.69305 0.0
C628 C 0.19122 0.22167 0.67018 0.0
C629 C 0.21738 0.20306 0.70856 0.0
C630 C 0.27997 0.35127 0.718 0.0
C631 C 0.26934 0.37374 0.7286 0.0
C632 C 0.24272 0.37381 0.73352 0.0
C633 C 0.22754 0.35139 0.73027 0.0
C634 C 0.23874 0.32885 0.72096 0.0
C635 C 0.26405 0.32946 0.71338 0.0
C636 C 0.2708 0.30535 0.69865 0.0
C637 C 0.24622 0.28929 0.70129 0.0
C638 C 0.22787 0.30294 0.71515 0.0
C639 C 0.27579 0.31256 0.6703 0.0
C640 C 0.29393 0.29278 0.71223 0.0
H641 H 0.16971 0.2151 0.7188 0.0
H642 H 0.13716 0.29088 0.76675 0.0
H643 H 0.20245 0.29213 0.77676 0.0
H644 H 0.20828 0.32418 0.76682 0.0
H645 H 0.17751 0.31548 0.77899 0.0
H646 H 0.15092 0.31278 0.71501 0.0
H647 H 0.16005 0.33548 0.74009 0.0
H648 H 0.17902 0.33168 0.71157 0.0
H649 H 0.23242 0.18787 0.65136 0.0
H650 H 0.29994 0.23236 0.6318 0.0
H651 H 0.28961 0.26502 0.66382 0.0
H652 H 0.19349 0.23397 0.65306 0.0
H653 H 0.18835 0.20146 0.66322 0.0
H654 H 0.17337 0.22792 0.6793 0.0
H655 H 0.23774 0.19782 0.71234 0.0
H656 H 0.21029 0.2093 0.72758 0.0
H657 H 0.20678 0.18523 0.70211 0.0
H658 H 0.13108 0.21074 0.74371 0.0
C659 C 0.16338 0.23186 0.72899 0.0
C660 C 0.70907 0.13809 0.73692 0.0
C661 C 0.68683 0.13441 0.72151 0.0
C662 C 0.68135 0.15176 0.70182 0.0
C663 C 0.72007 0.17651 0.71341 0.0
C664 C 0.72539 0.15919 0.73255 0.0
C665 C 0.75007 0.16575 0.74698 0.0
H666 H 0.85554 0.24329 0.7627 0.0
C667 C 0.74054 0.19664 0.71443 0.0
C668 C 0.75806 0.19056 0.73418 0.0
H669 H 0.83872 0.17194 0.80048 0.0
H670 H 0.79718 0.16869 0.77844 0.0
H671 H 0.80186 0.26747 0.76861 0.0
H672 H 0.83232 0.22494 0.70462 0.0
H673 H 0.81973 0.25457 0.69451 0.0
H674 H 0.8456 0.25476 0.71763 0.0
H675 H 0.82024 0.28324 0.74452 0.0
H676 H 0.78581 0.27841 0.74097 0.0
C677 C 0.74385 0.1703 0.77567 0.0
C678 C 0.76926 0.14382 0.74192 0.0
C679 C 0.74202 0.2671 0.6481 0.0
C680 C 0.7573 0.28954 0.6458 0.0
C681 C 0.7747 0.29676 0.66594 0.0
C682 C 0.77862 0.28062 0.68685 0.0
C683 C 0.76458 0.25731 0.68791 0.0
C684 C 0.74558 0.25164 0.66959 0.0
C685 C 0.73024 0.22779 0.67589 0.0
C686 C 0.74449 0.21916 0.69991 0.0
C687 C 0.76507 0.23613 0.70636 0.0
C688 C 0.70228 0.23572 0.68155 0.0
C689 C 0.73245 0.20809 0.65339 0.0
C690 C 0.84273 0.22706 0.76612 0.0
C691 C 0.8501 0.20776 0.78308 0.0
C692 C 0.83319 0.1869 0.78739 0.0
C693 C 0.80924 0.18508 0.77452 0.0
C694 C 0.80229 0.20422 0.75706 0.0
C695 C 0.81884 0.2249 0.75328 0.0
C696 C 0.80838 0.24327 0.73384 0.0
C697 C 0.78321 0.22969 0.72588 0.0
C698 C 0.77976 0.20692 0.73961 0.0
C699 C 0.80394 0.26955 0.7475 0.0
C700 C 0.82744 0.24464 0.7114 0.0
H701 H 0.69284 0.18548 0.6824 0.0
H702 H 0.71365 0.12474 0.752 0.0
H703 H 0.76512 0.13386 0.72311 0.0
H704 H 0.78935 0.15094 0.74053 0.0
H705 H 0.76823 0.12907 0.75705 0.0
H706 H 0.72593 0.18146 0.77757 0.0
H707 H 0.7409 0.15174 0.78555 0.0
H708 H 0.7589 0.18173 0.78625 0.0
H709 H 0.72797 0.26153 0.63326 0.0
H710 H 0.7862 0.31431 0.66477 0.0
H711 H 0.7928 0.28658 0.70112 0.0
H712 H 0.70138 0.25626 0.68786 0.0
H713 H 0.68958 0.23316 0.66421 0.0
H714 H 0.69392 0.22488 0.69759 0.0
H715 H 0.75274 0.20699 0.64711 0.0
H716 H 0.72676 0.18835 0.65864 0.0
H717 H 0.72048 0.21372 0.63657 0.0
H718 H 0.66427 0.14894 0.68974 0.0
C719 C 0.69788 0.17288 0.69771 0.0
C720 C 0.53178 0.60338 0.47138 0.0
C721 C 0.51286 0.62226 0.4717 0.0
C722 C 0.49402 0.62173 0.49071 0.0
C723 C 0.51269 0.58342 0.50855 0.0
C724 C 0.53141 0.58426 0.49005 0.0
C725 C 0.55021 0.56281 0.49277 0.0
H726 H 0.589 0.4561 0.55443 0.0
C727 C 0.51751 0.56091 0.52483 0.0
C728 C 0.53958 0.54884 0.51578 0.0
H729 H 0.62397 0.49286 0.48979 0.0
H730 H 0.59154 0.52559 0.49025 0.0
H731 H 0.57766 0.50864 0.58633 0.0
H732 H 0.53014 0.46193 0.5342 0.0
H733 H 0.51125 0.47093 0.5604 0.0
H734 H 0.53915 0.45159 0.5658 0.0
H735 H 0.5648 0.47778 0.59504 0.0
H736 H 0.54669 0.50676 0.59916 0.0
C737 C 0.57721 0.57497 0.49867 0.0
C738 C 0.54845 0.54588 0.46791 0.0
C739 C 0.45607 0.53948 0.59657 0.0
C740 C 0.45563 0.5201 0.615 0.0
C741 C 0.47517 0.50174 0.61522 0.0
C742 C 0.49494 0.50264 0.59727 0.0
C743 C 0.49523 0.52217 0.57892 0.0
C744 C 0.47604 0.54022 0.57887 0.0
C745 C 0.4797 0.55988 0.55836 0.0
C746 C 0.50409 0.55057 0.54594 0.0
C747 C 0.51308 0.52842 0.55798 0.0
C748 C 0.48373 0.58666 0.57168 0.0
C749 C 0.4562 0.55784 0.53958 0.0
C750 C 0.58955 0.47132 0.54051 0.0
C751 C 0.60889 0.47215 0.52206 0.0
C752 C 0.60917 0.49206 0.50413 0.0
C753 C 0.59033 0.51096 0.50446 0.0
C754 C 0.57095 0.50992 0.5229 0.0
C755 C 0.57081 0.49037 0.54058 0.0
C756 C 0.54867 0.49237 0.55868 0.0
C757 C 0.53557 0.5163 0.54897 0.0
C758 C 0.54871 0.52647 0.528 0.0
C759 C 0.55982 0.49642 0.58634 0.0
C760 C 0.53135 0.46793 0.55486 0.0
H761 H 0.47886 0.60294 0.52303 0.0
H762 H 0.54647 0.60353 0.45691 0.0
H763 H 0.52823 0.54417 0.46055 0.0
H764 H 0.55435 0.52587 0.47095 0.0
H765 H 0.56021 0.55432 0.45248 0.0
H766 H 0.57578 0.59284 0.51065 0.0
H767 H 0.58706 0.58017 0.48069 0.0
H768 H 0.58974 0.56237 0.51005 0.0
H769 H 0.4413 0.55387 0.59616 0.0
H770 H 0.4751 0.48673 0.62939 0.0
H771 H 0.50927 0.48813 0.59843 0.0
H772 H 0.49358 0.58499 0.59076 0.0
H773 H 0.46508 0.59612 0.57487 0.0
H774 H 0.4964 0.59966 0.56082 0.0
H775 H 0.45022 0.53736 0.53613 0.0
H776 H 0.46024 0.56533 0.52035 0.0
H777 H 0.43948 0.56806 0.54753 0.0
H778 H 0.47933 0.6362 0.4911 0.0
C779 C 0.4938 0.6024 0.50913 0.0
C780 C 0.54426 0.41626 0.01527 0.0
C781 C 0.52336 0.39883 0.01312 0.0
C782 C 0.50487 0.40148 0.99329 0.0
C783 C 0.52821 0.43873 0.97786 0.0
C784 C 0.54626 0.43607 0.99749 0.0
C785 C 0.56712 0.4565 0.99704 0.0
H786 H 0.62368 0.55626 0.93691 0.0
C787 C 0.53604 0.46112 0.96255 0.0
C788 C 0.5588 0.47164 0.97373 0.0
H789 H 0.648 0.52047 0.00728 0.0
H790 H 0.61012 0.49264 0.00561 0.0
H791 H 0.56301 0.55933 0.95276 0.0
H792 H 0.60497 0.50543 0.90669 0.0
H793 H 0.57556 0.5109 0.89065 0.0
H794 H 0.59811 0.53733 0.89623 0.0
H795 H 0.57391 0.56684 0.92121 0.0
H796 H 0.54339 0.55064 0.92598 0.0
C797 C 0.56603 0.47279 0.0223 0.0
C798 C 0.59302 0.44298 0.99284 0.0
C799 C 0.48165 0.48658 0.88525 0.0
C800 C 0.48423 0.50618 0.86726 0.0
C801 C 0.50608 0.52261 0.86846 0.0
C802 C 0.52493 0.51993 0.88786 0.0
C803 C 0.52189 0.50054 0.90614 0.0
C804 C 0.50065 0.48409 0.90444 0.0
C805 C 0.50072 0.46444 0.92527 0.0
C806 C 0.52519 0.47213 0.94013 0.0
C807 C 0.5375 0.49329 0.92887 0.0
C808 C 0.47646 0.4682 0.94162 0.0
C809 C 0.50255 0.43742 0.91234 0.0
C810 C 0.62054 0.54255 0.95201 0.0
C811 C 0.63865 0.54023 0.97217 0.0
C812 C 0.63414 0.52237 0.99162 0.0
C813 C 0.61227 0.5062 0.99049 0.0
C814 C 0.59471 0.508 0.96972 0.0
C815 C 0.59867 0.52635 0.95124 0.0
C816 C 0.57752 0.52592 0.93104 0.0
C817 C 0.5606 0.50387 0.9401 0.0
C818 C 0.57093 0.49332 0.96261 0.0
C819 C 0.56371 0.55203 0.93253 0.0
C820 C 0.58949 0.51976 0.90465 0.0
H821 H 0.49248 0.42237 0.96091 0.0
H822 H 0.55858 0.41456 0.03053 0.0
H823 H 0.59063 0.427 0.97838 0.0
H824 H 0.60805 0.4558 0.98516 0.0
H825 H 0.60036 0.43464 0.01101 0.0
H826 H 0.54616 0.47314 0.02984 0.0
H827 H 0.57871 0.4649 0.03754 0.0
H828 H 0.57125 0.49327 0.01953 0.0
H829 H 0.465 0.47368 0.88455 0.0
H830 H 0.50829 0.53774 0.8546 0.0
H831 H 0.54105 0.53315 0.88797 0.0
H832 H 0.47213 0.489 0.94386 0.0
H833 H 0.45934 0.45844 0.93241 0.0
H834 H 0.4788 0.46131 0.96146 0.0
H835 H 0.51442 0.4382 0.8948 0.0
H836 H 0.5122 0.42338 0.92472 0.0
H837 H 0.4832 0.42968 0.90644 0.0
H838 H 0.48862 0.38812 0.99154 0.0
C839 C 0.50718 0.42133 0.9756 0.0
C840 C 0.77061 0.15788 0.28188 0.0
C841 C 0.76792 0.13682 0.26456 0.0
C842 C 0.74731 0.13625 0.2465 0.0
C843 C 0.73238 0.17701 0.26345 0.0
C844 C 0.75226 0.17722 0.28151 0.0
C845 C 0.75 0.19864 0.30116 0.0
H846 H 0.68405 0.30002 0.34768 0.0
C847 C 0.71617 0.19945 0.26889 0.0
C848 C 0.72609 0.21188 0.29129 0.0
H849 H 0.75059 0.26429 0.38129 0.0
H850 H 0.75231 0.23456 0.34502 0.0
H851 H 0.65459 0.24706 0.32809 0.0
H852 H 0.70488 0.30093 0.29121 0.0
H853 H 0.6834 0.28921 0.2671 0.0
H854 H 0.67124 0.30681 0.29442 0.0
H855 H 0.64602 0.27945 0.32081 0.0
H856 H 0.64126 0.25361 0.29756 0.0
C857 C 0.74594 0.18649 0.32786 0.0
C858 C 0.77422 0.21631 0.29973 0.0
C859 C 0.64334 0.22189 0.20693 0.0
C860 C 0.62604 0.24228 0.20658 0.0
C861 C 0.6269 0.26084 0.22661 0.0
C862 C 0.64481 0.25914 0.24695 0.0
C863 C 0.66206 0.23866 0.24719 0.0
C864 C 0.66125 0.22053 0.22735 0.0
C865 C 0.68125 0.20026 0.23084 0.0
C866 C 0.69458 0.20965 0.25567 0.0
C867 C 0.68302 0.23196 0.26527 0.0
C868 C 0.6673 0.17389 0.234 0.0
C869 C 0.69946 0.20128 0.20772 0.0
C870 C 0.69886 0.28569 0.34707 0.0
C871 C 0.71715 0.28417 0.36717 0.0
C872 C 0.73633 0.26553 0.36591 0.0
C873 C 0.73722 0.24831 0.34491 0.0
C874 C 0.71862 0.24967 0.32504 0.0
C875 C 0.69998 0.26826 0.32621 0.0
C876 C 0.68202 0.26693 0.30316 0.0
C877 C 0.69238 0.24392 0.2885 0.0
C878 C 0.71384 0.23396 0.30137 0.0
C879 C 0.65442 0.26164 0.31271 0.0
C880 C 0.68528 0.29226 0.28816 0.0
H881 H 0.71447 0.15485 0.23147 0.0
H882 H 0.78595 0.15854 0.29631 0.0
H883 H 0.77908 0.21987 0.27936 0.0
H884 H 0.77156 0.23551 0.3086 0.0
H885 H 0.79109 0.20732 0.30911 0.0
H886 H 0.73718 0.1668 0.326 0.0
H887 H 0.76445 0.18488 0.33868 0.0
H888 H 0.73229 0.1973 0.33976 0.0
H889 H 0.64287 0.20742 0.19164 0.0
H890 H 0.6136 0.27661 0.2265 0.0
H891 H 0.64448 0.27381 0.26171 0.0
H892 H 0.64774 0.17622 0.24192 0.0
H893 H 0.66503 0.16337 0.21527 0.0
H894 H 0.67731 0.16155 0.24793 0.0
H895 H 0.70526 0.22154 0.20381 0.0
H896 H 0.71751 0.19097 0.21101 0.0
H897 H 0.68981 0.19308 0.19006 0.0
H898 H 0.74469 0.12005 0.23322 0.0
C899 C 0.72974 0.15637 0.24564 0.0
C900 C 0.38479 0.98254 0.00209 0.0
C901 C 0.37736 0.96142 0.98622 0.0
C902 C 0.3904 0.95675 0.96323 0.0
C903 C 0.41782 0.99429 0.97185 0.0
C904 C 0.40506 0.99871 0.99454 0.0
C905 C 0.41542 0.02222 0.00895 0.0
H906 H 0.48768 0.13171 0.00742 0.0
C907 C 0.43732 0.01504 0.96916 0.0
C908 C 0.43596 0.03156 0.99076 0.0
H909 H 0.44086 0.10421 0.06915 0.0
H910 H 0.43187 0.0643 0.04534 0.0
H911 H 0.4535 0.11097 0.95915 0.0
H912 H 0.51676 0.08006 0.00183 0.0
H913 H 0.51923 0.06669 0.97079 0.0
H914 H 0.52194 0.10117 0.97555 0.0
H915 H 0.4859 0.12361 0.95889 0.0
H916 H 0.47526 0.09817 0.93697 0.0
C917 C 0.39333 0.04155 0.0115 0.0
C918 C 0.42714 0.0137 0.035 0.0
C919 C 0.49671 0.01471 0.89285 0.0
C920 C 0.51694 0.0313 0.88601 0.0
C921 C 0.52143 0.05452 0.8998 0.0
C922 C 0.50649 0.06072 0.92102 0.0
C923 C 0.48707 0.04338 0.92854 0.0
C924 C 0.48207 0.02107 0.91424 0.0
C925 C 0.46088 0.00488 0.92536 0.0
C926 C 0.45492 0.02054 0.94938 0.0
C927 C 0.47026 0.04304 0.95101 0.0
C928 C 0.43795 0.00381 0.9058 0.0
C929 C 0.47185 0.97827 0.932 0.0
C930 C 0.4756 0.11698 0.01578 0.0
C931 C 0.46438 0.12114 0.03974 0.0
C932 C 0.44933 0.10138 0.05048 0.0
C933 C 0.44405 0.0784 0.0366 0.0
C934 C 0.45437 0.07505 0.01202 0.0
C935 C 0.47069 0.09374 0.00251 0.0
C936 C 0.48196 0.08589 0.9773 0.0
C937 C 0.46857 0.06001 0.97251 0.0
C938 C 0.45205 0.05396 0.99262 0.0
C939 C 0.47397 0.10568 0.95689 0.0
C940 C 0.51149 0.08343 0.98134 0.0
H941 H 0.4198 0.96855 0.9382 0.0
H942 H 0.37498 0.98635 0.0199 0.0
H943 H 0.43391 0.99355 0.03382 0.0
H944 H 0.44445 0.02526 0.04088 0.0
H945 H 0.4128 0.01469 0.0505 0.0
H946 H 0.38292 0.04343 0.99275 0.0
H947 H 0.3792 0.03495 0.02583 0.0
H948 H 0.40005 0.06113 0.01714 0.0
H949 H 0.49317 0.99667 0.88245 0.0
H950 H 0.53707 0.06737 0.89463 0.0
H951 H 0.51105 0.07848 0.93108 0.0
H952 H 0.43726 0.02161 0.89427 0.0
H953 H 0.43945 0.98726 0.89213 0.0
H954 H 0.41909 0.00282 0.9152 0.0
H955 H 0.49166 0.98046 0.94038 0.0
H956 H 0.46068 0.96809 0.94662 0.0
H957 H 0.47286 0.96571 0.91454 0.0
H958 H 0.38482 0.94046 0.95089 0.0
C959 C 0.4106 0.97308 0.95594 0.0
Zn960 Zn 0.27856 0.83467 0.00794 0.0
Zn961 Zn 0.24147 0.86893 0.01698 0.0
O962 O 0.24348 0.84916 0.05128 0.0
O963 O 0.27166 0.81934 0.04228 0.0
O964 O 0.21369 0.89533 0.02179 0.0
O965 O 0.3045 0.86376 0.00484 0.0
O966 O 0.27364 0.89162 0.01097 0.0
C967 C 0.25629 0.82956 0.05784 0.0
C968 C 0.23806 0.83036 0.97076 0.0
O969 O 0.22849 0.84817 0.98456 0.0
O970 O 0.25967 0.82115 0.97652 0.0
C971 C 0.18995 0.88902 0.02221 0.0
O972 O 0.18302 0.86458 0.02053 0.0
C973 C 0.29709 0.88676 0.00656 0.0
Zn974 Zn 0.089 0.43564 0.2714 0.0
Zn975 Zn 0.11813 0.47805 0.25876 0.0
O976 O 0.09898 0.49017 0.29056 0.0
O977 O 0.07474 0.45661 0.30065 0.0
O978 O 0.138 0.50948 0.24777 0.0
O979 O 0.12236 0.41728 0.27647 0.0
O980 O 0.14564 0.45164 0.26672 0.0
C981 C 0.08244 0.47959 0.30487 0.0
C982 C 0.07893 0.4523 0.22044 0.0
O983 O 0.09576 0.46953 0.22677 0.0
O984 O 0.07224 0.43531 0.2362 0.0
C985 C 0.14741 0.5259 0.26393 0.0
O986 O 0.14462 0.52239 0.28866 0.0
C987 C 0.14403 0.42823 0.27341 0.0
Zn988 Zn 0.7837 0.60698 0.94311 0.0
Zn989 Zn 0.77905 0.63107 0.99013 0.0
O990 O 0.80948 0.60772 0.99656 0.0
O991 O 0.81348 0.58789 0.95888 0.0
O992 O 0.77534 0.65137 0.02311 0.0
O993 O 0.7899 0.64133 0.9267 0.0
O994 O 0.78641 0.65989 0.96496 0.0
C995 C 0.82065 0.59156 0.98211 0.0
C996 C 0.73519 0.59681 0.96726 0.0
O997 O 0.74471 0.61107 0.98542 0.0
O998 O 0.74769 0.5926 0.94701 0.0
C999 C 0.7736 0.6418 0.0453 0.0
O1000 O 0.77409 0.61672 0.04792 0.0
C1001 C 0.79036 0.66132 0.94098 0.0
Zn1002 Zn 0.85464 0.00453 0.29835 0.0
Zn1003 Zn 0.87629 0.01287 0.25641 0.0
O1004 O 0.85499 0.04569 0.25942 0.0
O1005 O 0.8289 0.03214 0.28918 0.0
O1006 O 0.89696 0.01661 0.22416 0.0
O1007 O 0.88551 0.0131 0.32069 0.0
O1008 O 0.90572 0.01136 0.28399 0.0
C1009 C 0.83503 0.04887 0.27285 0.0
C1010 C 0.84502 0.9631 0.26463 0.0
O1011 O 0.85312 0.98009 0.2492 0.0
O1012 O 0.84792 0.96729 0.28853 0.0
C1013 C 0.88791 0.01539 0.20128 0.0
O1014 O 0.86303 0.01218 0.1972 0.0
C1015 C 0.90627 0.013 0.3085 0.0
Zn1016 Zn 0.30295 0.09516 0.45841 0.0
Zn1017 Zn 0.2927 0.12512 0.50045 0.0
O1018 O 0.32341 0.10381 0.51207 0.0
O1019 O 0.33311 0.08065 0.47771 0.0
O1020 O 0.28594 0.14716 0.5316 0.0
O1021 O 0.30726 0.128 0.43822 0.0
O1022 O 0.30069 0.1515 0.4732 0.0
C1023 C 0.33734 0.08726 0.50098 0.0
C1024 C 0.25203 0.08681 0.4783 0.0
O1025 O 0.25865 0.10526 0.49368 0.0
O1026 O 0.26783 0.0783 0.46214 0.0
C1027 C 0.28454 0.13775 0.5539 0.0
O1028 O 0.28703 0.11288 0.55688 0.0
C1029 C 0.30573 0.14976 0.44942 0.0
Zn1030 Zn 0.34229 0.50797 0.79283 0.0
Zn1031 Zn 0.36406 0.51332 0.7482 0.0
O1032 O 0.34202 0.54577 0.74888 0.0
O1033 O 0.32074 0.53901 0.78447 0.0
O1034 O 0.38555 0.51595 0.71631 0.0
O1035 O 0.37469 0.51216 0.81378 0.0
O1036 O 0.39333 0.51209 0.77615 0.0
C1037 C 0.32491 0.55236 0.7648 0.0
C1038 C 0.32978 0.466 0.75815 0.0
O1039 O 0.3408 0.48074 0.74224 0.0
O1040 O 0.33056 0.47208 0.78184 0.0
C1041 C 0.3776 0.51463 0.69305 0.0
O1042 O 0.35289 0.51161 0.68779 0.0
C1043 C 0.39487 0.51229 0.80068 0.0
Zn1044 Zn 0.778 0.34515 0.4977 0.0
Zn1045 Zn 0.74042 0.37856 0.50621 0.0
O1046 O 0.74332 0.35909 0.54056 0.0
O1047 O 0.77124 0.32905 0.53164 0.0
O1048 O 0.71169 0.40364 0.51183 0.0
O1049 O 0.80332 0.37485 0.49561 0.0
O1050 O 0.77184 0.4023 0.50037 0.0
C1051 C 0.7561 0.33954 0.54725 0.0
C1052 C 0.73832 0.3402 0.4598 0.0
O1053 O 0.72806 0.35762 0.47359 0.0
O1054 O 0.76013 0.33158 0.46579 0.0
C1055 C 0.68852 0.39602 0.51451 0.0
O1056 O 0.68296 0.37124 0.51411 0.0
C1057 C 0.7955 0.39773 0.4968 0.0
Zn1058 Zn 0.6088 0.94757 0.78575 0.0
Zn1059 Zn 0.6275 0.99361 0.77094 0.0
O1060 O 0.60068 0.00438 0.79691 0.0
O1061 O 0.58475 0.96684 0.80889 0.0
O1062 O 0.64239 0.02687 0.75859 0.0
O1063 O 0.64408 0.9394 0.79941 0.0
O1064 O 0.65891 0.97683 0.78753 0.0
C1065 C 0.58517 0.9912 0.81023 0.0
C1066 C 0.60146 0.95527 0.73215 0.0
O1067 O 0.61222 0.97689 0.73792 0.0
O1068 O 0.59817 0.93849 0.74915 0.0
C1069 C 0.62848 0.04431 0.74924 0.0
O1070 O 0.60341 0.04088 0.74743 0.0
C1071 C 0.66249 0.9557 0.79882 0.0
Zn1072 Zn 0.98939 0.2725 0.82562 0.0
Zn1073 Zn 0.00043 0.23232 0.85676 0.0
O1074 O 0.03133 0.23469 0.83241 0.0
O1075 O 0.02229 0.26689 0.8069 0.0
O1076 O 0.00952 0.203 0.88026 0.0
O1077 O 0.98926 0.29588 0.85689 0.0
O1078 O 0.99724 0.26305 0.88198 0.0
C1079 C 0.03721 0.2493 0.8139 0.0
C1080 C 0.95081 0.23201 0.82352 0.0
O1081 O 0.96575 0.22112 0.83952 0.0
O1082 O 0.95664 0.25375 0.81453 0.0
C1083 C 0.99241 0.19165 0.8933 0.0
O1084 O 0.96832 0.19854 0.8911 0.0
C1085 C 0.99276 0.28684 0.87906 0.0
Zn1086 Zn 0.49347 0.78134 0.33152 0.0
Zn1087 Zn 0.50877 0.74294 0.36198 0.0
O1088 O 0.53947 0.74794 0.33769 0.0
O1089 O 0.52431 0.77522 0.3096 0.0
O1090 O 0.51858 0.71357 0.38498 0.0
O1091 O 0.49582 0.80551 0.36252 0.0
O1092 O 0.5052 0.77303 0.38754 0.0
C1093 C 0.54218 0.76089 0.3173 0.0
C1094 C 0.45715 0.74012 0.33117 0.0
O1095 O 0.47429 0.72992 0.3453 0.0
O1096 O 0.46025 0.76269 0.32301 0.0
C1097 C 0.50131 0.70428 0.39931 0.0
O1098 O 0.47808 0.7137 0.39853 0.0
C1099 C 0.50045 0.79674 0.38464 0.0
Zn1100 Zn 0.9492 0.77871 0.57833 0.0
Zn1101 Zn 0.98568 0.77174 0.61607 0.0
O1102 O -0.00012 0.80375 0.5983 0.0
O1103 O 0.97076 0.80923 0.56742 0.0
O1104 O 0.01057 0.7649 0.64507 0.0
O1105 O 0.92216 0.78258 0.60512 0.0
O1106 O 0.95193 0.77649 0.63511 0.0
C1107 C 0.99153 0.81602 0.57899 0.0
C1108 C 0.97342 0.7295 0.5756 0.0
O1109 O 0.98673 0.73838 0.5947 0.0
O1110 O 0.95626 0.74294 0.56511 0.0
C1111 C 0.03479 0.7638 0.64269 0.0
O1112 O 0.0451 0.7681 0.62029 0.0
C1113 C 0.92864 0.78046 0.62855 0.0
Zn1114 Zn 0.45447 0.27617 0.08172 0.0
Zn1115 Zn 0.49501 0.26982 0.11366 0.0
O1116 O 0.50619 0.30033 0.09118 0.0
O1117 O 0.47193 0.3069 0.06659 0.0
O1118 O 0.52546 0.26425 0.13719 0.0
O1119 O 0.43241 0.27954 0.11303 0.0
O1120 O 0.46652 0.27773 0.13882 0.0
C1121 C 0.49468 0.31292 0.07374 0.0
C1122 C 0.47447 0.22589 0.07784 0.0
O1123 O 0.489 0.23421 0.09632 0.0
O1124 O 0.45909 0.24081 0.06669 0.0
C1125 C 0.54705 0.25711 0.12891 0.0
O1126 O 0.55014 0.25351 0.10411 0.0
C1127 C 0.44237 0.27998 0.13547 0.0
C1128 C 0.22542 0.81848 0.90015 0.0
C1129 C 0.21335 0.79376 0.90064 0.0
C1130 C 0.21157 0.79626 0.94765 0.0
C1131 C 0.22467 0.82041 0.9472 0.0
N1132 N 0.23826 0.8576 0.92385 0.0
N1133 N 0.18914 0.76186 0.92345 0.0
C1134 C 0.2295 0.83262 0.92363 0.0
C1135 C 0.20445 0.78358 0.92401 0.0
N1136 N 0.23424 0.82777 0.87747 0.0
N1137 N 0.20692 0.78509 0.97072 0.0
H1138 H 0.18369 0.75221 0.90636 0.0
H1139 H 0.18013 0.75457 0.93952 0.0
H1140 H 0.2107 0.7946 0.9883 0.0
H1141 H 0.2003 0.7662 0.97256 0.0
H1142 H 0.24584 0.84422 0.87616 0.0
H1143 H 0.23112 0.81819 0.85984 0.0
H1144 H 0.24009 0.86849 0.90739 0.0
H1145 H 0.24162 0.86823 0.94086 0.0
C1146 C 0.04226 0.52262 0.34687 0.0
C1147 C 0.04967 0.51388 0.37156 0.0
C1148 C 0.08112 0.48519 0.35253 0.0
C1149 C 0.07324 0.49344 0.32778 0.0
N1150 N 0.05043 0.52312 0.30107 0.0
N1151 N 0.07892 0.49102 0.3989 0.0
C1152 C 0.0552 0.51331 0.32487 0.0
C1153 C 0.07008 0.49649 0.3747 0.0
N1154 N 0.02212 0.53901 0.34449 0.0
N1155 N 0.09879 0.46615 0.3547 0.0
H1156 H 0.07086 0.49862 0.41553 0.0
H1157 H 0.09529 0.48046 0.40269 0.0
H1158 H 0.10864 0.45874 0.33902 0.0
H1159 H 0.10314 0.45693 0.37177 0.0
H1160 H 0.01362 0.54378 0.32699 0.0
H1161 H 0.0129 0.54702 0.36028 0.0
H1162 H 0.03953 0.53937 0.29791 0.0
H1163 H 0.05886 0.51608 0.28441 0.0
C1164 C 0.78397 0.7195 0.89887 0.0
C1165 C 0.80765 0.73267 0.90463 0.0
C1166 C 0.81993 0.69919 0.93466 0.0
C1167 C 0.79583 0.68655 0.92962 0.0
N1168 N 0.75295 0.68674 0.91116 0.0
N1169 N 0.84629 0.73796 0.93065 0.0
C1170 C 0.77725 0.69733 0.91294 0.0
C1171 C 0.82505 0.72342 0.92342 0.0
N1172 N 0.76829 0.72776 0.8794 0.0
N1173 N 0.8383 0.68746 0.94924 0.0
H1174 H 0.8508 0.75556 0.92235 0.0
H1175 H 0.85835 0.73366 0.94612 0.0
H1176 H 0.8352 0.66978 0.95794 0.0
H1177 H 0.85722 0.69424 0.95126 0.0
H1178 H 0.75239 0.71725 0.87218 0.0
H1179 H 0.77205 0.74442 0.86915 0.0
H1180 H 0.73771 0.69526 0.9015 0.0
H1181 H 0.74738 0.67046 0.92124 0.0
C1182 C 0.97122 0.99554 0.33787 0.0
C1183 C 0.97343 0.01449 0.35783 0.0
C1184 C 0.93561 0.03596 0.34035 0.0
C1185 C 0.931 0.01476 0.32315 0.0
N1186 N 0.94308 0.9729 0.307 0.0
N1187 N 0.95667 0.05172 0.37971 0.0
C1188 C 0.94863 0.99428 0.32199 0.0
C1189 C 0.95549 0.03462 0.35939 0.0
N1190 N 0.99083 0.97886 0.33406 0.0
N1191 N 0.92125 0.05757 0.33812 0.0
H1192 H 0.97107 0.05154 0.39396 0.0
H1193 H 0.94234 0.06489 0.38349 0.0
H1194 H 0.90685 0.05934 0.32402 0.0
H1195 H 0.92529 0.0746 0.34845 0.0
H1196 H 0.99152 0.96627 0.31827 0.0
H1197 H 0.00762 0.97931 0.34541 0.0
H1198 H 0.95371 0.95616 0.30774 0.0
H1199 H 0.92666 0.971 0.29523 0.0
C1200 C 0.25492 0.18962 0.59548 0.0
C1201 C 0.27142 0.18961 0.61756 0.0
C1202 C 0.29755 0.15646 0.59733 0.0
C1203 C 0.27968 0.15486 0.5763 0.0
N1204 N 0.23841 0.16587 0.558 0.0
N1205 N 0.30577 0.17019 0.64163 0.0
C1206 C 0.25751 0.17031 0.5761 0.0
C1207 C 0.29198 0.17217 0.61913 0.0
N1208 N 0.2373 0.20859 0.59259 0.0
N1209 N 0.32039 0.14397 0.596 0.0
H1210 H 0.30229 0.1815 0.65793 0.0
H1211 H 0.31915 0.1559 0.64483 0.0
H1212 H 0.32544 0.13264 0.58021 0.0
H1213 H 0.3353 0.14667 0.60952 0.0
H1214 H 0.22674 0.21114 0.57564 0.0
H1215 H 0.2349 0.22328 0.60623 0.0
H1216 H 0.22063 0.17473 0.55856 0.0
H1217 H 0.23923 0.15141 0.54386 0.0
C1218 C 0.43434 0.53828 0.65423 0.0
C1219 C 0.43493 0.5192 0.63436 0.0
C1220 C 0.39837 0.49644 0.65344 0.0
C1221 C 0.39646 0.51665 0.67205 0.0
N1222 N 0.40906 0.55953 0.68663 0.0
N1223 N 0.41445 0.48297 0.61198 0.0
C1224 C 0.41345 0.53837 0.67143 0.0
C1225 C 0.416 0.49912 0.63304 0.0
N1226 N 0.45422 0.55577 0.65727 0.0
N1227 N 0.38435 0.47412 0.65594 0.0
H1228 H 0.42694 0.4844 0.59661 0.0
H1229 H 0.39938 0.46972 0.60867 0.0
H1230 H 0.37163 0.47108 0.67087 0.0
H1231 H 0.38707 0.45771 0.64459 0.0
H1232 H 0.45623 0.5683 0.67309 0.0
H1233 H 0.46999 0.55627 0.6452 0.0
H1234 H 0.41921 0.5769 0.68508 0.0
H1235 H 0.39356 0.56065 0.69899 0.0
C1236 C 0.73326 0.31465 0.61203 0.0
C1237 C 0.75663 0.30433 0.62153 0.0
C1238 C 0.77942 0.32407 0.58614 0.0
C1239 C 0.75565 0.32999 0.57401 0.0
N1240 N 0.70913 0.32756 0.57427 0.0
N1241 N 0.80106 0.2942 0.61346 0.0
C1242 C 0.73225 0.32458 0.58668 0.0
C1243 C 0.77952 0.30768 0.60748 0.0
N1244 N 0.71225 0.31554 0.62733 0.0
N1245 N 0.80196 0.33461 0.57775 0.0
H1246 H 0.80165 0.28047 0.62779 0.0
H1247 H 0.81738 0.29449 0.60213 0.0
H1248 H 0.80262 0.34808 0.56315 0.0
H1249 H 0.81951 0.3324 0.58743 0.0
H1250 H 0.69549 0.32499 0.62217 0.0
H1251 H 0.71255 0.30915 0.64622 0.0
H1252 H 0.69172 0.32135 0.58182 0.0
H1253 H 0.70744 0.334 0.55549 0.0
C1254 C 0.55463 0.9376 0.67743 0.0
C1255 C 0.56987 0.94298 0.65584 0.0
C1256 C 0.60708 0.95253 0.68432 0.0
C1257 C 0.59089 0.95045 0.70586 0.0
N1258 N 0.54795 0.94613 0.72256 0.0
N1259 N 0.60974 0.95846 0.63831 0.0
C1260 C 0.56431 0.94421 0.70237 0.0
C1261 C 0.59594 0.95116 0.65912 0.0
N1262 N 0.53097 0.92591 0.67408 0.0
N1263 N 0.63314 0.95499 0.68791 0.0
H1264 H 0.6023 0.95738 0.61953 0.0
H1265 H 0.62786 0.96736 0.63982 0.0
H1266 H 0.64202 0.95562 0.70609 0.0
H1267 H 0.6461 0.95403 0.67294 0.0
H1268 H 0.52015 0.91916 0.68928 0.0
H1269 H 0.52325 0.92064 0.65601 0.0
H1270 H 0.52802 0.94446 0.72041 0.0
H1271 H 0.55389 0.95205 0.74104 0.0
C1272 C 0.89769 0.2022 0.78101 0.0
C1273 C 0.87602 0.20918 0.79553 0.0
C1274 C 0.90436 0.22317 0.83161 0.0
C1275 C 0.92585 0.21996 0.81559 0.0
N1276 N 0.94383 0.20636 0.7754 0.0
N1277 N 0.858 0.22672 0.83426 0.0
C1278 C 0.92277 0.20915 0.79046 0.0
C1279 C 0.87913 0.2194 0.82093 0.0
N1280 N 0.89415 0.18872 0.75832 0.0
N1281 N 0.90817 0.23008 0.85693 0.0
H1282 H 0.83922 0.22376 0.82723 0.0
H1283 H 0.85897 0.23706 0.8516 0.0
H1284 H 0.92642 0.2335 0.86515 0.0
H1285 H 0.89357 0.23041 0.87031 0.0
H1286 H 0.90908 0.18094 0.74788 0.0
H1287 H 0.87597 0.18346 0.75088 0.0
H1288 H 0.94277 0.20163 0.75587 0.0
H1289 H 0.96259 0.20989 0.7823 0.0
C1290 C 0.51542 0.85515 0.42742 0.0
C1291 C 0.49672 0.85202 0.44664 0.0
C1292 C 0.48116 0.81172 0.426 0.0
C1293 C 0.50036 0.81448 0.40718 0.0
N1294 N 0.53923 0.83533 0.39295 0.0
N1295 N 0.46536 0.82537 0.46758 0.0
C1296 C 0.51856 0.83518 0.40879 0.0
C1297 C 0.48074 0.8296 0.44701 0.0
N1298 N 0.52955 0.87759 0.42647 0.0
N1299 N 0.46251 0.79287 0.42307 0.0
H1300 H 0.46437 0.8383 0.48311 0.0
H1301 H 0.45527 0.80817 0.47033 0.0
H1302 H 0.4621 0.77938 0.40796 0.0
H1303 H 0.44633 0.79172 0.43448 0.0
H1304 H 0.54124 0.88232 0.41117 0.0
H1305 H 0.52831 0.89238 0.4402 0.0
H1306 H 0.55456 0.84847 0.39488 0.0
H1307 H 0.54227 0.82081 0.37927 0.0
C1308 C 0.08326 0.24506 0.75869 0.0
C1309 C 0.10737 0.24771 0.77184 0.0
C1310 C 0.08562 0.25008 0.81319 0.0
C1311 C 0.0616 0.24608 0.80009 0.0
N1312 N 0.03801 0.23356 0.7613 0.0
N1313 N 0.13204 0.24707 0.81157 0.0
C1314 C 0.06058 0.24164 0.77308 0.0
C1315 C 0.10871 0.24842 0.79912 0.0
N1316 N 0.08187 0.24693 0.73251 0.0
N1317 N 0.0864 0.25687 0.83873 0.0
H1318 H 0.14935 0.24584 0.80187 0.0
H1319 H 0.13406 0.24481 0.83136 0.0
H1320 H 0.06998 0.25848 0.84976 0.0
H1321 H 0.10317 0.26295 0.84852 0.0
H1322 H 0.06458 0.24804 0.72218 0.0
H1323 H 0.09802 0.2496 0.72122 0.0
H1324 H 0.03664 0.22756 0.74209 0.0
H1325 H 0.02113 0.23035 0.77138 0.0
C1326 C 0.49621 0.63852 0.42952 0.0
C1327 C 0.51217 0.64237 0.45179 0.0
C1328 C 0.52238 0.68654 0.43891 0.0
C1329 C 0.50684 0.68249 0.41638 0.0
N1330 N 0.48308 0.65362 0.38746 0.0
N1331 N 0.5439 0.66791 0.4758 0.0
C1332 C 0.49495 0.65814 0.41088 0.0
C1333 C 0.52642 0.66573 0.45584 0.0
N1334 N 0.48176 0.61633 0.42656 0.0
N1335 N 0.5322 0.71062 0.44476 0.0
H1336 H 0.54678 0.65333 0.489 0.0
H1337 H 0.55691 0.68329 0.47826 0.0
H1338 H 0.52993 0.72624 0.4327 0.0
H1339 H 0.54113 0.71564 0.46229 0.0
H1340 H 0.4674 0.61356 0.41249 0.0
H1341 H 0.48307 0.60103 0.43918 0.0
H1342 H 0.47628 0.63558 0.3811 0.0
H1343 H 0.48192 0.66755 0.37333 0.0
C1344 C 0.88441 0.75918 0.68183 0.0
C1345 C 0.87319 0.78301 0.68816 0.0
C1346 C 0.89225 0.80219 0.65053 0.0
C1347 C 0.90853 0.78073 0.64818 0.0
N1348 N 0.91768 0.73673 0.65916 0.0
N1349 N 0.85017 0.81441 0.66391 0.0
C1350 C 0.9038 0.75846 0.66299 0.0
C1351 C 0.87217 0.80129 0.6684 0.0
N1352 N 0.87397 0.73703 0.69114 0.0
N1353 N 0.89623 0.82375 0.63645 0.0
H1354 H 0.83331 0.81003 0.67366 0.0
H1355 H 0.84774 0.82639 0.64823 0.0
H1356 H 0.91116 0.82565 0.6235 0.0
H1357 H 0.88586 0.84048 0.63945 0.0
H1358 H 0.87959 0.71869 0.68546 0.0
H1359 H 0.85741 0.73724 0.70217 0.0
H1360 H 0.91714 0.72123 0.67155 0.0
H1361 H 0.93052 0.73455 0.64416 0.0
C1362 C 0.00701 0.88503 0.56216 0.0
C1363 C 0.0235 0.88064 0.54123 0.0
C1364 C 0.0256 0.83498 0.55172 0.0
C1365 C 0.00578 0.83867 0.56962 0.0
N1366 N 0.97776 0.86661 0.59295 0.0
N1367 N 0.04888 0.85199 0.5156 0.0
C1368 C 0.99678 0.86362 0.57543 0.0
C1369 C 0.03332 0.85583 0.53615 0.0
N1370 N 0.0013 0.90969 0.56926 0.0
N1371 N 0.03674 0.81146 0.54951 0.0
H1372 H 0.05544 0.86695 0.50419 0.0
H1373 H 0.05425 0.83392 0.50893 0.0
H1374 H 0.03115 0.79579 0.56047 0.0
H1375 H 0.05286 0.80799 0.53853 0.0
H1376 H 0.99121 0.91448 0.58569 0.0
H1377 H 0.00856 0.92571 0.55978 0.0
H1378 H 0.96805 0.88369 0.5959 0.0
H1379 H 0.97088 0.85147 0.60397 0.0
C1380 C 0.06374 0.76129 0.71021 0.0
C1381 C 0.08283 0.74254 0.70677 0.0
C1382 C 0.06453 0.7326 0.66386 0.0
C1383 C 0.0509 0.75603 0.66492 0.0
N1384 N 0.03743 0.793 0.6899 0.0
N1385 N 0.0834 0.69935 0.68948 0.0
C1386 C 0.0502 0.77034 0.68841 0.0
C1387 C 0.0785 0.72474 0.68604 0.0
N1388 N 0.05569 0.76733 0.73433 0.0
N1389 N 0.06389 0.7176 0.642 0.0
H1390 H 0.08882 0.69247 0.70749 0.0
H1391 H 0.07847 0.68493 0.67596 0.0
H1392 H 0.0523 0.72142 0.62599 0.0
H1393 H 0.0759 0.70198 0.63946 0.0
H1394 H 0.04012 0.77917 0.73777 0.0
H1395 H 0.06235 0.75751 0.75039 0.0
H1396 H 0.03854 0.80503 0.70619 0.0
H1397 H 0.0277 0.80082 0.67425 0.0
C1398 C 0.9752 0.67407 0.52806 0.0
C1399 C 0.97545 0.65263 0.54456 0.0
C1400 C 0.97573 0.68164 0.58218 0.0
C1401 C 0.97724 0.70304 0.56563 0.0
N1402 N 0.98624 0.71912 0.52349 0.0
N1403 N 0.98282 0.63605 0.587 0.0
C1404 C 0.97953 0.69907 0.53875 0.0
C1405 C 0.978 0.65644 0.57156 0.0
N1406 N 0.96937 0.67084 0.50243 0.0
N1407 N 0.97041 0.68504 0.60764 0.0
H1408 H 0.98489 0.61736 0.57975 0.0
H1409 H 0.9873 0.63814 0.60656 0.0
H1410 H 0.96755 0.70298 0.61625 0.0
H1411 H 0.96639 0.6698 0.61974 0.0
H1412 H 0.96638 0.68622 0.49024 0.0
H1413 H 0.96492 0.653 0.49379 0.0
H1414 H 0.99044 0.71675 0.50409 0.0
H1415 H 0.9904 0.7376 0.53085 0.0
C1416 C 0.80199 0.9031 0.26529 0.0
C1417 C 0.8017 0.8945 0.23929 0.0
C1418 C 0.83451 0.92773 0.23079 0.0
C1419 C 0.83031 0.93947 0.25533 0.0
N1420 N 0.80138 0.94141 0.29153 0.0
N1421 N 0.81447 0.90293 0.19568 0.0
C1422 C 0.81166 0.92804 0.27148 0.0
C1423 C 0.8171 0.90796 0.22146 0.0
N1424 N 0.79297 0.88765 0.28417 0.0
N1425 N 0.85541 0.93445 0.21675 0.0
H1426 H 0.80097 0.88973 0.18788 0.0
H1427 H 0.82381 0.91395 0.18202 0.0
H1428 H 0.86991 0.94704 0.22365 0.0
H1429 H 0.85993 0.92493 0.19965 0.0
H1430 H 0.7944 0.89296 0.30361 0.0
H1431 H 0.787 0.86859 0.28061 0.0
H1432 H 0.78665 0.93373 0.30255 0.0
H1433 H 0.80439 0.96112 0.2946 0.0
C1434 C 0.79949 0.10612 0.24463 0.0
C1435 C 0.78573 0.11468 0.26641 0.0
C1436 C 0.80895 0.08398 0.29276 0.0
C1437 C 0.81919 0.07236 0.27033 0.0
N1438 N 0.8189 0.06967 0.22373 0.0
N1439 N 0.77275 0.1063 0.30994 0.0
C1440 C 0.81309 0.08269 0.24586 0.0
C1441 C 0.78909 0.10203 0.29014 0.0
N1442 N 0.80027 0.12062 0.22304 0.0
N1443 N 0.81885 0.07878 0.31658 0.0
H1444 H 0.75681 0.11807 0.3084 0.0
H1445 H 0.77334 0.09576 0.32679 0.0
H1446 H 0.83492 0.06741 0.31939 0.0
H1447 H 0.81317 0.08848 0.3332 0.0
H1448 H 0.81197 0.11625 0.20758 0.0
H1449 H 0.79147 0.13841 0.22174 0.0
H1450 H 0.81268 0.07549 0.20561 0.0
H1451 H 0.82721 0.05161 0.22348 0.0
C1452 C 0.35925 0.92594 0.01303 0.0
C1453 C 0.35572 0.94412 0.99335 0.0
C1454 C 0.31313 0.92533 0.98271 0.0
C1455 C 0.31612 0.90795 0.00323 0.0
N1456 N 0.33916 0.89564 0.04163 0.0
N1457 N 0.32744 0.96508 0.96343 0.0
C1458 C 0.33835 0.90946 0.01954 0.0
C1459 C 0.33202 0.94507 0.97946 0.0
N1460 N 0.38284 0.92369 0.02477 0.0
N1461 N 0.29308 0.92212 0.96544 0.0
H1462 H 0.34087 0.9799 0.96061 0.0
H1463 H 0.30955 0.96826 0.95482 0.0
H1464 H 0.27897 0.9077 0.96682 0.0
H1465 H 0.2916 0.93236 0.94848 0.0
H1466 H 0.38734 0.90883 0.03711 0.0
H1467 H 0.39863 0.9355 0.02065 0.0
H1468 H 0.35374 0.89787 0.05557 0.0
H1469 H 0.32396 0.88375 0.04727 0.0
C1470 C 0.20396 0.39008 0.25966 0.0
C1471 C 0.21022 0.3815 0.28476 0.0
C1472 C 0.17107 0.40031 0.30088 0.0
C1473 C 0.1674 0.41304 0.27728 0.0
N1474 N 0.17956 0.41897 0.23308 0.0
N1475 N 0.18593 0.36067 0.31771 0.0
C1476 C 0.1836 0.40762 0.25626 0.0
C1477 C 0.19014 0.38148 0.30274 0.0
N1478 N 0.2149 0.37852 0.23889 0.0
N1479 N 0.15653 0.4061 0.32169 0.0
H1480 H 0.19516 0.34334 0.3142 0.0
H1481 H 0.17025 0.35911 0.32982 0.0
H1482 H 0.14266 0.42033 0.32152 0.0
H1483 H 0.16014 0.3983 0.33971 0.0
H1484 H 0.20954 0.38205 0.21991 0.0
H1485 H 0.2269 0.36279 0.24088 0.0
H1486 H 0.1927 0.41816 0.21825 0.0
H1487 H 0.16379 0.43039 0.22907 0.0
C1488 C 0.19073 0.05231 0.45508 0.0
C1489 C 0.17723 0.04924 0.47829 0.0
C1490 C 0.21356 0.06954 0.50222 0.0
C1491 C 0.2256 0.07532 0.47866 0.0
N1492 N 0.22072 0.07919 0.43251 0.0
N1493 N 0.1731 0.06146 0.52305 0.0
C1494 C 0.2127 0.06885 0.455 0.0
C1495 C 0.18778 0.05993 0.50162 0.0
N1496 N 0.1835 0.03859 0.43334 0.0
N1497 N 0.22694 0.07168 0.52508 0.0
H1498 H 0.15382 0.05549 0.52311 0.0
H1499 H 0.17928 0.07119 0.53985 0.0
H1500 H 0.24637 0.07689 0.52651 0.0
H1501 H 0.21946 0.06538 0.54236 0.0
H1502 H 0.19433 0.03866 0.41669 0.0
H1503 H 0.16848 0.02498 0.4328 0.0
H1504 H 0.2105 0.07653 0.41517 0.0
H1505 H 0.23558 0.09292 0.43175 0.0
C1506 C 0.67375 0.08825 0.71345 0.0
C1507 C 0.66945 0.11213 0.72613 0.0
C1508 C 0.63691 0.09193 0.75302 0.0
C1509 C 0.64084 0.06814 0.73998 0.0
N1510 N 0.65842 0.04456 0.7043 0.0
N1511 N 0.64393 0.13826 0.75414 0.0
C1512 C 0.65791 0.06658 0.71911 0.0
C1513 C 0.64997 0.11446 0.74465 0.0
N1514 N 0.69348 0.08613 0.69661 0.0
N1515 N 0.62184 0.09273 0.77426 0.0
H1516 H 0.65353 0.1551 0.74881 0.0
H1517 H 0.62814 0.14163 0.76562 0.0
H1518 H 0.61188 0.07667 0.78096 0.0
H1519 H 0.6206 0.1088 0.78639 0.0
H1520 H 0.69963 0.06864 0.68912 0.0
H1521 H 0.70487 0.10182 0.69125 0.0
H1522 H 0.66852 0.04301 0.68729 0.0
H1523 H 0.64683 0.02842 0.70776 0.0
C1524 C 0.40519 0.06758 0.51834 0.0
C1525 C 0.39964 0.04601 0.53369 0.0
C1526 C 0.35388 0.0564 0.53332 0.0
C1527 C 0.35897 0.07562 0.515 0.0
N1528 N 0.38883 0.10064 0.49039 0.0
N1529 N 0.36946 0.01931 0.55614 0.0
C1530 C 0.38453 0.08173 0.50781 0.0
C1531 C 0.37422 0.04049 0.54164 0.0
N1532 N 0.43024 0.07446 0.51401 0.0
N1533 N 0.32957 0.05325 0.54249 0.0
H1534 H 0.38404 0.00783 0.56339 0.0
H1535 H 0.35111 0.01225 0.56004 0.0
H1536 H 0.314 0.06389 0.53609 0.0
H1537 H 0.32503 0.04143 0.55773 0.0
H1538 H 0.43587 0.09127 0.50496 0.0
H1539 H 0.44576 0.0642 0.5212 0.0
H1540 H 0.40645 0.10411 0.48185 0.0
H1541 H 0.37433 0.11252 0.48366 0.0
C1542 C 0.62675 0.43235 0.50165 0.0
C1543 C 0.62872 0.45195 0.521 0.0
C1544 C 0.66828 0.43297 0.53797 0.0
C1545 C 0.66774 0.41503 0.51699 0.0
N1546 N 0.64885 0.40036 0.47638 0.0
N1547 N 0.65285 0.47322 0.55562 0.0
C1548 C 0.64755 0.41536 0.4982 0.0
C1549 C 0.6499 0.45289 0.53867 0.0
N1550 N 0.60475 0.42966 0.4869 0.0
N1551 N 0.68573 0.43037 0.55772 0.0
H1552 H 0.6396 0.48795 0.55697 0.0
H1553 H 0.66937 0.47655 0.56696 0.0
H1554 H 0.69927 0.41584 0.55805 0.0
H1555 H 0.68535 0.44111 0.57481 0.0
H1556 H 0.60101 0.41406 0.47442 0.0
H1557 H 0.58917 0.44184 0.48878 0.0
H1558 H 0.63619 0.40187 0.46073 0.0
H1559 H 0.66398 0.38802 0.4728 0.0
C1560 C 0.72896 0.32633 0.3892 0.0
C1561 C 0.71649 0.30182 0.38991 0.0
C1562 C 0.71178 0.30623 0.43656 0.0
C1563 C 0.72556 0.33 0.436 0.0
N1564 N 0.74131 0.36601 0.41223 0.0
N1565 N 0.69025 0.27128 0.41235 0.0
C1566 C 0.73201 0.34122 0.41234 0.0
C1567 C 0.70588 0.29276 0.41303 0.0
N1568 N 0.73907 0.33468 0.36669 0.0
N1569 N 0.70542 0.29612 0.4597 0.0
H1570 H 0.68573 0.26105 0.39533 0.0
H1571 H 0.68012 0.26474 0.42806 0.0
H1572 H 0.70838 0.30625 0.47708 0.0
H1573 H 0.69814 0.27751 0.46188 0.0
H1574 H 0.75096 0.35092 0.36538 0.0
H1575 H 0.73657 0.32455 0.34927 0.0
H1576 H 0.74448 0.37625 0.39556 0.0
H1577 H 0.74376 0.37716 0.42904 0.0
C1578 C 0.55757 0.00966 0.87433 0.0
C1579 C 0.53529 0.02293 0.86638 0.0
C1580 C 0.54636 0.01669 0.82116 0.0
C1581 C 0.56897 0.00407 0.82923 0.0
N1582 N 0.59919 0.99329 0.86289 0.0
N1583 N 0.51022 0.04295 0.83317 0.0
C1584 C 0.57551 0.00199 0.85568 0.0
C1585 C 0.53024 0.02769 0.84002 0.0
N1586 N 0.56113 0.00365 0.89964 0.0
N1587 N 0.53987 0.01724 0.79557 0.0
H1588 H 0.49778 0.05083 0.84655 0.0
H1589 H 0.50697 0.04934 0.81457 0.0
H1590 H 0.55158 0.00987 0.78126 0.0
H1591 H 0.52228 0.02357 0.78852 0.0
H1592 H 0.57528 0.99132 0.90615 0.0
H1593 H 0.5488 0.00949 0.9141 0.0
H1594 H 0.60622 0.9939 0.88178 0.0
H1595 H 0.61289 0.98756 0.84967 0.0
C1596 C 0.29464 0.20012 0.39878 0.0
C1597 C 0.31403 0.21865 0.40593 0.0
C1598 C 0.32948 0.1909 0.44021 0.0
C1599 C 0.30872 0.17343 0.43445 0.0
N1600 N 0.26884 0.16338 0.41148 0.0
N1601 N 0.34789 0.23375 0.43507 0.0
C1602 C 0.29057 0.17852 0.41456 0.0
C1603 C 0.3309 0.21465 0.42715 0.0
N1604 N 0.28049 0.20286 0.37657 0.0
N1605 N 0.34835 0.18433 0.45743 0.0
H1606 H 0.34976 0.25116 0.42556 0.0
H1607 H 0.35875 0.23319 0.45208 0.0
H1608 H 0.34804 0.16701 0.46723 0.0
H1609 H 0.36535 0.19498 0.46047 0.0
H1610 H 0.2682 0.18852 0.36882 0.0
H1611 H 0.28253 0.21866 0.36466 0.0
H1612 H 0.25354 0.16784 0.39924 0.0
H1613 H 0.26495 0.14751 0.42285 0.0
C1614 C 0.46 0.49159 0.82719 0.0
C1615 C 0.46348 0.5098 0.8477 0.0
C1616 C 0.42593 0.53313 0.83224 0.0
C1617 C 0.42015 0.51277 0.81437 0.0
N1618 N 0.43032 0.47118 0.79619 0.0
N1619 N 0.44837 0.54659 0.87162 0.0
C1620 C 0.43699 0.49173 0.81192 0.0
C1621 C 0.44621 0.53039 0.85062 0.0
N1622 N 0.47884 0.47434 0.8222 0.0
N1623 N 0.41229 0.55531 0.83127 0.0
H1624 H 0.46294 0.54529 0.88559 0.0
H1625 H 0.43456 0.56004 0.87631 0.0
H1626 H 0.3976 0.55809 0.81769 0.0
H1627 H 0.4172 0.57181 0.84211 0.0
H1628 H 0.47864 0.46227 0.80598 0.0
H1629 H 0.49589 0.47373 0.83309 0.0
H1630 H 0.44031 0.45402 0.79594 0.0
H1631 H 0.41365 0.47042 0.78471 0.0
C1632 C 0.74813 0.69608 0.08676 0.0
C1633 C 0.76448 0.69493 0.10887 0.0
C1634 C 0.78772 0.65938 0.08895 0.0
C1635 C 0.76991 0.65911 0.06786 0.0
N1636 N 0.72971 0.67329 0.04955 0.0
N1637 N 0.79681 0.67273 0.13322 0.0
C1638 C 0.74911 0.67636 0.06757 0.0
C1639 C 0.78341 0.67574 0.11063 0.0
N1640 N 0.73224 0.71648 0.08365 0.0
N1641 N 0.80938 0.64497 0.08781 0.0
H1642 H 0.7942 0.68441 0.14946 0.0
H1643 H 0.80885 0.65733 0.13656 0.0
H1644 H 0.81347 0.63303 0.07215 0.0
H1645 H 0.82439 0.64654 0.10135 0.0
H1646 H 0.72197 0.71972 0.06665 0.0
H1647 H 0.7311 0.73153 0.09712 0.0
H1648 H 0.71278 0.68364 0.05004 0.0
H1649 H 0.72927 0.65856 0.03562 0.0
C1650 C 0.94261 0.03854 0.15948 0.0
C1651 C 0.94248 0.01899 0.14004 0.0
C1652 C 0.90687 0.99659 0.16105 0.0
C1653 C 0.90573 0.01714 0.17939 0.0
N1654 N 0.91878 0.06024 0.19276 0.0
N1655 N 0.92132 0.98225 0.11923 0.0
C1656 C 0.92255 0.03888 0.17765 0.0
C1657 C 0.92362 0.99886 0.13989 0.0
N1658 N 0.96239 0.05628 0.16116 0.0
N1659 N 0.89301 0.97433 0.16451 0.0
H1660 H 0.93321 0.98334 0.10336 0.0
H1661 H 0.90619 0.96892 0.11676 0.0
H1662 H 0.88088 0.9716 0.17996 0.0
H1663 H 0.89531 0.9577 0.15337 0.0
H1664 H 0.96504 0.06919 0.1766 0.0
H1665 H 0.97747 0.05669 0.14824 0.0
H1666 H 0.92874 0.07762 0.19051 0.0
H1667 H 0.90392 0.06146 0.20586 0.0
C1668 C 0.2796 0.79736 0.11792 0.0
C1669 C 0.25655 0.7929 0.13142 0.0
C1670 C 0.23213 0.8129 0.09642 0.0
C1671 C 0.25561 0.81954 0.08442 0.0
N1672 N 0.30172 0.82546 0.08899 0.0
N1673 N 0.21147 0.80169 0.1362 0.0
C1674 C 0.27936 0.8141 0.09685 0.0
C1675 C 0.23293 0.80229 0.12151 0.0
N1676 N 0.30154 0.78467 0.12426 0.0
N1677 N 0.20918 0.81546 0.08357 0.0
H1678 H 0.21152 0.7946 0.15483 0.0
H1679 H 0.1944 0.81048 0.13087 0.0
H1680 H 0.20771 0.82259 0.06503 0.0
H1681 H 0.1918 0.80838 0.09045 0.0
H1682 H 0.3181 0.7857 0.11333 0.0
H1683 H 0.30233 0.77085 0.13851 0.0
H1684 H 0.31919 0.82367 0.09893 0.0
H1685 H 0.30222 0.8391 0.07454 0.0
C1686 C 0.07126 0.45109 0.14752 0.0
C1687 C 0.04424 0.44738 0.14484 0.0
C1688 C 0.03996 0.45149 0.19146 0.0
C1689 C 0.06715 0.4518 0.19434 0.0
N1690 N 0.10884 0.44708 0.17519 0.0
N1691 N 0.00319 0.43926 0.16442 0.0
C1692 C 0.08292 0.4504 0.1724 0.0
C1693 C 0.02863 0.44626 0.16686 0.0
N1694 N 0.08569 0.45588 0.12641 0.0
N1695 N 0.02497 0.45713 0.21203 0.0
H1696 H 0.99419 0.43473 0.14675 0.0
H1697 H 0.99164 0.43554 0.1801 0.0
H1698 H 0.03259 0.46192 0.23025 0.0
H1699 H 0.00519 0.4597 0.2104 0.0
H1700 H 0.10507 0.46138 0.1276 0.0
H1701 H 0.07777 0.45673 0.10786 0.0
H1702 H 0.12073 0.44322 0.15977 0.0
H1703 H 0.11816 0.44564 0.19302 0.0
C1704 C 0.38652 0.72243 0.33025 0.0
C1705 C 0.38388 0.71065 0.30548 0.0
C1706 C 0.4305 0.71356 0.29979 0.0
C1707 C 0.43303 0.72603 0.32421 0.0
N1708 N 0.41525 0.73714 0.36521 0.0
N1709 N 0.403 0.68955 0.26914 0.0
C1710 C 0.41156 0.72863 0.34033 0.0
C1711 C 0.40584 0.70438 0.29107 0.0
N1712 N 0.36504 0.72876 0.34352 0.0
N1713 N 0.45156 0.71144 0.28463 0.0
H1714 H 0.38513 0.68273 0.26216 0.0
H1715 H 0.41834 0.68225 0.25895 0.0
H1716 H 0.47009 0.7168 0.29104 0.0
H1717 H 0.45065 0.70546 0.26541 0.0
H1718 H 0.36543 0.74001 0.36029 0.0
H1719 H 0.34644 0.72388 0.33697 0.0
H1720 H 0.40081 0.73734 0.37877 0.0
H1721 H 0.4334 0.74206 0.37295 0.0
C1722 C 0.00469 0.34577 0.92153 0.0
C1723 C 0.9836 0.3439 0.93832 0.0
C1724 C 0.96995 0.30273 0.91813 0.0
C1725 C 0.99125 0.30447 0.90157 0.0
N1726 N 0.03204 0.32396 0.89119 0.0
N1727 N 0.9495 0.31864 0.95668 0.0
C1728 C 0.00963 0.32488 0.90446 0.0
C1729 C 0.96731 0.32167 0.93794 0.0
N1730 N 0.01935 0.36791 0.92122 0.0
N1731 N 0.95155 0.28383 0.91405 0.0
H1732 H 0.94688 0.33236 0.97127 0.0
H1733 H 0.93882 0.30172 0.95907 0.0
H1734 H 0.95293 0.2694 0.89997 0.0
H1735 H 0.93406 0.28336 0.92345 0.0
H1736 H 0.03304 0.37165 0.90738 0.0
H1737 H 0.01668 0.38344 0.93382 0.0
H1738 H 0.04737 0.33693 0.89426 0.0
H1739 H 0.0363 0.30872 0.87873 0.0
C1740 C 0.59548 0.78326 0.2739 0.0
C1741 C 0.61113 0.7613 0.27216 0.0
C1742 C 0.58017 0.73763 0.29825 0.0
C1743 C 0.56672 0.76075 0.30295 0.0
N1744 N 0.5679 0.80735 0.3016 0.0
N1745 N 0.62134 0.71937 0.28845 0.0
C1746 C 0.57623 0.78414 0.29267 0.0
C1747 C 0.6044 0.73895 0.28606 0.0
N1748 N 0.59823 0.80297 0.25711 0.0
N1749 N 0.5695 0.7143 0.30413 0.0
H1750 H 0.63972 0.72006 0.28083 0.0
H1751 H 0.61811 0.70377 0.30034 0.0
H1752 H 0.55115 0.71213 0.31157 0.0
H1753 H 0.57774 0.69691 0.29885 0.0
H1754 H 0.58569 0.81837 0.25656 0.0
H1755 H 0.61097 0.80245 0.24189 0.0
H1756 H 0.57593 0.82482 0.29586 0.0
H1757 H 0.55559 0.80916 0.31708 0.0
C1758 C 0.99275 0.12662 0.92561 0.0
C1759 C 0.00878 0.13226 0.94749 0.0
C1760 C 0.01491 0.17674 0.93345 0.0
C1761 C -0.00053 0.1709 0.91117 0.0
N1762 N 0.97799 0.13938 0.88325 0.0
N1763 N 0.03897 0.16073 0.97011 0.0
C1764 C 0.98963 0.14554 0.90644 0.0
C1765 C 0.02115 0.15672 0.95067 0.0
N1766 N 0.97995 0.10339 0.92354 0.0
N1767 N 0.02243 0.20166 0.9389 0.0
H1768 H 0.04357 0.14667 0.98338 0.0
H1769 H 0.05071 0.17717 0.97189 0.0
H1770 H 0.01822 0.21688 0.92686 0.0
H1771 H 0.03113 0.20767 0.95626 0.0
H1772 H 0.96557 0.0992 0.90979 0.0
H1773 H 0.98261 0.08866 0.93661 0.0
H1774 H 0.97274 0.12068 0.87748 0.0
H1775 H 0.97556 0.15272 0.8687 0.0
C1776 C 0.40614 0.26017 0.19503 0.0
C1777 C 0.392 0.28276 0.19976 0.0
C1778 C 0.4068 0.3005 0.15954 0.0
C1779 C 0.42523 0.28086 0.15776 0.0
N1780 N 0.44072 0.23985 0.1724 0.0
N1781 N 0.36393 0.30812 0.17344 0.0
C1782 C 0.42444 0.25999 0.17508 0.0
C1783 C 0.38778 0.29878 0.17843 0.0
N1784 N 0.39901 0.23785 0.20659 0.0
N1785 N 0.40749 0.32106 0.14362 0.0
H1786 H 0.34799 0.30212 0.18384 0.0
H1787 H 0.35946 0.31815 0.15682 0.0
H1788 H 0.42162 0.32365 0.1299 0.0
H1789 H 0.39529 0.3366 0.14589 0.0
H1790 H 0.40682 0.22004 0.20224 0.0
H1791 H 0.3827 0.23672 0.21792 0.0
H1792 H 0.44314 0.22604 0.18645 0.0
H1793 H 0.45262 0.23741 0.1567 0.0
C1794 C 0.53072 0.35331 0.02621 0.0
C1795 C 0.52035 0.37781 0.03173 0.0
C1796 C 0.49752 0.36048 0.0685 0.0
C1797 C 0.50699 0.33575 0.06232 0.0
N1798 N 0.53666 0.30919 0.03951 0.0
N1799 N 0.49887 0.40644 0.06081 0.0
C1800 C 0.5251 0.33241 0.04261 0.0
C1801 C 0.50539 0.38195 0.05386 0.0
N1802 N 0.545 0.34989 0.00466 0.0
N1803 N 0.48032 0.36315 0.08789 0.0
H1804 H 0.50401 0.42251 0.05021 0.0
H1805 H 0.49007 0.41123 0.07799 0.0
H1806 H 0.47549 0.34815 0.10006 0.0
H1807 H 0.4701 0.3798 0.09144 0.0
H1808 H 0.55071 0.33203 0.99774 0.0
H1809 H 0.55023 0.365 0.9928 0.0
H1810 H 0.55171 0.30597 0.02706 0.0
H1811 H 0.53251 0.29344 0.05095 0.0
C1812 C 0.61147 0.26169 0.16516 0.0
C1813 C 0.60676 0.24437 0.18535 0.0
C1814 C 0.56485 0.23233 0.16578 0.0
C1815 C 0.56823 0.2519 0.14742 0.0
N1816 N 0.59335 0.28731 0.13109 0.0
N1817 N 0.57825 0.21494 0.20672 0.0
C1818 C 0.59127 0.26703 0.14732 0.0
C1819 C 0.58328 0.23007 0.18613 0.0
N1820 N 0.63539 0.27273 0.16287 0.0
N1821 N 0.54447 0.21535 0.16322 0.0
H1822 H 0.59152 0.2123 0.22171 0.0
H1823 H 0.56031 0.20647 0.20992 0.0
H1824 H 0.5308 0.21615 0.14831 0.0
H1825 H 0.54238 0.19906 0.17439 0.0
H1826 H 0.64088 0.28337 0.14706 0.0
H1827 H 0.65054 0.26945 0.17578 0.0
H1828 H 0.60841 0.30083 0.13212 0.0
H1829 H 0.57896 0.29194 0.11781 0.0
C1830 C 0.49205 0.15712 0.05911 0.0
C1831 C 0.46719 0.14686 0.05256 0.0
C1832 C 0.44804 0.18598 0.06948 0.0
C1833 C 0.47276 0.19804 0.07127 0.0
N1834 N 0.51859 0.1957 0.06503 0.0
N1835 N 0.42156 0.15407 0.04684 0.0
C1836 C 0.49497 0.18375 0.06558 0.0
C1837 C 0.44512 0.1619 0.05657 0.0
N1838 N 0.51276 0.14136 0.05952 0.0
N1839 N 0.42741 0.19713 0.08077 0.0
H1840 H 0.41852 0.13718 0.03598 0.0
H1841 H 0.40553 0.16579 0.04722 0.0
H1842 H 0.42898 0.21414 0.09173 0.0
H1843 H 0.40949 0.18788 0.08183 0.0
H1844 H 0.53092 0.14732 0.0664 0.0
H1845 H 0.51114 0.12165 0.05544 0.0
H1846 H 0.53494 0.18664 0.0584 0.0
H1847 H 0.52149 0.21529 0.06899 0.0
C1848 C 0.30315 0.40805 0.71798 0.0
C1849 C 0.28577 0.39694 0.73562 0.0
C1850 C 0.29343 0.434 0.76434 0.0
C1851 C 0.31445 0.44258 0.74938 0.0
N1852 N 0.34292 0.43237 0.71428 0.0
N1853 N 0.27191 0.39617 0.7798 0.0
C1854 C 0.32045 0.42811 0.72679 0.0
C1855 C 0.28332 0.40885 0.76016 0.0
N1856 N 0.30259 0.40044 0.69271 0.0
N1857 N 0.28181 0.45011 0.78139 0.0
H1858 H 0.26601 0.37689 0.77827 0.0
H1859 H 0.27135 0.40401 0.7984 0.0
H1860 H 0.28582 0.46983 0.78258 0.0
H1861 H 0.2655 0.4445 0.79139 0.0
H1862 H 0.3136 0.40961 0.67893 0.0
H1863 H 0.28908 0.38716 0.68506 0.0
H1864 H 0.34855 0.42081 0.69887 0.0
H1865 H 0.35736 0.44504 0.72113 0.0
C1866 C 0.26499 0.59232 0.76023 0.0
C1867 C 0.27563 0.61743 0.75737 0.0
C1868 C 0.31917 0.59997 0.75838 0.0
C1869 C 0.30837 0.57474 0.75984 0.0
N1870 N 0.2711 0.54648 0.75518 0.0
N1871 N 0.31222 0.64473 0.74827 0.0
C1872 C 0.28128 0.5708 0.75862 0.0
C1873 C 0.30257 0.62112 0.75471 0.0
N1874 N 0.23954 0.58902 0.76572 0.0
N1875 N 0.34509 0.60395 0.76183 0.0
H1876 H 0.30057 0.66057 0.74538 0.0
H1877 H 0.33134 0.64803 0.74352 0.0
H1878 H 0.35787 0.58903 0.76471 0.0
H1879 H 0.3537 0.62216 0.76387 0.0
H1880 H 0.23146 0.5714 0.77088 0.0
H1881 H 0.22689 0.60424 0.76743 0.0
H1882 H 0.25159 0.54269 0.75158 0.0
H1883 H 0.28245 0.53026 0.75322 0.0
C1884 C 0.85663 0.4373 0.50769 0.0
C1885 C 0.8556 0.45389 0.48638 0.0
C1886 C 0.81371 0.43521 0.47285 0.0
C1887 C 0.81448 0.41906 0.49453 0.0
N1888 N 0.83319 0.40894 0.53578 0.0
N1889 N 0.83121 0.47291 0.45205 0.0
C1890 C 0.8349 0.42146 0.51297 0.0
C1891 C 0.83344 0.45423 0.47004 0.0
N1892 N 0.87877 0.43587 0.52221 0.0
N1893 N 0.79497 0.43145 0.45425 0.0
H1894 H 0.84543 0.48704 0.44945 0.0
H1895 H 0.81445 0.47581 0.44128 0.0
H1896 H 0.78011 0.41779 0.45561 0.0
H1897 H 0.79513 0.44054 0.43659 0.0
H1898 H 0.88172 0.42197 0.53605 0.0
H1899 H 0.89505 0.44738 0.51918 0.0
H1900 H 0.84622 0.41189 0.55108 0.0
H1901 H 0.81732 0.39743 0.54039 0.0
C1902 C 0.71274 0.9099 0.8174 0.0
C1903 C 0.73579 0.92278 0.81038 0.0
C1904 C 0.71162 0.96225 0.8033 0.0
C1905 C 0.68852 0.94841 0.80906 0.0
N1906 N 0.67158 0.91568 0.83671 0.0
N1907 N 0.75849 0.96292 0.80391 0.0
C1908 C 0.69053 0.92438 0.82112 0.0
C1909 C 0.73567 0.94956 0.80547 0.0
N1910 N 0.71135 0.88369 0.81895 0.0
N1911 N 0.71081 0.98742 0.79643 0.0
H1912 H 0.77628 0.9542 0.80613 0.0
H1913 H 0.75996 0.98284 0.80256 0.0
H1914 H 0.6953 0.99907 0.80052 0.0
H1915 H 0.72595 0.99704 0.78769 0.0
H1916 H 0.6941 0.87375 0.8221 0.0
H1917 H 0.72643 0.87177 0.8141 0.0
H1918 H 0.67316 0.89882 0.84713 0.0
H1919 H 0.65624 0.92721 0.84193 0.0
C1920 C 0.66391 0.58196 0.97708 0.0
C1921 C 0.66333 0.55504 0.97192 0.0
C1922 C 0.71019 0.55547 0.96877 0.0
C1923 C 0.71049 0.58274 0.97057 0.0
N1924 N 0.68745 0.62248 0.97345 0.0
N1925 N 0.6853 0.51679 0.95822 0.0
C1926 C 0.68731 0.5962 0.97408 0.0
C1927 C 0.68631 0.54194 0.96651 0.0
N1928 N 0.64228 0.59378 0.9854 0.0
N1929 N 0.73273 0.54241 0.97019 0.0
H1930 H 0.66815 0.50617 0.95587 0.0
H1931 H 0.70124 0.5072 0.95133 0.0
H1932 H 0.75066 0.55158 0.97274 0.0
H1933 H 0.73344 0.52247 0.97162 0.0
H1934 H 0.64216 0.61282 0.99202 0.0
H1935 H 0.62482 0.58393 0.98774 0.0
H1936 H 0.67077 0.63323 0.97308 0.0
H1937 H 0.70418 0.63354 0.97123 0.0
C1938 C 0.19505 0.57018 0.23077 0.0
C1939 C 0.1866 0.59455 0.23947 0.0
C1940 C 0.15037 0.5739 0.26097 0.0
C1941 C 0.16056 0.54946 0.25487 0.0
N1942 N 0.19433 0.52405 0.23679 0.0
N1943 N 0.15817 0.61993 0.26526 0.0
C1944 C 0.18329 0.54747 0.24035 0.0
C1945 C 0.16473 0.59653 0.25517 0.0
N1946 N 0.2141 0.56882 0.21309 0.0
N1947 N 0.12652 0.5755 0.27142 0.0
H1948 H 0.16787 0.63705 0.26104 0.0
H1949 H 0.14434 0.62217 0.27928 0.0
H1950 H 0.11521 0.55936 0.27558 0.0
H1951 H 0.1169 0.59274 0.27376 0.0
H1952 H 0.2193 0.55176 0.20395 0.0
H1953 H 0.22327 0.58511 0.20586 0.0
H1954 H 0.21238 0.52173 0.22884 0.0
H1955 H 0.1865 0.50699 0.24374 0.0
C1956 C 0.85636 0.53856 0.01573 0.0
C1957 C 0.88178 0.54366 0.00753 0.0
C1958 C 0.86735 0.58117 0.98382 0.0
C1959 C 0.84201 0.57636 0.99243 0.0
N1960 N 0.81249 0.55312 0.01914 0.0
N1961 N 0.91274 0.57126 0.98718 0.0
C1962 C 0.83658 0.55591 0.00931 0.0
C1963 C 0.88766 0.56544 0.99258 0.0
N1964 N 0.85105 0.5166 0.02891 0.0
N1965 N 0.87184 0.60055 0.96695 0.0
H1966 H 0.92801 0.55974 0.9927 0.0
H1967 H 0.91878 0.58826 0.97873 0.0
H1968 H 0.8578 0.61353 0.96146 0.0
H1969 H 0.88906 0.60323 0.95743 0.0
H1970 H 0.83254 0.51005 0.03287 0.0
H1971 H 0.86519 0.50386 0.03469 0.0
H1972 H 0.80794 0.54052 0.03375 0.0
H1973 H 0.79711 0.5646 0.01388 0.0
C1974 C 0.15251 0.94825 0.04255 0.0
C1975 C 0.13224 0.94761 0.02383 0.0
C1976 C 0.15132 0.91017 0.0027 0.0
C1977 C 0.17011 0.90921 0.02286 0.0
N1978 N 0.18598 0.92468 0.06438 0.0
N1979 N 0.1096 0.92528 0.98884 0.0
C1980 C 0.17004 0.92757 0.04345 0.0
C1981 C 0.13085 0.92777 0.00469 0.0
N1982 N 0.15546 0.96897 0.05901 0.0
N1983 N 0.15367 0.89514 0.98103 0.0
H1984 H 0.09416 0.93774 0.98971 0.0
H1985 H 0.10624 0.90953 0.97644 0.0
H1986 H 0.16878 0.88253 0.97839 0.0
H1987 H 0.14213 0.89704 0.9646 0.0
H1988 H 0.17145 0.97189 0.07119 0.0
H1989 H 0.14299 0.98444 0.05897 0.0
H1990 H 0.18488 0.93583 0.08116 0.0
H1991 H 0.19878 0.90958 0.06597 0.0
loop_
_geom_bond_atom_site_label_1
_geom_bond_atom_site_label_2
_geom_bond_distance
_geom_bond_site_symmetry_2
_ccdc_geom_bond_type
C0 C1 1.391 . S
C0 C4 1.391 . S
C0 H42 0.948 . S
C1 C0 1.391 . S
C1 C2 1.391 . S
C2 C1 1.391 . S
C2 H58 0.947 1_455 S
C2 C59 1.392 1_556 S
C3 C4 1.391 1_554 S
C3 C7 1.397 . S
C3 C59 1.419 . S
C4 C0 1.391 . S
C4 C3 1.391 1_556 S
C4 C5 1.399 . S
C5 C4 1.399 . S
C5 C8 1.396 1_556 S
C5 C17 1.453 . S
C5 C18 1.684 . S
H6 C30 0.948 . S
C7 C3 1.397 . S
C7 C8 1.394 . S
C7 C26 1.723 . S
C8 C5 1.396 1_554 S
C8 C7 1.394 . S
C8 C38 1.723 . S
H9 C32 0.947 1_556 S
H10 C33 0.948 1_556 S
H11 C39 0.982 1_545 S
H12 C40 0.979 . S
H13 C40 0.980 . S
H14 C40 0.983 . S
H15 C39 0.979 . S
H16 C39 0.977 . S
C17 C5 1.453 . S
C17 H46 0.982 1_556 S
C17 H47 0.979 . S
C17 H48 0.977 . S
C18 C5 1.684 . S
C18 H43 0.979 . S
C18 H44 0.980 . S
C18 H45 0.983 . S
C19 C20 1.391 . S
C19 C24 1.391 . S
C19 H49 0.948 . S
C20 C19 1.391 . S
C20 C21 1.391 . S
C21 C20 1.391 . S
C21 C22 1.392 1_655 S
C21 H50 0.947 1_545 S
C22 C21 1.392 1_455 S
C22 C23 1.419 . S
C22 H51 0.948 1_545 S
C23 C22 1.419 . S
C23 C24 1.391 1_455 S
C23 C27 1.397 . S
C24 C19 1.391 . S
C24 C23 1.391 1_655 S
C24 C25 1.399 . S
C25 C24 1.399 . S
C25 C26 1.396 1_655 S
C25 C28 1.453 . S
C25 C29 1.684 . S
C26 C7 1.723 . S
C26 C25 1.396 1_455 S
C26 C27 1.394 . S
C27 C23 1.397 . S
C27 C26 1.394 . S
C27 C37 1.723 . S
C28 C25 1.453 . S
C28 H52 0.982 1_655 S
C28 H53 0.979 . S
C28 H54 0.977 . S
C29 C25 1.684 . S
C29 H55 0.979 . S
C29 H56 0.980 . S
C29 H57 0.983 . S
C30 H6 0.948 . S
C30 C31 1.391 . S
C30 C35 1.391 . S
C31 C30 1.391 . S
C31 C32 1.391 . S
C32 H9 0.947 1_554 S
C32 C31 1.391 . S
C32 C33 1.392 1_565 S
C33 H10 0.948 1_554 S
C33 C32 1.392 1_545 S
C33 C34 1.419 . S
C34 C33 1.419 . S
C34 C35 1.391 1_545 S
C34 C38 1.397 . S
C35 C30 1.391 . S
C35 C34 1.391 1_565 S
C35 C36 1.399 . S
C36 C35 1.399 . S
C36 C37 1.396 1_565 S
C36 C39 1.453 . S
C36 C40 1.684 . S
C37 C27 1.723 . S
C37 C36 1.396 1_545 S
C37 C38 1.394 . S
C38 C8 1.723 . S
C38 C34 1.397 . S
C38 C37 1.394 . S
C39 H11 0.982 1_565 S
C39 H15 0.979 . S
C39 H16 0.977 . S
C39 C36 1.453 . S
C40 H12 0.979 . S
C40 H13 0.980 . S
C40 H14 0.983 . S
C40 C36 1.684 . S
H41 C59 0.948 1_655 S
H42 C0 0.948 . S
H43 C18 0.979 . S
H44 C18 0.980 . S
H45 C18 0.983 . S
H46 C17 0.982 1_554 S
H47 C17 0.979 . S
H48 C17 0.977 . S
H49 C19 0.948 . S
H50 C21 0.947 1_565 S
H51 C22 0.948 1_565 S
H52 C28 0.982 1_455 S
H53 C28 0.979 . S
H54 C28 0.977 . S
H55 C29 0.979 . S
H56 C29 0.980 . S
H57 C29 0.983 . S
H58 C2 0.947 1_655 S
C59 C2 1.392 1_554 S
C59 C3 1.419 . S
C59 H41 0.948 1_455 S
C60 C61 1.391 . S
C60 C64 1.391 . S
C60 H102 0.948 . S
C61 C60 1.391 . S
C61 C62 1.391 . S
C62 C61 1.391 . S
C62 H118 0.947 . S
C62 C119 1.392 . S
C63 C64 1.391 . S
C63 C67 1.397 . S
C63 C119 1.419 . S
C64 C60 1.391 . S
C64 C63 1.391 . S
C64 C65 1.399 . S
C65 C64 1.399 . S
C65 C68 1.396 . S
C65 C77 1.453 . S
C65 C78 1.684 . S
H66 C90 0.948 . S
C67 C63 1.397 . S
C67 C68 1.394 . S
C67 C86 1.723 . S
C68 C65 1.396 . S
C68 C67 1.394 . S
C68 C98 1.723 . S
H69 C92 0.947 . S
H70 C93 0.948 . S
H71 C99 0.982 . S
H72 C100 0.979 . S
H73 C100 0.980 . S
H74 C100 0.983 . S
H75 C99 0.979 . S
H76 C99 0.977 . S
C77 C65 1.453 . S
C77 H106 0.982 . S
C77 H107 0.979 . S
C77 H108 0.977 . S
C78 C65 1.684 . S
C78 H103 0.979 . S
C78 H104 0.980 . S
C78 H105 0.983 . S
C79 C80 1.391 . S
C79 C84 1.391 . S
C79 H109 0.948 . S
C80 C79 1.391 . S
C80 C81 1.391 . S
C81 C80 1.391 . S
C81 C82 1.392 . S
C81 H110 0.947 . S
C82 C81 1.392 . S
C82 C83 1.419 . S
C82 H111 0.948 . S
C83 C82 1.419 . S
C83 C84 1.391 . S
C83 C87 1.397 . S
C84 C79 1.391 . S
C84 C83 1.391 . S
C84 C85 1.399 . S
C85 C84 1.399 . S
C85 C86 1.396 . S
C85 C88 1.453 . S
C85 C89 1.684 . S
C86 C67 1.723 . S
C86 C85 1.396 . S
C86 C87 1.394 . S
C87 C83 1.397 . S
C87 C86 1.394 . S
C87 C97 1.723 . S
C88 C85 1.453 . S
C88 H112 0.982 . S
C88 H113 0.979 . S
C88 H114 0.977 . S
C89 C85 1.684 . S
C89 H115 0.979 . S
C89 H116 0.980 . S
C89 H117 0.983 . S
C90 H66 0.948 . S
C90 C91 1.391 . S
C90 C95 1.391 . S
C91 C90 1.391 . S
C91 C92 1.391 . S
C92 H69 0.947 . S
C92 C91 1.391 . S
C92 C93 1.392 . S
C93 H70 0.948 . S
C93 C92 1.392 . S
C93 C94 1.419 . S
C94 C93 1.419 . S
C94 C95 1.391 . S
C94 C98 1.397 . S
C95 C90 1.391 . S
C95 C94 1.391 . S
C95 C96 1.399 . S
C96 C95 1.399 . S
C96 C97 1.396 . S
C96 C99 1.453 . S
C96 C100 1.684 . S
C97 C87 1.723 . S
C97 C96 1.396 . S
C97 C98 1.394 . S
C98 C68 1.723 . S
C98 C94 1.397 . S
C98 C97 1.394 . S
C99 H71 0.982 . S
C99 H75 0.979 . S
C99 H76 0.977 . S
C99 C96 1.453 . S
C100 H72 0.979 . S
C100 H73 0.980 . S
C100 H74 0.983 . S
C100 C96 1.684 . S
H101 C119 0.948 . S
H102 C60 0.948 . S
H103 C78 0.979 . S
H104 C78 0.980 . S
H105 C78 0.983 . S
H106 C77 0.982 . S
H107 C77 0.979 . S
H108 C77 0.977 . S
H109 C79 0.948 . S
H110 C81 0.947 . S
H111 C82 0.948 . S
H112 C88 0.982 . S
H113 C88 0.979 . S
H114 C88 0.977 . S
H115 C89 0.979 . S
H116 C89 0.980 . S
H117 C89 0.983 . S
H118 C62 0.947 . S
C119 C62 1.392 . S
C119 C63 1.419 . S
C119 H101 0.948 . S
C120 C121 1.391 1_554 S
C120 C124 1.391 . S
C120 H162 0.948 . S
C121 C120 1.391 1_556 S
C121 C122 1.391 . S
C122 C121 1.391 . S
C122 H178 0.947 . S
C122 C179 1.392 . S
C123 C124 1.391 . S
C123 C127 1.397 . S
C123 C179 1.419 1_554 S
C124 C120 1.391 . S
C124 C123 1.391 . S
C124 C125 1.399 . S
C125 C124 1.399 . S
C125 C128 1.396 . S
C125 C137 1.453 . S
C125 C138 1.684 1_655 S
H126 C150 0.941 1_655 S
C127 C123 1.397 . S
C127 C128 1.394 . S
C127 C146 1.723 . S
C128 C125 1.396 . S
C128 C127 1.394 . S
C128 C158 1.723 . S
H129 C152 0.947 . S
H130 C153 0.948 . S
H131 C159 0.982 . S
H132 C160 0.979 . S
H133 C160 0.980 . S
H134 C160 0.983 . S
H135 C159 0.979 . S
H136 C159 0.977 . S
C137 C125 1.453 . S
C137 H166 0.982 . S
C137 H167 0.977 . S
C137 H168 0.977 . S
C138 C125 1.684 1_455 S
C138 H163 0.979 . S
C138 H164 0.980 . S
C138 H165 0.983 . S
C139 C140 1.391 . S
C139 C144 1.391 . S
C139 H169 0.948 . S
C140 C139 1.391 . S
C140 C141 1.391 . S
C141 C140 1.391 . S
C141 C142 1.392 . S
C141 H170 0.947 . S
C142 C141 1.392 . S
C142 C143 1.419 . S
C142 H171 0.948 . S
C143 C142 1.419 . S
C143 C144 1.391 . S
C143 C147 1.397 . S
C144 C139 1.391 . S
C144 C143 1.391 . S
C144 C145 1.399 . S
C145 C144 1.399 . S
C145 C146 1.396 . S
C145 C148 1.453 . S
C145 C149 1.684 1_554 S
C146 C127 1.723 . S
C146 C145 1.396 . S
C146 C147 1.394 . S
C147 C143 1.397 . S
C147 C146 1.394 . S
C147 C157 1.723 . S
C148 C145 1.453 . S
C148 H172 0.982 . S
C148 H173 0.979 . S
C148 H174 0.977 . S
C149 C145 1.684 1_556 S
C149 H175 0.979 . S
C149 H176 0.980 . S
C149 H177 0.983 . S
C150 H126 0.941 1_455 S
C150 C151 1.416 . S
C150 C155 1.375 1_455 S
C151 C150 1.416 . S
C151 C152 1.391 . S
C152 H129 0.947 . S
C152 C151 1.391 . S
C152 C153 1.392 . S
C153 H130 0.948 . S
C153 C152 1.392 . S
C153 C154 1.419 1_455 S
C154 C153 1.419 1_655 S
C154 C155 1.391 . S
C154 C158 1.397 . S
C155 C150 1.375 1_655 S
C155 C154 1.391 . S
C155 C156 1.399 . S
C156 C155 1.399 . S
C156 C157 1.396 . S
C156 C159 1.453 . S
C156 C160 1.684 . S
C157 C147 1.723 . S
C157 C156 1.396 . S
C157 C158 1.394 . S
C158 C128 1.723 . S
C158 C154 1.397 . S
C158 C157 1.394 . S
C159 H131 0.982 . S
C159 H135 0.979 . S
C159 H136 0.977 . S
C159 C156 1.453 . S
C160 H132 0.979 . S
C160 H133 0.980 . S
C160 H134 0.983 . S
C160 C156 1.684 . S
H161 C179 0.948 . S
H162 C120 0.948 . S
H163 C138 0.979 . S
H164 C138 0.980 . S
H165 C138 0.983 . S
H166 C137 0.982 . S
H167 C137 0.977 . S
H168 C137 0.977 . S
H169 C139 0.948 . S
H170 C141 0.947 . S
H171 C142 0.948 . S
H172 C148 0.982 . S
H173 C148 0.979 . S
H174 C148 0.977 . S
H175 C149 0.979 . S
H176 C149 0.980 . S
H177 C149 0.983 . S
H178 C122 0.947 . S
C179 C122 1.392 . S
C179 C123 1.419 1_556 S
C179 H161 0.948 . S
C180 C181 1.391 . S
C180 C184 1.391 . S
C180 H222 0.948 . S
C181 C180 1.391 . S
C181 C182 1.391 . S
C182 C181 1.391 . S
C182 H238 0.947 . S
C182 C239 1.392 . S
C183 C184 1.391 . S
C183 C187 1.397 . S
C183 C239 1.419 . S
C184 C180 1.391 . S
C184 C183 1.391 . S
C184 C185 1.399 . S
C185 C184 1.399 . S
C185 C188 1.396 . S
C185 C197 1.453 . S
C185 C198 1.684 . S
H186 C210 0.948 . S
C187 C183 1.397 . S
C187 C188 1.394 . S
C187 C206 1.723 . S
C188 C185 1.396 . S
C188 C187 1.394 . S
C188 C218 1.723 . S
H189 C212 0.947 . S
H190 C213 0.948 . S
H191 C219 0.982 . S
H192 C220 0.979 . S
H193 C220 0.980 . S
H194 C220 0.983 . S
H195 C219 0.979 . S
H196 C219 0.977 . S
C197 C185 1.453 . S
C197 H226 0.982 . S
C197 H227 0.979 . S
C197 H228 0.977 . S
C198 C185 1.684 . S
C198 H223 0.979 . S
C198 H224 0.980 . S
C198 H225 0.983 . S
C199 C200 1.391 . S
C199 C204 1.391 . S
C199 H229 0.948 . S
C200 C199 1.391 . S
C200 C201 1.391 . S
C201 C200 1.391 . S
C201 C202 1.392 . S
C201 H230 0.947 . S
C202 C201 1.392 . S
C202 C203 1.419 . S
C202 H231 0.948 . S
C203 C202 1.419 . S
C203 C204 1.391 . S
C203 C207 1.397 . S
C204 C199 1.391 . S
C204 C203 1.391 . S
C204 C205 1.399 . S
C205 C204 1.399 . S
C205 C206 1.396 . S
C205 C208 1.453 . S
C205 C209 1.684 . S
C206 C187 1.723 . S
C206 C205 1.396 . S
C206 C207 1.394 . S
C207 C203 1.397 . S
C207 C206 1.394 . S
C207 C217 1.723 . S
C208 C205 1.453 . S
C208 H232 0.982 . S
C208 H233 0.979 . S
C208 H234 0.977 . S
C209 C205 1.684 . S
C209 H235 0.979 . S
C209 H236 0.980 . S
C209 H237 0.983 . S
C210 H186 0.948 . S
C210 C211 1.391 . S
C210 C215 1.391 . S
C211 C210 1.391 . S
C211 C212 1.391 . S
C212 H189 0.947 . S
C212 C211 1.391 . S
C212 C213 1.392 . S
C213 H190 0.948 . S
C213 C212 1.392 . S
C213 C214 1.419 . S
C214 C213 1.419 . S
C214 C215 1.391 . S
C214 C218 1.397 . S
C215 C210 1.391 . S
C215 C214 1.391 . S
C215 C216 1.399 . S
C216 C215 1.399 . S
C216 C217 1.396 . S
C216 C219 1.453 . S
C216 C220 1.684 . S
C217 C207 1.723 . S
C217 C216 1.396 . S
C217 C218 1.394 . S
C218 C188 1.723 . S
C218 C214 1.397 . S
C218 C217 1.394 . S
C219 H191 0.982 . S
C219 H195 0.979 . S
C219 H196 0.977 . S
C219 C216 1.453 . S
C220 H192 0.979 . S
C220 H193 0.980 . S
C220 H194 0.983 . S
C220 C216 1.684 . S
H221 C239 0.948 . S
H222 C180 0.948 . S
H223 C198 0.979 . S
H224 C198 0.980 . S
H225 C198 0.983 . S
H226 C197 0.982 . S
H227 C197 0.979 . S
H228 C197 0.977 . S
H229 C199 0.948 . S
H230 C201 0.947 . S
H231 C202 0.948 . S
H232 C208 0.982 . S
H233 C208 0.979 . S
H234 C208 0.977 . S
H235 C209 0.979 . S
H236 C209 0.980 . S
H237 C209 0.983 . S
H238 C182 0.947 . S
C239 C182 1.392 . S
C239 C183 1.419 . S
C239 H221 0.948 . S
C240 C241 1.391 . S
C240 C244 1.391 . S
C240 H282 0.948 . S
C241 C240 1.391 . S
C241 C242 1.391 . S
C242 C241 1.391 . S
C242 H298 0.947 . S
C242 C299 1.392 . S
C243 C244 1.391 . S
C243 C247 1.397 . S
C243 C299 1.419 . S
C244 C240 1.391 . S
C244 C243 1.391 . S
C244 C245 1.399 . S
C245 C244 1.399 . S
C245 C248 1.396 . S
C245 C257 1.453 . S
C245 C258 1.684 . S
H246 C270 0.948 . S
C247 C243 1.397 . S
C247 C248 1.394 . S
C247 C266 1.723 . S
C248 C245 1.396 . S
C248 C247 1.394 . S
C248 C278 1.723 . S
H249 C272 0.947 . S
H250 C273 0.948 . S
H251 C279 0.982 . S
H252 C280 0.975 . S
H253 C280 0.980 . S
H254 C280 0.987 1_545 S
H255 C279 0.979 . S
H256 C279 0.977 . S
C257 C245 1.453 . S
C257 H286 0.982 . S
C257 H287 0.979 . S
C257 H288 0.977 . S
C258 C245 1.684 . S
C258 H283 0.979 . S
C258 H284 0.980 . S
C258 H285 0.983 . S
C259 C260 1.391 . S
C259 C264 1.391 1_655 S
C259 H289 0.948 . S
C260 C259 1.391 . S
C260 C261 1.391 1_655 S
C261 C260 1.391 1_455 S
C261 C262 1.392 . S
C261 H290 0.965 . S
C262 C261 1.392 . S
C262 C263 1.419 . S
C262 H291 0.948 . S
C263 C262 1.419 . S
C263 C264 1.391 . S
C263 C267 1.397 . S
C264 C259 1.391 1_455 S
C264 C263 1.391 . S
C264 C265 1.399 . S
C265 C264 1.399 . S
C265 C266 1.396 . S
C265 C268 1.453 1_455 S
C265 C269 1.684 . S
C266 C247 1.723 . S
C266 C265 1.396 . S
C266 C267 1.394 . S
C267 C263 1.397 . S
C267 C266 1.394 . S
C267 C277 1.723 . S
C268 C265 1.453 1_655 S
C268 H292 0.982 . S
C268 H293 0.979 . S
C268 H294 0.977 . S
C269 C265 1.684 . S
C269 H295 0.979 . S
C269 H296 0.980 . S
C269 H297 0.983 1_455 S
C270 H246 0.948 . S
C270 C271 1.391 . S
C270 C275 1.391 1_545 S
C271 C270 1.391 . S
C271 C272 1.391 1_545 S
C272 H249 0.947 . S
C272 C271 1.391 1_565 S
C272 C273 1.392 . S
C273 H250 0.948 . S
C273 C272 1.392 . S
C273 C274 1.419 . S
C274 C273 1.419 . S
C274 C275 1.391 . S
C274 C278 1.397 . S
C275 C270 1.391 1_565 S
C275 C274 1.391 . S
C275 C276 1.399 . S
C276 C275 1.399 . S
C276 C277 1.396 . S
C276 C279 1.453 1_565 S
C276 C280 1.683 . S
C277 C267 1.723 . S
C277 C276 1.396 . S
C277 C278 1.394 . S
C278 C248 1.723 . S
C278 C274 1.397 . S
C278 C277 1.394 . S
C279 H251 0.982 . S
C279 H255 0.979 . S
C279 H256 0.977 . S
C279 C276 1.453 1_545 S
C280 H252 0.975 . S
C280 H253 0.980 . S
C280 H254 0.987 1_565 S
C280 C276 1.683 . S
H281 C299 0.948 . S
H282 C240 0.948 . S
H283 C258 0.979 . S
H284 C258 0.980 . S
H285 C258 0.983 . S
H286 C257 0.982 . S
H287 C257 0.979 . S
H288 C257 0.977 . S
H289 C259 0.948 . S
H290 C261 0.965 . S
H291 C262 0.948 . S
H292 C268 0.982 . S
H293 C268 0.979 . S
H294 C268 0.977 . S
H295 C269 0.979 . S
H296 C269 0.980 . S
H297 C269 0.983 1_655 S
H298 C242 0.947 . S
C299 C242 1.392 . S
C299 C243 1.419 . S
C299 H281 0.948 . S
C300 C301 1.391 . S
C300 C304 1.391 . S
C300 H342 0.948 . S
C301 C300 1.391 . S
C301 C302 1.391 . S
C302 C301 1.391 . S
C302 H358 0.947 . S
C302 C359 1.392 . S
C303 C304 1.391 . S
C303 C307 1.397 . S
C303 C359 1.419 . S
C304 C300 1.391 . S
C304 C303 1.391 . S
C304 C305 1.399 . S
C305 C304 1.399 . S
C305 C308 1.396 . S
C305 C317 1.453 . S
C305 C318 1.684 . S
H306 C330 0.948 . S
C307 C303 1.397 . S
C307 C308 1.394 . S
C307 C326 1.723 . S
C308 C305 1.396 . S
C308 C307 1.394 . S
C308 C338 1.723 . S
H309 C332 0.947 . S
H310 C333 0.948 . S
H311 C339 0.982 . S
H312 C340 0.979 . S
H313 C340 0.980 . S
H314 C340 0.983 . S
H315 C339 0.979 . S
H316 C339 0.977 . S
C317 C305 1.453 . S
C317 H346 0.982 . S
C317 H347 0.979 . S
C317 H348 0.977 . S
C318 C305 1.684 . S
C318 H343 0.979 . S
C318 H344 0.980 . S
C318 H345 0.983 . S
C319 C320 1.391 . S
C319 C324 1.391 . S
C319 H349 0.948 . S
C320 C319 1.391 . S
C320 C321 1.391 . S
C321 C320 1.391 . S
C321 C322 1.392 . S
C321 H350 0.947 . S
C322 C321 1.392 . S
C322 C323 1.419 . S
C322 H351 0.948 . S
C323 C322 1.419 . S
C323 C324 1.391 . S
C323 C327 1.397 . S
C324 C319 1.391 . S
C324 C323 1.391 . S
C324 C325 1.399 . S
C325 C324 1.399 . S
C325 C326 1.396 . S
C325 C328 1.453 . S
C325 C329 1.684 . S
C326 C307 1.723 . S
C326 C325 1.396 . S
C326 C327 1.394 . S
C327 C323 1.397 . S
C327 C326 1.394 . S
C327 C337 1.723 . S
C328 C325 1.453 . S
C328 H352 0.982 . S
C328 H353 0.979 . S
C328 H354 0.977 . S
C329 C325 1.684 . S
C329 H355 0.979 . S
C329 H356 0.980 . S
C329 H357 0.983 . S
C330 H306 0.948 . S
C330 C331 1.391 . S
C330 C335 1.391 . S
C331 C330 1.391 . S
C331 C332 1.391 . S
C332 H309 0.947 . S
C332 C331 1.391 . S
C332 C333 1.392 . S
C333 H310 0.948 . S
C333 C332 1.392 . S
C333 C334 1.419 . S
C334 C333 1.419 . S
C334 C335 1.391 . S
C334 C338 1.397 . S
C335 C330 1.391 . S
C335 C334 1.391 . S
C335 C336 1.399 . S
C336 C335 1.399 . S
C336 C337 1.396 . S
C336 C339 1.453 . S
C336 C340 1.684 . S
C337 C327 1.723 . S
C337 C336 1.396 . S
C337 C338 1.394 . S
C338 C308 1.723 . S
C338 C334 1.397 . S
C338 C337 1.394 . S
C339 H311 0.982 . S
C339 H315 0.979 . S
C339 H316 0.977 . S
C339 C336 1.453 . S
C340 H312 0.979 . S
C340 H313 0.980 . S
C340 H314 0.983 . S
C340 C336 1.684 . S
H341 C359 0.948 . S
H342 C300 0.948 . S
H343 C318 0.979 . S
H344 C318 0.980 . S
H345 C318 0.983 . S
H346 C317 0.982 . S
H347 C317 0.979 . S
H348 C317 0.977 . S
H349 C319 0.948 . S
H350 C321 0.947 . S
H351 C322 0.948 . S
H352 C328 0.982 . S
H353 C328 0.979 . S
H354 C328 0.977 . S
H355 C329 0.979 . S
H356 C329 0.980 . S
H357 C329 0.983 . S
H358 C302 0.947 . S
C359 C302 1.392 . S
C359 C303 1.419 . S
C359 H341 0.948 . S
C360 C361 1.391 . S
C360 C364 1.391 . S
C360 H402 0.948 . S
C361 C360 1.391 . S
C361 C362 1.391 . S
C362 C361 1.391 . S
C362 H418 0.947 . S
C362 C419 1.392 . S
C363 C364 1.391 . S
C363 C367 1.397 . S
C363 C419 1.419 . S
C364 C360 1.391 . S
C364 C363 1.391 . S
C364 C365 1.399 . S
C365 C364 1.399 . S
C365 C368 1.396 . S
C365 C377 1.453 . S
C365 C378 1.684 . S
H366 C390 0.948 1_455 S
C367 C363 1.397 . S
C367 C368 1.394 . S
C367 C386 1.723 . S
C368 C365 1.396 . S
C368 C367 1.394 . S
C368 C398 1.723 . S
H369 C392 0.947 . S
H370 C393 0.948 . S
H371 C399 0.982 . S
H372 C400 0.979 . S
H373 C400 0.980 . S
H374 C400 0.983 . S
H375 C399 0.979 1_455 S
H376 C399 0.977 1_455 S
C377 C365 1.453 . S
C377 H406 0.982 . S
C377 H407 0.979 . S
C377 H408 0.977 . S
C378 C365 1.684 . S
C378 H403 0.979 . S
C378 H404 0.980 . S
C378 H405 0.983 . S
C379 C380 1.391 . S
C379 C384 1.391 1_455 S
C379 H409 0.948 . S
C380 C379 1.391 . S
C380 C381 1.391 . S
C381 C380 1.391 . S
C381 C382 1.392 . S
C381 H410 0.947 . S
C382 C381 1.392 . S
C382 C383 1.419 1_455 S
C382 H411 0.948 . S
C383 C382 1.419 1_655 S
C383 C384 1.391 . S
C383 C387 1.397 . S
C384 C379 1.391 1_655 S
C384 C383 1.391 . S
C384 C385 1.399 . S
C385 C384 1.399 . S
C385 C386 1.396 . S
C385 C388 1.453 . S
C385 C389 1.684 . S
C386 C367 1.723 . S
C386 C385 1.396 . S
C386 C387 1.394 . S
C387 C383 1.397 . S
C387 C386 1.394 . S
C387 C397 1.723 . S
C388 C385 1.453 . S
C388 H412 0.982 . S
C388 H413 0.979 . S
C388 H414 0.977 . S
C389 C385 1.684 . S
C389 H415 0.979 . S
C389 H416 0.980 . S
C389 H417 0.983 . S
C390 H366 0.948 1_655 S
C390 C391 1.391 . S
C390 C395 1.391 . S
C391 C390 1.391 . S
C391 C392 1.391 . S
C392 H369 0.947 . S
C392 C391 1.391 . S
C392 C393 1.392 . S
C393 H370 0.948 . S
C393 C392 1.392 . S
C393 C394 1.419 . S
C394 C393 1.419 . S
C394 C395 1.391 . S
C394 C398 1.397 . S
C395 C390 1.391 . S
C395 C394 1.391 . S
C395 C396 1.399 . S
C396 C395 1.399 . S
C396 C397 1.396 . S
C396 C399 1.453 . S
C396 C400 1.684 1_655 S
C397 C387 1.723 . S
C397 C396 1.396 . S
C397 C398 1.394 . S
C398 C368 1.723 . S
C398 C394 1.397 . S
C398 C397 1.394 . S
C399 H371 0.982 . S
C399 H375 0.979 1_655 S
C399 H376 0.977 1_655 S
C399 C396 1.453 . S
C400 H372 0.979 . S
C400 H373 0.980 . S
C400 H374 0.983 . S
C400 C396 1.684 1_455 S
H401 C419 0.948 . S
H402 C360 0.948 . S
H403 C378 0.979 . S
H404 C378 0.980 . S
H405 C378 0.983 . S
H406 C377 0.982 . S
H407 C377 0.979 . S
H408 C377 0.977 . S
H409 C379 0.948 . S
H410 C381 0.947 . S
H411 C382 0.948 . S
H412 C388 0.982 . S
H413 C388 0.979 . S
H414 C388 0.977 . S
H415 C389 0.979 . S
H416 C389 0.980 . S
H417 C389 0.983 . S
H418 C362 0.947 . S
C419 C362 1.392 . S
C419 C363 1.419 . S
C419 H401 0.948 . S
C420 C421 1.391 . S
C420 C424 1.391 . S
C420 H462 0.948 . S
C421 C420 1.391 . S
C421 C422 1.391 . S
C422 C421 1.391 . S
C422 H478 0.947 . S
C422 C479 1.392 . S
C423 C424 1.391 . S
C423 C427 1.397 . S
C423 C479 1.419 . S
C424 C420 1.391 . S
C424 C423 1.391 . S
C424 C425 1.399 . S
C425 C424 1.399 . S
C425 C428 1.396 . S
C425 C437 1.453 . S
C425 C438 1.684 . S
H426 C450 0.948 . S
C427 C423 1.397 . S
C427 C428 1.394 . S
C427 C446 1.723 . S
C428 C425 1.396 . S
C428 C427 1.394 . S
C428 C458 1.723 . S
H429 C452 0.947 . S
H430 C453 0.948 . S
H431 C459 0.982 . S
H432 C460 0.979 . S
H433 C460 0.980 . S
H434 C460 0.983 . S
H435 C459 0.979 . S
H436 C459 0.977 . S
C437 C425 1.453 . S
C437 H466 0.982 . S
C437 H467 0.979 . S
C437 H468 0.977 . S
C438 C425 1.684 . S
C438 H463 0.979 . S
C438 H464 0.980 . S
C438 H465 0.983 . S
C439 C440 1.391 . S
C439 C444 1.391 . S
C439 H469 0.948 . S
C440 C439 1.391 . S
C440 C441 1.391 . S
C441 C440 1.391 . S
C441 C442 1.392 . S
C441 H470 0.947 . S
C442 C441 1.392 . S
C442 C443 1.419 . S
C442 H471 0.948 . S
C443 C442 1.419 . S
C443 C444 1.391 . S
C443 C447 1.397 . S
C444 C439 1.391 . S
C444 C443 1.391 . S
C444 C445 1.399 . S
C445 C444 1.399 . S
C445 C446 1.396 . S
C445 C448 1.453 . S
C445 C449 1.684 . S
C446 C427 1.723 . S
C446 C445 1.396 . S
C446 C447 1.394 . S
C447 C443 1.397 . S
C447 C446 1.394 . S
C447 C457 1.723 . S
C448 C445 1.453 . S
C448 H472 0.982 . S
C448 H473 0.979 . S
C448 H474 0.977 . S
C449 C445 1.684 . S
C449 H475 0.979 . S
C449 H476 0.980 . S
C449 H477 0.983 . S
C450 H426 0.948 . S
C450 C451 1.391 . S
C450 C455 1.391 . S
C451 C450 1.391 . S
C451 C452 1.391 . S
C452 H429 0.947 . S
C452 C451 1.391 . S
C452 C453 1.392 . S
C453 H430 0.948 . S
C453 C452 1.392 . S
C453 C454 1.419 . S
C454 C453 1.419 . S
C454 C455 1.391 . S
C454 C458 1.397 . S
C455 C450 1.391 . S
C455 C454 1.391 . S
C455 C456 1.399 . S
C456 C455 1.399 . S
C456 C457 1.396 . S
C456 C459 1.453 . S
C456 C460 1.684 . S
C457 C447 1.723 . S
C457 C456 1.396 . S
C457 C458 1.394 . S
C458 C428 1.723 . S
C458 C454 1.397 . S
C458 C457 1.394 . S
C459 H431 0.982 . S
C459 H435 0.979 . S
C459 H436 0.977 . S
C459 C456 1.453 . S
C460 H432 0.979 . S
C460 H433 0.980 . S
C460 H434 0.983 . S
C460 C456 1.684 . S
H461 C479 0.948 . S
H462 C420 0.948 . S
H463 C438 0.979 . S
H464 C438 0.980 . S
H465 C438 0.983 . S
H466 C437 0.982 . S
H467 C437 0.979 . S
H468 C437 0.977 . S
H469 C439 0.948 . S
H470 C441 0.947 . S
H471 C442 0.948 . S
H472 C448 0.982 . S
H473 C448 0.979 . S
H474 C448 0.977 . S
H475 C449 0.979 . S
H476 C449 0.980 . S
H477 C449 0.983 . S
H478 C422 0.947 . S
C479 C422 1.392 . S
C479 C423 1.419 . S
C479 H461 0.948 . S
C480 C481 1.391 . S
C480 C484 1.391 . S
C480 H522 0.948 . S
C481 C480 1.391 . S
C481 C482 1.391 . S
C482 C481 1.391 . S
C482 H538 0.947 . S
C482 C539 1.392 . S
C483 C484 1.391 . S
C483 C487 1.397 . S
C483 C539 1.419 . S
C484 C480 1.391 . S
C484 C483 1.391 . S
C484 C485 1.399 . S
C485 C484 1.399 . S
C485 C488 1.396 . S
C485 C497 1.453 . S
C485 C498 1.684 . S
H486 C510 0.948 . S
C487 C483 1.397 . S
C487 C488 1.394 . S
C487 C506 1.723 . S
C488 C485 1.396 . S
C488 C487 1.394 . S
C488 C518 1.723 . S
H489 C512 0.947 . S
H490 C513 0.948 . S
H491 C519 0.982 . S
H492 C520 0.979 . S
H493 C520 0.980 . S
H494 C520 0.983 . S
H495 C519 0.979 . S
H496 C519 0.977 . S
C497 C485 1.453 . S
C497 H526 0.982 . S
C497 H527 0.979 . S
C497 H528 0.977 . S
C498 C485 1.684 . S
C498 H523 0.979 . S
C498 H524 0.980 . S
C498 H525 0.983 . S
C499 C500 1.391 . S
C499 C504 1.391 . S
C499 H529 0.948 . S
C500 C499 1.391 . S
C500 C501 1.391 . S
C501 C500 1.391 . S
C501 C502 1.392 . S
C501 H530 0.947 . S
C502 C501 1.392 . S
C502 C503 1.419 . S
C502 H531 0.948 . S
C503 C502 1.419 . S
C503 C504 1.391 . S
C503 C507 1.397 . S
C504 C499 1.391 . S
C504 C503 1.391 . S
C504 C505 1.399 . S
C505 C504 1.399 . S
C505 C506 1.396 . S
C505 C508 1.453 . S
C505 C509 1.684 . S
C506 C487 1.723 . S
C506 C505 1.396 . S
C506 C507 1.394 . S
C507 C503 1.397 . S
C507 C506 1.394 . S
C507 C517 1.723 . S
C508 C505 1.453 . S
C508 H532 0.982 . S
C508 H533 0.979 . S
C508 H534 0.977 . S
C509 C505 1.684 . S
C509 H535 0.979 . S
C509 H536 0.980 . S
C509 H537 0.983 . S
C510 H486 0.948 . S
C510 C511 1.391 . S
C510 C515 1.391 . S
C511 C510 1.391 . S
C511 C512 1.391 . S
C512 H489 0.947 . S
C512 C511 1.391 . S
C512 C513 1.392 . S
C513 H490 0.948 . S
C513 C512 1.392 . S
C513 C514 1.419 . S
C514 C513 1.419 . S
C514 C515 1.391 . S
C514 C518 1.397 . S
C515 C510 1.391 . S
C515 C514 1.391 . S
C515 C516 1.399 . S
C516 C515 1.399 . S
C516 C517 1.396 . S
C516 C519 1.453 . S
C516 C520 1.684 . S
C517 C507 1.723 . S
C517 C516 1.396 . S
C517 C518 1.394 . S
C518 C488 1.723 . S
C518 C514 1.397 . S
C518 C517 1.394 . S
C519 H491 0.982 . S
C519 H495 0.979 . S
C519 H496 0.977 . S
C519 C516 1.453 . S
C520 H492 0.979 . S
C520 H493 0.980 . S
C520 H494 0.983 . S
C520 C516 1.684 . S
H521 C539 0.948 . S
H522 C480 0.948 . S
H523 C498 0.979 . S
H524 C498 0.980 . S
H525 C498 0.983 . S
H526 C497 0.982 . S
H527 C497 0.979 . S
H528 C497 0.977 . S
H529 C499 0.948 . S
H530 C501 0.947 . S
H531 C502 0.948 . S
H532 C508 0.982 . S
H533 C508 0.979 . S
H534 C508 0.977 . S
H535 C509 0.979 . S
H536 C509 0.980 . S
H537 C509 0.983 . S
H538 C482 0.947 . S
C539 C482 1.392 . S
C539 C483 1.419 . S
C539 H521 0.948 . S
C540 C541 1.391 . S
C540 C544 1.391 . S
C540 H582 0.948 . S
C541 C540 1.391 . S
C541 C542 1.391 . S
C542 C541 1.391 . S
C542 H598 0.947 . S
C542 C599 1.392 . S
C543 C544 1.391 . S
C543 C547 1.397 . S
C543 C599 1.419 . S
C544 C540 1.391 . S
C544 C543 1.391 . S
C544 C545 1.399 . S
C545 C544 1.399 . S
C545 C548 1.396 . S
C545 C557 1.453 . S
C545 C558 1.684 . S
H546 C570 0.948 1_545 S
C547 C543 1.397 . S
C547 C548 1.394 . S
C547 C566 1.723 . S
C548 C545 1.396 . S
C548 C547 1.394 . S
C548 C578 1.723 . S
H549 C572 0.947 . S
H550 C573 0.948 . S
H551 C579 0.982 . S
H552 C580 0.979 . S
H553 C580 0.980 . S
H554 C580 0.983 . S
H555 C579 0.979 1_545 S
H556 C579 0.977 1_545 S
C557 C545 1.453 . S
C557 H586 0.982 . S
C557 H587 0.979 . S
C557 H588 0.977 . S
C558 C545 1.684 . S
C558 H583 0.979 . S
C558 H584 0.980 . S
C558 H585 0.983 . S
C559 C560 1.391 . S
C559 C564 1.391 1_545 S
C559 H589 0.948 . S
C560 C559 1.391 . S
C560 C561 1.391 . S
C561 C560 1.391 . S
C561 C562 1.392 . S
C561 H590 0.947 . S
C562 C561 1.392 . S
C562 C563 1.419 1_545 S
C562 H591 0.948 . S
C563 C562 1.419 1_565 S
C563 C564 1.391 . S
C563 C567 1.397 . S
C564 C559 1.391 1_565 S
C564 C563 1.391 . S
C564 C565 1.399 . S
C565 C564 1.399 . S
C565 C566 1.396 . S
C565 C568 1.453 . S
C565 C569 1.684 . S
C566 C547 1.723 . S
C566 C565 1.396 . S
C566 C567 1.394 . S
C567 C563 1.397 . S
C567 C566 1.394 . S
C567 C577 1.723 . S
C568 C565 1.453 . S
C568 H592 0.982 . S
C568 H593 0.979 . S
C568 H594 0.977 . S
C569 C565 1.684 . S
C569 H595 0.979 . S
C569 H596 0.980 . S
C569 H597 0.983 . S
C570 H546 0.948 1_565 S
C570 C571 1.391 . S
C570 C575 1.391 . S
C571 C570 1.391 . S
C571 C572 1.391 . S
C572 H549 0.947 . S
C572 C571 1.391 . S
C572 C573 1.392 . S
C573 H550 0.948 . S
C573 C572 1.392 . S
C573 C574 1.419 . S
C574 C573 1.419 . S
C574 C575 1.391 . S
C574 C578 1.397 . S
C575 C570 1.391 . S
C575 C574 1.391 . S
C575 C576 1.399 . S
C576 C575 1.399 . S
C576 C577 1.396 . S
C576 C579 1.453 . S
C576 C580 1.684 1_565 S
C577 C567 1.723 . S
C577 C576 1.396 . S
C577 C578 1.394 . S
C578 C548 1.723 . S
C578 C574 1.397 . S
C578 C577 1.394 . S
C579 H551 0.982 . S
C579 H555 0.979 1_565 S
C579 H556 0.977 1_565 S
C579 C576 1.453 . S
C580 H552 0.979 . S
C580 H553 0.980 . S
C580 H554 0.983 . S
C580 C576 1.684 1_545 S
H581 C599 0.948 . S
H582 C540 0.948 . S
H583 C558 0.979 . S
H584 C558 0.980 . S
H585 C558 0.983 . S
H586 C557 0.982 . S
H587 C557 0.979 . S
H588 C557 0.977 . S
H589 C559 0.948 . S
H590 C561 0.947 . S
H591 C562 0.948 . S
H592 C568 0.982 . S
H593 C568 0.979 . S
H594 C568 0.977 . S
H595 C569 0.979 . S
H596 C569 0.980 . S
H597 C569 0.983 . S
H598 C542 0.947 . S
C599 C542 1.392 . S
C599 C543 1.419 . S
C599 H581 0.948 . S
C600 C601 1.391 . S
C600 C604 1.391 . S
C600 H642 0.948 . S
C601 C600 1.391 . S
C601 C602 1.391 . S
C602 C601 1.391 . S
C602 H658 0.947 . S
C602 C659 1.392 . S
C603 C604 1.391 . S
C603 C607 1.397 . S
C603 C659 1.419 . S
C604 C600 1.391 . S
C604 C603 1.391 . S
C604 C605 1.399 . S
C605 C604 1.399 . S
C605 C608 1.396 . S
C605 C617 1.453 . S
C605 C618 1.684 . S
H606 C630 0.948 . S
C607 C603 1.397 . S
C607 C608 1.394 . S
C607 C626 1.723 . S
C608 C605 1.396 . S
C608 C607 1.394 . S
C608 C638 1.723 . S
H609 C632 0.947 . S
H610 C633 0.948 . S
H611 C639 0.982 . S
H612 C640 0.979 . S
H613 C640 0.980 . S
H614 C640 0.983 . S
H615 C639 0.979 . S
H616 C639 0.977 . S
C617 C605 1.453 . S
C617 H646 0.982 . S
C617 H647 0.979 . S
C617 H648 0.977 . S
C618 C605 1.684 . S
C618 H643 0.979 . S
C618 H644 0.980 . S
C618 H645 0.983 . S
C619 C620 1.391 . S
C619 C624 1.391 . S
C619 H649 0.948 . S
C620 C619 1.391 . S
C620 C621 1.391 . S
C621 C620 1.391 . S
C621 C622 1.392 . S
C621 H650 0.947 . S
C622 C621 1.392 . S
C622 C623 1.419 . S
C622 H651 0.948 . S
C623 C622 1.419 . S
C623 C624 1.391 . S
C623 C627 1.397 . S
C624 C619 1.391 . S
C624 C623 1.391 . S
C624 C625 1.399 . S
C625 C624 1.399 . S
C625 C626 1.396 . S
C625 C628 1.453 . S
C625 C629 1.684 . S
C626 C607 1.723 . S
C626 C625 1.396 . S
C626 C627 1.394 . S
C627 C623 1.397 . S
C627 C626 1.394 . S
C627 C637 1.723 . S
C628 C625 1.453 . S
C628 H652 0.982 . S
C628 H653 0.979 . S
C628 H654 0.977 . S
C629 C625 1.684 . S
C629 H655 0.979 . S
C629 H656 0.980 . S
C629 H657 0.983 . S
C630 H606 0.948 . S
C630 C631 1.391 . S
C630 C635 1.391 . S
C631 C630 1.391 . S
C631 C632 1.391 . S
C632 H609 0.947 . S
C632 C631 1.391 . S
C632 C633 1.392 . S
C633 H610 0.948 . S
C633 C632 1.392 . S
C633 C634 1.419 . S
C634 C633 1.419 . S
C634 C635 1.391 . S
C634 C638 1.397 . S
C635 C630 1.391 . S
C635 C634 1.391 . S
C635 C636 1.399 . S
C636 C635 1.399 . S
C636 C637 1.396 . S
C636 C639 1.453 . S
C636 C640 1.684 . S
C637 C627 1.723 . S
C637 C636 1.396 . S
C637 C638 1.394 . S
C638 C608 1.723 . S
C638 C634 1.397 . S
C638 C637 1.394 . S
C639 H611 0.982 . S
C639 H615 0.979 . S
C639 H616 0.977 . S
C639 C636 1.453 . S
C640 H612 0.979 . S
C640 H613 0.980 . S
C640 H614 0.983 . S
C640 C636 1.684 . S
H641 C659 0.948 . S
H642 C600 0.948 . S
H643 C618 0.979 . S
H644 C618 0.980 . S
H645 C618 0.983 . S
H646 C617 0.982 . S
H647 C617 0.979 . S
H648 C617 0.977 . S
H649 C619 0.948 . S
H650 C621 0.947 . S
H651 C622 0.948 . S
H652 C628 0.982 . S
H653 C628 0.979 . S
H654 C628 0.977 . S
H655 C629 0.979 . S
H656 C629 0.980 . S
H657 C629 0.983 . S
H658 C602 0.947 . S
C659 C602 1.392 . S
C659 C603 1.419 . S
C659 H641 0.948 . S
C660 C661 1.391 . S
C660 C664 1.391 . S
C660 H702 0.948 . S
C661 C660 1.391 . S
C661 C662 1.391 . S
C662 C661 1.391 . S
C662 H718 0.947 . S
C662 C719 1.392 . S
C663 C664 1.391 . S
C663 C667 1.397 . S
C663 C719 1.419 . S
C664 C660 1.391 . S
C664 C663 1.391 . S
C664 C665 1.399 . S
C665 C664 1.399 . S
C665 C668 1.396 . S
C665 C677 1.453 . S
C665 C678 1.684 . S
H666 C690 0.948 . S
C667 C663 1.397 . S
C667 C668 1.394 . S
C667 C686 1.723 . S
C668 C665 1.396 . S
C668 C667 1.394 . S
C668 C698 1.723 . S
H669 C692 0.947 . S
H670 C693 0.948 . S
H671 C699 0.982 . S
H672 C700 0.979 . S
H673 C700 0.980 . S
H674 C700 0.983 . S
H675 C699 0.979 . S
H676 C699 0.977 . S
C677 C665 1.453 . S
C677 H706 0.982 . S
C677 H707 0.979 . S
C677 H708 0.977 . S
C678 C665 1.684 . S
C678 H703 0.979 . S
C678 H704 0.980 . S
C678 H705 0.983 . S
C679 C680 1.391 . S
C679 C684 1.391 . S
C679 H709 0.948 . S
C680 C679 1.391 . S
C680 C681 1.391 . S
C681 C680 1.391 . S
C681 C682 1.392 . S
C681 H710 0.947 . S
C682 C681 1.392 . S
C682 C683 1.419 . S
C682 H711 0.948 . S
C683 C682 1.419 . S
C683 C684 1.391 . S
C683 C687 1.397 . S
C684 C679 1.391 . S
C684 C683 1.391 . S
C684 C685 1.399 . S
C685 C684 1.399 . S
C685 C686 1.396 . S
C685 C688 1.453 . S
C685 C689 1.684 . S
C686 C667 1.723 . S
C686 C685 1.396 . S
C686 C687 1.394 . S
C687 C683 1.397 . S
C687 C686 1.394 . S
C687 C697 1.723 . S
C688 C685 1.453 . S
C688 H712 0.982 . S
C688 H713 0.979 . S
C688 H714 0.977 . S
C689 C685 1.684 . S
C689 H715 0.979 . S
C689 H716 0.980 . S
C689 H717 0.983 . S
C690 H666 0.948 . S
C690 C691 1.391 . S
C690 C695 1.391 . S
C691 C690 1.391 . S
C691 C692 1.391 . S
C692 H669 0.947 . S
C692 C691 1.391 . S
C692 C693 1.392 . S
C693 H670 0.948 . S
C693 C692 1.392 . S
C693 C694 1.419 . S
C694 C693 1.419 . S
C694 C695 1.391 . S
C694 C698 1.397 . S
C695 C690 1.391 . S
C695 C694 1.391 . S
C695 C696 1.399 . S
C696 C695 1.399 . S
C696 C697 1.396 . S
C696 C699 1.453 . S
C696 C700 1.684 . S
C697 C687 1.723 . S
C697 C696 1.396 . S
C697 C698 1.394 . S
C698 C668 1.723 . S
C698 C694 1.397 . S
C698 C697 1.394 . S
C699 H671 0.982 . S
C699 H675 0.979 . S
C699 H676 0.977 . S
C699 C696 1.453 . S
C700 H672 0.979 . S
C700 H673 0.980 . S
C700 H674 0.983 . S
C700 C696 1.684 . S
H701 C719 0.948 . S
H702 C660 0.948 . S
H703 C678 0.979 . S
H704 C678 0.980 . S
H705 C678 0.983 . S
H706 C677 0.982 . S
H707 C677 0.979 . S
H708 C677 0.977 . S
H709 C679 0.948 . S
H710 C681 0.947 . S
H711 C682 0.948 . S
H712 C688 0.982 . S
H713 C688 0.979 . S
H714 C688 0.977 . S
H715 C689 0.979 . S
H716 C689 0.980 . S
H717 C689 0.983 . S
H718 C662 0.947 . S
C719 C662 1.392 . S
C719 C663 1.419 . S
C719 H701 0.948 . S
C720 C721 1.391 . S
C720 C724 1.391 . S
C720 H762 0.948 . S
C721 C720 1.391 . S
C721 C722 1.391 . S
C722 C721 1.391 . S
C722 H778 0.947 . S
C722 C779 1.392 . S
C723 C724 1.391 . S
C723 C727 1.397 . S
C723 C779 1.419 . S
C724 C720 1.391 . S
C724 C723 1.391 . S
C724 C725 1.399 . S
C725 C724 1.399 . S
C725 C728 1.396 . S
C725 C737 1.453 . S
C725 C738 1.684 . S
H726 C750 0.948 . S
C727 C723 1.397 . S
C727 C728 1.394 . S
C727 C746 1.723 . S
C728 C725 1.396 . S
C728 C727 1.394 . S
C728 C758 1.723 . S
H729 C752 0.947 . S
H730 C753 0.948 . S
H731 C759 0.982 . S
H732 C760 0.979 . S
H733 C760 0.980 . S
H734 C760 0.983 . S
H735 C759 0.979 . S
H736 C759 0.977 . S
C737 C725 1.453 . S
C737 H766 0.982 . S
C737 H767 0.979 . S
C737 H768 0.977 . S
C738 C725 1.684 . S
C738 H763 0.979 . S
C738 H764 0.980 . S
C738 H765 0.983 . S
C739 C740 1.391 . S
C739 C744 1.391 . S
C739 H769 0.948 . S
C740 C739 1.391 . S
C740 C741 1.391 . S
C741 C740 1.391 . S
C741 C742 1.392 . S
C741 H770 0.947 . S
C742 C741 1.392 . S
C742 C743 1.419 . S
C742 H771 0.948 . S
C743 C742 1.419 . S
C743 C744 1.391 . S
C743 C747 1.397 . S
C744 C739 1.391 . S
C744 C743 1.391 . S
C744 C745 1.399 . S
C745 C744 1.399 . S
C745 C746 1.396 . S
C745 C748 1.453 . S
C745 C749 1.684 . S
C746 C727 1.723 . S
C746 C745 1.396 . S
C746 C747 1.394 . S
C747 C743 1.397 . S
C747 C746 1.394 . S
C747 C757 1.723 . S
C748 C745 1.453 . S
C748 H772 0.982 . S
C748 H773 0.979 . S
C748 H774 0.977 . S
C749 C745 1.684 . S
C749 H775 0.979 . S
C749 H776 0.980 . S
C749 H777 0.983 . S
C750 H726 0.948 . S
C750 C751 1.391 . S
C750 C755 1.391 . S
C751 C750 1.391 . S
C751 C752 1.391 . S
C752 H729 0.947 . S
C752 C751 1.391 . S
C752 C753 1.392 . S
C753 H730 0.948 . S
C753 C752 1.392 . S
C753 C754 1.419 . S
C754 C753 1.419 . S
C754 C755 1.391 . S
C754 C758 1.397 . S
C755 C750 1.391 . S
C755 C754 1.391 . S
C755 C756 1.399 . S
C756 C755 1.399 . S
C756 C757 1.396 . S
C756 C759 1.453 . S
C756 C760 1.684 . S
C757 C747 1.723 . S
C757 C756 1.396 . S
C757 C758 1.394 . S
C758 C728 1.723 . S
C758 C754 1.397 . S
C758 C757 1.394 . S
C759 H731 0.982 . S
C759 H735 0.979 . S
C759 H736 0.977 . S
C759 C756 1.453 . S
C760 H732 0.979 . S
C760 H733 0.980 . S
C760 H734 0.983 . S
C760 C756 1.684 . S
H761 C779 0.948 . S
H762 C720 0.948 . S
H763 C738 0.979 . S
H764 C738 0.980 . S
H765 C738 0.983 . S
H766 C737 0.982 . S
H767 C737 0.979 . S
H768 C737 0.977 . S
H769 C739 0.948 . S
H770 C741 0.947 . S
H771 C742 0.948 . S
H772 C748 0.982 . S
H773 C748 0.979 . S
H774 C748 0.977 . S
H775 C749 0.979 . S
H776 C749 0.980 . S
H777 C749 0.983 . S
H778 C722 0.947 . S
C779 C722 1.392 . S
C779 C723 1.419 . S
C779 H761 0.948 . S
C780 C781 1.391 . S
C780 C784 1.391 . S
C780 H822 0.948 . S
C781 C780 1.391 . S
C781 C782 1.371 1_554 S
C782 C781 1.371 1_556 S
C782 H838 0.949 . S
C782 C839 1.411 . S
C783 C784 1.391 1_556 S
C783 C787 1.397 . S
C783 C839 1.419 . S
C784 C780 1.391 . S
C784 C783 1.391 1_554 S
C784 C785 1.399 . S
C785 C784 1.399 . S
C785 C788 1.396 1_554 S
C785 C797 1.453 . S
C785 C798 1.684 . S
H786 C810 0.948 . S
C787 C783 1.397 . S
C787 C788 1.394 . S
C787 C806 1.723 . S
C788 C785 1.396 1_556 S
C788 C787 1.394 . S
C788 C818 1.723 . S
H789 C812 0.947 1_554 S
H790 C813 0.948 1_554 S
H791 C819 0.982 . S
H792 C820 0.979 . S
H793 C820 0.980 . S
H794 C820 0.983 . S
H795 C819 0.979 . S
H796 C819 0.977 . S
C797 C785 1.453 . S
C797 H826 0.982 . S
C797 H827 0.979 . S
C797 H828 0.977 . S
C798 C785 1.684 . S
C798 H823 0.979 1_554 S
C798 H824 0.980 . S
C798 H825 0.983 . S
C799 C800 1.391 . S
C799 C804 1.391 . S
C799 H829 0.948 . S
C800 C799 1.391 . S
C800 C801 1.391 . S
C801 C800 1.391 . S
C801 C802 1.392 . S
C801 H830 0.947 . S
C802 C801 1.392 . S
C802 C803 1.419 . S
C802 H831 0.948 . S
C803 C802 1.419 . S
C803 C804 1.391 . S
C803 C807 1.397 . S
C804 C799 1.391 . S
C804 C803 1.391 . S
C804 C805 1.399 . S
C805 C804 1.399 . S
C805 C806 1.396 . S
C805 C808 1.453 . S
C805 C809 1.684 . S
C806 C787 1.723 . S
C806 C805 1.396 . S
C806 C807 1.394 . S
C807 C803 1.397 . S
C807 C806 1.394 . S
C807 C817 1.723 . S
C808 C805 1.453 . S
C808 H832 0.982 . S
C808 H833 0.979 . S
C808 H834 0.977 . S
C809 C805 1.684 . S
C809 H835 0.979 . S
C809 H836 0.980 . S
C809 H837 0.983 . S
C810 H786 0.948 . S
C810 C811 1.391 . S
C810 C815 1.391 . S
C811 C810 1.391 . S
C811 C812 1.391 . S
C812 H789 0.947 1_556 S
C812 C811 1.391 . S
C812 C813 1.392 . S
C813 H790 0.948 1_556 S
C813 C812 1.392 . S
C813 C814 1.419 . S
C814 C813 1.419 . S
C814 C815 1.391 . S
C814 C818 1.397 . S
C815 C810 1.391 . S
C815 C814 1.391 . S
C815 C816 1.399 . S
C816 C815 1.399 . S
C816 C817 1.396 . S
C816 C819 1.453 . S
C816 C820 1.684 . S
C817 C807 1.723 . S
C817 C816 1.396 . S
C817 C818 1.394 . S
C818 C788 1.723 . S
C818 C814 1.397 . S
C818 C817 1.394 . S
C819 H791 0.982 . S
C819 H795 0.979 . S
C819 H796 0.977 . S
C819 C816 1.453 . S
C820 H792 0.979 . S
C820 H793 0.980 . S
C820 H794 0.983 . S
C820 C816 1.684 . S
H821 C839 0.948 . S
H822 C780 0.948 . S
H823 C798 0.979 1_556 S
H824 C798 0.980 . S
H825 C798 0.983 . S
H826 C797 0.982 . S
H827 C797 0.979 . S
H828 C797 0.977 . S
H829 C799 0.948 . S
H830 C801 0.947 . S
H831 C802 0.948 . S
H832 C808 0.982 . S
H833 C808 0.979 . S
H834 C808 0.977 . S
H835 C809 0.979 . S
H836 C809 0.980 . S
H837 C809 0.983 . S
H838 C782 0.949 . S
C839 C782 1.411 . S
C839 C783 1.419 . S
C839 H821 0.948 . S
C840 C841 1.391 . S
C840 C844 1.391 . S
C840 H882 0.948 . S
C841 C840 1.391 . S
C841 C842 1.391 . S
C842 C841 1.391 . S
C842 H898 0.947 . S
C842 C899 1.392 . S
C843 C844 1.391 . S
C843 C847 1.397 . S
C843 C899 1.419 . S
C844 C840 1.391 . S
C844 C843 1.391 . S
C844 C845 1.399 . S
C845 C844 1.399 . S
C845 C848 1.396 . S
C845 C857 1.453 . S
C845 C858 1.684 . S
H846 C870 0.948 . S
C847 C843 1.397 . S
C847 C848 1.394 . S
C847 C866 1.723 . S
C848 C845 1.396 . S
C848 C847 1.394 . S
C848 C878 1.723 . S
H849 C872 0.947 . S
H850 C873 0.948 . S
H851 C879 0.982 . S
H852 C880 0.979 . S
H853 C880 0.980 . S
H854 C880 0.983 . S
H855 C879 0.979 . S
H856 C879 0.977 . S
C857 C845 1.453 . S
C857 H886 0.982 . S
C857 H887 0.979 . S
C857 H888 0.977 . S
C858 C845 1.684 . S
C858 H883 0.979 . S
C858 H884 0.980 . S
C858 H885 0.983 . S
C859 C860 1.391 . S
C859 C864 1.391 . S
C859 H889 0.948 . S
C860 C859 1.391 . S
C860 C861 1.391 . S
C861 C860 1.391 . S
C861 C862 1.392 . S
C861 H890 0.947 . S
C862 C861 1.392 . S
C862 C863 1.419 . S
C862 H891 0.948 . S
C863 C862 1.419 . S
C863 C864 1.391 . S
C863 C867 1.397 . S
C864 C859 1.391 . S
C864 C863 1.391 . S
C864 C865 1.399 . S
C865 C864 1.399 . S
C865 C866 1.396 . S
C865 C868 1.453 . S
C865 C869 1.684 . S
C866 C847 1.723 . S
C866 C865 1.396 . S
C866 C867 1.394 . S
C867 C863 1.397 . S
C867 C866 1.394 . S
C867 C877 1.723 . S
C868 C865 1.453 . S
C868 H892 0.982 . S
C868 H893 0.979 . S
C868 H894 0.977 . S
C869 C865 1.684 . S
C869 H895 0.979 . S
C869 H896 0.980 . S
C869 H897 0.983 . S
C870 H846 0.948 . S
C870 C871 1.391 . S
C870 C875 1.391 . S
C871 C870 1.391 . S
C871 C872 1.391 . S
C872 H849 0.947 . S
C872 C871 1.391 . S
C872 C873 1.392 . S
C873 H850 0.948 . S
C873 C872 1.392 . S
C873 C874 1.419 . S
C874 C873 1.419 . S
C874 C875 1.391 . S
C874 C878 1.397 . S
C875 C870 1.391 . S
C875 C874 1.391 . S
C875 C876 1.399 . S
C876 C875 1.399 . S
C876 C877 1.396 . S
C876 C879 1.453 . S
C876 C880 1.684 . S
C877 C867 1.723 . S
C877 C876 1.396 . S
C877 C878 1.394 . S
C878 C848 1.723 . S
C878 C874 1.397 . S
C878 C877 1.394 . S
C879 H851 0.982 . S
C879 H855 0.979 . S
C879 H856 0.977 . S
C879 C876 1.453 . S
C880 H852 0.979 . S
C880 H853 0.980 . S
C880 H854 0.983 . S
C880 C876 1.684 . S
H881 C899 0.948 . S
H882 C840 0.948 . S
H883 C858 0.979 . S
H884 C858 0.980 . S
H885 C858 0.983 . S
H886 C857 0.982 . S
H887 C857 0.979 . S
H888 C857 0.977 . S
H889 C859 0.948 . S
H890 C861 0.947 . S
H891 C862 0.948 . S
H892 C868 0.982 . S
H893 C868 0.979 . S
H894 C868 0.977 . S
H895 C869 0.979 . S
H896 C869 0.980 . S
H897 C869 0.983 . S
H898 C842 0.947 . S
C899 C842 1.392 . S
C899 C843 1.419 . S
C899 H881 0.948 . S
C900 C901 1.391 1_545 S
C900 C904 1.391 . S
C900 H942 0.948 . S
C901 C900 1.391 1_565 S
C901 C902 1.391 . S
C902 C901 1.391 . S
C902 H958 0.947 . S
C902 C959 1.392 . S
C903 C904 1.391 . S
C903 C907 1.397 . S
C903 C959 1.419 1_545 S
C904 C900 1.391 . S
C904 C903 1.391 . S
C904 C905 1.399 . S
C905 C904 1.399 . S
C905 C908 1.396 . S
C905 C917 1.453 . S
C905 C918 1.684 1_556 S
H906 C930 0.941 1_556 S
C907 C903 1.397 . S
C907 C908 1.394 . S
C907 C926 1.723 . S
C908 C905 1.396 . S
C908 C907 1.394 . S
C908 C938 1.723 . S
H909 C932 0.947 . S
H910 C933 0.948 . S
H911 C939 0.982 . S
H912 C940 0.979 . S
H913 C940 0.980 . S
H914 C940 0.983 . S
H915 C939 0.979 . S
H916 C939 0.977 . S
C917 C905 1.453 . S
C917 H946 0.982 . S
C917 H947 0.977 . S
C917 H948 0.977 . S
C918 C905 1.684 1_554 S
C918 H943 0.979 . S
C918 H944 0.980 . S
C918 H945 0.983 . S
C919 C920 1.391 . S
C919 C924 1.391 . S
C919 H949 0.948 . S
C920 C919 1.391 . S
C920 C921 1.391 . S
C921 C920 1.391 . S
C921 C922 1.392 . S
C921 H950 0.947 . S
C922 C921 1.392 . S
C922 C923 1.419 . S
C922 H951 0.948 . S
C923 C922 1.419 . S
C923 C924 1.391 . S
C923 C927 1.397 . S
C924 C919 1.391 . S
C924 C923 1.391 . S
C924 C925 1.399 . S
C925 C924 1.399 . S
C925 C926 1.396 . S
C925 C928 1.453 . S
C925 C929 1.684 1_545 S
C926 C907 1.723 . S
C926 C925 1.396 . S
C926 C927 1.394 . S
C927 C923 1.397 . S
C927 C926 1.394 . S
C927 C937 1.723 . S
C928 C925 1.453 . S
C928 H952 0.982 . S
C928 H953 0.979 . S
C928 H954 0.977 . S
C929 C925 1.684 1_565 S
C929 H955 0.979 . S
C929 H956 0.980 . S
C929 H957 0.983 . S
C930 H906 0.941 1_554 S
C930 C931 1.416 . S
C930 C935 1.375 1_554 S
C931 C930 1.416 . S
C931 C932 1.391 . S
C932 H909 0.947 . S
C932 C931 1.391 . S
C932 C933 1.392 . S
C933 H910 0.948 . S
C933 C932 1.392 . S
C933 C934 1.419 1_554 S
C934 C933 1.419 1_556 S
C934 C935 1.391 . S
C934 C938 1.397 . S
C935 C930 1.375 1_556 S
C935 C934 1.391 . S
C935 C936 1.399 . S
C936 C935 1.399 . S
C936 C937 1.396 . S
C936 C939 1.453 . S
C936 C940 1.684 . S
C937 C927 1.723 . S
C937 C936 1.396 . S
C937 C938 1.394 . S
C938 C908 1.723 . S
C938 C934 1.397 . S
C938 C937 1.394 . S
C939 H911 0.982 . S
C939 H915 0.979 . S
C939 H916 0.977 . S
C939 C936 1.453 . S
C940 H912 0.979 . S
C940 H913 0.980 . S
C940 H914 0.983 . S
C940 C936 1.684 . S
H941 C959 0.948 . S
H942 C900 0.948 . S
H943 C918 0.979 . S
H944 C918 0.980 . S
H945 C918 0.983 . S
H946 C917 0.982 . S
H947 C917 0.977 . S
H948 C917 0.977 . S
H949 C919 0.948 . S
H950 C921 0.947 . S
H951 C922 0.948 . S
H952 C928 0.982 . S
H953 C928 0.979 . S
H954 C928 0.977 . S
H955 C929 0.979 . S
H956 C929 0.980 . S
H957 C929 0.983 . S
H958 C902 0.947 . S
C959 C902 1.392 . S
C959 C903 1.419 1_565 S
C959 H941 0.948 . S
Zn960 O963 2.024 1_556 S
Zn960 O965 2.055 . S
Zn960 O970 2.078 . S
Zn961 O962 1.962 . S
Zn961 O964 1.986 . S
Zn961 O966 1.996 . S
Zn961 O969 1.943 1_554 S
O962 Zn961 1.962 . S
O962 C967 1.254 . S
O963 Zn960 2.024 1_554 S
O963 C967 1.269 . S
O964 Zn961 1.986 . S
O964 C971 1.262 . S
O965 Zn960 2.055 . S
O965 C973 1.260 . S
O966 Zn961 1.996 . S
O966 C973 1.257 1_554 S
C967 O962 1.254 . S
C967 O963 1.269 . S
C968 O969 1.249 . S
C968 O970 1.270 . S
O969 Zn961 1.943 1_556 S
O969 C968 1.249 . S
O970 Zn960 2.078 . S
O970 C968 1.270 . S
C971 O964 1.262 . S
C971 O972 1.232 . S
O972 C971 1.232 . S
C973 O965 1.260 . S
C973 O966 1.257 1_556 S
Zn974 O977 2.031 . S
Zn974 O979 2.049 . S
Zn974 O984 2.067 . S
Zn975 O976 1.962 . S
Zn975 O978 1.986 . S
Zn975 O980 1.996 . S
Zn975 O983 1.943 . S
O976 Zn975 1.962 . S
O976 C981 1.254 . S
O977 Zn974 2.031 . S
O977 C981 1.269 . S
O978 Zn975 1.986 . S
O978 C985 1.262 . S
O979 Zn974 2.049 . S
O979 C987 1.260 . S
O980 Zn975 1.996 . S
O980 C987 1.257 . S
C981 O976 1.254 . S
C981 O977 1.269 . S
C982 O983 1.249 . S
C982 O984 1.270 . S
O983 Zn975 1.943 . S
O983 C982 1.249 . S
O984 Zn974 2.067 . S
O984 C982 1.270 . S
C985 O978 1.262 . S
C985 O986 1.232 . S
O986 C985 1.232 . S
C987 O979 1.260 . S
C987 O980 1.257 . S
Zn988 O991 2.031 . S
Zn988 O993 2.049 . S
Zn988 O998 2.067 . S
Zn989 O990 1.962 . S
Zn989 O992 1.986 . S
Zn989 O994 1.996 1_554 S
Zn989 O997 1.943 . S
O990 Zn989 1.962 . S
O990 C995 1.254 . S
O991 Zn988 2.031 . S
O991 C995 1.269 1_556 S
O992 Zn989 1.986 . S
O992 C999 1.262 . S
O993 Zn988 2.049 . S
O993 C1001 1.260 . S
O994 Zn989 1.996 1_556 S
O994 C1001 1.257 . S
C995 O990 1.254 . S
C995 O991 1.269 1_554 S
C996 O997 1.249 1_556 S
C996 O998 1.270 . S
O997 Zn989 1.943 . S
O997 C996 1.249 1_554 S
O998 Zn988 2.067 . S
O998 C996 1.270 . S
C999 O992 1.262 . S
C999 O1000 1.232 . S
O1000 C999 1.232 . S
C1001 O993 1.260 . S
C1001 O994 1.257 . S
Zn1002 O1005 2.024 1_565 S
Zn1002 O1007 2.055 . S
Zn1002 O1012 2.078 . S
Zn1003 O1004 1.962 . S
Zn1003 O1006 1.986 . S
Zn1003 O1008 1.996 . S
Zn1003 O1011 1.943 1_545 S
O1004 Zn1003 1.962 . S
O1004 C1009 1.254 . S
O1005 Zn1002 2.024 1_545 S
O1005 C1009 1.269 . S
O1006 Zn1003 1.986 . S
O1006 C1013 1.262 . S
O1007 Zn1002 2.055 . S
O1007 C1015 1.260 . S
O1008 Zn1003 1.996 . S
O1008 C1015 1.257 1_545 S
C1009 O1004 1.254 . S
C1009 O1005 1.269 . S
C1010 O1011 1.249 . S
C1010 O1012 1.270 . S
O1011 Zn1003 1.943 1_565 S
O1011 C1010 1.249 . S
O1012 Zn1002 2.078 . S
O1012 C1010 1.270 . S
C1013 O1006 1.262 . S
C1013 O1014 1.232 . S
O1014 C1013 1.232 . S
C1015 O1007 1.260 . S
C1015 O1008 1.257 1_565 S
Zn1016 O1019 2.031 . S
Zn1016 O1021 2.049 . S
Zn1016 O1026 2.067 . S
Zn1017 O1018 1.962 . S
Zn1017 O1020 1.986 . S
Zn1017 O1022 1.996 . S
Zn1017 O1025 1.943 . S
O1018 Zn1017 1.962 . S
O1018 C1023 1.254 . S
O1019 Zn1016 2.031 . S
O1019 C1023 1.269 . S
O1020 Zn1017 1.986 . S
O1020 C1027 1.262 . S
O1021 Zn1016 2.049 . S
O1021 C1029 1.260 . S
O1022 Zn1017 1.996 . S
O1022 C1029 1.257 . S
C1023 O1018 1.254 . S
C1023 O1019 1.269 . S
C1024 O1025 1.249 . S
C1024 O1026 1.270 . S
O1025 Zn1017 1.943 . S
O1025 C1024 1.249 . S
O1026 Zn1016 2.067 . S
O1026 C1024 1.270 . S
C1027 O1020 1.262 . S
C1027 O1028 1.232 . S
O1028 C1027 1.232 . S
C1029 O1021 1.260 . S
C1029 O1022 1.257 . S
Zn1030 O1033 2.031 . S
Zn1030 O1035 2.049 . S
Zn1030 O1040 2.067 . S
Zn1031 O1032 1.962 . S
Zn1031 O1034 1.986 . S
Zn1031 O1036 1.996 . S
Zn1031 O1039 1.943 . S
O1032 Zn1031 1.962 . S
O1032 C1037 1.254 . S
O1033 Zn1030 2.031 . S
O1033 C1037 1.269 . S
O1034 Zn1031 1.986 . S
O1034 C1041 1.262 . S
O1035 Zn1030 2.049 . S
O1035 C1043 1.260 . S
O1036 Zn1031 1.996 . S
O1036 C1043 1.257 . S
C1037 O1032 1.254 . S
C1037 O1033 1.269 . S
C1038 O1039 1.249 . S
C1038 O1040 1.270 . S
O1039 Zn1031 1.943 . S
O1039 C1038 1.249 . S
O1040 Zn1030 2.067 . S
O1040 C1038 1.270 . S
C1041 O1034 1.262 . S
C1041 O1042 1.232 . S
O1042 C1041 1.232 . S
C1043 O1035 1.260 . S
C1043 O1036 1.257 . S
Zn1044 O1047 2.031 . S
Zn1044 O1049 2.049 . S
Zn1044 O1054 2.067 . S
Zn1045 O1046 1.962 . S
Zn1045 O1048 1.986 . S
Zn1045 O1050 1.996 . S
Zn1045 O1053 1.943 . S
O1046 Zn1045 1.962 . S
O1046 C1051 1.254 . S
O1047 Zn1044 2.031 . S
O1047 C1051 1.269 . S
O1048 Zn1045 1.986 . S
O1048 C1055 1.262 . S
O1049 Zn1044 2.049 . S
O1049 C1057 1.260 . S
O1050 Zn1045 1.996 . S
O1050 C1057 1.257 . S
C1051 O1046 1.254 . S
C1051 O1047 1.269 . S
C1052 O1053 1.249 . S
C1052 O1054 1.270 . S
O1053 Zn1045 1.943 . S
O1053 C1052 1.249 . S
O1054 Zn1044 2.067 . S
O1054 C1052 1.270 . S
C1055 O1048 1.262 . S
C1055 O1056 1.232 . S
O1056 C1055 1.232 . S
C1057 O1049 1.260 . S
C1057 O1050 1.257 . S
Zn1058 O1061 2.031 . S
Zn1058 O1063 2.049 . S
Zn1058 O1068 2.067 . S
Zn1059 O1060 1.962 . S
Zn1059 O1062 1.986 . S
Zn1059 O1064 1.996 1_545 S
Zn1059 O1067 1.943 . S
O1060 Zn1059 1.962 . S
O1060 C1065 1.254 . S
O1061 Zn1058 2.031 . S
O1061 C1065 1.269 1_565 S
O1062 Zn1059 1.986 . S
O1062 C1069 1.262 . S
O1063 Zn1058 2.049 . S
O1063 C1071 1.260 . S
O1064 Zn1059 1.996 1_565 S
O1064 C1071 1.257 . S
C1065 O1060 1.254 . S
C1065 O1061 1.269 1_545 S
C1066 O1067 1.249 1_565 S
C1066 O1068 1.270 . S
O1067 Zn1059 1.943 . S
O1067 C1066 1.249 1_545 S
O1068 Zn1058 2.067 . S
O1068 C1066 1.270 . S
C1069 O1062 1.262 . S
C1069 O1070 1.232 . S
O1070 C1069 1.232 . S
C1071 O1063 1.260 . S
C1071 O1064 1.257 . S
Zn1072 O1075 2.024 1_655 S
Zn1072 O1077 2.055 . S
Zn1072 O1082 2.078 . S
Zn1073 O1074 1.962 . S
Zn1073 O1076 1.986 . S
Zn1073 O1078 1.996 . S
Zn1073 O1081 1.943 1_455 S
O1074 Zn1073 1.962 . S
O1074 C1079 1.254 . S
O1075 Zn1072 2.024 1_455 S
O1075 C1079 1.269 . S
O1076 Zn1073 1.986 . S
O1076 C1083 1.262 . S
O1077 Zn1072 2.055 . S
O1077 C1085 1.260 . S
O1078 Zn1073 1.996 . S
O1078 C1085 1.257 1_455 S
C1079 O1074 1.254 . S
C1079 O1075 1.269 . S
C1080 O1081 1.249 . S
C1080 O1082 1.270 . S
O1081 Zn1073 1.943 1_655 S
O1081 C1080 1.249 . S
O1082 Zn1072 2.078 . S
O1082 C1080 1.270 . S
C1083 O1076 1.262 . S
C1083 O1084 1.232 . S
O1084 C1083 1.232 . S
C1085 O1077 1.260 . S
C1085 O1078 1.257 1_655 S
Zn1086 O1089 2.031 . S
Zn1086 O1091 2.049 . S
Zn1086 O1096 2.067 . S
Zn1087 O1088 1.962 . S
Zn1087 O1090 1.986 . S
Zn1087 O1092 1.996 . S
Zn1087 O1095 1.943 . S
O1088 Zn1087 1.962 . S
O1088 C1093 1.254 . S
O1089 Zn1086 2.031 . S
O1089 C1093 1.269 . S
O1090 Zn1087 1.986 . S
O1090 C1097 1.262 . S
O1091 Zn1086 2.049 . S
O1091 C1099 1.260 . S
O1092 Zn1087 1.996 . S
O1092 C1099 1.257 . S
C1093 O1088 1.254 . S
C1093 O1089 1.269 . S
C1094 O1095 1.249 . S
C1094 O1096 1.270 . S
O1095 Zn1087 1.943 . S
O1095 C1094 1.249 . S
O1096 Zn1086 2.067 . S
O1096 C1094 1.270 . S
C1097 O1090 1.262 . S
C1097 O1098 1.232 . S
O1098 C1097 1.232 . S
C1099 O1091 1.260 . S
C1099 O1092 1.257 . S
Zn1100 O1103 2.031 . S
Zn1100 O1105 2.049 . S
Zn1100 O1110 2.067 . S
Zn1101 O1102 1.962 . S
Zn1101 O1104 1.986 . S
Zn1101 O1106 1.996 1_455 S
Zn1101 O1109 1.943 . S
O1102 Zn1101 1.962 . S
O1102 C1107 1.254 . S
O1103 Zn1100 2.031 . S
O1103 C1107 1.269 1_655 S
O1104 Zn1101 1.986 . S
O1104 C1111 1.262 . S
O1105 Zn1100 2.049 . S
O1105 C1113 1.260 . S
O1106 Zn1101 1.996 1_655 S
O1106 C1113 1.257 . S
C1107 O1102 1.254 . S
C1107 O1103 1.269 1_455 S
C1108 O1109 1.249 1_655 S
C1108 O1110 1.270 . S
O1109 Zn1101 1.943 . S
O1109 C1108 1.249 1_455 S
O1110 Zn1100 2.067 . S
O1110 C1108 1.270 . S
C1111 O1104 1.262 . S
C1111 O1112 1.232 . S
O1112 C1111 1.232 . S
C1113 O1105 1.260 . S
C1113 O1106 1.257 . S
Zn1114 O1117 2.031 . S
Zn1114 O1119 2.049 . S
Zn1114 O1124 2.067 . S
Zn1115 O1116 1.962 . S
Zn1115 O1118 1.986 . S
Zn1115 O1120 1.996 . S
Zn1115 O1123 1.943 . S
O1116 Zn1115 1.962 . S
O1116 C1121 1.254 . S
O1117 Zn1114 2.031 . S
O1117 C1121 1.269 . S
O1118 Zn1115 1.986 . S
O1118 C1125 1.262 . S
O1119 Zn1114 2.049 . S
O1119 C1127 1.260 . S
O1120 Zn1115 1.996 . S
O1120 C1127 1.257 . S
C1121 O1116 1.254 . S
C1121 O1117 1.269 . S
C1122 O1123 1.249 . S
C1122 O1124 1.270 . S
O1123 Zn1115 1.943 . S
O1123 C1122 1.249 . S
O1124 Zn1114 2.067 . S
O1124 C1122 1.270 . S
C1125 O1118 1.262 . S
C1125 O1126 1.232 . S
O1126 C1125 1.232 . S
C1127 O1119 1.260 . S
C1127 O1120 1.257 . S
C1128 C1129 1.363 . S
C1128 C1134 1.379 . S
C1128 N1136 1.356 . S
C1129 C1128 1.363 . S
C1129 C1135 1.363 . S
C1130 C1131 1.363 . S
C1130 C1135 1.379 . S
C1130 N1137 1.356 . S
C1131 C1130 1.363 . S
C1131 C1134 1.363 . S
N1132 C1134 1.356 . S
N1132 H1144 0.984 . S
N1132 H1145 0.985 . S
N1133 C1135 1.356 . S
N1133 H1138 0.984 . S
N1133 H1139 0.985 . S
C1134 C1128 1.379 . S
C1134 C1131 1.363 . S
C1134 N1132 1.356 . S
C1135 C1129 1.363 . S
C1135 C1130 1.379 . S
C1135 N1133 1.356 . S
N1136 C1128 1.356 . S
N1136 H1142 0.984 . S
N1136 H1143 0.984 . S
N1137 C1130 1.356 . S
N1137 H1140 0.984 . S
N1137 H1141 0.985 . S
H1138 N1133 0.984 . S
H1139 N1133 0.985 . S
H1140 N1137 0.984 . S
H1141 N1137 0.985 . S
H1142 N1136 0.984 . S
H1143 N1136 0.984 . S
H1144 N1132 0.984 . S
H1145 N1132 0.985 . S
C1146 C1147 1.363 . S
C1146 C1152 1.379 . S
C1146 N1154 1.356 . S
C1147 C1146 1.363 . S
C1147 C1153 1.363 . S
C1148 C1149 1.363 . S
C1148 C1153 1.379 . S
C1148 N1155 1.356 . S
C1149 C1148 1.363 . S
C1149 C1152 1.363 . S
N1150 C1152 1.356 . S
N1150 H1162 0.984 . S
N1150 H1163 0.985 . S
N1151 C1153 1.356 . S
N1151 H1156 0.984 . S
N1151 H1157 0.985 . S
C1152 C1146 1.379 . S
C1152 C1149 1.363 . S
C1152 N1150 1.356 . S
C1153 C1147 1.363 . S
C1153 C1148 1.379 . S
C1153 N1151 1.356 . S
N1154 C1146 1.356 . S
N1154 H1160 0.984 . S
N1154 H1161 0.984 . S
N1155 C1148 1.356 . S
N1155 H1158 0.984 . S
N1155 H1159 0.985 . S
H1156 N1151 0.984 . S
H1157 N1151 0.985 . S
H1158 N1155 0.984 . S
H1159 N1155 0.985 . S
H1160 N1154 0.984 . S
H1161 N1154 0.984 . S
H1162 N1150 0.984 . S
H1163 N1150 0.985 . S
C1164 C1165 1.363 . S
C1164 C1170 1.379 . S
C1164 N1172 1.356 . S
C1165 C1164 1.363 . S
C1165 C1171 1.363 . S
C1166 C1167 1.363 . S
C1166 C1171 1.379 . S
C1166 N1173 1.356 . S
C1167 C1166 1.363 . S
C1167 C1170 1.363 . S
N1168 C1170 1.356 . S
N1168 H1180 0.984 . S
N1168 H1181 0.985 . S
N1169 C1171 1.356 . S
N1169 H1174 0.984 . S
N1169 H1175 0.985 . S
C1170 C1164 1.379 . S
C1170 C1167 1.363 . S
C1170 N1168 1.356 . S
C1171 C1165 1.363 . S
C1171 C1166 1.379 . S
C1171 N1169 1.356 . S
N1172 C1164 1.356 . S
N1172 H1178 0.984 . S
N1172 H1179 0.984 . S
N1173 C1166 1.356 . S
N1173 H1176 0.984 . S
N1173 H1177 0.985 . S
H1174 N1169 0.984 . S
H1175 N1169 0.985 . S
H1176 N1173 0.984 . S
H1177 N1173 0.985 . S
H1178 N1172 0.984 . S
H1179 N1172 0.984 . S
H1180 N1168 0.984 . S
H1181 N1168 0.985 . S
C1182 C1183 1.363 . S
C1182 C1188 1.379 . S
C1182 N1190 1.356 . S
C1183 C1182 1.363 . S
C1183 C1189 1.363 . S
C1184 C1185 1.363 . S
C1184 C1189 1.379 . S
C1184 N1191 1.356 1_565 S
C1185 C1184 1.363 . S
C1185 C1188 1.363 . S
N1186 C1188 1.356 . S
N1186 H1198 0.984 . S
N1186 H1199 0.985 . S
N1187 C1189 1.358 . S
N1187 H1192 0.987 . S
N1187 H1193 0.981 1_565 S
C1188 C1182 1.379 . S
C1188 C1185 1.363 . S
C1188 N1186 1.356 . S
C1189 C1183 1.363 . S
C1189 C1184 1.379 . S
C1189 N1187 1.358 . S
N1190 C1182 1.356 . S
N1190 H1196 0.984 . S
N1190 H1197 0.984 . S
N1191 C1184 1.356 1_545 S
N1191 H1194 0.984 . S
N1191 H1195 0.985 . S
H1192 N1187 0.987 . S
H1193 N1187 0.981 1_545 S
H1194 N1191 0.984 . S
H1195 N1191 0.985 . S
H1196 N1190 0.984 . S
H1197 N1190 0.984 . S
H1198 N1186 0.984 . S
H1199 N1186 0.985 . S
C1200 C1201 1.363 . S
C1200 C1206 1.379 . S
C1200 N1208 1.356 . S
C1201 C1200 1.363 . S
C1201 C1207 1.363 . S
C1202 C1203 1.363 . S
C1202 C1207 1.379 . S
C1202 N1209 1.356 . S
C1203 C1202 1.363 . S
C1203 C1206 1.363 . S
N1204 C1206 1.356 . S
N1204 H1216 0.984 . S
N1204 H1217 0.985 . S
N1205 C1207 1.356 . S
N1205 H1210 0.984 . S
N1205 H1211 0.985 . S
C1206 C1200 1.379 . S
C1206 C1203 1.363 . S
C1206 N1204 1.356 . S
C1207 C1201 1.363 . S
C1207 C1202 1.379 . S
C1207 N1205 1.356 . S
N1208 C1200 1.356 . S
N1208 H1214 0.984 . S
N1208 H1215 0.984 . S
N1209 C1202 1.356 . S
N1209 H1212 0.984 . S
N1209 H1213 0.985 . S
H1210 N1205 0.984 . S
H1211 N1205 0.985 . S
H1212 N1209 0.984 . S
H1213 N1209 0.985 . S
H1214 N1208 0.984 . S
H1215 N1208 0.984 . S
H1216 N1204 0.984 . S
H1217 N1204 0.985 . S
C1218 C1219 1.363 . S
C1218 C1224 1.379 . S
C1218 N1226 1.356 . S
C1219 C1218 1.363 . S
C1219 C1225 1.363 . S
C1220 C1221 1.363 . S
C1220 C1225 1.379 . S
C1220 N1227 1.356 . S
C1221 C1220 1.363 . S
C1221 C1224 1.363 . S
N1222 C1224 1.356 . S
N1222 H1234 0.984 . S
N1222 H1235 0.985 . S
N1223 C1225 1.356 . S
N1223 H1228 0.984 . S
N1223 H1229 0.985 . S
C1224 C1218 1.379 . S
C1224 C1221 1.363 . S
C1224 N1222 1.356 . S
C1225 C1219 1.363 . S
C1225 C1220 1.379 . S
C1225 N1223 1.356 . S
N1226 C1218 1.356 . S
N1226 H1232 0.984 . S
N1226 H1233 0.984 . S
N1227 C1220 1.356 . S
N1227 H1230 0.984 . S
N1227 H1231 0.985 . S
H1228 N1223 0.984 . S
H1229 N1223 0.985 . S
H1230 N1227 0.984 . S
H1231 N1227 0.985 . S
H1232 N1226 0.984 . S
H1233 N1226 0.984 . S
H1234 N1222 0.984 . S
H1235 N1222 0.985 . S
C1236 C1237 1.363 . S
C1236 C1242 1.379 . S
C1236 N1244 1.356 . S
C1237 C1236 1.363 . S
C1237 C1243 1.363 . S
C1238 C1239 1.363 . S
C1238 C1243 1.379 . S
C1238 N1245 1.356 . S
C1239 C1238 1.363 . S
C1239 C1242 1.363 . S
N1240 C1242 1.356 . S
N1240 H1252 0.984 . S
N1240 H1253 0.985 . S
N1241 C1243 1.356 . S
N1241 H1246 0.984 . S
N1241 H1247 0.985 . S
C1242 C1236 1.379 . S
C1242 C1239 1.363 . S
C1242 N1240 1.356 . S
C1243 C1237 1.363 . S
C1243 C1238 1.379 . S
C1243 N1241 1.356 . S
N1244 C1236 1.356 . S
N1244 H1250 0.984 . S
N1244 H1251 0.984 . S
N1245 C1238 1.356 . S
N1245 H1248 0.984 . S
N1245 H1249 0.985 . S
H1246 N1241 0.984 . S
H1247 N1241 0.985 . S
H1248 N1245 0.984 . S
H1249 N1245 0.985 . S
H1250 N1244 0.984 . S
H1251 N1244 0.984 . S
H1252 N1240 0.984 . S
H1253 N1240 0.985 . S
C1254 C1255 1.363 . S
C1254 C1260 1.379 . S
C1254 N1262 1.356 . S
C1255 C1254 1.363 . S
C1255 C1261 1.363 1_565 S
C1256 C1257 1.363 1_545 S
C1256 C1261 1.379 . S
C1256 N1263 1.356 . S
C1257 C1256 1.363 1_565 S
C1257 C1260 1.363 . S
N1258 C1260 1.356 . S
N1258 H1270 0.984 . S
N1258 H1271 0.985 . S
N1259 C1261 1.356 . S
N1259 H1264 0.984 . S
N1259 H1265 0.985 . S
C1260 C1254 1.379 . S
C1260 C1257 1.363 . S
C1260 N1258 1.356 . S
C1261 C1255 1.363 1_545 S
C1261 C1256 1.379 . S
C1261 N1259 1.356 . S
N1262 C1254 1.356 . S
N1262 H1268 0.984 . S
N1262 H1269 0.984 . S
N1263 C1256 1.356 . S
N1263 H1266 0.984 . S
N1263 H1267 0.985 . S
H1264 N1259 0.984 . S
H1265 N1259 0.985 . S
H1266 N1263 0.984 . S
H1267 N1263 0.985 . S
H1268 N1262 0.984 . S
H1269 N1262 0.984 . S
H1270 N1258 0.984 . S
H1271 N1258 0.985 . S
C1272 C1273 1.363 . S
C1272 C1278 1.379 . S
C1272 N1280 1.356 . S
C1273 C1272 1.363 . S
C1273 C1279 1.363 . S
C1274 C1275 1.363 . S
C1274 C1279 1.379 . S
C1274 N1281 1.356 . S
C1275 C1274 1.363 . S
C1275 C1278 1.363 . S
N1276 C1278 1.356 . S
N1276 H1288 0.984 . S
N1276 H1289 0.985 . S
N1277 C1279 1.356 . S
N1277 H1282 0.984 . S
N1277 H1283 0.985 . S
C1278 C1272 1.379 . S
C1278 C1275 1.363 . S
C1278 N1276 1.356 . S
C1279 C1273 1.363 . S
C1279 C1274 1.379 . S
C1279 N1277 1.356 . S
N1280 C1272 1.356 . S
N1280 H1286 0.984 . S
N1280 H1287 0.984 . S
N1281 C1274 1.356 . S
N1281 H1284 0.984 . S
N1281 H1285 0.985 . S
H1282 N1277 0.984 . S
H1283 N1277 0.985 . S
H1284 N1281 0.984 . S
H1285 N1281 0.985 . S
H1286 N1280 0.984 . S
H1287 N1280 0.984 . S
H1288 N1276 0.984 . S
H1289 N1276 0.985 . S
C1290 C1291 1.363 . S
C1290 C1296 1.379 . S
C1290 N1298 1.356 . S
C1291 C1290 1.363 . S
C1291 C1297 1.363 . S
C1292 C1293 1.363 . S
C1292 C1297 1.379 . S
C1292 N1299 1.356 . S
C1293 C1292 1.363 . S
C1293 C1296 1.363 . S
N1294 C1296 1.356 . S
N1294 H1306 0.984 . S
N1294 H1307 0.985 . S
N1295 C1297 1.356 . S
N1295 H1300 0.984 . S
N1295 H1301 0.985 . S
C1296 C1290 1.379 . S
C1296 C1293 1.363 . S
C1296 N1294 1.356 . S
C1297 C1291 1.363 . S
C1297 C1292 1.379 . S
C1297 N1295 1.356 . S
N1298 C1290 1.356 . S
N1298 H1304 0.984 . S
N1298 H1305 0.984 . S
N1299 C1292 1.356 . S
N1299 H1302 0.984 . S
N1299 H1303 0.985 . S
H1300 N1295 0.984 . S
H1301 N1295 0.985 . S
H1302 N1299 0.984 . S
H1303 N1299 0.985 . S
H1304 N1298 0.984 . S
H1305 N1298 0.984 . S
H1306 N1294 0.984 . S
H1307 N1294 0.985 . S
C1308 C1309 1.363 . S
C1308 C1314 1.379 . S
C1308 N1316 1.356 . S
C1309 C1308 1.363 . S
C1309 C1315 1.363 . S
C1310 C1311 1.363 . S
C1310 C1315 1.379 . S
C1310 N1317 1.356 . S
C1311 C1310 1.363 . S
C1311 C1314 1.363 . S
N1312 C1314 1.356 . S
N1312 H1324 0.984 . S
N1312 H1325 0.985 . S
N1313 C1315 1.356 . S
N1313 H1318 0.984 . S
N1313 H1319 0.985 . S
C1314 C1308 1.379 . S
C1314 C1311 1.363 . S
C1314 N1312 1.356 . S
C1315 C1309 1.363 . S
C1315 C1310 1.379 . S
C1315 N1313 1.356 . S
N1316 C1308 1.356 . S
N1316 H1322 0.984 . S
N1316 H1323 0.984 . S
N1317 C1310 1.356 . S
N1317 H1320 0.984 . S
N1317 H1321 0.985 . S
H1318 N1313 0.984 . S
H1319 N1313 0.985 . S
H1320 N1317 0.984 . S
H1321 N1317 0.985 . S
H1322 N1316 0.984 . S
H1323 N1316 0.984 . S
H1324 N1312 0.984 . S
H1325 N1312 0.985 . S
C1326 C1327 1.363 . S
C1326 C1332 1.379 . S
C1326 N1334 1.356 . S
C1327 C1326 1.363 . S
C1327 C1333 1.363 . S
C1328 C1329 1.363 . S
C1328 C1333 1.379 . S
C1328 N1335 1.356 . S
C1329 C1328 1.363 . S
C1329 C1332 1.363 . S
N1330 C1332 1.356 . S
N1330 H1342 0.984 . S
N1330 H1343 0.985 . S
N1331 C1333 1.356 . S
N1331 H1336 0.984 . S
N1331 H1337 0.985 . S
C1332 C1326 1.379 . S
C1332 C1329 1.363 . S
C1332 N1330 1.356 . S
C1333 C1327 1.363 . S
C1333 C1328 1.379 . S
C1333 N1331 1.356 . S
N1334 C1326 1.356 . S
N1334 H1340 0.984 . S
N1334 H1341 0.984 . S
N1335 C1328 1.356 . S
N1335 H1338 0.984 . S
N1335 H1339 0.985 . S
H1336 N1331 0.984 . S
H1337 N1331 0.985 . S
H1338 N1335 0.984 . S
H1339 N1335 0.985 . S
H1340 N1334 0.984 . S
H1341 N1334 0.984 . S
H1342 N1330 0.984 . S
H1343 N1330 0.985 . S
C1344 C1345 1.363 . S
C1344 C1350 1.379 . S
C1344 N1352 1.356 . S
C1345 C1344 1.363 . S
C1345 C1351 1.363 . S
C1346 C1347 1.363 . S
C1346 C1351 1.379 . S
C1346 N1353 1.356 . S
C1347 C1346 1.363 . S
C1347 C1350 1.363 . S
N1348 C1350 1.356 . S
N1348 H1360 0.984 . S
N1348 H1361 0.985 . S
N1349 C1351 1.356 . S
N1349 H1354 0.984 . S
N1349 H1355 0.985 . S
C1350 C1344 1.379 . S
C1350 C1347 1.363 . S
C1350 N1348 1.356 . S
C1351 C1345 1.363 . S
C1351 C1346 1.379 . S
C1351 N1349 1.356 . S
N1352 C1344 1.356 . S
N1352 H1358 0.984 . S
N1352 H1359 0.984 . S
N1353 C1346 1.356 . S
N1353 H1356 0.984 . S
N1353 H1357 0.985 . S
H1354 N1349 0.984 . S
H1355 N1349 0.985 . S
H1356 N1353 0.984 . S
H1357 N1353 0.985 . S
H1358 N1352 0.984 . S
H1359 N1352 0.984 . S
H1360 N1348 0.984 . S
H1361 N1348 0.985 . S
C1362 C1363 1.363 . S
C1362 C1368 1.379 . S
C1362 N1370 1.356 1_455 S
C1363 C1362 1.363 . S
C1363 C1369 1.363 . S
C1364 C1365 1.363 . S
C1364 C1369 1.379 . S
C1364 N1371 1.356 . S
C1365 C1364 1.363 . S
C1365 C1368 1.363 . S
N1366 C1368 1.356 1_655 S
N1366 H1378 0.984 . S
N1366 H1379 0.985 . S
N1367 C1369 1.356 . S
N1367 H1372 0.984 . S
N1367 H1373 0.985 . S
C1368 C1362 1.379 . S
C1368 C1365 1.363 . S
C1368 N1366 1.356 1_455 S
C1369 C1363 1.363 . S
C1369 C1364 1.379 . S
C1369 N1367 1.356 . S
N1370 C1362 1.356 1_655 S
N1370 H1376 0.984 . S
N1370 H1377 0.984 1_655 S
N1371 C1364 1.356 . S
N1371 H1374 0.984 . S
N1371 H1375 0.985 . S
H1372 N1367 0.984 . S
H1373 N1367 0.985 . S
H1374 N1371 0.984 . S
H1375 N1371 0.985 . S
H1376 N1370 0.984 . S
H1377 N1370 0.984 1_455 S
H1378 N1366 0.984 . S
H1379 N1366 0.985 . S
C1380 C1381 1.363 . S
C1380 C1386 1.379 . S
C1380 N1388 1.356 . S
C1381 C1380 1.363 . S
C1381 C1387 1.363 . S
C1382 C1383 1.363 . S
C1382 C1387 1.379 . S
C1382 N1389 1.356 . S
C1383 C1382 1.363 . S
C1383 C1386 1.363 . S
N1384 C1386 1.356 . S
N1384 H1396 0.984 . S
N1384 H1397 0.985 . S
N1385 C1387 1.356 . S
N1385 H1390 0.984 . S
N1385 H1391 0.985 . S
C1386 C1380 1.379 . S
C1386 C1383 1.363 . S
C1386 N1384 1.356 . S
C1387 C1381 1.363 . S
C1387 C1382 1.379 . S
C1387 N1385 1.356 . S
N1388 C1380 1.356 . S
N1388 H1394 0.984 . S
N1388 H1395 0.984 . S
N1389 C1382 1.356 . S
N1389 H1392 0.984 . S
N1389 H1393 0.985 . S
H1390 N1385 0.984 . S
H1391 N1385 0.985 . S
H1392 N1389 0.984 . S
H1393 N1389 0.985 . S
H1394 N1388 0.984 . S
H1395 N1388 0.984 . S
H1396 N1384 0.984 . S
H1397 N1384 0.985 . S
C1398 C1399 1.370 . S
C1398 C1404 1.377 1_655 S
C1398 N1406 1.352 1_655 S
C1399 C1398 1.370 . S
C1399 C1405 1.363 . S
C1400 C1401 1.363 . S
C1400 C1405 1.379 . S
C1400 N1407 1.356 . S
C1401 C1400 1.363 . S
C1401 C1404 1.363 1_655 S
N1402 C1404 1.356 . S
N1402 H1414 0.984 . S
N1402 H1415 0.985 . S
N1403 C1405 1.356 . S
N1403 H1408 0.984 . S
N1403 H1409 0.985 . S
C1404 C1398 1.377 1_455 S
C1404 C1401 1.363 1_455 S
C1404 N1402 1.356 . S
C1405 C1399 1.363 . S
C1405 C1400 1.379 . S
C1405 N1403 1.356 . S
N1406 C1398 1.352 1_455 S
N1406 H1412 0.984 . S
N1406 H1413 0.984 . S
N1407 C1400 1.356 . S
N1407 H1410 0.984 . S
N1407 H1411 0.985 . S
H1408 N1403 0.984 . S
H1409 N1403 0.985 . S
H1410 N1407 0.984 . S
H1411 N1407 0.985 . S
H1412 N1406 0.984 . S
H1413 N1406 0.984 . S
H1414 N1402 0.984 . S
H1415 N1402 0.985 . S
C1416 C1417 1.363 . S
C1416 C1422 1.379 . S
C1416 N1424 1.356 . S
C1417 C1416 1.363 . S
C1417 C1423 1.363 . S
C1418 C1419 1.363 . S
C1418 C1423 1.379 . S
C1418 N1425 1.356 . S
C1419 C1418 1.363 . S
C1419 C1422 1.363 . S
N1420 C1422 1.356 . S
N1420 H1432 0.984 . S
N1420 H1433 0.985 . S
N1421 C1423 1.356 . S
N1421 H1426 0.984 . S
N1421 H1427 0.985 . S
C1422 C1416 1.379 . S
C1422 C1419 1.363 . S
C1422 N1420 1.356 . S
C1423 C1417 1.363 . S
C1423 C1418 1.379 . S
C1423 N1421 1.356 . S
N1424 C1416 1.356 . S
N1424 H1430 0.984 . S
N1424 H1431 0.984 . S
N1425 C1418 1.356 . S
N1425 H1428 0.984 . S
N1425 H1429 0.985 . S
H1426 N1421 0.984 . S
H1427 N1421 0.985 . S
H1428 N1425 0.984 . S
H1429 N1425 0.985 . S
H1430 N1424 0.984 . S
H1431 N1424 0.984 . S
H1432 N1420 0.984 . S
H1433 N1420 0.985 . S
C1434 C1435 1.363 . S
C1434 C1440 1.379 . S
C1434 N1442 1.356 . S
C1435 C1434 1.363 . S
C1435 C1441 1.363 . S
C1436 C1437 1.363 . S
C1436 C1441 1.379 . S
C1436 N1443 1.356 . S
C1437 C1436 1.363 . S
C1437 C1440 1.363 . S
N1438 C1440 1.356 . S
N1438 H1450 0.984 . S
N1438 H1451 0.985 . S
N1439 C1441 1.356 . S
N1439 H1444 0.984 . S
N1439 H1445 0.985 . S
C1440 C1434 1.379 . S
C1440 C1437 1.363 . S
C1440 N1438 1.356 . S
C1441 C1435 1.363 . S
C1441 C1436 1.379 . S
C1441 N1439 1.356 . S
N1442 C1434 1.356 . S
N1442 H1448 0.984 . S
N1442 H1449 0.984 . S
N1443 C1436 1.356 . S
N1443 H1446 0.984 . S
N1443 H1447 0.985 . S
H1444 N1439 0.984 . S
H1445 N1439 0.985 . S
H1446 N1443 0.984 . S
H1447 N1443 0.985 . S
H1448 N1442 0.984 . S
H1449 N1442 0.984 . S
H1450 N1438 0.984 . S
H1451 N1438 0.985 . S
C1452 C1453 1.363 . S
C1452 C1458 1.379 1_556 S
C1452 N1460 1.356 1_556 S
C1453 C1452 1.363 . S
C1453 C1459 1.363 . S
C1454 C1455 1.363 . S
C1454 C1459 1.379 . S
C1454 N1461 1.356 . S
C1455 C1454 1.363 . S
C1455 C1458 1.363 1_556 S
N1456 C1458 1.356 . S
N1456 H1468 0.984 . S
N1456 H1469 0.985 . S
N1457 C1459 1.356 . S
N1457 H1462 0.984 . S
N1457 H1463 0.985 . S
C1458 C1452 1.379 1_554 S
C1458 C1455 1.363 1_554 S
C1458 N1456 1.356 . S
C1459 C1453 1.363 . S
C1459 C1454 1.379 . S
C1459 N1457 1.356 . S
N1460 C1452 1.356 1_554 S
N1460 H1466 0.984 . S
N1460 H1467 0.984 1_554 S
N1461 C1454 1.356 . S
N1461 H1464 0.984 . S
N1461 H1465 0.985 . S
H1462 N1457 0.984 . S
H1463 N1457 0.985 . S
H1464 N1461 0.984 . S
H1465 N1461 0.985 . S
H1466 N1460 0.984 . S
H1467 N1460 0.984 1_556 S
H1468 N1456 0.984 . S
H1469 N1456 0.985 . S
C1470 C1471 1.363 . S
C1470 C1476 1.379 . S
C1470 N1478 1.356 . S
C1471 C1470 1.363 . S
C1471 C1477 1.363 . S
C1472 C1473 1.363 . S
C1472 C1477 1.379 . S
C1472 N1479 1.356 . S
C1473 C1472 1.363 . S
C1473 C1476 1.363 . S
N1474 C1476 1.356 . S
N1474 H1486 0.984 . S
N1474 H1487 0.985 . S
N1475 C1477 1.356 . S
N1475 H1480 0.984 . S
N1475 H1481 0.985 . S
C1476 C1470 1.379 . S
C1476 C1473 1.363 . S
C1476 N1474 1.356 . S
C1477 C1471 1.363 . S
C1477 C1472 1.379 . S
C1477 N1475 1.356 . S
N1478 C1470 1.356 . S
N1478 H1484 0.984 . S
N1478 H1485 0.984 . S
N1479 C1472 1.356 . S
N1479 H1482 0.984 . S
N1479 H1483 0.985 . S
H1480 N1475 0.984 . S
H1481 N1475 0.985 . S
H1482 N1479 0.984 . S
H1483 N1479 0.985 . S
H1484 N1478 0.984 . S
H1485 N1478 0.984 . S
H1486 N1474 0.984 . S
H1487 N1474 0.985 . S
C1488 C1489 1.363 . S
C1488 C1494 1.379 . S
C1488 N1496 1.356 . S
C1489 C1488 1.363 . S
C1489 C1495 1.363 . S
C1490 C1491 1.363 . S
C1490 C1495 1.379 . S
C1490 N1497 1.356 . S
C1491 C1490 1.363 . S
C1491 C1494 1.363 . S
N1492 C1494 1.356 . S
N1492 H1504 0.984 . S
N1492 H1505 0.985 . S
N1493 C1495 1.356 . S
N1493 H1498 0.984 . S
N1493 H1499 0.985 . S
C1494 C1488 1.379 . S
C1494 C1491 1.363 . S
C1494 N1492 1.356 . S
C1495 C1489 1.363 . S
C1495 C1490 1.379 . S
C1495 N1493 1.356 . S
N1496 C1488 1.356 . S
N1496 H1502 0.984 . S
N1496 H1503 0.984 . S
N1497 C1490 1.356 . S
N1497 H1500 0.984 . S
N1497 H1501 0.985 . S
H1498 N1493 0.984 . S
H1499 N1493 0.985 . S
H1500 N1497 0.984 . S
H1501 N1497 0.985 . S
H1502 N1496 0.984 . S
H1503 N1496 0.984 . S
H1504 N1492 0.984 . S
H1505 N1492 0.985 . S
C1506 C1507 1.363 . S
C1506 C1512 1.379 . S
C1506 N1514 1.356 . S
C1507 C1506 1.363 . S
C1507 C1513 1.363 . S
C1508 C1509 1.363 . S
C1508 C1513 1.379 . S
C1508 N1515 1.356 . S
C1509 C1508 1.363 . S
C1509 C1512 1.363 . S
N1510 C1512 1.356 . S
N1510 H1522 0.984 . S
N1510 H1523 0.985 . S
N1511 C1513 1.356 . S
N1511 H1516 0.984 . S
N1511 H1517 0.985 . S
C1512 C1506 1.379 . S
C1512 C1509 1.363 . S
C1512 N1510 1.356 . S
C1513 C1507 1.363 . S
C1513 C1508 1.379 . S
C1513 N1511 1.356 . S
N1514 C1506 1.356 . S
N1514 H1520 0.984 . S
N1514 H1521 0.984 . S
N1515 C1508 1.356 . S
N1515 H1518 0.984 . S
N1515 H1519 0.985 . S
H1516 N1511 0.984 . S
H1517 N1511 0.985 . S
H1518 N1515 0.984 . S
H1519 N1515 0.985 . S
H1520 N1514 0.984 . S
H1521 N1514 0.984 . S
H1522 N1510 0.984 . S
H1523 N1510 0.985 . S
C1524 C1525 1.363 . S
C1524 C1530 1.379 . S
C1524 N1532 1.356 . S
C1525 C1524 1.363 . S
C1525 C1531 1.363 . S
C1526 C1527 1.363 . S
C1526 C1531 1.379 . S
C1526 N1533 1.356 . S
C1527 C1526 1.363 . S
C1527 C1530 1.363 . S
N1528 C1530 1.356 . S
N1528 H1540 0.984 . S
N1528 H1541 0.985 . S
N1529 C1531 1.356 . S
N1529 H1534 0.984 . S
N1529 H1535 0.985 . S
C1530 C1524 1.379 . S
C1530 C1527 1.363 . S
C1530 N1528 1.356 . S
C1531 C1525 1.363 . S
C1531 C1526 1.379 . S
C1531 N1529 1.356 . S
N1532 C1524 1.356 . S
N1532 H1538 0.984 . S
N1532 H1539 0.984 . S
N1533 C1526 1.356 . S
N1533 H1536 0.984 . S
N1533 H1537 0.985 . S
H1534 N1529 0.984 . S
H1535 N1529 0.985 . S
H1536 N1533 0.984 . S
H1537 N1533 0.985 . S
H1538 N1532 0.984 . S
H1539 N1532 0.984 . S
H1540 N1528 0.984 . S
H1541 N1528 0.985 . S
C1542 C1543 1.363 . S
C1542 C1548 1.379 . S
C1542 N1550 1.356 . S
C1543 C1542 1.363 . S
C1543 C1549 1.363 . S
C1544 C1545 1.363 . S
C1544 C1549 1.379 . S
C1544 N1551 1.356 . S
C1545 C1544 1.363 . S
C1545 C1548 1.363 . S
N1546 C1548 1.356 . S
N1546 H1558 0.984 . S
N1546 H1559 0.985 . S
N1547 C1549 1.356 . S
N1547 H1552 0.984 . S
N1547 H1553 0.985 . S
C1548 C1542 1.379 . S
C1548 C1545 1.363 . S
C1548 N1546 1.356 . S
C1549 C1543 1.363 . S
C1549 C1544 1.379 . S
C1549 N1547 1.356 . S
N1550 C1542 1.356 . S
N1550 H1556 0.984 . S
N1550 H1557 0.984 . S
N1551 C1544 1.356 . S
N1551 H1554 0.984 . S
N1551 H1555 0.985 . S
H1552 N1547 0.984 . S
H1553 N1547 0.985 . S
H1554 N1551 0.984 . S
H1555 N1551 0.985 . S
H1556 N1550 0.984 . S
H1557 N1550 0.984 . S
H1558 N1546 0.984 . S
H1559 N1546 0.985 . S
C1560 C1561 1.363 . S
C1560 C1566 1.379 . S
C1560 N1568 1.356 . S
C1561 C1560 1.363 . S
C1561 C1567 1.363 . S
C1562 C1563 1.363 . S
C1562 C1567 1.379 . S
C1562 N1569 1.356 . S
C1563 C1562 1.363 . S
C1563 C1566 1.363 . S
N1564 C1566 1.356 . S
N1564 H1576 0.984 . S
N1564 H1577 0.985 . S
N1565 C1567 1.356 . S
N1565 H1570 0.984 . S
N1565 H1571 0.985 . S
C1566 C1560 1.379 . S
C1566 C1563 1.363 . S
C1566 N1564 1.356 . S
C1567 C1561 1.363 . S
C1567 C1562 1.379 . S
C1567 N1565 1.356 . S
N1568 C1560 1.356 . S
N1568 H1574 0.984 . S
N1568 H1575 0.984 . S
N1569 C1562 1.356 . S
N1569 H1572 0.984 . S
N1569 H1573 0.985 . S
H1570 N1565 0.984 . S
H1571 N1565 0.985 . S
H1572 N1569 0.984 . S
H1573 N1569 0.985 . S
H1574 N1568 0.984 . S
H1575 N1568 0.984 . S
H1576 N1564 0.984 . S
H1577 N1564 0.985 . S
C1578 C1579 1.363 . S
C1578 C1584 1.379 . S
C1578 N1586 1.356 . S
C1579 C1578 1.363 . S
C1579 C1585 1.363 . S
C1580 C1581 1.363 . S
C1580 C1585 1.379 . S
C1580 N1587 1.356 . S
C1581 C1580 1.363 . S
C1581 C1584 1.363 . S
N1582 C1584 1.356 . S
N1582 H1594 0.984 1_545 S
N1582 H1595 0.985 . S
N1583 C1585 1.356 . S
N1583 H1588 0.984 . S
N1583 H1589 0.985 . S
C1584 C1578 1.379 . S
C1584 C1581 1.363 . S
C1584 N1582 1.356 . S
C1585 C1579 1.363 . S
C1585 C1580 1.379 . S
C1585 N1583 1.356 . S
N1586 C1578 1.356 . S
N1586 H1592 0.984 . S
N1586 H1593 0.984 . S
N1587 C1580 1.356 . S
N1587 H1590 0.984 . S
N1587 H1591 0.985 . S
H1588 N1583 0.984 . S
H1589 N1583 0.985 . S
H1590 N1587 0.984 . S
H1591 N1587 0.985 . S
H1592 N1586 0.984 . S
H1593 N1586 0.984 . S
H1594 N1582 0.984 1_565 S
H1595 N1582 0.985 . S
C1596 C1597 1.363 . S
C1596 C1602 1.379 . S
C1596 N1604 1.356 . S
C1597 C1596 1.363 . S
C1597 C1603 1.363 . S
C1598 C1599 1.363 . S
C1598 C1603 1.379 . S
C1598 N1605 1.356 . S
C1599 C1598 1.363 . S
C1599 C1602 1.363 . S
N1600 C1602 1.356 . S
N1600 H1612 0.984 . S
N1600 H1613 0.985 . S
N1601 C1603 1.356 . S
N1601 H1606 0.984 . S
N1601 H1607 0.985 . S
C1602 C1596 1.379 . S
C1602 C1599 1.363 . S
C1602 N1600 1.356 . S
C1603 C1597 1.363 . S
C1603 C1598 1.379 . S
C1603 N1601 1.356 . S
N1604 C1596 1.356 . S
N1604 H1610 0.984 . S
N1604 H1611 0.984 . S
N1605 C1598 1.356 . S
N1605 H1608 0.984 . S
N1605 H1609 0.985 . S
H1606 N1601 0.984 . S
H1607 N1601 0.985 . S
H1608 N1605 0.984 . S
H1609 N1605 0.985 . S
H1610 N1604 0.984 . S
H1611 N1604 0.984 . S
H1612 N1600 0.984 . S
H1613 N1600 0.985 . S
C1614 C1615 1.363 . S
C1614 C1620 1.379 . S
C1614 N1622 1.356 . S
C1615 C1614 1.363 . S
C1615 C1621 1.363 . S
C1616 C1617 1.363 . S
C1616 C1621 1.379 . S
C1616 N1623 1.356 . S
C1617 C1616 1.363 . S
C1617 C1620 1.363 . S
N1618 C1620 1.356 . S
N1618 H1630 0.984 . S
N1618 H1631 0.985 . S
N1619 C1621 1.356 . S
N1619 H1624 0.984 . S
N1619 H1625 0.985 . S
C1620 C1614 1.379 . S
C1620 C1617 1.363 . S
C1620 N1618 1.356 . S
C1621 C1615 1.363 . S
C1621 C1616 1.379 . S
C1621 N1619 1.356 . S
N1622 C1614 1.356 . S
N1622 H1628 0.984 . S
N1622 H1629 0.984 . S
N1623 C1616 1.356 . S
N1623 H1626 0.984 . S
N1623 H1627 0.985 . S
H1624 N1619 0.984 . S
H1625 N1619 0.985 . S
H1626 N1623 0.984 . S
H1627 N1623 0.985 . S
H1628 N1622 0.984 . S
H1629 N1622 0.984 . S
H1630 N1618 0.984 . S
H1631 N1618 0.985 . S
C1632 C1633 1.363 . S
C1632 C1638 1.379 . S
C1632 N1640 1.356 . S
C1633 C1632 1.363 . S
C1633 C1639 1.363 . S
C1634 C1635 1.363 . S
C1634 C1639 1.379 . S
C1634 N1641 1.356 . S
C1635 C1634 1.363 . S
C1635 C1638 1.363 . S
N1636 C1638 1.356 . S
N1636 H1648 0.984 . S
N1636 H1649 0.985 . S
N1637 C1639 1.356 . S
N1637 H1642 0.984 . S
N1637 H1643 0.985 . S
C1638 C1632 1.379 . S
C1638 C1635 1.363 . S
C1638 N1636 1.356 . S
C1639 C1633 1.363 . S
C1639 C1634 1.379 . S
C1639 N1637 1.356 . S
N1640 C1632 1.356 . S
N1640 H1646 0.984 . S
N1640 H1647 0.984 . S
N1641 C1634 1.356 . S
N1641 H1644 0.984 . S
N1641 H1645 0.985 . S
H1642 N1637 0.984 . S
H1643 N1637 0.985 . S
H1644 N1641 0.984 . S
H1645 N1641 0.985 . S
H1646 N1640 0.984 . S
H1647 N1640 0.984 . S
H1648 N1636 0.984 . S
H1649 N1636 0.985 . S
C1650 C1651 1.363 . S
C1650 C1656 1.379 . S
C1650 N1658 1.356 . S
C1651 C1650 1.363 . S
C1651 C1657 1.394 . S
C1652 C1653 1.363 1_565 S
C1652 C1657 1.376 1_565 S
C1652 N1659 1.356 . S
C1653 C1652 1.363 1_545 S
C1653 C1656 1.363 . S
N1654 C1656 1.356 . S
N1654 H1666 0.984 . S
N1654 H1667 0.985 . S
N1655 C1657 1.337 1_565 S
N1655 H1660 0.984 . S
N1655 H1661 0.985 . S
C1656 C1650 1.379 . S
C1656 C1653 1.363 . S
C1656 N1654 1.356 . S
C1657 C1651 1.394 . S
C1657 C1652 1.376 1_545 S
C1657 N1655 1.337 1_545 S
N1658 C1650 1.356 . S
N1658 H1664 0.984 . S
N1658 H1665 0.984 . S
N1659 C1652 1.356 . S
N1659 H1662 0.984 . S
N1659 H1663 0.985 . S
H1660 N1655 0.984 . S
H1661 N1655 0.985 . S
H1662 N1659 0.984 . S
H1663 N1659 0.985 . S
H1664 N1658 0.984 . S
H1665 N1658 0.984 . S
H1666 N1654 0.984 . S
H1667 N1654 0.985 . S
C1668 C1669 1.363 . S
C1668 C1674 1.379 . S
C1668 N1676 1.356 . S
C1669 C1668 1.363 . S
C1669 C1675 1.363 . S
C1670 C1671 1.363 . S
C1670 C1675 1.379 . S
C1670 N1677 1.356 . S
C1671 C1670 1.363 . S
C1671 C1674 1.363 . S
N1672 C1674 1.356 . S
N1672 H1684 0.984 . S
N1672 H1685 0.985 . S
N1673 C1675 1.356 . S
N1673 H1678 0.984 . S
N1673 H1679 0.985 . S
C1674 C1668 1.379 . S
C1674 C1671 1.363 . S
C1674 N1672 1.356 . S
C1675 C1669 1.363 . S
C1675 C1670 1.379 . S
C1675 N1673 1.356 . S
N1676 C1668 1.356 . S
N1676 H1682 0.984 . S
N1676 H1683 0.984 . S
N1677 C1670 1.356 . S
N1677 H1680 0.984 . S
N1677 H1681 0.985 . S
H1678 N1673 0.984 . S
H1679 N1673 0.985 . S
H1680 N1677 0.984 . S
H1681 N1677 0.985 . S
H1682 N1676 0.984 . S
H1683 N1676 0.984 . S
H1684 N1672 0.984 . S
H1685 N1672 0.985 . S
C1686 C1687 1.363 . S
C1686 C1692 1.379 . S
C1686 N1694 1.356 . S
C1687 C1686 1.363 . S
C1687 C1693 1.363 . S
C1688 C1689 1.363 . S
C1688 C1693 1.379 . S
C1688 N1695 1.356 . S
C1689 C1688 1.363 . S
C1689 C1692 1.363 . S
N1690 C1692 1.356 . S
N1690 H1702 0.984 . S
N1690 H1703 0.985 . S
N1691 C1693 1.356 . S
N1691 H1696 0.984 . S
N1691 H1697 0.985 . S
C1692 C1686 1.379 . S
C1692 C1689 1.363 . S
C1692 N1690 1.356 . S
C1693 C1687 1.363 . S
C1693 C1688 1.379 . S
C1693 N1691 1.356 . S
N1694 C1686 1.356 . S
N1694 H1700 0.984 . S
N1694 H1701 0.984 . S
N1695 C1688 1.356 . S
N1695 H1698 0.984 . S
N1695 H1699 0.985 . S
H1696 N1691 0.984 . S
H1697 N1691 0.985 . S
H1698 N1695 0.984 . S
H1699 N1695 0.985 . S
H1700 N1694 0.984 . S
H1701 N1694 0.984 . S
H1702 N1690 0.984 . S
H1703 N1690 0.985 . S
C1704 C1705 1.363 . S
C1704 C1710 1.379 . S
C1704 N1712 1.356 . S
C1705 C1704 1.363 . S
C1705 C1711 1.363 . S
C1706 C1707 1.363 . S
C1706 C1711 1.379 . S
C1706 N1713 1.356 . S
C1707 C1706 1.363 . S
C1707 C1710 1.363 . S
N1708 C1710 1.356 . S
N1708 H1720 0.984 . S
N1708 H1721 0.985 . S
N1709 C1711 1.356 . S
N1709 H1714 0.984 . S
N1709 H1715 0.985 . S
C1710 C1704 1.379 . S
C1710 C1707 1.363 . S
C1710 N1708 1.356 . S
C1711 C1705 1.363 . S
C1711 C1706 1.379 . S
C1711 N1709 1.356 . S
N1712 C1704 1.356 . S
N1712 H1718 0.984 . S
N1712 H1719 0.984 . S
N1713 C1706 1.356 . S
N1713 H1716 0.984 . S
N1713 H1717 0.985 . S
H1714 N1709 0.984 . S
H1715 N1709 0.985 . S
H1716 N1713 0.984 . S
H1717 N1713 0.985 . S
H1718 N1712 0.984 . S
H1719 N1712 0.984 . S
H1720 N1708 0.984 . S
H1721 N1708 0.985 . S
C1722 C1723 1.363 . S
C1722 C1728 1.379 . S
C1722 N1730 1.356 . S
C1723 C1722 1.363 . S
C1723 C1729 1.363 . S
C1724 C1725 1.363 . S
C1724 C1729 1.379 . S
C1724 N1731 1.356 . S
C1725 C1724 1.363 . S
C1725 C1728 1.363 . S
N1726 C1728 1.356 . S
N1726 H1738 0.984 . S
N1726 H1739 0.985 . S
N1727 C1729 1.356 1_554 S
N1727 H1732 0.984 . S
N1727 H1733 0.985 . S
C1728 C1722 1.379 . S
C1728 C1725 1.363 . S
C1728 N1726 1.356 . S
C1729 C1723 1.363 . S
C1729 C1724 1.379 . S
C1729 N1727 1.356 1_556 S
N1730 C1722 1.356 . S
N1730 H1736 0.984 . S
N1730 H1737 0.984 . S
N1731 C1724 1.356 . S
N1731 H1734 0.984 . S
N1731 H1735 0.985 . S
H1732 N1727 0.984 . S
H1733 N1727 0.985 . S
H1734 N1731 0.984 . S
H1735 N1731 0.985 . S
H1736 N1730 0.984 . S
H1737 N1730 0.984 . S
H1738 N1726 0.984 . S
H1739 N1726 0.985 . S
C1740 C1741 1.363 . S
C1740 C1746 1.379 . S
C1740 N1748 1.356 . S
C1741 C1740 1.363 . S
C1741 C1747 1.363 . S
C1742 C1743 1.363 . S
C1742 C1747 1.379 . S
C1742 N1749 1.356 . S
C1743 C1742 1.363 . S
C1743 C1746 1.363 . S
N1744 C1746 1.356 . S
N1744 H1756 0.984 . S
N1744 H1757 0.985 . S
N1745 C1747 1.356 . S
N1745 H1750 0.984 . S
N1745 H1751 0.985 . S
C1746 C1740 1.379 . S
C1746 C1743 1.363 . S
C1746 N1744 1.356 . S
C1747 C1741 1.363 . S
C1747 C1742 1.379 . S
C1747 N1745 1.356 . S
N1748 C1740 1.356 . S
N1748 H1754 0.984 . S
N1748 H1755 0.984 . S
N1749 C1742 1.356 . S
N1749 H1752 0.984 . S
N1749 H1753 0.985 . S
H1750 N1745 0.984 . S
H1751 N1745 0.985 . S
H1752 N1749 0.984 . S
H1753 N1749 0.985 . S
H1754 N1748 0.984 . S
H1755 N1748 0.984 . S
H1756 N1744 0.984 . S
H1757 N1744 0.985 . S
C1758 C1759 1.363 . S
C1758 C1764 1.379 . S
C1758 N1766 1.356 . S
C1759 C1758 1.363 . S
C1759 C1765 1.363 . S
C1760 C1761 1.363 . S
C1760 C1765 1.379 . S
C1760 N1767 1.356 1_455 S
C1761 C1760 1.363 . S
C1761 C1764 1.363 . S
N1762 C1764 1.356 . S
N1762 H1774 0.984 . S
N1762 H1775 0.985 . S
N1763 C1765 1.356 1_655 S
N1763 H1768 0.984 1_655 S
N1763 H1769 0.984 1_556 S
C1764 C1758 1.379 . S
C1764 C1761 1.363 . S
C1764 N1762 1.356 . S
C1765 C1759 1.363 . S
C1765 C1760 1.379 . S
C1765 N1763 1.356 1_455 S
N1766 C1758 1.356 . S
N1766 H1772 0.984 . S
N1766 H1773 0.984 . S
N1767 C1760 1.356 1_655 S
N1767 H1770 0.984 . S
N1767 H1771 0.985 . S
H1768 N1763 0.984 1_455 S
H1769 N1763 0.984 1_554 S
H1770 N1767 0.984 . S
H1771 N1767 0.985 . S
H1772 N1766 0.984 . S
H1773 N1766 0.984 . S
H1774 N1762 0.984 . S
H1775 N1762 0.985 . S
C1776 C1777 1.363 . S
C1776 C1782 1.379 . S
C1776 N1784 1.356 . S
C1777 C1776 1.363 . S
C1777 C1783 1.363 . S
C1778 C1779 1.363 . S
C1778 C1783 1.379 . S
C1778 N1785 1.356 . S
C1779 C1778 1.363 . S
C1779 C1782 1.363 . S
N1780 C1782 1.356 . S
N1780 H1792 0.984 . S
N1780 H1793 0.985 . S
N1781 C1783 1.356 . S
N1781 H1786 0.984 . S
N1781 H1787 0.985 . S
C1782 C1776 1.379 . S
C1782 C1779 1.363 . S
C1782 N1780 1.356 . S
C1783 C1777 1.363 . S
C1783 C1778 1.379 . S
C1783 N1781 1.356 . S
N1784 C1776 1.356 . S
N1784 H1790 0.984 . S
N1784 H1791 0.984 . S
N1785 C1778 1.356 . S
N1785 H1788 0.984 . S
N1785 H1789 0.985 . S
H1786 N1781 0.984 . S
H1787 N1781 0.985 . S
H1788 N1785 0.984 . S
H1789 N1785 0.985 . S
H1790 N1784 0.984 . S
H1791 N1784 0.984 . S
H1792 N1780 0.984 . S
H1793 N1780 0.985 . S
C1794 C1795 1.363 . S
C1794 C1800 1.379 . S
C1794 N1802 1.356 . S
C1795 C1794 1.363 . S
C1795 C1801 1.363 . S
C1796 C1797 1.363 . S
C1796 C1801 1.379 . S
C1796 N1803 1.356 . S
C1797 C1796 1.363 . S
C1797 C1800 1.363 . S
N1798 C1800 1.356 . S
N1798 H1810 0.984 . S
N1798 H1811 0.985 . S
N1799 C1801 1.356 . S
N1799 H1804 0.984 . S
N1799 H1805 0.985 . S
C1800 C1794 1.379 . S
C1800 C1797 1.363 . S
C1800 N1798 1.356 . S
C1801 C1795 1.363 . S
C1801 C1796 1.379 . S
C1801 N1799 1.356 . S
N1802 C1794 1.356 . S
N1802 H1808 0.984 . S
N1802 H1809 0.984 . S
N1803 C1796 1.356 . S
N1803 H1806 0.984 . S
N1803 H1807 0.985 . S
H1804 N1799 0.984 . S
H1805 N1799 0.985 . S
H1806 N1803 0.984 . S
H1807 N1803 0.985 . S
H1808 N1802 0.984 . S
H1809 N1802 0.984 . S
H1810 N1798 0.984 . S
H1811 N1798 0.985 . S
C1812 C1813 1.363 . S
C1812 C1818 1.379 . S
C1812 N1820 1.356 . S
C1813 C1812 1.363 . S
C1813 C1819 1.363 . S
C1814 C1815 1.363 . S
C1814 C1819 1.379 . S
C1814 N1821 1.356 . S
C1815 C1814 1.363 . S
C1815 C1818 1.363 . S
N1816 C1818 1.356 . S
N1816 H1828 0.984 . S
N1816 H1829 0.985 . S
N1817 C1819 1.356 . S
N1817 H1822 0.984 . S
N1817 H1823 0.985 . S
C1818 C1812 1.379 . S
C1818 C1815 1.363 . S
C1818 N1816 1.356 . S
C1819 C1813 1.363 . S
C1819 C1814 1.379 . S
C1819 N1817 1.356 . S
N1820 C1812 1.356 . S
N1820 H1826 0.984 . S
N1820 H1827 0.984 . S
N1821 C1814 1.356 . S
N1821 H1824 0.984 . S
N1821 H1825 0.985 . S
H1822 N1817 0.984 . S
H1823 N1817 0.985 . S
H1824 N1821 0.984 . S
H1825 N1821 0.985 . S
H1826 N1820 0.984 . S
H1827 N1820 0.984 . S
H1828 N1816 0.984 . S
H1829 N1816 0.985 . S
C1830 C1831 1.363 . S
C1830 C1836 1.379 . S
C1830 N1838 1.356 . S
C1831 C1830 1.363 . S
C1831 C1837 1.363 . S
C1832 C1833 1.363 . S
C1832 C1837 1.379 . S
C1832 N1839 1.356 . S
C1833 C1832 1.363 . S
C1833 C1836 1.363 . S
N1834 C1836 1.356 . S
N1834 H1846 0.984 . S
N1834 H1847 0.985 . S
N1835 C1837 1.356 . S
N1835 H1840 0.984 . S
N1835 H1841 0.985 . S
C1836 C1830 1.379 . S
C1836 C1833 1.363 . S
C1836 N1834 1.356 . S
C1837 C1831 1.363 . S
C1837 C1832 1.379 . S
C1837 N1835 1.356 . S
N1838 C1830 1.356 . S
N1838 H1844 0.984 . S
N1838 H1845 0.984 . S
N1839 C1832 1.356 . S
N1839 H1842 0.984 . S
N1839 H1843 0.985 . S
H1840 N1835 0.984 . S
H1841 N1835 0.985 . S
H1842 N1839 0.984 . S
H1843 N1839 0.985 . S
H1844 N1838 0.984 . S
H1845 N1838 0.984 . S
H1846 N1834 0.984 . S
H1847 N1834 0.985 . S
C1848 C1849 1.363 . S
C1848 C1854 1.379 . S
C1848 N1856 1.356 . S
C1849 C1848 1.363 . S
C1849 C1855 1.363 . S
C1850 C1851 1.363 . S
C1850 C1855 1.379 . S
C1850 N1857 1.356 . S
C1851 C1850 1.363 . S
C1851 C1854 1.363 . S
N1852 C1854 1.356 . S
N1852 H1864 0.984 . S
N1852 H1865 0.985 . S
N1853 C1855 1.356 . S
N1853 H1858 0.984 . S
N1853 H1859 0.985 . S
C1854 C1848 1.379 . S
C1854 C1851 1.363 . S
C1854 N1852 1.356 . S
C1855 C1849 1.363 . S
C1855 C1850 1.379 . S
C1855 N1853 1.356 . S
N1856 C1848 1.356 . S
N1856 H1862 0.984 . S
N1856 H1863 0.984 . S
N1857 C1850 1.356 . S
N1857 H1860 0.984 . S
N1857 H1861 0.985 . S
H1858 N1853 0.984 . S
H1859 N1853 0.985 . S
H1860 N1857 0.984 . S
H1861 N1857 0.985 . S
H1862 N1856 0.984 . S
H1863 N1856 0.984 . S
H1864 N1852 0.984 . S
H1865 N1852 0.985 . S
C1866 C1867 1.363 . S
C1866 C1872 1.379 . S
C1866 N1874 1.356 . S
C1867 C1866 1.363 . S
C1867 C1873 1.363 . S
C1868 C1869 1.363 . S
C1868 C1873 1.379 . S
C1868 N1875 1.356 . S
C1869 C1868 1.363 . S
C1869 C1872 1.363 . S
N1870 C1872 1.356 . S
N1870 H1882 0.984 . S
N1870 H1883 0.985 . S
N1871 C1873 1.356 . S
N1871 H1876 0.984 . S
N1871 H1877 0.985 . S
C1872 C1866 1.379 . S
C1872 C1869 1.363 . S
C1872 N1870 1.356 . S
C1873 C1867 1.363 . S
C1873 C1868 1.379 . S
C1873 N1871 1.356 . S
N1874 C1866 1.356 . S
N1874 H1880 0.984 . S
N1874 H1881 0.984 . S
N1875 C1868 1.356 . S
N1875 H1878 0.984 . S
N1875 H1879 0.985 . S
H1876 N1871 0.984 . S
H1877 N1871 0.985 . S
H1878 N1875 0.984 . S
H1879 N1875 0.985 . S
H1880 N1874 0.984 . S
H1881 N1874 0.984 . S
H1882 N1870 0.984 . S
H1883 N1870 0.985 . S
C1884 C1885 1.363 . S
C1884 C1890 1.379 . S
C1884 N1892 1.356 . S
C1885 C1884 1.363 . S
C1885 C1891 1.363 . S
C1886 C1887 1.363 . S
C1886 C1891 1.379 . S
C1886 N1893 1.356 . S
C1887 C1886 1.363 . S
C1887 C1890 1.363 . S
N1888 C1890 1.356 . S
N1888 H1900 0.984 . S
N1888 H1901 0.985 . S
N1889 C1891 1.356 . S
N1889 H1894 0.984 . S
N1889 H1895 0.985 . S
C1890 C1884 1.379 . S
C1890 C1887 1.363 . S
C1890 N1888 1.356 . S
C1891 C1885 1.363 . S
C1891 C1886 1.379 . S
C1891 N1889 1.356 . S
N1892 C1884 1.356 . S
N1892 H1898 0.984 . S
N1892 H1899 0.984 . S
N1893 C1886 1.356 . S
N1893 H1896 0.984 . S
N1893 H1897 0.985 . S
H1894 N1889 0.984 . S
H1895 N1889 0.985 . S
H1896 N1893 0.984 . S
H1897 N1893 0.985 . S
H1898 N1892 0.984 . S
H1899 N1892 0.984 . S
H1900 N1888 0.984 . S
H1901 N1888 0.985 . S
C1902 C1903 1.363 . S
C1902 C1908 1.379 . S
C1902 N1910 1.356 . S
C1903 C1902 1.363 . S
C1903 C1909 1.363 . S
C1904 C1905 1.363 . S
C1904 C1909 1.379 . S
C1904 N1911 1.356 . S
C1905 C1904 1.363 . S
C1905 C1908 1.363 . S
N1906 C1908 1.356 . S
N1906 H1918 0.984 . S
N1906 H1919 0.985 . S
N1907 C1909 1.356 . S
N1907 H1912 0.984 . S
N1907 H1913 0.985 . S
C1908 C1902 1.379 . S
C1908 C1905 1.363 . S
C1908 N1906 1.356 . S
C1909 C1903 1.363 . S
C1909 C1904 1.379 . S
C1909 N1907 1.356 . S
N1910 C1902 1.356 . S
N1910 H1916 0.984 . S
N1910 H1917 0.984 . S
N1911 C1904 1.356 . S
N1911 H1914 0.984 . S
N1911 H1915 0.985 . S
H1912 N1907 0.984 . S
H1913 N1907 0.985 . S
H1914 N1911 0.984 . S
H1915 N1911 0.985 . S
H1916 N1910 0.984 . S
H1917 N1910 0.984 . S
H1918 N1906 0.984 . S
H1919 N1906 0.985 . S
C1920 C1921 1.363 1_554 S
C1920 C1926 1.379 . S
C1920 N1928 1.356 . S
C1921 C1920 1.363 1_556 S
C1921 C1927 1.363 . S
C1922 C1923 1.363 . S
C1922 C1927 1.379 . S
C1922 N1929 1.356 . S
C1923 C1922 1.363 . S
C1923 C1926 1.363 1_556 S
N1924 C1926 1.356 . S
N1924 H1936 0.984 . S
N1924 H1937 0.985 . S
N1925 C1927 1.356 . S
N1925 H1930 0.984 . S
N1925 H1931 0.985 . S
C1926 C1920 1.379 . S
C1926 C1923 1.363 1_554 S
C1926 N1924 1.356 . S
C1927 C1921 1.363 . S
C1927 C1922 1.379 . S
C1927 N1925 1.356 . S
N1928 C1920 1.356 . S
N1928 H1934 0.984 . S
N1928 H1935 0.984 . S
N1929 C1922 1.356 . S
N1929 H1932 0.984 . S
N1929 H1933 0.985 . S
H1930 N1925 0.984 . S
H1931 N1925 0.985 . S
H1932 N1929 0.984 . S
H1933 N1929 0.985 . S
H1934 N1928 0.984 . S
H1935 N1928 0.984 . S
H1936 N1924 0.984 . S
H1937 N1924 0.985 . S
C1938 C1939 1.363 . S
C1938 C1944 1.379 . S
C1938 N1946 1.356 . S
C1939 C1938 1.363 . S
C1939 C1945 1.363 . S
C1940 C1941 1.363 . S
C1940 C1945 1.379 . S
C1940 N1947 1.356 . S
C1941 C1940 1.363 . S
C1941 C1944 1.363 . S
N1942 C1944 1.356 . S
N1942 H1954 0.984 . S
N1942 H1955 0.985 . S
N1943 C1945 1.356 . S
N1943 H1948 0.984 . S
N1943 H1949 0.985 . S
C1944 C1938 1.379 . S
C1944 C1941 1.363 . S
C1944 N1942 1.356 . S
C1945 C1939 1.363 . S
C1945 C1940 1.379 . S
C1945 N1943 1.356 . S
N1946 C1938 1.356 . S
N1946 H1952 0.984 . S
N1946 H1953 0.984 . S
N1947 C1940 1.356 . S
N1947 H1950 0.984 . S
N1947 H1951 0.985 . S
H1948 N1943 0.984 . S
H1949 N1943 0.985 . S
H1950 N1947 0.984 . S
H1951 N1947 0.985 . S
H1952 N1946 0.984 . S
H1953 N1946 0.984 . S
H1954 N1942 0.984 . S
H1955 N1942 0.985 . S
C1956 C1957 1.363 . S
C1956 C1962 1.379 . S
C1956 N1964 1.356 . S
C1957 C1956 1.363 . S
C1957 C1963 1.363 . S
C1958 C1959 1.363 . S
C1958 C1963 1.379 . S
C1958 N1965 1.356 1_554 S
C1959 C1958 1.363 . S
C1959 C1962 1.363 . S
N1960 C1962 1.356 . S
N1960 H1972 0.984 . S
N1960 H1973 0.985 . S
N1961 C1963 1.356 . S
N1961 H1966 0.984 . S
N1961 H1967 0.985 1_554 S
C1962 C1956 1.379 . S
C1962 C1959 1.363 . S
C1962 N1960 1.356 . S
C1963 C1957 1.363 . S
C1963 C1958 1.379 . S
C1963 N1961 1.356 . S
N1964 C1956 1.356 . S
N1964 H1970 0.984 . S
N1964 H1971 0.984 . S
N1965 C1958 1.356 1_556 S
N1965 H1968 0.984 . S
N1965 H1969 0.985 . S
H1966 N1961 0.984 . S
H1967 N1961 0.985 1_556 S
H1968 N1965 0.984 . S
H1969 N1965 0.985 . S
H1970 N1964 0.984 . S
H1971 N1964 0.984 . S
H1972 N1960 0.984 . S
H1973 N1960 0.985 . S
C1974 C1975 1.363 . S
C1974 C1980 1.379 . S
C1974 N1982 1.356 . S
C1975 C1974 1.363 . S
C1975 C1981 1.363 . S
C1976 C1977 1.363 . S
C1976 C1981 1.379 . S
C1976 N1983 1.356 . S
C1977 C1976 1.363 . S
C1977 C1980 1.363 . S
N1978 C1980 1.356 . S
N1978 H1990 0.984 . S
N1978 H1991 0.985 . S
N1979 C1981 1.356 . S
N1979 H1984 0.984 . S
N1979 H1985 0.985 . S
C1980 C1974 1.379 . S
C1980 C1977 1.363 . S
C1980 N1978 1.356 . S
C1981 C1975 1.363 . S
C1981 C1976 1.379 . S
C1981 N1979 1.356 . S
N1982 C1974 1.356 . S
N1982 H1988 0.984 1_565 S
N1982 H1989 0.984 1_565 S
N1983 C1976 1.356 . S
N1983 H1986 0.984 . S
N1983 H1987 0.985 . S
H1984 N1979 0.984 . S
H1985 N1979 0.985 . S
H1986 N1983 0.984 . S
H1987 N1983 0.985 . S
H1988 N1982 0.984 1_545 S
H1989 N1982 0.984 1_545 S
H1990 N1978 0.984 . S
H1991 N1978 0.985 . S
C1131 C968 1.490 . S
C1129 C331 1.492 . S
C1149 C981 1.493 . S
C1147 C380 1.464 . S
C1165 C421 1.633 . S
C1167 C1001 1.519 . S
C1185 C1015 1.399 . S
C1183 C260 1.443 . S
C1203 C1027 1.509 . S
C1201 C620 1.482 . S
C1221 C1041 1.442 . S
C1219 C740 1.429 . S
C1237 C680 1.476 . S
C1239 C1051 1.482 . S
C1257 C1066 1.514 . S
C1255 C571 1.502 . S
C1273 C691 1.491 . S
C1275 C1080 1.490 . S
C1293 C1099 1.398 . S
C1291 C541 1.428 . S
C1309 C601 1.462 . S
C1311 C1079 1.482 . S
C1329 C1097 1.442 . S
C1327 C721 1.429 . S
C1345 C451 1.633 . S
C1347 C1113 1.519 . S
C1363 C241 1.480 . S
C1365 C1107 1.493 . S
C1381 C320 1.482 . S
C1383 C1111 1.509 . S
C1399 C391 1.502 . S
C1401 C1108 1.514 . S
C1417 C211 1.492 . S
C1419 C1010 1.490 . S
C1435 C841 1.462 . S
C1437 C1009 1.482 . S
C1455 C973 1.399 . S
C1453 C901 1.428 . S
C1473 C987 1.519 . S
C1471 C500 1.633 . S
C1489 C271 1.539 . S
C1491 C1024 1.514 . S
C1509 C1069 1.509 . S
C1507 C661 1.496 . S
C1527 C1023 1.493 . S
C1525 C560 1.464 . S
C1545 C1055 1.442 . S
C1543 C751 1.429 . S
C1563 C1052 1.490 . S
C1561 C871 1.492 . S
C1579 C920 1.464 . S
C1581 C1065 1.493 . S
C1597 C481 1.633 . S
C1599 C1029 1.519 . S
C1617 C1043 1.398 . S
C1615 C800 1.443 . S
C1633 C200 1.482 . S
C1635 C999 1.509 . S
C1653 C1013 1.442 . S
C1651 C20 1.429 . S
C1671 C967 1.482 . S
C1669 C80 1.476 . S
C1689 C982 1.514 . S
C1687 C151 1.502 . S
C1705 C91 1.491 . S
C1707 C1094 1.490 . S
C1723 C121 1.428 . S
C1725 C1085 1.399 . S
C1741 C181 1.462 . S
C1743 C1093 1.482 . S
C1759 C1 1.429 . S
C1761 C1083 1.442 . S
C1779 C1127 1.519 . S
C1777 C511 1.633 . S
C1797 C1121 1.493 . S
C1795 C781 1.480 . S
C1815 C1125 1.509 . S
C1813 C860 1.482 . S
C1831 C931 1.502 . S
C1833 C1122 1.514 . S
C1849 C631 1.492 . S
C1851 C1038 1.490 . S
C1869 C1037 1.482 . S
C1867 C301 1.462 . S
C1887 C1057 1.398 . S
C1885 C361 1.428 . S
C1905 C1071 1.519 . S
C1903 C440 1.633 . S
C1921 C811 1.539 . S
C1923 C996 1.514 . S
C1941 C985 1.509 . S
C1939 C61 1.496 . S
C1957 C140 1.464 . S
C1959 C995 1.493 . S
C1977 C971 1.442 . S
C1975 C31 1.429 . S
