# Generated by pormake.
# Topology sit, (3,6)-cn, num edge types: 1
# Building blocks:
#     Node 0, Type 0, BuildingBlock: CUQRIR_clean_linker_1, # of connection points: 3
#     Node 1, Type 0, BuildingBlock: CUQRIR_clean_linker_1, # of connection points: 3
#     Node 2, Type 0, BuildingBlock: CUQRIR_clean_linker_1, # of connection points: 3
#     Node 3, Type 0, BuildingBlock: CUQRIR_clean_linker_1, # of connection points: 3
#     Node 4, Type 1, BuildingBlock: MIDCAF_clean_sbu_0, # of connection points: 6
#     Node 5, Type 1, BuildingBlock: MIDCAF_clean_sbu_0, # of connection points: 6
#     Edge 6, Type (0, 1), BuildingBlock: CIFDUS_clean_linker_0, # of connection points: 2
#     Edge 7, Type (0, 1), BuildingBlock: CIFDUS_clean_linker_0, # of connection points: 2
#     Edge 8, Type (0, 1), BuildingBlock: CIFDUS_clean_linker_0, # of connection points: 2
#     Edge 9, Type (0, 1), BuildingBlock: CIFDUS_clean_linker_0, # of connection points: 2
#     Edge 10, Type (0, 1), BuildingBlock: CIFDUS_clean_linker_0, # of connection points: 2
#     Edge 11, Type (0, 1), BuildingBlock: CIFDUS_clean_linker_0, # of connection points: 2
#     Edge 12, Type (0, 1), BuildingBlock: CIFDUS_clean_linker_0, # of connection points: 2
#     Edge 13, Type (0, 1), BuildingBlock: CIFDUS_clean_linker_0, # of connection points: 2
#     Edge 14, Type (0, 1), BuildingBlock: CIFDUS_clean_linker_0, # of connection points: 2
#     Edge 15, Type (0, 1), BuildingBlock: CIFDUS_clean_linker_0, # of connection points: 2
#     Edge 16, Type (0, 1), BuildingBlock: CIFDUS_clean_linker_0, # of connection points: 2
#     Edge 17, Type (0, 1), BuildingBlock: CIFDUS_clean_linker_0, # of connection points: 2
# Relax obj value: 0.072
# Max RMSD: 0.181
# Mean RMSD: 0.119
data_MOF--net-sit--node1-MIDCAF_clean_sbu_0--node2-CUQRIR_clean_linker_1--edge1-CIFDUS_clean_linker_0
_symmetry_space_group_name_H-M    P1
_symmetry_Int_Tables_number       1
_symmetry_cell_setting            triclinic
loop_
_symmetry_equiv_pos_as_xyz
'x, y, z'
_cell_length_a     17.041284
_cell_length_b     25.036318
_cell_length_c     31.855685
_cell_angle_alpha  91.205661
_cell_angle_beta   89.25182
_cell_angle_gamma 84.285608
loop_
_atom_site_label
_atom_site_type_symbol
_atom_site_fract_x
_atom_site_fract_y
_atom_site_fract_z
_atom_type_partial_charge
C0 C 0.02053 0.3177 0.03339 0.0
N1 N 0.04287 0.35458 0.00618 0.0
N2 N 0.08366 0.28395 0.04477 0.0
C3 C 0.9369 0.31276 0.04762 0.0
C4 C 0.14503 0.30166 0.02349 0.0
N5 N 0.1201 0.34419 -4e-05 0.0
C6 C 0.22928 0.2772 0.02534 0.0
H7 H 0.89917 0.35119 0.04652 0.0
H8 H 0.9354 0.29806 0.08019 0.0
H9 H 0.91111 0.28341 0.02665 0.0
H10 H 0.25924 0.2781 -0.00566 0.0
H11 H 0.23269 0.23503 0.0357 0.0
H12 H 0.26157 0.30102 0.04787 0.0
C13 C 0.96567 0.80475 0.0043 0.0
N14 N -0.00409 0.75941 -0.01614 0.0
N15 N 0.01873 0.82241 0.03122 0.0
C16 C 0.88233 0.82981 -9e-05 0.0
C17 C 0.08252 0.7856 0.0264 0.0
N18 N 0.06829 0.74668 -0.00212 0.0
C19 C 0.15795 0.78753 0.05027 0.0
H20 H 0.86567 0.83038 0.96637 0.0
H21 H 0.87494 0.87136 0.0132 0.0
H22 H 0.84188 0.80513 0.01668 0.0
H23 H 0.15355 0.76546 0.07991 0.0
H24 H 0.16875 0.82927 0.05852 0.0
H25 H 0.20932 0.76901 0.03158 0.0
C26 C 0.50296 0.828 0.52959 0.0
N27 N 0.5405 0.85159 0.49839 0.0
N28 N 0.55551 0.80434 0.55651 0.0
C29 C 0.41522 0.82499 0.53225 0.0
C30 C 0.62653 0.81437 0.54066 0.0
N31 N 0.61764 0.84255 0.50474 0.0
C32 C 0.7033 0.80161 0.56292 0.0
H33 H 0.38738 0.86119 0.54938 0.0
H34 H 0.40112 0.78892 0.54937 0.0
H35 H 0.38956 0.82392 0.50044 0.0
H36 H 0.72918 0.76075 0.55316 0.0
H37 H 0.69358 0.80208 0.59744 0.0
H38 H 0.74585 0.83084 0.5552 0.0
C39 C 0.46408 0.32721 0.49979 0.0
N40 N 0.48206 0.27924 0.47993 0.0
N41 N 0.52683 0.34157 0.52161 0.0
C42 C 0.38625 0.36067 0.49632 0.0
C43 C 0.58306 0.29969 0.51464 0.0
N44 N 0.55571 0.26181 0.48923 0.0
C45 C 0.66507 0.29616 0.53234 0.0
H46 H 0.39286 0.4039 0.50177 0.0
H47 H 0.34454 0.34756 0.52013 0.0
H48 H 0.36064 0.35492 0.4649 0.0
H49 H 0.66478 0.31584 0.56386 0.0
H50 H 0.70386 0.31654 0.51098 0.0
H51 H 0.69107 0.25427 0.53546 0.0
Zn52 Zn 0.03627 0.14368 0.33431 0.0
Zn53 Zn 0.07869 0.95345 0.31921 0.0
Zn54 Zn 0.05001 0.05162 0.32534 0.0
C55 C 0.04801 0.98514 0.2386 0.0
C56 C 0.94021 0.97043 0.36664 0.0
O57 O 0.14442 0.08107 0.36572 0.0
O58 O 0.08254 0.15744 0.38953 0.0
C59 C 0.09503 0.12955 0.25556 0.0
O60 O 0.05258 1.03144 0.25638 0.0
O61 O 0.05385 0.9434 0.26019 0.0
O62 O -0.00409 0.93441 0.35855 0.0
O63 O 0.9461 1.01891 0.35488 0.0
O64 O 0.10128 0.16154 0.2861 0.0
O65 O 0.06478 0.08512 0.26172 0.0
O66 O 0.93097 0.0767 0.35386 0.0
O67 O 0.92165 0.15858 0.32929 0.0
C68 C 0.88973 0.12168 0.34712 0.0
O69 O 0.16015 1.02445 0.35909 0.0
O70 O 0.19 0.94103 0.33609 0.0
C71 C 0.14124 0.12273 0.39052 0.0
C72 C 0.20767 0.98094 0.35744 0.0
Zn73 Zn 0.53198 0.63316 0.84543 0.0
Zn74 Zn 0.59194 0.43447 0.80395 0.0
Zn75 Zn 0.55844 0.53365 0.82628 0.0
C76 C 0.5586 0.48451 0.73049 0.0
C77 C 0.45351 0.44053 0.85378 0.0
O78 O 0.66142 0.55808 0.86257 0.0
O79 O 0.63026 0.64543 0.87264 0.0
C80 C 0.53315 0.62996 0.75943 0.0
O81 O 0.54895 0.52485 0.75653 0.0
O82 O 0.58077 0.43829 0.74326 0.0
O83 O 0.50268 0.40708 0.83476 0.0
O84 O 0.46377 0.49086 0.85438 0.0
O85 O 0.51752 0.66329 0.78931 0.0
O86 O 0.55015 0.57976 0.76713 0.0
O87 O 0.44515 0.54614 0.86278 0.0
O88 O 0.43849 0.63219 0.88113 0.0
C89 C 0.40976 0.5878 0.88191 0.0
O90 O 0.67557 0.50265 0.85273 0.0
O91 O 0.69883 0.42058 0.82526 0.0
C92 C 0.67782 0.60419 0.87695 0.0
C93 C 0.72073 0.45828 0.84763 0.0
H94 H 0.18009 0.27452 0.10997 0.0
H95 H -0.007 0.20092 0.04908 0.0
H96 H -0.01416 0.13911 0.10754 0.0
H97 H 0.02331 0.11433 0.18037 0.0
H98 H 0.21608 0.18658 0.23781 0.0
H99 H 0.23349 0.2387 0.17539 0.0
C100 C 0.13946 0.24387 0.10892 0.0
C101 C 0.08624 0.24281 0.07586 0.0
C102 C 0.13711 0.20804 0.14194 0.0
C103 C 0.03312 0.2033 0.07495 0.0
C104 C 0.02947 0.16779 0.10816 0.0
C105 C 0.07075 0.14006 0.17848 0.0
C106 C 0.11774 0.14719 0.21369 0.0
C107 C 0.07977 0.17082 0.1425 0.0
C108 C 0.1787 0.18094 0.21113 0.0
C109 C 0.18842 0.21104 0.1756 0.0
H110 H 0.08865 0.91205 0.05054 0.0
H111 H 0.91033 0.81324 0.09103 0.0
H112 H 0.89058 0.86587 0.15631 0.0
H113 H 0.93914 0.92903 0.20607 0.0
H114 H 0.12833 1.02176 0.17116 0.0
H115 H 0.12836 0.98381 0.09923 0.0
C116 C 0.04528 0.90266 0.07372 0.0
C117 C 0.00157 0.85857 0.06658 0.0
C118 C 0.03656 0.93198 0.11201 0.0
C119 C 0.94431 0.84706 0.09612 0.0
C120 C 0.93336 0.87694 0.13341 0.0
C121 C -0.0212 0.94208 0.18227 0.0
C122 C 0.03362 0.97789 0.19353 0.0
C123 C -0.01888 0.91804 0.14226 0.0
C124 C 0.08494 0.99471 0.16282 0.0
C125 C 0.0857 0.97232 0.122 0.0
H126 H 0.61244 0.70464 0.57703 0.0
H127 H 0.46183 0.84356 0.62044 0.0
H128 H 0.43457 0.79879 0.68585 0.0
H129 H 0.4596 0.72256 0.73187 0.0
H130 H 0.61661 0.58502 0.69123 0.0
H131 H 0.63414 0.62583 0.62298 0.0
C132 C 0.57382 0.72475 0.60101 0.0
C133 C 0.53912 0.77712 0.5944 0.0
C134 C 0.55916 0.69882 0.63859 0.0
C135 C 0.4885 0.80308 0.62513 0.0
C136 C 0.47317 0.77757 0.66238 0.0
C137 C 0.49709 0.70121 0.70793 0.0
C138 C 0.53609 0.65051 0.71636 0.0
C139 C 0.50886 0.72574 0.6696 0.0
C140 C 0.58432 0.62337 0.68505 0.0
C141 C 0.5953 0.64713 0.6463 0.0
H142 H 0.41988 0.38115 0.58008 0.0
H143 H 0.64386 0.4074 0.5242 0.0
H144 H 0.67071 0.46652 0.58331 0.0
H145 H 0.64094 0.4928 0.6578 0.0
H146 H 0.40966 0.47608 0.70871 0.0
H147 H 0.37272 0.43349 0.64326 0.0
C148 C 0.4729 0.40167 0.57975 0.0
C149 C 0.53165 0.3878 0.54901 0.0
C150 C 0.48633 0.43738 0.61284 0.0
C151 C 0.59969 0.41529 0.54885 0.0
C152 C 0.61475 0.44944 0.5824 0.0
C153 C 0.581 0.48286 0.65352 0.0
C154 C 0.52799 0.48732 0.68778 0.0
C155 C 0.56023 0.45831 0.61574 0.0
C156 C 0.45092 0.47346 0.68238 0.0
C157 C 0.43026 0.44825 0.64524 0.0
H158 H 0.18566 0.3114 0.92654 0.0
H159 H 0.16348 0.44269 0.01621 0.0
H160 H 0.26286 0.48763 -0.02281 0.0
H161 H 0.36626 0.48344 0.92134 0.0
H162 H 0.38603 0.35094 0.83187 0.0
H163 H 0.27871 0.31176 0.86717 0.0
C164 C 0.2021 0.35027 0.93684 0.0
C165 C 0.1687 0.37394 -0.02608 0.0
C166 C 0.2596 0.37495 0.91467 0.0
C167 C 0.18924 0.42421 -0.01246 0.0
C168 C 0.24615 0.44951 0.96542 0.0
C169 C 0.34537 0.447 0.90891 0.0
C170 C 0.38387 0.42042 0.87396 0.0
C171 C 0.28321 0.42454 0.92945 0.0
C172 C 0.3579 0.37203 0.85898 0.0
C173 C 0.29631 0.34961 0.87902 0.0
H174 H 0.9273 0.67189 0.00404 0.0
H175 H 0.96753 0.77719 0.90287 0.0
H176 H 0.88418 0.72819 0.85665 0.0
H177 H 0.787 0.66338 0.84847 0.0
H178 H 0.72666 0.56994 0.95371 0.0
H179 H 0.8326 0.60365 -0.00533 0.0
C180 C 0.91846 0.683 -0.0284 0.0
C181 C 0.95328 0.72723 0.95623 0.0
C182 C 0.86776 0.65608 0.94607 0.0
C183 C 0.94101 0.74283 0.91469 0.0
C184 C 0.89366 0.71489 0.88851 0.0
C185 C 0.79932 0.64906 0.87987 0.0
C186 C 0.75253 0.61199 0.89739 0.0
C187 C 0.85514 0.6724 0.90422 0.0
C188 C 0.76576 0.59546 0.9387 0.0
C189 C 0.82478 0.61605 0.96247 0.0
H190 H 0.03156 0.35071 0.92295 0.0
H191 H 0.94011 0.43772 0.03369 0.0
H192 H 0.83339 0.48369 -0.00724 0.0
H193 H 0.75504 0.48572 0.92751 0.0
H194 H 0.85417 0.40418 0.81597 0.0
H195 H 0.96966 0.36889 0.8549 0.0
C196 C -0.01029 0.38105 0.93768 0.0
C197 C -0.00844 0.38987 -0.01879 0.0
C198 C 0.92975 0.40752 0.91388 0.0
C199 C 0.93765 0.42935 0.00027 0.0
C200 C 0.877 0.45554 -0.02308 0.0
C201 C 0.80417 0.46319 0.91134 0.0
C202 C 0.79688 0.44848 0.86897 0.0
C203 C 0.87074 0.44331 0.93396 0.0
C204 C 0.85869 0.41607 0.84869 0.0
C205 C 0.9246 0.39577 0.8709 0.0
H206 H 0.09617 0.71116 0.91828 0.0
H207 H 0.15865 0.67721 0.04624 0.0
H208 H 0.26801 0.61292 0.02153 0.0
H209 H 0.35855 0.58083 0.96239 0.0
H210 H 0.28098 0.6046 0.83546 0.0
H211 H 0.15949 0.65531 0.86104 0.0
C212 C 0.13051 0.68785 0.94099 0.0
C213 C 0.12112 0.7007 -0.016 0.0
C214 C 0.18973 0.64865 0.92668 0.0
C215 C 0.16758 0.67026 0.01282 0.0
C216 C 0.22931 0.63292 -0.00125 0.0
C217 C 0.31282 0.59445 0.94059 0.0
C218 C 0.32827 0.58951 0.89721 0.0
C219 C 0.24308 0.62371 0.95559 0.0
C220 C 0.26949 0.60763 0.86902 0.0
C221 C 0.2008 0.63751 0.88361 0.0
H222 H 0.62705 0.939 0.46856 0.0
H223 H 0.7472 0.78001 0.47878 0.0
H224 H 0.85945 0.80668 0.43897 0.0
H225 H 0.92443 0.87533 0.40306 0.0
H226 H 0.79459 1.02705 0.37785 0.0
H227 H 0.68427 1.00366 0.42166 0.0
C228 C 0.677 0.90991 0.4613 0.0
C229 C 0.67977 0.85792 0.47763 0.0
C230 C 0.73977 0.92472 0.43638 0.0
C231 C 0.7451 0.82079 0.46794 0.0
C232 C 0.80892 0.83586 0.44486 0.0
C233 C 0.87214 0.90354 0.40702 0.0
C234 C 0.86999 0.95497 0.38979 0.0
C235 C 0.80726 0.88789 0.4294 0.0
C236 C 0.80029 0.98959 0.39394 0.0
C237 C 0.73651 0.9754 0.41804 0.0
H238 H 0.392 0.20825 0.51121 0.0
H239 H 0.45123 0.28582 0.39763 0.0
H240 H 0.35891 0.23571 0.3581 0.0
H241 H 0.25426 0.17503 0.35731 0.0
H242 H 0.17842 0.10914 0.47294 0.0
H243 H 0.28454 0.14829 0.51064 0.0
C244 C 0.3847 0.21337 0.47773 0.0
C245 C 0.42904 0.24914 0.45678 0.0
C246 C 0.32892 0.1863 0.45588 0.0
C247 C 0.41881 0.25715 0.41375 0.0
C248 C 0.36584 0.22885 0.39139 0.0
C249 C 0.26259 0.16828 0.39058 0.0
C250 C 0.21138 0.13767 0.41225 0.0
C251 C 0.32005 0.19375 0.41222 0.0
C252 C 0.21946 0.13103 0.45561 0.0
C253 C 0.27935 0.15391 0.47712 0.0
H254 H 0.44111 0.93999 0.50564 0.0
H255 H 0.55358 0.82558 0.41593 0.0
H256 H 0.4661 0.86261 0.36065 0.0
H257 H 0.34423 0.91797 0.34172 0.0
H258 H 0.22414 1.02491 0.43456 0.0
H259 H 0.32853 1.00216 0.48468 0.0
C260 C 0.44717 0.92432 0.47364 0.0
C261 C 0.50245 0.88021 0.46446 0.0
C262 C 0.39512 0.94458 0.44287 0.0
C263 C 0.51108 0.8597 0.42323 0.0
C264 C 0.46076 0.88058 0.39194 0.0
C265 C 0.34215 0.93714 0.37263 0.0
C266 C 0.27768 0.97428 0.38426 0.0
C267 C 0.40047 0.92154 0.40189 0.0
C268 C 0.27498 0.99841 0.42441 0.0
C269 C 0.33383 0.98439 0.45332 0.0
H270 H 0.5845 0.25643 0.40714 0.0
H271 H 0.63413 0.17286 0.52169 0.0
H272 H 0.74045 0.11471 0.48595 0.0
H273 H 0.83227 0.10008 0.42457 0.0
H274 H 0.76997 0.17779 0.30842 0.0
H275 H 0.65287 0.22506 0.3419 0.0
C276 C 0.61583 0.22375 0.42369 0.0
C277 C 0.6031 0.21935 0.46691 0.0
C278 C 0.67467 0.18998 0.40271 0.0
C279 C 0.64494 0.17755 0.48847 0.0
C280 C 0.70539 0.14445 0.46807 0.0
C281 C 0.79095 0.12535 0.40618 0.0
C282 C 0.80929 0.1353 0.36407 0.0
C283 C 0.72295 0.15196 0.42553 0.0
C284 C 0.75662 0.16938 0.34083 0.0
C285 C 0.68999 0.19664 0.35998 0.0
loop_
_geom_bond_atom_site_label_1
_geom_bond_atom_site_label_2
_geom_bond_distance
_geom_bond_site_symmetry_2
_ccdc_geom_bond_type
C0 N1 1.317 . S
C0 N2 1.348 . S
C0 C3 1.485 1_455 S
N1 C0 1.317 . S
N1 N5 1.370 . S
N2 C0 1.348 . S
N2 C4 1.346 . S
C3 C0 1.485 1_655 S
C3 H7 0.960 . S
C3 H8 0.961 . S
C3 H9 0.960 . S
C4 N2 1.346 . S
C4 N5 1.307 . S
C4 C6 1.486 . S
N5 N1 1.370 . S
N5 C4 1.307 . S
C6 C4 1.486 . S
C6 H10 0.960 . S
C6 H11 0.960 . S
C6 H12 0.959 . S
H7 C3 0.960 . S
H8 C3 0.961 . S
H9 C3 0.960 . S
H10 C6 0.960 . S
H11 C6 0.960 . S
H12 C6 0.959 . S
C13 N14 1.317 . S
C13 N15 1.348 . S
C13 C16 1.485 . S
N14 C13 1.317 . S
N14 N18 1.370 1_655 S
N15 C13 1.348 . S
N15 C17 1.346 1_655 S
C16 C13 1.485 . S
C16 H20 0.960 . S
C16 H21 0.961 . S
C16 H22 0.960 . S
C17 N15 1.346 1_455 S
C17 N18 1.307 . S
C17 C19 1.486 . S
N18 N14 1.370 1_455 S
N18 C17 1.307 . S
C19 C17 1.486 . S
C19 H23 0.960 . S
C19 H24 0.960 . S
C19 H25 0.959 . S
H20 C16 0.960 . S
H21 C16 0.961 . S
H22 C16 0.960 . S
H23 C19 0.960 . S
H24 C19 0.960 . S
H25 C19 0.959 . S
C26 N27 1.317 . S
C26 N28 1.348 . S
C26 C29 1.485 . S
N27 C26 1.317 . S
N27 N31 1.370 . S
N28 C26 1.348 . S
N28 C30 1.346 . S
C29 C26 1.485 . S
C29 H33 0.960 . S
C29 H34 0.961 . S
C29 H35 0.960 . S
C30 N28 1.346 . S
C30 N31 1.307 . S
C30 C32 1.486 . S
N31 N27 1.370 . S
N31 C30 1.307 . S
C32 C30 1.486 . S
C32 H36 0.960 . S
C32 H37 0.960 . S
C32 H38 0.959 . S
H33 C29 0.960 . S
H34 C29 0.961 . S
H35 C29 0.960 . S
H36 C32 0.960 . S
H37 C32 0.960 . S
H38 C32 0.959 . S
C39 N40 1.317 . S
C39 N41 1.348 . S
C39 C42 1.485 . S
N40 C39 1.317 . S
N40 N44 1.370 . S
N41 C39 1.348 . S
N41 C43 1.346 . S
C42 C39 1.485 . S
C42 H46 0.960 . S
C42 H47 0.961 . S
C42 H48 0.960 . S
C43 N41 1.346 . S
C43 N44 1.307 . S
C43 C45 1.486 . S
N44 N40 1.370 . S
N44 C43 1.307 . S
C45 C43 1.486 . S
C45 H49 0.960 . S
C45 H50 0.960 . S
C45 H51 0.959 . S
H46 C42 0.960 . S
H47 C42 0.961 . S
H48 C42 0.960 . S
H49 C45 0.960 . S
H50 C45 0.960 . S
H51 C45 0.959 . S
Zn52 O58 1.920 . S
Zn52 O64 1.898 . S
Zn52 O67 1.905 1_455 S
Zn53 O61 1.905 . S
Zn53 O62 1.898 . S
Zn53 O70 1.920 . S
Zn54 O57 2.080 . S
Zn54 O60 2.114 1_545 S
Zn54 O63 2.120 1_545 S
Zn54 O65 2.120 . S
Zn54 O66 2.114 1_455 S
Zn54 O69 2.080 1_545 S
C55 O60 1.166 . S
C55 O61 1.182 . S
C56 O62 1.167 1_655 S
C56 O63 1.299 1_655 S
O57 Zn54 2.080 . S
O57 C71 1.305 . S
O58 Zn52 1.920 . S
O58 C71 1.234 . S
C59 O64 1.167 . S
C59 O65 1.299 . S
O60 Zn54 2.114 1_565 S
O60 C55 1.166 . S
O61 Zn53 1.905 . S
O61 C55 1.182 . S
O62 Zn53 1.898 . S
O62 C56 1.167 1_455 S
O63 Zn54 2.120 1_565 S
O63 C56 1.299 1_455 S
O64 Zn52 1.898 . S
O64 C59 1.167 . S
O65 Zn54 2.120 . S
O65 C59 1.299 . S
O66 Zn54 2.114 1_655 S
O66 C68 1.166 . S
O67 Zn52 1.905 1_655 S
O67 C68 1.182 . S
C68 O66 1.166 . S
C68 O67 1.182 . S
O69 Zn54 2.080 1_565 S
O69 C72 1.305 . S
O70 Zn53 1.920 . S
O70 C72 1.234 . S
C71 O57 1.305 . S
C71 O58 1.234 . S
C72 O69 1.305 . S
C72 O70 1.234 . S
Zn73 O79 1.920 . S
Zn73 O85 1.898 . S
Zn73 O88 1.905 . S
Zn74 O82 1.905 . S
Zn74 O83 1.898 . S
Zn74 O91 1.920 . S
Zn75 O78 2.080 . S
Zn75 O81 2.114 . S
Zn75 O84 2.120 . S
Zn75 O86 2.120 . S
Zn75 O87 2.114 . S
Zn75 O90 2.080 . S
C76 O81 1.166 . S
C76 O82 1.182 . S
C77 O83 1.167 . S
C77 O84 1.299 . S
O78 Zn75 2.080 . S
O78 C92 1.305 . S
O79 Zn73 1.920 . S
O79 C92 1.234 . S
C80 O85 1.167 . S
C80 O86 1.299 . S
O81 Zn75 2.114 . S
O81 C76 1.166 . S
O82 Zn74 1.905 . S
O82 C76 1.182 . S
O83 Zn74 1.898 . S
O83 C77 1.167 . S
O84 Zn75 2.120 . S
O84 C77 1.299 . S
O85 Zn73 1.898 . S
O85 C80 1.167 . S
O86 Zn75 2.120 . S
O86 C80 1.299 . S
O87 Zn75 2.114 . S
O87 C89 1.166 . S
O88 Zn73 1.905 . S
O88 C89 1.182 . S
C89 O87 1.166 . S
C89 O88 1.182 . S
O90 Zn75 2.080 . S
O90 C93 1.305 . S
O91 Zn74 1.920 . S
O91 C93 1.234 . S
C92 O78 1.305 . S
C92 O79 1.234 . S
C93 O90 1.305 . S
C93 O91 1.234 . S
H94 C100 0.930 . S
H95 C103 0.930 . S
H96 C104 0.930 . S
H97 C105 0.930 . S
H98 C108 0.930 . S
H99 C109 0.930 . S
C100 H94 0.930 . S
C100 C101 1.355 . S
C100 C102 1.415 . S
C101 C100 1.355 . S
C101 C103 1.419 . S
C102 C100 1.415 . S
C102 C107 1.425 . S
C102 C109 1.409 . S
C103 H95 0.930 . S
C103 C101 1.419 . S
C103 C104 1.362 . S
C104 H96 0.930 . S
C104 C103 1.362 . S
C104 C107 1.409 . S
C105 H97 0.930 . S
C105 C106 1.355 . S
C105 C107 1.415 . S
C106 C105 1.355 . S
C106 C108 1.419 . S
C107 C102 1.425 . S
C107 C104 1.409 . S
C107 C105 1.415 . S
C108 H98 0.930 . S
C108 C106 1.419 . S
C108 C109 1.362 . S
C109 H99 0.930 . S
C109 C102 1.409 . S
C109 C108 1.362 . S
H110 C116 0.930 . S
H111 C119 0.930 . S
H112 C120 0.930 . S
H113 C121 0.930 . S
H114 C124 0.930 . S
H115 C125 0.930 . S
C116 H110 0.930 . S
C116 C117 1.355 1_655 S
C116 C118 1.415 1_655 S
C117 C116 1.355 1_455 S
C117 C119 1.419 . S
C118 C116 1.415 1_455 S
C118 C123 1.425 . S
C118 C125 1.409 1_455 S
C119 H111 0.930 . S
C119 C117 1.419 . S
C119 C120 1.362 . S
C120 H112 0.930 . S
C120 C119 1.362 . S
C120 C123 1.409 . S
C121 H113 0.930 . S
C121 C122 1.355 . S
C121 C123 1.415 . S
C122 C121 1.355 . S
C122 C124 1.419 1_455 S
C123 C118 1.425 . S
C123 C120 1.409 . S
C123 C121 1.415 . S
C124 H114 0.930 . S
C124 C122 1.419 1_655 S
C124 C125 1.362 . S
C125 H115 0.930 . S
C125 C118 1.409 1_655 S
C125 C124 1.362 . S
H126 C132 0.930 . S
H127 C135 0.930 . S
H128 C136 0.930 . S
H129 C137 0.930 . S
H130 C140 0.930 . S
H131 C141 0.930 . S
C132 H126 0.930 . S
C132 C133 1.355 . S
C132 C134 1.415 . S
C133 C132 1.355 . S
C133 C135 1.419 . S
C134 C132 1.415 . S
C134 C139 1.425 . S
C134 C141 1.409 . S
C135 H127 0.930 . S
C135 C133 1.419 . S
C135 C136 1.362 . S
C136 H128 0.930 . S
C136 C135 1.362 . S
C136 C139 1.409 . S
C137 H129 0.930 . S
C137 C138 1.355 . S
C137 C139 1.415 . S
C138 C137 1.355 . S
C138 C140 1.419 . S
C139 C134 1.425 . S
C139 C136 1.409 . S
C139 C137 1.415 . S
C140 H130 0.930 . S
C140 C138 1.419 . S
C140 C141 1.362 . S
C141 H131 0.930 . S
C141 C134 1.409 . S
C141 C140 1.362 . S
H142 C148 0.930 . S
H143 C151 0.930 . S
H144 C152 0.930 . S
H145 C153 0.930 . S
H146 C156 0.930 . S
H147 C157 0.930 . S
C148 H142 0.930 . S
C148 C149 1.355 . S
C148 C150 1.415 . S
C149 C148 1.355 . S
C149 C151 1.419 . S
C150 C148 1.415 . S
C150 C155 1.425 . S
C150 C157 1.409 . S
C151 H143 0.930 . S
C151 C149 1.419 . S
C151 C152 1.362 . S
C152 H144 0.930 . S
C152 C151 1.362 . S
C152 C155 1.409 . S
C153 H145 0.930 . S
C153 C154 1.355 . S
C153 C155 1.415 . S
C154 C153 1.355 . S
C154 C156 1.419 . S
C155 C150 1.425 . S
C155 C152 1.409 . S
C155 C153 1.415 . S
C156 H146 0.930 . S
C156 C154 1.419 . S
C156 C157 1.362 . S
C157 H147 0.930 . S
C157 C150 1.409 . S
C157 C156 1.362 . S
H158 C164 0.930 . S
H159 C167 0.930 1_554 S
H160 C168 0.930 . S
H161 C169 0.930 . S
H162 C172 0.930 . S
H163 C173 0.930 . S
C164 H158 0.930 . S
C164 C165 1.355 . S
C164 C166 1.415 . S
C165 C164 1.355 . S
C165 C167 1.419 . S
C166 C164 1.415 . S
C166 C171 1.425 . S
C166 C173 1.409 . S
C167 H159 0.930 1_556 S
C167 C165 1.419 . S
C167 C168 1.362 . S
C168 H160 0.930 . S
C168 C167 1.362 . S
C168 C171 1.409 . S
C169 H161 0.930 . S
C169 C170 1.355 . S
C169 C171 1.415 . S
C170 C169 1.355 . S
C170 C172 1.419 . S
C171 C166 1.425 . S
C171 C168 1.409 . S
C171 C169 1.415 . S
C172 H162 0.930 . S
C172 C170 1.419 . S
C172 C173 1.362 . S
C173 H163 0.930 . S
C173 C166 1.409 . S
C173 C172 1.362 . S
H174 C180 0.930 1_554 S
H175 C183 0.930 1_455 S
H176 C184 0.930 . S
H177 C185 0.930 . S
H178 C188 0.930 . S
H179 C189 0.930 . S
C180 H174 0.930 1_556 S
C180 C181 1.355 . S
C180 C182 1.415 . S
C181 C180 1.355 . S
C181 C183 1.419 . S
C182 C180 1.415 . S
C182 C187 1.425 . S
C182 C189 1.409 . S
C183 H175 0.930 1_655 S
C183 C181 1.419 . S
C183 C184 1.362 . S
C184 H176 0.930 . S
C184 C183 1.362 . S
C184 C187 1.409 . S
C185 H177 0.930 . S
C185 C186 1.355 . S
C185 C187 1.415 . S
C186 C185 1.355 . S
C186 C188 1.419 . S
C187 C182 1.425 . S
C187 C184 1.409 . S
C187 C185 1.415 . S
C188 H178 0.930 . S
C188 C186 1.419 . S
C188 C189 1.362 . S
C189 H179 0.930 . S
C189 C182 1.409 . S
C189 C188 1.362 . S
H190 C196 0.930 . S
H191 C199 0.930 1_554 S
H192 C200 0.930 . S
H193 C201 0.930 . S
H194 C204 0.930 . S
H195 C205 0.930 . S
C196 H190 0.930 . S
C196 C197 1.355 1_655 S
C196 C198 1.415 . S
C197 C196 1.355 1_455 S
C197 C199 1.419 . S
C198 C196 1.415 . S
C198 C203 1.425 . S
C198 C205 1.409 . S
C199 H191 0.930 1_556 S
C199 C197 1.419 . S
C199 C200 1.362 1_455 S
C200 H192 0.930 . S
C200 C199 1.362 1_655 S
C200 C203 1.409 . S
C201 H193 0.930 . S
C201 C202 1.355 . S
C201 C203 1.415 . S
C202 C201 1.355 . S
C202 C204 1.419 . S
C203 C198 1.425 . S
C203 C200 1.409 . S
C203 C201 1.415 . S
C204 H194 0.930 . S
C204 C202 1.419 . S
C204 C205 1.362 . S
C205 H195 0.930 . S
C205 C198 1.409 . S
C205 C204 1.362 . S
H206 C212 0.930 . S
H207 C215 0.930 . S
H208 C216 0.930 . S
H209 C217 0.930 . S
H210 C220 0.930 . S
H211 C221 0.930 . S
C212 H206 0.930 . S
C212 C213 1.355 . S
C212 C214 1.415 . S
C213 C212 1.355 . S
C213 C215 1.419 . S
C214 C212 1.415 . S
C214 C219 1.425 . S
C214 C221 1.409 . S
C215 H207 0.930 . S
C215 C213 1.419 . S
C215 C216 1.362 . S
C216 H208 0.930 . S
C216 C215 1.362 . S
C216 C219 1.409 . S
C217 H209 0.930 . S
C217 C218 1.355 . S
C217 C219 1.415 . S
C218 C217 1.355 . S
C218 C220 1.419 . S
C219 C214 1.425 . S
C219 C216 1.409 . S
C219 C217 1.415 . S
C220 H210 0.930 . S
C220 C218 1.419 . S
C220 C221 1.362 . S
C221 H211 0.930 . S
C221 C214 1.409 . S
C221 C220 1.362 . S
H222 C228 0.930 . S
H223 C231 0.930 . S
H224 C232 0.930 . S
H225 C233 0.930 . S
H226 C236 0.930 . S
H227 C237 0.930 . S
C228 H222 0.930 . S
C228 C229 1.355 . S
C228 C230 1.415 . S
C229 C228 1.355 . S
C229 C231 1.419 . S
C230 C228 1.415 . S
C230 C235 1.425 . S
C230 C237 1.409 . S
C231 H223 0.930 . S
C231 C229 1.419 . S
C231 C232 1.362 . S
C232 H224 0.930 . S
C232 C231 1.362 . S
C232 C235 1.409 . S
C233 H225 0.930 . S
C233 C234 1.355 . S
C233 C235 1.415 . S
C234 C233 1.355 . S
C234 C236 1.419 . S
C235 C230 1.425 . S
C235 C232 1.409 . S
C235 C233 1.415 . S
C236 H226 0.930 . S
C236 C234 1.419 . S
C236 C237 1.362 . S
C237 H227 0.930 . S
C237 C230 1.409 . S
C237 C236 1.362 . S
H238 C244 0.930 . S
H239 C247 0.930 . S
H240 C248 0.930 . S
H241 C249 0.930 . S
H242 C252 0.930 . S
H243 C253 0.930 . S
C244 H238 0.930 . S
C244 C245 1.355 . S
C244 C246 1.415 . S
C245 C244 1.355 . S
C245 C247 1.419 . S
C246 C244 1.415 . S
C246 C251 1.425 . S
C246 C253 1.409 . S
C247 H239 0.930 . S
C247 C245 1.419 . S
C247 C248 1.362 . S
C248 H240 0.930 . S
C248 C247 1.362 . S
C248 C251 1.409 . S
C249 H241 0.930 . S
C249 C250 1.355 . S
C249 C251 1.415 . S
C250 C249 1.355 . S
C250 C252 1.419 . S
C251 C246 1.425 . S
C251 C248 1.409 . S
C251 C249 1.415 . S
C252 H242 0.930 . S
C252 C250 1.419 . S
C252 C253 1.362 . S
C253 H243 0.930 . S
C253 C246 1.409 . S
C253 C252 1.362 . S
H254 C260 0.930 . S
H255 C263 0.930 . S
H256 C264 0.930 . S
H257 C265 0.930 . S
H258 C268 0.930 . S
H259 C269 0.930 . S
C260 H254 0.930 . S
C260 C261 1.355 . S
C260 C262 1.415 . S
C261 C260 1.355 . S
C261 C263 1.419 . S
C262 C260 1.415 . S
C262 C267 1.425 . S
C262 C269 1.409 . S
C263 H255 0.930 . S
C263 C261 1.419 . S
C263 C264 1.362 . S
C264 H256 0.930 . S
C264 C263 1.362 . S
C264 C267 1.409 . S
C265 H257 0.930 . S
C265 C266 1.355 . S
C265 C267 1.415 . S
C266 C265 1.355 . S
C266 C268 1.419 . S
C267 C262 1.425 . S
C267 C264 1.409 . S
C267 C265 1.415 . S
C268 H258 0.930 . S
C268 C266 1.419 . S
C268 C269 1.362 . S
C269 H259 0.930 . S
C269 C262 1.409 . S
C269 C268 1.362 . S
H270 C276 0.930 . S
H271 C279 0.930 . S
H272 C280 0.930 . S
H273 C281 0.930 . S
H274 C284 0.930 . S
H275 C285 0.930 . S
C276 H270 0.930 . S
C276 C277 1.355 . S
C276 C278 1.415 . S
C277 C276 1.355 . S
C277 C279 1.419 . S
C278 C276 1.415 . S
C278 C283 1.425 . S
C278 C285 1.409 . S
C279 H271 0.930 . S
C279 C277 1.419 . S
C279 C280 1.362 . S
C280 H272 0.930 . S
C280 C279 1.362 . S
C280 C283 1.409 . S
C281 H273 0.930 . S
C281 C282 1.355 . S
C281 C283 1.415 . S
C282 C281 1.355 . S
C282 C284 1.419 . S
C283 C278 1.425 . S
C283 C280 1.409 . S
C283 C281 1.415 . S
C284 H274 0.930 . S
C284 C282 1.419 . S
C284 C285 1.362 . S
C285 H275 0.930 . S
C285 C278 1.409 . S
C285 C284 1.362 . S
C106 C59 1.330 . S
C101 N2 1.517 . S
C122 C55 1.440 . S
C117 N15 1.491 1_455 S
C138 C80 1.439 . S
C133 N28 1.501 . S
C149 N41 1.511 . S
C154 C76 1.366 . S
C165 N5 1.307 1_556 S
C170 C77 1.091 . S
C186 C92 1.121 . S
C181 N14 1.312 1_556 S
C197 N1 1.719 1_556 S
C202 C93 1.509 . S
C218 C89 1.529 . S
C213 N18 1.726 1_556 S
C234 C56 1.228 . S
C229 N31 1.321 . S
C245 N40 1.338 . S
C250 C71 1.252 . S
C266 C72 1.558 . S
C261 N27 1.715 . S
C282 C68 1.529 . S
C277 N44 1.726 . S
