# Generated by pormake.
# Topology zzz, (3,6)-cn, num edge types: 1
# Building blocks:
#     Node 0, Type 0, BuildingBlock: ESEHIV_clean_linker_0, # of connection points: 3
#     Node 1, Type 0, BuildingBlock: ESEHIV_clean_linker_0, # of connection points: 3
#     Node 2, Type 0, BuildingBlock: ESEHIV_clean_linker_0, # of connection points: 3
#     Node 3, Type 0, BuildingBlock: ESEHIV_clean_linker_0, # of connection points: 3
#     Node 4, Type 0, BuildingBlock: ESEHIV_clean_linker_0, # of connection points: 3
#     Node 5, Type 0, BuildingBlock: ESEHIV_clean_linker_0, # of connection points: 3
#     Node 6, Type 0, BuildingBlock: ESEHIV_clean_linker_0, # of connection points: 3
#     Node 7, Type 0, BuildingBlock: ESEHIV_clean_linker_0, # of connection points: 3
#     Node 8, Type 1, BuildingBlock: KUMBUR_clean_sbu_0, # of connection points: 6
#     Node 9, Type 1, BuildingBlock: KUMBUR_clean_sbu_0, # of connection points: 6
#     Node 10, Type 1, BuildingBlock: KUMBUR_clean_sbu_0, # of connection points: 6
#     Node 11, Type 1, BuildingBlock: KUMBUR_clean_sbu_0, # of connection points: 6
#     Edge 12, Type (0, 1), BuildingBlock: UVAHIK_clean_linker_0, # of connection points: 2
#     Edge 13, Type (0, 1), BuildingBlock: UVAHIK_clean_linker_0, # of connection points: 2
#     Edge 14, Type (0, 1), BuildingBlock: UVAHIK_clean_linker_0, # of connection points: 2
#     Edge 15, Type (0, 1), BuildingBlock: UVAHIK_clean_linker_0, # of connection points: 2
#     Edge 16, Type (0, 1), BuildingBlock: UVAHIK_clean_linker_0, # of connection points: 2
#     Edge 17, Type (0, 1), BuildingBlock: UVAHIK_clean_linker_0, # of connection points: 2
#     Edge 18, Type (0, 1), BuildingBlock: UVAHIK_clean_linker_0, # of connection points: 2
#     Edge 19, Type (0, 1), BuildingBlock: UVAHIK_clean_linker_0, # of connection points: 2
#     Edge 20, Type (0, 1), BuildingBlock: UVAHIK_clean_linker_0, # of connection points: 2
#     Edge 21, Type (0, 1), BuildingBlock: UVAHIK_clean_linker_0, # of connection points: 2
#     Edge 22, Type (0, 1), BuildingBlock: UVAHIK_clean_linker_0, # of connection points: 2
#     Edge 23, Type (0, 1), BuildingBlock: UVAHIK_clean_linker_0, # of connection points: 2
#     Edge 24, Type (0, 1), BuildingBlock: UVAHIK_clean_linker_0, # of connection points: 2
#     Edge 25, Type (0, 1), BuildingBlock: UVAHIK_clean_linker_0, # of connection points: 2
#     Edge 26, Type (0, 1), BuildingBlock: UVAHIK_clean_linker_0, # of connection points: 2
#     Edge 27, Type (0, 1), BuildingBlock: UVAHIK_clean_linker_0, # of connection points: 2
#     Edge 28, Type (0, 1), BuildingBlock: UVAHIK_clean_linker_0, # of connection points: 2
#     Edge 29, Type (0, 1), BuildingBlock: UVAHIK_clean_linker_0, # of connection points: 2
#     Edge 30, Type (0, 1), BuildingBlock: UVAHIK_clean_linker_0, # of connection points: 2
#     Edge 31, Type (0, 1), BuildingBlock: UVAHIK_clean_linker_0, # of connection points: 2
#     Edge 32, Type (0, 1), BuildingBlock: UVAHIK_clean_linker_0, # of connection points: 2
#     Edge 33, Type (0, 1), BuildingBlock: UVAHIK_clean_linker_0, # of connection points: 2
#     Edge 34, Type (0, 1), BuildingBlock: UVAHIK_clean_linker_0, # of connection points: 2
#     Edge 35, Type (0, 1), BuildingBlock: UVAHIK_clean_linker_0, # of connection points: 2
# Relax obj value: 0.297
# Max RMSD: 0.224
# Mean RMSD: 0.211
data_MOF--net-zzz--node1-KUMBUR_clean_sbu_0--node2-ESEHIV_clean_linker_0--edge1-UVAHIK_clean_linker_0
_symmetry_space_group_name_H-M    P1
_symmetry_Int_Tables_number       1
_symmetry_cell_setting            triclinic
loop_
_symmetry_equiv_pos_as_xyz
'x, y, z'
_cell_length_a     57.864151
_cell_length_b     57.794571
_cell_length_c     20.19246
_cell_angle_alpha  90.93765
_cell_angle_beta   89.97397
_cell_angle_gamma 89.943918
loop_
_atom_site_label
_atom_site_type_symbol
_atom_site_fract_x
_atom_site_fract_y
_atom_site_fract_z
_atom_type_partial_charge
H0 H 0.79399 0.57011 0.16867 0.0
H1 H 0.74365 0.57176 0.01321 0.0
H2 H 0.73162 0.53025 0.18579 0.0
C3 C 0.77698 0.56552 0.15004 0.0
C4 C 0.76353 0.54987 0.18547 0.0
C5 C 0.77014 0.57322 0.08779 0.0
C6 C 0.74883 0.56605 0.0619 0.0
C7 C 0.73444 0.55108 0.09756 0.0
C8 C 0.742 0.54267 0.15939 0.0
H9 H 0.95438 0.80391 0.14035 0.0
H10 H 0.95179 0.74264 0.01724 0.0
H11 H 1.00455 0.7498 0.16683 0.0
C12 C 0.96065 0.78669 0.12787 0.0
C13 C 0.97994 0.77814 0.16171 0.0
C14 C 0.9505 0.77419 0.07534 0.0
C15 C 0.95946 0.75239 0.05798 0.0
C16 C 0.9789 0.74339 0.0901 0.0
C17 C 0.98922 0.7563 0.14262 0.0
H18 H 0.71594 0.95326 0.15697 0.0
H19 H 0.78392 0.9412 0.07636 0.0
H20 H 0.77335 0.99362 0.22683 0.0
C21 C 0.73435 0.95648 0.15646 0.0
C22 C 0.74308 0.97343 0.2003 0.0
C23 C 0.74864 0.94487 0.11022 0.0
C24 C 0.77237 0.95 0.11066 0.0
C25 C 0.78132 0.96794 0.15065 0.0
C26 C 0.76667 0.97955 0.19635 0.0
H27 H 0.57544 0.72731 0.21857 0.0
H28 H 0.54329 0.79337 0.25582 0.0
H29 H 0.5727 0.77706 0.06396 0.0
C30 C 0.57148 0.74471 0.20247 0.0
C31 C 0.57585 0.75063 0.13687 0.0
C32 C 0.55965 0.75979 0.24557 0.0
C33 C 0.55299 0.78184 0.22338 0.0
C34 C 0.55812 0.7884 0.1578 0.0
C35 C 0.56943 0.77256 0.11506 0.0
H36 H 0.22068 0.46589 0.06738 0.0
H37 H 0.27261 0.45352 0.21369 0.0
H38 H 0.28383 0.50483 0.06314 0.0
C39 C 0.23789 0.46916 0.08679 0.0
C40 C 0.25131 0.4865 0.05867 0.0
C41 C 0.2454 0.45729 0.14247 0.0
C42 C 0.2672 0.4623 0.16926 0.0
C43 C 0.28167 0.47902 0.14028 0.0
C44 C 0.27336 0.49145 0.08511 0.0
H45 H 0.05757 0.2259 0.08108 0.0
H46 H 0.06373 0.28844 0.19732 0.0
H47 H 0.0312 0.28991 1.00528 0.0
C48 C 0.05545 0.24449 0.08627 0.0
C49 C 0.04471 0.2565 0.03495 0.0
C50 C 0.06196 0.25573 0.14543 0.0
C51 C 0.05855 0.27962 0.15189 0.0
C52 C 0.04737 0.29219 0.10245 0.0
C53 C 0.04012 0.28052 0.04357 0.0
H54 H 0.2957 0.05984 0.0736 0.0
H55 H 0.2337 0.06258 0.19089 0.0
H56 H 0.23245 0.03169 0.99537 0.0
C57 C 0.27725 0.05718 0.07876 0.0
C58 C 0.26524 0.04664 0.02608 0.0
C59 C 0.26625 0.06251 0.13911 0.0
C60 C 0.2425 0.05834 0.14483 0.0
C61 C 0.23019 0.04699 0.09414 0.0
C62 C 0.24164 0.0409 0.03435 0.0
H63 H 0.44114 0.29354 0.06543 0.0
H64 H 0.4853 0.2348 0.03056 0.0
H65 H 0.43536 0.23382 0.18862 0.0
C66 C 0.4458 0.27586 0.07668 0.0
C67 C 0.43597 0.26509 0.13177 0.0
C68 C 0.46331 0.26505 0.03929 0.0
C69 C 0.47118 0.24295 0.05744 0.0
C70 C 0.46063 0.23145 0.11055 0.0
C71 C 0.44289 0.24247 0.14653 0.0
Tb72 Tb 0.0323 1.00369 0.69759 0.0
C73 C 0.9711 0.97892 0.47955 0.0
C74 C 0.98004 0.99306 0.36999 0.0
C75 C 0.96201 0.95545 0.38155 0.0
C76 C 0.9803 0.99581 0.4396 0.0
C77 C 0.96148 0.95868 0.4506 0.0
C78 C 0.97129 0.9726 0.34133 0.0
C79 C 0.95097 0.94634 0.55982 0.0
N80 N 0.97127 0.98242 0.54642 0.0
C81 C 0.96107 0.96638 0.58652 0.0
C82 C 0.95139 0.94234 0.4917 0.0
Tb83 Tb 0.98785 0.01684 0.58235 0.0
N84 N 0.98851 0.01543 0.46874 0.0
C85 C 0.99491 0.0338 0.43065 0.0
C86 C 0.988 0.01122 0.33111 0.0
C87 C 0.99519 0.0318 0.36162 0.0
H88 H 0.9612 0.96797 0.63954 0.0
H89 H 1.00092 0.04615 0.33204 0.0
H90 H 0.97117 0.97008 0.28803 0.0
H91 H 0.94332 0.9337 0.59216 0.0
H92 H 1.00065 0.04974 0.45369 0.0
H93 H 1.00273 0.06526 0.88492 0.0
H94 H 0.98811 0.00974 0.27755 0.0
H95 H 0.0858 0.99216 0.64657 0.0
H96 H 0.99923 0.03243 0.80849 0.0
H97 H 0.12428 0.0104 0.65089 0.0
H98 H 0.95497 0.9399 0.3587 0.0
H99 H 0.03903 0.08767 0.89088 0.0
H100 H 0.07995 0.09284 0.85254 0.0
H101 H 0.94386 0.9266 0.47136 0.0
H102 H 0.11297 0.07828 0.78708 0.0
N103 N 0.03363 0.03498 0.77032 0.0
C104 C 0.0155 0.04132 0.81045 0.0
C105 C 0.03777 0.07287 0.85742 0.0
C106 C 0.05645 0.06607 0.81785 0.0
C107 C 0.0173 0.06023 0.85428 0.0
C108 C 0.05385 0.0467 0.77497 0.0
H109 H 0.12974 0.04742 0.71211 0.0
N110 N 0.06907 0.01927 0.70116 0.0
C111 C 0.10974 0.01871 0.67527 0.0
C112 C 0.0722 0.0387 0.73831 0.0
C113 C 0.08787 0.00846 0.67288 0.0
C114 C 0.11274 0.0396 0.70972 0.0
C115 C 0.09397 0.04958 0.74318 0.0
O116 O 0.05475 0.9769 0.72525 0.0
O117 O 0.00706 0.98936 0.62763 0.0
O118 O 0.96999 1.00499 0.67027 0.0
O119 O 0.99897 0.99802 0.74755 0.0
O120 O 0.03987 0.97552 0.62721 0.0
O121 O 0.02758 0.988 0.7901 0.0
O122 O 0.96423 0.03783 0.63527 0.0
O123 O 0.0093 0.0302 0.66241 0.0
O124 O 0.04972 0.0154 0.60664 0.0
O125 O 0.02061 0.01675 0.52607 0.0
O126 O 0.00703 0.04949 0.57917 0.0
O127 O 0.95914 0.03104 0.53257 0.0
C128 C 0.02 0.97435 0.59951 0.0
C129 C 0.03629 0.948 0.78435 0.0
C130 C 0.00709 0.91757 0.77835 0.0
C131 C 0.01321 0.94104 0.77506 0.0
C132 C 0.02452 0.90107 0.78957 0.0
C133 C 0.05334 0.93129 0.79568 0.0
C134 C 0.04746 0.90793 0.79796 0.0
C135 C 0.97695 0.99962 0.73036 0.0
C136 C 0.0432 0.97233 0.77824 0.0
C137 C 0.09647 0.06952 0.78322 0.0
C138 C 0.07771 0.07776 0.82061 0.0
C139 C 0.01562 0.04926 0.63782 0.0
C140 C 0.94788 0.06763 0.57469 0.0
C141 C 0.96465 0.08113 0.54414 0.0
C142 C 0.96234 0.10521 0.54003 0.0
C143 C 0.94226 0.1157 0.56599 0.0
C144 C 0.92803 0.07828 0.60064 0.0
C145 C 0.92518 0.10224 0.59581 0.0
C146 C 0.04262 0.01732 0.54445 0.0
C147 C 0.95205 0.04282 0.58383 0.0
H148 H 1.00002 0.95376 0.76488 0.0
H149 H 0.02037 0.88289 0.79377 0.0
H150 H 0.07124 0.93633 0.80213 0.0
H151 H 0.06069 0.89511 0.80685 0.0
H152 H 0.97984 0.07284 0.52475 0.0
H153 H 0.93962 0.1342 0.5628 0.0
H154 H 0.91491 0.06813 0.62509 0.0
H155 H 0.9098 0.11043 0.61576 0.0
Tb156 Tb 0.51467 0.03682 0.70706 0.0
C157 C 0.54367 0.97455 0.48918 0.0
C158 C 0.52898 0.9818 0.37893 0.0
C159 C 0.56731 0.96548 0.39208 0.0
C160 C 0.52635 0.98261 0.44848 0.0
C161 C 0.56422 0.96546 0.46104 0.0
C162 C 0.54973 0.97367 0.3511 0.0
C163 C 0.57712 0.95633 0.57073 0.0
N164 N 0.54026 0.97519 0.55594 0.0
C165 C 0.55676 0.96588 0.59662 0.0
C166 C 0.581 0.95634 0.50279 0.0
Tb167 Tb 0.50517 0.99074 0.59054 0.0
N168 N 0.50645 0.9902 0.47683 0.0
C169 C 0.4878 0.99548 0.43791 0.0
C170 C 0.51046 0.9886 0.33926 0.0
C171 C 0.48966 0.99518 0.36893 0.0
H172 H 0.55538 0.96629 0.64957 0.0
H173 H 0.47504 1.00002 0.33874 0.0
H174 H 0.55216 0.97315 0.29788 0.0
H175 H 0.59009 0.94942 0.60361 0.0
H176 H 0.47166 1.00077 0.46001 0.0
H177 H 0.45614 0.99872 0.88474 0.0
H178 H 0.51184 0.98826 0.28573 0.0
H179 H 0.51876 0.09132 0.65636 0.0
H180 H 0.48865 0.99918 0.80838 0.0
H181 H 0.49608 0.12733 0.66332 0.0
H182 H 0.58308 0.95885 0.36989 0.0
H183 H 0.43087 0.033 0.89723 0.0
H184 H 0.42171 0.07371 0.86533 0.0
H185 H 0.59697 0.94923 0.48309 0.0
H186 H 0.43195 0.10839 0.80266 0.0
N187 N 0.48326 0.03398 0.77726 0.0
C188 C 0.47855 0.01467 0.81342 0.0
C189 C 0.44555 0.03352 0.86395 0.0
C190 C 0.45042 0.05328 0.82764 0.0
C191 C 0.45979 0.01418 0.85708 0.0
C192 C 0.46973 0.05301 0.78479 0.0
H193 H 0.4596 0.12854 0.72713 0.0
N194 N 0.49455 0.07144 0.71129 0.0
C195 C 0.48987 0.11193 0.68734 0.0
C196 C 0.47539 0.07233 0.7497 0.0
C197 C 0.50258 0.09138 0.68317 0.0
C198 C 0.46933 0.11254 0.72337 0.0
C199 C 0.4621 0.09275 0.75636 0.0
O200 O 0.53706 0.06327 0.73955 0.0
O201 O 0.53078 0.012 0.63884 0.0
O202 O 0.51863 0.97477 0.67919 0.0
O203 O 0.5243 1.0046 0.75668 0.0
O204 O 0.54334 0.04528 0.6406 0.0
O205 O 0.53128 0.03361 0.79928 0.0
O206 O 0.48556 0.96705 0.64522 0.0
O207 O 0.48986 0.01246 0.66772 0.0
O208 O 0.50422 0.05287 0.61325 0.0
O209 O 0.50444 0.02293 0.53328 0.0
O210 O 0.47183 0.00836 0.58164 0.0
O211 O 0.49182 0.96081 0.54271 0.0
C212 C 0.54556 0.02528 0.61294 0.0
C213 C 0.56925 0.04871 0.79418 0.0
C214 C 0.60347 0.02431 0.78376 0.0
C215 C 0.57939 0.02667 0.78751 0.0
C216 C 0.61743 0.04418 0.78696 0.0
C217 C 0.58346 0.06834 0.79822 0.0
C218 C 0.60743 0.06605 0.79457 0.0
C219 C 0.52426 0.98243 0.73902 0.0
C220 C 0.54406 0.05176 0.79019 0.0
C221 C 0.44247 0.09295 0.79728 0.0
C222 C 0.43668 0.07325 0.83307 0.0
C223 C 0.47106 0.01781 0.63954 0.0
C224 C 0.45584 0.94913 0.58611 0.0
C225 C 0.44189 0.96451 0.55155 0.0
C226 C 0.41782 0.96192 0.54911 0.0
C227 C 0.4078 0.94283 0.58058 0.0
C228 C 0.44566 0.93026 0.6175 0.0
C229 C 0.42172 0.92704 0.61418 0.0
C230 C 0.50292 0.04508 0.55117 0.0
C231 C 0.48059 0.95408 0.59452 0.0
H232 H 0.56869 0.01135 0.78355 0.0
H233 H 0.63608 0.04274 0.78484 0.0
H234 H 0.57596 0.08548 0.80276 0.0
H235 H 0.6183 0.08127 0.79731 0.0
H236 H 0.44982 0.97898 0.52803 0.0
H237 H 0.38932 0.93998 0.57892 0.0
H238 H 0.45615 0.91827 0.64518 0.0
H239 H 0.4139 0.91243 0.63842 0.0
Tb240 Tb 0.53555 0.49887 0.56201 0.0
C241 C 0.43803 0.50797 0.59615 0.0
C242 C 0.4201 0.54523 0.57977 0.0
C243 C 0.39954 0.51019 0.54787 0.0
C244 C 0.43899 0.53167 0.60058 0.0
C245 C 0.41816 0.49686 0.57039 0.0
C246 C 0.40054 0.53437 0.5524 0.0
C247 C 0.43663 0.46027 0.59028 0.0
N248 N 0.45666 0.49578 0.61673 0.0
C249 C 0.456 0.47209 0.61472 0.0
C250 C 0.41763 0.4727 0.56779 0.0
Tb251 Tb 0.48709 0.51669 0.66121 0.0
N252 N 0.45817 0.54142 0.6273 0.0
C253 C 0.4584 0.56476 0.64091 0.0
C254 C 0.42121 0.56923 0.58863 0.0
C255 C 0.44033 0.57901 0.62031 0.0
H256 H 0.47029 0.46188 0.63088 0.0
H257 H 0.44104 0.59748 0.62979 0.0
H258 H 0.38596 0.54448 0.53558 0.0
H259 H 0.43648 0.44154 0.58831 0.0
H260 H 0.47265 0.57245 0.66784 0.0
H261 H 0.59464 0.47244 0.75393 0.0
H262 H 0.40711 0.58025 0.57322 0.0
H263 H 0.54675 0.52433 0.42006 0.0
H264 H 0.55814 0.47217 0.69186 0.0
H265 H 0.57757 0.54854 0.37265 0.0
H266 H 0.38428 0.50199 0.52718 0.0
H267 H 0.62603 0.49919 0.72296 0.0
H268 H 0.64103 0.52912 0.64479 0.0
H269 H 0.40274 0.46351 0.54827 0.0
H270 H 0.63614 0.55046 0.5411 0.0
N271 N 0.5683 0.49879 0.62606 0.0
C272 C 0.57157 0.48391 0.67727 0.0
C273 C 0.61001 0.49911 0.69521 0.0
C274 C 0.60702 0.51346 0.64078 0.0
C275 C 0.59236 0.48395 0.7127 0.0
C276 C 0.58584 0.5126 0.60626 0.0
H277 H 0.61262 0.55753 0.43841 0.0
N278 N 0.56331 0.52123 0.51365 0.0
C279 C 0.57927 0.5421 0.42245 0.0
C280 C 0.58317 0.52444 0.54817 0.0
C281 C 0.56181 0.52845 0.44956 0.0
C282 C 0.59899 0.54719 0.45978 0.0
C283 C 0.60145 0.53772 0.52273 0.0
O284 O 0.53281 0.47982 0.4724 0.0
O285 O 0.49802 0.49971 0.57103 0.0
O286 O 0.49813 0.48292 0.69756 0.0
O287 O 0.52449 0.46886 0.6196 0.0
O288 O 0.51264 0.50878 0.48146 0.0
O289 O 0.55776 0.47051 0.54551 0.0
O290 O 0.47443 0.49931 0.7449 0.0
O291 O 0.52394 0.50995 0.65932 0.0
O292 O 0.53414 0.53679 0.55429 0.0
O293 O 0.49768 0.54624 0.59921 0.0
O294 O 0.5128 0.53994 0.70517 0.0
O295 O 0.47539 0.53627 0.7431 0.0
C296 C 0.49348 0.50662 0.51302 0.0
C297 C 0.54043 0.43998 0.48678 0.0
C298 C 0.51032 0.4104 0.48167 0.0
C299 C 0.51695 0.4338 0.4845 0.0
C300 C 0.52765 0.39326 0.48281 0.0
C301 C 0.55735 0.42263 0.48784 0.0
C302 C 0.55095 0.39939 0.48624 0.0
C303 C 0.51138 0.46627 0.67259 0.0
C304 C 0.54763 0.46435 0.49088 0.0
C305 C 0.62199 0.54007 0.55933 0.0
C306 C 0.62479 0.5279 0.61829 0.0
C307 C 0.53078 0.52774 0.69127 0.0
C308 C 0.48573 0.51864 0.84369 0.0
C309 C 0.49999 0.53748 0.86111 0.0
C310 C 0.51396 0.537 0.918 0.0
C311 C 0.51283 0.51767 0.95918 0.0
C312 C 0.48473 0.49959 0.88579 0.0
C313 C 0.49818 0.49918 0.94326 0.0
C314 C 0.51691 0.55152 0.56644 0.0
C315 C 0.47301 0.51828 0.78007 0.0
H316 H 0.50389 0.44718 0.48542 0.0
H317 H 0.52332 0.37507 0.47919 0.0
H318 H 0.57552 0.42709 0.49027 0.0
H319 H 0.56409 0.38606 0.48684 0.0
H320 H 0.5004 0.55256 0.83005 0.0
H321 H 0.52352 0.51666 1.00306 0.0
H322 H 0.4738 0.48491 0.87376 0.0
H323 H 0.49747 0.48431 0.97512 0.0
Tb324 Tb 0.02063 0.53848 0.55196 0.0
C325 C 1.00034 0.44021 0.59963 0.0
C326 C 0.96013 0.42884 0.59866 0.0
C327 C 0.98921 0.40246 0.55477 0.0
C328 C 0.97758 0.44529 0.61226 0.0
C329 C 0.00654 0.4184 0.57246 0.0
C330 C 0.966 0.40767 0.56795 0.0
C331 C 0.04644 0.42868 0.58892 0.0
N332 N 0.01649 0.45611 0.61777 0.0
C333 C 0.03943 0.45004 0.61569 0.0
C334 C 0.02995 0.41297 0.56588 0.0
Tb335 Tb 1.00275 0.49158 0.65604 0.0
N336 N 0.97272 0.46576 0.64253 0.0
C337 C 0.9509 0.4699 0.66664 0.0
C338 C 0.9375 0.43381 0.61869 0.0
C339 C 0.93295 0.45426 0.65398 0.0
H340 H 0.05281 0.46156 0.63237 0.0
H341 H 0.91564 0.45802 0.6714 0.0
H342 H 0.95284 0.39493 0.55624 0.0
H343 H 0.06463 0.42443 0.5857 0.0
H344 H 0.94723 0.48577 0.69378 0.0
H345 H 0.10901 0.56884 0.54568 0.0
H346 H 0.92361 0.42164 0.60919 0.0
H347 H 0.97086 0.56873 0.57402 0.0
H348 H 0.07721 0.54114 0.52566 0.0
H349 H 0.95943 0.6068 0.61556 0.0
H350 H 0.99363 0.38578 0.53295 0.0
H351 H 0.1009 0.60693 0.5984 0.0
H352 H 0.07164 0.63524 0.64378 0.0
H353 H 0.03545 0.39647 0.54503 0.0
H354 H 0.03087 0.64544 0.66341 0.0
N355 N 0.05125 0.56334 0.56658 0.0
C356 C 0.07341 0.55788 0.54774 0.0
C357 C 0.08686 0.59491 0.58927 0.0
C358 C 0.06407 0.60082 0.60549 0.0
C359 C 0.0915 0.57347 0.55931 0.0
C360 C 0.04642 0.58455 0.59247 0.0
H361 H 0.98895 0.63511 0.65195 0.0
N362 N 0.00723 0.57432 0.5867 0.0
C363 C 0.97758 0.60234 0.61257 0.0
C364 C 0.0236 0.59024 0.60303 0.0
C365 C 0.98435 0.5805 0.58869 0.0
C366 C 0.99426 0.61826 0.6332 0.0
C367 C 0.01762 0.61248 0.62746 0.0
O368 O 1.00026 0.54638 0.46825 0.0
O369 O 0.01411 0.50157 0.5587 0.0
O370 O 0.04043 0.49759 0.66306 0.0
O371 O 0.046 0.53576 0.63229 0.0
O372 O 0.04367 0.5113 0.51272 0.0
O373 O 0.03726 0.54531 0.46225 0.0
O374 O 0.02458 0.48665 0.73878 0.0
O375 O 0.00833 0.52828 0.6474 0.0
O376 O 0.9832 0.53286 0.53918 0.0
O377 O 0.97415 0.49729 0.58649 0.0
O378 O 0.9803 0.5188 0.69959 0.0
O379 O 0.98813 0.4818 0.74649 0.0
C380 C 0.03111 0.49374 0.52641 0.0
C381 C 0.01683 0.53038 0.36977 0.0
C382 C 0.03441 0.50022 0.29894 0.0
C383 C 0.03473 0.51458 0.35585 0.0
C384 C 0.01524 0.50142 0.25637 0.0
C385 C 0.998 0.53143 0.32628 0.0
C386 C 0.99716 0.51689 0.27021 0.0
C387 C 0.05302 0.51678 0.66211 0.0
C388 C 0.0181 0.54588 0.4289 0.0
C389 C 0.03513 0.6284 0.64378 0.0
C390 C 0.05833 0.6226 0.63265 0.0
C391 C 0.99203 0.53646 0.68166 0.0
C392 C 0.0067 0.49938 0.83846 0.0
C393 C 0.98708 0.51291 0.8526 0.0
C394 C 0.98588 0.52726 0.9094 0.0
C395 C 0.0051 0.52814 0.95205 0.0
C396 C 0.02566 0.50056 0.88155 0.0
C397 C 0.02484 0.51493 0.93793 0.0
C398 C 0.96885 0.51545 0.55023 0.0
C399 C 0.00732 0.48409 0.77896 0.0
H400 H 0.04911 0.51344 0.38967 0.0
H401 H 0.01438 0.49087 0.21168 0.0
H402 H 0.98401 0.54353 0.33548 0.0
H403 H 0.98257 0.51783 0.23685 0.0
H404 H 0.97263 0.51235 0.81885 0.0
H405 H 0.00482 0.53866 0.99688 0.0
H406 H 0.04104 0.49037 0.87167 0.0
H407 H 0.0395 0.51568 0.97117 0.0
C408 C 0.18854 0.05595 0.11537 0.0
C409 C 0.20637 0.03947 0.11072 0.0
C410 C 0.16863 0.05159 0.15302 0.0
C411 C 0.15308 0.02059 0.30246 0.0
H412 H 0.08966 0.0357 0.25943 0.0
C413 C 0.07967 1.00467 0.49097 0.0
C414 C 0.06045 0.01949 0.492 0.0
C415 C 0.0963 0.00606 0.44072 0.0
C416 C 0.1073 0.03171 0.27292 0.0
H417 H 0.21707 1.0053 0.14019 0.0
H418 H 0.18236 0.99759 0.20566 0.0
H419 H 0.11977 0.03941 0.17534 0.0
H420 H 0.04367 0.04758 0.44143 0.0
H421 H 0.07301 0.05078 0.35512 0.0
H422 H 0.14123 0.01395 0.40044 0.0
C423 C 0.18361 0.01381 0.17978 0.0
C424 C 0.12455 0.03368 0.22427 0.0
C425 C 0.20332 0.01804 0.14136 0.0
C426 C 0.0582 0.03579 0.44159 0.0
C427 C 0.07506 0.03749 0.3918 0.0
C428 C 0.13598 0.01901 0.35132 0.0
C429 C 0.16641 0.03086 0.18809 0.0
C430 C 0.14766 0.02803 0.23836 0.0
C431 C 0.09445 0.02263 0.39041 0.0
C432 C 0.11273 0.02445 0.33753 0.0
H433 H 0.19078 0.07287 0.09399 0.0
H434 H 0.15582 0.06515 0.15868 0.0
H435 H 0.17078 0.01658 0.31552 0.0
H436 H 0.08153 0.99151 0.52811 0.0
H437 H 0.11045 0.9938 0.44102 0.0
C438 C 0.45445 0.18948 0.1316 0.0
C439 C 0.46903 0.20884 0.13432 0.0
C440 C 0.45979 0.1696 0.16724 0.0
C441 C 0.50595 0.14176 0.27036 0.0
H442 H 0.45317 0.11253 0.35266 0.0
C443 C 0.51285 0.08285 0.4997 0.0
C444 C 0.4999 0.06231 0.49851 0.0
C445 C 0.51011 0.09924 0.44998 0.0
C446 C 0.46808 0.12032 0.32952 0.0
H447 H 0.50078 0.22263 0.17504 0.0
H448 H 0.50998 0.18827 0.2387 0.0
H449 H 0.44703 0.14329 0.27385 0.0
H450 H 0.47374 0.04293 0.44498 0.0
H451 H 0.46874 0.07162 0.35826 0.0
H452 H 0.52692 0.11924 0.32881 0.0
C453 C 0.49474 0.18794 0.20768 0.0
C454 C 0.4646 0.13794 0.28383 0.0
C455 C 0.48953 0.20769 0.1711 0.0
C456 C 0.48415 0.05845 0.44665 0.0
C457 C 0.48115 0.07498 0.39739 0.0
C458 C 0.50942 0.12432 0.31681 0.0
C459 C 0.47959 0.16883 0.20784 0.0
C460 C 0.48347 0.14904 0.25366 0.0
C461 C 0.49411 0.09558 0.39846 0.0
C462 C 0.49052 0.11348 0.34716 0.0
H463 H 0.4384 0.1901 0.10404 0.0
H464 H 0.44797 0.15511 0.16449 0.0
H465 H 0.52094 0.14952 0.24762 0.0
H466 H 0.52535 0.08611 0.53862 0.0
H467 H 0.52022 0.11499 0.45251 0.0
C468 C 0.31322 0.50619 0.18082 0.0
C469 C 0.30498 0.48354 0.16986 0.0
C470 C 0.33423 0.51009 0.21418 0.0
C471 C 0.38859 0.48034 0.26572 0.0
H472 H 0.3921 0.52933 0.39878 0.0
C473 C 0.46199 0.48376 0.45911 0.0
C474 C 0.47123 0.50535 0.47728 0.0
C475 C 0.44226 0.4822 0.41925 0.0
C476 C 0.39153 0.51572 0.3613 0.0
H477 H 0.31302 0.44726 0.1831 0.0
H478 H 0.34916 0.45397 0.24142 0.0
H479 H 0.35711 0.52485 0.33205 0.0
H480 H 0.46816 0.54228 0.46437 0.0
H481 H 0.43319 0.53977 0.39568 0.0
H482 H 0.42282 0.471 0.29532 0.0
C483 C 0.33958 0.46881 0.22424 0.0
C484 C 0.37144 0.51318 0.32283 0.0
C485 C 0.31865 0.46495 0.19124 0.0
C486 C 0.46085 0.52544 0.45282 0.0
C487 C 0.44087 0.52396 0.4135 0.0
C488 C 0.40859 0.48284 0.30419 0.0
C489 C 0.34762 0.49143 0.23689 0.0
C490 C 0.36957 0.49526 0.27497 0.0
C491 C 0.43134 0.50227 0.39593 0.0
C492 C 0.41028 0.50039 0.35308 0.0
H493 H 0.3031 0.52093 0.16543 0.0
H494 H 0.33995 0.52774 0.22229 0.0
H495 H 0.38807 0.46664 0.22853 0.0
H496 H 0.47005 0.46804 0.4758 0.0
H497 H 0.43539 0.4652 0.40746 0.0
C498 C 0.02081 0.32401 0.14151 0.0
C499 C 0.04271 0.31708 0.11826 0.0
C500 C 0.01816 0.34459 0.17918 0.0
C501 C 0.05278 0.38106 0.2938 0.0
H502 H 1.00128 0.42386 0.28937 0.0
C503 C 0.05212 0.46413 0.4577 0.0
C504 C 0.03108 0.47286 0.48213 0.0
C505 C 0.05263 0.44527 0.41324 0.0
C506 C 0.01561 0.41187 0.2923 0.0
H507 H 0.07871 0.3269 0.11354 0.0
H508 H 0.0741 0.3629 0.1773 0.0
H509 H 1.00352 0.39213 0.20796 0.0
H510 H 0.99391 0.46935 0.47622 0.0
H511 H 0.99464 0.43619 0.39921 0.0
H512 H 0.0647 0.40013 0.37866 0.0
C513 C 0.05895 0.35242 0.16731 0.0
C514 C 0.01696 0.39372 0.24505 0.0
C515 C 0.06154 0.33198 0.12961 0.0
C516 C 0.01044 0.46266 0.45948 0.0
C517 C 0.01091 0.44379 0.41455 0.0
C518 C 0.05132 0.39896 0.34132 0.0
C519 C 0.03743 0.35856 0.19506 0.0
C520 C 0.0357 0.37816 0.24473 0.0
C521 C 0.03205 0.43475 0.39053 0.0
C522 C 0.03284 0.41487 0.34121 0.0
H523 H 0.00611 0.3126 0.13528 0.0
H524 H 1.00133 0.34867 0.19977 0.0
H525 H 0.0672 0.36915 0.29635 0.0
H526 H 0.0683 0.47197 0.47302 0.0
H527 H 0.06929 0.4394 0.39531 0.0
C528 C 0.80721 0.99513 0.0918 0.0
C529 C 0.80489 0.97629 0.13422 0.0
C530 C 0.828 0.999 0.05805 0.0
C531 C 0.88157 0.9669 1.00431 0.0
H532 H 0.89722 0.02652 0.93158 0.0
C533 C 0.96414 0.98711 0.84431 0.0
C534 C 0.95877 0.99607 0.78172 0.0
C535 C 0.94691 0.98464 0.8928 0.0
C536 C 0.89308 0.00977 0.95172 0.0
H537 H 0.82279 0.94732 0.17701 0.0
H538 H 0.85964 0.95495 0.12245 0.0
H539 H 0.86577 0.02376 0.01135 0.0
H540 H 0.93089 0.00996 0.7222 0.0
H541 H 0.9013 0.00646 0.80741 0.0
H542 H 0.90956 0.95325 0.94533 0.0
C543 C 0.84525 0.96637 0.11286 0.0
C544 C 0.87486 0.00808 0.99722 0.0
C545 C 0.82426 0.96225 0.14553 0.0
C546 C 0.93577 1.00278 0.76939 0.0
C547 C 0.91876 1.0009 0.81834 0.0
C548 C 0.90015 0.96873 0.95994 0.0
C549 C 0.84723 0.98426 0.06639 0.0
C550 C 0.86839 0.98652 0.0233 0.0
C551 C 0.9241 0.99181 0.88054 0.0
C552 C 0.90579 0.9901 0.93217 0.0
H553 H 0.79234 0.00579 0.0806 0.0
H554 H 0.82834 0.01272 0.0223 0.0
H555 H 0.87712 0.94987 0.02168 0.0
H556 H 0.98165 0.98194 0.8559 0.0
H557 H 0.95151 0.9776 0.9404 0.0
C558 C 0.55744 0.83207 0.15995 0.0
C559 C 0.55058 0.81095 0.13065 0.0
C560 C 0.55329 0.85304 0.12763 0.0
C561 C 0.51899 0.87857 0.98998 0.0
H562 H 0.56988 0.92187 0.9762 0.0
C563 C 0.52538 0.94122 0.77509 0.0
C564 C 0.52961 0.96474 0.78956 0.0
C565 C 0.52784 0.92452 0.8237 0.0
C566 C 0.55542 0.91009 0.98032 0.0
H567 H 0.53299 0.79527 0.04663 0.0
H568 H 0.52584 0.83141 0.99056 0.0
H569 H 0.5729 0.8891 0.05135 0.0
H570 H 0.54086 0.98885 0.86646 0.0
H571 H 0.54564 0.95932 0.95147 0.0
H572 H 0.5019 0.89895 0.91722 0.0
C573 C 0.53431 0.83209 0.03836 0.0
C574 C 0.55709 0.89136 0.02353 0.0
C575 C 0.53853 0.81128 0.07031 0.0
C576 C 0.53737 0.97094 0.85355 0.0
C577 C 0.54013 0.95405 0.90225 0.0
C578 C 0.51743 0.89709 0.94662 0.0
C579 C 0.54198 0.85325 0.0658 0.0
C580 C 0.5391 0.875 0.02758 0.0
C581 C 0.53483 0.93073 0.88813 0.0
C582 C 0.53583 0.91273 0.93999 0.0
H583 H 0.56687 0.83228 0.20627 0.0
H584 H 0.55924 0.86903 0.15051 0.0
H585 H 0.50456 0.86671 0.9929 0.0
H586 H 0.51946 0.93564 0.72652 0.0
H587 H 0.52403 0.90664 0.81094 0.0
C588 C 0.69097 0.55108 0.09304 0.0
C589 C 0.71226 0.54374 0.0666 0.0
C590 C 0.67048 0.54821 0.0564 0.0
C591 C 0.62753 0.53323 0.97697 0.0
H592 H 0.63403 0.54136 0.78762 0.0
C593 C 0.55286 0.51514 0.79041 0.0
C594 C 0.55127 0.52918 0.73448 0.0
C595 C 0.57157 0.51738 0.8341 0.0
C596 C 0.63178 0.53928 0.84044 0.0
H597 H 0.72872 0.52661 0.98306 0.0
H598 H 0.69313 0.52066 0.92049 0.0
H599 H 0.66792 0.54354 0.85816 0.0
H600 H 0.56657 0.55793 0.68338 0.0
H601 H 0.59948 0.56183 0.7591 0.0
H602 H 0.59114 0.52968 0.95891 0.0
C603 C 0.69211 0.52931 0.96838 0.0
C604 C 0.65137 0.54014 0.88103 0.0
C605 C 0.71251 0.5324 1.00459 0.0
C606 C 0.56797 0.54635 0.72485 0.0
C607 C 0.58676 0.54854 0.76831 0.0
C608 C 0.60786 0.53244 0.93625 0.0
C609 C 0.67086 0.53784 0.99263 0.0
C610 C 0.64964 0.53695 0.9499 0.0
C611 C 0.589 0.53389 0.82313 0.0
C612 C 0.60973 0.53536 0.86731 0.0
H613 H 0.69037 0.56017 0.14035 0.0
H614 H 0.65456 0.55514 0.07678 0.0
H615 H 0.62541 0.5306 0.02959 0.0
H616 H 0.53967 0.50232 0.79999 0.0
H617 H 0.57262 0.50579 0.87558 0.0
C618 C 1.00008 0.72152 1.00125 0.0
C619 C 0.98856 0.72133 0.06257 0.0
C620 C 1.00321 0.70103 0.96393 0.0
C621 C 0.97614 0.64312 0.94128 0.0
H622 H 0.02749 0.63197 0.82185 0.0
C623 C 0.97224 0.5684 0.74539 0.0
C624 C 0.99284 0.55799 0.72338 0.0
C625 C 0.97265 0.58826 0.78641 0.0
C626 C 0.01307 0.63446 0.85536 0.0
H627 H 0.97177 0.69938 0.13353 0.0
H628 H 0.97787 0.66342 0.06985 0.0
H629 H 0.02836 0.66514 0.89762 0.0
H630 H 0.03008 0.55922 0.73208 0.0
H631 H 0.03099 0.59306 0.80507 0.0
H632 H 0.9607 0.61287 0.8992 0.0
C633 C 0.98433 0.67945 0.04994 0.0
C634 C 0.01348 0.65382 0.89858 0.0
C635 C 0.9812 0.69999 0.08724 0.0
C636 C 0.0139 0.5673 0.7459 0.0
C637 C 0.01435 0.5869 0.78799 0.0
C638 C 0.97571 0.62387 0.89805 0.0
C639 C 0.9947 0.67974 0.98661 0.0
C640 C 0.99502 0.65846 0.94244 0.0
C641 C 0.99373 0.59792 0.80883 0.0
C642 C 0.99419 0.61897 0.85447 0.0
H643 H 0.00533 0.73781 0.98012 0.0
H644 H 0.01103 0.7022 0.91539 0.0
H645 H 0.96129 0.64622 0.97283 0.0
H646 H 0.95572 0.56139 0.7298 0.0
H647 H 0.95627 0.59607 0.79972 0.0
C648 C 0.08177 0.22144 0.19547 0.0
C649 C 0.06884 0.24191 0.20361 0.0
C650 C 0.08227 0.20511 0.24566 0.0
C651 C 0.06127 0.19152 0.4149 0.0
H652 H 0.02891 0.14226 0.32161 0.0
C653 C 0.98701 0.14107 0.5343 0.0
C654 C 0.98128 0.1189 0.50979 0.0
C655 C 0.00512 0.15355 0.50612 0.0
C656 C 0.03844 0.15527 0.34934 0.0
H657 H 0.04899 0.26259 0.27435 0.0
H658 H 0.0502 0.23442 0.36133 0.0
H659 H 0.05205 0.16889 0.26014 0.0
H660 H 0.99046 0.09258 0.43605 0.0
H661 H 0.02299 0.1131 0.39214 0.0
H662 H 0.04709 0.17808 0.50427 0.0
C663 C 0.05989 0.23088 0.31636 0.0
C664 C 0.05183 0.17064 0.31365 0.0
C665 C 0.05917 0.24708 0.26607 0.0
C666 C 0.9945 0.10936 0.45757 0.0
C667 C 0.01304 0.12142 0.43121 0.0
C668 C 0.0482 0.17576 0.45106 0.0
C669 C 0.07004 0.20913 0.30486 0.0
C670 C 0.0625 0.18952 0.34558 0.0
C671 C 0.01827 0.14394 0.45374 0.0
C672 C 0.03573 0.15805 0.41829 0.0
H673 H 0.09 0.21726 0.14859 0.0
H674 H 0.09048 0.18853 0.23602 0.0
H675 H 0.0694 0.20595 0.44062 0.0
H676 H 0.97756 0.14883 0.57528 0.0
H677 H 0.00831 0.17096 0.52439 0.0
C678 C 0.30118 0.08067 0.19326 0.0
C679 C 0.28032 0.06835 0.19883 0.0
C680 C 0.31764 0.07989 0.24379 0.0
C681 C 0.35054 0.04673 0.31052 0.0
H682 H 0.34474 0.04542 0.50163 0.0
C683 C 0.41239 0.99109 0.45964 0.0
C684 C 0.40361 0.97967 0.51529 0.0
C685 C 0.4 0.0088 0.43021 0.0
C686 C 0.34657 0.04548 0.44829 0.0
H687 H 0.25928 0.04824 0.26629 0.0
H688 H 0.2875 0.04766 0.35419 0.0
H689 H 0.31714 0.06775 0.43678 0.0
H690 H 0.37463 0.97823 0.58338 0.0
H691 H 0.35187 0.00738 0.52763 0.0
H692 H 0.37803 0.02273 0.31964 0.0
C693 C 0.29126 0.05769 0.3106 0.0
C694 C 0.33099 0.0586 0.41144 0.0
C695 C 0.27501 0.05806 0.25975 0.0
C696 C 0.3818 0.98626 0.53989 0.0
C697 C 0.36896 1.00349 0.50877 0.0
C698 C 0.36567 0.03322 0.34689 0.0
C699 C 0.31325 0.06723 0.30119 0.0
C700 C 0.33254 0.05883 0.3421 0.0
C701 C 0.37787 0.01496 0.45325 0.0
C702 C 0.36356 0.03186 0.4162 0.0
H703 H 0.30555 0.08943 0.14794 0.0
H704 H 0.33446 0.08757 0.23582 0.0
H705 H 0.3518 0.04616 0.25696 0.0
H706 H 0.42887 0.98632 0.43806 0.0
H707 H 0.40783 0.01747 0.38876 0.0
C708 C 0.40726 0.29681 0.15786 0.0
C709 C 0.4219 0.27903 0.1797 0.0
C710 C 0.39988 0.31426 0.20187 0.0
C711 C 0.4045 0.33527 0.3781 0.0
H712 H 0.43449 0.38731 0.29589 0.0
C713 C 0.47717 0.38324 0.49962 0.0
C714 C 0.48569 0.40372 0.47228 0.0
C715 C 0.45624 0.37386 0.47782 0.0
C716 C 0.42536 0.37352 0.3203 0.0
H717 H 0.43757 0.26407 0.26693 0.0
H718 H 0.4246 0.29398 0.3428 0.0
H719 H 0.41851 0.35699 0.22739 0.0
H720 H 0.47718 0.43217 0.40765 0.0
H721 H 0.44011 0.41662 0.373 0.0
H722 H 0.41272 0.35131 0.47139 0.0
C723 C 0.41878 0.29466 0.2919 0.0
C724 C 0.41609 0.35594 0.28045 0.0
C725 C 0.42631 0.27739 0.24796 0.0
C726 C 0.47133 0.41624 0.4295 0.0
C727 C 0.45011 0.40712 0.40885 0.0
C728 C 0.41354 0.35306 0.41814 0.0
C729 C 0.40685 0.31409 0.26856 0.0
C730 C 0.40723 0.33579 0.30896 0.0
C731 C 0.44312 0.38499 0.42896 0.0
C732 C 0.4258 0.37145 0.38967 0.0
H733 H 0.40295 0.29823 0.1059 0.0
H734 H 0.39035 0.32883 0.18267 0.0
H735 H 0.39724 0.32017 0.40144 0.0
H736 H 0.48739 0.37359 0.53464 0.0
H737 H 0.45159 0.35687 0.49516 0.0
C738 C 0.22044 0.44962 0.23956 0.0
C739 C 0.22842 0.44262 0.17685 0.0
C740 C 0.19882 0.44233 0.26184 0.0
C741 C 0.15065 0.42821 0.29895 0.0
H742 H 0.11012 0.43929 0.14973 0.0
C743 C 0.05163 0.46282 0.25293 0.0
C744 C 0.05445 0.48458 0.28463 0.0
C745 C 0.0706 0.44795 0.24361 0.0
C746 C 0.12103 0.43546 0.19178 0.0
H747 H 0.22192 0.42003 0.09241 0.0
H748 H 0.18455 0.40649 0.13237 0.0
H749 H 0.15006 0.42821 0.12992 0.0
H750 H 0.08014 0.50816 0.32626 0.0
H751 H 0.11237 0.48195 0.3134 0.0
H752 H 0.12192 0.43806 0.36035 0.0
C753 C 0.19448 0.41823 0.16347 0.0
C754 C 0.14401 0.42904 0.18064 0.0
C755 C 0.21599 0.42576 0.14087 0.0
C756 C 0.0768 0.49123 0.30475 0.0
C757 C 0.09544 0.47624 0.29711 0.0
C758 C 0.12775 0.43493 0.30997 0.0
C759 C 0.18489 0.42775 0.2219 0.0
C760 C 0.15949 0.42674 0.2341 0.0
C761 C 0.09253 0.45443 0.26709 0.0
C762 C 0.11319 0.43986 0.25638 0.0
H763 H 0.22963 0.46274 0.26796 0.0
H764 H 0.19215 0.45015 0.30702 0.0
H765 H 0.16187 0.42596 0.34128 0.0
H766 H 0.03474 0.45701 0.23679 0.0
H767 H 0.0681 0.4313 0.2193 0.0
C768 C 0.93589 0.78442 0.96314 0.0
C769 C 0.93324 0.78566 0.03227 0.0
C770 C 0.92443 0.80002 0.92276 0.0
C771 C 0.90406 0.83812 0.84351 0.0
H772 H 0.92626 0.89364 0.93212 0.0
C773 C 0.97621 0.88923 0.74562 0.0
C774 C 0.98247 0.91033 0.7759 0.0
C775 C 0.95471 0.87935 0.7586 0.0
C776 C 0.91922 0.87877 0.90586 0.0
H777 H 0.91365 0.80175 0.11218 0.0
H778 H 0.89373 0.82927 0.04147 0.0
H779 H 0.91353 0.86176 0.99688 0.0
H780 H 0.96984 0.9392 0.83535 0.0
H781 H 0.93198 0.92262 0.85533 0.0
H782 H 0.91183 0.85473 0.75218 0.0
C783 C 0.90505 0.8165 0.01865 0.0
C784 C 0.9118 0.86024 0.9436 0.0
C785 C 0.91656 0.80084 0.0592 0.0
C786 C 0.96562 0.92287 0.81155 0.0
C787 C 0.94394 0.91319 0.8236 0.0
C788 C 0.91145 0.85676 0.80559 0.0
C789 C 0.91015 0.81734 0.95058 0.0
C790 C 0.90637 0.83893 0.91288 0.0
C791 C 0.93895 0.8905 0.80176 0.0
C792 C 0.92131 0.87638 0.83662 0.0
H793 H 0.9486 0.77302 0.94047 0.0
H794 H 0.92896 0.80007 0.87072 0.0
H795 H 0.89908 0.8222 0.81834 0.0
H796 H 0.98857 0.8795 0.71599 0.0
H797 H 0.95164 0.86193 0.7402 0.0
C798 C 0.7482 0.93056 0.99127 0.0
C799 C 0.7381 0.93083 0.05487 0.0
C800 C 0.73523 0.92432 0.93559 0.0
C801 C 0.67322 0.91439 0.8825 0.0
H802 H 0.68786 0.96816 0.77874 0.0
C803 C 0.60876 0.98436 0.82629 0.0
C804 C 0.61422 1.00114 0.77941 0.0
C805 C 0.62239 0.96452 0.83165 0.0
C806 C 0.6834 0.95263 0.80507 0.0
H807 H 0.70796 0.91934 0.10964 0.0
H808 H 0.68461 0.91154 0.01296 0.0
H809 H 0.71742 0.95066 0.8426 0.0
H810 H 0.63587 0.00906 0.69548 0.0
H811 H 0.65891 0.97382 0.70204 0.0
H812 H 0.6384 0.91799 0.84785 0.0
C813 C 0.70259 0.91593 1.00548 0.0
C814 C 0.70067 0.94236 0.84238 0.0
C815 C 0.71592 0.92108 0.06149 0.0
C816 C 0.63167 0.99651 0.73286 0.0
C817 C 0.64487 0.97637 0.73691 0.0
C818 C 0.65579 0.92479 0.84503 0.0
C819 C 0.71152 0.91947 0.9416 0.0
C820 C 0.69551 0.92413 0.88535 0.0
C821 C 0.64151 0.96098 0.78941 0.0
C822 C 0.6604 0.94503 0.80949 0.0
H823 H 0.76534 0.93727 0.98266 0.0
H824 H 0.74318 0.92586 0.88731 0.0
H825 H 0.66873 0.89982 0.91298 0.0
H826 H 0.5952 0.98748 0.86241 0.0
H827 H 0.61916 0.9532 0.8728 0.0
C828 C 0.56838 0.72681 0.03576 0.0
C829 C 0.58284 0.7321 0.0896 0.0
C830 C 0.57007 0.70538 1.00335 0.0
C831 C 0.57543 0.6587 0.93836 0.0
H832 H 0.58184 0.61068 0.06892 0.0
C833 C 0.54168 0.56761 0.88167 0.0
C834 C 0.52983 0.55661 0.93307 0.0
C835 C 0.55568 0.58675 0.89444 0.0
C836 C 0.57987 0.62385 0.03181 0.0
H837 H 0.61221 0.72057 0.14666 0.0
H838 H 0.6159 0.68342 0.08812 0.0
H839 H 0.59346 0.6499 0.09675 0.0
H840 H 0.52345 0.55727 0.03882 0.0
H841 H 0.5466 0.59161 0.06098 0.0
H842 H 0.5597 0.63324 0.87581 0.0
C843 C 0.60265 0.69539 0.07248 0.0
C844 C 0.58701 0.64637 0.0473 0.0
C845 C 0.60073 0.71674 0.10555 0.0
C846 C 0.53259 0.56511 0.99811 0.0
C847 C 0.54607 0.58476 0.0108 0.0
C848 C 0.56786 0.6363 0.92336 0.0
C849 C 0.58645 0.6889 0.02365 0.0
C850 C 0.58404 0.6643 1.00167 0.0
C851 C 0.55749 0.5961 0.95886 0.0
C852 C 0.5692 0.61875 0.9708 0.0
H853 H 0.55429 0.73824 0.02288 0.0
H854 H 0.55712 0.7011 0.96647 0.0
H855 H 0.57339 0.67189 0.90135 0.0
H856 H 0.53988 0.56166 0.83106 0.0
H857 H 0.56459 0.59454 0.85327 0.0
C858 C 0.79435 0.57452 0.98639 0.0
C859 C 0.78754 0.58496 0.04646 0.0
C860 C 0.8159 0.57956 0.95912 0.0
C861 C 0.87229 0.59402 0.02778 0.0
H862 H 0.89153 0.57816 0.84889 0.0
C863 C 0.96514 0.56262 0.95589 0.0
C864 C 0.96441 0.54088 0.92329 0.0
C865 C 0.94482 0.57539 0.96642 0.0
C866 C 0.88644 0.58294 0.89893 0.0
H867 H 0.79609 0.6113 0.11985 0.0
H868 H 0.8335 0.62068 0.07115 0.0
H869 H 0.8519 0.59099 0.86934 0.0
H870 H 0.94105 0.5152 0.88017 0.0
H871 H 0.90651 0.53828 0.89328 0.0
H872 H 0.90665 0.585 0.05743 0.0
C873 C 0.82263 0.60802 0.04624 0.0
C874 C 0.86377 0.59022 0.9107 0.0
C875 C 0.80114 0.60283 0.07382 0.0
C876 C 0.94278 0.53227 0.90243 0.0
C877 C 0.92281 0.54543 0.91037 0.0
C878 C 0.89504 0.587 0.01583 0.0
C879 C 0.83093 0.59526 0.99128 0.0
C880 C 0.85607 0.59459 0.97576 0.0
C881 C 0.92364 0.56718 0.9418 0.0
C882 C 0.90191 0.58024 0.95184 0.0
H883 H 0.78425 0.5606 0.96445 0.0
H884 H 0.8216 0.5693 0.91684 0.0
H885 H 0.86704 0.59702 0.07867 0.0
H886 H 0.98136 0.57001 0.97239 0.0
H887 H 0.94572 0.59191 0.99238 0.0
C888 C 0.01646 0.23094 0.97454 0.0
C889 C 0.03785 0.24244 0.97544 0.0
C890 C 0.01261 0.21191 0.93155 0.0
C891 C 0.03676 0.17865 0.78511 0.0
H892 H 0.00532 0.12695 0.86521 0.0
C893 C 0.03788 0.08537 0.66767 0.0
C894 C 0.01813 0.07155 0.67512 0.0
C895 C 0.03963 0.107 0.70045 0.0
C896 C 0.01386 0.14125 0.84139 0.0
H897 H 0.07184 0.2431 0.93116 0.0
H898 H 0.06512 0.2104 0.85528 0.0
H899 H 0.0086 0.16351 0.92598 0.0
H900 H 0.9838 0.07055 0.71734 0.0
H901 H 0.98659 0.10814 0.77387 0.0
H902 H 0.04214 0.15623 0.7006 0.0
C903 C 0.05107 0.21617 0.8869 0.0
C904 C 0.01572 0.16238 0.87644 0.0
C905 C 0.05491 0.23512 0.93008 0.0
C906 C 0.99961 0.08041 0.71278 0.0
C907 C 1.00126 0.10202 0.74525 0.0
C908 C 0.03484 0.15749 0.74992 0.0
C909 C 0.03013 0.20372 0.88845 0.0
C910 C 0.02725 0.18147 0.84907 0.0
C911 C 0.02141 0.1156 0.74043 0.0
C912 C 0.02339 0.13839 0.77751 0.0
H913 H 1.00322 0.2357 0.01022 0.0
H914 H 0.99613 0.20311 0.9338 0.0
H915 H 0.04556 0.19289 0.7618 0.0
H916 H 0.05215 0.07926 0.63734 0.0
H917 H 0.05546 0.11677 0.69536 0.0
C918 C 0.2853 0.05829 0.92234 0.0
C919 C 0.27888 0.04066 0.9657 0.0
C920 C 0.30364 0.05509 0.87759 0.0
C921 C 0.34441 0.0109 0.80431 0.0
H922 H 0.38557 0.06355 0.7924 0.0
C923 C 0.43881 1.00243 0.70852 0.0
C924 C 0.44837 0.02073 0.67277 0.0
C925 C 0.41684 1.0045 0.73737 0.0
C926 C 0.37419 0.04872 0.79427 0.0
H927 H 0.28643 0.00572 0.99552 0.0
H928 H 0.31831 0.99991 0.91735 0.0
H929 H 0.34936 0.0674 0.85279 0.0
H930 H 0.44166 0.05466 0.6337 0.0
H931 H 0.40334 0.0586 0.68483 0.0
H932 H 0.36955 0.99214 0.74661 0.0
C933 C 0.30895 0.01613 0.9166 0.0
C934 C 0.35326 0.05095 0.82894 0.0
C935 C 0.29052 0.01935 0.96123 0.0
C936 C 0.43499 0.04065 0.66312 0.0
C937 C 0.41305 0.04285 0.69245 0.0
C938 C 0.36539 0.00867 0.76968 0.0
C939 C 0.31632 0.03424 0.8756 0.0
C940 C 0.33806 0.03204 0.83498 0.0
C941 C 0.40371 0.02487 0.73062 0.0
C942 C 0.38072 0.0275 0.76462 0.0
H943 H 0.277 0.07508 0.92584 0.0
H944 H 0.30841 0.06932 0.84617 0.0
H945 H 0.33312 0.99601 0.80686 0.0
H946 H 0.44844 0.98653 0.71466 0.0
H947 H 0.41041 0.99029 0.76638 0.0
C948 C 0.49692 0.2865 0.99174 0.0
C949 C 0.47413 0.27844 0.98542 0.0
C950 C 0.50514 0.30394 0.9503 0.0
C951 C 0.49283 0.33678 0.79682 0.0
H952 H 0.51909 0.38868 0.8948 0.0
C953 C 0.51933 0.42334 0.67305 0.0
C954 C 0.51102 0.44343 0.70548 0.0
C955 C 0.51782 0.40171 0.70329 0.0
C956 C 0.51186 0.3743 0.86664 0.0
H957 H 0.44252 0.28124 0.92894 0.0
H958 H 0.45694 0.31119 0.85569 0.0
H959 H 0.51172 0.35236 0.95107 0.0
H960 H 0.49527 0.45648 0.79616 0.0
H961 H 0.49299 0.419 0.84902 0.0
H962 H 0.4924 0.35905 0.71278 0.0
C963 C 0.46854 0.30415 0.89234 0.0
C964 C 0.50787 0.35339 0.89872 0.0
C965 C 0.46026 0.28698 0.93421 0.0
C966 C 0.50172 0.44142 0.76948 0.0
C967 C 0.50056 0.41991 0.80006 0.0
C968 C 0.49708 0.35765 0.7645 0.0
C969 C 0.49079 0.31345 0.90137 0.0
C970 C 0.49786 0.3345 0.86461 0.0
C971 C 0.50841 0.39975 0.76722 0.0
C972 C 0.50616 0.37683 0.79944 0.0
H973 H 0.50782 0.28044 0.03147 0.0
H974 H 0.52243 0.3106 0.95817 0.0
H975 H 0.4852 0.32253 0.76904 0.0
H976 H 0.52669 0.42424 0.62393 0.0
H977 H 0.52414 0.38653 0.67681 0.0
C978 C 0.24159 0.49169 0.93951 0.0
C979 C 0.24027 0.49986 1.00521 0.0
C980 C 0.22461 0.49777 0.8933 0.0
C981 C 0.171 0.53424 0.8703 0.0
H982 H 0.15207 0.48186 0.76123 0.0
C983 C 0.08873 0.53735 0.70447 0.0
C984 C 0.07579 0.51688 0.69681 0.0
C985 C 0.11035 0.53721 0.73592 0.0
C986 C 0.1569 0.49664 0.79175 0.0
H987 H 0.22089 0.52158 0.07339 0.0
H988 H 0.1913 0.53208 0.99394 0.0
H989 H 0.18747 0.47963 0.82476 0.0
H990 H 0.07524 0.48034 0.71986 0.0
H991 H 0.11219 0.48021 0.77629 0.0
H992 H 0.1396 0.55066 0.84034 0.0
C993 C 0.20557 0.52145 0.97673 0.0
C994 C 0.17762 0.49555 0.82743 0.0
C995 C 0.22267 0.51557 0.02252 0.0
C996 C 0.08478 0.49641 0.72343 0.0
C997 C 0.10622 0.4963 0.75553 0.0
C998 C 0.15011 0.53523 0.83513 0.0
C999 C 0.20565 0.51179 0.91219 0.0
C1000 C 0.18489 0.51419 0.86812 0.0
C1001 C 0.11951 0.51663 0.76178 0.0
C1002 C 0.14253 0.51629 0.7961 0.0
H1003 H 0.25468 0.47913 0.92531 0.0
H1004 H 0.2257 0.49041 0.84375 0.0
H1005 H 0.17604 0.54913 0.9001 0.0
H1006 H 0.08212 0.5536 0.68663 0.0
H1007 H 0.11995 0.55325 0.73935 0.0
C1008 C 0.98376 0.79277 0.27921 0.0
C1009 C 0.99063 0.79381 0.21258 0.0
C1010 C 0.98842 0.81123 0.32359 0.0
C1011 C 0.02214 0.86679 0.34323 0.0
H1012 H 0.97337 0.88295 0.4673 0.0
C1013 C 0.02118 0.95491 0.48761 0.0
C1014 C 0.01391 0.95485 0.55398 0.0
C1015 C 0.01849 0.93515 0.44679 0.0
C1016 C 0.9873 0.87861 0.43348 0.0
H1017 H 0.00788 0.81495 0.14046 0.0
H1018 H 0.01621 0.84693 0.2171 0.0
H1019 H 0.9697 0.8483 0.39757 0.0
H1020 H 1.00015 0.93341 0.63129 0.0
H1021 H 0.99523 0.89897 0.56051 0.0
H1022 H 0.03957 0.89731 0.37866 0.0
C1023 C 0.00765 0.83178 0.23614 0.0
C1024 C 0.98525 0.85857 0.39344 0.0
C1025 C 1.003 0.81334 0.19199 0.0
C1026 C 0.00489 0.93428 0.5795 0.0
C1027 C 1.00215 0.91451 0.53882 0.0
C1028 C 0.02414 0.88687 0.38308 0.0
C1029 C 0.99989 0.83136 0.30235 0.0
C1030 C 1.00261 0.85229 0.34743 0.0
C1031 C 0.00898 0.91457 0.47178 0.0
C1032 C 0.00674 0.89315 0.42881 0.0
H1033 H 0.97368 0.77822 0.29611 0.0
H1034 H 0.98246 0.80994 0.37421 0.0
H1035 H 0.0361 0.86254 0.30944 0.0
H1036 H 0.02908 0.97024 0.46734 0.0
H1037 H 0.02391 0.936 0.39556 0.0
C1038 C 0.72817 0.98217 0.31532 0.0
C1039 C 0.72648 0.98509 0.24658 0.0
C1040 C 0.7097 0.98846 0.35727 0.0
C1041 C 0.65399 0.02165 0.36448 0.0
H1042 H 0.63749 0.97718 0.49803 0.0
C1043 C 0.56573 0.02538 0.50303 0.0
C1044 C 0.56554 0.01938 0.5701 0.0
C1045 C 0.58565 0.02191 0.46429 0.0
C1046 C 0.64194 0.98998 0.4616 0.0
H1047 H 0.70461 0.99785 0.16829 0.0
H1048 H 0.67268 0.00906 0.24084 0.0
H1049 H 0.67239 0.9713 0.43223 0.0
H1050 H 0.58645 0.00707 0.65075 0.0
H1051 H 0.62123 1.001 0.58373 0.0
H1052 H 0.62348 0.04029 0.39366 0.0
C1053 C 0.68815 1.00202 0.26294 0.0
C1054 C 0.66208 0.98662 0.42383 0.0
C1055 C 0.70649 0.9956 0.22118 0.0
C1056 C 0.58594 0.01102 0.59856 0.0
C1057 C 0.60585 0.00756 0.56005 0.0
C1058 C 0.63387 0.02504 0.40235 0.0
C1059 C 0.68917 0.99795 0.33142 0.0
C1060 C 0.66838 1.00235 0.37446 0.0
C1061 C 0.60604 0.01287 0.49223 0.0
C1062 C 0.62748 0.00923 0.45141 0.0
H1063 H 0.74322 0.97384 0.33617 0.0
H1064 H 0.71128 0.98537 0.40982 0.0
H1065 H 0.65834 0.03431 0.32755 0.0
H1066 H 0.55044 0.03267 0.48049 0.0
H1067 H 0.58499 0.02614 0.41229 0.0
C1068 C 0.52924 0.74123 0.31342 0.0
C1069 C 0.55185 0.74992 0.30902 0.0
C1070 C 0.52411 0.72327 0.35697 0.0
C1071 C 0.55521 0.67376 0.42444 0.0
H1072 H 0.49682 0.65923 0.50817 0.0
C1073 C 0.5295 0.58004 0.48162 0.0
C1074 C 0.51958 0.57563 0.54355 0.0
C1075 C 0.53281 0.60274 0.46063 0.0
C1076 C 0.5133 0.66311 0.48548 0.0
H1077 H 0.58618 0.74831 0.35083 0.0
H1078 H 0.57711 0.71771 0.42861 0.0
H1079 H 0.50339 0.69815 0.46538 0.0
H1080 H 0.50533 0.5917 0.63215 0.0
H1081 H 0.51056 0.63146 0.59492 0.0
H1082 H 0.56504 0.63878 0.44329 0.0
C1083 C 0.56342 0.7243 0.39759 0.0
C1084 C 0.51701 0.68537 0.46066 0.0
C1085 C 0.56854 0.74215 0.35396 0.0
C1086 C 0.51259 0.5945 0.5836 0.0
C1087 C 0.51572 0.61729 0.56242 0.0
C1088 C 0.55143 0.65156 0.44864 0.0
C1089 C 0.54153 0.71369 0.39679 0.0
C1090 C 0.53799 0.69092 0.42936 0.0
C1091 C 0.52612 0.62169 0.50091 0.0
C1092 C 0.53034 0.64583 0.4787 0.0
H1093 H 0.51621 0.74654 0.27827 0.0
H1094 H 0.50709 0.71553 0.35487 0.0
H1095 H 0.57143 0.67719 0.39968 0.0
H1096 H 0.53432 0.56596 0.44869 0.0
H1097 H 0.54042 0.60546 0.41235 0.0
C1098 C 0.78547 0.51776 0.23696 0.0
C1099 C 0.77469 0.53944 0.2441 0.0
C1100 C 0.80378 0.51159 0.27874 0.0
C1101 C 0.83674 0.52859 0.43148 0.0
H1102 H 0.88963 0.50668 0.33037 0.0
C1103 C 0.92581 0.5089 0.5529 0.0
C1104 C 0.94559 0.51635 0.51896 0.0
C1105 C 0.90392 0.50978 0.52319 0.0
C1106 C 0.87507 0.51285 0.3594 0.0
H1107 H 0.77354 0.57095 0.30322 0.0
H1108 H 0.80489 0.56002 0.37728 0.0
H1109 H 0.85217 0.51031 0.27636 0.0
H1110 H 0.95775 0.53092 0.42729 0.0
H1111 H 0.91968 0.53249 0.37523 0.0
H1112 H 0.85989 0.5317 0.51413 0.0
C1113 C 0.79931 0.54768 0.33969 0.0
C1114 C 0.85345 0.51462 0.32862 0.0
C1115 C 0.78115 0.55389 0.29763 0.0
C1116 C 0.9429 0.52496 0.45474 0.0
C1117 C 0.92106 0.52567 0.42471 0.0
C1118 C 0.85836 0.52663 0.46245 0.0
C1119 C 0.81164 0.52695 0.32874 0.0
C1120 C 0.83401 0.52278 0.36394 0.0
C1121 C 0.90124 0.51807 0.4585 0.0
C1122 C 0.87791 0.51905 0.42657 0.0
H1123 H 0.78123 0.50652 0.19524 0.0
H1124 H 0.81261 0.49532 0.2695 0.0
H1125 H 0.82218 0.53486 0.46033 0.0
H1126 H 0.92708 0.50295 0.60309 0.0
H1127 H 0.8891 0.50377 0.5508 0.0
loop_
_geom_bond_atom_site_label_1
_geom_bond_atom_site_label_2
_geom_bond_distance
_geom_bond_site_symmetry_2
_ccdc_geom_bond_type
H0 C3 0.931 . S
H1 C6 0.928 . S
H2 C8 0.930 . S
C3 H0 0.931 . S
C3 C4 1.413 . S
C3 C5 1.360 . S
C4 C3 1.413 . S
C4 C8 1.429 . S
C5 C3 1.360 . S
C5 C6 1.372 . S
C6 H1 0.928 . S
C6 C5 1.372 . S
C6 C7 1.404 . S
C7 C6 1.404 . S
C7 C8 1.391 . S
C8 H2 0.930 . S
C8 C4 1.429 . S
C8 C7 1.391 . S
H9 C12 0.931 . S
H10 C15 0.928 . S
H11 C17 0.930 . S
C12 H9 0.931 . S
C12 C13 1.413 . S
C12 C14 1.360 . S
C13 C12 1.413 . S
C13 C17 1.429 . S
C14 C12 1.360 . S
C14 C15 1.372 . S
C15 H10 0.928 . S
C15 C14 1.372 . S
C15 C16 1.404 . S
C16 C15 1.404 . S
C16 C17 1.391 . S
C17 H11 0.930 . S
C17 C13 1.429 . S
C17 C16 1.391 . S
H18 C21 0.931 . S
H19 C24 0.928 . S
H20 C26 0.930 . S
C21 H18 0.931 . S
C21 C22 1.413 . S
C21 C23 1.360 . S
C22 C21 1.413 . S
C22 C26 1.429 . S
C23 C21 1.360 . S
C23 C24 1.372 . S
C24 H19 0.928 . S
C24 C23 1.372 . S
C24 C25 1.404 . S
C25 C24 1.404 . S
C25 C26 1.391 . S
C26 H20 0.930 . S
C26 C22 1.429 . S
C26 C25 1.391 . S
H27 C30 0.931 . S
H28 C33 0.928 . S
H29 C35 0.930 . S
C30 H27 0.931 . S
C30 C31 1.413 . S
C30 C32 1.360 . S
C31 C30 1.413 . S
C31 C35 1.429 . S
C32 C30 1.360 . S
C32 C33 1.372 . S
C33 H28 0.928 . S
C33 C32 1.372 . S
C33 C34 1.404 . S
C34 C33 1.404 . S
C34 C35 1.391 . S
C35 H29 0.930 . S
C35 C31 1.429 . S
C35 C34 1.391 . S
H36 C39 0.933 . S
H37 C42 0.928 . S
H38 C44 0.930 . S
C39 H36 0.933 . S
C39 C40 1.413 1_554 S
C39 C41 1.360 . S
C40 C39 1.413 1_556 S
C40 C44 1.429 . S
C41 C39 1.360 . S
C41 C42 1.372 . S
C42 H37 0.928 . S
C42 C41 1.372 . S
C42 C43 1.404 . S
C43 C42 1.404 . S
C43 C44 1.391 1_554 S
C44 H38 0.930 . S
C44 C40 1.429 . S
C44 C43 1.391 1_556 S
H45 C48 0.931 1_556 S
H46 C51 0.928 . S
H47 C53 0.930 . S
C48 H45 0.931 1_554 S
C48 C49 1.413 1_554 S
C48 C50 1.360 . S
C49 C48 1.413 1_556 S
C49 C53 1.429 . S
C50 C48 1.360 . S
C50 C51 1.372 . S
C51 H46 0.928 . S
C51 C50 1.372 . S
C51 C52 1.404 . S
C52 C51 1.404 . S
C52 C53 1.391 1_554 S
C53 H47 0.930 . S
C53 C49 1.429 . S
C53 C52 1.391 1_556 S
H54 C57 0.931 1_556 S
H55 C60 0.928 . S
H56 C62 0.930 . S
C57 H54 0.931 1_554 S
C57 C58 1.413 1_554 S
C57 C59 1.360 . S
C58 C57 1.413 1_556 S
C58 C62 1.429 . S
C59 C57 1.360 . S
C59 C60 1.372 . S
C60 H55 0.928 . S
C60 C59 1.372 . S
C60 C61 1.404 . S
C61 C60 1.404 . S
C61 C62 1.391 1_554 S
C62 H56 0.930 . S
C62 C58 1.429 . S
C62 C61 1.391 1_556 S
H63 C66 0.931 1_556 S
H64 C69 0.928 . S
H65 C71 0.930 . S
C66 H63 0.931 1_554 S
C66 C67 1.413 . S
C66 C68 1.360 1_554 S
C67 C66 1.413 . S
C67 C71 1.429 . S
C68 C66 1.360 1_556 S
C68 C69 1.372 . S
C69 H64 0.928 . S
C69 C68 1.372 . S
C69 C70 1.404 1_556 S
C70 C69 1.404 1_554 S
C70 C71 1.391 . S
C71 H65 0.930 . S
C71 C67 1.429 . S
C71 C70 1.391 . S
Tb72 N103 2.660 1_565 S
Tb72 N110 2.600 . S
Tb72 O116 2.546 . S
Tb72 O117 2.610 1_455 S
Tb72 O119 2.320 1_455 S
Tb72 O120 2.552 . S
Tb72 O121 2.413 . S
Tb72 O123 2.362 1_565 S
Tb72 O124 2.421 . S
Tb72 C136 2.833 . S
C73 C76 1.432 1_545 S
C73 C77 1.414 . S
C73 N80 1.359 . S
C74 C76 1.417 . S
C74 C78 1.432 . S
C74 C86 1.410 . S
C75 C77 1.444 1_565 S
C75 C78 1.317 . S
C75 H98 0.929 . S
C76 C73 1.432 1_565 S
C76 C74 1.417 . S
C76 N84 1.360 . S
C77 C73 1.414 . S
C77 C75 1.444 1_545 S
C77 C82 1.385 . S
C78 C74 1.432 . S
C78 C75 1.317 . S
C78 H90 0.930 . S
C79 C81 1.392 . S
C79 C82 1.370 . S
C79 H91 0.931 . S
N80 C73 1.359 . S
N80 C81 1.327 . S
N80 Tb83 2.600 . S
C81 C79 1.392 . S
C81 N80 1.327 . S
C81 H88 0.930 . S
C82 C77 1.385 . S
C82 C79 1.370 . S
C82 H101 0.930 . S
Tb83 N80 2.600 . S
Tb83 N84 2.660 1_545 S
Tb83 O117 2.362 1_545 S
Tb83 O118 2.421 . S
Tb83 O122 2.546 . S
Tb83 O123 2.610 1_655 S
Tb83 O125 2.320 1_655 S
Tb83 O126 2.552 1_655 S
Tb83 O127 2.413 . S
Tb83 C147 2.833 . S
N84 C76 1.360 . S
N84 Tb83 2.660 1_565 S
N84 C85 1.304 1_655 S
C85 N84 1.304 1_455 S
C85 C87 1.407 . S
C85 H92 0.930 . S
C86 C74 1.410 . S
C86 C87 1.349 1_655 S
C86 H94 0.930 . S
C87 C85 1.407 . S
C87 C86 1.349 1_455 S
C87 H89 0.926 . S
H88 C81 0.930 . S
H89 C87 0.926 . S
H90 C78 0.930 . S
H91 C79 0.931 . S
H92 C85 0.930 . S
H93 C107 0.930 1_655 S
H94 C86 0.930 . S
H95 C113 0.930 . S
H96 C104 0.930 1_655 S
H97 C111 0.931 . S
H98 C75 0.929 . S
H99 C105 0.930 . S
H100 C138 0.930 . S
H101 C82 0.930 . S
H102 C137 0.929 . S
N103 Tb72 2.660 1_545 S
N103 C104 1.305 . S
N103 C108 1.360 . S
C104 H96 0.930 1_455 S
C104 N103 1.305 . S
C104 C107 1.407 . S
C105 H99 0.930 . S
C105 C106 1.410 . S
C105 C107 1.345 . S
C106 C105 1.410 . S
C106 C108 1.417 . S
C106 C138 1.432 . S
C107 H93 0.930 1_455 S
C107 C104 1.407 . S
C107 C105 1.345 . S
C108 N103 1.360 . S
C108 C106 1.417 . S
C108 C112 1.432 . S
H109 C114 0.927 1_545 S
N110 Tb72 2.600 . S
N110 C112 1.359 1_565 S
N110 C113 1.327 . S
C111 H97 0.931 . S
C111 C113 1.392 . S
C111 C114 1.382 . S
C112 C108 1.432 . S
C112 N110 1.359 1_545 S
C112 C115 1.414 . S
C113 H95 0.930 . S
C113 N110 1.327 . S
C113 C111 1.392 . S
C114 H109 0.927 1_565 S
C114 C111 1.382 . S
C114 C115 1.374 1_565 S
C115 C112 1.414 . S
C115 C114 1.374 1_545 S
C115 C137 1.444 . S
O116 Tb72 2.546 . S
O116 C136 1.251 . S
O117 Tb72 2.610 1_655 S
O117 Tb83 2.362 1_565 S
O117 C128 1.283 . S
O118 Tb83 2.421 . S
O118 C135 1.262 . S
O119 Tb72 2.320 1_655 S
O119 C135 1.260 1_565 S
O120 Tb72 2.552 . S
O120 C128 1.243 1_455 S
O121 Tb72 2.413 . S
O121 C136 1.256 . S
O122 Tb83 2.546 . S
O122 C147 1.251 . S
O123 Tb72 2.362 1_545 S
O123 Tb83 2.610 1_455 S
O123 C139 1.283 . S
O124 Tb72 2.421 . S
O124 C146 1.262 1_565 S
O125 Tb83 2.320 1_455 S
O125 C146 1.260 . S
O126 Tb83 2.552 1_455 S
O126 C139 1.243 . S
O127 Tb83 2.413 . S
O127 C147 1.256 . S
C128 O117 1.283 . S
C128 O120 1.243 1_655 S
C129 C131 1.382 . S
C129 C133 1.393 . S
C129 C136 1.500 . S
C130 C131 1.400 . S
C130 C132 1.384 . S
C131 C129 1.382 . S
C131 C130 1.400 . S
C131 H148 0.919 1_455 S
C132 C130 1.384 . S
C132 C134 1.392 . S
C132 H149 0.931 . S
C133 C129 1.393 . S
C133 C134 1.401 . S
C133 H150 0.930 . S
C134 C132 1.392 . S
C134 C133 1.401 . S
C134 H151 0.930 . S
C135 O118 1.262 . S
C135 O119 1.260 1_545 S
C136 Tb72 2.833 . S
C136 O116 1.251 . S
C136 O121 1.256 . S
C136 C129 1.500 . S
C137 H102 0.929 . S
C137 C115 1.444 . S
C137 C138 1.317 . S
C138 H100 0.930 . S
C138 C106 1.432 . S
C138 C137 1.317 . S
C139 O123 1.283 . S
C139 O126 1.243 . S
C140 C141 1.382 . S
C140 C144 1.393 . S
C140 C147 1.500 . S
C141 C140 1.382 . S
C141 C142 1.400 . S
C141 H152 0.930 1_655 S
C142 C141 1.400 . S
C142 C143 1.384 . S
C143 C142 1.384 . S
C143 C145 1.392 . S
C143 H153 0.931 . S
C144 C140 1.393 . S
C144 C145 1.401 . S
C144 H154 0.930 . S
C145 C143 1.392 . S
C145 C144 1.401 . S
C145 H155 0.930 . S
C146 O124 1.262 1_545 S
C146 O125 1.260 . S
C147 Tb83 2.833 . S
C147 O122 1.251 . S
C147 O127 1.256 . S
C147 C140 1.500 . S
H148 C131 0.919 1_655 S
H149 C132 0.931 . S
H150 C133 0.930 . S
H151 C134 0.930 . S
H152 C141 0.930 1_455 S
H153 C143 0.931 . S
H154 C144 0.930 . S
H155 C145 0.930 . S
Tb156 N187 2.660 . S
Tb156 N194 2.600 . S
Tb156 O200 2.546 . S
Tb156 O201 2.610 1_545 S
Tb156 O203 2.320 1_545 S
Tb156 O204 2.552 . S
Tb156 O205 2.413 . S
Tb156 O207 2.362 . S
Tb156 O208 2.421 . S
Tb156 C220 2.833 . S
C157 C160 1.432 . S
C157 C161 1.414 . S
C157 N164 1.359 . S
C158 C160 1.417 . S
C158 C162 1.432 . S
C158 C170 1.410 . S
C159 C161 1.444 . S
C159 C162 1.317 . S
C159 H182 0.929 . S
C160 C157 1.432 . S
C160 C158 1.417 . S
C160 N168 1.360 . S
C161 C157 1.414 . S
C161 C159 1.444 . S
C161 C166 1.385 . S
C162 C158 1.432 . S
C162 C159 1.317 . S
C162 H174 0.930 . S
C163 C165 1.392 . S
C163 C166 1.370 . S
C163 H175 0.931 . S
N164 C157 1.359 . S
N164 C165 1.327 . S
N164 Tb167 2.600 . S
C165 C163 1.392 . S
C165 N164 1.327 . S
C165 H172 0.930 . S
C166 C161 1.385 . S
C166 C163 1.370 . S
C166 H185 0.930 . S
Tb167 N164 2.600 . S
Tb167 N168 2.660 . S
Tb167 O201 2.362 . S
Tb167 O202 2.421 . S
Tb167 O206 2.546 . S
Tb167 O207 2.610 1_565 S
Tb167 O209 2.320 1_565 S
Tb167 O210 2.552 1_565 S
Tb167 O211 2.413 . S
Tb167 C231 2.833 . S
N168 C160 1.360 . S
N168 Tb167 2.660 . S
N168 C169 1.305 1_565 S
C169 N168 1.305 1_545 S
C169 C171 1.407 . S
C169 H176 0.930 . S
C170 C158 1.410 . S
C170 C171 1.345 1_565 S
C170 H178 0.930 . S
C171 C169 1.407 . S
C171 C170 1.345 1_545 S
C171 H173 0.930 . S
H172 C165 0.930 . S
H173 C171 0.930 . S
H174 C162 0.930 . S
H175 C163 0.931 . S
H176 C169 0.930 . S
H177 C191 0.930 1_565 S
H178 C170 0.930 . S
H179 C197 0.930 . S
H180 C188 0.930 1_565 S
H181 C195 0.931 . S
H182 C159 0.929 . S
H183 C189 0.930 . S
H184 C222 0.930 . S
H185 C166 0.930 . S
H186 C221 0.929 . S
N187 Tb156 2.660 . S
N187 C188 1.305 . S
N187 C192 1.360 . S
C188 H180 0.930 1_545 S
C188 N187 1.305 . S
C188 C191 1.407 . S
C189 H183 0.930 . S
C189 C190 1.410 . S
C189 C191 1.345 . S
C190 C189 1.410 . S
C190 C192 1.417 . S
C190 C222 1.432 . S
C191 H177 0.930 1_545 S
C191 C188 1.407 . S
C191 C189 1.345 . S
C192 N187 1.360 . S
C192 C190 1.417 . S
C192 C196 1.432 . S
H193 C198 0.930 . S
N194 Tb156 2.600 . S
N194 C196 1.359 . S
N194 C197 1.327 . S
C195 H181 0.931 . S
C195 C197 1.392 . S
C195 C198 1.370 . S
C196 C192 1.432 . S
C196 N194 1.359 . S
C196 C199 1.414 . S
C197 H179 0.930 . S
C197 N194 1.327 . S
C197 C195 1.392 . S
C198 H193 0.930 . S
C198 C195 1.370 . S
C198 C199 1.385 . S
C199 C196 1.414 . S
C199 C198 1.385 . S
C199 C221 1.444 . S
O200 Tb156 2.546 . S
O200 C220 1.251 . S
O201 Tb156 2.610 1_565 S
O201 Tb167 2.362 . S
O201 C212 1.283 . S
O202 Tb167 2.421 . S
O202 C219 1.262 . S
O203 Tb156 2.320 1_565 S
O203 C219 1.260 . S
O204 Tb156 2.552 . S
O204 C212 1.243 1_545 S
O205 Tb156 2.413 . S
O205 C220 1.256 . S
O206 Tb167 2.546 . S
O206 C231 1.251 . S
O207 Tb156 2.362 . S
O207 Tb167 2.610 1_545 S
O207 C223 1.283 . S
O208 Tb156 2.421 . S
O208 C230 1.262 . S
O209 Tb167 2.320 1_545 S
O209 C230 1.260 . S
O210 Tb167 2.552 1_545 S
O210 C223 1.243 . S
O211 Tb167 2.413 . S
O211 C231 1.256 . S
C212 O201 1.283 . S
C212 O204 1.243 1_565 S
C213 C215 1.382 . S
C213 C217 1.393 . S
C213 C220 1.500 . S
C214 C215 1.400 . S
C214 C216 1.384 . S
C215 C213 1.382 . S
C215 C214 1.400 . S
C215 H232 0.930 . S
C216 C214 1.384 . S
C216 C218 1.392 . S
C216 H233 0.931 . S
C217 C213 1.393 . S
C217 C218 1.401 . S
C217 H234 0.930 . S
C218 C216 1.392 . S
C218 C217 1.401 . S
C218 H235 0.930 . S
C219 O202 1.262 . S
C219 O203 1.260 . S
C220 Tb156 2.833 . S
C220 O200 1.251 . S
C220 O205 1.256 . S
C220 C213 1.500 . S
C221 H186 0.929 . S
C221 C199 1.444 . S
C221 C222 1.317 . S
C222 H184 0.930 . S
C222 C190 1.432 . S
C222 C221 1.317 . S
C223 O207 1.283 . S
C223 O210 1.243 . S
C224 C225 1.382 . S
C224 C228 1.393 . S
C224 C231 1.500 . S
C225 C224 1.382 . S
C225 C226 1.400 . S
C225 H236 0.930 1_565 S
C226 C225 1.400 . S
C226 C227 1.384 . S
C227 C226 1.384 . S
C227 C229 1.392 . S
C227 H237 0.931 . S
C228 C224 1.393 . S
C228 C229 1.401 . S
C228 H238 0.930 . S
C229 C227 1.392 . S
C229 C228 1.401 . S
C229 H239 0.930 . S
C230 O208 1.262 . S
C230 O209 1.260 . S
C231 Tb167 2.833 . S
C231 O206 1.251 . S
C231 O211 1.256 . S
C231 C224 1.500 . S
H232 C215 0.930 . S
H233 C216 0.931 . S
H234 C217 0.930 . S
H235 C218 0.930 . S
H236 C225 0.930 1_545 S
H237 C227 0.931 . S
H238 C228 0.930 . S
H239 C229 0.930 . S
Tb240 N271 2.660 . S
Tb240 N278 2.600 . S
Tb240 O284 2.546 . S
Tb240 O285 2.610 . S
Tb240 O287 2.320 . S
Tb240 O288 2.552 . S
Tb240 O289 2.413 . S
Tb240 O291 2.362 . S
Tb240 O292 2.421 . S
Tb240 C304 2.833 . S
C241 C244 1.432 . S
C241 C245 1.414 . S
C241 N248 1.359 . S
C242 C244 1.417 . S
C242 C246 1.432 . S
C242 C254 1.410 . S
C243 C245 1.444 . S
C243 C246 1.317 . S
C243 H266 0.929 . S
C244 C241 1.432 . S
C244 C242 1.417 . S
C244 N252 1.360 . S
C245 C241 1.414 . S
C245 C243 1.444 . S
C245 C250 1.385 . S
C246 C242 1.432 . S
C246 C243 1.317 . S
C246 H258 0.930 . S
C247 C249 1.392 . S
C247 C250 1.370 . S
C247 H259 0.931 . S
N248 C241 1.359 . S
N248 C249 1.327 . S
N248 Tb251 2.600 . S
C249 C247 1.392 . S
C249 N248 1.327 . S
C249 H256 0.930 . S
C250 C245 1.385 . S
C250 C247 1.370 . S
C250 H269 0.930 . S
Tb251 N248 2.600 . S
Tb251 N252 2.660 . S
Tb251 O285 2.362 . S
Tb251 O286 2.421 . S
Tb251 O290 2.546 . S
Tb251 O291 2.610 . S
Tb251 O293 2.320 . S
Tb251 O294 2.552 . S
Tb251 O295 2.413 . S
Tb251 C315 2.833 . S
N252 C244 1.360 . S
N252 Tb251 2.660 . S
N252 C253 1.305 . S
C253 N252 1.305 . S
C253 C255 1.407 . S
C253 H260 0.930 . S
C254 C242 1.410 . S
C254 C255 1.345 . S
C254 H262 0.930 . S
C255 C253 1.407 . S
C255 C254 1.345 . S
C255 H257 0.930 . S
H256 C249 0.930 . S
H257 C255 0.930 . S
H258 C246 0.930 . S
H259 C247 0.931 . S
H260 C253 0.930 . S
H261 C275 0.930 . S
H262 C254 0.930 . S
H263 C281 0.930 . S
H264 C272 0.930 . S
H265 C279 0.931 . S
H266 C243 0.929 . S
H267 C273 0.930 . S
H268 C306 0.930 . S
H269 C250 0.930 . S
H270 C305 0.929 . S
N271 Tb240 2.660 . S
N271 C272 1.305 . S
N271 C276 1.360 . S
C272 H264 0.930 . S
C272 N271 1.305 . S
C272 C275 1.407 . S
C273 H267 0.930 . S
C273 C274 1.410 . S
C273 C275 1.345 . S
C274 C273 1.410 . S
C274 C276 1.417 . S
C274 C306 1.432 . S
C275 H261 0.930 . S
C275 C272 1.407 . S
C275 C273 1.345 . S
C276 N271 1.360 . S
C276 C274 1.417 . S
C276 C280 1.432 . S
H277 C282 0.930 . S
N278 Tb240 2.600 . S
N278 C280 1.359 . S
N278 C281 1.327 . S
C279 H265 0.931 . S
C279 C281 1.392 . S
C279 C282 1.370 . S
C280 C276 1.432 . S
C280 N278 1.359 . S
C280 C283 1.414 . S
C281 H263 0.930 . S
C281 N278 1.327 . S
C281 C279 1.392 . S
C282 H277 0.930 . S
C282 C279 1.370 . S
C282 C283 1.385 . S
C283 C280 1.414 . S
C283 C282 1.385 . S
C283 C305 1.444 . S
O284 Tb240 2.546 . S
O284 C304 1.251 . S
O285 Tb240 2.610 . S
O285 Tb251 2.362 . S
O285 C296 1.283 . S
O286 Tb251 2.421 . S
O286 C303 1.262 . S
O287 Tb240 2.320 . S
O287 C303 1.260 . S
O288 Tb240 2.552 . S
O288 C296 1.243 . S
O289 Tb240 2.413 . S
O289 C304 1.256 . S
O290 Tb251 2.546 . S
O290 C315 1.251 . S
O291 Tb240 2.362 . S
O291 Tb251 2.610 . S
O291 C307 1.283 . S
O292 Tb240 2.421 . S
O292 C314 1.262 . S
O293 Tb251 2.320 . S
O293 C314 1.260 . S
O294 Tb251 2.552 . S
O294 C307 1.243 . S
O295 Tb251 2.413 . S
O295 C315 1.256 . S
C296 O285 1.283 . S
C296 O288 1.243 . S
C297 C299 1.382 . S
C297 C301 1.393 . S
C297 C304 1.500 . S
C298 C299 1.400 . S
C298 C300 1.384 . S
C299 C297 1.382 . S
C299 C298 1.400 . S
C299 H316 0.930 . S
C300 C298 1.384 . S
C300 C302 1.392 . S
C300 H317 0.931 . S
C301 C297 1.393 . S
C301 C302 1.401 . S
C301 H318 0.930 . S
C302 C300 1.392 . S
C302 C301 1.401 . S
C302 H319 0.930 . S
C303 O286 1.262 . S
C303 O287 1.260 . S
C304 Tb240 2.833 . S
C304 O284 1.251 . S
C304 O289 1.256 . S
C304 C297 1.500 . S
C305 H270 0.929 . S
C305 C283 1.444 . S
C305 C306 1.317 . S
C306 H268 0.930 . S
C306 C274 1.432 . S
C306 C305 1.317 . S
C307 O291 1.283 . S
C307 O294 1.243 . S
C308 C309 1.382 . S
C308 C312 1.393 . S
C308 C315 1.500 . S
C309 C308 1.382 . S
C309 C310 1.400 . S
C309 H320 0.930 . S
C310 C309 1.400 . S
C310 C311 1.384 . S
C311 C310 1.384 . S
C311 C313 1.392 . S
C311 H321 0.931 . S
C312 C308 1.393 . S
C312 C313 1.401 . S
C312 H322 0.930 . S
C313 C311 1.392 . S
C313 C312 1.401 . S
C313 H323 0.930 . S
C314 O292 1.262 . S
C314 O293 1.260 . S
C315 Tb251 2.833 . S
C315 O290 1.251 . S
C315 O295 1.256 . S
C315 C308 1.500 . S
H316 C299 0.930 . S
H317 C300 0.931 . S
H318 C301 0.930 . S
H319 C302 0.930 . S
H320 C309 0.930 . S
H321 C311 0.931 . S
H322 C312 0.930 . S
H323 C313 0.930 . S
Tb324 N355 2.660 . S
Tb324 N362 2.600 . S
Tb324 O368 2.546 . S
Tb324 O369 2.610 . S
Tb324 O371 2.320 . S
Tb324 O372 2.552 . S
Tb324 O373 2.413 . S
Tb324 O375 2.373 . S
Tb324 O376 2.421 1_455 S
Tb324 C388 2.833 . S
C325 C328 1.432 . S
C325 C329 1.414 . S
C325 N332 1.359 . S
C326 C328 1.417 . S
C326 C330 1.432 . S
C326 C338 1.410 . S
C327 C329 1.444 . S
C327 C330 1.317 . S
C327 H350 0.929 . S
C328 C325 1.432 . S
C328 C326 1.417 . S
C328 N336 1.360 . S
C329 C325 1.414 . S
C329 C327 1.444 . S
C329 C334 1.385 . S
C330 C326 1.432 . S
C330 C327 1.317 . S
C330 H342 0.930 . S
C331 C333 1.392 . S
C331 C334 1.370 1_455 S
C331 H343 0.931 . S
N332 C325 1.359 . S
N332 C333 1.327 1_655 S
N332 Tb335 2.600 . S
C333 C331 1.392 . S
C333 N332 1.327 1_455 S
C333 H340 0.930 . S
C334 C329 1.385 . S
C334 C331 1.370 1_655 S
C334 H353 0.936 . S
Tb335 N332 2.600 . S
Tb335 N336 2.660 . S
Tb335 O369 2.362 1_655 S
Tb335 O370 2.421 1_655 S
Tb335 O374 2.546 . S
Tb335 O375 2.603 1_655 S
Tb335 O377 2.320 . S
Tb335 O378 2.552 . S
Tb335 O379 2.413 . S
Tb335 C399 2.833 . S
N336 C328 1.360 . S
N336 Tb335 2.660 . S
N336 C337 1.305 . S
C337 N336 1.305 . S
C337 C339 1.407 . S
C337 H344 0.930 . S
C338 C326 1.410 . S
C338 C339 1.345 . S
C338 H346 0.930 . S
C339 C337 1.407 . S
C339 C338 1.345 . S
C339 H341 0.930 . S
H340 C333 0.930 . S
H341 C339 0.930 . S
H342 C330 0.930 . S
H343 C331 0.931 . S
H344 C337 0.930 . S
H345 C359 0.930 . S
H346 C338 0.930 . S
H347 C365 0.930 1_655 S
H348 C356 0.930 . S
H349 C363 0.924 1_655 S
H350 C327 0.929 . S
H351 C357 0.930 . S
H352 C390 0.930 . S
H353 C334 0.936 . S
H354 C389 0.929 . S
N355 Tb324 2.660 . S
N355 C356 1.305 . S
N355 C360 1.360 . S
C356 H348 0.930 . S
C356 N355 1.305 . S
C356 C359 1.407 . S
C357 H351 0.930 . S
C357 C358 1.410 . S
C357 C359 1.345 . S
C358 C357 1.410 . S
C358 C360 1.417 . S
C358 C390 1.432 . S
C359 H345 0.930 . S
C359 C356 1.407 . S
C359 C357 1.345 . S
C360 N355 1.360 . S
C360 C358 1.417 . S
C360 C364 1.432 . S
H361 C366 0.930 . S
N362 Tb324 2.600 . S
N362 C364 1.359 . S
N362 C365 1.327 . S
C363 H349 0.924 1_455 S
C363 C365 1.394 . S
C363 C366 1.375 . S
C364 C360 1.432 . S
C364 N362 1.359 . S
C364 C367 1.414 . S
C365 H347 0.930 1_455 S
C365 N362 1.327 . S
C365 C363 1.394 . S
C366 H361 0.930 . S
C366 C363 1.375 . S
C366 C367 1.385 . S
C367 C364 1.414 . S
C367 C366 1.385 . S
C367 C389 1.444 . S
O368 Tb324 2.546 . S
O368 C388 1.251 . S
O369 Tb324 2.610 . S
O369 Tb335 2.362 1_455 S
O369 C380 1.283 . S
O370 Tb335 2.421 1_455 S
O370 C387 1.262 . S
O371 Tb324 2.320 . S
O371 C387 1.260 . S
O372 Tb324 2.552 . S
O372 C380 1.243 . S
O373 Tb324 2.413 . S
O373 C388 1.256 . S
O374 Tb335 2.546 . S
O374 C399 1.251 . S
O375 Tb324 2.373 . S
O375 Tb335 2.603 1_455 S
O375 C391 1.275 1_455 S
O376 Tb324 2.421 1_655 S
O376 C398 1.262 . S
O377 Tb335 2.320 . S
O377 C398 1.260 . S
O378 Tb335 2.552 . S
O378 C391 1.243 . S
O379 Tb335 2.413 . S
O379 C399 1.256 . S
C380 O369 1.283 . S
C380 O372 1.243 . S
C381 C383 1.382 . S
C381 C385 1.393 . S
C381 C388 1.500 . S
C382 C383 1.400 . S
C382 C384 1.384 . S
C383 C381 1.382 . S
C383 C382 1.400 . S
C383 H400 0.930 . S
C384 C382 1.384 . S
C384 C386 1.392 . S
C384 H401 0.931 . S
C385 C381 1.393 . S
C385 C386 1.401 . S
C385 H402 0.930 . S
C386 C384 1.392 . S
C386 C385 1.401 . S
C386 H403 0.930 . S
C387 O370 1.262 . S
C387 O371 1.260 . S
C388 Tb324 2.833 . S
C388 O368 1.251 . S
C388 O373 1.256 . S
C388 C381 1.500 . S
C389 H354 0.929 . S
C389 C367 1.444 . S
C389 C390 1.317 . S
C390 H352 0.930 . S
C390 C358 1.432 . S
C390 C389 1.317 . S
C391 O375 1.275 1_655 S
C391 O378 1.243 . S
C392 C393 1.382 . S
C392 C396 1.393 . S
C392 C399 1.500 . S
C393 C392 1.382 . S
C393 C394 1.400 . S
C393 H404 0.930 . S
C394 C393 1.400 . S
C394 C395 1.384 . S
C395 C394 1.384 . S
C395 C397 1.392 . S
C395 H405 0.931 . S
C396 C392 1.393 . S
C396 C397 1.401 . S
C396 H406 0.930 . S
C397 C395 1.392 . S
C397 C396 1.401 . S
C397 H407 0.930 . S
C398 O376 1.262 . S
C398 O377 1.260 . S
C399 Tb335 2.833 . S
C399 O374 1.251 . S
C399 O379 1.256 . S
C399 C392 1.500 . S
H400 C383 0.930 . S
H401 C384 0.931 . S
H402 C385 0.930 . S
H403 C386 0.930 . S
H404 C393 0.930 . S
H405 C395 0.931 . S
H406 C396 0.930 . S
H407 C397 0.930 . S
C408 C409 1.349 . S
C408 C410 1.327 . S
C408 H433 0.950 . S
C409 C408 1.349 . S
C409 C425 1.349 . S
C410 C408 1.327 . S
C410 C429 1.429 . S
C410 H434 0.950 . S
C411 C428 1.574 . S
C411 C430 1.368 . S
C411 H435 0.949 . S
H412 C416 0.949 . S
C413 C414 1.349 . S
C413 C415 1.327 . S
C413 H436 0.950 1_545 S
C414 C413 1.349 . S
C414 C426 1.349 . S
C415 C413 1.327 . S
C415 C431 1.429 . S
C415 H437 0.950 . S
C416 H412 0.949 . S
C416 C424 1.574 . S
C416 C432 1.368 . S
H417 C425 0.950 . S
H418 C423 0.950 . S
H419 C424 0.949 . S
H420 C426 0.950 . S
H421 C427 0.950 . S
H422 C428 0.949 . S
C423 H418 0.950 . S
C423 C425 1.327 . S
C423 C429 1.429 . S
C424 C416 1.574 . S
C424 H419 0.949 . S
C424 C430 1.368 . S
C425 C409 1.349 . S
C425 H417 0.950 . S
C425 C423 1.327 . S
C426 C414 1.349 . S
C426 H420 0.950 . S
C426 C427 1.327 . S
C427 H421 0.950 . S
C427 C426 1.327 . S
C427 C431 1.429 . S
C428 C411 1.574 . S
C428 H422 0.949 . S
C428 C432 1.368 . S
C429 C410 1.429 . S
C429 C423 1.429 . S
C429 C430 1.523 . S
C430 C411 1.368 . S
C430 C424 1.368 . S
C430 C429 1.523 . S
C431 C415 1.429 . S
C431 C427 1.429 . S
C431 C432 1.523 . S
C432 C416 1.368 . S
C432 C428 1.368 . S
C432 C431 1.523 . S
H433 C408 0.950 . S
H434 C410 0.950 . S
H435 C411 0.949 . S
H436 C413 0.950 1_565 S
H437 C415 0.950 . S
C438 C439 1.349 . S
C438 C440 1.327 . S
C438 H463 0.950 . S
C439 C438 1.349 . S
C439 C455 1.349 . S
C440 C438 1.327 . S
C440 C459 1.429 . S
C440 H464 0.950 . S
C441 C458 1.574 . S
C441 C460 1.368 . S
C441 H465 0.949 . S
H442 C446 0.949 . S
C443 C444 1.349 . S
C443 C445 1.327 . S
C443 H466 0.950 . S
C444 C443 1.349 . S
C444 C456 1.349 . S
C445 C443 1.327 . S
C445 C461 1.429 . S
C445 H467 0.950 . S
C446 H442 0.949 . S
C446 C454 1.574 . S
C446 C462 1.368 . S
H447 C455 0.950 . S
H448 C453 0.950 . S
H449 C454 0.949 . S
H450 C456 0.950 . S
H451 C457 0.950 . S
H452 C458 0.949 . S
C453 H448 0.950 . S
C453 C455 1.327 . S
C453 C459 1.429 . S
C454 C446 1.574 . S
C454 H449 0.949 . S
C454 C460 1.368 . S
C455 C439 1.349 . S
C455 H447 0.950 . S
C455 C453 1.327 . S
C456 C444 1.349 . S
C456 H450 0.950 . S
C456 C457 1.327 . S
C457 H451 0.950 . S
C457 C456 1.327 . S
C457 C461 1.429 . S
C458 C441 1.574 . S
C458 H452 0.949 . S
C458 C462 1.368 . S
C459 C440 1.429 . S
C459 C453 1.429 . S
C459 C460 1.523 . S
C460 C441 1.368 . S
C460 C454 1.368 . S
C460 C459 1.523 . S
C461 C445 1.429 . S
C461 C457 1.429 . S
C461 C462 1.523 . S
C462 C446 1.368 . S
C462 C458 1.368 . S
C462 C461 1.523 . S
H463 C438 0.950 . S
H464 C440 0.950 . S
H465 C441 0.949 . S
H466 C443 0.950 . S
H467 C445 0.950 . S
C468 C469 1.349 . S
C468 C470 1.327 . S
C468 H493 0.950 . S
C469 C468 1.349 . S
C469 C485 1.349 . S
C470 C468 1.327 . S
C470 C489 1.429 . S
C470 H494 0.950 . S
C471 C488 1.574 . S
C471 C490 1.368 . S
C471 H495 0.949 . S
H472 C476 0.949 . S
C473 C474 1.349 . S
C473 C475 1.327 . S
C473 H496 0.950 . S
C474 C473 1.349 . S
C474 C486 1.349 . S
C475 C473 1.327 . S
C475 C491 1.429 . S
C475 H497 0.950 . S
C476 H472 0.949 . S
C476 C484 1.574 . S
C476 C492 1.368 . S
H477 C485 0.950 . S
H478 C483 0.950 . S
H479 C484 0.949 . S
H480 C486 0.950 . S
H481 C487 0.950 . S
H482 C488 0.949 . S
C483 H478 0.950 . S
C483 C485 1.327 . S
C483 C489 1.429 . S
C484 C476 1.574 . S
C484 H479 0.949 . S
C484 C490 1.368 . S
C485 C469 1.349 . S
C485 H477 0.950 . S
C485 C483 1.327 . S
C486 C474 1.349 . S
C486 H480 0.950 . S
C486 C487 1.327 . S
C487 H481 0.950 . S
C487 C486 1.327 . S
C487 C491 1.429 . S
C488 C471 1.574 . S
C488 H482 0.949 . S
C488 C492 1.368 . S
C489 C470 1.429 . S
C489 C483 1.429 . S
C489 C490 1.523 . S
C490 C471 1.368 . S
C490 C484 1.368 . S
C490 C489 1.523 . S
C491 C475 1.429 . S
C491 C487 1.429 . S
C491 C492 1.523 . S
C492 C476 1.368 . S
C492 C488 1.368 . S
C492 C491 1.523 . S
H493 C468 0.950 . S
H494 C470 0.950 . S
H495 C471 0.949 . S
H496 C473 0.950 . S
H497 C475 0.950 . S
C498 C499 1.349 . S
C498 C500 1.327 . S
C498 H523 0.950 . S
C499 C498 1.349 . S
C499 C515 1.349 . S
C500 C498 1.327 . S
C500 C519 1.429 . S
C500 H524 0.950 . S
C501 C518 1.574 . S
C501 C520 1.368 . S
C501 H525 0.949 . S
H502 C506 0.949 . S
C503 C504 1.349 . S
C503 C505 1.327 . S
C503 H526 0.950 . S
C504 C503 1.349 . S
C504 C516 1.349 . S
C505 C503 1.327 . S
C505 C521 1.429 . S
C505 H527 0.950 . S
C506 H502 0.949 . S
C506 C514 1.574 . S
C506 C522 1.368 . S
H507 C515 0.950 . S
H508 C513 0.950 . S
H509 C514 0.949 . S
H510 C516 0.950 . S
H511 C517 0.950 . S
H512 C518 0.949 . S
C513 H508 0.950 . S
C513 C515 1.327 . S
C513 C519 1.429 . S
C514 C506 1.574 . S
C514 H509 0.949 . S
C514 C520 1.368 . S
C515 C499 1.349 . S
C515 H507 0.950 . S
C515 C513 1.327 . S
C516 C504 1.349 . S
C516 H510 0.950 . S
C516 C517 1.327 . S
C517 H511 0.950 . S
C517 C516 1.327 . S
C517 C521 1.429 . S
C518 C501 1.574 . S
C518 H512 0.949 . S
C518 C522 1.368 . S
C519 C500 1.429 . S
C519 C513 1.429 . S
C519 C520 1.523 . S
C520 C501 1.368 . S
C520 C514 1.368 . S
C520 C519 1.523 . S
C521 C505 1.429 . S
C521 C517 1.429 . S
C521 C522 1.523 . S
C522 C506 1.368 . S
C522 C518 1.368 . S
C522 C521 1.523 . S
H523 C498 0.950 . S
H524 C500 0.950 . S
H525 C501 0.949 . S
H526 C503 0.950 . S
H527 C505 0.950 . S
C528 C529 1.349 . S
C528 C530 1.327 . S
C528 H553 0.950 . S
C529 C528 1.349 . S
C529 C545 1.349 . S
C530 C528 1.327 . S
C530 C549 1.429 . S
C530 H554 0.950 . S
C531 C548 1.574 . S
C531 C550 1.368 . S
C531 H555 0.949 . S
H532 C536 0.916 1_545 S
C533 C534 1.349 . S
C533 C535 1.327 . S
C533 H556 0.950 . S
C534 C533 1.349 . S
C534 C546 1.349 1_565 S
C535 C533 1.327 . S
C535 C551 1.429 . S
C535 H557 0.950 . S
C536 H532 0.916 1_565 S
C536 C544 1.574 1_556 S
C536 C552 1.368 . S
H537 C545 0.950 . S
H538 C543 0.950 . S
H539 C544 0.949 . S
H540 C546 0.950 . S
H541 C547 0.950 1_545 S
H542 C548 0.949 . S
C543 H538 0.950 . S
C543 C545 1.327 . S
C543 C549 1.429 . S
C544 C536 1.574 1_554 S
C544 H539 0.949 . S
C544 C550 1.368 1_554 S
C545 C529 1.349 . S
C545 H537 0.950 . S
C545 C543 1.327 . S
C546 C534 1.349 1_545 S
C546 H540 0.950 . S
C546 C547 1.327 1_545 S
C547 H541 0.950 1_565 S
C547 C546 1.327 1_565 S
C547 C551 1.429 . S
C548 C531 1.574 . S
C548 H542 0.949 . S
C548 C552 1.368 . S
C549 C530 1.429 . S
C549 C543 1.429 . S
C549 C550 1.523 1_554 S
C550 C531 1.368 . S
C550 C544 1.368 1_556 S
C550 C549 1.523 1_556 S
C551 C535 1.429 . S
C551 C547 1.429 . S
C551 C552 1.523 . S
C552 C536 1.368 . S
C552 C548 1.368 . S
C552 C551 1.523 . S
H553 C528 0.950 . S
H554 C530 0.950 . S
H555 C531 0.949 . S
H556 C533 0.950 . S
H557 C535 0.950 . S
C558 C559 1.349 . S
C558 C560 1.327 . S
C558 H583 0.950 . S
C559 C558 1.349 . S
C559 C575 1.349 . S
C560 C558 1.327 . S
C560 C579 1.429 . S
C560 H584 0.950 . S
C561 C578 1.574 . S
C561 C580 1.368 . S
C561 H585 0.949 . S
H562 C566 0.949 . S
C563 C564 1.349 . S
C563 C565 1.327 . S
C563 H586 0.950 . S
C564 C563 1.349 . S
C564 C576 1.349 . S
C565 C563 1.327 . S
C565 C581 1.429 . S
C565 H587 0.950 . S
C566 H562 0.949 . S
C566 C574 1.574 . S
C566 C582 1.368 . S
H567 C575 0.950 . S
H568 C573 0.950 . S
H569 C574 0.949 1_554 S
H570 C576 0.950 . S
H571 C577 0.950 . S
H572 C578 0.949 . S
C573 H568 0.950 . S
C573 C575 1.327 . S
C573 C579 1.429 . S
C574 C566 1.574 . S
C574 H569 0.949 1_556 S
C574 C580 1.368 . S
C575 C559 1.349 . S
C575 H567 0.950 . S
C575 C573 1.327 . S
C576 C564 1.349 . S
C576 H570 0.950 . S
C576 C577 1.327 . S
C577 H571 0.950 . S
C577 C576 1.327 . S
C577 C581 1.429 . S
C578 C561 1.574 . S
C578 H572 0.949 . S
C578 C582 1.368 . S
C579 C560 1.429 . S
C579 C573 1.429 . S
C579 C580 1.523 1_554 S
C580 C561 1.368 . S
C580 C574 1.368 . S
C580 C579 1.523 1_556 S
C581 C565 1.429 . S
C581 C577 1.429 . S
C581 C582 1.523 . S
C582 C566 1.368 . S
C582 C578 1.368 . S
C582 C581 1.523 . S
H583 C558 0.950 . S
H584 C560 0.950 . S
H585 C561 0.949 . S
H586 C563 0.950 . S
H587 C565 0.950 . S
C588 C589 1.349 . S
C588 C590 1.327 . S
C588 H613 0.950 . S
C589 C588 1.349 . S
C589 C605 1.349 . S
C590 C588 1.327 . S
C590 C609 1.429 . S
C590 H614 0.950 1_554 S
C591 C608 1.574 1_554 S
C591 C610 1.368 1_554 S
C591 H615 0.949 . S
H592 C596 0.949 . S
C593 C594 1.349 . S
C593 C595 1.327 . S
C593 H616 0.950 . S
C594 C593 1.349 . S
C594 C606 1.349 . S
C595 C593 1.327 . S
C595 C611 1.429 . S
C595 H617 0.950 . S
C596 H592 0.949 . S
C596 C604 1.574 . S
C596 C612 1.368 . S
H597 C605 0.950 . S
H598 C603 0.950 . S
H599 C604 0.949 . S
H600 C606 0.950 . S
H601 C607 0.950 . S
H602 C608 0.949 . S
C603 H598 0.950 . S
C603 C605 1.327 . S
C603 C609 1.429 . S
C604 C596 1.574 . S
C604 H599 0.949 . S
C604 C610 1.368 . S
C605 C589 1.349 . S
C605 H597 0.950 . S
C605 C603 1.327 . S
C606 C594 1.349 . S
C606 H600 0.950 . S
C606 C607 1.327 . S
C607 H601 0.950 . S
C607 C606 1.327 . S
C607 C611 1.429 . S
C608 C591 1.574 1_556 S
C608 H602 0.949 . S
C608 C612 1.368 . S
C609 C590 1.429 . S
C609 C603 1.429 . S
C609 C610 1.523 1_554 S
C610 C591 1.368 1_556 S
C610 C604 1.368 . S
C610 C609 1.523 1_556 S
C611 C595 1.429 . S
C611 C607 1.429 . S
C611 C612 1.523 . S
C612 C596 1.368 . S
C612 C608 1.368 . S
C612 C611 1.523 . S
H613 C588 0.950 . S
H614 C590 0.950 1_556 S
H615 C591 0.949 . S
H616 C593 0.950 . S
H617 C595 0.950 . S
C618 C619 1.349 . S
C618 C620 1.327 . S
C618 H643 0.950 . S
C619 C618 1.349 . S
C619 C635 1.349 . S
C620 C618 1.327 . S
C620 C639 1.429 . S
C620 H644 0.950 . S
C621 C638 1.574 . S
C621 C640 1.368 . S
C621 H645 0.949 . S
H622 C626 0.949 . S
C623 C624 1.349 . S
C623 C625 1.327 . S
C623 H646 0.950 . S
C624 C623 1.349 . S
C624 C636 1.349 . S
C625 C623 1.327 . S
C625 C641 1.429 . S
C625 H647 0.950 . S
C626 H622 0.949 . S
C626 C634 1.574 1_556 S
C626 C642 1.368 . S
H627 C635 0.950 . S
H628 C633 0.950 1_556 S
H629 C634 0.949 . S
H630 C636 0.950 1_455 S
H631 C637 0.950 . S
H632 C638 0.949 . S
C633 H628 0.950 1_554 S
C633 C635 1.327 . S
C633 C639 1.429 . S
C634 C626 1.574 1_554 S
C634 H629 0.949 . S
C634 C640 1.368 1_554 S
C635 C619 1.349 . S
C635 H627 0.950 . S
C635 C633 1.327 . S
C636 C624 1.349 . S
C636 H630 0.950 1_655 S
C636 C637 1.327 . S
C637 H631 0.950 . S
C637 C636 1.327 . S
C637 C641 1.429 . S
C638 C621 1.574 . S
C638 H632 0.949 . S
C638 C642 1.368 . S
C639 C620 1.429 . S
C639 C633 1.429 . S
C639 C640 1.523 1_554 S
C640 C621 1.368 . S
C640 C634 1.368 1_556 S
C640 C639 1.523 1_556 S
C641 C625 1.429 . S
C641 C637 1.429 . S
C641 C642 1.523 . S
C642 C626 1.368 . S
C642 C638 1.368 . S
C642 C641 1.523 . S
H643 C618 0.950 . S
H644 C620 0.950 . S
H645 C621 0.949 . S
H646 C623 0.950 . S
H647 C625 0.950 . S
C648 C649 1.349 . S
C648 C650 1.327 . S
C648 H673 0.950 . S
C649 C648 1.349 . S
C649 C665 1.349 . S
C650 C648 1.327 . S
C650 C669 1.429 . S
C650 H674 0.950 . S
C651 C668 1.574 . S
C651 C670 1.368 . S
C651 H675 0.949 . S
H652 C656 0.949 . S
C653 C654 1.347 1_455 S
C653 C655 1.327 . S
C653 H676 0.950 . S
C654 C653 1.347 1_655 S
C654 C666 1.349 . S
C655 C653 1.327 . S
C655 C671 1.429 . S
C655 H677 0.950 . S
C656 H652 0.949 . S
C656 C664 1.574 . S
C656 C672 1.368 . S
H657 C665 0.950 . S
H658 C663 0.950 . S
H659 C664 0.949 . S
H660 C666 0.950 . S
H661 C667 0.947 1_655 S
H662 C668 0.949 . S
C663 H658 0.950 . S
C663 C665 1.327 . S
C663 C669 1.429 . S
C664 C656 1.574 . S
C664 H659 0.949 . S
C664 C670 1.368 . S
C665 C649 1.349 . S
C665 H657 0.950 . S
C665 C663 1.327 . S
C666 C654 1.349 . S
C666 H660 0.950 . S
C666 C667 1.327 1_655 S
C667 H661 0.947 1_455 S
C667 C666 1.327 1_455 S
C667 C671 1.429 . S
C668 C651 1.574 . S
C668 H662 0.949 . S
C668 C672 1.368 . S
C669 C650 1.429 . S
C669 C663 1.429 . S
C669 C670 1.523 . S
C670 C651 1.368 . S
C670 C664 1.368 . S
C670 C669 1.523 . S
C671 C655 1.429 . S
C671 C667 1.429 . S
C671 C672 1.523 . S
C672 C656 1.368 . S
C672 C668 1.368 . S
C672 C671 1.523 . S
H673 C648 0.950 . S
H674 C650 0.950 . S
H675 C651 0.949 . S
H676 C653 0.950 . S
H677 C655 0.950 . S
C678 C679 1.349 . S
C678 C680 1.327 . S
C678 H703 0.950 . S
C679 C678 1.349 . S
C679 C695 1.349 . S
C680 C678 1.327 . S
C680 C699 1.429 . S
C680 H704 0.950 . S
C681 C698 1.574 . S
C681 C700 1.368 . S
C681 H705 0.949 . S
H682 C686 0.949 . S
C683 C684 1.353 . S
C683 C685 1.327 1_565 S
C683 H706 0.950 . S
C684 C683 1.353 . S
C684 C696 1.339 1_565 S
C685 C683 1.327 1_545 S
C685 C701 1.429 . S
C685 H707 0.950 1_545 S
C686 H682 0.949 . S
C686 C694 1.574 . S
C686 C702 1.368 . S
H687 C695 0.950 . S
H688 C693 0.950 . S
H689 C694 0.949 . S
H690 C696 0.950 . S
H691 C697 0.950 . S
H692 C698 0.949 . S
C693 H688 0.950 . S
C693 C695 1.327 . S
C693 C699 1.429 . S
C694 C686 1.574 . S
C694 H689 0.949 . S
C694 C700 1.368 . S
C695 C679 1.349 . S
C695 H687 0.950 . S
C695 C693 1.327 . S
C696 C684 1.339 1_545 S
C696 H690 0.950 . S
C696 C697 1.327 . S
C697 H691 0.950 . S
C697 C696 1.327 . S
C697 C701 1.429 . S
C698 C681 1.574 . S
C698 H692 0.949 . S
C698 C702 1.368 . S
C699 C680 1.429 . S
C699 C693 1.429 . S
C699 C700 1.523 . S
C700 C681 1.368 . S
C700 C694 1.368 . S
C700 C699 1.523 . S
C701 C685 1.429 . S
C701 C697 1.429 . S
C701 C702 1.523 . S
C702 C686 1.368 . S
C702 C698 1.368 . S
C702 C701 1.523 . S
H703 C678 0.950 . S
H704 C680 0.950 . S
H705 C681 0.949 . S
H706 C683 0.950 . S
H707 C685 0.950 1_565 S
C708 C709 1.349 . S
C708 C710 1.327 . S
C708 H733 0.950 . S
C709 C708 1.349 . S
C709 C725 1.349 . S
C710 C708 1.327 . S
C710 C729 1.429 . S
C710 H734 0.950 . S
C711 C728 1.574 . S
C711 C730 1.368 . S
C711 H735 0.949 . S
H712 C716 0.949 . S
C713 C714 1.349 . S
C713 C715 1.327 . S
C713 H736 0.950 . S
C714 C713 1.349 . S
C714 C726 1.349 . S
C715 C713 1.327 . S
C715 C731 1.429 . S
C715 H737 0.950 . S
C716 H712 0.949 . S
C716 C724 1.574 . S
C716 C732 1.368 . S
H717 C725 0.950 . S
H718 C723 0.950 . S
H719 C724 0.949 . S
H720 C726 0.950 . S
H721 C727 0.950 . S
H722 C728 0.949 . S
C723 H718 0.950 . S
C723 C725 1.327 . S
C723 C729 1.429 . S
C724 C716 1.574 . S
C724 H719 0.949 . S
C724 C730 1.368 . S
C725 C709 1.349 . S
C725 H717 0.950 . S
C725 C723 1.327 . S
C726 C714 1.349 . S
C726 H720 0.950 . S
C726 C727 1.327 . S
C727 H721 0.950 . S
C727 C726 1.327 . S
C727 C731 1.429 . S
C728 C711 1.574 . S
C728 H722 0.949 . S
C728 C732 1.368 . S
C729 C710 1.429 . S
C729 C723 1.429 . S
C729 C730 1.523 . S
C730 C711 1.368 . S
C730 C724 1.368 . S
C730 C729 1.523 . S
C731 C715 1.429 . S
C731 C727 1.429 . S
C731 C732 1.523 . S
C732 C716 1.368 . S
C732 C728 1.368 . S
C732 C731 1.523 . S
H733 C708 0.950 . S
H734 C710 0.950 . S
H735 C711 0.949 . S
H736 C713 0.950 . S
H737 C715 0.950 . S
C738 C739 1.349 . S
C738 C740 1.327 . S
C738 H763 0.950 . S
C739 C738 1.349 . S
C739 C755 1.349 . S
C740 C738 1.327 . S
C740 C759 1.429 . S
C740 H764 0.950 . S
C741 C758 1.574 . S
C741 C760 1.368 . S
C741 H765 0.949 . S
H742 C746 0.949 . S
C743 C744 1.349 . S
C743 C745 1.327 . S
C743 H766 0.950 . S
C744 C743 1.349 . S
C744 C756 1.349 . S
C745 C743 1.327 . S
C745 C761 1.429 . S
C745 H767 0.950 . S
C746 H742 0.949 . S
C746 C754 1.574 . S
C746 C762 1.368 . S
H747 C755 0.950 . S
H748 C753 0.950 . S
H749 C754 0.949 . S
H750 C756 0.950 . S
H751 C757 0.950 . S
H752 C758 0.949 . S
C753 H748 0.950 . S
C753 C755 1.327 . S
C753 C759 1.429 . S
C754 C746 1.574 . S
C754 H749 0.949 . S
C754 C760 1.368 . S
C755 C739 1.349 . S
C755 H747 0.950 . S
C755 C753 1.327 . S
C756 C744 1.349 . S
C756 H750 0.950 . S
C756 C757 1.327 . S
C757 H751 0.950 . S
C757 C756 1.327 . S
C757 C761 1.429 . S
C758 C741 1.574 . S
C758 H752 0.949 . S
C758 C762 1.368 . S
C759 C740 1.429 . S
C759 C753 1.429 . S
C759 C760 1.523 . S
C760 C741 1.368 . S
C760 C754 1.368 . S
C760 C759 1.523 . S
C761 C745 1.429 . S
C761 C757 1.429 . S
C761 C762 1.523 . S
C762 C746 1.368 . S
C762 C758 1.368 . S
C762 C761 1.523 . S
H763 C738 0.950 . S
H764 C740 0.950 . S
H765 C741 0.949 . S
H766 C743 0.950 . S
H767 C745 0.950 . S
C768 C769 1.349 . S
C768 C770 1.327 . S
C768 H793 0.950 . S
C769 C768 1.349 . S
C769 C785 1.349 . S
C770 C768 1.327 . S
C770 C789 1.429 . S
C770 H794 0.950 . S
C771 C788 1.574 . S
C771 C790 1.368 1_556 S
C771 H795 0.949 . S
H772 C776 0.927 1_455 S
C773 C774 1.349 1_655 S
C773 C775 1.327 . S
C773 H796 0.950 . S
C774 C773 1.349 1_455 S
C774 C786 1.349 . S
C775 C773 1.327 . S
C775 C791 1.429 . S
C775 H797 0.950 . S
C776 H772 0.927 1_655 S
C776 C784 1.574 . S
C776 C792 1.368 1_554 S
H777 C785 0.950 . S
H778 C783 0.950 . S
H779 C784 0.949 . S
H780 C786 0.950 . S
H781 C787 0.950 . S
H782 C788 0.949 . S
C783 H778 0.950 . S
C783 C785 1.327 . S
C783 C789 1.429 . S
C784 C776 1.574 . S
C784 H779 0.949 . S
C784 C790 1.368 . S
C785 C769 1.349 . S
C785 H777 0.950 . S
C785 C783 1.327 . S
C786 C774 1.349 . S
C786 H780 0.950 . S
C786 C787 1.327 . S
C787 H781 0.950 . S
C787 C786 1.327 . S
C787 C791 1.429 1_455 S
C788 C771 1.574 . S
C788 H782 0.949 . S
C788 C792 1.368 . S
C789 C770 1.429 . S
C789 C783 1.429 . S
C789 C790 1.523 . S
C790 C771 1.368 1_554 S
C790 C784 1.368 . S
C790 C789 1.523 . S
C791 C775 1.429 . S
C791 C787 1.429 1_655 S
C791 C792 1.523 . S
C792 C776 1.368 1_556 S
C792 C788 1.368 . S
C792 C791 1.523 . S
H793 C768 0.950 . S
H794 C770 0.950 . S
H795 C771 0.949 . S
H796 C773 0.950 . S
H797 C775 0.950 . S
C798 C799 1.349 . S
C798 C800 1.327 . S
C798 H823 0.950 . S
C799 C798 1.349 . S
C799 C815 1.349 . S
C800 C798 1.327 . S
C800 C819 1.429 . S
C800 H824 0.950 . S
C801 C818 1.574 1_554 S
C801 C820 1.368 . S
C801 H825 0.949 . S
H802 C806 0.992 . S
C803 C804 1.349 1_565 S
C803 C805 1.327 . S
C803 H826 0.950 . S
C804 C803 1.349 1_545 S
C804 C816 1.349 . S
C805 C803 1.327 . S
C805 C821 1.429 . S
C805 H827 0.950 . S
C806 H802 0.992 . S
C806 C814 1.558 1_546 S
C806 C822 1.338 1_545 S
H807 C815 0.950 . S
H808 C813 0.950 . S
H809 C814 0.946 . S
H810 C816 0.950 . S
H811 C817 0.950 . S
H812 C818 0.949 . S
C813 H808 0.950 . S
C813 C815 1.327 . S
C813 C819 1.429 . S
C814 C806 1.558 1_564 S
C814 H809 0.946 . S
C814 C820 1.368 . S
C815 C799 1.349 . S
C815 H807 0.950 . S
C815 C813 1.327 . S
C816 C804 1.349 . S
C816 H810 0.950 . S
C816 C817 1.327 . S
C817 H811 0.950 . S
C817 C816 1.327 . S
C817 C821 1.429 1_545 S
C818 C801 1.574 1_556 S
C818 H812 0.949 . S
C818 C822 1.368 . S
C819 C800 1.429 . S
C819 C813 1.429 . S
C819 C820 1.523 . S
C820 C801 1.368 . S
C820 C814 1.368 . S
C820 C819 1.523 . S
C821 C805 1.429 . S
C821 C817 1.429 1_565 S
C821 C822 1.523 . S
C822 C806 1.338 1_565 S
C822 C818 1.368 . S
C822 C821 1.523 . S
H823 C798 0.950 . S
H824 C800 0.950 . S
H825 C801 0.949 . S
H826 C803 0.950 . S
H827 C805 0.950 . S
C828 C829 1.349 . S
C828 C830 1.327 . S
C828 H853 0.950 . S
C829 C828 1.349 . S
C829 C845 1.349 . S
C830 C828 1.327 . S
C830 C849 1.429 . S
C830 H854 0.950 . S
C831 C848 1.574 . S
C831 C850 1.368 1_556 S
C831 H855 0.949 . S
H832 C836 0.949 . S
C833 C834 1.349 . S
C833 C835 1.327 . S
C833 H856 0.950 . S
C834 C833 1.349 . S
C834 C846 1.349 . S
C835 C833 1.327 . S
C835 C851 1.429 . S
C835 H857 0.950 . S
C836 H832 0.949 . S
C836 C844 1.574 . S
C836 C852 1.368 1_554 S
H837 C845 0.950 . S
H838 C843 0.950 . S
H839 C844 0.949 . S
H840 C846 0.950 . S
H841 C847 0.950 . S
H842 C848 0.949 . S
C843 H838 0.950 . S
C843 C845 1.327 . S
C843 C849 1.429 . S
C844 C836 1.574 . S
C844 H839 0.949 . S
C844 C850 1.368 . S
C845 C829 1.349 . S
C845 H837 0.950 . S
C845 C843 1.327 . S
C846 C834 1.349 . S
C846 H840 0.950 . S
C846 C847 1.327 . S
C847 H841 0.950 . S
C847 C846 1.327 . S
C847 C851 1.429 . S
C848 C831 1.574 . S
C848 H842 0.949 . S
C848 C852 1.368 . S
C849 C830 1.429 . S
C849 C843 1.429 . S
C849 C850 1.523 . S
C850 C831 1.368 1_554 S
C850 C844 1.368 . S
C850 C849 1.523 . S
C851 C835 1.429 . S
C851 C847 1.429 . S
C851 C852 1.523 . S
C852 C836 1.368 1_556 S
C852 C848 1.368 . S
C852 C851 1.523 . S
H853 C828 0.950 . S
H854 C830 0.950 . S
H855 C831 0.949 . S
H856 C833 0.950 . S
H857 C835 0.950 . S
C858 C859 1.349 . S
C858 C860 1.327 . S
C858 H883 0.950 . S
C859 C858 1.349 . S
C859 C875 1.349 . S
C860 C858 1.327 . S
C860 C879 1.429 . S
C860 H884 0.950 . S
C861 C878 1.574 . S
C861 C880 1.368 . S
C861 H885 0.949 . S
H862 C866 0.949 . S
C863 C864 1.349 . S
C863 C865 1.327 . S
C863 H886 0.950 . S
C864 C863 1.349 . S
C864 C876 1.349 . S
C865 C863 1.327 . S
C865 C881 1.429 . S
C865 H887 0.950 . S
C866 H862 0.949 . S
C866 C874 1.574 . S
C866 C882 1.368 . S
H867 C875 0.950 . S
H868 C873 0.950 . S
H869 C874 0.949 . S
H870 C876 0.950 . S
H871 C877 0.950 . S
H872 C878 0.949 . S
C873 H868 0.950 . S
C873 C875 1.327 . S
C873 C879 1.429 . S
C874 C866 1.574 . S
C874 H869 0.949 . S
C874 C880 1.368 1_556 S
C875 C859 1.349 . S
C875 H867 0.950 . S
C875 C873 1.327 . S
C876 C864 1.349 . S
C876 H870 0.950 . S
C876 C877 1.327 . S
C877 H871 0.950 . S
C877 C876 1.327 . S
C877 C881 1.429 . S
C878 C861 1.574 . S
C878 H872 0.949 . S
C878 C882 1.368 1_554 S
C879 C860 1.429 . S
C879 C873 1.429 . S
C879 C880 1.523 . S
C880 C861 1.368 . S
C880 C874 1.368 1_554 S
C880 C879 1.523 . S
C881 C865 1.429 . S
C881 C877 1.429 . S
C881 C882 1.523 . S
C882 C866 1.368 . S
C882 C878 1.368 1_556 S
C882 C881 1.523 . S
H883 C858 0.950 . S
H884 C860 0.950 . S
H885 C861 0.949 . S
H886 C863 0.950 . S
H887 C865 0.950 . S
C888 C889 1.349 . S
C888 C890 1.327 . S
C888 H913 0.950 . S
C889 C888 1.349 . S
C889 C905 1.349 . S
C890 C888 1.327 . S
C890 C909 1.429 . S
C890 H914 0.950 . S
C891 C908 1.574 . S
C891 C910 1.368 . S
C891 H915 0.949 . S
H892 C896 0.949 . S
C893 C894 1.349 . S
C893 C895 1.327 . S
C893 H916 0.950 . S
C894 C893 1.349 . S
C894 C906 1.349 . S
C895 C893 1.327 . S
C895 C911 1.429 . S
C895 H917 0.950 . S
C896 H892 0.949 . S
C896 C904 1.574 . S
C896 C912 1.368 . S
H897 C905 0.950 . S
H898 C903 0.950 . S
H899 C904 0.949 . S
H900 C906 0.950 . S
H901 C907 0.950 . S
H902 C908 0.949 . S
C903 H898 0.950 . S
C903 C905 1.327 . S
C903 C909 1.429 . S
C904 C896 1.574 . S
C904 H899 0.949 . S
C904 C910 1.368 . S
C905 C889 1.349 . S
C905 H897 0.950 . S
C905 C903 1.327 . S
C906 C894 1.349 . S
C906 H900 0.950 . S
C906 C907 1.327 . S
C907 H901 0.950 . S
C907 C906 1.327 . S
C907 C911 1.429 . S
C908 C891 1.574 . S
C908 H902 0.949 . S
C908 C912 1.368 . S
C909 C890 1.429 . S
C909 C903 1.429 . S
C909 C910 1.523 . S
C910 C891 1.368 . S
C910 C904 1.368 . S
C910 C909 1.523 . S
C911 C895 1.429 . S
C911 C907 1.429 . S
C911 C912 1.523 . S
C912 C896 1.368 . S
C912 C908 1.368 . S
C912 C911 1.523 . S
H913 C888 0.950 . S
H914 C890 0.950 . S
H915 C891 0.949 . S
H916 C893 0.950 . S
H917 C895 0.950 . S
C918 C919 1.349 . S
C918 C920 1.327 . S
C918 H943 0.950 . S
C919 C918 1.349 . S
C919 C935 1.349 . S
C920 C918 1.327 . S
C920 C939 1.429 . S
C920 H944 0.950 . S
C921 C938 1.574 . S
C921 C940 1.368 . S
C921 H945 0.949 . S
H922 C926 0.949 . S
C923 C924 1.349 . S
C923 C925 1.327 . S
C923 H946 0.950 1_545 S
C924 C923 1.349 . S
C924 C936 1.349 . S
C925 C923 1.327 . S
C925 C941 1.429 . S
C925 H947 0.950 . S
C926 H922 0.949 . S
C926 C934 1.574 . S
C926 C942 1.368 . S
H927 C935 0.950 . S
H928 C933 0.950 . S
H929 C934 0.949 . S
H930 C936 0.950 . S
H931 C937 0.950 . S
H932 C938 0.949 . S
C933 H928 0.950 . S
C933 C935 1.327 . S
C933 C939 1.429 . S
C934 C926 1.574 . S
C934 H929 0.949 . S
C934 C940 1.368 . S
C935 C919 1.349 . S
C935 H927 0.950 . S
C935 C933 1.327 . S
C936 C924 1.349 . S
C936 H930 0.950 . S
C936 C937 1.327 . S
C937 H931 0.950 . S
C937 C936 1.327 . S
C937 C941 1.429 . S
C938 C921 1.574 . S
C938 H932 0.949 . S
C938 C942 1.368 . S
C939 C920 1.429 . S
C939 C933 1.429 . S
C939 C940 1.523 . S
C940 C921 1.368 . S
C940 C934 1.368 . S
C940 C939 1.523 . S
C941 C925 1.429 . S
C941 C937 1.429 . S
C941 C942 1.523 . S
C942 C926 1.368 . S
C942 C938 1.368 . S
C942 C941 1.523 . S
H943 C918 0.950 . S
H944 C920 0.950 . S
H945 C921 0.949 . S
H946 C923 0.950 1_565 S
H947 C925 0.950 . S
C948 C949 1.349 . S
C948 C950 1.327 . S
C948 H973 0.950 . S
C949 C948 1.349 . S
C949 C965 1.349 . S
C950 C948 1.327 . S
C950 C969 1.429 . S
C950 H974 0.950 . S
C951 C968 1.574 . S
C951 C970 1.368 . S
C951 H975 0.949 . S
H952 C956 0.949 . S
C953 C954 1.349 . S
C953 C955 1.327 . S
C953 H976 0.950 . S
C954 C953 1.349 . S
C954 C966 1.349 . S
C955 C953 1.327 . S
C955 C971 1.429 . S
C955 H977 0.950 . S
C956 H952 0.949 . S
C956 C964 1.574 . S
C956 C972 1.368 . S
H957 C965 0.950 . S
H958 C963 0.950 . S
H959 C964 0.949 . S
H960 C966 0.950 . S
H961 C967 0.950 . S
H962 C968 0.949 . S
C963 H958 0.950 . S
C963 C965 1.327 . S
C963 C969 1.429 . S
C964 C956 1.574 . S
C964 H959 0.949 . S
C964 C970 1.368 . S
C965 C949 1.349 . S
C965 H957 0.950 . S
C965 C963 1.327 . S
C966 C954 1.349 . S
C966 H960 0.950 . S
C966 C967 1.327 . S
C967 H961 0.950 . S
C967 C966 1.327 . S
C967 C971 1.429 . S
C968 C951 1.574 . S
C968 H962 0.949 . S
C968 C972 1.368 . S
C969 C950 1.429 . S
C969 C963 1.429 . S
C969 C970 1.523 . S
C970 C951 1.368 . S
C970 C964 1.368 . S
C970 C969 1.523 . S
C971 C955 1.429 . S
C971 C967 1.429 . S
C971 C972 1.523 . S
C972 C956 1.368 . S
C972 C968 1.368 . S
C972 C971 1.523 . S
H973 C948 0.950 . S
H974 C950 0.950 . S
H975 C951 0.949 . S
H976 C953 0.950 . S
H977 C955 0.950 . S
C978 C979 1.349 . S
C978 C980 1.327 . S
C978 H1003 0.950 . S
C979 C978 1.349 . S
C979 C995 1.349 . S
C980 C978 1.327 . S
C980 C999 1.429 . S
C980 H1004 0.950 . S
C981 C998 1.574 . S
C981 C1000 1.368 . S
C981 H1005 0.949 . S
H982 C986 0.949 . S
C983 C984 1.349 . S
C983 C985 1.327 . S
C983 H1006 0.950 . S
C984 C983 1.349 . S
C984 C996 1.349 . S
C985 C983 1.327 . S
C985 C1001 1.429 . S
C985 H1007 0.950 . S
C986 H982 0.949 . S
C986 C994 1.574 . S
C986 C1002 1.368 . S
H987 C995 0.950 . S
H988 C993 0.950 . S
H989 C994 0.949 . S
H990 C996 0.950 . S
H991 C997 0.950 . S
H992 C998 0.949 . S
C993 H988 0.950 . S
C993 C995 1.327 . S
C993 C999 1.429 . S
C994 C986 1.574 . S
C994 H989 0.949 . S
C994 C1000 1.368 . S
C995 C979 1.349 . S
C995 H987 0.950 . S
C995 C993 1.327 . S
C996 C984 1.349 . S
C996 H990 0.950 . S
C996 C997 1.327 . S
C997 H991 0.950 . S
C997 C996 1.327 . S
C997 C1001 1.429 . S
C998 C981 1.574 . S
C998 H992 0.949 . S
C998 C1002 1.368 . S
C999 C980 1.429 . S
C999 C993 1.429 . S
C999 C1000 1.523 . S
C1000 C981 1.368 . S
C1000 C994 1.368 . S
C1000 C999 1.523 . S
C1001 C985 1.429 . S
C1001 C997 1.429 . S
C1001 C1002 1.523 . S
C1002 C986 1.368 . S
C1002 C998 1.368 . S
C1002 C1001 1.523 . S
H1003 C978 0.950 . S
H1004 C980 0.950 . S
H1005 C981 0.949 . S
H1006 C983 0.950 . S
H1007 C985 0.950 . S
C1008 C1009 1.349 . S
C1008 C1010 1.327 . S
C1008 H1033 0.950 . S
C1009 C1008 1.349 . S
C1009 C1025 1.349 . S
C1010 C1008 1.327 . S
C1010 C1029 1.429 . S
C1010 H1034 0.950 . S
C1011 C1028 1.574 . S
C1011 C1030 1.368 . S
C1011 H1035 0.949 . S
H1012 C1016 0.949 . S
C1013 C1014 1.349 . S
C1013 C1015 1.327 . S
C1013 H1036 0.950 . S
C1014 C1013 1.349 . S
C1014 C1026 1.349 . S
C1015 C1013 1.327 . S
C1015 C1031 1.429 . S
C1015 H1037 0.950 . S
C1016 H1012 0.949 . S
C1016 C1024 1.574 . S
C1016 C1032 1.368 . S
H1017 C1025 0.950 . S
H1018 C1023 0.950 . S
H1019 C1024 0.949 . S
H1020 C1026 0.950 . S
H1021 C1027 0.950 . S
H1022 C1028 0.949 . S
C1023 H1018 0.950 . S
C1023 C1025 1.327 . S
C1023 C1029 1.429 . S
C1024 C1016 1.574 . S
C1024 H1019 0.949 . S
C1024 C1030 1.368 . S
C1025 C1009 1.349 . S
C1025 H1017 0.950 . S
C1025 C1023 1.327 . S
C1026 C1014 1.349 . S
C1026 H1020 0.950 . S
C1026 C1027 1.327 . S
C1027 H1021 0.950 . S
C1027 C1026 1.327 . S
C1027 C1031 1.429 . S
C1028 C1011 1.574 . S
C1028 H1022 0.949 . S
C1028 C1032 1.368 . S
C1029 C1010 1.429 . S
C1029 C1023 1.429 . S
C1029 C1030 1.523 . S
C1030 C1011 1.368 . S
C1030 C1024 1.368 . S
C1030 C1029 1.523 . S
C1031 C1015 1.429 . S
C1031 C1027 1.429 . S
C1031 C1032 1.523 . S
C1032 C1016 1.368 . S
C1032 C1028 1.368 . S
C1032 C1031 1.523 . S
H1033 C1008 0.950 . S
H1034 C1010 0.950 . S
H1035 C1011 0.949 . S
H1036 C1013 0.950 . S
H1037 C1015 0.950 . S
C1038 C1039 1.349 . S
C1038 C1040 1.327 . S
C1038 H1063 0.950 . S
C1039 C1038 1.349 . S
C1039 C1055 1.349 . S
C1040 C1038 1.327 . S
C1040 C1059 1.429 . S
C1040 H1064 0.950 . S
C1041 C1058 1.574 . S
C1041 C1060 1.368 . S
C1041 H1065 0.949 . S
H1042 C1046 0.949 . S
C1043 C1044 1.373 . S
C1043 C1045 1.333 . S
C1043 H1066 0.920 1_565 S
C1044 C1043 1.373 . S
C1044 C1056 1.349 . S
C1045 C1043 1.333 . S
C1045 C1061 1.429 . S
C1045 H1067 0.950 1_565 S
C1046 H1042 0.949 . S
C1046 C1054 1.574 . S
C1046 C1062 1.368 . S
H1047 C1055 0.950 . S
H1048 C1053 0.950 . S
H1049 C1054 0.949 . S
H1050 C1056 0.950 . S
H1051 C1057 0.950 . S
H1052 C1058 0.949 1_545 S
C1053 H1048 0.950 . S
C1053 C1055 1.327 . S
C1053 C1059 1.429 . S
C1054 C1046 1.574 . S
C1054 H1049 0.949 . S
C1054 C1060 1.368 . S
C1055 C1039 1.349 . S
C1055 H1047 0.950 . S
C1055 C1053 1.327 . S
C1056 C1044 1.349 . S
C1056 H1050 0.950 . S
C1056 C1057 1.327 . S
C1057 H1051 0.950 . S
C1057 C1056 1.327 . S
C1057 C1061 1.429 . S
C1058 C1041 1.574 . S
C1058 H1052 0.949 1_565 S
C1058 C1062 1.368 . S
C1059 C1040 1.429 . S
C1059 C1053 1.429 . S
C1059 C1060 1.523 . S
C1060 C1041 1.368 . S
C1060 C1054 1.368 . S
C1060 C1059 1.523 . S
C1061 C1045 1.429 . S
C1061 C1057 1.429 . S
C1061 C1062 1.523 . S
C1062 C1046 1.368 . S
C1062 C1058 1.368 . S
C1062 C1061 1.523 . S
H1063 C1038 0.950 . S
H1064 C1040 0.950 . S
H1065 C1041 0.949 . S
H1066 C1043 0.920 1_545 S
H1067 C1045 0.950 1_545 S
C1068 C1069 1.349 . S
C1068 C1070 1.327 . S
C1068 H1093 0.950 . S
C1069 C1068 1.349 . S
C1069 C1085 1.349 . S
C1070 C1068 1.327 . S
C1070 C1089 1.429 . S
C1070 H1094 0.950 . S
C1071 C1088 1.574 . S
C1071 C1090 1.368 . S
C1071 H1095 0.949 . S
H1072 C1076 0.949 . S
C1073 C1074 1.349 . S
C1073 C1075 1.327 . S
C1073 H1096 0.950 . S
C1074 C1073 1.349 . S
C1074 C1086 1.349 . S
C1075 C1073 1.327 . S
C1075 C1091 1.429 . S
C1075 H1097 0.950 . S
C1076 H1072 0.949 . S
C1076 C1084 1.574 . S
C1076 C1092 1.368 . S
H1077 C1085 0.950 . S
H1078 C1083 0.950 . S
H1079 C1084 0.949 . S
H1080 C1086 0.950 . S
H1081 C1087 0.950 . S
H1082 C1088 0.949 . S
C1083 H1078 0.950 . S
C1083 C1085 1.327 . S
C1083 C1089 1.429 . S
C1084 C1076 1.574 . S
C1084 H1079 0.949 . S
C1084 C1090 1.368 . S
C1085 C1069 1.349 . S
C1085 H1077 0.950 . S
C1085 C1083 1.327 . S
C1086 C1074 1.349 . S
C1086 H1080 0.950 . S
C1086 C1087 1.327 . S
C1087 H1081 0.950 . S
C1087 C1086 1.327 . S
C1087 C1091 1.429 . S
C1088 C1071 1.574 . S
C1088 H1082 0.949 . S
C1088 C1092 1.368 . S
C1089 C1070 1.429 . S
C1089 C1083 1.429 . S
C1089 C1090 1.523 . S
C1090 C1071 1.368 . S
C1090 C1084 1.368 . S
C1090 C1089 1.523 . S
C1091 C1075 1.429 . S
C1091 C1087 1.429 . S
C1091 C1092 1.523 . S
C1092 C1076 1.368 . S
C1092 C1088 1.368 . S
C1092 C1091 1.523 . S
H1093 C1068 0.950 . S
H1094 C1070 0.950 . S
H1095 C1071 0.949 . S
H1096 C1073 0.950 . S
H1097 C1075 0.950 . S
C1098 C1099 1.349 . S
C1098 C1100 1.327 . S
C1098 H1123 0.950 . S
C1099 C1098 1.349 . S
C1099 C1115 1.349 . S
C1100 C1098 1.327 . S
C1100 C1119 1.429 . S
C1100 H1124 0.950 . S
C1101 C1118 1.574 . S
C1101 C1120 1.368 . S
C1101 H1125 0.949 . S
H1102 C1106 0.949 . S
C1103 C1104 1.349 . S
C1103 C1105 1.327 . S
C1103 H1126 0.950 . S
C1104 C1103 1.349 . S
C1104 C1116 1.349 . S
C1105 C1103 1.327 . S
C1105 C1121 1.429 . S
C1105 H1127 0.950 . S
C1106 H1102 0.949 . S
C1106 C1114 1.574 . S
C1106 C1122 1.368 . S
H1107 C1115 0.950 . S
H1108 C1113 0.950 . S
H1109 C1114 0.949 . S
H1110 C1116 0.950 . S
H1111 C1117 0.950 . S
H1112 C1118 0.949 . S
C1113 H1108 0.950 . S
C1113 C1115 1.327 . S
C1113 C1119 1.429 . S
C1114 C1106 1.574 . S
C1114 H1109 0.949 . S
C1114 C1120 1.368 . S
C1115 C1099 1.349 . S
C1115 H1107 0.950 . S
C1115 C1113 1.327 . S
C1116 C1104 1.349 . S
C1116 H1110 0.950 . S
C1116 C1117 1.327 . S
C1117 H1111 0.950 . S
C1117 C1116 1.327 . S
C1117 C1121 1.429 . S
C1118 C1101 1.574 . S
C1118 H1112 0.949 . S
C1118 C1122 1.368 . S
C1119 C1100 1.429 . S
C1119 C1113 1.429 . S
C1119 C1120 1.523 . S
C1120 C1101 1.368 . S
C1120 C1114 1.368 . S
C1120 C1119 1.523 . S
C1121 C1105 1.429 . S
C1121 C1117 1.429 . S
C1121 C1122 1.523 . S
C1122 C1106 1.368 . S
C1122 C1118 1.368 . S
C1122 C1121 1.523 . S
H1123 C1098 0.950 . S
H1124 C1100 0.950 . S
H1125 C1101 0.949 . S
H1126 C1103 0.950 . S
H1127 C1105 0.950 . S
C409 C61 1.715 . S
C414 C146 1.756 . S
C444 C230 1.784 . S
C439 C70 1.756 . S
C474 C296 1.789 . S
C469 C43 1.858 . S
C504 C380 1.768 . S
C499 C52 1.837 . S
C534 C135 1.756 1_565 S
C529 C25 1.719 . S
C559 C34 1.751 . S
C564 C219 1.784 . S
C589 C7 1.863 . S
C594 C307 1.789 . S
C619 C16 1.842 . S
C624 C391 1.769 . S
C654 C142 0.459 . S
C649 C50 0.410 . S
C684 C226 0.464 . S
C679 C59 0.379 . S
C714 C298 0.492 . S
C709 C67 0.335 . S
C739 C41 0.379 . S
C744 C382 0.490 . S
C769 C14 0.393 . S
C774 C130 0.457 . S
C804 C214 0.448 . S
C799 C23 0.360 . S
C834 C310 0.492 . S
C829 C31 0.347 . S
C859 C5 0.357 . S
C864 C394 0.490 . S
C889 C49 1.899 . S
C894 C139 1.962 . S
C919 C58 1.862 . S
C924 C223 1.925 . S
C954 C303 1.875 . S
C949 C68 1.750 . S
C984 C387 1.903 . S
C979 C40 1.774 . S
C1009 C13 1.902 . S
C1014 C128 1.961 . S
C1044 C212 1.924 . S
C1039 C22 1.864 . S
C1074 C314 1.875 . S
C1069 C32 1.744 . S
C1099 C4 1.777 . S
C1104 C398 1.903 . S
