# Generated by pormake.
# Topology zzz, (3,6)-cn, num edge types: 1
# Building blocks:
#     Node 0, Type 0, BuildingBlock: MIDCAF_clean_linker_0, # of connection points: 3
#     Node 1, Type 0, BuildingBlock: MIDCAF_clean_linker_0, # of connection points: 3
#     Node 2, Type 0, BuildingBlock: MIDCAF_clean_linker_0, # of connection points: 3
#     Node 3, Type 0, BuildingBlock: MIDCAF_clean_linker_0, # of connection points: 3
#     Node 4, Type 0, BuildingBlock: MIDCAF_clean_linker_0, # of connection points: 3
#     Node 5, Type 0, BuildingBlock: MIDCAF_clean_linker_0, # of connection points: 3
#     Node 6, Type 0, BuildingBlock: MIDCAF_clean_linker_0, # of connection points: 3
#     Node 7, Type 0, BuildingBlock: MIDCAF_clean_linker_0, # of connection points: 3
#     Node 8, Type 1, BuildingBlock: BETDAH_clean_sbu_0, # of connection points: 6
#     Node 9, Type 1, BuildingBlock: BETDAH_clean_sbu_0, # of connection points: 6
#     Node 10, Type 1, BuildingBlock: BETDAH_clean_sbu_0, # of connection points: 6
#     Node 11, Type 1, BuildingBlock: BETDAH_clean_sbu_0, # of connection points: 6
#     Edge 12, Type (0, 1), BuildingBlock: TEMPAE_clean_linker_10, # of connection points: 2
#     Edge 13, Type (0, 1), BuildingBlock: TEMPAE_clean_linker_10, # of connection points: 2
#     Edge 14, Type (0, 1), BuildingBlock: TEMPAE_clean_linker_10, # of connection points: 2
#     Edge 15, Type (0, 1), BuildingBlock: TEMPAE_clean_linker_10, # of connection points: 2
#     Edge 16, Type (0, 1), BuildingBlock: TEMPAE_clean_linker_10, # of connection points: 2
#     Edge 17, Type (0, 1), BuildingBlock: TEMPAE_clean_linker_10, # of connection points: 2
#     Edge 18, Type (0, 1), BuildingBlock: TEMPAE_clean_linker_10, # of connection points: 2
#     Edge 19, Type (0, 1), BuildingBlock: TEMPAE_clean_linker_10, # of connection points: 2
#     Edge 20, Type (0, 1), BuildingBlock: TEMPAE_clean_linker_10, # of connection points: 2
#     Edge 21, Type (0, 1), BuildingBlock: TEMPAE_clean_linker_10, # of connection points: 2
#     Edge 22, Type (0, 1), BuildingBlock: TEMPAE_clean_linker_10, # of connection points: 2
#     Edge 23, Type (0, 1), BuildingBlock: TEMPAE_clean_linker_10, # of connection points: 2
#     Edge 24, Type (0, 1), BuildingBlock: TEMPAE_clean_linker_10, # of connection points: 2
#     Edge 25, Type (0, 1), BuildingBlock: TEMPAE_clean_linker_10, # of connection points: 2
#     Edge 26, Type (0, 1), BuildingBlock: TEMPAE_clean_linker_10, # of connection points: 2
#     Edge 27, Type (0, 1), BuildingBlock: TEMPAE_clean_linker_10, # of connection points: 2
#     Edge 28, Type (0, 1), BuildingBlock: TEMPAE_clean_linker_10, # of connection points: 2
#     Edge 29, Type (0, 1), BuildingBlock: TEMPAE_clean_linker_10, # of connection points: 2
#     Edge 30, Type (0, 1), BuildingBlock: TEMPAE_clean_linker_10, # of connection points: 2
#     Edge 31, Type (0, 1), BuildingBlock: TEMPAE_clean_linker_10, # of connection points: 2
#     Edge 32, Type (0, 1), BuildingBlock: TEMPAE_clean_linker_10, # of connection points: 2
#     Edge 33, Type (0, 1), BuildingBlock: TEMPAE_clean_linker_10, # of connection points: 2
#     Edge 34, Type (0, 1), BuildingBlock: TEMPAE_clean_linker_10, # of connection points: 2
#     Edge 35, Type (0, 1), BuildingBlock: TEMPAE_clean_linker_10, # of connection points: 2
# Relax obj value: 0.446
# Max RMSD: 0.274
# Mean RMSD: 0.256
data_MOF--net-zzz--node1-BETDAH_clean_sbu_0--node2-MIDCAF_clean_linker_0--edge1-TEMPAE_clean_linker_10
_symmetry_space_group_name_H-M    P1
_symmetry_Int_Tables_number       1
_symmetry_cell_setting            triclinic
loop_
_symmetry_equiv_pos_as_xyz
'x, y, z'
_cell_length_a     59.721681
_cell_length_b     59.768274
_cell_length_c     18.262332
_cell_angle_alpha  90.004906
_cell_angle_beta   89.935315
_cell_angle_gamma 89.983253
loop_
_atom_site_label
_atom_site_type_symbol
_atom_site_fract_x
_atom_site_fract_y
_atom_site_fract_z
_atom_type_partial_charge
C0 C 0.78163 0.53177 0.46627 0.0
C1 C 0.79986 0.51754 0.45002 0.0
C2 C 0.79826 0.50358 0.38833 0.0
C3 C 0.7796 0.50445 0.34251 0.0
H4 H 0.68016 0.56164 0.24099 0.0
H5 H 0.64218 0.55941 0.19317 0.0
H6 H 0.64111 0.48853 0.23894 0.0
H7 H 0.67936 0.49094 0.28603 0.0
H8 H 0.71503 0.5021 0.06105 0.0
H9 H 0.73107 0.49199 0.9418 0.0
H10 H 0.79078 0.52934 0.99462 0.0
H11 H 0.77517 0.53879 0.11394 0.0
H12 H 0.74927 0.54411 0.4325 0.0
H13 H 0.78223 0.54267 0.51359 0.0
H14 H 0.81197 0.49264 0.37316 0.0
H15 H 0.77948 0.494 0.29401 0.0
N16 N 0.72201 0.52419 0.31482 0.0
N17 N 0.71442 0.52516 0.1881 0.0
N18 N 0.75129 0.52193 0.22852 0.0
C19 C 0.70705 0.52581 0.25825 0.0
C20 C 0.73644 0.52341 0.17284 0.0
C21 C 0.7444 0.52228 0.29945 0.0
C22 C 0.68259 0.52654 0.26821 0.0
C23 C 0.67127 0.54588 0.24511 0.0
C24 C 0.64951 0.54451 0.21692 0.0
C25 C 0.63871 0.52368 0.21062 0.0
C26 C 0.64908 0.50478 0.24184 0.0
C27 C 0.67084 0.50621 0.27031 0.0
C28 C 0.74406 0.52098 0.09669 0.0
C29 C 0.73132 0.50863 0.04609 0.0
C30 C 0.74038 0.50293 0.97796 0.0
C31 C 0.76198 0.51009 0.95897 0.0
C32 C 0.7739 0.52395 0.00741 0.0
C33 C 0.76512 0.52914 0.076 0.0
C34 C 0.76177 0.51918 0.35688 0.0
C35 C 0.76265 0.53244 0.4204 0.0
C36 C 1.00651 0.78587 0.4258 0.0
C37 C 0.0216 0.79629 0.47447 0.0
C38 C 0.04236 0.78594 0.48727 0.0
C39 C 0.04872 0.76694 0.44788 0.0
H40 H 1.00084 0.69668 0.24904 0.0
H41 H 0.98753 0.66304 0.18461 0.0
H42 H 0.05614 0.6425 0.15028 0.0
H43 H 0.06906 0.67514 0.21533 0.0
H44 H 0.08772 0.72685 0.11531 0.0
H45 H 0.10958 0.75103 0.03483 0.0
H46 H 0.12373 0.79478 0.21708 0.0
H47 H 0.10203 0.77075 0.29744 0.0
H48 H 1.00174 0.76003 0.34491 0.0
H49 H 0.99039 0.79342 0.41463 0.0
H50 H 0.05419 0.79316 0.52548 0.0
H51 H 0.06546 0.76035 0.45559 0.0
N52 N 0.03464 0.72306 0.31619 0.0
N53 N 0.06431 0.71796 0.23251 0.0
N54 N 0.06384 0.74942 0.30773 0.0
C55 C 0.04504 0.7104 0.26354 0.0
C56 C 0.07379 0.7374 0.25408 0.0
C57 C 0.04444 0.74256 0.33914 0.0
C58 C 0.036 0.68869 0.23685 0.0
C59 C 0.01294 0.68459 0.22931 0.0
C60 C 1.00536 0.66543 0.19172 0.0
C61 C 0.02072 0.64993 0.16176 0.0
C62 C 0.04369 0.65366 0.17321 0.0
C63 C 0.05116 0.67264 0.21013 0.0
C64 C 0.09254 0.74733 0.21222 0.0
C65 C 0.09625 0.74112 0.13891 0.0
C66 C 0.10881 0.75493 0.09272 0.0
C67 C 0.11799 0.77498 0.11938 0.0
C68 C 0.1169 0.77943 0.19485 0.0
C69 C 0.1042 0.76577 0.24083 0.0
C70 C 0.03445 0.75756 0.39502 0.0
C71 C 0.01291 0.76665 0.38627 0.0
C72 C 0.70347 0.01222 0.415 0.0
C73 C 0.70206 0.99904 0.47854 0.0
C74 C 0.72015 0.98468 0.4951 0.0
C75 C 0.73886 0.98322 0.44808 0.0
H76 H 0.82457 0.01905 0.31664 0.0
H77 H 0.86275 0.01895 0.26811 0.0
H78 H 0.8562 0.94874 0.21653 0.0
H79 H 0.81834 0.94898 0.26607 0.0
H80 H 0.7891 0.01286 0.09054 0.0
H81 H 0.77485 0.02407 0.97003 0.0
H82 H 0.71257 0.99021 0.01648 0.0
H83 H 0.72641 0.97975 0.13703 0.0
H84 H 0.72186 0.02059 0.31862 0.0
H85 H 0.68985 0.02322 0.39958 0.0
H86 H 0.71968 0.97436 0.54381 0.0
H87 H 0.75219 0.97158 0.46089 0.0
N88 N 0.77921 0.98867 0.34171 0.0
N89 N 0.78739 0.98871 0.21531 0.0
N90 N 0.75062 0.99401 0.25456 0.0
C91 C 0.79433 0.98671 0.28556 0.0
C92 C 0.76565 0.99219 0.19937 0.0
C93 C 0.75707 0.99235 0.32573 0.0
C94 C 0.81861 0.98395 0.29612 0.0
C95 C 0.83188 1.0033 0.29942 0.0
C96 C 0.85358 1.00332 0.27002 0.0
C97 C 0.86239 0.98397 0.23658 0.0
C98 C 0.85009 0.96395 0.24188 0.0
C99 C 0.8284 0.96398 0.27114 0.0
C100 C 0.75866 0.9957 0.12307 0.0
C101 C 0.77257 1.00739 0.074 0.0
C102 C 0.76453 0.01371 1.00513 0.0
C103 C 0.74277 1.00779 0.98385 0.0
C104 C 0.72958 0.99466 0.03102 0.0
C105 C 0.73735 0.9889 0.10034 0.0
C106 C 0.73961 0.99579 0.38302 0.0
C107 C 0.72185 0.01057 0.36807 0.0
C108 C 0.50591 0.74123 0.01162 0.0
C109 C 0.4916 0.75314 0.9646 0.0
C110 C 0.48413 0.77449 0.98527 0.0
C111 C 0.49018 0.78335 0.05336 0.0
H112 H 0.47551 0.83565 0.26491 0.0
H113 H 0.47725 0.87367 0.21864 0.0
H114 H 0.54948 0.87181 0.23249 0.0
H115 H 0.54744 0.83318 0.27606 0.0
H116 H 0.52951 0.76611 0.43893 0.0
H117 H 0.52883 0.73354 0.52194 0.0
H118 H 0.48144 0.7009 0.37895 0.0
H119 H 0.48193 0.73294 0.29825 0.0
H120 H 0.52163 0.73978 0.11665 0.0
H121 H 0.51156 0.72453 0.99765 0.0
H122 H 0.47287 0.78383 0.95023 0.0
H123 H 0.48354 0.79949 0.06951 0.0
N124 N 0.50825 0.80011 0.19391 0.0
N125 N 0.51014 0.792 0.32025 0.0
N126 N 0.50634 0.7631 0.2335 0.0
C127 C 0.51033 0.8072 0.26407 0.0
C128 C 0.508 0.76968 0.30449 0.0
C129 C 0.50652 0.77814 0.1782 0.0
C130 C 0.51131 0.83158 0.275 0.0
C131 C 0.49167 0.84385 0.2621 0.0
C132 C 0.49275 0.8657 0.23482 0.0
C133 C 0.51357 0.87582 0.21986 0.0
C134 C 0.53316 0.86442 0.24147 0.0
C135 C 0.53203 0.84243 0.26815 0.0
C136 C 0.50586 0.7521 0.36183 0.0
C137 C 0.51864 0.75212 0.42647 0.0
C138 C 0.51838 0.73339 0.47353 0.0
C139 C 0.50505 0.71451 0.45732 0.0
C140 C 0.49166 0.71512 0.39417 0.0
C141 C 0.49209 0.73353 0.34733 0.0
C142 C 0.50319 0.77066 0.10227 0.0
C143 C 0.51147 0.74981 0.08008 0.0
C144 C 0.21479 0.52659 0.9418 0.0
C145 C 0.21048 0.50812 0.89621 0.0
C146 C 0.22633 0.49053 0.89507 0.0
C147 C 0.24512 0.49087 0.94173 0.0
H148 H 0.32972 0.53509 0.09093 0.0
H149 H 0.36721 0.53478 0.14499 0.0
H150 H 0.35891 0.46509 0.20085 0.0
H151 H 0.32155 0.46556 0.1466 0.0
H152 H 0.28433 0.53149 0.3027 0.0
H153 H 0.26372 0.54561 0.40966 0.0
H154 H 0.20325 0.51519 0.32586 0.0
H155 H 0.22361 0.50121 0.22118 0.0
H156 H 0.23531 0.54082 0.02545 0.0
H157 H 0.20302 0.54032 0.94572 0.0
H158 H 0.2238 0.47613 0.86007 0.0
H159 H 0.25617 0.47651 0.94334 0.0
N160 N 0.28592 0.50319 0.04996 0.0
N161 N 0.28854 0.50683 0.17855 0.0
N162 N 0.2539 0.51049 0.12117 0.0
C163 C 0.29847 0.50304 0.1128 0.0
C164 C 0.26626 0.51037 0.18307 0.0
C165 C 0.26335 0.50697 0.05471 0.0
C166 C 0.32296 0.50023 0.11326 0.0
C167 C 0.33648 0.51942 0.11098 0.0
C168 C 0.35778 0.51932 0.14314 0.0
C169 C 0.36594 0.5 0.17831 0.0
C170 C 0.35327 0.4802 0.17384 0.0
C171 C 0.33191 0.48038 0.14215 0.0
C172 C 0.25543 0.51551 0.25348 0.0
C173 C 0.26676 0.52738 0.30866 0.0
C174 C 0.255 0.53551 0.36956 0.0
C175 C 0.23191 0.53147 0.37645 0.0
C176 C 0.2211 0.5183 0.32329 0.0
C177 C 0.2327 0.51047 0.26259 0.0
C178 C 0.24837 0.50879 0.9903 0.0
C179 C 0.2334 0.5269 0.98791 0.0
C180 C 0.9963 0.20473 0.00854 0.0
C181 C 0.01037 0.2028 0.94715 0.0
C182 C 0.02506 0.22069 0.93129 0.0
C183 C 0.02609 0.23962 0.97733 0.0
H184 H 0.98719 0.32399 0.10793 0.0
H185 H 0.98564 0.36263 0.15209 0.0
H186 H 0.05579 0.35913 0.20815 0.0
H187 H 0.05718 0.3208 0.16314 0.0
H188 H 0.99585 0.2872 0.33689 0.0
H189 H 0.98515 0.27107 0.45547 0.0
H190 H 0.02183 0.21097 0.40213 0.0
H191 H 0.03186 0.22668 0.28347 0.0
H192 H 0.98693 0.22371 0.10275 0.0
H193 H 0.98501 0.1913 0.02348 0.0
H194 H 0.03606 0.21984 0.8842 0.0
H195 H 0.03812 0.2527 0.9656 0.0
N196 N 0.01881 0.28032 0.08357 0.0
N197 N 0.01971 0.28768 0.2105 0.0
N198 N 0.01542 0.25103 0.16918 0.0
C199 C 0.02076 0.29513 0.14051 0.0
C200 C 0.01722 0.26571 0.2252 0.0
C201 C 0.01615 0.25799 0.09842 0.0
C202 C 0.0224 0.31955 0.13097 0.0
C203 C 1.00255 0.33201 0.12545 0.0
C204 C 1.00159 0.354 0.15224 0.0
C205 C 0.02048 0.36389 0.18525 0.0
C206 C 0.04093 0.35221 0.18288 0.0
C207 C 0.04183 0.33024 0.15636 0.0
C208 C 0.01445 0.258 0.30109 0.0
C209 C 1.00211 0.2708 0.35163 0.0
C210 C 0.99606 0.26168 0.41935 0.0
C211 C 1.00288 0.23995 0.43798 0.0
C212 C 0.01671 0.22795 0.3896 0.0
C213 C 0.02223 0.23679 0.32142 0.0
C214 C 0.0127 0.2408 0.0406 0.0
C215 C 0.9975 0.22335 0.05447 0.0
C216 C 0.29497 0.98707 0.02117 0.0
C217 C 0.29674 1.00446 0.96969 0.0
C218 C 0.27845 0.01931 0.96223 0.0
C219 C 0.25939 0.01732 0.00755 0.0
H220 H 0.17976 0.03984 0.15822 0.0
H221 H 0.14163 0.04353 0.20598 0.0
H222 H 0.13727 0.97151 0.22366 0.0
H223 H 0.17467 0.96816 0.17328 0.0
H224 H 0.21446 0.9706 0.3567 0.0
H225 H 0.23162 0.95868 0.47271 0.0
H226 H 0.29145 0.99557 0.41661 0.0
H227 H 0.27463 1.00708 0.30209 0.0
H228 H 0.27597 0.97206 0.10705 0.0
H229 H 0.30865 0.97548 0.02983 0.0
H230 H 0.27908 0.03278 0.92266 0.0
H231 H 0.24608 0.02956 1.00316 0.0
N232 N 0.21898 1.00358 0.10958 0.0
N233 N 0.2125 0.99701 0.23542 0.0
N234 N 0.24893 0.99627 0.18976 0.0
C235 C 0.20451 1.00168 0.16762 0.0
C236 C 0.23466 0.99457 0.24695 0.0
C237 C 0.24145 1.00058 0.12109 0.0
C238 C 0.18001 1.00371 0.16105 0.0
C239 C 0.17002 0.02485 0.16808 0.0
C240 C 0.14833 0.02691 0.19715 0.0
C241 C 0.13639 1.00786 0.22087 0.0
C242 C 0.14562 0.98664 0.20595 0.0
C243 C 0.16714 0.98463 0.1764 0.0
C244 C 0.24338 0.98956 0.32041 0.0
C245 C 0.2311 0.97647 0.37032 0.0
C246 C 0.24084 0.96967 0.43644 0.0
C247 C 0.2627 0.97642 0.45401 0.0
C248 C 0.27438 0.99047 0.40544 0.0
C249 C 0.26488 0.99685 0.3393 0.0
C250 C 0.25843 1.00058 0.06146 0.0
C251 C 0.27617 0.98518 0.06608 0.0
C252 C 0.59749 0.28787 0.21704 0.0
C253 C 0.59496 0.28593 0.29329 0.0
C254 C 0.5831 0.26759 0.3218 0.0
C255 C 0.57171 0.25306 0.27476 0.0
H256 H 0.4841 0.20771 0.17145 0.0
H257 H 0.47312 0.17422 0.24141 0.0
H258 H 0.53986 0.14759 0.21523 0.0
H259 H 0.55073 0.18091 0.14724 0.0
H260 H 0.48617 0.26942 0.04269 0.0
H261 H 0.47737 0.30342 0.97236 0.0
H262 H 0.54312 0.30125 0.87426 0.0
H263 H 0.55183 0.26772 0.94458 0.0
H264 H 0.58666 0.27662 0.11175 0.0
H265 H 0.60694 0.30159 0.19364 0.0
H266 H 0.58084 0.26569 0.38033 0.0
H267 H 0.56109 0.24025 0.29835 0.0
N268 N 0.54516 0.22681 0.1698 0.0
N269 N 0.51819 0.23134 0.07654 0.0
N270 N 0.54624 0.2584 0.09509 0.0
C271 C 0.52721 0.2189 0.13217 0.0
C272 C 0.52814 0.25111 0.05733 0.0
C273 C 0.55472 0.24655 0.15166 0.0
C274 C 0.51826 0.19685 0.15425 0.0
C275 C 0.49608 0.19428 0.17852 0.0
C276 C 0.48987 0.17517 0.21879 0.0
C277 C 0.50578 0.15848 0.23512 0.0
C278 C 0.52735 0.16034 0.20493 0.0
C279 C 0.53352 0.17932 0.16544 0.0
C280 C 0.51963 0.26591 0.99872 0.0
C281 C 0.49829 0.27569 1.00357 0.0
C282 C 0.49336 0.29526 0.96378 0.0
C283 C 0.50976 0.30529 0.91896 0.0
C284 C 0.5303 0.29421 0.90937 0.0
C285 C 0.53519 0.27484 0.94893 0.0
C286 C 0.57188 0.25687 0.19881 0.0
C287 C 0.58589 0.27358 0.17019 0.0
Ho288 Ho 0.01861 0.99074 0.79718 0.0
Ho289 Ho 0.98307 1.00299 0.67518 0.0
C290 C 1.00021 0.95258 0.68234 0.0
C291 C 0.03617 0.97644 0.91677 0.0
C292 C 0.0523 0.95877 0.93648 0.0
C293 C 0.04521 0.94129 0.98194 0.0
C294 C 0.05953 0.92357 0.99795 0.0
C295 C 0.08149 0.92307 0.96983 0.0
C296 C 0.08878 0.94086 0.92543 0.0
C297 C 0.07429 0.95854 0.90869 0.0
C298 C 0.03917 0.997 0.66531 0.0
C299 C 1.00664 0.04244 0.77221 0.0
C300 C 0.9595 0.02298 0.57753 0.0
C301 C 0.95866 0.04704 0.55973 0.0
C302 C 0.97791 0.05829 0.53519 0.0
C303 C 0.97828 0.08157 0.53197 0.0
C304 C 0.95948 0.0941 0.5535 0.0
C305 C 0.93996 0.08291 0.57551 0.0
C306 C 0.93951 0.05954 0.57807 0.0
C307 C 0.96713 0.98819 0.80551 0.0
O308 O 1.00862 0.95716 0.74825 0.0
O309 O 0.99145 0.9682 0.63946 0.0
O310 O 0.04397 0.99375 0.88062 0.0
O311 O 0.01676 0.96937 0.89213 0.0
O312 O 0.04972 0.99137 0.72463 0.0
O313 O 0.01885 0.99873 0.68164 0.0
O314 O 0.99673 0.03669 0.71006 0.0
O315 O 0.01407 0.0274 0.81954 0.0
O316 O 0.9518 0.01798 0.64256 0.0
O317 O 0.97809 0.01227 0.56176 0.0
O318 O 0.95853 0.98301 0.74248 0.0
O319 O 0.98339 1.00132 0.7959 0.0
H320 H 0.02833 0.94107 1.00381 0.0
H321 H 0.0531 0.90994 0.03086 0.0
H322 H 0.10561 0.9411 0.90338 0.0
H323 H 0.08024 0.97182 0.87332 0.0
H324 H 0.99305 0.04924 0.52145 0.0
H325 H 0.99362 0.08981 0.5154 0.0
H326 H 0.92519 0.09223 0.59162 0.0
H327 H 0.9245 0.05126 0.59752 0.0
Ho328 Ho 0.50598 0.03218 0.7774 0.0
Ho329 Ho 0.49149 0.99769 0.65508 0.0
C330 C 0.54369 1.00728 0.673 0.0
C331 C 0.52784 0.05454 0.87379 0.0
C332 C 0.55224 0.05529 0.88617 0.0
C333 C 0.56383 0.0361 0.90932 0.0
C334 C 0.58714 0.0356 0.90776 0.0
C335 C 0.59936 0.0542 0.8829 0.0
C336 C 0.58788 0.07366 0.8622 0.0
C337 C 0.5645 0.07425 0.86437 0.0
C338 C 0.49061 0.04941 0.65013 0.0
C339 C 0.45493 0.01792 0.77243 0.0
C340 C 0.47174 0.98086 0.54365 0.0
C341 C 0.44911 0.97095 0.54318 0.0
C342 C 0.4313 0.9827 0.57561 0.0
C343 C 0.41061 0.97257 0.58565 0.0
C344 C 0.40704 0.95063 0.56188 0.0
C345 C 0.42443 0.93892 0.52697 0.0
C346 C 0.44553 0.94894 0.51866 0.0
C347 C 0.49775 0.97657 0.7862 0.0
O348 O 0.53889 0.01799 0.73492 0.0
O349 O 0.528 0.99963 0.62831 0.0
O350 O 0.52139 0.06309 0.8114 0.0
O351 O 0.51758 0.03569 0.88905 0.0
O352 O 0.48617 0.0576 0.71436 0.0
O353 O 0.5033 0.0326 0.65671 0.0
O354 O 0.45903 0.01006 0.70568 0.0
O355 O 0.47108 0.0251 0.81629 0.0
O356 O 0.48677 0.96971 0.5811 0.0
O357 O 0.47254 1.00248 0.55589 0.0
O358 O 0.49173 0.96642 0.72673 0.0
O359 O 0.49995 0.99685 0.77046 0.0
H360 H 0.55497 0.02111 0.92577 0.0
H361 H 0.59559 0.02029 0.92344 0.0
H362 H 0.59697 0.08829 0.84363 0.0
H363 H 0.55595 0.08923 0.84603 0.0
H364 H 0.43334 0.99975 0.59395 0.0
H365 H 0.39715 0.98212 0.61043 0.0
H366 H 0.4217 0.92212 0.50663 0.0
H367 H 0.45905 0.93951 0.4939 0.0
Ho368 Ho 0.4846 0.51588 0.7414 0.0
Ho369 Ho 0.52142 0.50599 0.64361 0.0
C370 C 0.50709 0.55589 0.64773 0.0
C371 C 0.45782 0.53569 0.83104 0.0
C372 C 0.45514 0.55996 0.84378 0.0
C373 C 0.47278 0.57251 0.87373 0.0
C374 C 0.4718 0.59578 0.87453 0.0
C375 C 0.45317 0.60709 0.84565 0.0
C376 C 0.43522 0.59462 0.81756 0.0
C377 C 0.43615 0.57122 0.81701 0.0
C378 C 0.47109 0.50182 0.60759 0.0
C379 C 0.49882 0.46542 0.73932 0.0
C380 C 0.54948 0.48905 0.5511 0.0
C381 C 0.56307 0.46866 0.55304 0.0
C382 C 0.57598 0.46266 0.49221 0.0
C383 C 0.58715 0.44213 0.49105 0.0
C384 C 0.58539 0.42727 0.55059 0.0
C385 C 0.57321 0.43383 0.61284 0.0
C386 C 0.56224 0.45446 0.61421 0.0
C387 C 0.53497 0.51936 0.7787 0.0
O388 O 0.49867 0.55004 0.71182 0.0
O389 O 0.514 0.54035 0.60188 0.0
O390 O 0.4516 0.52875 0.76645 0.0
O391 O 0.47682 0.52678 0.85151 0.0
O392 O 0.46241 0.49529 0.66904 0.0
O393 O 0.4867 0.5156 0.61982 0.0
O394 O 0.51062 0.47133 0.68102 0.0
O395 O 0.48835 0.48057 0.77914 0.0
O396 O 0.5549 0.50437 0.59874 0.0
O397 O 0.52786 0.48582 0.54763 0.0
O398 O 0.54406 0.52568 0.71783 0.0
O399 O 0.51928 0.50588 0.7651 0.0
H400 H 0.48779 0.56448 0.8941 0.0
H401 H 0.48606 0.60495 0.89559 0.0
H402 H 0.42058 0.60294 0.79557 0.0
H403 H 0.42237 0.56194 0.79327 0.0
H404 H 0.57679 0.47347 0.44467 0.0
H405 H 0.59611 0.43735 0.44185 0.0
H406 H 0.57159 0.42271 0.6594 0.0
H407 H 0.55257 0.45901 0.6621 0.0
Ho408 Ho 0.99969 0.49346 0.72621 0.0
Ho409 Ho 0.01211 0.52656 0.59776 0.0
C410 C 0.96018 0.51589 0.6257 0.0
C411 C 0.98001 0.47244 0.83065 0.0
C412 C 0.95581 0.47084 0.84644 0.0
C413 C 0.94379 0.48967 0.8706 0.0
C414 C 0.92048 0.48931 0.87229 0.0
C415 C 0.90867 0.47017 0.84984 0.0
C416 C 0.92061 0.45105 0.82841 0.0
C417 C 0.944 0.45133 0.8273 0.0
C418 C 0.013 0.47486 0.59823 0.0
C419 C 0.05063 0.50757 0.7094 0.0
C420 C 0.02708 0.54316 0.47785 0.0
C421 C 0.0464 0.55782 0.46468 0.0
C422 C 0.06141 0.55231 0.40877 0.0
C423 C 0.08249 0.56224 0.40629 0.0
C424 C 0.08895 0.5781 0.4595 0.0
C425 C 0.0731 0.58494 0.51189 0.0
C426 C 0.05205 0.57476 0.51482 0.0
C427 C 1.00836 0.54918 0.72731 0.0
O428 O 0.9659 0.50625 0.68838 0.0
O429 O 0.97522 0.52297 0.57769 0.0
O430 O 0.98629 0.46273 0.76982 0.0
O431 O 0.98944 0.49207 0.83983 0.0
O432 O 0.01833 0.4672 0.66242 0.0
O433 O 1.00044 0.49173 0.60517 0.0
O434 O 0.04562 0.51463 0.64225 0.0
O435 O 0.0351 0.5012 0.75693 0.0
O436 O 0.01019 0.55194 0.51379 0.0
O437 O 0.0324 0.52303 0.50076 0.0
O438 O 0.01385 0.55851 0.66589 0.0
O439 O 1.00545 0.52881 0.71424 0.0
H440 H 0.95229 0.50503 0.88532 0.0
H441 H 0.91164 0.50435 0.88854 0.0
H442 H 0.91186 0.43602 0.81172 0.0
H443 H 0.95285 0.43658 0.80847 0.0
H444 H 0.05745 0.53912 0.37014 0.0
H445 H 0.09426 0.55613 0.36583 0.0
H446 H 0.07734 0.5973 0.55295 0.0
H447 H 0.04076 0.57924 0.55886 0.0
C448 C 0.11611 0.02659 0.3253 0.0
C449 C 0.11657 0.00987 0.27112 0.0
C450 C 0.1003 0.02614 0.38243 0.0
C451 C 0.08471 1.00835 0.38667 0.0
C452 C 0.08393 0.99238 0.32938 0.0
C453 C 0.09972 0.99344 0.27211 0.0
C454 C 0.10153 0.04378 0.44149 0.0
C455 C 0.06757 0.97316 0.33139 0.0
C456 C 0.07102 0.99005 0.5809 0.0
C457 C 0.04968 0.99915 0.59212 0.0
C458 C 0.08216 0.9924 0.51369 0.0
C459 C 0.07191 1.00455 0.45612 0.0
C460 C 0.05017 0.01359 0.46677 0.0
C461 C 0.03922 0.01066 0.53467 0.0
C462 C 0.10514 0.98216 0.50482 0.0
C463 C 0.03878 0.02694 0.40743 0.0
H464 H 0.12902 0.03931 0.32625 0.0
H465 H 0.09945 0.98073 0.22981 0.0
H466 H 0.08453 0.04985 0.45592 0.0
H467 H 0.10898 0.03641 0.49163 0.0
H468 H 0.11192 0.0583 0.42459 0.0
H469 H 0.0668 0.96415 0.27824 0.0
H470 H 0.07276 0.96111 0.3744 0.0
H471 H 0.05054 0.97914 0.34567 0.0
H472 H 0.07913 0.98105 0.62509 0.0
H473 H 0.02282 0.01789 0.5435 0.0
H474 H 0.11772 0.99554 0.49585 0.0
H475 H 0.10549 0.97108 0.45607 0.0
H476 H 0.11025 0.97224 0.55346 0.0
H477 H 0.04785 0.04295 0.39928 0.0
H478 H 0.02106 0.03077 0.42118 0.0
H479 H 0.03928 0.01776 0.35466 0.0
C480 C 0.51674 0.13664 0.34604 0.0
C481 C 0.50113 0.14064 0.29015 0.0
C482 C 0.51295 0.12037 0.39991 0.0
C483 C 0.49305 0.10751 0.39807 0.0
C484 C 0.47724 0.11126 0.34145 0.0
C485 C 0.48137 0.12795 0.28846 0.0
C486 C 0.53013 0.11725 0.45974 0.0
C487 C 0.45597 0.09772 0.33712 0.0
C488 C 0.49728 0.05506 0.51559 0.0
C489 C 0.48795 0.06252 0.58174 0.0
C490 C 0.49765 0.06898 0.45336 0.0
C491 C 0.4887 0.09093 0.45772 0.0
C492 C 0.4781 0.09797 0.52323 0.0
C493 C 0.47776 0.08365 0.5842 0.0
C494 C 0.50878 0.06066 0.38434 0.0
C495 C 0.46848 0.12123 0.53071 0.0
H496 H 0.53185 0.14666 0.3486 0.0
H497 H 0.46928 0.13092 0.24531 0.0
H498 H 0.52241 0.12071 0.51387 0.0
H499 H 0.53608 0.09967 0.46046 0.0
H500 H 0.54484 0.12842 0.45282 0.0
H501 H 0.44587 0.10194 0.28797 0.0
H502 H 0.46002 0.0796 0.33579 0.0
H503 H 0.44562 0.1007 0.38663 0.0
H504 H 0.50506 0.03869 0.51322 0.0
H505 H 0.47038 0.08946 0.63502 0.0
H506 H 0.52509 0.06927 0.37706 0.0
H507 H 0.49835 0.06458 0.33577 0.0
H508 H 0.51186 0.04233 0.386 0.0
H509 H 0.4823 0.13364 0.53052 0.0
H510 H 0.45875 0.1233 0.58215 0.0
H511 H 0.45744 0.12516 0.48366 0.0
C512 C 0.38693 0.51892 0.27961 0.0
C513 C 0.38552 0.50129 0.22899 0.0
C514 C 0.4031 0.51893 0.33545 0.0
C515 C 0.41849 0.50096 0.34075 0.0
C516 C 0.41797 0.48372 0.28746 0.0
C517 C 0.40138 0.48398 0.23265 0.0
C518 C 0.4028 0.53753 0.39142 0.0
C519 C 0.43433 0.46449 0.29019 0.0
C520 C 0.46718 0.51012 0.47308 0.0
C521 C 0.45911 0.49973 0.53673 0.0
C522 C 0.45464 0.50986 0.40771 0.0
C523 C 0.43342 0.49921 0.40631 0.0
C524 C 0.42561 0.48807 0.46989 0.0
C525 C 0.4386 0.48834 0.53396 0.0
C526 C 0.46375 0.52159 0.34089 0.0
C527 C 0.40306 0.47664 0.47131 0.0
H528 H 0.37456 0.53219 0.27814 0.0
H529 H 0.4005 0.47036 0.19353 0.0
H530 H 0.39784 0.53068 0.44555 0.0
H531 H 0.41976 0.54485 0.39757 0.0
H532 H 0.39093 0.5511 0.37658 0.0
H533 H 0.43367 0.45408 0.23984 0.0
H534 H 0.45166 0.4708 0.29744 0.0
H535 H 0.43044 0.45368 0.33792 0.0
H536 H 0.48308 0.51885 0.47479 0.0
H537 H 0.43228 0.48019 0.58281 0.0
H538 H 0.45344 0.53658 0.32885 0.0
H539 H 0.46279 0.51044 0.29242 0.0
H540 H 0.48141 0.52698 0.34839 0.0
H541 H 0.38963 0.48917 0.46237 0.0
H542 H 0.39982 0.46796 0.52407 0.0
H543 H 0.40192 0.46421 0.42637 0.0
C544 C 1.00006 0.38618 0.2808 0.0
C545 C 0.01822 0.38429 0.23221 0.0
C546 C 0.99928 0.40311 0.33417 0.0
C547 C 0.01706 0.41872 0.33936 0.0
C548 C 0.03483 0.4177 0.28796 0.0
C549 C 0.03526 0.40047 0.23528 0.0
C550 C 0.98004 0.40343 0.3879 0.0
C551 C 0.05396 0.43417 0.29081 0.0
C552 C 1.00647 0.46915 0.46344 0.0
C553 C 0.01598 0.46191 0.52953 0.0
C554 C 1.00743 0.45571 0.40004 0.0
C555 C 0.01802 0.43448 0.40303 0.0
C556 C 0.02833 0.42753 0.46908 0.0
C557 C 0.02726 0.44134 0.53125 0.0
C558 C 0.99645 0.46388 0.33066 0.0
C559 C 0.03978 0.40507 0.47502 0.0
H560 H 0.98698 0.37362 0.28002 0.0
H561 H 0.04926 0.39931 0.19766 0.0
H562 H 0.98626 0.39904 0.4433 0.0
H563 H 0.97268 0.42044 0.3913 0.0
H564 H 0.96662 0.39143 0.37275 0.0
H565 H 0.06496 0.43294 0.24186 0.0
H566 H 0.04751 0.45153 0.29505 0.0
H567 H 0.06423 0.43094 0.34027 0.0
H568 H 0.9978 0.48508 0.4617 0.0
H569 H 0.03473 0.43568 0.58205 0.0
H570 H 0.98158 0.45341 0.31845 0.0
H571 H 1.00813 0.46224 0.28367 0.0
H572 H 0.991 0.48161 0.33496 0.0
H573 H 0.02735 0.39151 0.46682 0.0
H574 H 0.04794 0.40261 0.52908 0.0
H575 H 0.05266 0.40332 0.43157 0.0
C576 C 0.88363 1.00324 0.13615 0.0
C577 C 0.88206 0.98539 0.18593 0.0
C578 C 0.8997 1.00332 0.07988 0.0
C579 C 0.91476 0.98513 0.07286 0.0
C580 C 0.91408 0.96761 0.12513 0.0
C581 C 0.89769 0.96788 0.18075 0.0
C582 C 0.89969 0.02232 0.02534 0.0
C583 C 0.93002 0.94807 0.12039 0.0
C584 C 0.9345 0.97416 0.87786 0.0
C585 C 0.95522 0.98516 0.87622 0.0
C586 C 0.92159 0.97335 0.94221 0.0
C587 C 0.92964 0.98362 0.00699 0.0
C588 C 0.95108 0.99382 0.00655 0.0
C589 C 0.96358 0.99455 0.94108 0.0
C590 C 0.89885 0.96232 0.9399 0.0
C591 C 0.96043 1.00473 0.07445 0.0
H592 H 0.87146 0.01667 0.13851 0.0
H593 H 0.89676 0.95409 0.21916 0.0
H594 H 0.91678 0.02933 0.01932 0.0
H595 H 0.89449 0.01596 0.97084 0.0
H596 H 0.88812 0.03602 0.04155 0.0
H597 H 0.92919 0.93724 0.16977 0.0
H598 H 0.92587 0.93776 0.07173 0.0
H599 H 0.94748 0.95406 0.11341 0.0
H600 H 0.92797 0.9668 0.82801 0.0
H601 H 0.97964 1.003 0.94023 0.0
H602 H 0.88563 0.97504 0.94943 0.0
H603 H 0.89741 0.94967 0.9841 0.0
H604 H 0.89556 0.954 0.88658 0.0
H605 H 0.95054 0.01992 0.08764 0.0
H606 H 0.97825 0.00966 0.06753 0.0
H607 H 0.95907 0.99325 0.12198 0.0
C608 C 0.53098 0.89727 0.11573 0.0
C609 C 0.5147 0.89603 0.17127 0.0
C610 C 0.52979 0.91353 0.06024 0.0
C611 C 0.51173 0.92887 0.05924 0.0
C612 C 0.49618 0.92883 0.11791 0.0
C613 C 0.49791 0.91252 0.1733 0.0
C614 C 0.54692 0.91305 0.99936 0.0
C615 C 0.47672 0.94493 0.11937 0.0
C616 C 0.51256 0.97555 0.9155 0.0
C617 C 0.50056 0.96556 0.85828 0.0
C618 C 0.51607 0.96409 0.98211 0.0
C619 C 0.5072 0.94224 0.99156 0.0
C620 C 0.4946 0.93243 0.93426 0.0
C621 C 0.49159 0.94413 0.86843 0.0
C622 C 0.5298 0.97506 0.04135 0.0
C623 C 0.48462 0.90931 0.94178 0.0
H624 H 0.54393 0.88461 0.11245 0.0
H625 H 0.48548 0.91212 0.21656 0.0
H626 H 0.53917 0.90602 0.9492 0.0
H627 H 0.5527 0.93022 0.98615 0.0
H628 H 0.5617 0.90266 0.01368 0.0
H629 H 0.46816 0.9451 0.17342 0.0
H630 H 0.48237 0.96215 0.10625 0.0
H631 H 0.46435 0.93998 0.07704 0.0
H632 H 0.51973 0.99199 0.90745 0.0
H633 H 0.48222 0.93636 0.82442 0.0
H634 H 0.54571 0.96573 0.04861 0.0
H635 H 0.52075 0.97448 0.09439 0.0
H636 H 0.53384 0.99276 0.02822 0.0
H637 H 0.49818 0.89679 0.94853 0.0
H638 H 0.47439 0.90452 0.89348 0.0
H639 H 0.47389 0.90846 0.99133 0.0
C640 C 0.61859 0.50386 0.10906 0.0
C641 C 0.61896 0.52122 0.16091 0.0
C642 C 0.60247 0.50326 0.0531 0.0
C643 C 0.58612 0.52038 0.04863 0.0
C644 C 0.58553 0.53721 0.10333 0.0
C645 C 0.60201 0.53751 0.1585 0.0
C646 C 0.60389 0.48507 0.99588 0.0
C647 C 0.56819 0.55556 0.10142 0.0
C648 C 0.56653 0.5335 0.8552 0.0
C649 C 0.54652 0.52133 0.85037 0.0
C650 C 0.57913 0.53388 0.92009 0.0
C651 C 0.57148 0.52195 0.98233 0.0
C652 C 0.55075 0.51042 0.97882 0.0
C653 C 0.53854 0.51018 0.91275 0.0
C654 C 0.60112 0.54635 0.921 0.0
C655 C 0.54184 0.49774 0.04407 0.0
H656 H 0.63176 0.49138 0.1094 0.0
H657 H 0.60201 0.55088 0.19859 0.0
H658 H 0.58729 0.47713 0.98786 0.0
H659 H 0.60898 0.49248 0.94268 0.0
H660 H 0.61618 0.47187 0.01072 0.0
H661 H 0.56799 0.56549 0.15286 0.0
H662 H 0.57181 0.56703 0.05513 0.0
H663 H 0.55126 0.54846 0.09227 0.0
H664 H 0.57275 0.54227 0.80736 0.0
H665 H 0.52302 0.50083 0.90945 0.0
H666 H 0.61508 0.53438 0.92964 0.0
H667 H 0.60144 0.55844 0.96708 0.0
H668 H 0.60422 0.5556 0.86922 0.0
H669 H 0.55276 0.48313 0.05537 0.0
H670 H 0.52449 0.49163 0.03509 0.0
H671 H 0.54206 0.50851 0.09355 0.0
C672 C 0.02548 0.61081 0.11232 0.0
C673 C 0.01351 0.63108 0.11294 0.0
C674 C 0.02245 0.59494 0.05634 0.0
C675 C 1.00666 0.59908 1.00018 0.0
C676 C 0.99294 0.61841 1.00457 0.0
C677 C 0.99664 0.63425 0.06041 0.0
C678 C 0.03756 0.57469 0.05403 0.0
C679 C 0.97549 0.62324 0.94702 0.0
C680 C 0.02112 0.58015 0.80715 0.0
C681 C 1.00827 0.56071 0.79905 0.0
C682 C 0.02099 0.59238 0.87267 0.0
C683 C 1.00715 0.58541 0.93145 0.0
C684 C 0.99408 0.5657 0.92369 0.0
C685 C 0.995 0.5534 0.85768 0.0
C686 C 0.03566 0.6129 0.8787 0.0
C687 C 0.97871 0.55797 0.9842 0.0
H688 H 0.0381 0.60779 0.15375 0.0
H689 H 0.98724 0.64975 0.05991 0.0
H690 H 0.02784 0.55934 0.04171 0.0
H691 H 0.05007 0.57682 0.00958 0.0
H692 H 0.04667 0.57221 0.10643 0.0
H693 H 0.96365 0.63653 0.96481 0.0
H694 H 0.98385 0.62887 0.89598 0.0
H695 H 0.96583 0.60791 0.93383 0.0
H696 H 0.03148 0.58579 0.76197 0.0
H697 H 0.98482 0.53853 0.85108 0.0
H698 H 0.04682 0.61142 0.927 0.0
H699 H 0.02512 0.62798 0.88682 0.0
H700 H 0.04618 0.61547 0.82922 0.0
H701 H 0.98811 0.55622 0.03622 0.0
H702 H 0.97056 0.54174 0.97124 0.0
H703 H 0.96549 0.57071 0.99346 0.0
C704 C 1.00539 0.21452 0.5452 0.0
C705 C 0.99222 0.22767 0.4987 0.0
C706 C 0.99635 0.19543 0.57853 0.0
C707 C 0.97394 0.18938 0.56295 0.0
C708 C 0.95968 0.2049 0.52769 0.0
C709 C 0.96906 0.22406 0.49584 0.0
C710 C 0.01162 0.18007 0.62083 0.0
C711 C 0.93547 0.1995 0.51246 0.0
C712 C 0.9701 0.12994 0.49441 0.0
C713 C 0.96072 0.1188 0.55428 0.0
C714 C 0.97387 0.15298 0.49643 0.0
C715 C 0.96812 0.16527 0.56024 0.0
C716 C 0.95775 0.1543 0.61994 0.0
C717 C 0.95413 0.13107 0.61621 0.0
C718 C 0.98471 0.16398 0.43073 0.0
C719 C 0.95149 0.16672 0.68891 0.0
H720 H 0.02323 0.21771 0.5487 0.0
H721 H 0.95878 0.23443 0.46058 0.0
H722 H 1.00335 0.17469 0.67228 0.0
H723 H 0.01519 0.16487 0.58786 0.0
H724 H 0.02778 0.18824 0.6347 0.0
H725 H 0.92555 0.21494 0.50262 0.0
H726 H 0.93444 0.18891 0.46264 0.0
H727 H 0.92784 0.19007 0.55846 0.0
H728 H 0.97487 0.12048 0.44617 0.0
H729 H 0.94709 0.12239 0.66298 0.0
H730 H 1.00126 0.17093 0.44638 0.0
H731 H 0.97421 0.17804 0.41093 0.0
H732 H 0.98727 0.15212 0.38464 0.0
H733 H 0.96667 0.16903 0.72301 0.0
H734 H 0.93896 0.15733 0.72172 0.0
H735 H 0.94472 0.18357 0.67642 0.0
C736 C 0.28963 0.98039 0.5562 0.0
C737 C 0.27514 0.96665 0.51621 0.0
C738 C 0.30913 0.97156 0.58711 0.0
C739 C 0.31352 0.94835 0.57977 0.0
C740 C 0.29634 0.93397 0.55482 0.0
C741 C 0.27734 0.94335 0.52162 0.0
C742 C 0.32634 0.98753 0.61773 0.0
C743 C 0.29939 0.90895 0.5537 0.0
C744 C 0.37135 0.94213 0.50159 0.0
C745 C 0.38411 0.94182 0.56546 0.0
C746 C 0.34796 0.9422 0.50519 0.0
C747 C 0.33723 0.94106 0.57462 0.0
C748 C 0.35018 0.93761 0.63843 0.0
C749 C 0.37361 0.93867 0.63339 0.0
C750 C 0.33499 0.94615 0.43527 0.0
C751 C 0.33947 0.93453 0.71254 0.0
H752 H 0.28727 0.99838 0.55462 0.0
H753 H 0.26576 0.93254 0.49271 0.0
H754 H 0.32996 0.98312 0.67538 0.0
H755 H 0.34223 0.98632 0.58638 0.0
H756 H 0.32059 1.0052 0.61632 0.0
H757 H 0.28299 0.90032 0.55904 0.0
H758 H 0.30692 0.90381 0.50076 0.0
H759 H 0.31062 0.90333 0.59848 0.0
H760 H 0.37965 0.94477 0.44942 0.0
H761 H 0.38364 0.93844 0.68286 0.0
H762 H 0.32586 0.9623 0.43865 0.0
H763 H 0.32244 0.93274 0.42716 0.0
H764 H 0.346 0.94663 0.38622 0.0
H765 H 0.33756 0.951 0.73965 0.0
H766 H 0.35016 0.92398 0.74836 0.0
H767 H 0.32265 0.92675 0.70805 0.0
C768 C 0.59338 0.32658 0.31929 0.0
C769 C 0.6004 0.30523 0.34103 0.0
C770 C 0.59494 0.34487 0.36652 0.0
C771 C 0.60402 0.34187 0.43743 0.0
C772 C 0.6122 0.3206 0.45876 0.0
C773 C 0.61 0.30237 0.41049 0.0
C774 C 0.58576 0.36719 0.34151 0.0
C775 C 0.62241 0.31681 0.53325 0.0
C776 C 0.61431 0.39952 0.51055 0.0
C777 C 0.59343 0.40398 0.54251 0.0
C778 C 0.61947 0.37803 0.4846 0.0
C779 C 0.60313 0.36095 0.48936 0.0
C780 C 0.58321 0.36474 0.52959 0.0
C781 C 0.57862 0.38626 0.55599 0.0
C782 C 0.64132 0.37433 0.44495 0.0
C783 C 0.5654 0.34695 0.53664 0.0
H784 H 0.58546 0.32881 0.26638 0.0
H785 H 0.61541 0.28586 0.42749 0.0
H786 H 0.57173 0.37237 0.37766 0.0
H787 H 0.5989 0.38024 0.34519 0.0
H788 H 0.57953 0.36669 0.28423 0.0
H789 H 0.63321 0.30167 0.53383 0.0
H790 H 0.63249 0.33144 0.55085 0.0
H791 H 0.60886 0.31435 0.57404 0.0
H792 H 0.626 0.41312 0.50163 0.0
H793 H 0.56249 0.38962 0.58094 0.0
H794 H 0.63848 0.37552 0.38503 0.0
H795 H 0.64809 0.35741 0.45669 0.0
H796 H 0.65402 0.38705 0.46047 0.0
H797 H 0.55655 0.34516 0.48353 0.0
H798 H 0.55285 0.35122 0.57939 0.0
H799 H 0.57297 0.33053 0.55014 0.0
C800 C 0.19936 0.53226 0.461 0.0
C801 C 0.21795 0.54328 0.43135 0.0
C802 C 0.18069 0.54437 0.48457 0.0
C803 C 0.18129 0.56809 0.4824 0.0
C804 C 0.20169 0.57911 0.46671 0.0
C805 C 0.2198 0.56655 0.4398 0.0
C806 C 0.15935 0.53167 0.50056 0.0
C807 C 0.20382 0.60421 0.47029 0.0
C808 C 0.12638 0.58545 0.40329 0.0
C809 C 0.11296 0.58441 0.46619 0.0
C810 C 0.1496 0.5828 0.40805 0.0
C811 C 0.15965 0.58023 0.47782 0.0
C812 C 0.14672 0.58372 0.54157 0.0
C813 C 0.12334 0.58522 0.5353 0.0
C814 C 0.16285 0.57993 0.33813 0.0
C815 C 0.15743 0.58361 0.61633 0.0
H816 H 0.19833 0.51418 0.45717 0.0
H817 H 0.23439 0.57523 0.41877 0.0
H818 H 0.15121 0.53806 0.55085 0.0
H819 H 0.14742 0.53402 0.45461 0.0
H820 H 0.16238 0.51344 0.50737 0.0
H821 H 0.22044 0.6089 0.4928 0.0
H822 H 0.20281 0.61127 0.41421 0.0
H823 H 0.19055 0.61194 0.50455 0.0
H824 H 0.11855 0.58614 0.34982 0.0
H825 H 0.11328 0.58503 0.58469 0.0
H826 H 0.16946 0.56259 0.33474 0.0
H827 H 0.17734 0.59149 0.33761 0.0
H828 H 0.1526 0.58319 0.28854 0.0
H829 H 0.16376 0.56663 0.6294 0.0
H830 H 0.14552 0.58883 0.65985 0.0
H831 H 0.17208 0.59504 0.61676 0.0
C832 C 0.10638 0.79985 0.01809 0.0
C833 C 0.12288 0.79374 0.06882 0.0
C834 C 0.10563 0.82153 0.98939 0.0
C835 C 0.1221 0.83725 0.01077 0.0
C836 C 0.14074 0.83007 0.05236 0.0
C837 C 0.14074 0.80841 0.08225 0.0
C838 C 0.08552 0.82835 0.94445 0.0
C839 C 0.15949 0.8459 0.07155 0.0
C840 C 0.10946 0.89407 0.92907 0.0
C841 C 0.09605 0.90339 0.98451 0.0
C842 C 0.12015 0.87335 0.93915 0.0
C843 C 0.11669 0.86144 1.00515 0.0
C844 C 0.10464 0.87161 0.06321 0.0
C845 C 0.09488 0.89262 0.05255 0.0
C846 C 0.13384 0.86374 0.87721 0.0
C847 C 0.10043 0.85957 0.13476 0.0
H848 H 0.09253 0.78859 0.00737 0.0
H849 H 0.15376 0.80358 0.12041 0.0
H850 H 0.07466 0.83959 0.97738 0.0
H851 H 0.09084 0.83769 0.89503 0.0
H852 H 0.0754 0.81371 0.92686 0.0
H853 H 0.1751 0.83665 0.08492 0.0
H854 H 0.1629 0.85765 0.02578 0.0
H855 H 0.15468 0.85594 0.12018 0.0
H856 H 0.11069 0.9023 0.87633 0.0
H857 H 0.08531 0.90013 0.09664 0.0
H858 H 0.14682 0.85194 0.89722 0.0
H859 H 0.14213 0.87728 0.84553 0.0
H860 H 0.12265 0.8546 0.8391 0.0
H861 H 0.0906 0.84412 0.12454 0.0
H862 H 0.0911 0.87006 0.17469 0.0
H863 H 0.1165 0.8545 0.16007 0.0
C864 C 0.71812 1.00608 0.87463 0.0
C865 C 0.73171 0.01876 0.92123 0.0
C866 C 0.69938 0.01582 0.84133 0.0
C867 C 0.69419 0.03843 0.85697 0.0
C868 C 0.71049 0.05216 0.89066 0.0
C869 C 0.72926 0.04207 0.92274 0.0
C870 C 0.68325 1.00105 0.80027 0.0
C871 C 0.70616 0.07662 0.90506 0.0
C872 C 0.63536 0.0591 0.81363 0.0
C873 C 0.62402 0.05283 0.87782 0.0
C874 C 0.65848 0.05518 0.80596 0.0
C875 C 0.67027 0.04481 0.86389 0.0
C876 C 0.65895 0.03946 0.93002 0.0
C877 C 0.63602 0.04358 0.936 0.0
C878 C 0.66985 0.06111 0.73476 0.0
C879 C 0.67078 0.02857 0.99398 0.0
H880 H 0.72049 0.98811 0.87179 0.0
H881 H 0.74005 0.05201 0.95765 0.0
H882 H 0.6684 0.99763 0.83511 0.0
H883 H 0.67744 0.00958 0.74988 0.0
H884 H 0.69097 0.9848 0.78476 0.0
H885 H 0.72209 0.08596 0.91227 0.0
H886 H 0.69646 0.08433 0.85986 0.0
H887 H 0.69623 0.07833 0.9562 0.0
H888 H 0.62601 0.06608 0.76822 0.0
H889 H 0.62729 0.03911 0.98601 0.0
H890 H 0.67113 0.04591 0.7002 0.0
H891 H 0.68708 0.06742 0.74399 0.0
H892 H 0.66022 0.07389 0.70382 0.0
H893 H 0.67701 0.01181 0.97759 0.0
H894 H 0.65963 0.02643 0.04223 0.0
H895 H 0.68539 0.03875 0.011 0.0
C896 C 0.45836 0.73729 0.90261 0.0
C897 C 0.48151 0.74109 0.90229 0.0
C898 C 0.44948 0.7182 0.86882 0.0
C899 C 0.46424 0.70283 0.83497 0.0
C900 C 0.48672 0.70917 0.8217 0.0
C901 C 0.4952 0.7283 0.85622 0.0
C902 C 0.42511 0.71264 0.88053 0.0
C903 C 0.50265 0.694 0.78122 0.0
C904 C 0.4606 0.64361 0.90564 0.0
C905 C 0.45304 0.63187 0.84429 0.0
C906 C 0.46368 0.66675 0.90332 0.0
C907 C 0.45877 0.67861 0.83796 0.0
C908 C 0.44986 0.66707 0.77694 0.0
C909 C 0.44714 0.64371 0.78075 0.0
C910 C 0.47302 0.6783 0.97041 0.0
C911 C 0.44423 0.67905 0.70665 0.0
H912 H 0.44763 0.74743 0.9372 0.0
H913 H 0.51303 0.7317 0.85437 0.0
H914 H 0.41825 0.70309 0.83356 0.0
H915 H 0.42341 0.70213 0.93034 0.0
H916 H 0.41498 0.72804 0.8886 0.0
H917 H 0.51882 0.70238 0.76892 0.0
H918 H 0.5061 0.67893 0.81492 0.0
H919 H 0.49502 0.68844 0.72901 0.0
H920 H 0.46468 0.63454 0.95529 0.0
H921 H 0.44139 0.63463 0.73295 0.0
H922 H 0.46154 0.69179 0.98859 0.0
H923 H 0.48939 0.68608 0.95715 0.0
H924 H 0.47552 0.6666 0.01695 0.0
H925 H 0.43715 0.6959 0.71737 0.0
H926 H 0.43215 0.66932 0.67316 0.0
H927 H 0.45972 0.68128 0.67394 0.0
C928 C 0.78739 0.51304 0.85166 0.0
C929 C 0.77435 0.49967 0.89792 0.0
C930 C 0.80671 0.5043 0.81873 0.0
C931 C 0.81308 0.482 0.83455 0.0
C932 C 0.79763 0.4675 0.86911 0.0
C933 C 0.77824 0.47657 0.90053 0.0
C934 C 0.82199 0.51981 0.77694 0.0
C935 C 0.80335 0.44337 0.88444 0.0
C936 C 0.87222 0.46368 0.78505 0.0
C937 C 0.88394 0.47062 0.84767 0.0
C938 C 0.84891 0.46663 0.77995 0.0
C939 C 0.83729 0.47668 0.83894 0.0
C940 C 0.84903 0.4827 0.90354 0.0
C941 C 0.87217 0.47959 0.90692 0.0
C942 C 0.83707 0.46003 0.7103 0.0
C943 C 0.83734 0.4932 0.96857 0.0
H944 H 0.78397 0.53083 0.84825 0.0
H945 H 0.76793 0.46612 0.93551 0.0
H946 H 0.837 0.52364 0.81049 0.0
H947 H 0.82772 0.51163 0.72577 0.0
H948 H 0.81359 0.53581 0.76266 0.0
H949 H 0.788 0.4332 0.89305 0.0
H950 H 0.81325 0.43598 0.83907 0.0
H951 H 0.8136 0.44245 0.93503 0.0
H952 H 0.88139 0.45692 0.73879 0.0
H953 H 0.88121 0.48459 0.95573 0.0
H954 H 0.8346 0.4751 0.67585 0.0
H955 H 0.8203 0.45287 0.72179 0.0
H956 H 0.84698 0.4477 0.67826 0.0
H957 H 0.83015 0.50961 0.95261 0.0
H958 H 0.84884 0.49594 0.0155 0.0
H959 H 0.82337 0.4824 0.98733 0.0
C960 C 0.99048 0.16981 0.89093 0.0
C961 C 0.01055 0.18137 0.90435 0.0
C962 C 0.99049 0.14792 0.86255 0.0
C963 C 0.01107 0.13723 0.84621 0.0
C964 C 0.03131 0.14933 0.85482 0.0
C965 C 0.03083 0.17119 0.88395 0.0
C966 C 0.96847 0.13581 0.85373 0.0
C967 C 0.05361 0.13878 0.83691 0.0
C968 C 0.01172 0.07357 0.86316 0.0
C969 C 1.00883 0.06666 0.79032 0.0
C970 C 0.01277 0.0964 0.88172 0.0
C971 C 0.01134 0.11288 0.82607 0.0
C972 C 1.00909 0.10599 0.75216 0.0
C973 C 1.00762 0.08303 0.73526 0.0
C974 C 0.0149 0.1029 0.96132 0.0
C975 C 1.00824 0.12289 0.69097 0.0
H976 H 0.97467 0.17764 0.9049 0.0
H977 H 0.04646 0.17984 0.89423 0.0
H978 H 0.96726 0.12826 0.79838 0.0
H979 H 0.96747 0.12196 0.89408 0.0
H980 H 0.95387 0.14705 0.86214 0.0
H981 H 0.06747 0.15117 0.83774 0.0
H982 H 0.05737 0.12549 0.87747 0.0
H983 H 0.05308 0.13076 0.78215 0.0
H984 H 0.01257 0.0611 0.90617 0.0
H985 H 1.00565 0.0779 0.6787 0.0
H986 H 1.00006 0.11282 0.97824 0.0
H987 H 0.02986 0.11361 0.96927 0.0
H988 H 0.01631 0.08811 0.99788 0.0
H989 H 0.99493 0.13534 0.70197 0.0
H990 H 1.00511 0.11502 0.63685 0.0
H991 H 0.02433 0.13211 0.68834 0.0
C992 C 0.33112 0.98908 0.90664 0.0
C993 C 0.31835 1.00767 0.92894 0.0
C994 C 0.35294 0.99157 0.87872 0.0
C995 C 0.36226 0.01322 0.87115 0.0
C996 C 0.34905 0.03214 0.88945 0.0
C997 C 0.32738 0.02915 0.91853 0.0
C998 C 0.36633 0.97093 0.85962 0.0
C999 C 0.35807 0.05554 0.87997 0.0
C1000 C 0.42611 0.01779 0.87322 0.0
C1001 C 0.43125 0.01834 0.79827 0.0
C1002 C 0.40374 0.01648 0.89763 0.0
C1003 C 0.38601 0.01597 0.84598 0.0
C1004 C 0.39111 0.01723 0.77035 0.0
C1005 C 0.41359 0.01833 0.74757 0.0
C1006 C 0.39912 0.01497 0.97875 0.0
C1007 C 0.37296 0.01661 0.71296 0.0
H1008 H 0.32421 0.97241 0.91254 0.0
H1009 H 0.31787 0.04367 0.93576 0.0
H1010 H 0.37152 0.97152 0.80133 0.0
H1011 H 0.38182 0.97036 0.89305 0.0
H1012 H 0.35676 0.95526 0.8691 0.0
H1013 H 0.34531 0.06852 0.8925 0.0
H1014 H 0.37266 0.05807 0.9166 0.0
H1015 H 0.36402 0.05795 0.82291 0.0
H1016 H 0.4396 0.01771 0.91286 0.0
H1017 H 0.41729 0.01923 0.68968 0.0
H1018 H 0.39072 0.99886 0.99129 0.0
H1019 H 0.38758 0.02857 0.99573 0.0
H1020 H 0.41465 0.01614 0.01195 0.0
H1021 H 0.36722 0.9991 0.70619 0.0
H1022 H 0.37906 0.02264 0.65896 0.0
H1023 H 0.3583 0.02683 0.72958 0.0
C1024 C 0.52385 0.34423 0.89816 0.0
C1025 C 0.50675 0.32834 0.88896 0.0
C1026 C 0.5216 0.36619 0.87194 0.0
C1027 C 0.50181 0.37257 0.83477 0.0
C1028 C 0.48448 0.35661 0.82487 0.0
C1029 C 0.48707 0.33474 0.85271 0.0
C1030 C 0.54036 0.38267 0.88486 0.0
C1031 C 0.46329 0.36263 0.78454 0.0
C1032 C 0.4893 0.43514 0.82974 0.0
C1033 C 0.49822 0.44145 0.76166 0.0
C1034 C 0.48984 0.41273 0.85336 0.0
C1035 C 0.49931 0.39607 0.80755 0.0
C1036 C 0.50777 0.40223 0.73784 0.0
C1037 C 0.50726 0.42481 0.71601 0.0
C1038 C 0.48097 0.40701 0.92851 0.0
C1039 C 0.51793 0.38507 0.68697 0.0
H1040 H 0.53894 0.33956 0.92732 0.0
H1041 H 0.47383 0.32255 0.84525 0.0
H1042 H 0.54669 0.38912 0.83179 0.0
H1043 H 0.53403 0.39723 0.91645 0.0
H1044 H 0.55458 0.37512 0.91525 0.0
H1045 H 0.4516 0.34824 0.78005 0.0
H1046 H 0.4546 0.37652 0.81314 0.0
H1047 H 0.46745 0.36861 0.72863 0.0
H1048 H 0.48235 0.44782 0.86561 0.0
H1049 H 0.51417 0.42942 0.66322 0.0
H1050 H 0.49482 0.40069 0.96329 0.0
H1051 H 0.46831 0.39349 0.92464 0.0
H1052 H 0.47323 0.42166 0.95615 0.0
H1053 H 0.53415 0.37924 0.70955 0.0
H1054 H 0.52097 0.39195 0.63132 0.0
H1055 H 0.50684 0.37025 0.68225 0.0
C1056 C 0.17831 0.52613 0.82833 0.0
C1057 C 0.1886 0.5067 0.85589 0.0
C1058 C 0.15632 0.52575 0.8008 0.0
C1059 C 0.14427 0.50536 0.7989 0.0
C1060 C 0.15496 0.48544 0.82238 0.0
C1061 C 0.17685 0.48636 0.85108 0.0
C1062 C 0.14565 0.5474 0.77633 0.0
C1063 C 0.14296 0.46324 0.81956 0.0
C1064 C 0.08043 0.50841 0.80617 0.0
C1065 C 0.07456 0.50664 0.73202 0.0
C1066 C 0.10298 0.50798 0.8285 0.0
C1067 C 0.12018 0.50519 0.77569 0.0
C1068 C 0.11431 0.50302 0.70081 0.0
C1069 C 0.09163 0.50401 0.67982 0.0
C1070 C 0.10842 0.51089 0.90866 0.0
C1071 C 0.13194 0.49922 0.6429 0.0
H1072 H 0.18728 0.54188 0.82982 0.0
H1073 H 0.18436 0.47122 0.87256 0.0
H1074 H 0.13874 0.54558 0.72029 0.0
H1075 H 0.13145 0.55154 0.81318 0.0
H1076 H 0.15765 0.56159 0.77678 0.0
H1077 H 0.15419 0.44903 0.83337 0.0
H1078 H 0.12876 0.46333 0.85878 0.0
H1079 H 0.13589 0.46043 0.76416 0.0
H1080 H 0.06737 0.5106 0.84682 0.0
H1081 H 0.08724 0.50235 0.62249 0.0
H1082 H 0.11924 0.5258 0.91619 0.0
H1083 H 0.1179 0.49619 0.9289 0.0
H1084 H 0.09315 0.51295 0.94285 0.0
H1085 H 0.13856 0.48195 0.64808 0.0
H1086 H 0.14624 0.51081 0.65043 0.0
H1087 H 0.12516 0.50135 0.58671 0.0
C1088 C 0.03365 0.83533 0.50617 0.0
C1089 C 0.0169 0.81883 0.50683 0.0
C1090 C 0.02995 0.8567 0.53591 0.0
C1091 C 1.00894 0.8619 0.56769 0.0
C1092 C 0.99188 0.84537 0.56844 0.0
C1093 C 0.996 0.82409 0.5376 0.0
C1094 C 0.04854 0.87381 0.5328 0.0
C1095 C 0.9693 0.85015 0.60214 0.0
C1096 C 1.00884 0.91157 0.6995 0.0
C1097 C 1.00111 0.92905 0.6547 0.0
C1098 C 0.01075 0.88953 0.67272 0.0
C1099 C 1.00495 0.88475 0.59909 0.0
C1100 C 0.99673 0.90221 0.55405 0.0
C1101 C 0.99486 0.92405 0.58234 0.0
C1102 C 0.0195 0.87145 0.72281 0.0
C1103 C 0.99054 0.89798 0.47512 0.0
H1104 H 0.04971 0.83164 0.48119 0.0
H1105 H 0.98299 0.81146 0.53856 0.0
H1106 H 0.04288 0.88878 0.50202 0.0
H1107 H 0.05288 0.8794 0.58894 0.0
H1108 H 0.0639 0.86716 0.50619 0.0
H1109 H 0.95788 0.83551 0.5991 0.0
H1110 H 0.97138 0.85495 0.66043 0.0
H1111 H 0.96131 0.86449 0.57383 0.0
H1112 H 0.01366 0.91511 0.75551 0.0
H1113 H 0.98889 0.93732 0.54695 0.0
H1114 H 0.03583 0.86524 0.70205 0.0
H1115 H 1.00781 0.85703 0.72348 0.0
H1116 H 0.02184 0.87749 0.77983 0.0
H1117 H 1.00564 0.89281 0.44396 0.0
H1118 H 0.98327 0.91302 0.44841 0.0
H1119 H 0.97827 0.8841 0.47144 0.0
C1120 C 0.67083 0.9797 0.54734 0.0
C1121 C 0.68103 0.99958 0.5235 0.0
C1122 C 0.64927 0.97983 0.57905 0.0
C1123 C 0.63752 1.00032 0.587 0.0
C1124 C 0.64829 0.02054 0.56708 0.0
C1125 C 0.66984 0.01993 0.53594 0.0
C1126 C 0.63862 0.9579 0.60053 0.0
C1127 C 0.63659 0.04281 0.57519 0.0
C1128 C 0.57363 1.00066 0.57864 0.0
C1129 C 0.56766 1.00439 0.652 0.0
C1130 C 0.59622 0.99897 0.55717 0.0
C1131 C 0.6134 1.00063 0.6104 0.0
C1132 C 0.60745 1.00371 0.68489 0.0
C1133 C 0.58472 1.00581 0.70469 0.0
C1134 C 0.6017 0.99594 0.47705 0.0
C1135 C 0.62511 1.00482 0.74365 0.0
H1136 H 0.6792 0.96387 0.53784 0.0
H1137 H 0.67771 0.03545 0.51921 0.0
H1138 H 0.63122 0.95908 0.65613 0.0
H1139 H 0.62482 0.95395 0.56202 0.0
H1140 H 0.65082 0.94386 0.5996 0.0
H1141 H 0.64792 0.05712 0.56367 0.0
H1142 H 0.62224 0.0436 0.53672 0.0
H1143 H 0.62977 0.04469 0.63138 0.0
H1144 H 0.56063 0.99965 0.5374 0.0
H1145 H 0.58032 1.00844 0.76164 0.0
H1146 H 0.61215 0.98077 0.46927 0.0
H1147 H 0.61158 0.01045 0.45721 0.0
H1148 H 0.58644 0.99435 0.44269 0.0
H1149 H 0.63424 0.98868 0.74614 0.0
H1150 H 0.61794 1.00839 0.79855 0.0
H1151 H 0.63752 0.01793 0.72997 0.0
C1152 C 0.4862 0.68105 0.51417 0.0
C1153 C 0.50582 0.69351 0.5021 0.0
C1154 C 0.48695 0.65942 0.54435 0.0
C1155 C 0.50782 0.64993 0.56406 0.0
C1156 C 0.52754 0.66297 0.5568 0.0
C1157 C 0.52632 0.68455 0.52574 0.0
C1158 C 0.46547 0.64627 0.5515 0.0
C1159 C 0.55009 0.6537 0.57831 0.0
C1160 C 0.5057 0.59675 0.68019 0.0
C1161 C 0.5083 0.57996 0.62706 0.0
C1162 C 0.50622 0.61956 0.661 0.0
C1163 C 0.50904 0.62584 0.58672 0.0
C1164 C 0.51188 0.60894 0.53302 0.0
C1165 C 0.51165 0.58627 0.55387 0.0
C1166 C 0.5037 0.63695 0.72018 0.0
C1167 C 0.51467 0.61477 0.45309 0.0
H1168 H 0.4702 0.68796 0.49768 0.0
H1169 H 0.54161 0.69391 0.51654 0.0
H1170 H 0.46573 0.63201 0.51256 0.0
H1171 H 0.46391 0.63918 0.6074 0.0
H1172 H 0.45045 0.65665 0.53996 0.0
H1173 H 0.56335 0.66672 0.57756 0.0
H1174 H 0.54931 0.64624 0.63387 0.0
H1175 H 0.55492 0.64018 0.53976 0.0
H1176 H 0.50332 0.59208 0.73701 0.0
H1177 H 0.51359 0.57344 0.51237 0.0
H1178 H 0.51918 0.64714 0.72346 0.0
H1179 H 0.50042 0.62945 0.77478 0.0
H1180 H 0.4898 0.64846 0.70639 0.0
H1181 H 0.49958 0.62378 0.43336 0.0
H1182 H 0.51724 0.59974 0.41832 0.0
H1183 H 0.52917 0.62615 0.44578 0.0
C1184 C 0.83315 0.49822 0.50647 0.0
C1185 C 0.82126 0.51809 0.49281 0.0
C1186 C 0.85501 0.49859 0.53503 0.0
C1187 C 0.86537 0.51933 0.5511 0.0
C1188 C 0.85296 0.53937 0.54209 0.0
C1189 C 0.83111 0.53852 0.51295 0.0
C1190 C 0.86746 0.47678 0.54432 0.0
C1191 C 0.86318 0.56182 0.55953 0.0
C1192 C 0.91952 0.51674 0.66249 0.0
C1193 C 0.93594 0.51795 0.60747 0.0
C1194 C 0.89655 0.51797 0.64541 0.0
C1195 C 0.8897 0.51998 0.57141 0.0
C1196 C 0.90623 0.52146 0.51581 0.0
C1197 C 0.92907 0.52063 0.53452 0.0
C1198 C 0.87959 0.51707 0.70652 0.0
C1199 C 0.89978 0.52338 0.43613 0.0
H1200 H 0.82557 0.48229 0.49258 0.0
H1201 H 0.82221 0.55399 0.50242 0.0
H1202 H 0.88131 0.47588 0.50386 0.0
H1203 H 0.87506 0.4758 0.59964 0.0
H1204 H 0.85641 0.46202 0.5364 0.0
H1205 H 0.85058 0.5755 0.55835 0.0
H1206 H 0.87118 0.56151 0.61431 0.0
H1207 H 0.87645 0.56569 0.51891 0.0
H1208 H 0.92462 0.51491 0.71912 0.0
H1209 H 0.94157 0.52149 0.49154 0.0
H1210 H 0.86728 0.50363 0.69576 0.0
H1211 H 0.87017 0.53306 0.70869 0.0
H1212 H 0.88744 0.51414 0.76077 0.0
H1213 H 0.89013 0.50837 0.41938 0.0
H1214 H 0.9146 0.52499 0.39966 0.0
H1215 H 0.88881 0.53814 0.42783 0.0
loop_
_geom_bond_atom_site_label_1
_geom_bond_atom_site_label_2
_geom_bond_distance
_geom_bond_site_symmetry_2
_ccdc_geom_bond_type
C0 C1 1.384 . S
C0 H13 0.947 . S
C0 C35 1.382 . S
C1 C0 1.384 . S
C1 C2 1.378 . S
C2 C1 1.378 . S
C2 C3 1.378 . S
C2 H14 0.952 . S
C3 C2 1.378 . S
C3 H15 0.950 . S
C3 C34 1.383 . S
H4 C23 0.947 . S
H5 C24 0.946 . S
H6 C26 0.953 . S
H7 C27 0.945 . S
H8 C29 0.952 . S
H9 C30 0.949 . S
H10 C32 0.950 . S
H11 C33 0.948 . S
H12 C35 0.951 . S
H13 C0 0.947 . S
H14 C2 0.952 . S
H15 C3 0.950 . S
N16 C19 1.382 . S
N16 C21 1.363 . S
N17 C19 1.371 . S
N17 C20 1.372 . S
N18 C20 1.361 . S
N18 C21 1.377 . S
C19 N16 1.382 . S
C19 N17 1.371 . S
C19 C22 1.480 . S
C20 N17 1.372 . S
C20 N18 1.361 . S
C20 C28 1.457 . S
C21 N16 1.363 . S
C21 N18 1.377 . S
C21 C34 1.479 . S
C22 C19 1.480 . S
C22 C23 1.383 . S
C22 C27 1.385 . S
C23 H4 0.947 . S
C23 C22 1.383 . S
C23 C24 1.388 . S
C24 H5 0.946 . S
C24 C23 1.388 . S
C24 C25 1.384 . S
C25 C24 1.384 . S
C25 C26 1.377 . S
C26 H6 0.953 . S
C26 C25 1.377 . S
C26 C27 1.369 . S
C27 H7 0.945 . S
C27 C22 1.385 . S
C27 C26 1.369 . S
C28 C20 1.457 . S
C28 C29 1.372 . S
C28 C33 1.364 . S
C29 H8 0.952 . S
C29 C28 1.372 . S
C29 C30 1.389 . S
C30 H9 0.949 . S
C30 C29 1.389 . S
C30 C31 1.387 . S
C31 C30 1.387 . S
C31 C32 1.372 . S
C32 H10 0.950 . S
C32 C31 1.372 . S
C32 C33 1.379 . S
C33 H11 0.948 . S
C33 C28 1.364 . S
C33 C32 1.379 . S
C34 C3 1.383 . S
C34 C21 1.479 . S
C34 C35 1.398 . S
C35 C0 1.382 . S
C35 H12 0.951 . S
C35 C34 1.398 . S
C36 C37 1.384 1_655 S
C36 H49 0.948 . S
C36 C71 1.382 1_655 S
C37 C36 1.384 1_455 S
C37 C38 1.378 . S
C38 C37 1.378 . S
C38 C39 1.378 . S
C38 H50 0.952 . S
C39 C38 1.378 . S
C39 H51 0.950 . S
C39 C70 1.383 . S
H40 C59 0.947 . S
H41 C60 0.952 . S
H42 C62 0.953 . S
H43 C63 0.945 . S
H44 C65 0.949 1_655 S
H45 C66 0.956 . S
H46 C68 0.950 . S
H47 C69 0.948 . S
H48 C71 0.951 1_655 S
H49 C36 0.948 . S
H50 C38 0.952 . S
H51 C39 0.950 . S
N52 C55 1.382 . S
N52 C57 1.363 . S
N53 C55 1.371 . S
N53 C56 1.372 . S
N54 C56 1.361 . S
N54 C57 1.377 . S
C55 N52 1.382 . S
C55 N53 1.371 . S
C55 C58 1.480 . S
C56 N53 1.372 . S
C56 N54 1.361 . S
C56 C64 1.457 . S
C57 N52 1.363 . S
C57 N54 1.377 . S
C57 C70 1.479 . S
C58 C55 1.480 . S
C58 C59 1.383 . S
C58 C63 1.385 . S
C59 H40 0.947 . S
C59 C58 1.383 . S
C59 C60 1.386 1_455 S
C60 H41 0.952 . S
C60 C59 1.386 1_655 S
C60 C61 1.381 1_655 S
C61 C60 1.381 1_455 S
C61 C62 1.377 . S
C62 H42 0.953 . S
C62 C61 1.377 . S
C62 C63 1.369 . S
C63 H43 0.945 . S
C63 C58 1.385 . S
C63 C62 1.369 . S
C64 C56 1.457 . S
C64 C65 1.376 . S
C64 C69 1.364 . S
C65 H44 0.949 1_455 S
C65 C64 1.376 . S
C65 C66 1.387 1_455 S
C66 H45 0.956 . S
C66 C65 1.387 1_655 S
C66 C67 1.383 1_655 S
C67 C66 1.383 1_455 S
C67 C68 1.372 . S
C68 H46 0.950 . S
C68 C67 1.372 . S
C68 C69 1.379 . S
C69 H47 0.948 . S
C69 C64 1.364 . S
C69 C68 1.379 . S
C70 C39 1.383 . S
C70 C57 1.479 . S
C70 C71 1.398 . S
C71 C36 1.382 1_455 S
C71 H48 0.951 1_455 S
C71 C70 1.398 . S
C72 C73 1.384 1_565 S
C72 H85 0.948 . S
C72 C107 1.382 1_565 S
C73 C72 1.384 1_545 S
C73 C74 1.378 . S
C74 C73 1.378 . S
C74 C75 1.378 . S
C74 H86 0.952 . S
C75 C74 1.378 . S
C75 H87 0.950 . S
C75 C106 1.383 . S
H76 C95 0.947 . S
H77 C96 0.952 . S
H78 C98 0.953 . S
H79 C99 0.945 . S
H80 C101 0.949 1_565 S
H81 C102 0.956 . S
H82 C104 0.950 . S
H83 C105 0.948 . S
H84 C107 0.951 1_565 S
H85 C72 0.948 . S
H86 C74 0.952 . S
H87 C75 0.950 . S
N88 C91 1.382 . S
N88 C93 1.363 . S
N89 C91 1.371 . S
N89 C92 1.372 . S
N90 C92 1.361 . S
N90 C93 1.377 . S
C91 N88 1.382 . S
C91 N89 1.371 . S
C91 C94 1.480 . S
C92 N89 1.372 . S
C92 N90 1.361 . S
C92 C100 1.457 . S
C93 N88 1.363 . S
C93 N90 1.377 . S
C93 C106 1.479 . S
C94 C91 1.480 . S
C94 C95 1.383 . S
C94 C99 1.385 . S
C95 H76 0.947 . S
C95 C94 1.383 . S
C95 C96 1.386 1_545 S
C96 H77 0.952 . S
C96 C95 1.386 1_565 S
C96 C97 1.381 1_565 S
C97 C96 1.381 1_545 S
C97 C98 1.377 . S
C98 H78 0.953 . S
C98 C97 1.377 . S
C98 C99 1.369 . S
C99 H79 0.945 . S
C99 C94 1.385 . S
C99 C98 1.369 . S
C100 C92 1.457 . S
C100 C101 1.376 . S
C100 C105 1.364 . S
C101 H80 0.949 1_545 S
C101 C100 1.376 . S
C101 C102 1.386 1_545 S
C102 H81 0.956 . S
C102 C101 1.386 1_565 S
C102 C103 1.383 1_565 S
C103 C102 1.383 1_545 S
C103 C104 1.372 . S
C104 H82 0.950 . S
C104 C103 1.372 . S
C104 C105 1.379 . S
C105 H83 0.948 . S
C105 C100 1.364 . S
C105 C104 1.379 . S
C106 C75 1.383 . S
C106 C93 1.479 . S
C106 C107 1.398 . S
C107 C72 1.382 1_545 S
C107 H84 0.951 1_545 S
C107 C106 1.398 . S
C108 C109 1.384 . S
C108 H121 0.947 . S
C108 C143 1.382 . S
C109 C108 1.384 . S
C109 C110 1.378 . S
C110 C109 1.378 . S
C110 C111 1.378 . S
C110 H122 0.952 . S
C111 C110 1.378 . S
C111 H123 0.950 . S
C111 C142 1.383 . S
H112 C131 0.947 . S
H113 C132 0.946 . S
H114 C134 0.953 . S
H115 C135 0.945 . S
H116 C137 0.952 . S
H117 C138 0.949 . S
H118 C140 0.950 . S
H119 C141 0.948 . S
H120 C143 0.951 . S
H121 C108 0.947 . S
H122 C110 0.952 . S
H123 C111 0.950 . S
N124 C127 1.382 . S
N124 C129 1.363 . S
N125 C127 1.371 . S
N125 C128 1.372 . S
N126 C128 1.361 . S
N126 C129 1.377 . S
C127 N124 1.382 . S
C127 N125 1.371 . S
C127 C130 1.480 . S
C128 N125 1.372 . S
C128 N126 1.361 . S
C128 C136 1.457 . S
C129 N124 1.363 . S
C129 N126 1.377 . S
C129 C142 1.479 . S
C130 C127 1.480 . S
C130 C131 1.383 . S
C130 C135 1.385 . S
C131 H112 0.947 . S
C131 C130 1.383 . S
C131 C132 1.388 . S
C132 H113 0.946 . S
C132 C131 1.388 . S
C132 C133 1.384 . S
C133 C132 1.384 . S
C133 C134 1.377 . S
C134 H114 0.953 . S
C134 C133 1.377 . S
C134 C135 1.369 . S
C135 H115 0.945 . S
C135 C130 1.385 . S
C135 C134 1.369 . S
C136 C128 1.457 . S
C136 C137 1.372 . S
C136 C141 1.364 . S
C137 H116 0.952 . S
C137 C136 1.372 . S
C137 C138 1.389 . S
C138 H117 0.949 . S
C138 C137 1.389 . S
C138 C139 1.387 . S
C139 C138 1.387 . S
C139 C140 1.372 . S
C140 H118 0.950 . S
C140 C139 1.372 . S
C140 C141 1.379 . S
C141 H119 0.948 . S
C141 C136 1.364 . S
C141 C140 1.379 . S
C142 C111 1.383 . S
C142 C129 1.479 . S
C142 C143 1.398 . S
C143 C108 1.382 . S
C143 H120 0.951 . S
C143 C142 1.398 . S
C144 C145 1.384 . S
C144 H157 0.947 . S
C144 C179 1.382 . S
C145 C144 1.384 . S
C145 C146 1.378 . S
C146 C145 1.378 . S
C146 C147 1.378 . S
C146 H158 0.952 . S
C147 C146 1.378 . S
C147 H159 0.950 . S
C147 C178 1.383 . S
H148 C167 0.947 1_556 S
H149 C168 0.946 1_556 S
H150 C170 0.953 . S
H151 C171 0.945 . S
H152 C173 0.952 . S
H153 C174 0.949 . S
H154 C176 0.950 . S
H155 C177 0.948 . S
H156 C179 0.951 . S
H157 C144 0.947 . S
H158 C146 0.952 . S
H159 C147 0.950 . S
N160 C163 1.382 1_556 S
N160 C165 1.363 . S
N161 C163 1.371 . S
N161 C164 1.372 . S
N162 C164 1.361 . S
N162 C165 1.377 1_554 S
C163 N160 1.382 1_554 S
C163 N161 1.371 . S
C163 C166 1.480 . S
C164 N161 1.372 . S
C164 N162 1.361 . S
C164 C172 1.457 . S
C165 N160 1.363 . S
C165 N162 1.377 1_556 S
C165 C178 1.479 . S
C166 C163 1.480 . S
C166 C167 1.383 . S
C166 C171 1.385 . S
C167 H148 0.947 1_554 S
C167 C166 1.383 . S
C167 C168 1.388 . S
C168 H149 0.946 1_554 S
C168 C167 1.388 . S
C168 C169 1.384 . S
C169 C168 1.384 . S
C169 C170 1.377 . S
C170 H150 0.953 . S
C170 C169 1.377 . S
C170 C171 1.369 . S
C171 H151 0.945 . S
C171 C166 1.385 . S
C171 C170 1.369 . S
C172 C164 1.457 . S
C172 C173 1.372 . S
C172 C177 1.364 . S
C173 H152 0.952 . S
C173 C172 1.372 . S
C173 C174 1.389 . S
C174 H153 0.949 . S
C174 C173 1.389 . S
C174 C175 1.387 . S
C175 C174 1.387 . S
C175 C176 1.372 . S
C176 H154 0.950 . S
C176 C175 1.372 . S
C176 C177 1.379 . S
C177 H155 0.948 . S
C177 C172 1.364 . S
C177 C176 1.379 . S
C178 C147 1.383 . S
C178 C165 1.479 . S
C178 C179 1.398 . S
C179 C144 1.382 . S
C179 H156 0.951 . S
C179 C178 1.398 . S
C180 C181 1.384 . S
C180 H193 0.948 1_455 S
C180 C215 1.382 . S
C181 C180 1.384 . S
C181 C182 1.378 . S
C182 C181 1.378 . S
C182 C183 1.378 . S
C182 H194 0.952 . S
C183 C182 1.378 . S
C183 H195 0.950 . S
C183 C214 1.383 . S
H184 C203 0.947 1_556 S
H185 C204 0.949 1_556 S
H186 C206 0.953 . S
H187 C207 0.945 . S
H188 C209 0.947 1_655 S
H189 C210 0.954 . S
H190 C212 0.950 . S
H191 C213 0.948 . S
H192 C215 0.950 1_655 S
H193 C180 0.948 1_655 S
H194 C182 0.952 . S
H195 C183 0.950 . S
N196 C199 1.382 1_556 S
N196 C201 1.363 . S
N197 C199 1.371 . S
N197 C200 1.372 . S
N198 C200 1.361 . S
N198 C201 1.377 1_554 S
C199 N196 1.382 1_554 S
C199 N197 1.371 . S
C199 C202 1.480 . S
C200 N197 1.372 . S
C200 N198 1.361 . S
C200 C208 1.457 . S
C201 N196 1.363 . S
C201 N198 1.377 1_556 S
C201 C214 1.479 . S
C202 C199 1.480 . S
C202 C203 1.383 . S
C202 C207 1.385 . S
C203 H184 0.947 1_554 S
C203 C202 1.383 . S
C203 C204 1.387 1_455 S
C204 H185 0.949 1_554 S
C204 C203 1.387 1_655 S
C204 C205 1.382 1_655 S
C205 C204 1.382 1_455 S
C205 C206 1.377 . S
C206 H186 0.953 . S
C206 C205 1.377 . S
C206 C207 1.369 . S
C207 H187 0.945 . S
C207 C202 1.385 . S
C207 C206 1.369 . S
C208 C200 1.457 . S
C208 C209 1.379 . S
C208 C213 1.364 . S
C209 H188 0.947 1_455 S
C209 C208 1.379 . S
C209 C210 1.387 1_455 S
C210 H189 0.954 . S
C210 C209 1.387 1_655 S
C210 C211 1.384 1_655 S
C211 C210 1.384 1_455 S
C211 C212 1.372 . S
C212 H190 0.950 . S
C212 C211 1.372 . S
C212 C213 1.379 . S
C213 H191 0.948 . S
C213 C208 1.364 . S
C213 C212 1.379 . S
C214 C183 1.383 . S
C214 C201 1.479 . S
C214 C215 1.399 . S
C215 C180 1.382 . S
C215 H192 0.950 1_455 S
C215 C214 1.399 . S
C216 C217 1.384 . S
C216 H229 0.948 1_545 S
C216 C251 1.382 . S
C217 C216 1.384 . S
C217 C218 1.378 . S
C218 C217 1.378 . S
C218 C219 1.378 . S
C218 H230 0.952 . S
C219 C218 1.378 . S
C219 H231 0.950 . S
C219 C250 1.383 . S
H220 C239 0.947 1_556 S
H221 C240 0.949 1_556 S
H222 C242 0.953 . S
H223 C243 0.945 . S
H224 C245 0.947 1_565 S
H225 C246 0.954 . S
H226 C248 0.950 . S
H227 C249 0.948 . S
H228 C251 0.950 1_565 S
H229 C216 0.948 1_565 S
H230 C218 0.952 . S
H231 C219 0.950 . S
N232 C235 1.382 1_556 S
N232 C237 1.363 . S
N233 C235 1.371 . S
N233 C236 1.372 . S
N234 C236 1.361 . S
N234 C237 1.377 1_554 S
C235 N232 1.382 1_554 S
C235 N233 1.371 . S
C235 C238 1.480 . S
C236 N233 1.372 . S
C236 N234 1.361 . S
C236 C244 1.457 . S
C237 N232 1.363 . S
C237 N234 1.377 1_556 S
C237 C250 1.479 . S
C238 C235 1.480 . S
C238 C239 1.383 . S
C238 C243 1.385 . S
C239 H220 0.947 1_554 S
C239 C238 1.383 . S
C239 C240 1.387 1_545 S
C240 H221 0.949 1_554 S
C240 C239 1.387 1_565 S
C240 C241 1.382 1_565 S
C241 C240 1.382 1_545 S
C241 C242 1.377 . S
C242 H222 0.953 . S
C242 C241 1.377 . S
C242 C243 1.369 . S
C243 H223 0.945 . S
C243 C238 1.385 . S
C243 C242 1.369 . S
C244 C236 1.457 . S
C244 C245 1.379 . S
C244 C249 1.364 . S
C245 H224 0.947 1_545 S
C245 C244 1.379 . S
C245 C246 1.387 1_545 S
C246 H225 0.954 . S
C246 C245 1.387 1_565 S
C246 C247 1.384 1_565 S
C247 C246 1.384 1_545 S
C247 C248 1.372 . S
C248 H226 0.950 . S
C248 C247 1.372 . S
C248 C249 1.379 . S
C249 H227 0.948 . S
C249 C244 1.364 . S
C249 C248 1.379 . S
C250 C219 1.383 . S
C250 C237 1.479 . S
C250 C251 1.399 . S
C251 C216 1.382 . S
C251 H228 0.950 1_545 S
C251 C250 1.399 . S
C252 C253 1.384 . S
C252 H265 0.947 . S
C252 C287 1.382 . S
C253 C252 1.384 . S
C253 C254 1.378 . S
C254 C253 1.378 . S
C254 C255 1.378 . S
C254 H266 0.952 . S
C255 C254 1.378 . S
C255 H267 0.950 . S
C255 C286 1.383 . S
H256 C275 0.947 . S
H257 C276 0.946 . S
H258 C278 0.953 1_556 S
H259 C279 0.945 1_556 S
H260 C281 0.952 . S
H261 C282 0.949 . S
H262 C284 0.950 . S
H263 C285 0.948 . S
H264 C287 0.951 . S
H265 C252 0.947 . S
H266 C254 0.952 . S
H267 C255 0.950 . S
N268 C271 1.382 . S
N268 C273 1.363 . S
N269 C271 1.371 1_556 S
N269 C272 1.372 . S
N270 C272 1.361 1_554 S
N270 C273 1.377 . S
C271 N268 1.382 . S
C271 N269 1.371 1_554 S
C271 C274 1.480 . S
C272 N269 1.372 . S
C272 N270 1.361 1_556 S
C272 C280 1.457 . S
C273 N268 1.363 . S
C273 N270 1.377 . S
C273 C286 1.479 . S
C274 C271 1.480 . S
C274 C275 1.383 . S
C274 C279 1.385 . S
C275 H256 0.947 . S
C275 C274 1.383 . S
C275 C276 1.388 . S
C276 H257 0.946 . S
C276 C275 1.388 . S
C276 C277 1.384 . S
C277 C276 1.384 . S
C277 C278 1.377 . S
C278 H258 0.953 1_554 S
C278 C277 1.377 . S
C278 C279 1.369 . S
C279 H259 0.945 1_554 S
C279 C274 1.385 . S
C279 C278 1.369 . S
C280 C272 1.457 . S
C280 C281 1.372 . S
C280 C285 1.364 . S
C281 H260 0.952 . S
C281 C280 1.372 . S
C281 C282 1.389 . S
C282 H261 0.949 . S
C282 C281 1.389 . S
C282 C283 1.387 . S
C283 C282 1.387 . S
C283 C284 1.372 . S
C284 H262 0.950 . S
C284 C283 1.372 . S
C284 C285 1.379 . S
C285 H263 0.948 . S
C285 C280 1.364 . S
C285 C284 1.379 . S
C286 C255 1.383 . S
C286 C273 1.479 . S
C286 C287 1.398 . S
C287 C252 1.382 . S
C287 H264 0.951 . S
C287 C286 1.398 . S
Ho288 C291 2.811 . S
Ho288 O308 2.322 . S
Ho288 O310 2.378 . S
Ho288 O311 2.524 . S
Ho288 O312 2.381 . S
Ho288 O313 2.669 1_565 S
Ho288 O315 2.346 1_565 S
Ho288 O319 2.305 1_455 S
Ho289 C300 2.811 . S
Ho289 O309 2.346 1_545 S
Ho289 O313 2.305 1_655 S
Ho289 O314 2.322 . S
Ho289 O316 2.378 . S
Ho289 O317 2.524 . S
Ho289 O318 2.381 . S
Ho289 O319 2.669 1_545 S
C290 O308 1.259 1_655 S
C290 O309 1.268 . S
C291 Ho288 2.811 . S
C291 C292 1.488 . S
C291 O310 1.215 . S
C291 O311 1.289 . S
C292 C291 1.488 . S
C292 C293 1.348 . S
C292 C297 1.413 . S
C293 C292 1.348 . S
C293 C294 1.442 . S
C293 H320 0.930 1_455 S
C294 C293 1.442 . S
C294 C295 1.381 . S
C294 H321 0.931 1_455 S
C295 C294 1.381 . S
C295 C296 1.321 . S
C296 C295 1.321 . S
C296 C297 1.403 . S
C296 H322 0.934 . S
C297 C292 1.413 . S
C297 C296 1.403 . S
C297 H323 0.930 . S
C298 O312 1.296 . S
C298 O313 1.245 1_565 S
C299 O314 1.259 1_455 S
C299 O315 1.268 . S
C300 Ho289 2.811 . S
C300 C301 1.488 . S
C300 O316 1.215 . S
C300 O317 1.289 . S
C301 C300 1.488 . S
C301 C302 1.348 . S
C301 C306 1.413 . S
C302 C301 1.348 . S
C302 C303 1.442 . S
C302 H324 0.930 1_655 S
C303 C302 1.442 . S
C303 C304 1.381 . S
C303 H325 0.931 1_655 S
C304 C303 1.381 . S
C304 C305 1.321 . S
C305 C304 1.321 . S
C305 C306 1.403 . S
C305 H326 0.934 . S
C306 C301 1.413 . S
C306 C305 1.403 . S
C306 H327 0.930 . S
C307 O318 1.302 . S
C307 O319 1.241 1_545 S
O308 Ho288 2.322 . S
O308 C290 1.259 1_455 S
O309 Ho289 2.346 1_565 S
O309 C290 1.268 . S
O310 Ho288 2.378 . S
O310 C291 1.215 . S
O311 Ho288 2.524 . S
O311 C291 1.289 . S
O312 Ho288 2.381 . S
O312 C298 1.296 . S
O313 Ho288 2.669 1_545 S
O313 Ho289 2.305 1_455 S
O313 C298 1.245 1_545 S
O314 Ho289 2.322 . S
O314 C299 1.259 1_655 S
O315 Ho288 2.346 1_545 S
O315 C299 1.268 . S
O316 Ho289 2.378 . S
O316 C300 1.215 . S
O317 Ho289 2.524 . S
O317 C300 1.289 . S
O318 Ho289 2.381 . S
O318 C307 1.302 . S
O319 Ho288 2.305 1_655 S
O319 Ho289 2.669 1_565 S
O319 C307 1.241 1_565 S
H320 C293 0.930 1_655 S
H321 C294 0.931 1_655 S
H322 C296 0.934 . S
H323 C297 0.930 . S
H324 C302 0.930 1_455 S
H325 C303 0.931 1_455 S
H326 C305 0.934 . S
H327 C306 0.930 . S
Ho328 C331 2.811 . S
Ho328 O348 2.322 . S
Ho328 O350 2.378 . S
Ho328 O351 2.524 . S
Ho328 O352 2.381 . S
Ho328 O353 2.669 . S
Ho328 O355 2.346 . S
Ho328 O359 2.305 1_545 S
Ho329 C340 2.811 . S
Ho329 O349 2.346 . S
Ho329 O353 2.305 1_565 S
Ho329 O354 2.322 . S
Ho329 O356 2.378 . S
Ho329 O357 2.524 . S
Ho329 O358 2.381 . S
Ho329 O359 2.669 . S
C330 O348 1.259 1_565 S
C330 O349 1.268 . S
C331 Ho328 2.811 . S
C331 C332 1.488 . S
C331 O350 1.215 . S
C331 O351 1.289 . S
C332 C331 1.488 . S
C332 C333 1.348 . S
C332 C337 1.413 . S
C333 C332 1.348 . S
C333 C334 1.442 . S
C333 H360 0.930 1_545 S
C334 C333 1.442 . S
C334 C335 1.381 . S
C334 H361 0.931 1_545 S
C335 C334 1.381 . S
C335 C336 1.321 . S
C336 C335 1.321 . S
C336 C337 1.403 . S
C336 H362 0.934 . S
C337 C332 1.413 . S
C337 C336 1.403 . S
C337 H363 0.930 . S
C338 O352 1.275 . S
C338 O353 1.256 . S
C339 O354 1.259 1_545 S
C339 O355 1.268 . S
C340 Ho329 2.811 . S
C340 C341 1.488 . S
C340 O356 1.215 . S
C340 O357 1.289 . S
C341 C340 1.488 . S
C341 C342 1.348 . S
C341 C346 1.413 . S
C342 C341 1.348 . S
C342 C343 1.442 . S
C342 H364 0.930 1_565 S
C343 C342 1.442 . S
C343 C344 1.381 . S
C343 H365 0.931 1_565 S
C344 C343 1.381 . S
C344 C345 1.321 . S
C345 C344 1.321 . S
C345 C346 1.403 . S
C345 H366 0.934 . S
C346 C341 1.413 . S
C346 C345 1.403 . S
C346 H367 0.930 . S
C347 O358 1.275 . S
C347 O359 1.256 . S
O348 Ho328 2.322 . S
O348 C330 1.259 1_545 S
O349 Ho329 2.346 . S
O349 C330 1.268 . S
O350 Ho328 2.378 . S
O350 C331 1.215 . S
O351 Ho328 2.524 . S
O351 C331 1.289 . S
O352 Ho328 2.381 . S
O352 C338 1.275 . S
O353 Ho328 2.669 . S
O353 Ho329 2.305 1_545 S
O353 C338 1.256 . S
O354 Ho329 2.322 . S
O354 C339 1.259 1_565 S
O355 Ho328 2.346 . S
O355 C339 1.268 . S
O356 Ho329 2.378 . S
O356 C340 1.215 . S
O357 Ho329 2.524 . S
O357 C340 1.289 . S
O358 Ho329 2.381 . S
O358 C347 1.275 . S
O359 Ho328 2.305 1_565 S
O359 Ho329 2.669 . S
O359 C347 1.256 . S
H360 C333 0.930 1_565 S
H361 C334 0.931 1_565 S
H362 C336 0.934 . S
H363 C337 0.930 . S
H364 C342 0.930 1_545 S
H365 C343 0.931 1_545 S
H366 C345 0.934 . S
H367 C346 0.930 . S
Ho368 C371 2.811 . S
Ho368 O388 2.322 . S
Ho368 O390 2.378 . S
Ho368 O391 2.524 . S
Ho368 O392 2.381 . S
Ho368 O393 2.669 . S
Ho368 O395 2.346 . S
Ho368 O399 2.305 . S
Ho369 C380 2.811 . S
Ho369 O389 2.346 . S
Ho369 O393 2.305 . S
Ho369 O394 2.322 . S
Ho369 O396 2.378 . S
Ho369 O397 2.524 . S
Ho369 O398 2.381 . S
Ho369 O399 2.669 . S
C370 O388 1.259 . S
C370 O389 1.268 . S
C371 Ho368 2.811 . S
C371 C372 1.488 . S
C371 O390 1.215 . S
C371 O391 1.289 . S
C372 C371 1.488 . S
C372 C373 1.348 . S
C372 C377 1.413 . S
C373 C372 1.348 . S
C373 C374 1.442 . S
C373 H400 0.930 . S
C374 C373 1.442 . S
C374 C375 1.381 . S
C374 H401 0.931 . S
C375 C374 1.381 . S
C375 C376 1.321 . S
C376 C375 1.321 . S
C376 C377 1.403 . S
C376 H402 0.934 . S
C377 C372 1.413 . S
C377 C376 1.403 . S
C377 H403 0.930 . S
C378 O392 1.275 . S
C378 O393 1.256 . S
C379 O394 1.259 . S
C379 O395 1.268 . S
C380 Ho369 2.811 . S
C380 C381 1.488 . S
C380 O396 1.215 . S
C380 O397 1.289 . S
C381 C380 1.488 . S
C381 C382 1.348 . S
C381 C386 1.413 . S
C382 C381 1.348 . S
C382 C383 1.442 . S
C382 H404 0.930 . S
C383 C382 1.442 . S
C383 C384 1.381 . S
C383 H405 0.931 . S
C384 C383 1.381 . S
C384 C385 1.321 . S
C385 C384 1.321 . S
C385 C386 1.403 . S
C385 H406 0.934 . S
C386 C381 1.413 . S
C386 C385 1.403 . S
C386 H407 0.930 . S
C387 O398 1.275 . S
C387 O399 1.256 . S
O388 Ho368 2.322 . S
O388 C370 1.259 . S
O389 Ho369 2.346 . S
O389 C370 1.268 . S
O390 Ho368 2.378 . S
O390 C371 1.215 . S
O391 Ho368 2.524 . S
O391 C371 1.289 . S
O392 Ho368 2.381 . S
O392 C378 1.275 . S
O393 Ho368 2.669 . S
O393 Ho369 2.305 . S
O393 C378 1.256 . S
O394 Ho369 2.322 . S
O394 C379 1.259 . S
O395 Ho368 2.346 . S
O395 C379 1.268 . S
O396 Ho369 2.378 . S
O396 C380 1.215 . S
O397 Ho369 2.524 . S
O397 C380 1.289 . S
O398 Ho369 2.381 . S
O398 C387 1.275 . S
O399 Ho368 2.305 . S
O399 Ho369 2.669 . S
O399 C387 1.256 . S
H400 C373 0.930 . S
H401 C374 0.931 . S
H402 C376 0.934 . S
H403 C377 0.930 . S
H404 C382 0.930 . S
H405 C383 0.931 . S
H406 C385 0.934 . S
H407 C386 0.930 . S
Ho408 C411 2.811 . S
Ho408 O428 2.322 . S
Ho408 O430 2.378 . S
Ho408 O431 2.524 . S
Ho408 O432 2.381 . S
Ho408 O433 2.669 1_655 S
Ho408 O435 2.346 1_655 S
Ho408 O439 2.305 . S
Ho409 C420 2.811 . S
Ho409 O429 2.346 1_455 S
Ho409 O433 2.305 . S
Ho409 O434 2.322 . S
Ho409 O436 2.378 . S
Ho409 O437 2.524 . S
Ho409 O438 2.381 . S
Ho409 O439 2.669 1_455 S
C410 O428 1.259 . S
C410 O429 1.268 . S
C411 Ho408 2.811 . S
C411 C412 1.488 . S
C411 O430 1.215 . S
C411 O431 1.289 . S
C412 C411 1.488 . S
C412 C413 1.348 . S
C412 C417 1.413 . S
C413 C412 1.348 . S
C413 C414 1.442 . S
C413 H440 0.930 . S
C414 C413 1.442 . S
C414 C415 1.381 . S
C414 H441 0.931 . S
C415 C414 1.381 . S
C415 C416 1.321 . S
C416 C415 1.321 . S
C416 C417 1.403 . S
C416 H442 0.934 . S
C417 C412 1.413 . S
C417 C416 1.403 . S
C417 H443 0.930 . S
C418 O432 1.292 . S
C418 O433 1.247 1_655 S
C419 O434 1.259 . S
C419 O435 1.268 . S
C420 Ho409 2.811 . S
C420 C421 1.488 . S
C420 O436 1.215 . S
C420 O437 1.289 . S
C421 C420 1.488 . S
C421 C422 1.348 . S
C421 C426 1.413 . S
C422 C421 1.348 . S
C422 C423 1.442 . S
C422 H444 0.930 . S
C423 C422 1.442 . S
C423 C424 1.381 . S
C423 H445 0.931 . S
C424 C423 1.381 . S
C424 C425 1.321 . S
C425 C424 1.321 . S
C425 C426 1.403 . S
C425 H446 0.934 . S
C426 C421 1.413 . S
C426 C425 1.403 . S
C426 H447 0.930 . S
C427 O438 1.298 . S
C427 O439 1.244 1_455 S
O428 Ho408 2.322 . S
O428 C410 1.259 . S
O429 Ho409 2.346 1_655 S
O429 C410 1.268 . S
O430 Ho408 2.378 . S
O430 C411 1.215 . S
O431 Ho408 2.524 . S
O431 C411 1.289 . S
O432 Ho408 2.381 . S
O432 C418 1.292 . S
O433 Ho408 2.669 1_455 S
O433 Ho409 2.305 . S
O433 C418 1.247 1_455 S
O434 Ho409 2.322 . S
O434 C419 1.259 . S
O435 Ho408 2.346 1_455 S
O435 C419 1.268 . S
O436 Ho409 2.378 . S
O436 C420 1.215 . S
O437 Ho409 2.524 . S
O437 C420 1.289 . S
O438 Ho409 2.381 . S
O438 C427 1.298 . S
O439 Ho408 2.305 . S
O439 Ho409 2.669 1_655 S
O439 C427 1.244 1_655 S
H440 C413 0.930 . S
H441 C414 0.931 . S
H442 C416 0.934 . S
H443 C417 0.930 . S
H444 C422 0.930 . S
H445 C423 0.931 . S
H446 C425 0.934 . S
H447 C426 0.930 . S
C448 C449 1.391 . S
C448 C450 1.394 . S
C448 H464 0.931 . S
C449 C448 1.391 . S
C449 C453 1.376 1_545 S
C450 C448 1.394 . S
C450 C451 1.369 . S
C450 C454 1.531 . S
C451 C450 1.369 . S
C451 C452 1.410 1_545 S
C451 C459 1.503 . S
C452 C451 1.410 1_565 S
C452 C453 1.392 . S
C452 C455 1.511 . S
C453 C449 1.376 1_565 S
C453 C452 1.392 . S
C453 H465 0.929 . S
C454 C450 1.531 . S
C454 H466 0.960 . S
C454 H467 0.962 . S
C454 H468 0.960 . S
C455 C452 1.511 . S
C455 H469 0.961 . S
C455 H470 0.961 . S
C455 H471 0.961 . S
C456 C457 1.370 1_565 S
C456 C458 1.363 . S
C456 H472 0.931 . S
C457 C456 1.370 1_545 S
C457 C461 1.408 . S
C458 C456 1.363 . S
C458 C459 1.370 1_565 S
C458 C462 1.524 . S
C459 C451 1.503 . S
C459 C458 1.370 1_545 S
C459 C460 1.403 . S
C460 C459 1.403 . S
C460 C461 1.404 . S
C460 C463 1.539 . S
C461 C457 1.408 . S
C461 C460 1.404 . S
C461 H473 0.930 . S
C462 C458 1.524 . S
C462 H474 0.956 . S
C462 H475 0.961 . S
C462 H476 0.961 . S
C463 C460 1.539 . S
C463 H477 0.958 . S
C463 H478 0.961 . S
C463 H479 0.960 . S
H464 C448 0.931 . S
H465 C453 0.929 . S
H466 C454 0.960 . S
H467 C454 0.962 . S
H468 C454 0.960 . S
H469 C455 0.961 . S
H470 C455 0.961 . S
H471 C455 0.961 . S
H472 C456 0.931 . S
H473 C461 0.930 . S
H474 C462 0.956 . S
H475 C462 0.961 . S
H476 C462 0.961 . S
H477 C463 0.958 . S
H478 C463 0.961 . S
H479 C463 0.960 . S
C480 C481 1.391 . S
C480 C482 1.394 . S
C480 H496 0.931 . S
C481 C480 1.391 . S
C481 C485 1.376 . S
C482 C480 1.394 . S
C482 C483 1.369 . S
C482 C486 1.531 . S
C483 C482 1.369 . S
C483 C484 1.410 . S
C483 C491 1.503 . S
C484 C483 1.410 . S
C484 C485 1.392 . S
C484 C487 1.511 . S
C485 C481 1.376 . S
C485 C484 1.392 . S
C485 H497 0.929 . S
C486 C482 1.531 . S
C486 H498 0.960 . S
C486 H499 0.962 . S
C486 H500 0.960 . S
C487 C484 1.511 . S
C487 H501 0.961 . S
C487 H502 0.961 . S
C487 H503 0.961 . S
C488 C489 1.370 . S
C488 C490 1.363 . S
C488 H504 0.931 . S
C489 C488 1.370 . S
C489 C493 1.408 . S
C490 C488 1.363 . S
C490 C491 1.370 . S
C490 C494 1.524 . S
C491 C483 1.503 . S
C491 C490 1.370 . S
C491 C492 1.403 . S
C492 C491 1.403 . S
C492 C493 1.404 . S
C492 C495 1.539 . S
C493 C489 1.408 . S
C493 C492 1.404 . S
C493 H505 0.930 . S
C494 C490 1.524 . S
C494 H506 0.956 . S
C494 H507 0.961 . S
C494 H508 0.961 . S
C495 C492 1.539 . S
C495 H509 0.958 . S
C495 H510 0.961 . S
C495 H511 0.960 . S
H496 C480 0.931 . S
H497 C485 0.929 . S
H498 C486 0.960 . S
H499 C486 0.962 . S
H500 C486 0.960 . S
H501 C487 0.961 . S
H502 C487 0.961 . S
H503 C487 0.961 . S
H504 C488 0.931 . S
H505 C493 0.930 . S
H506 C494 0.956 . S
H507 C494 0.961 . S
H508 C494 0.961 . S
H509 C495 0.958 . S
H510 C495 0.961 . S
H511 C495 0.960 . S
C512 C513 1.391 . S
C512 C514 1.394 . S
C512 H528 0.931 . S
C513 C512 1.391 . S
C513 C517 1.376 . S
C514 C512 1.394 . S
C514 C515 1.369 . S
C514 C518 1.531 . S
C515 C514 1.369 . S
C515 C516 1.410 . S
C515 C523 1.503 . S
C516 C515 1.410 . S
C516 C517 1.392 . S
C516 C519 1.511 . S
C517 C513 1.376 . S
C517 C516 1.392 . S
C517 H529 0.929 . S
C518 C514 1.531 . S
C518 H530 0.960 . S
C518 H531 0.962 . S
C518 H532 0.960 . S
C519 C516 1.511 . S
C519 H533 0.961 . S
C519 H534 0.961 . S
C519 H535 0.961 . S
C520 C521 1.370 . S
C520 C522 1.363 . S
C520 H536 0.931 . S
C521 C520 1.370 . S
C521 C525 1.408 . S
C522 C520 1.363 . S
C522 C523 1.370 . S
C522 C526 1.524 . S
C523 C515 1.503 . S
C523 C522 1.370 . S
C523 C524 1.403 . S
C524 C523 1.403 . S
C524 C525 1.404 . S
C524 C527 1.539 . S
C525 C521 1.408 . S
C525 C524 1.404 . S
C525 H537 0.930 . S
C526 C522 1.524 . S
C526 H538 0.956 . S
C526 H539 0.961 . S
C526 H540 0.961 . S
C527 C524 1.539 . S
C527 H541 0.958 . S
C527 H542 0.961 . S
C527 H543 0.960 . S
H528 C512 0.931 . S
H529 C517 0.929 . S
H530 C518 0.960 . S
H531 C518 0.962 . S
H532 C518 0.960 . S
H533 C519 0.961 . S
H534 C519 0.961 . S
H535 C519 0.961 . S
H536 C520 0.931 . S
H537 C525 0.930 . S
H538 C526 0.956 . S
H539 C526 0.961 . S
H540 C526 0.961 . S
H541 C527 0.958 . S
H542 C527 0.961 . S
H543 C527 0.960 . S
C544 C545 1.391 1_655 S
C544 C546 1.394 . S
C544 H560 0.931 . S
C545 C544 1.391 1_455 S
C545 C549 1.376 . S
C546 C544 1.394 . S
C546 C547 1.369 1_655 S
C546 C550 1.531 . S
C547 C546 1.369 1_455 S
C547 C548 1.410 . S
C547 C555 1.503 . S
C548 C547 1.410 . S
C548 C549 1.392 . S
C548 C551 1.511 . S
C549 C545 1.376 . S
C549 C548 1.392 . S
C549 H561 0.929 . S
C550 C546 1.531 . S
C550 H562 0.960 . S
C550 H563 0.962 . S
C550 H564 0.960 . S
C551 C548 1.511 . S
C551 H565 0.961 . S
C551 H566 0.961 . S
C551 H567 0.961 . S
C552 C553 1.370 1_655 S
C552 C554 1.363 . S
C552 H568 0.931 . S
C553 C552 1.370 1_455 S
C553 C557 1.408 . S
C554 C552 1.363 . S
C554 C555 1.370 1_655 S
C554 C558 1.524 . S
C555 C547 1.503 . S
C555 C554 1.370 1_455 S
C555 C556 1.403 . S
C556 C555 1.403 . S
C556 C557 1.404 . S
C556 C559 1.539 . S
C557 C553 1.408 . S
C557 C556 1.404 . S
C557 H569 0.930 . S
C558 C554 1.524 . S
C558 H570 0.956 . S
C558 H571 0.961 . S
C558 H572 0.961 . S
C559 C556 1.539 . S
C559 H573 0.958 . S
C559 H574 0.961 . S
C559 H575 0.960 . S
H560 C544 0.931 . S
H561 C549 0.929 . S
H562 C550 0.960 . S
H563 C550 0.962 . S
H564 C550 0.960 . S
H565 C551 0.961 . S
H566 C551 0.961 . S
H567 C551 0.961 . S
H568 C552 0.931 . S
H569 C557 0.930 . S
H570 C558 0.956 . S
H571 C558 0.961 . S
H572 C558 0.961 . S
H573 C559 0.958 . S
H574 C559 0.961 . S
H575 C559 0.960 . S
C576 C577 1.391 . S
C576 C578 1.394 . S
C576 H592 0.931 . S
C577 C576 1.391 . S
C577 C581 1.376 1_545 S
C578 C576 1.394 . S
C578 C579 1.369 . S
C578 C582 1.531 . S
C579 C578 1.369 . S
C579 C580 1.410 1_545 S
C579 C587 1.513 . S
C580 C579 1.410 1_565 S
C580 C581 1.392 . S
C580 C583 1.511 . S
C581 C577 1.376 1_565 S
C581 C580 1.392 . S
C581 H593 0.929 . S
C582 C578 1.531 . S
C582 H594 0.960 1_554 S
C582 H595 0.962 1_554 S
C582 H596 0.960 . S
C583 C580 1.511 . S
C583 H597 0.961 . S
C583 H598 0.961 . S
C583 H599 0.961 . S
C584 C585 1.392 . S
C584 C586 1.363 . S
C584 H600 0.931 . S
C585 C584 1.392 . S
C585 C589 1.384 1_565 S
C586 C584 1.363 . S
C586 C587 1.365 1_566 S
C586 C590 1.524 . S
C587 C579 1.513 . S
C587 C586 1.365 1_544 S
C587 C588 1.399 1_554 S
C588 C587 1.399 1_556 S
C588 C589 1.404 . S
C588 C591 1.539 1_556 S
C589 C585 1.384 1_545 S
C589 C588 1.404 . S
C589 H601 0.930 . S
C590 C586 1.524 . S
C590 H602 0.956 . S
C590 H603 0.961 1_556 S
C590 H604 0.961 . S
C591 C588 1.539 1_554 S
C591 H605 0.958 . S
C591 H606 0.961 . S
C591 H607 0.960 . S
H592 C576 0.931 . S
H593 C581 0.929 . S
H594 C582 0.960 1_556 S
H595 C582 0.962 1_556 S
H596 C582 0.960 . S
H597 C583 0.961 . S
H598 C583 0.961 . S
H599 C583 0.961 . S
H600 C584 0.931 . S
H601 C589 0.930 . S
H602 C590 0.956 . S
H603 C590 0.961 1_554 S
H604 C590 0.961 . S
H605 C591 0.958 . S
H606 C591 0.961 . S
H607 C591 0.960 . S
C608 C609 1.391 . S
C608 C610 1.394 . S
C608 H624 0.931 . S
C609 C608 1.391 . S
C609 C613 1.376 . S
C610 C608 1.394 . S
C610 C611 1.369 . S
C610 C614 1.531 . S
C611 C610 1.369 . S
C611 C612 1.410 . S
C611 C619 1.503 1_554 S
C612 C611 1.410 . S
C612 C613 1.392 . S
C612 C615 1.511 . S
C613 C609 1.376 . S
C613 C612 1.392 . S
C613 H625 0.929 . S
C614 C610 1.531 . S
C614 H626 0.960 . S
C614 H627 0.962 . S
C614 H628 0.960 . S
C615 C612 1.511 . S
C615 H629 0.961 . S
C615 H630 0.961 . S
C615 H631 0.961 . S
C616 C617 1.370 . S
C616 C618 1.363 . S
C616 H632 0.931 . S
C617 C616 1.370 . S
C617 C621 1.408 . S
C618 C616 1.363 . S
C618 C619 1.370 . S
C618 C622 1.524 1_556 S
C619 C611 1.503 1_556 S
C619 C618 1.370 . S
C619 C620 1.403 . S
C620 C619 1.403 . S
C620 C621 1.404 . S
C620 C623 1.539 . S
C621 C617 1.408 . S
C621 C620 1.404 . S
C621 H633 0.930 . S
C622 C618 1.524 1_554 S
C622 H634 0.956 . S
C622 H635 0.961 . S
C622 H636 0.961 . S
C623 C620 1.539 . S
C623 H637 0.958 . S
C623 H638 0.961 . S
C623 H639 0.960 . S
H624 C608 0.931 . S
H625 C613 0.929 . S
H626 C614 0.960 . S
H627 C614 0.962 . S
H628 C614 0.960 . S
H629 C615 0.961 . S
H630 C615 0.961 . S
H631 C615 0.961 . S
H632 C616 0.931 . S
H633 C621 0.930 . S
H634 C622 0.956 . S
H635 C622 0.961 . S
H636 C622 0.961 . S
H637 C623 0.958 . S
H638 C623 0.961 . S
H639 C623 0.960 . S
C640 C641 1.391 . S
C640 C642 1.394 . S
C640 H656 0.931 . S
C641 C640 1.391 . S
C641 C645 1.376 . S
C642 C640 1.394 . S
C642 C643 1.369 . S
C642 C646 1.531 . S
C643 C642 1.369 . S
C643 C644 1.410 . S
C643 C651 1.503 1_554 S
C644 C643 1.410 . S
C644 C645 1.392 . S
C644 C647 1.511 . S
C645 C641 1.376 . S
C645 C644 1.392 . S
C645 H657 0.929 . S
C646 C642 1.531 . S
C646 H658 0.960 1_554 S
C646 H659 0.962 1_554 S
C646 H660 0.960 . S
C647 C644 1.511 . S
C647 H661 0.961 . S
C647 H662 0.961 . S
C647 H663 0.961 . S
C648 C649 1.370 . S
C648 C650 1.363 . S
C648 H664 0.931 . S
C649 C648 1.370 . S
C649 C653 1.408 . S
C650 C648 1.363 . S
C650 C651 1.370 . S
C650 C654 1.524 1_556 S
C651 C643 1.503 1_556 S
C651 C650 1.370 . S
C651 C652 1.403 . S
C652 C651 1.403 . S
C652 C653 1.404 . S
C652 C655 1.539 . S
C653 C649 1.408 . S
C653 C652 1.404 . S
C653 H665 0.930 . S
C654 C650 1.524 1_554 S
C654 H666 0.956 . S
C654 H667 0.961 . S
C654 H668 0.961 1_554 S
C655 C652 1.539 . S
C655 H669 0.958 . S
C655 H670 0.961 . S
C655 H671 0.960 1_556 S
H656 C640 0.931 . S
H657 C645 0.929 . S
H658 C646 0.960 1_556 S
H659 C646 0.962 1_556 S
H660 C646 0.960 . S
H661 C647 0.961 . S
H662 C647 0.961 . S
H663 C647 0.961 . S
H664 C648 0.931 . S
H665 C653 0.930 . S
H666 C654 0.956 . S
H667 C654 0.961 . S
H668 C654 0.961 1_556 S
H669 C655 0.958 . S
H670 C655 0.961 . S
H671 C655 0.960 1_554 S
C672 C673 1.391 1_455 S
C672 C674 1.394 . S
C672 H688 0.931 . S
C673 C672 1.391 1_655 S
C673 C677 1.376 . S
C674 C672 1.394 . S
C674 C675 1.369 1_455 S
C674 C678 1.531 . S
C675 C674 1.369 1_655 S
C675 C676 1.410 . S
C675 C683 1.503 . S
C676 C675 1.410 . S
C676 C677 1.392 . S
C676 C679 1.511 . S
C677 C673 1.376 . S
C677 C676 1.392 . S
C677 H689 0.929 . S
C678 C674 1.531 . S
C678 H690 0.960 . S
C678 H691 0.962 . S
C678 H692 0.960 . S
C679 C676 1.511 . S
C679 H693 0.961 . S
C679 H694 0.961 1_554 S
C679 H695 0.961 . S
C680 C681 1.370 1_455 S
C680 C682 1.363 . S
C680 H696 0.931 . S
C681 C680 1.370 1_655 S
C681 C685 1.408 . S
C682 C680 1.363 . S
C682 C683 1.370 1_456 S
C682 C686 1.524 . S
C683 C675 1.503 . S
C683 C682 1.370 1_654 S
C683 C684 1.403 1_554 S
C684 C683 1.403 1_556 S
C684 C685 1.404 . S
C684 C687 1.539 1_556 S
C685 C681 1.408 . S
C685 C684 1.404 . S
C685 H697 0.930 . S
C686 C682 1.524 . S
C686 H698 0.956 1_556 S
C686 H699 0.961 . S
C686 H700 0.961 . S
C687 C684 1.539 1_554 S
C687 H701 0.958 . S
C687 H702 0.961 . S
C687 H703 0.960 . S
H688 C672 0.931 . S
H689 C677 0.929 . S
H690 C678 0.960 . S
H691 C678 0.962 . S
H692 C678 0.960 . S
H693 C679 0.961 . S
H694 C679 0.961 1_556 S
H695 C679 0.961 . S
H696 C680 0.931 . S
H697 C685 0.930 . S
H698 C686 0.956 1_554 S
H699 C686 0.961 . S
H700 C686 0.961 . S
H701 C687 0.958 . S
H702 C687 0.961 . S
H703 C687 0.960 . S
C704 C705 1.391 . S
C704 C706 1.394 . S
C704 H720 0.931 . S
C705 C704 1.391 . S
C705 C709 1.376 1_455 S
C706 C704 1.394 . S
C706 C707 1.369 1_455 S
C706 C710 1.531 . S
C707 C706 1.369 1_655 S
C707 C708 1.410 . S
C707 C715 1.503 . S
C708 C707 1.410 . S
C708 C709 1.392 . S
C708 C711 1.511 . S
C709 C705 1.376 1_655 S
C709 C708 1.392 . S
C709 H721 0.929 . S
C710 C706 1.531 . S
C710 H722 0.960 . S
C710 H723 0.962 . S
C710 H724 0.960 . S
C711 C708 1.511 . S
C711 H725 0.961 . S
C711 H726 0.961 . S
C711 H727 0.961 . S
C712 C713 1.370 . S
C712 C714 1.363 . S
C712 H728 0.931 . S
C713 C712 1.370 . S
C713 C717 1.408 . S
C714 C712 1.363 . S
C714 C715 1.370 . S
C714 C718 1.524 . S
C715 C707 1.503 . S
C715 C714 1.370 . S
C715 C716 1.403 . S
C716 C715 1.403 . S
C716 C717 1.404 . S
C716 C719 1.539 . S
C717 C713 1.408 . S
C717 C716 1.404 . S
C717 H729 0.930 . S
C718 C714 1.524 . S
C718 H730 0.956 1_655 S
C718 H731 0.961 . S
C718 H732 0.961 . S
C719 C716 1.539 . S
C719 H733 0.958 . S
C719 H734 0.961 . S
C719 H735 0.960 . S
H720 C704 0.931 . S
H721 C709 0.929 . S
H722 C710 0.960 . S
H723 C710 0.962 . S
H724 C710 0.960 . S
H725 C711 0.961 . S
H726 C711 0.961 . S
H727 C711 0.961 . S
H728 C712 0.931 . S
H729 C717 0.930 . S
H730 C718 0.956 1_455 S
H731 C718 0.961 . S
H732 C718 0.961 . S
H733 C719 0.958 . S
H734 C719 0.961 . S
H735 C719 0.960 . S
C736 C737 1.391 . S
C736 C738 1.394 . S
C736 H752 0.931 . S
C737 C736 1.391 . S
C737 C741 1.376 1_545 S
C738 C736 1.394 . S
C738 C739 1.369 1_545 S
C738 C742 1.531 . S
C739 C738 1.369 1_565 S
C739 C740 1.410 . S
C739 C747 1.503 . S
C740 C739 1.410 . S
C740 C741 1.392 . S
C740 C743 1.511 . S
C741 C737 1.376 1_565 S
C741 C740 1.392 . S
C741 H753 0.929 . S
C742 C738 1.531 . S
C742 H754 0.960 . S
C742 H755 0.962 . S
C742 H756 0.960 . S
C743 C740 1.511 . S
C743 H757 0.961 . S
C743 H758 0.961 . S
C743 H759 0.961 . S
C744 C745 1.370 . S
C744 C746 1.363 . S
C744 H760 0.931 . S
C745 C744 1.370 . S
C745 C749 1.408 . S
C746 C744 1.363 . S
C746 C747 1.370 . S
C746 C750 1.524 . S
C747 C739 1.503 . S
C747 C746 1.370 . S
C747 C748 1.403 . S
C748 C747 1.403 . S
C748 C749 1.404 . S
C748 C751 1.539 1_565 S
C749 C745 1.408 . S
C749 C748 1.404 . S
C749 H761 0.930 . S
C750 C746 1.524 . S
C750 H762 0.956 . S
C750 H763 0.961 . S
C750 H764 0.961 . S
C751 C748 1.539 1_545 S
C751 H765 0.958 . S
C751 H766 0.961 . S
C751 H767 0.960 . S
H752 C736 0.931 . S
H753 C741 0.929 . S
H754 C742 0.960 . S
H755 C742 0.962 . S
H756 C742 0.960 . S
H757 C743 0.961 . S
H758 C743 0.961 . S
H759 C743 0.961 . S
H760 C744 0.931 . S
H761 C749 0.930 . S
H762 C750 0.956 . S
H763 C750 0.961 . S
H764 C750 0.961 . S
H765 C751 0.958 . S
H766 C751 0.961 . S
H767 C751 0.960 . S
C768 C769 1.391 . S
C768 C770 1.394 . S
C768 H784 0.931 . S
C769 C768 1.391 . S
C769 C773 1.376 . S
C770 C768 1.394 . S
C770 C771 1.369 . S
C770 C774 1.531 . S
C771 C770 1.369 . S
C771 C772 1.410 . S
C771 C779 1.503 . S
C772 C771 1.410 . S
C772 C773 1.392 . S
C772 C775 1.511 . S
C773 C769 1.376 . S
C773 C772 1.392 . S
C773 H785 0.929 . S
C774 C770 1.531 . S
C774 H786 0.960 . S
C774 H787 0.962 . S
C774 H788 0.960 . S
C775 C772 1.511 . S
C775 H789 0.961 . S
C775 H790 0.961 . S
C775 H791 0.961 . S
C776 C777 1.370 . S
C776 C778 1.363 . S
C776 H792 0.931 . S
C777 C776 1.370 . S
C777 C781 1.408 . S
C778 C776 1.363 . S
C778 C779 1.370 . S
C778 C782 1.524 . S
C779 C771 1.503 . S
C779 C778 1.370 . S
C779 C780 1.403 . S
C780 C779 1.403 . S
C780 C781 1.404 . S
C780 C783 1.539 . S
C781 C777 1.408 . S
C781 C780 1.404 . S
C781 H793 0.930 . S
C782 C778 1.524 . S
C782 H794 0.956 . S
C782 H795 0.961 . S
C782 H796 0.961 . S
C783 C780 1.539 . S
C783 H797 0.958 . S
C783 H798 0.961 . S
C783 H799 0.960 . S
H784 C768 0.931 . S
H785 C773 0.929 . S
H786 C774 0.960 . S
H787 C774 0.962 . S
H788 C774 0.960 . S
H789 C775 0.961 . S
H790 C775 0.961 . S
H791 C775 0.961 . S
H792 C776 0.931 . S
H793 C781 0.930 . S
H794 C782 0.956 . S
H795 C782 0.961 . S
H796 C782 0.961 . S
H797 C783 0.958 . S
H798 C783 0.961 . S
H799 C783 0.960 . S
C800 C801 1.391 . S
C800 C802 1.394 . S
C800 H816 0.931 . S
C801 C800 1.391 . S
C801 C805 1.376 . S
C802 C800 1.394 . S
C802 C803 1.369 . S
C802 C806 1.531 . S
C803 C802 1.369 . S
C803 C804 1.410 . S
C803 C811 1.503 . S
C804 C803 1.410 . S
C804 C805 1.392 . S
C804 C807 1.511 . S
C805 C801 1.376 . S
C805 C804 1.392 . S
C805 H817 0.929 . S
C806 C802 1.531 . S
C806 H818 0.960 . S
C806 H819 0.962 . S
C806 H820 0.960 . S
C807 C804 1.511 . S
C807 H821 0.961 . S
C807 H822 0.961 . S
C807 H823 0.961 . S
C808 C809 1.370 . S
C808 C810 1.363 . S
C808 H824 0.931 . S
C809 C808 1.370 . S
C809 C813 1.408 . S
C810 C808 1.363 . S
C810 C811 1.370 . S
C810 C814 1.524 . S
C811 C803 1.503 . S
C811 C810 1.370 . S
C811 C812 1.403 . S
C812 C811 1.403 . S
C812 C813 1.404 . S
C812 C815 1.539 . S
C813 C809 1.408 . S
C813 C812 1.404 . S
C813 H825 0.930 . S
C814 C810 1.524 . S
C814 H826 0.956 . S
C814 H827 0.961 . S
C814 H828 0.961 . S
C815 C812 1.539 . S
C815 H829 0.958 . S
C815 H830 0.961 . S
C815 H831 0.960 . S
H816 C800 0.931 . S
H817 C805 0.929 . S
H818 C806 0.960 . S
H819 C806 0.962 . S
H820 C806 0.960 . S
H821 C807 0.961 . S
H822 C807 0.961 . S
H823 C807 0.961 . S
H824 C808 0.931 . S
H825 C813 0.930 . S
H826 C814 0.956 . S
H827 C814 0.961 . S
H828 C814 0.961 . S
H829 C815 0.958 . S
H830 C815 0.961 . S
H831 C815 0.960 . S
C832 C833 1.392 . S
C832 C834 1.394 1_655 S
C832 H848 0.931 . S
C833 C832 1.392 . S
C833 C837 1.364 1_655 S
C834 C832 1.394 1_455 S
C834 C835 1.369 . S
C834 C838 1.531 . S
C835 C834 1.369 . S
C835 C836 1.410 . S
C835 C843 1.503 . S
C836 C835 1.410 . S
C836 C837 1.392 . S
C836 C839 1.511 1_554 S
C837 C833 1.364 1_455 S
C837 C836 1.392 . S
C837 H849 0.929 . S
C838 C834 1.531 . S
C838 H850 0.960 . S
C838 H851 0.962 1_455 S
C838 H852 0.960 . S
C839 C836 1.511 1_556 S
C839 H853 0.961 . S
C839 H854 0.961 . S
C839 H855 0.961 . S
C840 C841 1.370 . S
C840 C842 1.363 . S
C840 H856 0.931 . S
C841 C840 1.370 . S
C841 C845 1.408 . S
C842 C840 1.363 . S
C842 C843 1.370 1_556 S
C842 C846 1.524 1_455 S
C843 C835 1.503 . S
C843 C842 1.370 1_554 S
C843 C844 1.403 . S
C844 C843 1.403 . S
C844 C845 1.404 1_554 S
C844 C847 1.539 . S
C845 C841 1.408 . S
C845 C844 1.404 1_556 S
C845 H857 0.930 . S
C846 C842 1.524 1_655 S
C846 H858 0.956 1_556 S
C846 H859 0.961 . S
C846 H860 0.961 . S
C847 C844 1.539 . S
C847 H861 0.958 . S
C847 H862 0.961 . S
C847 H863 0.960 . S
H848 C832 0.931 . S
H849 C837 0.929 . S
H850 C838 0.960 . S
H851 C838 0.962 1_655 S
H852 C838 0.960 . S
H853 C839 0.961 . S
H854 C839 0.961 . S
H855 C839 0.961 . S
H856 C840 0.931 . S
H857 C845 0.930 . S
H858 C846 0.956 1_554 S
H859 C846 0.961 . S
H860 C846 0.961 . S
H861 C847 0.958 . S
H862 C847 0.961 . S
H863 C847 0.960 . S
C864 C865 1.391 . S
C864 C866 1.394 . S
C864 H880 0.931 . S
C865 C864 1.391 . S
C865 C869 1.376 1_565 S
C866 C864 1.394 . S
C866 C867 1.369 1_565 S
C866 C870 1.531 1_554 S
C867 C866 1.369 1_545 S
C867 C868 1.410 . S
C867 C875 1.503 . S
C868 C867 1.410 . S
C868 C869 1.392 . S
C868 C871 1.511 . S
C869 C865 1.376 1_545 S
C869 C868 1.392 . S
C869 H881 0.929 . S
C870 C866 1.531 1_556 S
C870 H882 0.960 . S
C870 H883 0.924 1_565 S
C870 H884 0.960 . S
C871 C868 1.511 . S
C871 H885 0.961 . S
C871 H886 0.961 . S
C871 H887 0.961 . S
C872 C873 1.370 . S
C872 C874 1.363 . S
C872 H888 0.931 . S
C873 C872 1.370 . S
C873 C877 1.408 . S
C874 C872 1.363 . S
C874 C875 1.370 1_556 S
C874 C878 1.524 . S
C875 C867 1.503 . S
C875 C874 1.370 1_554 S
C875 C876 1.403 . S
C876 C875 1.403 . S
C876 C877 1.404 1_554 S
C876 C879 1.539 1_545 S
C877 C873 1.408 . S
C877 C876 1.404 1_556 S
C877 H889 0.930 . S
C878 C874 1.524 . S
C878 H890 0.956 . S
C878 H891 0.961 1_556 S
C878 H892 0.961 . S
C879 C876 1.539 1_565 S
C879 H893 0.958 . S
C879 H894 0.961 . S
C879 H895 0.960 . S
H880 C864 0.931 . S
H881 C869 0.929 . S
H882 C870 0.960 . S
H883 C870 0.924 1_545 S
H884 C870 0.960 . S
H885 C871 0.961 . S
H886 C871 0.961 . S
H887 C871 0.961 . S
H888 C872 0.931 . S
H889 C877 0.930 . S
H890 C878 0.956 . S
H891 C878 0.961 1_554 S
H892 C878 0.961 . S
H893 C879 0.958 . S
H894 C879 0.961 . S
H895 C879 0.960 . S
C896 C897 1.391 . S
C896 C898 1.394 . S
C896 H912 0.931 . S
C897 C896 1.391 . S
C897 C901 1.376 . S
C898 C896 1.394 . S
C898 C899 1.369 . S
C898 C902 1.531 . S
C899 C898 1.369 . S
C899 C900 1.410 . S
C899 C907 1.503 . S
C900 C899 1.410 . S
C900 C901 1.392 . S
C900 C903 1.511 1_554 S
C901 C897 1.376 . S
C901 C900 1.392 . S
C901 H913 0.929 . S
C902 C898 1.531 . S
C902 H914 0.960 . S
C902 H915 0.962 . S
C902 H916 0.960 . S
C903 C900 1.511 1_556 S
C903 H917 0.961 . S
C903 H918 0.961 . S
C903 H919 0.961 . S
C904 C905 1.370 . S
C904 C906 1.363 1_556 S
C904 H920 0.931 . S
C905 C904 1.370 . S
C905 C909 1.408 . S
C906 C904 1.363 1_554 S
C906 C907 1.370 . S
C906 C910 1.524 . S
C907 C899 1.503 . S
C907 C906 1.370 . S
C907 C908 1.403 1_554 S
C908 C907 1.403 1_556 S
C908 C909 1.404 . S
C908 C911 1.539 1_556 S
C909 C905 1.408 . S
C909 C908 1.404 . S
C909 H921 0.930 . S
C910 C906 1.524 . S
C910 H922 0.956 . S
C910 H923 0.961 . S
C910 H924 0.961 . S
C911 C908 1.539 1_554 S
C911 H925 0.958 . S
C911 H926 0.961 1_554 S
C911 H927 0.960 . S
H912 C896 0.931 . S
H913 C901 0.929 . S
H914 C902 0.960 . S
H915 C902 0.962 . S
H916 C902 0.960 . S
H917 C903 0.961 . S
H918 C903 0.961 . S
H919 C903 0.961 . S
H920 C904 0.931 . S
H921 C909 0.930 . S
H922 C910 0.956 . S
H923 C910 0.961 . S
H924 C910 0.961 . S
H925 C911 0.958 . S
H926 C911 0.961 1_556 S
H927 C911 0.960 . S
C928 C929 1.391 . S
C928 C930 1.394 . S
C928 H944 0.931 . S
C929 C928 1.391 . S
C929 C933 1.376 . S
C930 C928 1.394 . S
C930 C931 1.369 . S
C930 C934 1.531 . S
C931 C930 1.369 . S
C931 C932 1.410 . S
C931 C939 1.503 . S
C932 C931 1.410 . S
C932 C933 1.392 . S
C932 C935 1.511 . S
C933 C929 1.376 . S
C933 C932 1.392 . S
C933 H945 0.929 . S
C934 C930 1.531 . S
C934 H946 0.960 . S
C934 H947 0.962 . S
C934 H948 0.960 . S
C935 C932 1.511 . S
C935 H949 0.961 . S
C935 H950 0.961 . S
C935 H951 0.961 . S
C936 C937 1.370 . S
C936 C938 1.363 . S
C936 H952 0.931 . S
C937 C936 1.370 . S
C937 C941 1.408 1_556 S
C938 C936 1.363 . S
C938 C939 1.370 1_556 S
C938 C942 1.524 . S
C939 C931 1.503 . S
C939 C938 1.370 1_554 S
C939 C940 1.403 . S
C940 C939 1.403 . S
C940 C941 1.404 . S
C940 C943 1.539 . S
C941 C937 1.408 1_554 S
C941 C940 1.404 . S
C941 H953 0.930 . S
C942 C938 1.524 . S
C942 H954 0.956 . S
C942 H955 0.961 . S
C942 H956 0.961 . S
C943 C940 1.539 . S
C943 H957 0.958 . S
C943 H958 0.961 . S
C943 H959 0.960 . S
H944 C928 0.931 . S
H945 C933 0.929 . S
H946 C934 0.960 . S
H947 C934 0.962 . S
H948 C934 0.960 . S
H949 C935 0.961 . S
H950 C935 0.961 . S
H951 C935 0.961 . S
H952 C936 0.931 . S
H953 C941 0.930 . S
H954 C942 0.956 . S
H955 C942 0.961 . S
H956 C942 0.961 . S
H957 C943 0.958 . S
H958 C943 0.961 . S
H959 C943 0.960 . S
C960 C961 1.391 1_655 S
C960 C962 1.394 . S
C960 H976 0.931 . S
C961 C960 1.391 1_455 S
C961 C965 1.376 . S
C962 C960 1.394 . S
C962 C963 1.369 1_655 S
C962 C966 1.531 . S
C963 C962 1.369 1_455 S
C963 C964 1.410 . S
C963 C971 1.503 . S
C964 C963 1.410 . S
C964 C965 1.392 . S
C964 C967 1.511 . S
C965 C961 1.376 . S
C965 C964 1.392 . S
C965 H977 0.929 . S
C966 C962 1.531 . S
C966 H978 0.960 . S
C966 H979 0.962 . S
C966 H980 0.960 . S
C967 C964 1.511 . S
C967 H981 0.961 . S
C967 H982 0.961 . S
C967 H983 0.961 . S
C968 C969 1.370 . S
C968 C970 1.363 . S
C968 H984 0.931 1_455 S
C969 C968 1.370 . S
C969 C973 1.408 . S
C970 C968 1.363 . S
C970 C971 1.370 . S
C970 C974 1.524 1_455 S
C971 C963 1.503 . S
C971 C970 1.370 . S
C971 C972 1.403 . S
C972 C971 1.403 . S
C972 C973 1.404 . S
C972 C975 1.539 . S
C973 C969 1.408 . S
C973 C972 1.404 . S
C973 H985 0.930 . S
C974 C970 1.524 1_655 S
C974 H986 0.956 . S
C974 H987 0.961 1_655 S
C974 H988 0.961 . S
C975 C972 1.539 . S
C975 H989 0.958 . S
C975 H990 0.961 . S
C975 H991 0.960 . S
H976 C960 0.931 . S
H977 C965 0.929 . S
H978 C966 0.960 . S
H979 C966 0.962 . S
H980 C966 0.960 . S
H981 C967 0.961 . S
H982 C967 0.961 . S
H983 C967 0.961 . S
H984 C968 0.931 1_655 S
H985 C973 0.930 . S
H986 C974 0.956 . S
H987 C974 0.961 1_455 S
H988 C974 0.961 . S
H989 C975 0.958 . S
H990 C975 0.961 . S
H991 C975 0.960 . S
C992 C993 1.391 1_565 S
C992 C994 1.394 . S
C992 H1008 0.931 . S
C993 C992 1.391 1_545 S
C993 C997 1.376 . S
C994 C992 1.394 . S
C994 C995 1.369 1_565 S
C994 C998 1.531 . S
C995 C994 1.369 1_545 S
C995 C996 1.410 . S
C995 C1003 1.503 . S
C996 C995 1.410 . S
C996 C997 1.392 . S
C996 C999 1.511 . S
C997 C993 1.376 . S
C997 C996 1.392 . S
C997 H1009 0.929 . S
C998 C994 1.531 . S
C998 H1010 0.960 . S
C998 H1011 0.962 . S
C998 H1012 0.960 . S
C999 C996 1.511 . S
C999 H1013 0.961 . S
C999 H1014 0.961 . S
C999 H1015 0.961 . S
C1000 C1001 1.370 . S
C1000 C1002 1.363 . S
C1000 H1016 0.931 . S
C1001 C1000 1.370 . S
C1001 C1005 1.408 . S
C1002 C1000 1.363 . S
C1002 C1003 1.370 . S
C1002 C1006 1.524 . S
C1003 C995 1.503 . S
C1003 C1002 1.370 . S
C1003 C1004 1.403 . S
C1004 C1003 1.403 . S
C1004 C1005 1.404 . S
C1004 C1007 1.539 . S
C1005 C1001 1.408 . S
C1005 C1004 1.404 . S
C1005 H1017 0.930 . S
C1006 C1002 1.524 . S
C1006 H1018 0.956 1_545 S
C1006 H1019 0.961 . S
C1006 H1020 0.961 . S
C1007 C1004 1.539 . S
C1007 H1021 0.958 1_545 S
C1007 H1022 0.961 . S
C1007 H1023 0.960 . S
H1008 C992 0.931 . S
H1009 C997 0.929 . S
H1010 C998 0.960 . S
H1011 C998 0.962 . S
H1012 C998 0.960 . S
H1013 C999 0.961 . S
H1014 C999 0.961 . S
H1015 C999 0.961 . S
H1016 C1000 0.931 . S
H1017 C1005 0.930 . S
H1018 C1006 0.956 1_565 S
H1019 C1006 0.961 . S
H1020 C1006 0.961 . S
H1021 C1007 0.958 1_565 S
H1022 C1007 0.961 . S
H1023 C1007 0.960 . S
C1024 C1025 1.391 . S
C1024 C1026 1.394 . S
C1024 H1040 0.931 . S
C1025 C1024 1.391 . S
C1025 C1029 1.376 . S
C1026 C1024 1.394 . S
C1026 C1027 1.369 . S
C1026 C1030 1.531 . S
C1027 C1026 1.369 . S
C1027 C1028 1.410 . S
C1027 C1035 1.503 . S
C1028 C1027 1.410 . S
C1028 C1029 1.392 . S
C1028 C1031 1.511 . S
C1029 C1025 1.376 . S
C1029 C1028 1.392 . S
C1029 H1041 0.929 . S
C1030 C1026 1.531 . S
C1030 H1042 0.960 . S
C1030 H1043 0.962 . S
C1030 H1044 0.960 . S
C1031 C1028 1.511 . S
C1031 H1045 0.961 . S
C1031 H1046 0.961 . S
C1031 H1047 0.961 . S
C1032 C1033 1.370 . S
C1032 C1034 1.363 . S
C1032 H1048 0.931 . S
C1033 C1032 1.370 . S
C1033 C1037 1.408 . S
C1034 C1032 1.363 . S
C1034 C1035 1.370 . S
C1034 C1038 1.524 . S
C1035 C1027 1.503 . S
C1035 C1034 1.370 . S
C1035 C1036 1.403 . S
C1036 C1035 1.403 . S
C1036 C1037 1.404 . S
C1036 C1039 1.539 . S
C1037 C1033 1.408 . S
C1037 C1036 1.404 . S
C1037 H1049 0.930 . S
C1038 C1034 1.524 . S
C1038 H1050 0.956 . S
C1038 H1051 0.961 . S
C1038 H1052 0.961 . S
C1039 C1036 1.539 . S
C1039 H1053 0.958 . S
C1039 H1054 0.961 . S
C1039 H1055 0.960 . S
H1040 C1024 0.931 . S
H1041 C1029 0.929 . S
H1042 C1030 0.960 . S
H1043 C1030 0.962 . S
H1044 C1030 0.960 . S
H1045 C1031 0.961 . S
H1046 C1031 0.961 . S
H1047 C1031 0.961 . S
H1048 C1032 0.931 . S
H1049 C1037 0.930 . S
H1050 C1038 0.956 . S
H1051 C1038 0.961 . S
H1052 C1038 0.961 . S
H1053 C1039 0.958 . S
H1054 C1039 0.961 . S
H1055 C1039 0.960 . S
C1056 C1057 1.391 . S
C1056 C1058 1.394 . S
C1056 H1072 0.931 . S
C1057 C1056 1.391 . S
C1057 C1061 1.376 . S
C1058 C1056 1.394 . S
C1058 C1059 1.369 . S
C1058 C1062 1.531 . S
C1059 C1058 1.369 . S
C1059 C1060 1.410 . S
C1059 C1067 1.503 . S
C1060 C1059 1.410 . S
C1060 C1061 1.392 . S
C1060 C1063 1.511 . S
C1061 C1057 1.376 . S
C1061 C1060 1.392 . S
C1061 H1073 0.929 . S
C1062 C1058 1.531 . S
C1062 H1074 0.960 . S
C1062 H1075 0.962 . S
C1062 H1076 0.960 . S
C1063 C1060 1.511 . S
C1063 H1077 0.961 . S
C1063 H1078 0.961 . S
C1063 H1079 0.961 . S
C1064 C1065 1.370 . S
C1064 C1066 1.363 . S
C1064 H1080 0.931 . S
C1065 C1064 1.370 . S
C1065 C1069 1.408 . S
C1066 C1064 1.363 . S
C1066 C1067 1.370 . S
C1066 C1070 1.524 . S
C1067 C1059 1.503 . S
C1067 C1066 1.370 . S
C1067 C1068 1.403 . S
C1068 C1067 1.403 . S
C1068 C1069 1.404 . S
C1068 C1071 1.539 . S
C1069 C1065 1.408 . S
C1069 C1068 1.404 . S
C1069 H1081 0.930 . S
C1070 C1066 1.524 . S
C1070 H1082 0.956 . S
C1070 H1083 0.961 . S
C1070 H1084 0.961 . S
C1071 C1068 1.539 . S
C1071 H1085 0.958 . S
C1071 H1086 0.961 . S
C1071 H1087 0.960 . S
H1072 C1056 0.931 . S
H1073 C1061 0.929 . S
H1074 C1062 0.960 . S
H1075 C1062 0.962 . S
H1076 C1062 0.960 . S
H1077 C1063 0.961 . S
H1078 C1063 0.961 . S
H1079 C1063 0.961 . S
H1080 C1064 0.931 . S
H1081 C1069 0.930 . S
H1082 C1070 0.956 . S
H1083 C1070 0.961 . S
H1084 C1070 0.961 . S
H1085 C1071 0.958 . S
H1086 C1071 0.961 . S
H1087 C1071 0.960 . S
C1088 C1089 1.391 1_455 S
C1088 C1090 1.394 . S
C1088 H1104 0.931 . S
C1089 C1088 1.391 1_655 S
C1089 C1093 1.376 . S
C1090 C1088 1.394 . S
C1090 C1091 1.369 1_455 S
C1090 C1094 1.531 . S
C1091 C1090 1.369 1_655 S
C1091 C1092 1.410 . S
C1091 C1099 1.503 . S
C1092 C1091 1.410 . S
C1092 C1093 1.392 . S
C1092 C1095 1.511 . S
C1093 C1089 1.376 . S
C1093 C1092 1.392 . S
C1093 H1105 0.929 . S
C1094 C1090 1.531 . S
C1094 H1106 0.960 . S
C1094 H1107 0.962 . S
C1094 H1108 0.960 . S
C1095 C1092 1.511 . S
C1095 H1109 0.961 . S
C1095 H1110 0.961 . S
C1095 H1111 0.961 . S
C1096 C1097 1.351 1_455 S
C1096 C1098 1.365 . S
C1096 H1112 0.950 . S
C1097 C1096 1.351 1_655 S
C1097 C1101 1.408 . S
C1098 C1096 1.365 . S
C1098 C1099 1.370 1_455 S
C1098 C1102 1.524 . S
C1099 C1091 1.503 . S
C1099 C1098 1.370 1_655 S
C1099 C1100 1.403 . S
C1100 C1099 1.403 . S
C1100 C1101 1.404 . S
C1100 C1103 1.539 . S
C1101 C1097 1.408 . S
C1101 C1100 1.404 . S
C1101 H1113 0.930 . S
C1102 C1098 1.524 . S
C1102 H1114 0.956 . S
C1102 H1115 0.961 . S
C1102 H1116 0.961 . S
C1103 C1100 1.539 . S
C1103 H1117 0.958 . S
C1103 H1118 0.961 . S
C1103 H1119 0.960 . S
H1104 C1088 0.931 . S
H1105 C1093 0.929 . S
H1106 C1094 0.960 . S
H1107 C1094 0.962 . S
H1108 C1094 0.960 . S
H1109 C1095 0.961 . S
H1110 C1095 0.961 . S
H1111 C1095 0.961 . S
H1112 C1096 0.950 . S
H1113 C1101 0.930 . S
H1114 C1102 0.956 . S
H1115 C1102 0.961 . S
H1116 C1102 0.961 . S
H1117 C1103 0.958 . S
H1118 C1103 0.961 . S
H1119 C1103 0.960 . S
C1120 C1121 1.391 . S
C1120 C1122 1.394 . S
C1120 H1136 0.931 . S
C1121 C1120 1.391 . S
C1121 C1125 1.376 1_565 S
C1122 C1120 1.394 . S
C1122 C1123 1.369 . S
C1122 C1126 1.531 . S
C1123 C1122 1.369 . S
C1123 C1124 1.410 1_565 S
C1123 C1131 1.503 . S
C1124 C1123 1.410 1_545 S
C1124 C1125 1.392 . S
C1124 C1127 1.511 . S
C1125 C1121 1.376 1_545 S
C1125 C1124 1.392 . S
C1125 H1137 0.929 . S
C1126 C1122 1.531 . S
C1126 H1138 0.960 . S
C1126 H1139 0.962 . S
C1126 H1140 0.960 . S
C1127 C1124 1.511 . S
C1127 H1141 0.961 . S
C1127 H1142 0.961 . S
C1127 H1143 0.961 . S
C1128 C1129 1.370 1_545 S
C1128 C1130 1.363 . S
C1128 H1144 0.931 . S
C1129 C1128 1.370 1_565 S
C1129 C1133 1.408 . S
C1130 C1128 1.363 . S
C1130 C1131 1.370 1_545 S
C1130 C1134 1.524 . S
C1131 C1123 1.503 . S
C1131 C1130 1.370 1_565 S
C1131 C1132 1.403 . S
C1132 C1131 1.403 . S
C1132 C1133 1.404 . S
C1132 C1135 1.539 . S
C1133 C1129 1.408 . S
C1133 C1132 1.404 . S
C1133 H1145 0.930 . S
C1134 C1130 1.524 . S
C1134 H1146 0.956 . S
C1134 H1147 0.961 . S
C1134 H1148 0.961 . S
C1135 C1132 1.539 . S
C1135 H1149 0.958 . S
C1135 H1150 0.961 . S
C1135 H1151 0.960 . S
H1136 C1120 0.931 . S
H1137 C1125 0.929 . S
H1138 C1126 0.960 . S
H1139 C1126 0.962 . S
H1140 C1126 0.960 . S
H1141 C1127 0.961 . S
H1142 C1127 0.961 . S
H1143 C1127 0.961 . S
H1144 C1128 0.931 . S
H1145 C1133 0.930 . S
H1146 C1134 0.956 . S
H1147 C1134 0.961 . S
H1148 C1134 0.961 . S
H1149 C1135 0.958 . S
H1150 C1135 0.961 . S
H1151 C1135 0.960 . S
C1152 C1153 1.391 . S
C1152 C1154 1.394 . S
C1152 H1168 0.931 . S
C1153 C1152 1.391 . S
C1153 C1157 1.376 . S
C1154 C1152 1.394 . S
C1154 C1155 1.369 . S
C1154 C1158 1.531 . S
C1155 C1154 1.369 . S
C1155 C1156 1.410 . S
C1155 C1163 1.503 . S
C1156 C1155 1.410 . S
C1156 C1157 1.392 . S
C1156 C1159 1.511 . S
C1157 C1153 1.376 . S
C1157 C1156 1.392 . S
C1157 H1169 0.929 . S
C1158 C1154 1.531 . S
C1158 H1170 0.960 . S
C1158 H1171 0.962 . S
C1158 H1172 0.960 . S
C1159 C1156 1.511 . S
C1159 H1173 0.961 . S
C1159 H1174 0.961 . S
C1159 H1175 0.961 . S
C1160 C1161 1.370 . S
C1160 C1162 1.363 . S
C1160 H1176 0.931 . S
C1161 C1160 1.370 . S
C1161 C1165 1.408 . S
C1162 C1160 1.363 . S
C1162 C1163 1.370 . S
C1162 C1166 1.524 . S
C1163 C1155 1.503 . S
C1163 C1162 1.370 . S
C1163 C1164 1.403 . S
C1164 C1163 1.403 . S
C1164 C1165 1.404 . S
C1164 C1167 1.539 . S
C1165 C1161 1.408 . S
C1165 C1164 1.404 . S
C1165 H1177 0.930 . S
C1166 C1162 1.524 . S
C1166 H1178 0.956 . S
C1166 H1179 0.961 . S
C1166 H1180 0.961 . S
C1167 C1164 1.539 . S
C1167 H1181 0.958 . S
C1167 H1182 0.961 . S
C1167 H1183 0.960 . S
H1168 C1152 0.931 . S
H1169 C1157 0.929 . S
H1170 C1158 0.960 . S
H1171 C1158 0.962 . S
H1172 C1158 0.960 . S
H1173 C1159 0.961 . S
H1174 C1159 0.961 . S
H1175 C1159 0.961 . S
H1176 C1160 0.931 . S
H1177 C1165 0.930 . S
H1178 C1166 0.956 . S
H1179 C1166 0.961 . S
H1180 C1166 0.961 . S
H1181 C1167 0.958 . S
H1182 C1167 0.961 . S
H1183 C1167 0.960 . S
C1184 C1185 1.391 . S
C1184 C1186 1.394 . S
C1184 H1200 0.931 . S
C1185 C1184 1.391 . S
C1185 C1189 1.376 . S
C1186 C1184 1.394 . S
C1186 C1187 1.369 . S
C1186 C1190 1.531 . S
C1187 C1186 1.369 . S
C1187 C1188 1.410 . S
C1187 C1195 1.503 . S
C1188 C1187 1.410 . S
C1188 C1189 1.392 . S
C1188 C1191 1.511 . S
C1189 C1185 1.376 . S
C1189 C1188 1.392 . S
C1189 H1201 0.929 . S
C1190 C1186 1.531 . S
C1190 H1202 0.960 . S
C1190 H1203 0.962 . S
C1190 H1204 0.960 . S
C1191 C1188 1.511 . S
C1191 H1205 0.961 . S
C1191 H1206 0.961 . S
C1191 H1207 0.961 . S
C1192 C1193 1.370 . S
C1192 C1194 1.363 . S
C1192 H1208 0.931 . S
C1193 C1192 1.370 . S
C1193 C1197 1.408 . S
C1194 C1192 1.363 . S
C1194 C1195 1.370 . S
C1194 C1198 1.524 . S
C1195 C1187 1.503 . S
C1195 C1194 1.370 . S
C1195 C1196 1.403 . S
C1196 C1195 1.403 . S
C1196 C1197 1.404 . S
C1196 C1199 1.539 . S
C1197 C1193 1.408 . S
C1197 C1196 1.404 . S
C1197 H1209 0.930 . S
C1198 C1194 1.524 . S
C1198 H1210 0.956 . S
C1198 H1211 0.961 . S
C1198 H1212 0.961 . S
C1199 C1196 1.539 . S
C1199 H1213 0.958 . S
C1199 H1214 0.961 . S
C1199 H1215 0.960 . S
H1200 C1184 0.931 . S
H1201 C1189 0.929 . S
H1202 C1190 0.960 . S
H1203 C1190 0.962 . S
H1204 C1190 0.960 . S
H1205 C1191 0.961 . S
H1206 C1191 0.961 . S
H1207 C1191 0.961 . S
H1208 C1192 0.931 . S
H1209 C1197 0.930 . S
H1210 C1198 0.956 . S
H1211 C1198 0.961 . S
H1212 C1198 0.961 . S
H1213 C1199 0.958 . S
H1214 C1199 0.961 . S
H1215 C1199 0.960 . S
C449 C241 2.104 . S
C457 C298 2.318 1_545 S
C489 C338 2.346 . S
C481 C277 2.143 . S
C521 C378 2.328 . S
C513 C169 2.089 . S
C553 C418 2.335 1_455 S
C545 C205 2.068 . S
C585 C307 2.317 1_565 S
C577 C97 2.110 . S
C609 C133 2.137 . S
C617 C347 2.347 . S
C641 C25 2.094 . S
C649 C387 2.322 . S
C673 C61 2.133 1_655 S
C681 C427 2.332 1_655 S
C713 C304 0.465 . S
C705 C211 0.492 . S
C745 C344 0.425 . S
C737 C247 0.511 . S
C777 C384 0.446 . S
C769 C253 0.504 . S
C801 C175 0.415 . S
C809 C424 0.484 . S
C833 C67 0.379 1_655 S
C841 C295 0.484 . S
C873 C335 0.421 . S
C865 C103 0.520 1_565 S
C905 C375 0.478 . S
C897 C109 0.371 . S
C929 C31 0.405 . S
C937 C415 0.469 . S
C961 C181 2.856 . S
C969 C299 3.197 . S
C993 C217 2.845 . S
C1001 C339 3.187 . S
C1033 C379 3.191 . S
C1025 C283 2.745 . S
C1065 C419 3.190 . S
C1057 C145 2.841 . S
C1089 C37 2.815 1_655 S
C1097 C290 3.213 . S
C1129 C330 3.189 . S
C1121 C73 2.846 1_565 S
C1161 C370 3.193 . S
C1153 C139 2.731 . S
C1185 C1 2.798 . S
C1193 C410 3.197 . S
