# Generated by pormake.
# Topology ssb, (4,4)-cn, num edge types: 1
# Building blocks:
#     Node 0, Type 0, BuildingBlock: MUDLON_clean_linker_0, # of connection points: 4
#     Node 1, Type 0, BuildingBlock: MUDLON_clean_linker_0, # of connection points: 4
#     Node 2, Type 0, BuildingBlock: MUDLON_clean_linker_0, # of connection points: 4
#     Node 3, Type 0, BuildingBlock: MUDLON_clean_linker_0, # of connection points: 4
#     Node 4, Type 0, BuildingBlock: MUDLON_clean_linker_0, # of connection points: 4
#     Node 5, Type 0, BuildingBlock: MUDLON_clean_linker_0, # of connection points: 4
#     Node 6, Type 0, BuildingBlock: MUDLON_clean_linker_0, # of connection points: 4
#     Node 7, Type 0, BuildingBlock: MUDLON_clean_linker_0, # of connection points: 4
#     Node 8, Type 1, BuildingBlock: NAWXER_clean_sbu_0, # of connection points: 4
#     Node 9, Type 1, BuildingBlock: NAWXER_clean_sbu_0, # of connection points: 4
#     Node 10, Type 1, BuildingBlock: NAWXER_clean_sbu_0, # of connection points: 4
#     Node 11, Type 1, BuildingBlock: NAWXER_clean_sbu_0, # of connection points: 4
#     Node 12, Type 1, BuildingBlock: NAWXER_clean_sbu_0, # of connection points: 4
#     Node 13, Type 1, BuildingBlock: NAWXER_clean_sbu_0, # of connection points: 4
#     Node 14, Type 1, BuildingBlock: NAWXER_clean_sbu_0, # of connection points: 4
#     Node 15, Type 1, BuildingBlock: NAWXER_clean_sbu_0, # of connection points: 4
#     Edge 16, Type (0, 1), BuildingBlock: XIVTED_clean_linker_0, # of connection points: 2
#     Edge 17, Type (0, 1), BuildingBlock: XIVTED_clean_linker_0, # of connection points: 2
#     Edge 18, Type (0, 1), BuildingBlock: XIVTED_clean_linker_0, # of connection points: 2
#     Edge 19, Type (0, 1), BuildingBlock: XIVTED_clean_linker_0, # of connection points: 2
#     Edge 20, Type (0, 1), BuildingBlock: XIVTED_clean_linker_0, # of connection points: 2
#     Edge 21, Type (0, 1), BuildingBlock: XIVTED_clean_linker_0, # of connection points: 2
#     Edge 22, Type (0, 1), BuildingBlock: XIVTED_clean_linker_0, # of connection points: 2
#     Edge 23, Type (0, 1), BuildingBlock: XIVTED_clean_linker_0, # of connection points: 2
#     Edge 24, Type (0, 1), BuildingBlock: XIVTED_clean_linker_0, # of connection points: 2
#     Edge 25, Type (0, 1), BuildingBlock: XIVTED_clean_linker_0, # of connection points: 2
#     Edge 26, Type (0, 1), BuildingBlock: XIVTED_clean_linker_0, # of connection points: 2
#     Edge 27, Type (0, 1), BuildingBlock: XIVTED_clean_linker_0, # of connection points: 2
#     Edge 28, Type (0, 1), BuildingBlock: XIVTED_clean_linker_0, # of connection points: 2
#     Edge 29, Type (0, 1), BuildingBlock: XIVTED_clean_linker_0, # of connection points: 2
#     Edge 30, Type (0, 1), BuildingBlock: XIVTED_clean_linker_0, # of connection points: 2
#     Edge 31, Type (0, 1), BuildingBlock: XIVTED_clean_linker_0, # of connection points: 2
#     Edge 32, Type (0, 1), BuildingBlock: XIVTED_clean_linker_0, # of connection points: 2
#     Edge 33, Type (0, 1), BuildingBlock: XIVTED_clean_linker_0, # of connection points: 2
#     Edge 34, Type (0, 1), BuildingBlock: XIVTED_clean_linker_0, # of connection points: 2
#     Edge 35, Type (0, 1), BuildingBlock: XIVTED_clean_linker_0, # of connection points: 2
#     Edge 36, Type (0, 1), BuildingBlock: XIVTED_clean_linker_0, # of connection points: 2
#     Edge 37, Type (0, 1), BuildingBlock: XIVTED_clean_linker_0, # of connection points: 2
#     Edge 38, Type (0, 1), BuildingBlock: XIVTED_clean_linker_0, # of connection points: 2
#     Edge 39, Type (0, 1), BuildingBlock: XIVTED_clean_linker_0, # of connection points: 2
#     Edge 40, Type (0, 1), BuildingBlock: XIVTED_clean_linker_0, # of connection points: 2
#     Edge 41, Type (0, 1), BuildingBlock: XIVTED_clean_linker_0, # of connection points: 2
#     Edge 42, Type (0, 1), BuildingBlock: XIVTED_clean_linker_0, # of connection points: 2
#     Edge 43, Type (0, 1), BuildingBlock: XIVTED_clean_linker_0, # of connection points: 2
#     Edge 44, Type (0, 1), BuildingBlock: XIVTED_clean_linker_0, # of connection points: 2
#     Edge 45, Type (0, 1), BuildingBlock: XIVTED_clean_linker_0, # of connection points: 2
#     Edge 46, Type (0, 1), BuildingBlock: XIVTED_clean_linker_0, # of connection points: 2
#     Edge 47, Type (0, 1), BuildingBlock: XIVTED_clean_linker_0, # of connection points: 2
# Relax obj value: 0.003
# Max RMSD: 0.052
# Mean RMSD: 0.027
data_MOF--net-ssb--node1-NAWXER_clean_sbu_0--node2-MUDLON_clean_linker_0--edge1-XIVTED_clean_linker_0
_symmetry_space_group_name_H-M    P1
_symmetry_Int_Tables_number       1
_symmetry_cell_setting            triclinic
loop_
_symmetry_equiv_pos_as_xyz
'x, y, z'
_cell_length_a     60.712236
_cell_length_b     60.683791
_cell_length_c     53.01635
_cell_angle_alpha  90.115307
_cell_angle_beta   89.997777
_cell_angle_gamma 89.962994
loop_
_atom_site_label
_atom_site_type_symbol
_atom_site_fract_x
_atom_site_fract_y
_atom_site_fract_z
_atom_type_partial_charge
H0 H 0.284 0.31535 0.18746 0.0
N1 N 0.31531 0.32975 0.22095 0.0
H2 H 0.26148 0.33844 0.15994 0.0
H3 H 0.31184 0.37335 0.22192 0.0
H4 H 0.28934 0.39667 0.19446 0.0
H5 H 0.35529 0.34728 0.21781 0.0
H6 H 0.38503 0.337 0.18855 0.0
H7 H 0.3154 0.2942 0.1889 0.0
H8 H 0.34461 0.28468 0.1587 0.0
H9 H 0.27207 0.32454 0.23689 0.0
H10 H 0.33862 0.30128 0.24945 0.0
H11 H 0.25943 0.3028 0.27199 0.0
H12 H 0.32557 0.27932 0.28474 0.0
H13 H 0.22278 0.2284 0.36724 0.0
H14 H 0.18581 0.23863 0.38005 0.0
H15 H 0.21018 0.30156 0.40647 0.0
H16 H 0.24758 0.29042 0.39496 0.0
H17 H 0.27792 0.24029 0.41808 0.0
H18 H 0.28758 0.20294 0.43158 0.0
H19 H 0.26803 0.1779 0.35857 0.0
H20 H 0.25799 0.21508 0.34553 0.0
H21 H 0.2404 0.24958 0.32818 0.0
H22 H 0.2539 0.26502 0.28849 0.0
H23 H 0.3119 0.28906 0.32692 0.0
N24 N 0.26056 0.25263 0.37437 0.0
H25 H 0.2983 0.27343 0.36648 0.0
C26 C 0.29985 0.34272 0.20654 0.0
C27 C 0.28524 0.33306 0.18914 0.0
C28 C 0.27227 0.34628 0.17352 0.0
C29 C 0.27369 0.36938 0.17495 0.0
C30 C 0.28761 0.37894 0.19312 0.0
C31 C 0.30059 0.3657 0.2087 0.0
C32 C 0.33308 0.32177 0.20529 0.0
C33 C 0.35304 0.33335 0.20527 0.0
C34 C 0.36992 0.32751 0.18862 0.0
C35 C 0.36689 0.3102 0.17142 0.0
C36 C 0.34715 0.29818 0.17178 0.0
C37 C 0.33045 0.30371 0.18886 0.0
C38 C 0.30649 0.31419 0.23924 0.0
C39 C 0.28403 0.31425 0.24629 0.0
C40 C 0.27663 0.30175 0.2667 0.0
C41 C 0.29145 0.28925 0.28109 0.0
C42 C 0.31373 0.28883 0.27403 0.0
C43 C 0.32115 0.30124 0.25355 0.0
C44 C 0.23816 0.2585 0.38068 0.0
C45 C 0.2203 0.2443 0.376 0.0
C46 C 0.19896 0.25037 0.38304 0.0
C47 C 0.19483 0.27096 0.39444 0.0
C48 C 0.21268 0.28539 0.39829 0.0
C49 C 0.23407 0.27914 0.39159 0.0
C50 C 0.26725 0.23054 0.38092 0.0
C51 C 0.27592 0.22671 0.40499 0.0
C52 C 0.28157 0.2054 0.41257 0.0
C53 C 0.27859 0.18742 0.39614 0.0
C54 C 0.27032 0.19135 0.37177 0.0
C55 C 0.26469 0.21268 0.36422 0.0
C56 C 0.26833 0.26061 0.35038 0.0
C57 C 0.25604 0.25809 0.32805 0.0
C58 C 0.26377 0.26694 0.30537 0.0
C59 C 0.28396 0.27827 0.30457 0.0
C60 C 0.29643 0.28018 0.32681 0.0
C61 C 0.28865 0.27144 0.34945 0.0
H62 H 0.71729 0.35781 0.19171 0.0
N63 N 0.72634 0.3153 0.19562 0.0
H64 H 0.73804 0.3859 0.16883 0.0
H65 H 0.76533 0.30884 0.17078 0.0
H66 H 0.78635 0.3369 0.14763 0.0
H67 H 0.73242 0.29244 0.15155 0.0
H68 H 0.70351 0.27612 0.12534 0.0
H69 H 0.68378 0.31197 0.20643 0.0
H70 H 0.65477 0.29522 0.18054 0.0
H71 H 0.72892 0.32926 0.24283 0.0
H72 H 0.74631 0.27491 0.19443 0.0
H73 H 0.74346 0.30946 0.27925 0.0
H74 H 0.75998 0.25434 0.23095 0.0
H75 H 0.79668 0.26558 0.37784 0.0
H76 H 0.83442 0.2695 0.39344 0.0
H77 H 0.85416 0.21329 0.34862 0.0
H78 H 0.8164 0.20936 0.33346 0.0
H79 H 0.78018 0.19729 0.3183 0.0
H80 H 0.76668 0.16099 0.33117 0.0
H81 H 0.74684 0.1882 0.40308 0.0
H82 H 0.76022 0.22439 0.3899 0.0
H83 H 0.74605 0.26031 0.34263 0.0
H84 H 0.73334 0.27941 0.30486 0.0
H85 H 0.7878 0.25175 0.26278 0.0
N86 N 0.78091 0.23455 0.34752 0.0
H87 H 0.7997 0.23191 0.30044 0.0
C88 C 0.73971 0.33136 0.18284 0.0
C89 C 0.73246 0.35323 0.18229 0.0
C90 C 0.74442 0.36923 0.16934 0.0
C91 C 0.76393 0.36365 0.15651 0.0
C92 C 0.77133 0.34167 0.15722 0.0
C93 C 0.75938 0.32565 0.17045 0.0
C94 C 0.71012 0.30382 0.18076 0.0
C95 C 0.71557 0.2931 0.15806 0.0
C96 C 0.69904 0.28371 0.14313 0.0
C97 C 0.67691 0.28448 0.15089 0.0
C98 C 0.6717 0.29423 0.17419 0.0
C99 C 0.68818 0.3039 0.1889 0.0
C100 C 0.7363 0.30348 0.21613 0.0
C101 C 0.73589 0.31299 0.24017 0.0
C102 C 0.744 0.30152 0.26095 0.0
C103 C 0.75254 0.28009 0.25817 0.0
C104 C 0.75361 0.27082 0.23381 0.0
C105 C 0.74567 0.28248 0.21291 0.0
C106 C 0.80367 0.23721 0.35465 0.0
C107 C 0.80925 0.25428 0.37124 0.0
C108 C 0.83083 0.25653 0.38001 0.0
C109 C 0.84731 0.24166 0.37233 0.0
C110 C 0.8418 0.22483 0.35516 0.0
C111 C 0.82019 0.22264 0.34636 0.0
C112 C 0.77127 0.21349 0.35331 0.0
C113 C 0.77268 0.19547 0.33669 0.0
C114 C 0.76501 0.17473 0.3441 0.0
C115 C 0.75571 0.17168 0.36817 0.0
C116 C 0.75359 0.18999 0.38429 0.0
C117 C 0.76134 0.21065 0.3769 0.0
C118 C 0.77389 0.24497 0.32451 0.0
C119 C 0.75514 0.25834 0.32519 0.0
C120 C 0.74806 0.26938 0.30361 0.0
C121 C 0.75975 0.26745 0.28079 0.0
C122 C 0.77834 0.25358 0.27997 0.0
C123 C 0.78529 0.24233 0.30159 0.0
H124 H 0.79604 0.73489 0.39496 0.0
N125 N 0.78251 0.76667 0.36433 0.0
H126 H 0.83407 0.72442 0.40418 0.0
H127 H 0.81883 0.77989 0.33792 0.0
H128 H 0.85667 0.7686 0.34572 0.0
H129 H 0.78318 0.80325 0.33391 0.0
H130 H 0.7843 0.84173 0.34826 0.0
H131 H 0.77865 0.78151 0.41106 0.0
H132 H 0.78011 0.81981 0.42554 0.0
H133 H 0.74277 0.74942 0.36996 0.0
H134 H 0.79085 0.76594 0.31328 0.0
H135 H 0.71916 0.73316 0.33752 0.0
H136 H 0.76801 0.7489 0.281 0.0
H137 H 0.67448 0.65294 0.22312 0.0
H138 H 0.68955 0.62453 0.19568 0.0
H139 H 0.7483 0.66384 0.18519 0.0
H140 H 0.73228 0.69276 0.21137 0.0
H141 H 0.70021 0.71447 0.18837 0.0
H142 H 0.6734 0.72794 0.15782 0.0
H143 H 0.62053 0.70961 0.20809 0.0
H144 H 0.64763 0.69617 0.23874 0.0
H145 H 0.69655 0.68188 0.28006 0.0
H146 H 0.71836 0.70113 0.31192 0.0
H147 H 0.73493 0.7511 0.25709 0.0
N148 N 0.69083 0.69257 0.23217 0.0
H149 H 0.71392 0.73126 0.22523 0.0
C150 C 0.80456 0.75802 0.36576 0.0
C151 C 0.80924 0.7419 0.38382 0.0
C152 C 0.831 0.73587 0.38894 0.0
C153 C 0.84854 0.74582 0.37587 0.0
C154 C 0.84364 0.7609 0.35651 0.0
C155 C 0.82191 0.76715 0.35171 0.0
C156 C 0.78057 0.78951 0.37151 0.0
C157 C 0.78206 0.80674 0.35388 0.0
C158 C 0.78278 0.82871 0.36209 0.0
C159 C 0.78251 0.8337 0.38802 0.0
C160 C 0.78063 0.81643 0.40547 0.0
C161 C 0.77957 0.79461 0.39726 0.0
C162 C 0.76865 0.75864 0.34425 0.0
C163 C 0.7482 0.74953 0.3505 0.0
C164 C 0.73486 0.74008 0.33195 0.0
C165 C 0.74178 0.73941 0.30662 0.0
C166 C 0.76203 0.74922 0.30024 0.0
C167 C 0.77529 0.75885 0.31883 0.0
C168 C 0.7022 0.67487 0.21946 0.0
C169 C 0.69078 0.65518 0.21522 0.0
C170 C 0.69955 0.63889 0.19957 0.0
C171 C 0.72023 0.64176 0.18801 0.0
C172 C 0.73217 0.66115 0.1933 0.0
C173 C 0.72315 0.67764 0.20863 0.0
C174 C 0.67588 0.70447 0.21603 0.0
C175 C 0.68292 0.71401 0.19324 0.0
C176 C 0.66754 0.72164 0.1757 0.0
C177 C 0.64485 0.71966 0.18048 0.0
C178 C 0.6379 0.71111 0.20378 0.0
C179 C 0.65331 0.70365 0.22139 0.0
C180 C 0.70336 0.70509 0.25035 0.0
C181 C 0.70486 0.69703 0.27501 0.0
C182 C 0.7172 0.70818 0.29322 0.0
C183 C 0.72831 0.72783 0.28719 0.0
C184 C 0.72678 0.73594 0.26239 0.0
C185 C 0.71453 0.72464 0.24411 0.0
H186 H 0.319 0.74445 0.14166 0.0
N187 N 0.31927 0.73203 0.19124 0.0
H188 H 0.34819 0.76444 0.11973 0.0
H189 H 0.35422 0.75125 0.21176 0.0
H190 H 0.38299 0.77229 0.19037 0.0
H191 H 0.34629 0.6981 0.18476 0.0
H192 H 0.34013 0.66466 0.16026 0.0
H193 H 0.28019 0.71973 0.168 0.0
H194 H 0.27339 0.6859 0.14515 0.0
H195 H 0.28817 0.75926 0.17076 0.0
H196 H 0.31222 0.73237 0.2406 0.0
H197 H 0.26058 0.78058 0.19372 0.0
H198 H 0.28579 0.75472 0.26408 0.0
H199 H 0.19103 0.86389 0.29059 0.0
H200 H 0.20182 0.89354 0.31883 0.0
H201 H 0.26166 0.85812 0.33698 0.0
H202 H 0.24972 0.8278 0.31018 0.0
H203 H 0.21497 0.80978 0.33441 0.0
H204 H 0.18551 0.79928 0.36326 0.0
H205 H 0.13816 0.80534 0.30294 0.0
H206 H 0.16783 0.81639 0.27404 0.0
H207 H 0.2296 0.83373 0.24268 0.0
H208 H 0.25592 0.81118 0.2193 0.0
H209 H 0.24948 0.75987 0.27534 0.0
N210 N 0.20972 0.82459 0.28602 0.0
H211 H 0.22466 0.78294 0.29929 0.0
C212 C 0.33481 0.74593 0.17826 0.0
C213 C 0.33287 0.75059 0.15239 0.0
C214 C 0.3495 0.76225 0.13993 0.0
C215 C 0.36817 0.76975 0.15319 0.0
C216 C 0.36918 0.7663 0.17941 0.0
C217 C 0.35273 0.7544 0.19173 0.0
C218 C 0.31389 0.71161 0.17843 0.0
C219 C 0.3303 0.69545 0.17621 0.0
C220 C 0.32666 0.67621 0.16228 0.0
C221 C 0.30623 0.67238 0.15051 0.0
C222 C 0.28953 0.68835 0.15335 0.0
C223 C 0.29336 0.70782 0.16684 0.0
C224 C 0.30196 0.74389 0.20404 0.0
C225 C 0.28741 0.75789 0.19109 0.0
C226 C 0.27182 0.77034 0.20435 0.0
C227 C 0.27084 0.76953 0.23091 0.0
C228 C 0.28557 0.7555 0.24369 0.0
C229 C 0.30082 0.74275 0.23035 0.0
C230 C 0.21944 0.84363 0.29814 0.0
C231 C 0.20671 0.86281 0.30025 0.0
C232 C 0.21302 0.87982 0.31645 0.0
C233 C 0.23258 0.8783 0.33063 0.0
C234 C 0.24619 0.85972 0.32701 0.0
C235 C 0.23957 0.84245 0.31123 0.0
C236 C 0.19353 0.81411 0.30201 0.0
C237 C 0.19834 0.80856 0.32722 0.0
C238 C 0.1815 0.80262 0.34373 0.0
C239 C 0.15959 0.8018 0.33536 0.0
C240 C 0.15496 0.80584 0.30981 0.0
C241 C 0.17183 0.81208 0.29332 0.0
C242 C 0.2249 0.81026 0.2727 0.0
C243 C 0.23397 0.81762 0.24991 0.0
C244 C 0.24887 0.80456 0.23644 0.0
C245 C 0.25486 0.78351 0.24524 0.0
C246 C 0.24565 0.77608 0.26807 0.0
C247 C 0.2311 0.78934 0.28179 0.0
H248 H 0.20424 0.84469 0.6869 0.0
N249 N 0.21882 0.80384 0.69187 0.0
H250 H 0.22226 0.87548 0.6657 0.0
H251 H 0.25952 0.80286 0.66929 0.0
H252 H 0.27804 0.83366 0.6487 0.0
H253 H 0.23137 0.77862 0.65153 0.0
H254 H 0.20676 0.75819 0.62329 0.0
H255 H 0.17587 0.79788 0.69715 0.0
H256 H 0.15113 0.77742 0.66919 0.0
H257 H 0.20868 0.81275 0.7393 0.0
H258 H 0.25072 0.7721 0.69323 0.0
H259 H 0.22396 0.79605 0.7773 0.0
H260 H 0.26739 0.75636 0.73102 0.0
H261 H 0.29174 0.7547 0.89165 0.0
H262 H 0.3294 0.76007 0.90708 0.0
H263 H 0.35482 0.73155 0.83828 0.0
H264 H 0.31704 0.7268 0.82269 0.0
H265 H 0.29493 0.69601 0.83156 0.0
H266 H 0.28419 0.65972 0.84583 0.0
H267 H 0.23767 0.68923 0.89769 0.0
H268 H 0.2475 0.72573 0.88168 0.0
H269 H 0.26753 0.77714 0.84211 0.0
H270 H 0.25468 0.79456 0.80336 0.0
H271 H 0.261 0.73224 0.76426 0.0
N272 N 0.27923 0.73558 0.84905 0.0
H273 H 0.27516 0.71555 0.80227 0.0
C274 C 0.23047 0.82157 0.6798 0.0
C275 C 0.22039 0.84226 0.67867 0.0
C276 C 0.23083 0.85985 0.66672 0.0
C277 C 0.25174 0.85713 0.65566 0.0
C278 C 0.2619 0.83631 0.65686 0.0
C279 C 0.25135 0.81866 0.6688 0.0
C280 C 0.20529 0.79002 0.67621 0.0
C281 C 0.21393 0.77827 0.65561 0.0
C282 C 0.19985 0.76659 0.63952 0.0
C283 C 0.177 0.76623 0.644 0.0
C284 C 0.16866 0.77713 0.66538 0.0
C285 C 0.18269 0.78895 0.68125 0.0
C286 C 0.22875 0.7939 0.71362 0.0
C287 C 0.22151 0.80044 0.73751 0.0
C288 C 0.23045 0.79099 0.75918 0.0
C289 C 0.24714 0.77495 0.75738 0.0
C290 C 0.25443 0.76847 0.73323 0.0
C291 C 0.24515 0.77769 0.71153 0.0
C292 C 0.30162 0.74022 0.85624 0.0
C293 C 0.30548 0.74994 0.87979 0.0
C294 C 0.32694 0.753 0.88851 0.0
C295 C 0.34499 0.74612 0.87389 0.0
C296 C 0.34117 0.73678 0.85 0.0
C297 C 0.31963 0.73405 0.8411 0.0
C298 C 0.27181 0.71371 0.85538 0.0
C299 C 0.28198 0.69478 0.84545 0.0
C300 C 0.27599 0.67391 0.85396 0.0
C301 C 0.26027 0.67144 0.87325 0.0
C302 C 0.24963 0.69039 0.88261 0.0
C303 C 0.25532 0.71129 0.87363 0.0
C304 C 0.27202 0.745 0.82548 0.0
C305 C 0.26624 0.76734 0.82508 0.0
C306 C 0.25872 0.77719 0.80292 0.0
C307 C 0.25647 0.76478 0.78061 0.0
C308 C 0.2627 0.74244 0.78091 0.0
C309 C 0.27063 0.73271 0.80299 0.0
H310 H 0.30931 0.27524 0.87577 0.0
N311 N 0.31035 0.28692 0.82596 0.0
H312 H 0.33884 0.25688 0.89894 0.0
H313 H 0.34546 0.26712 0.80646 0.0
H314 H 0.37456 0.24759 0.82912 0.0
H315 H 0.33728 0.32107 0.83061 0.0
H316 H 0.33169 0.35468 0.85494 0.0
H317 H 0.27181 0.29939 0.85003 0.0
H318 H 0.26546 0.33346 0.87271 0.0
H319 H 0.27879 0.25986 0.84569 0.0
H320 H 0.30379 0.28724 0.77656 0.0
H321 H 0.25071 0.23969 0.82213 0.0
H322 H 0.27688 0.26603 0.75248 0.0
H323 H 0.17998 0.16021 0.72109 0.0
H324 H 0.19155 0.13032 0.69354 0.0
H325 H 0.25356 0.1637 0.68081 0.0
H326 H 0.24095 0.19431 0.7067 0.0
H327 H 0.20821 0.21363 0.67981 0.0
H328 H 0.18083 0.22504 0.64877 0.0
H329 H 0.12984 0.22012 0.70523 0.0
H330 H 0.15741 0.20817 0.7363 0.0
H331 H 0.21849 0.18844 0.77124 0.0
H332 H 0.24506 0.20977 0.79565 0.0
H333 H 0.24038 0.26254 0.74117 0.0
N334 N 0.19968 0.19883 0.7276 0.0
H335 H 0.2153 0.24072 0.71621 0.0
C336 C 0.32557 0.27303 0.83947 0.0
C337 C 0.32342 0.26904 0.86547 0.0
C338 C 0.34026 0.25832 0.87865 0.0
C339 C 0.35935 0.25109 0.86599 0.0
C340 C 0.36043 0.25348 0.83961 0.0
C341 C 0.34378 0.26449 0.82657 0.0
C342 C 0.30511 0.30759 0.83824 0.0
C343 C 0.32151 0.3238 0.83964 0.0
C344 C 0.31817 0.34313 0.85348 0.0
C345 C 0.29808 0.347 0.866 0.0
C346 C 0.28135 0.331 0.8639 0.0
C347 C 0.28489 0.31142 0.8505 0.0
C348 C 0.29309 0.27537 0.81281 0.0
C349 C 0.27815 0.26155 0.82539 0.0
C350 C 0.26227 0.24978 0.81178 0.0
C351 C 0.26137 0.25113 0.78525 0.0
C352 C 0.27657 0.26489 0.77284 0.0
C353 C 0.29211 0.27696 0.78652 0.0
C354 C 0.20945 0.17951 0.71608 0.0
C355 C 0.19625 0.1608 0.71275 0.0
C356 C 0.20301 0.14364 0.69697 0.0
C357 C 0.22347 0.14454 0.68449 0.0
C358 C 0.23743 0.1626 0.68942 0.0
C359 C 0.2304 0.18004 0.7047 0.0
C360 C 0.18477 0.20981 0.71043 0.0
C361 C 0.19122 0.21529 0.68569 0.0
C362 C 0.17557 0.22174 0.66792 0.0
C363 C 0.15324 0.22316 0.67457 0.0
C364 C 0.14699 0.21918 0.69967 0.0
C365 C 0.16266 0.21242 0.71741 0.0
C366 C 0.2147 0.21267 0.74183 0.0
C367 C 0.22327 0.20461 0.76458 0.0
C368 C 0.23834 0.21697 0.77864 0.0
C369 C 0.24498 0.23802 0.77051 0.0
C370 C 0.2361 0.24626 0.74788 0.0
C371 C 0.22139 0.2337 0.73356 0.0
H372 H 0.79676 0.26939 0.60826 0.0
N373 N 0.78463 0.25126 0.65148 0.0
H374 H 0.8336 0.28172 0.59613 0.0
H375 H 0.82048 0.25337 0.68255 0.0
H376 H 0.8575 0.26574 0.67069 0.0
H377 H 0.80819 0.21646 0.67044 0.0
H378 H 0.80596 0.17814 0.65623 0.0
H379 H 0.75542 0.234 0.61997 0.0
H380 H 0.75298 0.1957 0.6057 0.0
H381 H 0.76051 0.28747 0.65029 0.0
H382 H 0.78286 0.23628 0.70027 0.0
H383 H 0.74048 0.30483 0.68486 0.0
H384 H 0.76189 0.25285 0.73494 0.0
H385 H 0.70885 0.36988 0.78255 0.0
H386 H 0.72306 0.39651 0.81343 0.0
H387 H 0.73633 0.34329 0.86518 0.0
H388 H 0.72256 0.31688 0.83426 0.0
H389 H 0.69893 0.28899 0.81708 0.0
H390 H 0.66817 0.27864 0.84448 0.0
H391 H 0.6305 0.33369 0.81587 0.0
H392 H 0.66177 0.34442 0.78964 0.0
H393 H 0.68968 0.3209 0.74256 0.0
H394 H 0.70901 0.30046 0.70966 0.0
H395 H 0.75993 0.2833 0.76321 0.0
N396 N 0.70181 0.32712 0.78989 0.0
H397 H 0.73971 0.30271 0.79628 0.0
C398 C 0.80598 0.26037 0.64611 0.0
C399 C 0.80992 0.2689 0.62204 0.0
C400 C 0.83093 0.27605 0.61524 0.0
C401 C 0.8485 0.27469 0.63245 0.0
C402 C 0.84435 0.26681 0.65695 0.0
C403 C 0.82322 0.25976 0.66377 0.0
C404 C 0.78196 0.22813 0.6461 0.0
C405 C 0.79594 0.21204 0.65653 0.0
C406 C 0.79473 0.19014 0.64829 0.0
C407 C 0.77938 0.18389 0.62974 0.0
C408 C 0.76484 0.19989 0.62018 0.0
C409 C 0.7662 0.22177 0.62826 0.0
C410 C 0.77287 0.26052 0.67257 0.0
C411 C 0.76082 0.27986 0.66875 0.0
C412 C 0.74923 0.28962 0.68854 0.0
C413 C 0.7492 0.28009 0.71273 0.0
C414 C 0.76158 0.26073 0.71664 0.0
C415 C 0.77345 0.2511 0.69677 0.0
C416 C 0.71444 0.34147 0.80607 0.0
C417 C 0.71547 0.36396 0.80025 0.0
C418 C 0.72355 0.3791 0.81789 0.0
C419 C 0.7305 0.37194 0.84179 0.0
C420 C 0.73079 0.34925 0.847 0.0
C421 C 0.72298 0.33413 0.82926 0.0
C422 C 0.68265 0.31771 0.80167 0.0
C423 C 0.6839 0.29859 0.8165 0.0
C424 C 0.66624 0.29264 0.83205 0.0
C425 C 0.64699 0.30562 0.8328 0.0
C426 C 0.64527 0.32368 0.81633 0.0
C427 C 0.66297 0.3297 0.80107 0.0
C428 C 0.71335 0.31373 0.7717 0.0
C429 C 0.70492 0.31253 0.74719 0.0
C430 C 0.71614 0.301 0.72837 0.0
C431 C 0.73635 0.29058 0.73355 0.0
C432 C 0.74441 0.29106 0.75848 0.0
C433 C 0.73293 0.30238 0.77745 0.0
H434 H 0.76964 0.79655 0.63089 0.0
N435 N 0.79056 0.79182 0.67454 0.0
H436 H 0.75414 0.83036 0.61312 0.0
H437 H 0.78588 0.83163 0.69922 0.0
H438 H 0.76979 0.86498 0.68214 0.0
H439 H 0.82276 0.82356 0.67145 0.0
H440 H 0.85844 0.81964 0.65112 0.0
H441 H 0.80894 0.75494 0.65767 0.0
H442 H 0.84542 0.75028 0.63915 0.0
H443 H 0.76262 0.76095 0.6894 0.0
H444 H 0.81127 0.80647 0.71725 0.0
H445 H 0.75557 0.74825 0.73227 0.0
H446 H 0.80313 0.7954 0.76046 0.0
H447 H 0.71923 0.72436 0.8474 0.0
H448 H 0.68254 0.73273 0.86296 0.0
H449 H 0.70666 0.79392 0.89449 0.0
H450 H 0.74334 0.78578 0.87751 0.0
H451 H 0.77312 0.74342 0.89882 0.0
H452 H 0.78188 0.70832 0.9193 0.0
H453 H 0.76569 0.67365 0.85062 0.0
H454 H 0.75649 0.70878 0.83034 0.0
H455 H 0.72885 0.74811 0.81129 0.0
H456 H 0.73829 0.75815 0.76884 0.0
H457 H 0.80579 0.76913 0.79177 0.0
N458 N 0.75628 0.74949 0.8532 0.0
H459 H 0.79565 0.76063 0.83527 0.0
C460 C 0.77895 0.81134 0.66633 0.0
C461 C 0.76936 0.81138 0.64228 0.0
C462 C 0.76041 0.83071 0.63224 0.0
C463 C 0.76083 0.85047 0.64614 0.0
C464 C 0.7695 0.85015 0.67074 0.0
C465 C 0.77858 0.83088 0.68069 0.0
C466 C 0.81286 0.7896 0.66541 0.0
C467 C 0.8275 0.80754 0.66432 0.0
C468 C 0.84815 0.80517 0.6529 0.0
C469 C 0.85488 0.78469 0.64295 0.0
C470 C 0.84066 0.7665 0.64569 0.0
C471 C 0.81986 0.76902 0.65655 0.0
C472 C 0.78705 0.7849 0.7002 0.0
C473 C 0.77154 0.7684 0.70492 0.0
C474 C 0.76743 0.76134 0.72952 0.0
C475 C 0.77847 0.771 0.75014 0.0
C476 C 0.7944 0.78734 0.74523 0.0
C477 C 0.79887 0.79399 0.7205 0.0
C478 C 0.73409 0.75453 0.86126 0.0
C479 C 0.71663 0.73967 0.85746 0.0
C480 C 0.69561 0.74444 0.86658 0.0
C481 C 0.69158 0.76392 0.8803 0.0
C482 C 0.70903 0.7789 0.88377 0.0
C483 C 0.73003 0.77424 0.87425 0.0
C484 C 0.76428 0.72881 0.8631 0.0
C485 C 0.77187 0.72828 0.88806 0.0
C486 C 0.77676 0.70827 0.89973 0.0
C487 C 0.77441 0.68833 0.88652 0.0
C488 C 0.76782 0.68884 0.86111 0.0
C489 C 0.76257 0.7089 0.84953 0.0
C490 C 0.76151 0.75393 0.82701 0.0
C491 C 0.74569 0.75277 0.80761 0.0
C492 C 0.75123 0.75831 0.78287 0.0
C493 C 0.77287 0.76454 0.77656 0.0
C494 C 0.78884 0.76494 0.79583 0.0
C495 C 0.78314 0.75987 0.82073 0.0
C496 C 0.98772 0.28327 0.536 0.0
C497 C 0.04721 0.2834 0.47394 0.0
O498 O 0.99706 0.30008 0.5265 0.0
Zn499 Zn 0.01695 0.28393 0.50461 0.0
O500 O 0.9934 0.2639 0.52874 0.0
Zn501 Zn 0.01612 0.24899 0.50269 0.0
O502 O 0.03414 0.23132 0.52467 0.0
O503 O 0.03744 0.26706 0.53159 0.0
O504 O 0.04014 0.264 0.47888 0.0
O505 O 0.03847 0.29997 0.48471 0.0
O506 O 0.99422 0.27044 0.47739 0.0
O507 O 0.9968 0.23423 0.47938 0.0
C508 C 0.04254 0.24713 0.53713 0.0
C509 C 0.98802 0.25131 0.46987 0.0
C510 C 0.77662 0.04108 0.53454 0.0
C511 C 0.77991 0.97915 0.47527 0.0
O512 O 0.79383 0.03188 0.52576 0.0
Zn513 Zn 0.77903 0.01007 0.50502 0.0
O514 O 0.75759 0.03399 0.52784 0.0
Zn515 Zn 0.74379 0.00913 0.50366 0.0
O516 O 0.72774 0.9902 0.52695 0.0
O517 O 0.76379 0.9895 0.53246 0.0
O518 O 0.76019 0.98533 0.48031 0.0
O519 O 0.79607 0.9889 0.48569 0.0
O520 O 0.7642 0.02999 0.47644 0.0
O521 O 0.72801 0.02705 0.47928 0.0
C522 C 0.74448 0.98311 0.53887 0.0
C523 C 0.7449 0.03522 0.46864 0.0
C524 C 0.99115 0.77404 0.53638 0.0
C525 C 0.04411 0.77909 0.46748 0.0
O526 O 0.00016 0.79126 0.52755 0.0
Zn527 Zn 0.01868 0.77696 0.50263 0.0
O528 O 0.99702 0.75509 0.52802 0.0
Zn529 Zn 0.0195 0.74185 0.50083 0.0
O530 O 0.04115 0.72598 0.52112 0.0
O531 O 0.04439 0.76213 0.52378 0.0
O532 O 0.03953 0.75907 0.47332 0.0
O533 O 0.03552 0.79487 0.4799 0.0
O534 O 0.99562 0.76193 0.47724 0.0
O535 O 0.99941 0.72573 0.47909 0.0
C536 C 0.05129 0.74282 0.52937 0.0
C537 C 0.9899 0.74261 0.46992 0.0
C538 C 0.24922 0.03636 0.54422 0.0
C539 C 0.2523 0.98393 0.47456 0.0
O540 O 0.26903 0.03151 0.53784 0.0
Zn541 Zn 0.28549 0.01059 0.51071 0.0
O542 O 0.23311 0.02763 0.53259 0.0
Zn543 Zn 0.25034 0.01022 0.50946 0.0
O544 O 0.26492 0.98718 0.53475 0.0
O545 O 0.30118 0.98972 0.53207 0.0
O546 O 0.23533 0.99222 0.4849 0.0
O547 O 0.27153 0.98932 0.48247 0.0
O548 O 0.30171 0.03221 0.49098 0.0
O549 O 0.26563 0.03462 0.4865 0.0
C550 C 0.28414 0.98095 0.54171 0.0
C551 C 0.28502 0.04143 0.48104 0.0
C552 C 0.49071 0.7909 0.03496 0.0
C553 C 0.54784 0.78127 0.9709 0.0
O554 O 0.50067 0.80636 0.02348 0.0
Zn555 Zn 0.51843 0.78713 0.002 0.0
O556 O 0.49446 0.77077 0.02908 0.0
Zn557 Zn 0.51418 0.75219 0.00343 0.0
O558 O 0.53071 0.73436 0.02671 0.0
O559 O 0.53841 0.76989 0.02939 0.0
O560 O 0.53915 0.76318 0.97834 0.0
O561 O 0.54065 0.79947 0.97954 0.0
O562 O 0.49382 0.77429 0.97696 0.0
O563 O 0.49282 0.73821 0.98167 0.0
C564 C 0.54145 0.75001 0.03692 0.0
C565 C 0.48557 0.75552 0.97108 0.0
C566 C 0.28319 0.53785 0.04237 0.0
C567 C 0.28034 0.47816 0.98035 0.0
O568 O 0.29918 0.52687 0.03334 0.0
Zn569 Zn 0.28219 0.50756 0.01151 0.0
O570 O 0.26345 0.53288 0.03596 0.0
Zn571 Zn 0.24709 0.50933 0.01229 0.0
O572 O 0.23062 0.49157 0.03626 0.0
O573 O 0.2665 0.48532 0.03686 0.0
O574 O 0.26112 0.48464 0.98729 0.0
O575 O 0.29739 0.48748 0.98934 0.0
O576 O 0.26763 0.52957 0.98499 0.0
O577 O 0.23144 0.52859 0.98915 0.0
C578 C 0.24704 0.48085 0.04462 0.0
C579 C 0.24847 0.53616 0.9782 0.0
C580 C 0.53718 0.2846 0.97257 0.0
C581 C 0.48457 0.28581 0.042 0.0
O582 O 0.5268 0.30103 0.98161 0.0
Zn583 Zn 0.51118 0.28533 0.00718 0.0
O584 O 0.53434 0.26537 0.98222 0.0
Zn585 Zn 0.51497 0.25088 0.01269 0.0
O586 O 0.4959 0.23022 0.99471 0.0
O587 O 0.4904 0.2651 0.98457 0.0
O588 O 0.49244 0.26646 0.03837 0.0
O589 O 0.49082 0.30159 0.02806 0.0
O590 O 0.53766 0.27605 0.03156 0.0
O591 O 0.53769 0.2398 0.03516 0.0
C592 C 0.48601 0.24465 0.98154 0.0
C593 C 0.54612 0.25839 0.04059 0.0
C594 C 0.75372 0.5354 0.0486 0.0
C595 C 0.75444 0.4851 0.97705 0.0
O596 O 0.77318 0.53297 0.03946 0.0
Zn597 Zn 0.78861 0.5141 0.00924 0.0
O598 O 0.73761 0.52508 0.03885 0.0
Zn599 Zn 0.75402 0.51048 0.01296 0.0
O600 O 0.77309 0.48834 0.03515 0.0
O601 O 0.80836 0.49434 0.02756 0.0
O602 O 0.73824 0.49132 0.99041 0.0
O603 O 0.77377 0.49244 0.98199 0.0
O604 O 0.80078 0.5372 0.98814 0.0
O605 O 0.76445 0.53762 0.98995 0.0
C606 C 0.79337 0.48375 0.03904 0.0
C607 C 0.78255 0.54603 0.98202 0.0
H608 H 0.18269 0.29529 0.43618 0.0
H609 H 0.05935 0.2569 0.43493 0.0
H610 H 0.15496 0.26025 0.37265 0.0
H611 H 0.07962 0.31478 0.47615 0.0
H612 H 0.09442 0.25727 0.41228 0.0
H613 H 0.14554 0.30237 0.45169 0.0
C614 C 0.16888 0.28935 0.42521 0.0
C615 C 0.17217 0.27692 0.40309 0.0
C616 C 0.09107 0.27011 0.42597 0.0
C617 C 0.12947 0.28457 0.42128 0.0
C618 C 0.07109 0.26989 0.43892 0.0
C619 C 0.06665 0.2858 0.45746 0.0
C620 C 0.10699 0.28601 0.43207 0.0
C621 C 0.08239 0.30227 0.4619 0.0
C622 C 0.14763 0.29335 0.4342 0.0
C623 C 0.15342 0.26938 0.39011 0.0
N624 N 0.10208 0.30173 0.44962 0.0
N625 N 0.13293 0.27306 0.39957 0.0
H626 H 0.71985 0.15889 0.39633 0.0
H627 H 0.77497 0.04456 0.43233 0.0
H628 H 0.779 0.1335 0.36167 0.0
H629 H 0.7107 0.06381 0.45922 0.0
H630 H 0.7746 0.07548 0.40316 0.0
H631 H 0.71409 0.12309 0.41651 0.0
C632 C 0.73149 0.14572 0.39274 0.0
C633 C 0.75007 0.14929 0.37748 0.0
C634 C 0.76041 0.07286 0.41515 0.0
C635 C 0.74358 0.10831 0.40051 0.0
C636 C 0.76063 0.05519 0.43185 0.0
C637 C 0.74293 0.05177 0.44838 0.0
C638 C 0.74253 0.08754 0.41523 0.0
C639 C 0.72469 0.06591 0.44679 0.0
C640 C 0.72813 0.12526 0.40417 0.0
C641 C 0.7644 0.13153 0.37317 0.0
N642 N 0.72511 0.08344 0.43078 0.0
N643 N 0.761 0.11194 0.38487 0.0
H644 H 0.86847 0.70793 0.39387 0.0
H645 H 0.97566 0.77401 0.43751 0.0
H646 H 0.8814 0.77656 0.3782 0.0
H647 H 0.96318 0.70684 0.45994 0.0
H648 H 0.94359 0.77274 0.41023 0.0
H649 H 0.90508 0.70499 0.41311 0.0
C650 C 0.87901 0.72232 0.39422 0.0
C651 C 0.87168 0.74257 0.38445 0.0
C652 C 0.94785 0.75817 0.42094 0.0
C653 C 0.9136 0.73921 0.40623 0.0
C654 C 0.9662 0.7589 0.43658 0.0
C655 C 0.97191 0.7406 0.45131 0.0
C656 C 0.93482 0.73909 0.42012 0.0
C657 C 0.95925 0.72135 0.44898 0.0
C658 C 0.89994 0.72057 0.40512 0.0
C659 C 0.88627 0.76051 0.38509 0.0
N660 N 0.94106 0.72117 0.43391 0.0
N661 N 0.90637 0.75842 0.39594 0.0
H662 H 0.22273 0.92285 0.33114 0.0
H663 H 0.28062 0.95109 0.461 0.0
H664 H 0.2539 0.87222 0.37605 0.0
H665 H 0.21928 0.9817 0.43953 0.0
H666 H 0.27715 0.92581 0.42504 0.0
H667 H 0.22754 0.94867 0.36611 0.0
C668 C 0.23059 0.91705 0.3482 0.0
C669 C 0.23768 0.89505 0.3505 0.0
C670 C 0.2645 0.93808 0.42827 0.0
C671 C 0.24385 0.92494 0.39024 0.0
C672 C 0.26646 0.95251 0.44868 0.0
C673 C 0.25014 0.9684 0.45325 0.0
C674 C 0.2464 0.93999 0.41198 0.0
C675 C 0.23211 0.96954 0.43675 0.0
C676 C 0.23339 0.9319 0.36809 0.0
C677 C 0.24841 0.88895 0.37299 0.0
N678 N 0.23081 0.95563 0.41666 0.0
N679 N 0.2512 0.90382 0.39193 0.0
H680 H 0.17808 0.77077 0.59286 0.0
H681 H 0.06142 0.71354 0.56736 0.0
H682 H 0.14056 0.74031 0.65248 0.0
H683 H 0.08758 0.76797 0.52465 0.0
H684 H 0.09469 0.71439 0.59417 0.0
H685 H 0.14952 0.76013 0.5628 0.0
C686 C 0.16408 0.7614 0.59954 0.0
C687 C 0.16159 0.7566 0.62525 0.0
C688 C 0.09316 0.72591 0.57869 0.0
C689 C 0.12873 0.7446 0.59096 0.0
C690 C 0.07432 0.72537 0.56341 0.0
C691 C 0.07178 0.74086 0.54404 0.0
C692 C 0.10961 0.74168 0.57399 0.0
C693 C 0.08884 0.75593 0.53964 0.0
C694 C 0.1477 0.75549 0.58241 0.0
C695 C 0.14293 0.74462 0.63286 0.0
N696 N 0.107 0.75596 0.55448 0.0
N697 N 0.12708 0.73916 0.6158 0.0
H698 H 0.24778 0.15028 0.64107 0.0
H699 H 0.21366 0.03865 0.57592 0.0
H700 H 0.21215 0.10037 0.6825 0.0
H701 H 0.27629 0.0693 0.56029 0.0
H702 H 0.20849 0.06424 0.61144 0.0
H703 H 0.25487 0.12344 0.60788 0.0
C704 C 0.2417 0.13367 0.64354 0.0
C705 C 0.2293 0.12776 0.66492 0.0
C706 C 0.22335 0.06526 0.6002 0.0
C707 C 0.23667 0.09721 0.62612 0.0
C708 C 0.22623 0.05084 0.57989 0.0
C709 C 0.24542 0.05192 0.5652 0.0
C710 C 0.23952 0.08117 0.60538 0.0
C711 C 0.2613 0.06788 0.57122 0.0
C712 C 0.24561 0.11842 0.62435 0.0
C713 C 0.22136 0.10599 0.66629 0.0
N714 N 0.2579 0.08205 0.59071 0.0
N715 N 0.22496 0.09159 0.64703 0.0
H716 H 0.88598 0.25122 0.64217 0.0
H717 H 0.96052 0.31879 0.54468 0.0
H718 H 0.86287 0.30903 0.60293 0.0
H719 H 0.97425 0.25264 0.56993 0.0
H720 H 0.92831 0.31978 0.57278 0.0
H721 H 0.9222 0.25629 0.62315 0.0
C722 C 0.88863 0.26525 0.62994 0.0
C723 C 0.87129 0.2796 0.62394 0.0
C724 C 0.93856 0.30517 0.57232 0.0
C725 C 0.91268 0.28527 0.60172 0.0
C726 C 0.95695 0.30463 0.55639 0.0
C727 C 0.96987 0.2855 0.55477 0.0
C728 C 0.93333 0.28655 0.58688 0.0
C729 C 0.96454 0.26761 0.57033 0.0
C730 C 0.90928 0.26802 0.61891 0.0
C731 C 0.87568 0.29735 0.60772 0.0
N732 N 0.94665 0.26854 0.58562 0.0
N733 N 0.89591 0.29959 0.59699 0.0
H734 H 0.7261 0.85874 0.61383 0.0
H735 H 0.77195 0.97767 0.57857 0.0
H736 H 0.78093 0.89057 0.65078 0.0
H737 H 0.71303 0.95086 0.54504 0.0
H738 H 0.7727 0.94717 0.60822 0.0
H739 H 0.71857 0.89307 0.59106 0.0
C740 C 0.73644 0.87296 0.61733 0.0
C741 C 0.75426 0.87167 0.6342 0.0
C742 C 0.75941 0.94798 0.59463 0.0
C743 C 0.74566 0.91099 0.60831 0.0
C744 C 0.75898 0.96544 0.57768 0.0
C745 C 0.74252 0.96666 0.55921 0.0
C746 C 0.74347 0.93128 0.59289 0.0
C747 C 0.72601 0.95048 0.55904 0.0
C748 C 0.73204 0.89258 0.60443 0.0
C749 C 0.76687 0.89074 0.63823 0.0
N750 N 0.72709 0.93321 0.57539 0.0
N751 N 0.76244 0.90946 0.62524 0.0
H752 H 0.86386 0.75771 0.60249 0.0
H753 H 0.97879 0.80947 0.56576 0.0
H754 H 0.89429 0.80691 0.65019 0.0
H755 H 0.96138 0.74218 0.54825 0.0
H756 H 0.94642 0.81179 0.59356 0.0
H757 H 0.89802 0.75459 0.57892 0.0
C758 C 0.87773 0.76768 0.60835 0.0
C759 C 0.87602 0.78247 0.62872 0.0
C760 C 0.94989 0.79651 0.58375 0.0
C761 C 0.91517 0.77945 0.60086 0.0
C762 C 0.96827 0.79518 0.56787 0.0
C763 C 0.97278 0.77561 0.55465 0.0
C764 C 0.93574 0.77831 0.58591 0.0
C765 C 0.95861 0.75758 0.5581 0.0
C766 C 0.89723 0.76597 0.59466 0.0
C767 C 0.89457 0.79548 0.63452 0.0
N768 N 0.94062 0.75945 0.57315 0.0
N769 N 0.91332 0.79378 0.62055 0.0
H770 H 0.25215 0.90071 0.66932 0.0
H771 H 0.30993 0.9437 0.54298 0.0
H772 H 0.27569 0.85636 0.61149 0.0
H773 H 0.26125 0.98007 0.58517 0.0
H774 H 0.3069 0.91339 0.5738 0.0
H775 H 0.26514 0.93181 0.64433 0.0
C776 C 0.26014 0.89747 0.65143 0.0
C777 C 0.26235 0.87586 0.64226 0.0
C778 C 0.29721 0.92821 0.57645 0.0
C779 C 0.27764 0.91146 0.61378 0.0
C780 C 0.29904 0.94547 0.55904 0.0
C781 C 0.28571 0.96421 0.56163 0.0
C782 C 0.28232 0.93011 0.59666 0.0
C783 C 0.27167 0.96575 0.58252 0.0
C784 C 0.26767 0.91524 0.63726 0.0
C785 C 0.27355 0.8727 0.6193 0.0
N786 N 0.27031 0.94892 0.5992 0.0
N787 N 0.28058 0.89035 0.60569 0.0
H788 H 0.11913 0.25282 0.67511 0.0
H789 H 0.06616 0.20951 0.54643 0.0
H790 H 0.14899 0.20198 0.62956 0.0
H791 H 0.0544 0.27507 0.5752 0.0
H792 H 0.09278 0.20346 0.58049 0.0
H793 H 0.09132 0.25838 0.64202 0.0
C794 C 0.11978 0.24285 0.65815 0.0
C795 C 0.13641 0.22707 0.65488 0.0
C796 C 0.08433 0.21915 0.57931 0.0
C797 C 0.10469 0.23306 0.61735 0.0
C798 C 0.06909 0.22257 0.55997 0.0
C799 C 0.05815 0.24285 0.55793 0.0
C800 C 0.08834 0.23599 0.59693 0.0
C801 C 0.0626 0.25924 0.57597 0.0
C802 C 0.10401 0.24605 0.63931 0.0
C803 C 0.13659 0.21453 0.63261 0.0
N804 N 0.0773 0.25542 0.59479 0.0
N805 N 0.1209 0.21771 0.61473 0.0
H806 H 0.74359 0.15803 0.6191 0.0
H807 H 0.81367 0.06327 0.55073 0.0
H808 H 0.81461 0.15799 0.61638 0.0
H809 H 0.74278 0.06316 0.55719 0.0
H810 H 0.81485 0.09672 0.57675 0.0
H811 H 0.74338 0.12206 0.59844 0.0
C812 C 0.75916 0.1504 0.61423 0.0
C813 C 0.77914 0.16112 0.61934 0.0
C814 C 0.79907 0.08926 0.57258 0.0
C815 C 0.77906 0.11982 0.59558 0.0
C816 C 0.79839 0.07016 0.55774 0.0
C817 C 0.77809 0.06044 0.5516 0.0
C818 C 0.77932 0.09872 0.58128 0.0
C819 C 0.75882 0.0701 0.56126 0.0
C820 C 0.75905 0.12981 0.60249 0.0
C821 C 0.79883 0.15027 0.61295 0.0
N822 N 0.75991 0.0887 0.57546 0.0
N823 N 0.7983 0.13031 0.6012 0.0
H824 H 0.87191 0.2788 0.38133 0.0
H825 H 0.96857 0.21358 0.45187 0.0
H826 H 0.87411 0.20797 0.38808 0.0
H827 H 0.96525 0.2845 0.44663 0.0
H828 H 0.93585 0.21098 0.42513 0.0
H829 H 0.90776 0.28102 0.4021 0.0
C830 C 0.87995 0.2637 0.38713 0.0
C831 C 0.86988 0.24318 0.38309 0.0
C832 C 0.94239 0.2271 0.42968 0.0
C833 C 0.91105 0.24557 0.4068 0.0
C834 C 0.96111 0.2286 0.44491 0.0
C835 C 0.96961 0.2493 0.45168 0.0
C836 C 0.93204 0.24643 0.42117 0.0
C837 C 0.95924 0.26819 0.44204 0.0
C838 C 0.90048 0.26497 0.39889 0.0
C839 C 0.88129 0.22414 0.39061 0.0
N840 N 0.94094 0.2663 0.42744 0.0
N841 N 0.90117 0.22581 0.40225 0.0
H842 H 0.75947 0.87004 0.37238 0.0
H843 H 0.81583 0.9517 0.47238 0.0
H844 H 0.81012 0.84964 0.42438 0.0
H845 H 0.75146 0.96267 0.44024 0.0
H846 H 0.81871 0.91741 0.44793 0.0
H847 H 0.76114 0.90734 0.39032 0.0
C848 C 0.77111 0.87351 0.38736 0.0
C849 C 0.7845 0.85674 0.39712 0.0
C850 C 0.80407 0.92748 0.44609 0.0
C851 C 0.78659 0.89922 0.41758 0.0
C852 C 0.80247 0.94708 0.4599 0.0
C853 C 0.78329 0.95993 0.4585 0.0
C854 C 0.7865 0.9209 0.43053 0.0
C855 C 0.76644 0.95313 0.44209 0.0
C856 C 0.77199 0.89472 0.39765 0.0
C857 C 0.79927 0.86205 0.41659 0.0
N858 N 0.76841 0.93407 0.42881 0.0
N859 N 0.7999 0.88281 0.42623 0.0
H860 H 0.12505 0.77277 0.33262 0.0
H861 H 0.06719 0.81698 0.45825 0.0
H862 H 0.1531 0.82364 0.37955 0.0
H863 H 0.05659 0.75121 0.42957 0.0
H864 H 0.09451 0.82305 0.42497 0.0
H865 H 0.09552 0.76782 0.36386 0.0
C866 C 0.12492 0.7829 0.34946 0.0
C867 C 0.14156 0.79846 0.35372 0.0
C868 C 0.08612 0.80733 0.42596 0.0
C869 C 0.10792 0.79318 0.38911 0.0
C870 C 0.07048 0.80389 0.44485 0.0
C871 C 0.05972 0.78352 0.44675 0.0
C872 C 0.09076 0.7904 0.40865 0.0
C873 C 0.06466 0.76711 0.4289 0.0
C874 C 0.10818 0.78005 0.36726 0.0
C875 C 0.14071 0.81124 0.37579 0.0
N876 N 0.07979 0.77091 0.41055 0.0
N877 N 0.12412 0.80838 0.39263 0.0
H878 H 0.31275 0.172 0.42542 0.0
H879 H 0.25577 0.05515 0.44577 0.0
H880 H 0.25361 0.15071 0.38735 0.0
H881 H 0.31894 0.07148 0.47802 0.0
H882 H 0.25658 0.08923 0.42176 0.0
H883 H 0.31701 0.13484 0.4428 0.0
C884 C 0.30074 0.1595 0.4206 0.0
C885 C 0.28271 0.16455 0.405 0.0
C886 C 0.27041 0.08536 0.43386 0.0
C887 C 0.28755 0.12202 0.42472 0.0
C888 C 0.26995 0.06587 0.44761 0.0
C889 C 0.28722 0.06059 0.46409 0.0
C890 C 0.28815 0.09997 0.43681 0.0
C891 C 0.30528 0.07497 0.46552 0.0
C892 C 0.30326 0.13827 0.4304 0.0
C893 C 0.26786 0.1476 0.39908 0.0
N894 N 0.30514 0.09421 0.45231 0.0
N895 N 0.27051 0.12721 0.40911 0.0
H896 H 0.66924 0.80338 0.88635 0.0
H897 H 0.56385 0.74512 0.94676 0.0
H898 H 0.66359 0.7336 0.90106 0.0
H899 H 0.57591 0.81478 0.95619 0.0
H900 H 0.59777 0.74192 0.92286 0.0
H901 H 0.63311 0.80896 0.90618 0.0
C902 C 0.6605 0.78924 0.89372 0.0
C903 C 0.66954 0.76793 0.89181 0.0
C904 C 0.59302 0.75795 0.93005 0.0
C905 C 0.62808 0.77423 0.91401 0.0
C906 C 0.57356 0.75984 0.94367 0.0
C907 C 0.5671 0.78023 0.9538 0.0
C908 C 0.60631 0.77657 0.92639 0.0
C909 C 0.58032 0.79872 0.94883 0.0
C910 C 0.63984 0.79246 0.90489 0.0
C911 C 0.65723 0.75026 0.90145 0.0
N912 N 0.59944 0.79644 0.93557 0.0
N913 N 0.63721 0.75382 0.91202 0.0
H914 H 0.29074 0.63909 0.88164 0.0
H915 H 0.21384 0.56416 0.96751 0.0
H916 H 0.22172 0.65376 0.89249 0.0
H917 H 0.27989 0.54729 0.94428 0.0
H918 H 0.21472 0.59575 0.9385 0.0
H919 H 0.28561 0.60427 0.90282 0.0
C920 C 0.27434 0.63488 0.88804 0.0
C921 C 0.25661 0.64949 0.88502 0.0
C922 C 0.22887 0.58492 0.93958 0.0
C923 C 0.25075 0.60949 0.91037 0.0
C924 C 0.22835 0.56689 0.95605 0.0
C925 C 0.24694 0.5533 0.95856 0.0
C926 C 0.24812 0.58924 0.92568 0.0
C927 C 0.26531 0.55754 0.9433 0.0
C928 C 0.27146 0.61494 0.90042 0.0
C929 C 0.23594 0.64318 0.89462 0.0
N930 N 0.26548 0.57518 0.92773 0.0
N931 N 0.23361 0.6237 0.90706 0.0
H932 H 0.36121 0.2257 0.90933 0.0
H933 H 0.48575 0.25918 0.93376 0.0
H934 H 0.40259 0.25998 0.85601 0.0
H935 H 0.44996 0.21732 0.9849 0.0
H936 H 0.45632 0.25533 0.90294 0.0
H937 H 0.39379 0.21864 0.93548 0.0
C938 C 0.37711 0.23152 0.90294 0.0
C939 C 0.37903 0.24362 0.88044 0.0
C940 C 0.45489 0.24666 0.9207 0.0
C941 C 0.41633 0.23547 0.91019 0.0
C942 C 0.47174 0.24884 0.93825 0.0
C943 C 0.47014 0.2386 0.96179 0.0
C944 C 0.43592 0.2346 0.92694 0.0
C945 C 0.45174 0.22537 0.96681 0.0
C946 C 0.39572 0.22735 0.91781 0.0
C947 C 0.40016 0.25039 0.87297 0.0
N948 N 0.43505 0.22406 0.94965 0.0
N949 N 0.41783 0.24643 0.88789 0.0
H950 H 0.71395 0.3724 0.88945 0.0
H951 H 0.78203 0.47631 0.93742 0.0
H952 H 0.75725 0.40843 0.83997 0.0
H953 H 0.71975 0.45708 0.96985 0.0
H954 H 0.77688 0.44863 0.90417 0.0
H955 H 0.71996 0.40016 0.92222 0.0
C956 C 0.72494 0.38605 0.88561 0.0
C957 C 0.73522 0.38811 0.86204 0.0
C958 C 0.76434 0.45058 0.91854 0.0
C959 C 0.74205 0.41995 0.89937 0.0
C960 C 0.76727 0.46629 0.93753 0.0
C961 C 0.75126 0.469 0.95641 0.0
C962 C 0.74548 0.43722 0.91873 0.0
C963 C 0.73244 0.45562 0.95561 0.0
C964 C 0.72819 0.40197 0.90422 0.0
C965 C 0.749 0.40631 0.8579 0.0
N966 N 0.73016 0.44018 0.9372 0.0
N967 N 0.75213 0.42151 0.87646 0.0
H968 H 0.6414 0.25818 0.16209 0.0
H969 H 0.577 0.29051 0.03852 0.0
H970 H 0.67164 0.29413 0.10115 0.0
H971 H 0.56116 0.23027 0.07763 0.0
H972 H 0.61001 0.29427 0.06429 0.0
H973 H 0.6102 0.24936 0.13424 0.0
C974 C 0.64154 0.26402 0.1428 0.0
C975 C 0.65908 0.27691 0.13386 0.0
C976 C 0.5994 0.28016 0.06718 0.0
C977 C 0.62351 0.26722 0.10226 0.0
C978 C 0.58047 0.27806 0.0526 0.0
C979 C 0.56629 0.26009 0.05604 0.0
C980 C 0.60404 0.26442 0.08576 0.0
C981 C 0.57172 0.24435 0.0744 0.0
C982 C 0.62384 0.25891 0.12695 0.0
C983 C 0.65855 0.28401 0.10872 0.0
N984 N 0.5901 0.24702 0.08887 0.0
N985 N 0.64091 0.27933 0.09391 0.0
H986 H 0.7447 0.64919 0.14503 0.0
H987 H 0.72059 0.53368 0.08339 0.0
H988 H 0.71424 0.59667 0.18755 0.0
H989 H 0.77862 0.57069 0.06325 0.0
H990 H 0.71463 0.55871 0.11908 0.0
H991 H 0.75483 0.62252 0.11256 0.0
C992 C 0.74041 0.63207 0.14787 0.0
C993 C 0.7284 0.62534 0.1692 0.0
C994 C 0.72872 0.56124 0.1069 0.0
C995 C 0.73934 0.5949 0.13143 0.0
C996 C 0.73205 0.54709 0.08648 0.0
C997 C 0.7501 0.55017 0.07037 0.0
C998 C 0.74325 0.57889 0.11085 0.0
C999 C 0.76454 0.56772 0.0753 0.0
C1000 C 0.74609 0.61689 0.12914 0.0
C1001 C 0.72296 0.60287 0.17125 0.0
N1002 N 0.76066 0.58161 0.09497 0.0
N1003 N 0.7282 0.58854 0.15246 0.0
H1004 H 0.41185 0.76283 0.16298 0.0
H1005 H 0.45506 0.8189 0.03596 0.0
H1006 H 0.36871 0.79741 0.11173 0.0
H1007 H 0.49102 0.77173 0.08056 0.0
H1008 H 0.42566 0.81897 0.06813 0.0
H1009 H 0.44321 0.77423 0.1379 0.0
C1010 C 0.40892 0.77321 0.14673 0.0
C1011 C 0.38745 0.779 0.13944 0.0
C1012 C 0.44022 0.80897 0.07105 0.0
C1013 C 0.42359 0.79164 0.11001 0.0
C1014 C 0.457 0.80909 0.05286 0.0
C1015 C 0.4753 0.79523 0.05575 0.0
C1016 C 0.44209 0.79509 0.09218 0.0
C1017 C 0.47705 0.78255 0.07768 0.0
C1018 C 0.42692 0.77955 0.13222 0.0
C1019 C 0.3849 0.79217 0.11781 0.0
N1020 N 0.46061 0.7827 0.09496 0.0
N1021 N 0.40274 0.79785 0.10368 0.0
H1022 H 0.2521 0.40886 0.18199 0.0
H1023 H 0.26449 0.44044 0.03923 0.0
H1024 H 0.27067 0.36215 0.12428 0.0
H1025 H 0.22402 0.47922 0.08923 0.0
H1026 H 0.26507 0.41087 0.07023 0.0
H1027 H 0.23973 0.43431 0.14901 0.0
C1028 C 0.25328 0.40384 0.16242 0.0
C1029 C 0.26266 0.38345 0.15587 0.0
C1030 C 0.25573 0.42564 0.07439 0.0
C1031 C 0.24866 0.41243 0.11819 0.0
C1032 C 0.25545 0.44252 0.05672 0.0
C1033 C 0.24428 0.46219 0.06188 0.0
C1034 C 0.24526 0.42869 0.09775 0.0
C1035 C 0.23276 0.46418 0.08468 0.0
C1036 C 0.24609 0.4183 0.14364 0.0
C1037 C 0.26349 0.37763 0.13026 0.0
N1038 N 0.2339 0.44774 0.1021 0.0
N1039 N 0.25693 0.39218 0.11238 0.0
H1040 H 0.36421 0.31742 0.12102 0.0
H1041 H 0.47839 0.26219 0.08525 0.0
H1042 H 0.40799 0.29304 0.17851 0.0
H1043 H 0.45249 0.31744 0.04358 0.0
H1044 H 0.44965 0.26775 0.11721 0.0
H1045 H 0.39332 0.31172 0.08941 0.0
C1046 C 0.37993 0.31068 0.12685 0.0
C1047 C 0.38386 0.30561 0.15221 0.0
C1048 C 0.45036 0.27866 0.10109 0.0
C1049 C 0.41692 0.29893 0.11645 0.0
C1050 C 0.46666 0.27549 0.08285 0.0
C1051 C 0.46783 0.28944 0.06181 0.0
C1052 C 0.4348 0.29553 0.09789 0.0
C1053 C 0.45226 0.30643 0.05962 0.0
C1054 C 0.3965 0.30758 0.10894 0.0
C1055 C 0.40446 0.29708 0.15904 0.0
N1056 N 0.43622 0.30886 0.07731 0.0
N1057 N 0.42024 0.29383 0.14119 0.0
H1058 H 0.77301 0.40617 0.17023 0.0
H1059 H 0.80919 0.44213 0.0312 0.0
H1060 H 0.7816 0.36011 0.10891 0.0
H1061 H 0.78727 0.48681 0.0892 0.0
H1062 H 0.80821 0.4118 0.06198 0.0
H1063 H 0.78717 0.43555 0.14338 0.0
C1064 C 0.77806 0.4022 0.15115 0.0
C1065 C 0.77572 0.38073 0.14166 0.0
C1066 C 0.80415 0.42834 0.06811 0.0
C1067 C 0.792 0.41434 0.11074 0.0
C1068 C 0.80493 0.44562 0.05065 0.0
C1069 C 0.79851 0.46687 0.05792 0.0
C1070 C 0.79687 0.43252 0.09287 0.0
C1071 C 0.79253 0.4706 0.08306 0.0
C1072 C 0.78621 0.41897 0.13585 0.0
C1073 C 0.78305 0.37644 0.11698 0.0
N1074 N 0.79171 0.45358 0.09959 0.0
N1075 N 0.79057 0.39317 0.10224 0.0
H1076 H 0.60926 0.69517 0.16599 0.0
H1077 H 0.57113 0.77851 0.05788 0.0
H1078 H 0.64378 0.75546 0.14891 0.0
H1079 H 0.547 0.71181 0.06385 0.0
H1080 H 0.59583 0.77163 0.09335 0.0
H1081 H 0.58392 0.70255 0.13119 0.0
C1082 C 0.61134 0.71011 0.1551 0.0
C1083 C 0.62861 0.72478 0.16041 0.0
C1084 C 0.58518 0.75848 0.08686 0.0
C1085 C 0.59982 0.73317 0.12034 0.0
C1086 C 0.57104 0.76239 0.06662 0.0
C1087 C 0.55697 0.74569 0.05785 0.0
C1088 C 0.58513 0.73779 0.09863 0.0
C1089 C 0.55761 0.72513 0.06992 0.0
C1090 C 0.597 0.7142 0.13509 0.0
C1091 C 0.63077 0.74366 0.14536 0.0
N1092 N 0.5714 0.72179 0.08977 0.0
N1093 N 0.61652 0.74734 0.12604 0.0
H1094 H 0.28042 0.66773 0.108 0.0
H1095 H 0.31962 0.5471 0.07143 0.0
H1096 H 0.3238 0.63061 0.15672 0.0
H1097 H 0.2555 0.57231 0.05136 0.0
H1098 H 0.32529 0.57959 0.09849 0.0
H1099 H 0.27468 0.63469 0.0827 0.0
C1100 C 0.2886 0.65268 0.11365 0.0
C1101 C 0.30255 0.65216 0.13484 0.0
C1102 C 0.30998 0.57788 0.08819 0.0
C1103 C 0.29654 0.61431 0.10511 0.0
C1104 C 0.30677 0.55944 0.07271 0.0
C1105 C 0.28703 0.55697 0.0592 0.0
C1106 C 0.29355 0.59416 0.08964 0.0
C1107 C 0.2709 0.57345 0.06157 0.0
C1108 C 0.28541 0.63383 0.09899 0.0
C1109 C 0.31318 0.6321 0.14043 0.0
N1110 N 0.27459 0.59141 0.0763 0.0
N1111 N 0.31006 0.61404 0.12559 0.0
H1112 H 0.37701 0.71438 0.87519 0.0
H1113 H 0.46245 0.78987 0.95098 0.0
H1114 H 0.36416 0.78182 0.89644 0.0
H1115 H 0.46586 0.71879 0.95062 0.0
H1116 H 0.42983 0.78801 0.92423 0.0
H1117 H 0.41304 0.71671 0.89603 0.0
C1118 C 0.38193 0.72976 0.88393 0.0
C1119 C 0.3676 0.74792 0.88422 0.0
C1120 C 0.43778 0.77282 0.92989 0.0
C1121 C 0.4086 0.75066 0.90805 0.0
C1122 C 0.45647 0.77385 0.94511 0.0
C1123 C 0.46685 0.75443 0.95323 0.0
C1124 C 0.42942 0.75224 0.92253 0.0
C1125 C 0.45831 0.73417 0.94495 0.0
C1126 C 0.40238 0.73102 0.89595 0.0
C1127 C 0.37465 0.76738 0.89602 0.0
N1128 N 0.44004 0.73359 0.93009 0.0
N1129 N 0.39463 0.76824 0.90748 0.0
H1130 H 0.31547 0.38868 0.85904 0.0
H1131 H 0.25049 0.4455 0.97161 0.0
H1132 H 0.27349 0.35175 0.90946 0.0
H1133 H 0.31491 0.46806 0.94899 0.0
H1134 H 0.25437 0.41393 0.94312 0.0
H1135 H 0.31141 0.4208 0.88651 0.0
C1136 C 0.30548 0.38716 0.87584 0.0
C1137 C 0.2949 0.3672 0.88182 0.0
C1138 C 0.26762 0.42583 0.94439 0.0
C1139 C 0.2897 0.40432 0.91289 0.0
C1140 C 0.26539 0.44389 0.96051 0.0
C1141 C 0.28243 0.45939 0.96267 0.0
C1142 C 0.28682 0.42348 0.92991 0.0
C1143 C 0.30144 0.45641 0.94797 0.0
C1144 C 0.3031 0.40561 0.89142 0.0
C1145 C 0.28167 0.36671 0.90362 0.0
N1146 N 0.30308 0.43886 0.93205 0.0
N1147 N 0.27938 0.38499 0.91825 0.0
H1148 H 0.63088 0.26594 0.85035 0.0
H1149 H 0.54867 0.32307 0.94914 0.0
H1150 H 0.62383 0.33628 0.85985 0.0
H1151 H 0.56068 0.25295 0.94707 0.0
H1152 H 0.57441 0.32777 0.91426 0.0
H1153 H 0.60359 0.26039 0.88381 0.0
C1154 C 0.6236 0.28021 0.85939 0.0
C1155 C 0.62963 0.30162 0.8521 0.0
C1156 C 0.57142 0.31134 0.9214 0.0
C1157 C 0.59831 0.29538 0.89029 0.0
C1158 C 0.55669 0.30864 0.94134 0.0
C1159 C 0.55254 0.28759 0.95114 0.0
C1160 C 0.58211 0.29287 0.91107 0.0
C1161 C 0.56343 0.2695 0.94018 0.0
C1162 C 0.60797 0.27702 0.87843 0.0
C1163 C 0.61944 0.31947 0.86437 0.0
N1164 N 0.57773 0.27256 0.92074 0.0
N1165 N 0.60436 0.31594 0.88281 0.0
H1166 H 0.79932 0.65229 0.87302 0.0
H1167 H 0.74898 0.57556 0.9795 0.0
H1168 H 0.75489 0.67612 0.93038 0.0
H1169 H 0.81433 0.56337 0.95057 0.0
H1170 H 0.74772 0.60994 0.95585 0.0
H1171 H 0.80223 0.61705 0.89591 0.0
C1172 C 0.79023 0.65007 0.89041 0.0
C1173 C 0.77695 0.6671 0.89996 0.0
C1174 C 0.76234 0.59975 0.95465 0.0
C1175 C 0.77988 0.62705 0.92577 0.0
C1176 C 0.76304 0.58005 0.96803 0.0
C1177 C 0.78181 0.56657 0.96703 0.0
C1178 C 0.78037 0.60595 0.93975 0.0
C1179 C 0.79959 0.57334 0.95194 0.0
C1180 C 0.79197 0.63009 0.90345 0.0
C1181 C 0.76548 0.66348 0.92254 0.0
N1182 N 0.79839 0.59255 0.93871 0.0
N1183 N 0.76707 0.64381 0.93454 0.0
loop_
_geom_bond_atom_site_label_1
_geom_bond_atom_site_label_2
_geom_bond_distance
_geom_bond_site_symmetry_2
_ccdc_geom_bond_type
H0 C27 0.929 . S
N1 C26 1.433 . S
N1 C32 1.435 . S
N1 C38 1.423 . S
H2 C28 0.930 . S
H3 C31 0.931 . S
H4 C30 0.929 . S
H5 C33 0.930 . S
H6 C34 0.932 . S
H7 C37 0.929 . S
H8 C36 0.931 . S
H9 C39 0.929 . S
H10 C43 0.932 . S
H11 C40 0.931 . S
H12 C42 0.929 . S
H13 C45 0.929 . S
H14 C46 0.930 . S
H15 C48 0.929 . S
H16 C49 0.931 . S
H17 C51 0.930 . S
H18 C52 0.932 . S
H19 C54 0.931 . S
H20 C55 0.929 . S
H21 C57 0.929 . S
H22 C58 0.931 . S
H23 C60 0.929 . S
N24 C44 1.433 . S
N24 C50 1.435 . S
N24 C56 1.423 . S
H25 C61 0.932 . S
C26 N1 1.433 . S
C26 C27 1.363 . S
C26 C31 1.370 . S
C27 H0 0.929 . S
C27 C26 1.363 . S
C27 C28 1.385 . S
C28 H2 0.930 . S
C28 C27 1.385 . S
C28 C29 1.357 . S
C29 C28 1.357 . S
C29 C30 1.406 . S
C30 H4 0.929 . S
C30 C29 1.406 . S
C30 C31 1.391 . S
C31 H3 0.931 . S
C31 C26 1.370 . S
C31 C30 1.391 . S
C32 N1 1.435 . S
C32 C33 1.358 . S
C32 C37 1.371 . S
C33 H5 0.930 . S
C33 C32 1.358 . S
C33 C34 1.405 . S
C34 H6 0.932 . S
C34 C33 1.405 . S
C34 C35 1.383 . S
C35 C34 1.383 . S
C35 C36 1.393 . S
C36 H8 0.931 . S
C36 C35 1.393 . S
C36 C37 1.382 . S
C37 H7 0.929 . S
C37 C32 1.371 . S
C37 C36 1.382 . S
C38 N1 1.423 . S
C38 C39 1.362 . S
C38 C43 1.388 . S
C39 H9 0.929 . S
C39 C38 1.362 . S
C39 C40 1.376 . S
C40 H11 0.931 . S
C40 C39 1.376 . S
C40 C41 1.396 . S
C41 C40 1.396 . S
C41 C42 1.348 . S
C41 C59 1.472 . S
C42 H12 0.929 . S
C42 C41 1.348 . S
C42 C43 1.443 . S
C43 H10 0.932 . S
C43 C38 1.388 . S
C43 C42 1.443 . S
C44 N24 1.433 . S
C44 C45 1.363 . S
C44 C49 1.370 . S
C45 H13 0.929 . S
C45 C44 1.363 . S
C45 C46 1.385 . S
C46 H14 0.930 . S
C46 C45 1.385 . S
C46 C47 1.357 . S
C47 C46 1.357 . S
C47 C48 1.406 . S
C48 H15 0.929 . S
C48 C47 1.406 . S
C48 C49 1.391 . S
C49 H16 0.931 . S
C49 C44 1.370 . S
C49 C48 1.391 . S
C50 N24 1.435 . S
C50 C51 1.358 . S
C50 C55 1.371 . S
C51 H17 0.930 . S
C51 C50 1.358 . S
C51 C52 1.405 . S
C52 H18 0.932 . S
C52 C51 1.405 . S
C52 C53 1.383 . S
C53 C52 1.383 . S
C53 C54 1.393 . S
C54 H19 0.931 . S
C54 C53 1.393 . S
C54 C55 1.382 . S
C55 H20 0.929 . S
C55 C50 1.371 . S
C55 C54 1.382 . S
C56 N24 1.423 . S
C56 C57 1.362 . S
C56 C61 1.388 . S
C57 H21 0.929 . S
C57 C56 1.362 . S
C57 C58 1.376 . S
C58 H22 0.931 . S
C58 C57 1.376 . S
C58 C59 1.396 . S
C59 C41 1.472 . S
C59 C58 1.396 . S
C59 C60 1.348 . S
C60 H23 0.929 . S
C60 C59 1.348 . S
C60 C61 1.443 . S
C61 H25 0.932 . S
C61 C56 1.388 . S
C61 C60 1.443 . S
H62 C89 0.929 . S
N63 C88 1.433 . S
N63 C94 1.435 . S
N63 C100 1.423 . S
H64 C90 0.930 . S
H65 C93 0.931 . S
H66 C92 0.929 . S
H67 C95 0.930 . S
H68 C96 0.932 . S
H69 C99 0.929 . S
H70 C98 0.931 . S
H71 C101 0.929 . S
H72 C105 0.932 . S
H73 C102 0.931 . S
H74 C104 0.929 . S
H75 C107 0.929 . S
H76 C108 0.930 . S
H77 C110 0.929 . S
H78 C111 0.931 . S
H79 C113 0.930 . S
H80 C114 0.932 . S
H81 C116 0.931 . S
H82 C117 0.929 . S
H83 C119 0.929 . S
H84 C120 0.931 . S
H85 C122 0.929 . S
N86 C106 1.433 . S
N86 C112 1.435 . S
N86 C118 1.423 . S
H87 C123 0.932 . S
C88 N63 1.433 . S
C88 C89 1.363 . S
C88 C93 1.370 . S
C89 H62 0.929 . S
C89 C88 1.363 . S
C89 C90 1.385 . S
C90 H64 0.930 . S
C90 C89 1.385 . S
C90 C91 1.357 . S
C91 C90 1.357 . S
C91 C92 1.406 . S
C92 H66 0.929 . S
C92 C91 1.406 . S
C92 C93 1.391 . S
C93 H65 0.931 . S
C93 C88 1.370 . S
C93 C92 1.391 . S
C94 N63 1.435 . S
C94 C95 1.358 . S
C94 C99 1.371 . S
C95 H67 0.930 . S
C95 C94 1.358 . S
C95 C96 1.405 . S
C96 H68 0.932 . S
C96 C95 1.405 . S
C96 C97 1.383 . S
C97 C96 1.383 . S
C97 C98 1.393 . S
C98 H70 0.931 . S
C98 C97 1.393 . S
C98 C99 1.382 . S
C99 H69 0.929 . S
C99 C94 1.371 . S
C99 C98 1.382 . S
C100 N63 1.423 . S
C100 C101 1.362 . S
C100 C105 1.388 . S
C101 H71 0.929 . S
C101 C100 1.362 . S
C101 C102 1.376 . S
C102 H73 0.931 . S
C102 C101 1.376 . S
C102 C103 1.396 . S
C103 C102 1.396 . S
C103 C104 1.348 . S
C103 C121 1.472 . S
C104 H74 0.929 . S
C104 C103 1.348 . S
C104 C105 1.443 . S
C105 H72 0.932 . S
C105 C100 1.388 . S
C105 C104 1.443 . S
C106 N86 1.433 . S
C106 C107 1.363 . S
C106 C111 1.370 . S
C107 H75 0.929 . S
C107 C106 1.363 . S
C107 C108 1.385 . S
C108 H76 0.930 . S
C108 C107 1.385 . S
C108 C109 1.357 . S
C109 C108 1.357 . S
C109 C110 1.406 . S
C110 H77 0.929 . S
C110 C109 1.406 . S
C110 C111 1.391 . S
C111 H78 0.931 . S
C111 C106 1.370 . S
C111 C110 1.391 . S
C112 N86 1.435 . S
C112 C113 1.358 . S
C112 C117 1.371 . S
C113 H79 0.930 . S
C113 C112 1.358 . S
C113 C114 1.405 . S
C114 H80 0.932 . S
C114 C113 1.405 . S
C114 C115 1.383 . S
C115 C114 1.383 . S
C115 C116 1.393 . S
C116 H81 0.931 . S
C116 C115 1.393 . S
C116 C117 1.382 . S
C117 H82 0.929 . S
C117 C112 1.371 . S
C117 C116 1.382 . S
C118 N86 1.423 . S
C118 C119 1.362 . S
C118 C123 1.388 . S
C119 H83 0.929 . S
C119 C118 1.362 . S
C119 C120 1.376 . S
C120 H84 0.931 . S
C120 C119 1.376 . S
C120 C121 1.396 . S
C121 C103 1.472 . S
C121 C120 1.396 . S
C121 C122 1.348 . S
C122 H85 0.929 . S
C122 C121 1.348 . S
C122 C123 1.443 . S
C123 H87 0.932 . S
C123 C118 1.388 . S
C123 C122 1.443 . S
H124 C151 0.929 . S
N125 C150 1.433 . S
N125 C156 1.435 . S
N125 C162 1.423 . S
H126 C152 0.930 . S
H127 C155 0.931 . S
H128 C154 0.929 . S
H129 C157 0.930 . S
H130 C158 0.932 . S
H131 C161 0.929 . S
H132 C160 0.931 . S
H133 C163 0.929 . S
H134 C167 0.932 . S
H135 C164 0.931 . S
H136 C166 0.929 . S
H137 C169 0.929 . S
H138 C170 0.930 . S
H139 C172 0.929 . S
H140 C173 0.931 . S
H141 C175 0.930 . S
H142 C176 0.932 . S
H143 C178 0.931 . S
H144 C179 0.929 . S
H145 C181 0.929 . S
H146 C182 0.931 . S
H147 C184 0.929 . S
N148 C168 1.433 . S
N148 C174 1.435 . S
N148 C180 1.423 . S
H149 C185 0.932 . S
C150 N125 1.433 . S
C150 C151 1.363 . S
C150 C155 1.370 . S
C151 H124 0.929 . S
C151 C150 1.363 . S
C151 C152 1.385 . S
C152 H126 0.930 . S
C152 C151 1.385 . S
C152 C153 1.357 . S
C153 C152 1.357 . S
C153 C154 1.406 . S
C154 H128 0.929 . S
C154 C153 1.406 . S
C154 C155 1.391 . S
C155 H127 0.931 . S
C155 C150 1.370 . S
C155 C154 1.391 . S
C156 N125 1.435 . S
C156 C157 1.358 . S
C156 C161 1.371 . S
C157 H129 0.930 . S
C157 C156 1.358 . S
C157 C158 1.405 . S
C158 H130 0.932 . S
C158 C157 1.405 . S
C158 C159 1.383 . S
C159 C158 1.383 . S
C159 C160 1.393 . S
C160 H132 0.931 . S
C160 C159 1.393 . S
C160 C161 1.382 . S
C161 H131 0.929 . S
C161 C156 1.371 . S
C161 C160 1.382 . S
C162 N125 1.423 . S
C162 C163 1.362 . S
C162 C167 1.388 . S
C163 H133 0.929 . S
C163 C162 1.362 . S
C163 C164 1.376 . S
C164 H135 0.931 . S
C164 C163 1.376 . S
C164 C165 1.396 . S
C165 C164 1.396 . S
C165 C166 1.348 . S
C165 C183 1.472 . S
C166 H136 0.929 . S
C166 C165 1.348 . S
C166 C167 1.443 . S
C167 H134 0.932 . S
C167 C162 1.388 . S
C167 C166 1.443 . S
C168 N148 1.433 . S
C168 C169 1.363 . S
C168 C173 1.370 . S
C169 H137 0.929 . S
C169 C168 1.363 . S
C169 C170 1.385 . S
C170 H138 0.930 . S
C170 C169 1.385 . S
C170 C171 1.357 . S
C171 C170 1.357 . S
C171 C172 1.406 . S
C172 H139 0.929 . S
C172 C171 1.406 . S
C172 C173 1.391 . S
C173 H140 0.931 . S
C173 C168 1.370 . S
C173 C172 1.391 . S
C174 N148 1.435 . S
C174 C175 1.358 . S
C174 C179 1.371 . S
C175 H141 0.930 . S
C175 C174 1.358 . S
C175 C176 1.405 . S
C176 H142 0.932 . S
C176 C175 1.405 . S
C176 C177 1.383 . S
C177 C176 1.383 . S
C177 C178 1.393 . S
C178 H143 0.931 . S
C178 C177 1.393 . S
C178 C179 1.382 . S
C179 H144 0.929 . S
C179 C174 1.371 . S
C179 C178 1.382 . S
C180 N148 1.423 . S
C180 C181 1.362 . S
C180 C185 1.388 . S
C181 H145 0.929 . S
C181 C180 1.362 . S
C181 C182 1.376 . S
C182 H146 0.931 . S
C182 C181 1.376 . S
C182 C183 1.396 . S
C183 C165 1.472 . S
C183 C182 1.396 . S
C183 C184 1.348 . S
C184 H147 0.929 . S
C184 C183 1.348 . S
C184 C185 1.443 . S
C185 H149 0.932 . S
C185 C180 1.388 . S
C185 C184 1.443 . S
H186 C213 0.929 . S
N187 C212 1.433 . S
N187 C218 1.435 . S
N187 C224 1.423 . S
H188 C214 0.930 . S
H189 C217 0.931 . S
H190 C216 0.929 . S
H191 C219 0.930 . S
H192 C220 0.932 . S
H193 C223 0.929 . S
H194 C222 0.931 . S
H195 C225 0.929 . S
H196 C229 0.932 . S
H197 C226 0.931 . S
H198 C228 0.929 . S
H199 C231 0.929 . S
H200 C232 0.930 . S
H201 C234 0.929 . S
H202 C235 0.931 . S
H203 C237 0.930 . S
H204 C238 0.932 . S
H205 C240 0.931 . S
H206 C241 0.929 . S
H207 C243 0.929 . S
H208 C244 0.931 . S
H209 C246 0.929 . S
N210 C230 1.433 . S
N210 C236 1.435 . S
N210 C242 1.423 . S
H211 C247 0.932 . S
C212 N187 1.433 . S
C212 C213 1.363 . S
C212 C217 1.370 . S
C213 H186 0.929 . S
C213 C212 1.363 . S
C213 C214 1.385 . S
C214 H188 0.930 . S
C214 C213 1.385 . S
C214 C215 1.357 . S
C215 C214 1.357 . S
C215 C216 1.406 . S
C216 H190 0.929 . S
C216 C215 1.406 . S
C216 C217 1.391 . S
C217 H189 0.931 . S
C217 C212 1.370 . S
C217 C216 1.391 . S
C218 N187 1.435 . S
C218 C219 1.358 . S
C218 C223 1.371 . S
C219 H191 0.930 . S
C219 C218 1.358 . S
C219 C220 1.405 . S
C220 H192 0.932 . S
C220 C219 1.405 . S
C220 C221 1.383 . S
C221 C220 1.383 . S
C221 C222 1.393 . S
C222 H194 0.931 . S
C222 C221 1.393 . S
C222 C223 1.382 . S
C223 H193 0.929 . S
C223 C218 1.371 . S
C223 C222 1.382 . S
C224 N187 1.423 . S
C224 C225 1.362 . S
C224 C229 1.388 . S
C225 H195 0.929 . S
C225 C224 1.362 . S
C225 C226 1.376 . S
C226 H197 0.931 . S
C226 C225 1.376 . S
C226 C227 1.396 . S
C227 C226 1.396 . S
C227 C228 1.348 . S
C227 C245 1.472 . S
C228 H198 0.929 . S
C228 C227 1.348 . S
C228 C229 1.443 . S
C229 H196 0.932 . S
C229 C224 1.388 . S
C229 C228 1.443 . S
C230 N210 1.433 . S
C230 C231 1.363 . S
C230 C235 1.370 . S
C231 H199 0.929 . S
C231 C230 1.363 . S
C231 C232 1.385 . S
C232 H200 0.930 . S
C232 C231 1.385 . S
C232 C233 1.357 . S
C233 C232 1.357 . S
C233 C234 1.406 . S
C234 H201 0.929 . S
C234 C233 1.406 . S
C234 C235 1.391 . S
C235 H202 0.931 . S
C235 C230 1.370 . S
C235 C234 1.391 . S
C236 N210 1.435 . S
C236 C237 1.358 . S
C236 C241 1.371 . S
C237 H203 0.930 . S
C237 C236 1.358 . S
C237 C238 1.405 . S
C238 H204 0.932 . S
C238 C237 1.405 . S
C238 C239 1.383 . S
C239 C238 1.383 . S
C239 C240 1.393 . S
C240 H205 0.931 . S
C240 C239 1.393 . S
C240 C241 1.382 . S
C241 H206 0.929 . S
C241 C236 1.371 . S
C241 C240 1.382 . S
C242 N210 1.423 . S
C242 C243 1.362 . S
C242 C247 1.388 . S
C243 H207 0.929 . S
C243 C242 1.362 . S
C243 C244 1.376 . S
C244 H208 0.931 . S
C244 C243 1.376 . S
C244 C245 1.396 . S
C245 C227 1.472 . S
C245 C244 1.396 . S
C245 C246 1.348 . S
C246 H209 0.929 . S
C246 C245 1.348 . S
C246 C247 1.443 . S
C247 H211 0.932 . S
C247 C242 1.388 . S
C247 C246 1.443 . S
H248 C275 0.929 . S
N249 C274 1.433 . S
N249 C280 1.435 . S
N249 C286 1.423 . S
H250 C276 0.930 . S
H251 C279 0.931 . S
H252 C278 0.929 . S
H253 C281 0.930 . S
H254 C282 0.932 . S
H255 C285 0.929 . S
H256 C284 0.931 . S
H257 C287 0.929 . S
H258 C291 0.932 . S
H259 C288 0.931 . S
H260 C290 0.929 . S
H261 C293 0.929 . S
H262 C294 0.930 . S
H263 C296 0.929 . S
H264 C297 0.931 . S
H265 C299 0.930 . S
H266 C300 0.932 . S
H267 C302 0.931 . S
H268 C303 0.929 . S
H269 C305 0.929 . S
H270 C306 0.931 . S
H271 C308 0.929 . S
N272 C292 1.433 . S
N272 C298 1.435 . S
N272 C304 1.423 . S
H273 C309 0.932 . S
C274 N249 1.433 . S
C274 C275 1.363 . S
C274 C279 1.370 . S
C275 H248 0.929 . S
C275 C274 1.363 . S
C275 C276 1.385 . S
C276 H250 0.930 . S
C276 C275 1.385 . S
C276 C277 1.357 . S
C277 C276 1.357 . S
C277 C278 1.406 . S
C278 H252 0.929 . S
C278 C277 1.406 . S
C278 C279 1.391 . S
C279 H251 0.931 . S
C279 C274 1.370 . S
C279 C278 1.391 . S
C280 N249 1.435 . S
C280 C281 1.358 . S
C280 C285 1.371 . S
C281 H253 0.930 . S
C281 C280 1.358 . S
C281 C282 1.405 . S
C282 H254 0.932 . S
C282 C281 1.405 . S
C282 C283 1.383 . S
C283 C282 1.383 . S
C283 C284 1.393 . S
C284 H256 0.931 . S
C284 C283 1.393 . S
C284 C285 1.382 . S
C285 H255 0.929 . S
C285 C280 1.371 . S
C285 C284 1.382 . S
C286 N249 1.423 . S
C286 C287 1.362 . S
C286 C291 1.388 . S
C287 H257 0.929 . S
C287 C286 1.362 . S
C287 C288 1.376 . S
C288 H259 0.931 . S
C288 C287 1.376 . S
C288 C289 1.396 . S
C289 C288 1.396 . S
C289 C290 1.348 . S
C289 C307 1.472 . S
C290 H260 0.929 . S
C290 C289 1.348 . S
C290 C291 1.443 . S
C291 H258 0.932 . S
C291 C286 1.388 . S
C291 C290 1.443 . S
C292 N272 1.433 . S
C292 C293 1.363 . S
C292 C297 1.370 . S
C293 H261 0.929 . S
C293 C292 1.363 . S
C293 C294 1.385 . S
C294 H262 0.930 . S
C294 C293 1.385 . S
C294 C295 1.357 . S
C295 C294 1.357 . S
C295 C296 1.406 . S
C296 H263 0.929 . S
C296 C295 1.406 . S
C296 C297 1.391 . S
C297 H264 0.931 . S
C297 C292 1.370 . S
C297 C296 1.391 . S
C298 N272 1.435 . S
C298 C299 1.358 . S
C298 C303 1.371 . S
C299 H265 0.930 . S
C299 C298 1.358 . S
C299 C300 1.405 . S
C300 H266 0.932 . S
C300 C299 1.405 . S
C300 C301 1.383 . S
C301 C300 1.383 . S
C301 C302 1.393 . S
C302 H267 0.931 . S
C302 C301 1.393 . S
C302 C303 1.382 . S
C303 H268 0.929 . S
C303 C298 1.371 . S
C303 C302 1.382 . S
C304 N272 1.423 . S
C304 C305 1.362 . S
C304 C309 1.388 . S
C305 H269 0.929 . S
C305 C304 1.362 . S
C305 C306 1.376 . S
C306 H270 0.931 . S
C306 C305 1.376 . S
C306 C307 1.396 . S
C307 C289 1.472 . S
C307 C306 1.396 . S
C307 C308 1.348 . S
C308 H271 0.929 . S
C308 C307 1.348 . S
C308 C309 1.443 . S
C309 H273 0.932 . S
C309 C304 1.388 . S
C309 C308 1.443 . S
H310 C337 0.929 . S
N311 C336 1.433 . S
N311 C342 1.435 . S
N311 C348 1.423 . S
H312 C338 0.930 . S
H313 C341 0.931 . S
H314 C340 0.929 . S
H315 C343 0.930 . S
H316 C344 0.932 . S
H317 C347 0.929 . S
H318 C346 0.931 . S
H319 C349 0.929 . S
H320 C353 0.932 . S
H321 C350 0.931 . S
H322 C352 0.929 . S
H323 C355 0.929 . S
H324 C356 0.930 . S
H325 C358 0.929 . S
H326 C359 0.931 . S
H327 C361 0.930 . S
H328 C362 0.932 . S
H329 C364 0.931 . S
H330 C365 0.929 . S
H331 C367 0.929 . S
H332 C368 0.931 . S
H333 C370 0.929 . S
N334 C354 1.433 . S
N334 C360 1.435 . S
N334 C366 1.423 . S
H335 C371 0.932 . S
C336 N311 1.433 . S
C336 C337 1.363 . S
C336 C341 1.370 . S
C337 H310 0.929 . S
C337 C336 1.363 . S
C337 C338 1.385 . S
C338 H312 0.930 . S
C338 C337 1.385 . S
C338 C339 1.357 . S
C339 C338 1.357 . S
C339 C340 1.406 . S
C340 H314 0.929 . S
C340 C339 1.406 . S
C340 C341 1.391 . S
C341 H313 0.931 . S
C341 C336 1.370 . S
C341 C340 1.391 . S
C342 N311 1.435 . S
C342 C343 1.358 . S
C342 C347 1.371 . S
C343 H315 0.930 . S
C343 C342 1.358 . S
C343 C344 1.405 . S
C344 H316 0.932 . S
C344 C343 1.405 . S
C344 C345 1.383 . S
C345 C344 1.383 . S
C345 C346 1.393 . S
C346 H318 0.931 . S
C346 C345 1.393 . S
C346 C347 1.382 . S
C347 H317 0.929 . S
C347 C342 1.371 . S
C347 C346 1.382 . S
C348 N311 1.423 . S
C348 C349 1.362 . S
C348 C353 1.388 . S
C349 H319 0.929 . S
C349 C348 1.362 . S
C349 C350 1.376 . S
C350 H321 0.931 . S
C350 C349 1.376 . S
C350 C351 1.396 . S
C351 C350 1.396 . S
C351 C352 1.348 . S
C351 C369 1.472 . S
C352 H322 0.929 . S
C352 C351 1.348 . S
C352 C353 1.443 . S
C353 H320 0.932 . S
C353 C348 1.388 . S
C353 C352 1.443 . S
C354 N334 1.433 . S
C354 C355 1.363 . S
C354 C359 1.370 . S
C355 H323 0.929 . S
C355 C354 1.363 . S
C355 C356 1.385 . S
C356 H324 0.930 . S
C356 C355 1.385 . S
C356 C357 1.357 . S
C357 C356 1.357 . S
C357 C358 1.406 . S
C358 H325 0.929 . S
C358 C357 1.406 . S
C358 C359 1.391 . S
C359 H326 0.931 . S
C359 C354 1.370 . S
C359 C358 1.391 . S
C360 N334 1.435 . S
C360 C361 1.358 . S
C360 C365 1.371 . S
C361 H327 0.930 . S
C361 C360 1.358 . S
C361 C362 1.405 . S
C362 H328 0.932 . S
C362 C361 1.405 . S
C362 C363 1.383 . S
C363 C362 1.383 . S
C363 C364 1.393 . S
C364 H329 0.931 . S
C364 C363 1.393 . S
C364 C365 1.382 . S
C365 H330 0.929 . S
C365 C360 1.371 . S
C365 C364 1.382 . S
C366 N334 1.423 . S
C366 C367 1.362 . S
C366 C371 1.388 . S
C367 H331 0.929 . S
C367 C366 1.362 . S
C367 C368 1.376 . S
C368 H332 0.931 . S
C368 C367 1.376 . S
C368 C369 1.396 . S
C369 C351 1.472 . S
C369 C368 1.396 . S
C369 C370 1.348 . S
C370 H333 0.929 . S
C370 C369 1.348 . S
C370 C371 1.443 . S
C371 H335 0.932 . S
C371 C366 1.388 . S
C371 C370 1.443 . S
H372 C399 0.929 . S
N373 C398 1.433 . S
N373 C404 1.435 . S
N373 C410 1.423 . S
H374 C400 0.930 . S
H375 C403 0.931 . S
H376 C402 0.929 . S
H377 C405 0.930 . S
H378 C406 0.932 . S
H379 C409 0.929 . S
H380 C408 0.931 . S
H381 C411 0.929 . S
H382 C415 0.932 . S
H383 C412 0.931 . S
H384 C414 0.929 . S
H385 C417 0.929 . S
H386 C418 0.930 . S
H387 C420 0.929 . S
H388 C421 0.931 . S
H389 C423 0.930 . S
H390 C424 0.932 . S
H391 C426 0.931 . S
H392 C427 0.929 . S
H393 C429 0.929 . S
H394 C430 0.931 . S
H395 C432 0.929 . S
N396 C416 1.433 . S
N396 C422 1.435 . S
N396 C428 1.423 . S
H397 C433 0.932 . S
C398 N373 1.433 . S
C398 C399 1.363 . S
C398 C403 1.370 . S
C399 H372 0.929 . S
C399 C398 1.363 . S
C399 C400 1.385 . S
C400 H374 0.930 . S
C400 C399 1.385 . S
C400 C401 1.357 . S
C401 C400 1.357 . S
C401 C402 1.406 . S
C402 H376 0.929 . S
C402 C401 1.406 . S
C402 C403 1.391 . S
C403 H375 0.931 . S
C403 C398 1.370 . S
C403 C402 1.391 . S
C404 N373 1.435 . S
C404 C405 1.358 . S
C404 C409 1.371 . S
C405 H377 0.930 . S
C405 C404 1.358 . S
C405 C406 1.405 . S
C406 H378 0.932 . S
C406 C405 1.405 . S
C406 C407 1.383 . S
C407 C406 1.383 . S
C407 C408 1.393 . S
C408 H380 0.931 . S
C408 C407 1.393 . S
C408 C409 1.382 . S
C409 H379 0.929 . S
C409 C404 1.371 . S
C409 C408 1.382 . S
C410 N373 1.423 . S
C410 C411 1.362 . S
C410 C415 1.388 . S
C411 H381 0.929 . S
C411 C410 1.362 . S
C411 C412 1.376 . S
C412 H383 0.931 . S
C412 C411 1.376 . S
C412 C413 1.396 . S
C413 C412 1.396 . S
C413 C414 1.348 . S
C413 C431 1.472 . S
C414 H384 0.929 . S
C414 C413 1.348 . S
C414 C415 1.443 . S
C415 H382 0.932 . S
C415 C410 1.388 . S
C415 C414 1.443 . S
C416 N396 1.433 . S
C416 C417 1.363 . S
C416 C421 1.370 . S
C417 H385 0.929 . S
C417 C416 1.363 . S
C417 C418 1.385 . S
C418 H386 0.930 . S
C418 C417 1.385 . S
C418 C419 1.357 . S
C419 C418 1.357 . S
C419 C420 1.406 . S
C420 H387 0.929 . S
C420 C419 1.406 . S
C420 C421 1.391 . S
C421 H388 0.931 . S
C421 C416 1.370 . S
C421 C420 1.391 . S
C422 N396 1.435 . S
C422 C423 1.358 . S
C422 C427 1.371 . S
C423 H389 0.930 . S
C423 C422 1.358 . S
C423 C424 1.405 . S
C424 H390 0.932 . S
C424 C423 1.405 . S
C424 C425 1.383 . S
C425 C424 1.383 . S
C425 C426 1.393 . S
C426 H391 0.931 . S
C426 C425 1.393 . S
C426 C427 1.382 . S
C427 H392 0.929 . S
C427 C422 1.371 . S
C427 C426 1.382 . S
C428 N396 1.423 . S
C428 C429 1.362 . S
C428 C433 1.388 . S
C429 H393 0.929 . S
C429 C428 1.362 . S
C429 C430 1.376 . S
C430 H394 0.931 . S
C430 C429 1.376 . S
C430 C431 1.396 . S
C431 C413 1.472 . S
C431 C430 1.396 . S
C431 C432 1.348 . S
C432 H395 0.929 . S
C432 C431 1.348 . S
C432 C433 1.443 . S
C433 H397 0.932 . S
C433 C428 1.388 . S
C433 C432 1.443 . S
H434 C461 0.929 . S
N435 C460 1.433 . S
N435 C466 1.435 . S
N435 C472 1.423 . S
H436 C462 0.930 . S
H437 C465 0.931 . S
H438 C464 0.929 . S
H439 C467 0.930 . S
H440 C468 0.932 . S
H441 C471 0.929 . S
H442 C470 0.931 . S
H443 C473 0.929 . S
H444 C477 0.932 . S
H445 C474 0.931 . S
H446 C476 0.929 . S
H447 C479 0.929 . S
H448 C480 0.930 . S
H449 C482 0.929 . S
H450 C483 0.931 . S
H451 C485 0.930 . S
H452 C486 0.932 . S
H453 C488 0.931 . S
H454 C489 0.929 . S
H455 C491 0.929 . S
H456 C492 0.931 . S
H457 C494 0.929 . S
N458 C478 1.433 . S
N458 C484 1.435 . S
N458 C490 1.423 . S
H459 C495 0.932 . S
C460 N435 1.433 . S
C460 C461 1.363 . S
C460 C465 1.370 . S
C461 H434 0.929 . S
C461 C460 1.363 . S
C461 C462 1.385 . S
C462 H436 0.930 . S
C462 C461 1.385 . S
C462 C463 1.357 . S
C463 C462 1.357 . S
C463 C464 1.406 . S
C464 H438 0.929 . S
C464 C463 1.406 . S
C464 C465 1.391 . S
C465 H437 0.931 . S
C465 C460 1.370 . S
C465 C464 1.391 . S
C466 N435 1.435 . S
C466 C467 1.358 . S
C466 C471 1.371 . S
C467 H439 0.930 . S
C467 C466 1.358 . S
C467 C468 1.405 . S
C468 H440 0.932 . S
C468 C467 1.405 . S
C468 C469 1.383 . S
C469 C468 1.383 . S
C469 C470 1.393 . S
C470 H442 0.931 . S
C470 C469 1.393 . S
C470 C471 1.382 . S
C471 H441 0.929 . S
C471 C466 1.371 . S
C471 C470 1.382 . S
C472 N435 1.423 . S
C472 C473 1.362 . S
C472 C477 1.388 . S
C473 H443 0.929 . S
C473 C472 1.362 . S
C473 C474 1.376 . S
C474 H445 0.931 . S
C474 C473 1.376 . S
C474 C475 1.396 . S
C475 C474 1.396 . S
C475 C476 1.348 . S
C475 C493 1.472 . S
C476 H446 0.929 . S
C476 C475 1.348 . S
C476 C477 1.443 . S
C477 H444 0.932 . S
C477 C472 1.388 . S
C477 C476 1.443 . S
C478 N458 1.433 . S
C478 C479 1.363 . S
C478 C483 1.370 . S
C479 H447 0.929 . S
C479 C478 1.363 . S
C479 C480 1.385 . S
C480 H448 0.930 . S
C480 C479 1.385 . S
C480 C481 1.357 . S
C481 C480 1.357 . S
C481 C482 1.406 . S
C482 H449 0.929 . S
C482 C481 1.406 . S
C482 C483 1.391 . S
C483 H450 0.931 . S
C483 C478 1.370 . S
C483 C482 1.391 . S
C484 N458 1.435 . S
C484 C485 1.358 . S
C484 C489 1.371 . S
C485 H451 0.930 . S
C485 C484 1.358 . S
C485 C486 1.405 . S
C486 H452 0.932 . S
C486 C485 1.405 . S
C486 C487 1.383 . S
C487 C486 1.383 . S
C487 C488 1.393 . S
C488 H453 0.931 . S
C488 C487 1.393 . S
C488 C489 1.382 . S
C489 H454 0.929 . S
C489 C484 1.371 . S
C489 C488 1.382 . S
C490 N458 1.423 . S
C490 C491 1.362 . S
C490 C495 1.388 . S
C491 H455 0.929 . S
C491 C490 1.362 . S
C491 C492 1.376 . S
C492 H456 0.931 . S
C492 C491 1.376 . S
C492 C493 1.396 . S
C493 C475 1.472 . S
C493 C492 1.396 . S
C493 C494 1.348 . S
C494 H457 0.929 . S
C494 C493 1.348 . S
C494 C495 1.443 . S
C495 H459 0.932 . S
C495 C490 1.388 . S
C495 C494 1.443 . S
C496 O498 1.247 . S
C496 O500 1.258 . S
C497 O504 1.247 . S
C497 O505 1.258 . S
O498 C496 1.247 . S
O498 Zn499 2.028 1_655 S
Zn499 O498 2.028 1_455 S
Zn499 O503 2.035 . S
Zn499 O505 2.035 . S
Zn499 O506 2.028 1_455 S
O500 C496 1.258 . S
O500 Zn501 2.035 1_655 S
Zn501 O500 2.035 1_455 S
Zn501 O502 2.028 . S
Zn501 O504 2.028 . S
Zn501 O507 2.035 1_455 S
O502 Zn501 2.028 . S
O502 C508 1.247 . S
O503 Zn499 2.035 . S
O503 C508 1.258 . S
O504 C497 1.247 . S
O504 Zn501 2.028 . S
O505 C497 1.258 . S
O505 Zn499 2.035 . S
O506 Zn499 2.028 1_655 S
O506 C509 1.247 . S
O507 Zn501 2.035 1_655 S
O507 C509 1.258 . S
C508 O502 1.247 . S
C508 O503 1.258 . S
C509 O506 1.247 . S
C509 O507 1.258 . S
C510 O512 1.247 . S
C510 O514 1.258 . S
C511 O518 1.247 . S
C511 O519 1.258 . S
O512 C510 1.247 . S
O512 Zn513 2.028 . S
Zn513 O512 2.028 . S
Zn513 O517 2.035 1_545 S
Zn513 O519 2.035 1_545 S
Zn513 O520 2.028 . S
O514 C510 1.258 . S
O514 Zn515 2.035 . S
Zn515 O514 2.035 . S
Zn515 O516 2.028 1_545 S
Zn515 O518 2.028 1_545 S
Zn515 O521 2.035 . S
O516 Zn515 2.028 1_565 S
O516 C522 1.247 . S
O517 Zn513 2.035 1_565 S
O517 C522 1.258 . S
O518 C511 1.247 . S
O518 Zn515 2.028 1_565 S
O519 C511 1.258 . S
O519 Zn513 2.035 1_565 S
O520 Zn513 2.028 . S
O520 C523 1.247 . S
O521 Zn515 2.035 . S
O521 C523 1.258 . S
C522 O516 1.247 . S
C522 O517 1.258 . S
C523 O520 1.247 . S
C523 O521 1.258 . S
C524 O526 1.247 . S
C524 O528 1.258 . S
C525 O532 1.247 . S
C525 O533 1.258 . S
O526 C524 1.247 . S
O526 Zn527 2.028 1_655 S
Zn527 O526 2.028 1_455 S
Zn527 O531 2.035 . S
Zn527 O533 2.035 . S
Zn527 O534 2.028 1_455 S
O528 C524 1.258 . S
O528 Zn529 2.035 1_655 S
Zn529 O528 2.035 1_455 S
Zn529 O530 2.028 . S
Zn529 O532 2.028 . S
Zn529 O535 2.035 1_455 S
O530 Zn529 2.028 . S
O530 C536 1.247 . S
O531 Zn527 2.035 . S
O531 C536 1.258 . S
O532 C525 1.247 . S
O532 Zn529 2.028 . S
O533 C525 1.258 . S
O533 Zn527 2.035 . S
O534 Zn527 2.028 1_655 S
O534 C537 1.247 . S
O535 Zn529 2.035 1_655 S
O535 C537 1.258 . S
C536 O530 1.247 . S
C536 O531 1.258 . S
C537 O534 1.247 . S
C537 O535 1.258 . S
C538 O540 1.247 . S
C538 O542 1.258 . S
C539 O546 1.247 . S
C539 O547 1.258 . S
O540 C538 1.247 . S
O540 Zn541 2.028 . S
Zn541 O540 2.028 . S
Zn541 O545 2.035 1_545 S
Zn541 O547 2.035 1_545 S
Zn541 O548 2.028 . S
O542 C538 1.258 . S
O542 Zn543 2.035 . S
Zn543 O542 2.035 . S
Zn543 O544 2.028 1_545 S
Zn543 O546 2.028 1_545 S
Zn543 O549 2.035 . S
O544 Zn543 2.028 1_565 S
O544 C550 1.247 . S
O545 Zn541 2.035 1_565 S
O545 C550 1.258 . S
O546 C539 1.247 . S
O546 Zn543 2.028 1_565 S
O547 C539 1.258 . S
O547 Zn541 2.035 1_565 S
O548 Zn541 2.028 . S
O548 C551 1.247 . S
O549 Zn543 2.035 . S
O549 C551 1.258 . S
C550 O544 1.247 . S
C550 O545 1.258 . S
C551 O548 1.247 . S
C551 O549 1.258 . S
C552 O554 1.247 . S
C552 O556 1.258 . S
C553 O560 1.247 . S
C553 O561 1.258 . S
O554 C552 1.247 . S
O554 Zn555 2.028 . S
Zn555 O554 2.028 . S
Zn555 O559 2.035 . S
Zn555 O561 2.035 1_554 S
Zn555 O562 2.028 1_554 S
O556 C552 1.258 . S
O556 Zn557 2.035 . S
Zn557 O556 2.035 . S
Zn557 O558 2.028 . S
Zn557 O560 2.028 1_554 S
Zn557 O563 2.035 1_554 S
O558 Zn557 2.028 . S
O558 C564 1.247 . S
O559 Zn555 2.035 . S
O559 C564 1.258 . S
O560 C553 1.247 . S
O560 Zn557 2.028 1_556 S
O561 C553 1.258 . S
O561 Zn555 2.035 1_556 S
O562 Zn555 2.028 1_556 S
O562 C565 1.247 . S
O563 Zn557 2.035 1_556 S
O563 C565 1.258 . S
C564 O558 1.247 . S
C564 O559 1.258 . S
C565 O562 1.247 . S
C565 O563 1.258 . S
C566 O568 1.247 . S
C566 O570 1.258 . S
C567 O574 1.247 . S
C567 O575 1.258 . S
O568 C566 1.247 . S
O568 Zn569 2.028 . S
Zn569 O568 2.028 . S
Zn569 O573 2.035 . S
Zn569 O575 2.035 1_554 S
Zn569 O576 2.028 1_554 S
O570 C566 1.258 . S
O570 Zn571 2.035 . S
Zn571 O570 2.035 . S
Zn571 O572 2.028 . S
Zn571 O574 2.028 1_554 S
Zn571 O577 2.035 1_554 S
O572 Zn571 2.028 . S
O572 C578 1.247 . S
O573 Zn569 2.035 . S
O573 C578 1.258 . S
O574 C567 1.247 . S
O574 Zn571 2.028 1_556 S
O575 C567 1.258 . S
O575 Zn569 2.035 1_556 S
O576 Zn569 2.028 1_556 S
O576 C579 1.247 . S
O577 Zn571 2.035 1_556 S
O577 C579 1.258 . S
C578 O572 1.247 . S
C578 O573 1.258 . S
C579 O576 1.247 . S
C579 O577 1.258 . S
C580 O582 1.247 . S
C580 O584 1.258 . S
C581 O588 1.247 . S
C581 O589 1.258 . S
O582 C580 1.247 . S
O582 Zn583 2.028 1_556 S
Zn583 O582 2.028 1_554 S
Zn583 O587 2.035 1_554 S
Zn583 O589 2.035 . S
Zn583 O590 2.028 . S
O584 C580 1.258 . S
O584 Zn585 2.035 1_556 S
Zn585 O584 2.035 1_554 S
Zn585 O586 2.028 1_554 S
Zn585 O588 2.028 . S
Zn585 O591 2.035 . S
O586 Zn585 2.028 1_556 S
O586 C592 1.247 . S
O587 Zn583 2.035 1_556 S
O587 C592 1.258 . S
O588 C581 1.247 . S
O588 Zn585 2.028 . S
O589 C581 1.258 . S
O589 Zn583 2.035 . S
O590 Zn583 2.028 . S
O590 C593 1.247 . S
O591 Zn585 2.035 . S
O591 C593 1.258 . S
C592 O586 1.247 . S
C592 O587 1.258 . S
C593 O590 1.247 . S
C593 O591 1.258 . S
C594 O596 1.247 . S
C594 O598 1.258 . S
C595 O602 1.247 . S
C595 O603 1.258 . S
O596 C594 1.247 . S
O596 Zn597 2.028 . S
Zn597 O596 2.028 . S
Zn597 O601 2.035 . S
Zn597 O603 2.035 1_554 S
Zn597 O604 2.028 1_554 S
O598 C594 1.258 . S
O598 Zn599 2.035 . S
Zn599 O598 2.035 . S
Zn599 O600 2.028 . S
Zn599 O602 2.028 1_554 S
Zn599 O605 2.035 1_554 S
O600 Zn599 2.028 . S
O600 C606 1.247 . S
O601 Zn597 2.035 . S
O601 C606 1.258 . S
O602 C595 1.247 . S
O602 Zn599 2.028 1_556 S
O603 C595 1.258 . S
O603 Zn597 2.035 1_556 S
O604 Zn597 2.028 1_556 S
O604 C607 1.247 . S
O605 Zn599 2.035 1_556 S
O605 C607 1.258 . S
C606 O600 1.247 . S
C606 O601 1.258 . S
C607 O604 1.247 . S
C607 O605 1.258 . S
H608 C614 0.930 . S
H609 C618 0.930 . S
H610 C623 0.929 . S
H611 C621 0.929 . S
H612 C616 0.929 . S
H613 C622 0.929 . S
C614 H608 0.930 . S
C614 C615 1.367 . S
C614 C622 1.378 . S
C615 C614 1.367 . S
C615 C623 1.433 . S
C616 H612 0.929 . S
C616 C618 1.378 . S
C616 C620 1.350 . S
C617 C620 1.463 . S
C617 C622 1.350 . S
C617 N625 1.427 . S
C618 H609 0.930 . S
C618 C616 1.378 . S
C618 C619 1.367 . S
C619 C618 1.367 . S
C619 C621 1.433 . S
C620 C616 1.350 . S
C620 C617 1.463 . S
C620 N624 1.427 . S
C621 H611 0.929 . S
C621 C619 1.433 . S
C621 N624 1.384 . S
C622 H613 0.929 . S
C622 C614 1.378 . S
C622 C617 1.350 . S
C623 H610 0.929 . S
C623 C615 1.433 . S
C623 N625 1.384 . S
N624 C620 1.427 . S
N624 C621 1.384 . S
N625 C617 1.427 . S
N625 C623 1.384 . S
H626 C632 0.930 . S
H627 C636 0.930 . S
H628 C641 0.929 . S
H629 C639 0.929 . S
H630 C634 0.929 . S
H631 C640 0.929 . S
C632 H626 0.930 . S
C632 C633 1.367 . S
C632 C640 1.378 . S
C633 C632 1.367 . S
C633 C641 1.433 . S
C634 H630 0.929 . S
C634 C636 1.378 . S
C634 C638 1.350 . S
C635 C638 1.463 . S
C635 C640 1.350 . S
C635 N643 1.427 . S
C636 H627 0.930 . S
C636 C634 1.378 . S
C636 C637 1.367 . S
C637 C636 1.367 . S
C637 C639 1.433 . S
C638 C634 1.350 . S
C638 C635 1.463 . S
C638 N642 1.427 . S
C639 H629 0.929 . S
C639 C637 1.433 . S
C639 N642 1.384 . S
C640 H631 0.929 . S
C640 C632 1.378 . S
C640 C635 1.350 . S
C641 H628 0.929 . S
C641 C633 1.433 . S
C641 N643 1.384 . S
N642 C638 1.427 . S
N642 C639 1.384 . S
N643 C635 1.427 . S
N643 C641 1.384 . S
H644 C650 0.930 . S
H645 C654 0.930 . S
H646 C659 0.929 . S
H647 C657 0.929 . S
H648 C652 0.929 . S
H649 C658 0.929 . S
C650 H644 0.930 . S
C650 C651 1.367 . S
C650 C658 1.378 . S
C651 C650 1.367 . S
C651 C659 1.433 . S
C652 H648 0.929 . S
C652 C654 1.378 . S
C652 C656 1.350 . S
C653 C656 1.463 . S
C653 C658 1.350 . S
C653 N661 1.427 . S
C654 H645 0.930 . S
C654 C652 1.378 . S
C654 C655 1.367 . S
C655 C654 1.367 . S
C655 C657 1.433 . S
C656 C652 1.350 . S
C656 C653 1.463 . S
C656 N660 1.427 . S
C657 H647 0.929 . S
C657 C655 1.433 . S
C657 N660 1.384 . S
C658 H649 0.929 . S
C658 C650 1.378 . S
C658 C653 1.350 . S
C659 H646 0.929 . S
C659 C651 1.433 . S
C659 N661 1.384 . S
N660 C656 1.427 . S
N660 C657 1.384 . S
N661 C653 1.427 . S
N661 C659 1.384 . S
H662 C668 0.930 . S
H663 C672 0.930 . S
H664 C677 0.929 . S
H665 C675 0.929 . S
H666 C670 0.929 . S
H667 C676 0.929 . S
C668 H662 0.930 . S
C668 C669 1.367 . S
C668 C676 1.378 . S
C669 C668 1.367 . S
C669 C677 1.433 . S
C670 H666 0.929 . S
C670 C672 1.378 . S
C670 C674 1.350 . S
C671 C674 1.463 . S
C671 C676 1.350 . S
C671 N679 1.427 . S
C672 H663 0.930 . S
C672 C670 1.378 . S
C672 C673 1.367 . S
C673 C672 1.367 . S
C673 C675 1.433 . S
C674 C670 1.350 . S
C674 C671 1.463 . S
C674 N678 1.427 . S
C675 H665 0.929 . S
C675 C673 1.433 . S
C675 N678 1.384 . S
C676 H667 0.929 . S
C676 C668 1.378 . S
C676 C671 1.350 . S
C677 H664 0.929 . S
C677 C669 1.433 . S
C677 N679 1.384 . S
N678 C674 1.427 . S
N678 C675 1.384 . S
N679 C671 1.427 . S
N679 C677 1.384 . S
H680 C686 0.930 . S
H681 C690 0.930 . S
H682 C695 0.929 . S
H683 C693 0.929 . S
H684 C688 0.929 . S
H685 C694 0.929 . S
C686 H680 0.930 . S
C686 C687 1.367 . S
C686 C694 1.378 . S
C687 C686 1.367 . S
C687 C695 1.433 . S
C688 H684 0.929 . S
C688 C690 1.378 . S
C688 C692 1.350 . S
C689 C692 1.463 . S
C689 C694 1.350 . S
C689 N697 1.427 . S
C690 H681 0.930 . S
C690 C688 1.378 . S
C690 C691 1.367 . S
C691 C690 1.367 . S
C691 C693 1.433 . S
C692 C688 1.350 . S
C692 C689 1.463 . S
C692 N696 1.427 . S
C693 H683 0.929 . S
C693 C691 1.433 . S
C693 N696 1.384 . S
C694 H685 0.929 . S
C694 C686 1.378 . S
C694 C689 1.350 . S
C695 H682 0.929 . S
C695 C687 1.433 . S
C695 N697 1.384 . S
N696 C692 1.427 . S
N696 C693 1.384 . S
N697 C689 1.427 . S
N697 C695 1.384 . S
H698 C704 0.930 . S
H699 C708 0.930 . S
H700 C713 0.929 . S
H701 C711 0.929 . S
H702 C706 0.929 . S
H703 C712 0.929 . S
C704 H698 0.930 . S
C704 C705 1.367 . S
C704 C712 1.378 . S
C705 C704 1.367 . S
C705 C713 1.433 . S
C706 H702 0.929 . S
C706 C708 1.378 . S
C706 C710 1.350 . S
C707 C710 1.463 . S
C707 C712 1.350 . S
C707 N715 1.427 . S
C708 H699 0.930 . S
C708 C706 1.378 . S
C708 C709 1.367 . S
C709 C708 1.367 . S
C709 C711 1.433 . S
C710 C706 1.350 . S
C710 C707 1.463 . S
C710 N714 1.427 . S
C711 H701 0.929 . S
C711 C709 1.433 . S
C711 N714 1.384 . S
C712 H703 0.929 . S
C712 C704 1.378 . S
C712 C707 1.350 . S
C713 H700 0.929 . S
C713 C705 1.433 . S
C713 N715 1.384 . S
N714 C710 1.427 . S
N714 C711 1.384 . S
N715 C707 1.427 . S
N715 C713 1.384 . S
H716 C722 0.930 . S
H717 C726 0.930 . S
H718 C731 0.929 . S
H719 C729 0.929 . S
H720 C724 0.929 . S
H721 C730 0.929 . S
C722 H716 0.930 . S
C722 C723 1.367 . S
C722 C730 1.378 . S
C723 C722 1.367 . S
C723 C731 1.433 . S
C724 H720 0.929 . S
C724 C726 1.378 . S
C724 C728 1.350 . S
C725 C728 1.463 . S
C725 C730 1.350 . S
C725 N733 1.427 . S
C726 H717 0.930 . S
C726 C724 1.378 . S
C726 C727 1.367 . S
C727 C726 1.367 . S
C727 C729 1.433 . S
C728 C724 1.350 . S
C728 C725 1.463 . S
C728 N732 1.427 . S
C729 H719 0.929 . S
C729 C727 1.433 . S
C729 N732 1.384 . S
C730 H721 0.929 . S
C730 C722 1.378 . S
C730 C725 1.350 . S
C731 H718 0.929 . S
C731 C723 1.433 . S
C731 N733 1.384 . S
N732 C728 1.427 . S
N732 C729 1.384 . S
N733 C725 1.427 . S
N733 C731 1.384 . S
H734 C740 0.930 . S
H735 C744 0.930 . S
H736 C749 0.929 . S
H737 C747 0.929 . S
H738 C742 0.929 . S
H739 C748 0.929 . S
C740 H734 0.930 . S
C740 C741 1.367 . S
C740 C748 1.378 . S
C741 C740 1.367 . S
C741 C749 1.433 . S
C742 H738 0.929 . S
C742 C744 1.378 . S
C742 C746 1.350 . S
C743 C746 1.463 . S
C743 C748 1.350 . S
C743 N751 1.427 . S
C744 H735 0.930 . S
C744 C742 1.378 . S
C744 C745 1.367 . S
C745 C744 1.367 . S
C745 C747 1.433 . S
C746 C742 1.350 . S
C746 C743 1.463 . S
C746 N750 1.427 . S
C747 H737 0.929 . S
C747 C745 1.433 . S
C747 N750 1.384 . S
C748 H739 0.929 . S
C748 C740 1.378 . S
C748 C743 1.350 . S
C749 H736 0.929 . S
C749 C741 1.433 . S
C749 N751 1.384 . S
N750 C746 1.427 . S
N750 C747 1.384 . S
N751 C743 1.427 . S
N751 C749 1.384 . S
H752 C758 0.930 . S
H753 C762 0.930 . S
H754 C767 0.929 . S
H755 C765 0.929 . S
H756 C760 0.929 . S
H757 C766 0.929 . S
C758 H752 0.930 . S
C758 C759 1.367 . S
C758 C766 1.378 . S
C759 C758 1.367 . S
C759 C767 1.433 . S
C760 H756 0.929 . S
C760 C762 1.378 . S
C760 C764 1.350 . S
C761 C764 1.463 . S
C761 C766 1.350 . S
C761 N769 1.427 . S
C762 H753 0.930 . S
C762 C760 1.378 . S
C762 C763 1.367 . S
C763 C762 1.367 . S
C763 C765 1.433 . S
C764 C760 1.350 . S
C764 C761 1.463 . S
C764 N768 1.427 . S
C765 H755 0.929 . S
C765 C763 1.433 . S
C765 N768 1.384 . S
C766 H757 0.929 . S
C766 C758 1.378 . S
C766 C761 1.350 . S
C767 H754 0.929 . S
C767 C759 1.433 . S
C767 N769 1.384 . S
N768 C764 1.427 . S
N768 C765 1.384 . S
N769 C761 1.427 . S
N769 C767 1.384 . S
H770 C776 0.930 . S
H771 C780 0.930 . S
H772 C785 0.929 . S
H773 C783 0.929 . S
H774 C778 0.929 . S
H775 C784 0.929 . S
C776 H770 0.930 . S
C776 C777 1.367 . S
C776 C784 1.378 . S
C777 C776 1.367 . S
C777 C785 1.433 . S
C778 H774 0.929 . S
C778 C780 1.378 . S
C778 C782 1.350 . S
C779 C782 1.463 . S
C779 C784 1.350 . S
C779 N787 1.427 . S
C780 H771 0.930 . S
C780 C778 1.378 . S
C780 C781 1.367 . S
C781 C780 1.367 . S
C781 C783 1.433 . S
C782 C778 1.350 . S
C782 C779 1.463 . S
C782 N786 1.427 . S
C783 H773 0.929 . S
C783 C781 1.433 . S
C783 N786 1.384 . S
C784 H775 0.929 . S
C784 C776 1.378 . S
C784 C779 1.350 . S
C785 H772 0.929 . S
C785 C777 1.433 . S
C785 N787 1.384 . S
N786 C782 1.427 . S
N786 C783 1.384 . S
N787 C779 1.427 . S
N787 C785 1.384 . S
H788 C794 0.930 . S
H789 C798 0.930 . S
H790 C803 0.929 . S
H791 C801 0.929 . S
H792 C796 0.929 . S
H793 C802 0.929 . S
C794 H788 0.930 . S
C794 C795 1.367 . S
C794 C802 1.378 . S
C795 C794 1.367 . S
C795 C803 1.433 . S
C796 H792 0.929 . S
C796 C798 1.378 . S
C796 C800 1.350 . S
C797 C800 1.463 . S
C797 C802 1.350 . S
C797 N805 1.427 . S
C798 H789 0.930 . S
C798 C796 1.378 . S
C798 C799 1.367 . S
C799 C798 1.367 . S
C799 C801 1.433 . S
C800 C796 1.350 . S
C800 C797 1.463 . S
C800 N804 1.427 . S
C801 H791 0.929 . S
C801 C799 1.433 . S
C801 N804 1.384 . S
C802 H793 0.929 . S
C802 C794 1.378 . S
C802 C797 1.350 . S
C803 H790 0.929 . S
C803 C795 1.433 . S
C803 N805 1.384 . S
N804 C800 1.427 . S
N804 C801 1.384 . S
N805 C797 1.427 . S
N805 C803 1.384 . S
H806 C812 0.930 . S
H807 C816 0.930 . S
H808 C821 0.929 . S
H809 C819 0.929 . S
H810 C814 0.929 . S
H811 C820 0.929 . S
C812 H806 0.930 . S
C812 C813 1.367 . S
C812 C820 1.378 . S
C813 C812 1.367 . S
C813 C821 1.433 . S
C814 H810 0.929 . S
C814 C816 1.378 . S
C814 C818 1.350 . S
C815 C818 1.463 . S
C815 C820 1.350 . S
C815 N823 1.427 . S
C816 H807 0.930 . S
C816 C814 1.378 . S
C816 C817 1.367 . S
C817 C816 1.367 . S
C817 C819 1.433 . S
C818 C814 1.350 . S
C818 C815 1.463 . S
C818 N822 1.427 . S
C819 H809 0.929 . S
C819 C817 1.433 . S
C819 N822 1.384 . S
C820 H811 0.929 . S
C820 C812 1.378 . S
C820 C815 1.350 . S
C821 H808 0.929 . S
C821 C813 1.433 . S
C821 N823 1.384 . S
N822 C818 1.427 . S
N822 C819 1.384 . S
N823 C815 1.427 . S
N823 C821 1.384 . S
H824 C830 0.930 . S
H825 C834 0.930 . S
H826 C839 0.929 . S
H827 C837 0.929 . S
H828 C832 0.929 . S
H829 C838 0.929 . S
C830 H824 0.930 . S
C830 C831 1.367 . S
C830 C838 1.378 . S
C831 C830 1.367 . S
C831 C839 1.433 . S
C832 H828 0.929 . S
C832 C834 1.378 . S
C832 C836 1.350 . S
C833 C836 1.463 . S
C833 C838 1.350 . S
C833 N841 1.427 . S
C834 H825 0.930 . S
C834 C832 1.378 . S
C834 C835 1.367 . S
C835 C834 1.367 . S
C835 C837 1.433 . S
C836 C832 1.350 . S
C836 C833 1.463 . S
C836 N840 1.427 . S
C837 H827 0.929 . S
C837 C835 1.433 . S
C837 N840 1.384 . S
C838 H829 0.929 . S
C838 C830 1.378 . S
C838 C833 1.350 . S
C839 H826 0.929 . S
C839 C831 1.433 . S
C839 N841 1.384 . S
N840 C836 1.427 . S
N840 C837 1.384 . S
N841 C833 1.427 . S
N841 C839 1.384 . S
H842 C848 0.930 . S
H843 C852 0.930 . S
H844 C857 0.929 . S
H845 C855 0.929 . S
H846 C850 0.929 . S
H847 C856 0.929 . S
C848 H842 0.930 . S
C848 C849 1.367 . S
C848 C856 1.378 . S
C849 C848 1.367 . S
C849 C857 1.433 . S
C850 H846 0.929 . S
C850 C852 1.378 . S
C850 C854 1.350 . S
C851 C854 1.463 . S
C851 C856 1.350 . S
C851 N859 1.427 . S
C852 H843 0.930 . S
C852 C850 1.378 . S
C852 C853 1.367 . S
C853 C852 1.367 . S
C853 C855 1.433 . S
C854 C850 1.350 . S
C854 C851 1.463 . S
C854 N858 1.427 . S
C855 H845 0.929 . S
C855 C853 1.433 . S
C855 N858 1.384 . S
C856 H847 0.929 . S
C856 C848 1.378 . S
C856 C851 1.350 . S
C857 H844 0.929 . S
C857 C849 1.433 . S
C857 N859 1.384 . S
N858 C854 1.427 . S
N858 C855 1.384 . S
N859 C851 1.427 . S
N859 C857 1.384 . S
H860 C866 0.930 . S
H861 C870 0.930 . S
H862 C875 0.929 . S
H863 C873 0.929 . S
H864 C868 0.929 . S
H865 C874 0.929 . S
C866 H860 0.930 . S
C866 C867 1.367 . S
C866 C874 1.378 . S
C867 C866 1.367 . S
C867 C875 1.433 . S
C868 H864 0.929 . S
C868 C870 1.378 . S
C868 C872 1.350 . S
C869 C872 1.463 . S
C869 C874 1.350 . S
C869 N877 1.427 . S
C870 H861 0.930 . S
C870 C868 1.378 . S
C870 C871 1.367 . S
C871 C870 1.367 . S
C871 C873 1.433 . S
C872 C868 1.350 . S
C872 C869 1.463 . S
C872 N876 1.427 . S
C873 H863 0.929 . S
C873 C871 1.433 . S
C873 N876 1.384 . S
C874 H865 0.929 . S
C874 C866 1.378 . S
C874 C869 1.350 . S
C875 H862 0.929 . S
C875 C867 1.433 . S
C875 N877 1.384 . S
N876 C872 1.427 . S
N876 C873 1.384 . S
N877 C869 1.427 . S
N877 C875 1.384 . S
H878 C884 0.930 . S
H879 C888 0.930 . S
H880 C893 0.929 . S
H881 C891 0.929 . S
H882 C886 0.929 . S
H883 C892 0.929 . S
C884 H878 0.930 . S
C884 C885 1.367 . S
C884 C892 1.378 . S
C885 C884 1.367 . S
C885 C893 1.433 . S
C886 H882 0.929 . S
C886 C888 1.378 . S
C886 C890 1.350 . S
C887 C890 1.463 . S
C887 C892 1.350 . S
C887 N895 1.427 . S
C888 H879 0.930 . S
C888 C886 1.378 . S
C888 C889 1.367 . S
C889 C888 1.367 . S
C889 C891 1.433 . S
C890 C886 1.350 . S
C890 C887 1.463 . S
C890 N894 1.427 . S
C891 H881 0.929 . S
C891 C889 1.433 . S
C891 N894 1.384 . S
C892 H883 0.929 . S
C892 C884 1.378 . S
C892 C887 1.350 . S
C893 H880 0.929 . S
C893 C885 1.433 . S
C893 N895 1.384 . S
N894 C890 1.427 . S
N894 C891 1.384 . S
N895 C887 1.427 . S
N895 C893 1.384 . S
H896 C902 0.930 . S
H897 C906 0.930 . S
H898 C911 0.929 . S
H899 C909 0.929 . S
H900 C904 0.929 . S
H901 C910 0.929 . S
C902 H896 0.930 . S
C902 C903 1.367 . S
C902 C910 1.378 . S
C903 C902 1.367 . S
C903 C911 1.433 . S
C904 H900 0.929 . S
C904 C906 1.378 . S
C904 C908 1.350 . S
C905 C908 1.463 . S
C905 C910 1.350 . S
C905 N913 1.427 . S
C906 H897 0.930 . S
C906 C904 1.378 . S
C906 C907 1.367 . S
C907 C906 1.367 . S
C907 C909 1.433 . S
C908 C904 1.350 . S
C908 C905 1.463 . S
C908 N912 1.427 . S
C909 H899 0.929 . S
C909 C907 1.433 . S
C909 N912 1.384 . S
C910 H901 0.929 . S
C910 C902 1.378 . S
C910 C905 1.350 . S
C911 H898 0.929 . S
C911 C903 1.433 . S
C911 N913 1.384 . S
N912 C908 1.427 . S
N912 C909 1.384 . S
N913 C905 1.427 . S
N913 C911 1.384 . S
H914 C920 0.930 . S
H915 C924 0.930 . S
H916 C929 0.929 . S
H917 C927 0.929 . S
H918 C922 0.929 . S
H919 C928 0.929 . S
C920 H914 0.930 . S
C920 C921 1.367 . S
C920 C928 1.378 . S
C921 C920 1.367 . S
C921 C929 1.433 . S
C922 H918 0.929 . S
C922 C924 1.378 . S
C922 C926 1.350 . S
C923 C926 1.463 . S
C923 C928 1.350 . S
C923 N931 1.427 . S
C924 H915 0.930 . S
C924 C922 1.378 . S
C924 C925 1.367 . S
C925 C924 1.367 . S
C925 C927 1.433 . S
C926 C922 1.350 . S
C926 C923 1.463 . S
C926 N930 1.427 . S
C927 H917 0.929 . S
C927 C925 1.433 . S
C927 N930 1.384 . S
C928 H919 0.929 . S
C928 C920 1.378 . S
C928 C923 1.350 . S
C929 H916 0.929 . S
C929 C921 1.433 . S
C929 N931 1.384 . S
N930 C926 1.427 . S
N930 C927 1.384 . S
N931 C923 1.427 . S
N931 C929 1.384 . S
H932 C938 0.930 . S
H933 C942 0.930 . S
H934 C947 0.929 . S
H935 C945 0.929 . S
H936 C940 0.929 . S
H937 C946 0.929 . S
C938 H932 0.930 . S
C938 C939 1.367 . S
C938 C946 1.378 . S
C939 C938 1.367 . S
C939 C947 1.433 . S
C940 H936 0.929 . S
C940 C942 1.378 . S
C940 C944 1.350 . S
C941 C944 1.463 . S
C941 C946 1.350 . S
C941 N949 1.427 . S
C942 H933 0.930 . S
C942 C940 1.378 . S
C942 C943 1.367 . S
C943 C942 1.367 . S
C943 C945 1.433 . S
C944 C940 1.350 . S
C944 C941 1.463 . S
C944 N948 1.427 . S
C945 H935 0.929 . S
C945 C943 1.433 . S
C945 N948 1.384 . S
C946 H937 0.929 . S
C946 C938 1.378 . S
C946 C941 1.350 . S
C947 H934 0.929 . S
C947 C939 1.433 . S
C947 N949 1.384 . S
N948 C944 1.427 . S
N948 C945 1.384 . S
N949 C941 1.427 . S
N949 C947 1.384 . S
H950 C956 0.930 . S
H951 C960 0.930 . S
H952 C965 0.929 . S
H953 C963 0.929 . S
H954 C958 0.929 . S
H955 C964 0.929 . S
C956 H950 0.930 . S
C956 C957 1.367 . S
C956 C964 1.378 . S
C957 C956 1.367 . S
C957 C965 1.433 . S
C958 H954 0.929 . S
C958 C960 1.378 . S
C958 C962 1.350 . S
C959 C962 1.463 . S
C959 C964 1.350 . S
C959 N967 1.427 . S
C960 H951 0.930 . S
C960 C958 1.378 . S
C960 C961 1.367 . S
C961 C960 1.367 . S
C961 C963 1.433 . S
C962 C958 1.350 . S
C962 C959 1.463 . S
C962 N966 1.427 . S
C963 H953 0.929 . S
C963 C961 1.433 . S
C963 N966 1.384 . S
C964 H955 0.929 . S
C964 C956 1.378 . S
C964 C959 1.350 . S
C965 H952 0.929 . S
C965 C957 1.433 . S
C965 N967 1.384 . S
N966 C962 1.427 . S
N966 C963 1.384 . S
N967 C959 1.427 . S
N967 C965 1.384 . S
H968 C974 0.930 . S
H969 C978 0.930 . S
H970 C983 0.929 . S
H971 C981 0.929 . S
H972 C976 0.929 . S
H973 C982 0.929 . S
C974 H968 0.930 . S
C974 C975 1.367 . S
C974 C982 1.378 . S
C975 C974 1.367 . S
C975 C983 1.433 . S
C976 H972 0.929 . S
C976 C978 1.378 . S
C976 C980 1.350 . S
C977 C980 1.463 . S
C977 C982 1.350 . S
C977 N985 1.427 . S
C978 H969 0.930 . S
C978 C976 1.378 . S
C978 C979 1.367 . S
C979 C978 1.367 . S
C979 C981 1.433 . S
C980 C976 1.350 . S
C980 C977 1.463 . S
C980 N984 1.427 . S
C981 H971 0.929 . S
C981 C979 1.433 . S
C981 N984 1.384 . S
C982 H973 0.929 . S
C982 C974 1.378 . S
C982 C977 1.350 . S
C983 H970 0.929 . S
C983 C975 1.433 . S
C983 N985 1.384 . S
N984 C980 1.427 . S
N984 C981 1.384 . S
N985 C977 1.427 . S
N985 C983 1.384 . S
H986 C992 0.930 . S
H987 C996 0.930 . S
H988 C1001 0.929 . S
H989 C999 0.929 . S
H990 C994 0.929 . S
H991 C1000 0.929 . S
C992 H986 0.930 . S
C992 C993 1.367 . S
C992 C1000 1.378 . S
C993 C992 1.367 . S
C993 C1001 1.433 . S
C994 H990 0.929 . S
C994 C996 1.378 . S
C994 C998 1.350 . S
C995 C998 1.463 . S
C995 C1000 1.350 . S
C995 N1003 1.427 . S
C996 H987 0.930 . S
C996 C994 1.378 . S
C996 C997 1.367 . S
C997 C996 1.367 . S
C997 C999 1.433 . S
C998 C994 1.350 . S
C998 C995 1.463 . S
C998 N1002 1.427 . S
C999 H989 0.929 . S
C999 C997 1.433 . S
C999 N1002 1.384 . S
C1000 H991 0.929 . S
C1000 C992 1.378 . S
C1000 C995 1.350 . S
C1001 H988 0.929 . S
C1001 C993 1.433 . S
C1001 N1003 1.384 . S
N1002 C998 1.427 . S
N1002 C999 1.384 . S
N1003 C995 1.427 . S
N1003 C1001 1.384 . S
H1004 C1010 0.930 . S
H1005 C1014 0.930 . S
H1006 C1019 0.929 . S
H1007 C1017 0.929 . S
H1008 C1012 0.929 . S
H1009 C1018 0.929 . S
C1010 H1004 0.930 . S
C1010 C1011 1.367 . S
C1010 C1018 1.378 . S
C1011 C1010 1.367 . S
C1011 C1019 1.433 . S
C1012 H1008 0.929 . S
C1012 C1014 1.378 . S
C1012 C1016 1.350 . S
C1013 C1016 1.463 . S
C1013 C1018 1.350 . S
C1013 N1021 1.427 . S
C1014 H1005 0.930 . S
C1014 C1012 1.378 . S
C1014 C1015 1.367 . S
C1015 C1014 1.367 . S
C1015 C1017 1.433 . S
C1016 C1012 1.350 . S
C1016 C1013 1.463 . S
C1016 N1020 1.427 . S
C1017 H1007 0.929 . S
C1017 C1015 1.433 . S
C1017 N1020 1.384 . S
C1018 H1009 0.929 . S
C1018 C1010 1.378 . S
C1018 C1013 1.350 . S
C1019 H1006 0.929 . S
C1019 C1011 1.433 . S
C1019 N1021 1.384 . S
N1020 C1016 1.427 . S
N1020 C1017 1.384 . S
N1021 C1013 1.427 . S
N1021 C1019 1.384 . S
H1022 C1028 0.930 . S
H1023 C1032 0.930 . S
H1024 C1037 0.929 . S
H1025 C1035 0.929 . S
H1026 C1030 0.929 . S
H1027 C1036 0.929 . S
C1028 H1022 0.930 . S
C1028 C1029 1.367 . S
C1028 C1036 1.378 . S
C1029 C1028 1.367 . S
C1029 C1037 1.433 . S
C1030 H1026 0.929 . S
C1030 C1032 1.378 . S
C1030 C1034 1.350 . S
C1031 C1034 1.463 . S
C1031 C1036 1.350 . S
C1031 N1039 1.427 . S
C1032 H1023 0.930 . S
C1032 C1030 1.378 . S
C1032 C1033 1.367 . S
C1033 C1032 1.367 . S
C1033 C1035 1.433 . S
C1034 C1030 1.350 . S
C1034 C1031 1.463 . S
C1034 N1038 1.427 . S
C1035 H1025 0.929 . S
C1035 C1033 1.433 . S
C1035 N1038 1.384 . S
C1036 H1027 0.929 . S
C1036 C1028 1.378 . S
C1036 C1031 1.350 . S
C1037 H1024 0.929 . S
C1037 C1029 1.433 . S
C1037 N1039 1.384 . S
N1038 C1034 1.427 . S
N1038 C1035 1.384 . S
N1039 C1031 1.427 . S
N1039 C1037 1.384 . S
H1040 C1046 0.930 . S
H1041 C1050 0.930 . S
H1042 C1055 0.929 . S
H1043 C1053 0.929 . S
H1044 C1048 0.929 . S
H1045 C1054 0.929 . S
C1046 H1040 0.930 . S
C1046 C1047 1.367 . S
C1046 C1054 1.378 . S
C1047 C1046 1.367 . S
C1047 C1055 1.433 . S
C1048 H1044 0.929 . S
C1048 C1050 1.378 . S
C1048 C1052 1.350 . S
C1049 C1052 1.463 . S
C1049 C1054 1.350 . S
C1049 N1057 1.427 . S
C1050 H1041 0.930 . S
C1050 C1048 1.378 . S
C1050 C1051 1.367 . S
C1051 C1050 1.367 . S
C1051 C1053 1.433 . S
C1052 C1048 1.350 . S
C1052 C1049 1.463 . S
C1052 N1056 1.427 . S
C1053 H1043 0.929 . S
C1053 C1051 1.433 . S
C1053 N1056 1.384 . S
C1054 H1045 0.929 . S
C1054 C1046 1.378 . S
C1054 C1049 1.350 . S
C1055 H1042 0.929 . S
C1055 C1047 1.433 . S
C1055 N1057 1.384 . S
N1056 C1052 1.427 . S
N1056 C1053 1.384 . S
N1057 C1049 1.427 . S
N1057 C1055 1.384 . S
H1058 C1064 0.930 . S
H1059 C1068 0.930 . S
H1060 C1073 0.929 . S
H1061 C1071 0.929 . S
H1062 C1066 0.929 . S
H1063 C1072 0.929 . S
C1064 H1058 0.930 . S
C1064 C1065 1.367 . S
C1064 C1072 1.378 . S
C1065 C1064 1.367 . S
C1065 C1073 1.433 . S
C1066 H1062 0.929 . S
C1066 C1068 1.378 . S
C1066 C1070 1.350 . S
C1067 C1070 1.463 . S
C1067 C1072 1.350 . S
C1067 N1075 1.427 . S
C1068 H1059 0.930 . S
C1068 C1066 1.378 . S
C1068 C1069 1.367 . S
C1069 C1068 1.367 . S
C1069 C1071 1.433 . S
C1070 C1066 1.350 . S
C1070 C1067 1.463 . S
C1070 N1074 1.427 . S
C1071 H1061 0.929 . S
C1071 C1069 1.433 . S
C1071 N1074 1.384 . S
C1072 H1063 0.929 . S
C1072 C1064 1.378 . S
C1072 C1067 1.350 . S
C1073 H1060 0.929 . S
C1073 C1065 1.433 . S
C1073 N1075 1.384 . S
N1074 C1070 1.427 . S
N1074 C1071 1.384 . S
N1075 C1067 1.427 . S
N1075 C1073 1.384 . S
H1076 C1082 0.930 . S
H1077 C1086 0.930 . S
H1078 C1091 0.929 . S
H1079 C1089 0.929 . S
H1080 C1084 0.929 . S
H1081 C1090 0.929 . S
C1082 H1076 0.930 . S
C1082 C1083 1.367 . S
C1082 C1090 1.378 . S
C1083 C1082 1.367 . S
C1083 C1091 1.433 . S
C1084 H1080 0.929 . S
C1084 C1086 1.378 . S
C1084 C1088 1.350 . S
C1085 C1088 1.463 . S
C1085 C1090 1.350 . S
C1085 N1093 1.427 . S
C1086 H1077 0.930 . S
C1086 C1084 1.378 . S
C1086 C1087 1.367 . S
C1087 C1086 1.367 . S
C1087 C1089 1.433 . S
C1088 C1084 1.350 . S
C1088 C1085 1.463 . S
C1088 N1092 1.427 . S
C1089 H1079 0.929 . S
C1089 C1087 1.433 . S
C1089 N1092 1.384 . S
C1090 H1081 0.929 . S
C1090 C1082 1.378 . S
C1090 C1085 1.350 . S
C1091 H1078 0.929 . S
C1091 C1083 1.433 . S
C1091 N1093 1.384 . S
N1092 C1088 1.427 . S
N1092 C1089 1.384 . S
N1093 C1085 1.427 . S
N1093 C1091 1.384 . S
H1094 C1100 0.930 . S
H1095 C1104 0.930 . S
H1096 C1109 0.929 . S
H1097 C1107 0.929 . S
H1098 C1102 0.929 . S
H1099 C1108 0.929 . S
C1100 H1094 0.930 . S
C1100 C1101 1.367 . S
C1100 C1108 1.378 . S
C1101 C1100 1.367 . S
C1101 C1109 1.433 . S
C1102 H1098 0.929 . S
C1102 C1104 1.378 . S
C1102 C1106 1.350 . S
C1103 C1106 1.463 . S
C1103 C1108 1.350 . S
C1103 N1111 1.427 . S
C1104 H1095 0.930 . S
C1104 C1102 1.378 . S
C1104 C1105 1.367 . S
C1105 C1104 1.367 . S
C1105 C1107 1.433 . S
C1106 C1102 1.350 . S
C1106 C1103 1.463 . S
C1106 N1110 1.427 . S
C1107 H1097 0.929 . S
C1107 C1105 1.433 . S
C1107 N1110 1.384 . S
C1108 H1099 0.929 . S
C1108 C1100 1.378 . S
C1108 C1103 1.350 . S
C1109 H1096 0.929 . S
C1109 C1101 1.433 . S
C1109 N1111 1.384 . S
N1110 C1106 1.427 . S
N1110 C1107 1.384 . S
N1111 C1103 1.427 . S
N1111 C1109 1.384 . S
H1112 C1118 0.930 . S
H1113 C1122 0.930 . S
H1114 C1127 0.929 . S
H1115 C1125 0.929 . S
H1116 C1120 0.929 . S
H1117 C1126 0.929 . S
C1118 H1112 0.930 . S
C1118 C1119 1.367 . S
C1118 C1126 1.378 . S
C1119 C1118 1.367 . S
C1119 C1127 1.433 . S
C1120 H1116 0.929 . S
C1120 C1122 1.378 . S
C1120 C1124 1.350 . S
C1121 C1124 1.463 . S
C1121 C1126 1.350 . S
C1121 N1129 1.427 . S
C1122 H1113 0.930 . S
C1122 C1120 1.378 . S
C1122 C1123 1.367 . S
C1123 C1122 1.367 . S
C1123 C1125 1.433 . S
C1124 C1120 1.350 . S
C1124 C1121 1.463 . S
C1124 N1128 1.427 . S
C1125 H1115 0.929 . S
C1125 C1123 1.433 . S
C1125 N1128 1.384 . S
C1126 H1117 0.929 . S
C1126 C1118 1.378 . S
C1126 C1121 1.350 . S
C1127 H1114 0.929 . S
C1127 C1119 1.433 . S
C1127 N1129 1.384 . S
N1128 C1124 1.427 . S
N1128 C1125 1.384 . S
N1129 C1121 1.427 . S
N1129 C1127 1.384 . S
H1130 C1136 0.930 . S
H1131 C1140 0.930 . S
H1132 C1145 0.929 . S
H1133 C1143 0.929 . S
H1134 C1138 0.929 . S
H1135 C1144 0.929 . S
C1136 H1130 0.930 . S
C1136 C1137 1.367 . S
C1136 C1144 1.378 . S
C1137 C1136 1.367 . S
C1137 C1145 1.433 . S
C1138 H1134 0.929 . S
C1138 C1140 1.378 . S
C1138 C1142 1.350 . S
C1139 C1142 1.463 . S
C1139 C1144 1.350 . S
C1139 N1147 1.427 . S
C1140 H1131 0.930 . S
C1140 C1138 1.378 . S
C1140 C1141 1.367 . S
C1141 C1140 1.367 . S
C1141 C1143 1.433 . S
C1142 C1138 1.350 . S
C1142 C1139 1.463 . S
C1142 N1146 1.427 . S
C1143 H1133 0.929 . S
C1143 C1141 1.433 . S
C1143 N1146 1.384 . S
C1144 H1135 0.929 . S
C1144 C1136 1.378 . S
C1144 C1139 1.350 . S
C1145 H1132 0.929 . S
C1145 C1137 1.433 . S
C1145 N1147 1.384 . S
N1146 C1142 1.427 . S
N1146 C1143 1.384 . S
N1147 C1139 1.427 . S
N1147 C1145 1.384 . S
H1148 C1154 0.930 . S
H1149 C1158 0.930 . S
H1150 C1163 0.929 . S
H1151 C1161 0.929 . S
H1152 C1156 0.929 . S
H1153 C1162 0.929 . S
C1154 H1148 0.930 . S
C1154 C1155 1.367 . S
C1154 C1162 1.378 . S
C1155 C1154 1.367 . S
C1155 C1163 1.433 . S
C1156 H1152 0.929 . S
C1156 C1158 1.378 . S
C1156 C1160 1.350 . S
C1157 C1160 1.463 . S
C1157 C1162 1.350 . S
C1157 N1165 1.427 . S
C1158 H1149 0.930 . S
C1158 C1156 1.378 . S
C1158 C1159 1.367 . S
C1159 C1158 1.367 . S
C1159 C1161 1.433 . S
C1160 C1156 1.350 . S
C1160 C1157 1.463 . S
C1160 N1164 1.427 . S
C1161 H1151 0.929 . S
C1161 C1159 1.433 . S
C1161 N1164 1.384 . S
C1162 H1153 0.929 . S
C1162 C1154 1.378 . S
C1162 C1157 1.350 . S
C1163 H1150 0.929 . S
C1163 C1155 1.433 . S
C1163 N1165 1.384 . S
N1164 C1160 1.427 . S
N1164 C1161 1.384 . S
N1165 C1157 1.427 . S
N1165 C1163 1.384 . S
H1166 C1172 0.930 . S
H1167 C1176 0.930 . S
H1168 C1181 0.929 . S
H1169 C1179 0.929 . S
H1170 C1174 0.929 . S
H1171 C1180 0.929 . S
C1172 H1166 0.930 . S
C1172 C1173 1.367 . S
C1172 C1180 1.378 . S
C1173 C1172 1.367 . S
C1173 C1181 1.433 . S
C1174 H1170 0.929 . S
C1174 C1176 1.378 . S
C1174 C1178 1.350 . S
C1175 C1178 1.463 . S
C1175 C1180 1.350 . S
C1175 N1183 1.427 . S
C1176 H1167 0.930 . S
C1176 C1174 1.378 . S
C1176 C1177 1.367 . S
C1177 C1176 1.367 . S
C1177 C1179 1.433 . S
C1178 C1174 1.350 . S
C1178 C1175 1.463 . S
C1178 N1182 1.427 . S
C1179 H1169 0.929 . S
C1179 C1177 1.433 . S
C1179 N1182 1.384 . S
C1180 H1171 0.929 . S
C1180 C1172 1.378 . S
C1180 C1175 1.350 . S
C1181 H1168 0.929 . S
C1181 C1173 1.433 . S
C1181 N1183 1.384 . S
N1182 C1178 1.427 . S
N1182 C1179 1.384 . S
N1183 C1175 1.427 . S
N1183 C1181 1.384 . S
C619 C497 1.616 . S
C615 C47 1.515 . S
C637 C523 1.491 . S
C633 C115 1.459 . S
C655 C537 1.560 . S
C651 C153 1.418 . S
C673 C539 1.676 . S
C669 C233 1.547 . S
C687 C283 1.443 . S
C691 C536 1.487 . S
C709 C538 1.615 . S
C705 C357 1.511 . S
C727 C496 1.675 . S
C723 C401 1.537 . S
C745 C522 1.556 . S
C741 C463 1.406 . S
C763 C524 1.391 . S
C759 C469 1.358 . S
C781 C550 1.534 . S
C777 C277 1.443 . S
C799 C508 1.521 . S
C795 C363 1.514 . S
C817 C510 1.373 . S
C813 C407 1.353 . S
C835 C509 1.533 . S
C831 C109 1.437 . S
C853 C511 1.393 . S
C849 C159 1.363 . S
C871 C525 1.372 . S
C867 C239 1.345 . S
C889 C551 1.521 . S
C885 C53 1.513 . S
C907 C553 1.616 . S
C903 C481 1.516 . S
C921 C301 1.446 . S
C925 C579 1.487 . S
C939 C339 1.426 . S
C943 C592 1.560 . S
C957 C419 1.544 . S
C961 C595 1.673 . S
C975 C97 1.456 . S
C979 C593 1.491 . S
C993 C171 1.513 . S
C997 C594 1.615 . S
C1011 C215 1.530 . S
C1015 C552 1.673 . S
C1033 C578 1.559 . S
C1029 C29 1.425 . S
C1051 C581 1.388 . S
C1047 C35 1.350 . S
C1065 C91 1.444 . S
C1069 C606 1.533 . S
C1083 C177 1.510 . S
C1087 C564 1.524 . S
C1101 C221 1.349 . S
C1105 C566 1.373 . S
C1123 C565 1.533 . S
C1119 C295 1.424 . S
C1141 C567 1.390 . S
C1137 C345 1.354 . S
C1155 C425 1.347 . S
C1159 C580 1.372 . S
C1177 C607 1.523 . S
C1173 C487 1.513 . S
