# Generated by pormake.
# Topology nom, (4,4)-cn, num edge types: 1
# Building blocks:
#     Node 0, Type 0, BuildingBlock: AZAVOO_clean_linker_0, # of connection points: 4
#     Node 1, Type 0, BuildingBlock: AZAVOO_clean_linker_0, # of connection points: 4
#     Node 2, Type 0, BuildingBlock: AZAVOO_clean_linker_0, # of connection points: 4
#     Node 3, Type 0, BuildingBlock: AZAVOO_clean_linker_0, # of connection points: 4
#     Node 4, Type 0, BuildingBlock: AZAVOO_clean_linker_0, # of connection points: 4
#     Node 5, Type 0, BuildingBlock: AZAVOO_clean_linker_0, # of connection points: 4
#     Node 6, Type 1, BuildingBlock: QUQFOY_clean_sbu_3, # of connection points: 4
#     Node 7, Type 1, BuildingBlock: QUQFOY_clean_sbu_3, # of connection points: 4
#     Node 8, Type 1, BuildingBlock: QUQFOY_clean_sbu_3, # of connection points: 4
#     Node 9, Type 1, BuildingBlock: QUQFOY_clean_sbu_3, # of connection points: 4
#     Node 10, Type 1, BuildingBlock: QUQFOY_clean_sbu_3, # of connection points: 4
#     Node 11, Type 1, BuildingBlock: QUQFOY_clean_sbu_3, # of connection points: 4
#     Edge 12, Type (0, 1), BuildingBlock: KIFKEQ_clean_linker_1, # of connection points: 2
#     Edge 13, Type (0, 1), BuildingBlock: KIFKEQ_clean_linker_1, # of connection points: 2
#     Edge 14, Type (0, 1), BuildingBlock: KIFKEQ_clean_linker_1, # of connection points: 2
#     Edge 15, Type (0, 1), BuildingBlock: KIFKEQ_clean_linker_1, # of connection points: 2
#     Edge 16, Type (0, 1), BuildingBlock: KIFKEQ_clean_linker_1, # of connection points: 2
#     Edge 17, Type (0, 1), BuildingBlock: KIFKEQ_clean_linker_1, # of connection points: 2
#     Edge 18, Type (0, 1), BuildingBlock: KIFKEQ_clean_linker_1, # of connection points: 2
#     Edge 19, Type (0, 1), BuildingBlock: KIFKEQ_clean_linker_1, # of connection points: 2
#     Edge 20, Type (0, 1), BuildingBlock: KIFKEQ_clean_linker_1, # of connection points: 2
#     Edge 21, Type (0, 1), BuildingBlock: KIFKEQ_clean_linker_1, # of connection points: 2
#     Edge 22, Type (0, 1), BuildingBlock: KIFKEQ_clean_linker_1, # of connection points: 2
#     Edge 23, Type (0, 1), BuildingBlock: KIFKEQ_clean_linker_1, # of connection points: 2
#     Edge 24, Type (0, 1), BuildingBlock: KIFKEQ_clean_linker_1, # of connection points: 2
#     Edge 25, Type (0, 1), BuildingBlock: KIFKEQ_clean_linker_1, # of connection points: 2
#     Edge 26, Type (0, 1), BuildingBlock: KIFKEQ_clean_linker_1, # of connection points: 2
#     Edge 27, Type (0, 1), BuildingBlock: KIFKEQ_clean_linker_1, # of connection points: 2
#     Edge 28, Type (0, 1), BuildingBlock: KIFKEQ_clean_linker_1, # of connection points: 2
#     Edge 29, Type (0, 1), BuildingBlock: KIFKEQ_clean_linker_1, # of connection points: 2
#     Edge 30, Type (0, 1), BuildingBlock: KIFKEQ_clean_linker_1, # of connection points: 2
#     Edge 31, Type (0, 1), BuildingBlock: KIFKEQ_clean_linker_1, # of connection points: 2
#     Edge 32, Type (0, 1), BuildingBlock: KIFKEQ_clean_linker_1, # of connection points: 2
#     Edge 33, Type (0, 1), BuildingBlock: KIFKEQ_clean_linker_1, # of connection points: 2
#     Edge 34, Type (0, 1), BuildingBlock: KIFKEQ_clean_linker_1, # of connection points: 2
#     Edge 35, Type (0, 1), BuildingBlock: KIFKEQ_clean_linker_1, # of connection points: 2
# Relax obj value: 0.143
# Max RMSD: 0.229
# Mean RMSD: 0.148
data_MOF--net-nom--node1-QUQFOY_clean_sbu_3--node2-AZAVOO_clean_linker_0--edge1-KIFKEQ_clean_linker_1
_symmetry_space_group_name_H-M    P1
_symmetry_Int_Tables_number       1
_symmetry_cell_setting            triclinic
loop_
_symmetry_equiv_pos_as_xyz
'x, y, z'
_cell_length_a     48.661517
_cell_length_b     51.414883
_cell_length_c     61.90796
_cell_angle_alpha  89.681265
_cell_angle_beta   89.814203
_cell_angle_gamma 121.325
loop_
_atom_site_label
_atom_site_type_symbol
_atom_site_fract_x
_atom_site_fract_y
_atom_site_fract_z
_atom_type_partial_charge
H0 H 0.04388 0.43292 0.16384 0.0
H1 H 0.22643 0.62518 0.36096 0.0
H2 H 0.97581 0.42832 0.27099 0.0
H3 H 0.94027 0.40905 0.23956 0.0
H4 H 0.94789 0.49606 0.23221 0.0
H5 H 0.98276 0.515 0.26395 0.0
H6 H 0.0502 0.45163 0.25729 0.0
H7 H 0.04949 0.4371 0.21959 0.0
H8 H 0.03265 0.50819 0.19913 0.0
H9 H 0.03353 0.5225 0.23683 0.0
H10 H 0.11989 0.50194 0.28898 0.0
H11 H 0.17459 0.53329 0.27392 0.0
H12 H 0.14427 0.58632 0.23812 0.0
H13 H 0.09069 0.55612 0.25375 0.0
H14 H 0.09052 0.49571 0.33738 0.0
H15 H 0.13956 0.52313 0.35884 0.0
H16 H 0.16566 0.60615 0.32407 0.0
H17 H 0.11626 0.57857 0.30302 0.0
H18 H 0.01838 0.47132 0.35076 0.0
H19 H 0.03173 0.48477 0.38876 0.0
H20 H 0.07788 0.58016 0.37152 0.0
H21 H 0.0632 0.56634 0.33392 0.0
H22 H 0.95467 0.44228 0.31368 0.0
H23 H 0.9064 0.43617 0.33155 0.0
H24 H 0.95268 0.53393 0.33586 0.0
H25 H 0.00025 0.53986 0.31768 0.0
O26 O 0.04444 0.43923 0.1786 0.0
O27 O 0.03478 0.47548 0.16903 0.0
O28 O 0.19219 0.57054 0.37024 0.0
O29 O 0.20693 0.61374 0.35264 0.0
C30 C 0.01138 0.48762 0.28293 0.0
C31 C 0.04096 0.49582 0.27274 0.0
C32 C 0.07005 0.5122 0.28416 0.0
C33 C 0.06946 0.51858 0.30624 0.0
C34 C 0.03995 0.51038 0.31647 0.0
C35 C 0.01097 0.49576 0.30465 0.0
C36 C 0.9818 0.47303 0.26972 0.0
C37 C 0.96844 0.44268 0.26328 0.0
C38 C 0.94835 0.43178 0.24529 0.0
C39 C 0.94178 0.45126 0.23345 0.0
C40 C 0.95276 0.48071 0.24112 0.0
C41 C 0.97236 0.49142 0.25933 0.0
C42 C 0.04161 0.48789 0.24977 0.0
C43 C 0.04645 0.46406 0.24461 0.0
C44 C 0.04597 0.45579 0.22308 0.0
C45 C 0.04078 0.47135 0.20635 0.0
C46 C 0.03647 0.49559 0.21162 0.0
C47 C 0.03691 0.50378 0.23314 0.0
C48 C 0.10123 0.52661 0.27233 0.0
C49 C 0.125 0.51994 0.27753 0.0
C50 C 0.15612 0.5378 0.26896 0.0
C51 C 0.16353 0.56203 0.25474 0.0
C52 C 0.13912 0.56741 0.24868 0.0
C53 C 0.10841 0.55008 0.25755 0.0
C54 C 0.09996 0.53512 0.31858 0.0
C55 C 0.10692 0.5198 0.33441 0.0
C56 C 0.13493 0.53552 0.34663 0.0
C57 C 0.15656 0.56685 0.34315 0.0
C58 C 0.14956 0.58205 0.32716 0.0
C59 C 0.12144 0.56634 0.31503 0.0
C60 C 0.04019 0.51788 0.33962 0.0
C61 C 0.03029 0.49502 0.35538 0.0
C62 C 0.03832 0.5028 0.37702 0.0
C63 C 0.05651 0.53359 0.38315 0.0
C64 C 0.06375 0.55625 0.3675 0.0
C65 C 0.05548 0.54842 0.34594 0.0
C66 C 0.98107 0.49151 0.31456 0.0
C67 C 0.9542 0.46232 0.31833 0.0
C68 C 0.92675 0.45889 0.32853 0.0
C69 C 0.92602 0.48459 0.3353 0.0
C70 C 0.95281 0.51373 0.33117 0.0
C71 C 0.97994 0.51714 0.32075 0.0
C72 C 0.03981 0.46226 0.18352 0.0
C73 C 0.18625 0.5837 0.35619 0.0
H74 H 0.4746 0.041 0.32614 0.0
H75 H 0.50002 0.19599 0.55413 0.0
H76 H 0.47317 0.98303 0.4512 0.0
H77 H 0.46614 0.94813 0.42202 0.0
H78 H 0.38029 0.94644 0.40188 0.0
H79 H 0.3876 0.98139 0.43102 0.0
H80 H 0.49223 0.03573 0.41908 0.0
H81 H 0.49269 0.03708 0.37958 0.0
H82 H 0.41327 0.05233 0.38058 0.0
H83 H 0.41277 0.05046 0.42012 0.0
H84 H 0.51702 0.10125 0.43656 0.0
H85 H 0.53879 0.15301 0.42241 0.0
H86 H 0.45325 0.15095 0.44426 0.0
H87 H 0.43157 0.09911 0.45819 0.0
H88 H 0.52418 0.10459 0.49115 0.0
H89 H 0.54588 0.14955 0.51419 0.0
H90 H 0.44952 0.13138 0.52484 0.0
H91 H 0.42823 0.08647 0.50182 0.0
H92 H 0.50245 0.04054 0.51191 0.0
H93 H 0.51817 0.05537 0.54929 0.0
H94 H 0.42755 0.04935 0.56157 0.0
H95 H 0.41148 0.03324 0.52416 0.0
H96 H 0.47018 0.98524 0.50107 0.0
H97 H 0.44553 0.93489 0.5181 0.0
H98 H 0.35208 0.91484 0.49647 0.0
H99 H 0.37681 0.96576 0.48063 0.0
O100 O 0.47418 0.04085 0.34176 0.0
O101 O 0.43388 0.04942 0.34313 0.0
O102 O 0.54115 0.18663 0.53905 0.0
O103 O 0.49214 0.17851 0.5448 0.0
C104 C 0.44019 0.01188 0.45657 0.0
C105 C 0.4511 0.04039 0.44637 0.0
C106 C 0.46114 0.06655 0.45895 0.0
C107 C 0.46162 0.06448 0.48165 0.0
C108 C 0.4513 0.03614 0.49183 0.0
C109 C 0.43974 0.00964 0.47933 0.0
C110 C 0.43105 0.9849 0.44304 0.0
C111 C 0.45223 0.97424 0.44095 0.0
C112 C 0.44823 0.95439 0.42426 0.0
C113 C 0.42301 0.94506 0.40946 0.0
C114 C 0.40027 0.95373 0.41283 0.0
C115 C 0.40423 0.97345 0.42954 0.0
C116 C 0.45239 0.04288 0.42242 0.0
C117 C 0.47497 0.03937 0.41072 0.0
C118 C 0.47518 0.04017 0.38816 0.0
C119 C 0.45296 0.04473 0.37691 0.0
C120 C 0.43068 0.04873 0.38874 0.0
C121 C 0.43041 0.04779 0.41131 0.0
C122 C 0.47283 0.09658 0.44849 0.0
C123 C 0.50278 0.11182 0.43793 0.0
C124 C 0.5151 0.14128 0.42981 0.0
C125 C 0.49775 0.15603 0.43233 0.0
C126 C 0.46727 0.14024 0.44229 0.0
C127 C 0.45486 0.1107 0.45022 0.0
C128 C 0.47471 0.09242 0.49485 0.0
C129 C 0.50788 0.11051 0.4984 0.0
C130 C 0.52016 0.1361 0.51159 0.0
C131 C 0.49941 0.14404 0.52138 0.0
C132 C 0.46616 0.12592 0.51757 0.0
C133 C 0.45393 0.10031 0.50441 0.0
C134 C 0.45576 0.0356 0.51542 0.0
C135 C 0.48537 0.04099 0.52294 0.0
C136 C 0.4945 0.04993 0.5442 0.0
C137 C 0.47437 0.05415 0.55821 0.0
C138 C 0.44351 0.04619 0.55117 0.0
C139 C 0.43425 0.03691 0.52986 0.0
C140 C 0.42522 0.97932 0.48992 0.0
C141 C 0.44433 0.97016 0.50043 0.0
C142 C 0.4302 0.9412 0.5099 0.0
C143 C 0.39672 0.92072 0.50878 0.0
C144 C 0.37778 0.93012 0.49812 0.0
C145 C 0.39189 0.95914 0.48887 0.0
C146 C 0.45301 0.04519 0.35294 0.0
C147 C 0.51228 0.17102 0.53558 0.0
H148 H 0.62221 0.57028 0.78219 0.0
H149 H 0.55899 0.4171 0.55369 0.0
H150 H 0.58234 0.61112 0.67819 0.0
H151 H 0.57693 0.63566 0.71029 0.0
H152 H 0.47532 0.56815 0.71314 0.0
H153 H 0.48097 0.54378 0.68095 0.0
H154 H 0.61195 0.56853 0.68802 0.0
H155 H 0.62596 0.57371 0.72635 0.0
H156 H 0.52483 0.5223 0.74322 0.0
H157 H 0.5112 0.51688 0.70485 0.0
H158 H 0.61566 0.52494 0.6508 0.0
H159 H 0.62885 0.48739 0.6635 0.0
H160 H 0.53586 0.43647 0.69487 0.0
H161 H 0.52272 0.47364 0.68187 0.0
H162 H 0.606 0.54468 0.60867 0.0
H163 H 0.61634 0.51751 0.58054 0.0
H164 H 0.52722 0.43487 0.59734 0.0
H165 H 0.51711 0.46244 0.62533 0.0
H166 H 0.57825 0.58129 0.59791 0.0
H167 H 0.58363 0.57244 0.56008 0.0
H168 H 0.49265 0.48687 0.56362 0.0
H169 H 0.4888 0.49523 0.60198 0.0
H170 H 0.53782 0.61082 0.63442 0.0
H171 H 0.49723 0.62295 0.62304 0.0
H172 H 0.42668 0.5267 0.61887 0.0
H173 H 0.46669 0.51504 0.63078 0.0
O174 O 0.61615 0.56759 0.76714 0.0
O175 O 0.56385 0.54143 0.77494 0.0
O176 O 0.602 0.47104 0.55756 0.0
O177 O 0.55606 0.42811 0.56523 0.0
C178 C 0.53758 0.55643 0.66242 0.0
C179 C 0.55228 0.54073 0.67045 0.0
C180 C 0.55865 0.5229 0.65645 0.0
C181 C 0.55288 0.52289 0.63418 0.0
C182 C 0.53787 0.53829 0.62625 0.0
C183 C 0.52852 0.55359 0.64054 0.0
C184 C 0.53207 0.57566 0.67735 0.0
C185 C 0.5587 0.60233 0.6853 0.0
C186 C 0.55564 0.6161 0.70373 0.0
C187 C 0.52583 0.60349 0.71439 0.0
C188 C 0.49856 0.57842 0.7052 0.0
C189 C 0.50169 0.56454 0.68678 0.0
C190 C 0.56059 0.54257 0.6937 0.0
C191 C 0.59289 0.55825 0.70003 0.0
C192 C 0.6008 0.56125 0.72193 0.0
C193 C 0.57651 0.54856 0.73786 0.0
C194 C 0.54413 0.53246 0.73138 0.0
C195 C 0.53627 0.52939 0.70949 0.0
C196 C 0.56821 0.50194 0.66539 0.0
C197 C 0.59825 0.50571 0.66048 0.0
C198 C 0.60571 0.4843 0.66771 0.0
C199 C 0.58337 0.45906 0.68019 0.0
C200 C 0.5537 0.45589 0.68554 0.0
C201 C 0.54614 0.47706 0.67811 0.0
C202 C 0.56087 0.50547 0.61902 0.0
C203 C 0.58897 0.52061 0.60641 0.0
C204 C 0.59474 0.50507 0.59031 0.0
C205 C 0.57252 0.47403 0.58662 0.0
C206 C 0.54479 0.45876 0.59973 0.0
C207 C 0.53903 0.47437 0.61581 0.0
C208 C 0.53332 0.53881 0.60268 0.0
C209 C 0.55878 0.56131 0.59024 0.0
C210 C 0.56181 0.55608 0.56852 0.0
C211 C 0.53903 0.52843 0.55885 0.0
C212 C 0.5112 0.50793 0.57071 0.0
C213 C 0.50855 0.51293 0.59256 0.0
C214 C 0.50519 0.56205 0.63328 0.0
C215 C 0.51355 0.59249 0.63105 0.0
C216 C 0.49041 0.59933 0.62448 0.0
C217 C 0.45864 0.57578 0.62021 0.0
C218 C 0.45068 0.54541 0.62241 0.0
C219 C 0.47364 0.53867 0.62896 0.0
C220 C 0.58498 0.55223 0.7611 0.0
C221 C 0.57791 0.45773 0.56896 0.0
H222 H 0.04293 0.42938 0.95353 0.0
H223 H 0.21894 0.52436 0.73097 0.0
H224 H 0.9902 0.45807 0.84592 0.0
H225 H 0.94836 0.43777 0.87359 0.0
H226 H 0.92103 0.34616 0.8558 0.0
H227 H 0.96407 0.3671 0.82838 0.0
H228 H 0.05257 0.47533 0.86545 0.0
H229 H 0.05146 0.46478 0.90416 0.0
H230 H 0.02403 0.37209 0.88992 0.0
H231 H 0.02546 0.38308 0.85124 0.0
H232 H 0.10746 0.5021 0.84263 0.0
H233 H 0.15937 0.51643 0.85895 0.0
H234 H 0.14869 0.43197 0.83729 0.0
H235 H 0.09626 0.41731 0.82165 0.0
H236 H 0.09776 0.51704 0.78717 0.0
H237 H 0.14662 0.54654 0.7653 0.0
H238 H 0.15521 0.46718 0.76027 0.0
H239 H 0.10607 0.43787 0.78187 0.0
H240 H 0.02576 0.48849 0.76972 0.0
H241 H 0.04256 0.51148 0.73353 0.0
H242 H 0.07147 0.44737 0.71793 0.0
H243 H 0.05375 0.42391 0.75377 0.0
H244 H 0.96209 0.44594 0.80132 0.0
H245 H 0.90762 0.41627 0.78642 0.0
H246 H 0.93235 0.35508 0.75686 0.0
H247 H 0.98624 0.38434 0.77216 0.0
O248 O 0.04351 0.43314 0.93815 0.0
O249 O 0.02936 0.38571 0.92997 0.0
O250 O 0.19411 0.55339 0.74278 0.0
O251 O 0.19986 0.51336 0.73992 0.0
C252 C 0.00962 0.42715 0.82186 0.0
C253 C 0.03899 0.4362 0.83224 0.0
C254 C 0.0679 0.45068 0.82033 0.0
C255 C 0.06776 0.45725 0.79824 0.0
C256 C 0.03825 0.44733 0.78763 0.0
C257 C 0.00905 0.43169 0.79937 0.0
C258 C 0.97996 0.41404 0.83515 0.0
C259 C 0.97462 0.43361 0.84764 0.0
C260 C 0.9506 0.42189 0.86342 0.0
C261 C 0.93129 0.39027 0.86697 0.0
C262 C 0.93572 0.37061 0.85363 0.0
C263 C 0.95996 0.38245 0.83782 0.0
C264 C 0.0393 0.43001 0.85563 0.0
C265 C 0.0466 0.45285 0.87075 0.0
C266 C 0.04582 0.44672 0.89284 0.0
C267 C 0.03765 0.41758 0.90014 0.0
C268 C 0.03044 0.39477 0.88485 0.0
C269 C 0.03128 0.40097 0.86277 0.0
C270 C 0.0984 0.4588 0.83096 0.0
C271 C 0.11617 0.48657 0.84172 0.0
C272 C 0.14559 0.49461 0.85104 0.0
C273 C 0.15774 0.47519 0.84932 0.0
C274 C 0.13968 0.44723 0.83875 0.0
C275 C 0.10995 0.43892 0.82983 0.0
C276 C 0.09863 0.47546 0.78627 0.0
C277 C 0.11042 0.50618 0.78147 0.0
C278 C 0.13826 0.52293 0.76893 0.0
C279 C 0.15484 0.50921 0.76104 0.0
C280 C 0.14308 0.47846 0.76612 0.0
C281 C 0.11517 0.46172 0.7786 0.0
C282 C 0.03881 0.45472 0.76438 0.0
C283 C 0.0344 0.47858 0.75815 0.0
C284 C 0.04418 0.49179 0.73759 0.0
C285 C 0.05875 0.48143 0.72323 0.0
C286 C 0.06058 0.45589 0.72887 0.0
C287 C 0.0503 0.44239 0.74922 0.0
C288 C 0.97794 0.4171 0.78793 0.0
C289 C 0.95578 0.42635 0.79139 0.0
C290 C 0.92481 0.40949 0.7828 0.0
C291 C 0.91568 0.38317 0.77071 0.0
C292 C 0.93856 0.37497 0.76642 0.0
C293 C 0.9694 0.39178 0.77497 0.0
C294 C 0.03657 0.41107 0.92362 0.0
C295 C 0.1841 0.52675 0.7474 0.0
H296 H 0.39013 0.98786 0.8366 0.0
H297 H 0.40161 0.81073 0.03119 0.0
H298 H 0.43859 0.0479 0.94242 0.0
H299 H 0.46412 0.08552 0.91305 0.0
H300 H 0.553 0.08793 0.92363 0.0
H301 H 0.52759 0.05055 0.95286 0.0
H302 H 0.38953 0.97432 0.93053 0.0
H303 H 0.38015 0.97667 0.89193 0.0
H304 H 0.48035 0.00943 0.8787 0.0
H305 H 0.48928 0.00657 0.91725 0.0
H306 H 0.37326 0.91017 0.96193 0.0
H307 H 0.35669 0.86089 0.94522 0.0
H308 H 0.44993 0.90082 0.91437 0.0
H309 H 0.46659 0.94916 0.93161 0.0
H310 H 0.38787 0.93117 0.01096 0.0
H311 H 0.36886 0.8827 0.02983 0.0
H312 H 0.4443 0.8751 -0.00093 0.0
H313 H 0.46332 0.9238 0.98057 0.0
H314 H 0.42478 0.99279 0.02933 0.0
H315 H 0.4293 0.98121 0.06727 0.0
H316 H 0.50653 0.96708 0.0498 0.0
H317 H 0.5013 0.97783 0.01192 0.0
H318 H 0.4603 0.06284 -0.00635 0.0
H319 H 0.49812 0.11104 0.01145 0.0
H320 H 0.56609 0.08144 0.01804 0.0
H321 H 0.52879 0.034 -0.0002 0.0
O322 O 0.3943 0.98687 0.85175 0.0
O323 O 0.44616 0.00421 0.84589 0.0
O324 O 0.37059 0.83518 0.03961 0.0
O325 O 0.40865 0.82997 0.02397 0.0
C326 C 0.46403 0.01723 0.96185 0.0
C327 C 0.44571 0.98981 0.95024 0.0
C328 C 0.43379 0.96149 0.96079 0.0
C329 C 0.43856 0.9605 0.98319 0.0
C330 C 0.45638 0.98784 -0.00517 0.0
C331 C 0.46968 0.01622 0.98412 0.0
C332 C 0.48122 0.04642 0.94966 0.0
C333 C 0.46397 0.05763 0.93904 0.0
C334 C 0.47851 0.07903 0.92231 0.0
C335 C 0.51032 0.08922 0.91609 0.0
C336 C 0.52841 0.08028 0.9282 0.0
C337 C 0.514 0.05913 0.94497 0.0
C338 C 0.44013 0.99062 0.92671 0.0
C339 C 0.40938 0.98193 0.91925 0.0
C340 C 0.40412 0.98334 0.89721 0.0
C341 C 0.42955 0.99341 0.88224 0.0
C342 C 0.46028 0.00174 0.88979 0.0
C343 C 0.46547 0.00023 0.91181 0.0
C344 C 0.42108 0.9333 0.94788 0.0
C345 C 0.38979 0.90833 0.9512 0.0
C346 C 0.38039 0.8803 0.94168 0.0
C347 C 0.40198 0.87716 0.92841 0.0
C348 C 0.43257 0.90271 0.92417 0.0
C349 C 0.44211 0.9304 0.93398 0.0
C350 C 0.42683 0.93086 -0.00565 0.0
C351 C 0.40025 0.91899 0.00836 0.0
C352 C 0.38944 0.89131 0.01909 0.0
C353 C 0.40504 0.87499 0.01593 0.0
C354 C 0.43172 0.88704 0.00185 0.0
C355 C 0.44258 0.91479 -0.00878 0.0
C356 C 0.46282 0.98625 0.01801 0.0
C357 C 0.44314 0.9879 0.03383 0.0
C358 C 0.44569 0.98124 0.05538 0.0
C359 C 0.46834 0.97341 0.06134 0.0
C360 C 0.48921 0.97347 0.04562 0.0
C361 C 0.48623 0.97954 0.02405 0.0
C362 C 0.49158 0.04472 -0.00421 0.0
C363 C 0.48327 0.06675 -0.00089 0.0
C364 C 0.50481 0.09416 0.00923 0.0
C365 C 0.53481 0.09973 0.01633 0.0
C366 C 0.54285 0.07745 0.01316 0.0
C367 C 0.52156 0.05034 0.00279 0.0
C368 C 0.42397 0.99519 0.85886 0.0
C369 C 0.39363 0.84555 0.02725 0.0
H370 H 0.6206 0.59559 -0.00389 0.0
H371 H 0.71184 0.52127 0.22763 0.0
H372 H 0.56445 0.60695 0.12366 0.0
H373 H 0.54025 0.62193 0.09556 0.0
H374 H 0.63492 0.68928 0.07193 0.0
H375 H 0.65908 0.67488 0.10075 0.0
H376 H 0.59037 0.58119 0.08848 0.0
H377 H 0.59332 0.582 0.04903 0.0
H378 H 0.69709 0.63745 0.05218 0.0
H379 H 0.69374 0.63686 0.09167 0.0
H380 H 0.6181 0.54328 0.10294 0.0
H381 H 0.63842 0.5126 0.08745 0.0
H382 H 0.73069 0.57165 0.11693 0.0
H383 H 0.7106 0.6028 0.1318 0.0
H384 H 0.61714 0.52911 0.1534 0.0
H385 H 0.63146 0.49851 0.17571 0.0
H386 H 0.71099 0.58095 0.20226 0.0
H387 H 0.69674 0.61125 0.17959 0.0
H388 H 0.58662 0.55609 0.18293 0.0
H389 H 0.5862 0.54304 0.22085 0.0
H390 H 0.66632 0.6341 0.23251 0.0
H391 H 0.66727 0.64645 0.19413 0.0
H392 H 0.56491 0.60208 0.16772 0.0
H393 H 0.54409 0.63104 0.18501 0.0
H394 H 0.6365 0.71386 0.17557 0.0
H395 H 0.65634 0.68469 0.1573 0.0
O396 O 0.62 0.5956 0.01174 0.0
O397 O 0.6733 0.62378 0.01423 0.0
O398 O 0.66522 0.49111 0.20387 0.0
O399 O 0.70592 0.5328 0.21841 0.0
C400 C 0.62716 0.62504 0.12737 0.0
C401 C 0.63987 0.60908 0.11688 0.0
C402 C 0.64997 0.5924 0.12919 0.0
C403 C 0.64648 0.59088 0.15187 0.0
C404 C 0.63314 0.60625 0.16226 0.0
C405 C 0.6243 0.62397 0.15012 0.0
C406 C 0.6135 0.63975 0.11419 0.0
C407 C 0.58 0.62583 0.11303 0.0
C408 C 0.56623 0.63413 0.09679 0.0
C409 C 0.58573 0.65631 0.08132 0.0
C410 C 0.61933 0.67214 0.08366 0.0
C411 C 0.63314 0.66394 0.10006 0.0
C412 C 0.64183 0.60914 0.09291 0.0
C413 C 0.6137 0.59362 0.08061 0.0
C414 C 0.61547 0.59405 0.05808 0.0
C415 C 0.64545 0.60982 0.04744 0.0
C416 C 0.67362 0.62512 0.05986 0.0
C417 C 0.6718 0.62478 0.08241 0.0
C418 C 0.66295 0.5753 0.11841 0.0
C419 C 0.64289 0.54993 0.10567 0.0
C420 C 0.65443 0.53242 0.09693 0.0
C421 C 0.68599 0.53975 0.10117 0.0
C422 C 0.70616 0.56543 0.11365 0.0
C423 C 0.6948 0.58323 0.12205 0.0
C424 C 0.65593 0.57237 0.16487 0.0
C425 C 0.63781 0.54049 0.1639 0.0
C426 C 0.64597 0.52309 0.17673 0.0
C427 C 0.67235 0.5373 0.19081 0.0
C428 C 0.69054 0.56928 0.19161 0.0
C429 C 0.68244 0.58665 0.1787 0.0
C430 C 0.62717 0.60207 0.18584 0.0
C431 C 0.60339 0.57349 0.19385 0.0
C432 C 0.60319 0.56612 0.21556 0.0
C433 C 0.62661 0.58737 0.22966 0.0
C434 C 0.64843 0.61701 0.22194 0.0
C435 C 0.64875 0.62429 0.20012 0.0
C436 C 0.612 0.64137 0.1612 0.0
C437 C 0.58055 0.62649 0.16942 0.0
C438 C 0.56885 0.6431 0.17947 0.0
C439 C 0.58861 0.6749 0.18178 0.0
C440 C 0.62039 0.68955 0.17379 0.0
C441 C 0.63188 0.67294 0.16346 0.0
C442 C 0.64723 0.61023 0.02349 0.0
C443 C 0.68085 0.51891 0.2047 0.0
C444 C 0.73494 0.48356 0.39966 0.0
O445 O 0.73905 0.50758 0.40846 0.0
Cd446 Cd 0.69556 0.51532 0.41734 0.0
O447 O 0.70668 0.46129 0.39603 0.0
Cd448 Cd 0.64996 0.44653 0.40149 0.0
C449 C 0.65976 0.50255 0.36749 0.0
O450 O 0.6535 0.47164 0.43576 0.0
O451 O 0.60891 0.45306 0.41806 0.0
O452 O 0.63868 0.39871 0.41687 0.0
C453 C 0.62491 0.46627 0.43481 0.0
O454 O 0.67584 0.52071 0.38267 0.0
C455 C 0.61757 0.38171 0.40327 0.0
O456 O 0.64855 0.47402 0.36934 0.0
O457 O 0.61173 0.39489 0.38808 0.0
C458 C 0.27579 0.59245 0.56074 0.0
O459 O 0.2524 0.56827 0.55295 0.0
Cd460 Cd 0.20337 0.5633 0.54014 0.0
O461 O 0.27462 0.6166 0.5619 0.0
Cd462 Cd 0.23632 0.63317 0.55242 0.0
C463 C 0.17961 0.58176 0.58692 0.0
O464 O 0.21699 0.60664 0.51822 0.0
O465 O 0.18953 0.62486 0.53161 0.0
O466 O 0.28146 0.67993 0.53795 0.0
C467 C 0.19433 0.61178 0.51602 0.0
O468 O 0.17395 0.56217 0.57239 0.0
C469 C 0.27691 0.69795 0.54918 0.0
O470 O 0.20288 0.60923 0.58487 0.0
O471 O 0.25356 0.68586 0.56256 0.0
C472 C 0.68472 0.23876 0.72915 0.0
O473 O 0.6766 0.21178 0.72414 0.0
Cd474 Cd 0.62192 0.17258 0.71916 0.0
O475 O 0.66368 0.24639 0.73047 0.0
Cd476 Cd 0.60507 0.22455 0.7243 0.0
C477 C 0.58893 0.17786 0.76721 0.0
O478 O 0.60176 0.19372 0.69382 0.0
O479 O 0.55621 0.18622 0.70515 0.0
O480 O 0.62338 0.27387 0.70761 0.0
C481 C 0.57159 0.18038 0.6914 0.0
O482 O 0.59856 0.16393 0.75538 0.0
C483 C 0.60303 0.27835 0.71705 0.0
O484 O 0.58904 0.20121 0.76016 0.0
O485 O 0.58338 0.25765 0.72997 0.0
C486 C 0.38531 0.58197 0.8983 0.0
O487 O 0.39973 0.57033 0.9075 0.0
Cd488 Cd 0.45527 0.60224 0.91658 0.0
O489 O 0.3991 0.61068 0.89562 0.0
Cd490 Cd 0.44906 0.65901 0.90397 0.0
C491 C 0.48489 0.63795 0.86724 0.0
O492 O 0.45588 0.64117 0.9383 0.0
O493 O 0.49675 0.68396 0.92767 0.0
O494 O 0.41272 0.67665 0.91286 0.0
C495 C 0.48318 0.66411 0.94254 0.0
O496 O 0.48229 0.61835 0.88109 0.0
C497 C 0.42871 0.70188 0.90285 0.0
O498 O 0.47425 0.65532 0.87141 0.0
O499 O 0.45434 0.70722 0.89333 0.0
C500 C 0.78585 0.42289 0.04921 0.0
O501 O 0.81186 0.43828 0.03857 0.0
Cd502 Cd 0.84462 0.41778 0.03134 0.0
O503 O 0.77561 0.39532 0.05463 0.0
Cd504 Cd 0.7894 0.35532 0.0489 0.0
C505 C 0.85034 0.39514 0.08308 0.0
O506 O 0.80805 0.37183 0.01247 0.0
O507 O 0.82065 0.34046 0.02548 0.0
O508 O 0.73168 0.32368 0.04371 0.0
C509 C 0.81874 0.35444 0.00916 0.0
O510 O 0.86293 0.41445 0.06769 0.0
C511 C 0.72856 0.29999 0.05257 0.0
O512 O 0.82317 0.37085 0.08075 0.0
O513 O 0.75381 0.30208 0.06023 0.0
C514 C 0.35926 0.76227 0.22628 0.0
O515 O 0.35198 0.78143 0.21979 0.0
Cd516 Cd 0.38884 0.83478 0.21559 0.0
O517 O 0.38834 0.77054 0.23051 0.0
Cd518 Cd 0.44415 0.81591 0.2295 0.0
C519 C 0.42207 0.84962 0.2673 0.0
O520 O 0.43131 0.83396 0.19803 0.0
O521 O 0.48068 0.86248 0.20739 0.0
O522 O 0.45167 0.77485 0.21903 0.0
C523 C 0.45822 0.8579 0.19471 0.0
O524 O 0.40459 0.85117 0.25267 0.0
C525 C 0.47911 0.78547 0.22754 0.0
O526 O 0.43878 0.83749 0.26359 0.0
O527 O 0.49071 0.81063 0.23742 0.0
H528 H 0.21629 0.5903 0.2805 0.0
H529 H 0.18593 0.58477 0.21436 0.0
H530 H 0.26761 0.63624 0.27159 0.0
H531 H 0.23731 0.63059 0.2054 0.0
H532 H 0.2975 0.73544 0.21226 0.0
H533 H 0.25441 0.68286 0.21696 0.0
H534 H 0.31925 0.66269 0.25009 0.0
H535 H 0.3628 0.7158 0.24547 0.0
C536 C 0.22111 0.59825 0.26388 0.0
C537 C 0.19706 0.58428 0.24816 0.0
C538 C 0.25046 0.62459 0.25879 0.0
C539 C 0.25616 0.63729 0.2379 0.0
C540 C 0.23326 0.62162 0.22174 0.0
C541 C 0.20396 0.59538 0.22683 0.0
C542 C 0.30275 0.71985 0.22045 0.0
C543 C 0.33356 0.72989 0.22861 0.0
C544 C 0.27809 0.68959 0.22293 0.0
C545 C 0.28354 0.66859 0.23373 0.0
C546 C 0.31441 0.67842 0.24171 0.0
C547 C 0.33928 0.70878 0.23904 0.0
H548 H 0.49956 0.20111 0.45617 0.0
H549 H 0.52972 0.18434 0.39478 0.0
H550 H 0.52735 0.25536 0.44764 0.0
H551 H 0.55785 0.23897 0.38629 0.0
H552 H 0.57677 0.33822 0.37453 0.0
H553 H 0.54596 0.2828 0.38013 0.0
H554 H 0.58736 0.29466 0.44352 0.0
H555 H 0.61812 0.34954 0.43799 0.0
C556 C 0.51171 0.20898 0.44071 0.0
C557 C 0.5125 0.18852 0.42614 0.0
C558 C 0.52783 0.24004 0.43591 0.0
C559 C 0.54488 0.25131 0.41637 0.0
C560 C 0.54477 0.2308 0.40143 0.0
C561 C 0.5289 0.19966 0.40634 0.0
C562 C 0.57935 0.32891 0.38959 0.0
C563 C 0.5998 0.34822 0.40583 0.0
C564 C 0.56182 0.29727 0.39276 0.0
C565 C 0.56411 0.28457 0.41233 0.0
C566 C 0.58482 0.30389 0.4284 0.0
C567 C 0.60258 0.33532 0.42515 0.0
H568 H 0.39601 0.54702 0.63355 0.0
H569 H 0.46435 0.61918 0.59131 0.0
H570 H 0.35303 0.55291 0.61922 0.0
H571 H 0.4211 0.62546 0.57723 0.0
H572 H 0.33393 0.64104 0.57343 0.0
H573 H 0.37957 0.6397 0.5887 0.0
H574 H 0.32705 0.54188 0.58252 0.0
H575 H 0.28167 0.54306 0.56732 0.0
C576 C 0.40189 0.56421 0.62123 0.0
C577 C 0.43354 0.58227 0.6133 0.0
C578 C 0.37725 0.5676 0.61305 0.0
C579 C 0.38365 0.58932 0.59689 0.0
C580 C 0.41553 0.60855 0.58972 0.0
C581 C 0.44027 0.605 0.59782 0.0
C582 C 0.33219 0.61927 0.57528 0.0
C583 C 0.30408 0.59214 0.56922 0.0
C584 C 0.35835 0.61855 0.58394 0.0
C585 C 0.35671 0.59067 0.58696 0.0
C586 C 0.3288 0.56366 0.58066 0.0
C587 C 0.30287 0.56439 0.57182 0.0
H588 H 0.87941 0.32157 0.77434 0.0
H589 H 0.8756 0.39933 0.75195 0.0
H590 H 0.82397 0.2879 0.76345 0.0
H591 H 0.81985 0.36542 0.74066 0.0
H592 H 0.71017 0.29591 0.74599 0.0
H593 H 0.76616 0.33173 0.75534 0.0
H594 H 0.79245 0.26874 0.73138 0.0
H595 H 0.73657 0.23268 0.72265 0.0
C596 C 0.8668 0.33142 0.76678 0.0
C597 C 0.88193 0.36305 0.76378 0.0
C598 C 0.83501 0.31211 0.76051 0.0
C599 C 0.81755 0.32392 0.75098 0.0
C600 C 0.83257 0.35563 0.74812 0.0
C601 C 0.86446 0.37503 0.75453 0.0
C602 C 0.72795 0.28977 0.74265 0.0
C603 C 0.71885 0.26131 0.73376 0.0
C604 C 0.76006 0.31039 0.7479 0.0
C605 C 0.78374 0.303 0.74427 0.0
C606 C 0.77472 0.27489 0.73481 0.0
C607 C 0.74266 0.25425 0.7297 0.0
H608 H 0.37852 0.82565 0.95272 0.0
H609 H 0.41069 0.86097 0.88818 0.0
H610 H 0.37906 0.77997 0.94352 0.0
H611 H 0.41065 0.8149 0.87872 0.0
H612 H 0.46073 0.75932 0.88578 0.0
H613 H 0.44663 0.79809 0.88901 0.0
H614 H 0.35915 0.73398 0.92299 0.0
H615 H 0.37377 0.69534 0.92025 0.0
C616 C 0.38454 0.8231 0.93631 0.0
C617 C 0.39482 0.8469 0.9212 0.0
C618 C 0.3849 0.79691 0.93102 0.0
C619 C 0.3954 0.79399 0.91047 0.0
C620 C 0.40314 0.81677 0.89483 0.0
C621 C 0.40298 0.84304 0.90018 0.0
C622 C 0.43832 0.75339 0.89374 0.0
C623 C 0.41856 0.72441 0.90298 0.0
C624 C 0.43006 0.77554 0.89542 0.0
C625 C 0.40175 0.76916 0.90629 0.0
C626 C 0.38131 0.73974 0.91476 0.0
C627 C 0.38966 0.71759 0.91314 0.0
H628 H 0.71451 0.51527 0.12432 0.0
H629 H 0.68358 0.52032 0.05996 0.0
H630 H 0.73547 0.48419 0.11093 0.0
H631 H 0.70476 0.48932 0.04651 0.0
H632 H 0.79035 0.47376 0.03182 0.0
H633 H 0.76294 0.49964 0.04384 0.0
H634 H 0.71346 0.43111 0.0934 0.0
H635 H 0.74063 0.40488 0.08127 0.0
C636 C 0.71221 0.50965 0.10732 0.0
C637 C 0.69767 0.52024 0.0931 0.0
C638 C 0.7239 0.4917 0.09972 0.0
C639 C 0.72165 0.48441 0.07773 0.0
C640 C 0.70683 0.49476 0.06353 0.0
C641 C 0.69467 0.51233 0.0712 0.0
C642 C 0.77345 0.46407 0.04518 0.0
C643 C 0.76774 0.43739 0.05569 0.0
C644 C 0.75764 0.47878 0.05194 0.0
C645 C 0.73619 0.46733 0.06953 0.0
C646 C 0.73005 0.44041 0.07985 0.0
C647 C 0.74548 0.42539 0.07286 0.0
H648 H 0.42082 0.88288 0.5089 0.0
H649 H 0.33827 0.88718 0.52935 0.0
H650 H 0.39473 0.83054 0.52176 0.0
H651 H 0.31126 0.83417 0.54081 0.0
H652 H 0.27702 0.74299 0.57282 0.0
H653 H 0.30858 0.79782 0.56588 0.0
H654 H 0.35261 0.7826 0.51047 0.0
H655 H 0.3222 0.72831 0.51792 0.0
C656 C 0.39722 0.8728 0.51629 0.0
C657 C 0.38161 0.88931 0.51791 0.0
C658 C 0.38201 0.84255 0.5234 0.0
C659 C 0.35066 0.82787 0.5321 0.0
C660 C 0.33547 0.84469 0.53436 0.0
C661 C 0.35081 0.87504 0.52746 0.0
C662 C 0.29372 0.75148 0.55931 0.0
C663 C 0.29708 0.73131 0.54592 0.0
C664 C 0.31167 0.78288 0.55523 0.0
C665 C 0.33318 0.79476 0.53757 0.0
C666 C 0.33681 0.77449 0.52445 0.0
C667 C 0.31913 0.74322 0.52863 0.0
H668 H 0.57357 0.43185 0.7198 0.0
H669 H 0.60777 0.43206 0.65533 0.0
H670 H 0.58047 0.38963 0.72982 0.0
H671 H 0.61409 0.38948 0.66511 0.0
H672 H 0.64619 0.32859 0.6939 0.0
H673 H 0.64434 0.37418 0.68632 0.0
H674 H 0.55546 0.3363 0.72266 0.0
H675 H 0.55792 0.29112 0.7308 0.0
C676 C 0.5826 0.42284 0.7078 0.0
C677 C 0.59009 0.43518 0.68679 0.0
C678 C 0.58642 0.39859 0.71348 0.0
C679 C 0.59762 0.38599 0.69823 0.0
C680 C 0.60584 0.39887 0.67736 0.0
C681 C 0.60222 0.42326 0.67173 0.0
C682 C 0.62633 0.33006 0.70035 0.0
C683 C 0.60215 0.30623 0.7129 0.0
C684 C 0.62518 0.35614 0.69591 0.0
C685 C 0.59971 0.3589 0.70381 0.0
C686 C 0.5757 0.33515 0.71658 0.0
C687 C 0.57697 0.30915 0.72113 0.0
H688 H 0.20765 0.47987 0.82641 0.0
H689 H 0.18069 0.49346 0.88995 0.0
H690 H 0.26341 0.50213 0.83834 0.0
H691 H 0.23639 0.5151 0.90202 0.0
H692 H 0.33856 0.52732 0.91519 0.0
H693 H 0.2822 0.4968 0.9037 0.0
H694 H 0.3015 0.56181 0.85272 0.0
H695 H 0.35731 0.59271 0.86446 0.0
C696 C 0.21361 0.487 0.84304 0.0
C697 C 0.19017 0.48513 0.85731 0.0
C698 C 0.24534 0.49972 0.8498 0.0
C699 C 0.25385 0.51011 0.87104 0.0
C700 C 0.23014 0.50692 0.88562 0.0
C701 C 0.19851 0.49478 0.87872 0.0
C702 C 0.33073 0.53488 0.90144 0.0
C703 C 0.3521 0.56237 0.89074 0.0
C704 C 0.29864 0.51753 0.89496 0.0
C705 C 0.28789 0.52707 0.87734 0.0
C706 C 0.30948 0.554 0.86625 0.0
C707 C 0.34124 0.57168 0.87304 0.0
H708 H 0.57038 0.10998 0.05277 0.0
H709 H 0.5536 0.15619 0.00077 0.0
H710 H 0.61428 0.15874 0.0658 0.0
H711 H 0.59797 0.20475 0.01321 0.0
H712 H 0.6694 0.29133 0.04435 0.0
H713 H 0.61904 0.24309 0.03971 0.0
H714 H 0.66756 0.19472 0.05463 0.0
H715 H 0.71748 0.24297 0.06016 0.0
C716 C 0.57602 0.13065 0.04424 0.0
C717 C 0.55874 0.12938 0.02574 0.0
C718 C 0.60122 0.15855 0.05161 0.0
C719 C 0.60992 0.18572 0.04048 0.0
C720 C 0.59171 0.18443 0.02244 0.0
C721 C 0.5663 0.15658 0.01523 0.0
C722 C 0.66913 0.27035 0.04697 0.0
C723 C 0.69741 0.27088 0.05242 0.0
C724 C 0.64031 0.24269 0.04418 0.0
C725 C 0.63925 0.21495 0.04649 0.0
C726 C 0.6673 0.21556 0.05294 0.0
C727 C 0.69603 0.24325 0.056 0.0
H728 H 0.54625 0.65829 0.21588 0.0
H729 H 0.60161 0.73198 0.17052 0.0
H730 H 0.52152 0.68561 0.23004 0.0
H731 H 0.57784 0.75964 0.18545 0.0
H732 H 0.54413 0.80956 0.22993 0.0
H733 H 0.57341 0.78374 0.22166 0.0
H734 H 0.48326 0.69985 0.2113 0.0
H735 H 0.45413 0.72558 0.21915 0.0
C736 C 0.55329 0.6803 0.20896 0.0
C737 C 0.57574 0.69271 0.19185 0.0
C738 C 0.5393 0.69602 0.21723 0.0
C739 C 0.54784 0.72469 0.20883 0.0
C740 C 0.57118 0.73772 0.19239 0.0
C741 C 0.58482 0.72183 0.18388 0.0
C742 C 0.53064 0.78552 0.22618 0.0
C743 C 0.4969 0.76958 0.22507 0.0
C744 C 0.54736 0.77083 0.22137 0.0
C745 C 0.53054 0.73985 0.21586 0.0
C746 C 0.49678 0.72368 0.21568 0.0
C747 C 0.48015 0.73845 0.22006 0.0
H748 H 0.9252 0.51271 0.37222 0.0
H749 H 0.86281 0.44942 0.32397 0.0
H750 H 0.87905 0.5104 0.38975 0.0
H751 H 0.81659 0.44771 0.34105 0.0
H752 H 0.73573 0.4337 0.38528 0.0
H753 H 0.78163 0.4317 0.37166 0.0
H754 H 0.8435 0.52806 0.38347 0.0
H755 H 0.79791 0.52979 0.39776 0.0
C756 C 0.90154 0.49834 0.36536 0.0
C757 C 0.89756 0.4814 0.34667 0.0
C758 C 0.8751 0.4971 0.37533 0.0
C759 C 0.84407 0.47911 0.36672 0.0
C760 C 0.84003 0.46152 0.34831 0.0
C761 C 0.8665 0.46253 0.33846 0.0
C762 C 0.7592 0.45441 0.38514 0.0
C763 C 0.76312 0.48193 0.39259 0.0
C764 C 0.7855 0.4533 0.37719 0.0
C765 C 0.81632 0.47973 0.37635 0.0
C766 C 0.82027 0.50712 0.38417 0.0
C767 C 0.79404 0.50817 0.39228 0.0
H768 H 0.08241 0.50639 0.40649 0.0
H769 H 0.06544 0.58092 0.40877 0.0
H770 H 0.11286 0.52388 0.4397 0.0
H771 H 0.09765 0.5995 0.44146 0.0
H772 H 0.13852 0.61159 0.5098 0.0
H773 H 0.10179 0.59056 0.47929 0.0
H774 H 0.1648 0.56531 0.44921 0.0
H775 H 0.20083 0.58541 0.4799 0.0
C776 C 0.08467 0.52623 0.41425 0.0
C777 C 0.07143 0.54224 0.40489 0.0
C778 C 0.10268 0.53659 0.43313 0.0
C779 C 0.1082 0.5634 0.44307 0.0
C780 C 0.09381 0.57872 0.43427 0.0
C781 C 0.07559 0.56822 0.41541 0.0
C782 C 0.14447 0.60152 0.49665 0.0
C783 C 0.17251 0.60006 0.49728 0.0
C784 C 0.12348 0.58957 0.47914 0.0
C785 C 0.13018 0.57601 0.46186 0.0
C786 C 0.15848 0.57494 0.46244 0.0
C787 C 0.17931 0.58672 0.47997 0.0
H788 H 0.44459 0.04136 0.59806 0.0
H789 H 0.53292 0.10466 0.56467 0.0
H790 H 0.46666 0.0698 0.63162 0.0
H791 H 0.55473 0.13278 0.59781 0.0
H792 H 0.59838 0.15921 0.66334 0.0
H793 H 0.57338 0.1262 0.63253 0.0
H794 H 0.48348 0.12015 0.64765 0.0
H795 H 0.50845 0.15285 0.679 0.0
C796 C 0.46867 0.06125 0.59792 0.0
C797 C 0.48727 0.07041 0.57886 0.0
C798 C 0.48126 0.07755 0.61706 0.0
C799 C 0.5126 0.10329 0.61742 0.0
C800 C 0.53086 0.11259 0.59824 0.0
C801 C 0.51837 0.0964 0.57924 0.0
C802 C 0.57323 0.15075 0.66021 0.0
C803 C 0.55548 0.1589 0.67346 0.0
C804 C 0.55893 0.13189 0.64249 0.0
C805 C 0.52656 0.12087 0.63749 0.0
C806 C 0.50842 0.12816 0.65116 0.0
C807 C 0.52276 0.14701 0.66902 0.0
H808 H 0.56641 0.61493 0.74795 0.0
H809 H 0.4805 0.61477 0.73035 0.0
H810 H 0.56119 0.62791 0.78495 0.0
H811 H 0.47484 0.62711 0.76757 0.0
H812 H 0.48725 0.67199 0.83238 0.0
H813 H 0.50075 0.66775 0.79514 0.0
H814 H 0.52302 0.60009 0.81486 0.0
H815 H 0.50982 0.60442 0.85216 0.0
C816 C 0.54672 0.61822 0.75192 0.0
C817 C 0.52394 0.61405 0.73625 0.0
C818 C 0.54355 0.62531 0.77315 0.0
C819 C 0.51759 0.62846 0.77916 0.0
C820 C 0.4953 0.62514 0.76336 0.0
C821 C 0.49837 0.61786 0.74211 0.0
C822 C 0.49548 0.65652 0.82887 0.0
C823 C 0.49723 0.63837 0.84526 0.0
C824 C 0.503 0.65398 0.80749 0.0
C825 C 0.51265 0.63341 0.80207 0.0
C826 C 0.51586 0.61631 0.81858 0.0
C827 C 0.50818 0.61872 0.83995 0.0
H828 H 0.89258 0.41045 0.88153 0.0
H829 H 0.91892 0.34367 0.89487 0.0
H830 H 0.86273 0.3974 0.91518 0.0
H831 H 0.88681 0.3288 0.92795 0.0
H832 H 0.86678 0.34383 -0.00123 0.0
H833 H 0.88987 0.34761 0.96295 0.0
H834 H 0.81803 0.36293 0.93498 0.0
H835 H 0.79662 0.36111 0.97084 0.0
C836 C 0.89153 0.39258 0.89149 0.0
C837 C 0.90854 0.37844 0.8856 0.0
C838 C 0.87395 0.38471 0.91073 0.0
C839 C 0.87235 0.36205 0.92448 0.0
C840 C 0.88793 0.34672 0.918 0.0
C841 C 0.90594 0.35491 0.89883 0.0
C842 C 0.85589 0.34774 0.98487 0.0
C843 C 0.83034 0.35269 0.98753 0.0
C844 C 0.86892 0.34971 0.9643 0.0
C845 C 0.85616 0.35605 0.94598 0.0
C846 C 0.82919 0.35899 0.94869 0.0
C847 C 0.81674 0.35775 0.96924 0.0
H848 H 0.51831 0.99204 0.08945 0.0
H849 H 0.41698 0.92714 0.08185 0.0
H850 H 0.51743 0.96869 0.1242 0.0
H851 H 0.41613 0.90263 0.11561 0.0
H852 H 0.41385 0.87131 0.18206 0.0
H853 H 0.41779 0.9044 0.15257 0.0
H854 H 0.51463 0.92555 0.13892 0.0
H855 H 0.51119 0.89402 0.16971 0.0
C856 C 0.49585 0.97286 0.09536 0.0
C857 C 0.46764 0.96152 0.08321 0.0
C858 C 0.49533 0.95928 0.11513 0.0
C859 C 0.46671 0.93367 0.12287 0.0
C860 C 0.43847 0.92273 0.11064 0.0
C861 C 0.4389 0.93668 0.09118 0.0
C862 C 0.4361 0.88338 0.1729 0.0
C863 C 0.46211 0.87995 0.17794 0.0
C864 C 0.43833 0.9022 0.15585 0.0
C865 C 0.46627 0.91725 0.14292 0.0
C866 C 0.4928 0.91463 0.14855 0.0
C867 C 0.49084 0.89641 0.16609 0.0
H868 H 0.57963 0.54867 0.25842 0.0
H869 H 0.68286 0.60257 0.24964 0.0
H870 H 0.58692 0.52782 0.29204 0.0
H871 H 0.68995 0.5824 0.28338 0.0
H872 H 0.68911 0.56223 0.35551 0.0
H873 H 0.67994 0.58368 0.32317 0.0
H874 H 0.60866 0.4934 0.30206 0.0
H875 H 0.61773 0.47166 0.33459 0.0
C876 C 0.60383 0.55625 0.26372 0.0
C877 C 0.63066 0.57741 0.25137 0.0
C878 C 0.60796 0.54427 0.28291 0.0
C879 C 0.63897 0.55346 0.29023 0.0
C880 C 0.66577 0.57519 0.27823 0.0
C881 C 0.66167 0.58693 0.25897 0.0
C882 C 0.67143 0.54686 0.34402 0.0
C883 C 0.65418 0.51519 0.34761 0.0
C884 C 0.66629 0.5592 0.32547 0.0
C885 C 0.6436 0.54021 0.31016 0.0
C886 C 0.6261 0.50856 0.31375 0.0
C887 C 0.63147 0.49613 0.33226 0.0
H888 H 0.4145 0.95927 0.36881 0.0
H889 H 0.43173 0.89672 0.40444 0.0
H890 H 0.41495 0.9354 0.3352 0.0
H891 H 0.43179 0.8723 0.37053 0.0
H892 H 0.46215 0.85925 0.30161 0.0
H893 H 0.46252 0.88131 0.33667 0.0
H894 H 0.38141 0.88819 0.31695 0.0
H895 H 0.38154 0.86714 0.2821 0.0
C896 C 0.41781 0.94 0.36946 0.0
C897 C 0.42246 0.92947 0.38927 0.0
C898 C 0.41815 0.92635 0.35018 0.0
C899 C 0.42302 0.90169 0.35019 0.0
C900 C 0.42816 0.89136 0.36999 0.0
C901 C 0.42796 0.9052 0.38937 0.0
C902 C 0.44442 0.86547 0.30483 0.0
C903 C 0.42209 0.86178 0.28894 0.0
C904 C 0.44451 0.87793 0.32493 0.0
C905 C 0.42222 0.88683 0.3295 0.0
C906 C 0.3994 0.88227 0.3138 0.0
C907 C 0.39942 0.87005 0.29379 0.0
H908 H 0.525 0.47142 0.54751 0.0
H909 H 0.57212 0.5642 0.52351 0.0
H910 H 0.54401 0.45706 0.51609 0.0
H911 H 0.59265 0.54973 0.49263 0.0
H912 H 0.65691 0.51074 0.46477 0.0
H913 H 0.63331 0.52663 0.49299 0.0
H914 H 0.53811 0.45875 0.47195 0.0
H915 H 0.56152 0.44331 0.44341 0.0
C916 C 0.53869 0.48867 0.53535 0.0
C917 C 0.54685 0.51906 0.53813 0.0
C918 C 0.54984 0.48039 0.51746 0.0
C919 C 0.56987 0.50237 0.50215 0.0
C920 C 0.57742 0.5325 0.50443 0.0
C921 C 0.56572 0.54072 0.52212 0.0
C922 C 0.63096 0.4993 0.46616 0.0
C923 C 0.61101 0.47577 0.45198 0.0
C924 C 0.61753 0.50853 0.48213 0.0
C925 C 0.58399 0.49393 0.48443 0.0
C926 C 0.56405 0.47032 0.47038 0.0
C927 C 0.57745 0.46155 0.45412 0.0
H928 H 0.12148 0.50583 0.71282 0.0
H929 H 0.03354 0.49725 0.68977 0.0
H930 H 0.14964 0.53439 0.68017 0.0
H931 H 0.06171 0.52558 0.65675 0.0
H932 H 0.11858 0.53329 0.59166 0.0
H933 H 0.08811 0.51243 0.62517 0.0
H934 H 0.16554 0.58552 0.66087 0.0
H935 H 0.19604 0.60678 0.62721 0.0
C936 C 0.10824 0.5101 0.70068 0.0
C937 C 0.07534 0.49912 0.70356 0.0
C938 C 0.12439 0.52667 0.68216 0.0
C939 C 0.10784 0.53223 0.66601 0.0
C940 C 0.07496 0.52154 0.66899 0.0
C941 C 0.05889 0.5054 0.68778 0.0
C942 C 0.12892 0.54519 0.60661 0.0
C943 C 0.1598 0.57155 0.60685 0.0
C944 C 0.11137 0.53334 0.62575 0.0
C945 C 0.12456 0.54731 0.64557 0.0
C946 C 0.15494 0.57427 0.64577 0.0
C947 C 0.17229 0.58648 0.62653 0.0
H948 H 0.5278 0.06753 0.88284 0.0
H949 H 0.5192 0.14365 0.90159 0.0
H950 H 0.54622 0.08976 0.84717 0.0
H951 H 0.53966 0.16732 0.86599 0.0
H952 H 0.54684 0.1849 0.79237 0.0
H953 H 0.5279 0.16462 0.82877 0.0
H954 H 0.59057 0.12828 0.82918 0.0
H955 H 0.60777 0.14688 0.79259 0.0
C956 C 0.53051 0.08943 0.87933 0.0
C957 C 0.52262 0.10418 0.89492 0.0
C958 C 0.54126 0.10233 0.85892 0.0
C959 C 0.54503 0.13068 0.85369 0.0
C960 C 0.53686 0.14539 0.86936 0.0
C961 C 0.52542 0.13206 0.88977 0.0
C962 C 0.55644 0.17252 0.80033 0.0
C963 C 0.5784 0.16706 0.78957 0.0
C964 C 0.54579 0.16107 0.82124 0.0
C965 C 0.55736 0.14443 0.83192 0.0
C966 C 0.58029 0.14011 0.82131 0.0
C967 C 0.59035 0.15094 0.80033 0.0
H968 H 0.54059 0.61118 0.05658 0.0
H969 H 0.59881 0.70917 0.06071 0.0
H970 H 0.51671 0.61555 0.02351 0.0
H971 H 0.57438 0.71368 0.02735 0.0
H972 H 0.54609 0.70326 0.954 0.0
H973 H 0.57159 0.70356 -0.01184 0.0
H974 H 0.47995 0.63092 0.01247 0.0
H975 H 0.45493 0.63001 0.97843 0.0
C976 C 0.54784 0.63372 0.0506 0.0
C977 C 0.57108 0.65985 0.06145 0.0
C978 C 0.53418 0.63624 0.0316 0.0
C979 C 0.54329 0.66497 0.02296 0.0
C980 C 0.56695 0.69123 0.0336 0.0
C981 C 0.58081 0.68868 0.05269 0.0
C982 C 0.53148 0.68751 0.96673 0.0
C983 C 0.49865 0.66631 0.96346 0.0
C984 C 0.54601 0.68779 0.9863 0.0
C985 C 0.52786 0.66698 0.0029 0.0
C986 C 0.49477 0.64674 -0.00017 0.0
C987 C 0.4804 0.6463 0.98033 0.0
H988 H 0.88332 0.4028 0.22171 0.0
H989 H 0.9702 0.4799 0.19605 0.0
H990 H 0.86187 0.38873 0.18514 0.0
H991 H 0.95026 0.46504 0.15952 0.0
H992 H 0.89349 0.45118 0.09868 0.0
H993 H 0.91471 0.46423 0.13496 0.0
H994 H 0.86449 0.36857 0.15222 0.0
H995 H 0.84163 0.35579 0.11608 0.0
C996 C 0.89779 0.41659 0.20815 0.0
C997 C 0.92807 0.44266 0.21158 0.0
C998 C 0.88578 0.40841 0.18717 0.0
C999 C 0.9042 0.42576 0.16917 0.0
C1000 C 0.93488 0.45151 0.17283 0.0
C1001 C 0.94647 0.46002 0.19377 0.0
C1002 C 0.88722 0.43291 0.11016 0.0
C1003 C 0.86592 0.40245 0.1045 0.0
C1004 C 0.89953 0.44037 0.13104 0.0
C1005 C 0.89144 0.41751 0.14674 0.0
C1006 C 0.87079 0.38691 0.14082 0.0
C1007 C 0.85793 0.3795 0.12 0.0
loop_
_geom_bond_atom_site_label_1
_geom_bond_atom_site_label_2
_geom_bond_distance
_geom_bond_site_symmetry_2
_ccdc_geom_bond_type
H0 O26 0.856 . S
H1 O29 0.854 . S
H2 C37 0.928 1_455 S
H3 C38 0.930 . S
H4 C40 0.930 . S
H5 C41 0.930 . S
H6 C43 0.931 . S
H7 C44 0.930 . S
H8 C46 0.930 . S
H9 C47 0.929 . S
H10 C49 0.930 . S
H11 C50 0.931 . S
H12 C52 0.930 . S
H13 C53 0.929 . S
H14 C55 0.931 . S
H15 C56 0.930 . S
H16 C58 0.930 . S
H17 C59 0.932 . S
H18 C61 0.930 . S
H19 C62 0.929 . S
H20 C64 0.931 . S
H21 C65 0.930 . S
H22 C67 0.929 . S
H23 C68 0.931 . S
H24 C70 0.930 . S
H25 C71 0.926 1_455 S
O26 H0 0.856 . S
O26 C72 1.300 . S
O27 C72 1.209 . S
O28 C73 1.199 . S
O29 H1 0.854 . S
O29 C73 1.297 . S
C30 C31 1.404 . S
C30 C35 1.397 . S
C30 C36 1.492 . S
C31 C30 1.404 . S
C31 C32 1.396 . S
C31 C42 1.492 . S
C32 C31 1.396 . S
C32 C33 1.397 . S
C32 C48 1.509 . S
C33 C32 1.397 . S
C33 C34 1.412 . S
C33 C54 1.485 . S
C34 C33 1.412 . S
C34 C35 1.388 . S
C34 C60 1.490 . S
C35 C30 1.397 . S
C35 C34 1.388 . S
C35 C66 1.519 1_455 S
C36 C30 1.492 . S
C36 C37 1.364 1_455 S
C36 C41 1.390 1_455 S
C37 H2 0.928 1_655 S
C37 C36 1.364 1_655 S
C37 C38 1.374 . S
C38 H3 0.930 . S
C38 C37 1.374 . S
C38 C39 1.383 . S
C39 C38 1.383 . S
C39 C40 1.395 . S
C40 H4 0.930 . S
C40 C39 1.395 . S
C40 C41 1.362 . S
C41 H5 0.930 . S
C41 C36 1.390 1_655 S
C41 C40 1.362 . S
C42 C31 1.492 . S
C42 C43 1.377 . S
C42 C47 1.397 . S
C43 H6 0.931 . S
C43 C42 1.377 . S
C43 C44 1.376 . S
C44 H7 0.930 . S
C44 C43 1.376 . S
C44 C45 1.376 . S
C45 C44 1.376 . S
C45 C46 1.378 . S
C45 C72 1.486 . S
C46 H8 0.930 . S
C46 C45 1.378 . S
C46 C47 1.376 . S
C47 H9 0.929 . S
C47 C42 1.397 . S
C47 C46 1.376 . S
C48 C32 1.509 . S
C48 C49 1.391 . S
C48 C53 1.386 . S
C49 H10 0.930 . S
C49 C48 1.391 . S
C49 C50 1.375 . S
C50 H11 0.931 . S
C50 C49 1.375 . S
C50 C51 1.375 . S
C51 C50 1.375 . S
C51 C52 1.361 . S
C52 H12 0.930 . S
C52 C51 1.361 . S
C52 C53 1.399 . S
C53 H13 0.929 . S
C53 C48 1.386 . S
C53 C52 1.399 . S
C54 C33 1.485 . S
C54 C55 1.394 . S
C54 C59 1.360 . S
C55 H14 0.931 . S
C55 C54 1.394 . S
C55 C56 1.372 . S
C56 H15 0.930 . S
C56 C55 1.372 . S
C56 C57 1.397 . S
C57 C56 1.397 . S
C57 C58 1.390 . S
C57 C73 1.476 . S
C58 H16 0.930 . S
C58 C57 1.390 . S
C58 C59 1.366 . S
C59 H17 0.932 . S
C59 C54 1.360 . S
C59 C58 1.366 . S
C60 C34 1.490 . S
C60 C61 1.380 . S
C60 C65 1.386 . S
C61 H18 0.930 . S
C61 C60 1.380 . S
C61 C62 1.381 . S
C62 H19 0.929 . S
C62 C61 1.381 . S
C62 C63 1.371 . S
C63 C62 1.371 . S
C63 C64 1.380 . S
C64 H20 0.931 . S
C64 C63 1.380 . S
C64 C65 1.387 . S
C65 H21 0.930 . S
C65 C60 1.386 . S
C65 C64 1.387 . S
C66 C35 1.519 1_655 S
C66 C67 1.377 . S
C66 C71 1.361 . S
C67 H22 0.929 . S
C67 C66 1.377 . S
C67 C68 1.386 . S
C68 H23 0.931 . S
C68 C67 1.386 . S
C68 C69 1.363 . S
C69 C68 1.363 . S
C69 C70 1.385 . S
C70 H24 0.930 . S
C70 C69 1.385 . S
C70 C71 1.396 . S
C71 H25 0.926 1_655 S
C71 C66 1.361 . S
C71 C70 1.396 . S
C72 O26 1.300 . S
C72 O27 1.209 . S
C72 C45 1.486 . S
C73 O28 1.199 . S
C73 O29 1.297 . S
C73 C57 1.476 . S
H74 O100 0.856 . S
H75 O103 0.854 . S
H76 C111 0.930 . S
H77 C112 0.930 . S
H78 C114 0.930 . S
H79 C115 0.930 . S
H80 C117 0.931 . S
H81 C118 0.930 . S
H82 C120 0.930 . S
H83 C121 0.929 . S
H84 C123 0.930 . S
H85 C124 0.931 . S
H86 C126 0.930 . S
H87 C127 0.929 . S
H88 C129 0.931 . S
H89 C130 0.930 . S
H90 C132 0.930 . S
H91 C133 0.932 . S
H92 C135 0.930 . S
H93 C136 0.929 . S
H94 C138 0.931 . S
H95 C139 0.930 . S
H96 C141 0.929 . S
H97 C142 0.931 . S
H98 C144 0.930 . S
H99 C145 0.929 1_545 S
O100 H74 0.856 . S
O100 C146 1.300 . S
O101 C146 1.209 . S
O102 C147 1.199 . S
O103 H75 0.854 . S
O103 C147 1.297 . S
C104 C105 1.404 . S
C104 C109 1.397 . S
C104 C110 1.492 . S
C105 C104 1.404 . S
C105 C106 1.396 . S
C105 C116 1.492 . S
C106 C105 1.396 . S
C106 C107 1.397 . S
C106 C122 1.509 . S
C107 C106 1.397 . S
C107 C108 1.412 . S
C107 C128 1.485 . S
C108 C107 1.412 . S
C108 C109 1.388 . S
C108 C134 1.490 . S
C109 C104 1.397 . S
C109 C108 1.388 . S
C109 C140 1.519 . S
C110 C104 1.492 . S
C110 C111 1.363 . S
C110 C115 1.390 1_545 S
C111 H76 0.930 . S
C111 C110 1.363 . S
C111 C112 1.372 1_545 S
C112 H77 0.930 . S
C112 C111 1.372 1_565 S
C112 C113 1.383 . S
C113 C112 1.383 . S
C113 C114 1.395 . S
C114 H78 0.930 . S
C114 C113 1.395 . S
C114 C115 1.362 . S
C115 H79 0.930 . S
C115 C110 1.390 1_565 S
C115 C114 1.362 . S
C116 C105 1.492 . S
C116 C117 1.377 . S
C116 C121 1.397 . S
C117 H80 0.931 . S
C117 C116 1.377 . S
C117 C118 1.376 . S
C118 H81 0.930 . S
C118 C117 1.376 . S
C118 C119 1.376 . S
C119 C118 1.376 . S
C119 C120 1.378 . S
C119 C146 1.486 . S
C120 H82 0.930 . S
C120 C119 1.378 . S
C120 C121 1.376 . S
C121 H83 0.929 . S
C121 C116 1.397 . S
C121 C120 1.376 . S
C122 C106 1.509 . S
C122 C123 1.391 . S
C122 C127 1.386 . S
C123 H84 0.930 . S
C123 C122 1.391 . S
C123 C124 1.375 . S
C124 H85 0.931 . S
C124 C123 1.375 . S
C124 C125 1.375 . S
C125 C124 1.375 . S
C125 C126 1.361 . S
C126 H86 0.930 . S
C126 C125 1.361 . S
C126 C127 1.399 . S
C127 H87 0.929 . S
C127 C122 1.386 . S
C127 C126 1.399 . S
C128 C107 1.485 . S
C128 C129 1.394 . S
C128 C133 1.360 . S
C129 H88 0.931 . S
C129 C128 1.394 . S
C129 C130 1.372 . S
C130 H89 0.930 . S
C130 C129 1.372 . S
C130 C131 1.397 . S
C131 C130 1.397 . S
C131 C132 1.390 . S
C131 C147 1.476 . S
C132 H90 0.930 . S
C132 C131 1.390 . S
C132 C133 1.366 . S
C133 H91 0.932 . S
C133 C128 1.360 . S
C133 C132 1.366 . S
C134 C108 1.490 . S
C134 C135 1.380 . S
C134 C139 1.386 . S
C135 H92 0.930 . S
C135 C134 1.380 . S
C135 C136 1.381 . S
C136 H93 0.929 . S
C136 C135 1.381 . S
C136 C137 1.371 . S
C137 C136 1.371 . S
C137 C138 1.380 . S
C138 H94 0.931 . S
C138 C137 1.380 . S
C138 C139 1.387 . S
C139 H95 0.930 . S
C139 C134 1.386 . S
C139 C138 1.387 . S
C140 C109 1.519 . S
C140 C141 1.377 1_545 S
C140 C145 1.361 1_545 S
C141 H96 0.929 . S
C141 C140 1.377 1_565 S
C141 C142 1.386 . S
C142 H97 0.931 . S
C142 C141 1.386 . S
C142 C143 1.363 . S
C143 C142 1.363 . S
C143 C144 1.385 . S
C144 H98 0.930 . S
C144 C143 1.385 . S
C144 C145 1.396 . S
C145 H99 0.929 1_565 S
C145 C140 1.361 1_565 S
C145 C144 1.396 . S
C146 O100 1.300 . S
C146 O101 1.209 . S
C146 C119 1.486 . S
C147 O102 1.199 . S
C147 O103 1.297 . S
C147 C131 1.476 . S
H148 O174 0.856 . S
H149 O177 0.854 . S
H150 C185 0.930 . S
H151 C186 0.930 . S
H152 C188 0.930 . S
H153 C189 0.930 . S
H154 C191 0.931 . S
H155 C192 0.930 . S
H156 C194 0.930 . S
H157 C195 0.929 . S
H158 C197 0.930 . S
H159 C198 0.931 . S
H160 C200 0.930 . S
H161 C201 0.929 . S
H162 C203 0.931 . S
H163 C204 0.930 . S
H164 C206 0.930 . S
H165 C207 0.932 . S
H166 C209 0.930 . S
H167 C210 0.929 . S
H168 C212 0.931 . S
H169 C213 0.930 . S
H170 C215 0.929 . S
H171 C216 0.931 . S
H172 C218 0.930 . S
H173 C219 0.929 . S
O174 H148 0.856 . S
O174 C220 1.300 . S
O175 C220 1.209 . S
O176 C221 1.199 . S
O177 H149 0.854 . S
O177 C221 1.297 . S
C178 C179 1.404 . S
C178 C183 1.397 . S
C178 C184 1.492 . S
C179 C178 1.404 . S
C179 C180 1.396 . S
C179 C190 1.492 . S
C180 C179 1.396 . S
C180 C181 1.397 . S
C180 C196 1.509 . S
C181 C180 1.397 . S
C181 C182 1.412 . S
C181 C202 1.485 . S
C182 C181 1.412 . S
C182 C183 1.388 . S
C182 C208 1.490 . S
C183 C178 1.397 . S
C183 C182 1.388 . S
C183 C214 1.519 . S
C184 C178 1.492 . S
C184 C185 1.363 . S
C184 C189 1.390 . S
C185 H150 0.930 . S
C185 C184 1.363 . S
C185 C186 1.372 . S
C186 H151 0.930 . S
C186 C185 1.372 . S
C186 C187 1.383 . S
C187 C186 1.383 . S
C187 C188 1.395 . S
C188 H152 0.930 . S
C188 C187 1.395 . S
C188 C189 1.362 . S
C189 H153 0.930 . S
C189 C184 1.390 . S
C189 C188 1.362 . S
C190 C179 1.492 . S
C190 C191 1.377 . S
C190 C195 1.397 . S
C191 H154 0.931 . S
C191 C190 1.377 . S
C191 C192 1.376 . S
C192 H155 0.930 . S
C192 C191 1.376 . S
C192 C193 1.376 . S
C193 C192 1.376 . S
C193 C194 1.378 . S
C193 C220 1.486 . S
C194 H156 0.930 . S
C194 C193 1.378 . S
C194 C195 1.376 . S
C195 H157 0.929 . S
C195 C190 1.397 . S
C195 C194 1.376 . S
C196 C180 1.509 . S
C196 C197 1.391 . S
C196 C201 1.386 . S
C197 H158 0.930 . S
C197 C196 1.391 . S
C197 C198 1.375 . S
C198 H159 0.931 . S
C198 C197 1.375 . S
C198 C199 1.375 . S
C199 C198 1.375 . S
C199 C200 1.361 . S
C200 H160 0.930 . S
C200 C199 1.361 . S
C200 C201 1.399 . S
C201 H161 0.929 . S
C201 C196 1.386 . S
C201 C200 1.399 . S
C202 C181 1.485 . S
C202 C203 1.394 . S
C202 C207 1.360 . S
C203 H162 0.931 . S
C203 C202 1.394 . S
C203 C204 1.372 . S
C204 H163 0.930 . S
C204 C203 1.372 . S
C204 C205 1.397 . S
C205 C204 1.397 . S
C205 C206 1.390 . S
C205 C221 1.476 . S
C206 H164 0.930 . S
C206 C205 1.390 . S
C206 C207 1.366 . S
C207 H165 0.932 . S
C207 C202 1.360 . S
C207 C206 1.366 . S
C208 C182 1.490 . S
C208 C209 1.380 . S
C208 C213 1.386 . S
C209 H166 0.930 . S
C209 C208 1.380 . S
C209 C210 1.381 . S
C210 H167 0.929 . S
C210 C209 1.381 . S
C210 C211 1.371 . S
C211 C210 1.371 . S
C211 C212 1.380 . S
C212 H168 0.931 . S
C212 C211 1.380 . S
C212 C213 1.387 . S
C213 H169 0.930 . S
C213 C208 1.386 . S
C213 C212 1.387 . S
C214 C183 1.519 . S
C214 C215 1.377 . S
C214 C219 1.361 . S
C215 H170 0.929 . S
C215 C214 1.377 . S
C215 C216 1.386 . S
C216 H171 0.931 . S
C216 C215 1.386 . S
C216 C217 1.363 . S
C217 C216 1.363 . S
C217 C218 1.385 . S
C218 H172 0.930 . S
C218 C217 1.385 . S
C218 C219 1.396 . S
C219 H173 0.929 . S
C219 C214 1.361 . S
C219 C218 1.396 . S
C220 O174 1.300 . S
C220 O175 1.209 . S
C220 C193 1.486 . S
C221 O176 1.199 . S
C221 O177 1.297 . S
C221 C205 1.476 . S
H222 O248 0.856 . S
H223 O251 0.854 . S
H224 C259 0.930 1_455 S
H225 C260 0.930 . S
H226 C262 0.930 . S
H227 C263 0.930 . S
H228 C265 0.931 . S
H229 C266 0.930 . S
H230 C268 0.930 . S
H231 C269 0.929 . S
H232 C271 0.930 . S
H233 C272 0.931 . S
H234 C274 0.930 . S
H235 C275 0.929 . S
H236 C277 0.931 . S
H237 C278 0.930 . S
H238 C280 0.930 . S
H239 C281 0.932 . S
H240 C283 0.930 . S
H241 C284 0.929 . S
H242 C286 0.931 . S
H243 C287 0.930 . S
H244 C289 0.929 . S
H245 C290 0.931 . S
H246 C292 0.930 . S
H247 C293 0.929 . S
O248 H222 0.856 . S
O248 C294 1.300 . S
O249 C294 1.209 . S
O250 C295 1.199 . S
O251 H223 0.854 . S
O251 C295 1.297 . S
C252 C253 1.404 . S
C252 C257 1.397 . S
C252 C258 1.492 1_455 S
C253 C252 1.404 . S
C253 C254 1.396 . S
C253 C264 1.492 . S
C254 C253 1.396 . S
C254 C255 1.397 . S
C254 C270 1.509 . S
C255 C254 1.397 . S
C255 C256 1.412 . S
C255 C276 1.485 . S
C256 C255 1.412 . S
C256 C257 1.388 . S
C256 C282 1.490 . S
C257 C252 1.397 . S
C257 C256 1.388 . S
C257 C288 1.519 1_455 S
C258 C252 1.492 1_655 S
C258 C259 1.363 . S
C258 C263 1.390 . S
C259 H224 0.930 1_655 S
C259 C258 1.363 . S
C259 C260 1.372 . S
C260 H225 0.930 . S
C260 C259 1.372 . S
C260 C261 1.383 . S
C261 C260 1.383 . S
C261 C262 1.395 . S
C262 H226 0.930 . S
C262 C261 1.395 . S
C262 C263 1.362 . S
C263 H227 0.930 . S
C263 C258 1.390 . S
C263 C262 1.362 . S
C264 C253 1.492 . S
C264 C265 1.377 . S
C264 C269 1.397 . S
C265 H228 0.931 . S
C265 C264 1.377 . S
C265 C266 1.376 . S
C266 H229 0.930 . S
C266 C265 1.376 . S
C266 C267 1.376 . S
C267 C266 1.376 . S
C267 C268 1.378 . S
C267 C294 1.486 . S
C268 H230 0.930 . S
C268 C267 1.378 . S
C268 C269 1.376 . S
C269 H231 0.929 . S
C269 C264 1.397 . S
C269 C268 1.376 . S
C270 C254 1.509 . S
C270 C271 1.391 . S
C270 C275 1.386 . S
C271 H232 0.930 . S
C271 C270 1.391 . S
C271 C272 1.375 . S
C272 H233 0.931 . S
C272 C271 1.375 . S
C272 C273 1.375 . S
C273 C272 1.375 . S
C273 C274 1.361 . S
C274 H234 0.930 . S
C274 C273 1.361 . S
C274 C275 1.399 . S
C275 H235 0.929 . S
C275 C270 1.386 . S
C275 C274 1.399 . S
C276 C255 1.485 . S
C276 C277 1.394 . S
C276 C281 1.360 . S
C277 H236 0.931 . S
C277 C276 1.394 . S
C277 C278 1.372 . S
C278 H237 0.930 . S
C278 C277 1.372 . S
C278 C279 1.397 . S
C279 C278 1.397 . S
C279 C280 1.390 . S
C279 C295 1.476 . S
C280 H238 0.930 . S
C280 C279 1.390 . S
C280 C281 1.366 . S
C281 H239 0.932 . S
C281 C276 1.360 . S
C281 C280 1.366 . S
C282 C256 1.490 . S
C282 C283 1.380 . S
C282 C287 1.386 . S
C283 H240 0.930 . S
C283 C282 1.380 . S
C283 C284 1.381 . S
C284 H241 0.929 . S
C284 C283 1.381 . S
C284 C285 1.371 . S
C285 C284 1.371 . S
C285 C286 1.380 . S
C286 H242 0.931 . S
C286 C285 1.380 . S
C286 C287 1.387 . S
C287 H243 0.930 . S
C287 C282 1.386 . S
C287 C286 1.387 . S
C288 C257 1.519 1_655 S
C288 C289 1.377 . S
C288 C293 1.361 . S
C289 H244 0.929 . S
C289 C288 1.377 . S
C289 C290 1.386 . S
C290 H245 0.931 . S
C290 C289 1.386 . S
C290 C291 1.363 . S
C291 C290 1.363 . S
C291 C292 1.385 . S
C292 H246 0.930 . S
C292 C291 1.385 . S
C292 C293 1.396 . S
C293 H247 0.929 . S
C293 C288 1.361 . S
C293 C292 1.396 . S
C294 O248 1.300 . S
C294 O249 1.209 . S
C294 C267 1.486 . S
C295 O250 1.199 . S
C295 O251 1.297 . S
C295 C279 1.476 . S
H296 O322 0.856 . S
H297 O325 0.854 . S
H298 C333 0.930 . S
H299 C334 0.930 . S
H300 C336 0.930 . S
H301 C337 0.930 . S
H302 C339 0.931 . S
H303 C340 0.930 . S
H304 C342 0.930 . S
H305 C343 0.929 . S
H306 C345 0.930 . S
H307 C346 0.931 . S
H308 C348 0.930 . S
H309 C349 0.929 . S
H310 C351 0.931 . S
H311 C352 0.930 . S
H312 C354 0.930 . S
H313 C355 0.932 . S
H314 C357 0.930 . S
H315 C358 0.929 1_545 S
H316 C360 0.931 . S
H317 C361 0.930 . S
H318 C363 0.929 1_556 S
H319 C364 0.931 . S
H320 C366 0.930 . S
H321 C367 0.929 . S
O322 H296 0.856 . S
O322 C368 1.300 . S
O323 C368 1.209 . S
O324 C369 1.199 . S
O325 H297 0.854 . S
O325 C369 1.297 . S
C326 C327 1.402 1_545 S
C326 C331 1.397 . S
C326 C332 1.494 . S
C327 C326 1.402 1_565 S
C327 C328 1.396 . S
C327 C338 1.492 . S
C328 C327 1.396 . S
C328 C329 1.397 . S
C328 C344 1.509 . S
C329 C328 1.397 . S
C329 C330 1.412 1_556 S
C329 C350 1.485 1_556 S
C330 C329 1.412 1_554 S
C330 C331 1.388 1_564 S
C330 C356 1.490 . S
C331 C326 1.397 . S
C331 C330 1.388 1_546 S
C331 C362 1.519 1_556 S
C332 C326 1.494 . S
C332 C333 1.363 . S
C332 C337 1.390 . S
C333 H298 0.930 . S
C333 C332 1.363 . S
C333 C334 1.372 . S
C334 H299 0.930 . S
C334 C333 1.372 . S
C334 C335 1.383 . S
C335 C334 1.383 . S
C335 C336 1.395 . S
C336 H300 0.930 . S
C336 C335 1.395 . S
C336 C337 1.362 . S
C337 H301 0.930 . S
C337 C332 1.390 . S
C337 C336 1.362 . S
C338 C327 1.492 . S
C338 C339 1.377 . S
C338 C343 1.397 . S
C339 H302 0.931 . S
C339 C338 1.377 . S
C339 C340 1.376 . S
C340 H303 0.930 . S
C340 C339 1.376 . S
C340 C341 1.376 . S
C341 C340 1.376 . S
C341 C342 1.378 . S
C341 C368 1.486 . S
C342 H304 0.930 . S
C342 C341 1.378 . S
C342 C343 1.376 . S
C343 H305 0.929 . S
C343 C338 1.397 . S
C343 C342 1.376 . S
C344 C328 1.509 . S
C344 C345 1.391 . S
C344 C349 1.386 . S
C345 H306 0.930 . S
C345 C344 1.391 . S
C345 C346 1.375 . S
C346 H307 0.931 . S
C346 C345 1.375 . S
C346 C347 1.375 . S
C347 C346 1.375 . S
C347 C348 1.361 . S
C348 H308 0.930 . S
C348 C347 1.361 . S
C348 C349 1.399 . S
C349 H309 0.929 . S
C349 C344 1.386 . S
C349 C348 1.399 . S
C350 C329 1.485 1_554 S
C350 C351 1.394 . S
C350 C355 1.360 . S
C351 H310 0.931 . S
C351 C350 1.394 . S
C351 C352 1.372 . S
C352 H311 0.930 . S
C352 C351 1.372 . S
C352 C353 1.397 . S
C353 C352 1.397 . S
C353 C354 1.390 . S
C353 C369 1.476 . S
C354 H312 0.930 . S
C354 C353 1.390 . S
C354 C355 1.366 . S
C355 H313 0.932 . S
C355 C350 1.360 . S
C355 C354 1.366 . S
C356 C330 1.490 . S
C356 C357 1.380 . S
C356 C361 1.386 . S
C357 H314 0.930 . S
C357 C356 1.380 . S
C357 C358 1.381 . S
C358 H315 0.929 1_565 S
C358 C357 1.381 . S
C358 C359 1.371 . S
C359 C358 1.371 . S
C359 C360 1.380 . S
C360 H316 0.931 . S
C360 C359 1.380 . S
C360 C361 1.387 . S
C361 H317 0.930 . S
C361 C356 1.386 . S
C361 C360 1.387 . S
C362 C331 1.519 1_554 S
C362 C363 1.377 . S
C362 C367 1.361 . S
C363 H318 0.929 1_554 S
C363 C362 1.377 . S
C363 C364 1.386 . S
C364 H319 0.931 . S
C364 C363 1.386 . S
C364 C365 1.363 . S
C365 C364 1.363 . S
C365 C366 1.385 . S
C366 H320 0.930 . S
C366 C365 1.385 . S
C366 C367 1.396 . S
C367 H321 0.929 . S
C367 C362 1.361 . S
C367 C366 1.396 . S
C368 O322 1.300 . S
C368 O323 1.209 . S
C368 C341 1.486 . S
C369 O324 1.199 . S
C369 O325 1.297 . S
C369 C353 1.476 . S
H370 O396 0.856 1_556 S
H371 O399 0.854 . S
H372 C407 0.930 . S
H373 C408 0.930 . S
H374 C410 0.930 . S
H375 C411 0.930 . S
H376 C413 0.931 . S
H377 C414 0.930 . S
H378 C416 0.930 . S
H379 C417 0.929 . S
H380 C419 0.930 . S
H381 C420 0.931 . S
H382 C422 0.930 . S
H383 C423 0.929 . S
H384 C425 0.931 . S
H385 C426 0.930 . S
H386 C428 0.930 . S
H387 C429 0.932 . S
H388 C431 0.930 . S
H389 C432 0.929 . S
H390 C434 0.931 . S
H391 C435 0.930 . S
H392 C437 0.929 . S
H393 C438 0.931 . S
H394 C440 0.930 . S
H395 C441 0.929 . S
O396 H370 0.856 1_554 S
O396 C442 1.300 . S
O397 C442 1.209 . S
O398 C443 1.199 . S
O399 H371 0.854 . S
O399 C443 1.297 . S
C400 C401 1.404 . S
C400 C405 1.397 . S
C400 C406 1.492 . S
C401 C400 1.404 . S
C401 C402 1.396 . S
C401 C412 1.492 . S
C402 C401 1.396 . S
C402 C403 1.397 . S
C402 C418 1.509 . S
C403 C402 1.397 . S
C403 C404 1.412 . S
C403 C424 1.485 . S
C404 C403 1.412 . S
C404 C405 1.388 . S
C404 C430 1.490 . S
C405 C400 1.397 . S
C405 C404 1.388 . S
C405 C436 1.519 . S
C406 C400 1.492 . S
C406 C407 1.363 . S
C406 C411 1.390 . S
C407 H372 0.930 . S
C407 C406 1.363 . S
C407 C408 1.372 . S
C408 H373 0.930 . S
C408 C407 1.372 . S
C408 C409 1.383 . S
C409 C408 1.383 . S
C409 C410 1.395 . S
C410 H374 0.930 . S
C410 C409 1.395 . S
C410 C411 1.362 . S
C411 H375 0.930 . S
C411 C406 1.390 . S
C411 C410 1.362 . S
C412 C401 1.492 . S
C412 C413 1.377 . S
C412 C417 1.397 . S
C413 H376 0.931 . S
C413 C412 1.377 . S
C413 C414 1.376 . S
C414 H377 0.930 . S
C414 C413 1.376 . S
C414 C415 1.376 . S
C415 C414 1.376 . S
C415 C416 1.378 . S
C415 C442 1.486 . S
C416 H378 0.930 . S
C416 C415 1.378 . S
C416 C417 1.376 . S
C417 H379 0.929 . S
C417 C412 1.397 . S
C417 C416 1.376 . S
C418 C402 1.509 . S
C418 C419 1.391 . S
C418 C423 1.386 . S
C419 H380 0.930 . S
C419 C418 1.391 . S
C419 C420 1.375 . S
C420 H381 0.931 . S
C420 C419 1.375 . S
C420 C421 1.375 . S
C421 C420 1.375 . S
C421 C422 1.361 . S
C422 H382 0.930 . S
C422 C421 1.361 . S
C422 C423 1.399 . S
C423 H383 0.929 . S
C423 C418 1.386 . S
C423 C422 1.399 . S
C424 C403 1.485 . S
C424 C425 1.394 . S
C424 C429 1.360 . S
C425 H384 0.931 . S
C425 C424 1.394 . S
C425 C426 1.372 . S
C426 H385 0.930 . S
C426 C425 1.372 . S
C426 C427 1.397 . S
C427 C426 1.397 . S
C427 C428 1.390 . S
C427 C443 1.476 . S
C428 H386 0.930 . S
C428 C427 1.390 . S
C428 C429 1.366 . S
C429 H387 0.932 . S
C429 C424 1.360 . S
C429 C428 1.366 . S
C430 C404 1.490 . S
C430 C431 1.380 . S
C430 C435 1.386 . S
C431 H388 0.930 . S
C431 C430 1.380 . S
C431 C432 1.381 . S
C432 H389 0.929 . S
C432 C431 1.381 . S
C432 C433 1.371 . S
C433 C432 1.371 . S
C433 C434 1.380 . S
C434 H390 0.931 . S
C434 C433 1.380 . S
C434 C435 1.387 . S
C435 H391 0.930 . S
C435 C430 1.386 . S
C435 C434 1.387 . S
C436 C405 1.519 . S
C436 C437 1.377 . S
C436 C441 1.361 . S
C437 H392 0.929 . S
C437 C436 1.377 . S
C437 C438 1.386 . S
C438 H393 0.931 . S
C438 C437 1.386 . S
C438 C439 1.363 . S
C439 C438 1.363 . S
C439 C440 1.385 . S
C440 H394 0.930 . S
C440 C439 1.385 . S
C440 C441 1.396 . S
C441 H395 0.929 . S
C441 C436 1.361 . S
C441 C440 1.396 . S
C442 O396 1.300 . S
C442 O397 1.209 . S
C442 C415 1.486 . S
C443 O398 1.199 . S
C443 O399 1.297 . S
C443 C427 1.476 . S
C444 O445 1.306 . S
C444 O447 1.160 . S
O445 C444 1.306 . S
O445 Cd446 2.228 . S
Cd446 O445 2.228 . S
Cd446 O450 2.273 . S
Cd446 O454 2.277 . S
O447 C444 1.160 . S
O447 Cd448 2.203 . S
Cd448 O447 2.203 . S
Cd448 O450 2.411 . S
Cd448 O451 2.333 . S
Cd448 O452 2.352 . S
Cd448 O456 2.277 . S
Cd448 O457 2.356 . S
C449 O454 1.209 . S
C449 O456 1.226 . S
O450 Cd446 2.273 . S
O450 Cd448 2.411 . S
O450 C453 1.320 . S
O451 Cd448 2.333 . S
O451 C453 1.214 . S
O452 Cd448 2.352 . S
O452 C455 1.258 . S
C453 O450 1.320 . S
C453 O451 1.214 . S
O454 Cd446 2.277 . S
O454 C449 1.209 . S
C455 O452 1.258 . S
C455 O457 1.282 . S
O456 Cd448 2.277 . S
O456 C449 1.226 . S
O457 Cd448 2.356 . S
O457 C455 1.282 . S
C458 O459 1.306 . S
C458 O461 1.160 . S
O459 C458 1.306 . S
O459 Cd460 2.228 . S
Cd460 O459 2.228 . S
Cd460 O464 2.273 . S
Cd460 O468 2.277 . S
O461 C458 1.160 . S
O461 Cd462 2.203 . S
Cd462 O461 2.203 . S
Cd462 O464 2.411 . S
Cd462 O465 2.333 . S
Cd462 O466 2.352 . S
Cd462 O470 2.277 . S
Cd462 O471 2.356 . S
C463 O468 1.209 . S
C463 O470 1.226 . S
O464 Cd460 2.273 . S
O464 Cd462 2.411 . S
O464 C467 1.320 . S
O465 Cd462 2.333 . S
O465 C467 1.214 . S
O466 Cd462 2.352 . S
O466 C469 1.258 . S
C467 O464 1.320 . S
C467 O465 1.214 . S
O468 Cd460 2.277 . S
O468 C463 1.209 . S
C469 O466 1.258 . S
C469 O471 1.282 . S
O470 Cd462 2.277 . S
O470 C463 1.226 . S
O471 Cd462 2.356 . S
O471 C469 1.282 . S
C472 O473 1.306 . S
C472 O475 1.160 . S
O473 C472 1.306 . S
O473 Cd474 2.228 . S
Cd474 O473 2.228 . S
Cd474 O478 2.273 . S
Cd474 O482 2.277 . S
O475 C472 1.160 . S
O475 Cd476 2.203 . S
Cd476 O475 2.203 . S
Cd476 O478 2.411 . S
Cd476 O479 2.333 . S
Cd476 O480 2.352 . S
Cd476 O484 2.277 . S
Cd476 O485 2.356 . S
C477 O482 1.209 . S
C477 O484 1.226 . S
O478 Cd474 2.273 . S
O478 Cd476 2.411 . S
O478 C481 1.320 . S
O479 Cd476 2.333 . S
O479 C481 1.214 . S
O480 Cd476 2.352 . S
O480 C483 1.258 . S
C481 O478 1.320 . S
C481 O479 1.214 . S
O482 Cd474 2.277 . S
O482 C477 1.209 . S
C483 O480 1.258 . S
C483 O485 1.282 . S
O484 Cd476 2.277 . S
O484 C477 1.226 . S
O485 Cd476 2.356 . S
O485 C483 1.282 . S
C486 O487 1.306 . S
C486 O489 1.160 . S
O487 C486 1.306 . S
O487 Cd488 2.228 . S
Cd488 O487 2.228 . S
Cd488 O492 2.273 . S
Cd488 O496 2.277 . S
O489 C486 1.160 . S
O489 Cd490 2.203 . S
Cd490 O489 2.203 . S
Cd490 O492 2.411 . S
Cd490 O493 2.333 . S
Cd490 O494 2.352 . S
Cd490 O498 2.277 . S
Cd490 O499 2.356 . S
C491 O496 1.209 . S
C491 O498 1.226 . S
O492 Cd488 2.273 . S
O492 Cd490 2.411 . S
O492 C495 1.320 . S
O493 Cd490 2.333 . S
O493 C495 1.214 . S
O494 Cd490 2.352 . S
O494 C497 1.258 . S
C495 O492 1.320 . S
C495 O493 1.214 . S
O496 Cd488 2.277 . S
O496 C491 1.209 . S
C497 O494 1.258 . S
C497 O499 1.282 . S
O498 Cd490 2.277 . S
O498 C491 1.226 . S
O499 Cd490 2.356 . S
O499 C497 1.282 . S
C500 O501 1.306 . S
C500 O503 1.160 . S
O501 C500 1.306 . S
O501 Cd502 2.228 . S
Cd502 O501 2.228 . S
Cd502 O506 2.273 . S
Cd502 O510 2.277 . S
O503 C500 1.160 . S
O503 Cd504 2.203 . S
Cd504 O503 2.203 . S
Cd504 O506 2.411 . S
Cd504 O507 2.333 . S
Cd504 O508 2.352 . S
Cd504 O512 2.277 . S
Cd504 O513 2.356 . S
C505 O510 1.209 . S
C505 O512 1.226 . S
O506 Cd502 2.273 . S
O506 Cd504 2.411 . S
O506 C509 1.320 . S
O507 Cd504 2.333 . S
O507 C509 1.214 . S
O508 Cd504 2.352 . S
O508 C511 1.258 . S
C509 O506 1.320 . S
C509 O507 1.214 . S
O510 Cd502 2.277 . S
O510 C505 1.209 . S
C511 O508 1.258 . S
C511 O513 1.282 . S
O512 Cd504 2.277 . S
O512 C505 1.226 . S
O513 Cd504 2.356 . S
O513 C511 1.282 . S
C514 O515 1.306 . S
C514 O517 1.160 . S
O515 C514 1.306 . S
O515 Cd516 2.228 . S
Cd516 O515 2.228 . S
Cd516 O520 2.273 . S
Cd516 O524 2.277 . S
O517 C514 1.160 . S
O517 Cd518 2.203 . S
Cd518 O517 2.203 . S
Cd518 O520 2.411 . S
Cd518 O521 2.333 . S
Cd518 O522 2.352 . S
Cd518 O526 2.277 . S
Cd518 O527 2.356 . S
C519 O524 1.209 . S
C519 O526 1.226 . S
O520 Cd516 2.273 . S
O520 Cd518 2.411 . S
O520 C523 1.320 . S
O521 Cd518 2.333 . S
O521 C523 1.214 . S
O522 Cd518 2.352 . S
O522 C525 1.258 . S
C523 O520 1.320 . S
C523 O521 1.214 . S
O524 Cd516 2.277 . S
O524 C519 1.209 . S
C525 O522 1.258 . S
C525 O527 1.282 . S
O526 Cd518 2.277 . S
O526 C519 1.226 . S
O527 Cd518 2.356 . S
O527 C525 1.282 . S
H528 C536 0.950 . S
H529 C541 0.950 . S
H530 C538 0.950 . S
H531 C540 0.950 . S
H532 C542 0.950 . S
H533 C544 0.950 . S
H534 C546 0.950 . S
H535 C547 0.950 . S
C536 H528 0.950 . S
C536 C537 1.386 . S
C536 C538 1.391 . S
C537 C536 1.386 . S
C537 C541 1.393 . S
C538 H530 0.950 . S
C538 C536 1.391 . S
C538 C539 1.400 . S
C539 C538 1.400 . S
C539 C540 1.398 . S
C539 C545 1.491 . S
C540 H531 0.950 . S
C540 C539 1.398 . S
C540 C541 1.391 . S
C541 H529 0.950 . S
C541 C537 1.393 . S
C541 C540 1.391 . S
C542 H532 0.950 . S
C542 C543 1.386 . S
C542 C544 1.391 . S
C543 C542 1.386 . S
C543 C547 1.393 . S
C544 H533 0.950 . S
C544 C542 1.391 . S
C544 C545 1.400 . S
C545 C539 1.491 . S
C545 C544 1.400 . S
C545 C546 1.398 . S
C546 H534 0.950 . S
C546 C545 1.398 . S
C546 C547 1.391 . S
C547 H535 0.950 . S
C547 C543 1.393 . S
C547 C546 1.391 . S
H548 C556 0.950 . S
H549 C561 0.950 . S
H550 C558 0.950 . S
H551 C560 0.950 . S
H552 C562 0.950 . S
H553 C564 0.950 . S
H554 C566 0.950 . S
H555 C567 0.950 . S
C556 H548 0.950 . S
C556 C557 1.386 . S
C556 C558 1.391 . S
C557 C556 1.386 . S
C557 C561 1.393 . S
C558 H550 0.950 . S
C558 C556 1.391 . S
C558 C559 1.400 . S
C559 C558 1.400 . S
C559 C560 1.398 . S
C559 C565 1.491 . S
C560 H551 0.950 . S
C560 C559 1.398 . S
C560 C561 1.391 . S
C561 H549 0.950 . S
C561 C557 1.393 . S
C561 C560 1.391 . S
C562 H552 0.950 . S
C562 C563 1.386 . S
C562 C564 1.391 . S
C563 C562 1.386 . S
C563 C567 1.393 . S
C564 H553 0.950 . S
C564 C562 1.391 . S
C564 C565 1.400 . S
C565 C559 1.491 . S
C565 C564 1.400 . S
C565 C566 1.398 . S
C566 H554 0.950 . S
C566 C565 1.398 . S
C566 C567 1.391 . S
C567 H555 0.950 . S
C567 C563 1.393 . S
C567 C566 1.391 . S
H568 C576 0.950 . S
H569 C581 0.950 . S
H570 C578 0.950 . S
H571 C580 0.950 . S
H572 C582 0.950 . S
H573 C584 0.950 . S
H574 C586 0.950 . S
H575 C587 0.950 . S
C576 H568 0.950 . S
C576 C577 1.386 . S
C576 C578 1.391 . S
C577 C576 1.386 . S
C577 C581 1.393 . S
C578 H570 0.950 . S
C578 C576 1.391 . S
C578 C579 1.400 . S
C579 C578 1.400 . S
C579 C580 1.398 . S
C579 C585 1.491 . S
C580 H571 0.950 . S
C580 C579 1.398 . S
C580 C581 1.391 . S
C581 H569 0.950 . S
C581 C577 1.393 . S
C581 C580 1.391 . S
C582 H572 0.950 . S
C582 C583 1.386 . S
C582 C584 1.391 . S
C583 C582 1.386 . S
C583 C587 1.393 . S
C584 H573 0.950 . S
C584 C582 1.391 . S
C584 C585 1.400 . S
C585 C579 1.491 . S
C585 C584 1.400 . S
C585 C586 1.398 . S
C586 H574 0.950 . S
C586 C585 1.398 . S
C586 C587 1.391 . S
C587 H575 0.950 . S
C587 C583 1.393 . S
C587 C586 1.391 . S
H588 C596 0.950 . S
H589 C601 0.950 . S
H590 C598 0.950 . S
H591 C600 0.950 . S
H592 C602 0.950 . S
H593 C604 0.950 . S
H594 C606 0.950 . S
H595 C607 0.950 . S
C596 H588 0.950 . S
C596 C597 1.386 . S
C596 C598 1.391 . S
C597 C596 1.386 . S
C597 C601 1.393 . S
C598 H590 0.950 . S
C598 C596 1.391 . S
C598 C599 1.400 . S
C599 C598 1.400 . S
C599 C600 1.398 . S
C599 C605 1.491 . S
C600 H591 0.950 . S
C600 C599 1.398 . S
C600 C601 1.391 . S
C601 H589 0.950 . S
C601 C597 1.393 . S
C601 C600 1.391 . S
C602 H592 0.950 . S
C602 C603 1.386 . S
C602 C604 1.391 . S
C603 C602 1.386 . S
C603 C607 1.393 . S
C604 H593 0.950 . S
C604 C602 1.391 . S
C604 C605 1.400 . S
C605 C599 1.491 . S
C605 C604 1.400 . S
C605 C606 1.398 . S
C606 H594 0.950 . S
C606 C605 1.398 . S
C606 C607 1.391 . S
C607 H595 0.950 . S
C607 C603 1.393 . S
C607 C606 1.391 . S
H608 C616 0.950 . S
H609 C621 0.950 . S
H610 C618 0.950 . S
H611 C620 0.950 . S
H612 C622 0.950 . S
H613 C624 0.950 . S
H614 C626 0.950 . S
H615 C627 0.950 . S
C616 H608 0.950 . S
C616 C617 1.386 . S
C616 C618 1.391 . S
C617 C616 1.386 . S
C617 C621 1.393 . S
C618 H610 0.950 . S
C618 C616 1.391 . S
C618 C619 1.400 . S
C619 C618 1.400 . S
C619 C620 1.398 . S
C619 C625 1.491 . S
C620 H611 0.950 . S
C620 C619 1.398 . S
C620 C621 1.391 . S
C621 H609 0.950 . S
C621 C617 1.393 . S
C621 C620 1.391 . S
C622 H612 0.950 . S
C622 C623 1.386 . S
C622 C624 1.391 . S
C623 C622 1.386 . S
C623 C627 1.393 . S
C624 H613 0.950 . S
C624 C622 1.391 . S
C624 C625 1.400 . S
C625 C619 1.491 . S
C625 C624 1.400 . S
C625 C626 1.398 . S
C626 H614 0.950 . S
C626 C625 1.398 . S
C626 C627 1.391 . S
C627 H615 0.950 . S
C627 C623 1.393 . S
C627 C626 1.391 . S
H628 C636 0.950 . S
H629 C641 0.950 . S
H630 C638 0.950 . S
H631 C640 0.950 . S
H632 C642 0.950 . S
H633 C644 0.950 . S
H634 C646 0.950 . S
H635 C647 0.950 . S
C636 H628 0.950 . S
C636 C637 1.386 . S
C636 C638 1.391 . S
C637 C636 1.386 . S
C637 C641 1.393 . S
C638 H630 0.950 . S
C638 C636 1.391 . S
C638 C639 1.400 . S
C639 C638 1.400 . S
C639 C640 1.398 . S
C639 C645 1.491 . S
C640 H631 0.950 . S
C640 C639 1.398 . S
C640 C641 1.391 . S
C641 H629 0.950 . S
C641 C637 1.393 . S
C641 C640 1.391 . S
C642 H632 0.950 . S
C642 C643 1.386 . S
C642 C644 1.391 . S
C643 C642 1.386 . S
C643 C647 1.393 . S
C644 H633 0.950 . S
C644 C642 1.391 . S
C644 C645 1.400 . S
C645 C639 1.491 . S
C645 C644 1.400 . S
C645 C646 1.398 . S
C646 H634 0.950 . S
C646 C645 1.398 . S
C646 C647 1.391 . S
C647 H635 0.950 . S
C647 C643 1.393 . S
C647 C646 1.391 . S
H648 C656 0.950 . S
H649 C661 0.950 . S
H650 C658 0.950 . S
H651 C660 0.950 . S
H652 C662 0.950 . S
H653 C664 0.950 . S
H654 C666 0.950 . S
H655 C667 0.950 . S
C656 H648 0.950 . S
C656 C657 1.386 . S
C656 C658 1.391 . S
C657 C656 1.386 . S
C657 C661 1.393 . S
C658 H650 0.950 . S
C658 C656 1.391 . S
C658 C659 1.400 . S
C659 C658 1.400 . S
C659 C660 1.398 . S
C659 C665 1.491 . S
C660 H651 0.950 . S
C660 C659 1.398 . S
C660 C661 1.391 . S
C661 H649 0.950 . S
C661 C657 1.393 . S
C661 C660 1.391 . S
C662 H652 0.950 . S
C662 C663 1.386 . S
C662 C664 1.391 . S
C663 C662 1.386 . S
C663 C667 1.393 . S
C664 H653 0.950 . S
C664 C662 1.391 . S
C664 C665 1.400 . S
C665 C659 1.491 . S
C665 C664 1.400 . S
C665 C666 1.398 . S
C666 H654 0.950 . S
C666 C665 1.398 . S
C666 C667 1.391 . S
C667 H655 0.950 . S
C667 C663 1.393 . S
C667 C666 1.391 . S
H668 C676 0.950 . S
H669 C681 0.950 . S
H670 C678 0.950 . S
H671 C680 0.950 . S
H672 C682 0.950 . S
H673 C684 0.950 . S
H674 C686 0.950 . S
H675 C687 0.950 . S
C676 H668 0.950 . S
C676 C677 1.386 . S
C676 C678 1.391 . S
C677 C676 1.386 . S
C677 C681 1.393 . S
C678 H670 0.950 . S
C678 C676 1.391 . S
C678 C679 1.400 . S
C679 C678 1.400 . S
C679 C680 1.398 . S
C679 C685 1.491 . S
C680 H671 0.950 . S
C680 C679 1.398 . S
C680 C681 1.391 . S
C681 H669 0.950 . S
C681 C677 1.393 . S
C681 C680 1.391 . S
C682 H672 0.950 . S
C682 C683 1.386 . S
C682 C684 1.391 . S
C683 C682 1.386 . S
C683 C687 1.393 . S
C684 H673 0.950 . S
C684 C682 1.391 . S
C684 C685 1.400 . S
C685 C679 1.491 . S
C685 C684 1.400 . S
C685 C686 1.398 . S
C686 H674 0.950 . S
C686 C685 1.398 . S
C686 C687 1.391 . S
C687 H675 0.950 . S
C687 C683 1.393 . S
C687 C686 1.391 . S
H688 C696 0.950 . S
H689 C701 0.950 . S
H690 C698 0.950 . S
H691 C700 0.950 . S
H692 C702 0.950 . S
H693 C704 0.950 . S
H694 C706 0.950 . S
H695 C707 0.950 . S
C696 H688 0.950 . S
C696 C697 1.386 . S
C696 C698 1.391 . S
C697 C696 1.386 . S
C697 C701 1.393 . S
C698 H690 0.950 . S
C698 C696 1.391 . S
C698 C699 1.400 . S
C699 C698 1.400 . S
C699 C700 1.398 . S
C699 C705 1.491 . S
C700 H691 0.950 . S
C700 C699 1.398 . S
C700 C701 1.391 . S
C701 H689 0.950 . S
C701 C697 1.393 . S
C701 C700 1.391 . S
C702 H692 0.950 . S
C702 C703 1.386 . S
C702 C704 1.391 . S
C703 C702 1.386 . S
C703 C707 1.393 . S
C704 H693 0.950 . S
C704 C702 1.391 . S
C704 C705 1.400 . S
C705 C699 1.491 . S
C705 C704 1.400 . S
C705 C706 1.398 . S
C706 H694 0.950 . S
C706 C705 1.398 . S
C706 C707 1.391 . S
C707 H695 0.950 . S
C707 C703 1.393 . S
C707 C706 1.391 . S
H708 C716 0.950 . S
H709 C721 0.950 . S
H710 C718 0.950 . S
H711 C720 0.950 . S
H712 C722 0.950 . S
H713 C724 0.950 . S
H714 C726 0.950 . S
H715 C727 0.950 . S
C716 H708 0.950 . S
C716 C717 1.386 . S
C716 C718 1.391 . S
C717 C716 1.386 . S
C717 C721 1.393 . S
C718 H710 0.950 . S
C718 C716 1.391 . S
C718 C719 1.400 . S
C719 C718 1.400 . S
C719 C720 1.398 . S
C719 C725 1.491 . S
C720 H711 0.950 . S
C720 C719 1.398 . S
C720 C721 1.391 . S
C721 H709 0.950 . S
C721 C717 1.393 . S
C721 C720 1.391 . S
C722 H712 0.950 . S
C722 C723 1.386 . S
C722 C724 1.391 . S
C723 C722 1.386 . S
C723 C727 1.393 . S
C724 H713 0.950 . S
C724 C722 1.391 . S
C724 C725 1.400 . S
C725 C719 1.491 . S
C725 C724 1.400 . S
C725 C726 1.398 . S
C726 H714 0.950 . S
C726 C725 1.398 . S
C726 C727 1.391 . S
C727 H715 0.950 . S
C727 C723 1.393 . S
C727 C726 1.391 . S
H728 C736 0.950 . S
H729 C741 0.950 . S
H730 C738 0.950 . S
H731 C740 0.950 . S
H732 C742 0.950 . S
H733 C744 0.950 . S
H734 C746 0.950 . S
H735 C747 0.950 . S
C736 H728 0.950 . S
C736 C737 1.386 . S
C736 C738 1.391 . S
C737 C736 1.386 . S
C737 C741 1.393 . S
C738 H730 0.950 . S
C738 C736 1.391 . S
C738 C739 1.400 . S
C739 C738 1.400 . S
C739 C740 1.398 . S
C739 C745 1.491 . S
C740 H731 0.950 . S
C740 C739 1.398 . S
C740 C741 1.391 . S
C741 H729 0.950 . S
C741 C737 1.393 . S
C741 C740 1.391 . S
C742 H732 0.950 . S
C742 C743 1.386 . S
C742 C744 1.391 . S
C743 C742 1.386 . S
C743 C747 1.393 . S
C744 H733 0.950 . S
C744 C742 1.391 . S
C744 C745 1.400 . S
C745 C739 1.491 . S
C745 C744 1.400 . S
C745 C746 1.398 . S
C746 H734 0.950 . S
C746 C745 1.398 . S
C746 C747 1.391 . S
C747 H735 0.950 . S
C747 C743 1.393 . S
C747 C746 1.391 . S
H748 C756 0.950 . S
H749 C761 0.950 . S
H750 C758 0.950 . S
H751 C760 0.950 . S
H752 C762 0.950 . S
H753 C764 0.950 . S
H754 C766 0.950 . S
H755 C767 0.950 . S
C756 H748 0.950 . S
C756 C757 1.386 . S
C756 C758 1.391 . S
C757 C756 1.386 . S
C757 C761 1.393 . S
C758 H750 0.950 . S
C758 C756 1.391 . S
C758 C759 1.400 . S
C759 C758 1.400 . S
C759 C760 1.398 . S
C759 C765 1.491 . S
C760 H751 0.950 . S
C760 C759 1.398 . S
C760 C761 1.391 . S
C761 H749 0.950 . S
C761 C757 1.393 . S
C761 C760 1.391 . S
C762 H752 0.950 . S
C762 C763 1.386 . S
C762 C764 1.391 . S
C763 C762 1.386 . S
C763 C767 1.393 . S
C764 H753 0.950 . S
C764 C762 1.391 . S
C764 C765 1.400 . S
C765 C759 1.491 . S
C765 C764 1.400 . S
C765 C766 1.398 . S
C766 H754 0.950 . S
C766 C765 1.398 . S
C766 C767 1.391 . S
C767 H755 0.950 . S
C767 C763 1.393 . S
C767 C766 1.391 . S
H768 C776 0.950 . S
H769 C781 0.950 . S
H770 C778 0.950 . S
H771 C780 0.950 . S
H772 C782 0.950 . S
H773 C784 0.950 . S
H774 C786 0.950 . S
H775 C787 0.950 . S
C776 H768 0.950 . S
C776 C777 1.386 . S
C776 C778 1.391 . S
C777 C776 1.386 . S
C777 C781 1.393 . S
C778 H770 0.950 . S
C778 C776 1.391 . S
C778 C779 1.400 . S
C779 C778 1.400 . S
C779 C780 1.398 . S
C779 C785 1.491 . S
C780 H771 0.950 . S
C780 C779 1.398 . S
C780 C781 1.391 . S
C781 H769 0.950 . S
C781 C777 1.393 . S
C781 C780 1.391 . S
C782 H772 0.950 . S
C782 C783 1.386 . S
C782 C784 1.391 . S
C783 C782 1.386 . S
C783 C787 1.393 . S
C784 H773 0.950 . S
C784 C782 1.391 . S
C784 C785 1.400 . S
C785 C779 1.491 . S
C785 C784 1.400 . S
C785 C786 1.398 . S
C786 H774 0.950 . S
C786 C785 1.398 . S
C786 C787 1.391 . S
C787 H775 0.950 . S
C787 C783 1.393 . S
C787 C786 1.391 . S
H788 C796 0.950 . S
H789 C801 0.950 . S
H790 C798 0.950 . S
H791 C800 0.950 . S
H792 C802 0.950 . S
H793 C804 0.950 . S
H794 C806 0.950 . S
H795 C807 0.950 . S
C796 H788 0.950 . S
C796 C797 1.386 . S
C796 C798 1.391 . S
C797 C796 1.386 . S
C797 C801 1.393 . S
C798 H790 0.950 . S
C798 C796 1.391 . S
C798 C799 1.400 . S
C799 C798 1.400 . S
C799 C800 1.398 . S
C799 C805 1.491 . S
C800 H791 0.950 . S
C800 C799 1.398 . S
C800 C801 1.391 . S
C801 H789 0.950 . S
C801 C797 1.393 . S
C801 C800 1.391 . S
C802 H792 0.950 . S
C802 C803 1.386 . S
C802 C804 1.391 . S
C803 C802 1.386 . S
C803 C807 1.393 . S
C804 H793 0.950 . S
C804 C802 1.391 . S
C804 C805 1.400 . S
C805 C799 1.491 . S
C805 C804 1.400 . S
C805 C806 1.398 . S
C806 H794 0.950 . S
C806 C805 1.398 . S
C806 C807 1.391 . S
C807 H795 0.950 . S
C807 C803 1.393 . S
C807 C806 1.391 . S
H808 C816 0.950 . S
H809 C821 0.950 . S
H810 C818 0.950 . S
H811 C820 0.950 . S
H812 C822 0.950 . S
H813 C824 0.950 . S
H814 C826 0.950 . S
H815 C827 0.950 . S
C816 H808 0.950 . S
C816 C817 1.386 . S
C816 C818 1.391 . S
C817 C816 1.386 . S
C817 C821 1.393 . S
C818 H810 0.950 . S
C818 C816 1.391 . S
C818 C819 1.400 . S
C819 C818 1.400 . S
C819 C820 1.398 . S
C819 C825 1.491 . S
C820 H811 0.950 . S
C820 C819 1.398 . S
C820 C821 1.391 . S
C821 H809 0.950 . S
C821 C817 1.393 . S
C821 C820 1.391 . S
C822 H812 0.950 . S
C822 C823 1.386 . S
C822 C824 1.391 . S
C823 C822 1.386 . S
C823 C827 1.393 . S
C824 H813 0.950 . S
C824 C822 1.391 . S
C824 C825 1.400 . S
C825 C819 1.491 . S
C825 C824 1.400 . S
C825 C826 1.398 . S
C826 H814 0.950 . S
C826 C825 1.398 . S
C826 C827 1.391 . S
C827 H815 0.950 . S
C827 C823 1.393 . S
C827 C826 1.391 . S
H828 C836 0.950 . S
H829 C841 0.950 . S
H830 C838 0.950 . S
H831 C840 0.950 . S
H832 C842 0.950 . S
H833 C844 0.950 . S
H834 C846 0.950 . S
H835 C847 0.950 . S
C836 H828 0.950 . S
C836 C837 1.386 . S
C836 C838 1.391 . S
C837 C836 1.386 . S
C837 C841 1.393 . S
C838 H830 0.950 . S
C838 C836 1.391 . S
C838 C839 1.400 . S
C839 C838 1.400 . S
C839 C840 1.398 . S
C839 C845 1.491 . S
C840 H831 0.950 . S
C840 C839 1.398 . S
C840 C841 1.391 . S
C841 H829 0.950 . S
C841 C837 1.393 . S
C841 C840 1.391 . S
C842 H832 0.950 . S
C842 C843 1.386 . S
C842 C844 1.391 1_554 S
C843 C842 1.386 . S
C843 C847 1.393 1_554 S
C844 H833 0.950 . S
C844 C842 1.391 1_556 S
C844 C845 1.400 . S
C845 C839 1.491 . S
C845 C844 1.400 . S
C845 C846 1.398 . S
C846 H834 0.950 . S
C846 C845 1.398 . S
C846 C847 1.391 . S
C847 H835 0.950 . S
C847 C843 1.393 1_556 S
C847 C846 1.391 . S
H848 C856 0.950 1_545 S
H849 C861 0.950 . S
H850 C858 0.950 . S
H851 C860 0.950 . S
H852 C862 0.950 . S
H853 C864 0.950 . S
H854 C866 0.950 . S
H855 C867 0.950 . S
C856 H848 0.950 1_565 S
C856 C857 1.386 . S
C856 C858 1.391 . S
C857 C856 1.386 . S
C857 C861 1.393 . S
C858 H850 0.950 . S
C858 C856 1.391 . S
C858 C859 1.400 . S
C859 C858 1.400 . S
C859 C860 1.398 . S
C859 C865 1.491 . S
C860 H851 0.950 . S
C860 C859 1.398 . S
C860 C861 1.391 . S
C861 H849 0.950 . S
C861 C857 1.393 . S
C861 C860 1.391 . S
C862 H852 0.950 . S
C862 C863 1.386 . S
C862 C864 1.391 . S
C863 C862 1.386 . S
C863 C867 1.393 . S
C864 H853 0.950 . S
C864 C862 1.391 . S
C864 C865 1.400 . S
C865 C859 1.491 . S
C865 C864 1.400 . S
C865 C866 1.398 . S
C866 H854 0.950 . S
C866 C865 1.398 . S
C866 C867 1.391 . S
C867 H855 0.950 . S
C867 C863 1.393 . S
C867 C866 1.391 . S
H868 C876 0.950 . S
H869 C881 0.950 . S
H870 C878 0.950 . S
H871 C880 0.950 . S
H872 C882 0.950 . S
H873 C884 0.950 . S
H874 C886 0.950 . S
H875 C887 0.950 . S
C876 H868 0.950 . S
C876 C877 1.386 . S
C876 C878 1.391 . S
C877 C876 1.386 . S
C877 C881 1.393 . S
C878 H870 0.950 . S
C878 C876 1.391 . S
C878 C879 1.400 . S
C879 C878 1.400 . S
C879 C880 1.398 . S
C879 C885 1.491 . S
C880 H871 0.950 . S
C880 C879 1.398 . S
C880 C881 1.391 . S
C881 H869 0.950 . S
C881 C877 1.393 . S
C881 C880 1.391 . S
C882 H872 0.950 . S
C882 C883 1.386 . S
C882 C884 1.391 . S
C883 C882 1.386 . S
C883 C887 1.393 . S
C884 H873 0.950 . S
C884 C882 1.391 . S
C884 C885 1.400 . S
C885 C879 1.491 . S
C885 C884 1.400 . S
C885 C886 1.398 . S
C886 H874 0.950 . S
C886 C885 1.398 . S
C886 C887 1.391 . S
C887 H875 0.950 . S
C887 C883 1.393 . S
C887 C886 1.391 . S
H888 C896 0.950 . S
H889 C901 0.950 . S
H890 C898 0.950 . S
H891 C900 0.950 . S
H892 C902 0.950 . S
H893 C904 0.950 . S
H894 C906 0.950 . S
H895 C907 0.950 . S
C896 H888 0.950 . S
C896 C897 1.386 . S
C896 C898 1.391 . S
C897 C896 1.386 . S
C897 C901 1.393 . S
C898 H890 0.950 . S
C898 C896 1.391 . S
C898 C899 1.400 . S
C899 C898 1.400 . S
C899 C900 1.398 . S
C899 C905 1.491 . S
C900 H891 0.950 . S
C900 C899 1.398 . S
C900 C901 1.391 . S
C901 H889 0.950 . S
C901 C897 1.393 . S
C901 C900 1.391 . S
C902 H892 0.950 . S
C902 C903 1.386 . S
C902 C904 1.391 . S
C903 C902 1.386 . S
C903 C907 1.393 . S
C904 H893 0.950 . S
C904 C902 1.391 . S
C904 C905 1.400 . S
C905 C899 1.491 . S
C905 C904 1.400 . S
C905 C906 1.398 . S
C906 H894 0.950 . S
C906 C905 1.398 . S
C906 C907 1.391 . S
C907 H895 0.950 . S
C907 C903 1.393 . S
C907 C906 1.391 . S
H908 C916 0.950 . S
H909 C921 0.950 . S
H910 C918 0.950 . S
H911 C920 0.950 . S
H912 C922 0.950 . S
H913 C924 0.950 . S
H914 C926 0.950 . S
H915 C927 0.950 . S
C916 H908 0.950 . S
C916 C917 1.386 . S
C916 C918 1.391 . S
C917 C916 1.386 . S
C917 C921 1.393 . S
C918 H910 0.950 . S
C918 C916 1.391 . S
C918 C919 1.400 . S
C919 C918 1.400 . S
C919 C920 1.398 . S
C919 C925 1.491 . S
C920 H911 0.950 . S
C920 C919 1.398 . S
C920 C921 1.391 . S
C921 H909 0.950 . S
C921 C917 1.393 . S
C921 C920 1.391 . S
C922 H912 0.950 . S
C922 C923 1.386 . S
C922 C924 1.391 . S
C923 C922 1.386 . S
C923 C927 1.393 . S
C924 H913 0.950 . S
C924 C922 1.391 . S
C924 C925 1.400 . S
C925 C919 1.491 . S
C925 C924 1.400 . S
C925 C926 1.398 . S
C926 H914 0.950 . S
C926 C925 1.398 . S
C926 C927 1.391 . S
C927 H915 0.950 . S
C927 C923 1.393 . S
C927 C926 1.391 . S
H928 C936 0.950 . S
H929 C941 0.950 . S
H930 C938 0.950 . S
H931 C940 0.950 . S
H932 C942 0.950 . S
H933 C944 0.950 . S
H934 C946 0.950 . S
H935 C947 0.950 . S
C936 H928 0.950 . S
C936 C937 1.386 . S
C936 C938 1.391 . S
C937 C936 1.386 . S
C937 C941 1.393 . S
C938 H930 0.950 . S
C938 C936 1.391 . S
C938 C939 1.400 . S
C939 C938 1.400 . S
C939 C940 1.398 . S
C939 C945 1.491 . S
C940 H931 0.950 . S
C940 C939 1.398 . S
C940 C941 1.391 . S
C941 H929 0.950 . S
C941 C937 1.393 . S
C941 C940 1.391 . S
C942 H932 0.950 . S
C942 C943 1.386 . S
C942 C944 1.391 . S
C943 C942 1.386 . S
C943 C947 1.393 . S
C944 H933 0.950 . S
C944 C942 1.391 . S
C944 C945 1.400 . S
C945 C939 1.491 . S
C945 C944 1.400 . S
C945 C946 1.398 . S
C946 H934 0.950 . S
C946 C945 1.398 . S
C946 C947 1.391 . S
C947 H935 0.950 . S
C947 C943 1.393 . S
C947 C946 1.391 . S
H948 C956 0.950 . S
H949 C961 0.950 . S
H950 C958 0.950 . S
H951 C960 0.950 . S
H952 C962 0.950 . S
H953 C964 0.950 . S
H954 C966 0.950 . S
H955 C967 0.950 . S
C956 H948 0.950 . S
C956 C957 1.386 . S
C956 C958 1.391 . S
C957 C956 1.386 . S
C957 C961 1.393 . S
C958 H950 0.950 . S
C958 C956 1.391 . S
C958 C959 1.400 . S
C959 C958 1.400 . S
C959 C960 1.398 . S
C959 C965 1.491 . S
C960 H951 0.950 . S
C960 C959 1.398 . S
C960 C961 1.391 . S
C961 H949 0.950 . S
C961 C957 1.393 . S
C961 C960 1.391 . S
C962 H952 0.950 . S
C962 C963 1.386 . S
C962 C964 1.391 . S
C963 C962 1.386 . S
C963 C967 1.393 . S
C964 H953 0.950 . S
C964 C962 1.391 . S
C964 C965 1.400 . S
C965 C959 1.491 . S
C965 C964 1.400 . S
C965 C966 1.398 . S
C966 H954 0.950 . S
C966 C965 1.398 . S
C966 C967 1.391 . S
C967 H955 0.950 . S
C967 C963 1.393 . S
C967 C966 1.391 . S
H968 C976 0.950 . S
H969 C981 0.950 . S
H970 C978 0.950 . S
H971 C980 0.950 . S
H972 C982 0.950 . S
H973 C984 0.950 . S
H974 C986 0.950 . S
H975 C987 0.950 . S
C976 H968 0.950 . S
C976 C977 1.386 . S
C976 C978 1.391 . S
C977 C976 1.386 . S
C977 C981 1.393 . S
C978 H970 0.950 . S
C978 C976 1.391 . S
C978 C979 1.400 . S
C979 C978 1.400 . S
C979 C980 1.398 . S
C979 C985 1.491 1_554 S
C980 H971 0.950 . S
C980 C979 1.398 . S
C980 C981 1.391 . S
C981 H969 0.950 . S
C981 C977 1.393 . S
C981 C980 1.391 . S
C982 H972 0.950 . S
C982 C983 1.386 . S
C982 C984 1.391 . S
C983 C982 1.386 . S
C983 C987 1.393 . S
C984 H973 0.950 . S
C984 C982 1.391 . S
C984 C985 1.400 . S
C985 C979 1.491 1_556 S
C985 C984 1.400 . S
C985 C986 1.398 . S
C986 H974 0.950 . S
C986 C985 1.398 . S
C986 C987 1.391 . S
C987 H975 0.950 . S
C987 C983 1.393 . S
C987 C986 1.391 . S
H988 C996 0.950 . S
H989 C1001 0.950 . S
H990 C998 0.950 . S
H991 C1000 0.950 . S
H992 C1002 0.950 . S
H993 C1004 0.950 . S
H994 C1006 0.950 . S
H995 C1007 0.950 . S
C996 H988 0.950 . S
C996 C997 1.386 . S
C996 C998 1.391 . S
C997 C996 1.386 . S
C997 C1001 1.393 . S
C998 H990 0.950 . S
C998 C996 1.391 . S
C998 C999 1.400 . S
C999 C998 1.400 . S
C999 C1000 1.398 . S
C999 C1005 1.491 . S
C1000 H991 0.950 . S
C1000 C999 1.398 . S
C1000 C1001 1.391 . S
C1001 H989 0.950 . S
C1001 C997 1.393 . S
C1001 C1000 1.391 . S
C1002 H992 0.950 . S
C1002 C1003 1.386 . S
C1002 C1004 1.391 . S
C1003 C1002 1.386 . S
C1003 C1007 1.393 . S
C1004 H993 0.950 . S
C1004 C1002 1.391 . S
C1004 C1005 1.400 . S
C1005 C999 1.491 . S
C1005 C1004 1.400 . S
C1005 C1006 1.398 . S
C1006 H994 0.950 . S
C1006 C1005 1.398 . S
C1006 C1007 1.391 . S
C1007 H995 0.950 . S
C1007 C1003 1.393 . S
C1007 C1006 1.391 . S
C543 C514 1.474 . S
C537 C51 1.441 . S
C557 C125 1.413 . S
C563 C455 1.421 . S
C577 C217 2.666 . S
C583 C458 2.704 . S
C597 C291 1.540 . S
C603 C472 1.545 . S
C623 C497 1.024 . S
C617 C347 1.007 . S
C637 C421 0.915 . S
C643 C500 0.916 . S
C657 C143 2.223 . S
C663 C469 2.226 . S
C677 C199 1.555 . S
C683 C483 1.586 . S
C697 C273 0.511 . S
C703 C486 0.508 . S
C723 C511 1.753 . S
C717 C365 1.706 . S
C743 C525 1.788 . S
C737 C439 1.788 . S
C763 C444 2.547 . S
C757 C69 2.491 . S
C777 C63 1.405 . S
C783 C467 1.516 . S
C797 C137 1.589 . S
C803 C481 1.657 . S
C823 C491 1.385 . S
C817 C187 1.329 . S
C837 C261 1.510 . S
C843 C509 1.535 . S
C863 C523 1.626 . S
C857 C359 1.499 . S
C883 C449 1.221 . S
C877 C433 1.145 . S
C903 C519 1.695 . S
C897 C113 1.666 . S
C917 C211 1.351 . S
C923 C453 1.424 . S
C943 C463 1.661 . S
C937 C285 1.563 . S
C957 C335 1.420 . S
C963 C477 1.499 . S
C977 C409 1.376 . S
C983 C495 1.387 . S
C997 C39 1.630 . S
C1003 C505 1.664 . S
