# Generated by pormake.
# Topology rtl, (3,6)-cn, num edge types: 1
# Building blocks:
#     Node 0, Type 0, BuildingBlock: ESEHIV_clean_linker_0, # of connection points: 3
#     Node 1, Type 0, BuildingBlock: ESEHIV_clean_linker_0, # of connection points: 3
#     Node 2, Type 0, BuildingBlock: ESEHIV_clean_linker_0, # of connection points: 3
#     Node 3, Type 0, BuildingBlock: ESEHIV_clean_linker_0, # of connection points: 3
#     Node 4, Type 1, BuildingBlock: KUMBOL_clean_sbu_1, # of connection points: 6
#     Node 5, Type 1, BuildingBlock: KUMBOL_clean_sbu_1, # of connection points: 6
#     Edge 6, Type (0, 1), BuildingBlock: MIFKUJ_clean_linker_0, # of connection points: 2
#     Edge 7, Type (0, 1), BuildingBlock: MIFKUJ_clean_linker_0, # of connection points: 2
#     Edge 8, Type (0, 1), BuildingBlock: MIFKUJ_clean_linker_0, # of connection points: 2
#     Edge 9, Type (0, 1), BuildingBlock: MIFKUJ_clean_linker_0, # of connection points: 2
#     Edge 10, Type (0, 1), BuildingBlock: MIFKUJ_clean_linker_0, # of connection points: 2
#     Edge 11, Type (0, 1), BuildingBlock: MIFKUJ_clean_linker_0, # of connection points: 2
#     Edge 12, Type (0, 1), BuildingBlock: MIFKUJ_clean_linker_0, # of connection points: 2
#     Edge 13, Type (0, 1), BuildingBlock: MIFKUJ_clean_linker_0, # of connection points: 2
#     Edge 14, Type (0, 1), BuildingBlock: MIFKUJ_clean_linker_0, # of connection points: 2
#     Edge 15, Type (0, 1), BuildingBlock: MIFKUJ_clean_linker_0, # of connection points: 2
#     Edge 16, Type (0, 1), BuildingBlock: MIFKUJ_clean_linker_0, # of connection points: 2
#     Edge 17, Type (0, 1), BuildingBlock: MIFKUJ_clean_linker_0, # of connection points: 2
# Relax obj value: 0.017
# Max RMSD: 0.099
# Mean RMSD: 0.059
data_MOF--net-rtl--node1-KUMBOL_clean_sbu_1--node2-ESEHIV_clean_linker_0--edge1-MIFKUJ_clean_linker_0
_symmetry_space_group_name_H-M    P1
_symmetry_Int_Tables_number       1
_symmetry_cell_setting            triclinic
loop_
_symmetry_equiv_pos_as_xyz
'x, y, z'
_cell_length_a     40.297268
_cell_length_b     40.974473
_cell_length_c     35.602396
_cell_angle_alpha  80.210131
_cell_angle_beta   99.463481
_cell_angle_gamma 90.427338
loop_
_atom_site_label
_atom_site_type_symbol
_atom_site_fract_x
_atom_site_fract_y
_atom_site_fract_z
_atom_type_partial_charge
H0 H 0.19022 0.90689 0.01129 0.0
H1 H 0.25794 0.83196 0.08342 0.0
H2 H 0.2432 0.84044 0.95967 0.0
C3 C 0.20851 0.88693 0.0144 0.0
C4 C 0.21523 0.87552 0.98133 0.0
C5 C 0.22355 0.87106 0.05151 0.0
C6 C 0.24645 0.84446 0.05498 0.0
C7 C 0.2537 0.8332 0.02199 0.0
C8 C 0.2379 0.84892 0.98536 0.0
H9 H 0.61754 0.66642 0.59847 0.0
H10 H 0.67812 0.73892 0.54036 0.0
H11 H 0.68383 0.72757 0.66335 0.0
C12 C 0.63573 0.68599 0.59935 0.0
C13 C 0.6487 0.69558 0.63497 0.0
C14 C 0.64641 0.70123 0.56501 0.0
C15 C 0.66988 0.72668 0.56662 0.0
C16 C 0.68361 0.73606 0.60188 0.0
C17 C 0.67302 0.72047 0.63604 0.0
H18 H 0.81896 0.09315 0.0513 0.0
H19 H 0.76543 0.15917 0.10282 0.0
H20 H 0.74671 0.16409 0.97977 0.0
C21 C 0.80025 0.11264 0.0483 0.0
C22 C 0.78359 0.12698 0.01128 0.0
C23 C 0.79361 0.12376 0.08157 0.0
C24 C 0.77017 0.14984 0.07746 0.0
C25 C 0.75336 0.16466 0.04087 0.0
C26 C 0.75973 0.1527 0.00799 0.0
H27 H 0.39673 0.32937 0.47009 0.0
H28 H 0.32525 0.26876 0.52478 0.0
H29 H 0.32471 0.27424 0.4031 0.0
C30 C 0.3761 0.31232 0.46801 0.0
C31 C 0.36253 0.30363 0.43203 0.0
C32 C 0.36236 0.30032 0.50127 0.0
C33 C 0.33575 0.27821 0.49899 0.0
C34 C 0.32253 0.26818 0.46388 0.0
C35 C 0.33601 0.2809 0.43046 0.0
C36 C 0.9527 0.10315 0.50203 0.0
C37 C 0.89568 0.09704 0.46973 0.0
C38 C 0.92539 0.08332 0.49364 0.0
C39 C 0.89483 0.13039 0.45193 0.0
C40 C 0.95103 0.13723 0.48641 0.0
C41 C 0.92254 0.15043 0.46009 0.0
N42 N 0.97885 0.09008 0.52948 0.0
C43 C 1.00177 0.11028 0.54594 0.0
C44 C 0.97684 0.15746 0.5 0.0
C45 C 1.0019 0.14405 0.53061 0.0
Gd46 Gd 0.02987 0.96492 0.51244 0.0
Gd47 Gd 0.97747 0.03292 0.55177 0.0
N48 N 0.92642 0.05165 0.51277 0.0
C49 C 0.86697 0.07754 0.46679 0.0
C50 C 0.89775 0.03378 0.51325 0.0
C51 C 0.86777 0.04606 0.48947 0.0
H52 H 0.89833 0.01001 0.53183 0.0
H53 H 0.8453 0.0314 0.48891 0.0
H54 H 0.10481 0.00333 0.53068 0.0
H55 H 0.02007 0.10016 0.57085 0.0
H56 H 0.15734 0.99408 0.57696 0.0
H57 H 0.84363 0.0872 0.44875 0.0
H58 H 0.87218 0.14135 0.43357 0.0
H59 H 0.98817 0.89413 0.52474 0.0
H60 H 0.97651 0.18376 0.48875 0.0
H61 H 0.0209 0.15978 0.54288 0.0
H62 H 0.14617 0.88618 0.65011 0.0
H63 H 0.92089 0.17653 0.44771 0.0
H64 H 0.046 0.82656 0.61655 0.0
H65 H 0.99485 0.83963 0.56727 0.0
N66 N 0.03433 0.91231 0.5508 0.0
C67 C 0.06349 0.90501 0.57605 0.0
C68 C 0.01033 0.88898 0.54657 0.0
C69 C 0.04315 0.85059 0.59803 0.0
C70 C 0.0142 0.85791 0.57034 0.0
C71 C 0.06839 0.87413 0.60096 0.0
H72 H 0.10231 0.84421 0.64737 0.0
N73 N 0.08317 0.95795 0.55227 0.0
C74 C 0.08849 0.92855 0.57705 0.0
C75 C 0.1434 0.94604 0.604 0.0
C76 C 0.11868 0.92192 0.60373 0.0
C77 C 0.10786 0.98092 0.55144 0.0
C78 C 0.13808 0.97552 0.57749 0.0
O79 O 0.95807 0.01782 0.49428 0.0
O80 O 0.00597 0.00935 0.47038 0.0
O81 O 0.0663 0.95251 0.47777 0.0
O82 O 0.01593 0.93359 0.46931 0.0
O83 O 0.95945 0.9799 0.55991 0.0
O84 O 0.97454 0.95429 0.51133 0.0
O85 O 0.02562 0.96393 0.57552 0.0
O86 O 0.02961 0.01802 0.58247 0.0
O87 O 0.9709 0.01342 0.61104 0.0
O88 O 0.95119 0.06188 0.5834 0.0
O89 O 0.04824 0.0172 0.49877 0.0
O90 O 0.02901 0.05076 0.53824 0.0
C91 C 0.97473 0.02013 0.46536 0.0
C92 C 0.95613 0.95661 0.53821 0.0
C93 C 0.04129 0.94899 0.41372 0.0
C94 C 0.06452 0.95384 0.35374 0.0
C95 C 0.01054 0.97977 0.35383 0.0
C96 C 0.01301 0.96788 0.39329 0.0
C97 C 0.03619 0.97306 0.33421 0.0
C98 C 0.06693 0.94165 0.39364 0.0
C99 C 0.04418 0.93763 0.4559 0.0
C100 C 0.12325 0.89155 0.62927 0.0
C101 C 0.09825 0.86767 0.62777 0.0
H102 H 0.16685 0.94196 0.62416 0.0
C103 C 0.03781 0.98683 0.59542 0.0
C104 C 0.04919 0.04444 0.51421 0.0
C105 C 0.96679 0.05403 0.65019 0.0
C106 C 0.95247 0.07085 0.7078 0.0
C107 C 0.00462 0.0886 0.68575 0.0
C108 C 0.99711 0.07105 0.65514 0.0
C109 C 0.98212 0.08894 0.71167 0.0
C110 C 0.94474 0.05355 0.67689 0.0
C111 C 0.95579 0.04028 0.615 0.0
H112 H 0.98856 0.9941 0.33831 0.0
H113 H 0.99271 0.97344 0.40782 0.0
H114 H 0.03354 0.98227 0.30345 0.0
H115 H 0.08872 0.92685 0.409 0.0
H116 H 0.02771 0.10223 0.68916 0.0
H117 H 0.0144 0.07151 0.63479 0.0
H118 H 0.98791 0.10307 0.73494 0.0
H119 H 0.92121 0.04054 0.67305 0.0
C120 C 0.60474 0.55782 0.04214 0.0
C121 C 0.59068 0.61645 0.02888 0.0
C122 C 0.5819 0.58336 0.04069 0.0
C123 C 0.6224 0.6233 0.01838 0.0
C124 C 0.63667 0.56459 0.03161 0.0
C125 C 0.64523 0.59747 0.01933 0.0
N126 N 0.59593 0.5263 0.05453 0.0
C127 C 0.61836 0.50065 0.05916 0.0
C128 C 0.65933 0.53816 0.0347 0.0
C129 C 0.65021 0.50604 0.04887 0.0
Gd130 Gd 0.47144 0.48295 0.99816 0.0
Gd131 Gd 0.54308 0.5193 0.07336 0.0
N132 N 0.55196 0.57601 0.0528 0.0
C133 C 0.56783 0.64182 0.02937 0.0
C134 C 0.53086 0.60088 0.05618 0.0
C135 C 0.53793 0.634 0.04346 0.0
H136 H 0.5092 0.59561 0.07 0.0
H137 H 0.52073 0.65352 0.04557 0.0
H138 H 0.48666 0.40196 0.0161 0.0
H139 H 0.61192 0.47613 0.07136 0.0
H140 H 0.46068 0.35063 0.04479 0.0
H141 H 0.57357 0.66754 0.02024 0.0
H142 H 0.62987 0.64861 0.0107 0.0
H143 H 0.40834 0.54082 0.97592 0.0
H144 H 0.68413 0.54235 0.02703 0.0
H145 H 0.66782 0.48551 0.05235 0.0
H146 H 0.3594 0.38949 0.07932 0.0
H147 H 0.6697 0.60323 0.01138 0.0
H148 H 0.32802 0.50368 0.03466 0.0
H149 H 0.35325 0.5492 0.99416 0.0
N150 N 0.41694 0.49288 0.01041 0.0
C151 C 0.40239 0.46673 0.02998 0.0
C152 C 0.3988 0.52155 0.99571 0.0
C153 C 0.35292 0.50035 0.028 0.0
C154 C 0.36707 0.52611 0.00523 0.0
C155 C 0.37011 0.46983 0.03963 0.0
H156 H 0.33073 0.44403 0.06676 0.0
N157 N 0.44886 0.43366 0.02607 0.0
C158 C 0.41849 0.43602 0.03726 0.0
C159 C 0.41857 0.37663 0.05738 0.0
C160 C 0.40284 0.40761 0.05406 0.0
C161 C 0.4634 0.40346 0.02708 0.0
C162 C 0.44871 0.3745 0.04318 0.0
O163 O 0.55073 0.52142 0.01103 0.0
O164 O 0.4972 0.52999 0.97659 0.0
O165 O 0.4838 0.45892 0.95221 0.0
O166 O 0.43435 0.48058 0.94705 0.0
O167 O 0.48996 0.54058 0.06485 0.0
O168 O 0.4671 0.53775 1.00157 0.0
O169 O 0.48352 0.45716 0.06077 0.0
O170 O 0.49382 0.50183 0.09042 0.0
O171 O 0.56005 0.54402 0.12255 0.0
O172 O 0.56888 0.49061 0.12724 0.0
O173 O 0.52435 0.46242 0.00573 0.0
O174 O 0.55017 0.46525 0.06827 0.0
C175 C 0.52984 0.53452 0.97975 0.0
C176 C 0.4691 0.55168 0.03266 0.0
C177 C 0.4552 0.4783 0.88948 0.0
C178 C 0.44978 0.46822 0.8234 0.0
C179 C 0.46101 0.52355 0.83753 0.0
C180 C 0.46076 0.51187 0.87671 0.0
C181 C 0.45536 0.50187 0.81088 0.0
C182 C 0.44989 0.45646 0.86278 0.0
C183 C 0.45469 0.46561 0.93042 0.0
C184 C 0.37162 0.41094 0.06581 0.0
C185 C 0.35533 0.44202 0.05873 0.0
H186 H 0.40729 0.35419 0.06998 0.0
C187 C 0.48451 0.47114 0.09142 0.0
C188 C 0.54546 0.45071 0.03741 0.0
C189 C 0.58882 0.51483 0.18472 0.0
C190 C 0.60145 0.53888 0.24366 0.0
C191 C 0.62526 0.48514 0.24116 0.0
C192 C 0.60895 0.48701 0.20313 0.0
C193 C 0.6217 0.51094 0.26128 0.0
C194 C 0.58484 0.54071 0.20531 0.0
C195 C 0.57216 0.51652 0.14424 0.0
H196 H 0.4653 0.54949 0.82777 0.0
H197 H 0.46461 0.52893 0.89701 0.0
H198 H 0.4552 0.51131 0.78051 0.0
H199 H 0.44538 0.4305 0.87251 0.0
H200 H 0.64077 0.46363 0.2551 0.0
H201 H 0.61231 0.46676 0.18803 0.0
H202 H 0.6345 0.50892 0.29086 0.0
H203 H 0.5692 0.56225 0.19159 0.0
H204 H 0.31612 0.21002 0.43519 0.0
H205 H 0.27055 0.17009 0.4401 0.0
H206 H 0.21833 0.23598 0.49429 0.0
H207 H 0.26401 0.27524 0.49031 0.0
H208 H 0.22132 0.17515 0.53418 0.0
H209 H 0.19439 0.22314 0.39621 0.0
H210 H 0.20818 0.23573 0.33032 0.0
H211 H 0.22565 0.13221 0.33183 0.0
H212 H 0.21233 0.11908 0.39787 0.0
H213 H 0.06618 0.10212 0.54258 0.0
H214 H 0.11015 0.14016 0.52768 0.0
H215 H 0.14208 0.0761 0.45526 0.0
H216 H 0.0946 0.04069 0.46533 0.0
H217 H 0.15369 0.13169 0.42474 0.0
H218 H 0.1811 0.08021 0.55686 0.0
H219 H 0.17168 0.06233 0.62394 0.0
H220 H 0.16109 0.16385 0.63692 0.0
H221 H 0.16993 0.18232 0.56972 0.0
C222 C 0.29462 0.21605 0.44761 0.0
C223 C 0.29359 0.24559 0.46253 0.0
C224 C 0.2686 0.19328 0.4504 0.0
C225 C 0.24086 0.20005 0.46747 0.0
C226 C 0.23949 0.23007 0.48123 0.0
C227 C 0.26556 0.25252 0.47887 0.0
C228 C 0.21376 0.17563 0.47282 0.0
C229 C 0.20628 0.16589 0.51019 0.0
C230 C 0.19523 0.16216 0.44193 0.0
C231 C 0.20262 0.17018 0.40203 0.0
C232 C 0.20132 0.20311 0.38253 0.0
C233 C 0.20904 0.21033 0.34516 0.0
C234 C 0.21786 0.1848 0.32693 0.0
C235 C 0.21885 0.15197 0.34597 0.0
C236 C 0.21118 0.14463 0.38334 0.0
C237 C 0.08147 0.09663 0.52234 0.0
C238 C 0.07608 0.0683 0.505 0.0
C239 C 0.10757 0.11807 0.51462 0.0
C240 C 0.13057 0.11061 0.49141 0.0
C241 C 0.12501 0.0826 0.47348 0.0
C242 C 0.09782 0.06209 0.47962 0.0
C243 C 0.16044 0.13176 0.48615 0.0
C244 C 0.16868 0.14072 0.44891 0.0
C245 C 0.18049 0.14367 0.51744 0.0
C246 C 0.17596 0.13263 0.55817 0.0
C247 C 0.17667 0.09871 0.57399 0.0
C248 C 0.1714 0.08847 0.61203 0.0
C249 C 0.16574 0.11193 0.63466 0.0
C250 C 0.16546 0.1457 0.61935 0.0
C251 C 0.17063 0.15607 0.58131 0.0
H252 H 0.16161 0.10396 0.66407 0.0
H253 H 0.22387 0.19045 0.29802 0.0
H254 H 0.31531 0.81959 0.0682 0.0
H255 H 0.35331 0.77222 0.07152 0.0
H256 H 0.28169 0.73438 0.98622 0.0
H257 H 0.24353 0.78101 0.98341 0.0
H258 H 0.30581 0.68588 0.04456 0.0
H259 H 0.35123 0.77475 0.96204 0.0
H260 H 0.37458 0.83012 0.94528 0.0
H261 H 0.45684 0.8063 0.03933 0.0
H262 H 0.4337 0.75093 0.057 0.0
H263 H 0.43936 0.59601 0.96969 0.0
H264 H 0.40357 0.64435 0.96941 0.0
H265 H 0.41459 0.62187 0.09361 0.0
H266 H 0.44947 0.57317 0.09413 0.0
H267 H 0.42208 0.70051 0.01619 0.0
H268 H 0.3549 0.62151 0.10922 0.0
H269 H 0.33028 0.56619 0.12274 0.0
H270 H 0.29007 0.57244 1.00221 0.0
H271 H 0.31515 0.6275 0.98804 0.0
C272 C 0.30762 0.80098 0.05044 0.0
C273 C 0.27654 0.80414 0.02535 0.0
C274 C 0.32944 0.77411 0.05211 0.0
C275 C 0.32049 0.74993 0.0288 0.0
C276 C 0.2892 0.75277 0.00436 0.0
C277 C 0.26751 0.77957 1.00259 0.0
C278 C 0.34337 0.72141 0.02981 0.0
C279 C 0.33123 0.68927 0.03843 0.0
C280 C 0.37659 0.72558 0.02174 0.0
C281 C 0.39053 0.75883 0.01109 0.0
C282 C 0.37414 0.78142 0.97935 0.0
C283 C 0.38737 0.81279 0.96965 0.0
C284 C 0.41712 0.82176 0.99129 0.0
C285 C 0.43376 0.79934 0.02263 0.0
C286 C 0.42061 0.76796 0.03248 0.0
C287 C 0.43382 0.60118 0.99688 0.0
C288 C 0.447 0.58063 0.03191 0.0
C289 C 0.41361 0.62889 0.99669 0.0
C290 C 0.40628 0.63646 0.03147 0.0
C291 C 0.41961 0.61618 0.06643 0.0
C292 C 0.43964 0.58846 0.06666 0.0
C293 C 0.38444 0.66541 0.03132 0.0
C294 C 0.39674 0.69745 0.02269 0.0
C295 C 0.35141 0.66137 0.03937 0.0
C296 C 0.33698 0.62826 0.04762 0.0
C297 C 0.34097 0.61089 0.08566 0.0
C298 C 0.32699 0.57964 0.09341 0.0
C299 C 0.3086 0.56583 0.06335 0.0
C300 C 0.30431 0.58318 0.02546 0.0
C301 C 0.31855 0.61429 0.01752 0.0
H302 H 0.29763 0.54171 0.06944 0.0
H303 H 0.42733 0.84605 0.98373 0.0
H304 H 0.74904 0.72733 0.63662 0.0
H305 H 0.7951 0.76578 0.62791 0.0
H306 H 0.72403 0.8396 0.55912 0.0
H307 H 0.67836 0.80038 0.56624 0.0
H308 H 0.77352 0.83618 0.52367 0.0
H309 H 0.76751 0.84334 0.65666 0.0
H310 H 0.76752 0.8207 0.72546 0.0
H311 H 0.86597 0.77774 0.73436 0.0
H312 H 0.86638 0.7998 0.66552 0.0
H313 H 0.89142 0.96407 0.50126 0.0
H314 H 0.84384 0.92998 0.51609 0.0
H315 H 0.91184 0.86067 0.59765 0.0
H316 H 0.95827 0.89807 0.5874 0.0
H317 H 0.86247 0.86251 0.6272 0.0
H318 H 0.86823 0.8519 0.49437 0.0
H319 H 0.8687 0.87314 0.42528 0.0
H320 H 0.77188 0.91988 0.41537 0.0
H321 H 0.771 0.89919 0.48444 0.0
C322 C 0.74332 0.75204 0.62039 0.0
C323 C 0.71026 0.76111 0.60236 0.0
C324 C 0.76961 0.77408 0.61544 0.0
C325 C 0.76316 0.80591 0.59317 0.0
C326 C 0.72979 0.81526 0.57637 0.0
C327 C 0.70366 0.793 0.58066 0.0
C328 C 0.79122 0.82863 0.58503 0.0
C329 C 0.79275 0.84226 0.54641 0.0
C330 C 0.81699 0.83591 0.61439 0.0
C331 C 0.81685 0.82302 0.65589 0.0
C332 C 0.78907 0.82893 0.67325 0.0
C333 C 0.78902 0.81621 0.71226 0.0
C334 C 0.8167 0.79774 0.73424 0.0
C335 C 0.84454 0.79204 0.7173 0.0
C336 C 0.84472 0.80468 0.67831 0.0
C337 C 0.89598 0.94173 0.52265 0.0
C338 C 0.92845 0.93345 0.54296 0.0
C339 C 0.86883 0.92173 0.53057 0.0
C340 C 0.87394 0.89181 0.55718 0.0
C341 C 0.90683 0.88338 0.57687 0.0
C342 C 0.93361 0.90438 0.57048 0.0
C343 C 0.8452 0.86985 0.56561 0.0
C344 C 0.84342 0.8564 0.60432 0.0
C345 C 0.81937 0.86237 0.53625 0.0
C346 C 0.81968 0.8742 0.49458 0.0
C347 C 0.8471 0.86677 0.47744 0.0
C348 C 0.84743 0.87872 0.43831 0.0
C349 C 0.82037 0.8979 0.41598 0.0
C350 C 0.79283 0.90504 0.43269 0.0
C351 C 0.79238 0.89317 0.4718 0.0
H352 H 0.82072 0.90719 0.38572 0.0
H353 H 0.81659 0.78789 0.76442 0.0
H354 H 0.69091 0.17725 0.99606 0.0
H355 H 0.65302 0.22475 0.99242 0.0
H356 H 0.72666 0.26507 0.07356 0.0
H357 H 0.76443 0.21803 0.07721 0.0
H358 H 0.66479 0.2648 0.09331 0.0
H359 H 0.71308 0.29618 0.97557 0.0
H360 H 0.72481 0.28723 0.91217 0.0
H361 H 0.61884 0.28346 0.87055 0.0
H362 H 0.60652 0.29194 0.93388 0.0
H363 H 0.59999 0.42313 0.09032 0.0
H364 H 0.63524 0.37657 0.08625 0.0
H365 H 0.56808 0.3589 0.98427 0.0
H366 H 0.53634 0.40902 0.98433 0.0
H367 H 0.62291 0.34389 0.97344 0.0
H368 H 0.5724 0.31411 0.08753 0.0
H369 H 0.55843 0.32313 0.14979 0.0
H370 H 0.66345 0.31891 0.1987 0.0
H371 H 0.67809 0.31093 0.13628 0.0
C372 C 0.69907 0.19643 0.01281 0.0
C373 C 0.73051 0.19374 0.03721 0.0
C374 C 0.67742 0.22353 0.01072 0.0
C375 C 0.68705 0.24849 0.03269 0.0
C376 C 0.71861 0.246 0.05657 0.0
C377 C 0.74012 0.21902 0.05874 0.0
C378 C 0.66424 0.27694 0.03203 0.0
C379 C 0.65573 0.28226 0.06715 0.0
C380 C 0.6514 0.29896 0.99772 0.0
C381 C 0.65891 0.29438 0.95955 0.0
C382 C 0.6923 0.29324 0.95297 0.0
C383 C 0.69905 0.28828 0.91704 0.0
C384 C 0.67259 0.2847 0.88738 0.0
C385 C 0.63931 0.28619 0.89355 0.0
C386 C 0.63244 0.2911 0.92944 0.0
C387 C 0.59325 0.41005 0.06631 0.0
C388 C 0.5656 0.4205 0.03724 0.0
C389 C 0.61301 0.38262 0.06457 0.0
C390 C 0.60396 0.36311 0.03565 0.0
C391 C 0.57591 0.37323 0.00698 0.0
C392 C 0.55742 0.40186 0.00734 0.0
C393 C 0.62361 0.33237 0.03509 0.0
C394 C 0.63146 0.32641 0.99971 0.0
C395 C 0.63525 0.30922 0.06913 0.0
C396 C 0.62631 0.31216 0.10718 0.0
C397 C 0.59249 0.31509 0.11158 0.0
C398 C 0.58448 0.32013 0.1469 0.0
C399 C 0.61007 0.3216 0.17824 0.0
C400 C 0.64368 0.31781 0.17439 0.0
C401 C 0.65185 0.31308 0.13904 0.0
H402 H 0.604 0.32572 0.20554 0.0
H403 H 0.67786 0.28084 0.8596 0.0
H404 H 0.21818 0.93323 0.06938 0.0
H405 H 0.19792 0.94797 0.12593 0.0
H406 H 0.18434 0.8446 0.16845 0.0
H407 H 0.20472 0.82975 0.11241 0.0
H408 H 0.12733 0.88583 0.16463 0.0
H409 H 0.24636 0.88107 0.21262 0.0
H410 H 0.30572 0.8957 0.21183 0.0
H411 H 0.28136 0.99752 0.21193 0.0
H412 H 0.22171 0.98359 0.21208 0.0
H413 H 0.08707 0.89262 0.34787 0.0
H414 H 0.12089 0.87927 0.30086 0.0
H415 H 0.13307 0.98344 0.26128 0.0
H416 H 0.09889 0.99684 0.30785 0.0
H417 H 0.19221 0.94334 0.26413 0.0
H418 H 0.07498 0.95107 0.21231 0.0
H419 H 0.01476 0.93953 0.21141 0.0
H420 H 0.03465 0.83612 0.21512 0.0
H421 H 0.09516 0.84699 0.21673 0.0
C422 C 0.21109 0.91369 0.09098 0.0
C423 C 0.21317 0.88033 0.08657 0.0
C424 C 0.1997 0.92211 0.12331 0.0
C425 C 0.18978 0.89734 0.15145 0.0
C426 C 0.19201 0.86407 0.14716 0.0
C427 C 0.20383 0.85562 0.11524 0.0
C428 C 0.17527 0.90603 0.1843 0.0
C429 C 0.14171 0.89795 0.18668 0.0
C430 C 0.19368 0.92287 0.21233 0.0
C431 C 0.22947 0.93135 0.21186 0.0
C432 C 0.25357 0.90665 0.212 0.0
C433 C 0.2873 0.9148 0.21178 0.0
C434 C 0.29729 0.94753 0.2117 0.0
C435 C 0.27358 0.97218 0.21191 0.0
C436 C 0.23981 0.96417 0.21207 0.0
C437 C 0.09775 0.91258 0.32985 0.0
C438 C 0.09033 0.94572 0.33131 0.0
C439 C 0.1169 0.90498 0.30292 0.0
C440 C 0.12922 0.9304 0.27738 0.0
C441 C 0.12384 0.96348 0.28072 0.0
C442 C 0.10427 0.97109 0.30721 0.0
C443 C 0.14454 0.92254 0.24471 0.0
C444 C 0.17801 0.93101 0.24217 0.0
C445 C 0.12597 0.90648 0.21609 0.0
C446 C 0.08965 0.89977 0.21517 0.0
C447 C 0.06657 0.92581 0.21337 0.0
C448 C 0.03238 0.91941 0.21265 0.0
C449 C 0.0209 0.88709 0.21334 0.0
C450 C 0.04359 0.86113 0.21468 0.0
C451 C 0.07784 0.86739 0.2155 0.0
H452 H 0.99441 0.88218 0.21273 0.0
H453 H 0.32342 0.95378 0.21159 0.0
H454 H 0.6416 0.62934 0.66024 0.0
H455 H 0.62145 0.603 0.71906 0.0
H456 H 0.6079 0.69917 0.74915 0.0
H457 H 0.62904 0.72543 0.69098 0.0
H458 H 0.63392 0.66076 0.80991 0.0
H459 H 0.54087 0.65033 0.7102 0.0
H460 H 0.51109 0.63396 0.65022 0.0
H461 H 0.53578 0.53173 0.69669 0.0
H462 H 0.5662 0.54753 0.75671 0.0
H463 H 0.49428 0.57504 0.91756 0.0
H464 H 0.51461 0.60379 0.86016 0.0
H465 H 0.61569 0.56894 0.90941 0.0
H466 H 0.59518 0.53853 0.96621 0.0
H467 H 0.54425 0.57726 0.80893 0.0
H468 H 0.66927 0.62931 0.87824 0.0
H469 H 0.69287 0.65783 0.93209 0.0
H470 H 0.59348 0.68866 0.94185 0.0
H471 H 0.56932 0.66026 0.88813 0.0
C472 C 0.6342 0.64483 0.67938 0.0
C473 C 0.63685 0.67947 0.67096 0.0
C474 C 0.62253 0.62976 0.71294 0.0
C475 C 0.61258 0.64904 0.73844 0.0
C476 C 0.61541 0.68366 0.73009 0.0
C477 C 0.62755 0.69869 0.69684 0.0
C478 C 0.6 0.63328 0.77427 0.0
C479 C 0.6144 0.64239 0.80956 0.0
C480 C 0.57408 0.60966 0.77406 0.0
C481 C 0.55615 0.60017 0.73778 0.0
C482 C 0.54024 0.62439 0.70748 0.0
C483 C 0.5232 0.6152 0.67349 0.0
C484 C 0.52163 0.58184 0.6696 0.0
C485 C 0.53708 0.55757 0.69971 0.0
C486 C 0.55423 0.56663 0.73371 0.0
C487 C 0.52081 0.57315 0.91613 0.0
C488 C 0.54301 0.55407 0.94641 0.0
C489 C 0.53243 0.58986 0.88335 0.0
C490 C 0.56667 0.58858 0.88041 0.0
C491 C 0.58918 0.57052 0.91114 0.0
C492 C 0.57743 0.55324 0.94371 0.0
C493 C 0.57839 0.60471 0.84435 0.0
C494 C 0.56396 0.59546 0.80912 0.0
C495 C 0.60364 0.62882 0.84438 0.0
C496 C 0.61753 0.64246 0.87945 0.0
C497 C 0.65246 0.64189 0.89219 0.0
C498 C 0.66594 0.65815 0.92253 0.0
C499 C 0.64472 0.67536 0.94003 0.0
C500 C 0.60989 0.67551 0.92803 0.0
C501 C 0.59627 0.65909 0.89788 0.0
H502 H 0.65526 0.68838 0.96311 0.0
H503 H 0.50836 0.57477 0.6433 0.0
H504 H 0.8603 0.10455 0.10185 0.0
H505 H 0.89115 0.08417 0.16656 0.0
H506 H 0.80048 0.0913 0.2145 0.0
H507 H 0.76904 0.11041 0.1498 0.0
H508 H 0.85484 0.12346 0.25005 0.0
H509 H 0.82991 0.01823 0.2126 0.0
H510 H 0.82808 0.97525 0.17162 0.0
H511 H 0.93602 0.97279 0.1865 0.0
H512 H 0.93849 0.01624 0.22703 0.0
H513 H 0.90701 0.02473 0.43947 0.0
H514 H 0.87792 0.04466 0.37386 0.0
H515 H 0.97337 0.06026 0.33471 0.0
H516 H 1.00277 0.04249 0.40104 0.0
H517 H 0.91849 0.01695 0.29443 0.0
H518 H 0.94342 0.12284 0.33036 0.0
H519 H 0.94527 0.16906 0.36672 0.0
H520 H 0.8374 0.1713 0.35274 0.0
H521 H 0.83491 0.12445 0.31715 0.0
C522 C 0.84666 0.10106 0.12597 0.0
C523 C 0.81213 0.10931 0.12054 0.0
C524 C 0.86442 0.08953 0.16298 0.0
C525 C 0.84807 0.08625 0.19524 0.0
C526 C 0.81356 0.09381 0.18993 0.0
C527 C 0.7957 0.10495 0.15294 0.0
C528 C 0.86734 0.07699 0.23479 0.0
C529 C 0.86835 0.09995 0.25998 0.0
C530 C 0.88577 0.04675 0.24714 0.0
C531 C 0.88436 0.02085 0.22244 0.0
C532 C 0.85325 0.00885 0.20675 0.0
C533 C 0.8521 0.98433 0.18368 0.0
C534 C 0.88191 0.97139 0.17633 0.0
C535 C 0.91294 0.98291 0.19212 0.0
C536 C 0.91423 0.00749 0.21515 0.0
C537 C 0.92184 0.03343 0.41727 0.0
C538 C 0.95717 0.03254 0.42566 0.0
C539 C 0.90518 0.04444 0.37969 0.0
C540 C 0.92357 0.05399 0.34965 0.0
C541 C 0.95882 0.05306 0.35769 0.0
C542 C 0.97552 0.04282 0.39552 0.0
C543 C 0.90575 0.06341 0.30959 0.0
C544 C 0.90494 0.04043 0.28441 0.0
C545 C 0.88749 0.09366 0.29717 0.0
C546 C 0.88901 0.11981 0.32149 0.0
C547 C 0.92012 0.13265 0.33576 0.0
C548 C 0.92127 0.15917 0.35596 0.0
C549 C 0.89146 0.17329 0.3617 0.0
C550 C 0.86046 0.16048 0.348 0.0
C551 C 0.85917 0.13386 0.32797 0.0
H552 H 0.89237 0.19405 0.37698 0.0
H553 H 0.88096 0.95237 0.15851 0.0
H554 H 0.42693 0.30372 0.53928 0.0
H555 H 0.44522 0.32754 0.59812 0.0
H556 H 0.34184 0.35023 0.60293 0.0
H557 H 0.32348 0.32618 0.54477 0.0
H558 H 0.38903 0.40473 0.6055 0.0
H559 H 0.3754 0.29063 0.66394 0.0
H560 H 0.38697 0.23049 0.67432 0.0
H561 H 0.49168 0.24635 0.71232 0.0
H562 H 0.48081 0.30669 0.70152 0.0
H563 H 0.39002 0.46097 0.77892 0.0
H564 H 0.37821 0.42723 0.72784 0.0
H565 H 0.4816 0.3923 0.7522 0.0
H566 H 0.49306 0.42546 0.80429 0.0
H567 H 0.44021 0.34323 0.7342 0.0
H568 H 0.45688 0.45459 0.67833 0.0
H569 H 0.44914 0.5153 0.66708 0.0
H570 H 0.34467 0.50579 0.62159 0.0
H571 H 0.35168 0.44494 0.63317 0.0
C572 C 0.40819 0.31359 0.55317 0.0
C573 C 0.37381 0.31304 0.53768 0.0
C574 C 0.41862 0.32701 0.58673 0.0
C575 C 0.39481 0.34048 0.6048 0.0
C576 C 0.36052 0.33981 0.58942 0.0
C577 C 0.35009 0.32596 0.55637 0.0
C578 C 0.40544 0.35699 0.63855 0.0
C579 C 0.39992 0.39127 0.63375 0.0
C580 C 0.42086 0.3395 0.67488 0.0
C581 C 0.42736 0.30322 0.68143 0.0
C582 C 0.40096 0.28134 0.67409 0.0
C583 C 0.40737 0.2472 0.68014 0.0
C584 C 0.44006 0.23461 0.69384 0.0
C585 C 0.46638 0.25614 0.70162 0.0
C586 C 0.46011 0.29031 0.69555 0.0
C587 C 0.41001 0.44574 0.77354 0.0
C588 C 0.44242 0.44583 0.79496 0.0
C589 C 0.40335 0.42658 0.74439 0.0
C590 C 0.4292 0.40775 0.73567 0.0
C591 C 0.46134 0.40673 0.75831 0.0
C592 C 0.46791 0.4257 0.78783 0.0
C593 C 0.42292 0.39095 0.70141 0.0
C594 C 0.42946 0.35674 0.70595 0.0
C595 C 0.40903 0.40858 0.66447 0.0
C596 C 0.40475 0.44519 0.6569 0.0
C597 C 0.43221 0.46543 0.66615 0.0
C598 C 0.42795 0.49986 0.6597 0.0
C599 C 0.39641 0.51438 0.6437 0.0
C600 C 0.36908 0.4945 0.63401 0.0
C601 C 0.37318 0.46003 0.64048 0.0
H602 H 0.39316 0.54105 0.63874 0.0
H603 H 0.44497 0.20817 0.69854 0.0
H604 H 0.68344 0.69247 0.50971 0.0
H605 H 0.66454 0.67405 0.44843 0.0
H606 H 0.56366 0.66451 0.47424 0.0
H607 H 0.58241 0.68356 0.53588 0.0
H608 H 0.58244 0.61112 0.44788 0.0
H609 H 0.58034 0.72633 0.40455 0.0
H610 H 0.60029 0.78368 0.39881 0.0
H611 H 0.6834 0.75648 0.34817 0.0
H612 H 0.66428 0.69879 0.35416 0.0
H613 H 0.54399 0.56218 0.26253 0.0
H614 H 0.54042 0.59896 0.30975 0.0
H615 H 0.64784 0.61163 0.32296 0.0
H616 H 0.65144 0.57478 0.27635 0.0
H617 H 0.61182 0.67033 0.32446 0.0
H618 H 0.61739 0.55269 0.38171 0.0
H619 H 0.59599 0.49581 0.38761 0.0
H620 H 0.50249 0.53021 0.4115 0.0
H621 H 0.5232 0.58742 0.4051 0.0
C622 C 0.65708 0.68706 0.50218 0.0
C623 C 0.63439 0.68986 0.52762 0.0
C624 C 0.64629 0.67649 0.46705 0.0
C625 C 0.61253 0.66848 0.45634 0.0
C626 C 0.58979 0.67079 0.48179 0.0
C627 C 0.60058 0.6815 0.51708 0.0
C628 C 0.60191 0.65607 0.4194 0.0
C629 C 0.58803 0.62449 0.42069 0.0
C630 C 0.60928 0.67341 0.38388 0.0
C631 C 0.62093 0.70813 0.37999 0.0
C632 C 0.60301 0.73249 0.39243 0.0
C633 C 0.61416 0.76509 0.3891 0.0
C634 C 0.64312 0.77371 0.37317 0.0
C635 C 0.66096 0.74975 0.36049 0.0
C636 C 0.64995 0.7171 0.36379 0.0
C637 C 0.56662 0.57356 0.27486 0.0
C638 C 0.59802 0.56562 0.2661 0.0
C639 C 0.5646 0.59442 0.30185 0.0
C640 C 0.59393 0.6078 0.32008 0.0
C641 C 0.62492 0.60164 0.30922 0.0
C642 C 0.62698 0.58052 0.28274 0.0
C643 C 0.59343 0.62509 0.35342 0.0
C644 C 0.60535 0.6575 0.35145 0.0
C645 C 0.5839 0.60871 0.38824 0.0
C646 C 0.57164 0.57433 0.39241 0.0
C647 C 0.59217 0.54815 0.3879 0.0
C648 C 0.58018 0.51586 0.39138 0.0
C649 C 0.54785 0.50941 0.39979 0.0
C650 C 0.52749 0.53525 0.40487 0.0
C651 C 0.53933 0.5676 0.40131 0.0
H652 H 0.53862 0.48439 0.40249 0.0
H653 H 0.6517 0.79896 0.37062 0.0
H654 H 0.80118 0.06448 1.00159 0.0
H655 H 0.82443 0.04936 0.94757 0.0
H656 H 0.80899 0.14966 0.88653 0.0
H657 H 0.78786 0.16577 0.94124 0.0
H658 H 0.79066 0.09128 0.84166 0.0
H659 H 0.87944 0.13891 0.92609 0.0
H660 H 0.91286 0.14194 0.98993 0.0
H661 H 0.94391 0.04009 1.00243 0.0
H662 H 0.91017 0.03635 0.93887 0.0
H663 H 0.90138 0.11441 0.70436 0.0
H664 H 0.86603 0.11692 0.75376 0.0
H665 H 0.91682 0.02923 0.82334 0.0
H666 H 0.95245 0.02716 0.77405 0.0
H667 H 0.91476 0.07498 0.86557 0.0
H668 H 0.83448 0.02743 0.77965 0.0
H669 H 0.7995 0.01985 0.71825 0.0
H670 H 0.75073 0.11423 0.70991 0.0
H671 H 0.78581 0.12265 0.77099 0.0
C672 C 0.80277 0.08346 0.97682 0.0
C673 C 0.79299 0.11652 0.97622 0.0
C674 C 0.81569 0.07461 0.9458 0.0
C675 C 0.81836 0.09845 0.91328 0.0
C676 C 0.80681 0.13092 0.91139 0.0
C677 C 0.79457 0.14 0.94272 0.0
C678 C 0.83619 0.09034 0.88292 0.0
C679 C 0.8178 0.08795 0.84655 0.0
C680 C 0.87139 0.08487 0.89008 0.0
C681 C 0.89195 0.08723 0.92802 0.0
C682 C 0.89312 0.11708 0.94264 0.0
C683 C 0.91217 0.11895 0.97873 0.0
C684 C 0.9304 0.09119 1.00029 0.0
C685 C 0.92971 0.06155 0.98574 0.0
C686 C 0.91064 0.05954 0.94969 0.0
C687 C 0.90454 0.09553 0.73006 0.0
C688 C 0.92939 0.07064 0.73577 0.0
C689 C 0.8843 0.09681 0.7581 0.0
C690 C 0.88857 0.07307 0.79213 0.0
C691 C 0.91305 0.04774 0.79731 0.0
C692 C 0.9333 0.04651 0.76927 0.0
C693 C 0.8694 0.07634 0.82353 0.0
C694 C 0.88757 0.0779 0.86036 0.0
C695 C 0.83392 0.08047 0.81683 0.0
C696 C 0.81305 0.07582 0.77975 0.0
C697 C 0.81656 0.04675 0.76453 0.0
C698 C 0.79665 0.04226 0.72982 0.0
C699 C 0.77297 0.06658 0.71014 0.0
C700 C 0.76912 0.09543 0.72516 0.0
C701 C 0.789 0.10007 0.75985 0.0
H702 H 0.75754 0.06304 0.6833 0.0
H703 H 0.94514 0.09268 0.02823 0.0
H704 H 0.38361 0.36758 0.41485 0.0
H705 H 0.40496 0.39394 0.35757 0.0
H706 H 0.38786 0.3049 0.30825 0.0
H707 H 0.36911 0.27714 0.36725 0.0
H708 H 0.44465 0.32861 0.29459 0.0
H709 H 0.33445 0.37803 0.27966 0.0
H710 H 0.28894 0.40728 0.29995 0.0
H711 H 0.35222 0.49109 0.31078 0.0
H712 H 0.39825 0.46217 0.29101 0.0
H713 H 0.47028 0.40529 0.1074 0.0
H714 H 0.44813 0.37597 0.16301 0.0
H715 H 0.45742 0.46438 0.21457 0.0
H716 H 0.47624 0.49461 0.15693 0.0
H717 H 0.40234 0.43967 0.22576 0.0
H718 H 0.51352 0.38898 0.24326 0.0
H719 H 0.56057 0.35695 0.22995 0.0
H720 H 0.49581 0.27459 0.21627 0.0
H721 H 0.44833 0.30624 0.22908 0.0
C722 C 0.38492 0.35318 0.3923 0.0
C723 C 0.37478 0.31994 0.39613 0.0
C724 C 0.39656 0.36865 0.35903 0.0
C725 C 0.39734 0.35177 0.32803 0.0
C726 C 0.38727 0.31861 0.33161 0.0
C727 C 0.37621 0.30283 0.3653 0.0
C728 C 0.40957 0.36844 0.29243 0.0
C729 C 0.435 0.35268 0.27912 0.0
C730 C 0.39768 0.40024 0.27278 0.0
C731 C 0.36984 0.41784 0.2841 0.0
C732 C 0.33869 0.40263 0.28654 0.0
C733 C 0.31281 0.41916 0.29794 0.0
C734 C 0.31771 0.451 0.30671 0.0
C735 C 0.34846 0.46643 0.30398 0.0
C736 C 0.37444 0.45 0.29263 0.0
C737 C 0.46682 0.41869 0.13008 0.0
C738 C 0.47399 0.45255 0.12697 0.0
C739 C 0.45491 0.40163 0.16251 0.0
C740 C 0.4514 0.41767 0.19358 0.0
C741 C 0.45966 0.45132 0.19105 0.0
C742 C 0.47063 0.4686 0.15808 0.0
C743 C 0.43789 0.40002 0.22798 0.0
C744 C 0.41205 0.41557 0.24105 0.0
C745 C 0.4494 0.36797 0.24741 0.0
C746 C 0.47736 0.35005 0.2369 0.0
C747 C 0.50923 0.36422 0.23688 0.0
C748 C 0.536 0.34606 0.22958 0.0
C749 C 0.53118 0.31368 0.22249 0.0
C750 C 0.4995 0.29961 0.22192 0.0
C751 C 0.47268 0.31764 0.22918 0.0
H752 H 0.55197 0.29929 0.21768 0.0
H753 H 0.29765 0.46374 0.31557 0.0
H754 H 0.174 0.84316 0.9327 0.0
H755 H 0.14651 0.86447 0.8667 0.0
H756 H 0.18994 0.96013 0.87535 0.0
H757 H 0.21607 0.93903 0.94242 0.0
H758 H 0.12988 0.96916 0.83976 0.0
H759 H 0.22062 0.90201 0.82367 0.0
H760 H 0.2564 0.85162 0.83453 0.0
H761 H 0.17225 0.79762 0.78789 0.0
H762 H 0.13583 0.84755 0.77728 0.0
H763 H 0.08 0.0253 0.63681 0.0
H764 H 0.11306 0.0092 0.70143 0.0
H765 H 0.07297 0.91081 0.70744 0.0
H766 H 0.04041 0.92666 0.64276 0.0
H767 H 0.13677 0.90612 0.73401 0.0
H768 H 0.04559 0.97386 0.75766 0.0
H769 H 0.01064 0.02347 0.75562 0.0
H770 H 0.09918 0.07749 0.78933 0.0
H771 H 0.13464 0.02821 0.79148 0.0
C772 C 0.17744 0.8688 0.92046 0.0
C773 C 0.19715 0.8895 0.94237 0.0
C774 C 0.16206 0.88089 0.88262 0.0
C775 C 0.1669 0.91369 0.86543 0.0
C776 C 0.18602 0.93466 0.88774 0.0
C777 C 0.20088 0.92269 0.92601 0.0
C778 C 0.15123 0.92621 0.8246 0.0
C779 C 0.13197 0.95566 0.8165 0.0
C780 C 0.15346 0.90846 0.79419 0.0
C781 C 0.17544 0.8785 0.79992 0.0
C782 C 0.2097 0.87935 0.81591 0.0
C783 C 0.2301 0.85086 0.82202 0.0
C784 C 0.21659 0.82142 0.81197 0.0
C785 C 0.18268 0.82044 0.79568 0.0
C786 C 0.16215 0.84884 0.78956 0.0
C787 C 0.07816 1.00027 0.65203 0.0
C788 C 0.05764 0.97722 0.63466 0.0
C789 C 0.09697 0.99112 0.68907 0.0
C790 C 0.09522 0.95888 0.70976 0.0
C791 C 0.07483 0.93583 0.69223 0.0
C792 C 0.05621 0.94491 0.65516 0.0
C793 C 0.11481 0.94876 0.74939 0.0
C794 C 0.13497 0.91977 0.75721 0.0
C795 C 0.1138 0.96716 0.77949 0.0
C796 C 0.09272 0.99748 0.77444 0.0
C797 C 0.05761 0.99648 0.76403 0.0
C798 C 0.03771 0.02449 0.7631 0.0
C799 C 0.05271 0.05355 0.77256 0.0
C800 C 0.08763 0.05492 0.78216 0.0
C801 C 0.10761 0.02699 0.78325 0.0
H802 H 0.03738 0.075 0.7728 0.0
H803 H 0.23242 0.79939 0.81676 0.0
loop_
_geom_bond_atom_site_label_1
_geom_bond_atom_site_label_2
_geom_bond_distance
_geom_bond_site_symmetry_2
_ccdc_geom_bond_type
H0 C3 0.931 . S
H1 C6 0.928 . S
H2 C8 0.930 . S
C3 H0 0.931 . S
C3 C4 1.413 1_554 S
C3 C5 1.360 . S
C4 C3 1.413 1_556 S
C4 C8 1.429 . S
C5 C3 1.360 . S
C5 C6 1.372 . S
C6 H1 0.928 . S
C6 C5 1.372 . S
C6 C7 1.404 . S
C7 C6 1.404 . S
C7 C8 1.391 1_554 S
C8 H2 0.930 . S
C8 C4 1.429 . S
C8 C7 1.391 1_556 S
H9 C12 0.931 . S
H10 C15 0.928 . S
H11 C17 0.930 . S
C12 H9 0.931 . S
C12 C13 1.413 . S
C12 C14 1.360 . S
C13 C12 1.413 . S
C13 C17 1.429 . S
C14 C12 1.360 . S
C14 C15 1.372 . S
C15 H10 0.928 . S
C15 C14 1.372 . S
C15 C16 1.404 . S
C16 C15 1.404 . S
C16 C17 1.391 . S
C17 H11 0.930 . S
C17 C13 1.429 . S
C17 C16 1.391 . S
H18 C21 0.931 . S
H19 C24 0.928 . S
H20 C26 0.930 1_556 S
C21 H18 0.931 . S
C21 C22 1.413 . S
C21 C23 1.360 . S
C22 C21 1.413 . S
C22 C26 1.429 . S
C23 C21 1.360 . S
C23 C24 1.372 . S
C24 H19 0.928 . S
C24 C23 1.372 . S
C24 C25 1.404 . S
C25 C24 1.404 . S
C25 C26 1.391 . S
C26 H20 0.930 1_554 S
C26 C22 1.429 . S
C26 C25 1.391 . S
H27 C30 0.931 . S
H28 C33 0.928 . S
H29 C35 0.930 . S
C30 H27 0.931 . S
C30 C31 1.413 . S
C30 C32 1.360 . S
C31 C30 1.413 . S
C31 C35 1.429 . S
C32 C30 1.360 . S
C32 C33 1.372 . S
C33 H28 0.928 . S
C33 C32 1.372 . S
C33 C34 1.404 . S
C34 C33 1.404 . S
C34 C35 1.391 . S
C35 H29 0.930 . S
C35 C31 1.429 . S
C35 C34 1.391 . S
C36 C38 1.422 . S
C36 C40 1.415 . S
C36 N42 1.369 . S
C37 C38 1.421 . S
C37 C39 1.417 . S
C37 C49 1.422 . S
C38 C36 1.422 . S
C38 C37 1.421 . S
C38 N48 1.359 . S
C39 C37 1.417 . S
C39 C41 1.329 . S
C39 H58 0.930 . S
C40 C36 1.415 . S
C40 C41 1.437 . S
C40 C44 1.413 . S
C41 C39 1.329 . S
C41 C40 1.437 . S
C41 H63 0.929 . S
N42 C36 1.369 . S
N42 C43 1.338 1_655 S
N42 Gd47 2.622 . S
C43 N42 1.338 1_455 S
C43 C45 1.378 1_455 S
C43 H55 0.929 . S
C44 C40 1.413 . S
C44 C45 1.348 . S
C44 H60 0.931 . S
C45 C43 1.378 1_655 S
C45 C44 1.348 . S
C45 H61 0.930 1_655 S
Gd46 N66 2.622 . S
Gd46 N73 2.570 . S
Gd46 O80 2.371 1_455 S
Gd46 O81 2.468 . S
Gd46 O82 2.427 . S
Gd46 O84 2.388 1_455 S
Gd46 O85 2.386 . S
Gd46 O89 2.307 1_565 S
Gd46 C99 2.805 . S
Gd47 N42 2.622 . S
Gd47 N48 2.570 . S
Gd47 O79 2.386 . S
Gd47 O83 2.307 1_545 S
Gd47 O86 2.353 1_655 S
Gd47 O87 2.468 . S
Gd47 O88 2.427 . S
Gd47 O90 2.388 1_655 S
Gd47 C111 2.805 . S
N48 C38 1.359 . S
N48 Gd47 2.570 . S
N48 C50 1.343 . S
C49 C37 1.422 . S
C49 C51 1.321 . S
C49 H57 0.931 . S
C50 N48 1.343 . S
C50 C51 1.390 . S
C50 H52 0.931 . S
C51 C49 1.321 . S
C51 C50 1.390 . S
C51 H53 0.930 . S
H52 C50 0.931 . S
H53 C51 0.930 . S
H54 C77 0.931 . S
H55 C43 0.929 . S
H56 C78 0.930 . S
H57 C49 0.931 . S
H58 C39 0.930 . S
H59 C68 0.929 1_655 S
H60 C44 0.931 . S
H61 C45 0.930 1_455 S
H62 C100 0.930 . S
H63 C41 0.929 . S
H64 C69 0.931 . S
H65 C70 0.930 1_655 S
N66 Gd46 2.622 . S
N66 C67 1.369 . S
N66 C68 1.338 . S
C67 N66 1.369 . S
C67 C71 1.415 . S
C67 C74 1.422 . S
C68 H59 0.929 1_455 S
C68 N66 1.338 . S
C68 C70 1.378 . S
C69 H64 0.931 . S
C69 C70 1.348 . S
C69 C71 1.413 . S
C70 H65 0.930 1_455 S
C70 C68 1.378 . S
C70 C69 1.348 . S
C71 C67 1.415 . S
C71 C69 1.413 . S
C71 C101 1.437 . S
H72 C101 0.929 . S
N73 Gd46 2.570 . S
N73 C74 1.359 . S
N73 C77 1.343 . S
C74 C67 1.422 . S
C74 N73 1.359 . S
C74 C76 1.421 . S
C75 C76 1.422 . S
C75 C78 1.321 . S
C75 H102 0.931 . S
C76 C74 1.421 . S
C76 C75 1.422 . S
C76 C100 1.417 . S
C77 H54 0.931 . S
C77 N73 1.343 . S
C77 C78 1.390 . S
C78 H56 0.930 . S
C78 C75 1.321 . S
C78 C77 1.390 . S
O79 Gd47 2.386 . S
O79 C91 1.265 . S
O80 Gd46 2.371 1_655 S
O80 C91 1.214 1_565 S
O81 Gd46 2.468 . S
O81 C99 1.263 . S
O82 Gd46 2.427 . S
O82 C99 1.252 . S
O83 Gd47 2.307 1_565 S
O83 C92 1.261 . S
O84 Gd46 2.388 1_655 S
O84 C92 1.252 . S
O85 Gd46 2.386 . S
O85 C103 1.265 . S
O86 Gd47 2.353 1_455 S
O86 C103 1.242 1_545 S
O87 Gd47 2.468 . S
O87 C111 1.263 . S
O88 Gd47 2.427 . S
O88 C111 1.252 . S
O89 Gd46 2.307 1_545 S
O89 C104 1.261 . S
O90 Gd47 2.388 1_455 S
O90 C104 1.252 . S
C91 O79 1.265 . S
C91 O80 1.214 1_545 S
C92 O83 1.261 . S
C92 O84 1.252 . S
C93 C96 1.394 . S
C93 C98 1.370 . S
C93 C99 1.500 . S
C94 C97 1.383 . S
C94 C98 1.395 . S
C95 C96 1.396 . S
C95 C97 1.365 . S
C95 H112 0.929 . S
C96 C93 1.394 . S
C96 C95 1.396 . S
C96 H113 0.930 . S
C97 C94 1.383 . S
C97 C95 1.365 . S
C97 H114 0.931 . S
C98 C93 1.370 . S
C98 C94 1.395 . S
C98 H115 0.930 . S
C99 Gd46 2.805 . S
C99 O81 1.263 . S
C99 O82 1.252 . S
C99 C93 1.500 . S
C100 H62 0.930 . S
C100 C76 1.417 . S
C100 C101 1.329 . S
C101 C71 1.437 . S
C101 H72 0.929 . S
C101 C100 1.329 . S
H102 C75 0.931 . S
C103 O85 1.265 . S
C103 O86 1.242 1_565 S
C104 O89 1.261 . S
C104 O90 1.252 . S
C105 C108 1.394 . S
C105 C110 1.370 . S
C105 C111 1.500 . S
C106 C109 1.383 . S
C106 C110 1.395 . S
C107 C108 1.396 . S
C107 C109 1.365 . S
C107 H116 0.929 . S
C108 C105 1.394 . S
C108 C107 1.396 . S
C108 H117 0.930 . S
C109 C106 1.383 . S
C109 C107 1.365 . S
C109 H118 0.931 . S
C110 C105 1.370 . S
C110 C106 1.395 . S
C110 H119 0.930 . S
C111 Gd47 2.805 . S
C111 O87 1.263 . S
C111 O88 1.252 . S
C111 C105 1.500 . S
H112 C95 0.929 . S
H113 C96 0.930 . S
H114 C97 0.931 . S
H115 C98 0.930 . S
H116 C107 0.929 . S
H117 C108 0.930 . S
H118 C109 0.931 . S
H119 C110 0.930 . S
C120 C122 1.422 . S
C120 C124 1.415 . S
C120 N126 1.369 . S
C121 C122 1.421 . S
C121 C123 1.417 . S
C121 C133 1.422 . S
C122 C120 1.422 . S
C122 C121 1.421 . S
C122 N132 1.359 . S
C123 C121 1.417 . S
C123 C125 1.329 . S
C123 H142 0.930 . S
C124 C120 1.415 . S
C124 C125 1.437 . S
C124 C128 1.413 . S
C125 C123 1.329 . S
C125 C124 1.437 . S
C125 H147 0.929 . S
N126 C120 1.369 . S
N126 C127 1.338 . S
N126 Gd131 2.622 . S
C127 N126 1.338 . S
C127 C129 1.378 . S
C127 H139 0.929 . S
C128 C124 1.413 . S
C128 C129 1.348 . S
C128 H144 0.931 . S
C129 C127 1.378 . S
C129 C128 1.348 . S
C129 H145 0.930 . S
Gd130 N150 2.622 . S
Gd130 N157 2.570 1_556 S
Gd130 O164 2.353 . S
Gd130 O165 2.468 . S
Gd130 O166 2.427 . S
Gd130 O168 2.388 . S
Gd130 O169 2.386 1_556 S
Gd130 O173 2.307 1_556 S
Gd130 C183 2.805 . S
Gd131 N126 2.622 . S
Gd131 N132 2.570 . S
Gd131 O163 2.386 1_554 S
Gd131 O167 2.307 . S
Gd131 O170 2.353 . S
Gd131 O171 2.468 . S
Gd131 O172 2.427 . S
Gd131 O174 2.388 . S
Gd131 C195 2.805 . S
N132 C122 1.359 . S
N132 Gd131 2.570 . S
N132 C134 1.343 . S
C133 C121 1.422 . S
C133 C135 1.321 . S
C133 H141 0.931 . S
C134 N132 1.343 . S
C134 C135 1.390 . S
C134 H136 0.931 . S
C135 C133 1.321 . S
C135 C134 1.390 . S
C135 H137 0.930 . S
H136 C134 0.931 . S
H137 C135 0.930 . S
H138 C161 0.931 . S
H139 C127 0.929 . S
H140 C162 0.930 . S
H141 C133 0.931 . S
H142 C123 0.930 . S
H143 C152 0.929 . S
H144 C128 0.931 . S
H145 C129 0.930 . S
H146 C184 0.930 . S
H147 C125 0.929 . S
H148 C153 0.931 . S
H149 C154 0.930 . S
N150 Gd130 2.622 . S
N150 C151 1.369 1_556 S
N150 C152 1.338 . S
C151 N150 1.369 1_554 S
C151 C155 1.415 . S
C151 C158 1.422 . S
C152 H143 0.929 . S
C152 N150 1.338 . S
C152 C154 1.378 . S
C153 H148 0.931 . S
C153 C154 1.348 1_554 S
C153 C155 1.413 . S
C154 H149 0.930 . S
C154 C152 1.378 . S
C154 C153 1.348 1_556 S
C155 C151 1.415 . S
C155 C153 1.413 . S
C155 C185 1.437 . S
H156 C185 0.929 . S
N157 Gd130 2.570 1_554 S
N157 C158 1.359 . S
N157 C161 1.343 . S
C158 C151 1.422 . S
C158 N157 1.359 . S
C158 C160 1.421 . S
C159 C160 1.422 . S
C159 C162 1.321 . S
C159 H186 0.931 . S
C160 C158 1.421 . S
C160 C159 1.422 . S
C160 C184 1.417 . S
C161 H138 0.931 . S
C161 N157 1.343 . S
C161 C162 1.390 . S
C162 H140 0.930 . S
C162 C159 1.321 . S
C162 C161 1.390 . S
O163 Gd131 2.386 1_556 S
O163 C175 1.265 . S
O164 Gd130 2.353 . S
O164 C175 1.242 . S
O165 Gd130 2.468 . S
O165 C183 1.263 . S
O166 Gd130 2.427 . S
O166 C183 1.252 . S
O167 Gd131 2.307 . S
O167 C176 1.261 . S
O168 Gd130 2.388 . S
O168 C176 1.252 1_556 S
O169 Gd130 2.386 1_554 S
O169 C187 1.265 . S
O170 Gd131 2.353 . S
O170 C187 1.242 . S
O171 Gd131 2.468 . S
O171 C195 1.263 . S
O172 Gd131 2.427 . S
O172 C195 1.252 . S
O173 Gd130 2.307 1_554 S
O173 C188 1.261 . S
O174 Gd131 2.388 . S
O174 C188 1.252 . S
C175 O163 1.265 . S
C175 O164 1.242 . S
C176 O167 1.261 . S
C176 O168 1.252 1_554 S
C177 C180 1.394 . S
C177 C182 1.370 . S
C177 C183 1.500 . S
C178 C181 1.383 . S
C178 C182 1.395 . S
C179 C180 1.396 . S
C179 C181 1.365 . S
C179 H196 0.929 . S
C180 C177 1.394 . S
C180 C179 1.396 . S
C180 H197 0.930 . S
C181 C178 1.383 . S
C181 C179 1.365 . S
C181 H198 0.931 . S
C182 C177 1.370 . S
C182 C178 1.395 . S
C182 H199 0.930 . S
C183 Gd130 2.805 . S
C183 O165 1.263 . S
C183 O166 1.252 . S
C183 C177 1.500 . S
C184 H146 0.930 . S
C184 C160 1.417 . S
C184 C185 1.329 . S
C185 C155 1.437 . S
C185 H156 0.929 . S
C185 C184 1.329 . S
H186 C159 0.931 . S
C187 O169 1.265 . S
C187 O170 1.242 . S
C188 O173 1.261 . S
C188 O174 1.252 . S
C189 C192 1.394 . S
C189 C194 1.370 . S
C189 C195 1.500 . S
C190 C193 1.383 . S
C190 C194 1.395 . S
C191 C192 1.396 . S
C191 C193 1.365 . S
C191 H200 0.929 . S
C192 C189 1.394 . S
C192 C191 1.396 . S
C192 H201 0.930 . S
C193 C190 1.383 . S
C193 C191 1.365 . S
C193 H202 0.931 . S
C194 C189 1.370 . S
C194 C190 1.395 . S
C194 H203 0.930 . S
C195 Gd131 2.805 . S
C195 O171 1.263 . S
C195 O172 1.252 . S
C195 C189 1.500 . S
H196 C179 0.929 . S
H197 C180 0.930 . S
H198 C181 0.931 . S
H199 C182 0.930 . S
H200 C191 0.929 . S
H201 C192 0.930 . S
H202 C193 0.931 . S
H203 C194 0.930 . S
H204 C222 0.951 . S
H205 C224 0.951 . S
H206 C226 0.950 . S
H207 C227 0.950 . S
H208 C229 0.950 . S
H209 C232 0.950 . S
H210 C233 0.950 . S
H211 C235 0.950 . S
H212 C236 0.950 . S
H213 C237 0.951 . S
H214 C239 0.951 . S
H215 C241 0.950 . S
H216 C242 0.950 . S
H217 C244 0.950 . S
H218 C247 0.950 . S
H219 C248 0.950 . S
H220 C250 0.950 . S
H221 C251 0.950 . S
C222 H204 0.951 . S
C222 C223 1.366 . S
C222 C224 1.388 . S
C223 C222 1.366 . S
C223 C227 1.385 . S
C224 H205 0.951 . S
C224 C222 1.388 . S
C224 C225 1.366 . S
C225 C224 1.366 . S
C225 C226 1.414 . S
C225 C228 1.499 . S
C226 H206 0.950 . S
C226 C225 1.414 . S
C226 C227 1.374 . S
C227 H207 0.950 . S
C227 C223 1.385 . S
C227 C226 1.374 . S
C228 C225 1.499 . S
C228 C229 1.373 . S
C228 C230 1.389 . S
C229 H208 0.950 . S
C229 C228 1.373 . S
C229 C245 1.377 . S
C230 C228 1.389 . S
C230 C231 1.524 . S
C230 C244 1.377 . S
C231 C230 1.524 . S
C231 C232 1.397 . S
C231 C236 1.363 . S
C232 H209 0.950 . S
C232 C231 1.397 . S
C232 C233 1.334 . S
C233 H210 0.950 . S
C233 C232 1.334 . S
C233 C234 1.287 . S
C234 C233 1.287 . S
C234 C235 1.524 . S
C234 H253 0.913 . S
C235 H211 0.950 . S
C235 C234 1.524 . S
C235 C236 1.415 . S
C236 H212 0.950 . S
C236 C231 1.363 . S
C236 C235 1.415 . S
C237 H213 0.951 . S
C237 C238 1.366 . S
C237 C239 1.388 . S
C238 C237 1.366 . S
C238 C242 1.385 . S
C239 H214 0.951 . S
C239 C237 1.388 . S
C239 C240 1.366 . S
C240 C239 1.366 . S
C240 C241 1.414 . S
C240 C243 1.499 . S
C241 H215 0.950 . S
C241 C240 1.414 . S
C241 C242 1.374 . S
C242 H216 0.950 . S
C242 C238 1.385 . S
C242 C241 1.374 . S
C243 C240 1.499 . S
C243 C244 1.373 . S
C243 C245 1.389 . S
C244 H217 0.950 . S
C244 C230 1.377 . S
C244 C243 1.373 . S
C245 C229 1.377 . S
C245 C243 1.389 . S
C245 C246 1.524 . S
C246 C245 1.524 . S
C246 C247 1.397 . S
C246 C251 1.363 . S
C247 H218 0.950 . S
C247 C246 1.397 . S
C247 C248 1.334 . S
C248 H219 0.950 . S
C248 C247 1.334 . S
C248 C249 1.287 . S
C249 C248 1.287 . S
C249 C250 1.524 . S
C249 H252 0.999 . S
C250 H220 0.950 . S
C250 C249 1.524 . S
C250 C251 1.415 . S
C251 H221 0.950 . S
C251 C246 1.363 . S
C251 C250 1.415 . S
H252 C249 0.999 . S
H253 C234 0.913 . S
H254 C272 0.951 . S
H255 C274 0.951 . S
H256 C276 0.950 1_556 S
H257 C277 0.950 1_556 S
H258 C279 0.950 . S
H259 C282 0.950 . S
H260 C283 0.950 . S
H261 C285 0.950 . S
H262 C286 0.950 . S
H263 C287 0.951 1_556 S
H264 C289 0.951 1_556 S
H265 C291 0.950 . S
H266 C292 0.950 . S
H267 C294 0.950 . S
H268 C297 0.950 . S
H269 C298 0.950 . S
H270 C300 0.950 . S
H271 C301 0.950 . S
C272 H254 0.951 . S
C272 C273 1.366 . S
C272 C274 1.388 . S
C273 C272 1.366 . S
C273 C277 1.385 . S
C274 H255 0.951 . S
C274 C272 1.388 . S
C274 C275 1.366 . S
C275 C274 1.366 . S
C275 C276 1.414 . S
C275 C278 1.499 . S
C276 H256 0.950 1_554 S
C276 C275 1.414 . S
C276 C277 1.374 . S
C277 H257 0.950 1_554 S
C277 C273 1.385 . S
C277 C276 1.374 . S
C278 C275 1.499 . S
C278 C279 1.373 . S
C278 C280 1.389 . S
C279 H258 0.950 . S
C279 C278 1.373 . S
C279 C295 1.377 . S
C280 C278 1.389 . S
C280 C281 1.524 . S
C280 C294 1.377 . S
C281 C280 1.524 . S
C281 C282 1.397 1_554 S
C281 C286 1.363 . S
C282 H259 0.950 . S
C282 C281 1.397 1_556 S
C282 C283 1.334 . S
C283 H260 0.950 . S
C283 C282 1.334 . S
C283 C284 1.287 . S
C284 C283 1.287 . S
C284 C285 1.524 1_556 S
C284 H303 0.913 . S
C285 H261 0.950 . S
C285 C284 1.524 1_554 S
C285 C286 1.415 . S
C286 H262 0.950 . S
C286 C281 1.363 . S
C286 C285 1.415 . S
C287 H263 0.951 1_554 S
C287 C288 1.366 . S
C287 C289 1.388 . S
C288 C287 1.366 . S
C288 C292 1.385 . S
C289 H264 0.951 1_554 S
C289 C287 1.388 . S
C289 C290 1.366 . S
C290 C289 1.366 . S
C290 C291 1.414 . S
C290 C293 1.499 . S
C291 H265 0.950 . S
C291 C290 1.414 . S
C291 C292 1.374 . S
C292 H266 0.950 . S
C292 C288 1.385 . S
C292 C291 1.374 . S
C293 C290 1.499 . S
C293 C294 1.373 . S
C293 C295 1.389 . S
C294 H267 0.950 . S
C294 C280 1.377 . S
C294 C293 1.373 . S
C295 C279 1.377 . S
C295 C293 1.389 . S
C295 C296 1.524 . S
C296 C295 1.524 . S
C296 C297 1.397 . S
C296 C301 1.363 . S
C297 H268 0.950 . S
C297 C296 1.397 . S
C297 C298 1.334 . S
C298 H269 0.950 . S
C298 C297 1.334 . S
C298 C299 1.287 . S
C299 C298 1.287 . S
C299 C300 1.524 . S
C299 H302 0.999 . S
C300 H270 0.950 . S
C300 C299 1.524 . S
C300 C301 1.415 . S
C301 H271 0.950 . S
C301 C296 1.363 . S
C301 C300 1.415 . S
H302 C299 0.999 . S
H303 C284 0.913 . S
H304 C322 0.951 . S
H305 C324 0.951 . S
H306 C326 0.950 . S
H307 C327 0.950 . S
H308 C329 0.950 . S
H309 C332 0.950 . S
H310 C333 0.950 . S
H311 C335 0.950 . S
H312 C336 0.950 . S
H313 C337 0.951 . S
H314 C339 0.951 . S
H315 C341 0.950 . S
H316 C342 0.950 . S
H317 C344 0.950 . S
H318 C347 0.950 . S
H319 C348 0.950 . S
H320 C350 0.950 . S
H321 C351 0.950 . S
C322 H304 0.951 . S
C322 C323 1.366 . S
C322 C324 1.388 . S
C323 C322 1.366 . S
C323 C327 1.385 . S
C324 H305 0.951 . S
C324 C322 1.388 . S
C324 C325 1.366 . S
C325 C324 1.366 . S
C325 C326 1.414 . S
C325 C328 1.499 . S
C326 H306 0.950 . S
C326 C325 1.414 . S
C326 C327 1.374 . S
C327 H307 0.950 . S
C327 C323 1.385 . S
C327 C326 1.374 . S
C328 C325 1.499 . S
C328 C329 1.373 . S
C328 C330 1.389 . S
C329 H308 0.950 . S
C329 C328 1.373 . S
C329 C345 1.377 . S
C330 C328 1.389 . S
C330 C331 1.524 . S
C330 C344 1.377 . S
C331 C330 1.524 . S
C331 C332 1.397 . S
C331 C336 1.363 . S
C332 H309 0.950 . S
C332 C331 1.397 . S
C332 C333 1.334 . S
C333 H310 0.950 . S
C333 C332 1.334 . S
C333 C334 1.287 . S
C334 C333 1.287 . S
C334 C335 1.524 . S
C334 H353 0.913 . S
C335 H311 0.950 . S
C335 C334 1.524 . S
C335 C336 1.415 . S
C336 H312 0.950 . S
C336 C331 1.363 . S
C336 C335 1.415 . S
C337 H313 0.951 . S
C337 C338 1.366 . S
C337 C339 1.388 . S
C338 C337 1.366 . S
C338 C342 1.385 . S
C339 H314 0.951 . S
C339 C337 1.388 . S
C339 C340 1.366 . S
C340 C339 1.366 . S
C340 C341 1.414 . S
C340 C343 1.499 . S
C341 H315 0.950 . S
C341 C340 1.414 . S
C341 C342 1.374 . S
C342 H316 0.950 . S
C342 C338 1.385 . S
C342 C341 1.374 . S
C343 C340 1.499 . S
C343 C344 1.373 . S
C343 C345 1.389 . S
C344 H317 0.950 . S
C344 C330 1.377 . S
C344 C343 1.373 . S
C345 C329 1.377 . S
C345 C343 1.389 . S
C345 C346 1.524 . S
C346 C345 1.524 . S
C346 C347 1.397 . S
C346 C351 1.363 . S
C347 H318 0.950 . S
C347 C346 1.397 . S
C347 C348 1.334 . S
C348 H319 0.950 . S
C348 C347 1.334 . S
C348 C349 1.287 . S
C349 C348 1.287 . S
C349 C350 1.524 . S
C349 H352 0.999 . S
C350 H320 0.950 . S
C350 C349 1.524 . S
C350 C351 1.415 . S
C351 H321 0.950 . S
C351 C346 1.363 . S
C351 C350 1.415 . S
H352 C349 0.999 . S
H353 C334 0.913 . S
H354 C372 0.963 . S
H355 C374 0.951 1_556 S
H356 C376 0.950 . S
H357 C377 0.950 . S
H358 C379 0.950 . S
H359 C382 0.950 . S
H360 C383 0.950 . S
H361 C385 0.950 . S
H362 C386 0.950 . S
H363 C387 0.951 . S
H364 C389 0.951 . S
H365 C391 0.950 1_556 S
H366 C392 0.950 1_556 S
H367 C394 0.950 . S
H368 C397 0.950 . S
H369 C398 0.950 . S
H370 C400 0.950 . S
H371 C401 0.950 . S
C372 H354 0.963 . S
C372 C373 1.366 . S
C372 C374 1.388 . S
C373 C372 1.366 . S
C373 C377 1.385 . S
C374 H355 0.951 1_554 S
C374 C372 1.388 . S
C374 C375 1.366 . S
C375 C374 1.366 . S
C375 C376 1.414 . S
C375 C378 1.499 . S
C376 H356 0.950 . S
C376 C375 1.414 . S
C376 C377 1.374 . S
C377 H357 0.950 . S
C377 C373 1.385 . S
C377 C376 1.374 . S
C378 C375 1.499 . S
C378 C379 1.373 . S
C378 C380 1.389 1_554 S
C379 H358 0.950 . S
C379 C378 1.373 . S
C379 C395 1.377 . S
C380 C378 1.389 1_556 S
C380 C381 1.524 . S
C380 C394 1.377 . S
C381 C380 1.524 . S
C381 C382 1.397 . S
C381 C386 1.363 . S
C382 H359 0.950 . S
C382 C381 1.397 . S
C382 C383 1.334 . S
C383 H360 0.950 . S
C383 C382 1.334 . S
C383 C384 1.287 . S
C384 C383 1.287 . S
C384 C385 1.524 . S
C384 H403 0.913 . S
C385 H361 0.950 . S
C385 C384 1.524 . S
C385 C386 1.415 . S
C386 H362 0.950 . S
C386 C381 1.363 . S
C386 C385 1.415 . S
C387 H363 0.951 . S
C387 C388 1.366 . S
C387 C389 1.388 . S
C388 C387 1.366 . S
C388 C392 1.385 . S
C389 H364 0.951 . S
C389 C387 1.388 . S
C389 C390 1.366 . S
C390 C389 1.366 . S
C390 C391 1.414 . S
C390 C393 1.499 . S
C391 H365 0.950 1_554 S
C391 C390 1.414 . S
C391 C392 1.374 . S
C392 H366 0.950 1_554 S
C392 C388 1.385 . S
C392 C391 1.374 . S
C393 C390 1.499 . S
C393 C394 1.373 1_554 S
C393 C395 1.389 . S
C394 H367 0.950 . S
C394 C380 1.377 . S
C394 C393 1.373 1_556 S
C395 C379 1.377 . S
C395 C393 1.389 . S
C395 C396 1.524 . S
C396 C395 1.524 . S
C396 C397 1.397 . S
C396 C401 1.363 . S
C397 H368 0.950 . S
C397 C396 1.397 . S
C397 C398 1.334 . S
C398 H369 0.950 . S
C398 C397 1.334 . S
C398 C399 1.287 . S
C399 C398 1.287 . S
C399 C400 1.524 . S
C399 H402 0.999 . S
C400 H370 0.950 . S
C400 C399 1.524 . S
C400 C401 1.415 . S
C401 H371 0.950 . S
C401 C396 1.363 . S
C401 C400 1.415 . S
H402 C399 0.999 . S
H403 C384 0.913 . S
H404 C422 0.951 . S
H405 C424 0.951 . S
H406 C426 0.950 . S
H407 C427 0.950 . S
H408 C429 0.950 . S
H409 C432 0.950 . S
H410 C433 0.950 . S
H411 C435 0.950 . S
H412 C436 0.950 . S
H413 C437 0.951 . S
H414 C439 0.951 . S
H415 C441 0.950 . S
H416 C442 0.922 1_545 S
H417 C444 0.950 . S
H418 C447 0.950 . S
H419 C448 0.950 . S
H420 C450 0.950 . S
H421 C451 0.950 . S
C422 H404 0.951 . S
C422 C423 1.366 . S
C422 C424 1.388 . S
C423 C422 1.366 . S
C423 C427 1.385 . S
C424 H405 0.951 . S
C424 C422 1.388 . S
C424 C425 1.366 . S
C425 C424 1.366 . S
C425 C426 1.414 . S
C425 C428 1.499 . S
C426 H406 0.950 . S
C426 C425 1.414 . S
C426 C427 1.374 . S
C427 H407 0.950 . S
C427 C423 1.385 . S
C427 C426 1.374 . S
C428 C425 1.499 . S
C428 C429 1.373 . S
C428 C430 1.389 . S
C429 H408 0.950 . S
C429 C428 1.373 . S
C429 C445 1.377 . S
C430 C428 1.389 . S
C430 C431 1.524 . S
C430 C444 1.377 . S
C431 C430 1.524 . S
C431 C432 1.397 . S
C431 C436 1.363 . S
C432 H409 0.950 . S
C432 C431 1.397 . S
C432 C433 1.334 . S
C433 H410 0.950 . S
C433 C432 1.334 . S
C433 C434 1.287 . S
C434 C433 1.287 . S
C434 C435 1.524 . S
C434 H453 0.913 . S
C435 H411 0.950 . S
C435 C434 1.524 . S
C435 C436 1.415 . S
C436 H412 0.950 . S
C436 C431 1.363 . S
C436 C435 1.415 . S
C437 H413 0.951 . S
C437 C438 1.366 . S
C437 C439 1.388 . S
C438 C437 1.366 . S
C438 C442 1.385 . S
C439 H414 0.951 . S
C439 C437 1.388 . S
C439 C440 1.366 . S
C440 C439 1.366 . S
C440 C441 1.414 . S
C440 C443 1.499 . S
C441 H415 0.950 . S
C441 C440 1.414 . S
C441 C442 1.374 . S
C442 H416 0.922 1_565 S
C442 C438 1.385 . S
C442 C441 1.374 . S
C443 C440 1.499 . S
C443 C444 1.373 . S
C443 C445 1.389 . S
C444 H417 0.950 . S
C444 C430 1.377 . S
C444 C443 1.373 . S
C445 C429 1.377 . S
C445 C443 1.389 . S
C445 C446 1.524 . S
C446 C445 1.524 . S
C446 C447 1.397 . S
C446 C451 1.363 . S
C447 H418 0.950 . S
C447 C446 1.397 . S
C447 C448 1.334 . S
C448 H419 0.950 . S
C448 C447 1.334 . S
C448 C449 1.287 . S
C449 C448 1.287 . S
C449 C450 1.524 . S
C449 H452 1.034 . S
C450 H420 0.950 . S
C450 C449 1.524 . S
C450 C451 1.415 . S
C451 H421 0.950 . S
C451 C446 1.363 . S
C451 C450 1.415 . S
H452 C449 1.034 . S
H453 C434 0.913 . S
H454 C472 0.951 . S
H455 C474 0.951 . S
H456 C476 0.950 . S
H457 C477 0.950 . S
H458 C479 0.950 . S
H459 C482 0.950 . S
H460 C483 0.950 . S
H461 C485 0.950 . S
H462 C486 0.950 . S
H463 C487 0.951 . S
H464 C489 0.951 . S
H465 C491 0.950 . S
H466 C492 0.950 . S
H467 C494 0.950 . S
H468 C497 0.950 . S
H469 C498 0.950 . S
H470 C500 0.950 . S
H471 C501 0.950 . S
C472 H454 0.951 . S
C472 C473 1.366 . S
C472 C474 1.388 . S
C473 C472 1.366 . S
C473 C477 1.385 . S
C474 H455 0.951 . S
C474 C472 1.388 . S
C474 C475 1.366 . S
C475 C474 1.366 . S
C475 C476 1.414 . S
C475 C478 1.499 . S
C476 H456 0.950 . S
C476 C475 1.414 . S
C476 C477 1.374 . S
C477 H457 0.950 . S
C477 C473 1.385 . S
C477 C476 1.374 . S
C478 C475 1.499 . S
C478 C479 1.373 . S
C478 C480 1.389 . S
C479 H458 0.950 . S
C479 C478 1.373 . S
C479 C495 1.377 . S
C480 C478 1.389 . S
C480 C481 1.524 . S
C480 C494 1.377 . S
C481 C480 1.524 . S
C481 C482 1.397 . S
C481 C486 1.363 . S
C482 H459 0.950 . S
C482 C481 1.397 . S
C482 C483 1.334 . S
C483 H460 0.950 . S
C483 C482 1.334 . S
C483 C484 1.287 . S
C484 C483 1.287 . S
C484 C485 1.524 . S
C484 H503 0.913 . S
C485 H461 0.950 . S
C485 C484 1.524 . S
C485 C486 1.415 . S
C486 H462 0.950 . S
C486 C481 1.363 . S
C486 C485 1.415 . S
C487 H463 0.951 . S
C487 C488 1.366 . S
C487 C489 1.388 . S
C488 C487 1.366 . S
C488 C492 1.385 . S
C489 H464 0.951 . S
C489 C487 1.388 . S
C489 C490 1.366 . S
C490 C489 1.366 . S
C490 C491 1.414 . S
C490 C493 1.499 . S
C491 H465 0.950 . S
C491 C490 1.414 . S
C491 C492 1.374 . S
C492 H466 0.950 . S
C492 C488 1.385 . S
C492 C491 1.374 . S
C493 C490 1.499 . S
C493 C494 1.373 . S
C493 C495 1.389 . S
C494 H467 0.950 . S
C494 C480 1.377 . S
C494 C493 1.373 . S
C495 C479 1.377 . S
C495 C493 1.389 . S
C495 C496 1.524 . S
C496 C495 1.524 . S
C496 C497 1.397 . S
C496 C501 1.363 . S
C497 H468 0.950 . S
C497 C496 1.397 . S
C497 C498 1.334 . S
C498 H469 0.950 . S
C498 C497 1.334 . S
C498 C499 1.287 . S
C499 C498 1.287 . S
C499 C500 1.524 . S
C499 H502 0.999 . S
C500 H470 0.950 . S
C500 C499 1.524 . S
C500 C501 1.415 . S
C501 H471 0.950 . S
C501 C496 1.363 . S
C501 C500 1.415 . S
H502 C499 0.999 . S
H503 C484 0.913 . S
H504 C522 0.951 . S
H505 C524 0.951 . S
H506 C526 0.950 . S
H507 C527 0.950 . S
H508 C529 0.950 . S
H509 C532 0.950 . S
H510 C533 0.950 . S
H511 C535 0.950 . S
H512 C536 0.950 . S
H513 C537 0.951 . S
H514 C539 0.951 . S
H515 C541 0.950 . S
H516 C542 0.950 . S
H517 C544 0.950 . S
H518 C547 0.950 . S
H519 C548 0.950 . S
H520 C550 0.950 . S
H521 C551 0.950 . S
C522 H504 0.951 . S
C522 C523 1.366 . S
C522 C524 1.388 . S
C523 C522 1.366 . S
C523 C527 1.385 . S
C524 H505 0.951 . S
C524 C522 1.388 . S
C524 C525 1.366 . S
C525 C524 1.366 . S
C525 C526 1.414 . S
C525 C528 1.499 . S
C526 H506 0.950 . S
C526 C525 1.414 . S
C526 C527 1.374 . S
C527 H507 0.950 . S
C527 C523 1.385 . S
C527 C526 1.374 . S
C528 C525 1.499 . S
C528 C529 1.373 . S
C528 C530 1.389 . S
C529 H508 0.950 . S
C529 C528 1.373 . S
C529 C545 1.377 . S
C530 C528 1.389 . S
C530 C531 1.524 . S
C530 C544 1.377 . S
C531 C530 1.524 . S
C531 C532 1.397 . S
C531 C536 1.363 . S
C532 H509 0.950 . S
C532 C531 1.397 . S
C532 C533 1.334 1_545 S
C533 H510 0.950 . S
C533 C532 1.334 1_565 S
C533 C534 1.287 . S
C534 C533 1.287 . S
C534 C535 1.524 . S
C534 H553 0.913 . S
C535 H511 0.950 . S
C535 C534 1.524 . S
C535 C536 1.415 1_565 S
C536 H512 0.950 . S
C536 C531 1.363 . S
C536 C535 1.415 1_545 S
C537 H513 0.951 . S
C537 C538 1.366 . S
C537 C539 1.388 . S
C538 C537 1.366 . S
C538 C542 1.385 . S
C539 H514 0.951 . S
C539 C537 1.388 . S
C539 C540 1.366 . S
C540 C539 1.366 . S
C540 C541 1.414 . S
C540 C543 1.499 . S
C541 H515 0.950 . S
C541 C540 1.414 . S
C541 C542 1.374 . S
C542 H516 0.950 . S
C542 C538 1.385 . S
C542 C541 1.374 . S
C543 C540 1.499 . S
C543 C544 1.373 . S
C543 C545 1.389 . S
C544 H517 0.950 . S
C544 C530 1.377 . S
C544 C543 1.373 . S
C545 C529 1.377 . S
C545 C543 1.389 . S
C545 C546 1.524 . S
C546 C545 1.524 . S
C546 C547 1.397 . S
C546 C551 1.363 . S
C547 H518 0.950 . S
C547 C546 1.397 . S
C547 C548 1.334 . S
C548 H519 0.950 . S
C548 C547 1.334 . S
C548 C549 1.287 . S
C549 C548 1.287 . S
C549 C550 1.524 . S
C549 H552 0.999 . S
C550 H520 0.950 . S
C550 C549 1.524 . S
C550 C551 1.415 . S
C551 H521 0.950 . S
C551 C546 1.363 . S
C551 C550 1.415 . S
H552 C549 0.999 . S
H553 C534 0.913 . S
H554 C572 0.951 . S
H555 C574 0.951 . S
H556 C576 0.950 . S
H557 C577 0.950 . S
H558 C579 0.950 . S
H559 C582 0.950 . S
H560 C583 0.950 . S
H561 C585 0.950 . S
H562 C586 0.950 . S
H563 C587 0.951 . S
H564 C589 0.951 . S
H565 C591 0.950 . S
H566 C592 0.950 . S
H567 C594 0.950 . S
H568 C597 0.950 . S
H569 C598 0.950 . S
H570 C600 0.950 . S
H571 C601 0.950 . S
C572 H554 0.951 . S
C572 C573 1.366 . S
C572 C574 1.388 . S
C573 C572 1.366 . S
C573 C577 1.385 . S
C574 H555 0.951 . S
C574 C572 1.388 . S
C574 C575 1.366 . S
C575 C574 1.366 . S
C575 C576 1.414 . S
C575 C578 1.499 . S
C576 H556 0.950 . S
C576 C575 1.414 . S
C576 C577 1.374 . S
C577 H557 0.950 . S
C577 C573 1.385 . S
C577 C576 1.374 . S
C578 C575 1.499 . S
C578 C579 1.373 . S
C578 C580 1.389 . S
C579 H558 0.950 . S
C579 C578 1.373 . S
C579 C595 1.377 . S
C580 C578 1.389 . S
C580 C581 1.524 . S
C580 C594 1.377 . S
C581 C580 1.524 . S
C581 C582 1.397 . S
C581 C586 1.363 . S
C582 H559 0.950 . S
C582 C581 1.397 . S
C582 C583 1.334 . S
C583 H560 0.950 . S
C583 C582 1.334 . S
C583 C584 1.287 . S
C584 C583 1.287 . S
C584 C585 1.524 . S
C584 H603 0.913 . S
C585 H561 0.950 . S
C585 C584 1.524 . S
C585 C586 1.415 . S
C586 H562 0.950 . S
C586 C581 1.363 . S
C586 C585 1.415 . S
C587 H563 0.951 . S
C587 C588 1.366 . S
C587 C589 1.388 . S
C588 C587 1.366 . S
C588 C592 1.385 . S
C589 H564 0.951 . S
C589 C587 1.388 . S
C589 C590 1.366 . S
C590 C589 1.366 . S
C590 C591 1.414 . S
C590 C593 1.499 . S
C591 H565 0.950 . S
C591 C590 1.414 . S
C591 C592 1.374 . S
C592 H566 0.950 . S
C592 C588 1.385 . S
C592 C591 1.374 . S
C593 C590 1.499 . S
C593 C594 1.373 . S
C593 C595 1.389 . S
C594 H567 0.950 . S
C594 C580 1.377 . S
C594 C593 1.373 . S
C595 C579 1.377 . S
C595 C593 1.389 . S
C595 C596 1.524 . S
C596 C595 1.524 . S
C596 C597 1.397 . S
C596 C601 1.363 . S
C597 H568 0.950 . S
C597 C596 1.397 . S
C597 C598 1.334 . S
C598 H569 0.950 . S
C598 C597 1.334 . S
C598 C599 1.287 . S
C599 C598 1.287 . S
C599 C600 1.524 . S
C599 H602 0.999 . S
C600 H570 0.950 . S
C600 C599 1.524 . S
C600 C601 1.415 . S
C601 H571 0.950 . S
C601 C596 1.363 . S
C601 C600 1.415 . S
H602 C599 0.999 . S
H603 C584 0.913 . S
H604 C622 0.951 . S
H605 C624 0.951 . S
H606 C626 0.950 . S
H607 C627 0.950 . S
H608 C629 0.950 . S
H609 C632 0.950 . S
H610 C633 0.950 . S
H611 C635 0.950 . S
H612 C636 0.950 . S
H613 C637 0.951 . S
H614 C639 0.951 . S
H615 C641 0.950 . S
H616 C642 0.950 . S
H617 C644 0.950 . S
H618 C647 0.950 . S
H619 C648 0.950 . S
H620 C650 0.950 . S
H621 C651 0.950 . S
C622 H604 0.951 . S
C622 C623 1.366 . S
C622 C624 1.388 . S
C623 C622 1.366 . S
C623 C627 1.385 . S
C624 H605 0.951 . S
C624 C622 1.388 . S
C624 C625 1.366 . S
C625 C624 1.366 . S
C625 C626 1.414 . S
C625 C628 1.499 . S
C626 H606 0.950 . S
C626 C625 1.414 . S
C626 C627 1.374 . S
C627 H607 0.950 . S
C627 C623 1.385 . S
C627 C626 1.374 . S
C628 C625 1.499 . S
C628 C629 1.373 . S
C628 C630 1.389 . S
C629 H608 0.950 . S
C629 C628 1.373 . S
C629 C645 1.377 . S
C630 C628 1.389 . S
C630 C631 1.524 . S
C630 C644 1.377 . S
C631 C630 1.524 . S
C631 C632 1.397 . S
C631 C636 1.363 . S
C632 H609 0.950 . S
C632 C631 1.397 . S
C632 C633 1.334 . S
C633 H610 0.950 . S
C633 C632 1.334 . S
C633 C634 1.287 . S
C634 C633 1.287 . S
C634 C635 1.524 . S
C634 H653 0.913 . S
C635 H611 0.950 . S
C635 C634 1.524 . S
C635 C636 1.415 . S
C636 H612 0.950 . S
C636 C631 1.363 . S
C636 C635 1.415 . S
C637 H613 0.951 . S
C637 C638 1.366 . S
C637 C639 1.388 . S
C638 C637 1.366 . S
C638 C642 1.385 . S
C639 H614 0.951 . S
C639 C637 1.388 . S
C639 C640 1.366 . S
C640 C639 1.366 . S
C640 C641 1.414 . S
C640 C643 1.499 . S
C641 H615 0.950 . S
C641 C640 1.414 . S
C641 C642 1.374 . S
C642 H616 0.950 . S
C642 C638 1.385 . S
C642 C641 1.374 . S
C643 C640 1.499 . S
C643 C644 1.373 . S
C643 C645 1.389 . S
C644 H617 0.950 . S
C644 C630 1.377 . S
C644 C643 1.373 . S
C645 C629 1.377 . S
C645 C643 1.389 . S
C645 C646 1.524 . S
C646 C645 1.524 . S
C646 C647 1.397 . S
C646 C651 1.363 . S
C647 H618 0.950 . S
C647 C646 1.397 . S
C647 C648 1.334 . S
C648 H619 0.950 . S
C648 C647 1.334 . S
C648 C649 1.287 . S
C649 C648 1.287 . S
C649 C650 1.524 . S
C649 H652 0.999 . S
C650 H620 0.950 . S
C650 C649 1.524 . S
C650 C651 1.415 . S
C651 H621 0.950 . S
C651 C646 1.363 . S
C651 C650 1.415 . S
H652 C649 0.999 . S
H653 C634 0.913 . S
H654 C672 0.951 1_554 S
H655 C674 0.951 . S
H656 C676 0.950 . S
H657 C677 0.950 . S
H658 C679 0.950 . S
H659 C682 0.950 . S
H660 C683 0.950 . S
H661 C685 0.950 . S
H662 C686 0.950 . S
H663 C687 0.951 . S
H664 C689 0.951 . S
H665 C691 0.950 . S
H666 C692 0.950 . S
H667 C694 0.950 . S
H668 C697 0.950 . S
H669 C698 0.950 . S
H670 C700 0.950 . S
H671 C701 0.950 . S
C672 H654 0.951 1_556 S
C672 C673 1.366 . S
C672 C674 1.388 . S
C673 C672 1.366 . S
C673 C677 1.385 . S
C674 H655 0.951 . S
C674 C672 1.388 . S
C674 C675 1.366 . S
C675 C674 1.366 . S
C675 C676 1.414 . S
C675 C678 1.499 . S
C676 H656 0.950 . S
C676 C675 1.414 . S
C676 C677 1.374 . S
C677 H657 0.950 . S
C677 C673 1.385 . S
C677 C676 1.374 . S
C678 C675 1.499 . S
C678 C679 1.373 . S
C678 C680 1.389 . S
C679 H658 0.950 . S
C679 C678 1.373 . S
C679 C695 1.377 . S
C680 C678 1.389 . S
C680 C681 1.524 . S
C680 C694 1.377 . S
C681 C680 1.524 . S
C681 C682 1.397 . S
C681 C686 1.363 . S
C682 H659 0.950 . S
C682 C681 1.397 . S
C682 C683 1.334 . S
C683 H660 0.950 . S
C683 C682 1.334 . S
C683 C684 1.287 . S
C684 C683 1.287 . S
C684 C685 1.524 . S
C684 H703 0.913 . S
C685 H661 0.950 . S
C685 C684 1.524 . S
C685 C686 1.415 . S
C686 H662 0.950 . S
C686 C681 1.363 . S
C686 C685 1.415 . S
C687 H663 0.951 . S
C687 C688 1.366 . S
C687 C689 1.388 . S
C688 C687 1.366 . S
C688 C692 1.385 . S
C689 H664 0.951 . S
C689 C687 1.388 . S
C689 C690 1.366 . S
C690 C689 1.366 . S
C690 C691 1.414 . S
C690 C693 1.499 . S
C691 H665 0.950 . S
C691 C690 1.414 . S
C691 C692 1.374 . S
C692 H666 0.950 . S
C692 C688 1.385 . S
C692 C691 1.374 . S
C693 C690 1.499 . S
C693 C694 1.373 . S
C693 C695 1.389 . S
C694 H667 0.950 . S
C694 C680 1.377 . S
C694 C693 1.373 . S
C695 C679 1.377 . S
C695 C693 1.389 . S
C695 C696 1.524 . S
C696 C695 1.524 . S
C696 C697 1.397 . S
C696 C701 1.363 . S
C697 H668 0.950 . S
C697 C696 1.397 . S
C697 C698 1.334 . S
C698 H669 0.950 . S
C698 C697 1.334 . S
C698 C699 1.287 . S
C699 C698 1.287 . S
C699 C700 1.524 . S
C699 H702 0.999 . S
C700 H670 0.950 . S
C700 C699 1.524 . S
C700 C701 1.415 . S
C701 H671 0.950 . S
C701 C696 1.363 . S
C701 C700 1.415 . S
H702 C699 0.999 . S
H703 C684 0.913 . S
H704 C722 0.951 . S
H705 C724 0.951 . S
H706 C726 0.950 . S
H707 C727 0.950 . S
H708 C729 0.950 . S
H709 C732 0.950 . S
H710 C733 0.950 . S
H711 C735 0.950 . S
H712 C736 0.950 . S
H713 C737 0.951 . S
H714 C739 0.951 . S
H715 C741 0.950 . S
H716 C742 0.950 . S
H717 C744 0.950 . S
H718 C747 0.950 . S
H719 C748 0.950 . S
H720 C750 0.950 . S
H721 C751 0.950 . S
C722 H704 0.951 . S
C722 C723 1.366 . S
C722 C724 1.388 . S
C723 C722 1.366 . S
C723 C727 1.385 . S
C724 H705 0.951 . S
C724 C722 1.388 . S
C724 C725 1.366 . S
C725 C724 1.366 . S
C725 C726 1.414 . S
C725 C728 1.499 . S
C726 H706 0.950 . S
C726 C725 1.414 . S
C726 C727 1.374 . S
C727 H707 0.950 . S
C727 C723 1.385 . S
C727 C726 1.374 . S
C728 C725 1.499 . S
C728 C729 1.373 . S
C728 C730 1.389 . S
C729 H708 0.950 . S
C729 C728 1.373 . S
C729 C745 1.377 . S
C730 C728 1.389 . S
C730 C731 1.524 . S
C730 C744 1.377 . S
C731 C730 1.524 . S
C731 C732 1.397 . S
C731 C736 1.363 . S
C732 H709 0.950 . S
C732 C731 1.397 . S
C732 C733 1.334 . S
C733 H710 0.950 . S
C733 C732 1.334 . S
C733 C734 1.287 . S
C734 C733 1.287 . S
C734 C735 1.524 . S
C734 H753 0.913 . S
C735 H711 0.950 . S
C735 C734 1.524 . S
C735 C736 1.415 . S
C736 H712 0.950 . S
C736 C731 1.363 . S
C736 C735 1.415 . S
C737 H713 0.951 . S
C737 C738 1.366 . S
C737 C739 1.388 . S
C738 C737 1.366 . S
C738 C742 1.385 . S
C739 H714 0.951 . S
C739 C737 1.388 . S
C739 C740 1.366 . S
C740 C739 1.366 . S
C740 C741 1.414 . S
C740 C743 1.499 . S
C741 H715 0.950 . S
C741 C740 1.414 . S
C741 C742 1.374 . S
C742 H716 0.950 . S
C742 C738 1.385 . S
C742 C741 1.374 . S
C743 C740 1.499 . S
C743 C744 1.373 . S
C743 C745 1.389 . S
C744 H717 0.950 . S
C744 C730 1.377 . S
C744 C743 1.373 . S
C745 C729 1.377 . S
C745 C743 1.389 . S
C745 C746 1.524 . S
C746 C745 1.524 . S
C746 C747 1.397 . S
C746 C751 1.363 . S
C747 H718 0.950 . S
C747 C746 1.397 . S
C747 C748 1.334 . S
C748 H719 0.950 . S
C748 C747 1.334 . S
C748 C749 1.287 . S
C749 C748 1.287 . S
C749 C750 1.524 . S
C749 H752 0.999 . S
C750 H720 0.950 . S
C750 C749 1.524 . S
C750 C751 1.415 . S
C751 H721 0.950 . S
C751 C746 1.363 . S
C751 C750 1.415 . S
H752 C749 0.999 . S
H753 C734 0.913 . S
H754 C772 0.951 . S
H755 C774 0.951 . S
H756 C776 0.950 . S
H757 C777 0.950 . S
H758 C779 0.950 . S
H759 C782 0.950 . S
H760 C783 0.950 . S
H761 C785 0.950 . S
H762 C786 0.950 . S
H763 C787 0.951 1_545 S
H764 C789 0.951 . S
H765 C791 0.950 . S
H766 C792 0.950 . S
H767 C794 0.950 . S
H768 C797 0.950 . S
H769 C798 0.950 . S
H770 C800 0.950 . S
H771 C801 0.950 . S
C772 H754 0.951 . S
C772 C773 1.366 . S
C772 C774 1.388 . S
C773 C772 1.366 . S
C773 C777 1.385 . S
C774 H755 0.951 . S
C774 C772 1.388 . S
C774 C775 1.366 . S
C775 C774 1.366 . S
C775 C776 1.414 . S
C775 C778 1.499 . S
C776 H756 0.950 . S
C776 C775 1.414 . S
C776 C777 1.374 . S
C777 H757 0.950 . S
C777 C773 1.385 . S
C777 C776 1.374 . S
C778 C775 1.499 . S
C778 C779 1.373 . S
C778 C780 1.389 . S
C779 H758 0.950 . S
C779 C778 1.373 . S
C779 C795 1.377 . S
C780 C778 1.389 . S
C780 C781 1.524 . S
C780 C794 1.377 . S
C781 C780 1.524 . S
C781 C782 1.397 . S
C781 C786 1.363 . S
C782 H759 0.950 . S
C782 C781 1.397 . S
C782 C783 1.334 . S
C783 H760 0.950 . S
C783 C782 1.334 . S
C783 C784 1.287 . S
C784 C783 1.287 . S
C784 C785 1.524 . S
C784 H803 0.913 . S
C785 H761 0.950 . S
C785 C784 1.524 . S
C785 C786 1.415 . S
C786 H762 0.950 . S
C786 C781 1.363 . S
C786 C785 1.415 . S
C787 H763 0.951 1_565 S
C787 C788 1.366 . S
C787 C789 1.388 . S
C788 C787 1.366 . S
C788 C792 1.385 . S
C789 H764 0.951 . S
C789 C787 1.388 . S
C789 C790 1.366 . S
C790 C789 1.366 . S
C790 C791 1.414 . S
C790 C793 1.499 . S
C791 H765 0.950 . S
C791 C790 1.414 . S
C791 C792 1.374 . S
C792 H766 0.950 . S
C792 C788 1.385 . S
C792 C791 1.374 . S
C793 C790 1.499 . S
C793 C794 1.373 . S
C793 C795 1.389 . S
C794 H767 0.950 . S
C794 C780 1.377 . S
C794 C793 1.373 . S
C795 C779 1.377 . S
C795 C793 1.389 . S
C795 C796 1.524 . S
C796 C795 1.524 . S
C796 C797 1.397 . S
C796 C801 1.363 1_565 S
C797 H768 0.950 . S
C797 C796 1.397 . S
C797 C798 1.334 1_565 S
C798 H769 0.950 . S
C798 C797 1.334 1_545 S
C798 C799 1.287 . S
C799 C798 1.287 . S
C799 C800 1.524 . S
C799 H802 0.999 . S
C800 H770 0.950 . S
C800 C799 1.524 . S
C800 C801 1.415 . S
C801 H771 0.950 . S
C801 C796 1.363 1_545 S
C801 C800 1.415 . S
H802 C799 0.999 . S
H803 C784 0.913 . S
C238 C104 1.549 . S
C223 C34 1.569 . S
C273 C7 1.552 . S
C288 C176 1.535 . S
C323 C16 1.567 . S
C338 C92 1.549 . S
C373 C25 1.550 . S
C388 C188 1.535 . S
C438 C94 1.370 . S
C423 C5 1.531 . S
C488 C175 1.567 . S
C473 C13 1.563 . S
C523 C23 1.540 . S
C538 C91 1.546 . S
C573 C32 1.525 . S
C588 C178 1.371 . S
C638 C190 1.369 . S
C623 C14 1.521 . S
C688 C106 1.367 . S
C673 C22 1.529 1_556 S
C738 C187 1.564 . S
C723 C31 1.562 . S
C773 C4 1.537 . S
C788 C103 1.543 . S
