# Generated by pormake.
# Topology pts, (4,4)-cn, num edge types: 1
# Building blocks:
#     Node 0, Type 0, BuildingBlock: AZAVOO_clean_linker_0, # of connection points: 4
#     Node 1, Type 0, BuildingBlock: AZAVOO_clean_linker_0, # of connection points: 4
#     Node 2, Type 1, BuildingBlock: UXUYUI_clean_sbu_0, # of connection points: 4
#     Node 3, Type 1, BuildingBlock: UXUYUI_clean_sbu_0, # of connection points: 4
#     Edge 4, Type (0, 1), BuildingBlock: ZUJKAS_clean_linker_0, # of connection points: 2
#     Edge 5, Type (0, 1), BuildingBlock: ZUJKAS_clean_linker_0, # of connection points: 2
#     Edge 6, Type (0, 1), BuildingBlock: ZUJKAS_clean_linker_0, # of connection points: 2
#     Edge 7, Type (0, 1), BuildingBlock: ZUJKAS_clean_linker_0, # of connection points: 2
#     Edge 8, Type (0, 1), BuildingBlock: ZUJKAS_clean_linker_0, # of connection points: 2
#     Edge 9, Type (0, 1), BuildingBlock: ZUJKAS_clean_linker_0, # of connection points: 2
#     Edge 10, Type (0, 1), BuildingBlock: ZUJKAS_clean_linker_0, # of connection points: 2
#     Edge 11, Type (0, 1), BuildingBlock: ZUJKAS_clean_linker_0, # of connection points: 2
# Relax obj value: 0.114
# Max RMSD: 0.231
# Mean RMSD: 0.163
data_MOF--net-pts--node1-UXUYUI_clean_sbu_0--node2-AZAVOO_clean_linker_0--edge1-ZUJKAS_clean_linker_0
_symmetry_space_group_name_H-M    P1
_symmetry_Int_Tables_number       1
_symmetry_cell_setting            triclinic
loop_
_symmetry_equiv_pos_as_xyz
'x, y, z'
_cell_length_a     39.061455
_cell_length_b     39.059299
_cell_length_c     67.386301
_cell_angle_alpha  91.271912
_cell_angle_beta   91.26887
_cell_angle_gamma 90.025427
loop_
_atom_site_label
_atom_site_type_symbol
_atom_site_fract_x
_atom_site_fract_y
_atom_site_fract_z
_atom_type_partial_charge
H0 H 0.50306 0.05406 0.87326 0.0
H1 H 0.75888 0.97796 0.04242 0.0
H2 H 0.48509 0.08896 0.97893 0.0
H3 H 0.42981 0.09389 0.96175 0.0
H4 H 0.40132 0.99389 0.98228 0.0
H5 H 0.45754 0.98871 -0.00121 0.0
H6 H 0.55113 0.07728 0.95528 0.0
H7 H 0.53562 0.07671 0.91989 0.0
H8 H 0.48575 0.97876 0.92611 0.0
H9 H 0.50185 0.97946 0.96142 0.0
H10 H 0.61938 0.07159 0.97844 0.0
H11 H 0.66149 0.0662 0.95221 0.0
H12 H 0.62575 0.96329 0.93876 0.0
H13 H 0.58326 0.96931 0.96478 0.0
H14 H 0.62106 0.07492 0.02561 0.0
H15 H 0.67965 0.06917 0.03871 0.0
H16 H 0.67984 0.96268 0.01968 0.0
H17 H 0.62103 0.9687 0.00691 0.0
H18 H 0.55714 0.08201 0.04937 0.0
H19 H 0.58904 0.0843 0.08109 0.0
H20 H 0.60757 0.97544 0.07603 0.0
H21 H 0.57588 0.97348 0.04431 0.0
H22 H 0.47963 0.08674 0.02631 0.0
H23 H 0.43405 0.08974 0.0507 0.0
H24 H 0.45411 0.98462 0.06597 0.0
H25 H 0.49961 0.98194 0.04161 0.0
O26 O 0.50904 0.0537 0.88727 0.0
O27 O 0.48354 0.00349 0.89129 0.0
O28 O 0.73422 0.03579 0.04688 0.0
O29 O 0.73591 0.98108 0.03709 0.0
C30 C 0.51127 0.03297 0.99672 0.0
C31 C 0.53698 0.02888 0.98239 0.0
C32 C 0.57151 0.025 0.98849 0.0
C33 C 0.58038 0.0252 0.00887 0.0
C34 C 0.55454 0.02807 0.0232 0.0
C35 C 0.51996 0.03193 0.01716 0.0
C36 C 0.47536 0.03839 0.98994 0.0
C37 C 0.46661 0.06843 0.98003 0.0
C38 C 0.43489 0.07125 0.97032 0.0
C39 C 0.41119 0.04414 0.97048 0.0
C40 C 0.41923 0.01498 0.98159 0.0
C41 C 0.45114 0.0121 0.9912 0.0
C42 C 0.52765 0.02841 0.96088 0.0
C43 C 0.53702 0.05566 0.94893 0.0
C44 C 0.52804 0.0553 0.92874 0.0
C45 C 0.50942 0.02769 0.92017 0.0
C46 C 0.50008 0.00042 0.93223 0.0
C47 C 0.50918 0.00077 0.9524 0.0
C48 C 0.59836 0.02086 0.97344 0.0
C49 C 0.62092 0.04783 0.96991 0.0
C50 C 0.64499 0.04462 0.95497 0.0
C51 C 0.64694 0.01431 0.94336 0.0
C52 C 0.62458 0.98713 0.94723 0.0
C53 C 0.60048 0.99041 0.96214 0.0
C54 C 0.61685 0.02222 0.01534 0.0
C55 C 0.63388 0.05042 0.02422 0.0
C56 C 0.66731 0.04705 0.0317 0.0
C57 C 0.6844 0.01541 0.0303 0.0
C58 C 0.66742 0.98738 0.02103 0.0
C59 C 0.63391 0.99077 0.01362 0.0
C60 C 0.56456 0.02765 0.04452 0.0
C61 C 0.56698 0.05849 0.05552 0.0
C62 C 0.58523 0.05974 0.0736 0.0
C63 C 0.60126 0.03013 0.08082 0.0
C64 C 0.59593 -0.00128 0.07063 0.0
C65 C 0.57765 0.99749 0.05263 0.0
C66 C 0.49288 0.03414 0.03222 0.0
C67 C 0.47412 0.06441 0.03494 0.0
C68 C 0.44807 0.06602 0.04881 0.0
C69 C 0.4405 0.03741 0.06026 0.0
C70 C 0.45962 0.00723 0.05758 0.0
C71 C 0.48553 0.00561 0.04365 0.0
C72 C 0.49983 0.02744 0.89873 0.0
C73 C 0.71967 0.01153 0.03859 0.0
H74 H 0.98547 0.50002 0.3766 0.0
H75 H 0.10139 0.75623 0.54124 0.0
H76 H 0.97426 0.4812 0.48415 0.0
H77 H 0.96764 0.42636 0.46621 0.0
H78 H 0.07464 0.40433 0.47769 0.0
H79 H 0.08071 0.4589 0.49593 0.0
H80 H 0.98077 0.5492 0.45914 0.0
H81 H 0.97337 0.5332 0.42397 0.0
H82 H 0.07321 0.48535 0.42512 0.0
H83 H 0.08044 0.50192 0.4602 0.0
H84 H 0.9939 0.62068 0.48303 0.0
H85 H 0.9954 0.6645 0.45763 0.0
H86 H 0.09161 0.62374 0.43724 0.0
H87 H 0.08991 0.58007 0.46275 0.0
H88 H 0.99865 0.62046 0.52898 0.0
H89 H 0.00826 0.67892 0.54168 0.0
H90 H 0.11052 0.67664 0.51836 0.0
H91 H 0.10073 0.61795 0.50601 0.0
H92 H 0.99265 0.55539 0.55155 0.0
H93 H 0.99494 0.5864 0.58351 0.0
H94 H 0.10327 0.60374 0.57659 0.0
H95 H 0.10058 0.57302 0.54455 0.0
H96 H 0.98256 0.4837 0.53131 0.0
H97 H 0.98194 0.43793 0.55554 0.0
H98 H 0.09214 0.44535 0.56213 0.0
H99 H 0.09215 0.49186 0.53842 0.0
O100 O 0.98902 0.50632 0.39046 0.0
O101 O 0.0404 0.48187 0.39189 0.0
O102 O 0.04421 0.73287 0.54819 0.0
O103 O 0.09678 0.73327 0.53618 0.0
C104 C 0.03362 0.50986 0.49795 0.0
C105 C 0.03515 0.53573 0.48364 0.0
C106 C 0.04032 0.57017 0.48973 0.0
C107 C 0.04389 0.57873 0.51012 0.0
C108 C 0.04289 0.55271 0.5244 0.0
C109 C 0.0378 0.51829 0.51831 0.0
C110 C 0.02797 0.47394 0.49122 0.0
C111 C 0.99595 0.464 0.48327 0.0
C112 C 0.99233 0.43287 0.47289 0.0
C113 C 0.02074 0.41126 0.47027 0.0
C114 C 0.0522 0.42025 0.47956 0.0
C115 C 0.05576 0.45139 0.48999 0.0
C116 C 0.03108 0.52665 0.46218 0.0
C117 C 0.00106 0.53543 0.45172 0.0
C118 C 0.99688 0.52617 0.43166 0.0
C119 C 0.02267 0.50792 0.42174 0.0
C120 C 0.05283 0.49934 0.43231 0.0
C121 C 0.057 0.50871 0.45234 0.0
C122 C 0.04179 0.59727 0.4747 0.0
C123 C 0.0154 0.62143 0.47317 0.0
C124 C 0.01634 0.64642 0.45869 0.0
C125 C 0.04361 0.64749 0.44544 0.0
C126 C 0.07008 0.62328 0.44709 0.0
C127 C 0.06923 0.59845 0.46166 0.0
C128 C 0.04903 0.615 0.51663 0.0
C129 C 0.02308 0.63268 0.52661 0.0
C130 C 0.02864 0.66605 0.53384 0.0
C131 C 0.06022 0.68243 0.53108 0.0
C132 C 0.08595 0.66478 0.52076 0.0
C133 C 0.08039 0.63133 0.51361 0.0
C134 C 0.04638 0.5623 0.54573 0.0
C135 C 0.01709 0.56478 0.55732 0.0
C136 C 0.01846 0.58254 0.57555 0.0
C137 C 0.04918 0.598 0.58236 0.0
C138 C 0.07913 0.5926 0.57152 0.0
C139 C 0.07773 0.57484 0.55334 0.0
C140 C 0.03738 0.49101 0.5332 0.0
C141 C 0.00648 0.47545 0.53811 0.0
C142 C 0.00625 0.44918 0.55184 0.0
C143 C 0.03701 0.43785 0.56079 0.0
C144 C 0.06793 0.45374 0.5558 0.0
C145 C 0.06806 0.48017 0.54218 0.0
C146 C 0.01804 0.49787 0.40048 0.0
C147 C 0.06644 0.7177 0.53901 0.0
Li148 Li 0.04024 0.07363 0.2641 0.0
Li149 Li 0.03854 0.0106 0.26303 0.0
Li150 Li 0.06717 0.0438 0.23758 0.0
Li151 Li 0.004 0.04346 0.23913 0.0
C152 C 0.1131 0.03568 0.26623 0.0
N153 N 0.1826 0.02347 0.26412 0.0
C154 C 0.12596 0.00273 0.2691 0.0
C155 C 0.13561 0.06248 0.26245 0.0
C156 C 0.16118 0.99707 0.26795 0.0
C157 C 0.17065 0.05576 0.26137 0.0
C158 C 0.97821 0.03008 0.28088 0.0
C159 C 0.93303 0.99045 0.28806 0.0
N160 N 0.933 0.00253 0.30715 0.0
C161 C 0.97763 0.04224 0.30054 0.0
C162 C 0.95565 0.0041 0.27454 0.0
C163 C 0.95463 0.02792 0.3136 0.0
C164 C 0.01049 0.12745 0.28573 0.0
N165 N 0.04054 0.11105 0.28239 0.0
C166 C 0.06876 0.14395 0.30813 0.0
C167 C 0.0695 0.11893 0.29304 0.0
C168 C 0.03785 0.16074 0.31233 0.0
C169 C 0.00857 0.15261 0.30068 0.0
H170 H 0.98775 0.12012 0.27721 0.0
H171 H 0.09292 0.10515 0.29019 0.0
C172 C 0.04233 0.93933 0.27048 0.0
N173 N 0.03948 0.97116 0.27886 0.0
C174 C 0.04284 0.91053 0.28241 0.0
C175 C 0.03782 0.94795 0.31128 0.0
C176 C 0.03787 0.97597 0.29884 0.0
C177 C 0.04023 0.91472 0.30308 0.0
H178 H 0.04439 0.93633 0.25457 0.0
H179 H 0.03674 0.00164 0.30511 0.0
C180 C 0.03185 0.11759 0.23624 0.0
N181 N 0.02453 0.18776 0.24009 0.0
C182 C -0.00029 0.13266 0.23345 0.0
C183 C 0.06032 0.13822 0.24084 0.0
C184 C 0.99653 0.16818 0.23548 0.0
C185 C 0.05606 0.17363 0.24278 0.0
C186 C 0.02311 0.98253 0.21955 0.0
C187 C 0.03599 0.98372 0.20039 0.0
C188 C 0.99723 0.9592 0.22367 0.0
C189 C 0.02248 0.96168 0.18559 0.0
C190 C 0.98436 0.93763 0.20846 0.0
N191 N 0.99714 0.93931 0.18989 0.0
C192 C 0.12279 0.0135 0.21781 0.0
C193 C 0.11241 0.07149 0.20992 0.0
C194 C 0.1507 0.01223 0.20523 0.0
N195 N 0.10453 0.04291 0.22001 0.0
C196 C 0.13999 0.07132 0.1971 0.0
C197 C 0.15958 0.04142 0.19466 0.0
H198 H 0.1156 0.99103 0.22583 0.0
H199 H 0.09728 0.09442 0.21183 0.0
C200 C 0.93398 0.05751 0.23558 0.0
N201 N 0.96101 0.04501 0.22531 0.0
C202 C 0.90152 0.05909 0.22657 0.0
C203 C 0.92536 0.0353 0.19648 0.0
C204 C 0.95746 0.03466 0.20598 0.0
C205 C 0.8969 0.04751 0.20684 0.0
H206 H 0.93765 0.06637 0.25079 0.0
H207 H 0.97947 0.02607 0.19788 0.0
O208 O 0.07865 0.04162 0.26695 0.0
O209 O 0.00059 0.04377 0.2679 0.0
O210 O 0.03537 0.08281 0.23468 0.0
O211 O 0.03613 0.00381 0.23423 0.0
H212 H 0.10892 0.98169 0.27203 0.0
H213 H 0.12607 0.08811 0.26011 0.0
H214 H 0.17148 0.97167 0.27005 0.0
H215 H 0.18833 0.07619 0.2583 0.0
H216 H 0.91545 0.9703 0.28336 0.0
H217 H 0.99496 0.06233 0.30568 0.0
H218 H 0.95551 0.9947 0.25934 0.0
H219 H 0.954 0.03698 0.32888 0.0
H220 H 0.09201 0.14972 0.31661 0.0
H221 H 0.98412 0.16456 0.30357 0.0
H222 H 0.04481 0.88529 0.27556 0.0
H223 H 0.03647 0.95225 0.32718 0.0
H224 H 0.97744 0.1171 0.22983 0.0
H225 H 0.08534 0.12695 0.24316 0.0
H226 H 0.97179 0.18019 0.23343 0.0
H227 H 0.07782 0.18988 0.24647 0.0
H228 H 0.056 0.00165 0.19693 0.0
H229 H 0.98723 0.95769 0.23845 0.0
H230 H 0.0321 0.9624 0.17067 0.0
H231 H 0.96426 0.91951 0.21143 0.0
H232 H 0.16482 0.98853 0.20356 0.0
H233 H 0.14614 0.09445 0.18935 0.0
H234 H 0.88019 0.06875 0.23503 0.0
H235 H 0.92289 0.02678 0.1811 0.0
Li236 Li 0.00491 0.03414 0.76157 0.0
Li237 Li 0.06918 0.03446 0.7664 0.0
Li238 Li 0.04005 0.0617 0.73646 0.0
Li239 Li 0.04091 0.0015 0.74068 0.0
C240 C 0.03444 0.09666 0.78087 0.0
N241 N 0.03074 0.142 0.81283 0.0
C242 C 0.04093 0.08543 0.80015 0.0
C243 C 0.02583 0.13092 0.77787 0.0
C244 C 0.03901 0.10875 0.8161 0.0
C245 C 0.02412 0.15345 0.79422 0.0
C246 C 0.03833 0.96232 0.77161 0.0
C247 C 0.07212 0.91098 0.77501 0.0
N248 N 0.04298 0.89189 0.77397 0.0
C249 C 0.00873 0.94219 0.7707 0.0
C250 C 0.07031 0.9466 0.77383 0.0
C251 C 0.01161 0.90663 0.77186 0.0
C252 C 0.93831 0.0113 0.76825 0.0
N253 N 0.96196 0.03484 0.77466 0.0
C254 C 0.92505 0.05435 0.80034 0.0
C255 C 0.95553 0.05671 0.79009 0.0
C256 C 0.90075 0.02934 0.7946 0.0
C257 C 0.90742 0.00798 0.77809 0.0
H258 H 0.94373 0.99466 0.75566 0.0
H259 H 0.97411 0.07565 0.79481 0.0
C260 C 0.13108 0.0613 0.78349 0.0
N261 N 0.10546 0.03815 0.78549 0.0
C262 C 0.15701 0.06444 0.79807 0.0
C263 C 0.1297 0.01965 0.81625 0.0
C264 C 0.10422 0.01768 0.80151 0.0
C265 C 0.1565 0.04327 0.81465 0.0
H266 H 0.13119 0.07745 0.77065 0.0
H267 H 0.08302 0.00023 0.80302 0.0
C268 C 0.97323 0.0477 0.72583 0.0
N269 N 0.91727 0.08508 0.71291 0.0
C270 C 0.95236 0.03521 0.71018 0.0
C271 C 0.9656 0.07926 0.7349 0.0
C272 C 0.9242 0.05447 0.70387 0.0
C273 C 0.93721 0.09775 0.72816 0.0
C274 C 0.10108 0.01869 0.72359 0.0
C275 C 0.08842 0.01612 0.70406 0.0
C276 C 0.13416 0.00728 0.72816 0.0
C277 C 0.10904 0.00177 0.68939 0.0
C278 C 0.154 0.99312 0.71306 0.0
N279 N 0.14113 0.99066 0.69416 0.0
C280 C 0.05683 0.12868 0.72502 0.0
C281 C 0.02944 0.09444 0.69991 0.0
C282 C 0.05739 0.15664 0.71246 0.0
N283 N 0.04256 0.09856 0.71865 0.0
C284 C 0.02966 0.12161 0.68682 0.0
C285 C 0.04344 0.15341 0.69309 0.0
H286 H 0.06747 0.13106 0.73994 0.0
H287 H 0.01857 0.07008 0.69515 0.0
C288 C 0.01326 0.94683 0.71789 0.0
N289 N 0.04284 0.95842 0.72665 0.0
C290 C 0.01205 0.91467 0.70845 0.0
C291 C 0.07179 0.90687 0.71728 0.0
C292 C 0.07186 0.93922 0.72646 0.0
C293 C 0.04156 0.89412 0.70815 0.0
H294 H 0.99042 0.9624 0.7185 0.0
H295 H 0.09487 0.94853 0.73394 0.0
O296 O 0.03681 0.07441 0.76499 0.0
O297 O 0.03607 0.99716 0.77013 0.0
O298 O 0.00098 0.029 0.73202 0.0
O299 O 0.08128 0.03244 0.7382 0.0
H300 H 0.04653 0.05884 0.80282 0.0
H301 H 0.02031 0.14001 0.7631 0.0
H302 H 0.04388 0.10036 0.83109 0.0
H303 H 0.01749 0.18003 0.79211 0.0
H304 H 0.09671 0.89849 0.77656 0.0
H305 H 0.9838 0.95382 0.76898 0.0
H306 H 0.09358 0.96164 0.77416 0.0
H307 H 0.98891 0.89075 0.77106 0.0
H308 H 0.92116 0.0712 0.81306 0.0
H309 H 0.88914 0.98872 0.77296 0.0
H310 H 0.17733 0.08294 0.79635 0.0
H311 H 0.12806 0.00337 0.829 0.0
H312 H 0.95794 0.01091 0.70293 0.0
H313 H 0.98131 0.08949 0.747 0.0
H314 H 0.90786 0.0451 0.69176 0.0
H315 H 0.93104 0.12218 0.73506 0.0
H316 H 0.06278 0.02467 0.70035 0.0
H317 H 0.14429 0.00918 0.74323 0.0
H318 H 0.09952 -0.0006 0.67423 0.0
H319 H 0.17962 0.98405 0.71637 0.0
H320 H 0.06802 0.18068 0.71803 0.0
H321 H 0.01927 0.11764 0.67191 0.0
H322 H 0.98828 0.90611 0.70141 0.0
H323 H 0.09499 0.89171 0.71774 0.0
H324 H 0.37672 0.06515 0.05526 0.0
H325 H 0.33003 0.06635 0.0789 0.0
H326 H 0.39352 0.01295 0.12124 0.0
H327 H 0.44064 0.01238 0.09788 0.0
H328 H 0.29836 0.00899 0.09582 0.0
H329 H 0.35736 0.09565 0.15349 0.0
H330 H 0.37315 0.09217 0.12854 0.0
H331 H 0.38331 0.05973 0.14621 0.0
C332 C 0.38092 0.05412 0.06972 0.0
C333 C 0.41241 0.03879 0.07474 0.0
C334 C 0.35416 0.05463 0.08314 0.0
C335 C 0.35849 0.04009 0.10188 0.0
C336 C 0.38986 0.02478 0.10696 0.0
H337 H 0.22293 0.01331 0.20104 0.0
H338 H 0.27112 0.01183 0.17835 0.0
C339 C 0.41661 0.02418 0.09353 0.0
C340 C 0.32975 0.03994 0.11582 0.0
H341 H 0.30505 0.06901 0.16147 0.0
C342 C 0.29974 0.0222 0.11014 0.0
C343 C 0.33177 0.05708 0.13452 0.0
C344 C 0.36299 0.0775 0.14106 0.0
C345 C 0.27172 0.02086 0.12277 0.0
C346 C 0.27364 0.03819 0.14141 0.0
C347 C 0.30373 0.05574 0.14716 0.0
C348 C 0.24443 0.03888 0.15501 0.0
C349 C 0.24049 0.00046 0.11623 0.0
C350 C 0.21367 0.05489 0.14944 0.0
C351 C 0.18613 0.05573 0.16231 0.0
C352 C 0.1889 0.04061 0.18103 0.0
C353 C 0.21988 0.02478 0.18662 0.0
C354 C 0.24746 0.02408 0.17375 0.0
H355 H 0.24623 0.98202 0.10396 0.0
H356 H 0.23007 0.98611 0.1288 0.0
H357 H 0.22034 0.01821 0.11084 0.0
H358 H 0.21102 0.06689 0.13515 0.0
H359 H 0.16254 0.06788 0.15752 0.0
H360 H 0.99801 0.37943 0.55897 0.0
H361 H 0.9981 0.33252 0.58233 0.0
H362 H 0.07742 0.38333 0.61746 0.0
H363 H 0.0762 0.43124 0.5948 0.0
H364 H 0.04921 0.28929 0.59191 0.0
H365 H 0.00963 0.36113 0.65948 0.0
H366 H 0.00648 0.37898 0.63504 0.0
H367 H 0.04685 0.37888 0.64844 0.0
C368 C 0.015 0.38102 0.57188 0.0
C369 C 0.03694 0.40929 0.57505 0.0
C370 C 0.01522 0.354 0.58513 0.0
C371 C 0.03737 0.35465 0.60181 0.0
C372 C 0.05955 0.38262 0.60494 0.0
H373 H 0.09281 0.20271 0.68895 0.0
H374 H 0.09122 0.25167 0.66688 0.0
C375 C 0.05916 0.40979 0.59178 0.0
C376 C 0.03811 0.32544 0.61552 0.0
H377 H 0.0299 0.30424 0.66412 0.0
C378 C 0.04479 0.29255 0.60767 0.0
C379 C 0.03226 0.32973 0.63609 0.0
C380 C 0.02307 0.36402 0.64525 0.0
C381 C 0.04624 0.26395 0.61989 0.0
C382 C 0.04089 0.26839 0.64043 0.0
C383 C 0.03421 0.30113 0.64833 0.0
C384 C 0.0416 0.23907 0.65389 0.0
C385 C 0.0538 0.22915 0.61088 0.0
C386 C 0.01402 0.21614 0.65394 0.0
C387 C 0.01459 0.18842 0.66669 0.0
C388 C 0.04287 0.18304 0.67956 0.0
C389 C 0.07044 0.20627 0.67945 0.0
C390 C 0.06971 0.23414 0.66678 0.0
H391 H 0.06163 0.23065 0.59518 0.0
H392 H 0.07445 0.21639 0.61957 0.0
H393 H 0.03057 0.21286 0.61144 0.0
H394 H 0.99197 0.21983 0.64419 0.0
H395 H 0.99263 0.17149 0.66663 0.0
H396 H 0.59656 0.06481 0.1166 0.0
H397 H 0.64218 0.07262 0.1421 0.0
H398 H 0.70991 0.01024 0.10693 0.0
H399 H 0.66495 0.00252 0.08148 0.0
H400 H 0.68697 0.01263 0.16148 0.0
H401 H 0.75499 0.11103 0.11869 0.0
H402 H 0.70952 0.10318 0.11571 0.0
H403 H 0.73958 0.07388 0.10492 0.0
C404 C 0.62112 0.05259 0.11444 0.0
C405 C 0.62713 0.0328 0.09718 0.0
C406 C 0.64701 0.057 0.12898 0.0
C407 C 0.67926 0.04206 0.12625 0.0
C408 C 0.68511 0.02191 0.10922 0.0
H409 H 0.86559 0.99612 0.18535 0.0
H410 H 0.80955 0.99756 0.16834 0.0
C411 C 0.65931 0.0173 0.09481 0.0
C412 C 0.70753 0.04798 0.14078 0.0
H413 H 0.78566 0.08662 0.14574 0.0
C414 C 0.70833 0.02921 0.15827 0.0
C415 C 0.73513 0.06977 0.13648 0.0
C416 C 0.73489 0.09088 0.118 0.0
C417 C 0.73705 0.03045 0.17117 0.0
C418 C 0.76544 0.05082 0.1663 0.0
C419 C 0.76383 0.07094 0.14934 0.0
C420 C 0.79808 0.04955 0.17773 0.0
C421 C 0.73727 0.0094 0.18966 0.0
C422 C 0.81013 0.07843 0.18846 0.0
C423 C 0.84206 0.07763 0.19824 0.0
C424 C 0.8626 0.04813 0.19709 0.0
C425 C 0.85036 0.01925 0.18634 0.0
C426 C 0.81831 0.01994 0.17679 0.0
H427 H 0.71102 0.00144 0.19362 0.0
H428 H 0.75278 0.98597 0.18712 0.0
H429 H 0.74907 0.02398 0.20239 0.0
H430 H 0.79493 0.10161 0.18914 0.0
H431 H 0.85105 0.10032 0.2063 0.0
H432 H 0.01762 0.5931 0.61826 0.0
H433 H 0.01292 0.63827 0.64411 0.0
H434 H 0.07462 0.70523 0.60958 0.0
H435 H 0.07909 0.66082 0.58372 0.0
H436 H 0.08041 0.68584 0.66199 0.0
H437 H 0.96908 0.74646 0.62342 0.0
H438 H 0.97685 0.70086 0.62192 0.0
H439 H 0.00321 0.72951 0.60853 0.0
C440 C 0.03041 0.61736 0.61632 0.0
C441 C 0.04898 0.62332 0.59907 0.0
C442 C 0.02779 0.64299 0.63106 0.0
C443 C 0.04347 0.67486 0.62863 0.0
C444 C 0.06255 0.68063 0.61168 0.0
H445 H 0.09124 0.86396 0.68572 0.0
H446 H 0.08975 0.80763 0.66929 0.0
C447 C 0.06528 0.65513 0.59702 0.0
C448 C 0.03893 0.70307 0.6432 0.0
H449 H 0.99603 0.77837 0.64961 0.0
C450 C 0.06165 0.70586 0.65954 0.0
C451 C 0.0143 0.72886 0.63989 0.0
C452 C 0.98924 0.72647 0.62256 0.0
C453 C 0.06126 0.73478 0.67227 0.0
C454 C 0.03786 0.76152 0.66832 0.0
C455 C 0.01402 0.75785 0.65253 0.0
C456 C 0.03932 0.79457 0.67941 0.0
C457 C 0.08626 0.73682 0.68964 0.0
C458 C 0.01123 0.80603 0.69031 0.0
C459 C 0.01205 0.83819 0.69983 0.0
C460 C 0.04085 0.85961 0.69841 0.0
C461 C 0.06892 0.84792 0.68744 0.0
C462 C 0.06814 0.81573 0.67803 0.0
H463 H 0.09566 0.71105 0.69379 0.0
H464 H 0.10868 0.75242 0.68556 0.0
H465 H 0.07437 0.74926 0.70277 0.0
H466 H 0.98868 0.79008 0.69142 0.0
H467 H 0.99019 0.84617 0.70838 0.0
H468 H 0.36895 0.09886 0.96308 0.0
H469 H 0.32239 0.10167 0.93821 0.0
H470 H 0.33627 0.99462 0.92368 0.0
H471 H 0.38334 0.9917 0.94798 0.0
H472 H 0.33226 0.08329 0.89616 0.0
H473 H 0.2307 0.0069 0.931 0.0
H474 H 0.2655 0.02671 0.94517 0.0
H475 H 0.27259 0.98782 0.93115 0.0
C476 C 0.36196 0.07585 0.95468 0.0
C477 C 0.37992 0.04505 0.95753 0.0
C478 C 0.33528 0.0775 0.94056 0.0
C479 C 0.32583 0.0483 0.92928 0.0
C480 C 0.34286 0.01729 0.93251 0.0
H481 H 0.19158 0.99112 0.83186 0.0
H482 H 0.23303 0.99485 0.85955 0.0
C483 C 0.36967 0.01565 0.9465 0.0
C484 C 0.30001 0.05064 0.91302 0.0
H485 H 0.22257 0.01934 0.89688 0.0
C486 C 0.30806 0.06967 0.89634 0.0
C487 C 0.2687 0.03262 0.91336 0.0
C488 C 0.25859 0.01254 0.93118 0.0
C489 C 0.28608 0.07014 0.87959 0.0
C490 C 0.25489 0.05173 0.8798 0.0
C491 C 0.24654 0.03335 0.89672 0.0
C492 C 0.23098 0.05012 0.86243 0.0
C493 C 0.29715 0.08916 0.86156 0.0
C494 C 0.21623 0.07999 0.85478 0.0
C495 C 0.19277 0.07791 0.83881 0.0
C496 C 0.18329 0.0459 0.83049 0.0
C497 C 0.19827 0.0161 0.8381 0.0
C498 C 0.22192 0.01821 0.85389 0.0
H499 H 0.32517 0.09409 0.86189 0.0
H500 H 0.29036 0.07463 0.84767 0.0
H501 H 0.28391 0.11427 0.86116 0.0
H502 H 0.22226 0.10481 0.86142 0.0
H503 H 0.1812 0.10122 0.8334 0.0
H504 H 0.0489 0.34732 0.47436 0.0
H505 H 0.05033 0.30101 0.44921 0.0
H506 H 0.98979 0.36216 0.40915 0.0
H507 H 0.98857 0.40857 0.43396 0.0
H508 H 0.96945 0.29162 0.41077 0.0
H509 H 0.10893 0.30847 0.39885 0.0
H510 H 0.09671 0.30183 0.42404 0.0
H511 H 0.08358 0.34014 0.41176 0.0
C512 C 0.03578 0.35081 0.46022 0.0
C513 C 0.01864 0.38161 0.45615 0.0
C514 C 0.03663 0.32438 0.4459 0.0
C515 C 0.02052 0.32844 0.42729 0.0
C516 C 0.00235 0.35858 0.42345 0.0
H517 H 0.00328 0.22171 0.31401 0.0
H518 H 0.99829 0.26099 0.34261 0.0
C519 C 0.0015 0.38498 0.43772 0.0
C520 C 0.0236 0.30199 0.41141 0.0
H521 H 0.08096 0.26455 0.38024 0.0
C522 C 0.99381 0.28556 0.40412 0.0
C523 C 0.05545 0.29432 0.40279 0.0
C524 C 0.08802 0.31224 0.40959 0.0
C525 C 0.99504 0.26149 0.38838 0.0
C526 C 0.02681 0.25422 0.37956 0.0
C527 C 0.05666 0.27027 0.38706 0.0
C528 C 0.0296 0.23042 0.36231 0.0
C529 C 0.96242 0.24382 0.38144 0.0
C530 C 0.04955 0.20073 0.36382 0.0
C531 C 0.05249 0.1783 0.34753 0.0
C532 C 0.03569 0.18529 0.32938 0.0
C533 C 0.0161 0.21536 0.32786 0.0
C534 C 0.01318 0.23777 0.34418 0.0
H535 H 0.9423 0.24558 0.39282 0.0
H536 H 0.95248 0.25624 0.36783 0.0
H537 H 0.96715 0.21639 0.37778 0.0
H538 H 0.06253 0.19473 0.37768 0.0
H539 H 0.06737 0.15513 0.34928 0.0
H540 H 0.63641 0.98571 0.90626 0.0
H541 H 0.67696 0.98192 0.87916 0.0
H542 H 0.75318 0.03411 0.91593 0.0
H543 H 0.71336 0.03672 0.94336 0.0
H544 H 0.70733 0.03413 0.85998 0.0
H545 H 0.80612 0.95217 0.89501 0.0
H546 H 0.76385 0.9573 0.90495 0.0
H547 H 0.79632 0.98922 0.91003 0.0
C548 C 0.66203 0.99578 0.90872 0.0
C549 C 0.67172 0.01137 0.92702 0.0
C550 C 0.68506 0.99382 0.89316 0.0
C551 C 0.71822 0.00727 0.89563 0.0
C552 C 0.72795 0.02292 0.91384 0.0
H553 H 0.85998 0.07883 0.8111 0.0
H554 H 0.81314 0.07086 0.83394 0.0
C555 C 0.705 0.02479 0.92942 0.0
C556 C 0.74219 0.00638 0.87892 0.0
H557 H 0.82298 0.98256 0.8663 0.0
C558 C 0.73248 0.02252 0.86125 0.0
C559 C 0.77473 0.9907 0.88049 0.0
C560 C 0.78576 0.97106 0.89857 0.0
C561 C 0.75504 0.02463 0.84541 0.0
C562 C 0.78835 0.01083 0.84748 0.0
C563 C 0.79753 0.99345 0.86482 0.0
C564 C 0.81472 0.01546 0.83231 0.0
C565 C 0.74299 0.04168 0.82664 0.0
C566 C 0.83139 0.98698 0.82395 0.0
C567 C 0.85854 0.99146 0.81111 0.0
C568 C 0.86964 0.02456 0.80649 0.0
C569 C 0.85225 0.05302 0.81449 0.0
C570 C 0.82519 0.0485 0.82736 0.0
H571 H 0.71463 0.04083 0.82496 0.0
H572 H 0.75087 0.06898 0.82727 0.0
H573 H 0.75433 0.02934 0.81332 0.0
H574 H 0.82385 0.96126 0.82772 0.0
H575 H 0.87168 0.96902 0.80543 0.0
H576 H 0.02939 0.71573 0.44937 0.0
H577 H 0.02952 0.75873 0.42347 0.0
H578 H 0.06005 0.68168 0.38061 0.0
H579 H 0.05947 0.63835 0.40636 0.0
H580 H 0.08683 0.77647 0.39853 0.0
H581 H 0.97254 0.72763 0.35587 0.0
H582 H 0.98142 0.71633 0.38132 0.0
H583 H 0.00534 0.69686 0.36165 0.0
C584 C 0.03587 0.7079 0.43439 0.0
C585 C 0.04428 0.67366 0.42986 0.0
C586 C 0.03612 0.73249 0.41967 0.0
C587 C 0.04447 0.72322 0.40016 0.0
C588 C 0.05318 0.68918 0.39558 0.0
H589 H 0.0835 0.85975 0.30223 0.0
H590 H 0.08518 0.81159 0.32506 0.0
C591 C 0.05311 0.66457 0.41031 0.0
C592 C 0.04432 0.74939 0.38466 0.0
H593 H 0.0016 0.77486 0.34276 0.0
C594 C 0.06834 0.77607 0.38627 0.0
C595 C 0.01999 0.74875 0.3688 0.0
C596 C 0.99314 0.72104 0.36677 0.0
C597 C 0.06863 0.80227 0.37238 0.0
C598 C 0.04428 0.80164 0.35657 0.0
C599 C 0.02033 0.77496 0.35489 0.0
C600 C 0.04239 0.82955 0.34222 0.0
C601 C 0.09443 0.83088 0.3748 0.0
C602 C 0.01752 0.85512 0.34432 0.0
C603 C 0.01659 0.88261 0.33143 0.0
C604 C 0.04036 0.88474 0.31614 0.0
C605 C 0.06475 0.85858 0.3138 0.0
C606 C 0.06584 0.83122 0.32682 0.0
H607 H 0.10999 0.82895 0.38873 0.0
H608 H 0.11191 0.83023 0.36203 0.0
H609 H 0.08114 0.85601 0.37481 0.0
H610 H -0.0008 0.85408 0.35613 0.0
H611 H 0.99731 0.90224 0.33342 0.0
loop_
_geom_bond_atom_site_label_1
_geom_bond_atom_site_label_2
_geom_bond_distance
_geom_bond_site_symmetry_2
_ccdc_geom_bond_type
H0 O26 0.856 . S
H1 O29 0.854 . S
H2 C37 0.930 . S
H3 C38 0.930 . S
H4 C40 0.930 1_565 S
H5 C41 0.930 1_565 S
H6 C43 0.931 . S
H7 C44 0.930 . S
H8 C46 0.944 . S
H9 C47 0.929 1_565 S
H10 C49 0.930 . S
H11 C50 0.931 . S
H12 C52 0.930 . S
H13 C53 0.929 . S
H14 C55 0.931 . S
H15 C56 0.930 . S
H16 C58 0.930 1_565 S
H17 C59 0.932 1_566 S
H18 C61 0.930 . S
H19 C62 0.929 . S
H20 C64 0.931 . S
H21 C65 0.930 1_565 S
H22 C67 0.929 . S
H23 C68 0.931 . S
H24 C70 0.930 1_565 S
H25 C71 0.929 1_565 S
O26 H0 0.856 . S
O26 C72 1.300 . S
O27 C72 1.209 1_565 S
O28 C73 1.199 . S
O29 H1 0.854 . S
O29 C73 1.297 . S
C30 C31 1.404 . S
C30 C35 1.397 1_556 S
C30 C36 1.492 . S
C31 C30 1.404 . S
C31 C32 1.396 . S
C31 C42 1.492 . S
C32 C31 1.396 . S
C32 C33 1.392 1_556 S
C32 C48 1.509 . S
C33 C32 1.392 1_554 S
C33 C34 1.417 . S
C33 C54 1.486 . S
C34 C33 1.417 . S
C34 C35 1.388 . S
C34 C60 1.490 . S
C35 C30 1.397 1_554 S
C35 C34 1.388 . S
C35 C66 1.519 . S
C36 C30 1.492 . S
C36 C37 1.363 . S
C36 C41 1.390 . S
C37 H2 0.930 . S
C37 C36 1.363 . S
C37 C38 1.372 . S
C38 H3 0.930 . S
C38 C37 1.372 . S
C38 C39 1.383 . S
C39 C38 1.383 . S
C39 C40 1.395 . S
C40 H4 0.930 1_545 S
C40 C39 1.395 . S
C40 C41 1.362 . S
C41 H5 0.930 1_545 S
C41 C36 1.390 . S
C41 C40 1.362 . S
C42 C31 1.492 . S
C42 C43 1.377 . S
C42 C47 1.397 . S
C43 H6 0.931 . S
C43 C42 1.377 . S
C43 C44 1.376 . S
C44 H7 0.930 . S
C44 C43 1.376 . S
C44 C45 1.376 . S
C45 C44 1.376 . S
C45 C46 1.365 1_545 S
C45 C72 1.486 . S
C46 H8 0.944 . S
C46 C45 1.365 1_565 S
C46 C47 1.375 1_565 S
C47 H9 0.929 1_545 S
C47 C42 1.397 . S
C47 C46 1.375 1_545 S
C48 C32 1.509 . S
C48 C49 1.391 . S
C48 C53 1.386 1_545 S
C49 H10 0.930 . S
C49 C48 1.391 . S
C49 C50 1.375 . S
C50 H11 0.931 . S
C50 C49 1.375 . S
C50 C51 1.375 . S
C51 C50 1.375 . S
C51 C52 1.361 1_545 S
C52 H12 0.930 . S
C52 C51 1.361 1_565 S
C52 C53 1.399 . S
C53 H13 0.929 . S
C53 C48 1.386 1_565 S
C53 C52 1.399 . S
C54 C33 1.486 . S
C54 C55 1.394 . S
C54 C59 1.360 . S
C55 H14 0.931 . S
C55 C54 1.394 . S
C55 C56 1.372 . S
C56 H15 0.930 . S
C56 C55 1.372 . S
C56 C57 1.397 . S
C57 C56 1.397 . S
C57 C58 1.390 . S
C57 C73 1.476 . S
C58 H16 0.930 1_545 S
C58 C57 1.390 . S
C58 C59 1.366 . S
C59 H17 0.932 1_544 S
C59 C54 1.360 . S
C59 C58 1.366 . S
C60 C34 1.490 . S
C60 C61 1.380 . S
C60 C65 1.386 . S
C61 H18 0.930 . S
C61 C60 1.380 . S
C61 C62 1.381 . S
C62 H19 0.929 . S
C62 C61 1.381 . S
C62 C63 1.371 . S
C63 C62 1.371 . S
C63 C64 1.380 . S
C64 H20 0.931 . S
C64 C63 1.380 . S
C64 C65 1.387 . S
C65 H21 0.930 1_545 S
C65 C60 1.386 . S
C65 C64 1.387 . S
C66 C35 1.519 . S
C66 C67 1.377 . S
C66 C71 1.361 . S
C67 H22 0.929 . S
C67 C66 1.377 . S
C67 C68 1.386 . S
C68 H23 0.931 . S
C68 C67 1.386 . S
C68 C69 1.363 . S
C69 C68 1.363 . S
C69 C70 1.385 . S
C70 H24 0.930 1_545 S
C70 C69 1.385 . S
C70 C71 1.396 . S
C71 H25 0.929 1_545 S
C71 C66 1.361 . S
C71 C70 1.396 . S
C72 O26 1.300 . S
C72 O27 1.209 1_545 S
C72 C45 1.486 . S
C73 O28 1.199 . S
C73 O29 1.297 . S
C73 C57 1.476 . S
H74 O100 0.856 . S
H75 O103 0.854 . S
H76 C111 0.930 1_655 S
H77 C112 0.936 . S
H78 C114 0.930 . S
H79 C115 0.930 . S
H80 C117 0.908 1_655 S
H81 C118 0.927 1_655 S
H82 C120 0.930 . S
H83 C121 0.929 . S
H84 C123 0.930 1_655 S
H85 C124 0.931 . S
H86 C126 0.930 . S
H87 C127 0.929 . S
H88 C129 0.931 1_655 S
H89 C130 0.930 . S
H90 C132 0.930 . S
H91 C133 0.932 . S
H92 C135 0.930 1_655 S
H93 C136 0.929 1_655 S
H94 C138 0.931 . S
H95 C139 0.930 . S
H96 C141 0.929 1_655 S
H97 C142 0.940 . S
H98 C144 0.930 . S
H99 C145 0.929 . S
O100 H74 0.856 . S
O100 C146 1.300 . S
O101 C146 1.209 . S
O102 C147 1.199 . S
O103 H75 0.854 . S
O103 C147 1.297 . S
C104 C105 1.404 . S
C104 C109 1.397 . S
C104 C110 1.492 . S
C105 C104 1.404 . S
C105 C106 1.396 . S
C105 C116 1.492 . S
C106 C105 1.396 . S
C106 C107 1.397 . S
C106 C122 1.509 . S
C107 C106 1.397 . S
C107 C108 1.412 . S
C107 C128 1.485 . S
C108 C107 1.412 . S
C108 C109 1.388 . S
C108 C134 1.490 . S
C109 C104 1.397 . S
C109 C108 1.388 . S
C109 C140 1.519 . S
C110 C104 1.492 . S
C110 C111 1.363 . S
C110 C115 1.390 . S
C111 H76 0.930 1_455 S
C111 C110 1.363 . S
C111 C112 1.371 1_455 S
C112 H77 0.936 . S
C112 C111 1.371 1_655 S
C112 C113 1.378 1_655 S
C113 C112 1.378 1_455 S
C113 C114 1.395 . S
C114 H78 0.930 . S
C114 C113 1.395 . S
C114 C115 1.362 . S
C115 H79 0.930 . S
C115 C110 1.390 . S
C115 C114 1.362 . S
C116 C105 1.492 . S
C116 C117 1.377 . S
C116 C121 1.397 . S
C117 H80 0.908 1_455 S
C117 C116 1.377 . S
C117 C118 1.376 . S
C118 H81 0.927 1_455 S
C118 C117 1.376 . S
C118 C119 1.376 . S
C119 C118 1.376 . S
C119 C120 1.378 . S
C119 C146 1.486 . S
C120 H82 0.930 . S
C120 C119 1.378 . S
C120 C121 1.376 . S
C121 H83 0.929 . S
C121 C116 1.397 . S
C121 C120 1.376 . S
C122 C106 1.509 . S
C122 C123 1.391 . S
C122 C127 1.386 . S
C123 H84 0.930 1_455 S
C123 C122 1.391 . S
C123 C124 1.375 . S
C124 H85 0.931 . S
C124 C123 1.375 . S
C124 C125 1.375 . S
C125 C124 1.375 . S
C125 C126 1.361 . S
C126 H86 0.930 . S
C126 C125 1.361 . S
C126 C127 1.399 . S
C127 H87 0.929 . S
C127 C122 1.386 . S
C127 C126 1.399 . S
C128 C107 1.485 . S
C128 C129 1.394 . S
C128 C133 1.360 . S
C129 H88 0.931 1_455 S
C129 C128 1.394 . S
C129 C130 1.372 . S
C130 H89 0.930 . S
C130 C129 1.372 . S
C130 C131 1.397 . S
C131 C130 1.397 . S
C131 C132 1.390 . S
C131 C147 1.476 . S
C132 H90 0.930 . S
C132 C131 1.390 . S
C132 C133 1.366 . S
C133 H91 0.932 . S
C133 C128 1.360 . S
C133 C132 1.366 . S
C134 C108 1.490 . S
C134 C135 1.380 . S
C134 C139 1.386 . S
C135 H92 0.930 1_455 S
C135 C134 1.380 . S
C135 C136 1.381 . S
C136 H93 0.929 1_455 S
C136 C135 1.381 . S
C136 C137 1.371 . S
C137 C136 1.371 . S
C137 C138 1.380 . S
C138 H94 0.931 . S
C138 C137 1.380 . S
C138 C139 1.387 . S
C139 H95 0.930 . S
C139 C134 1.386 . S
C139 C138 1.387 . S
C140 C109 1.519 . S
C140 C141 1.377 . S
C140 C145 1.361 . S
C141 H96 0.929 1_455 S
C141 C140 1.377 . S
C141 C142 1.386 . S
C142 H97 0.940 . S
C142 C141 1.386 . S
C142 C143 1.363 . S
C143 C142 1.363 . S
C143 C144 1.385 . S
C144 H98 0.930 . S
C144 C143 1.385 . S
C144 C145 1.396 . S
C145 H99 0.929 . S
C145 C140 1.361 . S
C145 C144 1.396 . S
C146 O100 1.300 . S
C146 O101 1.209 . S
C146 C119 1.486 . S
C147 O102 1.199 . S
C147 O103 1.297 . S
C147 C131 1.476 . S
Li148 N165 1.990 . S
Li148 O208 1.956 . S
Li148 O209 1.970 1_455 S
Li148 O210 1.961 . S
Li149 N173 1.990 1_545 S
Li149 O208 1.970 . S
Li149 O209 1.956 1_455 S
Li149 O211 1.961 . S
Li150 N195 1.990 . S
Li150 O208 1.961 . S
Li150 O210 1.956 . S
Li150 O211 1.975 . S
Li151 N201 1.990 . S
Li151 O209 1.961 . S
Li151 O210 1.970 1_655 S
Li151 O211 1.961 1_655 S
C152 C154 1.348 . S
C152 C155 1.356 . S
C152 O208 1.325 . S
N153 C156 1.314 . S
N153 C157 1.279 . S
C154 C152 1.348 . S
C154 C156 1.353 . S
C154 H212 0.929 . S
C155 C152 1.356 . S
C155 C157 1.358 . S
C155 H213 0.930 . S
C156 N153 1.314 . S
C156 C154 1.353 . S
C156 H214 0.930 . S
C157 N153 1.279 . S
C157 C155 1.358 . S
C157 H215 0.930 . S
C158 C161 1.348 . S
C158 C162 1.356 . S
C158 O209 1.325 . S
C159 N160 1.279 . S
C159 C162 1.358 . S
C159 H216 0.942 . S
N160 C159 1.279 . S
N160 C163 1.314 . S
C161 C158 1.348 . S
C161 C163 1.353 . S
C161 H217 0.929 . S
C162 C158 1.356 . S
C162 C159 1.358 . S
C162 H218 0.935 . S
C163 N160 1.314 . S
C163 C161 1.353 . S
C163 H219 0.930 . S
C164 N165 1.314 . S
C164 C169 1.353 . S
C164 H170 0.930 1_455 S
N165 Li148 1.990 . S
N165 C164 1.314 . S
N165 C167 1.279 . S
C166 C167 1.358 . S
C166 C168 1.356 . S
C166 H220 0.930 . S
C167 N165 1.279 . S
C167 C166 1.358 . S
C167 H171 0.930 . S
C168 C166 1.356 . S
C168 C169 1.348 . S
C169 C164 1.353 . S
C169 C168 1.348 . S
C169 H221 0.929 1_455 S
H170 C164 0.930 1_655 S
H171 C167 0.930 . S
C172 N173 1.314 . S
C172 C174 1.353 . S
C172 H178 0.930 . S
N173 Li149 1.990 1_565 S
N173 C172 1.314 . S
N173 C176 1.262 1_455 S
C174 C172 1.353 . S
C174 C177 1.348 . S
C174 H222 0.929 . S
C175 C176 1.359 . S
C175 C177 1.349 1_655 S
C175 H223 0.937 . S
C176 N173 1.262 1_655 S
C176 C175 1.359 . S
C176 H179 0.950 . S
C177 C174 1.348 . S
C177 C175 1.349 1_455 S
H178 C172 0.930 . S
H179 C176 0.950 . S
C180 C182 1.364 . S
C180 C183 1.356 . S
C180 O210 1.325 . S
N181 C184 1.314 . S
N181 C185 1.279 . S
C182 C180 1.364 . S
C182 C184 1.356 . S
C182 H224 0.912 1_455 S
C183 C180 1.356 . S
C183 C185 1.358 . S
C183 H225 0.930 . S
C184 N181 1.314 . S
C184 C182 1.356 . S
C184 H226 0.930 1_455 S
C185 N181 1.279 . S
C185 C183 1.358 . S
C185 H227 0.930 . S
C186 C187 1.348 . S
C186 C188 1.356 1_455 S
C186 O211 1.320 1_565 S
C187 C186 1.348 . S
C187 C189 1.353 . S
C187 H228 0.929 . S
C188 C186 1.356 1_655 S
C188 C190 1.358 . S
C188 H229 0.930 . S
C189 C187 1.353 . S
C189 N191 1.314 . S
C189 H230 0.930 . S
C190 C188 1.358 . S
C190 N191 1.279 1_655 S
C190 H231 0.930 . S
N191 C189 1.314 . S
N191 C190 1.279 1_455 S
C192 C194 1.353 . S
C192 N195 1.314 . S
C192 H198 0.930 . S
C193 N195 1.279 . S
C193 C196 1.358 . S
C193 H199 0.930 . S
C194 C192 1.353 . S
C194 C197 1.348 . S
C194 H232 0.929 . S
N195 Li150 1.990 . S
N195 C192 1.314 . S
N195 C193 1.279 . S
C196 C193 1.358 . S
C196 C197 1.356 . S
C196 H233 0.930 . S
C197 C194 1.348 . S
C197 C196 1.356 . S
H198 C192 0.930 . S
H199 C193 0.930 . S
C200 N201 1.314 . S
C200 C202 1.353 . S
C200 H206 0.930 . S
N201 Li151 1.990 . S
N201 C200 1.314 . S
N201 C204 1.279 . S
C202 C200 1.353 . S
C202 C205 1.348 . S
C202 H234 0.929 . S
C203 C204 1.358 . S
C203 C205 1.356 . S
C203 H235 0.923 1_545 S
C204 N201 1.279 . S
C204 C203 1.358 . S
C204 H207 0.930 1_545 S
C205 C202 1.348 . S
C205 C203 1.356 . S
H206 C200 0.930 . S
H207 C204 0.930 1_565 S
O208 Li148 1.956 . S
O208 Li149 1.970 . S
O208 Li150 1.961 . S
O208 C152 1.325 . S
O209 Li148 1.970 1_655 S
O209 Li149 1.956 1_655 S
O209 Li151 1.961 . S
O209 C158 1.325 . S
O210 Li148 1.961 . S
O210 Li150 1.956 . S
O210 Li151 1.970 1_455 S
O210 C180 1.325 . S
O211 Li149 1.961 . S
O211 Li150 1.975 . S
O211 Li151 1.961 1_455 S
O211 C186 1.320 1_545 S
H212 C154 0.929 . S
H213 C155 0.930 . S
H214 C156 0.930 . S
H215 C157 0.930 . S
H216 C159 0.942 . S
H217 C161 0.929 . S
H218 C162 0.935 . S
H219 C163 0.930 . S
H220 C166 0.930 . S
H221 C169 0.929 1_655 S
H222 C174 0.929 . S
H223 C175 0.937 . S
H224 C182 0.912 1_655 S
H225 C183 0.930 . S
H226 C184 0.930 1_655 S
H227 C185 0.930 . S
H228 C187 0.929 . S
H229 C188 0.930 . S
H230 C189 0.930 . S
H231 C190 0.930 . S
H232 C194 0.929 . S
H233 C196 0.930 . S
H234 C202 0.929 . S
H235 C203 0.923 1_565 S
Li236 N253 1.990 1_455 S
Li236 O296 1.956 . S
Li236 O297 1.970 1_545 S
Li236 O298 1.961 . S
Li237 N261 1.990 . S
Li237 O296 1.970 . S
Li237 O297 1.956 1_545 S
Li237 O299 1.961 . S
Li238 N283 1.990 . S
Li238 O296 1.961 . S
Li238 O298 1.956 . S
Li238 O299 1.970 . S
Li239 N289 1.990 . S
Li239 O297 1.961 . S
Li239 O298 1.970 1_565 S
Li239 O299 1.956 1_565 S
C240 C242 1.348 . S
C240 C243 1.356 . S
C240 O296 1.325 . S
N241 C244 1.314 . S
N241 C245 1.279 . S
C242 C240 1.348 . S
C242 C244 1.353 . S
C242 H300 0.929 . S
C243 C240 1.356 . S
C243 C245 1.358 . S
C243 H301 0.930 . S
C244 N241 1.314 . S
C244 C242 1.353 . S
C244 H302 0.930 . S
C245 N241 1.279 . S
C245 C243 1.358 . S
C245 H303 0.930 . S
C246 C249 1.348 . S
C246 C250 1.356 . S
C246 O297 1.325 . S
C247 N248 1.279 . S
C247 C250 1.358 . S
C247 H304 0.930 . S
N248 C247 1.279 . S
N248 C251 1.314 . S
C249 C246 1.348 . S
C249 C251 1.353 . S
C249 H305 0.929 . S
C250 C246 1.356 . S
C250 C247 1.358 . S
C250 H306 0.930 . S
C251 N248 1.314 . S
C251 C249 1.353 . S
C251 H307 0.930 . S
C252 N253 1.314 . S
C252 C257 1.353 . S
C252 H258 0.930 1_545 S
N253 Li236 1.990 1_655 S
N253 C252 1.314 . S
N253 C255 1.279 . S
C254 C255 1.358 . S
C254 C256 1.356 . S
C254 H308 0.930 . S
C255 N253 1.279 . S
C255 C254 1.358 . S
C255 H259 0.930 . S
C256 C254 1.356 . S
C256 C257 1.348 . S
C257 C252 1.353 . S
C257 C256 1.348 . S
C257 H309 0.929 1_545 S
H258 C252 0.930 1_565 S
H259 C255 0.930 . S
C260 N261 1.314 . S
C260 C262 1.353 . S
C260 H266 0.930 . S
N261 Li237 1.990 . S
N261 C260 1.314 . S
N261 C264 1.279 1_545 S
C262 C260 1.353 . S
C262 C265 1.348 . S
C262 H310 0.929 . S
C263 C264 1.359 . S
C263 C265 1.335 1_565 S
C263 H311 0.951 . S
C264 N261 1.279 1_565 S
C264 C263 1.359 . S
C264 H267 0.930 . S
C265 C262 1.348 . S
C265 C263 1.335 1_545 S
H266 C260 0.930 . S
H267 C264 0.930 . S
C268 C270 1.348 . S
C268 C271 1.356 . S
C268 O298 1.325 1_655 S
N269 C272 1.314 . S
N269 C273 1.279 . S
C270 C268 1.348 . S
C270 C272 1.353 . S
C270 H312 0.929 1_545 S
C271 C268 1.356 . S
C271 C273 1.358 . S
C271 H313 0.930 . S
C272 N269 1.314 . S
C272 C270 1.353 . S
C272 H314 0.930 1_545 S
C273 N269 1.279 . S
C273 C271 1.358 . S
C273 H315 0.930 . S
C274 C275 1.348 . S
C274 C276 1.356 1_545 S
C274 O299 1.325 . S
C275 C274 1.348 . S
C275 C277 1.353 . S
C275 H316 0.929 . S
C276 C274 1.356 1_565 S
C276 C278 1.358 . S
C276 H317 0.930 . S
C277 C275 1.353 . S
C277 N279 1.314 . S
C277 H318 0.930 . S
C278 C276 1.358 . S
C278 N279 1.279 1_565 S
C278 H319 0.930 . S
N279 C277 1.314 . S
N279 C278 1.279 1_545 S
C280 C282 1.353 . S
C280 N283 1.314 . S
C280 H286 0.930 . S
C281 N283 1.279 . S
C281 C284 1.358 . S
C281 H287 0.930 . S
C282 C280 1.353 . S
C282 C285 1.348 . S
C282 H320 0.929 . S
N283 Li238 1.990 . S
N283 C280 1.314 . S
N283 C281 1.279 . S
C284 C281 1.358 . S
C284 C285 1.356 . S
C284 H321 0.949 . S
C285 C282 1.348 . S
C285 C284 1.356 . S
H286 C280 0.930 . S
H287 C281 0.930 . S
C288 N289 1.314 . S
C288 C290 1.353 . S
C288 H294 0.930 . S
N289 Li239 1.990 . S
N289 C288 1.314 . S
N289 C292 1.279 . S
C290 C288 1.353 . S
C290 C293 1.348 . S
C290 H322 0.929 . S
C291 C292 1.358 . S
C291 C293 1.356 . S
C291 H323 0.930 . S
C292 N289 1.279 . S
C292 C291 1.358 . S
C292 H295 0.930 . S
C293 C290 1.348 . S
C293 C291 1.356 . S
H294 C288 0.930 . S
H295 C292 0.930 . S
O296 Li236 1.956 . S
O296 Li237 1.970 . S
O296 Li238 1.961 . S
O296 C240 1.325 . S
O297 Li236 1.970 1_565 S
O297 Li237 1.956 1_565 S
O297 Li239 1.961 . S
O297 C246 1.325 . S
O298 Li236 1.961 . S
O298 Li238 1.956 . S
O298 Li239 1.970 1_545 S
O298 C268 1.325 1_455 S
O299 Li237 1.961 . S
O299 Li238 1.970 . S
O299 Li239 1.956 1_545 S
O299 C274 1.325 . S
H300 C242 0.929 . S
H301 C243 0.930 . S
H302 C244 0.930 . S
H303 C245 0.930 . S
H304 C247 0.930 . S
H305 C249 0.929 . S
H306 C250 0.930 . S
H307 C251 0.930 . S
H308 C254 0.930 . S
H309 C257 0.929 1_565 S
H310 C262 0.929 . S
H311 C263 0.951 . S
H312 C270 0.929 1_565 S
H313 C271 0.930 . S
H314 C272 0.930 1_565 S
H315 C273 0.930 . S
H316 C275 0.929 . S
H317 C276 0.930 . S
H318 C277 0.930 . S
H319 C278 0.930 . S
H320 C282 0.929 . S
H321 C284 0.949 . S
H322 C290 0.929 . S
H323 C291 0.930 . S
H324 C332 0.929 . S
H325 C334 0.930 . S
H326 C336 0.930 . S
H327 C339 0.929 . S
H328 C342 0.930 1_565 S
H329 C344 0.960 . S
H330 C344 0.960 . S
H331 C344 0.960 . S
C332 H324 0.929 . S
C332 C333 1.377 . S
C332 C334 1.384 . S
C333 C332 1.377 . S
C333 C339 1.390 . S
C334 H325 0.930 . S
C334 C332 1.384 . S
C334 C335 1.372 . S
C335 C334 1.372 . S
C335 C336 1.400 . S
C335 C340 1.490 . S
C336 H326 0.930 . S
C336 C335 1.400 . S
C336 C339 1.386 . S
H337 C353 0.930 . S
H338 C354 0.931 . S
C339 H327 0.929 . S
C339 C333 1.390 . S
C339 C336 1.386 . S
C340 C335 1.490 . S
C340 C342 1.395 . S
C340 C343 1.403 . S
H341 C347 0.930 . S
C342 H328 0.930 1_545 S
C342 C340 1.395 . S
C342 C345 1.403 . S
C343 C340 1.403 . S
C343 C344 1.524 . S
C343 C347 1.400 . S
C344 H329 0.960 . S
C344 H330 0.960 . S
C344 H331 0.960 . S
C344 C343 1.524 . S
C345 C342 1.403 . S
C345 C346 1.392 . S
C345 C349 1.495 1_545 S
C346 C345 1.392 . S
C346 C347 1.385 . S
C346 C348 1.478 . S
C347 H341 0.930 . S
C347 C343 1.400 . S
C347 C346 1.385 . S
C348 C346 1.478 . S
C348 C350 1.381 . S
C348 C354 1.383 . S
C349 C345 1.495 1_565 S
C349 H355 0.959 . S
C349 H356 0.961 . S
C349 H357 0.960 . S
C350 C348 1.381 . S
C350 C351 1.394 . S
C350 H358 0.930 . S
C351 C350 1.394 . S
C351 C352 1.383 . S
C351 H359 0.929 . S
C352 C351 1.383 . S
C352 C353 1.377 . S
C353 H337 0.930 . S
C353 C352 1.377 . S
C353 C354 1.379 . S
C354 H338 0.931 . S
C354 C348 1.383 . S
C354 C353 1.379 . S
H355 C349 0.959 . S
H356 C349 0.961 . S
H357 C349 0.960 . S
H358 C350 0.930 . S
H359 C351 0.929 . S
H360 C368 0.929 . S
H361 C370 0.930 . S
H362 C372 0.930 . S
H363 C375 0.929 . S
H364 C378 0.930 . S
H365 C380 0.960 . S
H366 C380 0.960 . S
H367 C380 0.960 . S
C368 H360 0.929 . S
C368 C369 1.377 . S
C368 C370 1.384 . S
C369 C368 1.377 . S
C369 C375 1.390 . S
C370 H361 0.930 . S
C370 C368 1.384 . S
C370 C371 1.372 . S
C371 C370 1.372 . S
C371 C372 1.400 . S
C371 C376 1.490 . S
C372 H362 0.930 . S
C372 C371 1.400 . S
C372 C375 1.386 . S
H373 C389 0.930 . S
H374 C390 0.931 . S
C375 H363 0.929 . S
C375 C369 1.390 . S
C375 C372 1.386 . S
C376 C371 1.490 . S
C376 C378 1.395 . S
C376 C379 1.403 . S
H377 C383 0.930 . S
C378 H364 0.930 . S
C378 C376 1.395 . S
C378 C381 1.403 . S
C379 C376 1.403 . S
C379 C380 1.524 . S
C379 C383 1.400 . S
C380 H365 0.960 . S
C380 H366 0.960 . S
C380 H367 0.960 . S
C380 C379 1.524 . S
C381 C378 1.403 . S
C381 C382 1.392 . S
C381 C385 1.495 . S
C382 C381 1.392 . S
C382 C383 1.385 . S
C382 C384 1.478 . S
C383 H377 0.930 . S
C383 C379 1.400 . S
C383 C382 1.385 . S
C384 C382 1.478 . S
C384 C386 1.381 . S
C384 C390 1.383 . S
C385 C381 1.495 . S
C385 H391 0.959 . S
C385 H392 0.961 . S
C385 H393 0.960 . S
C386 C384 1.381 . S
C386 C387 1.394 . S
C386 H394 0.912 1_455 S
C387 C386 1.394 . S
C387 C388 1.383 . S
C387 H395 0.929 1_455 S
C388 C387 1.383 . S
C388 C389 1.377 . S
C389 H373 0.930 . S
C389 C388 1.377 . S
C389 C390 1.379 . S
C390 H374 0.931 . S
C390 C384 1.383 . S
C390 C389 1.379 . S
H391 C385 0.959 . S
H392 C385 0.961 . S
H393 C385 0.960 . S
H394 C386 0.912 1_655 S
H395 C387 0.929 1_655 S
H396 C404 0.929 . S
H397 C406 0.930 . S
H398 C408 0.930 . S
H399 C411 0.929 . S
H400 C414 0.930 . S
H401 C416 0.960 . S
H402 C416 0.960 . S
H403 C416 0.960 . S
C404 H396 0.929 . S
C404 C405 1.377 . S
C404 C406 1.384 . S
C405 C404 1.377 . S
C405 C411 1.390 . S
C406 H397 0.930 . S
C406 C404 1.384 . S
C406 C407 1.372 . S
C407 C406 1.372 . S
C407 C408 1.400 . S
C407 C412 1.490 . S
C408 H398 0.930 . S
C408 C407 1.400 . S
C408 C411 1.386 . S
H409 C425 0.930 1_565 S
H410 C426 0.931 1_565 S
C411 H399 0.929 . S
C411 C405 1.390 . S
C411 C408 1.386 . S
C412 C407 1.490 . S
C412 C414 1.395 . S
C412 C415 1.403 . S
H413 C419 0.930 . S
C414 H400 0.930 . S
C414 C412 1.395 . S
C414 C417 1.403 . S
C415 C412 1.403 . S
C415 C416 1.524 . S
C415 C419 1.400 . S
C416 H401 0.960 . S
C416 H402 0.960 . S
C416 H403 0.960 . S
C416 C415 1.524 . S
C417 C414 1.403 . S
C417 C418 1.392 . S
C417 C421 1.495 . S
C418 C417 1.392 . S
C418 C419 1.385 . S
C418 C420 1.478 . S
C419 H413 0.930 . S
C419 C415 1.400 . S
C419 C418 1.385 . S
C420 C418 1.478 . S
C420 C422 1.381 . S
C420 C426 1.383 . S
C421 C417 1.495 . S
C421 H427 0.959 . S
C421 H428 0.961 . S
C421 H429 0.960 . S
C422 C420 1.381 . S
C422 C423 1.394 . S
C422 H430 0.930 . S
C423 C422 1.394 . S
C423 C424 1.383 . S
C423 H431 0.929 . S
C424 C423 1.383 . S
C424 C425 1.377 . S
C425 H409 0.930 1_545 S
C425 C424 1.377 . S
C425 C426 1.379 . S
C426 H410 0.931 1_545 S
C426 C420 1.383 . S
C426 C425 1.379 . S
H427 C421 0.959 . S
H428 C421 0.961 . S
H429 C421 0.960 . S
H430 C422 0.930 . S
H431 C423 0.929 . S
H432 C440 0.929 . S
H433 C442 0.930 . S
H434 C444 0.930 . S
H435 C447 0.929 . S
H436 C450 0.930 . S
H437 C452 0.960 . S
H438 C452 0.960 . S
H439 C452 0.960 1_455 S
C440 H432 0.929 . S
C440 C441 1.377 . S
C440 C442 1.384 . S
C441 C440 1.377 . S
C441 C447 1.390 . S
C442 H433 0.930 . S
C442 C440 1.384 . S
C442 C443 1.372 . S
C443 C442 1.372 . S
C443 C444 1.400 . S
C443 C448 1.490 . S
C444 H434 0.930 . S
C444 C443 1.400 . S
C444 C447 1.386 . S
H445 C461 0.930 . S
H446 C462 0.931 . S
C447 H435 0.929 . S
C447 C441 1.390 . S
C447 C444 1.386 . S
C448 C443 1.490 . S
C448 C450 1.395 . S
C448 C451 1.403 . S
H449 C455 0.930 . S
C450 H436 0.930 . S
C450 C448 1.395 . S
C450 C453 1.403 . S
C451 C448 1.403 . S
C451 C452 1.524 1_455 S
C451 C455 1.400 . S
C452 H437 0.960 . S
C452 H438 0.960 . S
C452 H439 0.960 1_655 S
C452 C451 1.524 1_655 S
C453 C450 1.403 . S
C453 C454 1.392 . S
C453 C457 1.495 . S
C454 C453 1.392 . S
C454 C455 1.385 . S
C454 C456 1.478 . S
C455 H449 0.930 . S
C455 C451 1.400 . S
C455 C454 1.385 . S
C456 C454 1.478 . S
C456 C458 1.381 . S
C456 C462 1.383 . S
C457 C453 1.495 . S
C457 H463 0.959 . S
C457 H464 0.961 . S
C457 H465 0.960 . S
C458 C456 1.381 . S
C458 C459 1.394 . S
C458 H466 0.930 . S
C459 C458 1.394 . S
C459 C460 1.383 . S
C459 H467 0.929 . S
C460 C459 1.383 . S
C460 C461 1.377 . S
C461 H445 0.930 . S
C461 C460 1.377 . S
C461 C462 1.379 . S
C462 H446 0.931 . S
C462 C456 1.383 . S
C462 C461 1.379 . S
H463 C457 0.959 . S
H464 C457 0.961 . S
H465 C457 0.960 . S
H466 C458 0.930 . S
H467 C459 0.929 . S
H468 C476 0.929 . S
H469 C478 0.930 . S
H470 C480 0.930 1_565 S
H471 C483 0.929 1_565 S
H472 C486 0.930 . S
H473 C488 0.960 . S
H474 C488 0.960 . S
H475 C488 0.960 1_565 S
C476 H468 0.929 . S
C476 C477 1.377 . S
C476 C478 1.384 . S
C477 C476 1.377 . S
C477 C483 1.390 . S
C478 H469 0.930 . S
C478 C476 1.384 . S
C478 C479 1.372 . S
C479 C478 1.372 . S
C479 C480 1.400 . S
C479 C484 1.490 . S
C480 H470 0.930 1_545 S
C480 C479 1.400 . S
C480 C483 1.386 . S
H481 C497 0.930 . S
H482 C498 0.904 1_565 S
C483 H471 0.929 1_545 S
C483 C477 1.390 . S
C483 C480 1.386 . S
C484 C479 1.490 . S
C484 C486 1.395 . S
C484 C487 1.403 . S
H485 C491 0.930 . S
C486 H472 0.930 . S
C486 C484 1.395 . S
C486 C489 1.403 . S
C487 C484 1.403 . S
C487 C488 1.524 . S
C487 C491 1.400 . S
C488 H473 0.960 . S
C488 H474 0.960 . S
C488 H475 0.960 1_545 S
C488 C487 1.524 . S
C489 C486 1.403 . S
C489 C490 1.392 . S
C489 C493 1.495 . S
C490 C489 1.392 . S
C490 C491 1.385 . S
C490 C492 1.478 . S
C491 H485 0.930 . S
C491 C487 1.400 . S
C491 C490 1.385 . S
C492 C490 1.478 . S
C492 C494 1.381 . S
C492 C498 1.413 . S
C493 C489 1.495 . S
C493 H499 0.959 . S
C493 H500 0.961 . S
C493 H501 0.960 . S
C494 C492 1.381 . S
C494 C495 1.394 . S
C494 H502 0.930 . S
C495 C494 1.394 . S
C495 C496 1.383 . S
C495 H503 0.929 . S
C496 C495 1.383 . S
C496 C497 1.377 1_545 S
C497 H481 0.930 . S
C497 C496 1.377 1_565 S
C497 C498 1.376 1_565 S
C498 H482 0.904 1_545 S
C498 C492 1.413 . S
C498 C497 1.376 1_545 S
H499 C493 0.959 . S
H500 C493 0.961 . S
H501 C493 0.960 . S
H502 C494 0.930 . S
H503 C495 0.929 . S
H504 C512 0.929 . S
H505 C514 0.930 . S
H506 C516 0.930 . S
H507 C519 0.929 . S
H508 C522 0.930 . S
H509 C524 0.960 . S
H510 C524 0.960 . S
H511 C524 0.960 . S
C512 H504 0.929 . S
C512 C513 1.377 . S
C512 C514 1.384 . S
C513 C512 1.377 . S
C513 C519 1.390 . S
C514 H505 0.930 . S
C514 C512 1.384 . S
C514 C515 1.372 . S
C515 C514 1.372 . S
C515 C516 1.400 . S
C515 C520 1.490 . S
C516 H506 0.930 . S
C516 C515 1.400 . S
C516 C519 1.386 . S
H517 C533 0.930 . S
H518 C534 0.931 . S
C519 H507 0.929 . S
C519 C513 1.390 . S
C519 C516 1.386 . S
C520 C515 1.490 . S
C520 C522 1.395 1_455 S
C520 C523 1.403 . S
H521 C527 0.930 . S
C522 H508 0.930 . S
C522 C520 1.395 1_655 S
C522 C525 1.403 . S
C523 C520 1.403 . S
C523 C524 1.524 . S
C523 C527 1.400 . S
C524 H509 0.960 . S
C524 H510 0.960 . S
C524 H511 0.960 . S
C524 C523 1.524 . S
C525 C522 1.403 . S
C525 C526 1.392 1_655 S
C525 C529 1.495 . S
C526 C525 1.392 1_455 S
C526 C527 1.385 . S
C526 C528 1.478 . S
C527 H521 0.930 . S
C527 C523 1.400 . S
C527 C526 1.385 . S
C528 C526 1.478 . S
C528 C530 1.381 . S
C528 C534 1.383 . S
C529 C525 1.495 . S
C529 H535 0.959 . S
C529 H536 0.961 . S
C529 H537 0.960 . S
C530 C528 1.381 . S
C530 C531 1.394 . S
C530 H538 0.930 . S
C531 C530 1.394 . S
C531 C532 1.383 . S
C531 H539 0.929 . S
C532 C531 1.383 . S
C532 C533 1.377 . S
C533 H517 0.930 . S
C533 C532 1.377 . S
C533 C534 1.379 . S
C534 H518 0.931 . S
C534 C528 1.383 . S
C534 C533 1.379 . S
H535 C529 0.959 . S
H536 C529 0.961 . S
H537 C529 0.960 . S
H538 C530 0.930 . S
H539 C531 0.929 . S
H540 C548 0.929 . S
H541 C550 0.930 . S
H542 C552 0.930 . S
H543 C555 0.929 . S
H544 C558 0.930 . S
H545 C560 0.960 . S
H546 C560 0.960 . S
H547 C560 0.960 . S
C548 H540 0.929 . S
C548 C549 1.377 1_565 S
C548 C550 1.384 . S
C549 C548 1.377 1_545 S
C549 C555 1.390 . S
C550 H541 0.930 . S
C550 C548 1.384 . S
C550 C551 1.372 1_565 S
C551 C550 1.372 1_545 S
C551 C552 1.400 . S
C551 C556 1.490 . S
C552 H542 0.930 . S
C552 C551 1.400 . S
C552 C555 1.386 . S
H553 C569 0.930 . S
H554 C570 0.931 . S
C555 H543 0.929 . S
C555 C549 1.390 . S
C555 C552 1.386 . S
C556 C551 1.490 . S
C556 C558 1.395 . S
C556 C559 1.403 . S
H557 C563 0.930 . S
C558 H544 0.930 . S
C558 C556 1.395 . S
C558 C561 1.403 . S
C559 C556 1.403 . S
C559 C560 1.524 . S
C559 C563 1.400 . S
C560 H545 0.960 . S
C560 H546 0.960 . S
C560 H547 0.960 . S
C560 C559 1.524 . S
C561 C558 1.403 . S
C561 C562 1.392 . S
C561 C565 1.495 . S
C562 C561 1.392 . S
C562 C563 1.385 . S
C562 C564 1.478 . S
C563 H557 0.930 . S
C563 C559 1.400 . S
C563 C562 1.385 . S
C564 C562 1.478 . S
C564 C566 1.381 1_545 S
C564 C570 1.383 . S
C565 C561 1.495 . S
C565 H571 0.959 . S
C565 H572 0.961 . S
C565 H573 0.960 1_545 S
C566 C564 1.381 1_565 S
C566 C567 1.394 . S
C566 H574 0.930 . S
C567 C566 1.394 . S
C567 C568 1.383 1_565 S
C567 H575 0.929 . S
C568 C567 1.383 1_545 S
C568 C569 1.377 . S
C569 H553 0.930 . S
C569 C568 1.377 . S
C569 C570 1.379 . S
C570 H554 0.931 . S
C570 C564 1.383 . S
C570 C569 1.379 . S
H571 C565 0.959 . S
H572 C565 0.961 . S
H573 C565 0.960 1_565 S
H574 C566 0.930 . S
H575 C567 0.929 . S
H576 C584 0.929 . S
H577 C586 0.930 . S
H578 C588 0.930 . S
H579 C591 0.929 . S
H580 C594 0.930 . S
H581 C596 0.960 . S
H582 C596 0.960 1_655 S
H583 C596 0.960 . S
C584 H576 0.929 . S
C584 C585 1.377 . S
C584 C586 1.384 . S
C585 C584 1.377 . S
C585 C591 1.390 . S
C586 H577 0.930 . S
C586 C584 1.384 . S
C586 C587 1.372 . S
C587 C586 1.372 . S
C587 C588 1.400 . S
C587 C592 1.490 . S
C588 H578 0.930 . S
C588 C587 1.400 . S
C588 C591 1.386 . S
H589 C605 0.930 . S
H590 C606 0.931 . S
C591 H579 0.929 . S
C591 C585 1.390 . S
C591 C588 1.386 . S
C592 C587 1.490 . S
C592 C594 1.395 . S
C592 C595 1.403 . S
H593 C599 0.930 . S
C594 H580 0.930 . S
C594 C592 1.395 . S
C594 C597 1.403 . S
C595 C592 1.403 . S
C595 C596 1.524 . S
C595 C599 1.400 . S
C596 H581 0.960 . S
C596 H582 0.960 1_455 S
C596 H583 0.960 . S
C596 C595 1.524 . S
C597 C594 1.403 . S
C597 C598 1.392 . S
C597 C601 1.495 . S
C598 C597 1.392 . S
C598 C599 1.385 . S
C598 C600 1.478 . S
C599 H593 0.930 . S
C599 C595 1.400 . S
C599 C598 1.385 . S
C600 C598 1.478 . S
C600 C602 1.381 . S
C600 C606 1.383 . S
C601 C597 1.495 . S
C601 H607 0.959 . S
C601 H608 0.961 . S
C601 H609 0.960 . S
C602 C600 1.381 . S
C602 C603 1.394 . S
C602 H610 0.930 1_455 S
C603 C602 1.394 . S
C603 C604 1.383 . S
C603 H611 0.929 1_455 S
C604 C603 1.383 . S
C604 C605 1.377 . S
C605 H589 0.930 . S
C605 C604 1.377 . S
C605 C606 1.379 . S
C606 H590 0.931 . S
C606 C600 1.383 . S
C606 C605 1.379 . S
H607 C601 0.959 . S
H608 C601 0.961 . S
H609 C601 0.960 . S
H610 C602 0.930 1_655 S
H611 C603 0.929 1_655 S
C352 C197 2.320 . S
C333 C69 2.324 . S
C388 C285 2.327 . S
C369 C143 2.329 . S
C424 C205 1.395 . S
C405 C63 1.317 . S
C460 C293 1.381 . S
C441 C137 1.313 . S
C496 C265 1.344 . S
C477 C39 1.287 . S
C532 C168 1.316 . S
C513 C113 1.273 . S
C568 C256 0.561 . S
C549 C51 0.551 . S
C585 C125 0.571 . S
C604 C177 0.559 . S
