# Generated by pormake.
# Topology apo, (3,6)-cn, num edge types: 1
# Building blocks:
#     Node 0, Type 0, BuildingBlock: ESEHIV_clean_linker_0, # of connection points: 3
#     Node 1, Type 0, BuildingBlock: ESEHIV_clean_linker_0, # of connection points: 3
#     Node 2, Type 0, BuildingBlock: ESEHIV_clean_linker_0, # of connection points: 3
#     Node 3, Type 0, BuildingBlock: ESEHIV_clean_linker_0, # of connection points: 3
#     Node 4, Type 0, BuildingBlock: ESEHIV_clean_linker_0, # of connection points: 3
#     Node 5, Type 0, BuildingBlock: ESEHIV_clean_linker_0, # of connection points: 3
#     Node 6, Type 0, BuildingBlock: ESEHIV_clean_linker_0, # of connection points: 3
#     Node 7, Type 0, BuildingBlock: ESEHIV_clean_linker_0, # of connection points: 3
#     Node 8, Type 1, BuildingBlock: MIDCAF_clean_sbu_0, # of connection points: 6
#     Node 9, Type 1, BuildingBlock: MIDCAF_clean_sbu_0, # of connection points: 6
#     Node 10, Type 1, BuildingBlock: MIDCAF_clean_sbu_0, # of connection points: 6
#     Node 11, Type 1, BuildingBlock: MIDCAF_clean_sbu_0, # of connection points: 6
#     Edge 12, Type (0, 1), BuildingBlock: AJUNOK_clean_linker_0, # of connection points: 2
#     Edge 13, Type (0, 1), BuildingBlock: AJUNOK_clean_linker_0, # of connection points: 2
#     Edge 14, Type (0, 1), BuildingBlock: AJUNOK_clean_linker_0, # of connection points: 2
#     Edge 15, Type (0, 1), BuildingBlock: AJUNOK_clean_linker_0, # of connection points: 2
#     Edge 16, Type (0, 1), BuildingBlock: AJUNOK_clean_linker_0, # of connection points: 2
#     Edge 17, Type (0, 1), BuildingBlock: AJUNOK_clean_linker_0, # of connection points: 2
#     Edge 18, Type (0, 1), BuildingBlock: AJUNOK_clean_linker_0, # of connection points: 2
#     Edge 19, Type (0, 1), BuildingBlock: AJUNOK_clean_linker_0, # of connection points: 2
#     Edge 20, Type (0, 1), BuildingBlock: AJUNOK_clean_linker_0, # of connection points: 2
#     Edge 21, Type (0, 1), BuildingBlock: AJUNOK_clean_linker_0, # of connection points: 2
#     Edge 22, Type (0, 1), BuildingBlock: AJUNOK_clean_linker_0, # of connection points: 2
#     Edge 23, Type (0, 1), BuildingBlock: AJUNOK_clean_linker_0, # of connection points: 2
#     Edge 24, Type (0, 1), BuildingBlock: AJUNOK_clean_linker_0, # of connection points: 2
#     Edge 25, Type (0, 1), BuildingBlock: AJUNOK_clean_linker_0, # of connection points: 2
#     Edge 26, Type (0, 1), BuildingBlock: AJUNOK_clean_linker_0, # of connection points: 2
#     Edge 27, Type (0, 1), BuildingBlock: AJUNOK_clean_linker_0, # of connection points: 2
#     Edge 28, Type (0, 1), BuildingBlock: AJUNOK_clean_linker_0, # of connection points: 2
#     Edge 29, Type (0, 1), BuildingBlock: AJUNOK_clean_linker_0, # of connection points: 2
#     Edge 30, Type (0, 1), BuildingBlock: AJUNOK_clean_linker_0, # of connection points: 2
#     Edge 31, Type (0, 1), BuildingBlock: AJUNOK_clean_linker_0, # of connection points: 2
#     Edge 32, Type (0, 1), BuildingBlock: AJUNOK_clean_linker_0, # of connection points: 2
#     Edge 33, Type (0, 1), BuildingBlock: AJUNOK_clean_linker_0, # of connection points: 2
#     Edge 34, Type (0, 1), BuildingBlock: AJUNOK_clean_linker_0, # of connection points: 2
#     Edge 35, Type (0, 1), BuildingBlock: AJUNOK_clean_linker_0, # of connection points: 2
# Relax obj value: 0.086
# Max RMSD: 0.099
# Mean RMSD: 0.090
data_MOF--net-apo--node1-MIDCAF_clean_sbu_0--node2-ESEHIV_clean_linker_0--edge1-AJUNOK_clean_linker_0
_symmetry_space_group_name_H-M    P1
_symmetry_Int_Tables_number       1
_symmetry_cell_setting            triclinic
loop_
_symmetry_equiv_pos_as_xyz
'x, y, z'
_cell_length_a     23.547634
_cell_length_b     28.163293
_cell_length_c     24.187367
_cell_angle_alpha  90.488612
_cell_angle_beta   89.083489
_cell_angle_gamma 89.665711
loop_
_atom_site_label
_atom_site_type_symbol
_atom_site_fract_x
_atom_site_fract_y
_atom_site_fract_z
_atom_type_partial_charge
H0 H 0.39231 0.37964 0.46523 0.0
H1 H 0.30956 0.35904 0.30993 0.0
H2 H 0.29985 0.25144 0.43621 0.0
C3 C 0.36642 0.35804 0.43826 0.0
C4 C 0.3473 0.31404 0.45687 0.0
C5 C 0.35202 0.37497 0.386 0.0
C6 C 0.32042 0.34611 0.35051 0.0
C7 C 0.30112 0.3014 0.36809 0.0
C8 C 0.3152 0.28535 0.42153 0.0
H9 H 0.10875 0.12294 0.95844 0.0
H10 H 0.17842 0.15233 0.79666 0.0
H11 H 0.22684 0.23699 0.93723 0.0
C12 C 0.13528 0.14418 0.93132 0.0
C13 C 0.16604 0.18183 0.95409 0.0
C14 C 0.13903 0.13306 0.87463 0.0
C15 C 0.17488 0.1602 0.8405 0.0
C16 C 0.20737 0.19709 0.86286 0.0
C17 C 0.20181 0.20862 0.91961 0.0
H18 H 0.88051 0.09438 0.56169 0.0
H19 H 0.80531 0.10555 0.72504 0.0
H20 H 0.78023 0.21672 0.60663 0.0
C21 C 0.85331 0.11281 0.59153 0.0
C22 C 0.82967 0.15683 0.57741 0.0
C23 C 0.84498 0.09378 0.64459 0.0
C24 C 0.81225 0.11961 0.68392 0.0
C25 C 0.78934 0.16412 0.67056 0.0
C26 C 0.79806 0.18244 0.61719 0.0
H27 H 0.59156 0.36563 0.08779 0.0
H28 H 0.67864 0.3615 0.24315 0.0
H29 H 0.71427 0.25632 0.11614 0.0
C30 C 0.62177 0.34909 0.11515 0.0
C31 C 0.65285 0.30984 0.0957 0.0
C32 C 0.63192 0.36939 0.16731 0.0
C33 C 0.66986 0.34632 0.20289 0.0
C34 C 0.69806 0.30434 0.18531 0.0
C35 C 0.6901 0.28682 0.13117 0.0
H36 H 0.60917 0.61859 0.59721 0.0
H37 H 0.72239 0.73698 0.59636 0.0
H38 H 0.69309 0.65866 0.74697 0.0
C39 C 0.63711 0.6423 0.61941 0.0
C40 C 0.64728 0.63468 0.67562 0.0
C41 C 0.66391 0.67929 0.59099 0.0
C42 C 0.70063 0.70945 0.61927 0.0
C43 C 0.71106 0.70292 0.67598 0.0
C44 C 0.68457 0.66493 0.70374 0.0
H45 H 0.89865 0.86698 0.0941 0.0
H46 H 0.82706 0.84071 0.25596 0.0
H47 H 0.79302 0.74574 0.11958 0.0
C48 C 0.8738 0.84516 0.12206 0.0
C49 C 0.84735 0.80469 0.101 0.0
C50 C 0.8685 0.85781 0.17819 0.0
C51 C 0.83311 0.83064 0.21291 0.0
C52 C 0.80578 0.79011 0.1921 0.0
C53 C 0.81392 0.77685 0.13614 0.0
H54 H 0.03781 0.83966 0.45402 0.0
H55 H 0.17723 0.74146 0.44045 0.0
H56 H 0.16073 0.85359 0.32182 0.0
C57 C 0.07551 0.8271 0.43203 0.0
C58 C 0.097 0.85304 0.38721 0.0
C59 C 0.10569 0.78865 0.45338 0.0
C60 C 0.1532 0.77085 0.42382 0.0
C61 C 0.17098 0.79238 0.37392 0.0
C62 C 0.14386 0.83447 0.35706 0.0
H63 H 0.40869 0.61999 0.95855 0.0
H64 H 0.33358 0.64804 0.80107 0.0
H65 H 0.30286 0.74331 0.93879 0.0
C66 C 0.38322 0.64259 0.93249 0.0
C67 C 0.35699 0.68337 0.95521 0.0
C68 C 0.37559 0.63004 0.87679 0.0
C69 C 0.34094 0.65833 0.84365 0.0
C70 C 0.31543 0.69964 0.86545 0.0
C71 C 0.32384 0.71216 0.92125 0.0
Zn72 Zn 0.04625 0.14468 0.36334 0.0
Zn73 Zn 0.95335 0.13631 0.17823 0.0
Zn74 Zn 0.00236 0.14063 0.27231 0.0
C75 C 0.05919 0.17599 0.15729 0.0
C76 C 0.95654 0.04428 0.21377 0.0
O77 O 0.94235 0.17569 0.33298 0.0
O78 O 0.99631 0.18832 0.40517 0.0
C79 C 0.12733 0.18272 0.2982 0.0
O80 O 0.0628 0.17249 0.21032 0.0
O81 O 0.01565 0.16146 0.13284 0.0
O82 O 0.93646 0.06796 0.17462 0.0
O83 O 0.98444 0.06492 0.25251 0.0
O84 O 0.12179 0.16691 0.34641 0.0
O85 O 0.08635 0.17856 0.2636 0.0
O86 O 0.01633 0.066 0.30087 0.0
O87 O 0.04451 0.0783 0.3861 0.0
C88 C 0.03215 0.04969 0.34794 0.0
O89 O 0.92106 0.18267 0.27883 0.0
O90 O 0.88921 0.17888 0.19333 0.0
C91 C 0.94855 0.19156 0.38276 0.0
C92 C 0.88416 0.19404 0.2423 0.0
Zn93 Zn 0.5718 0.35599 0.6831 0.0
Zn94 Zn 0.4641 0.35017 0.85569 0.0
Zn95 Zn 0.51468 0.35054 0.77185 0.0
C96 C 0.45373 0.44062 0.82645 0.0
C97 C 0.40286 0.29154 0.79567 0.0
O98 O 0.59156 0.30427 0.78256 0.0
O99 O 0.63302 0.31244 0.70047 0.0
C100 C 0.57079 0.44718 0.72059 0.0
O101 O 0.49654 0.42544 0.7973 0.0
O102 O 0.42385 0.41159 0.85325 0.0
O103 O 0.41677 0.29454 0.84555 0.0
O104 O 0.4312 0.31442 0.75851 0.0
O105 O 0.59302 0.42333 0.68156 0.0
O106 O 0.53825 0.42685 0.75666 0.0
O107 O 0.4589 0.32061 0.70608 0.0
O108 O 0.51406 0.33124 0.63244 0.0
C109 C 0.46785 0.31704 0.65342 0.0
O110 O 0.56748 0.3131 0.8354 0.0
O111 O 0.5239 0.34264 0.9096 0.0
C112 C 0.63206 0.29414 0.74778 0.0
C113 C 0.56446 0.31916 0.88835 0.0
Zn114 Zn 0.05442 0.86118 0.87337 0.0
Zn115 Zn 0.90906 0.84034 0.62202 0.0
Zn116 Zn 0.00987 0.84918 0.7863 0.0
C117 C 0.96084 0.91906 0.70807 0.0
C118 C 0.90034 0.81305 0.74997 0.0
O119 O 0.08954 0.80997 0.77101 0.0
O120 O 0.12835 0.83506 0.84832 0.0
C121 C 0.04056 0.95117 0.8395 0.0
O122 O 0.98994 0.91857 0.75229 0.0
O123 O 0.95144 0.8785 0.68578 0.0
O124 O 0.92476 0.8318 0.70806 0.0
O125 O 0.92742 0.81378 0.79539 0.0
O126 O 0.05162 0.93089 0.88435 0.0
O127 O 0.02516 0.92648 0.79733 0.0
O128 O 0.95123 0.81665 0.84849 0.0
O129 O 0.00641 0.82099 0.92116 0.0
C130 C 0.96053 0.80789 0.89975 0.0
O131 O 0.05642 0.80992 0.72036 0.0
O132 O 0.97944 0.82747 0.6758 0.0
C133 C 0.13243 0.81258 0.80307 0.0
C134 C 0.02864 0.80781 0.67525 0.0
Zn135 Zn 0.535 0.64839 0.19459 0.0
Zn136 Zn 0.4466 0.65977 0.36248 0.0
Zn137 Zn 0.49061 0.647 0.27911 0.0
C138 C 0.54879 0.67794 0.39303 0.0
C139 C 0.42597 0.56648 0.33546 0.0
O140 O 0.43334 0.67853 0.21497 0.0
O141 O 0.49743 0.69864 0.15268 0.0
C142 C 0.61849 0.68183 0.25444 0.0
O143 O 0.55011 0.6811 0.33982 0.0
O144 O 0.50572 0.66125 0.41711 0.0
O145 O 0.40113 0.60092 0.35944 0.0
O146 O 0.46974 0.57456 0.30454 0.0
O147 O 0.61478 0.6598 0.20926 0.0
O148 O 0.57444 0.6852 0.28681 0.0
O149 O 0.51155 0.57066 0.25843 0.0
O150 O 0.52268 0.58288 0.1697 0.0
C151 C 0.52406 0.55452 0.20964 0.0
O152 O 0.40631 0.68585 0.27106 0.0
O153 O 0.40711 0.72055 0.35275 0.0
C154 C 0.44628 0.69816 0.16845 0.0
C155 C 0.38484 0.71614 0.30611 0.0
C156 C 0.06972 0.91957 0.32302 0.0
C157 C 0.07502 0.90209 0.37713 0.0
C158 C 0.05344 0.9669 0.31358 0.0
C159 C 0.04049 -0.00182 0.35764 0.0
H160 H 0.07949 0.89693 0.28768 0.0
H161 H 0.05383 0.97976 0.2717 0.0
S162 S 0.04689 0.9706 0.50733 0.0
N163 N 0.06774 0.92132 0.47567 0.0
N164 N 0.03178 0.00789 0.45744 0.0
C165 C 0.04354 0.98072 0.41183 0.0
C166 C 0.06202 0.93334 0.42166 0.0
C167 C 0.36098 0.54952 0.83712 0.0
C168 C 0.39874 0.58452 0.85525 0.0
C169 C 0.38012 0.50349 0.82485 0.0
C170 C 0.43777 0.49113 0.82933 0.0
H171 H 0.31587 0.55708 0.83528 0.0
H172 H 0.34921 0.47685 0.81367 0.0
S173 S 0.55454 0.57125 0.86928 0.0
N174 N 0.49695 0.60504 0.87297 0.0
N175 N 0.53305 0.5181 0.84941 0.0
C176 C 0.47654 0.52644 0.84417 0.0
C177 C 0.45693 0.57331 0.85736 0.0
C178 C 0.66193 0.55608 0.71949 0.0
C179 C 0.62407 0.59137 0.70189 0.0
C180 C 0.64303 0.50993 0.73018 0.0
C181 C 0.58556 0.49777 0.72464 0.0
H182 H 0.70709 0.56312 0.72067 0.0
H183 H 0.67416 0.48279 0.73953 0.0
S184 S 0.46821 0.57896 0.68803 0.0
N185 N 0.52554 0.61254 0.68552 0.0
N186 N 0.49012 0.52551 0.70602 0.0
C187 C 0.54655 0.53356 0.71166 0.0
C188 C 0.56582 0.58053 0.70024 0.0
C189 C 0.86622 0.93569 0.22915 0.0
C190 C 0.89723 0.9014 0.19843 0.0
C191 C 0.88825 0.98121 0.23818 0.0
C192 C 0.94181 0.99385 0.21676 0.0
H193 H 0.82317 0.92851 0.243 0.0
H194 H 0.86171 0.00764 0.25892 0.0
S195 S 0.04314 0.91559 0.14054 0.0
N196 N 0.98777 0.88148 0.15357 0.0
N197 N 0.02694 0.96825 0.16713 0.0
C198 C 0.97458 0.95935 0.18895 0.0
C199 C 0.95293 0.91269 0.18091 0.0
C200 C 0.90368 0.04559 0.70932 0.0
C201 C 0.87364 0.0485 0.65966 0.0
C202 C 0.93283 0.00405 0.72367 0.0
C203 C 0.93323 0.96355 0.68904 0.0
H204 H 0.90525 0.07587 0.73717 0.0
H205 H 0.95449 0.00365 0.76277 0.0
S206 S 0.86178 0.95301 0.55376 0.0
N207 N 0.84574 0.00715 0.57577 0.0
N208 N 0.90211 0.92979 0.60184 0.0
C209 C 0.90398 0.96621 0.63886 0.0
C210 C 0.87388 0.00845 0.6244 0.0
C211 C 0.5794 0.4274 0.23135 0.0
C212 C 0.6068 0.41709 0.18038 0.0
C213 C 0.55224 0.47165 0.24106 0.0
C214 C 0.54982 0.50645 0.19949 0.0
H215 H 0.57848 0.40102 0.26367 0.0
H216 H 0.53338 0.47859 0.28141 0.0
S217 S 0.62367 0.49924 0.06199 0.0
N218 N 0.63746 0.44804 0.09141 0.0
N219 N 0.5831 0.5284 0.10697 0.0
C220 C 0.57893 0.49667 0.14898 0.0
C221 C 0.60815 0.45281 0.14015 0.0
C222 C 0.39537 0.43428 0.3206 0.0
C223 C 0.36735 0.42422 0.37096 0.0
C224 C 0.41383 0.48054 0.30867 0.0
C225 C 0.40544 0.5179 0.34695 0.0
H226 H 0.40396 0.40613 0.29079 0.0
H227 H 0.43423 0.48716 0.26913 0.0
S228 S 0.32889 0.51048 0.48233 0.0
N229 N 0.32705 0.45608 0.45673 0.0
N230 N 0.36402 0.54193 0.43601 0.0
C231 C 0.37564 0.50834 0.3966 0.0
C232 C 0.35617 0.46176 0.40821 0.0
C233 C 0.05314 0.08077 0.87319 0.0
C234 C 0.10842 0.09074 0.85322 0.0
C235 C 0.02833 0.03627 0.86445 0.0
C236 C 0.05706 0.00096 0.83372 0.0
H237 H 0.03025 0.10652 0.89866 0.0
H238 H 0.98794 0.02854 0.88438 0.0
S239 S 0.19949 0.00961 0.76783 0.0
N240 N 0.18943 0.06161 0.79858 0.0
N241 N 0.14087 0.97921 0.77964 0.0
C242 C 0.10983 0.0116 0.8094 0.0
C243 C 0.13596 0.05633 0.81954 0.0
C244 C 0.17219 0.15646 0.05245 0.0
C245 C 0.15872 0.19201 1.01412 0.0
C246 C 0.14696 0.15617 0.1055 0.0
C247 C 0.10683 0.191 0.12145 0.0
H248 H 0.19782 0.12618 0.0394 0.0
H249 H 0.15317 0.12525 0.13113 0.0
S250 S 0.06532 0.29617 0.04024 0.0
N251 N 0.10999 0.26675 0.99899 0.0
N252 N 0.06162 0.26561 0.09819 0.0
C253 C 0.09862 0.22967 0.08607 0.0
C254 C 0.12473 0.23027 0.03234 0.0
C255 C 0.41058 0.27048 0.5204 0.0
C256 C 0.36286 0.29977 0.51355 0.0
C257 C 0.44077 0.27134 0.56998 0.0
C258 C 0.42395 0.30118 0.61445 0.0
H259 H 0.42816 0.25073 0.48543 0.0
H260 H 0.48066 0.25205 0.57156 0.0
S261 S 0.29647 0.37863 0.62001 0.0
N262 N 0.29595 0.35477 0.55735 0.0
N263 N 0.35227 0.35571 0.6509 0.0
C264 C 0.37258 0.32626 0.61035 0.0
C265 C 0.34219 0.32582 0.55962 0.0
C266 C 0.67145 0.32856 0.99699 0.0
C267 C 0.64863 0.29715 0.03639 0.0
C268 C 0.65066 0.32985 0.94292 0.0
C269 C 0.60625 0.29993 0.92686 0.0
H270 H 0.70108 0.35569 1.00972 0.0
H271 H 0.66422 0.35839 0.91609 0.0
S272 S 0.53944 0.20595 1.01158 0.0
N273 N 0.58551 0.23105 0.0534 0.0
N274 N 0.54621 0.23353 0.95182 0.0
C275 C 0.58833 0.26455 0.96379 0.0
C276 C 0.60946 0.26324 1.01878 0.0
C277 C 0.83262 0.15038 0.47422 0.0
C278 C 0.84309 0.17711 0.52236 0.0
C279 C 0.85968 0.16129 0.42381 0.0
C280 C 0.89941 0.19833 0.42064 0.0
H281 H 0.80713 0.11853 0.47663 0.0
H282 H 0.85527 0.13668 0.38947 0.0
S283 S 0.93206 0.28479 0.53178 0.0
N284 N 0.88743 0.24725 0.56116 0.0
N285 N 0.9397 0.26681 0.46687 0.0
C286 C 0.90429 0.22889 0.46655 0.0
C287 C 0.87604 0.21829 0.51756 0.0
C288 C 0.90275 0.75879 0.03079 0.0
C289 C 0.85882 0.79136 0.04265 0.0
C290 C 0.93098 0.75898 0.97931 0.0
C291 C 0.91571 0.79142 0.93807 0.0
H292 H 0.91955 0.73685 0.06337 0.0
H293 H 0.96892 0.73734 0.97399 0.0
S294 S 0.79623 0.87734 0.94561 0.0
N295 N 0.79586 0.85189 1.00693 0.0
N296 N 0.8482 0.85153 0.90957 0.0
C297 C 0.86702 0.8196 0.947 0.0
C298 C 0.83883 0.81993 0.99971 0.0
C299 C 0.61901 0.72626 0.5165 0.0
C300 C 0.65144 0.68665 0.53194 0.0
C301 C 0.59201 0.72717 0.46521 0.0
C302 C 0.59752 0.68891 0.42773 0.0
H303 H 0.60987 0.75439 0.54622 0.0
H304 H 0.56183 0.75544 0.45744 0.0
S305 S 0.68658 0.58153 0.44469 0.0
N306 N 0.6943 0.61169 0.50296 0.0
N307 N 0.64419 0.61391 0.40616 0.0
C308 C 0.63538 0.65205 0.44007 0.0
C309 C 0.6621 0.65068 0.49252 0.0
C310 C 0.35111 0.66165 0.05538 0.0
C311 C 0.36481 0.69522 1.01455 0.0
C312 C 0.36976 0.66717 0.10994 0.0
C313 C 0.40397 0.70582 0.12498 0.0
H314 H 0.3291 0.62938 0.04416 0.0
H315 H 0.36309 0.6382 0.13849 0.0
S316 S 0.44354 0.80714 0.03579 0.0
N317 N 0.40722 0.77169 0.99485 0.0
N318 N 0.44393 0.78127 0.09683 0.0
C319 C 0.41276 0.74192 0.08598 0.0
C320 C 0.39298 0.73671 0.03075 0.0
C321 C 0.12958 0.78934 0.55347 0.0
C322 C 0.09235 0.77521 0.51142 0.0
C323 C 0.11015 0.79543 0.60848 0.0
C324 C 0.05279 0.78791 0.6229 0.0
H325 H 0.1724 0.80026 0.54288 0.0
H326 H 0.13886 0.81021 0.63857 0.0
S327 S 0.94187 0.74061 0.53061 0.0
N328 N 0.99828 0.74659 0.48984 0.0
N329 N 0.96191 0.7574 0.59288 0.0
C330 C 0.01706 0.76868 0.5825 0.0
C331 C 0.03683 0.76242 0.52681 0.0
C332 C 0.27211 0.22357 0.32677 0.0
C333 C 0.26284 0.27271 0.33271 0.0
C334 C 0.23023 0.194 0.30492 0.0
C335 C 0.17754 0.21246 0.28846 0.0
H336 H 0.31028 0.20743 0.34278 0.0
H337 H 0.23658 0.1559 0.30687 0.0
S338 S 0.13561 0.33921 0.28675 0.0
N339 N 0.19977 0.33918 0.31337 0.0
N340 N 0.12147 0.28318 0.27205 0.0
C341 C 0.1705 0.2619 0.2878 0.0
C342 C 0.21296 0.29218 0.31037 0.0
C343 C 0.25163 0.26997 0.82285 0.0
C344 C 0.25151 0.2204 0.82841 0.0
C345 C 0.2993 0.29334 0.80099 0.0
C346 C 0.34873 0.26795 0.78532 0.0
H347 H 0.21625 0.29096 0.83889 0.0
H348 H 0.29997 0.33182 0.80268 0.0
S349 S 0.36702 0.13741 0.78535 0.0
N350 N 0.30202 0.14625 0.81021 0.0
N351 N 0.39239 0.19061 0.77126 0.0
C352 C 0.34699 0.21824 0.78581 0.0
C353 C 0.29818 0.19432 0.80714 0.0
C354 C 0.70078 0.17764 0.72703 0.0
C355 C 0.75566 0.19235 0.71138 0.0
C356 C 0.66135 0.21021 0.7501 0.0
C357 C 0.67594 0.25814 0.75788 0.0
H358 H 0.68647 0.14235 0.71611 0.0
H359 H 0.6175 0.19929 0.75492 0.0
S360 S 0.81786 0.31104 0.73505 0.0
N361 N 0.82547 0.25529 0.71432 0.0
N362 N 0.75143 0.31633 0.75739 0.0
C363 C 0.73282 0.27123 0.74946 0.0
C364 C 0.7727 0.23837 0.72586 0.0
C365 C 0.79328 0.3013 0.22946 0.0
C366 C 0.74019 0.2802 0.22042 0.0
C367 C 0.84 0.27383 0.24608 0.0
C368 C 0.83469 0.22468 0.2545 0.0
H369 H 0.80014 0.33803 0.21832 0.0
H370 H 0.88162 0.29003 0.24628 0.0
S371 S 0.70252 0.15471 0.24569 0.0
N372 N 0.68322 0.20902 0.22841 0.0
N373 N 0.77082 0.15763 0.25986 0.0
C374 C 0.78042 0.2046 0.25166 0.0
C375 C 0.73315 0.23231 0.23441 0.0
C376 C 0.79501 0.71342 0.73796 0.0
C377 C 0.75296 0.73375 0.70445 0.0
C378 C 0.8407 0.74048 0.75722 0.0
C379 C 0.84607 0.78844 0.74293 0.0
H380 H 0.79464 0.67575 0.74657 0.0
H381 H 0.87403 0.72295 0.77989 0.0
S382 S 0.7432 0.8607 0.66507 0.0
N383 N 0.71565 0.8069 0.66562 0.0
N384 N 0.80317 0.85667 0.69918 0.0
C385 C 0.80265 0.80996 0.71291 0.0
C386 C 0.75563 0.78288 0.69435 0.0
C387 C 0.71584 0.78505 0.24814 0.0
C388 C 0.76545 0.76289 0.22694 0.0
C389 C 0.66929 0.75793 0.2663 0.0
C390 C 0.67138 0.70808 0.26358 0.0
H391 H 0.71091 0.82324 0.24562 0.0
H392 H 0.6296 0.77596 0.2762 0.0
S393 S 0.79618 0.63382 0.22417 0.0
N394 N 0.81753 0.68889 0.21414 0.0
N395 N 0.73018 0.63802 0.24797 0.0
C396 C 0.72328 0.68598 0.24941 0.0
C397 C 0.77033 0.7134 0.23087 0.0
C398 C 0.26879 0.80412 0.3338 0.0
C399 C 0.22207 0.77415 0.3432 0.0
C400 C 0.32087 0.78592 0.31363 0.0
C401 C 0.32778 0.73735 0.30094 0.0
H402 H 0.26645 0.84119 0.34601 0.0
H403 H 0.3573 0.80925 0.31242 0.0
S404 S 0.21634 0.64537 0.31079 0.0
N405 N 0.18432 0.69455 0.33274 0.0
N406 N 0.28201 0.66062 0.29408 0.0
C407 C 0.27996 0.70796 0.30529 0.0
C408 C 0.22721 0.72625 0.32684 0.0
C409 C 0.22666 0.70694 0.81068 0.0
C410 C 0.27602 0.72798 0.83179 0.0
C411 C 0.18151 0.7351 0.79201 0.0
C412 C 0.18483 0.78487 0.79406 0.0
H413 H 0.22077 0.6689 0.81341 0.0
H414 H 0.14174 0.71806 0.78219 0.0
S415 S 0.30995 0.85613 0.8332 0.0
N416 N 0.32949 0.8006 0.84408 0.0
N417 N 0.2448 0.85348 0.80907 0.0
C418 C 0.23673 0.80572 0.80824 0.0
C419 C 0.2823 0.77725 0.82744 0.0
loop_
_geom_bond_atom_site_label_1
_geom_bond_atom_site_label_2
_geom_bond_distance
_geom_bond_site_symmetry_2
_ccdc_geom_bond_type
H0 C3 0.931 . S
H1 C6 0.928 . S
H2 C8 0.930 . S
C3 H0 0.931 . S
C3 C4 1.413 . S
C3 C5 1.360 . S
C4 C3 1.413 . S
C4 C8 1.429 . S
C5 C3 1.360 . S
C5 C6 1.372 . S
C6 H1 0.928 . S
C6 C5 1.372 . S
C6 C7 1.404 . S
C7 C6 1.404 . S
C7 C8 1.391 . S
C8 H2 0.930 . S
C8 C4 1.429 . S
C8 C7 1.391 . S
H9 C12 0.931 . S
H10 C15 0.928 . S
H11 C17 0.930 . S
C12 H9 0.931 . S
C12 C13 1.413 . S
C12 C14 1.360 . S
C13 C12 1.413 . S
C13 C17 1.429 . S
C14 C12 1.360 . S
C14 C15 1.372 . S
C15 H10 0.928 . S
C15 C14 1.372 . S
C15 C16 1.404 . S
C16 C15 1.404 . S
C16 C17 1.391 . S
C17 H11 0.930 . S
C17 C13 1.429 . S
C17 C16 1.391 . S
H18 C21 0.931 . S
H19 C24 0.928 . S
H20 C26 0.930 . S
C21 H18 0.931 . S
C21 C22 1.413 . S
C21 C23 1.360 . S
C22 C21 1.413 . S
C22 C26 1.429 . S
C23 C21 1.360 . S
C23 C24 1.372 . S
C24 H19 0.928 . S
C24 C23 1.372 . S
C24 C25 1.404 . S
C25 C24 1.404 . S
C25 C26 1.391 . S
C26 H20 0.930 . S
C26 C22 1.429 . S
C26 C25 1.391 . S
H27 C30 0.931 . S
H28 C33 0.928 . S
H29 C35 0.930 . S
C30 H27 0.931 . S
C30 C31 1.413 . S
C30 C32 1.360 . S
C31 C30 1.413 . S
C31 C35 1.429 . S
C32 C30 1.360 . S
C32 C33 1.372 . S
C33 H28 0.928 . S
C33 C32 1.372 . S
C33 C34 1.404 . S
C34 C33 1.404 . S
C34 C35 1.391 . S
C35 H29 0.930 . S
C35 C31 1.429 . S
C35 C34 1.391 . S
H36 C39 0.931 . S
H37 C42 0.928 . S
H38 C44 0.930 . S
C39 H36 0.931 . S
C39 C40 1.413 . S
C39 C41 1.360 . S
C40 C39 1.413 . S
C40 C44 1.429 . S
C41 C39 1.360 . S
C41 C42 1.372 . S
C42 H37 0.928 . S
C42 C41 1.372 . S
C42 C43 1.404 . S
C43 C42 1.404 . S
C43 C44 1.391 . S
C44 H38 0.930 . S
C44 C40 1.429 . S
C44 C43 1.391 . S
H45 C48 0.931 . S
H46 C51 0.928 . S
H47 C53 0.930 . S
C48 H45 0.931 . S
C48 C49 1.413 . S
C48 C50 1.360 . S
C49 C48 1.413 . S
C49 C53 1.429 . S
C50 C48 1.360 . S
C50 C51 1.372 . S
C51 H46 0.928 . S
C51 C50 1.372 . S
C51 C52 1.404 . S
C52 C51 1.404 . S
C52 C53 1.391 . S
C53 H47 0.930 . S
C53 C49 1.429 . S
C53 C52 1.391 . S
H54 C57 0.931 . S
H55 C60 0.928 . S
H56 C62 0.930 . S
C57 H54 0.931 . S
C57 C58 1.413 . S
C57 C59 1.360 . S
C58 C57 1.413 . S
C58 C62 1.429 . S
C59 C57 1.360 . S
C59 C60 1.372 . S
C60 H55 0.928 . S
C60 C59 1.372 . S
C60 C61 1.404 . S
C61 C60 1.404 . S
C61 C62 1.391 . S
C62 H56 0.930 . S
C62 C58 1.429 . S
C62 C61 1.391 . S
H63 C66 0.931 . S
H64 C69 0.928 . S
H65 C71 0.930 . S
C66 H63 0.931 . S
C66 C67 1.413 . S
C66 C68 1.360 . S
C67 C66 1.413 . S
C67 C71 1.429 . S
C68 C66 1.360 . S
C68 C69 1.372 . S
C69 H64 0.928 . S
C69 C68 1.372 . S
C69 C70 1.404 . S
C70 C69 1.404 . S
C70 C71 1.391 . S
C71 H65 0.930 . S
C71 C67 1.429 . S
C71 C70 1.391 . S
Zn72 O78 1.920 1_455 S
Zn72 O84 1.898 . S
Zn72 O87 1.905 . S
Zn73 O81 1.905 1_655 S
Zn73 O82 1.898 . S
Zn73 O90 1.920 . S
Zn74 O77 2.080 1_455 S
Zn74 O80 2.114 . S
Zn74 O83 2.120 1_455 S
Zn74 O85 2.120 . S
Zn74 O86 2.114 . S
Zn74 O89 2.080 1_455 S
C75 O80 1.166 . S
C75 O81 1.182 . S
C76 O82 1.167 . S
C76 O83 1.299 . S
O77 Zn74 2.080 1_655 S
O77 C91 1.305 . S
O78 Zn72 1.920 1_655 S
O78 C91 1.234 . S
C79 O84 1.167 . S
C79 O85 1.299 . S
O80 Zn74 2.114 . S
O80 C75 1.166 . S
O81 Zn73 1.905 1_455 S
O81 C75 1.182 . S
O82 Zn73 1.898 . S
O82 C76 1.167 . S
O83 Zn74 2.120 1_655 S
O83 C76 1.299 . S
O84 Zn72 1.898 . S
O84 C79 1.167 . S
O85 Zn74 2.120 . S
O85 C79 1.299 . S
O86 Zn74 2.114 . S
O86 C88 1.166 . S
O87 Zn72 1.905 . S
O87 C88 1.182 . S
C88 O86 1.166 . S
C88 O87 1.182 . S
O89 Zn74 2.080 1_655 S
O89 C92 1.305 . S
O90 Zn73 1.920 . S
O90 C92 1.234 . S
C91 O77 1.305 . S
C91 O78 1.234 . S
C92 O89 1.305 . S
C92 O90 1.234 . S
Zn93 O99 1.920 . S
Zn93 O105 1.898 . S
Zn93 O108 1.905 . S
Zn94 O102 1.905 . S
Zn94 O103 1.898 . S
Zn94 O111 1.920 . S
Zn95 O98 2.080 . S
Zn95 O101 2.114 . S
Zn95 O104 2.120 . S
Zn95 O106 2.120 . S
Zn95 O107 2.114 . S
Zn95 O110 2.080 . S
C96 O101 1.166 . S
C96 O102 1.182 . S
C97 O103 1.167 . S
C97 O104 1.299 . S
O98 Zn95 2.080 . S
O98 C112 1.305 . S
O99 Zn93 1.920 . S
O99 C112 1.234 . S
C100 O105 1.167 . S
C100 O106 1.299 . S
O101 Zn95 2.114 . S
O101 C96 1.166 . S
O102 Zn94 1.905 . S
O102 C96 1.182 . S
O103 Zn94 1.898 . S
O103 C97 1.167 . S
O104 Zn95 2.120 . S
O104 C97 1.299 . S
O105 Zn93 1.898 . S
O105 C100 1.167 . S
O106 Zn95 2.120 . S
O106 C100 1.299 . S
O107 Zn95 2.114 . S
O107 C109 1.166 . S
O108 Zn93 1.905 . S
O108 C109 1.182 . S
C109 O107 1.166 . S
C109 O108 1.182 . S
O110 Zn95 2.080 . S
O110 C113 1.305 . S
O111 Zn94 1.920 . S
O111 C113 1.234 . S
C112 O98 1.305 . S
C112 O99 1.234 . S
C113 O110 1.305 . S
C113 O111 1.234 . S
Zn114 O120 1.920 . S
Zn114 O126 1.898 . S
Zn114 O129 1.905 1_455 S
Zn115 O123 1.905 . S
Zn115 O124 1.898 . S
Zn115 O132 1.920 1_655 S
Zn116 O119 2.086 . S
Zn116 O122 2.107 1_455 S
Zn116 O125 2.114 1_455 S
Zn116 O127 2.127 . S
Zn116 O128 2.109 1_455 S
Zn116 O131 2.085 . S
C117 O122 1.166 . S
C117 O123 1.182 . S
C118 O124 1.167 . S
C118 O125 1.299 . S
O119 Zn116 2.086 . S
O119 C133 1.305 . S
O120 Zn114 1.920 . S
O120 C133 1.234 . S
C121 O126 1.167 . S
C121 O127 1.299 . S
O122 Zn116 2.107 1_655 S
O122 C117 1.166 . S
O123 Zn115 1.905 . S
O123 C117 1.182 . S
O124 Zn115 1.898 . S
O124 C118 1.167 . S
O125 Zn116 2.114 1_655 S
O125 C118 1.299 . S
O126 Zn114 1.898 . S
O126 C121 1.167 . S
O127 Zn116 2.127 . S
O127 C121 1.299 . S
O128 Zn116 2.109 1_655 S
O128 C130 1.166 . S
O129 Zn114 1.905 1_655 S
O129 C130 1.182 . S
C130 O128 1.166 . S
C130 O129 1.182 . S
O131 Zn116 2.085 . S
O131 C134 1.305 . S
O132 Zn115 1.920 1_455 S
O132 C134 1.234 . S
C133 O119 1.305 . S
C133 O120 1.234 . S
C134 O131 1.305 . S
C134 O132 1.234 . S
Zn135 O141 1.920 . S
Zn135 O147 1.898 . S
Zn135 O150 1.905 . S
Zn136 O144 1.905 . S
Zn136 O145 1.898 . S
Zn136 O153 1.920 . S
Zn137 O140 2.080 . S
Zn137 O143 2.114 . S
Zn137 O146 2.120 . S
Zn137 O148 2.120 . S
Zn137 O149 2.114 . S
Zn137 O152 2.080 . S
C138 O143 1.166 . S
C138 O144 1.182 . S
C139 O145 1.167 . S
C139 O146 1.299 . S
O140 Zn137 2.080 . S
O140 C154 1.305 . S
O141 Zn135 1.920 . S
O141 C154 1.234 . S
C142 O147 1.167 . S
C142 O148 1.299 . S
O143 Zn137 2.114 . S
O143 C138 1.166 . S
O144 Zn136 1.905 . S
O144 C138 1.182 . S
O145 Zn136 1.898 . S
O145 C139 1.167 . S
O146 Zn137 2.120 . S
O146 C139 1.299 . S
O147 Zn135 1.898 . S
O147 C142 1.167 . S
O148 Zn137 2.120 . S
O148 C142 1.299 . S
O149 Zn137 2.114 . S
O149 C151 1.166 . S
O150 Zn135 1.905 . S
O150 C151 1.182 . S
C151 O149 1.166 . S
C151 O150 1.182 . S
O152 Zn137 2.080 . S
O152 C155 1.305 . S
O153 Zn136 1.920 . S
O153 C155 1.234 . S
C154 O140 1.305 . S
C154 O141 1.234 . S
C155 O152 1.305 . S
C155 O153 1.234 . S
C156 C157 1.369 . S
C156 C158 1.419 . S
C156 H160 0.930 . S
C157 C156 1.369 . S
C157 C166 1.429 . S
C158 C156 1.419 . S
C158 C159 1.363 1_565 S
C158 H161 0.929 . S
C159 C158 1.363 1_545 S
C159 C165 1.428 . S
H160 C156 0.930 . S
H161 C158 0.929 . S
S162 N163 1.613 1_545 S
S162 N164 1.610 . S
N163 S162 1.613 1_565 S
N163 C166 1.350 . S
N164 S162 1.610 . S
N164 C165 1.351 . S
C165 C159 1.428 . S
C165 N164 1.351 . S
C165 C166 1.434 1_545 S
C166 C157 1.429 . S
C166 N163 1.350 . S
C166 C165 1.434 1_565 S
C167 C168 1.369 . S
C167 C169 1.419 . S
C167 H171 0.930 . S
C168 C167 1.369 . S
C168 C177 1.429 . S
C169 C167 1.419 . S
C169 C170 1.363 . S
C169 H172 0.929 . S
C170 C169 1.363 . S
C170 C176 1.428 . S
H171 C167 0.930 . S
H172 C169 0.929 . S
S173 N174 1.613 . S
S173 N175 1.610 . S
N174 S173 1.613 . S
N174 C177 1.350 . S
N175 S173 1.610 . S
N175 C176 1.351 . S
C176 C170 1.428 . S
C176 N175 1.351 . S
C176 C177 1.434 . S
C177 C168 1.429 . S
C177 N174 1.350 . S
C177 C176 1.434 . S
C178 C179 1.369 . S
C178 C180 1.419 . S
C178 H182 0.930 . S
C179 C178 1.369 . S
C179 C188 1.429 . S
C180 C178 1.419 . S
C180 C181 1.363 . S
C180 H183 0.929 . S
C181 C180 1.363 . S
C181 C187 1.428 . S
H182 C178 0.930 . S
H183 C180 0.929 . S
S184 N185 1.613 . S
S184 N186 1.610 . S
N185 S184 1.613 . S
N185 C188 1.350 . S
N186 S184 1.610 . S
N186 C187 1.351 . S
C187 C181 1.428 . S
C187 N186 1.351 . S
C187 C188 1.434 . S
C188 C179 1.429 . S
C188 N185 1.350 . S
C188 C187 1.434 . S
C189 C190 1.369 . S
C189 C191 1.419 1_565 S
C189 H193 0.930 . S
C190 C189 1.369 . S
C190 C199 1.429 . S
C191 C189 1.419 1_545 S
C191 C192 1.363 . S
C191 H194 0.929 . S
C192 C191 1.363 . S
C192 C198 1.428 1_545 S
H193 C189 0.930 . S
H194 C191 0.929 . S
S195 N196 1.613 1_455 S
S195 N197 1.610 . S
N196 S195 1.613 1_655 S
N196 C199 1.350 . S
N197 S195 1.610 . S
N197 C198 1.351 1_455 S
C198 C192 1.428 1_565 S
C198 N197 1.351 1_655 S
C198 C199 1.434 . S
C199 C190 1.429 . S
C199 N196 1.350 . S
C199 C198 1.434 . S
C200 C201 1.369 . S
C200 C202 1.419 . S
C200 H204 0.930 . S
C201 C200 1.369 . S
C201 C210 1.429 . S
C202 C200 1.419 . S
C202 C203 1.363 1_545 S
C202 H205 0.929 . S
C203 C202 1.363 1_565 S
C203 C209 1.428 . S
H204 C200 0.930 . S
H205 C202 0.929 . S
S206 N207 1.613 1_565 S
S206 N208 1.610 . S
N207 S206 1.613 1_545 S
N207 C210 1.350 . S
N208 S206 1.610 . S
N208 C209 1.351 . S
C209 C203 1.428 . S
C209 N208 1.351 . S
C209 C210 1.434 1_565 S
C210 C201 1.429 . S
C210 N207 1.350 . S
C210 C209 1.434 1_545 S
C211 C212 1.369 . S
C211 C213 1.419 . S
C211 H215 0.930 . S
C212 C211 1.369 . S
C212 C221 1.429 . S
C213 C211 1.419 . S
C213 C214 1.363 . S
C213 H216 0.929 . S
C214 C213 1.363 . S
C214 C220 1.428 . S
H215 C211 0.930 . S
H216 C213 0.929 . S
S217 N218 1.613 . S
S217 N219 1.610 . S
N218 S217 1.613 . S
N218 C221 1.350 . S
N219 S217 1.610 . S
N219 C220 1.351 . S
C220 C214 1.428 . S
C220 N219 1.351 . S
C220 C221 1.434 . S
C221 C212 1.429 . S
C221 N218 1.350 . S
C221 C220 1.434 . S
C222 C223 1.369 . S
C222 C224 1.419 . S
C222 H226 0.930 . S
C223 C222 1.369 . S
C223 C232 1.429 . S
C224 C222 1.419 . S
C224 C225 1.363 . S
C224 H227 0.929 . S
C225 C224 1.363 . S
C225 C231 1.428 . S
H226 C222 0.930 . S
H227 C224 0.929 . S
S228 N229 1.613 . S
S228 N230 1.610 . S
N229 S228 1.613 . S
N229 C232 1.350 . S
N230 S228 1.610 . S
N230 C231 1.351 . S
C231 C225 1.428 . S
C231 N230 1.351 . S
C231 C232 1.434 . S
C232 C223 1.429 . S
C232 N229 1.350 . S
C232 C231 1.434 . S
C233 C234 1.369 . S
C233 C235 1.419 . S
C233 H237 0.930 . S
C234 C233 1.369 . S
C234 C243 1.429 . S
C235 C233 1.419 . S
C235 C236 1.363 1_545 S
C235 H238 0.929 . S
C236 C235 1.363 1_565 S
C236 C242 1.428 . S
H237 C233 0.930 . S
H238 C235 0.929 . S
S239 N240 1.613 1_565 S
S239 N241 1.610 . S
N240 S239 1.613 1_545 S
N240 C243 1.350 . S
N241 S239 1.610 . S
N241 C242 1.351 . S
C242 C236 1.428 . S
C242 N241 1.351 . S
C242 C243 1.434 1_565 S
C243 C234 1.429 . S
C243 N240 1.350 . S
C243 C242 1.434 1_545 S
C244 C245 1.369 1_554 S
C244 C246 1.419 . S
C244 H248 0.930 . S
C245 C244 1.369 1_556 S
C245 C254 1.429 1_556 S
C246 C244 1.419 . S
C246 C247 1.363 . S
C246 H249 0.929 . S
C247 C246 1.363 . S
C247 C253 1.428 . S
H248 C244 0.930 . S
H249 C246 0.929 . S
S250 N251 1.613 1_554 S
S250 N252 1.610 . S
N251 S250 1.613 1_556 S
N251 C254 1.350 1_556 S
N252 S250 1.610 . S
N252 C253 1.351 . S
C253 C247 1.428 . S
C253 N252 1.351 . S
C253 C254 1.434 . S
C254 C245 1.429 1_554 S
C254 N251 1.350 1_554 S
C254 C253 1.434 . S
C255 C256 1.369 . S
C255 C257 1.419 . S
C255 H259 0.930 . S
C256 C255 1.369 . S
C256 C265 1.429 . S
C257 C255 1.419 . S
C257 C258 1.363 . S
C257 H260 0.929 . S
C258 C257 1.363 . S
C258 C264 1.428 . S
H259 C255 0.930 . S
H260 C257 0.929 . S
S261 N262 1.613 . S
S261 N263 1.610 . S
N262 S261 1.613 . S
N262 C265 1.350 . S
N263 S261 1.610 . S
N263 C264 1.351 . S
C264 C258 1.428 . S
C264 N263 1.351 . S
C264 C265 1.434 . S
C265 C256 1.429 . S
C265 N262 1.350 . S
C265 C264 1.434 . S
C266 C267 1.369 1_556 S
C266 C268 1.419 . S
C266 H270 0.930 . S
C267 C266 1.369 1_554 S
C267 C276 1.429 1_554 S
C268 C266 1.419 . S
C268 C269 1.363 . S
C268 H271 0.929 . S
C269 C268 1.363 . S
C269 C275 1.428 . S
H270 C266 0.930 . S
H271 C268 0.929 . S
S272 N273 1.613 1_556 S
S272 N274 1.610 . S
N273 S272 1.613 1_554 S
N273 C276 1.350 1_554 S
N274 S272 1.610 . S
N274 C275 1.351 . S
C275 C269 1.428 . S
C275 N274 1.351 . S
C275 C276 1.434 . S
C276 C267 1.429 1_556 S
C276 N273 1.350 1_556 S
C276 C275 1.434 . S
C277 C278 1.369 . S
C277 C279 1.419 . S
C277 H281 0.930 . S
C278 C277 1.369 . S
C278 C287 1.429 . S
C279 C277 1.419 . S
C279 C280 1.363 . S
C279 H282 0.929 . S
C280 C279 1.363 . S
C280 C286 1.428 . S
H281 C277 0.930 . S
H282 C279 0.929 . S
S283 N284 1.613 . S
S283 N285 1.610 . S
N284 S283 1.613 . S
N284 C287 1.350 . S
N285 S283 1.610 . S
N285 C286 1.351 . S
C286 C280 1.428 . S
C286 N285 1.351 . S
C286 C287 1.434 . S
C287 C278 1.429 . S
C287 N284 1.350 . S
C287 C286 1.434 . S
C288 C289 1.369 1_556 S
C288 C290 1.419 . S
C288 H292 0.930 1_556 S
C289 C288 1.369 1_554 S
C289 C298 1.429 1_554 S
C290 C288 1.419 . S
C290 C291 1.363 . S
C290 H293 0.929 . S
C291 C290 1.363 . S
C291 C297 1.428 . S
H292 C288 0.930 1_554 S
H293 C290 0.929 . S
S294 N295 1.613 . S
S294 N296 1.610 . S
N295 S294 1.613 . S
N295 C298 1.350 . S
N296 S294 1.610 . S
N296 C297 1.351 . S
C297 C291 1.428 . S
C297 N296 1.351 . S
C297 C298 1.434 . S
C298 C289 1.429 1_556 S
C298 N295 1.350 . S
C298 C297 1.434 . S
C299 C300 1.369 . S
C299 C301 1.419 . S
C299 H303 0.930 . S
C300 C299 1.369 . S
C300 C309 1.429 . S
C301 C299 1.419 . S
C301 C302 1.363 . S
C301 H304 0.929 . S
C302 C301 1.363 . S
C302 C308 1.428 . S
H303 C299 0.930 . S
H304 C301 0.929 . S
S305 N306 1.613 . S
S305 N307 1.610 . S
N306 S305 1.613 . S
N306 C309 1.350 . S
N307 S305 1.610 . S
N307 C308 1.351 . S
C308 C302 1.428 . S
C308 N307 1.351 . S
C308 C309 1.434 . S
C309 C300 1.429 . S
C309 N306 1.350 . S
C309 C308 1.434 . S
C310 C311 1.369 1_554 S
C310 C312 1.419 . S
C310 H314 0.920 1_554 S
C311 C310 1.369 1_556 S
C311 C320 1.429 1_556 S
C312 C310 1.419 . S
C312 C313 1.363 . S
C312 H315 0.929 . S
C313 C312 1.363 . S
C313 C319 1.428 . S
H314 C310 0.920 1_556 S
H315 C312 0.929 . S
S316 N317 1.613 . S
S316 N318 1.610 . S
N317 S316 1.613 . S
N317 C320 1.350 . S
N318 S316 1.610 . S
N318 C319 1.351 . S
C319 C313 1.428 . S
C319 N318 1.351 . S
C319 C320 1.434 . S
C320 C311 1.429 1_554 S
C320 N317 1.350 . S
C320 C319 1.434 . S
C321 C322 1.369 . S
C321 C323 1.419 . S
C321 H325 0.930 . S
C322 C321 1.369 . S
C322 C331 1.429 . S
C323 C321 1.419 . S
C323 C324 1.363 . S
C323 H326 0.929 . S
C324 C323 1.363 . S
C324 C330 1.428 . S
H325 C321 0.930 . S
H326 C323 0.929 . S
S327 N328 1.613 1_655 S
S327 N329 1.610 1_655 S
N328 S327 1.613 1_455 S
N328 C331 1.350 . S
N329 S327 1.610 1_455 S
N329 C330 1.351 . S
C330 C324 1.428 . S
C330 N329 1.351 . S
C330 C331 1.434 . S
C331 C322 1.429 . S
C331 N328 1.350 . S
C331 C330 1.434 . S
C332 C333 1.369 . S
C332 C334 1.419 . S
C332 H336 0.930 . S
C333 C332 1.369 . S
C333 C342 1.429 . S
C334 C332 1.419 . S
C334 C335 1.363 . S
C334 H337 0.929 . S
C335 C334 1.363 . S
C335 C341 1.428 . S
H336 C332 0.930 . S
H337 C334 0.929 . S
S338 N339 1.613 . S
S338 N340 1.610 . S
N339 S338 1.613 . S
N339 C342 1.350 . S
N340 S338 1.610 . S
N340 C341 1.351 . S
C341 C335 1.428 . S
C341 N340 1.351 . S
C341 C342 1.434 . S
C342 C333 1.429 . S
C342 N339 1.350 . S
C342 C341 1.434 . S
C343 C344 1.369 . S
C343 C345 1.419 . S
C343 H347 0.930 . S
C344 C343 1.369 . S
C344 C353 1.429 . S
C345 C343 1.419 . S
C345 C346 1.363 . S
C345 H348 0.929 . S
C346 C345 1.363 . S
C346 C352 1.428 . S
H347 C343 0.930 . S
H348 C345 0.929 . S
S349 N350 1.613 . S
S349 N351 1.610 . S
N350 S349 1.613 . S
N350 C353 1.350 . S
N351 S349 1.610 . S
N351 C352 1.351 . S
C352 C346 1.428 . S
C352 N351 1.351 . S
C352 C353 1.434 . S
C353 C344 1.429 . S
C353 N350 1.350 . S
C353 C352 1.434 . S
C354 C355 1.369 . S
C354 C356 1.419 . S
C354 H358 0.930 . S
C355 C354 1.369 . S
C355 C364 1.429 . S
C356 C354 1.419 . S
C356 C357 1.363 . S
C356 H359 0.929 . S
C357 C356 1.363 . S
C357 C363 1.428 . S
H358 C354 0.930 . S
H359 C356 0.929 . S
S360 N361 1.613 . S
S360 N362 1.610 . S
N361 S360 1.613 . S
N361 C364 1.350 . S
N362 S360 1.610 . S
N362 C363 1.351 . S
C363 C357 1.428 . S
C363 N362 1.351 . S
C363 C364 1.434 . S
C364 C355 1.429 . S
C364 N361 1.350 . S
C364 C363 1.434 . S
C365 C366 1.369 . S
C365 C367 1.419 . S
C365 H369 0.930 . S
C366 C365 1.369 . S
C366 C375 1.429 . S
C367 C365 1.419 . S
C367 C368 1.363 . S
C367 H370 0.929 . S
C368 C367 1.363 . S
C368 C374 1.428 . S
H369 C365 0.930 . S
H370 C367 0.929 . S
S371 N372 1.613 . S
S371 N373 1.610 . S
N372 S371 1.613 . S
N372 C375 1.350 . S
N373 S371 1.610 . S
N373 C374 1.351 . S
C374 C368 1.428 . S
C374 N373 1.351 . S
C374 C375 1.434 . S
C375 C366 1.429 . S
C375 N372 1.350 . S
C375 C374 1.434 . S
C376 C377 1.369 . S
C376 C378 1.419 . S
C376 H380 0.930 . S
C377 C376 1.369 . S
C377 C386 1.429 . S
C378 C376 1.419 . S
C378 C379 1.363 . S
C378 H381 0.929 . S
C379 C378 1.363 . S
C379 C385 1.428 . S
H380 C376 0.930 . S
H381 C378 0.929 . S
S382 N383 1.613 . S
S382 N384 1.610 . S
N383 S382 1.613 . S
N383 C386 1.350 . S
N384 S382 1.610 . S
N384 C385 1.351 . S
C385 C379 1.428 . S
C385 N384 1.351 . S
C385 C386 1.434 . S
C386 C377 1.429 . S
C386 N383 1.350 . S
C386 C385 1.434 . S
C387 C388 1.369 . S
C387 C389 1.419 . S
C387 H391 0.930 . S
C388 C387 1.369 . S
C388 C397 1.429 . S
C389 C387 1.419 . S
C389 C390 1.363 . S
C389 H392 0.929 . S
C390 C389 1.363 . S
C390 C396 1.428 . S
H391 C387 0.930 . S
H392 C389 0.929 . S
S393 N394 1.613 . S
S393 N395 1.610 . S
N394 S393 1.613 . S
N394 C397 1.350 . S
N395 S393 1.610 . S
N395 C396 1.351 . S
C396 C390 1.428 . S
C396 N395 1.351 . S
C396 C397 1.434 . S
C397 C388 1.429 . S
C397 N394 1.350 . S
C397 C396 1.434 . S
C398 C399 1.369 . S
C398 C400 1.419 . S
C398 H402 0.930 . S
C399 C398 1.369 . S
C399 C408 1.429 . S
C400 C398 1.419 . S
C400 C401 1.363 . S
C400 H403 0.929 . S
C401 C400 1.363 . S
C401 C407 1.428 . S
H402 C398 0.930 . S
H403 C400 0.929 . S
S404 N405 1.613 . S
S404 N406 1.610 . S
N405 S404 1.613 . S
N405 C408 1.350 . S
N406 S404 1.610 . S
N406 C407 1.351 . S
C407 C401 1.428 . S
C407 N406 1.351 . S
C407 C408 1.434 . S
C408 C399 1.429 . S
C408 N405 1.350 . S
C408 C407 1.434 . S
C409 C410 1.369 . S
C409 C411 1.419 . S
C409 H413 0.930 . S
C410 C409 1.369 . S
C410 C419 1.429 . S
C411 C409 1.419 . S
C411 C412 1.363 . S
C411 H414 0.929 . S
C412 C411 1.363 . S
C412 C418 1.428 . S
H413 C409 0.930 . S
H414 C411 0.929 . S
S415 N416 1.613 . S
S415 N417 1.610 . S
N416 S415 1.613 . S
N416 C419 1.350 . S
N417 S415 1.610 . S
N417 C418 1.351 . S
C418 C412 1.428 . S
C418 N417 1.351 . S
C418 C419 1.434 . S
C419 C410 1.429 . S
C419 N416 1.350 . S
C419 C418 1.434 . S
C157 C58 1.419 . S
C159 C88 1.363 . S
C170 C96 1.373 . S
C168 C68 1.427 . S
C181 C100 1.361 . S
C179 C40 1.421 . S
C190 C50 1.426 . S
C192 C76 1.365 . S
C203 C117 1.366 . S
C201 C23 1.421 . S
C214 C151 1.367 . S
C212 C32 1.422 . S
C223 C5 1.419 . S
C225 C139 1.356 . S
C234 C14 1.422 . S
C236 C121 1.360 . S
C247 C75 1.292 . S
C245 C13 1.478 . S
C258 C109 1.298 . S
C256 C4 1.477 . S
C269 C113 1.298 . S
C267 C31 1.483 . S
C280 C91 1.301 . S
C278 C22 1.483 . S
C291 C130 1.299 . S
C289 C49 1.480 . S
C300 C41 1.477 . S
C302 C138 1.294 . S
C313 C154 1.297 . S
C311 C67 1.485 . S
C322 C59 1.484 . S
C324 C134 1.291 . S
C335 C79 1.296 . S
C333 C7 1.511 . S
C346 C97 1.298 . S
C344 C16 1.508 . S
C355 C25 1.502 . S
C357 C112 1.312 . S
C368 C92 1.310 . S
C366 C34 1.501 . S
C379 C118 1.296 . S
C377 C43 1.511 . S
C388 C52 1.513 . S
C390 C142 1.302 . S
C399 C61 1.504 . S
C401 C155 1.302 . S
C410 C70 1.506 . S
C412 C133 1.303 . S
