# Generated by pormake.
# Topology tsx, (6,3)-cn, num edge types: 1
# Building blocks:
#     Node 0, Type 0, BuildingBlock: LEVNOQ01_clean_sbu_1, # of connection points: 6
#     Node 1, Type 0, BuildingBlock: LEVNOQ01_clean_sbu_1, # of connection points: 6
#     Node 2, Type 1, BuildingBlock: CUQRIR_clean_linker_1, # of connection points: 3
#     Node 3, Type 1, BuildingBlock: CUQRIR_clean_linker_1, # of connection points: 3
#     Node 4, Type 1, BuildingBlock: CUQRIR_clean_linker_1, # of connection points: 3
#     Node 5, Type 1, BuildingBlock: CUQRIR_clean_linker_1, # of connection points: 3
#     Edge 6, Type (0, 1), BuildingBlock: MIFKUJ_clean_linker_0, # of connection points: 2
#     Edge 7, Type (0, 1), BuildingBlock: MIFKUJ_clean_linker_0, # of connection points: 2
#     Edge 8, Type (0, 1), BuildingBlock: MIFKUJ_clean_linker_0, # of connection points: 2
#     Edge 9, Type (0, 1), BuildingBlock: MIFKUJ_clean_linker_0, # of connection points: 2
#     Edge 10, Type (0, 1), BuildingBlock: MIFKUJ_clean_linker_0, # of connection points: 2
#     Edge 11, Type (0, 1), BuildingBlock: MIFKUJ_clean_linker_0, # of connection points: 2
#     Edge 12, Type (0, 1), BuildingBlock: MIFKUJ_clean_linker_0, # of connection points: 2
#     Edge 13, Type (0, 1), BuildingBlock: MIFKUJ_clean_linker_0, # of connection points: 2
#     Edge 14, Type (0, 1), BuildingBlock: MIFKUJ_clean_linker_0, # of connection points: 2
#     Edge 15, Type (0, 1), BuildingBlock: MIFKUJ_clean_linker_0, # of connection points: 2
#     Edge 16, Type (0, 1), BuildingBlock: MIFKUJ_clean_linker_0, # of connection points: 2
#     Edge 17, Type (0, 1), BuildingBlock: MIFKUJ_clean_linker_0, # of connection points: 2
# Relax obj value: 0.159
# Max RMSD: 0.179
# Mean RMSD: 0.164
data_MOF--net-tsx--node1-LEVNOQ01_clean_sbu_1--node2-CUQRIR_clean_linker_1--edge1-MIFKUJ_clean_linker_0
_symmetry_space_group_name_H-M    P1
_symmetry_Int_Tables_number       1
_symmetry_cell_setting            triclinic
loop_
_symmetry_equiv_pos_as_xyz
'x, y, z'
_cell_length_a     22.84747
_cell_length_b     27.744795
_cell_length_c     42.825037
_cell_angle_alpha  87.193306
_cell_angle_beta   90.256541
_cell_angle_gamma 90.923554
loop_
_atom_site_label
_atom_site_type_symbol
_atom_site_fract_x
_atom_site_fract_y
_atom_site_fract_z
_atom_type_partial_charge
O0 O 0.14092 0.00359 0.05166 0.0
Mg1 Mg 0.15842 0.04068 0.00786 0.0
O2 O 0.05036 0.02884 0.04944 0.0
Mg3 Mg 0.0511 0.04541 -0.00403 0.0
O4 O 0.12527 0.108 -0.00091 0.0
O5 O 0.2176 0.09323 0.01454 0.0
O6 O 0.05456 0.06123 0.94204 0.0
O7 O 0.99062 0.11333 0.00342 0.0
Mg8 Mg 0.92678 0.03509 0.96674 0.0
O9 O 0.97576 0.98894 -0.00617 0.0
O10 O 0.96495 0.05222 0.92302 0.0
O11 O 0.89911 0.09225 -0.00757 0.0
O12 O 0.88733 0.96943 0.9751 0.0
C13 C 0.15245 0.96604 0.97383 0.0
C14 C 0.09179 0.00828 0.06465 0.0
C15 C 0.17781 0.12352 0.00592 0.0
C16 C 0.01881 0.06217 0.91905 0.0
C17 C 0.93571 0.12218 0.00287 0.0
C18 C 0.93252 0.95825 -0.00805 0.0
O19 O 0.18748 0.00131 0.97058 0.0
O20 O 0.1038 0.97259 0.98739 0.0
O21 O 0.66148 0.51103 0.55846 0.0
Mg22 Mg 0.68373 0.5336 0.51204 0.0
O23 O 0.56784 0.52267 0.54871 0.0
Mg24 Mg 0.56872 0.53325 0.49435 0.0
O25 O 0.64366 0.59421 0.49359 0.0
O26 O 0.73748 0.59149 0.50966 0.0
O27 O 0.57486 0.54318 0.43985 0.0
O28 O 0.51098 0.60366 0.49931 0.0
Mg29 Mg 0.45514 0.52475 0.46622 0.0
O30 O 0.49236 0.47386 0.49605 0.0
O31 O 0.48669 0.53172 0.42054 0.0
O32 O 0.42045 0.5844 0.48635 0.0
O33 O 0.40442 0.46591 0.47259 0.0
C34 C 0.67459 0.45119 0.48014 0.0
C35 C 0.60908 0.51209 0.56792 0.0
C36 C 0.69442 0.6154 0.49747 0.0
C37 C 0.54062 0.54025 0.41644 0.0
C38 C 0.4568 0.61423 0.49688 0.0
C39 C 0.44431 0.44905 0.49134 0.0
O40 O 0.71385 0.48322 0.48188 0.0
O41 O 0.6224 0.46084 0.48806 0.0
C42 C 0.01523 0.99344 0.43845 0.0
N43 N 0.04905 0.97138 0.41768 0.0
N44 N 0.98123 0.02717 0.4237 0.0
C45 C 0.01945 0.98507 0.47316 0.0
C46 C 0.99547 0.02468 0.39325 0.0
N47 N 0.03699 0.99126 0.38961 0.0
C48 C 0.96726 0.05408 0.36698 0.0
H49 H 0.98928 0.00859 0.48507 0.0
H50 H 0.06508 0.9918 0.48101 0.0
H51 H 0.0078 0.94702 0.4797 0.0
H52 H 0.99467 0.08673 0.36146 0.0
H53 H 0.92303 0.06575 0.3737 0.0
H54 H 0.96369 0.03305 0.34564 0.0
C55 C 0.0101 0.07807 0.54751 0.0
N56 N 0.0458 0.09306 0.5706 0.0
N57 N 0.97115 0.04429 0.55896 0.0
C58 C 0.01471 0.09501 0.51382 0.0
C59 C 0.98459 0.03947 0.58969 0.0
N60 N 0.02997 0.06873 0.59668 0.0
C61 C 0.95296 0.00606 0.61282 0.0
H62 H 0.02331 0.13443 0.51168 0.0
H63 H 0.97363 0.08691 0.50118 0.0
H64 H 0.05192 0.07695 0.50298 0.0
H65 H 0.9763 0.97129 0.61513 0.0
H66 H 0.90748 -0.00113 0.60491 0.0
H67 H 0.95208 0.02198 0.63601 0.0
C68 C 0.50246 0.50632 0.94344 0.0
N69 N 0.5357 0.48323 0.92289 0.0
N70 N 0.47394 0.54359 0.92876 0.0
C71 C 0.49931 0.49295 0.97772 0.0
C72 C 0.49044 0.54172 0.89858 0.0
N73 N 0.52834 0.50564 0.89511 0.0
C74 C 0.46726 0.5736 0.87209 0.0
H75 H 0.46821 0.51583 0.98957 0.0
H76 H 0.5435 0.49618 0.98835 0.0
H77 H 0.48458 0.45483 0.98125 0.0
H78 H 0.50058 0.60188 0.86572 0.0
H79 H 0.42601 0.59112 0.87851 0.0
H80 H 0.45908 0.5521 0.85131 0.0
C81 C 0.50058 0.58787 0.05098 0.0
N82 N 0.53651 0.60521 0.07313 0.0
N83 N 0.45845 0.55862 0.06418 0.0
C84 C 0.50433 0.60233 0.01686 0.0
C85 C 0.47001 0.5593 0.09521 0.0
N86 N 0.51694 0.58798 0.10061 0.0
C87 C 0.43912 0.52811 0.11991 0.0
H88 H 0.5195 0.64045 0.01361 0.0
H89 H 0.46102 0.59826 0.00561 0.0
H90 H 0.53654 0.57955 0.00552 0.0
H91 H 0.46735 0.4972 0.12681 0.0
H92 H 0.39658 0.51416 0.11123 0.0
H93 H 0.43139 0.54865 0.14102 0.0
H94 H 0.28381 0.1637 0.01846 0.0
H95 H 0.30988 0.24844 0.02104 0.0
H96 H 0.13458 0.28797 -0.00612 0.0
H97 H 0.10711 0.20181 -0.00853 0.0
H98 H 0.25089 0.34301 0.96346 0.0
H99 H 0.14313 0.30584 0.05856 0.0
H100 H 0.11505 0.25294 0.10417 0.0
H101 H 0.2932 0.25312 0.13653 0.0
H102 H 0.32251 0.30541 0.09084 0.0
H103 H 0.35759 0.57271 0.03177 0.0
H104 H 0.29128 0.50903 0.01297 0.0
H105 H 0.41435 0.40108 0.04515 0.0
H106 H 0.4798 0.46448 0.06376 0.0
H107 H 0.29521 0.39322 0.07075 0.0
H108 H 0.39647 0.38785 0.96353 0.0
H109 H 0.43094 0.42807 0.91413 0.0
H110 H 0.2714 0.50756 0.90635 0.0
H111 H 0.2355 0.46675 0.95539 0.0
C112 C 0.25048 0.19007 0.01277 0.0
C113 C 0.19308 0.17576 0.00499 0.0
C114 C 0.2657 0.23863 0.01418 0.0
C115 C 0.22418 0.27429 0.00774 0.0
C116 C 0.16723 0.26075 -0.00117 0.0
C117 C 0.15163 0.21163 -0.00241 0.0
C118 C 0.24122 0.32504 0.01269 0.0
C119 C 0.25861 0.35493 0.9869 0.0
C120 C 0.25262 0.33991 0.04325 0.0
C121 C 0.23501 0.30943 0.0712 0.0
C122 C 0.17637 0.29439 0.07532 0.0
C123 C 0.16023 0.26453 0.10119 0.0
C124 C 0.20232 0.24963 0.12322 0.0
C125 C 0.26062 0.26471 0.11946 0.0
C126 C 0.277 0.29454 0.09361 0.0
C127 C 0.37045 0.53538 0.03421 0.0
C128 C 0.42321 0.52304 0.04924 0.0
C129 C 0.33291 0.49916 0.02343 0.0
C130 C 0.348 0.45038 0.02772 0.0
C131 C 0.40197 0.43849 0.04157 0.0
C132 C 0.43919 0.47448 0.05222 0.0
C133 C 0.30563 0.41097 0.02155 0.0
C134 C 0.28457 0.38273 0.04729 0.0
C135 C 0.29092 0.39773 -0.00895 0.0
C136 C 0.31373 0.42479 0.96309 0.0
C137 C 0.36905 0.4142 0.95134 0.0
C138 C 0.38866 0.43685 0.92335 0.0
C139 C 0.35355 0.47055 0.90717 0.0
C140 C 0.29855 0.48146 0.91889 0.0
C141 C 0.27851 0.45853 0.94674 0.0
H142 H 0.36897 0.48818 0.88558 0.0
H143 H 0.18976 0.22644 0.14321 0.0
H144 H 0.24801 0.94355 0.94021 0.0
H145 H 0.29061 0.86455 0.93524 0.0
H146 H 0.1473 0.79819 0.98761 0.0
H147 H 0.10432 0.878 -0.00692 0.0
H148 H 0.25369 0.76607 0.00931 0.0
H149 H 0.1585 0.7811 0.9102 0.0
H150 H 0.12915 0.82127 0.86007 0.0
H151 H 0.30907 0.83227 0.8317 0.0
H152 H 0.33963 0.79281 0.88185 0.0
H153 H 0.3713 0.53437 0.9599 0.0
H154 H 0.30618 0.60078 0.97242 0.0
H155 H 0.4369 0.70398 0.93829 0.0
H156 H 0.50138 0.63776 0.92605 0.0
H157 H 0.32111 0.70793 0.90805 0.0
H158 H 0.41542 0.71272 0.01028 0.0
H159 H 0.44782 0.68048 0.0621 0.0
H160 H 0.27245 0.63173 0.08318 0.0
H161 H 0.23872 0.66502 0.03176 0.0
C162 C 0.22491 0.91218 0.95031 0.0
C163 C 0.17274 0.91715 0.96706 0.0
C164 C 0.24932 0.8669 0.94737 0.0
C165 C 0.22203 0.8253 0.96088 0.0
C166 C 0.16908 0.82981 0.97697 0.0
C167 C 0.14437 0.87536 0.97986 0.0
C168 C 0.25103 0.77787 0.95917 0.0
C169 C 0.2671 0.75267 0.98711 0.0
C170 C 0.26958 0.76078 0.93027 0.0
C171 C 0.25137 0.78417 0.8999 0.0
C172 C 0.19186 0.79234 0.89336 0.0
C173 C 0.17499 0.81496 0.86492 0.0
C174 C 0.21722 0.82937 0.84273 0.0
C175 C 0.2764 0.82108 0.84891 0.0
C176 C 0.29351 0.79851 0.87732 0.0
C177 C 0.38607 0.57129 0.95571 0.0
C178 C 0.4406 0.58129 0.94171 0.0
C179 C 0.34922 0.6091 0.96291 0.0
C180 C 0.36668 0.65723 0.95603 0.0
C181 C 0.42258 0.66709 0.94368 0.0
C182 C 0.4593 0.62945 0.93672 0.0
C183 C 0.32488 0.69719 0.95812 0.0
C184 C 0.3064 0.7208 0.93017 0.0
C185 C 0.30432 0.71277 0.98691 0.0
C186 C 0.32472 0.69082 0.01712 0.0
C187 C 0.38389 0.69476 0.02588 0.0
C188 C 0.40241 0.67659 0.05524 0.0
C189 C 0.36233 0.65371 0.07583 0.0
C190 C 0.30348 0.6494 0.0672 0.0
C191 C 0.28456 0.66816 0.03803 0.0
H192 H 0.37686 0.63945 0.09848 0.0
H193 H 0.20407 0.8469 0.82073 0.0
H194 H 0.89558 0.94062 0.05089 0.0
H195 H 0.85166 0.86441 0.07034 0.0
H196 H 0.91784 0.79446 -0.00989 0.0
H197 H 0.95982 0.87167 0.97014 0.0
H198 H 0.80638 0.78553 -0.00877 0.0
H199 H 0.95239 0.75588 0.06826 0.0
H200 H 0.02101 0.77418 0.11081 0.0
H201 H 0.87688 0.80543 0.17012 0.0
H202 H 0.80733 0.78806 0.12779 0.0
H203 H 0.62731 0.58294 0.03697 0.0
H204 H 0.71793 0.63035 0.02829 0.0
H205 H 0.65741 0.73535 0.09132 0.0
H206 H 0.56615 0.6883 0.09939 0.0
H207 H 0.77898 0.71302 0.09846 0.0
H208 H 0.63734 0.75689 0.01732 0.0
H209 H 0.56804 0.7359 0.9756 0.0
H210 H 0.70793 0.67569 0.92424 0.0
H211 H 0.77788 0.69547 0.96601 0.0
C212 C 0.90348 0.90833 0.03839 0.0
C213 C 0.93146 0.91155 0.00931 0.0
C214 C 0.8782 0.86465 0.04944 0.0
C215 C 0.88114 0.82347 0.03166 0.0
C216 C 0.9148 0.8257 0.0042 0.0
C217 C 0.93942 0.8696 -0.00703 0.0
C218 C 0.84029 0.78204 0.03847 0.0
C219 C 0.80177 0.76877 0.01453 0.0
C220 C 0.83297 0.76078 0.06899 0.0
C221 C 0.87458 0.77087 0.09472 0.0
C222 C 0.93528 0.76695 0.0903 0.0
C223 C 0.97437 0.77713 0.1144 0.0
C224 C 0.95332 0.79103 0.14313 0.0
C225 C 0.89312 0.79465 0.14785 0.0
C226 C 0.85383 0.78454 0.12382 0.0
C227 C 0.63339 0.61639 0.04866 0.0
C228 C 0.58975 0.6328 0.0683 0.0
C229 C 0.68526 0.64298 0.04409 0.0
C230 C 0.69422 0.68628 0.05918 0.0
C231 C 0.65142 0.70183 0.07966 0.0
C232 C 0.59938 0.67532 0.08409 0.0
C233 C 0.74552 0.71769 0.05139 0.0
C234 C 0.78524 0.72912 0.07509 0.0
C235 C 0.75429 0.73724 0.02066 0.0
C236 C 0.71274 0.72725 -0.00509 0.0
C237 C 0.65328 0.739 -0.00282 0.0
C238 C 0.61387 0.72729 0.97355 0.0
C239 C 0.63355 0.70438 0.94732 0.0
C240 C 0.69274 0.69338 0.9446 0.0
C241 C 0.73229 0.70483 0.96824 0.0
H242 H 0.60296 0.69525 0.92908 0.0
H243 H 0.98365 0.79895 0.16175 0.0
H244 H 0.83696 0.14043 0.03414 0.0
H245 H 0.77835 0.21269 0.02605 0.0
H246 H 0.92075 0.28371 0.97562 0.0
H247 H 0.98007 0.21097 0.98377 0.0
H248 H 0.83302 0.34616 0.0142 0.0
H249 H 0.84733 0.23248 0.93121 0.0
H250 H 0.8484 0.14974 0.91264 0.0
H251 H 0.67555 0.12311 0.94922 0.0
H252 H 0.67404 0.20544 0.96859 0.0
H253 H 0.65136 0.49647 0.9157 0.0
H254 H 0.72882 0.4412 0.93382 0.0
H255 H 0.59727 0.33757 0.96655 0.0
H256 H 0.52012 0.39285 0.94799 0.0
H257 H 0.68541 0.29484 0.93649 0.0
H258 H 0.66615 0.40682 0.01701 0.0
H259 H 0.66257 0.48722 0.03896 0.0
H260 H 0.83992 0.51636 0.01014 0.0
H261 H 0.84423 0.43639 0.9875 0.0
C262 C 0.85692 0.17229 0.02273 0.0
C263 C 0.91284 0.17007 0.0094 0.0
C264 C 0.8233 0.21352 0.01805 0.0
C265 C 0.84491 0.25316 -0.00017 0.0
C266 C 0.90342 0.25344 -0.01018 0.0
C267 C 0.93739 0.21196 -0.00538 0.0
C268 C 0.80281 0.28849 0.98613 0.0
C269 C 0.80139 0.33543 -0.00321 0.0
C270 C 0.76068 0.27391 0.964 0.0
C271 C 0.76082 0.22491 0.9516 0.0
C272 C 0.80975 0.20884 0.9355 0.0
C273 C 0.81043 0.16204 0.92481 0.0
C274 C 0.76212 0.13115 0.92981 0.0
C275 C 0.71297 0.14706 0.94541 0.0
C276 C 0.71218 0.19379 0.95624 0.0
C277 C 0.63941 0.46152 0.92635 0.0
C278 C 0.58028 0.44862 0.93061 0.0
C279 C 0.68342 0.43026 0.93696 0.0
C280 C 0.66884 0.38554 0.95196 0.0
C281 C 0.60953 0.37199 0.9552 0.0
C282 C 0.56557 0.40343 0.94472 0.0
C283 C 0.7153 0.35293 0.96441 0.0
C284 C 0.71738 0.30613 0.95357 0.0
C285 C 0.75762 0.36776 0.98647 0.0
C286 C 0.75532 0.41577 0.00024 0.0
C287 C 0.70423 0.43052 0.01509 0.0
C288 C 0.70208 0.47599 0.0277 0.0
C289 C 0.75095 0.5069 0.02589 0.0
C290 C 0.80208 0.49238 0.01149 0.0
C291 C 0.80441 0.44697 -0.00123 0.0
H292 H 0.74928 0.54202 0.03575 0.0
H293 H 0.76272 0.09492 0.92154 0.0
H294 H 0.61772 0.69016 0.50272 0.0
H295 H 0.6451 0.77652 0.50309 0.0
H296 H 0.82098 0.74299 0.47651 0.0
H297 H 0.79436 0.6577 0.47618 0.0
H298 H 0.77576 0.78679 0.54492 0.0
H299 H 0.79313 0.79828 0.42846 0.0
H300 H 0.74803 0.79712 0.37604 0.0
H301 H 0.62914 0.90743 0.4004 0.0
H302 H 0.67294 0.90854 0.45319 0.0
H303 H 0.99849 0.95285 0.55086 0.0
H304 H 0.93453 0.88989 0.53078 0.0
H305 H 0.79991 -0.00504 0.51212 0.0
H306 H 0.8663 0.05859 0.53055 0.0
H307 H 0.79884 0.92547 0.468 0.0
H308 H 0.79657 0.9267 0.58002 0.0
H309 H 0.84162 0.92889 0.63242 0.0
H310 H 0.92706 0.79506 0.61826 0.0
H311 H 0.88304 0.79225 0.5657 0.0
C312 C 0.66149 0.70164 0.49575 0.0
C313 C 0.70416 0.66735 0.48973 0.0
C314 C 0.67704 0.75085 0.49596 0.0
C315 C 0.73492 0.76601 0.48953 0.0
C316 C 0.77592 0.7321 0.48105 0.0
C317 C 0.7607 0.68333 0.48107 0.0
C318 C 0.75701 0.81397 0.49812 0.0
C319 C 0.78038 0.81732 0.52823 0.0
C320 C 0.76182 0.85391 0.47649 0.0
C321 C 0.73559 0.85289 0.44489 0.0
C322 C 0.75681 0.82174 0.42279 0.0
C323 C 0.73166 0.82124 0.39297 0.0
C324 C 0.68562 0.85206 0.38493 0.0
C325 C 0.66469 0.88348 0.40669 0.0
C326 C 0.68964 0.88404 0.43654 0.0
C327 C 0.95571 0.96243 0.54175 0.0
C328 C 0.93681 0.01014 0.5423 0.0
C329 C 0.91905 0.92662 0.5305 0.0
C330 C 0.86174 0.93744 0.5208 0.0
C331 C 0.84373 0.98569 0.51977 0.0
C332 C 0.88131 0.02193 0.5304 0.0
C333 C 0.82014 0.89735 0.51446 0.0
C334 C 0.79298 0.89551 0.48501 0.0
C335 C 0.81157 0.85849 0.53679 0.0
C336 C 0.8365 0.85931 0.56888 0.0
C337 C 0.82498 0.89775 0.58808 0.0
C338 C 0.85038 0.89911 0.6178 0.0
C339 C 0.88724 0.86217 0.62862 0.0
C340 C 0.89848 0.82363 0.60985 0.0
C341 C 0.87317 0.82205 0.58013 0.0
H342 H 0.90711 0.86332 0.65155 0.0
H343 H 0.66635 0.85176 0.36181 0.0
H344 H 0.77165 0.42695 0.44878 0.0
H345 H 0.80801 0.34664 0.44078 0.0
H346 H 0.65422 0.28328 0.48534 0.0
H347 H 0.61719 0.36455 0.49361 0.0
H348 H 0.75882 0.24465 0.50891 0.0
H349 H 0.6705 0.27166 0.40887 0.0
H350 H 0.64617 0.31749 0.35988 0.0
H351 H 0.82798 0.32477 0.33489 0.0
H352 H 0.85357 0.27962 0.38394 0.0
H353 H 0.87832 0.01619 0.45431 0.0
H354 H 0.81356 0.08177 0.46917 0.0
H355 H 0.94283 0.1868 0.43581 0.0
H356 H 0.00704 0.12153 0.4215 0.0
H357 H 0.8305 0.19383 0.40666 0.0
H358 H 0.91837 0.19245 0.51139 0.0
H359 H 0.94617 0.16067 0.56415 0.0
H360 H 0.77047 0.10834 0.57992 0.0
H361 H 0.74111 0.14147 0.52767 0.0
C362 C 0.745 0.39604 0.45653 0.0
C363 C 0.69157 0.40213 0.47189 0.0
C364 C 0.76579 0.35006 0.45182 0.0
C365 C 0.73372 0.3089 0.46227 0.0
C366 C 0.67957 0.31461 0.47701 0.0
C367 C 0.65833 0.36096 0.48153 0.0
C368 C 0.75948 0.26055 0.45918 0.0
C369 C 0.77302 0.23272 0.48645 0.0
C370 C 0.77917 0.24559 0.42996 0.0
C371 C 0.76395 0.27234 0.40019 0.0
C372 C 0.70535 0.28325 0.39302 0.0
C373 C 0.69133 0.3091 0.36522 0.0
C374 C 0.7355 0.32406 0.3443 0.0
C375 C 0.7938 0.31312 0.35111 0.0
C376 C 0.80807 0.28732 0.37888 0.0
C377 C 0.89307 0.05337 0.45109 0.0
C378 C 0.94724 0.06427 0.43689 0.0
C379 C 0.85635 0.09068 0.45952 0.0
C380 C 0.87345 0.13914 0.45355 0.0
C381 C 0.92884 0.1497 0.44068 0.0
C382 C 0.96539 0.11261 0.43248 0.0
C383 C 0.83146 0.1789 0.45648 0.0
C384 C 0.81482 0.20498 0.42903 0.0
C385 C 0.80935 0.19237 0.4855 0.0
C386 C 0.82786 0.16858 0.5155 0.0
C387 C 0.8859 0.17357 0.52597 0.0
C388 C 0.90181 0.15573 0.55586 0.0
C389 C 0.86034 0.13202 0.57524 0.0
C390 C 0.80262 0.12657 0.56487 0.0
C391 C 0.78624 0.14508 0.53519 0.0
H392 H 0.87293 0.11794 0.59827 0.0
H393 H 0.72455 0.3441 0.3228 0.0
H394 H 0.459 0.41867 0.55294 0.0
H395 H 0.41576 0.34455 0.57801 0.0
H396 H 0.35916 0.29926 0.48752 0.0
H397 H 0.4023 0.37189 0.46292 0.0
H398 H 0.30345 0.3245 0.57911 0.0
H399 H 0.34137 0.18303 0.48305 0.0
H400 H 0.42313 0.1564 0.45117 0.0
H401 H 0.54652 0.21216 0.5167 0.0
H402 H 0.46557 0.23826 0.5494 0.0
H403 H 0.05264 0.1875 0.55276 0.0
H404 H 0.1417 0.23802 0.54922 0.0
H405 H 0.24494 0.11539 0.57983 0.0
H406 H 0.15575 0.0647 0.58202 0.0
H407 H 0.29972 0.16226 0.53523 0.0
H408 H 0.21689 0.20501 0.62933 0.0
H409 H 0.13963 0.22769 0.66553 0.0
H410 H 0.1182 0.36234 0.61325 0.0
H411 H 0.19453 0.3401 0.57632 0.0
C412 C 0.43932 0.39176 0.53851 0.0
C413 C 0.43377 0.40072 0.50609 0.0
C414 C 0.41425 0.34972 0.55279 0.0
C415 C 0.38437 0.31608 0.53467 0.0
C416 C 0.38283 0.32389 0.50206 0.0
C417 C 0.40727 0.36564 0.48797 0.0
C418 C 0.3474 0.27654 0.54916 0.0
C419 C 0.30323 0.28876 0.56993 0.0
C420 C 0.34816 0.22925 0.53811 0.0
C421 C 0.39716 0.21278 0.51871 0.0
C422 C 0.38588 0.18924 0.49088 0.0
C423 C 0.43214 0.1743 0.4726 0.0
C424 C 0.48998 0.18264 0.48188 0.0
C425 C 0.50169 0.20581 0.50951 0.0
C426 C 0.45561 0.22071 0.52792 0.0
C427 C 0.09456 0.17148 0.55824 0.0
C428 C 0.09796 0.12246 0.56735 0.0
C429 C 0.14527 0.20031 0.5567 0.0
C430 C 0.20004 0.1807 0.5648 0.0
C431 C 0.2033 0.13141 0.57361 0.0
C432 C 0.15259 0.10257 0.57492 0.0
C433 C 0.25376 0.21163 0.56323 0.0
C434 C 0.30089 0.19757 0.54503 0.0
C435 C 0.25674 0.25659 0.57748 0.0
C436 C 0.21144 0.27077 0.59995 0.0
C437 C 0.19554 0.23938 0.62543 0.0
C438 C 0.15186 0.25214 0.64609 0.0
C439 C 0.12402 0.29643 0.64169 0.0
C440 C 0.13986 0.32806 0.61664 0.0
C441 C 0.18341 0.31541 0.59585 0.0
H442 H 0.09019 0.30625 0.6577 0.0
H443 H 0.52572 0.17113 0.46766 0.0
H444 H 0.36267 0.63732 0.53045 0.0
H445 H 0.30445 0.70965 0.52118 0.0
H446 H 0.43998 0.77218 0.46153 0.0
H447 H 0.49929 0.69983 0.47145 0.0
H448 H 0.36771 0.84252 0.49474 0.0
H449 H 0.34884 0.70827 0.42712 0.0
H450 H 0.33714 0.62181 0.41726 0.0
H451 H 0.17249 0.61722 0.46537 0.0
H452 H 0.1838 0.70349 0.47604 0.0
H453 H 0.16322 0.98374 0.40312 0.0
H454 H 0.24388 0.93017 0.41895 0.0
H455 H 0.1203 0.83254 0.46604 0.0
H456 H 0.03994 0.88479 0.44864 0.0
H457 H 0.19465 0.78327 0.43652 0.0
H458 H 0.21158 0.91572 0.50507 0.0
H459 H 0.22284 0.00119 0.51766 0.0
H460 H 0.38799 0.00977 0.47007 0.0
H461 H 0.37734 0.92447 0.45685 0.0
C462 C 0.3814 0.66756 0.51673 0.0
C463 C 0.43532 0.6631 0.50164 0.0
C464 C 0.34797 0.70876 0.51128 0.0
C465 C 0.36735 0.74578 0.49013 0.0
C466 C 0.42423 0.74398 0.47791 0.0
C467 C 0.45822 0.70275 0.48372 0.0
C468 C 0.32423 0.78047 0.47654 0.0
C469 C 0.33022 0.82986 0.48165 0.0
C470 C 0.27504 0.76376 0.45972 0.0
C471 C 0.2674 0.71222 0.45258 0.0
C472 C 0.31031 0.68875 0.43574 0.0
C473 C 0.30375 0.63978 0.43001 0.0
C474 C 0.25415 0.61401 0.44072 0.0
C475 C 0.21091 0.63721 0.45711 0.0
C476 C 0.21736 0.68614 0.46299 0.0
C477 C 0.15361 0.95041 0.41645 0.0
C478 C 0.09575 0.93838 0.42499 0.0
C479 C 0.19962 0.92019 0.42586 0.0
C480 C 0.18848 0.87773 0.44432 0.0
C481 C 0.13025 0.86522 0.45206 0.0
C482 C 0.08438 0.89515 0.44236 0.0
C483 C 0.23684 0.84562 0.45529 0.0
C484 C 0.23208 0.79639 0.44948 0.0
C485 C 0.28675 0.86266 0.47156 0.0
C486 C 0.29338 0.91384 0.47969 0.0
C487 C 0.25011 0.93592 0.4971 0.0
C488 C 0.25641 0.98432 0.50439 0.0
C489 C 0.30603 0.01093 0.4946 0.0
C490 C 0.34954 0.98914 0.4776 0.0
C491 C 0.34342 0.94076 0.47022 0.0
H492 H 0.31083 0.0484 0.50026 0.0
H493 H 0.24916 0.5761 0.43628 0.0
H494 H 0.00734 0.03396 0.1056 0.0
H495 H 0.00442 0.01488 0.16202 0.0
H496 H 0.15596 0.92538 0.15459 0.0
H497 H 0.16016 0.94537 0.09852 0.0
H498 H 0.99475 0.93783 0.20115 0.0
H499 H 0.24614 0.94268 0.21574 0.0
H500 H 0.33331 0.97814 0.18896 0.0
H501 H 0.22962 0.09382 0.14952 0.0
H502 H 0.1421 0.05934 0.17635 0.0
H503 H 0.03351 0.90443 0.36413 0.0
H504 H 0.05477 0.88937 0.30917 0.0
H505 H 0.11458 0.03722 0.29465 0.0
H506 H 0.09543 0.05113 0.34954 0.0
H507 H 0.17424 0.98365 0.25911 0.0
H508 H 0.9693 0.00146 0.28387 0.0
H509 H 0.87756 0.97884 0.31139 0.0
H510 H 0.87944 0.83923 0.27232 0.0
H511 H 0.97179 0.86082 0.24495 0.0
C512 C 0.03954 0.00974 0.11596 0.0
C513 C 0.08461 0.9919 0.09777 0.0
C514 C 0.03772 -0.00129 0.14816 0.0
C515 C 0.08066 0.96942 0.16258 0.0
C516 C 0.12315 0.94885 0.14406 0.0
C517 C 0.12546 0.96034 0.11201 0.0
C518 C 0.08388 0.96381 0.19715 0.0
C519 C 0.03416 0.94736 0.21383 0.0
C520 C 0.13507 0.97683 0.21373 0.0
C521 C 0.18753 -0.00193 0.19772 0.0
C522 C 0.24204 0.97572 0.20139 0.0
C523 C 0.29148 -0.00436 0.18621 0.0
C524 C 0.28695 0.03809 0.16745 0.0
C525 C 0.23303 0.06082 0.16394 0.0
C526 C 0.18349 0.04108 0.1791 0.0
C527 C 0.05322 0.93287 0.34927 0.0
C528 C 0.06218 0.97904 0.36047 0.0
C529 C 0.06483 0.92452 0.31794 0.0
C530 C 0.08482 0.96255 0.29759 0.0
C531 C 0.09885 0.00738 0.30977 0.0
C532 C 0.08776 0.01547 0.341 0.0
C533 C 0.0849 0.95824 0.26321 0.0
C534 C 0.13529 0.97286 0.24647 0.0
C535 C 0.03362 0.94527 0.24663 0.0
C536 C 0.97777 0.93251 0.26271 0.0
C537 C 0.95031 0.96584 0.28131 0.0
C538 C 0.89822 0.95321 0.29688 0.0
C539 C 0.87278 0.90756 0.29369 0.0
C540 C 0.89929 0.87452 0.27484 0.0
C541 C 0.95151 0.88692 0.25931 0.0
H542 H 0.83245 0.89784 0.30576 0.0
H543 H 0.32527 0.05343 0.1557 0.0
H544 H 0.12987 0.05402 0.89537 0.0
H545 H 0.15768 0.06133 0.83979 0.0
H546 H 0.98175 0.10343 0.81543 0.0
H547 H 0.9538 0.0961 0.87016 0.0
H548 H 0.02006 0.02036 0.78756 0.0
H549 H 0.08353 0.18348 0.80762 0.0
H550 H 0.14393 0.24449 0.83336 0.0
H551 H 0.29986 0.18275 0.79785 0.0
H552 H 0.24034 0.12087 0.77226 0.0
H553 H 0.03563 0.1483 0.62983 0.0
H554 H 0.06239 0.15127 0.68539 0.0
H555 H 0.11137 0.00156 0.68624 0.0
H556 H 0.08327 -0.00129 0.63098 0.0
H557 H 0.15326 0.13229 0.72692 0.0
H558 H 0.05164 0.94442 0.7439 0.0
H559 H 0.97856 0.89018 0.72048 0.0
H560 H 0.88272 0.01279 0.68452 0.0
H561 H 0.95588 0.06763 0.7072 0.0
C562 C 0.09765 0.06582 0.87813 0.0
C563 C 0.03941 0.07361 0.88693 0.0
C564 C 0.11359 0.07003 0.84652 0.0
C565 C 0.07151 0.08246 0.82367 0.0
C566 C 0.01464 0.09341 0.83278 0.0
C567 C 0.99871 0.089 0.86405 0.0
C568 C 0.08318 0.07856 0.79005 0.0
C569 C 0.05 0.04433 0.77441 0.0
C570 C 0.12188 0.11005 0.77299 0.0
C571 C 0.15756 0.14713 0.78842 0.0
C572 C 0.13073 0.18256 0.80561 0.0
C573 C 0.16479 0.21738 0.82009 0.0
C574 C 0.22571 0.21738 0.81735 0.0
C575 C 0.25268 0.18263 0.80003 0.0
C576 C 0.2188 0.14769 0.78552 0.0
C577 C 0.05355 0.11662 0.64191 0.0
C578 C 0.05642 0.07302 0.62686 0.0
C579 C 0.06907 0.11829 0.67343 0.0
C580 C 0.08783 0.07636 0.69001 0.0
C581 C 0.09614 0.03408 0.67396 0.0
C582 C 0.08003 0.03234 0.64261 0.0
C583 C 0.08918 0.07466 0.72456 0.0
C584 C 0.12478 0.10746 0.7403 0.0
C585 C 0.05165 0.04257 0.74196 0.0
C586 C 0.00934 0.00994 0.72695 0.0
C587 C 0.01517 0.95968 0.73078 0.0
C588 C 0.97385 0.9289 0.7176 0.0
C589 C 0.92613 0.94807 0.70096 0.0
C590 C 0.91983 -0.00197 0.69731 0.0
C591 C 0.96142 0.02897 0.71008 0.0
H592 H 0.89381 0.92425 0.69108 0.0
H593 H 0.25201 0.24439 0.82857 0.0
H594 H 0.68389 0.47484 0.6122 0.0
H595 H 0.66732 0.46284 0.6682 0.0
H596 H 0.49095 0.51394 0.65626 0.0
H597 H 0.50722 0.52627 0.59982 0.0
H598 H 0.54864 0.55859 0.70225 0.0
H599 H 0.51238 0.3973 0.67457 0.0
H600 H 0.53115 0.32111 0.64935 0.0
H601 H 0.68784 0.30196 0.70399 0.0
H602 H 0.67051 0.37847 0.72922 0.0
H603 H 0.48927 0.43131 0.86292 0.0
H604 H 0.50361 0.42249 0.80667 0.0
H605 H 0.62918 0.54053 0.8049 0.0
H606 H 0.6127 0.55011 0.86084 0.0
H607 H 0.5864 0.40721 0.76523 0.0
H608 H 0.61073 0.61258 0.74483 0.0
H609 H 0.58111 0.68775 0.76854 0.0
H610 H 0.42857 0.61546 0.80735 0.0
H611 H 0.45787 0.53966 0.78432 0.0
C612 C 0.64133 0.48323 0.62135 0.0
C613 C 0.59694 0.50184 0.60154 0.0
C614 C 0.63186 0.476 0.65339 0.0
C615 C 0.57783 0.4872 0.66636 0.0
C616 C 0.53296 0.50498 0.64665 0.0
C617 C 0.54228 0.51193 0.61444 0.0
C618 C 0.57001 0.48344 0.70074 0.0
C619 C 0.55666 0.52541 0.71597 0.0
C620 C 0.57979 0.44002 0.71863 0.0
C621 C 0.59038 0.39387 0.70361 0.0
C622 C 0.55111 0.37706 0.68104 0.0
C623 C 0.56144 0.33377 0.66677 0.0
C624 C 0.61072 0.30676 0.67501 0.0
C625 C 0.64971 0.32294 0.6976 0.0
C626 C 0.63961 0.36625 0.71193 0.0
C627 C 0.52146 0.45395 0.85055 0.0
C628 C 0.55035 0.49106 0.86581 0.0
C629 C 0.52936 0.44925 0.81848 0.0
C630 C 0.56636 0.48166 0.80141 0.0
C631 C 0.59938 0.51585 0.81744 0.0
C632 C 0.5908 0.52091 0.84936 0.0
C633 C 0.56642 0.48268 0.76671 0.0
C634 C 0.57831 0.44029 0.75144 0.0
C635 C 0.55406 0.52547 0.74863 0.0
C636 C 0.53668 0.57052 0.76305 0.0
C637 C 0.57096 0.61277 0.7585 0.0
C638 C 0.55435 0.65539 0.77191 0.0
C639 C 0.50315 0.65629 0.78959 0.0
C640 C 0.46845 0.61458 0.79387 0.0
C641 C 0.4852 0.57172 0.7808 0.0
H642 H 0.49025 0.68934 0.79988 0.0
H643 H 0.61865 0.27325 0.66394 0.0
H644 H 0.64659 0.57861 0.39607 0.0
H645 H 0.67942 0.59037 0.34147 0.0
H646 H 0.51796 0.52558 0.31015 0.0
H647 H 0.4852 0.51394 0.36381 0.0
H648 H 0.61398 0.49316 0.2792 0.0
H649 H 0.53099 0.64641 0.31212 0.0
H650 H 0.53273 0.71631 0.34564 0.0
H651 H 0.708 0.75211 0.31585 0.0
H652 H 0.70737 0.68205 0.28235 0.0
H653 H 0.47457 0.63289 0.14931 0.0
H654 H 0.51653 0.63286 0.20212 0.0
H655 H 0.66662 0.55649 0.17043 0.0
H656 H 0.62336 0.55576 0.11769 0.0
H657 H 0.61672 0.66055 0.23269 0.0
H658 H 0.69232 0.46793 0.22603 0.0
H659 H 0.67886 0.39716 0.19375 0.0
H660 H 0.50261 0.43954 0.17248 0.0
H661 H 0.515 0.51031 0.20476 0.0
C662 C 0.61851 0.56656 0.37746 0.0
C663 C 0.56311 0.54573 0.38417 0.0
C664 C 0.63732 0.57324 0.3464 0.0
C665 C 0.60113 0.55867 0.32188 0.0
C666 C 0.54675 0.5367 0.32875 0.0
C667 C 0.52786 0.53046 0.35948 0.0
C668 C 0.61634 0.5687 0.28866 0.0
C669 C 0.61645 0.52973 0.26902 0.0
C670 C 0.61945 0.61637 0.27545 0.0
C671 C 0.61937 0.65883 0.29506 0.0
C672 C 0.56996 0.6691 0.31285 0.0
C673 C 0.57073 0.70872 0.33181 0.0
C674 C 0.62052 0.73853 0.33295 0.0
C675 C 0.66953 0.72891 0.31499 0.0
C676 C 0.66898 0.68929 0.29601 0.0
C677 C 0.51686 0.61682 0.15377 0.0
C678 C 0.5455 0.5935 0.13012 0.0
C679 C 0.54118 0.61729 0.18366 0.0
C680 C 0.5945 0.59435 0.19023 0.0
C681 C 0.62532 0.57418 0.16586 0.0
C682 C 0.60073 0.57359 0.13594 0.0
C683 C 0.61175 0.58495 0.22329 0.0
C684 C 0.6177 0.62396 0.24282 0.0
C685 C 0.61315 0.53724 0.23653 0.0
C686 C 0.60488 0.49455 0.21746 0.0
C687 C 0.65072 0.46202 0.21447 0.0
C688 C 0.64329 0.42198 0.19617 0.0
C689 C 0.59 0.414 0.18095 0.0
C690 C 0.54394 0.44591 0.18413 0.0
C691 C 0.55115 0.48597 0.20242 0.0
H692 H 0.58435 0.38302 0.16677 0.0
H693 H 0.62105 0.7691 0.34769 0.0
loop_
_geom_bond_atom_site_label_1
_geom_bond_atom_site_label_2
_geom_bond_distance
_geom_bond_site_symmetry_2
_ccdc_geom_bond_type
O0 Mg1 1.990 . S
O0 C14 1.253 . S
Mg1 O0 1.990 . S
Mg1 O4 2.180 . S
Mg1 O5 2.117 . S
Mg1 O19 2.030 1_545 S
O2 Mg3 2.072 . S
O2 C14 1.260 . S
Mg3 O2 2.072 . S
Mg3 O4 2.099 . S
Mg3 O6 2.079 1_554 S
Mg3 O7 2.072 . S
Mg3 O9 2.099 1_544 S
Mg3 O20 2.076 1_544 S
O4 Mg1 2.180 . S
O4 Mg3 2.099 . S
O4 C15 1.279 . S
O5 Mg1 2.117 . S
O5 C15 1.250 . S
O6 Mg3 2.079 1_556 S
O6 C16 1.264 . S
O7 Mg3 2.072 . S
O7 C17 1.260 1_454 S
Mg8 O9 2.180 1_645 S
Mg8 O10 2.030 . S
Mg8 O11 1.990 . S
Mg8 O12 2.117 1_545 S
O9 Mg3 2.099 1_566 S
O9 Mg8 2.180 1_465 S
O9 C18 1.279 1_456 S
O10 Mg8 2.030 . S
O10 C16 1.248 1_655 S
O11 Mg8 1.990 . S
O11 C17 1.253 . S
O12 Mg8 2.117 1_565 S
O12 C18 1.250 1_556 S
C13 O19 1.248 . S
C13 O20 1.246 1_554 S
C14 O0 1.253 . S
C14 O2 1.260 . S
C15 O4 1.279 . S
C15 O5 1.250 . S
C16 O6 1.264 . S
C16 O10 1.248 1_455 S
C17 O7 1.260 1_656 S
C17 O11 1.253 . S
C18 O9 1.279 1_654 S
C18 O12 1.250 1_554 S
O19 Mg1 2.030 1_565 S
O19 C13 1.248 . S
O20 Mg3 2.076 1_566 S
O20 C13 1.246 1_556 S
O21 Mg22 1.990 . S
O21 C35 1.253 . S
Mg22 O21 1.990 . S
Mg22 O25 2.180 . S
Mg22 O26 2.117 . S
Mg22 O40 2.030 . S
O23 Mg24 2.072 . S
O23 C35 1.260 . S
Mg24 O23 2.072 . S
Mg24 O25 2.099 . S
Mg24 O27 2.079 . S
Mg24 O28 2.072 . S
Mg24 O30 2.099 . S
Mg24 O41 2.079 . S
O25 Mg22 2.180 . S
O25 Mg24 2.099 . S
O25 C36 1.279 . S
O26 Mg22 2.117 . S
O26 C36 1.250 . S
O27 Mg24 2.079 . S
O27 C37 1.264 . S
O28 Mg24 2.072 . S
O28 C38 1.260 . S
Mg29 O30 2.180 . S
Mg29 O31 2.030 . S
Mg29 O32 1.990 . S
Mg29 O33 2.117 . S
O30 Mg24 2.099 . S
O30 Mg29 2.180 . S
O30 C39 1.279 . S
O31 Mg29 2.030 . S
O31 C37 1.248 . S
O32 Mg29 1.990 . S
O32 C38 1.253 . S
O33 Mg29 2.117 . S
O33 C39 1.250 . S
C34 O40 1.248 . S
C34 O41 1.264 . S
C35 O21 1.253 . S
C35 O23 1.260 . S
C36 O25 1.279 . S
C36 O26 1.250 . S
C37 O27 1.264 . S
C37 O31 1.248 . S
C38 O28 1.260 . S
C38 O32 1.253 . S
C39 O30 1.279 . S
C39 O33 1.250 . S
O40 Mg22 2.030 . S
O40 C34 1.248 . S
O41 Mg24 2.079 . S
O41 C34 1.264 . S
C42 N43 1.317 1_545 S
C42 N44 1.348 . S
C42 C45 1.488 . S
N43 C42 1.317 1_565 S
N43 N47 1.370 1_565 S
N44 C42 1.348 . S
N44 C46 1.346 . S
C45 C42 1.488 . S
C45 H49 0.947 1_545 S
C45 H50 0.982 . S
C45 H51 0.949 1_545 S
C46 N44 1.346 . S
C46 N47 1.307 . S
C46 C48 1.486 1_455 S
N47 N43 1.370 1_545 S
N47 C46 1.307 . S
C48 C46 1.486 1_655 S
C48 H52 0.960 . S
C48 H53 0.960 . S
C48 H54 0.959 . S
H49 C45 0.947 1_565 S
H50 C45 0.982 . S
H51 C45 0.949 1_565 S
H52 C48 0.960 . S
H53 C48 0.960 . S
H54 C48 0.959 . S
C55 N56 1.317 . S
C55 N57 1.348 1_455 S
C55 C58 1.485 . S
N56 C55 1.317 . S
N56 N60 1.370 . S
N57 C55 1.348 1_655 S
N57 C59 1.346 . S
C58 C55 1.485 . S
C58 H62 0.960 1_455 S
C58 H63 0.961 . S
C58 H64 0.960 . S
C59 N57 1.346 . S
C59 N60 1.307 1_655 S
C59 C61 1.486 . S
N60 N56 1.370 . S
N60 C59 1.307 1_455 S
C61 C59 1.486 . S
C61 H65 0.960 1_545 S
C61 H66 0.960 . S
C61 H67 0.959 . S
H62 C58 0.960 1_655 S
H63 C58 0.961 . S
H64 C58 0.960 . S
H65 C61 0.960 1_565 S
H66 C61 0.960 . S
H67 C61 0.959 . S
C68 N69 1.317 . S
C68 N70 1.348 . S
C68 C71 1.485 1_556 S
N69 C68 1.317 . S
N69 N73 1.370 . S
N70 C68 1.348 . S
N70 C72 1.346 . S
C71 C68 1.485 1_554 S
C71 H75 0.960 . S
C71 H76 0.961 . S
C71 H77 0.960 . S
C72 N70 1.346 . S
C72 N73 1.307 . S
C72 C74 1.486 . S
N73 N69 1.370 . S
N73 C72 1.307 . S
C74 C72 1.486 . S
C74 H78 0.960 . S
C74 H79 0.960 . S
C74 H80 0.959 . S
H75 C71 0.960 . S
H76 C71 0.961 . S
H77 C71 0.960 . S
H78 C74 0.960 . S
H79 C74 0.960 . S
H80 C74 0.959 . S
C81 N82 1.317 . S
C81 N83 1.348 . S
C81 C84 1.485 . S
N82 C81 1.317 . S
N82 N86 1.370 . S
N83 C81 1.348 . S
N83 C85 1.346 . S
C84 C81 1.485 . S
C84 H88 0.960 1_554 S
C84 H89 0.961 1_554 S
C84 H90 0.960 . S
C85 N83 1.346 . S
C85 N86 1.307 . S
C85 C87 1.486 . S
N86 N82 1.370 . S
N86 C85 1.307 . S
C87 C85 1.486 . S
C87 H91 0.960 . S
C87 H92 0.960 . S
C87 H93 0.959 . S
H88 C84 0.960 1_556 S
H89 C84 0.961 1_556 S
H90 C84 0.960 . S
H91 C87 0.960 . S
H92 C87 0.960 . S
H93 C87 0.959 . S
H94 C112 0.951 . S
H95 C114 0.951 . S
H96 C116 0.950 1_556 S
H97 C117 0.950 . S
H98 C119 0.950 . S
H99 C122 0.950 . S
H100 C123 0.950 . S
H101 C125 0.950 . S
H102 C126 0.950 . S
H103 C127 0.951 . S
H104 C129 0.951 . S
H105 C131 0.950 . S
H106 C132 0.950 . S
H107 C134 0.950 . S
H108 C137 0.950 . S
H109 C138 0.950 . S
H110 C140 0.950 . S
H111 C141 0.950 . S
C112 H94 0.951 . S
C112 C113 1.366 . S
C112 C114 1.388 . S
C113 C112 1.366 . S
C113 C117 1.385 1_554 S
C114 H95 0.951 . S
C114 C112 1.388 . S
C114 C115 1.366 . S
C115 C114 1.366 . S
C115 C116 1.414 . S
C115 C118 1.499 . S
C116 H96 0.950 1_554 S
C116 C115 1.414 . S
C116 C117 1.374 1_554 S
C117 H97 0.950 . S
C117 C113 1.385 1_556 S
C117 C116 1.374 1_556 S
C118 C115 1.499 . S
C118 C119 1.373 1_554 S
C118 C120 1.389 . S
C119 H98 0.950 . S
C119 C118 1.373 1_556 S
C119 C135 1.376 1_556 S
C120 C118 1.389 . S
C120 C121 1.524 . S
C120 C134 1.377 . S
C121 C120 1.524 . S
C121 C122 1.397 . S
C121 C126 1.363 . S
C122 H99 0.950 . S
C122 C121 1.397 . S
C122 C123 1.334 . S
C123 H100 0.950 . S
C123 C122 1.334 . S
C123 C124 1.287 . S
C124 C123 1.287 . S
C124 C125 1.524 . S
C124 H143 0.913 . S
C125 H101 0.950 . S
C125 C124 1.524 . S
C125 C126 1.415 . S
C126 H102 0.950 . S
C126 C121 1.363 . S
C126 C125 1.415 . S
C127 H103 0.951 . S
C127 C128 1.366 . S
C127 C129 1.388 . S
C128 C127 1.366 . S
C128 C132 1.385 . S
C129 H104 0.951 . S
C129 C127 1.388 . S
C129 C130 1.366 . S
C130 C129 1.366 . S
C130 C131 1.414 . S
C130 C133 1.499 . S
C131 H105 0.950 . S
C131 C130 1.414 . S
C131 C132 1.374 . S
C132 H106 0.950 . S
C132 C128 1.385 . S
C132 C131 1.374 . S
C133 C130 1.499 . S
C133 C134 1.373 . S
C133 C135 1.390 . S
C134 H107 0.950 . S
C134 C120 1.377 . S
C134 C133 1.373 . S
C135 C119 1.376 1_554 S
C135 C133 1.390 . S
C135 C136 1.523 1_554 S
C136 C135 1.523 1_556 S
C136 C137 1.397 . S
C136 C141 1.363 . S
C137 H108 0.950 . S
C137 C136 1.397 . S
C137 C138 1.334 . S
C138 H109 0.950 . S
C138 C137 1.334 . S
C138 C139 1.287 . S
C139 C138 1.287 . S
C139 C140 1.524 . S
C139 H142 0.999 . S
C140 H110 0.950 . S
C140 C139 1.524 . S
C140 C141 1.415 . S
C141 H111 0.950 . S
C141 C136 1.363 . S
C141 C140 1.415 . S
H142 C139 0.999 . S
H143 C124 0.913 . S
H144 C162 0.951 . S
H145 C164 0.956 . S
H146 C166 0.950 . S
H147 C167 0.950 . S
H148 C169 0.950 . S
H149 C172 0.950 . S
H150 C173 0.950 . S
H151 C175 0.950 . S
H152 C176 0.950 . S
H153 C177 0.951 . S
H154 C179 0.951 . S
H155 C181 0.950 . S
H156 C182 0.950 . S
H157 C184 0.950 . S
H158 C187 0.950 . S
H159 C188 0.950 . S
H160 C190 0.950 . S
H161 C191 0.950 . S
C162 H144 0.951 . S
C162 C163 1.366 . S
C162 C164 1.381 1_554 S
C163 C162 1.366 . S
C163 C167 1.385 . S
C164 H145 0.956 . S
C164 C162 1.381 1_556 S
C164 C165 1.368 . S
C165 C164 1.368 . S
C165 C166 1.414 1_556 S
C165 C168 1.499 . S
C166 H146 0.950 . S
C166 C165 1.414 1_554 S
C166 C167 1.374 . S
C167 H147 0.950 . S
C167 C163 1.385 . S
C167 C166 1.374 . S
C168 C165 1.499 . S
C168 C169 1.373 1_556 S
C168 C170 1.389 . S
C169 H148 0.950 . S
C169 C168 1.373 1_554 S
C169 C185 1.377 . S
C170 C168 1.389 . S
C170 C171 1.524 . S
C170 C184 1.377 . S
C171 C170 1.524 . S
C171 C172 1.397 . S
C171 C176 1.363 . S
C172 H149 0.950 . S
C172 C171 1.397 . S
C172 C173 1.334 . S
C173 H150 0.950 . S
C173 C172 1.334 . S
C173 C174 1.287 . S
C174 C173 1.287 . S
C174 C175 1.524 . S
C174 H193 0.913 . S
C175 H151 0.950 . S
C175 C174 1.524 . S
C175 C176 1.415 . S
C176 H152 0.950 . S
C176 C171 1.363 . S
C176 C175 1.415 . S
C177 H153 0.951 . S
C177 C178 1.366 . S
C177 C179 1.388 . S
C178 C177 1.366 . S
C178 C182 1.385 . S
C179 H154 0.951 . S
C179 C177 1.388 . S
C179 C180 1.366 . S
C180 C179 1.366 . S
C180 C181 1.414 . S
C180 C183 1.499 . S
C181 H155 0.950 . S
C181 C180 1.414 . S
C181 C182 1.374 . S
C182 H156 0.950 . S
C182 C178 1.385 . S
C182 C181 1.374 . S
C183 C180 1.499 . S
C183 C184 1.373 . S
C183 C185 1.389 1_556 S
C184 H157 0.950 . S
C184 C170 1.377 . S
C184 C183 1.373 . S
C185 C169 1.377 . S
C185 C183 1.389 1_554 S
C185 C186 1.524 . S
C186 C185 1.524 . S
C186 C187 1.397 . S
C186 C191 1.363 . S
C187 H158 0.950 . S
C187 C186 1.397 . S
C187 C188 1.334 . S
C188 H159 0.950 . S
C188 C187 1.334 . S
C188 C189 1.287 . S
C189 C188 1.287 . S
C189 C190 1.524 . S
C189 H192 0.999 . S
C190 H160 0.950 . S
C190 C189 1.524 . S
C190 C191 1.415 . S
C191 H161 0.950 . S
C191 C186 1.363 . S
C191 C190 1.415 . S
H192 C189 0.999 . S
H193 C174 0.913 . S
H194 C212 0.951 . S
H195 C214 0.951 . S
H196 C216 0.966 . S
H197 C217 0.950 . S
H198 C219 0.950 1_556 S
H199 C222 0.950 . S
H200 C223 0.950 . S
H201 C225 0.950 . S
H202 C226 0.950 . S
H203 C227 0.951 . S
H204 C229 0.951 . S
H205 C231 0.950 . S
H206 C232 0.950 . S
H207 C234 0.950 . S
H208 C237 0.950 . S
H209 C238 0.966 . S
H210 C240 0.950 . S
H211 C241 0.950 . S
C212 H194 0.951 . S
C212 C213 1.366 . S
C212 C214 1.388 . S
C213 C212 1.366 . S
C213 C217 1.385 1_554 S
C214 H195 0.951 . S
C214 C212 1.388 . S
C214 C215 1.366 . S
C215 C214 1.366 . S
C215 C216 1.397 1_554 S
C215 C218 1.499 . S
C216 H196 0.966 . S
C216 C215 1.397 1_556 S
C216 C217 1.376 . S
C217 H197 0.950 . S
C217 C213 1.385 1_556 S
C217 C216 1.376 . S
C218 C215 1.499 . S
C218 C219 1.373 . S
C218 C220 1.389 . S
C219 H198 0.950 1_554 S
C219 C218 1.373 . S
C219 C235 1.377 . S
C220 C218 1.389 . S
C220 C221 1.524 . S
C220 C234 1.377 . S
C221 C220 1.524 . S
C221 C222 1.397 . S
C221 C226 1.363 . S
C222 H199 0.950 . S
C222 C221 1.397 . S
C222 C223 1.334 . S
C223 H200 0.950 . S
C223 C222 1.334 . S
C223 C224 1.287 . S
C224 C223 1.287 . S
C224 C225 1.524 . S
C224 H243 0.913 . S
C225 H201 0.950 . S
C225 C224 1.524 . S
C225 C226 1.415 . S
C226 H202 0.950 . S
C226 C221 1.363 . S
C226 C225 1.415 . S
C227 H203 0.951 . S
C227 C228 1.366 . S
C227 C229 1.388 . S
C228 C227 1.366 . S
C228 C232 1.385 . S
C229 H204 0.951 . S
C229 C227 1.388 . S
C229 C230 1.366 . S
C230 C229 1.366 . S
C230 C231 1.414 . S
C230 C233 1.499 . S
C231 H205 0.950 . S
C231 C230 1.414 . S
C231 C232 1.374 . S
C232 H206 0.950 . S
C232 C228 1.385 . S
C232 C231 1.374 . S
C233 C230 1.499 . S
C233 C234 1.373 . S
C233 C235 1.389 . S
C234 H207 0.950 . S
C234 C220 1.377 . S
C234 C233 1.373 . S
C235 C219 1.377 . S
C235 C233 1.389 . S
C235 C236 1.540 . S
C236 C235 1.540 . S
C236 C237 1.410 . S
C236 C241 1.335 1_554 S
C237 H208 0.950 . S
C237 C236 1.410 . S
C237 C238 1.350 . S
C238 H209 0.966 . S
C238 C237 1.350 . S
C238 C239 1.256 1_554 S
C239 C238 1.256 1_556 S
C239 C240 1.524 . S
C239 H242 0.999 . S
C240 H210 0.950 . S
C240 C239 1.524 . S
C240 C241 1.415 . S
C241 H211 0.950 . S
C241 C236 1.335 1_556 S
C241 C240 1.415 . S
H242 C239 0.999 . S
H243 C224 0.913 . S
H244 C262 0.951 . S
H245 C264 0.951 1_554 S
H246 C266 0.950 . S
H247 C267 0.950 1_455 S
H248 C269 0.950 . S
H249 C272 0.950 . S
H250 C273 0.950 . S
H251 C275 0.950 . S
H252 C276 0.950 . S
H253 C277 0.951 . S
H254 C279 0.951 . S
H255 C281 0.950 . S
H256 C282 0.950 . S
H257 C284 0.950 . S
H258 C287 0.950 . S
H259 C288 0.950 . S
H260 C290 0.956 . S
H261 C291 0.950 . S
C262 H244 0.951 . S
C262 C263 1.366 1_554 S
C262 C264 1.388 1_554 S
C263 C262 1.366 1_556 S
C263 C267 1.385 . S
C264 H245 0.951 1_556 S
C264 C262 1.388 1_556 S
C264 C265 1.366 . S
C265 C264 1.366 . S
C265 C266 1.414 . S
C265 C268 1.499 . S
C266 H246 0.950 . S
C266 C265 1.414 . S
C266 C267 1.374 . S
C267 H247 0.950 1_655 S
C267 C263 1.385 . S
C267 C266 1.374 . S
C268 C265 1.499 . S
C268 C269 1.373 . S
C268 C270 1.389 . S
C269 H248 0.950 . S
C269 C268 1.373 . S
C269 C285 1.377 . S
C270 C268 1.389 . S
C270 C271 1.524 . S
C270 C284 1.377 . S
C271 C270 1.524 . S
C271 C272 1.397 . S
C271 C276 1.363 . S
C272 H249 0.950 . S
C272 C271 1.397 . S
C272 C273 1.334 . S
C273 H250 0.950 . S
C273 C272 1.334 . S
C273 C274 1.287 . S
C274 C273 1.287 . S
C274 C275 1.524 . S
C274 H293 0.913 . S
C275 H251 0.950 . S
C275 C274 1.524 . S
C275 C276 1.415 . S
C276 H252 0.950 . S
C276 C271 1.363 . S
C276 C275 1.415 . S
C277 H253 0.951 . S
C277 C278 1.366 . S
C277 C279 1.388 . S
C278 C277 1.366 . S
C278 C282 1.385 . S
C279 H254 0.951 . S
C279 C277 1.388 . S
C279 C280 1.366 . S
C280 C279 1.366 . S
C280 C281 1.414 . S
C280 C283 1.499 . S
C281 H255 0.950 . S
C281 C280 1.414 . S
C281 C282 1.374 . S
C282 H256 0.950 . S
C282 C278 1.385 . S
C282 C281 1.374 . S
C283 C280 1.499 . S
C283 C284 1.373 . S
C283 C285 1.389 . S
C284 H257 0.950 . S
C284 C270 1.377 . S
C284 C283 1.373 . S
C285 C269 1.377 . S
C285 C283 1.389 . S
C285 C286 1.524 . S
C286 C285 1.524 . S
C286 C287 1.397 1_556 S
C286 C291 1.363 . S
C287 H258 0.950 . S
C287 C286 1.397 1_554 S
C287 C288 1.334 . S
C288 H259 0.950 . S
C288 C287 1.334 . S
C288 C289 1.287 . S
C289 C288 1.287 . S
C289 C290 1.524 . S
C289 H292 0.999 . S
C290 H260 0.956 . S
C290 C289 1.524 . S
C290 C291 1.415 1_554 S
C291 H261 0.950 . S
C291 C286 1.363 . S
C291 C290 1.415 1_556 S
H292 C289 0.999 . S
H293 C274 0.913 . S
H294 C312 0.951 . S
H295 C314 0.951 . S
H296 C316 0.950 . S
H297 C317 0.950 . S
H298 C319 0.950 . S
H299 C322 0.950 . S
H300 C323 0.950 . S
H301 C325 0.950 . S
H302 C326 0.950 . S
H303 C327 0.944 1_455 S
H304 C329 0.951 . S
H305 C331 0.950 . S
H306 C332 0.950 . S
H307 C334 0.950 . S
H308 C337 0.950 . S
H309 C338 0.950 . S
H310 C340 0.950 1_455 S
H311 C341 0.950 . S
C312 H294 0.951 . S
C312 C313 1.366 . S
C312 C314 1.388 . S
C313 C312 1.366 . S
C313 C317 1.385 . S
C314 H295 0.951 . S
C314 C312 1.388 . S
C314 C315 1.366 . S
C315 C314 1.366 . S
C315 C316 1.414 . S
C315 C318 1.499 . S
C316 H296 0.950 . S
C316 C315 1.414 . S
C316 C317 1.374 . S
C317 H297 0.950 . S
C317 C313 1.385 . S
C317 C316 1.374 . S
C318 C315 1.499 . S
C318 C319 1.373 . S
C318 C320 1.389 . S
C319 H298 0.950 . S
C319 C318 1.373 . S
C319 C335 1.377 . S
C320 C318 1.389 . S
C320 C321 1.524 . S
C320 C334 1.377 . S
C321 C320 1.524 . S
C321 C322 1.397 . S
C321 C326 1.363 . S
C322 H299 0.950 . S
C322 C321 1.397 . S
C322 C323 1.334 . S
C323 H300 0.950 . S
C323 C322 1.334 . S
C323 C324 1.287 . S
C324 C323 1.287 . S
C324 C325 1.524 . S
C324 H343 0.913 . S
C325 H301 0.950 . S
C325 C324 1.524 . S
C325 C326 1.415 . S
C326 H302 0.950 . S
C326 C321 1.363 . S
C326 C325 1.415 . S
C327 H303 0.944 1_655 S
C327 C328 1.366 1_565 S
C327 C329 1.388 . S
C328 C327 1.366 1_545 S
C328 C332 1.385 . S
C329 H304 0.951 . S
C329 C327 1.388 . S
C329 C330 1.366 . S
C330 C329 1.366 . S
C330 C331 1.414 . S
C330 C333 1.499 . S
C331 H305 0.950 . S
C331 C330 1.414 . S
C331 C332 1.374 1_565 S
C332 H306 0.950 . S
C332 C328 1.385 . S
C332 C331 1.374 1_545 S
C333 C330 1.499 . S
C333 C334 1.373 . S
C333 C335 1.389 . S
C334 H307 0.950 . S
C334 C320 1.377 . S
C334 C333 1.373 . S
C335 C319 1.377 . S
C335 C333 1.389 . S
C335 C336 1.524 . S
C336 C335 1.524 . S
C336 C337 1.397 . S
C336 C341 1.363 . S
C337 H308 0.950 . S
C337 C336 1.397 . S
C337 C338 1.334 . S
C338 H309 0.950 . S
C338 C337 1.334 . S
C338 C339 1.287 . S
C339 C338 1.287 . S
C339 C340 1.524 . S
C339 H342 0.999 . S
C340 H310 0.950 1_655 S
C340 C339 1.524 . S
C340 C341 1.415 . S
C341 H311 0.950 . S
C341 C336 1.363 . S
C341 C340 1.415 . S
H342 C339 0.999 . S
H343 C324 0.913 . S
H344 C362 0.951 . S
H345 C364 0.951 . S
H346 C366 0.950 . S
H347 C367 0.950 . S
H348 C369 0.950 . S
H349 C372 0.950 . S
H350 C373 0.950 . S
H351 C375 0.950 . S
H352 C376 0.950 . S
H353 C377 0.951 . S
H354 C379 0.951 . S
H355 C381 0.950 . S
H356 C382 0.950 1_455 S
H357 C384 0.950 . S
H358 C387 0.950 . S
H359 C388 0.950 . S
H360 C390 0.950 . S
H361 C391 0.950 . S
C362 H344 0.951 . S
C362 C363 1.366 . S
C362 C364 1.388 . S
C363 C362 1.366 . S
C363 C367 1.385 . S
C364 H345 0.951 . S
C364 C362 1.388 . S
C364 C365 1.366 . S
C365 C364 1.366 . S
C365 C366 1.414 . S
C365 C368 1.499 . S
C366 H346 0.950 . S
C366 C365 1.414 . S
C366 C367 1.374 . S
C367 H347 0.950 . S
C367 C363 1.385 . S
C367 C366 1.374 . S
C368 C365 1.499 . S
C368 C369 1.373 . S
C368 C370 1.389 . S
C369 H348 0.950 . S
C369 C368 1.373 . S
C369 C385 1.377 . S
C370 C368 1.389 . S
C370 C371 1.524 . S
C370 C384 1.377 . S
C371 C370 1.524 . S
C371 C372 1.397 . S
C371 C376 1.363 . S
C372 H349 0.950 . S
C372 C371 1.397 . S
C372 C373 1.334 . S
C373 H350 0.950 . S
C373 C372 1.334 . S
C373 C374 1.287 . S
C374 C373 1.287 . S
C374 C375 1.524 . S
C374 H393 0.913 . S
C375 H351 0.950 . S
C375 C374 1.524 . S
C375 C376 1.415 . S
C376 H352 0.950 . S
C376 C371 1.363 . S
C376 C375 1.415 . S
C377 H353 0.951 . S
C377 C378 1.366 . S
C377 C379 1.388 . S
C378 C377 1.366 . S
C378 C382 1.385 . S
C379 H354 0.951 . S
C379 C377 1.388 . S
C379 C380 1.366 . S
C380 C379 1.366 . S
C380 C381 1.414 . S
C380 C383 1.499 . S
C381 H355 0.950 . S
C381 C380 1.414 . S
C381 C382 1.374 . S
C382 H356 0.950 1_655 S
C382 C378 1.385 . S
C382 C381 1.374 . S
C383 C380 1.499 . S
C383 C384 1.373 . S
C383 C385 1.389 . S
C384 H357 0.950 . S
C384 C370 1.377 . S
C384 C383 1.373 . S
C385 C369 1.377 . S
C385 C383 1.389 . S
C385 C386 1.524 . S
C386 C385 1.524 . S
C386 C387 1.397 . S
C386 C391 1.363 . S
C387 H358 0.950 . S
C387 C386 1.397 . S
C387 C388 1.334 . S
C388 H359 0.950 . S
C388 C387 1.334 . S
C388 C389 1.287 . S
C389 C388 1.287 . S
C389 C390 1.524 . S
C389 H392 0.999 . S
C390 H360 0.950 . S
C390 C389 1.524 . S
C390 C391 1.415 . S
C391 H361 0.950 . S
C391 C386 1.363 . S
C391 C390 1.415 . S
H392 C389 0.999 . S
H393 C374 0.913 . S
H394 C412 0.951 . S
H395 C414 0.951 . S
H396 C416 0.950 . S
H397 C417 0.950 . S
H398 C419 0.950 . S
H399 C422 0.950 . S
H400 C423 0.950 . S
H401 C425 0.950 . S
H402 C426 0.950 . S
H403 C427 0.951 . S
H404 C429 0.951 . S
H405 C431 0.950 . S
H406 C432 0.950 . S
H407 C434 0.950 . S
H408 C437 0.950 . S
H409 C438 0.950 . S
H410 C440 0.950 . S
H411 C441 0.950 . S
C412 H394 0.951 . S
C412 C413 1.366 . S
C412 C414 1.388 . S
C413 C412 1.366 . S
C413 C417 1.385 . S
C414 H395 0.951 . S
C414 C412 1.388 . S
C414 C415 1.366 . S
C415 C414 1.366 . S
C415 C416 1.414 . S
C415 C418 1.499 . S
C416 H396 0.950 . S
C416 C415 1.414 . S
C416 C417 1.374 . S
C417 H397 0.950 . S
C417 C413 1.385 . S
C417 C416 1.374 . S
C418 C415 1.499 . S
C418 C419 1.373 . S
C418 C420 1.389 . S
C419 H398 0.950 . S
C419 C418 1.373 . S
C419 C435 1.377 . S
C420 C418 1.389 . S
C420 C421 1.524 . S
C420 C434 1.377 . S
C421 C420 1.524 . S
C421 C422 1.397 . S
C421 C426 1.363 . S
C422 H399 0.950 . S
C422 C421 1.397 . S
C422 C423 1.334 . S
C423 H400 0.950 . S
C423 C422 1.334 . S
C423 C424 1.287 . S
C424 C423 1.287 . S
C424 C425 1.524 . S
C424 H443 0.913 . S
C425 H401 0.950 . S
C425 C424 1.524 . S
C425 C426 1.415 . S
C426 H402 0.950 . S
C426 C421 1.363 . S
C426 C425 1.415 . S
C427 H403 0.951 . S
C427 C428 1.366 . S
C427 C429 1.388 . S
C428 C427 1.366 . S
C428 C432 1.385 . S
C429 H404 0.951 . S
C429 C427 1.388 . S
C429 C430 1.366 . S
C430 C429 1.366 . S
C430 C431 1.414 . S
C430 C433 1.499 . S
C431 H405 0.950 . S
C431 C430 1.414 . S
C431 C432 1.374 . S
C432 H406 0.950 . S
C432 C428 1.385 . S
C432 C431 1.374 . S
C433 C430 1.499 . S
C433 C434 1.373 . S
C433 C435 1.389 . S
C434 H407 0.950 . S
C434 C420 1.377 . S
C434 C433 1.373 . S
C435 C419 1.377 . S
C435 C433 1.389 . S
C435 C436 1.524 . S
C436 C435 1.524 . S
C436 C437 1.397 . S
C436 C441 1.363 . S
C437 H408 0.950 . S
C437 C436 1.397 . S
C437 C438 1.334 . S
C438 H409 0.950 . S
C438 C437 1.334 . S
C438 C439 1.287 . S
C439 C438 1.287 . S
C439 C440 1.524 . S
C439 H442 0.999 . S
C440 H410 0.950 . S
C440 C439 1.524 . S
C440 C441 1.415 . S
C441 H411 0.950 . S
C441 C436 1.363 . S
C441 C440 1.415 . S
H442 C439 0.999 . S
H443 C424 0.913 . S
H444 C462 0.951 . S
H445 C464 0.951 . S
H446 C466 0.950 . S
H447 C467 0.950 . S
H448 C469 0.950 . S
H449 C472 0.950 . S
H450 C473 0.950 . S
H451 C475 0.950 . S
H452 C476 0.950 . S
H453 C477 0.951 . S
H454 C479 0.951 . S
H455 C481 0.950 . S
H456 C482 0.950 . S
H457 C484 0.950 . S
H458 C487 0.950 . S
H459 C488 0.950 1_545 S
H460 C490 0.950 . S
H461 C491 0.950 . S
C462 H444 0.951 . S
C462 C463 1.366 . S
C462 C464 1.388 . S
C463 C462 1.366 . S
C463 C467 1.385 . S
C464 H445 0.951 . S
C464 C462 1.388 . S
C464 C465 1.366 . S
C465 C464 1.366 . S
C465 C466 1.414 . S
C465 C468 1.499 . S
C466 H446 0.950 . S
C466 C465 1.414 . S
C466 C467 1.374 . S
C467 H447 0.950 . S
C467 C463 1.385 . S
C467 C466 1.374 . S
C468 C465 1.499 . S
C468 C469 1.373 . S
C468 C470 1.389 . S
C469 H448 0.950 . S
C469 C468 1.373 . S
C469 C485 1.377 . S
C470 C468 1.389 . S
C470 C471 1.524 . S
C470 C484 1.377 . S
C471 C470 1.524 . S
C471 C472 1.397 . S
C471 C476 1.363 . S
C472 H449 0.950 . S
C472 C471 1.397 . S
C472 C473 1.334 . S
C473 H450 0.950 . S
C473 C472 1.334 . S
C473 C474 1.287 . S
C474 C473 1.287 . S
C474 C475 1.524 . S
C474 H493 0.913 . S
C475 H451 0.950 . S
C475 C474 1.524 . S
C475 C476 1.415 . S
C476 H452 0.950 . S
C476 C471 1.363 . S
C476 C475 1.415 . S
C477 H453 0.951 . S
C477 C478 1.366 . S
C477 C479 1.388 . S
C478 C477 1.366 . S
C478 C482 1.385 . S
C479 H454 0.951 . S
C479 C477 1.388 . S
C479 C480 1.366 . S
C480 C479 1.366 . S
C480 C481 1.414 . S
C480 C483 1.499 . S
C481 H455 0.950 . S
C481 C480 1.414 . S
C481 C482 1.374 . S
C482 H456 0.950 . S
C482 C478 1.385 . S
C482 C481 1.374 . S
C483 C480 1.499 . S
C483 C484 1.373 . S
C483 C485 1.389 . S
C484 H457 0.950 . S
C484 C470 1.377 . S
C484 C483 1.373 . S
C485 C469 1.377 . S
C485 C483 1.389 . S
C485 C486 1.524 . S
C486 C485 1.524 . S
C486 C487 1.397 . S
C486 C491 1.363 . S
C487 H458 0.950 . S
C487 C486 1.397 . S
C487 C488 1.334 . S
C488 H459 0.950 1_565 S
C488 C487 1.334 . S
C488 C489 1.287 . S
C489 C488 1.287 . S
C489 C490 1.524 . S
C489 H492 0.999 1_565 S
C490 H460 0.950 . S
C490 C489 1.524 . S
C490 C491 1.415 . S
C491 H461 0.950 . S
C491 C486 1.363 . S
C491 C490 1.415 . S
H492 C489 0.999 1_545 S
H493 C474 0.913 . S
H494 C512 0.951 . S
H495 C514 0.951 . S
H496 C516 0.950 . S
H497 C517 0.950 . S
H498 C519 0.950 . S
H499 C522 0.950 . S
H500 C523 0.950 . S
H501 C525 0.950 . S
H502 C526 0.950 . S
H503 C527 0.951 . S
H504 C529 0.951 . S
H505 C531 0.950 . S
H506 C532 0.950 . S
H507 C534 0.950 . S
H508 C537 0.950 1_545 S
H509 C538 0.950 . S
H510 C540 0.950 . S
H511 C541 0.950 . S
C512 H494 0.951 . S
C512 C513 1.366 . S
C512 C514 1.388 . S
C513 C512 1.366 . S
C513 C517 1.385 1_545 S
C514 H495 0.951 . S
C514 C512 1.388 . S
C514 C515 1.366 . S
C515 C514 1.366 . S
C515 C516 1.414 1_545 S
C515 C518 1.499 . S
C516 H496 0.950 . S
C516 C515 1.414 1_565 S
C516 C517 1.374 . S
C517 H497 0.950 . S
C517 C513 1.385 1_565 S
C517 C516 1.374 . S
C518 C515 1.499 . S
C518 C519 1.373 1_545 S
C518 C520 1.389 . S
C519 H498 0.950 . S
C519 C518 1.373 1_565 S
C519 C535 1.377 . S
C520 C518 1.389 . S
C520 C521 1.524 . S
C520 C534 1.377 . S
C521 C520 1.524 . S
C521 C522 1.397 . S
C521 C526 1.363 . S
C522 H499 0.950 . S
C522 C521 1.397 . S
C522 C523 1.334 . S
C523 H500 0.950 . S
C523 C522 1.334 . S
C523 C524 1.287 . S
C524 C523 1.287 . S
C524 C525 1.524 . S
C524 H543 0.913 . S
C525 H501 0.950 . S
C525 C524 1.524 . S
C525 C526 1.415 . S
C526 H502 0.950 . S
C526 C521 1.363 . S
C526 C525 1.415 . S
C527 H503 0.951 . S
C527 C528 1.366 . S
C527 C529 1.388 . S
C528 C527 1.366 . S
C528 C532 1.385 1_565 S
C529 H504 0.951 . S
C529 C527 1.388 . S
C529 C530 1.367 1_565 S
C530 C529 1.367 1_545 S
C530 C531 1.413 . S
C530 C533 1.499 . S
C531 H505 0.950 . S
C531 C530 1.413 . S
C531 C532 1.374 . S
C532 H506 0.950 . S
C532 C528 1.385 1_545 S
C532 C531 1.374 . S
C533 C530 1.499 . S
C533 C534 1.373 . S
C533 C535 1.389 1_545 S
C534 H507 0.950 . S
C534 C520 1.377 . S
C534 C533 1.373 . S
C535 C519 1.377 . S
C535 C533 1.389 1_565 S
C535 C536 1.524 1_455 S
C536 C535 1.524 1_655 S
C536 C537 1.397 . S
C536 C541 1.363 . S
C537 H508 0.950 1_565 S
C537 C536 1.397 . S
C537 C538 1.334 . S
C538 H509 0.950 . S
C538 C537 1.334 . S
C538 C539 1.287 . S
C539 C538 1.287 . S
C539 C540 1.524 . S
C539 H542 0.999 . S
C540 H510 0.950 . S
C540 C539 1.524 . S
C540 C541 1.415 . S
C541 H511 0.950 . S
C541 C536 1.363 . S
C541 C540 1.415 . S
H542 C539 0.999 . S
H543 C524 0.913 . S
H544 C562 0.951 . S
H545 C564 0.951 . S
H546 C566 0.934 1_655 S
H547 C567 0.950 1_655 S
H548 C569 0.950 1_655 S
H549 C572 0.950 . S
H550 C573 0.950 . S
H551 C575 0.950 . S
H552 C576 0.950 . S
H553 C577 0.951 . S
H554 C579 0.951 . S
H555 C581 0.950 . S
H556 C582 0.950 . S
H557 C584 0.950 . S
H558 C587 0.950 1_455 S
H559 C588 0.950 . S
H560 C590 0.950 . S
H561 C591 0.950 1_545 S
C562 H544 0.951 . S
C562 C563 1.366 . S
C562 C564 1.388 . S
C563 C562 1.366 . S
C563 C567 1.385 . S
C564 H545 0.951 . S
C564 C562 1.388 . S
C564 C565 1.366 . S
C565 C564 1.366 . S
C565 C566 1.428 . S
C565 C568 1.499 . S
C566 H546 0.934 1_455 S
C566 C565 1.428 . S
C566 C567 1.376 . S
C567 H547 0.950 1_455 S
C567 C563 1.385 . S
C567 C566 1.376 . S
C568 C565 1.499 . S
C568 C569 1.373 . S
C568 C570 1.389 . S
C569 H548 0.950 1_455 S
C569 C568 1.373 . S
C569 C585 1.377 . S
C570 C568 1.389 . S
C570 C571 1.524 . S
C570 C584 1.377 . S
C571 C570 1.524 . S
C571 C572 1.397 . S
C571 C576 1.363 . S
C572 H549 0.950 . S
C572 C571 1.397 . S
C572 C573 1.334 . S
C573 H550 0.950 . S
C573 C572 1.334 . S
C573 C574 1.287 . S
C574 C573 1.287 . S
C574 C575 1.524 . S
C574 H593 0.913 . S
C575 H551 0.950 . S
C575 C574 1.524 . S
C575 C576 1.415 . S
C576 H552 0.950 . S
C576 C571 1.363 . S
C576 C575 1.415 . S
C577 H553 0.951 . S
C577 C578 1.366 1_655 S
C577 C579 1.388 . S
C578 C577 1.366 1_455 S
C578 C582 1.385 . S
C579 H554 0.951 . S
C579 C577 1.388 . S
C579 C580 1.366 1_655 S
C580 C579 1.366 1_455 S
C580 C581 1.414 . S
C580 C583 1.499 . S
C581 H555 0.950 . S
C581 C580 1.414 . S
C581 C582 1.374 . S
C582 H556 0.950 . S
C582 C578 1.385 . S
C582 C581 1.374 . S
C583 C580 1.499 . S
C583 C584 1.373 . S
C583 C585 1.389 . S
C584 H557 0.950 . S
C584 C570 1.377 . S
C584 C583 1.373 . S
C585 C569 1.377 . S
C585 C583 1.389 . S
C585 C586 1.524 1_455 S
C586 C585 1.524 1_655 S
C586 C587 1.397 1_545 S
C586 C591 1.363 1_545 S
C587 H558 0.950 1_655 S
C587 C586 1.397 1_565 S
C587 C588 1.334 . S
C588 H559 0.950 . S
C588 C587 1.334 . S
C588 C589 1.287 . S
C589 C588 1.287 . S
C589 C590 1.524 . S
C589 H592 0.999 . S
C590 H560 0.950 . S
C590 C589 1.524 . S
C590 C591 1.415 . S
C591 H561 0.950 1_565 S
C591 C586 1.363 1_565 S
C591 C590 1.415 . S
H592 C589 0.999 . S
H593 C574 0.913 . S
H594 C612 0.951 . S
H595 C614 0.951 . S
H596 C616 0.950 . S
H597 C617 0.950 . S
H598 C619 0.950 . S
H599 C622 0.950 . S
H600 C623 0.950 . S
H601 C625 0.950 . S
H602 C626 0.950 . S
H603 C627 0.951 . S
H604 C629 0.951 . S
H605 C631 0.950 . S
H606 C632 0.950 . S
H607 C634 0.950 . S
H608 C637 0.950 . S
H609 C638 0.950 . S
H610 C640 0.950 . S
H611 C641 0.950 . S
C612 H594 0.951 . S
C612 C613 1.366 . S
C612 C614 1.388 . S
C613 C612 1.366 . S
C613 C617 1.385 . S
C614 H595 0.951 . S
C614 C612 1.388 . S
C614 C615 1.366 . S
C615 C614 1.366 . S
C615 C616 1.414 . S
C615 C618 1.499 . S
C616 H596 0.950 . S
C616 C615 1.414 . S
C616 C617 1.374 . S
C617 H597 0.950 . S
C617 C613 1.385 . S
C617 C616 1.374 . S
C618 C615 1.499 . S
C618 C619 1.373 . S
C618 C620 1.389 . S
C619 H598 0.950 . S
C619 C618 1.373 . S
C619 C635 1.377 . S
C620 C618 1.389 . S
C620 C621 1.524 . S
C620 C634 1.377 . S
C621 C620 1.524 . S
C621 C622 1.397 . S
C621 C626 1.363 . S
C622 H599 0.950 . S
C622 C621 1.397 . S
C622 C623 1.334 . S
C623 H600 0.950 . S
C623 C622 1.334 . S
C623 C624 1.287 . S
C624 C623 1.287 . S
C624 C625 1.524 . S
C624 H643 0.913 . S
C625 H601 0.950 . S
C625 C624 1.524 . S
C625 C626 1.415 . S
C626 H602 0.950 . S
C626 C621 1.363 . S
C626 C625 1.415 . S
C627 H603 0.951 . S
C627 C628 1.366 . S
C627 C629 1.388 . S
C628 C627 1.366 . S
C628 C632 1.385 . S
C629 H604 0.951 . S
C629 C627 1.388 . S
C629 C630 1.366 . S
C630 C629 1.366 . S
C630 C631 1.414 . S
C630 C633 1.499 . S
C631 H605 0.950 . S
C631 C630 1.414 . S
C631 C632 1.374 . S
C632 H606 0.950 . S
C632 C628 1.385 . S
C632 C631 1.374 . S
C633 C630 1.499 . S
C633 C634 1.373 . S
C633 C635 1.389 . S
C634 H607 0.950 . S
C634 C620 1.377 . S
C634 C633 1.373 . S
C635 C619 1.377 . S
C635 C633 1.389 . S
C635 C636 1.524 . S
C636 C635 1.524 . S
C636 C637 1.397 . S
C636 C641 1.363 . S
C637 H608 0.950 . S
C637 C636 1.397 . S
C637 C638 1.334 . S
C638 H609 0.950 . S
C638 C637 1.334 . S
C638 C639 1.287 . S
C639 C638 1.287 . S
C639 C640 1.524 . S
C639 H642 0.999 . S
C640 H610 0.950 . S
C640 C639 1.524 . S
C640 C641 1.415 . S
C641 H611 0.950 . S
C641 C636 1.363 . S
C641 C640 1.415 . S
H642 C639 0.999 . S
H643 C624 0.913 . S
H644 C662 0.951 . S
H645 C664 0.951 . S
H646 C666 0.950 . S
H647 C667 0.950 . S
H648 C669 0.950 . S
H649 C672 0.950 . S
H650 C673 0.950 . S
H651 C675 0.950 . S
H652 C676 0.950 . S
H653 C677 0.951 . S
H654 C679 0.951 . S
H655 C681 0.950 . S
H656 C682 0.950 . S
H657 C684 0.950 . S
H658 C687 0.950 . S
H659 C688 0.950 . S
H660 C690 0.950 . S
H661 C691 0.950 . S
C662 H644 0.951 . S
C662 C663 1.366 . S
C662 C664 1.388 . S
C663 C662 1.366 . S
C663 C667 1.385 . S
C664 H645 0.951 . S
C664 C662 1.388 . S
C664 C665 1.366 . S
C665 C664 1.366 . S
C665 C666 1.414 . S
C665 C668 1.499 . S
C666 H646 0.950 . S
C666 C665 1.414 . S
C666 C667 1.374 . S
C667 H647 0.950 . S
C667 C663 1.385 . S
C667 C666 1.374 . S
C668 C665 1.499 . S
C668 C669 1.373 . S
C668 C670 1.389 . S
C669 H648 0.950 . S
C669 C668 1.373 . S
C669 C685 1.377 . S
C670 C668 1.389 . S
C670 C671 1.524 . S
C670 C684 1.377 . S
C671 C670 1.524 . S
C671 C672 1.397 . S
C671 C676 1.363 . S
C672 H649 0.950 . S
C672 C671 1.397 . S
C672 C673 1.334 . S
C673 H650 0.950 . S
C673 C672 1.334 . S
C673 C674 1.287 . S
C674 C673 1.287 . S
C674 C675 1.524 . S
C674 H693 0.913 . S
C675 H651 0.950 . S
C675 C674 1.524 . S
C675 C676 1.415 . S
C676 H652 0.950 . S
C676 C671 1.363 . S
C676 C675 1.415 . S
C677 H653 0.951 . S
C677 C678 1.366 . S
C677 C679 1.388 . S
C678 C677 1.366 . S
C678 C682 1.385 . S
C679 H654 0.951 . S
C679 C677 1.388 . S
C679 C680 1.366 . S
C680 C679 1.366 . S
C680 C681 1.414 . S
C680 C683 1.499 . S
C681 H655 0.950 . S
C681 C680 1.414 . S
C681 C682 1.374 . S
C682 H656 0.950 . S
C682 C678 1.385 . S
C682 C681 1.374 . S
C683 C680 1.499 . S
C683 C684 1.373 . S
C683 C685 1.389 . S
C684 H657 0.950 . S
C684 C670 1.377 . S
C684 C683 1.373 . S
C685 C669 1.377 . S
C685 C683 1.389 . S
C685 C686 1.524 . S
C686 C685 1.524 . S
C686 C687 1.397 . S
C686 C691 1.363 . S
C687 H658 0.950 . S
C687 C686 1.397 . S
C687 C688 1.334 . S
C688 H659 0.950 . S
C688 C687 1.334 . S
C688 C689 1.287 . S
C689 C688 1.287 . S
C689 C690 1.524 . S
C689 H692 0.999 . S
C690 H660 0.950 . S
C690 C689 1.524 . S
C690 C691 1.415 . S
C691 H661 0.950 . S
C691 C686 1.363 . S
C691 C690 1.415 . S
H692 C689 0.999 . S
H693 C674 0.913 . S
C128 N83 1.314 . S
C113 C15 1.148 . S
C163 C13 1.372 . S
C178 N70 1.365 . S
C213 C18 1.333 . S
C228 N82 1.547 . S
C263 C17 1.402 . S
C278 N69 1.470 . S
C313 C36 1.146 . S
C328 N57 1.315 . S
C363 C34 1.372 . S
C378 N44 1.365 1_655 S
C428 N56 1.547 . S
C413 C39 1.333 . S
C478 N43 1.470 . S
C463 C38 1.403 . S
C513 C14 1.562 . S
C528 N47 1.594 1_565 S
C563 C16 1.400 . S
C578 N60 1.435 . S
C628 N73 1.594 . S
C613 C35 1.561 . S
C663 C37 1.401 . S
C678 N86 1.435 . S
