# Generated by pormake.
# Topology sit, (3,6)-cn, num edge types: 1
# Building blocks:
#     Node 0, Type 0, BuildingBlock: BETDIP_clean_linker_0, # of connection points: 3
#     Node 1, Type 0, BuildingBlock: BETDIP_clean_linker_0, # of connection points: 3
#     Node 2, Type 0, BuildingBlock: BETDIP_clean_linker_0, # of connection points: 3
#     Node 3, Type 0, BuildingBlock: BETDIP_clean_linker_0, # of connection points: 3
#     Node 4, Type 1, BuildingBlock: MIDCAF_clean_sbu_0, # of connection points: 6
#     Node 5, Type 1, BuildingBlock: MIDCAF_clean_sbu_0, # of connection points: 6
#     Edge 6, Type (0, 1), BuildingBlock: ZUJKAS_clean_linker_0, # of connection points: 2
#     Edge 7, Type (0, 1), BuildingBlock: ZUJKAS_clean_linker_0, # of connection points: 2
#     Edge 8, Type (0, 1), BuildingBlock: ZUJKAS_clean_linker_0, # of connection points: 2
#     Edge 9, Type (0, 1), BuildingBlock: ZUJKAS_clean_linker_0, # of connection points: 2
#     Edge 10, Type (0, 1), BuildingBlock: ZUJKAS_clean_linker_0, # of connection points: 2
#     Edge 11, Type (0, 1), BuildingBlock: ZUJKAS_clean_linker_0, # of connection points: 2
#     Edge 12, Type (0, 1), BuildingBlock: ZUJKAS_clean_linker_0, # of connection points: 2
#     Edge 13, Type (0, 1), BuildingBlock: ZUJKAS_clean_linker_0, # of connection points: 2
#     Edge 14, Type (0, 1), BuildingBlock: ZUJKAS_clean_linker_0, # of connection points: 2
#     Edge 15, Type (0, 1), BuildingBlock: ZUJKAS_clean_linker_0, # of connection points: 2
#     Edge 16, Type (0, 1), BuildingBlock: ZUJKAS_clean_linker_0, # of connection points: 2
#     Edge 17, Type (0, 1), BuildingBlock: ZUJKAS_clean_linker_0, # of connection points: 2
# Relax obj value: 0.072
# Max RMSD: 0.180
# Mean RMSD: 0.113
data_MOF--net-sit--node1-MIDCAF_clean_sbu_0--node2-BETDIP_clean_linker_0--edge1-ZUJKAS_clean_linker_0
_symmetry_space_group_name_H-M    P1
_symmetry_Int_Tables_number       1
_symmetry_cell_setting            triclinic
loop_
_symmetry_equiv_pos_as_xyz
'x, y, z'
_cell_length_a     27.586618
_cell_length_b     42.742414
_cell_length_c     48.389728
_cell_angle_alpha  89.788329
_cell_angle_beta   87.542755
_cell_angle_gamma 84.069991
loop_
_atom_site_label
_atom_site_type_symbol
_atom_site_fract_x
_atom_site_fract_y
_atom_site_fract_z
_atom_type_partial_charge
H0 H 0.00949 0.31365 0.0511 0.0
H1 H 0.15886 0.32876 0.06376 0.0
H2 H 0.06855 0.39416 0.01538 0.0
H3 H 0.16726 0.27645 0.073 0.0
C4 C 0.13196 0.27014 0.08056 0.0
C5 C 0.03972 0.32774 0.04783 0.0
C6 C 0.03347 0.35565 0.03255 0.0
C7 C 0.08484 0.31751 0.05876 0.0
C8 C 0.1242 0.33596 0.05484 0.0
C9 C 0.11834 0.36423 0.03964 0.0
C10 C 0.0729 0.37351 0.02846 0.0
N11 N 0.08838 0.28877 0.07378 0.0
H12 H 0.92755 0.71861 0.06363 0.0
H13 H 0.07816 0.73287 0.04712 0.0
H14 H 0.02245 0.65076 0.01587 0.0
H15 H 0.04297 0.78478 0.04549 0.0
C16 C 0.01986 0.78491 0.06426 0.0
C17 C 0.96306 0.71053 0.05437 0.0
C18 C 0.97028 0.68166 0.04006 0.0
C19 C 0.0013 0.72961 0.05623 0.0
C20 C 0.04789 0.719 0.04481 0.0
C21 C 0.05589 0.69008 0.03088 0.0
C22 C 0.01682 0.67198 0.02827 0.0
N23 N -0.00765 0.75909 0.07007 0.0
H24 H 0.48641 0.83135 0.5559 0.0
H25 H 0.63807 0.80133 0.5368 0.0
H26 H 0.57384 0.89031 0.50703 0.0
H27 H 0.60474 0.75206 0.53832 0.0
C28 C 0.58267 0.75538 0.55743 0.0
C29 C 0.52123 0.83573 0.54623 0.0
C30 C 0.52554 0.86375 0.53151 0.0
C31 C 0.5614 0.81295 0.54804 0.0
C32 C 0.60662 0.81855 0.53532 0.0
C33 C 0.61112 0.84645 0.52041 0.0
C34 C 0.57058 0.86892 0.5188 0.0
N35 N 0.55531 0.78488 0.56307 0.0
H36 H 0.45989 0.25216 0.5276 0.0
H37 H 0.61342 0.22644 0.53812 0.0
H38 H 0.53265 0.16942 0.48803 0.0
H39 H 0.6133 0.27903 0.54486 0.0
C40 C 0.57876 0.28621 0.55578 0.0
C41 C 0.49271 0.23637 0.52342 0.0
C42 C 0.49126 0.21012 0.50627 0.0
C43 C 0.53682 0.24307 0.53438 0.0
C44 C 0.57937 0.22225 0.52921 0.0
C45 C 0.57797 0.19579 0.51225 0.0
C46 C 0.53394 0.19007 0.50085 0.0
N47 N 0.53681 0.27071 0.55066 0.0
Zn48 Zn 0.02092 0.07684 0.3432 0.0
Zn49 Zn 0.10869 0.96079 0.34437 0.0
Zn50 Zn 0.06562 0.01916 0.3453 0.0
C51 C 0.09464 0.97697 0.28976 0.0
C52 C 0.01736 0.96031 0.37279 0.0
O53 O 0.11306 0.04899 0.36605 0.0
O54 O 0.07014 0.0957 0.36535 0.0
C55 C 0.04585 0.06069 0.28902 0.0
O56 O 0.07531 1.00247 0.30169 0.0
O57 O 0.11407 0.95461 0.30393 0.0
O58 O 0.0553 0.94234 0.3661 0.0
O59 O 0.0145 0.98975 0.36648 0.0
O60 O 0.02322 0.08299 0.30283 0.0
O61 O 0.06326 0.03542 0.30136 0.0
O62 O -0.00571 0.02155 0.36891 0.0
O63 O 0.95851 0.06953 0.36187 0.0
C64 C 0.95784 0.04273 0.37276 0.0
O65 O 0.13328 1.01733 0.3691 0.0
O66 O 0.1674 0.96844 0.3638 0.0
C67 C 0.1078 0.07849 0.37213 0.0
C68 C 0.16797 0.9956 0.37379 0.0
Zn69 Zn 0.57975 0.58298 0.84433 0.0
Zn70 Zn 0.54103 0.46293 0.84264 0.0
Zn71 Zn 0.56101 0.5229 0.84296 0.0
C72 C 0.55029 0.48222 0.78759 0.0
C73 C 0.46536 0.49564 0.87271 0.0
O74 O 0.62663 0.52654 0.86729 0.0
O75 O 0.63936 0.57686 0.8655 0.0
C76 C 0.57959 0.56592 0.78863 0.0
O77 O 0.56054 0.5078 0.79901 0.0
O78 O 0.53938 0.45922 0.80215 0.0
O79 O 0.47847 0.46816 0.86408 0.0
O80 O 0.49113 0.51841 0.8666 0.0
O81 O 0.58687 0.58861 0.804 0.0
O82 O 0.56878 0.53968 0.79933 0.0
O83 O 0.4986 0.55034 0.86424 0.0
O84 O 0.5181 0.59932 0.86478 0.0
C85 C 0.48844 0.57951 0.87093 0.0
O86 O 0.61997 0.49459 0.86386 0.0
O87 O 0.59995 0.44578 0.86233 0.0
C88 C 0.65124 0.54926 0.87382 0.0
C89 C 0.62882 0.46509 0.86945 0.0
H90 H 0.20707 0.22703 0.09389 0.0
H91 H 0.20271 0.17828 0.12058 0.0
H92 H 0.04639 0.19836 0.1298 0.0
H93 H 0.05039 0.2464 0.10297 0.0
H94 H 0.17032 0.17264 0.17344 0.0
H95 H 0.05791 0.10711 0.10731 0.0
H96 H 0.08685 0.14082 0.09492 0.0
H97 H 0.02913 0.146 0.11411 0.0
C98 C 0.1718 0.22078 0.10141 0.0
C99 C 0.12915 0.24047 0.09626 0.0
C100 C 0.16932 0.19293 0.11656 0.0
C101 C 0.1241 0.18423 0.12665 0.0
C102 C 0.08154 0.20398 0.1215 0.0
H103 H -0.01135 0.09566 0.25396 0.0
H104 H 0.01437 0.11724 0.20964 0.0
C105 C 0.08397 0.2317 0.10637 0.0
C106 C 0.1212 0.1562 0.14469 0.0
H107 H 0.05559 0.09349 0.15623 0.0
C108 C 0.1463 0.1548 0.16936 0.0
C109 C 0.09013 0.13277 0.13926 0.0
C110 C 0.06492 0.13155 0.11229 0.0
C111 C 0.13802 0.13224 0.18973 0.0
C112 C 0.10413 0.11028 0.18514 0.0
C113 C 0.08151 0.11035 0.15972 0.0
C114 C 0.08586 0.09108 0.20816 0.0
C115 C 0.1628 0.13357 0.21686 0.0
C116 C 0.11652 0.06776 0.22123 0.0
C117 C 0.10167 0.05515 0.24665 0.0
C118 C 0.05619 0.06597 0.25926 0.0
C119 C 0.02404 0.08708 0.24479 0.0
C120 C 0.03867 0.0994 0.21944 0.0
H121 H 0.18405 0.15419 0.21815 0.0
H122 H 0.13539 0.13466 0.23441 0.0
H123 H 0.18814 0.11192 0.2193 0.0
H124 H 0.15292 0.06077 0.21266 0.0
H125 H 0.12724 0.03901 0.25741 0.0
H126 H 0.07585 0.83318 0.06026 0.0
H127 H 0.08356 0.87416 0.09462 0.0
H128 H 0.97165 0.83757 0.14658 0.0
H129 H 0.96453 0.79615 0.11258 0.0
H130 H 0.01912 0.9218 0.1208 0.0
H131 H 0.0905 0.83031 0.19474 0.0
H132 H 0.08324 0.82189 0.15876 0.0
H133 H 0.03124 0.82506 0.18268 0.0
C134 C 0.0526 0.8341 0.07892 0.0
C135 C 0.02016 0.81126 0.08396 0.0
C136 C 0.05687 0.85758 0.09845 0.0
C137 C 0.02872 0.85861 0.12332 0.0
C138 C -0.00567 0.83684 0.12772 0.0
H139 H 0.01623 0.99391 0.25834 0.0
H140 H 0.00036 0.9699 0.21409 0.0
C141 C -0.00973 0.81321 0.10827 0.0
C142 C 0.03832 0.88072 0.14552 0.0
H143 H 0.07872 0.88246 0.21104 0.0
C144 C 0.03213 0.9133 0.14057 0.0
C145 C 0.05603 0.86951 0.1711 0.0
C146 C 0.06613 0.8348 0.17715 0.0
C147 C 0.04292 0.93498 0.1607 0.0
C148 C 0.05983 0.92368 0.18642 0.0
C149 C 0.06584 0.89112 0.19127 0.0
C150 C 0.07235 0.9446 0.20889 0.0
C151 C 0.03715 0.96963 0.15411 0.0
C152 C 0.11857 0.93939 0.22012 0.0
C153 C 0.12729 0.95258 0.24549 0.0
C154 C 0.09017 0.97158 0.25996 0.0
C155 C 0.04556 0.97954 0.24743 0.0
C156 C 0.03649 0.96584 0.22213 0.0
H157 H 0.03607 0.97392 0.13147 0.0
H158 H 0.00239 0.98052 0.1639 0.0
H159 H 0.06739 0.98153 0.1624 0.0
H160 H 0.14685 0.92324 0.2102 0.0
H161 H 0.16206 0.9462 0.2547 0.0
H162 H 0.61159 0.69387 0.54633 0.0
H163 H 0.60528 0.64853 0.57706 0.0
H164 H 0.53941 0.71067 0.6414 0.0
H165 H 0.54371 0.75556 0.61047 0.0
H166 H 0.64663 0.63398 0.62246 0.0
H167 H 0.44935 0.64432 0.64735 0.0
H168 H 0.47525 0.66651 0.61963 0.0
H169 H 0.47185 0.68107 0.65471 0.0
C170 C 0.59512 0.69766 0.56694 0.0
C171 C 0.57774 0.72813 0.57594 0.0
C172 C 0.5915 0.67178 0.58446 0.0
C173 C 0.57073 0.67595 0.6114 0.0
C174 C 0.55384 0.70654 0.62043 0.0
H175 H 0.6425 0.60042 0.76144 0.0
H176 H 0.64086 0.61782 0.71369 0.0
C177 C 0.55678 0.73231 0.60279 0.0
C178 C 0.57037 0.64899 0.63098 0.0
H179 H 0.50096 0.61933 0.68289 0.0
C180 C 0.6144 0.63031 0.6352 0.0
C181 C 0.52815 0.64314 0.64709 0.0
C182 C 0.47843 0.65962 0.64168 0.0
C183 C 0.61834 0.6082 0.65673 0.0
C184 C 0.57769 0.60544 0.6751 0.0
C185 C 0.53254 0.62183 0.66923 0.0
C186 C 0.58303 0.5902 0.70262 0.0
C187 C 0.66658 0.58878 0.66008 0.0
C188 C 0.55088 0.56883 0.71263 0.0
C189 C 0.55139 0.55906 0.74038 0.0
C190 C 0.58383 0.57072 0.75841 0.0
C191 C 0.61721 0.59094 0.74798 0.0
C192 C 0.61668 0.60065 0.72051 0.0
H193 H 0.68527 0.58334 0.63961 0.0
H194 H 0.69067 0.60245 0.67201 0.0
H195 H 0.66202 0.56636 0.67109 0.0
H196 H 0.52417 0.56074 0.69931 0.0
H197 H 0.52453 0.54406 0.74806 0.0
H198 H 0.65217 0.32006 0.56964 0.0
H199 H 0.64908 0.36235 0.60414 0.0
H200 H 0.4956 0.35525 0.61991 0.0
H201 H 0.49843 0.313 0.5858 0.0
H202 H 0.58601 0.42304 0.61083 0.0
H203 H 0.56176 0.33669 0.69511 0.0
H204 H 0.58321 0.32497 0.66055 0.0
H205 H 0.51936 0.33597 0.66802 0.0
C206 C 0.61773 0.32775 0.58036 0.0
C207 C 0.57573 0.31303 0.57528 0.0
C208 C 0.61599 0.35196 0.5999 0.0
C209 C 0.57222 0.3617 0.61467 0.0
C210 C 0.52982 0.34784 0.60886 0.0
H211 H 0.47581 0.46757 0.75793 0.0
H212 H 0.48205 0.44459 0.71164 0.0
C213 C 0.53154 0.32366 0.58939 0.0
C214 C 0.57132 0.38452 0.63769 0.0
H215 H 0.55118 0.39046 0.70754 0.0
C216 C 0.57867 0.41601 0.63203 0.0
C217 C 0.56233 0.3751 0.66529 0.0
C218 C 0.55665 0.3413 0.67276 0.0
C219 C 0.57525 0.43863 0.65333 0.0
C220 C 0.56464 0.42927 0.68077 0.0
C221 C 0.55874 0.39762 0.68639 0.0
C222 C 0.5581 0.45152 0.70435 0.0
C223 C 0.58159 0.47242 0.64642 0.0
C224 C 0.59814 0.46468 0.71494 0.0
C225 C 0.59435 0.4783 0.74138 0.0
C226 C 0.55071 0.47845 0.75743 0.0
C227 C 0.50972 0.46781 0.74579 0.0
C228 C 0.5133 0.45463 0.71941 0.0
H229 H 0.58201 0.47678 0.62377 0.0
H230 H 0.55183 0.48836 0.65661 0.0
H231 H 0.61661 0.47845 0.65437 0.0
H232 H 0.63322 0.46213 0.7038 0.0
H233 H 0.62654 0.48604 0.75019 0.0
H234 H 0.11569 0.42849 0.03704 0.0
H235 H 0.17587 0.45848 0.01392 0.0
H236 H 0.27685 0.37455 0.00705 0.0
H237 H 0.21494 0.34369 0.02776 0.0
H238 H 0.26342 0.47455 0.0167 0.0
H239 H 0.26115 0.39383 0.92753 0.0
H240 H 0.22093 0.39165 0.95758 0.0
H241 H 0.283 0.37366 0.95777 0.0
C242 C 0.15071 0.4163 0.03059 0.0
C243 C 0.15962 0.38338 0.03318 0.0
C244 C 0.18537 0.43363 0.01765 0.0
C245 C 0.23018 0.41856 0.00763 0.0
C246 C 0.24169 0.38646 0.01354 0.0
H247 H 0.46853 0.5053 0.92762 0.0
H248 H 0.40629 0.49279 0.96223 0.0
C249 C 0.20646 0.36888 0.02582 0.0
C250 C 0.26207 0.43565 0.98859 0.0
H251 H 0.31778 0.43143 0.92429 0.0
C252 C 0.27524 0.4652 0.99644 0.0
C253 C 0.27611 0.42405 0.96173 0.0
C254 C 0.25912 0.39426 0.95051 0.0
C255 C 0.30268 0.48311 0.97835 0.0
C256 C 0.31894 0.47058 0.95214 0.0
C257 C 0.30542 0.44118 0.94434 0.0
C258 C 0.35152 0.4864 0.9325 0.0
C259 C 0.31265 0.51555 0.98722 0.0
C260 C 0.3413 0.48801 0.90426 0.0
C261 C 0.37748 0.49405 0.88449 0.0
C262 C 0.42382 0.49974 0.89271 0.0
C263 C 0.43257 0.50154 0.92096 0.0
C264 C 0.39685 0.49451 0.94076 0.0
H265 H 0.28411 0.52587 0.00239 0.0
H266 H 0.34808 0.51399 -0.00258 0.0
H267 H 0.3144 0.53171 0.96927 0.0
H268 H 0.30656 0.48206 0.89733 0.0
H269 H 0.37031 0.49226 0.86274 0.0
H270 H 0.87481 0.70249 0.03029 0.0
H271 H 0.81356 0.67188 0.01213 0.0
H272 H 0.91346 0.58756 0.01679 0.0
H273 H 0.97257 0.61732 0.03772 0.0
H274 H 0.82389 0.64827 0.96511 0.0
H275 H 0.79358 0.54896 0.03422 0.0
H276 H 0.82448 0.58162 0.04532 0.0
H277 H 0.85764 0.54908 0.02668 0.0
C278 C 0.88298 0.67722 0.02873 0.0
C279 C 0.92924 0.66257 0.03491 0.0
C280 C 0.84798 0.65971 0.01803 0.0
C281 C 0.85872 0.6273 0.01284 0.0
C282 C 0.90352 0.61231 0.02094 0.0
H283 H 0.74819 0.5534 0.86582 0.0
H284 H 0.80312 0.56564 0.90184 0.0
C285 C 0.93791 0.62961 0.0324 0.0
C286 C 0.82712 0.61058 0.99495 0.0
H287 H 0.7788 0.541 0.98558 0.0
C288 C 0.81344 0.62503 0.96996 0.0
C289 C 0.813 0.58025 0.00107 0.0
C290 C 0.82255 0.56432 0.02845 0.0
C291 C 0.78712 0.61002 0.95081 0.0
C292 C 0.77632 0.57877 0.95593 0.0
C293 C 0.78852 0.56453 0.98125 0.0
C294 C 0.75003 0.56162 0.93563 0.0
C295 C 0.77036 0.62826 0.92553 0.0
C296 C 0.70425 0.55174 0.94302 0.0
C297 C 0.67375 0.54339 0.92251 0.0
C298 C 0.68859 0.54523 0.89451 0.0
C299 C 0.73623 0.55177 0.88736 0.0
C300 C 0.76725 0.55915 0.90788 0.0
H301 H 0.76869 0.65406 0.92892 0.0
H302 H 0.79665 0.6222 0.90789 0.0
H303 H 0.73372 0.62263 0.91975 0.0
H304 H 0.6904 0.55312 0.96432 0.0
H305 H 0.63683 0.53869 0.92837 0.0
H306 H -0.01513 0.41454 0.03207 0.0
H307 H 0.91367 0.4327 0.00569 0.0
H308 H 0.90573 0.33807 0.97689 0.0
H309 H 0.97767 0.3198 0.00286 0.0
H310 H 0.90555 0.38435 0.93456 0.0
H311 H 0.7688 0.41907 0.01942 0.0
H312 H 0.82606 0.4352 0.022 0.0
H313 H 0.82383 0.39344 0.02485 0.0
C314 C 0.96763 0.39756 0.02033 0.0
C315 C -0.01319 0.36577 0.01947 0.0
C316 C 0.9268 0.40792 0.00544 0.0
C317 C 0.9043 0.38667 0.98955 0.0
C318 C 0.92254 0.35477 0.98918 0.0
H319 H 0.63366 0.41696 0.90615 0.0
H320 H 0.70177 0.39844 0.93474 0.0
C321 C 0.96334 0.34434 0.00416 0.0
C322 C 0.86371 0.39813 0.97193 0.0
H323 H 0.74758 0.43459 0.97394 0.0
C324 C 0.87091 0.39524 0.94313 0.0
C325 C 0.81867 0.41224 0.98326 0.0
C326 C 0.80852 0.41499 0.01408 0.0
C327 C 0.83425 0.40635 0.92527 0.0
C328 C 0.78954 0.42096 0.93658 0.0
C329 C 0.78217 0.42362 0.96538 0.0
C330 C 0.74901 0.43232 0.91891 0.0
C331 C 0.84326 0.40191 0.89449 0.0
C332 C 0.7532 0.45748 0.90052 0.0
C333 C 0.71438 0.46797 0.88401 0.0
C334 C 0.67076 0.4537 0.88595 0.0
C335 C 0.66693 0.42837 0.90423 0.0
C336 C 0.70562 0.41789 0.92067 0.0
H337 H 0.8755 0.38477 0.88951 0.0
H338 H 0.8109 0.39368 0.88499 0.0
H339 H 0.84993 0.42479 0.8849 0.0
H340 H 0.78636 0.46903 0.89901 0.0
H341 H 0.71867 0.48691 0.86951 0.0
H342 H 0.11811 0.72422 0.00056 0.0
H343 H 0.19334 0.70414 0.97493 0.0
H344 H 0.17681 0.6106 0.00513 0.0
H345 H 0.10271 0.63064 0.03157 0.0
H346 H 0.27176 0.62464 0.00525 0.0
H347 H 0.19139 0.6531 0.90386 0.0
H348 H 0.18972 0.68637 0.92655 0.0
H349 H 0.15516 0.65418 0.93585 0.0
C350 C 0.13102 0.6995 0.00215 0.0
C351 C 0.10421 0.67893 0.01782 0.0
C352 C 0.17363 0.68799 0.98723 0.0
C353 C 0.18988 0.65576 0.98762 0.0
C354 C 0.16455 0.63549 0.00432 0.0
H355 H 0.39847 0.55881 0.86766 0.0
H356 H 0.3254 0.57445 0.89722 0.0
C357 C 0.12212 0.64695 0.01928 0.0
C358 C 0.23259 0.64293 0.97013 0.0
H359 H 0.27625 0.63605 0.9031 0.0
C360 C 0.27273 0.62705 0.98292 0.0
C361 C 0.23322 0.64545 0.94094 0.0
C362 C 0.1899 0.66041 0.92592 0.0
C363 C 0.31418 0.61449 0.96732 0.0
C364 C 0.31568 0.6184 0.93829 0.0
C365 C 0.27504 0.63341 0.92542 0.0
C366 C 0.35982 0.60814 0.92099 0.0
C367 C 0.35596 0.59704 0.98199 0.0
C368 C 0.40288 0.62221 0.9244 0.0
C369 C 0.44447 0.61311 0.90779 0.0
C370 C 0.44369 0.58973 0.88756 0.0
C371 C 0.40028 0.57613 0.88374 0.0
C372 C 0.35857 0.58526 0.90037 0.0
H373 H 0.34389 0.58836 0.00257 0.0
H374 H 0.37299 0.57673 0.96953 0.0
H375 H 0.38422 0.61321 0.98521 0.0
H376 H 0.40421 0.64037 0.93983 0.0
H377 H 0.47748 0.62406 0.91105 0.0
H378 H 0.62413 0.86202 0.46639 0.0
H379 H 0.69828 0.87751 0.44287 0.0
H380 H 0.77626 0.86071 0.51772 0.0
H381 H 0.70184 0.84491 0.54143 0.0
H382 H 0.77761 0.92454 0.48886 0.0
H383 H 0.83071 0.82034 0.42149 0.0
H384 H 0.76709 0.83503 0.42305 0.0
H385 H 0.79454 0.81818 0.45337 0.0
C386 C 0.65727 0.86128 0.47772 0.0
C387 C 0.65743 0.85234 0.50569 0.0
C388 C 0.69951 0.87002 0.46426 0.0
C389 C 0.74258 0.87013 0.47858 0.0
C390 C 0.74327 0.86061 0.50637 0.0
H391 H 0.02502 0.91191 0.40943 0.0
H392 H 0.95914 0.89002 0.43622 0.0
C393 C 0.701 0.85148 0.5198 0.0
C394 C 0.78581 0.88197 0.46471 0.0
H395 H 0.87098 0.86593 0.41206 0.0
C396 C 0.79836 0.91168 0.47222 0.0
C397 C 0.81262 0.86503 0.44308 0.0
C398 C 0.80098 0.83275 0.43477 0.0
C399 C 0.83643 0.92527 0.45808 0.0
C400 C 0.86231 0.90869 0.43593 0.0
C401 C 0.85066 0.87862 0.42893 0.0
C402 C 0.90181 0.92219 0.41981 0.0
C403 C 0.84902 0.95717 0.46682 0.0
C404 C 0.89106 0.94714 0.4014 0.0
C405 C 0.92856 0.95942 0.38581 0.0
C406 C 0.9773 0.94725 0.38875 0.0
C407 C -0.01223 0.92192 0.4069 0.0
C408 C 0.95029 0.90946 0.42226 0.0
H409 H 0.82889 0.96554 0.48622 0.0
H410 H 0.88881 0.95645 0.4698 0.0
H411 H 0.8399 0.97447 0.45024 0.0
H412 H 0.85366 0.95685 0.39886 0.0
H413 H 0.91936 0.97798 0.37111 0.0
H414 H 0.40246 0.2041 0.53203 0.0
H415 H 0.33138 0.18448 0.51137 0.0
H416 H 0.40769 0.17989 0.43158 0.0
H417 H 0.4784 0.19941 0.45202 0.0
H418 H 0.30468 0.20636 0.4328 0.0
H419 H 0.33898 0.08977 0.48418 0.0
H420 H 0.33557 0.12419 0.5058 0.0
H421 H 0.38501 0.11682 0.48062 0.0
C422 C 0.4035 0.19946 0.51001 0.0
C423 C 0.4458 0.20304 0.49359 0.0
C424 C 0.36322 0.18805 0.49831 0.0
C425 C 0.36477 0.18038 0.47007 0.0
C426 C 0.406 0.18554 0.45344 0.0
H427 H 0.20651 0.06266 0.36984 0.0
H428 H 0.2678 0.08733 0.39515 0.0
C429 C 0.44627 0.19664 0.46511 0.0
C430 C 0.32456 0.16567 0.45777 0.0
H431 H 0.27288 0.09658 0.45473 0.0
C432 C 0.29732 0.18248 0.43775 0.0
C433 C 0.31588 0.13433 0.46399 0.0
C434 C 0.34548 0.11499 0.48468 0.0
C435 C 0.26146 0.16872 0.4237 0.0
C436 C 0.25255 0.13744 0.43004 0.0
C437 C 0.27977 0.12062 0.45008 0.0
C438 C 0.21548 0.1217 0.41575 0.0
C439 C 0.23425 0.18741 0.40166 0.0
C440 C 0.16594 0.13259 0.41935 0.0
C441 C 0.13102 0.11833 0.40523 0.0
C442 C 0.14505 0.09276 0.38745 0.0
C443 C 0.19467 0.0818 0.38394 0.0
C444 C 0.22964 0.09599 0.3982 0.0
H445 H 0.25247 0.20844 0.39523 0.0
H446 H 0.23094 0.17263 0.38315 0.0
H447 H 0.19689 0.19554 0.40983 0.0
H448 H 0.15431 0.15217 0.43306 0.0
H449 H 0.09297 0.12724 0.40832 0.0
H450 H 0.43922 0.85182 0.51103 0.0
H451 H 0.37562 0.89032 0.49413 0.0
H452 H 0.4511 0.96578 0.52478 0.0
H453 H 0.51599 0.92716 0.5407 0.0
H454 H 0.31227 0.9372 0.51448 0.0
H455 H 0.45004 0.98665 0.44406 0.0
H456 H 0.46452 0.95157 0.46405 0.0
H457 H 0.45952 0.98958 0.48037 0.0
C458 C 0.44163 0.87659 0.5147 0.0
C459 C 0.48259 0.8866 0.52689 0.0
C460 C 0.40537 0.89861 0.50499 0.0
C461 C 0.40919 0.93102 0.50754 0.0
C462 C 0.4481 0.94098 0.52183 0.0
H463 H 0.16072 0.02967 0.42202 0.0
H464 H 0.22052 0.02592 0.45848 0.0
C465 C 0.48487 0.91894 0.53111 0.0
C466 C 0.37458 0.95372 0.49303 0.0
H467 H 0.36827 1.00346 0.43758 0.0
C468 C 0.32438 0.95219 0.49799 0.0
C469 C 0.39059 0.97336 0.47156 0.0
C470 C 0.44404 0.97535 0.46446 0.0
C471 C 0.28994 0.96759 0.48068 0.0
C472 C 0.30618 0.98581 0.45827 0.0
C473 C 0.35601 0.98958 0.45484 0.0
C474 C 0.27427 0.99501 0.43505 0.0
C475 C 0.23703 0.96196 0.48515 0.0
C476 C 0.28618 0.98092 0.40916 0.0
C477 C 0.25276 0.98355 0.38833 0.0
C478 C 0.20673 1.00039 0.39289 0.0
C479 C 0.19617 1.01673 0.41795 0.0
C480 C 0.23 1.01426 0.43887 0.0
H481 H 0.2317 0.94394 0.50129 0.0
H482 H 0.21542 0.98421 0.49176 0.0
H483 H 0.22229 0.95414 0.46562 0.0
H484 H 0.32013 0.96605 0.40564 0.0
H485 H 0.26181 0.97078 0.36919 0.0
H486 H 0.64104 0.16517 0.54817 0.0
H487 H 0.70752 0.12367 0.53653 0.0
H488 H 0.67912 0.13559 0.44994 0.0
H489 H 0.613 0.17647 0.46141 0.0
H490 H 0.68427 0.07179 0.46918 0.0
H491 H 0.84308 0.13341 0.4989 0.0
H492 H 0.79325 0.13077 0.52378 0.0
H493 H 0.78429 0.15477 0.49358 0.0
C494 C 0.64975 0.15918 0.52667 0.0
C495 C 0.622 0.17387 0.50565 0.0
C496 C 0.68744 0.13546 0.52007 0.0
C497 C 0.69797 0.1265 0.49238 0.0
C498 C 0.6712 0.14193 0.47144 0.0
H499 H 0.86219 0.0577 0.36466 0.0
H500 H 0.7973 0.06511 0.40048 0.0
C501 C 0.63364 0.16535 0.47799 0.0
C502 C 0.73644 0.10101 0.48444 0.0
H503 H 0.85928 0.08816 0.47174 0.0
C504 C 0.72268 0.07486 0.47037 0.0
C505 C 0.78644 0.10478 0.48642 0.0
C506 C 0.80304 0.13243 0.50138 0.0
C507 C 0.75739 0.05406 0.45596 0.0
C508 C 0.80695 0.05977 0.45549 0.0
C509 C 0.82119 0.08386 0.47207 0.0
C510 C 0.8422 0.04647 0.4336 0.0
C511 C 0.74015 0.0275 0.43984 0.0
C512 C 0.8887 0.03251 0.44009 0.0
C513 C 0.92584 0.02794 0.4194 0.0
C514 C 0.91697 0.03794 0.39224 0.0
C515 C 0.86964 0.04964 0.38546 0.0
C516 C 0.8325 0.0537 0.40593 0.0
H517 H 0.70896 0.01789 0.45105 0.0
H518 H 0.72716 0.0366 0.41966 0.0
H519 H 0.76963 1.00815 0.43591 0.0
H520 H 0.89701 0.02704 0.46135 0.0
H521 H 0.96232 0.01915 0.42507 0.0
loop_
_geom_bond_atom_site_label_1
_geom_bond_atom_site_label_2
_geom_bond_distance
_geom_bond_site_symmetry_2
_ccdc_geom_bond_type
H0 C5 0.930 . S
H1 C8 0.930 . S
H2 C10 0.930 . S
H3 C4 1.016 . S
C4 H3 1.016 . S
C4 N11 1.286 . S
C5 H0 0.930 . S
C5 C6 1.397 . S
C5 C7 1.361 . S
C6 C5 1.397 . S
C6 C10 1.390 1_554 S
C7 C5 1.361 . S
C7 C8 1.393 . S
C7 N11 1.413 . S
C8 H1 0.930 . S
C8 C7 1.393 . S
C8 C9 1.399 . S
C9 C8 1.399 . S
C9 C10 1.381 1_554 S
C10 H2 0.930 . S
C10 C6 1.390 1_556 S
C10 C9 1.381 1_556 S
N11 C4 1.286 . S
N11 C7 1.413 . S
H12 C17 0.930 . S
H13 C20 0.930 . S
H14 C22 0.919 1_556 S
H15 C16 1.016 . S
C16 H15 1.016 . S
C16 N23 1.286 1_455 S
C17 H12 0.930 . S
C17 C18 1.397 . S
C17 C19 1.361 . S
C18 C17 1.397 . S
C18 C22 1.395 1_655 S
C19 C17 1.361 . S
C19 C20 1.393 1_655 S
C19 N23 1.413 . S
C20 H13 0.930 . S
C20 C19 1.393 1_455 S
C20 C21 1.399 . S
C21 C20 1.399 . S
C21 C22 1.388 . S
C22 H14 0.919 1_554 S
C22 C18 1.395 1_455 S
C22 C21 1.388 . S
N23 C16 1.286 1_655 S
N23 C19 1.413 . S
H24 C29 0.930 . S
H25 C32 0.930 . S
H26 C34 0.930 . S
H27 C28 1.016 . S
C28 H27 1.016 . S
C28 N35 1.286 . S
C29 H24 0.930 . S
C29 C30 1.397 . S
C29 C31 1.361 . S
C30 C29 1.397 . S
C30 C34 1.390 . S
C31 C29 1.361 . S
C31 C32 1.393 . S
C31 N35 1.413 . S
C32 H25 0.930 . S
C32 C31 1.393 . S
C32 C33 1.399 . S
C33 C32 1.399 . S
C33 C34 1.381 . S
C34 H26 0.930 . S
C34 C30 1.390 . S
C34 C33 1.381 . S
N35 C28 1.286 . S
N35 C31 1.413 . S
H36 C41 0.930 . S
H37 C44 0.930 . S
H38 C46 0.930 . S
H39 C40 1.016 . S
C40 H39 1.016 . S
C40 N47 1.286 . S
C41 H36 0.930 . S
C41 C42 1.397 . S
C41 C43 1.361 . S
C42 C41 1.397 . S
C42 C46 1.390 . S
C43 C41 1.361 . S
C43 C44 1.393 . S
C43 N47 1.413 . S
C44 H37 0.930 . S
C44 C43 1.393 . S
C44 C45 1.399 . S
C45 C44 1.399 . S
C45 C46 1.381 . S
C46 H38 0.930 . S
C46 C42 1.390 . S
C46 C45 1.381 . S
N47 C40 1.286 . S
N47 C43 1.413 . S
Zn48 O54 1.920 . S
Zn48 O60 1.898 . S
Zn48 O63 1.896 1_455 S
Zn49 O57 1.905 . S
Zn49 O58 1.898 . S
Zn49 O66 1.920 . S
Zn50 O53 2.080 . S
Zn50 O56 2.114 1_545 S
Zn50 O59 2.120 1_545 S
Zn50 O61 2.120 . S
Zn50 O62 2.114 . S
Zn50 O65 2.080 1_545 S
C51 O56 1.166 . S
C51 O57 1.182 . S
C52 O58 1.167 . S
C52 O59 1.299 . S
O53 Zn50 2.080 . S
O53 C67 1.305 . S
O54 Zn48 1.920 . S
O54 C67 1.234 . S
C55 O60 1.167 . S
C55 O61 1.299 . S
O56 Zn50 2.114 1_565 S
O56 C51 1.166 . S
O57 Zn49 1.905 . S
O57 C51 1.182 . S
O58 Zn49 1.898 . S
O58 C52 1.167 . S
O59 Zn50 2.120 1_565 S
O59 C52 1.299 . S
O60 Zn48 1.898 . S
O60 C55 1.167 . S
O61 Zn50 2.120 . S
O61 C55 1.299 . S
O62 Zn50 2.114 . S
O62 C64 1.166 1_455 S
O63 Zn48 1.896 1_655 S
O63 C64 1.186 . S
C64 O62 1.166 1_655 S
C64 O63 1.186 . S
O65 Zn50 2.080 1_565 S
O65 C68 1.305 . S
O66 Zn49 1.920 . S
O66 C68 1.234 . S
C67 O53 1.305 . S
C67 O54 1.234 . S
C68 O65 1.305 . S
C68 O66 1.234 . S
Zn69 O75 1.920 . S
Zn69 O81 1.898 . S
Zn69 O84 1.905 . S
Zn70 O78 1.905 . S
Zn70 O79 1.898 . S
Zn70 O87 1.920 . S
Zn71 O74 2.080 . S
Zn71 O77 2.114 . S
Zn71 O80 2.120 . S
Zn71 O82 2.120 . S
Zn71 O83 2.114 . S
Zn71 O86 2.080 . S
C72 O77 1.166 . S
C72 O78 1.182 . S
C73 O79 1.167 . S
C73 O80 1.299 . S
O74 Zn71 2.080 . S
O74 C88 1.305 . S
O75 Zn69 1.920 . S
O75 C88 1.234 . S
C76 O81 1.167 . S
C76 O82 1.299 . S
O77 Zn71 2.114 . S
O77 C72 1.166 . S
O78 Zn70 1.905 . S
O78 C72 1.182 . S
O79 Zn70 1.898 . S
O79 C73 1.167 . S
O80 Zn71 2.120 . S
O80 C73 1.299 . S
O81 Zn69 1.898 . S
O81 C76 1.167 . S
O82 Zn71 2.120 . S
O82 C76 1.299 . S
O83 Zn71 2.114 . S
O83 C85 1.166 . S
O84 Zn69 1.905 . S
O84 C85 1.182 . S
C85 O83 1.166 . S
C85 O84 1.182 . S
O86 Zn71 2.080 . S
O86 C89 1.305 . S
O87 Zn70 1.920 . S
O87 C89 1.234 . S
C88 O74 1.305 . S
C88 O75 1.234 . S
C89 O86 1.305 . S
C89 O87 1.234 . S
H90 C98 0.929 . S
H91 C100 0.930 . S
H92 C102 0.930 . S
H93 C105 0.929 . S
H94 C108 0.930 . S
H95 C110 0.960 . S
H96 C110 0.960 . S
H97 C110 0.960 . S
C98 H90 0.929 . S
C98 C99 1.377 . S
C98 C100 1.384 . S
C99 C98 1.377 . S
C99 C105 1.390 . S
C100 H91 0.930 . S
C100 C98 1.384 . S
C100 C101 1.372 . S
C101 C100 1.372 . S
C101 C102 1.400 . S
C101 C106 1.490 . S
C102 H92 0.930 . S
C102 C101 1.400 . S
C102 C105 1.386 . S
H103 C119 0.930 . S
H104 C120 0.931 . S
C105 H93 0.929 . S
C105 C99 1.390 . S
C105 C102 1.386 . S
C106 C101 1.490 . S
C106 C108 1.395 . S
C106 C109 1.403 . S
H107 C113 0.930 . S
C108 H94 0.930 . S
C108 C106 1.395 . S
C108 C111 1.403 . S
C109 C106 1.403 . S
C109 C110 1.524 . S
C109 C113 1.400 . S
C110 H95 0.960 . S
C110 H96 0.960 . S
C110 H97 0.960 . S
C110 C109 1.524 . S
C111 C108 1.403 . S
C111 C112 1.392 . S
C111 C115 1.495 . S
C112 C111 1.392 . S
C112 C113 1.385 . S
C112 C114 1.478 . S
C113 H107 0.930 . S
C113 C109 1.400 . S
C113 C112 1.385 . S
C114 C112 1.478 . S
C114 C116 1.381 . S
C114 C120 1.383 . S
C115 C111 1.495 . S
C115 H121 0.959 . S
C115 H122 0.961 . S
C115 H123 0.960 . S
C116 C114 1.381 . S
C116 C117 1.394 . S
C116 H124 0.930 . S
C117 C116 1.394 . S
C117 C118 1.383 . S
C117 H125 0.929 . S
C118 C117 1.383 . S
C118 C119 1.377 . S
C119 H103 0.930 . S
C119 C118 1.377 . S
C119 C120 1.379 . S
C120 H104 0.931 . S
C120 C114 1.383 . S
C120 C119 1.379 . S
H121 C115 0.959 . S
H122 C115 0.961 . S
H123 C115 0.960 . S
H124 C116 0.930 . S
H125 C117 0.929 . S
H126 C134 0.929 . S
H127 C136 0.930 . S
H128 C138 0.930 . S
H129 C141 0.929 . S
H130 C144 0.930 1_655 S
H131 C146 0.960 . S
H132 C146 0.960 . S
H133 C146 0.960 . S
C134 H126 0.929 . S
C134 C135 1.377 . S
C134 C136 1.384 . S
C135 C134 1.377 . S
C135 C141 1.390 1_455 S
C136 H127 0.930 . S
C136 C134 1.384 . S
C136 C137 1.372 . S
C137 C136 1.372 . S
C137 C138 1.400 1_455 S
C137 C142 1.490 . S
C138 H128 0.930 . S
C138 C137 1.400 1_655 S
C138 C141 1.386 . S
H139 C155 0.930 1_655 S
H140 C156 0.931 1_655 S
C141 H129 0.929 . S
C141 C135 1.390 1_655 S
C141 C138 1.386 . S
C142 C137 1.490 . S
C142 C144 1.395 . S
C142 C145 1.403 . S
H143 C149 0.930 . S
C144 H130 0.930 1_455 S
C144 C142 1.395 . S
C144 C147 1.403 . S
C145 C142 1.403 . S
C145 C146 1.524 . S
C145 C149 1.400 . S
C146 H131 0.960 . S
C146 H132 0.960 . S
C146 H133 0.960 . S
C146 C145 1.524 . S
C147 C144 1.403 . S
C147 C148 1.392 . S
C147 C151 1.495 1_455 S
C148 C147 1.392 . S
C148 C149 1.385 . S
C148 C150 1.478 . S
C149 H143 0.930 . S
C149 C145 1.400 . S
C149 C148 1.385 . S
C150 C148 1.478 . S
C150 C152 1.381 . S
C150 C156 1.383 . S
C151 C147 1.495 1_655 S
C151 H157 0.959 . S
C151 H158 0.961 . S
C151 H159 0.960 1_655 S
C152 C150 1.381 . S
C152 C153 1.394 . S
C152 H160 0.930 . S
C153 C152 1.394 . S
C153 C154 1.383 . S
C153 H161 0.929 . S
C154 C153 1.383 . S
C154 C155 1.377 . S
C155 H139 0.930 1_455 S
C155 C154 1.377 . S
C155 C156 1.379 . S
C156 H140 0.931 1_455 S
C156 C150 1.383 . S
C156 C155 1.379 . S
H157 C151 0.959 . S
H158 C151 0.961 . S
H159 C151 0.960 1_455 S
H160 C152 0.930 . S
H161 C153 0.929 . S
H162 C170 0.929 . S
H163 C172 0.930 . S
H164 C174 0.930 . S
H165 C177 0.929 . S
H166 C180 0.930 . S
H167 C182 0.960 . S
H168 C182 0.960 . S
H169 C182 0.960 . S
C170 H162 0.929 . S
C170 C171 1.377 . S
C170 C172 1.384 . S
C171 C170 1.377 . S
C171 C177 1.390 . S
C172 H163 0.930 . S
C172 C170 1.384 . S
C172 C173 1.372 . S
C173 C172 1.372 . S
C173 C174 1.400 . S
C173 C178 1.490 . S
C174 H164 0.930 . S
C174 C173 1.400 . S
C174 C177 1.386 . S
H175 C191 0.930 . S
H176 C192 0.931 . S
C177 H165 0.929 . S
C177 C171 1.390 . S
C177 C174 1.386 . S
C178 C173 1.490 . S
C178 C180 1.395 . S
C178 C181 1.403 . S
H179 C185 0.930 . S
C180 H166 0.930 . S
C180 C178 1.395 . S
C180 C183 1.403 . S
C181 C178 1.403 . S
C181 C182 1.524 . S
C181 C185 1.400 . S
C182 H167 0.960 . S
C182 H168 0.960 . S
C182 H169 0.960 . S
C182 C181 1.524 . S
C183 C180 1.403 . S
C183 C184 1.392 . S
C183 C187 1.495 . S
C184 C183 1.392 . S
C184 C185 1.385 . S
C184 C186 1.478 . S
C185 H179 0.930 . S
C185 C181 1.400 . S
C185 C184 1.385 . S
C186 C184 1.478 . S
C186 C188 1.381 . S
C186 C192 1.383 . S
C187 C183 1.495 . S
C187 H193 0.959 . S
C187 H194 0.961 . S
C187 H195 0.960 . S
C188 C186 1.381 . S
C188 C189 1.394 . S
C188 H196 0.930 . S
C189 C188 1.394 . S
C189 C190 1.383 . S
C189 H197 0.929 . S
C190 C189 1.383 . S
C190 C191 1.377 . S
C191 H175 0.930 . S
C191 C190 1.377 . S
C191 C192 1.379 . S
C192 H176 0.931 . S
C192 C186 1.383 . S
C192 C191 1.379 . S
H193 C187 0.959 . S
H194 C187 0.961 . S
H195 C187 0.960 . S
H196 C188 0.930 . S
H197 C189 0.929 . S
H198 C206 0.929 . S
H199 C208 0.930 . S
H200 C210 0.930 . S
H201 C213 0.929 . S
H202 C216 0.930 . S
H203 C218 0.960 . S
H204 C218 0.960 . S
H205 C218 0.960 . S
C206 H198 0.929 . S
C206 C207 1.377 . S
C206 C208 1.384 . S
C207 C206 1.377 . S
C207 C213 1.390 . S
C208 H199 0.930 . S
C208 C206 1.384 . S
C208 C209 1.372 . S
C209 C208 1.372 . S
C209 C210 1.400 . S
C209 C214 1.490 . S
C210 H200 0.930 . S
C210 C209 1.400 . S
C210 C213 1.386 . S
H211 C227 0.930 . S
H212 C228 0.931 . S
C213 H201 0.929 . S
C213 C207 1.390 . S
C213 C210 1.386 . S
C214 C209 1.490 . S
C214 C216 1.395 . S
C214 C217 1.403 . S
H215 C221 0.930 . S
C216 H202 0.930 . S
C216 C214 1.395 . S
C216 C219 1.403 . S
C217 C214 1.403 . S
C217 C218 1.524 . S
C217 C221 1.400 . S
C218 H203 0.960 . S
C218 H204 0.960 . S
C218 H205 0.960 . S
C218 C217 1.524 . S
C219 C216 1.403 . S
C219 C220 1.392 . S
C219 C223 1.495 . S
C220 C219 1.392 . S
C220 C221 1.385 . S
C220 C222 1.478 . S
C221 H215 0.930 . S
C221 C217 1.400 . S
C221 C220 1.385 . S
C222 C220 1.478 . S
C222 C224 1.381 . S
C222 C228 1.383 . S
C223 C219 1.495 . S
C223 H229 0.959 . S
C223 H230 0.961 . S
C223 H231 0.960 . S
C224 C222 1.381 . S
C224 C225 1.394 . S
C224 H232 0.930 . S
C225 C224 1.394 . S
C225 C226 1.383 . S
C225 H233 0.929 . S
C226 C225 1.383 . S
C226 C227 1.377 . S
C227 H211 0.930 . S
C227 C226 1.377 . S
C227 C228 1.379 . S
C228 H212 0.931 . S
C228 C222 1.383 . S
C228 C227 1.379 . S
H229 C223 0.959 . S
H230 C223 0.961 . S
H231 C223 0.960 . S
H232 C224 0.930 . S
H233 C225 0.929 . S
H234 C242 0.929 . S
H235 C244 0.930 . S
H236 C246 0.930 . S
H237 C249 0.938 . S
H238 C252 0.930 . S
H239 C254 0.960 . S
H240 C254 0.960 . S
H241 C254 0.960 . S
C242 H234 0.929 . S
C242 C243 1.377 . S
C242 C244 1.384 . S
C243 C242 1.377 . S
C243 C249 1.387 1_556 S
C244 H235 0.930 . S
C244 C242 1.384 . S
C244 C245 1.372 . S
C245 C244 1.372 . S
C245 C246 1.400 . S
C245 C250 1.490 . S
C246 H236 0.930 . S
C246 C245 1.400 . S
C246 C249 1.379 1_556 S
H247 C263 0.930 . S
H248 C264 0.931 . S
C249 H237 0.938 . S
C249 C243 1.387 1_554 S
C249 C246 1.379 1_554 S
C250 C245 1.490 . S
C250 C252 1.395 . S
C250 C253 1.403 . S
H251 C257 0.930 . S
C252 H238 0.930 . S
C252 C250 1.395 . S
C252 C255 1.403 . S
C253 C250 1.403 . S
C253 C254 1.524 . S
C253 C257 1.400 . S
C254 H239 0.960 . S
C254 H240 0.960 . S
C254 H241 0.960 . S
C254 C253 1.524 . S
C255 C252 1.403 . S
C255 C256 1.392 . S
C255 C259 1.495 . S
C256 C255 1.392 . S
C256 C257 1.385 . S
C256 C258 1.478 . S
C257 H251 0.930 . S
C257 C253 1.400 . S
C257 C256 1.385 . S
C258 C256 1.478 . S
C258 C260 1.381 . S
C258 C264 1.383 . S
C259 C255 1.495 . S
C259 H265 0.959 . S
C259 H266 0.961 . S
C259 H267 0.960 . S
C260 C258 1.381 . S
C260 C261 1.394 . S
C260 H268 0.930 . S
C261 C260 1.394 . S
C261 C262 1.383 . S
C261 H269 0.929 . S
C262 C261 1.383 . S
C262 C263 1.377 . S
C263 H247 0.930 . S
C263 C262 1.377 . S
C263 C264 1.379 . S
C264 H248 0.931 . S
C264 C258 1.383 . S
C264 C263 1.379 . S
H265 C259 0.959 . S
H266 C259 0.961 . S
H267 C259 0.960 . S
H268 C260 0.930 . S
H269 C261 0.929 . S
H270 C278 0.929 . S
H271 C280 0.930 . S
H272 C282 0.930 . S
H273 C285 0.929 1_554 S
H274 C288 0.930 . S
H275 C290 0.960 . S
H276 C290 0.960 . S
H277 C290 0.960 . S
C278 H270 0.929 . S
C278 C279 1.379 . S
C278 C280 1.384 . S
C279 C278 1.379 . S
C279 C285 1.390 . S
C280 H271 0.930 . S
C280 C278 1.384 . S
C280 C281 1.372 . S
C281 C280 1.372 . S
C281 C282 1.400 . S
C281 C286 1.490 . S
C282 H272 0.930 . S
C282 C281 1.400 . S
C282 C285 1.386 . S
H283 C299 0.930 . S
H284 C300 0.931 . S
C285 H273 0.929 1_556 S
C285 C279 1.390 . S
C285 C282 1.386 . S
C286 C281 1.490 . S
C286 C288 1.395 . S
C286 C289 1.403 . S
H287 C293 0.930 . S
C288 H274 0.930 . S
C288 C286 1.395 . S
C288 C291 1.403 . S
C289 C286 1.403 . S
C289 C290 1.524 1_556 S
C289 C293 1.400 . S
C290 H275 0.960 . S
C290 H276 0.960 . S
C290 H277 0.960 . S
C290 C289 1.524 1_554 S
C291 C288 1.403 . S
C291 C292 1.392 . S
C291 C295 1.495 . S
C292 C291 1.392 . S
C292 C293 1.385 . S
C292 C294 1.478 . S
C293 H287 0.930 . S
C293 C289 1.400 . S
C293 C292 1.385 . S
C294 C292 1.478 . S
C294 C296 1.381 . S
C294 C300 1.383 . S
C295 C291 1.495 . S
C295 H301 0.959 . S
C295 H302 0.961 . S
C295 H303 0.960 . S
C296 C294 1.381 . S
C296 C297 1.394 . S
C296 H304 0.930 . S
C297 C296 1.394 . S
C297 C298 1.383 . S
C297 H305 0.929 . S
C298 C297 1.383 . S
C298 C299 1.377 . S
C299 H283 0.930 . S
C299 C298 1.377 . S
C299 C300 1.379 . S
C300 H284 0.931 . S
C300 C294 1.383 . S
C300 C299 1.379 . S
H301 C295 0.959 . S
H302 C295 0.961 . S
H303 C295 0.960 . S
H304 C296 0.930 . S
H305 C297 0.929 . S
H306 C314 0.929 . S
H307 C316 0.930 . S
H308 C318 0.930 . S
H309 C321 0.929 . S
H310 C324 0.930 . S
H311 C326 0.960 . S
H312 C326 0.981 . S
H313 C326 0.960 . S
C314 H306 0.929 . S
C314 C315 1.377 . S
C314 C316 1.384 . S
C315 C314 1.377 . S
C315 C321 1.390 . S
C316 H307 0.930 . S
C316 C314 1.384 . S
C316 C317 1.372 1_455 S
C317 C316 1.372 1_655 S
C317 C318 1.400 . S
C317 C322 1.490 . S
C318 H308 0.930 . S
C318 C317 1.400 . S
C318 C321 1.386 1_655 S
H319 C335 0.930 . S
H320 C336 0.931 . S
C321 H309 0.929 . S
C321 C315 1.390 . S
C321 C318 1.386 1_455 S
C322 C317 1.490 . S
C322 C324 1.395 . S
C322 C325 1.403 . S
H323 C329 0.930 . S
C324 H310 0.930 . S
C324 C322 1.395 . S
C324 C327 1.403 . S
C325 C322 1.403 . S
C325 C326 1.524 . S
C325 C329 1.400 . S
C326 H311 0.960 . S
C326 H312 0.981 . S
C326 H313 0.960 . S
C326 C325 1.524 . S
C327 C324 1.403 . S
C327 C328 1.392 . S
C327 C331 1.495 . S
C328 C327 1.392 . S
C328 C329 1.385 . S
C328 C330 1.478 . S
C329 H323 0.930 . S
C329 C325 1.400 . S
C329 C328 1.385 . S
C330 C328 1.478 . S
C330 C332 1.381 . S
C330 C336 1.383 . S
C331 C327 1.495 . S
C331 H337 0.959 . S
C331 H338 0.961 . S
C331 H339 0.960 . S
C332 C330 1.381 . S
C332 C333 1.394 . S
C332 H340 0.930 . S
C333 C332 1.394 . S
C333 C334 1.383 . S
C333 H341 0.929 . S
C334 C333 1.383 . S
C334 C335 1.377 . S
C335 H319 0.930 . S
C335 C334 1.377 . S
C335 C336 1.379 . S
C336 H320 0.931 . S
C336 C330 1.383 . S
C336 C335 1.379 . S
H337 C331 0.959 . S
H338 C331 0.961 . S
H339 C331 0.960 . S
H340 C332 0.930 . S
H341 C333 0.929 . S
H342 C350 0.929 . S
H343 C352 0.930 . S
H344 C354 0.930 . S
H345 C357 0.929 . S
H346 C360 0.930 . S
H347 C362 0.960 . S
H348 C362 0.960 . S
H349 C362 0.960 . S
C350 H342 0.929 . S
C350 C351 1.377 . S
C350 C352 1.384 . S
C351 C350 1.377 . S
C351 C357 1.390 . S
C352 H343 0.930 . S
C352 C350 1.384 . S
C352 C353 1.372 . S
C353 C352 1.372 . S
C353 C354 1.400 . S
C353 C358 1.490 . S
C354 H344 0.930 . S
C354 C353 1.400 . S
C354 C357 1.386 . S
H355 C371 0.930 . S
H356 C372 0.931 . S
C357 H345 0.929 . S
C357 C351 1.390 . S
C357 C354 1.386 . S
C358 C353 1.490 . S
C358 C360 1.395 . S
C358 C361 1.403 . S
H359 C365 0.930 . S
C360 H346 0.930 . S
C360 C358 1.395 . S
C360 C363 1.403 . S
C361 C358 1.403 . S
C361 C362 1.524 . S
C361 C365 1.400 . S
C362 H347 0.960 . S
C362 H348 0.960 . S
C362 H349 0.960 . S
C362 C361 1.524 . S
C363 C360 1.403 . S
C363 C364 1.392 . S
C363 C367 1.495 . S
C364 C363 1.392 . S
C364 C365 1.385 . S
C364 C366 1.478 . S
C365 H359 0.930 . S
C365 C361 1.400 . S
C365 C364 1.385 . S
C366 C364 1.478 . S
C366 C368 1.381 . S
C366 C372 1.383 . S
C367 C363 1.495 . S
C367 H373 0.959 . S
C367 H374 0.961 . S
C367 H375 0.960 . S
C368 C366 1.381 . S
C368 C369 1.394 . S
C368 H376 0.930 . S
C369 C368 1.394 . S
C369 C370 1.383 . S
C369 H377 0.929 . S
C370 C369 1.383 . S
C370 C371 1.377 . S
C371 H355 0.930 . S
C371 C370 1.377 . S
C371 C372 1.379 . S
C372 H356 0.931 . S
C372 C366 1.383 . S
C372 C371 1.379 . S
H373 C367 0.959 . S
H374 C367 0.961 . S
H375 C367 0.960 . S
H376 C368 0.930 . S
H377 C369 0.929 . S
H378 C386 0.929 . S
H379 C388 0.930 . S
H380 C390 0.930 . S
H381 C393 0.929 . S
H382 C396 0.930 . S
H383 C398 0.960 . S
H384 C398 0.960 . S
H385 C398 0.960 . S
C386 H378 0.929 . S
C386 C387 1.377 . S
C386 C388 1.384 . S
C387 C386 1.377 . S
C387 C393 1.390 . S
C388 H379 0.930 . S
C388 C386 1.384 . S
C388 C389 1.372 . S
C389 C388 1.372 . S
C389 C390 1.400 . S
C389 C394 1.490 . S
C390 H380 0.930 . S
C390 C389 1.400 . S
C390 C393 1.386 . S
H391 C407 0.930 1_455 S
H392 C408 0.931 . S
C393 H381 0.929 . S
C393 C387 1.390 . S
C393 C390 1.386 . S
C394 C389 1.490 . S
C394 C396 1.395 . S
C394 C397 1.403 . S
H395 C401 0.930 . S
C396 H382 0.930 . S
C396 C394 1.395 . S
C396 C399 1.403 . S
C397 C394 1.403 . S
C397 C398 1.524 . S
C397 C401 1.400 . S
C398 H383 0.960 . S
C398 H384 0.960 . S
C398 H385 0.960 . S
C398 C397 1.524 . S
C399 C396 1.403 . S
C399 C400 1.392 . S
C399 C403 1.495 . S
C400 C399 1.392 . S
C400 C401 1.385 . S
C400 C402 1.478 . S
C401 H395 0.930 . S
C401 C397 1.400 . S
C401 C400 1.385 . S
C402 C400 1.478 . S
C402 C404 1.381 . S
C402 C408 1.383 . S
C403 C399 1.495 . S
C403 H409 0.959 . S
C403 H410 0.961 . S
C403 H411 0.960 . S
C404 C402 1.381 . S
C404 C405 1.394 . S
C404 H412 0.930 . S
C405 C404 1.394 . S
C405 C406 1.383 . S
C405 H413 0.929 . S
C406 C405 1.383 . S
C406 C407 1.377 . S
C407 H391 0.930 1_655 S
C407 C406 1.377 . S
C407 C408 1.379 . S
C408 H392 0.931 . S
C408 C402 1.383 . S
C408 C407 1.379 . S
H409 C403 0.959 . S
H410 C403 0.961 . S
H411 C403 0.960 . S
H412 C404 0.930 . S
H413 C405 0.929 . S
H414 C422 0.929 . S
H415 C424 0.930 . S
H416 C426 0.930 . S
H417 C429 0.929 . S
H418 C432 0.930 . S
H419 C434 0.960 . S
H420 C434 0.960 . S
H421 C434 0.960 . S
C422 H414 0.929 . S
C422 C423 1.377 . S
C422 C424 1.384 . S
C423 C422 1.377 . S
C423 C429 1.390 . S
C424 H415 0.930 . S
C424 C422 1.384 . S
C424 C425 1.372 . S
C425 C424 1.372 . S
C425 C426 1.400 . S
C425 C430 1.490 . S
C426 H416 0.930 . S
C426 C425 1.400 . S
C426 C429 1.386 . S
H427 C443 0.930 . S
H428 C444 0.931 . S
C429 H417 0.929 . S
C429 C423 1.390 . S
C429 C426 1.386 . S
C430 C425 1.490 . S
C430 C432 1.395 . S
C430 C433 1.403 . S
H431 C437 0.930 . S
C432 H418 0.930 . S
C432 C430 1.395 . S
C432 C435 1.403 . S
C433 C430 1.403 . S
C433 C434 1.524 . S
C433 C437 1.400 . S
C434 H419 0.960 . S
C434 H420 0.960 . S
C434 H421 0.960 . S
C434 C433 1.524 . S
C435 C432 1.403 . S
C435 C436 1.392 . S
C435 C439 1.495 . S
C436 C435 1.392 . S
C436 C437 1.385 . S
C436 C438 1.478 . S
C437 H431 0.930 . S
C437 C433 1.400 . S
C437 C436 1.385 . S
C438 C436 1.478 . S
C438 C440 1.381 . S
C438 C444 1.383 . S
C439 C435 1.495 . S
C439 H445 0.959 . S
C439 H446 0.961 . S
C439 H447 0.960 . S
C440 C438 1.381 . S
C440 C441 1.394 . S
C440 H448 0.930 . S
C441 C440 1.394 . S
C441 C442 1.383 . S
C441 H449 0.929 . S
C442 C441 1.383 . S
C442 C443 1.377 . S
C443 H427 0.930 . S
C443 C442 1.377 . S
C443 C444 1.379 . S
C444 H428 0.931 . S
C444 C438 1.383 . S
C444 C443 1.379 . S
H445 C439 0.959 . S
H446 C439 0.961 . S
H447 C439 0.960 . S
H448 C440 0.930 . S
H449 C441 0.929 . S
H450 C458 0.929 . S
H451 C460 0.930 . S
H452 C462 0.930 . S
H453 C465 0.929 . S
H454 C468 0.930 . S
H455 C470 0.960 . S
H456 C470 0.960 . S
H457 C470 0.960 . S
C458 H450 0.929 . S
C458 C459 1.377 . S
C458 C460 1.384 . S
C459 C458 1.377 . S
C459 C465 1.390 . S
C460 H451 0.930 . S
C460 C458 1.384 . S
C460 C461 1.372 . S
C461 C460 1.372 . S
C461 C462 1.400 . S
C461 C466 1.490 . S
C462 H452 0.930 . S
C462 C461 1.400 . S
C462 C465 1.386 . S
H463 C479 0.930 . S
H464 C480 0.931 . S
C465 H453 0.929 . S
C465 C459 1.390 . S
C465 C462 1.386 . S
C466 C461 1.490 . S
C466 C468 1.395 . S
C466 C469 1.403 . S
H467 C473 0.930 . S
C468 H454 0.930 . S
C468 C466 1.395 . S
C468 C471 1.403 . S
C469 C466 1.403 . S
C469 C470 1.524 . S
C469 C473 1.400 . S
C470 H455 0.960 . S
C470 H456 0.960 . S
C470 H457 0.960 . S
C470 C469 1.524 . S
C471 C468 1.403 . S
C471 C472 1.392 . S
C471 C475 1.495 . S
C472 C471 1.392 . S
C472 C473 1.385 . S
C472 C474 1.478 . S
C473 H467 0.930 . S
C473 C469 1.400 . S
C473 C472 1.385 . S
C474 C472 1.478 . S
C474 C476 1.381 . S
C474 C480 1.383 . S
C475 C471 1.495 . S
C475 H481 0.959 . S
C475 H482 0.961 . S
C475 H483 0.960 . S
C476 C474 1.381 . S
C476 C477 1.394 . S
C476 H484 0.930 . S
C477 C476 1.394 . S
C477 C478 1.383 . S
C477 H485 0.929 . S
C478 C477 1.383 . S
C478 C479 1.377 . S
C479 H463 0.930 . S
C479 C478 1.377 . S
C479 C480 1.379 . S
C480 H464 0.931 . S
C480 C474 1.383 . S
C480 C479 1.379 . S
H481 C475 0.959 . S
H482 C475 0.961 . S
H483 C475 0.960 . S
H484 C476 0.930 . S
H485 C477 0.929 . S
H486 C494 0.929 . S
H487 C496 0.930 . S
H488 C498 0.930 . S
H489 C501 0.929 . S
H490 C504 0.930 . S
H491 C506 0.960 . S
H492 C506 0.960 . S
H493 C506 0.960 . S
C494 H486 0.929 . S
C494 C495 1.377 . S
C494 C496 1.384 . S
C495 C494 1.377 . S
C495 C501 1.390 . S
C496 H487 0.930 . S
C496 C494 1.384 . S
C496 C497 1.372 . S
C497 C496 1.372 . S
C497 C498 1.400 . S
C497 C502 1.490 . S
C498 H488 0.930 . S
C498 C497 1.400 . S
C498 C501 1.386 . S
H499 C515 0.930 . S
H500 C516 0.931 . S
C501 H489 0.929 . S
C501 C495 1.390 . S
C501 C498 1.386 . S
C502 C497 1.490 . S
C502 C504 1.395 . S
C502 C505 1.403 . S
H503 C509 0.930 . S
C504 H490 0.930 . S
C504 C502 1.395 . S
C504 C507 1.403 . S
C505 C502 1.403 . S
C505 C506 1.524 . S
C505 C509 1.400 . S
C506 H491 0.960 . S
C506 H492 0.960 . S
C506 H493 0.960 . S
C506 C505 1.524 . S
C507 C504 1.403 . S
C507 C508 1.392 . S
C507 C511 1.495 . S
C508 C507 1.392 . S
C508 C509 1.385 . S
C508 C510 1.478 . S
C509 H503 0.930 . S
C509 C505 1.400 . S
C509 C508 1.385 . S
C510 C508 1.478 . S
C510 C512 1.381 . S
C510 C516 1.383 . S
C511 C507 1.495 . S
C511 H517 0.959 . S
C511 H518 0.961 . S
C511 H519 0.960 . S
C512 C510 1.381 . S
C512 C513 1.394 . S
C512 H520 0.930 . S
C513 C512 1.394 . S
C513 C514 1.383 . S
C513 H521 0.929 . S
C514 C513 1.383 . S
C514 C515 1.377 . S
C515 H499 0.930 . S
C515 C514 1.377 . S
C515 C516 1.379 . S
C516 H500 0.931 . S
C516 C510 1.383 . S
C516 C515 1.379 . S
H517 C511 0.959 . S
H518 C511 0.961 . S
H519 C511 0.960 . S
H520 C512 0.930 . S
H521 C513 0.929 . S
C118 C55 1.374 . S
C99 C4 1.530 . S
C154 C51 1.433 . S
C135 C16 1.494 . S
C190 C76 1.432 . S
C171 C28 1.530 . S
C207 C40 1.497 . S
C226 C72 1.379 . S
C243 C9 1.158 1_556 S
C262 C73 1.113 . S
C298 C88 1.018 . S
C279 C18 1.182 1_556 S
C315 C6 1.782 1_556 S
C334 C89 1.660 . S
C370 C85 1.658 . S
C351 C21 1.810 1_556 S
C406 C52 1.104 1_655 S
C387 C33 1.162 . S
C423 C42 1.179 . S
C442 C67 1.017 . S
C478 C68 1.605 . S
C459 C30 1.785 . S
C514 C64 1.705 . S
C495 C45 1.812 . S
