# Generated by pormake.
# Topology llk, (3,12)-cn, num edge types: 1
# Building blocks:
#     Node 0, Type 0, BuildingBlock: PAMTOO_clean_linker_0, # of connection points: 3
#     Node 1, Type 0, BuildingBlock: PAMTOO_clean_linker_0, # of connection points: 3
#     Node 2, Type 0, BuildingBlock: PAMTOO_clean_linker_0, # of connection points: 3
#     Node 3, Type 0, BuildingBlock: PAMTOO_clean_linker_0, # of connection points: 3
#     Node 4, Type 0, BuildingBlock: PAMTOO_clean_linker_0, # of connection points: 3
#     Node 5, Type 0, BuildingBlock: PAMTOO_clean_linker_0, # of connection points: 3
#     Node 6, Type 0, BuildingBlock: PAMTOO_clean_linker_0, # of connection points: 3
#     Node 7, Type 0, BuildingBlock: PAMTOO_clean_linker_0, # of connection points: 3
#     Node 8, Type 0, BuildingBlock: PAMTOO_clean_linker_0, # of connection points: 3
#     Node 9, Type 0, BuildingBlock: PAMTOO_clean_linker_0, # of connection points: 3
#     Node 10, Type 0, BuildingBlock: PAMTOO_clean_linker_0, # of connection points: 3
#     Node 11, Type 0, BuildingBlock: PAMTOO_clean_linker_0, # of connection points: 3
#     Node 12, Type 0, BuildingBlock: PAMTOO_clean_linker_0, # of connection points: 3
#     Node 13, Type 0, BuildingBlock: PAMTOO_clean_linker_0, # of connection points: 3
#     Node 14, Type 0, BuildingBlock: PAMTOO_clean_linker_0, # of connection points: 3
#     Node 15, Type 0, BuildingBlock: PAMTOO_clean_linker_0, # of connection points: 3
#     Node 16, Type 0, BuildingBlock: PAMTOO_clean_linker_0, # of connection points: 3
#     Node 17, Type 0, BuildingBlock: PAMTOO_clean_linker_0, # of connection points: 3
#     Node 18, Type 0, BuildingBlock: PAMTOO_clean_linker_0, # of connection points: 3
#     Node 19, Type 0, BuildingBlock: PAMTOO_clean_linker_0, # of connection points: 3
#     Node 20, Type 0, BuildingBlock: PAMTOO_clean_linker_0, # of connection points: 3
#     Node 21, Type 0, BuildingBlock: PAMTOO_clean_linker_0, # of connection points: 3
#     Node 22, Type 0, BuildingBlock: PAMTOO_clean_linker_0, # of connection points: 3
#     Node 23, Type 0, BuildingBlock: PAMTOO_clean_linker_0, # of connection points: 3
#     Node 24, Type 1, BuildingBlock: EZIPEK_clean_sbu_0, # of connection points: 12
#     Node 25, Type 1, BuildingBlock: EZIPEK_clean_sbu_0, # of connection points: 12
#     Node 26, Type 1, BuildingBlock: EZIPEK_clean_sbu_0, # of connection points: 12
#     Node 27, Type 1, BuildingBlock: EZIPEK_clean_sbu_0, # of connection points: 12
#     Node 28, Type 1, BuildingBlock: EZIPEK_clean_sbu_0, # of connection points: 12
#     Node 29, Type 1, BuildingBlock: EZIPEK_clean_sbu_0, # of connection points: 12
#     Edge 30, Type (0, 1), BuildingBlock: AJUNOK_clean_linker_0, # of connection points: 2
#     Edge 31, Type (0, 1), BuildingBlock: AJUNOK_clean_linker_0, # of connection points: 2
#     Edge 32, Type (0, 1), BuildingBlock: AJUNOK_clean_linker_0, # of connection points: 2
#     Edge 33, Type (0, 1), BuildingBlock: AJUNOK_clean_linker_0, # of connection points: 2
#     Edge 34, Type (0, 1), BuildingBlock: AJUNOK_clean_linker_0, # of connection points: 2
#     Edge 35, Type (0, 1), BuildingBlock: AJUNOK_clean_linker_0, # of connection points: 2
#     Edge 36, Type (0, 1), BuildingBlock: AJUNOK_clean_linker_0, # of connection points: 2
#     Edge 37, Type (0, 1), BuildingBlock: AJUNOK_clean_linker_0, # of connection points: 2
#     Edge 38, Type (0, 1), BuildingBlock: AJUNOK_clean_linker_0, # of connection points: 2
#     Edge 39, Type (0, 1), BuildingBlock: AJUNOK_clean_linker_0, # of connection points: 2
#     Edge 40, Type (0, 1), BuildingBlock: AJUNOK_clean_linker_0, # of connection points: 2
#     Edge 41, Type (0, 1), BuildingBlock: AJUNOK_clean_linker_0, # of connection points: 2
#     Edge 42, Type (0, 1), BuildingBlock: AJUNOK_clean_linker_0, # of connection points: 2
#     Edge 43, Type (0, 1), BuildingBlock: AJUNOK_clean_linker_0, # of connection points: 2
#     Edge 44, Type (0, 1), BuildingBlock: AJUNOK_clean_linker_0, # of connection points: 2
#     Edge 45, Type (0, 1), BuildingBlock: AJUNOK_clean_linker_0, # of connection points: 2
#     Edge 46, Type (0, 1), BuildingBlock: AJUNOK_clean_linker_0, # of connection points: 2
#     Edge 47, Type (0, 1), BuildingBlock: AJUNOK_clean_linker_0, # of connection points: 2
#     Edge 48, Type (0, 1), BuildingBlock: AJUNOK_clean_linker_0, # of connection points: 2
#     Edge 49, Type (0, 1), BuildingBlock: AJUNOK_clean_linker_0, # of connection points: 2
#     Edge 50, Type (0, 1), BuildingBlock: AJUNOK_clean_linker_0, # of connection points: 2
#     Edge 51, Type (0, 1), BuildingBlock: AJUNOK_clean_linker_0, # of connection points: 2
#     Edge 52, Type (0, 1), BuildingBlock: AJUNOK_clean_linker_0, # of connection points: 2
#     Edge 53, Type (0, 1), BuildingBlock: AJUNOK_clean_linker_0, # of connection points: 2
#     Edge 54, Type (0, 1), BuildingBlock: AJUNOK_clean_linker_0, # of connection points: 2
#     Edge 55, Type (0, 1), BuildingBlock: AJUNOK_clean_linker_0, # of connection points: 2
#     Edge 56, Type (0, 1), BuildingBlock: AJUNOK_clean_linker_0, # of connection points: 2
#     Edge 57, Type (0, 1), BuildingBlock: AJUNOK_clean_linker_0, # of connection points: 2
#     Edge 58, Type (0, 1), BuildingBlock: AJUNOK_clean_linker_0, # of connection points: 2
#     Edge 59, Type (0, 1), BuildingBlock: AJUNOK_clean_linker_0, # of connection points: 2
#     Edge 60, Type (0, 1), BuildingBlock: AJUNOK_clean_linker_0, # of connection points: 2
#     Edge 61, Type (0, 1), BuildingBlock: AJUNOK_clean_linker_0, # of connection points: 2
#     Edge 62, Type (0, 1), BuildingBlock: AJUNOK_clean_linker_0, # of connection points: 2
#     Edge 63, Type (0, 1), BuildingBlock: AJUNOK_clean_linker_0, # of connection points: 2
#     Edge 64, Type (0, 1), BuildingBlock: AJUNOK_clean_linker_0, # of connection points: 2
#     Edge 65, Type (0, 1), BuildingBlock: AJUNOK_clean_linker_0, # of connection points: 2
#     Edge 66, Type (0, 1), BuildingBlock: AJUNOK_clean_linker_0, # of connection points: 2
#     Edge 67, Type (0, 1), BuildingBlock: AJUNOK_clean_linker_0, # of connection points: 2
#     Edge 68, Type (0, 1), BuildingBlock: AJUNOK_clean_linker_0, # of connection points: 2
#     Edge 69, Type (0, 1), BuildingBlock: AJUNOK_clean_linker_0, # of connection points: 2
#     Edge 70, Type (0, 1), BuildingBlock: AJUNOK_clean_linker_0, # of connection points: 2
#     Edge 71, Type (0, 1), BuildingBlock: AJUNOK_clean_linker_0, # of connection points: 2
#     Edge 72, Type (0, 1), BuildingBlock: AJUNOK_clean_linker_0, # of connection points: 2
#     Edge 73, Type (0, 1), BuildingBlock: AJUNOK_clean_linker_0, # of connection points: 2
#     Edge 74, Type (0, 1), BuildingBlock: AJUNOK_clean_linker_0, # of connection points: 2
#     Edge 75, Type (0, 1), BuildingBlock: AJUNOK_clean_linker_0, # of connection points: 2
#     Edge 76, Type (0, 1), BuildingBlock: AJUNOK_clean_linker_0, # of connection points: 2
#     Edge 77, Type (0, 1), BuildingBlock: AJUNOK_clean_linker_0, # of connection points: 2
#     Edge 78, Type (0, 1), BuildingBlock: AJUNOK_clean_linker_0, # of connection points: 2
#     Edge 79, Type (0, 1), BuildingBlock: AJUNOK_clean_linker_0, # of connection points: 2
#     Edge 80, Type (0, 1), BuildingBlock: AJUNOK_clean_linker_0, # of connection points: 2
#     Edge 81, Type (0, 1), BuildingBlock: AJUNOK_clean_linker_0, # of connection points: 2
#     Edge 82, Type (0, 1), BuildingBlock: AJUNOK_clean_linker_0, # of connection points: 2
#     Edge 83, Type (0, 1), BuildingBlock: AJUNOK_clean_linker_0, # of connection points: 2
#     Edge 84, Type (0, 1), BuildingBlock: AJUNOK_clean_linker_0, # of connection points: 2
#     Edge 85, Type (0, 1), BuildingBlock: AJUNOK_clean_linker_0, # of connection points: 2
#     Edge 86, Type (0, 1), BuildingBlock: AJUNOK_clean_linker_0, # of connection points: 2
#     Edge 87, Type (0, 1), BuildingBlock: AJUNOK_clean_linker_0, # of connection points: 2
#     Edge 88, Type (0, 1), BuildingBlock: AJUNOK_clean_linker_0, # of connection points: 2
#     Edge 89, Type (0, 1), BuildingBlock: AJUNOK_clean_linker_0, # of connection points: 2
#     Edge 90, Type (0, 1), BuildingBlock: AJUNOK_clean_linker_0, # of connection points: 2
#     Edge 91, Type (0, 1), BuildingBlock: AJUNOK_clean_linker_0, # of connection points: 2
#     Edge 92, Type (0, 1), BuildingBlock: AJUNOK_clean_linker_0, # of connection points: 2
#     Edge 93, Type (0, 1), BuildingBlock: AJUNOK_clean_linker_0, # of connection points: 2
#     Edge 94, Type (0, 1), BuildingBlock: AJUNOK_clean_linker_0, # of connection points: 2
#     Edge 95, Type (0, 1), BuildingBlock: AJUNOK_clean_linker_0, # of connection points: 2
#     Edge 96, Type (0, 1), BuildingBlock: AJUNOK_clean_linker_0, # of connection points: 2
#     Edge 97, Type (0, 1), BuildingBlock: AJUNOK_clean_linker_0, # of connection points: 2
#     Edge 98, Type (0, 1), BuildingBlock: AJUNOK_clean_linker_0, # of connection points: 2
#     Edge 99, Type (0, 1), BuildingBlock: AJUNOK_clean_linker_0, # of connection points: 2
#     Edge 100, Type (0, 1), BuildingBlock: AJUNOK_clean_linker_0, # of connection points: 2
#     Edge 101, Type (0, 1), BuildingBlock: AJUNOK_clean_linker_0, # of connection points: 2
# Relax obj value: 0.070
# Max RMSD: 0.163
# Mean RMSD: 0.123
data_MOF--net-llk--node1-EZIPEK_clean_sbu_0--node2-PAMTOO_clean_linker_0--edge1-AJUNOK_clean_linker_0
_symmetry_space_group_name_H-M    P1
_symmetry_Int_Tables_number       1
_symmetry_cell_setting            triclinic
loop_
_symmetry_equiv_pos_as_xyz
'x, y, z'
_cell_length_a     35.173718
_cell_length_b     35.690784
_cell_length_c     35.409854
_cell_angle_alpha  90.154122
_cell_angle_beta   90.149926
_cell_angle_gamma 90.07954
loop_
_atom_site_label
_atom_site_type_symbol
_atom_site_fract_x
_atom_site_fract_y
_atom_site_fract_z
_atom_type_partial_charge
H0 H 0.02814 0.37432 0.26396 0.0
H1 H 0.03423 0.27333 0.32898 0.0
H2 H 0.0186 0.26715 0.20839 0.0
H3 H 0.97994 0.19093 0.26679 0.0
C4 C 0.99287 0.20913 0.28885 0.0
O5 O 0.02373 0.22785 0.27322 0.0
H6 H 0.97018 0.2292 0.29737 0.0
C7 C 0.02849 0.34395 0.26501 0.0
C8 C 0.02474 0.32346 0.23144 0.0
C9 C 0.03238 0.32621 0.29992 0.0
C10 C 0.03122 0.28721 0.30194 0.0
C11 C 0.0252 0.26575 0.26945 0.0
C12 C 0.02198 0.2838 0.23379 0.0
H13 H 0.77414 1.00748 0.36661 0.0
H14 H 0.70463 1.00733 0.2669 0.0
H15 H 0.82586 0.02065 0.25734 0.0
H16 H 0.76763 0.05757 0.18223 0.0
C17 C 0.74568 0.04677 0.20193 0.0
O18 O 0.75994 1.01515 0.21968 0.0
H19 H 0.74038 0.06982 0.22253 0.0
C20 C 0.77174 1.00906 0.33609 0.0
C21 C 0.80446 1.01435 0.31444 0.0
C22 C 0.73577 1.00757 0.31942 0.0
C23 C 0.73242 1.0082 0.28013 0.0
C24 C 0.76465 1.01287 0.25761 0.0
C25 C 0.80097 1.01618 0.2747 0.0
H26 H 0.01748 0.77044 0.36656 0.0
H27 H 0.02394 0.70523 0.26522 0.0
H28 H 0.01899 0.8256 0.25825 0.0
H29 H 0.98663 0.77043 0.17617 0.0
C30 C 0.99388 0.74813 0.19679 0.0
O31 O 0.02403 0.76075 0.21895 0.0
H32 H 0.96777 0.74405 0.21405 0.0
C33 C 0.01791 0.76939 0.33593 0.0
C34 C 0.01765 0.80279 0.31524 0.0
C35 C 0.01868 0.73446 0.3181 0.0
C36 C 0.02227 0.7323 0.279 0.0
C37 C 0.02187 0.76473 0.25713 0.0
C38 C 0.01946 0.80038 0.27515 0.0
H39 H 0.37012 0.03684 0.25833 0.0
H40 H 0.26961 0.02881 0.3265 0.0
H41 H 0.26276 1.00912 0.20688 0.0
H42 H 0.17184 0.02552 0.25964 0.0
C43 C 0.19537 0.03247 0.27941 0.0
O44 O 0.22515 1.00808 0.27242 0.0
H45 H 0.20407 0.06185 0.27318 0.0
C46 C 0.33958 0.03333 0.26056 0.0
C47 C 0.31872 0.0241 0.22809 0.0
C48 C 0.32228 0.03542 0.29604 0.0
C49 C 0.28327 0.02834 0.2991 0.0
C50 C 0.26169 1.0191 0.2673 0.0
C51 C 0.27921 1.0175 0.23139 0.0
H52 H 0.01993 0.66687 0.76196 0.0
H53 H 0.02917 0.76861 0.69889 0.0
H54 H 0.01657 0.77331 0.81993 0.0
H55 H 0.98602 0.85468 0.76418 0.0
C56 C 0.99537 0.8349 0.7418 0.0
O57 O 0.02525 0.81356 0.75589 0.0
H58 H 0.97016 0.81698 0.73543 0.0
C59 C 0.02054 0.69728 0.76168 0.0
C60 C 0.01725 0.71723 0.79557 0.0
C61 C 0.02354 0.71561 0.72707 0.0
C62 C 0.02657 0.75447 0.72582 0.0
C63 C 0.02376 0.77559 0.75893 0.0
C64 C 0.01903 0.75704 0.79421 0.0
H65 H 0.37083 0.02512 0.76128 0.0
H66 H 0.26686 0.02998 0.69817 0.0
H67 H 0.26352 0.0286 0.81969 0.0
H68 H 0.17493 1.00388 0.76823 0.0
C69 C 0.19841 1.00445 0.74735 0.0
O70 O 0.22247 0.03401 0.75636 0.0
H71 H 0.21375 0.97729 0.74998 0.0
C72 C 0.33998 0.02572 0.76093 0.0
C73 C 0.32 0.02594 0.79508 0.0
C74 C 0.32113 0.02559 0.72617 0.0
C75 C 0.28165 0.02931 0.72504 0.0
C76 C 0.2608 0.03058 0.75857 0.0
C77 C 0.27984 0.02847 0.79382 0.0
H78 H 0.02123 0.27142 0.65822 0.0
H79 H 0.0269 0.33628 0.76031 0.0
H80 H 0.02011 0.21604 0.76622 0.0
H81 H 0.99041 0.26657 0.84818 0.0
C82 C 0.99542 0.28975 0.82792 0.0
O83 O 0.02655 0.28021 0.80587 0.0
H84 H 0.96928 0.29213 0.81022 0.0
C85 C 0.02153 0.27259 0.68883 0.0
C86 C 0.01932 0.23925 0.70951 0.0
C87 C 0.02376 0.30753 0.70676 0.0
C88 C 0.02578 0.30938 0.7461 0.0
C89 C 0.02468 0.27675 0.76768 0.0
C90 C 0.02141 0.24136 0.74948 0.0
H91 H 0.76906 1.01705 0.66039 0.0
H92 H 0.70371 0.02614 0.76199 0.0
H93 H 0.82597 0.02465 0.76814 0.0
H94 H 0.77288 0.99557 0.85181 0.0
C95 C 0.74996 1.00077 0.83085 0.0
O96 O 0.76116 0.02988 0.80747 0.0
H97 H 0.74661 0.97413 0.81467 0.0
C98 C 0.76812 1.01875 0.69097 0.0
C99 C 0.80214 0.02015 0.71158 0.0
C100 C 0.73282 1.01985 0.70891 0.0
C101 C 0.73103 0.0247 0.74796 0.0
C102 C 0.76432 0.02613 0.76948 0.0
C103 C 0.80017 0.02375 0.7514 0.0
H104 H 0.26381 0.3734 0.01784 0.0
H105 H 0.33376 0.27536 1.00856 0.0
H106 H 0.21252 0.26385 0.01944 0.0
H107 H 0.27408 0.19284 0.06233 0.0
C108 C 0.29612 0.20985 0.04786 0.0
O109 O 0.27959 0.22761 0.01708 0.0
H110 H 0.30638 0.23052 0.06926 0.0
C111 C 0.2665 0.34313 0.01643 0.0
C112 C 0.23363 0.32106 0.01683 0.0
C113 C 0.30258 0.32708 0.01362 0.0
C114 C 0.30608 0.28817 1.01195 0.0
C115 C 0.27416 0.26524 0.01592 0.0
C116 C 0.23748 0.28157 0.01813 0.0
H117 H 0.26857 0.66678 0.01793 0.0
H118 H 0.33343 0.76831 0.02088 0.0
H119 H 0.21105 0.77346 0.0172 0.0
H120 H 0.2682 0.8542 0.97862 0.0
C121 C 0.29017 0.83357 0.98726 0.0
O122 O 0.27633 0.81344 0.01786 0.0
H123 H 0.29441 0.81505 0.96226 0.0
C124 C 0.26924 0.69718 0.01873 0.0
C125 C 0.23513 0.71734 0.01931 0.0
C126 C 0.30432 0.71536 0.01922 0.0
C127 C 0.30609 0.7543 0.01969 0.0
C128 C 0.27288 0.77551 0.01786 0.0
C129 C 0.23694 0.75709 0.0175 0.0
H130 H 0.76892 0.37292 0.01918 0.0
H131 H 0.70175 0.27263 0.02049 0.0
H132 H 0.82272 0.26629 0.03848 0.0
H133 H 0.7727 0.18308 1.00074 0.0
C134 C 0.74896 0.20331 1.00402 0.0
O135 O 0.75746 0.2274 0.0337 0.0
H136 H 0.74707 0.21873 0.97674 0.0
C137 C 0.76723 0.34271 0.02187 0.0
C138 C 0.80016 0.32234 0.03016 0.0
C139 C 0.732 0.32508 0.01782 0.0
C140 C 0.72916 0.2864 0.02268 0.0
C141 C 0.76166 0.26494 0.02932 0.0
C142 C 0.79758 0.28281 0.03267 0.0
H143 H 0.7698 0.66829 0.99375 0.0
H144 H 0.7049 0.76973 0.99108 0.0
H145 H 0.82498 0.77428 0.01487 0.0
H146 H 0.76711 0.84928 0.052 0.0
C147 C 0.74531 0.83068 0.03905 0.0
O148 O 0.76083 0.8142 1.00707 0.0
H149 H 0.73851 0.80935 0.06094 0.0
C150 C 0.76883 0.69862 0.99572 0.0
C151 C 0.80207 0.71865 1.00413 0.0
C152 C 0.73392 0.71674 0.99161 0.0
C153 C 0.73199 0.75567 0.99428 0.0
C154 C 0.76447 0.77657 1.0029 0.0
C155 C 0.79985 0.75814 1.00779 0.0
H156 H 0.52926 0.8751 0.76111 0.0
H157 H 0.5412 0.77549 0.82687 0.0
H158 H 0.53284 0.76735 0.7057 0.0
H159 H 0.49505 0.68985 0.76009 0.0
C160 C 0.50435 0.70855 0.78349 0.0
O161 O 0.53598 0.72869 0.7714 0.0
H162 H 0.4798 0.72748 0.78904 0.0
C163 C 0.53183 0.84481 0.76225 0.0
C164 C 0.53304 0.82401 0.72871 0.0
C165 C 0.53388 0.82734 0.79738 0.0
C166 C 0.53814 0.78868 0.7996 0.0
C167 C 0.53586 0.76659 0.76712 0.0
C168 C 0.53341 0.78423 0.73114 0.0
H169 H 0.2715 0.51504 0.86514 0.0
H170 H 0.20477 0.50907 0.76332 0.0
H171 H 0.32639 0.51989 0.7569 0.0
H172 H 0.2706 0.55589 0.67767 0.0
C173 C 0.24837 0.54689 0.69796 0.0
O174 O 0.2616 0.51607 0.7177 0.0
H175 H 0.24342 0.57121 0.71716 0.0
C176 C 0.26966 0.51467 0.83455 0.0
C177 C 0.30313 0.51644 0.81344 0.0
C178 C 0.23407 0.51249 0.8169 0.0
C179 C 0.23199 0.51191 0.77746 0.0
C180 C 0.26493 0.51562 0.75579 0.0
C181 C 0.30078 0.51802 0.77371 0.0
H182 H 0.51202 0.26945 0.86891 0.0
H183 H 0.52042 0.20566 0.7665 0.0
H184 H 0.50251 0.32487 0.76116 0.0
H185 H 0.47186 0.26811 0.67967 0.0
C186 C 0.48159 0.24643 0.69996 0.0
O187 O 0.51153 0.26123 0.72097 0.0
H188 H 0.4566 0.24044 0.71824 0.0
C189 C 0.51143 0.26851 0.83829 0.0
C190 C 0.50633 0.30173 0.81784 0.0
C191 C 0.51578 0.23398 0.82005 0.0
C192 C 0.5162 0.23227 0.7807 0.0
C193 C 0.51089 0.26457 0.75925 0.0
C194 C 0.50614 0.29967 0.77774 0.0
H195 H 0.87291 0.49668 0.76183 0.0
H196 H 0.76931 0.48702 0.82431 0.0
H197 H 0.76596 0.52315 0.70864 0.0
H198 H 0.69486 0.56028 0.76923 0.0
C199 C 0.71197 0.54383 0.78973 0.0
O200 O 0.72553 0.51207 0.77153 0.0
H201 H 0.7356 0.56269 0.79877 0.0
C202 C 0.84215 0.49818 0.76268 0.0
C203 C 0.82203 0.50899 0.73022 0.0
C204 C 0.82349 0.4912 0.79677 0.0
C205 C 0.78392 0.49297 0.79816 0.0
C206 C 0.7632 0.50548 0.76704 0.0
C207 C 0.78209 0.51321 0.73269 0.0
H208 H 0.51031 0.16734 0.26378 0.0
H209 H 0.51429 0.26699 0.19657 0.0
H210 H 0.52687 0.27473 0.31734 0.0
H211 H 0.49127 0.35668 0.26571 0.0
C212 C 0.49694 0.33762 0.24153 0.0
O213 O 0.52573 0.31296 0.25172 0.0
H214 H 0.46976 0.32239 0.23619 0.0
C215 C 0.51242 0.1976 0.26208 0.0
C216 C 0.51881 0.21836 0.29509 0.0
C217 C 0.51016 0.21485 0.22678 0.0
C218 C 0.51493 0.25357 0.22399 0.0
C219 C 0.52017 0.2755 0.2563 0.0
C220 C 0.52176 0.25797 0.2923 0.0
H221 H 0.87185 0.51917 0.26438 0.0
H222 H 0.76971 0.52449 0.19839 0.0
H223 H 0.76353 0.53176 0.31958 0.0
H224 H 0.67829 0.49706 0.26491 0.0
C225 C 0.7006 0.50138 0.24319 0.0
O226 O 0.72378 0.53075 0.25477 0.0
H227 H 0.71667 0.47455 0.24173 0.0
C228 C 0.84111 0.52135 0.26305 0.0
C229 C 0.82042 0.52662 0.29637 0.0
C230 C 0.82301 0.52001 0.22792 0.0
C231 C 0.78372 0.52443 0.22566 0.0
C232 C 0.76201 0.52747 0.25844 0.0
C233 C 0.78024 0.52832 0.29418 0.0
H234 H 0.52626 0.77229 0.16037 0.0
H235 H 0.53836 0.83517 0.26308 0.0
H236 H 0.52786 0.71513 0.2674 0.0
H237 H 0.49243 0.77143 0.34939 0.0
C238 C 0.50104 0.79287 0.3284 0.0
O239 O 0.53172 0.77907 0.30798 0.0
H240 H 0.47582 0.79705 0.30976 0.0
C241 C 0.52889 0.77283 0.19092 0.0
C242 C 0.52878 0.73904 0.21088 0.0
C243 C 0.53249 0.80734 0.20928 0.0
C244 C 0.53477 0.80861 0.24858 0.0
C245 C 0.53144 0.77588 0.26973 0.0
C246 C 0.52873 0.74065 0.251 0.0
H247 H 0.27016 0.51022 0.16035 0.0
H248 H 0.20345 0.51927 0.26108 0.0
H249 H 0.32436 0.53692 0.26634 0.0
H250 H 0.27568 0.51488 0.35557 0.0
C251 C 0.25377 0.51025 0.3334 0.0
O252 O 0.25936 0.53663 0.30532 0.0
H253 H 0.25828 0.48139 0.32218 0.0
C254 C 0.26868 0.51434 0.19067 0.0
C255 C 0.30187 0.52329 0.21078 0.0
C256 C 0.2333 0.51282 0.20847 0.0
C257 C 0.23087 0.51968 0.24722 0.0
C258 C 0.26347 0.52775 0.26829 0.0
C259 C 0.2993 0.52934 0.25022 0.0
H260 H 0.76605 0.87476 0.50331 0.0
H261 H 0.83343 0.77489 0.49749 0.0
H262 H 0.7124 0.76667 0.51372 0.0
H263 H 0.77183 0.69119 0.55138 0.0
C264 C 0.79373 0.71035 0.53968 0.0
O265 O 0.77829 0.72854 0.50858 0.0
H266 H 0.80048 0.73053 0.56282 0.0
C267 C 0.76777 0.84441 0.5032 0.0
C268 C 0.73445 0.82327 0.50719 0.0
C269 C 0.80327 0.82728 0.49958 0.0
C270 C 0.806 0.78831 0.50067 0.0
C271 C 0.77379 0.76633 0.50686 0.0
C272 C 0.73761 0.78373 0.51013 0.0
H273 H 0.77143 0.16688 0.52904 0.0
H274 H 0.83649 0.26832 0.5336 0.0
H275 H 0.7152 0.27356 0.51793 0.0
H276 H 0.77241 0.34892 0.47748 0.0
C277 C 0.79474 0.33036 0.48938 0.0
O278 O 0.78023 0.31306 0.52135 0.0
H279 H 0.80112 0.30953 0.46678 0.0
C280 C 0.77226 0.19726 0.52922 0.0
C281 C 0.73838 0.21748 0.52514 0.0
C282 C 0.80739 0.21528 0.53259 0.0
C283 C 0.8093 0.25424 0.53095 0.0
C284 C 0.77655 0.27531 0.52446 0.0
C285 C 0.74072 0.25705 0.52172 0.0
H286 H 0.26942 0.8725 0.52124 0.0
H287 H 0.20631 0.77003 0.53161 0.0
H288 H 0.32572 0.76663 0.50538 0.0
H289 H 0.2674 0.68809 0.47343 0.0
C290 C 0.2463 0.70806 0.48518 0.0
O291 O 0.26247 0.72614 0.51603 0.0
H292 H 0.23978 0.72824 0.46208 0.0
C293 C 0.26862 0.84213 0.52084 0.0
C294 C 0.30194 0.82223 0.51307 0.0
C295 C 0.23404 0.82373 0.52672 0.0
C296 C 0.23288 0.78462 0.52665 0.0
C297 C 0.26551 0.76394 0.51838 0.0
C298 C 0.3004 0.78266 0.5118 0.0
H299 H 0.27354 0.1695 0.50644 0.0
H300 H 0.20422 0.26802 0.5115 0.0
H301 H 0.3262 0.27854 0.51077 0.0
H302 H 0.26832 0.35199 0.55639 0.0
C303 C 0.24557 0.33385 0.54442 0.0
O304 O 0.25972 0.3154 0.5129 0.0
H305 H 0.23781 0.31373 0.56717 0.0
C306 C 0.27135 0.19981 0.50761 0.0
C307 C 0.30446 0.22156 0.50746 0.0
C308 C 0.23542 0.21617 0.50933 0.0
C309 C 0.23204 0.25509 0.51015 0.0
C310 C 0.26447 0.27771 0.51142 0.0
C311 C 0.30105 0.26102 0.51043 0.0
C312 C 0.01893 0.93206 0.60944 0.0
C313 C 0.02071 0.92725 0.42314 0.0
C314 C 0.01993 0.11346 0.604 0.0
C315 C 0.01897 0.10825 0.41823 0.0
C316 C 0.93032 0.11133 0.51945 0.0
C317 C 0.92823 0.93049 0.5082 0.0
C318 C 0.11241 0.11013 0.5126 0.0
C319 C 0.11062 0.92834 0.51962 0.0
C320 C 0.1128 0.02138 0.42195 0.0
C321 C 0.92961 1.01974 0.42101 0.0
C322 C 0.1119 1.01962 0.60718 0.0
C323 C 0.92833 0.02067 0.60548 0.0
Eu324 Eu 0.0196 0.94875 0.51593 0.0
O325 O 0.9871 0.98639 0.48138 0.0
O326 O 0.05349 0.98771 0.54829 0.0
Eu327 Eu 0.94878 0.02067 0.51343 0.0
Eu328 Eu 0.09284 1.01936 0.51449 0.0
O329 O 0.9861 0.98775 0.54848 0.0
O330 O 0.0545 0.98505 0.48141 0.0
Eu331 Eu 0.02031 0.02235 0.5854 0.0
Eu332 Eu 0.02109 1.01807 0.44257 0.0
O333 O 0.98745 0.05447 0.54589 0.0
O334 O 0.98694 0.05304 0.47881 0.0
O335 O 0.05482 0.05211 0.47996 0.0
O336 O 0.05456 0.0544 0.54661 0.0
Eu337 Eu 0.02099 0.09142 0.51158 0.0
O338 O 0.01757 0.91902 0.5738 0.0
O339 O 0.01842 0.91655 0.45942 0.0
O340 O 0.01944 0.12392 0.56762 0.0
O341 O 0.01883 0.12126 0.45387 0.0
O342 O 0.91838 0.07587 0.52008 0.0
O343 O 0.91709 0.96614 0.50725 0.0
O344 O 0.12404 0.07468 0.51552 0.0
O345 O 0.12303 0.96366 0.51832 0.0
O346 O 0.07656 0.02154 0.41104 0.0
O347 O 0.96558 1.01524 0.4102 0.0
O348 O 0.07569 0.02161 0.61788 0.0
O349 O 0.96426 0.02465 0.61698 0.0
O350 O 0.07668 0.12205 0.51009 0.0
O351 O 0.96582 0.12307 0.51417 0.0
O352 O 0.07461 0.91694 0.51835 0.0
O353 O 0.96357 0.91815 0.51333 0.0
O354 O 0.02319 0.96259 0.41124 0.0
O355 O 0.01956 0.07201 0.40881 0.0
O356 O 0.0201 0.96827 0.61895 0.0
O357 O 0.02138 0.0782 0.61635 0.0
O358 O 0.91694 1.01685 0.56953 0.0
O359 O 0.9178 0.02432 0.45668 0.0
O360 O 0.12436 1.01842 0.57144 0.0
O361 O 0.12517 1.01943 0.45781 0.0
C362 C 0.52325 0.93043 0.1058 0.0
C363 C 0.51286 0.11063 0.1034 0.0
C364 C 0.5211 0.92727 0.92331 0.0
C365 C 0.5211 0.10878 0.92142 0.0
C366 C 0.61351 0.0201 0.92348 0.0
C367 C 0.61183 0.02244 0.10513 0.0
C368 C 0.4272 0.0214 0.92093 0.0
C369 C 0.42542 1.01816 0.10326 0.0
C370 C 0.42474 0.10879 0.01561 0.0
C371 C 0.6124 0.10974 0.01643 0.0
C372 C 0.42563 0.92815 1.011 0.0
C373 C 0.61287 0.92898 0.01538 0.0
Eu374 Eu 0.51864 1.01994 0.08495 0.0
O375 O 0.55231 0.05352 0.0472 0.0
O376 O 0.48523 0.98552 0.04699 0.0
Eu377 Eu 0.59017 1.01946 0.01412 0.0
Eu378 Eu 0.44775 1.01875 1.01239 0.0
O379 O 0.55223 0.98615 0.04738 0.0
O380 O 0.4856 0.05247 0.04585 0.0
Eu381 Eu 0.51931 0.94745 0.01388 0.0
Eu382 Eu 0.51884 0.09097 1.01288 0.0
O383 O 0.553 0.98532 0.98023 0.0
O384 O 0.55268 0.05261 0.97987 0.0
O385 O 0.4859 0.05231 0.97894 0.0
O386 O 0.48611 0.9851 0.97938 0.0
Eu387 Eu 0.52001 1.01844 0.94142 0.0
O388 O 0.52207 0.96594 0.1173 0.0
O389 O 0.51241 0.0752 0.11518 0.0
O390 O 0.51909 0.96259 0.91125 0.0
O391 O 0.52029 0.07326 0.90965 0.0
O392 O 0.62341 0.0213 0.95979 0.0
O393 O 0.62236 1.01943 0.06916 0.0
O394 O 0.41559 0.02235 0.95676 0.0
O395 O 0.41446 1.01953 0.06721 0.0
O396 O 0.46075 0.1216 0.01438 0.0
O397 O 0.57642 0.12219 0.01434 0.0
O398 O 0.46181 0.91599 1.01172 0.0
O399 O 0.57679 0.91662 0.0156 0.0
O400 O 0.46341 1.01872 0.9096 0.0
O401 O 0.57766 1.01778 0.91054 0.0
O402 O 0.4615 1.01689 0.11539 0.0
O403 O 0.57564 0.02413 0.11702 0.0
O404 O 0.51697 0.12243 0.06801 0.0
O405 O 0.52084 0.12083 0.95707 0.0
O406 O 0.52185 0.91815 0.0702 0.0
O407 O 0.52257 0.91567 0.95897 0.0
O408 O 0.62303 0.96501 0.01434 0.0
O409 O 0.6227 0.07385 0.01655 0.0
O410 O 0.41519 0.96406 1.0113 0.0
O411 O 0.41513 0.07275 0.01519 0.0
C412 C 0.01803 0.42981 0.10645 0.0
C413 C 0.01398 0.42397 0.92359 0.0
C414 C 0.01636 0.61415 0.10114 0.0
C415 C 0.01583 0.60825 0.91845 0.0
C416 C 0.92667 0.61156 1.00971 0.0
C417 C 0.92504 0.42804 0.02219 0.0
C418 C 0.11042 0.60962 1.01327 0.0
C419 C 0.10784 0.42593 0.01435 0.0
C420 C 0.10839 0.5157 0.9208 0.0
C421 C 0.92552 0.50695 0.92212 0.0
C422 C 0.10892 0.51577 0.10352 0.0
C423 C 0.92585 0.51892 0.10305 0.0
Eu424 Eu 0.01638 0.44771 0.01467 0.0
O425 O 0.98324 0.48495 0.98014 0.0
O426 O 0.05049 0.48643 0.04685 0.0
Eu427 Eu 0.94536 0.51955 1.01258 0.0
Eu428 Eu 0.08915 0.51781 1.01223 0.0
O429 O 0.98373 0.48736 0.04695 0.0
O430 O 0.05046 0.48379 0.97958 0.0
Eu431 Eu 0.01774 0.52137 0.08422 0.0
Eu432 Eu 0.01697 0.51638 0.94055 0.0
O433 O 0.9843 0.55369 0.04496 0.0
O434 O 0.98358 0.55158 0.97747 0.0
O435 O 0.05144 0.55059 0.9775 0.0
O436 O 0.05177 0.55297 0.04495 0.0
Eu437 Eu 0.01837 0.58991 1.01002 0.0
O438 O 0.01551 0.41753 0.07094 0.0
O439 O 0.01244 0.41448 0.96 0.0
O440 O 0.01815 0.62349 0.06466 0.0
O441 O 0.0196 0.62034 0.95392 0.0
O442 O 0.91453 0.57597 1.01134 0.0
O443 O 0.91376 0.46391 0.02093 0.0
O444 O 0.12151 0.57369 0.01521 0.0
O445 O 0.12 0.46139 1.01127 0.0
O446 O 0.07246 0.51644 0.90884 0.0
O447 O 0.96135 0.50877 0.91025 0.0
O448 O 0.07354 0.52143 0.11549 0.0
O449 O 0.96185 0.51767 0.11475 0.0
O450 O 0.07457 0.6213 1.00986 0.0
O451 O 0.96297 0.6224 1.00842 0.0
O452 O 0.07164 0.41511 0.01668 0.0
O453 O 0.96074 0.41622 0.01861 0.0
O454 O 0.0173 0.45904 0.9104 0.0
O455 O 0.01311 0.57212 0.90785 0.0
O456 O 0.02025 0.46589 0.11707 0.0
O457 O 0.01548 0.57882 0.11418 0.0
O458 O 0.91369 0.52199 0.0676 0.0
O459 O 0.91341 0.51184 0.95747 0.0
O460 O 0.1203 0.5131 0.06774 0.0
O461 O 0.12022 0.51604 0.95662 0.0
C462 C 0.51957 0.43471 0.10887 0.0
C463 C 0.52193 0.61523 0.1024 0.0
C464 C 0.51319 0.42794 0.92315 0.0
C465 C 0.5206 0.60949 0.91633 0.0
C466 C 0.6105 0.51859 0.91902 0.0
C467 C 0.61159 0.52317 0.10486 0.0
C468 C 0.4274 0.52067 0.92035 0.0
C469 C 0.42822 0.52566 0.10498 0.0
C470 C 0.42959 0.61366 1.01231 0.0
C471 C 0.61187 0.61153 1.00395 0.0
C472 C 0.42659 0.43266 0.01546 0.0
C473 C 0.60919 0.42987 1.01063 0.0
Eu474 Eu 0.51982 0.52448 0.08351 0.0
O475 O 0.5543 0.55621 0.04453 0.0
O476 O 0.48511 0.49001 0.04739 0.0
Eu477 Eu 0.59187 0.52097 1.01193 0.0
Eu478 Eu 0.44768 0.52293 1.01262 0.0
O479 O 0.5532 0.48931 0.04687 0.0
O480 O 0.4866 0.55705 0.0446 0.0
Eu481 Eu 0.51827 0.4506 0.01533 0.0
Eu482 Eu 0.52064 0.59324 1.00984 0.0
O483 O 0.55241 0.48676 0.98011 0.0
O484 O 0.55328 0.55331 0.97784 0.0
O485 O 0.48591 0.55475 0.97763 0.0
O486 O 0.48532 0.48788 0.9805 0.0
Eu487 Eu 0.51896 0.51925 0.94102 0.0
O488 O 0.52042 0.47102 0.11789 0.0
O489 O 0.51916 0.58002 0.11451 0.0
O490 O 0.51653 0.46302 0.91055 0.0
O491 O 0.52077 0.57317 0.907 0.0
O492 O 0.62304 0.51998 0.95485 0.0
O493 O 0.62393 0.52065 0.06902 0.0
O494 O 0.41565 0.5212 0.9563 0.0
O495 O 0.41636 0.52544 0.069 0.0
O496 O 0.4655 0.62523 1.01017 0.0
O497 O 0.57627 0.62378 1.00601 0.0
O498 O 0.46223 0.42038 0.01744 0.0
O499 O 0.57327 0.41858 0.01394 0.0
O500 O 0.46338 0.52038 0.90884 0.0
O501 O 0.57403 0.5174 0.90887 0.0
O502 O 0.46443 0.52491 0.1162 0.0
O503 O 0.57532 0.52573 0.11523 0.0
O504 O 0.52397 0.62572 0.06604 0.0
O505 O 0.51999 0.62255 0.95193 0.0
O506 O 0.51819 0.42128 0.0734 0.0
O507 O 0.51294 0.41781 0.95963 0.0
O508 O 0.62164 0.46515 1.00943 0.0
O509 O 0.62353 0.57599 1.00603 0.0
O510 O 0.41548 0.46829 1.01314 0.0
O511 O 0.41733 0.57836 1.01356 0.0
C512 C 0.01952 0.43322 0.60553 0.0
C513 C 0.02572 0.4297 0.42348 0.0
C514 C 0.0199 0.61445 0.60179 0.0
C515 C 0.01673 0.61018 0.41993 0.0
C516 C 0.92601 0.61186 0.51455 0.0
C517 C 0.92676 0.43036 0.5111 0.0
C518 C 0.11308 0.61262 0.51042 0.0
C519 C 0.11411 0.4324 0.51722 0.0
C520 C 0.11344 0.51827 0.42206 0.0
C521 C 0.92738 0.5231 0.42138 0.0
C522 C 0.11363 0.52407 0.60356 0.0
C523 C 0.92756 0.5212 0.60417 0.0
Eu524 Eu 0.02017 0.45024 0.51385 0.0
O525 O 0.98651 0.48741 0.47914 0.0
O526 O 0.05358 0.4891 0.54684 0.0
Eu527 Eu 0.94839 0.52111 0.51267 0.0
Eu528 Eu 0.09108 0.52228 0.51281 0.0
O529 O 0.98671 0.48873 0.54699 0.0
O530 O 0.05342 0.48805 0.47995 0.0
Eu531 Eu 0.02046 0.52317 0.58454 0.0
Eu532 Eu 0.0205 0.52073 0.44102 0.0
O533 O 0.98657 0.55543 0.54563 0.0
O534 O 0.98665 0.55414 0.47894 0.0
O535 O 0.0538 0.55552 0.47832 0.0
O536 O 0.05353 0.55636 0.54602 0.0
Eu537 Eu 0.01972 0.59338 0.51162 0.0
O538 O 0.01737 0.42105 0.56998 0.0
O539 O 0.02396 0.41817 0.45915 0.0
O540 O 0.02211 0.62578 0.56611 0.0
O541 O 0.01519 0.62237 0.45549 0.0
O542 O 0.9157 0.57584 0.51348 0.0
O543 O 0.91616 0.46623 0.512 0.0
O544 O 0.1235 0.57678 0.51187 0.0
O545 O 0.1239 0.46838 0.51561 0.0
O546 O 0.07757 0.52063 0.40942 0.0
O547 O 0.96361 0.52259 0.40978 0.0
O548 O 0.0777 0.52537 0.61612 0.0
O549 O 0.96381 0.52289 0.61572 0.0
O550 O 0.07699 0.62482 0.50894 0.0
O551 O 0.96215 0.62413 0.51444 0.0
O552 O 0.07809 0.41965 0.51756 0.0
O553 O 0.96301 0.41853 0.5112 0.0
O554 O 0.02393 0.46497 0.41125 0.0
O555 O 0.02054 0.57485 0.40845 0.0
O556 O 0.02205 0.46875 0.61697 0.0
O557 O 0.01812 0.57921 0.61408 0.0
O558 O 0.9161 0.52 0.5682 0.0
O559 O 0.91582 0.52182 0.45721 0.0
O560 O 0.12383 0.52297 0.56742 0.0
O561 O 0.12387 0.51785 0.45824 0.0
C562 C 0.51981 0.93118 0.60538 0.0
C563 C 0.51871 0.92755 0.42274 0.0
C564 C 0.51336 0.11552 0.6027 0.0
C565 C 0.5214 0.11196 0.42 0.0
C566 C 0.42834 0.11489 0.5095 0.0
C567 C 0.42509 0.93056 0.50955 0.0
C568 C 0.6114 0.11218 0.51531 0.0
C569 C 0.60852 0.9289 0.51384 0.0
C570 C 0.61052 1.01706 0.42314 0.0
C571 C 0.42786 0.02903 0.41982 0.0
C572 C 0.6071 1.01932 0.60577 0.0
C573 C 0.42392 0.02043 0.60099 0.0
Eu574 Eu 0.51676 0.95054 0.51398 0.0
O575 O 0.48387 0.98756 0.47832 0.0
O576 O 0.55008 0.98893 0.54722 0.0
Eu577 Eu 0.44591 0.02241 0.51078 0.0
Eu578 Eu 0.58958 0.0208 0.51402 0.0
O579 O 0.48277 0.9893 0.54625 0.0
O580 O 0.55124 0.98751 0.4805 0.0
Eu581 Eu 0.51638 0.02305 0.58442 0.0
Eu582 Eu 0.51899 0.02005 0.44064 0.0
O583 O 0.48416 0.05584 0.54468 0.0
O584 O 0.48589 0.05435 0.47818 0.0
O585 O 0.5528 0.05396 0.47876 0.0
O586 O 0.55175 0.05542 0.54684 0.0
Eu587 Eu 0.51935 0.0927 0.5116 0.0
O588 O 0.51648 0.9193 0.56978 0.0
O589 O 0.51952 0.9179 0.45912 0.0
O590 O 0.51749 0.12548 0.5666 0.0
O591 O 0.51857 0.12362 0.45571 0.0
O592 O 0.41581 0.07938 0.50855 0.0
O593 O 0.41386 0.96641 0.50741 0.0
O594 O 0.62228 0.07627 0.51779 0.0
O595 O 0.62056 0.96446 0.51153 0.0
O596 O 0.57491 1.01515 0.41054 0.0
O597 O 0.46396 0.02718 0.40865 0.0
O598 O 0.57144 0.02472 0.61705 0.0
O599 O 0.45967 1.0192 0.61352 0.0
O600 O 0.57562 0.12396 0.51165 0.0
O601 O 0.46456 0.1256 0.51126 0.0
O602 O 0.57231 0.918 0.51632 0.0
O603 O 0.46091 0.91904 0.51334 0.0
O604 O 0.51654 0.9629 0.40987 0.0
O605 O 0.52368 0.07602 0.40887 0.0
O606 O 0.52098 0.9672 0.6164 0.0
O607 O 0.51187 0.07997 0.61503 0.0
O608 O 0.41264 0.02313 0.56517 0.0
O609 O 0.41519 0.02597 0.45507 0.0
O610 O 0.61918 1.0161 0.57026 0.0
O611 O 0.62163 0.02102 0.45896 0.0
C612 C 0.20208 0.1617 0.53716 0.0
C613 C 0.20183 0.19172 0.51152 0.0
C614 C 0.17275 0.13547 0.53744 0.0
C615 C 0.14191 0.13887 0.51258 0.0
H616 H 0.22551 0.15809 0.55675 0.0
H617 H 0.17422 0.11239 0.55722 0.0
S618 S 0.12728 0.21254 0.44045 0.0
N619 N 0.16819 0.22347 0.46074 0.0
N620 N 0.11203 0.1745 0.46216 0.0
C621 C 0.14051 0.16935 0.48764 0.0
C622 C 0.17074 0.19582 0.48695 0.0
C623 C 0.87084 0.198 0.50733 0.0
C624 C 0.84218 0.19255 0.53438 0.0
C625 C 0.90041 0.17216 0.50348 0.0
C626 C 0.90168 0.14007 0.52625 0.0
H627 H 0.86926 0.22118 0.4877 0.0
H628 H 0.92125 0.17632 0.48139 0.0
S629 S 0.8378 0.11703 0.60593 0.0
N630 N 0.82009 0.15593 0.58788 0.0
N631 N 0.8754 0.10684 0.58005 0.0
C632 C 0.8748 0.13571 0.55508 0.0
C633 C 0.84507 0.16218 0.55933 0.0
C634 C 0.86764 0.8448 0.52296 0.0
C635 C 0.83767 0.8507 0.4973 0.0
C636 C 0.89785 0.87017 0.52547 0.0
C637 C 0.8986 0.90226 0.50268 0.0
H638 H 0.86684 0.82143 0.54242 0.0
H639 H 0.91979 0.86554 0.54649 0.0
S640 S 0.83056 0.92691 0.42662 0.0
N641 N 0.81322 0.88813 0.44529 0.0
N642 N 0.86975 0.93635 0.45062 0.0
C643 C 0.87007 0.90731 0.47541 0.0
C644 C 0.83961 0.88133 0.47255 0.0
C645 C 0.19893 0.8787 0.55192 0.0
C646 C 0.19908 0.84629 0.52924 0.0
C647 C 0.16984 0.90501 0.54882 0.0
C648 C 0.13949 0.89926 0.52372 0.0
H649 H 0.22233 0.88452 0.57103 0.0
H650 H 0.17142 0.93028 0.56576 0.0
S651 S 0.12537 0.81839 0.4594 0.0
N652 N 0.16584 0.80956 0.48136 0.0
N653 N 0.11 0.85847 0.47702 0.0
C654 C 0.13805 0.86613 0.50238 0.0
C655 C 0.16812 0.83964 0.5049 0.0
C656 C 0.53218 0.19595 0.16281 0.0
C657 C 0.5063 0.19144 0.19267 0.0
C658 C 0.53312 0.17035 0.13292 0.0
C659 C 0.50861 0.13933 0.13245 0.0
H660 H 0.55304 0.2183 0.16343 0.0
H661 H 0.55435 0.17383 0.11107 0.0
S662 S 0.43171 0.11822 0.20047 0.0
N663 N 0.45231 0.15643 0.21728 0.0
N664 N 0.45509 0.1075 0.16153 0.0
C665 C 0.48125 0.13559 0.16089 0.0
C666 C 0.47982 0.16193 0.19094 0.0
C667 C 0.84229 0.54246 0.16437 0.0
C668 C 0.84589 0.51602 0.19351 0.0
C669 C 0.86748 0.54235 0.13393 0.0
C670 C 0.89703 0.51608 0.13227 0.0
H671 H 0.82103 0.56434 0.16597 0.0
H672 H 0.86497 0.56393 0.1126 0.0
S673 S 0.91438 0.43723 0.19778 0.0
N674 N 0.87788 0.45992 0.21612 0.0
N675 N 0.92592 0.46039 0.15916 0.0
C676 C 0.89954 0.4882 0.15991 0.0
C677 C 0.87371 0.48798 0.19056 0.0
C678 C 0.55578 0.84255 0.15364 0.0
C679 C 0.53343 0.84177 0.1865 0.0
C680 C 0.55274 0.87193 0.12806 0.0
C681 C 0.5279 0.90184 0.13485 0.0
H682 H 0.57489 0.81967 0.14706 0.0
H683 H 0.56965 0.87105 0.10257 0.0
S684 S 0.46568 0.91491 0.21807 0.0
N685 N 0.48689 0.87431 0.22536 0.0
N686 N 0.48272 0.93074 0.17772 0.0
C687 C 0.50721 0.90276 0.16864 0.0
C688 C 0.50966 0.87239 0.19445 0.0
C689 C 0.16966 0.53592 0.18872 0.0
C690 C 0.19865 0.50902 0.18528 0.0
C691 C 0.13971 0.53714 0.16277 0.0
C692 C 0.13827 0.51184 0.13243 0.0
H693 H 0.1711 0.55733 0.21043 0.0
H694 H 0.11858 0.55905 0.16543 0.0
S695 S 0.20355 0.43245 0.1144 0.0
N696 N 0.22132 0.45359 0.1521 0.0
N697 N 0.16535 0.45663 0.10259 0.0
C698 C 0.16577 0.48356 0.12983 0.0
C699 C 0.19592 0.48194 0.15651 0.0
C700 C 0.55789 0.85173 0.859 0.0
C701 C 0.5289 0.84972 0.83174 0.0
C702 C 0.55452 0.87595 0.88998 0.0
C703 C 0.52214 0.89852 0.89413 0.0
H704 H 0.58373 0.83559 0.85559 0.0
H705 H 0.57789 0.8782 0.90987 0.0
S706 S 0.43606 0.8984 0.83391 0.0
N707 N 0.46522 0.86861 0.81316 0.0
N708 N 0.45901 0.91417 0.87151 0.0
C709 C 0.49219 0.89504 0.86831 0.0
C710 C 0.49554 0.87051 0.83698 0.0
C711 C 0.19895 0.48783 0.87239 0.0
C712 C 0.19945 0.51102 0.84035 0.0
C713 C 0.16898 0.4893 0.898 0.0
C714 C 0.13806 0.51333 0.89203 0.0
H715 H 0.22236 0.46898 0.87819 0.0
H716 H 0.17015 0.47168 0.92283 0.0
S717 S 0.12471 0.57881 0.81212 0.0
N718 N 0.16605 0.55852 0.80383 0.0
N719 N 0.10864 0.55992 0.85152 0.0
C720 C 0.13718 0.53549 0.85939 0.0
C721 C 0.16814 0.53459 0.83356 0.0
C722 C 0.54622 0.1984 0.87214 0.0
C723 C 0.51939 0.19967 0.84272 0.0
C724 C 0.54736 0.16807 0.89689 0.0
C725 C 0.52204 0.13793 0.89262 0.0
H726 H 0.56584 0.22144 0.87658 0.0
H727 H 0.56776 0.16845 0.91989 0.0
S728 S 0.44603 0.12804 0.82084 0.0
N729 N 0.46657 0.16853 0.81105 0.0
N730 N 0.46953 0.11079 0.85726 0.0
C731 C 0.49588 0.13818 0.86273 0.0
C732 C 0.49436 0.1693 0.83776 0.0
C733 C 0.83797 0.51422 0.86148 0.0
C734 C 0.84587 0.48893 0.83195 0.0
C735 C 0.86294 0.51851 0.89192 0.0
C736 C 0.89707 0.49839 0.89312 0.0
H737 H 0.81367 0.53265 0.85983 0.0
H738 H 0.85664 0.53934 0.91333 0.0
S739 S 0.92888 0.42557 0.82527 0.0
N740 N 0.88796 0.44049 0.80805 0.0
N741 N 0.93615 0.44996 0.86434 0.0
C742 C 0.90448 0.47171 0.86481 0.0
C743 C 0.87856 0.46665 0.83439 0.0
C744 C 0.67242 0.69712 0.01924 0.0
C745 C 0.69917 0.69398 0.98999 0.0
C746 C 0.64344 0.67059 0.02313 0.0
C747 C 0.6409 0.6401 0.99817 0.0
H748 H 0.6751 0.71904 0.04033 0.0
H749 H 0.62389 0.67308 0.04661 0.0
S750 S 0.69924 0.62382 0.91288 0.0
N751 N 0.7181 0.66142 0.93278 0.0
N752 N 0.66366 0.61105 0.94041 0.0
C753 C 0.66589 0.63799 0.9675 0.0
C754 C 0.69508 0.66517 0.96331 0.0
C755 C 0.3444 0.66582 0.04726 0.0
C756 C 0.33908 0.69291 0.01911 0.0
C757 C 0.37468 0.64079 0.04524 0.0
C758 C 0.40045 0.64235 0.01516 0.0
H759 H 0.32446 0.66341 0.07042 0.0
H760 H 0.37773 0.61977 0.06702 0.0
S761 S 0.39805 0.70729 0.93397 0.0
N762 N 0.36134 0.71967 0.96015 0.0
N763 N 0.419 0.67253 0.95665 0.0
C764 C 0.39611 0.66986 0.98736 0.0
C765 C 0.36511 0.69526 0.98928 0.0
C766 C 0.33515 0.38423 0.99021 0.0
C767 C 0.33625 0.35166 1.01243 0.0
C768 C 0.3645 0.41038 0.99171 0.0
C769 C 0.39658 0.40429 0.01443 0.0
H770 H 0.31105 0.38994 0.972 0.0
H771 H 0.362 0.43559 0.97497 0.0
S772 S 0.41368 0.32354 0.0778 0.0
N773 N 0.3718 0.31501 0.05841 0.0
N774 N 0.42834 0.36346 0.05935 0.0
C775 C 0.39881 0.37135 0.03588 0.0
C776 C 0.36835 0.34509 0.0352 0.0
C777 C 0.66651 0.34458 0.03527 0.0
C778 C 0.69799 0.34811 1.01116 0.0
C779 C 0.63677 0.37044 0.03383 0.0
C780 C 0.63807 0.40068 1.00864 0.0
H781 H 0.66577 0.32292 0.05663 0.0
H782 H 0.61363 0.36784 0.05381 0.0
S783 S 0.71093 0.41874 0.93557 0.0
N784 N 0.72614 0.38107 0.95797 0.0
N785 N 0.67065 0.43053 0.95627 0.0
C786 C 0.66816 0.40329 0.98293 0.0
C787 C 0.69806 0.37668 0.98392 0.0
C788 C 0.04994 0.6934 0.66571 0.0
C789 C 0.02036 0.69355 0.69226 0.0
C790 C 0.04897 0.66858 0.63503 0.0
C791 C 0.01853 0.64345 0.63063 0.0
H792 H 0.07452 0.71136 0.66958 0.0
H793 H 0.07279 0.66785 0.6157 0.0
S794 S 0.93161 0.63761 0.68891 0.0
N795 N 0.95788 0.6701 0.70961 0.0
N796 N 0.95645 0.62306 0.65217 0.0
C797 C 0.9879 0.64497 0.65566 0.0
C798 C 0.9887 0.67025 0.68651 0.0
C799 C 0.34009 0.04635 0.66155 0.0
C800 C 0.34347 0.02067 0.6914 0.0
C801 C 0.36523 0.04507 0.63096 0.0
C802 C 0.39445 1.01832 0.62982 0.0
H803 H 0.31915 0.06856 0.66274 0.0
H804 H 0.36305 0.06621 0.60915 0.0
S805 S 0.41127 0.94132 0.69768 0.0
N806 N 0.37491 0.96474 0.71527 0.0
N807 N 0.42289 0.96325 0.65836 0.0
C808 C 0.39666 0.99122 0.65824 0.0
C809 C 0.37088 0.99213 0.68893 0.0
C810 C 0.99388 0.34418 0.65522 0.0
C811 C 0.02158 0.3419 0.68383 0.0
C812 C 0.99277 0.37461 0.63072 0.0
C813 C 0.01883 0.40414 0.63445 0.0
H814 H 0.97327 0.32189 0.65129 0.0
H815 H 0.97167 0.37482 0.60835 0.0
S816 S 0.09616 0.41251 0.70513 0.0
N817 N 0.0754 0.37212 0.71483 0.0
N818 N 0.07238 0.43028 0.66911 0.0
C819 C 0.04568 0.40321 0.66377 0.0
C820 C 0.04725 0.37181 0.68848 0.0
C821 C 0.66915 0.04336 0.68904 0.0
C822 C 0.69795 1.01624 0.68615 0.0
C823 C 0.63846 0.04327 0.66383 0.0
C824 C 0.63619 1.01634 0.63498 0.0
H825 H 0.67126 0.0657 0.70972 0.0
H826 H 0.61748 0.0654 0.66573 0.0
S827 S 0.70051 0.93567 0.61978 0.0
N828 N 0.71937 0.95879 0.65572 0.0
N829 N 0.66218 0.95943 0.60758 0.0
C830 C 0.66346 0.98783 0.63324 0.0
C831 C 0.69428 0.98756 0.65912 0.0
C832 C 0.01005 0.34335 0.36431 0.0
C833 C 0.03552 0.34919 0.33433 0.0
C834 C 0.008 0.36888 0.39427 0.0
C835 C 0.03102 0.40101 0.3946 0.0
H836 H 0.99031 0.32002 0.36366 0.0
H837 H 0.98708 0.36446 0.41622 0.0
S838 S 0.10679 0.42545 0.32647 0.0
N839 N 0.0878 0.38647 0.30962 0.0
N840 N 0.08309 0.43507 0.3655 0.0
C841 C 0.05818 0.40591 0.36615 0.0
C842 C 0.06068 0.37975 0.33606 0.0
C843 C 0.70182 0.03709 0.37289 0.0
C844 C 0.70207 1.01008 0.34386 0.0
C845 C 0.67178 0.03927 0.39825 0.0
C846 C 0.6406 1.01506 0.39495 0.0
H847 H 0.72526 0.05658 0.37624 0.0
H848 H 0.67291 0.06012 0.42055 0.0
S849 S 0.6269 0.93989 0.32378 0.0
N850 N 0.66847 0.9587 0.31316 0.0
N851 N 0.61093 0.96364 0.36056 0.0
C852 C 0.63971 0.98864 0.3655 0.0
C853 C 0.67073 0.986 0.33989 0.0
C854 C 0.04155 0.67114 0.33723 0.0
C855 C 0.01496 0.70028 0.34089 0.0
C856 C 0.04087 0.64062 0.36191 0.0
C857 C 0.01386 0.63886 0.39093 0.0
H858 H 0.06392 0.67275 0.31631 0.0
H859 H 0.06265 0.61933 0.35949 0.0
S860 S 0.93433 0.7045 0.40811 0.0
N861 N 0.95778 0.72276 0.37223 0.0
N862 N 0.95739 0.66584 0.41937 0.0
C863 C 0.98581 0.66653 0.3934 0.0
C864 C 0.98612 0.6972 0.3681 0.0
C865 C 0.34054 1.01414 0.36045 0.0
C866 C 0.34622 0.03907 0.33024 0.0
C867 C 0.36643 1.01228 0.39027 0.0
C868 C 0.39928 0.03446 0.39037 0.0
H869 H 0.31699 0.99454 0.36027 0.0
H870 H 0.36164 0.99215 0.41249 0.0
S871 S 0.42425 0.10877 0.32191 0.0
N872 N 0.38435 0.09046 0.30538 0.0
N873 N 0.43421 0.08525 0.3608 0.0
C874 C 0.40441 0.06096 0.36168 0.0
C875 C 0.37754 0.06366 0.33174 0.0
C876 C 0.99475 0.19575 0.35989 0.0
C877 C 1.00448 0.18516 0.32271 0.0
C878 C 1.00088 0.17157 0.39088 0.0
C879 C 0.01688 0.13564 0.386 0.0
H880 H 0.98109 0.22248 0.36493 0.0
H881 H 0.99162 0.18057 0.41858 0.0
S882 S 0.05191 0.09668 0.29488 0.0
N883 N 0.03419 0.13794 0.28343 0.0
N884 N 0.04578 0.09261 0.34089 0.0
C885 C 0.02858 0.12571 0.34911 0.0
C886 C 0.02247 0.15041 0.31776 0.0
C887 C 0.84171 0.04642 0.36508 0.0
C888 C 0.84076 1.01983 0.33552 0.0
C889 C 0.87069 0.04639 0.39232 0.0
C890 C 0.90043 0.02028 0.39071 0.0
H891 H 0.81864 0.06627 0.36828 0.0
H892 H 0.8695 0.06666 0.41512 0.0
S893 S 0.91251 0.94587 0.31832 0.0
N894 N 0.87279 0.9673 0.30586 0.0
N895 N 0.92827 0.96808 0.35628 0.0
C896 C 0.90107 0.99478 0.36024 0.0
C897 C 0.87107 0.99442 0.33277 0.0
C898 C 0.98936 0.84062 0.36821 0.0
C899 C 0.01509 0.83864 0.3376 0.0
C900 C 0.99157 0.86909 0.39564 0.0
C901 C 0.01892 0.89765 0.39331 0.0
H902 H 0.96813 0.81892 0.37189 0.0
H903 H 0.97168 0.86865 0.41896 0.0
S904 S 0.09143 0.90769 0.31798 0.0
N905 N 0.06813 0.86908 0.3063 0.0
N906 N 0.07103 0.92366 0.35681 0.0
C907 C 0.04347 0.89747 0.36185 0.0
C908 C 0.04177 0.86787 0.33423 0.0
C909 C 0.1571 0.05962 0.33286 0.0
C910 C 0.18012 0.03007 0.31977 0.0
C911 C 0.13765 0.05744 0.36737 0.0
C912 C 0.14046 0.02571 0.39064 0.0
H913 H 0.15286 0.0842 0.31546 0.0
H914 H 0.11903 0.0803 0.37528 0.0
S915 S 0.19683 0.94043 0.37057 0.0
N916 N 0.20453 0.96766 0.33369 0.0
N917 N 0.1683 0.96419 0.39882 0.0
C918 C 0.16415 0.99633 0.3788 0.0
C919 C 0.18376 0.99827 0.34327 0.0
C920 C 0.99242 0.84726 0.67057 0.0
C921 C 0.00666 0.85709 0.70661 0.0
C922 C 0.99798 0.87054 0.63879 0.0
C923 C 0.01782 0.9048 0.64175 0.0
H924 H 0.9756 0.82202 0.66719 0.0
H925 H 0.98514 0.86243 0.61216 0.0
S926 S 0.06532 0.94075 0.72862 0.0
N927 N 0.04472 0.90146 0.7423 0.0
N928 N 0.05519 0.94509 0.68329 0.0
C929 C 0.03403 0.91374 0.67723 0.0
C930 C 0.02854 0.88994 0.70937 0.0
C931 C 0.17145 0.04402 0.69342 0.0
C932 C 0.18116 1.00851 0.70798 0.0
C933 C 0.15108 0.04767 0.65928 0.0
C934 C 0.13968 1.01598 0.63842 0.0
H935 H 0.17851 0.06917 0.70913 0.0
H936 H 0.1429 0.07539 0.64989 0.0
S937 S 0.15566 0.91689 0.66474 0.0
N938 N 0.17639 0.94109 0.69892 0.0
N939 N 0.13822 0.94819 0.63515 0.0
C940 C 0.14927 0.98049 0.65239 0.0
C941 C 0.16989 0.9767 0.68707 0.0
C942 C 0.04187 0.17444 0.69057 0.0
C943 C 0.01492 0.20346 0.68756 0.0
C944 C 0.04281 0.14474 0.66407 0.0
C945 C 0.01735 0.14345 0.63322 0.0
H946 H 0.0635 0.17566 0.71237 0.0
H947 H 0.06463 0.12352 0.66682 0.0
S948 S 0.93752 0.2089 0.61602 0.0
N949 N 0.95897 0.22588 0.65396 0.0
N950 N 0.9618 0.1712 0.60389 0.0
C951 C 0.98908 0.17105 0.63116 0.0
C952 C 0.98756 0.20067 0.6584 0.0
C953 C 0.84145 0.99024 0.66091 0.0
C954 C 0.83841 1.01754 0.68971 0.0
C955 C 0.87063 0.99143 0.634 0.0
C956 C 0.89868 1.0194 0.63523 0.0
H957 H 0.82006 0.96851 0.65821 0.0
H958 H 0.87107 0.9704 0.61188 0.0
S959 S 0.90509 0.09674 0.70514 0.0
N960 N 0.86673 0.07316 0.71784 0.0
N961 N 0.92266 0.07437 0.6682 0.0
C962 C 0.89727 0.04583 0.6648 0.0
C963 C 0.86698 0.04509 0.69187 0.0
C964 C 0.37241 0.99435 0.19324 0.0
C965 C 0.34059 1.01833 0.19249 0.0
C966 C 0.39919 0.99418 0.16402 0.0
C967 C 0.39506 1.01739 0.13237 0.0
H968 H 0.37758 0.97672 0.21758 0.0
H969 H 0.42364 0.97606 0.16648 0.0
S970 S 0.31619 0.08435 0.11558 0.0
N971 N 0.30604 0.06536 0.15689 0.0
N972 N 0.35584 0.06413 0.10114 0.0
C973 C 0.36243 0.04021 0.1302 0.0
C974 C 0.3353 0.04082 0.1604 0.0
C975 C 0.05284 0.37393 0.19092 0.0
C976 C 0.02508 0.34557 0.19538 0.0
C977 C 0.05014 0.40107 0.16239 0.0
C978 C 0.02006 0.40063 0.13633 0.0
H979 H 0.07628 0.37605 0.21075 0.0
H980 H 0.07181 0.42262 0.16076 0.0
S981 S 0.94074 0.33202 0.13372 0.0
N982 N 0.96674 0.31871 0.17026 0.0
N983 N 0.96266 0.36871 0.11545 0.0
C984 C 0.99304 0.37156 0.13906 0.0
C985 C 0.99535 0.34423 0.16874 0.0
C986 C 0.71262 1.01914 0.14489 0.0
C987 C 0.70971 0.0375 0.17985 0.0
C988 C 0.68057 1.01318 0.12196 0.0
C989 C 0.6439 0.02512 0.13294 0.0
H990 H 0.74019 1.01029 0.13464 0.0
H991 H 0.6849 0.9997 0.09485 0.0
S992 S 0.62045 0.0716 0.22386 0.0
N993 N 0.66694 0.0653 0.22588 0.0
N994 N 0.6066 0.05415 0.1828 0.0
C995 C 0.64031 0.04188 0.16882 0.0
C996 C 0.67316 0.04805 0.19221 0.0
C997 C 0.02325 0.7139 0.14092 0.0
C998 C 1.00357 0.71204 0.1754 0.0
C999 C 0.02826 0.68196 0.11799 0.0
C1000 C 0.01427 0.64636 0.12859 0.0
H1001 H 0.03369 0.74063 0.13088 0.0
H1002 H 0.04271 0.68545 0.09124 0.0
S1003 S 0.96295 0.62569 0.21772 0.0
N1004 N 0.97154 0.67116 0.22 0.0
N1005 N 0.98152 0.61119 0.17745 0.0
C1006 C 0.99616 0.64375 0.16398 0.0
C1007 C 0.99071 0.67646 0.18719 0.0
C1008 C 0.37322 0.99654 0.83154 0.0
C1009 C 0.34277 0.02229 0.83068 0.0
C1010 C 0.40028 0.99691 0.8606 0.0
C1011 C 0.39739 0.02177 0.89112 0.0
H1012 H 0.37709 0.97674 0.80863 0.0
H1013 H 0.42394 0.97776 0.85897 0.0
S1014 S 0.32326 0.09458 0.90346 0.0
N1015 N 0.31169 0.07373 0.86331 0.0
N1016 N 0.36147 0.07271 0.91931 0.0
C1017 C 0.36633 0.04666 0.89175 0.0
C1018 C 0.33919 0.04713 0.86138 0.0
C1019 C 0.03388 0.3484 0.84901 0.0
C1020 C 1.00052 0.32625 0.85022 0.0
C1021 C 0.03774 0.3811 0.87149 0.0
C1022 C 0.00865 0.39252 0.89627 0.0
H1023 H 0.05735 0.34028 0.83107 0.0
H1024 H 0.06409 0.3968 0.87041 0.0
S1025 S 0.91476 0.34662 0.90741 0.0
N1026 N 0.93715 0.32013 0.87635 0.0
N1027 N 0.94484 0.38038 0.9189 0.0
C1028 C 0.9751 0.37116 0.897 0.0
C1029 C 0.97094 0.33847 0.87389 0.0
C1030 C 0.67873 0.99208 0.84204 0.0
C1031 C 0.71321 1.01017 0.85147 0.0
C1032 C 0.64564 0.99705 0.86399 0.0
C1033 C 0.64589 0.02019 0.89626 0.0
H1034 H 0.6777 0.97284 0.81835 0.0
H1035 H 0.62036 0.98118 0.85676 0.0
S1036 S 0.72731 0.07805 0.92968 0.0
N1037 N 0.74422 0.05514 0.89277 0.0
N1038 N 0.68259 0.06458 0.93388 0.0
C1039 C 0.67957 0.04019 0.90445 0.0
C1040 C 0.71302 0.03523 0.88208 0.0
C1041 C 0.03815 0.69646 0.86085 0.0
C1042 C 0.01187 0.69447 0.83084 0.0
C1043 C 0.03881 0.6689 0.88949 0.0
C1044 C 0.01384 0.63784 0.88872 0.0
H1045 H 0.05953 0.71833 0.8612 0.0
H1046 H 0.06005 0.67113 0.91159 0.0
S1047 S 0.93612 0.62244 0.81955 0.0
N1048 N 0.95711 0.66125 0.80511 0.0
N1049 N 0.95967 0.60909 0.85759 0.0
C1050 C 0.98635 0.63658 0.85999 0.0
C1051 C 0.98498 0.66499 0.83153 0.0
C1052 C 0.19268 0.36791 0.98428 0.0
C1053 C 0.19671 0.3414 1.01355 0.0
C1054 C 0.16371 0.39483 0.98469 0.0
C1055 C 0.13692 0.39591 0.0139 0.0
H1056 H 0.21344 0.36906 0.96174 0.0
H1057 H 0.16255 0.41526 0.96216 0.0
S1058 S 0.13304 0.33201 0.09622 0.0
N1059 N 0.17048 0.31753 0.07212 0.0
N1060 N 0.11478 0.36721 0.07198 0.0
C1061 C 0.13912 0.36843 0.0423 0.0
C1062 C 0.16924 0.34133 0.0423 0.0
C1063 C 0.17058 0.69718 0.99427 0.0
C1064 C 0.19914 0.6949 0.02212 0.0
C1065 C 0.14131 0.67002 0.99198 0.0
C1066 C 0.14015 0.63919 0.01688 0.0
H1067 H 0.17189 0.71893 0.97305 0.0
H1068 H 0.12038 0.67231 0.96962 0.0
S1069 S 0.20465 0.62336 0.09816 0.0
N1070 N 0.22113 0.6618 0.0781 0.0
N1071 N 0.1676 0.61038 0.07253 0.0
C1072 C 0.16732 0.63773 0.04588 0.0
C1073 C 0.19631 0.66569 0.04886 0.0
C1074 C 0.36714 0.19751 0.03832 0.0
C1075 C 0.32912 0.18504 0.03566 0.0
C1076 C 0.39798 0.17338 0.03044 0.0
C1077 C 0.39206 0.13577 0.01953 0.0
H1078 H 0.37313 0.22583 0.04768 0.0
H1079 H 0.4266 0.184 0.03417 0.0
S1080 S 0.29721 0.09074 1.00533 0.0
N1081 N 0.28718 0.13383 0.01894 0.0
N1082 N 0.34403 0.08845 1.00422 0.0
C1083 C 0.35381 0.1237 0.01524 0.0
C1084 C 0.32271 0.14831 0.02315 0.0
C1085 C 0.86771 0.33761 1.01191 0.0
C1086 C 0.83609 0.34424 0.03521 0.0
C1087 C 0.89732 0.36415 1.00914 0.0
C1088 C 0.89566 0.39873 0.02846 0.0
H1089 H 0.86858 0.31287 0.99417 0.0
H1090 H 0.92085 0.35828 0.99046 0.0
S1091 S 0.82358 0.42578 0.09957 0.0
N1092 N 0.80876 0.38481 0.0834 0.0
N1093 N 0.86311 0.43517 0.07639 0.0
C1094 C 0.8658 0.40428 0.05403 0.0
C1095 C 0.83643 0.3769 0.05784 0.0
C1096 C 0.71419 0.89021 0.01551 0.0
C1097 C 0.71008 0.8536 0.02937 0.0
C1098 C 0.68255 0.91358 1.00995 0.0
C1099 C 0.64507 0.90141 0.01763 0.0
H1100 H 0.74231 0.90131 1.01002 0.0
H1101 H 0.68782 0.94184 1.00014 0.0
S1102 S 0.61864 0.80623 0.05092 0.0
N1103 N 0.6655 0.80514 0.04835 0.0
N1104 N 0.60597 0.84862 0.03719 0.0
C1105 C 0.64045 0.86401 0.02959 0.0
C1106 C 0.67287 0.84028 0.0356 0.0
C1107 C 0.83609 0.66441 0.03347 0.0
C1108 C 0.83757 0.69637 1.0101 0.0
C1109 C 0.86509 0.63746 0.03331 0.0
C1110 C 0.89735 0.6416 1.0104 0.0
H1111 H 0.81134 0.65933 0.0509 0.0
H1112 H 0.86199 0.61296 0.05105 0.0
S1113 S 0.91657 0.72097 0.9456 0.0
N1114 N 0.8748 0.73107 0.96431 0.0
N1115 N 0.93013 0.68111 0.96503 0.0
C1116 C 0.90035 0.67436 0.98842 0.0
C1117 C 0.87036 0.70162 0.98811 0.0
C1118 C 0.32523 0.8878 0.01825 0.0
C1119 C 0.32691 0.85445 0.9971 0.0
C1120 C 0.35763 0.91037 0.02381 0.0
C1121 C 0.39349 0.90049 1.0089 0.0
H1122 H 0.29825 0.89726 0.02943 0.0
H1123 H 0.35427 0.93635 0.03933 0.0
S1124 S 0.41393 0.81446 0.95351 0.0
N1125 N 0.36798 0.81158 0.96272 0.0
N1126 N 0.42882 0.8537 0.97355 0.0
C1127 C 0.39601 0.86622 0.98928 0.0
C1128 C 0.36281 0.84332 0.98331 0.0
C1129 C 0.67829 0.19128 0.99169 0.0
C1130 C 0.71206 0.18212 1.01124 0.0
C1131 C 0.64512 0.16919 0.99507 0.0
C1132 C 0.64459 0.13704 0.01803 0.0
H1133 H 0.67792 0.21495 0.97262 0.0
H1134 H 0.62044 0.17625 0.97818 0.0
S1135 S 0.72384 0.10407 0.07907 0.0
N1136 N 0.74146 0.14102 0.0572 0.0
N1137 N 0.67972 0.09962 0.06362 0.0
C1138 C 0.67753 0.12899 0.03935 0.0
C1139 C 0.71103 0.15151 0.03601 0.0
C1140 C 0.52443 0.64771 0.81519 0.0
C1141 C 0.51261 0.68519 0.8188 0.0
C1142 C 0.52781 0.62407 0.84682 0.0
C1143 C 0.5201 0.6368 0.88389 0.0
H1144 H 0.5299 0.63614 0.78742 0.0
H1145 H 0.53606 0.59523 0.84189 0.0
S1146 S 0.49215 0.73408 0.90923 0.0
N1147 N 0.49498 0.73456 0.86271 0.0
N1148 N 0.50325 0.69102 0.92216 0.0
C1149 C 0.51028 0.67493 0.88807 0.0
C1150 C 0.50611 0.6988 0.85566 0.0
C1151 C 0.36138 0.54797 0.83976 0.0
C1152 C 0.33958 0.51526 0.8346 0.0
C1153 C 0.39049 0.54945 0.86716 0.0
C1154 C 0.39815 0.51847 0.89048 0.0
H1155 H 0.35465 0.57301 0.82388 0.0
H1156 H 0.40618 0.57533 0.87104 0.0
S1157 S 0.35214 0.42527 0.88526 0.0
N1158 N 0.32979 0.45044 0.85303 0.0
N1159 N 0.3844 0.45336 0.90417 0.0
C1160 C 0.37787 0.48522 0.8843 0.0
C1161 C 0.34858 0.48359 0.85643 0.0
C1162 C 0.52868 0.36719 0.83498 0.0
C1163 C 0.50273 0.33751 0.84006 0.0
C1164 C 0.53126 0.39695 0.86134 0.0
C1165 C 0.50852 0.39779 0.89413 0.0
H1166 H 0.54843 0.36645 0.81158 0.0
H1167 H 0.55237 0.41861 0.85685 0.0
S1168 S 0.43187 0.33039 0.91749 0.0
N1169 N 0.4504 0.31383 0.87801 0.0
N1170 N 0.45623 0.3687 0.92767 0.0
C1171 C 0.48112 0.36947 0.89837 0.0
C1172 C 0.47795 0.33972 0.87132 0.0
C1173 C 0.64864 0.52681 0.81852 0.0
C1174 C 0.6876 0.53357 0.8236 0.0
C1175 C 0.62453 0.52071 0.8494 0.0
C1176 C 0.63828 0.52063 0.88701 0.0
H1177 H 0.63641 0.52743 0.79041 0.0
H1178 H 0.59456 0.51694 0.84344 0.0
S1179 S 0.73951 0.53156 0.91508 0.0
N1180 N 0.73961 0.53693 0.86877 0.0
N1181 N 0.69477 0.52374 0.92673 0.0
C1182 C 0.67775 0.52495 0.89226 0.0
C1183 C 0.70225 0.5318 0.86066 0.0
C1184 C 0.49463 0.34969 0.1703 0.0
C1185 C 0.50744 0.36045 0.20656 0.0
C1186 C 0.50024 0.3728 0.13843 0.0
C1187 C 0.51859 0.40784 0.1415 0.0
H1188 H 0.47898 0.32376 0.16674 0.0
H1189 H 0.48876 0.3638 0.11152 0.0
S1190 S 0.56236 0.44642 0.22917 0.0
N1191 N 0.54289 0.40655 0.24274 0.0
N1192 N 0.55328 0.44993 0.18355 0.0
C1193 C 0.53342 0.41779 0.17731 0.0
C1194 C 0.52796 0.39414 0.20955 0.0
C1195 C 0.65086 0.53496 0.20432 0.0
C1196 C 0.68172 0.51006 0.20544 0.0
C1197 C 0.62994 0.54056 0.17098 0.0
C1198 C 0.63913 0.52184 0.13703 0.0
H1199 H 0.64192 0.54918 0.22985 0.0
H1200 H 0.60549 0.55896 0.17218 0.0
S1201 S 0.7196 0.45608 0.12398 0.0
N1202 N 0.72219 0.4683 0.16896 0.0
N1203 N 0.68296 0.47909 0.10625 0.0
C1204 C 0.6713 0.49848 0.13717 0.0
C1205 C 0.69253 0.49252 0.17134 0.0
C1206 C 0.55418 0.70215 0.15599 0.0
C1207 C 0.52983 0.70367 0.18772 0.0
C1208 C 0.55113 0.67383 0.12857 0.0
C1209 C 0.52438 0.64487 0.13206 0.0
H1210 H 0.57509 0.724 0.15154 0.0
H1211 H 0.56999 0.67461 0.10442 0.0
S1212 S 0.45557 0.63349 0.21059 0.0
N1213 N 0.47875 0.67243 0.22133 0.0
N1214 N 0.47435 0.61797 0.17079 0.0
C1215 C 0.50121 0.64462 0.16456 0.0
C1216 C 0.50371 0.67414 0.19219 0.0
C1217 C 0.33591 0.54935 0.15475 0.0
C1218 C 0.33754 0.52839 0.18847 0.0
C1219 C 0.36545 0.5485 0.12833 0.0
C1220 C 0.39858 0.52757 0.13482 0.0
H1221 H 0.31068 0.56537 0.14791 0.0
H1222 H 0.362 0.56399 0.10232 0.0
S1223 S 0.41884 0.47007 0.21975 0.0
N1224 N 0.37596 0.4873 0.22755 0.0
N1225 N 0.43248 0.48705 0.17857 0.0
C1226 C 0.4018 0.50829 0.16941 0.0
C1227 C 0.37116 0.50851 0.19612 0.0
C1228 C 0.87879 0.53727 0.69843 0.0
C1229 C 0.84445 0.51701 0.69528 0.0
C1230 C 0.90508 0.53855 0.66883 0.0
C1231 C 0.89775 0.52094 0.63404 0.0
H1232 H 0.88627 0.55102 0.72475 0.0
H1233 H 0.93175 0.55297 0.67358 0.0
S1234 S 0.81106 0.46626 0.60987 0.0
N1235 N 0.80404 0.47979 0.65397 0.0
N1236 N 0.85257 0.48399 0.5974 0.0
C1237 C 0.86255 0.5024 0.62956 0.0
C1238 C 0.83606 0.50022 0.66025 0.0
C1239 C 0.50351 0.84411 0.66654 0.0
C1240 C 0.53376 0.84595 0.69264 0.0
C1241 C 0.49943 0.87129 0.63778 0.0
C1242 C 0.52489 0.90176 0.63476 0.0
H1243 H 0.48189 0.82268 0.66948 0.0
H1244 H 0.47535 0.86931 0.61874 0.0
S1245 S 0.61147 0.91663 0.6927 0.0
N1246 N 0.59187 0.87854 0.71056 0.0
N1247 N 0.58332 0.92982 0.65781 0.0
C1248 C 0.55608 0.90283 0.65948 0.0
C1249 C 0.56075 0.87489 0.68799 0.0
C1250 C 0.17722 0.55393 0.68571 0.0
C1251 C 0.21229 0.53713 0.67645 0.0
C1252 C 0.14448 0.54795 0.6634 0.0
C1253 C 0.14576 0.52504 0.63102 0.0
H1254 H 0.17537 0.57279 0.70965 0.0
H1255 H 0.11861 0.56279 0.6705 0.0
S1256 S 0.22927 0.47047 0.59791 0.0
N1257 N 0.24519 0.49381 0.63507 0.0
N1258 N 0.18412 0.48225 0.59341 0.0
C1259 C 0.18013 0.50636 0.62293 0.0
C1260 C 0.21324 0.51245 0.64558 0.0
C1261 C 0.51401 0.2148 0.64424 0.0
C1262 C 0.49336 0.21133 0.67802 0.0
C1263 C 0.52135 0.18358 0.62095 0.0
C1264 C 0.50875 0.14718 0.63046 0.0
H1265 H 0.5235 0.24219 0.63508 0.0
H1266 H 0.53652 0.18826 0.5948 0.0
S1267 S 0.45484 0.12256 0.71695 0.0
N1268 N 0.46155 0.16825 0.72058 0.0
N1269 N 0.47554 0.10971 0.67718 0.0
C1270 C 0.48936 0.1431 0.665 0.0
C1271 C 0.48166 0.17504 0.68862 0.0
C1272 C 0.8383 0.50518 0.36199 0.0
C1273 C 0.8426 0.53082 0.33216 0.0
C1274 C 0.86517 0.50351 0.39164 0.0
C1275 C 0.89753 0.52689 0.39194 0.0
H1276 H 0.81525 0.48504 0.36139 0.0
H1277 H 0.86155 0.48263 0.41351 0.0
S1278 S 0.91864 0.60273 0.32382 0.0
N1279 N 0.87911 0.58335 0.30768 0.0
N1280 N 0.92984 0.57921 0.36236 0.0
C1281 C 0.90087 0.55398 0.36351 0.0
C1282 C 0.87331 0.55623 0.33396 0.0
C1283 C 0.49268 0.86333 0.33965 0.0
C1284 C 0.51079 0.82929 0.34913 0.0
C1285 C 0.49699 0.89585 0.36218 0.0
C1286 C 0.51935 0.89552 0.39525 0.0
H1287 H 0.47383 0.86445 0.31545 0.0
H1288 H 0.48114 0.92076 0.35469 0.0
S1289 S 0.57717 0.81522 0.4293 0.0
N1290 N 0.55507 0.79869 0.39154 0.0
N1291 N 0.56332 0.85921 0.43364 0.0
C1292 C 0.53945 0.86231 0.40355 0.0
C1293 C 0.53518 0.82943 0.38058 0.0
C1294 C 0.20557 0.48456 0.37868 0.0
C1295 C 0.21454 0.51225 0.35188 0.0
C1296 C 0.1718 0.48583 0.39964 0.0
C1297 C 0.14514 0.51469 0.39464 0.0
H1298 H 0.22549 0.46211 0.38428 0.0
H1299 H 0.16681 0.46434 0.42058 0.0
S1300 S 0.15316 0.59365 0.32747 0.0
N1301 N 0.19269 0.56951 0.32111 0.0
N1302 N 0.1289 0.57102 0.36016 0.0
C1303 C 0.15269 0.54189 0.36708 0.0
C1304 C 0.18751 0.54101 0.3459 0.0
C1305 C 0.54838 0.16526 0.33092 0.0
C1306 C 0.52363 0.19645 0.33088 0.0
C1307 C 0.54755 0.13828 0.35975 0.0
C1308 C 0.52253 0.14162 0.39039 0.0
H1309 H 0.56752 0.16077 0.30741 0.0
H1310 H 0.5665 0.11444 0.35783 0.0
S1311 S 0.45275 0.21828 0.40499 0.0
N1312 N 0.47376 0.22913 0.36477 0.0
N1313 N 0.47316 0.17929 0.41978 0.0
C1314 C 0.49884 0.17349 0.39179 0.0
C1315 C 0.49924 0.20072 0.36196 0.0
C1316 C 0.69185 0.87149 0.47827 0.0
C1317 C 0.69768 0.84448 0.50682 0.0
C1318 C 0.66286 0.89835 0.48076 0.0
C1319 C 0.63774 0.89896 0.51146 0.0
H1320 H 0.7111 0.87292 0.45447 0.0
H1321 H 0.66033 0.91911 0.4586 0.0
S1322 S 0.63891 0.83397 0.59298 0.0
N1323 N 0.67487 0.81986 0.56654 0.0
N1324 N 0.6192 0.86945 0.57033 0.0
C1325 C 0.64175 0.87112 0.5393 0.0
C1326 C 0.67189 0.84405 0.53715 0.0
C1327 C 0.69801 0.16539 0.55072 0.0
C1328 C 0.702 0.19534 0.52494 0.0
C1329 C 0.66881 0.13879 0.54724 0.0
C1330 C 0.64138 0.14147 0.51856 0.0
H1331 H 0.71862 0.16163 0.57319 0.0
H1332 H 0.66776 0.11585 0.5672 0.0
S1333 S 0.63641 0.2155 0.44534 0.0
N1334 N 0.6746 0.22649 0.47034 0.0
N1335 N 0.61837 0.17755 0.46511 0.0
C1336 C 0.64342 0.17232 0.49386 0.0
C1337 C 0.6739 0.19906 0.49682 0.0
C1338 C 0.825 0.65178 0.51336 0.0
C1339 C 0.82905 0.68773 0.52919 0.0
C1340 C 0.85658 0.62829 0.50762 0.0
C1341 C 0.89395 0.63964 0.51713 0.0
H1342 H 0.79693 0.64121 0.50653 0.0
H1343 H 0.85137 0.60055 0.49623 0.0
S1344 S 0.92038 0.73276 0.55645 0.0
N1345 N 0.87366 0.73467 0.55209 0.0
N1346 N 0.93297 0.69084 0.54106 0.0
C1347 C 0.89859 0.67638 0.53121 0.0
C1348 C 0.86626 0.70027 0.53726 0.0
C1349 C 0.36862 0.84155 0.53066 0.0
C1350 C 0.33711 0.84463 0.50631 0.0
C1351 C 0.39756 0.86895 0.53087 0.0
C1352 C 0.39557 0.90074 0.50731 0.0
H1353 H 0.36986 0.81902 0.55106 0.0
H1354 H 0.42078 0.8661 0.55082 0.0
S1355 S 0.3219 0.91885 0.43462 0.0
N1356 N 0.30822 0.87947 0.45484 0.0
N1357 N 0.36162 0.93129 0.45627 0.0
C1358 C 0.36531 0.90295 0.48152 0.0
C1359 C 0.33645 0.87478 0.4807 0.0
C1360 C 0.17393 0.34636 0.5434 0.0
C1361 C 0.21121 0.35762 0.53401 0.0
C1362 C 0.1423 0.3698 0.53657 0.0
C1363 C 0.14676 0.40546 0.52013 0.0
H1364 H 0.16927 0.31963 0.55705 0.0
H1365 H 0.11446 0.36043 0.54549 0.0
S1366 S 0.23835 0.44598 0.48656 0.0
N1367 N 0.25034 0.40513 0.50472 0.0
N1368 N 0.19187 0.44915 0.49183 0.0
C1369 C 0.18392 0.41607 0.50907 0.0
C1370 C 0.21582 0.39218 0.51593 0.0
C1371 C 0.34419 0.17237 0.47653 0.0
C1372 C 0.3412 0.20086 0.50415 0.0
C1373 C 0.3725 0.14483 0.47843 0.0
C1374 C 0.39976 0.14524 0.50737 0.0
H1375 H 0.32299 0.17009 0.45437 0.0
H1376 H 0.37276 0.12276 0.45734 0.0
S1377 S 0.40755 0.21547 0.58441 0.0
N1378 N 0.36966 0.22874 0.56017 0.0
N1379 N 0.4243 0.17804 0.56251 0.0
C1380 C 0.39902 0.17497 0.53359 0.0
C1381 C 0.36951 0.20263 0.5322 0.0
C1382 C 0.826 0.38989 0.51343 0.0
C1383 C 0.83006 0.35359 0.49857 0.0
C1384 C 0.8575 0.41371 0.5183 0.0
C1385 C 0.89484 0.40233 0.50903 0.0
H1386 H 0.79796 0.40044 0.5202 0.0
H1387 H 0.85222 0.44173 0.52883 0.0
S1388 S 0.92126 0.30851 0.47184 0.0
N1389 N 0.87459 0.3064 0.47649 0.0
N1390 N 0.93385 0.35085 0.48614 0.0
C1391 C 0.89951 0.36532 0.4958 0.0
C1392 C 0.86721 0.34109 0.49052 0.0
C1393 C 0.17486 0.69564 0.4808 0.0
C1394 C 0.21067 0.68657 0.49638 0.0
C1395 C 0.14263 0.67292 0.48712 0.0
C1396 C 0.14507 0.64017 0.50909 0.0
H1397 H 0.17203 0.71973 0.46249 0.0
H1398 H 0.11616 0.68005 0.47318 0.0
S1399 S 0.23108 0.60705 0.56035 0.0
N1400 N 0.24563 0.64473 0.53756 0.0
N1401 N 0.18556 0.60234 0.5498 0.0
C1402 C 0.18026 0.6322 0.52661 0.0
C1403 C 0.21286 0.65529 0.52019 0.0
loop_
_geom_bond_atom_site_label_1
_geom_bond_atom_site_label_2
_geom_bond_distance
_geom_bond_site_symmetry_2
_ccdc_geom_bond_type
H0 C7 0.929 . S
H1 C10 0.930 . S
H2 C12 0.929 . S
H3 C4 0.969 1_655 S
C4 H3 0.969 1_455 S
C4 O5 1.550 . S
C4 H6 0.973 . S
O5 C4 1.550 . S
O5 C11 1.412 . S
H6 C4 0.973 . S
C7 H0 0.929 . S
C7 C8 1.400 . S
C7 C9 1.364 . S
C8 C7 1.400 . S
C8 C12 1.377 . S
C9 C7 1.364 . S
C9 C10 1.374 . S
C10 H1 0.930 . S
C10 C9 1.374 . S
C10 C11 1.383 . S
C11 O5 1.412 . S
C11 C10 1.383 . S
C11 C12 1.394 . S
C12 H2 0.929 . S
C12 C8 1.377 . S
C12 C11 1.394 . S
H13 C20 0.928 . S
H14 C23 0.931 1_565 S
H15 C25 0.928 1_565 S
H16 C17 0.969 . S
C17 H16 0.969 . S
C17 O18 1.550 1_545 S
C17 H19 0.973 1_545 S
O18 C17 1.550 1_565 S
O18 C24 1.412 1_565 S
H19 C17 0.973 1_565 S
C20 H13 0.928 . S
C20 C21 1.400 . S
C20 C22 1.364 . S
C21 C20 1.400 . S
C21 C25 1.377 . S
C22 C20 1.364 . S
C22 C23 1.374 . S
C23 H14 0.931 1_545 S
C23 C22 1.374 . S
C23 C24 1.383 . S
C24 O18 1.412 1_545 S
C24 C23 1.383 . S
C24 C25 1.395 . S
C25 H15 0.928 1_545 S
C25 C21 1.377 . S
C25 C24 1.395 . S
H26 C33 0.929 . S
H27 C36 0.930 . S
H28 C38 0.929 . S
H29 C30 0.969 1_655 S
C30 H29 0.969 1_455 S
C30 O31 1.550 . S
C30 H32 0.973 . S
O31 C30 1.550 . S
O31 C37 1.412 . S
H32 C30 0.973 . S
C33 H26 0.929 . S
C33 C34 1.400 . S
C33 C35 1.364 . S
C34 C33 1.400 . S
C34 C38 1.377 . S
C35 C33 1.364 . S
C35 C36 1.374 . S
C36 H27 0.930 . S
C36 C35 1.374 . S
C36 C37 1.383 . S
C37 O31 1.412 . S
C37 C36 1.383 . S
C37 C38 1.394 . S
C38 H28 0.929 . S
C38 C34 1.377 . S
C38 C37 1.394 . S
H39 C46 0.928 . S
H40 C49 0.930 1_565 S
H41 C51 0.928 1_565 S
H42 C43 0.969 . S
C43 H42 0.969 . S
C43 O44 1.550 1_545 S
C43 H45 0.973 1_545 S
O44 C43 1.550 1_565 S
O44 C50 1.412 1_565 S
H45 C43 0.973 1_565 S
C46 H39 0.928 . S
C46 C47 1.400 . S
C46 C48 1.364 . S
C47 C46 1.400 . S
C47 C51 1.377 . S
C48 C46 1.364 . S
C48 C49 1.374 . S
C49 H40 0.930 1_545 S
C49 C48 1.374 . S
C49 C50 1.383 . S
C50 O44 1.412 1_545 S
C50 C49 1.383 . S
C50 C51 1.395 . S
C51 H41 0.928 1_545 S
C51 C47 1.377 . S
C51 C50 1.395 . S
H52 C59 0.929 . S
H53 C62 0.930 . S
H54 C64 0.929 . S
H55 C56 0.969 1_655 S
C56 H55 0.969 1_455 S
C56 O57 1.550 . S
C56 H58 0.973 . S
O57 C56 1.550 . S
O57 C63 1.412 . S
H58 C56 0.973 . S
C59 H52 0.929 . S
C59 C60 1.400 . S
C59 C61 1.364 . S
C60 C59 1.400 . S
C60 C64 1.377 . S
C61 C59 1.364 . S
C61 C62 1.374 . S
C62 H53 0.930 . S
C62 C61 1.374 . S
C62 C63 1.383 . S
C63 O57 1.412 . S
C63 C62 1.383 . S
C63 C64 1.394 . S
C64 H54 0.929 . S
C64 C60 1.377 . S
C64 C63 1.394 . S
H65 C72 0.928 . S
H66 C75 0.931 . S
H67 C77 0.928 1_545 S
H68 C69 0.969 . S
C69 H68 0.969 . S
C69 O70 1.550 1_565 S
C69 H71 0.973 1_565 S
O70 C69 1.550 1_545 S
O70 C76 1.405 1_545 S
H71 C69 0.973 1_545 S
C72 H65 0.928 . S
C72 C73 1.400 1_545 S
C72 C74 1.364 1_545 S
C73 C72 1.400 1_565 S
C73 C77 1.377 . S
C74 C72 1.364 1_565 S
C74 C75 1.374 1_565 S
C75 H66 0.931 . S
C75 C74 1.374 1_545 S
C75 C76 1.382 1_545 S
C76 O70 1.405 1_565 S
C76 C75 1.382 1_565 S
C76 C77 1.394 . S
C77 H67 0.928 1_565 S
C77 C73 1.377 . S
C77 C76 1.394 . S
H78 C85 0.929 . S
H79 C88 0.930 . S
H80 C90 0.929 . S
H81 C82 0.969 1_655 S
C82 H81 0.969 1_455 S
C82 O83 1.550 . S
C82 H84 0.973 . S
O83 C82 1.550 . S
O83 C89 1.412 . S
H84 C82 0.973 . S
C85 H78 0.929 . S
C85 C86 1.400 . S
C85 C87 1.364 . S
C86 C85 1.400 . S
C86 C90 1.377 . S
C87 C85 1.364 . S
C87 C88 1.374 . S
C88 H79 0.930 . S
C88 C87 1.374 . S
C88 C89 1.383 . S
C89 O83 1.412 . S
C89 C88 1.383 . S
C89 C90 1.394 . S
C90 H80 0.929 . S
C90 C86 1.377 . S
C90 C89 1.394 . S
H91 C98 0.928 . S
H92 C101 0.931 . S
H93 C103 0.928 . S
H94 C95 0.969 . S
C95 H94 0.969 . S
C95 O96 1.550 1_565 S
C95 H97 0.973 1_565 S
O96 C95 1.550 1_545 S
O96 C102 1.406 1_545 S
H97 C95 0.973 1_545 S
C98 H91 0.928 . S
C98 C99 1.400 1_545 S
C98 C100 1.364 . S
C99 C98 1.400 1_565 S
C99 C103 1.377 1_565 S
C100 C98 1.364 . S
C100 C101 1.374 . S
C101 H92 0.931 . S
C101 C100 1.374 . S
C101 C102 1.382 1_545 S
C102 O96 1.406 1_565 S
C102 C101 1.382 1_565 S
C102 C103 1.394 1_565 S
C103 H93 0.928 . S
C103 C99 1.377 1_545 S
C103 C102 1.394 1_545 S
H104 C111 0.928 . S
H105 C114 0.930 1_556 S
H106 C116 0.928 1_556 S
H107 C108 0.969 . S
C108 H107 0.969 . S
C108 O109 1.550 1_554 S
C108 H110 0.973 1_554 S
O109 C108 1.550 1_556 S
O109 C115 1.412 1_556 S
H110 C108 0.973 1_556 S
C111 H104 0.928 . S
C111 C112 1.400 . S
C111 C113 1.364 . S
C112 C111 1.400 . S
C112 C116 1.377 . S
C113 C111 1.364 . S
C113 C114 1.374 . S
C114 H105 0.930 1_554 S
C114 C113 1.374 . S
C114 C115 1.383 . S
C115 O109 1.412 1_554 S
C115 C114 1.383 . S
C115 C116 1.395 . S
C116 H106 0.928 1_554 S
C116 C112 1.377 . S
C116 C115 1.395 . S
H117 C124 0.928 . S
H118 C127 0.931 . S
H119 C129 0.928 . S
H120 C121 0.969 . S
C121 H120 0.969 . S
C121 O122 1.550 1_556 S
C121 H123 0.973 1_556 S
O122 C121 1.550 1_554 S
O122 C128 1.405 1_554 S
H123 C121 0.973 1_554 S
C124 H117 0.928 . S
C124 C125 1.400 1_554 S
C124 C126 1.364 1_554 S
C125 C124 1.400 1_556 S
C125 C129 1.377 1_556 S
C126 C124 1.364 1_556 S
C126 C127 1.374 1_556 S
C127 H118 0.931 . S
C127 C126 1.374 1_554 S
C127 C128 1.382 1_554 S
C128 O122 1.405 1_556 S
C128 C127 1.382 1_556 S
C128 C129 1.394 1_556 S
C129 H119 0.928 . S
C129 C125 1.377 1_554 S
C129 C128 1.394 1_554 S
H130 C137 0.928 . S
H131 C140 0.931 . S
H132 C142 0.928 . S
H133 C134 0.969 . S
C134 H133 0.969 . S
C134 O135 1.550 1_556 S
C134 H136 0.973 1_556 S
O135 C134 1.550 1_554 S
O135 C141 1.406 1_554 S
H136 C134 0.973 1_554 S
C137 H130 0.928 . S
C137 C138 1.400 1_554 S
C137 C139 1.364 . S
C138 C137 1.400 1_556 S
C138 C142 1.377 1_556 S
C139 C137 1.364 . S
C139 C140 1.374 . S
C140 H131 0.931 . S
C140 C139 1.374 . S
C140 C141 1.382 1_554 S
C141 O135 1.406 1_556 S
C141 C140 1.382 1_556 S
C141 C142 1.394 1_556 S
C142 H132 0.928 . S
C142 C138 1.377 1_554 S
C142 C141 1.394 1_554 S
H143 C150 0.928 . S
H144 C153 0.931 1_556 S
H145 C155 0.928 1_556 S
H146 C147 0.969 . S
C147 H146 0.969 . S
C147 O148 1.550 1_554 S
C147 H149 0.973 1_554 S
O148 C147 1.550 1_556 S
O148 C154 1.412 1_556 S
H149 C147 0.973 1_556 S
C150 H143 0.928 . S
C150 C151 1.400 . S
C150 C152 1.364 . S
C151 C150 1.400 . S
C151 C155 1.377 . S
C152 C150 1.364 . S
C152 C153 1.374 . S
C153 H144 0.931 1_554 S
C153 C152 1.374 . S
C153 C154 1.383 . S
C154 O148 1.412 1_554 S
C154 C153 1.383 . S
C154 C155 1.395 . S
C155 H145 0.928 1_554 S
C155 C151 1.377 . S
C155 C154 1.395 . S
H156 C163 0.929 . S
H157 C166 0.930 . S
H158 C168 0.929 . S
H159 C160 0.969 . S
C160 H159 0.969 . S
C160 O161 1.550 . S
C160 H162 0.973 . S
O161 C160 1.550 . S
O161 C167 1.412 . S
H162 C160 0.973 . S
C163 H156 0.929 . S
C163 C164 1.400 . S
C163 C165 1.364 . S
C164 C163 1.400 . S
C164 C168 1.377 . S
C165 C163 1.364 . S
C165 C166 1.374 . S
C166 H157 0.930 . S
C166 C165 1.374 . S
C166 C167 1.383 . S
C167 O161 1.412 . S
C167 C166 1.383 . S
C167 C168 1.394 . S
C168 H158 0.929 . S
C168 C164 1.377 . S
C168 C167 1.394 . S
H169 C176 0.929 . S
H170 C179 0.930 . S
H171 C181 0.929 . S
H172 C173 0.969 . S
C173 H172 0.969 . S
C173 O174 1.550 . S
C173 H175 0.973 . S
O174 C173 1.550 . S
O174 C180 1.412 . S
H175 C173 0.973 . S
C176 H169 0.929 . S
C176 C177 1.400 . S
C176 C178 1.364 . S
C177 C176 1.400 . S
C177 C181 1.377 . S
C178 C176 1.364 . S
C178 C179 1.374 . S
C179 H170 0.930 . S
C179 C178 1.374 . S
C179 C180 1.383 . S
C180 O174 1.412 . S
C180 C179 1.383 . S
C180 C181 1.394 . S
C181 H171 0.929 . S
C181 C177 1.377 . S
C181 C180 1.394 . S
H182 C189 0.929 . S
H183 C192 0.930 . S
H184 C194 0.929 . S
H185 C186 0.969 . S
C186 H185 0.969 . S
C186 O187 1.550 . S
C186 H188 0.973 . S
O187 C186 1.550 . S
O187 C193 1.412 . S
H188 C186 0.973 . S
C189 H182 0.929 . S
C189 C190 1.400 . S
C189 C191 1.364 . S
C190 C189 1.400 . S
C190 C194 1.377 . S
C191 C189 1.364 . S
C191 C192 1.374 . S
C192 H183 0.930 . S
C192 C191 1.374 . S
C192 C193 1.383 . S
C193 O187 1.412 . S
C193 C192 1.383 . S
C193 C194 1.394 . S
C194 H184 0.929 . S
C194 C190 1.377 . S
C194 C193 1.394 . S
H195 C202 0.929 . S
H196 C205 0.930 . S
H197 C207 0.929 . S
H198 C199 0.969 . S
C199 H198 0.969 . S
C199 O200 1.550 . S
C199 H201 0.973 . S
O200 C199 1.550 . S
O200 C206 1.412 . S
H201 C199 0.973 . S
C202 H195 0.929 . S
C202 C203 1.400 . S
C202 C204 1.364 . S
C203 C202 1.400 . S
C203 C207 1.377 . S
C204 C202 1.364 . S
C204 C205 1.374 . S
C205 H196 0.930 . S
C205 C204 1.374 . S
C205 C206 1.383 . S
C206 O200 1.412 . S
C206 C205 1.383 . S
C206 C207 1.394 . S
C207 H197 0.929 . S
C207 C203 1.377 . S
C207 C206 1.394 . S
H208 C215 0.929 . S
H209 C218 0.930 . S
H210 C220 0.929 . S
H211 C212 0.969 . S
C212 H211 0.969 . S
C212 O213 1.550 . S
C212 H214 0.973 . S
O213 C212 1.550 . S
O213 C219 1.412 . S
H214 C212 0.973 . S
C215 H208 0.929 . S
C215 C216 1.400 . S
C215 C217 1.364 . S
C216 C215 1.400 . S
C216 C220 1.377 . S
C217 C215 1.364 . S
C217 C218 1.374 . S
C218 H209 0.930 . S
C218 C217 1.374 . S
C218 C219 1.383 . S
C219 O213 1.412 . S
C219 C218 1.383 . S
C219 C220 1.394 . S
C220 H210 0.929 . S
C220 C216 1.377 . S
C220 C219 1.394 . S
H221 C228 0.929 . S
H222 C231 0.930 . S
H223 C233 0.929 . S
H224 C225 0.969 . S
C225 H224 0.969 . S
C225 O226 1.550 . S
C225 H227 0.973 . S
O226 C225 1.550 . S
O226 C232 1.412 . S
H227 C225 0.973 . S
C228 H221 0.929 . S
C228 C229 1.400 . S
C228 C230 1.364 . S
C229 C228 1.400 . S
C229 C233 1.377 . S
C230 C228 1.364 . S
C230 C231 1.374 . S
C231 H222 0.930 . S
C231 C230 1.374 . S
C231 C232 1.383 . S
C232 O226 1.412 . S
C232 C231 1.383 . S
C232 C233 1.394 . S
C233 H223 0.929 . S
C233 C229 1.377 . S
C233 C232 1.394 . S
H234 C241 0.929 . S
H235 C244 0.930 . S
H236 C246 0.929 . S
H237 C238 0.969 . S
C238 H237 0.969 . S
C238 O239 1.550 . S
C238 H240 0.973 . S
O239 C238 1.550 . S
O239 C245 1.412 . S
H240 C238 0.973 . S
C241 H234 0.929 . S
C241 C242 1.400 . S
C241 C243 1.364 . S
C242 C241 1.400 . S
C242 C246 1.377 . S
C243 C241 1.364 . S
C243 C244 1.374 . S
C244 H235 0.930 . S
C244 C243 1.374 . S
C244 C245 1.383 . S
C245 O239 1.412 . S
C245 C244 1.383 . S
C245 C246 1.394 . S
C246 H236 0.929 . S
C246 C242 1.377 . S
C246 C245 1.394 . S
H247 C254 0.929 . S
H248 C257 0.930 . S
H249 C259 0.929 . S
H250 C251 0.969 . S
C251 H250 0.969 . S
C251 O252 1.550 . S
C251 H253 0.973 . S
O252 C251 1.550 . S
O252 C258 1.412 . S
H253 C251 0.973 . S
C254 H247 0.929 . S
C254 C255 1.400 . S
C254 C256 1.364 . S
C255 C254 1.400 . S
C255 C259 1.377 . S
C256 C254 1.364 . S
C256 C257 1.374 . S
C257 H248 0.930 . S
C257 C256 1.374 . S
C257 C258 1.383 . S
C258 O252 1.412 . S
C258 C257 1.383 . S
C258 C259 1.394 . S
C259 H249 0.929 . S
C259 C255 1.377 . S
C259 C258 1.394 . S
H260 C267 0.929 . S
H261 C270 0.930 . S
H262 C272 0.929 . S
H263 C264 0.969 . S
C264 H263 0.969 . S
C264 O265 1.550 . S
C264 H266 0.973 . S
O265 C264 1.550 . S
O265 C271 1.412 . S
H266 C264 0.973 . S
C267 H260 0.929 . S
C267 C268 1.400 . S
C267 C269 1.364 . S
C268 C267 1.400 . S
C268 C272 1.377 . S
C269 C267 1.364 . S
C269 C270 1.374 . S
C270 H261 0.930 . S
C270 C269 1.374 . S
C270 C271 1.383 . S
C271 O265 1.412 . S
C271 C270 1.383 . S
C271 C272 1.394 . S
C272 H262 0.929 . S
C272 C268 1.377 . S
C272 C271 1.394 . S
H273 C280 0.929 . S
H274 C283 0.930 . S
H275 C285 0.929 . S
H276 C277 0.969 . S
C277 H276 0.969 . S
C277 O278 1.550 . S
C277 H279 0.973 . S
O278 C277 1.550 . S
O278 C284 1.412 . S
H279 C277 0.973 . S
C280 H273 0.929 . S
C280 C281 1.400 . S
C280 C282 1.364 . S
C281 C280 1.400 . S
C281 C285 1.377 . S
C282 C280 1.364 . S
C282 C283 1.374 . S
C283 H274 0.930 . S
C283 C282 1.374 . S
C283 C284 1.383 . S
C284 O278 1.412 . S
C284 C283 1.383 . S
C284 C285 1.394 . S
C285 H275 0.929 . S
C285 C281 1.377 . S
C285 C284 1.394 . S
H286 C293 0.929 . S
H287 C296 0.930 . S
H288 C298 0.929 . S
H289 C290 0.969 . S
C290 H289 0.969 . S
C290 O291 1.550 . S
C290 H292 0.973 . S
O291 C290 1.550 . S
O291 C297 1.412 . S
H292 C290 0.973 . S
C293 H286 0.929 . S
C293 C294 1.400 . S
C293 C295 1.364 . S
C294 C293 1.400 . S
C294 C298 1.377 . S
C295 C293 1.364 . S
C295 C296 1.374 . S
C296 H287 0.930 . S
C296 C295 1.374 . S
C296 C297 1.383 . S
C297 O291 1.412 . S
C297 C296 1.383 . S
C297 C298 1.394 . S
C298 H288 0.929 . S
C298 C294 1.377 . S
C298 C297 1.394 . S
H299 C306 0.929 . S
H300 C309 0.930 . S
H301 C311 0.929 . S
H302 C303 0.969 . S
C303 H302 0.969 . S
C303 O304 1.550 . S
C303 H305 0.973 . S
O304 C303 1.550 . S
O304 C310 1.412 . S
H305 C303 0.973 . S
C306 H299 0.929 . S
C306 C307 1.400 . S
C306 C308 1.364 . S
C307 C306 1.400 . S
C307 C311 1.377 . S
C308 C306 1.364 . S
C308 C309 1.374 . S
C309 H300 0.930 . S
C309 C308 1.374 . S
C309 C310 1.383 . S
C310 O304 1.412 . S
C310 C309 1.383 . S
C310 C311 1.394 . S
C311 H301 0.929 . S
C311 C307 1.377 . S
C311 C310 1.394 . S
C312 O338 1.283 . S
C312 O356 1.283 . S
C313 O339 1.283 . S
C313 O354 1.283 . S
C314 O340 1.283 . S
C314 O357 1.283 . S
C315 O341 1.283 . S
C315 O355 1.283 . S
C316 O342 1.283 . S
C316 O351 1.283 . S
C317 O343 1.283 . S
C317 O353 1.283 . S
C318 O344 1.283 . S
C318 O350 1.283 . S
C319 O345 1.283 . S
C319 O352 1.283 . S
C320 O346 1.283 . S
C320 O361 1.283 . S
C321 O347 1.283 . S
C321 O359 1.283 . S
C322 O348 1.283 . S
C322 O360 1.283 . S
C323 O349 1.283 . S
C323 O358 1.283 . S
Eu324 O325 2.370 1_455 S
Eu324 O326 2.370 . S
Eu324 O329 2.370 1_455 S
Eu324 O330 2.370 . S
Eu324 O338 2.363 . S
Eu324 O339 2.363 . S
Eu324 O352 2.363 . S
Eu324 O353 2.363 1_455 S
O325 Eu324 2.370 1_655 S
O325 Eu327 2.366 1_565 S
O325 Eu332 2.367 1_665 S
O326 Eu324 2.370 . S
O326 Eu328 2.366 1_565 S
O326 Eu331 2.366 1_565 S
Eu327 O325 2.366 1_545 S
Eu327 O329 2.366 1_545 S
Eu327 O333 2.374 . S
Eu327 O334 2.374 . S
Eu327 O342 2.369 . S
Eu327 O343 2.357 1_545 S
Eu327 O358 2.363 . S
Eu327 O359 2.363 . S
Eu328 O326 2.366 1_545 S
Eu328 O330 2.366 1_545 S
Eu328 O335 2.374 . S
Eu328 O336 2.374 . S
Eu328 O344 2.369 . S
Eu328 O345 2.357 1_545 S
Eu328 O360 2.363 . S
Eu328 O361 2.363 . S
O329 Eu324 2.370 1_655 S
O329 Eu327 2.366 1_565 S
O329 Eu331 2.366 1_665 S
O330 Eu324 2.370 . S
O330 Eu328 2.366 1_565 S
O330 Eu332 2.367 1_565 S
Eu331 O326 2.366 1_545 S
Eu331 O329 2.366 1_445 S
Eu331 O333 2.374 1_455 S
Eu331 O336 2.374 . S
Eu331 O348 2.363 . S
Eu331 O349 2.363 1_455 S
Eu331 O356 2.356 1_545 S
Eu331 O357 2.370 . S
Eu332 O325 2.367 1_445 S
Eu332 O330 2.367 1_545 S
Eu332 O334 2.373 1_455 S
Eu332 O335 2.373 . S
Eu332 O346 2.363 . S
Eu332 O347 2.363 1_455 S
Eu332 O354 2.357 1_545 S
Eu332 O355 2.368 . S
O333 Eu327 2.374 . S
O333 Eu331 2.374 1_655 S
O333 Eu337 2.370 1_655 S
O334 Eu327 2.374 . S
O334 Eu332 2.373 1_655 S
O334 Eu337 2.370 1_655 S
O335 Eu328 2.374 . S
O335 Eu332 2.373 . S
O335 Eu337 2.370 . S
O336 Eu328 2.374 . S
O336 Eu331 2.374 . S
O336 Eu337 2.370 . S
Eu337 O333 2.370 1_455 S
Eu337 O334 2.370 1_455 S
Eu337 O335 2.370 . S
Eu337 O336 2.370 . S
Eu337 O340 2.363 . S
Eu337 O341 2.363 . S
Eu337 O350 2.363 . S
Eu337 O351 2.363 1_455 S
O338 C312 1.283 . S
O338 Eu324 2.363 . S
O339 C313 1.283 . S
O339 Eu324 2.363 . S
O340 C314 1.283 . S
O340 Eu337 2.363 . S
O341 C315 1.283 . S
O341 Eu337 2.363 . S
O342 C316 1.283 . S
O342 Eu327 2.369 . S
O343 C317 1.283 . S
O343 Eu327 2.357 1_565 S
O344 C318 1.283 . S
O344 Eu328 2.369 . S
O345 C319 1.283 . S
O345 Eu328 2.357 1_565 S
O346 C320 1.283 . S
O346 Eu332 2.363 . S
O347 C321 1.283 . S
O347 Eu332 2.363 1_655 S
O348 C322 1.283 . S
O348 Eu331 2.363 . S
O349 C323 1.283 . S
O349 Eu331 2.363 1_655 S
O350 C318 1.283 . S
O350 Eu337 2.363 . S
O351 C316 1.283 . S
O351 Eu337 2.363 1_655 S
O352 C319 1.283 . S
O352 Eu324 2.363 . S
O353 C317 1.283 . S
O353 Eu324 2.363 1_655 S
O354 C313 1.283 . S
O354 Eu332 2.357 1_565 S
O355 C315 1.283 . S
O355 Eu332 2.368 . S
O356 C312 1.283 . S
O356 Eu331 2.356 1_565 S
O357 C314 1.283 . S
O357 Eu331 2.370 . S
O358 C323 1.283 . S
O358 Eu327 2.363 . S
O359 C321 1.283 . S
O359 Eu327 2.363 . S
O360 C322 1.283 . S
O360 Eu328 2.363 . S
O361 C320 1.283 . S
O361 Eu328 2.363 . S
C362 O388 1.283 . S
C362 O406 1.283 . S
C363 O389 1.283 . S
C363 O404 1.283 . S
C364 O390 1.283 . S
C364 O407 1.283 . S
C365 O391 1.283 . S
C365 O405 1.283 . S
C366 O392 1.283 . S
C366 O401 1.283 . S
C367 O393 1.283 . S
C367 O403 1.283 . S
C368 O394 1.283 . S
C368 O400 1.283 . S
C369 O395 1.283 . S
C369 O402 1.283 . S
C370 O396 1.283 . S
C370 O411 1.283 . S
C371 O397 1.283 . S
C371 O409 1.283 . S
C372 O398 1.283 . S
C372 O410 1.283 . S
C373 O399 1.283 . S
C373 O408 1.283 . S
Eu374 O375 2.370 . S
Eu374 O376 2.370 1_545 S
Eu374 O379 2.370 1_545 S
Eu374 O380 2.370 . S
Eu374 O388 2.363 1_545 S
Eu374 O389 2.362 . S
Eu374 O402 2.363 . S
Eu374 O403 2.363 . S
O375 Eu374 2.370 . S
O375 Eu377 2.377 . S
O375 Eu382 2.378 . S
O376 Eu374 2.370 1_565 S
O376 Eu378 2.370 1_565 S
O376 Eu381 2.370 . S
Eu377 O375 2.377 . S
Eu377 O379 2.370 1_545 S
Eu377 O383 2.363 1_544 S
Eu377 O384 2.370 1_554 S
Eu377 O392 2.357 1_554 S
Eu377 O393 2.369 . S
Eu377 O408 2.357 1_545 S
Eu377 O409 2.369 . S
Eu378 O376 2.370 1_545 S
Eu378 O380 2.377 . S
Eu378 O385 2.370 1_554 S
Eu378 O386 2.363 1_544 S
Eu378 O394 2.357 1_554 S
Eu378 O395 2.369 . S
Eu378 O410 2.357 1_545 S
Eu378 O411 2.369 . S
O379 Eu374 2.370 1_565 S
O379 Eu377 2.370 1_565 S
O379 Eu381 2.370 . S
O380 Eu374 2.370 . S
O380 Eu378 2.377 . S
O380 Eu382 2.378 . S
Eu381 O376 2.370 . S
Eu381 O379 2.370 . S
Eu381 O383 2.370 1_554 S
Eu381 O386 2.370 1_554 S
Eu381 O398 2.363 . S
Eu381 O399 2.363 . S
Eu381 O406 2.362 . S
Eu381 O407 2.364 1_554 S
Eu382 O375 2.378 . S
Eu382 O380 2.378 . S
Eu382 O384 2.362 1_554 S
Eu382 O385 2.362 1_554 S
Eu382 O396 2.363 . S
Eu382 O397 2.363 . S
Eu382 O404 2.376 . S
Eu382 O405 2.350 1_554 S
O383 Eu377 2.363 1_566 S
O383 Eu381 2.370 1_556 S
O383 Eu387 2.362 1_565 S
O384 Eu377 2.370 1_556 S
O384 Eu382 2.362 1_556 S
O384 Eu387 2.378 . S
O385 Eu378 2.370 1_556 S
O385 Eu382 2.362 1_556 S
O385 Eu387 2.378 . S
O386 Eu378 2.363 1_566 S
O386 Eu381 2.370 1_556 S
O386 Eu387 2.362 1_565 S
Eu387 O383 2.362 1_545 S
Eu387 O384 2.378 . S
Eu387 O385 2.378 . S
Eu387 O386 2.362 1_545 S
Eu387 O390 2.350 1_545 S
Eu387 O391 2.376 . S
Eu387 O400 2.363 . S
Eu387 O401 2.363 . S
O388 C362 1.283 . S
O388 Eu374 2.363 1_565 S
O389 C363 1.283 . S
O389 Eu374 2.362 . S
O390 C364 1.283 . S
O390 Eu387 2.350 1_565 S
O391 C365 1.283 . S
O391 Eu387 2.376 . S
O392 C366 1.283 . S
O392 Eu377 2.357 1_556 S
O393 C367 1.283 . S
O393 Eu377 2.369 . S
O394 C368 1.283 . S
O394 Eu378 2.357 1_556 S
O395 C369 1.283 . S
O395 Eu378 2.369 . S
O396 C370 1.283 . S
O396 Eu382 2.363 . S
O397 C371 1.283 . S
O397 Eu382 2.363 . S
O398 C372 1.283 . S
O398 Eu381 2.363 . S
O399 C373 1.283 . S
O399 Eu381 2.363 . S
O400 C368 1.283 . S
O400 Eu387 2.363 . S
O401 C366 1.283 . S
O401 Eu387 2.363 . S
O402 C369 1.283 . S
O402 Eu374 2.363 . S
O403 C367 1.283 . S
O403 Eu374 2.363 . S
O404 C363 1.283 . S
O404 Eu382 2.376 . S
O405 C365 1.283 . S
O405 Eu382 2.350 1_556 S
O406 C362 1.283 . S
O406 Eu381 2.362 . S
O407 C364 1.283 . S
O407 Eu381 2.364 1_556 S
O408 C373 1.283 . S
O408 Eu377 2.357 1_565 S
O409 C371 1.283 . S
O409 Eu377 2.369 . S
O410 C372 1.283 . S
O410 Eu378 2.357 1_565 S
O411 C370 1.283 . S
O411 Eu378 2.369 . S
C412 O438 1.283 . S
C412 O456 1.283 . S
C413 O439 1.283 . S
C413 O454 1.283 . S
C414 O440 1.283 . S
C414 O457 1.283 . S
C415 O441 1.283 . S
C415 O455 1.283 . S
C416 O442 1.283 . S
C416 O451 1.283 . S
C417 O443 1.283 . S
C417 O453 1.283 . S
C418 O444 1.283 . S
C418 O450 1.283 . S
C419 O445 1.283 . S
C419 O452 1.283 . S
C420 O446 1.283 . S
C420 O461 1.283 . S
C421 O447 1.283 . S
C421 O459 1.283 . S
C422 O448 1.283 . S
C422 O460 1.283 . S
C423 O449 1.283 . S
C423 O458 1.283 . S
Eu424 O425 2.366 1_454 S
Eu424 O426 2.374 . S
Eu424 O429 2.374 1_455 S
Eu424 O430 2.366 1_554 S
Eu424 O438 2.369 . S
Eu424 O439 2.357 1_554 S
Eu424 O452 2.363 . S
Eu424 O453 2.363 1_455 S
O425 Eu424 2.366 1_656 S
O425 Eu427 2.366 1_556 S
O425 Eu432 2.370 1_655 S
O426 Eu424 2.374 . S
O426 Eu428 2.374 . S
O426 Eu431 2.370 . S
Eu427 O425 2.366 1_554 S
Eu427 O429 2.374 . S
Eu427 O433 2.374 . S
Eu427 O434 2.366 1_554 S
Eu427 O442 2.363 . S
Eu427 O443 2.363 . S
Eu427 O458 2.369 . S
Eu427 O459 2.357 1_554 S
Eu428 O426 2.374 . S
Eu428 O430 2.366 1_554 S
Eu428 O435 2.366 1_554 S
Eu428 O436 2.374 . S
Eu428 O444 2.363 . S
Eu428 O445 2.363 . S
Eu428 O460 2.369 . S
Eu428 O461 2.357 1_554 S
O429 Eu424 2.374 1_655 S
O429 Eu427 2.374 . S
O429 Eu431 2.370 1_655 S
O430 Eu424 2.366 1_556 S
O430 Eu428 2.366 1_556 S
O430 Eu432 2.370 . S
Eu431 O426 2.370 . S
Eu431 O429 2.370 1_455 S
Eu431 O433 2.370 1_455 S
Eu431 O436 2.370 . S
Eu431 O448 2.363 . S
Eu431 O449 2.363 1_455 S
Eu431 O456 2.363 . S
Eu431 O457 2.363 . S
Eu432 O425 2.370 1_455 S
Eu432 O430 2.370 . S
Eu432 O434 2.370 1_455 S
Eu432 O435 2.370 . S
Eu432 O446 2.363 . S
Eu432 O447 2.363 1_455 S
Eu432 O454 2.363 . S
Eu432 O455 2.363 . S
O433 Eu427 2.374 . S
O433 Eu431 2.370 1_655 S
O433 Eu437 2.374 1_655 S
O434 Eu427 2.366 1_556 S
O434 Eu432 2.370 1_655 S
O434 Eu437 2.366 1_656 S
O435 Eu428 2.366 1_556 S
O435 Eu432 2.370 . S
O435 Eu437 2.366 1_556 S
O436 Eu428 2.374 . S
O436 Eu431 2.370 . S
O436 Eu437 2.374 . S
Eu437 O433 2.374 1_455 S
Eu437 O434 2.366 1_454 S
Eu437 O435 2.366 1_554 S
Eu437 O436 2.374 . S
Eu437 O440 2.369 . S
Eu437 O441 2.357 1_554 S
Eu437 O450 2.363 . S
Eu437 O451 2.363 1_455 S
O438 C412 1.283 . S
O438 Eu424 2.369 . S
O439 C413 1.283 . S
O439 Eu424 2.357 1_556 S
O440 C414 1.283 . S
O440 Eu437 2.369 . S
O441 C415 1.283 . S
O441 Eu437 2.357 1_556 S
O442 C416 1.283 . S
O442 Eu427 2.363 . S
O443 C417 1.283 . S
O443 Eu427 2.363 . S
O444 C418 1.283 . S
O444 Eu428 2.363 . S
O445 C419 1.283 . S
O445 Eu428 2.363 . S
O446 C420 1.283 . S
O446 Eu432 2.363 . S
O447 C421 1.283 . S
O447 Eu432 2.363 1_655 S
O448 C422 1.283 . S
O448 Eu431 2.363 . S
O449 C423 1.283 . S
O449 Eu431 2.363 1_655 S
O450 C418 1.283 . S
O450 Eu437 2.363 . S
O451 C416 1.283 . S
O451 Eu437 2.363 1_655 S
O452 C419 1.283 . S
O452 Eu424 2.363 . S
O453 C417 1.283 . S
O453 Eu424 2.363 1_655 S
O454 C413 1.283 . S
O454 Eu432 2.363 . S
O455 C415 1.283 . S
O455 Eu432 2.363 . S
O456 C412 1.283 . S
O456 Eu431 2.363 . S
O457 C414 1.283 . S
O457 Eu431 2.363 . S
O458 C423 1.283 . S
O458 Eu427 2.369 . S
O459 C421 1.283 . S
O459 Eu427 2.357 1_556 S
O460 C422 1.283 . S
O460 Eu428 2.369 . S
O461 C420 1.283 . S
O461 Eu428 2.357 1_556 S
C462 O488 1.283 . S
C462 O506 1.283 . S
C463 O489 1.283 . S
C463 O504 1.283 . S
C464 O490 1.283 . S
C464 O507 1.283 . S
C465 O491 1.283 . S
C465 O505 1.283 . S
C466 O492 1.283 . S
C466 O501 1.283 . S
C467 O493 1.283 . S
C467 O503 1.283 . S
C468 O494 1.283 . S
C468 O500 1.283 . S
C469 O495 1.283 . S
C469 O502 1.283 . S
C470 O496 1.283 . S
C470 O511 1.283 . S
C471 O497 1.283 . S
C471 O509 1.283 . S
C472 O498 1.283 . S
C472 O510 1.283 . S
C473 O499 1.283 . S
C473 O508 1.283 . S
Eu474 O475 2.370 . S
Eu474 O476 2.370 . S
Eu474 O479 2.370 . S
Eu474 O480 2.370 . S
Eu474 O488 2.363 . S
Eu474 O489 2.363 . S
Eu474 O502 2.363 . S
Eu474 O503 2.363 . S
O475 Eu474 2.370 . S
O475 Eu477 2.374 . S
O475 Eu482 2.373 . S
O476 Eu474 2.370 . S
O476 Eu478 2.374 . S
O476 Eu481 2.374 . S
Eu477 O475 2.374 . S
Eu477 O479 2.374 . S
Eu477 O483 2.366 1_554 S
Eu477 O484 2.366 1_554 S
Eu477 O492 2.357 1_554 S
Eu477 O493 2.369 . S
Eu477 O508 2.363 . S
Eu477 O509 2.363 . S
Eu478 O476 2.374 . S
Eu478 O480 2.374 . S
Eu478 O485 2.366 1_554 S
Eu478 O486 2.366 1_554 S
Eu478 O494 2.357 1_554 S
Eu478 O495 2.369 . S
Eu478 O510 2.363 . S
Eu478 O511 2.363 . S
O479 Eu474 2.370 . S
O479 Eu477 2.374 . S
O479 Eu481 2.374 . S
O480 Eu474 2.370 . S
O480 Eu478 2.374 . S
O480 Eu482 2.373 . S
Eu481 O476 2.374 . S
Eu481 O479 2.374 . S
Eu481 O483 2.366 1_554 S
Eu481 O486 2.366 1_554 S
Eu481 O498 2.363 . S
Eu481 O499 2.363 . S
Eu481 O506 2.370 . S
Eu481 O507 2.356 1_554 S
Eu482 O475 2.373 . S
Eu482 O480 2.373 . S
Eu482 O484 2.367 1_554 S
Eu482 O485 2.367 1_554 S
Eu482 O496 2.363 . S
Eu482 O497 2.363 . S
Eu482 O504 2.369 . S
Eu482 O505 2.357 1_554 S
O483 Eu477 2.366 1_556 S
O483 Eu481 2.366 1_556 S
O483 Eu487 2.370 . S
O484 Eu477 2.366 1_556 S
O484 Eu482 2.367 1_556 S
O484 Eu487 2.370 . S
O485 Eu478 2.366 1_556 S
O485 Eu482 2.367 1_556 S
O485 Eu487 2.370 . S
O486 Eu478 2.366 1_556 S
O486 Eu481 2.366 1_556 S
O486 Eu487 2.370 . S
Eu487 O483 2.370 . S
Eu487 O484 2.370 . S
Eu487 O485 2.370 . S
Eu487 O486 2.370 . S
Eu487 O490 2.363 . S
Eu487 O491 2.363 . S
Eu487 O500 2.363 . S
Eu487 O501 2.363 . S
O488 C462 1.283 . S
O488 Eu474 2.363 . S
O489 C463 1.283 . S
O489 Eu474 2.363 . S
O490 C464 1.283 . S
O490 Eu487 2.363 . S
O491 C465 1.283 . S
O491 Eu487 2.363 . S
O492 C466 1.283 . S
O492 Eu477 2.357 1_556 S
O493 C467 1.283 . S
O493 Eu477 2.369 . S
O494 C468 1.283 . S
O494 Eu478 2.357 1_556 S
O495 C469 1.283 . S
O495 Eu478 2.369 . S
O496 C470 1.283 . S
O496 Eu482 2.363 . S
O497 C471 1.283 . S
O497 Eu482 2.363 . S
O498 C472 1.283 . S
O498 Eu481 2.363 . S
O499 C473 1.283 . S
O499 Eu481 2.363 . S
O500 C468 1.283 . S
O500 Eu487 2.363 . S
O501 C466 1.283 . S
O501 Eu487 2.363 . S
O502 C469 1.283 . S
O502 Eu474 2.363 . S
O503 C467 1.283 . S
O503 Eu474 2.363 . S
O504 C463 1.283 . S
O504 Eu482 2.369 . S
O505 C465 1.283 . S
O505 Eu482 2.357 1_556 S
O506 C462 1.283 . S
O506 Eu481 2.370 . S
O507 C464 1.283 . S
O507 Eu481 2.356 1_556 S
O508 C473 1.283 . S
O508 Eu477 2.363 . S
O509 C471 1.283 . S
O509 Eu477 2.363 . S
O510 C472 1.283 . S
O510 Eu478 2.363 . S
O511 C470 1.283 . S
O511 Eu478 2.363 . S
C512 O538 1.283 . S
C512 O556 1.283 . S
C513 O539 1.283 . S
C513 O554 1.283 . S
C514 O540 1.283 . S
C514 O557 1.283 . S
C515 O541 1.283 . S
C515 O555 1.283 . S
C516 O542 1.283 . S
C516 O551 1.283 . S
C517 O543 1.283 . S
C517 O553 1.283 . S
C518 O544 1.283 . S
C518 O550 1.283 . S
C519 O545 1.283 . S
C519 O552 1.283 . S
C520 O546 1.283 . S
C520 O561 1.283 . S
C521 O547 1.283 . S
C521 O559 1.283 . S
C522 O548 1.283 . S
C522 O560 1.283 . S
C523 O549 1.283 . S
C523 O558 1.283 . S
Eu524 O525 2.370 1_455 S
Eu524 O526 2.370 . S
Eu524 O529 2.370 1_455 S
Eu524 O530 2.370 . S
Eu524 O538 2.363 . S
Eu524 O539 2.363 . S
Eu524 O552 2.363 . S
Eu524 O553 2.363 1_455 S
O525 Eu524 2.370 1_655 S
O525 Eu527 2.370 . S
O525 Eu532 2.370 1_655 S
O526 Eu524 2.370 . S
O526 Eu528 2.370 . S
O526 Eu531 2.370 . S
Eu527 O525 2.370 . S
Eu527 O529 2.370 . S
Eu527 O533 2.370 . S
Eu527 O534 2.370 . S
Eu527 O542 2.363 . S
Eu527 O543 2.363 . S
Eu527 O558 2.363 . S
Eu527 O559 2.363 . S
Eu528 O526 2.370 . S
Eu528 O530 2.370 . S
Eu528 O535 2.370 . S
Eu528 O536 2.370 . S
Eu528 O544 2.363 . S
Eu528 O545 2.363 . S
Eu528 O560 2.363 . S
Eu528 O561 2.363 . S
O529 Eu524 2.370 1_655 S
O529 Eu527 2.370 . S
O529 Eu531 2.370 1_655 S
O530 Eu524 2.370 . S
O530 Eu528 2.370 . S
O530 Eu532 2.370 . S
Eu531 O526 2.370 . S
Eu531 O529 2.370 1_455 S
Eu531 O533 2.370 1_455 S
Eu531 O536 2.370 . S
Eu531 O548 2.363 . S
Eu531 O549 2.363 1_455 S
Eu531 O556 2.363 . S
Eu531 O557 2.363 . S
Eu532 O525 2.370 1_455 S
Eu532 O530 2.370 . S
Eu532 O534 2.370 1_455 S
Eu532 O535 2.370 . S
Eu532 O546 2.363 . S
Eu532 O547 2.363 1_455 S
Eu532 O554 2.363 . S
Eu532 O555 2.363 . S
O533 Eu527 2.370 . S
O533 Eu531 2.370 1_655 S
O533 Eu537 2.370 1_655 S
O534 Eu527 2.370 . S
O534 Eu532 2.370 1_655 S
O534 Eu537 2.370 1_655 S
O535 Eu528 2.370 . S
O535 Eu532 2.370 . S
O535 Eu537 2.370 . S
O536 Eu528 2.370 . S
O536 Eu531 2.370 . S
O536 Eu537 2.370 . S
Eu537 O533 2.370 1_455 S
Eu537 O534 2.370 1_455 S
Eu537 O535 2.370 . S
Eu537 O536 2.370 . S
Eu537 O540 2.363 . S
Eu537 O541 2.363 . S
Eu537 O550 2.363 . S
Eu537 O551 2.363 1_455 S
O538 C512 1.283 . S
O538 Eu524 2.363 . S
O539 C513 1.283 . S
O539 Eu524 2.363 . S
O540 C514 1.283 . S
O540 Eu537 2.363 . S
O541 C515 1.283 . S
O541 Eu537 2.363 . S
O542 C516 1.283 . S
O542 Eu527 2.363 . S
O543 C517 1.283 . S
O543 Eu527 2.363 . S
O544 C518 1.283 . S
O544 Eu528 2.363 . S
O545 C519 1.283 . S
O545 Eu528 2.363 . S
O546 C520 1.283 . S
O546 Eu532 2.363 . S
O547 C521 1.283 . S
O547 Eu532 2.363 1_655 S
O548 C522 1.283 . S
O548 Eu531 2.363 . S
O549 C523 1.283 . S
O549 Eu531 2.363 1_655 S
O550 C518 1.283 . S
O550 Eu537 2.363 . S
O551 C516 1.283 . S
O551 Eu537 2.363 1_655 S
O552 C519 1.283 . S
O552 Eu524 2.363 . S
O553 C517 1.283 . S
O553 Eu524 2.363 1_655 S
O554 C513 1.283 . S
O554 Eu532 2.363 . S
O555 C515 1.283 . S
O555 Eu532 2.363 . S
O556 C512 1.283 . S
O556 Eu531 2.363 . S
O557 C514 1.283 . S
O557 Eu531 2.363 . S
O558 C523 1.283 . S
O558 Eu527 2.363 . S
O559 C521 1.283 . S
O559 Eu527 2.363 . S
O560 C522 1.283 . S
O560 Eu528 2.363 . S
O561 C520 1.283 . S
O561 Eu528 2.363 . S
C562 O588 1.283 . S
C562 O606 1.283 . S
C563 O589 1.283 . S
C563 O604 1.283 . S
C564 O590 1.283 . S
C564 O607 1.283 . S
C565 O591 1.283 . S
C565 O605 1.283 . S
C566 O592 1.283 . S
C566 O601 1.283 . S
C567 O593 1.283 . S
C567 O603 1.283 . S
C568 O594 1.283 . S
C568 O600 1.283 . S
C569 O595 1.283 . S
C569 O602 1.283 . S
C570 O596 1.283 . S
C570 O611 1.283 . S
C571 O597 1.283 . S
C571 O609 1.283 . S
C572 O598 1.283 . S
C572 O610 1.283 . S
C573 O599 1.283 . S
C573 O608 1.283 . S
Eu574 O575 2.370 . S
Eu574 O576 2.370 . S
Eu574 O579 2.370 . S
Eu574 O580 2.370 . S
Eu574 O588 2.363 . S
Eu574 O589 2.363 . S
Eu574 O602 2.363 . S
Eu574 O603 2.363 . S
O575 Eu574 2.370 . S
O575 Eu577 2.366 1_565 S
O575 Eu582 2.367 1_565 S
O576 Eu574 2.370 . S
O576 Eu578 2.366 1_565 S
O576 Eu581 2.366 1_565 S
Eu577 O575 2.366 1_545 S
Eu577 O579 2.366 1_545 S
Eu577 O583 2.374 . S
Eu577 O584 2.374 . S
Eu577 O592 2.369 . S
Eu577 O593 2.357 1_545 S
Eu577 O608 2.363 . S
Eu577 O609 2.363 . S
Eu578 O576 2.366 1_545 S
Eu578 O580 2.366 1_545 S
Eu578 O585 2.374 . S
Eu578 O586 2.374 . S
Eu578 O594 2.369 . S
Eu578 O595 2.357 1_545 S
Eu578 O610 2.363 . S
Eu578 O611 2.363 . S
O579 Eu574 2.370 . S
O579 Eu577 2.366 1_565 S
O579 Eu581 2.366 1_565 S
O580 Eu574 2.370 . S
O580 Eu578 2.366 1_565 S
O580 Eu582 2.367 1_565 S
Eu581 O576 2.366 1_545 S
Eu581 O579 2.366 1_545 S
Eu581 O583 2.374 . S
Eu581 O586 2.374 . S
Eu581 O598 2.363 . S
Eu581 O599 2.363 . S
Eu581 O606 2.357 1_545 S
Eu581 O607 2.369 . S
Eu582 O575 2.367 1_545 S
Eu582 O580 2.367 1_545 S
Eu582 O584 2.374 . S
Eu582 O585 2.374 . S
Eu582 O596 2.363 . S
Eu582 O597 2.363 . S
Eu582 O604 2.357 1_545 S
Eu582 O605 2.369 . S
O583 Eu577 2.374 . S
O583 Eu581 2.374 . S
O583 Eu587 2.370 . S
O584 Eu577 2.374 . S
O584 Eu582 2.374 . S
O584 Eu587 2.370 . S
O585 Eu578 2.374 . S
O585 Eu582 2.374 . S
O585 Eu587 2.370 . S
O586 Eu578 2.374 . S
O586 Eu581 2.374 . S
O586 Eu587 2.370 . S
Eu587 O583 2.370 . S
Eu587 O584 2.370 . S
Eu587 O585 2.370 . S
Eu587 O586 2.370 . S
Eu587 O590 2.363 . S
Eu587 O591 2.363 . S
Eu587 O600 2.363 . S
Eu587 O601 2.363 . S
O588 C562 1.283 . S
O588 Eu574 2.363 . S
O589 C563 1.283 . S
O589 Eu574 2.363 . S
O590 C564 1.283 . S
O590 Eu587 2.363 . S
O591 C565 1.283 . S
O591 Eu587 2.363 . S
O592 C566 1.283 . S
O592 Eu577 2.369 . S
O593 C567 1.283 . S
O593 Eu577 2.357 1_565 S
O594 C568 1.283 . S
O594 Eu578 2.369 . S
O595 C569 1.283 . S
O595 Eu578 2.357 1_565 S
O596 C570 1.283 . S
O596 Eu582 2.363 . S
O597 C571 1.283 . S
O597 Eu582 2.363 . S
O598 C572 1.283 . S
O598 Eu581 2.363 . S
O599 C573 1.283 . S
O599 Eu581 2.363 . S
O600 C568 1.283 . S
O600 Eu587 2.363 . S
O601 C566 1.283 . S
O601 Eu587 2.363 . S
O602 C569 1.283 . S
O602 Eu574 2.363 . S
O603 C567 1.283 . S
O603 Eu574 2.363 . S
O604 C563 1.283 . S
O604 Eu582 2.357 1_565 S
O605 C565 1.283 . S
O605 Eu582 2.369 . S
O606 C562 1.283 . S
O606 Eu581 2.357 1_565 S
O607 C564 1.283 . S
O607 Eu581 2.369 . S
O608 C573 1.283 . S
O608 Eu577 2.363 . S
O609 C571 1.283 . S
O609 Eu577 2.363 . S
O610 C572 1.283 . S
O610 Eu578 2.363 . S
O611 C570 1.283 . S
O611 Eu578 2.363 . S
C612 C613 1.369 . S
C612 C614 1.419 . S
C612 H616 0.930 . S
C613 C612 1.369 . S
C613 C622 1.429 . S
C614 C612 1.419 . S
C614 C615 1.363 . S
C614 H617 0.929 . S
C615 C614 1.363 . S
C615 C621 1.428 . S
H616 C612 0.930 . S
H617 C614 0.929 . S
S618 N619 1.613 . S
S618 N620 1.610 . S
N619 S618 1.613 . S
N619 C622 1.350 . S
N620 S618 1.610 . S
N620 C621 1.351 . S
C621 C615 1.428 . S
C621 N620 1.351 . S
C621 C622 1.434 . S
C622 C613 1.429 . S
C622 N619 1.350 . S
C622 C621 1.434 . S
C623 C624 1.369 . S
C623 C625 1.419 . S
C623 H627 0.930 . S
C624 C623 1.369 . S
C624 C633 1.429 . S
C625 C623 1.419 . S
C625 C626 1.363 . S
C625 H628 0.929 . S
C626 C625 1.363 . S
C626 C632 1.428 . S
H627 C623 0.930 . S
H628 C625 0.929 . S
S629 N630 1.613 . S
S629 N631 1.610 . S
N630 S629 1.613 . S
N630 C633 1.350 . S
N631 S629 1.610 . S
N631 C632 1.351 . S
C632 C626 1.428 . S
C632 N631 1.351 . S
C632 C633 1.434 . S
C633 C624 1.429 . S
C633 N630 1.350 . S
C633 C632 1.434 . S
C634 C635 1.369 . S
C634 C636 1.419 . S
C634 H638 0.930 . S
C635 C634 1.369 . S
C635 C644 1.429 . S
C636 C634 1.419 . S
C636 C637 1.363 . S
C636 H639 0.929 . S
C637 C636 1.363 . S
C637 C643 1.428 . S
H638 C634 0.930 . S
H639 C636 0.929 . S
S640 N641 1.613 . S
S640 N642 1.610 . S
N641 S640 1.613 . S
N641 C644 1.350 . S
N642 S640 1.610 . S
N642 C643 1.351 . S
C643 C637 1.428 . S
C643 N642 1.351 . S
C643 C644 1.434 . S
C644 C635 1.429 . S
C644 N641 1.350 . S
C644 C643 1.434 . S
C645 C646 1.369 . S
C645 C647 1.419 . S
C645 H649 0.930 . S
C646 C645 1.369 . S
C646 C655 1.429 . S
C647 C645 1.419 . S
C647 C648 1.363 . S
C647 H650 0.929 . S
C648 C647 1.363 . S
C648 C654 1.428 . S
H649 C645 0.930 . S
H650 C647 0.929 . S
S651 N652 1.613 . S
S651 N653 1.610 . S
N652 S651 1.613 . S
N652 C655 1.350 . S
N653 S651 1.610 . S
N653 C654 1.351 . S
C654 C648 1.428 . S
C654 N653 1.351 . S
C654 C655 1.434 . S
C655 C646 1.429 . S
C655 N652 1.350 . S
C655 C654 1.434 . S
C656 C657 1.369 . S
C656 C658 1.419 . S
C656 H660 0.930 . S
C657 C656 1.369 . S
C657 C666 1.429 . S
C658 C656 1.419 . S
C658 C659 1.363 . S
C658 H661 0.929 . S
C659 C658 1.363 . S
C659 C665 1.428 . S
H660 C656 0.930 . S
H661 C658 0.929 . S
S662 N663 1.613 . S
S662 N664 1.610 . S
N663 S662 1.613 . S
N663 C666 1.350 . S
N664 S662 1.610 . S
N664 C665 1.351 . S
C665 C659 1.428 . S
C665 N664 1.351 . S
C665 C666 1.434 . S
C666 C657 1.429 . S
C666 N663 1.350 . S
C666 C665 1.434 . S
C667 C668 1.369 . S
C667 C669 1.419 . S
C667 H671 0.930 . S
C668 C667 1.369 . S
C668 C677 1.429 . S
C669 C667 1.419 . S
C669 C670 1.363 . S
C669 H672 0.929 . S
C670 C669 1.363 . S
C670 C676 1.428 . S
H671 C667 0.930 . S
H672 C669 0.929 . S
S673 N674 1.613 . S
S673 N675 1.610 . S
N674 S673 1.613 . S
N674 C677 1.350 . S
N675 S673 1.610 . S
N675 C676 1.351 . S
C676 C670 1.428 . S
C676 N675 1.351 . S
C676 C677 1.434 . S
C677 C668 1.429 . S
C677 N674 1.350 . S
C677 C676 1.434 . S
C678 C679 1.369 . S
C678 C680 1.419 . S
C678 H682 0.930 . S
C679 C678 1.369 . S
C679 C688 1.429 . S
C680 C678 1.419 . S
C680 C681 1.363 . S
C680 H683 0.929 . S
C681 C680 1.363 . S
C681 C687 1.428 . S
H682 C678 0.930 . S
H683 C680 0.929 . S
S684 N685 1.613 . S
S684 N686 1.610 . S
N685 S684 1.613 . S
N685 C688 1.350 . S
N686 S684 1.610 . S
N686 C687 1.351 . S
C687 C681 1.428 . S
C687 N686 1.351 . S
C687 C688 1.434 . S
C688 C679 1.429 . S
C688 N685 1.350 . S
C688 C687 1.434 . S
C689 C690 1.369 . S
C689 C691 1.419 . S
C689 H693 0.930 . S
C690 C689 1.369 . S
C690 C699 1.429 . S
C691 C689 1.419 . S
C691 C692 1.363 . S
C691 H694 0.929 . S
C692 C691 1.363 . S
C692 C698 1.428 . S
H693 C689 0.930 . S
H694 C691 0.929 . S
S695 N696 1.613 . S
S695 N697 1.610 . S
N696 S695 1.613 . S
N696 C699 1.350 . S
N697 S695 1.610 . S
N697 C698 1.351 . S
C698 C692 1.428 . S
C698 N697 1.351 . S
C698 C699 1.434 . S
C699 C690 1.429 . S
C699 N696 1.350 . S
C699 C698 1.434 . S
C700 C701 1.369 . S
C700 C702 1.419 . S
C700 H704 0.930 . S
C701 C700 1.369 . S
C701 C710 1.429 . S
C702 C700 1.419 . S
C702 C703 1.363 . S
C702 H705 0.929 . S
C703 C702 1.363 . S
C703 C709 1.428 . S
H704 C700 0.930 . S
H705 C702 0.929 . S
S706 N707 1.613 . S
S706 N708 1.610 . S
N707 S706 1.613 . S
N707 C710 1.350 . S
N708 S706 1.610 . S
N708 C709 1.351 . S
C709 C703 1.428 . S
C709 N708 1.351 . S
C709 C710 1.434 . S
C710 C701 1.429 . S
C710 N707 1.350 . S
C710 C709 1.434 . S
C711 C712 1.369 . S
C711 C713 1.419 . S
C711 H715 0.930 . S
C712 C711 1.369 . S
C712 C721 1.429 . S
C713 C711 1.419 . S
C713 C714 1.363 . S
C713 H716 0.929 . S
C714 C713 1.363 . S
C714 C720 1.428 . S
H715 C711 0.930 . S
H716 C713 0.929 . S
S717 N718 1.613 . S
S717 N719 1.610 . S
N718 S717 1.613 . S
N718 C721 1.350 . S
N719 S717 1.610 . S
N719 C720 1.351 . S
C720 C714 1.428 . S
C720 N719 1.351 . S
C720 C721 1.434 . S
C721 C712 1.429 . S
C721 N718 1.350 . S
C721 C720 1.434 . S
C722 C723 1.369 . S
C722 C724 1.419 . S
C722 H726 0.930 . S
C723 C722 1.369 . S
C723 C732 1.429 . S
C724 C722 1.419 . S
C724 C725 1.363 . S
C724 H727 0.929 . S
C725 C724 1.363 . S
C725 C731 1.428 . S
H726 C722 0.930 . S
H727 C724 0.929 . S
S728 N729 1.613 . S
S728 N730 1.610 . S
N729 S728 1.613 . S
N729 C732 1.350 . S
N730 S728 1.610 . S
N730 C731 1.351 . S
C731 C725 1.428 . S
C731 N730 1.351 . S
C731 C732 1.434 . S
C732 C723 1.429 . S
C732 N729 1.350 . S
C732 C731 1.434 . S
C733 C734 1.369 . S
C733 C735 1.419 . S
C733 H737 0.930 . S
C734 C733 1.369 . S
C734 C743 1.429 . S
C735 C733 1.419 . S
C735 C736 1.363 . S
C735 H738 0.929 . S
C736 C735 1.363 . S
C736 C742 1.428 . S
H737 C733 0.930 . S
H738 C735 0.929 . S
S739 N740 1.613 . S
S739 N741 1.610 . S
N740 S739 1.613 . S
N740 C743 1.350 . S
N741 S739 1.610 . S
N741 C742 1.351 . S
C742 C736 1.428 . S
C742 N741 1.351 . S
C742 C743 1.434 . S
C743 C734 1.429 . S
C743 N740 1.350 . S
C743 C742 1.434 . S
C744 C745 1.367 1_554 S
C744 C746 1.419 . S
C744 H748 0.930 . S
C745 C744 1.367 1_556 S
C745 C754 1.430 . S
C746 C744 1.419 . S
C746 C747 1.364 1_554 S
C746 H749 0.929 . S
C747 C746 1.364 1_556 S
C747 C753 1.427 . S
H748 C744 0.930 . S
H749 C746 0.929 . S
S750 N751 1.613 . S
S750 N752 1.610 . S
N751 S750 1.613 . S
N751 C754 1.350 . S
N752 S750 1.610 . S
N752 C753 1.351 . S
C753 C747 1.427 . S
C753 N752 1.351 . S
C753 C754 1.434 . S
C754 C745 1.430 . S
C754 N751 1.350 . S
C754 C753 1.434 . S
C755 C756 1.366 1_554 S
C755 C757 1.419 . S
C755 H759 0.930 . S
C756 C755 1.366 1_556 S
C756 C765 1.432 . S
C757 C755 1.419 . S
C757 C758 1.363 1_554 S
C757 H760 0.929 . S
C758 C757 1.363 1_556 S
C758 C764 1.428 . S
H759 C755 0.930 . S
H760 C757 0.929 . S
S761 N762 1.613 . S
S761 N763 1.610 . S
N762 S761 1.613 . S
N762 C765 1.350 . S
N763 S761 1.610 . S
N763 C764 1.351 . S
C764 C758 1.428 . S
C764 N763 1.351 . S
C764 C765 1.434 . S
C765 C756 1.432 . S
C765 N762 1.350 . S
C765 C764 1.434 . S
C766 C767 1.371 . S
C766 C768 1.419 . S
C766 H770 0.930 . S
C767 C766 1.371 . S
C767 C776 1.427 1_554 S
C768 C766 1.419 . S
C768 C769 1.364 . S
C768 H771 0.929 . S
C769 C768 1.364 . S
C769 C775 1.427 1_554 S
H770 C766 0.930 . S
H771 C768 0.929 . S
S772 N773 1.613 . S
S772 N774 1.610 . S
N773 S772 1.613 . S
N773 C776 1.350 . S
N774 S772 1.610 . S
N774 C775 1.351 . S
C775 C769 1.427 1_556 S
C775 N774 1.351 . S
C775 C776 1.434 . S
C776 C767 1.427 1_556 S
C776 N773 1.350 . S
C776 C775 1.434 . S
C777 C778 1.371 . S
C777 C779 1.419 . S
C777 H781 0.930 . S
C778 C777 1.371 . S
C778 C787 1.426 1_554 S
C779 C777 1.419 . S
C779 C780 1.365 . S
C779 H782 0.929 . S
C780 C779 1.365 . S
C780 C786 1.426 1_554 S
H781 C777 0.930 . S
H782 C779 0.929 . S
S783 N784 1.613 . S
S783 N785 1.610 . S
N784 S783 1.613 . S
N784 C787 1.350 . S
N785 S783 1.610 . S
N785 C786 1.351 . S
C786 C780 1.426 1_556 S
C786 N785 1.351 . S
C786 C787 1.434 . S
C787 C778 1.426 1_556 S
C787 N784 1.350 . S
C787 C786 1.434 . S
C788 C789 1.369 . S
C788 C790 1.419 . S
C788 H792 0.930 . S
C789 C788 1.369 . S
C789 C798 1.429 . S
C790 C788 1.419 . S
C790 C791 1.363 . S
C790 H793 0.929 . S
C791 C790 1.363 . S
C791 C797 1.428 . S
H792 C788 0.930 . S
H793 C790 0.929 . S
S794 N795 1.613 1_655 S
S794 N796 1.610 1_655 S
N795 S794 1.613 1_455 S
N795 C798 1.350 . S
N796 S794 1.610 1_455 S
N796 C797 1.351 . S
C797 C791 1.428 . S
C797 N796 1.351 . S
C797 C798 1.434 . S
C798 C789 1.429 . S
C798 N795 1.350 . S
C798 C797 1.434 . S
C799 C800 1.369 1_565 S
C799 C801 1.419 1_565 S
C799 H803 0.930 . S
C800 C799 1.369 1_545 S
C800 C809 1.429 . S
C801 C799 1.419 1_545 S
C801 C802 1.363 . S
C801 H804 0.929 1_545 S
C802 C801 1.363 . S
C802 C808 1.429 . S
H803 C799 0.930 . S
H804 C801 0.929 1_565 S
S805 N806 1.613 . S
S805 N807 1.610 . S
N806 S805 1.613 . S
N806 C809 1.350 . S
N807 S805 1.610 . S
N807 C808 1.351 . S
C808 C802 1.429 . S
C808 N807 1.351 . S
C808 C809 1.434 . S
C809 C800 1.429 . S
C809 N806 1.350 . S
C809 C808 1.434 . S
C810 C811 1.369 1_655 S
C810 C812 1.419 . S
C810 H814 0.930 . S
C811 C810 1.369 1_455 S
C811 C820 1.429 . S
C812 C810 1.419 . S
C812 C813 1.363 1_655 S
C812 H815 0.929 . S
C813 C812 1.363 1_455 S
C813 C819 1.428 . S
H814 C810 0.930 . S
H815 C812 0.929 . S
S816 N817 1.613 . S
S816 N818 1.610 . S
N817 S816 1.613 . S
N817 C820 1.350 . S
N818 S816 1.610 . S
N818 C819 1.351 . S
C819 C813 1.428 . S
C819 N818 1.351 . S
C819 C820 1.434 . S
C820 C811 1.429 . S
C820 N817 1.350 . S
C820 C819 1.434 . S
C821 C822 1.372 . S
C821 C823 1.419 . S
C821 H825 0.930 . S
C822 C821 1.372 . S
C822 C831 1.426 1_545 S
C823 C821 1.419 . S
C823 C824 1.365 . S
C823 H826 0.929 . S
C824 C823 1.365 . S
C824 C830 1.426 1_545 S
H825 C821 0.930 . S
H826 C823 0.929 . S
S827 N828 1.613 . S
S827 N829 1.610 . S
N828 S827 1.613 . S
N828 C831 1.350 . S
N829 S827 1.610 . S
N829 C830 1.351 . S
C830 C824 1.426 1_565 S
C830 N829 1.351 . S
C830 C831 1.434 . S
C831 C822 1.426 1_565 S
C831 N828 1.350 . S
C831 C830 1.434 . S
C832 C833 1.369 . S
C832 C834 1.419 . S
C832 H836 0.930 . S
C833 C832 1.369 . S
C833 C842 1.429 . S
C834 C832 1.419 . S
C834 C835 1.363 . S
C834 H837 0.929 . S
C835 C834 1.363 . S
C835 C841 1.428 . S
H836 C832 0.930 . S
H837 C834 0.929 . S
S838 N839 1.613 . S
S838 N840 1.610 . S
N839 S838 1.613 . S
N839 C842 1.350 . S
N840 S838 1.610 . S
N840 C841 1.351 . S
C841 C835 1.428 . S
C841 N840 1.351 . S
C841 C842 1.434 . S
C842 C833 1.429 . S
C842 N839 1.350 . S
C842 C841 1.434 . S
C843 C844 1.370 . S
C843 C845 1.419 . S
C843 H847 0.930 . S
C844 C843 1.370 . S
C844 C853 1.428 1_545 S
C845 C843 1.419 . S
C845 C846 1.364 . S
C845 H848 0.929 . S
C846 C845 1.364 . S
C846 C852 1.427 1_545 S
H847 C843 0.930 . S
H848 C845 0.929 . S
S849 N850 1.613 . S
S849 N851 1.610 . S
N850 S849 1.613 . S
N850 C853 1.350 . S
N851 S849 1.610 . S
N851 C852 1.351 . S
C852 C846 1.427 1_565 S
C852 N851 1.351 . S
C852 C853 1.434 . S
C853 C844 1.428 1_565 S
C853 N850 1.350 . S
C853 C852 1.434 . S
C854 C855 1.369 . S
C854 C856 1.419 . S
C854 H858 0.930 . S
C855 C854 1.369 . S
C855 C864 1.429 1_455 S
C856 C854 1.419 . S
C856 C857 1.363 . S
C856 H859 0.929 . S
C857 C856 1.363 . S
C857 C863 1.428 1_455 S
H858 C854 0.930 . S
H859 C856 0.929 . S
S860 N861 1.613 . S
S860 N862 1.610 . S
N861 S860 1.613 . S
N861 C864 1.350 . S
N862 S860 1.610 . S
N862 C863 1.351 . S
C863 C857 1.428 1_655 S
C863 N862 1.351 . S
C863 C864 1.434 . S
C864 C855 1.429 1_655 S
C864 N861 1.350 . S
C864 C863 1.434 . S
C865 C866 1.352 1_565 S
C865 C867 1.419 . S
C865 H869 0.930 . S
C866 C865 1.352 1_545 S
C866 C875 1.446 . S
C867 C865 1.419 . S
C867 C868 1.349 1_565 S
C867 H870 0.929 . S
C868 C867 1.349 1_545 S
C868 C874 1.443 . S
H869 C865 0.930 . S
H870 C867 0.929 . S
S871 N872 1.613 . S
S871 N873 1.610 . S
N872 S871 1.613 . S
N872 C875 1.350 . S
N873 S871 1.610 . S
N873 C874 1.351 . S
C874 C868 1.443 . S
C874 N873 1.351 . S
C874 C875 1.434 . S
C875 C866 1.446 . S
C875 N872 1.350 . S
C875 C874 1.434 . S
C876 C877 1.369 1_655 S
C876 C878 1.419 . S
C876 H880 0.930 . S
C877 C876 1.369 1_455 S
C877 C886 1.429 . S
C878 C876 1.419 . S
C878 C879 1.363 1_655 S
C878 H881 0.929 . S
C879 C878 1.363 1_455 S
C879 C885 1.428 . S
H880 C876 0.930 . S
H881 C878 0.929 . S
S882 N883 1.613 . S
S882 N884 1.610 . S
N883 S882 1.613 . S
N883 C886 1.350 . S
N884 S882 1.610 . S
N884 C885 1.351 . S
C885 C879 1.428 . S
C885 N884 1.351 . S
C885 C886 1.434 . S
C886 C877 1.429 . S
C886 N883 1.350 . S
C886 C885 1.434 . S
C887 C888 1.366 1_545 S
C887 C889 1.419 . S
C887 H891 0.930 . S
C888 C887 1.366 1_565 S
C888 C897 1.432 . S
C889 C887 1.419 . S
C889 C890 1.363 1_545 S
C889 H892 0.929 . S
C890 C889 1.363 1_565 S
C890 C896 1.428 . S
H891 C887 0.930 . S
H892 C889 0.929 . S
S893 N894 1.613 . S
S893 N895 1.610 . S
N894 S893 1.613 . S
N894 C897 1.350 . S
N895 S893 1.610 . S
N895 C896 1.351 . S
C896 C890 1.428 . S
C896 N895 1.351 . S
C896 C897 1.434 . S
C897 C888 1.432 . S
C897 N894 1.350 . S
C897 C896 1.434 . S
C898 C899 1.369 1_655 S
C898 C900 1.419 . S
C898 H902 0.930 . S
C899 C898 1.369 1_455 S
C899 C908 1.429 . S
C900 C898 1.419 . S
C900 C901 1.363 1_655 S
C900 H903 0.929 . S
C901 C900 1.363 1_455 S
C901 C907 1.428 . S
H902 C898 0.930 . S
H903 C900 0.929 . S
S904 N905 1.613 . S
S904 N906 1.610 . S
N905 S904 1.613 . S
N905 C908 1.350 . S
N906 S904 1.610 . S
N906 C907 1.351 . S
C907 C901 1.428 . S
C907 N906 1.351 . S
C907 C908 1.434 . S
C908 C899 1.429 . S
C908 N905 1.350 . S
C908 C907 1.434 . S
C909 C910 1.368 1_545 S
C909 C911 1.419 . S
C909 H913 0.930 . S
C910 C909 1.368 1_565 S
C910 C919 1.430 . S
C911 C909 1.419 . S
C911 C912 1.363 1_545 S
C911 H914 0.929 . S
C912 C911 1.363 1_565 S
C912 C918 1.428 . S
H913 C909 0.930 . S
H914 C911 0.929 . S
S915 N916 1.613 . S
S915 N917 1.610 . S
N916 S915 1.613 . S
N916 C919 1.350 . S
N917 S915 1.610 . S
N917 C918 1.351 . S
C918 C912 1.428 . S
C918 N917 1.351 . S
C918 C919 1.434 . S
C919 C910 1.430 . S
C919 N916 1.350 . S
C919 C918 1.434 . S
C920 C921 1.369 1_655 S
C920 C922 1.419 . S
C920 H924 0.930 . S
C921 C920 1.369 1_455 S
C921 C930 1.429 . S
C922 C920 1.419 . S
C922 C923 1.363 1_655 S
C922 H925 0.929 . S
C923 C922 1.363 1_455 S
C923 C929 1.428 . S
H924 C920 0.930 . S
H925 C922 0.929 . S
S926 N927 1.613 . S
S926 N928 1.610 . S
N927 S926 1.613 . S
N927 C930 1.350 . S
N928 S926 1.610 . S
N928 C929 1.351 . S
C929 C923 1.428 . S
C929 N928 1.351 . S
C929 C930 1.434 . S
C930 C921 1.429 . S
C930 N927 1.350 . S
C930 C929 1.434 . S
C931 C932 1.366 1_545 S
C931 C933 1.419 . S
C931 H935 0.930 . S
C932 C931 1.366 1_565 S
C932 C941 1.432 . S
C933 C931 1.419 . S
C933 C934 1.364 1_545 S
C933 H936 0.929 . S
C934 C933 1.364 1_565 S
C934 C940 1.427 . S
H935 C931 0.930 . S
H936 C933 0.929 . S
S937 N938 1.613 . S
S937 N939 1.610 . S
N938 S937 1.613 . S
N938 C941 1.350 . S
N939 S937 1.610 . S
N939 C940 1.351 . S
C940 C934 1.427 . S
C940 N939 1.351 . S
C940 C941 1.434 . S
C941 C932 1.432 . S
C941 N938 1.350 . S
C941 C940 1.434 . S
C942 C943 1.369 . S
C942 C944 1.419 . S
C942 H946 0.930 . S
C943 C942 1.369 . S
C943 C952 1.429 1_455 S
C944 C942 1.419 . S
C944 C945 1.363 . S
C944 H947 0.929 . S
C945 C944 1.363 . S
C945 C951 1.428 1_455 S
H946 C942 0.930 . S
H947 C944 0.929 . S
S948 N949 1.613 . S
S948 N950 1.610 . S
N949 S948 1.613 . S
N949 C952 1.350 . S
N950 S948 1.610 . S
N950 C951 1.351 . S
C951 C945 1.428 1_655 S
C951 N950 1.351 . S
C951 C952 1.434 . S
C952 C943 1.429 1_655 S
C952 N949 1.350 . S
C952 C951 1.434 . S
C953 C954 1.354 1_565 S
C953 C955 1.419 . S
C953 H957 0.930 . S
C954 C953 1.354 1_545 S
C954 C963 1.445 . S
C955 C953 1.419 . S
C955 C956 1.351 1_565 S
C955 H958 0.929 . S
C956 C955 1.351 1_545 S
C956 C962 1.441 . S
H957 C953 0.930 . S
H958 C955 0.929 . S
S959 N960 1.613 . S
S959 N961 1.610 . S
N960 S959 1.613 . S
N960 C963 1.350 . S
N961 S959 1.610 . S
N961 C962 1.351 . S
C962 C956 1.441 . S
C962 N961 1.351 . S
C962 C963 1.434 . S
C963 C954 1.445 . S
C963 N960 1.350 . S
C963 C962 1.434 . S
C964 C965 1.369 1_565 S
C964 C966 1.418 . S
C964 H968 0.930 . S
C965 C964 1.369 1_545 S
C965 C974 1.429 . S
C966 C964 1.418 . S
C966 C967 1.363 . S
C966 H969 0.931 . S
C967 C966 1.363 . S
C967 C973 1.428 1_565 S
H968 C964 0.930 . S
H969 C966 0.931 . S
S970 N971 1.614 . S
S970 N972 1.611 . S
N971 S970 1.614 . S
N971 C974 1.349 1_565 S
N972 S970 1.611 . S
N972 C973 1.351 1_565 S
C973 C967 1.428 1_545 S
C973 N972 1.351 1_545 S
C973 C974 1.434 . S
C974 C965 1.429 . S
C974 N971 1.349 1_545 S
C974 C973 1.434 . S
C975 C976 1.369 . S
C975 C977 1.419 . S
C975 H979 0.930 . S
C976 C975 1.369 . S
C976 C985 1.432 . S
C977 C975 1.419 . S
C977 C978 1.363 . S
C977 H980 0.929 . S
C978 C977 1.363 . S
C978 C984 1.428 . S
H979 C975 0.930 . S
H980 C977 0.929 . S
S981 N982 1.613 . S
S981 N983 1.610 . S
N982 S981 1.613 . S
N982 C985 1.346 1_655 S
N983 S981 1.610 . S
N983 C984 1.351 1_655 S
C984 C978 1.428 . S
C984 N983 1.351 1_455 S
C984 C985 1.434 . S
C985 C976 1.432 . S
C985 N982 1.346 1_455 S
C985 C984 1.434 . S
C986 C987 1.356 1_565 S
C986 C988 1.419 . S
C986 H990 0.930 . S
C987 C986 1.356 1_545 S
C987 C996 1.442 . S
C988 C986 1.419 . S
C988 C989 1.357 1_565 S
C988 H991 0.929 . S
C989 C988 1.357 1_545 S
C989 C995 1.435 . S
H990 C986 0.930 . S
H991 C988 0.929 . S
S992 N993 1.613 . S
S992 N994 1.610 . S
N993 S992 1.613 . S
N993 C996 1.350 . S
N994 S992 1.610 . S
N994 C995 1.351 . S
C995 C989 1.435 . S
C995 N994 1.351 . S
C995 C996 1.434 . S
C996 C987 1.442 . S
C996 N993 1.350 . S
C996 C995 1.434 . S
C997 C998 1.369 . S
C997 C999 1.419 . S
C997 H1001 0.930 . S
C998 C997 1.369 . S
C998 C1007 1.429 1_455 S
C999 C997 1.419 . S
C999 C1000 1.363 . S
C999 H1002 0.929 . S
C1000 C999 1.363 . S
C1000 C1006 1.428 1_455 S
H1001 C997 0.930 . S
H1002 C999 0.929 . S
S1003 N1004 1.613 . S
S1003 N1005 1.610 . S
N1004 S1003 1.613 . S
N1004 C1007 1.350 . S
N1005 S1003 1.610 . S
N1005 C1006 1.351 . S
C1006 C1000 1.428 1_655 S
C1006 N1005 1.351 . S
C1006 C1007 1.434 . S
C1007 C998 1.429 1_655 S
C1007 N1004 1.350 . S
C1007 C1006 1.434 . S
C1008 C1009 1.366 1_565 S
C1008 C1010 1.419 . S
C1008 H1012 0.930 . S
C1009 C1008 1.366 1_545 S
C1009 C1018 1.432 . S
C1010 C1008 1.419 . S
C1010 C1011 1.360 1_565 S
C1010 H1013 0.929 . S
C1011 C1010 1.360 1_545 S
C1011 C1017 1.433 . S
H1012 C1008 0.930 . S
H1013 C1010 0.929 . S
S1014 N1015 1.613 . S
S1014 N1016 1.610 . S
N1015 S1014 1.613 . S
N1015 C1018 1.350 . S
N1016 S1014 1.610 . S
N1016 C1017 1.351 . S
C1017 C1011 1.433 . S
C1017 N1016 1.351 . S
C1017 C1018 1.434 . S
C1018 C1009 1.432 . S
C1018 N1015 1.350 . S
C1018 C1017 1.434 . S
C1019 C1020 1.369 . S
C1019 C1021 1.419 . S
C1019 H1023 0.930 . S
C1020 C1019 1.369 . S
C1020 C1029 1.429 1_455 S
C1021 C1019 1.419 . S
C1021 C1022 1.363 . S
C1021 H1024 0.929 . S
C1022 C1021 1.363 . S
C1022 C1028 1.428 1_455 S
H1023 C1019 0.930 . S
H1024 C1021 0.929 . S
S1025 N1026 1.613 . S
S1025 N1027 1.610 . S
N1026 S1025 1.613 . S
N1026 C1029 1.350 . S
N1027 S1025 1.610 . S
N1027 C1028 1.351 . S
C1028 C1022 1.428 1_655 S
C1028 N1027 1.351 . S
C1028 C1029 1.434 . S
C1029 C1020 1.429 1_655 S
C1029 N1026 1.350 . S
C1029 C1028 1.434 . S
C1030 C1031 1.354 1_565 S
C1030 C1032 1.419 . S
C1030 H1034 0.930 . S
C1031 C1030 1.354 1_545 S
C1031 C1040 1.444 . S
C1032 C1030 1.419 . S
C1032 C1033 1.345 1_565 S
C1032 H1035 0.929 . S
C1033 C1032 1.345 1_545 S
C1033 C1039 1.447 . S
H1034 C1030 0.930 . S
H1035 C1032 0.929 . S
S1036 N1037 1.613 . S
S1036 N1038 1.610 . S
N1037 S1036 1.613 . S
N1037 C1040 1.350 . S
N1038 S1036 1.610 . S
N1038 C1039 1.351 . S
C1039 C1033 1.447 . S
C1039 N1038 1.351 . S
C1039 C1040 1.434 . S
C1040 C1031 1.444 . S
C1040 N1037 1.350 . S
C1040 C1039 1.434 . S
C1041 C1042 1.369 . S
C1041 C1043 1.419 . S
C1041 H1045 0.930 . S
C1042 C1041 1.369 . S
C1042 C1051 1.429 . S
C1043 C1041 1.419 . S
C1043 C1044 1.363 . S
C1043 H1046 0.929 . S
C1044 C1043 1.363 . S
C1044 C1050 1.428 . S
H1045 C1041 0.930 . S
H1046 C1043 0.929 . S
S1047 N1048 1.613 . S
S1047 N1049 1.610 . S
N1048 S1047 1.613 . S
N1048 C1051 1.350 . S
N1049 S1047 1.610 . S
N1049 C1050 1.351 . S
C1050 C1044 1.428 . S
C1050 N1049 1.351 . S
C1050 C1051 1.434 . S
C1051 C1042 1.429 . S
C1051 N1048 1.350 . S
C1051 C1050 1.434 . S
C1052 C1053 1.369 1_556 S
C1052 C1054 1.419 . S
C1052 H1056 0.930 . S
C1053 C1052 1.369 1_554 S
C1053 C1062 1.429 . S
C1054 C1052 1.419 . S
C1054 C1055 1.363 1_556 S
C1054 H1057 0.929 . S
C1055 C1054 1.363 1_554 S
C1055 C1061 1.429 . S
H1056 C1052 0.930 . S
H1057 C1054 0.929 . S
S1058 N1059 1.613 . S
S1058 N1060 1.610 . S
N1059 S1058 1.613 . S
N1059 C1062 1.350 . S
N1060 S1058 1.610 . S
N1060 C1061 1.351 . S
C1061 C1055 1.429 . S
C1061 N1060 1.351 . S
C1061 C1062 1.434 . S
C1062 C1053 1.429 . S
C1062 N1059 1.350 . S
C1062 C1061 1.434 . S
C1063 C1064 1.364 1_556 S
C1063 C1065 1.419 . S
C1063 H1067 0.930 . S
C1064 C1063 1.364 1_554 S
C1064 C1073 1.433 . S
C1065 C1063 1.419 . S
C1065 C1066 1.358 1_556 S
C1065 H1068 0.929 . S
C1066 C1065 1.358 1_554 S
C1066 C1072 1.434 . S
H1067 C1063 0.930 . S
H1068 C1065 0.929 . S
S1069 N1070 1.613 . S
S1069 N1071 1.610 . S
N1070 S1069 1.613 . S
N1070 C1073 1.350 . S
N1071 S1069 1.610 . S
N1071 C1072 1.351 . S
C1072 C1066 1.434 . S
C1072 N1071 1.351 . S
C1072 C1073 1.434 . S
C1073 C1064 1.433 . S
C1073 N1070 1.350 . S
C1073 C1072 1.434 . S
C1074 C1075 1.362 1_556 S
C1074 C1076 1.419 . S
C1074 H1078 0.930 . S
C1075 C1074 1.362 1_554 S
C1075 C1084 1.436 . S
C1076 C1074 1.419 . S
C1076 C1077 1.355 1_556 S
C1076 H1079 0.929 . S
C1077 C1076 1.355 1_554 S
C1077 C1083 1.437 . S
H1078 C1074 0.930 . S
H1079 C1076 0.929 . S
S1080 N1081 1.613 . S
S1080 N1082 1.610 . S
N1081 S1080 1.613 . S
N1081 C1084 1.350 . S
N1082 S1080 1.610 . S
N1082 C1083 1.351 . S
C1083 C1077 1.437 . S
C1083 N1082 1.351 . S
C1083 C1084 1.434 . S
C1084 C1075 1.436 . S
C1084 N1081 1.350 . S
C1084 C1083 1.434 . S
C1085 C1086 1.369 1_556 S
C1085 C1087 1.419 . S
C1085 H1089 0.930 . S
C1086 C1085 1.369 1_554 S
C1086 C1095 1.429 . S
C1087 C1085 1.419 . S
C1087 C1088 1.362 1_556 S
C1087 H1090 0.929 . S
C1088 C1087 1.362 1_554 S
C1088 C1094 1.429 . S
H1089 C1085 0.930 . S
H1090 C1087 0.929 . S
S1091 N1092 1.613 . S
S1091 N1093 1.610 . S
N1092 S1091 1.613 . S
N1092 C1095 1.350 . S
N1093 S1091 1.610 . S
N1093 C1094 1.351 . S
C1094 C1088 1.429 . S
C1094 N1093 1.351 . S
C1094 C1095 1.434 . S
C1095 C1086 1.429 . S
C1095 N1092 1.350 . S
C1095 C1094 1.434 . S
C1096 C1097 1.369 1_554 S
C1096 C1098 1.419 . S
C1096 H1100 0.930 . S
C1097 C1096 1.369 1_556 S
C1097 C1106 1.429 . S
C1098 C1096 1.419 . S
C1098 C1099 1.362 1_554 S
C1098 H1101 0.929 . S
C1099 C1098 1.362 1_556 S
C1099 C1105 1.429 . S
H1100 C1096 0.930 . S
H1101 C1098 0.929 . S
S1102 N1103 1.613 . S
S1102 N1104 1.610 . S
N1103 S1102 1.613 . S
N1103 C1106 1.350 . S
N1104 S1102 1.610 . S
N1104 C1105 1.351 . S
C1105 C1099 1.429 . S
C1105 N1104 1.351 . S
C1105 C1106 1.434 . S
C1106 C1097 1.429 . S
C1106 N1103 1.350 . S
C1106 C1105 1.434 . S
C1107 C1108 1.370 1_554 S
C1107 C1109 1.419 . S
C1107 H1111 0.930 . S
C1108 C1107 1.370 1_556 S
C1108 C1117 1.428 . S
C1109 C1107 1.419 . S
C1109 C1110 1.363 . S
C1109 H1112 0.929 . S
C1110 C1109 1.363 . S
C1110 C1116 1.428 1_554 S
H1111 C1107 0.930 . S
H1112 C1109 0.929 . S
S1113 N1114 1.613 . S
S1113 N1115 1.610 . S
N1114 S1113 1.613 . S
N1114 C1117 1.350 . S
N1115 S1113 1.610 . S
N1115 C1116 1.351 . S
C1116 C1110 1.428 1_556 S
C1116 N1115 1.351 . S
C1116 C1117 1.434 . S
C1117 C1108 1.428 . S
C1117 N1114 1.350 . S
C1117 C1116 1.434 . S
C1118 C1119 1.354 1_556 S
C1118 C1120 1.419 . S
C1118 H1122 0.930 . S
C1119 C1118 1.354 1_554 S
C1119 C1128 1.444 . S
C1120 C1118 1.419 . S
C1120 C1121 1.356 1_556 S
C1120 H1123 0.929 . S
C1121 C1120 1.356 1_554 S
C1121 C1127 1.436 . S
H1122 C1118 0.930 . S
H1123 C1120 0.929 . S
S1124 N1125 1.613 . S
S1124 N1126 1.610 . S
N1125 S1124 1.613 . S
N1125 C1128 1.350 . S
N1126 S1124 1.610 . S
N1126 C1127 1.351 . S
C1127 C1121 1.436 . S
C1127 N1126 1.351 . S
C1127 C1128 1.434 . S
C1128 C1119 1.444 . S
C1128 N1125 1.350 . S
C1128 C1127 1.434 . S
C1129 C1130 1.366 1_556 S
C1129 C1131 1.419 . S
C1129 H1133 0.930 . S
C1130 C1129 1.366 1_554 S
C1130 C1139 1.432 . S
C1131 C1129 1.419 . S
C1131 C1132 1.357 1_556 S
C1131 H1134 0.929 . S
C1132 C1131 1.357 1_554 S
C1132 C1138 1.434 . S
H1133 C1129 0.930 . S
H1134 C1131 0.929 . S
S1135 N1136 1.613 . S
S1135 N1137 1.610 . S
N1136 S1135 1.613 . S
N1136 C1139 1.350 . S
N1137 S1135 1.610 . S
N1137 C1138 1.351 . S
C1138 C1132 1.434 . S
C1138 N1137 1.351 . S
C1138 C1139 1.434 . S
C1139 C1130 1.432 . S
C1139 N1136 1.350 . S
C1139 C1138 1.434 . S
C1140 C1141 1.369 . S
C1140 C1142 1.419 . S
C1140 H1144 0.930 . S
C1141 C1140 1.369 . S
C1141 C1150 1.429 . S
C1142 C1140 1.419 . S
C1142 C1143 1.363 . S
C1142 H1145 0.929 . S
C1143 C1142 1.363 . S
C1143 C1149 1.428 . S
H1144 C1140 0.930 . S
H1145 C1142 0.929 . S
S1146 N1147 1.613 . S
S1146 N1148 1.610 . S
N1147 S1146 1.613 . S
N1147 C1150 1.350 . S
N1148 S1146 1.610 . S
N1148 C1149 1.351 . S
C1149 C1143 1.428 . S
C1149 N1148 1.351 . S
C1149 C1150 1.434 . S
C1150 C1141 1.429 . S
C1150 N1147 1.350 . S
C1150 C1149 1.434 . S
C1151 C1152 1.369 . S
C1151 C1153 1.419 . S
C1151 H1155 0.930 . S
C1152 C1151 1.369 . S
C1152 C1161 1.429 . S
C1153 C1151 1.419 . S
C1153 C1154 1.363 . S
C1153 H1156 0.929 . S
C1154 C1153 1.363 . S
C1154 C1160 1.428 . S
H1155 C1151 0.930 . S
H1156 C1153 0.929 . S
S1157 N1158 1.613 . S
S1157 N1159 1.610 . S
N1158 S1157 1.613 . S
N1158 C1161 1.350 . S
N1159 S1157 1.610 . S
N1159 C1160 1.351 . S
C1160 C1154 1.428 . S
C1160 N1159 1.351 . S
C1160 C1161 1.434 . S
C1161 C1152 1.429 . S
C1161 N1158 1.350 . S
C1161 C1160 1.434 . S
C1162 C1163 1.369 . S
C1162 C1164 1.419 . S
C1162 H1166 0.930 . S
C1163 C1162 1.369 . S
C1163 C1172 1.429 . S
C1164 C1162 1.419 . S
C1164 C1165 1.363 . S
C1164 H1167 0.929 . S
C1165 C1164 1.363 . S
C1165 C1171 1.428 . S
H1166 C1162 0.930 . S
H1167 C1164 0.929 . S
S1168 N1169 1.613 . S
S1168 N1170 1.610 . S
N1169 S1168 1.613 . S
N1169 C1172 1.350 . S
N1170 S1168 1.610 . S
N1170 C1171 1.351 . S
C1171 C1165 1.428 . S
C1171 N1170 1.351 . S
C1171 C1172 1.434 . S
C1172 C1163 1.429 . S
C1172 N1169 1.350 . S
C1172 C1171 1.434 . S
C1173 C1174 1.369 . S
C1173 C1175 1.419 . S
C1173 H1177 0.930 . S
C1174 C1173 1.369 . S
C1174 C1183 1.429 . S
C1175 C1173 1.419 . S
C1175 C1176 1.363 . S
C1175 H1178 0.929 . S
C1176 C1175 1.363 . S
C1176 C1182 1.428 . S
H1177 C1173 0.930 . S
H1178 C1175 0.929 . S
S1179 N1180 1.613 . S
S1179 N1181 1.610 . S
N1180 S1179 1.613 . S
N1180 C1183 1.350 . S
N1181 S1179 1.610 . S
N1181 C1182 1.351 . S
C1182 C1176 1.428 . S
C1182 N1181 1.351 . S
C1182 C1183 1.434 . S
C1183 C1174 1.429 . S
C1183 N1180 1.350 . S
C1183 C1182 1.434 . S
C1184 C1185 1.369 . S
C1184 C1186 1.419 . S
C1184 H1188 0.930 . S
C1185 C1184 1.369 . S
C1185 C1194 1.429 . S
C1186 C1184 1.419 . S
C1186 C1187 1.363 . S
C1186 H1189 0.929 . S
C1187 C1186 1.363 . S
C1187 C1193 1.428 . S
H1188 C1184 0.930 . S
H1189 C1186 0.929 . S
S1190 N1191 1.613 . S
S1190 N1192 1.610 . S
N1191 S1190 1.613 . S
N1191 C1194 1.350 . S
N1192 S1190 1.610 . S
N1192 C1193 1.351 . S
C1193 C1187 1.428 . S
C1193 N1192 1.351 . S
C1193 C1194 1.434 . S
C1194 C1185 1.429 . S
C1194 N1191 1.350 . S
C1194 C1193 1.434 . S
C1195 C1196 1.369 . S
C1195 C1197 1.419 . S
C1195 H1199 0.930 . S
C1196 C1195 1.369 . S
C1196 C1205 1.429 . S
C1197 C1195 1.419 . S
C1197 C1198 1.363 . S
C1197 H1200 0.929 . S
C1198 C1197 1.363 . S
C1198 C1204 1.428 . S
H1199 C1195 0.930 . S
H1200 C1197 0.929 . S
S1201 N1202 1.613 . S
S1201 N1203 1.610 . S
N1202 S1201 1.613 . S
N1202 C1205 1.350 . S
N1203 S1201 1.610 . S
N1203 C1204 1.351 . S
C1204 C1198 1.428 . S
C1204 N1203 1.351 . S
C1204 C1205 1.434 . S
C1205 C1196 1.429 . S
C1205 N1202 1.350 . S
C1205 C1204 1.434 . S
C1206 C1207 1.369 . S
C1206 C1208 1.419 . S
C1206 H1210 0.930 . S
C1207 C1206 1.369 . S
C1207 C1216 1.429 . S
C1208 C1206 1.419 . S
C1208 C1209 1.363 . S
C1208 H1211 0.929 . S
C1209 C1208 1.363 . S
C1209 C1215 1.428 . S
H1210 C1206 0.930 . S
H1211 C1208 0.929 . S
S1212 N1213 1.613 . S
S1212 N1214 1.610 . S
N1213 S1212 1.613 . S
N1213 C1216 1.350 . S
N1214 S1212 1.610 . S
N1214 C1215 1.351 . S
C1215 C1209 1.428 . S
C1215 N1214 1.351 . S
C1215 C1216 1.434 . S
C1216 C1207 1.429 . S
C1216 N1213 1.350 . S
C1216 C1215 1.434 . S
C1217 C1218 1.369 . S
C1217 C1219 1.419 . S
C1217 H1221 0.930 . S
C1218 C1217 1.369 . S
C1218 C1227 1.429 . S
C1219 C1217 1.419 . S
C1219 C1220 1.363 . S
C1219 H1222 0.929 . S
C1220 C1219 1.363 . S
C1220 C1226 1.428 . S
H1221 C1217 0.930 . S
H1222 C1219 0.929 . S
S1223 N1224 1.613 . S
S1223 N1225 1.610 . S
N1224 S1223 1.613 . S
N1224 C1227 1.350 . S
N1225 S1223 1.610 . S
N1225 C1226 1.351 . S
C1226 C1220 1.428 . S
C1226 N1225 1.351 . S
C1226 C1227 1.434 . S
C1227 C1218 1.429 . S
C1227 N1224 1.350 . S
C1227 C1226 1.434 . S
C1228 C1229 1.369 . S
C1228 C1230 1.419 . S
C1228 H1232 0.930 . S
C1229 C1228 1.369 . S
C1229 C1238 1.429 . S
C1230 C1228 1.419 . S
C1230 C1231 1.363 . S
C1230 H1233 0.929 . S
C1231 C1230 1.363 . S
C1231 C1237 1.428 . S
H1232 C1228 0.930 . S
H1233 C1230 0.929 . S
S1234 N1235 1.613 . S
S1234 N1236 1.610 . S
N1235 S1234 1.613 . S
N1235 C1238 1.350 . S
N1236 S1234 1.610 . S
N1236 C1237 1.351 . S
C1237 C1231 1.428 . S
C1237 N1236 1.351 . S
C1237 C1238 1.434 . S
C1238 C1229 1.429 . S
C1238 N1235 1.350 . S
C1238 C1237 1.434 . S
C1239 C1240 1.369 . S
C1239 C1241 1.419 . S
C1239 H1243 0.930 . S
C1240 C1239 1.369 . S
C1240 C1249 1.429 . S
C1241 C1239 1.419 . S
C1241 C1242 1.363 . S
C1241 H1244 0.929 . S
C1242 C1241 1.363 . S
C1242 C1248 1.428 . S
H1243 C1239 0.930 . S
H1244 C1241 0.929 . S
S1245 N1246 1.613 . S
S1245 N1247 1.610 . S
N1246 S1245 1.613 . S
N1246 C1249 1.350 . S
N1247 S1245 1.610 . S
N1247 C1248 1.351 . S
C1248 C1242 1.428 . S
C1248 N1247 1.351 . S
C1248 C1249 1.434 . S
C1249 C1240 1.429 . S
C1249 N1246 1.350 . S
C1249 C1248 1.434 . S
C1250 C1251 1.369 . S
C1250 C1252 1.419 . S
C1250 H1254 0.930 . S
C1251 C1250 1.369 . S
C1251 C1260 1.429 . S
C1252 C1250 1.419 . S
C1252 C1253 1.363 . S
C1252 H1255 0.929 . S
C1253 C1252 1.363 . S
C1253 C1259 1.428 . S
H1254 C1250 0.930 . S
H1255 C1252 0.929 . S
S1256 N1257 1.613 . S
S1256 N1258 1.610 . S
N1257 S1256 1.613 . S
N1257 C1260 1.350 . S
N1258 S1256 1.610 . S
N1258 C1259 1.351 . S
C1259 C1253 1.428 . S
C1259 N1258 1.351 . S
C1259 C1260 1.434 . S
C1260 C1251 1.429 . S
C1260 N1257 1.350 . S
C1260 C1259 1.434 . S
C1261 C1262 1.369 . S
C1261 C1263 1.419 . S
C1261 H1265 0.930 . S
C1262 C1261 1.369 . S
C1262 C1271 1.429 . S
C1263 C1261 1.419 . S
C1263 C1264 1.363 . S
C1263 H1266 0.929 . S
C1264 C1263 1.363 . S
C1264 C1270 1.428 . S
H1265 C1261 0.930 . S
H1266 C1263 0.929 . S
S1267 N1268 1.613 . S
S1267 N1269 1.610 . S
N1268 S1267 1.613 . S
N1268 C1271 1.350 . S
N1269 S1267 1.610 . S
N1269 C1270 1.351 . S
C1270 C1264 1.428 . S
C1270 N1269 1.351 . S
C1270 C1271 1.434 . S
C1271 C1262 1.429 . S
C1271 N1268 1.350 . S
C1271 C1270 1.434 . S
C1272 C1273 1.369 . S
C1272 C1274 1.419 . S
C1272 H1276 0.930 . S
C1273 C1272 1.369 . S
C1273 C1282 1.429 . S
C1274 C1272 1.419 . S
C1274 C1275 1.363 . S
C1274 H1277 0.929 . S
C1275 C1274 1.363 . S
C1275 C1281 1.428 . S
H1276 C1272 0.930 . S
H1277 C1274 0.929 . S
S1278 N1279 1.613 . S
S1278 N1280 1.610 . S
N1279 S1278 1.613 . S
N1279 C1282 1.350 . S
N1280 S1278 1.610 . S
N1280 C1281 1.351 . S
C1281 C1275 1.428 . S
C1281 N1280 1.351 . S
C1281 C1282 1.434 . S
C1282 C1273 1.429 . S
C1282 N1279 1.350 . S
C1282 C1281 1.434 . S
C1283 C1284 1.369 . S
C1283 C1285 1.419 . S
C1283 H1287 0.930 . S
C1284 C1283 1.369 . S
C1284 C1293 1.429 . S
C1285 C1283 1.419 . S
C1285 C1286 1.363 . S
C1285 H1288 0.929 . S
C1286 C1285 1.363 . S
C1286 C1292 1.428 . S
H1287 C1283 0.930 . S
H1288 C1285 0.929 . S
S1289 N1290 1.613 . S
S1289 N1291 1.610 . S
N1290 S1289 1.613 . S
N1290 C1293 1.350 . S
N1291 S1289 1.610 . S
N1291 C1292 1.351 . S
C1292 C1286 1.428 . S
C1292 N1291 1.351 . S
C1292 C1293 1.434 . S
C1293 C1284 1.429 . S
C1293 N1290 1.350 . S
C1293 C1292 1.434 . S
C1294 C1295 1.369 . S
C1294 C1296 1.419 . S
C1294 H1298 0.930 . S
C1295 C1294 1.369 . S
C1295 C1304 1.429 . S
C1296 C1294 1.419 . S
C1296 C1297 1.363 . S
C1296 H1299 0.929 . S
C1297 C1296 1.363 . S
C1297 C1303 1.428 . S
H1298 C1294 0.930 . S
H1299 C1296 0.929 . S
S1300 N1301 1.613 . S
S1300 N1302 1.610 . S
N1301 S1300 1.613 . S
N1301 C1304 1.350 . S
N1302 S1300 1.610 . S
N1302 C1303 1.351 . S
C1303 C1297 1.428 . S
C1303 N1302 1.351 . S
C1303 C1304 1.434 . S
C1304 C1295 1.429 . S
C1304 N1301 1.350 . S
C1304 C1303 1.434 . S
C1305 C1306 1.369 . S
C1305 C1307 1.419 . S
C1305 H1309 0.930 . S
C1306 C1305 1.369 . S
C1306 C1315 1.429 . S
C1307 C1305 1.419 . S
C1307 C1308 1.363 . S
C1307 H1310 0.929 . S
C1308 C1307 1.363 . S
C1308 C1314 1.428 . S
H1309 C1305 0.930 . S
H1310 C1307 0.929 . S
S1311 N1312 1.613 . S
S1311 N1313 1.610 . S
N1312 S1311 1.613 . S
N1312 C1315 1.350 . S
N1313 S1311 1.610 . S
N1313 C1314 1.351 . S
C1314 C1308 1.428 . S
C1314 N1313 1.351 . S
C1314 C1315 1.434 . S
C1315 C1306 1.429 . S
C1315 N1312 1.350 . S
C1315 C1314 1.434 . S
C1316 C1317 1.369 . S
C1316 C1318 1.419 . S
C1316 H1320 0.930 . S
C1317 C1316 1.369 . S
C1317 C1326 1.429 . S
C1318 C1316 1.419 . S
C1318 C1319 1.363 . S
C1318 H1321 0.929 . S
C1319 C1318 1.363 . S
C1319 C1325 1.428 . S
H1320 C1316 0.930 . S
H1321 C1318 0.929 . S
S1322 N1323 1.613 . S
S1322 N1324 1.610 . S
N1323 S1322 1.613 . S
N1323 C1326 1.350 . S
N1324 S1322 1.610 . S
N1324 C1325 1.351 . S
C1325 C1319 1.428 . S
C1325 N1324 1.351 . S
C1325 C1326 1.434 . S
C1326 C1317 1.429 . S
C1326 N1323 1.350 . S
C1326 C1325 1.434 . S
C1327 C1328 1.369 . S
C1327 C1329 1.419 . S
C1327 H1331 0.930 . S
C1328 C1327 1.369 . S
C1328 C1337 1.429 . S
C1329 C1327 1.419 . S
C1329 C1330 1.363 . S
C1329 H1332 0.929 . S
C1330 C1329 1.363 . S
C1330 C1336 1.428 . S
H1331 C1327 0.930 . S
H1332 C1329 0.929 . S
S1333 N1334 1.613 . S
S1333 N1335 1.610 . S
N1334 S1333 1.613 . S
N1334 C1337 1.350 . S
N1335 S1333 1.610 . S
N1335 C1336 1.351 . S
C1336 C1330 1.428 . S
C1336 N1335 1.351 . S
C1336 C1337 1.434 . S
C1337 C1328 1.429 . S
C1337 N1334 1.350 . S
C1337 C1336 1.434 . S
C1338 C1339 1.369 . S
C1338 C1340 1.419 . S
C1338 H1342 0.930 . S
C1339 C1338 1.369 . S
C1339 C1348 1.429 . S
C1340 C1338 1.419 . S
C1340 C1341 1.363 . S
C1340 H1343 0.929 . S
C1341 C1340 1.363 . S
C1341 C1347 1.428 . S
H1342 C1338 0.930 . S
H1343 C1340 0.929 . S
S1344 N1345 1.613 . S
S1344 N1346 1.610 . S
N1345 S1344 1.613 . S
N1345 C1348 1.350 . S
N1346 S1344 1.610 . S
N1346 C1347 1.351 . S
C1347 C1341 1.428 . S
C1347 N1346 1.351 . S
C1347 C1348 1.434 . S
C1348 C1339 1.429 . S
C1348 N1345 1.350 . S
C1348 C1347 1.434 . S
C1349 C1350 1.369 . S
C1349 C1351 1.419 . S
C1349 H1353 0.930 . S
C1350 C1349 1.369 . S
C1350 C1359 1.429 . S
C1351 C1349 1.419 . S
C1351 C1352 1.363 . S
C1351 H1354 0.929 . S
C1352 C1351 1.363 . S
C1352 C1358 1.428 . S
H1353 C1349 0.930 . S
H1354 C1351 0.929 . S
S1355 N1356 1.613 . S
S1355 N1357 1.610 . S
N1356 S1355 1.613 . S
N1356 C1359 1.350 . S
N1357 S1355 1.610 . S
N1357 C1358 1.351 . S
C1358 C1352 1.428 . S
C1358 N1357 1.351 . S
C1358 C1359 1.434 . S
C1359 C1350 1.429 . S
C1359 N1356 1.350 . S
C1359 C1358 1.434 . S
C1360 C1361 1.369 . S
C1360 C1362 1.419 . S
C1360 H1364 0.930 . S
C1361 C1360 1.369 . S
C1361 C1370 1.429 . S
C1362 C1360 1.419 . S
C1362 C1363 1.363 . S
C1362 H1365 0.929 . S
C1363 C1362 1.363 . S
C1363 C1369 1.428 . S
H1364 C1360 0.930 . S
H1365 C1362 0.929 . S
S1366 N1367 1.613 . S
S1366 N1368 1.610 . S
N1367 S1366 1.613 . S
N1367 C1370 1.350 . S
N1368 S1366 1.610 . S
N1368 C1369 1.351 . S
C1369 C1363 1.428 . S
C1369 N1368 1.351 . S
C1369 C1370 1.434 . S
C1370 C1361 1.429 . S
C1370 N1367 1.350 . S
C1370 C1369 1.434 . S
C1371 C1372 1.369 . S
C1371 C1373 1.419 . S
C1371 H1375 0.930 . S
C1372 C1371 1.369 . S
C1372 C1381 1.429 . S
C1373 C1371 1.419 . S
C1373 C1374 1.363 . S
C1373 H1376 0.929 . S
C1374 C1373 1.363 . S
C1374 C1380 1.428 . S
H1375 C1371 0.930 . S
H1376 C1373 0.929 . S
S1377 N1378 1.613 . S
S1377 N1379 1.610 . S
N1378 S1377 1.613 . S
N1378 C1381 1.350 . S
N1379 S1377 1.610 . S
N1379 C1380 1.351 . S
C1380 C1374 1.428 . S
C1380 N1379 1.351 . S
C1380 C1381 1.434 . S
C1381 C1372 1.429 . S
C1381 N1378 1.350 . S
C1381 C1380 1.434 . S
C1382 C1383 1.369 . S
C1382 C1384 1.419 . S
C1382 H1386 0.930 . S
C1383 C1382 1.369 . S
C1383 C1392 1.429 . S
C1384 C1382 1.419 . S
C1384 C1385 1.363 . S
C1384 H1387 0.929 . S
C1385 C1384 1.363 . S
C1385 C1391 1.428 . S
H1386 C1382 0.930 . S
H1387 C1384 0.929 . S
S1388 N1389 1.613 . S
S1388 N1390 1.610 . S
N1389 S1388 1.613 . S
N1389 C1392 1.350 . S
N1390 S1388 1.610 . S
N1390 C1391 1.351 . S
C1391 C1385 1.428 . S
C1391 N1390 1.351 . S
C1391 C1392 1.434 . S
C1392 C1383 1.429 . S
C1392 N1389 1.350 . S
C1392 C1391 1.434 . S
C1393 C1394 1.369 . S
C1393 C1395 1.419 . S
C1393 H1397 0.930 . S
C1394 C1393 1.369 . S
C1394 C1403 1.429 . S
C1395 C1393 1.419 . S
C1395 C1396 1.363 . S
C1395 H1398 0.929 . S
C1396 C1395 1.363 . S
C1396 C1402 1.428 . S
H1397 C1393 0.930 . S
H1398 C1395 0.929 . S
S1399 N1400 1.613 . S
S1399 N1401 1.610 . S
N1400 S1399 1.613 . S
N1400 C1403 1.350 . S
N1401 S1399 1.610 . S
N1401 C1402 1.351 . S
C1402 C1396 1.428 . S
C1402 N1401 1.351 . S
C1402 C1403 1.434 . S
C1403 C1394 1.429 . S
C1403 N1400 1.350 . S
C1403 C1402 1.434 . S
C615 C318 1.625 . S
C613 C308 1.627 . S
C624 C282 1.469 . S
C626 C316 1.469 . S
C637 C317 1.468 . S
C635 C269 1.468 . S
C646 C295 1.627 . S
C648 C319 1.625 . S
C659 C363 1.579 . S
C657 C217 1.582 . S
C670 C423 1.589 . S
C668 C230 1.590 . S
C679 C243 1.592 . S
C681 C362 1.589 . S
C692 C422 1.438 . S
C690 C256 1.438 . S
C701 C165 1.582 . S
C703 C364 1.579 . S
C714 C420 1.438 . S
C712 C178 1.438 . S
C723 C191 1.591 . S
C725 C365 1.589 . S
C734 C204 1.590 . S
C736 C421 1.588 . S
C747 C471 1.624 1_556 S
C745 C152 1.628 1_556 S
C756 C126 1.468 . S
C758 C470 1.468 1_556 S
C767 C113 1.469 . S
C769 C472 1.469 . S
C780 C473 1.624 . S
C778 C139 1.628 . S
C789 C61 1.582 . S
C791 C514 1.579 . S
C800 C74 1.590 1_545 S
C802 C573 1.588 . S
C811 C87 1.591 . S
C813 C512 1.589 . S
C822 C100 1.438 . S
C824 C572 1.438 . S
C835 C513 1.579 . S
C833 C9 1.582 . S
C846 C570 1.438 . S
C844 C22 1.439 . S
C855 C35 1.592 . S
C857 C515 1.588 . S
C868 C571 1.588 . S
C866 C48 1.590 . S
C879 C315 1.541 . S
C877 C4 1.298 . S
C888 C21 1.407 1_565 S
C890 C321 1.461 1_565 S
C899 C34 1.656 . S
C901 C313 1.692 . S
C910 C43 1.190 1_565 S
C912 C320 1.425 1_565 S
C921 C56 1.301 . S
C923 C312 1.541 . S
C934 C322 1.424 1_565 S
C932 C69 1.188 . S
C943 C86 1.657 . S
C945 C314 1.693 . S
C956 C323 1.461 . S
C954 C99 1.408 1_545 S
C967 C369 1.597 1_565 S
C965 C47 1.561 . S
C976 C8 1.605 . S
C978 C412 1.645 . S
C989 C367 1.389 . S
C987 C17 1.145 . S
C1000 C414 1.514 . S
C998 C30 1.247 . S
C1009 C73 1.561 1_545 S
C1011 C368 1.597 . S
C1022 C413 1.514 . S
C1020 C82 1.248 . S
C1033 C366 1.387 . S
C1031 C95 1.158 1_545 S
C1044 C415 1.645 . S
C1042 C60 1.598 . S
C1055 C419 1.481 . S
C1053 C112 1.429 . S
C1064 C125 1.419 1_554 S
C1066 C418 1.483 . S
C1077 C370 1.481 . S
C1075 C108 1.253 . S
C1088 C417 1.641 . S
C1086 C138 1.597 1_554 S
C1097 C147 1.259 1_556 S
C1099 C373 1.501 1_556 S
C1108 C151 1.603 1_556 S
C1110 C416 1.641 . S
C1121 C372 1.483 . S
C1119 C121 1.243 1_554 S
C1132 C371 1.499 . S
C1130 C134 1.271 1_554 S
C1143 C465 1.542 . S
C1141 C160 1.290 . S
C1154 C468 1.462 . S
C1152 C177 1.405 . S
C1163 C190 1.657 . S
C1165 C464 1.693 . S
C1176 C466 1.427 . S
C1174 C199 1.178 . S
C1187 C462 1.541 . S
C1185 C212 1.300 . S
C1196 C225 1.179 . S
C1198 C467 1.427 . S
C1207 C242 1.659 . S
C1209 C463 1.693 . S
C1220 C469 1.461 . S
C1218 C255 1.410 . S
C1231 C523 1.597 . S
C1229 C203 1.558 . S
C1240 C164 1.598 . S
C1242 C562 1.645 . S
C1253 C522 1.386 . S
C1251 C173 1.162 . S
C1264 C564 1.514 . S
C1262 C186 1.247 . S
C1275 C521 1.597 . S
C1273 C229 1.555 . S
C1284 C238 1.258 . S
C1286 C563 1.512 . S
C1297 C520 1.389 . S
C1295 C251 1.150 . S
C1308 C565 1.645 . S
C1306 C216 1.603 . S
C1319 C569 1.482 . S
C1317 C268 1.425 . S
C1328 C281 1.426 . S
C1330 C568 1.481 . S
C1341 C516 1.483 . S
C1339 C264 1.236 . S
C1350 C294 1.601 . S
C1352 C567 1.641 . S
C1363 C519 1.500 . S
C1361 C303 1.272 . S
C1374 C566 1.641 . S
C1372 C307 1.604 . S
C1385 C517 1.482 . S
C1383 C277 1.253 . S
C1394 C290 1.258 . S
C1396 C518 1.501 . S
