# Generated by pormake.
# Topology bwt, (3,3)-cn, num edge types: 1
# Building blocks:
#     Node 0, Type 0, BuildingBlock: WUSLED_clean_sbu_0, # of connection points: 3
#     Node 1, Type 0, BuildingBlock: WUSLED_clean_sbu_0, # of connection points: 3
#     Node 2, Type 0, BuildingBlock: WUSLED_clean_sbu_0, # of connection points: 3
#     Node 3, Type 0, BuildingBlock: WUSLED_clean_sbu_0, # of connection points: 3
#     Node 4, Type 0, BuildingBlock: WUSLED_clean_sbu_0, # of connection points: 3
#     Node 5, Type 0, BuildingBlock: WUSLED_clean_sbu_0, # of connection points: 3
#     Node 6, Type 0, BuildingBlock: WUSLED_clean_sbu_0, # of connection points: 3
#     Node 7, Type 0, BuildingBlock: WUSLED_clean_sbu_0, # of connection points: 3
#     Node 8, Type 0, BuildingBlock: WUSLED_clean_sbu_0, # of connection points: 3
#     Node 9, Type 0, BuildingBlock: WUSLED_clean_sbu_0, # of connection points: 3
#     Node 10, Type 0, BuildingBlock: WUSLED_clean_sbu_0, # of connection points: 3
#     Node 11, Type 0, BuildingBlock: WUSLED_clean_sbu_0, # of connection points: 3
#     Node 12, Type 0, BuildingBlock: WUSLED_clean_sbu_0, # of connection points: 3
#     Node 13, Type 0, BuildingBlock: WUSLED_clean_sbu_0, # of connection points: 3
#     Node 14, Type 0, BuildingBlock: WUSLED_clean_sbu_0, # of connection points: 3
#     Node 15, Type 0, BuildingBlock: WUSLED_clean_sbu_0, # of connection points: 3
#     Node 16, Type 0, BuildingBlock: WUSLED_clean_sbu_0, # of connection points: 3
#     Node 17, Type 0, BuildingBlock: WUSLED_clean_sbu_0, # of connection points: 3
#     Node 18, Type 0, BuildingBlock: WUSLED_clean_sbu_0, # of connection points: 3
#     Node 19, Type 0, BuildingBlock: WUSLED_clean_sbu_0, # of connection points: 3
#     Node 20, Type 0, BuildingBlock: WUSLED_clean_sbu_0, # of connection points: 3
#     Node 21, Type 0, BuildingBlock: WUSLED_clean_sbu_0, # of connection points: 3
#     Node 22, Type 0, BuildingBlock: WUSLED_clean_sbu_0, # of connection points: 3
#     Node 23, Type 0, BuildingBlock: WUSLED_clean_sbu_0, # of connection points: 3
#     Node 24, Type 1, BuildingBlock: BETDIP_clean_linker_0, # of connection points: 3
#     Node 25, Type 1, BuildingBlock: BETDIP_clean_linker_0, # of connection points: 3
#     Node 26, Type 1, BuildingBlock: BETDIP_clean_linker_0, # of connection points: 3
#     Node 27, Type 1, BuildingBlock: BETDIP_clean_linker_0, # of connection points: 3
#     Node 28, Type 1, BuildingBlock: BETDIP_clean_linker_0, # of connection points: 3
#     Node 29, Type 1, BuildingBlock: BETDIP_clean_linker_0, # of connection points: 3
#     Node 30, Type 1, BuildingBlock: BETDIP_clean_linker_0, # of connection points: 3
#     Node 31, Type 1, BuildingBlock: BETDIP_clean_linker_0, # of connection points: 3
#     Node 32, Type 1, BuildingBlock: BETDIP_clean_linker_0, # of connection points: 3
#     Node 33, Type 1, BuildingBlock: BETDIP_clean_linker_0, # of connection points: 3
#     Node 34, Type 1, BuildingBlock: BETDIP_clean_linker_0, # of connection points: 3
#     Node 35, Type 1, BuildingBlock: BETDIP_clean_linker_0, # of connection points: 3
#     Node 36, Type 1, BuildingBlock: BETDIP_clean_linker_0, # of connection points: 3
#     Node 37, Type 1, BuildingBlock: BETDIP_clean_linker_0, # of connection points: 3
#     Node 38, Type 1, BuildingBlock: BETDIP_clean_linker_0, # of connection points: 3
#     Node 39, Type 1, BuildingBlock: BETDIP_clean_linker_0, # of connection points: 3
#     Node 40, Type 1, BuildingBlock: BETDIP_clean_linker_0, # of connection points: 3
#     Node 41, Type 1, BuildingBlock: BETDIP_clean_linker_0, # of connection points: 3
#     Node 42, Type 1, BuildingBlock: BETDIP_clean_linker_0, # of connection points: 3
#     Node 43, Type 1, BuildingBlock: BETDIP_clean_linker_0, # of connection points: 3
#     Node 44, Type 1, BuildingBlock: BETDIP_clean_linker_0, # of connection points: 3
#     Node 45, Type 1, BuildingBlock: BETDIP_clean_linker_0, # of connection points: 3
#     Node 46, Type 1, BuildingBlock: BETDIP_clean_linker_0, # of connection points: 3
#     Node 47, Type 1, BuildingBlock: BETDIP_clean_linker_0, # of connection points: 3
#     Edge 48, Type (0, 1), BuildingBlock: AJUNOK_clean_linker_0, # of connection points: 2
#     Edge 49, Type (0, 1), BuildingBlock: AJUNOK_clean_linker_0, # of connection points: 2
#     Edge 50, Type (0, 1), BuildingBlock: AJUNOK_clean_linker_0, # of connection points: 2
#     Edge 51, Type (0, 1), BuildingBlock: AJUNOK_clean_linker_0, # of connection points: 2
#     Edge 52, Type (0, 1), BuildingBlock: AJUNOK_clean_linker_0, # of connection points: 2
#     Edge 53, Type (0, 1), BuildingBlock: AJUNOK_clean_linker_0, # of connection points: 2
#     Edge 54, Type (0, 1), BuildingBlock: AJUNOK_clean_linker_0, # of connection points: 2
#     Edge 55, Type (0, 1), BuildingBlock: AJUNOK_clean_linker_0, # of connection points: 2
#     Edge 56, Type (0, 1), BuildingBlock: AJUNOK_clean_linker_0, # of connection points: 2
#     Edge 57, Type (0, 1), BuildingBlock: AJUNOK_clean_linker_0, # of connection points: 2
#     Edge 58, Type (0, 1), BuildingBlock: AJUNOK_clean_linker_0, # of connection points: 2
#     Edge 59, Type (0, 1), BuildingBlock: AJUNOK_clean_linker_0, # of connection points: 2
#     Edge 60, Type (0, 1), BuildingBlock: AJUNOK_clean_linker_0, # of connection points: 2
#     Edge 61, Type (0, 1), BuildingBlock: AJUNOK_clean_linker_0, # of connection points: 2
#     Edge 62, Type (0, 1), BuildingBlock: AJUNOK_clean_linker_0, # of connection points: 2
#     Edge 63, Type (0, 1), BuildingBlock: AJUNOK_clean_linker_0, # of connection points: 2
#     Edge 64, Type (0, 1), BuildingBlock: AJUNOK_clean_linker_0, # of connection points: 2
#     Edge 65, Type (0, 1), BuildingBlock: AJUNOK_clean_linker_0, # of connection points: 2
#     Edge 66, Type (0, 1), BuildingBlock: AJUNOK_clean_linker_0, # of connection points: 2
#     Edge 67, Type (0, 1), BuildingBlock: AJUNOK_clean_linker_0, # of connection points: 2
#     Edge 68, Type (0, 1), BuildingBlock: AJUNOK_clean_linker_0, # of connection points: 2
#     Edge 69, Type (0, 1), BuildingBlock: AJUNOK_clean_linker_0, # of connection points: 2
#     Edge 70, Type (0, 1), BuildingBlock: AJUNOK_clean_linker_0, # of connection points: 2
#     Edge 71, Type (0, 1), BuildingBlock: AJUNOK_clean_linker_0, # of connection points: 2
#     Edge 72, Type (0, 1), BuildingBlock: AJUNOK_clean_linker_0, # of connection points: 2
#     Edge 73, Type (0, 1), BuildingBlock: AJUNOK_clean_linker_0, # of connection points: 2
#     Edge 74, Type (0, 1), BuildingBlock: AJUNOK_clean_linker_0, # of connection points: 2
#     Edge 75, Type (0, 1), BuildingBlock: AJUNOK_clean_linker_0, # of connection points: 2
#     Edge 76, Type (0, 1), BuildingBlock: AJUNOK_clean_linker_0, # of connection points: 2
#     Edge 77, Type (0, 1), BuildingBlock: AJUNOK_clean_linker_0, # of connection points: 2
#     Edge 78, Type (0, 1), BuildingBlock: AJUNOK_clean_linker_0, # of connection points: 2
#     Edge 79, Type (0, 1), BuildingBlock: AJUNOK_clean_linker_0, # of connection points: 2
#     Edge 80, Type (0, 1), BuildingBlock: AJUNOK_clean_linker_0, # of connection points: 2
#     Edge 81, Type (0, 1), BuildingBlock: AJUNOK_clean_linker_0, # of connection points: 2
#     Edge 82, Type (0, 1), BuildingBlock: AJUNOK_clean_linker_0, # of connection points: 2
#     Edge 83, Type (0, 1), BuildingBlock: AJUNOK_clean_linker_0, # of connection points: 2
#     Edge 84, Type (0, 1), BuildingBlock: AJUNOK_clean_linker_0, # of connection points: 2
#     Edge 85, Type (0, 1), BuildingBlock: AJUNOK_clean_linker_0, # of connection points: 2
#     Edge 86, Type (0, 1), BuildingBlock: AJUNOK_clean_linker_0, # of connection points: 2
#     Edge 87, Type (0, 1), BuildingBlock: AJUNOK_clean_linker_0, # of connection points: 2
#     Edge 88, Type (0, 1), BuildingBlock: AJUNOK_clean_linker_0, # of connection points: 2
#     Edge 89, Type (0, 1), BuildingBlock: AJUNOK_clean_linker_0, # of connection points: 2
#     Edge 90, Type (0, 1), BuildingBlock: AJUNOK_clean_linker_0, # of connection points: 2
#     Edge 91, Type (0, 1), BuildingBlock: AJUNOK_clean_linker_0, # of connection points: 2
#     Edge 92, Type (0, 1), BuildingBlock: AJUNOK_clean_linker_0, # of connection points: 2
#     Edge 93, Type (0, 1), BuildingBlock: AJUNOK_clean_linker_0, # of connection points: 2
#     Edge 94, Type (0, 1), BuildingBlock: AJUNOK_clean_linker_0, # of connection points: 2
#     Edge 95, Type (0, 1), BuildingBlock: AJUNOK_clean_linker_0, # of connection points: 2
#     Edge 96, Type (0, 1), BuildingBlock: AJUNOK_clean_linker_0, # of connection points: 2
#     Edge 97, Type (0, 1), BuildingBlock: AJUNOK_clean_linker_0, # of connection points: 2
#     Edge 98, Type (0, 1), BuildingBlock: AJUNOK_clean_linker_0, # of connection points: 2
#     Edge 99, Type (0, 1), BuildingBlock: AJUNOK_clean_linker_0, # of connection points: 2
#     Edge 100, Type (0, 1), BuildingBlock: AJUNOK_clean_linker_0, # of connection points: 2
#     Edge 101, Type (0, 1), BuildingBlock: AJUNOK_clean_linker_0, # of connection points: 2
#     Edge 102, Type (0, 1), BuildingBlock: AJUNOK_clean_linker_0, # of connection points: 2
#     Edge 103, Type (0, 1), BuildingBlock: AJUNOK_clean_linker_0, # of connection points: 2
#     Edge 104, Type (0, 1), BuildingBlock: AJUNOK_clean_linker_0, # of connection points: 2
#     Edge 105, Type (0, 1), BuildingBlock: AJUNOK_clean_linker_0, # of connection points: 2
#     Edge 106, Type (0, 1), BuildingBlock: AJUNOK_clean_linker_0, # of connection points: 2
#     Edge 107, Type (0, 1), BuildingBlock: AJUNOK_clean_linker_0, # of connection points: 2
#     Edge 108, Type (0, 1), BuildingBlock: AJUNOK_clean_linker_0, # of connection points: 2
#     Edge 109, Type (0, 1), BuildingBlock: AJUNOK_clean_linker_0, # of connection points: 2
#     Edge 110, Type (0, 1), BuildingBlock: AJUNOK_clean_linker_0, # of connection points: 2
#     Edge 111, Type (0, 1), BuildingBlock: AJUNOK_clean_linker_0, # of connection points: 2
#     Edge 112, Type (0, 1), BuildingBlock: AJUNOK_clean_linker_0, # of connection points: 2
#     Edge 113, Type (0, 1), BuildingBlock: AJUNOK_clean_linker_0, # of connection points: 2
#     Edge 114, Type (0, 1), BuildingBlock: AJUNOK_clean_linker_0, # of connection points: 2
#     Edge 115, Type (0, 1), BuildingBlock: AJUNOK_clean_linker_0, # of connection points: 2
#     Edge 116, Type (0, 1), BuildingBlock: AJUNOK_clean_linker_0, # of connection points: 2
#     Edge 117, Type (0, 1), BuildingBlock: AJUNOK_clean_linker_0, # of connection points: 2
#     Edge 118, Type (0, 1), BuildingBlock: AJUNOK_clean_linker_0, # of connection points: 2
#     Edge 119, Type (0, 1), BuildingBlock: AJUNOK_clean_linker_0, # of connection points: 2
# Relax obj value: 0.116
# Max RMSD: 0.178
# Mean RMSD: 0.086
data_MOF--net-bwt--node1-WUSLED_clean_sbu_0--node2-BETDIP_clean_linker_0--edge1-AJUNOK_clean_linker_0
_symmetry_space_group_name_H-M    P1
_symmetry_Int_Tables_number       1
_symmetry_cell_setting            triclinic
loop_
_symmetry_equiv_pos_as_xyz
'x, y, z'
_cell_length_a     53.526999
_cell_length_b     53.699364
_cell_length_c     53.417836
_cell_angle_alpha  95.046955
_cell_angle_beta   95.180104
_cell_angle_gamma 95.135184
loop_
_atom_site_label
_atom_site_type_symbol
_atom_site_fract_x
_atom_site_fract_y
_atom_site_fract_z
_atom_type_partial_charge
C0 C 0.34376 0.67052 0.37276 0.0
C1 C 0.36086 0.65652 0.38575 0.0
C2 C 0.39282 0.66616 0.35678 0.0
C3 C 0.3852 0.65447 0.3779 0.0
C4 C 0.37599 0.68113 0.3448 0.0
C5 C 0.35187 0.68321 0.35264 0.0
U6 U 0.28586 0.65867 0.41189 0.0
O7 O 0.25516 0.68268 0.41863 0.0
O8 O 0.24631 0.64548 0.3977 0.0
C9 C 0.23745 0.66607 0.40692 0.0
C10 C 0.31699 0.67123 0.37835 0.0
C11 C 0.21546 0.67538 0.39259 0.0
C12 C 0.19492 0.69381 0.35672 0.0
C13 C 0.2165 0.68499 0.36899 0.0
C14 C 0.17111 0.68345 0.39133 0.0
C15 C 0.1719 0.69333 0.36783 0.0
C16 C 0.19248 0.67461 0.40343 0.0
C17 C 0.29948 0.62661 0.47512 0.0
C18 C 0.27406 0.59947 0.49939 0.0
C19 C 0.31703 0.61433 0.51535 0.0
C20 C 0.31946 0.62762 0.4942 0.0
C21 C 0.29458 0.59945 0.51791 0.0
C22 C 0.27652 0.61284 0.4781 0.0
C23 C 0.30449 0.63783 0.45149 0.0
O24 O 0.3031 0.64957 0.37666 0.0
O25 O 0.31239 0.68669 0.39748 0.0
O26 O 0.30391 0.66221 0.45116 0.0
O27 O 0.29524 0.62502 0.43005 0.0
H28 H 0.35519 0.64664 0.40145 0.0
H29 H 0.39764 0.64287 0.38766 0.0
H30 H 0.38128 0.69088 0.32888 0.0
H31 H 0.33921 0.69432 0.34245 0.0
H32 H 0.19638 0.70137 0.33872 0.0
H33 H 0.23394 0.6858 0.36014 0.0
H34 H 0.15377 0.68229 0.40036 0.0
H35 H 0.19104 0.66714 0.4215 0.0
H36 H 0.25639 0.58849 0.50094 0.0
H37 H 0.33289 0.61555 0.52964 0.0
H38 H 0.33732 0.63819 0.4924 0.0
H39 H 0.26079 0.61181 0.46368 0.0
C40 C 0.21262 0.30609 0.81618 0.0
C41 C 0.19791 0.31919 0.83235 0.0
C42 C 0.15953 0.30263 0.80557 0.0
C43 C 0.17158 0.31753 0.82704 0.0
C44 C 0.17426 0.2888 0.79006 0.0
C45 C 0.20053 0.29059 0.79527 0.0
U46 U 0.27476 0.33848 0.85025 0.0
O47 O 0.3121 0.3246 0.85842 0.0
O48 O 0.30807 0.35588 0.8349 0.0
C49 C 0.32343 0.34117 0.8454 0.0
C50 C 0.24052 0.30979 0.81955 0.0
C51 C 0.34425 0.33374 0.83089 0.0
C52 C 0.36058 0.31716 0.79238 0.0
C53 C 0.34031 0.3198 0.80715 0.0
C54 C 0.38881 0.3414 0.8254 0.0
C55 C 0.3849 0.32898 0.80088 0.0
C56 C 0.36876 0.34367 0.84019 0.0
C57 C 0.26904 0.38874 0.90549 0.0
C58 C 0.30358 0.41434 0.93081 0.0
C59 C 0.261 0.42625 0.93115 0.0
C60 C 0.25224 0.40511 0.91455 0.0
C61 C 0.28681 0.43144 0.93908 0.0
C62 C 0.29478 0.39324 0.91394 0.0
C63 C 0.25912 0.36829 0.88604 0.0
O64 O 0.25046 0.33179 0.81439 0.0
O65 O 0.2516 0.30225 0.84016 0.0
O66 O 0.26538 0.34561 0.88945 0.0
O67 O 0.25995 0.37384 0.86267 0.0
H68 H 0.20684 0.33137 0.84854 0.0
H69 H 0.1607 0.32864 0.83912 0.0
H70 H 0.16556 0.27766 0.7731 0.0
H71 H 0.21152 0.28052 0.78242 0.0
H72 H 0.35697 0.30679 0.7739 0.0
H73 H 0.32154 0.31185 0.79965 0.0
H74 H 0.40708 0.35089 0.83264 0.0
H75 H 0.3722 0.35453 0.85846 0.0
H76 H 0.3235 0.41741 0.93716 0.0
H77 H 0.24763 0.439 0.93712 0.0
H78 H 0.23232 0.40193 0.90819 0.0
H79 H 0.30805 0.38075 0.90717 0.0
C80 C 0.73321 1.00245 0.64768 0.0
C81 C 0.75064 0.99234 0.63236 0.0
C82 C 0.78345 0.99966 0.66763 0.0
C83 C 0.77565 0.99097 0.64229 0.0
C84 C 0.76623 0.01086 0.68236 0.0
C85 C 0.74138 0.01216 0.67251 0.0
U86 U 0.68288 1.00417 0.59346 0.0
O87 O 0.64528 0.98427 0.58339 0.0
O88 O 0.64969 0.02559 0.58923 0.0
C89 C 0.63413 1.00511 0.58336 0.0
C90 C 0.70646 1.00301 0.63834 0.0
C91 C 0.6095 1.00433 0.59326 0.0
C92 C 0.58175 0.994 0.62498 0.0
C93 C 0.60612 0.99803 0.61769 0.0
C94 C 0.56419 1.00319 0.58374 0.0
C95 C 0.56054 0.99599 0.60785 0.0
C96 C 0.5885 1.00741 0.57658 0.0
C97 C 0.70518 1.00495 0.52808 0.0
C98 C 0.67799 1.00985 0.49025 0.0
C99 C 0.72261 1.00578 0.48821 0.0
C100 C 0.72569 1.00364 0.5139 0.0
C101 C 0.69895 1.00944 0.47628 0.0
C102 C 0.68114 1.00776 0.51628 0.0
C103 C 0.70987 1.00415 0.55522 0.0
O104 O 0.70073 0.02401 0.62932 0.0
O105 O 0.69573 0.98272 0.62454 0.0
O106 O 0.70091 0.98342 0.56396 0.0
O107 O 0.70616 0.02477 0.56893 0.0
H108 H 0.74481 0.9851 0.61294 0.0
H109 H 0.78861 0.98243 0.6305 0.0
H110 H 0.77191 0.01825 0.70177 0.0
H111 H 0.72839 0.02042 0.68447 0.0
H112 H 0.57945 0.98898 0.6439 0.0
H113 H 0.62218 0.99556 0.63078 0.0
H114 H 0.54828 1.00471 0.57011 0.0
H115 H 0.59088 0.01215 0.55757 0.0
H116 H 0.65952 0.01216 0.48117 0.0
H117 H 0.73884 1.00453 0.47757 0.0
H118 H 0.74422 1.00121 0.52278 0.0
H119 H 0.66508 1.0086 0.52719 0.0
C120 C 0.78513 0.02866 0.30531 0.0
C121 C 0.75786 0.01365 0.28124 0.0
C122 C 0.71643 0.03785 0.31713 0.0
C123 C 0.72353 0.01774 0.28723 0.0
C124 C 0.74389 0.05264 0.34144 0.0
C125 C 0.77822 0.04778 0.3356 0.0
U126 U 0.82842 0.01479 0.25675 0.0
O127 O 0.86433 0.03367 0.24866 0.0
O128 O 0.86167 0.99351 0.25507 0.0
C129 C 0.87605 0.01329 0.2501 0.0
C130 C 0.81109 0.02523 0.30028 0.0
C131 C 0.90202 0.01686 0.26183 0.0
C132 C 0.93472 0.03474 0.29471 0.0
C133 C 0.90908 0.02985 0.28581 0.0
C134 C 0.94581 0.01373 0.25573 0.0
C135 C 0.95316 0.02707 0.27937 0.0
C136 C 0.92049 1.00864 0.24709 0.0
C137 C 0.79643 0.99917 0.18973 0.0
C138 C 0.81848 0.98333 0.15469 0.0
C139 C 0.77303 0.98362 0.14979 0.0
C140 C 0.77359 0.99444 0.1745 0.0
C141 C 0.7953 0.97698 0.14 0.0
C142 C 0.81903 0.99428 0.17958 0.0
C143 C 0.79574 1.00645 0.21669 0.0
O144 O 0.81477 1.00229 0.2917 0.0
O145 O 0.82155 0.04239 0.2875 0.0
O146 O 0.80614 0.02903 0.22531 0.0
O147 O 0.80143 0.98902 0.2314 0.0
H148 H 0.76182 1.00261 0.2644 0.0
H149 H 0.70834 1.00845 0.27403 0.0
H150 H 0.74004 0.06316 0.35866 0.0
H151 H 0.79355 0.05596 0.34925 0.0
H152 H 0.94017 0.04475 0.31317 0.0
H153 H 0.89491 0.03645 0.29734 0.0
H154 H 0.95978 1.00725 0.24387 0.0
H155 H 0.91532 0.99869 0.22853 0.0
H156 H 0.8359 0.97877 0.14737 0.0
H157 H 0.75499 0.97969 0.13853 0.0
H158 H 0.75603 0.99824 0.18203 0.0
H159 H 0.83688 0.99795 0.19119 0.0
C160 C 0.38289 0.34249 0.6585 0.0
C161 C 0.39891 0.36424 0.65648 0.0
C162 C 0.36344 0.38989 0.65744 0.0
C163 C 0.38924 0.38766 0.6557 0.0
C164 C 0.34759 0.36823 0.66039 0.0
C165 C 0.35718 0.3447 0.66065 0.0
U166 U 0.41049 0.27349 0.65599 0.0
O167 O 0.4003 0.24949 0.68601 0.0
O168 O 0.38046 0.24212 0.64782 0.0
C169 C 0.38229 0.2359 0.67109 0.0
C170 C 0.39286 0.31755 0.65759 0.0
C171 C 0.37452 0.20949 0.67565 0.0
C172 C 0.33943 0.17807 0.67924 0.0
C173 C 0.34863 0.2026 0.67569 0.0
C174 C 0.38209 0.16654 0.68371 0.0
C175 C 0.35588 0.15948 0.68332 0.0
C176 C 0.39133 0.19128 0.67989 0.0
C177 C 0.47676 0.27501 0.62627 0.0
C178 C 0.51812 0.26527 0.61486 0.0
C179 C 0.49901 0.29991 0.59745 0.0
C180 C 0.47795 0.29513 0.61106 0.0
C181 C 0.51892 0.28438 0.59849 0.0
C182 C 0.49735 0.26066 0.62847 0.0
C183 C 0.45376 0.26612 0.63784 0.0
O184 O 0.38792 0.30087 0.63784 0.0
O185 O 0.40773 0.31084 0.67626 0.0
O186 O 0.43203 0.26372 0.62387 0.0
O187 O 0.45198 0.27286 0.66184 0.0
H188 H 0.41878 0.36299 0.65478 0.0
H189 H 0.40181 0.404 0.65311 0.0
H190 H 0.3276 0.36935 0.66145 0.0
H191 H 0.34447 0.3282 0.66234 0.0
H192 H 0.31922 0.17358 0.6777 0.0
H193 H 0.33525 0.21625 0.67245 0.0
H194 H 0.39549 0.15288 0.68674 0.0
H195 H 0.41144 0.19605 0.68002 0.0
H196 H 0.53346 0.2535 0.61686 0.0
H197 H 0.49925 0.31506 0.58534 0.0
H198 H 0.46236 0.30658 0.60909 0.0
H199 H 0.49698 0.24511 0.64011 0.0
C200 C 0.29818 0.77152 0.01956 0.0
C201 C 0.2716 0.74493 0.01379 0.0
C202 C 0.30739 0.70748 0.04429 0.0
C203 C 0.27599 0.71321 0.02635 0.0
C204 C 0.33453 0.73403 0.05045 0.0
C205 C 0.33009 0.76637 0.03767 0.0
U206 U 0.26475 0.83385 1.01023 0.0
O207 O 0.27924 0.86342 0.04005 0.0
O208 O 0.28703 0.86753 1.00077 0.0
C209 C 0.2901 0.87736 0.02441 0.0
C210 C 0.29224 0.79689 0.01666 0.0
C211 C 0.28814 0.90406 0.02917 0.0
C212 C 0.30675 0.94383 0.05039 0.0
C213 C 0.30754 0.91818 0.04497 0.0
C214 C 0.26679 0.94135 0.02441 0.0
C215 C 0.28662 0.95569 0.03982 0.0
C216 C 0.2675 0.91551 0.01913 0.0
C217 C 0.19045 0.82002 0.99009 0.0
C218 C 0.14882 0.82484 0.97009 0.0
C219 C 0.15687 0.78617 0.9882 0.0
C220 C 0.18194 0.79584 0.99565 0.0
C221 C 0.14009 0.80064 0.97532 0.0
C222 C 0.17369 0.83441 0.97748 0.0
C223 C 0.2161 0.8319 0.9979 0.0
O224 O 0.28782 0.80484 0.99421 0.0
O225 O 0.27836 0.80614 0.03349 0.0
O226 O 0.23261 0.83266 0.98108 0.0
O227 O 0.22598 0.83064 0.02115 0.0
H228 H 0.25356 0.74819 1.00449 0.0
H229 H 0.26096 0.69815 0.02234 0.0
H230 H 0.35247 0.73062 0.05993 0.0
H231 H 0.34497 0.7816 0.04151 0.0
H232 H 0.32203 0.95446 0.06258 0.0
H233 H 0.3234 0.90933 0.05307 0.0
H234 H 0.25116 0.95024 0.01593 0.0
H235 H 0.25226 0.90461 1.00711 0.0
H236 H 0.13657 0.83625 0.95981 0.0
H237 H 0.15054 0.76746 0.99259 0.0
H238 H 0.19454 0.78455 1.00565 0.0
H239 H 0.1799 0.85322 0.97327 0.0
C240 C 0.81166 0.21004 0.31014 0.0
C241 C 0.82745 0.19389 0.32178 0.0
C242 C 0.79638 0.15804 0.30802 0.0
C243 C 0.81991 0.16795 0.32056 0.0
C244 C 0.78119 0.17422 0.29582 0.0
C245 C 0.78875 0.19988 0.29689 0.0
U246 U 0.84929 0.272 0.33962 0.0
O247 O 0.85626 0.30865 0.324 0.0
O248 O 0.83498 0.3056 0.3571 0.0
C249 C 0.84346 0.32022 0.34062 0.0
C250 C 0.81714 0.23766 0.31311 0.0
C251 C 0.82688 0.33915 0.33212 0.0
C252 C 0.78705 0.35778 0.33346 0.0
C253 C 0.80092 0.3369 0.33494 0.0
C254 C 0.82421 0.38278 0.32386 0.0
C255 C 0.79888 0.3813 0.3292 0.0
C256 C 0.83809 0.36197 0.32548 0.0
C257 C 0.90429 0.26835 0.3901 0.0
C258 C 0.92345 0.30422 0.41834 0.0
C259 C 0.92687 0.26194 0.42996 0.0
C260 C 0.9137 0.25225 0.40703 0.0
C261 C 0.93115 0.28802 0.43631 0.0
C262 C 0.90973 0.29443 0.39548 0.0
C263 C 0.8856 0.25737 0.36948 0.0
O264 O 0.81311 0.24863 0.33513 0.0
O265 O 0.83781 0.24723 0.30448 0.0
O266 O 0.88878 0.26338 0.34655 0.0
O267 O 0.86225 0.2576 0.37505 0.0
H268 H 0.84518 0.2014 0.33228 0.0
H269 H 0.83195 0.15583 0.33011 0.0
H270 H 0.7631 0.16703 0.28585 0.0
H271 H 0.77627 0.21198 0.28788 0.0
H272 H 0.76757 0.35595 0.33758 0.0
H273 H 0.79172 0.31951 0.33998 0.0
H274 H 0.83374 0.40047 0.31994 0.0
H275 H 0.85805 0.36423 0.32321 0.0
H276 H 0.92739 0.32439 0.42218 0.0
H277 H 0.93253 0.2489 0.44324 0.0
H278 H 0.90953 0.23208 0.40319 0.0
H279 H 0.90254 0.30715 0.38254 0.0
C280 C 0.64628 0.73097 1.00343 0.0
C281 C 0.62976 0.74991 1.00271 0.0
C282 C 0.66513 0.7812 1.00069 0.0
C283 C 0.63917 0.77495 1.00142 0.0
C284 C 0.6815 0.76219 1.00182 0.0
C285 C 0.67215 0.73732 1.00323 0.0
U286 U 0.59255 0.68101 1.00763 0.0
O287 O 0.58174 0.6444 0.98614 0.0
O288 O 0.59099 0.64659 0.02732 0.0
C289 C 0.58452 0.63204 1.0062 0.0
C290 C 0.63689 0.70447 1.00392 0.0
C291 C 0.59674 0.60882 1.00283 0.0
C292 C 0.63004 0.58508 0.98842 0.0
C293 C 0.62053 0.60817 0.99418 0.0
C294 C 0.59197 0.56348 1.00013 0.0
C295 C 0.61549 0.56186 0.99008 0.0
C296 C 0.58297 0.58646 1.00649 0.0
C297 C 0.5271 0.70345 0.01381 0.0
C298 C 0.48612 0.68026 1.00138 0.0
C299 C 0.48921 0.72143 0.02476 0.0
C300 C 0.51537 0.72289 0.02561 0.0
C301 C 0.47446 0.70046 0.0121 0.0
C302 C 0.51245 0.68169 1.00232 0.0
C303 C 0.55428 0.70758 0.01198 0.0
O304 O 0.62936 0.69836 0.02552 0.0
O305 O 0.62153 0.69474 0.9842 0.0
O306 O 0.56195 0.70009 0.99012 0.0
O307 O 0.56898 0.70248 0.03153 0.0
H308 H 0.60966 0.74527 1.00286 0.0
H309 H 0.62619 0.78928 1.00041 0.0
H310 H 0.70161 0.76661 1.00148 0.0
H311 H 0.68513 0.72297 1.00388 0.0
H312 H 0.64893 0.5864 0.98314 0.0
H313 H 0.63169 0.62548 0.9917 0.0
H314 H 0.57963 0.54738 1.00321 0.0
H315 H 0.56463 0.58668 0.01357 0.0
H316 H 0.47487 0.66409 0.99124 0.0
H317 H 0.48042 0.73728 0.03278 0.0
H318 H 0.52641 0.73977 0.0345 0.0
H319 H 0.52127 0.66643 0.99316 0.0
C320 C 0.67031 0.36884 0.33552 0.0
C321 C 0.6611 0.38511 0.35391 0.0
C322 C 0.66567 0.35442 0.3851 0.0
C323 C 0.6589 0.378 0.37852 0.0
C324 C 0.67564 0.33876 0.3668 0.0
C325 C 0.67799 0.3459 0.34245 0.0
U326 U 0.65773 0.4074 0.27759 0.0
O327 O 0.6802 0.41261 0.24525 0.0
O328 O 0.642 0.39305 0.23886 0.0
C329 C 0.66222 0.40127 0.22864 0.0
C330 C 0.67073 0.37405 0.30863 0.0
C331 C 0.66927 0.3865 0.20589 0.0
C332 C 0.67994 0.34823 0.18247 0.0
C333 C 0.67472 0.36129 0.2053 0.0
C334 C 0.67427 0.38535 0.16091 0.0
C335 C 0.67996 0.36024 0.16 0.0
C336 C 0.66913 0.39824 0.18346 0.0
C337 C 0.62681 0.47095 0.29416 0.0
C338 C 0.6078 0.50188 0.2696 0.0
C339 C 0.60829 0.50583 0.31512 0.0
C340 C 0.62088 0.48426 0.31621 0.0
C341 C 0.60168 0.51514 0.2919 0.0
C342 C 0.62027 0.47987 0.27071 0.0
C343 C 0.63834 0.44722 0.29708 0.0
O344 O 0.64873 0.37256 0.29524 0.0
O345 O 0.68632 0.39285 0.30353 0.0
O346 O 0.66254 0.44675 0.29478 0.0
O347 O 0.6248 0.42611 0.28839 0.0
H348 H 0.655 0.40293 0.34905 0.0
H349 H 0.65093 0.39045 0.39204 0.0
H350 H 0.6812 0.3206 0.37119 0.0
H351 H 0.6852 0.33306 0.3287 0.0
H352 H 0.68403 0.32883 0.18239 0.0
H353 H 0.67473 0.35169 0.2223 0.0
H354 H 0.67329 0.39502 0.14393 0.0
H355 H 0.6646 0.4175 0.18327 0.0
H356 H 0.60304 0.50857 0.2514 0.0
H357 H 0.60329 0.51495 0.33261 0.0
H358 H 0.62551 0.47759 0.33447 0.0
H359 H 0.62456 0.4698 0.2534 0.0
C360 C 0.03465 0.3077 0.78389 0.0
C361 C 0.02482 0.28075 0.75794 0.0
C362 C 0.04139 0.31765 0.71408 0.0
C363 C 0.02775 0.28567 0.7233 0.0
C364 C 0.05173 0.34489 0.74006 0.0
C365 C 0.04782 0.34009 0.77511 0.0
U366 U 0.02246 0.2588 0.82758 0.0
O367 O 0.04225 0.2504 0.86317 0.0
O368 O 1.00229 0.25763 0.8617 0.0
C369 C 0.02227 0.25218 0.87558 0.0
C370 C 0.03321 0.30228 0.81011 0.0
C371 C 0.02667 0.26366 0.90172 0.0
C372 C 0.04068 0.2983 0.93383 0.0
C373 C 0.03547 0.28906 0.90825 0.0
C374 C 0.02829 0.25688 0.94601 0.0
C375 C 0.03747 0.28208 0.95284 0.0
C376 C 0.0229 0.24782 0.92073 0.0
C377 C 1.00446 0.19211 0.79413 0.0
C378 C 0.98967 0.15521 0.81405 0.0
C379 C 0.99226 0.15253 0.76883 0.0
C380 C 1.00148 0.17777 0.77074 0.0
C381 C 0.98572 0.14109 0.79032 0.0
C382 C 0.99896 0.18067 0.81594 0.0
C383 C 1.01179 0.21918 0.79466 0.0
O384 O 1.01052 0.29441 0.81542 0.0
O385 O 0.05048 0.28831 0.81846 0.0
O386 O 0.03487 0.22721 0.80421 0.0
O387 O 0.9949 0.23393 0.80174 0.0
H388 H 0.01745 0.26263 0.76289 0.0
H389 H 0.02118 0.2705 0.7089 0.0
H390 H 0.05904 0.36301 0.73499 0.0
H391 H 0.05331 0.35536 0.78972 0.0
H392 H 0.0475 0.31788 0.93875 0.0
H393 H 0.0385 0.30152 0.8937 0.0
H394 H 0.02514 0.24416 0.96032 0.0
H395 H 0.01605 0.2282 0.916 0.0
H396 H 0.98473 0.14685 0.83089 0.0
H397 H 0.98983 0.142 0.75038 0.0
H398 H 1.00572 0.18628 0.75375 0.0
H399 H 1.00122 0.19155 0.8342 0.0
C400 C 0.31993 0.80272 0.21308 0.0
C401 C 0.33571 0.81452 0.1971 0.0
C402 C 0.31686 0.78547 0.1609 0.0
C403 C 0.3343 0.8059 0.17132 0.0
C404 C 0.30097 0.77405 0.1771 0.0
C405 C 0.30254 0.78254 0.20281 0.0
U406 U 0.34471 0.8453 0.27446 0.0
O407 O 0.3266 0.85201 0.30977 0.0
O408 O 0.36192 0.83416 0.31013 0.0
C409 C 0.3439 0.84162 0.32325 0.0
C410 C 0.32236 0.80962 0.24073 0.0
C411 C 0.33556 0.82485 0.34203 0.0
C412 C 0.3218 0.78345 0.35404 0.0
C413 C 0.32536 0.7999 0.33529 0.0
C414 C 0.3377 0.817 0.38628 0.0
C415 C 0.32864 0.7916 0.3798 0.0
C416 C 0.34092 0.83339 0.36765 0.0
C417 C 0.38889 0.90568 0.26887 0.0
C418 C 0.42146 0.92594 0.30068 0.0
C419 C 0.41731 0.94064 0.25904 0.0
C420 C 0.39679 0.92262 0.25194 0.0
C421 C 0.43027 0.94185 0.28316 0.0
C422 C 0.40081 0.90798 0.29361 0.0
C423 C 0.37114 0.88371 0.259 0.0
O424 O 0.34487 0.80879 0.25247 0.0
O425 O 0.3112 0.82916 0.249 0.0
O426 O 0.3474 0.88417 0.2634 0.0
O427 O 0.37968 0.86184 0.26173 0.0
H428 H 0.34945 0.83002 0.20465 0.0
H429 H 0.34728 0.81492 0.15972 0.0
H430 H 0.28712 0.75856 0.16987 0.0
H431 H 0.29028 0.77306 0.21481 0.0
H432 H 0.31473 0.76407 0.34828 0.0
H433 H 0.32116 0.79288 0.31558 0.0
H434 H 0.34404 0.82399 0.40564 0.0
H435 H 0.34904 0.8525 0.37326 0.0
H436 H 0.43123 0.92673 0.31945 0.0
H437 H 0.4239 0.9527 0.24528 0.0
H438 H 0.38795 0.92102 0.23273 0.0
H439 H 0.39502 0.89506 0.30696 0.0
C440 C 1.00028 0.64482 0.73038 0.0
C441 C 1.00507 0.62939 0.74988 0.0
C442 C 1.00103 0.66417 0.78121 0.0
C443 C 1.00538 0.63902 0.77521 0.0
C444 C 0.99544 0.67915 0.76151 0.0
C445 C 0.99521 0.66959 0.73636 0.0
U446 U 1.00533 0.59176 0.67992 0.0
O447 O 0.98318 0.58026 0.64364 0.0
O448 O 0.02383 0.59152 0.64458 0.0
C449 C 1.00236 0.58518 0.63052 0.0
C450 C 1.00051 0.63553 0.70373 0.0
C451 C 0.99727 0.59942 0.6086 0.0
C452 C 0.97001 0.62442 0.58441 0.0
C453 C 0.97737 0.61479 0.60713 0.0
C454 C 1.00372 0.60524 0.56507 0.0
C455 C 0.98273 0.61925 0.56292 0.0
C456 C 1.01076 0.59526 0.58761 0.0
C457 C 1.01288 0.52672 0.70289 0.0
C458 C 0.9993 0.48593 0.68012 0.0
C459 C 0.0222 0.48885 0.72176 0.0
C460 C 0.02394 0.51494 0.72281 0.0
C461 C 1.00918 0.47418 0.7008 0.0
C462 C 1.00122 0.51216 0.68112 0.0
C463 C 1.01129 0.55383 0.70671 0.0
O464 O 0.02223 0.62879 0.69722 0.0
O465 O 0.98117 0.61963 0.69431 0.0
O466 O 0.98918 0.56126 0.69985 0.0
O467 O 0.03038 0.56842 0.70055 0.0
H468 H 1.00884 0.61008 0.74551 0.0
H469 H 1.00961 0.62707 0.79003 0.0
H470 H 0.99139 0.69842 0.76558 0.0
H471 H 0.99121 0.68163 0.72155 0.0
H472 H 0.95372 0.63498 0.58349 0.0
H473 H 0.96678 0.61844 0.62319 0.0
H474 H 0.01445 0.60154 0.54913 0.0
H475 H 0.02626 0.58358 0.58839 0.0
H476 H 0.9893 0.47486 0.66372 0.0
H477 H 0.02975 0.48013 0.73797 0.0
H478 H 0.03289 0.52594 0.73976 0.0
H479 H 0.99263 0.52102 0.66549 0.0
C480 C 0.69148 0.36532 0.65922 0.0
C481 C 0.67624 0.38198 0.64777 0.0
C482 C 0.64108 0.36874 0.67177 0.0
C483 C 0.65142 0.38375 0.65406 0.0
C484 C 0.65647 0.35199 0.68297 0.0
C485 C 0.68126 0.35031 0.67675 0.0
U486 U 0.7486 0.37593 0.61978 0.0
O487 O 0.78876 0.38789 0.63247 0.0
O488 O 0.77805 0.35088 0.61158 0.0
C489 C 0.79655 0.36693 0.62276 0.0
C490 C 0.71822 0.36373 0.65406 0.0
C491 C 0.8186 0.35692 0.63623 0.0
C492 C 0.83831 0.33121 0.66664 0.0
C493 C 0.81664 0.34082 0.65551 0.0
C494 C 0.86405 0.35377 0.63955 0.0
C495 C 0.86246 0.33754 0.65883 0.0
C496 C 0.84253 0.3632 0.62847 0.0
C497 C 0.73223 0.40898 0.55736 0.0
C498 C 0.75749 0.42735 0.52663 0.0
C499 C 0.71202 0.42439 0.51988 0.0
C500 C 0.71045 0.41337 0.54249 0.0
C501 C 0.7355 0.43123 0.51123 0.0
C502 C 0.75587 0.41615 0.54938 0.0
C503 C 0.72895 0.39786 0.58137 0.0
O504 O 0.7222 0.3482 0.63472 0.0
O505 O 0.73272 0.38504 0.65578 0.0
O506 O 0.73986 0.41031 0.60238 0.0
O507 O 0.72897 0.37339 0.58131 0.0
H508 H 0.68363 0.39387 0.63425 0.0
H509 H 0.64055 0.39736 0.64542 0.0
H510 H 0.64931 0.34001 0.69651 0.0
H511 H 0.69259 0.33732 0.68586 0.0
H512 H 0.83599 0.31845 0.68103 0.0
H513 H 0.7984 0.33549 0.66177 0.0
H514 H 0.88209 0.35956 0.63312 0.0
H515 H 0.84464 0.37549 0.6136 0.0
H516 H 0.77601 0.43334 0.52148 0.0
H517 H 0.6946 0.42718 0.50904 0.0
H518 H 0.69199 0.40828 0.54842 0.0
H519 H 0.77298 0.41333 0.56078 0.0
C520 C 0.83882 0.71121 0.23 0.0
C521 C 0.85913 0.69734 0.22461 0.0
C522 C 0.88971 0.72734 0.25284 0.0
C523 C 0.88406 0.70539 0.23565 0.0
C524 C 0.86924 0.74131 0.25765 0.0
C525 C 0.84446 0.73342 0.24649 0.0
U526 U 0.77367 0.67568 0.19177 0.0
O527 O 0.74039 0.66369 0.2107 0.0
O528 O 0.738 0.69377 0.18536 0.0
C529 C 0.72601 0.67885 0.19953 0.0
C530 C 0.81146 0.70275 0.22079 0.0
C531 C 0.70327 0.686 0.21142 0.0
C532 C 0.68194 0.69625 0.24887 0.0
C533 C 0.70426 0.69498 0.23698 0.0
C534 C 0.65723 0.68087 0.20956 0.0
C535 C 0.6582 0.68787 0.23566 0.0
C536 C 0.67951 0.67998 0.19762 0.0
C537 C 0.76695 0.62177 0.13633 0.0
C538 C 0.72855 0.59949 0.11339 0.0
C539 C 0.76852 0.58238 0.1103 0.0
C540 C 0.78058 0.60285 0.1262 0.0
C541 C 0.74235 0.58025 0.10359 0.0
C542 C 0.74072 0.62006 0.12965 0.0
C543 C 0.78095 0.64186 0.15474 0.0
O544 O 0.801 0.71 0.19971 0.0
O545 O 0.80159 0.68055 0.22553 0.0
O546 O 0.78194 0.63751 0.17859 0.0
O547 O 0.77805 0.66545 0.15139 0.0
H548 H 0.85574 0.68009 0.21215 0.0
H549 H 0.89882 0.69389 0.23115 0.0
H550 H 0.87228 0.75863 0.26995 0.0
H551 H 0.82941 0.74467 0.25116 0.0
H552 H 0.68338 0.70246 0.26884 0.0
H553 H 0.72228 0.69985 0.24805 0.0
H554 H 0.63941 0.67432 0.19872 0.0
H555 H 0.67821 0.67295 0.17785 0.0
H556 H 0.70836 0.59856 0.10863 0.0
H557 H 0.77978 0.56773 0.10397 0.0
H558 H 0.80072 0.60356 0.13115 0.0
H559 H 0.72965 0.63433 0.13724 0.0
C560 C 0.27947 1.00118 0.38999 0.0
C561 C 0.25569 0.99045 0.39431 0.0
C562 C 0.23624 0.01105 0.35997 0.0
C563 C 0.23434 0.99526 0.37947 0.0
C564 C 0.26024 0.02107 0.35486 0.0
C565 C 0.28183 0.01621 0.3699 0.0
U566 U 0.34907 0.99629 0.41724 0.0
O567 O 0.37128 0.01928 0.39369 0.0
O568 O 0.36913 0.97804 0.38761 0.0
C569 C 0.38117 0.99963 0.38377 0.0
C570 C 0.30046 0.99837 0.40878 0.0
C571 C 0.40852 1.00129 0.38922 0.0
C572 C 0.45007 0.01227 0.37713 0.0
C573 C 0.42419 1.00737 0.37071 0.0
C574 C 0.44494 1.00426 0.42048 0.0
C575 C 0.46049 0.0112 0.40213 0.0
C576 C 0.419 0.99945 0.41407 0.0
C577 C 0.35733 0.9934 0.48771 0.0
C578 C 0.36275 1.00388 0.5329 0.0
C579 C 0.32089 0.99195 0.51141 0.0
C580 C 0.33123 0.98876 0.48847 0.0
C581 C 0.33655 1.00005 0.53366 0.0
C582 C 0.37308 1.0006 0.50997 0.0
C583 C 0.368 0.99339 0.46361 0.0
O584 O 0.31655 0.01829 0.41557 0.0
O585 O 0.3109 0.97709 0.40708 0.0
O586 O 0.36713 0.01469 0.4534 0.0
O587 O 0.36109 0.97349 0.44751 0.0
H588 H 0.25352 0.97892 0.40979 0.0
H589 H 0.21616 0.98689 0.38355 0.0
H590 H 0.26221 0.03329 0.33993 0.0
H591 H 0.30014 0.02475 0.36638 0.0
H592 H 0.46199 0.01719 0.36261 0.0
H593 H 0.41637 1.00895 0.35155 0.0
H594 H 0.45276 1.00305 0.43972 0.0
H595 H 0.40703 0.99489 0.42862 0.0
H596 H 0.37511 1.01024 0.54988 0.0
H597 H 0.30067 0.98855 0.51172 0.0
H598 H 0.31885 0.98338 0.47129 0.0
H599 H 0.39324 1.00449 0.5095 0.0
C600 C 0.27039 0.018 0.75399 0.0
C601 C 0.28647 0.04036 0.75492 0.0
C602 C 0.32263 0.0162 0.75225 0.0
C603 C 0.31247 0.03944 0.75391 0.0
C604 C 0.30684 0.99413 0.75272 0.0
C605 C 0.28096 0.99493 0.75319 0.0
U606 U 0.19835 0.02001 0.76557 0.0
O607 O 0.16887 0.032 0.73902 0.0
O608 O 0.17022 0.99203 0.74432 0.0
C609 C 0.15806 1.00896 0.73343 0.0
C610 C 0.24277 0.01775 0.74884 0.0
C611 C 0.13062 1.00536 0.73329 0.0
C612 C 0.09031 0.99001 0.71027 0.0
C613 C 0.11643 0.99449 0.71111 0.0
C614 C 0.09225 1.00707 0.75404 0.0
C615 C 0.07791 0.99658 0.73158 0.0
C616 C 0.11851 0.01141 0.75492 0.0
C617 C 0.20569 0.03593 0.83888 0.0
C618 C 0.20278 0.03948 0.88402 0.0
C619 C 0.2413 0.05517 0.86756 0.0
C620 C 0.2305 0.04742 0.84292 0.0
C621 C 0.22727 0.05169 0.88823 0.0
C622 C 0.19209 0.03173 0.85955 0.0
C623 C 0.19255 0.02952 0.81357 0.0
O624 O 0.22906 0.99826 0.75533 0.0
O625 O 0.2321 0.03887 0.75151 0.0
O626 O 0.19397 0.04699 0.79783 0.0
O627 O 0.19394 1.00673 0.80293 0.0
H628 H 0.27888 0.0584 0.75504 0.0
H629 H 0.32448 0.05671 0.75347 0.0
H630 H 0.3145 0.97615 0.75159 0.0
H631 H 0.26913 0.9773 0.75169 0.0
H632 H 0.0798 0.98146 0.6929 0.0
H633 H 0.12561 0.98936 0.6944 0.0
H634 H 0.08312 0.01241 0.77072 0.0
H635 H 0.1293 0.01953 0.77231 0.0
H636 H 0.19186 0.03595 0.89969 0.0
H637 H 0.26034 0.06436 0.87045 0.0
H638 H 0.24127 0.05077 0.82711 0.0
H639 H 0.17294 0.02281 0.85671 0.0
C640 C 0.66038 0.68856 0.3671 0.0
C641 C 0.64173 0.67025 0.37249 0.0
C642 C 0.67178 0.63816 0.37201 0.0
C643 C 0.64733 0.64539 0.37483 0.0
C644 C 0.69021 0.65664 0.36627 0.0
C645 C 0.68458 0.68143 0.36387 0.0
U646 U 0.62044 0.74504 0.37584 0.0
O647 O 0.63261 0.78517 0.38693 0.0
O648 O 0.61151 0.77378 0.34996 0.0
C649 C 0.62304 0.79247 0.36553 0.0
C650 C 0.65521 0.71507 0.36461 0.0
C651 C 0.63697 0.8137 0.35462 0.0
C652 C 0.67395 0.84392 0.35388 0.0
C653 C 0.66266 0.82148 0.36164 0.0
C654 C 0.63448 0.85068 0.3311 0.0
C655 C 0.65987 0.85927 0.339 0.0
C656 C 0.62322 0.82843 0.33897 0.0
C657 C 0.55782 0.72922 0.40808 0.0
C658 C 0.52867 0.75487 0.42841 0.0
C659 C 0.51867 0.70984 0.42081 0.0
C660 C 0.54126 0.70785 0.4099 0.0
C661 C 0.51203 0.73332 0.43031 0.0
C662 C 0.55135 0.75285 0.4173 0.0
C663 C 0.58205 0.72547 0.39769 0.0
O664 O 0.6359 0.71857 0.34872 0.0
O665 O 0.65671 0.72992 0.38572 0.0
O666 O 0.60278 0.7368 0.41031 0.0
O667 O 0.58239 0.72477 0.37308 0.0
H668 H 0.62284 0.67515 0.37488 0.0
H669 H 0.6323 0.63188 0.37869 0.0
H670 H 0.70925 0.6521 0.3641 0.0
H671 H 0.69929 0.69517 0.35962 0.0
H672 H 0.6935 0.84975 0.36044 0.0
H673 H 0.67383 0.8107 0.37379 0.0
H674 H 0.62306 0.86131 0.31904 0.0
H675 H 0.60336 0.82309 0.33335 0.0
H676 H 0.52447 0.77324 0.43596 0.0
H677 H 0.50629 0.69289 0.42165 0.0
H678 H 0.54593 0.68941 0.40302 0.0
H679 H 0.56394 0.7696 0.41627 0.0
C680 C 0.75465 0.26223 1.0094 0.0
C681 C 0.77262 0.27944 0.02392 0.0
C682 C 0.75057 0.3143 1.00897 0.0
C683 C 0.77077 0.30535 0.02346 0.0
C684 C 0.73319 0.29654 0.99441 0.0
C685 C 0.73539 0.27097 0.99429 0.0
U686 U 0.7698 0.19107 0.01498 0.0
O687 O 0.75105 0.16301 0.98541 0.0
O688 O 0.74075 0.16255 0.02422 0.0
C689 C 0.73781 0.15132 1.00111 0.0
C690 C 0.75407 0.235 1.00957 0.0
C691 C 0.73816 0.12404 0.99885 0.0
C692 C 0.71508 0.08271 0.99159 0.0
C693 C 0.71532 0.10881 0.99352 0.0
C694 C 0.76068 0.08693 0.99971 0.0
C695 C 0.73773 0.07169 0.99496 0.0
C696 C 0.76092 0.11304 1.00158 0.0
C697 C 0.8411 0.19828 0.03898 0.0
C698 C 0.88563 0.19601 0.05024 0.0
C699 C 0.86929 0.23656 0.04814 0.0
C700 C 0.84498 0.22459 0.04142 0.0
C701 C 0.88988 0.2223 0.05221 0.0
C702 C 0.86143 0.18414 0.04369 0.0
C703 C 0.81641 0.18472 0.03069 0.0
O704 O 0.76409 0.22216 0.99163 0.0
O705 O 0.75407 0.2248 0.03109 0.0
O706 O 0.7987 0.18715 0.04602 0.0
O707 O 0.80839 0.18519 1.00677 0.0
H708 H 0.78781 0.27291 0.03562 0.0
H709 H 0.785 0.31824 0.0347 0.0
H710 H 0.71699 0.30218 0.98399 0.0
H711 H 0.7214 0.25783 0.98293 0.0
H712 H 0.69722 0.07116 0.98855 0.0
H713 H 0.69763 0.11713 0.99132 0.0
H714 H 0.77826 0.0786 1.00289 0.0
H715 H 0.77872 0.12463 1.00563 0.0
H716 H 0.90113 0.18459 0.05314 0.0
H717 H 0.87201 0.25689 0.05003 0.0
H718 H 0.82937 0.23575 0.03789 0.0
H719 H 0.85865 0.1638 0.04184 0.0
C720 C 0.21985 0.81422 0.68797 0.0
C721 C 0.20251 0.83212 0.68464 0.0
C722 C 0.23692 0.86628 0.69002 0.0
C723 C 0.21096 0.85786 0.68573 0.0
C724 C 0.25403 0.84807 0.69321 0.0
C725 C 0.24559 0.82256 0.6925 0.0
U726 U 0.18146 0.75017 0.66121 0.0
O727 O 0.19727 0.71501 0.65026 0.0
O728 O 0.17297 0.71637 0.68125 0.0
C729 C 0.18666 0.70268 0.66731 0.0
C730 C 0.21234 0.78675 0.68655 0.0
C731 C 0.20166 0.68424 0.67916 0.0
C732 C 0.24152 0.67172 0.69724 0.0
C733 C 0.226 0.69066 0.69142 0.0
C734 C 0.20813 0.64001 0.67967 0.0
C735 C 0.23326 0.64611 0.6901 0.0
C736 C 0.19256 0.65882 0.67441 0.0
C737 C 0.12966 0.74526 0.6049 0.0
C738 C 0.12072 0.71075 0.57146 0.0
C739 C 0.09464 0.74522 0.57221 0.0
C740 C 0.10911 0.75656 0.59422 0.0
C741 C 0.10048 0.72233 0.56011 0.0
C742 C 0.13491 0.72191 0.59366 0.0
C743 C 0.14725 0.75952 0.62542 0.0
O744 O 0.19036 0.77897 0.69387 0.0
O745 O 0.21784 0.77347 0.66631 0.0
O746 O 0.17128 0.75892 0.62251 0.0
O747 O 0.1423 0.75753 0.6489 0.0
H748 H 0.18253 0.82625 0.68105 0.0
H749 H 0.19714 0.87119 0.68313 0.0
H750 H 0.27416 0.85328 0.69547 0.0
H751 H 0.25936 0.80915 0.69501 0.0
H752 H 0.26039 0.67724 0.70622 0.0
H753 H 0.23339 0.71019 0.69539 0.0
H754 H 0.20092 0.6207 0.67377 0.0
H755 H 0.17385 0.65343 0.66493 0.0
H756 H 0.12642 0.69351 0.56269 0.0
H757 H 0.07903 0.75461 0.5645 0.0
H758 H 0.1047 0.77461 0.60246 0.0
H759 H 0.15073 0.71281 0.60141 0.0
C760 C 0.37362 0.28868 1.00488 0.0
C761 C 0.38958 0.26959 1.00124 0.0
C762 C 0.35672 0.2386 1.01083 0.0
C763 C 0.38118 0.24473 1.00418 0.0
C764 C 0.34077 0.25779 0.01428 0.0
C765 C 0.34917 0.28264 1.01126 0.0
U766 U 0.42715 0.33721 0.99738 0.0
O767 O 0.42918 0.37331 0.98064 0.0
O768 O 0.44147 0.37177 0.02098 0.0
C769 C 0.43923 0.3857 1.00205 0.0
C770 C 0.38297 0.31506 1.00393 0.0
C771 C 0.43244 0.41093 1.00815 0.0
C772 C 0.4041 0.44002 0.02323 0.0
C773 C 0.40859 0.41555 0.01514 0.0
C774 C 0.44697 0.4551 0.01673 0.0
C775 C 0.42346 0.45977 0.02444 0.0
C776 C 0.45146 0.43072 1.00877 0.0
C777 C 0.49137 0.32163 0.98799 0.0
C778 C 0.52467 0.35573 0.99923 0.0
C779 C 0.53479 0.31377 0.98577 0.0
C780 C 0.50927 0.30519 0.98233 0.0
C781 C 0.54259 0.33881 0.99506 0.0
C782 C 0.49907 0.34717 0.99556 0.0
C783 C 0.46513 0.31178 0.98884 0.0
O784 O 0.39981 0.32411 0.0227 0.0
O785 O 0.389 0.3213 0.98178 0.0
O786 O 0.44919 0.31742 0.97049 0.0
O787 O 0.45718 0.31534 1.01131 0.0
H788 H 0.40864 0.274 0.9965 0.0
H789 H 0.39381 0.23029 1.00129 0.0
H790 H 0.32201 0.25369 0.01989 0.0
H791 H 0.33675 0.29722 0.01443 0.0
H792 H 0.38554 0.4436 0.02841 0.0
H793 H 0.39377 0.40034 0.01467 0.0
H794 H 0.46185 0.47024 0.01715 0.0
H795 H 0.47 0.42722 1.00346 0.0
H796 H 0.53047 0.37497 1.00682 0.0
H797 H 0.54856 0.30045 0.98283 0.0
H798 H 0.50362 0.2855 0.97657 0.0
H799 H 0.48538 0.3601 1.00004 0.0
C800 C 0.37115 0.65865 0.689 0.0
C801 C 0.3781 0.64155 0.67002 0.0
C802 C 0.37313 0.67211 0.63874 0.0
C803 C 0.37909 0.64822 0.64518 0.0
C804 C 0.36596 0.68897 0.65791 0.0
C805 C 0.36522 0.68239 0.68269 0.0
U806 U 0.37949 0.61649 0.74436 0.0
O807 O 0.39018 0.62803 0.78488 0.0
O808 O 0.35328 0.60725 0.77265 0.0
C809 C 0.36855 0.61863 0.7917 0.0
C810 C 0.36893 0.65217 0.71523 0.0
C811 C 0.3571 0.63285 0.81228 0.0
C812 C 0.35502 0.67023 0.84145 0.0
C813 C 0.36373 0.65858 0.81963 0.0
C814 C 0.33222 0.63094 0.84835 0.0
C815 C 0.33933 0.65649 0.85637 0.0
C816 C 0.34105 0.61934 0.82678 0.0
C817 C 0.4109 0.55372 0.7282 0.0
C818 C 0.42723 0.52248 0.75414 0.0
C819 C 0.42626 0.51616 0.70863 0.0
C820 C 0.41565 0.53881 0.70662 0.0
C821 C 0.4324 0.5077 0.73236 0.0
C822 C 0.41662 0.54539 0.75208 0.0
C823 C 0.40089 0.57808 0.72452 0.0
O824 O 0.35286 0.63286 0.71802 0.0
O825 O 0.39007 0.65288 0.72997 0.0
O826 O 0.41369 0.5985 0.73619 0.0
O827 O 0.37636 0.57879 0.72356 0.0
H828 H 0.38262 0.62304 0.67435 0.0
H829 H 0.38472 0.6347 0.63104 0.0
H830 H 0.36035 0.70714 0.65373 0.0
H831 H 0.35946 0.69577 0.6969 0.0
H832 H 0.36161 0.68971 0.84719 0.0
H833 H 0.37632 0.6695 0.80906 0.0
H834 H 0.32013 0.61964 0.85906 0.0
H835 H 0.33586 0.59943 0.82181 0.0
H836 H 0.43117 0.51626 0.7727 0.0
H837 H 0.43006 0.50543 0.69149 0.0
H838 H 0.41144 0.54489 0.68801 0.0
H839 H 0.413 0.55656 0.76902 0.0
C840 C 0.9772 0.69096 0.23846 0.0
C841 C 0.99614 0.68849 0.25756 0.0
C842 C 0.96541 0.67323 0.28582 0.0
C843 C 0.99021 0.67938 0.28021 0.0
C844 C 0.94621 0.6745 0.26624 0.0
C845 C 0.95221 0.68244 0.24255 0.0
U846 U 1.00065 0.74807 0.20261 0.0
O847 O 0.02176 0.74874 0.16914 0.0
O848 O 0.98362 0.76118 0.16775 0.0
C849 C 1.00338 0.7575 0.15553 0.0
C850 C 0.98338 0.7032 0.21507 0.0
C851 C 0.99838 0.74779 0.12882 0.0
C852 C 0.99888 0.71543 0.09421 0.0
C853 C 1.00105 0.72281 0.12019 0.0
C854 C 0.99016 0.75753 0.08552 0.0
C855 C 0.99374 0.73288 0.07676 0.0
C856 C 0.99253 0.76493 0.11135 0.0
C857 C 0.02527 0.81346 0.23681 0.0
C858 C 0.03804 0.85072 0.21588 0.0
C859 C 0.04038 0.85317 0.26145 0.0
C860 C 0.03125 0.82779 0.26014 0.0
C861 C 0.04389 0.86513 0.23943 0.0
C862 C 0.0288 0.82512 0.21459 0.0
C863 C 0.01527 0.7866 0.23654 0.0
O864 O 0.96885 0.72012 0.20758 0.0
O865 O 1.00728 0.71003 0.2129 0.0
O866 O 0.0302 0.76972 0.22946 0.0
O867 O 0.9917 0.78065 0.22722 0.0
H868 H 0.01574 0.69391 0.25531 0.0
H869 H 1.00554 0.67747 0.29339 0.0
H870 H 0.92675 0.66926 0.26911 0.0
H871 H 0.93731 0.6829 0.22764 0.0
H872 H 1.00211 0.69642 0.08769 0.0
H873 H 1.00565 0.70935 0.13342 0.0
H874 H 0.98684 0.7714 0.07235 0.0
H875 H 0.99068 0.78436 0.1177 0.0
H876 H 0.04085 0.85911 0.19852 0.0
H877 H 0.04435 0.86361 0.27989 0.0
H878 H 0.02869 0.81933 0.27753 0.0
H879 H 0.02442 0.81447 0.1963 0.0
C880 C 0.6949 0.22236 0.81849 0.0
C881 C 0.6902 0.20326 0.83435 0.0
C882 C 0.68944 0.23461 0.87066 0.0
C883 C 0.68783 0.2093 0.8602 0.0
C884 C 0.69466 0.25345 0.85456 0.0
C885 C 0.69746 0.2474 0.829 0.0
U886 U 0.67419 0.18399 0.75443 0.0
O887 O 0.66006 0.19671 0.71838 0.0
O888 O 0.69415 0.17682 0.72023 0.0
C889 C 0.67821 0.18823 0.70608 0.0
C890 C 0.69596 0.21721 0.79081 0.0
C891 C 0.6881 0.2044 0.68741 0.0
C892 C 0.69848 0.24598 0.67404 0.0
C893 C 0.69501 0.23022 0.69335 0.0
C894 C 0.68965 0.21013 0.64278 0.0
C895 C 0.69473 0.23632 0.64837 0.0
C896 C 0.6865 0.19441 0.66208 0.0
C897 C 0.62472 0.12678 0.75825 0.0
C898 C 0.60021 0.09994 0.7241 0.0
C899 C 0.58803 0.10018 0.76673 0.0
C900 C 0.6086 0.11752 0.77522 0.0
C901 C 0.58322 0.0916 0.74103 0.0
C902 C 0.62073 0.11768 0.73263 0.0
C903 C 0.64375 0.14756 0.76796 0.0
O904 O 0.70642 0.1971 0.78274 0.0
O905 O 0.6753 0.22052 0.77681 0.0
O906 O 0.63712 0.17006 0.76464 0.0
O907 O 0.66744 0.14506 0.76446 0.0
H908 H 0.68815 0.18372 0.82677 0.0
H909 H 0.68476 0.19406 0.87188 0.0
H910 H 0.69583 0.27312 0.86147 0.0
H911 H 0.70103 0.26248 0.81718 0.0
H912 H 0.70266 0.26598 0.67915 0.0
H913 H 0.6963 0.23839 0.71275 0.0
H914 H 0.68603 0.20187 0.62342 0.0
H915 H 0.68099 0.17456 0.65701 0.0
H916 H 0.59745 0.09306 0.70428 0.0
H917 H 0.57534 0.09422 0.78022 0.0
H918 H 0.61139 0.12445 0.79504 0.0
H919 H 0.63305 0.12466 0.71925 0.0
C920 C 1.00884 0.38724 0.28922 0.0
C921 C 0.015 0.40248 0.27023 0.0
C922 C 0.01527 0.36533 0.24055 0.0
C923 C 0.01817 0.39161 0.24609 0.0
C924 C 1.00882 0.35017 0.2596 0.0
C925 C 1.0057 0.36107 0.28374 0.0
U926 U 1.00669 0.4427 0.33971 0.0
O927 O 0.98903 0.44325 0.37554 0.0
O928 O 0.03007 0.45131 0.37559 0.0
C929 C 1.01105 0.44724 0.38907 0.0
C930 C 1.0074 0.39812 0.31523 0.0
C931 C 0.01555 0.43109 0.40941 0.0
C932 C 0.04052 0.40131 0.42925 0.0
C933 C 0.03323 0.41331 0.40803 0.0
C934 C 1.01093 0.4231 0.45268 0.0
C935 C 0.02971 0.40638 0.45193 0.0
C936 C 1.00408 0.43551 0.43166 0.0
C937 C 1.0107 0.51093 0.32254 0.0
C938 C 1.00424 0.55005 0.34704 0.0
C939 C 0.03102 0.5506 0.31289 0.0
C940 C 0.02641 0.52465 0.3081 0.0
C941 C 0.01927 0.56383 0.3317 0.0
C942 C 1.00005 0.52367 0.34255 0.0
C943 C 1.00681 0.48345 0.31614 0.0
O944 O 0.02772 0.41214 0.32549 0.0
O945 O 0.98639 0.40779 0.32003 0.0
O946 O 0.98592 0.47128 0.32182 0.0
O947 O 0.02693 0.47168 0.32075 0.0
H948 H 0.01763 0.42274 0.27416 0.0
H949 H 0.02302 0.40376 0.23175 0.0
H950 H 1.00577 0.32994 0.25573 0.0
H951 H 1.00099 0.34902 0.29822 0.0
H952 H 0.05518 0.38874 0.42805 0.0
H953 H 0.04221 0.40949 0.39092 0.0
H954 H 1.00168 0.42685 0.46964 0.0
H955 H 0.99035 0.44909 0.43301 0.0
H956 H 0.99525 0.55966 0.36194 0.0
H957 H 0.0436 0.56041 0.30144 0.0
H958 H 0.03523 0.51522 0.29293 0.0
H959 H 0.98829 0.51336 0.35438 0.0
H960 H 0.29597 0.53791 0.68267 0.0
H961 H 0.30599 0.51683 0.60434 0.0
H962 H 0.27721 0.58646 0.6255 0.0
H963 H 0.30754 0.4795 0.61531 0.0
C964 C 0.3151 0.48016 0.63488 0.0
C965 C 0.29451 0.54165 0.66303 0.0
C966 C 0.28586 0.56441 0.65613 0.0
C967 C 0.30171 0.52388 0.64447 0.0
C968 C 0.30015 0.52958 0.61892 0.0
C969 C 0.29125 0.55216 0.61195 0.0
C970 C 0.2839 0.56895 0.63068 0.0
N971 N 0.31132 0.50119 0.65206 0.0
H972 H 0.3736 0.57242 0.04149 0.0
H973 H 0.30269 0.54965 0.99639 0.0
H974 H 0.35286 0.49521 0.01696 0.0
H975 H 0.35953 0.60736 0.05017 0.0
C976 C 0.34362 0.60987 0.03693 0.0
C977 C 0.35925 0.55817 0.03264 0.0
C978 C 0.36487 0.53343 0.03137 0.0
C979 C 0.3361 0.56407 0.02112 0.0
C980 C 0.31959 0.54495 1.00697 0.0
C981 C 0.32573 0.52004 1.00548 0.0
C982 C 0.34766 0.51435 0.01884 0.0
N983 N 0.3297 0.58913 0.022 0.0
H984 H 0.7245 0.96982 0.30274 0.0
H985 H 0.7476 0.01915 0.3695 0.0
H986 H 0.69845 0.95384 0.37381 0.0
H987 H 0.73951 0.05694 0.28335 0.0
C988 C 0.75169 0.0525 0.29993 0.0
C989 C 0.72345 0.97531 0.32256 0.0
C990 C 0.70979 0.95905 0.3373 0.0
C991 C 0.73576 0.99873 0.33417 0.0
C992 C 0.7348 1.00416 0.36024 0.0
C993 C 0.71767 0.99076 0.37367 0.0
C994 C 0.70791 0.96692 0.36265 0.0
N995 N 0.75005 0.01739 0.32058 0.0
H996 H 0.70995 0.94886 0.98895 0.0
H997 H 0.75342 0.90218 0.03354 0.0
H998 H 0.77724 0.98082 0.03407 0.0
H999 H 0.73813 0.87614 0.9876 0.0
C1000 C 0.71975 0.87785 0.99438 0.0
C1001 C 0.72664 0.94658 1.00129 0.0
C1002 C 0.7437 0.96744 1.01034 0.0
C1003 C 0.73074 0.92282 1.00892 0.0
C1004 C 0.7512 0.92034 0.02677 0.0
C1005 C 0.76705 0.94162 0.03758 0.0
C1006 C 0.76465 0.96431 0.02697 0.0
N1007 N 0.71255 0.90212 1.00107 0.0
H1008 H 0.68363 0.30002 0.54157 0.0
H1009 H 0.60668 0.31114 0.51617 0.0
H1010 H 0.62271 0.27731 0.58468 0.0
H1011 H 0.62354 0.30061 0.47675 0.0
C1012 C 0.64038 0.31382 0.47952 0.0
C1013 C 0.6637 0.29811 0.54402 0.0
C1014 C 0.65536 0.28791 0.56571 0.0
C1015 C 0.64622 0.306 0.52549 0.0
C1016 C 0.62029 0.30432 0.5295 0.0
C1017 C 0.612 0.29413 0.55105 0.0
C1018 C 0.62948 0.28555 0.5684 0.0
N1019 N 0.65505 0.31618 0.50352 0.0
H1020 H 0.98444 0.70139 0.95072 0.0
H1021 H 0.03802 0.74095 0.90904 0.0
H1022 H 0.03545 0.76289 0.98758 0.0
H1023 H 0.99993 0.73645 0.88023 0.0
C1024 C 0.99794 0.71613 0.88036 0.0
C1025 C 0.99894 0.71663 0.94983 0.0
C1026 C 1.00912 0.73161 0.97197 0.0
C1027 C 1.00826 0.72096 0.92661 0.0
C1028 C 0.02892 0.73916 0.92619 0.0
C1029 C 0.03877 0.75419 0.94819 0.0
C1030 C 0.0276 0.75142 0.97045 0.0
N1031 N 0.99813 0.70597 0.90405 0.0
H1032 H 0.05039 0.35032 0.56513 0.0
H1033 H 0.98231 0.30009 0.55802 0.0
H1034 H 0.99021 0.35854 0.50871 0.0
H1035 H 1.00296 0.34451 0.6082 0.0
C1036 C 0.01541 0.32973 0.61058 0.0
C1037 C 0.03137 0.34488 0.55647 0.0
C1038 C 0.02182 0.35655 0.53585 0.0
C1039 C 0.01623 0.32566 0.56552 0.0
C1040 C 0.99284 0.31653 0.55244 0.0
C1041 C 0.98358 0.32837 0.53168 0.0
C1042 C 0.99698 0.34996 0.5254 0.0
N1043 N 0.02357 0.31713 0.58895 0.0
H1044 H 0.29802 0.71342 0.9677 0.0
H1045 H 0.36441 0.73776 0.0202 0.0
H1046 H 0.37131 0.6918 0.95353 0.0
H1047 H 0.27542 0.7484 0.05667 0.0
C1048 C 0.29522 0.7472 0.05261 0.0
C1049 C 0.31799 0.71405 0.97351 0.0
C1050 C 0.33386 0.70218 0.95721 0.0
C1051 C 0.32777 0.72569 0.99789 0.0
C1052 C 0.35437 0.7267 1.00402 0.0
C1053 C 0.36941 0.71335 0.98868 0.0
C1054 C 0.35918 0.70154 0.96549 0.0
N1055 N 0.30973 0.7337 0.01575 0.0
H1056 H 0.54664 0.67961 0.29269 0.0
H1057 H 0.52118 0.60466 0.30937 0.0
H1058 H 0.58467 0.61625 0.26708 0.0
H1059 H 0.48194 0.62012 0.30454 0.0
C1060 C 0.48565 0.63865 0.31481 0.0
C1061 C 0.54788 0.65953 0.29063 0.0
C1062 C 0.56816 0.64985 0.27888 0.0
C1063 C 0.52957 0.64315 0.30039 0.0
C1064 C 0.53314 0.61721 0.29975 0.0
C1065 C 0.55321 0.60771 0.28785 0.0
C1066 C 0.56923 0.62385 0.27613 0.0
N1067 N 0.50887 0.65321 0.31202 0.0
H1068 H 0.94931 0.97971 0.70871 0.0
H1069 H 0.91289 0.0373 0.74843 0.0
H1070 H 0.99257 0.0331 0.76369 0.0
H1071 H 0.88123 0.99818 0.74315 0.0
C1072 C 0.88155 0.99772 0.72279 0.0
C1073 C 0.95005 0.99521 0.72328 0.0
C1074 C 0.97299 1.00409 0.73737 0.0
C1075 C 0.92811 1.00666 0.7278 0.0
C1076 C 0.92955 0.02766 0.74587 0.0
C1077 C 0.95281 0.03753 0.759 0.0
C1078 C 0.97419 0.02508 0.75499 0.0
N1079 N 0.90518 0.99831 0.71264 0.0
H1080 H 0.57933 0.0285 0.36915 0.0
H1081 H 0.55099 0.99725 0.29325 0.0
H1082 H 0.5017 1.00167 0.35219 0.0
H1083 H 0.61336 0.01103 0.35802 0.0
C1084 C 0.6148 0.01756 0.33947 0.0
C1085 C 0.56424 0.01984 0.35544 0.0
C1086 C 0.5404 0.01534 0.36327 0.0
C1087 C 0.56834 0.01303 0.33013 0.0
C1088 C 0.54791 1.00271 0.31266 0.0
C1089 C 0.52364 0.99909 0.32061 0.0
C1090 C 0.52024 1.00535 0.34582 0.0
N1091 N 0.59287 0.01628 0.32216 0.0
H1092 H 0.9743 0.29716 0.72189 0.0
H1093 H 0.01532 0.36906 0.74661 0.0
H1094 H 0.95784 0.36269 0.68508 0.0
H1095 H 0.07036 0.29735 0.73619 0.0
C1096 C 0.05991 0.3062 0.75109 0.0
C1097 C 0.97845 0.3169 0.71973 0.0
C1098 C 0.962 0.32921 0.70345 0.0
C1099 C 1.00043 0.33069 0.73306 0.0
C1100 C 1.00212 0.3572 0.73317 0.0
C1101 C 0.98776 0.36877 0.71515 0.0
C1102 C 0.96879 0.35415 0.69948 0.0
N1103 N 0.02036 0.31852 0.7475 0.0
H1104 H 0.73913 0.49097 0.34362 0.0
H1105 H 0.7204 0.50489 0.42011 0.0
H1106 H 0.74297 0.43314 0.39378 0.0
H1107 H 0.69021 0.52641 0.40126 0.0
C1108 C 0.69975 0.53618 0.38735 0.0
C1109 C 0.73634 0.48441 0.36187 0.0
C1110 C 0.74312 0.46054 0.3672 0.0
C1111 C 0.72606 0.49989 0.38031 0.0
C1112 C 0.72555 0.49216 0.40503 0.0
C1113 C 0.7329 0.46844 0.41057 0.0
C1114 C 0.7392 0.45217 0.39067 0.0
N1115 N 0.71772 0.52349 0.37406 0.0
H1116 H 0.66754 0.44474 0.98354 0.0
H1117 H 0.72114 0.46373 0.04958 0.0
H1118 H 0.66581 0.51319 0.03117 0.0
H1119 H 0.73497 0.42851 0.04062 0.0
C1120 C 0.72512 0.4176 0.0241 0.0
C1121 C 0.67441 0.45672 1.00062 0.0
C1122 C 0.66424 0.47947 1.00594 0.0
C1123 C 0.69437 0.45002 0.01679 0.0
C1124 C 0.70464 0.46714 0.03774 0.0
C1125 C 0.69415 0.48989 0.04297 0.0
C1126 C 0.67323 0.49513 0.02777 0.0
N1127 N 0.7043 0.42674 1.01054 0.0
H1128 H 0.29516 0.04403 0.70098 0.0
H1129 H 0.28573 0.98869 0.6363 0.0
H1130 H 0.31556 0.06341 0.62824 0.0
H1131 H 0.27941 0.98196 0.69149 0.0
C1132 C 0.28037 0.96727 0.67675 0.0
C1133 C 0.29575 0.03922 0.68097 0.0
C1134 C 0.30682 0.05707 0.66599 0.0
C1135 C 0.28826 0.0141 0.67041 0.0
C1136 C 0.29057 1.0078 0.64474 0.0
C1137 C 0.30019 0.02558 0.62981 0.0
C1138 C 0.30742 0.05012 0.64015 0.0
N1139 N 0.28089 0.99374 0.68623 0.0
H1140 H 0.30335 0.08372 0.05926 0.0
H1141 H 0.28055 0.11576 0.99076 0.0
H1142 H 0.25862 0.03832 0.99802 0.0
H1143 H 0.33573 0.12135 1.0101 0.0
C1144 C 0.32713 0.13438 0.02264 0.0
C1145 C 0.29237 0.08213 0.04102 0.0
C1146 C 0.28 0.05889 0.03068 0.0
C1147 C 0.29224 0.1028 0.02672 0.0
C1148 C 0.27975 0.10015 1.00226 0.0
C1149 C 0.26746 0.07697 0.9921 0.0
C1150 C 0.26717 0.05658 1.00648 0.0
N1151 N 0.30679 0.12557 0.03577 0.0
H1152 H 0.34417 0.73166 0.48776 0.0
H1153 H 0.42237 0.7223 0.5073 0.0
H1154 H 0.3973 0.73864 0.43241 0.0
H1155 H 0.37889 0.68002 0.52007 0.0
C1156 C 0.37826 0.69611 0.53378 0.0
C1157 C 0.36315 0.73119 0.48235 0.0
C1158 C 0.36843 0.73623 0.45777 0.0
C1159 C 0.38244 0.7251 0.49995 0.0
C1160 C 0.4074 0.72566 0.49333 0.0
C1161 C 0.41308 0.73166 0.46915 0.0
C1162 C 0.39321 0.73539 0.4514 0.0
N1163 N 0.37705 0.72029 0.52487 0.0
H1164 H 0.05549 0.31188 0.08343 0.0
H1165 H 0.99067 0.27554 0.11257 0.0
H1166 H 1.00148 0.26176 0.03426 0.0
H1167 H 0.99485 0.32155 0.12693 0.0
C1168 C 1.01258 0.31938 0.1378 0.0
C1169 C 0.03893 0.29841 0.08079 0.0
C1170 C 0.03022 0.2869 0.05652 0.0
C1171 C 0.02486 0.29391 0.10128 0.0
C1172 C 1.00219 0.27804 0.09714 0.0
C1173 C 0.99329 0.26715 0.07288 0.0
C1174 C 1.00818 0.27042 0.05308 0.0
N1175 N 0.03151 0.30785 0.12522 0.0
H1176 H 0.96775 0.64806 0.43792 0.0
H1177 H 0.04167 0.68802 0.43589 0.0
H1178 H 0.01438 0.67246 0.50655 0.0
H1179 H 0.97928 0.63095 0.39594 0.0
C1180 C 0.98228 0.64975 0.39007 0.0
C1181 C 0.98529 0.65744 0.44729 0.0
C1182 C 0.98907 0.65959 0.47374 0.0
C1183 C 1.00385 0.66823 0.43315 0.0
C1184 C 0.02701 0.68007 0.44636 0.0
C1185 C 0.03116 0.68076 0.47315 0.0
C1186 C 1.01158 0.67144 0.48606 0.0
N1187 N 0.99891 0.66833 0.40618 0.0
H1188 H 0.69728 0.29245 0.04473 0.0
H1189 H 0.64308 0.31279 0.98726 0.0
H1190 H 0.6523 0.35344 0.06063 0.0
H1191 H 0.67797 0.27026 0.98593 0.0
C1192 C 0.66368 0.27156 0.97104 0.0
C1193 C 0.68367 0.30489 0.03843 0.0
C1194 C 0.67684 0.32421 0.05557 0.0
C1195 C 0.67201 0.30114 0.01323 0.0
C1196 C 0.65344 0.31658 1.00579 0.0
C1197 C 0.64621 0.33515 0.02301 0.0
C1198 C 0.65875 0.33961 0.04723 0.0
N1199 N 0.678 0.2801 0.99544 0.0
H1200 H 0.49328 0.34339 0.74129 0.0
H1201 H 0.51046 0.41884 0.72102 0.0
H1202 H 0.44053 0.39871 0.75074 0.0
H1203 H 0.52764 0.39235 0.68811 0.0
C1204 C 0.53927 0.3825 0.70092 0.0
C1205 C 0.48817 0.36231 0.73977 0.0
C1206 C 0.46449 0.36872 0.74657 0.0
C1207 C 0.50482 0.38014 0.72994 0.0
C1208 C 0.49786 0.40479 0.72812 0.0
C1209 C 0.47458 0.41135 0.7356 0.0
C1210 C 0.45832 0.39334 0.74477 0.0
N1211 N 0.52835 0.37308 0.7221 0.0
H1212 H 0.08141 0.04119 0.29633 0.0
H1213 H 0.11218 0.97428 0.26767 0.0
H1214 H 0.03189 0.97652 0.26445 0.0
H1215 H 0.12619 0.99442 0.32148 0.0
C1216 C 0.13683 1.00796 0.31154 0.0
C1217 C 0.07865 0.0224 0.28665 0.0
C1218 C 0.05423 1.01044 0.28043 0.0
C1219 C 0.09954 1.00924 0.28211 0.0
C1220 C 0.09592 0.98444 0.27057 0.0
C1221 C 0.07153 0.97256 0.2635 0.0
C1222 C 0.05084 0.98579 0.26863 0.0
N1223 N 0.12405 0.01963 0.29207 0.0
H1224 H 0.446 0.97605 0.66286 0.0
H1225 H 0.46889 0.02629 0.73049 0.0
H1226 H 0.52086 0.01376 0.67555 0.0
H1227 H 0.43837 0.9981 0.74677 0.0
C1228 C 0.42417 0.99886 0.73106 0.0
C1229 C 0.46036 0.98817 0.67488 0.0
C1230 C 0.48424 0.99345 0.6668 0.0
C1231 C 0.45499 0.99906 0.6985 0.0
C1232 C 0.47327 0.01629 0.71319 0.0
C1233 C 0.49683 0.02177 0.7045 0.0
C1234 C 0.50245 1.00946 0.68209 0.0
N1235 N 0.4304 0.99427 0.70591 0.0
H1236 H 0.05662 0.74225 0.32218 0.0
H1237 H 1.00272 0.68384 0.33905 0.0
H1238 H 0.07825 0.66841 0.33658 0.0
H1239 H 1.01066 0.74197 0.28657 0.0
C1240 C 0.99657 0.74015 0.29988 0.0
C1241 C 0.05162 0.72317 0.32628 0.0
C1242 C 0.071 0.70667 0.33107 0.0
C1243 C 0.02573 0.71445 0.32794 0.0
C1244 C 0.02125 0.69039 0.33635 0.0
C1245 C 0.03939 0.67308 0.33689 0.0
C1246 C 0.06407 0.68157 0.3347 0.0
N1247 N 1.00385 0.72845 0.3226 0.0
C1248 C 0.1334 0.71761 0.36954 0.0
C1249 C 0.14848 0.70262 0.35531 0.0
C1250 C 0.10928 0.72298 0.35969 0.0
C1251 C 0.09895 0.71357 0.33513 0.0
H1252 H 0.13972 0.72415 0.38904 0.0
H1253 H 0.09759 0.73231 0.37236 0.0
S1254 S 0.13093 0.67458 0.28938 0.0
N1255 N 0.15156 0.67968 0.31464 0.0
N1256 N 0.10658 0.68981 0.29627 0.0
C1257 C 0.1147 0.70031 0.32002 0.0
C1258 C 0.1392 0.6947 0.33007 0.0
C1259 C 0.43088 0.3313 0.79257 0.0
C1260 C 0.4053 0.3319 0.78354 0.0
C1261 C 0.45058 0.34066 0.77908 0.0
C1262 C 0.44539 0.3508 0.75601 0.0
H1263 H 0.4357 0.3251 0.81099 0.0
H1264 H 0.46979 0.3419 0.78778 0.0
S1265 S 0.38221 0.35383 0.7225 0.0
N1266 N 0.37636 0.34152 0.7488 0.0
N1267 N 0.41318 0.35788 0.72318 0.0
C1268 C 0.42012 0.34902 0.74559 0.0
C1269 C 0.40013 0.3399 0.7594 0.0
C1270 C 0.52942 0.96899 0.6282 0.0
C1271 C 0.53481 0.99031 0.61535 0.0
C1272 C 0.5078 0.96635 0.64102 0.0
C1273 C 0.4913 0.98523 0.64172 0.0
H1274 H 0.54302 0.95533 0.63012 0.0
H1275 H 0.5062 0.95165 0.6536 0.0
S1276 S 0.49344 0.04125 0.60613 0.0
N1277 N 0.51929 0.02809 0.60023 0.0
N1278 N 0.47839 0.02258 0.62398 0.0
C1279 C 0.49409 1.00409 0.62529 0.0
C1280 C 0.51628 1.00711 0.61257 0.0
C1281 C 0.9909 0.01531 0.30398 0.0
C1282 C 0.98032 0.03136 0.28753 0.0
C1283 C 0.01627 0.01084 0.3038 0.0
C1284 C 0.03167 0.02236 0.28725 0.0
H1285 H 0.97895 1.00411 0.31493 0.0
H1286 H 0.02324 0.99649 0.31488 0.0
S1287 S 0.01387 0.06978 0.24445 0.0
N1288 N 0.98779 0.06179 0.25739 0.0
N1289 N 0.03563 0.05338 0.25708 0.0
C1290 C 0.02207 0.04074 0.27309 0.0
C1291 C 0.99626 0.04526 0.27324 0.0
C1292 C 0.35654 0.11306 0.67138 0.0
C1293 C 0.34541 0.13252 0.68424 0.0
C1294 C 0.34486 0.08839 0.66774 0.0
C1295 C 0.32113 0.0818 0.67629 0.0
H1296 H 0.37372 0.11705 0.66261 0.0
H1297 H 0.35393 0.07457 0.6567 0.0
S1298 S 0.28651 0.12409 0.71599 0.0
N1299 N 0.31139 0.14219 0.70984 0.0
N1300 N 0.28883 0.09601 0.70156 0.0
C1301 C 0.31082 0.10039 0.69113 0.0
C1302 C 0.32299 0.12564 0.69529 0.0
C1303 C 0.26579 0.99454 0.04987 0.0
C1304 C 0.28724 0.98323 0.04321 0.0
C1305 C 0.26454 0.02034 0.04889 0.0
C1306 C 0.28481 0.03548 0.04151 0.0
H1307 H 0.24942 0.98316 0.05453 0.0
H1308 H 0.24698 0.02816 0.052 0.0
S1309 S 0.34539 0.01515 0.02316 0.0
N1310 N 0.32943 0.98922 0.0298 0.0
N1311 N 0.32716 0.03786 0.02857 0.0
C1312 C 0.30696 0.02472 0.03656 0.0
C1313 C 0.30816 0.99848 0.03722 0.0
C1314 C 0.7607 0.4059 0.32497 0.0
C1315 C 0.78605 0.4046 0.33425 0.0
C1316 C 0.74717 0.42586 0.33345 0.0
C1317 C 0.75861 0.4453 0.35129 0.0
H1318 H 0.75091 0.39074 0.31204 0.0
H1319 H 0.72725 0.42518 0.3274 0.0
S1320 S 0.82409 0.4508 0.38173 0.0
N1321 N 0.82175 0.42477 0.36245 0.0
N1322 N 0.79659 0.46227 0.3776 0.0
C1323 C 0.7842 0.44488 0.35964 0.0
C1324 C 0.79784 0.42456 0.35134 0.0
C1325 C 0.61147 0.514 0.98989 0.0
C1326 C 0.62495 0.53633 0.98364 0.0
C1327 C 0.6229 0.49179 0.99202 0.0
C1328 C 0.64798 0.4907 0.9874 0.0
H1329 H 0.59263 0.51333 0.99536 0.0
H1330 H 0.6132 0.47668 1.00067 0.0
S1331 S 0.68751 0.53718 0.95754 0.0
N1332 N 0.66191 0.55102 0.96278 0.0
N1333 N 0.68299 0.50917 0.96767 0.0
C1334 C 0.65954 0.51007 0.97539 0.0
C1335 C 0.64825 0.53304 0.97351 0.0
C1336 C 0.67058 0.32426 0.12536 0.0
C1337 C 0.68478 0.34697 0.13518 0.0
C1338 C 0.67063 0.31484 0.0998 0.0
C1339 C 0.68507 0.3276 0.08319 0.0
H1340 H 0.65783 0.31479 0.13689 0.0
H1341 H 0.65759 0.29872 0.09246 0.0
S1342 S 0.7281 0.38567 0.10042 0.0
N1343 N 0.71605 0.38005 0.12695 0.0
N1344 N 0.71548 0.36277 0.07913 0.0
C1345 C 0.7008 0.34908 0.09338 0.0
C1346 C 0.70084 0.35862 0.11927 0.0
C1347 C 0.05829 0.27766 0.99565 0.0
C1348 C 0.0425 0.29076 0.98006 0.0
C1349 C 0.05722 0.27936 0.02188 0.0
C1350 C 0.04047 0.29439 0.03329 0.0
H1351 H 0.06985 0.26427 0.98725 0.0
H1352 H 0.06753 0.2669 0.03286 0.0
S1353 S 0.99731 0.33448 1.00131 0.0
N1354 N 1.01143 0.32096 0.97822 0.0
N1355 N 1.00972 0.32447 0.02758 0.0
C1356 C 0.02662 0.30957 0.01824 0.0
C1357 C 0.02752 0.30767 0.99154 0.0
C1358 C 0.3411 0.75058 0.39371 0.0
C1359 C 0.33056 0.77326 0.39937 0.0
C1360 C 0.35019 0.73659 0.41291 0.0
C1361 C 0.34974 0.74492 0.43865 0.0
H1362 H 0.34447 0.74462 0.37451 0.0
H1363 H 0.35986 0.72034 0.40758 0.0
S1364 S 0.31686 0.79853 0.46312 0.0
N1365 N 0.31412 0.79965 0.4322 0.0
N1366 N 0.33279 0.77424 0.4684 0.0
C1367 C 0.33617 0.76557 0.44441 0.0
C1368 C 0.32635 0.77959 0.42475 0.0
C1369 C 0.97521 0.61218 0.51575 0.0
C1370 C 0.97444 0.62803 0.53811 0.0
C1371 C 0.97403 0.62169 0.49211 0.0
C1372 C 0.97203 0.64733 0.49018 0.0
H1373 H 0.9789 0.59276 0.51667 0.0
H1374 H 0.97847 0.60978 0.47599 0.0
S1375 S 0.96282 0.6953 0.54165 0.0
N1376 N 0.96711 0.66976 0.55595 0.0
N1377 N 0.96311 0.68689 0.51122 0.0
C1378 C 0.96626 0.66207 0.51159 0.0
C1379 C 0.96849 0.65278 0.53582 0.0
C1380 C 0.90565 0.322 0.6556 0.0
C1381 C 0.88622 0.32812 0.67064 0.0
C1382 C 0.92981 0.31791 0.66637 0.0
C1383 C 0.93578 0.31951 0.69276 0.0
H1384 H 0.90265 0.32175 0.63525 0.0
H1385 H 0.94466 0.316 0.65403 0.0
S1386 S 0.89145 0.33185 0.74074 0.0
N1387 N 0.87446 0.33316 0.71359 0.0
N1388 N 0.91956 0.32508 0.7335 0.0
C1389 C 0.91596 0.32312 0.70787 0.0
C1390 C 0.89137 0.32759 0.69697 0.0
C1391 C 0.61117 0.68862 0.24043 0.0
C1392 C 0.63535 0.6826 0.24954 0.0
C1393 C 0.58923 0.68019 0.25146 0.0
C1394 C 0.5907 0.6655 0.27204 0.0
H1395 H 0.6091 0.69907 0.22404 0.0
H1396 H 0.57097 0.68382 0.24286 0.0
S1397 S 0.64906 0.64472 0.30314 0.0
N1398 N 0.65887 0.66083 0.2804 0.0
N1399 N 0.61839 0.64652 0.30177 0.0
C1400 C 0.61486 0.66072 0.28212 0.0
C1401 C 0.63692 0.66876 0.2707 0.0
C1402 C 0.49904 0.04005 0.40298 0.0
C1403 C 0.48783 0.01659 0.40804 0.0
C1404 C 0.52299 0.04203 0.39442 0.0
C1405 C 0.53512 0.02026 0.38958 0.0
H1406 H 0.48788 0.05586 0.40194 0.0
H1407 H 0.52912 0.0591 0.38635 0.0
S1408 S 0.51837 0.95767 0.41017 0.0
N1409 N 0.49416 0.97363 0.41587 0.0
N1410 N 0.53929 0.97761 0.39955 0.0
C1411 C 0.52722 0.99882 0.40109 0.0
C1412 C 0.50285 0.99663 0.40973 0.0
C1413 C 0.03757 0.98338 0.74934 0.0
C1414 C 0.05 0.99383 0.73004 0.0
C1415 C 1.01154 0.98407 0.75012 0.0
C1416 C 0.99712 0.99501 0.7315 0.0
H1417 H 0.04821 0.97565 0.76454 0.0
H1418 H 1.00292 0.97762 0.76629 0.0
S1419 S 0.02028 0.02414 0.67668 0.0
N1420 N 0.04565 0.01474 0.6915 0.0
N1421 N 0.99667 0.01555 0.6929 0.0
C1422 C 1.00898 1.00407 0.71134 0.0
C1423 C 0.03547 1.00362 0.71063 0.0
C1424 C 0.69641 0.88831 0.32708 0.0
C1425 C 0.6712 0.88467 0.33307 0.0
C1426 C 0.70834 0.91253 0.32486 0.0
C1427 C 0.69547 0.93414 0.32807 0.0
H1428 H 0.70742 0.87241 0.32519 0.0
H1429 H 0.72831 0.91449 0.3226 0.0
S1430 S 0.62926 0.93554 0.34315 0.0
N1431 N 0.63393 0.90551 0.34189 0.0
N1432 N 0.65573 0.9502 0.33605 0.0
C1433 C 0.66975 0.93056 0.33207 0.0
C1434 C 0.65784 0.90616 0.33512 0.0
C1435 C 0.73399 0.02638 0.97768 0.0
C1436 C 0.7371 0.04485 0.99836 0.0
C1437 C 0.73481 1.00085 0.98146 0.0
C1438 C 0.73849 0.99339 1.00602 0.0
H1439 H 0.73168 0.03177 0.9586 0.0
H1440 H 0.73358 0.98708 0.96521 0.0
S1441 S 0.74445 0.03484 0.06612 0.0
N1442 N 0.74226 0.05416 0.04382 0.0
N1443 N 0.7424 1.0064 0.05118 0.0
C1444 C 0.73996 0.0118 0.02672 0.0
C1445 C 0.73971 0.03752 0.02282 0.0
C1446 C 0.24296 0.60112 0.69385 0.0
C1447 C 0.25115 0.62605 0.68958 0.0
C1448 C 0.25625 0.58072 0.68609 0.0
C1449 C 0.27849 0.58458 0.67427 0.0
H1450 H 0.2251 0.59709 0.70143 0.0
H1451 H 0.2478 0.5618 0.68715 0.0
S1452 S 0.31009 0.64582 0.66195 0.0
N1453 N 0.28449 0.65308 0.67473 0.0
N1454 N 0.3101 0.61514 0.66211 0.0
C1455 C 0.28855 0.60951 0.67298 0.0
C1456 C 0.27472 0.63014 0.68007 0.0
C1457 C 0.41797 0.5028 0.01364 0.0
C1458 C 0.41821 0.4855 0.03184 0.0
C1459 C 0.40452 0.52376 0.01667 0.0
C1460 C 0.39044 0.52706 0.03746 0.0
H1461 H 0.42555 0.49859 0.99577 0.0
H1462 H 0.40146 0.53465 1.0007 0.0
S1463 S 0.39302 0.49223 0.094 0.0
N1464 N 0.40972 0.47692 0.07429 0.0
N1465 N 0.38358 0.51619 0.07951 0.0
C1466 C 0.39465 0.51274 0.05774 0.0
C1467 C 0.40849 0.49156 0.05483 0.0
C1468 C 0.33311 0.65344 0.90234 0.0
C1469 C 0.33232 0.66773 0.88138 0.0
C1470 C 0.32981 0.66403 0.92666 0.0
C1471 C 0.32581 0.68951 0.93141 0.0
H1472 H 0.33796 0.63427 0.90038 0.0
H1473 H 0.33279 0.65275 0.94233 0.0
S1474 S 0.31844 0.73442 0.88312 0.0
N1475 N 0.3238 0.70814 0.86684 0.0
N1476 N 0.3189 0.72819 0.91289 0.0
C1477 C 0.32319 0.70359 0.91056 0.0
C1478 C 0.32628 0.69274 0.88557 0.0
C1479 C 0.97586 0.72763 0.03132 0.0
C1480 C 0.99633 0.72699 0.04969 0.0
C1481 C 0.97948 0.72679 1.00549 0.0
C1482 C 1.0037 0.72559 0.99756 0.0
H1483 H 0.95725 0.72997 0.03706 0.0
H1484 H 0.96366 0.72882 0.99194 0.0
S1485 S 0.0631 0.72296 0.03838 0.0
N1486 N 0.04126 0.72465 0.05822 0.0
N1487 N 0.04805 0.72227 1.00995 0.0
C1488 C 0.02394 0.72348 0.01577 0.0
C1489 C 0.02028 0.72451 0.04182 0.0
C1490 C 0.67696 0.27397 0.63179 0.0
C1491 C 0.6913 0.2535 0.62785 0.0
C1492 C 0.66799 0.28692 0.61173 0.0
C1493 C 0.67241 0.27976 0.58661 0.0
H1494 H 0.67087 0.27896 0.6502 0.0
H1495 H 0.65571 0.30146 0.61571 0.0
S1496 S 0.71453 0.23206 0.56687 0.0
N1497 N 0.71415 0.23035 0.59758 0.0
N1498 N 0.69608 0.25399 0.55958 0.0
C1499 C 0.68902 0.26126 0.58267 0.0
C1500 C 0.69859 0.24821 0.60331 0.0
C1501 C 0.03912 0.40795 0.49877 0.0
C1502 C 0.03732 0.39413 0.47485 0.0
C1503 C 0.03908 0.39576 0.52086 0.0
C1504 C 0.03812 0.36955 0.51958 0.0
H1505 H 0.03819 0.42809 0.50029 0.0
H1506 H 0.03663 0.40651 0.53845 0.0
S1507 S 0.03817 0.32509 0.46273 0.0
N1508 N 0.03751 0.35289 0.45187 0.0
N1509 N 0.04022 0.33056 0.49374 0.0
C1510 C 0.04091 0.35606 0.49642 0.0
C1511 C 0.03945 0.36816 0.4738 0.0
C1512 C 0.27145 0.58449 0.55365 0.0
C1513 C 0.29269 0.58427 0.53998 0.0
C1514 C 0.27041 0.57242 0.57586 0.0
C1515 C 0.29069 0.55987 0.58564 0.0
H1516 H 0.25589 0.59489 0.54773 0.0
H1517 H 0.25387 0.57377 0.586 0.0
S1518 S 0.34915 0.5508 0.55504 0.0
N1519 N 0.33308 0.56759 0.53604 0.0
N1520 N 0.33175 0.54623 0.5785 0.0
C1521 C 0.3114 0.55828 0.57136 0.0
C1522 C 0.3123 0.57025 0.54849 0.0
C1523 C 0.28332 0.46297 0.97608 0.0
C1524 C 0.29601 0.45512 0.95515 0.0
C1525 C 0.29183 0.48517 0.99158 0.0
C1526 C 0.31307 0.50037 0.98641 0.0
H1527 H 0.26715 0.45146 0.98098 0.0
H1528 H 0.28243 0.48992 1.00824 0.0
S1529 S 0.35239 0.48922 0.93371 0.0
N1530 N 0.33039 0.46523 0.92975 0.0
N1531 N 0.34636 0.50666 0.95904 0.0
C1532 C 0.32548 0.49318 0.96529 0.0
C1533 C 0.31701 0.47062 0.94964 0.0
C1534 C 0.68222 0.99311 0.43263 0.0
C1535 C 0.69703 0.01142 0.44897 0.0
C1536 C 0.68767 0.98848 0.40768 0.0
C1537 C 0.70923 1.00079 0.39861 0.0
H1538 H 0.66759 0.98105 0.43958 0.0
H1539 H 0.67516 0.97428 0.39604 0.0
S1540 S 0.74573 0.0586 0.43238 0.0
N1541 N 0.72732 0.048 0.45297 0.0
N1542 N 0.73916 0.0388 0.40678 0.0
C1543 C 0.72112 0.02228 0.41396 0.0
C1544 C 0.71467 0.02756 0.43903 0.0
C1545 C 0.80749 0.97129 0.09573 0.0
C1546 C 0.79362 0.96264 0.11483 0.0
C1547 C 0.80152 0.96119 0.07053 0.0
C1548 C 0.78074 0.94294 0.06348 0.0
H1549 H 0.82177 0.98709 0.09995 0.0
H1550 H 0.81173 0.96951 0.05624 0.0
S1551 S 0.744 0.90919 0.10826 0.0
N1552 N 0.76317 0.93054 0.12637 0.0
N1553 N 0.75032 0.9129 0.0791 0.0
C1554 C 0.76919 0.93191 0.08309 0.0
C1555 C 0.77587 0.94166 0.10872 0.0
C1556 C 0.55394 0.31114 0.58183 0.0
C1557 C 0.54039 0.28749 0.58246 0.0
C1558 C 0.57616 0.31367 0.56955 0.0
C1559 C 0.58538 0.2927 0.55709 0.0
H1560 H 0.54806 0.32757 0.59202 0.0
H1561 H 0.58698 0.33187 0.57109 0.0
S1562 S 0.5556 0.2272 0.55057 0.0
N1563 N 0.53679 0.24311 0.56733 0.0
N1564 N 0.57851 0.24793 0.54472 0.0
C1565 C 0.57131 0.26927 0.55638 0.0
C1566 C 0.54884 0.26665 0.56889 0.0
C1567 C 0.10934 0.76604 0.95351 0.0
C1568 C 0.11385 0.79022 0.96644 0.0
C1569 C 0.08479 0.75539 0.94546 0.0
C1570 C 0.06386 0.76848 0.95015 0.0
H1571 H 0.1249 0.75509 0.94992 0.0
H1572 H 0.08213 0.73618 0.93684 0.0
S1573 S 0.06526 0.83273 0.98209 0.0
N1574 N 0.0952 0.82732 0.98278 0.0
N1575 N 0.04904 0.80724 0.96727 0.0
C1576 C 0.06806 0.79304 0.96208 0.0
C1577 C 0.09305 0.80392 0.97034 0.0
C1578 C 0.96283 0.28601 0.47327 0.0
C1579 C 0.94277 0.29775 0.46203 0.0
C1580 C 0.97396 0.29431 0.49756 0.0
C1581 C 0.96575 0.31491 0.51144 0.0
H1582 H 0.97064 0.27079 0.4629 0.0
H1583 H 0.99041 0.28576 0.50474 0.0
S1584 S 0.91347 0.35171 0.49156 0.0
N1585 N 0.91416 0.33023 0.46758 0.0
N1586 N 0.93628 0.34661 0.51288 0.0
C1587 C 0.94538 0.32647 0.50088 0.0
C1588 C 0.93371 0.31781 0.47623 0.0
C1589 C 0.43966 0.71566 0.98612 0.0
C1590 C 0.44739 0.70222 1.00633 0.0
C1591 C 0.41444 0.71995 0.98116 0.0
C1592 C 0.39619 0.71116 0.99641 0.0
H1593 H 0.4533 0.72304 0.97418 0.0
H1594 H 0.40908 0.73006 0.96514 0.0
S1595 S 0.40679 0.67381 0.05086 0.0
N1596 N 0.43509 0.67941 0.04124 0.0
N1597 N 0.38727 0.68747 0.03188 0.0
C1598 C 0.40364 0.69749 0.0166 0.0
C1599 C 0.42941 0.69298 0.02156 0.0
C1600 C 0.5672 0.53997 0.27406 0.0
C1601 C 0.58841 0.53853 0.29143 0.0
C1602 C 0.55431 0.56179 0.27404 0.0
C1603 C 0.5619 0.58271 0.29168 0.0
H1604 H 0.56061 0.5242 0.2603 0.0
H1605 H 0.5389 0.56264 0.25963 0.0
S1606 S 0.61714 0.58953 0.3396 0.0
N1607 N 0.61726 0.561 0.32544 0.0
N1608 N 0.5923 0.60108 0.32617 0.0
C1609 C 0.58285 0.58143 0.30916 0.0
C1610 C 0.59627 0.55963 0.30884 0.0
C1611 C 0.9541 0.10798 0.76776 0.0
C1612 C 0.97383 0.11481 0.78703 0.0
C1613 C 0.9456 0.08281 0.76046 0.0
C1614 C 0.95635 0.06337 0.77228 0.0
H1615 H 0.9461 0.12221 0.75723 0.0
H1616 H 0.93191 0.07865 0.74408 0.0
S1617 S 1.0052 0.07149 0.8271 0.0
N1618 N 1.00181 0.10038 0.81994 0.0
N1619 N 0.98491 0.0529 0.80708 0.0
C1620 C 0.97427 0.07007 0.79338 0.0
C1621 C 0.98323 0.09582 0.80057 0.0
C1622 C 0.47713 0.94624 0.29052 0.0
C1623 C 0.45447 0.95766 0.28912 0.0
C1624 C 0.50033 0.96043 0.29797 0.0
C1625 C 0.50152 0.98645 0.30439 0.0
H1626 H 0.47678 0.92606 0.28665 0.0
H1627 H 0.51714 0.95073 0.30051 0.0
S1628 S 0.4477 0.02538 0.3026 0.0
N1629 N 0.43472 0.99655 0.29344 0.0
N1630 N 0.4783 0.02326 0.30779 0.0
C1631 C 0.4791 0.99822 0.30186 0.0
C1632 C 0.45554 0.98381 0.29418 0.0
C1633 C 0.02309 0.43211 0.70806 0.0
C1634 C 1.00352 0.44701 0.70226 0.0
C1635 C 0.01789 0.40707 0.71288 0.0
C1636 C 0.99289 0.39597 0.71193 0.0
H1637 H 0.04255 0.44001 0.70926 0.0
H1638 H 0.03367 0.39651 0.7174 0.0
S1639 S 0.93504 0.4284 0.7005 0.0
N1640 N 0.95839 0.44978 0.69738 0.0
N1641 N 0.94843 0.40295 0.70715 0.0
C1642 C 0.97318 0.41106 0.70675 0.0
C1643 C 0.97853 0.43645 0.7016 0.0
C1644 C 0.71841 0.458 0.47806 0.0
C1645 C 0.7365 0.44203 0.48619 0.0
C1646 C 0.71757 0.4668 0.45398 0.0
C1647 C 0.73514 0.46055 0.43698 0.0
H1648 H 0.70446 0.46365 0.4903 0.0
H1649 H 0.70262 0.47812 0.4485 0.0
S1650 S 0.78804 0.42132 0.44956 0.0
N1651 N 0.77268 0.42063 0.47493 0.0
N1652 N 0.77317 0.43963 0.43135 0.0
C1653 C 0.75427 0.44578 0.44542 0.0
C1654 C 0.75448 0.43599 0.46952 0.0
C1655 C 0.70712 0.54493 0.09384 0.0
C1656 C 0.72979 0.5573 0.08757 0.0
C1657 C 0.69615 0.52236 0.08018 0.0
C1658 C 0.7077 0.51101 0.06007 0.0
H1659 H 0.69788 0.55257 0.1096 0.0
H1660 H 0.67838 0.51384 0.08517 0.0
S1661 S 0.76457 0.53719 0.03323 0.0
N1662 N 0.76143 0.55755 0.05751 0.0
N1663 N 0.74127 0.51482 0.03282 0.0
C1664 C 0.72984 0.52334 0.05317 0.0
C1665 C 0.74075 0.5465 0.06664 0.0
C1666 C 0.3349 0.99494 0.57926 0.0
C1667 C 0.32563 1.00547 0.55757 0.0
C1668 C 0.32571 1.00083 0.60246 0.0
C1669 C 0.30715 0.01759 0.60465 0.0
H1670 H 0.3495 0.98225 0.57831 0.0
H1671 H 0.3337 0.99286 0.61897 0.0
S1672 S 0.27715 0.05052 0.55373 0.0
N1673 N 0.2971 0.03357 0.53971 0.0
N1674 N 0.27986 0.04468 0.58364 0.0
C1675 C 0.29764 0.02815 0.58318 0.0
C1676 C 0.30684 0.02203 0.5595 0.0
C1677 C 0.26155 0.05281 0.92329 0.0
C1678 C 0.23816 0.06027 0.91429 0.0
C1679 C 0.27118 0.05885 0.94852 0.0
C1680 C 0.25787 0.0728 0.96536 0.0
H1681 H 0.27204 0.04153 0.91097 0.0
H1682 H 0.28894 0.05223 0.95506 0.0
S1683 S 0.19669 0.09793 0.95109 0.0
N1684 N 0.20246 0.08323 0.92404 0.0
N1685 N 0.22085 0.09455 0.97161 0.0
C1686 C 0.23492 0.08099 0.95659 0.0
C1687 C 0.22497 0.07471 0.93097 0.0
C1688 C 0.48005 0.71705 0.4584 0.0
C1689 C 0.48775 0.73487 0.442 0.0
C1690 C 0.45641 0.71672 0.468 0.0
C1691 C 0.43949 0.73431 0.46177 0.0
H1692 H 0.49224 0.70291 0.46356 0.0
H1693 H 0.45103 0.702 0.47964 0.0
S1694 S 0.45128 0.78629 0.42129 0.0
N1695 N 0.47663 0.77098 0.42055 0.0
N1696 N 0.43333 0.77176 0.4401 0.0
C1697 C 0.44757 0.75311 0.4465 0.0
C1698 C 0.47135 0.75306 0.43628 0.0
C1699 C 0.93209 0.22707 0.07741 0.0
C1700 C 0.91596 0.23447 0.05768 0.0
C1701 C 0.95716 0.23758 0.08224 0.0
C1702 C 0.96696 0.25571 0.0674 0.0
H1703 H 0.92524 0.21308 0.08924 0.0
H1704 H 0.969 0.23136 0.09755 0.0
S1705 S 0.9325 0.28162 0.01364 0.0
N1706 N 0.9117 0.26076 0.02305 0.0
N1707 N 0.95844 0.28127 0.03272 0.0
C1708 C 0.95096 0.26343 0.04778 0.0
C1709 C 0.92554 0.25265 0.0428 0.0
C1710 C 0.07749 0.72628 0.51687 0.0
C1711 C 0.08582 0.71096 0.53561 0.0
C1712 C 0.06218 0.71619 0.49465 0.0
C1713 C 0.05496 0.69024 0.48982 0.0
H1714 H 0.08217 0.74642 0.51973 0.0
H1715 H 0.05455 0.72898 0.48206 0.0
S1716 S 0.07144 0.64169 0.53235 0.0
N1717 N 0.08483 0.66827 0.54758 0.0
N1718 N 0.05831 0.64932 0.5053 0.0
C1719 C 0.06458 0.6746 0.50763 0.0
C1720 C 0.07924 0.68489 0.53061 0.0
C1721 C 0.57709 0.33381 0.02687 0.0
C1722 C 0.56892 0.34502 1.00528 0.0
C1723 C 0.60262 0.33287 0.03367 0.0
C1724 C 0.62076 0.34305 0.01902 0.0
H1725 H 0.56358 0.32405 0.03745 0.0
H1726 H 0.6081 0.3223 0.04932 0.0
S1727 S 0.60903 0.37966 0.96439 0.0
N1728 N 0.58057 0.37039 0.97189 0.0
N1729 N 0.62925 0.36834 0.98466 0.0
C1730 C 0.61299 0.35652 0.99888 0.0
C1731 C 0.58678 0.35766 0.99204 0.0
C1732 C 0.43396 0.46229 0.71701 0.0
C1733 C 0.44386 0.48337 0.73375 0.0
C1734 C 0.44473 0.43942 0.71706 0.0
C1735 C 0.46604 0.4367 0.73362 0.0
H1736 H 0.41745 0.46334 0.70398 0.0
H1737 H 0.43605 0.42355 0.70433 0.0
S1738 S 0.49897 0.48538 0.78164 0.0
N1739 N 0.47625 0.49964 0.7676 0.0
N1740 N 0.49623 0.45642 0.7677 0.0
C1741 C 0.47615 0.45739 0.75048 0.0
C1742 C 0.46509 0.48073 0.75059 0.0
C1743 C 0.07316 0.90179 0.26056 0.0
C1744 C 0.05345 0.8925 0.24181 0.0
C1745 C 0.07993 0.92765 0.2664 0.0
C1746 C 0.06732 0.94546 0.25372 0.0
H1747 H 0.08291 0.88892 0.27152 0.0
H1748 H 0.09424 0.93371 0.28192 0.0
S1749 S 0.01722 0.93151 0.2004 0.0
N1750 N 0.02324 0.90358 0.20875 0.0
N1751 N 0.03645 0.95214 0.2194 0.0
C1752 C 0.04891 0.93656 0.23368 0.0
C1753 C 0.04193 0.91015 0.22773 0.0
C1754 C 0.55261 0.05456 0.74609 0.0
C1755 C 0.55999 0.07472 0.73222 0.0
C1756 C 0.5307 0.03843 0.73829 0.0
C1757 C 0.51546 0.04205 0.71646 0.0
H1758 H 0.56428 0.05073 0.76268 0.0
H1759 H 0.52638 0.02235 0.74859 0.0
S1760 S 0.5252 0.09239 0.67416 0.0
N1761 N 0.54921 0.09792 0.69623 0.0
N1762 N 0.50831 0.06731 0.68149 0.0
C1763 C 0.52205 0.06248 0.70289 0.0
C1764 C 0.5443 0.07883 0.71072 0.0
C1765 C 0.02883 0.6065 0.35711 0.0
C1766 C 0.02206 0.59189 0.33379 0.0
C1767 C 0.03386 0.63292 0.35828 0.0
C1768 C 0.03264 0.64544 0.33617 0.0
H1769 H 0.03071 0.59746 0.37443 0.0
H1770 H 0.03911 0.64354 0.37647 0.0
S1771 S 0.01653 0.61568 0.27062 0.0
N1772 N 1.01278 0.59239 0.28849 0.0
N1773 N 0.02673 0.64062 0.29033 0.0
C1774 C 0.02678 0.63082 0.31288 0.0
C1775 C 0.02015 0.60446 0.31181 0.0
C1776 C 0.44053 0.66361 0.36101 0.0
C1777 C 0.4172 0.66127 0.34587 0.0
C1778 C 0.46318 0.65805 0.35072 0.0
C1779 C 0.46329 0.64951 0.32498 0.0
H1780 H 0.44125 0.66959 0.38099 0.0
H1781 H 0.48045 0.65938 0.36321 0.0
S1782 S 0.40771 0.64012 0.27729 0.0
N1783 N 0.3962 0.65002 0.30362 0.0
N1784 N 0.43821 0.6393 0.28477 0.0
C1785 C 0.44025 0.64743 0.30976 0.0
C1786 C 0.41742 0.65338 0.32002 0.0
C1787 C 0.11477 0.28362 0.79216 0.0
C1788 C 0.13263 0.30479 0.79676 0.0
C1789 C 0.09056 0.28516 0.77982 0.0
C1790 C 0.08321 0.30776 0.77104 0.0
H1791 H 0.11986 0.26556 0.79734 0.0
H1792 H 0.07791 0.26809 0.77572 0.0
S1793 S 0.12515 0.36816 0.77698 0.0
N1794 N 0.14194 0.3488 0.79191 0.0
N1795 N 0.09831 0.35151 0.76656 0.0
C1796 C 0.10156 0.32901 0.77548 0.0
C1797 C 0.12563 0.32758 0.78901 0.0
C1798 C 0.83101 1.00542 0.66968 0.0
C1799 C 0.8089 0.99607 0.67958 0.0
C1800 C 0.85491 1.0049 0.68303 0.0
C1801 C 0.85726 0.99512 0.70667 0.0
H1802 H 0.82975 0.01413 0.65213 0.0
H1803 H 0.87141 0.01323 0.6754 0.0
S1804 S 0.80567 0.9646 0.73839 0.0
N1805 N 0.79138 0.97379 0.7126 0.0
N1806 N 0.83593 0.97345 0.73783 0.0
C1807 C 0.83547 0.98446 0.71586 0.0
C1808 C 0.81138 0.98474 0.70226 0.0
C1809 C 0.68451 0.03657 0.34764 0.0
C1810 C 0.6903 0.03857 0.32283 0.0
C1811 C 0.65976 0.03022 0.3527 0.0
C1812 C 0.63996 0.0268 0.33322 0.0
H1813 H 0.69923 0.03842 0.3631 0.0
H1814 H 0.65621 0.0273 0.37194 0.0
S1815 S 0.64495 0.03761 0.26614 0.0
N1816 N 0.6743 0.04165 0.27937 0.0
N1817 N 0.6273 0.03071 0.28888 0.0
C1818 C 0.64523 0.03166 0.30872 0.0
C1819 C 0.67061 0.03744 0.30353 0.0
C1820 C 0.34237 0.4286 0.67174 0.0
C1821 C 0.35257 0.41391 0.65269 0.0
C1822 C 0.33112 0.45074 0.66653 0.0
C1823 C 0.32919 0.45851 0.64193 0.0
H1824 H 0.34297 0.42285 0.6907 0.0
H1825 H 0.3232 0.4613 0.68159 0.0
S1826 S 0.35336 0.42673 0.58578 0.0
N1827 N 0.36054 0.40915 0.60871 0.0
N1828 N 0.33906 0.44989 0.59873 0.0
C1829 C 0.33962 0.44402 0.62299 0.0
C1830 C 0.35136 0.42196 0.62839 0.0
C1831 C 0.33173 0.67503 0.06223 0.0
C1832 C 0.3143 0.68175 0.04348 0.0
C1833 C 0.34131 0.65164 0.05978 0.0
C1834 C 0.33393 0.63456 0.03837 0.0
H1835 H 0.33818 0.68799 0.07873 0.0
H1836 H 0.35457 0.64687 0.07474 0.0
S1837 S 0.29246 0.64526 0.98175 0.0
N1838 N 0.29243 0.67071 1.00135 0.0
N1839 N 0.31057 0.62699 0.99681 0.0
C1840 C 0.31729 0.64146 0.01902 0.0
C1841 C 0.30741 0.66508 0.02158 0.0
C1842 C 0.7978 0.11182 0.29584 0.0
C1843 C 0.78655 0.13126 0.3085 0.0
C1844 C 0.78643 0.0869 0.29322 0.0
C1845 C 0.76425 0.07999 0.30433 0.0
H1846 H 0.81469 0.11612 0.28668 0.0
H1847 H 0.79423 0.07328 0.28106 0.0
S1848 S 0.72508 0.12538 0.3352 0.0
N1849 N 0.75069 0.14278 0.3299 0.0
N1850 N 0.72888 0.09651 0.32393 0.0
C1851 C 0.75211 0.09984 0.31567 0.0
C1852 C 0.76364 0.12514 0.3184 0.0
C1853 C 0.69084 0.81118 0.9781 0.0
C1854 C 0.67559 0.80715 0.99773 0.0
C1855 C 0.70416 0.83455 0.9767 0.0
C1856 C 0.70247 0.85487 0.99465 0.0
H1857 H 0.69313 0.79586 0.96415 0.0
H1858 H 0.7164 0.83658 0.96177 0.0
S1859 S 0.66473 0.85434 0.04952 0.0
N1860 N 0.65913 0.82552 0.0353 0.0
N1861 N 0.68395 0.86979 0.03241 0.0
C1862 C 0.68643 0.85152 0.01379 0.0
C1863 C 0.67299 0.82754 0.01537 0.0
C1864 C 0.6471 0.32101 0.41007 0.0
C1865 C 0.66041 0.34483 0.40992 0.0
C1866 C 0.64133 0.31132 0.4327 0.0
C1867 C 0.64906 0.32462 0.45643 0.0
H1868 H 0.64055 0.30989 0.3924 0.0
H1869 H 0.63055 0.29312 0.43156 0.0
S1870 S 0.68505 0.38756 0.46678 0.0
N1871 N 0.68145 0.38149 0.43575 0.0
N1872 N 0.67116 0.36297 0.47839 0.0
C1873 C 0.66286 0.34828 0.45673 0.0
C1874 C 0.66832 0.35845 0.4335 0.0
C1875 C 0.03384 0.34445 0.67985 0.0
C1876 C 0.04099 0.32167 0.68739 0.0
C1877 C 0.02609 0.34685 0.6547 0.0
C1878 C 0.02643 0.32681 0.63613 0.0
H1879 H 0.03257 0.36 0.69358 0.0
H1880 H 0.01916 0.36435 0.64986 0.0
S1881 S 0.05009 0.26516 0.64555 0.0
N1882 N 0.05226 0.28002 0.6742 0.0
N1883 N 0.03853 0.28466 0.62626 0.0
C1884 C 0.0362 0.30468 0.64299 0.0
C1885 C 0.04342 0.30209 0.66888 0.0
C1886 C 0.31082 0.75023 0.12527 0.0
C1887 C 0.31465 0.77617 0.13329 0.0
C1888 C 0.30627 0.74123 0.09947 0.0
C1889 C 0.30592 0.75761 0.08018 0.0
H1890 H 0.31074 0.73667 0.13912 0.0
H1891 H 0.30213 0.72121 0.09466 0.0
S1892 S 0.31512 0.82761 0.0913 0.0
N1893 N 0.31743 0.81819 0.11986 0.0
N1894 N 0.31037 0.80163 0.07197 0.0
C1895 C 0.31043 0.78367 0.08819 0.0
C1896 C 0.31462 0.79281 0.11444 0.0
C1897 C 0.98909 0.66435 0.82588 0.0
C1898 C 1.00292 0.67546 0.8078 0.0
C1899 C 0.9883 0.6769 0.85008 0.0
C1900 C 1.00113 0.70094 0.85663 0.0
H1901 H 0.978 0.64642 0.82094 0.0
H1902 H 0.9767 0.66832 0.8632 0.0
S1903 S 0.04348 0.73585 0.81786 0.0
N1904 N 0.03252 0.71009 0.79961 0.0
N1905 N 0.03032 0.73386 0.84448 0.0
C1906 C 0.01614 0.71139 0.83929 0.0
C1907 C 0.01724 0.69859 0.81502 0.0
C1908 C 0.60923 0.3708 0.70438 0.0
C1909 C 0.61462 0.37076 0.67892 0.0
C1910 C 0.58475 0.37364 0.71154 0.0
C1911 C 0.56467 0.37681 0.69355 0.0
H1912 H 0.62418 0.36926 0.71906 0.0
H1913 H 0.58176 0.3742 0.73136 0.0
S1914 S 0.5676 0.37511 0.62433 0.0
N1915 N 0.59669 0.37162 0.63558 0.0
N1916 N 0.55137 0.3779 0.6491 0.0
C1917 C 0.56959 0.37605 0.66808 0.0
C1918 C 0.59431 0.37281 0.66075 0.0
C1919 C 0.9375 0.73572 0.25127 0.0
C1920 C 0.91663 0.73524 0.26552 0.0
C1921 C 0.96283 0.73987 0.26277 0.0
C1922 C 0.96898 0.74225 0.28913 0.0
H1923 H 0.93406 0.73262 0.23095 0.0
H1924 H 0.97811 0.74045 0.25099 0.0
S1925 S 0.9223 0.76161 0.33263 0.0
N1926 N 0.90461 0.75002 0.30657 0.0
N1927 N 0.95188 0.75853 0.32712 0.0
C1928 C 0.94852 0.7477 0.30301 0.0
C1929 C 0.92253 0.74367 0.29146 0.0
C1930 C 0.19248 0.02316 0.3596 0.0
C1931 C 0.21267 0.01692 0.34589 0.0
C1932 C 0.16805 0.02232 0.34772 0.0
C1933 C 0.16305 0.01597 0.32165 0.0
H1934 H 0.19528 0.02702 0.37996 0.0
H1935 H 0.15272 0.02522 0.35925 0.0
S1936 S 0.20968 1.00192 0.27656 0.0
N1937 N 0.22645 1.00677 0.30438 0.0
N1938 N 0.18034 1.00618 0.28187 0.0
C1939 C 0.18331 0.01223 0.30726 0.0
C1940 C 0.20827 0.01258 0.31945 0.0
C1941 C 0.36603 1.00569 0.76567 0.0
C1942 C 0.34912 0.01423 0.74746 0.0
C1943 C 0.39044 1.00102 0.76023 0.0
C1944 C 0.39838 1.00402 0.73619 0.0
H1945 H 0.36023 1.00238 0.7841 0.0
H1946 H 0.40302 0.99453 0.77477 0.0
S1947 S 0.36063 0.02517 0.68179 0.0
N1948 N 0.34185 0.0253 0.70464 0.0
N1949 N 0.38725 0.01597 0.69402 0.0
C1950 C 0.38153 0.01243 0.71782 0.0
C1951 C 0.35698 0.01766 0.72357 0.0
C1952 C 0.69454 0.59975 0.3598 0.0
C1953 C 0.67836 0.61178 0.3755 0.0
C1954 C 0.70154 0.5754 0.36336 0.0
C1955 C 0.69254 0.56192 0.38273 0.0
H1956 H 0.7018 0.60917 0.34447 0.0
H1957 H 0.71402 0.56713 0.35085 0.0
S1958 S 0.65034 0.58454 0.42942 0.0
N1959 N 0.65435 0.60798 0.41174 0.0
N1960 N 0.66665 0.5624 0.41772 0.0
C1961 C 0.67626 0.57357 0.39833 0.0
C1962 C 0.66937 0.59833 0.39491 0.0
C1963 C 0.75325 0.35674 0.03354 0.0
C1964 C 0.74605 0.34158 1.01072 0.0
C1965 C 0.74716 0.3815 0.03689 0.0
C1966 C 0.73231 0.39188 0.0183 0.0
H1967 H 0.76305 0.34939 0.04946 0.0
H1968 H 0.75349 0.39242 0.0547 0.0
S1969 S 0.71123 0.36222 0.95365 0.0
N1970 N 0.72656 0.34094 0.96735 0.0
N1971 N 0.71216 0.38626 0.97532 0.0
C1972 C 0.72535 0.37749 0.99509 0.0
C1973 C 0.73285 0.35266 0.99097 0.0
C1974 C 0.2353 0.90798 0.67142 0.0
C1975 C 0.24626 0.89358 0.68959 0.0
C1976 C 0.24542 0.93262 0.66863 0.0
C1977 C 0.26667 0.94415 0.68411 0.0
H1978 H 0.21949 0.89975 0.65832 0.0
H1979 H 0.23715 0.94236 0.65351 0.0
S1980 S 0.30267 0.91541 0.73463 0.0
N1981 N 0.27935 0.89373 0.72412 0.0
N1982 N 0.29885 0.93925 0.71761 0.0
C1983 C 0.27762 0.93031 0.70252 0.0
C1984 C 0.26727 0.90532 0.70563 0.0
C1985 C 0.36386 0.19821 0.02922 0.0
C1986 C 0.34815 0.21229 0.01464 0.0
C1987 C 0.35659 0.17304 0.03234 0.0
C1988 C 0.33327 0.16135 0.02134 0.0
H1989 H 0.38197 0.20666 0.03816 0.0
H1990 H 0.36937 0.1626 0.04322 0.0
S1991 S 0.28576 0.18921 0.9806 0.0
N1992 N 0.30859 0.21213 0.98831 0.0
N1993 N 0.2947 0.16503 0.99498 0.0
C1994 C 0.31725 0.17511 1.00701 0.0
C1995 C 0.32474 0.2006 1.0035 0.0
C1996 C 0.36499 0.66165 0.59137 0.0
C1997 C 0.374 0.67921 0.61212 0.0
C1998 C 0.36613 0.66758 0.56631 0.0
C1999 C 0.37592 0.69145 0.56073 0.0
H2000 H 0.35691 0.64308 0.59445 0.0
H2001 H 0.35928 0.65328 0.55108 0.0
S2002 S 0.40312 0.74401 0.60774 0.0
N2003 N 0.3942 0.7214 0.62501 0.0
N2004 N 0.39533 0.73267 0.57804 0.0
C2005 C 0.38473 0.70935 0.58115 0.0
C2006 C 0.384 0.7032 0.60674 0.0
C2007 C 0.96819 0.641 0.31771 0.0
C2008 C 0.961 0.66456 0.31162 0.0
C2009 C 0.97304 0.63552 0.34311 0.0
C2010 C 0.97241 0.65386 0.36356 0.0
H2011 H 0.97142 0.62715 0.30269 0.0
H2012 H 0.97895 0.61733 0.34666 0.0
S2013 S 0.94663 0.71463 0.35924 0.0
N2014 N 0.9465 0.70334 0.32936 0.0
N2015 N 0.95802 0.69367 0.37654 0.0
C2016 C 0.96194 0.6759 0.35806 0.0
C2017 C 0.95575 0.6811 0.33225 0.0
C2018 C 0.69824 0.26349 0.91144 0.0
C2019 C 0.68482 0.24189 0.89774 0.0
C2020 C 0.69214 0.2727 0.93546 0.0
C2021 C 0.67272 0.26042 0.94722 0.0
H2022 H 0.71328 0.27386 0.90331 0.0
H2023 H 0.70198 0.29016 0.94418 0.0
S2024 S 0.63243 0.20277 0.9209 0.0
N2025 N 0.65124 0.20834 0.89876 0.0
N2026 N 0.64067 0.22528 0.94401 0.0
C2027 C 0.65974 0.23851 0.93431 0.0
C2028 C 0.66568 0.2292 0.90975 0.0
C2029 C 1.00383 0.36371 0.19415 0.0
C2030 C 0.01707 0.35403 0.21443 0.0
C2031 C 1.00344 0.35265 0.16944 0.0
C2032 C 0.01662 0.33174 0.16385 0.0
H2033 H 0.99288 0.37948 0.19747 0.0
H2034 H 0.99229 0.36031 0.15454 0.0
S2035 S 0.05506 0.29954 0.20988 0.0
N2036 N 0.04439 0.32255 0.22722 0.0
N2037 N 0.04378 0.30182 0.18041 0.0
C2038 C 0.03063 0.32216 0.18371 0.0
C2039 C 0.03075 0.33326 0.20911 0.0
loop_
_geom_bond_atom_site_label_1
_geom_bond_atom_site_label_2
_geom_bond_distance
_geom_bond_site_symmetry_2
_ccdc_geom_bond_type
C0 C1 1.264 . S
C0 C5 1.479 . S
C0 C10 1.465 . S
C1 C0 1.264 . S
C1 C3 1.339 . S
C1 H28 0.931 . S
C2 C3 1.395 . S
C2 C4 1.320 . S
C3 C1 1.339 . S
C3 C2 1.395 . S
C3 H29 0.929 . S
C4 C2 1.320 . S
C4 C5 1.405 . S
C4 H30 0.930 . S
C5 C0 1.479 . S
C5 C4 1.405 . S
C5 H31 0.931 . S
U6 O7 2.454 . S
U6 O8 2.458 . S
U6 C9 2.984 . S
U6 C10 2.847 . S
U6 C23 2.882 . S
U6 O24 2.441 . S
U6 O25 2.420 . S
U6 O26 2.455 . S
U6 O27 2.449 . S
O7 U6 2.454 . S
O7 C9 1.353 . S
O8 U6 2.458 . S
O8 C9 1.286 . S
C9 U6 2.984 . S
C9 O7 1.353 . S
C9 O8 1.286 . S
C9 C11 1.363 . S
C10 C0 1.465 . S
C10 U6 2.847 . S
C10 O24 1.249 . S
C10 O25 1.202 . S
C11 C9 1.363 . S
C11 C13 1.408 . S
C11 C16 1.342 . S
C12 C13 1.310 . S
C12 C15 1.461 . S
C12 H32 0.932 . S
C13 C11 1.408 . S
C13 C12 1.310 . S
C13 H33 0.930 . S
C14 C15 1.474 . S
C14 C16 1.285 . S
C14 H34 0.929 . S
C15 C12 1.461 . S
C15 C14 1.474 . S
C16 C11 1.342 . S
C16 C14 1.285 . S
C16 H35 0.930 . S
C17 C20 1.424 . S
C17 C22 1.245 . S
C17 C23 1.428 . S
C18 C21 1.260 . S
C18 C22 1.477 . S
C18 H36 0.932 . S
C19 C20 1.384 . S
C19 C21 1.479 . S
C19 H37 0.929 . S
C20 C17 1.424 . S
C20 C19 1.384 . S
C20 H38 0.928 . S
C21 C18 1.260 . S
C21 C19 1.479 . S
C22 C17 1.245 . S
C22 C18 1.477 . S
C22 H39 0.932 . S
C23 U6 2.882 . S
C23 C17 1.428 . S
C23 O26 1.301 . S
C23 O27 1.282 . S
O24 U6 2.441 . S
O24 C10 1.249 . S
O25 U6 2.420 . S
O25 C10 1.202 . S
O26 U6 2.455 . S
O26 C23 1.301 . S
O27 U6 2.449 . S
O27 C23 1.282 . S
H28 C1 0.931 . S
H29 C3 0.929 . S
H30 C4 0.930 . S
H31 C5 0.931 . S
H32 C12 0.932 . S
H33 C13 0.930 . S
H34 C14 0.929 . S
H35 C16 0.930 . S
H36 C18 0.932 . S
H37 C19 0.929 . S
H38 C20 0.928 . S
H39 C22 0.932 . S
C40 C41 1.264 . S
C40 C45 1.479 . S
C40 C50 1.465 . S
C41 C40 1.264 . S
C41 C43 1.339 . S
C41 H68 0.931 . S
C42 C43 1.395 . S
C42 C44 1.320 . S
C43 C41 1.339 . S
C43 C42 1.395 . S
C43 H69 0.929 . S
C44 C42 1.320 . S
C44 C45 1.405 . S
C44 H70 0.930 . S
C45 C40 1.479 . S
C45 C44 1.405 . S
C45 H71 0.931 . S
U46 O47 2.454 . S
U46 O48 2.458 . S
U46 C49 2.984 . S
U46 C50 2.847 . S
U46 C63 2.882 . S
U46 O64 2.441 . S
U46 O65 2.420 . S
U46 O66 2.455 . S
U46 O67 2.449 . S
O47 U46 2.454 . S
O47 C49 1.353 . S
O48 U46 2.458 . S
O48 C49 1.286 . S
C49 U46 2.984 . S
C49 O47 1.353 . S
C49 O48 1.286 . S
C49 C51 1.363 . S
C50 C40 1.465 . S
C50 U46 2.847 . S
C50 O64 1.249 . S
C50 O65 1.202 . S
C51 C49 1.363 . S
C51 C53 1.408 . S
C51 C56 1.342 . S
C52 C53 1.310 . S
C52 C55 1.461 . S
C52 H72 0.932 . S
C53 C51 1.408 . S
C53 C52 1.310 . S
C53 H73 0.930 . S
C54 C55 1.474 . S
C54 C56 1.285 . S
C54 H74 0.929 . S
C55 C52 1.461 . S
C55 C54 1.474 . S
C56 C51 1.342 . S
C56 C54 1.285 . S
C56 H75 0.930 . S
C57 C60 1.424 . S
C57 C62 1.245 . S
C57 C63 1.428 . S
C58 C61 1.260 . S
C58 C62 1.477 . S
C58 H76 0.932 . S
C59 C60 1.384 . S
C59 C61 1.479 . S
C59 H77 0.929 . S
C60 C57 1.424 . S
C60 C59 1.384 . S
C60 H78 0.928 . S
C61 C58 1.260 . S
C61 C59 1.479 . S
C62 C57 1.245 . S
C62 C58 1.477 . S
C62 H79 0.932 . S
C63 U46 2.882 . S
C63 C57 1.428 . S
C63 O66 1.301 . S
C63 O67 1.282 . S
O64 U46 2.441 . S
O64 C50 1.249 . S
O65 U46 2.420 . S
O65 C50 1.202 . S
O66 U46 2.455 . S
O66 C63 1.301 . S
O67 U46 2.449 . S
O67 C63 1.282 . S
H68 C41 0.931 . S
H69 C43 0.929 . S
H70 C44 0.930 . S
H71 C45 0.931 . S
H72 C52 0.932 . S
H73 C53 0.930 . S
H74 C54 0.929 . S
H75 C56 0.930 . S
H76 C58 0.932 . S
H77 C59 0.929 . S
H78 C60 0.928 . S
H79 C62 0.932 . S
C80 C81 1.264 . S
C80 C85 1.479 . S
C80 C90 1.465 . S
C81 C80 1.264 . S
C81 C83 1.339 . S
C81 H108 0.931 . S
C82 C83 1.395 . S
C82 C84 1.320 . S
C83 C81 1.339 . S
C83 C82 1.395 . S
C83 H109 0.929 . S
C84 C82 1.320 . S
C84 C85 1.405 . S
C84 H110 0.925 1_565 S
C85 C80 1.479 . S
C85 C84 1.405 . S
C85 H111 0.931 . S
U86 O87 2.454 . S
U86 O88 2.458 . S
U86 C89 2.984 . S
U86 C90 2.847 . S
U86 C103 2.882 . S
U86 O104 2.441 . S
U86 O105 2.420 . S
U86 O106 2.455 . S
U86 O107 2.449 . S
O87 U86 2.454 . S
O87 C89 1.353 . S
O88 U86 2.458 . S
O88 C89 1.286 . S
C89 U86 2.984 . S
C89 O87 1.353 . S
C89 O88 1.286 . S
C89 C91 1.363 . S
C90 C80 1.465 . S
C90 U86 2.847 . S
C90 O104 1.249 . S
C90 O105 1.202 . S
C91 C89 1.363 . S
C91 C93 1.408 . S
C91 C96 1.342 . S
C92 C93 1.310 . S
C92 C95 1.462 . S
C92 H112 0.932 . S
C93 C91 1.408 . S
C93 C92 1.310 . S
C93 H113 0.930 . S
C94 C95 1.473 1_545 S
C94 C96 1.284 1_545 S
C94 H114 0.932 . S
C95 C92 1.462 . S
C95 C94 1.473 1_565 S
C96 C91 1.342 . S
C96 C94 1.284 1_565 S
C96 H115 0.936 . S
C97 C100 1.424 . S
C97 C102 1.245 . S
C97 C103 1.428 . S
C98 C101 1.260 . S
C98 C102 1.477 . S
C98 H116 0.932 . S
C99 C100 1.384 . S
C99 C101 1.479 . S
C99 H117 0.929 . S
C100 C97 1.424 . S
C100 C99 1.384 . S
C100 H118 0.928 . S
C101 C98 1.260 . S
C101 C99 1.479 . S
C102 C97 1.245 . S
C102 C98 1.477 . S
C102 H119 0.932 . S
C103 U86 2.882 . S
C103 C97 1.428 . S
C103 O106 1.301 . S
C103 O107 1.282 . S
O104 U86 2.441 . S
O104 C90 1.249 . S
O105 U86 2.420 . S
O105 C90 1.202 . S
O106 U86 2.455 . S
O106 C103 1.301 . S
O107 U86 2.449 . S
O107 C103 1.282 . S
H108 C81 0.931 . S
H109 C83 0.929 . S
H110 C84 0.925 1_545 S
H111 C85 0.931 . S
H112 C92 0.932 . S
H113 C93 0.930 . S
H114 C94 0.932 . S
H115 C96 0.936 . S
H116 C98 0.932 . S
H117 C99 0.929 . S
H118 C100 0.928 . S
H119 C102 0.932 . S
C120 C121 1.264 . S
C120 C125 1.479 . S
C120 C130 1.465 . S
C121 C120 1.264 . S
C121 C123 1.339 . S
C121 H148 0.931 . S
C122 C123 1.395 . S
C122 C124 1.320 . S
C123 C121 1.339 . S
C123 C122 1.395 . S
C123 H149 0.929 . S
C124 C122 1.320 . S
C124 C125 1.405 . S
C124 H150 0.930 . S
C125 C120 1.479 . S
C125 C124 1.405 . S
C125 H151 0.931 . S
U126 O127 2.454 . S
U126 O128 2.458 . S
U126 C129 2.984 . S
U126 C130 2.847 . S
U126 C143 2.882 . S
U126 O144 2.441 . S
U126 O145 2.420 . S
U126 O146 2.455 . S
U126 O147 2.449 . S
O127 U126 2.454 . S
O127 C129 1.353 . S
O128 U126 2.458 . S
O128 C129 1.286 . S
C129 U126 2.984 . S
C129 O127 1.353 . S
C129 O128 1.286 . S
C129 C131 1.363 . S
C130 C120 1.465 . S
C130 U126 2.847 . S
C130 O144 1.249 . S
C130 O145 1.202 . S
C131 C129 1.363 . S
C131 C133 1.408 . S
C131 C136 1.342 . S
C132 C133 1.310 . S
C132 C135 1.461 . S
C132 H152 0.932 . S
C133 C131 1.408 . S
C133 C132 1.310 . S
C133 H153 0.930 . S
C134 C135 1.474 . S
C134 C136 1.285 . S
C134 H154 0.929 . S
C135 C132 1.461 . S
C135 C134 1.474 . S
C136 C131 1.342 . S
C136 C134 1.285 . S
C136 H155 0.930 . S
C137 C140 1.424 . S
C137 C142 1.245 . S
C137 C143 1.428 1_565 S
C138 C141 1.260 . S
C138 C142 1.477 . S
C138 H156 0.932 . S
C139 C140 1.384 . S
C139 C141 1.479 . S
C139 H157 0.929 . S
C140 C137 1.424 . S
C140 C139 1.384 . S
C140 H158 0.928 . S
C141 C138 1.260 . S
C141 C139 1.479 . S
C142 C137 1.245 . S
C142 C138 1.477 . S
C142 H159 0.932 . S
C143 U126 2.882 . S
C143 C137 1.428 1_545 S
C143 O146 1.301 . S
C143 O147 1.282 . S
O144 U126 2.441 . S
O144 C130 1.249 . S
O145 U126 2.420 . S
O145 C130 1.202 . S
O146 U126 2.455 . S
O146 C143 1.301 . S
O147 U126 2.449 . S
O147 C143 1.282 . S
H148 C121 0.931 . S
H149 C123 0.929 . S
H150 C124 0.930 . S
H151 C125 0.931 . S
H152 C132 0.932 . S
H153 C133 0.930 . S
H154 C134 0.929 . S
H155 C136 0.930 . S
H156 C138 0.932 . S
H157 C139 0.929 . S
H158 C140 0.928 . S
H159 C142 0.932 . S
C160 C161 1.264 . S
C160 C165 1.479 . S
C160 C170 1.465 . S
C161 C160 1.264 . S
C161 C163 1.339 . S
C161 H188 0.931 . S
C162 C163 1.395 . S
C162 C164 1.320 . S
C163 C161 1.339 . S
C163 C162 1.395 . S
C163 H189 0.929 . S
C164 C162 1.320 . S
C164 C165 1.405 . S
C164 H190 0.930 . S
C165 C160 1.479 . S
C165 C164 1.405 . S
C165 H191 0.931 . S
U166 O167 2.454 . S
U166 O168 2.458 . S
U166 C169 2.984 . S
U166 C170 2.847 . S
U166 C183 2.882 . S
U166 O184 2.441 . S
U166 O185 2.420 . S
U166 O186 2.455 . S
U166 O187 2.449 . S
O167 U166 2.454 . S
O167 C169 1.353 . S
O168 U166 2.458 . S
O168 C169 1.286 . S
C169 U166 2.984 . S
C169 O167 1.353 . S
C169 O168 1.286 . S
C169 C171 1.363 . S
C170 C160 1.465 . S
C170 U166 2.847 . S
C170 O184 1.249 . S
C170 O185 1.202 . S
C171 C169 1.363 . S
C171 C173 1.408 . S
C171 C176 1.342 . S
C172 C173 1.310 . S
C172 C175 1.461 . S
C172 H192 0.932 . S
C173 C171 1.408 . S
C173 C172 1.310 . S
C173 H193 0.930 . S
C174 C175 1.474 . S
C174 C176 1.285 . S
C174 H194 0.929 . S
C175 C172 1.461 . S
C175 C174 1.474 . S
C176 C171 1.342 . S
C176 C174 1.285 . S
C176 H195 0.930 . S
C177 C180 1.424 . S
C177 C182 1.245 . S
C177 C183 1.428 . S
C178 C181 1.260 . S
C178 C182 1.477 . S
C178 H196 0.932 . S
C179 C180 1.384 . S
C179 C181 1.479 . S
C179 H197 0.929 . S
C180 C177 1.424 . S
C180 C179 1.384 . S
C180 H198 0.928 . S
C181 C178 1.260 . S
C181 C179 1.479 . S
C182 C177 1.245 . S
C182 C178 1.477 . S
C182 H199 0.932 . S
C183 U166 2.882 . S
C183 C177 1.428 . S
C183 O186 1.301 . S
C183 O187 1.282 . S
O184 U166 2.441 . S
O184 C170 1.249 . S
O185 U166 2.420 . S
O185 C170 1.202 . S
O186 U166 2.455 . S
O186 C183 1.301 . S
O187 U166 2.449 . S
O187 C183 1.282 . S
H188 C161 0.931 . S
H189 C163 0.929 . S
H190 C164 0.930 . S
H191 C165 0.931 . S
H192 C172 0.932 . S
H193 C173 0.930 . S
H194 C174 0.929 . S
H195 C176 0.930 . S
H196 C178 0.932 . S
H197 C179 0.929 . S
H198 C180 0.928 . S
H199 C182 0.932 . S
C200 C201 1.264 . S
C200 C205 1.479 . S
C200 C210 1.465 . S
C201 C200 1.264 . S
C201 C203 1.339 . S
C201 H228 0.931 . S
C202 C203 1.395 . S
C202 C204 1.320 . S
C203 C201 1.339 . S
C203 C202 1.395 . S
C203 H229 0.929 . S
C204 C202 1.320 . S
C204 C205 1.405 . S
C204 H230 0.930 . S
C205 C200 1.479 . S
C205 C204 1.405 . S
C205 H231 0.931 . S
U206 O207 2.454 . S
U206 O208 2.458 . S
U206 C209 2.984 . S
U206 C210 2.847 . S
U206 C223 2.882 . S
U206 O224 2.441 . S
U206 O225 2.420 . S
U206 O226 2.455 . S
U206 O227 2.449 . S
O207 U206 2.454 . S
O207 C209 1.353 . S
O208 U206 2.458 . S
O208 C209 1.286 . S
C209 U206 2.984 . S
C209 O207 1.353 . S
C209 O208 1.286 . S
C209 C211 1.363 . S
C210 C200 1.465 . S
C210 U206 2.847 . S
C210 O224 1.249 . S
C210 O225 1.202 . S
C211 C209 1.363 . S
C211 C213 1.408 . S
C211 C216 1.342 . S
C212 C213 1.310 . S
C212 C215 1.461 . S
C212 H232 0.932 . S
C213 C211 1.408 . S
C213 C212 1.310 . S
C213 H233 0.930 . S
C214 C215 1.474 . S
C214 C216 1.285 . S
C214 H234 0.929 . S
C215 C212 1.461 . S
C215 C214 1.474 . S
C216 C211 1.342 . S
C216 C214 1.285 . S
C216 H235 0.930 . S
C217 C220 1.424 . S
C217 C222 1.245 . S
C217 C223 1.428 1_556 S
C218 C221 1.260 . S
C218 C222 1.477 . S
C218 H236 0.932 . S
C219 C220 1.384 . S
C219 C221 1.479 . S
C219 H237 0.929 . S
C220 C217 1.424 . S
C220 C219 1.384 . S
C220 H238 0.928 . S
C221 C218 1.260 . S
C221 C219 1.479 . S
C222 C217 1.245 . S
C222 C218 1.477 . S
C222 H239 0.932 . S
C223 U206 2.882 . S
C223 C217 1.428 1_554 S
C223 O226 1.301 . S
C223 O227 1.282 . S
O224 U206 2.441 . S
O224 C210 1.249 . S
O225 U206 2.420 . S
O225 C210 1.202 . S
O226 U206 2.455 . S
O226 C223 1.301 . S
O227 U206 2.449 . S
O227 C223 1.282 . S
H228 C201 0.931 . S
H229 C203 0.929 . S
H230 C204 0.930 . S
H231 C205 0.931 . S
H232 C212 0.932 . S
H233 C213 0.930 . S
H234 C214 0.929 . S
H235 C216 0.930 . S
H236 C218 0.932 . S
H237 C219 0.929 . S
H238 C220 0.928 . S
H239 C222 0.932 . S
C240 C241 1.264 . S
C240 C245 1.479 . S
C240 C250 1.465 . S
C241 C240 1.264 . S
C241 C243 1.339 . S
C241 H268 0.931 . S
C242 C243 1.395 . S
C242 C244 1.320 . S
C243 C241 1.339 . S
C243 C242 1.395 . S
C243 H269 0.929 . S
C244 C242 1.320 . S
C244 C245 1.405 . S
C244 H270 0.930 . S
C245 C240 1.479 . S
C245 C244 1.405 . S
C245 H271 0.931 . S
U246 O247 2.454 . S
U246 O248 2.458 . S
U246 C249 2.984 . S
U246 C250 2.847 . S
U246 C263 2.882 . S
U246 O264 2.441 . S
U246 O265 2.420 . S
U246 O266 2.455 . S
U246 O267 2.449 . S
O247 U246 2.454 . S
O247 C249 1.353 . S
O248 U246 2.458 . S
O248 C249 1.286 . S
C249 U246 2.984 . S
C249 O247 1.353 . S
C249 O248 1.286 . S
C249 C251 1.363 . S
C250 C240 1.465 . S
C250 U246 2.847 . S
C250 O264 1.249 . S
C250 O265 1.202 . S
C251 C249 1.363 . S
C251 C253 1.408 . S
C251 C256 1.342 . S
C252 C253 1.310 . S
C252 C255 1.461 . S
C252 H272 0.932 . S
C253 C251 1.408 . S
C253 C252 1.310 . S
C253 H273 0.930 . S
C254 C255 1.474 . S
C254 C256 1.285 . S
C254 H274 0.929 . S
C255 C252 1.461 . S
C255 C254 1.474 . S
C256 C251 1.342 . S
C256 C254 1.285 . S
C256 H275 0.930 . S
C257 C260 1.424 . S
C257 C262 1.245 . S
C257 C263 1.428 . S
C258 C261 1.260 . S
C258 C262 1.477 . S
C258 H276 0.932 . S
C259 C260 1.384 . S
C259 C261 1.479 . S
C259 H277 0.929 . S
C260 C257 1.424 . S
C260 C259 1.384 . S
C260 H278 0.928 . S
C261 C258 1.260 . S
C261 C259 1.479 . S
C262 C257 1.245 . S
C262 C258 1.477 . S
C262 H279 0.932 . S
C263 U246 2.882 . S
C263 C257 1.428 . S
C263 O266 1.301 . S
C263 O267 1.282 . S
O264 U246 2.441 . S
O264 C250 1.249 . S
O265 U246 2.420 . S
O265 C250 1.202 . S
O266 U246 2.455 . S
O266 C263 1.301 . S
O267 U246 2.449 . S
O267 C263 1.282 . S
H268 C241 0.931 . S
H269 C243 0.929 . S
H270 C244 0.930 . S
H271 C245 0.931 . S
H272 C252 0.932 . S
H273 C253 0.930 . S
H274 C254 0.929 . S
H275 C256 0.930 . S
H276 C258 0.932 . S
H277 C259 0.929 . S
H278 C260 0.928 . S
H279 C262 0.932 . S
C280 C281 1.264 . S
C280 C285 1.479 . S
C280 C290 1.465 . S
C281 C280 1.264 . S
C281 C283 1.339 . S
C281 H308 0.931 . S
C282 C283 1.395 . S
C282 C284 1.320 . S
C283 C281 1.339 . S
C283 C282 1.395 . S
C283 H309 0.929 . S
C284 C282 1.320 . S
C284 C285 1.405 . S
C284 H310 0.925 1_556 S
C285 C280 1.479 . S
C285 C284 1.405 . S
C285 H311 0.931 . S
U286 O287 2.454 . S
U286 O288 2.458 . S
U286 C289 2.984 . S
U286 C290 2.847 . S
U286 C303 2.882 . S
U286 O304 2.441 . S
U286 O305 2.420 . S
U286 O306 2.455 . S
U286 O307 2.449 . S
O287 U286 2.454 . S
O287 C289 1.353 . S
O288 U286 2.458 . S
O288 C289 1.286 . S
C289 U286 2.984 . S
C289 O287 1.353 . S
C289 O288 1.286 . S
C289 C291 1.363 . S
C290 C280 1.465 . S
C290 U286 2.847 . S
C290 O304 1.249 . S
C290 O305 1.202 . S
C291 C289 1.363 . S
C291 C293 1.408 . S
C291 C296 1.342 . S
C292 C293 1.310 . S
C292 C295 1.462 . S
C292 H312 0.932 . S
C293 C291 1.408 . S
C293 C292 1.310 . S
C293 H313 0.930 . S
C294 C295 1.473 1_554 S
C294 C296 1.284 1_554 S
C294 H314 0.932 . S
C295 C292 1.462 . S
C295 C294 1.473 1_556 S
C296 C291 1.342 . S
C296 C294 1.284 1_556 S
C296 H315 0.936 . S
C297 C300 1.424 . S
C297 C302 1.245 . S
C297 C303 1.428 . S
C298 C301 1.260 . S
C298 C302 1.477 . S
C298 H316 0.932 . S
C299 C300 1.384 . S
C299 C301 1.479 . S
C299 H317 0.929 . S
C300 C297 1.424 . S
C300 C299 1.384 . S
C300 H318 0.928 . S
C301 C298 1.260 . S
C301 C299 1.479 . S
C302 C297 1.245 . S
C302 C298 1.477 . S
C302 H319 0.932 . S
C303 U286 2.882 . S
C303 C297 1.428 . S
C303 O306 1.301 . S
C303 O307 1.282 . S
O304 U286 2.441 . S
O304 C290 1.249 . S
O305 U286 2.420 . S
O305 C290 1.202 . S
O306 U286 2.455 . S
O306 C303 1.301 . S
O307 U286 2.449 . S
O307 C303 1.282 . S
H308 C281 0.931 . S
H309 C283 0.929 . S
H310 C284 0.925 1_554 S
H311 C285 0.931 . S
H312 C292 0.932 . S
H313 C293 0.930 . S
H314 C294 0.932 . S
H315 C296 0.936 . S
H316 C298 0.932 . S
H317 C299 0.929 . S
H318 C300 0.928 . S
H319 C302 0.932 . S
C320 C321 1.264 . S
C320 C325 1.479 . S
C320 C330 1.465 . S
C321 C320 1.264 . S
C321 C323 1.339 . S
C321 H348 0.931 . S
C322 C323 1.395 . S
C322 C324 1.320 . S
C323 C321 1.339 . S
C323 C322 1.395 . S
C323 H349 0.929 . S
C324 C322 1.320 . S
C324 C325 1.405 . S
C324 H350 0.930 . S
C325 C320 1.479 . S
C325 C324 1.405 . S
C325 H351 0.931 . S
U326 O327 2.454 . S
U326 O328 2.458 . S
U326 C329 2.984 . S
U326 C330 2.847 . S
U326 C343 2.882 . S
U326 O344 2.441 . S
U326 O345 2.420 . S
U326 O346 2.455 . S
U326 O347 2.449 . S
O327 U326 2.454 . S
O327 C329 1.353 . S
O328 U326 2.458 . S
O328 C329 1.286 . S
C329 U326 2.984 . S
C329 O327 1.353 . S
C329 O328 1.286 . S
C329 C331 1.363 . S
C330 C320 1.465 . S
C330 U326 2.847 . S
C330 O344 1.249 . S
C330 O345 1.202 . S
C331 C329 1.363 . S
C331 C333 1.408 . S
C331 C336 1.342 . S
C332 C333 1.310 . S
C332 C335 1.461 . S
C332 H352 0.932 . S
C333 C331 1.408 . S
C333 C332 1.310 . S
C333 H353 0.930 . S
C334 C335 1.474 . S
C334 C336 1.285 . S
C334 H354 0.929 . S
C335 C332 1.461 . S
C335 C334 1.474 . S
C336 C331 1.342 . S
C336 C334 1.285 . S
C336 H355 0.930 . S
C337 C340 1.424 . S
C337 C342 1.245 . S
C337 C343 1.428 . S
C338 C341 1.260 . S
C338 C342 1.477 . S
C338 H356 0.932 . S
C339 C340 1.384 . S
C339 C341 1.479 . S
C339 H357 0.929 . S
C340 C337 1.424 . S
C340 C339 1.384 . S
C340 H358 0.928 . S
C341 C338 1.260 . S
C341 C339 1.479 . S
C342 C337 1.245 . S
C342 C338 1.477 . S
C342 H359 0.932 . S
C343 U326 2.882 . S
C343 C337 1.428 . S
C343 O346 1.301 . S
C343 O347 1.282 . S
O344 U326 2.441 . S
O344 C330 1.249 . S
O345 U326 2.420 . S
O345 C330 1.202 . S
O346 U326 2.455 . S
O346 C343 1.301 . S
O347 U326 2.449 . S
O347 C343 1.282 . S
H348 C321 0.931 . S
H349 C323 0.929 . S
H350 C324 0.930 . S
H351 C325 0.931 . S
H352 C332 0.932 . S
H353 C333 0.930 . S
H354 C334 0.929 . S
H355 C336 0.930 . S
H356 C338 0.932 . S
H357 C339 0.929 . S
H358 C340 0.928 . S
H359 C342 0.932 . S
C360 C361 1.264 . S
C360 C365 1.479 . S
C360 C370 1.465 . S
C361 C360 1.264 . S
C361 C363 1.339 . S
C361 H388 0.931 . S
C362 C363 1.395 . S
C362 C364 1.320 . S
C363 C361 1.339 . S
C363 C362 1.395 . S
C363 H389 0.929 . S
C364 C362 1.320 . S
C364 C365 1.405 . S
C364 H390 0.930 . S
C365 C360 1.479 . S
C365 C364 1.405 . S
C365 H391 0.931 . S
U366 O367 2.454 . S
U366 O368 2.458 . S
U366 C369 2.984 . S
U366 C370 2.847 . S
U366 C383 2.882 . S
U366 O384 2.441 . S
U366 O385 2.420 . S
U366 O386 2.455 . S
U366 O387 2.449 . S
O367 U366 2.454 . S
O367 C369 1.353 . S
O368 U366 2.458 . S
O368 C369 1.286 . S
C369 U366 2.984 . S
C369 O367 1.353 . S
C369 O368 1.286 . S
C369 C371 1.363 . S
C370 C360 1.465 . S
C370 U366 2.847 . S
C370 O384 1.249 . S
C370 O385 1.202 . S
C371 C369 1.363 . S
C371 C373 1.408 . S
C371 C376 1.342 . S
C372 C373 1.310 . S
C372 C375 1.461 . S
C372 H392 0.932 . S
C373 C371 1.408 . S
C373 C372 1.310 . S
C373 H393 0.930 . S
C374 C375 1.474 . S
C374 C376 1.285 . S
C374 H394 0.929 . S
C375 C372 1.461 . S
C375 C374 1.474 . S
C376 C371 1.342 . S
C376 C374 1.285 . S
C376 H395 0.930 . S
C377 C380 1.424 . S
C377 C382 1.245 . S
C377 C383 1.428 1_655 S
C378 C381 1.260 . S
C378 C382 1.477 . S
C378 H396 0.932 . S
C379 C380 1.384 . S
C379 C381 1.479 . S
C379 H397 0.929 . S
C380 C377 1.424 . S
C380 C379 1.384 . S
C380 H398 0.928 . S
C381 C378 1.260 . S
C381 C379 1.479 . S
C382 C377 1.245 . S
C382 C378 1.477 . S
C382 H399 0.932 . S
C383 U366 2.882 . S
C383 C377 1.428 1_455 S
C383 O386 1.301 . S
C383 O387 1.282 . S
O384 U366 2.441 . S
O384 C370 1.249 . S
O385 U366 2.420 . S
O385 C370 1.202 . S
O386 U366 2.455 . S
O386 C383 1.301 . S
O387 U366 2.449 . S
O387 C383 1.282 . S
H388 C361 0.931 . S
H389 C363 0.929 . S
H390 C364 0.930 . S
H391 C365 0.931 . S
H392 C372 0.932 . S
H393 C373 0.930 . S
H394 C374 0.929 . S
H395 C376 0.930 . S
H396 C378 0.932 . S
H397 C379 0.929 . S
H398 C380 0.928 . S
H399 C382 0.932 . S
C400 C401 1.264 . S
C400 C405 1.479 . S
C400 C410 1.465 . S
C401 C400 1.264 . S
C401 C403 1.339 . S
C401 H428 0.931 . S
C402 C403 1.395 . S
C402 C404 1.320 . S
C403 C401 1.339 . S
C403 C402 1.395 . S
C403 H429 0.929 . S
C404 C402 1.320 . S
C404 C405 1.405 . S
C404 H430 0.930 . S
C405 C400 1.479 . S
C405 C404 1.405 . S
C405 H431 0.931 . S
U406 O407 2.454 . S
U406 O408 2.458 . S
U406 C409 2.984 . S
U406 C410 2.847 . S
U406 C423 2.882 . S
U406 O424 2.441 . S
U406 O425 2.420 . S
U406 O426 2.455 . S
U406 O427 2.449 . S
O407 U406 2.454 . S
O407 C409 1.353 . S
O408 U406 2.458 . S
O408 C409 1.286 . S
C409 U406 2.984 . S
C409 O407 1.353 . S
C409 O408 1.286 . S
C409 C411 1.363 . S
C410 C400 1.465 . S
C410 U406 2.847 . S
C410 O424 1.249 . S
C410 O425 1.202 . S
C411 C409 1.363 . S
C411 C413 1.408 . S
C411 C416 1.342 . S
C412 C413 1.310 . S
C412 C415 1.461 . S
C412 H432 0.932 . S
C413 C411 1.408 . S
C413 C412 1.310 . S
C413 H433 0.930 . S
C414 C415 1.474 . S
C414 C416 1.285 . S
C414 H434 0.929 . S
C415 C412 1.461 . S
C415 C414 1.474 . S
C416 C411 1.342 . S
C416 C414 1.285 . S
C416 H435 0.930 . S
C417 C420 1.424 . S
C417 C422 1.245 . S
C417 C423 1.428 . S
C418 C421 1.260 . S
C418 C422 1.477 . S
C418 H436 0.932 . S
C419 C420 1.384 . S
C419 C421 1.479 . S
C419 H437 0.929 . S
C420 C417 1.424 . S
C420 C419 1.384 . S
C420 H438 0.928 . S
C421 C418 1.260 . S
C421 C419 1.479 . S
C422 C417 1.245 . S
C422 C418 1.477 . S
C422 H439 0.932 . S
C423 U406 2.882 . S
C423 C417 1.428 . S
C423 O426 1.301 . S
C423 O427 1.282 . S
O424 U406 2.441 . S
O424 C410 1.249 . S
O425 U406 2.420 . S
O425 C410 1.202 . S
O426 U406 2.455 . S
O426 C423 1.301 . S
O427 U406 2.449 . S
O427 C423 1.282 . S
H428 C401 0.931 . S
H429 C403 0.929 . S
H430 C404 0.930 . S
H431 C405 0.931 . S
H432 C412 0.932 . S
H433 C413 0.930 . S
H434 C414 0.929 . S
H435 C416 0.930 . S
H436 C418 0.932 . S
H437 C419 0.929 . S
H438 C420 0.928 . S
H439 C422 0.932 . S
C440 C441 1.264 . S
C440 C445 1.479 . S
C440 C450 1.465 . S
C441 C440 1.264 . S
C441 C443 1.339 . S
C441 H468 0.931 . S
C442 C443 1.395 . S
C442 C444 1.320 . S
C443 C441 1.339 . S
C443 C442 1.395 . S
C443 H469 0.929 . S
C444 C442 1.320 . S
C444 C445 1.405 . S
C444 H470 0.925 1_655 S
C445 C440 1.479 . S
C445 C444 1.405 . S
C445 H471 0.931 . S
U446 O447 2.454 . S
U446 O448 2.458 . S
U446 C449 2.984 . S
U446 C450 2.847 . S
U446 C463 2.882 . S
U446 O464 2.441 . S
U446 O465 2.420 . S
U446 O466 2.455 . S
U446 O467 2.449 . S
O447 U446 2.454 . S
O447 C449 1.353 . S
O448 U446 2.458 . S
O448 C449 1.286 . S
C449 U446 2.984 . S
C449 O447 1.353 . S
C449 O448 1.286 . S
C449 C451 1.363 . S
C450 C440 1.465 . S
C450 U446 2.847 . S
C450 O464 1.249 . S
C450 O465 1.202 . S
C451 C449 1.363 . S
C451 C453 1.408 . S
C451 C456 1.342 . S
C452 C453 1.310 . S
C452 C455 1.462 . S
C452 H472 0.932 . S
C453 C451 1.408 . S
C453 C452 1.310 . S
C453 H473 0.930 . S
C454 C455 1.473 1_455 S
C454 C456 1.284 1_455 S
C454 H474 0.932 . S
C455 C452 1.462 . S
C455 C454 1.473 1_655 S
C456 C451 1.342 . S
C456 C454 1.284 1_655 S
C456 H475 0.936 . S
C457 C460 1.424 . S
C457 C462 1.245 . S
C457 C463 1.428 . S
C458 C461 1.260 . S
C458 C462 1.477 . S
C458 H476 0.932 . S
C459 C460 1.384 . S
C459 C461 1.479 . S
C459 H477 0.929 . S
C460 C457 1.424 . S
C460 C459 1.384 . S
C460 H478 0.928 . S
C461 C458 1.260 . S
C461 C459 1.479 . S
C462 C457 1.245 . S
C462 C458 1.477 . S
C462 H479 0.932 . S
C463 U446 2.882 . S
C463 C457 1.428 . S
C463 O466 1.301 . S
C463 O467 1.282 . S
O464 U446 2.441 . S
O464 C450 1.249 . S
O465 U446 2.420 . S
O465 C450 1.202 . S
O466 U446 2.455 . S
O466 C463 1.301 . S
O467 U446 2.449 . S
O467 C463 1.282 . S
H468 C441 0.931 . S
H469 C443 0.929 . S
H470 C444 0.925 1_455 S
H471 C445 0.931 . S
H472 C452 0.932 . S
H473 C453 0.930 . S
H474 C454 0.932 . S
H475 C456 0.936 . S
H476 C458 0.932 . S
H477 C459 0.929 . S
H478 C460 0.928 . S
H479 C462 0.932 . S
C480 C481 1.264 . S
C480 C485 1.479 . S
C480 C490 1.465 . S
C481 C480 1.264 . S
C481 C483 1.339 . S
C481 H508 0.931 . S
C482 C483 1.395 . S
C482 C484 1.320 . S
C483 C481 1.339 . S
C483 C482 1.395 . S
C483 H509 0.929 . S
C484 C482 1.320 . S
C484 C485 1.405 . S
C484 H510 0.930 . S
C485 C480 1.479 . S
C485 C484 1.405 . S
C485 H511 0.931 . S
U486 O487 2.454 . S
U486 O488 2.458 . S
U486 C489 2.984 . S
U486 C490 2.847 . S
U486 C503 2.882 . S
U486 O504 2.441 . S
U486 O505 2.420 . S
U486 O506 2.455 . S
U486 O507 2.449 . S
O487 U486 2.454 . S
O487 C489 1.353 . S
O488 U486 2.458 . S
O488 C489 1.286 . S
C489 U486 2.984 . S
C489 O487 1.353 . S
C489 O488 1.286 . S
C489 C491 1.363 . S
C490 C480 1.465 . S
C490 U486 2.847 . S
C490 O504 1.249 . S
C490 O505 1.202 . S
C491 C489 1.363 . S
C491 C493 1.408 . S
C491 C496 1.342 . S
C492 C493 1.310 . S
C492 C495 1.461 . S
C492 H512 0.932 . S
C493 C491 1.408 . S
C493 C492 1.310 . S
C493 H513 0.930 . S
C494 C495 1.474 . S
C494 C496 1.285 . S
C494 H514 0.929 . S
C495 C492 1.461 . S
C495 C494 1.474 . S
C496 C491 1.342 . S
C496 C494 1.285 . S
C496 H515 0.930 . S
C497 C500 1.424 . S
C497 C502 1.245 . S
C497 C503 1.428 . S
C498 C501 1.260 . S
C498 C502 1.477 . S
C498 H516 0.932 . S
C499 C500 1.384 . S
C499 C501 1.479 . S
C499 H517 0.929 . S
C500 C497 1.424 . S
C500 C499 1.384 . S
C500 H518 0.928 . S
C501 C498 1.260 . S
C501 C499 1.479 . S
C502 C497 1.245 . S
C502 C498 1.477 . S
C502 H519 0.932 . S
C503 U486 2.882 . S
C503 C497 1.428 . S
C503 O506 1.301 . S
C503 O507 1.282 . S
O504 U486 2.441 . S
O504 C490 1.249 . S
O505 U486 2.420 . S
O505 C490 1.202 . S
O506 U486 2.455 . S
O506 C503 1.301 . S
O507 U486 2.449 . S
O507 C503 1.282 . S
H508 C481 0.931 . S
H509 C483 0.929 . S
H510 C484 0.930 . S
H511 C485 0.931 . S
H512 C492 0.932 . S
H513 C493 0.930 . S
H514 C494 0.929 . S
H515 C496 0.930 . S
H516 C498 0.932 . S
H517 C499 0.929 . S
H518 C500 0.928 . S
H519 C502 0.932 . S
C520 C521 1.264 . S
C520 C525 1.479 . S
C520 C530 1.465 . S
C521 C520 1.264 . S
C521 C523 1.339 . S
C521 H548 0.931 . S
C522 C523 1.395 . S
C522 C524 1.320 . S
C523 C521 1.339 . S
C523 C522 1.395 . S
C523 H549 0.929 . S
C524 C522 1.320 . S
C524 C525 1.405 . S
C524 H550 0.930 . S
C525 C520 1.479 . S
C525 C524 1.405 . S
C525 H551 0.931 . S
U526 O527 2.454 . S
U526 O528 2.458 . S
U526 C529 2.984 . S
U526 C530 2.847 . S
U526 C543 2.882 . S
U526 O544 2.441 . S
U526 O545 2.420 . S
U526 O546 2.455 . S
U526 O547 2.449 . S
O527 U526 2.454 . S
O527 C529 1.353 . S
O528 U526 2.458 . S
O528 C529 1.286 . S
C529 U526 2.984 . S
C529 O527 1.353 . S
C529 O528 1.286 . S
C529 C531 1.363 . S
C530 C520 1.465 . S
C530 U526 2.847 . S
C530 O544 1.249 . S
C530 O545 1.202 . S
C531 C529 1.363 . S
C531 C533 1.408 . S
C531 C536 1.342 . S
C532 C533 1.310 . S
C532 C535 1.461 . S
C532 H552 0.932 . S
C533 C531 1.408 . S
C533 C532 1.310 . S
C533 H553 0.930 . S
C534 C535 1.474 . S
C534 C536 1.285 . S
C534 H554 0.929 . S
C535 C532 1.461 . S
C535 C534 1.474 . S
C536 C531 1.342 . S
C536 C534 1.285 . S
C536 H555 0.930 . S
C537 C540 1.424 . S
C537 C542 1.245 . S
C537 C543 1.428 . S
C538 C541 1.260 . S
C538 C542 1.477 . S
C538 H556 0.932 . S
C539 C540 1.384 . S
C539 C541 1.479 . S
C539 H557 0.929 . S
C540 C537 1.424 . S
C540 C539 1.384 . S
C540 H558 0.928 . S
C541 C538 1.260 . S
C541 C539 1.479 . S
C542 C537 1.245 . S
C542 C538 1.477 . S
C542 H559 0.932 . S
C543 U526 2.882 . S
C543 C537 1.428 . S
C543 O546 1.301 . S
C543 O547 1.282 . S
O544 U526 2.441 . S
O544 C530 1.249 . S
O545 U526 2.420 . S
O545 C530 1.202 . S
O546 U526 2.455 . S
O546 C543 1.301 . S
O547 U526 2.449 . S
O547 C543 1.282 . S
H548 C521 0.931 . S
H549 C523 0.929 . S
H550 C524 0.930 . S
H551 C525 0.931 . S
H552 C532 0.932 . S
H553 C533 0.930 . S
H554 C534 0.929 . S
H555 C536 0.930 . S
H556 C538 0.932 . S
H557 C539 0.929 . S
H558 C540 0.928 . S
H559 C542 0.932 . S
C560 C561 1.264 . S
C560 C565 1.479 . S
C560 C570 1.465 . S
C561 C560 1.264 . S
C561 C563 1.339 . S
C561 H588 0.931 . S
C562 C563 1.395 . S
C562 C564 1.320 . S
C563 C561 1.339 . S
C563 C562 1.395 . S
C563 H589 0.929 . S
C564 C562 1.320 . S
C564 C565 1.405 . S
C564 H590 0.919 1_565 S
C565 C560 1.479 . S
C565 C564 1.405 . S
C565 H591 0.931 . S
U566 O567 2.454 . S
U566 O568 2.458 . S
U566 C569 2.984 . S
U566 C570 2.847 . S
U566 C583 2.882 . S
U566 O584 2.441 . S
U566 O585 2.420 . S
U566 O586 2.455 . S
U566 O587 2.449 . S
O567 U566 2.454 . S
O567 C569 1.353 . S
O568 U566 2.458 . S
O568 C569 1.286 . S
C569 U566 2.984 . S
C569 O567 1.353 . S
C569 O568 1.286 . S
C569 C571 1.363 . S
C570 C560 1.465 . S
C570 U566 2.847 . S
C570 O584 1.249 . S
C570 O585 1.202 . S
C571 C569 1.363 . S
C571 C573 1.408 . S
C571 C576 1.342 . S
C572 C573 1.310 . S
C572 C575 1.460 . S
C572 H592 0.932 . S
C573 C571 1.408 . S
C573 C572 1.310 . S
C573 H593 0.930 . S
C574 C575 1.475 1_545 S
C574 C576 1.285 1_545 S
C574 H594 0.930 . S
C575 C572 1.460 . S
C575 C574 1.475 1_565 S
C576 C571 1.342 . S
C576 C574 1.285 1_565 S
C576 H595 0.930 . S
C577 C580 1.424 . S
C577 C582 1.245 . S
C577 C583 1.428 . S
C578 C581 1.260 . S
C578 C582 1.477 . S
C578 H596 0.932 . S
C579 C580 1.384 . S
C579 C581 1.479 . S
C579 H597 0.929 . S
C580 C577 1.424 . S
C580 C579 1.384 . S
C580 H598 0.928 . S
C581 C578 1.260 . S
C581 C579 1.479 . S
C582 C577 1.245 . S
C582 C578 1.477 . S
C582 H599 0.932 . S
C583 U566 2.882 . S
C583 C577 1.428 . S
C583 O586 1.301 . S
C583 O587 1.282 . S
O584 U566 2.441 . S
O584 C570 1.249 . S
O585 U566 2.420 . S
O585 C570 1.202 . S
O586 U566 2.455 . S
O586 C583 1.301 . S
O587 U566 2.449 . S
O587 C583 1.282 . S
H588 C561 0.931 . S
H589 C563 0.929 . S
H590 C564 0.919 1_545 S
H591 C565 0.931 . S
H592 C572 0.932 . S
H593 C573 0.930 . S
H594 C574 0.930 . S
H595 C576 0.930 . S
H596 C578 0.932 . S
H597 C579 0.929 . S
H598 C580 0.928 . S
H599 C582 0.932 . S
C600 C601 1.264 . S
C600 C605 1.477 1_545 S
C600 C610 1.467 . S
C601 C600 1.264 . S
C601 C603 1.339 1_545 S
C601 H628 0.931 . S
C602 C603 1.395 . S
C602 C604 1.320 . S
C603 C601 1.339 1_565 S
C603 C602 1.395 . S
C603 H629 0.929 1_565 S
C604 C602 1.320 . S
C604 C605 1.405 . S
C604 H630 0.930 . S
C605 C600 1.477 1_565 S
C605 C604 1.405 . S
C605 H631 0.931 . S
U606 O607 2.454 1_545 S
U606 O608 2.458 . S
U606 C609 2.983 1_545 S
U606 C610 2.847 . S
U606 C623 2.882 . S
U606 O624 2.441 . S
U606 O625 2.420 . S
U606 O626 2.455 . S
U606 O627 2.449 . S
O607 U606 2.454 1_565 S
O607 C609 1.354 . S
O608 U606 2.458 . S
O608 C609 1.285 1_545 S
C609 U606 2.983 1_565 S
C609 O607 1.354 . S
C609 O608 1.285 1_565 S
C609 C611 1.364 . S
C610 C600 1.467 . S
C610 U606 2.847 . S
C610 O624 1.249 . S
C610 O625 1.202 . S
C611 C609 1.364 . S
C611 C613 1.408 . S
C611 C616 1.342 . S
C612 C613 1.310 . S
C612 C615 1.461 . S
C612 H632 0.932 . S
C613 C611 1.408 . S
C613 C612 1.310 . S
C613 H633 0.930 . S
C614 C615 1.474 . S
C614 C616 1.285 . S
C614 H634 0.929 . S
C615 C612 1.461 . S
C615 C614 1.474 . S
C616 C611 1.342 . S
C616 C614 1.285 . S
C616 H635 0.936 . S
C617 C620 1.424 . S
C617 C622 1.245 . S
C617 C623 1.428 . S
C618 C621 1.260 . S
C618 C622 1.477 . S
C618 H636 0.932 . S
C619 C620 1.384 . S
C619 C621 1.479 . S
C619 H637 0.929 . S
C620 C617 1.424 . S
C620 C619 1.384 . S
C620 H638 0.928 . S
C621 C618 1.260 . S
C621 C619 1.479 . S
C622 C617 1.245 . S
C622 C618 1.477 . S
C622 H639 0.932 . S
C623 U606 2.882 . S
C623 C617 1.428 . S
C623 O626 1.301 . S
C623 O627 1.282 . S
O624 U606 2.441 . S
O624 C610 1.249 . S
O625 U606 2.420 . S
O625 C610 1.202 . S
O626 U606 2.455 . S
O626 C623 1.301 . S
O627 U606 2.449 . S
O627 C623 1.282 . S
H628 C601 0.931 . S
H629 C603 0.929 1_545 S
H630 C604 0.930 . S
H631 C605 0.931 . S
H632 C612 0.932 . S
H633 C613 0.930 . S
H634 C614 0.929 . S
H635 C616 0.936 . S
H636 C618 0.932 . S
H637 C619 0.929 . S
H638 C620 0.928 . S
H639 C622 0.932 . S
C640 C641 1.264 . S
C640 C645 1.479 . S
C640 C650 1.465 . S
C641 C640 1.264 . S
C641 C643 1.339 . S
C641 H668 0.931 . S
C642 C643 1.395 . S
C642 C644 1.320 . S
C643 C641 1.339 . S
C643 C642 1.395 . S
C643 H669 0.929 . S
C644 C642 1.320 . S
C644 C645 1.405 . S
C644 H670 0.930 . S
C645 C640 1.479 . S
C645 C644 1.405 . S
C645 H671 0.931 . S
U646 O647 2.454 . S
U646 O648 2.458 . S
U646 C649 2.984 . S
U646 C650 2.847 . S
U646 C663 2.882 . S
U646 O664 2.441 . S
U646 O665 2.420 . S
U646 O666 2.455 . S
U646 O667 2.449 . S
O647 U646 2.454 . S
O647 C649 1.353 . S
O648 U646 2.458 . S
O648 C649 1.286 . S
C649 U646 2.984 . S
C649 O647 1.353 . S
C649 O648 1.286 . S
C649 C651 1.363 . S
C650 C640 1.465 . S
C650 U646 2.847 . S
C650 O664 1.249 . S
C650 O665 1.202 . S
C651 C649 1.363 . S
C651 C653 1.408 . S
C651 C656 1.342 . S
C652 C653 1.310 . S
C652 C655 1.461 . S
C652 H672 0.932 . S
C653 C651 1.408 . S
C653 C652 1.310 . S
C653 H673 0.930 . S
C654 C655 1.474 . S
C654 C656 1.285 . S
C654 H674 0.929 . S
C655 C652 1.461 . S
C655 C654 1.474 . S
C656 C651 1.342 . S
C656 C654 1.285 . S
C656 H675 0.930 . S
C657 C660 1.424 . S
C657 C662 1.245 . S
C657 C663 1.428 . S
C658 C661 1.260 . S
C658 C662 1.477 . S
C658 H676 0.932 . S
C659 C660 1.384 . S
C659 C661 1.479 . S
C659 H677 0.929 . S
C660 C657 1.424 . S
C660 C659 1.384 . S
C660 H678 0.928 . S
C661 C658 1.260 . S
C661 C659 1.479 . S
C662 C657 1.245 . S
C662 C658 1.477 . S
C662 H679 0.932 . S
C663 U646 2.882 . S
C663 C657 1.428 . S
C663 O666 1.301 . S
C663 O667 1.282 . S
O664 U646 2.441 . S
O664 C650 1.249 . S
O665 U646 2.420 . S
O665 C650 1.202 . S
O666 U646 2.455 . S
O666 C663 1.301 . S
O667 U646 2.449 . S
O667 C663 1.282 . S
H668 C641 0.931 . S
H669 C643 0.929 . S
H670 C644 0.930 . S
H671 C645 0.931 . S
H672 C652 0.932 . S
H673 C653 0.930 . S
H674 C654 0.929 . S
H675 C656 0.930 . S
H676 C658 0.932 . S
H677 C659 0.929 . S
H678 C660 0.928 . S
H679 C662 0.932 . S
C680 C681 1.264 . S
C680 C685 1.477 1_554 S
C680 C690 1.467 . S
C681 C680 1.264 . S
C681 C683 1.339 1_554 S
C681 H708 0.931 . S
C682 C683 1.395 . S
C682 C684 1.320 . S
C683 C681 1.339 1_556 S
C683 C682 1.395 . S
C683 H709 0.929 1_556 S
C684 C682 1.320 . S
C684 C685 1.405 . S
C684 H710 0.930 . S
C685 C680 1.477 1_556 S
C685 C684 1.405 . S
C685 H711 0.931 . S
U686 O687 2.454 1_554 S
U686 O688 2.458 . S
U686 C689 2.983 1_554 S
U686 C690 2.847 . S
U686 C703 2.882 . S
U686 O704 2.441 . S
U686 O705 2.420 . S
U686 O706 2.455 . S
U686 O707 2.449 . S
O687 U686 2.454 1_556 S
O687 C689 1.354 . S
O688 U686 2.458 . S
O688 C689 1.285 1_554 S
C689 U686 2.983 1_556 S
C689 O687 1.354 . S
C689 O688 1.285 1_556 S
C689 C691 1.364 . S
C690 C680 1.467 . S
C690 U686 2.847 . S
C690 O704 1.249 . S
C690 O705 1.202 . S
C691 C689 1.364 . S
C691 C693 1.408 . S
C691 C696 1.342 . S
C692 C693 1.310 . S
C692 C695 1.461 . S
C692 H712 0.932 . S
C693 C691 1.408 . S
C693 C692 1.310 . S
C693 H713 0.930 . S
C694 C695 1.474 . S
C694 C696 1.285 . S
C694 H714 0.929 . S
C695 C692 1.461 . S
C695 C694 1.474 . S
C696 C691 1.342 . S
C696 C694 1.285 . S
C696 H715 0.936 . S
C697 C700 1.424 . S
C697 C702 1.245 . S
C697 C703 1.428 . S
C698 C701 1.260 . S
C698 C702 1.477 . S
C698 H716 0.932 . S
C699 C700 1.384 . S
C699 C701 1.479 . S
C699 H717 0.929 . S
C700 C697 1.424 . S
C700 C699 1.384 . S
C700 H718 0.928 . S
C701 C698 1.260 . S
C701 C699 1.479 . S
C702 C697 1.245 . S
C702 C698 1.477 . S
C702 H719 0.932 . S
C703 U686 2.882 . S
C703 C697 1.428 . S
C703 O706 1.301 . S
C703 O707 1.282 . S
O704 U686 2.441 . S
O704 C690 1.249 . S
O705 U686 2.420 . S
O705 C690 1.202 . S
O706 U686 2.455 . S
O706 C703 1.301 . S
O707 U686 2.449 . S
O707 C703 1.282 . S
H708 C681 0.931 . S
H709 C683 0.929 1_554 S
H710 C684 0.930 . S
H711 C685 0.931 . S
H712 C692 0.932 . S
H713 C693 0.930 . S
H714 C694 0.929 . S
H715 C696 0.936 . S
H716 C698 0.932 . S
H717 C699 0.929 . S
H718 C700 0.928 . S
H719 C702 0.932 . S
C720 C721 1.264 . S
C720 C725 1.479 . S
C720 C730 1.465 . S
C721 C720 1.264 . S
C721 C723 1.339 . S
C721 H748 0.931 . S
C722 C723 1.395 . S
C722 C724 1.320 . S
C723 C721 1.339 . S
C723 C722 1.395 . S
C723 H749 0.929 . S
C724 C722 1.320 . S
C724 C725 1.405 . S
C724 H750 0.930 . S
C725 C720 1.479 . S
C725 C724 1.405 . S
C725 H751 0.931 . S
U726 O727 2.454 . S
U726 O728 2.458 . S
U726 C729 2.984 . S
U726 C730 2.847 . S
U726 C743 2.882 . S
U726 O744 2.441 . S
U726 O745 2.420 . S
U726 O746 2.455 . S
U726 O747 2.449 . S
O727 U726 2.454 . S
O727 C729 1.353 . S
O728 U726 2.458 . S
O728 C729 1.286 . S
C729 U726 2.984 . S
C729 O727 1.353 . S
C729 O728 1.286 . S
C729 C731 1.363 . S
C730 C720 1.465 . S
C730 U726 2.847 . S
C730 O744 1.249 . S
C730 O745 1.202 . S
C731 C729 1.363 . S
C731 C733 1.408 . S
C731 C736 1.342 . S
C732 C733 1.310 . S
C732 C735 1.461 . S
C732 H752 0.932 . S
C733 C731 1.408 . S
C733 C732 1.310 . S
C733 H753 0.930 . S
C734 C735 1.474 . S
C734 C736 1.285 . S
C734 H754 0.929 . S
C735 C732 1.461 . S
C735 C734 1.474 . S
C736 C731 1.342 . S
C736 C734 1.285 . S
C736 H755 0.930 . S
C737 C740 1.424 . S
C737 C742 1.245 . S
C737 C743 1.428 . S
C738 C741 1.260 . S
C738 C742 1.477 . S
C738 H756 0.932 . S
C739 C740 1.384 . S
C739 C741 1.479 . S
C739 H757 0.929 . S
C740 C737 1.424 . S
C740 C739 1.384 . S
C740 H758 0.928 . S
C741 C738 1.260 . S
C741 C739 1.479 . S
C742 C737 1.245 . S
C742 C738 1.477 . S
C742 H759 0.932 . S
C743 U726 2.882 . S
C743 C737 1.428 . S
C743 O746 1.301 . S
C743 O747 1.282 . S
O744 U726 2.441 . S
O744 C730 1.249 . S
O745 U726 2.420 . S
O745 C730 1.202 . S
O746 U726 2.455 . S
O746 C743 1.301 . S
O747 U726 2.449 . S
O747 C743 1.282 . S
H748 C721 0.931 . S
H749 C723 0.929 . S
H750 C724 0.930 . S
H751 C725 0.931 . S
H752 C732 0.932 . S
H753 C733 0.930 . S
H754 C734 0.929 . S
H755 C736 0.930 . S
H756 C738 0.932 . S
H757 C739 0.929 . S
H758 C740 0.928 . S
H759 C742 0.932 . S
C760 C761 1.264 . S
C760 C765 1.479 . S
C760 C770 1.465 . S
C761 C760 1.264 . S
C761 C763 1.339 . S
C761 H788 0.931 . S
C762 C763 1.395 . S
C762 C764 1.320 . S
C763 C761 1.339 . S
C763 C762 1.395 . S
C763 H789 0.929 . S
C764 C762 1.320 . S
C764 C765 1.405 . S
C764 H790 0.919 1_556 S
C765 C760 1.479 . S
C765 C764 1.405 . S
C765 H791 0.931 . S
U766 O767 2.454 . S
U766 O768 2.458 . S
U766 C769 2.984 . S
U766 C770 2.847 . S
U766 C783 2.882 . S
U766 O784 2.441 . S
U766 O785 2.420 . S
U766 O786 2.455 . S
U766 O787 2.449 . S
O767 U766 2.454 . S
O767 C769 1.353 . S
O768 U766 2.458 . S
O768 C769 1.286 . S
C769 U766 2.984 . S
C769 O767 1.353 . S
C769 O768 1.286 . S
C769 C771 1.363 . S
C770 C760 1.465 . S
C770 U766 2.847 . S
C770 O784 1.249 . S
C770 O785 1.202 . S
C771 C769 1.363 . S
C771 C773 1.408 . S
C771 C776 1.342 . S
C772 C773 1.310 . S
C772 C775 1.460 . S
C772 H792 0.932 . S
C773 C771 1.408 . S
C773 C772 1.310 . S
C773 H793 0.930 . S
C774 C775 1.475 1_554 S
C774 C776 1.285 1_554 S
C774 H794 0.930 . S
C775 C772 1.460 . S
C775 C774 1.475 1_556 S
C776 C771 1.342 . S
C776 C774 1.285 1_556 S
C776 H795 0.930 . S
C777 C780 1.424 . S
C777 C782 1.245 . S
C777 C783 1.428 . S
C778 C781 1.260 . S
C778 C782 1.477 . S
C778 H796 0.932 . S
C779 C780 1.384 . S
C779 C781 1.479 . S
C779 H797 0.929 . S
C780 C777 1.424 . S
C780 C779 1.384 . S
C780 H798 0.928 . S
C781 C778 1.260 . S
C781 C779 1.479 . S
C782 C777 1.245 . S
C782 C778 1.477 . S
C782 H799 0.932 . S
C783 U766 2.882 . S
C783 C777 1.428 . S
C783 O786 1.301 . S
C783 O787 1.282 . S
O784 U766 2.441 . S
O784 C770 1.249 . S
O785 U766 2.420 . S
O785 C770 1.202 . S
O786 U766 2.455 . S
O786 C783 1.301 . S
O787 U766 2.449 . S
O787 C783 1.282 . S
H788 C761 0.931 . S
H789 C763 0.929 . S
H790 C764 0.919 1_554 S
H791 C765 0.931 . S
H792 C772 0.932 . S
H793 C773 0.930 . S
H794 C774 0.930 . S
H795 C776 0.930 . S
H796 C778 0.932 . S
H797 C779 0.929 . S
H798 C780 0.928 . S
H799 C782 0.932 . S
C800 C801 1.264 . S
C800 C805 1.479 . S
C800 C810 1.465 . S
C801 C800 1.264 . S
C801 C803 1.339 . S
C801 H828 0.931 . S
C802 C803 1.395 . S
C802 C804 1.320 . S
C803 C801 1.339 . S
C803 C802 1.395 . S
C803 H829 0.929 . S
C804 C802 1.320 . S
C804 C805 1.405 . S
C804 H830 0.930 . S
C805 C800 1.479 . S
C805 C804 1.405 . S
C805 H831 0.931 . S
U806 O807 2.454 . S
U806 O808 2.458 . S
U806 C809 2.984 . S
U806 C810 2.847 . S
U806 C823 2.882 . S
U806 O824 2.441 . S
U806 O825 2.420 . S
U806 O826 2.455 . S
U806 O827 2.449 . S
O807 U806 2.454 . S
O807 C809 1.353 . S
O808 U806 2.458 . S
O808 C809 1.286 . S
C809 U806 2.984 . S
C809 O807 1.353 . S
C809 O808 1.286 . S
C809 C811 1.363 . S
C810 C800 1.465 . S
C810 U806 2.847 . S
C810 O824 1.249 . S
C810 O825 1.202 . S
C811 C809 1.363 . S
C811 C813 1.408 . S
C811 C816 1.342 . S
C812 C813 1.310 . S
C812 C815 1.461 . S
C812 H832 0.932 . S
C813 C811 1.408 . S
C813 C812 1.310 . S
C813 H833 0.930 . S
C814 C815 1.474 . S
C814 C816 1.285 . S
C814 H834 0.929 . S
C815 C812 1.461 . S
C815 C814 1.474 . S
C816 C811 1.342 . S
C816 C814 1.285 . S
C816 H835 0.930 . S
C817 C820 1.424 . S
C817 C822 1.245 . S
C817 C823 1.428 . S
C818 C821 1.260 . S
C818 C822 1.477 . S
C818 H836 0.932 . S
C819 C820 1.384 . S
C819 C821 1.479 . S
C819 H837 0.929 . S
C820 C817 1.424 . S
C820 C819 1.384 . S
C820 H838 0.928 . S
C821 C818 1.260 . S
C821 C819 1.479 . S
C822 C817 1.245 . S
C822 C818 1.477 . S
C822 H839 0.932 . S
C823 U806 2.882 . S
C823 C817 1.428 . S
C823 O826 1.301 . S
C823 O827 1.282 . S
O824 U806 2.441 . S
O824 C810 1.249 . S
O825 U806 2.420 . S
O825 C810 1.202 . S
O826 U806 2.455 . S
O826 C823 1.301 . S
O827 U806 2.449 . S
O827 C823 1.282 . S
H828 C801 0.931 . S
H829 C803 0.929 . S
H830 C804 0.930 . S
H831 C805 0.931 . S
H832 C812 0.932 . S
H833 C813 0.930 . S
H834 C814 0.929 . S
H835 C816 0.930 . S
H836 C818 0.932 . S
H837 C819 0.929 . S
H838 C820 0.928 . S
H839 C822 0.932 . S
C840 C841 1.264 . S
C840 C845 1.477 1_455 S
C840 C850 1.467 . S
C841 C840 1.264 . S
C841 C843 1.339 1_455 S
C841 H868 0.931 . S
C842 C843 1.395 . S
C842 C844 1.320 . S
C843 C841 1.339 1_655 S
C843 C842 1.395 . S
C843 H869 0.929 1_655 S
C844 C842 1.320 . S
C844 C845 1.405 . S
C844 H870 0.930 . S
C845 C840 1.477 1_655 S
C845 C844 1.405 . S
C845 H871 0.931 . S
U846 O847 2.454 1_455 S
U846 O848 2.458 . S
U846 C849 2.983 1_455 S
U846 C850 2.847 . S
U846 C863 2.882 . S
U846 O864 2.441 . S
U846 O865 2.420 . S
U846 O866 2.455 . S
U846 O867 2.449 . S
O847 U846 2.454 1_655 S
O847 C849 1.354 . S
O848 U846 2.458 . S
O848 C849 1.285 1_455 S
C849 U846 2.983 1_655 S
C849 O847 1.354 . S
C849 O848 1.285 1_655 S
C849 C851 1.364 . S
C850 C840 1.467 . S
C850 U846 2.847 . S
C850 O864 1.249 . S
C850 O865 1.202 . S
C851 C849 1.364 . S
C851 C853 1.408 . S
C851 C856 1.342 . S
C852 C853 1.310 . S
C852 C855 1.461 . S
C852 H872 0.932 . S
C853 C851 1.408 . S
C853 C852 1.310 . S
C853 H873 0.930 . S
C854 C855 1.474 . S
C854 C856 1.285 . S
C854 H874 0.929 . S
C855 C852 1.461 . S
C855 C854 1.474 . S
C856 C851 1.342 . S
C856 C854 1.285 . S
C856 H875 0.936 . S
C857 C860 1.424 . S
C857 C862 1.245 . S
C857 C863 1.428 . S
C858 C861 1.260 . S
C858 C862 1.477 . S
C858 H876 0.932 . S
C859 C860 1.384 . S
C859 C861 1.479 . S
C859 H877 0.929 . S
C860 C857 1.424 . S
C860 C859 1.384 . S
C860 H878 0.928 . S
C861 C858 1.260 . S
C861 C859 1.479 . S
C862 C857 1.245 . S
C862 C858 1.477 . S
C862 H879 0.932 . S
C863 U846 2.882 . S
C863 C857 1.428 . S
C863 O866 1.301 . S
C863 O867 1.282 . S
O864 U846 2.441 . S
O864 C850 1.249 . S
O865 U846 2.420 . S
O865 C850 1.202 . S
O866 U846 2.455 . S
O866 C863 1.301 . S
O867 U846 2.449 . S
O867 C863 1.282 . S
H868 C841 0.931 . S
H869 C843 0.929 1_455 S
H870 C844 0.930 . S
H871 C845 0.931 . S
H872 C852 0.932 . S
H873 C853 0.930 . S
H874 C854 0.929 . S
H875 C856 0.936 . S
H876 C858 0.932 . S
H877 C859 0.929 . S
H878 C860 0.928 . S
H879 C862 0.932 . S
C880 C881 1.264 . S
C880 C885 1.479 . S
C880 C890 1.465 . S
C881 C880 1.264 . S
C881 C883 1.339 . S
C881 H908 0.931 . S
C882 C883 1.395 . S
C882 C884 1.320 . S
C883 C881 1.339 . S
C883 C882 1.395 . S
C883 H909 0.929 . S
C884 C882 1.320 . S
C884 C885 1.405 . S
C884 H910 0.930 . S
C885 C880 1.479 . S
C885 C884 1.405 . S
C885 H911 0.931 . S
U886 O887 2.454 . S
U886 O888 2.458 . S
U886 C889 2.984 . S
U886 C890 2.847 . S
U886 C903 2.882 . S
U886 O904 2.441 . S
U886 O905 2.420 . S
U886 O906 2.455 . S
U886 O907 2.449 . S
O887 U886 2.454 . S
O887 C889 1.353 . S
O888 U886 2.458 . S
O888 C889 1.286 . S
C889 U886 2.984 . S
C889 O887 1.353 . S
C889 O888 1.286 . S
C889 C891 1.363 . S
C890 C880 1.465 . S
C890 U886 2.847 . S
C890 O904 1.249 . S
C890 O905 1.202 . S
C891 C889 1.363 . S
C891 C893 1.408 . S
C891 C896 1.342 . S
C892 C893 1.310 . S
C892 C895 1.461 . S
C892 H912 0.932 . S
C893 C891 1.408 . S
C893 C892 1.310 . S
C893 H913 0.930 . S
C894 C895 1.474 . S
C894 C896 1.285 . S
C894 H914 0.929 . S
C895 C892 1.461 . S
C895 C894 1.474 . S
C896 C891 1.342 . S
C896 C894 1.285 . S
C896 H915 0.930 . S
C897 C900 1.424 . S
C897 C902 1.245 . S
C897 C903 1.428 . S
C898 C901 1.260 . S
C898 C902 1.477 . S
C898 H916 0.932 . S
C899 C900 1.384 . S
C899 C901 1.479 . S
C899 H917 0.929 . S
C900 C897 1.424 . S
C900 C899 1.384 . S
C900 H918 0.928 . S
C901 C898 1.260 . S
C901 C899 1.479 . S
C902 C897 1.245 . S
C902 C898 1.477 . S
C902 H919 0.932 . S
C903 U886 2.882 . S
C903 C897 1.428 . S
C903 O906 1.301 . S
C903 O907 1.282 . S
O904 U886 2.441 . S
O904 C890 1.249 . S
O905 U886 2.420 . S
O905 C890 1.202 . S
O906 U886 2.455 . S
O906 C903 1.301 . S
O907 U886 2.449 . S
O907 C903 1.282 . S
H908 C881 0.931 . S
H909 C883 0.929 . S
H910 C884 0.930 . S
H911 C885 0.931 . S
H912 C892 0.932 . S
H913 C893 0.930 . S
H914 C894 0.929 . S
H915 C896 0.930 . S
H916 C898 0.932 . S
H917 C899 0.929 . S
H918 C900 0.928 . S
H919 C902 0.932 . S
C920 C921 1.264 . S
C920 C925 1.479 . S
C920 C930 1.465 . S
C921 C920 1.264 . S
C921 C923 1.339 . S
C921 H948 0.931 . S
C922 C923 1.395 . S
C922 C924 1.320 . S
C923 C921 1.339 . S
C923 C922 1.395 . S
C923 H949 0.929 . S
C924 C922 1.320 . S
C924 C925 1.405 . S
C924 H950 0.919 1_655 S
C925 C920 1.479 . S
C925 C924 1.405 . S
C925 H951 0.931 . S
U926 O927 2.454 . S
U926 O928 2.458 . S
U926 C929 2.984 . S
U926 C930 2.847 . S
U926 C943 2.882 . S
U926 O944 2.441 . S
U926 O945 2.420 . S
U926 O946 2.455 . S
U926 O947 2.449 . S
O927 U926 2.454 . S
O927 C929 1.353 . S
O928 U926 2.458 . S
O928 C929 1.286 . S
C929 U926 2.984 . S
C929 O927 1.353 . S
C929 O928 1.286 . S
C929 C931 1.363 . S
C930 C920 1.465 . S
C930 U926 2.847 . S
C930 O944 1.249 . S
C930 O945 1.202 . S
C931 C929 1.363 . S
C931 C933 1.408 . S
C931 C936 1.342 . S
C932 C933 1.310 . S
C932 C935 1.460 . S
C932 H952 0.932 . S
C933 C931 1.408 . S
C933 C932 1.310 . S
C933 H953 0.930 . S
C934 C935 1.475 1_455 S
C934 C936 1.285 1_455 S
C934 H954 0.930 . S
C935 C932 1.460 . S
C935 C934 1.475 1_655 S
C936 C931 1.342 . S
C936 C934 1.285 1_655 S
C936 H955 0.930 . S
C937 C940 1.424 . S
C937 C942 1.245 . S
C937 C943 1.428 . S
C938 C941 1.260 . S
C938 C942 1.477 . S
C938 H956 0.932 . S
C939 C940 1.384 . S
C939 C941 1.479 . S
C939 H957 0.929 . S
C940 C937 1.424 . S
C940 C939 1.384 . S
C940 H958 0.928 . S
C941 C938 1.260 . S
C941 C939 1.479 . S
C942 C937 1.245 . S
C942 C938 1.477 . S
C942 H959 0.932 . S
C943 U926 2.882 . S
C943 C937 1.428 . S
C943 O946 1.301 . S
C943 O947 1.282 . S
O944 U926 2.441 . S
O944 C930 1.249 . S
O945 U926 2.420 . S
O945 C930 1.202 . S
O946 U926 2.455 . S
O946 C943 1.301 . S
O947 U926 2.449 . S
O947 C943 1.282 . S
H948 C921 0.931 . S
H949 C923 0.929 . S
H950 C924 0.919 1_455 S
H951 C925 0.931 . S
H952 C932 0.932 . S
H953 C933 0.930 . S
H954 C934 0.930 . S
H955 C936 0.930 . S
H956 C938 0.932 . S
H957 C939 0.929 . S
H958 C940 0.928 . S
H959 C942 0.932 . S
H960 C965 0.930 . S
H961 C968 0.930 . S
H962 C970 0.930 . S
H963 C964 1.016 . S
C964 H963 1.016 . S
C964 N971 1.286 . S
C965 H960 0.930 . S
C965 C966 1.397 . S
C965 C967 1.361 . S
C966 C965 1.397 . S
C966 C970 1.390 . S
C967 C965 1.361 . S
C967 C968 1.393 . S
C967 N971 1.413 . S
C968 H961 0.930 . S
C968 C967 1.393 . S
C968 C969 1.399 . S
C969 C968 1.399 . S
C969 C970 1.381 . S
C970 H962 0.930 . S
C970 C966 1.390 . S
C970 C969 1.381 . S
N971 C964 1.286 . S
N971 C967 1.413 . S
H972 C977 0.930 . S
H973 C980 0.930 . S
H974 C982 0.930 . S
H975 C976 1.016 1_556 S
C976 H975 1.016 1_554 S
C976 N983 1.286 . S
C977 H972 0.930 . S
C977 C978 1.397 . S
C977 C979 1.361 . S
C978 C977 1.397 . S
C978 C982 1.390 1_554 S
C979 C977 1.361 . S
C979 C980 1.393 1_554 S
C979 N983 1.413 . S
C980 H973 0.930 . S
C980 C979 1.393 1_556 S
C980 C981 1.399 . S
C981 C980 1.399 . S
C981 C982 1.381 . S
C982 H974 0.930 . S
C982 C978 1.390 1_556 S
C982 C981 1.381 . S
N983 C976 1.286 . S
N983 C979 1.413 . S
H984 C989 0.930 . S
H985 C992 0.930 . S
H986 C994 0.930 . S
H987 C988 1.016 . S
C988 H987 1.016 . S
C988 N995 1.286 . S
C989 H984 0.930 . S
C989 C990 1.397 . S
C989 C991 1.361 1_565 S
C990 C989 1.397 . S
C990 C994 1.390 . S
C991 C989 1.361 1_545 S
C991 C992 1.393 . S
C991 N995 1.413 . S
C992 H985 0.930 . S
C992 C991 1.393 . S
C992 C993 1.399 1_545 S
C993 C992 1.399 1_565 S
C993 C994 1.381 . S
C994 H986 0.930 . S
C994 C990 1.390 . S
C994 C993 1.381 . S
N995 C988 1.286 . S
N995 C991 1.413 . S
H996 C1001 0.930 . S
H997 C1004 0.930 . S
H998 C1006 0.930 . S
H999 C1000 1.016 . S
C1000 H999 1.016 . S
C1000 N1007 1.286 . S
C1001 H996 0.930 . S
C1001 C1002 1.397 . S
C1001 C1003 1.361 . S
C1002 C1001 1.397 . S
C1002 C1006 1.390 1_556 S
C1003 C1001 1.361 . S
C1003 C1004 1.393 1_556 S
C1003 N1007 1.413 . S
C1004 H997 0.930 . S
C1004 C1003 1.393 1_554 S
C1004 C1005 1.399 . S
C1005 C1004 1.399 . S
C1005 C1006 1.381 . S
C1006 H998 0.930 . S
C1006 C1002 1.390 1_554 S
C1006 C1005 1.381 . S
N1007 C1000 1.286 . S
N1007 C1003 1.413 . S
H1008 C1013 0.930 . S
H1009 C1016 0.930 . S
H1010 C1018 0.930 . S
H1011 C1012 1.016 . S
C1012 H1011 1.016 . S
C1012 N1019 1.286 . S
C1013 H1008 0.930 . S
C1013 C1014 1.397 . S
C1013 C1015 1.361 . S
C1014 C1013 1.397 . S
C1014 C1018 1.390 . S
C1015 C1013 1.361 . S
C1015 C1016 1.393 . S
C1015 N1019 1.413 . S
C1016 H1009 0.930 . S
C1016 C1015 1.393 . S
C1016 C1017 1.399 . S
C1017 C1016 1.399 . S
C1017 C1018 1.381 . S
C1018 H1010 0.930 . S
C1018 C1014 1.390 . S
C1018 C1017 1.381 . S
N1019 C1012 1.286 . S
N1019 C1015 1.413 . S
H1020 C1025 0.930 . S
H1021 C1028 0.930 . S
H1022 C1030 0.930 . S
H1023 C1024 1.016 . S
C1024 H1023 1.016 . S
C1024 N1031 1.286 . S
C1025 H1020 0.930 . S
C1025 C1026 1.397 . S
C1025 C1027 1.361 . S
C1026 C1025 1.397 . S
C1026 C1030 1.390 1_655 S
C1027 C1025 1.361 . S
C1027 C1028 1.393 1_655 S
C1027 N1031 1.413 . S
C1028 H1021 0.930 . S
C1028 C1027 1.393 1_455 S
C1028 C1029 1.399 . S
C1029 C1028 1.399 . S
C1029 C1030 1.381 . S
C1030 H1022 0.930 . S
C1030 C1026 1.390 1_455 S
C1030 C1029 1.381 . S
N1031 C1024 1.286 . S
N1031 C1027 1.413 . S
H1032 C1037 0.930 . S
H1033 C1040 0.930 . S
H1034 C1042 0.930 . S
H1035 C1036 1.016 1_655 S
C1036 H1035 1.016 1_455 S
C1036 N1043 1.286 . S
C1037 H1032 0.930 . S
C1037 C1038 1.397 . S
C1037 C1039 1.361 . S
C1038 C1037 1.397 . S
C1038 C1042 1.390 1_455 S
C1039 C1037 1.361 . S
C1039 C1040 1.393 1_455 S
C1039 N1043 1.413 . S
C1040 H1033 0.930 . S
C1040 C1039 1.393 1_655 S
C1040 C1041 1.399 . S
C1041 C1040 1.399 . S
C1041 C1042 1.381 . S
C1042 H1034 0.930 . S
C1042 C1038 1.390 1_655 S
C1042 C1041 1.381 . S
N1043 C1036 1.286 . S
N1043 C1039 1.413 . S
H1044 C1049 0.930 . S
H1045 C1052 0.930 . S
H1046 C1054 0.930 . S
H1047 C1048 1.016 . S
C1048 H1047 1.016 . S
C1048 N1055 1.286 . S
C1049 H1044 0.930 . S
C1049 C1050 1.397 . S
C1049 C1051 1.361 1_556 S
C1050 C1049 1.397 . S
C1050 C1054 1.390 . S
C1051 C1049 1.361 1_554 S
C1051 C1052 1.393 . S
C1051 N1055 1.413 . S
C1052 H1045 0.930 . S
C1052 C1051 1.393 . S
C1052 C1053 1.399 1_554 S
C1053 C1052 1.399 1_556 S
C1053 C1054 1.381 . S
C1054 H1046 0.930 . S
C1054 C1050 1.390 . S
C1054 C1053 1.381 . S
N1055 C1048 1.286 . S
N1055 C1051 1.413 . S
H1056 C1061 0.930 . S
H1057 C1064 0.930 . S
H1058 C1066 0.930 . S
H1059 C1060 1.016 . S
C1060 H1059 1.016 . S
C1060 N1067 1.286 . S
C1061 H1056 0.930 . S
C1061 C1062 1.397 . S
C1061 C1063 1.361 . S
C1062 C1061 1.397 . S
C1062 C1066 1.390 . S
C1063 C1061 1.361 . S
C1063 C1064 1.393 . S
C1063 N1067 1.413 . S
C1064 H1057 0.930 . S
C1064 C1063 1.393 . S
C1064 C1065 1.399 . S
C1065 C1064 1.399 . S
C1065 C1066 1.381 . S
C1066 H1058 0.930 . S
C1066 C1062 1.390 . S
C1066 C1065 1.381 . S
N1067 C1060 1.286 . S
N1067 C1063 1.413 . S
H1068 C1073 0.930 . S
H1069 C1076 0.930 . S
H1070 C1078 0.930 . S
H1071 C1072 1.016 . S
C1072 H1071 1.016 . S
C1072 N1079 1.286 . S
C1073 H1068 0.930 . S
C1073 C1074 1.397 . S
C1073 C1075 1.361 . S
C1074 C1073 1.397 . S
C1074 C1078 1.390 1_565 S
C1075 C1073 1.361 . S
C1075 C1076 1.393 1_565 S
C1075 N1079 1.413 . S
C1076 H1069 0.930 . S
C1076 C1075 1.393 1_545 S
C1076 C1077 1.399 . S
C1077 C1076 1.399 . S
C1077 C1078 1.381 . S
C1078 H1070 0.930 . S
C1078 C1074 1.390 1_545 S
C1078 C1077 1.381 . S
N1079 C1072 1.286 . S
N1079 C1075 1.413 . S
H1080 C1085 0.930 . S
H1081 C1088 0.930 . S
H1082 C1090 0.930 . S
H1083 C1084 1.016 1_565 S
C1084 H1083 1.016 1_545 S
C1084 N1091 1.286 . S
C1085 H1080 0.930 . S
C1085 C1086 1.397 . S
C1085 C1087 1.361 . S
C1086 C1085 1.397 . S
C1086 C1090 1.390 1_545 S
C1087 C1085 1.361 . S
C1087 C1088 1.393 1_545 S
C1087 N1091 1.413 . S
C1088 H1081 0.930 . S
C1088 C1087 1.393 1_565 S
C1088 C1089 1.399 . S
C1089 C1088 1.399 . S
C1089 C1090 1.381 . S
C1090 H1082 0.930 . S
C1090 C1086 1.390 1_565 S
C1090 C1089 1.381 . S
N1091 C1084 1.286 . S
N1091 C1087 1.413 . S
H1092 C1097 0.930 . S
H1093 C1100 0.930 . S
H1094 C1102 0.930 . S
H1095 C1096 1.016 . S
C1096 H1095 1.016 . S
C1096 N1103 1.286 . S
C1097 H1092 0.930 . S
C1097 C1098 1.397 . S
C1097 C1099 1.361 1_655 S
C1098 C1097 1.397 . S
C1098 C1102 1.390 . S
C1099 C1097 1.361 1_455 S
C1099 C1100 1.393 . S
C1099 N1103 1.413 . S
C1100 H1093 0.930 . S
C1100 C1099 1.393 . S
C1100 C1101 1.399 1_455 S
C1101 C1100 1.399 1_655 S
C1101 C1102 1.381 . S
C1102 H1094 0.930 . S
C1102 C1098 1.390 . S
C1102 C1101 1.381 . S
N1103 C1096 1.286 . S
N1103 C1099 1.413 . S
H1104 C1109 0.930 . S
H1105 C1112 0.930 . S
H1106 C1114 0.930 . S
H1107 C1108 1.016 . S
C1108 H1107 1.016 . S
C1108 N1115 1.286 . S
C1109 H1104 0.930 . S
C1109 C1110 1.397 . S
C1109 C1111 1.361 . S
C1110 C1109 1.397 . S
C1110 C1114 1.390 . S
C1111 C1109 1.361 . S
C1111 C1112 1.393 . S
C1111 N1115 1.413 . S
C1112 H1105 0.930 . S
C1112 C1111 1.393 . S
C1112 C1113 1.399 . S
C1113 C1112 1.399 . S
C1113 C1114 1.381 . S
C1114 H1106 0.930 . S
C1114 C1110 1.390 . S
C1114 C1113 1.381 . S
N1115 C1108 1.286 . S
N1115 C1111 1.413 . S
H1116 C1121 0.930 . S
H1117 C1124 0.930 . S
H1118 C1126 0.930 . S
H1119 C1120 1.016 1_554 S
C1120 H1119 1.016 1_556 S
C1120 N1127 1.286 . S
C1121 H1116 0.930 . S
C1121 C1122 1.397 . S
C1121 C1123 1.361 . S
C1122 C1121 1.397 . S
C1122 C1126 1.390 1_556 S
C1123 C1121 1.361 . S
C1123 C1124 1.393 1_556 S
C1123 N1127 1.413 . S
C1124 H1117 0.930 . S
C1124 C1123 1.393 1_554 S
C1124 C1125 1.399 . S
C1125 C1124 1.399 . S
C1125 C1126 1.381 . S
C1126 H1118 0.930 . S
C1126 C1122 1.390 1_554 S
C1126 C1125 1.381 . S
N1127 C1120 1.286 . S
N1127 C1123 1.413 . S
H1128 C1133 0.930 . S
H1129 C1136 0.930 . S
H1130 C1138 0.930 . S
H1131 C1132 1.016 . S
C1132 H1131 1.016 . S
C1132 N1139 1.286 . S
C1133 H1128 0.930 . S
C1133 C1134 1.397 . S
C1133 C1135 1.361 1_545 S
C1134 C1133 1.397 . S
C1134 C1138 1.390 . S
C1135 C1133 1.361 1_565 S
C1135 C1136 1.393 . S
C1135 N1139 1.413 . S
C1136 H1129 0.930 . S
C1136 C1135 1.393 . S
C1136 C1137 1.399 1_565 S
C1137 C1136 1.399 1_545 S
C1137 C1138 1.381 . S
C1138 H1130 0.930 . S
C1138 C1134 1.390 . S
C1138 C1137 1.381 . S
N1139 C1132 1.286 . S
N1139 C1135 1.413 . S
H1140 C1145 0.930 . S
H1141 C1148 0.930 . S
H1142 C1150 0.930 . S
H1143 C1144 1.016 1_556 S
C1144 H1143 1.016 1_554 S
C1144 N1151 1.286 . S
C1145 H1140 0.930 . S
C1145 C1146 1.397 . S
C1145 C1147 1.361 . S
C1146 C1145 1.397 . S
C1146 C1150 1.390 1_554 S
C1147 C1145 1.361 . S
C1147 C1148 1.393 1_554 S
C1147 N1151 1.413 . S
C1148 H1141 0.930 . S
C1148 C1147 1.393 1_556 S
C1148 C1149 1.399 . S
C1149 C1148 1.399 . S
C1149 C1150 1.381 . S
C1150 H1142 0.930 . S
C1150 C1146 1.390 1_556 S
C1150 C1149 1.381 . S
N1151 C1144 1.286 . S
N1151 C1147 1.413 . S
H1152 C1157 0.930 . S
H1153 C1160 0.930 . S
H1154 C1162 0.930 . S
H1155 C1156 1.016 . S
C1156 H1155 1.016 . S
C1156 N1163 1.286 . S
C1157 H1152 0.930 . S
C1157 C1158 1.397 . S
C1157 C1159 1.361 . S
C1158 C1157 1.397 . S
C1158 C1162 1.390 . S
C1159 C1157 1.361 . S
C1159 C1160 1.393 . S
C1159 N1163 1.413 . S
C1160 H1153 0.930 . S
C1160 C1159 1.393 . S
C1160 C1161 1.399 . S
C1161 C1160 1.399 . S
C1161 C1162 1.381 . S
C1162 H1154 0.930 . S
C1162 C1158 1.390 . S
C1162 C1161 1.381 . S
N1163 C1156 1.286 . S
N1163 C1159 1.413 . S
H1164 C1169 0.930 . S
H1165 C1172 0.930 . S
H1166 C1174 0.930 . S
H1167 C1168 1.016 1_655 S
C1168 H1167 1.016 1_455 S
C1168 N1175 1.286 . S
C1169 H1164 0.930 . S
C1169 C1170 1.397 . S
C1169 C1171 1.361 . S
C1170 C1169 1.397 . S
C1170 C1174 1.390 1_455 S
C1171 C1169 1.361 . S
C1171 C1172 1.393 1_455 S
C1171 N1175 1.413 . S
C1172 H1165 0.930 . S
C1172 C1171 1.393 1_655 S
C1172 C1173 1.399 . S
C1173 C1172 1.399 . S
C1173 C1174 1.381 . S
C1174 H1166 0.930 . S
C1174 C1170 1.390 1_655 S
C1174 C1173 1.381 . S
N1175 C1168 1.286 . S
N1175 C1171 1.413 . S
H1176 C1181 0.930 . S
H1177 C1184 0.930 . S
H1178 C1186 0.930 . S
H1179 C1180 1.016 1_455 S
C1180 H1179 1.016 1_655 S
C1180 N1187 1.286 . S
C1181 H1176 0.930 . S
C1181 C1182 1.397 . S
C1181 C1183 1.361 . S
C1182 C1181 1.397 . S
C1182 C1186 1.390 1_655 S
C1183 C1181 1.361 . S
C1183 C1184 1.393 1_655 S
C1183 N1187 1.413 . S
C1184 H1177 0.930 . S
C1184 C1183 1.393 1_455 S
C1184 C1185 1.399 . S
C1185 C1184 1.399 . S
C1185 C1186 1.381 . S
C1186 H1178 0.930 . S
C1186 C1182 1.390 1_455 S
C1186 C1185 1.381 . S
N1187 C1180 1.286 . S
N1187 C1183 1.413 . S
H1188 C1193 0.930 . S
H1189 C1196 0.930 . S
H1190 C1198 0.930 . S
H1191 C1192 1.016 . S
C1192 H1191 1.016 . S
C1192 N1199 1.286 . S
C1193 H1188 0.930 . S
C1193 C1194 1.397 . S
C1193 C1195 1.361 1_554 S
C1194 C1193 1.397 . S
C1194 C1198 1.390 . S
C1195 C1193 1.361 1_556 S
C1195 C1196 1.393 . S
C1195 N1199 1.413 . S
C1196 H1189 0.930 . S
C1196 C1195 1.393 . S
C1196 C1197 1.399 1_556 S
C1197 C1196 1.399 1_554 S
C1197 C1198 1.381 . S
C1198 H1190 0.930 . S
C1198 C1194 1.390 . S
C1198 C1197 1.381 . S
N1199 C1192 1.286 . S
N1199 C1195 1.413 . S
H1200 C1205 0.930 . S
H1201 C1208 0.930 . S
H1202 C1210 0.930 . S
H1203 C1204 1.016 . S
C1204 H1203 1.016 . S
C1204 N1211 1.286 . S
C1205 H1200 0.930 . S
C1205 C1206 1.397 . S
C1205 C1207 1.361 . S
C1206 C1205 1.397 . S
C1206 C1210 1.390 . S
C1207 C1205 1.361 . S
C1207 C1208 1.393 . S
C1207 N1211 1.413 . S
C1208 H1201 0.930 . S
C1208 C1207 1.393 . S
C1208 C1209 1.399 . S
C1209 C1208 1.399 . S
C1209 C1210 1.381 . S
C1210 H1202 0.930 . S
C1210 C1206 1.390 . S
C1210 C1209 1.381 . S
N1211 C1204 1.286 . S
N1211 C1207 1.413 . S
H1212 C1217 0.930 . S
H1213 C1220 0.930 . S
H1214 C1222 0.930 . S
H1215 C1216 1.016 1_565 S
C1216 H1215 1.016 1_545 S
C1216 N1223 1.286 . S
C1217 H1212 0.930 . S
C1217 C1218 1.397 . S
C1217 C1219 1.361 . S
C1218 C1217 1.397 . S
C1218 C1222 1.390 1_545 S
C1219 C1217 1.361 . S
C1219 C1220 1.393 1_545 S
C1219 N1223 1.413 . S
C1220 H1213 0.930 . S
C1220 C1219 1.393 1_565 S
C1220 C1221 1.399 . S
C1221 C1220 1.399 . S
C1221 C1222 1.381 . S
C1222 H1214 0.930 . S
C1222 C1218 1.390 1_565 S
C1222 C1221 1.381 . S
N1223 C1216 1.286 . S
N1223 C1219 1.413 . S
H1224 C1229 0.930 . S
H1225 C1232 0.930 . S
H1226 C1234 0.930 . S
H1227 C1228 1.016 1_545 S
C1228 H1227 1.016 1_565 S
C1228 N1235 1.286 . S
C1229 H1224 0.930 . S
C1229 C1230 1.397 . S
C1229 C1231 1.361 . S
C1230 C1229 1.397 . S
C1230 C1234 1.390 1_565 S
C1231 C1229 1.361 . S
C1231 C1232 1.393 1_565 S
C1231 N1235 1.413 . S
C1232 H1225 0.930 . S
C1232 C1231 1.393 1_545 S
C1232 C1233 1.399 . S
C1233 C1232 1.399 . S
C1233 C1234 1.381 . S
C1234 H1226 0.930 . S
C1234 C1230 1.390 1_545 S
C1234 C1233 1.381 . S
N1235 C1228 1.286 . S
N1235 C1231 1.413 . S
H1236 C1241 0.930 . S
H1237 C1244 0.930 . S
H1238 C1246 0.930 . S
H1239 C1240 1.016 . S
C1240 H1239 1.016 . S
C1240 N1247 1.286 . S
C1241 H1236 0.930 . S
C1241 C1242 1.397 . S
C1241 C1243 1.361 1_455 S
C1242 C1241 1.397 . S
C1242 C1246 1.390 . S
C1243 C1241 1.361 1_655 S
C1243 C1244 1.393 . S
C1243 N1247 1.413 . S
C1244 H1237 0.930 . S
C1244 C1243 1.393 . S
C1244 C1245 1.399 1_655 S
C1245 C1244 1.399 1_455 S
C1245 C1246 1.381 . S
C1246 H1238 0.930 . S
C1246 C1242 1.390 . S
C1246 C1245 1.381 . S
N1247 C1240 1.286 . S
N1247 C1243 1.413 . S
C1248 C1249 1.369 . S
C1248 C1250 1.419 . S
C1248 H1252 0.930 . S
C1249 C1248 1.369 . S
C1249 C1258 1.429 . S
C1250 C1248 1.419 . S
C1250 C1251 1.363 . S
C1250 H1253 0.929 . S
C1251 C1250 1.363 . S
C1251 C1257 1.428 . S
H1252 C1248 0.930 . S
H1253 C1250 0.929 . S
S1254 N1255 1.613 . S
S1254 N1256 1.610 . S
N1255 S1254 1.613 . S
N1255 C1258 1.350 . S
N1256 S1254 1.610 . S
N1256 C1257 1.351 . S
C1257 C1251 1.428 . S
C1257 N1256 1.351 . S
C1257 C1258 1.434 . S
C1258 C1249 1.429 . S
C1258 N1255 1.350 . S
C1258 C1257 1.434 . S
C1259 C1260 1.369 . S
C1259 C1261 1.419 . S
C1259 H1263 0.930 . S
C1260 C1259 1.369 . S
C1260 C1269 1.429 . S
C1261 C1259 1.419 . S
C1261 C1262 1.363 . S
C1261 H1264 0.929 . S
C1262 C1261 1.363 . S
C1262 C1268 1.428 . S
H1263 C1259 0.930 . S
H1264 C1261 0.929 . S
S1265 N1266 1.613 . S
S1265 N1267 1.610 . S
N1266 S1265 1.613 . S
N1266 C1269 1.350 . S
N1267 S1265 1.610 . S
N1267 C1268 1.351 . S
C1268 C1262 1.428 . S
C1268 N1267 1.351 . S
C1268 C1269 1.434 . S
C1269 C1260 1.429 . S
C1269 N1266 1.350 . S
C1269 C1268 1.434 . S
C1270 C1271 1.369 . S
C1270 C1272 1.419 . S
C1270 H1274 0.930 . S
C1271 C1270 1.369 . S
C1271 C1280 1.429 1_565 S
C1272 C1270 1.419 . S
C1272 C1273 1.363 . S
C1272 H1275 0.929 . S
C1273 C1272 1.363 . S
C1273 C1279 1.428 1_565 S
H1274 C1270 0.930 . S
H1275 C1272 0.929 . S
S1276 N1277 1.613 . S
S1276 N1278 1.610 . S
N1277 S1276 1.613 . S
N1277 C1280 1.350 . S
N1278 S1276 1.610 . S
N1278 C1279 1.351 . S
C1279 C1273 1.428 1_545 S
C1279 N1278 1.351 . S
C1279 C1280 1.434 . S
C1280 C1271 1.429 1_545 S
C1280 N1277 1.350 . S
C1280 C1279 1.434 . S
C1281 C1282 1.369 . S
C1281 C1283 1.419 1_655 S
C1281 H1285 0.930 1_545 S
C1282 C1281 1.369 . S
C1282 C1291 1.429 . S
C1283 C1281 1.419 1_455 S
C1283 C1284 1.363 . S
C1283 H1286 0.929 1_545 S
C1284 C1283 1.363 . S
C1284 C1290 1.428 . S
H1285 C1281 0.930 1_565 S
H1286 C1283 0.929 1_565 S
S1287 N1288 1.613 . S
S1287 N1289 1.610 1_655 S
N1288 S1287 1.613 . S
N1288 C1291 1.350 . S
N1289 S1287 1.610 1_455 S
N1289 C1290 1.351 . S
C1290 C1284 1.428 . S
C1290 N1289 1.351 . S
C1290 C1291 1.434 1_455 S
C1291 C1282 1.429 . S
C1291 N1288 1.350 . S
C1291 C1290 1.434 1_655 S
C1292 C1293 1.369 . S
C1292 C1294 1.419 . S
C1292 H1296 0.930 . S
C1293 C1292 1.369 . S
C1293 C1302 1.429 . S
C1294 C1292 1.419 . S
C1294 C1295 1.363 . S
C1294 H1297 0.929 . S
C1295 C1294 1.363 . S
C1295 C1301 1.428 . S
H1296 C1292 0.930 . S
H1297 C1294 0.929 . S
S1298 N1299 1.613 . S
S1298 N1300 1.610 . S
N1299 S1298 1.613 . S
N1299 C1302 1.350 . S
N1300 S1298 1.610 . S
N1300 C1301 1.351 . S
C1301 C1295 1.428 . S
C1301 N1300 1.351 . S
C1301 C1302 1.434 . S
C1302 C1293 1.429 . S
C1302 N1299 1.350 . S
C1302 C1301 1.434 . S
C1303 C1304 1.369 . S
C1303 C1305 1.461 . S
C1303 H1307 0.930 . S
C1304 C1303 1.369 . S
C1304 C1313 1.429 . S
C1305 C1303 1.461 . S
C1305 C1306 1.330 1_565 S
C1305 H1308 0.920 1_565 S
C1306 C1305 1.330 1_545 S
C1306 C1312 1.428 . S
H1307 C1303 0.930 . S
H1308 C1305 0.920 1_545 S
S1309 N1310 1.613 1_545 S
S1309 N1311 1.610 . S
N1310 S1309 1.613 1_565 S
N1310 C1313 1.350 . S
N1311 S1309 1.610 . S
N1311 C1312 1.351 . S
C1312 C1306 1.428 . S
C1312 N1311 1.351 . S
C1312 C1313 1.434 1_545 S
C1313 C1304 1.429 . S
C1313 N1310 1.350 . S
C1313 C1312 1.434 1_565 S
C1314 C1315 1.369 . S
C1314 C1316 1.419 . S
C1314 H1318 0.930 . S
C1315 C1314 1.369 . S
C1315 C1324 1.429 . S
C1316 C1314 1.419 . S
C1316 C1317 1.363 . S
C1316 H1319 0.929 . S
C1317 C1316 1.363 . S
C1317 C1323 1.428 . S
H1318 C1314 0.930 . S
H1319 C1316 0.929 . S
S1320 N1321 1.613 . S
S1320 N1322 1.610 . S
N1321 S1320 1.613 . S
N1321 C1324 1.350 . S
N1322 S1320 1.610 . S
N1322 C1323 1.351 . S
C1323 C1317 1.428 . S
C1323 N1322 1.351 . S
C1323 C1324 1.434 . S
C1324 C1315 1.429 . S
C1324 N1321 1.350 . S
C1324 C1323 1.434 . S
C1325 C1326 1.369 . S
C1325 C1327 1.419 . S
C1325 H1329 0.930 . S
C1326 C1325 1.369 . S
C1326 C1335 1.429 . S
C1327 C1325 1.419 . S
C1327 C1328 1.363 . S
C1327 H1330 0.929 . S
C1328 C1327 1.363 . S
C1328 C1334 1.428 . S
H1329 C1325 0.930 . S
H1330 C1327 0.929 . S
S1331 N1332 1.613 . S
S1331 N1333 1.610 . S
N1332 S1331 1.613 . S
N1332 C1335 1.350 . S
N1333 S1331 1.610 . S
N1333 C1334 1.351 . S
C1334 C1328 1.428 . S
C1334 N1333 1.351 . S
C1334 C1335 1.434 . S
C1335 C1326 1.429 . S
C1335 N1332 1.350 . S
C1335 C1334 1.434 . S
C1336 C1337 1.369 . S
C1336 C1338 1.419 . S
C1336 H1340 0.930 . S
C1337 C1336 1.369 . S
C1337 C1346 1.429 . S
C1338 C1336 1.419 . S
C1338 C1339 1.363 . S
C1338 H1341 0.929 . S
C1339 C1338 1.363 . S
C1339 C1345 1.428 . S
H1340 C1336 0.930 . S
H1341 C1338 0.929 . S
S1342 N1343 1.613 . S
S1342 N1344 1.610 . S
N1343 S1342 1.613 . S
N1343 C1346 1.350 . S
N1344 S1342 1.610 . S
N1344 C1345 1.351 . S
C1345 C1339 1.428 . S
C1345 N1344 1.351 . S
C1345 C1346 1.434 . S
C1346 C1337 1.429 . S
C1346 N1343 1.350 . S
C1346 C1345 1.434 . S
C1347 C1348 1.369 . S
C1347 C1349 1.419 1_556 S
C1347 H1351 0.930 . S
C1348 C1347 1.369 . S
C1348 C1357 1.429 1_455 S
C1349 C1347 1.419 1_554 S
C1349 C1350 1.363 . S
C1349 H1352 0.929 . S
C1350 C1349 1.363 . S
C1350 C1356 1.428 1_455 S
H1351 C1347 0.930 . S
H1352 C1349 0.929 . S
S1353 N1354 1.613 . S
S1353 N1355 1.610 1_556 S
N1354 S1353 1.613 . S
N1354 C1357 1.350 . S
N1355 S1353 1.610 1_554 S
N1355 C1356 1.351 . S
C1356 C1350 1.428 1_655 S
C1356 N1355 1.351 . S
C1356 C1357 1.434 1_554 S
C1357 C1348 1.429 1_655 S
C1357 N1354 1.350 . S
C1357 C1356 1.434 1_556 S
C1358 C1359 1.369 . S
C1358 C1360 1.419 . S
C1358 H1362 0.930 . S
C1359 C1358 1.369 . S
C1359 C1368 1.429 . S
C1360 C1358 1.419 . S
C1360 C1361 1.363 . S
C1360 H1363 0.929 . S
C1361 C1360 1.363 . S
C1361 C1367 1.428 . S
H1362 C1358 0.930 . S
H1363 C1360 0.929 . S
S1364 N1365 1.613 . S
S1364 N1366 1.610 . S
N1365 S1364 1.613 . S
N1365 C1368 1.350 . S
N1366 S1364 1.610 . S
N1366 C1367 1.351 . S
C1367 C1361 1.428 . S
C1367 N1366 1.351 . S
C1367 C1368 1.434 . S
C1368 C1359 1.429 . S
C1368 N1365 1.350 . S
C1368 C1367 1.434 . S
C1369 C1370 1.369 . S
C1369 C1371 1.419 . S
C1369 H1373 0.930 . S
C1370 C1369 1.369 . S
C1370 C1379 1.429 . S
C1371 C1369 1.419 . S
C1371 C1372 1.363 . S
C1371 H1374 0.929 . S
C1372 C1371 1.363 . S
C1372 C1378 1.428 . S
H1373 C1369 0.930 . S
H1374 C1371 0.929 . S
S1375 N1376 1.613 . S
S1375 N1377 1.610 1_455 S
N1376 S1375 1.613 . S
N1376 C1379 1.344 1_455 S
N1377 S1375 1.610 1_655 S
N1377 C1378 1.351 . S
C1378 C1372 1.428 . S
C1378 N1377 1.351 . S
C1378 C1379 1.443 . S
C1379 C1370 1.429 . S
C1379 N1376 1.344 1_655 S
C1379 C1378 1.443 . S
C1380 C1381 1.369 . S
C1380 C1382 1.419 . S
C1380 H1384 0.930 . S
C1381 C1380 1.369 . S
C1381 C1390 1.429 . S
C1382 C1380 1.419 . S
C1382 C1383 1.363 . S
C1382 H1385 0.929 . S
C1383 C1382 1.363 . S
C1383 C1389 1.428 . S
H1384 C1380 0.930 . S
H1385 C1382 0.929 . S
S1386 N1387 1.613 . S
S1386 N1388 1.610 . S
N1387 S1386 1.613 . S
N1387 C1390 1.350 . S
N1388 S1386 1.610 . S
N1388 C1389 1.351 . S
C1389 C1383 1.428 . S
C1389 N1388 1.351 . S
C1389 C1390 1.434 . S
C1390 C1381 1.429 . S
C1390 N1387 1.350 . S
C1390 C1389 1.434 . S
C1391 C1392 1.369 . S
C1391 C1393 1.419 . S
C1391 H1395 0.930 . S
C1392 C1391 1.369 . S
C1392 C1401 1.429 . S
C1393 C1391 1.419 . S
C1393 C1394 1.363 . S
C1393 H1396 0.929 . S
C1394 C1393 1.363 . S
C1394 C1400 1.428 . S
H1395 C1391 0.930 . S
H1396 C1393 0.929 . S
S1397 N1398 1.613 . S
S1397 N1399 1.610 . S
N1398 S1397 1.613 . S
N1398 C1401 1.350 . S
N1399 S1397 1.610 . S
N1399 C1400 1.351 . S
C1400 C1394 1.428 . S
C1400 N1399 1.351 . S
C1400 C1401 1.434 . S
C1401 C1392 1.429 . S
C1401 N1398 1.350 . S
C1401 C1400 1.434 . S
C1402 C1403 1.369 . S
C1402 C1404 1.419 . S
C1402 H1406 0.930 . S
C1403 C1402 1.369 . S
C1403 C1412 1.429 1_545 S
C1404 C1402 1.419 . S
C1404 C1405 1.363 . S
C1404 H1407 0.929 . S
C1405 C1404 1.363 . S
C1405 C1411 1.428 1_545 S
H1406 C1402 0.930 . S
H1407 C1404 0.929 . S
S1408 N1409 1.613 . S
S1408 N1410 1.610 . S
N1409 S1408 1.613 . S
N1409 C1412 1.350 . S
N1410 S1408 1.610 . S
N1410 C1411 1.351 . S
C1411 C1405 1.428 1_565 S
C1411 N1410 1.351 . S
C1411 C1412 1.434 . S
C1412 C1403 1.429 1_565 S
C1412 N1409 1.350 . S
C1412 C1411 1.434 . S
C1413 C1414 1.369 . S
C1413 C1415 1.392 1_455 S
C1413 H1417 0.930 . S
C1414 C1413 1.369 . S
C1414 C1423 1.429 . S
C1415 C1413 1.392 1_655 S
C1415 C1416 1.383 . S
C1415 H1418 0.936 . S
C1416 C1415 1.383 . S
C1416 C1422 1.428 . S
H1417 C1413 0.930 . S
H1418 C1415 0.936 . S
S1419 N1420 1.613 1_655 S
S1419 N1421 1.610 . S
N1420 S1419 1.613 1_455 S
N1420 C1423 1.350 1_545 S
N1421 S1419 1.610 . S
N1421 C1422 1.351 1_545 S
C1422 C1416 1.428 . S
C1422 N1421 1.351 1_565 S
C1422 C1423 1.434 1_655 S
C1423 C1414 1.429 . S
C1423 N1420 1.350 1_565 S
C1423 C1422 1.434 1_455 S
C1424 C1425 1.369 . S
C1424 C1426 1.419 . S
C1424 H1428 0.930 . S
C1425 C1424 1.369 . S
C1425 C1434 1.429 . S
C1426 C1424 1.419 . S
C1426 C1427 1.363 . S
C1426 H1429 0.929 . S
C1427 C1426 1.363 . S
C1427 C1433 1.428 . S
H1428 C1424 0.930 . S
H1429 C1426 0.929 . S
S1430 N1431 1.613 . S
S1430 N1432 1.610 . S
N1431 S1430 1.613 . S
N1431 C1434 1.350 . S
N1432 S1430 1.610 . S
N1432 C1433 1.351 . S
C1433 C1427 1.428 . S
C1433 N1432 1.351 . S
C1433 C1434 1.434 . S
C1434 C1425 1.429 . S
C1434 N1431 1.350 . S
C1434 C1433 1.434 . S
C1435 C1436 1.369 . S
C1435 C1437 1.419 1_545 S
C1435 H1439 0.930 . S
C1436 C1435 1.369 . S
C1436 C1445 1.429 1_556 S
C1437 C1435 1.419 1_565 S
C1437 C1438 1.363 . S
C1437 H1440 0.929 . S
C1438 C1437 1.363 . S
C1438 C1444 1.438 1_556 S
H1439 C1435 0.930 . S
H1440 C1437 0.929 . S
S1441 N1442 1.613 . S
S1441 N1443 1.610 1_545 S
N1442 S1441 1.613 . S
N1442 C1445 1.350 . S
N1443 S1441 1.610 1_565 S
N1443 C1444 1.355 . S
C1444 C1438 1.438 1_554 S
C1444 N1443 1.355 . S
C1444 C1445 1.419 1_565 S
C1445 C1436 1.429 1_554 S
C1445 N1442 1.350 . S
C1445 C1444 1.419 1_545 S
C1446 C1447 1.369 . S
C1446 C1448 1.419 . S
C1446 H1450 0.930 . S
C1447 C1446 1.369 . S
C1447 C1456 1.429 . S
C1448 C1446 1.419 . S
C1448 C1449 1.363 . S
C1448 H1451 0.929 . S
C1449 C1448 1.363 . S
C1449 C1455 1.428 . S
H1450 C1446 0.930 . S
H1451 C1448 0.929 . S
S1452 N1453 1.613 . S
S1452 N1454 1.610 . S
N1453 S1452 1.613 . S
N1453 C1456 1.350 . S
N1454 S1452 1.610 . S
N1454 C1455 1.351 . S
C1455 C1449 1.428 . S
C1455 N1454 1.351 . S
C1455 C1456 1.434 . S
C1456 C1447 1.429 . S
C1456 N1453 1.350 . S
C1456 C1455 1.434 . S
C1457 C1458 1.369 1_556 S
C1457 C1459 1.419 . S
C1457 H1461 0.930 . S
C1458 C1457 1.369 1_554 S
C1458 C1467 1.429 . S
C1459 C1457 1.419 . S
C1459 C1460 1.363 1_556 S
C1459 H1462 0.929 . S
C1460 C1459 1.363 1_554 S
C1460 C1466 1.428 . S
H1461 C1457 0.930 . S
H1462 C1459 0.929 . S
S1463 N1464 1.613 . S
S1463 N1465 1.610 . S
N1464 S1463 1.613 . S
N1464 C1467 1.350 . S
N1465 S1463 1.610 . S
N1465 C1466 1.351 . S
C1466 C1460 1.428 . S
C1466 N1465 1.351 . S
C1466 C1467 1.434 . S
C1467 C1458 1.429 . S
C1467 N1464 1.350 . S
C1467 C1466 1.434 . S
C1468 C1469 1.369 . S
C1468 C1470 1.419 . S
C1468 H1472 0.930 . S
C1469 C1468 1.369 . S
C1469 C1478 1.429 . S
C1470 C1468 1.419 . S
C1470 C1471 1.363 . S
C1470 H1473 0.929 . S
C1471 C1470 1.363 . S
C1471 C1477 1.428 . S
H1472 C1468 0.930 . S
H1473 C1470 0.929 . S
S1474 N1475 1.613 . S
S1474 N1476 1.610 . S
N1475 S1474 1.613 . S
N1475 C1478 1.350 . S
N1476 S1474 1.610 . S
N1476 C1477 1.351 . S
C1477 C1471 1.428 . S
C1477 N1476 1.351 . S
C1477 C1478 1.434 . S
C1478 C1469 1.429 . S
C1478 N1475 1.350 . S
C1478 C1477 1.434 . S
C1479 C1480 1.369 . S
C1479 C1481 1.419 1_554 S
C1479 H1483 0.930 . S
C1480 C1479 1.369 . S
C1480 C1489 1.429 1_655 S
C1481 C1479 1.419 1_556 S
C1481 C1482 1.363 . S
C1481 H1484 0.929 . S
C1482 C1481 1.363 . S
C1482 C1488 1.428 1_655 S
H1483 C1479 0.930 . S
H1484 C1481 0.929 . S
S1485 N1486 1.613 . S
S1485 N1487 1.610 1_554 S
N1486 S1485 1.613 . S
N1486 C1489 1.350 . S
N1487 S1485 1.610 1_556 S
N1487 C1488 1.351 . S
C1488 C1482 1.428 1_455 S
C1488 N1487 1.351 . S
C1488 C1489 1.434 1_556 S
C1489 C1480 1.429 1_455 S
C1489 N1486 1.350 . S
C1489 C1488 1.434 1_554 S
C1490 C1491 1.369 . S
C1490 C1492 1.419 . S
C1490 H1494 0.930 . S
C1491 C1490 1.369 . S
C1491 C1500 1.429 . S
C1492 C1490 1.419 . S
C1492 C1493 1.363 . S
C1492 H1495 0.929 . S
C1493 C1492 1.363 . S
C1493 C1499 1.428 . S
H1494 C1490 0.930 . S
H1495 C1492 0.929 . S
S1496 N1497 1.613 . S
S1496 N1498 1.610 . S
N1497 S1496 1.613 . S
N1497 C1500 1.350 . S
N1498 S1496 1.610 . S
N1498 C1499 1.351 . S
C1499 C1493 1.428 . S
C1499 N1498 1.351 . S
C1499 C1500 1.434 . S
C1500 C1491 1.429 . S
C1500 N1497 1.350 . S
C1500 C1499 1.434 . S
C1501 C1502 1.369 . S
C1501 C1503 1.419 . S
C1501 H1505 0.930 . S
C1502 C1501 1.369 . S
C1502 C1511 1.429 1_455 S
C1503 C1501 1.419 . S
C1503 C1504 1.363 . S
C1503 H1506 0.929 . S
C1504 C1503 1.363 . S
C1504 C1510 1.428 1_455 S
H1505 C1501 0.930 . S
H1506 C1503 0.929 . S
S1507 N1508 1.613 . S
S1507 N1509 1.610 . S
N1508 S1507 1.613 . S
N1508 C1511 1.350 . S
N1509 S1507 1.610 . S
N1509 C1510 1.351 . S
C1510 C1504 1.428 1_655 S
C1510 N1509 1.351 . S
C1510 C1511 1.434 . S
C1511 C1502 1.429 1_655 S
C1511 N1508 1.350 . S
C1511 C1510 1.434 . S
C1512 C1513 1.369 . S
C1512 C1514 1.419 . S
C1512 H1516 0.930 . S
C1513 C1512 1.369 . S
C1513 C1522 1.429 . S
C1514 C1512 1.419 . S
C1514 C1515 1.363 . S
C1514 H1517 0.929 . S
C1515 C1514 1.363 . S
C1515 C1521 1.428 . S
H1516 C1512 0.930 . S
H1517 C1514 0.929 . S
S1518 N1519 1.613 . S
S1518 N1520 1.610 . S
N1519 S1518 1.613 . S
N1519 C1522 1.350 . S
N1520 S1518 1.610 . S
N1520 C1521 1.351 . S
C1521 C1515 1.428 . S
C1521 N1520 1.351 . S
C1521 C1522 1.434 . S
C1522 C1513 1.429 . S
C1522 N1519 1.350 . S
C1522 C1521 1.434 . S
C1523 C1524 1.369 . S
C1523 C1525 1.419 . S
C1523 H1527 0.930 . S
C1524 C1523 1.369 . S
C1524 C1533 1.429 . S
C1525 C1523 1.419 . S
C1525 C1526 1.363 . S
C1525 H1528 0.929 . S
C1526 C1525 1.363 . S
C1526 C1532 1.428 . S
H1527 C1523 0.930 . S
H1528 C1525 0.929 . S
S1529 N1530 1.613 . S
S1529 N1531 1.610 . S
N1530 S1529 1.613 . S
N1530 C1533 1.350 . S
N1531 S1529 1.610 . S
N1531 C1532 1.351 . S
C1532 C1526 1.428 . S
C1532 N1531 1.351 . S
C1532 C1533 1.434 . S
C1533 C1524 1.429 . S
C1533 N1530 1.350 . S
C1533 C1532 1.434 . S
C1534 C1535 1.366 1_565 S
C1534 C1536 1.419 . S
C1534 H1538 0.930 . S
C1535 C1534 1.366 1_545 S
C1535 C1544 1.432 . S
C1536 C1534 1.419 . S
C1536 C1537 1.363 . S
C1536 H1539 0.929 . S
C1537 C1536 1.363 . S
C1537 C1543 1.428 1_565 S
H1538 C1534 0.930 . S
H1539 C1536 0.929 . S
S1540 N1541 1.613 . S
S1540 N1542 1.610 . S
N1541 S1540 1.613 . S
N1541 C1544 1.350 . S
N1542 S1540 1.610 . S
N1542 C1543 1.351 . S
C1543 C1537 1.428 1_545 S
C1543 N1542 1.351 . S
C1543 C1544 1.434 . S
C1544 C1535 1.432 . S
C1544 N1541 1.350 . S
C1544 C1543 1.434 . S
C1545 C1546 1.369 . S
C1545 C1547 1.419 . S
C1545 H1549 0.930 . S
C1546 C1545 1.369 . S
C1546 C1555 1.429 . S
C1547 C1545 1.419 . S
C1547 C1548 1.363 . S
C1547 H1550 0.929 . S
C1548 C1547 1.363 . S
C1548 C1554 1.428 . S
H1549 C1545 0.930 . S
H1550 C1547 0.929 . S
S1551 N1552 1.613 . S
S1551 N1553 1.610 . S
N1552 S1551 1.613 . S
N1552 C1555 1.350 . S
N1553 S1551 1.610 . S
N1553 C1554 1.351 . S
C1554 C1548 1.428 . S
C1554 N1553 1.351 . S
C1554 C1555 1.434 . S
C1555 C1546 1.429 . S
C1555 N1552 1.350 . S
C1555 C1554 1.434 . S
C1556 C1557 1.369 . S
C1556 C1558 1.419 . S
C1556 H1560 0.930 . S
C1557 C1556 1.369 . S
C1557 C1566 1.429 . S
C1558 C1556 1.419 . S
C1558 C1559 1.363 . S
C1558 H1561 0.929 . S
C1559 C1558 1.363 . S
C1559 C1565 1.428 . S
H1560 C1556 0.930 . S
H1561 C1558 0.929 . S
S1562 N1563 1.613 . S
S1562 N1564 1.610 . S
N1563 S1562 1.613 . S
N1563 C1566 1.350 . S
N1564 S1562 1.610 . S
N1564 C1565 1.351 . S
C1565 C1559 1.428 . S
C1565 N1564 1.351 . S
C1565 C1566 1.434 . S
C1566 C1557 1.429 . S
C1566 N1563 1.350 . S
C1566 C1565 1.434 . S
C1567 C1568 1.369 . S
C1567 C1569 1.419 . S
C1567 H1571 0.930 . S
C1568 C1567 1.369 . S
C1568 C1577 1.429 . S
C1569 C1567 1.419 . S
C1569 C1570 1.363 . S
C1569 H1572 0.929 . S
C1570 C1569 1.363 . S
C1570 C1576 1.428 . S
H1571 C1567 0.930 . S
H1572 C1569 0.929 . S
S1573 N1574 1.613 . S
S1573 N1575 1.610 . S
N1574 S1573 1.613 . S
N1574 C1577 1.350 . S
N1575 S1573 1.610 . S
N1575 C1576 1.351 . S
C1576 C1570 1.428 . S
C1576 N1575 1.351 . S
C1576 C1577 1.434 . S
C1577 C1568 1.429 . S
C1577 N1574 1.350 . S
C1577 C1576 1.434 . S
C1578 C1579 1.369 . S
C1578 C1580 1.419 . S
C1578 H1582 0.930 . S
C1579 C1578 1.369 . S
C1579 C1588 1.429 . S
C1580 C1578 1.419 . S
C1580 C1581 1.363 . S
C1580 H1583 0.929 . S
C1581 C1580 1.363 . S
C1581 C1587 1.428 . S
H1582 C1578 0.930 . S
H1583 C1580 0.929 . S
S1584 N1585 1.613 . S
S1584 N1586 1.610 . S
N1585 S1584 1.613 . S
N1585 C1588 1.350 . S
N1586 S1584 1.610 . S
N1586 C1587 1.351 . S
C1587 C1581 1.428 . S
C1587 N1586 1.351 . S
C1587 C1588 1.434 . S
C1588 C1579 1.429 . S
C1588 N1585 1.350 . S
C1588 C1587 1.434 . S
C1589 C1590 1.372 1_556 S
C1589 C1591 1.419 . S
C1589 H1593 0.930 . S
C1590 C1589 1.372 1_554 S
C1590 C1599 1.426 . S
C1591 C1589 1.419 . S
C1591 C1592 1.363 . S
C1591 H1594 0.929 . S
C1592 C1591 1.363 . S
C1592 C1598 1.428 1_556 S
H1593 C1589 0.930 . S
H1594 C1591 0.929 . S
S1595 N1596 1.613 . S
S1595 N1597 1.610 . S
N1596 S1595 1.613 . S
N1596 C1599 1.350 . S
N1597 S1595 1.610 . S
N1597 C1598 1.351 . S
C1598 C1592 1.428 1_554 S
C1598 N1597 1.351 . S
C1598 C1599 1.434 . S
C1599 C1590 1.426 . S
C1599 N1596 1.350 . S
C1599 C1598 1.434 . S
C1600 C1601 1.369 . S
C1600 C1602 1.419 . S
C1600 H1604 0.930 . S
C1601 C1600 1.369 . S
C1601 C1610 1.429 . S
C1602 C1600 1.419 . S
C1602 C1603 1.363 . S
C1602 H1605 0.929 . S
C1603 C1602 1.363 . S
C1603 C1609 1.428 . S
H1604 C1600 0.930 . S
H1605 C1602 0.929 . S
S1606 N1607 1.613 . S
S1606 N1608 1.610 . S
N1607 S1606 1.613 . S
N1607 C1610 1.350 . S
N1608 S1606 1.610 . S
N1608 C1609 1.351 . S
C1609 C1603 1.428 . S
C1609 N1608 1.351 . S
C1609 C1610 1.434 . S
C1610 C1601 1.429 . S
C1610 N1607 1.350 . S
C1610 C1609 1.434 . S
C1611 C1612 1.369 . S
C1611 C1613 1.419 . S
C1611 H1615 0.930 . S
C1612 C1611 1.369 . S
C1612 C1621 1.429 . S
C1613 C1611 1.419 . S
C1613 C1614 1.363 . S
C1613 H1616 0.929 . S
C1614 C1613 1.363 . S
C1614 C1620 1.428 . S
H1615 C1611 0.930 . S
H1616 C1613 0.929 . S
S1617 N1618 1.619 . S
S1617 N1619 1.627 . S
N1618 S1617 1.619 . S
N1618 C1621 1.350 . S
N1619 S1617 1.627 . S
N1619 C1620 1.351 . S
C1620 C1614 1.428 . S
C1620 N1619 1.351 . S
C1620 C1621 1.434 . S
C1621 C1612 1.429 . S
C1621 N1618 1.350 . S
C1621 C1620 1.434 . S
C1622 C1623 1.369 . S
C1622 C1624 1.419 . S
C1622 H1626 0.930 . S
C1623 C1622 1.369 . S
C1623 C1632 1.429 . S
C1624 C1622 1.419 . S
C1624 C1625 1.363 . S
C1624 H1627 0.929 . S
C1625 C1624 1.363 . S
C1625 C1631 1.428 . S
H1626 C1622 0.930 . S
H1627 C1624 0.929 . S
S1628 N1629 1.613 . S
S1628 N1630 1.610 . S
N1629 S1628 1.613 . S
N1629 C1632 1.350 1_545 S
N1630 S1628 1.610 . S
N1630 C1631 1.351 1_545 S
C1631 C1625 1.428 . S
C1631 N1630 1.351 1_565 S
C1631 C1632 1.434 . S
C1632 C1623 1.429 . S
C1632 N1629 1.350 1_565 S
C1632 C1631 1.434 . S
C1633 C1634 1.357 1_455 S
C1633 C1635 1.419 . S
C1633 H1637 0.930 . S
C1634 C1633 1.357 1_655 S
C1634 C1643 1.440 . S
C1635 C1633 1.419 . S
C1635 C1636 1.363 1_455 S
C1635 H1638 0.929 . S
C1636 C1635 1.363 1_655 S
C1636 C1642 1.428 . S
H1637 C1633 0.930 . S
H1638 C1635 0.929 . S
S1639 N1640 1.613 . S
S1639 N1641 1.610 . S
N1640 S1639 1.613 . S
N1640 C1643 1.350 . S
N1641 S1639 1.610 . S
N1641 C1642 1.351 . S
C1642 C1636 1.428 . S
C1642 N1641 1.351 . S
C1642 C1643 1.434 . S
C1643 C1634 1.440 . S
C1643 N1640 1.350 . S
C1643 C1642 1.434 . S
C1644 C1645 1.369 . S
C1644 C1646 1.419 . S
C1644 H1648 0.930 . S
C1645 C1644 1.369 . S
C1645 C1654 1.429 . S
C1646 C1644 1.419 . S
C1646 C1647 1.363 . S
C1646 H1649 0.929 . S
C1647 C1646 1.363 . S
C1647 C1653 1.428 . S
H1648 C1644 0.930 . S
H1649 C1646 0.929 . S
S1650 N1651 1.613 . S
S1650 N1652 1.610 . S
N1651 S1650 1.613 . S
N1651 C1654 1.350 . S
N1652 S1650 1.610 . S
N1652 C1653 1.351 . S
C1653 C1647 1.428 . S
C1653 N1652 1.351 . S
C1653 C1654 1.434 . S
C1654 C1645 1.429 . S
C1654 N1651 1.350 . S
C1654 C1653 1.434 . S
C1655 C1656 1.369 . S
C1655 C1657 1.419 . S
C1655 H1659 0.930 . S
C1656 C1655 1.369 . S
C1656 C1665 1.429 . S
C1657 C1655 1.419 . S
C1657 C1658 1.363 . S
C1657 H1660 0.929 . S
C1658 C1657 1.363 . S
C1658 C1664 1.428 . S
H1659 C1655 0.930 . S
H1660 C1657 0.929 . S
S1661 N1662 1.613 . S
S1661 N1663 1.610 . S
N1662 S1661 1.613 . S
N1662 C1665 1.350 . S
N1663 S1661 1.610 . S
N1663 C1664 1.351 . S
C1664 C1658 1.428 . S
C1664 N1663 1.351 . S
C1664 C1665 1.434 . S
C1665 C1656 1.429 . S
C1665 N1662 1.350 . S
C1665 C1664 1.434 . S
C1666 C1667 1.367 1_565 S
C1666 C1668 1.419 1_565 S
C1666 H1670 0.930 . S
C1667 C1666 1.367 1_545 S
C1667 C1676 1.431 . S
C1668 C1666 1.419 1_545 S
C1668 C1669 1.366 . S
C1668 H1671 0.923 1_545 S
C1669 C1668 1.366 . S
C1669 C1675 1.428 . S
H1670 C1666 0.930 . S
H1671 C1668 0.923 1_565 S
S1672 N1673 1.613 . S
S1672 N1674 1.610 . S
N1673 S1672 1.613 . S
N1673 C1676 1.350 . S
N1674 S1672 1.610 . S
N1674 C1675 1.351 . S
C1675 C1669 1.428 . S
C1675 N1674 1.351 . S
C1675 C1676 1.434 . S
C1676 C1667 1.431 . S
C1676 N1673 1.350 . S
C1676 C1675 1.434 . S
C1677 C1678 1.369 . S
C1677 C1679 1.419 . S
C1677 H1681 0.930 . S
C1678 C1677 1.369 . S
C1678 C1687 1.429 . S
C1679 C1677 1.419 . S
C1679 C1680 1.363 . S
C1679 H1682 0.929 . S
C1680 C1679 1.363 . S
C1680 C1686 1.428 . S
H1681 C1677 0.930 . S
H1682 C1679 0.929 . S
S1683 N1684 1.613 . S
S1683 N1685 1.610 . S
N1684 S1683 1.613 . S
N1684 C1687 1.350 . S
N1685 S1683 1.610 . S
N1685 C1686 1.351 . S
C1686 C1680 1.428 . S
C1686 N1685 1.351 . S
C1686 C1687 1.434 . S
C1687 C1678 1.429 . S
C1687 N1684 1.350 . S
C1687 C1686 1.434 . S
C1688 C1689 1.369 . S
C1688 C1690 1.419 . S
C1688 H1692 0.930 . S
C1689 C1688 1.369 . S
C1689 C1698 1.429 . S
C1690 C1688 1.419 . S
C1690 C1691 1.363 . S
C1690 H1693 0.929 . S
C1691 C1690 1.363 . S
C1691 C1697 1.428 . S
H1692 C1688 0.930 . S
H1693 C1690 0.929 . S
S1694 N1695 1.613 . S
S1694 N1696 1.610 . S
N1695 S1694 1.613 . S
N1695 C1698 1.350 . S
N1696 S1694 1.610 . S
N1696 C1697 1.351 . S
C1697 C1691 1.428 . S
C1697 N1696 1.351 . S
C1697 C1698 1.434 . S
C1698 C1689 1.429 . S
C1698 N1695 1.350 . S
C1698 C1697 1.434 . S
C1699 C1700 1.369 . S
C1699 C1701 1.419 . S
C1699 H1703 0.930 . S
C1700 C1699 1.369 . S
C1700 C1709 1.429 . S
C1701 C1699 1.419 . S
C1701 C1702 1.363 . S
C1701 H1704 0.929 . S
C1702 C1701 1.363 . S
C1702 C1708 1.428 . S
H1703 C1699 0.930 . S
H1704 C1701 0.929 . S
S1705 N1706 1.613 . S
S1705 N1707 1.610 . S
N1706 S1705 1.613 . S
N1706 C1709 1.350 . S
N1707 S1705 1.610 . S
N1707 C1708 1.351 . S
C1708 C1702 1.428 . S
C1708 N1707 1.351 . S
C1708 C1709 1.434 . S
C1709 C1700 1.429 . S
C1709 N1706 1.350 . S
C1709 C1708 1.434 . S
C1710 C1711 1.369 . S
C1710 C1712 1.419 . S
C1710 H1714 0.930 . S
C1711 C1710 1.369 . S
C1711 C1720 1.429 . S
C1712 C1710 1.419 . S
C1712 C1713 1.363 . S
C1712 H1715 0.929 . S
C1713 C1712 1.363 . S
C1713 C1719 1.428 . S
H1714 C1710 0.930 . S
H1715 C1712 0.929 . S
S1716 N1717 1.603 1_655 S
S1716 N1718 1.600 1_655 S
N1717 S1716 1.603 1_455 S
N1717 C1720 1.350 . S
N1718 S1716 1.600 1_455 S
N1718 C1719 1.351 . S
C1719 C1713 1.428 . S
C1719 N1718 1.351 . S
C1719 C1720 1.434 . S
C1720 C1711 1.429 . S
C1720 N1717 1.350 . S
C1720 C1719 1.434 . S
C1721 C1722 1.369 1_554 S
C1721 C1723 1.419 . S
C1721 H1725 0.930 . S
C1722 C1721 1.369 1_556 S
C1722 C1731 1.429 . S
C1723 C1721 1.419 . S
C1723 C1724 1.363 . S
C1723 H1726 0.929 . S
C1724 C1723 1.363 . S
C1724 C1730 1.428 1_554 S
H1725 C1721 0.930 . S
H1726 C1723 0.929 . S
S1727 N1728 1.613 . S
S1727 N1729 1.610 . S
N1728 S1727 1.613 . S
N1728 C1731 1.350 . S
N1729 S1727 1.610 . S
N1729 C1730 1.351 . S
C1730 C1724 1.428 1_556 S
C1730 N1729 1.351 . S
C1730 C1731 1.434 . S
C1731 C1722 1.429 . S
C1731 N1728 1.350 . S
C1731 C1730 1.434 . S
C1732 C1733 1.369 . S
C1732 C1734 1.419 . S
C1732 H1736 0.930 . S
C1733 C1732 1.369 . S
C1733 C1742 1.429 . S
C1734 C1732 1.419 . S
C1734 C1735 1.363 . S
C1734 H1737 0.929 . S
C1735 C1734 1.363 . S
C1735 C1741 1.428 . S
H1736 C1732 0.930 . S
H1737 C1734 0.929 . S
S1738 N1739 1.613 . S
S1738 N1740 1.610 . S
N1739 S1738 1.613 . S
N1739 C1742 1.350 . S
N1740 S1738 1.610 . S
N1740 C1741 1.351 . S
C1741 C1735 1.428 . S
C1741 N1740 1.351 . S
C1741 C1742 1.434 . S
C1742 C1733 1.429 . S
C1742 N1739 1.350 . S
C1742 C1741 1.434 . S
C1743 C1744 1.369 . S
C1743 C1745 1.419 . S
C1743 H1747 0.930 . S
C1744 C1743 1.369 . S
C1744 C1753 1.429 . S
C1745 C1743 1.419 . S
C1745 C1746 1.363 . S
C1745 H1748 0.929 . S
C1746 C1745 1.363 . S
C1746 C1752 1.428 . S
H1747 C1743 0.930 . S
H1748 C1745 0.929 . S
S1749 N1750 1.613 . S
S1749 N1751 1.610 . S
N1750 S1749 1.613 . S
N1750 C1753 1.350 . S
N1751 S1749 1.610 . S
N1751 C1752 1.351 . S
C1752 C1746 1.428 . S
C1752 N1751 1.351 . S
C1752 C1753 1.434 . S
C1753 C1744 1.429 . S
C1753 N1750 1.350 . S
C1753 C1752 1.434 . S
C1754 C1755 1.369 . S
C1754 C1756 1.419 . S
C1754 H1758 0.930 . S
C1755 C1754 1.369 . S
C1755 C1764 1.429 . S
C1756 C1754 1.419 . S
C1756 C1757 1.363 . S
C1756 H1759 0.929 . S
C1757 C1756 1.363 . S
C1757 C1763 1.428 . S
H1758 C1754 0.930 . S
H1759 C1756 0.929 . S
S1760 N1761 1.613 . S
S1760 N1762 1.610 . S
N1761 S1760 1.613 . S
N1761 C1764 1.350 . S
N1762 S1760 1.610 . S
N1762 C1763 1.351 . S
C1763 C1757 1.428 . S
C1763 N1762 1.351 . S
C1763 C1764 1.434 . S
C1764 C1755 1.429 . S
C1764 N1761 1.350 . S
C1764 C1763 1.434 . S
C1765 C1766 1.372 1_455 S
C1765 C1767 1.419 . S
C1765 H1769 0.930 . S
C1766 C1765 1.372 1_655 S
C1766 C1775 1.426 . S
C1767 C1765 1.419 . S
C1767 C1768 1.363 . S
C1767 H1770 0.929 . S
C1768 C1767 1.363 . S
C1768 C1774 1.428 1_455 S
H1769 C1765 0.930 . S
H1770 C1767 0.929 . S
S1771 N1772 1.613 . S
S1771 N1773 1.610 . S
N1772 S1771 1.613 . S
N1772 C1775 1.350 . S
N1773 S1771 1.610 . S
N1773 C1774 1.351 . S
C1774 C1768 1.428 1_655 S
C1774 N1773 1.351 . S
C1774 C1775 1.434 . S
C1775 C1766 1.426 . S
C1775 N1772 1.350 . S
C1775 C1774 1.434 . S
C1776 C1777 1.369 . S
C1776 C1778 1.419 . S
C1776 H1780 0.930 . S
C1777 C1776 1.369 . S
C1777 C1786 1.429 . S
C1778 C1776 1.419 . S
C1778 C1779 1.363 . S
C1778 H1781 0.929 . S
C1779 C1778 1.363 . S
C1779 C1785 1.428 . S
H1780 C1776 0.930 . S
H1781 C1778 0.929 . S
S1782 N1783 1.613 . S
S1782 N1784 1.610 . S
N1783 S1782 1.613 . S
N1783 C1786 1.350 . S
N1784 S1782 1.610 . S
N1784 C1785 1.351 . S
C1785 C1779 1.428 . S
C1785 N1784 1.351 . S
C1785 C1786 1.434 . S
C1786 C1777 1.429 . S
C1786 N1783 1.350 . S
C1786 C1785 1.434 . S
C1787 C1788 1.369 . S
C1787 C1789 1.419 . S
C1787 H1791 0.930 . S
C1788 C1787 1.369 . S
C1788 C1797 1.429 . S
C1789 C1787 1.419 . S
C1789 C1790 1.363 . S
C1789 H1792 0.929 . S
C1790 C1789 1.363 . S
C1790 C1796 1.428 . S
H1791 C1787 0.930 . S
H1792 C1789 0.929 . S
S1793 N1794 1.613 . S
S1793 N1795 1.610 . S
N1794 S1793 1.613 . S
N1794 C1797 1.350 . S
N1795 S1793 1.610 . S
N1795 C1796 1.351 . S
C1796 C1790 1.428 . S
C1796 N1795 1.351 . S
C1796 C1797 1.434 . S
C1797 C1788 1.429 . S
C1797 N1794 1.350 . S
C1797 C1796 1.434 . S
C1798 C1799 1.369 1_545 S
C1798 C1800 1.419 1_545 S
C1798 H1802 0.930 . S
C1799 C1798 1.369 1_565 S
C1799 C1808 1.429 . S
C1800 C1798 1.419 1_565 S
C1800 C1801 1.363 . S
C1800 H1803 0.934 . S
C1801 C1800 1.363 . S
C1801 C1807 1.428 . S
H1802 C1798 0.930 . S
H1803 C1800 0.934 . S
S1804 N1805 1.613 . S
S1804 N1806 1.610 . S
N1805 S1804 1.613 . S
N1805 C1808 1.350 . S
N1806 S1804 1.610 . S
N1806 C1807 1.351 . S
C1807 C1801 1.428 . S
C1807 N1806 1.351 . S
C1807 C1808 1.434 . S
C1808 C1799 1.429 . S
C1808 N1805 1.350 . S
C1808 C1807 1.434 . S
C1809 C1810 1.369 . S
C1809 C1811 1.419 . S
C1809 H1813 0.930 . S
C1810 C1809 1.369 . S
C1810 C1819 1.429 . S
C1811 C1809 1.419 . S
C1811 C1812 1.363 . S
C1811 H1814 0.929 . S
C1812 C1811 1.363 . S
C1812 C1818 1.428 . S
H1813 C1809 0.930 . S
H1814 C1811 0.929 . S
S1815 N1816 1.613 . S
S1815 N1817 1.610 . S
N1816 S1815 1.613 . S
N1816 C1819 1.350 . S
N1817 S1815 1.610 . S
N1817 C1818 1.351 . S
C1818 C1812 1.428 . S
C1818 N1817 1.351 . S
C1818 C1819 1.434 . S
C1819 C1810 1.429 . S
C1819 N1816 1.350 . S
C1819 C1818 1.434 . S
C1820 C1821 1.369 . S
C1820 C1822 1.419 . S
C1820 H1824 0.930 . S
C1821 C1820 1.369 . S
C1821 C1830 1.429 . S
C1822 C1820 1.419 . S
C1822 C1823 1.363 . S
C1822 H1825 0.929 . S
C1823 C1822 1.363 . S
C1823 C1829 1.428 . S
H1824 C1820 0.930 . S
H1825 C1822 0.929 . S
S1826 N1827 1.613 . S
S1826 N1828 1.610 . S
N1827 S1826 1.613 . S
N1827 C1830 1.350 . S
N1828 S1826 1.610 . S
N1828 C1829 1.351 . S
C1829 C1823 1.428 . S
C1829 N1828 1.351 . S
C1829 C1830 1.434 . S
C1830 C1821 1.429 . S
C1830 N1827 1.350 . S
C1830 C1829 1.434 . S
C1831 C1832 1.369 . S
C1831 C1833 1.419 . S
C1831 H1835 0.930 . S
C1832 C1831 1.369 . S
C1832 C1841 1.429 1_554 S
C1833 C1831 1.419 . S
C1833 C1834 1.363 . S
C1833 H1836 0.929 . S
C1834 C1833 1.363 . S
C1834 C1840 1.428 1_554 S
H1835 C1831 0.930 . S
H1836 C1833 0.929 . S
S1837 N1838 1.613 . S
S1837 N1839 1.610 . S
N1838 S1837 1.613 . S
N1838 C1841 1.350 . S
N1839 S1837 1.610 . S
N1839 C1840 1.351 . S
C1840 C1834 1.428 1_556 S
C1840 N1839 1.351 . S
C1840 C1841 1.434 . S
C1841 C1832 1.429 1_556 S
C1841 N1838 1.350 . S
C1841 C1840 1.434 . S
C1842 C1843 1.369 . S
C1842 C1844 1.419 . S
C1842 H1846 0.930 . S
C1843 C1842 1.369 . S
C1843 C1852 1.429 . S
C1844 C1842 1.419 . S
C1844 C1845 1.363 . S
C1844 H1847 0.929 . S
C1845 C1844 1.363 . S
C1845 C1851 1.428 . S
H1846 C1842 0.930 . S
H1847 C1844 0.929 . S
S1848 N1849 1.613 . S
S1848 N1850 1.610 . S
N1849 S1848 1.613 . S
N1849 C1852 1.350 . S
N1850 S1848 1.610 . S
N1850 C1851 1.351 . S
C1851 C1845 1.428 . S
C1851 N1850 1.351 . S
C1851 C1852 1.434 . S
C1852 C1843 1.429 . S
C1852 N1849 1.350 . S
C1852 C1851 1.434 . S
C1853 C1854 1.369 . S
C1853 C1855 1.419 . S
C1853 H1857 0.930 . S
C1854 C1853 1.369 . S
C1854 C1863 1.429 1_556 S
C1855 C1853 1.419 . S
C1855 C1856 1.363 . S
C1855 H1858 0.929 . S
C1856 C1855 1.363 . S
C1856 C1862 1.428 1_556 S
H1857 C1853 0.930 . S
H1858 C1855 0.929 . S
S1859 N1860 1.613 . S
S1859 N1861 1.610 . S
N1860 S1859 1.613 . S
N1860 C1863 1.350 . S
N1861 S1859 1.610 . S
N1861 C1862 1.351 . S
C1862 C1856 1.428 1_554 S
C1862 N1861 1.351 . S
C1862 C1863 1.434 . S
C1863 C1854 1.429 1_554 S
C1863 N1860 1.350 . S
C1863 C1862 1.434 . S
C1864 C1865 1.369 . S
C1864 C1866 1.419 . S
C1864 H1868 0.930 . S
C1865 C1864 1.369 . S
C1865 C1874 1.429 . S
C1866 C1864 1.419 . S
C1866 C1867 1.363 . S
C1866 H1869 0.929 . S
C1867 C1866 1.363 . S
C1867 C1873 1.428 . S
H1868 C1864 0.930 . S
H1869 C1866 0.929 . S
S1870 N1871 1.613 . S
S1870 N1872 1.610 . S
N1871 S1870 1.613 . S
N1871 C1874 1.350 . S
N1872 S1870 1.610 . S
N1872 C1873 1.351 . S
C1873 C1867 1.428 . S
C1873 N1872 1.351 . S
C1873 C1874 1.434 . S
C1874 C1865 1.429 . S
C1874 N1871 1.350 . S
C1874 C1873 1.434 . S
C1875 C1876 1.369 . S
C1875 C1877 1.419 . S
C1875 H1879 0.930 . S
C1876 C1875 1.369 . S
C1876 C1885 1.429 . S
C1877 C1875 1.419 . S
C1877 C1878 1.363 . S
C1877 H1880 0.929 . S
C1878 C1877 1.363 . S
C1878 C1884 1.428 . S
H1879 C1875 0.930 . S
H1880 C1877 0.929 . S
S1881 N1882 1.613 . S
S1881 N1883 1.610 . S
N1882 S1881 1.613 . S
N1882 C1885 1.350 . S
N1883 S1881 1.610 . S
N1883 C1884 1.351 . S
C1884 C1878 1.428 . S
C1884 N1883 1.351 . S
C1884 C1885 1.434 . S
C1885 C1876 1.429 . S
C1885 N1882 1.350 . S
C1885 C1884 1.434 . S
C1886 C1887 1.369 . S
C1886 C1888 1.419 . S
C1886 H1890 0.930 . S
C1887 C1886 1.369 . S
C1887 C1896 1.429 . S
C1888 C1886 1.419 . S
C1888 C1889 1.363 . S
C1888 H1891 0.929 . S
C1889 C1888 1.363 . S
C1889 C1895 1.428 . S
H1890 C1886 0.930 . S
H1891 C1888 0.929 . S
S1892 N1893 1.613 . S
S1892 N1894 1.610 . S
N1893 S1892 1.613 . S
N1893 C1896 1.350 . S
N1894 S1892 1.610 . S
N1894 C1895 1.351 . S
C1895 C1889 1.428 . S
C1895 N1894 1.351 . S
C1895 C1896 1.434 . S
C1896 C1887 1.429 . S
C1896 N1893 1.350 . S
C1896 C1895 1.434 . S
C1897 C1898 1.369 . S
C1897 C1899 1.419 . S
C1897 H1901 0.930 . S
C1898 C1897 1.369 . S
C1898 C1907 1.429 1_655 S
C1899 C1897 1.419 . S
C1899 C1900 1.363 . S
C1899 H1902 0.929 . S
C1900 C1899 1.363 . S
C1900 C1906 1.428 . S
H1901 C1897 0.930 . S
H1902 C1899 0.929 . S
S1903 N1904 1.613 . S
S1903 N1905 1.610 . S
N1904 S1903 1.613 . S
N1904 C1907 1.350 . S
N1905 S1903 1.610 . S
N1905 C1906 1.351 1_455 S
C1906 C1900 1.428 . S
C1906 N1905 1.351 1_655 S
C1906 C1907 1.434 1_655 S
C1907 C1898 1.429 1_455 S
C1907 N1904 1.350 . S
C1907 C1906 1.434 1_455 S
C1908 C1909 1.369 . S
C1908 C1910 1.419 . S
C1908 H1912 0.930 . S
C1909 C1908 1.369 . S
C1909 C1918 1.429 . S
C1910 C1908 1.419 . S
C1910 C1911 1.363 . S
C1910 H1913 0.929 . S
C1911 C1910 1.363 . S
C1911 C1917 1.428 . S
H1912 C1908 0.930 . S
H1913 C1910 0.929 . S
S1914 N1915 1.613 . S
S1914 N1916 1.610 . S
N1915 S1914 1.613 . S
N1915 C1918 1.350 . S
N1916 S1914 1.610 . S
N1916 C1917 1.351 . S
C1917 C1911 1.428 . S
C1917 N1916 1.351 . S
C1917 C1918 1.434 . S
C1918 C1909 1.429 . S
C1918 N1915 1.350 . S
C1918 C1917 1.434 . S
C1919 C1920 1.369 . S
C1919 C1921 1.419 . S
C1919 H1923 0.930 . S
C1920 C1919 1.369 . S
C1920 C1929 1.429 . S
C1921 C1919 1.419 . S
C1921 C1922 1.363 . S
C1921 H1924 0.929 . S
C1922 C1921 1.363 . S
C1922 C1928 1.428 . S
H1923 C1919 0.930 . S
H1924 C1921 0.929 . S
S1925 N1926 1.613 . S
S1925 N1927 1.610 . S
N1926 S1925 1.613 . S
N1926 C1929 1.350 . S
N1927 S1925 1.610 . S
N1927 C1928 1.351 . S
C1928 C1922 1.428 . S
C1928 N1927 1.351 . S
C1928 C1929 1.434 . S
C1929 C1920 1.429 . S
C1929 N1926 1.350 . S
C1929 C1928 1.434 . S
C1930 C1931 1.369 . S
C1930 C1932 1.419 . S
C1930 H1934 0.930 . S
C1931 C1930 1.369 . S
C1931 C1940 1.429 . S
C1932 C1930 1.419 . S
C1932 C1933 1.363 . S
C1932 H1935 0.929 . S
C1933 C1932 1.363 . S
C1933 C1939 1.428 . S
H1934 C1930 0.930 . S
H1935 C1932 0.929 . S
S1936 N1937 1.613 . S
S1936 N1938 1.610 . S
N1937 S1936 1.613 . S
N1937 C1940 1.350 . S
N1938 S1936 1.610 . S
N1938 C1939 1.351 . S
C1939 C1933 1.428 . S
C1939 N1938 1.351 . S
C1939 C1940 1.434 . S
C1940 C1931 1.429 . S
C1940 N1937 1.350 . S
C1940 C1939 1.434 . S
C1941 C1942 1.369 . S
C1941 C1943 1.419 . S
C1941 H1945 0.930 . S
C1942 C1941 1.369 . S
C1942 C1951 1.429 . S
C1943 C1941 1.419 . S
C1943 C1944 1.363 . S
C1943 H1946 0.929 . S
C1944 C1943 1.363 . S
C1944 C1950 1.428 . S
H1945 C1941 0.930 . S
H1946 C1943 0.929 . S
S1947 N1948 1.613 . S
S1947 N1949 1.610 . S
N1948 S1947 1.613 . S
N1948 C1951 1.350 1_545 S
N1949 S1947 1.610 . S
N1949 C1950 1.351 1_545 S
C1950 C1944 1.428 . S
C1950 N1949 1.351 1_565 S
C1950 C1951 1.434 . S
C1951 C1942 1.429 . S
C1951 N1948 1.350 1_565 S
C1951 C1950 1.434 . S
C1952 C1953 1.369 . S
C1952 C1954 1.419 . S
C1952 H1956 0.930 . S
C1953 C1952 1.369 . S
C1953 C1962 1.429 . S
C1954 C1952 1.419 . S
C1954 C1955 1.363 . S
C1954 H1957 0.929 . S
C1955 C1954 1.363 . S
C1955 C1961 1.428 . S
H1956 C1952 0.930 . S
H1957 C1954 0.929 . S
S1958 N1959 1.613 . S
S1958 N1960 1.610 . S
N1959 S1958 1.613 . S
N1959 C1962 1.350 . S
N1960 S1958 1.610 . S
N1960 C1961 1.351 . S
C1961 C1955 1.428 . S
C1961 N1960 1.351 . S
C1961 C1962 1.434 . S
C1962 C1953 1.429 . S
C1962 N1959 1.350 . S
C1962 C1961 1.434 . S
C1963 C1964 1.369 1_554 S
C1963 C1965 1.419 . S
C1963 H1967 0.930 . S
C1964 C1963 1.369 1_556 S
C1964 C1973 1.429 . S
C1965 C1963 1.419 . S
C1965 C1966 1.363 1_554 S
C1965 H1968 0.929 . S
C1966 C1965 1.363 1_556 S
C1966 C1972 1.428 . S
H1967 C1963 0.930 . S
H1968 C1965 0.929 . S
S1969 N1970 1.613 . S
S1969 N1971 1.610 . S
N1970 S1969 1.613 . S
N1970 C1973 1.350 . S
N1971 S1969 1.610 . S
N1971 C1972 1.351 . S
C1972 C1966 1.428 . S
C1972 N1971 1.351 . S
C1972 C1973 1.434 . S
C1973 C1964 1.429 . S
C1973 N1970 1.350 . S
C1973 C1972 1.434 . S
C1974 C1975 1.369 . S
C1974 C1976 1.419 . S
C1974 H1978 0.930 . S
C1975 C1974 1.369 . S
C1975 C1984 1.429 . S
C1976 C1974 1.419 . S
C1976 C1977 1.363 . S
C1976 H1979 0.929 . S
C1977 C1976 1.363 . S
C1977 C1983 1.428 . S
H1978 C1974 0.930 . S
H1979 C1976 0.929 . S
S1980 N1981 1.613 . S
S1980 N1982 1.610 . S
N1981 S1980 1.613 . S
N1981 C1984 1.350 . S
N1982 S1980 1.610 . S
N1982 C1983 1.351 . S
C1983 C1977 1.428 . S
C1983 N1982 1.351 . S
C1983 C1984 1.434 . S
C1984 C1975 1.429 . S
C1984 N1981 1.350 . S
C1984 C1983 1.434 . S
C1985 C1986 1.369 . S
C1985 C1987 1.419 . S
C1985 H1989 0.930 . S
C1986 C1985 1.369 . S
C1986 C1995 1.429 1_554 S
C1987 C1985 1.419 . S
C1987 C1988 1.363 . S
C1987 H1990 0.929 . S
C1988 C1987 1.363 . S
C1988 C1994 1.444 . S
H1989 C1985 0.930 . S
H1990 C1987 0.929 . S
S1991 N1992 1.613 . S
S1991 N1993 1.610 . S
N1992 S1991 1.613 . S
N1992 C1995 1.350 . S
N1993 S1991 1.610 . S
N1993 C1994 1.344 1_556 S
C1994 C1988 1.444 . S
C1994 N1993 1.344 1_554 S
C1994 C1995 1.425 1_554 S
C1995 C1986 1.429 1_556 S
C1995 N1992 1.350 . S
C1995 C1994 1.425 1_556 S
C1996 C1997 1.369 . S
C1996 C1998 1.419 . S
C1996 H2000 0.930 . S
C1997 C1996 1.369 . S
C1997 C2006 1.429 . S
C1998 C1996 1.419 . S
C1998 C1999 1.363 . S
C1998 H2001 0.929 . S
C1999 C1998 1.363 . S
C1999 C2005 1.428 . S
H2000 C1996 0.930 . S
H2001 C1998 0.929 . S
S2002 N2003 1.613 . S
S2002 N2004 1.610 . S
N2003 S2002 1.613 . S
N2003 C2006 1.350 . S
N2004 S2002 1.610 . S
N2004 C2005 1.351 . S
C2005 C1999 1.428 . S
C2005 N2004 1.351 . S
C2005 C2006 1.434 . S
C2006 C1997 1.429 . S
C2006 N2003 1.350 . S
C2006 C2005 1.434 . S
C2007 C2008 1.369 . S
C2007 C2009 1.419 . S
C2007 H2011 0.930 . S
C2008 C2007 1.369 . S
C2008 C2017 1.429 . S
C2009 C2007 1.419 . S
C2009 C2010 1.363 . S
C2009 H2012 0.929 . S
C2010 C2009 1.363 . S
C2010 C2016 1.428 . S
H2011 C2007 0.930 . S
H2012 C2009 0.929 . S
S2013 N2014 1.613 1_455 S
S2013 N2015 1.612 . S
N2014 S2013 1.613 1_655 S
N2014 C2017 1.350 . S
N2015 S2013 1.612 . S
N2015 C2016 1.349 1_455 S
C2016 C2010 1.428 . S
C2016 N2015 1.349 1_655 S
C2016 C2017 1.434 . S
C2017 C2008 1.429 . S
C2017 N2014 1.350 . S
C2017 C2016 1.434 . S
C2018 C2019 1.369 . S
C2018 C2020 1.419 . S
C2018 H2022 0.930 . S
C2019 C2018 1.369 . S
C2019 C2028 1.429 . S
C2020 C2018 1.419 . S
C2020 C2021 1.363 . S
C2020 H2023 0.929 . S
C2021 C2020 1.363 . S
C2021 C2027 1.428 . S
H2022 C2018 0.930 . S
H2023 C2020 0.929 . S
S2024 N2025 1.613 . S
S2024 N2026 1.610 . S
N2025 S2024 1.613 . S
N2025 C2028 1.350 . S
N2026 S2024 1.610 . S
N2026 C2027 1.351 . S
C2027 C2021 1.428 . S
C2027 N2026 1.351 . S
C2027 C2028 1.434 . S
C2028 C2019 1.429 . S
C2028 N2025 1.350 . S
C2028 C2027 1.434 . S
C2029 C2030 1.366 1_655 S
C2029 C2031 1.409 1_655 S
C2029 H2033 0.944 . S
C2030 C2029 1.366 1_455 S
C2030 C2039 1.429 . S
C2031 C2029 1.409 1_455 S
C2031 C2032 1.363 . S
C2031 H2034 0.929 . S
C2032 C2031 1.363 . S
C2032 C2038 1.428 . S
H2033 C2029 0.944 . S
H2034 C2031 0.929 . S
S2035 N2036 1.613 . S
S2035 N2037 1.610 . S
N2036 S2035 1.613 . S
N2036 C2039 1.350 . S
N2037 S2035 1.610 . S
N2037 C2038 1.351 . S
C2038 C2032 1.428 . S
C2038 N2037 1.351 . S
C2038 C2039 1.434 . S
C2039 C2030 1.429 . S
C2039 N2036 1.350 . S
C2039 C2038 1.434 . S
C1251 C1242 1.708 . S
C1249 C15 1.762 . S
C1262 C1206 1.741 . S
C1260 C55 1.606 . S
C1273 C1230 0.953 . S
C1271 C95 1.080 . S
C1284 C1218 1.617 . S
C1282 C135 1.589 . S
C1295 C1134 1.711 . S
C1293 C175 1.762 . S
C1304 C215 1.599 . S
C1306 C1146 1.613 . S
C1317 C1110 1.741 . S
C1315 C255 1.598 . S
C1326 C295 1.076 . S
C1328 C1122 0.959 . S
C1339 C1194 1.710 . S
C1337 C335 1.760 . S
C1348 C375 1.596 . S
C1350 C1170 1.611 . S
C1359 C415 1.607 . S
C1361 C1158 1.742 . S
C1372 C1182 0.956 . S
C1370 C455 1.078 . S
C1383 C1098 1.695 . S
C1381 C495 1.760 . S
C1392 C535 1.585 . S
C1394 C1062 1.734 . S
C1405 C1086 0.956 . S
C1403 C575 1.081 1_545 S
C1414 C615 1.597 . S
C1416 C1074 1.571 . S
C1427 C990 1.695 . S
C1425 C655 1.758 . S
C1438 C1002 1.575 . S
C1436 C695 1.590 . S
C1447 C735 1.585 . S
C1449 C966 1.734 . S
C1458 C775 1.074 1_554 S
C1460 C978 0.970 . S
C1469 C815 1.755 . S
C1471 C1050 1.701 . S
C1480 C855 1.590 . S
C1482 C1026 1.574 . S
C1493 C1014 1.735 . S
C1491 C895 1.597 . S
C1502 C935 1.082 1_455 S
C1504 C1038 0.954 . S
C1515 C969 1.624 . S
C1513 C21 1.680 . S
C1526 C981 1.859 . S
C1524 C61 1.959 . S
C1535 C101 0.981 1_545 S
C1537 C993 0.991 . S
C1546 C141 1.088 . S
C1548 C1005 1.062 . S
C1559 C1017 1.620 . S
C1557 C181 1.682 . S
C1568 C221 1.088 . S
C1570 C1029 1.057 . S
C1581 C1041 1.861 . S
C1579 C261 1.957 . S
C1592 C1053 0.990 . S
C1590 C301 0.985 1_554 S
C1603 C1065 1.621 . S
C1601 C341 1.680 . S
C1612 C381 1.087 . S
C1614 C1077 1.054 . S
C1623 C421 1.964 . S
C1625 C1089 1.856 . S
C1634 C461 0.978 . S
C1636 C1101 0.988 . S
C1645 C501 1.621 . S
C1647 C1113 1.620 . S
C1656 C541 1.758 . S
C1658 C1125 1.880 . S
C1667 C581 0.981 1_545 S
C1669 C1137 0.989 . S
C1678 C621 1.061 . S
C1680 C1149 1.065 . S
C1689 C661 1.622 . S
C1691 C1161 1.620 . S
C1702 C1173 1.063 . S
C1700 C701 1.063 . S
C1713 C1185 1.878 . S
C1711 C741 1.755 . S
C1724 C1197 0.989 . S
C1722 C781 0.984 . S
C1735 C1209 1.625 . S
C1733 C821 1.616 . S
C1744 C861 1.067 . S
C1746 C1221 1.061 . S
C1755 C901 1.751 . S
C1757 C1233 1.880 . S
C1766 C941 0.979 . S
C1768 C1245 0.990 . S
C1777 C2 1.645 . S
C1779 C1060 1.623 . S
C1790 C1096 1.816 . S
C1788 C42 1.836 . S
C1799 C82 1.573 . S
C1801 C1072 1.501 . S
C1812 C1084 1.681 . S
C1810 C122 1.628 . S
C1821 C162 1.643 . S
C1823 C964 1.623 . S
C1832 C202 1.629 . S
C1834 C976 1.678 . S
C1843 C242 1.838 . S
C1845 C988 1.811 . S
C1854 C282 1.576 . S
C1856 C1000 1.499 . S
C1867 C1012 1.626 . S
C1865 C322 1.643 . S
C1878 C1036 1.681 . S
C1876 C362 1.628 . S
C1887 C402 1.843 . S
C1889 C1048 1.815 . S
C1898 C442 1.576 . S
C1900 C1024 1.497 . S
C1911 C1204 1.629 . S
C1909 C482 1.617 . S
C1922 C1240 1.810 . S
C1920 C522 1.729 . S
C1931 C562 1.619 1_545 S
C1933 C1216 1.492 . S
C1944 C1228 1.689 . S
C1942 C602 1.624 . S
C1953 C642 1.616 . S
C1955 C1108 1.627 . S
C1964 C682 1.624 . S
C1966 C1120 1.691 . S
C1975 C722 1.737 . S
C1977 C1132 1.806 . S
C1988 C1144 1.489 . S
C1986 C762 1.619 1_554 S
C1999 C1156 1.629 . S
C1997 C802 1.617 . S
C2010 C1180 1.690 . S
C2008 C842 1.616 . S
C2019 C882 1.732 . S
C2021 C1192 1.801 . S
C2032 C1168 1.494 . S
C2030 C922 1.619 1_455 S
