# Generated by pormake.
# Topology dag, (6,3)-cn, num edge types: 1
# Building blocks:
#     Node 0, Type 0, BuildingBlock: MIDCAF_clean_sbu_0, # of connection points: 6
#     Node 1, Type 0, BuildingBlock: MIDCAF_clean_sbu_0, # of connection points: 6
#     Node 2, Type 0, BuildingBlock: MIDCAF_clean_sbu_0, # of connection points: 6
#     Node 3, Type 0, BuildingBlock: MIDCAF_clean_sbu_0, # of connection points: 6
#     Node 4, Type 1, BuildingBlock: QEWDON_clean_linker_0, # of connection points: 3
#     Node 5, Type 1, BuildingBlock: QEWDON_clean_linker_0, # of connection points: 3
#     Node 6, Type 1, BuildingBlock: QEWDON_clean_linker_0, # of connection points: 3
#     Node 7, Type 1, BuildingBlock: QEWDON_clean_linker_0, # of connection points: 3
#     Node 8, Type 1, BuildingBlock: QEWDON_clean_linker_0, # of connection points: 3
#     Node 9, Type 1, BuildingBlock: QEWDON_clean_linker_0, # of connection points: 3
#     Node 10, Type 1, BuildingBlock: QEWDON_clean_linker_0, # of connection points: 3
#     Node 11, Type 1, BuildingBlock: QEWDON_clean_linker_0, # of connection points: 3
#     Edge 12, Type (0, 1), BuildingBlock: EYOCIG_clean_linker_4, # of connection points: 2
#     Edge 13, Type (0, 1), BuildingBlock: EYOCIG_clean_linker_4, # of connection points: 2
#     Edge 14, Type (0, 1), BuildingBlock: EYOCIG_clean_linker_4, # of connection points: 2
#     Edge 15, Type (0, 1), BuildingBlock: EYOCIG_clean_linker_4, # of connection points: 2
#     Edge 16, Type (0, 1), BuildingBlock: EYOCIG_clean_linker_4, # of connection points: 2
#     Edge 17, Type (0, 1), BuildingBlock: EYOCIG_clean_linker_4, # of connection points: 2
#     Edge 18, Type (0, 1), BuildingBlock: EYOCIG_clean_linker_4, # of connection points: 2
#     Edge 19, Type (0, 1), BuildingBlock: EYOCIG_clean_linker_4, # of connection points: 2
#     Edge 20, Type (0, 1), BuildingBlock: EYOCIG_clean_linker_4, # of connection points: 2
#     Edge 21, Type (0, 1), BuildingBlock: EYOCIG_clean_linker_4, # of connection points: 2
#     Edge 22, Type (0, 1), BuildingBlock: EYOCIG_clean_linker_4, # of connection points: 2
#     Edge 23, Type (0, 1), BuildingBlock: EYOCIG_clean_linker_4, # of connection points: 2
#     Edge 24, Type (0, 1), BuildingBlock: EYOCIG_clean_linker_4, # of connection points: 2
#     Edge 25, Type (0, 1), BuildingBlock: EYOCIG_clean_linker_4, # of connection points: 2
#     Edge 26, Type (0, 1), BuildingBlock: EYOCIG_clean_linker_4, # of connection points: 2
#     Edge 27, Type (0, 1), BuildingBlock: EYOCIG_clean_linker_4, # of connection points: 2
#     Edge 28, Type (0, 1), BuildingBlock: EYOCIG_clean_linker_4, # of connection points: 2
#     Edge 29, Type (0, 1), BuildingBlock: EYOCIG_clean_linker_4, # of connection points: 2
#     Edge 30, Type (0, 1), BuildingBlock: EYOCIG_clean_linker_4, # of connection points: 2
#     Edge 31, Type (0, 1), BuildingBlock: EYOCIG_clean_linker_4, # of connection points: 2
#     Edge 32, Type (0, 1), BuildingBlock: EYOCIG_clean_linker_4, # of connection points: 2
#     Edge 33, Type (0, 1), BuildingBlock: EYOCIG_clean_linker_4, # of connection points: 2
#     Edge 34, Type (0, 1), BuildingBlock: EYOCIG_clean_linker_4, # of connection points: 2
#     Edge 35, Type (0, 1), BuildingBlock: EYOCIG_clean_linker_4, # of connection points: 2
# Relax obj value: 0.076
# Max RMSD: 0.118
# Mean RMSD: 0.087
data_MOF--net-dag--node1-MIDCAF_clean_sbu_0--node2-QEWDON_clean_linker_0--edge1-EYOCIG_clean_linker_4
_symmetry_space_group_name_H-M    P1
_symmetry_Int_Tables_number       1
_symmetry_cell_setting            triclinic
loop_
_symmetry_equiv_pos_as_xyz
'x, y, z'
_cell_length_a     33.689002
_cell_length_b     33.705682
_cell_length_c     26.744471
_cell_angle_alpha  90.337297
_cell_angle_beta   90.004309
_cell_angle_gamma 90.000448
loop_
_atom_site_label
_atom_site_type_symbol
_atom_site_fract_x
_atom_site_fract_y
_atom_site_fract_z
_atom_type_partial_charge
Zn0 Zn 0.11603 0.9026 0.08019 0.0
Zn1 Zn 0.1229 0.88644 0.90409 0.0
Zn2 Zn 0.12396 0.88759 0.99715 0.0
C3 C 0.1188 0.96661 0.93507 0.0
C4 C 0.06051 0.83739 0.9395 0.0
O5 O 0.17365 0.8554 0.03429 0.0
O6 O 0.1407 0.85048 0.10507 0.0
C7 C 0.18614 0.93339 0.05171 0.0
O8 O 0.11782 0.95001 0.97791 0.0
O9 O 0.12119 0.94576 0.89579 0.0
O10 O 0.0734 0.8531 0.89991 0.0
O11 O 0.07609 0.84599 0.98198 0.0
O12 O 0.15517 0.9472 0.07228 0.0
O13 O 0.1838 0.90112 0.02584 0.0
O14 O 0.06913 0.86179 0.03302 0.0
O15 O 0.0576 0.90759 0.09046 0.0
C16 C 0.04639 0.877 0.06684 0.0
O17 O 0.18112 0.85899 0.98094 0.0
O18 O 0.17492 0.85794 0.89847 0.0
C19 C 0.1687 0.83873 0.07722 0.0
C20 C 0.19436 0.84946 0.93735 0.0
Zn21 Zn 0.61566 0.58928 0.44064 0.0
Zn22 Zn 0.62253 0.60497 0.6169 0.0
Zn23 Zn 0.6237 0.60399 0.52381 0.0
C24 C 0.61859 0.52485 0.58576 0.0
C25 C 0.56017 0.65409 0.58153 0.0
O26 O 0.67342 0.63622 0.48683 0.0
O27 O 0.64044 0.64145 0.4161 0.0
C28 C 0.68567 0.5582 0.46868 0.0
O29 O 0.61769 0.54151 0.54295 0.0
O30 O 0.62085 0.54565 0.6251 0.0
O31 O 0.57303 0.63831 0.62111 0.0
O32 O 0.57578 0.64553 0.53905 0.0
O33 O 0.65464 0.54453 0.44809 0.0
O34 O 0.68343 0.59033 0.4948 0.0
O35 O 0.56878 0.62981 0.48806 0.0
O36 O 0.55725 0.58438 0.43015 0.0
C37 C 0.54604 0.61481 0.45407 0.0
O38 O 0.68076 0.6327 0.54024 0.0
O39 O 0.67452 0.6335 0.6227 0.0
C40 C 0.66848 0.65305 0.444 0.0
C41 C 0.69395 0.64213 0.58388 0.0
Zn42 Zn 0.89955 0.1198 0.93698 0.0
Zn43 Zn 0.89359 0.13143 0.11295 0.0
Zn44 Zn 0.88775 0.1286 0.02049 0.0
C45 C 0.97057 0.12261 0.07173 0.0
C46 C 0.84172 0.0685 0.08606 0.0
O47 O 0.85293 0.1769 0.98469 0.0
O48 O 0.84547 0.14187 0.91556 0.0
C49 C 0.92954 0.19117 0.96583 0.0
O50 O 0.95068 0.12042 0.03124 0.0
O51 O 0.95317 0.12798 0.11305 0.0
O52 O 0.86015 0.08274 0.12318 0.0
O53 O 0.84717 0.08243 0.04215 0.0
O54 O 0.94276 0.16053 0.94382 0.0
O55 O 0.89779 0.18871 0.99243 0.0
O56 O 0.85998 0.07371 0.98925 0.0
O57 O 0.90616 0.06113 0.93293 0.0
C58 C 0.876 0.05002 0.95717 0.0
O59 O 0.86179 0.18722 0.03686 0.0
O60 O 0.86687 0.18422 0.11941 0.0
C61 C 0.8343 0.17025 0.94329 0.0
C62 C 0.85592 0.20235 0.0806 0.0
Zn63 Zn 0.39962 0.37132 0.5842 0.0
Zn64 Zn 0.3935 0.36059 0.40808 0.0
Zn65 Zn 0.38778 0.36291 0.5006 0.0
C66 C 0.47055 0.36906 0.44933 0.0
C67 C 0.34166 0.42336 0.43564 0.0
O68 O 0.35299 0.31444 0.536 0.0
O69 O 0.34553 0.34917 0.60537 0.0
C70 C 0.42961 0.30009 0.55475 0.0
O71 O 0.4507 0.37107 0.48985 0.0
O72 O 0.4531 0.36397 0.40798 0.0
O73 O 0.36005 0.40934 0.39836 0.0
O74 O 0.34719 0.4092 0.47941 0.0
O75 O 0.44281 0.33062 0.57702 0.0
O76 O 0.39786 0.30266 0.52818 0.0
O77 O 0.3601 0.41768 0.5323 0.0
O78 O 0.40629 0.42996 0.58871 0.0
C79 C 0.37614 0.44121 0.56455 0.0
O80 O 0.3618 0.30439 0.48376 0.0
O81 O 0.36677 0.30783 0.40122 0.0
C82 C 0.33435 0.32092 0.57743 0.0
C83 C 0.35587 0.28949 0.4399 0.0
H84 H 0.2484 0.08023 0.22794 0.0
C85 C 0.22331 0.08929 0.20532 0.0
C86 C 0.21722 0.07177 0.1581 0.0
C87 C 0.19467 0.11557 0.22515 0.0
H88 H 0.17785 0.06654 0.09474 0.0
C89 C 0.18338 0.08136 0.13023 0.0
C90 C 0.15519 0.10768 0.14924 0.0
C91 C 0.16107 0.12517 0.1962 0.0
C92 C 0.19657 0.12905 0.27811 0.0
H93 H 0.1385 0.14484 0.21127 0.0
C94 C 0.23126 0.14594 0.29864 0.0
C95 C 0.2312 0.15991 0.34836 0.0
C96 C 0.16259 0.12546 0.30842 0.0
H97 H 0.13568 0.11207 0.29393 0.0
C98 C 0.16288 0.13894 0.35778 0.0
H99 H 0.25754 0.14942 0.27568 0.0
C100 C 0.19696 0.15628 0.37765 0.0
H101 H 0.19644 0.16733 0.4158 0.0
H102 H 0.13648 0.13626 0.38057 0.0
H103 H 0.38817 0.71458 0.72892 0.0
C104 C 0.37673 0.68887 0.70906 0.0
C105 C 0.39302 0.67817 0.66264 0.0
C106 C 0.34931 0.66353 0.73257 0.0
H107 H 0.3946 0.63435 0.60374 0.0
C108 C 0.38057 0.64341 0.63856 0.0
C109 C 0.35302 0.61833 0.66106 0.0
C110 C 0.3371 0.62847 0.70782 0.0
C111 C 0.33881 0.66991 0.78589 0.0
H112 H 0.31709 0.60804 0.72626 0.0
C113 C 0.3238 0.7065 0.80339 0.0
C114 C 0.31435 0.71139 0.85433 0.0
C115 C 0.34501 0.63898 0.82012 0.0
H116 H 0.35717 0.61082 0.80782 0.0
C117 C 0.33623 0.64424 0.87067 0.0
H118 H 0.31859 0.73051 0.7774 0.0
C119 C 0.32081 0.68022 0.88773 0.0
H120 H 0.31347 0.68354 0.92699 0.0
H121 H 0.34117 0.62025 0.89666 0.0
H122 H 0.85453 0.78826 0.18602 0.0
C123 C 0.84359 0.8179 0.17868 0.0
C124 C 0.86799 0.84569 0.15422 0.0
C125 C 0.80411 0.82816 0.19114 0.0
H126 H 0.87173 0.90471 0.12414 0.0
C127 C 0.85311 0.88336 0.14338 0.0
C128 C 0.81414 0.8935 0.15564 0.0
C129 C 0.78976 0.86621 0.1797 0.0
C130 C 0.77545 0.79842 0.20948 0.0
H131 H 0.75926 0.87407 0.18823 0.0
C132 C 0.77724 0.78326 0.25847 0.0
C133 C 0.74659 0.75849 0.27583 0.0
C134 C 0.74333 0.78818 0.17845 0.0
H135 H 0.7412 0.79998 0.14094 0.0
C136 C 0.71334 0.76334 0.1957 0.0
H137 H 0.80145 0.7916 0.28309 0.0
C138 C 0.71488 0.74863 0.24418 0.0
H139 H 0.69102 0.7297 0.25715 0.0
H140 H 0.6886 0.75585 0.17162 0.0
H141 H 0.67395 0.32832 0.68771 0.0
C142 C 0.6471 0.31287 0.67666 0.0
C143 C 0.61753 0.33293 0.64943 0.0
C144 C 0.64282 0.27206 0.68692 0.0
H145 H 0.56103 0.32759 0.61217 0.0
C146 C 0.58363 0.31233 0.63368 0.0
C147 C 0.57921 0.27191 0.64403 0.0
C148 C 0.60848 0.25196 0.67087 0.0
C149 C 0.67581 0.24851 0.70805 0.0
H150 H 0.60519 0.22046 0.67793 0.0
C151 C 0.69085 0.25558 0.75652 0.0
C152 C 0.72008 0.23017 0.77614 0.0
C153 C 0.69082 0.21661 0.67967 0.0
H154 H 0.67963 0.21065 0.64239 0.0
C155 C 0.72008 0.19194 0.69908 0.0
H156 H 0.67917 0.27973 0.77906 0.0
C157 C 0.73457 0.19857 0.74713 0.0
H158 H 0.75702 0.17876 0.76184 0.0
H159 H 0.7313 0.16738 0.67699 0.0
H160 H 0.74794 0.4111 0.29235 0.0
C161 C 0.72296 0.402 0.31511 0.0
C162 C 0.71693 0.41962 0.36229 0.0
C163 C 0.69439 0.37552 0.29553 0.0
H164 H 0.6777 0.42489 0.42577 0.0
C165 C 0.68321 0.40998 0.39034 0.0
C166 C 0.65508 0.38349 0.37157 0.0
C167 C 0.66091 0.36585 0.32468 0.0
C168 C 0.69619 0.36187 0.24262 0.0
H169 H 0.63839 0.34603 0.30983 0.0
C170 C 0.731 0.34534 0.2219 0.0
C171 C 0.73086 0.33121 0.17226 0.0
C172 C 0.66202 0.36493 0.21253 0.0
H173 H 0.63502 0.37805 0.22713 0.0
C174 C 0.66224 0.35126 0.16325 0.0
H175 H 0.75743 0.34228 0.24468 0.0
C176 C 0.69644 0.33428 0.14322 0.0
H177 H 0.69587 0.32309 0.10514 0.0
H178 H 0.63569 0.35352 0.14065 0.0
H179 H 0.17381 0.16298 0.83275 0.0
C180 C 0.14692 0.17843 0.84367 0.0
C181 C 0.11733 0.1584 0.87089 0.0
C182 C 0.14263 0.21921 0.83328 0.0
H183 H 0.06077 0.16376 0.90799 0.0
C184 C 0.08339 0.179 0.88648 0.0
C185 C 0.07896 0.2194 0.876 0.0
C186 C 0.10826 0.23932 0.84919 0.0
C187 C 0.17564 0.24273 0.81217 0.0
H188 H 0.10496 0.2708 0.84204 0.0
C189 C 0.19069 0.23563 0.76372 0.0
C190 C 0.21997 0.26098 0.74412 0.0
C191 C 0.19067 0.27462 0.84055 0.0
H192 H 0.17947 0.28061 0.87782 0.0
C193 C 0.21998 0.29924 0.82116 0.0
H194 H 0.17898 0.21149 0.74119 0.0
C195 C 0.23449 0.29257 0.77313 0.0
H196 H 0.25698 0.31234 0.75843 0.0
H197 H 0.23122 0.32379 0.84325 0.0
H198 H 0.35386 0.70353 0.33544 0.0
C199 C 0.34295 0.67393 0.34305 0.0
C200 C 0.36743 0.64625 0.36761 0.0
C201 C 0.30345 0.6636 0.33081 0.0
H202 H 0.37128 0.58735 0.39802 0.0
C203 C 0.35259 0.60862 0.37874 0.0
C204 C 0.31361 0.5984 0.36667 0.0
C205 C 0.28916 0.62558 0.34253 0.0
C206 C 0.27473 0.6932 0.31221 0.0
H207 H 0.25866 0.61763 0.33411 0.0
C208 C 0.2768 0.70849 0.26331 0.0
C209 C 0.24611 0.7331 0.24566 0.0
C210 C 0.2423 0.70316 0.34288 0.0
H211 H 0.23995 0.69128 0.38033 0.0
C212 C 0.21228 0.72784 0.32535 0.0
H213 H 0.30125 0.70038 0.23897 0.0
C214 C 0.21409 0.74267 0.27694 0.0
H215 H 0.19021 0.76147 0.26374 0.0
H216 H 0.1873 0.73511 0.34915 0.0
H217 H 0.88812 0.77689 0.79262 0.0
C218 C 0.87664 0.80253 0.81259 0.0
C219 C 0.89302 0.81323 0.85896 0.0
C220 C 0.84906 0.82781 0.78925 0.0
H221 H 0.8946 0.85697 0.91795 0.0
C222 C 0.88051 0.84791 0.88318 0.0
C223 C 0.85282 0.87293 0.86084 0.0
C224 C 0.83681 0.86279 0.81411 0.0
C225 C 0.83849 0.8215 0.73593 0.0
H226 H 0.81669 0.88319 0.79579 0.0
C227 C 0.82342 0.78495 0.71839 0.0
C228 C 0.81391 0.78013 0.66745 0.0
C229 C 0.84469 0.85246 0.70177 0.0
H230 H 0.8569 0.8806 0.71411 0.0
C231 C 0.83586 0.84729 0.65122 0.0
H232 H 0.81821 0.76091 0.74434 0.0
C233 C 0.82037 0.81135 0.63411 0.0
H234 H 0.81299 0.80809 0.59485 0.0
H235 H 0.8408 0.8713 0.62527 0.0
C236 C 0.24322 0.97714 0.08435 0.0
C237 C 0.22303 0.95244 0.06375 0.0
C238 C 0.25009 0.01067 0.11504 0.0
C239 C 0.24085 0.03892 0.14038 0.0
C240 C 0.49501 0.69456 0.59746 0.0
C241 C 0.52471 0.67745 0.58456 0.0
C242 C 0.45842 0.70271 0.62084 0.0
C243 C 0.42847 0.69674 0.64415 0.0
C244 C 0.80367 0.00276 0.10602 0.0
C245 C 0.8198 0.03267 0.09273 0.0
C246 C 0.79606 0.96483 0.12523 0.0
C247 C 0.79968 0.9318 0.14125 0.0
C248 C 0.47804 0.24552 0.57933 0.0
C249 C 0.45072 0.26385 0.56209 0.0
C250 C 0.51457 0.24186 0.6044 0.0
C251 C 0.54514 0.25114 0.62463 0.0
C252 C 0.74268 0.51445 0.43575 0.0
C253 C 0.72251 0.5391 0.45647 0.0
C254 C 0.74962 0.48094 0.40505 0.0
C255 C 0.74047 0.45261 0.37979 0.0
C256 C 0.97779 0.24574 0.94066 0.0
C257 C 0.95056 0.22741 0.9581 0.0
C258 C 0.01427 0.24943 0.91549 0.0
C259 C 0.04486 0.24017 0.8953 0.0
C260 C 0.30345 0.48912 0.41629 0.0
C261 C 0.31966 0.45918 0.42933 0.0
C262 C 0.29572 0.52707 0.39724 0.0
C263 C 0.29925 0.56009 0.38118 0.0
C264 C 0.99528 0.79698 0.92365 0.0
C265 C 0.02501 0.81407 0.93649 0.0
C266 C 0.95863 0.78884 0.90041 0.0
C267 C 0.92859 0.79477 0.87726 0.0
C268 C 0.84952 0.97972 0.92965 0.0
C269 C 0.8588 0.01204 0.94545 0.0
C270 C 0.84448 0.94263 0.90544 0.0
C271 C 0.84641 0.91162 0.88276 0.0
C272 C 0.54802 0.37285 0.43933 0.0
C273 C 0.51309 0.37162 0.44914 0.0
C274 C 0.58679 0.37481 0.41934 0.0
C275 C 0.61788 0.37873 0.39753 0.0
C276 C 0.12042 0.0439 0.91844 0.0
C277 C 0.11944 0.00922 0.92998 0.0
C278 C 0.12202 0.08356 0.90085 0.0
C279 C 0.12189 0.11742 0.88592 0.0
C280 C 0.47754 0.64518 0.4244 0.0
C281 C 0.50901 0.63342 0.44042 0.0
C282 C 0.4402 0.65402 0.40246 0.0
C283 C 0.40727 0.65528 0.38441 0.0
C284 C 0.34978 0.51148 0.59236 0.0
C285 C 0.35903 0.47919 0.57646 0.0
C286 C 0.34475 0.54856 0.61659 0.0
C287 C 0.34666 0.5796 0.63922 0.0
C288 C 0.97794 0.84674 0.09686 0.0
C289 C 0.00939 0.85845 0.08071 0.0
C290 C 0.94065 0.83796 0.11896 0.0
C291 C 0.90777 0.83671 0.13715 0.0
C292 C 0.62042 0.44754 0.60222 0.0
C293 C 0.61936 0.48223 0.59075 0.0
C294 C 0.62212 0.40784 0.61972 0.0
C295 C 0.62205 0.37396 0.63455 0.0
C296 C 0.04803 0.11849 0.08172 0.0
C297 C 0.0131 0.11984 0.07191 0.0
C298 C 0.08681 0.11642 0.10166 0.0
C299 C 0.11795 0.11246 0.12337 0.0
C300 C 0.218 0.78929 0.12094 0.0
C301 C 0.19762 0.81174 0.0971 0.0
C302 C 0.23652 0.76568 0.15768 0.0
C303 C 0.2456 0.74862 0.19554 0.0
C304 C 0.75456 0.68798 0.60547 0.0
C305 C 0.72821 0.66698 0.59007 0.0
C306 C 0.77896 0.71669 0.62892 0.0
C307 C 0.79499 0.74457 0.649 0.0
C308 C 0.81528 0.26617 0.10342 0.0
C309 C 0.83352 0.23811 0.08735 0.0
C310 C 0.78998 0.2929 0.12879 0.0
C311 C 0.76456 0.31077 0.15129 0.0
C312 C 0.28018 0.27594 0.61921 0.0
C313 C 0.30487 0.29387 0.59575 0.0
C314 C 0.25401 0.26146 0.65612 0.0
C315 C 0.23545 0.25655 0.69416 0.0
C316 C 0.7179 0.70249 0.4005 0.0
C317 C 0.69746 0.68003 0.42423 0.0
C318 C 0.73655 0.72608 0.36384 0.0
C319 C 0.74579 0.7431 0.32601 0.0
C320 C 0.78022 0.21515 0.90115 0.0
C321 C 0.80487 0.19726 0.92473 0.0
C322 C 0.7541 0.22963 0.86418 0.0
C323 C 0.73556 0.23457 0.82612 0.0
C324 C 0.31532 0.22565 0.4168 0.0
C325 C 0.33353 0.25372 0.43291 0.0
C326 C 0.29009 0.19879 0.39153 0.0
C327 C 0.26474 0.1807 0.36918 0.0
C328 C 0.25506 0.80368 0.91603 0.0
C329 C 0.22867 0.82467 0.93132 0.0
C330 C 0.27949 0.77493 0.89271 0.0
C331 C 0.29548 0.747 0.87271 0.0
loop_
_geom_bond_atom_site_label_1
_geom_bond_atom_site_label_2
_geom_bond_distance
_geom_bond_site_symmetry_2
_ccdc_geom_bond_type
Zn0 O6 1.920 . S
Zn0 O12 1.898 . S
Zn0 O15 1.905 . S
Zn1 O9 1.905 . S
Zn1 O10 1.898 . S
Zn1 O18 1.920 . S
Zn2 O5 2.080 . S
Zn2 O8 2.114 1_554 S
Zn2 O11 2.120 1_554 S
Zn2 O13 2.120 . S
Zn2 O14 2.114 . S
Zn2 O17 2.080 1_554 S
C3 O8 1.166 . S
C3 O9 1.182 . S
C4 O10 1.167 . S
C4 O11 1.299 . S
O5 Zn2 2.080 . S
O5 C19 1.305 . S
O6 Zn0 1.920 . S
O6 C19 1.234 . S
C7 O12 1.167 . S
C7 O13 1.299 . S
O8 Zn2 2.114 1_556 S
O8 C3 1.166 . S
O9 Zn1 1.905 . S
O9 C3 1.182 . S
O10 Zn1 1.898 . S
O10 C4 1.167 . S
O11 Zn2 2.120 1_556 S
O11 C4 1.299 . S
O12 Zn0 1.898 . S
O12 C7 1.167 . S
O13 Zn2 2.120 . S
O13 C7 1.299 . S
O14 Zn2 2.114 . S
O14 C16 1.166 . S
O15 Zn0 1.905 . S
O15 C16 1.182 . S
C16 O14 1.166 . S
C16 O15 1.182 . S
O17 Zn2 2.080 1_556 S
O17 C20 1.305 . S
O18 Zn1 1.920 . S
O18 C20 1.234 . S
C19 O5 1.305 . S
C19 O6 1.234 . S
C20 O17 1.305 . S
C20 O18 1.234 . S
Zn21 O27 1.920 . S
Zn21 O33 1.898 . S
Zn21 O36 1.905 . S
Zn22 O30 1.905 . S
Zn22 O31 1.898 . S
Zn22 O39 1.920 . S
Zn23 O26 2.080 . S
Zn23 O29 2.114 . S
Zn23 O32 2.120 . S
Zn23 O34 2.120 . S
Zn23 O35 2.114 . S
Zn23 O38 2.080 . S
C24 O29 1.166 . S
C24 O30 1.182 . S
C25 O31 1.167 . S
C25 O32 1.299 . S
O26 Zn23 2.080 . S
O26 C40 1.305 . S
O27 Zn21 1.920 . S
O27 C40 1.234 . S
C28 O33 1.167 . S
C28 O34 1.299 . S
O29 Zn23 2.114 . S
O29 C24 1.166 . S
O30 Zn22 1.905 . S
O30 C24 1.182 . S
O31 Zn22 1.898 . S
O31 C25 1.167 . S
O32 Zn23 2.120 . S
O32 C25 1.299 . S
O33 Zn21 1.898 . S
O33 C28 1.167 . S
O34 Zn23 2.120 . S
O34 C28 1.299 . S
O35 Zn23 2.114 . S
O35 C37 1.166 . S
O36 Zn21 1.905 . S
O36 C37 1.182 . S
C37 O35 1.166 . S
C37 O36 1.182 . S
O38 Zn23 2.080 . S
O38 C41 1.305 . S
O39 Zn22 1.920 . S
O39 C41 1.234 . S
C40 O26 1.305 . S
C40 O27 1.234 . S
C41 O38 1.305 . S
C41 O39 1.234 . S
Zn42 O48 1.920 . S
Zn42 O54 1.898 . S
Zn42 O57 1.905 . S
Zn43 O51 1.905 . S
Zn43 O52 1.898 . S
Zn43 O60 1.920 . S
Zn44 O47 2.080 1_554 S
Zn44 O50 2.114 . S
Zn44 O53 2.120 . S
Zn44 O55 2.120 1_554 S
Zn44 O56 2.114 1_554 S
Zn44 O59 2.080 . S
C45 O50 1.166 . S
C45 O51 1.182 . S
C46 O52 1.167 . S
C46 O53 1.299 . S
O47 Zn44 2.080 1_556 S
O47 C61 1.305 . S
O48 Zn42 1.920 . S
O48 C61 1.234 . S
C49 O54 1.167 . S
C49 O55 1.299 . S
O50 Zn44 2.114 . S
O50 C45 1.166 . S
O51 Zn43 1.905 . S
O51 C45 1.182 . S
O52 Zn43 1.898 . S
O52 C46 1.167 . S
O53 Zn44 2.120 . S
O53 C46 1.299 . S
O54 Zn42 1.898 . S
O54 C49 1.167 . S
O55 Zn44 2.120 1_556 S
O55 C49 1.299 . S
O56 Zn44 2.114 1_556 S
O56 C58 1.166 . S
O57 Zn42 1.905 . S
O57 C58 1.182 . S
C58 O56 1.166 . S
C58 O57 1.182 . S
O59 Zn44 2.080 . S
O59 C62 1.305 . S
O60 Zn43 1.920 . S
O60 C62 1.234 . S
C61 O47 1.305 . S
C61 O48 1.234 . S
C62 O59 1.305 . S
C62 O60 1.234 . S
Zn63 O69 1.920 . S
Zn63 O75 1.898 . S
Zn63 O78 1.905 . S
Zn64 O72 1.905 . S
Zn64 O73 1.898 . S
Zn64 O81 1.920 . S
Zn65 O68 2.080 . S
Zn65 O71 2.114 . S
Zn65 O74 2.120 . S
Zn65 O76 2.120 . S
Zn65 O77 2.114 . S
Zn65 O80 2.080 . S
C66 O71 1.166 . S
C66 O72 1.182 . S
C67 O73 1.167 . S
C67 O74 1.299 . S
O68 Zn65 2.080 . S
O68 C82 1.305 . S
O69 Zn63 1.920 . S
O69 C82 1.234 . S
C70 O75 1.167 . S
C70 O76 1.299 . S
O71 Zn65 2.114 . S
O71 C66 1.166 . S
O72 Zn64 1.905 . S
O72 C66 1.182 . S
O73 Zn64 1.898 . S
O73 C67 1.167 . S
O74 Zn65 2.120 . S
O74 C67 1.299 . S
O75 Zn63 1.898 . S
O75 C70 1.167 . S
O76 Zn65 2.120 . S
O76 C70 1.299 . S
O77 Zn65 2.114 . S
O77 C79 1.166 . S
O78 Zn63 1.905 . S
O78 C79 1.182 . S
C79 O77 1.166 . S
C79 O78 1.182 . S
O80 Zn65 2.080 . S
O80 C83 1.305 . S
O81 Zn64 1.920 . S
O81 C83 1.234 . S
C82 O68 1.305 . S
C82 O69 1.234 . S
C83 O80 1.305 . S
C83 O81 1.234 . S
H84 C85 0.949 . S
C85 H84 0.949 . S
C85 C86 1.395 . S
C85 C87 1.391 . S
C86 C85 1.395 . S
C86 C89 1.390 . S
C87 C85 1.391 . S
C87 C91 1.387 . S
C87 C92 1.491 . S
H88 C89 0.950 . S
C89 C86 1.390 . S
C89 H88 0.950 . S
C89 C90 1.378 . S
C90 C89 1.378 . S
C90 C91 1.409 . S
C91 C87 1.387 . S
C91 C90 1.409 . S
C91 H93 0.951 . S
C92 C87 1.491 . S
C92 C94 1.382 . S
C92 C96 1.404 . S
H93 C91 0.951 . S
C94 C92 1.382 . S
C94 C95 1.390 . S
C94 H99 0.949 . S
C95 C94 1.390 . S
C95 C100 1.399 . S
C96 C92 1.404 . S
C96 H97 0.950 . S
C96 C98 1.375 . S
H97 C96 0.950 . S
C98 C96 1.375 . S
C98 C100 1.382 . S
C98 H102 0.950 . S
H99 C94 0.949 . S
C100 C95 1.399 . S
C100 C98 1.382 . S
C100 H101 0.952 . S
H101 C100 0.952 . S
H102 C98 0.950 . S
H103 C104 0.949 . S
C104 H103 0.949 . S
C104 C105 1.395 . S
C104 C106 1.391 . S
C105 C104 1.395 . S
C105 C108 1.390 . S
C106 C104 1.391 . S
C106 C110 1.387 . S
C106 C111 1.491 . S
H107 C108 0.950 . S
C108 C105 1.390 . S
C108 H107 0.950 . S
C108 C109 1.378 . S
C109 C108 1.378 . S
C109 C110 1.409 . S
C110 C106 1.387 . S
C110 C109 1.409 . S
C110 H112 0.951 . S
C111 C106 1.491 . S
C111 C113 1.382 . S
C111 C115 1.404 . S
H112 C110 0.951 . S
C113 C111 1.382 . S
C113 C114 1.390 . S
C113 H118 0.949 . S
C114 C113 1.390 . S
C114 C119 1.399 . S
C115 C111 1.404 . S
C115 H116 0.950 . S
C115 C117 1.375 . S
H116 C115 0.950 . S
C117 C115 1.375 . S
C117 C119 1.382 . S
C117 H121 0.950 . S
H118 C113 0.949 . S
C119 C114 1.399 . S
C119 C117 1.382 . S
C119 H120 0.952 . S
H120 C119 0.952 . S
H121 C117 0.950 . S
H122 C123 0.949 . S
C123 H122 0.949 . S
C123 C124 1.395 . S
C123 C125 1.391 . S
C124 C123 1.395 . S
C124 C127 1.390 . S
C125 C123 1.391 . S
C125 C129 1.387 . S
C125 C130 1.491 . S
H126 C127 0.950 . S
C127 C124 1.390 . S
C127 H126 0.950 . S
C127 C128 1.378 . S
C128 C127 1.378 . S
C128 C129 1.409 . S
C129 C125 1.387 . S
C129 C128 1.409 . S
C129 H131 0.951 . S
C130 C125 1.491 . S
C130 C132 1.382 . S
C130 C134 1.404 . S
H131 C129 0.951 . S
C132 C130 1.382 . S
C132 C133 1.390 . S
C132 H137 0.949 . S
C133 C132 1.390 . S
C133 C138 1.399 . S
C134 C130 1.404 . S
C134 H135 0.950 . S
C134 C136 1.375 . S
H135 C134 0.950 . S
C136 C134 1.375 . S
C136 C138 1.382 . S
C136 H140 0.950 . S
H137 C132 0.949 . S
C138 C133 1.399 . S
C138 C136 1.382 . S
C138 H139 0.952 . S
H139 C138 0.952 . S
H140 C136 0.950 . S
H141 C142 0.949 . S
C142 H141 0.949 . S
C142 C143 1.395 . S
C142 C144 1.391 . S
C143 C142 1.395 . S
C143 C146 1.390 . S
C144 C142 1.391 . S
C144 C148 1.387 . S
C144 C149 1.491 . S
H145 C146 0.950 . S
C146 C143 1.390 . S
C146 H145 0.950 . S
C146 C147 1.378 . S
C147 C146 1.378 . S
C147 C148 1.409 . S
C148 C144 1.387 . S
C148 C147 1.409 . S
C148 H150 0.951 . S
C149 C144 1.491 . S
C149 C151 1.382 . S
C149 C153 1.404 . S
H150 C148 0.951 . S
C151 C149 1.382 . S
C151 C152 1.390 . S
C151 H156 0.949 . S
C152 C151 1.390 . S
C152 C157 1.399 . S
C153 C149 1.404 . S
C153 H154 0.950 . S
C153 C155 1.375 . S
H154 C153 0.950 . S
C155 C153 1.375 . S
C155 C157 1.382 . S
C155 H159 0.950 . S
H156 C151 0.949 . S
C157 C152 1.399 . S
C157 C155 1.382 . S
C157 H158 0.952 . S
H158 C157 0.952 . S
H159 C155 0.950 . S
H160 C161 0.949 . S
C161 H160 0.949 . S
C161 C162 1.395 . S
C161 C163 1.391 . S
C162 C161 1.395 . S
C162 C165 1.390 . S
C163 C161 1.391 . S
C163 C167 1.387 . S
C163 C168 1.491 . S
H164 C165 0.950 . S
C165 C162 1.390 . S
C165 H164 0.950 . S
C165 C166 1.378 . S
C166 C165 1.378 . S
C166 C167 1.409 . S
C167 C163 1.387 . S
C167 C166 1.409 . S
C167 H169 0.951 . S
C168 C163 1.491 . S
C168 C170 1.382 . S
C168 C172 1.404 . S
H169 C167 0.951 . S
C170 C168 1.382 . S
C170 C171 1.390 . S
C170 H175 0.949 . S
C171 C170 1.390 . S
C171 C176 1.399 . S
C172 C168 1.404 . S
C172 H173 0.950 . S
C172 C174 1.375 . S
H173 C172 0.950 . S
C174 C172 1.375 . S
C174 C176 1.382 . S
C174 H178 0.950 . S
H175 C170 0.949 . S
C176 C171 1.399 . S
C176 C174 1.382 . S
C176 H177 0.952 . S
H177 C176 0.952 . S
H178 C174 0.950 . S
H179 C180 0.949 . S
C180 H179 0.949 . S
C180 C181 1.395 . S
C180 C182 1.391 . S
C181 C180 1.395 . S
C181 C184 1.390 . S
C182 C180 1.391 . S
C182 C186 1.387 . S
C182 C187 1.491 . S
H183 C184 0.950 . S
C184 C181 1.390 . S
C184 H183 0.950 . S
C184 C185 1.378 . S
C185 C184 1.378 . S
C185 C186 1.409 . S
C186 C182 1.387 . S
C186 C185 1.409 . S
C186 H188 0.951 . S
C187 C182 1.491 . S
C187 C189 1.382 . S
C187 C191 1.404 . S
H188 C186 0.951 . S
C189 C187 1.382 . S
C189 C190 1.390 . S
C189 H194 0.949 . S
C190 C189 1.390 . S
C190 C195 1.399 . S
C191 C187 1.404 . S
C191 H192 0.950 . S
C191 C193 1.375 . S
H192 C191 0.950 . S
C193 C191 1.375 . S
C193 C195 1.382 . S
C193 H197 0.950 . S
H194 C189 0.949 . S
C195 C190 1.399 . S
C195 C193 1.382 . S
C195 H196 0.952 . S
H196 C195 0.952 . S
H197 C193 0.950 . S
H198 C199 0.949 . S
C199 H198 0.949 . S
C199 C200 1.395 . S
C199 C201 1.391 . S
C200 C199 1.395 . S
C200 C203 1.390 . S
C201 C199 1.391 . S
C201 C205 1.387 . S
C201 C206 1.491 . S
H202 C203 0.950 . S
C203 C200 1.390 . S
C203 H202 0.950 . S
C203 C204 1.378 . S
C204 C203 1.378 . S
C204 C205 1.409 . S
C205 C201 1.387 . S
C205 C204 1.409 . S
C205 H207 0.951 . S
C206 C201 1.491 . S
C206 C208 1.382 . S
C206 C210 1.404 . S
H207 C205 0.951 . S
C208 C206 1.382 . S
C208 C209 1.390 . S
C208 H213 0.949 . S
C209 C208 1.390 . S
C209 C214 1.399 . S
C210 C206 1.404 . S
C210 H211 0.950 . S
C210 C212 1.375 . S
H211 C210 0.950 . S
C212 C210 1.375 . S
C212 C214 1.382 . S
C212 H216 0.950 . S
H213 C208 0.949 . S
C214 C209 1.399 . S
C214 C212 1.382 . S
C214 H215 0.952 . S
H215 C214 0.952 . S
H216 C212 0.950 . S
H217 C218 0.949 . S
C218 H217 0.949 . S
C218 C219 1.395 . S
C218 C220 1.391 . S
C219 C218 1.395 . S
C219 C222 1.390 . S
C220 C218 1.391 . S
C220 C224 1.387 . S
C220 C225 1.491 . S
H221 C222 0.950 . S
C222 C219 1.390 . S
C222 H221 0.950 . S
C222 C223 1.378 . S
C223 C222 1.378 . S
C223 C224 1.409 . S
C224 C220 1.387 . S
C224 C223 1.409 . S
C224 H226 0.951 . S
C225 C220 1.491 . S
C225 C227 1.382 . S
C225 C229 1.404 . S
H226 C224 0.951 . S
C227 C225 1.382 . S
C227 C228 1.390 . S
C227 H232 0.949 . S
C228 C227 1.390 . S
C228 C233 1.399 . S
C229 C225 1.404 . S
C229 H230 0.950 . S
C229 C231 1.375 . S
H230 C229 0.950 . S
C231 C229 1.375 . S
C231 C233 1.382 . S
C231 H235 0.950 . S
H232 C227 0.949 . S
C233 C228 1.399 . S
C233 C231 1.382 . S
C233 H234 0.952 . S
H234 C233 0.952 . S
H235 C231 0.950 . S
C236 C237 1.170 . S
C236 C238 1.380 1_565 S
C237 C236 1.170 . S
C238 C236 1.380 1_545 S
C238 C239 1.170 . S
C239 C238 1.170 . S
C240 C241 1.170 . S
C240 C242 1.380 . S
C241 C240 1.170 . S
C242 C240 1.380 . S
C242 C243 1.170 . S
C243 C242 1.170 . S
C244 C245 1.170 . S
C244 C246 1.380 1_545 S
C245 C244 1.170 . S
C246 C244 1.380 1_565 S
C246 C247 1.170 . S
C247 C246 1.170 . S
C248 C249 1.170 . S
C248 C250 1.380 . S
C249 C248 1.170 . S
C250 C248 1.380 . S
C250 C251 1.170 . S
C251 C250 1.170 . S
C252 C253 1.170 . S
C252 C254 1.380 . S
C253 C252 1.170 . S
C254 C252 1.380 . S
C254 C255 1.170 . S
C255 C254 1.170 . S
C256 C257 1.170 . S
C256 C258 1.380 1_655 S
C257 C256 1.170 . S
C258 C256 1.380 1_455 S
C258 C259 1.170 . S
C259 C258 1.170 . S
C260 C261 1.170 . S
C260 C262 1.380 . S
C261 C260 1.170 . S
C262 C260 1.380 . S
C262 C263 1.170 . S
C263 C262 1.170 . S
C264 C265 1.170 . S
C264 C266 1.380 1_455 S
C265 C264 1.170 . S
C266 C264 1.380 1_655 S
C266 C267 1.170 . S
C267 C266 1.170 . S
C268 C269 1.170 1_565 S
C268 C270 1.380 . S
C269 C268 1.170 1_545 S
C270 C268 1.380 . S
C270 C271 1.170 . S
C271 C270 1.170 . S
C272 C273 1.170 . S
C272 C274 1.380 . S
C273 C272 1.170 . S
C274 C272 1.380 . S
C274 C275 1.170 . S
C275 C274 1.170 . S
C276 C277 1.170 . S
C276 C278 1.380 . S
C277 C276 1.170 . S
C278 C276 1.380 . S
C278 C279 1.170 . S
C279 C278 1.170 . S
C280 C281 1.170 . S
C280 C282 1.380 . S
C281 C280 1.170 . S
C282 C280 1.380 . S
C282 C283 1.170 . S
C283 C282 1.170 . S
C284 C285 1.170 . S
C284 C286 1.380 . S
C285 C284 1.170 . S
C286 C284 1.380 . S
C286 C287 1.170 . S
C287 C286 1.170 . S
C288 C289 1.170 1_655 S
C288 C290 1.380 . S
C289 C288 1.170 1_455 S
C290 C288 1.380 . S
C290 C291 1.170 . S
C291 C290 1.170 . S
C292 C293 1.170 . S
C292 C294 1.380 . S
C293 C292 1.170 . S
C294 C292 1.380 . S
C294 C295 1.170 . S
C295 C294 1.170 . S
C296 C297 1.170 . S
C296 C298 1.380 . S
C297 C296 1.170 . S
C298 C296 1.380 . S
C298 C299 1.170 . S
C299 C298 1.170 . S
C300 C301 1.170 . S
C300 C302 1.380 . S
C301 C300 1.170 . S
C302 C300 1.380 . S
C302 C303 1.170 . S
C303 C302 1.170 . S
C304 C305 1.170 . S
C304 C306 1.380 . S
C305 C304 1.170 . S
C306 C304 1.380 . S
C306 C307 1.170 . S
C307 C306 1.170 . S
C308 C309 1.170 . S
C308 C310 1.380 . S
C309 C308 1.170 . S
C310 C308 1.380 . S
C310 C311 1.170 . S
C311 C310 1.170 . S
C312 C313 1.170 . S
C312 C314 1.380 . S
C313 C312 1.170 . S
C314 C312 1.380 . S
C314 C315 1.170 . S
C315 C314 1.170 . S
C316 C317 1.170 . S
C316 C318 1.380 . S
C317 C316 1.170 . S
C318 C316 1.380 . S
C318 C319 1.170 . S
C319 C318 1.170 . S
C320 C321 1.170 . S
C320 C322 1.380 . S
C321 C320 1.170 . S
C322 C320 1.380 . S
C322 C323 1.170 . S
C323 C322 1.170 . S
C324 C325 1.170 . S
C324 C326 1.380 . S
C325 C324 1.170 . S
C326 C324 1.380 . S
C326 C327 1.170 . S
C327 C326 1.170 . S
C328 C329 1.170 . S
C328 C330 1.380 . S
C329 C328 1.170 . S
C330 C328 1.380 . S
C330 C331 1.170 . S
C331 C330 1.170 . S
C237 C7 0.995 . S
C239 C86 1.017 . S
C241 C25 1.054 . S
C243 C105 0.994 . S
C245 C46 0.793 . S
C247 C128 0.830 . S
C251 C147 0.767 . S
C249 C70 0.786 . S
C255 C162 0.963 . S
C253 C28 0.939 . S
C257 C49 0.738 . S
C259 C185 0.798 . S
C261 C67 0.886 . S
C263 C204 0.859 . S
C265 C4 1.067 . S
C267 C219 1.051 . S
C269 C58 1.502 . S
C271 C223 1.631 . S
C275 C166 1.584 . S
C273 C66 1.517 . S
C279 C181 1.779 . S
C277 C3 1.705 1_545 S
C281 C37 1.745 . S
C283 C200 1.802 . S
C287 C109 1.612 . S
C285 C79 1.548 . S
C289 C16 1.759 . S
C291 C124 1.776 . S
C295 C143 1.745 . S
C293 C24 1.733 . S
C299 C90 1.599 . S
C297 C45 1.472 1_455 S
C303 C209 1.340 . S
C301 C19 1.344 . S
C307 C228 1.342 . S
C305 C41 1.363 . S
C309 C62 1.353 . S
C311 C171 1.316 . S
C315 C190 1.297 . S
C313 C82 1.294 . S
C319 C133 1.359 . S
C317 C40 1.300 . S
C321 C61 1.294 . S
C323 C152 1.312 . S
C327 C95 1.265 . S
C325 C83 1.300 . S
C331 C114 1.366 . S
C329 C20 1.422 . S
