# Generated by pormake.
# Topology ctn, (3,4)-cn, num edge types: 1
# Building blocks:
#     Node 0, Type 0, BuildingBlock: BETDIP_clean_linker_0, # of connection points: 3
#     Node 1, Type 0, BuildingBlock: BETDIP_clean_linker_0, # of connection points: 3
#     Node 2, Type 0, BuildingBlock: BETDIP_clean_linker_0, # of connection points: 3
#     Node 3, Type 0, BuildingBlock: BETDIP_clean_linker_0, # of connection points: 3
#     Node 4, Type 0, BuildingBlock: BETDIP_clean_linker_0, # of connection points: 3
#     Node 5, Type 0, BuildingBlock: BETDIP_clean_linker_0, # of connection points: 3
#     Node 6, Type 0, BuildingBlock: BETDIP_clean_linker_0, # of connection points: 3
#     Node 7, Type 0, BuildingBlock: BETDIP_clean_linker_0, # of connection points: 3
#     Node 8, Type 0, BuildingBlock: BETDIP_clean_linker_0, # of connection points: 3
#     Node 9, Type 0, BuildingBlock: BETDIP_clean_linker_0, # of connection points: 3
#     Node 10, Type 0, BuildingBlock: BETDIP_clean_linker_0, # of connection points: 3
#     Node 11, Type 0, BuildingBlock: BETDIP_clean_linker_0, # of connection points: 3
#     Node 12, Type 0, BuildingBlock: BETDIP_clean_linker_0, # of connection points: 3
#     Node 13, Type 0, BuildingBlock: BETDIP_clean_linker_0, # of connection points: 3
#     Node 14, Type 0, BuildingBlock: BETDIP_clean_linker_0, # of connection points: 3
#     Node 15, Type 0, BuildingBlock: BETDIP_clean_linker_0, # of connection points: 3
#     Node 16, Type 1, BuildingBlock: TATPOV_clean_sbu_0, # of connection points: 4
#     Node 17, Type 1, BuildingBlock: TATPOV_clean_sbu_0, # of connection points: 4
#     Node 18, Type 1, BuildingBlock: TATPOV_clean_sbu_0, # of connection points: 4
#     Node 19, Type 1, BuildingBlock: TATPOV_clean_sbu_0, # of connection points: 4
#     Node 20, Type 1, BuildingBlock: TATPOV_clean_sbu_0, # of connection points: 4
#     Node 21, Type 1, BuildingBlock: TATPOV_clean_sbu_0, # of connection points: 4
#     Node 22, Type 1, BuildingBlock: TATPOV_clean_sbu_0, # of connection points: 4
#     Node 23, Type 1, BuildingBlock: TATPOV_clean_sbu_0, # of connection points: 4
#     Node 24, Type 1, BuildingBlock: TATPOV_clean_sbu_0, # of connection points: 4
#     Node 25, Type 1, BuildingBlock: TATPOV_clean_sbu_0, # of connection points: 4
#     Node 26, Type 1, BuildingBlock: TATPOV_clean_sbu_0, # of connection points: 4
#     Node 27, Type 1, BuildingBlock: TATPOV_clean_sbu_0, # of connection points: 4
#     Edge 28, Type (0, 1), BuildingBlock: OJICUG_clean_linker_0, # of connection points: 2
#     Edge 29, Type (0, 1), BuildingBlock: OJICUG_clean_linker_0, # of connection points: 2
#     Edge 30, Type (0, 1), BuildingBlock: OJICUG_clean_linker_0, # of connection points: 2
#     Edge 31, Type (0, 1), BuildingBlock: OJICUG_clean_linker_0, # of connection points: 2
#     Edge 32, Type (0, 1), BuildingBlock: OJICUG_clean_linker_0, # of connection points: 2
#     Edge 33, Type (0, 1), BuildingBlock: OJICUG_clean_linker_0, # of connection points: 2
#     Edge 34, Type (0, 1), BuildingBlock: OJICUG_clean_linker_0, # of connection points: 2
#     Edge 35, Type (0, 1), BuildingBlock: OJICUG_clean_linker_0, # of connection points: 2
#     Edge 36, Type (0, 1), BuildingBlock: OJICUG_clean_linker_0, # of connection points: 2
#     Edge 37, Type (0, 1), BuildingBlock: OJICUG_clean_linker_0, # of connection points: 2
#     Edge 38, Type (0, 1), BuildingBlock: OJICUG_clean_linker_0, # of connection points: 2
#     Edge 39, Type (0, 1), BuildingBlock: OJICUG_clean_linker_0, # of connection points: 2
#     Edge 40, Type (0, 1), BuildingBlock: OJICUG_clean_linker_0, # of connection points: 2
#     Edge 41, Type (0, 1), BuildingBlock: OJICUG_clean_linker_0, # of connection points: 2
#     Edge 42, Type (0, 1), BuildingBlock: OJICUG_clean_linker_0, # of connection points: 2
#     Edge 43, Type (0, 1), BuildingBlock: OJICUG_clean_linker_0, # of connection points: 2
#     Edge 44, Type (0, 1), BuildingBlock: OJICUG_clean_linker_0, # of connection points: 2
#     Edge 45, Type (0, 1), BuildingBlock: OJICUG_clean_linker_0, # of connection points: 2
#     Edge 46, Type (0, 1), BuildingBlock: OJICUG_clean_linker_0, # of connection points: 2
#     Edge 47, Type (0, 1), BuildingBlock: OJICUG_clean_linker_0, # of connection points: 2
#     Edge 48, Type (0, 1), BuildingBlock: OJICUG_clean_linker_0, # of connection points: 2
#     Edge 49, Type (0, 1), BuildingBlock: OJICUG_clean_linker_0, # of connection points: 2
#     Edge 50, Type (0, 1), BuildingBlock: OJICUG_clean_linker_0, # of connection points: 2
#     Edge 51, Type (0, 1), BuildingBlock: OJICUG_clean_linker_0, # of connection points: 2
#     Edge 52, Type (0, 1), BuildingBlock: OJICUG_clean_linker_0, # of connection points: 2
#     Edge 53, Type (0, 1), BuildingBlock: OJICUG_clean_linker_0, # of connection points: 2
#     Edge 54, Type (0, 1), BuildingBlock: OJICUG_clean_linker_0, # of connection points: 2
#     Edge 55, Type (0, 1), BuildingBlock: OJICUG_clean_linker_0, # of connection points: 2
#     Edge 56, Type (0, 1), BuildingBlock: OJICUG_clean_linker_0, # of connection points: 2
#     Edge 57, Type (0, 1), BuildingBlock: OJICUG_clean_linker_0, # of connection points: 2
#     Edge 58, Type (0, 1), BuildingBlock: OJICUG_clean_linker_0, # of connection points: 2
#     Edge 59, Type (0, 1), BuildingBlock: OJICUG_clean_linker_0, # of connection points: 2
#     Edge 60, Type (0, 1), BuildingBlock: OJICUG_clean_linker_0, # of connection points: 2
#     Edge 61, Type (0, 1), BuildingBlock: OJICUG_clean_linker_0, # of connection points: 2
#     Edge 62, Type (0, 1), BuildingBlock: OJICUG_clean_linker_0, # of connection points: 2
#     Edge 63, Type (0, 1), BuildingBlock: OJICUG_clean_linker_0, # of connection points: 2
#     Edge 64, Type (0, 1), BuildingBlock: OJICUG_clean_linker_0, # of connection points: 2
#     Edge 65, Type (0, 1), BuildingBlock: OJICUG_clean_linker_0, # of connection points: 2
#     Edge 66, Type (0, 1), BuildingBlock: OJICUG_clean_linker_0, # of connection points: 2
#     Edge 67, Type (0, 1), BuildingBlock: OJICUG_clean_linker_0, # of connection points: 2
#     Edge 68, Type (0, 1), BuildingBlock: OJICUG_clean_linker_0, # of connection points: 2
#     Edge 69, Type (0, 1), BuildingBlock: OJICUG_clean_linker_0, # of connection points: 2
#     Edge 70, Type (0, 1), BuildingBlock: OJICUG_clean_linker_0, # of connection points: 2
#     Edge 71, Type (0, 1), BuildingBlock: OJICUG_clean_linker_0, # of connection points: 2
#     Edge 72, Type (0, 1), BuildingBlock: OJICUG_clean_linker_0, # of connection points: 2
#     Edge 73, Type (0, 1), BuildingBlock: OJICUG_clean_linker_0, # of connection points: 2
#     Edge 74, Type (0, 1), BuildingBlock: OJICUG_clean_linker_0, # of connection points: 2
#     Edge 75, Type (0, 1), BuildingBlock: OJICUG_clean_linker_0, # of connection points: 2
# Relax obj value: 0.074
# Max RMSD: 0.194
# Mean RMSD: 0.112
data_MOF--net-ctn--node1-TATPOV_clean_sbu_0--node2-BETDIP_clean_linker_0--edge1-OJICUG_clean_linker_0
_symmetry_space_group_name_H-M    P1
_symmetry_Int_Tables_number       1
_symmetry_cell_setting            triclinic
loop_
_symmetry_equiv_pos_as_xyz
'x, y, z'
_cell_length_a     37.487978
_cell_length_b     37.681628
_cell_length_c     41.833343
_cell_angle_alpha  95.383857
_cell_angle_beta   95.573382
_cell_angle_gamma 94.654779
loop_
_atom_site_label
_atom_site_type_symbol
_atom_site_fract_x
_atom_site_fract_y
_atom_site_fract_z
_atom_type_partial_charge
H0 H 0.00477 0.0675 0.06199 0.0
H1 H 0.08273 0.02117 0.00607 0.0
H2 H 0.06568 0.98541 0.09862 0.0
H3 H 0.0627 0.05279 0.96775 0.0
C4 C 0.04511 0.07198 0.97678 0.0
C5 C 0.02487 0.04862 0.05922 0.0
C6 C 0.0332 0.02684 0.08381 0.0
C7 C 0.04192 0.04648 0.03091 0.0
C8 C 0.06827 0.02221 0.02719 0.0
C9 C 0.07725 1.00002 0.05155 0.0
C10 C 0.05915 0.00228 0.07967 0.0
N11 N 0.03235 0.07022 0.00758 0.0
H12 H 0.1966 0.67914 0.2254 0.0
H13 H 0.2947 0.7461 0.2281 0.0
H14 H 0.28707 0.66412 0.29299 0.0
H15 H 0.2413 0.78765 0.21475 0.0
C16 C 0.23538 0.76796 0.1938 0.0
C17 C 0.224 0.68666 0.23607 0.0
C18 C 0.23935 0.66806 0.26078 0.0
C19 C 0.24353 0.71521 0.22488 0.0
C20 C 0.27914 0.72518 0.23813 0.0
C21 C 0.29534 0.7068 0.26271 0.0
C22 C 0.27497 0.67851 0.27413 0.0
N23 N 0.22805 0.73129 0.19816 0.0
H24 H 0.9916 0.49534 0.9986 0.0
H25 H 0.03191 0.43143 0.07081 0.0
H26 H 0.99059 0.53162 0.09937 0.0
H27 H 0.02369 0.38723 0.03055 0.0
C28 C 0.02555 0.39933 0.00816 0.0
C29 C 0.99764 0.49191 0.02394 0.0
C30 C 0.9897 0.51793 0.04788 0.0
C31 C 0.0121 0.46058 0.03188 0.0
C32 C 0.0193 0.45495 0.06439 0.0
C33 C 0.01154 0.48036 0.08897 0.0
C34 C 0.99668 0.51192 0.08058 0.0
N35 N 0.01931 0.43577 0.0062 0.0
H36 H 0.73753 0.72074 0.16795 0.0
H37 H 0.75365 0.81169 0.23876 0.0
H38 H 0.82798 0.79853 0.16691 0.0
H39 H 0.73086 0.75768 0.26906 0.0
C40 C 0.70716 0.75434 0.25151 0.0
C41 C 0.75361 0.74505 0.1783 0.0
C42 C 0.78433 0.75707 0.16437 0.0
C43 C 0.74318 0.76412 0.20551 0.0
C44 C 0.763 0.79627 0.21857 0.0
C45 C 0.79346 0.80944 0.20455 0.0
C46 C 0.80406 0.78939 0.17749 0.0
N47 N 0.71122 0.7517 0.21805 0.0
H48 H 0.04712 0.97185 0.41939 0.0
H49 H 0.15396 0.98816 0.46853 0.0
H50 H 0.12602 0.04475 0.38598 0.0
H51 H 0.135 0.94578 0.49916 0.0
C52 C 0.10607 0.93996 0.49421 0.0
C53 C 0.07441 0.9845 0.4213 0.0
C54 C 0.08367 0.00903 0.39971 0.0
C55 C 0.0993 0.97657 0.44594 0.0
C56 C 0.13445 0.99349 0.44919 0.0
C57 C 0.14445 0.01792 0.42735 0.0
C58 C 0.11897 0.02521 0.40229 0.0
N59 N 0.08665 0.95265 0.46742 0.0
H60 H 0.22238 0.76576 0.80941 0.0
H61 H 0.26458 0.68673 0.74666 0.0
H62 H 0.30718 0.70533 0.84639 0.0
H63 H 0.23375 0.70915 0.707 0.0
C64 C 0.21411 0.72555 0.71677 0.0
C65 C 0.24171 0.74626 0.80593 0.0
C66 C 0.2647 0.73804 0.83223 0.0
C67 C 0.24215 0.72881 0.77497 0.0
C68 C 0.26541 0.70179 0.77004 0.0
C69 C 0.28857 0.69263 0.79587 0.0
C70 C 0.28855 0.7115 0.82669 0.0
N71 N 0.21716 0.73816 0.7501 0.0
H72 H 0.98918 0.59528 0.48888 0.0
H73 H 0.93207 0.49058 0.47752 0.0
H74 H 0.90327 0.57115 0.54724 0.0
H75 H 0.98049 0.47398 0.45686 0.0
C76 C 0.99005 0.49614 0.44419 0.0
C77 C 0.96853 0.57657 0.49587 0.0
C78 C 0.94684 0.58754 0.51987 0.0
C79 C 0.96385 0.54166 0.48067 0.0
C80 C 0.93689 0.51752 0.48945 0.0
C81 C 0.91524 0.52794 0.51352 0.0
C82 C 0.91979 0.56316 0.52841 0.0
N83 N 0.98603 0.53198 0.45617 0.0
H84 H 0.81033 0.88136 0.78118 0.0
H85 H 0.87724 0.80925 0.82569 0.0
H86 H 0.774 0.82614 0.85894 0.0
H87 H 0.9209 0.83476 0.80026 0.0
C88 C 0.90691 0.84344 0.77882 0.0
C89 C 0.8151 0.86366 0.79983 0.0
C90 C 0.78821 0.85542 0.81966 0.0
C91 C 0.84747 0.84786 0.80234 0.0
C92 C 0.85323 0.82326 0.82517 0.0
C93 C 0.82708 0.81514 0.84612 0.0
C94 C 0.79455 0.83164 0.84314 0.0
N95 N 0.87188 0.85507 0.77937 0.0
H96 H 0.30702 0.37989 0.27911 0.0
H97 H 0.37423 0.30594 0.32034 0.0
H98 H 0.27364 0.32507 0.35811 0.0
H99 H 0.41732 0.33261 0.29448 0.0
C100 C 0.40266 0.34116 0.2733 0.0
C101 C 0.31233 0.36196 0.29748 0.0
C102 C 0.28646 0.3542 0.31839 0.0
C103 C 0.34428 0.34545 0.29857 0.0
C104 C 0.35063 0.32051 0.32099 0.0
C105 C 0.3255 0.31279 0.34298 0.0
C106 C 0.29341 0.33014 0.34148 0.0
N107 N 0.36758 0.35238 0.27465 0.0
H108 H 0.48948 0.99288 0.49676 0.0
H109 H 0.53033 0.92965 0.56925 0.0
H110 H 0.4896 0.03029 0.59743 0.0
H111 H 0.52146 0.88503 0.52915 0.0
C112 C 0.52352 0.89707 0.50675 0.0
C113 C 0.49574 0.98973 0.52212 0.0
C114 C 0.48813 0.01605 0.54595 0.0
C115 C 0.51021 0.95847 0.53021 0.0
C116 C 0.5177 0.95315 0.56276 0.0
C117 C 0.51026 0.97883 0.58725 0.0
C118 C 0.49541 0.01037 0.57871 0.0
N119 N 0.51728 0.93347 0.50463 0.0
H120 H 0.23356 0.21978 0.66461 0.0
H121 H 0.25152 0.31026 0.73597 0.0
H122 H 0.32411 0.29728 0.66271 0.0
H123 H 0.22956 0.25582 0.76623 0.0
C124 C 0.20542 0.25288 0.7492 0.0
C125 C 0.24986 0.24401 0.67484 0.0
C126 C 0.28035 0.25596 0.6605 0.0
C127 C 0.24008 0.26296 0.70241 0.0
C128 C 0.26025 0.29494 0.71539 0.0
C129 C 0.29036 0.30807 0.70091 0.0
C130 C 0.30035 0.28815 0.67352 0.0
N131 N 0.20852 0.25052 0.71556 0.0
H132 H 0.6995 0.17688 0.72266 0.0
H133 H 0.79717 0.24491 0.72713 0.0
H134 H 0.78815 0.16399 0.79296 0.0
H135 H 0.74417 0.28534 0.71158 0.0
C136 C 0.7382 0.26541 0.69081 0.0
C137 C 0.72656 0.18488 0.73398 0.0
C138 C 0.74132 0.1669 0.75937 0.0
C139 C 0.74623 0.21341 0.72292 0.0
C140 C 0.78144 0.224 0.73702 0.0
C141 C 0.79705 0.20621 0.76229 0.0
C142 C 0.77651 0.17793 0.77356 0.0
N143 N 0.73137 0.22879 0.69555 0.0
H144 H 0.50262 0.56203 0.55693 0.0
H145 H 0.5708 0.50834 0.49514 0.0
H146 H 0.55638 0.47295 0.58836 0.0
H147 H 0.56104 0.54935 0.46274 0.0
C148 C 0.54154 0.56683 0.47106 0.0
C149 C 0.52044 0.54121 0.55258 0.0
C150 C 0.52731 0.51761 0.57593 0.0
C151 C 0.53589 0.53832 0.52346 0.0
C152 C 0.55906 0.51133 0.51769 0.0
C153 C 0.56695 0.48752 0.54097 0.0
C154 C 0.55039 0.49061 0.56995 0.0
N155 N 0.5273 0.56333 0.50103 0.0
H156 H 0.55502 0.46115 0.90486 0.0
H157 H 0.65327 0.49083 0.96661 0.0
H158 H 0.63489 0.53697 0.87665 0.0
H159 H 0.63369 0.44744 0.99566 0.0
C160 C 0.60506 0.44085 0.98905 0.0
C161 C 0.58136 0.47596 0.90931 0.0
C162 C 0.59273 0.49886 0.88707 0.0
C163 C 0.60266 0.47289 0.93797 0.0
C164 C 0.63642 0.49279 0.94447 0.0
C165 C 0.64853 0.51562 0.92215 0.0
C166 C 0.62632 0.51875 0.89358 0.0
N167 N 0.58787 0.45064 0.95984 0.0
H168 H 0.72405 0.27431 0.30637 0.0
H169 H 0.75893 0.1945 0.2392 0.0
H170 H 0.80005 0.20211 0.33918 0.0
H171 H 0.73574 0.22637 0.20191 0.0
C172 C 0.71397 0.23927 0.2121 0.0
C173 C 0.7402 0.25217 0.30175 0.0
C174 C 0.76225 0.24053 0.32708 0.0
C175 C 0.73901 0.23609 0.27009 0.0
C176 C 0.76004 0.2076 0.26344 0.0
C177 C 0.78256 0.1955 0.28815 0.0
C178 C 0.78353 0.21212 0.31991 0.0
N179 N 0.71512 0.24844 0.24595 0.0
H180 H 0.48865 0.09703 0.98502 0.0
H181 H 0.43453 0.99112 0.97537 0.0
H182 H 0.40348 0.07178 0.04386 0.0
H183 H 0.48404 0.97554 0.95587 0.0
C184 C 0.4926 0.99744 0.94245 0.0
C185 C 0.46852 0.07798 0.99233 0.0
C186 C 0.44653 0.08876 0.01615 0.0
C187 C 0.46487 0.04283 0.97776 0.0
C188 C 0.43862 0.01823 0.98697 0.0
C189 C 0.41671 0.02836 0.01093 0.0
C190 C 0.42019 0.0639 0.02515 0.0
N191 N 0.48732 0.03327 0.95345 0.0
Zn192 Zn 0.30468 0.82996 0.02387 0.0
Zn193 Zn 0.246 0.86531 0.01506 0.0
O194 O 0.24102 0.83864 0.05618 0.0
O195 O 0.28788 0.80715 0.06146 0.0
O196 O 0.20084 0.89256 0.01329 0.0
O197 O 0.33496 0.87746 0.03023 0.0
O198 O 0.28682 0.90615 0.02073 0.0
C199 C 0.25884 0.81662 0.07107 0.0
C200 C 0.26619 0.81009 0.96135 0.0
O201 O 0.24524 0.83325 0.97082 0.0
O202 O 0.29311 0.80366 0.97986 0.0
C203 C 0.19666 0.91164 0.03927 0.0
O204 O 0.22111 0.91232 0.06412 0.0
C205 C 0.3208 0.90652 0.02707 0.0
Zn206 Zn 0.07335 0.41203 0.27371 0.0
Zn207 Zn 0.10935 0.47856 0.28066 0.0
O208 O 0.07874 0.48403 0.31801 0.0
O209 O 0.04925 0.43034 0.31291 0.0
O210 O 0.13683 0.52587 0.27871 0.0
O211 O 0.12144 0.3909 0.2823 0.0
O212 O 0.14896 0.44534 0.28855 0.0
C213 C 0.05603 0.46152 0.32768 0.0
C214 C 0.05991 0.45016 0.21835 0.0
O215 O 0.08096 0.47361 0.23628 0.0
O216 O 0.05222 0.41989 0.22811 0.0
C217 C 0.15908 0.54442 0.29982 0.0
O218 O 0.16539 0.53364 0.32863 0.0
C219 C 0.15009 0.41169 0.28879 0.0
Zn220 Zn 0.85792 0.62717 0.93156 0.0
Zn221 Zn 0.83577 0.65934 0.98517 0.0
O222 O 0.88013 0.6348 0.00211 0.0
O223 O 0.90042 0.61075 0.95823 0.0
O224 O 0.82348 0.68753 0.02509 0.0
O225 O 0.86212 0.67371 0.9111 0.0
O226 O 0.8397 0.69825 0.95375 0.0
C227 C 0.90292 0.61677 0.9887 0.0
C228 C 0.78599 0.60042 0.94638 0.0
O229 O 0.7924 0.62327 0.97113 0.0
O230 O 0.8091 0.59726 0.92626 0.0
C231 C 0.8196 0.67295 0.05084 0.0
O232 O 0.82276 0.63849 0.05102 0.0
C233 C 0.8507 0.7005 0.9261 0.0
Zn234 Zn 0.88104 0.00991 0.30108 0.0
Zn235 Zn 0.91332 0.01723 0.24786 0.0
O236 O 0.88369 0.06217 0.25141 0.0
O237 O 0.85394 0.05246 0.29335 0.0
O238 O 0.93813 0.01744 0.20661 0.0
O239 O 0.92906 0.01784 0.32741 0.0
O240 O 0.95642 0.02004 0.2833 0.0
C241 C 0.86097 0.0713 0.2709 0.0
C242 C 0.86435 0.94847 0.25645 0.0
O243 O 0.88309 0.96783 0.23963 0.0
O244 O 0.85976 0.96004 0.28499 0.0
C245 C 0.95856 0.04326 0.19901 0.0
O246 O 0.96324 0.07348 0.21795 0.0
C247 C 0.95781 0.02091 0.31395 0.0
Zn248 Zn 0.35554 0.12408 0.42862 0.0
Zn249 Zn 0.335 0.15791 0.48254 0.0
O250 O 0.37921 0.1334 0.49961 0.0
O251 O 0.39783 0.10743 0.45568 0.0
O252 O 0.32278 0.18663 0.52218 0.0
O253 O 0.36035 0.17048 0.4078 0.0
O254 O 0.339 0.19615 0.45055 0.0
C255 C 0.4012 0.11439 0.48612 0.0
C256 C 0.28391 0.09895 0.44485 0.0
O257 O 0.29149 0.12198 0.46935 0.0
O258 O 0.30611 0.09506 0.42399 0.0
C259 C 0.31694 0.17182 0.54744 0.0
O260 O 0.31848 0.13708 0.54725 0.0
C261 C 0.34963 0.19775 0.42268 0.0
Zn262 Zn 0.39297 0.50152 0.80072 0.0
Zn263 Zn 0.41341 0.51403 0.74321 0.0
O264 O 0.38457 0.5587 0.75381 0.0
O265 O 0.36752 0.54622 0.80079 0.0
O266 O 0.43196 0.51637 0.69913 0.0
O267 O 0.44412 0.50415 0.82013 0.0
O268 O 0.46128 0.51383 0.7725 0.0
C269 C 0.3679 0.56671 0.77847 0.0
C270 C 0.3665 0.44453 0.75352 0.0
O271 O 0.38237 0.46508 0.73568 0.0
O272 O 0.3671 0.45385 0.78342 0.0
C273 C 0.45856 0.53752 0.69399 0.0
O274 O 0.47277 0.56205 0.71712 0.0
C275 C 0.4688 0.50982 0.80222 0.0
Zn276 Zn 0.80401 0.33042 0.52181 0.0
Zn277 Zn 0.74495 0.36301 0.51202 0.0
O278 O 0.74016 0.33675 0.55338 0.0
O279 O 0.78572 0.30341 0.55657 0.0
O280 O 0.70019 0.39106 0.50915 0.0
O281 O 0.83367 0.37761 0.53279 0.0
O282 O 0.78558 0.40437 0.51823 0.0
C283 C 0.7573 0.31342 0.56707 0.0
C284 C 0.76953 0.31166 0.45771 0.0
O285 O 0.74523 0.33061 0.46792 0.0
O286 O 0.79756 0.30837 0.47621 0.0
C287 C 0.6719 0.38335 0.5227 0.0
O288 O 0.66919 0.35376 0.53693 0.0
C289 C 0.81914 0.40598 0.52755 0.0
Zn290 Zn 0.57469 0.91133 0.77194 0.0
Zn291 Zn 0.61053 0.97783 0.77832 0.0
O292 O 0.58015 0.98376 0.81572 0.0
O293 O 0.55094 0.92998 0.81132 0.0
O294 O 0.63829 0.02487 0.77623 0.0
O295 O 0.62282 0.89009 0.78041 0.0
O296 O 0.65008 0.94462 0.78635 0.0
C297 C 0.55767 0.96132 0.82576 0.0
C298 C 0.56065 0.94931 0.71639 0.0
O299 O 0.58185 0.97285 0.73406 0.0
O300 O 0.55316 0.91911 0.72636 0.0
C301 C 0.65974 0.0438 0.79774 0.0
O302 O 0.66472 0.03366 0.82692 0.0
C303 C 0.6514 0.91102 0.78679 0.0
Zn304 Zn 0.01134 0.294 0.81992 0.0
Zn305 Zn 0.01706 0.23523 0.85087 0.0
O306 O 0.05974 0.23685 0.8231 0.0
O307 O 0.05126 0.28132 0.79339 0.0
O308 O 0.02365 0.19102 0.87415 0.0
O309 O 0.02245 0.32425 0.86263 0.0
O310 O 0.02225 0.27561 0.88794 0.0
C311 C 0.06917 0.2558 0.80112 0.0
C312 C 0.94644 0.24694 0.81053 0.0
O313 O 0.96542 0.22693 0.82688 0.0
O314 O 0.95989 0.27725 0.80466 0.0
C315 C 0.00876 0.18651 0.89971 0.0
O316 O 0.98761 0.21024 0.91012 0.0
C317 C 0.02474 0.3096 0.8887 0.0
Zn318 Zn 0.51072 0.79264 0.31828 0.0
Zn319 Zn 0.51604 0.73377 0.34896 0.0
O320 O 0.5592 0.73595 0.32179 0.0
O321 O 0.55096 0.78036 0.29197 0.0
O322 O 0.52235 0.68915 0.37157 0.0
O323 O 0.52157 0.82237 0.36131 0.0
O324 O 0.52087 0.77358 0.38643 0.0
C325 C 0.56894 0.755 0.29998 0.0
C326 C 0.44569 0.74589 0.30845 0.0
O327 O 0.46453 0.72576 0.32477 0.0
O328 O 0.45929 0.77617 0.30266 0.0
C329 C 0.50631 0.68343 0.39627 0.0
O330 O 0.48416 0.70632 0.40636 0.0
C331 C 0.52351 0.80757 0.38731 0.0
Zn332 Zn 0.96281 0.80835 0.58835 0.0
Zn333 Zn 0.02533 0.79159 0.61922 0.0
O334 O 0.04342 0.82905 0.59075 0.0
O335 O 0.99314 0.84206 0.56453 0.0
O336 O 0.07029 0.77932 0.64412 0.0
O337 O 0.94651 0.82546 0.63141 0.0
O338 O 0.99659 0.80956 0.65565 0.0
C339 C 0.02716 0.84641 0.57001 0.0
C340 C 0.97461 0.73374 0.57719 0.0
O341 O 0.00407 0.74397 0.59464 0.0
O342 O 0.95185 0.75595 0.57115 0.0
C343 C 0.09352 0.76065 0.63233 0.0
O344 O 0.0888 0.74841 0.60162 0.0
C345 C 0.96625 0.82221 0.65711 0.0
Zn346 Zn 0.45831 0.31068 0.08196 0.0
Zn347 Zn 0.52104 0.29461 0.11346 0.0
O348 O 0.53879 0.33216 0.08515 0.0
O349 O 0.48879 0.34483 0.05822 0.0
O350 O 0.56596 0.28359 0.139 0.0
O351 O 0.44146 0.32732 0.12519 0.0
O352 O 0.4917 0.31179 0.1494 0.0
C353 C 0.52277 0.34939 0.06418 0.0
C354 C 0.47169 0.23599 0.0714 0.0
O355 O 0.50093 0.24668 0.08902 0.0
O356 O 0.44863 0.25784 0.06505 0.0
C357 C 0.59193 0.2695 0.12697 0.0
O358 O 0.59006 0.26121 0.0956 0.0
C359 C 0.46119 0.32397 0.1509 0.0
C360 C 0.25391 0.79205 0.87009 0.0
C361 C 0.26283 0.75632 0.86542 0.0
H362 H 0.24687 0.83682 0.90407 0.0
C363 C 0.26964 0.73802 0.89289 0.0
H364 H 0.24897 0.80742 0.84978 0.0
C365 C 0.26919 0.75527 0.9239 0.0
C366 C 0.26098 0.791 0.92843 0.0
H367 H 0.27549 0.7103 0.89061 0.0
H368 H 0.27573 0.7407 0.9445 0.0
C369 C 0.25261 0.80905 0.90124 0.0
C370 C 0.00489 0.45252 0.40045 0.0
C371 C 0.0069 0.48805 0.41428 0.0
H372 H 0.01842 0.41631 0.36205 0.0
C373 C 0.0247 0.51515 0.39927 0.0
H374 H 0.99121 0.43121 0.4116 0.0
C375 C 0.04059 0.50665 0.37097 0.0
C376 C 0.03852 0.47099 0.35706 0.0
H377 H 0.02666 0.54282 0.40947 0.0
H378 H 0.05443 0.52797 0.36 0.0
C379 C 0.02033 0.44407 0.37203 0.0
C380 C 0.80399 0.76541 0.8774 0.0
C381 C 0.83305 0.78791 0.86952 0.0
H382 H 0.78711 0.72068 0.90222 0.0
C383 C 0.86809 0.78276 0.88291 0.0
H384 H 0.7767 0.76771 0.86727 0.0
C385 C 0.87398 0.75481 0.90204 0.0
C386 C 0.8449 0.7323 0.90916 0.0
H387 H 0.89118 0.79995 0.87828 0.0
H388 H 0.90124 0.75057 0.91101 0.0
C389 C 0.80987 0.73821 0.8973 0.0
C390 C 0.02399 0.03147 0.38851 0.0
C391 C 0.05487 0.01908 0.37656 0.0
H392 H 0.96937 0.04211 0.37799 0.0
C393 C 0.05544 0.01173 0.34308 0.0
H394 H 0.02311 0.03758 0.41425 0.0
C395 C 0.02439 0.01424 0.32205 0.0
C396 C 0.99257 0.02397 0.33444 0.0
H397 H 0.07903 0.002 0.33344 0.0
H398 H 0.02469 0.00663 0.29647 0.0
C399 C 0.9932 0.03387 0.36773 0.0
C400 C 0.29057 0.19724 0.63106 0.0
C401 C 0.29098 0.23465 0.6319 0.0
H402 H 0.29855 0.14809 0.60386 0.0
C403 C 0.30071 0.25134 0.60498 0.0
H404 H 0.2836 0.18368 0.65163 0.0
C405 C 0.30925 0.23095 0.57757 0.0
C406 C 0.30844 0.19347 0.57661 0.0
H407 H 0.30097 0.2801 0.60485 0.0
H408 H 0.31629 0.24459 0.55708 0.0
C409 C 0.29927 0.17687 0.60375 0.0
C410 C 0.51487 0.55536 0.62551 0.0
C411 C 0.51058 0.52207 0.60669 0.0
H412 H 0.50203 0.58626 0.66787 0.0
C413 C 0.48872 0.49394 0.61654 0.0
H414 H 0.53156 0.5775 0.61841 0.0
C415 C 0.47107 0.49918 0.64446 0.0
C416 C 0.47556 0.53245 0.66344 0.0
H417 H 0.48474 0.46813 0.6023 0.0
H418 H 0.45434 0.477 0.65143 0.0
C419 C 0.49789 0.56038 0.65375 0.0
C420 C 0.74589 0.25243 0.63237 0.0
C421 C 0.73813 0.27651 0.65791 0.0
H422 H 0.75831 0.2456 0.58337 0.0
C423 C 0.73292 0.31197 0.65232 0.0
H424 H 0.75026 0.22498 0.63607 0.0
C425 C 0.73645 0.32349 0.62182 0.0
C426 C 0.74637 0.29992 0.59688 0.0
H427 H 0.72693 0.33096 0.67173 0.0
H428 H 0.73354 0.35127 0.61831 0.0
C429 C 0.7505 0.26419 0.60225 0.0
C430 C 0.51172 0.93857 0.6318 0.0
C431 C 0.51953 0.97259 0.62149 0.0
H432 H 0.51845 0.90447 0.66971 0.0
C433 C 0.53911 0.99942 0.64329 0.0
H434 H 0.49634 0.91744 0.6156 0.0
C435 C 0.55192 0.99196 0.67425 0.0
C436 C 0.54525 0.95753 0.68417 0.0
H437 H 0.54579 0.02577 0.63597 0.0
H438 H 0.56768 0.01305 0.69018 0.0
C439 C 0.52438 0.93113 0.66279 0.0
C440 C 0.84917 0.25241 0.77932 0.0
C441 C 0.83513 0.21638 0.77593 0.0
H442 H 0.89505 0.29008 0.79263 0.0
C443 C 0.85804 0.19027 0.78484 0.0
H444 H 0.83227 0.27336 0.77342 0.0
C445 C 0.89415 0.20001 0.79655 0.0
C446 C 0.90819 0.23597 0.7991 0.0
H447 H 0.84838 0.16218 0.78211 0.0
H448 H 0.9112 0.17935 0.80294 0.0
C449 C 0.88523 0.26202 0.7905 0.0
C450 C 0.53084 0.88927 0.44789 0.0
C451 C 0.52691 0.87404 0.47686 0.0
H452 H 0.53314 0.88026 0.39709 0.0
C453 C 0.52448 0.83667 0.47671 0.0
H454 H 0.53324 0.91802 0.44724 0.0
C455 C 0.52444 0.81481 0.44773 0.0
C456 C 0.52691 0.83011 0.41852 0.0
H457 H 0.52157 0.82436 0.49881 0.0
H458 H 0.5215 0.78602 0.44811 0.0
C459 C 0.53084 0.86756 0.41907 0.0
C460 C 0.13926 0.25871 0.74227 0.0
C461 C 0.16971 0.25005 0.76122 0.0
H462 H 0.08338 0.26748 0.7403 0.0
C463 C 0.1662 0.24043 0.79244 0.0
H464 H 0.14127 0.26639 0.71816 0.0
C465 C 0.13283 0.24014 0.80481 0.0
C466 C 0.10277 0.25049 0.78643 0.0
H467 H 0.18939 0.23365 0.80742 0.0
H468 H 0.13098 0.23353 0.82928 0.0
C469 C 0.10617 0.25936 0.75493 0.0
C470 C 0.50623 0.61942 0.46107 0.0
C471 C 0.53131 0.59588 0.4514 0.0
H472 H 0.47856 0.66531 0.4512 0.0
C473 C 0.54722 0.60059 0.42289 0.0
H474 H 0.49336 0.61648 0.48287 0.0
C475 C 0.53872 0.62865 0.40466 0.0
C476 C 0.51406 0.65258 0.41458 0.0
H477 H 0.56658 0.58278 0.41487 0.0
H478 H 0.55181 0.63181 0.383 0.0
C479 C 0.4977 0.64743 0.44286 0.0
C480 C 0.95717 0.82737 0.74686 0.0
C481 C 0.92367 0.8412 0.74824 0.0
H482 H 0.9972 0.81071 0.71693 0.0
C483 C 0.90553 0.85109 0.7199 0.0
H484 H 0.97167 0.81963 0.76842 0.0
C485 C 0.91998 0.84596 0.6905 0.0
C486 C 0.95291 0.83091 0.6888 0.0
H487 H 0.87972 0.86203 0.72015 0.0
H488 H 0.90487 0.85308 0.66899 0.0
C489 C 0.97173 0.82232 0.7174 0.0
C490 C 0.10462 0.89946 0.53844 0.0
C491 C 0.08621 0.91684 0.51451 0.0
H492 H 0.10046 0.86333 0.57488 0.0
C493 C 0.04844 0.91163 0.50969 0.0
H494 H 0.13372 0.90312 0.54266 0.0
C495 C 0.02949 0.88915 0.528 0.0
C496 C 0.04776 0.87118 0.55161 0.0
H497 H 0.03326 0.92479 0.49164 0.0
H498 H 0.00042 0.88565 0.52337 0.0
C499 C 0.08557 0.87673 0.55681 0.0
C500 C 0.15836 0.75696 0.7068 0.0
C501 C 0.18379 0.73517 0.69491 0.0
H502 H 0.11016 0.7821 0.69641 0.0
C503 C 0.1798 0.72224 0.66206 0.0
H504 H 0.16062 0.76747 0.73198 0.0
C505 C 0.15063 0.73068 0.6415 0.0
C506 C 0.125 0.75222 0.65351 0.0
H507 H 0.19909 0.7054 0.65235 0.0
H508 H 0.14807 0.72013 0.61631 0.0
C509 C 0.12934 0.76539 0.68634 0.0
C510 C 0.98828 0.63797 0.54896 0.0
C511 C 0.9533 0.62433 0.5362 0.0
H512 H 0.02239 0.68316 0.5722 0.0
C513 C 0.92508 0.64648 0.53788 0.0
H514 H 0.01044 0.62126 0.54811 0.0
C515 C 0.93195 0.68208 0.55128 0.0
C516 C 0.96707 0.69591 0.5637 0.0
H517 H 0.89793 0.63653 0.52804 0.0
H518 H 0.90977 0.69877 0.55183 0.0
C519 C 0.99507 0.67334 0.5628 0.0
C520 C 0.81764 0.85478 0.25121 0.0
C521 C 0.81342 0.84444 0.21778 0.0
H522 H 0.83679 0.89547 0.28947 0.0
C523 C 0.82739 0.86831 0.19714 0.0
H524 H 0.808 0.8369 0.26794 0.0
C525 C 0.84455 0.90186 0.20962 0.0
C526 C 0.84776 0.91244 0.24297 0.0
H527 H 0.82427 0.86152 0.17124 0.0
H528 H 0.85453 0.9198 0.19308 0.0
C529 C 0.83436 0.88838 0.2636 0.0
C530 C 0.84032 0.16568 0.29385 0.0
C531 C 0.80421 0.16482 0.28078 0.0
H532 H 0.88712 0.13665 0.29988 0.0
C533 C 0.78859 0.13403 0.26107 0.0
H534 H 0.85321 0.18908 0.30887 0.0
C535 C 0.80812 0.10428 0.25575 0.0
C536 C 0.8438 0.10494 0.26954 0.0
H537 H 0.76073 0.13231 0.25093 0.0
H538 H 0.79485 0.08017 0.24207 0.0
C539 C 0.85991 0.13599 0.28828 0.0
C540 C 0.35412 0.00214 0.01617 0.0
C541 C 0.39148 1.00058 0.02127 0.0
H542 H 0.30202 0.97329 0.01401 0.0
C543 C 0.40503 0.96966 0.03199 0.0
H544 H 0.34318 0.02572 0.00769 0.0
C545 C 0.3818 0.93987 0.03558 0.0
C546 C 0.34443 0.94022 0.02828 0.0
H547 H 0.4338 0.96799 0.03616 0.0
H548 H 0.39335 0.91601 0.04269 0.0
C549 C 0.33068 0.97209 0.01963 0.0
C550 C 0.21902 0.34722 0.31105 0.0
C551 C 0.25131 0.36952 0.31405 0.0
H552 H 0.16171 0.34286 0.3002 0.0
C553 C 0.24996 0.40591 0.30965 0.0
H554 H 0.21933 0.31897 0.31393 0.0
C555 C 0.2171 0.41958 0.30168 0.0
C556 C 0.18483 0.3971 0.29767 0.0
H557 H 0.27446 0.42372 0.31193 0.0
H558 H 0.2171 0.44771 0.29819 0.0
C559 C 0.1861 0.36083 0.3028 0.0
C560 C 0.19453 0.05472 0.46238 0.0
C561 C 0.18077 0.0375 0.43193 0.0
H562 H 0.23777 0.08786 0.49027 0.0
C563 C 0.20144 0.03998 0.40584 0.0
H564 H 0.17897 0.05351 0.48282 0.0
C565 C 0.23529 0.05936 0.41013 0.0
C566 C 0.24881 0.07714 0.44049 0.0
H567 H 0.19144 0.02683 0.38215 0.0
H568 H 0.25057 0.06095 0.38955 0.0
C569 C 0.22809 0.07454 0.46657 0.0
C570 C 0.72123 0.12976 0.80262 0.0
C571 C 0.72048 0.13558 0.76981 0.0
H572 H 0.70251 0.09614 0.83736 0.0
C573 C 0.69968 0.11101 0.74665 0.0
H574 H 0.73676 0.14838 0.82109 0.0
C575 C 0.67978 0.08164 0.75596 0.0
C576 C 0.68046 0.07572 0.78868 0.0
H577 H 0.69911 0.11412 0.72114 0.0
H578 H 0.66422 0.06327 0.73729 0.0
C579 C 0.70147 0.1 0.81197 0.0
C580 C 0.441 0.05999 0.54994 0.0
C581 C 0.4708 0.04794 0.53554 0.0
H582 H 0.39567 0.09124 0.54569 0.0
C583 C 0.48081 0.06324 0.5079 0.0
H584 H 0.4325 0.04878 0.57118 0.0
C585 C 0.45932 0.08676 0.49294 0.0
C586 C 0.42788 0.09641 0.50577 0.0
H587 H 0.50422 0.05539 0.49669 0.0
H588 H 0.46646 0.09614 0.47049 0.0
C589 C 0.41984 0.08425 0.53527 0.0
C590 C 0.62421 0.46859 0.51992 0.0
C591 C 0.59315 0.46019 0.53521 0.0
H592 H 0.67303 0.45115 0.50372 0.0
C593 C 0.58768 0.42569 0.54515 0.0
H594 H 0.62976 0.495 0.51236 0.0
C595 C 0.61276 0.40055 0.54038 0.0
C596 C 0.64399 0.40916 0.52547 0.0
H597 H 0.56391 0.41799 0.55655 0.0
H598 H 0.60779 0.37442 0.54871 0.0
C599 C 0.6492 0.44342 0.51504 0.0
C600 C 0.79592 0.26365 0.38092 0.0
C601 C 0.76339 0.25848 0.3607 0.0
H602 H 0.82322 0.2843 0.42676 0.0
C603 C 0.73238 0.27135 0.37271 0.0
H604 H 0.82053 0.25498 0.3725 0.0
C605 C 0.73404 0.28899 0.40402 0.0
C606 C 0.76663 0.29378 0.42416 0.0
H607 H 0.70666 0.26748 0.35806 0.0
H608 H 0.70978 0.29844 0.41255 0.0
C609 C 0.79746 0.28083 0.41213 0.0
C610 C 0.50785 0.95319 0.89942 0.0
C611 C 0.50921 0.98896 0.91248 0.0
H612 H 0.52166 0.91644 0.86153 0.0
C613 C 0.52613 0.0159 0.89668 0.0
H614 H 0.49486 0.932 0.91119 0.0
C615 C 0.54181 0.00702 0.86835 0.0
C616 C 0.54037 0.97114 0.85518 0.0
H617 H 0.52758 0.04374 0.9063 0.0
H618 H 0.55498 0.02824 0.85675 0.0
C619 C 0.52305 0.94435 0.87093 0.0
C620 C 0.36718 0.27871 0.37768 0.0
C621 C 0.33191 0.28518 0.36598 0.0
H622 H 0.40051 0.24546 0.40443 0.0
C623 C 0.30287 0.26379 0.37534 0.0
H624 H 0.39035 0.29499 0.37191 0.0
C625 C 0.30891 0.23656 0.39517 0.0
C626 C 0.34404 0.2294 0.40544 0.0
H627 H 0.27535 0.26699 0.36649 0.0
H628 H 0.28607 0.22001 0.40133 0.0
C629 C 0.37317 0.25066 0.3967 0.0
C630 C 0.55087 0.47331 0.83903 0.0
C631 C 0.56752 0.50355 0.85869 0.0
H632 H 0.50629 0.45208 0.80472 0.0
C633 C 0.55506 0.53721 0.85481 0.0
H634 H 0.56002 0.44709 0.84171 0.0
C635 C 0.52424 0.53997 0.83379 0.0
C636 C 0.50608 0.50922 0.8161 0.0
H637 H 0.56722 0.56078 0.87002 0.0
H638 H 0.51314 0.56559 0.83312 0.0
C639 C 0.52034 0.47615 0.81785 0.0
C640 C 0.80413 0.75251 0.10868 0.0
C641 C 0.79519 0.73586 0.13585 0.0
H642 H 0.81852 0.74567 0.06037 0.0
C643 C 0.79525 0.69849 0.13515 0.0
H644 H 0.80401 0.78123 0.10847 0.0
C645 C 0.80354 0.67811 0.10768 0.0
C646 C 0.81172 0.69464 0.08023 0.0
H647 H 0.78883 0.685 0.1559 0.0
H648 H 0.80313 0.64935 0.10787 0.0
C649 C 0.81217 0.73209 0.08109 0.0
C650 C 0.999 1.00058 0.12632 0.0
C651 C 0.01506 0.03065 0.11394 0.0
H652 H 0.96803 0.98097 0.16253 0.0
C653 C 0.01264 0.06479 0.12991 0.0
H654 H 1.00023 0.97398 0.1144 0.0
C655 C 0.99449 0.06883 0.15755 0.0
C656 C 0.97785 0.03886 0.16966 0.0
H657 H 0.02498 0.08845 0.12107 0.0
H658 H 0.99322 0.09552 0.16924 0.0
C659 C 0.98034 0.00466 0.15373 0.0
C660 C 0.24514 0.75541 0.13579 0.0
C661 C 0.23662 0.77936 0.1611 0.0
H662 H 0.25919 0.74884 0.0873 0.0
C663 C 0.232 0.81496 0.15556 0.0
H664 H 0.24912 0.72787 0.13947 0.0
C665 C 0.23669 0.82669 0.12532 0.0
C666 C 0.24724 0.80318 0.10066 0.0
H667 H 0.22548 0.83386 0.17481 0.0
H668 H 0.2341 0.85453 0.12181 0.0
C669 C 0.25093 0.76737 0.10599 0.0
C670 C 0.01251 0.43971 0.1332 0.0
C671 C 0.02041 0.47385 0.12319 0.0
H672 H 0.01865 0.40539 0.171 0.0
C673 C 0.03952 0.50064 0.14532 0.0
H674 H 0.99747 0.41861 0.11673 0.0
C675 C 0.05178 0.49304 0.17637 0.0
C676 C 0.04501 0.45852 0.18603 0.0
H677 H 0.04625 0.52708 0.13823 0.0
H678 H 0.0672 0.51412 0.19258 0.0
C679 C 0.02461 0.43214 0.16429 0.0
C680 C 0.35663 0.69006 0.28364 0.0
C681 C 0.33376 0.7165 0.2755 0.0
H682 H 0.40996 0.67851 0.30061 0.0
C683 C 0.34814 0.75243 0.2789 0.0
H684 H 0.34671 0.66203 0.28086 0.0
C685 C 0.38444 0.76163 0.28939 0.0
C686 C 0.4073 0.73527 0.29732 0.0
H687 H 0.33133 0.77363 0.27361 0.0
H688 H 0.39448 0.78963 0.29162 0.0
C689 C 0.39297 0.6994 0.29471 0.0
C690 C 0.03202 0.39148 0.94912 0.0
C691 C 0.0287 0.37631 0.9782 0.0
H692 H 0.03367 0.38235 0.89822 0.0
C693 C 0.02666 0.33895 0.97814 0.0
H694 H 0.03407 0.42022 0.94839 0.0
C695 C 0.02644 0.31705 0.94917 0.0
C696 C 0.02833 0.33226 0.91986 0.0
H697 H 0.02422 0.32669 0.00033 0.0
H698 H 0.02383 0.28826 0.94965 0.0
C699 C 0.03184 0.36971 0.92029 0.0
C700 C 0.66672 0.74117 0.29367 0.0
C701 C 0.67101 0.75095 0.26264 0.0
H702 H 0.63041 0.73357 0.32953 0.0
C703 C 0.64089 0.75917 0.24299 0.0
H704 H 0.68964 0.73472 0.30919 0.0
C705 C 0.6073 0.75923 0.25478 0.0
C706 C 0.60309 0.75019 0.2861 0.0
H707 H 0.64351 0.76696 0.21899 0.0
H708 H 0.58475 0.76705 0.23965 0.0
C709 C 0.63288 0.74028 0.30517 0.0
C710 C 0.04882 0.10344 0.92698 0.0
C711 C 0.03468 0.10056 0.9566 0.0
H712 H 0.05174 0.13275 0.88566 0.0
C713 C 0.01109 0.12541 0.96684 0.0
H714 H 0.06702 0.08459 0.91851 0.0
C715 C 0.00224 0.15288 0.94807 0.0
C716 C 0.01682 0.1562 0.91866 0.0
H717 H 0.99959 0.12392 0.9895 0.0
H718 H 0.98428 0.17177 0.95688 0.0
C719 C 0.04004 0.131 0.9082 0.0
C720 C 0.39982 0.34925 0.21434 0.0
C721 C 0.4189 0.33987 0.24247 0.0
H722 H 0.39832 0.35182 0.1634 0.0
C723 C 0.45302 0.3276 0.24069 0.0
H724 H 0.37347 0.35897 0.21492 0.0
C725 C 0.46738 0.32361 0.21108 0.0
C726 C 0.44773 0.33172 0.18268 0.0
H727 H 0.46825 0.32029 0.26207 0.0
H728 H 0.49343 0.31323 0.21035 0.0
C729 C 0.41408 0.34518 0.18476 0.0
C730 C 0.54641 0.41237 0.00249 0.0
C731 C 0.58399 0.41861 0.00919 0.0
H732 H 0.49772 0.38593 0.01463 0.0
C733 C 0.6013 0.40292 0.03483 0.0
H734 H 0.53212 0.42427 0.98305 0.0
C735 C 0.58146 0.38069 0.05301 0.0
C736 C 0.54387 0.374 0.04597 0.0
H737 H 0.63023 0.40741 0.0405 0.0
H738 H 0.5956 0.36854 0.07239 0.0
C739 C 0.52659 0.3904 0.0207 0.0
C740 C 0.68188 0.23847 0.15684 0.0
C741 C 0.68319 0.24781 0.19025 0.0
H742 H 0.65193 0.23799 0.11044 0.0
C743 C 0.65465 0.26468 0.20258 0.0
H744 H 0.70358 0.22539 0.14681 0.0
C745 C 0.62522 0.27184 0.18192 0.0
C746 C 0.62364 0.26229 0.14848 0.0
H747 H 0.65482 0.27223 0.22822 0.0
H748 H 0.60361 0.28474 0.19229 0.0
C749 C 0.65234 0.24566 0.13609 0.0
C750 C 0.48697 0.14022 0.04472 0.0
C751 C 0.45222 0.12583 0.03197 0.0
H752 H 0.52031 0.18618 0.06739 0.0
C753 C 0.42358 0.14754 0.03304 0.0
H754 H 0.50944 0.12388 0.04432 0.0
C755 C 0.42984 0.18342 0.04584 0.0
C756 C 0.46475 0.19796 0.05828 0.0
H757 H 0.39659 0.13703 0.02319 0.0
H758 H 0.40737 0.19976 0.04597 0.0
C759 C 0.49314 0.17583 0.05795 0.0
C760 C 0.32402 0.36701 0.69356 0.0
C761 C 0.31088 0.3427 0.71419 0.0
H762 H 0.35183 0.4182 0.68967 0.0
C763 C 0.31681 0.35208 0.74772 0.0
H764 H 0.31956 0.36088 0.66759 0.0
C765 C 0.33483 0.38505 0.7603 0.0
C766 C 0.34768 0.40949 0.73972 0.0
H767 H 0.30771 0.33382 0.76437 0.0
H768 H 0.33878 0.39128 0.78628 0.0
C769 C 0.34231 0.39999 0.70619 0.0
C770 C 0.31308 0.63745 0.8149 0.0
C771 C 0.31055 0.6615 0.7913 0.0
H772 H 0.3327 0.58937 0.82936 0.0
C773 C 0.32762 0.6544 0.76304 0.0
H774 H 0.29975 0.64146 0.83663 0.0
C775 C 0.34657 0.62387 0.75859 0.0
C776 C 0.3487 0.59975 0.78225 0.0
H777 H 0.32639 0.67248 0.7444 0.0
H778 H 0.35931 0.61908 0.73663 0.0
C779 C 0.33182 0.60719 0.81049 0.0
C780 C 0.85223 0.5011 0.51517 0.0
C781 C 0.88934 0.50065 0.52349 0.0
H782 H 0.80044 0.47119 0.51002 0.0
C783 C 0.9024 0.47089 0.53682 0.0
H784 H 0.84176 0.52379 0.50455 0.0
C785 C 0.87908 0.44101 0.53996 0.0
C786 C 0.84219 0.44012 0.5295 0.0
H787 H 0.93101 0.47007 0.5433 0.0
H788 H 0.89036 0.41793 0.54914 0.0
C789 C 0.82873 0.47097 0.51816 0.0
C790 C 0.72077 0.84745 0.81047 0.0
C791 C 0.75286 0.87013 0.81397 0.0
H792 H 0.66356 0.84237 0.79861 0.0
C793 C 0.75122 0.90637 0.8091 0.0
H794 H 0.7213 0.8193 0.81369 0.0
C795 C 0.7183 0.91956 0.80035 0.0
C796 C 0.68623 0.89675 0.79603 0.0
H797 H 0.77553 0.92449 0.81178 0.0
H798 H 0.7181 0.94762 0.79664 0.0
C799 C 0.68779 0.8606 0.80146 0.0
C800 C 0.70758 0.53784 0.90462 0.0
C801 C 0.6841 0.53666 0.92877 0.0
H802 H 0.75825 0.55854 0.89132 0.0
C803 C 0.69461 0.55608 0.95901 0.0
H804 H 0.70027 0.52287 0.88117 0.0
C805 C 0.72775 0.57671 0.96482 0.0
C806 C 0.75121 0.57801 0.9406 0.0
H807 H 0.67689 0.55586 0.97798 0.0
H808 H 0.73494 0.59168 0.98827 0.0
C809 C 0.74085 0.55812 0.91052 0.0
C810 C 0.22074 0.63022 0.30411 0.0
C811 C 0.21864 0.63672 0.2714 0.0
H812 H 0.20348 0.59593 0.33891 0.0
C813 C 0.19673 0.61273 0.24852 0.0
H814 H 0.23711 0.64838 0.3224 0.0
C815 C 0.17717 0.58324 0.258 0.0
C816 C 0.17929 0.57659 0.29061 0.0
H817 H 0.19507 0.61635 0.22306 0.0
H818 H 0.16076 0.56531 0.23954 0.0
C819 C 0.20133 0.60033 0.31361 0.0
C820 C 0.94228 0.56151 0.052 0.0
C821 C 0.97231 0.54986 0.0377 0.0
H822 H 0.89684 0.59259 0.04781 0.0
C823 C 0.98259 0.56569 0.01041 0.0
H824 H 0.93359 0.54988 0.07297 0.0
C825 C 0.96119 0.58942 0.99567 0.0
C826 C 0.92951 0.59867 0.00833 0.0
H827 H 0.00616 0.55814 0.99931 0.0
H828 H 0.96856 0.59925 0.97346 0.0
C829 C 0.92117 0.58592 0.03752 0.0
C830 C 0.11094 0.95661 0.01862 0.0
C831 C 0.10686 0.97601 0.04834 0.0
H832 H 0.14221 0.92093 0.99233 0.0
C833 C 0.13218 0.97334 0.07488 0.0
H834 H 0.09177 0.95776 0.99772 0.0
C835 C 0.16094 0.95229 0.07179 0.0
C836 C 0.16528 0.93316 0.04207 0.0
H837 H 0.13031 0.98827 0.09799 0.0
H838 H 0.18 0.9513 0.0928 0.0
C839 C 0.13977 0.93536 0.01554 0.0
loop_
_geom_bond_atom_site_label_1
_geom_bond_atom_site_label_2
_geom_bond_distance
_geom_bond_site_symmetry_2
_ccdc_geom_bond_type
H0 C5 0.930 . S
H1 C8 0.930 . S
H2 C10 0.930 1_565 S
H3 C4 1.016 . S
C4 H3 1.016 . S
C4 N11 1.286 1_556 S
C5 H0 0.930 . S
C5 C6 1.397 . S
C5 C7 1.361 . S
C6 C5 1.397 . S
C6 C10 1.390 . S
C7 C5 1.361 . S
C7 C8 1.393 . S
C7 N11 1.413 . S
C8 H1 0.930 . S
C8 C7 1.393 . S
C8 C9 1.399 . S
C9 C8 1.399 . S
C9 C10 1.381 . S
C10 H2 0.930 1_545 S
C10 C6 1.390 . S
C10 C9 1.381 . S
N11 C4 1.286 1_554 S
N11 C7 1.413 . S
H12 C17 0.930 . S
H13 C20 0.930 . S
H14 C22 0.930 . S
H15 C16 1.016 . S
C16 H15 1.016 . S
C16 N23 1.286 . S
C17 H12 0.930 . S
C17 C18 1.397 . S
C17 C19 1.361 . S
C18 C17 1.397 . S
C18 C22 1.390 . S
C19 C17 1.361 . S
C19 C20 1.393 . S
C19 N23 1.413 . S
C20 H13 0.930 . S
C20 C19 1.393 . S
C20 C21 1.399 . S
C21 C20 1.399 . S
C21 C22 1.381 . S
C22 H14 0.930 . S
C22 C18 1.390 . S
C22 C21 1.381 . S
N23 C16 1.286 . S
N23 C19 1.413 . S
H24 C29 0.930 . S
H25 C32 0.930 . S
H26 C34 0.930 . S
H27 C28 1.016 . S
C28 H27 1.016 . S
C28 N35 1.286 . S
C29 H24 0.930 . S
C29 C30 1.397 . S
C29 C31 1.361 . S
C30 C29 1.397 . S
C30 C34 1.390 . S
C31 C29 1.361 . S
C31 C32 1.393 . S
C31 N35 1.413 . S
C32 H25 0.930 . S
C32 C31 1.393 . S
C32 C33 1.399 . S
C33 C32 1.399 . S
C33 C34 1.381 . S
C34 H26 0.930 . S
C34 C30 1.390 . S
C34 C33 1.381 . S
N35 C28 1.286 . S
N35 C31 1.413 . S
H36 C41 0.930 . S
H37 C44 0.930 . S
H38 C46 0.930 . S
H39 C40 1.016 . S
C40 H39 1.016 . S
C40 N47 1.286 . S
C41 H36 0.930 . S
C41 C42 1.397 . S
C41 C43 1.361 . S
C42 C41 1.397 . S
C42 C46 1.390 . S
C43 C41 1.361 . S
C43 C44 1.393 . S
C43 N47 1.413 . S
C44 H37 0.930 . S
C44 C43 1.393 . S
C44 C45 1.399 . S
C45 C44 1.399 . S
C45 C46 1.381 . S
C46 H38 0.930 . S
C46 C42 1.390 . S
C46 C45 1.381 . S
N47 C40 1.286 . S
N47 C43 1.413 . S
H48 C53 0.930 . S
H49 C56 0.930 . S
H50 C58 0.930 1_545 S
H51 C52 1.016 . S
C52 H51 1.016 . S
C52 N59 1.286 . S
C53 H48 0.930 . S
C53 C54 1.397 . S
C53 C55 1.361 . S
C54 C53 1.397 . S
C54 C58 1.390 . S
C55 C53 1.361 . S
C55 C56 1.393 . S
C55 N59 1.413 . S
C56 H49 0.930 . S
C56 C55 1.393 . S
C56 C57 1.399 . S
C57 C56 1.399 . S
C57 C58 1.381 . S
C58 H50 0.930 1_565 S
C58 C54 1.390 . S
C58 C57 1.381 . S
N59 C52 1.286 . S
N59 C55 1.413 . S
H60 C65 0.930 . S
H61 C68 0.930 . S
H62 C70 0.930 . S
H63 C64 1.016 . S
C64 H63 1.016 . S
C64 N71 1.286 . S
C65 H60 0.930 . S
C65 C66 1.397 . S
C65 C67 1.361 . S
C66 C65 1.397 . S
C66 C70 1.390 . S
C67 C65 1.361 . S
C67 C68 1.393 . S
C67 N71 1.413 . S
C68 H61 0.930 . S
C68 C67 1.393 . S
C68 C69 1.399 . S
C69 C68 1.399 . S
C69 C70 1.381 . S
C70 H62 0.930 . S
C70 C66 1.390 . S
C70 C69 1.381 . S
N71 C64 1.286 . S
N71 C67 1.413 . S
H72 C77 0.921 1_455 S
H73 C80 0.930 . S
H74 C82 0.930 . S
H75 C76 1.016 1_655 S
C76 H75 1.016 1_455 S
C76 N83 1.286 1_455 S
C77 H72 0.921 1_655 S
C77 C78 1.397 . S
C77 C79 1.361 . S
C78 C77 1.397 . S
C78 C82 1.390 . S
C79 C77 1.361 . S
C79 C80 1.393 . S
C79 N83 1.413 . S
C80 H73 0.930 . S
C80 C79 1.393 . S
C80 C81 1.399 . S
C81 C80 1.399 . S
C81 C82 1.381 . S
C82 H74 0.930 . S
C82 C78 1.390 . S
C82 C81 1.381 . S
N83 C76 1.286 1_655 S
N83 C79 1.413 . S
H84 C89 0.930 . S
H85 C92 0.930 . S
H86 C94 0.930 . S
H87 C88 1.016 . S
C88 H87 1.016 . S
C88 N95 1.286 . S
C89 H84 0.930 . S
C89 C90 1.397 . S
C89 C91 1.361 . S
C90 C89 1.397 . S
C90 C94 1.390 . S
C91 C89 1.361 . S
C91 C92 1.393 . S
C91 N95 1.413 . S
C92 H85 0.930 . S
C92 C91 1.393 . S
C92 C93 1.399 . S
C93 C92 1.399 . S
C93 C94 1.381 . S
C94 H86 0.930 . S
C94 C90 1.390 . S
C94 C93 1.381 . S
N95 C88 1.286 . S
N95 C91 1.413 . S
H96 C101 0.930 . S
H97 C104 0.930 . S
H98 C106 0.930 . S
H99 C100 1.016 . S
C100 H99 1.016 . S
C100 N107 1.286 . S
C101 H96 0.930 . S
C101 C102 1.397 . S
C101 C103 1.361 . S
C102 C101 1.397 . S
C102 C106 1.390 . S
C103 C101 1.361 . S
C103 C104 1.393 . S
C103 N107 1.413 . S
C104 H97 0.930 . S
C104 C103 1.393 . S
C104 C105 1.399 . S
C105 C104 1.399 . S
C105 C106 1.381 . S
C106 H98 0.930 . S
C106 C102 1.390 . S
C106 C105 1.381 . S
N107 C100 1.286 . S
N107 C103 1.413 . S
H108 C113 0.930 . S
H109 C116 0.930 . S
H110 C118 0.930 . S
H111 C112 1.016 . S
C112 H111 1.016 . S
C112 N119 1.286 . S
C113 H108 0.930 . S
C113 C114 1.397 1_565 S
C113 C115 1.361 . S
C114 C113 1.397 1_545 S
C114 C118 1.390 . S
C115 C113 1.361 . S
C115 C116 1.393 . S
C115 N119 1.413 . S
C116 H109 0.930 . S
C116 C115 1.393 . S
C116 C117 1.399 . S
C117 C116 1.399 . S
C117 C118 1.381 1_565 S
C118 H110 0.930 . S
C118 C114 1.390 . S
C118 C117 1.381 1_545 S
N119 C112 1.286 . S
N119 C115 1.413 . S
H120 C125 0.930 . S
H121 C128 0.930 . S
H122 C130 0.930 . S
H123 C124 1.016 . S
C124 H123 1.016 . S
C124 N131 1.286 . S
C125 H120 0.930 . S
C125 C126 1.397 . S
C125 C127 1.361 . S
C126 C125 1.397 . S
C126 C130 1.390 . S
C127 C125 1.361 . S
C127 C128 1.393 . S
C127 N131 1.413 . S
C128 H121 0.930 . S
C128 C127 1.393 . S
C128 C129 1.399 . S
C129 C128 1.399 . S
C129 C130 1.381 . S
C130 H122 0.930 . S
C130 C126 1.390 . S
C130 C129 1.381 . S
N131 C124 1.286 . S
N131 C127 1.413 . S
H132 C137 0.930 . S
H133 C140 0.930 . S
H134 C142 0.930 . S
H135 C136 1.016 . S
C136 H135 1.016 . S
C136 N143 1.286 . S
C137 H132 0.930 . S
C137 C138 1.397 . S
C137 C139 1.361 . S
C138 C137 1.397 . S
C138 C142 1.390 . S
C139 C137 1.361 . S
C139 C140 1.393 . S
C139 N143 1.413 . S
C140 H133 0.930 . S
C140 C139 1.393 . S
C140 C141 1.399 . S
C141 C140 1.399 . S
C141 C142 1.381 . S
C142 H134 0.930 . S
C142 C138 1.390 . S
C142 C141 1.381 . S
N143 C136 1.286 . S
N143 C139 1.413 . S
H144 C149 0.930 . S
H145 C152 0.930 . S
H146 C154 0.930 . S
H147 C148 1.016 . S
C148 H147 1.016 . S
C148 N155 1.286 . S
C149 H144 0.930 . S
C149 C150 1.397 . S
C149 C151 1.361 . S
C150 C149 1.397 . S
C150 C154 1.390 . S
C151 C149 1.361 . S
C151 C152 1.393 . S
C151 N155 1.413 . S
C152 H145 0.930 . S
C152 C151 1.393 . S
C152 C153 1.399 . S
C153 C152 1.399 . S
C153 C154 1.381 . S
C154 H146 0.930 . S
C154 C150 1.390 . S
C154 C153 1.381 . S
N155 C148 1.286 . S
N155 C151 1.413 . S
H156 C161 0.930 . S
H157 C164 0.930 1_554 S
H158 C166 0.930 . S
H159 C160 1.016 . S
C160 H159 1.016 . S
C160 N167 1.286 1_554 S
C161 H156 0.930 . S
C161 C162 1.397 . S
C161 C163 1.361 . S
C162 C161 1.397 . S
C162 C166 1.390 . S
C163 C161 1.361 . S
C163 C164 1.393 . S
C163 N167 1.413 . S
C164 H157 0.930 1_556 S
C164 C163 1.393 . S
C164 C165 1.399 . S
C165 C164 1.399 . S
C165 C166 1.381 . S
C166 H158 0.930 . S
C166 C162 1.390 . S
C166 C165 1.381 . S
N167 C160 1.286 1_556 S
N167 C163 1.413 . S
H168 C173 0.930 . S
H169 C176 0.930 . S
H170 C178 0.930 . S
H171 C172 1.016 . S
C172 H171 1.016 . S
C172 N179 1.286 . S
C173 H168 0.930 . S
C173 C174 1.397 . S
C173 C175 1.361 . S
C174 C173 1.397 . S
C174 C178 1.390 . S
C175 C173 1.361 . S
C175 C176 1.393 . S
C175 N179 1.413 . S
C176 H169 0.930 . S
C176 C175 1.393 . S
C176 C177 1.399 . S
C177 C176 1.399 . S
C177 C178 1.381 . S
C178 H170 0.930 . S
C178 C174 1.390 . S
C178 C177 1.381 . S
N179 C172 1.286 . S
N179 C175 1.413 . S
H180 C185 0.930 . S
H181 C188 0.930 . S
H182 C190 0.930 1_554 S
H183 C184 1.016 . S
C184 H183 1.016 . S
C184 N191 1.286 . S
C185 H180 0.930 . S
C185 C186 1.397 . S
C185 C187 1.361 . S
C186 C185 1.397 . S
C186 C190 1.390 . S
C187 C185 1.361 . S
C187 C188 1.393 . S
C187 N191 1.413 . S
C188 H181 0.930 . S
C188 C187 1.393 . S
C188 C189 1.399 . S
C189 C188 1.399 . S
C189 C190 1.381 . S
C190 H182 0.930 1_556 S
C190 C186 1.390 . S
C190 C189 1.381 . S
N191 C184 1.286 . S
N191 C187 1.413 . S
Zn192 O195 2.031 . S
Zn192 O197 2.049 1_554 S
Zn192 O202 2.067 1_554 S
Zn193 O194 1.962 . S
Zn193 O196 1.986 . S
Zn193 O198 1.996 . S
Zn193 O201 1.943 1_554 S
O194 Zn193 1.962 . S
O194 C199 1.254 . S
O195 Zn192 2.031 . S
O195 C199 1.269 . S
O196 Zn193 1.986 . S
O196 C203 1.262 . S
O197 Zn192 2.049 1_556 S
O197 C205 1.260 1_556 S
O198 Zn193 1.996 . S
O198 C205 1.257 . S
C199 O194 1.254 . S
C199 O195 1.269 . S
C200 O201 1.249 . S
C200 O202 1.270 . S
O201 Zn193 1.943 1_556 S
O201 C200 1.249 . S
O202 Zn192 2.067 1_556 S
O202 C200 1.270 . S
C203 O196 1.262 . S
C203 O204 1.232 . S
O204 C203 1.232 . S
C205 O197 1.260 1_554 S
C205 O198 1.257 . S
Zn206 O209 2.031 . S
Zn206 O211 2.049 . S
Zn206 O216 2.067 . S
Zn207 O208 1.962 . S
Zn207 O210 1.986 . S
Zn207 O212 1.996 . S
Zn207 O215 1.943 . S
O208 Zn207 1.962 . S
O208 C213 1.254 . S
O209 Zn206 2.031 . S
O209 C213 1.269 . S
O210 Zn207 1.986 . S
O210 C217 1.262 . S
O211 Zn206 2.049 . S
O211 C219 1.260 . S
O212 Zn207 1.996 . S
O212 C219 1.257 . S
C213 O208 1.254 . S
C213 O209 1.269 . S
C214 O215 1.249 . S
C214 O216 1.270 . S
O215 Zn207 1.943 . S
O215 C214 1.249 . S
O216 Zn206 2.067 . S
O216 C214 1.270 . S
C217 O210 1.262 . S
C217 O218 1.232 . S
O218 C217 1.232 . S
C219 O211 1.260 . S
C219 O212 1.257 . S
Zn220 O223 2.031 . S
Zn220 O225 2.049 . S
Zn220 O230 2.067 . S
Zn221 O222 1.962 . S
Zn221 O224 1.986 . S
Zn221 O226 1.996 1_554 S
Zn221 O229 1.943 . S
O222 Zn221 1.962 . S
O222 C227 1.254 . S
O223 Zn220 2.031 . S
O223 C227 1.269 1_556 S
O224 Zn221 1.986 . S
O224 C231 1.262 . S
O225 Zn220 2.049 . S
O225 C233 1.260 . S
O226 Zn221 1.996 1_556 S
O226 C233 1.257 . S
C227 O222 1.254 . S
C227 O223 1.269 1_554 S
C228 O229 1.249 1_556 S
C228 O230 1.270 . S
O229 Zn221 1.943 . S
O229 C228 1.249 1_554 S
O230 Zn220 2.067 . S
O230 C228 1.270 . S
C231 O224 1.262 . S
C231 O232 1.232 . S
O232 C231 1.232 . S
C233 O225 1.260 . S
C233 O226 1.257 . S
Zn234 O237 2.031 . S
Zn234 O239 2.049 1_545 S
Zn234 O244 2.067 1_545 S
Zn235 O236 1.962 . S
Zn235 O238 1.986 . S
Zn235 O240 1.996 . S
Zn235 O243 1.943 1_545 S
O236 Zn235 1.962 . S
O236 C241 1.254 . S
O237 Zn234 2.031 . S
O237 C241 1.269 . S
O238 Zn235 1.986 . S
O238 C245 1.262 . S
O239 Zn234 2.049 1_565 S
O239 C247 1.260 1_565 S
O240 Zn235 1.996 . S
O240 C247 1.257 . S
C241 O236 1.254 . S
C241 O237 1.269 . S
C242 O243 1.249 . S
C242 O244 1.270 . S
O243 Zn235 1.943 1_565 S
O243 C242 1.249 . S
O244 Zn234 2.067 1_565 S
O244 C242 1.270 . S
C245 O238 1.262 . S
C245 O246 1.232 . S
O246 C245 1.232 . S
C247 O239 1.260 1_545 S
C247 O240 1.257 . S
Zn248 O251 2.031 . S
Zn248 O253 2.049 . S
Zn248 O258 2.067 . S
Zn249 O250 1.962 . S
Zn249 O252 1.986 . S
Zn249 O254 1.996 . S
Zn249 O257 1.943 . S
O250 Zn249 1.962 . S
O250 C255 1.254 . S
O251 Zn248 2.031 . S
O251 C255 1.269 . S
O252 Zn249 1.986 . S
O252 C259 1.262 . S
O253 Zn248 2.049 . S
O253 C261 1.260 . S
O254 Zn249 1.996 . S
O254 C261 1.257 . S
C255 O250 1.254 . S
C255 O251 1.269 . S
C256 O257 1.249 . S
C256 O258 1.270 . S
O257 Zn249 1.943 . S
O257 C256 1.249 . S
O258 Zn248 2.067 . S
O258 C256 1.270 . S
C259 O252 1.262 . S
C259 O260 1.232 . S
O260 C259 1.232 . S
C261 O253 1.260 . S
C261 O254 1.257 . S
Zn262 O265 2.031 . S
Zn262 O267 2.049 . S
Zn262 O272 2.067 . S
Zn263 O264 1.962 . S
Zn263 O266 1.986 . S
Zn263 O268 1.996 . S
Zn263 O271 1.943 . S
O264 Zn263 1.962 . S
O264 C269 1.254 . S
O265 Zn262 2.031 . S
O265 C269 1.269 . S
O266 Zn263 1.986 . S
O266 C273 1.262 . S
O267 Zn262 2.049 . S
O267 C275 1.260 . S
O268 Zn263 1.996 . S
O268 C275 1.257 . S
C269 O264 1.254 . S
C269 O265 1.269 . S
C270 O271 1.249 . S
C270 O272 1.270 . S
O271 Zn263 1.943 . S
O271 C270 1.249 . S
O272 Zn262 2.067 . S
O272 C270 1.270 . S
C273 O266 1.262 . S
C273 O274 1.232 . S
O274 C273 1.232 . S
C275 O267 1.260 . S
C275 O268 1.257 . S
Zn276 O279 2.031 . S
Zn276 O281 2.049 . S
Zn276 O286 2.067 . S
Zn277 O278 1.962 . S
Zn277 O280 1.986 . S
Zn277 O282 1.996 . S
Zn277 O285 1.943 . S
O278 Zn277 1.962 . S
O278 C283 1.254 . S
O279 Zn276 2.031 . S
O279 C283 1.269 . S
O280 Zn277 1.986 . S
O280 C287 1.262 . S
O281 Zn276 2.049 . S
O281 C289 1.260 . S
O282 Zn277 1.996 . S
O282 C289 1.257 . S
C283 O278 1.254 . S
C283 O279 1.269 . S
C284 O285 1.249 . S
C284 O286 1.270 . S
O285 Zn277 1.943 . S
O285 C284 1.249 . S
O286 Zn276 2.067 . S
O286 C284 1.270 . S
C287 O280 1.262 . S
C287 O288 1.232 . S
O288 C287 1.232 . S
C289 O281 1.260 . S
C289 O282 1.257 . S
Zn290 O293 2.031 . S
Zn290 O295 2.049 . S
Zn290 O300 2.067 . S
Zn291 O292 1.962 . S
Zn291 O294 1.986 . S
Zn291 O296 1.996 1_545 S
Zn291 O299 1.943 . S
O292 Zn291 1.962 . S
O292 C297 1.254 . S
O293 Zn290 2.031 . S
O293 C297 1.269 1_565 S
O294 Zn291 1.986 . S
O294 C301 1.262 . S
O295 Zn290 2.049 . S
O295 C303 1.260 . S
O296 Zn291 1.996 1_565 S
O296 C303 1.257 . S
C297 O292 1.254 . S
C297 O293 1.269 1_545 S
C298 O299 1.249 1_565 S
C298 O300 1.270 . S
O299 Zn291 1.943 . S
O299 C298 1.249 1_545 S
O300 Zn290 2.067 . S
O300 C298 1.270 . S
C301 O294 1.262 . S
C301 O302 1.232 . S
O302 C301 1.232 . S
C303 O295 1.260 . S
C303 O296 1.257 . S
Zn304 O307 2.031 . S
Zn304 O309 2.049 1_455 S
Zn304 O314 2.067 1_455 S
Zn305 O306 1.962 . S
Zn305 O308 1.986 . S
Zn305 O310 1.996 . S
Zn305 O313 1.943 1_455 S
O306 Zn305 1.962 . S
O306 C311 1.254 . S
O307 Zn304 2.031 . S
O307 C311 1.269 . S
O308 Zn305 1.986 . S
O308 C315 1.262 . S
O309 Zn304 2.049 1_655 S
O309 C317 1.260 . S
O310 Zn305 1.996 . S
O310 C317 1.257 1_455 S
C311 O306 1.254 . S
C311 O307 1.269 . S
C312 O313 1.249 . S
C312 O314 1.270 . S
O313 Zn305 1.943 1_655 S
O313 C312 1.249 . S
O314 Zn304 2.067 1_655 S
O314 C312 1.270 . S
C315 O308 1.262 . S
C315 O316 1.232 . S
O316 C315 1.232 . S
C317 O309 1.260 . S
C317 O310 1.257 1_655 S
Zn318 O321 2.031 . S
Zn318 O323 2.049 . S
Zn318 O328 2.067 . S
Zn319 O320 1.962 . S
Zn319 O322 1.986 . S
Zn319 O324 1.996 . S
Zn319 O327 1.943 . S
O320 Zn319 1.962 . S
O320 C325 1.254 . S
O321 Zn318 2.031 . S
O321 C325 1.269 . S
O322 Zn319 1.986 . S
O322 C329 1.262 . S
O323 Zn318 2.049 . S
O323 C331 1.260 . S
O324 Zn319 1.996 . S
O324 C331 1.257 . S
C325 O320 1.254 . S
C325 O321 1.269 . S
C326 O327 1.249 . S
C326 O328 1.270 . S
O327 Zn319 1.943 . S
O327 C326 1.249 . S
O328 Zn318 2.067 . S
O328 C326 1.270 . S
C329 O322 1.262 . S
C329 O330 1.232 . S
O330 C329 1.232 . S
C331 O323 1.260 . S
C331 O324 1.257 . S
Zn332 O335 2.031 1_655 S
Zn332 O337 2.049 . S
Zn332 O342 2.067 . S
Zn333 O334 1.962 . S
Zn333 O336 1.986 . S
Zn333 O338 1.996 1_455 S
Zn333 O341 1.943 . S
O334 Zn333 1.962 . S
O334 C339 1.254 . S
O335 Zn332 2.031 1_455 S
O335 C339 1.269 . S
O336 Zn333 1.986 . S
O336 C343 1.262 . S
O337 Zn332 2.049 . S
O337 C345 1.260 . S
O338 Zn333 1.996 1_655 S
O338 C345 1.257 . S
C339 O334 1.254 . S
C339 O335 1.269 . S
C340 O341 1.249 1_655 S
C340 O342 1.270 . S
O341 Zn333 1.943 . S
O341 C340 1.249 1_455 S
O342 Zn332 2.067 . S
O342 C340 1.270 . S
C343 O336 1.262 . S
C343 O344 1.232 . S
O344 C343 1.232 . S
C345 O337 1.260 . S
C345 O338 1.257 . S
Zn346 O349 2.031 . S
Zn346 O351 2.049 . S
Zn346 O356 2.067 . S
Zn347 O348 1.962 . S
Zn347 O350 1.986 . S
Zn347 O352 1.996 . S
Zn347 O355 1.943 . S
O348 Zn347 1.962 . S
O348 C353 1.254 . S
O349 Zn346 2.031 . S
O349 C353 1.269 . S
O350 Zn347 1.986 . S
O350 C357 1.262 . S
O351 Zn346 2.049 . S
O351 C359 1.260 . S
O352 Zn347 1.996 . S
O352 C359 1.257 . S
C353 O348 1.254 . S
C353 O349 1.269 . S
C354 O355 1.249 . S
C354 O356 1.270 . S
O355 Zn347 1.943 . S
O355 C354 1.249 . S
O356 Zn346 2.067 . S
O356 C354 1.270 . S
C357 O350 1.262 . S
C357 O358 1.232 . S
O358 C357 1.232 . S
C359 O351 1.260 . S
C359 O352 1.257 . S
C360 C361 1.387 . S
C360 H364 0.950 . S
C360 C369 1.390 . S
C361 C360 1.387 . S
C361 C363 1.387 . S
H362 C369 0.950 . S
C363 C361 1.387 . S
C363 C365 1.390 . S
C363 H367 0.950 . S
H364 C360 0.950 . S
C365 C363 1.390 . S
C365 C366 1.387 . S
C365 H368 0.950 . S
C366 C365 1.387 . S
C366 C369 1.387 . S
H367 C363 0.950 . S
H368 C365 0.950 . S
C369 C360 1.390 . S
C369 H362 0.950 . S
C369 C366 1.387 . S
C370 C371 1.387 . S
C370 H374 0.950 . S
C370 C379 1.390 . S
C371 C370 1.387 . S
C371 C373 1.387 . S
H372 C379 0.950 . S
C373 C371 1.387 . S
C373 C375 1.390 . S
C373 H377 0.950 . S
H374 C370 0.950 . S
C375 C373 1.390 . S
C375 C376 1.387 . S
C375 H378 0.950 . S
C376 C375 1.387 . S
C376 C379 1.387 . S
H377 C373 0.950 . S
H378 C375 0.950 . S
C379 C370 1.390 . S
C379 H372 0.950 . S
C379 C376 1.387 . S
C380 C381 1.387 . S
C380 H384 0.950 . S
C380 C389 1.390 . S
C381 C380 1.387 . S
C381 C383 1.387 . S
H382 C389 0.950 . S
C383 C381 1.387 . S
C383 C385 1.390 . S
C383 H387 0.950 . S
H384 C380 0.950 . S
C385 C383 1.390 . S
C385 C386 1.387 . S
C385 H388 0.950 . S
C386 C385 1.387 . S
C386 C389 1.387 . S
H387 C383 0.950 . S
H388 C385 0.950 . S
C389 C380 1.390 . S
C389 H382 0.950 . S
C389 C386 1.387 . S
C390 C391 1.387 1_545 S
C390 H394 0.950 . S
C390 C399 1.390 . S
C391 C390 1.387 1_565 S
C391 C393 1.387 . S
H392 C399 0.950 1_655 S
C393 C391 1.387 . S
C393 C395 1.390 . S
C393 H397 0.950 . S
H394 C390 0.950 . S
C395 C393 1.390 . S
C395 C396 1.387 . S
C395 H398 0.950 . S
C396 C395 1.387 . S
C396 C399 1.387 1_565 S
H397 C393 0.950 . S
H398 C395 0.950 . S
C399 C390 1.390 . S
C399 H392 0.950 1_455 S
C399 C396 1.387 1_545 S
C400 C401 1.387 . S
C400 H404 0.950 . S
C400 C409 1.390 . S
C401 C400 1.387 . S
C401 C403 1.387 . S
H402 C409 0.950 . S
C403 C401 1.387 . S
C403 C405 1.390 . S
C403 H407 0.950 . S
H404 C400 0.950 . S
C405 C403 1.390 . S
C405 C406 1.387 . S
C405 H408 0.950 . S
C406 C405 1.387 . S
C406 C409 1.387 . S
H407 C403 0.950 . S
H408 C405 0.950 . S
C409 C400 1.390 . S
C409 H402 0.950 . S
C409 C406 1.387 . S
C410 C411 1.387 . S
C410 H414 0.950 . S
C410 C419 1.390 . S
C411 C410 1.387 . S
C411 C413 1.387 . S
H412 C419 0.950 . S
C413 C411 1.387 . S
C413 C415 1.390 . S
C413 H417 0.950 . S
H414 C410 0.950 . S
C415 C413 1.390 . S
C415 C416 1.387 . S
C415 H418 0.950 . S
C416 C415 1.387 . S
C416 C419 1.387 . S
H417 C413 0.950 . S
H418 C415 0.950 . S
C419 C410 1.390 . S
C419 H412 0.950 . S
C419 C416 1.387 . S
C420 C421 1.387 . S
C420 H424 0.950 . S
C420 C429 1.390 . S
C421 C420 1.387 . S
C421 C423 1.387 . S
H422 C429 0.950 . S
C423 C421 1.387 . S
C423 C425 1.390 . S
C423 H427 0.950 . S
H424 C420 0.950 . S
C425 C423 1.390 . S
C425 C426 1.387 . S
C425 H428 0.950 . S
C426 C425 1.387 . S
C426 C429 1.387 . S
H427 C423 0.950 . S
H428 C425 0.950 . S
C429 C420 1.390 . S
C429 H422 0.950 . S
C429 C426 1.387 . S
C430 C431 1.387 . S
C430 H434 0.950 . S
C430 C439 1.390 . S
C431 C430 1.387 . S
C431 C433 1.387 1_565 S
H432 C439 0.950 . S
C433 C431 1.387 1_545 S
C433 C435 1.390 . S
C433 H437 0.950 . S
H434 C430 0.950 . S
C435 C433 1.390 . S
C435 C436 1.387 1_545 S
C435 H438 0.950 . S
C436 C435 1.387 1_565 S
C436 C439 1.387 . S
H437 C433 0.950 . S
H438 C435 0.950 . S
C439 C430 1.390 . S
C439 H432 0.950 . S
C439 C436 1.387 . S
C440 C441 1.387 . S
C440 H444 0.950 . S
C440 C449 1.390 . S
C441 C440 1.387 . S
C441 C443 1.387 . S
H442 C449 0.950 . S
C443 C441 1.387 . S
C443 C445 1.390 . S
C443 H447 0.950 . S
H444 C440 0.950 . S
C445 C443 1.390 . S
C445 C446 1.387 . S
C445 H448 0.950 . S
C446 C445 1.387 . S
C446 C449 1.387 . S
H447 C443 0.950 . S
H448 C445 0.950 . S
C449 C440 1.390 . S
C449 H442 0.950 . S
C449 C446 1.387 . S
C450 C451 1.387 . S
C450 H454 0.950 . S
C450 C459 1.390 . S
C451 C450 1.387 . S
C451 C453 1.387 . S
H452 C459 0.950 . S
C453 C451 1.387 . S
C453 C455 1.390 . S
C453 H457 0.950 . S
H454 C450 0.950 . S
C455 C453 1.390 . S
C455 C456 1.387 . S
C455 H458 0.950 . S
C456 C455 1.387 . S
C456 C459 1.387 . S
H457 C453 0.950 . S
H458 C455 0.950 . S
C459 C450 1.390 . S
C459 H452 0.950 . S
C459 C456 1.387 . S
C460 C461 1.387 . S
C460 H464 0.950 . S
C460 C469 1.390 . S
C461 C460 1.387 . S
C461 C463 1.387 . S
H462 C469 0.950 . S
C463 C461 1.387 . S
C463 C465 1.390 . S
C463 H467 0.950 . S
H464 C460 0.950 . S
C465 C463 1.390 . S
C465 C466 1.387 . S
C465 H468 0.950 . S
C466 C465 1.387 . S
C466 C469 1.387 . S
H467 C463 0.950 . S
H468 C465 0.950 . S
C469 C460 1.390 . S
C469 H462 0.950 . S
C469 C466 1.387 . S
C470 C471 1.387 . S
C470 H474 0.950 . S
C470 C479 1.390 . S
C471 C470 1.387 . S
C471 C473 1.387 . S
H472 C479 0.950 . S
C473 C471 1.387 . S
C473 C475 1.390 . S
C473 H477 0.950 . S
H474 C470 0.950 . S
C475 C473 1.390 . S
C475 C476 1.387 . S
C475 H478 0.950 . S
C476 C475 1.387 . S
C476 C479 1.387 . S
H477 C473 0.950 . S
H478 C475 0.950 . S
C479 C470 1.390 . S
C479 H472 0.950 . S
C479 C476 1.387 . S
C480 C481 1.387 . S
C480 H484 0.950 . S
C480 C489 1.390 . S
C481 C480 1.387 . S
C481 C483 1.387 . S
H482 C489 0.950 . S
C483 C481 1.387 . S
C483 C485 1.390 . S
C483 H487 0.950 . S
H484 C480 0.950 . S
C485 C483 1.390 . S
C485 C486 1.387 . S
C485 H488 0.950 . S
C486 C485 1.387 . S
C486 C489 1.387 . S
H487 C483 0.950 . S
H488 C485 0.950 . S
C489 C480 1.390 . S
C489 H482 0.950 . S
C489 C486 1.387 . S
C490 C491 1.387 . S
C490 H494 0.950 . S
C490 C499 1.390 . S
C491 C490 1.387 . S
C491 C493 1.387 . S
H492 C499 0.950 . S
C493 C491 1.387 . S
C493 C495 1.390 . S
C493 H497 0.950 . S
H494 C490 0.950 . S
C495 C493 1.390 . S
C495 C496 1.387 . S
C495 H498 0.950 1_455 S
C496 C495 1.387 . S
C496 C499 1.387 . S
H497 C493 0.950 . S
H498 C495 0.950 1_655 S
C499 C490 1.390 . S
C499 H492 0.950 . S
C499 C496 1.387 . S
C500 C501 1.387 . S
C500 H504 0.950 . S
C500 C509 1.390 . S
C501 C500 1.387 . S
C501 C503 1.387 . S
H502 C509 0.950 . S
C503 C501 1.387 . S
C503 C505 1.390 . S
C503 H507 0.950 . S
H504 C500 0.950 . S
C505 C503 1.390 . S
C505 C506 1.387 . S
C505 H508 0.950 . S
C506 C505 1.387 . S
C506 C509 1.387 . S
H507 C503 0.950 . S
H508 C505 0.950 . S
C509 C500 1.390 . S
C509 H502 0.950 . S
C509 C506 1.387 . S
C510 C511 1.387 . S
C510 H514 0.950 . S
C510 C519 1.390 . S
C511 C510 1.387 . S
C511 C513 1.387 . S
H512 C519 0.950 1_455 S
C513 C511 1.387 . S
C513 C515 1.390 . S
C513 H517 0.950 . S
H514 C510 0.950 . S
C515 C513 1.390 . S
C515 C516 1.387 . S
C515 H518 0.950 . S
C516 C515 1.387 . S
C516 C519 1.387 . S
H517 C513 0.950 . S
H518 C515 0.950 . S
C519 C510 1.390 . S
C519 H512 0.950 1_655 S
C519 C516 1.387 . S
C520 C521 1.387 . S
C520 H524 0.950 . S
C520 C529 1.390 . S
C521 C520 1.387 . S
C521 C523 1.387 . S
H522 C529 0.950 . S
C523 C521 1.387 . S
C523 C525 1.390 . S
C523 H527 0.950 . S
H524 C520 0.950 . S
C525 C523 1.390 . S
C525 C526 1.387 . S
C525 H528 0.950 . S
C526 C525 1.387 . S
C526 C529 1.387 . S
H527 C523 0.950 . S
H528 C525 0.950 . S
C529 C520 1.390 . S
C529 H522 0.950 . S
C529 C526 1.387 . S
C530 C531 1.387 . S
C530 H534 0.950 . S
C530 C539 1.390 . S
C531 C530 1.387 . S
C531 C533 1.387 . S
H532 C539 0.950 . S
C533 C531 1.387 . S
C533 C535 1.390 . S
C533 H537 0.950 . S
H534 C530 0.950 . S
C535 C533 1.390 . S
C535 C536 1.387 . S
C535 H538 0.950 . S
C536 C535 1.387 . S
C536 C539 1.387 . S
H537 C533 0.950 . S
H538 C535 0.950 . S
C539 C530 1.390 . S
C539 H532 0.950 . S
C539 C536 1.387 . S
C540 C541 1.387 1_565 S
C540 H544 0.950 . S
C540 C549 1.390 . S
C541 C540 1.387 1_545 S
C541 C543 1.387 1_556 S
H542 C549 0.950 . S
C543 C541 1.387 1_554 S
C543 C545 1.390 1_545 S
C543 H547 0.950 . S
H544 C540 0.950 . S
C545 C543 1.390 1_565 S
C545 C546 1.387 1_554 S
C545 H548 0.950 . S
C546 C545 1.387 1_556 S
C546 C549 1.387 . S
H547 C543 0.950 . S
H548 C545 0.950 . S
C549 C540 1.390 . S
C549 H542 0.950 . S
C549 C546 1.387 . S
C550 C551 1.387 . S
C550 H554 0.950 . S
C550 C559 1.390 . S
C551 C550 1.387 . S
C551 C553 1.387 . S
H552 C559 0.950 . S
C553 C551 1.387 . S
C553 C555 1.390 . S
C553 H557 0.950 . S
H554 C550 0.950 . S
C555 C553 1.390 . S
C555 C556 1.387 . S
C555 H558 0.950 . S
C556 C555 1.387 . S
C556 C559 1.387 . S
H557 C553 0.950 . S
H558 C555 0.950 . S
C559 C550 1.390 . S
C559 H552 0.950 . S
C559 C556 1.387 . S
C560 C561 1.387 . S
C560 H564 0.950 . S
C560 C569 1.390 . S
C561 C560 1.387 . S
C561 C563 1.387 . S
H562 C569 0.950 . S
C563 C561 1.387 . S
C563 C565 1.390 . S
C563 H567 0.950 . S
H564 C560 0.950 . S
C565 C563 1.390 . S
C565 C566 1.387 . S
C565 H568 0.950 . S
C566 C565 1.387 . S
C566 C569 1.387 . S
H567 C563 0.950 . S
H568 C565 0.950 . S
C569 C560 1.390 . S
C569 H562 0.950 . S
C569 C566 1.387 . S
C570 C571 1.387 . S
C570 H574 0.950 . S
C570 C579 1.390 . S
C571 C570 1.387 . S
C571 C573 1.387 . S
H572 C579 0.950 . S
C573 C571 1.387 . S
C573 C575 1.390 . S
C573 H577 0.950 . S
H574 C570 0.950 . S
C575 C573 1.390 . S
C575 C576 1.387 . S
C575 H578 0.950 . S
C576 C575 1.387 . S
C576 C579 1.387 . S
H577 C573 0.950 . S
H578 C575 0.950 . S
C579 C570 1.390 . S
C579 H572 0.950 . S
C579 C576 1.387 . S
C580 C581 1.387 . S
C580 H584 0.950 . S
C580 C589 1.390 . S
C581 C580 1.387 . S
C581 C583 1.387 . S
H582 C589 0.950 . S
C583 C581 1.387 . S
C583 C585 1.390 . S
C583 H587 0.950 . S
H584 C580 0.950 . S
C585 C583 1.390 . S
C585 C586 1.387 . S
C585 H588 0.950 . S
C586 C585 1.387 . S
C586 C589 1.387 . S
H587 C583 0.950 . S
H588 C585 0.950 . S
C589 C580 1.390 . S
C589 H582 0.950 . S
C589 C586 1.387 . S
C590 C591 1.387 . S
C590 H594 0.950 . S
C590 C599 1.390 . S
C591 C590 1.387 . S
C591 C593 1.387 . S
H592 C599 0.950 . S
C593 C591 1.387 . S
C593 C595 1.390 . S
C593 H597 0.950 . S
H594 C590 0.950 . S
C595 C593 1.390 . S
C595 C596 1.387 . S
C595 H598 0.950 . S
C596 C595 1.387 . S
C596 C599 1.387 . S
H597 C593 0.950 . S
H598 C595 0.950 . S
C599 C590 1.390 . S
C599 H592 0.950 . S
C599 C596 1.387 . S
C600 C601 1.387 . S
C600 H604 0.950 . S
C600 C609 1.390 . S
C601 C600 1.387 . S
C601 C603 1.387 . S
H602 C609 0.950 . S
C603 C601 1.387 . S
C603 C605 1.390 . S
C603 H607 0.950 . S
H604 C600 0.950 . S
C605 C603 1.390 . S
C605 C606 1.387 . S
C605 H608 0.950 . S
C606 C605 1.387 . S
C606 C609 1.387 . S
H607 C603 0.950 . S
H608 C605 0.950 . S
C609 C600 1.390 . S
C609 H602 0.950 . S
C609 C606 1.387 . S
C610 C611 1.368 1_565 S
C610 H614 0.966 . S
C610 C619 1.394 . S
C611 C610 1.368 1_545 S
C611 C613 1.387 . S
H612 C619 0.950 . S
C613 C611 1.387 . S
C613 C615 1.390 . S
C613 H617 0.950 . S
H614 C610 0.966 . S
C615 C613 1.390 . S
C615 C616 1.387 . S
C615 H618 0.950 . S
C616 C615 1.387 . S
C616 C619 1.387 1_545 S
H617 C613 0.950 . S
H618 C615 0.950 . S
C619 C610 1.394 . S
C619 H612 0.950 . S
C619 C616 1.387 1_565 S
C620 C621 1.387 . S
C620 H624 0.950 . S
C620 C629 1.390 . S
C621 C620 1.387 . S
C621 C623 1.387 . S
H622 C629 0.950 . S
C623 C621 1.387 . S
C623 C625 1.390 . S
C623 H627 0.950 . S
H624 C620 0.950 . S
C625 C623 1.390 . S
C625 C626 1.387 . S
C625 H628 0.950 . S
C626 C625 1.387 . S
C626 C629 1.387 . S
H627 C623 0.950 . S
H628 C625 0.950 . S
C629 C620 1.390 . S
C629 H622 0.950 . S
C629 C626 1.387 . S
C630 C631 1.387 . S
C630 H634 0.950 . S
C630 C639 1.390 . S
C631 C630 1.387 . S
C631 C633 1.387 . S
H632 C639 0.950 . S
C633 C631 1.387 . S
C633 C635 1.390 . S
C633 H637 0.950 . S
H634 C630 0.950 . S
C635 C633 1.390 . S
C635 C636 1.387 . S
C635 H638 0.950 . S
C636 C635 1.387 . S
C636 C639 1.387 . S
H637 C633 0.950 . S
H638 C635 0.950 . S
C639 C630 1.390 . S
C639 H632 0.950 . S
C639 C636 1.387 . S
C640 C641 1.387 . S
C640 H644 0.950 . S
C640 C649 1.390 . S
C641 C640 1.387 . S
C641 C643 1.387 . S
H642 C649 0.950 . S
C643 C641 1.387 . S
C643 C645 1.390 . S
C643 H647 0.950 . S
H644 C640 0.950 . S
C645 C643 1.390 . S
C645 C646 1.387 . S
C645 H648 0.950 . S
C646 C645 1.387 . S
C646 C649 1.387 . S
H647 C643 0.950 . S
H648 C645 0.950 . S
C649 C640 1.390 . S
C649 H642 0.950 . S
C649 C646 1.387 . S
C650 C651 1.387 1_565 S
C650 H654 0.950 . S
C650 C659 1.390 . S
C651 C650 1.387 1_545 S
C651 C653 1.387 . S
H652 C659 0.950 . S
C653 C651 1.387 . S
C653 C655 1.390 . S
C653 H657 0.950 . S
H654 C650 0.950 . S
C655 C653 1.390 . S
C655 C656 1.389 . S
C655 H658 0.950 1_455 S
C656 C655 1.389 . S
C656 C659 1.393 1_545 S
H657 C653 0.950 . S
H658 C655 0.950 1_655 S
C659 C650 1.390 . S
C659 H652 0.950 . S
C659 C656 1.393 1_565 S
C660 C661 1.387 . S
C660 H664 0.950 . S
C660 C669 1.390 . S
C661 C660 1.387 . S
C661 C663 1.387 . S
H662 C669 0.950 . S
C663 C661 1.387 . S
C663 C665 1.390 . S
C663 H667 0.950 . S
H664 C660 0.950 . S
C665 C663 1.390 . S
C665 C666 1.387 . S
C665 H668 0.950 . S
C666 C665 1.387 . S
C666 C669 1.387 . S
H667 C663 0.950 . S
H668 C665 0.950 . S
C669 C660 1.390 . S
C669 H662 0.950 . S
C669 C666 1.387 . S
C670 C671 1.387 . S
C670 H674 0.950 . S
C670 C679 1.390 . S
C671 C670 1.387 . S
C671 C673 1.387 . S
H672 C679 0.950 . S
C673 C671 1.387 . S
C673 C675 1.390 . S
C673 H677 0.950 . S
H674 C670 0.950 . S
C675 C673 1.390 . S
C675 C676 1.387 . S
C675 H678 0.950 . S
C676 C675 1.387 . S
C676 C679 1.387 . S
H677 C673 0.950 . S
H678 C675 0.950 . S
C679 C670 1.390 . S
C679 H672 0.950 . S
C679 C676 1.387 . S
C680 C681 1.387 . S
C680 H684 0.950 . S
C680 C689 1.390 . S
C681 C680 1.387 . S
C681 C683 1.387 . S
H682 C689 0.950 . S
C683 C681 1.387 . S
C683 C685 1.390 . S
C683 H687 0.950 . S
H684 C680 0.950 . S
C685 C683 1.390 . S
C685 C686 1.387 . S
C685 H688 0.950 . S
C686 C685 1.387 . S
C686 C689 1.387 . S
H687 C683 0.950 . S
H688 C685 0.950 . S
C689 C680 1.390 . S
C689 H682 0.950 . S
C689 C686 1.387 . S
C690 C691 1.387 . S
C690 H694 0.950 1_655 S
C690 C699 1.390 1_655 S
C691 C690 1.387 . S
C691 C693 1.387 . S
H692 C699 0.950 . S
C693 C691 1.387 . S
C693 C695 1.390 . S
C693 H697 0.950 . S
H694 C690 0.950 1_455 S
C695 C693 1.390 . S
C695 C696 1.387 . S
C695 H698 0.950 . S
C696 C695 1.387 . S
C696 C699 1.387 1_655 S
H697 C693 0.950 . S
H698 C695 0.950 . S
C699 C690 1.390 1_455 S
C699 H692 0.950 . S
C699 C696 1.387 1_455 S
C700 C701 1.387 . S
C700 H704 0.950 . S
C700 C709 1.390 . S
C701 C700 1.387 . S
C701 C703 1.387 . S
H702 C709 0.950 . S
C703 C701 1.387 . S
C703 C705 1.390 . S
C703 H707 0.950 . S
H704 C700 0.950 . S
C705 C703 1.390 . S
C705 C706 1.387 . S
C705 H708 0.950 . S
C706 C705 1.387 . S
C706 C709 1.387 . S
H707 C703 0.950 . S
H708 C705 0.950 . S
C709 C700 1.390 . S
C709 H702 0.950 . S
C709 C706 1.387 . S
C710 C711 1.387 . S
C710 H714 0.950 1_556 S
C710 C719 1.390 . S
C711 C710 1.387 . S
C711 C713 1.387 . S
H712 C719 0.950 . S
C713 C711 1.387 . S
C713 C715 1.390 . S
C713 H717 0.950 . S
H714 C710 0.950 1_554 S
C715 C713 1.390 . S
C715 C716 1.387 . S
C715 H718 0.950 . S
C716 C715 1.387 . S
C716 C719 1.387 . S
H717 C713 0.950 . S
H718 C715 0.950 . S
C719 C710 1.390 . S
C719 H712 0.950 . S
C719 C716 1.387 . S
C720 C721 1.387 . S
C720 H724 0.950 . S
C720 C729 1.390 . S
C721 C720 1.387 . S
C721 C723 1.387 . S
H722 C729 0.950 . S
C723 C721 1.387 . S
C723 C725 1.390 . S
C723 H727 0.950 . S
H724 C720 0.950 . S
C725 C723 1.390 . S
C725 C726 1.387 . S
C725 H728 0.950 . S
C726 C725 1.387 . S
C726 C729 1.387 . S
H727 C723 0.950 . S
H728 C725 0.950 . S
C729 C720 1.390 . S
C729 H722 0.950 . S
C729 C726 1.387 . S
C730 C731 1.387 . S
C730 H734 0.950 1_554 S
C730 C739 1.390 . S
C731 C730 1.387 . S
C731 C733 1.387 . S
H732 C739 0.950 . S
C733 C731 1.387 . S
C733 C735 1.390 . S
C733 H737 0.950 . S
H734 C730 0.950 1_556 S
C735 C733 1.390 . S
C735 C736 1.387 . S
C735 H738 0.950 . S
C736 C735 1.387 . S
C736 C739 1.387 . S
H737 C733 0.950 . S
H738 C735 0.950 . S
C739 C730 1.390 . S
C739 H732 0.950 . S
C739 C736 1.387 . S
C740 C741 1.387 . S
C740 H744 0.950 . S
C740 C749 1.390 . S
C741 C740 1.387 . S
C741 C743 1.387 . S
H742 C749 0.950 . S
C743 C741 1.387 . S
C743 C745 1.390 . S
C743 H747 0.950 . S
H744 C740 0.950 . S
C745 C743 1.390 . S
C745 C746 1.387 . S
C745 H748 0.950 . S
C746 C745 1.387 . S
C746 C749 1.387 . S
H747 C743 0.950 . S
H748 C745 0.950 . S
C749 C740 1.390 . S
C749 H742 0.950 . S
C749 C746 1.387 . S
C750 C751 1.387 . S
C750 H754 0.950 . S
C750 C759 1.390 . S
C751 C750 1.387 . S
C751 C753 1.387 . S
H752 C759 0.950 . S
C753 C751 1.387 . S
C753 C755 1.390 . S
C753 H757 0.950 1_554 S
H754 C750 0.950 . S
C755 C753 1.390 . S
C755 C756 1.387 . S
C755 H758 0.950 . S
C756 C755 1.387 . S
C756 C759 1.387 . S
H757 C753 0.950 1_556 S
H758 C755 0.950 . S
C759 C750 1.390 . S
C759 H752 0.950 . S
C759 C756 1.387 . S
C760 C761 1.387 . S
C760 H764 0.950 . S
C760 C769 1.390 . S
C761 C760 1.387 . S
C761 C763 1.387 . S
H762 C769 0.950 . S
C763 C761 1.387 . S
C763 C765 1.390 . S
C763 H767 0.950 . S
H764 C760 0.950 . S
C765 C763 1.390 . S
C765 C766 1.387 . S
C765 H768 0.950 . S
C766 C765 1.387 . S
C766 C769 1.387 . S
H767 C763 0.950 . S
H768 C765 0.950 . S
C769 C760 1.390 . S
C769 H762 0.950 . S
C769 C766 1.387 . S
C770 C771 1.387 . S
C770 H774 0.950 . S
C770 C779 1.390 . S
C771 C770 1.387 . S
C771 C773 1.387 . S
H772 C779 0.950 . S
C773 C771 1.387 . S
C773 C775 1.390 . S
C773 H777 0.950 . S
H774 C770 0.950 . S
C775 C773 1.390 . S
C775 C776 1.387 . S
C775 H778 0.950 . S
C776 C775 1.387 . S
C776 C779 1.387 . S
H777 C773 0.950 . S
H778 C775 0.950 . S
C779 C770 1.390 . S
C779 H772 0.950 . S
C779 C776 1.387 . S
C780 C781 1.387 . S
C780 H784 0.950 . S
C780 C789 1.390 . S
C781 C780 1.387 . S
C781 C783 1.387 . S
H782 C789 0.950 . S
C783 C781 1.387 . S
C783 C785 1.390 . S
C783 H787 0.950 . S
H784 C780 0.950 . S
C785 C783 1.390 . S
C785 C786 1.387 . S
C785 H788 0.950 . S
C786 C785 1.387 . S
C786 C789 1.387 . S
H787 C783 0.950 . S
H788 C785 0.950 . S
C789 C780 1.390 . S
C789 H782 0.950 . S
C789 C786 1.387 . S
C790 C791 1.387 . S
C790 H794 0.950 . S
C790 C799 1.390 . S
C791 C790 1.387 . S
C791 C793 1.387 . S
H792 C799 0.950 . S
C793 C791 1.387 . S
C793 C795 1.390 . S
C793 H797 0.950 . S
H794 C790 0.950 . S
C795 C793 1.390 . S
C795 C796 1.387 . S
C795 H798 0.950 . S
C796 C795 1.387 . S
C796 C799 1.387 . S
H797 C793 0.950 . S
H798 C795 0.950 . S
C799 C790 1.390 . S
C799 H792 0.950 . S
C799 C796 1.387 . S
C800 C801 1.387 . S
C800 H804 0.950 . S
C800 C809 1.390 . S
C801 C800 1.387 . S
C801 C803 1.387 1_556 S
H802 C809 0.950 . S
C803 C801 1.387 1_554 S
C803 C805 1.390 . S
C803 H807 0.950 . S
H804 C800 0.950 . S
C805 C803 1.390 . S
C805 C806 1.387 1_554 S
C805 H808 0.950 . S
C806 C805 1.387 1_556 S
C806 C809 1.387 . S
H807 C803 0.950 . S
H808 C805 0.950 . S
C809 C800 1.390 . S
C809 H802 0.950 . S
C809 C806 1.387 . S
C810 C811 1.387 . S
C810 H814 0.950 . S
C810 C819 1.390 . S
C811 C810 1.387 . S
C811 C813 1.387 . S
H812 C819 0.950 . S
C813 C811 1.387 . S
C813 C815 1.390 . S
C813 H817 0.950 . S
H814 C810 0.950 . S
C815 C813 1.390 . S
C815 C816 1.387 . S
C815 H818 0.950 . S
C816 C815 1.387 . S
C816 C819 1.387 . S
H817 C813 0.950 . S
H818 C815 0.950 . S
C819 C810 1.390 . S
C819 H812 0.950 . S
C819 C816 1.387 . S
C820 C821 1.387 . S
C820 H824 0.950 . S
C820 C829 1.390 . S
C821 C820 1.387 . S
C821 C823 1.387 . S
H822 C829 0.950 . S
C823 C821 1.387 . S
C823 C825 1.390 . S
C823 H827 0.950 . S
H824 C820 0.950 . S
C825 C823 1.390 . S
C825 C826 1.387 . S
C825 H828 0.950 1_554 S
C826 C825 1.387 . S
C826 C829 1.387 . S
H827 C823 0.950 . S
H828 C825 0.950 1_556 S
C829 C820 1.390 . S
C829 H822 0.950 . S
C829 C826 1.387 . S
C830 C831 1.387 . S
C830 H834 0.950 1_554 S
C830 C839 1.390 . S
C831 C830 1.387 . S
C831 C833 1.387 . S
H832 C839 0.950 1_556 S
C833 C831 1.387 . S
C833 C835 1.390 . S
C833 H837 0.950 . S
H834 C830 0.950 1_556 S
C835 C833 1.390 . S
C835 C836 1.387 . S
C835 H838 0.950 . S
C836 C835 1.387 . S
C836 C839 1.387 . S
H837 C833 0.950 . S
H838 C835 0.950 . S
C839 C830 1.390 . S
C839 H832 0.950 1_554 S
C839 C836 1.387 . S
C366 C200 1.687 . S
C361 C66 1.745 . S
C376 C213 1.238 . S
C371 C76 1.238 . S
C381 C93 1.887 . S
C386 C233 1.724 . S
C396 C247 1.327 1_465 S
C391 C54 1.435 . S
C406 C259 1.522 . S
C401 C126 1.540 . S
C416 C273 1.724 . S
C411 C150 1.729 . S
C421 C136 1.221 . S
C426 C283 1.226 . S
C436 C298 1.786 . S
C431 C117 1.795 . S
C441 C141 1.326 . S
C446 C312 1.297 . S
C456 C331 1.286 . S
C451 C112 1.335 . S
C461 C124 1.527 . S
C466 C311 1.505 . S
C476 C329 1.315 . S
C471 C148 1.308 . S
C481 C88 1.472 . S
C486 C345 1.408 . S
C491 C52 1.576 . S
C496 C339 1.575 . S
C501 C64 1.337 . S
C506 C343 1.335 . S
C511 C78 1.302 . S
C516 C340 1.271 . S
C521 C45 1.685 . S
C526 C242 1.670 . S
C531 C177 1.773 . S
C536 C241 1.745 . S
C546 C205 1.341 1_556 S
C541 C189 1.378 . S
C556 C219 1.585 . S
C551 C102 1.716 . S
C561 C57 1.685 1_545 S
C566 C256 1.673 . S
C576 C301 1.500 . S
C571 C138 1.501 . S
C586 C255 1.722 . S
C581 C114 1.729 . S
C596 C287 1.632 . S
C591 C153 1.638 . S
C606 C284 1.685 . S
C601 C174 1.744 . S
C611 C184 1.238 . S
C616 C297 1.237 . S
C621 C105 1.888 . S
C626 C261 1.728 . S
C636 C275 1.323 . S
C631 C162 1.436 . S
C641 C42 1.540 . S
C646 C231 1.522 . S
C656 C245 1.716 1_455 S
C651 C6 1.729 . S
C666 C199 1.226 . S
C661 C16 1.220 . S
C676 C214 1.786 . S
C671 C33 1.795 1_455 S
C681 C21 1.326 . S
C686 C326 1.298 . S
C691 C28 1.335 1_556 S
C696 C317 1.288 . S
C701 C40 1.526 . S
C706 C325 1.505 . S
C711 C4 1.309 . S
C716 C315 1.314 . S
C726 C359 1.412 . S
C721 C100 1.474 . S
C736 C353 1.576 . S
C731 C160 1.576 . S
C746 C357 1.336 . S
C741 C172 1.336 . S
C751 C186 1.302 1_554 S
C756 C354 1.271 . S
C761 C129 1.684 . S
C766 C270 1.671 . S
C776 C269 1.745 . S
C771 C69 1.773 . S
C786 C289 1.343 . S
C781 C81 1.377 . S
C796 C303 1.585 . S
C791 C90 1.716 . S
C801 C165 1.686 . S
C806 C228 1.674 . S
C816 C217 1.501 . S
C811 C18 1.501 . S
C821 C30 1.730 . S
C826 C227 1.722 . S
C836 C203 1.633 . S
C831 C9 1.638 1_565 S
