# Generated by pormake.
# Topology ant, (3,6)-cn, num edge types: 1
# Building blocks:
#     Node 0, Type 0, BuildingBlock: BETDAH_clean_linker_0, # of connection points: 3
#     Node 1, Type 0, BuildingBlock: BETDAH_clean_linker_0, # of connection points: 3
#     Node 2, Type 0, BuildingBlock: BETDAH_clean_linker_0, # of connection points: 3
#     Node 3, Type 0, BuildingBlock: BETDAH_clean_linker_0, # of connection points: 3
#     Node 4, Type 0, BuildingBlock: BETDAH_clean_linker_0, # of connection points: 3
#     Node 5, Type 0, BuildingBlock: BETDAH_clean_linker_0, # of connection points: 3
#     Node 6, Type 0, BuildingBlock: BETDAH_clean_linker_0, # of connection points: 3
#     Node 7, Type 0, BuildingBlock: BETDAH_clean_linker_0, # of connection points: 3
#     Node 8, Type 1, BuildingBlock: MIDCAF_clean_sbu_0, # of connection points: 6
#     Node 9, Type 1, BuildingBlock: MIDCAF_clean_sbu_0, # of connection points: 6
#     Node 10, Type 1, BuildingBlock: MIDCAF_clean_sbu_0, # of connection points: 6
#     Node 11, Type 1, BuildingBlock: MIDCAF_clean_sbu_0, # of connection points: 6
#     Edge 12, Type (0, 1), BuildingBlock: OJICUG_clean_linker_0, # of connection points: 2
#     Edge 13, Type (0, 1), BuildingBlock: OJICUG_clean_linker_0, # of connection points: 2
#     Edge 14, Type (0, 1), BuildingBlock: OJICUG_clean_linker_0, # of connection points: 2
#     Edge 15, Type (0, 1), BuildingBlock: OJICUG_clean_linker_0, # of connection points: 2
#     Edge 16, Type (0, 1), BuildingBlock: OJICUG_clean_linker_0, # of connection points: 2
#     Edge 17, Type (0, 1), BuildingBlock: OJICUG_clean_linker_0, # of connection points: 2
#     Edge 18, Type (0, 1), BuildingBlock: OJICUG_clean_linker_0, # of connection points: 2
#     Edge 19, Type (0, 1), BuildingBlock: OJICUG_clean_linker_0, # of connection points: 2
#     Edge 20, Type (0, 1), BuildingBlock: OJICUG_clean_linker_0, # of connection points: 2
#     Edge 21, Type (0, 1), BuildingBlock: OJICUG_clean_linker_0, # of connection points: 2
#     Edge 22, Type (0, 1), BuildingBlock: OJICUG_clean_linker_0, # of connection points: 2
#     Edge 23, Type (0, 1), BuildingBlock: OJICUG_clean_linker_0, # of connection points: 2
#     Edge 24, Type (0, 1), BuildingBlock: OJICUG_clean_linker_0, # of connection points: 2
#     Edge 25, Type (0, 1), BuildingBlock: OJICUG_clean_linker_0, # of connection points: 2
#     Edge 26, Type (0, 1), BuildingBlock: OJICUG_clean_linker_0, # of connection points: 2
#     Edge 27, Type (0, 1), BuildingBlock: OJICUG_clean_linker_0, # of connection points: 2
#     Edge 28, Type (0, 1), BuildingBlock: OJICUG_clean_linker_0, # of connection points: 2
#     Edge 29, Type (0, 1), BuildingBlock: OJICUG_clean_linker_0, # of connection points: 2
#     Edge 30, Type (0, 1), BuildingBlock: OJICUG_clean_linker_0, # of connection points: 2
#     Edge 31, Type (0, 1), BuildingBlock: OJICUG_clean_linker_0, # of connection points: 2
#     Edge 32, Type (0, 1), BuildingBlock: OJICUG_clean_linker_0, # of connection points: 2
#     Edge 33, Type (0, 1), BuildingBlock: OJICUG_clean_linker_0, # of connection points: 2
#     Edge 34, Type (0, 1), BuildingBlock: OJICUG_clean_linker_0, # of connection points: 2
#     Edge 35, Type (0, 1), BuildingBlock: OJICUG_clean_linker_0, # of connection points: 2
# Relax obj value: 0.057
# Max RMSD: 0.148
# Mean RMSD: 0.088
data_MOF--net-ant--node1-MIDCAF_clean_sbu_0--node2-BETDAH_clean_linker_0--edge1-OJICUG_clean_linker_0
_symmetry_space_group_name_H-M    P1
_symmetry_Int_Tables_number       1
_symmetry_cell_setting            triclinic
loop_
_symmetry_equiv_pos_as_xyz
'x, y, z'
_cell_length_a     21.252098
_cell_length_b     20.834475
_cell_length_c     50.452744
_cell_angle_alpha  94.362647
_cell_angle_beta   98.757273
_cell_angle_gamma 89.597573
loop_
_atom_site_label
_atom_site_type_symbol
_atom_site_fract_x
_atom_site_fract_y
_atom_site_fract_z
_atom_type_partial_charge
H0 H 0.16849 0.35903 0.03138 0.0
H1 H 0.23882 0.17269 0.05231 0.0
H2 H 0.29486 0.34006 0.10556 0.0
C3 C 0.19584 0.32914 0.04557 0.0
C4 C 0.23066 0.3583 0.06926 0.0
C5 C 0.19872 0.26217 0.03929 0.0
C6 C 0.23638 0.22398 0.05724 0.0
C7 C 0.2712 0.25218 0.08122 0.0
C8 C 0.26829 0.319 0.08693 0.0
N9 N 0.31019 0.21511 0.09985 0.0
C10 C 0.30681 0.14834 0.09957 0.0
H11 H 0.18355 0.73829 0.27464 0.0
H12 H 0.00209 0.79962 0.29473 0.0
H13 H 0.16662 0.8001 0.35645 0.0
C14 C 0.15473 0.75571 0.28967 0.0
C15 C 0.18303 0.76679 0.31654 0.0
C16 C 0.08987 0.76757 0.28169 0.0
C17 C 0.05223 0.79044 0.30087 0.0
C18 C 0.08029 0.80212 0.32797 0.0
C19 C 0.14565 0.79149 0.33552 0.0
N20 N 0.0446 0.82498 0.34822 0.0
C21 C 0.97993 0.81393 0.34728 0.0
H22 H 0.66944 0.85518 0.531 0.0
H23 H 0.74079 0.66907 0.55175 0.0
H24 H 0.79839 0.83678 0.60454 0.0
C25 C 0.69735 0.82542 0.54508 0.0
C26 C 0.73294 0.85477 0.56856 0.0
C27 C 0.7001 0.75842 0.53886 0.0
C28 C 0.73847 0.72039 0.55663 0.0
C29 C 0.77408 0.74877 0.5804 0.0
C30 C 0.77123 0.81561 0.58607 0.0
N31 N 0.81376 0.71186 0.59886 0.0
C32 C 0.81062 0.64508 0.59863 0.0
H33 H 0.68728 0.23975 0.77436 0.0
H34 H 0.50539 0.30177 0.79373 0.0
H35 H 0.6695 0.30481 0.85574 0.0
C36 C 0.65826 0.25775 0.78922 0.0
C37 C 0.68632 0.26991 0.81607 0.0
C38 C 0.59341 0.26927 0.78105 0.0
C39 C 0.55553 0.29286 0.80002 0.0
C40 C 0.58334 0.30562 0.8271 0.0
C41 C 0.6487 0.29536 0.83483 0.0
N42 N 0.54738 0.32925 0.84714 0.0
C43 C 0.48279 0.31781 0.84626 0.0
H44 H 0.01914 0.55509 0.94742 0.0
H45 H 0.04466 0.76019 0.95295 0.0
H46 H 0.95927 0.66238 0.8782 0.0
C47 C 0.01261 0.60029 0.93806 0.0
C48 C 0.9868 0.60101 0.91069 0.0
C49 C 0.03377 0.65725 0.95327 0.0
C50 C 0.02893 0.71603 0.94113 0.0
C51 C 0.00118 0.71801 0.9141 0.0
C52 C 0.97985 0.66059 0.89915 0.0
N53 N 0.99269 0.77668 0.90135 0.0
C54 C 0.02665 0.83364 0.90952 0.0
H55 H 0.55612 0.81753 0.22134 0.0
H56 H 0.74964 0.82811 0.20751 0.0
H57 H 0.59857 0.8957 0.14939 0.0
C58 C 0.59003 0.8327 0.20901 0.0
C59 C 0.5684 0.85909 0.18443 0.0
C60 C 0.65498 0.82199 0.21741 0.0
C61 C 0.69965 0.83753 0.20113 0.0
C62 C 0.67914 0.86442 0.17652 0.0
C63 C 0.61381 0.87522 0.16841 0.0
N64 N 0.72226 0.88032 0.15907 0.0
C65 C 0.78755 0.86886 0.16301 0.0
H66 H 0.51773 0.05106 0.4472 0.0
H67 H 0.5433 0.25614 0.45248 0.0
H68 H 0.45507 0.15823 0.37821 0.0
C69 C 0.51077 0.09626 0.43786 0.0
C70 C 0.48387 0.09696 0.41062 0.0
C71 C 0.53254 0.15321 0.45292 0.0
C72 C 0.52711 0.21197 0.44076 0.0
C73 C 0.49827 0.21393 0.41388 0.0
C74 C 0.47642 0.15649 0.39906 0.0
N75 N 0.48929 0.27257 0.40114 0.0
C76 C 0.52344 0.3295 0.40912 0.0
H77 H 0.05984 0.31679 0.72058 0.0
H78 H 0.25341 0.32734 0.70682 0.0
H79 H 0.10224 0.39264 0.64816 0.0
C80 C 0.09374 0.33163 0.70818 0.0
C81 C 0.07207 0.35713 0.68341 0.0
C82 C 0.15872 0.32137 0.7167 0.0
C83 C 0.20339 0.33644 0.70034 0.0
C84 C 0.18284 0.36245 0.67554 0.0
C85 C 0.11749 0.37283 0.66733 0.0
N86 N 0.22596 0.37782 0.65801 0.0
C87 C 0.29128 0.36653 0.66203 0.0
Zn88 Zn 0.22919 0.70189 0.15652 0.0
Zn89 Zn 0.0979 0.83494 0.09149 0.0
Zn90 Zn 0.1664 0.76725 0.12245 0.0
C91 C 0.10016 0.71727 0.06349 0.0
C92 C 0.21329 0.89602 0.09931 0.0
O93 O 0.11409 0.76046 0.15725 0.0
O94 O 0.16598 0.6851 0.18001 0.0
C95 C 0.21899 0.62335 0.10976 0.0
O96 O 0.14366 0.70839 0.08361 0.0
O97 O 0.06704 0.76765 0.06327 0.0
O98 O 0.16214 0.89429 0.08294 0.0
O99 O 0.22322 0.85411 0.11704 0.0
O100 O 0.25155 0.62861 0.1329 0.0
O101 O 0.18077 0.66909 0.10201 0.0
O102 O 0.26113 0.81605 0.13544 0.0
O103 O 0.29857 0.76367 0.1709 0.0
C104 C 0.30449 0.80801 0.15577 0.0
O105 O 0.07611 0.79683 0.13889 0.0
O106 O 0.03482 0.87189 0.11298 0.0
C107 C 0.11996 0.72369 0.17691 0.0
C108 C 0.03295 0.83966 0.13299 0.0
Zn109 Zn 0.56035 0.62679 0.3349 0.0
Zn110 Zn 0.63145 0.80095 0.3947 0.0
Zn111 Zn 0.59078 0.71673 0.36904 0.0
C112 C 0.53672 0.85609 0.36829 0.0
C113 C 0.73205 0.77222 0.37435 0.0
O114 O 0.59397 0.62674 0.39093 0.0
O115 O 0.59384 0.55505 0.35644 0.0
C116 C 0.44947 0.70064 0.34185 0.0
O117 O 0.5198 0.79727 0.36982 0.0
O118 O 0.59523 0.86927 0.37172 0.0
O119 O 0.72429 0.79105 0.39797 0.0
O120 O 0.68393 0.74827 0.35793 0.0
O121 O 0.46693 0.64678 0.33216 0.0
O122 O 0.49114 0.73918 0.35561 0.0
O123 O 0.64584 0.72356 0.33494 0.0
O124 O 0.60235 0.64887 0.30441 0.0
C125 C 0.63953 0.69631 0.31079 0.0
O126 O 0.61354 0.68443 0.41011 0.0
O127 O 0.59011 0.78112 0.42601 0.0
C128 C 0.59796 0.56784 0.3815 0.0
C129 C 0.60141 0.72277 0.42992 0.0
Zn130 Zn 0.60173 0.33219 0.59062 0.0
Zn131 Zn 0.73282 0.1987 0.65579 0.0
Zn132 Zn 0.66994 0.26424 0.62161 0.0
C133 C 0.80839 0.30463 0.65467 0.0
C134 C 0.72174 0.11988 0.60903 0.0
O135 O 0.57979 0.29418 0.63805 0.0
O136 O 0.53871 0.36927 0.61211 0.0
C137 C 0.71717 0.39285 0.59834 0.0
O138 O 0.76478 0.31282 0.63444 0.0
O139 O 0.80268 0.26025 0.66981 0.0
O140 O 0.75426 0.12495 0.63218 0.0
O141 O 0.6839 0.16588 0.60125 0.0
O142 O 0.66598 0.39136 0.582 0.0
O143 O 0.72697 0.35089 0.61605 0.0
O144 O 0.6467 0.20504 0.58288 0.0
O145 O 0.57074 0.26491 0.56244 0.0
C146 C 0.60333 0.21417 0.56274 0.0
O147 O 0.61791 0.25811 0.65652 0.0
O148 O 0.66974 0.18308 0.67951 0.0
C149 C 0.53674 0.33709 0.63213 0.0
C150 C 0.62384 0.2218 0.67634 0.0
Zn151 Zn 0.06365 0.13024 0.83517 0.0
Zn152 Zn 0.13526 0.30502 0.89446 0.0
Zn153 Zn 0.09409 0.22063 0.869 0.0
C154 C 0.10458 0.22731 0.92987 0.0
C155 C 0.04036 0.36015 0.8681 0.0
O156 O 0.14914 0.22659 0.83483 0.0
O157 O 0.10554 0.15142 0.80455 0.0
C158 C 0.10108 0.07181 0.88183 0.0
O159 O 0.11639 0.18858 0.91012 0.0
O160 O 0.09423 0.2858 0.92592 0.0
O161 O 0.0989 0.37317 0.87142 0.0
O162 O 0.02334 0.30141 0.86971 0.0
O163 O 0.09697 0.05865 0.85679 0.0
O164 O 0.09711 0.13085 0.8911 0.0
O165 O 0.9945 0.24326 0.85551 0.0
O166 O 0.97029 0.15042 0.83243 0.0
C167 C 0.95282 0.20449 0.8419 0.0
O168 O 0.18728 0.25177 0.85772 0.0
O169 O 0.22807 0.29513 0.89761 0.0
C170 C 0.14282 0.19883 0.81076 0.0
C171 C 0.23554 0.27595 0.874 0.0
C172 C 0.28385 0.46306 0.08775 0.0
C173 C 0.22853 0.42959 0.07555 0.0
H174 H 0.32413 0.55108 0.10739 0.0
C175 C 0.17121 0.46443 0.0706 0.0
H176 H 0.32921 0.43865 0.09112 0.0
C177 C 0.16861 0.52994 0.07948 0.0
C178 C 0.22319 0.56148 0.09359 0.0
H179 H 0.12761 0.44032 0.06121 0.0
H180 H 0.12319 0.55442 0.07702 0.0
C181 C 0.28113 0.52788 0.09674 0.0
C182 C 0.87282 0.76312 0.3356 0.0
C183 C 0.91575 0.80518 0.3522 0.0
H184 H 0.78012 0.71888 0.32963 0.0
C185 C 0.89789 0.83664 0.37531 0.0
H186 H 0.8864 0.73802 0.31774 0.0
C187 C 0.83811 0.82573 0.38215 0.0
C188 C 0.79466 0.7831 0.36594 0.0
H189 H 0.93067 0.86903 0.38841 0.0
H190 H 0.82612 0.85081 0.4003 0.0
C191 C 0.81228 0.75227 0.34239 0.0
C192 C 0.78394 0.53983 0.57435 0.0
C193 C 0.80192 0.57643 0.5987 0.0
H194 H 0.74433 0.45089 0.55525 0.0
C195 C 0.80407 0.5474 0.62304 0.0
H196 H 0.78263 0.56117 0.55535 0.0
C197 C 0.78334 0.4836 0.62303 0.0
C198 C 0.75936 0.44893 0.59866 0.0
H199 H 0.81804 0.57514 0.64206 0.0
H200 H 0.78066 0.46368 0.64205 0.0
C201 C 0.76259 0.47663 0.57432 0.0
C202 C 0.79663 0.29595 0.84084 0.0
C203 C 0.75417 0.2532 0.82422 0.0
H204 H 0.89307 0.31451 0.85944 0.0
C205 C 0.7772 0.19412 0.81446 0.0
H206 H 0.78014 0.34192 0.8486 0.0
C207 C 0.84133 0.17865 0.82052 0.0
C208 C 0.88447 0.22179 0.83654 0.0
H209 H 0.74547 0.15967 0.802 0.0
H210 H 0.85707 0.13276 0.81234 0.0
C211 C 0.86133 0.28044 0.84689 0.0
C212 C 0.95443 0.48386 0.90429 0.0
C213 C 0.97599 0.53903 0.89377 0.0
H214 H 0.9557 0.38077 0.90309 0.0
C215 C 0.99891 0.53171 0.86901 0.0
H216 H 0.93493 0.48793 0.92297 0.0
C217 C 0.00946 0.47035 0.85738 0.0
C218 C 0.99746 0.41537 0.87032 0.0
H219 H 0.01579 0.57285 0.86018 0.0
H220 H 0.03482 0.46618 0.84025 0.0
C221 C 0.96502 0.42234 0.89259 0.0
C222 C 0.88489 0.80253 0.16227 0.0
C223 C 0.85489 0.86278 0.16185 0.0
H224 H 0.96689 0.74791 0.15397 0.0
C225 C 0.8881 0.91649 0.1561 0.0
H226 H 0.85961 0.76038 0.16647 0.0
C227 C 0.94877 0.90946 0.14888 0.0
C228 C 0.97751 0.84857 0.14742 0.0
H229 H 0.86558 0.96332 0.15554 0.0
H230 H 0.97176 0.95117 0.14293 0.0
C231 C 0.94622 0.7955 0.15526 0.0
C232 C 0.60885 0.39618 0.39792 0.0
C233 C 0.55518 0.39128 0.41066 0.0
H234 H 0.66638 0.45806 0.37939 0.0
C235 C 0.52569 0.44773 0.41957 0.0
H236 H 0.63196 0.3532 0.39069 0.0
C237 C 0.54611 0.50821 0.4135 0.0
C238 C 0.59539 0.51246 0.398 0.0
H239 H 0.48369 0.44485 0.42921 0.0
H240 H 0.51881 0.55052 0.41825 0.0
C241 C 0.62873 0.45625 0.39159 0.0
C242 C 0.97604 0.34347 0.64695 0.0
C243 C 0.00199 0.36159 0.67388 0.0
H244 H 0.89233 0.31337 0.61937 0.0
C245 C 0.95973 0.3757 0.69247 0.0
H246 H 0.0068 0.33207 0.63202 0.0
C247 C 0.89448 0.36394 0.68526 0.0
C248 C 0.8696 0.33972 0.65909 0.0
H249 H 0.9775 0.39176 0.71316 0.0
H250 H 0.86405 0.36926 0.70067 0.0
C251 C 0.91027 0.33301 0.63959 0.0
C252 C 0.38866 0.30024 0.66145 0.0
C253 C 0.35864 0.36047 0.66093 0.0
H254 H 0.4707 0.24556 0.65324 0.0
C255 C 0.39183 0.41412 0.65511 0.0
H256 H 0.36339 0.25814 0.6657 0.0
C257 C 0.45251 0.40703 0.64791 0.0
C258 C 0.48127 0.34614 0.64653 0.0
H259 H 0.36928 0.46093 0.65448 0.0
H260 H 0.47549 0.44868 0.6419 0.0
C261 C 0.45 0.29315 0.65446 0.0
C262 C 0.45625 0.87785 0.1937 0.0
C263 C 0.49831 0.86408 0.175 0.0
H264 H 0.36064 0.87148 0.20198 0.0
C265 C 0.47214 0.84676 0.14802 0.0
H266 H 0.47422 0.8933 0.21443 0.0
C267 C 0.4063 0.83668 0.1407 0.0
C268 C 0.36579 0.84297 0.16027 0.0
H269 H 0.50275 0.83567 0.13301 0.0
H270 H 0.38816 0.8176 0.12042 0.0
C271 C 0.39093 0.86648 0.1865 0.0
C272 C 0.40081 0.34115 0.87427 0.0
C273 C 0.41871 0.30897 0.85131 0.0
H274 H 0.32919 0.35586 0.89931 0.0
C275 C 0.37596 0.26614 0.83502 0.0
H276 H 0.43345 0.37413 0.88713 0.0
C277 C 0.31558 0.25527 0.84198 0.0
C278 C 0.29795 0.28682 0.8654 0.0
H279 H 0.38956 0.24048 0.81729 0.0
H280 H 0.28357 0.2213 0.82948 0.0
C281 C 0.34121 0.3302 0.88128 0.0
C282 C 0.27391 0.69125 0.3142 0.0
C283 C 0.2509 0.74984 0.32447 0.0
H284 H 0.35378 0.63012 0.31159 0.0
C285 C 0.29336 0.79189 0.34145 0.0
H286 H 0.24218 0.6573 0.30146 0.0
C287 C 0.35803 0.7762 0.34739 0.0
C288 C 0.38115 0.71806 0.33656 0.0
H289 H 0.27691 0.83747 0.34961 0.0
H290 H 0.38974 0.80973 0.36026 0.0
C291 C 0.33803 0.6756 0.32014 0.0
C292 C 0.67343 0.96086 0.57009 0.0
C293 C 0.73084 0.92609 0.57482 0.0
H294 H 0.62548 0.05082 0.57667 0.0
C295 C 0.78631 0.95966 0.58677 0.0
H296 H 0.6297 0.9367 0.56089 0.0
C297 C 0.78367 0.02449 0.59578 0.0
C298 C 0.72569 0.05802 0.59284 0.0
H299 H 0.83173 0.93533 0.58997 0.0
H300 H 0.8268 0.04777 0.60626 0.0
C301 C 0.67093 0.02639 0.57895 0.0
C302 C 0.27982 0.04313 0.07529 0.0
C303 C 0.29794 0.07971 0.09963 0.0
H304 H 0.24012 0.95421 0.05621 0.0
C305 C 0.30014 0.05067 0.12397 0.0
H306 H 0.27848 0.06445 0.05629 0.0
C307 C 0.27939 0.98688 0.12398 0.0
C308 C 0.25532 0.95222 0.09961 0.0
H309 H 0.31423 0.07839 0.14299 0.0
H310 H 0.2768 0.96694 0.143 0.0
C311 C 0.25844 0.97994 0.07527 0.0
C312 C 0.49486 0.02742 0.36889 0.0
C313 C 0.47249 0.03495 0.39377 0.0
H314 H 0.53031 0.96162 0.34009 0.0
C315 C 0.45121 0.97993 0.40447 0.0
H316 H 0.5115 0.06847 0.35993 0.0
C317 C 0.46161 0.91832 0.39282 0.0
C318 C 0.49362 0.91114 0.37042 0.0
H319 H 0.43218 0.98419 0.42326 0.0
H320 H 0.45259 0.87687 0.40345 0.0
C321 C 0.50524 0.96597 0.35731 0.0
C322 C 0.11235 0.90051 0.89867 0.0
C323 C 0.05828 0.89551 0.91115 0.0
H324 H 0.17018 0.96241 0.8803 0.0
C325 C 0.02832 0.95192 0.91981 0.0
H326 H 0.13581 0.85756 0.89162 0.0
C327 C 0.04871 0.0124 0.91372 0.0
C328 C 0.09844 0.0167 0.89846 0.0
H329 H 0.986 0.94897 0.92923 0.0
H330 H 0.02109 0.05463 0.91825 0.0
C331 C 0.1322 0.96058 0.89232 0.0
C332 C 0.10387 0.25369 0.00318 0.0
C333 C 0.16581 0.23393 0.01292 0.0
H334 H 0.03411 0.26398 0.96851 0.0
C335 C 0.19915 0.19507 0.99572 0.0
H336 H 0.07655 0.28246 0.01613 0.0
C337 C 0.17426 0.18356 0.96839 0.0
C338 C 0.11602 0.21105 0.95808 0.0
H339 H 0.24694 0.17894 0.00272 0.0
H340 H 0.20387 0.15996 0.95493 0.0
C341 C 0.0792 0.24232 0.97601 0.0
C342 C 0.06364 0.80819 0.23648 0.0
C343 C 0.06477 0.75654 0.25287 0.0
H344 H 0.07899 0.83771 0.1982 0.0
C345 C 0.06442 0.69335 0.24109 0.0
H346 H 0.0647 0.85731 0.2453 0.0
C347 C 0.07316 0.68208 0.2143 0.0
C348 C 0.08212 0.73392 0.19901 0.0
H349 H 0.06583 0.65292 0.25347 0.0
H350 H 0.08046 0.63308 0.20656 0.0
C351 C 0.07197 0.79689 0.20953 0.0
C352 C 0.69881 0.69107 0.49524 0.0
C353 C 0.6662 0.72996 0.51271 0.0
H354 H 0.70181 0.65573 0.45434 0.0
C355 C 0.60392 0.74947 0.50343 0.0
H356 H 0.74684 0.67512 0.5019 0.0
C357 C 0.5781 0.73784 0.47638 0.0
C358 C 0.61412 0.70659 0.45814 0.0
H359 H 0.57716 0.77826 0.51659 0.0
H360 H 0.53269 0.75931 0.4692 0.0
C361 C 0.67278 0.67932 0.46805 0.0
C362 C 0.56731 0.30817 0.73552 0.0
C363 C 0.56861 0.25716 0.75224 0.0
H364 H 0.58263 0.33637 0.69704 0.0
C365 C 0.56863 0.19364 0.74085 0.0
H366 H 0.5681 0.35754 0.74404 0.0
C367 C 0.57749 0.18147 0.71411 0.0
C368 C 0.58619 0.23273 0.69848 0.0
H369 H 0.57018 0.15369 0.75349 0.0
H370 H 0.58498 0.13227 0.70667 0.0
C371 C 0.57578 0.29597 0.70862 0.0
C372 C 0.01926 0.63563 -0.0001 0.0
C373 C 0.05874 0.6559 0.98219 0.0
H374 H 0.00297 0.63818 0.04088 0.0
C375 C 0.11927 0.6811 0.99261 0.0
H376 H 0.97236 0.61603 0.99223 0.0
C377 C 0.13775 0.69119 0.02041 0.0
C378 C 0.09527 0.67771 0.03802 0.0
H379 H 0.15057 0.6966 0.97924 0.0
H380 H 0.18213 0.71628 0.02795 0.0
C381 C 0.03708 0.6473 0.02768 0.0
C382 C 0.67217 0.72236 0.24134 0.0
C383 C 0.67354 0.78974 0.24243 0.0
H384 H 0.66189 0.63919 0.26272 0.0
C385 C 0.67749 0.82516 0.26743 0.0
H386 H 0.6684 0.69432 0.22217 0.0
C387 C 0.67434 0.79371 0.29076 0.0
C388 C 0.66567 0.72658 0.28918 0.0
H389 H 0.67775 0.8773 0.26856 0.0
H390 H 0.67224 0.82249 0.30941 0.0
C391 C 0.66824 0.69097 0.26454 0.0
C392 C 0.61952 0.17749 0.49163 0.0
C393 C 0.55887 0.1519 0.48171 0.0
H394 H 0.68354 0.21327 0.5265 0.0
C395 C 0.52055 0.13141 0.49982 0.0
H396 H 0.64995 0.19314 0.47795 0.0
C397 C 0.53956 0.14329 0.52752 0.0
C398 C 0.59778 0.17418 0.53738 0.0
H399 H 0.47358 0.1115 0.49254 0.0
H400 H 0.50625 0.13403 0.54106 0.0
C401 C 0.63918 0.18781 0.51934 0.0
C402 C 0.18095 0.32618 0.76674 0.0
C403 C 0.17729 0.28999 0.74193 0.0
H404 H 0.17531 0.32485 0.80874 0.0
C405 C 0.17613 0.22265 0.74122 0.0
H406 H 0.18105 0.37829 0.76758 0.0
C407 C 0.17205 0.19204 0.76459 0.0
C408 C 0.16916 0.2284 0.78903 0.0
H409 H 0.17258 0.19402 0.72219 0.0
H410 H 0.16584 0.14025 0.76307 0.0
C411 C 0.17767 0.29551 0.79025 0.0
loop_
_geom_bond_atom_site_label_1
_geom_bond_atom_site_label_2
_geom_bond_distance
_geom_bond_site_symmetry_2
_ccdc_geom_bond_type
H0 C3 0.929 . S
H1 C6 0.929 . S
H2 C8 0.930 . S
C3 H0 0.929 . S
C3 C4 1.398 . S
C3 C5 1.396 . S
C4 C3 1.398 . S
C4 C8 1.407 . S
C5 C3 1.396 . S
C5 C6 1.394 . S
C6 H1 0.929 . S
C6 C5 1.394 . S
C6 C7 1.382 . S
C7 C6 1.382 . S
C7 C8 1.392 . S
C7 N9 1.420 . S
C8 H2 0.930 . S
C8 C4 1.407 . S
C8 C7 1.392 . S
N9 C7 1.420 . S
N9 C10 1.244 . S
C10 N9 1.244 . S
H11 C14 0.929 . S
H12 C17 0.929 . S
H13 C19 0.930 . S
C14 H11 0.929 . S
C14 C15 1.398 . S
C14 C16 1.396 . S
C15 C14 1.398 . S
C15 C19 1.407 . S
C16 C14 1.396 . S
C16 C17 1.394 . S
C17 H12 0.929 . S
C17 C16 1.394 . S
C17 C18 1.382 . S
C18 C17 1.382 . S
C18 C19 1.392 . S
C18 N20 1.420 . S
C19 H13 0.930 . S
C19 C15 1.407 . S
C19 C18 1.392 . S
N20 C18 1.420 . S
N20 C21 1.244 1_455 S
C21 N20 1.244 1_655 S
H22 C25 0.929 . S
H23 C28 0.929 . S
H24 C30 0.930 . S
C25 H22 0.929 . S
C25 C26 1.398 . S
C25 C27 1.396 . S
C26 C25 1.398 . S
C26 C30 1.407 . S
C27 C25 1.396 . S
C27 C28 1.394 . S
C28 H23 0.929 . S
C28 C27 1.394 . S
C28 C29 1.382 . S
C29 C28 1.382 . S
C29 C30 1.392 . S
C29 N31 1.420 . S
C30 H24 0.930 . S
C30 C26 1.407 . S
C30 C29 1.392 . S
N31 C29 1.420 . S
N31 C32 1.244 . S
C32 N31 1.244 . S
H33 C36 0.929 . S
H34 C39 0.929 . S
H35 C41 0.930 . S
C36 H33 0.929 . S
C36 C37 1.398 . S
C36 C38 1.396 . S
C37 C36 1.398 . S
C37 C41 1.407 . S
C38 C36 1.396 . S
C38 C39 1.394 . S
C39 H34 0.929 . S
C39 C38 1.394 . S
C39 C40 1.382 . S
C40 C39 1.382 . S
C40 C41 1.392 . S
C40 N42 1.420 . S
C41 H35 0.930 . S
C41 C37 1.407 . S
C41 C40 1.392 . S
N42 C40 1.420 . S
N42 C43 1.244 . S
C43 N42 1.244 . S
H44 C47 0.929 . S
H45 C50 0.929 . S
H46 C52 0.930 . S
C47 H44 0.929 . S
C47 C48 1.398 . S
C47 C49 1.396 . S
C48 C47 1.398 . S
C48 C52 1.407 . S
C49 C47 1.396 . S
C49 C50 1.394 . S
C50 H45 0.929 . S
C50 C49 1.394 . S
C50 C51 1.382 . S
C51 C50 1.382 . S
C51 C52 1.392 . S
C51 N53 1.420 . S
C52 H46 0.930 . S
C52 C48 1.407 . S
C52 C51 1.392 . S
N53 C51 1.420 . S
N53 C54 1.244 . S
C54 N53 1.244 . S
H55 C58 0.929 . S
H56 C61 0.929 . S
H57 C63 0.930 . S
C58 H55 0.929 . S
C58 C59 1.398 . S
C58 C60 1.396 . S
C59 C58 1.398 . S
C59 C63 1.407 . S
C60 C58 1.396 . S
C60 C61 1.394 . S
C61 H56 0.929 . S
C61 C60 1.394 . S
C61 C62 1.382 . S
C62 C61 1.382 . S
C62 C63 1.392 . S
C62 N64 1.420 . S
C63 H57 0.930 . S
C63 C59 1.407 . S
C63 C62 1.392 . S
N64 C62 1.420 . S
N64 C65 1.244 . S
C65 N64 1.244 . S
H66 C69 0.929 . S
H67 C72 0.929 . S
H68 C74 0.930 . S
C69 H66 0.929 . S
C69 C70 1.398 . S
C69 C71 1.396 . S
C70 C69 1.398 . S
C70 C74 1.407 . S
C71 C69 1.396 . S
C71 C72 1.394 . S
C72 H67 0.929 . S
C72 C71 1.394 . S
C72 C73 1.382 . S
C73 C72 1.382 . S
C73 C74 1.392 . S
C73 N75 1.420 . S
C74 H68 0.930 . S
C74 C70 1.407 . S
C74 C73 1.392 . S
N75 C73 1.420 . S
N75 C76 1.244 . S
C76 N75 1.244 . S
H77 C80 0.929 . S
H78 C83 0.929 . S
H79 C85 0.930 . S
C80 H77 0.929 . S
C80 C81 1.398 . S
C80 C82 1.396 . S
C81 C80 1.398 . S
C81 C85 1.407 . S
C82 C80 1.396 . S
C82 C83 1.394 . S
C83 H78 0.929 . S
C83 C82 1.394 . S
C83 C84 1.382 . S
C84 C83 1.382 . S
C84 C85 1.392 . S
C84 N86 1.420 . S
C85 H79 0.930 . S
C85 C81 1.407 . S
C85 C84 1.392 . S
N86 C84 1.420 . S
N86 C87 1.244 . S
C87 N86 1.244 . S
Zn88 O94 1.920 . S
Zn88 O100 1.898 . S
Zn88 O103 1.905 . S
Zn89 O97 1.905 . S
Zn89 O98 1.898 . S
Zn89 O106 1.920 1_455 S
Zn90 O93 2.080 . S
Zn90 O96 2.114 . S
Zn90 O99 2.120 . S
Zn90 O101 2.120 . S
Zn90 O102 2.114 . S
Zn90 O105 2.080 . S
C91 O96 1.166 . S
C91 O97 1.182 . S
C92 O98 1.167 . S
C92 O99 1.299 . S
O93 Zn90 2.080 . S
O93 C107 1.305 . S
O94 Zn88 1.920 . S
O94 C107 1.234 . S
C95 O100 1.167 . S
C95 O101 1.299 . S
O96 Zn90 2.114 . S
O96 C91 1.166 . S
O97 Zn89 1.905 . S
O97 C91 1.182 . S
O98 Zn89 1.898 . S
O98 C92 1.167 . S
O99 Zn90 2.120 . S
O99 C92 1.299 . S
O100 Zn88 1.898 . S
O100 C95 1.167 . S
O101 Zn90 2.120 . S
O101 C95 1.299 . S
O102 Zn90 2.114 . S
O102 C104 1.166 . S
O103 Zn88 1.905 . S
O103 C104 1.182 . S
C104 O102 1.166 . S
C104 O103 1.182 . S
O105 Zn90 2.080 . S
O105 C108 1.305 . S
O106 Zn89 1.920 1_655 S
O106 C108 1.234 1_655 S
C107 O93 1.305 . S
C107 O94 1.234 . S
C108 O105 1.305 . S
C108 O106 1.234 1_455 S
Zn109 O115 1.920 . S
Zn109 O121 1.898 . S
Zn109 O124 1.905 . S
Zn110 O118 1.905 . S
Zn110 O119 1.898 . S
Zn110 O127 1.920 . S
Zn111 O114 2.080 . S
Zn111 O117 2.114 . S
Zn111 O120 2.120 . S
Zn111 O122 2.120 . S
Zn111 O123 2.114 . S
Zn111 O126 2.080 . S
C112 O117 1.166 . S
C112 O118 1.182 . S
C113 O119 1.167 . S
C113 O120 1.299 . S
O114 Zn111 2.080 . S
O114 C128 1.305 . S
O115 Zn109 1.920 . S
O115 C128 1.234 . S
C116 O121 1.167 . S
C116 O122 1.299 . S
O117 Zn111 2.114 . S
O117 C112 1.166 . S
O118 Zn110 1.905 . S
O118 C112 1.182 . S
O119 Zn110 1.898 . S
O119 C113 1.167 . S
O120 Zn111 2.120 . S
O120 C113 1.299 . S
O121 Zn109 1.898 . S
O121 C116 1.167 . S
O122 Zn111 2.120 . S
O122 C116 1.299 . S
O123 Zn111 2.114 . S
O123 C125 1.166 . S
O124 Zn109 1.905 . S
O124 C125 1.182 . S
C125 O123 1.166 . S
C125 O124 1.182 . S
O126 Zn111 2.080 . S
O126 C129 1.305 . S
O127 Zn110 1.920 . S
O127 C129 1.234 . S
C128 O114 1.305 . S
C128 O115 1.234 . S
C129 O126 1.305 . S
C129 O127 1.234 . S
Zn130 O136 1.920 . S
Zn130 O142 1.898 . S
Zn130 O145 1.905 . S
Zn131 O139 1.905 . S
Zn131 O140 1.898 . S
Zn131 O148 1.920 . S
Zn132 O135 2.080 . S
Zn132 O138 2.114 . S
Zn132 O141 2.120 . S
Zn132 O143 2.120 . S
Zn132 O144 2.114 . S
Zn132 O147 2.080 . S
C133 O138 1.166 . S
C133 O139 1.182 . S
C134 O140 1.167 . S
C134 O141 1.299 . S
O135 Zn132 2.080 . S
O135 C149 1.305 . S
O136 Zn130 1.920 . S
O136 C149 1.234 . S
C137 O142 1.167 . S
C137 O143 1.299 . S
O138 Zn132 2.114 . S
O138 C133 1.166 . S
O139 Zn131 1.905 . S
O139 C133 1.182 . S
O140 Zn131 1.898 . S
O140 C134 1.167 . S
O141 Zn132 2.120 . S
O141 C134 1.299 . S
O142 Zn130 1.898 . S
O142 C137 1.167 . S
O143 Zn132 2.120 . S
O143 C137 1.299 . S
O144 Zn132 2.114 . S
O144 C146 1.166 . S
O145 Zn130 1.905 . S
O145 C146 1.182 . S
C146 O144 1.166 . S
C146 O145 1.182 . S
O147 Zn132 2.080 . S
O147 C150 1.305 . S
O148 Zn131 1.920 . S
O148 C150 1.234 . S
C149 O135 1.305 . S
C149 O136 1.234 . S
C150 O147 1.305 . S
C150 O148 1.234 . S
Zn151 O157 1.920 1_655 S
Zn151 O163 1.898 1_655 S
Zn151 O166 1.905 . S
Zn152 O160 1.905 . S
Zn152 O161 1.898 . S
Zn152 O169 1.920 . S
Zn153 O156 2.080 . S
Zn153 O159 2.114 . S
Zn153 O162 2.120 . S
Zn153 O164 2.120 . S
Zn153 O165 2.114 . S
Zn153 O168 2.080 . S
C154 O159 1.166 . S
C154 O160 1.182 . S
C155 O161 1.167 . S
C155 O162 1.299 . S
O156 Zn153 2.080 . S
O156 C170 1.305 . S
O157 Zn151 1.920 1_455 S
O157 C170 1.234 . S
C158 O163 1.167 . S
C158 O164 1.299 . S
O159 Zn153 2.114 . S
O159 C154 1.166 . S
O160 Zn152 1.905 . S
O160 C154 1.182 . S
O161 Zn152 1.898 . S
O161 C155 1.167 . S
O162 Zn153 2.120 . S
O162 C155 1.299 . S
O163 Zn151 1.898 1_455 S
O163 C158 1.167 . S
O164 Zn153 2.120 . S
O164 C158 1.299 . S
O165 Zn153 2.114 . S
O165 C167 1.166 1_455 S
O166 Zn151 1.905 . S
O166 C167 1.182 . S
C167 O165 1.166 1_655 S
C167 O166 1.182 . S
O168 Zn153 2.080 . S
O168 C171 1.305 . S
O169 Zn152 1.920 . S
O169 C171 1.234 . S
C170 O156 1.305 . S
C170 O157 1.234 . S
C171 O168 1.305 . S
C171 O169 1.234 . S
C172 C173 1.387 . S
C172 H176 0.950 . S
C172 C181 1.390 . S
C173 C172 1.387 . S
C173 C175 1.387 . S
H174 C181 0.950 . S
C175 C173 1.387 . S
C175 C177 1.390 . S
C175 H179 0.950 . S
H176 C172 0.950 . S
C177 C175 1.390 . S
C177 C178 1.387 . S
C177 H180 0.950 . S
C178 C177 1.387 . S
C178 C181 1.387 . S
H179 C175 0.950 . S
H180 C177 0.950 . S
C181 C172 1.390 . S
C181 H174 0.950 . S
C181 C178 1.387 . S
C182 C183 1.387 . S
C182 H186 0.950 . S
C182 C191 1.390 . S
C183 C182 1.387 . S
C183 C185 1.387 . S
H184 C191 0.950 . S
C185 C183 1.387 . S
C185 C187 1.390 . S
C185 H189 0.950 . S
H186 C182 0.950 . S
C187 C185 1.390 . S
C187 C188 1.387 . S
C187 H190 0.950 . S
C188 C187 1.387 . S
C188 C191 1.387 . S
H189 C185 0.950 . S
H190 C187 0.950 . S
C191 C182 1.390 . S
C191 H184 0.950 . S
C191 C188 1.387 . S
C192 C193 1.387 . S
C192 H196 0.950 . S
C192 C201 1.390 . S
C193 C192 1.387 . S
C193 C195 1.387 . S
H194 C201 0.950 . S
C195 C193 1.387 . S
C195 C197 1.390 . S
C195 H199 0.950 . S
H196 C192 0.950 . S
C197 C195 1.390 . S
C197 C198 1.387 . S
C197 H200 0.950 . S
C198 C197 1.387 . S
C198 C201 1.387 . S
H199 C195 0.950 . S
H200 C197 0.950 . S
C201 C192 1.390 . S
C201 H194 0.950 . S
C201 C198 1.387 . S
C202 C203 1.387 . S
C202 H206 0.950 . S
C202 C211 1.390 . S
C203 C202 1.387 . S
C203 C205 1.387 . S
H204 C211 0.950 . S
C205 C203 1.387 . S
C205 C207 1.390 . S
C205 H209 0.950 . S
H206 C202 0.950 . S
C207 C205 1.390 . S
C207 C208 1.387 . S
C207 H210 0.950 . S
C208 C207 1.387 . S
C208 C211 1.387 . S
H209 C205 0.950 . S
H210 C207 0.950 . S
C211 C202 1.390 . S
C211 H204 0.950 . S
C211 C208 1.387 . S
C212 C213 1.387 . S
C212 H216 0.950 . S
C212 C221 1.390 . S
C213 C212 1.387 . S
C213 C215 1.387 . S
H214 C221 0.950 . S
C215 C213 1.387 . S
C215 C217 1.390 . S
C215 H219 0.950 . S
H216 C212 0.950 . S
C217 C215 1.390 . S
C217 C218 1.387 . S
C217 H220 0.950 . S
C218 C217 1.387 . S
C218 C221 1.387 . S
H219 C215 0.950 . S
H220 C217 0.950 . S
C221 C212 1.390 . S
C221 H214 0.950 . S
C221 C218 1.387 . S
C222 C223 1.387 . S
C222 H226 0.950 . S
C222 C231 1.390 . S
C223 C222 1.387 . S
C223 C225 1.387 . S
H224 C231 0.950 . S
C225 C223 1.387 . S
C225 C227 1.390 . S
C225 H229 0.950 . S
H226 C222 0.950 . S
C227 C225 1.390 . S
C227 C228 1.387 . S
C227 H230 0.950 . S
C228 C227 1.387 . S
C228 C231 1.387 . S
H229 C225 0.950 . S
H230 C227 0.950 . S
C231 C222 1.390 . S
C231 H224 0.950 . S
C231 C228 1.387 . S
C232 C233 1.387 . S
C232 H236 0.950 . S
C232 C241 1.390 . S
C233 C232 1.387 . S
C233 C235 1.387 . S
H234 C241 0.950 . S
C235 C233 1.387 . S
C235 C237 1.390 . S
C235 H239 0.950 . S
H236 C232 0.950 . S
C237 C235 1.390 . S
C237 C238 1.387 . S
C237 H240 0.950 . S
C238 C237 1.387 . S
C238 C241 1.387 . S
H239 C235 0.950 . S
H240 C237 0.950 . S
C241 C232 1.390 . S
C241 H234 0.950 . S
C241 C238 1.387 . S
C242 C243 1.387 . S
C242 H246 0.950 . S
C242 C251 1.390 . S
C243 C242 1.387 . S
C243 C245 1.387 . S
H244 C251 0.950 . S
C245 C243 1.387 . S
C245 C247 1.390 . S
C245 H249 0.950 . S
H246 C242 0.950 . S
C247 C245 1.390 . S
C247 C248 1.387 . S
C247 H250 0.950 . S
C248 C247 1.387 . S
C248 C251 1.387 . S
H249 C245 0.950 . S
H250 C247 0.950 . S
C251 C242 1.390 . S
C251 H244 0.950 . S
C251 C248 1.387 . S
C252 C253 1.387 . S
C252 H256 0.950 . S
C252 C261 1.390 . S
C253 C252 1.387 . S
C253 C255 1.387 . S
H254 C261 0.950 . S
C255 C253 1.387 . S
C255 C257 1.390 . S
C255 H259 0.950 . S
H256 C252 0.950 . S
C257 C255 1.390 . S
C257 C258 1.387 . S
C257 H260 0.950 . S
C258 C257 1.387 . S
C258 C261 1.387 . S
H259 C255 0.950 . S
H260 C257 0.950 . S
C261 C252 1.390 . S
C261 H254 0.950 . S
C261 C258 1.387 . S
C262 C263 1.387 . S
C262 H266 0.950 . S
C262 C271 1.390 . S
C263 C262 1.387 . S
C263 C265 1.387 . S
H264 C271 0.950 . S
C265 C263 1.387 . S
C265 C267 1.390 . S
C265 H269 0.950 . S
H266 C262 0.950 . S
C267 C265 1.390 . S
C267 C268 1.387 . S
C267 H270 0.950 . S
C268 C267 1.387 . S
C268 C271 1.387 . S
H269 C265 0.950 . S
H270 C267 0.950 . S
C271 C262 1.390 . S
C271 H264 0.950 . S
C271 C268 1.387 . S
C272 C273 1.387 . S
C272 H276 0.950 . S
C272 C281 1.390 . S
C273 C272 1.387 . S
C273 C275 1.387 . S
H274 C281 0.950 . S
C275 C273 1.387 . S
C275 C277 1.390 . S
C275 H279 0.950 . S
H276 C272 0.950 . S
C277 C275 1.390 . S
C277 C278 1.387 . S
C277 H280 0.950 . S
C278 C277 1.387 . S
C278 C281 1.387 . S
H279 C275 0.950 . S
H280 C277 0.950 . S
C281 C272 1.390 . S
C281 H274 0.950 . S
C281 C278 1.387 . S
C282 C283 1.387 . S
C282 H286 0.950 . S
C282 C291 1.390 . S
C283 C282 1.387 . S
C283 C285 1.387 . S
H284 C291 0.950 . S
C285 C283 1.387 . S
C285 C287 1.390 . S
C285 H289 0.950 . S
H286 C282 0.950 . S
C287 C285 1.390 . S
C287 C288 1.387 . S
C287 H290 0.950 . S
C288 C287 1.387 . S
C288 C291 1.387 . S
H289 C285 0.950 . S
H290 C287 0.950 . S
C291 C282 1.390 . S
C291 H284 0.950 . S
C291 C288 1.387 . S
C292 C293 1.387 . S
C292 H296 0.950 . S
C292 C301 1.390 . S
C293 C292 1.387 . S
C293 C295 1.387 . S
H294 C301 0.950 1_545 S
C295 C293 1.387 . S
C295 C297 1.390 . S
C295 H299 0.950 . S
H296 C292 0.950 . S
C297 C295 1.390 . S
C297 C298 1.387 1_565 S
C297 H300 0.950 . S
C298 C297 1.387 1_545 S
C298 C301 1.387 1_545 S
H299 C295 0.950 . S
H300 C297 0.950 . S
C301 C292 1.390 . S
C301 H294 0.950 1_565 S
C301 C298 1.387 1_565 S
C302 C303 1.387 . S
C302 H306 0.950 . S
C302 C311 1.390 1_545 S
C303 C302 1.387 . S
C303 C305 1.387 1_545 S
H304 C311 0.950 . S
C305 C303 1.387 1_565 S
C305 C307 1.390 . S
C305 H309 0.950 1_565 S
H306 C302 0.950 . S
C307 C305 1.390 . S
C307 C308 1.387 . S
C307 H310 0.950 . S
C308 C307 1.387 . S
C308 C311 1.387 . S
H309 C305 0.950 1_545 S
H310 C307 0.950 . S
C311 C302 1.390 1_565 S
C311 H304 0.950 . S
C311 C308 1.387 . S
C312 C313 1.387 . S
C312 H316 0.950 . S
C312 C321 1.390 . S
C313 C312 1.387 . S
C313 C315 1.387 . S
H314 C321 0.950 1_565 S
C315 C313 1.387 . S
C315 C317 1.390 1_545 S
C315 H319 0.950 . S
H316 C312 0.950 . S
C317 C315 1.390 1_565 S
C317 C318 1.387 . S
C317 H320 0.950 . S
C318 C317 1.387 . S
C318 C321 1.387 1_565 S
H319 C315 0.950 . S
H320 C317 0.950 . S
C321 C312 1.390 . S
C321 H314 0.950 1_545 S
C321 C318 1.387 1_545 S
C322 C323 1.387 . S
C322 H326 0.950 . S
C322 C331 1.390 1_565 S
C323 C322 1.387 . S
C323 C325 1.387 . S
H324 C331 0.950 . S
C325 C323 1.387 . S
C325 C327 1.390 1_565 S
C325 H329 0.950 1_455 S
H326 C322 0.950 . S
C327 C325 1.390 1_545 S
C327 C328 1.387 . S
C327 H330 0.950 1_455 S
C328 C327 1.387 . S
C328 C331 1.387 . S
H329 C325 0.950 1_655 S
H330 C327 0.950 1_655 S
C331 C322 1.390 1_545 S
C331 H324 0.950 . S
C331 C328 1.387 . S
C332 C333 1.387 . S
C332 H336 0.950 . S
C332 C341 1.390 1_554 S
C333 C332 1.387 . S
C333 C335 1.387 1_554 S
H334 C341 0.950 . S
C335 C333 1.387 1_556 S
C335 C337 1.390 . S
C335 H339 0.950 1_556 S
H336 C332 0.950 . S
C337 C335 1.390 . S
C337 C338 1.387 . S
C337 H340 0.950 . S
C338 C337 1.387 . S
C338 C341 1.387 . S
H339 C335 0.950 1_554 S
H340 C337 0.950 . S
C341 C332 1.390 1_556 S
C341 H334 0.950 . S
C341 C338 1.387 . S
C342 C343 1.387 . S
C342 H346 0.950 . S
C342 C351 1.390 . S
C343 C342 1.387 . S
C343 C345 1.387 . S
H344 C351 0.950 . S
C345 C343 1.387 . S
C345 C347 1.390 . S
C345 H349 0.950 . S
H346 C342 0.950 . S
C347 C345 1.390 . S
C347 C348 1.387 . S
C347 H350 0.950 . S
C348 C347 1.387 . S
C348 C351 1.387 . S
H349 C345 0.950 . S
H350 C347 0.950 . S
C351 C342 1.390 . S
C351 H344 0.950 . S
C351 C348 1.387 . S
C352 C353 1.387 . S
C352 H356 0.950 . S
C352 C361 1.390 . S
C353 C352 1.387 . S
C353 C355 1.387 . S
H354 C361 0.950 . S
C355 C353 1.387 . S
C355 C357 1.390 . S
C355 H359 0.950 . S
H356 C352 0.950 . S
C357 C355 1.390 . S
C357 C358 1.387 . S
C357 H360 0.950 . S
C358 C357 1.387 . S
C358 C361 1.387 . S
H359 C355 0.950 . S
H360 C357 0.950 . S
C361 C352 1.390 . S
C361 H354 0.950 . S
C361 C358 1.387 . S
C362 C363 1.387 . S
C362 H366 0.950 . S
C362 C371 1.390 . S
C363 C362 1.387 . S
C363 C365 1.387 . S
H364 C371 0.950 . S
C365 C363 1.387 . S
C365 C367 1.390 . S
C365 H369 0.950 . S
H366 C362 0.950 . S
C367 C365 1.390 . S
C367 C368 1.387 . S
C367 H370 0.950 . S
C368 C367 1.387 . S
C368 C371 1.387 . S
H369 C365 0.950 . S
H370 C367 0.950 . S
C371 C362 1.390 . S
C371 H364 0.950 . S
C371 C368 1.387 . S
C372 C373 1.387 1_554 S
C372 H376 0.950 1_554 S
C372 C381 1.390 . S
C373 C372 1.387 1_556 S
C373 C375 1.387 . S
H374 C381 0.950 . S
C375 C373 1.387 . S
C375 C377 1.390 1_556 S
C375 H379 0.950 . S
H376 C372 0.950 1_556 S
C377 C375 1.390 1_554 S
C377 C378 1.387 . S
C377 H380 0.950 . S
C378 C377 1.387 . S
C378 C381 1.387 . S
H379 C375 0.950 . S
H380 C377 0.950 . S
C381 C372 1.390 . S
C381 H374 0.950 . S
C381 C378 1.387 . S
C382 C383 1.387 . S
C382 H386 0.950 . S
C382 C391 1.390 . S
C383 C382 1.387 . S
C383 C385 1.387 . S
H384 C391 0.950 . S
C385 C383 1.387 . S
C385 C387 1.390 . S
C385 H389 0.950 . S
H386 C382 0.950 . S
C387 C385 1.390 . S
C387 C388 1.387 . S
C387 H390 0.950 . S
C388 C387 1.387 . S
C388 C391 1.387 . S
H389 C385 0.950 . S
H390 C387 0.950 . S
C391 C382 1.390 . S
C391 H384 0.950 . S
C391 C388 1.387 . S
C392 C393 1.387 . S
C392 H396 0.950 . S
C392 C401 1.390 . S
C393 C392 1.387 . S
C393 C395 1.387 . S
H394 C401 0.950 . S
C395 C393 1.387 . S
C395 C397 1.390 . S
C395 H399 0.950 . S
H396 C392 0.950 . S
C397 C395 1.390 . S
C397 C398 1.387 . S
C397 H400 0.950 . S
C398 C397 1.387 . S
C398 C401 1.387 . S
H399 C395 0.950 . S
H400 C397 0.950 . S
C401 C392 1.390 . S
C401 H394 0.950 . S
C401 C398 1.387 . S
C402 C403 1.387 . S
C402 H406 0.950 . S
C402 C411 1.390 . S
C403 C402 1.387 . S
C403 C405 1.387 . S
H404 C411 0.950 . S
C405 C403 1.387 . S
C405 C407 1.390 . S
C405 H409 0.950 . S
H406 C402 0.950 . S
C407 C405 1.390 . S
C407 C408 1.387 . S
C407 H410 0.950 . S
C408 C407 1.387 . S
C408 C411 1.387 . S
H409 C405 0.950 . S
H410 C407 0.950 . S
C411 C402 1.390 . S
C411 H404 0.950 . S
C411 C408 1.387 . S
C178 C95 1.403 . S
C173 C4 1.542 . S
C188 C113 1.382 . S
C183 C21 1.461 . S
C193 C32 1.429 . S
C198 C137 1.339 . S
C208 C167 1.291 . S
C203 C37 1.440 . S
C218 C155 1.296 . S
C213 C48 1.381 . S
C223 C65 1.477 . S
C228 C108 1.403 1_655 S
C233 C76 1.583 . S
C238 C128 1.476 . S
C243 C81 1.439 1_655 S
C248 C133 1.310 . S
C253 C87 1.471 . S
C258 C149 1.396 . S
C263 C59 1.442 . S
C268 C104 1.309 . S
C278 C171 1.405 . S
C273 C43 1.475 . S
C288 C116 1.275 . S
C283 C15 1.435 . S
C293 C26 1.538 . S
C298 C134 1.400 . S
C303 C10 1.439 . S
C308 C92 1.340 . S
C318 C112 1.296 . S
C313 C70 1.383 . S
C328 C158 1.463 . S
C323 C54 1.579 . S
C338 C154 1.367 . S
C333 C5 1.526 . S
C348 C107 1.497 . S
C343 C16 1.536 . S
C353 C27 1.511 . S
C358 C129 1.349 . S
C363 C38 1.551 . S
C368 C150 1.506 . S
C378 C91 1.327 . S
C373 C49 1.575 . S
C383 C60 1.519 . S
C388 C125 1.469 . S
C398 C146 1.343 . S
C393 C71 1.591 . S
C408 C170 1.444 . S
C403 C82 1.500 . S
