# Generated by pormake.
# Topology apo, (3,6)-cn, num edge types: 1
# Building blocks:
#     Node 0, Type 0, BuildingBlock: QEWDON_clean_linker_0, # of connection points: 3
#     Node 1, Type 0, BuildingBlock: QEWDON_clean_linker_0, # of connection points: 3
#     Node 2, Type 0, BuildingBlock: QEWDON_clean_linker_0, # of connection points: 3
#     Node 3, Type 0, BuildingBlock: QEWDON_clean_linker_0, # of connection points: 3
#     Node 4, Type 0, BuildingBlock: QEWDON_clean_linker_0, # of connection points: 3
#     Node 5, Type 0, BuildingBlock: QEWDON_clean_linker_0, # of connection points: 3
#     Node 6, Type 0, BuildingBlock: QEWDON_clean_linker_0, # of connection points: 3
#     Node 7, Type 0, BuildingBlock: QEWDON_clean_linker_0, # of connection points: 3
#     Node 8, Type 1, BuildingBlock: KUMBOL_clean_sbu_1, # of connection points: 6
#     Node 9, Type 1, BuildingBlock: KUMBOL_clean_sbu_1, # of connection points: 6
#     Node 10, Type 1, BuildingBlock: KUMBOL_clean_sbu_1, # of connection points: 6
#     Node 11, Type 1, BuildingBlock: KUMBOL_clean_sbu_1, # of connection points: 6
#     Edge 12, Type (0, 1), BuildingBlock: CIFDUS_clean_linker_0, # of connection points: 2
#     Edge 13, Type (0, 1), BuildingBlock: CIFDUS_clean_linker_0, # of connection points: 2
#     Edge 14, Type (0, 1), BuildingBlock: CIFDUS_clean_linker_0, # of connection points: 2
#     Edge 15, Type (0, 1), BuildingBlock: CIFDUS_clean_linker_0, # of connection points: 2
#     Edge 16, Type (0, 1), BuildingBlock: CIFDUS_clean_linker_0, # of connection points: 2
#     Edge 17, Type (0, 1), BuildingBlock: CIFDUS_clean_linker_0, # of connection points: 2
#     Edge 18, Type (0, 1), BuildingBlock: CIFDUS_clean_linker_0, # of connection points: 2
#     Edge 19, Type (0, 1), BuildingBlock: CIFDUS_clean_linker_0, # of connection points: 2
#     Edge 20, Type (0, 1), BuildingBlock: CIFDUS_clean_linker_0, # of connection points: 2
#     Edge 21, Type (0, 1), BuildingBlock: CIFDUS_clean_linker_0, # of connection points: 2
#     Edge 22, Type (0, 1), BuildingBlock: CIFDUS_clean_linker_0, # of connection points: 2
#     Edge 23, Type (0, 1), BuildingBlock: CIFDUS_clean_linker_0, # of connection points: 2
#     Edge 24, Type (0, 1), BuildingBlock: CIFDUS_clean_linker_0, # of connection points: 2
#     Edge 25, Type (0, 1), BuildingBlock: CIFDUS_clean_linker_0, # of connection points: 2
#     Edge 26, Type (0, 1), BuildingBlock: CIFDUS_clean_linker_0, # of connection points: 2
#     Edge 27, Type (0, 1), BuildingBlock: CIFDUS_clean_linker_0, # of connection points: 2
#     Edge 28, Type (0, 1), BuildingBlock: CIFDUS_clean_linker_0, # of connection points: 2
#     Edge 29, Type (0, 1), BuildingBlock: CIFDUS_clean_linker_0, # of connection points: 2
#     Edge 30, Type (0, 1), BuildingBlock: CIFDUS_clean_linker_0, # of connection points: 2
#     Edge 31, Type (0, 1), BuildingBlock: CIFDUS_clean_linker_0, # of connection points: 2
#     Edge 32, Type (0, 1), BuildingBlock: CIFDUS_clean_linker_0, # of connection points: 2
#     Edge 33, Type (0, 1), BuildingBlock: CIFDUS_clean_linker_0, # of connection points: 2
#     Edge 34, Type (0, 1), BuildingBlock: CIFDUS_clean_linker_0, # of connection points: 2
#     Edge 35, Type (0, 1), BuildingBlock: CIFDUS_clean_linker_0, # of connection points: 2
# Relax obj value: 0.075
# Max RMSD: 0.266
# Mean RMSD: 0.211
data_MOF--net-apo--node1-KUMBOL_clean_sbu_1--node2-QEWDON_clean_linker_0--edge1-CIFDUS_clean_linker_0
_symmetry_space_group_name_H-M    P1
_symmetry_Int_Tables_number       1
_symmetry_cell_setting            triclinic
loop_
_symmetry_equiv_pos_as_xyz
'x, y, z'
_cell_length_a     26.636644
_cell_length_b     37.674076
_cell_length_c     46.331334
_cell_angle_alpha  89.824848
_cell_angle_beta   90.17145
_cell_angle_gamma 90.495745
loop_
_atom_site_label
_atom_site_type_symbol
_atom_site_fract_x
_atom_site_fract_y
_atom_site_fract_z
_atom_type_partial_charge
H0 H 0.27229 0.42265 0.37673 0.0
C1 C 0.28438 0.42196 0.39909 0.0
C2 C 0.32338 0.44462 0.40835 0.0
C3 C 0.25686 0.40176 0.41928 0.0
H4 H 0.36671 0.46259 0.44482 0.0
C5 C 0.33655 0.44514 0.43772 0.0
C6 C 0.30846 0.42627 0.45835 0.0
C7 C 0.26917 0.40401 0.44886 0.0
C8 C 0.2079 0.38608 0.41074 0.0
H9 H 0.24545 0.39071 0.46458 0.0
C10 C 0.20388 0.35474 0.39419 0.0
C11 C 0.156 0.34081 0.38686 0.0
C12 C 0.1642 0.40366 0.41927 0.0
H13 H 0.16661 0.42788 0.43179 0.0
C14 C 0.11713 0.3906 0.41144 0.0
H15 H 0.23757 0.34095 0.38779 0.0
C16 C 0.11296 0.35957 0.39535 0.0
H17 H 0.07573 0.35034 0.38939 0.0
H18 H 0.08367 0.40461 0.41786 0.0
H19 H 0.24106 0.11069 0.87207 0.0
C20 C 0.22873 0.1101 0.89434 0.0
C21 C 0.18545 0.09038 0.90197 0.0
C22 C 0.25752 0.12754 0.91567 0.0
H23 H 0.1395 0.07198 0.93748 0.0
C24 C 0.17148 0.08825 0.93124 0.0
C25 C 0.19969 0.10549 0.95278 0.0
C26 C 0.24194 0.12567 0.94471 0.0
C27 C 0.30825 0.14228 0.9089 0.0
H28 H 0.26478 0.13802 0.96136 0.0
C29 C 0.3167 0.16814 0.88711 0.0
C30 C 0.36607 0.18056 0.88148 0.0
C31 C 0.34944 0.12934 0.92468 0.0
H32 H 0.3442 0.10927 0.94123 0.0
C33 C 0.39787 0.1416 0.91913 0.0
H34 H 0.28542 0.17839 0.87474 0.0
C35 C 0.40619 0.16693 0.89774 0.0
H36 H 0.44427 0.17619 0.89402 0.0
H37 H 0.42917 0.13135 0.93146 0.0
H38 H 0.77922 0.11446 0.67265 0.0
C39 C 0.79288 0.11637 0.65068 0.0
C40 C 0.83852 0.10023 0.643 0.0
C41 C 0.76358 0.13365 0.62976 0.0
H42 H 0.88916 0.08939 0.60769 0.0
C43 C 0.85482 0.10239 0.61409 0.0
C44 C 0.82625 0.12014 0.59307 0.0
C45 C 0.78083 0.13577 0.6012 0.0
C46 C 0.7121 0.14573 0.63641 0.0
H47 H 0.75754 0.14836 0.58496 0.0
C48 C 0.7029 0.17262 0.6568 0.0
C49 C 0.65375 0.18542 0.66057 0.0
C50 C 0.67165 0.13102 0.62084 0.0
H51 H 0.67787 0.1102 0.6052 0.0
C52 C 0.62296 0.14311 0.62512 0.0
H53 H 0.73386 0.18447 0.66869 0.0
C54 C 0.61406 0.17035 0.64466 0.0
H55 H 0.57605 0.17982 0.64732 0.0
H56 H 0.59211 0.13164 0.61296 0.0
H57 H 0.74163 0.4187 0.16897 0.0
C58 C 0.72503 0.4158 0.14771 0.0
C59 C 0.68498 0.43773 0.13938 0.0
C60 C 0.7474 0.39304 0.12748 0.0
H61 H 0.63464 0.45163 0.10471 0.0
C62 C 0.66573 0.43497 0.11119 0.0
C63 C 0.68876 0.41357 0.09047 0.0
C64 C 0.729 0.39206 0.09895 0.0
C65 C 0.79655 0.37673 0.13397 0.0
H66 H 0.74861 0.37662 0.08288 0.0
C67 C 0.80175 0.34859 0.15389 0.0
C68 C 0.84959 0.33406 0.15942 0.0
C69 C 0.83919 0.3901 0.11973 0.0
H70 H 0.83594 0.41175 0.1044 0.0
C71 C 0.88636 0.37595 0.12525 0.0
H72 H 0.76895 0.33809 0.16487 0.0
C73 C 0.89162 0.34818 0.1449 0.0
H74 H 0.92865 0.33724 0.14835 0.0
H75 H 0.91898 0.38643 0.11413 0.0
H76 H 0.6654 0.65014 0.673 0.0
C77 C 0.67239 0.64099 0.65126 0.0
C78 C 0.66405 0.6049 0.64396 0.0
C79 C 0.68579 0.66607 0.62991 0.0
H80 H 0.66656 0.56695 0.60884 0.0
C81 C 0.67159 0.59445 0.61503 0.0
C82 C 0.68323 0.61941 0.59348 0.0
C83 C 0.69054 0.65498 0.60112 0.0
C84 C 0.68652 0.7048 0.63602 0.0
H85 H 0.69885 0.67437 0.58441 0.0
C86 C 0.72198 0.72099 0.65479 0.0
C87 C 0.72275 0.75841 0.65821 0.0
C88 C 0.65197 0.72614 0.62117 0.0
H89 H 0.62446 0.71433 0.60674 0.0
C90 C 0.65279 0.76279 0.62437 0.0
H91 H 0.74873 0.70473 0.66634 0.0
C92 C 0.68795 0.77882 0.64247 0.0
H93 H 0.68815 0.80751 0.64388 0.0
H94 H 0.62629 0.77893 0.61253 0.0
H95 H 0.82932 0.88072 0.17501 0.0
C96 C 0.83491 0.88879 0.15279 0.0
C97 C 0.85575 0.92247 0.14635 0.0
C98 C 0.82324 0.86472 0.13056 0.0
H99 H 0.88338 0.95618 0.11206 0.0
C100 C 0.86416 0.93155 0.1172 0.0
C101 C 0.8507 0.90847 0.09462 0.0
C102 C 0.82974 0.87525 0.10166 0.0
C103 C 0.80964 0.82716 0.13699 0.0
H104 H 0.81908 0.85702 0.08462 0.0
C105 C 0.77053 0.81783 0.15617 0.0
C106 C 0.75728 0.78178 0.16033 0.0
C107 C 0.83631 0.80011 0.12306 0.0
H108 H 0.86703 0.80649 0.10861 0.0
C109 C 0.82403 0.76458 0.12768 0.0
H110 H 0.74949 0.83841 0.1669 0.0
C111 C 0.78472 0.75543 0.14604 0.0
H112 H 0.77594 0.72756 0.14924 0.0
H113 H 0.84497 0.74403 0.11689 0.0
H114 H 0.17275 0.87054 0.36972 0.0
C115 C 0.16474 0.8778 0.39183 0.0
C116 C 0.14439 0.91149 0.398 0.0
C117 C 0.17319 0.853 0.41411 0.0
H118 H 0.11392 0.94458 0.43185 0.0
C119 C 0.13192 0.91967 0.42684 0.0
C120 C 0.14142 0.89558 0.44931 0.0
C121 C 0.16329 0.86294 0.44278 0.0
C122 C 0.18755 0.81548 0.40811 0.0
H123 H 0.17018 0.84427 0.46017 0.0
C124 C 0.22507 0.80633 0.38792 0.0
C125 C 0.2399 0.77045 0.38467 0.0
C126 C 0.16354 0.7882 0.42382 0.0
H127 H 0.13329 0.79395 0.43862 0.0
C128 C 0.17848 0.75319 0.42115 0.0
H129 H 0.24279 0.82703 0.37519 0.0
C130 C 0.21683 0.74445 0.40231 0.0
H131 H 0.22856 0.71704 0.40195 0.0
H132 H 0.16059 0.73271 0.43404 0.0
H133 H 0.36239 0.64708 0.85525 0.0
C134 C 0.36629 0.64964 0.87843 0.0
C135 C 0.38024 0.62024 0.89539 0.0
C136 C 0.35829 0.68298 0.89078 0.0
H137 H 0.39424 0.60239 0.93901 0.0
C138 C 0.38372 0.62468 0.92561 0.0
C139 C 0.37466 0.65791 0.93864 0.0
C140 C 0.36223 0.68699 0.92076 0.0
C141 C 0.35317 0.71425 0.87159 0.0
H142 H 0.35789 0.71322 0.92989 0.0
C143 C 0.30726 0.73222 0.86821 0.0
C144 C 0.3031 0.75979 0.84767 0.0
C145 C 0.39479 0.72476 0.85499 0.0
H146 H 0.43031 0.71121 0.85726 0.0
C147 C 0.39088 0.75249 0.83516 0.0
H148 H 0.27474 0.724 0.88063 0.0
C149 C 0.34525 0.76973 0.83132 0.0
H150 H 0.34274 0.79087 0.81548 0.0
H151 H 0.42316 0.76033 0.82244 0.0
C152 C 0.85481 0.07758 0.27948 0.0
C153 C 0.8606 0.01463 0.2907 0.0
C154 C 0.8804 0.04939 0.29193 0.0
C155 C 0.81525 1.00834 0.27601 0.0
C156 C 0.80843 0.07144 0.2655 0.0
C157 C 0.78928 0.03666 0.2634 0.0
N158 N 0.87439 0.111 0.28187 0.0
C159 C 0.84702 0.13958 0.27297 0.0
C160 C 0.78211 0.10051 0.25456 0.0
C161 C 0.80113 0.13474 0.25872 0.0
Gd162 Gd 0.06584 0.12416 0.24403 0.0
Gd163 Gd 0.95364 0.11507 0.30481 0.0
N164 N 0.92514 0.05606 0.30516 0.0
C165 C 0.88696 0.98728 0.3044 0.0
C166 C 0.94966 0.02998 0.31986 0.0
C167 C 0.93134 0.99509 0.31936 0.0
H168 H 0.98345 0.03618 0.3318 0.0
H169 H 0.9514 0.97428 0.33054 0.0
H170 H 0.05889 0.20998 0.22419 0.0
H171 H 0.85956 0.16636 0.27719 0.0
H172 H 0.1132 0.26315 0.22442 0.0
H173 H 0.87297 0.9602 0.30394 0.0
H174 H 0.79965 0.98175 0.27454 0.0
H175 H 0.14223 0.05508 0.26095 0.0
H176 H 0.74638 0.0969 0.24368 0.0
H177 H 0.78013 0.15749 0.25128 0.0
H178 H 0.27109 0.22147 0.26038 0.0
H179 H 0.75393 0.03146 0.25251 0.0
H180 H 0.28643 0.09785 0.2822 0.0
H181 H 0.22868 0.04647 0.27771 0.0
N182 N 0.14838 0.1116 0.25895 0.0
C183 C 0.18035 0.13996 0.25962 0.0
C184 C 0.16581 0.07816 0.26426 0.0
C185 C 0.2479 0.10202 0.27552 0.0
C186 C 0.21538 0.07297 0.27315 0.0
C187 C 0.23089 0.13592 0.26823 0.0
H188 H 0.30193 0.16297 0.27546 0.0
N189 N 0.11439 0.17625 0.24226 0.0
C190 C 0.16307 0.17305 0.25081 0.0
C191 C 0.17727 0.23553 0.24148 0.0
C192 C 0.19574 0.20275 0.25079 0.0
C193 C 0.09663 0.20789 0.23235 0.0
C194 C 0.12759 0.23804 0.23207 0.0
O195 O 0.9677 0.07301 0.27123 0.0
O196 O 0.98578 0.10928 0.23389 0.0
O197 O 0.08561 0.13779 0.1997 0.0
O198 O 0.08234 0.08272 0.21303 0.0
O199 O 0.03258 0.09924 0.3161 0.0
O200 O 0.06192 0.07573 0.27361 0.0
O201 O 0.07918 0.15437 0.28611 0.0
O202 O 0.99944 0.16565 0.30404 0.0
O203 O 0.96339 0.10822 0.35121 0.0
O204 O 0.89724 0.13386 0.33477 0.0
O205 O 1.00162 0.16244 0.23669 0.0
O206 O 0.94741 0.16462 0.27674 0.0
C207 C 0.9659 0.07991 0.24365 0.0
C208 C 0.06053 0.07661 0.30206 0.0
C209 C 0.13542 0.09731 0.17317 0.0
C210 C 0.17219 0.09623 0.12471 0.0
C211 C 0.21688 0.07052 0.16546 0.0
C212 C 0.17784 0.07976 0.18392 0.0
C213 C 0.21397 0.07839 0.13604 0.0
C214 C 0.13311 0.10599 0.14351 0.0
C215 C 0.09214 0.10496 0.19206 0.0
C216 C 0.24561 0.1989 0.26007 0.0
C217 C 0.26313 0.16559 0.26874 0.0
H218 H 0.20114 0.25896 0.24125 0.0
C219 C 0.04839 0.17101 0.30375 0.0
C220 C 0.96368 0.17596 0.25128 0.0
C221 C 0.88826 0.0993 0.37717 0.0
C222 C 0.86555 0.08059 0.42605 0.0
C223 C 0.82511 0.05328 0.38447 0.0
C224 C 0.85304 0.07499 0.36603 0.0
C225 C 0.83145 0.05587 0.41427 0.0
C226 C 0.89399 0.10237 0.40731 0.0
C227 C 0.91953 0.12095 0.35746 0.0
H228 H 0.24935 0.05686 0.17394 0.0
H229 H 0.18058 0.07267 0.20646 0.0
H230 H 0.24459 0.07075 0.12209 0.0
H231 H 0.10039 0.11936 0.13494 0.0
H232 H 0.79822 0.03451 0.37563 0.0
H233 H 0.84685 0.07287 0.34308 0.0
H234 H 0.80885 0.03902 0.42819 0.0
H235 H 0.92077 0.1213 0.41612 0.0
C236 C 0.6634 0.42573 0.77013 0.0
C237 C 0.67691 0.48779 0.78203 0.0
C238 C 0.64692 0.45678 0.78273 0.0
C239 C 0.72259 0.48762 0.76699 0.0
C240 C 0.71035 0.42501 0.75614 0.0
C241 C 0.73919 0.45632 0.75398 0.0
N242 N 0.63525 0.39571 0.77339 0.0
C243 C 0.65438 0.36362 0.76567 0.0
C244 C 0.72786 0.39255 0.74581 0.0
C245 C 0.70013 0.36161 0.75108 0.0
Gd246 Gd 0.4362 0.40146 0.74353 0.0
Gd247 Gd 0.55762 0.40231 0.79709 0.0
N248 N 0.60222 0.45623 0.79677 0.0
C249 C 0.66036 0.51783 0.79687 0.0
C250 C 0.58703 0.4848 0.81244 0.0
C251 C 0.61547 0.51618 0.81239 0.0
H252 H 0.55299 0.48326 0.82498 0.0
H253 H 0.60292 0.53899 0.82445 0.0
H254 H 0.46156 0.32984 0.70179 0.0
H255 H 0.63523 0.33935 0.77145 0.0
H256 H 0.43516 0.26733 0.69838 0.0
H257 H 0.68234 0.54216 0.79688 0.0
H258 H 0.74583 0.51132 0.76583 0.0
H259 H 0.35188 0.44141 0.78456 0.0
H260 H 0.7637 0.39086 0.73492 0.0
H261 H 0.71448 0.33611 0.74447 0.0
H262 H 0.29562 0.258 0.76326 0.0
H263 H 0.77513 0.45633 0.74308 0.0
H264 H 0.24206 0.36401 0.81084 0.0
H265 H 0.27454 0.42579 0.81157 0.0
N266 N 0.36275 0.38895 0.76932 0.0
C267 C 0.34428 0.35533 0.76743 0.0
C268 C 0.33767 0.41446 0.78418 0.0
C269 C 0.27569 0.37079 0.79886 0.0
C270 C 0.29398 0.40569 0.79939 0.0
C271 C 0.30071 0.34513 0.78263 0.0
H272 H 0.2507 0.30129 0.79306 0.0
N273 N 0.41104 0.34206 0.73576 0.0
C274 C 0.36977 0.33099 0.75064 0.0
C275 C 0.37698 0.27232 0.73026 0.0
C276 C 0.35202 0.2957 0.74858 0.0
C277 C 0.43281 0.32012 0.71612 0.0
C278 C 0.41698 0.28478 0.71356 0.0
O279 O 0.54929 0.4478 0.76449 0.0
O280 O 0.51098 0.4201 0.72634 0.0
O281 O 0.39719 0.39693 0.70199 0.0
O282 O 0.39745 0.4471 0.72575 0.0
O283 O 0.48791 0.43163 0.81167 0.0
O284 O 0.44821 0.45136 0.76991 0.0
O285 O 0.43222 0.3826 0.79 0.0
O286 O 0.50625 0.35408 0.79643 0.0
O287 O 0.54985 0.40631 0.84386 0.0
O288 O 0.61238 0.37833 0.8257 0.0
O289 O 0.50729 0.3755 0.72712 0.0
O290 O 0.54767 0.35419 0.76787 0.0
C291 C 0.53787 0.44642 0.73683 0.0
C292 C 0.46134 0.45522 0.79724 0.0
C293 C 0.35174 0.44646 0.68023 0.0
C294 C 0.32263 0.45053 0.63012 0.0
C295 C 0.29266 0.49211 0.6662 0.0
C296 C 0.32213 0.47582 0.68722 0.0
C297 C 0.29286 0.47965 0.6379 0.0
C298 C 0.35156 0.43361 0.65164 0.0
C299 C 0.38267 0.42977 0.70294 0.0
C300 C 0.30947 0.28509 0.76436 0.0
C301 C 0.28378 0.30977 0.78127 0.0
H302 H 0.36459 0.24498 0.7281 0.0
C303 C 0.45741 0.35535 0.79966 0.0
C304 C 0.53848 0.35331 0.73989 0.0
C305 C 0.62661 0.40792 0.86973 0.0
C306 C 0.65603 0.41741 0.91916 0.0
C307 C 0.69635 0.44822 0.87915 0.0
C308 C 0.66396 0.43141 0.85979 0.0
C309 C 0.6924 0.44141 0.90864 0.0
C310 C 0.62305 0.40067 0.8995 0.0
C311 C 0.59212 0.39043 0.84913 0.0
H312 H 0.26964 0.51457 0.67184 0.0
H313 H 0.32143 0.48606 0.70904 0.0
H314 H 0.26945 0.49281 0.62206 0.0
H315 H 0.37493 0.41129 0.646 0.0
H316 H 0.72494 0.46635 0.87124 0.0
H317 H 0.66865 0.43647 0.83706 0.0
H318 H 0.71857 0.45439 0.92321 0.0
H319 H 0.59463 0.38228 0.90732 0.0
C320 C 0.87962 0.83256 0.79303 0.0
C321 C 0.92095 0.77661 0.8018 0.0
C322 C 0.92261 0.81402 0.8001 0.0
C323 C 0.87678 0.7583 0.79398 0.0
C324 C 0.83414 0.81446 0.78733 0.0
C325 C 0.83339 0.77721 0.78684 0.0
N326 N 0.8816 0.86848 0.79335 0.0
C327 C 0.83919 0.88815 0.79022 0.0
C328 C 0.79059 0.8344 0.78301 0.0
C329 C 0.79301 0.87142 0.78487 0.0
Gd330 Gd 0.04562 0.91006 0.72851 0.0
Gd331 Gd 0.95985 0.89501 0.80129 0.0
N332 N 0.96424 0.83266 0.80829 0.0
C333 C 0.9626 0.75888 0.81303 0.0
C334 C 1.00161 0.81564 0.82301 0.0
C335 C 1.00247 0.77857 0.8245 0.0
H336 H 0.03065 0.83041 0.83407 0.0
H337 H 0.0333 0.76527 0.83515 0.0
H338 H 0.09288 0.99275 0.72846 0.0
H339 H 0.84133 0.91677 0.79146 0.0
H340 H 0.17648 0.02223 0.7278 0.0
H341 H 0.96288 0.73018 0.8147 0.0
H342 H 0.87513 0.72956 0.79471 0.0
H343 H 0.06175 0.83014 0.70015 0.0
H344 H 0.75487 0.82149 0.77866 0.0
H345 H 0.75947 0.88704 0.78193 0.0
H346 H 0.29156 0.92625 0.71366 0.0
H347 H 0.79905 0.7628 0.78192 0.0
H348 H 0.21976 0.81222 0.69151 0.0
H349 H 0.13196 0.79081 0.68671 0.0
N350 N 0.10969 0.87249 0.71318 0.0
C351 C 0.15723 0.88539 0.71445 0.0
C352 C 0.10003 0.83953 0.70231 0.0
C353 C 0.18916 0.82941 0.69754 0.0
C354 C 0.13963 0.81728 0.69469 0.0
C355 C 0.19844 0.86417 0.70691 0.0
H356 H 0.27939 0.86289 0.70233 0.0
N357 N 0.12271 0.94078 0.72532 0.0
C358 C 0.16401 0.92085 0.72078 0.0
C359 C 0.2168 0.97319 0.72324 0.0
C360 C 0.2123 0.93638 0.71981 0.0
C361 C 0.1264 0.97696 0.72635 0.0
C362 C 0.17354 0.99365 0.72602 0.0
O363 O 0.93002 0.88578 0.7559 0.0
O364 O 0.99635 0.86108 0.73271 0.0
O365 O 0.98351 0.92363 0.70017 0.0
O366 O 0.05865 0.92073 0.6829 0.0
O367 O 0.04186 0.87894 0.80189 0.0
O368 O 0.05024 0.86027 0.75533 0.0
O369 O 0.07414 0.94225 0.76689 0.0
O370 O 0.02341 0.93491 0.80791 0.0
O371 O 0.93743 0.88291 0.84544 0.0
O372 O 0.92677 0.93553 0.82837 0.0
O373 O 1.00385 0.95603 0.74808 0.0
O374 O 0.93099 0.93534 0.76905 0.0
C375 C 0.94799 0.86218 0.73793 0.0
C376 C 0.06636 0.86109 0.78211 0.0
C377 C 0.99186 0.90635 0.65096 0.0
C378 C 0.99427 0.8974 0.5986 0.0
C379 C 0.93083 0.86745 0.62775 0.0
C380 C 0.95007 0.88342 0.65258 0.0
C381 C 0.95254 0.87446 0.60094 0.0
C382 C 0.0141 0.91304 0.62384 0.0
C383 C 0.01122 0.92462 0.67702 0.0
C384 C 0.25404 0.91493 0.71417 0.0
C385 C 0.24711 0.87885 0.70771 0.0
H386 H 0.25324 0.98618 0.72269 0.0
C387 C 0.06207 0.94914 0.79399 0.0
C388 C 0.95522 0.95808 0.75233 0.0
C389 C 0.94378 0.93019 0.87851 0.0
C390 C 0.93988 0.93457 0.93109 0.0
C391 C 1.00085 0.96969 0.90421 0.0
C392 C 0.98355 0.9548 0.87848 0.0
C393 C 0.97896 0.95985 0.93038 0.0
C394 C 0.92243 0.91971 0.90499 0.0
C395 C 0.92448 0.91526 0.85116 0.0
H396 H 0.8987 0.84975 0.62927 0.0
H397 H 0.93184 0.87809 0.67295 0.0
H398 H 0.93687 0.8617 0.58198 0.0
H399 H 0.04598 0.93103 0.62231 0.0
H400 H 0.03146 0.98878 0.90388 0.0
H401 H 1.00121 0.96244 0.85854 0.0
H402 H 0.99327 0.97144 0.95017 0.0
H403 H 0.89208 0.90035 0.90529 0.0
C404 C 0.64283 0.68211 0.30255 0.0
C405 C 0.61612 0.73602 0.32622 0.0
C406 C 0.60637 0.70086 0.31729 0.0
C407 C 0.66223 0.75228 0.3193 0.0
C408 C 0.68965 0.69797 0.29621 0.0
C409 C 0.69892 0.7333 0.30436 0.0
N410 N 0.63252 0.64821 0.29447 0.0
C411 C 0.6684 0.62771 0.28198 0.0
C412 C 0.72585 0.67773 0.28204 0.0
C413 C 0.71536 0.64232 0.27518 0.0
Gd414 Gd 0.46034 0.61835 0.23577 0.0
Gd415 Gd 0.5529 0.62605 0.30631 0.0
N416 N 0.5622 0.68433 0.32378 0.0
C417 C 0.57965 0.75355 0.34237 0.0
C418 C 0.52793 0.70056 0.34108 0.0
C419 C 0.53566 0.73556 0.35014 0.0
H420 H 0.49482 0.68655 0.34842 0.0
H421 H 0.50794 0.74849 0.36342 0.0
H422 H 0.48827 0.53703 0.21316 0.0
H423 H 0.66031 0.60029 0.27682 0.0
H424 H 0.4481 0.47742 0.21123 0.0
H425 H 0.58568 0.78057 0.34961 0.0
H426 H 0.6702 0.77936 0.32579 0.0
H427 H 0.36532 0.67613 0.24408 0.0
H428 H 0.76224 0.68899 0.27672 0.0
H429 H 0.74343 0.62628 0.26471 0.0
H430 H 0.28258 0.49625 0.24891 0.0
H431 H 0.7345 0.74607 0.29946 0.0
H432 H 0.23271 0.61645 0.26467 0.0
H433 H 0.27557 0.67421 0.25705 0.0
N434 N 0.3743 0.6201 0.24681 0.0
C435 C 0.35052 0.58807 0.24854 0.0
C436 C 0.34745 0.65077 0.24821 0.0
C437 C 0.27233 0.61712 0.25945 0.0
C438 C 0.29637 0.64979 0.25514 0.0
C439 C 0.29902 0.58571 0.25534 0.0
H440 H 0.23592 0.54991 0.262 0.0
N441 N 0.42551 0.56115 0.23306 0.0
C442 C 0.37664 0.55776 0.24102 0.0
C443 C 0.37878 0.49511 0.2301 0.0
C444 C 0.35223 0.52444 0.24032 0.0
C445 C 0.45048 0.5333 0.2211 0.0
C446 C 0.4278 0.49971 0.21993 0.0
O447 O 0.5754 0.65071 0.26348 0.0
O448 O 0.50177 0.6701 0.2432 0.0
O449 O 0.48958 0.61572 0.19187 0.0
O450 O 0.41332 0.63147 0.19898 0.0
O451 O 0.47328 0.64639 0.31037 0.0
O452 O 0.44808 0.66612 0.26514 0.0
O453 O 0.46648 0.57327 0.26858 0.0
O454 O 0.4752 0.60316 0.31101 0.0
O455 O 0.57508 0.62659 0.3521 0.0
O456 O 0.58269 0.57855 0.32616 0.0
O457 O 0.53987 0.59889 0.23164 0.0
O458 O 0.56541 0.57891 0.27673 0.0
C459 C 0.55051 0.67308 0.24712 0.0
C460 C 0.44606 0.66714 0.29362 0.0
C461 C 0.45278 0.65464 0.15766 0.0
C462 C 0.4454 0.67255 0.10702 0.0
C463 C 0.46151 0.71667 0.14426 0.0
C464 C 0.46083 0.69019 0.16542 0.0
C465 C 0.45345 0.70802 0.11529 0.0
C466 C 0.44566 0.64584 0.1284 0.0
C467 C 0.44834 0.6269 0.18 0.0
C468 C 0.30183 0.5217 0.24891 0.0
C469 C 0.27529 0.55227 0.25643 0.0
H470 H 0.3613 0.46906 0.22917 0.0
C471 C 0.45878 0.57567 0.29646 0.0
C472 C 0.56478 0.57674 0.24829 0.0
C473 C 0.60833 0.57357 0.37647 0.0
C474 C 0.63314 0.57011 0.42762 0.0
C475 C 0.633 0.51718 0.39744 0.0
C476 C 0.61704 0.53702 0.3738 0.0
C477 C 0.64051 0.53336 0.42412 0.0
C478 C 0.61691 0.59011 0.4034 0.0
C479 C 0.58818 0.59342 0.35132 0.0
H480 H 0.46777 0.74407 0.15038 0.0
H481 H 0.466 0.69747 0.18784 0.0
H482 H 0.45384 0.72904 0.09928 0.0
H483 H 0.43881 0.61843 0.12239 0.0
H484 H 0.63883 0.48892 0.39519 0.0
H485 H 0.61072 0.52351 0.35349 0.0
H486 H 0.65111 0.51668 0.44215 0.0
H487 H 0.6109 0.61838 0.40541 0.0
H488 H 0.15739 0.98323 0.39949 0.0
H489 H 0.10641 0.89887 0.34356 0.0
H490 H 0.08187 0.94246 0.30705 0.0
H491 H 0.06751 1.00519 0.29283 0.0
H492 H 0.11219 0.08865 0.35116 0.0
H493 H 0.1464 0.04501 0.38477 0.0
C494 C 0.14083 0.97427 0.37935 0.0
C495 C 0.13348 0.9377 0.37453 0.0
C496 C 0.12553 0.99949 0.35879 0.0
C497 C 0.113 0.92675 0.34791 0.0
C498 C 0.09857 0.95172 0.32704 0.0
C499 C 0.08577 0.01368 0.31262 0.0
C500 C 0.0876 0.05002 0.31954 0.0
C501 C 0.10379 0.98823 0.33244 0.0
C502 C 0.11039 0.06079 0.34546 0.0
C503 C 0.12979 0.03585 0.36472 0.0
H504 H 0.42301 0.60985 0.84227 0.0
H505 H 0.36719 0.55185 0.91634 0.0
H506 H 0.38976 0.4961 0.89336 0.0
H507 H 0.42395 0.46332 0.8515 0.0
H508 H 0.46911 0.52167 0.7756 0.0
H509 H 0.45043 0.57769 0.79968 0.0
C510 C 0.41439 0.58519 0.85334 0.0
C511 C 0.39309 0.58564 0.88123 0.0
C512 C 0.42536 0.55306 0.8395 0.0
C513 C 0.38432 0.55289 0.89521 0.0
C514 C 0.39679 0.52077 0.88193 0.0
C515 C 0.42947 0.48838 0.84032 0.0
C516 C 0.44782 0.48854 0.81187 0.0
C517 C 0.41724 0.52051 0.85404 0.0
C518 C 0.45456 0.52101 0.79742 0.0
C519 C 0.44412 0.55299 0.81123 0.0
H520 H 0.59934 0.54904 0.6345 0.0
H521 H 0.68209 0.60125 0.70282 0.0
H522 H 0.64797 0.55868 0.73768 0.0
H523 H 0.5945 0.50621 0.74864 0.0
H524 H 0.52125 0.45061 0.67881 0.0
H525 H 0.5517 0.49504 0.64479 0.0
C526 C 0.61123 0.55091 0.65682 0.0
C527 C 0.64399 0.57855 0.66563 0.0
C528 C 0.59286 0.52565 0.67664 0.0
C529 C 0.6567 0.58076 0.69514 0.0
C530 C 0.6374 0.55618 0.71517 0.0
C531 C 0.5864 0.50319 0.72596 0.0
C532 C 0.55662 0.47433 0.71649 0.0
C533 C 0.60557 0.52839 0.70614 0.0
C534 C 0.54447 0.47212 0.68695 0.0
C535 C 0.56194 0.49759 0.66735 0.0
H536 H 0.85314 0.99504 0.14573 0.0
H537 H 0.89604 0.90662 0.19977 0.0
H538 H 0.92998 0.94769 0.23558 0.0
H539 H 0.95457 1.00853 0.24964 0.0
H540 H 0.91879 0.09608 0.19327 0.0
H541 H 0.87681 0.05541 0.15979 0.0
C542 C 0.87035 0.98453 0.16515 0.0
C543 C 0.87225 0.94751 0.16965 0.0
C544 C 0.89197 1.0082 0.18508 0.0
C545 C 0.8933 0.93482 0.1956 0.0
C546 C 0.91338 0.95833 0.21603 0.0
C547 C 0.93721 0.01866 0.23011 0.0
C548 C 0.93985 0.05519 0.22383 0.0
C549 C 0.91392 0.99501 0.2107 0.0
C550 C 0.91766 0.068 0.19839 0.0
C551 C 0.89346 0.04479 0.17933 0.0
H552 H 0.80225 0.05415 0.6837 0.0
H553 H 0.94053 0.09811 0.65023 0.0
H554 H 0.98873 0.05922 0.68195 0.0
H555 H 0.99174 1.01069 0.71739 0.0
H556 H 0.85336 0.96696 0.75108 0.0
H557 H 0.80531 1.00832 0.72154 0.0
C558 C 0.84291 0.05577 0.68372 0.0
C559 C 0.86762 0.07898 0.66441 0.0
C560 C 0.87049 0.0333 0.70205 0.0
C561 C 0.92044 0.08018 0.66451 0.0
C562 C 0.94808 0.05802 0.68274 0.0
C563 C 0.95108 1.01039 0.71854 0.0
C564 C 0.92635 0.98558 0.73648 0.0
C565 C 0.92353 0.0341 0.70129 0.0
C566 C 0.87357 0.98571 0.73758 0.0
C567 C 0.84595 1.00932 0.72058 0.0
H568 H 0.66121 0.43726 0.19733 0.0
H569 H 0.67242 0.50602 0.12284 0.0
H570 H 0.63865 0.55503 0.15032 0.0
H571 H 0.60168 0.57792 0.19425 0.0
H572 H 0.59093 0.51147 0.26992 0.0
H573 H 0.6295 0.46237 0.24351 0.0
C574 C 0.6566 0.46307 0.18729 0.0
C575 C 0.66802 0.4676 0.15782 0.0
C576 C 0.63726 0.49161 0.20339 0.0
C577 C 0.66241 0.50138 0.1452 0.0
C578 C 0.64341 0.52959 0.16093 0.0
C579 C 0.60801 0.55276 0.20508 0.0
C580 C 0.5931 0.54823 0.23389 0.0
C581 C 0.62988 0.52486 0.18982 0.0
C582 C 0.60225 0.51564 0.24772 0.0
C583 C 0.62401 0.48751 0.23257 0.0
H584 H 0.36351 0.43772 0.35392 0.0
H585 H 0.32884 0.51485 0.41944 0.0
H586 H 0.36592 0.56192 0.39026 0.0
H587 H 0.41059 0.58129 0.34723 0.0
H588 H 0.44845 0.50549 0.28153 0.0
H589 H 0.40703 0.45809 0.30919 0.0
C590 C 0.36395 0.46488 0.36162 0.0
C591 C 0.34431 0.47263 0.38905 0.0
C592 C 0.38572 0.49211 0.34466 0.0
C593 C 0.34478 0.50801 0.39871 0.0
C594 C 0.36574 0.53503 0.38199 0.0
C595 C 0.40983 0.55439 0.33892 0.0
C596 C 0.43228 0.54695 0.31228 0.0
C597 C 0.38687 0.52735 0.35516 0.0
C598 C 0.4306 0.51202 0.30174 0.0
C599 C 0.40731 0.48485 0.3177 0.0
H600 H 0.22059 0.04479 0.86084 0.0
H601 H 0.08413 0.08919 0.89454 0.0
H602 H 0.03424 0.051 0.86279 0.0
H603 H 0.02903 1.00344 0.82675 0.0
H604 H 0.16431 0.95615 0.79468 0.0
H605 H 0.21511 0.99789 0.82335 0.0
C606 C 0.17997 0.04647 0.86085 0.0
C607 C 0.15612 0.06982 0.8801 0.0
C608 C 0.15134 0.02387 0.84282 0.0
C609 C 0.10339 0.07135 0.88009 0.0
C610 C 0.07483 0.04953 0.86192 0.0
C611 C 0.06962 1.0017 0.82666 0.0
C612 C 0.09291 0.97584 0.80963 0.0
C613 C 0.09833 0.02524 0.84362 0.0
C614 C 0.14556 0.97548 0.80805 0.0
C615 C 0.17455 0.99926 0.8245 0.0
H616 H 0.18478 0.15366 0.99614 0.0
H617 H 0.19199 0.04139 0.97914 0.0
H618 H 0.18215 0.0285 0.03054 0.0
H619 H 0.17613 0.0491 0.08077 0.0
H620 H 0.16426 0.16089 0.09827 0.0
H621 H 0.17072 0.17413 0.04646 0.0
C622 C 0.18374 0.12642 1.00377 0.0
C623 C 0.1892 0.0985 0.98387 0.0
C624 C 0.17732 0.11915 0.03346 0.0
C625 C 0.1875 0.0633 0.99398 0.0
C626 C 0.18211 0.05592 0.02339 0.0
C627 C 0.17446 0.07632 0.07313 0.0
C628 C 0.17004 0.10402 0.09323 0.0
C629 C 0.17761 0.0836 0.04337 0.0
C630 C 0.16748 0.13916 0.08315 0.0
C631 C 0.17146 0.1467 0.05356 0.0
H632 H 0.30984 0.3811 0.50538 0.0
H633 H 0.3195 0.49187 0.48157 0.0
H634 H 0.3279 0.50843 0.53193 0.0
H635 H 0.33001 0.49239 0.58279 0.0
H636 H 0.31817 0.38256 0.60839 0.0
H637 H 0.31389 0.36474 0.55751 0.0
C638 C 0.31388 0.4088 0.51129 0.0
C639 C 0.31473 0.43508 0.48954 0.0
C640 C 0.31836 0.4184 0.54065 0.0
C641 C 0.31993 0.47093 0.49764 0.0
C642 C 0.32436 0.48054 0.52653 0.0
C643 C 0.32626 0.46452 0.5773 0.0
C644 C 0.32382 0.43891 0.5994 0.0
C645 C 0.32333 0.4546 0.54819 0.0
C646 C 0.32026 0.40284 0.59181 0.0
C647 C 0.31748 0.39267 0.56271 0.0
H648 H 0.67467 0.36327 0.0482 0.0
H649 H 0.67711 0.47642 0.06274 0.0
H650 H 0.66271 0.48726 1.01169 0.0
H651 H 0.65483 0.46526 0.96241 0.0
H652 H 0.65317 0.35269 0.94635 0.0
H653 H 0.66105 0.34093 0.99829 0.0
C654 C 0.67173 0.39022 0.04013 0.0
C655 C 0.67664 0.41893 0.05938 0.0
C656 C 0.66362 0.39642 1.01044 0.0
C657 C 0.6726 0.45377 0.0486 0.0
C658 C 0.6647 0.46007 1.01931 0.0
C659 C 0.65587 0.43814 0.97033 0.0
C660 C 0.65391 0.40991 0.95063 0.0
C661 C 0.66085 0.43168 1.00001 0.0
C662 C 0.65445 0.37488 0.96115 0.0
C663 C 0.65935 0.36817 0.99081 0.0
H664 H 0.85747 0.06394 0.56127 0.0
H665 H 0.82722 0.17597 0.55524 0.0
H666 H 0.84204 0.17449 0.50316 0.0
H667 H 0.85634 0.14013 0.45865 0.0
H668 H 0.88256 0.02763 0.46476 0.0
H669 H 0.87751 0.03054 0.51739 0.0
C670 C 0.85515 0.08817 0.54865 0.0
C671 C 0.84116 0.12 0.56211 0.0
C672 C 0.86279 0.08697 0.51864 0.0
C673 C 0.83752 0.15106 0.54534 0.0
C674 C 0.84604 0.15024 0.51557 0.0
C675 C 0.86194 0.11646 0.47161 0.0
C676 C 0.86974 0.08372 0.45791 0.0
C677 C 0.85765 0.11819 0.50187 0.0
C678 C 0.87627 0.0531 0.47488 0.0
C679 C 0.87329 0.05474 0.50494 0.0
H680 H 0.87976 0.86525 0.0501 0.0
H681 H 0.84497 0.97445 0.0695 0.0
H682 H 0.86859 0.99189 0.02072 0.0
H683 H 0.90218 0.97668 0.97294 0.0
H684 H 0.93111 0.86731 0.95234 0.0
H685 H 0.90497 0.84924 1.00092 0.0
C686 C 0.87616 0.89278 0.04364 0.0
C687 C 0.86111 0.91847 0.0639 0.0
C688 C 0.88859 0.90262 1.01521 0.0
C689 C 0.85765 0.9541 0.05484 0.0
C690 C 0.87076 0.96414 0.02679 0.0
C691 C 0.90229 0.94887 0.9791 0.0
C692 C 0.91875 0.92334 0.95927 0.0
C693 C 0.8869 0.93872 1.00693 0.0
C694 C 0.91834 0.88736 0.96726 0.0
C695 C 0.9037 0.87709 0.99506 0.0
H696 H 0.6265 0.64599 0.54985 0.0
H697 H 0.74008 0.56833 0.56831 0.0
H698 H 0.73788 0.54859 0.51796 0.0
H699 H 0.70181 0.55216 0.46939 0.0
H700 H 0.58132 0.62542 0.45219 0.0
H701 H 0.58949 0.64902 0.50092 0.0
C702 C 0.65108 0.62499 0.54268 0.0
C703 C 0.68364 0.60871 0.56263 0.0
C704 C 0.64855 0.61315 0.5139 0.0
C705 C 0.71477 0.58118 0.5533 0.0
C706 C 0.71349 0.56996 0.52454 0.0
C707 C 0.67672 0.57298 0.47622 0.0
C708 C 0.64065 0.58661 0.45679 0.0
C709 C 0.68008 0.58545 0.50475 0.0
C710 C 0.60992 0.61451 0.46619 0.0
C711 C 0.61417 0.62785 0.49429 0.0
H712 H 0.44146 0.62593 0.97596 0.0
H713 H 0.31966 0.70097 0.97405 0.0
H714 H 0.33117 0.71222 0.02535 0.0
H715 H 0.37658 0.70175 0.07091 0.0
H716 H 0.49381 0.62374 0.07395 0.0
H717 H 0.48229 0.61194 0.02233 0.0
C718 C 0.41666 0.64427 0.98671 0.0
C719 C 0.38004 0.66282 0.97066 0.0
C720 C 0.42259 0.65006 1.01659 0.0
C721 C 0.34905 0.68687 0.98535 0.0
C722 C 0.35529 0.69317 1.01488 0.0
C723 C 0.3995 0.68212 0.06022 0.0
C724 C 0.43625 0.66382 0.07613 0.0
C725 C 0.3922 0.67519 0.03066 0.0
C726 C 0.46521 0.63808 0.06216 0.0
C727 C 0.45875 0.63146 0.03264 0.0
H728 H 0.04848 0.91518 0.46674 0.0
H729 H 0.19558 0.88958 0.49922 0.0
H730 H 0.16414 0.89117 0.5488 0.0
H731 H 0.09272 0.89408 0.58263 0.0
H732 H 0.94491 0.91668 0.54957 0.0
H733 H 0.97854 0.92229 0.50074 0.0
C734 C 0.07385 0.91079 0.48474 0.0
C735 C 0.12428 0.90234 0.47934 0.0
C736 C 0.05516 0.91077 0.51313 0.0
C737 C 0.15656 0.89606 0.50285 0.0
C738 C 0.13855 0.89686 0.53119 0.0
C739 C 0.06813 0.90083 0.56477 0.0
C740 C 0.01635 0.9047 0.56968 0.0
C741 C 0.08762 0.9033 0.53657 0.0
C742 C 0.98481 0.91315 0.54629 0.0
C743 C 1.00403 0.91642 0.51836 0.0
H744 H 0.08831 0.28842 0.39752 0.0
H745 H 0.20862 0.3168 0.33959 0.0
H746 H 0.1891 0.26465 0.30978 0.0
H747 H 0.13214 0.21399 0.29804 0.0
H748 H 0.00883 0.18963 0.35506 0.0
H749 H 0.03475 0.23742 0.38711 0.0
C750 C 0.11032 0.28334 0.37833 0.0
C751 C 0.14935 0.3069 0.37059 0.0
C752 C 0.09791 0.25414 0.36094 0.0
C753 C 0.17838 0.29916 0.34612 0.0
C754 C 0.16694 0.26948 0.32893 0.0
C755 C 0.11137 0.21894 0.31755 0.0
C756 C 0.06826 0.19842 0.32384 0.0
C757 C 0.12596 0.24722 0.33577 0.0
C758 C 0.04169 0.20527 0.34938 0.0
C759 C 0.05656 0.23257 0.36783 0.0
H760 H 0.33171 0.2487 0.87755 0.0
H761 H 0.42939 0.17385 0.83629 0.0
H762 H 0.46548 0.2212 0.80655 0.0
H763 H 0.47571 0.28487 0.79586 0.0
H764 H 0.37829 0.36026 0.83655 0.0
H765 H 0.33574 0.31214 0.86278 0.0
C766 C 0.35986 0.24272 0.86146 0.0
C767 C 0.37792 0.20783 0.85914 0.0
C768 C 0.38133 0.27037 0.84478 0.0
C769 C 0.41491 0.2005 0.83845 0.0
C770 C 0.43587 0.22761 0.82161 0.0
C771 C 0.44518 0.29066 0.81052 0.0
C772 C 0.43068 0.32603 0.81469 0.0
C773 C 0.42063 0.26281 0.82528 0.0
C774 C 0.39035 0.3332 0.8332 0.0
C775 C 0.36597 0.30568 0.84816 0.0
H776 H 0.62334 0.25047 0.64473 0.0
H777 H 0.65761 0.18684 0.71943 0.0
H778 H 0.62553 0.23361 0.75115 0.0
H779 H 0.58136 0.29067 0.75699 0.0
H780 H 0.55129 0.35501 0.68171 0.0
H781 H 0.58732 0.30973 0.65082 0.0
C782 C 0.62455 0.24725 0.66801 0.0
C783 C 0.64277 0.21553 0.67988 0.0
C784 C 0.60604 0.2741 0.68591 0.0
C785 C 0.64411 0.21131 0.70997 0.0
C786 C 0.62541 0.23788 0.72801 0.0
C787 C 0.58355 0.29509 0.73389 0.0
C788 C 0.56339 0.32623 0.72174 0.0
C789 C 0.60535 0.26913 0.71617 0.0
C790 C 0.566 0.3312 0.69168 0.0
C791 C 0.5868 0.30537 0.67395 0.0
H792 H 0.91926 0.32769 0.20178 0.0
H793 H 0.79692 0.27129 0.161 0.0
H794 H 0.81906 0.21721 0.18761 0.0
H795 H 0.87947 0.18441 0.21863 0.0
H796 H 1.00143 0.24162 0.25894 0.0
H797 H 0.97382 0.29684 0.23618 0.0
C798 C 0.8971 0.30364 0.19898 0.0
C799 C 0.85685 0.30336 0.17924 0.0
C800 C 0.91057 0.27268 0.21395 0.0
C801 C 0.82796 0.2722 0.17615 0.0
C802 C 0.84092 0.24121 0.19116 0.0
C803 C 0.89932 0.20917 0.22265 0.0
C804 C 0.94267 0.20921 0.24002 0.0
C805 C 0.88303 0.24087 0.20951 0.0
C806 C 0.96829 0.24119 0.24531 0.0
C807 C 0.95247 0.27268 0.23236 0.0
H808 H 0.82459 0.74729 0.6656 0.0
H809 H 0.70259 0.81276 0.69467 0.0
H810 H 0.76139 0.85135 0.71992 0.0
H811 H 0.84734 0.86888 0.73161 0.0
H812 H 0.97007 0.80139 0.70787 0.0
H813 H 0.91161 0.7619 0.68216 0.0
C814 C 0.81083 0.76954 0.67797 0.0
C815 C 0.75908 0.77739 0.67761 0.0
C816 C 0.84511 0.79166 0.69309 0.0
C817 C 0.74216 0.80646 0.69385 0.0
C818 C 0.7758 0.82862 0.70841 0.0
C819 C 0.86129 0.84504 0.72155 0.0
C820 C 0.91294 0.83787 0.72228 0.0
C821 C 0.82735 0.82185 0.70779 0.0
C822 C 0.93044 0.80757 0.70787 0.0
C823 C 0.89694 0.78483 0.69327 0.0
H824 H 0.68169 0.73651 0.14688 0.0
H825 H 0.73848 0.80165 0.21616 0.0
H826 H 0.67601 0.77572 0.2491 0.0
H827 H 0.60988 0.73041 0.25887 0.0
H828 H 0.55711 0.66399 0.18954 0.0
H829 H 0.61244 0.69479 0.15572 0.0
C830 C 0.68006 0.74526 0.16914 0.0
C831 C 0.71491 0.77066 0.17919 0.0
C832 C 0.64478 0.72986 0.1879 0.0
C833 C 0.71194 0.7822 0.20794 0.0
C834 C 0.67653 0.76715 0.22679 0.0
C835 C 0.61068 0.72283 0.23637 0.0
C836 C 0.5796 0.69496 0.22662 0.0
C837 C 0.64358 0.7403 0.21717 0.0
C838 C 0.58006 0.6857 0.19736 0.0
C839 C 0.61208 0.70311 0.1781 0.0
H840 H 0.24637 0.70752 0.35587 0.0
H841 H 0.32402 0.80794 0.36576 0.0
H842 H 0.39238 0.78626 0.33558 0.0
H843 H 0.43382 0.73637 0.30968 0.0
H844 H 0.36209 0.63344 0.30997 0.0
H845 H 0.28865 0.65795 0.33384 0.0
C846 C 0.27853 0.72473 0.35217 0.0
C847 C 0.27987 0.75926 0.36386 0.0
C848 C 0.31917 0.71135 0.33663 0.0
C849 C 0.32122 0.78134 0.35713 0.0
C850 C 0.36081 0.76879 0.34008 0.0
C851 C 0.4017 0.71964 0.31477 0.0
C852 C 0.4021 0.68352 0.30714 0.0
C853 C 0.36069 0.73355 0.33018 0.0
C854 C 0.36157 0.66156 0.31485 0.0
C855 C 0.31978 0.67552 0.32861 0.0
H856 H 0.24521 0.75367 0.80015 0.0
H857 H 0.25516 0.80745 0.88183 0.0
H858 H 0.18279 0.84424 0.86873 0.0
H859 H 0.11984 0.8632 0.8326 0.0
H860 H 0.10585 0.8051 0.75292 0.0
H861 H 0.17729 0.7686 0.76616 0.0
C862 C 0.23084 0.77308 0.81521 0.0
C863 C 0.25499 0.77788 0.84192 0.0
C864 C 0.18936 0.79391 0.80753 0.0
C865 C 0.23658 0.80315 0.86129 0.0
C866 C 0.19557 0.82432 0.85368 0.0
C867 C 0.1323 0.84246 0.81818 0.0
C868 C 0.10862 0.83794 0.79115 0.0
C869 C 0.17214 0.82032 0.82663 0.0
C870 C 0.12485 0.81051 0.77305 0.0
C871 C 0.1652 0.7891 0.7809 0.0
loop_
_geom_bond_atom_site_label_1
_geom_bond_atom_site_label_2
_geom_bond_distance
_geom_bond_site_symmetry_2
_ccdc_geom_bond_type
H0 C1 0.949 . S
C1 H0 0.949 . S
C1 C2 1.395 . S
C1 C3 1.391 . S
C2 C1 1.395 . S
C2 C5 1.390 . S
C3 C1 1.391 . S
C3 C7 1.387 . S
C3 C8 1.491 . S
H4 C5 0.950 . S
C5 C2 1.390 . S
C5 H4 0.950 . S
C5 C6 1.378 . S
C6 C5 1.378 . S
C6 C7 1.409 . S
C7 C3 1.387 . S
C7 C6 1.409 . S
C7 H9 0.951 . S
C8 C3 1.491 . S
C8 C10 1.382 . S
C8 C12 1.404 . S
H9 C7 0.951 . S
C10 C8 1.382 . S
C10 C11 1.390 . S
C10 H15 0.949 . S
C11 C10 1.390 . S
C11 C16 1.399 . S
C12 C8 1.404 . S
C12 H13 0.950 . S
C12 C14 1.375 . S
H13 C12 0.950 . S
C14 C12 1.375 . S
C14 C16 1.382 . S
C14 H18 0.950 . S
H15 C10 0.949 . S
C16 C11 1.399 . S
C16 C14 1.382 . S
C16 H17 0.952 . S
H17 C16 0.952 . S
H18 C14 0.950 . S
H19 C20 0.949 . S
C20 H19 0.949 . S
C20 C21 1.395 . S
C20 C22 1.391 . S
C21 C20 1.395 . S
C21 C24 1.390 . S
C22 C20 1.391 . S
C22 C26 1.387 . S
C22 C27 1.491 . S
H23 C24 0.950 . S
C24 C21 1.390 . S
C24 H23 0.950 . S
C24 C25 1.378 . S
C25 C24 1.378 . S
C25 C26 1.409 . S
C26 C22 1.387 . S
C26 C25 1.409 . S
C26 H28 0.951 . S
C27 C22 1.491 . S
C27 C29 1.382 . S
C27 C31 1.404 . S
H28 C26 0.951 . S
C29 C27 1.382 . S
C29 C30 1.390 . S
C29 H34 0.949 . S
C30 C29 1.390 . S
C30 C35 1.399 . S
C31 C27 1.404 . S
C31 H32 0.950 . S
C31 C33 1.375 . S
H32 C31 0.950 . S
C33 C31 1.375 . S
C33 C35 1.382 . S
C33 H37 0.950 . S
H34 C29 0.949 . S
C35 C30 1.399 . S
C35 C33 1.382 . S
C35 H36 0.952 . S
H36 C35 0.952 . S
H37 C33 0.950 . S
H38 C39 0.949 . S
C39 H38 0.949 . S
C39 C40 1.395 . S
C39 C41 1.391 . S
C40 C39 1.395 . S
C40 C43 1.390 . S
C41 C39 1.391 . S
C41 C45 1.387 . S
C41 C46 1.491 . S
H42 C43 0.950 . S
C43 C40 1.390 . S
C43 H42 0.950 . S
C43 C44 1.378 . S
C44 C43 1.378 . S
C44 C45 1.409 . S
C45 C41 1.387 . S
C45 C44 1.409 . S
C45 H47 0.951 . S
C46 C41 1.491 . S
C46 C48 1.382 . S
C46 C50 1.404 . S
H47 C45 0.951 . S
C48 C46 1.382 . S
C48 C49 1.390 . S
C48 H53 0.949 . S
C49 C48 1.390 . S
C49 C54 1.399 . S
C50 C46 1.404 . S
C50 H51 0.950 . S
C50 C52 1.375 . S
H51 C50 0.950 . S
C52 C50 1.375 . S
C52 C54 1.382 . S
C52 H56 0.950 . S
H53 C48 0.949 . S
C54 C49 1.399 . S
C54 C52 1.382 . S
C54 H55 0.952 . S
H55 C54 0.952 . S
H56 C52 0.950 . S
H57 C58 0.949 . S
C58 H57 0.949 . S
C58 C59 1.395 . S
C58 C60 1.391 . S
C59 C58 1.395 . S
C59 C62 1.390 . S
C60 C58 1.391 . S
C60 C64 1.387 . S
C60 C65 1.491 . S
H61 C62 0.950 . S
C62 C59 1.390 . S
C62 H61 0.950 . S
C62 C63 1.378 . S
C63 C62 1.378 . S
C63 C64 1.409 . S
C64 C60 1.387 . S
C64 C63 1.409 . S
C64 H66 0.951 . S
C65 C60 1.491 . S
C65 C67 1.382 . S
C65 C69 1.404 . S
H66 C64 0.951 . S
C67 C65 1.382 . S
C67 C68 1.390 . S
C67 H72 0.949 . S
C68 C67 1.390 . S
C68 C73 1.399 . S
C69 C65 1.404 . S
C69 H70 0.950 . S
C69 C71 1.375 . S
H70 C69 0.950 . S
C71 C69 1.375 . S
C71 C73 1.382 . S
C71 H75 0.950 . S
H72 C67 0.949 . S
C73 C68 1.399 . S
C73 C71 1.382 . S
C73 H74 0.952 . S
H74 C73 0.952 . S
H75 C71 0.950 . S
H76 C77 0.949 . S
C77 H76 0.949 . S
C77 C78 1.395 . S
C77 C79 1.391 . S
C78 C77 1.395 . S
C78 C81 1.390 . S
C79 C77 1.391 . S
C79 C83 1.387 . S
C79 C84 1.491 . S
H80 C81 0.950 . S
C81 C78 1.390 . S
C81 H80 0.950 . S
C81 C82 1.378 . S
C82 C81 1.378 . S
C82 C83 1.409 . S
C83 C79 1.387 . S
C83 C82 1.409 . S
C83 H85 0.951 . S
C84 C79 1.491 . S
C84 C86 1.382 . S
C84 C88 1.404 . S
H85 C83 0.951 . S
C86 C84 1.382 . S
C86 C87 1.390 . S
C86 H91 0.949 . S
C87 C86 1.390 . S
C87 C92 1.399 . S
C88 C84 1.404 . S
C88 H89 0.950 . S
C88 C90 1.375 . S
H89 C88 0.950 . S
C90 C88 1.375 . S
C90 C92 1.382 . S
C90 H94 0.950 . S
H91 C86 0.949 . S
C92 C87 1.399 . S
C92 C90 1.382 . S
C92 H93 0.952 . S
H93 C92 0.952 . S
H94 C90 0.950 . S
H95 C96 0.949 . S
C96 H95 0.949 . S
C96 C97 1.395 . S
C96 C98 1.391 . S
C97 C96 1.395 . S
C97 C100 1.390 . S
C98 C96 1.391 . S
C98 C102 1.387 . S
C98 C103 1.491 . S
H99 C100 0.950 . S
C100 C97 1.390 . S
C100 H99 0.950 . S
C100 C101 1.378 . S
C101 C100 1.378 . S
C101 C102 1.409 . S
C102 C98 1.387 . S
C102 C101 1.409 . S
C102 H104 0.951 . S
C103 C98 1.491 . S
C103 C105 1.382 . S
C103 C107 1.404 . S
H104 C102 0.951 . S
C105 C103 1.382 . S
C105 C106 1.390 . S
C105 H110 0.949 . S
C106 C105 1.390 . S
C106 C111 1.399 . S
C107 C103 1.404 . S
C107 H108 0.950 . S
C107 C109 1.375 . S
H108 C107 0.950 . S
C109 C107 1.375 . S
C109 C111 1.382 . S
C109 H113 0.950 . S
H110 C105 0.949 . S
C111 C106 1.399 . S
C111 C109 1.382 . S
C111 H112 0.952 . S
H112 C111 0.952 . S
H113 C109 0.950 . S
H114 C115 0.949 . S
C115 H114 0.949 . S
C115 C116 1.395 . S
C115 C117 1.391 . S
C116 C115 1.395 . S
C116 C119 1.390 . S
C117 C115 1.391 . S
C117 C121 1.387 . S
C117 C122 1.491 . S
H118 C119 0.950 . S
C119 C116 1.390 . S
C119 H118 0.950 . S
C119 C120 1.378 . S
C120 C119 1.378 . S
C120 C121 1.409 . S
C121 C117 1.387 . S
C121 C120 1.409 . S
C121 H123 0.951 . S
C122 C117 1.491 . S
C122 C124 1.382 . S
C122 C126 1.404 . S
H123 C121 0.951 . S
C124 C122 1.382 . S
C124 C125 1.390 . S
C124 H129 0.949 . S
C125 C124 1.390 . S
C125 C130 1.399 . S
C126 C122 1.404 . S
C126 H127 0.950 . S
C126 C128 1.375 . S
H127 C126 0.950 . S
C128 C126 1.375 . S
C128 C130 1.382 . S
C128 H132 0.950 . S
H129 C124 0.949 . S
C130 C125 1.399 . S
C130 C128 1.382 . S
C130 H131 0.952 . S
H131 C130 0.952 . S
H132 C128 0.950 . S
H133 C134 0.949 . S
C134 H133 0.949 . S
C134 C135 1.395 . S
C134 C136 1.391 . S
C135 C134 1.395 . S
C135 C138 1.390 . S
C136 C134 1.391 . S
C136 C140 1.387 . S
C136 C141 1.491 . S
H137 C138 0.950 . S
C138 C135 1.390 . S
C138 H137 0.950 . S
C138 C139 1.378 . S
C139 C138 1.378 . S
C139 C140 1.409 . S
C140 C136 1.387 . S
C140 C139 1.409 . S
C140 H142 0.951 . S
C141 C136 1.491 . S
C141 C143 1.382 . S
C141 C145 1.404 . S
H142 C140 0.951 . S
C143 C141 1.382 . S
C143 C144 1.390 . S
C143 H148 0.949 . S
C144 C143 1.390 . S
C144 C149 1.399 . S
C145 C141 1.404 . S
C145 H146 0.950 . S
C145 C147 1.375 . S
H146 C145 0.950 . S
C147 C145 1.375 . S
C147 C149 1.382 . S
C147 H151 0.950 . S
H148 C143 0.949 . S
C149 C144 1.399 . S
C149 C147 1.382 . S
C149 H150 0.952 . S
H150 C149 0.952 . S
H151 C147 0.950 . S
C152 C154 1.422 . S
C152 C156 1.415 . S
C152 N158 1.369 . S
C153 C154 1.421 1_565 S
C153 C155 1.417 . S
C153 C165 1.422 . S
C154 C152 1.422 . S
C154 C153 1.421 1_545 S
C154 N164 1.359 . S
C155 C153 1.417 . S
C155 C157 1.329 1_565 S
C155 H174 0.930 . S
C156 C152 1.415 . S
C156 C157 1.437 . S
C156 C160 1.413 . S
C157 C155 1.329 1_545 S
C157 C156 1.437 . S
C157 H179 0.929 . S
N158 C152 1.369 . S
N158 C159 1.338 . S
N158 Gd163 2.622 . S
C159 N158 1.338 . S
C159 C161 1.378 . S
C159 H171 0.929 . S
C160 C156 1.413 . S
C160 C161 1.348 . S
C160 H176 0.931 . S
C161 C159 1.378 . S
C161 C160 1.348 . S
C161 H177 0.930 . S
Gd162 N182 2.622 . S
Gd162 N189 2.570 . S
Gd162 O196 2.353 1_455 S
Gd162 O197 2.468 . S
Gd162 O198 2.427 . S
Gd162 O200 2.388 . S
Gd162 O201 2.386 . S
Gd162 O205 2.307 1_455 S
Gd162 C215 2.805 . S
Gd163 N158 2.622 . S
Gd163 N164 2.570 . S
Gd163 O195 2.386 . S
Gd163 O199 2.307 1_655 S
Gd163 O202 2.353 1_655 S
Gd163 O203 2.468 . S
Gd163 O204 2.427 . S
Gd163 O206 2.388 . S
Gd163 C227 2.805 . S
N164 C154 1.359 . S
N164 Gd163 2.570 . S
N164 C166 1.343 1_545 S
C165 C153 1.422 . S
C165 C167 1.321 . S
C165 H173 0.931 . S
C166 N164 1.343 1_565 S
C166 C167 1.390 . S
C166 H168 0.931 . S
C167 C165 1.321 . S
C167 C166 1.390 . S
C167 H169 0.930 . S
H168 C166 0.931 . S
H169 C167 0.930 . S
H170 C193 0.931 . S
H171 C159 0.929 . S
H172 C194 0.930 . S
H173 C165 0.931 . S
H174 C155 0.930 . S
H175 C184 0.929 . S
H176 C160 0.931 . S
H177 C161 0.930 . S
H178 C216 0.930 . S
H179 C157 0.929 . S
H180 C185 0.931 . S
H181 C186 0.930 . S
N182 Gd162 2.622 . S
N182 C183 1.369 . S
N182 C184 1.338 . S
C183 N182 1.369 . S
C183 C187 1.415 . S
C183 C190 1.422 . S
C184 H175 0.929 . S
C184 N182 1.338 . S
C184 C186 1.378 . S
C185 H180 0.931 . S
C185 C186 1.348 . S
C185 C187 1.413 . S
C186 H181 0.930 . S
C186 C184 1.378 . S
C186 C185 1.348 . S
C187 C183 1.415 . S
C187 C185 1.413 . S
C187 C217 1.437 . S
H188 C217 0.929 . S
N189 Gd162 2.570 . S
N189 C190 1.359 . S
N189 C193 1.343 . S
C190 C183 1.422 . S
C190 N189 1.359 . S
C190 C192 1.421 . S
C191 C192 1.422 . S
C191 C194 1.321 . S
C191 H218 0.931 . S
C192 C190 1.421 . S
C192 C191 1.422 . S
C192 C216 1.417 . S
C193 H170 0.931 . S
C193 N189 1.343 . S
C193 C194 1.390 . S
C194 H172 0.930 . S
C194 C191 1.321 . S
C194 C193 1.390 . S
O195 Gd163 2.386 . S
O195 C207 1.265 . S
O196 Gd162 2.353 1_655 S
O196 C207 1.242 . S
O197 Gd162 2.468 . S
O197 C215 1.263 . S
O198 Gd162 2.427 . S
O198 C215 1.252 . S
O199 Gd163 2.307 1_455 S
O199 C208 1.261 . S
O200 Gd162 2.388 . S
O200 C208 1.252 . S
O201 Gd162 2.386 . S
O201 C219 1.265 . S
O202 Gd163 2.353 1_455 S
O202 C219 1.242 . S
O203 Gd163 2.468 . S
O203 C227 1.263 . S
O204 Gd163 2.427 . S
O204 C227 1.252 . S
O205 Gd162 2.307 1_655 S
O205 C220 1.261 . S
O206 Gd163 2.388 . S
O206 C220 1.252 . S
C207 O195 1.265 . S
C207 O196 1.242 . S
C208 O199 1.261 . S
C208 O200 1.252 . S
C209 C212 1.394 . S
C209 C214 1.370 . S
C209 C215 1.500 . S
C210 C213 1.383 . S
C210 C214 1.395 . S
C211 C212 1.396 . S
C211 C213 1.365 . S
C211 H228 0.929 . S
C212 C209 1.394 . S
C212 C211 1.396 . S
C212 H229 0.930 . S
C213 C210 1.383 . S
C213 C211 1.365 . S
C213 H230 0.931 . S
C214 C209 1.370 . S
C214 C210 1.395 . S
C214 H231 0.930 . S
C215 Gd162 2.805 . S
C215 O197 1.263 . S
C215 O198 1.252 . S
C215 C209 1.500 . S
C216 H178 0.930 . S
C216 C192 1.417 . S
C216 C217 1.329 . S
C217 C187 1.437 . S
C217 H188 0.929 . S
C217 C216 1.329 . S
H218 C191 0.931 . S
C219 O201 1.265 . S
C219 O202 1.242 . S
C220 O205 1.261 . S
C220 O206 1.252 . S
C221 C224 1.394 . S
C221 C226 1.370 . S
C221 C227 1.500 . S
C222 C225 1.383 . S
C222 C226 1.395 . S
C223 C224 1.396 . S
C223 C225 1.365 . S
C223 H232 0.929 . S
C224 C221 1.394 . S
C224 C223 1.396 . S
C224 H233 0.930 . S
C225 C222 1.383 . S
C225 C223 1.365 . S
C225 H234 0.931 . S
C226 C221 1.370 . S
C226 C222 1.395 . S
C226 H235 0.930 . S
C227 Gd163 2.805 . S
C227 O203 1.263 . S
C227 O204 1.252 . S
C227 C221 1.500 . S
H228 C211 0.929 . S
H229 C212 0.930 . S
H230 C213 0.931 . S
H231 C214 0.930 . S
H232 C223 0.929 . S
H233 C224 0.930 . S
H234 C225 0.931 . S
H235 C226 0.930 . S
C236 C238 1.422 . S
C236 C240 1.415 . S
C236 N242 1.369 . S
C237 C238 1.421 . S
C237 C239 1.417 . S
C237 C249 1.422 . S
C238 C236 1.422 . S
C238 C237 1.421 . S
C238 N248 1.359 . S
C239 C237 1.417 . S
C239 C241 1.329 . S
C239 H258 0.930 . S
C240 C236 1.415 . S
C240 C241 1.437 . S
C240 C244 1.413 . S
C241 C239 1.329 . S
C241 C240 1.437 . S
C241 H263 0.929 . S
N242 C236 1.369 . S
N242 C243 1.338 . S
N242 Gd247 2.622 . S
C243 N242 1.338 . S
C243 C245 1.378 . S
C243 H255 0.929 . S
C244 C240 1.413 . S
C244 C245 1.348 . S
C244 H260 0.931 . S
C245 C243 1.378 . S
C245 C244 1.348 . S
C245 H261 0.930 . S
Gd246 N266 2.622 . S
Gd246 N273 2.570 . S
Gd246 O280 2.353 . S
Gd246 O281 2.468 . S
Gd246 O282 2.427 . S
Gd246 O284 2.388 . S
Gd246 O285 2.386 . S
Gd246 O289 2.307 . S
Gd246 C299 2.805 . S
Gd247 N242 2.622 . S
Gd247 N248 2.570 . S
Gd247 O279 2.386 . S
Gd247 O283 2.307 . S
Gd247 O286 2.353 . S
Gd247 O287 2.468 . S
Gd247 O288 2.427 . S
Gd247 O290 2.388 . S
Gd247 C311 2.805 . S
N248 C238 1.359 . S
N248 Gd247 2.570 . S
N248 C250 1.343 . S
C249 C237 1.422 . S
C249 C251 1.321 . S
C249 H257 0.931 . S
C250 N248 1.343 . S
C250 C251 1.390 . S
C250 H252 0.931 . S
C251 C249 1.321 . S
C251 C250 1.390 . S
C251 H253 0.930 . S
H252 C250 0.931 . S
H253 C251 0.930 . S
H254 C277 0.931 . S
H255 C243 0.929 . S
H256 C278 0.930 . S
H257 C249 0.931 . S
H258 C239 0.930 . S
H259 C268 0.929 . S
H260 C244 0.931 . S
H261 C245 0.930 . S
H262 C300 0.930 . S
H263 C241 0.929 . S
H264 C269 0.931 . S
H265 C270 0.930 . S
N266 Gd246 2.622 . S
N266 C267 1.369 . S
N266 C268 1.338 . S
C267 N266 1.369 . S
C267 C271 1.415 . S
C267 C274 1.422 . S
C268 H259 0.929 . S
C268 N266 1.338 . S
C268 C270 1.378 . S
C269 H264 0.931 . S
C269 C270 1.348 . S
C269 C271 1.413 . S
C270 H265 0.930 . S
C270 C268 1.378 . S
C270 C269 1.348 . S
C271 C267 1.415 . S
C271 C269 1.413 . S
C271 C301 1.437 . S
H272 C301 0.929 . S
N273 Gd246 2.570 . S
N273 C274 1.359 . S
N273 C277 1.343 . S
C274 C267 1.422 . S
C274 N273 1.359 . S
C274 C276 1.421 . S
C275 C276 1.422 . S
C275 C278 1.321 . S
C275 H302 0.931 . S
C276 C274 1.421 . S
C276 C275 1.422 . S
C276 C300 1.417 . S
C277 H254 0.931 . S
C277 N273 1.343 . S
C277 C278 1.390 . S
C278 H256 0.930 . S
C278 C275 1.321 . S
C278 C277 1.390 . S
O279 Gd247 2.386 . S
O279 C291 1.265 . S
O280 Gd246 2.353 . S
O280 C291 1.242 . S
O281 Gd246 2.468 . S
O281 C299 1.263 . S
O282 Gd246 2.427 . S
O282 C299 1.252 . S
O283 Gd247 2.307 . S
O283 C292 1.261 . S
O284 Gd246 2.388 . S
O284 C292 1.252 . S
O285 Gd246 2.386 . S
O285 C303 1.265 . S
O286 Gd247 2.353 . S
O286 C303 1.242 . S
O287 Gd247 2.468 . S
O287 C311 1.263 . S
O288 Gd247 2.427 . S
O288 C311 1.252 . S
O289 Gd246 2.307 . S
O289 C304 1.261 . S
O290 Gd247 2.388 . S
O290 C304 1.252 . S
C291 O279 1.265 . S
C291 O280 1.242 . S
C292 O283 1.261 . S
C292 O284 1.252 . S
C293 C296 1.394 . S
C293 C298 1.370 . S
C293 C299 1.500 . S
C294 C297 1.383 . S
C294 C298 1.395 . S
C295 C296 1.396 . S
C295 C297 1.365 . S
C295 H312 0.929 . S
C296 C293 1.394 . S
C296 C295 1.396 . S
C296 H313 0.930 . S
C297 C294 1.383 . S
C297 C295 1.365 . S
C297 H314 0.931 . S
C298 C293 1.370 . S
C298 C294 1.395 . S
C298 H315 0.930 . S
C299 Gd246 2.805 . S
C299 O281 1.263 . S
C299 O282 1.252 . S
C299 C293 1.500 . S
C300 H262 0.930 . S
C300 C276 1.417 . S
C300 C301 1.329 . S
C301 C271 1.437 . S
C301 H272 0.929 . S
C301 C300 1.329 . S
H302 C275 0.931 . S
C303 O285 1.265 . S
C303 O286 1.242 . S
C304 O289 1.261 . S
C304 O290 1.252 . S
C305 C308 1.394 . S
C305 C310 1.370 . S
C305 C311 1.500 . S
C306 C309 1.383 . S
C306 C310 1.395 . S
C307 C308 1.396 . S
C307 C309 1.365 . S
C307 H316 0.929 . S
C308 C305 1.394 . S
C308 C307 1.396 . S
C308 H317 0.930 . S
C309 C306 1.383 . S
C309 C307 1.365 . S
C309 H318 0.931 . S
C310 C305 1.370 . S
C310 C306 1.395 . S
C310 H319 0.930 . S
C311 Gd247 2.805 . S
C311 O287 1.263 . S
C311 O288 1.252 . S
C311 C305 1.500 . S
H312 C295 0.929 . S
H313 C296 0.930 . S
H314 C297 0.931 . S
H315 C298 0.930 . S
H316 C307 0.929 . S
H317 C308 0.930 . S
H318 C309 0.931 . S
H319 C310 0.930 . S
C320 C322 1.422 . S
C320 C324 1.415 . S
C320 N326 1.369 . S
C321 C322 1.421 . S
C321 C323 1.417 . S
C321 C333 1.422 . S
C322 C320 1.422 . S
C322 C321 1.421 . S
C322 N332 1.359 . S
C323 C321 1.417 . S
C323 C325 1.329 . S
C323 H342 0.930 . S
C324 C320 1.415 . S
C324 C325 1.437 . S
C324 C328 1.413 . S
C325 C323 1.329 . S
C325 C324 1.437 . S
C325 H347 0.929 . S
N326 C320 1.369 . S
N326 C327 1.338 . S
N326 Gd331 2.622 . S
C327 N326 1.338 . S
C327 C329 1.378 . S
C327 H339 0.929 . S
C328 C324 1.413 . S
C328 C329 1.348 . S
C328 H344 0.931 . S
C329 C327 1.378 . S
C329 C328 1.348 . S
C329 H345 0.930 . S
Gd330 N350 2.622 . S
Gd330 N357 2.570 . S
Gd330 O364 2.368 . S
Gd330 O365 2.468 . S
Gd330 O366 2.427 . S
Gd330 O368 2.388 . S
Gd330 O369 2.386 . S
Gd330 O373 2.311 . S
Gd330 C383 2.805 . S
Gd331 N326 2.622 . S
Gd331 N332 2.570 . S
Gd331 O363 2.386 . S
Gd331 O367 2.307 1_655 S
Gd331 O370 2.353 1_655 S
Gd331 O371 2.468 . S
Gd331 O372 2.427 . S
Gd331 O374 2.388 . S
Gd331 C395 2.805 . S
N332 C322 1.359 . S
N332 Gd331 2.570 . S
N332 C334 1.343 . S
C333 C321 1.422 . S
C333 C335 1.321 . S
C333 H341 0.931 . S
C334 N332 1.343 . S
C334 C335 1.390 . S
C334 H336 0.931 . S
C335 C333 1.321 . S
C335 C334 1.390 . S
C335 H337 0.930 . S
H336 C334 0.931 . S
H337 C335 0.930 . S
H338 C361 0.931 . S
H339 C327 0.929 . S
H340 C362 0.930 . S
H341 C333 0.931 . S
H342 C323 0.930 . S
H343 C352 0.929 . S
H344 C328 0.931 . S
H345 C329 0.930 . S
H346 C384 0.930 . S
H347 C325 0.929 . S
H348 C353 0.931 . S
H349 C354 0.930 . S
N350 Gd330 2.622 . S
N350 C351 1.369 . S
N350 C352 1.338 . S
C351 N350 1.369 . S
C351 C355 1.415 . S
C351 C358 1.422 . S
C352 H343 0.929 . S
C352 N350 1.338 . S
C352 C354 1.378 . S
C353 H348 0.931 . S
C353 C354 1.348 . S
C353 C355 1.413 . S
C354 H349 0.930 . S
C354 C352 1.378 . S
C354 C353 1.348 . S
C355 C351 1.415 . S
C355 C353 1.413 . S
C355 C385 1.437 . S
H356 C385 0.929 . S
N357 Gd330 2.570 . S
N357 C358 1.359 . S
N357 C361 1.343 1_565 S
C358 C351 1.422 . S
C358 N357 1.359 . S
C358 C360 1.421 1_565 S
C359 C360 1.422 . S
C359 C362 1.321 . S
C359 H386 0.931 . S
C360 C358 1.421 1_545 S
C360 C359 1.422 . S
C360 C384 1.417 . S
C361 H338 0.931 . S
C361 N357 1.343 1_545 S
C361 C362 1.390 . S
C362 H340 0.930 . S
C362 C359 1.321 . S
C362 C361 1.390 . S
O363 Gd331 2.386 . S
O363 C375 1.265 . S
O364 Gd330 2.368 . S
O364 C375 1.223 1_455 S
O365 Gd330 2.468 . S
O365 C383 1.263 . S
O366 Gd330 2.427 . S
O366 C383 1.252 . S
O367 Gd331 2.307 1_455 S
O367 C376 1.261 . S
O368 Gd330 2.388 . S
O368 C376 1.252 . S
O369 Gd330 2.386 . S
O369 C387 1.265 . S
O370 Gd331 2.353 1_455 S
O370 C387 1.242 . S
O371 Gd331 2.468 . S
O371 C395 1.263 . S
O372 Gd331 2.427 . S
O372 C395 1.252 . S
O373 Gd330 2.311 . S
O373 C388 1.257 1_455 S
O374 Gd331 2.388 . S
O374 C388 1.252 . S
C375 O363 1.265 . S
C375 O364 1.223 1_655 S
C376 O367 1.261 . S
C376 O368 1.252 . S
C377 C380 1.394 . S
C377 C382 1.370 . S
C377 C383 1.500 . S
C378 C381 1.383 . S
C378 C382 1.395 . S
C379 C380 1.396 . S
C379 C381 1.365 . S
C379 H396 0.929 . S
C380 C377 1.394 . S
C380 C379 1.396 . S
C380 H397 0.930 . S
C381 C378 1.383 . S
C381 C379 1.365 . S
C381 H398 0.931 . S
C382 C377 1.370 . S
C382 C378 1.395 . S
C382 H399 0.930 . S
C383 Gd330 2.805 . S
C383 O365 1.263 . S
C383 O366 1.252 . S
C383 C377 1.500 . S
C384 H346 0.930 . S
C384 C360 1.417 . S
C384 C385 1.329 1_545 S
C385 C355 1.437 . S
C385 H356 0.929 . S
C385 C384 1.329 1_565 S
H386 C359 0.931 . S
C387 O369 1.265 . S
C387 O370 1.242 . S
C388 O373 1.257 1_655 S
C388 O374 1.252 . S
C389 C392 1.394 . S
C389 C394 1.370 . S
C389 C395 1.500 . S
C390 C393 1.383 . S
C390 C394 1.395 . S
C391 C392 1.396 . S
C391 C393 1.365 . S
C391 H400 0.929 . S
C392 C389 1.394 . S
C392 C391 1.396 . S
C392 H401 0.930 . S
C393 C390 1.383 . S
C393 C391 1.365 . S
C393 H402 0.931 . S
C394 C389 1.370 . S
C394 C390 1.395 . S
C394 H403 0.930 . S
C395 Gd331 2.805 . S
C395 O371 1.263 . S
C395 O372 1.252 . S
C395 C389 1.500 . S
H396 C379 0.929 . S
H397 C380 0.930 . S
H398 C381 0.931 . S
H399 C382 0.930 . S
H400 C391 0.929 . S
H401 C392 0.930 . S
H402 C393 0.931 . S
H403 C394 0.930 . S
C404 C406 1.422 . S
C404 C408 1.415 . S
C404 N410 1.369 . S
C405 C406 1.421 . S
C405 C407 1.417 . S
C405 C417 1.422 . S
C406 C404 1.422 . S
C406 C405 1.421 . S
C406 N416 1.359 . S
C407 C405 1.417 . S
C407 C409 1.329 . S
C407 H426 0.930 . S
C408 C404 1.415 . S
C408 C409 1.437 . S
C408 C412 1.413 . S
C409 C407 1.329 . S
C409 C408 1.437 . S
C409 H431 0.929 . S
N410 C404 1.369 . S
N410 C411 1.338 . S
N410 Gd415 2.622 . S
C411 N410 1.338 . S
C411 C413 1.378 . S
C411 H423 0.929 . S
C412 C408 1.413 . S
C412 C413 1.348 . S
C412 H428 0.931 . S
C413 C411 1.378 . S
C413 C412 1.348 . S
C413 H429 0.930 . S
Gd414 N434 2.622 . S
Gd414 N441 2.570 . S
Gd414 O448 2.353 . S
Gd414 O449 2.468 . S
Gd414 O450 2.427 . S
Gd414 O452 2.388 . S
Gd414 O453 2.386 . S
Gd414 O457 2.307 . S
Gd414 C467 2.805 . S
Gd415 N410 2.622 . S
Gd415 N416 2.570 . S
Gd415 O447 2.386 . S
Gd415 O451 2.307 . S
Gd415 O454 2.353 . S
Gd415 O455 2.468 . S
Gd415 O456 2.427 . S
Gd415 O458 2.388 . S
Gd415 C479 2.805 . S
N416 C406 1.359 . S
N416 Gd415 2.570 . S
N416 C418 1.343 . S
C417 C405 1.422 . S
C417 C419 1.321 . S
C417 H425 0.931 . S
C418 N416 1.343 . S
C418 C419 1.390 . S
C418 H420 0.931 . S
C419 C417 1.321 . S
C419 C418 1.390 . S
C419 H421 0.930 . S
H420 C418 0.931 . S
H421 C419 0.930 . S
H422 C445 0.931 . S
H423 C411 0.929 . S
H424 C446 0.930 . S
H425 C417 0.931 . S
H426 C407 0.930 . S
H427 C436 0.929 . S
H428 C412 0.931 . S
H429 C413 0.930 . S
H430 C468 0.930 . S
H431 C409 0.929 . S
H432 C437 0.931 . S
H433 C438 0.930 . S
N434 Gd414 2.622 . S
N434 C435 1.369 . S
N434 C436 1.338 . S
C435 N434 1.369 . S
C435 C439 1.415 . S
C435 C442 1.422 . S
C436 H427 0.929 . S
C436 N434 1.338 . S
C436 C438 1.378 . S
C437 H432 0.931 . S
C437 C438 1.348 . S
C437 C439 1.413 . S
C438 H433 0.930 . S
C438 C436 1.378 . S
C438 C437 1.348 . S
C439 C435 1.415 . S
C439 C437 1.413 . S
C439 C469 1.437 . S
H440 C469 0.929 . S
N441 Gd414 2.570 . S
N441 C442 1.359 . S
N441 C445 1.343 . S
C442 C435 1.422 . S
C442 N441 1.359 . S
C442 C444 1.421 . S
C443 C444 1.422 . S
C443 C446 1.321 . S
C443 H470 0.931 . S
C444 C442 1.421 . S
C444 C443 1.422 . S
C444 C468 1.417 . S
C445 H422 0.931 . S
C445 N441 1.343 . S
C445 C446 1.390 . S
C446 H424 0.930 . S
C446 C443 1.321 . S
C446 C445 1.390 . S
O447 Gd415 2.386 . S
O447 C459 1.265 . S
O448 Gd414 2.353 . S
O448 C459 1.242 . S
O449 Gd414 2.468 . S
O449 C467 1.263 . S
O450 Gd414 2.427 . S
O450 C467 1.252 . S
O451 Gd415 2.307 . S
O451 C460 1.261 . S
O452 Gd414 2.388 . S
O452 C460 1.252 . S
O453 Gd414 2.386 . S
O453 C471 1.265 . S
O454 Gd415 2.353 . S
O454 C471 1.242 . S
O455 Gd415 2.468 . S
O455 C479 1.263 . S
O456 Gd415 2.427 . S
O456 C479 1.252 . S
O457 Gd414 2.307 . S
O457 C472 1.261 . S
O458 Gd415 2.388 . S
O458 C472 1.252 . S
C459 O447 1.265 . S
C459 O448 1.242 . S
C460 O451 1.261 . S
C460 O452 1.252 . S
C461 C464 1.394 . S
C461 C466 1.370 . S
C461 C467 1.500 . S
C462 C465 1.383 . S
C462 C466 1.395 . S
C463 C464 1.396 . S
C463 C465 1.365 . S
C463 H480 0.929 . S
C464 C461 1.394 . S
C464 C463 1.396 . S
C464 H481 0.930 . S
C465 C462 1.383 . S
C465 C463 1.365 . S
C465 H482 0.931 . S
C466 C461 1.370 . S
C466 C462 1.395 . S
C466 H483 0.930 . S
C467 Gd414 2.805 . S
C467 O449 1.263 . S
C467 O450 1.252 . S
C467 C461 1.500 . S
C468 H430 0.930 . S
C468 C444 1.417 . S
C468 C469 1.329 . S
C469 C439 1.437 . S
C469 H440 0.929 . S
C469 C468 1.329 . S
H470 C443 0.931 . S
C471 O453 1.265 . S
C471 O454 1.242 . S
C472 O457 1.261 . S
C472 O458 1.252 . S
C473 C476 1.394 . S
C473 C478 1.370 . S
C473 C479 1.500 . S
C474 C477 1.383 . S
C474 C478 1.395 . S
C475 C476 1.396 . S
C475 C477 1.365 . S
C475 H484 0.929 . S
C476 C473 1.394 . S
C476 C475 1.396 . S
C476 H485 0.930 . S
C477 C474 1.383 . S
C477 C475 1.365 . S
C477 H486 0.931 . S
C478 C473 1.370 . S
C478 C474 1.395 . S
C478 H487 0.930 . S
C479 Gd415 2.805 . S
C479 O455 1.263 . S
C479 O456 1.252 . S
C479 C473 1.500 . S
H480 C463 0.929 . S
H481 C464 0.930 . S
H482 C465 0.931 . S
H483 C466 0.930 . S
H484 C475 0.929 . S
H485 C476 0.930 . S
H486 C477 0.931 . S
H487 C478 0.930 . S
H488 C494 0.930 . S
H489 C497 0.930 . S
H490 C498 0.930 . S
H491 C499 0.930 . S
H492 C502 0.930 . S
H493 C503 0.930 1_545 S
C494 H488 0.930 . S
C494 C495 1.355 . S
C494 C496 1.415 . S
C495 C494 1.355 . S
C495 C497 1.419 . S
C496 C494 1.415 . S
C496 C501 1.425 . S
C496 C503 1.409 . S
C497 H489 0.930 . S
C497 C495 1.419 . S
C497 C498 1.362 . S
C498 H490 0.930 . S
C498 C497 1.362 . S
C498 C501 1.409 . S
C499 H491 0.930 . S
C499 C500 1.355 1_565 S
C499 C501 1.415 . S
C500 C499 1.355 1_545 S
C500 C502 1.419 . S
C501 C496 1.425 . S
C501 C498 1.409 . S
C501 C499 1.415 . S
C502 H492 0.930 . S
C502 C500 1.419 . S
C502 C503 1.362 1_545 S
C503 H493 0.930 1_565 S
C503 C496 1.409 . S
C503 C502 1.362 1_565 S
H504 C510 0.930 . S
H505 C513 0.930 . S
H506 C514 0.930 . S
H507 C515 0.930 . S
H508 C518 0.930 . S
H509 C519 0.930 . S
C510 H504 0.930 . S
C510 C511 1.355 . S
C510 C512 1.415 . S
C511 C510 1.355 . S
C511 C513 1.419 . S
C512 C510 1.415 . S
C512 C517 1.425 . S
C512 C519 1.409 . S
C513 H505 0.930 . S
C513 C511 1.419 . S
C513 C514 1.362 . S
C514 H506 0.930 . S
C514 C513 1.362 . S
C514 C517 1.409 . S
C515 H507 0.930 . S
C515 C516 1.355 . S
C515 C517 1.415 . S
C516 C515 1.355 . S
C516 C518 1.419 . S
C517 C512 1.425 . S
C517 C514 1.409 . S
C517 C515 1.415 . S
C518 H508 0.930 . S
C518 C516 1.419 . S
C518 C519 1.362 . S
C519 H509 0.930 . S
C519 C512 1.409 . S
C519 C518 1.362 . S
H520 C526 0.930 . S
H521 C529 0.930 . S
H522 C530 0.930 . S
H523 C531 0.930 . S
H524 C534 0.930 . S
H525 C535 0.930 . S
C526 H520 0.930 . S
C526 C527 1.355 . S
C526 C528 1.415 . S
C527 C526 1.355 . S
C527 C529 1.419 . S
C528 C526 1.415 . S
C528 C533 1.425 . S
C528 C535 1.409 . S
C529 H521 0.930 . S
C529 C527 1.419 . S
C529 C530 1.362 . S
C530 H522 0.930 . S
C530 C529 1.362 . S
C530 C533 1.409 . S
C531 H523 0.930 . S
C531 C532 1.355 . S
C531 C533 1.415 . S
C532 C531 1.355 . S
C532 C534 1.419 . S
C533 C528 1.425 . S
C533 C530 1.409 . S
C533 C531 1.415 . S
C534 H524 0.930 . S
C534 C532 1.419 . S
C534 C535 1.362 . S
C535 H525 0.930 . S
C535 C528 1.409 . S
C535 C534 1.362 . S
H536 C542 0.930 . S
H537 C545 0.930 . S
H538 C546 0.930 . S
H539 C547 0.930 . S
H540 C550 0.930 . S
H541 C551 0.930 . S
C542 H536 0.930 . S
C542 C543 1.355 . S
C542 C544 1.415 . S
C543 C542 1.355 . S
C543 C545 1.419 . S
C544 C542 1.415 . S
C544 C549 1.425 . S
C544 C551 1.409 1_565 S
C545 H537 0.930 . S
C545 C543 1.419 . S
C545 C546 1.362 . S
C546 H538 0.930 . S
C546 C545 1.362 . S
C546 C549 1.409 . S
C547 H539 0.930 . S
C547 C548 1.355 1_565 S
C547 C549 1.415 . S
C548 C547 1.355 1_545 S
C548 C550 1.419 . S
C549 C544 1.425 . S
C549 C546 1.409 . S
C549 C547 1.415 . S
C550 H540 0.930 . S
C550 C548 1.419 . S
C550 C551 1.362 . S
C551 H541 0.930 . S
C551 C544 1.409 1_545 S
C551 C550 1.362 . S
H552 C558 0.930 . S
H553 C561 0.930 . S
H554 C562 0.930 . S
H555 C563 0.930 . S
H556 C566 0.930 1_565 S
H557 C567 0.930 . S
C558 H552 0.930 . S
C558 C559 1.355 . S
C558 C560 1.415 . S
C559 C558 1.355 . S
C559 C561 1.419 . S
C560 C558 1.415 . S
C560 C565 1.425 . S
C560 C567 1.409 . S
C561 H553 0.930 . S
C561 C559 1.419 . S
C561 C562 1.362 . S
C562 H554 0.930 . S
C562 C561 1.362 . S
C562 C565 1.409 . S
C563 H555 0.930 . S
C563 C564 1.355 1_545 S
C563 C565 1.415 . S
C564 C563 1.355 1_565 S
C564 C566 1.419 1_565 S
C565 C560 1.425 . S
C565 C562 1.409 . S
C565 C563 1.415 . S
C566 H556 0.930 1_545 S
C566 C564 1.419 1_545 S
C566 C567 1.362 . S
C567 H557 0.930 . S
C567 C560 1.409 . S
C567 C566 1.362 . S
H568 C574 0.930 . S
H569 C577 0.930 . S
H570 C578 0.930 . S
H571 C579 0.930 . S
H572 C582 0.930 . S
H573 C583 0.930 . S
C574 H568 0.930 . S
C574 C575 1.355 . S
C574 C576 1.415 . S
C575 C574 1.355 . S
C575 C577 1.419 . S
C576 C574 1.415 . S
C576 C581 1.425 . S
C576 C583 1.409 . S
C577 H569 0.930 . S
C577 C575 1.419 . S
C577 C578 1.362 . S
C578 H570 0.930 . S
C578 C577 1.362 . S
C578 C581 1.409 . S
C579 H571 0.930 . S
C579 C580 1.355 . S
C579 C581 1.415 . S
C580 C579 1.355 . S
C580 C582 1.419 . S
C581 C576 1.425 . S
C581 C578 1.409 . S
C581 C579 1.415 . S
C582 H572 0.930 . S
C582 C580 1.419 . S
C582 C583 1.362 . S
C583 H573 0.930 . S
C583 C576 1.409 . S
C583 C582 1.362 . S
H584 C590 0.930 . S
H585 C593 0.930 . S
H586 C594 0.930 . S
H587 C595 0.930 . S
H588 C598 0.930 . S
H589 C599 0.930 . S
C590 H584 0.930 . S
C590 C591 1.355 . S
C590 C592 1.415 . S
C591 C590 1.355 . S
C591 C593 1.419 . S
C592 C590 1.415 . S
C592 C597 1.425 . S
C592 C599 1.409 . S
C593 H585 0.930 . S
C593 C591 1.419 . S
C593 C594 1.362 . S
C594 H586 0.930 . S
C594 C593 1.362 . S
C594 C597 1.409 . S
C595 H587 0.930 . S
C595 C596 1.355 . S
C595 C597 1.415 . S
C596 C595 1.355 . S
C596 C598 1.419 . S
C597 C592 1.425 . S
C597 C594 1.409 . S
C597 C595 1.415 . S
C598 H588 0.930 . S
C598 C596 1.419 . S
C598 C599 1.362 . S
C599 H589 0.930 . S
C599 C592 1.409 . S
C599 C598 1.362 . S
H600 C606 0.930 . S
H601 C609 0.930 . S
H602 C610 0.930 . S
H603 C611 0.930 . S
H604 C614 0.930 . S
H605 C615 0.930 . S
C606 H600 0.930 . S
C606 C607 1.355 . S
C606 C608 1.415 . S
C607 C606 1.355 . S
C607 C609 1.419 . S
C608 C606 1.415 . S
C608 C613 1.425 . S
C608 C615 1.409 1_545 S
C609 H601 0.930 . S
C609 C607 1.419 . S
C609 C610 1.362 . S
C610 H602 0.930 . S
C610 C609 1.362 . S
C610 C613 1.409 . S
C611 H603 0.930 . S
C611 C612 1.355 1_545 S
C611 C613 1.415 . S
C612 C611 1.355 1_565 S
C612 C614 1.419 . S
C613 C608 1.425 . S
C613 C610 1.409 . S
C613 C611 1.415 . S
C614 H604 0.930 . S
C614 C612 1.419 . S
C614 C615 1.362 . S
C615 H605 0.930 . S
C615 C608 1.409 1_565 S
C615 C614 1.362 . S
H616 C622 0.930 . S
H617 C625 0.930 . S
H618 C626 0.930 . S
H619 C627 0.930 . S
H620 C630 0.930 . S
H621 C631 0.930 . S
C622 H616 0.930 . S
C622 C623 1.355 . S
C622 C624 1.415 1_556 S
C623 C622 1.355 . S
C623 C625 1.419 . S
C624 C622 1.415 1_554 S
C624 C629 1.425 . S
C624 C631 1.409 . S
C625 H617 0.930 . S
C625 C623 1.419 . S
C625 C626 1.362 1_556 S
C626 H618 0.930 . S
C626 C625 1.362 1_554 S
C626 C629 1.409 . S
C627 H619 0.930 . S
C627 C628 1.355 . S
C627 C629 1.415 . S
C628 C627 1.355 . S
C628 C630 1.419 . S
C629 C624 1.425 . S
C629 C626 1.409 . S
C629 C627 1.415 . S
C630 H620 0.930 . S
C630 C628 1.419 . S
C630 C631 1.362 . S
C631 H621 0.930 . S
C631 C624 1.409 . S
C631 C630 1.362 . S
H632 C638 0.930 . S
H633 C641 0.930 . S
H634 C642 0.930 . S
H635 C643 0.930 . S
H636 C646 0.930 . S
H637 C647 0.930 . S
C638 H632 0.930 . S
C638 C639 1.355 . S
C638 C640 1.415 . S
C639 C638 1.355 . S
C639 C641 1.419 . S
C640 C638 1.415 . S
C640 C645 1.425 . S
C640 C647 1.409 . S
C641 H633 0.930 . S
C641 C639 1.419 . S
C641 C642 1.362 . S
C642 H634 0.930 . S
C642 C641 1.362 . S
C642 C645 1.409 . S
C643 H635 0.930 . S
C643 C644 1.355 . S
C643 C645 1.415 . S
C644 C643 1.355 . S
C644 C646 1.419 . S
C645 C640 1.425 . S
C645 C642 1.409 . S
C645 C643 1.415 . S
C646 H636 0.930 . S
C646 C644 1.419 . S
C646 C647 1.362 . S
C647 H637 0.930 . S
C647 C640 1.409 . S
C647 C646 1.362 . S
H648 C654 0.930 . S
H649 C657 0.930 . S
H650 C658 0.930 . S
H651 C659 0.930 . S
H652 C662 0.930 . S
H653 C663 0.930 . S
C654 H648 0.930 . S
C654 C655 1.355 . S
C654 C656 1.415 1_554 S
C655 C654 1.355 . S
C655 C657 1.419 . S
C656 C654 1.415 1_556 S
C656 C661 1.425 . S
C656 C663 1.409 . S
C657 H649 0.930 . S
C657 C655 1.419 . S
C657 C658 1.362 . S
C658 H650 0.930 . S
C658 C657 1.362 . S
C658 C661 1.409 1_554 S
C659 H651 0.930 . S
C659 C660 1.355 . S
C659 C661 1.415 . S
C660 C659 1.355 . S
C660 C662 1.419 . S
C661 C656 1.425 . S
C661 C658 1.409 1_556 S
C661 C659 1.415 . S
C662 H652 0.930 . S
C662 C660 1.419 . S
C662 C663 1.362 . S
C663 H653 0.930 . S
C663 C656 1.409 . S
C663 C662 1.362 . S
H664 C670 0.930 . S
H665 C673 0.930 . S
H666 C674 0.930 . S
H667 C675 0.930 . S
H668 C678 0.930 . S
H669 C679 0.930 . S
C670 H664 0.930 . S
C670 C671 1.355 . S
C670 C672 1.415 . S
C671 C670 1.355 . S
C671 C673 1.419 . S
C672 C670 1.415 . S
C672 C677 1.425 . S
C672 C679 1.409 . S
C673 H665 0.930 . S
C673 C671 1.419 . S
C673 C674 1.362 . S
C674 H666 0.930 . S
C674 C673 1.362 . S
C674 C677 1.409 . S
C675 H667 0.930 . S
C675 C676 1.355 . S
C675 C677 1.415 . S
C676 C675 1.355 . S
C676 C678 1.419 . S
C677 C672 1.425 . S
C677 C674 1.409 . S
C677 C675 1.415 . S
C678 H668 0.930 . S
C678 C676 1.419 . S
C678 C679 1.362 . S
C679 H669 0.930 . S
C679 C672 1.409 . S
C679 C678 1.362 . S
H680 C686 0.930 . S
H681 C689 0.930 . S
H682 C690 0.930 . S
H683 C691 0.930 . S
H684 C694 0.930 . S
H685 C695 0.930 1_554 S
C686 H680 0.930 . S
C686 C687 1.355 . S
C686 C688 1.415 1_554 S
C687 C686 1.355 . S
C687 C689 1.419 . S
C688 C686 1.415 1_556 S
C688 C693 1.425 . S
C688 C695 1.409 . S
C689 H681 0.930 . S
C689 C687 1.419 . S
C689 C690 1.362 1_554 S
C690 H682 0.930 . S
C690 C689 1.362 1_556 S
C690 C693 1.409 . S
C691 H683 0.930 . S
C691 C692 1.355 . S
C691 C693 1.415 . S
C692 C691 1.355 . S
C692 C694 1.419 . S
C693 C688 1.425 . S
C693 C690 1.409 . S
C693 C691 1.415 . S
C694 H684 0.930 . S
C694 C692 1.419 . S
C694 C695 1.362 . S
C695 H685 0.930 1_556 S
C695 C688 1.409 . S
C695 C694 1.362 . S
H696 C702 0.930 . S
H697 C705 0.930 . S
H698 C706 0.930 . S
H699 C707 0.930 . S
H700 C710 0.930 . S
H701 C711 0.930 . S
C702 H696 0.930 . S
C702 C703 1.355 . S
C702 C704 1.415 . S
C703 C702 1.355 . S
C703 C705 1.419 . S
C704 C702 1.415 . S
C704 C709 1.425 . S
C704 C711 1.409 . S
C705 H697 0.930 . S
C705 C703 1.419 . S
C705 C706 1.362 . S
C706 H698 0.930 . S
C706 C705 1.362 . S
C706 C709 1.409 . S
C707 H699 0.930 . S
C707 C708 1.355 . S
C707 C709 1.415 . S
C708 C707 1.355 . S
C708 C710 1.419 . S
C709 C704 1.425 . S
C709 C706 1.409 . S
C709 C707 1.415 . S
C710 H700 0.930 . S
C710 C708 1.419 . S
C710 C711 1.362 . S
C711 H701 0.930 . S
C711 C704 1.409 . S
C711 C710 1.362 . S
H712 C718 0.930 . S
H713 C721 0.930 . S
H714 C722 0.930 . S
H715 C723 0.930 . S
H716 C726 0.930 . S
H717 C727 0.930 1_556 S
C718 H712 0.930 . S
C718 C719 1.355 . S
C718 C720 1.415 1_556 S
C719 C718 1.355 . S
C719 C721 1.419 . S
C720 C718 1.415 1_554 S
C720 C725 1.425 . S
C720 C727 1.409 . S
C721 H713 0.930 . S
C721 C719 1.419 . S
C721 C722 1.362 1_556 S
C722 H714 0.930 . S
C722 C721 1.362 1_554 S
C722 C725 1.409 . S
C723 H715 0.930 . S
C723 C724 1.355 . S
C723 C725 1.415 . S
C724 C723 1.355 . S
C724 C726 1.419 . S
C725 C720 1.425 . S
C725 C722 1.409 . S
C725 C723 1.415 . S
C726 H716 0.930 . S
C726 C724 1.419 . S
C726 C727 1.362 . S
C727 H717 0.930 1_554 S
C727 C720 1.409 . S
C727 C726 1.362 . S
H728 C734 0.930 . S
H729 C737 0.930 . S
H730 C738 0.930 . S
H731 C739 0.930 . S
H732 C742 0.930 . S
H733 C743 0.930 . S
C734 H728 0.930 . S
C734 C735 1.355 . S
C734 C736 1.415 . S
C735 C734 1.355 . S
C735 C737 1.419 . S
C736 C734 1.415 . S
C736 C741 1.425 . S
C736 C743 1.409 . S
C737 H729 0.930 . S
C737 C735 1.419 . S
C737 C738 1.362 . S
C738 H730 0.930 . S
C738 C737 1.362 . S
C738 C741 1.409 . S
C739 H731 0.930 . S
C739 C740 1.355 . S
C739 C741 1.415 . S
C740 C739 1.355 . S
C740 C742 1.419 . S
C741 C736 1.425 . S
C741 C738 1.409 . S
C741 C739 1.415 . S
C742 H732 0.930 . S
C742 C740 1.419 . S
C742 C743 1.362 . S
C743 H733 0.930 . S
C743 C736 1.409 . S
C743 C742 1.362 . S
H744 C750 0.930 . S
H745 C753 0.930 . S
H746 C754 0.930 . S
H747 C755 0.930 . S
H748 C758 0.930 . S
H749 C759 0.930 . S
C750 H744 0.930 . S
C750 C751 1.355 . S
C750 C752 1.415 . S
C751 C750 1.355 . S
C751 C753 1.419 . S
C752 C750 1.415 . S
C752 C757 1.425 . S
C752 C759 1.409 . S
C753 H745 0.930 . S
C753 C751 1.419 . S
C753 C754 1.362 . S
C754 H746 0.930 . S
C754 C753 1.362 . S
C754 C757 1.409 . S
C755 H747 0.930 . S
C755 C756 1.355 . S
C755 C757 1.415 . S
C756 C755 1.355 . S
C756 C758 1.419 . S
C757 C752 1.425 . S
C757 C754 1.409 . S
C757 C755 1.415 . S
C758 H748 0.930 . S
C758 C756 1.419 . S
C758 C759 1.362 . S
C759 H749 0.930 . S
C759 C752 1.409 . S
C759 C758 1.362 . S
H760 C766 0.930 . S
H761 C769 0.930 . S
H762 C770 0.930 . S
H763 C771 0.930 . S
H764 C774 0.930 . S
H765 C775 0.930 . S
C766 H760 0.930 . S
C766 C767 1.355 . S
C766 C768 1.415 . S
C767 C766 1.355 . S
C767 C769 1.419 . S
C768 C766 1.415 . S
C768 C773 1.425 . S
C768 C775 1.409 . S
C769 H761 0.930 . S
C769 C767 1.419 . S
C769 C770 1.362 . S
C770 H762 0.930 . S
C770 C769 1.362 . S
C770 C773 1.409 . S
C771 H763 0.930 . S
C771 C772 1.355 . S
C771 C773 1.415 . S
C772 C771 1.355 . S
C772 C774 1.419 . S
C773 C768 1.425 . S
C773 C770 1.409 . S
C773 C771 1.415 . S
C774 H764 0.930 . S
C774 C772 1.419 . S
C774 C775 1.362 . S
C775 H765 0.930 . S
C775 C768 1.409 . S
C775 C774 1.362 . S
H776 C782 0.930 . S
H777 C785 0.930 . S
H778 C786 0.930 . S
H779 C787 0.930 . S
H780 C790 0.930 . S
H781 C791 0.930 . S
C782 H776 0.930 . S
C782 C783 1.355 . S
C782 C784 1.415 . S
C783 C782 1.355 . S
C783 C785 1.419 . S
C784 C782 1.415 . S
C784 C789 1.425 . S
C784 C791 1.409 . S
C785 H777 0.930 . S
C785 C783 1.419 . S
C785 C786 1.362 . S
C786 H778 0.930 . S
C786 C785 1.362 . S
C786 C789 1.409 . S
C787 H779 0.930 . S
C787 C788 1.355 . S
C787 C789 1.415 . S
C788 C787 1.355 . S
C788 C790 1.419 . S
C789 C784 1.425 . S
C789 C786 1.409 . S
C789 C787 1.415 . S
C790 H780 0.930 . S
C790 C788 1.419 . S
C790 C791 1.362 . S
C791 H781 0.930 . S
C791 C784 1.409 . S
C791 C790 1.362 . S
H792 C798 0.930 . S
H793 C801 0.930 . S
H794 C802 0.930 . S
H795 C803 0.930 . S
H796 C806 0.930 1_455 S
H797 C807 0.930 . S
C798 H792 0.930 . S
C798 C799 1.355 . S
C798 C800 1.415 . S
C799 C798 1.355 . S
C799 C801 1.419 . S
C800 C798 1.415 . S
C800 C805 1.425 . S
C800 C807 1.409 . S
C801 H793 0.930 . S
C801 C799 1.419 . S
C801 C802 1.362 . S
C802 H794 0.930 . S
C802 C801 1.362 . S
C802 C805 1.409 . S
C803 H795 0.930 . S
C803 C804 1.355 . S
C803 C805 1.415 . S
C804 C803 1.355 . S
C804 C806 1.419 . S
C805 C800 1.425 . S
C805 C802 1.409 . S
C805 C803 1.415 . S
C806 H796 0.930 1_655 S
C806 C804 1.419 . S
C806 C807 1.362 . S
C807 H797 0.930 . S
C807 C800 1.409 . S
C807 C806 1.362 . S
H808 C814 0.930 . S
H809 C817 0.930 . S
H810 C818 0.930 . S
H811 C819 0.930 . S
H812 C822 0.930 1_455 S
H813 C823 0.930 . S
C814 H808 0.930 . S
C814 C815 1.355 . S
C814 C816 1.415 . S
C815 C814 1.355 . S
C815 C817 1.419 . S
C816 C814 1.415 . S
C816 C821 1.425 . S
C816 C823 1.409 . S
C817 H809 0.930 . S
C817 C815 1.419 . S
C817 C818 1.362 . S
C818 H810 0.930 . S
C818 C817 1.362 . S
C818 C821 1.409 . S
C819 H811 0.930 . S
C819 C820 1.355 . S
C819 C821 1.415 . S
C820 C819 1.355 . S
C820 C822 1.419 . S
C821 C816 1.425 . S
C821 C818 1.409 . S
C821 C819 1.415 . S
C822 H812 0.930 1_655 S
C822 C820 1.419 . S
C822 C823 1.362 . S
C823 H813 0.930 . S
C823 C816 1.409 . S
C823 C822 1.362 . S
H824 C830 0.930 . S
H825 C833 0.930 . S
H826 C834 0.930 . S
H827 C835 0.930 . S
H828 C838 0.930 . S
H829 C839 0.930 . S
C830 H824 0.930 . S
C830 C831 1.355 . S
C830 C832 1.415 . S
C831 C830 1.355 . S
C831 C833 1.419 . S
C832 C830 1.415 . S
C832 C837 1.425 . S
C832 C839 1.409 . S
C833 H825 0.930 . S
C833 C831 1.419 . S
C833 C834 1.362 . S
C834 H826 0.930 . S
C834 C833 1.362 . S
C834 C837 1.409 . S
C835 H827 0.930 . S
C835 C836 1.355 . S
C835 C837 1.415 . S
C836 C835 1.355 . S
C836 C838 1.419 . S
C837 C832 1.425 . S
C837 C834 1.409 . S
C837 C835 1.415 . S
C838 H828 0.930 . S
C838 C836 1.419 . S
C838 C839 1.362 . S
C839 H829 0.930 . S
C839 C832 1.409 . S
C839 C838 1.362 . S
H840 C846 0.930 . S
H841 C849 0.930 . S
H842 C850 0.930 . S
H843 C851 0.930 . S
H844 C854 0.930 . S
H845 C855 0.930 . S
C846 H840 0.930 . S
C846 C847 1.355 . S
C846 C848 1.415 . S
C847 C846 1.355 . S
C847 C849 1.419 . S
C848 C846 1.415 . S
C848 C853 1.425 . S
C848 C855 1.409 . S
C849 H841 0.930 . S
C849 C847 1.419 . S
C849 C850 1.362 . S
C850 H842 0.930 . S
C850 C849 1.362 . S
C850 C853 1.409 . S
C851 H843 0.930 . S
C851 C852 1.355 . S
C851 C853 1.415 . S
C852 C851 1.355 . S
C852 C854 1.419 . S
C853 C848 1.425 . S
C853 C850 1.409 . S
C853 C851 1.415 . S
C854 H844 0.930 . S
C854 C852 1.419 . S
C854 C855 1.362 . S
C855 H845 0.930 . S
C855 C848 1.409 . S
C855 C854 1.362 . S
H856 C862 0.930 . S
H857 C865 0.930 . S
H858 C866 0.930 . S
H859 C867 0.930 . S
H860 C870 0.930 . S
H861 C871 0.930 . S
C862 H856 0.930 . S
C862 C863 1.355 . S
C862 C864 1.415 . S
C863 C862 1.355 . S
C863 C865 1.419 . S
C864 C862 1.415 . S
C864 C869 1.425 . S
C864 C871 1.409 . S
C865 H857 0.930 . S
C865 C863 1.419 . S
C865 C866 1.362 . S
C866 H858 0.930 . S
C866 C865 1.362 . S
C866 C869 1.409 . S
C867 H859 0.930 . S
C867 C868 1.355 . S
C867 C869 1.415 . S
C868 C867 1.355 . S
C868 C870 1.419 . S
C869 C864 1.425 . S
C869 C866 1.409 . S
C869 C867 1.415 . S
C870 H860 0.930 . S
C870 C868 1.419 . S
C870 C871 1.362 . S
C871 H861 0.930 . S
C871 C864 1.409 . S
C871 C870 1.362 . S
C495 C116 1.789 . S
C500 C208 1.789 . S
C516 C292 1.801 . S
C511 C135 1.812 . S
C532 C291 1.802 . S
C527 C78 1.815 . S
C543 C97 1.797 . S
C548 C207 1.785 . S
C564 C388 1.788 . S
C559 C40 1.790 . S
C580 C472 1.781 . S
C575 C59 1.791 . S
C591 C2 1.792 . S
C596 C471 1.809 . S
C607 C21 1.798 . S
C612 C387 1.785 . S
C628 C210 1.602 . S
C623 C25 1.729 . S
C644 C294 1.604 . S
C639 C6 1.730 . S
C660 C306 1.404 . S
C655 C63 1.719 . S
C676 C222 1.483 . S
C671 C44 1.727 . S
C692 C390 1.605 . S
C687 C101 1.734 . S
C703 C82 1.733 . S
C708 C474 1.605 . S
C724 C462 1.497 . S
C719 C139 1.732 . S
C735 C120 1.732 . S
C740 C378 1.492 . S
C756 C219 1.514 . S
C751 C11 1.475 . S
C772 C303 1.505 . S
C767 C30 1.407 . S
C783 C49 1.458 . S
C788 C304 1.477 . S
C804 C220 1.480 . S
C799 C68 1.461 . S
C820 C375 1.515 . S
C815 C87 1.352 . S
C831 C106 1.341 . S
C836 C459 1.515 . S
C847 C125 1.394 . S
C852 C460 1.456 . S
C863 C144 1.382 . S
C868 C376 1.452 . S
