# Generated by pormake.
# Topology zzz, (3,6)-cn, num edge types: 1
# Building blocks:
#     Node 0, Type 0, BuildingBlock: QEWDON_clean_linker_0, # of connection points: 3
#     Node 1, Type 0, BuildingBlock: QEWDON_clean_linker_0, # of connection points: 3
#     Node 2, Type 0, BuildingBlock: QEWDON_clean_linker_0, # of connection points: 3
#     Node 3, Type 0, BuildingBlock: QEWDON_clean_linker_0, # of connection points: 3
#     Node 4, Type 0, BuildingBlock: QEWDON_clean_linker_0, # of connection points: 3
#     Node 5, Type 0, BuildingBlock: QEWDON_clean_linker_0, # of connection points: 3
#     Node 6, Type 0, BuildingBlock: QEWDON_clean_linker_0, # of connection points: 3
#     Node 7, Type 0, BuildingBlock: QEWDON_clean_linker_0, # of connection points: 3
#     Node 8, Type 1, BuildingBlock: NUHQIS_clean_sbu_0, # of connection points: 6
#     Node 9, Type 1, BuildingBlock: NUHQIS_clean_sbu_0, # of connection points: 6
#     Node 10, Type 1, BuildingBlock: NUHQIS_clean_sbu_0, # of connection points: 6
#     Node 11, Type 1, BuildingBlock: NUHQIS_clean_sbu_0, # of connection points: 6
#     Edge 12, Type (0, 1), BuildingBlock: XIVTED_clean_linker_0, # of connection points: 2
#     Edge 13, Type (0, 1), BuildingBlock: XIVTED_clean_linker_0, # of connection points: 2
#     Edge 14, Type (0, 1), BuildingBlock: XIVTED_clean_linker_0, # of connection points: 2
#     Edge 15, Type (0, 1), BuildingBlock: XIVTED_clean_linker_0, # of connection points: 2
#     Edge 16, Type (0, 1), BuildingBlock: XIVTED_clean_linker_0, # of connection points: 2
#     Edge 17, Type (0, 1), BuildingBlock: XIVTED_clean_linker_0, # of connection points: 2
#     Edge 18, Type (0, 1), BuildingBlock: XIVTED_clean_linker_0, # of connection points: 2
#     Edge 19, Type (0, 1), BuildingBlock: XIVTED_clean_linker_0, # of connection points: 2
#     Edge 20, Type (0, 1), BuildingBlock: XIVTED_clean_linker_0, # of connection points: 2
#     Edge 21, Type (0, 1), BuildingBlock: XIVTED_clean_linker_0, # of connection points: 2
#     Edge 22, Type (0, 1), BuildingBlock: XIVTED_clean_linker_0, # of connection points: 2
#     Edge 23, Type (0, 1), BuildingBlock: XIVTED_clean_linker_0, # of connection points: 2
#     Edge 24, Type (0, 1), BuildingBlock: XIVTED_clean_linker_0, # of connection points: 2
#     Edge 25, Type (0, 1), BuildingBlock: XIVTED_clean_linker_0, # of connection points: 2
#     Edge 26, Type (0, 1), BuildingBlock: XIVTED_clean_linker_0, # of connection points: 2
#     Edge 27, Type (0, 1), BuildingBlock: XIVTED_clean_linker_0, # of connection points: 2
#     Edge 28, Type (0, 1), BuildingBlock: XIVTED_clean_linker_0, # of connection points: 2
#     Edge 29, Type (0, 1), BuildingBlock: XIVTED_clean_linker_0, # of connection points: 2
#     Edge 30, Type (0, 1), BuildingBlock: XIVTED_clean_linker_0, # of connection points: 2
#     Edge 31, Type (0, 1), BuildingBlock: XIVTED_clean_linker_0, # of connection points: 2
#     Edge 32, Type (0, 1), BuildingBlock: XIVTED_clean_linker_0, # of connection points: 2
#     Edge 33, Type (0, 1), BuildingBlock: XIVTED_clean_linker_0, # of connection points: 2
#     Edge 34, Type (0, 1), BuildingBlock: XIVTED_clean_linker_0, # of connection points: 2
#     Edge 35, Type (0, 1), BuildingBlock: XIVTED_clean_linker_0, # of connection points: 2
# Relax obj value: 0.158
# Max RMSD: 0.140
# Mean RMSD: 0.098
data_MOF--net-zzz--node1-NUHQIS_clean_sbu_0--node2-QEWDON_clean_linker_0--edge1-XIVTED_clean_linker_0
_symmetry_space_group_name_H-M    P1
_symmetry_Int_Tables_number       1
_symmetry_cell_setting            triclinic
loop_
_symmetry_equiv_pos_as_xyz
'x, y, z'
_cell_length_a     56.503002
_cell_length_b     56.265193
_cell_length_c     13.520698
_cell_angle_alpha  89.873547
_cell_angle_beta   90.1473
_cell_angle_gamma 89.900136
loop_
_atom_site_label
_atom_site_type_symbol
_atom_site_fract_x
_atom_site_fract_y
_atom_site_fract_z
_atom_type_partial_charge
H0 H 0.74536 0.48347 0.23477 0.0
C1 C 0.7591 0.49223 0.27694 0.0
C2 C 0.78167 0.48182 0.28028 0.0
C3 C 0.75428 0.51331 0.33015 0.0
H4 H 0.81721 0.48454 0.33712 0.0
C5 C 0.79964 0.4924 0.33622 0.0
C6 C 0.79576 0.51341 0.38794 0.0
C7 C 0.77316 0.52401 0.38438 0.0
C8 C 0.7295 0.52334 0.33336 0.0
H9 H 0.77054 0.54061 0.42317 0.0
C10 C 0.71281 0.51999 0.25529 0.0
C11 C 0.68913 0.52812 0.26435 0.0
C12 C 0.72192 0.53545 0.41876 0.0
H13 H 0.73351 0.53778 0.48176 0.0
C14 C 0.69893 0.54419 0.42624 0.0
H15 H 0.71794 0.51079 0.1885 0.0
C16 C 0.68271 0.54058 0.35023 0.0
H17 H 0.66496 0.54756 0.35895 0.0
H18 H 0.69353 0.55354 0.49237 0.0
H19 H 0.03574 0.7587 0.26259 0.0
C20 C 0.02791 0.77304 0.30449 0.0
C21 C 0.03913 0.79524 0.30318 0.0
C22 C 1.00739 0.76933 0.36222 0.0
H23 H 0.0387 0.83119 0.35749 0.0
C24 C 0.03003 0.81399 0.35932 0.0
C25 C 1.00963 0.81126 0.41575 0.0
C26 C 0.99807 0.78906 0.41616 0.0
C27 C 0.99679 0.74474 0.37122 0.0
H28 H 0.98203 0.78735 0.45905 0.0
C29 C 0.99965 0.72693 0.29703 0.0
C30 C 0.99134 0.70341 0.3122 0.0
C31 C 0.98483 0.73837 0.45873 0.0
H32 H 0.98286 0.75073 0.51928 0.0
C33 C 0.97581 0.71558 0.4719 0.0
H34 H 1.00866 0.73101 0.22862 0.0
C35 C 0.97905 0.69828 0.39987 0.0
H36 H 0.97195 0.68069 0.41318 0.0
H37 H 0.9666 0.71115 0.53958 0.0
H38 H 0.76095 0.04152 0.21322 0.0
C39 C 0.74921 0.03794 0.27463 0.0
C40 C 0.73038 0.05366 0.2921 0.0
C41 C 0.75197 0.01706 0.33162 0.0
H42 H 0.6988 0.05994 0.37676 0.0
C43 C 0.71413 0.04853 0.36728 0.0
C44 C 0.71564 0.0276 0.42277 0.0
C45 C 0.73477 1.012 0.40565 0.0
C46 C 0.77159 0.99981 0.30785 0.0
H47 H 0.73601 0.99601 0.44992 0.0
C48 C 0.79358 1.0074 0.26736 0.0
C49 C 0.81146 0.99078 0.24263 0.0
C50 C 0.76804 0.97527 0.32191 0.0
H51 H 0.75137 0.96842 0.34876 0.0
C52 C 0.7857 0.95891 0.29867 0.0
H53 H 0.79705 0.02613 0.2564 0.0
C54 C 0.80718 0.96652 0.25956 0.0
H55 H 0.8203 0.95327 0.24036 0.0
H56 H 0.78258 0.94011 0.3097 0.0
H57 H 0.54179 0.78448 0.2109 0.0
C58 C 0.53685 0.77026 0.26063 0.0
C59 C 0.5415 0.74696 0.2311 0.0
C60 C 0.52629 0.77499 0.35322 0.0
H61 H 0.53922 0.70998 0.26889 0.0
C62 C 0.53592 0.72802 0.29375 0.0
C63 C 0.52496 0.7316 0.3848 0.0
C64 C 0.52024 0.75521 0.41517 0.0
C65 C 0.52225 0.80047 0.38451 0.0
H66 H 0.51129 0.75793 0.48486 0.0
C67 C 0.51958 0.81934 0.31448 0.0
C68 C 0.51817 0.84341 0.3449 0.0
C69 C 0.52247 0.80641 0.48558 0.0
H70 H 0.52505 0.79299 0.54199 0.0
C71 C 0.52014 0.82996 0.51605 0.0
H72 H 0.519 0.81554 0.23619 0.0
C73 C 0.51813 0.84826 0.44683 0.0
H74 H 0.51648 0.86632 0.47349 0.0
H75 H 0.52029 0.83412 0.59418 0.0
H76 H 0.26782 0.50215 0.24943 0.0
C77 C 0.25483 0.49956 0.19156 0.0
C78 C 0.23278 0.49064 0.21866 0.0
C79 C 0.25959 0.50627 0.09308 0.0
H80 H 0.19724 0.4834 0.17158 0.0
C81 C 0.21472 0.48894 0.14797 0.0
C82 C 0.21799 0.49657 0.05038 0.0
C83 C 0.24067 0.50503 0.02263 0.0
C84 C 0.2838 0.51595 0.06825 0.0
H85 H 0.24335 0.51046 0.94672 0.0
C86 C 0.30413 0.51006 0.12615 0.0
C87 C 0.32634 0.52086 0.10905 0.0
C88 C 0.28668 0.53231 0.99029 0.0
H89 H 0.27184 0.53797 0.94541 0.0
C90 C 0.30875 0.5424 0.97086 0.0
H91 H 0.30296 0.49696 0.18456 0.0
C92 C 0.32833 0.53691 0.02976 0.0
H93 H 0.34494 0.54576 0.01464 0.0
H94 H 0.31056 0.55507 0.91099 0.0
H95 H 0.0429 0.2876 0.24958 0.0
C96 C 0.03719 0.27323 0.20221 0.0
C97 C 0.04507 0.25031 0.22475 0.0
C98 C 0.02225 0.27743 0.12003 0.0
H99 H 0.04411 0.21341 0.18408 0.0
C100 C 0.03843 0.23126 0.16449 0.0
C101 C 0.02325 0.23431 0.0839 0.0
C102 C 0.01523 0.25753 0.06103 0.0
C103 C 1.01454 0.30254 0.09627 0.0
H104 H 1.00303 0.25979 0.99993 0.0
C105 C 1.01328 0.32061 0.17007 0.0
C106 C 1.0086 0.3446 0.14465 0.0
C107 C 1.00982 0.30907 0.99759 0.0
H108 H 1.01107 0.29629 0.93819 0.0
C109 C 1.00421 0.3325 0.97289 0.0
H110 H 0.01642 0.31634 0.247 0.0
C111 C 1.00377 0.35011 0.04523 0.0
H112 H 0.99968 0.36818 0.02312 0.0
H113 H 1.00065 0.33715 0.89655 0.0
H114 H 0.25275 1.00194 0.32691 0.0
C115 C 0.26422 1.00519 0.26434 0.0
C116 C 0.28366 0.99004 0.25 0.0
C117 C 0.26028 0.02491 0.20157 0.0
H118 H 0.31525 0.98376 0.16505 0.0
C119 C 0.29956 0.99472 0.17305 0.0
C120 C 0.29692 1.01462 0.11216 0.0
C121 C 0.27711 0.02954 0.12554 0.0
C122 C 0.2395 0.0412 0.21957 0.0
H123 H 0.275 0.04459 0.07633 0.0
C124 C 0.21821 0.03305 0.26449 0.0
C125 C 0.19908 0.04874 0.28175 0.0
C126 C 0.24103 0.06546 0.19413 0.0
H127 H 0.25707 0.0729 0.1636 0.0
C128 C 0.22204 0.08084 0.20987 0.0
H129 H 0.21616 1.01453 0.28442 0.0
C130 C 0.20123 0.07259 0.25283 0.0
H131 H 0.18692 0.08505 0.26547 0.0
H132 H 0.22359 0.0994 0.18966 0.0
H133 H 0.53819 0.25658 0.21396 0.0
C134 C 0.53108 0.27049 0.16712 0.0
C135 C 0.5423 0.29269 0.16792 0.0
C136 C 0.51159 0.26619 0.10383 0.0
H137 H 0.54311 0.328 0.10657 0.0
C138 C 0.53435 0.31084 0.10525 0.0
C139 C 0.51489 0.30762 0.04325 0.0
C140 C 0.5032 0.28545 0.04385 0.0
C141 C 0.50125 0.24145 0.09553 0.0
H142 H 0.48786 0.28337 0.9967 0.0
C143 C 0.50325 0.2241 0.17258 0.0
C144 C 0.49541 0.20038 0.15824 0.0
C145 C 0.49056 0.23439 0.00598 0.0
H146 H 0.48929 0.24632 0.94342 0.0
C147 C 0.48195 0.21142 0.99338 0.0
H148 H 0.51125 0.22867 0.24271 0.0
C149 C 0.48439 0.19459 0.06821 0.0
H150 H 0.47766 0.17685 0.05524 0.0
H151 H 0.47372 0.20648 0.92403 0.0
Tb152 Tb 0.02002 1.01223 0.85645 0.0
Eu153 Eu 0.9913 0.03099 0.66407 0.0
C154 C 0.0473 0.02394 0.65898 0.0
C155 C 1.01123 0.06671 0.82859 0.0
C156 C 0.05674 0.97104 0.9979 0.0
C157 C 0.09046 0.94655 0.04485 0.0
C158 C 0.07922 0.96877 0.0411 0.0
C159 C 0.046 0.95101 0.95566 0.0
C160 C 0.05711 0.92893 0.95939 0.0
C161 C 0.07935 0.92627 0.00518 0.0
C162 C 0.04472 0.99426 0.99354 0.0
O163 O 0.9831 1.00812 0.90228 0.0
O164 O 0.96286 0.02824 0.78002 0.0
O165 O 0.98395 0.99158 0.66432 0.0
O166 O 0.01658 0.98155 0.757 0.0
C167 C 0.96343 0.01727 0.86587 0.0
O168 O 0.96633 0.05677 0.60291 0.0
O169 O 0.9852 0.03319 0.50432 0.0
O170 O 0.02758 0.02086 0.60977 0.0
O171 O 0.04696 0.02625 0.75558 0.0
O172 O 1.01108 0.04911 0.89283 0.0
O173 O 1.01038 0.06219 0.73357 0.0
C174 C 0.99904 0.97558 0.69736 0.0
O175 O 0.05299 1.0092 0.92894 0.0
O176 O 0.02172 0.99363 0.99099 0.0
C177 C 0.98723 0.07457 0.47513 0.0
C178 C 1.01411 0.11679 0.47546 0.0
C179 C 0.98919 0.11768 0.47219 0.0
C180 C 0.97587 0.09674 0.47247 0.0
C181 C 1.01209 0.07375 0.46998 0.0
C182 C 0.02537 0.09458 0.47074 0.0
C183 C 0.97453 0.0537 0.51375 0.0
H184 H 0.10763 0.94518 0.08013 0.0
H185 H 0.08796 0.9841 0.0728 0.0
H186 H 0.02871 0.95229 0.92138 0.0
H187 H 0.04766 0.91376 0.93009 0.0
H188 H 0.97993 0.13454 0.47274 0.0
H189 H 0.95678 0.09788 0.478 0.0
H190 H 0.02148 0.05701 0.4736 0.0
H191 H 0.04447 0.09311 0.47346 0.0
Tb192 Tb 0.51143 0.04059 0.83798 0.0
Eu193 Eu 0.49795 1.00331 0.66326 0.0
C194 C 0.50163 0.05875 0.62259 0.0
C195 C 0.45778 0.02591 0.80797 0.0
C196 C 0.54993 0.07865 0.98258 0.0
C197 C 0.57784 0.10995 0.02363 0.0
C198 C 0.55448 0.10179 0.01582 0.0
C199 C 0.56889 0.06377 0.95738 0.0
C200 C 0.59207 0.07189 0.96457 0.0
C201 C 0.59687 0.09512 0.997 0.0
C202 C 0.52563 0.07082 0.96241 0.0
O203 O 0.52056 1.00502 0.89526 0.0
O204 O 0.49322 0.98407 0.80768 0.0
O205 O 0.53784 1.00127 0.67342 0.0
O206 O 0.54415 0.03665 0.75317 0.0
C207 C 0.50776 0.98568 0.88285 0.0
O208 O 0.49981 0.96762 0.60108 0.0
O209 O 0.47964 0.99501 0.52548 0.0
O210 O 0.50784 0.03785 0.58831 0.0
O211 O 0.4957 0.061 0.71603 0.0
O212 O 0.47432 0.03287 0.87034 0.0
O213 O 0.46304 0.01771 0.71954 0.0
C214 C 0.5521 0.01828 0.70298 0.0
O215 O 0.51805 0.07622 0.87443 0.0
O216 O 0.52069 0.04885 0.98488 0.0
C217 C 0.4628 0.95722 0.53429 0.0
C218 C 0.41706 0.93746 0.53427 0.0
C219 C 0.42839 0.943 0.62393 0.0
C220 C 0.45101 0.95292 0.62389 0.0
C221 C 0.45238 0.95007 0.44528 0.0
C222 C 0.4297 0.9402 0.44518 0.0
C223 C 0.48397 0.97228 0.53327 0.0
H224 H 0.58099 0.1279 0.04918 0.0
H225 H 0.54001 0.11364 0.03407 0.0
H226 H 0.56577 0.0459 0.93074 0.0
H227 H 0.60629 0.05976 0.94598 0.0
H228 H 0.41925 0.94092 0.69374 0.0
H229 H 0.45872 0.95847 0.69354 0.0
H230 H 0.46115 0.95345 0.37549 0.0
H231 H 0.42141 0.93647 0.3746 0.0
Tb232 Tb 0.49649 0.52335 0.75591 0.0
Eu233 Eu 0.52934 0.50754 0.5714 0.0
C234 C 0.47203 0.51204 0.54593 0.0
C235 C 0.50619 0.46898 0.72648 0.0
C236 C 0.48682 0.56612 0.93747 0.0
C237 C 0.48437 0.60907 0.95137 0.0
C238 C 0.47325 0.58693 0.94385 0.0
C239 C 0.5116 0.56771 0.945 0.0
C240 C 0.52267 0.58973 0.95109 0.0
C241 C 0.50926 0.61077 0.95124 0.0
C242 C 0.47644 0.54449 0.89451 0.0
O243 O 0.53043 0.51355 0.82232 0.0
O244 O 0.55453 0.52031 0.6904 0.0
O245 O 0.5186 0.54538 0.53786 0.0
O246 O 0.51545 0.55474 0.70024 0.0
C247 C 0.5516 0.5173 0.78579 0.0
O248 O 0.56297 0.50952 0.4921 0.0
O249 O 0.53571 0.48527 0.44284 0.0
O250 O 0.49264 0.50724 0.50562 0.0
O251 O 0.46994 0.51807 0.63964 0.0
O252 O 0.4908 0.48495 0.75735 0.0
O253 O 0.52384 0.47486 0.66775 0.0
C254 C 0.51681 0.56146 0.60741 0.0
O255 O 0.47013 0.54716 0.80241 0.0
O256 O 0.48832 0.52481 0.90779 0.0
C257 C 0.57445 0.47139 0.43767 0.0
C258 C 0.5956 0.42605 0.44068 0.0
C259 C 0.59162 0.43804 0.35043 0.0
C260 C 0.58108 0.46052 0.34906 0.0
C261 C 0.58022 0.46049 0.5281 0.0
C262 C 0.59082 0.43803 0.52962 0.0
C263 C 0.55786 0.49146 0.43562 0.0
H264 H 0.47343 0.62487 0.95424 0.0
H265 H 0.45417 0.58619 0.93642 0.0
H266 H 0.52265 0.55207 0.93832 0.0
H267 H 0.54182 0.59018 0.94986 0.0
H268 H 0.59475 0.42932 0.28036 0.0
H269 H 0.57656 0.46861 0.27867 0.0
H270 H 0.57508 0.46861 0.59743 0.0
H271 H 0.59391 0.42946 0.6003 0.0
Tb272 Tb 0.99665 0.50656 0.82327 0.0
Eu273 Eu 1.01342 0.54017 0.64188 0.0
C274 C 1.00712 0.48433 0.61687 0.0
C275 C 0.05172 0.51645 0.79077 0.0
C276 C 0.95899 0.46642 0.96598 0.0
C277 C 0.93574 0.43349 0.02984 0.0
C278 C 0.9575 0.44524 0.0204 0.0
C279 C 0.93876 0.47514 0.91798 0.0
C280 C 0.91711 0.46364 0.92776 0.0
C281 C 0.91514 0.44284 0.98513 0.0
C282 C 0.98145 0.47947 0.95789 0.0
O283 O 1.00643 0.54108 0.88777 0.0
O284 O 0.99776 0.56478 0.75527 0.0
O285 O 0.97464 0.53508 0.61137 0.0
O286 O 0.96313 0.52056 0.76299 0.0
C287 C 1.0013 0.56218 0.8506 0.0
O288 O 0.03393 0.57052 0.58924 0.0
O289 O 0.01497 0.54865 0.48411 0.0
O290 O 0.02171 0.50204 0.60125 0.0
O291 O 0.99156 0.48576 0.68846 0.0
O292 O 0.03536 0.5015 0.82174 0.0
O293 O 0.04615 0.53472 0.73503 0.0
C294 C 0.95802 0.52881 0.67392 0.0
O295 O 0.99551 0.47246 0.88756 0.0
O296 O 0.97971 0.50259 0.96019 0.0
C297 C 0.05592 0.55426 0.46057 0.0
C298 C 0.10065 0.53196 0.47132 0.0
C299 C 0.09859 0.55685 0.48033 0.0
C300 C 0.07638 0.56787 0.47596 0.0
C301 C 0.05837 0.5299 0.44021 0.0
C302 C 0.08027 0.51882 0.44788 0.0
C303 C 0.033 0.5628 0.49831 0.0
H304 H 0.93498 0.41739 0.07367 0.0
H305 H 0.97304 0.438 0.05675 0.0
H306 H 0.93956 0.49131 0.875 0.0
H307 H 0.90173 0.47183 0.89392 0.0
H308 H 0.11395 0.5678 0.49445 0.0
H309 H 0.07501 0.58665 0.49249 0.0
H310 H 0.04303 0.51879 0.42786 0.0
H311 H 0.08072 0.49968 0.44105 0.0
H312 H 0.15368 0.05369 0.2149 0.0
H313 H 0.09286 0.02398 0.73308 0.0
H314 H 0.19374 0.02712 0.46321 0.0
H315 H 0.05401 0.02743 0.45825 0.0
H316 H 0.12996 0.02718 0.63969 0.0
H317 H 0.117 0.04594 0.30548 0.0
C318 C 0.15471 0.04593 0.2882 0.0
C319 C 0.1768 0.04094 0.33136 0.0
C320 C 0.1133 0.02716 0.59995 0.0
C321 C 0.13477 0.03252 0.43696 0.0
C322 C 0.09207 0.02544 0.65326 0.0
C323 C 0.07013 0.02558 0.60383 0.0
C324 C 0.11267 0.02938 0.49634 0.0
C325 C 0.07037 0.02737 0.50002 0.0
C326 C 0.13376 0.04154 0.34002 0.0
C327 C 0.17708 0.03101 0.42682 0.0
N328 N 0.09119 0.02938 0.45012 0.0
N329 N 0.15642 0.02739 0.4769 0.0
H330 H 0.4876 0.20116 0.3611 0.0
H331 H 0.51301 0.06095 0.42514 0.0
H332 H 0.51129 0.15504 0.12698 0.0
H333 H 0.48988 0.10527 0.66639 0.0
H334 H 0.51322 0.0958 0.31715 0.0
H335 H 0.48977 0.16727 0.47673 0.0
C336 C 0.49351 0.18404 0.33417 0.0
C337 C 0.499 0.181 0.23359 0.0
C338 C 0.50808 0.09799 0.39369 0.0
C339 C 0.50132 0.142 0.36541 0.0
C340 C 0.5079 0.07798 0.45562 0.0
C341 C 0.50132 0.07998 0.55542 0.0
C342 C 0.50163 0.12041 0.43107 0.0
C343 C 0.495 0.10273 0.59005 0.0
C344 C 0.49458 0.16463 0.40008 0.0
C345 C 0.50644 0.15826 0.2032 0.0
N346 N 0.49528 0.12197 0.52818 0.0
N347 N 0.50725 0.13978 0.26826 0.0
H348 H 0.32747 0.51736 0.31273 0.0
H349 H 0.46912 0.50483 0.34497 0.0
H350 H 0.37314 0.51469 0.0579 0.0
H351 H 0.42517 0.51753 0.6001 0.0
H352 H 0.43376 0.50497 0.24066 0.0
H353 H 0.36237 0.51365 0.42014 0.0
C354 C 0.34477 0.51569 0.27915 0.0
C355 C 0.34723 0.51644 0.17565 0.0
C356 C 0.43179 0.50766 0.31949 0.0
C357 C 0.38749 0.5124 0.29886 0.0
C358 C 0.45206 0.50754 0.37947 0.0
C359 C 0.45032 0.51122 0.48209 0.0
C360 C 0.40938 0.51138 0.36178 0.0
C361 C 0.42753 0.51467 0.52161 0.0
C362 C 0.36475 0.51377 0.3407 0.0
C363 C 0.37027 0.51451 0.13701 0.0
N364 N 0.40805 0.51467 0.46161 0.0
N365 N 0.38938 0.51262 0.19832 0.0
H366 H 0.03018 0.38787 0.1258 0.0
H367 H 0.98151 0.44277 0.63309 0.0
H368 H 0.98953 0.34656 0.33353 0.0
H369 H 0.03445 0.47654 0.45174 0.0
H370 H 0.98258 0.40811 0.5232 0.0
H371 H 0.03025 0.42101 0.24193 0.0
C372 C 0.02121 0.38574 0.19596 0.0
C373 C 1.00969 0.36431 0.21924 0.0
C374 C 0.994 0.42309 0.50763 0.0
C375 C 1.00974 0.40257 0.35395 0.0
C376 C 0.99337 0.44297 0.57029 0.0
C377 C 1.00783 0.46283 0.55179 0.0
C378 C 1.00904 0.42303 0.42495 0.0
C379 C 0.02287 0.46184 0.46918 0.0
C380 C 0.02136 0.40471 0.26265 0.0
C381 C 0.99872 0.36264 0.31234 0.0
N382 N 0.02298 0.44244 0.40894 0.0
N383 N 0.99885 0.38154 0.37583 0.0
H384 H 0.85612 0.97567 0.29145 0.0
H385 H 0.91928 0.03562 0.82241 0.0
H386 H 0.81935 0.02192 0.0879 0.0
H387 H 0.95619 0.99398 0.04266 0.0
H388 H 0.88282 0.03157 0.91856 0.0
H389 H 0.89301 0.98331 0.20329 0.0
C390 C 0.85583 0.9876 0.22846 0.0
C391 C 0.83447 0.99804 0.19688 0.0
C392 C 0.89891 0.02338 0.94599 0.0
C393 C 0.87695 1.00681 0.09429 0.0
C394 C 0.9198 0.02562 0.8909 0.0
C395 C 0.94101 1.01506 0.92388 0.0
C396 C 0.89904 1.01039 0.03495 0.0
C397 C 0.94039 1.00241 0.0137 0.0
C398 C 0.87696 0.99197 0.17802 0.0
C399 C 0.83535 1.01357 0.11532 0.0
N400 N 0.91983 1.00039 0.06557 0.0
N401 N 0.85615 0.01729 0.06635 0.0
H402 H 0.49365 0.84682 0.16739 0.0
H403 H 0.53502 0.98118 0.05241 0.0
H404 H 0.54081 0.88663 0.3557 0.0
H405 H 0.48542 0.94246 0.87113 0.0
H406 H 0.5381 0.94649 0.16225 0.0
H407 H 0.49151 0.88107 0.05496 0.0
C408 C 0.50369 0.86263 0.18499 0.0
C409 C 0.51729 0.8637 0.27212 0.0
C410 C 0.52654 0.94559 0.09839 0.0
C411 C 0.51477 0.90331 0.14335 0.0
C412 C 0.52477 0.96545 0.03553 0.0
C413 C 0.50992 0.96492 0.95199 0.0
C414 C 0.51343 0.92488 0.07783 0.0
C415 C 0.49709 0.94387 0.93444 0.0
C416 C 0.50234 0.88231 0.12093 0.0
C417 C 0.52971 0.88495 0.29073 0.0
N418 N 0.49916 0.92482 0.9964 0.0
N419 N 0.52814 0.90378 0.22738 0.0
H420 H 0.69176 0.53258 0.06 0.0
H421 H 0.55219 0.51041 0.98663 0.0
H422 H 0.64367 0.51316 0.29364 0.0
H423 H 0.5988 0.52507 0.74175 0.0
H424 H 0.58612 0.511 0.09817 0.0
H425 H 0.65899 0.52887 0.94029 0.0
C426 C 0.67444 0.52728 0.08605 0.0
C427 C 0.67049 0.52348 0.18752 0.0
C428 C 0.58904 0.51406 0.02006 0.0
C429 C 0.63281 0.51944 0.05107 0.0
C430 C 0.56956 0.51376 0.95599 0.0
C431 C 0.57248 0.51771 0.85409 0.0
C432 C 0.61185 0.51847 0.98288 0.0
C433 C 0.5956 0.52195 0.81958 0.0
C434 C 0.65569 0.52532 0.01776 0.0
C435 C 0.64756 0.51675 0.21669 0.0
N436 N 0.61434 0.52227 0.8837 0.0
N437 N 0.62972 0.51511 0.14935 0.0
H438 H 1.00626 0.65818 0.35306 0.0
H439 H 0.99162 0.60867 0.79961 0.0
H440 H 0.98641 0.70309 0.10761 0.0
H441 H 1.00953 0.56489 0.05136 0.0
H442 H 0.99095 0.64357 0.90768 0.0
H443 H 1.00934 0.6245 0.2408 0.0
C444 C 1.00257 0.66101 0.27525 0.0
C445 C 0.99577 0.68359 0.24032 0.0
C446 C 0.99505 0.62634 0.93929 0.0
C447 C 0.99936 0.64465 0.10991 0.0
C448 C 0.99541 0.60632 0.87757 0.0
C449 C 1.0006 0.58361 0.91605 0.0
C450 C 0.99995 0.62382 0.04075 0.0
C451 C 1.00539 0.58189 0.01791 0.0
C452 C 1.00438 0.64167 0.21095 0.0
C453 C 0.99173 0.68609 0.1381 0.0
N454 N 1.00493 0.60163 0.07631 0.0
N455 N 0.99341 0.66686 0.07673 0.0
H456 H 0.02658 0.25699 0.40733 0.0
H457 H 0.05709 0.12714 0.39102 0.0
H458 H 0.08781 0.2287 0.26011 0.0
H459 H 1.00413 0.15664 0.58524 0.0
H460 H 0.07752 0.165 0.39142 0.0
H461 H 0.02892 0.22491 0.52774 0.0
C462 C 0.04145 0.24482 0.40387 0.0
C463 C 0.05617 0.24448 0.32065 0.0
C464 C 0.06167 0.16317 0.43565 0.0
C465 C 0.05825 0.20722 0.45417 0.0
C466 C 0.0499 0.14144 0.43523 0.0
C467 C 0.02829 0.1389 0.48503 0.0
C468 C 0.05144 0.18277 0.48373 0.0
C469 C 0.02009 0.15812 0.54161 0.0
C470 C 0.04255 0.22616 0.47182 0.0
C471 C 0.07547 0.2288 0.32123 0.0
N472 N 0.03134 0.17941 0.53743 0.0
N473 N 0.07532 0.20997 0.38406 0.0
H474 H 0.28681 0.99475 0.45046 0.0
H475 H 0.39216 0.90639 0.41625 0.0
H476 H 0.29658 0.94388 0.21619 0.0
H477 H 0.38268 0.95911 0.64429 0.0
H478 H 0.34993 0.909 0.37823 0.0
H479 H 0.31251 0.97089 0.55672 0.0
C480 C 0.29355 0.97802 0.42273 0.0
C481 C 0.29026 0.97163 0.3235 0.0
C482 C 0.35696 0.9195 0.43853 0.0
C483 C 0.32037 0.94476 0.44302 0.0
C484 C 0.38111 0.91807 0.45997 0.0
C485 C 0.39114 0.93312 0.53126 0.0
C486 C 0.3429 0.93638 0.48766 0.0
C487 C 0.37587 0.94737 0.5877 0.0
C488 C 0.30846 0.96448 0.48314 0.0
C489 C 0.29932 0.94972 0.2916 0.0
N490 N 0.35264 0.9491 0.56294 0.0
N491 N 0.31458 0.93742 0.35015 0.0
H492 H 0.58796 0.304 0.12572 0.0
H493 H 0.57648 0.39203 0.56191 0.0
H494 H 0.53917 0.29636 0.36765 0.0
H495 H 0.62479 0.40033 0.31741 0.0
H496 H 0.57421 0.34977 0.52749 0.0
H497 H 0.61251 0.32992 0.22786 0.0
C498 C 0.58304 0.30695 0.20214 0.0
C499 C 0.56141 0.29848 0.23823 0.0
C500 C 0.58583 0.36066 0.48283 0.0
C501 C 0.58864 0.32893 0.35375 0.0
C502 C 0.58731 0.38492 0.50296 0.0
C503 C 0.60025 0.40001 0.44025 0.0
C504 C 0.59699 0.3515 0.39841 0.0
C505 C 0.61386 0.38953 0.3653 0.0
C506 C 0.59691 0.32194 0.26024 0.0
C507 C 0.55568 0.30279 0.33723 0.0
N508 N 0.61137 0.36604 0.34476 0.0
N509 N 0.56885 0.31834 0.39081 0.0
H510 H 0.21366 0.45143 0.3067 0.0
H511 H 0.13812 0.54481 0.59269 0.0
H512 H 0.2363 0.52299 0.36726 0.0
H513 H 0.11619 0.49029 0.38671 0.0
H514 H 0.17764 0.52687 0.59664 0.0
H515 H 0.18443 0.45474 0.43858 0.0
C516 C 0.21335 0.46737 0.35153 0.0
C517 C 0.22642 0.4874 0.32349 0.0
C518 C 0.16377 0.51854 0.55357 0.0
C519 C 0.19278 0.49157 0.47046 0.0
C520 C 0.14135 0.52902 0.54918 0.0
C521 C 0.12376 0.51966 0.48641 0.0
C522 C 0.16843 0.49832 0.49649 0.0
C523 C 0.12883 0.49842 0.43617 0.0
C524 C 0.19662 0.46931 0.42647 0.0
C525 C 0.22582 0.50745 0.38475 0.0
N526 N 0.1507 0.48871 0.44156 0.0
N527 N 0.20844 0.50946 0.45334 0.0
H528 H 0.08338 0.8091 0.35763 0.0
H529 H 0.07817 0.88758 0.88028 0.0
H530 H 0.04002 0.79508 0.10212 0.0
H531 H 0.10239 0.90914 0.16956 0.0
H532 H 0.08148 0.84604 0.93192 0.0
H533 H 0.10784 0.83569 0.25801 0.0
C534 C 0.07979 0.81071 0.27913 0.0
C535 C 0.05939 0.80047 0.23817 0.0
C536 C 0.0868 0.85989 0.98284 0.0
C537 C 0.08659 0.83139 0.12522 0.0
C538 C 0.08475 0.88363 0.95381 0.0
C539 C 0.08896 0.90195 0.0222 0.0
C540 C 0.09317 0.8545 0.08071 0.0
C541 C 0.09845 0.89572 0.11476 0.0
C542 C 0.09359 0.82605 0.2225 0.0
C543 C 0.05544 0.80299 0.13642 0.0
N544 N 0.09967 0.87253 0.14211 0.0
N545 N 0.06847 0.81886 0.08381 0.0
H546 H 0.71781 0.09969 0.33227 0.0
H547 H 0.63432 0.08737 0.87233 0.0
H548 H 0.72752 0.05072 0.09102 0.0
H549 H 0.61641 0.1201 0.15064 0.0
H550 H 0.67619 0.08954 0.91718 0.0
H551 H 0.6905 0.1228 0.22957 0.0
C552 C 0.71501 0.09441 0.25612 0.0
C553 C 0.72415 0.07279 0.22118 0.0
C554 C 0.66313 0.09689 0.96712 0.0
C555 C 0.69276 0.09878 0.10447 0.0
C556 C 0.63923 0.09552 0.94193 0.0
C557 C 0.62182 0.10271 0.00966 0.0
C558 C 0.66962 0.10538 0.06083 0.0
C559 C 0.62919 0.11392 0.09698 0.0
C560 C 0.69931 0.10752 0.19776 0.0
C561 C 0.72041 0.067 0.12158 0.0
N562 N 0.65253 0.11437 0.12121 0.0
N563 N 0.70436 0.07951 0.0675 0.0
H564 H 0.51556 0.75222 0.06397 0.0
H565 H 0.55122 0.6233 0.04002 0.0
H566 H 0.58254 0.72604 0.17025 0.0
H567 H 0.49527 0.65193 0.8565 0.0
H568 H 0.56882 0.6624 0.04881 0.0
H569 H 0.51466 0.7205 0.94175 0.0
C570 C 0.53083 0.74066 0.05735 0.0
C571 C 0.54865 0.74095 0.12957 0.0
C572 C 0.55292 0.66017 0.00498 0.0
C573 C 0.54727 0.7041 0.99415 0.0
C574 C 0.54276 0.63769 1.00003 0.0
C575 C 0.52126 0.63429 0.94981 0.0
C576 C 0.54118 0.67968 0.96212 0.0
C577 C 0.51127 0.65384 0.89988 0.0
C578 C 0.53014 0.72222 0.98855 0.0
C579 C 0.56813 0.72582 0.1173 0.0
N580 N 0.521 0.6758 0.90926 0.0
N581 N 0.56647 0.70726 0.05381 0.0
H582 H 0.79799 0.43884 0.34318 0.0
H583 H 0.87594 0.44032 0.86307 0.0
H584 H 0.78211 0.4789 0.07949 0.0
H585 H 0.8993 0.42336 0.15938 0.0
H586 H 0.83491 0.43683 0.9181 0.0
H587 H 0.82628 0.41496 0.24955 0.0
C588 C 0.79959 0.44175 0.26422 0.0
C589 C 0.78824 0.46115 0.21914 0.0
C590 C 0.84908 0.43315 0.97006 0.0
C591 C 0.82097 0.43458 0.11285 0.0
C592 C 0.87253 0.43534 0.93911 0.0
C593 C 0.8912 0.43319 0.0077 0.0
C594 C 0.84429 0.42855 0.06998 0.0
C595 C 0.88564 0.42563 0.10393 0.0
C596 C 0.8159 0.4283 0.21105 0.0
C597 C 0.79082 0.46425 0.11694 0.0
N598 N 0.86269 0.42411 0.1327 0.0
N599 N 0.80753 0.45159 0.06756 0.0
H600 H 0.02992 0.221 0.8885 0.0
H601 H 1.00597 0.08392 0.01755 0.0
H602 H 1.00033 0.19646 0.16353 0.0
H603 H 0.01738 0.10758 0.7177 0.0
H604 H 1.00547 0.12538 0.07135 0.0
H605 H 0.02571 0.18044 0.82107 0.0
C606 C 0.02189 0.2073 0.93359 0.0
C607 C 0.01533 0.21222 0.03164 0.0
C608 C 1.00805 0.12157 0.99366 0.0
C609 C 1.01132 0.16558 0.95665 0.0
C610 C 1.00849 0.09779 0.96292 0.0
C611 C 1.01181 0.09204 0.86287 0.0
C612 C 1.01118 0.14002 0.92437 0.0
C613 C 0.01481 0.11103 0.79569 0.0
C614 C 0.01977 0.18406 0.89561 0.0
C615 C 1.00554 0.19354 0.08747 0.0
N616 N 1.01456 0.13407 0.82762 0.0
N617 N 1.00413 0.17117 0.04987 0.0
H618 H 0.31229 0.988 0.95662 0.0
H619 H 0.41917 1.00696 0.71224 0.0
H620 H 0.3276 0.05227 0.11632 0.0
H621 H 0.43814 0.04613 0.97472 0.0
H622 H 0.37807 1.00654 0.767 0.0
H623 H 0.35005 0.99163 0.87041 0.0
C624 C 0.32329 1.00338 0.97076 0.0
C625 C 0.31654 0.02013 0.04218 0.0
C626 C 0.39117 1.01505 0.81336 0.0
C627 C 0.36037 0.0243 0.94492 0.0
C628 C 0.41475 1.01551 0.7815 0.0
C629 C 0.43238 0.02645 0.83914 0.0
C630 C 0.38495 0.0256 0.90398 0.0
C631 C 0.42531 0.0373 0.92803 0.0
C632 C 0.34497 1.00546 0.92159 0.0
C633 C 0.33187 0.03928 0.06013 0.0
N634 N 0.40223 0.03659 0.95756 0.0
N635 N 0.35319 0.04064 0.01307 0.0
H636 H 0.478 0.33915 0.06503 0.0
H637 H 0.53392 0.43095 0.67347 0.0
H638 H 0.53782 0.32358 0.87966 0.0
H639 H 0.4751 0.44914 0.86191 0.0
H640 H 0.53288 0.39046 0.73794 0.0
H641 H 0.47351 0.37778 0.9805 0.0
C642 C 0.48969 0.34355 0.00432 0.0
C643 C 0.50801 0.32793 0.9779 0.0
C644 C 0.52008 0.40321 0.76506 0.0
C645 C 0.50356 0.37244 0.88296 0.0
C646 C 0.52065 0.42648 0.72813 0.0
C647 C 0.50462 0.44377 0.76226 0.0
C648 C 0.50339 0.39685 0.83743 0.0
C649 C 0.48786 0.43657 0.83321 0.0
C650 C 0.48733 0.36573 0.95689 0.0
C651 C 0.52319 0.33489 0.90103 0.0
N652 N 0.48777 0.41378 0.86868 0.0
N653 N 0.52071 0.35656 0.8569 0.0
H654 H 0.18545 0.4613 0.01922 0.0
H655 H 0.09001 0.5448 0.74559 0.0
H656 H 0.2006 0.53362 0.93566 0.0
H657 H 0.07233 0.47954 0.89624 0.0
H658 H 0.13157 0.53893 0.79157 0.0
H659 H 0.14583 0.46535 0.94803 0.0
C660 C 0.18062 0.47793 0.98394 0.0
C661 C 0.19652 0.49719 0.98421 0.0
C662 C 0.11862 0.52589 0.81451 0.0
C663 C 0.1506 0.50207 0.90283 0.0
C664 C 0.09476 0.52921 0.78844 0.0
C665 C 0.0773 0.51277 0.81783 0.0
C666 C 0.12541 0.50582 0.86975 0.0
C667 C 0.08491 0.49284 0.87236 0.0
C668 C 0.15785 0.48029 0.94393 0.0
C669 C 0.18913 0.51824 0.93681 0.0
N670 N 0.10826 0.48996 0.89638 0.0
N671 N 0.16669 0.52019 0.899 0.0
H672 H 0.02691 0.82575 0.59311 0.0
H673 H 0.96778 0.9558 0.56262 0.0
H674 H 0.97673 0.84538 0.3673 0.0
H675 H 0.02669 0.93744 0.7517 0.0
H676 H 0.96664 0.9145 0.50407 0.0
H677 H 0.02211 0.86501 0.66867 0.0
C678 C 1.01425 0.83811 0.56145 0.0
C679 C 1.00178 0.8321 0.47524 0.0
C680 C 0.9797 0.91951 0.55891 0.0
C681 C 0.99681 0.87764 0.559 0.0
C682 C 0.98038 0.94314 0.59251 0.0
C683 C 0.99735 0.95033 0.6627 0.0
C684 C 0.996 0.90276 0.59607 0.0
C685 C 1.01319 0.93293 0.69816 0.0
C686 C 1.01174 0.86067 0.60372 0.0
C687 C 0.98623 0.84911 0.43513 0.0
N688 N 1.01212 0.91014 0.66462 0.0
N689 N 0.98428 0.87113 0.47689 0.0
H690 H 0.68776 0.98757 0.4225 0.0
H691 H 0.58703 0.05034 0.74948 0.0
H692 H 0.69616 0.05504 0.56833 0.0
H693 H 0.57596 0.98446 0.59337 0.0
H694 H 0.62844 0.04979 0.69895 0.0
H695 H 0.64884 0.98316 0.50154 0.0
C696 C 0.68175 1.0011 0.47353 0.0
C697 C 0.6953 0.02168 0.48896 0.0
C698 C 0.61703 0.03535 0.67599 0.0
C699 C 0.65046 0.01708 0.5778 0.0
C700 C 0.59327 0.03565 0.70499 0.0
C701 C 0.57774 0.01747 0.67552 0.0
C702 C 0.6256 1.01679 0.61639 0.0
C703 C 0.58712 0.99893 0.61772 0.0
C704 C 0.65937 0.99873 0.51766 0.0
C705 C 0.68634 0.03888 0.55431 0.0
N706 N 0.61033 0.99914 0.58969 0.0
N707 N 0.66451 0.0363 0.59536 0.0
H708 H 0.53976 0.71565 0.56944 0.0
H709 H 0.50866 0.58206 0.42655 0.0
H710 H 0.49556 0.69662 0.32216 0.0
H711 H 0.52446 0.60023 0.72928 0.0
H712 H 0.50726 0.62437 0.38539 0.0
H713 H 0.53637 0.67446 0.63217 0.0
C714 C 0.52873 0.70307 0.53016 0.0
C715 C 0.51781 0.70969 0.44062 0.0
C716 C 0.511 0.61916 0.461 0.0
C717 C 0.51479 0.66233 0.50916 0.0
C718 C 0.51198 0.59491 0.48444 0.0
C719 C 0.51676 0.58739 0.58155 0.0
C720 C 0.51521 0.63633 0.53454 0.0
C721 C 0.52071 0.60512 0.65339 0.0
C722 C 0.52705 0.67948 0.56522 0.0
C723 C 0.5042 0.69239 0.39161 0.0
N724 N 0.52006 0.6287 0.62837 0.0
N725 N 0.50343 0.6696 0.42536 0.0
H726 H 0.83108 0.54088 0.31373 0.0
H727 H 0.9173 0.51752 0.77752 0.0
H728 H 0.80821 0.50661 0.58164 0.0
H729 H 0.9406 0.54439 0.49501 0.0
H730 H 0.87643 0.51811 0.71672 0.0
H731 H 0.86992 0.54796 0.38945 0.0
C732 C 0.83402 0.53562 0.38991 0.0
C733 C 0.81625 0.52366 0.44235 0.0
C734 C 0.89049 0.52399 0.66824 0.0
C735 C 0.86107 0.53075 0.52863 0.0
C736 C 0.91394 0.52358 0.70288 0.0
C737 C 0.93271 0.53059 0.64124 0.0
C738 C 0.88558 0.53165 0.57121 0.0
C739 C 0.92691 0.53863 0.5455 0.0
C740 C 0.8563 0.53934 0.43277 0.0
C741 C 0.82126 0.5164 0.53964 0.0
N742 N 0.90401 0.53885 0.51359 0.0
N743 N 0.84322 0.51988 0.57937 0.0
loop_
_geom_bond_atom_site_label_1
_geom_bond_atom_site_label_2
_geom_bond_distance
_geom_bond_site_symmetry_2
_ccdc_geom_bond_type
H0 C1 0.949 . S
C1 H0 0.949 . S
C1 C2 1.395 . S
C1 C3 1.391 . S
C2 C1 1.395 . S
C2 C5 1.390 . S
C3 C1 1.391 . S
C3 C7 1.387 . S
C3 C8 1.491 . S
H4 C5 0.950 . S
C5 C2 1.390 . S
C5 H4 0.950 . S
C5 C6 1.378 . S
C6 C5 1.378 . S
C6 C7 1.409 . S
C7 C3 1.387 . S
C7 C6 1.409 . S
C7 H9 0.951 . S
C8 C3 1.491 . S
C8 C10 1.382 . S
C8 C12 1.404 . S
H9 C7 0.951 . S
C10 C8 1.382 . S
C10 C11 1.390 . S
C10 H15 0.949 . S
C11 C10 1.390 . S
C11 C16 1.399 . S
C12 C8 1.404 . S
C12 H13 0.950 . S
C12 C14 1.375 . S
H13 C12 0.950 . S
C14 C12 1.375 . S
C14 C16 1.382 . S
C14 H18 0.950 . S
H15 C10 0.949 . S
C16 C11 1.399 . S
C16 C14 1.382 . S
C16 H17 0.952 . S
H17 C16 0.952 . S
H18 C14 0.950 . S
H19 C20 0.949 . S
C20 H19 0.949 . S
C20 C21 1.395 . S
C20 C22 1.391 . S
C21 C20 1.395 . S
C21 C24 1.390 1_655 S
C22 C20 1.391 . S
C22 C26 1.387 . S
C22 C27 1.491 . S
H23 C24 0.950 . S
C24 C21 1.390 1_455 S
C24 H23 0.950 . S
C24 C25 1.377 1_455 S
C25 C24 1.377 1_655 S
C25 C26 1.413 . S
C26 C22 1.387 . S
C26 C25 1.413 . S
C26 H28 0.951 . S
C27 C22 1.491 . S
C27 C29 1.382 . S
C27 C31 1.404 . S
H28 C26 0.951 . S
C29 C27 1.382 . S
C29 C30 1.390 . S
C29 H34 0.949 1_655 S
C30 C29 1.390 . S
C30 C35 1.399 . S
C31 C27 1.404 . S
C31 H32 0.950 . S
C31 C33 1.375 . S
H32 C31 0.950 . S
C33 C31 1.375 . S
C33 C35 1.382 . S
C33 H37 0.950 . S
H34 C29 0.949 1_455 S
C35 C30 1.399 . S
C35 C33 1.382 . S
C35 H36 0.952 . S
H36 C35 0.952 . S
H37 C33 0.950 . S
H38 C39 0.949 . S
C39 H38 0.949 . S
C39 C40 1.395 . S
C39 C41 1.391 . S
C40 C39 1.395 . S
C40 C43 1.390 1_565 S
C41 C39 1.391 . S
C41 C45 1.387 . S
C41 C46 1.491 . S
H42 C43 0.950 . S
C43 C40 1.390 1_545 S
C43 H42 0.950 . S
C43 C44 1.377 1_545 S
C44 C43 1.377 1_565 S
C44 C45 1.413 . S
C45 C41 1.387 . S
C45 C44 1.413 . S
C45 H47 0.951 . S
C46 C41 1.491 . S
C46 C48 1.382 . S
C46 C50 1.404 . S
H47 C45 0.951 . S
C48 C46 1.382 . S
C48 C49 1.390 . S
C48 H53 0.949 1_565 S
C49 C48 1.390 . S
C49 C54 1.399 . S
C50 C46 1.404 . S
C50 H51 0.950 . S
C50 C52 1.375 . S
H51 C50 0.950 . S
C52 C50 1.375 . S
C52 C54 1.382 . S
C52 H56 0.950 . S
H53 C48 0.949 1_545 S
C54 C49 1.399 . S
C54 C52 1.382 . S
C54 H55 0.952 . S
H55 C54 0.952 . S
H56 C52 0.950 . S
H57 C58 0.949 . S
C58 H57 0.949 . S
C58 C59 1.395 . S
C58 C60 1.391 . S
C59 C58 1.395 . S
C59 C62 1.390 . S
C60 C58 1.391 . S
C60 C64 1.387 . S
C60 C65 1.491 . S
H61 C62 0.950 . S
C62 C59 1.390 . S
C62 H61 0.950 . S
C62 C63 1.378 . S
C63 C62 1.378 . S
C63 C64 1.409 . S
C64 C60 1.387 . S
C64 C63 1.409 . S
C64 H66 0.951 . S
C65 C60 1.491 . S
C65 C67 1.382 . S
C65 C69 1.404 . S
H66 C64 0.951 . S
C67 C65 1.382 . S
C67 C68 1.390 . S
C67 H72 0.949 . S
C68 C67 1.390 . S
C68 C73 1.399 . S
C69 C65 1.404 . S
C69 H70 0.950 . S
C69 C71 1.375 . S
H70 C69 0.950 . S
C71 C69 1.375 . S
C71 C73 1.382 . S
C71 H75 0.950 . S
H72 C67 0.949 . S
C73 C68 1.399 . S
C73 C71 1.382 . S
C73 H74 0.952 . S
H74 C73 0.952 . S
H75 C71 0.950 . S
H76 C77 0.949 . S
C77 H76 0.949 . S
C77 C78 1.395 . S
C77 C79 1.397 . S
C78 C77 1.395 . S
C78 C81 1.390 1_554 S
C79 C77 1.397 . S
C79 C83 1.381 1_554 S
C79 C84 1.491 . S
H80 C81 0.950 . S
C81 C78 1.390 1_556 S
C81 H80 0.950 . S
C81 C82 1.378 . S
C82 C81 1.378 . S
C82 C83 1.409 . S
C83 C79 1.381 1_556 S
C83 C82 1.409 . S
C83 H85 0.951 . S
C84 C79 1.491 . S
C84 C86 1.382 . S
C84 C88 1.404 1_554 S
H85 C83 0.951 . S
C86 C84 1.382 . S
C86 C87 1.390 . S
C86 H91 0.949 . S
C87 C86 1.390 . S
C87 C92 1.399 . S
C88 C84 1.404 1_556 S
C88 H89 0.950 . S
C88 C90 1.375 . S
H89 C88 0.950 . S
C90 C88 1.375 . S
C90 C92 1.382 1_556 S
C90 H94 0.950 . S
H91 C86 0.949 . S
C92 C87 1.399 . S
C92 C90 1.382 1_554 S
C92 H93 0.952 . S
H93 C92 0.952 . S
H94 C90 0.950 . S
H95 C96 0.949 . S
C96 H95 0.949 . S
C96 C97 1.395 1_655 S
C96 C98 1.391 . S
C97 C96 1.395 1_455 S
C97 C100 1.390 1_554 S
C98 C96 1.391 . S
C98 C102 1.387 1_554 S
C98 C103 1.491 . S
H99 C100 0.950 . S
C100 C97 1.390 1_556 S
C100 H99 0.950 . S
C100 C101 1.377 1_455 S
C101 C100 1.377 1_655 S
C101 C102 1.411 . S
C102 C98 1.387 1_556 S
C102 C101 1.411 . S
C102 H104 0.951 . S
C103 C98 1.491 . S
C103 C105 1.402 . S
C103 C107 1.404 1_554 S
H104 C102 0.951 . S
C105 C103 1.402 . S
C105 C106 1.400 . S
C105 H110 0.920 1_655 S
C106 C105 1.400 . S
C106 C111 1.399 . S
C107 C103 1.404 1_556 S
C107 H108 0.950 . S
C107 C109 1.375 . S
H108 C107 0.950 . S
C109 C107 1.375 . S
C109 C111 1.382 1_556 S
C109 H113 0.950 . S
H110 C105 0.920 1_455 S
C111 C106 1.399 . S
C111 C109 1.382 1_554 S
C111 H112 0.952 . S
H112 C111 0.952 . S
H113 C109 0.950 . S
H114 C115 0.949 . S
C115 H114 0.949 . S
C115 C116 1.395 1_565 S
C115 C117 1.391 . S
C116 C115 1.395 1_545 S
C116 C119 1.390 1_554 S
C117 C115 1.391 . S
C117 C121 1.387 1_554 S
C117 C122 1.491 . S
H118 C119 0.950 . S
C119 C116 1.390 1_556 S
C119 H118 0.950 . S
C119 C120 1.377 1_545 S
C120 C119 1.377 1_565 S
C120 C121 1.411 . S
C121 C117 1.387 1_556 S
C121 C120 1.411 . S
C121 H123 0.951 . S
C122 C117 1.491 . S
C122 C124 1.402 . S
C122 C126 1.404 1_554 S
H123 C121 0.951 . S
C124 C122 1.402 . S
C124 C125 1.400 . S
C124 H129 0.920 1_565 S
C125 C124 1.400 . S
C125 C130 1.399 . S
C126 C122 1.404 1_556 S
C126 H127 0.950 . S
C126 C128 1.375 . S
H127 C126 0.950 . S
C128 C126 1.375 . S
C128 C130 1.382 1_556 S
C128 H132 0.950 . S
H129 C124 0.920 1_545 S
C130 C125 1.399 . S
C130 C128 1.382 1_554 S
C130 H131 0.952 . S
H131 C130 0.952 . S
H132 C128 0.950 . S
H133 C134 0.949 . S
C134 H133 0.949 . S
C134 C135 1.395 . S
C134 C136 1.387 1_554 S
C135 C134 1.395 . S
C135 C138 1.390 1_554 S
C136 C134 1.387 1_556 S
C136 C140 1.391 . S
C136 C141 1.491 1_556 S
H137 C138 0.950 . S
C138 C135 1.390 1_556 S
C138 H137 0.950 . S
C138 C139 1.378 . S
C139 C138 1.378 . S
C139 C140 1.409 . S
C140 C136 1.391 . S
C140 C139 1.409 . S
C140 H142 0.951 . S
C141 C136 1.491 1_554 S
C141 C143 1.382 . S
C141 C145 1.404 1_554 S
H142 C140 0.951 . S
C143 C141 1.382 . S
C143 C144 1.390 . S
C143 H148 0.949 . S
C144 C143 1.390 . S
C144 C149 1.399 . S
C145 C141 1.404 1_556 S
C145 H146 0.950 . S
C145 C147 1.375 . S
H146 C145 0.950 . S
C147 C145 1.375 . S
C147 C149 1.382 1_556 S
C147 H151 0.950 . S
H148 C143 0.949 . S
C149 C144 1.399 . S
C149 C147 1.382 1_554 S
C149 H150 0.952 . S
H150 C149 0.952 . S
H151 C147 0.950 . S
Tb152 C162 2.825 . S
Tb152 O163 2.347 1_455 S
Tb152 O166 2.366 . S
Tb152 O171 2.418 . S
Tb152 O172 2.384 1_565 S
Tb152 O175 2.479 . S
Tb152 O176 2.471 . S
Eu153 O164 2.418 . S
Eu153 O165 2.384 1_545 S
Eu153 O168 2.479 . S
Eu153 O169 2.471 . S
Eu153 O170 2.347 1_655 S
Eu153 O173 2.366 . S
Eu153 C183 2.825 . S
C154 O170 1.259 1_565 S
C154 O171 1.265 . S
C155 O172 1.255 . S
C155 O173 1.265 1_455 S
C156 C158 1.380 . S
C156 C159 1.374 . S
C156 C162 1.507 1_554 S
C157 C158 1.384 . S
C157 C161 1.387 . S
C157 H184 0.930 . S
C158 C156 1.380 . S
C158 C157 1.384 . S
C158 H185 0.931 . S
C159 C156 1.374 . S
C159 C160 1.390 . S
C159 H186 0.930 1_455 S
C160 C159 1.390 . S
C160 C161 1.391 . S
C160 H187 0.930 1_455 S
C161 C157 1.387 . S
C161 C160 1.391 . S
C162 Tb152 2.825 . S
C162 C156 1.507 1_556 S
C162 O175 1.238 . S
C162 O176 1.247 . S
O163 Tb152 2.347 1_655 S
O163 C167 1.259 1_565 S
O164 Eu153 2.418 . S
O164 C167 1.265 . S
O165 Eu153 2.384 1_565 S
O165 C174 1.255 . S
O166 Tb152 2.366 . S
O166 C174 1.265 1_455 S
C167 O163 1.259 1_545 S
C167 O164 1.265 . S
O168 Eu153 2.479 . S
O168 C183 1.238 . S
O169 Eu153 2.471 . S
O169 C183 1.247 . S
O170 Eu153 2.347 1_455 S
O170 C154 1.259 1_545 S
O171 Tb152 2.418 . S
O171 C154 1.265 . S
O172 Tb152 2.384 1_545 S
O172 C155 1.255 . S
O173 Eu153 2.366 . S
O173 C155 1.265 1_655 S
C174 O165 1.255 . S
C174 O166 1.265 1_655 S
O175 Tb152 2.479 . S
O175 C162 1.238 . S
O176 Tb152 2.471 . S
O176 C162 1.247 . S
C177 C180 1.380 . S
C177 C181 1.374 . S
C177 C183 1.507 . S
C178 C179 1.387 . S
C178 C182 1.391 . S
C179 C178 1.387 . S
C179 C180 1.384 . S
C179 H188 0.930 . S
C180 C177 1.380 . S
C180 C179 1.384 . S
C180 H189 0.931 . S
C181 C177 1.374 . S
C181 C182 1.390 . S
C181 H190 0.930 1_655 S
C182 C178 1.391 . S
C182 C181 1.390 . S
C182 H191 0.930 1_655 S
C183 Eu153 2.825 . S
C183 O168 1.238 . S
C183 O169 1.247 . S
C183 C177 1.507 . S
H184 C157 0.930 . S
H185 C158 0.931 . S
H186 C159 0.930 1_655 S
H187 C160 0.930 1_655 S
H188 C179 0.930 . S
H189 C180 0.931 . S
H190 C181 0.930 1_455 S
H191 C182 0.930 1_455 S
Tb192 C202 2.825 . S
Tb192 O203 2.347 1_545 S
Tb192 O206 2.366 . S
Tb192 O211 2.418 . S
Tb192 O212 2.384 . S
Tb192 O215 2.479 . S
Tb192 O216 2.471 . S
Eu193 O204 2.418 . S
Eu193 O205 2.384 . S
Eu193 O208 2.479 . S
Eu193 O209 2.471 . S
Eu193 O210 2.347 1_565 S
Eu193 O213 2.366 . S
Eu193 C223 2.825 . S
C194 O210 1.259 . S
C194 O211 1.265 . S
C195 O212 1.255 . S
C195 O213 1.265 1_545 S
C196 C198 1.380 . S
C196 C199 1.374 . S
C196 C202 1.507 1_554 S
C197 C198 1.384 . S
C197 C201 1.387 . S
C197 H224 0.930 . S
C198 C196 1.380 . S
C198 C197 1.384 . S
C198 H225 0.931 . S
C199 C196 1.374 . S
C199 C200 1.390 . S
C199 H226 0.930 1_545 S
C200 C199 1.390 . S
C200 C201 1.391 . S
C200 H227 0.930 1_545 S
C201 C197 1.387 . S
C201 C200 1.391 . S
C202 Tb192 2.825 . S
C202 C196 1.507 1_556 S
C202 O215 1.238 . S
C202 O216 1.247 . S
O203 Tb192 2.347 1_565 S
O203 C207 1.259 . S
O204 Eu193 2.418 . S
O204 C207 1.265 . S
O205 Eu193 2.384 . S
O205 C214 1.255 . S
O206 Tb192 2.366 . S
O206 C214 1.265 1_545 S
C207 O203 1.259 . S
C207 O204 1.265 . S
O208 Eu193 2.479 . S
O208 C223 1.238 . S
O209 Eu193 2.471 . S
O209 C223 1.247 . S
O210 Eu193 2.347 1_545 S
O210 C194 1.259 . S
O211 Tb192 2.418 . S
O211 C194 1.265 . S
O212 Tb192 2.384 . S
O212 C195 1.255 . S
O213 Eu193 2.366 . S
O213 C195 1.265 1_565 S
C214 O205 1.255 . S
C214 O206 1.265 1_565 S
O215 Tb192 2.479 . S
O215 C202 1.238 . S
O216 Tb192 2.471 . S
O216 C202 1.247 . S
C217 C220 1.380 . S
C217 C221 1.374 . S
C217 C223 1.507 . S
C218 C219 1.387 . S
C218 C222 1.391 . S
C219 C218 1.387 . S
C219 C220 1.384 . S
C219 H228 0.930 . S
C220 C217 1.380 . S
C220 C219 1.384 . S
C220 H229 0.931 . S
C221 C217 1.374 . S
C221 C222 1.390 . S
C221 H230 0.930 1_565 S
C222 C218 1.391 . S
C222 C221 1.390 . S
C222 H231 0.930 1_565 S
C223 Eu193 2.825 . S
C223 O208 1.238 . S
C223 O209 1.247 . S
C223 C217 1.507 . S
H224 C197 0.930 . S
H225 C198 0.931 . S
H226 C199 0.930 1_565 S
H227 C200 0.930 1_565 S
H228 C219 0.930 . S
H229 C220 0.931 . S
H230 C221 0.930 1_545 S
H231 C222 0.930 1_545 S
Tb232 C242 2.825 . S
Tb232 O243 2.347 . S
Tb232 O246 2.366 . S
Tb232 O251 2.418 . S
Tb232 O252 2.384 . S
Tb232 O255 2.479 . S
Tb232 O256 2.471 . S
Eu233 O244 2.418 . S
Eu233 O245 2.384 . S
Eu233 O248 2.479 . S
Eu233 O249 2.471 . S
Eu233 O250 2.347 . S
Eu233 O253 2.366 . S
Eu233 C263 2.825 . S
C234 O250 1.259 . S
C234 O251 1.265 . S
C235 O252 1.255 . S
C235 O253 1.265 . S
C236 C238 1.380 . S
C236 C239 1.374 . S
C236 C242 1.507 1_554 S
C237 C238 1.384 . S
C237 C241 1.387 . S
C237 H264 0.930 . S
C238 C236 1.380 . S
C238 C237 1.384 . S
C238 H265 0.931 . S
C239 C236 1.374 . S
C239 C240 1.390 . S
C239 H266 0.930 . S
C240 C239 1.390 . S
C240 C241 1.391 . S
C240 H267 0.930 . S
C241 C237 1.387 . S
C241 C240 1.391 . S
C242 Tb232 2.825 . S
C242 C236 1.507 1_556 S
C242 O255 1.238 . S
C242 O256 1.247 . S
O243 Tb232 2.347 . S
O243 C247 1.259 . S
O244 Eu233 2.418 . S
O244 C247 1.265 . S
O245 Eu233 2.384 . S
O245 C254 1.255 . S
O246 Tb232 2.366 . S
O246 C254 1.265 . S
C247 O243 1.259 . S
C247 O244 1.265 . S
O248 Eu233 2.479 . S
O248 C263 1.238 . S
O249 Eu233 2.471 . S
O249 C263 1.247 . S
O250 Eu233 2.347 . S
O250 C234 1.259 . S
O251 Tb232 2.418 . S
O251 C234 1.265 . S
O252 Tb232 2.384 . S
O252 C235 1.255 . S
O253 Eu233 2.366 . S
O253 C235 1.265 . S
C254 O245 1.255 . S
C254 O246 1.265 . S
O255 Tb232 2.479 . S
O255 C242 1.238 . S
O256 Tb232 2.471 . S
O256 C242 1.247 . S
C257 C260 1.380 . S
C257 C261 1.374 . S
C257 C263 1.507 . S
C258 C259 1.387 . S
C258 C262 1.391 . S
C259 C258 1.387 . S
C259 C260 1.384 . S
C259 H268 0.930 . S
C260 C257 1.380 . S
C260 C259 1.384 . S
C260 H269 0.931 . S
C261 C257 1.374 . S
C261 C262 1.390 . S
C261 H270 0.930 . S
C262 C258 1.391 . S
C262 C261 1.390 . S
C262 H271 0.930 . S
C263 Eu233 2.825 . S
C263 O248 1.238 . S
C263 O249 1.247 . S
C263 C257 1.507 . S
H264 C237 0.930 . S
H265 C238 0.931 . S
H266 C239 0.930 . S
H267 C240 0.930 . S
H268 C259 0.930 . S
H269 C260 0.931 . S
H270 C261 0.930 . S
H271 C262 0.930 . S
Tb272 C282 2.825 . S
Tb272 O283 2.347 . S
Tb272 O286 2.366 . S
Tb272 O291 2.418 . S
Tb272 O292 2.384 1_655 S
Tb272 O295 2.479 . S
Tb272 O296 2.471 . S
Eu273 O284 2.418 . S
Eu273 O285 2.384 1_455 S
Eu273 O288 2.479 . S
Eu273 O289 2.471 . S
Eu273 O290 2.347 . S
Eu273 O293 2.366 . S
Eu273 C303 2.825 . S
C274 O290 1.259 1_655 S
C274 O291 1.265 . S
C275 O292 1.255 . S
C275 O293 1.265 . S
C276 C278 1.380 . S
C276 C279 1.374 . S
C276 C282 1.507 1_554 S
C277 C278 1.384 . S
C277 C281 1.387 . S
C277 H304 0.930 . S
C278 C276 1.380 . S
C278 C277 1.384 . S
C278 H305 0.931 . S
C279 C276 1.374 . S
C279 C280 1.390 . S
C279 H306 0.930 . S
C280 C279 1.390 . S
C280 C281 1.391 . S
C280 H307 0.930 . S
C281 C277 1.387 . S
C281 C280 1.391 . S
C282 Tb272 2.825 . S
C282 C276 1.507 1_556 S
C282 O295 1.238 . S
C282 O296 1.247 . S
O283 Tb272 2.347 . S
O283 C287 1.259 1_655 S
O284 Eu273 2.418 . S
O284 C287 1.265 . S
O285 Eu273 2.384 1_655 S
O285 C294 1.255 . S
O286 Tb272 2.366 . S
O286 C294 1.265 . S
C287 O283 1.259 1_455 S
C287 O284 1.265 . S
O288 Eu273 2.479 . S
O288 C303 1.238 . S
O289 Eu273 2.471 . S
O289 C303 1.247 . S
O290 Eu273 2.347 . S
O290 C274 1.259 1_455 S
O291 Tb272 2.418 . S
O291 C274 1.265 . S
O292 Tb272 2.384 1_455 S
O292 C275 1.255 . S
O293 Eu273 2.366 . S
O293 C275 1.265 . S
C294 O285 1.255 . S
C294 O286 1.265 . S
O295 Tb272 2.479 . S
O295 C282 1.238 . S
O296 Tb272 2.471 . S
O296 C282 1.247 . S
C297 C300 1.380 . S
C297 C301 1.374 . S
C297 C303 1.507 . S
C298 C299 1.387 . S
C298 C302 1.391 . S
C299 C298 1.387 . S
C299 C300 1.384 . S
C299 H308 0.930 . S
C300 C297 1.380 . S
C300 C299 1.384 . S
C300 H309 0.931 . S
C301 C297 1.374 . S
C301 C302 1.390 . S
C301 H310 0.930 . S
C302 C298 1.391 . S
C302 C301 1.390 . S
C302 H311 0.930 . S
C303 Eu273 2.825 . S
C303 O288 1.238 . S
C303 O289 1.247 . S
C303 C297 1.507 . S
H304 C277 0.930 . S
H305 C278 0.931 . S
H306 C279 0.930 . S
H307 C280 0.930 . S
H308 C299 0.930 . S
H309 C300 0.931 . S
H310 C301 0.930 . S
H311 C302 0.930 . S
H312 C318 0.930 . S
H313 C322 0.930 . S
H314 C327 0.929 . S
H315 C325 0.929 . S
H316 C320 0.929 . S
H317 C326 0.929 . S
C318 H312 0.930 . S
C318 C319 1.378 . S
C318 C326 1.378 . S
C319 C318 1.378 . S
C319 C327 1.422 1_565 S
C320 H316 0.929 . S
C320 C322 1.378 . S
C320 C324 1.350 . S
C321 C324 1.462 1_565 S
C321 C326 1.366 . S
C321 N329 1.411 1_565 S
C322 H313 0.930 . S
C322 C320 1.378 . S
C322 C323 1.407 . S
C323 C322 1.407 . S
C323 C325 1.392 1_545 S
C324 C320 1.350 . S
C324 C321 1.462 1_545 S
C324 N328 1.427 1_545 S
C325 H315 0.929 . S
C325 C323 1.392 1_565 S
C325 N328 1.384 . S
C326 H317 0.929 . S
C326 C318 1.378 . S
C326 C321 1.366 . S
C327 H314 0.929 . S
C327 C319 1.422 1_545 S
C327 N329 1.384 . S
N328 C324 1.427 1_565 S
N328 C325 1.384 . S
N329 C321 1.411 1_545 S
N329 C327 1.384 . S
H330 C336 0.930 . S
H331 C340 0.930 . S
H332 C345 0.929 . S
H333 C343 0.929 . S
H334 C338 0.929 . S
H335 C344 0.929 . S
C336 H330 0.930 . S
C336 C337 1.367 . S
C336 C344 1.378 . S
C337 C336 1.367 . S
C337 C345 1.433 . S
C338 H334 0.929 . S
C338 C340 1.378 . S
C338 C342 1.350 . S
C339 C342 1.463 . S
C339 C344 1.350 . S
C339 N347 1.427 . S
C340 H331 0.930 . S
C340 C338 1.378 . S
C340 C341 1.367 . S
C341 C340 1.367 . S
C341 C343 1.433 . S
C342 C338 1.350 . S
C342 C339 1.463 . S
C342 N346 1.427 . S
C343 H333 0.929 . S
C343 C341 1.433 . S
C343 N346 1.384 . S
C344 H335 0.929 . S
C344 C336 1.378 . S
C344 C339 1.350 . S
C345 H332 0.929 . S
C345 C337 1.433 . S
C345 N347 1.384 . S
N346 C342 1.427 . S
N346 C343 1.384 . S
N347 C339 1.427 . S
N347 C345 1.384 . S
H348 C354 0.930 . S
H349 C358 0.930 . S
H350 C363 0.929 . S
H351 C361 0.929 . S
H352 C356 0.929 . S
H353 C362 0.929 . S
C354 H348 0.930 . S
C354 C355 1.367 . S
C354 C362 1.378 . S
C355 C354 1.367 . S
C355 C363 1.433 . S
C356 H352 0.929 . S
C356 C358 1.378 . S
C356 C360 1.350 . S
C357 C360 1.463 . S
C357 C362 1.350 . S
C357 N365 1.427 . S
C358 H349 0.930 . S
C358 C356 1.378 . S
C358 C359 1.367 . S
C359 C358 1.367 . S
C359 C361 1.433 . S
C360 C356 1.350 . S
C360 C357 1.463 . S
C360 N364 1.427 . S
C361 H351 0.929 . S
C361 C359 1.433 . S
C361 N364 1.384 . S
C362 H353 0.929 . S
C362 C354 1.378 . S
C362 C357 1.350 . S
C363 H350 0.929 . S
C363 C355 1.433 . S
C363 N365 1.384 . S
N364 C360 1.427 . S
N364 C361 1.384 . S
N365 C357 1.427 . S
N365 C363 1.384 . S
H366 C372 0.930 . S
H367 C376 0.930 . S
H368 C381 0.929 . S
H369 C379 0.929 . S
H370 C374 0.929 . S
H371 C380 0.929 . S
C372 H366 0.930 . S
C372 C373 1.368 1_655 S
C372 C380 1.378 . S
C373 C372 1.368 1_455 S
C373 C381 1.432 . S
C374 H370 0.929 . S
C374 C376 1.378 . S
C374 C378 1.361 . S
C375 C378 1.462 . S
C375 C380 1.348 1_455 S
C375 N383 1.429 . S
C376 H367 0.930 . S
C376 C374 1.378 . S
C376 C377 1.380 . S
C377 C376 1.380 . S
C377 C379 1.421 1_455 S
C378 C374 1.361 . S
C378 C375 1.462 . S
C378 N382 1.417 1_455 S
C379 H369 0.929 . S
C379 C377 1.421 1_655 S
C379 N382 1.384 . S
C380 H371 0.929 . S
C380 C372 1.378 . S
C380 C375 1.348 1_655 S
C381 H368 0.929 . S
C381 C373 1.432 . S
C381 N383 1.384 . S
N382 C378 1.417 1_655 S
N382 C379 1.384 . S
N383 C375 1.429 . S
N383 C381 1.384 . S
H384 C390 0.930 . S
H385 C394 0.930 . S
H386 C399 0.929 . S
H387 C397 0.929 . S
H388 C392 0.929 . S
H389 C398 0.929 . S
C390 H384 0.930 . S
C390 C391 1.369 . S
C390 C398 1.378 . S
C391 C390 1.369 . S
C391 C399 1.431 1_565 S
C392 H388 0.929 . S
C392 C394 1.378 . S
C392 C396 1.353 1_556 S
C393 C396 1.462 1_565 S
C393 C398 1.358 . S
C393 N401 1.419 1_565 S
C394 H385 0.930 . S
C394 C392 1.378 . S
C394 C395 1.364 . S
C395 C394 1.364 . S
C395 C397 1.436 1_546 S
C396 C392 1.353 1_554 S
C396 C393 1.462 1_545 S
C396 N400 1.424 1_545 S
C397 H387 0.929 . S
C397 C395 1.436 1_564 S
C397 N400 1.384 . S
C398 H389 0.929 . S
C398 C390 1.378 . S
C398 C393 1.358 . S
C399 H386 0.929 . S
C399 C391 1.431 1_545 S
C399 N401 1.384 . S
N400 C396 1.424 1_565 S
N400 C397 1.384 . S
N401 C393 1.419 1_545 S
N401 C399 1.384 . S
H402 C408 0.930 . S
H403 C412 0.930 . S
H404 C417 0.929 . S
H405 C415 0.929 . S
H406 C410 0.929 . S
H407 C416 0.929 . S
C408 H402 0.930 . S
C408 C409 1.367 . S
C408 C416 1.378 . S
C409 C408 1.367 . S
C409 C417 1.433 . S
C410 H406 0.929 . S
C410 C412 1.378 1_554 S
C410 C414 1.350 . S
C411 C414 1.463 . S
C411 C416 1.350 . S
C411 N419 1.427 . S
C412 H403 0.930 . S
C412 C410 1.378 1_556 S
C412 C413 1.367 . S
C413 C412 1.367 . S
C413 C415 1.433 . S
C414 C410 1.350 . S
C414 C411 1.463 . S
C414 N418 1.427 1_554 S
C415 H405 0.929 . S
C415 C413 1.433 . S
C415 N418 1.384 . S
C416 H407 0.929 . S
C416 C408 1.378 . S
C416 C411 1.350 . S
C417 H404 0.929 . S
C417 C409 1.433 . S
C417 N419 1.384 . S
N418 C414 1.427 1_556 S
N418 C415 1.384 . S
N419 C411 1.427 . S
N419 C417 1.384 . S
H420 C426 0.930 . S
H421 C430 0.930 . S
H422 C435 0.929 . S
H423 C433 0.929 . S
H424 C428 0.929 . S
H425 C434 0.929 . S
C426 H420 0.930 . S
C426 C427 1.367 . S
C426 C434 1.378 . S
C427 C426 1.367 . S
C427 C435 1.433 . S
C428 H424 0.929 . S
C428 C430 1.378 1_554 S
C428 C432 1.350 . S
C429 C432 1.463 . S
C429 C434 1.350 . S
C429 N437 1.427 . S
C430 H421 0.930 . S
C430 C428 1.378 1_556 S
C430 C431 1.367 . S
C431 C430 1.367 . S
C431 C433 1.433 . S
C432 C428 1.350 . S
C432 C429 1.463 . S
C432 N436 1.427 1_554 S
C433 H423 0.929 . S
C433 C431 1.433 . S
C433 N436 1.384 . S
C434 H425 0.929 . S
C434 C426 1.378 . S
C434 C429 1.350 . S
C435 H422 0.929 . S
C435 C427 1.433 . S
C435 N437 1.384 . S
N436 C432 1.427 1_556 S
N436 C433 1.384 . S
N437 C429 1.427 . S
N437 C435 1.384 . S
H438 C444 0.930 . S
H439 C448 0.930 . S
H440 C453 0.929 . S
H441 C451 0.929 . S
H442 C446 0.929 . S
H443 C452 0.929 . S
C444 H438 0.930 . S
C444 C445 1.370 . S
C444 C452 1.378 . S
C445 C444 1.370 . S
C445 C453 1.430 1_655 S
C446 H442 0.929 . S
C446 C448 1.378 . S
C446 C450 1.347 1_456 S
C447 C450 1.462 . S
C447 C452 1.358 . S
C447 N455 1.420 1_655 S
C448 H439 0.930 . S
C448 C446 1.378 . S
C448 C449 1.360 1_455 S
C449 C448 1.360 1_655 S
C449 C451 1.441 1_556 S
C450 C446 1.347 1_654 S
C450 C447 1.462 . S
C450 N454 1.431 . S
C451 H441 0.929 . S
C451 C449 1.441 1_554 S
C451 N454 1.384 . S
C452 H443 0.929 . S
C452 C444 1.378 . S
C452 C447 1.358 . S
C453 H440 0.929 . S
C453 C445 1.430 1_455 S
C453 N455 1.384 . S
N454 C450 1.431 . S
N454 C451 1.384 . S
N455 C447 1.420 1_455 S
N455 C453 1.384 . S
H456 C462 0.930 . S
H457 C466 0.930 . S
H458 C471 0.929 . S
H459 C469 0.929 . S
H460 C464 0.939 . S
H461 C470 0.929 . S
C462 H456 0.930 . S
C462 C463 1.347 1_655 S
C462 C470 1.378 . S
C463 C462 1.347 1_455 S
C463 C471 1.446 . S
C464 H460 0.939 . S
C464 C466 1.378 . S
C464 C468 1.350 . S
C465 C468 1.463 . S
C465 C470 1.350 . S
C465 N473 1.427 1_655 S
C466 H457 0.930 . S
C466 C464 1.378 . S
C466 C467 1.367 . S
C467 C466 1.367 . S
C467 C469 1.433 . S
C468 C464 1.350 . S
C468 C465 1.463 . S
C468 N472 1.427 . S
C469 H459 0.929 . S
C469 C467 1.433 . S
C469 N472 1.384 . S
C470 H461 0.929 . S
C470 C462 1.378 . S
C470 C465 1.350 . S
C471 H458 0.929 . S
C471 C463 1.446 . S
C471 N473 1.384 . S
N472 C468 1.427 . S
N472 C469 1.384 . S
N473 C465 1.427 1_455 S
N473 C471 1.384 . S
H474 C480 0.930 . S
H475 C484 0.930 . S
H476 C489 0.929 . S
H477 C487 0.929 1_545 S
H478 C482 0.929 . S
H479 C488 0.929 . S
C480 H474 0.930 . S
C480 C481 1.367 . S
C480 C488 1.378 . S
C481 C480 1.367 . S
C481 C489 1.433 1_545 S
C482 H478 0.929 . S
C482 C484 1.378 . S
C482 C486 1.350 . S
C483 C486 1.463 . S
C483 C488 1.350 1_565 S
C483 N491 1.427 . S
C484 H475 0.930 . S
C484 C482 1.378 . S
C484 C485 1.367 . S
C485 C484 1.367 . S
C485 C487 1.433 . S
C486 C482 1.350 . S
C486 C483 1.463 . S
C486 N490 1.427 1_565 S
C487 H477 0.929 1_565 S
C487 C485 1.433 . S
C487 N490 1.384 1_565 S
C488 H479 0.929 . S
C488 C480 1.378 . S
C488 C483 1.350 1_545 S
C489 H476 0.929 . S
C489 C481 1.433 1_565 S
C489 N491 1.384 . S
N490 C486 1.427 1_545 S
N490 C487 1.384 1_545 S
N491 C483 1.427 . S
N491 C489 1.384 . S
H492 C498 0.930 . S
H493 C502 0.930 . S
H494 C507 0.929 . S
H495 C505 0.929 . S
H496 C500 0.929 . S
H497 C506 0.929 . S
C498 H492 0.930 . S
C498 C499 1.367 . S
C498 C506 1.378 . S
C499 C498 1.367 . S
C499 C507 1.433 . S
C500 H496 0.929 . S
C500 C502 1.378 . S
C500 C504 1.350 . S
C501 C504 1.463 . S
C501 C506 1.350 . S
C501 N509 1.427 . S
C502 H493 0.930 . S
C502 C500 1.378 . S
C502 C503 1.367 . S
C503 C502 1.367 . S
C503 C505 1.433 . S
C504 C500 1.350 . S
C504 C501 1.463 . S
C504 N508 1.427 . S
C505 H495 0.929 . S
C505 C503 1.433 . S
C505 N508 1.384 . S
C506 H497 0.929 . S
C506 C498 1.378 . S
C506 C501 1.350 . S
C507 H494 0.929 . S
C507 C499 1.433 . S
C507 N509 1.384 . S
N508 C504 1.427 . S
N508 C505 1.384 . S
N509 C501 1.427 . S
N509 C507 1.384 . S
H510 C516 0.930 . S
H511 C520 0.930 . S
H512 C525 0.929 . S
H513 C523 0.929 . S
H514 C518 0.929 . S
H515 C524 0.929 . S
C516 H510 0.930 . S
C516 C517 1.367 . S
C516 C524 1.378 . S
C517 C516 1.367 . S
C517 C525 1.433 . S
C518 H514 0.929 . S
C518 C520 1.378 . S
C518 C522 1.350 . S
C519 C522 1.463 . S
C519 C524 1.350 . S
C519 N527 1.427 . S
C520 H511 0.930 . S
C520 C518 1.378 . S
C520 C521 1.367 . S
C521 C520 1.367 . S
C521 C523 1.433 . S
C522 C518 1.350 . S
C522 C519 1.463 . S
C522 N526 1.427 . S
C523 H513 0.929 . S
C523 C521 1.433 . S
C523 N526 1.384 . S
C524 H515 0.929 . S
C524 C516 1.378 . S
C524 C519 1.350 . S
C525 H512 0.929 . S
C525 C517 1.433 . S
C525 N527 1.384 . S
N526 C522 1.427 . S
N526 C523 1.384 . S
N527 C519 1.427 . S
N527 C525 1.384 . S
H528 C534 0.930 . S
H529 C538 0.930 . S
H530 C543 0.929 . S
H531 C541 0.929 . S
H532 C536 0.929 1_655 S
H533 C542 0.929 . S
C534 H528 0.930 . S
C534 C535 1.343 1_455 S
C534 C542 1.378 . S
C535 C534 1.343 1_655 S
C535 C543 1.451 . S
C536 H532 0.929 1_455 S
C536 C538 1.378 . S
C536 C540 1.350 . S
C537 C540 1.463 . S
C537 C542 1.350 . S
C537 N545 1.427 1_455 S
C538 H529 0.930 . S
C538 C536 1.378 . S
C538 C539 1.367 . S
C539 C538 1.367 . S
C539 C541 1.433 . S
C540 C536 1.350 . S
C540 C537 1.463 . S
C540 N544 1.427 . S
C541 H531 0.929 . S
C541 C539 1.433 . S
C541 N544 1.384 . S
C542 H533 0.929 . S
C542 C534 1.378 . S
C542 C537 1.350 . S
C543 H530 0.929 . S
C543 C535 1.451 . S
C543 N545 1.384 . S
N544 C540 1.427 . S
N544 C541 1.384 . S
N545 C537 1.427 1_655 S
N545 C543 1.384 . S
H546 C552 0.930 . S
H547 C556 0.930 1_565 S
H548 C561 0.929 . S
H549 C559 0.929 . S
H550 C554 0.905 1_565 S
H551 C560 0.929 . S
C552 H546 0.930 . S
C552 C553 1.352 1_545 S
C552 C560 1.378 . S
C553 C552 1.352 1_565 S
C553 C561 1.445 . S
C554 H550 0.905 1_545 S
C554 C556 1.384 . S
C554 C558 1.367 . S
C555 C558 1.463 . S
C555 C560 1.350 . S
C555 N563 1.427 1_545 S
C556 H547 0.930 1_545 S
C556 C554 1.384 . S
C556 C557 1.367 . S
C557 C556 1.367 . S
C557 C559 1.433 . S
C558 C554 1.367 . S
C558 C555 1.463 . S
C558 N562 1.427 . S
C559 H549 0.929 . S
C559 C557 1.433 . S
C559 N562 1.384 . S
C560 H551 0.929 . S
C560 C552 1.378 . S
C560 C555 1.350 . S
C561 H548 0.929 . S
C561 C553 1.445 . S
C561 N563 1.384 . S
N562 C558 1.427 . S
N562 C559 1.384 . S
N563 C555 1.427 1_565 S
N563 C561 1.384 . S
H564 C570 0.930 . S
H565 C574 0.930 . S
H566 C579 0.929 . S
H567 C577 0.929 1_556 S
H568 C572 0.929 . S
H569 C578 0.929 . S
C570 H564 0.930 . S
C570 C571 1.367 . S
C570 C578 1.378 . S
C571 C570 1.367 . S
C571 C579 1.433 . S
C572 H568 0.929 . S
C572 C574 1.378 . S
C572 C576 1.350 . S
C573 C576 1.463 . S
C573 C578 1.350 . S
C573 N581 1.427 . S
C574 H565 0.930 . S
C574 C572 1.378 . S
C574 C575 1.367 . S
C575 C574 1.367 . S
C575 C577 1.433 . S
C576 C572 1.350 . S
C576 C573 1.463 . S
C576 N580 1.427 . S
C577 H567 0.929 1_554 S
C577 C575 1.433 . S
C577 N580 1.384 . S
C578 H569 0.929 . S
C578 C570 1.378 . S
C578 C573 1.350 . S
C579 H566 0.929 . S
C579 C571 1.433 . S
C579 N581 1.384 . S
N580 C576 1.427 . S
N580 C577 1.384 . S
N581 C573 1.427 . S
N581 C579 1.384 . S
H582 C588 0.930 . S
H583 C592 0.930 . S
H584 C597 0.929 . S
H585 C595 0.929 . S
H586 C590 0.929 . S
H587 C596 0.929 . S
C588 H582 0.930 . S
C588 C589 1.367 . S
C588 C596 1.378 . S
C589 C588 1.367 . S
C589 C597 1.433 . S
C590 H586 0.929 . S
C590 C592 1.378 . S
C590 C594 1.350 . S
C591 C594 1.463 . S
C591 C596 1.350 . S
C591 N599 1.427 . S
C592 H583 0.930 . S
C592 C590 1.378 . S
C592 C593 1.367 . S
C593 C592 1.367 . S
C593 C595 1.433 . S
C594 C590 1.350 . S
C594 C591 1.463 . S
C594 N598 1.427 . S
C595 H585 0.929 . S
C595 C593 1.433 . S
C595 N598 1.384 . S
C596 H587 0.929 . S
C596 C588 1.378 . S
C596 C591 1.350 . S
C597 H584 0.929 . S
C597 C589 1.433 . S
C597 N599 1.384 . S
N598 C594 1.427 . S
N598 C595 1.384 . S
N599 C591 1.427 . S
N599 C597 1.384 . S
H600 C606 0.930 . S
H601 C610 0.930 . S
H602 C615 0.929 . S
H603 C613 0.929 . S
H604 C608 0.929 . S
H605 C614 0.929 . S
C606 H600 0.930 . S
C606 C607 1.367 . S
C606 C614 1.378 . S
C607 C606 1.367 . S
C607 C615 1.433 1_455 S
C608 H604 0.929 . S
C608 C610 1.378 . S
C608 C612 1.350 1_655 S
C609 C612 1.463 . S
C609 C614 1.350 . S
C609 N617 1.427 1_455 S
C610 H601 0.930 . S
C610 C608 1.378 . S
C610 C611 1.367 1_655 S
C611 C610 1.367 1_455 S
C611 C613 1.433 . S
C612 C608 1.350 1_455 S
C612 C609 1.463 . S
C612 N616 1.427 . S
C613 H603 0.929 . S
C613 C611 1.433 . S
C613 N616 1.384 . S
C614 H605 0.929 . S
C614 C606 1.378 . S
C614 C609 1.350 . S
C615 H602 0.929 . S
C615 C607 1.433 1_655 S
C615 N617 1.384 . S
N616 C612 1.427 . S
N616 C613 1.384 . S
N617 C609 1.427 1_655 S
N617 C615 1.384 . S
H618 C624 0.930 . S
H619 C628 0.930 . S
H620 C633 0.929 . S
H621 C631 0.929 . S
H622 C626 0.929 . S
H623 C632 0.929 . S
C624 H618 0.930 . S
C624 C625 1.367 1_565 S
C624 C632 1.378 . S
C625 C624 1.367 1_545 S
C625 C633 1.433 . S
C626 H622 0.929 . S
C626 C628 1.378 . S
C626 C630 1.350 . S
C627 C630 1.463 . S
C627 C632 1.350 1_545 S
C627 N635 1.427 . S
C628 H619 0.930 . S
C628 C626 1.378 . S
C628 C629 1.367 . S
C629 C628 1.367 . S
C629 C631 1.433 1_545 S
C630 C626 1.350 . S
C630 C627 1.463 . S
C630 N634 1.427 1_545 S
C631 H621 0.929 . S
C631 C629 1.433 1_565 S
C631 N634 1.384 . S
C632 H623 0.929 . S
C632 C624 1.378 . S
C632 C627 1.350 1_565 S
C633 H620 0.929 . S
C633 C625 1.433 . S
C633 N635 1.384 . S
N634 C630 1.427 1_565 S
N634 C631 1.384 . S
N635 C627 1.427 . S
N635 C633 1.384 . S
H636 C642 0.930 . S
H637 C646 0.930 . S
H638 C651 0.929 . S
H639 C649 0.929 . S
H640 C644 0.929 . S
H641 C650 0.929 . S
C642 H636 0.930 . S
C642 C643 1.367 . S
C642 C650 1.378 . S
C643 C642 1.367 . S
C643 C651 1.433 . S
C644 H640 0.929 . S
C644 C646 1.378 . S
C644 C648 1.350 . S
C645 C648 1.463 . S
C645 C650 1.350 . S
C645 N653 1.427 . S
C646 H637 0.930 . S
C646 C644 1.378 . S
C646 C647 1.367 . S
C647 C646 1.367 . S
C647 C649 1.433 . S
C648 C644 1.350 . S
C648 C645 1.463 . S
C648 N652 1.427 . S
C649 H639 0.929 . S
C649 C647 1.433 . S
C649 N652 1.384 . S
C650 H641 0.929 . S
C650 C642 1.378 . S
C650 C645 1.350 . S
C651 H638 0.929 . S
C651 C643 1.433 . S
C651 N653 1.384 . S
N652 C648 1.427 . S
N652 C649 1.384 . S
N653 C645 1.427 . S
N653 C651 1.384 . S
H654 C660 0.930 . S
H655 C664 0.930 . S
H656 C669 0.929 . S
H657 C667 0.929 . S
H658 C662 0.929 . S
H659 C668 0.929 . S
C660 H654 0.930 . S
C660 C661 1.367 . S
C660 C668 1.378 . S
C661 C660 1.367 . S
C661 C669 1.433 . S
C662 H658 0.929 . S
C662 C664 1.378 . S
C662 C666 1.350 . S
C663 C666 1.463 . S
C663 C668 1.350 . S
C663 N671 1.427 . S
C664 H655 0.930 . S
C664 C662 1.378 . S
C664 C665 1.367 . S
C665 C664 1.367 . S
C665 C667 1.433 . S
C666 C662 1.350 . S
C666 C663 1.463 . S
C666 N670 1.427 . S
C667 H657 0.929 . S
C667 C665 1.433 . S
C667 N670 1.384 . S
C668 H659 0.929 . S
C668 C660 1.378 . S
C668 C663 1.350 . S
C669 H656 0.929 . S
C669 C661 1.433 . S
C669 N671 1.384 . S
N670 C666 1.427 . S
N670 C667 1.384 . S
N671 C663 1.427 . S
N671 C669 1.384 . S
H672 C678 0.930 . S
H673 C682 0.930 . S
H674 C687 0.929 . S
H675 C685 0.929 . S
H676 C680 0.929 . S
H677 C686 0.929 . S
C678 H672 0.930 . S
C678 C679 1.367 1_455 S
C678 C686 1.378 . S
C679 C678 1.367 1_655 S
C679 C687 1.433 . S
C680 H676 0.929 . S
C680 C682 1.378 . S
C680 C684 1.350 . S
C681 C684 1.463 . S
C681 C686 1.350 1_655 S
C681 N689 1.427 . S
C682 H673 0.930 . S
C682 C680 1.378 . S
C682 C683 1.367 . S
C683 C682 1.367 . S
C683 C685 1.433 1_655 S
C684 C680 1.350 . S
C684 C681 1.463 . S
C684 N688 1.427 1_655 S
C685 H675 0.929 . S
C685 C683 1.433 1_455 S
C685 N688 1.384 . S
C686 H677 0.929 . S
C686 C678 1.378 . S
C686 C681 1.350 1_455 S
C687 H674 0.929 . S
C687 C679 1.433 . S
C687 N689 1.384 . S
N688 C684 1.427 1_455 S
N688 C685 1.384 . S
N689 C681 1.427 . S
N689 C687 1.384 . S
H690 C696 0.930 . S
H691 C700 0.930 . S
H692 C705 0.929 . S
H693 C703 0.929 . S
H694 C698 0.929 . S
H695 C704 0.929 . S
C696 H690 0.930 . S
C696 C697 1.367 . S
C696 C704 1.378 . S
C697 C696 1.367 . S
C697 C705 1.433 1_565 S
C698 H694 0.929 . S
C698 C700 1.378 . S
C698 C702 1.350 1_545 S
C699 C702 1.463 . S
C699 C704 1.350 . S
C699 N707 1.427 1_565 S
C700 H691 0.930 . S
C700 C698 1.378 . S
C700 C701 1.367 1_545 S
C701 C700 1.367 1_565 S
C701 C703 1.433 . S
C702 C698 1.350 1_565 S
C702 C699 1.463 . S
C702 N706 1.427 . S
C703 H693 0.929 . S
C703 C701 1.433 . S
C703 N706 1.384 . S
C704 H695 0.929 . S
C704 C696 1.378 . S
C704 C699 1.350 . S
C705 H692 0.929 . S
C705 C697 1.433 1_545 S
C705 N707 1.384 . S
N706 C702 1.427 . S
N706 C703 1.384 . S
N707 C699 1.427 1_545 S
N707 C705 1.384 . S
H708 C714 0.930 . S
H709 C718 0.930 . S
H710 C723 0.929 . S
H711 C721 0.929 . S
H712 C716 0.929 . S
H713 C722 0.929 . S
C714 H708 0.930 . S
C714 C715 1.367 . S
C714 C722 1.378 . S
C715 C714 1.367 . S
C715 C723 1.433 . S
C716 H712 0.929 . S
C716 C718 1.378 . S
C716 C720 1.350 . S
C717 C720 1.463 . S
C717 C722 1.350 . S
C717 N725 1.427 . S
C718 H709 0.930 . S
C718 C716 1.378 . S
C718 C719 1.367 . S
C719 C718 1.367 . S
C719 C721 1.433 . S
C720 C716 1.350 . S
C720 C717 1.463 . S
C720 N724 1.427 . S
C721 H711 0.929 . S
C721 C719 1.433 . S
C721 N724 1.384 . S
C722 H713 0.929 . S
C722 C714 1.378 . S
C722 C717 1.350 . S
C723 H710 0.929 . S
C723 C715 1.433 . S
C723 N725 1.384 . S
N724 C720 1.427 . S
N724 C721 1.384 . S
N725 C717 1.427 . S
N725 C723 1.384 . S
H726 C732 0.930 . S
H727 C736 0.930 . S
H728 C741 0.929 . S
H729 C739 0.929 . S
H730 C734 0.929 . S
H731 C740 0.929 . S
C732 H726 0.930 . S
C732 C733 1.367 . S
C732 C740 1.378 . S
C733 C732 1.367 . S
C733 C741 1.433 . S
C734 H730 0.929 . S
C734 C736 1.378 . S
C734 C738 1.350 . S
C735 C738 1.463 . S
C735 C740 1.350 . S
C735 N743 1.427 . S
C736 H727 0.930 . S
C736 C734 1.378 . S
C736 C737 1.367 . S
C737 C736 1.367 . S
C737 C739 1.433 . S
C738 C734 1.350 . S
C738 C735 1.463 . S
C738 N742 1.427 . S
C739 H729 0.929 . S
C739 C737 1.433 . S
C739 N742 1.384 . S
C740 H731 0.929 . S
C740 C732 1.378 . S
C740 C735 1.350 . S
C741 H728 0.929 . S
C741 C733 1.433 . S
C741 N743 1.384 . S
N742 C738 1.427 . S
N742 C739 1.384 . S
N743 C735 1.427 . S
N743 C741 1.384 . S
C319 C125 1.924 . S
C323 C154 1.967 1_545 S
C341 C194 1.977 . S
C337 C144 1.939 . S
C359 C234 1.984 . S
C355 C87 1.939 . S
C377 C274 1.974 1_455 S
C373 C106 1.930 1_455 S
C395 C167 1.971 . S
C391 C49 1.930 . S
C409 C68 1.933 . S
C413 C207 1.984 . S
C427 C11 1.927 . S
C431 C247 1.980 . S
C445 C30 1.930 . S
C449 C287 1.974 1_655 S
C467 C178 0.500 . S
C463 C97 0.566 . S
C485 C218 0.523 . S
C481 C116 0.571 . S
C503 C258 0.515 . S
C499 C135 0.579 . S
C517 C78 0.544 . S
C521 C298 0.510 . S
C535 C21 0.533 . S
C539 C161 0.503 . S
C557 C201 0.507 . S
C553 C40 0.543 . S
C575 C241 0.520 . S
C571 C59 0.584 . S
C589 C2 0.550 . S
C593 C281 0.507 . S
C607 C101 2.076 1_455 S
C611 C155 2.294 . S
C625 C120 2.049 1_545 S
C629 C195 2.284 . S
C647 C235 2.273 . S
C643 C139 2.037 . S
C665 C275 2.291 . S
C661 C82 2.060 . S
C679 C25 2.076 . S
C683 C174 2.308 . S
C701 C214 2.282 . S
C697 C44 2.050 . S
C719 C254 2.276 . S
C715 C63 2.050 . S
C733 C6 2.052 . S
C737 C294 2.295 . S
