# Generated by pormake.
# Topology ctn, (3,4)-cn, num edge types: 1
# Building blocks:
#     Node 0, Type 0, BuildingBlock: PAMTOO_clean_linker_0, # of connection points: 3
#     Node 1, Type 0, BuildingBlock: PAMTOO_clean_linker_0, # of connection points: 3
#     Node 2, Type 0, BuildingBlock: PAMTOO_clean_linker_0, # of connection points: 3
#     Node 3, Type 0, BuildingBlock: PAMTOO_clean_linker_0, # of connection points: 3
#     Node 4, Type 0, BuildingBlock: PAMTOO_clean_linker_0, # of connection points: 3
#     Node 5, Type 0, BuildingBlock: PAMTOO_clean_linker_0, # of connection points: 3
#     Node 6, Type 0, BuildingBlock: PAMTOO_clean_linker_0, # of connection points: 3
#     Node 7, Type 0, BuildingBlock: PAMTOO_clean_linker_0, # of connection points: 3
#     Node 8, Type 0, BuildingBlock: PAMTOO_clean_linker_0, # of connection points: 3
#     Node 9, Type 0, BuildingBlock: PAMTOO_clean_linker_0, # of connection points: 3
#     Node 10, Type 0, BuildingBlock: PAMTOO_clean_linker_0, # of connection points: 3
#     Node 11, Type 0, BuildingBlock: PAMTOO_clean_linker_0, # of connection points: 3
#     Node 12, Type 0, BuildingBlock: PAMTOO_clean_linker_0, # of connection points: 3
#     Node 13, Type 0, BuildingBlock: PAMTOO_clean_linker_0, # of connection points: 3
#     Node 14, Type 0, BuildingBlock: PAMTOO_clean_linker_0, # of connection points: 3
#     Node 15, Type 0, BuildingBlock: PAMTOO_clean_linker_0, # of connection points: 3
#     Node 16, Type 1, BuildingBlock: UXUYUI_clean_sbu_0, # of connection points: 4
#     Node 17, Type 1, BuildingBlock: UXUYUI_clean_sbu_0, # of connection points: 4
#     Node 18, Type 1, BuildingBlock: UXUYUI_clean_sbu_0, # of connection points: 4
#     Node 19, Type 1, BuildingBlock: UXUYUI_clean_sbu_0, # of connection points: 4
#     Node 20, Type 1, BuildingBlock: UXUYUI_clean_sbu_0, # of connection points: 4
#     Node 21, Type 1, BuildingBlock: UXUYUI_clean_sbu_0, # of connection points: 4
#     Node 22, Type 1, BuildingBlock: UXUYUI_clean_sbu_0, # of connection points: 4
#     Node 23, Type 1, BuildingBlock: UXUYUI_clean_sbu_0, # of connection points: 4
#     Node 24, Type 1, BuildingBlock: UXUYUI_clean_sbu_0, # of connection points: 4
#     Node 25, Type 1, BuildingBlock: UXUYUI_clean_sbu_0, # of connection points: 4
#     Node 26, Type 1, BuildingBlock: UXUYUI_clean_sbu_0, # of connection points: 4
#     Node 27, Type 1, BuildingBlock: UXUYUI_clean_sbu_0, # of connection points: 4
#     Edge 28, Type (0, 1), BuildingBlock: KIFKEQ_clean_linker_1, # of connection points: 2
#     Edge 29, Type (0, 1), BuildingBlock: KIFKEQ_clean_linker_1, # of connection points: 2
#     Edge 30, Type (0, 1), BuildingBlock: KIFKEQ_clean_linker_1, # of connection points: 2
#     Edge 31, Type (0, 1), BuildingBlock: KIFKEQ_clean_linker_1, # of connection points: 2
#     Edge 32, Type (0, 1), BuildingBlock: KIFKEQ_clean_linker_1, # of connection points: 2
#     Edge 33, Type (0, 1), BuildingBlock: KIFKEQ_clean_linker_1, # of connection points: 2
#     Edge 34, Type (0, 1), BuildingBlock: KIFKEQ_clean_linker_1, # of connection points: 2
#     Edge 35, Type (0, 1), BuildingBlock: KIFKEQ_clean_linker_1, # of connection points: 2
#     Edge 36, Type (0, 1), BuildingBlock: KIFKEQ_clean_linker_1, # of connection points: 2
#     Edge 37, Type (0, 1), BuildingBlock: KIFKEQ_clean_linker_1, # of connection points: 2
#     Edge 38, Type (0, 1), BuildingBlock: KIFKEQ_clean_linker_1, # of connection points: 2
#     Edge 39, Type (0, 1), BuildingBlock: KIFKEQ_clean_linker_1, # of connection points: 2
#     Edge 40, Type (0, 1), BuildingBlock: KIFKEQ_clean_linker_1, # of connection points: 2
#     Edge 41, Type (0, 1), BuildingBlock: KIFKEQ_clean_linker_1, # of connection points: 2
#     Edge 42, Type (0, 1), BuildingBlock: KIFKEQ_clean_linker_1, # of connection points: 2
#     Edge 43, Type (0, 1), BuildingBlock: KIFKEQ_clean_linker_1, # of connection points: 2
#     Edge 44, Type (0, 1), BuildingBlock: KIFKEQ_clean_linker_1, # of connection points: 2
#     Edge 45, Type (0, 1), BuildingBlock: KIFKEQ_clean_linker_1, # of connection points: 2
#     Edge 46, Type (0, 1), BuildingBlock: KIFKEQ_clean_linker_1, # of connection points: 2
#     Edge 47, Type (0, 1), BuildingBlock: KIFKEQ_clean_linker_1, # of connection points: 2
#     Edge 48, Type (0, 1), BuildingBlock: KIFKEQ_clean_linker_1, # of connection points: 2
#     Edge 49, Type (0, 1), BuildingBlock: KIFKEQ_clean_linker_1, # of connection points: 2
#     Edge 50, Type (0, 1), BuildingBlock: KIFKEQ_clean_linker_1, # of connection points: 2
#     Edge 51, Type (0, 1), BuildingBlock: KIFKEQ_clean_linker_1, # of connection points: 2
#     Edge 52, Type (0, 1), BuildingBlock: KIFKEQ_clean_linker_1, # of connection points: 2
#     Edge 53, Type (0, 1), BuildingBlock: KIFKEQ_clean_linker_1, # of connection points: 2
#     Edge 54, Type (0, 1), BuildingBlock: KIFKEQ_clean_linker_1, # of connection points: 2
#     Edge 55, Type (0, 1), BuildingBlock: KIFKEQ_clean_linker_1, # of connection points: 2
#     Edge 56, Type (0, 1), BuildingBlock: KIFKEQ_clean_linker_1, # of connection points: 2
#     Edge 57, Type (0, 1), BuildingBlock: KIFKEQ_clean_linker_1, # of connection points: 2
#     Edge 58, Type (0, 1), BuildingBlock: KIFKEQ_clean_linker_1, # of connection points: 2
#     Edge 59, Type (0, 1), BuildingBlock: KIFKEQ_clean_linker_1, # of connection points: 2
#     Edge 60, Type (0, 1), BuildingBlock: KIFKEQ_clean_linker_1, # of connection points: 2
#     Edge 61, Type (0, 1), BuildingBlock: KIFKEQ_clean_linker_1, # of connection points: 2
#     Edge 62, Type (0, 1), BuildingBlock: KIFKEQ_clean_linker_1, # of connection points: 2
#     Edge 63, Type (0, 1), BuildingBlock: KIFKEQ_clean_linker_1, # of connection points: 2
#     Edge 64, Type (0, 1), BuildingBlock: KIFKEQ_clean_linker_1, # of connection points: 2
#     Edge 65, Type (0, 1), BuildingBlock: KIFKEQ_clean_linker_1, # of connection points: 2
#     Edge 66, Type (0, 1), BuildingBlock: KIFKEQ_clean_linker_1, # of connection points: 2
#     Edge 67, Type (0, 1), BuildingBlock: KIFKEQ_clean_linker_1, # of connection points: 2
#     Edge 68, Type (0, 1), BuildingBlock: KIFKEQ_clean_linker_1, # of connection points: 2
#     Edge 69, Type (0, 1), BuildingBlock: KIFKEQ_clean_linker_1, # of connection points: 2
#     Edge 70, Type (0, 1), BuildingBlock: KIFKEQ_clean_linker_1, # of connection points: 2
#     Edge 71, Type (0, 1), BuildingBlock: KIFKEQ_clean_linker_1, # of connection points: 2
#     Edge 72, Type (0, 1), BuildingBlock: KIFKEQ_clean_linker_1, # of connection points: 2
#     Edge 73, Type (0, 1), BuildingBlock: KIFKEQ_clean_linker_1, # of connection points: 2
#     Edge 74, Type (0, 1), BuildingBlock: KIFKEQ_clean_linker_1, # of connection points: 2
#     Edge 75, Type (0, 1), BuildingBlock: KIFKEQ_clean_linker_1, # of connection points: 2
# Relax obj value: 0.063
# Max RMSD: 0.182
# Mean RMSD: 0.115
data_MOF--net-ctn--node1-UXUYUI_clean_sbu_0--node2-PAMTOO_clean_linker_0--edge1-KIFKEQ_clean_linker_1
_symmetry_space_group_name_H-M    P1
_symmetry_Int_Tables_number       1
_symmetry_cell_setting            triclinic
loop_
_symmetry_equiv_pos_as_xyz
'x, y, z'
_cell_length_a     67.503517
_cell_length_b     67.910921
_cell_length_c     69.09988
_cell_angle_alpha  85.293521
_cell_angle_beta   92.318586
_cell_angle_gamma 97.197684
loop_
_atom_site_label
_atom_site_type_symbol
_atom_site_fract_x
_atom_site_fract_y
_atom_site_fract_z
_atom_type_partial_charge
H0 H 0.02469 0.08349 0.06985 0.0
H1 H 0.05398 0.03219 0.08907 0.0
H2 H 0.07164 0.06664 0.03657 0.0
H3 H 0.06329 0.02191 0.03578 0.0
C4 C 0.07155 0.018 0.04956 0.0
O5 O 0.07703 0.03498 0.05921 0.0
H6 H 0.06145 0.00723 0.05875 0.0
C7 C 0.03602 0.07389 0.06803 0.0
C8 C 0.04814 0.07752 0.05168 0.0
C9 C 0.03797 0.05771 0.0818 0.0
C10 C 0.05201 0.04469 0.07869 0.0
C11 C 0.06379 0.04777 0.06221 0.0
C12 C 0.062 0.06422 0.04891 0.0
H13 H 0.31577 0.69587 0.27139 0.0
H14 H 0.28344 0.71003 0.21802 0.0
H15 H 0.33514 0.74866 0.23465 0.0
H16 H 0.30284 0.77031 0.21937 0.0
C17 C 0.29471 0.75913 0.21007 0.0
O18 O 0.30575 0.74345 0.20921 0.0
H19 H 0.28011 0.75374 0.2168 0.0
C20 C 0.31416 0.70535 0.25817 0.0
C21 C 0.32776 0.72269 0.2547 0.0
C22 C 0.29811 0.70043 0.24506 0.0
C23 C 0.29555 0.71343 0.22845 0.0
C24 C 0.3087 0.73087 0.22499 0.0
C25 C 0.32487 0.73533 0.23789 0.0
H26 H 0.97517 0.50604 0.10094 0.0
H27 H 0.95399 0.47753 0.04933 0.0
H28 H 1.00223 0.45612 0.08359 0.0
H29 H 0.00851 0.46003 0.04228 0.0
C30 C 0.99298 0.456 0.03667 0.0
O31 O 0.98019 0.45194 0.05202 0.0
H32 H 0.98848 0.46893 0.0273 0.0
C33 C 0.97606 0.4946 0.09107 0.0
C34 C 0.99049 0.48127 0.09453 0.0
C35 C 0.96262 0.49325 0.07497 0.0
C36 C 0.96399 0.47862 0.06197 0.0
C37 C 0.97854 0.46558 0.06494 0.0
C38 C 0.99147 0.46672 0.08129 0.0
H39 H 0.7171 0.82775 0.26609 0.0
H40 H 0.69567 0.7734 0.23959 0.0
H41 H 0.74905 0.80908 0.21958 0.0
H42 H 0.72074 0.79316 0.18977 0.0
C43 C 0.71693 0.77776 0.19656 0.0
O44 O 0.72497 0.77628 0.21524 0.0
H45 H 0.70037 0.77473 0.19702 0.0
C46 C 0.71851 0.81711 0.25549 0.0
C47 C 0.73466 0.82044 0.24298 0.0
C48 C 0.70415 0.8003 0.25436 0.0
C49 C 0.70651 0.78647 0.24075 0.0
C50 C 0.72266 0.78968 0.22821 0.0
C51 C 0.73661 0.80671 0.22928 0.0
H52 H 0.08812 0.96827 0.52244 0.0
H53 H 0.03367 0.9527 0.48948 0.0
H54 H 0.0736 1.00401 0.47051 0.0
H55 H 0.03177 0.01033 0.46768 0.0
C56 C 0.02479 0.99508 0.46481 0.0
O57 O 0.03947 0.98285 0.46352 0.0
H58 H 0.01503 0.98935 0.47715 0.0
C59 C 0.07834 0.97105 0.50996 0.0
C60 C 0.08333 0.98775 0.49681 0.0
C61 C 0.0605 0.95821 0.50752 0.0
C62 C 0.04742 0.96242 0.49178 0.0
C63 C 0.05213 0.97901 0.47865 0.0
C64 C 0.07006 0.99149 0.48106 0.0
H65 H 0.19986 0.76011 0.8179 0.0
H66 H 0.21458 0.70904 0.7909 0.0
H67 H 0.24882 0.72903 0.84043 0.0
H68 H 0.27295 0.72061 0.80792 0.0
C69 C 0.26249 0.70857 0.80172 0.0
O70 O 0.24592 0.70434 0.81313 0.0
H71 H 0.25793 0.71408 0.78679 0.0
C72 C 0.20871 0.74792 0.81759 0.0
C73 C 0.22434 0.74605 0.83155 0.0
C74 C 0.20468 0.73457 0.80293 0.0
C75 C 0.21723 0.71964 0.80187 0.0
C76 C 0.2334 0.71814 0.81502 0.0
C77 C 0.23668 0.731 0.83001 0.0
H78 H 0.95131 0.56697 0.51447 0.0
H79 H 0.97272 0.53428 0.47033 0.0
H80 H 0.0084 0.58638 0.48906 0.0
H81 H 0.00827 0.58251 0.44606 0.0
C82 C 1.00478 0.56605 0.44618 0.0
O83 O 0.00586 0.55797 0.46517 0.0
H84 H 0.98941 0.5625 0.43995 0.0
C85 C 0.96267 0.56499 0.50441 0.0
C86 C 0.98024 0.57856 0.50344 0.0
C87 C 0.95968 0.5489 0.49256 0.0
C88 C 0.97454 0.54662 0.4795 0.0
C89 C 0.99195 0.56018 0.47816 0.0
C90 C 0.99487 0.57598 0.49023 0.0
H91 H 0.77908 0.81134 0.84902 0.0
H92 H 0.82609 0.78117 0.82915 0.0
H93 H 0.80421 0.82836 0.79282 0.0
H94 H 0.8131 0.79486 0.77142 0.0
C95 C 0.82476 0.78914 0.78144 0.0
O96 O 0.82961 0.80205 0.79581 0.0
H97 H 0.81843 0.77426 0.78799 0.0
C98 C 0.78954 0.80946 0.83803 0.0
C99 C 0.78986 0.8217 0.82051 0.0
C100 C 0.80258 0.79478 0.84145 0.0
C101 C 0.81608 0.7925 0.82703 0.0
C102 C 0.81651 0.80447 0.80953 0.0
C103 C 0.80349 0.81903 0.80633 0.0
H104 H 0.27941 0.31142 0.35054 0.0
H105 H 0.32689 0.28192 0.33067 0.0
H106 H 0.30495 0.32926 0.29464 0.0
H107 H 0.31582 0.29793 0.27177 0.0
C108 C 0.32582 0.29082 0.28265 0.0
O109 O 0.33054 0.30314 0.29757 0.0
H110 H 0.31772 0.2764 0.28851 0.0
C111 C 0.28998 0.30976 0.33958 0.0
C112 C 0.29034 0.32216 0.32216 0.0
C113 C 0.30316 0.29521 0.34296 0.0
C114 C 0.31677 0.29315 0.32858 0.0
C115 C 0.31726 0.30529 0.31119 0.0
C116 C 0.30416 0.31978 0.30805 0.0
H117 H 0.47238 0.00446 0.60194 0.0
H118 H 0.45239 0.97676 0.5495 0.0
H119 H 0.50056 0.95554 0.58417 0.0
H120 H 0.50713 0.95952 0.54307 0.0
C121 C 0.49168 0.95547 0.53723 0.0
O122 O 0.47867 0.95123 0.55238 0.0
H123 H 0.48725 0.96844 0.52788 0.0
C124 C 0.47374 0.9935 0.59167 0.0
C125 C 0.48809 0.98013 0.59523 0.0
C126 C 0.46056 0.99227 0.57536 0.0
C127 C 0.46219 0.97776 0.56228 0.0
C128 C 0.47675 0.96471 0.56539 0.0
C129 C 0.48941 0.96574 0.58194 0.0
H130 H 0.21572 0.32916 0.76577 0.0
H131 H 0.19765 0.27259 0.74226 0.0
H132 H 0.24813 0.31062 0.71938 0.0
H133 H 0.21616 0.29175 0.69208 0.0
C134 C 0.21622 0.27627 0.6988 0.0
O135 O 0.22589 0.2766 0.71681 0.0
H136 H 0.20044 0.26962 0.70059 0.0
C137 C 0.21779 0.31829 0.75564 0.0
C138 C 0.23369 0.32218 0.74275 0.0
C139 C 0.20454 0.30053 0.75564 0.0
C140 C 0.20745 0.28649 0.74244 0.0
C141 C 0.22316 0.2902 0.72944 0.0
C142 C 0.2362 0.30794 0.72964 0.0
H143 H 0.8147 0.19559 0.77076 0.0
H144 H 0.7821 0.21063 0.71776 0.0
H145 H 0.83226 0.25032 0.73618 0.0
H146 H 0.79614 0.26927 0.72245 0.0
C147 C 0.79054 0.25916 0.71101 0.0
O148 O 0.80336 0.24493 0.7102 0.0
H149 H 0.77538 0.25185 0.7149 0.0
C150 C 0.81275 0.2055 0.75791 0.0
C151 C 0.82576 0.22335 0.7551 0.0
C152 C 0.79686 0.20063 0.7446 0.0
C153 C 0.79402 0.21404 0.72839 0.0
C154 C 0.80656 0.23201 0.72564 0.0
C155 C 0.82244 0.23656 0.73883 0.0
H156 H 0.5225 0.58306 0.56919 0.0
H157 H 0.55 0.53048 0.58821 0.0
H158 H 0.56904 0.56526 0.5362 0.0
H159 H 0.56087 0.52019 0.53636 0.0
C160 C 0.56953 0.51672 0.55001 0.0
O161 O 0.57457 0.53392 0.55945 0.0
H162 H 0.56 0.50571 0.55949 0.0
C163 C 0.53297 0.57263 0.56709 0.0
C164 C 0.54535 0.57607 0.55096 0.0
C165 C 0.53442 0.55627 0.58077 0.0
C166 C 0.5487 0.54334 0.5781 0.0
C167 C 0.56108 0.54659 0.56203 0.0
C168 C 0.55947 0.56297 0.5486 0.0
H169 H 0.59195 0.46468 0.01905 0.0
H170 H 0.53777 0.45014 0.98525 0.0
H171 H 0.5775 0.50254 0.96866 0.0
H172 H 0.53604 0.50858 0.96488 0.0
C173 C 0.52904 0.49334 0.96199 0.0
O174 O 0.54372 0.4812 0.9603 0.0
H175 H 0.51954 0.48747 0.97449 0.0
C176 C 0.58203 0.46801 0.00682 0.0
C177 C 0.58701 0.48516 0.99427 0.0
C178 C 0.56432 0.45518 1.00374 0.0
C179 C 0.55146 0.45981 0.98796 0.0
C180 C 0.55627 0.47683 0.97537 0.0
C181 C 0.57407 0.48933 0.97841 0.0
H182 H 0.69973 0.25977 0.31754 0.0
H183 H 0.71568 0.21053 0.28822 0.0
H184 H 0.75013 0.23003 0.33807 0.0
H185 H 0.77533 0.21927 0.30886 0.0
C186 C 0.76422 0.20965 0.3004 0.0
O187 O 0.74685 0.20517 0.31066 0.0
H188 H 0.76096 0.218 0.28631 0.0
C189 C 0.70924 0.24825 0.31622 0.0
C190 C 0.72521 0.24641 0.32971 0.0
C191 C 0.7054 0.23532 0.3012 0.0
C192 C 0.71826 0.22076 0.29955 0.0
C193 C 0.73441 0.219 0.3127 0.0
C194 C 0.73764 0.23157 0.32793 0.0
H195 H 0.45281 0.06745 0.01519 0.0
H196 H 0.47409 0.03537 0.97052 0.0
H197 H 0.51039 0.08648 0.99061 0.0
H198 H 0.51087 0.08327 0.94775 0.0
C199 C 0.50727 0.06684 0.94752 0.0
O200 O 0.50781 0.05837 0.96639 0.0
H201 H 0.49203 0.0636 0.94088 0.0
C202 C 0.46411 0.0657 0.00497 0.0
C203 C 0.48188 0.07899 1.00442 0.0
C204 C 0.46113 0.04974 0.99296 0.0
C205 C 0.47615 0.04733 0.98014 0.0
C206 C 0.49376 0.06064 0.9792 0.0
C207 C 0.4967 0.07629 0.99145 0.0
Li208 Li 0.27559 0.90777 0.00513 0.0
Li209 Li 0.25842 0.87875 0.02589 0.0
Li210 Li 0.25197 0.88188 0.99098 0.0
Li211 Li 0.23827 0.90337 0.0116 0.0
C212 C 0.28527 0.86513 0.99556 0.0
N213 N 0.29825 0.83638 0.9748 0.0
C214 C 0.2805 0.84498 1.00149 0.0
C215 C 0.29672 0.87069 0.97916 0.0
C216 C 0.28719 0.83066 0.99078 0.0
C217 C 0.30312 0.85592 0.96884 0.0
C218 C 0.26831 0.90743 0.04907 0.0
C219 C 0.2628 0.89954 0.08326 0.0
N220 N 0.28249 0.90531 0.08717 0.0
C221 C 0.28847 0.91334 0.05343 0.0
C222 C 0.25533 0.90056 0.0641 0.0
C223 C 0.29535 0.91214 0.07278 0.0
C224 C 0.2979 0.94597 1.00117 0.0
N225 N 0.29925 0.92611 1.00223 0.0
C226 C 0.33483 0.93225 1.00062 0.0
C227 C 0.31722 0.91907 1.00201 0.0
C228 C 0.33399 0.95291 0.99958 0.0
C229 C 0.31514 0.9597 0.9998 0.0
H230 H 0.2834 0.95112 1.00158 0.0
H231 H 0.31788 0.90319 1.00312 0.0
C232 C 0.24755 0.84855 0.05607 0.0
N233 N 0.26301 0.86081 0.04801 0.0
C234 C 0.25074 0.83616 0.07279 0.0
C235 C 0.2858 0.8489 0.07233 0.0
C236 C 0.28194 0.86097 0.05558 0.0
C237 C 0.27005 0.83636 0.0813 0.0
H238 H 0.23271 0.84845 0.04959 0.0
H239 H 0.29399 0.87078 0.04878 0.0
C240 C 0.25031 0.91619 0.96742 0.0
N241 N 0.24587 0.92591 0.92799 0.0
C242 C 0.23215 0.91068 0.9577 0.0
C243 C 0.26621 0.92668 0.9571 0.0
C244 C 0.23021 0.91571 0.93775 0.0
C245 C 0.26366 0.93146 0.93717 0.0
C246 C 0.21222 0.87223 0.01262 0.0
C247 C 0.20025 0.86982 0.9958 0.0
C248 C 0.20333 0.87365 0.0303 0.0
C249 C 0.17953 0.86893 0.99693 0.0
C250 C 0.18256 0.87275 0.03081 0.0
N251 N 0.1712 0.87043 0.01426 0.0
C252 C 0.23856 0.84694 0.97235 0.0
C253 C 0.25563 0.87198 0.95113 0.0
C254 C 0.23627 0.83371 0.95771 0.0
N255 N 0.248 0.86575 0.96886 0.0
C256 C 0.25323 0.85941 0.93594 0.0
C257 C 0.24354 0.83998 0.93919 0.0
H258 H 0.23311 0.84208 0.98668 0.0
H259 H 0.26402 0.88652 0.94882 0.0
C260 C 0.21673 0.92716 0.03313 0.0
N261 N 0.21662 0.91848 0.01607 0.0
C262 C 0.20142 0.9382 0.0371 0.0
C263 C 0.18619 0.93149 0.00575 0.0
C264 C 0.20177 0.92053 1.00242 0.0
C265 C 0.18582 0.94054 0.02331 0.0
H266 H 0.22873 0.92556 0.04371 0.0
H267 H 0.20196 0.91365 0.98892 0.0
O268 O 0.2783 0.87931 0.00548 0.0
O269 O 0.26138 0.90806 0.03016 0.0
O270 O 0.25253 0.91154 0.98695 0.0
O271 O 0.23256 0.87354 0.01175 0.0
H272 H 0.27153 0.84045 0.01409 0.0
H273 H 0.30033 0.88624 0.97426 0.0
H274 H 0.28352 0.815 0.99512 0.0
H275 H 0.31187 0.85999 0.95603 0.0
H276 H 0.25297 0.89409 0.09501 0.0
H277 H 0.29874 0.91865 0.04201 0.0
H278 H 0.23973 0.89573 0.06099 0.0
H279 H 0.31093 0.9166 0.07636 0.0
H280 H 0.34895 0.9263 1.00027 0.0
H281 H 0.31374 0.97544 0.99933 0.0
H282 H 0.23821 0.82648 0.07893 0.0
H283 H 0.30088 0.84974 0.07842 0.0
H284 H 0.21982 0.90226 0.96535 0.0
H285 H 0.28038 0.93102 0.96437 0.0
H286 H 0.21629 0.91142 0.93002 0.0
H287 H 0.27584 0.93954 0.92899 0.0
H288 H 0.20686 0.86883 0.98197 0.0
H289 H 0.21237 0.87575 0.04342 0.0
H290 H 0.17009 0.86715 0.98401 0.0
H291 H 0.17549 0.87398 0.04436 0.0
H292 H 0.22879 0.81878 0.96077 0.0
H293 H 0.25936 0.86463 0.92193 0.0
H294 H 0.20173 0.94465 0.05094 0.0
H295 H 0.17471 0.93308 0.99452 0.0
Li296 Li 0.13205 0.49874 0.30128 0.0
Li297 Li 0.15531 0.47966 0.28739 0.0
Li298 Li 0.15754 0.51565 0.28007 0.0
Li299 Li 0.12999 0.49381 0.26655 0.0
C300 C 0.16665 0.49234 0.32346 0.0
N301 N 0.17708 0.47469 0.35925 0.0
C302 C 0.15455 0.47583 0.33174 0.0
C303 C 0.18405 0.49987 0.33337 0.0
C304 C 0.16008 0.46712 0.34985 0.0
C305 C 0.18906 0.49074 0.35146 0.0
C306 C 0.1195 0.45513 0.28158 0.0
C307 C 0.12298 0.43059 0.25902 0.0
N308 N 0.10711 0.4188 0.26695 0.0
C309 C 0.10323 0.44279 0.2895 0.0
C310 C 0.12948 0.44901 0.26621 0.0
C311 C 0.09719 0.42447 0.2819 0.0
C312 C 0.09598 0.49893 0.32048 0.0
N313 N 0.11616 0.50265 0.32285 0.0
C314 C 0.11266 0.51585 0.35347 0.0
C315 C 0.12463 0.51089 0.33899 0.0
C316 C 0.09176 0.51264 0.35121 0.0
C317 C 0.08344 0.50386 0.33452 0.0
H318 H 0.08961 0.49269 0.30737 0.0
H319 H 0.14066 0.51433 0.34033 0.0
C320 C 0.19026 0.46135 0.28514 0.0
N321 N 0.17144 0.45814 0.29197 0.0
C322 C 0.20306 0.44663 0.28817 0.0
C323 C 0.17691 0.42549 0.30529 0.0
C324 C 0.16462 0.44065 0.30194 0.0
C325 C 0.19648 0.42834 0.29837 0.0
H326 H 0.1954 0.47547 0.27744 0.0
H327 H 0.14963 0.43845 0.30736 0.0
C328 C 0.12491 0.53609 0.28616 0.0
N329 N 0.11695 0.57088 0.30071 0.0
C330 C 0.10877 0.5456 0.27861 0.0
C331 C 0.137 0.54426 0.30113 0.0
C332 C 0.105 0.56319 0.28616 0.0
C333 C 0.13273 0.56185 0.30828 0.0
C334 C 0.16384 0.50381 0.24376 0.0
C335 C 0.15357 0.51925 0.23557 0.0
C336 C 0.17911 0.49762 0.23356 0.0
C337 C 0.15875 0.52826 0.21727 0.0
C338 C 0.18386 0.507 0.21529 0.0
N339 N 0.17367 0.522 0.20759 0.0
C340 C 0.19496 0.53946 0.28146 0.0
C341 C 0.16923 0.55585 0.26538 0.0
C342 C 0.20868 0.55655 0.27834 0.0
N343 N 0.17565 0.53945 0.27506 0.0
C344 C 0.18238 0.5733 0.26211 0.0
C345 C 0.2024 0.57383 0.26866 0.0
H346 H 0.19968 0.52619 0.28906 0.0
H347 H 0.15388 0.55545 0.26021 0.0
C348 C 0.09333 0.49607 0.24571 0.0
N349 N 0.11176 0.4902 0.24461 0.0
C350 C 0.07972 0.49465 0.22991 0.0
C351 C 0.10423 0.48105 0.21214 0.0
C352 C 0.11728 0.48252 0.22834 0.0
C353 C 0.08519 0.48727 0.21273 0.0
H354 H 0.08929 0.50206 0.25883 0.0
H355 H 0.13192 0.47773 0.22784 0.0
O356 O 0.16172 0.50104 0.30565 0.0
O357 O 0.12548 0.47311 0.2889 0.0
O358 O 0.12858 0.5187 0.2791 0.0
O359 O 0.15915 0.49478 0.2617 0.0
H360 H 0.14102 0.46979 0.32431 0.0
H361 H 0.19359 0.51262 0.32713 0.0
H362 H 0.15086 0.45433 0.35642 0.0
H363 H 0.20249 0.49641 0.3593 0.0
H364 H 0.13057 0.42566 0.24714 0.0
H365 H 0.09535 0.44734 0.30139 0.0
H366 H 0.14214 0.4583 0.25992 0.0
H367 H 0.08461 0.41476 0.28789 0.0
H368 H 0.11971 0.5229 0.36592 0.0
H369 H 0.06741 0.50104 0.33222 0.0
H370 H 0.21808 0.44971 0.28284 0.0
H371 H 0.17105 0.41162 0.31304 0.0
H372 H 0.09925 0.53944 0.26706 0.0
H373 H 0.14953 0.53708 0.3072 0.0
H374 H 0.09255 0.57071 0.28045 0.0
H375 H 0.14195 0.56832 0.31986 0.0
H376 H 0.14166 0.52421 0.2432 0.0
H377 H 0.18721 0.48568 0.23971 0.0
H378 H 0.15091 0.54021 0.21076 0.0
H379 H 0.19564 0.50236 0.20722 0.0
H380 H 0.22395 0.55636 0.28374 0.0
H381 H 0.17698 0.58617 0.25434 0.0
H382 H 0.06525 0.49974 0.23097 0.0
H383 H 0.10896 0.47501 0.1993 0.0
Li384 Li 0.76865 0.62547 0.03055 0.0
Li385 Li 0.78352 0.65131 0.05231 0.0
Li386 Li 0.79041 0.65368 0.01774 0.0
Li387 Li 0.80484 0.62753 0.03973 0.0
C388 C 0.75733 0.6697 0.02018 0.0
N389 N 0.74468 0.70259 0.99938 0.0
C390 C 0.76021 0.68827 0.02791 0.0
C391 C 0.74787 0.66783 1.00194 0.0
C392 C 0.75372 0.70472 0.01716 0.0
C393 C 0.74165 0.68465 0.99162 0.0
C394 C 0.77367 0.61177 0.0729 0.0
C395 C 0.77742 0.5936 0.10405 0.0
N396 N 0.75726 0.59137 0.10586 0.0
C397 C 0.75298 0.60916 0.075 0.0
C398 C 0.786 0.60381 0.08747 0.0
C399 C 0.74498 0.59887 0.0918 0.0
C400 C 0.74678 0.58703 0.02794 0.0
N401 N 0.74538 0.60691 0.02623 0.0
C402 C 0.71045 0.60085 0.0183 0.0
C403 C 0.72767 0.61398 0.02165 0.0
C404 C 0.71149 0.58025 0.0196 0.0
C405 C 0.72997 0.57338 0.02449 0.0
H406 H 0.761 0.58181 0.0319 0.0
H407 H 0.72691 0.62983 0.02063 0.0
C408 C 0.7901 0.68191 0.07963 0.0
N409 N 0.77766 0.66593 0.07389 0.0
C410 C 0.78457 0.69313 0.09421 0.0
C411 C 0.75343 0.67149 0.09663 0.0
C412 C 0.75954 0.66074 0.08201 0.0
C413 C 0.76591 0.68808 0.10285 0.0
H414 H 0.80407 0.68642 0.07253 0.0
H415 H 0.74952 0.64856 0.07674 0.0
C416 C 0.78498 0.61047 1.00175 0.0
N417 N 0.77038 0.57989 0.97904 0.0
C418 C 0.79384 0.59286 1.00302 0.0
C419 C 0.76887 0.61262 0.98871 0.0
C420 C 0.78621 0.57755 0.99146 0.0
C421 C 0.76164 0.59696 0.97743 0.0
C422 C 0.8252 0.66236 0.05344 0.0
C423 C 0.84054 0.67766 0.04895 0.0
C424 C 0.82526 0.6518 0.07167 0.0
C425 C 0.85573 0.68215 0.06281 0.0
C426 C 0.84071 0.65673 0.08514 0.0
N427 N 0.8555 0.67168 0.08047 0.0
C428 C 0.79968 0.6921 0.99785 0.0
C429 C 0.79265 0.66566 0.97734 0.0
C430 C 0.80122 0.70605 0.98172 0.0
N431 N 0.79512 0.67236 0.9954 0.0
C432 C 0.79404 0.67906 0.96085 0.0
C433 C 0.7981 0.69962 0.96288 0.0
H434 H 0.8016 0.69706 0.01236 0.0
H435 H 0.78931 0.64992 0.97571 0.0
C436 C 0.82112 0.59194 0.05093 0.0
N437 N 0.82631 0.61159 0.04564 0.0
C438 C 0.83578 0.57914 0.05447 0.0
C439 C 0.86101 0.60712 0.04782 0.0
C440 C 0.84582 0.61934 0.04403 0.0
C441 C 0.85605 0.58668 0.05289 0.0
H442 H 0.8055 0.58612 0.05204 0.0
H443 H 0.84962 0.63495 0.03959 0.0
O444 O 0.76404 0.65352 0.03028 0.0
O445 O 0.78181 0.62152 0.05642 0.0
O446 O 0.79207 0.62551 0.01318 0.0
O447 O 0.81035 0.65771 0.03993 0.0
H448 H 0.76758 0.69003 0.04195 0.0
H449 H 0.74555 0.65361 0.9957 0.0
H450 H 0.75595 0.7192 0.02293 0.0
H451 H 0.73445 0.68345 0.97742 0.0
H452 H 0.78679 0.5874 0.11546 0.0
H453 H 0.74319 0.61515 0.06386 0.0
H454 H 0.80203 0.60543 0.08598 0.0
H455 H 0.729 0.59684 0.09366 0.0
H456 H 0.69653 0.60678 0.01447 0.0
H457 H 0.73136 0.5576 0.0259 0.0
H458 H 0.79453 0.70604 0.09816 0.0
H459 H 0.73896 0.66691 0.10286 0.0
H460 H 0.8065 0.59102 0.01277 0.0
H461 H 0.76177 0.62609 0.98757 0.0
H462 H 0.79288 0.56382 0.99236 0.0
H463 H 0.74905 0.59836 0.96744 0.0
H464 H 0.84071 0.68596 0.03488 0.0
H465 H 0.81347 0.64 0.07541 0.0
H466 H 0.86771 0.69396 0.05954 0.0
H467 H 0.84093 0.64869 0.0993 0.0
H468 H 0.80424 0.72174 0.98404 0.0
H469 H 0.79194 0.67335 0.94664 0.0
H470 H 0.83133 0.5635 0.05847 0.0
H471 H 0.87646 0.61349 0.04629 0.0
Li472 Li 0.87683 0.04085 0.26844 0.0
Li473 Li 0.90076 0.01959 0.28417 0.0
Li474 Li 0.90111 0.02783 0.24787 0.0
Li475 Li 0.87438 1.00382 0.26318 0.0
C476 C 0.91358 0.06569 0.26616 0.0
N477 N 0.92756 0.10559 0.25961 0.0
C478 C 0.9233 0.07612 0.28115 0.0
C479 C 0.91119 0.07548 0.24779 0.0
C480 C 0.93019 0.09631 0.27757 0.0
C481 C 0.91831 0.09567 0.24477 0.0
C482 C 0.869 0.01241 0.30674 0.0
C483 C 0.86785 0.98838 0.33449 0.0
N484 N 0.86533 1.00298 0.34618 0.0
C485 C 0.86621 0.02715 0.31899 0.0
C486 C 0.86966 0.99284 0.31449 0.0
C487 C 0.86445 0.02209 0.33891 0.0
C488 C 0.84343 0.06269 0.26301 0.0
N489 N 0.86172 0.06241 0.27195 0.0
C490 C 0.85803 0.09215 0.28713 0.0
C491 C 0.86906 0.07666 0.28396 0.0
C492 C 0.83909 0.09293 0.27804 0.0
C493 C 0.83185 0.07788 0.26581 0.0
H494 H 0.83772 0.05097 0.25384 0.0
H495 H 0.88339 0.07588 0.29133 0.0
C496 C 0.929 1.00102 0.30885 0.0
N497 N 0.9172 0.01593 0.30713 0.0
C498 C 0.94095 0.99811 0.32559 0.0
C499 C 0.92859 0.02612 0.33844 0.0
C500 C 0.917 0.02856 0.32139 0.0
C501 C 0.94077 0.01069 0.34074 0.0
H502 H 0.92922 0.9914 0.2972 0.0
H503 H 0.90783 0.04059 0.3195 0.0
C504 C 0.86402 0.03196 0.22597 0.0
N505 N 0.84862 0.04201 0.18934 0.0
C506 C 0.85601 0.01707 0.21407 0.0
C507 C 0.86394 0.05195 0.21934 0.0
C508 C 0.84837 0.02245 0.19556 0.0
C509 C 0.85616 0.05673 0.20075 0.0
C510 C 0.90667 0.98323 0.25954 0.0
C511 C 0.91403 0.97958 0.24173 0.0
C512 C 0.90234 0.96746 0.27364 0.0
C513 C 0.91674 0.96013 0.23823 0.0
C514 C 0.90523 0.94823 0.26958 0.0
N515 N 0.9123 0.94499 0.2521 0.0
C516 C 0.93799 0.03884 0.22983 0.0
C517 C 0.91137 0.03004 0.20761 0.0
C518 C 0.95161 0.04169 0.21482 0.0
N519 N 0.91829 0.03308 0.22602 0.0
C520 C 0.92442 0.03285 0.19216 0.0
C521 C 0.94493 0.0386 0.19562 0.0
H522 H 0.94318 0.04088 0.24463 0.0
H523 H 0.8958 0.02508 0.20487 0.0
C524 C 0.83963 0.97661 0.27042 0.0
N525 N 0.85617 0.98024 0.25945 0.0
C526 C 0.8261 0.95948 0.26839 0.0
C527 C 0.84692 0.95005 0.24392 0.0
C528 C 0.85977 0.96758 0.24608 0.0
C529 C 0.82986 0.94586 0.25517 0.0
H530 H 0.83696 0.98702 0.28077 0.0
H531 H 0.87259 0.97106 0.23703 0.0
O532 O 0.90666 0.04595 0.26947 0.0
O533 O 0.87106 0.01712 0.28725 0.0
O534 O 0.87151 0.02692 0.24414 0.0
O535 O 0.90383 1.00216 0.26316 0.0
H536 H 0.92537 0.06871 0.29543 0.0
H537 H 0.90405 0.06755 0.23595 0.0
H538 H 0.93762 0.1046 0.28906 0.0
H539 H 0.91653 0.10345 0.23063 0.0
H540 H 0.86843 0.97331 0.34071 0.0
H541 H 0.86559 0.04235 0.3132 0.0
H542 H 0.87154 0.98122 0.30517 0.0
H543 H 0.86242 0.03337 0.34859 0.0
H544 H 0.86439 0.10345 0.29654 0.0
H545 H 0.81721 0.07758 0.25875 0.0
H546 H 0.95003 0.98598 0.32676 0.0
H547 H 0.92824 0.03638 0.34959 0.0
H548 H 0.85583 1.00153 0.21901 0.0
H549 H 0.86967 0.06368 0.22849 0.0
H550 H 0.84224 0.01109 0.18616 0.0
H551 H 0.85605 0.07215 0.19542 0.0
H552 H 0.91752 0.9916 0.23067 0.0
H553 H 0.89675 0.97003 0.28753 0.0
H554 H 0.92235 0.95708 0.22448 0.0
H555 H 0.90186 0.93587 0.28032 0.0
H556 H 0.96728 0.0458 0.21835 0.0
H557 H 0.91844 0.03054 0.17764 0.0
H558 H 0.81303 0.9567 0.27727 0.0
H559 H 0.85012 0.94 0.23339 0.0
Li560 Li 0.28244 0.15024 0.55444 0.0
Li561 Li 0.26743 0.12618 0.53228 0.0
Li562 Li 0.3026 0.12661 0.54144 0.0
Li563 Li 0.29035 0.15428 0.51894 0.0
C564 C 0.26569 0.11338 0.57216 0.0
N565 N 0.23777 0.09897 0.59961 0.0
C566 C 0.24701 0.12028 0.57135 0.0
C567 C 0.27017 0.09909 0.58687 0.0
C568 C 0.23309 0.11283 0.58537 0.0
C569 C 0.25585 0.09201 0.60063 0.0
C570 C 0.24869 0.16392 0.52543 0.0
C571 C 0.22846 0.17814 0.49966 0.0
N572 N 0.216 0.18289 0.51306 0.0
C573 C 0.23573 0.16904 0.53895 0.0
C574 C 0.24509 0.1686 0.50562 0.0
C575 C 0.21926 0.17857 0.53241 0.0
C576 C 0.27622 0.18533 0.57035 0.0
N577 N 0.27787 0.16584 0.57546 0.0
C578 C 0.27045 0.17003 0.60838 0.0
C579 C 0.27552 0.15813 0.59415 0.0
C580 C 0.26794 0.1901 0.60338 0.0
C581 C 0.27128 0.19776 0.58409 0.0
H582 H 0.27834 0.19113 0.55542 0.0
H583 H 0.27718 0.14267 0.598 0.0
C584 C 0.24364 0.08876 0.53273 0.0
N585 N 0.24361 0.10834 0.52674 0.0
C586 C 0.22694 0.075 0.52917 0.0
C587 C 0.21037 0.10178 0.51345 0.0
C588 C 0.22742 0.11497 0.5172 0.0
C589 C 0.20991 0.08144 0.51943 0.0
H590 H 0.25673 0.0838 0.5402 0.0
H591 H 0.22763 0.13048 0.51243 0.0
C592 C 0.32346 0.16099 0.55654 0.0
N593 N 0.35202 0.17014 0.58524 0.0
C594 C 0.33814 0.17726 0.55346 0.0
C595 C 0.32325 0.1494 0.57423 0.0
C596 C 0.35247 0.18163 0.56815 0.0
C597 C 0.33784 0.15426 0.58855 0.0
C598 C 0.28135 0.11245 0.50225 0.0
C599 C 0.28458 0.09246 0.50467 0.0
C600 C 0.26832 0.11872 0.48743 0.0
C601 C 0.27454 0.079 0.49229 0.0
C602 C 0.25855 0.1048 0.47537 0.0
N603 N 0.26182 0.08539 0.47804 0.0
C604 C 0.31862 0.09058 0.55165 0.0
C605 C 0.34338 0.11806 0.54532 0.0
C606 C 0.33326 0.07772 0.55494 0.0
N607 N 0.32386 0.11031 0.54679 0.0
C608 C 0.35855 0.10579 0.54888 0.0
C609 C 0.35355 0.08528 0.55357 0.0
H610 H 0.30299 0.08479 0.55276 0.0
H611 H 0.34722 0.13375 0.54124 0.0
C612 C 0.29306 0.19265 0.49927 0.0
N613 N 0.29558 0.17338 0.49728 0.0
C614 C 0.29486 0.20671 0.48328 0.0
C615 C 0.30229 0.18093 0.46357 0.0
C616 C 0.30035 0.16737 0.47995 0.0
C617 C 0.2993 0.2009 0.46502 0.0
H618 H 0.28919 0.19698 0.51322 0.0
H619 H 0.3022 0.15194 0.47873 0.0
O620 O 0.27957 0.12039 0.5586 0.0
O621 O 0.26509 0.15486 0.53159 0.0
O622 O 0.30929 0.15659 0.54233 0.0
O623 O 0.29054 0.12573 0.5146 0.0
H624 H 0.24326 0.13118 0.55998 0.0
H625 H 0.28457 0.09358 0.58765 0.0
H626 H 0.21857 0.11804 0.58491 0.0
H627 H 0.25912 0.08098 0.61213 0.0
H628 H 0.22546 0.18177 0.48437 0.0
H629 H 0.23835 0.16574 0.55436 0.0
H630 H 0.2549 0.16476 0.49492 0.0
H631 H 0.2091 0.18259 0.54272 0.0
H632 H 0.26796 0.16337 0.62299 0.0
H633 H 0.27 0.2132 0.57957 0.0
H634 H 0.22748 0.05945 0.53381 0.0
H635 H 0.19757 0.10757 0.50616 0.0
H636 H 0.33844 0.18639 0.53985 0.0
H637 H 0.31198 0.13678 0.5769 0.0
H638 H 0.36394 0.19417 0.56596 0.0
H639 H 0.33787 0.14542 0.60231 0.0
H640 H 0.2946 0.08736 0.51606 0.0
H641 H 0.26557 0.13411 0.48543 0.0
H642 H 0.27681 0.06346 0.49406 0.0
H643 H 0.24831 0.10942 0.46393 0.0
H644 H 0.32879 0.06203 0.55867 0.0
H645 H 0.374 0.11218 0.54753 0.0
H646 H 0.29271 0.22195 0.4852 0.0
H647 H 0.3055 0.17567 0.44979 0.0
Li648 Li 0.4018 0.52252 0.78418 0.0
Li649 Li 0.37661 0.54187 0.76744 0.0
Li650 Li 0.3742 0.50636 0.76357 0.0
Li651 Li 0.40077 0.52897 0.74913 0.0
C652 C 0.36313 0.52796 0.80179 0.0
N653 N 0.34431 0.54694 0.82838 0.0
C654 C 0.3742 0.54172 0.81323 0.0
C655 C 0.34248 0.52385 0.80389 0.0
C656 C 0.36442 0.55114 0.8266 0.0
C657 C 0.33325 0.53361 0.81741 0.0
C658 C 0.41646 0.56402 0.7583 0.0
C659 C 0.41745 0.59071 0.73294 0.0
N660 N 0.43771 0.59366 0.73498 0.0
C661 C 0.43727 0.56732 0.76017 0.0
C662 C 0.40644 0.5758 0.74458 0.0
C663 C 0.44775 0.58237 0.74824 0.0
C664 C 0.43848 0.52343 0.80593 0.0
N665 N 0.4184 0.51842 0.80694 0.0
C666 C 0.42184 0.50645 0.8403 0.0
C667 C 0.40997 0.50989 0.82362 0.0
C668 C 0.44264 0.51177 0.83984 0.0
C669 C 0.45093 0.52031 0.82229 0.0
H670 H 0.44486 0.52975 0.79238 0.0
H671 H 0.39401 0.50559 0.82395 0.0
C672 C 0.34173 0.56202 0.76471 0.0
N673 N 0.36128 0.56333 0.77064 0.0
C674 C 0.33025 0.57715 0.76806 0.0
C675 C 0.35924 0.59466 0.78348 0.0
C676 C 0.37014 0.57925 0.77981 0.0
C677 C 0.33896 0.59378 0.77761 0.0
H678 H 0.33501 0.54912 0.75757 0.0
H679 H 0.38564 0.57979 0.78461 0.0
C680 C 0.40769 0.48574 0.77327 0.0
N681 N 0.41644 0.45015 0.79189 0.0
C682 C 0.42334 0.47643 0.76703 0.0
C683 C 0.3965 0.47697 0.78901 0.0
C684 C 0.42753 0.45843 0.77663 0.0
C685 C 0.40116 0.45897 0.79822 0.0
C686 C 0.36645 0.52018 0.72589 0.0
C687 C 0.37643 0.50488 0.72015 0.0
C688 C 0.35111 0.527 0.71398 0.0
C689 C 0.3709 0.49668 0.70255 0.0
C690 C 0.34602 0.51842 0.69648 0.0
N691 N 0.35594 0.50356 0.69118 0.0
C692 C 0.33631 0.48281 0.7628 0.0
C693 C 0.36295 0.46612 0.75394 0.0
C694 C 0.32266 0.46586 0.76026 0.0
N695 N 0.35609 0.48256 0.75993 0.0
C696 C 0.34989 0.44883 0.75139 0.0
C697 C 0.32945 0.44849 0.75467 0.0
H698 H 0.33111 0.49623 0.76693 0.0
H699 H 0.37856 0.46641 0.75096 0.0
C700 C 0.4364 0.52761 0.72957 0.0
N701 N 0.41803 0.53388 0.72732 0.0
C702 C 0.44948 0.53015 0.71413 0.0
C703 C 0.42455 0.54567 0.69432 0.0
C704 C 0.41204 0.54302 0.71021 0.0
C705 C 0.44353 0.5391 0.69613 0.0
H706 H 0.44084 0.52052 0.74338 0.0
H707 H 0.39748 0.54816 0.70884 0.0
O708 O 0.37239 0.5191 0.78817 0.0
O709 O 0.40593 0.54892 0.76935 0.0
O710 O 0.40362 0.5035 0.76412 0.0
O711 O 0.37143 0.52842 0.74311 0.0
H712 H 0.39013 0.54538 0.81154 0.0
H713 H 0.33365 0.51333 0.79514 0.0
H714 H 0.37279 0.5619 0.83545 0.0
H715 H 0.31727 0.53061 0.81915 0.0
H716 H 0.40991 0.59986 0.72219 0.0
H717 H 0.44529 0.55829 0.7706 0.0
H718 H 0.39037 0.57322 0.74268 0.0
H719 H 0.46387 0.58505 0.74948 0.0
H720 H 0.41478 0.49944 0.85333 0.0
H721 H 0.46684 0.52477 0.82122 0.0
H722 H 0.31476 0.57588 0.76308 0.0
H723 H 0.36656 0.60694 0.79119 0.0
H724 H 0.43216 0.48304 0.75489 0.0
H725 H 0.3843 0.48391 0.79404 0.0
H726 H 0.4396 0.45104 0.77194 0.0
H727 H 0.39261 0.45201 0.81041 0.0
H728 H 0.38835 0.4994 0.72913 0.0
H729 H 0.34322 0.53881 0.71825 0.0
H730 H 0.37851 0.48484 0.69793 0.0
H731 H 0.33418 0.52356 0.68712 0.0
H732 H 0.30702 0.46628 0.7629 0.0
H733 H 0.35569 0.43593 0.74663 0.0
H734 H 0.46392 0.52478 0.71614 0.0
H735 H 0.41949 0.55291 0.68079 0.0
Li736 Li 0.77427 0.40635 0.50628 0.0
Li737 Li 0.75643 0.37885 0.52613 0.0
Li738 Li 0.75065 0.38063 0.49061 0.0
Li739 Li 0.73689 0.40341 0.51087 0.0
C740 C 0.79033 0.37387 0.49335 0.0
N741 N 0.81855 0.36637 0.46795 0.0
C742 C 0.80122 0.35778 0.49751 0.0
C743 C 0.79374 0.38614 0.47625 0.0
C744 C 0.81545 0.35424 0.4845 0.0
C745 C 0.80808 0.3821 0.46361 0.0
C746 C 0.76426 0.40667 0.54959 0.0
C747 C 0.75468 0.40078 0.58301 0.0
N748 N 0.77429 0.40277 0.58875 0.0
C749 C 0.78432 0.40875 0.55582 0.0
C750 C 0.7493 0.40274 0.56327 0.0
C751 C 0.78908 0.40671 0.57569 0.0
C752 C 0.79699 0.44394 0.49872 0.0
N753 N 0.79835 0.42441 0.50397 0.0
C754 C 0.83397 0.43094 0.50678 0.0
C755 C 0.81634 0.41777 0.50813 0.0
C756 C 0.83309 0.45123 0.50126 0.0
C757 C 0.81424 0.45765 0.49721 0.0
H758 H 0.78246 0.44889 0.49588 0.0
H759 H 0.81703 0.40224 0.51262 0.0
C760 C 0.7445 0.35314 0.55963 0.0
N761 N 0.76024 0.36131 0.54877 0.0
C762 C 0.74764 0.34145 0.57682 0.0
C763 C 0.78304 0.34627 0.57103 0.0
C764 C 0.77924 0.35798 0.55401 0.0
C765 C 0.76714 0.33798 0.5828 0.0
H766 H 0.72955 0.35595 0.55512 0.0
H767 H 0.79149 0.36477 0.54515 0.0
C768 C 0.74535 0.4176 0.46906 0.0
N769 N 0.73142 0.43208 0.4332 0.0
C770 C 0.72639 0.41033 0.462 0.0
C771 C 0.75734 0.43206 0.45778 0.0
C772 C 0.71958 0.41789 0.44387 0.0
C773 C 0.75 0.43924 0.43972 0.0
C774 C 0.71037 0.37086 0.51123 0.0
C775 C 0.69955 0.36481 0.49461 0.0
C776 C 0.70019 0.37397 0.52772 0.0
C777 C 0.6787 0.36219 0.49471 0.0
C778 C 0.67932 0.3712 0.52723 0.0
N779 N 0.6691 0.36543 0.51087 0.0
C780 C 0.74265 0.34468 0.47286 0.0
C781 C 0.75008 0.37232 0.45001 0.0
C782 C 0.74061 0.33165 0.45805 0.0
N783 N 0.74717 0.36462 0.46864 0.0
C784 C 0.74785 0.35986 0.43472 0.0
C785 C 0.74311 0.33922 0.43866 0.0
H786 H 0.74074 0.33889 0.48782 0.0
H787 H 0.75444 0.38807 0.44695 0.0
C788 C 0.71824 0.43205 0.52865 0.0
N789 N 0.71547 0.4193 0.5143 0.0
C790 C 0.70331 0.44358 0.53259 0.0
C791 C 0.68302 0.4292 0.50654 0.0
C792 C 0.69829 0.41784 0.5032 0.0
C793 C 0.68536 0.44221 0.52149 0.0
H794 H 0.73208 0.43328 0.53712 0.0
H795 H 0.69616 0.4076 0.49197 0.0
O796 O 0.77619 0.37735 0.50587 0.0
O797 O 0.75933 0.40795 0.53017 0.0
O798 O 0.75247 0.41018 0.48662 0.0
O799 O 0.7308 0.37353 0.5114 0.0
H800 H 0.79869 0.34811 0.51066 0.0
H801 H 0.78542 0.39863 0.47276 0.0
H802 H 0.824 0.34183 0.48753 0.0
H803 H 0.81088 0.39146 0.45033 0.0
H804 H 0.74326 0.39758 0.59375 0.0
H805 H 0.79608 0.41169 0.54542 0.0
H806 H 0.73371 0.40094 0.55869 0.0
H807 H 0.80454 0.40817 0.58072 0.0
H808 H 0.84813 0.42525 0.50989 0.0
H809 H 0.81277 0.47317 0.49325 0.0
H810 H 0.73492 0.33515 0.58533 0.0
H811 H 0.79832 0.34417 0.57518 0.0
H812 H 0.71728 0.39861 0.47019 0.0
H813 H 0.77221 0.4376 0.46285 0.0
H814 H 0.70495 0.41234 0.43822 0.0
H815 H 0.75912 0.45045 0.43084 0.0
H816 H 0.70715 0.36227 0.48173 0.0
H817 H 0.7083 0.37883 0.54064 0.0
H818 H 0.67014 0.35761 0.48192 0.0
H819 H 0.67126 0.37372 0.53983 0.0
H820 H 0.73692 0.31583 0.4617 0.0
H821 H 0.75024 0.36625 0.41999 0.0
H822 H 0.70589 0.45361 0.54408 0.0
H823 H 0.66935 0.4275 0.49775 0.0
Li824 Li 0.6548 0.97917 0.78638 0.0
Li825 Li 0.6323 0.99871 0.80081 0.0
Li826 Li 0.62913 0.99346 0.76615 0.0
Li827 Li 0.6573 0.01515 0.77881 0.0
C828 C 0.61857 0.95496 0.78169 0.0
N829 N 0.60524 0.91858 0.76758 0.0
C830 C 0.60232 0.94293 0.79003 0.0
C831 C 0.62805 0.9485 0.76617 0.0
C832 C 0.59581 0.92458 0.78269 0.0
C833 C 0.62108 0.93006 0.75925 0.0
C834 C 0.66745 0.99207 0.82203 0.0
C835 C 0.69076 0.99045 0.84932 0.0
N836 N 0.67885 0.97459 0.85758 0.0
C837 C 0.65544 0.97576 0.83078 0.0
C838 C 0.68526 0.99948 0.83135 0.0
C839 C 0.66146 0.96713 0.84875 0.0
C840 C 0.68948 0.96064 0.78353 0.0
N841 N 0.6708 0.95754 0.79071 0.0
C842 C 0.6764 0.92497 0.80414 0.0
C843 C 0.66411 0.94015 0.80091 0.0
C844 C 0.69583 0.92772 0.79689 0.0
C845 C 0.70227 0.94591 0.78644 0.0
H846 H 0.69452 0.9747 0.77567 0.0
H847 H 0.64925 0.93804 0.80662 0.0
C848 C 0.59713 0.99923 0.82176 0.0
N849 N 0.61738 1.00308 0.82294 0.0
C850 C 0.58549 0.00446 0.83641 0.0
C851 C 0.61576 0.01704 0.85346 0.0
C852 C 0.62679 0.01173 0.83845 0.0
C853 C 0.59476 0.01376 0.85247 0.0
H854 H 0.58999 0.99271 0.80909 0.0
H855 H 0.64286 0.01513 0.83893 0.0
C856 C 0.66238 1.00287 0.74242 0.0
N857 N 0.67143 0.02068 0.70593 0.0
C858 C 0.65208 0.01837 0.73439 0.0
C859 C 0.67727 0.99644 0.73191 0.0
C860 C 0.65688 0.02718 0.71592 0.0
C861 C 0.68163 0.00562 0.71347 0.0
C862 C 0.62525 0.0361 0.78565 0.0
C863 C 0.60901 0.04571 0.77855 0.0
C864 C 0.63795 0.04434 0.80016 0.0
C865 C 0.60574 0.06347 0.78608 0.0
C866 C 0.63417 0.0621 0.80732 0.0
N867 N 0.61828 0.07122 0.8002 0.0
C868 C 0.59212 0.99607 0.74593 0.0
C869 C 0.61532 0.98166 0.72842 0.0
C870 C 0.57818 0.99458 0.73041 0.0
N871 N 0.61034 0.9898 0.74463 0.0
C872 C 0.60191 0.98004 0.7125 0.0
C873 C 0.58302 0.98664 0.71325 0.0
H874 H 0.58847 1.00234 0.75903 0.0
H875 H 0.62985 0.97667 0.7277 0.0
C876 C 0.69493 0.0386 0.77946 0.0
N877 N 0.67557 0.03872 0.77329 0.0
C878 C 0.70876 0.05556 0.77608 0.0
C879 C 0.68248 0.07241 0.75997 0.0
C880 C 0.66921 0.05511 0.76355 0.0
C881 C 0.70259 0.07286 0.76629 0.0
H882 H 0.69961 0.0253 0.78704 0.0
H883 H 0.65376 0.05485 0.75869 0.0
O884 O 0.62501 0.97298 0.78875 0.0
O885 O 0.66203 1.00068 0.80433 0.0
O886 O 0.65807 0.99405 0.76053 0.0
O887 O 0.62843 0.01856 0.77859 0.0
H888 H 0.59483 0.94774 0.80205 0.0
H889 H 0.64068 0.95756 0.75956 0.0
H890 H 0.58324 0.91511 0.789 0.0
H891 H 0.62828 0.92488 0.74725 0.0
H892 H 0.70451 0.99603 0.8567 0.0
H893 H 0.6416 0.96981 0.82381 0.0
H894 H 0.69473 0.01208 0.82474 0.0
H895 H 0.65232 0.9545 0.85568 0.0
H896 H 0.67066 0.91118 0.81209 0.0
H897 H 0.71719 0.94891 0.78085 0.0
H898 H 0.56937 1.00189 0.83476 0.0
H899 H 0.62366 0.02391 0.86561 0.0
H900 H 0.64047 0.02352 0.74227 0.0
H901 H 0.68538 0.98446 0.73793 0.0
H902 H 0.64903 0.03917 0.70953 0.0
H903 H 0.69312 1.00079 0.70516 0.0
H904 H 0.59902 0.0395 0.76735 0.0
H905 H 0.65057 0.0371 0.80587 0.0
H906 H 0.59323 0.07107 0.78073 0.0
H907 H 0.64385 0.06863 0.81857 0.0
H908 H 0.56372 0.99952 0.73191 0.0
H909 H 0.60652 0.97405 0.69959 0.0
H910 H 0.72414 0.05504 0.78096 0.0
H911 H 0.67691 0.0854 0.75261 0.0
Li912 Li 0.03465 0.27575 0.88899 0.0
Li913 Li 0.01532 0.2891 0.91599 0.0
Li914 Li 0.01986 0.25344 0.91573 0.0
Li915 Li 0.99847 0.26813 0.89179 0.0
C916 C 0.05456 0.26819 0.92963 0.0
N917 N 0.08044 0.24907 0.95439 0.0
C918 C 0.05489 0.27051 0.94955 0.0
C919 C 0.06745 0.25626 0.92227 0.0
C920 C 0.06808 0.26069 0.96184 0.0
C921 C 0.08041 0.24669 0.93503 0.0
C922 C 1.00264 0.30329 0.87267 0.0
C923 C 0.97329 0.31874 0.86241 0.0
N924 N 0.97834 0.31859 0.84357 0.0
C925 C 0.00764 0.30344 0.85323 0.0
C926 C 0.98543 0.31114 0.87734 0.0
C927 C 0.99513 0.31119 0.83872 0.0
C928 C 0.05367 0.27316 0.85396 0.0
N929 N 0.05642 0.28051 0.87171 0.0
C930 C 0.09054 0.29236 0.86502 0.0
C931 C 0.07436 0.29005 0.87741 0.0
C932 C 0.08823 0.28481 0.84657 0.0
C933 C 0.06939 0.27522 0.84109 0.0
H934 H 0.03925 0.26558 0.84984 0.0
H935 H 0.0762 0.29555 0.89171 0.0
C936 C 0.01134 0.30641 0.9514 0.0
N937 N 0.01344 0.31056 0.93195 0.0
C938 C 0.00876 0.32154 0.96332 0.0
C939 C 0.01045 0.34492 0.93497 0.0
C940 C 0.01313 0.32937 0.92361 0.0
C941 C 0.00815 0.34111 0.95513 0.0
H942 H 0.01128 0.29126 0.95761 0.0
H943 H 0.01473 0.33225 0.90809 0.0
C944 C 0.00963 0.23135 0.88335 0.0
N945 N 0.9919 0.19404 0.87479 0.0
C946 C 0.99246 0.22262 0.89284 0.0
C947 C 0.01778 0.22113 0.86946 0.0
C948 C 0.98371 0.20375 0.88832 0.0
C949 C 0.0086 0.20226 0.86535 0.0
C950 C 0.97757 0.26422 0.92862 0.0
C951 C 0.96837 0.2459 0.93655 0.0
C952 C 0.96825 0.28135 0.92964 0.0
C953 C 0.94982 0.24499 0.94506 0.0
C954 C 0.94971 0.27982 0.93828 0.0
N955 N 0.94095 0.26182 0.94573 0.0
C956 C 0.01885 0.22999 0.95154 0.0
C957 C 0.03215 0.21504 0.92593 0.0
C958 C 0.02199 0.21368 0.96451 0.0
N959 N 0.02393 0.23036 0.93266 0.0
C960 C 0.03525 0.19832 0.93833 0.0
C961 C 0.0302 0.19753 0.95792 0.0
H962 H 0.0125 0.24245 0.95653 0.0
H963 H 0.03648 0.21587 0.91097 0.0
C964 C 0.97823 0.25955 0.85672 0.0
N965 N 0.97481 0.26317 0.87529 0.0
C966 C 0.96233 0.25562 0.84346 0.0
C967 C 0.93951 0.25903 0.86863 0.0
C968 C 0.95588 0.26302 0.88138 0.0
C969 C 0.94258 0.25522 0.84934 0.0
H970 H 0.99341 0.25979 0.85217 0.0
H971 H 0.95332 0.26587 0.89611 0.0
O972 O 0.04128 0.27708 0.91744 0.0
O973 O 0.01441 0.29524 0.88704 0.0
O974 O 0.01842 0.24986 0.88745 0.0
O975 O 0.99588 0.26541 0.92051 0.0
H976 H 0.04496 0.27963 0.95547 0.0
H977 H 0.06721 0.25415 0.9069 0.0
H978 H 0.06843 0.26225 0.97731 0.0
H979 H 0.09037 0.23729 0.92956 0.0
H980 H 0.95984 0.32472 0.8658 0.0
H981 H 0.02093 0.29746 0.84937 0.0
H982 H 0.98139 0.31121 0.8923 0.0
H983 H 0.99874 0.31128 0.8236 0.0
H984 H 0.10481 0.29959 0.87005 0.0
H985 H 0.06674 0.26943 0.82695 0.0
H986 H 0.00679 0.31785 0.97873 0.0
H987 H 0.01029 0.35979 0.92804 0.0
H988 H 0.9859 0.23038 0.9035 0.0
H989 H 0.03108 0.22769 0.86198 0.0
H990 H 0.9704 0.19683 0.89556 0.0
H991 H 0.01476 0.19417 0.85465 0.0
H992 H 0.97551 0.23253 0.93621 0.0
H993 H 0.97516 0.29567 0.92374 0.0
H994 H 0.94251 0.2309 0.95118 0.0
H995 H 0.9423 0.29294 0.93908 0.0
H996 H 0.0178 0.2136 0.97949 0.0
H997 H 0.04187 0.18629 0.93274 0.0
H998 H 0.96554 0.25312 0.8287 0.0
H999 H 0.92459 0.25863 0.87396 0.0
Li1000 Li 0.53537 0.77595 0.38922 0.0
Li1001 Li 0.51598 0.78934 0.41617 0.0
Li1002 Li 0.52051 0.75371 0.416 0.0
Li1003 Li 0.49912 0.76834 0.39197 0.0
C1004 C 0.55521 0.76839 0.42988 0.0
N1005 N 0.58103 0.74919 0.45464 0.0
C1006 C 0.55558 0.77073 0.4498 0.0
C1007 C 0.56803 0.75638 0.42252 0.0
C1008 C 0.56873 0.76087 0.46208 0.0
C1009 C 0.58096 0.74678 0.43528 0.0
C1010 C 0.50374 0.80378 0.37269 0.0
C1011 C 0.47442 0.81905 0.3619 0.0
N1012 N 0.48035 0.81987 0.34324 0.0
C1013 C 0.50965 0.80496 0.35344 0.0
C1014 C 0.48609 0.81105 0.377 0.0
C1015 C 0.49759 0.81308 0.33874 0.0
C1016 C 0.55411 0.77341 0.35404 0.0
N1017 N 0.5571 0.7806 0.37186 0.0
C1018 C 0.59123 0.79218 0.36495 0.0
C1019 C 0.57517 0.78991 0.37748 0.0
C1020 C 0.58866 0.78482 0.34642 0.0
C1021 C 0.5697 0.77544 0.34103 0.0
H1022 H 0.53958 0.76602 0.34997 0.0
H1023 H 0.5772 0.79529 0.39182 0.0
C1024 C 0.51196 0.80665 0.45156 0.0
N1025 N 0.51395 0.8108 0.43209 0.0
C1026 C 0.50924 0.82173 0.46348 0.0
C1027 C 0.51055 0.84508 0.43511 0.0
C1028 C 0.51338 0.82957 0.42374 0.0
C1029 C 0.50836 0.84126 0.45528 0.0
H1030 H 0.51209 0.79152 0.45777 0.0
H1031 H 0.51487 0.83246 0.40821 0.0
C1032 C 0.5101 0.73165 0.38352 0.0
N1033 N 0.49194 0.69457 0.37471 0.0
C1034 C 0.49314 0.72283 0.39332 0.0
C1035 C 0.51781 0.72164 0.36921 0.0
C1036 C 0.48418 0.70408 0.38867 0.0
C1037 C 0.50843 0.70289 0.36497 0.0
C1038 C 0.47829 0.7646 0.42892 0.0
C1039 C 0.46923 0.74641 0.43725 0.0
C1040 C 0.46885 0.78172 0.42952 0.0
C1041 C 0.45071 0.74559 0.44579 0.0
C1042 C 0.45035 0.78029 0.43822 0.0
N1043 N 0.44172 0.7624 0.44609 0.0
C1044 C 0.51913 0.73028 0.4518 0.0
C1045 C 0.5326 0.71525 0.42638 0.0
C1046 C 0.52181 0.71385 0.46477 0.0
N1047 N 0.52444 0.73064 0.433 0.0
C1048 C 0.53536 0.69843 0.43879 0.0
C1049 C 0.52991 0.69751 0.45832 0.0
H1050 H 0.51293 0.74285 0.45674 0.0
H1051 H 0.53699 0.716 0.41144 0.0
C1052 C 0.47894 0.7615 0.35647 0.0
N1053 N 0.47549 0.76326 0.37548 0.0
C1054 C 0.46305 0.75768 0.34318 0.0
C1055 C 0.4402 0.7569 0.3693 0.0
C1056 C 0.45654 0.76101 0.38205 0.0
C1057 C 0.44335 0.75525 0.34957 0.0
H1058 H 0.49414 0.763 0.35164 0.0
H1059 H 0.45396 0.76228 0.39714 0.0
O1060 O 0.54197 0.77734 0.41769 0.0
O1061 O 0.51512 0.79543 0.38721 0.0
O1062 O 0.51908 0.75006 0.38773 0.0
O1063 O 0.49653 0.76568 0.42067 0.0
H1064 H 0.54569 0.77992 0.45572 0.0
H1065 H 0.56776 0.75426 0.40715 0.0
H1066 H 0.56911 0.76246 0.47755 0.0
H1067 H 0.59087 0.73733 0.42982 0.0
H1068 H 0.46064 0.82458 0.36501 0.0
H1069 H 0.52332 0.79951 0.34986 0.0
H1070 H 0.48136 0.81038 0.39181 0.0
H1071 H 0.50191 0.81395 0.32376 0.0
H1072 H 0.6056 0.79925 0.3699 0.0
H1073 H 0.56684 0.76981 0.32684 0.0
H1074 H 0.50735 0.81802 0.47889 0.0
H1075 H 0.51018 0.85992 0.42817 0.0
H1076 H 0.48693 0.73042 0.40433 0.0
H1077 H 0.53093 0.72828 0.36148 0.0
H1078 H 0.47103 0.6971 0.39613 0.0
H1079 H 0.51424 0.69495 0.35394 0.0
H1080 H 0.47642 0.73305 0.43715 0.0
H1081 H 0.47567 0.79595 0.42333 0.0
H1082 H 0.4435 0.7316 0.45223 0.0
H1083 H 0.44285 0.7934 0.43872 0.0
H1084 H 0.51776 0.71409 0.47973 0.0
H1085 H 0.54145 0.68619 0.43303 0.0
H1086 H 0.46615 0.75626 0.32814 0.0
H1087 H 0.42523 0.75522 0.37479 0.0
Li1088 Li 0.01905 0.77553 0.63966 0.0
Li1089 Li 0.9967 0.758 0.66418 0.0
Li1090 Li 0.03244 0.75389 0.66408 0.0
Li1091 Li 0.01062 0.73886 0.639 0.0
C1092 C 0.02557 0.79797 0.66814 0.0
N1093 N 0.03655 0.83864 0.66625 0.0
C1094 C 0.01105 0.81087 0.66865 0.0
C1095 C 0.04569 0.80573 0.66687 0.0
C1096 C 0.0169 0.8314 0.66763 0.0
C1097 C 0.05094 0.82634 0.66587 0.0
C1098 C 0.97358 0.7523 0.63002 0.0
C1099 C 0.94544 0.72687 0.63429 0.0
N1100 N 0.93567 0.73587 0.6191 0.0
C1101 C 0.96327 0.7613 0.61447 0.0
C1102 C 0.96462 0.73495 0.64004 0.0
C1103 C 0.9441 0.75276 0.60917 0.0
C1104 C 0.04194 0.8055 0.61598 0.0
N1105 N 0.02355 0.79979 0.62331 0.0
C1106 C 0.0113 0.82868 0.60731 0.0
C1107 C 0.00828 0.81091 0.61917 0.0
C1108 C 0.03024 0.83505 0.59968 0.0
C1109 C 0.04565 0.82317 0.60417 0.0
H1110 H 0.05374 0.79631 0.6192 0.0
H1111 H 0.99377 0.806 0.62518 0.0
C1112 C 0.97 0.74904 0.6959 0.0
N1113 N 0.97377 0.76049 0.67907 0.0
C1114 C 0.95399 0.75185 0.70722 0.0
C1115 C 0.94562 0.77776 0.68338 0.0
C1116 C 0.9618 0.77447 0.67255 0.0
C1117 C 0.94162 0.76654 0.70113 0.0
H1118 H 0.97951 0.73784 0.70069 0.0
H1119 H 0.96496 0.78323 0.65899 0.0
C1120 C 0.05554 0.7503 0.63357 0.0
N1121 N 0.09347 0.74017 0.62934 0.0
C1122 C 0.05805 0.73172 0.62731 0.0
C1123 C 0.07236 0.76373 0.63764 0.0
C1124 C 0.07734 0.72689 0.62526 0.0
C1125 C 0.09139 0.75832 0.63544 0.0
C1126 C 0.01811 0.71924 0.67985 0.0
C1127 C 0.02717 0.7041 0.67254 0.0
C1128 C 0.01925 0.72149 0.69981 0.0
C1129 C 0.037 0.69129 0.68535 0.0
C1130 C 0.02927 0.70842 0.71215 0.0
N1131 N 0.03784 0.6937 0.70473 0.0
C1132 C 0.05735 0.76157 0.69729 0.0
C1133 C 0.06814 0.73715 0.67905 0.0
C1134 C 0.07316 0.75979 0.71078 0.0
N1135 N 0.05521 0.75048 0.68165 0.0
C1136 C 0.08438 0.73519 0.69193 0.0
C1137 C 0.08717 0.7466 0.70815 0.0
H1138 H 0.04661 0.77167 0.69944 0.0
H1139 H 0.06589 0.7279 0.667 0.0
C1140 C 0.00866 0.72257 0.60271 0.0
N1141 N 1.00446 0.718 0.62176 0.0
C1142 C 0.00541 0.70794 0.58944 0.0
C1143 C 0.99316 0.68421 0.6155 0.0
C1144 C 0.99645 0.69936 0.62825 0.0
C1145 C 0.9978 0.68837 0.59582 0.0
H1146 H 0.0149 0.73755 0.59792 0.0
H1147 H 0.99281 0.6962 0.64338 0.0
O1148 O 0.02009 0.77786 0.66847 0.0
O1149 O 0.99236 0.7605 0.63532 0.0
O1150 O 0.03675 0.75537 0.63542 0.0
O1151 O 0.00876 0.73218 0.66746 0.0
H1152 H 0.99543 0.80512 0.66962 0.0
H1153 H 0.05711 0.79595 0.66652 0.0
H1154 H 0.00581 0.84156 0.66787 0.0
H1155 H 0.06644 0.83256 0.66477 0.0
H1156 H 0.93833 0.71345 0.64191 0.0
H1157 H 0.97002 0.77474 0.60658 0.0
H1158 H 0.97235 0.72778 0.65214 0.0
H1159 H 0.93594 0.75956 0.59715 0.0
H1160 H 0.99903 0.83744 0.60434 0.0
H1161 H 0.06038 0.8273 0.59835 0.0
H1162 H 0.95164 0.7429 0.72082 0.0
H1163 H 0.93631 0.78896 0.67785 0.0
H1164 H 0.0453 0.72104 0.62423 0.0
H1165 H 0.07079 0.77804 0.64276 0.0
H1166 H 0.07948 0.71255 0.62049 0.0
H1167 H 0.10451 0.76853 0.63865 0.0
H1168 H 0.02702 0.70249 0.6571 0.0
H1169 H 0.0129 0.73348 0.70569 0.0
H1170 H 0.04412 0.67956 0.67987 0.0
H1171 H 0.03037 0.71007 0.7276 0.0
H1172 H 0.07415 0.76853 0.72327 0.0
H1173 H 0.09472 0.72492 0.689 0.0
H1174 H 0.0093 0.71179 0.57443 0.0
H1175 H 0.98695 0.66941 0.62097 0.0
Li1176 Li 0.51764 0.27568 0.13933 0.0
Li1177 Li 0.4958 0.258 0.16356 0.0
Li1178 Li 0.53144 0.25449 0.16514 0.0
Li1179 Li 0.50988 0.23958 0.13988 0.0
C1180 C 0.51155 0.29593 0.17198 0.0
N1181 N 0.4968 0.33015 0.18087 0.0
C1182 C 0.49648 0.30354 0.16025 0.0
C1183 C 0.51911 0.30571 0.18822 0.0
C1184 C 0.48922 0.32086 0.165 0.0
C1185 C 0.51147 0.323 0.19246 0.0
C1186 C 0.4728 0.25075 0.12979 0.0
C1187 C 0.44584 0.22424 0.13521 0.0
N1188 N 0.43567 0.23186 0.11953 0.0
C1189 C 0.46209 0.25831 0.11373 0.0
C1190 C 0.46464 0.23357 0.14063 0.0
C1191 C 0.44333 0.24855 0.10878 0.0
C1192 C 0.51682 0.29862 0.10349 0.0
N1193 N 0.52316 0.29932 0.12237 0.0
C1194 C 0.5378 0.3331 0.11628 0.0
C1195 C 0.53352 0.31608 0.12892 0.0
C1196 C 0.53151 0.33286 0.09663 0.0
C1197 C 0.52085 0.31527 0.09032 0.0
H1198 H 0.50877 0.28502 0.09864 0.0
H1199 H 0.53855 0.31626 0.14396 0.0
C1200 C 0.47435 0.25462 0.19841 0.0
N1201 N 0.47335 0.26047 0.17914 0.0
C1202 C 0.45903 0.25753 0.21056 0.0
C1203 C 0.44183 0.27225 0.18277 0.0
C1204 C 0.45749 0.26913 0.1712 0.0
C1205 C 0.44249 0.26659 0.20281 0.0
H1206 H 0.48727 0.24803 0.20442 0.0
H1207 H 0.45711 0.27397 0.15591 0.0
C1208 C 0.5547 0.26531 0.13215 0.0
N1209 N 0.59173 0.28496 0.12244 0.0
C1210 C 0.56464 0.25978 0.11649 0.0
C1211 C 0.56356 0.28085 0.14287 0.0
C1212 C 0.58337 0.26989 0.11181 0.0
C1213 C 0.5823 0.29059 0.13773 0.0
C1214 C 0.51572 0.21541 0.17401 0.0
C1215 C 0.5314 0.20967 0.16401 0.0
C1216 C 0.50759 0.20311 0.18964 0.0
C1217 C 0.53866 0.19167 0.16983 0.0
C1218 C 0.51527 0.18521 0.19502 0.0
N1219 N 0.53051 0.17991 0.18509 0.0
C1220 C 0.55306 0.25633 0.201 0.0
C1221 C 0.57033 0.24394 0.17634 0.0
C1222 C 0.56912 0.25438 0.21417 0.0
N1223 N 0.55397 0.25121 0.18247 0.0
C1224 C 0.5868 0.24194 0.18895 0.0
C1225 C 0.58636 0.24722 0.20815 0.0
H1226 H 0.53983 0.262 0.20552 0.0
H1227 H 0.57064 0.23969 0.16163 0.0
C1228 C 0.51106 0.22239 0.10446 0.0
N1229 N 0.50526 0.21812 0.1231 0.0
C1230 C 0.50844 0.2077 0.09122 0.0
C1231 C 0.49395 0.18438 0.1166 0.0
C1232 C 0.49662 0.1996 0.1293 0.0
C1233 C 0.49991 0.18834 0.09727 0.0
H1234 H 0.51779 0.23726 0.09989 0.0
H1235 H 0.49179 0.1966 0.14409 0.0
O1236 O 0.51877 0.27887 0.1678 0.0
O1237 O 0.49123 0.26015 0.13468 0.0
O1238 O 0.53628 0.25564 0.13674 0.0
O1239 O 0.50841 0.23303 0.16873 0.0
H1240 H 0.49042 0.29618 0.14764 0.0
H1241 H 0.53076 0.29997 0.19745 0.0
H1242 H 0.47755 0.32691 0.15606 0.0
H1243 H 0.51718 0.33072 0.20499 0.0
H1244 H 0.43934 0.21094 0.14347 0.0
H1245 H 0.46823 0.27159 0.10518 0.0
H1246 H 0.47266 0.22749 0.15312 0.0
H1247 H 0.43487 0.25423 0.09639 0.0
H1248 H 0.54582 0.34634 0.12192 0.0
H1249 H 0.51597 0.31423 0.07528 0.0
H1250 H 0.4604 0.25316 0.22593 0.0
H1251 H 0.42932 0.27903 0.17603 0.0
H1252 H 0.55794 0.2478 0.10803 0.0
H1253 H 0.5561 0.28535 0.15503 0.0
H1254 H 0.59124 0.26577 0.09973 0.0
H1255 H 0.58933 0.30264 0.1459 0.0
H1256 H 0.53786 0.21896 0.15184 0.0
H1257 H 0.49547 0.20738 0.19755 0.0
H1258 H 0.55077 0.18704 0.16222 0.0
H1259 H 0.50911 0.17554 0.2071 0.0
H1260 H 0.5682 0.25875 0.2288 0.0
H1261 H 0.59966 0.2361 0.18379 0.0
H1262 H 0.51335 0.21136 0.07649 0.0
H1263 H 0.48707 0.16973 0.12179 0.0
H1264 H 0.19614 0.76289 0.85029 0.0
H1265 H 0.25989 0.76044 0.84975 0.0
H1266 H 0.20141 0.78601 0.87565 0.0
H1267 H 0.26474 0.7826 0.87611 0.0
H1268 H 0.25553 0.80302 0.93966 0.0
H1269 H 0.25158 0.7803 0.91349 0.0
H1270 H 0.22191 0.82316 0.87725 0.0
H1271 H 0.22635 0.84609 0.9032 0.0
C1272 C 0.2113 0.76729 0.85539 0.0
C1273 C 0.22759 0.75977 0.84764 0.0
C1274 C 0.21424 0.78046 0.87008 0.0
C1275 C 0.23346 0.78608 0.87778 0.0
C1276 C 0.24974 0.77837 0.87046 0.0
C1277 C 0.24688 0.76554 0.85543 0.0
C1278 C 0.24821 0.80755 0.92607 0.0
C1279 C 0.24121 0.82625 0.9234 0.0
C1280 C 0.24605 0.79464 0.91111 0.0
C1281 C 0.23643 0.80001 0.8934 0.0
C1282 C 0.22933 0.81867 0.89079 0.0
C1283 C 0.23191 0.83177 0.90557 0.0
H1284 H 0.0224 0.58449 0.41373 0.0
H1285 H 0.01814 0.52884 0.44913 0.0
H1286 H 0.0433 0.57114 0.39117 0.0
H1287 H 0.0392 0.51547 0.42659 0.0
H1288 H 0.09507 0.50817 0.39101 0.0
H1289 H 0.07459 0.52077 0.41455 0.0
H1290 H 0.0387 0.54504 0.36751 0.0
H1291 H 0.05924 0.53267 0.34403 0.0
C1292 C 0.02621 0.56949 0.41682 0.0
C1293 C 0.01909 0.55793 0.43347 0.0
C1294 C 0.03801 0.56178 0.40382 0.0
C1295 C 0.04294 0.54225 0.4071 0.0
C1296 C 0.03588 0.53066 0.4238 0.0
C1297 C 0.02387 0.53832 0.43673 0.0
C1298 C 0.0828 0.51619 0.38572 0.0
C1299 C 0.07878 0.5194 0.36564 0.0
C1300 C 0.07099 0.52329 0.3992 0.0
C1301 C 0.05507 0.53398 0.3929 0.0
C1302 C 0.05098 0.53704 0.37283 0.0
C1303 C 0.06262 0.52977 0.35938 0.0
H1304 H 0.76958 0.77715 0.86098 0.0
H1305 H 0.83405 0.7825 0.86365 0.0
H1306 H 0.76845 0.75517 0.89075 0.0
H1307 H 0.8329 0.75991 0.89302 0.0
H1308 H 0.82407 0.73378 0.95578 0.0
H1309 H 0.82487 0.75746 0.92716 0.0
H1310 H 0.77466 0.7217 0.90163 0.0
H1311 H 0.77339 0.69849 0.93046 0.0
C1312 C 0.78353 0.77373 0.86796 0.0
C1313 C 0.8019 0.78162 0.85987 0.0
C1314 C 0.78287 0.76092 0.88493 0.0
C1315 C 0.80058 0.75567 0.89429 0.0
C1316 C 0.81897 0.76375 0.88633 0.0
C1317 C 0.81962 0.77654 0.86934 0.0
C1318 C 0.81307 0.73108 0.94414 0.0
C1319 C 0.7987 0.71416 0.94544 0.0
C1320 C 0.81367 0.74456 0.92763 0.0
C1321 C 0.79985 0.74151 0.91203 0.0
C1322 C 0.7854 0.72467 0.91341 0.0
C1323 C 0.78484 0.71119 0.92988 0.0
H1324 H 0.98602 0.97896 0.45778 0.0
H1325 H 0.03634 0.0135 0.4297 0.0
H1326 H 0.96593 0.98203 0.42767 0.0
H1327 H 0.01625 0.0168 0.39953 0.0
H1328 H 0.97946 1.00219 0.34398 0.0
H1329 H 0.99982 0.99731 0.37361 0.0
H1330 H 0.95079 0.00825 0.40789 0.0
H1331 H 0.93029 0.01261 0.37832 0.0
C1332 C 0.99275 0.9872 0.44511 0.0
C1333 C 0.01264 0.99615 0.44604 0.0
C1334 C 0.98124 0.98905 0.42791 0.0
C1335 C 0.98943 0.99978 0.41122 0.0
C1336 C 0.00953 0.00832 0.41206 0.0
C1337 C 0.021 0.00652 0.42931 0.0
C1338 C 0.97297 1.00337 0.35786 0.0
C1339 C 0.95323 0.00778 0.35878 0.0
C1340 C 0.98471 1.00077 0.37482 0.0
C1341 C 0.97694 1.00238 0.39313 0.0
C1342 C 0.95717 0.0067 0.39405 0.0
C1343 C 0.94549 0.00942 0.37708 0.0
H1344 H 0.23117 0.28748 0.66264 0.0
H1345 H 0.22298 0.2372 0.70513 0.0
H1346 H 0.24464 0.2669 0.64024 0.0
H1347 H 0.23636 0.21641 0.68264 0.0
H1348 H 0.27836 0.19067 0.64237 0.0
H1349 H 0.26711 0.21147 0.66596 0.0
H1350 H 0.23132 0.23924 0.62095 0.0
H1351 H 0.2422 0.21835 0.59752 0.0
C1352 C 0.23243 0.27204 0.66724 0.0
C1353 C 0.22615 0.26395 0.68567 0.0
C1354 C 0.24001 0.2602 0.65437 0.0
C1355 C 0.24148 0.23995 0.65959 0.0
C1356 C 0.23561 0.23198 0.67822 0.0
C1357 C 0.22792 0.24383 0.69109 0.0
C1358 C 0.26796 0.20109 0.63752 0.0
C1359 C 0.26133 0.20285 0.61794 0.0
C1360 C 0.26154 0.21305 0.65106 0.0
C1361 C 0.24842 0.22714 0.64533 0.0
C1362 C 0.24175 0.22884 0.6258 0.0
C1363 C 0.24805 0.21685 0.61232 0.0
H1364 H 0.54337 0.54289 0.61842 0.0
H1365 H 0.4949 0.56186 0.58163 0.0
H1366 H 0.52147 0.53783 0.64603 0.0
H1367 H 0.47346 0.55804 0.6094 0.0
H1368 H 0.43362 0.53126 0.65854 0.0
H1369 H 0.45545 0.53439 0.63095 0.0
H1370 H 0.50553 0.5554 0.66795 0.0
H1371 H 0.48369 0.55172 0.69562 0.0
C1372 C 0.52805 0.54596 0.61617 0.0
C1373 C 0.521 0.55285 0.59772 0.0
C1374 C 0.51554 0.54332 0.63211 0.0
C1375 C 0.49564 0.5476 0.63007 0.0
C1376 C 0.48857 0.55435 0.61158 0.0
C1377 C 0.50102 0.55683 0.59564 0.0
C1378 C 0.44928 0.53665 0.66074 0.0
C1379 C 0.4569 0.54128 0.67927 0.0
C1380 C 0.46183 0.53849 0.6449 0.0
C1381 C 0.48234 0.54521 0.64711 0.0
C1382 C 0.48993 0.54985 0.66569 0.0
C1383 C 0.47739 0.54783 0.68157 0.0
H1384 H 0.78672 0.24533 0.67453 0.0
H1385 H 0.7892 0.2992 0.70403 0.0
H1386 H 0.78144 0.26422 0.6434 0.0
H1387 H 0.78398 0.31812 0.67301 0.0
H1388 H 0.75046 0.33991 0.61788 0.0
H1389 H 0.75668 0.32073 0.64846 0.0
H1390 H 0.79893 0.29046 0.62054 0.0
H1391 H 0.79239 0.30939 0.58978 0.0
C1392 C 0.78647 0.26126 0.67428 0.0
C1393 C 0.78883 0.27089 0.69162 0.0
C1394 C 0.78344 0.27208 0.65649 0.0
C1395 C 0.78233 0.29268 0.65572 0.0
C1396 C 0.78462 0.30225 0.67311 0.0
C1397 C 0.78778 0.29147 0.69085 0.0
C1398 C 0.76094 0.32904 0.61822 0.0
C1399 C 0.7709 0.32615 0.60138 0.0
C1400 C 0.76467 0.3182 0.63579 0.0
C1401 C 0.77836 0.30412 0.63695 0.0
C1402 C 0.78821 0.3011 0.62009 0.0
C1403 C 0.78459 0.31207 0.60253 0.0
H1404 H 0.49799 0.94927 0.62023 0.0
H1405 H 0.50882 0.01319 0.60996 0.0
H1406 H 0.52021 0.95072 0.64889 0.0
H1407 H 0.53152 0.01471 0.63832 0.0
H1408 H 0.55685 0.01314 0.70022 0.0
H1409 H 0.53344 0.01126 0.67257 0.0
H1410 H 0.55402 0.95638 0.65902 0.0
H1411 H 0.57646 0.95757 0.68741 0.0
C1412 C 0.50529 0.96364 0.62401 0.0
C1413 C 0.50164 0.98111 0.61279 0.0
C1414 C 0.51811 0.96449 0.64044 0.0
C1415 C 0.52781 0.98283 0.64602 0.0
C1416 C 0.52411 1.00032 0.63475 0.0
C1417 C 0.51113 0.99947 0.61842 0.0
C1418 C 0.55618 1.00048 0.69157 0.0
C1419 C 0.56863 0.98549 0.6962 0.0
C1420 C 0.54292 0.99955 0.67546 0.0
C1421 C 0.54179 0.9837 0.66339 0.0
C1422 C 0.55422 0.96871 0.66804 0.0
C1423 C 0.56737 0.96955 0.68424 0.0
H1424 H 0.84007 0.25968 0.76834 0.0
H1425 H 0.85015 0.19785 0.77362 0.0
H1426 H 0.86836 0.2675 0.79057 0.0
H1427 H 0.87766 0.20546 0.79669 0.0
H1428 H 0.93878 0.22849 0.82131 0.0
H1429 H 0.91098 0.22139 0.79844 0.0
H1430 H 0.87892 0.26361 0.82384 0.0
H1431 H 0.90724 0.27157 0.84598 0.0
C1432 C 0.8483 0.24773 0.77423 0.0
C1433 C 0.84279 0.22812 0.76909 0.0
C1434 C 0.86439 0.25218 0.78722 0.0
C1435 C 0.87536 0.23713 0.7955 0.0
C1436 C 0.86977 0.21751 0.79044 0.0
C1437 C 0.85376 0.21308 0.77738 0.0
C1438 C 0.92594 0.23649 0.82187 0.0
C1439 C 0.92536 0.25067 0.83552 0.0
C1440 C 0.90982 0.23219 0.8089 0.0
C1441 C 0.8926 0.24185 0.80928 0.0
C1442 C 0.892 0.25602 0.82294 0.0
C1443 C 0.90817 0.2604 0.83585 0.0
H1444 H 0.49128 0.95504 0.49765 0.0
H1445 H 0.49366 0.91626 0.5501 0.0
H1446 H 0.49476 0.92733 0.47828 0.0
H1447 H 0.49649 0.88818 0.53074 0.0
H1448 H 0.52488 0.84875 0.49128 0.0
H1449 H 0.51965 0.87556 0.5112 0.0
H1450 H 0.47843 0.89704 0.46732 0.0
H1451 H 0.48395 0.87043 0.44731 0.0
C1452 C 0.49211 0.94044 0.505 0.0
C1453 C 0.49175 0.93772 0.52537 0.0
C1454 C 0.49406 0.9245 0.4939 0.0
C1455 C 0.49582 0.90539 0.50286 0.0
C1456 C 0.49537 0.90268 0.52329 0.0
C1457 C 0.4935 0.91869 0.53441 0.0
C1458 C 0.51459 0.85912 0.48595 0.0
C1459 C 0.50493 0.85747 0.46763 0.0
C1460 C 0.51152 0.87449 0.49742 0.0
C1461 C 0.49861 0.88858 0.49093 0.0
C1462 C 0.48876 0.88675 0.47269 0.0
C1463 C 0.49192 0.87145 0.46119 0.0
H1464 H 0.16592 0.28402 0.74851 0.0
H1465 H 0.20487 0.30887 0.79385 0.0
H1466 H 0.13799 0.27976 0.77047 0.0
H1467 H 0.17693 0.30484 0.81565 0.0
H1468 H 0.11765 0.31633 0.84059 0.0
H1469 H 0.14572 0.31928 0.81901 0.0
H1470 H 0.12572 0.26069 0.80048 0.0
H1471 H 0.09779 0.25757 0.82227 0.0
C1472 C 0.1686 0.28837 0.76321 0.0
C1473 C 0.18767 0.29692 0.76932 0.0
C1474 C 0.15257 0.28596 0.7758 0.0
C1475 C 0.15517 0.2921 0.79479 0.0
C1476 C 0.1743 0.30031 0.80101 0.0
C1477 C 0.19033 0.30263 0.78848 0.0
C1478 C 0.11932 0.30396 0.8321 0.0
C1479 C 0.10537 0.2867 0.83324 0.0
C1480 C 0.13543 0.30567 0.81968 0.0
C1481 C 0.138 0.29021 0.80801 0.0
C1482 C 0.12404 0.27299 0.80907 0.0
C1483 C 0.10798 0.27123 0.82156 0.0
H1484 H 0.57512 0.60326 0.5356 0.0
H1485 H 0.51112 0.58795 0.5341 0.0
H1486 H 0.57167 0.63255 0.51334 0.0
H1487 H 0.50758 0.61677 0.5114 0.0
H1488 H 0.50549 0.68053 0.48758 0.0
H1489 H 0.50979 0.65167 0.50977 0.0
H1490 H 0.5637 0.64395 0.48108 0.0
H1491 H 0.56015 0.67369 0.45974 0.0
C1492 C 0.56033 0.60604 0.53029 0.0
C1493 C 0.54339 0.59338 0.53667 0.0
C1494 C 0.55832 0.6228 0.51748 0.0
C1495 C 0.53931 0.62719 0.51057 0.0
C1496 C 0.52242 0.61421 0.5167 0.0
C1497 C 0.52443 0.5976 0.52966 0.0
C1498 C 0.51846 0.67291 0.48616 0.0
C1499 C 0.53248 0.67959 0.47181 0.0
C1500 C 0.52076 0.65609 0.49874 0.0
C1501 C 0.53704 0.64529 0.49723 0.0
C1502 C 0.55108 0.65195 0.48288 0.0
C1503 C 0.54887 0.6689 0.4704 0.0
H1504 H 0.85342 0.76452 0.79101 0.0
H1505 H 0.83737 0.80904 0.74708 0.0
H1506 H 0.88217 0.75956 0.77225 0.0
H1507 H 0.86583 0.80394 0.72805 0.0
H1508 H 0.92926 0.80241 0.70756 0.0
H1509 H 0.90198 0.80856 0.72742 0.0
H1510 H 0.88877 0.74539 0.74233 0.0
H1511 H 0.91597 0.7392 0.72239 0.0
C1512 C 0.8561 0.77322 0.77731 0.0
C1513 C 0.84306 0.78692 0.77032 0.0
C1514 C 0.87246 0.77032 0.7665 0.0
C1515 C 0.87624 0.7812 0.7485 0.0
C1516 C 0.86349 0.79539 0.74187 0.0
C1517 C 0.84712 0.79825 0.75269 0.0
C1518 C 0.92043 0.78978 0.7149 0.0
C1519 C 0.92486 0.77028 0.71328 0.0
C1520 C 0.90478 0.79333 0.72635 0.0
C1521 C 0.89314 0.77748 0.73654 0.0
C1522 C 0.89761 0.75799 0.73497 0.0
C1523 C 0.91323 0.75444 0.7235 0.0
H1524 H 0.0244 0.94406 0.52344 0.0
H1525 H 0.08565 0.93196 0.52277 0.0
H1526 H 0.01664 0.91489 0.54616 0.0
H1527 H 0.07791 0.90276 0.5453 0.0
H1528 H 0.06276 0.86342 0.60028 0.0
H1529 H 0.06965 0.89338 0.57851 0.0
H1530 H 0.0131 0.87897 0.54818 0.0
H1531 H 0.00615 0.84909 0.57014 0.0
C1532 C 0.03617 0.93508 0.52803 0.0
C1533 C 0.05566 0.94039 0.52133 0.0
C1534 C 0.03172 0.91834 0.54105 0.0
C1535 C 0.04665 0.90646 0.54765 0.0
C1536 C 0.06611 0.91175 0.54085 0.0
C1537 C 0.07056 0.9285 0.5279 0.0
C1538 C 0.05183 0.86662 0.58893 0.0
C1539 C 0.03395 0.8538 0.5869 0.0
C1540 C 0.05579 0.88378 0.5764 0.0
C1541 C 0.04201 0.88856 0.56146 0.0
C1542 C 0.02396 0.87591 0.55965 0.0
C1543 C 0.01996 0.85876 0.57224 0.0
H1544 H 0.20166 0.72646 0.76431 0.0
H1545 H 0.16811 0.74643 0.80945 0.0
H1546 H 0.17313 0.72872 0.74176 0.0
H1547 H 0.14024 0.74984 0.7864 0.0
H1548 H 0.10793 0.77557 0.72942 0.0
H1549 H 0.1358 0.77233 0.75252 0.0
H1550 H 0.13471 0.71074 0.74113 0.0
H1551 H 0.10599 0.71337 0.71894 0.0
C1552 C 0.18828 0.73123 0.76954 0.0
C1553 C 0.18738 0.73625 0.78886 0.0
C1554 C 0.17198 0.73265 0.75652 0.0
C1555 C 0.15457 0.73953 0.76236 0.0
C1556 C 0.15361 0.7447 0.7815 0.0
C1557 C 0.1697 0.74287 0.79465 0.0
C1558 C 0.11326 0.76118 0.73203 0.0
C1559 C 0.10447 0.74474 0.72217 0.0
C1560 C 0.12937 0.75942 0.74518 0.0
C1561 C 0.1374 0.74132 0.74851 0.0
C1562 C 0.12889 0.72493 0.73863 0.0
C1563 C 0.11249 0.72654 0.72579 0.0
H1564 H 0.95355 0.60402 0.51075 0.0
H1565 H 0.01355 0.59089 0.52528 0.0
H1566 H 0.95784 0.63061 0.5329 0.0
H1567 H 0.0179 0.61763 0.54736 0.0
H1568 H 0.00801 0.65055 0.60171 0.0
H1569 H 1.00403 0.62442 0.57904 0.0
H1570 H 0.97776 0.66399 0.53607 0.0
H1571 H 0.98157 0.69006 0.55881 0.0
C1572 C 0.96766 0.60683 0.51867 0.0
C1573 C 0.9832 0.59532 0.5163 0.0
C1574 C 0.97017 0.62216 0.53125 0.0
C1575 C 0.98819 0.6262 0.54193 0.0
C1576 C 1.00378 0.61476 0.53947 0.0
C1577 C 1.00135 0.59958 0.52671 0.0
C1578 C 1.00126 0.65362 0.58748 0.0
C1579 C 0.99508 0.67237 0.58208 0.0
C1580 C 0.99917 0.63872 0.57442 0.0
C1581 C 0.99062 0.64214 0.55573 0.0
C1582 C 0.98429 0.66084 0.55039 0.0
C1583 C 0.9866 0.67582 0.56337 0.0
H1584 H 0.75827 0.83106 0.27419 0.0
H1585 H 0.74391 0.85025 0.21478 0.0
H1586 H 0.78191 0.86138 0.27677 0.0
H1587 H 0.76711 0.8809 0.21754 0.0
H1588 H 0.79003 0.94234 0.24581 0.0
H1589 H 0.76734 0.91154 0.24211 0.0
H1590 H 0.81601 0.87696 0.2568 0.0
H1591 H 0.83883 0.90777 0.25991 0.0
C1592 C 0.76023 0.84179 0.26172 0.0
C1593 C 0.74939 0.8384 0.24428 0.0
C1594 C 0.77373 0.85904 0.26317 0.0
C1595 C 0.77623 0.8734 0.24736 0.0
C1596 C 0.76535 0.87004 0.22993 0.0
C1597 C 0.75221 0.85254 0.22833 0.0
C1598 C 0.79582 0.92813 0.2482 0.0
C1599 C 0.81611 0.92733 0.25313 0.0
C1600 C 0.78292 0.91059 0.246 0.0
C1601 C 0.79 0.89197 0.24917 0.0
C1602 C 0.81024 0.89117 0.25431 0.0
C1603 C 0.82324 0.90872 0.25604 0.0
H1604 H 0.78235 0.20179 0.26773 0.0
H1605 H 0.76755 0.17623 0.32531 0.0
H1606 H 0.79965 0.17336 0.26244 0.0
H1607 H 0.78428 0.1473 0.31989 0.0
H1608 H 0.83559 0.11069 0.31189 0.0
H1609 H 0.81686 0.13807 0.31705 0.0
H1610 H 0.79534 0.13889 0.25728 0.0
H1611 H 0.81496 0.11225 0.25183 0.0
C1612 C 0.78244 0.18983 0.27911 0.0
C1613 C 0.77318 0.19101 0.29675 0.0
C1614 C 0.79232 0.17348 0.27608 0.0
C1615 C 0.79331 0.15787 0.29067 0.0
C1616 C 0.78399 0.15907 0.30836 0.0
C1617 C 0.77419 0.17552 0.31141 0.0
C1618 C 0.82705 0.11683 0.29976 0.0
C1619 C 0.82696 0.10925 0.28139 0.0
C1620 C 0.81603 0.13239 0.30281 0.0
C1621 C 0.80451 0.14078 0.2876 0.0
C1622 C 0.80421 0.13302 0.2693 0.0
C1623 C 0.8153 0.11752 0.26623 0.0
H1624 H 0.42271 0.05831 0.99513 0.0
H1625 H 0.45717 0.00914 0.99278 0.0
H1626 H 0.39206 0.03504 0.99691 0.0
H1627 H 0.4265 0.98593 0.99401 0.0
H1628 H 0.36993 0.94947 0.01873 0.0
H1629 H 0.40045 0.97277 0.01698 0.0
H1630 H 0.37088 0.01229 0.97657 0.0
H1631 H 0.34036 0.98889 0.97814 0.0
C1632 C 0.42375 0.04253 0.99503 0.0
C1633 C 0.4424 0.03559 0.99384 0.0
C1634 C 0.40616 0.02921 0.99584 0.0
C1635 C 0.40681 0.00861 0.99559 0.0
C1636 C 0.42547 1.00168 0.99442 0.0
C1637 C 0.44304 0.015 0.99351 0.0
C1638 C 0.36996 0.96301 0.00928 0.0
C1639 C 0.35264 0.96723 0.99853 0.0
C1640 C 0.38748 0.97639 0.00831 0.0
C1641 C 0.38813 0.9944 0.99662 0.0
C1642 C 0.37081 0.99868 0.98592 0.0
C1643 C 0.3533 0.98526 0.98684 0.0
H1644 H 0.26942 0.33193 0.28861 0.0
H1645 H 0.27949 0.34733 0.3479 0.0
H1646 H 0.24663 0.3571 0.28292 0.0
H1647 H 0.25682 0.37262 0.34221 0.0
H1648 H 0.20029 0.40294 0.33104 0.0
H1649 H 0.22227 0.37704 0.33662 0.0
H1650 H 0.246 0.3924 0.27948 0.0
H1651 H 0.22338 0.41764 0.27357 0.0
C1652 C 0.26692 0.34081 0.3004 0.0
C1653 C 0.27634 0.33757 0.31872 0.0
C1654 C 0.25383 0.35529 0.29713 0.0
C1655 C 0.24983 0.36698 0.31208 0.0
C1656 C 0.25924 0.36371 0.33042 0.0
C1657 C 0.27229 0.3492 0.3337 0.0
C1658 C 0.21 0.40064 0.31956 0.0
C1659 C 0.20998 0.41245 0.30183 0.0
C1660 C 0.22283 0.38593 0.32286 0.0
C1661 C 0.23601 0.38259 0.30853 0.0
C1662 C 0.23594 0.39435 0.29079 0.0
C1663 C 0.22311 0.40905 0.28749 0.0
H1664 H 0.08947 0.0285 0.49055 0.0
H1665 H 0.12017 0.97782 0.50954 0.0
H1666 H 0.12027 0.05063 0.49545 0.0
H1667 H 0.15082 1.00008 0.51487 0.0
H1668 H 0.19395 0.04926 0.543 0.0
H1669 H 0.16388 0.0264 0.53706 0.0
H1670 H 0.15427 0.05855 0.48165 0.0
H1671 H 0.18458 0.08115 0.48729 0.0
C1672 C 0.10279 0.02202 0.4956 0.0
C1673 C 0.10224 1.00131 0.49964 0.0
C1674 C 0.12045 0.03475 0.49845 0.0
C1675 C 0.13798 0.02711 0.50558 0.0
C1676 C 0.13749 0.00644 0.50961 0.0
C1677 C 0.11987 0.99369 0.5066 0.0
C1678 C 0.18563 0.05132 0.52941 0.0
C1679 C 0.19175 0.06716 0.51566 0.0
C1680 C 0.16835 0.03822 0.52604 0.0
C1681 C 0.15665 0.04071 0.50892 0.0
C1682 C 0.1628 0.05642 0.49512 0.0
C1683 C 0.18017 0.06942 0.4984 0.0
H1684 H 0.75627 0.19444 0.73788 0.0
H1685 H 0.80639 0.16377 0.75841 0.0
H1686 H 0.73399 0.16343 0.74273 0.0
H1687 H 0.78395 0.13287 0.76364 0.0
H1688 H 0.73302 0.08797 0.79052 0.0
H1689 H 0.75602 0.11843 0.78507 0.0
H1690 H 0.72745 0.13034 0.72905 0.0
H1691 H 0.70472 0.09968 0.73422 0.0
C1692 C 0.7626 0.18108 0.74327 0.0
C1693 C 0.78319 0.18167 0.7477 0.0
C1694 C 0.74979 0.16331 0.74609 0.0
C1695 C 0.7572 0.14569 0.75356 0.0
C1696 C 0.77774 0.14625 0.75809 0.0
C1697 C 0.79059 0.164 0.75513 0.0
C1698 C 0.73179 0.09689 0.7769 0.0
C1699 C 0.71693 0.0913 0.76284 0.0
C1700 C 0.74496 0.1144 0.77382 0.0
C1701 C 0.74351 0.12684 0.75666 0.0
C1702 C 0.72876 0.12123 0.74255 0.0
C1703 C 0.71569 0.10366 0.74556 0.0
H1704 H 0.42068 0.98266 0.56773 0.0
H1705 H 0.4653 0.03283 0.57571 0.0
H1706 H 0.39496 0.0049 0.56303 0.0
H1707 H 0.43988 0.05537 0.56998 0.0
H1708 H 0.38742 0.08999 0.57668 0.0
H1709 H 0.41296 0.06758 0.58233 0.0
H1710 H 0.38128 0.02817 0.54222 0.0
H1711 H 0.35534 0.05016 0.53752 0.0
C1712 C 0.425 0.99853 0.56822 0.0
C1713 C 0.44499 0.006 0.57209 0.0
C1714 C 0.41026 0.01137 0.5654 0.0
C1715 C 0.41516 0.03212 0.56602 0.0
C1716 C 0.43529 0.03954 0.56976 0.0
C1717 C 0.44996 0.02663 0.57293 0.0
C1718 C 0.38598 0.07651 0.56911 0.0
C1719 C 0.36934 0.07179 0.55673 0.0
C1720 C 0.4007 0.06366 0.57223 0.0
C1721 C 0.39938 0.04589 0.56277 0.0
C1722 C 0.38275 0.04139 0.55017 0.0
C1723 C 0.36787 0.05406 0.54735 0.0
H1724 H 0.60551 0.51626 0.57075 0.0
H1725 H 0.57424 0.49513 0.51935 0.0
H1726 H 0.63406 0.49951 0.5636 0.0
H1727 H 0.60231 0.47771 0.51253 0.0
H1728 H 0.66241 0.46274 0.49537 0.0
H1729 H 0.63556 0.48188 0.502 0.0
H1730 H 0.64441 0.46742 0.56358 0.0
H1731 H 0.67156 0.44868 0.55688 0.0
C1732 C 0.60484 0.5082 0.5578 0.0
C1733 C 0.58787 0.50751 0.54528 0.0
C1734 C 0.62111 0.49837 0.55381 0.0
C1735 C 0.62064 0.48728 0.53739 0.0
C1736 C 0.6035 0.48645 0.52504 0.0
C1737 C 0.58735 0.49639 0.52896 0.0
C1738 C 0.65857 0.46361 0.51032 0.0
C1739 C 0.66912 0.45414 0.52558 0.0
C1740 C 0.64313 0.47457 0.51415 0.0
C1741 C 0.63767 0.47622 0.53336 0.0
C1742 C 0.64834 0.46682 0.54863 0.0
C1743 C 0.66391 0.456 0.54479 0.0
H1744 H 0.72748 0.28696 0.32676 0.0
H1745 H 0.73092 0.23662 0.36853 0.0
H1746 H 0.73263 0.30938 0.35277 0.0
H1747 H 0.73515 0.25883 0.39479 0.0
H1748 H 0.75973 0.30478 0.43665 0.0
H1749 H 0.75643 0.2827 0.41029 0.0
H1750 H 0.71736 0.32065 0.37855 0.0
H1751 H 0.72153 0.34308 0.40458 0.0
C1752 C 0.72918 0.2807 0.34158 0.0
C1753 C 0.72878 0.26005 0.34562 0.0
C1754 C 0.73201 0.29354 0.35656 0.0
C1755 C 0.7342 0.28604 0.37606 0.0
C1756 C 0.73388 0.2653 0.38002 0.0
C1757 C 0.73136 0.2525 0.36497 0.0
C1758 C 0.75044 0.30834 0.42401 0.0
C1759 C 0.74091 0.32567 0.42266 0.0
C1760 C 0.74844 0.29563 0.4089 0.0
C1761 C 0.73659 0.29975 0.39214 0.0
C1762 C 0.72696 0.31709 0.39094 0.0
C1763 C 0.72923 0.32995 0.40592 0.0
H1764 H 0.51433 0.0279 0.94605 0.0
H1765 H 0.53177 0.08718 0.92015 0.0
H1766 H 0.53615 0.01458 0.92427 0.0
H1767 H 0.55299 0.07398 0.89794 0.0
H1768 H 0.60275 0.04784 0.87164 0.0
H1769 H 0.58301 0.05973 0.89583 0.0
H1770 H 0.53881 0.0084 0.891 0.0
H1771 H 0.5592 0.99586 0.86758 0.0
C1772 C 0.52303 0.03808 0.93583 0.0
C1773 C 0.52178 0.05863 0.93514 0.0
C1774 C 0.53535 0.03045 0.92318 0.0
C1775 C 0.54648 0.04318 0.90933 0.0
C1776 C 0.54505 0.06374 0.90865 0.0
C1777 C 0.53284 0.07134 0.92135 0.0
C1778 C 0.58902 0.03884 0.87596 0.0
C1779 C 0.58267 0.02081 0.8676 0.0
C1780 C 0.57751 0.04584 0.88968 0.0
C1781 C 0.55918 0.03513 0.89537 0.0
C1782 C 0.55291 0.01699 0.88718 0.0
C1783 C 0.56451 0.00991 0.87351 0.0
H1784 H 0.33488 0.28386 0.36529 0.0
H1785 H 0.27038 0.2767 0.3623 0.0
H1786 H 0.3342 0.26173 0.39493 0.0
H1787 H 0.26967 0.25446 0.39189 0.0
H1788 H 0.27532 0.23017 0.45512 0.0
H1789 H 0.27663 0.25356 0.42638 0.0
H1790 H 0.32615 0.22723 0.40594 0.0
H1791 H 0.32542 0.20443 0.4351 0.0
C1792 C 0.32054 0.27746 0.37089 0.0
C1793 C 0.30269 0.28205 0.36136 0.0
C1794 C 0.32014 0.26473 0.3879 0.0
C1795 C 0.30188 0.25622 0.39584 0.0
C1796 C 0.28402 0.26095 0.38639 0.0
C1797 C 0.28442 0.27372 0.36939 0.0
C1798 C 0.28669 0.22954 0.44465 0.0
C1799 C 0.3003 0.21539 0.44751 0.0
C1800 C 0.28727 0.2428 0.42801 0.0
C1801 C 0.30146 0.24229 0.41375 0.0
C1802 C 0.31515 0.22823 0.41668 0.0
C1803 C 0.31458 0.21497 0.43332 0.0
H1804 H 0.54079 0.50932 0.92605 0.0
H1805 H 0.48918 0.4803 0.95636 0.0
H1806 H 0.52018 0.51326 0.89629 0.0
H1807 H 0.46857 0.48401 0.92669 0.0
H1808 H 0.43461 0.51674 0.87759 0.0
H1809 H 0.45552 0.51125 0.90659 0.0
H1810 H 0.50099 0.49412 0.87141 0.0
H1811 H 0.47997 0.49937 0.84234 0.0
C1812 C 0.52506 0.50364 0.92623 0.0
C1813 C 0.51654 0.49458 0.94345 0.0
C1814 C 0.51328 0.50581 0.90923 0.0
C1815 C 0.4927 0.49905 0.90914 0.0
C1816 C 0.4843 0.48965 0.92633 0.0
C1817 C 0.4961 0.48741 0.94329 0.0
C1818 C 0.44896 0.51157 0.87601 0.0
C1819 C 0.45554 0.50847 0.85757 0.0
C1820 C 0.46096 0.50843 0.89267 0.0
C1821 C 0.47992 0.50219 0.89134 0.0
C1822 C 0.48657 0.49916 0.87292 0.0
C1823 C 0.47451 0.50221 0.85624 0.0
H1824 H 0.75333 0.78152 0.17961 0.0
H1825 H 0.69884 0.74141 0.18634 0.0
H1826 H 0.76563 0.75931 0.15788 0.0
H1827 H 0.71112 0.719 0.16491 0.0
H1828 H 0.72838 0.69843 0.10683 0.0
H1829 H 0.71727 0.71891 0.13053 0.0
H1830 H 0.77693 0.72676 0.15603 0.0
H1831 H 0.78808 0.70607 0.13232 0.0
C1832 C 0.74409 0.76784 0.17652 0.0
C1833 C 0.72503 0.76331 0.18436 0.0
C1834 C 0.75114 0.75506 0.16418 0.0
C1835 C 0.73929 0.73743 0.15946 0.0
C1836 C 0.72049 0.73262 0.16791 0.0
C1837 C 0.71348 0.74538 0.18027 0.0
C1838 C 0.73911 0.70424 0.11765 0.0
C1839 C 0.75914 0.70046 0.11765 0.0
C1840 C 0.73272 0.71603 0.13127 0.0
C1841 C 0.74617 0.72447 0.14528 0.0
C1842 C 0.76621 0.72071 0.14532 0.0
C1843 C 0.77261 0.70885 0.1317 0.0
H1844 H 0.02639 0.08592 0.10374 0.0
H1845 H 0.02069 0.02231 0.09958 0.0
H1846 H 1.00421 0.08107 0.13097 0.0
H1847 H 0.99948 0.01737 0.12769 0.0
H1848 H 0.9443 0.01652 0.16395 0.0
H1849 H 0.96691 0.02113 0.13702 0.0
H1850 H 1.00152 0.06995 0.16409 0.0
H1851 H 0.97814 0.06619 0.1904 0.0
C1852 C 0.02045 0.07087 0.10864 0.0
C1853 C 0.02525 0.05453 0.09926 0.0
C1854 C 0.00792 0.06806 0.12452 0.0
C1855 C 0.99996 0.04881 0.13164 0.0
C1856 C 1.00505 0.03244 0.12249 0.0
C1857 C 0.01748 0.03526 0.10649 0.0
C1858 C 0.95656 0.02844 0.16407 0.0
C1859 C 0.95922 0.04106 0.17938 0.0
C1860 C 0.96976 0.03088 0.14871 0.0
C1861 C 0.98614 0.04591 0.14828 0.0
C1862 C 0.98895 0.05838 0.16372 0.0
C1863 C 0.97566 0.05604 0.17901 0.0
H1864 H 0.32174 0.78336 0.18773 0.0
H1865 H 0.26032 0.75667 0.18732 0.0
H1866 H 0.31596 0.80111 0.15608 0.0
H1867 H 0.25448 0.77417 0.15563 0.0
H1868 H 0.24623 0.82851 0.11288 0.0
H1869 H 0.25233 0.80866 0.143 0.0
H1870 H 0.30834 0.79627 0.12156 0.0
H1871 H 0.30215 0.81598 0.09127 0.0
C1872 C 0.30706 0.78121 0.18073 0.0
C1873 C 0.29142 0.7689 0.19 0.0
C1874 C 0.30375 0.79126 0.1626 0.0
C1875 C 0.2847 0.7892 0.15339 0.0
C1876 C 0.26922 0.77637 0.16248 0.0
C1877 C 0.27257 0.76627 0.18056 0.0
C1878 C 0.25972 0.82133 0.11443 0.0
C1879 C 0.27368 0.82386 0.09957 0.0
C1880 C 0.26323 0.80995 0.13173 0.0
C1881 C 0.28081 0.80084 0.1347 0.0
C1882 C 0.29475 0.80329 0.11985 0.0
C1883 C 0.29121 0.81463 0.10248 0.0
H1884 H 0.03006 0.4752 0.09714 0.0
H1885 H 0.98268 0.48996 0.13148 0.0
H1886 H 0.05243 0.47597 0.12558 0.0
H1887 H 0.00546 0.49207 0.15962 0.0
H1888 H 0.04508 0.47427 0.2116 0.0
H1889 H 0.02235 0.47273 0.18326 0.0
H1890 H 0.07108 0.4974 0.14646 0.0
H1891 H 0.09381 0.49835 0.17476 0.0
C1892 C 0.02437 0.47863 0.11074 0.0
C1893 C 1.00444 0.48244 0.11191 0.0
C1894 C 0.03734 0.47938 0.12705 0.0
C1895 C 0.03087 0.48413 0.14502 0.0
C1896 C 0.01098 0.48809 0.14616 0.0
C1897 C 0.99795 0.48718 0.12987 0.0
C1898 C 0.05089 0.47941 0.19745 0.0
C1899 C 0.07127 0.48637 0.19544 0.0
C1900 C 0.03784 0.47861 0.18116 0.0
C1901 C 0.04478 0.48494 0.16244 0.0
C1902 C 0.06519 0.49202 0.16052 0.0
C1903 C 0.07825 0.49262 0.17678 0.0
H1904 H 0.35062 0.69705 0.27549 0.0
H1905 H 0.34372 0.75957 0.26567 0.0
H1906 H 0.3781 0.70509 0.29862 0.0
H1907 H 0.37168 0.76753 0.28831 0.0
H1908 H 0.43703 0.77338 0.31343 0.0
H1909 H 0.40909 0.76562 0.2905 0.0
H1910 H 0.38312 0.71919 0.33163 0.0
H1911 H 0.41108 0.72691 0.35452 0.0
C1912 C 0.35482 0.71249 0.27832 0.0
C1913 C 0.34482 0.72763 0.26866 0.0
C1914 C 0.37064 0.71708 0.29154 0.0
C1915 C 0.37704 0.73694 0.29528 0.0
C1916 C 0.36722 0.75211 0.28556 0.0
C1917 C 0.35123 0.74751 0.27251 0.0
C1918 C 0.42537 0.76149 0.31753 0.0
C1919 C 0.42623 0.75075 0.33576 0.0
C1920 C 0.40932 0.75715 0.30448 0.0
C1921 C 0.39393 0.74179 0.30927 0.0
C1922 C 0.39483 0.73101 0.32748 0.0
C1923 C 0.41074 0.73553 0.34063 0.0
H1924 H 0.99246 0.45537 0.99712 0.0
H1925 H 0.99449 0.41675 0.04972 0.0
H1926 H 0.99556 0.42748 0.97787 0.0
H1927 H 0.99692 0.38849 0.03047 0.0
H1928 H 0.0247 0.34847 0.99113 0.0
H1929 H 0.01981 0.37545 0.01099 0.0
H1930 H 0.97886 0.39731 0.96703 0.0
H1931 H 0.98407 0.37055 0.9471 0.0
C1932 C 0.99313 0.44077 1.00453 0.0
C1933 C 0.99278 0.43815 0.0249 0.0
C1934 C 0.99485 0.42472 0.9935 0.0
C1935 C 0.99639 0.4056 1.00254 0.0
C1936 C 0.99595 0.40299 0.02297 0.0
C1937 C 0.99432 0.41911 0.03402 0.0
C1938 C 0.01455 0.35896 0.98578 0.0
C1939 C 1.00488 0.35739 0.96745 0.0
C1940 C 0.01167 0.37443 0.99721 0.0
C1941 C 0.99895 0.38868 0.99067 0.0
C1942 C 0.98907 0.38689 0.97244 0.0
C1943 C 0.99204 0.37151 0.96097 0.0
H1944 H 0.68795 0.76608 0.27482 0.0
H1945 H 0.6808 0.82825 0.26308 0.0
H1946 H 0.66023 0.76209 0.29705 0.0
H1947 H 0.65297 0.82427 0.28497 0.0
H1948 H 0.61822 0.81621 0.34052 0.0
H1949 H 0.64596 0.81932 0.31861 0.0
H1950 H 0.62482 0.76145 0.29884 0.0
H1951 H 0.59769 0.75788 0.32152 0.0
C1952 C 0.68031 0.77884 0.27682 0.0
C1953 C 0.68669 0.79751 0.26728 0.0
C1954 C 0.66439 0.77657 0.28955 0.0
C1955 C 0.65438 0.79289 0.29297 0.0
C1956 C 0.66057 0.81146 0.28309 0.0
C1957 C 0.67652 0.81374 0.27048 0.0
C1958 C 0.6196 0.80402 0.3317 0.0
C1959 C 0.60562 0.7868 0.33285 0.0
C1960 C 0.6354 0.80592 0.3189 0.0
C1961 C 0.63765 0.79068 0.30681 0.0
C1962 C 0.62372 0.77342 0.30802 0.0
C1963 C 0.60796 0.77149 0.32087 0.0
H1964 H 0.05121 0.08054 0.01187 0.0
H1965 H 0.04092 0.11486 0.05968 0.0
H1966 H 0.04821 0.10952 0.98928 0.0
H1967 H 0.03642 0.14327 0.03703 0.0
H1968 H 0.04759 0.19725 0.9943 0.0
H1969 H 0.053 0.1685 0.01649 0.0
H1970 H 0.02496 0.12935 0.97432 0.0
H1971 H 0.02032 0.15819 0.95192 0.0
C1972 C 0.04831 0.09424 0.01761 0.0
C1973 C 0.04628 0.09523 0.03768 0.0
C1974 C 0.04628 0.11083 1.00458 0.0
C1975 C 0.04198 0.12884 0.01122 0.0
C1976 C 0.04 0.12982 0.0313 0.0
C1977 C 0.04226 0.11333 0.04433 0.0
C1978 C 0.04257 0.18247 0.98983 0.0
C1979 C 0.0335 0.17996 0.9714 0.0
C1980 C 0.04559 0.16595 1.00258 0.0
C1981 C 0.03935 0.14647 0.99733 0.0
C1982 C 0.0303 0.14403 0.97881 0.0
C1983 C 0.02753 0.16057 0.96597 0.0
H1984 H 0.33591 0.2555 0.27189 0.0
H1985 H 0.35702 0.31823 0.26997 0.0
H1986 H 0.36439 0.24988 0.25335 0.0
H1987 H 0.38599 0.31264 0.25193 0.0
H1988 H 0.42166 0.29899 0.2007 0.0
H1989 H 0.39431 0.30469 0.22056 0.0
H1990 H 0.39963 0.24912 0.25441 0.0
H1991 H 0.4263 0.24289 0.23385 0.0
C1992 C 0.34689 0.26804 0.26779 0.0
C1993 C 0.34444 0.28725 0.27267 0.0
C1994 C 0.36329 0.26482 0.25722 0.0
C1995 C 0.37763 0.28077 0.25115 0.0
C1996 C 0.37518 0.30001 0.25615 0.0
C1997 C 0.35871 0.30322 0.26667 0.0
C1998 C 0.41688 0.28784 0.21223 0.0
C1999 C 0.42617 0.27038 0.21551 0.0
C2000 C 0.40134 0.29127 0.22385 0.0
C2001 C 0.39468 0.27739 0.23917 0.0
C2002 C 0.40415 0.26005 0.24262 0.0
C2003 C 0.41965 0.25658 0.23095 0.0
H2004 H 0.52822 0.44112 0.01952 0.0
H2005 H 0.58912 0.42817 0.01802 0.0
H2006 H 0.52022 0.41169 0.04183 0.0
H2007 H 0.58111 0.39857 0.04003 0.0
H2008 H 0.56585 0.35917 0.09513 0.0
H2009 H 0.57334 0.38868 0.07301 0.0
H2010 H 0.51581 0.37609 0.04392 0.0
H2011 H 0.50786 0.34717 0.06675 0.0
C2012 C 0.53985 0.43185 0.0238 0.0
C2013 C 0.55932 0.43702 0.01705 0.0
C2014 C 0.53526 0.41495 0.03657 0.0
C2015 C 0.55001 0.40271 0.04281 0.0
C2016 C 0.56945 0.40782 0.03586 0.0
C2017 C 0.57405 0.42477 0.0232 0.0
C2018 C 0.55466 0.36282 0.0842 0.0
C2019 C 0.53621 0.35076 0.08282 0.0
C2020 C 0.55909 0.37962 0.0713 0.0
C2021 C 0.54522 0.3848 0.05658 0.0
C2022 C 0.52678 0.37273 0.05518 0.0
C2023 C 0.52232 0.35595 0.06814 0.0
H2024 H 0.66794 0.24368 0.30917 0.0
H2025 H 0.70304 0.23055 0.26198 0.0
H2026 H 0.63968 0.24704 0.28676 0.0
H2027 H 0.67433 0.23261 0.23978 0.0
H2028 H 0.62592 0.25819 0.20099 0.0
H2029 H 0.65452 0.25542 0.2233 0.0
H2030 H 0.61479 0.22867 0.26831 0.0
H2031 H 0.58621 0.23199 0.24607 0.0
C2032 C 0.66968 0.24152 0.29401 0.0
C2033 C 0.68791 0.23694 0.28744 0.0
C2034 C 0.6533 0.24314 0.28116 0.0
C2035 C 0.65459 0.24006 0.26139 0.0
C2036 C 0.67279 0.23536 0.25483 0.0
C2037 C 0.68923 0.23389 0.26766 0.0
C2038 C 0.62333 0.25163 0.21563 0.0
C2039 C 0.6038 0.24533 0.22177 0.0
C2040 C 0.63974 0.24997 0.22844 0.0
C2041 C 0.63707 0.24179 0.24769 0.0
C2042 C 0.61748 0.23539 0.25375 0.0
C2043 C 0.60106 0.23723 0.24098 0.0
H2044 H 0.45562 0.10494 0.01147 0.0
H2045 H 0.51491 0.09034 0.02706 0.0
H2046 H 0.4601 0.13143 0.03377 0.0
H2047 H 0.51943 0.1169 0.04934 0.0
H2048 H 0.5088 0.15006 0.1036 0.0
H2049 H 0.50475 0.12394 0.08088 0.0
H2050 H 0.4812 0.16451 0.03702 0.0
H2051 H 0.48519 0.1906 0.05976 0.0
C2052 C 0.46961 0.1074 0.01967 0.0
C2053 C 0.48491 0.09554 0.01752 0.0
C2054 C 0.47223 0.12265 0.03233 0.0
C2055 C 0.49011 0.12624 0.04334 0.0
C2056 C 0.50543 0.1144 0.04117 0.0
C2057 C 0.50291 0.09931 0.0283 0.0
C2058 C 0.50267 0.15336 0.08914 0.0
C2059 C 0.49731 0.1724 0.08349 0.0
C2060 C 0.50052 0.13846 0.07608 0.0
C2061 C 0.49268 0.14217 0.05714 0.0
C2062 C 0.48717 0.16116 0.05154 0.0
C2063 C 0.48959 0.17613 0.06451 0.0
H2064 H 0.22481 0.35977 0.74772 0.0
H2065 H 0.27436 0.3273 0.7388 0.0
H2066 H 0.24784 0.39002 0.75051 0.0
H2067 H 0.2973 0.35783 0.74043 0.0
H2068 H 0.3348 0.4102 0.76705 0.0
H2069 H 0.31179 0.38002 0.76343 0.0
H2070 H 0.26934 0.41494 0.73287 0.0
H2071 H 0.29227 0.44517 0.7369 0.0
C2072 C 0.24062 0.35907 0.7463 0.0
C2073 C 0.2477 0.34098 0.7432 0.0
C2074 C 0.25384 0.37653 0.74762 0.0
C2075 C 0.2745 0.37645 0.74575 0.0
C2076 C 0.28154 0.35844 0.74226 0.0
C2077 C 0.26832 0.34095 0.74104 0.0
C2078 C 0.3206 0.4114 0.75944 0.0
C2079 C 0.31537 0.43009 0.75228 0.0
C2080 C 0.3074 0.39407 0.7573 0.0
C2081 C 0.28866 0.39495 0.7478 0.0
C2082 C 0.28348 0.41367 0.74054 0.0
C2083 C 0.29664 0.43103 0.74282 0.0
H2084 H 0.2482 0.67442 0.78459 0.0
H2085 H 0.3 0.7017 0.81532 0.0
H2086 H 0.26607 0.64613 0.77924 0.0
H2087 H 0.31783 0.67348 0.81024 0.0
H2088 H 0.35107 0.63396 0.77558 0.0
H2089 H 0.33212 0.66056 0.7827 0.0
H2090 H 0.28079 0.61744 0.79548 0.0
H2091 H 0.29986 0.59068 0.78855 0.0
C2092 C 0.26331 0.67417 0.79043 0.0
C2093 C 0.27274 0.69022 0.80031 0.0
C2094 C 0.27355 0.65799 0.78742 0.0
C2095 C 0.29347 0.6576 0.79415 0.0
C2096 C 0.30263 0.67344 0.80456 0.0
C2097 C 0.29238 0.68954 0.80761 0.0
C2098 C 0.33582 0.63006 0.78011 0.0
C2099 C 0.32708 0.61009 0.78155 0.0
C2100 C 0.32493 0.64536 0.78421 0.0
C2101 C 0.30494 0.64116 0.7898 0.0
C2102 C 0.29608 0.62123 0.79104 0.0
C2103 C 0.30703 0.60588 0.78701 0.0
H2104 H 0.93992 0.53304 0.52523 0.0
H2105 H 0.93729 0.53219 0.46273 0.0
H2106 H 0.90925 0.50996 0.52725 0.0
H2107 H 0.9071 0.50842 0.46481 0.0
H2108 H 0.84202 0.48252 0.47405 0.0
H2109 H 0.87224 0.50625 0.47217 0.0
H2110 H 0.89692 0.4757 0.52311 0.0
H2111 H 0.86636 0.45253 0.5255 0.0
C2112 C 0.93279 0.52796 0.51191 0.0
C2113 C 0.94109 0.53454 0.49381 0.0
C2114 C 0.91532 0.51451 0.51308 0.0
C2115 C 0.90568 0.50727 0.4962 0.0
C2116 C 0.91398 0.51384 0.4781 0.0
C2117 C 0.93145 0.5273 0.47692 0.0
C2118 C 0.85379 0.48098 0.48498 0.0
C2119 C 0.85169 0.46559 0.49994 0.0
C2120 C 0.87125 0.49446 0.48376 0.0
C2121 C 0.88707 0.4929 0.49747 0.0
C2122 C 0.88497 0.4775 0.51242 0.0
C2123 C 0.86752 0.46404 0.51365 0.0
H2124 H 0.76862 0.83117 0.78707 0.0
H2125 H 0.77952 0.8473 0.84606 0.0
H2126 H 0.74579 0.85631 0.7814 0.0
H2127 H 0.75682 0.87256 0.84037 0.0
H2128 H 0.70014 0.90266 0.82971 0.0
H2129 H 0.72221 0.87684 0.83521 0.0
H2130 H 0.74501 0.89157 0.77762 0.0
H2131 H 0.72229 0.91673 0.77179 0.0
C2132 C 0.76629 0.84021 0.79879 0.0
C2133 C 0.77594 0.83717 0.81703 0.0
C2134 C 0.75319 0.85466 0.79554 0.0
C2135 C 0.74939 0.86655 0.81041 0.0
C2136 C 0.75907 0.8635 0.82865 0.0
C2137 C 0.77213 0.84901 0.83192 0.0
C2138 C 0.70966 0.90024 0.81811 0.0
C2139 C 0.70935 0.91185 0.80028 0.0
C2140 C 0.72255 0.88557 0.82136 0.0
C2141 C 0.73551 0.88208 0.8069 0.0
C2142 C 0.73513 0.89364 0.78905 0.0
C2143 C 0.72224 0.90829 0.78579 0.0
H2144 H 0.61473 0.50216 0.96808 0.0
H2145 H 0.601 0.4992 0.02882 0.0
H2146 H 0.64491 0.52503 0.97421 0.0
H2147 H 0.63126 0.52183 0.03498 0.0
H2148 H 0.67397 0.58056 0.03296 0.0
H2149 H 0.64404 0.55752 0.02669 0.0
H2150 H 0.6781 0.52466 0.99193 0.0
H2151 H 0.70802 0.54789 0.99801 0.0
C2152 C 0.61815 0.50642 0.98272 0.0
C2153 C 0.6055 0.49887 0.99797 0.0
C2154 C 0.63551 0.51937 0.98626 0.0
C2155 C 0.64046 0.52523 0.00508 0.0
C2156 C 0.62777 0.51772 0.0203 0.0
C2157 C 0.61054 0.50462 0.0168 0.0
C2158 C 0.67504 0.56848 0.0239 0.0
C2159 C 0.69335 0.56605 0.01597 0.0
C2160 C 0.65794 0.55518 0.02045 0.0
C2161 C 0.65871 0.53926 0.00882 0.0
C2162 C 0.677 0.53687 1.00083 0.0
C2163 C 0.69416 0.55005 1.00445 0.0
H2164 H 0.25747 0.69487 0.23838 0.0
H2165 H 0.30684 0.6637 0.26004 0.0
H2166 H 0.23472 0.66433 0.24362 0.0
H2167 H 0.2839 0.63345 0.26641 0.0
H2168 H 0.24083 0.57749 0.25636 0.0
H2169 H 0.26384 0.60791 0.25059 0.0
H2170 H 0.21907 0.64238 0.26847 0.0
H2171 H 0.19599 0.61199 0.27376 0.0
C2172 C 0.2635 0.68152 0.24426 0.0
C2173 C 0.28406 0.68182 0.24873 0.0
C2174 C 0.25038 0.66402 0.24754 0.0
C2175 C 0.2574 0.64635 0.2555 0.0
C2176 C 0.27794 0.64667 0.26004 0.0
C2177 C 0.29109 0.66414 0.25664 0.0
C2178 C 0.23597 0.59157 0.25915 0.0
C2179 C 0.21657 0.59233 0.26546 0.0
C2180 C 0.24918 0.60903 0.25589 0.0
C2181 C 0.24336 0.62769 0.25903 0.0
C2182 C 0.22398 0.62837 0.26552 0.0
C2183 C 0.21074 0.61093 0.26861 0.0
H2184 H 0.92261 0.48376 0.06808 0.0
H2185 H 0.96767 0.53387 0.07466 0.0
H2186 H 0.89702 0.50615 0.06334 0.0
H2187 H 0.94236 0.55654 0.06891 0.0
H2188 H 0.89021 0.59168 0.07559 0.0
H2189 H 0.91568 0.56918 0.08136 0.0
H2190 H 0.88335 0.52917 0.04218 0.0
H2191 H 0.85752 0.55125 0.03735 0.0
C2192 C 0.92705 0.49964 0.06826 0.0
C2193 C 0.94713 0.50706 0.07175 0.0
C2194 C 0.91238 0.51256 0.06542 0.0
C2195 C 0.91745 0.53334 0.06562 0.0
C2196 C 0.93766 0.5407 0.069 0.0
C2197 C 0.95226 0.52772 0.07219 0.0
C2198 C 0.88862 0.57805 0.06824 0.0
C2199 C 0.87183 0.57318 0.0561 0.0
C2200 C 0.90329 0.56515 0.07144 0.0
C2201 C 0.90175 0.54718 0.06228 0.0
C2202 C 0.88499 0.54254 0.0499 0.0
C2203 C 0.87017 0.55527 0.04701 0.0
H2204 H 0.08 1.00284 0.01572 0.0
H2205 H 0.10313 0.00998 0.07416 0.0
H2206 H 0.10776 0.98467 0.00935 0.0
H2207 H 0.13096 0.99166 0.06788 0.0
H2208 H 0.18827 0.97501 0.04206 0.0
H2209 H 0.16134 0.99421 0.0484 0.0
H2210 H 0.11913 0.95234 0.01949 0.0
H2211 H 0.14593 0.93294 0.01341 0.0
C2212 C 0.09118 1.00071 0.02713 0.0
C2213 C 0.08963 0.00817 0.04531 0.0
C2214 C 0.10698 0.99014 0.02355 0.0
C2215 C 0.1216 0.98669 0.0381 0.0
C2216 C 0.12012 0.99428 0.05627 0.0
C2217 C 0.10421 0.00477 0.05988 0.0
C2218 C 0.17322 0.96973 0.03723 0.0
C2219 C 0.16935 0.95236 0.02719 0.0
C2220 C 0.15778 0.9808 0.04085 0.0
C2221 C 0.13807 0.97487 0.03441 0.0
C2222 C 0.13419 0.95752 0.02438 0.0
C2223 C 0.14959 0.9464 0.02086 0.0
loop_
_geom_bond_atom_site_label_1
_geom_bond_atom_site_label_2
_geom_bond_distance
_geom_bond_site_symmetry_2
_ccdc_geom_bond_type
H0 C7 0.929 1_655 S
H1 C10 0.930 . S
H2 C12 0.929 . S
H3 C4 0.969 . S
C4 H3 0.969 . S
C4 O5 1.550 1_565 S
C4 H6 0.973 . S
O5 C4 1.550 1_545 S
O5 C11 1.412 . S
H6 C4 0.973 . S
C7 H0 0.929 1_455 S
C7 C8 1.400 . S
C7 C9 1.364 . S
C8 C7 1.400 . S
C8 C12 1.377 . S
C9 C7 1.364 . S
C9 C10 1.374 . S
C10 H1 0.930 . S
C10 C9 1.374 . S
C10 C11 1.383 . S
C11 O5 1.412 . S
C11 C10 1.383 . S
C11 C12 1.394 . S
C12 H2 0.929 . S
C12 C8 1.377 . S
C12 C11 1.394 . S
H13 C20 0.929 . S
H14 C23 0.930 . S
H15 C25 0.929 . S
H16 C17 0.969 . S
C17 H16 0.969 . S
C17 O18 1.550 . S
C17 H19 0.973 . S
O18 C17 1.550 . S
O18 C24 1.412 . S
H19 C17 0.973 . S
C20 H13 0.929 . S
C20 C21 1.400 . S
C20 C22 1.364 . S
C21 C20 1.400 . S
C21 C25 1.377 . S
C22 C20 1.364 . S
C22 C23 1.374 . S
C23 H14 0.930 . S
C23 C22 1.374 . S
C23 C24 1.383 . S
C24 O18 1.412 . S
C24 C23 1.383 . S
C24 C25 1.394 . S
C25 H15 0.929 . S
C25 C21 1.377 . S
C25 C24 1.394 . S
H26 C33 0.929 . S
H27 C36 0.930 . S
H28 C38 0.929 1_455 S
H29 C30 0.969 . S
C30 H29 0.969 . S
C30 O31 1.550 . S
C30 H32 0.973 . S
O31 C30 1.550 . S
O31 C37 1.412 . S
H32 C30 0.973 . S
C33 H26 0.929 . S
C33 C34 1.400 . S
C33 C35 1.364 . S
C34 C33 1.400 . S
C34 C38 1.377 . S
C35 C33 1.364 . S
C35 C36 1.374 . S
C36 H27 0.930 . S
C36 C35 1.374 . S
C36 C37 1.383 . S
C37 O31 1.412 . S
C37 C36 1.383 . S
C37 C38 1.394 . S
C38 H28 0.929 1_655 S
C38 C34 1.377 . S
C38 C37 1.394 . S
H39 C46 0.929 . S
H40 C49 0.930 . S
H41 C51 0.929 . S
H42 C43 0.969 . S
C43 H42 0.969 . S
C43 O44 1.550 . S
C43 H45 0.973 . S
O44 C43 1.550 . S
O44 C50 1.412 . S
H45 C43 0.973 . S
C46 H39 0.929 . S
C46 C47 1.400 . S
C46 C48 1.364 . S
C47 C46 1.400 . S
C47 C51 1.377 . S
C48 C46 1.364 . S
C48 C49 1.374 . S
C49 H40 0.930 . S
C49 C48 1.374 . S
C49 C50 1.383 . S
C50 O44 1.412 . S
C50 C49 1.383 . S
C50 C51 1.394 . S
C51 H41 0.929 . S
C51 C47 1.377 . S
C51 C50 1.394 . S
H52 C59 0.929 . S
H53 C62 0.930 . S
H54 C64 0.929 1_545 S
H55 C56 1.002 . S
C56 H55 1.002 . S
C56 O57 1.550 . S
C56 H58 0.973 . S
O57 C56 1.550 . S
O57 C63 1.412 . S
H58 C56 0.973 . S
C59 H52 0.929 . S
C59 C60 1.400 . S
C59 C61 1.364 . S
C60 C59 1.400 . S
C60 C64 1.377 . S
C61 C59 1.364 . S
C61 C62 1.374 . S
C62 H53 0.930 . S
C62 C61 1.374 . S
C62 C63 1.383 . S
C63 O57 1.412 . S
C63 C62 1.383 . S
C63 C64 1.394 . S
C64 H54 0.929 1_565 S
C64 C60 1.377 . S
C64 C63 1.394 . S
H65 C72 0.929 . S
H66 C75 0.930 . S
H67 C77 0.929 . S
H68 C69 0.969 . S
C69 H68 0.969 . S
C69 O70 1.550 . S
C69 H71 0.973 . S
O70 C69 1.550 . S
O70 C76 1.412 . S
H71 C69 0.973 . S
C72 H65 0.929 . S
C72 C73 1.400 . S
C72 C74 1.364 . S
C73 C72 1.400 . S
C73 C77 1.377 . S
C74 C72 1.364 . S
C74 C75 1.374 . S
C75 H66 0.930 . S
C75 C74 1.374 . S
C75 C76 1.383 . S
C76 O70 1.412 . S
C76 C75 1.383 . S
C76 C77 1.394 . S
C77 H67 0.929 . S
C77 C73 1.377 . S
C77 C76 1.394 . S
H78 C85 0.929 . S
H79 C88 0.930 . S
H80 C90 0.937 . S
H81 C82 0.969 . S
C82 H81 0.969 . S
C82 O83 1.550 . S
C82 H84 0.973 . S
O83 C82 1.550 . S
O83 C89 1.412 1_455 S
H84 C82 0.973 . S
C85 H78 0.929 . S
C85 C86 1.400 . S
C85 C87 1.364 . S
C86 C85 1.400 . S
C86 C90 1.369 1_655 S
C87 C85 1.364 . S
C87 C88 1.374 . S
C88 H79 0.930 . S
C88 C87 1.374 . S
C88 C89 1.383 . S
C89 O83 1.412 1_655 S
C89 C88 1.383 . S
C89 C90 1.394 1_655 S
C90 H80 0.937 . S
C90 C86 1.369 1_455 S
C90 C89 1.394 1_455 S
H91 C98 0.929 . S
H92 C101 0.930 . S
H93 C103 0.929 . S
H94 C95 0.969 . S
C95 H94 0.969 . S
C95 O96 1.550 . S
C95 H97 0.973 . S
O96 C95 1.550 . S
O96 C102 1.412 . S
H97 C95 0.973 . S
C98 H91 0.929 . S
C98 C99 1.400 . S
C98 C100 1.364 . S
C99 C98 1.400 . S
C99 C103 1.377 . S
C100 C98 1.364 . S
C100 C101 1.374 . S
C101 H92 0.930 . S
C101 C100 1.374 . S
C101 C102 1.383 . S
C102 O96 1.412 . S
C102 C101 1.383 . S
C102 C103 1.394 . S
C103 H93 0.929 . S
C103 C99 1.377 . S
C103 C102 1.394 . S
H104 C111 0.929 . S
H105 C114 0.930 . S
H106 C116 0.929 . S
H107 C108 0.969 . S
C108 H107 0.969 . S
C108 O109 1.550 . S
C108 H110 0.973 . S
O109 C108 1.550 . S
O109 C115 1.412 . S
H110 C108 0.973 . S
C111 H104 0.929 . S
C111 C112 1.400 . S
C111 C113 1.364 . S
C112 C111 1.400 . S
C112 C116 1.377 . S
C113 C111 1.364 . S
C113 C114 1.374 . S
C114 H105 0.930 . S
C114 C113 1.374 . S
C114 C115 1.383 . S
C115 O109 1.412 . S
C115 C114 1.383 . S
C115 C116 1.394 . S
C116 H106 0.929 . S
C116 C112 1.377 . S
C116 C115 1.394 . S
H117 C124 0.929 . S
H118 C127 0.930 . S
H119 C129 0.929 . S
H120 C121 0.969 . S
C121 H120 0.969 . S
C121 O122 1.550 . S
C121 H123 0.973 . S
O122 C121 1.550 . S
O122 C128 1.412 . S
H123 C121 0.973 . S
C124 H117 0.929 . S
C124 C125 1.400 . S
C124 C126 1.364 . S
C125 C124 1.400 . S
C125 C129 1.377 . S
C126 C124 1.364 . S
C126 C127 1.374 . S
C127 H118 0.930 . S
C127 C126 1.374 . S
C127 C128 1.383 . S
C128 O122 1.412 . S
C128 C127 1.383 . S
C128 C129 1.394 . S
C129 H119 0.929 . S
C129 C125 1.377 . S
C129 C128 1.394 . S
H130 C137 0.929 . S
H131 C140 0.930 . S
H132 C142 0.929 . S
H133 C134 0.969 . S
C134 H133 0.969 . S
C134 O135 1.550 . S
C134 H136 0.973 . S
O135 C134 1.550 . S
O135 C141 1.412 . S
H136 C134 0.973 . S
C137 H130 0.929 . S
C137 C138 1.400 . S
C137 C139 1.364 . S
C138 C137 1.400 . S
C138 C142 1.377 . S
C139 C137 1.364 . S
C139 C140 1.374 . S
C140 H131 0.930 . S
C140 C139 1.374 . S
C140 C141 1.383 . S
C141 O135 1.412 . S
C141 C140 1.383 . S
C141 C142 1.394 . S
C142 H132 0.929 . S
C142 C138 1.377 . S
C142 C141 1.394 . S
H143 C150 0.929 . S
H144 C153 0.930 . S
H145 C155 0.929 . S
H146 C147 0.969 . S
C147 H146 0.969 . S
C147 O148 1.550 . S
C147 H149 0.973 . S
O148 C147 1.550 . S
O148 C154 1.412 . S
H149 C147 0.973 . S
C150 H143 0.929 . S
C150 C151 1.400 . S
C150 C152 1.364 . S
C151 C150 1.400 . S
C151 C155 1.377 . S
C152 C150 1.364 . S
C152 C153 1.374 . S
C153 H144 0.930 . S
C153 C152 1.374 . S
C153 C154 1.383 . S
C154 O148 1.412 . S
C154 C153 1.383 . S
C154 C155 1.394 . S
C155 H145 0.929 . S
C155 C151 1.377 . S
C155 C154 1.394 . S
H156 C163 0.929 . S
H157 C166 0.930 . S
H158 C168 0.929 . S
H159 C160 0.969 . S
C160 H159 0.969 . S
C160 O161 1.550 . S
C160 H162 0.973 . S
O161 C160 1.550 . S
O161 C167 1.412 . S
H162 C160 0.973 . S
C163 H156 0.929 . S
C163 C164 1.400 . S
C163 C165 1.364 . S
C164 C163 1.400 . S
C164 C168 1.377 . S
C165 C163 1.364 . S
C165 C166 1.374 . S
C166 H157 0.930 . S
C166 C165 1.374 . S
C166 C167 1.383 . S
C167 O161 1.412 . S
C167 C166 1.383 . S
C167 C168 1.394 . S
C168 H158 0.929 . S
C168 C164 1.377 . S
C168 C167 1.394 . S
H169 C176 0.929 1_554 S
H170 C179 0.930 . S
H171 C181 0.929 . S
H172 C173 0.969 . S
C173 H172 0.969 . S
C173 O174 1.550 . S
C173 H175 0.973 . S
O174 C173 1.550 . S
O174 C180 1.412 . S
H175 C173 0.973 . S
C176 H169 0.929 1_556 S
C176 C177 1.400 . S
C176 C178 1.364 . S
C177 C176 1.400 . S
C177 C181 1.377 . S
C178 C176 1.364 . S
C178 C179 1.374 . S
C179 H170 0.930 . S
C179 C178 1.374 . S
C179 C180 1.383 . S
C180 O174 1.412 . S
C180 C179 1.383 . S
C180 C181 1.394 . S
C181 H171 0.929 . S
C181 C177 1.377 . S
C181 C180 1.394 . S
H182 C189 0.929 . S
H183 C192 0.930 . S
H184 C194 0.929 . S
H185 C186 0.969 . S
C186 H185 0.969 . S
C186 O187 1.550 . S
C186 H188 0.973 . S
O187 C186 1.550 . S
O187 C193 1.412 . S
H188 C186 0.973 . S
C189 H182 0.929 . S
C189 C190 1.400 . S
C189 C191 1.364 . S
C190 C189 1.400 . S
C190 C194 1.377 . S
C191 C189 1.364 . S
C191 C192 1.374 . S
C192 H183 0.930 . S
C192 C191 1.374 . S
C192 C193 1.383 . S
C193 O187 1.412 . S
C193 C192 1.383 . S
C193 C194 1.394 . S
C194 H184 0.929 . S
C194 C190 1.377 . S
C194 C193 1.394 . S
H195 C202 0.929 . S
H196 C205 0.930 . S
H197 C207 0.929 . S
H198 C199 0.969 . S
C199 H198 0.969 . S
C199 O200 1.550 . S
C199 H201 0.973 . S
O200 C199 1.550 . S
O200 C206 1.412 . S
H201 C199 0.973 . S
C202 H195 0.929 . S
C202 C203 1.400 . S
C202 C204 1.392 . S
C203 C202 1.400 . S
C203 C207 1.393 . S
C204 C202 1.392 . S
C204 C205 1.348 1_554 S
C205 H196 0.930 . S
C205 C204 1.348 1_556 S
C205 C206 1.383 . S
C206 O200 1.412 . S
C206 C205 1.383 . S
C206 C207 1.378 1_556 S
C207 H197 0.929 . S
C207 C203 1.393 . S
C207 C206 1.378 1_554 S
Li208 N225 1.990 . S
Li208 O268 1.956 . S
Li208 O269 1.970 1_556 S
Li208 O270 1.961 . S
Li209 N233 1.990 . S
Li209 O268 1.964 1_554 S
Li209 O269 1.956 . S
Li209 O271 1.961 . S
Li210 N255 1.990 . S
Li210 O268 1.966 . S
Li210 O270 1.956 . S
Li210 O271 1.970 1_556 S
Li211 N261 1.990 . S
Li211 O269 1.961 . S
Li211 O270 1.970 1_554 S
Li211 O271 1.956 . S
C212 C214 1.348 1_556 S
C212 C215 1.356 . S
C212 O268 1.326 . S
N213 C216 1.314 1_556 S
N213 C217 1.279 . S
C214 C212 1.348 1_554 S
C214 C216 1.353 . S
C214 H272 0.929 . S
C215 C212 1.356 . S
C215 C217 1.358 . S
C215 H273 0.930 . S
C216 N213 1.314 1_554 S
C216 C214 1.353 . S
C216 H274 0.930 . S
C217 N213 1.279 . S
C217 C215 1.358 . S
C217 H275 0.930 . S
C218 C221 1.348 . S
C218 C222 1.356 . S
C218 O269 1.325 . S
C219 N220 1.279 . S
C219 C222 1.358 . S
C219 H276 0.930 . S
N220 C219 1.279 . S
N220 C223 1.314 . S
C221 C218 1.348 . S
C221 C223 1.353 . S
C221 H277 0.929 . S
C222 C218 1.356 . S
C222 C219 1.358 . S
C222 H278 0.930 . S
C223 N220 1.314 . S
C223 C221 1.353 . S
C223 H279 0.930 . S
C224 N225 1.314 . S
C224 C229 1.353 . S
C224 H230 0.930 . S
N225 Li208 1.990 . S
N225 C224 1.314 . S
N225 C227 1.279 . S
C226 C227 1.358 . S
C226 C228 1.356 . S
C226 H280 0.932 . S
C227 N225 1.279 . S
C227 C226 1.358 . S
C227 H231 0.930 1_556 S
C228 C226 1.356 . S
C228 C229 1.348 . S
C229 C224 1.353 . S
C229 C228 1.348 . S
C229 H281 0.929 . S
H230 C224 0.930 . S
H231 C227 0.930 1_554 S
C232 N233 1.314 . S
C232 C234 1.353 . S
C232 H238 0.930 . S
N233 Li209 1.990 . S
N233 C232 1.314 . S
N233 C236 1.279 . S
C234 C232 1.353 . S
C234 C237 1.348 . S
C234 H282 0.929 . S
C235 C236 1.358 . S
C235 C237 1.356 . S
C235 H283 0.930 . S
C236 N233 1.279 . S
C236 C235 1.358 . S
C236 H239 0.930 . S
C237 C234 1.348 . S
C237 C235 1.356 . S
H238 C232 0.930 . S
H239 C236 0.930 . S
C240 C242 1.348 . S
C240 C243 1.356 . S
C240 O270 1.325 . S
N241 C244 1.314 . S
N241 C245 1.279 . S
C242 C240 1.348 . S
C242 C244 1.353 . S
C242 H284 0.929 . S
C243 C240 1.356 . S
C243 C245 1.358 . S
C243 H285 0.930 . S
C244 N241 1.314 . S
C244 C242 1.353 . S
C244 H286 0.930 . S
C245 N241 1.279 . S
C245 C243 1.358 . S
C245 H287 0.930 . S
C246 C247 1.348 1_554 S
C246 C248 1.356 . S
C246 O271 1.325 . S
C247 C246 1.348 1_556 S
C247 C249 1.353 . S
C247 H288 0.929 . S
C248 C246 1.356 . S
C248 C250 1.358 . S
C248 H289 0.930 . S
C249 C247 1.353 . S
C249 N251 1.314 1_556 S
C249 H290 0.930 . S
C250 C248 1.358 . S
C250 N251 1.279 . S
C250 H291 0.930 . S
N251 C249 1.314 1_554 S
N251 C250 1.279 . S
C252 C254 1.353 . S
C252 N255 1.314 . S
C252 H258 0.930 . S
C253 N255 1.279 . S
C253 C256 1.358 . S
C253 H259 0.930 . S
C254 C252 1.353 . S
C254 C257 1.348 . S
C254 H292 0.929 . S
N255 Li210 1.990 . S
N255 C252 1.314 . S
N255 C253 1.279 . S
C256 C253 1.358 . S
C256 C257 1.356 . S
C256 H293 0.930 . S
C257 C254 1.348 . S
C257 C256 1.356 . S
H258 C252 0.930 . S
H259 C253 0.930 . S
C260 N261 1.314 . S
C260 C262 1.353 . S
C260 H266 0.930 . S
N261 Li211 1.990 . S
N261 C260 1.314 . S
N261 C264 1.279 . S
C262 C260 1.353 . S
C262 C265 1.348 . S
C262 H294 0.929 . S
C263 C264 1.358 . S
C263 C265 1.356 . S
C263 H295 0.934 . S
C264 N261 1.279 . S
C264 C263 1.358 . S
C264 H267 0.916 1_554 S
C265 C262 1.348 . S
C265 C263 1.356 . S
H266 C260 0.930 . S
H267 C264 0.916 1_556 S
O268 Li208 1.956 . S
O268 Li209 1.964 1_556 S
O268 Li210 1.966 . S
O268 C212 1.326 . S
O269 Li208 1.970 1_554 S
O269 Li209 1.956 . S
O269 Li211 1.961 . S
O269 C218 1.325 . S
O270 Li208 1.961 . S
O270 Li210 1.956 . S
O270 Li211 1.970 1_556 S
O270 C240 1.325 . S
O271 Li209 1.961 . S
O271 Li210 1.970 1_554 S
O271 Li211 1.956 . S
O271 C246 1.325 . S
H272 C214 0.929 . S
H273 C215 0.930 . S
H274 C216 0.930 . S
H275 C217 0.930 . S
H276 C219 0.930 . S
H277 C221 0.929 . S
H278 C222 0.930 . S
H279 C223 0.930 . S
H280 C226 0.932 . S
H281 C229 0.929 . S
H282 C234 0.929 . S
H283 C235 0.930 . S
H284 C242 0.929 . S
H285 C243 0.930 . S
H286 C244 0.930 . S
H287 C245 0.930 . S
H288 C247 0.929 . S
H289 C248 0.930 . S
H290 C249 0.930 . S
H291 C250 0.930 . S
H292 C254 0.929 . S
H293 C256 0.930 . S
H294 C262 0.929 . S
H295 C263 0.934 . S
Li296 N313 1.990 . S
Li296 O356 1.956 . S
Li296 O357 1.970 . S
Li296 O358 1.961 . S
Li297 N321 1.990 . S
Li297 O356 1.970 . S
Li297 O357 1.956 . S
Li297 O359 1.961 . S
Li298 N343 1.990 . S
Li298 O356 1.961 . S
Li298 O358 1.956 . S
Li298 O359 1.970 . S
Li299 N349 1.990 . S
Li299 O357 1.961 . S
Li299 O358 1.970 . S
Li299 O359 1.956 . S
C300 C302 1.348 . S
C300 C303 1.356 . S
C300 O356 1.325 . S
N301 C304 1.314 . S
N301 C305 1.279 . S
C302 C300 1.348 . S
C302 C304 1.353 . S
C302 H360 0.929 . S
C303 C300 1.356 . S
C303 C305 1.358 . S
C303 H361 0.930 . S
C304 N301 1.314 . S
C304 C302 1.353 . S
C304 H362 0.930 . S
C305 N301 1.279 . S
C305 C303 1.358 . S
C305 H363 0.930 . S
C306 C309 1.348 . S
C306 C310 1.356 . S
C306 O357 1.325 . S
C307 N308 1.279 . S
C307 C310 1.358 . S
C307 H364 0.930 . S
N308 C307 1.279 . S
N308 C311 1.314 . S
C309 C306 1.348 . S
C309 C311 1.353 . S
C309 H365 0.929 . S
C310 C306 1.356 . S
C310 C307 1.358 . S
C310 H366 0.930 . S
C311 N308 1.314 . S
C311 C309 1.353 . S
C311 H367 0.930 . S
C312 N313 1.314 . S
C312 C317 1.353 . S
C312 H318 0.930 . S
N313 Li296 1.990 . S
N313 C312 1.314 . S
N313 C315 1.279 . S
C314 C315 1.358 . S
C314 C316 1.356 . S
C314 H368 0.930 . S
C315 N313 1.279 . S
C315 C314 1.358 . S
C315 H319 0.930 . S
C316 C314 1.356 . S
C316 C317 1.348 . S
C317 C312 1.353 . S
C317 C316 1.348 . S
C317 H369 0.929 . S
H318 C312 0.930 . S
H319 C315 0.930 . S
C320 N321 1.314 . S
C320 C322 1.353 . S
C320 H326 0.930 . S
N321 Li297 1.990 . S
N321 C320 1.314 . S
N321 C324 1.279 . S
C322 C320 1.353 . S
C322 C325 1.348 . S
C322 H370 0.929 . S
C323 C324 1.358 . S
C323 C325 1.356 . S
C323 H371 0.930 . S
C324 N321 1.279 . S
C324 C323 1.358 . S
C324 H327 0.930 . S
C325 C322 1.348 . S
C325 C323 1.356 . S
H326 C320 0.930 . S
H327 C324 0.930 . S
C328 C330 1.348 . S
C328 C331 1.356 . S
C328 O358 1.325 . S
N329 C332 1.314 . S
N329 C333 1.279 . S
C330 C328 1.348 . S
C330 C332 1.353 . S
C330 H372 0.929 . S
C331 C328 1.356 . S
C331 C333 1.358 . S
C331 H373 0.930 . S
C332 N329 1.314 . S
C332 C330 1.353 . S
C332 H374 0.930 . S
C333 N329 1.279 . S
C333 C331 1.358 . S
C333 H375 0.930 . S
C334 C335 1.348 . S
C334 C336 1.356 . S
C334 O359 1.325 . S
C335 C334 1.348 . S
C335 C337 1.353 . S
C335 H376 0.929 . S
C336 C334 1.356 . S
C336 C338 1.358 . S
C336 H377 0.930 . S
C337 C335 1.353 . S
C337 N339 1.314 . S
C337 H378 0.930 . S
C338 C336 1.358 . S
C338 N339 1.279 . S
C338 H379 0.930 . S
N339 C337 1.314 . S
N339 C338 1.279 . S
C340 C342 1.353 . S
C340 N343 1.314 . S
C340 H346 0.930 . S
C341 N343 1.279 . S
C341 C344 1.358 . S
C341 H347 0.930 . S
C342 C340 1.353 . S
C342 C345 1.348 . S
C342 H380 0.929 . S
N343 Li298 1.990 . S
N343 C340 1.314 . S
N343 C341 1.279 . S
C344 C341 1.358 . S
C344 C345 1.356 . S
C344 H381 0.930 . S
C345 C342 1.348 . S
C345 C344 1.356 . S
H346 C340 0.930 . S
H347 C341 0.930 . S
C348 N349 1.314 . S
C348 C350 1.353 . S
C348 H354 0.930 . S
N349 Li299 1.990 . S
N349 C348 1.314 . S
N349 C352 1.279 . S
C350 C348 1.353 . S
C350 C353 1.348 . S
C350 H382 0.929 . S
C351 C352 1.358 . S
C351 C353 1.356 . S
C351 H383 0.930 . S
C352 N349 1.279 . S
C352 C351 1.358 . S
C352 H355 0.930 . S
C353 C350 1.348 . S
C353 C351 1.356 . S
H354 C348 0.930 . S
H355 C352 0.930 . S
O356 Li296 1.956 . S
O356 Li297 1.970 . S
O356 Li298 1.961 . S
O356 C300 1.325 . S
O357 Li296 1.970 . S
O357 Li297 1.956 . S
O357 Li299 1.961 . S
O357 C306 1.325 . S
O358 Li296 1.961 . S
O358 Li298 1.956 . S
O358 Li299 1.970 . S
O358 C328 1.325 . S
O359 Li297 1.961 . S
O359 Li298 1.970 . S
O359 Li299 1.956 . S
O359 C334 1.325 . S
H360 C302 0.929 . S
H361 C303 0.930 . S
H362 C304 0.930 . S
H363 C305 0.930 . S
H364 C307 0.930 . S
H365 C309 0.929 . S
H366 C310 0.930 . S
H367 C311 0.930 . S
H368 C314 0.930 . S
H369 C317 0.929 . S
H370 C322 0.929 . S
H371 C323 0.930 . S
H372 C330 0.929 . S
H373 C331 0.930 . S
H374 C332 0.930 . S
H375 C333 0.930 . S
H376 C335 0.929 . S
H377 C336 0.930 . S
H378 C337 0.930 . S
H379 C338 0.930 . S
H380 C342 0.929 . S
H381 C344 0.930 . S
H382 C350 0.929 . S
H383 C351 0.930 . S
Li384 N401 1.990 . S
Li384 O444 1.956 . S
Li384 O445 1.970 . S
Li384 O446 1.961 . S
Li385 N409 1.990 . S
Li385 O444 1.970 . S
Li385 O445 1.956 . S
Li385 O447 1.961 . S
Li386 N431 1.968 1_554 S
Li386 O444 1.961 . S
Li386 O446 1.956 . S
Li386 O447 1.970 . S
Li387 N437 1.990 . S
Li387 O445 1.961 . S
Li387 O446 1.970 . S
Li387 O447 1.956 . S
C388 C390 1.348 . S
C388 C391 1.356 . S
C388 O444 1.325 . S
N389 C392 1.314 . S
N389 C393 1.279 . S
C390 C388 1.348 . S
C390 C392 1.353 . S
C390 H448 0.929 . S
C391 C388 1.356 . S
C391 C393 1.358 . S
C391 H449 0.930 . S
C392 N389 1.314 . S
C392 C390 1.353 . S
C392 H450 0.930 . S
C393 N389 1.279 . S
C393 C391 1.358 . S
C393 H451 0.904 1_554 S
C394 C397 1.348 . S
C394 C398 1.356 . S
C394 O445 1.325 . S
C395 N396 1.279 . S
C395 C398 1.358 . S
C395 H452 0.930 . S
N396 C395 1.279 . S
N396 C399 1.314 . S
C397 C394 1.348 . S
C397 C399 1.353 . S
C397 H453 0.929 . S
C398 C394 1.356 . S
C398 C395 1.358 . S
C398 H454 0.930 . S
C399 N396 1.314 . S
C399 C397 1.353 . S
C399 H455 0.930 . S
C400 N401 1.314 . S
C400 C405 1.353 . S
C400 H406 0.930 . S
N401 Li384 1.990 . S
N401 C400 1.314 . S
N401 C403 1.279 . S
C402 C403 1.358 . S
C402 C404 1.356 . S
C402 H456 0.930 . S
C403 N401 1.279 . S
C403 C402 1.358 . S
C403 H407 0.930 . S
C404 C402 1.356 . S
C404 C405 1.348 . S
C405 C400 1.353 . S
C405 C404 1.348 . S
C405 H457 0.929 . S
H406 C400 0.930 . S
H407 C403 0.930 . S
C408 N409 1.314 . S
C408 C410 1.353 . S
C408 H414 0.930 . S
N409 Li385 1.990 . S
N409 C408 1.314 . S
N409 C412 1.279 . S
C410 C408 1.353 . S
C410 C413 1.348 . S
C410 H458 0.929 . S
C411 C412 1.358 . S
C411 C413 1.356 . S
C411 H459 0.930 . S
C412 N409 1.279 . S
C412 C411 1.358 . S
C412 H415 0.930 . S
C413 C410 1.348 . S
C413 C411 1.356 . S
H414 C408 0.930 . S
H415 C412 0.930 . S
C416 C418 1.348 . S
C416 C419 1.356 1_554 S
C416 O446 1.325 . S
N417 C420 1.314 . S
N417 C421 1.279 . S
C418 C416 1.348 . S
C418 C420 1.353 1_554 S
C418 H460 0.929 . S
C419 C416 1.356 1_556 S
C419 C421 1.358 . S
C419 H461 0.930 . S
C420 N417 1.314 . S
C420 C418 1.353 1_556 S
C420 H462 0.930 . S
C421 N417 1.279 . S
C421 C419 1.358 . S
C421 H463 0.930 . S
C422 C423 1.348 . S
C422 C424 1.356 . S
C422 O447 1.325 . S
C423 C422 1.348 . S
C423 C425 1.353 . S
C423 H464 0.929 . S
C424 C422 1.356 . S
C424 C426 1.358 . S
C424 H465 0.930 . S
C425 C423 1.353 . S
C425 N427 1.314 . S
C425 H466 0.930 . S
C426 C424 1.358 . S
C426 N427 1.279 . S
C426 H467 0.930 . S
N427 C425 1.314 . S
N427 C426 1.279 . S
C428 C430 1.353 . S
C428 N431 1.313 . S
C428 H434 0.930 1_556 S
C429 N431 1.304 . S
C429 C432 1.358 . S
C429 H435 0.930 . S
C430 C428 1.353 . S
C430 C433 1.348 . S
C430 H468 0.929 . S
N431 Li386 1.968 1_556 S
N431 C428 1.313 . S
N431 C429 1.304 . S
C432 C429 1.358 . S
C432 C433 1.356 . S
C432 H469 0.930 . S
C433 C430 1.348 . S
C433 C432 1.356 . S
H434 C428 0.930 1_554 S
H435 C429 0.930 . S
C436 N437 1.314 . S
C436 C438 1.353 . S
C436 H442 0.930 . S
N437 Li387 1.990 . S
N437 C436 1.314 . S
N437 C440 1.279 . S
C438 C436 1.353 . S
C438 C441 1.348 . S
C438 H470 0.929 . S
C439 C440 1.358 . S
C439 C441 1.356 . S
C439 H471 0.930 . S
C440 N437 1.279 . S
C440 C439 1.358 . S
C440 H443 0.930 . S
C441 C438 1.348 . S
C441 C439 1.356 . S
H442 C436 0.930 . S
H443 C440 0.930 . S
O444 Li384 1.956 . S
O444 Li385 1.970 . S
O444 Li386 1.961 . S
O444 C388 1.325 . S
O445 Li384 1.970 . S
O445 Li385 1.956 . S
O445 Li387 1.961 . S
O445 C394 1.325 . S
O446 Li384 1.961 . S
O446 Li386 1.956 . S
O446 Li387 1.970 . S
O446 C416 1.325 . S
O447 Li385 1.961 . S
O447 Li386 1.970 . S
O447 Li387 1.956 . S
O447 C422 1.325 . S
H448 C390 0.929 . S
H449 C391 0.930 . S
H450 C392 0.930 . S
H451 C393 0.904 1_556 S
H452 C395 0.930 . S
H453 C397 0.929 . S
H454 C398 0.930 . S
H455 C399 0.930 . S
H456 C402 0.930 . S
H457 C405 0.929 . S
H458 C410 0.929 . S
H459 C411 0.930 . S
H460 C418 0.929 . S
H461 C419 0.930 . S
H462 C420 0.930 . S
H463 C421 0.930 . S
H464 C423 0.929 . S
H465 C424 0.930 . S
H466 C425 0.930 . S
H467 C426 0.930 . S
H468 C430 0.929 . S
H469 C432 0.930 . S
H470 C438 0.929 . S
H471 C439 0.930 . S
Li472 N489 1.990 . S
Li472 O532 1.956 . S
Li472 O533 1.970 . S
Li472 O534 1.961 . S
Li473 N497 1.990 . S
Li473 O532 1.970 . S
Li473 O533 1.956 . S
Li473 O535 1.961 1_545 S
Li474 N519 1.990 . S
Li474 O532 1.961 . S
Li474 O534 1.956 . S
Li474 O535 1.970 1_545 S
Li475 N525 1.990 . S
Li475 O533 1.961 1_565 S
Li475 O534 1.970 1_565 S
Li475 O535 1.956 . S
C476 C478 1.348 . S
C476 C479 1.356 . S
C476 O532 1.325 . S
N477 C480 1.314 . S
N477 C481 1.279 . S
C478 C476 1.348 . S
C478 C480 1.353 . S
C478 H536 0.929 . S
C479 C476 1.356 . S
C479 C481 1.358 . S
C479 H537 0.930 . S
C480 N477 1.314 . S
C480 C478 1.353 . S
C480 H538 0.930 . S
C481 N477 1.279 . S
C481 C479 1.358 . S
C481 H539 0.930 . S
C482 C485 1.348 . S
C482 C486 1.356 1_545 S
C482 O533 1.325 . S
C483 N484 1.279 1_565 S
C483 C486 1.358 . S
C483 H540 0.930 . S
N484 C483 1.279 1_545 S
N484 C487 1.314 . S
C485 C482 1.348 . S
C485 C487 1.353 . S
C485 H541 0.929 . S
C486 C482 1.356 1_565 S
C486 C483 1.358 . S
C486 H542 0.930 . S
C487 N484 1.314 . S
C487 C485 1.353 . S
C487 H543 0.930 . S
C488 N489 1.314 . S
C488 C493 1.353 . S
C488 H494 0.930 . S
N489 Li472 1.990 . S
N489 C488 1.314 . S
N489 C491 1.279 . S
C490 C491 1.358 . S
C490 C492 1.356 . S
C490 H544 0.930 . S
C491 N489 1.279 . S
C491 C490 1.358 . S
C491 H495 0.930 . S
C492 C490 1.356 . S
C492 C493 1.348 . S
C493 C488 1.353 . S
C493 C492 1.348 . S
C493 H545 0.929 . S
H494 C488 0.930 . S
H495 C491 0.930 . S
C496 N497 1.314 . S
C496 C498 1.353 . S
C496 H502 0.930 . S
N497 Li473 1.990 . S
N497 C496 1.314 . S
N497 C500 1.279 . S
C498 C496 1.353 . S
C498 C501 1.348 . S
C498 H546 0.929 . S
C499 C500 1.358 . S
C499 C501 1.356 . S
C499 H547 0.930 . S
C500 N497 1.279 . S
C500 C499 1.358 . S
C500 H503 0.930 . S
C501 C498 1.348 . S
C501 C499 1.356 . S
H502 C496 0.930 . S
H503 C500 0.930 . S
C504 C506 1.348 . S
C504 C507 1.356 . S
C504 O534 1.325 . S
N505 C508 1.314 . S
N505 C509 1.279 . S
C506 C504 1.348 . S
C506 C508 1.353 . S
C506 H548 0.929 1_545 S
C507 C504 1.356 . S
C507 C509 1.358 . S
C507 H549 0.930 . S
C508 N505 1.314 . S
C508 C506 1.353 . S
C508 H550 0.934 1_545 S
C509 N505 1.279 . S
C509 C507 1.358 . S
C509 H551 0.930 . S
C510 C511 1.348 . S
C510 C512 1.356 . S
C510 O535 1.325 . S
C511 C510 1.348 . S
C511 C513 1.353 . S
C511 H552 0.929 . S
C512 C510 1.356 . S
C512 C514 1.358 . S
C512 H553 0.930 . S
C513 C511 1.353 . S
C513 N515 1.314 . S
C513 H554 0.930 . S
C514 C512 1.358 . S
C514 N515 1.279 . S
C514 H555 0.930 . S
N515 C513 1.314 . S
N515 C514 1.279 . S
C516 C518 1.353 . S
C516 N519 1.314 . S
C516 H522 0.930 . S
C517 N519 1.279 . S
C517 C520 1.358 . S
C517 H523 0.930 . S
C518 C516 1.353 . S
C518 C521 1.348 . S
C518 H556 0.929 . S
N519 Li474 1.990 . S
N519 C516 1.314 . S
N519 C517 1.279 . S
C520 C517 1.358 . S
C520 C521 1.356 . S
C520 H557 0.930 . S
C521 C518 1.348 . S
C521 C520 1.356 . S
H522 C516 0.930 . S
H523 C517 0.930 . S
C524 N525 1.314 . S
C524 C526 1.353 . S
C524 H530 0.930 . S
N525 Li475 1.990 . S
N525 C524 1.314 . S
N525 C528 1.279 . S
C526 C524 1.353 . S
C526 C529 1.348 . S
C526 H558 0.929 . S
C527 C528 1.358 . S
C527 C529 1.356 . S
C527 H559 0.930 . S
C528 N525 1.279 . S
C528 C527 1.358 . S
C528 H531 0.930 . S
C529 C526 1.348 . S
C529 C527 1.356 . S
H530 C524 0.930 . S
H531 C528 0.930 . S
O532 Li472 1.956 . S
O532 Li473 1.970 . S
O532 Li474 1.961 . S
O532 C476 1.325 . S
O533 Li472 1.970 . S
O533 Li473 1.956 . S
O533 Li475 1.961 1_545 S
O533 C482 1.325 . S
O534 Li472 1.961 . S
O534 Li474 1.956 . S
O534 Li475 1.970 1_545 S
O534 C504 1.325 . S
O535 Li473 1.961 1_565 S
O535 Li474 1.970 1_565 S
O535 Li475 1.956 . S
O535 C510 1.325 . S
H536 C478 0.929 . S
H537 C479 0.930 . S
H538 C480 0.930 . S
H539 C481 0.930 . S
H540 C483 0.930 . S
H541 C485 0.929 . S
H542 C486 0.930 . S
H543 C487 0.930 . S
H544 C490 0.930 . S
H545 C493 0.929 . S
H546 C498 0.929 . S
H547 C499 0.930 . S
H548 C506 0.929 1_565 S
H549 C507 0.930 . S
H550 C508 0.934 1_565 S
H551 C509 0.930 . S
H552 C511 0.929 . S
H553 C512 0.930 . S
H554 C513 0.930 . S
H555 C514 0.930 . S
H556 C518 0.929 . S
H557 C520 0.930 . S
H558 C526 0.929 . S
H559 C527 0.930 . S
Li560 N577 1.990 . S
Li560 O620 1.956 . S
Li560 O621 1.970 . S
Li560 O622 1.961 . S
Li561 N585 1.990 . S
Li561 O620 1.970 . S
Li561 O621 1.956 . S
Li561 O623 1.961 . S
Li562 N607 1.990 . S
Li562 O620 1.961 . S
Li562 O622 1.956 . S
Li562 O623 1.970 . S
Li563 N613 1.990 . S
Li563 O621 1.961 . S
Li563 O622 1.970 . S
Li563 O623 1.956 . S
C564 C566 1.348 . S
C564 C567 1.356 . S
C564 O620 1.325 . S
N565 C568 1.314 . S
N565 C569 1.279 . S
C566 C564 1.348 . S
C566 C568 1.353 . S
C566 H624 0.929 . S
C567 C564 1.356 . S
C567 C569 1.358 . S
C567 H625 0.930 . S
C568 N565 1.314 . S
C568 C566 1.353 . S
C568 H626 0.930 . S
C569 N565 1.279 . S
C569 C567 1.358 . S
C569 H627 0.930 . S
C570 C573 1.348 . S
C570 C574 1.356 . S
C570 O621 1.325 . S
C571 N572 1.279 . S
C571 C574 1.358 . S
C571 H628 0.930 . S
N572 C571 1.279 . S
N572 C575 1.314 . S
C573 C570 1.348 . S
C573 C575 1.353 . S
C573 H629 0.929 . S
C574 C570 1.356 . S
C574 C571 1.358 . S
C574 H630 0.930 . S
C575 N572 1.314 . S
C575 C573 1.353 . S
C575 H631 0.930 . S
C576 N577 1.314 . S
C576 C581 1.353 . S
C576 H582 0.930 . S
N577 Li560 1.990 . S
N577 C576 1.314 . S
N577 C579 1.279 . S
C578 C579 1.358 . S
C578 C580 1.356 . S
C578 H632 0.930 . S
C579 N577 1.279 . S
C579 C578 1.358 . S
C579 H583 0.930 . S
C580 C578 1.356 . S
C580 C581 1.348 . S
C581 C576 1.353 . S
C581 C580 1.348 . S
C581 H633 0.929 . S
H582 C576 0.930 . S
H583 C579 0.930 . S
C584 N585 1.314 . S
C584 C586 1.353 . S
C584 H590 0.930 . S
N585 Li561 1.990 . S
N585 C584 1.314 . S
N585 C588 1.279 . S
C586 C584 1.353 . S
C586 C589 1.348 . S
C586 H634 0.929 . S
C587 C588 1.358 . S
C587 C589 1.356 . S
C587 H635 0.930 . S
C588 N585 1.279 . S
C588 C587 1.358 . S
C588 H591 0.930 . S
C589 C586 1.348 . S
C589 C587 1.356 . S
H590 C584 0.930 . S
H591 C588 0.930 . S
C592 C594 1.348 . S
C592 C595 1.356 . S
C592 O622 1.325 . S
N593 C596 1.314 . S
N593 C597 1.279 . S
C594 C592 1.348 . S
C594 C596 1.353 . S
C594 H636 0.929 . S
C595 C592 1.356 . S
C595 C597 1.358 . S
C595 H637 0.930 . S
C596 N593 1.314 . S
C596 C594 1.353 . S
C596 H638 0.930 . S
C597 N593 1.279 . S
C597 C595 1.358 . S
C597 H639 0.930 . S
C598 C599 1.348 . S
C598 C600 1.356 . S
C598 O623 1.325 . S
C599 C598 1.348 . S
C599 C601 1.353 . S
C599 H640 0.929 . S
C600 C598 1.356 . S
C600 C602 1.358 . S
C600 H641 0.930 . S
C601 C599 1.353 . S
C601 N603 1.314 . S
C601 H642 0.930 . S
C602 C600 1.358 . S
C602 N603 1.279 . S
C602 H643 0.930 . S
N603 C601 1.314 . S
N603 C602 1.279 . S
C604 C606 1.353 . S
C604 N607 1.314 . S
C604 H610 0.930 . S
C605 N607 1.279 . S
C605 C608 1.358 . S
C605 H611 0.930 . S
C606 C604 1.353 . S
C606 C609 1.348 . S
C606 H644 0.929 . S
N607 Li562 1.990 . S
N607 C604 1.314 . S
N607 C605 1.279 . S
C608 C605 1.358 . S
C608 C609 1.356 . S
C608 H645 0.930 . S
C609 C606 1.348 . S
C609 C608 1.356 . S
H610 C604 0.930 . S
H611 C605 0.930 . S
C612 N613 1.314 . S
C612 C614 1.353 . S
C612 H618 0.930 . S
N613 Li563 1.990 . S
N613 C612 1.314 . S
N613 C616 1.279 . S
C614 C612 1.353 . S
C614 C617 1.348 . S
C614 H646 0.929 . S
C615 C616 1.358 . S
C615 C617 1.356 . S
C615 H647 0.930 . S
C616 N613 1.279 . S
C616 C615 1.358 . S
C616 H619 0.930 . S
C617 C614 1.348 . S
C617 C615 1.356 . S
H618 C612 0.930 . S
H619 C616 0.930 . S
O620 Li560 1.956 . S
O620 Li561 1.970 . S
O620 Li562 1.961 . S
O620 C564 1.325 . S
O621 Li560 1.970 . S
O621 Li561 1.956 . S
O621 Li563 1.961 . S
O621 C570 1.325 . S
O622 Li560 1.961 . S
O622 Li562 1.956 . S
O622 Li563 1.970 . S
O622 C592 1.325 . S
O623 Li561 1.961 . S
O623 Li562 1.970 . S
O623 Li563 1.956 . S
O623 C598 1.325 . S
H624 C566 0.929 . S
H625 C567 0.930 . S
H626 C568 0.930 . S
H627 C569 0.930 . S
H628 C571 0.930 . S
H629 C573 0.929 . S
H630 C574 0.930 . S
H631 C575 0.930 . S
H632 C578 0.930 . S
H633 C581 0.929 . S
H634 C586 0.929 . S
H635 C587 0.930 . S
H636 C594 0.929 . S
H637 C595 0.930 . S
H638 C596 0.930 . S
H639 C597 0.930 . S
H640 C599 0.929 . S
H641 C600 0.930 . S
H642 C601 0.930 . S
H643 C602 0.930 . S
H644 C606 0.929 . S
H645 C608 0.930 . S
H646 C614 0.929 . S
H647 C615 0.930 . S
Li648 N665 1.990 . S
Li648 O708 1.956 . S
Li648 O709 1.970 . S
Li648 O710 1.961 . S
Li649 N673 1.990 . S
Li649 O708 1.970 . S
Li649 O709 1.956 . S
Li649 O711 1.961 . S
Li650 N695 1.990 . S
Li650 O708 1.961 . S
Li650 O710 1.956 . S
Li650 O711 1.970 . S
Li651 N701 1.990 . S
Li651 O709 1.961 . S
Li651 O710 1.970 . S
Li651 O711 1.956 . S
C652 C654 1.348 . S
C652 C655 1.356 . S
C652 O708 1.325 . S
N653 C656 1.314 . S
N653 C657 1.279 . S
C654 C652 1.348 . S
C654 C656 1.353 . S
C654 H712 0.929 . S
C655 C652 1.356 . S
C655 C657 1.358 . S
C655 H713 0.930 . S
C656 N653 1.314 . S
C656 C654 1.353 . S
C656 H714 0.930 . S
C657 N653 1.279 . S
C657 C655 1.358 . S
C657 H715 0.930 . S
C658 C661 1.348 . S
C658 C662 1.356 . S
C658 O709 1.325 . S
C659 N660 1.279 . S
C659 C662 1.358 . S
C659 H716 0.930 . S
N660 C659 1.279 . S
N660 C663 1.314 . S
C661 C658 1.348 . S
C661 C663 1.353 . S
C661 H717 0.929 . S
C662 C658 1.356 . S
C662 C659 1.358 . S
C662 H718 0.930 . S
C663 N660 1.314 . S
C663 C661 1.353 . S
C663 H719 0.930 . S
C664 N665 1.314 . S
C664 C669 1.353 . S
C664 H670 0.930 . S
N665 Li648 1.990 . S
N665 C664 1.314 . S
N665 C667 1.279 . S
C666 C667 1.358 . S
C666 C668 1.356 . S
C666 H720 0.930 . S
C667 N665 1.279 . S
C667 C666 1.358 . S
C667 H671 0.930 . S
C668 C666 1.356 . S
C668 C669 1.348 . S
C669 C664 1.353 . S
C669 C668 1.348 . S
C669 H721 0.929 . S
H670 C664 0.930 . S
H671 C667 0.930 . S
C672 N673 1.314 . S
C672 C674 1.353 . S
C672 H678 0.930 . S
N673 Li649 1.990 . S
N673 C672 1.314 . S
N673 C676 1.279 . S
C674 C672 1.353 . S
C674 C677 1.348 . S
C674 H722 0.929 . S
C675 C676 1.358 . S
C675 C677 1.356 . S
C675 H723 0.930 . S
C676 N673 1.279 . S
C676 C675 1.358 . S
C676 H679 0.930 . S
C677 C674 1.348 . S
C677 C675 1.356 . S
H678 C672 0.930 . S
H679 C676 0.930 . S
C680 C682 1.348 . S
C680 C683 1.356 . S
C680 O710 1.325 . S
N681 C684 1.314 . S
N681 C685 1.279 . S
C682 C680 1.348 . S
C682 C684 1.353 . S
C682 H724 0.929 . S
C683 C680 1.356 . S
C683 C685 1.358 . S
C683 H725 0.930 . S
C684 N681 1.314 . S
C684 C682 1.353 . S
C684 H726 0.930 . S
C685 N681 1.279 . S
C685 C683 1.358 . S
C685 H727 0.930 . S
C686 C687 1.348 . S
C686 C688 1.356 . S
C686 O711 1.325 . S
C687 C686 1.348 . S
C687 C689 1.353 . S
C687 H728 0.929 . S
C688 C686 1.356 . S
C688 C690 1.358 . S
C688 H729 0.930 . S
C689 C687 1.353 . S
C689 N691 1.314 . S
C689 H730 0.930 . S
C690 C688 1.358 . S
C690 N691 1.279 . S
C690 H731 0.930 . S
N691 C689 1.314 . S
N691 C690 1.279 . S
C692 C694 1.353 . S
C692 N695 1.314 . S
C692 H698 0.930 . S
C693 N695 1.279 . S
C693 C696 1.358 . S
C693 H699 0.930 . S
C694 C692 1.353 . S
C694 C697 1.348 . S
C694 H732 0.929 . S
N695 Li650 1.990 . S
N695 C692 1.314 . S
N695 C693 1.279 . S
C696 C693 1.358 . S
C696 C697 1.356 . S
C696 H733 0.930 . S
C697 C694 1.348 . S
C697 C696 1.356 . S
H698 C692 0.930 . S
H699 C693 0.930 . S
C700 N701 1.314 . S
C700 C702 1.353 . S
C700 H706 0.930 . S
N701 Li651 1.990 . S
N701 C700 1.314 . S
N701 C704 1.279 . S
C702 C700 1.353 . S
C702 C705 1.348 . S
C702 H734 0.929 . S
C703 C704 1.358 . S
C703 C705 1.356 . S
C703 H735 0.930 . S
C704 N701 1.279 . S
C704 C703 1.358 . S
C704 H707 0.930 . S
C705 C702 1.348 . S
C705 C703 1.356 . S
H706 C700 0.930 . S
H707 C704 0.930 . S
O708 Li648 1.956 . S
O708 Li649 1.970 . S
O708 Li650 1.961 . S
O708 C652 1.325 . S
O709 Li648 1.970 . S
O709 Li649 1.956 . S
O709 Li651 1.961 . S
O709 C658 1.325 . S
O710 Li648 1.961 . S
O710 Li650 1.956 . S
O710 Li651 1.970 . S
O710 C680 1.325 . S
O711 Li649 1.961 . S
O711 Li650 1.970 . S
O711 Li651 1.956 . S
O711 C686 1.325 . S
H712 C654 0.929 . S
H713 C655 0.930 . S
H714 C656 0.930 . S
H715 C657 0.930 . S
H716 C659 0.930 . S
H717 C661 0.929 . S
H718 C662 0.930 . S
H719 C663 0.930 . S
H720 C666 0.930 . S
H721 C669 0.929 . S
H722 C674 0.929 . S
H723 C675 0.930 . S
H724 C682 0.929 . S
H725 C683 0.930 . S
H726 C684 0.930 . S
H727 C685 0.930 . S
H728 C687 0.929 . S
H729 C688 0.930 . S
H730 C689 0.930 . S
H731 C690 0.930 . S
H732 C694 0.929 . S
H733 C696 0.930 . S
H734 C702 0.929 . S
H735 C703 0.930 . S
Li736 N753 1.990 . S
Li736 O796 1.956 . S
Li736 O797 1.970 . S
Li736 O798 1.961 . S
Li737 N761 1.990 . S
Li737 O796 1.970 . S
Li737 O797 1.956 . S
Li737 O799 1.961 . S
Li738 N783 1.990 . S
Li738 O796 1.961 . S
Li738 O798 1.956 . S
Li738 O799 1.970 . S
Li739 N789 1.990 . S
Li739 O797 1.961 . S
Li739 O798 1.970 . S
Li739 O799 1.956 . S
C740 C742 1.348 . S
C740 C743 1.356 . S
C740 O796 1.325 . S
N741 C744 1.314 . S
N741 C745 1.279 . S
C742 C740 1.348 . S
C742 C744 1.353 . S
C742 H800 0.929 . S
C743 C740 1.356 . S
C743 C745 1.358 . S
C743 H801 0.930 . S
C744 N741 1.314 . S
C744 C742 1.353 . S
C744 H802 0.930 . S
C745 N741 1.279 . S
C745 C743 1.358 . S
C745 H803 0.930 . S
C746 C749 1.348 . S
C746 C750 1.356 . S
C746 O797 1.325 . S
C747 N748 1.279 . S
C747 C750 1.358 . S
C747 H804 0.930 . S
N748 C747 1.279 . S
N748 C751 1.314 . S
C749 C746 1.348 . S
C749 C751 1.353 . S
C749 H805 0.929 . S
C750 C746 1.356 . S
C750 C747 1.358 . S
C750 H806 0.930 . S
C751 N748 1.314 . S
C751 C749 1.353 . S
C751 H807 0.930 . S
C752 N753 1.314 . S
C752 C757 1.353 . S
C752 H758 0.930 . S
N753 Li736 1.990 . S
N753 C752 1.314 . S
N753 C755 1.279 . S
C754 C755 1.358 . S
C754 C756 1.356 . S
C754 H808 0.930 . S
C755 N753 1.279 . S
C755 C754 1.358 . S
C755 H759 0.930 . S
C756 C754 1.356 . S
C756 C757 1.348 . S
C757 C752 1.353 . S
C757 C756 1.348 . S
C757 H809 0.929 . S
H758 C752 0.930 . S
H759 C755 0.930 . S
C760 N761 1.314 . S
C760 C762 1.353 . S
C760 H766 0.930 . S
N761 Li737 1.990 . S
N761 C760 1.314 . S
N761 C764 1.279 . S
C762 C760 1.353 . S
C762 C765 1.348 . S
C762 H810 0.929 . S
C763 C764 1.358 . S
C763 C765 1.356 . S
C763 H811 0.930 . S
C764 N761 1.279 . S
C764 C763 1.358 . S
C764 H767 0.930 . S
C765 C762 1.348 . S
C765 C763 1.356 . S
H766 C760 0.930 . S
H767 C764 0.930 . S
C768 C770 1.348 . S
C768 C771 1.356 . S
C768 O798 1.325 . S
N769 C772 1.314 . S
N769 C773 1.279 . S
C770 C768 1.348 . S
C770 C772 1.353 . S
C770 H812 0.929 . S
C771 C768 1.356 . S
C771 C773 1.358 . S
C771 H813 0.930 . S
C772 N769 1.314 . S
C772 C770 1.353 . S
C772 H814 0.930 . S
C773 N769 1.279 . S
C773 C771 1.358 . S
C773 H815 0.930 . S
C774 C775 1.348 . S
C774 C776 1.356 . S
C774 O799 1.325 . S
C775 C774 1.348 . S
C775 C777 1.353 . S
C775 H816 0.929 . S
C776 C774 1.356 . S
C776 C778 1.358 . S
C776 H817 0.930 . S
C777 C775 1.353 . S
C777 N779 1.314 . S
C777 H818 0.930 . S
C778 C776 1.358 . S
C778 N779 1.279 . S
C778 H819 0.930 . S
N779 C777 1.314 . S
N779 C778 1.279 . S
C780 C782 1.353 . S
C780 N783 1.314 . S
C780 H786 0.930 . S
C781 N783 1.279 . S
C781 C784 1.358 . S
C781 H787 0.930 . S
C782 C780 1.353 . S
C782 C785 1.348 . S
C782 H820 0.929 . S
N783 Li738 1.990 . S
N783 C780 1.314 . S
N783 C781 1.279 . S
C784 C781 1.358 . S
C784 C785 1.356 . S
C784 H821 0.930 . S
C785 C782 1.348 . S
C785 C784 1.356 . S
H786 C780 0.930 . S
H787 C781 0.930 . S
C788 N789 1.314 . S
C788 C790 1.353 . S
C788 H794 0.930 . S
N789 Li739 1.990 . S
N789 C788 1.314 . S
N789 C792 1.279 . S
C790 C788 1.353 . S
C790 C793 1.348 . S
C790 H822 0.929 . S
C791 C792 1.358 . S
C791 C793 1.356 . S
C791 H823 0.930 . S
C792 N789 1.279 . S
C792 C791 1.358 . S
C792 H795 0.930 . S
C793 C790 1.348 . S
C793 C791 1.356 . S
H794 C788 0.930 . S
H795 C792 0.930 . S
O796 Li736 1.956 . S
O796 Li737 1.970 . S
O796 Li738 1.961 . S
O796 C740 1.325 . S
O797 Li736 1.970 . S
O797 Li737 1.956 . S
O797 Li739 1.961 . S
O797 C746 1.325 . S
O798 Li736 1.961 . S
O798 Li738 1.956 . S
O798 Li739 1.970 . S
O798 C768 1.325 . S
O799 Li737 1.961 . S
O799 Li738 1.970 . S
O799 Li739 1.956 . S
O799 C774 1.325 . S
H800 C742 0.929 . S
H801 C743 0.930 . S
H802 C744 0.930 . S
H803 C745 0.930 . S
H804 C747 0.930 . S
H805 C749 0.929 . S
H806 C750 0.930 . S
H807 C751 0.930 . S
H808 C754 0.930 . S
H809 C757 0.929 . S
H810 C762 0.929 . S
H811 C763 0.930 . S
H812 C770 0.929 . S
H813 C771 0.930 . S
H814 C772 0.930 . S
H815 C773 0.930 . S
H816 C775 0.929 . S
H817 C776 0.930 . S
H818 C777 0.930 . S
H819 C778 0.930 . S
H820 C782 0.929 . S
H821 C784 0.930 . S
H822 C790 0.929 . S
H823 C791 0.930 . S
Li824 N841 1.990 . S
Li824 O884 1.956 . S
Li824 O885 1.970 1_565 S
Li824 O886 1.961 . S
Li825 N849 1.990 . S
Li825 O884 1.970 1_545 S
Li825 O885 1.956 . S
Li825 O887 1.961 . S
Li826 N871 1.990 . S
Li826 O884 1.961 . S
Li826 O886 1.956 . S
Li826 O887 1.970 1_565 S
Li827 N877 1.990 . S
Li827 O885 1.961 . S
Li827 O886 1.970 1_545 S
Li827 O887 1.956 . S
C828 C830 1.348 . S
C828 C831 1.356 . S
C828 O884 1.325 . S
N829 C832 1.314 . S
N829 C833 1.279 . S
C830 C828 1.348 . S
C830 C832 1.353 . S
C830 H888 0.929 . S
C831 C828 1.356 . S
C831 C833 1.358 . S
C831 H889 0.930 . S
C832 N829 1.314 . S
C832 C830 1.353 . S
C832 H890 0.930 . S
C833 N829 1.279 . S
C833 C831 1.358 . S
C833 H891 0.930 . S
C834 C837 1.348 1_545 S
C834 C838 1.356 . S
C834 O885 1.325 . S
C835 N836 1.279 . S
C835 C838 1.358 . S
C835 H892 0.930 . S
N836 C835 1.279 . S
N836 C839 1.314 . S
C837 C834 1.348 1_565 S
C837 C839 1.353 1_565 S
C837 H893 0.929 . S
C838 C834 1.356 . S
C838 C835 1.358 . S
C838 H894 0.930 . S
C839 N836 1.314 . S
C839 C837 1.353 1_545 S
C839 H895 0.930 1_545 S
C840 N841 1.314 . S
C840 C845 1.353 . S
C840 H846 0.930 . S
N841 Li824 1.990 . S
N841 C840 1.314 . S
N841 C843 1.279 . S
C842 C843 1.358 . S
C842 C844 1.356 . S
C842 H896 0.930 . S
C843 N841 1.279 . S
C843 C842 1.358 . S
C843 H847 0.930 . S
C844 C842 1.356 . S
C844 C845 1.348 . S
C845 C840 1.353 . S
C845 C844 1.348 . S
C845 H897 0.929 . S
H846 C840 0.930 . S
H847 C843 0.930 . S
C848 N849 1.314 . S
C848 C850 1.353 . S
C848 H854 0.930 . S
N849 Li825 1.990 . S
N849 C848 1.314 . S
N849 C852 1.279 . S
C850 C848 1.353 . S
C850 C853 1.348 . S
C850 H898 0.929 . S
C851 C852 1.358 . S
C851 C853 1.356 . S
C851 H899 0.930 . S
C852 N849 1.279 . S
C852 C851 1.358 . S
C852 H855 0.930 . S
C853 C850 1.348 . S
C853 C851 1.356 . S
H854 C848 0.930 . S
H855 C852 0.930 . S
C856 C858 1.348 1_565 S
C856 C859 1.356 . S
C856 O886 1.325 . S
N857 C860 1.314 1_565 S
N857 C861 1.279 . S
C858 C856 1.348 1_545 S
C858 C860 1.353 . S
C858 H900 0.929 . S
C859 C856 1.356 . S
C859 C861 1.358 . S
C859 H901 0.930 . S
C860 N857 1.314 1_545 S
C860 C858 1.353 . S
C860 H902 0.930 . S
C861 N857 1.279 . S
C861 C859 1.358 . S
C861 H903 0.930 . S
C862 C863 1.348 . S
C862 C864 1.356 . S
C862 O887 1.325 . S
C863 C862 1.348 . S
C863 C865 1.353 . S
C863 H904 0.929 . S
C864 C862 1.356 . S
C864 C866 1.358 . S
C864 H905 0.930 . S
C865 C863 1.353 . S
C865 N867 1.314 . S
C865 H906 0.930 . S
C866 C864 1.358 . S
C866 N867 1.279 . S
C866 H907 0.930 . S
N867 C865 1.314 . S
N867 C866 1.279 . S
C868 C870 1.353 . S
C868 N871 1.314 . S
C868 H874 0.930 . S
C869 N871 1.279 . S
C869 C872 1.358 . S
C869 H875 0.930 . S
C870 C868 1.353 . S
C870 C873 1.348 . S
C870 H908 0.929 . S
N871 Li826 1.990 . S
N871 C868 1.314 . S
N871 C869 1.279 . S
C872 C869 1.358 . S
C872 C873 1.356 . S
C872 H909 0.930 . S
C873 C870 1.348 . S
C873 C872 1.356 . S
H874 C868 0.930 . S
H875 C869 0.930 . S
C876 N877 1.314 . S
C876 C878 1.353 . S
C876 H882 0.930 . S
N877 Li827 1.990 . S
N877 C876 1.314 . S
N877 C880 1.279 . S
C878 C876 1.353 . S
C878 C881 1.348 . S
C878 H910 0.929 . S
C879 C880 1.358 . S
C879 C881 1.356 . S
C879 H911 0.930 . S
C880 N877 1.279 . S
C880 C879 1.358 . S
C880 H883 0.930 . S
C881 C878 1.348 . S
C881 C879 1.356 . S
H882 C876 0.930 . S
H883 C880 0.930 . S
O884 Li824 1.956 . S
O884 Li825 1.970 1_565 S
O884 Li826 1.961 . S
O884 C828 1.325 . S
O885 Li824 1.970 1_545 S
O885 Li825 1.956 . S
O885 Li827 1.961 . S
O885 C834 1.325 . S
O886 Li824 1.961 . S
O886 Li826 1.956 . S
O886 Li827 1.970 1_565 S
O886 C856 1.325 . S
O887 Li825 1.961 . S
O887 Li826 1.970 1_545 S
O887 Li827 1.956 . S
O887 C862 1.325 . S
H888 C830 0.929 . S
H889 C831 0.930 . S
H890 C832 0.930 . S
H891 C833 0.930 . S
H892 C835 0.930 . S
H893 C837 0.929 . S
H894 C838 0.930 . S
H895 C839 0.930 1_565 S
H896 C842 0.930 . S
H897 C845 0.929 . S
H898 C850 0.929 . S
H899 C851 0.930 . S
H900 C858 0.929 . S
H901 C859 0.930 . S
H902 C860 0.930 . S
H903 C861 0.930 . S
H904 C863 0.929 . S
H905 C864 0.930 . S
H906 C865 0.930 . S
H907 C866 0.930 . S
H908 C870 0.929 . S
H909 C872 0.930 . S
H910 C878 0.929 . S
H911 C879 0.930 . S
Li912 N929 1.990 . S
Li912 O972 1.956 . S
Li912 O973 1.945 1_455 S
Li912 O974 1.988 . S
Li913 N937 1.990 . S
Li913 O972 1.970 1_655 S
Li913 O973 1.958 . S
Li913 O975 1.961 . S
Li914 N959 1.990 . S
Li914 O972 1.961 . S
Li914 O974 1.956 . S
Li914 O975 1.970 1_455 S
Li915 N965 1.990 . S
Li915 O973 1.979 . S
Li915 O974 1.933 1_655 S
Li915 O975 1.956 . S
C916 C918 1.348 . S
C916 C919 1.356 . S
C916 O972 1.325 . S
N917 C920 1.314 . S
N917 C921 1.279 . S
C918 C916 1.348 . S
C918 C920 1.353 . S
C918 H976 0.929 . S
C919 C916 1.356 . S
C919 C921 1.358 . S
C919 H977 0.930 . S
C920 N917 1.314 . S
C920 C918 1.353 . S
C920 H978 0.930 . S
C921 N917 1.279 . S
C921 C919 1.358 . S
C921 H979 0.930 . S
C922 C925 1.348 1_655 S
C922 C926 1.356 . S
C922 O973 1.330 . S
C923 N924 1.279 . S
C923 C926 1.358 . S
C923 H980 0.930 . S
N924 C923 1.279 . S
N924 C927 1.314 1_655 S
C925 C922 1.348 1_455 S
C925 C927 1.353 . S
C925 H981 0.929 . S
C926 C922 1.356 . S
C926 C923 1.358 . S
C926 H982 0.930 . S
C927 N924 1.314 1_455 S
C927 C925 1.353 . S
C927 H983 0.930 . S
C928 N929 1.314 . S
C928 C933 1.353 . S
C928 H934 0.930 . S
N929 Li912 1.990 . S
N929 C928 1.314 . S
N929 C931 1.279 . S
C930 C931 1.358 . S
C930 C932 1.356 . S
C930 H984 0.930 . S
C931 N929 1.279 . S
C931 C930 1.358 . S
C931 H935 0.930 . S
C932 C930 1.356 . S
C932 C933 1.348 . S
C933 C928 1.353 . S
C933 C932 1.348 . S
C933 H985 0.929 . S
H934 C928 0.930 . S
H935 C931 0.930 . S
C936 N937 1.314 . S
C936 C938 1.353 . S
C936 H942 0.930 . S
N937 Li913 1.990 . S
N937 C936 1.314 . S
N937 C940 1.278 1_655 S
C938 C936 1.353 . S
C938 C941 1.348 . S
C938 H986 0.929 . S
C939 C940 1.357 . S
C939 C941 1.354 1_455 S
C939 H987 0.930 . S
C940 N937 1.278 1_455 S
C940 C939 1.357 . S
C940 H943 0.935 . S
C941 C938 1.348 . S
C941 C939 1.354 1_655 S
H942 C936 0.930 . S
H943 C940 0.935 . S
C944 C946 1.348 1_455 S
C944 C947 1.356 . S
C944 O974 1.334 . S
N945 C948 1.314 1_455 S
N945 C949 1.279 . S
C946 C944 1.348 1_655 S
C946 C948 1.353 . S
C946 H988 0.929 . S
C947 C944 1.356 . S
C947 C949 1.358 . S
C947 H989 0.930 . S
C948 N945 1.314 1_655 S
C948 C946 1.353 . S
C948 H990 0.930 . S
C949 N945 1.279 . S
C949 C947 1.358 . S
C949 H991 0.930 . S
C950 C951 1.348 . S
C950 C952 1.356 . S
C950 O975 1.325 . S
C951 C950 1.348 . S
C951 C953 1.353 . S
C951 H992 0.929 . S
C952 C950 1.356 . S
C952 C954 1.358 . S
C952 H993 0.930 . S
C953 C951 1.353 . S
C953 N955 1.314 . S
C953 H994 0.930 . S
C954 C952 1.358 . S
C954 N955 1.279 . S
C954 H995 0.930 . S
N955 C953 1.314 . S
N955 C954 1.279 . S
C956 C958 1.353 . S
C956 N959 1.314 . S
C956 H962 0.930 . S
C957 N959 1.279 1_655 S
C957 C960 1.357 . S
C957 H963 0.932 . S
C958 C956 1.353 . S
C958 C961 1.348 . S
C958 H996 0.929 . S
N959 Li914 1.990 . S
N959 C956 1.314 . S
N959 C957 1.279 1_455 S
C960 C957 1.357 . S
C960 C961 1.357 1_655 S
C960 H997 0.929 . S
C961 C958 1.348 . S
C961 C960 1.357 1_455 S
H962 C956 0.930 . S
H963 C957 0.932 . S
C964 N965 1.314 . S
C964 C966 1.353 . S
C964 H970 0.930 . S
N965 Li915 1.990 . S
N965 C964 1.314 . S
N965 C968 1.279 . S
C966 C964 1.353 . S
C966 C969 1.348 . S
C966 H998 0.929 . S
C967 C968 1.358 . S
C967 C969 1.356 . S
C967 H999 0.930 . S
C968 N965 1.279 . S
C968 C967 1.358 . S
C968 H971 0.930 . S
C969 C966 1.348 . S
C969 C967 1.356 . S
H970 C964 0.930 . S
H971 C968 0.930 . S
O972 Li912 1.956 . S
O972 Li913 1.970 1_455 S
O972 Li914 1.961 . S
O972 C916 1.325 . S
O973 Li912 1.945 1_655 S
O973 Li913 1.958 . S
O973 Li915 1.979 . S
O973 C922 1.330 . S
O974 Li912 1.988 . S
O974 Li914 1.956 . S
O974 Li915 1.933 1_455 S
O974 C944 1.334 . S
O975 Li913 1.961 . S
O975 Li914 1.970 1_655 S
O975 Li915 1.956 . S
O975 C950 1.325 . S
H976 C918 0.929 . S
H977 C919 0.930 . S
H978 C920 0.930 . S
H979 C921 0.930 . S
H980 C923 0.930 . S
H981 C925 0.929 . S
H982 C926 0.930 . S
H983 C927 0.930 . S
H984 C930 0.930 . S
H985 C933 0.929 . S
H986 C938 0.929 . S
H987 C939 0.930 . S
H988 C946 0.929 . S
H989 C947 0.930 . S
H990 C948 0.930 . S
H991 C949 0.930 . S
H992 C951 0.929 . S
H993 C952 0.930 . S
H994 C953 0.930 . S
H995 C954 0.930 . S
H996 C958 0.929 . S
H997 C960 0.929 . S
H998 C966 0.929 . S
H999 C967 0.930 . S
Li1000 N1017 1.990 . S
Li1000 O1060 1.956 . S
Li1000 O1061 1.970 . S
Li1000 O1062 1.961 . S
Li1001 N1025 1.990 . S
Li1001 O1060 1.970 . S
Li1001 O1061 1.956 . S
Li1001 O1063 1.961 . S
Li1002 N1047 1.990 . S
Li1002 O1060 1.961 . S
Li1002 O1062 1.956 . S
Li1002 O1063 1.970 . S
Li1003 N1053 1.990 . S
Li1003 O1061 1.961 . S
Li1003 O1062 1.970 . S
Li1003 O1063 1.956 . S
C1004 C1006 1.348 . S
C1004 C1007 1.356 . S
C1004 O1060 1.325 . S
N1005 C1008 1.314 . S
N1005 C1009 1.279 . S
C1006 C1004 1.348 . S
C1006 C1008 1.353 . S
C1006 H1064 0.929 . S
C1007 C1004 1.356 . S
C1007 C1009 1.358 . S
C1007 H1065 0.930 . S
C1008 N1005 1.314 . S
C1008 C1006 1.353 . S
C1008 H1066 0.930 . S
C1009 N1005 1.279 . S
C1009 C1007 1.358 . S
C1009 H1067 0.930 . S
C1010 C1013 1.348 . S
C1010 C1014 1.356 . S
C1010 O1061 1.325 . S
C1011 N1012 1.279 . S
C1011 C1014 1.358 . S
C1011 H1068 0.930 . S
N1012 C1011 1.279 . S
N1012 C1015 1.314 . S
C1013 C1010 1.348 . S
C1013 C1015 1.353 . S
C1013 H1069 0.929 . S
C1014 C1010 1.356 . S
C1014 C1011 1.358 . S
C1014 H1070 0.930 . S
C1015 N1012 1.314 . S
C1015 C1013 1.353 . S
C1015 H1071 0.930 . S
C1016 N1017 1.314 . S
C1016 C1021 1.353 . S
C1016 H1022 0.930 . S
N1017 Li1000 1.990 . S
N1017 C1016 1.314 . S
N1017 C1019 1.279 . S
C1018 C1019 1.358 . S
C1018 C1020 1.356 . S
C1018 H1072 0.930 . S
C1019 N1017 1.279 . S
C1019 C1018 1.358 . S
C1019 H1023 0.930 . S
C1020 C1018 1.356 . S
C1020 C1021 1.348 . S
C1021 C1016 1.353 . S
C1021 C1020 1.348 . S
C1021 H1073 0.929 . S
H1022 C1016 0.930 . S
H1023 C1019 0.930 . S
C1024 N1025 1.314 . S
C1024 C1026 1.353 . S
C1024 H1030 0.930 . S
N1025 Li1001 1.990 . S
N1025 C1024 1.314 . S
N1025 C1028 1.279 . S
C1026 C1024 1.353 . S
C1026 C1029 1.348 . S
C1026 H1074 0.929 . S
C1027 C1028 1.358 . S
C1027 C1029 1.356 . S
C1027 H1075 0.930 . S
C1028 N1025 1.279 . S
C1028 C1027 1.358 . S
C1028 H1031 0.930 . S
C1029 C1026 1.348 . S
C1029 C1027 1.356 . S
H1030 C1024 0.930 . S
H1031 C1028 0.930 . S
C1032 C1034 1.348 . S
C1032 C1035 1.356 . S
C1032 O1062 1.325 . S
N1033 C1036 1.314 . S
N1033 C1037 1.279 . S
C1034 C1032 1.348 . S
C1034 C1036 1.353 . S
C1034 H1076 0.929 . S
C1035 C1032 1.356 . S
C1035 C1037 1.358 . S
C1035 H1077 0.930 . S
C1036 N1033 1.314 . S
C1036 C1034 1.353 . S
C1036 H1078 0.930 . S
C1037 N1033 1.279 . S
C1037 C1035 1.358 . S
C1037 H1079 0.930 . S
C1038 C1039 1.348 . S
C1038 C1040 1.356 . S
C1038 O1063 1.325 . S
C1039 C1038 1.348 . S
C1039 C1041 1.353 . S
C1039 H1080 0.929 . S
C1040 C1038 1.356 . S
C1040 C1042 1.358 . S
C1040 H1081 0.930 . S
C1041 C1039 1.353 . S
C1041 N1043 1.314 . S
C1041 H1082 0.930 . S
C1042 C1040 1.358 . S
C1042 N1043 1.279 . S
C1042 H1083 0.930 . S
N1043 C1041 1.314 . S
N1043 C1042 1.279 . S
C1044 C1046 1.353 . S
C1044 N1047 1.314 . S
C1044 H1050 0.930 . S
C1045 N1047 1.279 . S
C1045 C1048 1.358 . S
C1045 H1051 0.930 . S
C1046 C1044 1.353 . S
C1046 C1049 1.348 . S
C1046 H1084 0.929 . S
N1047 Li1002 1.990 . S
N1047 C1044 1.314 . S
N1047 C1045 1.279 . S
C1048 C1045 1.358 . S
C1048 C1049 1.356 . S
C1048 H1085 0.930 . S
C1049 C1046 1.348 . S
C1049 C1048 1.356 . S
H1050 C1044 0.930 . S
H1051 C1045 0.930 . S
C1052 N1053 1.314 . S
C1052 C1054 1.353 . S
C1052 H1058 0.930 . S
N1053 Li1003 1.990 . S
N1053 C1052 1.314 . S
N1053 C1056 1.279 . S
C1054 C1052 1.353 . S
C1054 C1057 1.348 . S
C1054 H1086 0.929 . S
C1055 C1056 1.358 . S
C1055 C1057 1.356 . S
C1055 H1087 0.930 . S
C1056 N1053 1.279 . S
C1056 C1055 1.358 . S
C1056 H1059 0.930 . S
C1057 C1054 1.348 . S
C1057 C1055 1.356 . S
H1058 C1052 0.930 . S
H1059 C1056 0.930 . S
O1060 Li1000 1.956 . S
O1060 Li1001 1.970 . S
O1060 Li1002 1.961 . S
O1060 C1004 1.325 . S
O1061 Li1000 1.970 . S
O1061 Li1001 1.956 . S
O1061 Li1003 1.961 . S
O1061 C1010 1.325 . S
O1062 Li1000 1.961 . S
O1062 Li1002 1.956 . S
O1062 Li1003 1.970 . S
O1062 C1032 1.325 . S
O1063 Li1001 1.961 . S
O1063 Li1002 1.970 . S
O1063 Li1003 1.956 . S
O1063 C1038 1.325 . S
H1064 C1006 0.929 . S
H1065 C1007 0.930 . S
H1066 C1008 0.930 . S
H1067 C1009 0.930 . S
H1068 C1011 0.930 . S
H1069 C1013 0.929 . S
H1070 C1014 0.930 . S
H1071 C1015 0.930 . S
H1072 C1018 0.930 . S
H1073 C1021 0.929 . S
H1074 C1026 0.929 . S
H1075 C1027 0.930 . S
H1076 C1034 0.929 . S
H1077 C1035 0.930 . S
H1078 C1036 0.930 . S
H1079 C1037 0.930 . S
H1080 C1039 0.929 . S
H1081 C1040 0.930 . S
H1082 C1041 0.930 . S
H1083 C1042 0.930 . S
H1084 C1046 0.929 . S
H1085 C1048 0.930 . S
H1086 C1054 0.929 . S
H1087 C1055 0.930 . S
Li1088 N1105 1.990 . S
Li1088 O1148 1.956 . S
Li1088 O1149 1.970 1_455 S
Li1088 O1150 1.961 . S
Li1089 N1113 1.986 . S
Li1089 O1148 1.975 1_655 S
Li1089 O1149 1.956 . S
Li1089 O1151 1.965 1_655 S
Li1090 N1135 1.990 . S
Li1090 O1148 1.961 . S
Li1090 O1150 1.956 . S
Li1090 O1151 1.970 . S
Li1091 N1141 1.990 . S
Li1091 O1149 1.961 1_455 S
Li1091 O1150 1.970 . S
Li1091 O1151 1.956 . S
C1092 C1094 1.348 . S
C1092 C1095 1.356 . S
C1092 O1148 1.325 . S
N1093 C1096 1.314 . S
N1093 C1097 1.279 . S
C1094 C1092 1.348 . S
C1094 C1096 1.353 . S
C1094 H1152 0.982 . S
C1095 C1092 1.356 . S
C1095 C1097 1.358 . S
C1095 H1153 0.930 . S
C1096 N1093 1.314 . S
C1096 C1094 1.353 . S
C1096 H1154 0.930 . S
C1097 N1093 1.279 . S
C1097 C1095 1.358 . S
C1097 H1155 0.930 . S
C1098 C1101 1.348 . S
C1098 C1102 1.356 . S
C1098 O1149 1.325 . S
C1099 N1100 1.279 . S
C1099 C1102 1.358 . S
C1099 H1156 0.930 . S
N1100 C1099 1.279 . S
N1100 C1103 1.314 . S
C1101 C1098 1.348 . S
C1101 C1103 1.353 . S
C1101 H1157 0.929 . S
C1102 C1098 1.356 . S
C1102 C1099 1.358 . S
C1102 H1158 0.930 . S
C1103 N1100 1.314 . S
C1103 C1101 1.353 . S
C1103 H1159 0.930 . S
C1104 N1105 1.314 . S
C1104 C1109 1.353 . S
C1104 H1110 0.930 . S
N1105 Li1088 1.990 . S
N1105 C1104 1.314 . S
N1105 C1107 1.279 . S
C1106 C1107 1.358 . S
C1106 C1108 1.356 . S
C1106 H1160 0.930 . S
C1107 N1105 1.279 . S
C1107 C1106 1.358 . S
C1107 H1111 0.930 . S
C1108 C1106 1.356 . S
C1108 C1109 1.348 . S
C1109 C1104 1.353 . S
C1109 C1108 1.348 . S
C1109 H1161 0.929 . S
H1110 C1104 0.930 . S
H1111 C1107 0.930 . S
C1112 N1113 1.314 . S
C1112 C1114 1.353 . S
C1112 H1118 0.930 . S
N1113 Li1089 1.986 . S
N1113 C1112 1.314 . S
N1113 C1116 1.279 . S
C1114 C1112 1.353 . S
C1114 C1117 1.348 . S
C1114 H1162 0.929 . S
C1115 C1116 1.358 . S
C1115 C1117 1.356 . S
C1115 H1163 0.930 . S
C1116 N1113 1.279 . S
C1116 C1115 1.358 . S
C1116 H1119 0.930 . S
C1117 C1114 1.348 . S
C1117 C1115 1.356 . S
H1118 C1112 0.930 . S
H1119 C1116 0.930 . S
C1120 C1122 1.348 . S
C1120 C1123 1.356 . S
C1120 O1150 1.325 . S
N1121 C1124 1.314 . S
N1121 C1125 1.279 . S
C1122 C1120 1.348 . S
C1122 C1124 1.353 . S
C1122 H1164 0.929 . S
C1123 C1120 1.356 . S
C1123 C1125 1.358 . S
C1123 H1165 0.930 . S
C1124 N1121 1.314 . S
C1124 C1122 1.353 . S
C1124 H1166 0.930 . S
C1125 N1121 1.279 . S
C1125 C1123 1.358 . S
C1125 H1167 0.930 . S
C1126 C1127 1.348 . S
C1126 C1128 1.356 1_455 S
C1126 O1151 1.325 . S
C1127 C1126 1.348 . S
C1127 C1129 1.353 . S
C1127 H1168 0.929 . S
C1128 C1126 1.356 1_655 S
C1128 C1130 1.358 . S
C1128 H1169 0.930 . S
C1129 C1127 1.353 . S
C1129 N1131 1.314 . S
C1129 H1170 0.930 . S
C1130 C1128 1.358 . S
C1130 N1131 1.279 1_655 S
C1130 H1171 0.930 . S
N1131 C1129 1.314 . S
N1131 C1130 1.279 1_455 S
C1132 C1134 1.353 . S
C1132 N1135 1.314 . S
C1132 H1138 0.930 . S
C1133 N1135 1.279 . S
C1133 C1136 1.358 . S
C1133 H1139 0.930 . S
C1134 C1132 1.353 . S
C1134 C1137 1.348 . S
C1134 H1172 0.929 . S
N1135 Li1090 1.990 . S
N1135 C1132 1.314 . S
N1135 C1133 1.279 . S
C1136 C1133 1.358 . S
C1136 C1137 1.356 . S
C1136 H1173 0.930 . S
C1137 C1134 1.348 . S
C1137 C1136 1.356 . S
H1138 C1132 0.930 . S
H1139 C1133 0.930 . S
C1140 N1141 1.322 . S
C1140 C1142 1.351 1_455 S
C1140 H1146 0.915 1_455 S
N1141 Li1091 1.990 . S
N1141 C1140 1.322 . S
N1141 C1144 1.279 . S
C1142 C1140 1.351 1_655 S
C1142 C1145 1.357 . S
C1142 H1174 0.929 . S
C1143 C1144 1.358 . S
C1143 C1145 1.348 1_455 S
C1143 H1175 0.930 . S
C1144 N1141 1.279 . S
C1144 C1143 1.358 . S
C1144 H1147 0.930 . S
C1145 C1142 1.357 . S
C1145 C1143 1.348 1_655 S
H1146 C1140 0.915 1_655 S
H1147 C1144 0.930 . S
O1148 Li1088 1.956 . S
O1148 Li1089 1.975 1_455 S
O1148 Li1090 1.961 . S
O1148 C1092 1.325 . S
O1149 Li1088 1.970 1_655 S
O1149 Li1089 1.956 . S
O1149 Li1091 1.961 1_655 S
O1149 C1098 1.325 . S
O1150 Li1088 1.961 . S
O1150 Li1090 1.956 . S
O1150 Li1091 1.970 . S
O1150 C1120 1.325 . S
O1151 Li1089 1.965 1_455 S
O1151 Li1090 1.970 . S
O1151 Li1091 1.956 . S
O1151 C1126 1.325 . S
H1152 C1094 0.982 . S
H1153 C1095 0.930 . S
H1154 C1096 0.930 . S
H1155 C1097 0.930 . S
H1156 C1099 0.930 . S
H1157 C1101 0.929 . S
H1158 C1102 0.930 . S
H1159 C1103 0.930 . S
H1160 C1106 0.930 . S
H1161 C1109 0.929 . S
H1162 C1114 0.929 . S
H1163 C1115 0.930 . S
H1164 C1122 0.929 . S
H1165 C1123 0.930 . S
H1166 C1124 0.930 . S
H1167 C1125 0.930 . S
H1168 C1127 0.929 . S
H1169 C1128 0.930 . S
H1170 C1129 0.930 . S
H1171 C1130 0.930 . S
H1172 C1134 0.929 . S
H1173 C1136 0.930 . S
H1174 C1142 0.929 . S
H1175 C1143 0.930 . S
Li1176 N1193 1.990 . S
Li1176 O1236 1.956 . S
Li1176 O1237 1.970 . S
Li1176 O1238 1.961 . S
Li1177 N1201 1.990 . S
Li1177 O1236 1.970 . S
Li1177 O1237 1.956 . S
Li1177 O1239 1.961 . S
Li1178 N1223 1.990 . S
Li1178 O1236 1.961 . S
Li1178 O1238 1.956 . S
Li1178 O1239 1.970 . S
Li1179 N1229 1.990 . S
Li1179 O1237 1.961 . S
Li1179 O1238 1.970 . S
Li1179 O1239 1.956 . S
C1180 C1182 1.348 . S
C1180 C1183 1.356 . S
C1180 O1236 1.325 . S
N1181 C1184 1.314 . S
N1181 C1185 1.279 . S
C1182 C1180 1.348 . S
C1182 C1184 1.353 . S
C1182 H1240 0.929 . S
C1183 C1180 1.356 . S
C1183 C1185 1.358 . S
C1183 H1241 0.930 . S
C1184 N1181 1.314 . S
C1184 C1182 1.353 . S
C1184 H1242 0.930 . S
C1185 N1181 1.279 . S
C1185 C1183 1.358 . S
C1185 H1243 0.930 . S
C1186 C1189 1.348 . S
C1186 C1190 1.356 . S
C1186 O1237 1.325 . S
C1187 N1188 1.279 . S
C1187 C1190 1.358 . S
C1187 H1244 0.930 . S
N1188 C1187 1.279 . S
N1188 C1191 1.314 . S
C1189 C1186 1.348 . S
C1189 C1191 1.353 . S
C1189 H1245 0.929 . S
C1190 C1186 1.356 . S
C1190 C1187 1.358 . S
C1190 H1246 0.930 . S
C1191 N1188 1.314 . S
C1191 C1189 1.353 . S
C1191 H1247 0.930 . S
C1192 N1193 1.314 . S
C1192 C1197 1.353 . S
C1192 H1198 0.930 . S
N1193 Li1176 1.990 . S
N1193 C1192 1.314 . S
N1193 C1195 1.279 . S
C1194 C1195 1.358 . S
C1194 C1196 1.356 . S
C1194 H1248 0.930 . S
C1195 N1193 1.279 . S
C1195 C1194 1.358 . S
C1195 H1199 0.930 . S
C1196 C1194 1.356 . S
C1196 C1197 1.348 . S
C1197 C1192 1.353 . S
C1197 C1196 1.348 . S
C1197 H1249 0.929 . S
H1198 C1192 0.930 . S
H1199 C1195 0.930 . S
C1200 N1201 1.314 . S
C1200 C1202 1.353 . S
C1200 H1206 0.930 . S
N1201 Li1177 1.990 . S
N1201 C1200 1.314 . S
N1201 C1204 1.279 . S
C1202 C1200 1.353 . S
C1202 C1205 1.348 . S
C1202 H1250 0.929 . S
C1203 C1204 1.358 . S
C1203 C1205 1.356 . S
C1203 H1251 0.930 . S
C1204 N1201 1.279 . S
C1204 C1203 1.358 . S
C1204 H1207 0.930 . S
C1205 C1202 1.348 . S
C1205 C1203 1.356 . S
H1206 C1200 0.930 . S
H1207 C1204 0.930 . S
C1208 C1210 1.348 . S
C1208 C1211 1.356 . S
C1208 O1238 1.325 . S
N1209 C1212 1.314 . S
N1209 C1213 1.279 . S
C1210 C1208 1.348 . S
C1210 C1212 1.353 . S
C1210 H1252 0.929 . S
C1211 C1208 1.356 . S
C1211 C1213 1.358 . S
C1211 H1253 0.930 . S
C1212 N1209 1.314 . S
C1212 C1210 1.353 . S
C1212 H1254 0.930 . S
C1213 N1209 1.279 . S
C1213 C1211 1.358 . S
C1213 H1255 0.930 . S
C1214 C1215 1.348 . S
C1214 C1216 1.356 . S
C1214 O1239 1.325 . S
C1215 C1214 1.348 . S
C1215 C1217 1.353 . S
C1215 H1256 0.929 . S
C1216 C1214 1.356 . S
C1216 C1218 1.358 . S
C1216 H1257 0.930 . S
C1217 C1215 1.353 . S
C1217 N1219 1.314 . S
C1217 H1258 0.930 . S
C1218 C1216 1.358 . S
C1218 N1219 1.279 . S
C1218 H1259 0.930 . S
N1219 C1217 1.314 . S
N1219 C1218 1.279 . S
C1220 C1222 1.353 . S
C1220 N1223 1.314 . S
C1220 H1226 0.930 . S
C1221 N1223 1.279 . S
C1221 C1224 1.358 . S
C1221 H1227 0.930 . S
C1222 C1220 1.353 . S
C1222 C1225 1.348 . S
C1222 H1260 0.929 . S
N1223 Li1178 1.990 . S
N1223 C1220 1.314 . S
N1223 C1221 1.279 . S
C1224 C1221 1.358 . S
C1224 C1225 1.356 . S
C1224 H1261 0.930 . S
C1225 C1222 1.348 . S
C1225 C1224 1.356 . S
H1226 C1220 0.930 . S
H1227 C1221 0.930 . S
C1228 N1229 1.314 . S
C1228 C1230 1.353 . S
C1228 H1234 0.930 . S
N1229 Li1179 1.990 . S
N1229 C1228 1.314 . S
N1229 C1232 1.279 . S
C1230 C1228 1.353 . S
C1230 C1233 1.348 . S
C1230 H1262 0.929 . S
C1231 C1232 1.358 . S
C1231 C1233 1.356 . S
C1231 H1263 0.930 . S
C1232 N1229 1.279 . S
C1232 C1231 1.358 . S
C1232 H1235 0.930 . S
C1233 C1230 1.348 . S
C1233 C1231 1.356 . S
H1234 C1228 0.930 . S
H1235 C1232 0.930 . S
O1236 Li1176 1.956 . S
O1236 Li1177 1.970 . S
O1236 Li1178 1.961 . S
O1236 C1180 1.325 . S
O1237 Li1176 1.970 . S
O1237 Li1177 1.956 . S
O1237 Li1179 1.961 . S
O1237 C1186 1.325 . S
O1238 Li1176 1.961 . S
O1238 Li1178 1.956 . S
O1238 Li1179 1.970 . S
O1238 C1208 1.325 . S
O1239 Li1177 1.961 . S
O1239 Li1178 1.970 . S
O1239 Li1179 1.956 . S
O1239 C1214 1.325 . S
H1240 C1182 0.929 . S
H1241 C1183 0.930 . S
H1242 C1184 0.930 . S
H1243 C1185 0.930 . S
H1244 C1187 0.930 . S
H1245 C1189 0.929 . S
H1246 C1190 0.930 . S
H1247 C1191 0.930 . S
H1248 C1194 0.930 . S
H1249 C1197 0.929 . S
H1250 C1202 0.929 . S
H1251 C1203 0.930 . S
H1252 C1210 0.929 . S
H1253 C1211 0.930 . S
H1254 C1212 0.930 . S
H1255 C1213 0.930 . S
H1256 C1215 0.929 . S
H1257 C1216 0.930 . S
H1258 C1217 0.930 . S
H1259 C1218 0.930 . S
H1260 C1222 0.929 . S
H1261 C1224 0.930 . S
H1262 C1230 0.929 . S
H1263 C1231 0.930 . S
H1264 C1272 0.950 . S
H1265 C1277 0.950 . S
H1266 C1274 0.950 . S
H1267 C1276 0.950 . S
H1268 C1278 0.950 . S
H1269 C1280 0.950 . S
H1270 C1282 0.950 . S
H1271 C1283 0.950 . S
C1272 H1264 0.950 . S
C1272 C1273 1.386 . S
C1272 C1274 1.391 . S
C1273 C1272 1.386 . S
C1273 C1277 1.393 . S
C1274 H1266 0.950 . S
C1274 C1272 1.391 . S
C1274 C1275 1.400 . S
C1275 C1274 1.400 . S
C1275 C1276 1.398 . S
C1275 C1281 1.491 . S
C1276 H1267 0.950 . S
C1276 C1275 1.398 . S
C1276 C1277 1.391 . S
C1277 H1265 0.950 . S
C1277 C1273 1.393 . S
C1277 C1276 1.391 . S
C1278 H1268 0.950 . S
C1278 C1279 1.386 . S
C1278 C1280 1.391 . S
C1279 C1278 1.386 . S
C1279 C1283 1.393 . S
C1280 H1269 0.950 . S
C1280 C1278 1.391 . S
C1280 C1281 1.400 . S
C1281 C1275 1.491 . S
C1281 C1280 1.400 . S
C1281 C1282 1.398 . S
C1282 H1270 0.950 . S
C1282 C1281 1.398 . S
C1282 C1283 1.391 . S
C1283 H1271 0.950 . S
C1283 C1279 1.393 . S
C1283 C1282 1.391 . S
H1284 C1292 0.950 . S
H1285 C1297 0.950 . S
H1286 C1294 0.950 . S
H1287 C1296 0.950 . S
H1288 C1298 0.950 . S
H1289 C1300 0.950 . S
H1290 C1302 0.950 . S
H1291 C1303 0.950 . S
C1292 H1284 0.950 . S
C1292 C1293 1.386 . S
C1292 C1294 1.391 . S
C1293 C1292 1.386 . S
C1293 C1297 1.393 . S
C1294 H1286 0.950 . S
C1294 C1292 1.391 . S
C1294 C1295 1.400 . S
C1295 C1294 1.400 . S
C1295 C1296 1.398 . S
C1295 C1301 1.491 . S
C1296 H1287 0.950 . S
C1296 C1295 1.398 . S
C1296 C1297 1.391 . S
C1297 H1285 0.950 . S
C1297 C1293 1.393 . S
C1297 C1296 1.391 . S
C1298 H1288 0.950 . S
C1298 C1299 1.386 . S
C1298 C1300 1.391 . S
C1299 C1298 1.386 . S
C1299 C1303 1.393 . S
C1300 H1289 0.950 . S
C1300 C1298 1.391 . S
C1300 C1301 1.400 . S
C1301 C1295 1.491 . S
C1301 C1300 1.400 . S
C1301 C1302 1.398 . S
C1302 H1290 0.950 . S
C1302 C1301 1.398 . S
C1302 C1303 1.391 . S
C1303 H1291 0.950 . S
C1303 C1299 1.393 . S
C1303 C1302 1.391 . S
H1304 C1312 0.950 . S
H1305 C1317 0.950 . S
H1306 C1314 0.950 . S
H1307 C1316 0.950 . S
H1308 C1318 0.950 . S
H1309 C1320 0.950 . S
H1310 C1322 0.950 . S
H1311 C1323 0.950 . S
C1312 H1304 0.950 . S
C1312 C1313 1.386 . S
C1312 C1314 1.391 . S
C1313 C1312 1.386 . S
C1313 C1317 1.393 . S
C1314 H1306 0.950 . S
C1314 C1312 1.391 . S
C1314 C1315 1.400 . S
C1315 C1314 1.400 . S
C1315 C1316 1.398 . S
C1315 C1321 1.491 . S
C1316 H1307 0.950 . S
C1316 C1315 1.398 . S
C1316 C1317 1.391 . S
C1317 H1305 0.950 . S
C1317 C1313 1.393 . S
C1317 C1316 1.391 . S
C1318 H1308 0.950 . S
C1318 C1319 1.386 . S
C1318 C1320 1.391 . S
C1319 C1318 1.386 . S
C1319 C1323 1.393 . S
C1320 H1309 0.950 . S
C1320 C1318 1.391 . S
C1320 C1321 1.400 . S
C1321 C1315 1.491 . S
C1321 C1320 1.400 . S
C1321 C1322 1.398 . S
C1322 H1310 0.950 . S
C1322 C1321 1.398 . S
C1322 C1323 1.391 . S
C1323 H1311 0.950 . S
C1323 C1319 1.393 . S
C1323 C1322 1.391 . S
H1324 C1332 0.950 . S
H1325 C1337 0.950 . S
H1326 C1334 0.950 . S
H1327 C1336 0.950 1_455 S
H1328 C1338 0.950 . S
H1329 C1340 0.950 . S
H1330 C1342 0.950 . S
H1331 C1343 0.950 . S
C1332 H1324 0.950 . S
C1332 C1333 1.386 1_655 S
C1332 C1334 1.391 . S
C1333 C1332 1.386 1_455 S
C1333 C1337 1.393 1_565 S
C1334 H1326 0.950 . S
C1334 C1332 1.391 . S
C1334 C1335 1.400 . S
C1335 C1334 1.400 . S
C1335 C1336 1.398 1_565 S
C1335 C1341 1.500 . S
C1336 H1327 0.950 1_655 S
C1336 C1335 1.398 1_545 S
C1336 C1337 1.391 1_655 S
C1337 H1325 0.950 . S
C1337 C1333 1.393 1_545 S
C1337 C1336 1.391 1_455 S
C1338 H1328 0.950 . S
C1338 C1339 1.386 . S
C1338 C1340 1.391 . S
C1339 C1338 1.386 . S
C1339 C1343 1.393 1_545 S
C1340 H1329 0.950 . S
C1340 C1338 1.391 . S
C1340 C1341 1.369 1_545 S
C1341 C1335 1.500 . S
C1341 C1340 1.369 1_565 S
C1341 C1342 1.423 . S
C1342 H1330 0.950 . S
C1342 C1341 1.423 . S
C1342 C1343 1.391 . S
C1343 H1331 0.950 . S
C1343 C1339 1.393 1_565 S
C1343 C1342 1.391 . S
H1344 C1352 0.950 . S
H1345 C1357 0.950 . S
H1346 C1354 0.950 . S
H1347 C1356 0.950 . S
H1348 C1358 0.950 . S
H1349 C1360 0.950 . S
H1350 C1362 0.950 . S
H1351 C1363 0.950 . S
C1352 H1344 0.950 . S
C1352 C1353 1.386 . S
C1352 C1354 1.391 . S
C1353 C1352 1.386 . S
C1353 C1357 1.393 . S
C1354 H1346 0.950 . S
C1354 C1352 1.391 . S
C1354 C1355 1.400 . S
C1355 C1354 1.400 . S
C1355 C1356 1.398 . S
C1355 C1361 1.491 . S
C1356 H1347 0.950 . S
C1356 C1355 1.398 . S
C1356 C1357 1.391 . S
C1357 H1345 0.950 . S
C1357 C1353 1.393 . S
C1357 C1356 1.391 . S
C1358 H1348 0.950 . S
C1358 C1359 1.386 . S
C1358 C1360 1.391 . S
C1359 C1358 1.386 . S
C1359 C1363 1.393 . S
C1360 H1349 0.950 . S
C1360 C1358 1.391 . S
C1360 C1361 1.400 . S
C1361 C1355 1.491 . S
C1361 C1360 1.400 . S
C1361 C1362 1.398 . S
C1362 H1350 0.950 . S
C1362 C1361 1.398 . S
C1362 C1363 1.391 . S
C1363 H1351 0.950 . S
C1363 C1359 1.393 . S
C1363 C1362 1.391 . S
H1364 C1372 0.950 . S
H1365 C1377 0.950 . S
H1366 C1374 0.950 . S
H1367 C1376 0.950 . S
H1368 C1378 0.950 . S
H1369 C1380 0.950 . S
H1370 C1382 0.950 . S
H1371 C1383 0.950 . S
C1372 H1364 0.950 . S
C1372 C1373 1.386 . S
C1372 C1374 1.391 . S
C1373 C1372 1.386 . S
C1373 C1377 1.393 . S
C1374 H1366 0.950 . S
C1374 C1372 1.391 . S
C1374 C1375 1.400 . S
C1375 C1374 1.400 . S
C1375 C1376 1.398 . S
C1375 C1381 1.491 . S
C1376 H1367 0.950 . S
C1376 C1375 1.398 . S
C1376 C1377 1.391 . S
C1377 H1365 0.950 . S
C1377 C1373 1.393 . S
C1377 C1376 1.391 . S
C1378 H1368 0.950 . S
C1378 C1379 1.386 . S
C1378 C1380 1.391 . S
C1379 C1378 1.386 . S
C1379 C1383 1.393 . S
C1380 H1369 0.950 . S
C1380 C1378 1.391 . S
C1380 C1381 1.400 . S
C1381 C1375 1.491 . S
C1381 C1380 1.400 . S
C1381 C1382 1.398 . S
C1382 H1370 0.950 . S
C1382 C1381 1.398 . S
C1382 C1383 1.391 . S
C1383 H1371 0.950 . S
C1383 C1379 1.393 . S
C1383 C1382 1.391 . S
H1384 C1392 0.950 . S
H1385 C1397 0.950 . S
H1386 C1394 0.950 . S
H1387 C1396 0.950 . S
H1388 C1398 0.950 . S
H1389 C1400 0.950 . S
H1390 C1402 0.950 . S
H1391 C1403 0.950 . S
C1392 H1384 0.950 . S
C1392 C1393 1.386 . S
C1392 C1394 1.391 . S
C1393 C1392 1.386 . S
C1393 C1397 1.393 . S
C1394 H1386 0.950 . S
C1394 C1392 1.391 . S
C1394 C1395 1.400 . S
C1395 C1394 1.400 . S
C1395 C1396 1.398 . S
C1395 C1401 1.491 . S
C1396 H1387 0.950 . S
C1396 C1395 1.398 . S
C1396 C1397 1.391 . S
C1397 H1385 0.950 . S
C1397 C1393 1.393 . S
C1397 C1396 1.391 . S
C1398 H1388 0.950 . S
C1398 C1399 1.386 . S
C1398 C1400 1.391 . S
C1399 C1398 1.386 . S
C1399 C1403 1.393 . S
C1400 H1389 0.950 . S
C1400 C1398 1.391 . S
C1400 C1401 1.400 . S
C1401 C1395 1.491 . S
C1401 C1400 1.400 . S
C1401 C1402 1.398 . S
C1402 H1390 0.950 . S
C1402 C1401 1.398 . S
C1402 C1403 1.391 . S
C1403 H1391 0.950 . S
C1403 C1399 1.393 . S
C1403 C1402 1.391 . S
H1404 C1412 0.950 . S
H1405 C1417 0.950 . S
H1406 C1414 0.950 . S
H1407 C1416 0.950 . S
H1408 C1418 0.936 1_545 S
H1409 C1420 0.950 . S
H1410 C1422 0.950 . S
H1411 C1423 0.950 . S
C1412 H1404 0.950 . S
C1412 C1413 1.386 . S
C1412 C1414 1.391 . S
C1413 C1412 1.386 . S
C1413 C1417 1.393 . S
C1414 H1406 0.950 . S
C1414 C1412 1.391 . S
C1414 C1415 1.400 . S
C1415 C1414 1.400 . S
C1415 C1416 1.398 . S
C1415 C1421 1.491 . S
C1416 H1407 0.950 . S
C1416 C1415 1.398 . S
C1416 C1417 1.391 . S
C1417 H1405 0.950 . S
C1417 C1413 1.393 . S
C1417 C1416 1.391 . S
C1418 H1408 0.936 1_565 S
C1418 C1419 1.386 . S
C1418 C1420 1.391 . S
C1419 C1418 1.386 . S
C1419 C1423 1.393 . S
C1420 H1409 0.950 . S
C1420 C1418 1.391 . S
C1420 C1421 1.400 . S
C1421 C1415 1.491 . S
C1421 C1420 1.400 . S
C1421 C1422 1.398 . S
C1422 H1410 0.950 . S
C1422 C1421 1.398 . S
C1422 C1423 1.391 . S
C1423 H1411 0.950 . S
C1423 C1419 1.393 . S
C1423 C1422 1.391 . S
H1424 C1432 0.950 . S
H1425 C1437 0.950 . S
H1426 C1434 0.950 . S
H1427 C1436 0.950 . S
H1428 C1438 0.950 . S
H1429 C1440 0.950 . S
H1430 C1442 0.950 . S
H1431 C1443 0.950 . S
C1432 H1424 0.950 . S
C1432 C1433 1.386 . S
C1432 C1434 1.391 . S
C1433 C1432 1.386 . S
C1433 C1437 1.393 . S
C1434 H1426 0.950 . S
C1434 C1432 1.391 . S
C1434 C1435 1.400 . S
C1435 C1434 1.400 . S
C1435 C1436 1.398 . S
C1435 C1441 1.491 . S
C1436 H1427 0.950 . S
C1436 C1435 1.398 . S
C1436 C1437 1.391 . S
C1437 H1425 0.950 . S
C1437 C1433 1.393 . S
C1437 C1436 1.391 . S
C1438 H1428 0.950 . S
C1438 C1439 1.386 . S
C1438 C1440 1.391 . S
C1439 C1438 1.386 . S
C1439 C1443 1.393 . S
C1440 H1429 0.950 . S
C1440 C1438 1.391 . S
C1440 C1441 1.400 . S
C1441 C1435 1.491 . S
C1441 C1440 1.400 . S
C1441 C1442 1.398 . S
C1442 H1430 0.950 . S
C1442 C1441 1.398 . S
C1442 C1443 1.391 . S
C1443 H1431 0.950 . S
C1443 C1439 1.393 . S
C1443 C1442 1.391 . S
H1444 C1452 0.950 . S
H1445 C1457 0.950 . S
H1446 C1454 0.950 . S
H1447 C1456 0.950 . S
H1448 C1458 0.950 . S
H1449 C1460 0.950 . S
H1450 C1462 0.950 . S
H1451 C1463 0.950 . S
C1452 H1444 0.950 . S
C1452 C1453 1.386 . S
C1452 C1454 1.391 . S
C1453 C1452 1.386 . S
C1453 C1457 1.393 . S
C1454 H1446 0.950 . S
C1454 C1452 1.391 . S
C1454 C1455 1.400 . S
C1455 C1454 1.400 . S
C1455 C1456 1.398 . S
C1455 C1461 1.491 . S
C1456 H1447 0.950 . S
C1456 C1455 1.398 . S
C1456 C1457 1.391 . S
C1457 H1445 0.950 . S
C1457 C1453 1.393 . S
C1457 C1456 1.391 . S
C1458 H1448 0.950 . S
C1458 C1459 1.386 . S
C1458 C1460 1.391 . S
C1459 C1458 1.386 . S
C1459 C1463 1.393 . S
C1460 H1449 0.950 . S
C1460 C1458 1.391 . S
C1460 C1461 1.400 . S
C1461 C1455 1.491 . S
C1461 C1460 1.400 . S
C1461 C1462 1.398 . S
C1462 H1450 0.950 . S
C1462 C1461 1.398 . S
C1462 C1463 1.391 . S
C1463 H1451 0.950 . S
C1463 C1459 1.393 . S
C1463 C1462 1.391 . S
H1464 C1472 0.950 . S
H1465 C1477 0.950 . S
H1466 C1474 0.950 . S
H1467 C1476 0.950 . S
H1468 C1478 0.950 . S
H1469 C1480 0.950 . S
H1470 C1482 0.950 . S
H1471 C1483 0.950 . S
C1472 H1464 0.950 . S
C1472 C1473 1.386 . S
C1472 C1474 1.391 . S
C1473 C1472 1.386 . S
C1473 C1477 1.393 . S
C1474 H1466 0.950 . S
C1474 C1472 1.391 . S
C1474 C1475 1.400 . S
C1475 C1474 1.400 . S
C1475 C1476 1.398 . S
C1475 C1481 1.491 . S
C1476 H1467 0.950 . S
C1476 C1475 1.398 . S
C1476 C1477 1.391 . S
C1477 H1465 0.950 . S
C1477 C1473 1.393 . S
C1477 C1476 1.391 . S
C1478 H1468 0.950 . S
C1478 C1479 1.386 . S
C1478 C1480 1.391 . S
C1479 C1478 1.386 . S
C1479 C1483 1.393 . S
C1480 H1469 0.950 . S
C1480 C1478 1.391 . S
C1480 C1481 1.400 . S
C1481 C1475 1.491 . S
C1481 C1480 1.400 . S
C1481 C1482 1.398 . S
C1482 H1470 0.950 . S
C1482 C1481 1.398 . S
C1482 C1483 1.391 . S
C1483 H1471 0.950 . S
C1483 C1479 1.393 . S
C1483 C1482 1.391 . S
H1484 C1492 0.950 . S
H1485 C1497 0.950 . S
H1486 C1494 0.950 . S
H1487 C1496 0.950 . S
H1488 C1498 0.950 . S
H1489 C1500 0.950 . S
H1490 C1502 0.950 . S
H1491 C1503 0.950 . S
C1492 H1484 0.950 . S
C1492 C1493 1.386 . S
C1492 C1494 1.391 . S
C1493 C1492 1.386 . S
C1493 C1497 1.393 . S
C1494 H1486 0.950 . S
C1494 C1492 1.391 . S
C1494 C1495 1.400 . S
C1495 C1494 1.400 . S
C1495 C1496 1.398 . S
C1495 C1501 1.491 . S
C1496 H1487 0.950 . S
C1496 C1495 1.398 . S
C1496 C1497 1.391 . S
C1497 H1485 0.950 . S
C1497 C1493 1.393 . S
C1497 C1496 1.391 . S
C1498 H1488 0.950 . S
C1498 C1499 1.386 . S
C1498 C1500 1.391 . S
C1499 C1498 1.386 . S
C1499 C1503 1.393 . S
C1500 H1489 0.950 . S
C1500 C1498 1.391 . S
C1500 C1501 1.400 . S
C1501 C1495 1.491 . S
C1501 C1500 1.400 . S
C1501 C1502 1.398 . S
C1502 H1490 0.950 . S
C1502 C1501 1.398 . S
C1502 C1503 1.391 . S
C1503 H1491 0.950 . S
C1503 C1499 1.393 . S
C1503 C1502 1.391 . S
H1504 C1512 0.950 . S
H1505 C1517 0.950 . S
H1506 C1514 0.950 . S
H1507 C1516 0.950 . S
H1508 C1518 0.950 . S
H1509 C1520 0.950 . S
H1510 C1522 0.950 . S
H1511 C1523 0.950 . S
C1512 H1504 0.950 . S
C1512 C1513 1.386 . S
C1512 C1514 1.391 . S
C1513 C1512 1.386 . S
C1513 C1517 1.393 . S
C1514 H1506 0.950 . S
C1514 C1512 1.391 . S
C1514 C1515 1.400 . S
C1515 C1514 1.400 . S
C1515 C1516 1.398 . S
C1515 C1521 1.491 . S
C1516 H1507 0.950 . S
C1516 C1515 1.398 . S
C1516 C1517 1.391 . S
C1517 H1505 0.950 . S
C1517 C1513 1.393 . S
C1517 C1516 1.391 . S
C1518 H1508 0.950 . S
C1518 C1519 1.386 . S
C1518 C1520 1.391 . S
C1519 C1518 1.386 . S
C1519 C1523 1.393 . S
C1520 H1509 0.950 . S
C1520 C1518 1.391 . S
C1520 C1521 1.400 . S
C1521 C1515 1.491 . S
C1521 C1520 1.400 . S
C1521 C1522 1.398 . S
C1522 H1510 0.950 . S
C1522 C1521 1.398 . S
C1522 C1523 1.391 . S
C1523 H1511 0.950 . S
C1523 C1519 1.393 . S
C1523 C1522 1.391 . S
H1524 C1532 0.950 . S
H1525 C1537 0.950 . S
H1526 C1534 0.950 . S
H1527 C1536 0.950 . S
H1528 C1538 0.950 . S
H1529 C1540 0.950 . S
H1530 C1542 0.950 . S
H1531 C1543 0.975 . S
C1532 H1524 0.950 . S
C1532 C1533 1.386 . S
C1532 C1534 1.391 . S
C1533 C1532 1.386 . S
C1533 C1537 1.393 . S
C1534 H1526 0.950 . S
C1534 C1532 1.391 . S
C1534 C1535 1.400 . S
C1535 C1534 1.400 . S
C1535 C1536 1.398 . S
C1535 C1541 1.491 . S
C1536 H1527 0.950 . S
C1536 C1535 1.398 . S
C1536 C1537 1.391 . S
C1537 H1525 0.950 . S
C1537 C1533 1.393 . S
C1537 C1536 1.391 . S
C1538 H1528 0.950 . S
C1538 C1539 1.386 . S
C1538 C1540 1.391 . S
C1539 C1538 1.386 . S
C1539 C1543 1.393 . S
C1540 H1529 0.950 . S
C1540 C1538 1.391 . S
C1540 C1541 1.400 . S
C1541 C1535 1.491 . S
C1541 C1540 1.400 . S
C1541 C1542 1.398 . S
C1542 H1530 0.950 . S
C1542 C1541 1.398 . S
C1542 C1543 1.391 . S
C1543 H1531 0.975 . S
C1543 C1539 1.393 . S
C1543 C1542 1.391 . S
H1544 C1552 0.950 . S
H1545 C1557 0.950 . S
H1546 C1554 0.950 . S
H1547 C1556 0.950 . S
H1548 C1558 0.950 . S
H1549 C1560 0.950 . S
H1550 C1562 0.950 . S
H1551 C1563 0.950 . S
C1552 H1544 0.950 . S
C1552 C1553 1.386 . S
C1552 C1554 1.391 . S
C1553 C1552 1.386 . S
C1553 C1557 1.393 . S
C1554 H1546 0.950 . S
C1554 C1552 1.391 . S
C1554 C1555 1.400 . S
C1555 C1554 1.400 . S
C1555 C1556 1.398 . S
C1555 C1561 1.491 . S
C1556 H1547 0.950 . S
C1556 C1555 1.398 . S
C1556 C1557 1.391 . S
C1557 H1545 0.950 . S
C1557 C1553 1.393 . S
C1557 C1556 1.391 . S
C1558 H1548 0.950 . S
C1558 C1559 1.386 . S
C1558 C1560 1.391 . S
C1559 C1558 1.386 . S
C1559 C1563 1.393 . S
C1560 H1549 0.950 . S
C1560 C1558 1.391 . S
C1560 C1561 1.400 . S
C1561 C1555 1.491 . S
C1561 C1560 1.400 . S
C1561 C1562 1.398 . S
C1562 H1550 0.950 . S
C1562 C1561 1.398 . S
C1562 C1563 1.391 . S
C1563 H1551 0.950 . S
C1563 C1559 1.393 . S
C1563 C1562 1.391 . S
H1564 C1572 0.950 . S
H1565 C1577 0.950 . S
H1566 C1574 0.950 . S
H1567 C1576 0.950 . S
H1568 C1578 0.950 . S
H1569 C1580 0.950 . S
H1570 C1582 0.950 . S
H1571 C1583 0.950 . S
C1572 H1564 0.950 . S
C1572 C1573 1.386 . S
C1572 C1574 1.391 . S
C1573 C1572 1.386 . S
C1573 C1577 1.393 1_655 S
C1574 H1566 0.950 . S
C1574 C1572 1.391 . S
C1574 C1575 1.400 . S
C1575 C1574 1.400 . S
C1575 C1576 1.398 1_655 S
C1575 C1581 1.491 . S
C1576 H1567 0.950 . S
C1576 C1575 1.398 1_455 S
C1576 C1577 1.391 . S
C1577 H1565 0.950 . S
C1577 C1573 1.393 1_455 S
C1577 C1576 1.391 . S
C1578 H1568 0.950 . S
C1578 C1579 1.386 1_455 S
C1578 C1580 1.391 . S
C1579 C1578 1.386 1_655 S
C1579 C1583 1.393 . S
C1580 H1569 0.950 . S
C1580 C1578 1.391 . S
C1580 C1581 1.400 1_455 S
C1581 C1575 1.491 . S
C1581 C1580 1.400 1_655 S
C1581 C1582 1.398 . S
C1582 H1570 0.950 . S
C1582 C1581 1.398 . S
C1582 C1583 1.391 . S
C1583 H1571 0.950 . S
C1583 C1579 1.393 . S
C1583 C1582 1.391 . S
H1584 C1592 0.950 . S
H1585 C1597 0.950 . S
H1586 C1594 0.950 . S
H1587 C1596 0.950 . S
H1588 C1598 0.950 . S
H1589 C1600 0.950 . S
H1590 C1602 0.950 . S
H1591 C1603 0.950 . S
C1592 H1584 0.950 . S
C1592 C1593 1.386 . S
C1592 C1594 1.391 . S
C1593 C1592 1.386 . S
C1593 C1597 1.393 . S
C1594 H1586 0.950 . S
C1594 C1592 1.391 . S
C1594 C1595 1.400 . S
C1595 C1594 1.400 . S
C1595 C1596 1.398 . S
C1595 C1601 1.491 . S
C1596 H1587 0.950 . S
C1596 C1595 1.398 . S
C1596 C1597 1.391 . S
C1597 H1585 0.950 . S
C1597 C1593 1.393 . S
C1597 C1596 1.391 . S
C1598 H1588 0.950 . S
C1598 C1599 1.386 . S
C1598 C1600 1.391 . S
C1599 C1598 1.386 . S
C1599 C1603 1.393 . S
C1600 H1589 0.950 . S
C1600 C1598 1.391 . S
C1600 C1601 1.400 . S
C1601 C1595 1.491 . S
C1601 C1600 1.400 . S
C1601 C1602 1.398 . S
C1602 H1590 0.950 . S
C1602 C1601 1.398 . S
C1602 C1603 1.391 . S
C1603 H1591 0.950 . S
C1603 C1599 1.393 . S
C1603 C1602 1.391 . S
H1604 C1612 0.950 . S
H1605 C1617 0.950 . S
H1606 C1614 0.950 . S
H1607 C1616 0.950 . S
H1608 C1618 0.950 . S
H1609 C1620 0.950 . S
H1610 C1622 0.950 . S
H1611 C1623 0.950 . S
C1612 H1604 0.950 . S
C1612 C1613 1.386 . S
C1612 C1614 1.391 . S
C1613 C1612 1.386 . S
C1613 C1617 1.393 . S
C1614 H1606 0.950 . S
C1614 C1612 1.391 . S
C1614 C1615 1.400 . S
C1615 C1614 1.400 . S
C1615 C1616 1.398 . S
C1615 C1621 1.491 . S
C1616 H1607 0.950 . S
C1616 C1615 1.398 . S
C1616 C1617 1.391 . S
C1617 H1605 0.950 . S
C1617 C1613 1.393 . S
C1617 C1616 1.391 . S
C1618 H1608 0.950 . S
C1618 C1619 1.386 . S
C1618 C1620 1.391 . S
C1619 C1618 1.386 . S
C1619 C1623 1.393 . S
C1620 H1609 0.950 . S
C1620 C1618 1.391 . S
C1620 C1621 1.400 . S
C1621 C1615 1.491 . S
C1621 C1620 1.400 . S
C1621 C1622 1.398 . S
C1622 H1610 0.950 . S
C1622 C1621 1.398 . S
C1622 C1623 1.391 . S
C1623 H1611 0.950 . S
C1623 C1619 1.393 . S
C1623 C1622 1.391 . S
H1624 C1632 0.950 . S
H1625 C1637 0.950 1_565 S
H1626 C1634 0.950 . S
H1627 C1636 0.950 . S
H1628 C1638 0.950 . S
H1629 C1640 0.950 . S
H1630 C1642 0.950 . S
H1631 C1643 0.950 . S
C1632 H1624 0.950 . S
C1632 C1633 1.390 . S
C1632 C1634 1.391 . S
C1633 C1632 1.390 . S
C1633 C1637 1.389 1_556 S
C1634 H1626 0.950 . S
C1634 C1632 1.391 . S
C1634 C1635 1.400 . S
C1635 C1634 1.400 . S
C1635 C1636 1.398 1_546 S
C1635 C1641 1.491 1_545 S
C1636 H1627 0.950 . S
C1636 C1635 1.398 1_564 S
C1636 C1637 1.391 1_565 S
C1637 H1625 0.950 1_545 S
C1637 C1633 1.389 1_554 S
C1637 C1636 1.391 1_545 S
C1638 H1628 0.950 . S
C1638 C1639 1.386 1_554 S
C1638 C1640 1.391 . S
C1639 C1638 1.386 1_556 S
C1639 C1643 1.393 . S
C1640 H1629 0.950 . S
C1640 C1638 1.391 . S
C1640 C1641 1.400 1_554 S
C1641 C1635 1.491 1_565 S
C1641 C1640 1.400 1_556 S
C1641 C1642 1.398 1_565 S
C1642 H1630 0.950 . S
C1642 C1641 1.398 1_545 S
C1642 C1643 1.391 1_545 S
C1643 H1631 0.950 . S
C1643 C1639 1.393 . S
C1643 C1642 1.391 1_565 S
H1644 C1652 0.950 . S
H1645 C1657 0.950 . S
H1646 C1654 0.950 . S
H1647 C1656 0.950 . S
H1648 C1658 0.950 . S
H1649 C1660 0.950 . S
H1650 C1662 0.950 . S
H1651 C1663 0.950 . S
C1652 H1644 0.950 . S
C1652 C1653 1.386 . S
C1652 C1654 1.391 . S
C1653 C1652 1.386 . S
C1653 C1657 1.393 . S
C1654 H1646 0.950 . S
C1654 C1652 1.391 . S
C1654 C1655 1.400 . S
C1655 C1654 1.400 . S
C1655 C1656 1.398 . S
C1655 C1661 1.491 . S
C1656 H1647 0.950 . S
C1656 C1655 1.398 . S
C1656 C1657 1.391 . S
C1657 H1645 0.950 . S
C1657 C1653 1.393 . S
C1657 C1656 1.391 . S
C1658 H1648 0.950 . S
C1658 C1659 1.386 . S
C1658 C1660 1.391 . S
C1659 C1658 1.386 . S
C1659 C1663 1.393 . S
C1660 H1649 0.950 . S
C1660 C1658 1.391 . S
C1660 C1661 1.400 . S
C1661 C1655 1.491 . S
C1661 C1660 1.400 . S
C1661 C1662 1.398 . S
C1662 H1650 0.950 . S
C1662 C1661 1.398 . S
C1662 C1663 1.391 . S
C1663 H1651 0.950 . S
C1663 C1659 1.393 . S
C1663 C1662 1.391 . S
H1664 C1672 0.950 . S
H1665 C1677 0.950 . S
H1666 C1674 0.950 . S
H1667 C1676 0.950 1_565 S
H1668 C1678 0.950 . S
H1669 C1680 0.950 . S
H1670 C1682 0.950 . S
H1671 C1683 0.950 . S
C1672 H1664 0.950 . S
C1672 C1673 1.386 . S
C1672 C1674 1.391 . S
C1673 C1672 1.386 . S
C1673 C1677 1.393 1_545 S
C1674 H1666 0.950 . S
C1674 C1672 1.391 . S
C1674 C1675 1.400 . S
C1675 C1674 1.400 . S
C1675 C1676 1.398 . S
C1675 C1681 1.491 . S
C1676 H1667 0.950 1_545 S
C1676 C1675 1.398 . S
C1676 C1677 1.391 1_545 S
C1677 H1665 0.950 . S
C1677 C1673 1.393 1_565 S
C1677 C1676 1.391 1_565 S
C1678 H1668 0.950 . S
C1678 C1679 1.386 . S
C1678 C1680 1.391 . S
C1679 C1678 1.386 . S
C1679 C1683 1.393 . S
C1680 H1669 0.950 . S
C1680 C1678 1.391 . S
C1680 C1681 1.400 . S
C1681 C1675 1.491 . S
C1681 C1680 1.400 . S
C1681 C1682 1.398 . S
C1682 H1670 0.950 . S
C1682 C1681 1.398 . S
C1682 C1683 1.391 . S
C1683 H1671 0.950 . S
C1683 C1679 1.393 . S
C1683 C1682 1.391 . S
H1684 C1692 0.950 . S
H1685 C1697 0.950 . S
H1686 C1694 0.950 . S
H1687 C1696 0.950 . S
H1688 C1698 0.950 . S
H1689 C1700 0.950 . S
H1690 C1702 0.950 . S
H1691 C1703 0.950 . S
C1692 H1684 0.950 . S
C1692 C1693 1.386 . S
C1692 C1694 1.391 . S
C1693 C1692 1.386 . S
C1693 C1697 1.393 . S
C1694 H1686 0.950 . S
C1694 C1692 1.391 . S
C1694 C1695 1.400 . S
C1695 C1694 1.400 . S
C1695 C1696 1.398 . S
C1695 C1701 1.491 . S
C1696 H1687 0.950 . S
C1696 C1695 1.398 . S
C1696 C1697 1.391 . S
C1697 H1685 0.950 . S
C1697 C1693 1.393 . S
C1697 C1696 1.391 . S
C1698 H1688 0.950 . S
C1698 C1699 1.386 . S
C1698 C1700 1.391 . S
C1699 C1698 1.386 . S
C1699 C1703 1.393 . S
C1700 H1689 0.950 . S
C1700 C1698 1.391 . S
C1700 C1701 1.400 . S
C1701 C1695 1.491 . S
C1701 C1700 1.400 . S
C1701 C1702 1.398 . S
C1702 H1690 0.950 . S
C1702 C1701 1.398 . S
C1702 C1703 1.391 . S
C1703 H1691 0.950 . S
C1703 C1699 1.393 . S
C1703 C1702 1.391 . S
H1704 C1712 0.950 . S
H1705 C1717 0.950 . S
H1706 C1714 0.950 . S
H1707 C1716 0.950 . S
H1708 C1718 0.950 . S
H1709 C1720 0.950 . S
H1710 C1722 0.950 . S
H1711 C1723 0.950 . S
C1712 H1704 0.950 . S
C1712 C1713 1.386 . S
C1712 C1714 1.391 . S
C1713 C1712 1.386 . S
C1713 C1717 1.393 1_565 S
C1714 H1706 0.950 . S
C1714 C1712 1.391 . S
C1714 C1715 1.400 1_565 S
C1715 C1714 1.400 1_545 S
C1715 C1716 1.398 . S
C1715 C1721 1.491 . S
C1716 H1707 0.950 . S
C1716 C1715 1.398 . S
C1716 C1717 1.391 . S
C1717 H1705 0.950 . S
C1717 C1713 1.393 1_545 S
C1717 C1716 1.391 . S
C1718 H1708 0.950 . S
C1718 C1719 1.386 . S
C1718 C1720 1.391 . S
C1719 C1718 1.386 . S
C1719 C1723 1.393 . S
C1720 H1709 0.950 . S
C1720 C1718 1.391 . S
C1720 C1721 1.400 . S
C1721 C1715 1.491 . S
C1721 C1720 1.400 . S
C1721 C1722 1.398 . S
C1722 H1710 0.950 . S
C1722 C1721 1.398 . S
C1722 C1723 1.391 . S
C1723 H1711 0.950 . S
C1723 C1719 1.393 . S
C1723 C1722 1.391 . S
H1724 C1732 0.950 . S
H1725 C1737 0.950 . S
H1726 C1734 0.950 . S
H1727 C1736 0.950 . S
H1728 C1738 0.950 . S
H1729 C1740 0.950 . S
H1730 C1742 0.950 . S
H1731 C1743 0.950 . S
C1732 H1724 0.950 . S
C1732 C1733 1.386 . S
C1732 C1734 1.391 . S
C1733 C1732 1.386 . S
C1733 C1737 1.393 . S
C1734 H1726 0.950 . S
C1734 C1732 1.391 . S
C1734 C1735 1.400 . S
C1735 C1734 1.400 . S
C1735 C1736 1.398 . S
C1735 C1741 1.491 . S
C1736 H1727 0.950 . S
C1736 C1735 1.398 . S
C1736 C1737 1.391 . S
C1737 H1725 0.950 . S
C1737 C1733 1.393 . S
C1737 C1736 1.391 . S
C1738 H1728 0.950 . S
C1738 C1739 1.386 . S
C1738 C1740 1.391 . S
C1739 C1738 1.386 . S
C1739 C1743 1.393 . S
C1740 H1729 0.950 . S
C1740 C1738 1.391 . S
C1740 C1741 1.400 . S
C1741 C1735 1.491 . S
C1741 C1740 1.400 . S
C1741 C1742 1.398 . S
C1742 H1730 0.950 . S
C1742 C1741 1.398 . S
C1742 C1743 1.391 . S
C1743 H1731 0.950 . S
C1743 C1739 1.393 . S
C1743 C1742 1.391 . S
H1744 C1752 0.950 . S
H1745 C1757 0.950 . S
H1746 C1754 0.950 . S
H1747 C1756 0.950 . S
H1748 C1758 0.950 . S
H1749 C1760 0.950 . S
H1750 C1762 0.950 . S
H1751 C1763 0.950 . S
C1752 H1744 0.950 . S
C1752 C1753 1.386 . S
C1752 C1754 1.391 . S
C1753 C1752 1.386 . S
C1753 C1757 1.393 . S
C1754 H1746 0.950 . S
C1754 C1752 1.391 . S
C1754 C1755 1.400 . S
C1755 C1754 1.400 . S
C1755 C1756 1.398 . S
C1755 C1761 1.491 . S
C1756 H1747 0.950 . S
C1756 C1755 1.398 . S
C1756 C1757 1.391 . S
C1757 H1745 0.950 . S
C1757 C1753 1.393 . S
C1757 C1756 1.391 . S
C1758 H1748 0.950 . S
C1758 C1759 1.386 . S
C1758 C1760 1.391 . S
C1759 C1758 1.386 . S
C1759 C1763 1.393 . S
C1760 H1749 0.950 . S
C1760 C1758 1.391 . S
C1760 C1761 1.400 . S
C1761 C1755 1.491 . S
C1761 C1760 1.400 . S
C1761 C1762 1.398 . S
C1762 H1750 0.950 . S
C1762 C1761 1.398 . S
C1762 C1763 1.391 . S
C1763 H1751 0.950 . S
C1763 C1759 1.393 . S
C1763 C1762 1.391 . S
H1764 C1772 0.950 . S
H1765 C1777 0.950 . S
H1766 C1774 0.957 . S
H1767 C1776 0.950 . S
H1768 C1778 0.950 . S
H1769 C1780 0.950 . S
H1770 C1782 0.922 1_565 S
H1771 C1783 0.950 . S
C1772 H1764 0.950 . S
C1772 C1773 1.386 . S
C1772 C1774 1.391 . S
C1773 C1772 1.386 . S
C1773 C1777 1.393 . S
C1774 H1766 0.957 . S
C1774 C1772 1.391 . S
C1774 C1775 1.400 . S
C1775 C1774 1.400 . S
C1775 C1776 1.398 . S
C1775 C1781 1.491 . S
C1776 H1767 0.950 . S
C1776 C1775 1.398 . S
C1776 C1777 1.391 . S
C1777 H1765 0.950 . S
C1777 C1773 1.393 . S
C1777 C1776 1.391 . S
C1778 H1768 0.950 . S
C1778 C1779 1.386 . S
C1778 C1780 1.391 . S
C1779 C1778 1.386 . S
C1779 C1783 1.393 1_545 S
C1780 H1769 0.950 . S
C1780 C1778 1.391 . S
C1780 C1781 1.400 . S
C1781 C1775 1.491 . S
C1781 C1780 1.400 . S
C1781 C1782 1.449 . S
C1782 H1770 0.922 1_545 S
C1782 C1781 1.449 . S
C1782 C1783 1.370 1_545 S
C1783 H1771 0.950 . S
C1783 C1779 1.393 1_565 S
C1783 C1782 1.370 1_565 S
H1784 C1792 0.950 . S
H1785 C1797 0.950 . S
H1786 C1794 0.950 . S
H1787 C1796 0.950 . S
H1788 C1798 0.950 . S
H1789 C1800 0.950 . S
H1790 C1802 0.950 . S
H1791 C1803 0.950 . S
C1792 H1784 0.950 . S
C1792 C1793 1.386 . S
C1792 C1794 1.391 . S
C1793 C1792 1.386 . S
C1793 C1797 1.393 . S
C1794 H1786 0.950 . S
C1794 C1792 1.391 . S
C1794 C1795 1.400 . S
C1795 C1794 1.400 . S
C1795 C1796 1.398 . S
C1795 C1801 1.491 . S
C1796 H1787 0.950 . S
C1796 C1795 1.398 . S
C1796 C1797 1.391 . S
C1797 H1785 0.950 . S
C1797 C1793 1.393 . S
C1797 C1796 1.391 . S
C1798 H1788 0.950 . S
C1798 C1799 1.386 . S
C1798 C1800 1.391 . S
C1799 C1798 1.386 . S
C1799 C1803 1.393 . S
C1800 H1789 0.950 . S
C1800 C1798 1.391 . S
C1800 C1801 1.400 . S
C1801 C1795 1.491 . S
C1801 C1800 1.400 . S
C1801 C1802 1.398 . S
C1802 H1790 0.950 . S
C1802 C1801 1.398 . S
C1802 C1803 1.391 . S
C1803 H1791 0.950 . S
C1803 C1799 1.393 . S
C1803 C1802 1.391 . S
H1804 C1812 0.950 . S
H1805 C1817 0.950 . S
H1806 C1814 0.950 . S
H1807 C1816 0.950 . S
H1808 C1818 0.950 . S
H1809 C1820 0.950 . S
H1810 C1822 0.950 . S
H1811 C1823 0.950 . S
C1812 H1804 0.950 . S
C1812 C1813 1.386 . S
C1812 C1814 1.391 . S
C1813 C1812 1.386 . S
C1813 C1817 1.393 . S
C1814 H1806 0.950 . S
C1814 C1812 1.391 . S
C1814 C1815 1.400 . S
C1815 C1814 1.400 . S
C1815 C1816 1.398 . S
C1815 C1821 1.491 . S
C1816 H1807 0.950 . S
C1816 C1815 1.398 . S
C1816 C1817 1.391 . S
C1817 H1805 0.950 . S
C1817 C1813 1.393 . S
C1817 C1816 1.391 . S
C1818 H1808 0.950 . S
C1818 C1819 1.386 . S
C1818 C1820 1.391 . S
C1819 C1818 1.386 . S
C1819 C1823 1.393 . S
C1820 H1809 0.950 . S
C1820 C1818 1.391 . S
C1820 C1821 1.400 . S
C1821 C1815 1.491 . S
C1821 C1820 1.400 . S
C1821 C1822 1.398 . S
C1822 H1810 0.950 . S
C1822 C1821 1.398 . S
C1822 C1823 1.391 . S
C1823 H1811 0.950 . S
C1823 C1819 1.393 . S
C1823 C1822 1.391 . S
H1824 C1832 0.950 . S
H1825 C1837 0.950 . S
H1826 C1834 0.950 . S
H1827 C1836 0.950 . S
H1828 C1838 0.950 . S
H1829 C1840 0.950 . S
H1830 C1842 0.950 . S
H1831 C1843 0.950 . S
C1832 H1824 0.950 . S
C1832 C1833 1.386 . S
C1832 C1834 1.391 . S
C1833 C1832 1.386 . S
C1833 C1837 1.393 . S
C1834 H1826 0.950 . S
C1834 C1832 1.391 . S
C1834 C1835 1.400 . S
C1835 C1834 1.400 . S
C1835 C1836 1.398 . S
C1835 C1841 1.491 . S
C1836 H1827 0.950 . S
C1836 C1835 1.398 . S
C1836 C1837 1.391 . S
C1837 H1825 0.950 . S
C1837 C1833 1.393 . S
C1837 C1836 1.391 . S
C1838 H1828 0.950 . S
C1838 C1839 1.386 . S
C1838 C1840 1.391 . S
C1839 C1838 1.386 . S
C1839 C1843 1.393 . S
C1840 H1829 0.950 . S
C1840 C1838 1.391 . S
C1840 C1841 1.400 . S
C1841 C1835 1.491 . S
C1841 C1840 1.400 . S
C1841 C1842 1.398 . S
C1842 H1830 0.950 . S
C1842 C1841 1.398 . S
C1842 C1843 1.391 . S
C1843 H1831 0.950 . S
C1843 C1839 1.393 . S
C1843 C1842 1.391 . S
H1844 C1852 0.942 1_455 S
H1845 C1857 0.950 1_565 S
H1846 C1854 0.950 . S
H1847 C1856 0.950 1_565 S
H1848 C1858 0.950 . S
H1849 C1860 1.004 . S
H1850 C1862 0.950 . S
H1851 C1863 0.950 . S
C1852 H1844 0.942 1_655 S
C1852 C1853 1.386 . S
C1852 C1854 1.391 . S
C1853 C1852 1.386 . S
C1853 C1857 1.393 . S
C1854 H1846 0.950 . S
C1854 C1852 1.391 . S
C1854 C1855 1.400 . S
C1855 C1854 1.400 . S
C1855 C1856 1.398 . S
C1855 C1861 1.491 . S
C1856 H1847 0.950 1_545 S
C1856 C1855 1.398 . S
C1856 C1857 1.391 . S
C1857 H1845 0.950 1_545 S
C1857 C1853 1.393 . S
C1857 C1856 1.391 . S
C1858 H1848 0.950 . S
C1858 C1859 1.386 . S
C1858 C1860 1.391 . S
C1859 C1858 1.386 . S
C1859 C1863 1.393 . S
C1860 H1849 1.004 . S
C1860 C1858 1.391 . S
C1860 C1861 1.400 . S
C1861 C1855 1.491 . S
C1861 C1860 1.400 . S
C1861 C1862 1.398 . S
C1862 H1850 0.950 . S
C1862 C1861 1.398 . S
C1862 C1863 1.391 . S
C1863 H1851 0.950 . S
C1863 C1859 1.393 . S
C1863 C1862 1.391 . S
H1864 C1872 0.950 . S
H1865 C1877 0.950 . S
H1866 C1874 0.950 . S
H1867 C1876 0.950 . S
H1868 C1878 0.950 . S
H1869 C1880 0.950 . S
H1870 C1882 0.950 . S
H1871 C1883 0.950 . S
C1872 H1864 0.950 . S
C1872 C1873 1.386 . S
C1872 C1874 1.391 . S
C1873 C1872 1.386 . S
C1873 C1877 1.393 . S
C1874 H1866 0.950 . S
C1874 C1872 1.391 . S
C1874 C1875 1.400 . S
C1875 C1874 1.400 . S
C1875 C1876 1.398 . S
C1875 C1881 1.491 . S
C1876 H1867 0.950 . S
C1876 C1875 1.398 . S
C1876 C1877 1.391 . S
C1877 H1865 0.950 . S
C1877 C1873 1.393 . S
C1877 C1876 1.391 . S
C1878 H1868 0.950 . S
C1878 C1879 1.386 . S
C1878 C1880 1.391 . S
C1879 C1878 1.386 . S
C1879 C1883 1.393 . S
C1880 H1869 0.950 . S
C1880 C1878 1.391 . S
C1880 C1881 1.400 . S
C1881 C1875 1.491 . S
C1881 C1880 1.400 . S
C1881 C1882 1.398 . S
C1882 H1870 0.950 . S
C1882 C1881 1.398 . S
C1882 C1883 1.391 . S
C1883 H1871 0.950 . S
C1883 C1879 1.393 . S
C1883 C1882 1.391 . S
H1884 C1892 0.950 . S
H1885 C1897 0.950 1_655 S
H1886 C1894 0.950 . S
H1887 C1896 0.950 . S
H1888 C1898 0.950 . S
H1889 C1900 0.950 . S
H1890 C1902 0.950 . S
H1891 C1903 0.950 . S
C1892 H1884 0.950 . S
C1892 C1893 1.386 . S
C1892 C1894 1.391 . S
C1893 C1892 1.386 . S
C1893 C1897 1.393 . S
C1894 H1886 0.950 . S
C1894 C1892 1.391 . S
C1894 C1895 1.400 . S
C1895 C1894 1.400 . S
C1895 C1896 1.398 . S
C1895 C1901 1.491 . S
C1896 H1887 0.950 . S
C1896 C1895 1.398 . S
C1896 C1897 1.391 . S
C1897 H1885 0.950 1_455 S
C1897 C1893 1.393 . S
C1897 C1896 1.391 . S
C1898 H1888 0.950 . S
C1898 C1899 1.386 . S
C1898 C1900 1.391 . S
C1899 C1898 1.386 . S
C1899 C1903 1.393 . S
C1900 H1889 0.950 . S
C1900 C1898 1.391 . S
C1900 C1901 1.400 . S
C1901 C1895 1.491 . S
C1901 C1900 1.400 . S
C1901 C1902 1.398 . S
C1902 H1890 0.950 . S
C1902 C1901 1.398 . S
C1902 C1903 1.391 . S
C1903 H1891 0.950 . S
C1903 C1899 1.393 . S
C1903 C1902 1.391 . S
H1904 C1912 0.950 . S
H1905 C1917 0.950 . S
H1906 C1914 0.950 . S
H1907 C1916 0.950 . S
H1908 C1918 0.950 . S
H1909 C1920 0.950 . S
H1910 C1922 0.950 . S
H1911 C1923 0.950 . S
C1912 H1904 0.950 . S
C1912 C1913 1.386 . S
C1912 C1914 1.391 . S
C1913 C1912 1.386 . S
C1913 C1917 1.393 . S
C1914 H1906 0.950 . S
C1914 C1912 1.391 . S
C1914 C1915 1.400 . S
C1915 C1914 1.400 . S
C1915 C1916 1.398 . S
C1915 C1921 1.491 . S
C1916 H1907 0.950 . S
C1916 C1915 1.398 . S
C1916 C1917 1.391 . S
C1917 H1905 0.950 . S
C1917 C1913 1.393 . S
C1917 C1916 1.391 . S
C1918 H1908 0.950 . S
C1918 C1919 1.386 . S
C1918 C1920 1.391 . S
C1919 C1918 1.386 . S
C1919 C1923 1.393 . S
C1920 H1909 0.950 . S
C1920 C1918 1.391 . S
C1920 C1921 1.400 . S
C1921 C1915 1.491 . S
C1921 C1920 1.400 . S
C1921 C1922 1.398 . S
C1922 H1910 0.950 . S
C1922 C1921 1.398 . S
C1922 C1923 1.391 . S
C1923 H1911 0.950 . S
C1923 C1919 1.393 . S
C1923 C1922 1.391 . S
H1924 C1932 0.950 . S
H1925 C1937 0.950 . S
H1926 C1934 0.950 . S
H1927 C1936 0.950 . S
H1928 C1938 0.950 1_455 S
H1929 C1940 0.950 1_554 S
H1930 C1942 0.950 . S
H1931 C1943 0.950 . S
C1932 H1924 0.950 . S
C1932 C1933 1.386 . S
C1932 C1934 1.391 1_554 S
C1933 C1932 1.386 . S
C1933 C1937 1.393 . S
C1934 H1926 0.950 . S
C1934 C1932 1.391 1_556 S
C1934 C1935 1.389 1_556 S
C1935 C1934 1.389 1_554 S
C1935 C1936 1.448 . S
C1935 C1941 1.455 1_554 S
C1936 H1927 0.950 . S
C1936 C1935 1.448 . S
C1936 C1937 1.391 . S
C1937 H1925 0.950 . S
C1937 C1933 1.393 . S
C1937 C1936 1.391 . S
C1938 H1928 0.950 1_655 S
C1938 C1939 1.386 . S
C1938 C1940 1.391 . S
C1939 C1938 1.386 . S
C1939 C1943 1.393 . S
C1940 H1929 0.950 1_556 S
C1940 C1938 1.391 . S
C1940 C1941 1.400 . S
C1941 C1935 1.455 1_556 S
C1941 C1940 1.400 . S
C1941 C1942 1.398 . S
C1942 H1930 0.950 . S
C1942 C1941 1.398 . S
C1942 C1943 1.391 . S
C1943 H1931 0.950 . S
C1943 C1939 1.393 . S
C1943 C1942 1.391 . S
H1944 C1952 0.950 . S
H1945 C1957 0.950 . S
H1946 C1954 0.950 . S
H1947 C1956 0.950 . S
H1948 C1958 0.950 . S
H1949 C1960 0.950 . S
H1950 C1962 0.950 . S
H1951 C1963 0.950 . S
C1952 H1944 0.950 . S
C1952 C1953 1.386 . S
C1952 C1954 1.391 . S
C1953 C1952 1.386 . S
C1953 C1957 1.393 . S
C1954 H1946 0.950 . S
C1954 C1952 1.391 . S
C1954 C1955 1.400 . S
C1955 C1954 1.400 . S
C1955 C1956 1.398 . S
C1955 C1961 1.491 . S
C1956 H1947 0.950 . S
C1956 C1955 1.398 . S
C1956 C1957 1.391 . S
C1957 H1945 0.950 . S
C1957 C1953 1.393 . S
C1957 C1956 1.391 . S
C1958 H1948 0.950 . S
C1958 C1959 1.386 . S
C1958 C1960 1.391 . S
C1959 C1958 1.386 . S
C1959 C1963 1.393 . S
C1960 H1949 0.950 . S
C1960 C1958 1.391 . S
C1960 C1961 1.400 . S
C1961 C1955 1.491 . S
C1961 C1960 1.400 . S
C1961 C1962 1.398 . S
C1962 H1950 0.950 . S
C1962 C1961 1.398 . S
C1962 C1963 1.391 . S
C1963 H1951 0.950 . S
C1963 C1959 1.393 . S
C1963 C1962 1.391 . S
H1964 C1972 0.953 . S
H1965 C1977 0.950 . S
H1966 C1974 0.950 . S
H1967 C1976 0.950 . S
H1968 C1978 0.950 . S
H1969 C1980 0.950 . S
H1970 C1982 0.950 . S
H1971 C1983 0.950 . S
C1972 H1964 0.953 . S
C1972 C1973 1.381 1_656 S
C1972 C1974 1.393 . S
C1973 C1972 1.381 1_454 S
C1973 C1977 1.393 . S
C1974 H1966 0.950 . S
C1974 C1972 1.393 . S
C1974 C1975 1.400 1_655 S
C1975 C1974 1.400 1_455 S
C1975 C1976 1.398 1_556 S
C1975 C1981 1.491 . S
C1976 H1967 0.950 . S
C1976 C1975 1.398 1_554 S
C1976 C1977 1.391 . S
C1977 H1965 0.950 . S
C1977 C1973 1.393 . S
C1977 C1976 1.391 . S
C1978 H1968 0.950 . S
C1978 C1979 1.386 . S
C1978 C1980 1.391 . S
C1979 C1978 1.386 . S
C1979 C1983 1.393 1_455 S
C1980 H1969 0.950 . S
C1980 C1978 1.391 . S
C1980 C1981 1.400 . S
C1981 C1975 1.491 . S
C1981 C1980 1.400 . S
C1981 C1982 1.398 1_455 S
C1982 H1970 0.950 . S
C1982 C1981 1.398 1_655 S
C1982 C1983 1.391 . S
C1983 H1971 0.950 . S
C1983 C1979 1.393 1_655 S
C1983 C1982 1.391 . S
H1984 C1992 0.950 . S
H1985 C1997 0.950 . S
H1986 C1994 0.950 . S
H1987 C1996 0.950 . S
H1988 C1998 0.950 . S
H1989 C2000 0.950 . S
H1990 C2002 0.950 . S
H1991 C2003 0.950 . S
C1992 H1984 0.950 . S
C1992 C1993 1.386 . S
C1992 C1994 1.391 . S
C1993 C1992 1.386 . S
C1993 C1997 1.393 . S
C1994 H1986 0.950 . S
C1994 C1992 1.391 . S
C1994 C1995 1.400 . S
C1995 C1994 1.400 . S
C1995 C1996 1.398 . S
C1995 C2001 1.491 . S
C1996 H1987 0.950 . S
C1996 C1995 1.398 . S
C1996 C1997 1.391 . S
C1997 H1985 0.950 . S
C1997 C1993 1.393 . S
C1997 C1996 1.391 . S
C1998 H1988 0.950 . S
C1998 C1999 1.386 . S
C1998 C2000 1.391 . S
C1999 C1998 1.386 . S
C1999 C2003 1.393 . S
C2000 H1989 0.950 . S
C2000 C1998 1.391 . S
C2000 C2001 1.400 . S
C2001 C1995 1.491 . S
C2001 C2000 1.400 . S
C2001 C2002 1.398 . S
C2002 H1990 0.950 . S
C2002 C2001 1.398 . S
C2002 C2003 1.391 . S
C2003 H1991 0.950 . S
C2003 C1999 1.393 . S
C2003 C2002 1.391 . S
H2004 C2012 0.950 . S
H2005 C2017 0.950 . S
H2006 C2014 0.950 . S
H2007 C2016 0.950 . S
H2008 C2018 0.950 . S
H2009 C2020 0.950 . S
H2010 C2022 0.950 . S
H2011 C2023 0.950 . S
C2012 H2004 0.950 . S
C2012 C2013 1.386 . S
C2012 C2014 1.391 . S
C2013 C2012 1.386 . S
C2013 C2017 1.393 . S
C2014 H2006 0.950 . S
C2014 C2012 1.391 . S
C2014 C2015 1.400 . S
C2015 C2014 1.400 . S
C2015 C2016 1.398 . S
C2015 C2021 1.491 . S
C2016 H2007 0.950 . S
C2016 C2015 1.398 . S
C2016 C2017 1.391 . S
C2017 H2005 0.950 . S
C2017 C2013 1.393 . S
C2017 C2016 1.391 . S
C2018 H2008 0.950 . S
C2018 C2019 1.386 . S
C2018 C2020 1.391 . S
C2019 C2018 1.386 . S
C2019 C2023 1.393 . S
C2020 H2009 0.950 . S
C2020 C2018 1.391 . S
C2020 C2021 1.400 . S
C2021 C2015 1.491 . S
C2021 C2020 1.400 . S
C2021 C2022 1.398 . S
C2022 H2010 0.950 . S
C2022 C2021 1.398 . S
C2022 C2023 1.391 . S
C2023 H2011 0.950 . S
C2023 C2019 1.393 . S
C2023 C2022 1.391 . S
H2024 C2032 0.950 . S
H2025 C2037 0.950 . S
H2026 C2034 0.950 . S
H2027 C2036 0.950 . S
H2028 C2038 0.950 . S
H2029 C2040 0.950 . S
H2030 C2042 0.950 . S
H2031 C2043 0.950 . S
C2032 H2024 0.950 . S
C2032 C2033 1.386 . S
C2032 C2034 1.391 . S
C2033 C2032 1.386 . S
C2033 C2037 1.393 . S
C2034 H2026 0.950 . S
C2034 C2032 1.391 . S
C2034 C2035 1.400 . S
C2035 C2034 1.400 . S
C2035 C2036 1.398 . S
C2035 C2041 1.491 . S
C2036 H2027 0.950 . S
C2036 C2035 1.398 . S
C2036 C2037 1.391 . S
C2037 H2025 0.950 . S
C2037 C2033 1.393 . S
C2037 C2036 1.391 . S
C2038 H2028 0.950 . S
C2038 C2039 1.386 . S
C2038 C2040 1.391 . S
C2039 C2038 1.386 . S
C2039 C2043 1.393 . S
C2040 H2029 0.950 . S
C2040 C2038 1.391 . S
C2040 C2041 1.400 . S
C2041 C2035 1.491 . S
C2041 C2040 1.400 . S
C2041 C2042 1.398 . S
C2042 H2030 0.950 . S
C2042 C2041 1.398 . S
C2042 C2043 1.391 . S
C2043 H2031 0.950 . S
C2043 C2039 1.393 . S
C2043 C2042 1.391 . S
H2044 C2052 0.950 . S
H2045 C2057 0.950 . S
H2046 C2054 0.950 . S
H2047 C2056 0.950 . S
H2048 C2058 0.950 . S
H2049 C2060 0.950 . S
H2050 C2062 0.950 . S
H2051 C2063 0.950 . S
C2052 H2044 0.950 . S
C2052 C2053 1.386 . S
C2052 C2054 1.391 . S
C2053 C2052 1.386 . S
C2053 C2057 1.393 . S
C2054 H2046 0.950 . S
C2054 C2052 1.391 . S
C2054 C2055 1.400 . S
C2055 C2054 1.400 . S
C2055 C2056 1.398 . S
C2055 C2061 1.491 . S
C2056 H2047 0.950 . S
C2056 C2055 1.398 . S
C2056 C2057 1.391 . S
C2057 H2045 0.950 . S
C2057 C2053 1.393 . S
C2057 C2056 1.391 . S
C2058 H2048 0.950 . S
C2058 C2059 1.386 . S
C2058 C2060 1.391 . S
C2059 C2058 1.386 . S
C2059 C2063 1.393 . S
C2060 H2049 0.950 . S
C2060 C2058 1.391 . S
C2060 C2061 1.400 . S
C2061 C2055 1.491 . S
C2061 C2060 1.400 . S
C2061 C2062 1.398 . S
C2062 H2050 0.950 . S
C2062 C2061 1.398 . S
C2062 C2063 1.391 . S
C2063 H2051 0.950 . S
C2063 C2059 1.393 . S
C2063 C2062 1.391 . S
H2064 C2072 0.950 . S
H2065 C2077 0.950 . S
H2066 C2074 0.950 . S
H2067 C2076 0.950 . S
H2068 C2078 0.950 . S
H2069 C2080 0.950 . S
H2070 C2082 0.950 . S
H2071 C2083 0.950 . S
C2072 H2064 0.950 . S
C2072 C2073 1.386 . S
C2072 C2074 1.391 . S
C2073 C2072 1.386 . S
C2073 C2077 1.393 . S
C2074 H2066 0.950 . S
C2074 C2072 1.391 . S
C2074 C2075 1.400 . S
C2075 C2074 1.400 . S
C2075 C2076 1.398 . S
C2075 C2081 1.491 . S
C2076 H2067 0.950 . S
C2076 C2075 1.398 . S
C2076 C2077 1.391 . S
C2077 H2065 0.950 . S
C2077 C2073 1.393 . S
C2077 C2076 1.391 . S
C2078 H2068 0.950 . S
C2078 C2079 1.386 . S
C2078 C2080 1.391 . S
C2079 C2078 1.386 . S
C2079 C2083 1.393 . S
C2080 H2069 0.950 . S
C2080 C2078 1.391 . S
C2080 C2081 1.400 . S
C2081 C2075 1.491 . S
C2081 C2080 1.400 . S
C2081 C2082 1.398 . S
C2082 H2070 0.950 . S
C2082 C2081 1.398 . S
C2082 C2083 1.391 . S
C2083 H2071 0.950 . S
C2083 C2079 1.393 . S
C2083 C2082 1.391 . S
H2084 C2092 0.950 . S
H2085 C2097 0.950 . S
H2086 C2094 0.950 . S
H2087 C2096 0.950 . S
H2088 C2098 0.950 . S
H2089 C2100 0.950 . S
H2090 C2102 0.950 . S
H2091 C2103 0.950 . S
C2092 H2084 0.950 . S
C2092 C2093 1.386 . S
C2092 C2094 1.391 . S
C2093 C2092 1.386 . S
C2093 C2097 1.393 . S
C2094 H2086 0.950 . S
C2094 C2092 1.391 . S
C2094 C2095 1.400 . S
C2095 C2094 1.400 . S
C2095 C2096 1.398 . S
C2095 C2101 1.491 . S
C2096 H2087 0.950 . S
C2096 C2095 1.398 . S
C2096 C2097 1.391 . S
C2097 H2085 0.950 . S
C2097 C2093 1.393 . S
C2097 C2096 1.391 . S
C2098 H2088 0.950 . S
C2098 C2099 1.386 . S
C2098 C2100 1.391 . S
C2099 C2098 1.386 . S
C2099 C2103 1.393 . S
C2100 H2089 0.950 . S
C2100 C2098 1.391 . S
C2100 C2101 1.400 . S
C2101 C2095 1.491 . S
C2101 C2100 1.400 . S
C2101 C2102 1.398 . S
C2102 H2090 0.950 . S
C2102 C2101 1.398 . S
C2102 C2103 1.391 . S
C2103 H2091 0.950 . S
C2103 C2099 1.393 . S
C2103 C2102 1.391 . S
H2104 C2112 0.950 . S
H2105 C2117 0.950 . S
H2106 C2114 0.950 . S
H2107 C2116 0.950 . S
H2108 C2118 0.950 . S
H2109 C2120 0.950 . S
H2110 C2122 0.950 . S
H2111 C2123 0.950 . S
C2112 H2104 0.950 . S
C2112 C2113 1.386 . S
C2112 C2114 1.391 . S
C2113 C2112 1.386 . S
C2113 C2117 1.393 . S
C2114 H2106 0.950 . S
C2114 C2112 1.391 . S
C2114 C2115 1.400 . S
C2115 C2114 1.400 . S
C2115 C2116 1.398 . S
C2115 C2121 1.491 . S
C2116 H2107 0.950 . S
C2116 C2115 1.398 . S
C2116 C2117 1.391 . S
C2117 H2105 0.950 . S
C2117 C2113 1.393 . S
C2117 C2116 1.391 . S
C2118 H2108 0.950 . S
C2118 C2119 1.386 . S
C2118 C2120 1.391 . S
C2119 C2118 1.386 . S
C2119 C2123 1.393 . S
C2120 H2109 0.950 . S
C2120 C2118 1.391 . S
C2120 C2121 1.400 . S
C2121 C2115 1.491 . S
C2121 C2120 1.400 . S
C2121 C2122 1.398 . S
C2122 H2110 0.950 . S
C2122 C2121 1.398 . S
C2122 C2123 1.391 . S
C2123 H2111 0.950 . S
C2123 C2119 1.393 . S
C2123 C2122 1.391 . S
H2124 C2132 0.950 . S
H2125 C2137 0.950 . S
H2126 C2134 0.950 . S
H2127 C2136 0.950 . S
H2128 C2138 0.950 . S
H2129 C2140 0.950 . S
H2130 C2142 0.950 . S
H2131 C2143 0.950 . S
C2132 H2124 0.950 . S
C2132 C2133 1.386 . S
C2132 C2134 1.391 . S
C2133 C2132 1.386 . S
C2133 C2137 1.393 . S
C2134 H2126 0.950 . S
C2134 C2132 1.391 . S
C2134 C2135 1.400 . S
C2135 C2134 1.400 . S
C2135 C2136 1.398 . S
C2135 C2141 1.491 . S
C2136 H2127 0.950 . S
C2136 C2135 1.398 . S
C2136 C2137 1.391 . S
C2137 H2125 0.950 . S
C2137 C2133 1.393 . S
C2137 C2136 1.391 . S
C2138 H2128 0.950 . S
C2138 C2139 1.386 . S
C2138 C2140 1.391 . S
C2139 C2138 1.386 . S
C2139 C2143 1.393 . S
C2140 H2129 0.950 . S
C2140 C2138 1.391 . S
C2140 C2141 1.400 . S
C2141 C2135 1.491 . S
C2141 C2140 1.400 . S
C2141 C2142 1.398 . S
C2142 H2130 0.950 . S
C2142 C2141 1.398 . S
C2142 C2143 1.391 . S
C2143 H2131 0.950 . S
C2143 C2139 1.393 . S
C2143 C2142 1.391 . S
H2144 C2152 0.950 . S
H2145 C2157 0.950 . S
H2146 C2154 0.950 . S
H2147 C2156 0.950 . S
H2148 C2158 0.950 . S
H2149 C2160 0.950 . S
H2150 C2162 0.950 . S
H2151 C2163 0.950 1_556 S
C2152 H2144 0.950 . S
C2152 C2153 1.386 . S
C2152 C2154 1.391 . S
C2153 C2152 1.386 . S
C2153 C2157 1.393 1_556 S
C2154 H2146 0.950 . S
C2154 C2152 1.391 . S
C2154 C2155 1.400 1_556 S
C2155 C2154 1.400 1_554 S
C2155 C2156 1.398 . S
C2155 C2161 1.491 . S
C2156 H2147 0.950 . S
C2156 C2155 1.398 . S
C2156 C2157 1.391 . S
C2157 H2145 0.950 . S
C2157 C2153 1.393 1_554 S
C2157 C2156 1.391 . S
C2158 H2148 0.950 . S
C2158 C2159 1.386 . S
C2158 C2160 1.391 . S
C2159 C2158 1.386 . S
C2159 C2163 1.393 . S
C2160 H2149 0.950 . S
C2160 C2158 1.391 . S
C2160 C2161 1.400 . S
C2161 C2155 1.491 . S
C2161 C2160 1.400 . S
C2161 C2162 1.398 1_554 S
C2162 H2150 0.950 . S
C2162 C2161 1.398 1_556 S
C2162 C2163 1.391 1_556 S
C2163 H2151 0.950 1_554 S
C2163 C2159 1.393 . S
C2163 C2162 1.391 1_554 S
H2164 C2172 0.950 . S
H2165 C2177 0.950 . S
H2166 C2174 0.950 . S
H2167 C2176 0.950 . S
H2168 C2178 0.950 . S
H2169 C2180 0.950 . S
H2170 C2182 0.950 . S
H2171 C2183 0.950 . S
C2172 H2164 0.950 . S
C2172 C2173 1.386 . S
C2172 C2174 1.391 . S
C2173 C2172 1.386 . S
C2173 C2177 1.393 . S
C2174 H2166 0.950 . S
C2174 C2172 1.391 . S
C2174 C2175 1.400 . S
C2175 C2174 1.400 . S
C2175 C2176 1.398 . S
C2175 C2181 1.491 . S
C2176 H2167 0.950 . S
C2176 C2175 1.398 . S
C2176 C2177 1.391 . S
C2177 H2165 0.950 . S
C2177 C2173 1.393 . S
C2177 C2176 1.391 . S
C2178 H2168 0.950 . S
C2178 C2179 1.386 . S
C2178 C2180 1.391 . S
C2179 C2178 1.386 . S
C2179 C2183 1.393 . S
C2180 H2169 0.950 . S
C2180 C2178 1.391 . S
C2180 C2181 1.400 . S
C2181 C2175 1.491 . S
C2181 C2180 1.400 . S
C2181 C2182 1.398 . S
C2182 H2170 0.950 . S
C2182 C2181 1.398 . S
C2182 C2183 1.391 . S
C2183 H2171 0.950 . S
C2183 C2179 1.393 . S
C2183 C2182 1.391 . S
H2184 C2192 0.950 . S
H2185 C2197 0.950 . S
H2186 C2194 0.950 . S
H2187 C2196 0.950 . S
H2188 C2198 0.950 . S
H2189 C2200 0.950 . S
H2190 C2202 0.950 . S
H2191 C2203 0.950 . S
C2192 H2184 0.950 . S
C2192 C2193 1.386 . S
C2192 C2194 1.391 . S
C2193 C2192 1.386 . S
C2193 C2197 1.393 . S
C2194 H2186 0.950 . S
C2194 C2192 1.391 . S
C2194 C2195 1.400 . S
C2195 C2194 1.400 . S
C2195 C2196 1.398 . S
C2195 C2201 1.491 . S
C2196 H2187 0.950 . S
C2196 C2195 1.398 . S
C2196 C2197 1.391 . S
C2197 H2185 0.950 . S
C2197 C2193 1.393 . S
C2197 C2196 1.391 . S
C2198 H2188 0.950 . S
C2198 C2199 1.386 . S
C2198 C2200 1.391 . S
C2199 C2198 1.386 . S
C2199 C2203 1.393 . S
C2200 H2189 0.950 . S
C2200 C2198 1.391 . S
C2200 C2201 1.400 . S
C2201 C2195 1.491 . S
C2201 C2200 1.400 . S
C2201 C2202 1.398 . S
C2202 H2190 0.950 . S
C2202 C2201 1.398 . S
C2202 C2203 1.391 . S
C2203 H2191 0.950 . S
C2203 C2199 1.393 . S
C2203 C2202 1.391 . S
H2204 C2212 0.950 . S
H2205 C2217 0.950 . S
H2206 C2214 0.950 . S
H2207 C2216 0.950 1_545 S
H2208 C2218 0.950 . S
H2209 C2220 0.950 . S
H2210 C2222 0.950 . S
H2211 C2223 0.950 . S
C2212 H2204 0.950 . S
C2212 C2213 1.386 . S
C2212 C2214 1.391 . S
C2213 C2212 1.386 . S
C2213 C2217 1.393 1_565 S
C2214 H2206 0.950 . S
C2214 C2212 1.391 . S
C2214 C2215 1.400 . S
C2215 C2214 1.400 . S
C2215 C2216 1.398 . S
C2215 C2221 1.491 . S
C2216 H2207 0.950 1_565 S
C2216 C2215 1.398 . S
C2216 C2217 1.391 1_565 S
C2217 H2205 0.950 . S
C2217 C2213 1.393 1_545 S
C2217 C2216 1.391 1_545 S
C2218 H2208 0.950 . S
C2218 C2219 1.386 . S
C2218 C2220 1.391 . S
C2219 C2218 1.386 . S
C2219 C2223 1.393 . S
C2220 H2209 0.950 . S
C2220 C2218 1.391 . S
C2220 C2221 1.400 . S
C2221 C2215 1.491 . S
C2221 C2220 1.400 . S
C2221 C2222 1.398 . S
C2222 H2210 0.950 . S
C2222 C2221 1.398 . S
C2222 C2223 1.391 . S
C2223 H2211 0.950 . S
C2223 C2219 1.393 . S
C2223 C2222 1.391 . S
C1279 C257 1.852 . S
C1273 C73 1.854 . S
C1299 C316 1.256 . S
C1293 C82 1.215 . S
C1313 C100 1.884 . S
C1319 C433 1.875 . S
C1339 C501 1.305 . S
C1333 C56 1.274 . S
C1359 C580 1.364 . S
C1353 C134 1.350 . S
C1379 C705 1.827 . S
C1373 C165 1.807 . S
C1393 C147 1.127 . S
C1399 C765 1.164 . S
C1419 C873 1.853 . S
C1413 C125 1.853 . S
C1433 C151 1.398 . S
C1439 C969 1.403 . S
C1459 C1029 1.433 . S
C1453 C121 1.393 . S
C1473 C139 1.844 . S
C1479 C932 1.846 . S
C1499 C1049 1.261 . S
C1493 C164 1.262 . S
C1513 C95 1.255 . S
C1519 C1117 1.316 . S
C1533 C61 1.507 . S
C1539 C1108 1.515 . S
C1553 C74 1.422 . S
C1559 C1137 1.429 . S
C1573 C86 1.816 . S
C1579 C1145 1.815 . S
C1593 C47 1.388 . S
C1599 C529 1.391 . S
C1613 C186 1.295 . S
C1619 C492 1.339 . S
C1639 C228 1.538 . S
C1633 C204 1.539 1_556 S
C1659 C325 1.922 . S
C1653 C112 1.925 . S
C1673 C60 1.364 1_545 S
C1679 C589 1.359 . S
C1699 C881 1.430 . S
C1693 C152 1.422 . S
C1719 C609 1.977 . S
C1713 C126 1.971 . S
C1739 C793 1.286 . S
C1733 C160 1.266 . S
C1759 C785 1.852 . S
C1753 C190 1.853 . S
C1773 C199 1.189 . S
C1779 C853 1.256 . S
C1793 C113 1.881 . S
C1799 C617 1.876 . S
C1819 C668 1.310 . S
C1813 C173 1.265 . S
C1833 C43 1.344 . S
C1839 C413 1.363 . S
C1859 C521 1.831 . S
C1853 C9 1.813 1_655 S
C1879 C237 1.167 . S
C1873 C17 1.141 . S
C1899 C353 1.852 . S
C1893 C34 1.854 1_455 S
C1913 C21 1.397 . S
C1919 C1057 1.398 . S
C1933 C30 1.393 . S
C1939 C941 1.434 . S
C1953 C48 1.842 . S
C1959 C1020 1.850 . S
C1973 C8 1.259 . S
C1979 C961 1.255 . S
C1999 C1205 1.319 . S
C1993 C108 1.274 . S
C2019 C1196 1.515 . S
C2013 C178 1.506 1_554 S
C2039 C1225 1.430 . S
C2033 C191 1.422 . S
C2053 C203 1.816 . S
C2059 C1233 1.814 . S
C2073 C138 1.394 . S
C2079 C697 1.390 . S
C2099 C677 1.332 . S
C2093 C69 1.268 . S
C2119 C756 1.533 . S
C2113 C87 1.535 . S
C2139 C844 1.922 . S
C2133 C99 1.925 . S
C2153 C177 1.368 . S
C2159 C404 1.366 . S
C2179 C345 1.431 . S
C2173 C22 1.425 . S
C2193 C35 1.971 . S
C2199 C441 1.977 . S
C2219 C265 1.274 . S
C2213 C4 1.279 . S
