# Generated by pormake.
# Topology ptr, (4,4)-cn, num edge types: 1
# Building blocks:
#     Node 0, Type 0, BuildingBlock: QUQFOY_clean_sbu_3, # of connection points: 4
#     Node 1, Type 0, BuildingBlock: QUQFOY_clean_sbu_3, # of connection points: 4
#     Node 2, Type 0, BuildingBlock: QUQFOY_clean_sbu_3, # of connection points: 4
#     Node 3, Type 0, BuildingBlock: QUQFOY_clean_sbu_3, # of connection points: 4
#     Node 4, Type 0, BuildingBlock: QUQFOY_clean_sbu_3, # of connection points: 4
#     Node 5, Type 0, BuildingBlock: QUQFOY_clean_sbu_3, # of connection points: 4
#     Node 6, Type 0, BuildingBlock: QUQFOY_clean_sbu_3, # of connection points: 4
#     Node 7, Type 0, BuildingBlock: QUQFOY_clean_sbu_3, # of connection points: 4
#     Node 8, Type 0, BuildingBlock: QUQFOY_clean_sbu_3, # of connection points: 4
#     Node 9, Type 0, BuildingBlock: QUQFOY_clean_sbu_3, # of connection points: 4
#     Node 10, Type 0, BuildingBlock: QUQFOY_clean_sbu_3, # of connection points: 4
#     Node 11, Type 0, BuildingBlock: QUQFOY_clean_sbu_3, # of connection points: 4
#     Node 12, Type 0, BuildingBlock: QUQFOY_clean_sbu_3, # of connection points: 4
#     Node 13, Type 0, BuildingBlock: QUQFOY_clean_sbu_3, # of connection points: 4
#     Node 14, Type 0, BuildingBlock: QUQFOY_clean_sbu_3, # of connection points: 4
#     Node 15, Type 0, BuildingBlock: QUQFOY_clean_sbu_3, # of connection points: 4
#     Node 16, Type 0, BuildingBlock: QUQFOY_clean_sbu_3, # of connection points: 4
#     Node 17, Type 0, BuildingBlock: QUQFOY_clean_sbu_3, # of connection points: 4
#     Node 18, Type 1, BuildingBlock: NAWXER_clean_linker_0, # of connection points: 4
#     Node 19, Type 1, BuildingBlock: NAWXER_clean_linker_0, # of connection points: 4
#     Node 20, Type 1, BuildingBlock: NAWXER_clean_linker_0, # of connection points: 4
#     Node 21, Type 1, BuildingBlock: NAWXER_clean_linker_0, # of connection points: 4
#     Node 22, Type 1, BuildingBlock: NAWXER_clean_linker_0, # of connection points: 4
#     Node 23, Type 1, BuildingBlock: NAWXER_clean_linker_0, # of connection points: 4
#     Node 24, Type 1, BuildingBlock: NAWXER_clean_linker_0, # of connection points: 4
#     Node 25, Type 1, BuildingBlock: NAWXER_clean_linker_0, # of connection points: 4
#     Node 26, Type 1, BuildingBlock: NAWXER_clean_linker_0, # of connection points: 4
#     Node 27, Type 1, BuildingBlock: NAWXER_clean_linker_0, # of connection points: 4
#     Node 28, Type 1, BuildingBlock: NAWXER_clean_linker_0, # of connection points: 4
#     Node 29, Type 1, BuildingBlock: NAWXER_clean_linker_0, # of connection points: 4
#     Node 30, Type 1, BuildingBlock: NAWXER_clean_linker_0, # of connection points: 4
#     Node 31, Type 1, BuildingBlock: NAWXER_clean_linker_0, # of connection points: 4
#     Node 32, Type 1, BuildingBlock: NAWXER_clean_linker_0, # of connection points: 4
#     Node 33, Type 1, BuildingBlock: NAWXER_clean_linker_0, # of connection points: 4
#     Node 34, Type 1, BuildingBlock: NAWXER_clean_linker_0, # of connection points: 4
#     Node 35, Type 1, BuildingBlock: NAWXER_clean_linker_0, # of connection points: 4
#     Edge 36, Type (0, 1), BuildingBlock: ZUJKAS_clean_linker_0, # of connection points: 2
#     Edge 37, Type (0, 1), BuildingBlock: ZUJKAS_clean_linker_0, # of connection points: 2
#     Edge 38, Type (0, 1), BuildingBlock: ZUJKAS_clean_linker_0, # of connection points: 2
#     Edge 39, Type (0, 1), BuildingBlock: ZUJKAS_clean_linker_0, # of connection points: 2
#     Edge 40, Type (0, 1), BuildingBlock: ZUJKAS_clean_linker_0, # of connection points: 2
#     Edge 41, Type (0, 1), BuildingBlock: ZUJKAS_clean_linker_0, # of connection points: 2
#     Edge 42, Type (0, 1), BuildingBlock: ZUJKAS_clean_linker_0, # of connection points: 2
#     Edge 43, Type (0, 1), BuildingBlock: ZUJKAS_clean_linker_0, # of connection points: 2
#     Edge 44, Type (0, 1), BuildingBlock: ZUJKAS_clean_linker_0, # of connection points: 2
#     Edge 45, Type (0, 1), BuildingBlock: ZUJKAS_clean_linker_0, # of connection points: 2
#     Edge 46, Type (0, 1), BuildingBlock: ZUJKAS_clean_linker_0, # of connection points: 2
#     Edge 47, Type (0, 1), BuildingBlock: ZUJKAS_clean_linker_0, # of connection points: 2
#     Edge 48, Type (0, 1), BuildingBlock: ZUJKAS_clean_linker_0, # of connection points: 2
#     Edge 49, Type (0, 1), BuildingBlock: ZUJKAS_clean_linker_0, # of connection points: 2
#     Edge 50, Type (0, 1), BuildingBlock: ZUJKAS_clean_linker_0, # of connection points: 2
#     Edge 51, Type (0, 1), BuildingBlock: ZUJKAS_clean_linker_0, # of connection points: 2
#     Edge 52, Type (0, 1), BuildingBlock: ZUJKAS_clean_linker_0, # of connection points: 2
#     Edge 53, Type (0, 1), BuildingBlock: ZUJKAS_clean_linker_0, # of connection points: 2
#     Edge 54, Type (0, 1), BuildingBlock: ZUJKAS_clean_linker_0, # of connection points: 2
#     Edge 55, Type (0, 1), BuildingBlock: ZUJKAS_clean_linker_0, # of connection points: 2
#     Edge 56, Type (0, 1), BuildingBlock: ZUJKAS_clean_linker_0, # of connection points: 2
#     Edge 57, Type (0, 1), BuildingBlock: ZUJKAS_clean_linker_0, # of connection points: 2
#     Edge 58, Type (0, 1), BuildingBlock: ZUJKAS_clean_linker_0, # of connection points: 2
#     Edge 59, Type (0, 1), BuildingBlock: ZUJKAS_clean_linker_0, # of connection points: 2
#     Edge 60, Type (0, 1), BuildingBlock: ZUJKAS_clean_linker_0, # of connection points: 2
#     Edge 61, Type (0, 1), BuildingBlock: ZUJKAS_clean_linker_0, # of connection points: 2
#     Edge 62, Type (0, 1), BuildingBlock: ZUJKAS_clean_linker_0, # of connection points: 2
#     Edge 63, Type (0, 1), BuildingBlock: ZUJKAS_clean_linker_0, # of connection points: 2
#     Edge 64, Type (0, 1), BuildingBlock: ZUJKAS_clean_linker_0, # of connection points: 2
#     Edge 65, Type (0, 1), BuildingBlock: ZUJKAS_clean_linker_0, # of connection points: 2
#     Edge 66, Type (0, 1), BuildingBlock: ZUJKAS_clean_linker_0, # of connection points: 2
#     Edge 67, Type (0, 1), BuildingBlock: ZUJKAS_clean_linker_0, # of connection points: 2
#     Edge 68, Type (0, 1), BuildingBlock: ZUJKAS_clean_linker_0, # of connection points: 2
#     Edge 69, Type (0, 1), BuildingBlock: ZUJKAS_clean_linker_0, # of connection points: 2
#     Edge 70, Type (0, 1), BuildingBlock: ZUJKAS_clean_linker_0, # of connection points: 2
#     Edge 71, Type (0, 1), BuildingBlock: ZUJKAS_clean_linker_0, # of connection points: 2
#     Edge 72, Type (0, 1), BuildingBlock: ZUJKAS_clean_linker_0, # of connection points: 2
#     Edge 73, Type (0, 1), BuildingBlock: ZUJKAS_clean_linker_0, # of connection points: 2
#     Edge 74, Type (0, 1), BuildingBlock: ZUJKAS_clean_linker_0, # of connection points: 2
#     Edge 75, Type (0, 1), BuildingBlock: ZUJKAS_clean_linker_0, # of connection points: 2
#     Edge 76, Type (0, 1), BuildingBlock: ZUJKAS_clean_linker_0, # of connection points: 2
#     Edge 77, Type (0, 1), BuildingBlock: ZUJKAS_clean_linker_0, # of connection points: 2
#     Edge 78, Type (0, 1), BuildingBlock: ZUJKAS_clean_linker_0, # of connection points: 2
#     Edge 79, Type (0, 1), BuildingBlock: ZUJKAS_clean_linker_0, # of connection points: 2
#     Edge 80, Type (0, 1), BuildingBlock: ZUJKAS_clean_linker_0, # of connection points: 2
#     Edge 81, Type (0, 1), BuildingBlock: ZUJKAS_clean_linker_0, # of connection points: 2
#     Edge 82, Type (0, 1), BuildingBlock: ZUJKAS_clean_linker_0, # of connection points: 2
#     Edge 83, Type (0, 1), BuildingBlock: ZUJKAS_clean_linker_0, # of connection points: 2
#     Edge 84, Type (0, 1), BuildingBlock: ZUJKAS_clean_linker_0, # of connection points: 2
#     Edge 85, Type (0, 1), BuildingBlock: ZUJKAS_clean_linker_0, # of connection points: 2
#     Edge 86, Type (0, 1), BuildingBlock: ZUJKAS_clean_linker_0, # of connection points: 2
#     Edge 87, Type (0, 1), BuildingBlock: ZUJKAS_clean_linker_0, # of connection points: 2
#     Edge 88, Type (0, 1), BuildingBlock: ZUJKAS_clean_linker_0, # of connection points: 2
#     Edge 89, Type (0, 1), BuildingBlock: ZUJKAS_clean_linker_0, # of connection points: 2
#     Edge 90, Type (0, 1), BuildingBlock: ZUJKAS_clean_linker_0, # of connection points: 2
#     Edge 91, Type (0, 1), BuildingBlock: ZUJKAS_clean_linker_0, # of connection points: 2
#     Edge 92, Type (0, 1), BuildingBlock: ZUJKAS_clean_linker_0, # of connection points: 2
#     Edge 93, Type (0, 1), BuildingBlock: ZUJKAS_clean_linker_0, # of connection points: 2
#     Edge 94, Type (0, 1), BuildingBlock: ZUJKAS_clean_linker_0, # of connection points: 2
#     Edge 95, Type (0, 1), BuildingBlock: ZUJKAS_clean_linker_0, # of connection points: 2
#     Edge 96, Type (0, 1), BuildingBlock: ZUJKAS_clean_linker_0, # of connection points: 2
#     Edge 97, Type (0, 1), BuildingBlock: ZUJKAS_clean_linker_0, # of connection points: 2
#     Edge 98, Type (0, 1), BuildingBlock: ZUJKAS_clean_linker_0, # of connection points: 2
#     Edge 99, Type (0, 1), BuildingBlock: ZUJKAS_clean_linker_0, # of connection points: 2
#     Edge 100, Type (0, 1), BuildingBlock: ZUJKAS_clean_linker_0, # of connection points: 2
#     Edge 101, Type (0, 1), BuildingBlock: ZUJKAS_clean_linker_0, # of connection points: 2
#     Edge 102, Type (0, 1), BuildingBlock: ZUJKAS_clean_linker_0, # of connection points: 2
#     Edge 103, Type (0, 1), BuildingBlock: ZUJKAS_clean_linker_0, # of connection points: 2
#     Edge 104, Type (0, 1), BuildingBlock: ZUJKAS_clean_linker_0, # of connection points: 2
#     Edge 105, Type (0, 1), BuildingBlock: ZUJKAS_clean_linker_0, # of connection points: 2
#     Edge 106, Type (0, 1), BuildingBlock: ZUJKAS_clean_linker_0, # of connection points: 2
#     Edge 107, Type (0, 1), BuildingBlock: ZUJKAS_clean_linker_0, # of connection points: 2
# Relax obj value: 0.029
# Max RMSD: 0.134
# Mean RMSD: 0.051
data_MOF--net-ptr--node1-QUQFOY_clean_sbu_3--node2-NAWXER_clean_linker_0--edge1-ZUJKAS_clean_linker_0
_symmetry_space_group_name_H-M    P1
_symmetry_Int_Tables_number       1
_symmetry_cell_setting            triclinic
loop_
_symmetry_equiv_pos_as_xyz
'x, y, z'
_cell_length_a     109.34383
_cell_length_b     109.89646
_cell_length_c     81.017372
_cell_angle_alpha  90.389194
_cell_angle_beta   89.498253
_cell_angle_gamma 120.56689
loop_
_atom_site_label
_atom_site_type_symbol
_atom_site_fract_x
_atom_site_fract_y
_atom_site_fract_z
_atom_type_partial_charge
C0 C 0.97098 0.31467 2e-05 0.0
O1 O 0.96345 0.31948 0.00584 0.0
Cd2 Cd 0.97383 0.34285 0.01726 0.0
O3 O 0.98444 0.32172 0.00148 0.0
Cd4 Cd 0.00341 0.34374 0.01441 0.0
C5 C -0.00266 0.36201 0.9856 0.0
O6 O 0.9906 0.34616 0.03806 0.0
O7 O 0.01081 0.36446 0.03165 0.0
O8 O 0.0105 0.32886 0.02806 0.0
C9 C 0.00021 0.35877 0.04137 0.0
O10 O 0.98604 0.35827 0.99392 0.0
C11 C 0.0234 0.33552 0.02347 0.0
O12 O 0.0059 0.35788 0.98968 0.0
O13 O 0.02721 0.34613 0.01411 0.0
C14 C 0.64519 0.67981 0.02603 0.0
O15 O 0.63186 0.67328 0.0238 0.0
Cd16 Cd 0.61907 0.65064 0.01052 0.0
O17 O 0.6526 0.67468 0.0206 0.0
Cd18 Cd 0.64935 0.65388 0.00473 0.0
C19 C 0.629 0.63172 0.03519 0.0
O20 O 0.63129 0.65183 0.98543 0.0
O21 O 0.63512 0.63441 0.98576 0.0
O22 O 0.67049 0.67015 0.98923 0.0
C23 C 0.6288 0.64015 0.97927 0.0
O24 O 0.61937 0.63398 0.02999 0.0
C25 C 0.67709 0.66358 0.99148 0.0
O26 O 0.64144 0.63821 0.02889 0.0
O27 O 0.67087 0.65247 0.00024 0.0
C28 C 0.31335 0.96788 0.01816 0.0
O29 O 0.3187 0.96083 0.01244 0.0
Cd30 Cd 0.34265 0.97239 0.00205 0.0
O31 O 0.32011 0.98129 0.01708 0.0
Cd32 Cd 0.3421 0.00094 0.00519 0.0
C33 C 0.36047 0.99559 0.03433 0.0
O34 O 0.34584 0.98926 0.98152 0.0
O35 O 0.36364 0.00942 0.98899 0.0
O36 O 0.32728 0.00742 0.99048 0.0
C37 C 0.35847 -0.00078 0.9788 0.0
O38 O 0.35745 0.98463 0.02582 0.0
C39 C 0.33293 0.01997 0.9959 0.0
O40 O 0.35575 0.00364 0.03027 0.0
O41 O 0.34297 0.02386 0.00622 0.0
C42 C 0.96681 0.65389 -0.0014 0.0
O43 O 0.95918 0.64129 0.00372 0.0
Cd44 Cd 0.96975 0.62848 0.01449 0.0
O45 O 0.98022 0.66042 0.00046 0.0
Cd46 Cd -0.00095 0.65752 0.01307 0.0
C47 C 0.99371 0.63417 0.98296 0.0
O48 O 0.98597 0.64178 0.03613 0.0
O49 O 0.00622 0.64395 0.02966 0.0
O50 O 0.00607 0.67953 0.02704 0.0
C51 C 0.99557 0.63889 0.03932 0.0
O52 O 0.9823 0.62602 0.99084 0.0
C53 C 0.01898 0.68588 0.02249 0.0
O54 O 0.00199 0.64683 0.9878 0.0
O55 O 0.02282 0.67905 0.01316 0.0
C56 C 0.32273 0.35507 0.02562 0.0
O57 O 0.3293 0.36842 0.02412 0.0
Cd58 Cd 0.35221 0.38136 0.01111 0.0
O59 O 0.32803 0.34794 0.01985 0.0
Cd60 Cd 0.34912 0.35133 0.00451 0.0
C61 C 0.37077 0.37089 0.03566 0.0
O62 O 0.35108 0.36952 0.98572 0.0
O63 O 0.3685 0.36555 0.98535 0.0
O64 O 0.33224 0.3303 0.98959 0.0
C65 C 0.36273 0.372 0.97926 0.0
O66 O 0.36856 0.38058 0.03074 0.0
C67 C 0.33893 0.32376 0.99117 0.0
O68 O 0.36445 0.3587 0.02892 0.0
O69 O 0.35048 0.33 -0.0008 0.0
C70 C 0.68472 0.02784 -0.00161 0.0
O71 O 0.67925 0.03497 0.00351 0.0
Cd72 Cd 0.65577 0.02414 0.01505 0.0
O73 O 0.67819 0.0145 0.00041 0.0
Cd74 Cd 0.65608 0.99543 0.01345 0.0
C75 C 0.63732 7e-05 0.9839 0.0
O76 O 0.65324 0.0083 0.03665 0.0
O77 O 0.63502 0.98807 0.0304 0.0
O78 O 0.67122 0.98856 0.02718 0.0
C79 C 0.64062 -0.00135 0.04004 0.0
O80 O 0.64044 0.0113 0.9919 0.0
C81 C 0.66432 0.97562 0.02309 0.0
O82 O 0.64206 0.99214 0.98839 0.0
O83 O 0.65351 0.97173 0.014 0.0
C84 C 0.634 0.65344 0.32605 0.0
O85 O 0.62709 0.65972 0.32856 0.0
Cd86 Cd 0.63686 0.6823 0.34187 0.0
O87 O 0.64674 0.65887 0.33111 0.0
Cd88 Cd 0.66455 0.68004 0.34667 0.0
C89 C 0.66598 0.70216 0.31678 0.0
O90 O 0.64813 0.68126 0.36652 0.0
O91 O 0.66954 0.69905 0.3662 0.0
O92 O 0.66986 0.6637 0.36058 0.0
C93 C 0.65728 0.693 0.37275 0.0
O94 O 0.65392 0.69944 0.32235 0.0
C95 C 0.68325 0.67119 0.35897 0.0
O96 O 0.67213 0.69591 0.3226 0.0
O97 O 0.68806 0.68281 0.35131 0.0
C98 C 0.31479 0.015 0.36371 0.0
O99 O 0.30143 0.00939 0.36242 0.0
Cd100 Cd 0.2862 0.9865 0.35094 0.0
O101 O 0.32098 0.00855 0.35839 0.0
Cd102 Cd 0.31411 0.98581 0.34407 0.0
C103 C 0.29352 0.966 0.37601 0.0
O104 O 0.29673 0.98576 0.3251 0.0
O105 O 0.29759 0.96661 0.32594 0.0
O106 O 0.33574 -0.0014 0.32755 0.0
C107 C 0.29268 0.9736 0.3192 0.0
O108 O 0.28467 0.96956 0.37141 0.0
C109 C 0.34025 0.99023 0.33041 0.0
O110 O 0.30547 0.97089 0.36872 0.0
O111 O 0.33273 0.9799 0.33995 0.0
C112 C 0.98991 0.30551 0.35695 0.0
O113 O 0.99553 0.29807 0.35395 0.0
Cd114 Cd 0.01848 0.30711 0.34162 0.0
O115 O 0.99626 0.31852 0.35295 0.0
Cd116 Cd 0.01857 0.33577 0.3387 0.0
C117 C 0.03896 0.33407 0.36859 0.0
O118 O 0.01849 0.31973 0.31771 0.0
O119 O 0.03786 0.33987 0.31966 0.0
O120 O 0.00506 0.34447 0.32445 0.0
C121 C 0.03071 0.32829 0.31196 0.0
O122 O 0.0359 0.3222 0.36229 0.0
C123 C 0.01339 0.35739 0.32794 0.0
O124 O 0.03338 0.34094 0.36309 0.0
O125 O 0.02404 0.36027 0.33685 0.0
C126 C 0.63426 0.97314 0.32581 0.0
O127 O 0.62873 0.96 0.32853 0.0
Cd128 Cd 0.63992 0.94965 0.34337 0.0
O129 O 0.64664 0.98196 0.33113 0.0
Cd130 Cd 0.6659 0.98166 0.34703 0.0
C131 C 0.66931 0.96068 0.31848 0.0
O132 O 0.65012 0.96423 0.36718 0.0
O133 O 0.67212 0.97027 0.36883 0.0
O134 O 0.67028 0.00397 0.35898 0.0
C135 C 0.65963 0.96316 0.37465 0.0
O136 O 0.65759 0.9507 0.32412 0.0
C137 C 0.68365 0.0105 0.35694 0.0
O138 O 0.67458 0.97323 0.32402 0.0
O139 O 0.6888 0.00368 0.34999 0.0
C140 C 0.98824 0.68505 0.36468 0.0
O141 O 0.99388 0.69839 0.36413 0.0
Cd142 Cd 0.01651 0.71362 0.3517 0.0
O143 O 0.99459 0.67908 0.35839 0.0
Cd144 Cd 0.01718 0.68612 0.34354 0.0
C145 C 0.03723 0.70577 0.37565 0.0
O146 O 0.01642 0.7034 0.32532 0.0
O147 O 0.0359 0.70294 0.32501 0.0
O148 O 0.00323 0.66428 0.32802 0.0
C149 C 0.02849 0.7076 0.3188 0.0
O150 O 0.03384 0.71478 0.37136 0.0
C151 C 0.01217 0.6602 0.32912 0.0
O152 O 0.0321 0.69396 0.36817 0.0
O153 O 0.0234 0.66809 0.3372 0.0
C154 C 0.34799 0.36224 0.32731 0.0
O155 O 0.34188 0.36923 0.33027 0.0
Cd156 Cd 0.31901 0.35941 0.34309 0.0
O157 O 0.34226 0.34938 0.33182 0.0
Cd158 Cd 0.3207 0.33143 0.34706 0.0
C159 C 0.29924 0.33121 0.31695 0.0
O160 O 0.3196 0.34745 0.36733 0.0
O161 O 0.30136 0.32639 0.36648 0.0
O162 O 0.3364 0.32559 0.36157 0.0
C163 C 0.30767 0.33842 0.37338 0.0
O164 O 0.30233 0.34329 0.32258 0.0
C165 C 0.32926 0.31239 0.35884 0.0
O166 O 0.30485 0.32453 0.32303 0.0
O167 O 0.31806 0.30791 0.35031 0.0
C168 C 0.30361 0.98956 0.66113 0.0
O169 O 0.2965 0.99572 0.66292 0.0
Cd170 Cd 0.30529 0.01836 0.67566 0.0
O171 O 0.31633 0.99534 0.66637 0.0
Cd172 Cd 0.33363 0.01761 0.68077 0.0
C173 C 0.33363 0.03841 0.64996 0.0
O174 O 0.31689 0.01838 0.70055 0.0
O175 O 0.3378 0.0369 0.6995 0.0
O176 O 0.34133 0.00346 0.6957 0.0
C177 C 0.32569 0.03043 0.70639 0.0
O178 O 0.32155 0.03552 0.65563 0.0
C179 C 0.35452 0.01177 0.69326 0.0
O180 O 0.34015 0.03262 0.65604 0.0
O181 O 0.35803 0.02269 0.68463 0.0
C182 C 0.97452 0.33905 0.6881 0.0
O183 O 0.96157 0.33169 0.68394 0.0
Cd184 Cd 0.95174 0.31041 0.66801 0.0
O185 O 0.98346 0.33549 0.68351 0.0
Cd186 Cd 0.98376 0.31655 0.66674 0.0
C187 C 0.96078 0.29123 0.69335 0.0
O188 O 0.96769 0.31547 0.64539 0.0
O189 O 0.97275 0.29893 0.64448 0.0
O190 O 0.00655 0.33454 0.65535 0.0
C191 C 0.96653 0.30476 0.63796 0.0
O192 O 0.95118 0.2929 0.68683 0.0
C193 C 0.01309 0.32803 0.65845 0.0
O194 O 0.97376 0.29897 0.68906 0.0
O195 O 0.00603 0.31621 0.66575 0.0
C196 C 0.65816 0.63937 0.69254 0.0
O197 O 0.66385 0.63207 0.68901 0.0
Cd198 Cd 0.68627 0.64185 0.67491 0.0
O199 O 0.66389 0.65215 0.68779 0.0
Cd200 Cd 0.68427 0.66968 0.6712 0.0
C201 C 0.707 0.67078 0.69982 0.0
O202 O 0.68502 0.65357 0.65082 0.0
O203 O 0.70293 0.67491 0.65099 0.0
O204 O 0.66714 0.67403 0.65795 0.0
C205 C 0.69669 0.66277 0.64434 0.0
O206 O 0.70384 0.65868 0.69418 0.0
C207 C 0.67404 0.68734 0.65981 0.0
O208 O 0.70088 0.67718 0.69436 0.0
O209 O 0.68584 0.69261 0.66731 0.0
C210 C 0.30006 0.31406 0.65897 0.0
O211 O 0.29297 0.30072 0.6606 0.0
Cd212 Cd 0.30235 0.28757 0.67337 0.0
O213 O 0.31269 0.32118 0.66444 0.0
Cd214 Cd 0.33017 0.3174 0.67929 0.0
C215 C 0.33147 0.29717 0.64838 0.0
O216 O 0.31347 0.29945 0.69856 0.0
O217 O 0.33481 0.30309 0.69834 0.0
O218 O 0.3358 0.33886 0.69421 0.0
C219 C 0.32249 0.29682 0.70474 0.0
O220 O 0.31933 0.28764 0.65363 0.0
C221 C 0.34913 0.34502 0.69194 0.0
O222 O 0.33766 0.3095 0.65478 0.0
O223 O 0.35376 0.33836 0.68358 0.0
C224 C 0.66255 0.02511 0.68751 0.0
O225 O 0.66971 0.03808 0.68353 0.0
Cd226 Cd 0.691 0.0482 0.66732 0.0
O227 O 0.66643 0.0165 0.68274 0.0
Cd228 Cd 0.6855 0.0166 0.66586 0.0
C229 C 0.71111 0.0397 0.69189 0.0
O230 O 0.68553 0.03221 0.64483 0.0
O231 O 0.70216 0.02729 0.64245 0.0
O232 O 0.66674 0.9939 0.65582 0.0
C233 C 0.69593 0.03336 0.63658 0.0
O234 O 0.70904 0.04905 0.6855 0.0
C235 C 0.67363 0.98753 0.65728 0.0
O236 O 0.70347 0.02674 0.68779 0.0
O237 O 0.68605 0.99461 0.66327 0.0
C238 C 0.0092 0.69419 0.65784 0.0
O239 O 0.00348 0.70164 0.66017 0.0
Cd240 Cd 0.98102 0.69336 0.67342 0.0
O241 O 0.00302 0.68141 0.66279 0.0
Cd242 Cd 0.9805 0.66458 0.67757 0.0
C243 C 0.95967 0.6657 0.64763 0.0
O244 O 0.98086 0.68137 0.69805 0.0
O245 O 0.96146 0.66126 0.69652 0.0
O246 O 0.99483 0.65624 0.69093 0.0
C247 C 0.96858 0.67303 0.70383 0.0
O248 O 0.96321 0.67781 0.65355 0.0
C249 C 0.98571 0.64318 0.68963 0.0
O250 O 0.96509 0.65869 0.65325 0.0
O251 O 0.97421 0.63998 0.68234 0.0
C252 C 0.19624 0.30494 0.13405 0.0
C253 C 0.19468 0.29549 0.12133 0.0
C254 C 0.18455 0.30279 0.14337 0.0
C255 C 0.17105 0.29111 0.14026 0.0
C256 C 0.18113 0.28372 0.11831 0.0
C257 C 0.16939 0.28162 0.12762 0.0
C258 C 0.15855 0.28958 0.14922 0.0
C259 C 0.18522 0.28254 0.18545 0.0
C260 C 0.19057 0.29253 0.19835 0.0
C261 C 0.17443 0.28145 0.17523 0.0
C262 C 0.16891 0.29043 0.17761 0.0
C263 C 0.18464 0.30113 0.20101 0.0
C264 C 0.17394 0.30007 0.1908 0.0
C265 C 0.15787 0.28995 0.16663 0.0
C266 C 0.10124 0.28553 0.17949 0.0
C267 C 0.1056 0.29628 0.19142 0.0
C268 C 0.11133 0.28381 0.17069 0.0
C269 C 0.12587 0.29275 0.1738 0.0
C270 C 0.12015 0.30512 0.19455 0.0
C271 C 0.13018 0.3033 0.18591 0.0
C272 C 0.13677 0.29119 0.16475 0.0
C273 C 0.11829 0.30791 0.12841 0.0
C274 C 0.11162 0.29909 0.11476 0.0
C275 C 0.12657 0.30517 0.13906 0.0
C276 C 0.12818 0.29341 0.13647 0.0
C277 C 0.11346 0.28747 0.11199 0.0
C278 C 0.12171 0.28469 0.12272 0.0
C279 C 0.13748 0.29088 0.14734 0.0
H280 H 0.20642 0.31432 0.13644 0.0
H281 H 0.18598 0.3105 0.15273 0.0
H282 H 0.17958 0.27619 0.10868 0.0
H283 H 0.159 0.27263 0.12492 0.0
H284 H 0.18953 0.27575 0.18306 0.0
H285 H 0.17048 0.27364 0.16544 0.0
H286 H 0.18827 0.30871 0.21105 0.0
H287 H 0.16976 0.30701 0.19304 0.0
H288 H 0.09007 0.27857 0.17689 0.0
H289 H 0.10778 0.27546 0.16156 0.0
H290 H 0.12378 0.31333 0.20387 0.0
H291 H 0.14135 0.31026 0.18855 0.0
H292 H 0.11739 0.31715 0.13067 0.0
H293 H 0.13193 0.31244 0.14914 0.0
H294 H 0.10843 0.28045 0.1016 0.0
H295 H 0.123 0.27569 0.12032 0.0
N296 N 0.1483 0.28997 0.14025 0.0
N297 N 0.14701 0.29078 0.17368 0.0
C298 C 0.69442 0.88532 0.13325 0.0
C299 C 0.70162 0.89033 0.11811 0.0
C300 C 0.69785 0.87753 0.14386 0.0
C301 C 0.70869 0.87475 0.13966 0.0
C302 C 0.71247 0.88753 0.11395 0.0
C303 C 0.7159 0.87975 0.12457 0.0
C304 C 0.71153 0.86546 0.15007 0.0
C305 C 0.72244 0.90392 0.18126 0.0
C306 C 0.71575 0.9009 0.19678 0.0
C307 C 0.72185 0.89303 0.17156 0.0
C308 C 0.71417 0.87892 0.17706 0.0
C309 C 0.70836 0.88692 0.20241 0.0
C310 C 0.70753 0.87605 0.19264 0.0
C311 C 0.71343 0.86704 0.16737 0.0
C312 C 0.72081 0.81766 0.18603 0.0
C313 C 0.7121 0.81327 0.20021 0.0
C314 C 0.72136 0.82814 0.17576 0.0
C315 C 0.7131 0.8343 0.17941 0.0
C316 C 0.70407 0.81967 0.20393 0.0
C317 C 0.70464 0.83011 0.19371 0.0
C318 C 0.71311 0.84514 0.16861 0.0
C319 C 0.69331 0.80525 0.13838 0.0
C320 C 0.70068 0.80604 0.12374 0.0
C321 C 0.69694 0.81742 0.14753 0.0
C322 C 0.70817 0.8306 0.14238 0.0
C323 C 0.71197 0.81925 0.11864 0.0
C324 C 0.71561 0.83144 0.12783 0.0
C325 C 0.71131 0.84363 0.15134 0.0
H326 H 0.68582 0.88704 0.13669 0.0
H327 H 0.69177 0.87337 0.15515 0.0
H328 H 0.71832 0.89135 0.10246 0.0
H329 H 0.72417 0.87756 0.12098 0.0
H330 H 0.72829 0.9147 0.17681 0.0
H331 H 0.72754 0.89568 0.15992 0.0
H332 H 0.70311 0.88441 0.21435 0.0
H333 H 0.70161 0.86533 0.19728 0.0
H334 H 0.72729 0.81309 0.18293 0.0
H335 H 0.72824 0.83143 0.165 0.0
H336 H 0.69705 0.81639 0.21457 0.0
H337 H 0.69816 0.83469 0.1968 0.0
H338 H 0.68463 0.79523 0.1427 0.0
H339 H 0.69076 0.81654 0.15844 0.0
H340 H 0.71772 0.82022 0.1073 0.0
H341 H 0.72415 0.84155 0.1235 0.0
N342 N 0.71069 0.85388 0.14275 0.0
N343 N 0.71408 0.85676 0.17588 0.0
C344 C 0.11165 0.80901 0.12899 0.0
C345 C 0.10561 0.81144 0.11507 0.0
C346 C 0.12001 0.82001 0.13983 0.0
C347 C 0.12232 0.83364 0.13717 0.0
C348 C 0.10807 0.82512 0.11228 0.0
C349 C 0.11639 0.83613 0.12321 0.0
C350 C 0.132 0.84554 0.14798 0.0
C351 C 0.0955 0.81602 0.18114 0.0
C352 C 0.09956 0.8096 0.19313 0.0
C353 C 0.10581 0.82738 0.17188 0.0
C354 C 0.1203 0.83252 0.17461 0.0
C355 C 0.11406 0.81477 0.19578 0.0
C356 C 0.12433 0.82619 0.18671 0.0
C357 C 0.13144 0.84472 0.16537 0.0
C358 C 0.17958 0.90216 0.18654 0.0
C359 C 0.18466 0.89763 0.19962 0.0
C360 C 0.16923 0.89231 0.17585 0.0
C361 C 0.16395 0.87778 0.17794 0.0
C362 C 0.17925 0.88308 0.20172 0.0
C363 C 0.16898 0.87329 0.19105 0.0
C364 C 0.15293 0.86704 0.16698 0.0
C365 C 0.19106 0.89122 0.13394 0.0
C366 C 0.18886 0.89737 0.11997 0.0
C367 C 0.17963 0.88197 0.14388 0.0
C368 C 0.16581 0.8789 0.14026 0.0
C369 C 0.17504 0.89439 0.11642 0.0
C370 C 0.16361 0.8852 0.12647 0.0
C371 C 0.15348 0.8679 0.14956 0.0
H372 H 0.11024 0.79867 0.13126 0.0
H373 H 0.12498 0.81791 0.15005 0.0
H374 H 0.10353 0.8273 0.10167 0.0
H375 H 0.11824 0.84662 0.12076 0.0
H376 H 0.08437 0.81223 0.1789 0.0
H377 H 0.10249 0.83226 0.16275 0.0
H378 H 0.11748 0.81016 0.20513 0.0
H379 H 0.13545 0.83005 0.18907 0.0
H380 H 0.18342 0.91329 0.18474 0.0
H381 H 0.16527 0.89604 0.16608 0.0
H382 H 0.18309 0.87925 0.2115 0.0
H383 H 0.16507 0.86214 0.19293 0.0
H384 H 0.20153 0.89307 0.13676 0.0
H385 H 0.18156 0.87681 0.15402 0.0
H386 H 0.17305 0.89901 0.10576 0.0
H387 H 0.15301 0.88282 0.1233 0.0
N388 N 0.14294 0.85715 0.14077 0.0
N389 N 0.14194 0.85546 0.17415 0.0
C390 C 0.30413 0.11401 0.84018 0.0
C391 C 0.29423 0.10676 0.8276 0.0
C392 C 0.30261 0.12331 0.85065 0.0
C393 C 0.29105 0.12541 0.84891 0.0
C394 C 0.28253 0.10871 0.82604 0.0
C395 C 0.28103 0.11803 0.83653 0.0
C396 C 0.29025 0.1364 0.8587 0.0
C397 C 0.28607 0.10418 0.89635 0.0
C398 C 0.29737 0.10961 0.90766 0.0
C399 C 0.28438 0.11325 0.88579 0.0
C400 C 0.29398 0.12787 0.88636 0.0
C401 C 0.30697 0.12426 0.90806 0.0
C402 C 0.30522 0.13328 0.89762 0.0
C403 C 0.29217 0.13782 0.87596 0.0
C404 C 0.28596 0.18841 0.89183 0.0
C405 C 0.29663 0.19461 0.90387 0.0
C406 C 0.28427 0.17689 0.88252 0.0
C407 C 0.29339 0.17155 0.8849 0.0
C408 C 0.30553 0.18905 0.90642 0.0
C409 C 0.3039 0.17763 0.89707 0.0
C410 C 0.29195 0.15941 0.87524 0.0
C411 C 0.30413 0.19395 0.83825 0.0
C412 C 0.29409 0.19088 0.82578 0.0
C413 C 0.30276 0.18336 0.84884 0.0
C414 C 0.29119 0.16952 0.84739 0.0
C415 C 0.28251 0.17699 0.82433 0.0
C416 C 0.28114 0.16639 0.83498 0.0
C417 C 0.2902 0.15811 0.85793 0.0
H418 H 0.31321 0.11268 0.84176 0.0
H419 H 0.31076 0.1292 0.85973 0.0
H420 H 0.27483 0.10343 0.81633 0.0
H421 H 0.27215 0.11967 0.83479 0.0
H422 H 0.27838 0.09297 0.89587 0.0
H423 H 0.27546 0.10887 0.87743 0.0
H424 H 0.31596 0.12879 0.91633 0.0
H425 H 0.31276 0.14453 0.89826 0.0
H426 H 0.27883 0.19237 0.88976 0.0
H427 H 0.2758 0.17212 0.87356 0.0
H428 H 0.31396 0.19371 0.91544 0.0
H429 H 0.31103 0.17368 0.89919 0.0
H430 H 0.31311 0.20454 0.83978 0.0
H431 H 0.3109 0.18597 0.85798 0.0
H432 H 0.27472 0.17424 0.8147 0.0
H433 H 0.27226 0.15572 0.83346 0.0
N434 N 0.28928 0.14659 0.85037 0.0
N435 N 0.29293 0.14925 0.8835 0.0
C436 C 0.90188 0.18487 0.88796 0.0
C437 C 0.89659 0.19071 0.89949 0.0
C438 C 0.89258 0.17356 0.87787 0.0
C439 C 0.87784 0.16809 0.87895 0.0
C440 C 0.88185 0.18511 0.90061 0.0
C441 C 0.8726 0.17392 0.8905 0.0
C442 C 0.86761 0.15594 0.86878 0.0
C443 C 0.89341 0.19044 0.83211 0.0
C444 C 0.90029 0.187 0.81979 0.0
C445 C 0.88353 0.18005 0.8427 0.0
C446 C 0.88053 0.16603 0.84145 0.0
C447 C 0.89729 0.17298 0.81855 0.0
C448 C 0.88748 0.16259 0.82925 0.0
C449 C 0.86916 0.15469 0.85161 0.0
C450 C 0.8114 0.1092 0.83102 0.0
C451 C 0.81496 0.10221 0.81901 0.0
C452 C 0.82171 0.11896 0.84173 0.0
C453 C 0.83574 0.12171 0.84092 0.0
C454 C 0.829 0.10498 0.81818 0.0
C455 C 0.83929 0.11467 0.82901 0.0
C456 C 0.84699 0.13283 0.85133 0.0
C457 C 0.81508 0.10017 0.88657 0.0
C458 C 0.80895 0.10552 0.89763 0.0
C459 C 0.82698 0.10935 0.87705 0.0
C460 C 0.83283 0.12405 0.87829 0.0
C461 C 0.81509 0.12025 0.89908 0.0
C462 C 0.82688 0.12938 0.88955 0.0
C463 C 0.84543 0.13414 0.86848 0.0
H464 H 0.91319 0.18888 0.88695 0.0
H465 H 0.89688 0.16901 0.8694 0.0
H466 H 0.87745 0.1895 0.90918 0.0
H467 H 0.86129 0.16988 0.89162 0.0
H468 H 0.89523 0.20107 0.83314 0.0
H469 H 0.87791 0.1829 0.85152 0.0
H470 H 0.90245 0.17001 0.8092 0.0
H471 H 0.8852 0.15182 0.82788 0.0
H472 H 0.80076 0.10754 0.83171 0.0
H473 H 0.81879 0.12465 0.85034 0.0
H474 H 0.83205 0.09974 0.80907 0.0
H475 H 0.85008 0.11676 0.82799 0.0
H476 H 0.81061 0.08888 0.88514 0.0
H477 H 0.8316 0.10497 0.86879 0.0
H478 H 0.81088 0.12476 0.90774 0.0
H479 H 0.8313 0.14067 0.8909 0.0
N480 N 0.8558 0.14565 0.87644 0.0
N481 N 0.85884 0.14311 0.84363 0.0
C482 C 0.81211 0.71395 0.89122 0.0
C483 C 0.80543 0.70203 0.90154 0.0
C484 C 0.82419 0.71682 0.88203 0.0
C485 C 0.82973 0.70778 0.883 0.0
C486 C 0.8112 0.6932 0.90271 0.0
C487 C 0.82326 0.6961 0.8936 0.0
C488 C 0.84237 0.71037 0.87332 0.0
C489 C 0.80828 0.69972 0.8357 0.0
C490 C 0.81153 0.71048 0.82419 0.0
C491 C 0.81867 0.70065 0.84637 0.0
C492 C 0.83248 0.71244 0.8459 0.0
C493 C 0.82532 0.72237 0.82388 0.0
C494 C 0.83573 0.72328 0.83456 0.0
C495 C 0.84381 0.71288 0.85615 0.0
C496 C 0.8892 0.70032 0.83762 0.0
C497 C 0.89583 0.70992 0.82462 0.0
C498 C 0.87963 0.70146 0.8481 0.0
C499 C 0.87677 0.71248 0.84609 0.0
C500 C 0.89291 0.72088 0.82252 0.0
C501 C 0.88346 0.72213 0.83316 0.0
C502 C 0.86577 0.71309 0.8563 0.0
C503 C 0.89909 0.71721 0.89194 0.0
C504 C 0.89403 0.70631 0.90367 0.0
C505 C 0.88957 0.71889 0.88214 0.0
C506 C 0.87487 0.70953 0.88373 0.0
C507 C 0.87932 0.69714 0.90541 0.0
C508 C 0.86985 0.69877 0.89559 0.0
C509 C 0.86447 0.71094 0.87357 0.0
H510 H 0.80789 0.72093 0.89007 0.0
H511 H 0.82918 0.72607 0.8742 0.0
H512 H 0.80644 0.68408 0.91076 0.0
H513 H 0.82742 0.68905 0.89467 0.0
H514 H 0.79773 0.69046 0.83629 0.0
H515 H 0.81599 0.69196 0.85469 0.0
H516 H 0.82819 0.73073 0.81499 0.0
H517 H 0.84638 0.73237 0.83384 0.0
H518 H 0.891 0.69158 0.8393 0.0
H519 H 0.87415 0.69346 0.85745 0.0
H520 H 0.89788 0.72843 0.81259 0.0
H521 H 0.88125 0.73057 0.83118 0.0
H522 H 0.91037 0.72452 0.89047 0.0
H523 H 0.89369 0.72751 0.87339 0.0
H524 H 0.8751 0.68852 0.91416 0.0
H525 H 0.85856 0.69144 0.89709 0.0
N526 N 0.85277 0.70954 0.88131 0.0
N527 N 0.85547 0.71417 0.84833 0.0
C528 C 0.76657 0.6215 0.4581 0.0
C529 C 0.7722 0.6319 0.4457 0.0
C530 C 0.77545 0.61836 0.46716 0.0
C531 C 0.79018 0.62574 0.46423 0.0
C532 C 0.78686 0.63879 0.44233 0.0
C533 C 0.79573 0.63574 0.45148 0.0
C534 C 0.80002 0.62329 0.47425 0.0
C535 C 0.77997 0.63963 0.5102 0.0
C536 C 0.77214 0.63012 0.52293 0.0
C537 C 0.7887 0.63709 0.49983 0.0
C538 C 0.78961 0.62489 0.50184 0.0
C539 C 0.77308 0.61791 0.5249 0.0
C540 C 0.7818 0.61538 0.5145 0.0
C541 C 0.79954 0.6226 0.49168 0.0
C542 C 0.85676 0.63414 0.50996 0.0
C543 C 0.85364 0.62483 0.52326 0.0
C544 C 0.84601 0.63257 0.49941 0.0
C545 C 0.83194 0.62156 0.50182 0.0
C546 C 0.83958 0.6137 0.52552 0.0
C547 C 0.82882 0.61216 0.51498 0.0
C548 C 0.82033 0.62067 0.49167 0.0
C549 C 0.84856 0.61279 0.45855 0.0
C550 C 0.85412 0.62196 0.445 0.0
C551 C 0.83736 0.61206 0.46783 0.0
C552 C 0.83194 0.6209 0.46406 0.0
C553 C 0.84822 0.63023 0.44073 0.0
C554 C 0.83728 0.62974 0.45019 0.0
C555 C 0.82068 0.6211 0.47422 0.0
H556 H 0.75534 0.61599 0.46105 0.0
H557 H 0.77081 0.61027 0.47658 0.0
H558 H 0.79154 0.64659 0.43261 0.0
H559 H 0.80702 0.64145 0.44879 0.0
H560 H 0.77943 0.64909 0.50832 0.0
H561 H 0.79494 0.64479 0.49044 0.0
H562 H 0.76737 0.61052 0.53476 0.0
H563 H 0.78255 0.60603 0.51642 0.0
H564 H 0.86749 0.64278 0.50785 0.0
H565 H 0.84864 0.64017 0.4896 0.0
H566 H 0.83681 0.60649 0.53579 0.0
H567 H 0.818 0.60374 0.51722 0.0
H568 H 0.85287 0.6062 0.46193 0.0
H569 H 0.83306 0.60469 0.478 0.0
H570 H 0.85242 0.63745 0.4304 0.0
H571 H 0.83323 0.63657 0.44689 0.0
N572 N 0.81056 0.62249 0.46627 0.0
N573 N 0.80966 0.62125 0.49967 0.0
C574 C 0.36058 0.22087 0.4658 0.0
C575 C 0.36864 0.22704 0.45143 0.0
C576 C 0.36362 0.21255 0.47596 0.0
C577 C 0.37495 0.21041 0.47215 0.0
C578 C 0.37989 0.22478 0.44754 0.0
C579 C 0.38297 0.21649 0.45777 0.0
C580 C 0.37758 0.20081 0.48228 0.0
C581 C 0.38563 0.23701 0.5161 0.0
C582 C 0.37641 0.23289 0.52983 0.0
C583 C 0.38621 0.22684 0.50616 0.0
C584 C 0.37747 0.21238 0.50969 0.0
C585 C 0.36771 0.21841 0.53326 0.0
C586 C 0.3683 0.2083 0.52337 0.0
C587 C 0.37802 0.20132 0.49972 0.0
C588 C 0.38631 0.15249 0.51781 0.0
C589 C 0.37677 0.14733 0.53125 0.0
C590 C 0.387 0.16308 0.50764 0.0
C591 C 0.37804 0.16858 0.51062 0.0
C592 C 0.36792 0.15295 0.5342 0.0
C593 C 0.36861 0.16348 0.52407 0.0
C594 C 0.3785 0.17984 0.5002 0.0
C595 C 0.36242 0.14209 0.46669 0.0
C596 C 0.37137 0.14395 0.4532 0.0
C597 C 0.36486 0.15356 0.47653 0.0
C598 C 0.37637 0.16712 0.47317 0.0
C599 C 0.383 0.1575 0.44995 0.0
C600 C 0.38539 0.16902 0.45978 0.0
C601 C 0.37825 0.17942 0.48278 0.0
H602 H 0.35163 0.22212 0.46895 0.0
H603 H 0.35687 0.20751 0.48659 0.0
H604 H 0.38634 0.22944 0.4366 0.0
H605 H 0.39162 0.2148 0.45445 0.0
H606 H 0.39256 0.24809 0.51324 0.0
H607 H 0.39361 0.23027 0.49588 0.0
H608 H 0.36028 0.21484 0.54353 0.0
H609 H 0.36144 0.19722 0.52634 0.0
H610 H 0.39338 0.1485 0.51532 0.0
H611 H 0.39462 0.16707 0.49757 0.0
H612 H 0.36027 0.14906 0.54424 0.0
H613 H 0.36158 0.16753 0.52663 0.0
H614 H 0.35344 0.13175 0.46956 0.0
H615 H 0.35754 0.15189 0.48654 0.0
H616 H 0.38996 0.15926 0.43952 0.0
H617 H 0.39421 0.17944 0.45685 0.0
N618 N 0.37787 0.18995 0.4745 0.0
N619 N 0.37838 0.19078 0.50794 0.0
C620 C 0.78126 0.14013 0.45282 0.0
C621 C 0.77356 0.14155 0.43993 0.0
C622 C 0.78998 0.15165 0.46287 0.0
C623 C 0.7911 0.1648 0.46033 0.0
C624 C 0.77481 0.15478 0.43728 0.0
C625 C 0.78364 0.16635 0.44731 0.0
C626 C 0.80059 0.17702 0.4708 0.0
C627 C 0.76416 0.14622 0.50297 0.0
C628 C 0.76829 0.14211 0.51726 0.0
C629 C 0.77429 0.15751 0.49347 0.0
C630 C 0.78874 0.16451 0.49784 0.0
C631 C 0.78263 0.14926 0.52178 0.0
C632 C 0.79274 0.1603 0.51215 0.0
C633 C 0.79985 0.17657 0.48823 0.0
C634 C 0.85112 0.23289 0.50811 0.0
C635 C 0.8565 0.22761 0.52004 0.0
C636 C 0.83953 0.2236 0.49835 0.0
C637 C 0.83323 0.20891 0.50031 0.0
C638 C 0.84977 0.21293 0.52236 0.0
C639 C 0.83826 0.20371 0.51265 0.0
C640 C 0.82162 0.19868 0.48951 0.0
C641 C 0.8602 0.22286 0.45793 0.0
C642 C 0.85856 0.23036 0.44502 0.0
C643 C 0.8484 0.21266 0.46659 0.0
C644 C 0.83475 0.21006 0.46288 0.0
C645 C 0.84487 0.22743 0.44088 0.0
C646 C 0.83304 0.21735 0.44978 0.0
C647 C 0.82224 0.19924 0.47208 0.0
H648 H 0.78044 0.13006 0.45524 0.0
H649 H 0.7959 0.15029 0.47263 0.0
H650 H 0.76913 0.15622 0.42733 0.0
H651 H 0.78454 0.17648 0.44501 0.0
H652 H 0.7531 0.14089 0.49939 0.0
H653 H 0.77079 0.16084 0.48286 0.0
H654 H 0.78604 0.14619 0.5327 0.0
H655 H 0.80377 0.1655 0.51587 0.0
H656 H 0.85605 0.24415 0.50608 0.0
H657 H 0.83564 0.22788 0.48913 0.0
H658 H 0.85343 0.20854 0.53171 0.0
H659 H 0.8335 0.19243 0.51452 0.0
H660 H 0.87061 0.22466 0.46106 0.0
H661 H 0.84994 0.20673 0.47614 0.0
H662 H 0.84336 0.23301 0.43087 0.0
H663 H 0.82257 0.21529 0.44651 0.0
N664 N 0.81166 0.18843 0.46339 0.0
N665 N 0.81044 0.18739 0.49682 0.0
C666 C 0.98085 0.53329 0.16964 0.0
C667 C 0.9907 0.54024 0.15684 0.0
C668 C 0.98155 0.52311 0.17915 0.0
C669 C 0.99214 0.51972 0.17603 0.0
C670 C 0.00121 0.53675 0.15367 0.0
C671 C 0.00185 0.5265 0.16311 0.0
C672 C 0.99287 0.50883 0.18586 0.0
C673 C 0.00545 0.54543 0.22044 0.0
C674 C 0.9958 0.54247 0.2335 0.0
C675 C 0.00439 0.53453 0.21044 0.0
C676 C 0.99363 0.5205 0.2133 0.0
C677 C 0.98505 0.52841 0.23634 0.0
C678 C 0.98406 0.5175 0.22641 0.0
C679 C 0.99282 0.50884 0.20327 0.0
C680 C 0.00652 0.46411 0.21999 0.0
C681 C -0.00236 0.45811 0.23384 0.0
C682 C 0.005 0.47347 0.20983 0.0
C683 C 0.99443 0.47683 0.21319 0.0
C684 C 0.98712 0.46155 0.23721 0.0
C685 C 0.98558 0.47086 0.22701 0.0
C686 C 0.99323 0.48736 0.20316 0.0
C687 C 0.98269 0.4509 0.16914 0.0
C688 C 0.99202 0.45429 0.15563 0.0
C689 C 0.98305 0.46158 0.17897 0.0
C690 C 0.99287 0.47585 0.17561 0.0
C691 C 0.00172 0.46859 0.15219 0.0
C692 C 0.00208 0.47925 0.16203 0.0
C693 C 0.99323 0.48731 0.1857 0.0
H694 H 0.97266 0.53579 0.17238 0.0
H695 H 0.97375 0.5178 0.18885 0.0
H696 H 0.00881 0.54178 0.14371 0.0
H697 H 0.01 0.52393 0.1604 0.0
H698 H 0.0138 0.55617 0.21792 0.0
H699 H 0.0121 0.53706 0.20063 0.0
H700 H 0.97757 0.52582 0.24644 0.0
H701 H 0.97579 0.50672 0.22894 0.0
H702 H 0.01489 0.46187 0.21725 0.0
H703 H 0.0123 0.47832 0.19958 0.0
H704 H 0.98004 0.45699 0.24771 0.0
H705 H 0.97745 0.47342 0.22993 0.0
H706 H 0.97492 0.44 0.17194 0.0
H707 H 0.97552 0.45868 0.18906 0.0
H708 H 0.00914 0.47156 0.14197 0.0
H709 H 0.00968 0.49019 0.15914 0.0
N710 N 0.99315 0.49812 0.17773 0.0
N711 N 0.99293 0.49807 0.21124 0.0
C712 C 0.48424 0.43071 0.1673 0.0
C713 C 0.47919 0.43453 0.15353 0.0
C714 C 0.49481 0.44111 0.17732 0.0
C715 C 0.50036 0.45551 0.17385 0.0
C716 C 0.48487 0.44895 0.15007 0.0
C717 C 0.49537 0.45929 0.16007 0.0
C718 C 0.51161 0.46682 0.18409 0.0
C719 C 0.47341 0.44539 0.21737 0.0
C720 C 0.47509 0.43871 0.23117 0.0
C721 C 0.48507 0.45439 0.20756 0.0
C722 C 0.49866 0.4568 0.21124 0.0
C723 C 0.48869 0.44106 0.23479 0.0
C724 C 0.50039 0.45014 0.22499 0.0
C725 C 0.51114 0.46709 0.20152 0.0
C726 C 0.55254 0.5269 0.21783 0.0
C727 C 0.5594 0.5256 0.23173 0.0
C728 C 0.54413 0.5152 0.20787 0.0
C729 C 0.54251 0.50198 0.21148 0.0
C730 C 0.55783 0.51237 0.23529 0.0
C731 C 0.54935 0.50063 0.22533 0.0
C732 C 0.53277 0.48939 0.20163 0.0
C733 C 0.56892 0.51785 0.16746 0.0
C734 C 0.56465 0.52259 0.15379 0.0
C735 C 0.5588 0.50698 0.17748 0.0
C736 C 0.54424 0.50078 0.17408 0.0
C737 C 0.55007 0.51631 0.15046 0.0
C738 C 0.54001 0.5055 0.16042 0.0
C739 C 0.53323 0.48911 0.18421 0.0
H740 H 0.48019 0.41969 0.17017 0.0
H741 H 0.49874 0.4379 0.18765 0.0
H742 H 0.48105 0.45227 0.13974 0.0
H743 H 0.49946 0.47031 0.15713 0.0
H744 H 0.46306 0.44372 0.2142 0.0
H745 H 0.48351 0.45971 0.19729 0.0
H746 H 0.49034 0.4362 0.24547 0.0
H747 H 0.51082 0.45203 0.22818 0.0
H748 H 0.55362 0.53697 0.21469 0.0
H749 H 0.53865 0.51644 0.19752 0.0
H750 H 0.56284 0.51101 0.24604 0.0
H751 H 0.54805 0.49047 0.22848 0.0
H752 H 0.58008 0.52237 0.17025 0.0
H753 H 0.56236 0.50331 0.18773 0.0
H754 H 0.54638 0.51988 0.14024 0.0
H755 H 0.52885 0.50091 0.15756 0.0
N756 N 0.52261 0.47786 0.17617 0.0
N757 N 0.5218 0.47832 0.20962 0.0
C758 C 0.46334 0.0146 0.22226 0.0
C759 C 0.45703 0.00368 0.23396 0.0
C760 C 0.47446 0.01606 0.21222 0.0
C761 C 0.47928 0.00644 0.21345 0.0
C762 C 0.46203 0.99423 0.23537 0.0
C763 C 0.47306 0.99561 0.22523 0.0
C764 C 0.4912 0.00786 0.20318 0.0
C765 C 0.45669 0.00016 0.16733 0.0
C766 C 0.46048 0.01152 0.15652 0.0
C767 C 0.46696 -0.00028 0.17704 0.0
C768 C 0.4812 0.01069 0.17619 0.0
C769 C 0.47475 0.02247 0.15572 0.0
C770 C 0.48502 0.022 0.16538 0.0
C771 C 0.49226 0.01013 0.18595 0.0
C772 C 0.53931 -0.00055 0.16695 0.0
C773 C 0.54629 0.00982 0.15477 0.0
C774 C 0.52877 -0.00059 0.17685 0.0
C775 C 0.52522 0.00996 0.175 0.0
C776 C 0.54245 0.02014 0.15264 0.0
C777 C 0.532 0.02018 0.16264 0.0
C778 C 0.51405 0.01004 0.18541 0.0
C779 C 0.549 0.01659 0.21967 0.0
C780 C 0.5448 0.00667 0.23244 0.0
C781 C 0.53881 0.01727 0.21005 0.0
C782 C 0.52426 0.00768 0.21269 0.0
C783 C 0.53028 0.99739 0.23541 0.0
C784 C 0.52011 0.99787 0.2256 0.0
C785 C 0.51321 0.00818 0.20273 0.0
H786 H 0.45986 0.02219 0.22112 0.0
H787 H 0.47941 0.02482 0.20366 0.0
H788 H 0.45731 0.98566 0.2442 0.0
H789 H 0.47666 0.98813 0.22652 0.0
H790 H 0.44577 0.99158 0.16825 0.0
H791 H 0.46381 0.99074 0.18504 0.0
H792 H 0.47804 0.03123 0.14732 0.0
H793 H 0.49598 0.03048 0.16442 0.0
H794 H 0.54183 0.99119 0.16864 0.0
H795 H 0.52333 0.99109 0.18587 0.0
H796 H 0.54767 0.02828 0.14337 0.0
H797 H 0.52931 0.0283 0.16086 0.0
H798 H 0.56016 0.02398 0.21732 0.0
H799 H 0.54233 0.02534 0.20066 0.0
H800 H 0.5268 0.98961 0.24517 0.0
H801 H 0.50897 0.99048 0.22804 0.0
N802 N 0.50173 0.007 0.21085 0.0
N803 N 0.50364 0.01115 0.17775 0.0
C804 C 0.54301 -5e-05 0.7995 0.0
C805 C 0.54025 0.99062 0.78624 0.0
C806 C 0.53192 -0.0013 0.80938 0.0
C807 C 0.51788 0.988 0.80627 0.0
C808 C 0.52619 0.97987 0.78318 0.0
C809 C 0.51508 0.97866 0.79305 0.0
C810 C 0.50604 0.98719 0.81606 0.0
C811 C 0.53094 0.97593 0.84998 0.0
C812 C 0.53729 0.98533 0.86328 0.0
C813 C 0.52069 0.97648 0.84034 0.0
C814 C 0.51669 0.98656 0.84368 0.0
C815 C 0.533 0.99516 0.86683 0.0
C816 C 0.52278 0.99573 0.85717 0.0
C817 C 0.50593 0.9874 0.83351 0.0
C818 C 0.44897 0.98041 0.84978 0.0
C819 C 0.45289 0.99074 0.86215 0.0
C820 C 0.45933 0.97979 0.84023 0.0
C821 C 0.47379 0.9895 0.84289 0.0
C822 C 0.46738 0.00041 0.86482 0.0
C823 C 0.47773 -0.00028 0.85535 0.0
C824 C 0.48489 0.98882 0.83313 0.0
C825 C 0.46289 0.00295 0.7982 0.0
C826 C 0.4553 0.99307 0.78569 0.0
C827 C 0.47245 0.00141 0.80804 0.0
C828 C 0.47457 0.98995 0.80559 0.0
C829 C 0.45755 0.98168 0.78317 0.0
C830 C 0.4672 0.98021 0.79295 0.0
C831 C 0.48491 0.98843 0.81571 0.0
H832 H 0.55375 0.00828 0.8022 0.0
H833 H 0.5343 0.00625 0.81927 0.0
H834 H 0.52374 0.97265 0.77291 0.0
H835 H 0.50428 0.97045 0.79033 0.0
H836 H 0.53402 0.96825 0.84688 0.0
H837 H 0.51586 0.969 0.83031 0.0
H838 H 0.53744 0.00236 0.87718 0.0
H839 H 0.51974 0.00347 0.86013 0.0
H840 H 0.43788 0.97285 0.84745 0.0
H841 H 0.45606 0.97163 0.83089 0.0
H842 H 0.47071 0.00835 0.87444 0.0
H843 H 0.48884 0.00723 0.85769 0.0
H844 H 0.46133 0.01179 0.80048 0.0
H845 H 0.47827 0.00925 0.81747 0.0
H846 H 0.452 0.97401 0.77349 0.0
H847 H 0.46882 0.9714 0.79073 0.0
N848 N 0.49547 0.98758 0.80784 0.0
N849 N 0.49541 0.98833 0.84136 0.0
C850 C 0.99501 0.53669 0.79781 0.0
C851 C 0.00501 0.54438 0.78533 0.0
C852 C 0.99675 0.52748 0.80798 0.0
C853 C 0.00848 0.52566 0.80585 0.0
C854 C 0.01672 0.54244 0.78323 0.0
C855 C 0.01834 0.53306 0.79327 0.0
C856 C 0.01017 0.51567 0.81632 0.0
C857 C 0.01953 0.55295 0.84831 0.0
C858 C 0.01044 0.5497 0.86204 0.0
C859 C 0.01953 0.54217 0.83903 0.0
C860 C 0.0103 0.52793 0.84316 0.0
C861 C 0.00137 0.53543 0.86627 0.0
C862 C 0.00134 0.52468 0.85696 0.0
C863 C 0.01034 0.51635 0.83374 0.0
C864 C 0.02116 0.46938 0.85251 0.0
C865 C 0.01181 0.46377 0.86607 0.0
C866 C 0.02101 0.47958 0.8424 0.0
C867 C 0.01139 0.48425 0.84553 0.0
C868 C 0.00245 0.46875 0.86937 0.0
C869 C 0.00228 0.4789 0.85925 0.0
C870 C 0.01093 0.49495 0.8349 0.0
C871 C -0.00282 0.45685 0.80261 0.0
C872 C 0.00633 0.45905 0.78922 0.0
C873 C -0.00133 0.46826 0.81191 0.0
C874 C 0.00946 0.48209 0.80812 0.0
C875 C 0.0171 0.47291 0.78541 0.0
C876 C 0.01857 0.48434 0.79472 0.0
C877 C 0.01071 0.49426 0.81746 0.0
H878 H 0.98568 0.53761 0.79959 0.0
H879 H 0.98884 0.52161 0.8174 0.0
H880 H 0.02477 0.5483 0.77396 0.0
H881 H 0.02742 0.53174 0.79139 0.0
H882 H 0.02661 0.56381 0.84468 0.0
H883 H 0.02688 0.54501 0.82877 0.0
H884 H 0.99444 0.53255 0.87696 0.0
H885 H 0.99426 0.51379 0.86053 0.0
H886 H 0.02849 0.46578 0.8496 0.0
H887 H 0.02844 0.48383 0.83217 0.0
H888 H 0.99533 0.4649 0.87991 0.0
H889 H 0.9949 0.48246 0.86205 0.0
H890 H 0.98884 0.44629 0.80592 0.0
H891 H 0.99127 0.46629 0.82193 0.0
H892 H 0.02418 0.47496 0.77502 0.0
H893 H 0.02683 0.49495 0.79145 0.0
N894 N 0.01044 0.5047 0.80885 0.0
N895 N 0.01065 0.50593 0.84234 0.0
C896 C 0.51964 0.56829 0.79141 0.0
C897 C 0.52618 0.56388 0.77972 0.0
C898 C 0.50772 0.55834 0.80028 0.0
C899 C 0.50227 0.54382 0.79775 0.0
C900 C 0.52044 0.54934 0.77695 0.0
C901 C 0.50858 0.53943 0.78581 0.0
C902 C 0.49002 0.533 0.80735 0.0
C903 C 0.52506 0.55532 0.84439 0.0
C904 C 0.52209 0.56206 0.85731 0.0
C905 C 0.51439 0.54629 0.83355 0.0
C906 C 0.50056 0.54396 0.83521 0.0
C907 C 0.50826 0.5598 0.85888 0.0
C908 C 0.49757 0.55075 0.848 0.0
C909 C 0.48895 0.53342 0.8247 0.0
C910 C 0.44537 0.47474 0.84233 0.0
C911 C 0.43793 0.47708 0.85501 0.0
C912 C 0.45461 0.48576 0.83197 0.0
C913 C 0.45642 0.49929 0.8339 0.0
C914 C 0.43966 0.4906 0.85681 0.0
C915 C 0.4489 0.50163 0.84641 0.0
C916 C 0.46718 0.51129 0.82404 0.0
C917 C 0.43406 0.48079 0.78892 0.0
C918 C 0.43936 0.47526 0.777 0.0
C919 C 0.44336 0.49252 0.79843 0.0
C920 C 0.45813 0.49876 0.79638 0.0
C921 C 0.45411 0.4818 0.77465 0.0
C922 C 0.46339 0.49344 0.7842 0.0
C923 C 0.46829 0.51084 0.80668 0.0
H924 H 0.5237 0.57943 0.79364 0.0
H925 H 0.5028 0.56198 0.80914 0.0
H926 H 0.52534 0.54557 0.76823 0.0
H927 H 0.50455 0.52829 0.78362 0.0
H928 H 0.53561 0.55691 0.84278 0.0
H929 H 0.51688 0.54084 0.82411 0.0
H930 H 0.50558 0.56467 0.86885 0.0
H931 H 0.48692 0.54891 0.84968 0.0
H932 H 0.4442 0.46442 0.84056 0.0
H933 H 0.46062 0.48379 0.82274 0.0
H934 H 0.43426 0.4928 0.86663 0.0
H935 H 0.45034 0.51205 0.84829 0.0
H936 H 0.42273 0.4761 0.79082 0.0
H937 H 0.43902 0.49668 0.8074 0.0
H938 H 0.45853 0.4777 0.76569 0.0
H939 H 0.47472 0.4981 0.78232 0.0
N940 N 0.47969 0.5217 0.79906 0.0
N941 N 0.4775 0.52261 0.83234 0.0
C942 C 0.63729 0.77781 0.50649 0.0
C943 C 0.62732 0.77046 0.494 0.0
C944 C 0.63574 0.78706 0.51699 0.0
C945 C 0.62407 0.78902 0.51539 0.0
C946 C 0.61559 0.77236 0.49249 0.0
C947 C 0.61404 0.78163 0.50302 0.0
C948 C 0.62301 0.79968 0.52555 0.0
C949 C 0.61957 0.76645 0.56068 0.0
C950 C 0.6303 0.77166 0.57267 0.0
C951 C 0.61755 0.77577 0.55099 0.0
C952 C 0.6264 0.79045 0.55295 0.0
C953 C 0.63893 0.78634 0.5748 0.0
C954 C 0.63697 0.79561 0.56509 0.0
C955 C 0.62466 0.80065 0.54288 0.0
C956 C 0.61874 0.8512 0.56022 0.0
C957 C 0.62946 0.85724 0.57221 0.0
C958 C 0.61696 0.83977 0.55066 0.0
C959 C 0.62602 0.83432 0.55277 0.0
C960 C 0.6383 0.85158 0.57449 0.0
C961 C 0.63656 0.84022 0.56492 0.0
C962 C 0.62449 0.82228 0.54282 0.0
C963 C 0.6374 0.8574 0.5063 0.0
C964 C 0.62708 0.85477 0.49434 0.0
C965 C 0.63588 0.84661 0.51665 0.0
C966 C 0.62396 0.83297 0.51536 0.0
C967 C 0.61511 0.84108 0.49314 0.0
C968 C 0.61363 0.83026 0.50347 0.0
C969 C 0.62287 0.82134 0.52551 0.0
H970 H 0.64639 0.77652 0.50805 0.0
H971 H 0.64385 0.79295 0.52611 0.0
H972 H 0.60784 0.76702 0.48284 0.0
H973 H 0.60509 0.78316 0.50139 0.0
H974 H 0.61264 0.75519 0.55892 0.0
H975 H 0.60904 0.77151 0.54205 0.0
H976 H 0.64741 0.79068 0.58378 0.0
H977 H 0.6439 0.80688 0.56689 0.0
H978 H 0.61164 0.85522 0.55835 0.0
H979 H 0.60846 0.83514 0.54172 0.0
H980 H 0.64678 0.8561 0.58346 0.0
H981 H 0.64365 0.83618 0.56683 0.0
H982 H 0.64692 0.86769 0.50732 0.0
H983 H 0.64421 0.84885 0.5254 0.0
H984 H 0.60689 0.83871 0.48418 0.0
H985 H 0.60442 0.81977 0.50217 0.0
N986 N 0.62208 0.81002 0.51756 0.0
N987 N 0.62536 0.81192 0.55077 0.0
C988 C 0.14928 0.76463 0.50975 0.0
C989 C 0.14406 0.76919 0.49684 0.0
C990 C 0.16074 0.77447 0.51927 0.0
C991 C 0.16711 0.78901 0.51607 0.0
C992 C 0.15072 0.78372 0.49344 0.0
C993 C 0.16212 0.79349 0.5029 0.0
C994 C 0.17901 0.7998 0.52609 0.0
C995 C 0.14112 0.77958 0.55954 0.0
C996 C 0.14201 0.77093 0.57163 0.0
C997 C 0.1531 0.78905 0.55048 0.0
C998 C 0.16624 0.79009 0.55325 0.0
C999 C 0.15529 0.77219 0.57459 0.0
C1000 C 0.16733 0.78178 0.56555 0.0
C1001 C 0.17882 0.80013 0.5435 0.0
C1002 C 0.2208 0.85973 0.55906 0.0
C1003 C 0.22906 0.85887 0.57172 0.0
C1004 C 0.21169 0.84782 0.54977 0.0
C1005 C 0.21066 0.83479 0.55288 0.0
C1006 C 0.22786 0.84572 0.57493 0.0
C1007 C 0.21864 0.83376 0.56566 0.0
C1008 C 0.20074 0.82216 0.54325 0.0
C1009 C 0.23622 0.85163 0.50894 0.0
C1010 C 0.23169 0.85493 0.49436 0.0
C1011 C 0.22641 0.84074 0.51919 0.0
C1012 C 0.21184 0.83337 0.5153 0.0
C1013 C 0.21725 0.84735 0.49028 0.0
C1014 C 0.20744 0.83675 0.50065 0.0
C1015 C 0.20098 0.82179 0.52579 0.0
H1016 H 0.14437 0.7535 0.51264 0.0
H1017 H 0.16461 0.77072 0.52911 0.0
H1018 H 0.14717 0.78756 0.48335 0.0
H1019 H 0.16692 0.80463 0.50008 0.0
H1020 H 0.1312 0.77921 0.55723 0.0
H1021 H 0.15211 0.79564 0.54133 0.0
H1022 H 0.15635 0.76566 0.58374 0.0
H1023 H 0.17742 0.78254 0.56795 0.0
H1024 H 0.22113 0.86955 0.55652 0.0
H1025 H 0.20533 0.84875 0.54024 0.0
H1026 H 0.23412 0.84468 0.58449 0.0
H1027 H 0.21786 0.82374 0.56835 0.0
H1028 H 0.24736 0.85728 0.51221 0.0
H1029 H 0.23025 0.83804 0.53001 0.0
H1030 H 0.21351 0.84978 0.47914 0.0
H1031 H 0.19633 0.83126 0.49724 0.0
N1032 N 0.19007 0.81061 0.51799 0.0
N1033 N 0.18973 0.81126 0.55145 0.0
C1034 C 0.2321 0.37959 0.50186 0.0
C1035 C 0.22708 0.36912 0.4895 0.0
C1036 C 0.22257 0.38102 0.51219 0.0
C1037 C 0.20785 0.37191 0.51043 0.0
C1038 C 0.21234 0.36009 0.48777 0.0
C1039 C 0.20286 0.36153 0.49805 0.0
C1040 C 0.19747 0.37322 0.52102 0.0
C1041 C 0.22014 0.35913 0.55463 0.0
C1042 C 0.22855 0.36918 0.56663 0.0
C1043 C 0.21047 0.36086 0.54534 0.0
C1044 C 0.20902 0.37272 0.54777 0.0
C1045 C 0.22702 0.38104 0.56909 0.0
C1046 C 0.21726 0.38273 0.55981 0.0
C1047 C 0.19832 0.37418 0.53841 0.0
C1048 C 0.13958 0.35936 0.55755 0.0
C1049 C 0.14203 0.3686 0.57084 0.0
C1050 C 0.15075 0.36123 0.54737 0.0
C1051 C 0.1646 0.37254 0.55002 0.0
C1052 C 0.15595 0.37975 0.57374 0.0
C1053 C 0.16715 0.38167 0.56343 0.0
C1054 C 0.1765 0.37417 0.53953 0.0
C1055 C 0.14821 0.38136 0.50561 0.0
C1056 C 0.14131 0.37048 0.49391 0.0
C1057 C 0.15938 0.38233 0.51497 0.0
C1058 C 0.16385 0.3725 0.51265 0.0
C1059 C 0.14586 0.36071 0.49162 0.0
C1060 C 0.15709 0.36179 0.5008 0.0
C1061 C 0.17576 0.37339 0.52212 0.0
H1062 H 0.24338 0.38685 0.50336 0.0
H1063 H 0.22669 0.38934 0.5214 0.0
H1064 H 0.20811 0.35176 0.47857 0.0
H1065 H 0.19156 0.35437 0.49645 0.0
H1066 H 0.22074 0.34968 0.5527 0.0
H1067 H 0.2039 0.35278 0.53647 0.0
H1068 H 0.23338 0.38902 0.57816 0.0
H1069 H 0.21618 0.39188 0.56198 0.0
H1070 H 0.12906 0.35044 0.55525 0.0
H1071 H 0.14857 0.35364 0.53758 0.0
H1072 H 0.15816 0.38703 0.58388 0.0
H1073 H 0.17779 0.39032 0.56588 0.0
H1074 H 0.14491 0.38903 0.50757 0.0
H1075 H 0.1646 0.39081 0.52389 0.0
H1076 H 0.14088 0.35236 0.4825 0.0
H1077 H 0.16043 0.35415 0.49875 0.0
N1078 N 0.18621 0.37285 0.51358 0.0
N1079 N 0.18783 0.37467 0.54701 0.0
H1080 H 0.01913 0.38582 0.05062 0.0
H1081 H 0.01631 0.39979 0.07222 0.0
H1082 H 0.97515 0.36432 0.08468 0.0
H1083 H 0.97781 0.35024 0.06284 0.0
H1084 H 0.97512 0.38941 0.08095 0.0
H1085 H 0.01869 0.39728 0.12222 0.0
H1086 H 0.02443 0.40211 0.10123 0.0
H1087 H 0.01177 0.384 0.10617 0.0
C1088 C 0.00952 0.38092 0.05803 0.0
C1089 C -0.0013 0.36691 0.05504 0.0
C1090 C 0.00797 0.3889 0.07045 0.0
C1091 C 0.99562 0.38302 0.08023 0.0
C1092 C 0.9848 0.36901 0.07734 0.0
H1093 H 0.98922 0.42915 0.16533 0.0
H1094 H 0.98866 0.41064 0.14776 0.0
C1095 C 0.98635 0.36099 0.06489 0.0
C1096 C 0.99378 0.39181 0.09281 0.0
H1097 H 0.00963 0.41289 0.12633 0.0
C1098 C 0.98256 0.39441 0.091 0.0
C1099 C 0.00338 0.39817 0.10603 0.0
C1100 C 0.01516 0.39515 0.10916 0.0
C1101 C 0.98103 0.40369 0.10165 0.0
C1102 C 0.99114 0.4107 0.11426 0.0
C1103 C 0.00199 0.40763 0.11652 0.0
C1104 C 0.99094 0.42164 0.12486 0.0
C1105 C 0.96866 0.40594 0.09925 0.0
C1106 C 0.99253 0.43399 0.11781 0.0
C1107 C 0.99279 0.44453 0.12778 0.0
C1108 C 0.99155 0.44297 0.14504 0.0
C1109 C 0.99 0.43058 0.15207 0.0
C1110 C 0.98976 0.42004 0.14207 0.0
H1111 H 0.95983 0.39694 0.09256 0.0
H1112 H 0.96456 0.40734 0.11128 0.0
H1113 H 0.97219 0.41562 0.09181 0.0
H1114 H 0.99373 0.43556 0.10457 0.0
H1115 H 0.99387 0.45388 0.12196 0.0
H1116 H 0.64683 0.62503 0.05143 0.0
H1117 H 0.64059 0.60795 0.0739 0.0
H1118 H 0.59706 0.59799 0.07177 0.0
H1119 H 0.60316 0.61507 0.0497 0.0
H1120 H 0.60748 0.60237 0.1036 0.0
H1121 H 0.61829 0.56475 0.06924 0.0
H1122 H 0.63265 0.58276 0.07045 0.0
H1123 H 0.61698 0.57858 0.05902 0.0
C1124 C 0.63593 0.61918 0.05575 0.0
C1125 C 0.6255 0.62141 0.04872 0.0
C1126 C 0.63238 0.60939 0.06853 0.0
C1127 C 0.61833 0.60161 0.07438 0.0
C1128 C 0.60796 0.60389 0.06745 0.0
H1129 H 0.56441 0.524 0.12017 0.0
H1130 H 0.58 0.54393 0.10256 0.0
C1131 C 0.61149 0.61366 0.05478 0.0
C1132 C 0.61414 0.59102 0.08772 0.0
H1133 H 0.60866 0.55818 0.09593 0.0
C1134 C 0.60791 0.59279 0.10207 0.0
C1135 C 0.61469 0.57853 0.0856 0.0
C1136 C 0.62091 0.57591 0.07022 0.0
C1137 C 0.60158 0.58211 0.114 0.0
C1138 C 0.60178 0.56943 0.11168 0.0
C1139 C 0.60861 0.56794 0.0977 0.0
C1140 C 0.59343 0.55698 0.12246 0.0
C1141 C 0.59398 0.58415 0.12844 0.0
C1142 C 0.59603 0.55754 0.13948 0.0
C1143 C 0.58695 0.5462 0.14967 0.0
C1144 C 0.5752 0.53408 0.14296 0.0
C1145 C 0.57315 0.5333 0.12579 0.0
C1146 C 0.58215 0.54463 0.11567 0.0
H1147 H 0.59251 0.59334 0.12669 0.0
H1148 H 0.58338 0.57457 0.13039 0.0
H1149 H 0.60029 0.58602 0.1398 0.0
H1150 H 0.60484 0.56688 0.14493 0.0
H1151 H 0.58884 0.54713 0.16284 0.0
H1152 H 0.36928 0.9789 0.04818 0.0
H1153 H 0.38622 0.9848 0.07039 0.0
H1154 H 0.39044 0.02585 0.07537 0.0
H1155 H 0.37323 0.01998 0.05302 0.0
H1156 H 0.41461 0.00808 0.06906 0.0
H1157 H 0.38448 0.01053 0.12359 0.0
H1158 H 0.37576 0.00155 0.10474 0.0
H1159 H 0.38546 0.02049 0.10555 0.0
C1160 C 0.37367 0.98916 0.05404 0.0
C1161 C 0.36994 -0.001 0.04874 0.0
C1162 C 0.38336 0.9925 0.06676 0.0
C1163 C 0.38953 0.00572 0.07454 0.0
C1164 C 0.38564 0.01551 0.06963 0.0
H1165 H 0.45669 0.03374 0.14941 0.0
H1166 H 0.43983 0.03403 0.12978 0.0
C1167 C 0.37585 0.01216 0.05684 0.0
C1168 C 0.40065 0.0093 0.08705 0.0
H1169 H 0.40718 0.01376 0.12847 0.0
C1170 C 0.41306 0.00948 0.08202 0.0
C1171 C 0.3986 0.01119 0.10392 0.0
C1172 C 0.38534 0.01088 0.1099 0.0
C1173 C 0.42326 0.01101 0.0935 0.0
C1174 C 0.42091 0.01225 0.11043 0.0
C1175 C 0.40885 0.01274 0.11544 0.0
C1176 C 0.43043 0.012 0.12307 0.0
C1177 C 0.43633 0.01096 0.08749 0.0
C1178 C 0.43049 -0.00054 0.12591 0.0
C1179 C 0.44005 -0.00075 0.13704 0.0
C1180 C 0.44975 0.01161 0.14552 0.0
C1181 C 0.44943 0.0241 0.14292 0.0
C1182 C 0.43978 0.02427 0.13182 0.0
H1183 H 0.43807 0.01301 0.07402 0.0
H1184 H 0.44591 0.01904 0.09415 0.0
H1185 H 0.43508 0.00046 0.08998 0.0
H1186 H 0.42329 0.98988 0.11927 0.0
H1187 H 0.44012 0.98951 0.13864 0.0
H1188 H 0.38653 0.01755 0.97266 0.0
H1189 H 0.40139 0.01573 0.95122 0.0
H1190 H 0.36528 0.97738 0.93315 0.0
H1191 H 0.35026 0.97906 0.95464 0.0
H1192 H 0.40469 0.99078 0.94708 0.0
H1193 H 0.38404 0.00404 0.89163 0.0
H1194 H 0.38206 0.00921 0.91225 0.0
H1195 H 0.37117 0.99121 0.9057 0.0
C1196 C 0.3817 0.00877 0.96406 0.0
C1197 C 0.36723 -0.00157 0.96534 0.0
C1198 C 0.39021 0.00776 0.95185 0.0
C1199 C 0.38437 0.99649 0.9406 0.0
C1200 C 0.3699 0.98624 0.94165 0.0
H1201 H 0.42985 0.96863 0.87696 0.0
H1202 H 0.41253 0.96964 0.89547 0.0
C1203 C 0.36137 0.98719 0.95395 0.0
C1204 C 0.39366 0.99515 0.92831 0.0
H1205 H 0.40141 0.9976 0.88713 0.0
C1206 C 0.40397 0.99222 0.93397 0.0
C1207 C 0.39267 0.99715 0.91127 0.0
C1208 C 0.38197 0.00067 0.90475 0.0
C1209 C 0.41334 0.99117 0.92296 0.0
C1210 C 0.41231 0.99306 0.90591 0.0
C1211 C 0.40205 0.99606 0.90023 0.0
C1212 C 0.42212 0.99233 0.8939 0.0
C1213 C 0.42446 0.98827 0.9296 0.0
C1214 C 0.43303 0.00475 0.88675 0.0
C1215 C 0.44293 0.00422 0.87623 0.0
C1216 C 0.44197 0.99123 0.87259 0.0
C1217 C 0.43077 0.97877 0.87944 0.0
C1218 C 0.42094 0.97932 0.89006 0.0
H1219 H 0.42516 0.98907 0.94328 0.0
H1220 H 0.42179 0.97744 0.92597 0.0
H1221 H 0.43504 0.99579 0.92425 0.0
H1222 H 0.43405 0.01487 0.8896 0.0
H1223 H 0.45136 0.01396 0.87097 0.0
H1224 H 0.97883 0.36745 0.96982 0.0
H1225 H 0.98386 0.38456 0.94809 0.0
H1226 H 0.02779 0.39567 0.94739 0.0
H1227 H 0.02276 0.37824 0.96917 0.0
H1228 H 0.00261 0.41322 0.95145 0.0
H1229 H 0.01762 0.39126 0.89807 0.0
H1230 H 0.00838 0.38079 0.91598 0.0
H1231 H 0.02704 0.39346 0.91697 0.0
C1232 C 0.98956 0.3734 0.96497 0.0
C1233 C 0.00042 0.37153 0.97132 0.0
C1234 C 0.9924 0.38318 0.95251 0.0
C1235 C 0.00618 0.39136 0.94607 0.0
C1236 C 0.01703 0.38931 0.95201 0.0
H1237 H 0.03475 0.46232 0.87708 0.0
H1238 H 0.0346 0.44495 0.89606 0.0
C1239 C 0.01416 0.37939 0.96449 0.0
C1240 C 0.0091 0.40265 0.93404 0.0
H1241 H 0.0184 0.41292 0.89393 0.0
C1242 C 0.00614 0.41318 0.93891 0.0
C1243 C 0.01379 0.40264 0.91771 0.0
C1244 C 0.01681 0.3914 0.91175 0.0
C1245 C 0.0074 0.42348 0.92781 0.0
C1246 C 0.01162 0.4232 0.91135 0.0
C1247 C 0.01511 0.41303 0.90657 0.0
C1248 C 0.01175 0.43303 0.89885 0.0
C1249 C 0.00405 0.43453 0.93371 0.0
C1250 C -0.00106 0.43184 0.89389 0.0
C1251 C -0.00104 0.44164 0.88301 0.0
C1252 C 0.01183 0.45287 0.87686 0.0
C1253 C 0.02465 0.45376 0.88148 0.0
C1254 C 0.0246 0.44389 0.89235 0.0
H1255 H 0.00412 0.43527 0.9474 0.0
H1256 H 0.0118 0.44507 0.9286 0.0
H1257 H 0.99332 0.4317 0.92937 0.0
H1258 H 0.9889 0.4234 0.89863 0.0
H1259 H 0.98889 0.44045 0.87944 0.0
H1260 H 0.62136 0.6151 0.96409 0.0
H1261 H 0.60336 0.60295 0.94284 0.0
H1262 H 0.59404 0.63666 0.94361 0.0
H1263 H 0.61218 0.649 0.96473 0.0
H1264 H 0.57446 0.59361 0.94548 0.0
H1265 H 0.59956 0.63217 0.89431 0.0
H1266 H 0.60926 0.63245 0.91237 0.0
H1267 H 0.59761 0.63949 0.91335 0.0
C1268 C 0.61556 0.61999 0.95966 0.0
C1269 C 0.61821 0.63302 0.96606 0.0
C1270 C 0.60527 0.61302 0.94753 0.0
C1271 C 0.5975 0.61899 0.94152 0.0
C1272 C 0.60012 0.63201 0.94785 0.0
H1273 H 0.52811 0.58752 0.87065 0.0
H1274 H 0.54607 0.60153 0.89146 0.0
C1275 C 0.61043 0.639 0.95998 0.0
C1276 C 0.58624 0.61123 0.92912 0.0
H1277 H 0.57625 0.61299 0.88979 0.0
C1278 C 0.57485 0.59783 0.93329 0.0
C1279 C 0.58677 0.61682 0.91327 0.0
C1280 C 0.599 0.63097 0.90795 0.0
C1281 C 0.56394 0.58985 0.92205 0.0
C1282 C 0.56457 0.59534 0.90613 0.0
C1283 C 0.57583 0.60883 0.90202 0.0
C1284 C 0.55384 0.58701 0.89343 0.0
C1285 C 0.55176 0.57565 0.92735 0.0
C1286 C 0.55244 0.57434 0.88752 0.0
C1287 C 0.5422 0.56632 0.87572 0.0
C1288 C 0.5332 0.57086 0.86953 0.0
C1289 C 0.53477 0.58367 0.87532 0.0
C1290 C 0.54506 0.59172 0.88712 0.0
H1291 H 0.55094 0.57463 0.94101 0.0
H1292 H 0.54152 0.5739 0.92249 0.0
H1293 H 0.55347 0.5672 0.92238 0.0
H1294 H 0.55926 0.57064 0.89208 0.0
H1295 H 0.54118 0.55644 0.87166 0.0
H1296 H 0.01945 0.64508 0.96696 0.0
H1297 H 0.0252 0.63464 0.94339 0.0
H1298 H 0.98176 0.60031 0.94208 0.0
H1299 H 0.97593 0.61052 0.96548 0.0
H1300 H 0.02055 0.60585 0.94346 0.0
H1301 H 0.99146 0.61431 0.89336 0.0
H1302 H 0.99672 0.62466 0.91215 0.0
H1303 H 0.98128 0.60722 0.912 0.0
C1304 C 0.0111 0.6354 0.96151 0.0
C1305 C -0.00276 0.62861 0.96811 0.0
C1306 C 0.01441 0.62946 0.94808 0.0
C1307 C 0.00385 0.61682 0.94091 0.0
C1308 C 0.98999 0.6102 0.94728 0.0
H1309 H 0.98766 0.55018 0.87552 0.0
H1310 H 0.98791 0.56813 0.89367 0.0
C1311 C 0.98672 0.61601 0.96074 0.0
C1312 C 0.00731 0.60981 0.92755 0.0
H1313 H -0.00242 0.59651 0.88861 0.0
C1314 C 0.0158 0.60403 0.93133 0.0
C1315 C 0.00101 0.60743 0.91182 0.0
C1316 C 0.9922 0.61383 0.90699 0.0
C1317 C 0.01745 0.59517 0.9201 0.0
C1318 C 0.01067 0.59233 0.90456 0.0
C1319 C 0.00273 0.59867 0.90053 0.0
C1320 C 0.01074 0.58192 0.89289 0.0
C1321 C 0.02572 0.58828 0.92533 0.0
C1322 C 0.02348 0.58384 0.88619 0.0
C1323 C 0.02339 0.57349 0.87597 0.0
C1324 C 0.01054 0.56109 0.87215 0.0
C1325 C -0.00224 0.55946 0.87846 0.0
C1326 C -0.00213 0.56977 0.88872 0.0
H1327 H 0.02764 0.58919 0.93885 0.0
H1328 H 0.02002 0.57692 0.92189 0.0
H1329 H 0.03619 0.59352 0.91897 0.0
H1330 H 0.0335 0.59327 0.88902 0.0
H1331 H 0.03342 0.57506 0.87139 0.0
H1332 H 0.38775 0.37949 0.96357 0.0
H1333 H 0.39956 0.39729 0.94204 0.0
H1334 H 0.3654 0.40615 0.94341 0.0
H1335 H 0.3534 0.38822 0.96487 0.0
H1336 H 0.37397 0.40326 0.91115 0.0
H1337 H 0.41983 0.44023 0.94975 0.0
H1338 H 0.41668 0.42253 0.9492 0.0
H1339 H 0.40367 0.4259 0.95842 0.0
C1340 C 0.38274 0.38522 0.95931 0.0
C1341 C 0.3697 0.38253 0.96599 0.0
C1342 C 0.38953 0.39542 0.94707 0.0
C1343 C 0.38345 0.40317 0.94137 0.0
C1344 C 0.37029 0.40032 0.94775 0.0
H1345 H 0.41182 0.47006 0.86768 0.0
H1346 H 0.39791 0.452 0.88842 0.0
C1347 C 0.36348 0.3901 0.96001 0.0
C1348 C 0.39084 0.41421 0.92869 0.0
H1349 H 0.42164 0.44515 0.92102 0.0
C1350 C 0.38434 0.41249 0.91331 0.0
C1351 C 0.40434 0.42623 0.93163 0.0
C1352 C 0.41151 0.42895 0.94819 0.0
C1353 C 0.39123 0.42228 0.90055 0.0
C1354 C 0.40484 0.43416 0.90341 0.0
C1355 C 0.41122 0.43598 0.91888 0.0
C1356 C 0.41286 0.4447 0.89042 0.0
C1357 C 0.3841 0.41965 0.88399 0.0
C1358 C 0.42593 0.44668 0.8849 0.0
C1359 C 0.43393 0.45703 0.8732 0.0
C1360 C 0.42904 0.46567 0.86687 0.0
C1361 C 0.41589 0.46362 0.87239 0.0
C1362 C 0.40787 0.45323 0.8841 0.0
H1363 H 0.37516 0.40859 0.88272 0.0
H1364 H 0.3798 0.42681 0.88256 0.0
H1365 H 0.39183 0.42189 0.87381 0.0
H1366 H 0.42999 0.44026 0.88974 0.0
H1367 H 0.44412 0.4585 0.86943 0.0
H1368 H 0.63033 0.01722 0.96759 0.0
H1369 H 0.61402 0.01123 0.9446 0.0
H1370 H 0.60666 0.96879 0.94398 0.0
H1371 H 0.62315 0.97471 0.96717 0.0
H1372 H 0.61492 -0.0014 0.91156 0.0
H1373 H 0.56641 0.96617 0.9499 0.0
H1374 H 0.58302 0.97921 0.95906 0.0
H1375 H 0.58102 0.96302 0.95119 0.0
C1376 C 0.62531 0.0066 0.96258 0.0
C1377 C 0.62798 0.99641 0.96931 0.0
C1378 C 0.61603 0.00323 0.94939 0.0
C1379 C 0.6091 0.98957 0.9427 0.0
C1380 C 0.61188 0.97938 0.94909 0.0
H1381 H 0.53785 0.96201 0.8742 0.0
H1382 H 0.55578 0.96147 0.89156 0.0
C1383 C 0.62132 0.98279 0.96228 0.0
C1384 C 0.59865 0.98614 0.92939 0.0
H1385 H 0.56309 0.97134 0.92285 0.0
C1386 C 0.60357 0.99245 0.9139 0.0
C1387 C 0.58389 0.97807 0.93251 0.0
C1388 C 0.57815 0.97122 0.94905 0.0
C1389 C 0.59409 0.99128 0.90157 0.0
C1390 C 0.57934 0.98393 0.90502 0.0
C1391 C 0.5744 0.97703 0.92024 0.0
C1392 C 0.56895 0.9842 0.89358 0.0
C1393 C 0.6 0.99809 0.88504 0.0
C1394 C 0.57034 0.99715 0.88902 0.0
C1395 C 0.56019 0.9975 0.87901 0.0
C1396 C 0.54831 0.98489 0.87349 0.0
C1397 C 0.54695 0.97192 0.87804 0.0
C1398 C 0.55715 0.97158 0.88804 0.0
H1399 H 0.61037 -0.00114 0.88244 0.0
H1400 H 0.59256 0.99208 0.87488 0.0
H1401 H 0.6018 0.00897 0.88515 0.0
H1402 H 0.57916 0.00702 0.89346 0.0
H1403 H 0.56166 0.00767 0.87562 0.0
H1404 H 0.64984 0.01957 0.06342 0.0
H1405 H 0.63569 0.02221 0.08527 0.0
H1406 H 0.59847 0.98414 0.06855 0.0
H1407 H 0.61254 0.98124 0.04706 0.0
H1408 H 0.61324 0.02583 0.08254 0.0
H1409 H 0.59693 0.97675 0.11734 0.0
H1410 H 0.61084 0.98339 0.10191 0.0
H1411 H 0.59247 0.97321 0.09592 0.0
C1412 C 0.63867 0.01169 0.06453 0.0
C1413 C 0.63232 0.00016 0.05357 0.0
C1414 C 0.6306 0.01322 0.077 0.0
C1415 C 0.61608 0.00323 0.07874 0.0
C1416 C 0.60973 0.99176 0.06775 0.0
H1417 H 0.54934 0.0131 0.12132 0.0
H1418 H 0.56728 0.01242 0.10376 0.0
C1419 C 0.61778 0.99018 0.05538 0.0
C1420 C 0.60733 0.00512 0.09146 0.0
H1421 H 0.58322 0.98792 0.12231 0.0
C1422 C 0.6068 0.01762 0.09137 0.0
C1423 C 0.59912 0.9945 0.10318 0.0
C1424 C 0.59997 0.98128 0.10473 0.0
C1425 C 0.59786 0.01955 0.10224 0.0
C1426 C 0.58894 0.00853 0.1132 0.0
C1427 C 0.5899 0.99628 0.11374 0.0
C1428 C 0.57829 0.00933 0.12392 0.0
C1429 C 0.59811 0.0334 0.1019 0.0
C1430 C 0.57825 0.0074 0.14104 0.0
C1431 C 0.56789 0.00762 0.15107 0.0
C1432 C 0.55739 0.00977 0.14416 0.0
C1433 C 0.55744 0.01167 0.12702 0.0
C1434 C 0.56773 0.01134 0.11699 0.0
H1435 H 0.6084 0.04207 0.09703 0.0
H1436 H 0.5896 0.03238 0.09363 0.0
H1437 H 0.5963 0.03643 0.11439 0.0
H1438 H 0.58625 0.00576 0.14664 0.0
H1439 H 0.56817 0.00621 0.16426 0.0
H1440 H 0.01287 0.62845 0.04599 0.0
H1441 H 0.00988 0.61167 0.06751 0.0
H1442 H 0.97188 0.61051 0.08466 0.0
H1443 H 0.97469 0.62729 0.06299 0.0
H1444 H 0.99541 0.6146 0.10985 0.0
H1445 H 0.97488 0.56836 0.0674 0.0
H1446 H 0.99012 0.58456 0.06044 0.0
H1447 H 0.97337 0.58365 0.06301 0.0
C1448 C 0.00388 0.62468 0.05435 0.0
C1449 C 0.99397 0.62915 0.05276 0.0
C1450 C 0.0022 0.61508 0.0666 0.0
C1451 C 0.99063 0.60984 0.07753 0.0
C1452 C 0.98085 0.61446 0.07625 0.0
H1453 H 0.96706 0.53846 0.14322 0.0
H1454 H 0.96591 0.55567 0.12521 0.0
C1455 C 0.98247 0.62401 0.06389 0.0
C1456 C 0.98877 0.59938 0.09011 0.0
H1457 H 0.98107 0.56535 0.09439 0.0
C1458 C 0.99214 0.60379 0.10656 0.0
C1459 C 0.98441 0.5853 0.0857 0.0
C1460 C 0.98038 0.58007 0.0682 0.0
C1461 C 0.99173 0.59452 0.11869 0.0
C1462 C 0.98792 0.58059 0.11414 0.0
C1463 C 0.98405 0.57606 0.09779 0.0
C1464 C 0.98848 0.5707 0.12595 0.0
C1465 C 0.99546 0.59969 0.13624 0.0
C1466 C 0.00156 0.57347 0.13225 0.0
C1467 C 0.00226 0.56367 0.14247 0.0
C1468 C 0.98988 0.55092 0.14657 0.0
C1469 C 0.97675 0.54826 0.14042 0.0
C1470 C 0.97608 0.55804 0.1301 0.0
H1471 H 0.99474 0.60929 0.1385 0.0
H1472 H 0.98834 0.59135 0.1451 0.0
H1473 H 0.00652 0.60238 0.13873 0.0
H1474 H 0.01128 0.5831 0.12897 0.0
H1475 H 0.0125 0.56603 0.14712 0.0
H1476 H 0.37852 0.35317 0.05001 0.0
H1477 H 0.3952 0.35873 0.07282 0.0
H1478 H 0.40245 0.40112 0.07494 0.0
H1479 H 0.38582 0.3957 0.0525 0.0
H1480 H 0.42373 0.3792 0.0743 0.0
H1481 H 0.39389 0.38879 0.12293 0.0
H1482 H 0.38578 0.37977 0.10386 0.0
H1483 H 0.39579 0.39879 0.10471 0.0
C1484 C 0.3836 0.36365 0.05542 0.0
C1485 C 0.38077 0.37396 0.04946 0.0
C1486 C 0.39311 0.36679 0.06845 0.0
C1487 C 0.39982 0.38025 0.07579 0.0
C1488 C 0.3971 0.39056 0.06976 0.0
H1489 H 0.47795 0.4344 0.11989 0.0
H1490 H 0.45829 0.41821 0.10237 0.0
C1491 C 0.38765 0.38745 0.0568 0.0
C1492 C 0.41028 0.38397 0.0892 0.0
H1493 H 0.4193 0.40008 0.12688 0.0
C1494 C 0.42265 0.38349 0.08595 0.0
C1495 C 0.40874 0.38926 0.10456 0.0
C1496 C 0.39525 0.38904 0.1093 0.0
C1497 C 0.43399 0.3892 0.09713 0.0
C1498 C 0.43299 0.39577 0.11175 0.0
C1499 C 0.42017 0.39523 0.11557 0.0
C1500 C 0.44547 0.40455 0.12235 0.0
C1501 C 0.44704 0.3884 0.09298 0.0
C1502 C 0.44478 0.40241 0.13948 0.0
C1503 C 0.45595 0.41185 0.14962 0.0
C1504 C 0.46795 0.42366 0.14278 0.0
C1505 C 0.46878 0.42551 0.12557 0.0
C1506 C 0.45763 0.41612 0.11549 0.0
H1507 H 0.44428 0.37893 0.08532 0.0
H1508 H 0.45452 0.39785 0.0857 0.0
H1509 H 0.45252 0.38805 0.10428 0.0
H1510 H 0.43543 0.39363 0.14506 0.0
H1511 H 0.45494 0.41021 0.16284 0.0
H1512 H 0.63131 0.68352 0.38735 0.0
H1513 H 0.62499 0.69575 0.40813 0.0
H1514 H 0.66838 0.73027 0.40868 0.0
H1515 H 0.67475 0.71824 0.38783 0.0
H1516 H 0.63592 0.70531 0.44013 0.0
H1517 H 0.64558 0.74974 0.39937 0.0
H1518 H 0.64397 0.73357 0.39153 0.0
H1519 H 0.66037 0.74695 0.40053 0.0
C1520 C 0.6395 0.69371 0.39192 0.0
C1521 C 0.65351 0.69997 0.38586 0.0
C1522 C 0.63587 0.70067 0.40378 0.0
C1523 C 0.64616 0.71401 0.4097 0.0
C1524 C 0.66022 0.72011 0.404 0.0
H1525 H 0.65214 0.77608 0.47908 0.0
H1526 H 0.65584 0.76149 0.45911 0.0
C1527 C 0.66385 0.71318 0.39215 0.0
C1528 C 0.64228 0.72162 0.42187 0.0
H1529 H 0.64244 0.75246 0.428 0.0
C1530 C 0.63721 0.71556 0.43746 0.0
C1531 C 0.64393 0.73495 0.41829 0.0
C1532 C 0.64863 0.74165 0.40147 0.0
C1533 C 0.63424 0.72275 0.44981 0.0
C1534 C 0.63622 0.73623 0.44633 0.0
C1535 C 0.64101 0.74214 0.43063 0.0
C1536 C 0.63386 0.74464 0.45895 0.0
C1537 C 0.62945 0.71609 0.46662 0.0
C1538 C 0.62025 0.74001 0.46543 0.0
C1539 C 0.6181 0.7483 0.47693 0.0
C1540 C 0.62954 0.76139 0.48212 0.0
C1541 C 0.64315 0.76596 0.47557 0.0
C1542 C 0.64527 0.75769 0.46407 0.0
H1543 H 0.63128 0.70711 0.46831 0.0
H1544 H 0.63509 0.724 0.47651 0.0
H1545 H 0.61791 0.71202 0.46809 0.0
H1546 H 0.61126 0.73006 0.46143 0.0
H1547 H 0.6075 0.74446 0.4818 0.0
H1548 H 0.30592 0.95058 0.38419 0.0
H1549 H 0.29782 0.93199 0.4051 0.0
H1550 H 0.26449 0.93992 0.41976 0.0
H1551 H 0.2722 0.95815 0.39864 0.0
H1552 H 0.29433 0.9311 0.43876 0.0
H1553 H 0.24241 0.89838 0.40815 0.0
H1554 H 0.25696 0.91367 0.39844 0.0
H1555 H 0.24578 0.91571 0.4133 0.0
C1556 C 0.29691 0.94841 0.39193 0.0
C1557 C 0.28956 0.95569 0.38959 0.0
C1558 C 0.29231 0.9378 0.40388 0.0
C1559 C 0.28036 0.93436 0.41372 0.0
C1560 C 0.27349 0.94213 0.41199 0.0
H1561 H 0.2492 0.88276 0.50187 0.0
H1562 H 0.26274 0.90213 0.48237 0.0
C1563 C 0.27796 0.95259 0.39995 0.0
C1564 C 0.27469 0.92231 0.42538 0.0
H1565 H 0.24455 0.89143 0.43518 0.0
C1566 C 0.28348 0.92236 0.43794 0.0
C1567 C 0.26062 0.91077 0.42408 0.0
C1568 C 0.25094 0.90952 0.41016 0.0
C1569 C 0.27844 0.91134 0.44953 0.0
C1570 C 0.26414 0.90017 0.44871 0.0
C1571 C 0.25549 0.90002 0.43591 0.0
C1572 C 0.2577 0.88851 0.46095 0.0
C1573 C 0.28854 0.91169 0.46234 0.0
C1574 C 0.25035 0.87442 0.45546 0.0
C1575 C 0.2424 0.86344 0.4665 0.0
C1576 C 0.24179 0.86632 0.48329 0.0
C1577 C 0.24969 0.88031 0.48899 0.0
C1578 C 0.25748 0.89135 0.47787 0.0
H1579 H 0.29976 0.91808 0.45811 0.0
H1580 H 0.28742 0.91663 0.4738 0.0
H1581 H 0.28625 0.90088 0.46534 0.0
H1582 H 0.25035 0.87195 0.44249 0.0
H1583 H 0.23638 0.85271 0.46186 0.0
H1584 H 0.04574 0.35732 0.38778 0.0
H1585 H 0.06301 0.36698 0.4103 0.0
H1586 H 0.07264 0.33386 0.40294 0.0
H1587 H 0.05545 0.32408 0.38055 0.0
H1588 H 0.06354 0.35126 0.44025 0.0
H1589 H 0.11173 0.37258 0.40055 0.0
H1590 H 0.0947 0.36887 0.39285 0.0
H1591 H 0.09813 0.35471 0.396 0.0
C1592 C 0.05155 0.35209 0.39094 0.0
C1593 C 0.04925 0.33994 0.38233 0.0
C1594 C 0.06138 0.35762 0.40381 0.0
C1595 C 0.06916 0.3512 0.40811 0.0
C1596 C 0.06683 0.33904 0.39964 0.0
H1597 H 0.11571 0.34696 0.48781 0.0
H1598 H 0.09769 0.34446 0.46821 0.0
C1599 C 0.05696 0.33344 0.38689 0.0
C1600 C 0.07966 0.35698 0.42156 0.0
H1601 H 0.11486 0.3705 0.42927 0.0
C1602 C 0.07479 0.35568 0.43789 0.0
C1603 C 0.09432 0.36288 0.41837 0.0
C1604 C 0.10011 0.36498 0.40099 0.0
C1605 C 0.08418 0.35943 0.45121 0.0
C1606 C 0.09873 0.36451 0.44802 0.0
C1607 C 0.10369 0.36654 0.43167 0.0
C1608 C 0.10877 0.36655 0.46134 0.0
C1609 C 0.07845 0.35765 0.46857 0.0
C1610 C 0.12095 0.37981 0.46398 0.0
C1611 C 0.13127 0.38126 0.47518 0.0
C1612 C 0.12966 0.36941 0.48367 0.0
C1613 C 0.11725 0.35624 0.48134 0.0
C1614 C 0.10689 0.35483 0.47028 0.0
H1615 H 0.06826 0.35758 0.46894 0.0
H1616 H 0.07648 0.34742 0.47355 0.0
H1617 H 0.08619 0.36622 0.47675 0.0
H1618 H 0.12262 0.38894 0.45705 0.0
H1619 H 0.1408 0.39149 0.47665 0.0
H1620 H 0.01725 0.30484 0.29239 0.0
H1621 H 0.02764 0.29783 0.27001 0.0
H1622 H 0.06819 0.33558 0.27783 0.0
H1623 H 0.05792 0.34277 0.30014 0.0
H1624 H 0.04678 0.31842 0.23985 0.0
H1625 H 0.07056 0.29653 0.28242 0.0
H1626 H 0.05483 0.29717 0.28783 0.0
H1627 H 0.07184 0.31309 0.2878 0.0
C1628 C 0.02836 0.31168 0.28929 0.0
C1629 C 0.0368 0.32433 0.29805 0.0
C1630 C 0.03425 0.30767 0.27651 0.0
C1631 C 0.04864 0.31619 0.27241 0.0
C1632 C 0.05705 0.3289 0.28092 0.0
H1633 H 0.10598 0.32086 0.19756 0.0
H1634 H 0.0902 0.32442 0.21597 0.0
C1635 C 0.05116 0.33297 0.29363 0.0
C1636 C 0.05505 0.31165 0.25951 0.0
H1637 H 0.0765 0.29779 0.25415 0.0
C1638 C 0.0532 0.31381 0.24291 0.0
C1639 C 0.06326 0.30553 0.26365 0.0
C1640 C 0.06525 0.30283 0.28138 0.0
C1641 C 0.05978 0.31037 0.23026 0.0
C1642 C 0.06842 0.30471 0.23443 0.0
C1643 C 0.06986 0.30213 0.25103 0.0
C1644 C 0.07684 0.30226 0.22193 0.0
C1645 C 0.05756 0.31289 0.21255 0.0
C1646 C 0.0745 0.28862 0.2192 0.0
C1647 C 0.0835 0.28656 0.20869 0.0
C1648 C 0.09509 0.29816 0.201 0.0
C1649 C 0.09717 0.31176 0.20343 0.0
C1650 C 0.08811 0.31379 0.21381 0.0
H1651 H 0.048 0.31388 0.21117 0.0
H1652 H 0.06693 0.32286 0.20821 0.0
H1653 H 0.05644 0.30417 0.20448 0.0
H1654 H 0.0659 0.27962 0.2255 0.0
H1655 H 0.08175 0.276 0.20714 0.0
H1656 H 0.69097 0.71009 0.30001 0.0
H1657 H 0.70188 0.72785 0.2781 0.0
H1658 H 0.66741 0.73614 0.28183 0.0
H1659 H 0.65637 0.71839 0.30333 0.0
H1660 H 0.67378 0.7331 0.24974 0.0
H1661 H 0.72253 0.77081 0.28411 0.0
H1662 H 0.71916 0.75306 0.28202 0.0
H1663 H 0.70731 0.75636 0.29414 0.0
C1664 C 0.68573 0.71571 0.29616 0.0
C1665 C 0.6728 0.71282 0.30348 0.0
C1666 C 0.69202 0.7259 0.28369 0.0
C1667 C 0.68553 0.73343 0.27846 0.0
C1668 C 0.6726 0.73047 0.28567 0.0
H1669 H 0.71067 0.81195 0.23394 0.0
H1670 H 0.70587 0.792 0.25143 0.0
C1671 C 0.66631 0.7203 0.29801 0.0
C1672 C 0.69197 0.74441 0.26545 0.0
H1673 H 0.71971 0.77763 0.25763 0.0
C1674 C 0.68391 0.74278 0.25133 0.0
C1675 C 0.70514 0.75704 0.26766 0.0
C1676 C 0.71404 0.75955 0.28283 0.0
C1677 C 0.68836 0.75365 0.23969 0.0
C1678 C 0.70142 0.7664 0.24203 0.0
C1679 C 0.70975 0.76781 0.25582 0.0
C1680 C 0.7058 0.77889 0.23134 0.0
C1681 C 0.67862 0.75167 0.22553 0.0
C1682 C 0.70778 0.77832 0.21426 0.0
C1683 C 0.71029 0.78967 0.20415 0.0
C1684 C 0.71101 0.80182 0.21099 0.0
C1685 C 0.70984 0.80263 0.22822 0.0
C1686 C 0.70724 0.79128 0.23826 0.0
H1687 H 0.66774 0.7425 0.22748 0.0
H1688 H 0.67786 0.76127 0.22375 0.0
H1689 H 0.68295 0.74975 0.214 0.0
H1690 H 0.707 0.76898 0.20869 0.0
H1691 H 0.71112 0.78868 0.19094 0.0
H1692 H 0.28103 0.94725 0.30559 0.0
H1693 H 0.26345 0.93716 0.28359 0.0
H1694 H 0.26323 0.97619 0.28004 0.0
H1695 H 0.28067 0.98631 0.3023 0.0
H1696 H 0.23644 0.95303 0.28092 0.0
H1697 H 0.2692 0.94521 0.23438 0.0
H1698 H 0.26867 0.93724 0.25383 0.0
H1699 H 0.27675 0.95613 0.25247 0.0
C1700 C 0.27731 0.95372 0.30008 0.0
C1701 C 0.28226 0.96759 0.30565 0.0
C1702 C 0.26733 0.94797 0.28742 0.0
C1703 C 0.26224 0.95601 0.27997 0.0
C1704 C 0.26712 0.96985 0.28554 0.0
H1705 H 0.20869 0.92275 0.19205 0.0
H1706 H 0.22744 0.93885 0.21098 0.0
C1707 C 0.27707 0.9756 0.29825 0.0
C1708 C 0.25133 0.94971 0.2669 0.0
H1709 H 0.24403 0.93243 0.22991 0.0
C1710 C 0.23815 0.94868 0.26966 0.0
C1711 C 0.25366 0.94428 0.25208 0.0
C1712 C 0.26789 0.94589 0.24791 0.0
C1713 C 0.227 0.94175 0.25837 0.0
C1714 C 0.22904 0.93548 0.2441 0.0
C1715 C 0.24243 0.93711 0.24095 0.0
C1716 C 0.21721 0.92646 0.23282 0.0
C1717 C 0.21313 0.94114 0.26188 0.0
C1718 C 0.20526 0.9142 0.23883 0.0
C1719 C 0.19454 0.90507 0.22811 0.0
C1720 C 0.19561 0.90793 0.21109 0.0
C1721 C 0.20749 0.92034 0.20511 0.0
C1722 C 0.21824 0.92949 0.21588 0.0
H1723 H 0.21469 0.95003 0.26996 0.0
H1724 H 0.20794 0.94146 0.2503 0.0
H1725 H 0.20585 0.93114 0.2684 0.0
H1726 H 0.20438 0.9115 0.25179 0.0
H1727 H 0.18546 0.89567 0.23313 0.0
H1728 H 0.65857 0.9367 0.29995 0.0
H1729 H 0.67071 0.93065 0.27904 0.0
H1730 H 0.70896 0.97093 0.28615 0.0
H1731 H 0.69671 0.97728 0.30704 0.0
H1732 H 0.70334 0.96322 0.25293 0.0
H1733 H 0.69981 0.91936 0.28974 0.0
H1734 H 0.68273 0.91764 0.28715 0.0
H1735 H 0.69633 0.93245 0.29849 0.0
C1736 C 0.66957 0.94432 0.29713 0.0
C1737 C 0.67673 0.95742 0.30534 0.0
C1738 C 0.67651 0.94081 0.28518 0.0
C1739 C 0.69082 0.9502 0.28132 0.0
C1740 C 0.69793 0.96349 0.28907 0.0
H1741 H 0.73026 0.91117 0.22527 0.0
H1742 H 0.72763 0.92644 0.24541 0.0
C1743 C 0.69093 0.96708 0.301 0.0
C1744 C 0.69822 0.94588 0.2693 0.0
H1745 H 0.70417 0.91893 0.26073 0.0
C1746 C 0.70375 0.95366 0.2547 0.0
C1747 C 0.69904 0.9336 0.27179 0.0
C1748 C 0.6943 0.92537 0.28773 0.0
C1749 C 0.70936 0.94901 0.24212 0.0
C1750 C 0.70911 0.93609 0.24409 0.0
C1751 C 0.70426 0.92876 0.25908 0.0
C1752 C 0.71295 0.92938 0.23059 0.0
C1753 C 0.71543 0.95796 0.22686 0.0
C1754 C 0.70592 0.92629 0.21534 0.0
C1755 C 0.70766 0.91781 0.20372 0.0
C1756 C 0.71624 0.9121 0.20732 0.0
C1757 C 0.7237 0.91561 0.22224 0.0
C1758 C 0.72215 0.92427 0.23373 0.0
H1759 H 0.7196 0.9693 0.22968 0.0
H1760 H 0.72411 0.9568 0.22133 0.0
H1761 H 0.70689 0.95465 0.21758 0.0
H1762 H 0.69844 0.92973 0.21278 0.0
H1763 H 0.70163 0.91499 0.19238 0.0
H1764 H 0.05512 0.72094 0.30533 0.0
H1765 H 0.06407 0.73802 0.28269 0.0
H1766 H 0.02308 0.7344 0.27844 0.0
H1767 H 0.01401 0.71737 0.30123 0.0
H1768 H 0.03975 0.73173 0.24682 0.0
H1769 H 0.06746 0.77973 0.2865 0.0
H1770 H 0.06903 0.7647 0.2919 0.0
H1771 H 0.05211 0.76355 0.29358 0.0
C1772 C 0.048 0.72377 0.2996 0.0
C1773 C 0.03387 0.71785 0.30508 0.0
C1774 C 0.05313 0.73352 0.2867 0.0
C1775 C 0.04421 0.73743 0.27902 0.0
C1776 C 0.03008 0.73147 0.2843 0.0
H1777 H 0.07704 0.80816 0.20978 0.0
H1778 H 0.06116 0.78989 0.22943 0.0
C1779 C 0.02495 0.72179 0.29731 0.0
C1780 C 0.04978 0.74781 0.26549 0.0
H1781 H 0.07211 0.78284 0.25779 0.0
C1782 C 0.0467 0.74293 0.24916 0.0
C1783 C 0.0587 0.76237 0.26869 0.0
C1784 C 0.06202 0.76801 0.2861 0.0
C1785 C 0.05283 0.75228 0.23584 0.0
C1786 C 0.06228 0.76678 0.23905 0.0
C1787 C 0.06486 0.77171 0.2554 0.0
C1788 C 0.07053 0.77685 0.22576 0.0
C1789 C 0.04935 0.74659 0.21847 0.0
C1790 C 0.08093 0.77544 0.21715 0.0
C1791 C 0.09002 0.78584 0.20605 0.0
C1792 C 0.08884 0.79783 0.20336 0.0
C1793 C 0.07807 0.79896 0.21152 0.0
C1794 C 0.06905 0.78859 0.22276 0.0
H1795 H 0.03931 0.73621 0.21799 0.0
H1796 H 0.04841 0.7541 0.21023 0.0
H1797 H 0.05804 0.7451 0.21363 0.0
H1798 H 0.08237 0.76656 0.21949 0.0
H1799 H 0.09819 0.7847 0.19985 0.0
H1800 H 0.28532 0.30378 0.30554 0.0
H1801 H 0.26761 0.29378 0.28338 0.0
H1802 H 0.2723 0.33467 0.27532 0.0
H1803 H 0.28979 0.34469 0.29731 0.0
H1804 H 0.2412 0.29524 0.28228 0.0
H1805 H 0.27692 0.32073 0.22862 0.0
H1806 H 0.28321 0.31837 0.24823 0.0
H1807 H 0.27969 0.33253 0.24552 0.0
C1808 C 0.28265 0.31065 0.29894 0.0
C1809 C 0.28897 0.32504 0.3032 0.0
C1810 C 0.27254 0.30492 0.28633 0.0
C1811 C 0.2688 0.31354 0.27762 0.0
C1812 C 0.27519 0.32789 0.28174 0.0
H1813 H 0.21333 0.31711 0.20933 0.0
H1814 H 0.23206 0.32003 0.22791 0.0
C1815 C 0.28514 0.33358 0.2944 0.0
C1816 C 0.25774 0.30764 0.26472 0.0
H1817 H 0.25218 0.31199 0.22436 0.0
C1818 C 0.24356 0.29863 0.26952 0.0
C1819 C 0.26092 0.31212 0.24813 0.0
C1820 C 0.27603 0.32138 0.24223 0.0
C1821 C 0.23238 0.29473 0.25837 0.0
C1822 C 0.23553 0.29977 0.24194 0.0
C1823 C 0.24977 0.30817 0.23697 0.0
C1824 C 0.22427 0.29765 0.2302 0.0
C1825 C 0.21728 0.28597 0.26454 0.0
C1826 C 0.21375 0.28408 0.2251 0.0
C1827 C 0.20288 0.28236 0.21457 0.0
C1828 C 0.20238 0.29419 0.20893 0.0
C1829 C 0.2132 0.30776 0.21371 0.0
C1830 C 0.224 0.30946 0.22422 0.0
H1831 H 0.21668 0.28527 0.27822 0.0
H1832 H 0.21077 0.29048 0.26031 0.0
H1833 H 0.21251 0.27509 0.2595 0.0
H1834 H 0.2139 0.27483 0.22933 0.0
H1835 H 0.19471 0.27177 0.21115 0.0
H1836 H 0.28096 0.32214 0.38617 0.0
H1837 H 0.26922 0.32883 0.40713 0.0
H1838 H 0.30718 0.36971 0.41196 0.0
H1839 H 0.31891 0.36321 0.39073 0.0
H1840 H 0.27596 0.33704 0.43954 0.0
H1841 H 0.27698 0.37994 0.40256 0.0
H1842 H 0.28096 0.36721 0.39374 0.0
H1843 H 0.29408 0.38178 0.40572 0.0
C1844 C 0.28683 0.33255 0.39169 0.0
C1845 C 0.30082 0.34219 0.38669 0.0
C1846 C 0.28011 0.33635 0.40369 0.0
C1847 C 0.28725 0.34985 0.4109 0.0
C1848 C 0.30137 0.35935 0.40629 0.0
H1849 H 0.25237 0.37097 0.49734 0.0
H1850 H 0.26818 0.3674 0.47894 0.0
C1851 C 0.30808 0.35559 0.39422 0.0
C1852 C 0.27978 0.35394 0.4231 0.0
H1853 H 0.26795 0.37695 0.42974 0.0
C1854 C 0.27425 0.3458 0.43746 0.0
C1855 C 0.27746 0.36529 0.42024 0.0
C1856 C 0.28256 0.374 0.40467 0.0
C1857 C 0.26631 0.34861 0.44897 0.0
C1858 C 0.26411 0.36005 0.44618 0.0
C1859 C 0.26978 0.36828 0.43191 0.0
C1860 C 0.25509 0.36303 0.45729 0.0
C1861 C 0.25993 0.33899 0.46368 0.0
C1862 C 0.24279 0.36228 0.4511 0.0
C1863 C 0.23388 0.36452 0.46149 0.0
C1864 C 0.23706 0.36755 0.47834 0.0
C1865 C 0.24962 0.3687 0.48443 0.0
C1866 C 0.25858 0.3665 0.47397 0.0
H1867 H 0.25987 0.32891 0.462 0.0
H1868 H 0.2663 0.34436 0.4748 0.0
H1869 H 0.24887 0.3365 0.46599 0.0
H1870 H 0.23996 0.35973 0.43823 0.0
H1871 H 0.22445 0.36385 0.45631 0.0
H1872 H 0.63327 0.94317 0.38557 0.0
H1873 H 0.62749 0.92547 0.40701 0.0
H1874 H 0.67213 0.94254 0.41605 0.0
H1875 H 0.678 0.96003 0.39431 0.0
H1876 H 0.6583 0.91436 0.41303 0.0
H1877 H 0.62879 0.92932 0.45657 0.0
H1878 H 0.62167 0.926 0.43609 0.0
H1879 H 0.63933 0.94057 0.43977 0.0
C1880 C 0.64187 0.94325 0.39225 0.0
C1881 C 0.65611 0.95301 0.38828 0.0
C1882 C 0.63853 0.93318 0.40457 0.0
C1883 C 0.64937 0.93283 0.41333 0.0
C1884 C 0.66359 0.94266 0.4095 0.0
H1885 H 0.63799 0.88293 0.50102 0.0
H1886 H 0.64342 0.90184 0.48139 0.0
C1887 C 0.66695 0.95266 0.39708 0.0
C1888 C 0.64589 0.9217 0.4258 0.0
H1889 H 0.62687 0.90695 0.46109 0.0
C1890 C 0.6515 0.9128 0.42359 0.0
C1891 C 0.63715 0.91977 0.43968 0.0
C1892 C 0.6315 0.92951 0.44329 0.0
C1893 C 0.64843 0.90188 0.43474 0.0
C1894 C 0.63919 0.89957 0.44822 0.0
C1895 C 0.63379 0.90862 0.45061 0.0
C1896 C 0.63526 0.88797 0.46017 0.0
C1897 C 0.65535 0.89313 0.4321 0.0
C1898 C 0.62857 0.87387 0.45482 0.0
C1899 C 0.62565 0.86305 0.46596 0.0
C1900 C 0.6292 0.86612 0.48273 0.0
C1901 C 0.63538 0.88022 0.48815 0.0
C1902 C 0.63838 0.89103 0.47697 0.0
H1903 H 0.66504 0.89871 0.42426 0.0
H1904 H 0.65831 0.89045 0.44404 0.0
H1905 H 0.64778 0.88313 0.42575 0.0
H1906 H 0.62577 0.87123 0.44197 0.0
H1907 H 0.62098 0.85235 0.46131 0.0
H1908 H 0.05033 0.69135 0.38551 0.0
H1909 H 0.06715 0.69745 0.40828 0.0
H1910 H 0.06341 0.73378 0.41982 0.0
H1911 H 0.04672 0.72787 0.39721 0.0
H1912 H 0.09373 0.7244 0.41199 0.0
H1913 H 0.05671 0.71274 0.46465 0.0
H1914 H 0.05077 0.70537 0.44428 0.0
H1915 H 0.05517 0.72319 0.44874 0.0
C1916 C 0.05302 0.70058 0.39297 0.0
C1917 C 0.04717 0.70912 0.38954 0.0
C1918 C 0.06262 0.70404 0.40595 0.0
C1919 C 0.06632 0.71593 0.41584 0.0
C1920 C 0.06047 0.72441 0.41249 0.0
H1921 H 0.12171 0.77172 0.48694 0.0
H1922 H 0.10265 0.75633 0.4682 0.0
C1923 C 0.05101 0.72106 0.39948 0.0
C1924 C 0.07689 0.72009 0.42916 0.0
H1925 H 0.0815 0.72798 0.47025 0.0
C1926 C 0.09107 0.72493 0.42481 0.0
C1927 C 0.07331 0.72071 0.44582 0.0
C1928 C 0.05814 0.7151 0.45122 0.0
C1929 C 0.10195 0.73131 0.43653 0.0
C1930 C 0.09845 0.73258 0.45307 0.0
C1931 C 0.08415 0.72701 0.45756 0.0
C1932 C 0.10952 0.74111 0.46539 0.0
C1933 C 0.11716 0.73743 0.43091 0.0
C1934 C 0.11953 0.73748 0.47035 0.0
C1935 C 0.13057 0.74638 0.48098 0.0
C1936 C 0.13172 0.759 0.48682 0.0
C1937 C 0.12129 0.76223 0.48238 0.0
C1938 C 0.11032 0.75338 0.47178 0.0
H1939 H 0.11817 0.73775 0.41724 0.0
H1940 H 0.1239 0.74832 0.4358 0.0
H1941 H 0.12136 0.73084 0.43571 0.0
H1942 H 0.11894 0.72792 0.46578 0.0
H1943 H 0.13845 0.74361 0.48418 0.0
H1944 H 0.34252 0.05604 0.72102 0.0
H1945 H 0.33573 0.06757 0.74209 0.0
H1946 H 0.29297 0.03186 0.74226 0.0
H1947 H 0.29972 0.02014 0.72132 0.0
H1948 H 0.31504 0.07503 0.73943 0.0
H1949 H 0.30289 0.03771 0.79139 0.0
H1950 H 0.31266 0.0378 0.77327 0.0
H1951 H 0.29368 0.02977 0.77252 0.0
C1952 C 0.33169 0.05058 0.72562 0.0
C1953 C 0.32166 0.03716 0.71953 0.0
C1954 C 0.32783 0.05719 0.73765 0.0
C1955 C 0.3139 0.0505 0.74387 0.0
C1956 C 0.30385 0.03709 0.73786 0.0
H1957 H 0.27461 0.08079 0.81516 0.0
H1958 H 0.27858 0.06672 0.79446 0.0
C1959 C 0.30771 0.03044 0.72584 0.0
C1960 C 0.30984 0.0579 0.75615 0.0
H1961 H 0.29811 0.05622 0.79576 0.0
C1962 C 0.31133 0.07092 0.75174 0.0
C1963 C 0.30492 0.05245 0.77217 0.0
C1964 C 0.30354 0.03872 0.77773 0.0
C1965 C 0.30812 0.07869 0.76295 0.0
C1966 C 0.30348 0.07338 0.77906 0.0
C1967 C 0.30168 0.06023 0.78339 0.0
C1968 C 0.30106 0.08168 0.79177 0.0
C1969 C 0.30965 0.09249 0.75744 0.0
C1970 C 0.31243 0.0946 0.79725 0.0
C1971 C 0.31021 0.10264 0.809 0.0
C1972 C 0.29656 0.09787 0.81556 0.0
C1973 C 0.28521 0.0848 0.81021 0.0
C1974 C 0.28746 0.07673 0.79847 0.0
H1975 H 0.30969 0.09325 0.74376 0.0
H1976 H 0.30091 0.0938 0.76251 0.0
H1977 H 0.31986 0.10136 0.76204 0.0
H1978 H 0.32304 0.09851 0.79238 0.0
H1979 H 0.31915 0.11272 0.81271 0.0
H1980 H 0.93402 0.27189 0.70373 0.0
H1981 H 0.92713 0.25506 0.72629 0.0
H1982 H 0.97115 0.26925 0.73558 0.0
H1983 H 0.97824 0.28614 0.71275 0.0
H1984 H 0.95326 0.23958 0.73644 0.0
H1985 H 0.93179 0.2662 0.77518 0.0
H1986 H 0.92441 0.26223 0.75481 0.0
H1987 H 0.94307 0.27456 0.75747 0.0
C1988 C 0.94229 0.27147 0.71051 0.0
C1989 C 0.95671 0.28049 0.7065 0.0
C1990 C 0.93831 0.26187 0.72347 0.0
C1991 C 0.94864 0.26113 0.73282 0.0
C1992 C 0.96303 0.26976 0.72858 0.0
H1993 H 0.92091 0.21444 0.8258 0.0
H1994 H 0.935 0.23282 0.80548 0.0
C1995 C 0.96704 0.27939 0.71554 0.0
C1996 C 0.94425 0.25132 0.74702 0.0
H1997 H 0.92474 0.24247 0.78263 0.0
C1998 C 0.94718 0.24029 0.74666 0.0
C1999 C 0.93657 0.25243 0.76051 0.0
C2000 C 0.9339 0.26458 0.76215 0.0
C2001 C 0.942 0.22991 0.75905 0.0
C2002 C 0.93347 0.23048 0.77192 0.0
C2003 C 0.93115 0.24193 0.77267 0.0
C2004 C 0.92618 0.21903 0.78428 0.0
C2005 C 0.94569 0.21843 0.75817 0.0
C2006 C 0.9166 0.20515 0.77914 0.0
C2007 C 0.90858 0.19464 0.79072 0.0
C2008 C 0.90984 0.19784 0.80767 0.0
C2009 C 0.91963 0.21168 0.81282 0.0
C2010 C 0.92772 0.22217 0.80123 0.0
H2011 H 0.95579 0.22202 0.7513 0.0
H2012 H 0.94669 0.21498 0.77068 0.0
H2013 H 0.93717 0.20918 0.7515 0.0
H2014 H 0.9149 0.20254 0.76613 0.0
H2015 H 0.90095 0.18414 0.78634 0.0
H2016 H 0.71712 0.69659 0.71508 0.0
H2017 H 0.73591 0.70739 0.73593 0.0
H2018 H 0.74037 0.67062 0.73459 0.0
H2019 H 0.72186 0.65983 0.71387 0.0
H2020 H 0.73727 0.69659 0.76773 0.0
H2021 H 0.78102 0.70376 0.72639 0.0
H2022 H 0.76423 0.7007 0.7187 0.0
H2023 H 0.76597 0.68614 0.72566 0.0
C2024 C 0.72213 0.69083 0.71922 0.0
C2025 C 0.71805 0.67739 0.7127 0.0
C2026 C 0.73284 0.69701 0.73112 0.0
C2027 C 0.73968 0.6899 0.73654 0.0
C2028 C 0.73543 0.6764 0.7303 0.0
H2029 H 0.79389 0.68692 0.80644 0.0
H2030 H 0.77675 0.6842 0.7855 0.0
C2031 C 0.72477 0.67023 0.71849 0.0
C2032 C 0.75114 0.69626 0.74893 0.0
H2033 H 0.78505 0.70375 0.75555 0.0
C2034 C 0.74783 0.69848 0.76504 0.0
C2035 C 0.76491 0.69878 0.74531 0.0
C2036 C 0.76931 0.69736 0.72803 0.0
C2037 C 0.75769 0.70224 0.77787 0.0
C2038 C 0.77111 0.70385 0.7744 0.0
C2039 C 0.77468 0.7024 0.75814 0.0
C2040 C 0.7811 0.70566 0.78764 0.0
C2041 C 0.75349 0.70371 0.79522 0.0
C2042 C 0.78918 0.71866 0.79574 0.0
C2043 C 0.79902 0.72026 0.80777 0.0
C2044 C 0.80082 0.70884 0.81188 0.0
C2045 C 0.79259 0.69583 0.80376 0.0
C2046 C 0.78286 0.69428 0.79173 0.0
H2047 H 0.74235 0.70137 0.79601 0.0
H2048 H 0.75472 0.69644 0.80359 0.0
H2049 H 0.76063 0.71465 0.79971 0.0
H2050 H 0.788 0.72758 0.79262 0.0
H2051 H 0.80518 0.73038 0.81388 0.0
H2052 H 0.72187 0.68026 0.62886 0.0
H2053 H 0.7335 0.67412 0.60719 0.0
H2054 H 0.69853 0.63108 0.60755 0.0
H2055 H 0.68672 0.63716 0.62914 0.0
H2056 H 0.74161 0.65371 0.60985 0.0
H2057 H 0.70387 0.64144 0.55822 0.0
H2058 H 0.70402 0.65117 0.57635 0.0
H2059 H 0.69601 0.6323 0.57719 0.0
C2060 C 0.71658 0.66952 0.62423 0.0
C2061 C 0.70337 0.65919 0.6307 0.0
C2062 C 0.72324 0.66603 0.61186 0.0
C2063 C 0.7168 0.6522 0.60566 0.0
C2064 C 0.70355 0.64188 0.61197 0.0
H2065 H 0.7456 0.61176 0.53524 0.0
H2066 H 0.73198 0.61683 0.55549 0.0
C2067 C 0.69686 0.64535 0.62435 0.0
C2068 C 0.72434 0.64846 0.59324 0.0
H2069 H 0.72245 0.63662 0.55375 0.0
C2070 C 0.73745 0.65001 0.59756 0.0
C2071 C 0.71881 0.64355 0.57729 0.0
C2072 C 0.70496 0.64211 0.57187 0.0
C2073 C 0.74519 0.64671 0.58636 0.0
C2074 C 0.73976 0.64199 0.57034 0.0
C2075 C 0.72656 0.64027 0.56606 0.0
C2076 C 0.74779 0.63901 0.55778 0.0
C2077 C 0.75901 0.64813 0.59186 0.0
C2078 C 0.76105 0.64987 0.5522 0.0
C2079 C 0.76886 0.64701 0.54074 0.0
C2080 C 0.76352 0.63323 0.53457 0.0
C2081 C 0.75008 0.62243 0.53993 0.0
C2082 C 0.74226 0.62532 0.5514 0.0
H2083 H 0.75981 0.64829 0.60553 0.0
H2084 H 0.7602 0.63933 0.58694 0.0
H2085 H 0.76798 0.65821 0.58709 0.0
H2086 H 0.76539 0.66056 0.5568 0.0
H2087 H 0.77923 0.65553 0.53699 0.0
H2088 H 0.35877 0.04678 0.63339 0.0
H2089 H 0.36919 0.06408 0.61096 0.0
H2090 H 0.33355 0.07067 0.61336 0.0
H2091 H 0.323 0.05336 0.63541 0.0
H2092 H 0.34064 0.06747 0.58144 0.0
H2093 H 0.38816 0.10704 0.61628 0.0
H2094 H 0.38555 0.08955 0.61478 0.0
H2095 H 0.37311 0.0924 0.62628 0.0
C2096 C 0.35316 0.05192 0.62912 0.0
C2097 C 0.34007 0.04871 0.63626 0.0
C2098 C 0.35916 0.06184 0.61636 0.0
C2099 C 0.35221 0.06877 0.61063 0.0
C2100 C 0.3391 0.06545 0.6176 0.0
H2101 H 0.37405 0.14573 0.56482 0.0
H2102 H 0.36983 0.1261 0.58255 0.0
C2103 C 0.33309 0.05555 0.63026 0.0
C2104 C 0.35844 0.0796 0.59744 0.0
H2105 H 0.38524 0.11327 0.58954 0.0
C2106 C 0.35049 0.07742 0.58307 0.0
C2107 C 0.37126 0.09258 0.5997 0.0
C2108 C 0.38001 0.09566 0.61512 0.0
C2109 C 0.35468 0.0881 0.57121 0.0
C2110 C 0.36734 0.10121 0.57364 0.0
C2111 C 0.3756 0.10317 0.58768 0.0
C2112 C 0.37126 0.11351 0.56281 0.0
C2113 C 0.34507 0.08552 0.5567 0.0
C2114 C 0.37384 0.11312 0.54585 0.0
C2115 C 0.37607 0.12429 0.5356 0.0
C2116 C 0.37584 0.13606 0.54218 0.0
C2117 C 0.37398 0.13669 0.5593 0.0
C2118 C 0.3717 0.12553 0.56948 0.0
H2119 H 0.33444 0.07593 0.55839 0.0
H2120 H 0.34364 0.09471 0.55472 0.0
H2121 H 0.34995 0.08402 0.54538 0.0
H2122 H 0.3738 0.10405 0.54049 0.0
H2123 H 0.37746 0.12348 0.52247 0.0
H2124 H 0.96114 0.28127 0.62031 0.0
H2125 H 0.94385 0.26976 0.59816 0.0
H2126 H 0.93239 0.30189 0.60187 0.0
H2127 H 0.9498 0.31358 0.6238 0.0
H2128 H 0.91504 0.25892 0.60125 0.0
H2129 H 0.93727 0.29974 0.55221 0.0
H2130 H 0.94754 0.30012 0.56974 0.0
H2131 H 0.93506 0.30612 0.57182 0.0
C2132 C 0.95508 0.28598 0.61625 0.0
C2133 C 0.95683 0.29832 0.62381 0.0
C2134 C 0.9452 0.2794 0.60361 0.0
C2135 C 0.93697 0.28507 0.59822 0.0
C2136 C 0.93886 0.29751 0.60556 0.0
H2137 H 0.86272 0.2526 0.535 0.0
H2138 H 0.88271 0.26721 0.55339 0.0
C2139 C 0.94875 0.30411 0.61818 0.0
C2140 C 0.92566 0.27739 0.58584 0.0
H2141 H 0.91377 0.28041 0.54808 0.0
C2142 C 0.91482 0.26359 0.58958 0.0
C2143 C 0.92535 0.28355 0.57069 0.0
C2144 C 0.93699 0.29815 0.56577 0.0
C2145 C 0.90358 0.25582 0.57865 0.0
C2146 C 0.90329 0.26195 0.56348 0.0
C2147 C 0.91406 0.27578 0.55975 0.0
C2148 C 0.89198 0.25394 0.55127 0.0
C2149 C 0.89199 0.24116 0.58351 0.0
C2150 C 0.89087 0.24193 0.54367 0.0
C2151 C 0.87956 0.23364 0.53317 0.0
C2152 C 0.86913 0.23721 0.53005 0.0
C2153 C 0.8706 0.2496 0.53713 0.0
C2154 C 0.88197 0.25792 0.54766 0.0
H2155 H 0.89204 0.23929 0.59696 0.0
H2156 H 0.88138 0.2394 0.58013 0.0
H2157 H 0.8936 0.23324 0.57681 0.0
H2158 H 0.89865 0.23885 0.54609 0.0
H2159 H 0.87891 0.22434 0.52761 0.0
H2160 H 0.32188 0.27153 0.63371 0.0
H2161 H 0.33303 0.26546 0.61159 0.0
H2162 H 0.36753 0.30869 0.60957 0.0
H2163 H 0.35652 0.31489 0.63209 0.0
H2164 H 0.33972 0.27588 0.57982 0.0
H2165 H 0.38801 0.28635 0.61423 0.0
H2166 H 0.37269 0.28514 0.62442 0.0
H2167 H 0.38464 0.30071 0.61297 0.0
C2168 C 0.33185 0.2798 0.62863 0.0
C2169 C 0.33833 0.29371 0.63475 0.0
C2170 C 0.3382 0.27629 0.61594 0.0
C2171 C 0.35116 0.28658 0.60903 0.0
C2172 C 0.35763 0.30054 0.61491 0.0
H2173 H 0.37671 0.25708 0.52066 0.0
H2174 H 0.37314 0.27314 0.53851 0.0
C2175 C 0.35129 0.30407 0.62773 0.0
C2176 C 0.35769 0.28241 0.59571 0.0
H2177 H 0.38517 0.27688 0.58752 0.0
C2178 C 0.34977 0.27627 0.58136 0.0
C2179 C 0.37076 0.28291 0.59784 0.0
C2180 C 0.37952 0.28903 0.61322 0.0
C2181 C 0.35418 0.26997 0.56944 0.0
C2182 C 0.36708 0.27012 0.57177 0.0
C2183 C 0.37534 0.27687 0.58574 0.0
C2184 C 0.37117 0.26178 0.56103 0.0
C2185 C 0.34456 0.26244 0.55502 0.0
C2186 C 0.37196 0.25051 0.56788 0.0
C2187 C 0.37421 0.24149 0.55779 0.0
C2188 C 0.37566 0.2435 0.54061 0.0
C2189 C 0.37561 0.25523 0.53385 0.0
C2190 C 0.37343 0.26434 0.544 0.0
H2191 H 0.33382 0.26102 0.55677 0.0
H2192 H 0.34926 0.26873 0.54364 0.0
H2193 H 0.3434 0.25189 0.5531 0.0
H2194 H 0.37035 0.2484 0.581 0.0
H2195 H 0.37453 0.23276 0.56345 0.0
H2196 H 0.71622 0.03592 0.61461 0.0
H2197 H 0.72654 0.05269 0.59173 0.0
H2198 H 0.69893 0.06896 0.60335 0.0
H2199 H 0.68826 0.05195 0.62584 0.0
H2200 H 0.70155 0.0668 0.57019 0.0
H2201 H 0.75457 0.09407 0.59986 0.0
H2202 H 0.74782 0.07567 0.59585 0.0
H2203 H 0.73882 0.08089 0.61041 0.0
C2204 C 0.7123 0.04301 0.61219 0.0
C2205 C 0.70156 0.04275 0.62211 0.0
C2206 C 0.71823 0.05261 0.59918 0.0
C2207 C 0.7137 0.06226 0.59608 0.0
C2208 C 0.70261 0.06164 0.60557 0.0
H2209 H 0.76338 0.14313 0.54989 0.0
H2210 H 0.74855 0.12326 0.56811 0.0
C2211 C 0.69656 0.05195 0.61845 0.0
C2212 C 0.72092 0.07347 0.58352 0.0
H2213 H 0.75303 0.10202 0.57343 0.0
C2214 C 0.71281 0.07451 0.57085 0.0
C2215 C 0.73556 0.08362 0.58459 0.0
C2216 C 0.74469 0.08363 0.59849 0.0
C2217 C 0.71896 0.08549 0.55924 0.0
C2218 C 0.73365 0.09548 0.56016 0.0
C2219 C 0.74176 0.09433 0.57273 0.0
C2220 C 0.74093 0.10754 0.54863 0.0
C2221 C 0.70959 0.08655 0.54646 0.0
C2222 C 0.74128 0.10535 0.53157 0.0
C2223 C 0.74958 0.11676 0.52111 0.0
C2224 C 0.75783 0.13042 0.52766 0.0
C2225 C 0.75711 0.13265 0.54462 0.0
C2226 C 0.74868 0.12132 0.555 0.0
H2227 H 0.69821 0.08057 0.5502 0.0
H2228 H 0.71271 0.09773 0.54426 0.0
H2229 H 0.71067 0.082 0.53465 0.0
H2230 H 0.73564 0.09477 0.52644 0.0
H2231 H 0.75014 0.11482 0.50807 0.0
H2232 H 0.94741 0.67864 0.63191 0.0
H2233 H 0.92907 0.66884 0.61089 0.0
H2234 H 0.92893 0.62956 0.61203 0.0
H2235 H 0.94756 0.63937 0.63312 0.0
H2236 H 0.92849 0.63928 0.57971 0.0
H2237 H 0.8873 0.63944 0.61981 0.0
H2238 H 0.90343 0.65629 0.61925 0.0
H2239 H 0.90349 0.64128 0.6279 0.0
C2240 C 0.94353 0.66791 0.62775 0.0
C2241 C 0.9489 0.65975 0.63434 0.0
C2242 C 0.93297 0.6623 0.61576 0.0
C2243 C 0.92743 0.64839 0.61016 0.0
C2244 C 0.93299 0.64029 0.61632 0.0
H2245 H 0.85895 0.60524 0.5371 0.0
H2246 H 0.87679 0.60939 0.55807 0.0
C2247 C 0.94363 0.64592 0.62836 0.0
C2248 C 0.91586 0.64249 0.59783 0.0
H2249 H 0.88291 0.63757 0.59067 0.0
C2250 C 0.91842 0.63866 0.58216 0.0
C2251 C 0.9027 0.6416 0.60111 0.0
C2252 C 0.89898 0.64473 0.61798 0.0
C2253 C 0.90843 0.6347 0.56943 0.0
C2254 C 0.89562 0.63456 0.57252 0.0
C2255 C 0.89282 0.63781 0.58835 0.0
C2256 C 0.88536 0.63196 0.55927 0.0
C2257 C 0.91181 0.63129 0.55255 0.0
C2258 C 0.88432 0.64329 0.55309 0.0
C2259 C 0.87421 0.64097 0.54118 0.0
C2260 C 0.86484 0.62725 0.5353 0.0
C2261 C 0.86597 0.61591 0.54145 0.0
C2262 C 0.87619 0.61826 0.55333 0.0
H2263 H 0.92263 0.63276 0.55186 0.0
H2264 H 0.90396 0.62015 0.54937 0.0
H2265 H 0.91093 0.63811 0.54314 0.0
H2266 H 0.89126 0.65392 0.55765 0.0
H2267 H 0.87348 0.64989 0.53689 0.0
H2268 H 0.94097 0.65938 0.71417 0.0
H2269 H 0.93022 0.66703 0.73527 0.0
H2270 H 0.97109 0.70388 0.74507 0.0
H2271 H 0.98186 0.69651 0.72354 0.0
H2272 H 0.93478 0.67121 0.76764 0.0
H2273 H 0.94713 0.7216 0.73798 0.0
H2274 H 0.94935 0.70834 0.72741 0.0
H2275 H 0.96253 0.72024 0.74179 0.0
C2276 C 0.94768 0.66913 0.72079 0.0
C2277 C 0.96225 0.6774 0.71711 0.0
C2278 C 0.94152 0.67349 0.73286 0.0
C2279 C 0.94979 0.68616 0.74156 0.0
C2280 C 0.96442 0.69426 0.73822 0.0
H2281 H 0.91724 0.70481 0.83154 0.0
H2282 H 0.93137 0.6999 0.8119 0.0
C2283 C 0.97058 0.68998 0.726 0.0
C2284 C 0.94302 0.6907 0.75422 0.0
H2285 H 0.93709 0.71741 0.76486 0.0
C2286 C 0.93529 0.68132 0.76704 0.0
C2287 C 0.94355 0.70382 0.7533 0.0
C2288 C 0.95096 0.71403 0.7393 0.0
C2289 C 0.92801 0.68463 0.77892 0.0
C2290 C 0.92883 0.69789 0.77825 0.0
C2291 C 0.93661 0.70731 0.76546 0.0
C2292 C 0.9211 0.7019 0.7902 0.0
C2293 C 0.9191 0.67365 0.7917 0.0
C2294 C 0.91111 0.7053 0.78452 0.0
C2295 C 0.90321 0.70833 0.7957 0.0
C2296 C 0.90511 0.70795 0.81278 0.0
C2297 C 0.91542 0.70497 0.81844 0.0
C2298 C 0.92344 0.70211 0.80724 0.0
H2299 H 0.91652 0.66289 0.7878 0.0
H2300 H 0.92511 0.67619 0.80342 0.0
H2301 H 0.90902 0.67349 0.79415 0.0
H2302 H 0.90916 0.70525 0.77143 0.0
H2303 H 0.89526 0.71049 0.79099 0.0
H2304 H 0.33976 0.28931 0.72013 0.0
H2305 H 0.33324 0.27141 0.74153 0.0
H2306 H 0.29007 0.26268 0.74086 0.0
H2307 H 0.29647 0.2805 0.71932 0.0
H2308 H 0.32106 0.27003 0.7733 0.0
H2309 H 0.28621 0.22352 0.73398 0.0
H2310 H 0.29867 0.2406 0.72541 0.0
H2311 H 0.28225 0.23751 0.73432 0.0
C2312 C 0.32887 0.28358 0.72452 0.0
C2313 C 0.31861 0.28626 0.71798 0.0
C2314 C 0.32517 0.27338 0.73675 0.0
C2315 C 0.31115 0.26562 0.7426 0.0
C2316 C 0.30091 0.2684 0.7363 0.0
H2317 H 0.27382 0.19613 0.8138 0.0
H2318 H 0.27724 0.21457 0.79428 0.0
C2319 C 0.3046 0.27863 0.72406 0.0
C2320 C 0.30735 0.25469 0.75537 0.0
H2321 H 0.28821 0.21908 0.76197 0.0
C2322 C 0.31384 0.25889 0.77086 0.0
C2323 C 0.29786 0.2402 0.75214 0.0
C2324 C 0.29089 0.2351 0.73554 0.0
C2325 C 0.3112 0.24895 0.78322 0.0
C2326 C 0.30202 0.23442 0.77984 0.0
C2327 C 0.29524 0.23024 0.76449 0.0
C2328 C 0.29991 0.22336 0.79177 0.0
C2329 C 0.31821 0.25409 0.79979 0.0
C2330 C 0.31149 0.22206 0.79657 0.0
C2331 C 0.30957 0.21154 0.80762 0.0
C2332 C 0.29601 0.20204 0.81403 0.0
C2333 C 0.28438 0.20324 0.80901 0.0
C2334 C 0.28632 0.21379 0.79794 0.0
H2335 H 0.32139 0.26531 0.80199 0.0
H2336 H 0.31103 0.24757 0.80996 0.0
H2337 H 0.32793 0.25333 0.80017 0.0
H2338 H 0.322 0.2291 0.79161 0.0
H2339 H 0.3187 0.21071 0.81093 0.0
H2340 H 0.73144 0.06655 0.70011 0.0
H2341 H 0.74872 0.07411 0.72227 0.0
H2342 H 0.73309 0.03063 0.73527 0.0
H2343 H 0.7158 0.02287 0.71279 0.0
H2344 H 0.74244 0.06888 0.75525 0.0
H2345 H 0.77624 0.04742 0.7338 0.0
H2346 H 0.76402 0.04896 0.72035 0.0
H2347 H 0.75752 0.03486 0.7351 0.0
C2348 C 0.73172 0.05854 0.70755 0.0
C2349 C 0.7222 0.04408 0.70468 0.0
C2350 C 0.74162 0.0629 0.72023 0.0
C2351 C 0.74226 0.05295 0.73036 0.0
C2352 C 0.73294 0.03848 0.72742 0.0
H2353 H 0.78725 0.0818 0.82464 0.0
H2354 H 0.76905 0.06796 0.80404 0.0
C2355 C 0.72303 0.03408 0.71462 0.0
C2356 C 0.75223 0.05794 0.74445 0.0
H2357 H 0.78177 0.05897 0.7597 0.0
C2358 C 0.75099 0.06664 0.75629 0.0
C2359 C 0.76341 0.05506 0.7457 0.0
C2360 C 0.76551 0.04616 0.73301 0.0
C2361 C 0.76081 0.07283 0.76914 0.0
C2362 C 0.77201 0.06996 0.77042 0.0
C2363 C 0.77311 0.06104 0.75876 0.0
C2364 C 0.78322 0.07698 0.78307 0.0
C2365 C 0.75945 0.08287 0.78078 0.0
C2366 C 0.79733 0.08615 0.77815 0.0
C2367 C 0.80775 0.09398 0.78988 0.0
C2368 C 0.80424 0.09277 0.80676 0.0
C2369 C 0.79021 0.08311 0.8117 0.0
C2370 C 0.77982 0.07521 0.79996 0.0
H2371 H 0.75234 0.08642 0.77582 0.0
H2372 H 0.75489 0.07744 0.79269 0.0
H2373 H 0.76999 0.09233 0.78328 0.0
H2374 H 0.80019 0.08767 0.76517 0.0
H2375 H 0.81843 0.1014 0.78568 0.0
H2376 H 0.01754 0.31361 0.04383 0.0
H2377 H 0.03417 0.30772 0.05598 0.0
H2378 H 0.06868 0.34176 0.02905 0.0
H2379 H 0.05203 0.34797 0.01701 0.0
H2380 H 0.05245 0.30001 0.0425 0.0
H2381 H 0.08192 0.35082 0.07685 0.0
H2382 H 0.06519 0.34528 0.06691 0.0
H2383 H 0.08123 0.35235 0.05486 0.0
C2384 C 0.02865 0.31983 0.04039 0.0
C2385 C 0.03349 0.33135 0.02956 0.0
C2386 C 0.03815 0.31641 0.04733 0.0
C2387 C 0.05269 0.32442 0.04362 0.0
C2388 C 0.05752 0.33561 0.03232 0.0
H2389 H 0.11126 0.29818 0.0809 0.0
H2390 H 0.09764 0.30431 0.06233 0.0
C2391 C 0.048 0.33909 0.02538 0.0
C2392 C 0.06267 0.32121 0.05218 0.0
H2393 H 0.08937 0.33438 0.08051 0.0
C2394 C 0.06063 0.30756 0.05069 0.0
C2395 C 0.0732 0.33103 0.06301 0.0
C2396 C 0.0755 0.34566 0.06567 0.0
C2397 C 0.06862 0.30336 0.06001 0.0
C2398 C 0.0791 0.31316 0.07089 0.0
C2399 C 0.08136 0.32691 0.0721 0.0
C2400 C 0.08722 0.30916 0.08195 0.0
C2401 C 0.06537 0.2883 0.05865 0.0
C2402 C 0.08601 0.31001 0.09912 0.0
C2403 C 0.09377 0.30656 0.10973 0.0
C2404 C 0.10297 0.30222 0.10339 0.0
C2405 C 0.10411 0.30129 0.08617 0.0
C2406 C 0.09635 0.30479 0.07554 0.0
H2407 H 0.05503 0.28135 0.05252 0.0
H2408 H 0.07381 0.28804 0.05121 0.0
H2409 H 0.06515 0.28392 0.07103 0.0
H2410 H 0.079 0.31332 0.10432 0.0
H2411 H 0.09253 0.30723 0.12292 0.0
H2412 H 0.63249 0.69286 0.04122 0.0
H2413 H 0.64384 0.71471 0.05735 0.0
H2414 H 0.68482 0.71912 0.04829 0.0
H2415 H 0.67359 0.69728 0.03203 0.0
H2416 H 0.66133 0.71969 0.08616 0.0
H2417 H 0.68993 0.75821 0.03561 0.0
H2418 H 0.6752 0.74061 0.03174 0.0
H2419 H 0.69232 0.7432 0.03672 0.0
C2420 C 0.64393 0.69851 0.04253 0.0
C2421 C 0.65213 0.69332 0.03531 0.0
C2422 C 0.65038 0.71098 0.05178 0.0
C2423 C 0.66516 0.71856 0.05386 0.0
C2424 C 0.67341 0.71351 0.0466 0.0
H2425 H 0.71751 0.79761 0.10809 0.0
H2426 H 0.70977 0.77621 0.09141 0.0
C2427 C 0.66696 0.70099 0.03739 0.0
C2428 C 0.67177 0.73146 0.0642 0.0
H2429 H 0.69315 0.76733 0.06268 0.0
C2430 C 0.66833 0.73011 0.08106 0.0
C2431 C 0.68099 0.74498 0.05749 0.0
C2432 C 0.68481 0.74695 0.03938 0.0
C2433 C 0.67374 0.74199 0.0914 0.0
C2434 C 0.68257 0.75558 0.0846 0.0
C2435 C 0.68634 0.75689 0.06782 0.0
C2436 C 0.68734 0.76856 0.09453 0.0
C2437 C 0.66998 0.73988 0.10953 0.0
C2438 C 0.67729 0.77143 0.10151 0.0
C2439 C 0.68165 0.78359 0.11097 0.0
C2440 C 0.69618 0.79319 0.11355 0.0
C2441 C 0.70625 0.79043 0.10627 0.0
C2442 C 0.70186 0.77822 0.0968 0.0
H2443 H 0.66685 0.72903 0.11357 0.0
H2444 H 0.67903 0.7476 0.11719 0.0
H2445 H 0.66085 0.74142 0.11186 0.0
H2446 H 0.66605 0.7643 0.09954 0.0
H2447 H 0.67364 0.78557 0.11608 0.0
H2448 H 0.29497 0.93938 0.02114 0.0
H2449 H 0.2725 0.92752 0.03645 0.0
H2450 H 0.27793 0.96799 0.05008 0.0
H2451 H 0.30019 0.97991 0.03455 0.0
H2452 H 0.269 0.92955 0.06923 0.0
H2453 H 0.23712 0.94697 0.03467 0.0
H2454 H 0.25345 0.94888 0.02662 0.0
H2455 H 0.25388 0.96143 0.04133 0.0
C2456 C 0.2913 0.94575 0.02722 0.0
C2457 C 0.29937 0.96059 0.0266 0.0
C2458 C 0.27846 0.93896 0.03596 0.0
C2459 C 0.27346 0.94687 0.0442 0.0
C2460 C 0.28142 0.96167 0.04348 0.0
H2461 H 0.21576 0.91823 0.12785 0.0
H2462 H 0.23611 0.93067 0.10912 0.0
C2463 C 0.2942 0.96847 0.03468 0.0
C2464 C 0.26045 0.93969 0.05452 0.0
H2465 H 0.22812 0.93664 0.06117 0.0
C2466 C 0.26002 0.93102 0.06739 0.0
C2467 C 0.2487 0.94153 0.05199 0.0
C2468 C 0.24822 0.95009 0.0378 0.0
C2469 C 0.24827 0.92432 0.07804 0.0
C2470 C 0.23679 0.92665 0.07597 0.0
C2471 C 0.23706 0.93507 0.06287 0.0
C2472 C 0.22428 0.92014 0.0871 0.0
C2473 C 0.24819 0.91467 0.09126 0.0
C2474 C 0.2108 0.9106 0.0808 0.0
C2475 C 0.19916 0.90358 0.09144 0.0
C2476 C 0.20082 0.90599 0.10856 0.0
C2477 C 0.21423 0.91601 0.11474 0.0
C2478 C 0.22584 0.92308 0.10408 0.0
H2479 H 0.25584 0.9111 0.08842 0.0
H2480 H 0.2513 0.92044 0.1032 0.0
H2481 H 0.23744 0.9052 0.09276 0.0
H2482 H 0.20938 0.90824 0.06771 0.0
H2483 H 0.18898 0.89583 0.08633 0.0
H2484 H 0.31444 0.01492 0.97103 0.0
H2485 H 0.30779 0.03104 0.95931 0.0
H2486 H 0.33378 0.0628 0.99518 0.0
H2487 H 0.34092 0.04676 0.00672 0.0
H2488 H 0.2943 0.04372 0.97192 0.0
H2489 H 0.34905 0.08415 0.95249 0.0
H2490 H 0.34466 0.0669 0.95973 0.0
H2491 H 0.34695 0.08038 0.97419 0.0
C2492 C 0.31875 0.02532 0.97649 0.0
C2493 C 0.32832 0.02962 0.98972 0.0
C2494 C 0.3149 0.03452 0.96978 0.0
C2495 C 0.32045 0.0482 0.97618 0.0
C2496 C 0.32963 0.0524 0.98979 0.0
H2497 H 0.30573 0.11442 0.94 0.0
H2498 H 0.31071 0.09966 0.95792 0.0
C2499 C 0.33363 0.04321 0.99643 0.0
C2500 C 0.31673 0.05799 0.96822 0.0
H2501 H 0.33082 0.08896 0.9468 0.0
C2502 C 0.3023 0.05365 0.96651 0.0
C2503 C 0.32719 0.07092 0.96111 0.0
C2504 C 0.34282 0.07585 0.96181 0.0
C2505 C 0.29804 0.06177 0.95765 0.0
C2506 C 0.30847 0.07454 0.95038 0.0
C2507 C 0.32289 0.07913 0.95247 0.0
C2508 C 0.30464 0.08301 0.9399 0.0
C2509 C 0.28243 0.05663 0.9559 0.0
C2510 C 0.29957 0.07844 0.92387 0.0
C2511 C 0.29692 0.08693 0.91348 0.0
C2512 C 0.29929 0.10013 0.91898 0.0
C2513 C 0.30405 0.10445 0.93525 0.0
C2514 C 0.3068 0.09601 0.94556 0.0
H2515 H 0.27579 0.04773 0.96438 0.0
H2516 H 0.28036 0.06538 0.95839 0.0
H2517 H 0.27912 0.05298 0.94303 0.0
H2518 H 0.29799 0.06846 0.91928 0.0
H2519 H 0.29345 0.08335 0.90099 0.0
H2520 H 0.94269 0.29722 0.99365 0.0
H2521 H 0.93164 0.27553 0.97722 0.0
H2522 H 0.97262 0.27973 0.96897 0.0
H2523 H 0.9838 0.30138 0.98552 0.0
H2524 H 0.93777 0.27341 0.94394 0.0
H2525 H 0.94754 0.23834 0.98392 0.0
H2526 H 0.9489 0.2545 0.9914 0.0
H2527 H 0.96295 0.25513 0.9791 0.0
C2528 C 0.94936 0.29348 0.98851 0.0
C2529 C 0.96414 0.30106 0.99092 0.0
C2530 C 0.94302 0.28109 0.9791 0.0
C2531 C 0.9513 0.27597 0.97202 0.0
C2532 C 0.96601 0.28338 0.97456 0.0
H2533 H 0.92148 0.2146 0.89093 0.0
H2534 H 0.93613 0.2353 0.90834 0.0
C2535 C 0.97239 0.29579 0.98397 0.0
C2536 C 0.94456 0.2633 0.96126 0.0
H2537 H 0.93754 0.22936 0.95765 0.0
C2538 C 0.93775 0.26378 0.9469 0.0
C2539 C 0.9445 0.25076 0.96524 0.0
C2540 C 0.95126 0.24953 0.98082 0.0
C2541 C 0.9308 0.25203 0.93641 0.0
C2542 C 0.93085 0.23953 0.94029 0.0
C2543 C 0.93769 0.23903 0.95464 0.0
C2544 C 0.923 0.22657 0.93016 0.0
C2545 C 0.9231 0.25294 0.92152 0.0
C2546 C 0.91111 0.21467 0.93686 0.0
C2547 C 0.9028 0.20285 0.92701 0.0
C2548 C 0.90626 0.2027 0.91027 0.0
C2549 C 0.91857 0.2144 0.90378 0.0
C2550 C 0.92687 0.22626 0.91366 0.0
H2551 H 0.92169 0.26226 0.92212 0.0
H2552 H 0.92932 0.25387 0.91022 0.0
H2553 H 0.91249 0.24325 0.92034 0.0
H2554 H 0.908 0.21469 0.94959 0.0
H2555 H 0.89352 0.19389 0.93243 0.0
H2556 H 0.69196 0.6863 0.97128 0.0
H2557 H 0.7143 0.69343 0.9568 0.0
H2558 H 0.71624 0.65899 0.97923 0.0
H2559 H 0.69384 0.65175 0.99385 0.0
H2560 H 0.74281 0.68654 0.97893 0.0
H2561 H 0.71688 0.66983 0.9176 0.0
H2562 H 0.71279 0.68127 0.92934 0.0
H2563 H 0.70707 0.66381 0.93676 0.0
C2564 C 0.69716 0.68027 0.97323 0.0
C2565 C 0.69108 0.66839 0.98363 0.0
C2566 C 0.70989 0.68434 0.9649 0.0
C2567 C 0.71678 0.67662 0.9668 0.0
C2568 C 0.71101 0.66504 0.97757 0.0
H2569 H 0.78136 0.67629 0.90512 0.0
H2570 H 0.76018 0.67048 0.92146 0.0
C2571 C 0.69823 0.66091 0.98589 0.0
C2572 C 0.7298 0.68044 0.9572 0.0
H2573 H 0.74199 0.68194 0.9179 0.0
C2574 C 0.74267 0.68555 0.96559 0.0
C2575 C 0.72948 0.67899 0.93983 0.0
C2576 C 0.71581 0.67307 0.9303 0.0
C2577 C 0.75534 0.68941 0.95699 0.0
C2578 C 0.75506 0.68822 0.93959 0.0
C2579 C 0.74215 0.68296 0.93124 0.0
C2580 C 0.76798 0.69191 0.92983 0.0
C2581 C 0.76887 0.69452 0.96657 0.0
C2582 C 0.77928 0.70593 0.92896 0.0
C2583 C 0.79141 0.70929 0.91962 0.0
C2584 C 0.79243 0.69866 0.91104 0.0
C2585 C 0.78098 0.68467 0.91179 0.0
C2586 C 0.76885 0.68134 0.92105 0.0
H2587 H 0.76677 0.69213 0.97994 0.0
H2588 H 0.77489 0.6896 0.96175 0.0
H2589 H 0.77567 0.70614 0.96514 0.0
H2590 H 0.77869 0.71426 0.93547 0.0
H2591 H 0.80009 0.72015 0.91933 0.0
H2592 H 0.93871 0.64298 0.99129 0.0
H2593 H 0.92822 0.65412 0.97526 0.0
H2594 H 0.96946 0.69159 0.96976 0.0
H2595 H 0.98005 0.68064 0.98592 0.0
H2596 H 0.94763 0.69716 0.97775 0.0
H2597 H 0.93326 0.66 0.92495 0.0
H2598 H 0.92659 0.65147 0.94451 0.0
H2599 H 0.94543 0.66149 0.94084 0.0
C2600 C 0.94555 0.65361 0.98675 0.0
C2601 C 0.96024 0.66087 0.98979 0.0
C2602 C 0.93955 0.65993 0.97752 0.0
C2603 C 0.94812 0.67357 0.9711 0.0
C2604 C 0.96269 0.68102 0.97453 0.0
H2605 H 0.91835 0.70698 0.89376 0.0
H2606 H 0.93333 0.70107 0.91018 0.0
C2607 C 0.96872 0.67472 0.98375 0.0
C2608 C 0.9419 0.68001 0.96067 0.0
H2609 H 0.92369 0.67519 0.92494 0.0
C2610 C 0.94247 0.69243 0.96615 0.0
C2611 C 0.93544 0.67395 0.9454 0.0
C2612 C 0.93524 0.66107 0.93846 0.0
C2613 C 0.93627 0.69868 0.957 0.0
C2614 C 0.92919 0.69221 0.94214 0.0
C2615 C 0.92906 0.68008 0.9364 0.0
C2616 C 0.92119 0.69738 0.93274 0.0
C2617 C 0.93738 0.71215 0.96331 0.0
C2618 C 0.90952 0.69738 0.94004 0.0
C2619 C 0.90101 0.70079 0.93073 0.0
C2620 C 0.90396 0.70417 0.9139 0.0
C2621 C 0.91591 0.70456 0.90673 0.0
C2622 C 0.92442 0.70112 0.91606 0.0
H2623 H 0.94652 0.71792 0.97179 0.0
H2624 H 0.93854 0.71926 0.95298 0.0
H2625 H 0.92756 0.70953 0.97029 0.0
H2626 H 0.90669 0.69427 0.9528 0.0
H2627 H 0.89195 0.70052 0.93663 0.0
H2628 H 0.35182 0.30794 0.99034 0.0
H2629 H 0.34344 0.28525 0.97628 0.0
H2630 H 0.30587 0.28528 0.96061 0.0
H2631 H 0.31408 0.30785 0.97467 0.0
H2632 H 0.3008 0.25886 0.9733 0.0
H2633 H 0.34321 0.28128 0.92526 0.0
H2634 H 0.34934 0.28492 0.94623 0.0
H2635 H 0.33914 0.29219 0.93825 0.0
C2636 C 0.34175 0.30308 0.98397 0.0
C2637 C 0.33366 0.30972 0.98351 0.0
C2638 C 0.33701 0.29016 0.9759 0.0
C2639 C 0.32414 0.28373 0.96725 0.0
C2640 C 0.31586 0.29013 0.96718 0.0
H2641 H 0.29682 0.2181 0.89262 0.0
H2642 H 0.30224 0.23938 0.90832 0.0
C2643 C 0.32059 0.30304 0.97519 0.0
C2644 C 0.31938 0.27045 0.95798 0.0
H2645 H 0.32797 0.25645 0.92527 0.0
C2646 C 0.30671 0.2583 0.96279 0.0
C2647 C 0.32704 0.26986 0.94414 0.0
C2648 C 0.34038 0.28276 0.93802 0.0
C2649 C 0.3016 0.24548 0.95425 0.0
C2650 C 0.30946 0.24481 0.94068 0.0
C2651 C 0.32201 0.25701 0.93573 0.0
C2652 C 0.30501 0.23152 0.93156 0.0
C2653 C 0.28777 0.2328 0.95967 0.0
C2654 C 0.3047 0.22006 0.93948 0.0
C2655 C 0.30158 0.20791 0.93057 0.0
C2656 C 0.29877 0.20703 0.91356 0.0
C2657 C 0.29879 0.21841 0.90574 0.0
C2658 C 0.30196 0.23059 0.91466 0.0
H2659 H 0.28136 0.23589 0.96744 0.0
H2660 H 0.28135 0.22672 0.94885 0.0
H2661 H 0.29004 0.22572 0.96708 0.0
H2662 H 0.30723 0.22066 0.95247 0.0
H2663 H 0.30153 0.19925 0.93696 0.0
H2664 H 0.69978 0.05537 0.98832 0.0
H2665 H 0.72158 0.06676 0.97189 0.0
H2666 H 0.72282 0.02816 0.97184 0.0
H2667 H 0.70078 0.01653 0.98798 0.0
H2668 H 0.74815 0.07143 0.97805 0.0
H2669 H 0.72528 0.0369 0.92292 0.0
H2670 H 0.7144 0.03705 0.93969 0.0
H2671 H 0.72383 0.0277 0.94173 0.0
C2672 C 0.70468 0.04929 0.98487 0.0
C2673 C 0.69845 0.035 0.98936 0.0
C2674 C 0.71716 0.05582 0.97547 0.0
C2675 C 0.72369 0.04824 0.97038 0.0
C2676 C 0.71777 0.03411 0.97528 0.0
H2677 H 0.80309 0.08101 0.91333 0.0
H2678 H 0.78265 0.06608 0.93119 0.0
C2679 C 0.70522 0.02752 0.98461 0.0
C2680 C 0.73663 0.05522 0.95988 0.0
H2681 H 0.74967 0.05425 0.92169 0.0
C2682 C 0.7485 0.06762 0.96577 0.0
C2683 C 0.73706 0.05023 0.94383 0.0
C2684 C 0.72443 0.03731 0.93656 0.0
C2685 C 0.7607 0.07527 0.95595 0.0
C2686 C 0.761 0.07041 0.93987 0.0
C2687 C 0.74934 0.05784 0.9341 0.0
C2688 C 0.77296 0.07888 0.92849 0.0
C2689 C 0.77312 0.08866 0.96266 0.0
C2690 C 0.77403 0.09078 0.92088 0.0
C2691 C 0.78554 0.09921 0.91057 0.0
C2692 C 0.79627 0.09594 0.90776 0.0
C2693 C 0.79496 0.08377 0.91513 0.0
C2694 C 0.78336 0.07527 0.9254 0.0
H2695 H 0.77209 0.08988 0.97614 0.0
H2696 H 0.7832 0.08879 0.96023 0.0
H2697 H 0.77381 0.0979 0.95627 0.0
H2698 H 0.76599 0.09361 0.92303 0.0
H2699 H 0.78604 0.10833 0.90483 0.0
H2700 H 0.68767 0.98182 0.04114 0.0
H2701 H 0.6935 0.96537 0.05383 0.0
H2702 H 0.65613 0.93026 0.0324 0.0
H2703 H 0.65009 0.94674 0.01971 0.0
H2704 H 0.6585 0.92725 0.06591 0.0
H2705 H 0.70915 0.94177 0.03423 0.0
H2706 H 0.70906 0.95684 0.04276 0.0
H2707 H 0.69691 0.94681 0.02649 0.0
C2708 C 0.68076 0.97061 0.03892 0.0
C2709 C 0.6684 0.96558 0.02941 0.0
C2710 C 0.68418 0.96122 0.0461 0.0
C2711 C 0.67537 0.9466 0.04387 0.0
C2712 C 0.66313 0.94152 0.03416 0.0
H2713 H 0.69916 0.88773 0.08443 0.0
H2714 H 0.6921 0.90033 0.06553 0.0
C2715 C 0.65971 0.95094 0.02691 0.0
C2716 C 0.67846 0.93673 0.05278 0.0
H2717 H 0.70469 0.92926 0.05988 0.0
C2718 C 0.66852 0.92754 0.06443 0.0
C2719 C 0.69145 0.93699 0.05071 0.0
C2720 C 0.70219 0.94603 0.03775 0.0
C2721 C 0.6715 0.91909 0.0746 0.0
C2722 C 0.68487 0.92004 0.07325 0.0
C2723 C 0.69453 0.92871 0.06106 0.0
C2724 C 0.68917 0.91243 0.0847 0.0
C2725 C 0.66035 0.90929 0.08676 0.0
C2726 C 0.69012 0.91525 0.10171 0.0
C2727 C 0.69423 0.90815 0.11253 0.0
C2728 C 0.69757 0.89813 0.10654 0.0
C2729 C 0.69681 0.89549 0.08944 0.0
C2730 C 0.6927 0.90261 0.07863 0.0
H2731 H 0.64955 0.90678 0.08306 0.0
H2732 H 0.66039 0.89925 0.08797 0.0
H2733 H 0.66261 0.91447 0.09905 0.0
H2734 H 0.68779 0.92305 0.10661 0.0
H2735 H 0.69495 0.91063 0.12557 0.0
H2736 H 0.04768 0.70205 0.01653 0.0
H2737 H 0.06429 0.72528 0.02846 0.0
H2738 H 0.02956 0.72529 0.05407 0.0
H2739 H 0.01296 0.70236 0.04208 0.0
H2740 H 0.04868 0.75136 0.04013 0.0
H2741 H 0.07602 0.72978 0.0771 0.0
H2742 H 0.07571 0.7271 0.05517 0.0
H2743 H 0.05941 0.71854 0.06679 0.0
C2744 C 0.0436 0.70708 0.02459 0.0
C2745 C 0.02904 0.70032 0.02849 0.0
C2746 C 0.05309 0.7203 0.03144 0.0
C2747 C 0.04816 0.72689 0.04233 0.0
C2748 C 0.03358 0.72038 0.04572 0.0
H2749 H 0.08533 0.7843 0.12243 0.0
H2750 H 0.07221 0.76466 0.10327 0.0
C2751 C 0.02412 0.70724 0.03889 0.0
C2752 C 0.05808 0.74022 0.05094 0.0
H2753 H 0.0836 0.75381 0.08068 0.0
C2754 C 0.05644 0.75199 0.04887 0.0
C2755 C 0.06806 0.7409 0.06246 0.0
C2756 C 0.06989 0.7284 0.06567 0.0
C2757 C 0.06427 0.76431 0.05832 0.0
C2758 C 0.07412 0.76491 0.06996 0.0
C2759 C 0.07604 0.7533 0.0717 0.0
C2760 C 0.08186 0.77708 0.08129 0.0
C2761 C 0.06147 0.77633 0.05631 0.0
C2762 C 0.09161 0.79058 0.07526 0.0
C2763 C 0.09913 0.80185 0.08621 0.0
C2764 C 0.0971 0.79974 0.10336 0.0
C2765 C 0.08724 0.78622 0.10931 0.0
C2766 C 0.07971 0.775 0.09838 0.0
H2767 H 0.05154 0.77305 0.04937 0.0
H2768 H 0.0607 0.78054 0.06852 0.0
H2769 H 0.07043 0.78502 0.0494 0.0
H2770 H 0.09361 0.79234 0.06213 0.0
H2771 H 0.10681 0.8121 0.08127 0.0
H2772 H 0.3108 0.3667 0.04514 0.0
H2773 H 0.28833 0.35434 0.06032 0.0
H2774 H 0.28067 0.31454 0.0405 0.0
H2775 H 0.30334 0.32676 0.02569 0.0
H2776 H 0.26156 0.33838 0.04965 0.0
H2777 H 0.27538 0.30615 0.08924 0.0
H2778 H 0.28841 0.32059 0.07685 0.0
H2779 H 0.27679 0.30366 0.06754 0.0
C2780 C 0.30435 0.35532 0.04403 0.0
C2781 C 0.3089 0.3477 0.03433 0.0
C2782 C 0.29151 0.34827 0.0527 0.0
C2783 C 0.28296 0.3335 0.05178 0.0
C2784 C 0.28728 0.3259 0.04175 0.0
H2785 H 0.19516 0.29189 0.08784 0.0
H2786 H 0.21597 0.29922 0.07017 0.0
C2787 C 0.3002 0.33292 0.03322 0.0
C2788 C 0.26944 0.32615 0.06119 0.0
H2789 H 0.2517 0.30134 0.09099 0.0
C2790 C 0.25938 0.33026 0.05867 0.0
C2791 C 0.26671 0.31566 0.07306 0.0
C2792 C 0.27744 0.31133 0.07698 0.0
C2793 C 0.24671 0.32431 0.06784 0.0
C2794 C 0.24386 0.31363 0.0795 0.0
C2795 C 0.25385 0.3094 0.0819 0.0
C2796 C 0.23106 0.30751 0.0902 0.0
C2797 C 0.23681 0.32994 0.0654 0.0
C2798 C 0.23259 0.30895 0.10739 0.0
C2799 C 0.2207 0.30445 0.11756 0.0
C2800 C 0.20705 0.2985 0.11072 0.0
C2801 C 0.2055 0.29639 0.09354 0.0
C2802 C 0.2174 0.30076 0.08338 0.0
H2803 H 0.24221 0.3404 0.0592 0.0
H2804 H 0.22782 0.32248 0.05751 0.0
H2805 H 0.23243 0.33101 0.07738 0.0
H2806 H 0.24303 0.31399 0.11292 0.0
H2807 H 0.22225 0.30593 0.13077 0.0
H2808 H 0.71214 0.68683 0.36242 0.0
H2809 H 0.72746 0.67981 0.37627 0.0
H2810 H 0.69113 0.63865 0.38601 0.0
H2811 H 0.67572 0.64557 0.37233 0.0
H2812 H 0.72216 0.66873 0.41132 0.0
H2813 H 0.72277 0.63196 0.36416 0.0
H2814 H 0.71908 0.64576 0.35902 0.0
H2815 H 0.70581 0.63006 0.36922 0.0
C2816 C 0.70743 0.67624 0.36736 0.0
C2817 C 0.69272 0.66675 0.36629 0.0
C2818 C 0.71619 0.67227 0.37528 0.0
C2819 C 0.7104 0.6587 0.38203 0.0
C2820 C 0.69579 0.64912 0.38071 0.0
H2821 H 0.745 0.61437 0.4346 0.0
H2822 H 0.72986 0.62099 0.41976 0.0
C2823 C 0.68701 0.65312 0.37294 0.0
C2824 C 0.71951 0.65475 0.39118 0.0
H2825 H 0.73362 0.6333 0.38972 0.0
C2826 C 0.72475 0.66104 0.4066 0.0
C2827 C 0.72267 0.6446 0.38502 0.0
C2828 C 0.71739 0.63772 0.3684 0.0
C2829 C 0.73296 0.6573 0.41619 0.0
C2830 C 0.73634 0.64729 0.40993 0.0
C2831 C 0.73105 0.64098 0.39449 0.0
C2832 C 0.74548 0.64333 0.41914 0.0
C2833 C 0.73761 0.66384 0.4331 0.0
C2834 C 0.75933 0.65366 0.42358 0.0
C2835 C 0.76792 0.64995 0.43227 0.0
C2836 C 0.76295 0.63578 0.43649 0.0
C2837 C 0.74911 0.62541 0.4318 0.0
C2838 C 0.74048 0.62916 0.4232 0.0
H2839 H 0.73069 0.66775 0.43796 0.0
H2840 H 0.73748 0.65616 0.44203 0.0
H2841 H 0.7486 0.673 0.43229 0.0
H2842 H 0.76353 0.66462 0.42028 0.0
H2843 H 0.77844 0.65825 0.43582 0.0
H2844 H 0.34362 0.03061 0.3687 0.0
H2845 H 0.35712 0.054 0.38162 0.0
H2846 H 0.31838 0.05466 0.38913 0.0
H2847 H 0.30485 0.0315 0.37616 0.0
H2848 H 0.34111 0.07986 0.37542 0.0
H2849 H 0.35722 0.06248 0.43148 0.0
H2850 H 0.36134 0.05775 0.41178 0.0
H2851 H 0.34315 0.05014 0.41815 0.0
C2852 C 0.33798 0.03573 0.37312 0.0
C2853 C 0.32314 0.02914 0.37145 0.0
C2854 C 0.34571 0.04906 0.38055 0.0
C2855 C 0.33871 0.05597 0.38646 0.0
C2856 C 0.32396 0.04949 0.38466 0.0
H2857 H 0.34564 0.12457 0.44072 0.0
H2858 H 0.33996 0.10429 0.42309 0.0
C2859 C 0.31625 0.03621 0.37726 0.0
C2860 C 0.34657 0.06998 0.39456 0.0
H2861 H 0.36354 0.08633 0.43024 0.0
C2862 C 0.34618 0.08133 0.38731 0.0
C2863 C 0.35326 0.07187 0.41001 0.0
C2864 C 0.35375 0.05993 0.41844 0.0
C2865 C 0.35181 0.0944 0.3954 0.0
C2866 C 0.3578 0.09606 0.41123 0.0
C2867 C 0.3589 0.08497 0.4181 0.0
C2868 C 0.36158 0.10864 0.42151 0.0
C2869 C 0.35101 0.10623 0.38712 0.0
C2870 C 0.3756 0.11766 0.42669 0.0
C2871 C 0.37889 0.12927 0.43685 0.0
C2872 C 0.36814 0.13187 0.44217 0.0
C2873 C 0.35412 0.12276 0.43696 0.0
C2874 C 0.35088 0.11126 0.42675 0.0
H2875 H 0.35006 0.10478 0.37351 0.0
H2876 H 0.3415 0.10636 0.39174 0.0
H2877 H 0.36053 0.11663 0.38994 0.0
H2878 H 0.38397 0.11571 0.42286 0.0
H2879 H 0.38976 0.13607 0.44078 0.0
H2880 H 0.97113 0.27742 0.36146 0.0
H2881 H 0.94816 0.26655 0.37552 0.0
H2882 H 0.95409 0.3078 0.38564 0.0
H2883 H 0.97695 0.31879 0.37111 0.0
H2884 H 0.94317 0.26935 0.40718 0.0
H2885 H 0.91413 0.28725 0.3677 0.0
H2886 H 0.93075 0.28881 0.36146 0.0
H2887 H 0.93057 0.3014 0.3756 0.0
C2888 C 0.96752 0.2842 0.36656 0.0
C2889 C 0.97586 0.29897 0.36517 0.0
C2890 C 0.95438 0.27796 0.37457 0.0
C2891 C 0.94933 0.28635 0.38144 0.0
C2892 C 0.95762 0.30111 0.38008 0.0
H2893 H 0.88334 0.25187 0.45719 0.0
H2894 H 0.9053 0.26703 0.44183 0.0
C2895 C 0.97072 0.30737 0.37188 0.0
C2896 C 0.93577 0.27957 0.3908 0.0
H2897 H 0.90275 0.27567 0.39271 0.0
C2898 C 0.93433 0.27073 0.404 0.0
C2899 C 0.92422 0.28129 0.38653 0.0
C2900 C 0.9249 0.29009 0.37195 0.0
C2901 C 0.92163 0.26347 0.41301 0.0
C2902 C 0.9102 0.26547 0.40903 0.0
C2903 C 0.91161 0.27432 0.39584 0.0
C2904 C 0.89648 0.25788 0.418 0.0
C2905 C 0.92047 0.25339 0.42635 0.0
C2906 C 0.88407 0.24833 0.40956 0.0
C2907 C 0.87147 0.23983 0.41828 0.0
C2908 C 0.87117 0.24073 0.43556 0.0
C2909 C 0.8834 0.25085 0.44388 0.0
C2910 C 0.89592 0.25946 0.43514 0.0
H2911 H 0.92865 0.25031 0.42486 0.0
H2912 H 0.92207 0.2586 0.43856 0.0
H2913 H 0.90983 0.24365 0.42633 0.0
H2914 H 0.88428 0.24701 0.39631 0.0
H2915 H 0.86218 0.23207 0.41161 0.0
H2916 H 0.02981 0.38596 0.3326 0.0
H2917 H 0.02709 0.40445 0.31947 0.0
H2918 H 0.98964 0.37259 0.29443 0.0
H2919 H 0.99214 0.35409 0.30767 0.0
H2920 H 0.02785 0.4091 0.2862 0.0
H2921 H 0.97652 0.39867 0.31256 0.0
H2922 H 0.98658 0.39142 0.32131 0.0
H2923 H 0.97548 0.38318 0.30364 0.0
C2924 C 0.02088 0.3829 0.3245 0.0
C2925 C 0.01118 0.36857 0.32118 0.0
C2926 C 0.01935 0.39347 0.317 0.0
C2927 C 0.00806 0.38988 0.30615 0.0
C2928 C -0.00176 0.37558 0.30305 0.0
H2929 H 0.0022 0.43666 0.22513 0.0
H2930 H 0.00541 0.42091 0.24347 0.0
C2931 C -0.00026 0.36503 0.31055 0.0
C2932 C 0.00711 0.40101 0.2971 0.0
H2933 H 0.9846 0.41298 0.28818 0.0
C2934 C 0.01847 0.41006 0.28677 0.0
C2935 C 0.99492 0.40235 0.29802 0.0
C2936 C 0.98274 0.39348 0.30961 0.0
C2937 C 0.01776 0.4201 0.27685 0.0
C2938 C 0.00525 0.42089 0.27708 0.0
C2939 C 0.99411 0.41221 0.28787 0.0
C2940 C 0.00342 0.43049 0.26601 0.0
C2941 C 0.03042 0.42976 0.26625 0.0
C2942 C 0.00088 0.44083 0.27261 0.0
C2943 C -0.00102 0.44979 0.26217 0.0
C2944 C -0.00047 0.44851 0.24493 0.0
C2945 C 0.00195 0.43804 0.23836 0.0
C2946 C 0.00381 0.42907 0.24881 0.0
H2947 H 0.04034 0.43063 0.27097 0.0
H2948 H 0.02871 0.42541 0.25353 0.0
H2949 H 0.03187 0.44051 0.26565 0.0
H2950 H 0.00049 0.44205 0.28585 0.0
H2951 H -0.00272 0.45785 0.26759 0.0
H2952 H 0.64511 0.63648 0.31925 0.0
H2953 H 0.63366 0.61381 0.30463 0.0
H2954 H 0.5961 0.61668 0.29814 0.0
H2955 H 0.60733 0.6392 0.3129 0.0
H2956 H 0.59047 0.59022 0.30935 0.0
H2957 H 0.62661 0.60802 0.25475 0.0
H2958 H 0.63511 0.61116 0.27447 0.0
H2959 H 0.62595 0.62027 0.26917 0.0
C2960 C 0.63443 0.63231 0.31468 0.0
C2961 C 0.62717 0.63971 0.3172 0.0
C2962 C 0.62793 0.61939 0.30626 0.0
C2963 C 0.61411 0.61367 0.30012 0.0
C2964 C 0.6068 0.62094 0.30274 0.0
H2965 H 0.55215 0.54459 0.24282 0.0
H2966 H 0.566 0.56525 0.26037 0.0
C2967 C 0.61326 0.63383 0.31117 0.0
C2968 C 0.6071 0.60004 0.29109 0.0
H2969 H 0.60858 0.58401 0.25548 0.0
C2970 C 0.59446 0.58884 0.29761 0.0
C2971 C 0.61239 0.59825 0.27583 0.0
C2972 C 0.6257 0.61007 0.26802 0.0
C2973 C 0.58684 0.57594 0.28915 0.0
C2974 C 0.5919 0.5743 0.27367 0.0
C2975 C 0.60476 0.58533 0.26737 0.0
C2976 C 0.58351 0.56159 0.26332 0.0
C2977 C 0.57341 0.56419 0.29682 0.0
C2978 C 0.58891 0.55284 0.25892 0.0
C2979 C 0.58104 0.54103 0.24879 0.0
C2980 C 0.56773 0.53793 0.24273 0.0
C2981 C 0.56242 0.54678 0.24715 0.0
C2982 C 0.57024 0.5585 0.25732 0.0
H2983 H 0.57314 0.56561 0.31039 0.0
H2984 H 0.56412 0.56418 0.29141 0.0
H2985 H 0.57232 0.55374 0.29433 0.0
H2986 H 0.59919 0.55514 0.26334 0.0
H2987 H 0.58546 0.53449 0.24546 0.0
H2988 H 0.35176 0.9733 0.33313 0.0
H2989 H 0.3726 0.97573 0.31853 0.0
H2990 H 0.37883 0.0135 0.29482 0.0
H2991 H 0.35813 0.01125 0.30942 0.0
H2992 H 0.37601 0.97595 0.28402 0.0
H2993 H 0.41848 0.02537 0.31265 0.0
H2994 H 0.401 0.01502 0.32172 0.0
H2995 H 0.40389 0.02668 0.30477 0.0
C2996 C 0.35767 0.98222 0.32495 0.0
C2997 C 0.35332 0.9921 0.32245 0.0
C2998 C 0.36954 0.98357 0.31661 0.0
C2999 C 0.37733 0.99488 0.30576 0.0
C3000 C 0.37312 0.00484 0.30338 0.0
H3001 H 0.4337 0.00504 0.22513 0.0
H3002 H 0.41434 0.00245 0.24307 0.0
C3003 C 0.36124 0.0035 0.31168 0.0
C3004 C 0.38939 0.99585 0.2962 0.0
H3005 H 0.42483 0.01734 0.28842 0.0
C3006 C 0.38671 0.98494 0.28506 0.0
C3007 C 0.40334 0.00755 0.2977 0.0
C3008 C 0.40693 0.01927 0.30996 0.0
C3009 C 0.39755 0.98563 0.27501 0.0
C3010 C 0.41137 0.99755 0.2761 0.0
C3011 C 0.41416 0.00827 0.28755 0.0
C3012 C 0.42304 -0.00088 0.26531 0.0
C3013 C 0.39421 0.97362 0.26328 0.0
C3014 C 0.43437 0.99827 0.27198 0.0
C3015 C 0.4454 -0.00028 0.26178 0.0
C3016 C 0.44535 0.00221 0.24478 0.0
C3017 C 0.43405 0.00322 0.23819 0.0
C3018 C 0.42297 0.00165 0.24838 0.0
H3019 H 0.38377 0.96408 0.26609 0.0
H3020 H 0.39391 0.97699 0.25048 0.0
H3021 H 0.40259 0.97076 0.26379 0.0
H3022 H 0.43461 0.9964 0.28506 0.0
H3023 H 0.45405 -0.00095 0.26723 0.0
H3024 H 0.63841 -0.0001 0.32488 0.0
H3025 H 0.62403 0.0077 0.31033 0.0
H3026 H 0.59792 0.96569 0.29053 0.0
H3027 H 0.61183 0.95773 0.30547 0.0
H3028 H 0.6187 0.00876 0.27856 0.0
H3029 H 0.56819 0.97237 0.3103 0.0
H3030 H 0.58503 0.97501 0.31715 0.0
H3031 H 0.57562 0.96287 0.30056 0.0
C3032 C 0.62957 0.99234 0.31745 0.0
C3033 C 0.62612 0.97816 0.31648 0.0
C3034 C 0.62138 0.9968 0.30915 0.0
C3035 C 0.60968 0.98719 0.29968 0.0
C3036 C 0.60659 0.97318 0.29821 0.0
H3037 H 0.5671 0.00412 0.22187 0.0
H3038 H 0.58362 0.00084 0.23882 0.0
C3039 C 0.61461 0.96866 0.30668 0.0
C3040 C 0.60075 0.99176 0.29114 0.0
H3041 H 0.56631 0.98279 0.28529 0.0
C3042 C 0.60725 0.00319 0.28016 0.0
C3043 C 0.58585 0.98472 0.29351 0.0
C3044 C 0.5783 0.97317 0.30616 0.0
C3045 C 0.5992 0.00742 0.27101 0.0
C3046 C 0.58421 -0.0003 0.27251 0.0
C3047 C 0.57778 0.9886 0.28394 0.0
C3048 C 0.57488 0.00268 0.26219 0.0
C3049 C 0.60689 0.02019 0.25999 0.0
C3050 C 0.56424 0.00446 0.26962 0.0
C3051 C 0.55458 0.00596 0.25995 0.0
C3052 C 0.5555 0.00587 0.24266 0.0
C3053 C 0.56632 0.00441 0.23519 0.0
C3054 C 0.57582 0.00264 0.24487 0.0
H3055 H 0.61781 0.02754 0.26451 0.0
H3056 H 0.60784 0.01672 0.2474 0.0
H3057 H 0.60111 0.02605 0.25921 0.0
H3058 H 0.56326 0.00447 0.28294 0.0
H3059 H 0.54635 0.00713 0.26596 0.0
H3060 H 0.03106 0.65107 0.32516 0.0
H3061 H 0.0276 0.63038 0.30961 0.0
H3062 H 0.98446 0.61907 0.29915 0.0
H3063 H 0.98794 0.63991 0.31428 0.0
H3064 H 0.00894 0.60209 0.31342 0.0
H3065 H 0.00015 0.62035 0.25337 0.0
H3066 H 0.00682 0.63174 0.27121 0.0
H3067 H 0.98812 0.61922 0.26931 0.0
C3068 C 0.02082 0.64415 0.31959 0.0
C3069 C 0.00981 0.64718 0.3208 0.0
C3070 C 0.01887 0.63234 0.31071 0.0
C3071 C 0.00587 0.62337 0.30294 0.0
C3072 C 0.99469 0.62608 0.30468 0.0
H3073 H 0.9746 0.54699 0.24395 0.0
H3074 H 0.97683 0.56626 0.26155 0.0
C3075 C 0.99667 0.63794 0.31342 0.0
C3076 C 0.00407 0.61124 0.29291 0.0
H3077 H 0.99604 0.59697 0.25416 0.0
C3078 C 0.00616 0.60099 0.30046 0.0
C3079 C 0.0005 0.60987 0.27597 0.0
C3080 C -0.0011 0.62094 0.26693 0.0
C3081 C 0.0046 0.58929 0.29155 0.0
C3082 C 0.00092 0.58789 0.27469 0.0
C3083 C -0.00122 0.59808 0.26715 0.0
C3084 C -0.00045 0.57605 0.26453 0.0
C3085 C 0.00675 0.57841 0.30021 0.0
C3086 C 0.01162 0.57532 0.26034 0.0
C3087 C 0.0104 0.5644 0.25026 0.0
C3088 C 0.99707 0.55402 0.24426 0.0
C3089 C 0.98498 0.55477 0.24854 0.0
C3090 C 0.98624 0.56577 0.25852 0.0
H3091 H 0.00693 0.57962 0.31385 0.0
H3092 H -0.0018 0.56757 0.29689 0.0
H3093 H 0.01702 0.57959 0.2962 0.0
H3094 H 0.02201 0.58327 0.26475 0.0
H3095 H 0.01987 0.56401 0.24727 0.0
H3096 H 0.36443 0.35081 0.31882 0.0
H3097 H 0.38732 0.36244 0.30425 0.0
H3098 H 0.38563 0.40071 0.30115 0.0
H3099 H 0.36295 0.38932 0.31581 0.0
H3100 H 0.39361 0.37448 0.27283 0.0
H3101 H 0.42498 0.41467 0.3203 0.0
H3102 H 0.40785 0.39933 0.32468 0.0
H3103 H 0.40905 0.41458 0.31494 0.0
C3104 C 0.36897 0.36173 0.31512 0.0
C3105 C 0.36187 0.36915 0.31857 0.0
C3106 C 0.38204 0.36835 0.3068 0.0
C3107 C 0.38828 0.38251 0.3019 0.0
C3108 C 0.38117 0.38988 0.30518 0.0
H3109 H 0.45495 0.44436 0.24247 0.0
H3110 H 0.43441 0.42961 0.26005 0.0
C3111 C 0.36814 0.3833 0.31348 0.0
C3112 C 0.40197 0.38954 0.29278 0.0
H3113 H 0.43502 0.41903 0.29302 0.0
C3114 C 0.40276 0.3841 0.27734 0.0
C3115 C 0.4139 0.40203 0.29875 0.0
C3116 C 0.41398 0.40792 0.31565 0.0
C3117 C 0.41493 0.39125 0.26731 0.0
C3118 C 0.42659 0.40407 0.27299 0.0
C3119 C 0.42601 0.40923 0.28868 0.0
C3120 C 0.43911 0.41281 0.2624 0.0
C3121 C 0.41501 0.38542 0.25043 0.0
C3122 C 0.44861 0.40828 0.25803 0.0
C3123 C 0.46037 0.4167 0.24794 0.0
C3124 C 0.46276 0.42975 0.24203 0.0
C3125 C 0.45327 0.43427 0.24659 0.0
C3126 C 0.44159 0.4259 0.25672 0.0
H3127 H 0.40438 0.37649 0.24695 0.0
H3128 H 0.41855 0.39383 0.24096 0.0
H3129 H 0.42263 0.38158 0.25028 0.0
H3130 H 0.44693 0.39826 0.26245 0.0
H3131 H 0.46748 0.41293 0.24458 0.0
H3132 H 0.35254 0.31948 0.3776 0.0
H3133 H 0.35911 0.30366 0.39053 0.0
H3134 H 0.32258 0.26772 0.36893 0.0
H3135 H 0.31577 0.28353 0.35608 0.0
H3136 H 0.32504 0.26445 0.40204 0.0
H3137 H 0.37645 0.28178 0.37062 0.0
H3138 H 0.37554 0.29624 0.37969 0.0
H3139 H 0.36374 0.28627 0.36312 0.0
C3140 C 0.34596 0.30822 0.37543 0.0
C3141 C 0.33363 0.30276 0.36578 0.0
C3142 C 0.3498 0.29919 0.38276 0.0
C3143 C 0.34148 0.28453 0.38048 0.0
C3144 C 0.32922 0.27902 0.37074 0.0
H3145 H 0.3676 0.22649 0.41762 0.0
H3146 H 0.3606 0.23969 0.3996 0.0
C3147 C 0.32535 0.28806 0.3634 0.0
C3148 C 0.34513 0.27497 0.38918 0.0
H3149 H 0.37217 0.26856 0.39562 0.0
C3150 C 0.33528 0.26523 0.4005 0.0
C3151 C 0.35841 0.27586 0.387 0.0
C3152 C 0.36909 0.2855 0.37432 0.0
C3153 C 0.33858 0.25675 0.41018 0.0
C3154 C 0.35219 0.25826 0.40871 0.0
C3155 C 0.36182 0.26757 0.3969 0.0
C3156 C 0.35673 0.2505 0.41958 0.0
C3157 C 0.32746 0.24626 0.42189 0.0
C3158 C 0.35719 0.25245 0.43675 0.0
C3159 C 0.36123 0.24497 0.44706 0.0
C3160 C 0.365 0.23547 0.44039 0.0
C3161 C 0.36487 0.23381 0.42314 0.0
C3162 C 0.3608 0.24128 0.41283 0.0
H3163 H 0.31659 0.24349 0.41814 0.0
H3164 H 0.32792 0.23641 0.42256 0.0
H3165 H 0.32938 0.25099 0.43443 0.0
H3166 H 0.35445 0.25979 0.44219 0.0
H3167 H 0.36146 0.24669 0.46026 0.0
H3168 H 0.6753 0.02826 0.36959 0.0
H3169 H 0.69035 0.05189 0.38117 0.0
H3170 H 0.7276 0.04922 0.37025 0.0
H3171 H 0.71266 0.02574 0.35827 0.0
H3172 H 0.70744 0.05879 0.40747 0.0
H3173 H 0.73963 0.08804 0.35291 0.0
H3174 H 0.72376 0.07088 0.35127 0.0
H3175 H 0.74035 0.0724 0.357 0.0
C3176 C 0.68672 0.03278 0.36945 0.0
C3177 C 0.6928 0.02514 0.36298 0.0
C3178 C 0.69529 0.04629 0.37608 0.0
C3179 C 0.71012 0.05243 0.37637 0.0
C3180 C 0.71622 0.04487 0.36978 0.0
H3181 H 0.77962 0.12246 0.42616 0.0
H3182 H 0.76378 0.10129 0.41013 0.0
C3183 C 0.70766 0.0314 0.36304 0.0
C3184 C 0.71908 0.06627 0.38461 0.0
H3185 H 0.7481 0.09921 0.3792 0.0
C3186 C 0.71622 0.06768 0.40122 0.0
C3187 C 0.73054 0.07787 0.37644 0.0
C3188 C 0.73368 0.0773 0.35838 0.0
C3189 C 0.72476 0.08022 0.41003 0.0
C3190 C 0.73639 0.09166 0.40197 0.0
C3191 C 0.73916 0.09037 0.38531 0.0
C3192 C 0.74608 0.10488 0.41087 0.0
C3193 C 0.72155 0.08102 0.42803 0.0
C3194 C 0.74141 0.11398 0.41633 0.0
C3195 C 0.75043 0.12608 0.42549 0.0
C3196 C 0.76424 0.12921 0.42938 0.0
C3197 C 0.76897 0.12021 0.42355 0.0
C3198 C 0.75998 0.10818 0.41431 0.0
H3199 H 0.71365 0.07051 0.4331 0.0
H3200 H 0.73141 0.08545 0.43544 0.0
H3201 H 0.71722 0.08816 0.42948 0.0
H3202 H 0.73073 0.11163 0.41367 0.0
H3203 H 0.74647 0.13278 0.42989 0.0
H3204 H 0.97027 0.65643 0.36237 0.0
H3205 H 0.94639 0.64246 0.37426 0.0
H3206 H 0.95069 0.68007 0.39691 0.0
H3207 H 0.97431 0.69414 0.38472 0.0
H3208 H 0.93662 0.6376 0.40572 0.0
H3209 H 0.91398 0.6652 0.37222 0.0
H3210 H 0.93108 0.66746 0.36703 0.0
H3211 H 0.92934 0.67734 0.38379 0.0
C3212 C 0.96611 0.66172 0.36988 0.0
C3213 C 0.9741 0.67641 0.37245 0.0
C3214 C 0.95248 0.65372 0.37666 0.0
C3215 C 0.94665 0.66028 0.38615 0.0
C3216 C 0.95482 0.67486 0.38921 0.0
H3217 H 0.8796 0.62815 0.45758 0.0
H3218 H 0.9015 0.63504 0.44218 0.0
C3219 C 0.96835 0.68287 0.38231 0.0
C3220 C 0.93206 0.65197 0.39295 0.0
H3221 H 0.90075 0.65157 0.3957 0.0
C3222 C 0.92869 0.64052 0.40339 0.0
C3223 C 0.92161 0.65555 0.38956 0.0
C3224 C 0.92413 0.66696 0.37739 0.0
C3225 C 0.91535 0.63299 0.41116 0.0
C3226 C 0.9053 0.63729 0.40875 0.0
C3227 C 0.90848 0.64833 0.39772 0.0
C3228 C 0.89171 0.63112 0.41808 0.0
C3229 C 0.91219 0.62051 0.42182 0.0
C3230 C 0.87892 0.62667 0.40971 0.0
C3231 C 0.86649 0.62305 0.4185 0.0
C3232 C 0.86662 0.62366 0.43581 0.0
C3233 C 0.87922 0.6274 0.44423 0.0
C3234 C 0.89171 0.63126 0.43543 0.0
H3235 H 0.91837 0.61555 0.41766 0.0
H3236 H 0.91533 0.62416 0.43472 0.0
H3237 H 0.90072 0.61236 0.4217 0.0
H3238 H 0.87866 0.62652 0.39634 0.0
H3239 H 0.85686 0.62018 0.41177 0.0
H3240 H 0.3833 0.02961 0.69433 0.0
H3241 H 0.40072 0.02598 0.70879 0.0
H3242 H 0.3675 0.98444 0.72362 0.0
H3243 H 0.34997 0.98815 0.70956 0.0
H3244 H 0.38392 -0.00072 0.74925 0.0
H3245 H 0.41834 0.00257 0.69676 0.0
H3246 H 0.41628 0.01772 0.69842 0.0
H3247 H 0.40111 0.00068 0.69385 0.0
C3248 C 0.37973 0.01963 0.7005 0.0
C3249 C 0.36526 0.00916 0.70079 0.0
C3250 C 0.38972 0.01754 0.70868 0.0
C3251 C 0.38546 0.00485 0.71709 0.0
C3252 C 0.37104 0.99429 0.71716 0.0
H3253 H 0.42855 0.97261 0.77664 0.0
H3254 H 0.41161 0.97537 0.75978 0.0
C3255 C 0.36104 0.99642 0.7091 0.0
C3256 C 0.39584 0.00289 0.72667 0.0
H3257 H 0.42722 0.00323 0.72376 0.0
C3258 C 0.39332 3e-05 0.74363 0.0
C3259 C 0.40813 0.00391 0.71935 0.0
C3260 C 0.41108 0.00625 0.70107 0.0
C3261 C 0.40286 0.99838 0.7535 0.0
C3262 C 0.41518 -0.00046 0.74621 0.0
C3263 C 0.41774 0.00239 0.72928 0.0
C3264 C 0.42554 0.99781 0.75603 0.0
C3265 C 0.39984 0.99564 0.77173 0.0
C3266 C 0.43901 0.0095 0.75926 0.0
C3267 C 0.44869 0.00796 0.76889 0.0
C3268 C 0.4451 0.99468 0.77529 0.0
C3269 C 0.43165 0.98295 0.77179 0.0
C3270 C 0.42195 0.98452 0.76226 0.0
H3271 H 0.39122 0.99749 0.77595 0.0
H3272 H 0.39655 0.98449 0.77439 0.0
H3273 H 0.40955 0.00251 0.779 0.0
H3274 H 0.44196 0.01983 0.75448 0.0
H3275 H 0.45902 0.01715 0.77122 0.0
H3276 H 0.00153 0.35831 0.69824 0.0
H3277 H 0.00882 0.37894 0.71613 0.0
H3278 H 0.96535 0.36908 0.7195 0.0
H3279 H 0.95794 0.3485 0.70176 0.0
H3280 H 0.0042 0.40245 0.71102 0.0
H3281 H 0.9784 0.37242 0.76817 0.0
H3282 H 0.98205 0.36458 0.75055 0.0
H3283 H 0.96696 0.36697 0.75051 0.0
C3284 C 0.99352 0.36052 0.7028 0.0
C3285 C 0.97914 0.35171 0.69863 0.0
C3286 C -0.00229 0.3723 0.713 0.0
C3287 C 0.98758 0.37537 0.7193 0.0
C3288 C 0.97328 0.36673 0.71498 0.0
H3289 H 0.98143 0.43679 0.7781 0.0
H3290 H 0.97814 0.41681 0.76128 0.0
C3291 C 0.96909 0.35501 0.70477 0.0
C3292 C 0.99187 0.38771 0.73019 0.0
H3293 H 0.98612 0.39697 0.7685 0.0
C3294 C 0.00042 0.40131 0.72366 0.0
C3295 C 0.9869 0.38611 0.74665 0.0
C3296 C 0.97817 0.37174 0.75448 0.0
C3297 C 0.00362 0.41339 0.73296 0.0
C3298 C -0.00168 0.41176 0.74929 0.0
C3299 C 0.99012 0.39817 0.75595 0.0
C3300 C 0.00056 0.42397 0.75943 0.0
C3301 C 0.01214 0.42774 0.72502 0.0
C3302 C 0.01425 0.43455 0.76408 0.0
C3303 C 0.01617 0.44598 0.77373 0.0
C3304 C 0.0044 0.44694 0.779 0.0
C3305 C 0.9907 0.43626 0.77441 0.0
C3306 C 0.9888 0.42488 0.76475 0.0
H3307 H 0.01273 0.42697 0.71139 0.0
H3308 H 0.00747 0.43442 0.72799 0.0
H3309 H 0.02313 0.43313 0.72988 0.0
H3310 H 0.02344 0.43389 0.76038 0.0
H3311 H 0.02683 0.45395 0.77726 0.0
H3312 H 0.64134 0.61175 0.70172 0.0
H3313 H 0.61891 0.6012 0.717 0.0
H3314 H 0.62227 0.64197 0.72058 0.0
H3315 H 0.64456 0.65258 0.70499 0.0
H3316 H 0.61347 0.60707 0.74821 0.0
H3317 H 0.58258 0.61731 0.70194 0.0
H3318 H 0.59959 0.61914 0.69723 0.0
H3319 H 0.59864 0.63276 0.70855 0.0
C3320 C 0.6373 0.61848 0.70571 0.0
C3321 C 0.6447 0.63299 0.70204 0.0
C3322 C 0.62449 0.61244 0.71445 0.0
C3323 C 0.61883 0.62077 0.7197 0.0
C3324 C 0.62629 0.6353 0.71632 0.0
H3325 H 0.54919 0.58775 0.79205 0.0
H3326 H 0.57169 0.60334 0.77788 0.0
C3327 C 0.63907 0.64135 0.70748 0.0
C3328 C 0.60522 0.61421 0.72892 0.0
H3329 H 0.57109 0.60734 0.72733 0.0
C3330 C 0.60421 0.60717 0.7437 0.0
C3331 C 0.59315 0.61429 0.7229 0.0
C3332 C 0.59345 0.62116 0.70672 0.0
C3333 C 0.59138 0.6 0.75253 0.0
C3334 C 0.57934 0.60018 0.74659 0.0
C3335 C 0.5804 0.60738 0.73192 0.0
C3336 C 0.56529 0.59196 0.7547 0.0
C3337 C 0.59071 0.59185 0.76777 0.0
C3338 C 0.55403 0.58086 0.74609 0.0
C3339 C 0.54112 0.5721 0.75404 0.0
C3340 C 0.53924 0.57425 0.77078 0.0
C3341 C 0.5503 0.58583 0.77914 0.0
C3342 C 0.56321 0.59465 0.77113 0.0
H3343 H 0.59991 0.5902 0.76852 0.0
H3344 H 0.59082 0.59784 0.7789 0.0
H3345 H 0.58078 0.58137 0.76804 0.0
H3346 H 0.55538 0.57869 0.73335 0.0
H3347 H 0.5327 0.56344 0.74717 0.0
H3348 H 0.64888 0.6784 0.64426 0.0
H3349 H 0.64077 0.69287 0.63089 0.0
H3350 H 0.67889 0.73068 0.64628 0.0
H3351 H 0.6872 0.71625 0.65961 0.0
H3352 H 0.63611 0.71429 0.64371 0.0
H3353 H 0.6784 0.73427 0.5955 0.0
H3354 H 0.67435 0.71936 0.60845 0.0
H3355 H 0.68455 0.73703 0.61645 0.0
C3356 C 0.65553 0.6898 0.64489 0.0
C3357 C 0.66875 0.6962 0.65287 0.0
C3358 C 0.65085 0.69804 0.63727 0.0
C3359 C 0.65932 0.7128 0.63742 0.0
C3360 C 0.67231 0.71927 0.64583 0.0
H3361 H 0.63551 0.77319 0.60577 0.0
H3362 H 0.64182 0.75844 0.62185 0.0
C3363 C 0.67701 0.71102 0.65349 0.0
C3364 C 0.65465 0.72134 0.62832 0.0
H3365 H 0.66297 0.74341 0.59537 0.0
C3366 C 0.64198 0.72069 0.63317 0.0
C3367 C 0.66225 0.72948 0.61443 0.0
C3368 C 0.67559 0.73004 0.60826 0.0
C3369 C 0.63675 0.72811 0.62453 0.0
C3370 C 0.64449 0.73646 0.61083 0.0
C3371 C 0.6571 0.73702 0.60592 0.0
C3372 C 0.63976 0.74478 0.60139 0.0
C3373 C 0.62287 0.72675 0.62992 0.0
C3374 C 0.6366 0.74201 0.58455 0.0
C3375 C 0.63309 0.75048 0.5753 0.0
C3376 C 0.63282 0.76194 0.58273 0.0
C3377 C 0.63574 0.7645 0.59969 0.0
C3378 C 0.63922 0.75602 0.60892 0.0
H3379 H 0.61662 0.7174 0.63796 0.0
H3380 H 0.62507 0.73632 0.63703 0.0
H3381 H 0.61633 0.7259 0.61908 0.0
H3382 H 0.63706 0.73342 0.57851 0.0
H3383 H 0.63104 0.74834 0.56223 0.0
H3384 H 0.3132 0.97084 0.65986 0.0
H3385 H 0.30196 0.94774 0.64616 0.0
H3386 H 0.26812 0.95389 0.62952 0.0
H3387 H 0.279 0.9767 0.64353 0.0
H3388 H 0.25794 0.92794 0.64179 0.0
H3389 H 0.30159 0.93982 0.59742 0.0
H3390 H 0.30682 0.9422 0.61868 0.0
H3391 H 0.3011 0.95336 0.60962 0.0
C3392 C 0.30339 0.96728 0.65324 0.0
C3393 C 0.29702 0.97563 0.65276 0.0
C3394 C 0.29702 0.95411 0.64533 0.0
C3395 C 0.28431 0.94917 0.63659 0.0
C3396 C 0.27793 0.95748 0.63616 0.0
H3397 H 0.24545 0.88621 0.56111 0.0
H3398 H 0.25923 0.90738 0.57785 0.0
C3399 C 0.28419 0.97054 0.64418 0.0
C3400 C 0.27738 0.93526 0.62807 0.0
H3401 H 0.28202 0.91644 0.59745 0.0
C3402 C 0.26321 0.9254 0.63213 0.0
C3403 C 0.28426 0.93202 0.61538 0.0
C3404 C 0.29923 0.94244 0.60987 0.0
C3405 C 0.25562 0.91251 0.62365 0.0
C3406 C 0.26254 0.9092 0.61107 0.0
C3407 C 0.27679 0.91895 0.6072 0.0
C3408 C 0.25486 0.89614 0.60098 0.0
C3409 C 0.24011 0.90287 0.62779 0.0
C3410 C 0.24808 0.88273 0.60836 0.0
C3411 C 0.23993 0.87059 0.59885 0.0
C3412 C 0.23857 0.87161 0.58173 0.0
C3413 C 0.24596 0.88503 0.5743 0.0
C3414 C 0.25397 0.89715 0.58383 0.0
H3415 H 0.23562 0.90854 0.63461 0.0
H3416 H 0.23376 0.89818 0.61644 0.0
H3417 H 0.23892 0.89415 0.63574 0.0
H3418 H 0.24889 0.88166 0.62152 0.0
H3419 H 0.23436 0.86046 0.60502 0.0
H3420 H 0.02989 0.31662 0.66362 0.0
H3421 H 0.05372 0.32487 0.65246 0.0
H3422 H 0.05339 0.35989 0.62921 0.0
H3423 H 0.02977 0.35191 0.64058 0.0
H3424 H 0.06049 0.3268 0.62024 0.0
H3425 H 0.09262 0.37945 0.64918 0.0
H3426 H 0.07515 0.36655 0.65664 0.0
H3427 H 0.07715 0.3775 0.6392 0.0
C3428 C 0.035 0.32621 0.65637 0.0
C3429 C 0.02794 0.33361 0.65298 0.0
C3430 C 0.04861 0.33091 0.65 0.0
C3431 C 0.05543 0.34311 0.64019 0.0
C3432 C 0.04851 0.35066 0.63708 0.0
H3433 H 0.11539 0.36205 0.5617 0.0
H3434 H 0.09502 0.35611 0.57961 0.0
C3435 C 0.03494 0.34601 0.64349 0.0
C3436 C 0.06915 0.34719 0.6319 0.0
H3437 H 0.10265 0.375 0.62492 0.0
C3438 C 0.06976 0.33728 0.62144 0.0
C3439 C 0.0813 0.36082 0.6336 0.0
C3440 C 0.0816 0.37164 0.6454 0.0
C3441 C 0.08199 0.34079 0.61214 0.0
C3442 C 0.09383 0.35468 0.61307 0.0
C3443 C 0.09347 0.36443 0.62405 0.0
C3444 C 0.10648 0.35928 0.60238 0.0
C3445 C 0.0821 0.3296 0.60134 0.0
C3446 C 0.11981 0.36359 0.60927 0.0
C3447 C 0.13151 0.36704 0.59904 0.0
C3448 C 0.13005 0.36624 0.58177 0.0
C3449 C 0.11679 0.36248 0.57496 0.0
C3450 C 0.10515 0.35908 0.58516 0.0
H3451 H 0.07405 0.31879 0.60547 0.0
H3452 H 0.07954 0.3309 0.58849 0.0
H3453 H 0.09271 0.33056 0.60131 0.0
H3454 H 0.12106 0.36389 0.62254 0.0
H3455 H 0.14157 0.36983 0.60465 0.0
H3456 H 0.31049 0.34255 0.65718 0.0
H3457 H 0.29976 0.35461 0.64353 0.0
H3458 H 0.26473 0.31439 0.62787 0.0
H3459 H 0.27517 0.30223 0.64181 0.0
H3460 H 0.29365 0.35507 0.61153 0.0
H3461 H 0.24416 0.33248 0.64852 0.0
H3462 H 0.25914 0.33089 0.65455 0.0
H3463 H 0.24669 0.31896 0.63954 0.0
C3464 C 0.30046 0.33626 0.65091 0.0
C3465 C 0.29363 0.32141 0.65068 0.0
C3466 C 0.29435 0.34318 0.64312 0.0
C3467 C 0.28132 0.33539 0.63496 0.0
C3468 C 0.2746 0.32059 0.63448 0.0
H3469 H 0.24543 0.35867 0.55685 0.0
H3470 H 0.25941 0.35236 0.57427 0.0
C3471 C 0.28063 0.31366 0.64237 0.0
C3472 C 0.27493 0.34271 0.62644 0.0
H3473 H 0.24408 0.34308 0.62275 0.0
C3474 C 0.28287 0.35259 0.61411 0.0
C3475 C 0.26099 0.33971 0.63007 0.0
C3476 C 0.25231 0.33005 0.64402 0.0
C3477 C 0.27699 0.35906 0.60478 0.0
C3478 C 0.26269 0.35526 0.6076 0.0
C3479 C 0.25499 0.34587 0.62045 0.0
C3480 C 0.2552 0.36024 0.59689 0.0
C3481 C 0.28618 0.36989 0.59202 0.0
C3482 C 0.24798 0.36658 0.60381 0.0
C3483 C 0.23967 0.3699 0.59392 0.0
C3484 C 0.23841 0.36691 0.5769 0.0
C3485 C 0.24601 0.36095 0.56994 0.0
C3486 C 0.25421 0.35753 0.57985 0.0
H3487 H 0.2976 0.37512 0.59531 0.0
H3488 H 0.28482 0.36454 0.57994 0.0
H3489 H 0.28323 0.37812 0.59061 0.0
H3490 H 0.24851 0.36867 0.61696 0.0
H3491 H 0.23382 0.37431 0.59974 0.0
H3492 H 0.6866 0.9718 0.65652 0.0
H3493 H 0.6777 0.94858 0.64365 0.0
H3494 H 0.63875 0.94717 0.63111 0.0
H3495 H 0.64747 0.97026 0.64407 0.0
H3496 H 0.63489 0.92122 0.64319 0.0
H3497 H 0.67521 0.94397 0.5929 0.0
H3498 H 0.68231 0.94781 0.61343 0.0
H3499 H 0.6715 0.95477 0.60656 0.0
C3500 C 0.67608 0.96647 0.65119 0.0
C3501 C 0.66779 0.97291 0.65117 0.0
C3502 C 0.67105 0.95325 0.64378 0.0
C3503 C 0.65768 0.94631 0.6362 0.0
C3504 C 0.64913 0.95241 0.63683 0.0
H3505 H 0.62932 0.88072 0.56152 0.0
H3506 H 0.63483 0.90187 0.57752 0.0
C3507 C 0.65414 0.96561 0.64422 0.0
C3508 C 0.65282 0.93297 0.627 0.0
H3509 H 0.66052 0.91909 0.59342 0.0
C3510 C 0.64048 0.92072 0.63231 0.0
C3511 C 0.66001 0.93246 0.61265 0.0
C3512 C 0.67292 0.94546 0.60591 0.0
C3513 C 0.63525 0.90787 0.62378 0.0
C3514 C 0.64267 0.90728 0.6097 0.0
C3515 C 0.6549 0.91958 0.60427 0.0
C3516 C 0.6381 0.894 0.60047 0.0
C3517 C 0.62172 0.89509 0.62973 0.0
C3518 C 0.63803 0.88256 0.60812 0.0
C3519 C 0.63482 0.87045 0.59905 0.0
C3520 C 0.63171 0.86961 0.58212 0.0
C3521 C 0.6315 0.88098 0.57457 0.0
C3522 C 0.63473 0.8931 0.58366 0.0
H3523 H 0.61542 0.89811 0.63781 0.0
H3524 H 0.61502 0.88881 0.61917 0.0
H3525 H 0.62441 0.88825 0.63698 0.0
H3526 H 0.64082 0.88313 0.62102 0.0
H3527 H 0.63494 0.86181 0.60525 0.0
H3528 H 0.02263 0.7189 0.64066 0.0
H3529 H 0.04578 0.72976 0.62708 0.0
H3530 H 0.05095 0.69521 0.64273 0.0
H3531 H 0.0275 0.684 0.656 0.0
H3532 H 0.07138 0.73915 0.64031 0.0
H3533 H 0.06047 0.69725 0.59418 0.0
H3534 H 0.04656 0.69746 0.60608 0.0
H3535 H 0.05738 0.69134 0.61522 0.0
C3536 C 0.02863 0.71354 0.64115 0.0
C3537 C 0.02318 0.70055 0.64938 0.0
C3538 C 0.04188 0.71978 0.63339 0.0
C3539 C 0.05005 0.71324 0.63372 0.0
C3540 C 0.04471 0.7003 0.64199 0.0
H3541 H 0.13999 0.76421 0.60458 0.0
H3542 H 0.11846 0.7489 0.62048 0.0
C3543 C 0.03133 0.69395 0.64965 0.0
C3544 C 0.06429 0.72031 0.62572 0.0
H3545 H 0.08393 0.71673 0.59511 0.0
C3546 C 0.07416 0.73423 0.63047 0.0
C3547 C 0.06785 0.7139 0.61282 0.0
C3548 C 0.05749 0.69922 0.60664 0.0
C3549 C 0.08732 0.74205 0.62243 0.0
C3550 C 0.09093 0.73562 0.60958 0.0
C3551 C 0.08119 0.72159 0.60506 0.0
C3552 C 0.10422 0.74366 0.59979 0.0
C3553 C 0.09693 0.75732 0.62729 0.0
C3554 C 0.10346 0.7452 0.58272 0.0
C3555 C 0.11576 0.75368 0.57353 0.0
C3556 C 0.12912 0.76088 0.58122 0.0
C3557 C 0.12991 0.75882 0.59822 0.0
C3558 C 0.11759 0.75021 0.60739 0.0
H3559 H 0.09114 0.76153 0.63438 0.0
H3560 H 0.10557 0.7582 0.63522 0.0
H3561 H 0.10183 0.76405 0.61624 0.0
H3562 H 0.09328 0.74014 0.57656 0.0
H3563 H 0.11477 0.75471 0.5604 0.0
H3564 H 0.01095 0.64602 0.69889 0.0
H3565 H 0.01479 0.62863 0.71292 0.0
H3566 H 0.96969 0.59884 0.71225 0.0
H3567 H 0.96588 0.61597 0.6975 0.0
H3568 H 0.00648 0.61799 0.74199 0.0
H3569 H 0.98369 0.57351 0.69762 0.0
H3570 H 0.98694 0.59082 0.6923 0.0
H3571 H 0.97102 0.57857 0.70333 0.0
C3572 C 0.00188 0.63567 0.70149 0.0
C3573 C 0.98812 0.63232 0.69703 0.0
C3574 C 0.00408 0.62574 0.70954 0.0
C3575 C 0.99256 0.61231 0.71347 0.0
C3576 C 0.97881 0.60894 0.70894 0.0
H3577 H 0.99416 0.56133 0.79377 0.0
H3578 H 0.99099 0.57734 0.7761 0.0
C3579 C 0.97663 0.61878 0.7006 0.0
C3580 C 0.99487 0.60228 0.72333 0.0
H3581 H 0.98733 0.5681 0.72512 0.0
C3582 C 0.0024 0.60712 0.73819 0.0
C3583 C 0.98975 0.58813 0.71832 0.0
C3584 C 0.98254 0.5825 0.70193 0.0
C3585 C 0.00474 0.59818 0.7483 0.0
C3586 C -0.0011 0.58382 0.74376 0.0
C3587 C 0.99163 0.57905 0.72874 0.0
C3588 C 0.00031 0.57362 0.75437 0.0
C3589 C 0.01369 0.60436 0.76355 0.0
C3590 C 0.006 0.56565 0.74789 0.0
C3591 C 0.00741 0.5561 0.75786 0.0
C3592 C 0.00325 0.55436 0.77458 0.0
C3593 C -0.00262 0.56224 0.78095 0.0
C3594 C 0.99578 0.57163 0.77091 0.0
H3595 H 0.021 0.61594 0.76233 0.0
H3596 H 0.00664 0.6026 0.77432 0.0
H3597 H 0.0201 0.59936 0.7661 0.0
H3598 H 0.00944 0.56689 0.73512 0.0
H3599 H 0.01167 0.55001 0.75237 0.0
H3600 H 0.34175 0.36185 0.70895 0.0
H3601 H 0.35754 0.38474 0.72178 0.0
H3602 H 0.39396 0.38307 0.70408 0.0
H3603 H 0.37821 0.36005 0.69124 0.0
H3604 H 0.39476 0.38967 0.73806 0.0
H3605 H 0.38232 0.42342 0.69934 0.0
H3606 H 0.367 0.40818 0.70785 0.0
H3607 H 0.37806 0.40587 0.69315 0.0
C3608 C 0.35312 0.36639 0.70766 0.0
C3609 C 0.35874 0.35915 0.69906 0.0
C3610 C 0.36212 0.37951 0.71492 0.0
C3611 C 0.3769 0.38566 0.71368 0.0
C3612 C 0.38257 0.37851 0.70507 0.0
H3613 H 0.4406 0.47066 0.74397 0.0
H3614 H 0.42556 0.44893 0.72842 0.0
C3615 C 0.37357 0.36539 0.69774 0.0
C3616 C 0.38638 0.39923 0.72209 0.0
H3617 H 0.39545 0.43388 0.72388 0.0
C3618 C 0.39499 0.39936 0.73491 0.0
C3619 C 0.38672 0.41185 0.71783 0.0
C3620 C 0.37813 0.41242 0.70369 0.0
C3621 C 0.4037 0.41175 0.74387 0.0
C3622 C 0.40365 0.42425 0.74001 0.0
C3623 C 0.39531 0.42421 0.72692 0.0
C3624 C 0.41233 0.43752 0.74933 0.0
C3625 C 0.41298 0.41139 0.75732 0.0
C3626 C 0.40965 0.43835 0.76615 0.0
C3627 C 0.41823 0.45073 0.77507 0.0
C3628 C 0.42962 0.46248 0.7673 0.0
C3629 C 0.43202 0.46171 0.75034 0.0
C3630 C 0.42341 0.44935 0.74142 0.0
H3631 H 0.41429 0.40204 0.75616 0.0
H3632 H 0.42364 0.4211 0.75709 0.0
H3633 H 0.40801 0.41087 0.76951 0.0
H3634 H 0.401 0.42938 0.7724 0.0
H3635 H 0.41617 0.45097 0.78813 0.0
H3636 H 0.65161 0.04062 0.70043 0.0
H3637 H 0.62978 0.0321 0.71646 0.0
H3638 H 0.62178 0.98948 0.713 0.0
H3639 H 0.64375 0.99791 0.69708 0.0
H3640 H 0.602 0.01193 0.70652 0.0
H3641 H 0.61821 0.99501 0.7628 0.0
H3642 H 0.63087 0.00646 0.74748 0.0
H3643 H 0.62003 0.98785 0.74354 0.0
C3644 C 0.64528 0.02944 0.70313 0.0
C3645 C 0.64946 0.01996 0.69751 0.0
C3646 C 0.63279 0.02459 0.71227 0.0
C3647 C 0.62428 0.0102 0.71603 0.0
C3648 C 0.62836 0.00067 0.71045 0.0
H3649 H 0.54536 0.97022 0.77437 0.0
H3650 H 0.56491 0.97354 0.75617 0.0
C3651 C 0.64088 0.00551 0.7013 0.0
C3652 C 0.61097 0.00526 0.7255 0.0
H3653 H 0.59506 0.99149 0.76261 0.0
C3654 C 0.60043 0.00738 0.71874 0.0
C3655 C 0.60896 -0.00075 0.74138 0.0
C3656 C 0.62013 0.99707 0.74935 0.0
C3657 C 0.58802 0.00391 0.72761 0.0
C3658 C 0.58624 0.99836 0.7437 0.0
C3659 C 0.59652 0.99576 0.75025 0.0
C3660 C 0.57429 0.9962 0.75437 0.0
C3661 C 0.57697 0.00631 0.71975 0.0
C3662 C 0.57327 0.00787 0.75945 0.0
C3663 C 0.5622 0.00602 0.76979 0.0
C3664 C 0.55197 0.99246 0.77527 0.0
C3665 C 0.55303 0.98077 0.77019 0.0
C3666 C 0.56419 0.98264 0.75989 0.0
H3667 H 0.57804 0.00691 0.70609 0.0
H3668 H 0.56608 0.99776 0.72307 0.0
H3669 H 0.57832 0.01647 0.72428 0.0
H3670 H 0.5811 0.01844 0.75548 0.0
H3671 H 0.56157 0.0152 0.77337 0.0
loop_
_geom_bond_atom_site_label_1
_geom_bond_atom_site_label_2
_geom_bond_distance
_geom_bond_site_symmetry_2
_ccdc_geom_bond_type
C0 O1 1.306 1_556 S
C0 O3 1.160 . S
O1 C0 1.306 1_554 S
O1 Cd2 2.228 . S
Cd2 O1 2.228 . S
Cd2 O6 2.273 . S
Cd2 O10 2.277 1_554 S
O3 C0 1.160 . S
O3 Cd4 2.203 1_656 S
Cd4 O3 2.203 1_454 S
Cd4 O6 2.411 1_455 S
Cd4 O7 2.333 . S
Cd4 O8 2.352 . S
Cd4 O12 2.277 1_554 S
Cd4 O13 2.356 . S
C5 O10 1.209 1_455 S
C5 O12 1.226 . S
O6 Cd2 2.273 . S
O6 Cd4 2.411 1_655 S
O6 C9 1.320 1_655 S
O7 Cd4 2.333 . S
O7 C9 1.214 . S
O8 Cd4 2.352 . S
O8 C11 1.258 . S
C9 O6 1.320 1_455 S
C9 O7 1.214 . S
O10 Cd2 2.277 1_556 S
O10 C5 1.209 1_655 S
C11 O8 1.258 . S
C11 O13 1.282 . S
O12 Cd4 2.277 1_556 S
O12 C5 1.226 . S
O13 Cd4 2.356 . S
O13 C11 1.282 . S
C14 O15 1.306 . S
C14 O17 1.160 . S
O15 C14 1.306 . S
O15 Cd16 2.228 . S
Cd16 O15 2.228 . S
Cd16 O20 2.273 1_554 S
Cd16 O24 2.277 . S
O17 C14 1.160 . S
O17 Cd18 2.203 . S
Cd18 O17 2.203 . S
Cd18 O20 2.411 1_554 S
Cd18 O21 2.333 1_554 S
Cd18 O22 2.352 1_554 S
Cd18 O26 2.277 . S
Cd18 O27 2.356 . S
C19 O24 1.209 . S
C19 O26 1.226 . S
O20 Cd16 2.273 1_556 S
O20 Cd18 2.411 1_556 S
O20 C23 1.320 . S
O21 Cd18 2.333 1_556 S
O21 C23 1.214 . S
O22 Cd18 2.352 1_556 S
O22 C25 1.258 . S
C23 O20 1.320 . S
C23 O21 1.214 . S
O24 Cd16 2.277 . S
O24 C19 1.209 . S
C25 O22 1.258 . S
C25 O27 1.282 1_556 S
O26 Cd18 2.277 . S
O26 C19 1.226 . S
O27 Cd18 2.356 . S
O27 C25 1.282 1_554 S
C28 O29 1.306 . S
C28 O31 1.160 . S
O29 C28 1.306 . S
O29 Cd30 2.228 . S
Cd30 O29 2.228 . S
Cd30 O34 2.273 1_554 S
Cd30 O38 2.277 . S
O31 C28 1.160 . S
O31 Cd32 2.203 1_565 S
Cd32 O31 2.203 1_545 S
Cd32 O34 2.411 1_544 S
Cd32 O35 2.333 1_554 S
Cd32 O36 2.352 1_554 S
Cd32 O40 2.277 . S
Cd32 O41 2.356 . S
C33 O38 1.209 1_545 S
C33 O40 1.226 . S
O34 Cd30 2.273 1_556 S
O34 Cd32 2.411 1_566 S
O34 C37 1.320 1_565 S
O35 Cd32 2.333 1_556 S
O35 C37 1.214 . S
O36 Cd32 2.352 1_556 S
O36 C39 1.258 . S
C37 O34 1.320 1_545 S
C37 O35 1.214 . S
O38 Cd30 2.277 . S
O38 C33 1.209 1_565 S
C39 O36 1.258 . S
C39 O41 1.282 1_556 S
O40 Cd32 2.277 . S
O40 C33 1.226 . S
O41 Cd32 2.356 . S
O41 C39 1.282 1_554 S
C42 O43 1.306 1_556 S
C42 O45 1.160 . S
O43 C42 1.306 1_554 S
O43 Cd44 2.228 . S
Cd44 O43 2.228 . S
Cd44 O48 2.273 . S
Cd44 O52 2.277 1_554 S
O45 C42 1.160 . S
O45 Cd46 2.203 1_656 S
Cd46 O45 2.203 1_454 S
Cd46 O48 2.411 1_455 S
Cd46 O49 2.333 . S
Cd46 O50 2.352 . S
Cd46 O54 2.277 1_554 S
Cd46 O55 2.356 . S
C47 O52 1.209 1_455 S
C47 O54 1.226 . S
O48 Cd44 2.273 . S
O48 Cd46 2.411 1_655 S
O48 C51 1.392 . S
O49 Cd46 2.333 . S
O49 C51 1.155 1_455 S
O50 Cd46 2.352 . S
O50 C53 1.258 . S
C51 O48 1.392 . S
C51 O49 1.155 1_655 S
O52 Cd44 2.277 1_556 S
O52 C47 1.209 1_655 S
C53 O50 1.258 . S
C53 O55 1.282 . S
O54 Cd46 2.277 1_556 S
O54 C47 1.226 . S
O55 Cd46 2.356 . S
O55 C53 1.282 . S
C56 O57 1.306 . S
C56 O59 1.160 . S
O57 C56 1.306 . S
O57 Cd58 2.228 . S
Cd58 O57 2.228 . S
Cd58 O62 2.273 1_554 S
Cd58 O66 2.277 . S
O59 C56 1.160 . S
O59 Cd60 2.203 . S
Cd60 O59 2.203 . S
Cd60 O62 2.411 1_554 S
Cd60 O63 2.333 1_554 S
Cd60 O64 2.352 1_554 S
Cd60 O68 2.277 . S
Cd60 O69 2.356 . S
C61 O66 1.209 . S
C61 O68 1.226 . S
O62 Cd58 2.273 1_556 S
O62 Cd60 2.411 1_556 S
O62 C65 1.320 . S
O63 Cd60 2.333 1_556 S
O63 C65 1.214 . S
O64 Cd60 2.352 1_556 S
O64 C67 1.258 . S
C65 O62 1.320 . S
C65 O63 1.214 . S
O66 Cd58 2.277 . S
O66 C61 1.209 . S
C67 O64 1.258 . S
C67 O69 1.282 1_556 S
O68 Cd60 2.277 . S
O68 C61 1.226 . S
O69 Cd60 2.356 . S
O69 C67 1.282 1_554 S
C70 O71 1.306 1_556 S
C70 O73 1.160 . S
O71 C70 1.306 1_554 S
O71 Cd72 2.228 . S
Cd72 O71 2.228 . S
Cd72 O76 2.273 . S
Cd72 O80 2.277 1_554 S
O73 C70 1.160 . S
O73 Cd74 2.203 1_546 S
Cd74 O73 2.203 1_564 S
Cd74 O76 2.411 1_565 S
Cd74 O77 2.333 . S
Cd74 O78 2.352 . S
Cd74 O82 2.277 1_554 S
Cd74 O83 2.356 . S
C75 O80 1.209 1_565 S
C75 O82 1.226 . S
O76 Cd72 2.273 . S
O76 Cd74 2.411 1_545 S
O76 C79 1.320 . S
O77 Cd74 2.333 . S
O77 C79 1.214 1_565 S
O78 Cd74 2.352 . S
O78 C81 1.258 . S
C79 O76 1.320 . S
C79 O77 1.214 1_545 S
O80 Cd72 2.277 1_556 S
O80 C75 1.209 1_545 S
C81 O78 1.258 . S
C81 O83 1.282 . S
O82 Cd74 2.277 1_556 S
O82 C75 1.226 . S
O83 Cd74 2.356 . S
O83 C81 1.282 . S
C84 O85 1.306 . S
C84 O87 1.160 . S
O85 C84 1.306 . S
O85 Cd86 2.228 . S
Cd86 O85 2.228 . S
Cd86 O90 2.273 . S
Cd86 O94 2.277 . S
O87 C84 1.160 . S
O87 Cd88 2.203 . S
Cd88 O87 2.203 . S
Cd88 O90 2.411 . S
Cd88 O91 2.333 . S
Cd88 O92 2.352 . S
Cd88 O96 2.277 . S
Cd88 O97 2.356 . S
C89 O94 1.209 . S
C89 O96 1.226 . S
O90 Cd86 2.273 . S
O90 Cd88 2.411 . S
O90 C93 1.320 . S
O91 Cd88 2.333 . S
O91 C93 1.214 . S
O92 Cd88 2.352 . S
O92 C95 1.258 . S
C93 O90 1.320 . S
C93 O91 1.214 . S
O94 Cd86 2.277 . S
O94 C89 1.209 . S
C95 O92 1.258 . S
C95 O97 1.282 . S
O96 Cd88 2.277 . S
O96 C89 1.226 . S
O97 Cd88 2.356 . S
O97 C95 1.282 . S
C98 O99 1.306 . S
C98 O101 1.160 . S
O99 C98 1.306 . S
O99 Cd100 2.228 1_545 S
Cd100 O99 2.228 1_565 S
Cd100 O104 2.273 . S
Cd100 O108 2.277 . S
O101 C98 1.160 . S
O101 Cd102 2.203 1_545 S
Cd102 O101 2.203 1_565 S
Cd102 O104 2.411 . S
Cd102 O105 2.333 . S
Cd102 O106 2.352 . S
Cd102 O110 2.277 . S
Cd102 O111 2.356 . S
C103 O108 1.209 . S
C103 O110 1.226 . S
O104 Cd100 2.273 . S
O104 Cd102 2.411 . S
O104 C107 1.320 . S
O105 Cd102 2.333 . S
O105 C107 1.214 . S
O106 Cd102 2.352 . S
O106 C109 1.258 . S
C107 O104 1.320 . S
C107 O105 1.214 . S
O108 Cd100 2.277 . S
O108 C103 1.209 . S
C109 O106 1.258 . S
C109 O111 1.282 . S
O110 Cd102 2.277 . S
O110 C103 1.226 . S
O111 Cd102 2.356 . S
O111 C109 1.282 . S
C112 O113 1.306 1_655 S
C112 O115 1.160 1_655 S
O113 C112 1.306 1_455 S
O113 Cd114 2.228 . S
Cd114 O113 2.228 . S
Cd114 O118 2.273 . S
Cd114 O122 2.277 . S
O115 C112 1.160 1_455 S
O115 Cd116 2.203 . S
Cd116 O115 2.203 . S
Cd116 O118 2.411 . S
Cd116 O119 2.333 . S
Cd116 O120 2.352 . S
Cd116 O124 2.277 . S
Cd116 O125 2.356 . S
C117 O122 1.209 . S
C117 O124 1.226 . S
O118 Cd114 2.273 . S
O118 Cd116 2.411 . S
O118 C121 1.320 . S
O119 Cd116 2.333 . S
O119 C121 1.214 . S
O120 Cd116 2.352 . S
O120 C123 1.258 . S
C121 O118 1.320 . S
C121 O119 1.214 . S
O122 Cd114 2.277 . S
O122 C117 1.209 . S
C123 O120 1.258 . S
C123 O125 1.282 . S
O124 Cd116 2.277 . S
O124 C117 1.226 . S
O125 Cd116 2.356 . S
O125 C123 1.282 . S
C126 O127 1.306 . S
C126 O129 1.160 . S
O127 C126 1.306 . S
O127 Cd128 2.228 . S
Cd128 O127 2.228 . S
Cd128 O132 2.273 . S
Cd128 O136 2.277 . S
O129 C126 1.160 . S
O129 Cd130 2.203 . S
Cd130 O129 2.203 . S
Cd130 O132 2.411 . S
Cd130 O133 2.333 . S
Cd130 O134 2.352 1_565 S
Cd130 O138 2.277 . S
Cd130 O139 2.356 1_565 S
C131 O136 1.209 . S
C131 O138 1.226 . S
O132 Cd128 2.273 . S
O132 Cd130 2.411 . S
O132 C135 1.320 . S
O133 Cd130 2.333 . S
O133 C135 1.214 . S
O134 Cd130 2.352 1_545 S
O134 C137 1.258 . S
C135 O132 1.320 . S
C135 O133 1.214 . S
O136 Cd128 2.277 . S
O136 C131 1.209 . S
C137 O134 1.258 . S
C137 O139 1.282 . S
O138 Cd130 2.277 . S
O138 C131 1.226 . S
O139 Cd130 2.356 1_545 S
O139 C137 1.282 . S
C140 O141 1.306 . S
C140 O143 1.160 1_655 S
O141 C140 1.306 . S
O141 Cd142 2.228 1_655 S
Cd142 O141 2.228 1_455 S
Cd142 O146 2.273 . S
Cd142 O150 2.277 . S
O143 C140 1.160 1_455 S
O143 Cd144 2.203 . S
Cd144 O143 2.203 . S
Cd144 O146 2.411 . S
Cd144 O147 2.333 . S
Cd144 O148 2.352 . S
Cd144 O152 2.277 . S
Cd144 O153 2.356 . S
C145 O150 1.209 . S
C145 O152 1.226 . S
O146 Cd142 2.273 . S
O146 Cd144 2.411 . S
O146 C149 1.320 . S
O147 Cd144 2.333 . S
O147 C149 1.214 . S
O148 Cd144 2.352 . S
O148 C151 1.258 . S
C149 O146 1.320 . S
C149 O147 1.214 . S
O150 Cd142 2.277 . S
O150 C145 1.209 . S
C151 O148 1.258 . S
C151 O153 1.282 . S
O152 Cd144 2.277 . S
O152 C145 1.226 . S
O153 Cd144 2.356 . S
O153 C151 1.282 . S
C154 O155 1.306 . S
C154 O157 1.160 . S
O155 C154 1.306 . S
O155 Cd156 2.228 . S
Cd156 O155 2.228 . S
Cd156 O160 2.273 . S
Cd156 O164 2.277 . S
O157 C154 1.160 . S
O157 Cd158 2.203 . S
Cd158 O157 2.203 . S
Cd158 O160 2.411 . S
Cd158 O161 2.333 . S
Cd158 O162 2.352 . S
Cd158 O166 2.277 . S
Cd158 O167 2.356 . S
C159 O164 1.209 . S
C159 O166 1.226 . S
O160 Cd156 2.273 . S
O160 Cd158 2.411 . S
O160 C163 1.320 . S
O161 Cd158 2.333 . S
O161 C163 1.214 . S
O162 Cd158 2.352 . S
O162 C165 1.258 . S
C163 O160 1.320 . S
C163 O161 1.214 . S
O164 Cd156 2.277 . S
O164 C159 1.209 . S
C165 O162 1.258 . S
C165 O167 1.282 . S
O166 Cd158 2.277 . S
O166 C159 1.226 . S
O167 Cd158 2.356 . S
O167 C165 1.282 . S
C168 O169 1.306 . S
C168 O171 1.160 1_565 S
O169 C168 1.306 . S
O169 Cd170 2.228 1_565 S
Cd170 O169 2.228 1_545 S
Cd170 O174 2.273 . S
Cd170 O178 2.277 . S
O171 C168 1.160 1_545 S
O171 Cd172 2.203 . S
Cd172 O171 2.203 . S
Cd172 O174 2.411 . S
Cd172 O175 2.333 . S
Cd172 O176 2.352 . S
Cd172 O180 2.277 . S
Cd172 O181 2.356 . S
C173 O178 1.209 . S
C173 O180 1.226 . S
O174 Cd170 2.273 . S
O174 Cd172 2.411 . S
O174 C177 1.320 . S
O175 Cd172 2.333 . S
O175 C177 1.214 . S
O176 Cd172 2.352 . S
O176 C179 1.258 . S
C177 O174 1.320 . S
C177 O175 1.214 . S
O178 Cd170 2.277 . S
O178 C173 1.209 . S
C179 O176 1.258 . S
C179 O181 1.282 . S
O180 Cd172 2.277 . S
O180 C173 1.226 . S
O181 Cd172 2.356 . S
O181 C179 1.282 . S
C182 O183 1.306 . S
C182 O185 1.160 . S
O183 C182 1.306 . S
O183 Cd184 2.228 . S
Cd184 O183 2.228 . S
Cd184 O188 2.273 . S
Cd184 O192 2.277 . S
O185 C182 1.160 . S
O185 Cd186 2.203 . S
Cd186 O185 2.203 . S
Cd186 O188 2.411 . S
Cd186 O189 2.333 . S
Cd186 O190 2.352 1_655 S
Cd186 O194 2.277 . S
Cd186 O195 2.356 1_655 S
C187 O192 1.209 . S
C187 O194 1.226 . S
O188 Cd184 2.273 . S
O188 Cd186 2.411 . S
O188 C191 1.320 . S
O189 Cd186 2.333 . S
O189 C191 1.214 . S
O190 Cd186 2.352 1_455 S
O190 C193 1.258 . S
C191 O188 1.320 . S
C191 O189 1.214 . S
O192 Cd184 2.277 . S
O192 C187 1.209 . S
C193 O190 1.258 . S
C193 O195 1.282 . S
O194 Cd186 2.277 . S
O194 C187 1.226 . S
O195 Cd186 2.356 1_455 S
O195 C193 1.282 . S
C196 O197 1.306 . S
C196 O199 1.160 . S
O197 C196 1.306 . S
O197 Cd198 2.228 . S
Cd198 O197 2.228 . S
Cd198 O202 2.273 . S
Cd198 O206 2.277 . S
O199 C196 1.160 . S
O199 Cd200 2.203 . S
Cd200 O199 2.203 . S
Cd200 O202 2.411 . S
Cd200 O203 2.333 . S
Cd200 O204 2.352 . S
Cd200 O208 2.277 . S
Cd200 O209 2.356 . S
C201 O206 1.209 . S
C201 O208 1.226 . S
O202 Cd198 2.273 . S
O202 Cd200 2.411 . S
O202 C205 1.320 . S
O203 Cd200 2.333 . S
O203 C205 1.214 . S
O204 Cd200 2.352 . S
O204 C207 1.258 . S
C205 O202 1.320 . S
C205 O203 1.214 . S
O206 Cd198 2.277 . S
O206 C201 1.209 . S
C207 O204 1.258 . S
C207 O209 1.282 . S
O208 Cd200 2.277 . S
O208 C201 1.226 . S
O209 Cd200 2.356 . S
O209 C207 1.282 . S
C210 O211 1.306 . S
C210 O213 1.160 . S
O211 C210 1.306 . S
O211 Cd212 2.228 . S
Cd212 O211 2.228 . S
Cd212 O216 2.273 . S
Cd212 O220 2.277 . S
O213 C210 1.160 . S
O213 Cd214 2.203 . S
Cd214 O213 2.203 . S
Cd214 O216 2.411 . S
Cd214 O217 2.333 . S
Cd214 O218 2.352 . S
Cd214 O222 2.277 . S
Cd214 O223 2.356 . S
C215 O220 1.209 . S
C215 O222 1.226 . S
O216 Cd212 2.273 . S
O216 Cd214 2.411 . S
O216 C219 1.320 . S
O217 Cd214 2.333 . S
O217 C219 1.214 . S
O218 Cd214 2.352 . S
O218 C221 1.258 . S
C219 O216 1.320 . S
C219 O217 1.214 . S
O220 Cd212 2.277 . S
O220 C215 1.209 . S
C221 O218 1.258 . S
C221 O223 1.282 . S
O222 Cd214 2.277 . S
O222 C215 1.226 . S
O223 Cd214 2.356 . S
O223 C221 1.282 . S
C224 O225 1.306 . S
C224 O227 1.160 . S
O225 C224 1.306 . S
O225 Cd226 2.228 . S
Cd226 O225 2.228 . S
Cd226 O230 2.273 . S
Cd226 O234 2.277 . S
O227 C224 1.160 . S
O227 Cd228 2.203 . S
Cd228 O227 2.203 . S
Cd228 O230 2.411 . S
Cd228 O231 2.333 . S
Cd228 O232 2.352 1_545 S
Cd228 O236 2.277 . S
Cd228 O237 2.356 1_545 S
C229 O234 1.209 . S
C229 O236 1.226 . S
O230 Cd226 2.273 . S
O230 Cd228 2.411 . S
O230 C233 1.320 . S
O231 Cd228 2.333 . S
O231 C233 1.214 . S
O232 Cd228 2.352 1_565 S
O232 C235 1.258 . S
C233 O230 1.320 . S
C233 O231 1.214 . S
O234 Cd226 2.277 . S
O234 C229 1.209 . S
C235 O232 1.258 . S
C235 O237 1.282 . S
O236 Cd228 2.277 . S
O236 C229 1.226 . S
O237 Cd228 2.356 1_565 S
O237 C235 1.282 . S
C238 O239 1.306 . S
C238 O241 1.160 . S
O239 C238 1.306 . S
O239 Cd240 2.228 1_455 S
Cd240 O239 2.228 1_655 S
Cd240 O244 2.273 . S
Cd240 O248 2.277 . S
O241 C238 1.160 . S
O241 Cd242 2.203 1_455 S
Cd242 O241 2.203 1_655 S
Cd242 O244 2.411 . S
Cd242 O245 2.333 . S
Cd242 O246 2.352 . S
Cd242 O250 2.277 . S
Cd242 O251 2.356 . S
C243 O248 1.209 . S
C243 O250 1.226 . S
O244 Cd240 2.273 . S
O244 Cd242 2.411 . S
O244 C247 1.320 . S
O245 Cd242 2.333 . S
O245 C247 1.214 . S
O246 Cd242 2.352 . S
O246 C249 1.258 . S
C247 O244 1.320 . S
C247 O245 1.214 . S
O248 Cd240 2.277 . S
O248 C243 1.209 . S
C249 O246 1.258 . S
C249 O251 1.282 . S
O250 Cd242 2.277 . S
O250 C243 1.226 . S
O251 Cd242 2.356 . S
O251 C249 1.282 . S
C252 C253 1.384 . S
C252 C254 1.384 . S
C252 H280 0.931 . S
C253 C252 1.384 . S
C253 C256 1.382 . S
C254 C252 1.384 . S
C254 C255 1.381 . S
C254 H281 0.930 . S
C255 C254 1.381 . S
C255 C257 1.381 . S
C255 C258 1.487 . S
C256 C253 1.382 . S
C256 C257 1.387 . S
C256 H282 0.930 . S
C257 C255 1.381 . S
C257 C256 1.387 . S
C257 H283 0.931 . S
C258 C255 1.487 . S
C258 C265 1.399 . S
C258 N296 1.343 . S
C259 C260 1.384 . S
C259 C261 1.384 . S
C259 H284 0.931 . S
C260 C259 1.384 . S
C260 C263 1.382 . S
C261 C259 1.384 . S
C261 C262 1.381 . S
C261 H285 0.930 . S
C262 C261 1.381 . S
C262 C264 1.381 . S
C262 C265 1.487 . S
C263 C260 1.382 . S
C263 C264 1.387 . S
C263 H286 0.930 . S
C264 C262 1.381 . S
C264 C263 1.387 . S
C264 H287 0.931 . S
C265 C258 1.399 . S
C265 C262 1.487 . S
C265 N297 1.343 . S
C266 C267 1.384 . S
C266 C268 1.384 . S
C266 H288 0.931 . S
C267 C266 1.384 . S
C267 C270 1.382 . S
C268 C266 1.384 . S
C268 C269 1.381 . S
C268 H289 0.930 . S
C269 C268 1.381 . S
C269 C271 1.381 . S
C269 C272 1.487 . S
C270 C267 1.382 . S
C270 C271 1.387 . S
C270 H290 0.930 . S
C271 C269 1.381 . S
C271 C270 1.387 . S
C271 H291 0.931 . S
C272 C269 1.487 . S
C272 C279 1.399 . S
C272 N297 1.343 . S
C273 C274 1.384 . S
C273 C275 1.384 . S
C273 H292 0.931 . S
C274 C273 1.384 . S
C274 C277 1.382 . S
C275 C273 1.384 . S
C275 C276 1.381 . S
C275 H293 0.930 . S
C276 C275 1.381 . S
C276 C278 1.381 . S
C276 C279 1.487 . S
C277 C274 1.382 . S
C277 C278 1.387 . S
C277 H294 0.930 . S
C278 C276 1.381 . S
C278 C277 1.387 . S
C278 H295 0.931 . S
C279 C272 1.399 . S
C279 C276 1.487 . S
C279 N296 1.343 . S
H280 C252 0.931 . S
H281 C254 0.930 . S
H282 C256 0.930 . S
H283 C257 0.931 . S
H284 C259 0.931 . S
H285 C261 0.930 . S
H286 C263 0.930 . S
H287 C264 0.931 . S
H288 C266 0.931 . S
H289 C268 0.930 . S
H290 C270 0.930 . S
H291 C271 0.931 . S
H292 C273 0.931 . S
H293 C275 0.930 . S
H294 C277 0.930 . S
H295 C278 0.931 . S
N296 C258 1.343 . S
N296 C279 1.343 . S
N297 C265 1.343 . S
N297 C272 1.343 . S
C298 C299 1.384 . S
C298 C300 1.384 . S
C298 H326 0.931 . S
C299 C298 1.384 . S
C299 C302 1.382 . S
C300 C298 1.384 . S
C300 C301 1.381 . S
C300 H327 0.930 . S
C301 C300 1.381 . S
C301 C303 1.381 . S
C301 C304 1.487 . S
C302 C299 1.382 . S
C302 C303 1.387 . S
C302 H328 0.930 . S
C303 C301 1.381 . S
C303 C302 1.387 . S
C303 H329 0.931 . S
C304 C301 1.487 . S
C304 C311 1.399 . S
C304 N342 1.343 . S
C305 C306 1.384 . S
C305 C307 1.384 . S
C305 H330 0.931 . S
C306 C305 1.384 . S
C306 C309 1.382 . S
C307 C305 1.384 . S
C307 C308 1.381 . S
C307 H331 0.930 . S
C308 C307 1.381 . S
C308 C310 1.381 . S
C308 C311 1.487 . S
C309 C306 1.382 . S
C309 C310 1.387 . S
C309 H332 0.930 . S
C310 C308 1.381 . S
C310 C309 1.387 . S
C310 H333 0.931 . S
C311 C304 1.399 . S
C311 C308 1.487 . S
C311 N343 1.343 . S
C312 C313 1.384 . S
C312 C314 1.384 . S
C312 H334 0.931 . S
C313 C312 1.384 . S
C313 C316 1.382 . S
C314 C312 1.384 . S
C314 C315 1.381 . S
C314 H335 0.930 . S
C315 C314 1.381 . S
C315 C317 1.381 . S
C315 C318 1.487 . S
C316 C313 1.382 . S
C316 C317 1.387 . S
C316 H336 0.930 . S
C317 C315 1.381 . S
C317 C316 1.387 . S
C317 H337 0.931 . S
C318 C315 1.487 . S
C318 C325 1.399 . S
C318 N343 1.343 . S
C319 C320 1.384 . S
C319 C321 1.384 . S
C319 H338 0.931 . S
C320 C319 1.384 . S
C320 C323 1.382 . S
C321 C319 1.384 . S
C321 C322 1.381 . S
C321 H339 0.930 . S
C322 C321 1.381 . S
C322 C324 1.381 . S
C322 C325 1.487 . S
C323 C320 1.382 . S
C323 C324 1.387 . S
C323 H340 0.930 . S
C324 C322 1.381 . S
C324 C323 1.387 . S
C324 H341 0.931 . S
C325 C318 1.399 . S
C325 C322 1.487 . S
C325 N342 1.343 . S
H326 C298 0.931 . S
H327 C300 0.930 . S
H328 C302 0.930 . S
H329 C303 0.931 . S
H330 C305 0.931 . S
H331 C307 0.930 . S
H332 C309 0.930 . S
H333 C310 0.931 . S
H334 C312 0.931 . S
H335 C314 0.930 . S
H336 C316 0.930 . S
H337 C317 0.931 . S
H338 C319 0.931 . S
H339 C321 0.930 . S
H340 C323 0.930 . S
H341 C324 0.931 . S
N342 C304 1.343 . S
N342 C325 1.343 . S
N343 C311 1.343 . S
N343 C318 1.343 . S
C344 C345 1.384 . S
C344 C346 1.384 . S
C344 H372 0.931 . S
C345 C344 1.384 . S
C345 C348 1.382 . S
C346 C344 1.384 . S
C346 C347 1.381 . S
C346 H373 0.930 . S
C347 C346 1.381 . S
C347 C349 1.381 . S
C347 C350 1.487 . S
C348 C345 1.382 . S
C348 C349 1.387 . S
C348 H374 0.930 . S
C349 C347 1.381 . S
C349 C348 1.387 . S
C349 H375 0.931 . S
C350 C347 1.487 . S
C350 C357 1.399 . S
C350 N388 1.343 . S
C351 C352 1.384 . S
C351 C353 1.384 . S
C351 H376 0.931 . S
C352 C351 1.384 . S
C352 C355 1.382 . S
C353 C351 1.384 . S
C353 C354 1.381 . S
C353 H377 0.930 . S
C354 C353 1.381 . S
C354 C356 1.381 . S
C354 C357 1.487 . S
C355 C352 1.382 . S
C355 C356 1.387 . S
C355 H378 0.930 . S
C356 C354 1.381 . S
C356 C355 1.387 . S
C356 H379 0.931 . S
C357 C350 1.399 . S
C357 C354 1.487 . S
C357 N389 1.343 . S
C358 C359 1.384 . S
C358 C360 1.384 . S
C358 H380 0.931 . S
C359 C358 1.384 . S
C359 C362 1.382 . S
C360 C358 1.384 . S
C360 C361 1.381 . S
C360 H381 0.930 . S
C361 C360 1.381 . S
C361 C363 1.381 . S
C361 C364 1.487 . S
C362 C359 1.382 . S
C362 C363 1.387 . S
C362 H382 0.930 . S
C363 C361 1.381 . S
C363 C362 1.387 . S
C363 H383 0.931 . S
C364 C361 1.487 . S
C364 C371 1.399 . S
C364 N389 1.343 . S
C365 C366 1.384 . S
C365 C367 1.384 . S
C365 H384 0.931 . S
C366 C365 1.384 . S
C366 C369 1.382 . S
C367 C365 1.384 . S
C367 C368 1.381 . S
C367 H385 0.930 . S
C368 C367 1.381 . S
C368 C370 1.381 . S
C368 C371 1.487 . S
C369 C366 1.382 . S
C369 C370 1.387 . S
C369 H386 0.930 . S
C370 C368 1.381 . S
C370 C369 1.387 . S
C370 H387 0.931 . S
C371 C364 1.399 . S
C371 C368 1.487 . S
C371 N388 1.343 . S
H372 C344 0.931 . S
H373 C346 0.930 . S
H374 C348 0.930 . S
H375 C349 0.931 . S
H376 C351 0.931 . S
H377 C353 0.930 . S
H378 C355 0.930 . S
H379 C356 0.931 . S
H380 C358 0.931 . S
H381 C360 0.930 . S
H382 C362 0.930 . S
H383 C363 0.931 . S
H384 C365 0.931 . S
H385 C367 0.930 . S
H386 C369 0.930 . S
H387 C370 0.931 . S
N388 C350 1.343 . S
N388 C371 1.343 . S
N389 C357 1.343 . S
N389 C364 1.343 . S
C390 C391 1.384 . S
C390 C392 1.384 . S
C390 H418 0.931 . S
C391 C390 1.384 . S
C391 C394 1.382 . S
C392 C390 1.384 . S
C392 C393 1.381 . S
C392 H419 0.930 . S
C393 C392 1.381 . S
C393 C395 1.381 . S
C393 C396 1.487 . S
C394 C391 1.382 . S
C394 C395 1.387 . S
C394 H420 0.930 . S
C395 C393 1.381 . S
C395 C394 1.387 . S
C395 H421 0.931 . S
C396 C393 1.487 . S
C396 C403 1.399 . S
C396 N434 1.343 . S
C397 C398 1.384 . S
C397 C399 1.384 . S
C397 H422 0.931 . S
C398 C397 1.384 . S
C398 C401 1.382 . S
C399 C397 1.384 . S
C399 C400 1.381 . S
C399 H423 0.930 . S
C400 C399 1.381 . S
C400 C402 1.381 . S
C400 C403 1.487 . S
C401 C398 1.382 . S
C401 C402 1.387 . S
C401 H424 0.930 . S
C402 C400 1.381 . S
C402 C401 1.387 . S
C402 H425 0.931 . S
C403 C396 1.399 . S
C403 C400 1.487 . S
C403 N435 1.343 . S
C404 C405 1.384 . S
C404 C406 1.384 . S
C404 H426 0.931 . S
C405 C404 1.384 . S
C405 C408 1.382 . S
C406 C404 1.384 . S
C406 C407 1.381 . S
C406 H427 0.930 . S
C407 C406 1.381 . S
C407 C409 1.381 . S
C407 C410 1.487 . S
C408 C405 1.382 . S
C408 C409 1.387 . S
C408 H428 0.930 . S
C409 C407 1.381 . S
C409 C408 1.387 . S
C409 H429 0.931 . S
C410 C407 1.487 . S
C410 C417 1.399 . S
C410 N435 1.343 . S
C411 C412 1.384 . S
C411 C413 1.384 . S
C411 H430 0.931 . S
C412 C411 1.384 . S
C412 C415 1.382 . S
C413 C411 1.384 . S
C413 C414 1.381 . S
C413 H431 0.930 . S
C414 C413 1.381 . S
C414 C416 1.381 . S
C414 C417 1.487 . S
C415 C412 1.382 . S
C415 C416 1.387 . S
C415 H432 0.930 . S
C416 C414 1.381 . S
C416 C415 1.387 . S
C416 H433 0.931 . S
C417 C410 1.399 . S
C417 C414 1.487 . S
C417 N434 1.343 . S
H418 C390 0.931 . S
H419 C392 0.930 . S
H420 C394 0.930 . S
H421 C395 0.931 . S
H422 C397 0.931 . S
H423 C399 0.930 . S
H424 C401 0.930 . S
H425 C402 0.931 . S
H426 C404 0.931 . S
H427 C406 0.930 . S
H428 C408 0.930 . S
H429 C409 0.931 . S
H430 C411 0.931 . S
H431 C413 0.930 . S
H432 C415 0.930 . S
H433 C416 0.931 . S
N434 C396 1.343 . S
N434 C417 1.343 . S
N435 C403 1.343 . S
N435 C410 1.343 . S
C436 C437 1.384 . S
C436 C438 1.384 . S
C436 H464 0.931 . S
C437 C436 1.384 . S
C437 C440 1.382 . S
C438 C436 1.384 . S
C438 C439 1.381 . S
C438 H465 0.930 . S
C439 C438 1.381 . S
C439 C441 1.381 . S
C439 C442 1.487 . S
C440 C437 1.382 . S
C440 C441 1.387 . S
C440 H466 0.930 . S
C441 C439 1.381 . S
C441 C440 1.387 . S
C441 H467 0.931 . S
C442 C439 1.487 . S
C442 C449 1.399 . S
C442 N480 1.343 . S
C443 C444 1.384 . S
C443 C445 1.384 . S
C443 H468 0.931 . S
C444 C443 1.384 . S
C444 C447 1.382 . S
C445 C443 1.384 . S
C445 C446 1.381 . S
C445 H469 0.930 . S
C446 C445 1.381 . S
C446 C448 1.381 . S
C446 C449 1.487 . S
C447 C444 1.382 . S
C447 C448 1.387 . S
C447 H470 0.930 . S
C448 C446 1.381 . S
C448 C447 1.387 . S
C448 H471 0.931 . S
C449 C442 1.399 . S
C449 C446 1.487 . S
C449 N481 1.343 . S
C450 C451 1.384 . S
C450 C452 1.384 . S
C450 H472 0.931 . S
C451 C450 1.384 . S
C451 C454 1.382 . S
C452 C450 1.384 . S
C452 C453 1.381 . S
C452 H473 0.930 . S
C453 C452 1.381 . S
C453 C455 1.381 . S
C453 C456 1.487 . S
C454 C451 1.382 . S
C454 C455 1.387 . S
C454 H474 0.930 . S
C455 C453 1.381 . S
C455 C454 1.387 . S
C455 H475 0.931 . S
C456 C453 1.487 . S
C456 C463 1.399 . S
C456 N481 1.343 . S
C457 C458 1.384 . S
C457 C459 1.384 . S
C457 H476 0.931 . S
C458 C457 1.384 . S
C458 C461 1.382 . S
C459 C457 1.384 . S
C459 C460 1.381 . S
C459 H477 0.930 . S
C460 C459 1.381 . S
C460 C462 1.381 . S
C460 C463 1.487 . S
C461 C458 1.382 . S
C461 C462 1.387 . S
C461 H478 0.930 . S
C462 C460 1.381 . S
C462 C461 1.387 . S
C462 H479 0.931 . S
C463 C456 1.399 . S
C463 C460 1.487 . S
C463 N480 1.343 . S
H464 C436 0.931 . S
H465 C438 0.930 . S
H466 C440 0.930 . S
H467 C441 0.931 . S
H468 C443 0.931 . S
H469 C445 0.930 . S
H470 C447 0.930 . S
H471 C448 0.931 . S
H472 C450 0.931 . S
H473 C452 0.930 . S
H474 C454 0.930 . S
H475 C455 0.931 . S
H476 C457 0.931 . S
H477 C459 0.930 . S
H478 C461 0.930 . S
H479 C462 0.931 . S
N480 C442 1.343 . S
N480 C463 1.343 . S
N481 C449 1.343 . S
N481 C456 1.343 . S
C482 C483 1.384 . S
C482 C484 1.384 . S
C482 H510 0.931 . S
C483 C482 1.384 . S
C483 C486 1.382 . S
C484 C482 1.384 . S
C484 C485 1.381 . S
C484 H511 0.930 . S
C485 C484 1.381 . S
C485 C487 1.381 . S
C485 C488 1.487 . S
C486 C483 1.382 . S
C486 C487 1.387 . S
C486 H512 0.930 . S
C487 C485 1.381 . S
C487 C486 1.387 . S
C487 H513 0.931 . S
C488 C485 1.487 . S
C488 C495 1.399 . S
C488 N526 1.343 . S
C489 C490 1.384 . S
C489 C491 1.384 . S
C489 H514 0.931 . S
C490 C489 1.384 . S
C490 C493 1.382 . S
C491 C489 1.384 . S
C491 C492 1.381 . S
C491 H515 0.930 . S
C492 C491 1.381 . S
C492 C494 1.381 . S
C492 C495 1.487 . S
C493 C490 1.382 . S
C493 C494 1.387 . S
C493 H516 0.930 . S
C494 C492 1.381 . S
C494 C493 1.387 . S
C494 H517 0.931 . S
C495 C488 1.399 . S
C495 C492 1.487 . S
C495 N527 1.343 . S
C496 C497 1.384 . S
C496 C498 1.384 . S
C496 H518 0.931 . S
C497 C496 1.384 . S
C497 C500 1.382 . S
C498 C496 1.384 . S
C498 C499 1.381 . S
C498 H519 0.930 . S
C499 C498 1.381 . S
C499 C501 1.381 . S
C499 C502 1.487 . S
C500 C497 1.382 . S
C500 C501 1.387 . S
C500 H520 0.930 . S
C501 C499 1.381 . S
C501 C500 1.387 . S
C501 H521 0.931 . S
C502 C499 1.487 . S
C502 C509 1.399 . S
C502 N527 1.343 . S
C503 C504 1.384 . S
C503 C505 1.384 . S
C503 H522 0.931 . S
C504 C503 1.384 . S
C504 C507 1.382 . S
C505 C503 1.384 . S
C505 C506 1.381 . S
C505 H523 0.930 . S
C506 C505 1.381 . S
C506 C508 1.381 . S
C506 C509 1.487 . S
C507 C504 1.382 . S
C507 C508 1.387 . S
C507 H524 0.930 . S
C508 C506 1.381 . S
C508 C507 1.387 . S
C508 H525 0.931 . S
C509 C502 1.399 . S
C509 C506 1.487 . S
C509 N526 1.343 . S
H510 C482 0.931 . S
H511 C484 0.930 . S
H512 C486 0.930 . S
H513 C487 0.931 . S
H514 C489 0.931 . S
H515 C491 0.930 . S
H516 C493 0.930 . S
H517 C494 0.931 . S
H518 C496 0.931 . S
H519 C498 0.930 . S
H520 C500 0.930 . S
H521 C501 0.931 . S
H522 C503 0.931 . S
H523 C505 0.930 . S
H524 C507 0.930 . S
H525 C508 0.931 . S
N526 C488 1.343 . S
N526 C509 1.343 . S
N527 C495 1.343 . S
N527 C502 1.343 . S
C528 C529 1.384 . S
C528 C530 1.384 . S
C528 H556 0.931 . S
C529 C528 1.384 . S
C529 C532 1.382 . S
C530 C528 1.384 . S
C530 C531 1.381 . S
C530 H557 0.930 . S
C531 C530 1.381 . S
C531 C533 1.381 . S
C531 C534 1.487 . S
C532 C529 1.382 . S
C532 C533 1.387 . S
C532 H558 0.930 . S
C533 C531 1.381 . S
C533 C532 1.387 . S
C533 H559 0.931 . S
C534 C531 1.487 . S
C534 C541 1.399 . S
C534 N572 1.343 . S
C535 C536 1.384 . S
C535 C537 1.384 . S
C535 H560 0.931 . S
C536 C535 1.384 . S
C536 C539 1.382 . S
C537 C535 1.384 . S
C537 C538 1.381 . S
C537 H561 0.930 . S
C538 C537 1.381 . S
C538 C540 1.381 . S
C538 C541 1.487 . S
C539 C536 1.382 . S
C539 C540 1.387 . S
C539 H562 0.930 . S
C540 C538 1.381 . S
C540 C539 1.387 . S
C540 H563 0.931 . S
C541 C534 1.399 . S
C541 C538 1.487 . S
C541 N573 1.343 . S
C542 C543 1.384 . S
C542 C544 1.384 . S
C542 H564 0.931 . S
C543 C542 1.384 . S
C543 C546 1.382 . S
C544 C542 1.384 . S
C544 C545 1.381 . S
C544 H565 0.930 . S
C545 C544 1.381 . S
C545 C547 1.381 . S
C545 C548 1.487 . S
C546 C543 1.382 . S
C546 C547 1.387 . S
C546 H566 0.930 . S
C547 C545 1.381 . S
C547 C546 1.387 . S
C547 H567 0.931 . S
C548 C545 1.487 . S
C548 C555 1.399 . S
C548 N573 1.343 . S
C549 C550 1.384 . S
C549 C551 1.384 . S
C549 H568 0.931 . S
C550 C549 1.384 . S
C550 C553 1.382 . S
C551 C549 1.384 . S
C551 C552 1.381 . S
C551 H569 0.930 . S
C552 C551 1.381 . S
C552 C554 1.381 . S
C552 C555 1.487 . S
C553 C550 1.382 . S
C553 C554 1.387 . S
C553 H570 0.930 . S
C554 C552 1.381 . S
C554 C553 1.387 . S
C554 H571 0.931 . S
C555 C548 1.399 . S
C555 C552 1.487 . S
C555 N572 1.343 . S
H556 C528 0.931 . S
H557 C530 0.930 . S
H558 C532 0.930 . S
H559 C533 0.931 . S
H560 C535 0.931 . S
H561 C537 0.930 . S
H562 C539 0.930 . S
H563 C540 0.931 . S
H564 C542 0.931 . S
H565 C544 0.930 . S
H566 C546 0.930 . S
H567 C547 0.931 . S
H568 C549 0.931 . S
H569 C551 0.930 . S
H570 C553 0.930 . S
H571 C554 0.931 . S
N572 C534 1.343 . S
N572 C555 1.343 . S
N573 C541 1.343 . S
N573 C548 1.343 . S
C574 C575 1.384 . S
C574 C576 1.384 . S
C574 H602 0.931 . S
C575 C574 1.384 . S
C575 C578 1.382 . S
C576 C574 1.384 . S
C576 C577 1.381 . S
C576 H603 0.930 . S
C577 C576 1.381 . S
C577 C579 1.381 . S
C577 C580 1.487 . S
C578 C575 1.382 . S
C578 C579 1.387 . S
C578 H604 0.930 . S
C579 C577 1.381 . S
C579 C578 1.387 . S
C579 H605 0.931 . S
C580 C577 1.487 . S
C580 C587 1.399 . S
C580 N618 1.343 . S
C581 C582 1.384 . S
C581 C583 1.384 . S
C581 H606 0.931 . S
C582 C581 1.384 . S
C582 C585 1.382 . S
C583 C581 1.384 . S
C583 C584 1.381 . S
C583 H607 0.930 . S
C584 C583 1.381 . S
C584 C586 1.381 . S
C584 C587 1.487 . S
C585 C582 1.382 . S
C585 C586 1.387 . S
C585 H608 0.930 . S
C586 C584 1.381 . S
C586 C585 1.387 . S
C586 H609 0.931 . S
C587 C580 1.399 . S
C587 C584 1.487 . S
C587 N619 1.343 . S
C588 C589 1.384 . S
C588 C590 1.384 . S
C588 H610 0.931 . S
C589 C588 1.384 . S
C589 C592 1.382 . S
C590 C588 1.384 . S
C590 C591 1.381 . S
C590 H611 0.930 . S
C591 C590 1.381 . S
C591 C593 1.381 . S
C591 C594 1.487 . S
C592 C589 1.382 . S
C592 C593 1.387 . S
C592 H612 0.930 . S
C593 C591 1.381 . S
C593 C592 1.387 . S
C593 H613 0.931 . S
C594 C591 1.487 . S
C594 C601 1.399 . S
C594 N619 1.343 . S
C595 C596 1.384 . S
C595 C597 1.384 . S
C595 H614 0.931 . S
C596 C595 1.384 . S
C596 C599 1.382 . S
C597 C595 1.384 . S
C597 C598 1.381 . S
C597 H615 0.930 . S
C598 C597 1.381 . S
C598 C600 1.381 . S
C598 C601 1.487 . S
C599 C596 1.382 . S
C599 C600 1.387 . S
C599 H616 0.930 . S
C600 C598 1.381 . S
C600 C599 1.387 . S
C600 H617 0.931 . S
C601 C594 1.399 . S
C601 C598 1.487 . S
C601 N618 1.343 . S
H602 C574 0.931 . S
H603 C576 0.930 . S
H604 C578 0.930 . S
H605 C579 0.931 . S
H606 C581 0.931 . S
H607 C583 0.930 . S
H608 C585 0.930 . S
H609 C586 0.931 . S
H610 C588 0.931 . S
H611 C590 0.930 . S
H612 C592 0.930 . S
H613 C593 0.931 . S
H614 C595 0.931 . S
H615 C597 0.930 . S
H616 C599 0.930 . S
H617 C600 0.931 . S
N618 C580 1.343 . S
N618 C601 1.343 . S
N619 C587 1.343 . S
N619 C594 1.343 . S
C620 C621 1.384 . S
C620 C622 1.384 . S
C620 H648 0.931 . S
C621 C620 1.384 . S
C621 C624 1.382 . S
C622 C620 1.384 . S
C622 C623 1.381 . S
C622 H649 0.930 . S
C623 C622 1.381 . S
C623 C625 1.381 . S
C623 C626 1.487 . S
C624 C621 1.382 . S
C624 C625 1.387 . S
C624 H650 0.930 . S
C625 C623 1.381 . S
C625 C624 1.387 . S
C625 H651 0.931 . S
C626 C623 1.487 . S
C626 C633 1.399 . S
C626 N664 1.343 . S
C627 C628 1.384 . S
C627 C629 1.384 . S
C627 H652 0.931 . S
C628 C627 1.384 . S
C628 C631 1.382 . S
C629 C627 1.384 . S
C629 C630 1.381 . S
C629 H653 0.930 . S
C630 C629 1.381 . S
C630 C632 1.381 . S
C630 C633 1.487 . S
C631 C628 1.382 . S
C631 C632 1.387 . S
C631 H654 0.930 . S
C632 C630 1.381 . S
C632 C631 1.387 . S
C632 H655 0.931 . S
C633 C626 1.399 . S
C633 C630 1.487 . S
C633 N665 1.343 . S
C634 C635 1.384 . S
C634 C636 1.384 . S
C634 H656 0.931 . S
C635 C634 1.384 . S
C635 C638 1.382 . S
C636 C634 1.384 . S
C636 C637 1.381 . S
C636 H657 0.930 . S
C637 C636 1.381 . S
C637 C639 1.381 . S
C637 C640 1.487 . S
C638 C635 1.382 . S
C638 C639 1.387 . S
C638 H658 0.930 . S
C639 C637 1.381 . S
C639 C638 1.387 . S
C639 H659 0.931 . S
C640 C637 1.487 . S
C640 C647 1.399 . S
C640 N665 1.343 . S
C641 C642 1.384 . S
C641 C643 1.384 . S
C641 H660 0.931 . S
C642 C641 1.384 . S
C642 C645 1.382 . S
C643 C641 1.384 . S
C643 C644 1.381 . S
C643 H661 0.930 . S
C644 C643 1.381 . S
C644 C646 1.381 . S
C644 C647 1.487 . S
C645 C642 1.382 . S
C645 C646 1.387 . S
C645 H662 0.930 . S
C646 C644 1.381 . S
C646 C645 1.387 . S
C646 H663 0.931 . S
C647 C640 1.399 . S
C647 C644 1.487 . S
C647 N664 1.343 . S
H648 C620 0.931 . S
H649 C622 0.930 . S
H650 C624 0.930 . S
H651 C625 0.931 . S
H652 C627 0.931 . S
H653 C629 0.930 . S
H654 C631 0.930 . S
H655 C632 0.931 . S
H656 C634 0.931 . S
H657 C636 0.930 . S
H658 C638 0.930 . S
H659 C639 0.931 . S
H660 C641 0.931 . S
H661 C643 0.930 . S
H662 C645 0.930 . S
H663 C646 0.931 . S
N664 C626 1.343 . S
N664 C647 1.343 . S
N665 C633 1.343 . S
N665 C640 1.343 . S
C666 C667 1.384 . S
C666 C668 1.384 . S
C666 H694 0.931 . S
C667 C666 1.384 . S
C667 C670 1.382 1_655 S
C668 C666 1.384 . S
C668 C669 1.398 . S
C668 H695 0.930 . S
C669 C668 1.398 . S
C669 C671 1.373 1_655 S
C669 C672 1.475 1_655 S
C670 C667 1.382 1_455 S
C670 C671 1.387 . S
C670 H696 0.930 . S
C671 C669 1.373 1_455 S
C671 C670 1.387 . S
C671 H697 0.931 . S
C672 C669 1.475 1_455 S
C672 C679 1.399 1_455 S
C672 N710 1.315 . S
C673 C674 1.384 . S
C673 C675 1.384 . S
C673 H698 0.931 . S
C674 C673 1.384 . S
C674 C677 1.382 1_455 S
C675 C673 1.384 . S
C675 C676 1.381 . S
C675 H699 0.930 . S
C676 C675 1.381 . S
C676 C678 1.381 1_455 S
C676 C679 1.490 1_455 S
C677 C674 1.382 1_655 S
C677 C678 1.387 . S
C677 H700 0.930 . S
C678 C676 1.381 1_655 S
C678 C677 1.387 . S
C678 H701 0.931 . S
C679 C672 1.399 1_655 S
C679 C676 1.490 1_655 S
C679 N711 1.362 . S
C680 C681 1.384 . S
C680 C682 1.384 . S
C680 H702 0.931 . S
C681 C680 1.384 . S
C681 C684 1.382 1_455 S
C682 C680 1.384 . S
C682 C683 1.418 . S
C682 H703 0.930 . S
C683 C682 1.418 . S
C683 C685 1.363 1_455 S
C683 C686 1.466 . S
C684 C681 1.382 1_655 S
C684 C685 1.387 . S
C684 H704 0.930 . S
C685 C683 1.363 1_655 S
C685 C684 1.387 . S
C685 H705 0.931 . S
C686 C683 1.466 . S
C686 C693 1.399 . S
C686 N711 1.324 1_455 S
C687 C688 1.384 . S
C687 C689 1.384 . S
C687 H706 0.931 . S
C688 C687 1.384 . S
C688 C691 1.382 1_655 S
C689 C687 1.384 . S
C689 C690 1.381 1_655 S
C689 H707 0.930 . S
C690 C689 1.381 1_455 S
C690 C692 1.381 . S
C690 C693 1.499 . S
C691 C688 1.382 1_455 S
C691 C692 1.387 . S
C691 H708 0.930 . S
C692 C690 1.381 . S
C692 C691 1.387 . S
C692 H709 0.931 . S
C693 C686 1.399 . S
C693 C690 1.499 . S
C693 N710 1.362 . S
H694 C666 0.931 . S
H695 C668 0.930 . S
H696 C670 0.930 . S
H697 C671 0.931 . S
H698 C673 0.931 . S
H699 C675 0.930 . S
H700 C677 0.930 . S
H701 C678 0.931 . S
H702 C680 0.931 . S
H703 C682 0.930 . S
H704 C684 0.930 . S
H705 C685 0.931 . S
H706 C687 0.931 . S
H707 C689 0.930 . S
H708 C691 0.930 . S
H709 C692 0.931 . S
N710 C672 1.315 . S
N710 C693 1.362 . S
N711 C679 1.362 . S
N711 C686 1.324 1_655 S
C712 C713 1.384 . S
C712 C714 1.384 . S
C712 H740 0.931 . S
C713 C712 1.384 . S
C713 C716 1.382 . S
C714 C712 1.384 . S
C714 C715 1.381 . S
C714 H741 0.930 . S
C715 C714 1.381 . S
C715 C717 1.381 . S
C715 C718 1.487 . S
C716 C713 1.382 . S
C716 C717 1.387 . S
C716 H742 0.930 . S
C717 C715 1.381 . S
C717 C716 1.387 . S
C717 H743 0.931 . S
C718 C715 1.487 . S
C718 C725 1.399 . S
C718 N756 1.343 . S
C719 C720 1.384 . S
C719 C721 1.384 . S
C719 H744 0.931 . S
C720 C719 1.384 . S
C720 C723 1.382 . S
C721 C719 1.384 . S
C721 C722 1.381 . S
C721 H745 0.930 . S
C722 C721 1.381 . S
C722 C724 1.381 . S
C722 C725 1.487 . S
C723 C720 1.382 . S
C723 C724 1.387 . S
C723 H746 0.930 . S
C724 C722 1.381 . S
C724 C723 1.387 . S
C724 H747 0.931 . S
C725 C718 1.399 . S
C725 C722 1.487 . S
C725 N757 1.343 . S
C726 C727 1.384 . S
C726 C728 1.384 . S
C726 H748 0.931 . S
C727 C726 1.384 . S
C727 C730 1.382 . S
C728 C726 1.384 . S
C728 C729 1.381 . S
C728 H749 0.930 . S
C729 C728 1.381 . S
C729 C731 1.381 . S
C729 C732 1.487 . S
C730 C727 1.382 . S
C730 C731 1.387 . S
C730 H750 0.930 . S
C731 C729 1.381 . S
C731 C730 1.387 . S
C731 H751 0.931 . S
C732 C729 1.487 . S
C732 C739 1.399 . S
C732 N757 1.343 . S
C733 C734 1.384 . S
C733 C735 1.384 . S
C733 H752 0.931 . S
C734 C733 1.384 . S
C734 C737 1.382 . S
C735 C733 1.384 . S
C735 C736 1.381 . S
C735 H753 0.930 . S
C736 C735 1.381 . S
C736 C738 1.381 . S
C736 C739 1.487 . S
C737 C734 1.382 . S
C737 C738 1.387 . S
C737 H754 0.930 . S
C738 C736 1.381 . S
C738 C737 1.387 . S
C738 H755 0.931 . S
C739 C732 1.399 . S
C739 C736 1.487 . S
C739 N756 1.343 . S
H740 C712 0.931 . S
H741 C714 0.930 . S
H742 C716 0.930 . S
H743 C717 0.931 . S
H744 C719 0.931 . S
H745 C721 0.930 . S
H746 C723 0.930 . S
H747 C724 0.931 . S
H748 C726 0.931 . S
H749 C728 0.930 . S
H750 C730 0.930 . S
H751 C731 0.931 . S
H752 C733 0.931 . S
H753 C735 0.930 . S
H754 C737 0.930 . S
H755 C738 0.931 . S
N756 C718 1.343 . S
N756 C739 1.343 . S
N757 C725 1.343 . S
N757 C732 1.343 . S
C758 C759 1.384 1_545 S
C758 C760 1.384 . S
C758 H786 0.931 . S
C759 C758 1.384 1_565 S
C759 C762 1.382 . S
C760 C758 1.384 . S
C760 C761 1.381 1_545 S
C760 H787 0.930 . S
C761 C760 1.381 1_565 S
C761 C763 1.381 . S
C761 C764 1.487 . S
C762 C759 1.382 . S
C762 C763 1.387 . S
C762 H788 0.930 . S
C763 C761 1.381 . S
C763 C762 1.387 . S
C763 H789 0.931 . S
C764 C761 1.487 . S
C764 C771 1.399 1_565 S
C764 N802 1.343 . S
C765 C766 1.384 1_565 S
C765 C767 1.384 . S
C765 H790 0.931 . S
C766 C765 1.384 1_545 S
C766 C769 1.382 . S
C767 C765 1.384 . S
C767 C768 1.381 1_565 S
C767 H791 0.930 . S
C768 C767 1.381 1_545 S
C768 C770 1.381 . S
C768 C771 1.487 . S
C769 C766 1.382 . S
C769 C770 1.387 . S
C769 H792 0.930 . S
C770 C768 1.381 . S
C770 C769 1.387 . S
C770 H793 0.931 . S
C771 C764 1.399 1_545 S
C771 C768 1.487 . S
C771 N803 1.343 . S
C772 C773 1.384 1_565 S
C772 C774 1.384 . S
C772 H794 0.931 . S
C773 C772 1.384 1_545 S
C773 C776 1.382 . S
C774 C772 1.384 . S
C774 C775 1.381 1_565 S
C774 H795 0.930 . S
C775 C774 1.381 1_545 S
C775 C777 1.381 . S
C775 C778 1.457 . S
C776 C773 1.382 . S
C776 C777 1.387 . S
C776 H796 0.930 . S
C777 C775 1.381 . S
C777 C776 1.387 . S
C777 H797 0.931 . S
C778 C775 1.457 . S
C778 C785 1.390 1_545 S
C778 N803 1.390 . S
C779 C780 1.384 1_545 S
C779 C781 1.384 . S
C779 H798 0.931 . S
C780 C779 1.384 1_565 S
C780 C783 1.382 . S
C781 C779 1.384 . S
C781 C782 1.381 1_545 S
C781 H799 0.930 . S
C782 C781 1.381 1_565 S
C782 C784 1.381 . S
C782 C785 1.487 . S
C783 C780 1.382 . S
C783 C784 1.387 . S
C783 H800 0.930 . S
C784 C782 1.381 . S
C784 C783 1.387 . S
C784 H801 0.931 . S
C785 C778 1.390 1_565 S
C785 C782 1.487 . S
C785 N802 1.343 . S
H786 C758 0.931 . S
H787 C760 0.930 . S
H788 C762 0.930 . S
H789 C763 0.931 . S
H790 C765 0.931 . S
H791 C767 0.930 . S
H792 C769 0.930 . S
H793 C770 0.931 . S
H794 C772 0.931 . S
H795 C774 0.930 . S
H796 C776 0.930 . S
H797 C777 0.931 . S
H798 C779 0.931 . S
H799 C781 0.930 . S
H800 C783 0.930 . S
H801 C784 0.931 . S
N802 C764 1.343 . S
N802 C785 1.343 . S
N803 C771 1.343 . S
N803 C778 1.390 . S
C804 C805 1.384 . S
C804 C806 1.384 . S
C804 H832 0.931 . S
C805 C804 1.384 . S
C805 C808 1.382 1_545 S
C806 C804 1.384 . S
C806 C807 1.380 . S
C806 H833 0.930 . S
C807 C806 1.380 . S
C807 C809 1.385 1_545 S
C807 C810 1.488 1_545 S
C808 C805 1.382 1_565 S
C808 C809 1.387 . S
C808 H834 0.930 . S
C809 C807 1.385 1_565 S
C809 C808 1.387 . S
C809 H835 0.931 . S
C810 C807 1.488 1_565 S
C810 C817 1.399 1_565 S
C810 N848 1.363 . S
C811 C812 1.384 . S
C811 C813 1.384 . S
C811 H836 0.931 . S
C812 C811 1.384 . S
C812 C815 1.382 1_565 S
C813 C811 1.384 . S
C813 C814 1.391 . S
C813 H837 0.930 . S
C814 C813 1.391 . S
C814 C816 1.376 1_565 S
C814 C817 1.477 1_565 S
C815 C812 1.382 1_545 S
C815 C816 1.387 . S
C815 H838 0.930 . S
C816 C814 1.376 1_545 S
C816 C815 1.387 . S
C816 H839 0.931 . S
C817 C810 1.399 1_545 S
C817 C814 1.477 1_545 S
C817 N849 1.313 . S
C818 C819 1.384 . S
C818 C820 1.384 . S
C818 H840 0.931 . S
C819 C818 1.384 . S
C819 C822 1.382 1_565 S
C820 C818 1.384 . S
C820 C821 1.380 1_565 S
C820 H841 0.930 . S
C821 C820 1.380 1_545 S
C821 C823 1.385 . S
C821 C824 1.497 . S
C822 C819 1.382 1_545 S
C822 C823 1.387 . S
C822 H842 0.930 . S
C823 C821 1.385 . S
C823 C822 1.387 . S
C823 H843 0.931 . S
C824 C821 1.497 . S
C824 C831 1.399 1_545 S
C824 N849 1.363 . S
C825 C826 1.384 . S
C825 C827 1.384 . S
C825 H844 0.931 . S
C826 C825 1.384 . S
C826 C829 1.382 1_545 S
C827 C825 1.384 . S
C827 C828 1.412 . S
C827 H845 0.930 . S
C828 C827 1.412 . S
C828 C830 1.366 1_545 S
C828 C831 1.477 1_545 S
C829 C826 1.382 1_565 S
C829 C830 1.387 . S
C829 H846 0.930 . S
C830 C828 1.366 1_565 S
C830 C829 1.387 . S
C830 H847 0.931 . S
C831 C824 1.399 1_565 S
C831 C828 1.477 1_565 S
C831 N848 1.313 . S
H832 C804 0.931 . S
H833 C806 0.930 . S
H834 C808 0.930 . S
H835 C809 0.931 . S
H836 C811 0.931 . S
H837 C813 0.930 . S
H838 C815 0.930 . S
H839 C816 0.931 . S
H840 C818 0.931 . S
H841 C820 0.930 . S
H842 C822 0.930 . S
H843 C823 0.931 . S
H844 C825 0.931 . S
H845 C827 0.930 . S
H846 C829 0.930 . S
H847 C830 0.931 . S
N848 C810 1.363 . S
N848 C831 1.313 . S
N849 C817 1.313 . S
N849 C824 1.363 . S
C850 C851 1.384 . S
C850 C852 1.384 . S
C850 H878 0.931 . S
C851 C850 1.384 . S
C851 C854 1.382 1_655 S
C852 C850 1.384 . S
C852 C853 1.415 . S
C852 H879 0.930 . S
C853 C852 1.415 . S
C853 C855 1.364 1_655 S
C853 C856 1.467 . S
C854 C851 1.382 1_455 S
C854 C855 1.387 . S
C854 H880 0.930 . S
C855 C853 1.364 1_455 S
C855 C854 1.387 . S
C855 H881 0.931 . S
C856 C853 1.467 . S
C856 C863 1.399 . S
C856 N894 1.325 1_655 S
C857 C858 1.384 . S
C857 C859 1.384 . S
C857 H882 0.931 . S
C858 C857 1.384 . S
C858 C861 1.382 1_455 S
C859 C857 1.384 . S
C859 C860 1.382 1_455 S
C859 H883 0.930 . S
C860 C859 1.382 1_655 S
C860 C862 1.381 . S
C860 C863 1.499 . S
C861 C858 1.382 1_655 S
C861 C862 1.387 . S
C861 H884 0.930 . S
C862 C860 1.381 . S
C862 C861 1.387 . S
C862 H885 0.931 . S
C863 C856 1.399 . S
C863 C860 1.499 . S
C863 N895 1.362 . S
C864 C865 1.384 . S
C864 C866 1.384 . S
C864 H886 0.931 . S
C865 C864 1.384 . S
C865 C868 1.382 1_455 S
C866 C864 1.384 . S
C866 C867 1.395 . S
C866 H887 0.930 . S
C867 C866 1.395 . S
C867 C869 1.374 1_455 S
C867 C870 1.476 1_455 S
C868 C865 1.382 1_655 S
C868 C869 1.387 . S
C868 H888 0.930 . S
C869 C867 1.374 1_655 S
C869 C868 1.387 . S
C869 H889 0.931 . S
C870 C867 1.476 1_655 S
C870 C877 1.399 1_655 S
C870 N895 1.315 . S
C871 C872 1.384 . S
C871 C873 1.384 . S
C871 H890 0.931 . S
C872 C871 1.384 . S
C872 C875 1.382 1_655 S
C873 C871 1.384 . S
C873 C874 1.382 . S
C873 H891 0.930 . S
C874 C873 1.382 . S
C874 C876 1.381 1_655 S
C874 C877 1.490 1_655 S
C875 C872 1.382 1_455 S
C875 C876 1.387 . S
C875 H892 0.930 . S
C876 C874 1.381 1_455 S
C876 C875 1.387 . S
C876 H893 0.931 . S
C877 C870 1.399 1_455 S
C877 C874 1.490 1_455 S
C877 N894 1.362 . S
H878 C850 0.931 . S
H879 C852 0.930 . S
H880 C854 0.930 . S
H881 C855 0.931 . S
H882 C857 0.931 . S
H883 C859 0.930 . S
H884 C861 0.930 . S
H885 C862 0.931 . S
H886 C864 0.931 . S
H887 C866 0.930 . S
H888 C868 0.930 . S
H889 C869 0.931 . S
H890 C871 0.931 . S
H891 C873 0.930 . S
H892 C875 0.930 . S
H893 C876 0.931 . S
N894 C856 1.325 1_455 S
N894 C877 1.362 . S
N895 C863 1.362 . S
N895 C870 1.315 . S
C896 C897 1.384 . S
C896 C898 1.384 . S
C896 H924 0.931 . S
C897 C896 1.384 . S
C897 C900 1.382 . S
C898 C896 1.384 . S
C898 C899 1.381 . S
C898 H925 0.930 . S
C899 C898 1.381 . S
C899 C901 1.381 . S
C899 C902 1.487 . S
C900 C897 1.382 . S
C900 C901 1.387 . S
C900 H926 0.930 . S
C901 C899 1.381 . S
C901 C900 1.387 . S
C901 H927 0.931 . S
C902 C899 1.487 . S
C902 C909 1.399 . S
C902 N940 1.343 . S
C903 C904 1.384 . S
C903 C905 1.384 . S
C903 H928 0.931 . S
C904 C903 1.384 . S
C904 C907 1.382 . S
C905 C903 1.384 . S
C905 C906 1.381 . S
C905 H929 0.930 . S
C906 C905 1.381 . S
C906 C908 1.381 . S
C906 C909 1.487 . S
C907 C904 1.382 . S
C907 C908 1.387 . S
C907 H930 0.930 . S
C908 C906 1.381 . S
C908 C907 1.387 . S
C908 H931 0.931 . S
C909 C902 1.399 . S
C909 C906 1.487 . S
C909 N941 1.343 . S
C910 C911 1.384 . S
C910 C912 1.384 . S
C910 H932 0.931 . S
C911 C910 1.384 . S
C911 C914 1.382 . S
C912 C910 1.384 . S
C912 C913 1.381 . S
C912 H933 0.930 . S
C913 C912 1.381 . S
C913 C915 1.381 . S
C913 C916 1.487 . S
C914 C911 1.382 . S
C914 C915 1.387 . S
C914 H934 0.930 . S
C915 C913 1.381 . S
C915 C914 1.387 . S
C915 H935 0.931 . S
C916 C913 1.487 . S
C916 C923 1.399 . S
C916 N941 1.343 . S
C917 C918 1.384 . S
C917 C919 1.384 . S
C917 H936 0.931 . S
C918 C917 1.384 . S
C918 C921 1.382 . S
C919 C917 1.384 . S
C919 C920 1.381 . S
C919 H937 0.930 . S
C920 C919 1.381 . S
C920 C922 1.381 . S
C920 C923 1.487 . S
C921 C918 1.382 . S
C921 C922 1.387 . S
C921 H938 0.930 . S
C922 C920 1.381 . S
C922 C921 1.387 . S
C922 H939 0.931 . S
C923 C916 1.399 . S
C923 C920 1.487 . S
C923 N940 1.343 . S
H924 C896 0.931 . S
H925 C898 0.930 . S
H926 C900 0.930 . S
H927 C901 0.931 . S
H928 C903 0.931 . S
H929 C905 0.930 . S
H930 C907 0.930 . S
H931 C908 0.931 . S
H932 C910 0.931 . S
H933 C912 0.930 . S
H934 C914 0.930 . S
H935 C915 0.931 . S
H936 C917 0.931 . S
H937 C919 0.930 . S
H938 C921 0.930 . S
H939 C922 0.931 . S
N940 C902 1.343 . S
N940 C923 1.343 . S
N941 C909 1.343 . S
N941 C916 1.343 . S
C942 C943 1.384 . S
C942 C944 1.384 . S
C942 H970 0.931 . S
C943 C942 1.384 . S
C943 C946 1.382 . S
C944 C942 1.384 . S
C944 C945 1.381 . S
C944 H971 0.930 . S
C945 C944 1.381 . S
C945 C947 1.381 . S
C945 C948 1.487 . S
C946 C943 1.382 . S
C946 C947 1.387 . S
C946 H972 0.930 . S
C947 C945 1.381 . S
C947 C946 1.387 . S
C947 H973 0.931 . S
C948 C945 1.487 . S
C948 C955 1.399 . S
C948 N986 1.343 . S
C949 C950 1.384 . S
C949 C951 1.384 . S
C949 H974 0.931 . S
C950 C949 1.384 . S
C950 C953 1.382 . S
C951 C949 1.384 . S
C951 C952 1.381 . S
C951 H975 0.930 . S
C952 C951 1.381 . S
C952 C954 1.381 . S
C952 C955 1.487 . S
C953 C950 1.382 . S
C953 C954 1.387 . S
C953 H976 0.930 . S
C954 C952 1.381 . S
C954 C953 1.387 . S
C954 H977 0.931 . S
C955 C948 1.399 . S
C955 C952 1.487 . S
C955 N987 1.343 . S
C956 C957 1.384 . S
C956 C958 1.384 . S
C956 H978 0.931 . S
C957 C956 1.384 . S
C957 C960 1.382 . S
C958 C956 1.384 . S
C958 C959 1.381 . S
C958 H979 0.930 . S
C959 C958 1.381 . S
C959 C961 1.381 . S
C959 C962 1.487 . S
C960 C957 1.382 . S
C960 C961 1.387 . S
C960 H980 0.930 . S
C961 C959 1.381 . S
C961 C960 1.387 . S
C961 H981 0.931 . S
C962 C959 1.487 . S
C962 C969 1.399 . S
C962 N987 1.343 . S
C963 C964 1.384 . S
C963 C965 1.384 . S
C963 H982 0.931 . S
C964 C963 1.384 . S
C964 C967 1.382 . S
C965 C963 1.384 . S
C965 C966 1.381 . S
C965 H983 0.930 . S
C966 C965 1.381 . S
C966 C968 1.381 . S
C966 C969 1.487 . S
C967 C964 1.382 . S
C967 C968 1.387 . S
C967 H984 0.930 . S
C968 C966 1.381 . S
C968 C967 1.387 . S
C968 H985 0.931 . S
C969 C962 1.399 . S
C969 C966 1.487 . S
C969 N986 1.343 . S
H970 C942 0.931 . S
H971 C944 0.930 . S
H972 C946 0.930 . S
H973 C947 0.931 . S
H974 C949 0.931 . S
H975 C951 0.930 . S
H976 C953 0.930 . S
H977 C954 0.931 . S
H978 C956 0.931 . S
H979 C958 0.930 . S
H980 C960 0.930 . S
H981 C961 0.931 . S
H982 C963 0.931 . S
H983 C965 0.930 . S
H984 C967 0.930 . S
H985 C968 0.931 . S
N986 C948 1.343 . S
N986 C969 1.343 . S
N987 C955 1.343 . S
N987 C962 1.343 . S
C988 C989 1.384 . S
C988 C990 1.384 . S
C988 H1016 0.931 . S
C989 C988 1.384 . S
C989 C992 1.382 . S
C990 C988 1.384 . S
C990 C991 1.381 . S
C990 H1017 0.930 . S
C991 C990 1.381 . S
C991 C993 1.381 . S
C991 C994 1.487 . S
C992 C989 1.382 . S
C992 C993 1.387 . S
C992 H1018 0.930 . S
C993 C991 1.381 . S
C993 C992 1.387 . S
C993 H1019 0.931 . S
C994 C991 1.487 . S
C994 C1001 1.399 . S
C994 N1032 1.343 . S
C995 C996 1.384 . S
C995 C997 1.384 . S
C995 H1020 0.931 . S
C996 C995 1.384 . S
C996 C999 1.382 . S
C997 C995 1.384 . S
C997 C998 1.381 . S
C997 H1021 0.930 . S
C998 C997 1.381 . S
C998 C1000 1.381 . S
C998 C1001 1.487 . S
C999 C996 1.382 . S
C999 C1000 1.387 . S
C999 H1022 0.930 . S
C1000 C998 1.381 . S
C1000 C999 1.387 . S
C1000 H1023 0.931 . S
C1001 C994 1.399 . S
C1001 C998 1.487 . S
C1001 N1033 1.343 . S
C1002 C1003 1.384 . S
C1002 C1004 1.384 . S
C1002 H1024 0.931 . S
C1003 C1002 1.384 . S
C1003 C1006 1.382 . S
C1004 C1002 1.384 . S
C1004 C1005 1.381 . S
C1004 H1025 0.930 . S
C1005 C1004 1.381 . S
C1005 C1007 1.381 . S
C1005 C1008 1.487 . S
C1006 C1003 1.382 . S
C1006 C1007 1.387 . S
C1006 H1026 0.930 . S
C1007 C1005 1.381 . S
C1007 C1006 1.387 . S
C1007 H1027 0.931 . S
C1008 C1005 1.487 . S
C1008 C1015 1.399 . S
C1008 N1033 1.343 . S
C1009 C1010 1.384 . S
C1009 C1011 1.384 . S
C1009 H1028 0.931 . S
C1010 C1009 1.384 . S
C1010 C1013 1.382 . S
C1011 C1009 1.384 . S
C1011 C1012 1.381 . S
C1011 H1029 0.930 . S
C1012 C1011 1.381 . S
C1012 C1014 1.381 . S
C1012 C1015 1.487 . S
C1013 C1010 1.382 . S
C1013 C1014 1.387 . S
C1013 H1030 0.930 . S
C1014 C1012 1.381 . S
C1014 C1013 1.387 . S
C1014 H1031 0.931 . S
C1015 C1008 1.399 . S
C1015 C1012 1.487 . S
C1015 N1032 1.343 . S
H1016 C988 0.931 . S
H1017 C990 0.930 . S
H1018 C992 0.930 . S
H1019 C993 0.931 . S
H1020 C995 0.931 . S
H1021 C997 0.930 . S
H1022 C999 0.930 . S
H1023 C1000 0.931 . S
H1024 C1002 0.931 . S
H1025 C1004 0.930 . S
H1026 C1006 0.930 . S
H1027 C1007 0.931 . S
H1028 C1009 0.931 . S
H1029 C1011 0.930 . S
H1030 C1013 0.930 . S
H1031 C1014 0.931 . S
N1032 C994 1.343 . S
N1032 C1015 1.343 . S
N1033 C1001 1.343 . S
N1033 C1008 1.343 . S
C1034 C1035 1.384 . S
C1034 C1036 1.384 . S
C1034 H1062 0.931 . S
C1035 C1034 1.384 . S
C1035 C1038 1.382 . S
C1036 C1034 1.384 . S
C1036 C1037 1.381 . S
C1036 H1063 0.930 . S
C1037 C1036 1.381 . S
C1037 C1039 1.381 . S
C1037 C1040 1.487 . S
C1038 C1035 1.382 . S
C1038 C1039 1.387 . S
C1038 H1064 0.930 . S
C1039 C1037 1.381 . S
C1039 C1038 1.387 . S
C1039 H1065 0.931 . S
C1040 C1037 1.487 . S
C1040 C1047 1.399 . S
C1040 N1078 1.343 . S
C1041 C1042 1.384 . S
C1041 C1043 1.384 . S
C1041 H1066 0.931 . S
C1042 C1041 1.384 . S
C1042 C1045 1.382 . S
C1043 C1041 1.384 . S
C1043 C1044 1.381 . S
C1043 H1067 0.930 . S
C1044 C1043 1.381 . S
C1044 C1046 1.381 . S
C1044 C1047 1.487 . S
C1045 C1042 1.382 . S
C1045 C1046 1.387 . S
C1045 H1068 0.930 . S
C1046 C1044 1.381 . S
C1046 C1045 1.387 . S
C1046 H1069 0.931 . S
C1047 C1040 1.399 . S
C1047 C1044 1.487 . S
C1047 N1079 1.343 . S
C1048 C1049 1.384 . S
C1048 C1050 1.384 . S
C1048 H1070 0.931 . S
C1049 C1048 1.384 . S
C1049 C1052 1.382 . S
C1050 C1048 1.384 . S
C1050 C1051 1.381 . S
C1050 H1071 0.930 . S
C1051 C1050 1.381 . S
C1051 C1053 1.381 . S
C1051 C1054 1.487 . S
C1052 C1049 1.382 . S
C1052 C1053 1.387 . S
C1052 H1072 0.930 . S
C1053 C1051 1.381 . S
C1053 C1052 1.387 . S
C1053 H1073 0.931 . S
C1054 C1051 1.487 . S
C1054 C1061 1.399 . S
C1054 N1079 1.343 . S
C1055 C1056 1.384 . S
C1055 C1057 1.384 . S
C1055 H1074 0.931 . S
C1056 C1055 1.384 . S
C1056 C1059 1.382 . S
C1057 C1055 1.384 . S
C1057 C1058 1.381 . S
C1057 H1075 0.930 . S
C1058 C1057 1.381 . S
C1058 C1060 1.381 . S
C1058 C1061 1.487 . S
C1059 C1056 1.382 . S
C1059 C1060 1.387 . S
C1059 H1076 0.930 . S
C1060 C1058 1.381 . S
C1060 C1059 1.387 . S
C1060 H1077 0.931 . S
C1061 C1054 1.399 . S
C1061 C1058 1.487 . S
C1061 N1078 1.343 . S
H1062 C1034 0.931 . S
H1063 C1036 0.930 . S
H1064 C1038 0.930 . S
H1065 C1039 0.931 . S
H1066 C1041 0.931 . S
H1067 C1043 0.930 . S
H1068 C1045 0.930 . S
H1069 C1046 0.931 . S
H1070 C1048 0.931 . S
H1071 C1050 0.930 . S
H1072 C1052 0.930 . S
H1073 C1053 0.931 . S
H1074 C1055 0.931 . S
H1075 C1057 0.930 . S
H1076 C1059 0.930 . S
H1077 C1060 0.931 . S
N1078 C1040 1.343 . S
N1078 C1061 1.343 . S
N1079 C1047 1.343 . S
N1079 C1054 1.343 . S
H1080 C1088 0.929 . S
H1081 C1090 0.930 . S
H1082 C1092 0.930 . S
H1083 C1095 0.929 . S
H1084 C1098 0.930 . S
H1085 C1100 0.960 . S
H1086 C1100 0.960 . S
H1087 C1100 0.960 . S
C1088 H1080 0.929 . S
C1088 C1089 1.423 . S
C1088 C1090 1.384 . S
C1089 C1088 1.423 . S
C1089 C1095 1.369 1_655 S
C1090 H1081 0.930 . S
C1090 C1088 1.384 . S
C1090 C1091 1.372 . S
C1091 C1090 1.372 . S
C1091 C1092 1.400 1_655 S
C1091 C1096 1.490 . S
C1092 H1082 0.930 . S
C1092 C1091 1.400 1_455 S
C1092 C1095 1.386 . S
H1093 C1109 0.950 . S
H1094 C1110 0.922 1_455 S
C1095 H1083 0.929 . S
C1095 C1089 1.369 1_455 S
C1095 C1092 1.386 . S
C1096 C1091 1.490 . S
C1096 C1098 1.395 . S
C1096 C1099 1.403 1_655 S
H1097 C1103 0.930 . S
C1098 H1084 0.930 . S
C1098 C1096 1.395 . S
C1098 C1101 1.403 . S
C1099 C1096 1.403 1_455 S
C1099 C1100 1.524 . S
C1099 C1103 1.400 . S
C1100 H1085 0.960 . S
C1100 H1086 0.960 . S
C1100 H1087 0.960 . S
C1100 C1099 1.524 . S
C1101 C1098 1.403 . S
C1101 C1102 1.392 . S
C1101 C1105 1.495 . S
C1102 C1101 1.392 . S
C1102 C1103 1.385 1_655 S
C1102 C1104 1.478 . S
C1103 H1097 0.930 . S
C1103 C1099 1.400 . S
C1103 C1102 1.385 1_455 S
C1104 C1102 1.478 . S
C1104 C1106 1.381 . S
C1104 C1110 1.387 . S
C1105 C1101 1.495 . S
C1105 H1111 0.959 . S
C1105 H1112 0.961 . S
C1105 H1113 0.960 . S
C1106 C1104 1.381 . S
C1106 C1107 1.394 . S
C1106 H1114 0.930 . S
C1107 C1106 1.394 . S
C1107 C1108 1.383 . S
C1107 H1115 0.929 . S
C1108 C1107 1.383 . S
C1108 C1109 1.341 1_655 S
C1109 H1093 0.950 . S
C1109 C1108 1.341 1_455 S
C1109 C1110 1.403 1_455 S
C1110 H1094 0.922 1_655 S
C1110 C1104 1.387 . S
C1110 C1109 1.403 1_655 S
H1111 C1105 0.959 . S
H1112 C1105 0.961 . S
H1113 C1105 0.960 . S
H1114 C1106 0.930 . S
H1115 C1107 0.929 . S
H1116 C1124 0.929 . S
H1117 C1126 0.930 . S
H1118 C1128 0.930 . S
H1119 C1131 0.929 . S
H1120 C1134 0.930 . S
H1121 C1136 0.960 . S
H1122 C1136 0.960 . S
H1123 C1136 0.960 . S
C1124 H1116 0.929 . S
C1124 C1125 1.377 . S
C1124 C1126 1.384 . S
C1125 C1124 1.377 . S
C1125 C1131 1.390 . S
C1126 H1117 0.930 . S
C1126 C1124 1.384 . S
C1126 C1127 1.372 . S
C1127 C1126 1.372 . S
C1127 C1128 1.400 . S
C1127 C1132 1.490 . S
C1128 H1118 0.930 . S
C1128 C1127 1.400 . S
C1128 C1131 1.386 . S
H1129 C1145 0.930 . S
H1130 C1146 0.931 . S
C1131 H1119 0.929 . S
C1131 C1125 1.390 . S
C1131 C1128 1.386 . S
C1132 C1127 1.490 . S
C1132 C1134 1.395 . S
C1132 C1135 1.403 . S
H1133 C1139 0.930 . S
C1134 H1120 0.930 . S
C1134 C1132 1.395 . S
C1134 C1137 1.403 . S
C1135 C1132 1.403 . S
C1135 C1136 1.524 . S
C1135 C1139 1.400 . S
C1136 H1121 0.960 . S
C1136 H1122 0.960 . S
C1136 H1123 0.960 . S
C1136 C1135 1.524 . S
C1137 C1134 1.403 . S
C1137 C1138 1.392 . S
C1137 C1141 1.495 . S
C1138 C1137 1.392 . S
C1138 C1139 1.385 . S
C1138 C1140 1.478 . S
C1139 H1133 0.930 . S
C1139 C1135 1.400 . S
C1139 C1138 1.385 . S
C1140 C1138 1.478 . S
C1140 C1142 1.381 . S
C1140 C1146 1.383 . S
C1141 C1137 1.495 . S
C1141 H1147 0.959 . S
C1141 H1148 0.961 . S
C1141 H1149 0.960 . S
C1142 C1140 1.381 . S
C1142 C1143 1.394 . S
C1142 H1150 0.930 . S
C1143 C1142 1.394 . S
C1143 C1144 1.383 . S
C1143 H1151 0.929 . S
C1144 C1143 1.383 . S
C1144 C1145 1.377 . S
C1145 H1129 0.930 . S
C1145 C1144 1.377 . S
C1145 C1146 1.379 . S
C1146 H1130 0.931 . S
C1146 C1140 1.383 . S
C1146 C1145 1.379 . S
H1147 C1141 0.959 . S
H1148 C1141 0.961 . S
H1149 C1141 0.960 . S
H1150 C1142 0.930 . S
H1151 C1143 0.929 . S
H1152 C1160 0.929 . S
H1153 C1162 0.930 . S
H1154 C1164 0.930 . S
H1155 C1167 0.929 . S
H1156 C1170 0.930 . S
H1157 C1172 0.981 . S
H1158 C1172 1.009 . S
H1159 C1172 0.875 1_545 S
C1160 H1152 0.929 . S
C1160 C1161 1.377 1_565 S
C1160 C1162 1.384 . S
C1161 C1160 1.377 1_545 S
C1161 C1167 1.390 . S
C1162 H1153 0.930 . S
C1162 C1160 1.384 . S
C1162 C1163 1.372 1_565 S
C1163 C1162 1.372 1_545 S
C1163 C1164 1.400 . S
C1163 C1168 1.490 . S
C1164 H1154 0.930 . S
C1164 C1163 1.400 . S
C1164 C1167 1.386 . S
H1165 C1181 0.930 . S
H1166 C1182 0.931 . S
C1167 H1155 0.929 . S
C1167 C1161 1.390 . S
C1167 C1164 1.386 . S
C1168 C1163 1.490 . S
C1168 C1170 1.395 . S
C1168 C1171 1.403 . S
H1169 C1175 0.944 . S
C1170 H1156 0.930 . S
C1170 C1168 1.395 . S
C1170 C1173 1.403 . S
C1171 C1168 1.403 . S
C1171 C1172 1.548 1_545 S
C1171 C1175 1.400 . S
C1172 H1157 0.981 . S
C1172 H1158 1.009 . S
C1172 H1159 0.875 1_565 S
C1172 C1171 1.548 1_565 S
C1173 C1170 1.403 . S
C1173 C1174 1.392 . S
C1173 C1177 1.495 . S
C1174 C1173 1.392 . S
C1174 C1175 1.385 . S
C1174 C1176 1.478 . S
C1175 H1169 0.944 . S
C1175 C1171 1.400 . S
C1175 C1174 1.385 . S
C1176 C1174 1.478 . S
C1176 C1178 1.381 1_545 S
C1176 C1182 1.383 . S
C1177 C1173 1.495 . S
C1177 H1183 0.959 . S
C1177 H1184 0.961 . S
C1177 H1185 0.960 . S
C1178 C1176 1.381 1_565 S
C1178 C1179 1.394 . S
C1178 H1186 0.930 . S
C1179 C1178 1.394 . S
C1179 C1180 1.383 1_565 S
C1179 H1187 0.929 . S
C1180 C1179 1.383 1_545 S
C1180 C1181 1.377 . S
C1181 H1165 0.930 . S
C1181 C1180 1.377 . S
C1181 C1182 1.379 . S
C1182 H1166 0.931 . S
C1182 C1176 1.383 . S
C1182 C1181 1.379 . S
H1183 C1177 0.959 . S
H1184 C1177 0.961 . S
H1185 C1177 0.960 . S
H1186 C1178 0.930 . S
H1187 C1179 0.929 . S
H1188 C1196 0.929 . S
H1189 C1198 0.930 . S
H1190 C1200 0.930 . S
H1191 C1203 0.929 . S
H1192 C1206 0.930 . S
H1193 C1208 0.960 . S
H1194 C1208 0.960 . S
H1195 C1208 0.960 1_565 S
C1196 H1188 0.929 . S
C1196 C1197 1.383 . S
C1196 C1198 1.384 . S
C1197 C1196 1.383 . S
C1197 C1203 1.376 1_545 S
C1198 H1189 0.930 . S
C1198 C1196 1.384 . S
C1198 C1199 1.390 . S
C1199 C1198 1.390 . S
C1199 C1200 1.393 1_545 S
C1199 C1204 1.477 . S
C1200 H1190 0.930 . S
C1200 C1199 1.393 1_565 S
C1200 C1203 1.386 . S
H1201 C1217 0.930 . S
H1202 C1218 0.931 . S
C1203 H1191 0.929 . S
C1203 C1197 1.376 1_565 S
C1203 C1200 1.386 . S
C1204 C1199 1.477 . S
C1204 C1206 1.397 1_545 S
C1204 C1207 1.402 . S
H1205 C1211 0.937 . S
C1206 H1192 0.930 . S
C1206 C1204 1.397 1_565 S
C1206 C1209 1.403 . S
C1207 C1204 1.402 . S
C1207 C1208 1.524 . S
C1207 C1211 1.421 . S
C1208 H1193 0.960 . S
C1208 H1194 0.960 . S
C1208 H1195 0.960 1_545 S
C1208 C1207 1.524 . S
C1209 C1206 1.403 . S
C1209 C1210 1.407 . S
C1209 C1213 1.495 . S
C1210 C1209 1.407 . S
C1210 C1211 1.313 1_565 S
C1210 C1212 1.517 . S
C1211 H1205 0.937 . S
C1211 C1207 1.421 . S
C1211 C1210 1.313 1_545 S
C1212 C1210 1.517 . S
C1212 C1214 1.381 1_565 S
C1212 C1218 1.383 . S
C1213 C1209 1.495 . S
C1213 H1219 0.959 . S
C1213 H1220 0.961 . S
C1213 H1221 0.960 1_565 S
C1214 C1212 1.381 1_545 S
C1214 C1215 1.394 . S
C1214 H1222 0.930 . S
C1215 C1214 1.394 . S
C1215 C1216 1.383 1_545 S
C1215 H1223 0.929 . S
C1216 C1215 1.383 1_565 S
C1216 C1217 1.377 . S
C1217 H1201 0.930 . S
C1217 C1216 1.377 . S
C1217 C1218 1.379 . S
C1218 H1202 0.931 . S
C1218 C1212 1.383 . S
C1218 C1217 1.379 . S
H1219 C1213 0.959 . S
H1220 C1213 0.961 . S
H1221 C1213 0.960 1_545 S
H1222 C1214 0.930 . S
H1223 C1215 0.929 . S
H1224 C1232 0.929 . S
H1225 C1234 0.930 . S
H1226 C1236 0.930 . S
H1227 C1239 0.929 . S
H1228 C1242 0.930 . S
H1229 C1244 0.960 . S
H1230 C1244 0.960 . S
H1231 C1244 0.960 . S
C1232 H1224 0.929 . S
C1232 C1233 1.377 1_655 S
C1232 C1234 1.384 . S
C1233 C1232 1.377 1_455 S
C1233 C1239 1.390 . S
C1234 H1225 0.930 . S
C1234 C1232 1.384 . S
C1234 C1235 1.372 1_655 S
C1235 C1234 1.372 1_455 S
C1235 C1236 1.400 . S
C1235 C1240 1.490 . S
C1236 H1226 0.930 . S
C1236 C1235 1.400 . S
C1236 C1239 1.386 . S
H1237 C1253 0.930 . S
H1238 C1254 0.931 . S
C1239 H1227 0.929 . S
C1239 C1233 1.390 . S
C1239 C1236 1.386 . S
C1240 C1235 1.490 . S
C1240 C1242 1.395 1_455 S
C1240 C1243 1.403 . S
H1241 C1247 0.930 . S
C1242 H1228 0.930 . S
C1242 C1240 1.395 1_655 S
C1242 C1245 1.403 . S
C1243 C1240 1.403 . S
C1243 C1244 1.524 . S
C1243 C1247 1.400 . S
C1244 H1229 0.960 . S
C1244 H1230 0.960 . S
C1244 H1231 0.960 . S
C1244 C1243 1.524 . S
C1245 C1242 1.403 . S
C1245 C1246 1.392 1_655 S
C1245 C1249 1.495 . S
C1246 C1245 1.392 1_455 S
C1246 C1247 1.385 . S
C1246 C1248 1.478 . S
C1247 H1241 0.930 . S
C1247 C1243 1.400 . S
C1247 C1246 1.385 . S
C1248 C1246 1.478 . S
C1248 C1250 1.381 1_455 S
C1248 C1254 1.383 . S
C1249 C1245 1.495 . S
C1249 H1255 0.959 . S
C1249 H1256 0.961 . S
C1249 H1257 0.960 . S
C1250 C1248 1.381 1_655 S
C1250 C1251 1.394 . S
C1250 H1258 0.930 . S
C1251 C1250 1.394 . S
C1251 C1252 1.383 1_655 S
C1251 H1259 0.929 . S
C1252 C1251 1.383 1_455 S
C1252 C1253 1.377 . S
C1253 H1237 0.930 . S
C1253 C1252 1.377 . S
C1253 C1254 1.379 . S
C1254 H1238 0.931 . S
C1254 C1248 1.383 . S
C1254 C1253 1.379 . S
H1255 C1249 0.959 . S
H1256 C1249 0.961 . S
H1257 C1249 0.960 . S
H1258 C1250 0.930 . S
H1259 C1251 0.929 . S
H1260 C1268 0.929 . S
H1261 C1270 0.930 . S
H1262 C1272 0.930 . S
H1263 C1275 0.929 . S
H1264 C1278 0.930 . S
H1265 C1280 0.960 . S
H1266 C1280 0.960 . S
H1267 C1280 0.960 . S
C1268 H1260 0.929 . S
C1268 C1269 1.377 . S
C1268 C1270 1.384 . S
C1269 C1268 1.377 . S
C1269 C1275 1.390 . S
C1270 H1261 0.930 . S
C1270 C1268 1.384 . S
C1270 C1271 1.372 . S
C1271 C1270 1.372 . S
C1271 C1272 1.400 . S
C1271 C1276 1.490 . S
C1272 H1262 0.930 . S
C1272 C1271 1.400 . S
C1272 C1275 1.386 . S
H1273 C1289 0.930 . S
H1274 C1290 0.931 . S
C1275 H1263 0.929 . S
C1275 C1269 1.390 . S
C1275 C1272 1.386 . S
C1276 C1271 1.490 . S
C1276 C1278 1.395 . S
C1276 C1279 1.403 . S
H1277 C1283 0.930 . S
C1278 H1264 0.930 . S
C1278 C1276 1.395 . S
C1278 C1281 1.403 . S
C1279 C1276 1.403 . S
C1279 C1280 1.524 . S
C1279 C1283 1.400 . S
C1280 H1265 0.960 . S
C1280 H1266 0.960 . S
C1280 H1267 0.960 . S
C1280 C1279 1.524 . S
C1281 C1278 1.403 . S
C1281 C1282 1.392 . S
C1281 C1285 1.495 . S
C1282 C1281 1.392 . S
C1282 C1283 1.385 . S
C1282 C1284 1.478 . S
C1283 H1277 0.930 . S
C1283 C1279 1.400 . S
C1283 C1282 1.385 . S
C1284 C1282 1.478 . S
C1284 C1286 1.381 . S
C1284 C1290 1.383 . S
C1285 C1281 1.495 . S
C1285 H1291 0.959 . S
C1285 H1292 0.961 . S
C1285 H1293 0.960 . S
C1286 C1284 1.381 . S
C1286 C1287 1.394 . S
C1286 H1294 0.930 . S
C1287 C1286 1.394 . S
C1287 C1288 1.383 . S
C1287 H1295 0.929 . S
C1288 C1287 1.383 . S
C1288 C1289 1.377 . S
C1289 H1273 0.930 . S
C1289 C1288 1.377 . S
C1289 C1290 1.379 . S
C1290 H1274 0.931 . S
C1290 C1284 1.383 . S
C1290 C1289 1.379 . S
H1291 C1285 0.959 . S
H1292 C1285 0.961 . S
H1293 C1285 0.960 . S
H1294 C1286 0.930 . S
H1295 C1287 0.929 . S
H1296 C1304 0.929 . S
H1297 C1306 0.930 . S
H1298 C1308 0.930 . S
H1299 C1311 0.929 . S
H1300 C1314 0.930 . S
H1301 C1316 0.960 . S
H1302 C1316 0.960 1_455 S
H1303 C1316 0.960 . S
C1304 H1296 0.929 . S
C1304 C1305 1.377 . S
C1304 C1306 1.384 . S
C1305 C1304 1.377 . S
C1305 C1311 1.390 1_455 S
C1306 H1297 0.930 . S
C1306 C1304 1.384 . S
C1306 C1307 1.372 . S
C1307 C1306 1.372 . S
C1307 C1308 1.400 1_455 S
C1307 C1312 1.490 . S
C1308 H1298 0.930 . S
C1308 C1307 1.400 1_655 S
C1308 C1311 1.386 . S
H1309 C1325 0.930 . S
H1310 C1326 0.931 . S
C1311 H1299 0.929 . S
C1311 C1305 1.390 1_655 S
C1311 C1308 1.386 . S
C1312 C1307 1.490 . S
C1312 C1314 1.395 . S
C1312 C1315 1.389 1_455 S
H1313 C1319 0.946 . S
C1314 H1300 0.930 . S
C1314 C1312 1.395 . S
C1314 C1317 1.403 . S
C1315 C1312 1.389 1_655 S
C1315 C1316 1.552 . S
C1315 C1319 1.401 . S
C1316 H1301 0.960 . S
C1316 H1302 0.960 1_655 S
C1316 H1303 0.960 . S
C1316 C1315 1.552 . S
C1317 C1314 1.403 . S
C1317 C1318 1.392 . S
C1317 C1321 1.495 . S
C1318 C1317 1.392 . S
C1318 C1319 1.354 1_455 S
C1318 C1320 1.478 . S
C1319 H1313 0.946 . S
C1319 C1315 1.401 . S
C1319 C1318 1.354 1_655 S
C1320 C1318 1.478 . S
C1320 C1322 1.381 . S
C1320 C1326 1.383 1_455 S
C1321 C1317 1.495 . S
C1321 H1327 0.959 . S
C1321 H1328 0.961 . S
C1321 H1329 0.960 . S
C1322 C1320 1.381 . S
C1322 C1323 1.394 . S
C1322 H1330 0.930 . S
C1323 C1322 1.394 . S
C1323 C1324 1.383 . S
C1323 H1331 0.929 . S
C1324 C1323 1.383 . S
C1324 C1325 1.377 1_455 S
C1325 H1309 0.930 . S
C1325 C1324 1.377 1_655 S
C1325 C1326 1.379 . S
C1326 H1310 0.931 . S
C1326 C1320 1.383 1_655 S
C1326 C1325 1.379 . S
H1327 C1321 0.959 . S
H1328 C1321 0.961 . S
H1329 C1321 0.960 . S
H1330 C1322 0.930 . S
H1331 C1323 0.929 . S
H1332 C1340 0.929 . S
H1333 C1342 0.930 . S
H1334 C1344 0.930 . S
H1335 C1347 0.929 . S
H1336 C1350 0.930 . S
H1337 C1352 0.960 . S
H1338 C1352 0.960 . S
H1339 C1352 0.960 . S
C1340 H1332 0.929 . S
C1340 C1341 1.377 . S
C1340 C1342 1.384 . S
C1341 C1340 1.377 . S
C1341 C1347 1.390 . S
C1342 H1333 0.930 . S
C1342 C1340 1.384 . S
C1342 C1343 1.372 . S
C1343 C1342 1.372 . S
C1343 C1344 1.400 . S
C1343 C1348 1.490 . S
C1344 H1334 0.930 . S
C1344 C1343 1.400 . S
C1344 C1347 1.386 . S
H1345 C1361 0.930 . S
H1346 C1362 0.931 . S
C1347 H1335 0.929 . S
C1347 C1341 1.390 . S
C1347 C1344 1.386 . S
C1348 C1343 1.490 . S
C1348 C1350 1.395 . S
C1348 C1351 1.403 . S
H1349 C1355 0.930 . S
C1350 H1336 0.930 . S
C1350 C1348 1.395 . S
C1350 C1353 1.403 . S
C1351 C1348 1.403 . S
C1351 C1352 1.524 . S
C1351 C1355 1.400 . S
C1352 H1337 0.960 . S
C1352 H1338 0.960 . S
C1352 H1339 0.960 . S
C1352 C1351 1.524 . S
C1353 C1350 1.403 . S
C1353 C1354 1.392 . S
C1353 C1357 1.495 . S
C1354 C1353 1.392 . S
C1354 C1355 1.385 . S
C1354 C1356 1.478 . S
C1355 H1349 0.930 . S
C1355 C1351 1.400 . S
C1355 C1354 1.385 . S
C1356 C1354 1.478 . S
C1356 C1358 1.381 . S
C1356 C1362 1.383 . S
C1357 C1353 1.495 . S
C1357 H1363 0.959 . S
C1357 H1364 0.961 . S
C1357 H1365 0.960 . S
C1358 C1356 1.381 . S
C1358 C1359 1.394 . S
C1358 H1366 0.930 . S
C1359 C1358 1.394 . S
C1359 C1360 1.383 . S
C1359 H1367 0.929 . S
C1360 C1359 1.383 . S
C1360 C1361 1.377 . S
C1361 H1345 0.930 . S
C1361 C1360 1.377 . S
C1361 C1362 1.379 . S
C1362 H1346 0.931 . S
C1362 C1356 1.383 . S
C1362 C1361 1.379 . S
H1363 C1357 0.959 . S
H1364 C1357 0.961 . S
H1365 C1357 0.960 . S
H1366 C1358 0.930 . S
H1367 C1359 0.929 . S
H1368 C1376 0.929 . S
H1369 C1378 0.930 . S
H1370 C1380 0.930 . S
H1371 C1383 0.929 . S
H1372 C1386 0.930 . S
H1373 C1388 0.939 . S
H1374 C1388 0.978 . S
H1375 C1388 0.933 1_565 S
C1376 H1368 0.929 . S
C1376 C1377 1.377 1_545 S
C1376 C1378 1.384 . S
C1377 C1376 1.377 1_565 S
C1377 C1383 1.390 . S
C1378 H1369 0.930 . S
C1378 C1376 1.384 . S
C1378 C1379 1.372 1_545 S
C1379 C1378 1.372 1_565 S
C1379 C1380 1.400 . S
C1379 C1384 1.490 . S
C1380 H1370 0.930 . S
C1380 C1379 1.400 . S
C1380 C1383 1.386 . S
H1381 C1397 0.930 . S
H1382 C1398 0.931 . S
C1383 H1371 0.929 . S
C1383 C1377 1.390 . S
C1383 C1380 1.386 . S
C1384 C1379 1.490 . S
C1384 C1386 1.395 . S
C1384 C1387 1.403 . S
H1385 C1391 0.930 . S
C1386 H1372 0.930 . S
C1386 C1384 1.395 . S
C1386 C1389 1.403 . S
C1387 C1384 1.403 . S
C1387 C1388 1.516 1_565 S
C1387 C1391 1.400 . S
C1388 H1373 0.939 . S
C1388 H1374 0.978 . S
C1388 H1375 0.933 1_545 S
C1388 C1387 1.516 1_545 S
C1389 C1386 1.403 . S
C1389 C1390 1.392 . S
C1389 C1393 1.495 . S
C1390 C1389 1.392 . S
C1390 C1391 1.385 . S
C1390 C1392 1.478 . S
C1391 H1385 0.930 . S
C1391 C1387 1.400 . S
C1391 C1390 1.385 . S
C1392 C1390 1.478 . S
C1392 C1394 1.381 1_565 S
C1392 C1398 1.383 . S
C1393 C1389 1.495 . S
C1393 H1399 0.959 . S
C1393 H1400 0.961 . S
C1393 H1401 0.960 1_565 S
C1394 C1392 1.381 1_545 S
C1394 C1395 1.394 . S
C1394 H1402 0.930 . S
C1395 C1394 1.394 . S
C1395 C1396 1.383 1_545 S
C1395 H1403 0.929 . S
C1396 C1395 1.383 1_565 S
C1396 C1397 1.377 . S
C1397 H1381 0.930 . S
C1397 C1396 1.377 . S
C1397 C1398 1.379 . S
C1398 H1382 0.931 . S
C1398 C1392 1.383 . S
C1398 C1397 1.379 . S
H1399 C1393 0.959 . S
H1400 C1393 0.961 . S
H1401 C1393 0.960 1_545 S
H1402 C1394 0.930 . S
H1403 C1395 0.929 . S
H1404 C1412 0.929 . S
H1405 C1414 0.930 . S
H1406 C1416 0.931 1_565 S
H1407 C1419 0.926 1_565 S
H1408 C1422 0.930 . S
H1409 C1424 0.960 . S
H1410 C1424 0.960 . S
H1411 C1424 0.960 . S
C1412 H1404 0.929 . S
C1412 C1413 1.377 . S
C1412 C1414 1.384 . S
C1413 C1412 1.377 . S
C1413 C1419 1.382 . S
C1414 H1405 0.930 . S
C1414 C1412 1.384 . S
C1414 C1415 1.372 . S
C1415 C1414 1.372 . S
C1415 C1416 1.400 . S
C1415 C1420 1.490 . S
C1416 H1406 0.931 1_545 S
C1416 C1415 1.400 . S
C1416 C1419 1.396 . S
H1417 C1433 0.943 1_565 S
H1418 C1434 0.931 . S
C1419 H1407 0.926 1_545 S
C1419 C1413 1.382 . S
C1419 C1416 1.396 . S
C1420 C1415 1.490 . S
C1420 C1422 1.395 . S
C1420 C1423 1.403 1_545 S
H1421 C1427 0.930 . S
C1422 H1408 0.930 . S
C1422 C1420 1.395 . S
C1422 C1425 1.403 . S
C1423 C1420 1.403 1_565 S
C1423 C1424 1.524 . S
C1423 C1427 1.400 . S
C1424 H1409 0.960 . S
C1424 H1410 0.960 . S
C1424 H1411 0.960 . S
C1424 C1423 1.524 . S
C1425 C1422 1.403 . S
C1425 C1426 1.392 . S
C1425 C1429 1.495 . S
C1426 C1425 1.392 . S
C1426 C1427 1.385 1_545 S
C1426 C1428 1.478 . S
C1427 H1421 0.930 . S
C1427 C1423 1.400 . S
C1427 C1426 1.385 1_565 S
C1428 C1426 1.478 . S
C1428 C1430 1.381 . S
C1428 C1434 1.383 . S
C1429 C1425 1.495 . S
C1429 H1435 0.959 . S
C1429 H1436 0.961 . S
C1429 H1437 0.960 . S
C1430 C1428 1.381 . S
C1430 C1431 1.394 . S
C1430 H1438 0.930 . S
C1431 C1430 1.394 . S
C1431 C1432 1.383 . S
C1431 H1439 0.929 . S
C1432 C1431 1.383 . S
C1432 C1433 1.377 . S
C1433 H1417 0.943 1_545 S
C1433 C1432 1.377 . S
C1433 C1434 1.379 . S
C1434 H1418 0.931 . S
C1434 C1428 1.383 . S
C1434 C1433 1.379 . S
H1435 C1429 0.959 . S
H1436 C1429 0.961 . S
H1437 C1429 0.960 . S
H1438 C1430 0.930 . S
H1439 C1431 0.929 . S
H1440 C1448 0.929 . S
H1441 C1450 0.930 . S
H1442 C1452 0.930 . S
H1443 C1455 0.929 . S
H1444 C1458 0.930 . S
H1445 C1460 0.953 . S
H1446 C1460 0.952 1_455 S
H1447 C1460 0.973 . S
C1448 H1440 0.929 . S
C1448 C1449 1.377 1_455 S
C1448 C1450 1.384 . S
C1449 C1448 1.377 1_655 S
C1449 C1455 1.390 . S
C1450 H1441 0.930 . S
C1450 C1448 1.384 . S
C1450 C1451 1.372 1_455 S
C1451 C1450 1.372 1_655 S
C1451 C1452 1.400 . S
C1451 C1456 1.490 . S
C1452 H1442 0.930 . S
C1452 C1451 1.400 . S
C1452 C1455 1.386 . S
H1453 C1469 0.930 . S
H1454 C1470 0.931 . S
C1455 H1443 0.929 . S
C1455 C1449 1.390 . S
C1455 C1452 1.386 . S
C1456 C1451 1.490 . S
C1456 C1458 1.395 . S
C1456 C1459 1.403 . S
H1457 C1463 0.930 . S
C1458 H1444 0.930 . S
C1458 C1456 1.395 . S
C1458 C1461 1.403 . S
C1459 C1456 1.403 . S
C1459 C1460 1.527 . S
C1459 C1463 1.400 . S
C1460 H1445 0.953 . S
C1460 H1446 0.952 1_655 S
C1460 H1447 0.973 . S
C1460 C1459 1.527 . S
C1461 C1458 1.403 . S
C1461 C1462 1.392 . S
C1461 C1465 1.495 . S
C1462 C1461 1.392 . S
C1462 C1463 1.385 . S
C1462 C1464 1.478 . S
C1463 H1457 0.930 . S
C1463 C1459 1.400 . S
C1463 C1462 1.385 . S
C1464 C1462 1.478 . S
C1464 C1466 1.381 1_655 S
C1464 C1470 1.383 . S
C1465 C1461 1.495 . S
C1465 H1471 0.959 . S
C1465 H1472 0.961 . S
C1465 H1473 0.960 1_655 S
C1466 C1464 1.381 1_455 S
C1466 C1467 1.394 . S
C1466 H1474 0.930 . S
C1467 C1466 1.394 . S
C1467 C1468 1.383 1_455 S
C1467 H1475 0.929 . S
C1468 C1467 1.383 1_655 S
C1468 C1469 1.377 . S
C1469 H1453 0.930 . S
C1469 C1468 1.377 . S
C1469 C1470 1.379 . S
C1470 H1454 0.931 . S
C1470 C1464 1.383 . S
C1470 C1469 1.379 . S
H1471 C1465 0.959 . S
H1472 C1465 0.961 . S
H1473 C1465 0.960 1_455 S
H1474 C1466 0.930 . S
H1475 C1467 0.929 . S
H1476 C1484 0.929 . S
H1477 C1486 0.930 . S
H1478 C1488 0.930 . S
H1479 C1491 0.929 . S
H1480 C1494 0.930 . S
H1481 C1496 0.960 . S
H1482 C1496 0.960 . S
H1483 C1496 0.960 . S
C1484 H1476 0.929 . S
C1484 C1485 1.377 . S
C1484 C1486 1.384 . S
C1485 C1484 1.377 . S
C1485 C1491 1.390 . S
C1486 H1477 0.930 . S
C1486 C1484 1.384 . S
C1486 C1487 1.372 . S
C1487 C1486 1.372 . S
C1487 C1488 1.400 . S
C1487 C1492 1.490 . S
C1488 H1478 0.930 . S
C1488 C1487 1.400 . S
C1488 C1491 1.386 . S
H1489 C1505 0.930 . S
H1490 C1506 0.931 . S
C1491 H1479 0.929 . S
C1491 C1485 1.390 . S
C1491 C1488 1.386 . S
C1492 C1487 1.490 . S
C1492 C1494 1.395 . S
C1492 C1495 1.403 . S
H1493 C1499 0.930 . S
C1494 H1480 0.930 . S
C1494 C1492 1.395 . S
C1494 C1497 1.403 . S
C1495 C1492 1.403 . S
C1495 C1496 1.524 . S
C1495 C1499 1.400 . S
C1496 H1481 0.960 . S
C1496 H1482 0.960 . S
C1496 H1483 0.960 . S
C1496 C1495 1.524 . S
C1497 C1494 1.403 . S
C1497 C1498 1.392 . S
C1497 C1501 1.495 . S
C1498 C1497 1.392 . S
C1498 C1499 1.385 . S
C1498 C1500 1.478 . S
C1499 H1493 0.930 . S
C1499 C1495 1.400 . S
C1499 C1498 1.385 . S
C1500 C1498 1.478 . S
C1500 C1502 1.381 . S
C1500 C1506 1.383 . S
C1501 C1497 1.495 . S
C1501 H1507 0.959 . S
C1501 H1508 0.961 . S
C1501 H1509 0.960 . S
C1502 C1500 1.381 . S
C1502 C1503 1.394 . S
C1502 H1510 0.930 . S
C1503 C1502 1.394 . S
C1503 C1504 1.383 . S
C1503 H1511 0.929 . S
C1504 C1503 1.383 . S
C1504 C1505 1.377 . S
C1505 H1489 0.930 . S
C1505 C1504 1.377 . S
C1505 C1506 1.379 . S
C1506 H1490 0.931 . S
C1506 C1500 1.383 . S
C1506 C1505 1.379 . S
H1507 C1501 0.959 . S
H1508 C1501 0.961 . S
H1509 C1501 0.960 . S
H1510 C1502 0.930 . S
H1511 C1503 0.929 . S
H1512 C1520 0.929 . S
H1513 C1522 0.930 . S
H1514 C1524 0.930 . S
H1515 C1527 0.929 . S
H1516 C1530 0.930 . S
H1517 C1532 0.960 . S
H1518 C1532 0.960 . S
H1519 C1532 0.960 . S
C1520 H1512 0.929 . S
C1520 C1521 1.377 . S
C1520 C1522 1.384 . S
C1521 C1520 1.377 . S
C1521 C1527 1.390 . S
C1522 H1513 0.930 . S
C1522 C1520 1.384 . S
C1522 C1523 1.372 . S
C1523 C1522 1.372 . S
C1523 C1524 1.400 . S
C1523 C1528 1.490 . S
C1524 H1514 0.930 . S
C1524 C1523 1.400 . S
C1524 C1527 1.386 . S
H1525 C1541 0.930 . S
H1526 C1542 0.931 . S
C1527 H1515 0.929 . S
C1527 C1521 1.390 . S
C1527 C1524 1.386 . S
C1528 C1523 1.490 . S
C1528 C1530 1.395 . S
C1528 C1531 1.403 . S
H1529 C1535 0.930 . S
C1530 H1516 0.930 . S
C1530 C1528 1.395 . S
C1530 C1533 1.403 . S
C1531 C1528 1.403 . S
C1531 C1532 1.524 . S
C1531 C1535 1.400 . S
C1532 H1517 0.960 . S
C1532 H1518 0.960 . S
C1532 H1519 0.960 . S
C1532 C1531 1.524 . S
C1533 C1530 1.403 . S
C1533 C1534 1.392 . S
C1533 C1537 1.495 . S
C1534 C1533 1.392 . S
C1534 C1535 1.385 . S
C1534 C1536 1.478 . S
C1535 H1529 0.930 . S
C1535 C1531 1.400 . S
C1535 C1534 1.385 . S
C1536 C1534 1.478 . S
C1536 C1538 1.381 . S
C1536 C1542 1.383 . S
C1537 C1533 1.495 . S
C1537 H1543 0.959 . S
C1537 H1544 0.961 . S
C1537 H1545 0.960 . S
C1538 C1536 1.381 . S
C1538 C1539 1.394 . S
C1538 H1546 0.930 . S
C1539 C1538 1.394 . S
C1539 C1540 1.383 . S
C1539 H1547 0.929 . S
C1540 C1539 1.383 . S
C1540 C1541 1.377 . S
C1541 H1525 0.930 . S
C1541 C1540 1.377 . S
C1541 C1542 1.379 . S
C1542 H1526 0.931 . S
C1542 C1536 1.383 . S
C1542 C1541 1.379 . S
H1543 C1537 0.959 . S
H1544 C1537 0.961 . S
H1545 C1537 0.960 . S
H1546 C1538 0.930 . S
H1547 C1539 0.929 . S
H1548 C1556 0.929 . S
H1549 C1558 0.930 . S
H1550 C1560 0.930 . S
H1551 C1563 0.929 . S
H1552 C1566 0.930 . S
H1553 C1568 0.960 . S
H1554 C1568 0.960 . S
H1555 C1568 0.960 . S
C1556 H1548 0.929 . S
C1556 C1557 1.377 . S
C1556 C1558 1.384 . S
C1557 C1556 1.377 . S
C1557 C1563 1.390 . S
C1558 H1549 0.930 . S
C1558 C1556 1.384 . S
C1558 C1559 1.372 . S
C1559 C1558 1.372 . S
C1559 C1560 1.400 . S
C1559 C1564 1.490 . S
C1560 H1550 0.930 . S
C1560 C1559 1.400 . S
C1560 C1563 1.386 . S
H1561 C1577 0.930 . S
H1562 C1578 0.931 . S
C1563 H1551 0.929 . S
C1563 C1557 1.390 . S
C1563 C1560 1.386 . S
C1564 C1559 1.490 . S
C1564 C1566 1.395 . S
C1564 C1567 1.403 . S
H1565 C1571 0.930 . S
C1566 H1552 0.930 . S
C1566 C1564 1.395 . S
C1566 C1569 1.403 . S
C1567 C1564 1.403 . S
C1567 C1568 1.524 . S
C1567 C1571 1.400 . S
C1568 H1553 0.960 . S
C1568 H1554 0.960 . S
C1568 H1555 0.960 . S
C1568 C1567 1.524 . S
C1569 C1566 1.403 . S
C1569 C1570 1.392 . S
C1569 C1573 1.495 . S
C1570 C1569 1.392 . S
C1570 C1571 1.385 . S
C1570 C1572 1.478 . S
C1571 H1565 0.930 . S
C1571 C1567 1.400 . S
C1571 C1570 1.385 . S
C1572 C1570 1.478 . S
C1572 C1574 1.381 . S
C1572 C1578 1.383 . S
C1573 C1569 1.495 . S
C1573 H1579 0.959 . S
C1573 H1580 0.961 . S
C1573 H1581 0.960 . S
C1574 C1572 1.381 . S
C1574 C1575 1.394 . S
C1574 H1582 0.930 . S
C1575 C1574 1.394 . S
C1575 C1576 1.383 . S
C1575 H1583 0.929 . S
C1576 C1575 1.383 . S
C1576 C1577 1.377 . S
C1577 H1561 0.930 . S
C1577 C1576 1.377 . S
C1577 C1578 1.379 . S
C1578 H1562 0.931 . S
C1578 C1572 1.383 . S
C1578 C1577 1.379 . S
H1579 C1573 0.959 . S
H1580 C1573 0.961 . S
H1581 C1573 0.960 . S
H1582 C1574 0.930 . S
H1583 C1575 0.929 . S
H1584 C1592 0.929 . S
H1585 C1594 0.930 . S
H1586 C1596 0.930 . S
H1587 C1599 0.929 . S
H1588 C1602 0.930 . S
H1589 C1604 0.960 . S
H1590 C1604 0.960 . S
H1591 C1604 0.960 . S
C1592 H1584 0.929 . S
C1592 C1593 1.377 . S
C1592 C1594 1.384 . S
C1593 C1592 1.377 . S
C1593 C1599 1.390 . S
C1594 H1585 0.930 . S
C1594 C1592 1.384 . S
C1594 C1595 1.372 . S
C1595 C1594 1.372 . S
C1595 C1596 1.400 . S
C1595 C1600 1.490 . S
C1596 H1586 0.930 . S
C1596 C1595 1.400 . S
C1596 C1599 1.386 . S
H1597 C1613 0.930 . S
H1598 C1614 0.931 . S
C1599 H1587 0.929 . S
C1599 C1593 1.390 . S
C1599 C1596 1.386 . S
C1600 C1595 1.490 . S
C1600 C1602 1.395 . S
C1600 C1603 1.403 . S
H1601 C1607 0.930 . S
C1602 H1588 0.930 . S
C1602 C1600 1.395 . S
C1602 C1605 1.403 . S
C1603 C1600 1.403 . S
C1603 C1604 1.524 . S
C1603 C1607 1.400 . S
C1604 H1589 0.960 . S
C1604 H1590 0.960 . S
C1604 H1591 0.960 . S
C1604 C1603 1.524 . S
C1605 C1602 1.403 . S
C1605 C1606 1.392 . S
C1605 C1609 1.495 . S
C1606 C1605 1.392 . S
C1606 C1607 1.385 . S
C1606 C1608 1.478 . S
C1607 H1601 0.930 . S
C1607 C1603 1.400 . S
C1607 C1606 1.385 . S
C1608 C1606 1.478 . S
C1608 C1610 1.381 . S
C1608 C1614 1.383 . S
C1609 C1605 1.495 . S
C1609 H1615 0.959 . S
C1609 H1616 0.961 . S
C1609 H1617 0.960 . S
C1610 C1608 1.381 . S
C1610 C1611 1.394 . S
C1610 H1618 0.930 . S
C1611 C1610 1.394 . S
C1611 C1612 1.383 . S
C1611 H1619 0.929 . S
C1612 C1611 1.383 . S
C1612 C1613 1.377 . S
C1613 H1597 0.930 . S
C1613 C1612 1.377 . S
C1613 C1614 1.379 . S
C1614 H1598 0.931 . S
C1614 C1608 1.383 . S
C1614 C1613 1.379 . S
H1615 C1609 0.959 . S
H1616 C1609 0.961 . S
H1617 C1609 0.960 . S
H1618 C1610 0.930 . S
H1619 C1611 0.929 . S
H1620 C1628 0.929 . S
H1621 C1630 0.930 . S
H1622 C1632 0.930 . S
H1623 C1635 0.929 . S
H1624 C1638 0.930 . S
H1625 C1640 0.960 . S
H1626 C1640 0.960 . S
H1627 C1640 0.960 . S
C1628 H1620 0.929 . S
C1628 C1629 1.377 . S
C1628 C1630 1.384 . S
C1629 C1628 1.377 . S
C1629 C1635 1.390 . S
C1630 H1621 0.930 . S
C1630 C1628 1.384 . S
C1630 C1631 1.372 . S
C1631 C1630 1.372 . S
C1631 C1632 1.400 . S
C1631 C1636 1.490 . S
C1632 H1622 0.930 . S
C1632 C1631 1.400 . S
C1632 C1635 1.386 . S
H1633 C1649 0.930 . S
H1634 C1650 0.931 . S
C1635 H1623 0.929 . S
C1635 C1629 1.390 . S
C1635 C1632 1.386 . S
C1636 C1631 1.490 . S
C1636 C1638 1.395 . S
C1636 C1639 1.403 . S
H1637 C1643 0.930 . S
C1638 H1624 0.930 . S
C1638 C1636 1.395 . S
C1638 C1641 1.403 . S
C1639 C1636 1.403 . S
C1639 C1640 1.524 . S
C1639 C1643 1.400 . S
C1640 H1625 0.960 . S
C1640 H1626 0.960 . S
C1640 H1627 0.960 . S
C1640 C1639 1.524 . S
C1641 C1638 1.403 . S
C1641 C1642 1.392 . S
C1641 C1645 1.495 . S
C1642 C1641 1.392 . S
C1642 C1643 1.385 . S
C1642 C1644 1.478 . S
C1643 H1637 0.930 . S
C1643 C1639 1.400 . S
C1643 C1642 1.385 . S
C1644 C1642 1.478 . S
C1644 C1646 1.381 . S
C1644 C1650 1.383 . S
C1645 C1641 1.495 . S
C1645 H1651 0.959 . S
C1645 H1652 0.961 . S
C1645 H1653 0.960 . S
C1646 C1644 1.381 . S
C1646 C1647 1.394 . S
C1646 H1654 0.930 . S
C1647 C1646 1.394 . S
C1647 C1648 1.383 . S
C1647 H1655 0.929 . S
C1648 C1647 1.383 . S
C1648 C1649 1.377 . S
C1649 H1633 0.930 . S
C1649 C1648 1.377 . S
C1649 C1650 1.379 . S
C1650 H1634 0.931 . S
C1650 C1644 1.383 . S
C1650 C1649 1.379 . S
H1651 C1645 0.959 . S
H1652 C1645 0.961 . S
H1653 C1645 0.960 . S
H1654 C1646 0.930 . S
H1655 C1647 0.929 . S
H1656 C1664 0.929 . S
H1657 C1666 0.930 . S
H1658 C1668 0.930 . S
H1659 C1671 0.929 . S
H1660 C1674 0.930 . S
H1661 C1676 0.960 . S
H1662 C1676 0.960 . S
H1663 C1676 0.960 . S
C1664 H1656 0.929 . S
C1664 C1665 1.377 . S
C1664 C1666 1.384 . S
C1665 C1664 1.377 . S
C1665 C1671 1.390 . S
C1666 H1657 0.930 . S
C1666 C1664 1.384 . S
C1666 C1667 1.372 . S
C1667 C1666 1.372 . S
C1667 C1668 1.400 . S
C1667 C1672 1.490 . S
C1668 H1658 0.930 . S
C1668 C1667 1.400 . S
C1668 C1671 1.386 . S
H1669 C1685 0.930 . S
H1670 C1686 0.931 . S
C1671 H1659 0.929 . S
C1671 C1665 1.390 . S
C1671 C1668 1.386 . S
C1672 C1667 1.490 . S
C1672 C1674 1.395 . S
C1672 C1675 1.403 . S
H1673 C1679 0.930 . S
C1674 H1660 0.930 . S
C1674 C1672 1.395 . S
C1674 C1677 1.403 . S
C1675 C1672 1.403 . S
C1675 C1676 1.524 . S
C1675 C1679 1.400 . S
C1676 H1661 0.960 . S
C1676 H1662 0.960 . S
C1676 H1663 0.960 . S
C1676 C1675 1.524 . S
C1677 C1674 1.403 . S
C1677 C1678 1.392 . S
C1677 C1681 1.495 . S
C1678 C1677 1.392 . S
C1678 C1679 1.385 . S
C1678 C1680 1.478 . S
C1679 H1673 0.930 . S
C1679 C1675 1.400 . S
C1679 C1678 1.385 . S
C1680 C1678 1.478 . S
C1680 C1682 1.381 . S
C1680 C1686 1.383 . S
C1681 C1677 1.495 . S
C1681 H1687 0.959 . S
C1681 H1688 0.961 . S
C1681 H1689 0.960 . S
C1682 C1680 1.381 . S
C1682 C1683 1.394 . S
C1682 H1690 0.930 . S
C1683 C1682 1.394 . S
C1683 C1684 1.383 . S
C1683 H1691 0.929 . S
C1684 C1683 1.383 . S
C1684 C1685 1.377 . S
C1685 H1669 0.930 . S
C1685 C1684 1.377 . S
C1685 C1686 1.379 . S
C1686 H1670 0.931 . S
C1686 C1680 1.383 . S
C1686 C1685 1.379 . S
H1687 C1681 0.959 . S
H1688 C1681 0.961 . S
H1689 C1681 0.960 . S
H1690 C1682 0.930 . S
H1691 C1683 0.929 . S
H1692 C1700 0.929 . S
H1693 C1702 0.930 . S
H1694 C1704 0.930 . S
H1695 C1707 0.929 . S
H1696 C1710 0.930 . S
H1697 C1712 0.960 . S
H1698 C1712 0.960 . S
H1699 C1712 0.960 . S
C1700 H1692 0.929 . S
C1700 C1701 1.377 . S
C1700 C1702 1.384 . S
C1701 C1700 1.377 . S
C1701 C1707 1.390 . S
C1702 H1693 0.930 . S
C1702 C1700 1.384 . S
C1702 C1703 1.372 . S
C1703 C1702 1.372 . S
C1703 C1704 1.400 . S
C1703 C1708 1.490 . S
C1704 H1694 0.930 . S
C1704 C1703 1.400 . S
C1704 C1707 1.386 . S
H1705 C1721 0.930 . S
H1706 C1722 0.931 . S
C1707 H1695 0.929 . S
C1707 C1701 1.390 . S
C1707 C1704 1.386 . S
C1708 C1703 1.490 . S
C1708 C1710 1.395 . S
C1708 C1711 1.403 . S
H1709 C1715 0.930 . S
C1710 H1696 0.930 . S
C1710 C1708 1.395 . S
C1710 C1713 1.403 . S
C1711 C1708 1.403 . S
C1711 C1712 1.524 . S
C1711 C1715 1.400 . S
C1712 H1697 0.960 . S
C1712 H1698 0.960 . S
C1712 H1699 0.960 . S
C1712 C1711 1.524 . S
C1713 C1710 1.403 . S
C1713 C1714 1.392 . S
C1713 C1717 1.495 . S
C1714 C1713 1.392 . S
C1714 C1715 1.385 . S
C1714 C1716 1.478 . S
C1715 H1709 0.930 . S
C1715 C1711 1.400 . S
C1715 C1714 1.385 . S
C1716 C1714 1.478 . S
C1716 C1718 1.381 . S
C1716 C1722 1.383 . S
C1717 C1713 1.495 . S
C1717 H1723 0.959 . S
C1717 H1724 0.961 . S
C1717 H1725 0.960 . S
C1718 C1716 1.381 . S
C1718 C1719 1.394 . S
C1718 H1726 0.930 . S
C1719 C1718 1.394 . S
C1719 C1720 1.383 . S
C1719 H1727 0.929 . S
C1720 C1719 1.383 . S
C1720 C1721 1.377 . S
C1721 H1705 0.930 . S
C1721 C1720 1.377 . S
C1721 C1722 1.379 . S
C1722 H1706 0.931 . S
C1722 C1716 1.383 . S
C1722 C1721 1.379 . S
H1723 C1717 0.959 . S
H1724 C1717 0.961 . S
H1725 C1717 0.960 . S
H1726 C1718 0.930 . S
H1727 C1719 0.929 . S
H1728 C1736 0.929 . S
H1729 C1738 0.930 . S
H1730 C1740 0.930 . S
H1731 C1743 0.929 . S
H1732 C1746 0.930 . S
H1733 C1748 0.960 . S
H1734 C1748 0.960 . S
H1735 C1748 0.960 . S
C1736 H1728 0.929 . S
C1736 C1737 1.377 . S
C1736 C1738 1.384 . S
C1737 C1736 1.377 . S
C1737 C1743 1.390 . S
C1738 H1729 0.930 . S
C1738 C1736 1.384 . S
C1738 C1739 1.372 . S
C1739 C1738 1.372 . S
C1739 C1740 1.400 . S
C1739 C1744 1.490 . S
C1740 H1730 0.930 . S
C1740 C1739 1.400 . S
C1740 C1743 1.386 . S
H1741 C1757 0.930 . S
H1742 C1758 0.931 . S
C1743 H1731 0.929 . S
C1743 C1737 1.390 . S
C1743 C1740 1.386 . S
C1744 C1739 1.490 . S
C1744 C1746 1.395 . S
C1744 C1747 1.403 . S
H1745 C1751 0.930 . S
C1746 H1732 0.930 . S
C1746 C1744 1.395 . S
C1746 C1749 1.403 . S
C1747 C1744 1.403 . S
C1747 C1748 1.524 . S
C1747 C1751 1.400 . S
C1748 H1733 0.960 . S
C1748 H1734 0.960 . S
C1748 H1735 0.960 . S
C1748 C1747 1.524 . S
C1749 C1746 1.403 . S
C1749 C1750 1.392 . S
C1749 C1753 1.495 . S
C1750 C1749 1.392 . S
C1750 C1751 1.385 . S
C1750 C1752 1.478 . S
C1751 H1745 0.930 . S
C1751 C1747 1.400 . S
C1751 C1750 1.385 . S
C1752 C1750 1.478 . S
C1752 C1754 1.381 . S
C1752 C1758 1.383 . S
C1753 C1749 1.495 . S
C1753 H1759 0.959 . S
C1753 H1760 0.961 . S
C1753 H1761 0.960 . S
C1754 C1752 1.381 . S
C1754 C1755 1.394 . S
C1754 H1762 0.930 . S
C1755 C1754 1.394 . S
C1755 C1756 1.383 . S
C1755 H1763 0.929 . S
C1756 C1755 1.383 . S
C1756 C1757 1.377 . S
C1757 H1741 0.930 . S
C1757 C1756 1.377 . S
C1757 C1758 1.379 . S
C1758 H1742 0.931 . S
C1758 C1752 1.383 . S
C1758 C1757 1.379 . S
H1759 C1753 0.959 . S
H1760 C1753 0.961 . S
H1761 C1753 0.960 . S
H1762 C1754 0.930 . S
H1763 C1755 0.929 . S
H1764 C1772 0.929 . S
H1765 C1774 0.930 . S
H1766 C1776 0.930 . S
H1767 C1779 0.929 . S
H1768 C1782 0.930 . S
H1769 C1784 0.960 . S
H1770 C1784 0.960 . S
H1771 C1784 0.960 . S
C1772 H1764 0.929 . S
C1772 C1773 1.377 . S
C1772 C1774 1.384 . S
C1773 C1772 1.377 . S
C1773 C1779 1.390 . S
C1774 H1765 0.930 . S
C1774 C1772 1.384 . S
C1774 C1775 1.372 . S
C1775 C1774 1.372 . S
C1775 C1776 1.400 . S
C1775 C1780 1.490 . S
C1776 H1766 0.930 . S
C1776 C1775 1.400 . S
C1776 C1779 1.386 . S
H1777 C1793 0.930 . S
H1778 C1794 0.931 . S
C1779 H1767 0.929 . S
C1779 C1773 1.390 . S
C1779 C1776 1.386 . S
C1780 C1775 1.490 . S
C1780 C1782 1.395 . S
C1780 C1783 1.403 . S
H1781 C1787 0.930 . S
C1782 H1768 0.930 . S
C1782 C1780 1.395 . S
C1782 C1785 1.403 . S
C1783 C1780 1.403 . S
C1783 C1784 1.524 . S
C1783 C1787 1.400 . S
C1784 H1769 0.960 . S
C1784 H1770 0.960 . S
C1784 H1771 0.960 . S
C1784 C1783 1.524 . S
C1785 C1782 1.403 . S
C1785 C1786 1.392 . S
C1785 C1789 1.495 . S
C1786 C1785 1.392 . S
C1786 C1787 1.385 . S
C1786 C1788 1.478 . S
C1787 H1781 0.930 . S
C1787 C1783 1.400 . S
C1787 C1786 1.385 . S
C1788 C1786 1.478 . S
C1788 C1790 1.381 . S
C1788 C1794 1.383 . S
C1789 C1785 1.495 . S
C1789 H1795 0.959 . S
C1789 H1796 0.961 . S
C1789 H1797 0.960 . S
C1790 C1788 1.381 . S
C1790 C1791 1.394 . S
C1790 H1798 0.930 . S
C1791 C1790 1.394 . S
C1791 C1792 1.383 . S
C1791 H1799 0.929 . S
C1792 C1791 1.383 . S
C1792 C1793 1.377 . S
C1793 H1777 0.930 . S
C1793 C1792 1.377 . S
C1793 C1794 1.379 . S
C1794 H1778 0.931 . S
C1794 C1788 1.383 . S
C1794 C1793 1.379 . S
H1795 C1789 0.959 . S
H1796 C1789 0.961 . S
H1797 C1789 0.960 . S
H1798 C1790 0.930 . S
H1799 C1791 0.929 . S
H1800 C1808 0.929 . S
H1801 C1810 0.930 . S
H1802 C1812 0.930 . S
H1803 C1815 0.929 . S
H1804 C1818 0.930 . S
H1805 C1820 0.960 . S
H1806 C1820 0.960 . S
H1807 C1820 0.960 . S
C1808 H1800 0.929 . S
C1808 C1809 1.377 . S
C1808 C1810 1.384 . S
C1809 C1808 1.377 . S
C1809 C1815 1.390 . S
C1810 H1801 0.930 . S
C1810 C1808 1.384 . S
C1810 C1811 1.372 . S
C1811 C1810 1.372 . S
C1811 C1812 1.400 . S
C1811 C1816 1.490 . S
C1812 H1802 0.930 . S
C1812 C1811 1.400 . S
C1812 C1815 1.386 . S
H1813 C1829 0.930 . S
H1814 C1830 0.931 . S
C1815 H1803 0.929 . S
C1815 C1809 1.390 . S
C1815 C1812 1.386 . S
C1816 C1811 1.490 . S
C1816 C1818 1.395 . S
C1816 C1819 1.403 . S
H1817 C1823 0.930 . S
C1818 H1804 0.930 . S
C1818 C1816 1.395 . S
C1818 C1821 1.403 . S
C1819 C1816 1.403 . S
C1819 C1820 1.524 . S
C1819 C1823 1.400 . S
C1820 H1805 0.960 . S
C1820 H1806 0.960 . S
C1820 H1807 0.960 . S
C1820 C1819 1.524 . S
C1821 C1818 1.403 . S
C1821 C1822 1.392 . S
C1821 C1825 1.495 . S
C1822 C1821 1.392 . S
C1822 C1823 1.385 . S
C1822 C1824 1.478 . S
C1823 H1817 0.930 . S
C1823 C1819 1.400 . S
C1823 C1822 1.385 . S
C1824 C1822 1.478 . S
C1824 C1826 1.381 . S
C1824 C1830 1.383 . S
C1825 C1821 1.495 . S
C1825 H1831 0.959 . S
C1825 H1832 0.961 . S
C1825 H1833 0.960 . S
C1826 C1824 1.381 . S
C1826 C1827 1.394 . S
C1826 H1834 0.930 . S
C1827 C1826 1.394 . S
C1827 C1828 1.383 . S
C1827 H1835 0.929 . S
C1828 C1827 1.383 . S
C1828 C1829 1.377 . S
C1829 H1813 0.930 . S
C1829 C1828 1.377 . S
C1829 C1830 1.379 . S
C1830 H1814 0.931 . S
C1830 C1824 1.383 . S
C1830 C1829 1.379 . S
H1831 C1825 0.959 . S
H1832 C1825 0.961 . S
H1833 C1825 0.960 . S
H1834 C1826 0.930 . S
H1835 C1827 0.929 . S
H1836 C1844 0.929 . S
H1837 C1846 0.930 . S
H1838 C1848 0.930 . S
H1839 C1851 0.929 . S
H1840 C1854 0.930 . S
H1841 C1856 0.960 . S
H1842 C1856 0.960 . S
H1843 C1856 0.960 . S
C1844 H1836 0.929 . S
C1844 C1845 1.377 . S
C1844 C1846 1.384 . S
C1845 C1844 1.377 . S
C1845 C1851 1.390 . S
C1846 H1837 0.930 . S
C1846 C1844 1.384 . S
C1846 C1847 1.372 . S
C1847 C1846 1.372 . S
C1847 C1848 1.400 . S
C1847 C1852 1.490 . S
C1848 H1838 0.930 . S
C1848 C1847 1.400 . S
C1848 C1851 1.386 . S
H1849 C1865 0.930 . S
H1850 C1866 0.931 . S
C1851 H1839 0.929 . S
C1851 C1845 1.390 . S
C1851 C1848 1.386 . S
C1852 C1847 1.490 . S
C1852 C1854 1.395 . S
C1852 C1855 1.403 . S
H1853 C1859 0.930 . S
C1854 H1840 0.930 . S
C1854 C1852 1.395 . S
C1854 C1857 1.403 . S
C1855 C1852 1.403 . S
C1855 C1856 1.524 . S
C1855 C1859 1.400 . S
C1856 H1841 0.960 . S
C1856 H1842 0.960 . S
C1856 H1843 0.960 . S
C1856 C1855 1.524 . S
C1857 C1854 1.403 . S
C1857 C1858 1.392 . S
C1857 C1861 1.495 . S
C1858 C1857 1.392 . S
C1858 C1859 1.385 . S
C1858 C1860 1.478 . S
C1859 H1853 0.930 . S
C1859 C1855 1.400 . S
C1859 C1858 1.385 . S
C1860 C1858 1.478 . S
C1860 C1862 1.381 . S
C1860 C1866 1.383 . S
C1861 C1857 1.495 . S
C1861 H1867 0.959 . S
C1861 H1868 0.961 . S
C1861 H1869 0.960 . S
C1862 C1860 1.381 . S
C1862 C1863 1.394 . S
C1862 H1870 0.930 . S
C1863 C1862 1.394 . S
C1863 C1864 1.383 . S
C1863 H1871 0.929 . S
C1864 C1863 1.383 . S
C1864 C1865 1.377 . S
C1865 H1849 0.930 . S
C1865 C1864 1.377 . S
C1865 C1866 1.379 . S
C1866 H1850 0.931 . S
C1866 C1860 1.383 . S
C1866 C1865 1.379 . S
H1867 C1861 0.959 . S
H1868 C1861 0.961 . S
H1869 C1861 0.960 . S
H1870 C1862 0.930 . S
H1871 C1863 0.929 . S
H1872 C1880 0.929 . S
H1873 C1882 0.930 . S
H1874 C1884 0.930 . S
H1875 C1887 0.929 . S
H1876 C1890 0.930 . S
H1877 C1892 0.960 . S
H1878 C1892 0.960 . S
H1879 C1892 0.960 . S
C1880 H1872 0.929 . S
C1880 C1881 1.377 . S
C1880 C1882 1.384 . S
C1881 C1880 1.377 . S
C1881 C1887 1.390 . S
C1882 H1873 0.930 . S
C1882 C1880 1.384 . S
C1882 C1883 1.372 . S
C1883 C1882 1.372 . S
C1883 C1884 1.400 . S
C1883 C1888 1.490 . S
C1884 H1874 0.930 . S
C1884 C1883 1.400 . S
C1884 C1887 1.386 . S
H1885 C1901 0.930 . S
H1886 C1902 0.931 . S
C1887 H1875 0.929 . S
C1887 C1881 1.390 . S
C1887 C1884 1.386 . S
C1888 C1883 1.490 . S
C1888 C1890 1.395 . S
C1888 C1891 1.403 . S
H1889 C1895 0.930 . S
C1890 H1876 0.930 . S
C1890 C1888 1.395 . S
C1890 C1893 1.403 . S
C1891 C1888 1.403 . S
C1891 C1892 1.524 . S
C1891 C1895 1.400 . S
C1892 H1877 0.960 . S
C1892 H1878 0.960 . S
C1892 H1879 0.960 . S
C1892 C1891 1.524 . S
C1893 C1890 1.403 . S
C1893 C1894 1.392 . S
C1893 C1897 1.495 . S
C1894 C1893 1.392 . S
C1894 C1895 1.385 . S
C1894 C1896 1.478 . S
C1895 H1889 0.930 . S
C1895 C1891 1.400 . S
C1895 C1894 1.385 . S
C1896 C1894 1.478 . S
C1896 C1898 1.381 . S
C1896 C1902 1.383 . S
C1897 C1893 1.495 . S
C1897 H1903 0.959 . S
C1897 H1904 0.961 . S
C1897 H1905 0.960 . S
C1898 C1896 1.381 . S
C1898 C1899 1.394 . S
C1898 H1906 0.930 . S
C1899 C1898 1.394 . S
C1899 C1900 1.383 . S
C1899 H1907 0.929 . S
C1900 C1899 1.383 . S
C1900 C1901 1.377 . S
C1901 H1885 0.930 . S
C1901 C1900 1.377 . S
C1901 C1902 1.379 . S
C1902 H1886 0.931 . S
C1902 C1896 1.383 . S
C1902 C1901 1.379 . S
H1903 C1897 0.959 . S
H1904 C1897 0.961 . S
H1905 C1897 0.960 . S
H1906 C1898 0.930 . S
H1907 C1899 0.929 . S
H1908 C1916 0.929 . S
H1909 C1918 0.930 . S
H1910 C1920 0.930 . S
H1911 C1923 0.929 . S
H1912 C1926 0.930 . S
H1913 C1928 0.960 . S
H1914 C1928 0.960 . S
H1915 C1928 0.960 . S
C1916 H1908 0.929 . S
C1916 C1917 1.377 . S
C1916 C1918 1.384 . S
C1917 C1916 1.377 . S
C1917 C1923 1.390 . S
C1918 H1909 0.930 . S
C1918 C1916 1.384 . S
C1918 C1919 1.372 . S
C1919 C1918 1.372 . S
C1919 C1920 1.400 . S
C1919 C1924 1.490 . S
C1920 H1910 0.930 . S
C1920 C1919 1.400 . S
C1920 C1923 1.386 . S
H1921 C1937 0.930 . S
H1922 C1938 0.931 . S
C1923 H1911 0.929 . S
C1923 C1917 1.390 . S
C1923 C1920 1.386 . S
C1924 C1919 1.490 . S
C1924 C1926 1.395 . S
C1924 C1927 1.403 . S
H1925 C1931 0.930 . S
C1926 H1912 0.930 . S
C1926 C1924 1.395 . S
C1926 C1929 1.403 . S
C1927 C1924 1.403 . S
C1927 C1928 1.524 . S
C1927 C1931 1.400 . S
C1928 H1913 0.960 . S
C1928 H1914 0.960 . S
C1928 H1915 0.960 . S
C1928 C1927 1.524 . S
C1929 C1926 1.403 . S
C1929 C1930 1.392 . S
C1929 C1933 1.495 . S
C1930 C1929 1.392 . S
C1930 C1931 1.385 . S
C1930 C1932 1.478 . S
C1931 H1925 0.930 . S
C1931 C1927 1.400 . S
C1931 C1930 1.385 . S
C1932 C1930 1.478 . S
C1932 C1934 1.381 . S
C1932 C1938 1.383 . S
C1933 C1929 1.495 . S
C1933 H1939 0.959 . S
C1933 H1940 0.961 . S
C1933 H1941 0.960 . S
C1934 C1932 1.381 . S
C1934 C1935 1.394 . S
C1934 H1942 0.930 . S
C1935 C1934 1.394 . S
C1935 C1936 1.383 . S
C1935 H1943 0.929 . S
C1936 C1935 1.383 . S
C1936 C1937 1.377 . S
C1937 H1921 0.930 . S
C1937 C1936 1.377 . S
C1937 C1938 1.379 . S
C1938 H1922 0.931 . S
C1938 C1932 1.383 . S
C1938 C1937 1.379 . S
H1939 C1933 0.959 . S
H1940 C1933 0.961 . S
H1941 C1933 0.960 . S
H1942 C1934 0.930 . S
H1943 C1935 0.929 . S
H1944 C1952 0.929 . S
H1945 C1954 0.930 . S
H1946 C1956 0.930 . S
H1947 C1959 0.929 . S
H1948 C1962 0.930 . S
H1949 C1964 0.960 . S
H1950 C1964 0.960 . S
H1951 C1964 0.960 . S
C1952 H1944 0.929 . S
C1952 C1953 1.377 . S
C1952 C1954 1.384 . S
C1953 C1952 1.377 . S
C1953 C1959 1.390 . S
C1954 H1945 0.930 . S
C1954 C1952 1.384 . S
C1954 C1955 1.372 . S
C1955 C1954 1.372 . S
C1955 C1956 1.400 . S
C1955 C1960 1.490 . S
C1956 H1946 0.930 . S
C1956 C1955 1.400 . S
C1956 C1959 1.386 . S
H1957 C1973 0.930 . S
H1958 C1974 0.931 . S
C1959 H1947 0.929 . S
C1959 C1953 1.390 . S
C1959 C1956 1.386 . S
C1960 C1955 1.490 . S
C1960 C1962 1.395 . S
C1960 C1963 1.403 . S
H1961 C1967 0.930 . S
C1962 H1948 0.930 . S
C1962 C1960 1.395 . S
C1962 C1965 1.403 . S
C1963 C1960 1.403 . S
C1963 C1964 1.524 . S
C1963 C1967 1.400 . S
C1964 H1949 0.960 . S
C1964 H1950 0.960 . S
C1964 H1951 0.960 . S
C1964 C1963 1.524 . S
C1965 C1962 1.403 . S
C1965 C1966 1.392 . S
C1965 C1969 1.495 . S
C1966 C1965 1.392 . S
C1966 C1967 1.385 . S
C1966 C1968 1.478 . S
C1967 H1961 0.930 . S
C1967 C1963 1.400 . S
C1967 C1966 1.385 . S
C1968 C1966 1.478 . S
C1968 C1970 1.381 . S
C1968 C1974 1.383 . S
C1969 C1965 1.495 . S
C1969 H1975 0.959 . S
C1969 H1976 0.961 . S
C1969 H1977 0.960 . S
C1970 C1968 1.381 . S
C1970 C1971 1.394 . S
C1970 H1978 0.930 . S
C1971 C1970 1.394 . S
C1971 C1972 1.383 . S
C1971 H1979 0.929 . S
C1972 C1971 1.383 . S
C1972 C1973 1.377 . S
C1973 H1957 0.930 . S
C1973 C1972 1.377 . S
C1973 C1974 1.379 . S
C1974 H1958 0.931 . S
C1974 C1968 1.383 . S
C1974 C1973 1.379 . S
H1975 C1969 0.959 . S
H1976 C1969 0.961 . S
H1977 C1969 0.960 . S
H1978 C1970 0.930 . S
H1979 C1971 0.929 . S
H1980 C1988 0.929 . S
H1981 C1990 0.930 . S
H1982 C1992 0.930 . S
H1983 C1995 0.929 . S
H1984 C1998 0.930 . S
H1985 C2000 0.960 . S
H1986 C2000 0.960 . S
H1987 C2000 0.960 . S
C1988 H1980 0.929 . S
C1988 C1989 1.377 . S
C1988 C1990 1.384 . S
C1989 C1988 1.377 . S
C1989 C1995 1.390 . S
C1990 H1981 0.930 . S
C1990 C1988 1.384 . S
C1990 C1991 1.372 . S
C1991 C1990 1.372 . S
C1991 C1992 1.400 . S
C1991 C1996 1.490 . S
C1992 H1982 0.930 . S
C1992 C1991 1.400 . S
C1992 C1995 1.386 . S
H1993 C2009 0.930 . S
H1994 C2010 0.931 . S
C1995 H1983 0.929 . S
C1995 C1989 1.390 . S
C1995 C1992 1.386 . S
C1996 C1991 1.490 . S
C1996 C1998 1.395 . S
C1996 C1999 1.403 . S
H1997 C2003 0.930 . S
C1998 H1984 0.930 . S
C1998 C1996 1.395 . S
C1998 C2001 1.403 . S
C1999 C1996 1.403 . S
C1999 C2000 1.524 . S
C1999 C2003 1.400 . S
C2000 H1985 0.960 . S
C2000 H1986 0.960 . S
C2000 H1987 0.960 . S
C2000 C1999 1.524 . S
C2001 C1998 1.403 . S
C2001 C2002 1.392 . S
C2001 C2005 1.495 . S
C2002 C2001 1.392 . S
C2002 C2003 1.385 . S
C2002 C2004 1.478 . S
C2003 H1997 0.930 . S
C2003 C1999 1.400 . S
C2003 C2002 1.385 . S
C2004 C2002 1.478 . S
C2004 C2006 1.381 . S
C2004 C2010 1.383 . S
C2005 C2001 1.495 . S
C2005 H2011 0.959 . S
C2005 H2012 0.961 . S
C2005 H2013 0.960 . S
C2006 C2004 1.381 . S
C2006 C2007 1.394 . S
C2006 H2014 0.930 . S
C2007 C2006 1.394 . S
C2007 C2008 1.383 . S
C2007 H2015 0.929 . S
C2008 C2007 1.383 . S
C2008 C2009 1.377 . S
C2009 H1993 0.930 . S
C2009 C2008 1.377 . S
C2009 C2010 1.379 . S
C2010 H1994 0.931 . S
C2010 C2004 1.383 . S
C2010 C2009 1.379 . S
H2011 C2005 0.959 . S
H2012 C2005 0.961 . S
H2013 C2005 0.960 . S
H2014 C2006 0.930 . S
H2015 C2007 0.929 . S
H2016 C2024 0.929 . S
H2017 C2026 0.930 . S
H2018 C2028 0.930 . S
H2019 C2031 0.929 . S
H2020 C2034 0.930 . S
H2021 C2036 0.960 . S
H2022 C2036 0.960 . S
H2023 C2036 0.960 . S
C2024 H2016 0.929 . S
C2024 C2025 1.377 . S
C2024 C2026 1.384 . S
C2025 C2024 1.377 . S
C2025 C2031 1.390 . S
C2026 H2017 0.930 . S
C2026 C2024 1.384 . S
C2026 C2027 1.372 . S
C2027 C2026 1.372 . S
C2027 C2028 1.400 . S
C2027 C2032 1.490 . S
C2028 H2018 0.930 . S
C2028 C2027 1.400 . S
C2028 C2031 1.386 . S
H2029 C2045 0.930 . S
H2030 C2046 0.931 . S
C2031 H2019 0.929 . S
C2031 C2025 1.390 . S
C2031 C2028 1.386 . S
C2032 C2027 1.490 . S
C2032 C2034 1.395 . S
C2032 C2035 1.403 . S
H2033 C2039 0.930 . S
C2034 H2020 0.930 . S
C2034 C2032 1.395 . S
C2034 C2037 1.403 . S
C2035 C2032 1.403 . S
C2035 C2036 1.524 . S
C2035 C2039 1.400 . S
C2036 H2021 0.960 . S
C2036 H2022 0.960 . S
C2036 H2023 0.960 . S
C2036 C2035 1.524 . S
C2037 C2034 1.403 . S
C2037 C2038 1.392 . S
C2037 C2041 1.495 . S
C2038 C2037 1.392 . S
C2038 C2039 1.385 . S
C2038 C2040 1.478 . S
C2039 H2033 0.930 . S
C2039 C2035 1.400 . S
C2039 C2038 1.385 . S
C2040 C2038 1.478 . S
C2040 C2042 1.381 . S
C2040 C2046 1.383 . S
C2041 C2037 1.495 . S
C2041 H2047 0.959 . S
C2041 H2048 0.961 . S
C2041 H2049 0.960 . S
C2042 C2040 1.381 . S
C2042 C2043 1.394 . S
C2042 H2050 0.930 . S
C2043 C2042 1.394 . S
C2043 C2044 1.383 . S
C2043 H2051 0.929 . S
C2044 C2043 1.383 . S
C2044 C2045 1.377 . S
C2045 H2029 0.930 . S
C2045 C2044 1.377 . S
C2045 C2046 1.379 . S
C2046 H2030 0.931 . S
C2046 C2040 1.383 . S
C2046 C2045 1.379 . S
H2047 C2041 0.959 . S
H2048 C2041 0.961 . S
H2049 C2041 0.960 . S
H2050 C2042 0.930 . S
H2051 C2043 0.929 . S
H2052 C2060 0.929 . S
H2053 C2062 0.930 . S
H2054 C2064 0.930 . S
H2055 C2067 0.929 . S
H2056 C2070 0.930 . S
H2057 C2072 0.960 . S
H2058 C2072 0.960 . S
H2059 C2072 0.960 . S
C2060 H2052 0.929 . S
C2060 C2061 1.377 . S
C2060 C2062 1.384 . S
C2061 C2060 1.377 . S
C2061 C2067 1.390 . S
C2062 H2053 0.930 . S
C2062 C2060 1.384 . S
C2062 C2063 1.372 . S
C2063 C2062 1.372 . S
C2063 C2064 1.400 . S
C2063 C2068 1.490 . S
C2064 H2054 0.930 . S
C2064 C2063 1.400 . S
C2064 C2067 1.386 . S
H2065 C2081 0.930 . S
H2066 C2082 0.931 . S
C2067 H2055 0.929 . S
C2067 C2061 1.390 . S
C2067 C2064 1.386 . S
C2068 C2063 1.490 . S
C2068 C2070 1.395 . S
C2068 C2071 1.403 . S
H2069 C2075 0.930 . S
C2070 H2056 0.930 . S
C2070 C2068 1.395 . S
C2070 C2073 1.403 . S
C2071 C2068 1.403 . S
C2071 C2072 1.524 . S
C2071 C2075 1.400 . S
C2072 H2057 0.960 . S
C2072 H2058 0.960 . S
C2072 H2059 0.960 . S
C2072 C2071 1.524 . S
C2073 C2070 1.403 . S
C2073 C2074 1.392 . S
C2073 C2077 1.495 . S
C2074 C2073 1.392 . S
C2074 C2075 1.385 . S
C2074 C2076 1.478 . S
C2075 H2069 0.930 . S
C2075 C2071 1.400 . S
C2075 C2074 1.385 . S
C2076 C2074 1.478 . S
C2076 C2078 1.381 . S
C2076 C2082 1.383 . S
C2077 C2073 1.495 . S
C2077 H2083 0.959 . S
C2077 H2084 0.961 . S
C2077 H2085 0.960 . S
C2078 C2076 1.381 . S
C2078 C2079 1.394 . S
C2078 H2086 0.930 . S
C2079 C2078 1.394 . S
C2079 C2080 1.383 . S
C2079 H2087 0.929 . S
C2080 C2079 1.383 . S
C2080 C2081 1.377 . S
C2081 H2065 0.930 . S
C2081 C2080 1.377 . S
C2081 C2082 1.379 . S
C2082 H2066 0.931 . S
C2082 C2076 1.383 . S
C2082 C2081 1.379 . S
H2083 C2077 0.959 . S
H2084 C2077 0.961 . S
H2085 C2077 0.960 . S
H2086 C2078 0.930 . S
H2087 C2079 0.929 . S
H2088 C2096 0.929 . S
H2089 C2098 0.930 . S
H2090 C2100 0.930 . S
H2091 C2103 0.929 . S
H2092 C2106 0.930 . S
H2093 C2108 0.960 . S
H2094 C2108 0.960 . S
H2095 C2108 0.960 . S
C2096 H2088 0.929 . S
C2096 C2097 1.377 . S
C2096 C2098 1.384 . S
C2097 C2096 1.377 . S
C2097 C2103 1.390 . S
C2098 H2089 0.930 . S
C2098 C2096 1.384 . S
C2098 C2099 1.372 . S
C2099 C2098 1.372 . S
C2099 C2100 1.400 . S
C2099 C2104 1.490 . S
C2100 H2090 0.930 . S
C2100 C2099 1.400 . S
C2100 C2103 1.386 . S
H2101 C2117 0.930 . S
H2102 C2118 0.931 . S
C2103 H2091 0.929 . S
C2103 C2097 1.390 . S
C2103 C2100 1.386 . S
C2104 C2099 1.490 . S
C2104 C2106 1.395 . S
C2104 C2107 1.403 . S
H2105 C2111 0.930 . S
C2106 H2092 0.930 . S
C2106 C2104 1.395 . S
C2106 C2109 1.403 . S
C2107 C2104 1.403 . S
C2107 C2108 1.524 . S
C2107 C2111 1.400 . S
C2108 H2093 0.960 . S
C2108 H2094 0.960 . S
C2108 H2095 0.960 . S
C2108 C2107 1.524 . S
C2109 C2106 1.403 . S
C2109 C2110 1.392 . S
C2109 C2113 1.495 . S
C2110 C2109 1.392 . S
C2110 C2111 1.385 . S
C2110 C2112 1.478 . S
C2111 H2105 0.930 . S
C2111 C2107 1.400 . S
C2111 C2110 1.385 . S
C2112 C2110 1.478 . S
C2112 C2114 1.381 . S
C2112 C2118 1.383 . S
C2113 C2109 1.495 . S
C2113 H2119 0.959 . S
C2113 H2120 0.961 . S
C2113 H2121 0.960 . S
C2114 C2112 1.381 . S
C2114 C2115 1.394 . S
C2114 H2122 0.930 . S
C2115 C2114 1.394 . S
C2115 C2116 1.383 . S
C2115 H2123 0.929 . S
C2116 C2115 1.383 . S
C2116 C2117 1.377 . S
C2117 H2101 0.930 . S
C2117 C2116 1.377 . S
C2117 C2118 1.379 . S
C2118 H2102 0.931 . S
C2118 C2112 1.383 . S
C2118 C2117 1.379 . S
H2119 C2113 0.959 . S
H2120 C2113 0.961 . S
H2121 C2113 0.960 . S
H2122 C2114 0.930 . S
H2123 C2115 0.929 . S
H2124 C2132 0.929 . S
H2125 C2134 0.930 . S
H2126 C2136 0.930 . S
H2127 C2139 0.929 . S
H2128 C2142 0.930 . S
H2129 C2144 0.960 . S
H2130 C2144 0.960 . S
H2131 C2144 0.960 . S
C2132 H2124 0.929 . S
C2132 C2133 1.377 . S
C2132 C2134 1.384 . S
C2133 C2132 1.377 . S
C2133 C2139 1.390 . S
C2134 H2125 0.930 . S
C2134 C2132 1.384 . S
C2134 C2135 1.372 . S
C2135 C2134 1.372 . S
C2135 C2136 1.400 . S
C2135 C2140 1.490 . S
C2136 H2126 0.930 . S
C2136 C2135 1.400 . S
C2136 C2139 1.386 . S
H2137 C2153 0.930 . S
H2138 C2154 0.931 . S
C2139 H2127 0.929 . S
C2139 C2133 1.390 . S
C2139 C2136 1.386 . S
C2140 C2135 1.490 . S
C2140 C2142 1.395 . S
C2140 C2143 1.403 . S
H2141 C2147 0.930 . S
C2142 H2128 0.930 . S
C2142 C2140 1.395 . S
C2142 C2145 1.403 . S
C2143 C2140 1.403 . S
C2143 C2144 1.524 . S
C2143 C2147 1.400 . S
C2144 H2129 0.960 . S
C2144 H2130 0.960 . S
C2144 H2131 0.960 . S
C2144 C2143 1.524 . S
C2145 C2142 1.403 . S
C2145 C2146 1.392 . S
C2145 C2149 1.495 . S
C2146 C2145 1.392 . S
C2146 C2147 1.385 . S
C2146 C2148 1.478 . S
C2147 H2141 0.930 . S
C2147 C2143 1.400 . S
C2147 C2146 1.385 . S
C2148 C2146 1.478 . S
C2148 C2150 1.381 . S
C2148 C2154 1.383 . S
C2149 C2145 1.495 . S
C2149 H2155 0.959 . S
C2149 H2156 0.961 . S
C2149 H2157 0.960 . S
C2150 C2148 1.381 . S
C2150 C2151 1.394 . S
C2150 H2158 0.930 . S
C2151 C2150 1.394 . S
C2151 C2152 1.383 . S
C2151 H2159 0.929 . S
C2152 C2151 1.383 . S
C2152 C2153 1.377 . S
C2153 H2137 0.930 . S
C2153 C2152 1.377 . S
C2153 C2154 1.379 . S
C2154 H2138 0.931 . S
C2154 C2148 1.383 . S
C2154 C2153 1.379 . S
H2155 C2149 0.959 . S
H2156 C2149 0.961 . S
H2157 C2149 0.960 . S
H2158 C2150 0.930 . S
H2159 C2151 0.929 . S
H2160 C2168 0.929 . S
H2161 C2170 0.930 . S
H2162 C2172 0.930 . S
H2163 C2175 0.929 . S
H2164 C2178 0.930 . S
H2165 C2180 0.960 . S
H2166 C2180 0.960 . S
H2167 C2180 0.960 . S
C2168 H2160 0.929 . S
C2168 C2169 1.377 . S
C2168 C2170 1.384 . S
C2169 C2168 1.377 . S
C2169 C2175 1.390 . S
C2170 H2161 0.930 . S
C2170 C2168 1.384 . S
C2170 C2171 1.372 . S
C2171 C2170 1.372 . S
C2171 C2172 1.400 . S
C2171 C2176 1.490 . S
C2172 H2162 0.930 . S
C2172 C2171 1.400 . S
C2172 C2175 1.386 . S
H2173 C2189 0.930 . S
H2174 C2190 0.931 . S
C2175 H2163 0.929 . S
C2175 C2169 1.390 . S
C2175 C2172 1.386 . S
C2176 C2171 1.490 . S
C2176 C2178 1.395 . S
C2176 C2179 1.403 . S
H2177 C2183 0.930 . S
C2178 H2164 0.930 . S
C2178 C2176 1.395 . S
C2178 C2181 1.403 . S
C2179 C2176 1.403 . S
C2179 C2180 1.524 . S
C2179 C2183 1.400 . S
C2180 H2165 0.960 . S
C2180 H2166 0.960 . S
C2180 H2167 0.960 . S
C2180 C2179 1.524 . S
C2181 C2178 1.403 . S
C2181 C2182 1.392 . S
C2181 C2185 1.495 . S
C2182 C2181 1.392 . S
C2182 C2183 1.385 . S
C2182 C2184 1.478 . S
C2183 H2177 0.930 . S
C2183 C2179 1.400 . S
C2183 C2182 1.385 . S
C2184 C2182 1.478 . S
C2184 C2186 1.381 . S
C2184 C2190 1.383 . S
C2185 C2181 1.495 . S
C2185 H2191 0.959 . S
C2185 H2192 0.961 . S
C2185 H2193 0.960 . S
C2186 C2184 1.381 . S
C2186 C2187 1.394 . S
C2186 H2194 0.930 . S
C2187 C2186 1.394 . S
C2187 C2188 1.383 . S
C2187 H2195 0.929 . S
C2188 C2187 1.383 . S
C2188 C2189 1.377 . S
C2189 H2173 0.930 . S
C2189 C2188 1.377 . S
C2189 C2190 1.379 . S
C2190 H2174 0.931 . S
C2190 C2184 1.383 . S
C2190 C2189 1.379 . S
H2191 C2185 0.959 . S
H2192 C2185 0.961 . S
H2193 C2185 0.960 . S
H2194 C2186 0.930 . S
H2195 C2187 0.929 . S
H2196 C2204 0.929 . S
H2197 C2206 0.930 . S
H2198 C2208 0.930 . S
H2199 C2211 0.929 . S
H2200 C2214 0.930 . S
H2201 C2216 0.960 . S
H2202 C2216 0.960 . S
H2203 C2216 0.960 . S
C2204 H2196 0.929 . S
C2204 C2205 1.377 . S
C2204 C2206 1.384 . S
C2205 C2204 1.377 . S
C2205 C2211 1.390 . S
C2206 H2197 0.930 . S
C2206 C2204 1.384 . S
C2206 C2207 1.372 . S
C2207 C2206 1.372 . S
C2207 C2208 1.400 . S
C2207 C2212 1.490 . S
C2208 H2198 0.930 . S
C2208 C2207 1.400 . S
C2208 C2211 1.386 . S
H2209 C2225 0.930 . S
H2210 C2226 0.931 . S
C2211 H2199 0.929 . S
C2211 C2205 1.390 . S
C2211 C2208 1.386 . S
C2212 C2207 1.490 . S
C2212 C2214 1.395 . S
C2212 C2215 1.403 . S
H2213 C2219 0.930 . S
C2214 H2200 0.930 . S
C2214 C2212 1.395 . S
C2214 C2217 1.403 . S
C2215 C2212 1.403 . S
C2215 C2216 1.524 . S
C2215 C2219 1.400 . S
C2216 H2201 0.960 . S
C2216 H2202 0.960 . S
C2216 H2203 0.960 . S
C2216 C2215 1.524 . S
C2217 C2214 1.403 . S
C2217 C2218 1.392 . S
C2217 C2221 1.495 . S
C2218 C2217 1.392 . S
C2218 C2219 1.385 . S
C2218 C2220 1.478 . S
C2219 H2213 0.930 . S
C2219 C2215 1.400 . S
C2219 C2218 1.385 . S
C2220 C2218 1.478 . S
C2220 C2222 1.381 . S
C2220 C2226 1.383 . S
C2221 C2217 1.495 . S
C2221 H2227 0.959 . S
C2221 H2228 0.961 . S
C2221 H2229 0.960 . S
C2222 C2220 1.381 . S
C2222 C2223 1.394 . S
C2222 H2230 0.930 . S
C2223 C2222 1.394 . S
C2223 C2224 1.383 . S
C2223 H2231 0.929 . S
C2224 C2223 1.383 . S
C2224 C2225 1.377 . S
C2225 H2209 0.930 . S
C2225 C2224 1.377 . S
C2225 C2226 1.379 . S
C2226 H2210 0.931 . S
C2226 C2220 1.383 . S
C2226 C2225 1.379 . S
H2227 C2221 0.959 . S
H2228 C2221 0.961 . S
H2229 C2221 0.960 . S
H2230 C2222 0.930 . S
H2231 C2223 0.929 . S
H2232 C2240 0.929 . S
H2233 C2242 0.930 . S
H2234 C2244 0.930 . S
H2235 C2247 0.929 . S
H2236 C2250 0.930 . S
H2237 C2252 0.960 . S
H2238 C2252 0.960 . S
H2239 C2252 0.960 . S
C2240 H2232 0.929 . S
C2240 C2241 1.377 . S
C2240 C2242 1.384 . S
C2241 C2240 1.377 . S
C2241 C2247 1.390 . S
C2242 H2233 0.930 . S
C2242 C2240 1.384 . S
C2242 C2243 1.372 . S
C2243 C2242 1.372 . S
C2243 C2244 1.400 . S
C2243 C2248 1.490 . S
C2244 H2234 0.930 . S
C2244 C2243 1.400 . S
C2244 C2247 1.386 . S
H2245 C2261 0.930 . S
H2246 C2262 0.931 . S
C2247 H2235 0.929 . S
C2247 C2241 1.390 . S
C2247 C2244 1.386 . S
C2248 C2243 1.490 . S
C2248 C2250 1.395 . S
C2248 C2251 1.403 . S
H2249 C2255 0.930 . S
C2250 H2236 0.930 . S
C2250 C2248 1.395 . S
C2250 C2253 1.403 . S
C2251 C2248 1.403 . S
C2251 C2252 1.524 . S
C2251 C2255 1.400 . S
C2252 H2237 0.960 . S
C2252 H2238 0.960 . S
C2252 H2239 0.960 . S
C2252 C2251 1.524 . S
C2253 C2250 1.403 . S
C2253 C2254 1.392 . S
C2253 C2257 1.495 . S
C2254 C2253 1.392 . S
C2254 C2255 1.385 . S
C2254 C2256 1.478 . S
C2255 H2249 0.930 . S
C2255 C2251 1.400 . S
C2255 C2254 1.385 . S
C2256 C2254 1.478 . S
C2256 C2258 1.381 . S
C2256 C2262 1.383 . S
C2257 C2253 1.495 . S
C2257 H2263 0.959 . S
C2257 H2264 0.961 . S
C2257 H2265 0.960 . S
C2258 C2256 1.381 . S
C2258 C2259 1.394 . S
C2258 H2266 0.930 . S
C2259 C2258 1.394 . S
C2259 C2260 1.383 . S
C2259 H2267 0.929 . S
C2260 C2259 1.383 . S
C2260 C2261 1.377 . S
C2261 H2245 0.930 . S
C2261 C2260 1.377 . S
C2261 C2262 1.379 . S
C2262 H2246 0.931 . S
C2262 C2256 1.383 . S
C2262 C2261 1.379 . S
H2263 C2257 0.959 . S
H2264 C2257 0.961 . S
H2265 C2257 0.960 . S
H2266 C2258 0.930 . S
H2267 C2259 0.929 . S
H2268 C2276 0.929 . S
H2269 C2278 0.930 . S
H2270 C2280 0.930 . S
H2271 C2283 0.929 . S
H2272 C2286 0.930 . S
H2273 C2288 0.960 . S
H2274 C2288 0.960 . S
H2275 C2288 0.960 . S
C2276 H2268 0.929 . S
C2276 C2277 1.377 . S
C2276 C2278 1.384 . S
C2277 C2276 1.377 . S
C2277 C2283 1.390 . S
C2278 H2269 0.930 . S
C2278 C2276 1.384 . S
C2278 C2279 1.372 . S
C2279 C2278 1.372 . S
C2279 C2280 1.400 . S
C2279 C2284 1.490 . S
C2280 H2270 0.930 . S
C2280 C2279 1.400 . S
C2280 C2283 1.386 . S
H2281 C2297 0.930 . S
H2282 C2298 0.931 . S
C2283 H2271 0.929 . S
C2283 C2277 1.390 . S
C2283 C2280 1.386 . S
C2284 C2279 1.490 . S
C2284 C2286 1.395 . S
C2284 C2287 1.403 . S
H2285 C2291 0.930 . S
C2286 H2272 0.930 . S
C2286 C2284 1.395 . S
C2286 C2289 1.403 . S
C2287 C2284 1.403 . S
C2287 C2288 1.524 . S
C2287 C2291 1.400 . S
C2288 H2273 0.960 . S
C2288 H2274 0.960 . S
C2288 H2275 0.960 . S
C2288 C2287 1.524 . S
C2289 C2286 1.403 . S
C2289 C2290 1.392 . S
C2289 C2293 1.495 . S
C2290 C2289 1.392 . S
C2290 C2291 1.385 . S
C2290 C2292 1.478 . S
C2291 H2285 0.930 . S
C2291 C2287 1.400 . S
C2291 C2290 1.385 . S
C2292 C2290 1.478 . S
C2292 C2294 1.381 . S
C2292 C2298 1.383 . S
C2293 C2289 1.495 . S
C2293 H2299 0.959 . S
C2293 H2300 0.961 . S
C2293 H2301 0.960 . S
C2294 C2292 1.381 . S
C2294 C2295 1.394 . S
C2294 H2302 0.930 . S
C2295 C2294 1.394 . S
C2295 C2296 1.383 . S
C2295 H2303 0.929 . S
C2296 C2295 1.383 . S
C2296 C2297 1.377 . S
C2297 H2281 0.930 . S
C2297 C2296 1.377 . S
C2297 C2298 1.379 . S
C2298 H2282 0.931 . S
C2298 C2292 1.383 . S
C2298 C2297 1.379 . S
H2299 C2293 0.959 . S
H2300 C2293 0.961 . S
H2301 C2293 0.960 . S
H2302 C2294 0.930 . S
H2303 C2295 0.929 . S
H2304 C2312 0.929 . S
H2305 C2314 0.930 . S
H2306 C2316 0.930 . S
H2307 C2319 0.929 . S
H2308 C2322 0.930 . S
H2309 C2324 0.960 . S
H2310 C2324 0.960 . S
H2311 C2324 0.960 . S
C2312 H2304 0.929 . S
C2312 C2313 1.377 . S
C2312 C2314 1.384 . S
C2313 C2312 1.377 . S
C2313 C2319 1.390 . S
C2314 H2305 0.930 . S
C2314 C2312 1.384 . S
C2314 C2315 1.372 . S
C2315 C2314 1.372 . S
C2315 C2316 1.400 . S
C2315 C2320 1.490 . S
C2316 H2306 0.930 . S
C2316 C2315 1.400 . S
C2316 C2319 1.386 . S
H2317 C2333 0.930 . S
H2318 C2334 0.931 . S
C2319 H2307 0.929 . S
C2319 C2313 1.390 . S
C2319 C2316 1.386 . S
C2320 C2315 1.490 . S
C2320 C2322 1.395 . S
C2320 C2323 1.403 . S
H2321 C2327 0.930 . S
C2322 H2308 0.930 . S
C2322 C2320 1.395 . S
C2322 C2325 1.403 . S
C2323 C2320 1.403 . S
C2323 C2324 1.524 . S
C2323 C2327 1.400 . S
C2324 H2309 0.960 . S
C2324 H2310 0.960 . S
C2324 H2311 0.960 . S
C2324 C2323 1.524 . S
C2325 C2322 1.403 . S
C2325 C2326 1.392 . S
C2325 C2329 1.495 . S
C2326 C2325 1.392 . S
C2326 C2327 1.385 . S
C2326 C2328 1.478 . S
C2327 H2321 0.930 . S
C2327 C2323 1.400 . S
C2327 C2326 1.385 . S
C2328 C2326 1.478 . S
C2328 C2330 1.381 . S
C2328 C2334 1.383 . S
C2329 C2325 1.495 . S
C2329 H2335 0.959 . S
C2329 H2336 0.961 . S
C2329 H2337 0.960 . S
C2330 C2328 1.381 . S
C2330 C2331 1.394 . S
C2330 H2338 0.930 . S
C2331 C2330 1.394 . S
C2331 C2332 1.383 . S
C2331 H2339 0.929 . S
C2332 C2331 1.383 . S
C2332 C2333 1.377 . S
C2333 H2317 0.930 . S
C2333 C2332 1.377 . S
C2333 C2334 1.379 . S
C2334 H2318 0.931 . S
C2334 C2328 1.383 . S
C2334 C2333 1.379 . S
H2335 C2329 0.959 . S
H2336 C2329 0.961 . S
H2337 C2329 0.960 . S
H2338 C2330 0.930 . S
H2339 C2331 0.929 . S
H2340 C2348 0.929 . S
H2341 C2350 0.930 . S
H2342 C2352 0.930 . S
H2343 C2355 0.929 . S
H2344 C2358 0.930 . S
H2345 C2360 0.960 . S
H2346 C2360 0.960 . S
H2347 C2360 0.960 . S
C2348 H2340 0.929 . S
C2348 C2349 1.377 . S
C2348 C2350 1.384 . S
C2349 C2348 1.377 . S
C2349 C2355 1.390 . S
C2350 H2341 0.930 . S
C2350 C2348 1.384 . S
C2350 C2351 1.372 . S
C2351 C2350 1.372 . S
C2351 C2352 1.400 . S
C2351 C2356 1.490 . S
C2352 H2342 0.930 . S
C2352 C2351 1.400 . S
C2352 C2355 1.386 . S
H2353 C2369 0.930 . S
H2354 C2370 0.931 . S
C2355 H2343 0.929 . S
C2355 C2349 1.390 . S
C2355 C2352 1.386 . S
C2356 C2351 1.490 . S
C2356 C2358 1.395 . S
C2356 C2359 1.403 . S
H2357 C2363 0.930 . S
C2358 H2344 0.930 . S
C2358 C2356 1.395 . S
C2358 C2361 1.403 . S
C2359 C2356 1.403 . S
C2359 C2360 1.524 . S
C2359 C2363 1.400 . S
C2360 H2345 0.960 . S
C2360 H2346 0.960 . S
C2360 H2347 0.960 . S
C2360 C2359 1.524 . S
C2361 C2358 1.403 . S
C2361 C2362 1.392 . S
C2361 C2365 1.495 . S
C2362 C2361 1.392 . S
C2362 C2363 1.385 . S
C2362 C2364 1.478 . S
C2363 H2357 0.930 . S
C2363 C2359 1.400 . S
C2363 C2362 1.385 . S
C2364 C2362 1.478 . S
C2364 C2366 1.381 . S
C2364 C2370 1.383 . S
C2365 C2361 1.495 . S
C2365 H2371 0.959 . S
C2365 H2372 0.961 . S
C2365 H2373 0.960 . S
C2366 C2364 1.381 . S
C2366 C2367 1.394 . S
C2366 H2374 0.930 . S
C2367 C2366 1.394 . S
C2367 C2368 1.383 . S
C2367 H2375 0.929 . S
C2368 C2367 1.383 . S
C2368 C2369 1.377 . S
C2369 H2353 0.930 . S
C2369 C2368 1.377 . S
C2369 C2370 1.379 . S
C2370 H2354 0.931 . S
C2370 C2364 1.383 . S
C2370 C2369 1.379 . S
H2371 C2365 0.959 . S
H2372 C2365 0.961 . S
H2373 C2365 0.960 . S
H2374 C2366 0.930 . S
H2375 C2367 0.929 . S
H2376 C2384 0.929 . S
H2377 C2386 0.930 . S
H2378 C2388 0.930 . S
H2379 C2391 0.929 . S
H2380 C2394 0.930 . S
H2381 C2396 0.960 . S
H2382 C2396 0.960 . S
H2383 C2396 0.960 . S
C2384 H2376 0.929 . S
C2384 C2385 1.377 . S
C2384 C2386 1.384 . S
C2385 C2384 1.377 . S
C2385 C2391 1.390 . S
C2386 H2377 0.930 . S
C2386 C2384 1.384 . S
C2386 C2387 1.372 . S
C2387 C2386 1.372 . S
C2387 C2388 1.400 . S
C2387 C2392 1.490 . S
C2388 H2378 0.930 . S
C2388 C2387 1.400 . S
C2388 C2391 1.386 . S
H2389 C2405 0.930 . S
H2390 C2406 0.931 . S
C2391 H2379 0.929 . S
C2391 C2385 1.390 . S
C2391 C2388 1.386 . S
C2392 C2387 1.490 . S
C2392 C2394 1.395 . S
C2392 C2395 1.403 . S
H2393 C2399 0.930 . S
C2394 H2380 0.930 . S
C2394 C2392 1.395 . S
C2394 C2397 1.403 . S
C2395 C2392 1.403 . S
C2395 C2396 1.524 . S
C2395 C2399 1.400 . S
C2396 H2381 0.960 . S
C2396 H2382 0.960 . S
C2396 H2383 0.960 . S
C2396 C2395 1.524 . S
C2397 C2394 1.403 . S
C2397 C2398 1.392 . S
C2397 C2401 1.495 . S
C2398 C2397 1.392 . S
C2398 C2399 1.385 . S
C2398 C2400 1.478 . S
C2399 H2393 0.930 . S
C2399 C2395 1.400 . S
C2399 C2398 1.385 . S
C2400 C2398 1.478 . S
C2400 C2402 1.381 . S
C2400 C2406 1.383 . S
C2401 C2397 1.495 . S
C2401 H2407 0.959 . S
C2401 H2408 0.961 . S
C2401 H2409 0.960 . S
C2402 C2400 1.381 . S
C2402 C2403 1.394 . S
C2402 H2410 0.930 . S
C2403 C2402 1.394 . S
C2403 C2404 1.383 . S
C2403 H2411 0.929 . S
C2404 C2403 1.383 . S
C2404 C2405 1.377 . S
C2405 H2389 0.930 . S
C2405 C2404 1.377 . S
C2405 C2406 1.379 . S
C2406 H2390 0.931 . S
C2406 C2400 1.383 . S
C2406 C2405 1.379 . S
H2407 C2401 0.959 . S
H2408 C2401 0.961 . S
H2409 C2401 0.960 . S
H2410 C2402 0.930 . S
H2411 C2403 0.929 . S
H2412 C2420 0.929 . S
H2413 C2422 0.930 . S
H2414 C2424 0.930 . S
H2415 C2427 0.929 . S
H2416 C2430 0.930 . S
H2417 C2432 0.960 . S
H2418 C2432 0.960 . S
H2419 C2432 0.960 . S
C2420 H2412 0.929 . S
C2420 C2421 1.377 . S
C2420 C2422 1.384 . S
C2421 C2420 1.377 . S
C2421 C2427 1.390 . S
C2422 H2413 0.930 . S
C2422 C2420 1.384 . S
C2422 C2423 1.372 . S
C2423 C2422 1.372 . S
C2423 C2424 1.400 . S
C2423 C2428 1.490 . S
C2424 H2414 0.930 . S
C2424 C2423 1.400 . S
C2424 C2427 1.386 . S
H2425 C2441 0.930 . S
H2426 C2442 0.931 . S
C2427 H2415 0.929 . S
C2427 C2421 1.390 . S
C2427 C2424 1.386 . S
C2428 C2423 1.490 . S
C2428 C2430 1.395 . S
C2428 C2431 1.403 . S
H2429 C2435 0.930 . S
C2430 H2416 0.930 . S
C2430 C2428 1.395 . S
C2430 C2433 1.403 . S
C2431 C2428 1.403 . S
C2431 C2432 1.524 . S
C2431 C2435 1.400 . S
C2432 H2417 0.960 . S
C2432 H2418 0.960 . S
C2432 H2419 0.960 . S
C2432 C2431 1.524 . S
C2433 C2430 1.403 . S
C2433 C2434 1.392 . S
C2433 C2437 1.495 . S
C2434 C2433 1.392 . S
C2434 C2435 1.385 . S
C2434 C2436 1.478 . S
C2435 H2429 0.930 . S
C2435 C2431 1.400 . S
C2435 C2434 1.385 . S
C2436 C2434 1.478 . S
C2436 C2438 1.381 . S
C2436 C2442 1.383 . S
C2437 C2433 1.495 . S
C2437 H2443 0.959 . S
C2437 H2444 0.961 . S
C2437 H2445 0.960 . S
C2438 C2436 1.381 . S
C2438 C2439 1.394 . S
C2438 H2446 0.930 . S
C2439 C2438 1.394 . S
C2439 C2440 1.383 . S
C2439 H2447 0.929 . S
C2440 C2439 1.383 . S
C2440 C2441 1.377 . S
C2441 H2425 0.930 . S
C2441 C2440 1.377 . S
C2441 C2442 1.379 . S
C2442 H2426 0.931 . S
C2442 C2436 1.383 . S
C2442 C2441 1.379 . S
H2443 C2437 0.959 . S
H2444 C2437 0.961 . S
H2445 C2437 0.960 . S
H2446 C2438 0.930 . S
H2447 C2439 0.929 . S
H2448 C2456 0.929 . S
H2449 C2458 0.930 . S
H2450 C2460 0.930 . S
H2451 C2463 0.929 . S
H2452 C2466 0.930 . S
H2453 C2468 0.960 . S
H2454 C2468 0.960 . S
H2455 C2468 0.960 . S
C2456 H2448 0.929 . S
C2456 C2457 1.377 . S
C2456 C2458 1.384 . S
C2457 C2456 1.377 . S
C2457 C2463 1.390 . S
C2458 H2449 0.930 . S
C2458 C2456 1.384 . S
C2458 C2459 1.372 . S
C2459 C2458 1.372 . S
C2459 C2460 1.400 . S
C2459 C2464 1.490 . S
C2460 H2450 0.930 . S
C2460 C2459 1.400 . S
C2460 C2463 1.386 . S
H2461 C2477 0.930 . S
H2462 C2478 0.931 . S
C2463 H2451 0.929 . S
C2463 C2457 1.390 . S
C2463 C2460 1.386 . S
C2464 C2459 1.490 . S
C2464 C2466 1.395 . S
C2464 C2467 1.403 . S
H2465 C2471 0.930 . S
C2466 H2452 0.930 . S
C2466 C2464 1.395 . S
C2466 C2469 1.403 . S
C2467 C2464 1.403 . S
C2467 C2468 1.524 . S
C2467 C2471 1.400 . S
C2468 H2453 0.960 . S
C2468 H2454 0.960 . S
C2468 H2455 0.960 . S
C2468 C2467 1.524 . S
C2469 C2466 1.403 . S
C2469 C2470 1.392 . S
C2469 C2473 1.495 . S
C2470 C2469 1.392 . S
C2470 C2471 1.385 . S
C2470 C2472 1.478 . S
C2471 H2465 0.930 . S
C2471 C2467 1.400 . S
C2471 C2470 1.385 . S
C2472 C2470 1.478 . S
C2472 C2474 1.381 . S
C2472 C2478 1.383 . S
C2473 C2469 1.495 . S
C2473 H2479 0.959 . S
C2473 H2480 0.961 . S
C2473 H2481 0.960 . S
C2474 C2472 1.381 . S
C2474 C2475 1.394 . S
C2474 H2482 0.930 . S
C2475 C2474 1.394 . S
C2475 C2476 1.383 . S
C2475 H2483 0.929 . S
C2476 C2475 1.383 . S
C2476 C2477 1.377 . S
C2477 H2461 0.930 . S
C2477 C2476 1.377 . S
C2477 C2478 1.379 . S
C2478 H2462 0.931 . S
C2478 C2472 1.383 . S
C2478 C2477 1.379 . S
H2479 C2473 0.959 . S
H2480 C2473 0.961 . S
H2481 C2473 0.960 . S
H2482 C2474 0.930 . S
H2483 C2475 0.929 . S
H2484 C2492 0.929 . S
H2485 C2494 0.930 . S
H2486 C2496 0.930 . S
H2487 C2499 0.929 1_554 S
H2488 C2502 0.930 . S
H2489 C2504 0.960 . S
H2490 C2504 0.960 . S
H2491 C2504 0.960 . S
C2492 H2484 0.929 . S
C2492 C2493 1.377 . S
C2492 C2494 1.384 . S
C2493 C2492 1.377 . S
C2493 C2499 1.390 . S
C2494 H2485 0.930 . S
C2494 C2492 1.384 . S
C2494 C2495 1.372 . S
C2495 C2494 1.372 . S
C2495 C2496 1.400 . S
C2495 C2500 1.490 . S
C2496 H2486 0.930 . S
C2496 C2495 1.400 . S
C2496 C2499 1.386 . S
H2497 C2513 0.930 . S
H2498 C2514 0.931 . S
C2499 H2487 0.929 1_556 S
C2499 C2493 1.390 . S
C2499 C2496 1.386 . S
C2500 C2495 1.490 . S
C2500 C2502 1.395 . S
C2500 C2503 1.403 . S
H2501 C2507 0.930 . S
C2502 H2488 0.930 . S
C2502 C2500 1.395 . S
C2502 C2505 1.403 . S
C2503 C2500 1.403 . S
C2503 C2504 1.524 . S
C2503 C2507 1.400 . S
C2504 H2489 0.960 . S
C2504 H2490 0.960 . S
C2504 H2491 0.960 . S
C2504 C2503 1.524 . S
C2505 C2502 1.403 . S
C2505 C2506 1.392 . S
C2505 C2509 1.495 . S
C2506 C2505 1.392 . S
C2506 C2507 1.385 . S
C2506 C2508 1.478 . S
C2507 H2501 0.930 . S
C2507 C2503 1.400 . S
C2507 C2506 1.385 . S
C2508 C2506 1.478 . S
C2508 C2510 1.381 . S
C2508 C2514 1.383 . S
C2509 C2505 1.495 . S
C2509 H2515 0.959 . S
C2509 H2516 0.961 . S
C2509 H2517 0.960 . S
C2510 C2508 1.381 . S
C2510 C2511 1.394 . S
C2510 H2518 0.930 . S
C2511 C2510 1.394 . S
C2511 C2512 1.383 . S
C2511 H2519 0.929 . S
C2512 C2511 1.383 . S
C2512 C2513 1.377 . S
C2513 H2497 0.930 . S
C2513 C2512 1.377 . S
C2513 C2514 1.379 . S
C2514 H2498 0.931 . S
C2514 C2508 1.383 . S
C2514 C2513 1.379 . S
H2515 C2509 0.959 . S
H2516 C2509 0.961 . S
H2517 C2509 0.960 . S
H2518 C2510 0.930 . S
H2519 C2511 0.929 . S
H2520 C2528 0.929 1_554 S
H2521 C2530 0.930 . S
H2522 C2532 0.930 . S
H2523 C2535 0.929 . S
H2524 C2538 0.930 . S
H2525 C2540 0.960 . S
H2526 C2540 0.960 . S
H2527 C2540 0.960 . S
C2528 H2520 0.929 1_556 S
C2528 C2529 1.377 . S
C2528 C2530 1.384 . S
C2529 C2528 1.377 . S
C2529 C2535 1.390 . S
C2530 H2521 0.930 . S
C2530 C2528 1.384 . S
C2530 C2531 1.372 . S
C2531 C2530 1.372 . S
C2531 C2532 1.400 . S
C2531 C2536 1.490 . S
C2532 H2522 0.930 . S
C2532 C2531 1.400 . S
C2532 C2535 1.386 . S
H2533 C2549 0.930 . S
H2534 C2550 0.931 . S
C2535 H2523 0.929 . S
C2535 C2529 1.390 . S
C2535 C2532 1.386 . S
C2536 C2531 1.490 . S
C2536 C2538 1.395 . S
C2536 C2539 1.403 . S
H2537 C2543 0.930 . S
C2538 H2524 0.930 . S
C2538 C2536 1.395 . S
C2538 C2541 1.403 . S
C2539 C2536 1.403 . S
C2539 C2540 1.524 . S
C2539 C2543 1.400 . S
C2540 H2525 0.960 . S
C2540 H2526 0.960 . S
C2540 H2527 0.960 . S
C2540 C2539 1.524 . S
C2541 C2538 1.403 . S
C2541 C2542 1.392 . S
C2541 C2545 1.495 . S
C2542 C2541 1.392 . S
C2542 C2543 1.385 . S
C2542 C2544 1.478 . S
C2543 H2537 0.930 . S
C2543 C2539 1.400 . S
C2543 C2542 1.385 . S
C2544 C2542 1.478 . S
C2544 C2546 1.381 . S
C2544 C2550 1.383 . S
C2545 C2541 1.495 . S
C2545 H2551 0.959 . S
C2545 H2552 0.961 . S
C2545 H2553 0.960 . S
C2546 C2544 1.381 . S
C2546 C2547 1.394 . S
C2546 H2554 0.930 . S
C2547 C2546 1.394 . S
C2547 C2548 1.383 . S
C2547 H2555 0.929 . S
C2548 C2547 1.383 . S
C2548 C2549 1.377 . S
C2549 H2533 0.930 . S
C2549 C2548 1.377 . S
C2549 C2550 1.379 . S
C2550 H2534 0.931 . S
C2550 C2544 1.383 . S
C2550 C2549 1.379 . S
H2551 C2545 0.959 . S
H2552 C2545 0.961 . S
H2553 C2545 0.960 . S
H2554 C2546 0.930 . S
H2555 C2547 0.929 . S
H2556 C2564 0.929 . S
H2557 C2566 0.930 . S
H2558 C2568 0.930 . S
H2559 C2571 0.929 . S
H2560 C2574 0.930 . S
H2561 C2576 0.960 . S
H2562 C2576 0.960 . S
H2563 C2576 0.960 . S
C2564 H2556 0.929 . S
C2564 C2565 1.377 . S
C2564 C2566 1.384 . S
C2565 C2564 1.377 . S
C2565 C2571 1.390 . S
C2566 H2557 0.930 . S
C2566 C2564 1.384 . S
C2566 C2567 1.372 . S
C2567 C2566 1.372 . S
C2567 C2568 1.400 . S
C2567 C2572 1.490 . S
C2568 H2558 0.930 . S
C2568 C2567 1.400 . S
C2568 C2571 1.386 . S
H2569 C2585 0.930 . S
H2570 C2586 0.931 . S
C2571 H2559 0.929 . S
C2571 C2565 1.390 . S
C2571 C2568 1.386 . S
C2572 C2567 1.490 . S
C2572 C2574 1.395 . S
C2572 C2575 1.403 . S
H2573 C2579 0.930 . S
C2574 H2560 0.930 . S
C2574 C2572 1.395 . S
C2574 C2577 1.403 . S
C2575 C2572 1.403 . S
C2575 C2576 1.524 . S
C2575 C2579 1.400 . S
C2576 H2561 0.960 . S
C2576 H2562 0.960 . S
C2576 H2563 0.960 . S
C2576 C2575 1.524 . S
C2577 C2574 1.403 . S
C2577 C2578 1.392 . S
C2577 C2581 1.495 . S
C2578 C2577 1.392 . S
C2578 C2579 1.385 . S
C2578 C2580 1.478 . S
C2579 H2573 0.930 . S
C2579 C2575 1.400 . S
C2579 C2578 1.385 . S
C2580 C2578 1.478 . S
C2580 C2582 1.381 . S
C2580 C2586 1.383 . S
C2581 C2577 1.495 . S
C2581 H2587 0.959 . S
C2581 H2588 0.961 . S
C2581 H2589 0.960 . S
C2582 C2580 1.381 . S
C2582 C2583 1.394 . S
C2582 H2590 0.930 . S
C2583 C2582 1.394 . S
C2583 C2584 1.383 . S
C2583 H2591 0.929 . S
C2584 C2583 1.383 . S
C2584 C2585 1.377 . S
C2585 H2569 0.930 . S
C2585 C2584 1.377 . S
C2585 C2586 1.379 . S
C2586 H2570 0.931 . S
C2586 C2580 1.383 . S
C2586 C2585 1.379 . S
H2587 C2581 0.959 . S
H2588 C2581 0.961 . S
H2589 C2581 0.960 . S
H2590 C2582 0.930 . S
H2591 C2583 0.929 . S
H2592 C2600 0.929 1_554 S
H2593 C2602 0.930 . S
H2594 C2604 0.930 . S
H2595 C2607 0.929 . S
H2596 C2610 0.930 . S
H2597 C2612 0.960 . S
H2598 C2612 0.960 . S
H2599 C2612 0.960 . S
C2600 H2592 0.929 1_556 S
C2600 C2601 1.377 . S
C2600 C2602 1.384 . S
C2601 C2600 1.377 . S
C2601 C2607 1.390 . S
C2602 H2593 0.930 . S
C2602 C2600 1.384 . S
C2602 C2603 1.372 . S
C2603 C2602 1.372 . S
C2603 C2604 1.400 . S
C2603 C2608 1.490 . S
C2604 H2594 0.930 . S
C2604 C2603 1.400 . S
C2604 C2607 1.386 . S
H2605 C2621 0.930 . S
H2606 C2622 0.931 . S
C2607 H2595 0.929 . S
C2607 C2601 1.390 . S
C2607 C2604 1.386 . S
C2608 C2603 1.490 . S
C2608 C2610 1.395 . S
C2608 C2611 1.403 . S
H2609 C2615 0.930 . S
C2610 H2596 0.930 . S
C2610 C2608 1.395 . S
C2610 C2613 1.403 . S
C2611 C2608 1.403 . S
C2611 C2612 1.524 . S
C2611 C2615 1.400 . S
C2612 H2597 0.960 . S
C2612 H2598 0.960 . S
C2612 H2599 0.960 . S
C2612 C2611 1.524 . S
C2613 C2610 1.403 . S
C2613 C2614 1.392 . S
C2613 C2617 1.495 . S
C2614 C2613 1.392 . S
C2614 C2615 1.385 . S
C2614 C2616 1.478 . S
C2615 H2609 0.930 . S
C2615 C2611 1.400 . S
C2615 C2614 1.385 . S
C2616 C2614 1.478 . S
C2616 C2618 1.381 . S
C2616 C2622 1.383 . S
C2617 C2613 1.495 . S
C2617 H2623 0.959 . S
C2617 H2624 0.961 . S
C2617 H2625 0.960 . S
C2618 C2616 1.381 . S
C2618 C2619 1.394 . S
C2618 H2626 0.930 . S
C2619 C2618 1.394 . S
C2619 C2620 1.383 . S
C2619 H2627 0.929 . S
C2620 C2619 1.383 . S
C2620 C2621 1.377 . S
C2621 H2605 0.930 . S
C2621 C2620 1.377 . S
C2621 C2622 1.379 . S
C2622 H2606 0.931 . S
C2622 C2616 1.383 . S
C2622 C2621 1.379 . S
H2623 C2617 0.959 . S
H2624 C2617 0.961 . S
H2625 C2617 0.960 . S
H2626 C2618 0.930 . S
H2627 C2619 0.929 . S
H2628 C2636 0.929 1_554 S
H2629 C2638 0.930 . S
H2630 C2640 0.930 . S
H2631 C2643 0.929 . S
H2632 C2646 0.930 . S
H2633 C2648 0.960 . S
H2634 C2648 0.960 . S
H2635 C2648 0.960 . S
C2636 H2628 0.929 1_556 S
C2636 C2637 1.377 . S
C2636 C2638 1.384 . S
C2637 C2636 1.377 . S
C2637 C2643 1.390 . S
C2638 H2629 0.930 . S
C2638 C2636 1.384 . S
C2638 C2639 1.372 . S
C2639 C2638 1.372 . S
C2639 C2640 1.400 . S
C2639 C2644 1.490 . S
C2640 H2630 0.930 . S
C2640 C2639 1.400 . S
C2640 C2643 1.386 . S
H2641 C2657 0.930 . S
H2642 C2658 0.931 . S
C2643 H2631 0.929 . S
C2643 C2637 1.390 . S
C2643 C2640 1.386 . S
C2644 C2639 1.490 . S
C2644 C2646 1.395 . S
C2644 C2647 1.403 . S
H2645 C2651 0.930 . S
C2646 H2632 0.930 . S
C2646 C2644 1.395 . S
C2646 C2649 1.403 . S
C2647 C2644 1.403 . S
C2647 C2648 1.524 . S
C2647 C2651 1.400 . S
C2648 H2633 0.960 . S
C2648 H2634 0.960 . S
C2648 H2635 0.960 . S
C2648 C2647 1.524 . S
C2649 C2646 1.403 . S
C2649 C2650 1.392 . S
C2649 C2653 1.495 . S
C2650 C2649 1.392 . S
C2650 C2651 1.385 . S
C2650 C2652 1.478 . S
C2651 H2645 0.930 . S
C2651 C2647 1.400 . S
C2651 C2650 1.385 . S
C2652 C2650 1.478 . S
C2652 C2654 1.381 . S
C2652 C2658 1.383 . S
C2653 C2649 1.495 . S
C2653 H2659 0.959 . S
C2653 H2660 0.961 . S
C2653 H2661 0.960 . S
C2654 C2652 1.381 . S
C2654 C2655 1.394 . S
C2654 H2662 0.930 . S
C2655 C2654 1.394 . S
C2655 C2656 1.383 . S
C2655 H2663 0.929 . S
C2656 C2655 1.383 . S
C2656 C2657 1.377 . S
C2657 H2641 0.930 . S
C2657 C2656 1.377 . S
C2657 C2658 1.379 . S
C2658 H2642 0.931 . S
C2658 C2652 1.383 . S
C2658 C2657 1.379 . S
H2659 C2653 0.959 . S
H2660 C2653 0.961 . S
H2661 C2653 0.960 . S
H2662 C2654 0.930 . S
H2663 C2655 0.929 . S
H2664 C2672 0.929 . S
H2665 C2674 0.930 . S
H2666 C2676 0.930 . S
H2667 C2679 0.929 . S
H2668 C2682 0.930 . S
H2669 C2684 0.960 . S
H2670 C2684 0.960 . S
H2671 C2684 0.960 . S
C2672 H2664 0.929 . S
C2672 C2673 1.377 . S
C2672 C2674 1.384 . S
C2673 C2672 1.377 . S
C2673 C2679 1.390 . S
C2674 H2665 0.930 . S
C2674 C2672 1.384 . S
C2674 C2675 1.372 . S
C2675 C2674 1.372 . S
C2675 C2676 1.400 . S
C2675 C2680 1.490 . S
C2676 H2666 0.930 . S
C2676 C2675 1.400 . S
C2676 C2679 1.386 . S
H2677 C2693 0.930 . S
H2678 C2694 0.931 . S
C2679 H2667 0.929 . S
C2679 C2673 1.390 . S
C2679 C2676 1.386 . S
C2680 C2675 1.490 . S
C2680 C2682 1.395 . S
C2680 C2683 1.403 . S
H2681 C2687 0.930 . S
C2682 H2668 0.930 . S
C2682 C2680 1.395 . S
C2682 C2685 1.403 . S
C2683 C2680 1.403 . S
C2683 C2684 1.524 . S
C2683 C2687 1.400 . S
C2684 H2669 0.960 . S
C2684 H2670 0.960 . S
C2684 H2671 0.960 . S
C2684 C2683 1.524 . S
C2685 C2682 1.403 . S
C2685 C2686 1.392 . S
C2685 C2689 1.495 . S
C2686 C2685 1.392 . S
C2686 C2687 1.385 . S
C2686 C2688 1.478 . S
C2687 H2681 0.930 . S
C2687 C2683 1.400 . S
C2687 C2686 1.385 . S
C2688 C2686 1.478 . S
C2688 C2690 1.381 . S
C2688 C2694 1.383 . S
C2689 C2685 1.495 . S
C2689 H2695 0.959 . S
C2689 H2696 0.961 . S
C2689 H2697 0.960 . S
C2690 C2688 1.381 . S
C2690 C2691 1.394 . S
C2690 H2698 0.930 . S
C2691 C2690 1.394 . S
C2691 C2692 1.383 . S
C2691 H2699 0.929 . S
C2692 C2691 1.383 . S
C2692 C2693 1.377 . S
C2693 H2677 0.930 . S
C2693 C2692 1.377 . S
C2693 C2694 1.379 . S
C2694 H2678 0.931 . S
C2694 C2688 1.383 . S
C2694 C2693 1.379 . S
H2695 C2689 0.959 . S
H2696 C2689 0.961 . S
H2697 C2689 0.960 . S
H2698 C2690 0.930 . S
H2699 C2691 0.929 . S
H2700 C2708 0.929 . S
H2701 C2710 0.930 . S
H2702 C2712 0.930 . S
H2703 C2715 0.929 . S
H2704 C2718 0.930 . S
H2705 C2720 0.960 . S
H2706 C2720 0.960 . S
H2707 C2720 0.960 . S
C2708 H2700 0.929 . S
C2708 C2709 1.377 . S
C2708 C2710 1.384 . S
C2709 C2708 1.377 . S
C2709 C2715 1.390 . S
C2710 H2701 0.930 . S
C2710 C2708 1.384 . S
C2710 C2711 1.372 . S
C2711 C2710 1.372 . S
C2711 C2712 1.400 . S
C2711 C2716 1.490 . S
C2712 H2702 0.930 . S
C2712 C2711 1.400 . S
C2712 C2715 1.386 . S
H2713 C2729 0.930 . S
H2714 C2730 0.931 . S
C2715 H2703 0.929 . S
C2715 C2709 1.390 . S
C2715 C2712 1.386 . S
C2716 C2711 1.490 . S
C2716 C2718 1.395 . S
C2716 C2719 1.403 . S
H2717 C2723 0.930 . S
C2718 H2704 0.930 . S
C2718 C2716 1.395 . S
C2718 C2721 1.403 . S
C2719 C2716 1.403 . S
C2719 C2720 1.524 . S
C2719 C2723 1.400 . S
C2720 H2705 0.960 . S
C2720 H2706 0.960 . S
C2720 H2707 0.960 . S
C2720 C2719 1.524 . S
C2721 C2718 1.403 . S
C2721 C2722 1.392 . S
C2721 C2725 1.495 . S
C2722 C2721 1.392 . S
C2722 C2723 1.385 . S
C2722 C2724 1.478 . S
C2723 H2717 0.930 . S
C2723 C2719 1.400 . S
C2723 C2722 1.385 . S
C2724 C2722 1.478 . S
C2724 C2726 1.381 . S
C2724 C2730 1.383 . S
C2725 C2721 1.495 . S
C2725 H2731 0.959 . S
C2725 H2732 0.961 . S
C2725 H2733 0.960 . S
C2726 C2724 1.381 . S
C2726 C2727 1.394 . S
C2726 H2734 0.930 . S
C2727 C2726 1.394 . S
C2727 C2728 1.383 . S
C2727 H2735 0.929 . S
C2728 C2727 1.383 . S
C2728 C2729 1.377 . S
C2729 H2713 0.930 . S
C2729 C2728 1.377 . S
C2729 C2730 1.379 . S
C2730 H2714 0.931 . S
C2730 C2724 1.383 . S
C2730 C2729 1.379 . S
H2731 C2725 0.959 . S
H2732 C2725 0.961 . S
H2733 C2725 0.960 . S
H2734 C2726 0.930 . S
H2735 C2727 0.929 . S
H2736 C2744 0.929 . S
H2737 C2746 0.930 . S
H2738 C2748 0.930 . S
H2739 C2751 0.929 . S
H2740 C2754 0.930 . S
H2741 C2756 0.960 . S
H2742 C2756 0.960 . S
H2743 C2756 0.960 . S
C2744 H2736 0.929 . S
C2744 C2745 1.377 . S
C2744 C2746 1.384 . S
C2745 C2744 1.377 . S
C2745 C2751 1.390 . S
C2746 H2737 0.930 . S
C2746 C2744 1.384 . S
C2746 C2747 1.372 . S
C2747 C2746 1.372 . S
C2747 C2748 1.400 . S
C2747 C2752 1.490 . S
C2748 H2738 0.930 . S
C2748 C2747 1.400 . S
C2748 C2751 1.386 . S
H2749 C2765 0.930 . S
H2750 C2766 0.931 . S
C2751 H2739 0.929 . S
C2751 C2745 1.390 . S
C2751 C2748 1.386 . S
C2752 C2747 1.490 . S
C2752 C2754 1.395 . S
C2752 C2755 1.403 . S
H2753 C2759 0.930 . S
C2754 H2740 0.930 . S
C2754 C2752 1.395 . S
C2754 C2757 1.403 . S
C2755 C2752 1.403 . S
C2755 C2756 1.524 . S
C2755 C2759 1.400 . S
C2756 H2741 0.960 . S
C2756 H2742 0.960 . S
C2756 H2743 0.960 . S
C2756 C2755 1.524 . S
C2757 C2754 1.403 . S
C2757 C2758 1.392 . S
C2757 C2761 1.495 . S
C2758 C2757 1.392 . S
C2758 C2759 1.385 . S
C2758 C2760 1.478 . S
C2759 H2753 0.930 . S
C2759 C2755 1.400 . S
C2759 C2758 1.385 . S
C2760 C2758 1.478 . S
C2760 C2762 1.381 . S
C2760 C2766 1.383 . S
C2761 C2757 1.495 . S
C2761 H2767 0.959 . S
C2761 H2768 0.961 . S
C2761 H2769 0.960 . S
C2762 C2760 1.381 . S
C2762 C2763 1.394 . S
C2762 H2770 0.930 . S
C2763 C2762 1.394 . S
C2763 C2764 1.383 . S
C2763 H2771 0.929 . S
C2764 C2763 1.383 . S
C2764 C2765 1.377 . S
C2765 H2749 0.930 . S
C2765 C2764 1.377 . S
C2765 C2766 1.379 . S
C2766 H2750 0.931 . S
C2766 C2760 1.383 . S
C2766 C2765 1.379 . S
H2767 C2761 0.959 . S
H2768 C2761 0.961 . S
H2769 C2761 0.960 . S
H2770 C2762 0.930 . S
H2771 C2763 0.929 . S
H2772 C2780 0.929 . S
H2773 C2782 0.930 . S
H2774 C2784 0.930 . S
H2775 C2787 0.929 . S
H2776 C2790 0.930 . S
H2777 C2792 0.960 . S
H2778 C2792 0.960 . S
H2779 C2792 0.960 . S
C2780 H2772 0.929 . S
C2780 C2781 1.377 . S
C2780 C2782 1.384 . S
C2781 C2780 1.377 . S
C2781 C2787 1.390 . S
C2782 H2773 0.930 . S
C2782 C2780 1.384 . S
C2782 C2783 1.372 . S
C2783 C2782 1.372 . S
C2783 C2784 1.400 . S
C2783 C2788 1.490 . S
C2784 H2774 0.930 . S
C2784 C2783 1.400 . S
C2784 C2787 1.386 . S
H2785 C2801 0.930 . S
H2786 C2802 0.931 . S
C2787 H2775 0.929 . S
C2787 C2781 1.390 . S
C2787 C2784 1.386 . S
C2788 C2783 1.490 . S
C2788 C2790 1.395 . S
C2788 C2791 1.403 . S
H2789 C2795 0.930 . S
C2790 H2776 0.930 . S
C2790 C2788 1.395 . S
C2790 C2793 1.403 . S
C2791 C2788 1.403 . S
C2791 C2792 1.524 . S
C2791 C2795 1.400 . S
C2792 H2777 0.960 . S
C2792 H2778 0.960 . S
C2792 H2779 0.960 . S
C2792 C2791 1.524 . S
C2793 C2790 1.403 . S
C2793 C2794 1.392 . S
C2793 C2797 1.495 . S
C2794 C2793 1.392 . S
C2794 C2795 1.385 . S
C2794 C2796 1.478 . S
C2795 H2789 0.930 . S
C2795 C2791 1.400 . S
C2795 C2794 1.385 . S
C2796 C2794 1.478 . S
C2796 C2798 1.381 . S
C2796 C2802 1.383 . S
C2797 C2793 1.495 . S
C2797 H2803 0.959 . S
C2797 H2804 0.961 . S
C2797 H2805 0.960 . S
C2798 C2796 1.381 . S
C2798 C2799 1.394 . S
C2798 H2806 0.930 . S
C2799 C2798 1.394 . S
C2799 C2800 1.383 . S
C2799 H2807 0.929 . S
C2800 C2799 1.383 . S
C2800 C2801 1.377 . S
C2801 H2785 0.930 . S
C2801 C2800 1.377 . S
C2801 C2802 1.379 . S
C2802 H2786 0.931 . S
C2802 C2796 1.383 . S
C2802 C2801 1.379 . S
H2803 C2797 0.959 . S
H2804 C2797 0.961 . S
H2805 C2797 0.960 . S
H2806 C2798 0.930 . S
H2807 C2799 0.929 . S
H2808 C2816 0.929 . S
H2809 C2818 0.930 . S
H2810 C2820 0.930 . S
H2811 C2823 0.929 . S
H2812 C2826 0.930 . S
H2813 C2828 0.960 . S
H2814 C2828 0.960 . S
H2815 C2828 0.960 . S
C2816 H2808 0.929 . S
C2816 C2817 1.377 . S
C2816 C2818 1.384 . S
C2817 C2816 1.377 . S
C2817 C2823 1.390 . S
C2818 H2809 0.930 . S
C2818 C2816 1.384 . S
C2818 C2819 1.372 . S
C2819 C2818 1.372 . S
C2819 C2820 1.400 . S
C2819 C2824 1.490 . S
C2820 H2810 0.930 . S
C2820 C2819 1.400 . S
C2820 C2823 1.386 . S
H2821 C2837 0.930 . S
H2822 C2838 0.931 . S
C2823 H2811 0.929 . S
C2823 C2817 1.390 . S
C2823 C2820 1.386 . S
C2824 C2819 1.490 . S
C2824 C2826 1.395 . S
C2824 C2827 1.403 . S
H2825 C2831 0.930 . S
C2826 H2812 0.930 . S
C2826 C2824 1.395 . S
C2826 C2829 1.403 . S
C2827 C2824 1.403 . S
C2827 C2828 1.524 . S
C2827 C2831 1.400 . S
C2828 H2813 0.960 . S
C2828 H2814 0.960 . S
C2828 H2815 0.960 . S
C2828 C2827 1.524 . S
C2829 C2826 1.403 . S
C2829 C2830 1.392 . S
C2829 C2833 1.495 . S
C2830 C2829 1.392 . S
C2830 C2831 1.385 . S
C2830 C2832 1.478 . S
C2831 H2825 0.930 . S
C2831 C2827 1.400 . S
C2831 C2830 1.385 . S
C2832 C2830 1.478 . S
C2832 C2834 1.381 . S
C2832 C2838 1.383 . S
C2833 C2829 1.495 . S
C2833 H2839 0.959 . S
C2833 H2840 0.961 . S
C2833 H2841 0.960 . S
C2834 C2832 1.381 . S
C2834 C2835 1.394 . S
C2834 H2842 0.930 . S
C2835 C2834 1.394 . S
C2835 C2836 1.383 . S
C2835 H2843 0.929 . S
C2836 C2835 1.383 . S
C2836 C2837 1.377 . S
C2837 H2821 0.930 . S
C2837 C2836 1.377 . S
C2837 C2838 1.379 . S
C2838 H2822 0.931 . S
C2838 C2832 1.383 . S
C2838 C2837 1.379 . S
H2839 C2833 0.959 . S
H2840 C2833 0.961 . S
H2841 C2833 0.960 . S
H2842 C2834 0.930 . S
H2843 C2835 0.929 . S
H2844 C2852 0.929 . S
H2845 C2854 0.930 . S
H2846 C2856 0.930 . S
H2847 C2859 0.929 . S
H2848 C2862 0.930 . S
H2849 C2864 0.960 . S
H2850 C2864 0.960 . S
H2851 C2864 0.960 . S
C2852 H2844 0.929 . S
C2852 C2853 1.377 . S
C2852 C2854 1.384 . S
C2853 C2852 1.377 . S
C2853 C2859 1.390 . S
C2854 H2845 0.930 . S
C2854 C2852 1.384 . S
C2854 C2855 1.372 . S
C2855 C2854 1.372 . S
C2855 C2856 1.400 . S
C2855 C2860 1.490 . S
C2856 H2846 0.930 . S
C2856 C2855 1.400 . S
C2856 C2859 1.386 . S
H2857 C2873 0.930 . S
H2858 C2874 0.931 . S
C2859 H2847 0.929 . S
C2859 C2853 1.390 . S
C2859 C2856 1.386 . S
C2860 C2855 1.490 . S
C2860 C2862 1.395 . S
C2860 C2863 1.403 . S
H2861 C2867 0.930 . S
C2862 H2848 0.930 . S
C2862 C2860 1.395 . S
C2862 C2865 1.403 . S
C2863 C2860 1.403 . S
C2863 C2864 1.524 . S
C2863 C2867 1.400 . S
C2864 H2849 0.960 . S
C2864 H2850 0.960 . S
C2864 H2851 0.960 . S
C2864 C2863 1.524 . S
C2865 C2862 1.403 . S
C2865 C2866 1.392 . S
C2865 C2869 1.495 . S
C2866 C2865 1.392 . S
C2866 C2867 1.385 . S
C2866 C2868 1.478 . S
C2867 H2861 0.930 . S
C2867 C2863 1.400 . S
C2867 C2866 1.385 . S
C2868 C2866 1.478 . S
C2868 C2870 1.381 . S
C2868 C2874 1.383 . S
C2869 C2865 1.495 . S
C2869 H2875 0.959 . S
C2869 H2876 0.961 . S
C2869 H2877 0.960 . S
C2870 C2868 1.381 . S
C2870 C2871 1.394 . S
C2870 H2878 0.930 . S
C2871 C2870 1.394 . S
C2871 C2872 1.383 . S
C2871 H2879 0.929 . S
C2872 C2871 1.383 . S
C2872 C2873 1.377 . S
C2873 H2857 0.930 . S
C2873 C2872 1.377 . S
C2873 C2874 1.379 . S
C2874 H2858 0.931 . S
C2874 C2868 1.383 . S
C2874 C2873 1.379 . S
H2875 C2869 0.959 . S
H2876 C2869 0.961 . S
H2877 C2869 0.960 . S
H2878 C2870 0.930 . S
H2879 C2871 0.929 . S
H2880 C2888 0.929 . S
H2881 C2890 0.930 . S
H2882 C2892 0.930 . S
H2883 C2895 0.929 . S
H2884 C2898 0.930 . S
H2885 C2900 0.960 . S
H2886 C2900 0.960 . S
H2887 C2900 0.960 . S
C2888 H2880 0.929 . S
C2888 C2889 1.377 . S
C2888 C2890 1.384 . S
C2889 C2888 1.377 . S
C2889 C2895 1.390 . S
C2890 H2881 0.930 . S
C2890 C2888 1.384 . S
C2890 C2891 1.372 . S
C2891 C2890 1.372 . S
C2891 C2892 1.400 . S
C2891 C2896 1.490 . S
C2892 H2882 0.930 . S
C2892 C2891 1.400 . S
C2892 C2895 1.386 . S
H2893 C2909 0.930 . S
H2894 C2910 0.931 . S
C2895 H2883 0.929 . S
C2895 C2889 1.390 . S
C2895 C2892 1.386 . S
C2896 C2891 1.490 . S
C2896 C2898 1.395 . S
C2896 C2899 1.403 . S
H2897 C2903 0.930 . S
C2898 H2884 0.930 . S
C2898 C2896 1.395 . S
C2898 C2901 1.403 . S
C2899 C2896 1.403 . S
C2899 C2900 1.524 . S
C2899 C2903 1.400 . S
C2900 H2885 0.960 . S
C2900 H2886 0.960 . S
C2900 H2887 0.960 . S
C2900 C2899 1.524 . S
C2901 C2898 1.403 . S
C2901 C2902 1.392 . S
C2901 C2905 1.495 . S
C2902 C2901 1.392 . S
C2902 C2903 1.385 . S
C2902 C2904 1.478 . S
C2903 H2897 0.930 . S
C2903 C2899 1.400 . S
C2903 C2902 1.385 . S
C2904 C2902 1.478 . S
C2904 C2906 1.381 . S
C2904 C2910 1.383 . S
C2905 C2901 1.495 . S
C2905 H2911 0.959 . S
C2905 H2912 0.961 . S
C2905 H2913 0.960 . S
C2906 C2904 1.381 . S
C2906 C2907 1.394 . S
C2906 H2914 0.930 . S
C2907 C2906 1.394 . S
C2907 C2908 1.383 . S
C2907 H2915 0.929 . S
C2908 C2907 1.383 . S
C2908 C2909 1.377 . S
C2909 H2893 0.930 . S
C2909 C2908 1.377 . S
C2909 C2910 1.379 . S
C2910 H2894 0.931 . S
C2910 C2904 1.383 . S
C2910 C2909 1.379 . S
H2911 C2905 0.959 . S
H2912 C2905 0.961 . S
H2913 C2905 0.960 . S
H2914 C2906 0.930 . S
H2915 C2907 0.929 . S
H2916 C2924 0.929 . S
H2917 C2926 0.930 . S
H2918 C2928 0.890 1_655 S
H2919 C2931 0.929 . S
H2920 C2934 0.930 . S
H2921 C2936 0.960 . S
H2922 C2936 0.960 . S
H2923 C2936 0.960 . S
C2924 H2916 0.929 . S
C2924 C2925 1.377 . S
C2924 C2926 1.384 . S
C2925 C2924 1.377 . S
C2925 C2931 1.390 . S
C2926 H2917 0.930 . S
C2926 C2924 1.384 . S
C2926 C2927 1.372 . S
C2927 C2926 1.372 . S
C2927 C2928 1.400 . S
C2927 C2932 1.490 . S
C2928 H2918 0.890 1_455 S
C2928 C2927 1.400 . S
C2928 C2931 1.386 . S
H2929 C2945 0.950 . S
H2930 C2946 0.931 1_655 S
C2931 H2919 0.929 . S
C2931 C2925 1.390 . S
C2931 C2928 1.386 . S
C2932 C2927 1.490 . S
C2932 C2934 1.395 . S
C2932 C2935 1.403 1_455 S
H2933 C2939 0.930 . S
C2934 H2920 0.930 . S
C2934 C2932 1.395 . S
C2934 C2937 1.403 . S
C2935 C2932 1.403 1_655 S
C2935 C2936 1.524 . S
C2935 C2939 1.400 . S
C2936 H2921 0.960 . S
C2936 H2922 0.960 . S
C2936 H2923 0.960 . S
C2936 C2935 1.524 . S
C2937 C2934 1.403 . S
C2937 C2938 1.392 . S
C2937 C2941 1.495 . S
C2938 C2937 1.392 . S
C2938 C2939 1.385 1_455 S
C2938 C2940 1.478 . S
C2939 H2933 0.930 . S
C2939 C2935 1.400 . S
C2939 C2938 1.385 1_655 S
C2940 C2938 1.478 . S
C2940 C2942 1.381 . S
C2940 C2946 1.383 . S
C2941 C2937 1.495 . S
C2941 H2947 0.959 . S
C2941 H2948 0.961 . S
C2941 H2949 0.960 . S
C2942 C2940 1.381 . S
C2942 C2943 1.394 . S
C2942 H2950 0.930 . S
C2943 C2942 1.394 . S
C2943 C2944 1.383 . S
C2943 H2951 0.929 . S
C2944 C2943 1.383 . S
C2944 C2945 1.384 1_455 S
C2945 H2929 0.950 . S
C2945 C2944 1.384 1_655 S
C2945 C2946 1.354 1_655 S
C2946 H2930 0.931 1_455 S
C2946 C2940 1.383 . S
C2946 C2945 1.354 1_455 S
H2947 C2941 0.959 . S
H2948 C2941 0.961 . S
H2949 C2941 0.960 . S
H2950 C2942 0.930 . S
H2951 C2943 0.929 . S
H2952 C2960 0.929 . S
H2953 C2962 0.930 . S
H2954 C2964 0.930 . S
H2955 C2967 0.929 . S
H2956 C2970 0.930 . S
H2957 C2972 0.960 . S
H2958 C2972 0.960 . S
H2959 C2972 0.960 . S
C2960 H2952 0.929 . S
C2960 C2961 1.377 . S
C2960 C2962 1.384 . S
C2961 C2960 1.377 . S
C2961 C2967 1.390 . S
C2962 H2953 0.930 . S
C2962 C2960 1.384 . S
C2962 C2963 1.372 . S
C2963 C2962 1.372 . S
C2963 C2964 1.400 . S
C2963 C2968 1.490 . S
C2964 H2954 0.930 . S
C2964 C2963 1.400 . S
C2964 C2967 1.386 . S
H2965 C2981 0.930 . S
H2966 C2982 0.931 . S
C2967 H2955 0.929 . S
C2967 C2961 1.390 . S
C2967 C2964 1.386 . S
C2968 C2963 1.490 . S
C2968 C2970 1.395 . S
C2968 C2971 1.403 . S
H2969 C2975 0.930 . S
C2970 H2956 0.930 . S
C2970 C2968 1.395 . S
C2970 C2973 1.403 . S
C2971 C2968 1.403 . S
C2971 C2972 1.524 . S
C2971 C2975 1.400 . S
C2972 H2957 0.960 . S
C2972 H2958 0.960 . S
C2972 H2959 0.960 . S
C2972 C2971 1.524 . S
C2973 C2970 1.403 . S
C2973 C2974 1.392 . S
C2973 C2977 1.495 . S
C2974 C2973 1.392 . S
C2974 C2975 1.385 . S
C2974 C2976 1.478 . S
C2975 H2969 0.930 . S
C2975 C2971 1.400 . S
C2975 C2974 1.385 . S
C2976 C2974 1.478 . S
C2976 C2978 1.381 . S
C2976 C2982 1.383 . S
C2977 C2973 1.495 . S
C2977 H2983 0.959 . S
C2977 H2984 0.961 . S
C2977 H2985 0.960 . S
C2978 C2976 1.381 . S
C2978 C2979 1.394 . S
C2978 H2986 0.930 . S
C2979 C2978 1.394 . S
C2979 C2980 1.383 . S
C2979 H2987 0.929 . S
C2980 C2979 1.383 . S
C2980 C2981 1.377 . S
C2981 H2965 0.930 . S
C2981 C2980 1.377 . S
C2981 C2982 1.379 . S
C2982 H2966 0.931 . S
C2982 C2976 1.383 . S
C2982 C2981 1.379 . S
H2983 C2977 0.959 . S
H2984 C2977 0.961 . S
H2985 C2977 0.960 . S
H2986 C2978 0.930 . S
H2987 C2979 0.929 . S
H2988 C2996 0.929 . S
H2989 C2998 0.930 . S
H2990 C3000 0.930 . S
H2991 C3003 0.980 . S
H2992 C3006 0.930 . S
H2993 C3008 0.960 . S
H2994 C3008 0.960 . S
H2995 C3008 0.960 . S
C2996 H2988 0.929 . S
C2996 C2997 1.377 . S
C2996 C2998 1.384 . S
C2997 C2996 1.377 . S
C2997 C3003 1.365 1_565 S
C2998 H2989 0.930 . S
C2998 C2996 1.384 . S
C2998 C2999 1.372 . S
C2999 C2998 1.372 . S
C2999 C3000 1.400 1_565 S
C2999 C3004 1.490 . S
C3000 H2990 0.930 . S
C3000 C2999 1.400 1_545 S
C3000 C3003 1.363 . S
H3001 C3017 0.930 . S
H3002 C3018 0.977 . S
C3003 H2991 0.980 . S
C3003 C2997 1.365 1_545 S
C3003 C3000 1.363 . S
C3004 C2999 1.490 . S
C3004 C3006 1.395 . S
C3004 C3007 1.403 1_565 S
H3005 C3011 0.930 . S
C3006 H2992 0.930 . S
C3006 C3004 1.395 . S
C3006 C3009 1.403 . S
C3007 C3004 1.403 1_545 S
C3007 C3008 1.524 . S
C3007 C3011 1.400 . S
C3008 H2993 0.960 . S
C3008 H2994 0.960 . S
C3008 H2995 0.960 . S
C3008 C3007 1.524 . S
C3009 C3006 1.403 . S
C3009 C3010 1.392 . S
C3009 C3013 1.495 . S
C3010 C3009 1.392 . S
C3010 C3011 1.385 1_565 S
C3010 C3012 1.478 . S
C3011 H3005 0.930 . S
C3011 C3007 1.400 . S
C3011 C3010 1.385 1_545 S
C3012 C3010 1.478 . S
C3012 C3014 1.381 . S
C3012 C3018 1.359 1_565 S
C3013 C3009 1.495 . S
C3013 H3019 0.959 . S
C3013 H3020 0.961 . S
C3013 H3021 0.960 . S
C3014 C3012 1.381 . S
C3014 C3015 1.394 . S
C3014 H3022 0.930 . S
C3015 C3014 1.394 . S
C3015 C3016 1.383 . S
C3015 H3023 0.929 . S
C3016 C3015 1.383 . S
C3016 C3017 1.377 1_565 S
C3017 H3001 0.930 . S
C3017 C3016 1.377 1_545 S
C3017 C3018 1.361 . S
C3018 H3002 0.977 . S
C3018 C3012 1.359 1_545 S
C3018 C3017 1.361 . S
H3019 C3013 0.959 . S
H3020 C3013 0.961 . S
H3021 C3013 0.960 . S
H3022 C3014 0.930 . S
H3023 C3015 0.929 . S
H3024 C3032 0.929 . S
H3025 C3034 0.930 . S
H3026 C3036 0.930 . S
H3027 C3039 0.929 . S
H3028 C3042 0.930 . S
H3029 C3044 0.960 . S
H3030 C3044 0.960 . S
H3031 C3044 0.960 . S
C3032 H3024 0.929 . S
C3032 C3033 1.377 . S
C3032 C3034 1.384 . S
C3033 C3032 1.377 . S
C3033 C3039 1.390 . S
C3034 H3025 0.930 . S
C3034 C3032 1.384 . S
C3034 C3035 1.372 . S
C3035 C3034 1.372 . S
C3035 C3036 1.400 . S
C3035 C3040 1.490 . S
C3036 H3026 0.930 . S
C3036 C3035 1.400 . S
C3036 C3039 1.386 . S
H3037 C3053 0.930 . S
H3038 C3054 0.931 . S
C3039 H3027 0.929 . S
C3039 C3033 1.390 . S
C3039 C3036 1.386 . S
C3040 C3035 1.490 . S
C3040 C3042 1.395 1_565 S
C3040 C3043 1.403 . S
H3041 C3047 0.930 . S
C3042 H3028 0.930 . S
C3042 C3040 1.395 1_545 S
C3042 C3045 1.403 . S
C3043 C3040 1.403 . S
C3043 C3044 1.524 . S
C3043 C3047 1.400 . S
C3044 H3029 0.960 . S
C3044 H3030 0.960 . S
C3044 H3031 0.960 . S
C3044 C3043 1.524 . S
C3045 C3042 1.403 . S
C3045 C3046 1.392 1_545 S
C3045 C3049 1.495 . S
C3046 C3045 1.392 1_565 S
C3046 C3047 1.385 . S
C3046 C3048 1.478 . S
C3047 H3041 0.930 . S
C3047 C3043 1.400 . S
C3047 C3046 1.385 . S
C3048 C3046 1.478 . S
C3048 C3050 1.333 1_565 S
C3048 C3054 1.383 . S
C3049 C3045 1.495 . S
C3049 H3055 0.959 . S
C3049 H3056 0.961 . S
C3049 H3057 0.960 . S
C3050 C3048 1.333 1_545 S
C3050 C3051 1.404 . S
C3050 H3058 0.949 . S
C3051 C3050 1.404 . S
C3051 C3052 1.374 1_545 S
C3051 H3059 0.966 . S
C3052 C3051 1.374 1_565 S
C3052 C3053 1.377 . S
C3053 H3037 0.930 . S
C3053 C3052 1.377 . S
C3053 C3054 1.379 . S
C3054 H3038 0.931 . S
C3054 C3048 1.383 . S
C3054 C3053 1.379 . S
H3055 C3049 0.959 . S
H3056 C3049 0.961 . S
H3057 C3049 0.960 . S
H3058 C3050 0.949 . S
H3059 C3051 0.966 . S
H3060 C3068 0.929 . S
H3061 C3070 0.930 . S
H3062 C3072 0.930 . S
H3063 C3075 0.929 . S
H3064 C3078 0.930 . S
H3065 C3080 0.960 . S
H3066 C3080 0.960 . S
H3067 C3080 0.960 . S
C3068 H3060 0.929 . S
C3068 C3069 1.377 . S
C3068 C3070 1.384 . S
C3069 C3068 1.377 . S
C3069 C3075 1.390 1_455 S
C3070 H3061 0.930 . S
C3070 C3068 1.384 . S
C3070 C3071 1.372 . S
C3071 C3070 1.372 . S
C3071 C3072 1.400 1_455 S
C3071 C3076 1.490 . S
C3072 H3062 0.930 . S
C3072 C3071 1.400 1_655 S
C3072 C3075 1.386 . S
H3073 C3089 0.930 . S
H3074 C3090 0.931 . S
C3075 H3063 0.929 . S
C3075 C3069 1.390 1_655 S
C3075 C3072 1.386 . S
C3076 C3071 1.490 . S
C3076 C3078 1.395 . S
C3076 C3079 1.392 1_455 S
H3077 C3083 0.954 . S
C3078 H3064 0.930 . S
C3078 C3076 1.395 . S
C3078 C3081 1.403 . S
C3079 C3076 1.392 1_655 S
C3079 C3080 1.543 . S
C3079 C3083 1.411 . S
C3080 H3065 0.960 . S
C3080 H3066 0.960 . S
C3080 H3067 0.960 . S
C3080 C3079 1.543 . S
C3081 C3078 1.403 . S
C3081 C3082 1.392 . S
C3081 C3085 1.495 . S
C3082 C3081 1.392 . S
C3082 C3083 1.342 1_455 S
C3082 C3084 1.478 . S
C3083 H3077 0.954 . S
C3083 C3079 1.411 . S
C3083 C3082 1.342 1_655 S
C3084 C3082 1.478 . S
C3084 C3086 1.381 . S
C3084 C3090 1.383 1_455 S
C3085 C3081 1.495 . S
C3085 H3091 0.959 . S
C3085 H3092 0.961 . S
C3085 H3093 0.960 . S
C3086 C3084 1.381 . S
C3086 C3087 1.394 . S
C3086 H3094 0.930 . S
C3087 C3086 1.394 . S
C3087 C3088 1.383 . S
C3087 H3095 0.929 . S
C3088 C3087 1.383 . S
C3088 C3089 1.377 1_455 S
C3089 H3073 0.930 . S
C3089 C3088 1.377 1_655 S
C3089 C3090 1.379 . S
C3090 H3074 0.931 . S
C3090 C3084 1.383 1_655 S
C3090 C3089 1.379 . S
H3091 C3085 0.959 . S
H3092 C3085 0.961 . S
H3093 C3085 0.960 . S
H3094 C3086 0.930 . S
H3095 C3087 0.929 . S
H3096 C3104 0.929 . S
H3097 C3106 0.930 . S
H3098 C3108 0.930 . S
H3099 C3111 0.929 . S
H3100 C3114 0.930 . S
H3101 C3116 0.960 . S
H3102 C3116 0.960 . S
H3103 C3116 0.960 . S
C3104 H3096 0.929 . S
C3104 C3105 1.377 . S
C3104 C3106 1.384 . S
C3105 C3104 1.377 . S
C3105 C3111 1.390 . S
C3106 H3097 0.930 . S
C3106 C3104 1.384 . S
C3106 C3107 1.372 . S
C3107 C3106 1.372 . S
C3107 C3108 1.400 . S
C3107 C3112 1.490 . S
C3108 H3098 0.930 . S
C3108 C3107 1.400 . S
C3108 C3111 1.386 . S
H3109 C3125 0.930 . S
H3110 C3126 0.931 . S
C3111 H3099 0.929 . S
C3111 C3105 1.390 . S
C3111 C3108 1.386 . S
C3112 C3107 1.490 . S
C3112 C3114 1.395 . S
C3112 C3115 1.403 . S
H3113 C3119 0.930 . S
C3114 H3100 0.930 . S
C3114 C3112 1.395 . S
C3114 C3117 1.403 . S
C3115 C3112 1.403 . S
C3115 C3116 1.524 . S
C3115 C3119 1.400 . S
C3116 H3101 0.960 . S
C3116 H3102 0.960 . S
C3116 H3103 0.960 . S
C3116 C3115 1.524 . S
C3117 C3114 1.403 . S
C3117 C3118 1.392 . S
C3117 C3121 1.495 . S
C3118 C3117 1.392 . S
C3118 C3119 1.385 . S
C3118 C3120 1.478 . S
C3119 H3113 0.930 . S
C3119 C3115 1.400 . S
C3119 C3118 1.385 . S
C3120 C3118 1.478 . S
C3120 C3122 1.381 . S
C3120 C3126 1.383 . S
C3121 C3117 1.495 . S
C3121 H3127 0.959 . S
C3121 H3128 0.961 . S
C3121 H3129 0.960 . S
C3122 C3120 1.381 . S
C3122 C3123 1.394 . S
C3122 H3130 0.930 . S
C3123 C3122 1.394 . S
C3123 C3124 1.383 . S
C3123 H3131 0.929 . S
C3124 C3123 1.383 . S
C3124 C3125 1.377 . S
C3125 H3109 0.930 . S
C3125 C3124 1.377 . S
C3125 C3126 1.379 . S
C3126 H3110 0.931 . S
C3126 C3120 1.383 . S
C3126 C3125 1.379 . S
H3127 C3121 0.959 . S
H3128 C3121 0.961 . S
H3129 C3121 0.960 . S
H3130 C3122 0.930 . S
H3131 C3123 0.929 . S
H3132 C3140 0.929 . S
H3133 C3142 0.930 . S
H3134 C3144 0.930 . S
H3135 C3147 0.929 . S
H3136 C3150 0.930 . S
H3137 C3152 0.960 . S
H3138 C3152 0.960 . S
H3139 C3152 0.960 . S
C3140 H3132 0.929 . S
C3140 C3141 1.377 . S
C3140 C3142 1.384 . S
C3141 C3140 1.377 . S
C3141 C3147 1.390 . S
C3142 H3133 0.930 . S
C3142 C3140 1.384 . S
C3142 C3143 1.372 . S
C3143 C3142 1.372 . S
C3143 C3144 1.400 . S
C3143 C3148 1.490 . S
C3144 H3134 0.930 . S
C3144 C3143 1.400 . S
C3144 C3147 1.386 . S
H3145 C3161 0.930 . S
H3146 C3162 0.931 . S
C3147 H3135 0.929 . S
C3147 C3141 1.390 . S
C3147 C3144 1.386 . S
C3148 C3143 1.490 . S
C3148 C3150 1.395 . S
C3148 C3151 1.403 . S
H3149 C3155 0.930 . S
C3150 H3136 0.930 . S
C3150 C3148 1.395 . S
C3150 C3153 1.403 . S
C3151 C3148 1.403 . S
C3151 C3152 1.524 . S
C3151 C3155 1.400 . S
C3152 H3137 0.960 . S
C3152 H3138 0.960 . S
C3152 H3139 0.960 . S
C3152 C3151 1.524 . S
C3153 C3150 1.403 . S
C3153 C3154 1.392 . S
C3153 C3157 1.495 . S
C3154 C3153 1.392 . S
C3154 C3155 1.385 . S
C3154 C3156 1.478 . S
C3155 H3149 0.930 . S
C3155 C3151 1.400 . S
C3155 C3154 1.385 . S
C3156 C3154 1.478 . S
C3156 C3158 1.381 . S
C3156 C3162 1.383 . S
C3157 C3153 1.495 . S
C3157 H3163 0.959 . S
C3157 H3164 0.961 . S
C3157 H3165 0.960 . S
C3158 C3156 1.381 . S
C3158 C3159 1.394 . S
C3158 H3166 0.930 . S
C3159 C3158 1.394 . S
C3159 C3160 1.383 . S
C3159 H3167 0.929 . S
C3160 C3159 1.383 . S
C3160 C3161 1.377 . S
C3161 H3145 0.930 . S
C3161 C3160 1.377 . S
C3161 C3162 1.379 . S
C3162 H3146 0.931 . S
C3162 C3156 1.383 . S
C3162 C3161 1.379 . S
H3163 C3157 0.959 . S
H3164 C3157 0.961 . S
H3165 C3157 0.960 . S
H3166 C3158 0.930 . S
H3167 C3159 0.929 . S
H3168 C3176 0.929 . S
H3169 C3178 0.930 . S
H3170 C3180 0.930 . S
H3171 C3183 0.929 . S
H3172 C3186 0.930 . S
H3173 C3188 0.960 . S
H3174 C3188 0.960 . S
H3175 C3188 0.960 . S
C3176 H3168 0.929 . S
C3176 C3177 1.377 . S
C3176 C3178 1.384 . S
C3177 C3176 1.377 . S
C3177 C3183 1.390 . S
C3178 H3169 0.930 . S
C3178 C3176 1.384 . S
C3178 C3179 1.372 . S
C3179 C3178 1.372 . S
C3179 C3180 1.400 . S
C3179 C3184 1.490 . S
C3180 H3170 0.930 . S
C3180 C3179 1.400 . S
C3180 C3183 1.386 . S
H3181 C3197 0.930 . S
H3182 C3198 0.931 . S
C3183 H3171 0.929 . S
C3183 C3177 1.390 . S
C3183 C3180 1.386 . S
C3184 C3179 1.490 . S
C3184 C3186 1.395 . S
C3184 C3187 1.403 . S
H3185 C3191 0.930 . S
C3186 H3172 0.930 . S
C3186 C3184 1.395 . S
C3186 C3189 1.403 . S
C3187 C3184 1.403 . S
C3187 C3188 1.524 . S
C3187 C3191 1.400 . S
C3188 H3173 0.960 . S
C3188 H3174 0.960 . S
C3188 H3175 0.960 . S
C3188 C3187 1.524 . S
C3189 C3186 1.403 . S
C3189 C3190 1.392 . S
C3189 C3193 1.495 . S
C3190 C3189 1.392 . S
C3190 C3191 1.385 . S
C3190 C3192 1.478 . S
C3191 H3185 0.930 . S
C3191 C3187 1.400 . S
C3191 C3190 1.385 . S
C3192 C3190 1.478 . S
C3192 C3194 1.381 . S
C3192 C3198 1.383 . S
C3193 C3189 1.495 . S
C3193 H3199 0.959 . S
C3193 H3200 0.961 . S
C3193 H3201 0.960 . S
C3194 C3192 1.381 . S
C3194 C3195 1.394 . S
C3194 H3202 0.930 . S
C3195 C3194 1.394 . S
C3195 C3196 1.383 . S
C3195 H3203 0.929 . S
C3196 C3195 1.383 . S
C3196 C3197 1.377 . S
C3197 H3181 0.930 . S
C3197 C3196 1.377 . S
C3197 C3198 1.379 . S
C3198 H3182 0.931 . S
C3198 C3192 1.383 . S
C3198 C3197 1.379 . S
H3199 C3193 0.959 . S
H3200 C3193 0.961 . S
H3201 C3193 0.960 . S
H3202 C3194 0.930 . S
H3203 C3195 0.929 . S
H3204 C3212 0.929 . S
H3205 C3214 0.930 . S
H3206 C3216 0.930 . S
H3207 C3219 0.929 . S
H3208 C3222 0.930 . S
H3209 C3224 0.960 . S
H3210 C3224 0.960 . S
H3211 C3224 0.960 . S
C3212 H3204 0.929 . S
C3212 C3213 1.377 . S
C3212 C3214 1.384 . S
C3213 C3212 1.377 . S
C3213 C3219 1.390 . S
C3214 H3205 0.930 . S
C3214 C3212 1.384 . S
C3214 C3215 1.372 . S
C3215 C3214 1.372 . S
C3215 C3216 1.400 . S
C3215 C3220 1.490 . S
C3216 H3206 0.930 . S
C3216 C3215 1.400 . S
C3216 C3219 1.386 . S
H3217 C3233 0.930 . S
H3218 C3234 0.931 . S
C3219 H3207 0.929 . S
C3219 C3213 1.390 . S
C3219 C3216 1.386 . S
C3220 C3215 1.490 . S
C3220 C3222 1.395 . S
C3220 C3223 1.403 . S
H3221 C3227 0.930 . S
C3222 H3208 0.930 . S
C3222 C3220 1.395 . S
C3222 C3225 1.403 . S
C3223 C3220 1.403 . S
C3223 C3224 1.524 . S
C3223 C3227 1.400 . S
C3224 H3209 0.960 . S
C3224 H3210 0.960 . S
C3224 H3211 0.960 . S
C3224 C3223 1.524 . S
C3225 C3222 1.403 . S
C3225 C3226 1.392 . S
C3225 C3229 1.495 . S
C3226 C3225 1.392 . S
C3226 C3227 1.385 . S
C3226 C3228 1.478 . S
C3227 H3221 0.930 . S
C3227 C3223 1.400 . S
C3227 C3226 1.385 . S
C3228 C3226 1.478 . S
C3228 C3230 1.381 . S
C3228 C3234 1.383 . S
C3229 C3225 1.495 . S
C3229 H3235 0.959 . S
C3229 H3236 0.961 . S
C3229 H3237 0.960 . S
C3230 C3228 1.381 . S
C3230 C3231 1.394 . S
C3230 H3238 0.930 . S
C3231 C3230 1.394 . S
C3231 C3232 1.383 . S
C3231 H3239 0.929 . S
C3232 C3231 1.383 . S
C3232 C3233 1.377 . S
C3233 H3217 0.930 . S
C3233 C3232 1.377 . S
C3233 C3234 1.379 . S
C3234 H3218 0.931 . S
C3234 C3228 1.383 . S
C3234 C3233 1.379 . S
H3235 C3229 0.959 . S
H3236 C3229 0.961 . S
H3237 C3229 0.960 . S
H3238 C3230 0.930 . S
H3239 C3231 0.929 . S
H3240 C3248 0.929 . S
H3241 C3250 0.930 . S
H3242 C3252 0.841 1_565 S
H3243 C3255 0.929 1_565 S
H3244 C3258 0.930 . S
H3245 C3260 0.960 . S
H3246 C3260 0.960 . S
H3247 C3260 0.960 . S
C3248 H3240 0.929 . S
C3248 C3249 1.377 . S
C3248 C3250 1.384 . S
C3249 C3248 1.377 . S
C3249 C3255 1.390 . S
C3250 H3241 0.930 . S
C3250 C3248 1.384 . S
C3250 C3251 1.372 . S
C3251 C3250 1.372 . S
C3251 C3252 1.445 . S
C3251 C3256 1.490 . S
C3252 H3242 0.841 1_545 S
C3252 C3251 1.445 . S
C3252 C3255 1.435 . S
H3253 C3269 0.930 . S
H3254 C3270 0.931 . S
C3255 H3243 0.929 1_545 S
C3255 C3249 1.390 . S
C3255 C3252 1.435 . S
C3256 C3251 1.490 . S
C3256 C3258 1.395 . S
C3256 C3259 1.403 . S
H3257 C3263 0.930 . S
C3258 H3244 0.930 . S
C3258 C3256 1.395 . S
C3258 C3261 1.403 . S
C3259 C3256 1.403 . S
C3259 C3260 1.524 . S
C3259 C3263 1.400 . S
C3260 H3245 0.960 . S
C3260 H3246 0.960 . S
C3260 H3247 0.960 . S
C3260 C3259 1.524 . S
C3261 C3258 1.403 . S
C3261 C3262 1.392 . S
C3261 C3265 1.494 1_545 S
C3262 C3261 1.392 . S
C3262 C3263 1.385 . S
C3262 C3264 1.478 . S
C3263 H3257 0.930 . S
C3263 C3259 1.400 . S
C3263 C3262 1.385 . S
C3264 C3262 1.478 . S
C3264 C3266 1.381 . S
C3264 C3270 1.383 1_545 S
C3265 C3261 1.494 1_565 S
C3265 H3271 0.956 . S
C3265 H3272 0.968 . S
C3265 H3273 0.957 1_565 S
C3266 C3264 1.381 . S
C3266 C3267 1.394 . S
C3266 H3274 0.930 . S
C3267 C3266 1.394 . S
C3267 C3268 1.383 . S
C3267 H3275 0.929 . S
C3268 C3267 1.383 . S
C3268 C3269 1.377 1_545 S
C3269 H3253 0.930 . S
C3269 C3268 1.377 1_565 S
C3269 C3270 1.379 . S
C3270 H3254 0.931 . S
C3270 C3264 1.383 1_565 S
C3270 C3269 1.379 . S
H3271 C3265 0.956 . S
H3272 C3265 0.968 . S
H3273 C3265 0.957 1_545 S
H3274 C3266 0.930 . S
H3275 C3267 0.929 . S
H3276 C3284 0.929 . S
H3277 C3286 0.930 . S
H3278 C3288 0.930 . S
H3279 C3291 0.929 . S
H3280 C3294 0.930 . S
H3281 C3296 0.960 . S
H3282 C3296 0.960 . S
H3283 C3296 0.960 . S
C3284 H3276 0.929 . S
C3284 C3285 1.377 1_455 S
C3284 C3286 1.384 . S
C3285 C3284 1.377 1_655 S
C3285 C3291 1.390 . S
C3286 H3277 0.930 . S
C3286 C3284 1.384 . S
C3286 C3287 1.372 1_455 S
C3287 C3286 1.372 1_655 S
C3287 C3288 1.400 . S
C3287 C3292 1.490 . S
C3288 H3278 0.930 . S
C3288 C3287 1.400 . S
C3288 C3291 1.386 . S
H3289 C3305 0.930 . S
H3290 C3306 0.931 . S
C3291 H3279 0.929 . S
C3291 C3285 1.390 . S
C3291 C3288 1.386 . S
C3292 C3287 1.490 . S
C3292 C3294 1.395 1_655 S
C3292 C3295 1.403 . S
H3293 C3299 0.930 . S
C3294 H3280 0.930 . S
C3294 C3292 1.395 1_455 S
C3294 C3297 1.403 . S
C3295 C3292 1.403 . S
C3295 C3296 1.524 . S
C3295 C3299 1.400 . S
C3296 H3281 0.960 . S
C3296 H3282 0.960 . S
C3296 H3283 0.960 . S
C3296 C3295 1.524 . S
C3297 C3294 1.403 . S
C3297 C3298 1.392 1_455 S
C3297 C3301 1.495 . S
C3298 C3297 1.392 1_655 S
C3298 C3299 1.385 . S
C3298 C3300 1.443 . S
C3299 H3293 0.930 . S
C3299 C3295 1.400 . S
C3299 C3298 1.385 . S
C3300 C3298 1.443 . S
C3300 C3302 1.337 1_655 S
C3300 C3306 1.468 . S
C3301 C3297 1.495 . S
C3301 H3307 0.959 . S
C3301 H3308 0.961 . S
C3301 H3309 0.960 . S
C3302 C3300 1.337 1_455 S
C3302 C3303 1.394 . S
C3302 H3310 0.930 . S
C3303 C3302 1.394 . S
C3303 C3304 1.383 1_455 S
C3303 H3311 0.929 . S
C3304 C3303 1.383 1_655 S
C3304 C3305 1.377 . S
C3305 H3289 0.930 . S
C3305 C3304 1.377 . S
C3305 C3306 1.379 . S
C3306 H3290 0.931 . S
C3306 C3300 1.468 . S
C3306 C3305 1.379 . S
H3307 C3301 0.959 . S
H3308 C3301 0.961 . S
H3309 C3301 0.960 . S
H3310 C3302 0.930 . S
H3311 C3303 0.929 . S
H3312 C3320 0.929 . S
H3313 C3322 0.930 . S
H3314 C3324 0.930 . S
H3315 C3327 0.929 . S
H3316 C3330 0.930 . S
H3317 C3332 0.960 . S
H3318 C3332 0.960 . S
H3319 C3332 0.960 . S
C3320 H3312 0.929 . S
C3320 C3321 1.377 . S
C3320 C3322 1.384 . S
C3321 C3320 1.377 . S
C3321 C3327 1.390 . S
C3322 H3313 0.930 . S
C3322 C3320 1.384 . S
C3322 C3323 1.372 . S
C3323 C3322 1.372 . S
C3323 C3324 1.400 . S
C3323 C3328 1.490 . S
C3324 H3314 0.930 . S
C3324 C3323 1.400 . S
C3324 C3327 1.386 . S
H3325 C3341 0.930 . S
H3326 C3342 0.931 . S
C3327 H3315 0.929 . S
C3327 C3321 1.390 . S
C3327 C3324 1.386 . S
C3328 C3323 1.490 . S
C3328 C3330 1.395 . S
C3328 C3331 1.403 . S
H3329 C3335 0.930 . S
C3330 H3316 0.930 . S
C3330 C3328 1.395 . S
C3330 C3333 1.403 . S
C3331 C3328 1.403 . S
C3331 C3332 1.524 . S
C3331 C3335 1.400 . S
C3332 H3317 0.960 . S
C3332 H3318 0.960 . S
C3332 H3319 0.960 . S
C3332 C3331 1.524 . S
C3333 C3330 1.403 . S
C3333 C3334 1.392 . S
C3333 C3337 1.495 . S
C3334 C3333 1.392 . S
C3334 C3335 1.385 . S
C3334 C3336 1.478 . S
C3335 H3329 0.930 . S
C3335 C3331 1.400 . S
C3335 C3334 1.385 . S
C3336 C3334 1.478 . S
C3336 C3338 1.381 . S
C3336 C3342 1.383 . S
C3337 C3333 1.495 . S
C3337 H3343 0.959 . S
C3337 H3344 0.961 . S
C3337 H3345 0.960 . S
C3338 C3336 1.381 . S
C3338 C3339 1.394 . S
C3338 H3346 0.930 . S
C3339 C3338 1.394 . S
C3339 C3340 1.383 . S
C3339 H3347 0.929 . S
C3340 C3339 1.383 . S
C3340 C3341 1.377 . S
C3341 H3325 0.930 . S
C3341 C3340 1.377 . S
C3341 C3342 1.379 . S
C3342 H3326 0.931 . S
C3342 C3336 1.383 . S
C3342 C3341 1.379 . S
H3343 C3337 0.959 . S
H3344 C3337 0.961 . S
H3345 C3337 0.960 . S
H3346 C3338 0.930 . S
H3347 C3339 0.929 . S
H3348 C3356 0.929 . S
H3349 C3358 0.930 . S
H3350 C3360 0.930 . S
H3351 C3363 0.929 . S
H3352 C3366 0.930 . S
H3353 C3368 0.960 . S
H3354 C3368 0.960 . S
H3355 C3368 0.960 . S
C3356 H3348 0.929 . S
C3356 C3357 1.377 . S
C3356 C3358 1.384 . S
C3357 C3356 1.377 . S
C3357 C3363 1.390 . S
C3358 H3349 0.930 . S
C3358 C3356 1.384 . S
C3358 C3359 1.372 . S
C3359 C3358 1.372 . S
C3359 C3360 1.400 . S
C3359 C3364 1.490 . S
C3360 H3350 0.930 . S
C3360 C3359 1.400 . S
C3360 C3363 1.386 . S
H3361 C3377 0.930 . S
H3362 C3378 0.931 . S
C3363 H3351 0.929 . S
C3363 C3357 1.390 . S
C3363 C3360 1.386 . S
C3364 C3359 1.490 . S
C3364 C3366 1.395 . S
C3364 C3367 1.403 . S
H3365 C3371 0.930 . S
C3366 H3352 0.930 . S
C3366 C3364 1.395 . S
C3366 C3369 1.403 . S
C3367 C3364 1.403 . S
C3367 C3368 1.524 . S
C3367 C3371 1.400 . S
C3368 H3353 0.960 . S
C3368 H3354 0.960 . S
C3368 H3355 0.960 . S
C3368 C3367 1.524 . S
C3369 C3366 1.403 . S
C3369 C3370 1.392 . S
C3369 C3373 1.495 . S
C3370 C3369 1.392 . S
C3370 C3371 1.385 . S
C3370 C3372 1.478 . S
C3371 H3365 0.930 . S
C3371 C3367 1.400 . S
C3371 C3370 1.385 . S
C3372 C3370 1.478 . S
C3372 C3374 1.381 . S
C3372 C3378 1.383 . S
C3373 C3369 1.495 . S
C3373 H3379 0.959 . S
C3373 H3380 0.961 . S
C3373 H3381 0.960 . S
C3374 C3372 1.381 . S
C3374 C3375 1.394 . S
C3374 H3382 0.930 . S
C3375 C3374 1.394 . S
C3375 C3376 1.383 . S
C3375 H3383 0.929 . S
C3376 C3375 1.383 . S
C3376 C3377 1.377 . S
C3377 H3361 0.930 . S
C3377 C3376 1.377 . S
C3377 C3378 1.379 . S
C3378 H3362 0.931 . S
C3378 C3372 1.383 . S
C3378 C3377 1.379 . S
H3379 C3373 0.959 . S
H3380 C3373 0.961 . S
H3381 C3373 0.960 . S
H3382 C3374 0.930 . S
H3383 C3375 0.929 . S
H3384 C3392 0.929 . S
H3385 C3394 0.930 . S
H3386 C3396 0.930 . S
H3387 C3399 0.929 . S
H3388 C3402 0.930 . S
H3389 C3404 0.960 . S
H3390 C3404 0.960 . S
H3391 C3404 0.960 . S
C3392 H3384 0.929 . S
C3392 C3393 1.377 . S
C3392 C3394 1.384 . S
C3393 C3392 1.377 . S
C3393 C3399 1.390 . S
C3394 H3385 0.930 . S
C3394 C3392 1.384 . S
C3394 C3395 1.372 . S
C3395 C3394 1.372 . S
C3395 C3396 1.400 . S
C3395 C3400 1.490 . S
C3396 H3386 0.930 . S
C3396 C3395 1.400 . S
C3396 C3399 1.386 . S
H3397 C3413 0.930 . S
H3398 C3414 0.931 . S
C3399 H3387 0.929 . S
C3399 C3393 1.390 . S
C3399 C3396 1.386 . S
C3400 C3395 1.490 . S
C3400 C3402 1.395 . S
C3400 C3403 1.403 . S
H3401 C3407 0.930 . S
C3402 H3388 0.930 . S
C3402 C3400 1.395 . S
C3402 C3405 1.403 . S
C3403 C3400 1.403 . S
C3403 C3404 1.524 . S
C3403 C3407 1.400 . S
C3404 H3389 0.960 . S
C3404 H3390 0.960 . S
C3404 H3391 0.960 . S
C3404 C3403 1.524 . S
C3405 C3402 1.403 . S
C3405 C3406 1.392 . S
C3405 C3409 1.495 . S
C3406 C3405 1.392 . S
C3406 C3407 1.385 . S
C3406 C3408 1.478 . S
C3407 H3401 0.930 . S
C3407 C3403 1.400 . S
C3407 C3406 1.385 . S
C3408 C3406 1.478 . S
C3408 C3410 1.381 . S
C3408 C3414 1.383 . S
C3409 C3405 1.495 . S
C3409 H3415 0.959 . S
C3409 H3416 0.961 . S
C3409 H3417 0.960 . S
C3410 C3408 1.381 . S
C3410 C3411 1.394 . S
C3410 H3418 0.930 . S
C3411 C3410 1.394 . S
C3411 C3412 1.383 . S
C3411 H3419 0.929 . S
C3412 C3411 1.383 . S
C3412 C3413 1.377 . S
C3413 H3397 0.930 . S
C3413 C3412 1.377 . S
C3413 C3414 1.379 . S
C3414 H3398 0.931 . S
C3414 C3408 1.383 . S
C3414 C3413 1.379 . S
H3415 C3409 0.959 . S
H3416 C3409 0.961 . S
H3417 C3409 0.960 . S
H3418 C3410 0.930 . S
H3419 C3411 0.929 . S
H3420 C3428 0.929 . S
H3421 C3430 0.930 . S
H3422 C3432 0.930 . S
H3423 C3435 0.929 . S
H3424 C3438 0.930 . S
H3425 C3440 0.960 . S
H3426 C3440 0.960 . S
H3427 C3440 0.960 . S
C3428 H3420 0.929 . S
C3428 C3429 1.377 . S
C3428 C3430 1.384 . S
C3429 C3428 1.377 . S
C3429 C3435 1.390 . S
C3430 H3421 0.930 . S
C3430 C3428 1.384 . S
C3430 C3431 1.372 . S
C3431 C3430 1.372 . S
C3431 C3432 1.400 . S
C3431 C3436 1.490 . S
C3432 H3422 0.930 . S
C3432 C3431 1.400 . S
C3432 C3435 1.386 . S
H3433 C3449 0.930 . S
H3434 C3450 0.931 . S
C3435 H3423 0.929 . S
C3435 C3429 1.390 . S
C3435 C3432 1.386 . S
C3436 C3431 1.490 . S
C3436 C3438 1.395 . S
C3436 C3439 1.403 . S
H3437 C3443 0.930 . S
C3438 H3424 0.930 . S
C3438 C3436 1.395 . S
C3438 C3441 1.403 . S
C3439 C3436 1.403 . S
C3439 C3440 1.524 . S
C3439 C3443 1.400 . S
C3440 H3425 0.960 . S
C3440 H3426 0.960 . S
C3440 H3427 0.960 . S
C3440 C3439 1.524 . S
C3441 C3438 1.403 . S
C3441 C3442 1.392 . S
C3441 C3445 1.495 . S
C3442 C3441 1.392 . S
C3442 C3443 1.385 . S
C3442 C3444 1.478 . S
C3443 H3437 0.930 . S
C3443 C3439 1.400 . S
C3443 C3442 1.385 . S
C3444 C3442 1.478 . S
C3444 C3446 1.381 . S
C3444 C3450 1.383 . S
C3445 C3441 1.495 . S
C3445 H3451 0.959 . S
C3445 H3452 0.961 . S
C3445 H3453 0.960 . S
C3446 C3444 1.381 . S
C3446 C3447 1.394 . S
C3446 H3454 0.930 . S
C3447 C3446 1.394 . S
C3447 C3448 1.383 . S
C3447 H3455 0.929 . S
C3448 C3447 1.383 . S
C3448 C3449 1.377 . S
C3449 H3433 0.930 . S
C3449 C3448 1.377 . S
C3449 C3450 1.379 . S
C3450 H3434 0.931 . S
C3450 C3444 1.383 . S
C3450 C3449 1.379 . S
H3451 C3445 0.959 . S
H3452 C3445 0.961 . S
H3453 C3445 0.960 . S
H3454 C3446 0.930 . S
H3455 C3447 0.929 . S
H3456 C3464 0.929 . S
H3457 C3466 0.930 . S
H3458 C3468 0.930 . S
H3459 C3471 0.929 . S
H3460 C3474 0.930 . S
H3461 C3476 0.960 . S
H3462 C3476 0.960 . S
H3463 C3476 0.960 . S
C3464 H3456 0.929 . S
C3464 C3465 1.377 . S
C3464 C3466 1.384 . S
C3465 C3464 1.377 . S
C3465 C3471 1.390 . S
C3466 H3457 0.930 . S
C3466 C3464 1.384 . S
C3466 C3467 1.372 . S
C3467 C3466 1.372 . S
C3467 C3468 1.400 . S
C3467 C3472 1.490 . S
C3468 H3458 0.930 . S
C3468 C3467 1.400 . S
C3468 C3471 1.386 . S
H3469 C3485 0.930 . S
H3470 C3486 0.931 . S
C3471 H3459 0.929 . S
C3471 C3465 1.390 . S
C3471 C3468 1.386 . S
C3472 C3467 1.490 . S
C3472 C3474 1.395 . S
C3472 C3475 1.403 . S
H3473 C3479 0.930 . S
C3474 H3460 0.930 . S
C3474 C3472 1.395 . S
C3474 C3477 1.403 . S
C3475 C3472 1.403 . S
C3475 C3476 1.524 . S
C3475 C3479 1.400 . S
C3476 H3461 0.960 . S
C3476 H3462 0.960 . S
C3476 H3463 0.960 . S
C3476 C3475 1.524 . S
C3477 C3474 1.403 . S
C3477 C3478 1.392 . S
C3477 C3481 1.495 . S
C3478 C3477 1.392 . S
C3478 C3479 1.385 . S
C3478 C3480 1.478 . S
C3479 H3473 0.930 . S
C3479 C3475 1.400 . S
C3479 C3478 1.385 . S
C3480 C3478 1.478 . S
C3480 C3482 1.381 . S
C3480 C3486 1.383 . S
C3481 C3477 1.495 . S
C3481 H3487 0.959 . S
C3481 H3488 0.961 . S
C3481 H3489 0.960 . S
C3482 C3480 1.381 . S
C3482 C3483 1.394 . S
C3482 H3490 0.930 . S
C3483 C3482 1.394 . S
C3483 C3484 1.383 . S
C3483 H3491 0.929 . S
C3484 C3483 1.383 . S
C3484 C3485 1.377 . S
C3485 H3469 0.930 . S
C3485 C3484 1.377 . S
C3485 C3486 1.379 . S
C3486 H3470 0.931 . S
C3486 C3480 1.383 . S
C3486 C3485 1.379 . S
H3487 C3481 0.959 . S
H3488 C3481 0.961 . S
H3489 C3481 0.960 . S
H3490 C3482 0.930 . S
H3491 C3483 0.929 . S
H3492 C3500 0.929 . S
H3493 C3502 0.930 . S
H3494 C3504 0.930 . S
H3495 C3507 0.929 . S
H3496 C3510 0.930 . S
H3497 C3512 0.960 . S
H3498 C3512 0.960 . S
H3499 C3512 0.960 . S
C3500 H3492 0.929 . S
C3500 C3501 1.377 . S
C3500 C3502 1.384 . S
C3501 C3500 1.377 . S
C3501 C3507 1.390 . S
C3502 H3493 0.930 . S
C3502 C3500 1.384 . S
C3502 C3503 1.372 . S
C3503 C3502 1.372 . S
C3503 C3504 1.400 . S
C3503 C3508 1.490 . S
C3504 H3494 0.930 . S
C3504 C3503 1.400 . S
C3504 C3507 1.386 . S
H3505 C3521 0.930 . S
H3506 C3522 0.931 . S
C3507 H3495 0.929 . S
C3507 C3501 1.390 . S
C3507 C3504 1.386 . S
C3508 C3503 1.490 . S
C3508 C3510 1.395 . S
C3508 C3511 1.403 . S
H3509 C3515 0.930 . S
C3510 H3496 0.930 . S
C3510 C3508 1.395 . S
C3510 C3513 1.403 . S
C3511 C3508 1.403 . S
C3511 C3512 1.524 . S
C3511 C3515 1.400 . S
C3512 H3497 0.960 . S
C3512 H3498 0.960 . S
C3512 H3499 0.960 . S
C3512 C3511 1.524 . S
C3513 C3510 1.403 . S
C3513 C3514 1.392 . S
C3513 C3517 1.495 . S
C3514 C3513 1.392 . S
C3514 C3515 1.385 . S
C3514 C3516 1.478 . S
C3515 H3509 0.930 . S
C3515 C3511 1.400 . S
C3515 C3514 1.385 . S
C3516 C3514 1.478 . S
C3516 C3518 1.381 . S
C3516 C3522 1.383 . S
C3517 C3513 1.495 . S
C3517 H3523 0.959 . S
C3517 H3524 0.961 . S
C3517 H3525 0.960 . S
C3518 C3516 1.381 . S
C3518 C3519 1.394 . S
C3518 H3526 0.930 . S
C3519 C3518 1.394 . S
C3519 C3520 1.383 . S
C3519 H3527 0.929 . S
C3520 C3519 1.383 . S
C3520 C3521 1.377 . S
C3521 H3505 0.930 . S
C3521 C3520 1.377 . S
C3521 C3522 1.379 . S
C3522 H3506 0.931 . S
C3522 C3516 1.383 . S
C3522 C3521 1.379 . S
H3523 C3517 0.959 . S
H3524 C3517 0.961 . S
H3525 C3517 0.960 . S
H3526 C3518 0.930 . S
H3527 C3519 0.929 . S
H3528 C3536 0.929 . S
H3529 C3538 0.930 . S
H3530 C3540 0.930 . S
H3531 C3543 0.929 . S
H3532 C3546 0.930 . S
H3533 C3548 0.960 . S
H3534 C3548 0.960 . S
H3535 C3548 0.960 . S
C3536 H3528 0.929 . S
C3536 C3537 1.377 . S
C3536 C3538 1.384 . S
C3537 C3536 1.377 . S
C3537 C3543 1.390 . S
C3538 H3529 0.930 . S
C3538 C3536 1.384 . S
C3538 C3539 1.372 . S
C3539 C3538 1.372 . S
C3539 C3540 1.400 . S
C3539 C3544 1.490 . S
C3540 H3530 0.930 . S
C3540 C3539 1.400 . S
C3540 C3543 1.386 . S
H3541 C3557 0.930 . S
H3542 C3558 0.931 . S
C3543 H3531 0.929 . S
C3543 C3537 1.390 . S
C3543 C3540 1.386 . S
C3544 C3539 1.490 . S
C3544 C3546 1.395 . S
C3544 C3547 1.403 . S
H3545 C3551 0.930 . S
C3546 H3532 0.930 . S
C3546 C3544 1.395 . S
C3546 C3549 1.403 . S
C3547 C3544 1.403 . S
C3547 C3548 1.524 . S
C3547 C3551 1.400 . S
C3548 H3533 0.960 . S
C3548 H3534 0.960 . S
C3548 H3535 0.960 . S
C3548 C3547 1.524 . S
C3549 C3546 1.403 . S
C3549 C3550 1.392 . S
C3549 C3553 1.495 . S
C3550 C3549 1.392 . S
C3550 C3551 1.385 . S
C3550 C3552 1.478 . S
C3551 H3545 0.930 . S
C3551 C3547 1.400 . S
C3551 C3550 1.385 . S
C3552 C3550 1.478 . S
C3552 C3554 1.381 . S
C3552 C3558 1.383 . S
C3553 C3549 1.495 . S
C3553 H3559 0.959 . S
C3553 H3560 0.961 . S
C3553 H3561 0.960 . S
C3554 C3552 1.381 . S
C3554 C3555 1.394 . S
C3554 H3562 0.930 . S
C3555 C3554 1.394 . S
C3555 C3556 1.383 . S
C3555 H3563 0.929 . S
C3556 C3555 1.383 . S
C3556 C3557 1.377 . S
C3557 H3541 0.930 . S
C3557 C3556 1.377 . S
C3557 C3558 1.379 . S
C3558 H3542 0.931 . S
C3558 C3552 1.383 . S
C3558 C3557 1.379 . S
H3559 C3553 0.959 . S
H3560 C3553 0.961 . S
H3561 C3553 0.960 . S
H3562 C3554 0.930 . S
H3563 C3555 0.929 . S
H3564 C3572 0.929 . S
H3565 C3574 0.930 . S
H3566 C3576 0.930 . S
H3567 C3579 0.929 . S
H3568 C3582 0.930 . S
H3569 C3584 0.960 . S
H3570 C3584 0.960 . S
H3571 C3584 0.960 . S
C3572 H3564 0.929 . S
C3572 C3573 1.377 1_455 S
C3572 C3574 1.384 . S
C3573 C3572 1.377 1_655 S
C3573 C3579 1.390 . S
C3574 H3565 0.930 . S
C3574 C3572 1.384 . S
C3574 C3575 1.372 1_455 S
C3575 C3574 1.372 1_655 S
C3575 C3576 1.400 . S
C3575 C3580 1.490 . S
C3576 H3566 0.930 . S
C3576 C3575 1.400 . S
C3576 C3579 1.386 . S
H3577 C3593 0.930 . S
H3578 C3594 0.931 . S
C3579 H3567 0.929 . S
C3579 C3573 1.390 . S
C3579 C3576 1.386 . S
C3580 C3575 1.490 . S
C3580 C3582 1.395 1_655 S
C3580 C3583 1.403 . S
H3581 C3587 0.930 . S
C3582 H3568 0.930 . S
C3582 C3580 1.395 1_455 S
C3582 C3585 1.403 . S
C3583 C3580 1.403 . S
C3583 C3584 1.524 . S
C3583 C3587 1.400 . S
C3584 H3569 0.960 . S
C3584 H3570 0.960 . S
C3584 H3571 0.960 . S
C3584 C3583 1.524 . S
C3585 C3582 1.403 . S
C3585 C3586 1.392 1_455 S
C3585 C3589 1.495 . S
C3586 C3585 1.392 1_655 S
C3586 C3587 1.385 . S
C3586 C3588 1.478 . S
C3587 H3581 0.930 . S
C3587 C3583 1.400 . S
C3587 C3586 1.385 . S
C3588 C3586 1.478 . S
C3588 C3590 1.381 1_655 S
C3588 C3594 1.383 . S
C3589 C3585 1.495 . S
C3589 H3595 0.959 . S
C3589 H3596 0.961 . S
C3589 H3597 0.960 . S
C3590 C3588 1.381 1_455 S
C3590 C3591 1.394 . S
C3590 H3598 0.930 . S
C3591 C3590 1.394 . S
C3591 C3592 1.383 1_455 S
C3591 H3599 0.929 . S
C3592 C3591 1.383 1_655 S
C3592 C3593 1.377 . S
C3593 H3577 0.930 . S
C3593 C3592 1.377 . S
C3593 C3594 1.379 . S
C3594 H3578 0.931 . S
C3594 C3588 1.383 . S
C3594 C3593 1.379 . S
H3595 C3589 0.959 . S
H3596 C3589 0.961 . S
H3597 C3589 0.960 . S
H3598 C3590 0.930 . S
H3599 C3591 0.929 . S
H3600 C3608 0.929 . S
H3601 C3610 0.930 . S
H3602 C3612 0.930 . S
H3603 C3615 0.929 . S
H3604 C3618 0.930 . S
H3605 C3620 0.960 . S
H3606 C3620 0.960 . S
H3607 C3620 0.960 . S
C3608 H3600 0.929 . S
C3608 C3609 1.377 . S
C3608 C3610 1.384 . S
C3609 C3608 1.377 . S
C3609 C3615 1.390 . S
C3610 H3601 0.930 . S
C3610 C3608 1.384 . S
C3610 C3611 1.372 . S
C3611 C3610 1.372 . S
C3611 C3612 1.400 . S
C3611 C3616 1.490 . S
C3612 H3602 0.930 . S
C3612 C3611 1.400 . S
C3612 C3615 1.386 . S
H3613 C3629 0.930 . S
H3614 C3630 0.931 . S
C3615 H3603 0.929 . S
C3615 C3609 1.390 . S
C3615 C3612 1.386 . S
C3616 C3611 1.490 . S
C3616 C3618 1.395 . S
C3616 C3619 1.403 . S
H3617 C3623 0.930 . S
C3618 H3604 0.930 . S
C3618 C3616 1.395 . S
C3618 C3621 1.403 . S
C3619 C3616 1.403 . S
C3619 C3620 1.524 . S
C3619 C3623 1.400 . S
C3620 H3605 0.960 . S
C3620 H3606 0.960 . S
C3620 H3607 0.960 . S
C3620 C3619 1.524 . S
C3621 C3618 1.403 . S
C3621 C3622 1.392 . S
C3621 C3625 1.495 . S
C3622 C3621 1.392 . S
C3622 C3623 1.385 . S
C3622 C3624 1.478 . S
C3623 H3617 0.930 . S
C3623 C3619 1.400 . S
C3623 C3622 1.385 . S
C3624 C3622 1.478 . S
C3624 C3626 1.381 . S
C3624 C3630 1.383 . S
C3625 C3621 1.495 . S
C3625 H3631 0.959 . S
C3625 H3632 0.961 . S
C3625 H3633 0.960 . S
C3626 C3624 1.381 . S
C3626 C3627 1.394 . S
C3626 H3634 0.930 . S
C3627 C3626 1.394 . S
C3627 C3628 1.383 . S
C3627 H3635 0.929 . S
C3628 C3627 1.383 . S
C3628 C3629 1.377 . S
C3629 H3613 0.930 . S
C3629 C3628 1.377 . S
C3629 C3630 1.379 . S
C3630 H3614 0.931 . S
C3630 C3624 1.383 . S
C3630 C3629 1.379 . S
H3631 C3625 0.959 . S
H3632 C3625 0.961 . S
H3633 C3625 0.960 . S
H3634 C3626 0.930 . S
H3635 C3627 0.929 . S
H3636 C3644 0.929 . S
H3637 C3646 0.930 . S
H3638 C3648 0.889 1_565 S
H3639 C3651 0.929 1_565 S
H3640 C3654 0.930 . S
H3641 C3656 0.960 . S
H3642 C3656 0.960 . S
H3643 C3656 0.960 . S
C3644 H3636 0.929 . S
C3644 C3645 1.377 . S
C3644 C3646 1.384 . S
C3645 C3644 1.377 . S
C3645 C3651 1.390 . S
C3646 H3637 0.930 . S
C3646 C3644 1.384 . S
C3646 C3647 1.372 . S
C3647 C3646 1.372 . S
C3647 C3648 1.470 . S
C3647 C3652 1.490 . S
C3648 H3638 0.889 1_545 S
C3648 C3647 1.470 . S
C3648 C3651 1.359 . S
H3649 C3665 0.930 . S
H3650 C3666 0.931 . S
C3651 H3639 0.929 1_545 S
C3651 C3645 1.390 . S
C3651 C3648 1.359 . S
C3652 C3647 1.490 . S
C3652 C3654 1.395 . S
C3652 C3655 1.403 . S
H3653 C3659 0.930 . S
C3654 H3640 0.930 . S
C3654 C3652 1.395 . S
C3654 C3657 1.403 . S
C3655 C3652 1.403 . S
C3655 C3656 1.524 . S
C3655 C3659 1.400 . S
C3656 H3641 0.960 . S
C3656 H3642 0.960 . S
C3656 H3643 0.960 . S
C3656 C3655 1.524 . S
C3657 C3654 1.403 . S
C3657 C3658 1.392 . S
C3657 C3661 1.495 . S
C3658 C3657 1.392 . S
C3658 C3659 1.385 . S
C3658 C3660 1.478 . S
C3659 H3653 0.930 . S
C3659 C3655 1.400 . S
C3659 C3658 1.385 . S
C3660 C3658 1.478 . S
C3660 C3662 1.381 . S
C3660 C3666 1.383 1_545 S
C3661 C3657 1.495 . S
C3661 H3667 0.959 . S
C3661 H3668 0.961 1_545 S
C3661 H3669 0.960 . S
C3662 C3660 1.381 . S
C3662 C3663 1.394 . S
C3662 H3670 0.930 . S
C3663 C3662 1.394 . S
C3663 C3664 1.383 . S
C3663 H3671 0.929 . S
C3664 C3663 1.383 . S
C3664 C3665 1.377 1_545 S
C3665 H3649 0.930 . S
C3665 C3664 1.377 1_565 S
C3665 C3666 1.379 . S
C3666 H3650 0.931 . S
C3666 C3660 1.383 1_565 S
C3666 C3665 1.379 . S
H3667 C3661 0.959 . S
H3668 C3661 0.961 1_565 S
H3669 C3661 0.960 . S
H3670 C3662 0.930 . S
H3671 C3663 0.929 . S
C1089 C9 1.394 1_655 S
C1108 C688 1.436 . S
C1125 C19 1.570 . S
C1144 C734 1.544 . S
C1180 C766 1.487 . S
C1161 C33 1.483 . S
C1197 C37 1.451 . S
C1216 C819 1.449 . S
C1233 C5 1.428 . S
C1252 C865 1.434 . S
C1269 C23 1.601 . S
C1288 C904 1.583 . S
C1305 C47 1.450 . S
C1324 C858 1.450 . S
C1360 C911 1.617 . S
C1341 C65 1.621 . S
C1396 C812 1.456 . S
C1377 C75 1.448 . S
C1413 C79 1.370 . S
C1432 C773 1.375 . S
C1468 C667 1.473 . S
C1449 C51 1.439 . S
C1485 C61 1.593 . S
C1504 C713 1.586 . S
C1521 C93 1.725 . S
C1540 C943 1.717 . S
C1557 C103 1.647 . S
C1576 C1010 1.640 . S
C1612 C1056 1.647 . S
C1593 C117 1.660 . S
C1629 C121 1.607 . S
C1648 C267 1.582 . S
C1665 C89 1.645 . S
C1684 C313 1.618 . S
C1701 C107 1.653 . S
C1720 C359 1.643 . S
C1737 C131 1.591 . S
C1756 C306 1.580 . S
C1773 C149 1.666 . S
C1792 C352 1.650 . S
C1828 C260 1.611 . S
C1809 C159 1.635 . S
C1864 C1035 1.654 . S
C1845 C163 1.691 . S
C1900 C964 1.659 . S
C1881 C135 1.683 . S
C1936 C989 1.650 . S
C1917 C145 1.673 . S
C1953 C177 1.604 . S
C1972 C391 1.581 . S
C1989 C187 1.608 . S
C2008 C444 1.604 . S
C2025 C201 1.676 . S
C2044 C490 1.667 . S
C2061 C205 1.728 . S
C2080 C536 1.706 . S
C2116 C589 1.600 . S
C2097 C173 1.634 . S
C2152 C635 1.663 . S
C2133 C191 1.697 . S
C2188 C582 1.690 . S
C2169 C215 1.722 . S
C2224 C628 1.697 . S
C2205 C233 1.712 . S
C2241 C243 1.614 . S
C2260 C543 1.608 . S
C2296 C497 1.532 . S
C2277 C247 1.557 . S
C2313 C219 1.697 . S
C2332 C412 1.684 . S
C2368 C451 1.624 . S
C2349 C229 1.647 . S
C2404 C274 1.584 . S
C2385 C11 1.594 . S
C2421 C14 1.502 . S
C2440 C320 1.478 . S
C2476 C366 1.650 . S
C2457 C28 1.680 . S
C2512 C398 1.649 . S
C2493 C39 1.668 . S
C2548 C437 1.566 . S
C2529 C0 1.609 . S
C2584 C483 1.443 . S
C2565 C25 1.465 . S
C2601 C42 1.669 . S
C2620 C504 1.659 . S
C2637 C67 1.525 . S
C2656 C405 1.515 . S
C2673 C70 1.548 . S
C2692 C458 1.516 . S
C2709 C81 1.588 . S
C2728 C299 1.571 . S
C2764 C345 1.639 . S
C2745 C53 1.646 . S
C2781 C56 1.543 . S
C2800 C253 1.518 . S
C2836 C529 1.498 . S
C2817 C95 1.539 . S
C2853 C98 1.668 . S
C2872 C596 1.659 . S
C2889 C112 1.742 . S
C2908 C642 1.716 . S
C2944 C681 1.396 . S
C2925 C123 1.390 . S
C2961 C84 1.572 . S
C2980 C727 1.564 . S
C2997 C109 1.325 . S
C3016 C759 1.326 . S
C3033 C126 1.418 . S
C3052 C780 1.426 . S
C3069 C151 1.370 . S
C3088 C674 1.383 . S
C3124 C720 1.521 . S
C3105 C154 1.544 . S
C3141 C165 1.526 . S
C3160 C575 1.497 . S
C3177 C137 1.691 . S
C3196 C621 1.665 . S
C3232 C550 1.693 . S
C3213 C140 1.704 . S
C3268 C826 1.360 . S
C3249 C179 1.357 . S
C3285 C182 1.362 . S
C3304 C872 1.379 . S
C3321 C196 1.640 . S
C3340 C897 1.601 . S
C3376 C950 1.596 . S
C3357 C207 1.611 . S
C3412 C1003 1.645 . S
C3393 C168 1.662 . S
C3429 C193 1.637 . S
C3448 C1049 1.618 . S
C3465 C210 1.627 . S
C3484 C1042 1.619 . S
C3501 C235 1.689 . S
C3520 C957 1.675 . S
C3556 C996 1.605 . S
C3537 C238 1.625 . S
C3592 C851 1.315 . S
C3573 C249 1.313 . S
C3628 C918 1.556 . S
C3609 C221 1.600 . S
C3645 C224 1.391 . S
C3664 C805 1.412 . S
