# Generated by pormake.
# Topology dag, (6,3)-cn, num edge types: 1
# Building blocks:
#     Node 0, Type 0, BuildingBlock: OJICUG_clean_sbu_0, # of connection points: 6
#     Node 1, Type 0, BuildingBlock: OJICUG_clean_sbu_0, # of connection points: 6
#     Node 2, Type 0, BuildingBlock: OJICUG_clean_sbu_0, # of connection points: 6
#     Node 3, Type 0, BuildingBlock: OJICUG_clean_sbu_0, # of connection points: 6
#     Node 4, Type 1, BuildingBlock: MIDCAF_clean_linker_0, # of connection points: 3
#     Node 5, Type 1, BuildingBlock: MIDCAF_clean_linker_0, # of connection points: 3
#     Node 6, Type 1, BuildingBlock: MIDCAF_clean_linker_0, # of connection points: 3
#     Node 7, Type 1, BuildingBlock: MIDCAF_clean_linker_0, # of connection points: 3
#     Node 8, Type 1, BuildingBlock: MIDCAF_clean_linker_0, # of connection points: 3
#     Node 9, Type 1, BuildingBlock: MIDCAF_clean_linker_0, # of connection points: 3
#     Node 10, Type 1, BuildingBlock: MIDCAF_clean_linker_0, # of connection points: 3
#     Node 11, Type 1, BuildingBlock: MIDCAF_clean_linker_0, # of connection points: 3
#     Edge 12, Type (0, 1), BuildingBlock: AJUNOK_clean_linker_0, # of connection points: 2
#     Edge 13, Type (0, 1), BuildingBlock: AJUNOK_clean_linker_0, # of connection points: 2
#     Edge 14, Type (0, 1), BuildingBlock: AJUNOK_clean_linker_0, # of connection points: 2
#     Edge 15, Type (0, 1), BuildingBlock: AJUNOK_clean_linker_0, # of connection points: 2
#     Edge 16, Type (0, 1), BuildingBlock: AJUNOK_clean_linker_0, # of connection points: 2
#     Edge 17, Type (0, 1), BuildingBlock: AJUNOK_clean_linker_0, # of connection points: 2
#     Edge 18, Type (0, 1), BuildingBlock: AJUNOK_clean_linker_0, # of connection points: 2
#     Edge 19, Type (0, 1), BuildingBlock: AJUNOK_clean_linker_0, # of connection points: 2
#     Edge 20, Type (0, 1), BuildingBlock: AJUNOK_clean_linker_0, # of connection points: 2
#     Edge 21, Type (0, 1), BuildingBlock: AJUNOK_clean_linker_0, # of connection points: 2
#     Edge 22, Type (0, 1), BuildingBlock: AJUNOK_clean_linker_0, # of connection points: 2
#     Edge 23, Type (0, 1), BuildingBlock: AJUNOK_clean_linker_0, # of connection points: 2
#     Edge 24, Type (0, 1), BuildingBlock: AJUNOK_clean_linker_0, # of connection points: 2
#     Edge 25, Type (0, 1), BuildingBlock: AJUNOK_clean_linker_0, # of connection points: 2
#     Edge 26, Type (0, 1), BuildingBlock: AJUNOK_clean_linker_0, # of connection points: 2
#     Edge 27, Type (0, 1), BuildingBlock: AJUNOK_clean_linker_0, # of connection points: 2
#     Edge 28, Type (0, 1), BuildingBlock: AJUNOK_clean_linker_0, # of connection points: 2
#     Edge 29, Type (0, 1), BuildingBlock: AJUNOK_clean_linker_0, # of connection points: 2
#     Edge 30, Type (0, 1), BuildingBlock: AJUNOK_clean_linker_0, # of connection points: 2
#     Edge 31, Type (0, 1), BuildingBlock: AJUNOK_clean_linker_0, # of connection points: 2
#     Edge 32, Type (0, 1), BuildingBlock: AJUNOK_clean_linker_0, # of connection points: 2
#     Edge 33, Type (0, 1), BuildingBlock: AJUNOK_clean_linker_0, # of connection points: 2
#     Edge 34, Type (0, 1), BuildingBlock: AJUNOK_clean_linker_0, # of connection points: 2
#     Edge 35, Type (0, 1), BuildingBlock: AJUNOK_clean_linker_0, # of connection points: 2
# Relax obj value: 0.257
# Max RMSD: 0.201
# Mean RMSD: 0.166
data_MOF--net-dag--node1-OJICUG_clean_sbu_0--node2-MIDCAF_clean_linker_0--edge1-AJUNOK_clean_linker_0
_symmetry_space_group_name_H-M    P1
_symmetry_Int_Tables_number       1
_symmetry_cell_setting            triclinic
loop_
_symmetry_equiv_pos_as_xyz
'x, y, z'
_cell_length_a     36.041096
_cell_length_b     34.377881
_cell_length_c     35.318603
_cell_angle_alpha  89.775011
_cell_angle_beta   95.171373
_cell_angle_gamma 89.966303
loop_
_atom_site_label
_atom_site_type_symbol
_atom_site_fract_x
_atom_site_fract_y
_atom_site_fract_z
_atom_type_partial_charge
Sc0 Sc 0.15242 0.87705 0.03943 0.0
Sc1 Sc 0.17241 0.79149 0.99162 0.0
Sc2 Sc 0.24604 0.85204 0.03054 0.0
O3 O 0.19038 0.84015 0.02056 0.0
C4 C 0.21324 0.93656 0.01306 0.0
C5 C 0.11525 0.85613 0.95687 0.0
C6 C 0.2399 0.81999 0.94563 0.0
C7 C 0.11434 0.79491 0.05403 0.0
C8 C 0.21464 0.87425 0.10924 0.0
C9 C 0.24297 0.75998 0.04407 0.0
O10 O 0.18084 0.92782 0.02159 0.0
O11 O 0.13102 0.82311 0.95545 0.0
O12 O 0.25673 0.83944 0.97252 0.0
O13 O 0.11872 0.83114 0.05958 0.0
O14 O 0.2416 0.86612 0.08975 0.0
O15 O 0.21195 0.7548 0.02456 0.0
O16 O 0.18123 0.8785 0.0951 0.0
O17 O 0.13196 0.77612 0.03047 0.0
O18 O 0.2583 0.79319 0.04818 0.0
O19 O 0.12059 0.87886 0.98512 0.0
O20 O 0.24006 0.91251 0.01431 0.0
O21 O 0.20996 0.80139 0.94904 0.0
Sc22 Sc 0.74144 0.64678 0.53101 0.0
Sc23 Sc 0.67209 0.71293 0.49277 0.0
Sc24 Sc 0.64695 0.63108 0.5436 0.0
O25 O 0.68693 0.66356 0.52235 0.0
C26 C 0.7016 0.56545 0.51539 0.0
C27 C 0.74021 0.68324 0.44826 0.0
C28 C 0.61157 0.65181 0.45944 0.0
C29 C 0.74264 0.73878 0.54744 0.0
C30 C 0.71084 0.62805 0.61133 0.0
C31 C 0.61215 0.71474 0.55397 0.0
O32 O 0.73013 0.58709 0.5144 0.0
O33 O 0.71219 0.70444 0.45265 0.0
O34 O 0.61369 0.63193 0.49004 0.0
O35 O 0.75718 0.70491 0.54887 0.0
O36 O 0.67679 0.62806 0.5986 0.0
O37 O 0.62924 0.73029 0.52799 0.0
O38 O 0.73751 0.63238 0.59045 0.0
O39 O 0.71147 0.74648 0.52887 0.0
O40 O 0.6172 0.67957 0.564 0.0
O41 O 0.75317 0.65873 0.47302 0.0
O42 O 0.6711 0.57772 0.5263 0.0
O43 O 0.6318 0.68165 0.45493 0.0
Sc44 Sc 0.82392 0.21343 0.09149 0.0
Sc45 Sc 0.75184 0.14968 0.05549 0.0
Sc46 Sc 0.84555 0.1297 0.04207 0.0
O47 O 0.807 0.16427 0.06305 0.0
C48 C 0.88319 0.21211 0.02995 0.0
C49 C 0.75235 0.24202 0.04054 0.0
C50 C 0.78122 0.13121 0.97456 0.0
C51 C 0.75674 0.18494 0.13848 0.0
C52 C 0.88168 0.14956 0.12562 0.0
C53 C 0.78824 0.06598 0.06877 0.0
O54 O 0.86586 0.22935 0.05465 0.0
O55 O 0.7366 0.2088 0.03961 0.0
O56 O 0.81529 0.12893 0.98715 0.0
O57 O 0.78468 0.2059 0.13289 0.0
O58 O 0.87804 0.12817 0.09617 0.0
O59 O 0.76081 0.08897 0.07052 0.0
O60 O 0.86428 0.18155 0.12852 0.0
O61 O 0.74265 0.16062 0.11427 0.0
O62 O 0.81927 0.07731 0.05848 0.0
O63 O 0.78491 0.24814 0.05642 0.0
O64 O 0.87796 0.17653 0.02196 0.0
O65 O 0.75478 0.13686 0.99555 0.0
Sc66 Sc 0.35129 0.36953 0.54032 0.0
Sc67 Sc 0.25672 0.34984 0.54904 0.0
Sc68 Sc 0.32732 0.28644 0.59005 0.0
O69 O 0.31165 0.33523 0.55981 0.0
C70 C 0.38914 0.28677 0.53121 0.0
C71 C 0.29044 0.36718 0.46978 0.0
C72 C 0.25803 0.25728 0.53636 0.0
C73 C 0.2926 0.43352 0.56297 0.0
C74 C 0.38266 0.35131 0.62588 0.0
C75 C 0.25729 0.31557 0.63242 0.0
O76 O 0.38444 0.32235 0.52277 0.0
O77 O 0.26277 0.36191 0.48929 0.0
O78 O 0.28994 0.25122 0.55386 0.0
O79 O 0.32421 0.42211 0.55439 0.0
O80 O 0.36565 0.31905 0.62855 0.0
O81 O 0.24438 0.3396 0.60714 0.0
O82 O 0.38085 0.37186 0.59574 0.0
O83 O 0.26497 0.41063 0.56348 0.0
O84 O 0.28572 0.2946 0.62884 0.0
O85 O 0.32392 0.36964 0.48418 0.0
O86 O 0.37123 0.26985 0.55577 0.0
O87 O 0.24237 0.29056 0.5338 0.0
C88 C 0.00917 0.05686 0.2324 0.0
C89 C 0.98845 0.08871 0.24372 0.0
C90 C 0.99699 0.10436 0.28017 0.0
C91 C 0.02681 0.08957 0.30407 0.0
H92 H 0.11078 0.13201 0.37759 0.0
H93 H 0.14083 0.1768 0.4233 0.0
H94 H 0.21949 0.0875 0.46292 0.0
H95 H 0.19018 0.04259 0.41565 0.0
H96 H 0.21075 0.99503 0.32483 0.0
H97 H 0.24409 0.95321 0.28316 0.0
H98 H 0.13953 0.90147 0.2401 0.0
H99 H 0.10681 0.94185 0.28211 0.0
H100 H 0.05446 0.01793 0.24607 0.0
H101 H 0.00343 0.04427 0.20442 0.0
H102 H 0.98089 0.12825 0.29009 0.0
H103 H 0.03334 0.10288 0.3316 0.0
N104 N 0.09747 0.06717 0.34454 0.0
N105 N 0.14981 0.02604 0.35152 0.0
N106 N 0.10119 0.01379 0.30441 0.0
C107 C 0.13098 0.0576 0.36303 0.0
C108 C 0.1347 0.00375 0.32238 0.0
C109 C 0.08237 0.04537 0.31521 0.0
C110 C 0.14802 0.08361 0.39298 0.0
C111 C 0.13418 0.12156 0.39628 0.0
C112 C 0.15122 0.14725 0.42279 0.0
C113 C 0.18207 0.13546 0.44725 0.0
C114 C 0.19569 0.09734 0.44443 0.0
C115 C 0.17889 0.07166 0.41744 0.0
C116 C 0.15609 0.97228 0.30605 0.0
C117 C 0.19518 0.97368 0.30742 0.0
C118 C 0.21422 0.95004 0.28333 0.0
C119 C 0.19436 0.92475 0.25765 0.0
C120 C 0.15577 0.92059 0.25945 0.0
C121 C 0.13689 0.94404 0.28337 0.0
C122 C 0.0483 0.0585 0.29213 0.0
C123 C 0.03856 0.0418 0.25635 0.0
C124 C 0.30244 0.62526 0.5743 0.0
C125 C 0.28553 0.5988 0.59779 0.0
C126 C 0.27437 0.61172 0.63268 0.0
C127 C 0.28268 0.64959 0.64514 0.0
H128 H 0.27099 0.72658 0.73006 0.0
H129 H 0.2528 0.74749 0.79114 0.0
H130 H 0.33525 0.83878 0.79499 0.0
H131 H 0.35447 0.81727 0.73374 0.0
H132 H 0.42935 0.78603 0.68516 0.0
H133 H 0.49275 0.79007 0.66571 0.0
H134 H 0.45198 0.75735 0.55163 0.0
H135 H 0.38894 0.75318 0.57085 0.0
H136 H 0.32583 0.68186 0.56882 0.0
H137 H 0.31095 0.61609 0.54706 0.0
H138 H 0.26165 0.59182 0.65152 0.0
H139 H 0.27578 0.65794 0.6732 0.0
N140 N 0.30777 0.72583 0.67222 0.0
N141 N 0.35681 0.77099 0.67577 0.0
N142 N 0.34936 0.72693 0.62514 0.0
C143 C 0.32613 0.756 0.69027 0.0
C144 C 0.36835 0.75674 0.64296 0.0
C145 C 0.31909 0.71125 0.63955 0.0
C146 C 0.31429 0.77016 0.72687 0.0
C147 C 0.28535 0.75117 0.74367 0.0
C148 C 0.27478 0.76322 0.77871 0.0
C149 C 0.2927 0.79466 0.79786 0.0
C150 C 0.32138 0.81406 0.78109 0.0
C151 C 0.33215 0.80187 0.74591 0.0
C152 C 0.40428 0.76883 0.62959 0.0
C153 C 0.43375 0.78105 0.65563 0.0
C154 C 0.47002 0.78326 0.64459 0.0
C155 C 0.47718 0.77406 0.60722 0.0
C156 C 0.4472 0.76516 0.58048 0.0
C157 C 0.41113 0.76245 0.59158 0.0
C158 C 0.30263 0.67495 0.62304 0.0
C159 C 0.31097 0.6629 0.5868 0.0
C160 C 0.76815 0.72165 0.27339 0.0
C161 C 0.79381 0.70335 0.29993 0.0
C162 C 0.82907 0.69315 0.28921 0.0
C163 C 0.83935 0.70359 0.2532 0.0
H164 H 0.93261 0.71863 0.18872 0.0
H165 H 0.99645 0.71888 0.16989 0.0
H166 H 0.95508 0.7533 0.05621 0.0
H167 H 0.89165 0.75302 0.07474 0.0
H168 H 0.82112 0.81748 0.07134 0.0
H169 H 0.80495 0.88349 0.05056 0.0
H170 H 0.76082 0.90603 0.15797 0.0
H171 H 0.77601 0.83955 0.17851 0.0
H172 H 0.75822 0.74746 0.21843 0.0
H173 H 0.74053 0.72913 0.28086 0.0
H174 H 0.84921 0.6789 0.30927 0.0
H175 H 0.86731 0.69698 0.24622 0.0
N176 N 0.85874 0.72878 0.17814 0.0
N177 N 0.84991 0.77456 0.12871 0.0
N178 N 0.80673 0.77037 0.1741 0.0
C179 C 0.87031 0.74537 0.14621 0.0
C180 C 0.81821 0.78737 0.14249 0.0
C181 C 0.82646 0.74066 0.19176 0.0
C182 C 0.90722 0.73635 0.13331 0.0
C183 C 0.93709 0.72509 0.15944 0.0
C184 C 0.9736 0.72548 0.14879 0.0
C185 C 0.98062 0.73667 0.11179 0.0
C186 C 0.95044 0.74453 0.08491 0.0
C187 C 0.91414 0.74457 0.0956 0.0
C188 C 0.80039 0.82348 0.12678 0.0
C189 C 0.807 0.83612 0.09013 0.0
C190 C 0.79777 0.87391 0.07823 0.0
C191 C 0.78206 0.90003 0.10283 0.0
C192 C 0.77256 0.88646 0.13826 0.0
C193 C 0.78143 0.84838 0.15005 0.0
C194 C 0.81444 0.72438 0.22756 0.0
C195 C 0.77836 0.73216 0.23767 0.0
C196 C 0.68974 0.40197 0.94768 0.0
C197 C 0.67588 0.36393 0.95049 0.0
C198 C 0.64504 0.35254 0.92592 0.0
C199 C 0.62831 0.37853 0.89925 0.0
H200 H 0.5297 0.39643 0.833 0.0
H201 H 0.47702 0.37221 0.79128 0.0
H202 H 0.49524 0.46273 0.70989 0.0
H203 H 0.54652 0.48776 0.75166 0.0
H204 H 0.60385 0.55911 0.78453 0.0
H205 H 0.63709 0.59914 0.74238 0.0
H206 H 0.74064 0.54373 0.78366 0.0
H207 H 0.70676 0.50237 0.82558 0.0
H208 H 0.68479 0.45689 0.91873 0.0
H209 H 0.71349 0.41153 0.96627 0.0
H210 H 0.63446 0.32308 0.92642 0.0
H211 H 0.60494 0.36841 0.88044 0.0
N212 N 0.59199 0.43402 0.8477 0.0
N213 N 0.59663 0.48714 0.80704 0.0
N214 N 0.64538 0.47358 0.85376 0.0
C215 C 0.57713 0.45618 0.81833 0.0
C216 C 0.63057 0.49619 0.82453 0.0
C217 C 0.62587 0.44265 0.86577 0.0
C218 C 0.54248 0.44404 0.79572 0.0
C219 C 0.52198 0.41164 0.80654 0.0
C220 C 0.49191 0.39764 0.78263 0.0
C221 C 0.48178 0.41576 0.74749 0.0
C222 C 0.50164 0.44872 0.73722 0.0
C223 C 0.53136 0.4629 0.76115 0.0
C224 C 0.65255 0.52701 0.80772 0.0
C225 C 0.63384 0.55601 0.78536 0.0
C226 C 0.65303 0.57924 0.76137 0.0
C227 C 0.69145 0.57408 0.75909 0.0
C228 C 0.71089 0.54776 0.78425 0.0
C229 C 0.69156 0.52437 0.80848 0.0
C230 C 0.64249 0.41635 0.8959 0.0
C231 C 0.67329 0.42791 0.92052 0.0
C232 C 0.55355 0.23405 0.50633 0.0
C233 C 0.52392 0.22472 0.47938 0.0
C234 C 0.53176 0.21254 0.443 0.0
C235 C 0.56838 0.21327 0.43271 0.0
H236 H 0.6376 0.1915 0.34556 0.0
H237 H 0.65484 0.1756 0.28188 0.0
H238 H 0.76054 0.23302 0.30701 0.0
H239 H 0.74348 0.24947 0.37009 0.0
H240 H 0.72731 0.33594 0.41398 0.0
H241 H 0.73795 0.40407 0.43183 0.0
H242 H 0.6816 0.38565 0.533 0.0
H243 H 0.6709 0.31783 0.51565 0.0
H244 H 0.61191 0.24499 0.51672 0.0
H245 H 0.5483 0.24355 0.53458 0.0
H246 H 0.50937 0.20469 0.4219 0.0
H247 H 0.57333 0.20641 0.40368 0.0
N248 N 0.64585 0.22265 0.4133 0.0
N249 N 0.69468 0.26816 0.41617 0.0
N250 N 0.65216 0.26854 0.46234 0.0
C251 C 0.67685 0.23714 0.39897 0.0
C252 C 0.68253 0.28398 0.44796 0.0
C253 C 0.63371 0.23796 0.4454 0.0
C254 C 0.6889 0.22243 0.36267 0.0
C255 C 0.66474 0.20026 0.3377 0.0
C256 C 0.67454 0.19108 0.3013 0.0
C257 C 0.7086 0.20389 0.28941 0.0
C258 C 0.7337 0.22368 0.31525 0.0
C259 C 0.72391 0.23302 0.35139 0.0
C260 C 0.6975 0.3216 0.46297 0.0
C261 C 0.71818 0.34603 0.44063 0.0
C262 C 0.72433 0.38502 0.45078 0.0
C263 C 0.70998 0.39997 0.48336 0.0
C264 C 0.69249 0.37473 0.50747 0.0
C265 C 0.68636 0.33593 0.49743 0.0
C266 C 0.5975 0.22653 0.4586 0.0
C267 C 0.58997 0.23508 0.49601 0.0
C268 C 0.22821 0.27966 0.80723 0.0
C269 C 0.20245 0.29732 0.78037 0.0
C270 C 0.167 0.30722 0.7908 0.0
C271 C 0.15665 0.29701 0.82686 0.0
H272 H 0.06337 0.28208 0.89286 0.0
H273 H 0.00029 0.28424 0.91364 0.0
H274 H 0.0441 0.25216 0.02723 0.0
H275 H 0.10675 0.24973 0.00665 0.0
H276 H 0.1702 0.17673 0.0051 0.0
H277 H 0.18852 0.11036 0.02337 0.0
H278 H 0.24108 0.09741 0.91919 0.0
H279 H 0.22322 0.16387 0.90076 0.0
H280 H 0.23815 0.25445 0.86247 0.0
H281 H 0.25597 0.27242 0.79998 0.0
H282 H 0.14677 0.32099 0.77048 0.0
H283 H 0.12854 0.30325 0.83362 0.0
N284 N 0.13772 0.27242 0.90261 0.0
N285 N 0.14599 0.22537 0.95102 0.0
N286 N 0.18884 0.22977 0.90534 0.0
C287 C 0.12615 0.25542 0.93435 0.0
C288 C 0.17726 0.2122 0.93663 0.0
C289 C 0.16959 0.26016 0.88843 0.0
C290 C 0.08988 0.26544 0.94812 0.0
C291 C 0.05962 0.27675 0.92252 0.0
C292 C 0.02357 0.27785 0.93431 0.0
C293 C 0.01745 0.26853 0.97201 0.0
C294 C 0.0481 0.26009 0.99815 0.0
C295 C 0.08392 0.2584 0.98629 0.0
C296 C 0.19478 0.17546 0.95123 0.0
C297 C 0.18641 0.16012 0.98644 0.0
C298 C 0.19702 0.12223 0.99703 0.0
C299 C 0.2158 0.09887 0.97243 0.0
C300 C 0.22639 0.11492 0.93845 0.0
C301 C 0.21622 0.153 0.92805 0.0
C302 C 0.18167 0.27672 0.85279 0.0
C303 C 0.21793 0.26936 0.84298 0.0
C304 C 0.35591 0.63276 0.13733 0.0
C305 C 0.31692 0.63285 0.13047 0.0
C306 C 0.29615 0.60527 0.14907 0.0
C307 C 0.314 0.57904 0.17508 0.0
H308 H 0.29524 0.49208 0.25669 0.0
H309 H 0.26381 0.44807 0.29829 0.0
H310 H 0.37066 0.40221 0.34266 0.0
H311 H 0.40164 0.44499 0.30106 0.0
H312 H 0.47135 0.50536 0.3084 0.0
H313 H 0.52032 0.53163 0.35313 0.0
H314 H 0.49998 0.6465 0.3061 0.0
H315 H 0.45131 0.62021 0.26053 0.0
H316 H 0.40373 0.6083 0.16881 0.0
H317 H 0.37262 0.65345 0.1231 0.0
H318 H 0.26601 0.60511 0.14485 0.0
H319 H 0.29714 0.55903 0.18994 0.0
N320 N 0.35394 0.52493 0.22822 0.0
N321 N 0.40495 0.51485 0.27322 0.0
N322 N 0.40564 0.56684 0.23046 0.0
C323 C 0.3708 0.50389 0.25758 0.0
C324 C 0.42253 0.54628 0.26001 0.0
C325 C 0.3716 0.55608 0.21407 0.0
C326 C 0.35096 0.47229 0.27592 0.0
C327 C 0.31182 0.4716 0.27441 0.0
C328 C 0.29383 0.44654 0.29828 0.0
C329 C 0.31467 0.42145 0.32356 0.0
C330 C 0.3536 0.4204 0.32294 0.0
C331 C 0.37147 0.44539 0.29937 0.0
C332 C 0.45694 0.56081 0.28138 0.0
C333 C 0.47772 0.53611 0.30704 0.0
C334 C 0.50566 0.55113 0.33275 0.0
C335 C 0.51311 0.59122 0.33369 0.0
C336 C 0.49455 0.61551 0.30607 0.0
C337 C 0.46671 0.6004 0.28002 0.0
C338 C 0.35289 0.58029 0.18329 0.0
C339 C 0.37369 0.60687 0.16352 0.0
C340 C 0.83705 0.08181 0.82401 0.0
C341 C 0.79865 0.07764 0.82712 0.0
C342 C 0.77864 0.04997 0.80422 0.0
C343 C 0.79721 0.02528 0.78062 0.0
H344 H 0.78908 0.9395 0.69202 0.0
H345 H 0.76151 0.89155 0.64692 0.0
H346 H 0.87063 0.84407 0.63461 0.0
H347 H 0.89824 0.8912 0.68004 0.0
H348 H 0.96021 0.89895 0.75194 0.0
H349 H 0.01374 0.87461 0.79266 0.0
H350 H 0.99257 0.95978 0.87771 0.0
H351 H 0.9405 0.98506 0.83688 0.0
H352 H 0.88544 0.05988 0.80074 0.0
H353 H 0.85362 0.10202 0.84186 0.0
H354 H 0.74906 0.04602 0.80616 0.0
H355 H 0.78159 0.00262 0.76507 0.0
N356 N 0.84258 0.97444 0.73394 0.0
N357 N 0.89628 0.93514 0.73881 0.0
N358 N 0.89149 0.98693 0.78067 0.0
C359 C 0.86225 0.94411 0.72105 0.0
C360 C 0.91104 0.95635 0.76876 0.0
C361 C 0.8575 0.99635 0.76345 0.0
C362 C 0.8458 0.91876 0.69017 0.0
C363 C 0.80727 0.91916 0.67937 0.0
C364 C 0.79146 0.89179 0.65351 0.0
C365 C 0.8139 0.86367 0.63797 0.0
C366 C 0.85261 0.86482 0.64697 0.0
C367 C 0.86838 0.89192 0.67291 0.0
C368 C 0.94579 0.9438 0.79117 0.0
C369 C 0.96727 0.91276 0.77915 0.0
C370 C 0.99772 0.89855 0.80261 0.0
C371 C 0.00698 0.91482 0.8387 0.0
C372 C 0.98631 0.9467 0.85001 0.0
C373 C 0.95627 0.96113 0.82653 0.0
C374 C 0.83611 0.02763 0.7801 0.0
C375 C 0.85548 0.05721 0.80074 0.0
C376 C 0.2058 0.85719 0.17588 0.0
C377 C 0.22179 0.88178 0.15005 0.0
C378 C 0.20121 0.86959 0.21289 0.0
C379 C 0.21149 0.90744 0.22486 0.0
H380 H 0.1943 0.82935 0.16654 0.0
H381 H 0.1866 0.85068 0.23114 0.0
S382 S 0.25805 0.98118 0.16831 0.0
N383 N 0.25149 0.94359 0.13954 0.0
N384 N 0.24171 0.96789 0.20861 0.0
C385 C 0.23051 0.93095 0.20014 0.0
C386 C 0.23575 0.91791 0.16268 0.0
C387 C 0.57033 0.72455 0.60577 0.0
C388 C 0.58231 0.73675 0.57078 0.0
C389 C 0.53772 0.73941 0.61896 0.0
C390 C 0.51569 0.76679 0.59751 0.0
H391 H 0.58528 0.70195 0.6223 0.0
H392 H 0.52838 0.72734 0.64485 0.0
S393 S 0.53711 0.81233 0.50677 0.0
N394 N 0.5715 0.78118 0.51697 0.0
N395 N 0.50997 0.80878 0.54189 0.0
C396 C 0.52866 0.78138 0.56394 0.0
C397 C 0.56209 0.76653 0.5506 0.0
C398 C 0.8156 0.99931 0.07486 0.0
C399 C 0.78474 0.02391 0.07814 0.0
C400 C 0.81396 0.95955 0.08248 0.0
C401 C 0.78144 0.94226 0.09382 0.0
H402 H 0.8416 0.01068 0.0663 0.0
H403 H 0.83876 0.94225 0.08001 0.0
S404 S 0.69258 0.99276 0.10685 0.0
N405 N 0.72031 0.0276 0.09368 0.0
N406 N 0.71744 0.95231 0.10801 0.0
C407 C 0.7503 0.96615 0.09752 0.0
C408 C 0.75187 0.00701 0.08961 0.0
C409 C 0.4293 0.34296 0.68218 0.0
C410 C 0.40465 0.36692 0.65957 0.0
C411 C 0.45315 0.35872 0.71179 0.0
C412 C 0.45267 0.3988 0.72002 0.0
H413 H 0.43136 0.31227 0.67584 0.0
H414 H 0.4732 0.33967 0.72721 0.0
S415 S 0.38816 0.47223 0.67322 0.0
N416 N 0.37803 0.43155 0.64985 0.0
N417 N 0.42185 0.46092 0.70626 0.0
C418 C 0.42624 0.42242 0.69917 0.0
C419 C 0.40247 0.40653 0.66875 0.0
C420 C 0.7384 0.50505 0.5033 0.0
C421 C 0.70369 0.5238 0.50449 0.0
C422 C 0.74058 0.46499 0.49579 0.0
C423 C 0.70814 0.44243 0.48952 0.0
H424 H 0.76409 0.52117 0.50906 0.0
H425 H 0.76771 0.45142 0.49578 0.0
S426 S 0.61063 0.4777 0.48468 0.0
N427 N 0.63614 0.5167 0.49507 0.0
N428 N 0.64058 0.44179 0.48158 0.0
C429 C 0.67342 0.46093 0.48919 0.0
C430 C 0.67109 0.5015 0.49652 0.0
C431 C 0.92444 0.21952 0.97723 0.0
C432 C 0.9132 0.23284 0.01207 0.0
C433 C 0.9568 0.2337 0.96286 0.0
C434 C 0.97934 0.26141 0.98301 0.0
H435 H 0.90896 0.19676 0.96166 0.0
H436 H 0.96551 0.22098 0.93707 0.0
S437 S 0.96024 0.30915 0.07311 0.0
N438 N 0.92547 0.27823 0.0645 0.0
N439 N 0.98654 0.3045 0.03745 0.0
C440 C 0.96724 0.27686 0.01653 0.0
C441 C 0.93405 0.26273 0.03103 0.0
C442 C 0.26933 0.40933 0.41498 0.0
C443 C 0.28444 0.37377 0.4286 0.0
C444 C 0.27577 0.42295 0.37863 0.0
C445 C 0.29747 0.40132 0.35493 0.0
H446 H 0.25571 0.4284 0.43381 0.0
H447 H 0.26679 0.45217 0.37068 0.0
S448 S 0.3358 0.30247 0.37486 0.0
N449 N 0.31688 0.31462 0.41404 0.0
N450 N 0.3279 0.33944 0.34519 0.0
C451 C 0.30876 0.36367 0.36673 0.0
C452 C 0.3026 0.35012 0.4038 0.0
C453 C 0.08738 0.90935 0.91554 0.0
C454 C 0.08978 0.86942 0.92423 0.0
C455 C 0.0618 0.92345 0.8866 0.0
C456 C 0.03713 0.89827 0.86553 0.0
H457 H 0.10522 0.93 0.93151 0.0
H458 H 0.06083 0.9545 0.88121 0.0
S459 S 0.03218 0.79106 0.87721 0.0
N460 N 0.06608 0.80467 0.90896 0.0
N461 N 0.01691 0.83128 0.85531 0.0
C462 C 0.03982 0.8581 0.8733 0.0
C463 C 0.06637 0.84366 0.9025 0.0
C464 C 0.75939 0.0873 0.92186 0.0
C465 C 0.77287 0.12395 0.93379 0.0
C466 C 0.76391 0.07394 0.88507 0.0
C467 C 0.78203 0.09692 0.85921 0.0
H468 H 0.7487 0.06741 0.94213 0.0
H469 H 0.75656 0.04405 0.87831 0.0
S470 S 0.81455 0.19843 0.87473 0.0
N471 N 0.79971 0.18519 0.91577 0.0
N472 N 0.80696 0.16084 0.84607 0.0
C473 C 0.79137 0.13542 0.86957 0.0
C474 C 0.78723 0.14871 0.90711 0.0
C475 C 0.43956 0.23648 0.53495 0.0
C476 C 0.41906 0.26545 0.51397 0.0
C477 C 0.47235 0.2212 0.5223 0.0
C478 C 0.48536 0.23385 0.48796 0.0
H479 H 0.43159 0.2273 0.56245 0.0
H480 H 0.48859 0.20071 0.54035 0.0
S481 S 0.43918 0.30539 0.42023 0.0
N482 N 0.41202 0.30324 0.4554 0.0
N483 N 0.47357 0.27461 0.43171 0.0
C484 C 0.46362 0.26065 0.46542 0.0
C485 C 0.4305 0.27646 0.47843 0.0
C486 C 0.23819 0.00352 0.02415 0.0
C487 C 0.21898 0.97647 -2e-05 0.0
C488 C 0.23837 0.0432 0.01449 0.0
C489 C 0.21987 0.05669 0.98014 0.0
H490 H 0.25161 0.99422 0.05137 0.0
H491 H 0.25216 0.06359 0.03439 0.0
S492 S 0.16649 0.9968 0.90704 0.0
N493 N 0.1817 0.96534 0.94037 0.0
N494 N 0.18257 0.03966 0.92175 0.0
C495 C 0.20177 0.02952 0.95523 0.0
C496 C 0.20115 0.98941 0.96532 0.0
C497 C 0.59026 0.64816 0.38966 0.0
C498 C 0.58495 0.63842 0.42761 0.0
C499 C 0.56679 0.63317 0.35923 0.0
C500 C 0.53734 0.60788 0.36573 0.0
H501 H 0.61322 0.6667 0.38335 0.0
H502 H 0.57218 0.64074 0.33043 0.0
S503 S 0.50852 0.57733 0.45957 0.0
N504 N 0.54578 0.60449 0.46977 0.0
N505 N 0.50196 0.57672 0.41275 0.0
C506 C 0.53089 0.59915 0.40347 0.0
C507 C 0.55461 0.6143 0.43433 0.0
C508 C 0.32026 0.49975 0.57148 0.0
C509 C 0.28881 0.47546 0.57226 0.0
C510 C 0.31846 0.53938 0.57933 0.0
C511 C 0.28519 0.55678 0.58844 0.0
H512 H 0.34687 0.48821 0.56481 0.0
H513 H 0.34366 0.55648 0.57882 0.0
S514 S 0.19467 0.50711 0.59466 0.0
N515 N 0.22306 0.4722 0.58313 0.0
N516 N 0.21992 0.54725 0.59799 0.0
C517 C 0.25347 0.53321 0.5897 0.0
C518 C 0.2552 0.49251 0.58152 0.0
C519 C 0.06395 0.74498 0.05421 0.0
C520 C 0.08476 0.77489 0.07312 0.0
C521 C 0.03137 0.73075 0.06823 0.0
C522 C 0.01887 0.7454 0.10197 0.0
H523 H 0.07152 0.73419 0.02717 0.0
H524 H 0.01492 0.70938 0.05168 0.0
S525 S 0.066 0.82015 0.16468 0.0
N526 N 0.09261 0.81589 0.12923 0.0
N527 N 0.03146 0.78907 0.15557 0.0
C528 C 0.04089 0.77324 0.12255 0.0
C529 C 0.0738 0.78803 0.1081 0.0
C530 C 0.70383 0.6436 0.67861 0.0
C531 C 0.71872 0.61929 0.65196 0.0
C532 C 0.69939 0.63029 0.71545 0.0
C533 C 0.70872 0.59182 0.72647 0.0
H534 H 0.69299 0.67202 0.67005 0.0
H535 H 0.68554 0.64908 0.73433 0.0
S536 S 0.75266 0.51847 0.66775 0.0
N537 N 0.74672 0.55701 0.63981 0.0
N538 N 0.73717 0.53108 0.70857 0.0
C539 C 0.72684 0.56853 0.701 0.0
C540 C 0.73197 0.58247 0.6637 0.0
C541 C 0.90906 0.09561 0.16602 0.0
C542 C 0.90686 0.13567 0.15809 0.0
C543 C 0.93435 0.08097 0.19493 0.0
C544 C 0.95886 0.10575 0.21666 0.0
H545 H 0.89123 0.0753 0.14956 0.0
H546 H 0.93516 0.04984 0.19983 0.0
S547 S 0.96431 0.21313 0.20675 0.0
N548 N 0.93059 0.20012 0.17452 0.0
N549 N 0.97927 0.17252 0.22814 0.0
C550 C 0.95641 0.14606 0.20952 0.0
C551 C 0.93015 0.16103 0.18038 0.0
C552 C 0.29127 0.73335 0.09246 0.0
C553 C 0.26174 0.72641 0.06438 0.0
C554 C 0.30899 0.70287 0.1132 0.0
C555 C 0.29812 0.66404 0.10675 0.0
H556 H 0.30054 0.76271 0.09911 0.0
H557 H 0.33097 0.70993 0.13506 0.0
S558 S 0.2241 0.62939 0.03511 0.0
N559 N 0.22335 0.6772 0.03034 0.0
N560 N 0.2572 0.61983 0.06931 0.0
C561 C 0.2691 0.65638 0.07848 0.0
C562 C 0.25085 0.68753 0.05728 0.0
C563 C 0.75353 0.80957 0.56162 0.0
C564 C 0.76216 0.77028 0.56988 0.0
C565 C 0.77055 0.83972 0.5835 0.0
C566 C 0.79683 0.83168 0.61439 0.0
H567 H 0.73344 0.81717 0.53808 0.0
H568 H 0.76317 0.86953 0.57613 0.0
S569 S 0.82725 0.73402 0.64991 0.0
N570 N 0.79777 0.72519 0.61245 0.0
N571 N 0.82933 0.78182 0.65348 0.0
C572 C 0.80553 0.79264 0.62319 0.0
C573 C 0.78833 0.76197 0.60097 0.0
C574 C 0.72765 0.15806 0.1951 0.0
C575 C 0.74029 0.1901 0.17495 0.0
C576 C 0.71633 0.16263 0.23193 0.0
C577 C 0.71725 0.19937 0.24946 0.0
H578 H 0.72796 0.12915 0.18302 0.0
H579 H 0.70806 0.13717 0.24725 0.0
S580 S 0.7419 0.29315 0.20596 0.0
N581 N 0.74889 0.26023 0.17346 0.0
N582 N 0.72729 0.26877 0.24213 0.0
C583 C 0.72767 0.23181 0.22859 0.0
C584 C 0.73928 0.22718 0.19146 0.0
C585 C 0.22487 0.34274 0.68668 0.0
C586 C 0.2387 0.31061 0.66772 0.0
C587 C 0.21172 0.33834 0.72279 0.0
C588 C 0.21199 0.30169 0.74071 0.0
H589 H 0.22575 0.37159 0.67434 0.0
H590 H 0.2027 0.36385 0.73738 0.0
S591 S 0.23923 0.20775 0.70007 0.0
N592 N 0.24757 0.24047 0.66758 0.0
N593 N 0.22275 0.23231 0.73496 0.0
C594 C 0.22348 0.26917 0.72091 0.0
C595 C 0.23688 0.2736 0.68452 0.0
C596 C 0.77185 0.65669 0.3932 0.0
C597 C 0.75833 0.6886 0.41273 0.0
C598 C 0.78468 0.66156 0.357 0.0
C599 C 0.78439 0.69845 0.33956 0.0
H600 H 0.77101 0.62769 0.40519 0.0
H601 H 0.7935 0.63624 0.342 0.0
S602 S 0.75786 0.79189 0.38171 0.0
N603 N 0.7497 0.75876 0.41386 0.0
N604 N 0.77393 0.76777 0.34631 0.0
C605 C 0.77316 0.73072 0.35989 0.0
C606 C 0.76009 0.72583 0.39637 0.0
C607 C 0.75247 0.30197 0.0007 0.0
C608 C 0.73252 0.27474 0.02064 0.0
C609 C 0.73402 0.33151 0.97904 0.0
C610 C 0.69499 0.33518 0.97698 0.0
H611 H 0.78245 0.29956 0.00063 0.0
H612 H 0.75035 0.35071 0.96272 0.0
S613 S 0.6307 0.27467 0.02875 0.0
N614 N 0.67218 0.25522 0.03982 0.0
N615 N 0.6375 0.31164 0.0002 0.0
C616 C 0.67496 0.30934 0.99848 0.0
C617 C 0.69372 0.27889 0.02003 0.0
C618 C 0.25864 0.19724 0.4971 0.0
C619 C 0.23857 0.22433 0.51691 0.0
C620 C 0.24026 0.16767 0.47566 0.0
C621 C 0.20125 0.16388 0.47376 0.0
H622 H 0.28858 0.19987 0.49691 0.0
H623 H 0.2566 0.14861 0.45932 0.0
S624 S 0.13688 0.22377 0.52571 0.0
N625 N 0.17828 0.24342 0.53642 0.0
N626 N 0.14376 0.18695 0.49728 0.0
C627 C 0.18118 0.18947 0.49532 0.0
C628 C 0.19983 0.21992 0.5166 0.0
C629 C 0.2299 0.81579 0.87534 0.0
C630 C 0.25492 0.81876 0.90813 0.0
C631 C 0.2426 0.81002 0.8396 0.0
C632 C 0.28083 0.80658 0.83521 0.0
H633 H 0.2001 0.81718 0.87738 0.0
H634 H 0.22221 0.80716 0.81528 0.0
S635 S 0.35793 0.81389 0.91187 0.0
N636 N 0.31977 0.81981 0.93386 0.0
N637 N 0.34379 0.808 0.86645 0.0
C638 C 0.30632 0.81113 0.86748 0.0
C639 C 0.29332 0.81743 0.90402 0.0
loop_
_geom_bond_atom_site_label_1
_geom_bond_atom_site_label_2
_geom_bond_distance
_geom_bond_site_symmetry_2
_ccdc_geom_bond_type
Sc0 O3 2.025 . S
Sc0 O10 2.105 . S
Sc0 O13 2.105 . S
Sc0 O16 2.105 . S
Sc0 O19 2.105 1_554 S
Sc1 O3 2.025 1_556 S
Sc1 O11 2.105 . S
Sc1 O15 2.105 1_556 S
Sc1 O17 2.105 1_556 S
Sc1 O21 2.105 . S
Sc2 O3 2.025 . S
Sc2 O12 2.105 1_554 S
Sc2 O14 2.105 . S
Sc2 O18 2.105 . S
Sc2 O20 2.105 . S
O3 Sc0 2.025 . S
O3 Sc1 2.025 1_554 S
O3 Sc2 2.025 . S
C4 O10 1.268 1_556 S
C4 O20 1.268 1_556 S
C5 O11 1.268 . S
C5 O19 1.268 . S
C6 O12 1.268 . S
C6 O21 1.268 . S
C7 O13 1.268 . S
C7 O17 1.268 . S
C8 O14 1.268 . S
C8 O16 1.268 . S
C9 O15 1.268 . S
C9 O18 1.268 . S
O10 Sc0 2.105 . S
O10 C4 1.268 1_554 S
O11 Sc1 2.105 . S
O11 C5 1.268 . S
O12 Sc2 2.105 1_556 S
O12 C6 1.268 . S
O13 Sc0 2.105 . S
O13 C7 1.268 . S
O14 Sc2 2.105 . S
O14 C8 1.268 . S
O15 Sc1 2.105 1_554 S
O15 C9 1.268 . S
O16 Sc0 2.105 . S
O16 C8 1.268 . S
O17 Sc1 2.105 1_554 S
O17 C7 1.268 . S
O18 Sc2 2.105 . S
O18 C9 1.268 . S
O19 Sc0 2.105 1_556 S
O19 C5 1.268 . S
O20 Sc2 2.105 . S
O20 C4 1.268 1_554 S
O21 Sc1 2.105 . S
O21 C6 1.268 . S
Sc22 O25 2.025 . S
Sc22 O32 2.105 . S
Sc22 O35 2.105 . S
Sc22 O38 2.105 . S
Sc22 O41 2.105 . S
Sc23 O25 2.025 . S
Sc23 O33 2.105 . S
Sc23 O37 2.105 . S
Sc23 O39 2.105 . S
Sc23 O43 2.105 . S
Sc24 O25 2.025 . S
Sc24 O34 2.105 . S
Sc24 O36 2.105 . S
Sc24 O40 2.105 . S
Sc24 O42 2.105 . S
O25 Sc22 2.025 . S
O25 Sc23 2.025 . S
O25 Sc24 2.025 . S
C26 O32 1.268 . S
C26 O42 1.268 . S
C27 O33 1.268 . S
C27 O41 1.268 . S
C28 O34 1.268 . S
C28 O43 1.268 . S
C29 O35 1.268 . S
C29 O39 1.268 . S
C30 O36 1.268 . S
C30 O38 1.268 . S
C31 O37 1.268 . S
C31 O40 1.268 . S
O32 Sc22 2.105 . S
O32 C26 1.268 . S
O33 Sc23 2.105 . S
O33 C27 1.268 . S
O34 Sc24 2.105 . S
O34 C28 1.268 . S
O35 Sc22 2.105 . S
O35 C29 1.268 . S
O36 Sc24 2.105 . S
O36 C30 1.268 . S
O37 Sc23 2.105 . S
O37 C31 1.268 . S
O38 Sc22 2.105 . S
O38 C30 1.268 . S
O39 Sc23 2.105 . S
O39 C29 1.268 . S
O40 Sc24 2.105 . S
O40 C31 1.268 . S
O41 Sc22 2.105 . S
O41 C27 1.268 . S
O42 Sc24 2.105 . S
O42 C26 1.268 . S
O43 Sc23 2.105 . S
O43 C28 1.268 . S
Sc44 O47 2.025 . S
Sc44 O54 2.105 . S
Sc44 O57 2.105 . S
Sc44 O60 2.105 . S
Sc44 O63 2.105 . S
Sc45 O47 2.025 . S
Sc45 O55 2.105 . S
Sc45 O59 2.105 . S
Sc45 O61 2.105 . S
Sc45 O65 2.118 . S
Sc46 O47 2.025 . S
Sc46 O56 2.105 . S
Sc46 O58 2.105 . S
Sc46 O62 2.105 . S
Sc46 O64 2.105 . S
O47 Sc44 2.025 . S
O47 Sc45 2.025 . S
O47 Sc46 2.025 . S
C48 O54 1.268 . S
C48 O64 1.268 . S
C49 O55 1.268 . S
C49 O63 1.268 . S
C50 O56 1.268 1_556 S
C50 O65 1.261 1_556 S
C51 O57 1.268 . S
C51 O61 1.268 . S
C52 O58 1.268 . S
C52 O60 1.268 . S
C53 O59 1.268 . S
C53 O62 1.268 . S
O54 Sc44 2.105 . S
O54 C48 1.268 . S
O55 Sc45 2.105 . S
O55 C49 1.268 . S
O56 Sc46 2.105 . S
O56 C50 1.268 1_554 S
O57 Sc44 2.105 . S
O57 C51 1.268 . S
O58 Sc46 2.105 . S
O58 C52 1.268 . S
O59 Sc45 2.105 . S
O59 C53 1.268 . S
O60 Sc44 2.105 . S
O60 C52 1.268 . S
O61 Sc45 2.105 . S
O61 C51 1.268 . S
O62 Sc46 2.105 . S
O62 C53 1.268 . S
O63 Sc44 2.105 . S
O63 C49 1.268 . S
O64 Sc46 2.105 . S
O64 C48 1.268 . S
O65 Sc45 2.118 . S
O65 C50 1.261 1_554 S
Sc66 O69 2.025 . S
Sc66 O76 2.105 . S
Sc66 O79 2.105 . S
Sc66 O82 2.105 . S
Sc66 O85 2.105 . S
Sc67 O69 2.025 . S
Sc67 O77 2.105 . S
Sc67 O81 2.105 . S
Sc67 O83 2.105 . S
Sc67 O87 2.105 . S
Sc68 O69 2.025 . S
Sc68 O78 2.105 . S
Sc68 O80 2.105 . S
Sc68 O84 2.105 . S
Sc68 O86 2.105 . S
O69 Sc66 2.025 . S
O69 Sc67 2.025 . S
O69 Sc68 2.025 . S
C70 O76 1.268 . S
C70 O86 1.268 . S
C71 O77 1.268 . S
C71 O85 1.268 . S
C72 O78 1.268 . S
C72 O87 1.268 . S
C73 O79 1.268 . S
C73 O83 1.268 . S
C74 O80 1.268 . S
C74 O82 1.268 . S
C75 O81 1.268 . S
C75 O84 1.268 . S
O76 Sc66 2.105 . S
O76 C70 1.268 . S
O77 Sc67 2.105 . S
O77 C71 1.268 . S
O78 Sc68 2.105 . S
O78 C72 1.268 . S
O79 Sc66 2.105 . S
O79 C73 1.268 . S
O80 Sc68 2.105 . S
O80 C74 1.268 . S
O81 Sc67 2.105 . S
O81 C75 1.268 . S
O82 Sc66 2.105 . S
O82 C74 1.268 . S
O83 Sc67 2.105 . S
O83 C73 1.268 . S
O84 Sc68 2.105 . S
O84 C75 1.268 . S
O85 Sc66 2.105 . S
O85 C71 1.268 . S
O86 Sc68 2.105 . S
O86 C70 1.268 . S
O87 Sc67 2.105 . S
O87 C72 1.268 . S
C88 C89 1.384 . S
C88 H101 0.947 . S
C88 C123 1.382 1_655 S
C89 C88 1.384 . S
C89 C90 1.378 1_655 S
C90 C89 1.378 1_455 S
C90 C91 1.378 . S
C90 H102 0.952 1_455 S
C91 C90 1.378 . S
C91 H103 0.950 . S
C91 C122 1.383 . S
H92 C111 0.947 . S
H93 C112 0.946 . S
H94 C114 0.953 . S
H95 C115 0.945 . S
H96 C117 0.952 . S
H97 C118 0.949 . S
H98 C120 0.950 . S
H99 C121 0.948 . S
H100 C123 0.951 . S
H101 C88 0.947 . S
H102 C90 0.952 1_655 S
H103 C91 0.950 . S
N104 C107 1.382 . S
N104 C109 1.363 . S
N105 C107 1.371 . S
N105 C108 1.372 . S
N106 C108 1.361 . S
N106 C109 1.377 . S
C107 N104 1.382 . S
C107 N105 1.371 . S
C107 C110 1.480 . S
C108 N105 1.372 . S
C108 N106 1.361 . S
C108 C116 1.457 . S
C109 N104 1.363 . S
C109 N106 1.377 . S
C109 C122 1.479 . S
C110 C107 1.480 . S
C110 C111 1.383 . S
C110 C115 1.385 . S
C111 H92 0.947 . S
C111 C110 1.383 . S
C111 C112 1.388 . S
C112 H93 0.946 . S
C112 C111 1.388 . S
C112 C113 1.384 . S
C113 C112 1.384 . S
C113 C114 1.377 . S
C114 H94 0.953 . S
C114 C113 1.377 . S
C114 C115 1.369 . S
C115 H95 0.945 . S
C115 C110 1.385 . S
C115 C114 1.369 . S
C116 C108 1.457 . S
C116 C117 1.372 1_545 S
C116 C121 1.364 1_545 S
C117 H96 0.952 . S
C117 C116 1.372 1_565 S
C117 C118 1.389 . S
C118 H97 0.949 . S
C118 C117 1.389 . S
C118 C119 1.387 . S
C119 C118 1.387 . S
C119 C120 1.372 . S
C120 H98 0.950 . S
C120 C119 1.372 . S
C120 C121 1.379 . S
C121 H99 0.948 . S
C121 C116 1.364 1_565 S
C121 C120 1.379 . S
C122 C91 1.383 . S
C122 C109 1.479 . S
C122 C123 1.398 . S
C123 C88 1.382 1_455 S
C123 H100 0.951 . S
C123 C122 1.398 . S
C124 C125 1.384 . S
C124 H137 0.947 . S
C124 C159 1.382 . S
C125 C124 1.384 . S
C125 C126 1.378 . S
C126 C125 1.378 . S
C126 C127 1.378 . S
C126 H138 0.952 . S
C127 C126 1.378 . S
C127 H139 0.950 . S
C127 C158 1.383 . S
H128 C147 0.947 . S
H129 C148 0.946 . S
H130 C150 0.953 . S
H131 C151 0.945 . S
H132 C153 0.952 . S
H133 C154 0.949 . S
H134 C156 0.950 . S
H135 C157 0.948 . S
H136 C159 0.951 . S
H137 C124 0.947 . S
H138 C126 0.952 . S
H139 C127 0.950 . S
N140 C143 1.382 . S
N140 C145 1.363 . S
N141 C143 1.371 . S
N141 C144 1.372 . S
N142 C144 1.361 . S
N142 C145 1.377 . S
C143 N140 1.382 . S
C143 N141 1.371 . S
C143 C146 1.480 . S
C144 N141 1.372 . S
C144 N142 1.361 . S
C144 C152 1.457 . S
C145 N140 1.363 . S
C145 N142 1.377 . S
C145 C158 1.479 . S
C146 C143 1.480 . S
C146 C147 1.383 . S
C146 C151 1.385 . S
C147 H128 0.947 . S
C147 C146 1.383 . S
C147 C148 1.388 . S
C148 H129 0.946 . S
C148 C147 1.388 . S
C148 C149 1.384 . S
C149 C148 1.384 . S
C149 C150 1.377 . S
C150 H130 0.953 . S
C150 C149 1.377 . S
C150 C151 1.369 . S
C151 H131 0.945 . S
C151 C146 1.385 . S
C151 C150 1.369 . S
C152 C144 1.457 . S
C152 C153 1.372 . S
C152 C157 1.364 . S
C153 H132 0.952 . S
C153 C152 1.372 . S
C153 C154 1.389 . S
C154 H133 0.949 . S
C154 C153 1.389 . S
C154 C155 1.387 . S
C155 C154 1.387 . S
C155 C156 1.372 . S
C156 H134 0.950 . S
C156 C155 1.372 . S
C156 C157 1.379 . S
C157 H135 0.948 . S
C157 C152 1.364 . S
C157 C156 1.379 . S
C158 C127 1.383 . S
C158 C145 1.479 . S
C158 C159 1.398 . S
C159 C124 1.382 . S
C159 H136 0.951 . S
C159 C158 1.398 . S
C160 C161 1.384 . S
C160 H173 0.947 . S
C160 C195 1.382 . S
C161 C160 1.384 . S
C161 C162 1.378 . S
C162 C161 1.378 . S
C162 C163 1.378 . S
C162 H174 0.952 . S
C163 C162 1.378 . S
C163 H175 0.950 . S
C163 C194 1.383 . S
H164 C183 0.947 . S
H165 C184 0.946 . S
H166 C186 0.953 . S
H167 C187 0.945 . S
H168 C189 0.952 . S
H169 C190 0.949 . S
H170 C192 0.950 . S
H171 C193 0.948 . S
H172 C195 0.951 . S
H173 C160 0.947 . S
H174 C162 0.952 . S
H175 C163 0.950 . S
N176 C179 1.382 . S
N176 C181 1.363 . S
N177 C179 1.371 . S
N177 C180 1.372 . S
N178 C180 1.361 . S
N178 C181 1.377 . S
C179 N176 1.382 . S
C179 N177 1.371 . S
C179 C182 1.480 . S
C180 N177 1.372 . S
C180 N178 1.361 . S
C180 C188 1.457 . S
C181 N176 1.363 . S
C181 N178 1.377 . S
C181 C194 1.479 . S
C182 C179 1.480 . S
C182 C183 1.383 . S
C182 C187 1.385 . S
C183 H164 0.947 . S
C183 C182 1.383 . S
C183 C184 1.388 . S
C184 H165 0.946 . S
C184 C183 1.388 . S
C184 C185 1.384 . S
C185 C184 1.384 . S
C185 C186 1.377 . S
C186 H166 0.953 . S
C186 C185 1.377 . S
C186 C187 1.369 . S
C187 H167 0.945 . S
C187 C182 1.385 . S
C187 C186 1.369 . S
C188 C180 1.457 . S
C188 C189 1.372 . S
C188 C193 1.364 . S
C189 H168 0.952 . S
C189 C188 1.372 . S
C189 C190 1.389 . S
C190 H169 0.949 . S
C190 C189 1.389 . S
C190 C191 1.387 . S
C191 C190 1.387 . S
C191 C192 1.372 . S
C192 H170 0.950 . S
C192 C191 1.372 . S
C192 C193 1.379 . S
C193 H171 0.948 . S
C193 C188 1.364 . S
C193 C192 1.379 . S
C194 C163 1.383 . S
C194 C181 1.479 . S
C194 C195 1.398 . S
C195 C160 1.382 . S
C195 H172 0.951 . S
C195 C194 1.398 . S
C196 C197 1.384 . S
C196 H209 0.947 . S
C196 C231 1.382 . S
C197 C196 1.384 . S
C197 C198 1.378 . S
C198 C197 1.378 . S
C198 C199 1.378 . S
C198 H210 0.952 . S
C199 C198 1.378 . S
C199 H211 0.950 . S
C199 C230 1.383 . S
H200 C219 0.947 . S
H201 C220 0.946 . S
H202 C222 0.953 . S
H203 C223 0.945 . S
H204 C225 0.952 . S
H205 C226 0.949 . S
H206 C228 0.950 . S
H207 C229 0.948 . S
H208 C231 0.951 . S
H209 C196 0.947 . S
H210 C198 0.952 . S
H211 C199 0.950 . S
N212 C215 1.382 . S
N212 C217 1.363 . S
N213 C215 1.371 . S
N213 C216 1.372 . S
N214 C216 1.361 . S
N214 C217 1.377 . S
C215 N212 1.382 . S
C215 N213 1.371 . S
C215 C218 1.480 . S
C216 N213 1.372 . S
C216 N214 1.361 . S
C216 C224 1.457 . S
C217 N212 1.363 . S
C217 N214 1.377 . S
C217 C230 1.479 . S
C218 C215 1.480 . S
C218 C219 1.383 . S
C218 C223 1.385 . S
C219 H200 0.947 . S
C219 C218 1.383 . S
C219 C220 1.388 . S
C220 H201 0.946 . S
C220 C219 1.388 . S
C220 C221 1.384 . S
C221 C220 1.384 . S
C221 C222 1.377 . S
C222 H202 0.953 . S
C222 C221 1.377 . S
C222 C223 1.369 . S
C223 H203 0.945 . S
C223 C218 1.385 . S
C223 C222 1.369 . S
C224 C216 1.457 . S
C224 C225 1.372 . S
C224 C229 1.364 . S
C225 H204 0.952 . S
C225 C224 1.372 . S
C225 C226 1.389 . S
C226 H205 0.949 . S
C226 C225 1.389 . S
C226 C227 1.387 . S
C227 C226 1.387 . S
C227 C228 1.372 . S
C228 H206 0.950 . S
C228 C227 1.372 . S
C228 C229 1.379 . S
C229 H207 0.948 . S
C229 C224 1.364 . S
C229 C228 1.379 . S
C230 C199 1.383 . S
C230 C217 1.479 . S
C230 C231 1.398 . S
C231 C196 1.382 . S
C231 H208 0.951 . S
C231 C230 1.398 . S
C232 C233 1.384 . S
C232 H245 0.947 . S
C232 C267 1.382 . S
C233 C232 1.384 . S
C233 C234 1.378 . S
C234 C233 1.378 . S
C234 C235 1.378 . S
C234 H246 0.952 . S
C235 C234 1.378 . S
C235 H247 0.950 . S
C235 C266 1.383 . S
H236 C255 0.947 . S
H237 C256 0.946 . S
H238 C258 0.953 . S
H239 C259 0.945 . S
H240 C261 0.952 . S
H241 C262 0.949 . S
H242 C264 0.950 . S
H243 C265 0.948 . S
H244 C267 0.951 . S
H245 C232 0.947 . S
H246 C234 0.952 . S
H247 C235 0.950 . S
N248 C251 1.382 . S
N248 C253 1.363 . S
N249 C251 1.371 . S
N249 C252 1.372 . S
N250 C252 1.361 . S
N250 C253 1.377 . S
C251 N248 1.382 . S
C251 N249 1.371 . S
C251 C254 1.480 . S
C252 N249 1.372 . S
C252 N250 1.361 . S
C252 C260 1.457 . S
C253 N248 1.363 . S
C253 N250 1.377 . S
C253 C266 1.479 . S
C254 C251 1.480 . S
C254 C255 1.383 . S
C254 C259 1.385 . S
C255 H236 0.947 . S
C255 C254 1.383 . S
C255 C256 1.388 . S
C256 H237 0.946 . S
C256 C255 1.388 . S
C256 C257 1.384 . S
C257 C256 1.384 . S
C257 C258 1.377 . S
C258 H238 0.953 . S
C258 C257 1.377 . S
C258 C259 1.369 . S
C259 H239 0.945 . S
C259 C254 1.385 . S
C259 C258 1.369 . S
C260 C252 1.457 . S
C260 C261 1.372 . S
C260 C265 1.364 . S
C261 H240 0.952 . S
C261 C260 1.372 . S
C261 C262 1.389 . S
C262 H241 0.949 . S
C262 C261 1.389 . S
C262 C263 1.387 . S
C263 C262 1.387 . S
C263 C264 1.372 . S
C264 H242 0.950 . S
C264 C263 1.372 . S
C264 C265 1.379 . S
C265 H243 0.948 . S
C265 C260 1.364 . S
C265 C264 1.379 . S
C266 C235 1.383 . S
C266 C253 1.479 . S
C266 C267 1.398 . S
C267 C232 1.382 . S
C267 H244 0.951 . S
C267 C266 1.398 . S
C268 C269 1.384 . S
C268 H281 0.947 . S
C268 C303 1.382 . S
C269 C268 1.384 . S
C269 C270 1.378 . S
C270 C269 1.378 . S
C270 C271 1.378 . S
C270 H282 0.952 . S
C271 C270 1.378 . S
C271 H283 0.950 . S
C271 C302 1.383 . S
H272 C291 0.947 . S
H273 C292 0.946 . S
H274 C294 0.953 1_554 S
H275 C295 0.945 . S
H276 C297 0.952 . S
H277 C298 0.949 . S
H278 C300 0.950 . S
H279 C301 0.948 . S
H280 C303 0.951 . S
H281 C268 0.947 . S
H282 C270 0.952 . S
H283 C271 0.950 . S
N284 C287 1.382 . S
N284 C289 1.363 . S
N285 C287 1.371 . S
N285 C288 1.372 . S
N286 C288 1.361 . S
N286 C289 1.377 . S
C287 N284 1.382 . S
C287 N285 1.371 . S
C287 C290 1.480 . S
C288 N285 1.372 . S
C288 N286 1.361 . S
C288 C296 1.457 . S
C289 N284 1.363 . S
C289 N286 1.377 . S
C289 C302 1.479 . S
C290 C287 1.480 . S
C290 C291 1.383 . S
C290 C295 1.385 . S
C291 H272 0.947 . S
C291 C290 1.383 . S
C291 C292 1.388 . S
C292 H273 0.946 . S
C292 C291 1.388 . S
C292 C293 1.384 . S
C293 C292 1.384 . S
C293 C294 1.377 . S
C294 H274 0.953 1_556 S
C294 C293 1.377 . S
C294 C295 1.369 . S
C295 H275 0.945 . S
C295 C290 1.385 . S
C295 C294 1.369 . S
C296 C288 1.457 . S
C296 C297 1.372 . S
C296 C301 1.364 . S
C297 H276 0.952 . S
C297 C296 1.372 . S
C297 C298 1.389 . S
C298 H277 0.949 . S
C298 C297 1.389 . S
C298 C299 1.387 . S
C299 C298 1.387 . S
C299 C300 1.372 . S
C300 H278 0.950 . S
C300 C299 1.372 . S
C300 C301 1.379 . S
C301 H279 0.948 . S
C301 C296 1.364 . S
C301 C300 1.379 . S
C302 C271 1.383 . S
C302 C289 1.479 . S
C302 C303 1.398 . S
C303 C268 1.382 . S
C303 H280 0.951 . S
C303 C302 1.398 . S
C304 C305 1.384 . S
C304 H317 0.947 . S
C304 C339 1.382 . S
C305 C304 1.384 . S
C305 C306 1.378 . S
C306 C305 1.378 . S
C306 C307 1.378 . S
C306 H318 0.952 . S
C307 C306 1.378 . S
C307 H319 0.950 . S
C307 C338 1.383 . S
H308 C327 0.947 . S
H309 C328 0.946 . S
H310 C330 0.953 . S
H311 C331 0.945 . S
H312 C333 0.952 . S
H313 C334 0.949 . S
H314 C336 0.950 . S
H315 C337 0.948 . S
H316 C339 0.951 . S
H317 C304 0.947 . S
H318 C306 0.952 . S
H319 C307 0.950 . S
N320 C323 1.382 . S
N320 C325 1.363 . S
N321 C323 1.371 . S
N321 C324 1.372 . S
N322 C324 1.361 . S
N322 C325 1.377 . S
C323 N320 1.382 . S
C323 N321 1.371 . S
C323 C326 1.480 . S
C324 N321 1.372 . S
C324 N322 1.361 . S
C324 C332 1.457 . S
C325 N320 1.363 . S
C325 N322 1.377 . S
C325 C338 1.479 . S
C326 C323 1.480 . S
C326 C327 1.383 . S
C326 C331 1.385 . S
C327 H308 0.947 . S
C327 C326 1.383 . S
C327 C328 1.388 . S
C328 H309 0.946 . S
C328 C327 1.388 . S
C328 C329 1.384 . S
C329 C328 1.384 . S
C329 C330 1.377 . S
C330 H310 0.953 . S
C330 C329 1.377 . S
C330 C331 1.369 . S
C331 H311 0.945 . S
C331 C326 1.385 . S
C331 C330 1.369 . S
C332 C324 1.457 . S
C332 C333 1.372 . S
C332 C337 1.364 . S
C333 H312 0.952 . S
C333 C332 1.372 . S
C333 C334 1.389 . S
C334 H313 0.949 . S
C334 C333 1.389 . S
C334 C335 1.387 . S
C335 C334 1.387 . S
C335 C336 1.372 . S
C336 H314 0.950 . S
C336 C335 1.372 . S
C336 C337 1.379 . S
C337 H315 0.948 . S
C337 C332 1.364 . S
C337 C336 1.379 . S
C338 C307 1.383 . S
C338 C325 1.479 . S
C338 C339 1.398 . S
C339 C304 1.382 . S
C339 H316 0.951 . S
C339 C338 1.398 . S
C340 C341 1.384 . S
C340 H353 0.947 . S
C340 C375 1.382 . S
C341 C340 1.384 . S
C341 C342 1.378 . S
C342 C341 1.378 . S
C342 C343 1.378 . S
C342 H354 0.952 . S
C343 C342 1.378 . S
C343 H355 0.950 1_545 S
C343 C374 1.384 . S
H344 C363 0.947 . S
H345 C364 0.946 . S
H346 C366 0.953 . S
H347 C367 0.945 . S
H348 C369 0.952 . S
H349 C370 0.949 . S
H350 C372 0.944 1_455 S
H351 C373 0.948 . S
H352 C375 0.951 . S
H353 C340 0.947 . S
H354 C342 0.952 . S
H355 C343 0.950 1_565 S
N356 C359 1.382 . S
N356 C361 1.363 . S
N357 C359 1.371 . S
N357 C360 1.372 . S
N358 C360 1.361 . S
N358 C361 1.377 . S
C359 N356 1.382 . S
C359 N357 1.371 . S
C359 C362 1.480 . S
C360 N357 1.372 . S
C360 N358 1.361 . S
C360 C368 1.457 . S
C361 N356 1.363 . S
C361 N358 1.377 . S
C361 C374 1.475 1_565 S
C362 C359 1.480 . S
C362 C363 1.383 . S
C362 C367 1.385 . S
C363 H344 0.947 . S
C363 C362 1.383 . S
C363 C364 1.388 . S
C364 H345 0.946 . S
C364 C363 1.388 . S
C364 C365 1.384 . S
C365 C364 1.384 . S
C365 C366 1.377 . S
C366 H346 0.953 . S
C366 C365 1.377 . S
C366 C367 1.369 . S
C367 H347 0.945 . S
C367 C362 1.385 . S
C367 C366 1.369 . S
C368 C360 1.457 . S
C368 C369 1.372 . S
C368 C373 1.364 . S
C369 H348 0.952 . S
C369 C368 1.372 . S
C369 C370 1.389 1_655 S
C370 H349 0.949 . S
C370 C369 1.389 1_455 S
C370 C371 1.387 . S
C371 C370 1.387 . S
C371 C372 1.363 1_455 S
C372 H350 0.944 1_655 S
C372 C371 1.363 1_655 S
C372 C373 1.394 . S
C373 H351 0.948 . S
C373 C368 1.364 . S
C373 C372 1.394 . S
C374 C343 1.384 . S
C374 C361 1.475 1_545 S
C374 C375 1.401 . S
C375 C340 1.382 . S
C375 H352 0.951 . S
C375 C374 1.401 . S
C376 C377 1.369 . S
C376 C378 1.419 . S
C376 H380 0.930 . S
C377 C376 1.369 . S
C377 C386 1.429 . S
C378 C376 1.419 . S
C378 C379 1.363 . S
C378 H381 0.929 . S
C379 C378 1.363 . S
C379 C385 1.428 . S
H380 C376 0.930 . S
H381 C378 0.929 . S
S382 N383 1.613 1_545 S
S382 N384 1.610 1_545 S
N383 S382 1.613 1_565 S
N383 C386 1.350 . S
N384 S382 1.610 1_565 S
N384 C385 1.351 . S
C385 C379 1.428 . S
C385 N384 1.351 . S
C385 C386 1.434 . S
C386 C377 1.429 . S
C386 N383 1.350 . S
C386 C385 1.434 . S
C387 C388 1.369 . S
C387 C389 1.419 . S
C387 H391 0.930 . S
C388 C387 1.369 . S
C388 C397 1.429 . S
C389 C387 1.419 . S
C389 C390 1.363 . S
C389 H392 0.929 . S
C390 C389 1.363 . S
C390 C396 1.428 . S
H391 C387 0.930 . S
H392 C389 0.929 . S
S393 N394 1.613 . S
S393 N395 1.610 . S
N394 S393 1.613 . S
N394 C397 1.350 . S
N395 S393 1.610 . S
N395 C396 1.351 . S
C396 C390 1.428 . S
C396 N395 1.351 . S
C396 C397 1.434 . S
C397 C388 1.429 . S
C397 N394 1.350 . S
C397 C396 1.434 . S
C398 C399 1.369 1_565 S
C398 C400 1.419 . S
C398 H402 0.930 1_565 S
C399 C398 1.369 1_545 S
C399 C408 1.429 . S
C400 C398 1.419 . S
C400 C401 1.363 . S
C400 H403 0.929 . S
C401 C400 1.363 . S
C401 C407 1.428 . S
H402 C398 0.930 1_545 S
H403 C400 0.929 . S
S404 N405 1.628 . S
S404 N406 1.590 1_545 S
N405 S404 1.628 . S
N405 C408 1.350 . S
N406 S404 1.590 1_565 S
N406 C407 1.351 . S
C407 C401 1.428 . S
C407 N406 1.351 . S
C407 C408 1.434 1_565 S
C408 C399 1.429 . S
C408 N405 1.350 . S
C408 C407 1.434 1_545 S
C409 C410 1.369 . S
C409 C411 1.419 . S
C409 H413 0.930 . S
C410 C409 1.369 . S
C410 C419 1.429 . S
C411 C409 1.419 . S
C411 C412 1.363 . S
C411 H414 0.929 . S
C412 C411 1.363 . S
C412 C418 1.428 . S
H413 C409 0.930 . S
H414 C411 0.929 . S
S415 N416 1.613 . S
S415 N417 1.610 . S
N416 S415 1.613 . S
N416 C419 1.350 . S
N417 S415 1.610 . S
N417 C418 1.351 . S
C418 C412 1.428 . S
C418 N417 1.351 . S
C418 C419 1.434 . S
C419 C410 1.429 . S
C419 N416 1.350 . S
C419 C418 1.434 . S
C420 C421 1.369 . S
C420 C422 1.419 . S
C420 H424 0.930 . S
C421 C420 1.369 . S
C421 C430 1.429 . S
C422 C420 1.419 . S
C422 C423 1.363 . S
C422 H425 0.929 . S
C423 C422 1.363 . S
C423 C429 1.428 . S
H424 C420 0.930 . S
H425 C422 0.929 . S
S426 N427 1.613 . S
S426 N428 1.610 . S
N427 S426 1.613 . S
N427 C430 1.350 . S
N428 S426 1.610 . S
N428 C429 1.351 . S
C429 C423 1.428 . S
C429 N428 1.351 . S
C429 C430 1.434 . S
C430 C421 1.429 . S
C430 N427 1.350 . S
C430 C429 1.434 . S
C431 C432 1.369 1_556 S
C431 C433 1.419 . S
C431 H435 0.930 . S
C432 C431 1.369 1_554 S
C432 C441 1.429 . S
C433 C431 1.419 . S
C433 C434 1.363 . S
C433 H436 0.929 . S
C434 C433 1.363 . S
C434 C440 1.428 1_556 S
H435 C431 0.930 . S
H436 C433 0.929 . S
S437 N438 1.613 . S
S437 N439 1.610 . S
N438 S437 1.613 . S
N438 C441 1.350 . S
N439 S437 1.610 . S
N439 C440 1.351 . S
C440 C434 1.428 1_554 S
C440 N439 1.351 . S
C440 C441 1.434 . S
C441 C432 1.429 . S
C441 N438 1.350 . S
C441 C440 1.434 . S
C442 C443 1.369 . S
C442 C444 1.419 . S
C442 H446 0.930 . S
C443 C442 1.369 . S
C443 C452 1.429 . S
C444 C442 1.419 . S
C444 C445 1.363 . S
C444 H447 0.929 . S
C445 C444 1.363 . S
C445 C451 1.428 . S
H446 C442 0.930 . S
H447 C444 0.929 . S
S448 N449 1.613 . S
S448 N450 1.610 . S
N449 S448 1.613 . S
N449 C452 1.350 . S
N450 S448 1.610 . S
N450 C451 1.351 . S
C451 C445 1.428 . S
C451 N450 1.351 . S
C451 C452 1.434 . S
C452 C443 1.429 . S
C452 N449 1.350 . S
C452 C451 1.434 . S
C453 C454 1.369 . S
C453 C455 1.419 . S
C453 H457 0.930 . S
C454 C453 1.369 . S
C454 C463 1.429 . S
C455 C453 1.419 . S
C455 C456 1.363 . S
C455 H458 0.929 . S
C456 C455 1.363 . S
C456 C462 1.428 . S
H457 C453 0.930 . S
H458 C455 0.929 . S
S459 N460 1.613 . S
S459 N461 1.610 . S
N460 S459 1.613 . S
N460 C463 1.350 . S
N461 S459 1.610 . S
N461 C462 1.351 . S
C462 C456 1.428 . S
C462 N461 1.351 . S
C462 C463 1.434 . S
C463 C454 1.429 . S
C463 N460 1.350 . S
C463 C462 1.434 . S
C464 C465 1.369 . S
C464 C466 1.419 . S
C464 H468 0.930 . S
C465 C464 1.369 . S
C465 C474 1.429 . S
C466 C464 1.419 . S
C466 C467 1.363 . S
C466 H469 0.929 . S
C467 C466 1.363 . S
C467 C473 1.428 . S
H468 C464 0.930 . S
H469 C466 0.929 . S
S470 N471 1.613 . S
S470 N472 1.610 . S
N471 S470 1.613 . S
N471 C474 1.350 . S
N472 S470 1.610 . S
N472 C473 1.351 . S
C473 C467 1.428 . S
C473 N472 1.351 . S
C473 C474 1.434 . S
C474 C465 1.429 . S
C474 N471 1.350 . S
C474 C473 1.434 . S
C475 C476 1.369 . S
C475 C477 1.419 . S
C475 H479 0.930 . S
C476 C475 1.369 . S
C476 C485 1.429 . S
C477 C475 1.419 . S
C477 C478 1.363 . S
C477 H480 0.929 . S
C478 C477 1.363 . S
C478 C484 1.428 . S
H479 C475 0.930 . S
H480 C477 0.929 . S
S481 N482 1.613 . S
S481 N483 1.610 . S
N482 S481 1.613 . S
N482 C485 1.350 . S
N483 S481 1.610 . S
N483 C484 1.351 . S
C484 C478 1.428 . S
C484 N483 1.351 . S
C484 C485 1.434 . S
C485 C476 1.429 . S
C485 N482 1.350 . S
C485 C484 1.434 . S
C486 C487 1.369 1_544 S
C486 C488 1.423 . S
C486 H490 0.930 1_545 S
C487 C486 1.369 1_566 S
C487 C496 1.429 . S
C488 C486 1.423 . S
C488 C489 1.336 1_554 S
C488 H491 0.954 . S
C489 C488 1.336 1_556 S
C489 C495 1.428 . S
H490 C486 0.930 1_565 S
H491 C488 0.954 . S
S492 N493 1.613 1_545 S
S492 N494 1.610 . S
N493 S492 1.613 1_565 S
N493 C496 1.350 . S
N494 S492 1.610 . S
N494 C495 1.351 . S
C495 C489 1.428 . S
C495 N494 1.351 . S
C495 C496 1.434 1_545 S
C496 C487 1.429 . S
C496 N493 1.350 . S
C496 C495 1.434 1_565 S
C497 C498 1.369 . S
C497 C499 1.419 . S
C497 H501 0.930 . S
C498 C497 1.369 . S
C498 C507 1.429 . S
C499 C497 1.419 . S
C499 C500 1.363 . S
C499 H502 0.929 . S
C500 C499 1.363 . S
C500 C506 1.428 . S
H501 C497 0.930 . S
H502 C499 0.929 . S
S503 N504 1.613 . S
S503 N505 1.610 . S
N504 S503 1.613 . S
N504 C507 1.350 . S
N505 S503 1.610 . S
N505 C506 1.351 . S
C506 C500 1.428 . S
C506 N505 1.351 . S
C506 C507 1.434 . S
C507 C498 1.429 . S
C507 N504 1.350 . S
C507 C506 1.434 . S
C508 C509 1.369 . S
C508 C510 1.419 . S
C508 H512 0.930 . S
C509 C508 1.369 . S
C509 C518 1.429 . S
C510 C508 1.419 . S
C510 C511 1.363 . S
C510 H513 0.929 . S
C511 C510 1.363 . S
C511 C517 1.428 . S
H512 C508 0.930 . S
H513 C510 0.929 . S
S514 N515 1.613 . S
S514 N516 1.610 . S
N515 S514 1.613 . S
N515 C518 1.350 . S
N516 S514 1.610 . S
N516 C517 1.351 . S
C517 C511 1.428 . S
C517 N516 1.351 . S
C517 C518 1.434 . S
C518 C509 1.429 . S
C518 N515 1.350 . S
C518 C517 1.434 . S
C519 C520 1.369 . S
C519 C521 1.419 . S
C519 H523 0.930 . S
C520 C519 1.369 . S
C520 C529 1.429 . S
C521 C519 1.419 . S
C521 C522 1.363 . S
C521 H524 0.929 . S
C522 C521 1.363 . S
C522 C528 1.428 . S
H523 C519 0.930 . S
H524 C521 0.929 . S
S525 N526 1.613 . S
S525 N527 1.610 . S
N526 S525 1.613 . S
N526 C529 1.350 . S
N527 S525 1.610 . S
N527 C528 1.351 . S
C528 C522 1.428 . S
C528 N527 1.351 . S
C528 C529 1.434 . S
C529 C520 1.429 . S
C529 N526 1.350 . S
C529 C528 1.434 . S
C530 C531 1.369 . S
C530 C532 1.419 . S
C530 H534 0.930 . S
C531 C530 1.369 . S
C531 C540 1.429 . S
C532 C530 1.419 . S
C532 C533 1.363 . S
C532 H535 0.929 . S
C533 C532 1.363 . S
C533 C539 1.428 . S
H534 C530 0.930 . S
H535 C532 0.929 . S
S536 N537 1.613 . S
S536 N538 1.610 . S
N537 S536 1.613 . S
N537 C540 1.350 . S
N538 S536 1.610 . S
N538 C539 1.351 . S
C539 C533 1.428 . S
C539 N538 1.351 . S
C539 C540 1.434 . S
C540 C531 1.429 . S
C540 N537 1.350 . S
C540 C539 1.434 . S
C541 C542 1.369 . S
C541 C543 1.419 . S
C541 H545 0.930 . S
C542 C541 1.369 . S
C542 C551 1.429 . S
C543 C541 1.419 . S
C543 C544 1.363 . S
C543 H546 0.929 . S
C544 C543 1.363 . S
C544 C550 1.428 . S
H545 C541 0.930 . S
H546 C543 0.929 . S
S547 N548 1.613 1_455 S
S547 N549 1.610 . S
N548 S547 1.613 1_655 S
N548 C551 1.350 . S
N549 S547 1.610 . S
N549 C550 1.351 1_455 S
C550 C544 1.428 . S
C550 N549 1.351 1_655 S
C550 C551 1.434 . S
C551 C542 1.429 . S
C551 N548 1.350 . S
C551 C550 1.434 . S
C552 C553 1.369 . S
C552 C554 1.419 . S
C552 H556 0.930 . S
C553 C552 1.369 . S
C553 C562 1.429 . S
C554 C552 1.419 . S
C554 C555 1.363 . S
C554 H557 0.929 . S
C555 C554 1.363 . S
C555 C561 1.428 . S
H556 C552 0.930 . S
H557 C554 0.929 . S
S558 N559 1.613 1_556 S
S558 N560 1.610 1_556 S
N559 S558 1.613 1_554 S
N559 C562 1.350 . S
N560 S558 1.610 1_554 S
N560 C561 1.351 . S
C561 C555 1.428 . S
C561 N560 1.351 . S
C561 C562 1.434 . S
C562 C553 1.429 . S
C562 N559 1.350 . S
C562 C561 1.434 . S
C563 C564 1.369 . S
C563 C565 1.419 . S
C563 H567 0.930 . S
C564 C563 1.369 . S
C564 C573 1.429 . S
C565 C563 1.419 . S
C565 C566 1.363 . S
C565 H568 0.929 . S
C566 C565 1.363 . S
C566 C572 1.428 . S
H567 C563 0.930 . S
H568 C565 0.929 . S
S569 N570 1.613 . S
S569 N571 1.610 . S
N570 S569 1.613 . S
N570 C573 1.350 . S
N571 S569 1.610 . S
N571 C572 1.351 . S
C572 C566 1.428 . S
C572 N571 1.351 . S
C572 C573 1.434 . S
C573 C564 1.429 . S
C573 N570 1.350 . S
C573 C572 1.434 . S
C574 C575 1.369 . S
C574 C576 1.419 . S
C574 H578 0.930 . S
C575 C574 1.369 . S
C575 C584 1.429 . S
C576 C574 1.419 . S
C576 C577 1.363 . S
C576 H579 0.929 . S
C577 C576 1.363 . S
C577 C583 1.428 . S
H578 C574 0.930 . S
H579 C576 0.929 . S
S580 N581 1.613 . S
S580 N582 1.610 . S
N581 S580 1.613 . S
N581 C584 1.350 . S
N582 S580 1.610 . S
N582 C583 1.351 . S
C583 C577 1.428 . S
C583 N582 1.351 . S
C583 C584 1.434 . S
C584 C575 1.429 . S
C584 N581 1.350 . S
C584 C583 1.434 . S
C585 C586 1.369 . S
C585 C587 1.419 . S
C585 H589 0.930 . S
C586 C585 1.369 . S
C586 C595 1.429 . S
C587 C585 1.419 . S
C587 C588 1.363 . S
C587 H590 0.929 . S
C588 C587 1.363 . S
C588 C594 1.428 . S
H589 C585 0.930 . S
H590 C587 0.929 . S
S591 N592 1.613 . S
S591 N593 1.610 . S
N592 S591 1.613 . S
N592 C595 1.350 . S
N593 S591 1.610 . S
N593 C594 1.351 . S
C594 C588 1.428 . S
C594 N593 1.351 . S
C594 C595 1.434 . S
C595 C586 1.429 . S
C595 N592 1.350 . S
C595 C594 1.434 . S
C596 C597 1.369 . S
C596 C598 1.419 . S
C596 H600 0.930 . S
C597 C596 1.369 . S
C597 C606 1.429 . S
C598 C596 1.419 . S
C598 C599 1.363 . S
C598 H601 0.929 . S
C599 C598 1.363 . S
C599 C605 1.428 . S
H600 C596 0.930 . S
H601 C598 0.929 . S
S602 N603 1.613 . S
S602 N604 1.610 . S
N603 S602 1.613 . S
N603 C606 1.350 . S
N604 S602 1.610 . S
N604 C605 1.351 . S
C605 C599 1.428 . S
C605 N604 1.351 . S
C605 C606 1.434 . S
C606 C597 1.429 . S
C606 N603 1.350 . S
C606 C605 1.434 . S
C607 C608 1.369 1_556 S
C607 C609 1.419 . S
C607 H611 0.930 . S
C608 C607 1.369 1_554 S
C608 C617 1.429 . S
C609 C607 1.419 . S
C609 C610 1.363 . S
C609 H612 0.929 . S
C610 C609 1.363 . S
C610 C616 1.428 1_556 S
H611 C607 0.930 . S
H612 C609 0.929 . S
S613 N614 1.613 . S
S613 N615 1.610 . S
N614 S613 1.613 . S
N614 C617 1.350 . S
N615 S613 1.610 . S
N615 C616 1.351 . S
C616 C610 1.428 1_554 S
C616 N615 1.351 . S
C616 C617 1.434 . S
C617 C608 1.429 . S
C617 N614 1.350 . S
C617 C616 1.434 . S
C618 C619 1.369 . S
C618 C620 1.419 . S
C618 H622 0.930 . S
C619 C618 1.369 . S
C619 C628 1.429 . S
C620 C618 1.419 . S
C620 C621 1.363 . S
C620 H623 0.929 . S
C621 C620 1.363 . S
C621 C627 1.428 . S
H622 C618 0.930 . S
H623 C620 0.929 . S
S624 N625 1.613 . S
S624 N626 1.610 . S
N625 S624 1.613 . S
N625 C628 1.350 . S
N626 S624 1.610 . S
N626 C627 1.351 . S
C627 C621 1.428 . S
C627 N626 1.351 . S
C627 C628 1.434 . S
C628 C619 1.429 . S
C628 N625 1.350 . S
C628 C627 1.434 . S
C629 C630 1.369 . S
C629 C631 1.419 . S
C629 H633 0.930 . S
C630 C629 1.369 . S
C630 C639 1.429 . S
C631 C629 1.419 . S
C631 C632 1.363 . S
C631 H634 0.929 . S
C632 C631 1.363 . S
C632 C638 1.428 . S
H633 C629 0.930 . S
H634 C631 0.929 . S
S635 N636 1.613 . S
S635 N637 1.610 . S
N636 S635 1.613 . S
N636 C639 1.350 . S
N637 S635 1.610 . S
N637 C638 1.351 . S
C638 C632 1.428 . S
C638 N637 1.351 . S
C638 C639 1.434 . S
C639 C630 1.429 . S
C639 N636 1.350 . S
C639 C638 1.434 . S
C377 C8 1.779 . S
C379 C119 1.526 . S
C388 C31 1.987 . S
C390 C155 1.822 . S
C399 C53 1.551 . S
C401 C191 1.503 . S
C412 C221 1.561 . S
C410 C74 1.752 . S
C423 C263 1.557 . S
C421 C26 1.565 . S
C432 C48 1.979 . S
C434 C293 1.801 1_655 S
C443 C71 1.770 . S
C445 C329 1.513 . S
C454 C5 1.767 . S
C456 C371 1.583 . S
C465 C50 1.766 . S
C467 C341 1.565 . S
C478 C233 1.836 . S
C476 C70 1.973 . S
C489 C299 1.552 . S
C487 C4 1.551 . S
C498 C28 1.778 . S
C500 C335 1.605 . S
C511 C125 1.560 . S
C509 C73 1.551 . S
C520 C7 1.988 . S
C522 C185 1.728 1_455 S
C533 C227 1.559 . S
C531 C30 1.790 . S
C544 C89 1.592 . S
C542 C52 1.745 . S
C555 C305 1.449 . S
C553 C9 1.486 . S
C566 C365 1.414 . S
C564 C29 1.490 . S
C575 C51 1.743 . S
C577 C257 1.652 . S
C588 C269 1.649 . S
C586 C75 1.732 . S
C599 C161 1.588 . S
C597 C27 1.734 . S
C608 C49 1.491 . S
C610 C197 1.432 . S
C621 C113 1.431 . S
C619 C72 1.480 . S
C632 C149 1.677 . S
C630 C6 1.752 . S
