# Generated by pormake.
# Topology pyr, (3,6)-cn, num edge types: 1
# Building blocks:
#     Node 0, Type 0, BuildingBlock: BETDIP_clean_linker_0, # of connection points: 3
#     Node 1, Type 0, BuildingBlock: BETDIP_clean_linker_0, # of connection points: 3
#     Node 2, Type 0, BuildingBlock: BETDIP_clean_linker_0, # of connection points: 3
#     Node 3, Type 0, BuildingBlock: BETDIP_clean_linker_0, # of connection points: 3
#     Node 4, Type 0, BuildingBlock: BETDIP_clean_linker_0, # of connection points: 3
#     Node 5, Type 0, BuildingBlock: BETDIP_clean_linker_0, # of connection points: 3
#     Node 6, Type 0, BuildingBlock: BETDIP_clean_linker_0, # of connection points: 3
#     Node 7, Type 0, BuildingBlock: BETDIP_clean_linker_0, # of connection points: 3
#     Node 8, Type 1, BuildingBlock: GEDQOX_clean_sbu_0, # of connection points: 6
#     Node 9, Type 1, BuildingBlock: GEDQOX_clean_sbu_0, # of connection points: 6
#     Node 10, Type 1, BuildingBlock: GEDQOX_clean_sbu_0, # of connection points: 6
#     Node 11, Type 1, BuildingBlock: GEDQOX_clean_sbu_0, # of connection points: 6
#     Edge 12, Type (0, 1), BuildingBlock: EZIPEK_clean_linker_0, # of connection points: 2
#     Edge 13, Type (0, 1), BuildingBlock: EZIPEK_clean_linker_0, # of connection points: 2
#     Edge 14, Type (0, 1), BuildingBlock: EZIPEK_clean_linker_0, # of connection points: 2
#     Edge 15, Type (0, 1), BuildingBlock: EZIPEK_clean_linker_0, # of connection points: 2
#     Edge 16, Type (0, 1), BuildingBlock: EZIPEK_clean_linker_0, # of connection points: 2
#     Edge 17, Type (0, 1), BuildingBlock: EZIPEK_clean_linker_0, # of connection points: 2
#     Edge 18, Type (0, 1), BuildingBlock: EZIPEK_clean_linker_0, # of connection points: 2
#     Edge 19, Type (0, 1), BuildingBlock: EZIPEK_clean_linker_0, # of connection points: 2
#     Edge 20, Type (0, 1), BuildingBlock: EZIPEK_clean_linker_0, # of connection points: 2
#     Edge 21, Type (0, 1), BuildingBlock: EZIPEK_clean_linker_0, # of connection points: 2
#     Edge 22, Type (0, 1), BuildingBlock: EZIPEK_clean_linker_0, # of connection points: 2
#     Edge 23, Type (0, 1), BuildingBlock: EZIPEK_clean_linker_0, # of connection points: 2
#     Edge 24, Type (0, 1), BuildingBlock: EZIPEK_clean_linker_0, # of connection points: 2
#     Edge 25, Type (0, 1), BuildingBlock: EZIPEK_clean_linker_0, # of connection points: 2
#     Edge 26, Type (0, 1), BuildingBlock: EZIPEK_clean_linker_0, # of connection points: 2
#     Edge 27, Type (0, 1), BuildingBlock: EZIPEK_clean_linker_0, # of connection points: 2
#     Edge 28, Type (0, 1), BuildingBlock: EZIPEK_clean_linker_0, # of connection points: 2
#     Edge 29, Type (0, 1), BuildingBlock: EZIPEK_clean_linker_0, # of connection points: 2
#     Edge 30, Type (0, 1), BuildingBlock: EZIPEK_clean_linker_0, # of connection points: 2
#     Edge 31, Type (0, 1), BuildingBlock: EZIPEK_clean_linker_0, # of connection points: 2
#     Edge 32, Type (0, 1), BuildingBlock: EZIPEK_clean_linker_0, # of connection points: 2
#     Edge 33, Type (0, 1), BuildingBlock: EZIPEK_clean_linker_0, # of connection points: 2
#     Edge 34, Type (0, 1), BuildingBlock: EZIPEK_clean_linker_0, # of connection points: 2
#     Edge 35, Type (0, 1), BuildingBlock: EZIPEK_clean_linker_0, # of connection points: 2
# Relax obj value: 0.305
# Max RMSD: 0.195
# Mean RMSD: 0.168
data_MOF--net-pyr--node1-GEDQOX_clean_sbu_0--node2-BETDIP_clean_linker_0--edge1-EZIPEK_clean_linker_0
_symmetry_space_group_name_H-M    P1
_symmetry_Int_Tables_number       1
_symmetry_cell_setting            triclinic
loop_
_symmetry_equiv_pos_as_xyz
'x, y, z'
_cell_length_a     29.047331
_cell_length_b     28.432189
_cell_length_c     26.844307
_cell_angle_alpha  92.731767
_cell_angle_beta   87.71123
_cell_angle_gamma 92.183122
loop_
_atom_site_label
_atom_site_type_symbol
_atom_site_fract_x
_atom_site_fract_y
_atom_site_fract_z
_atom_type_partial_charge
H0 H 0.15829 0.21775 0.24074 0.0
H1 H 0.26913 0.21203 0.12853 0.0
H2 H 0.25791 0.10774 0.24129 0.0
H3 H 0.13568 0.28565 0.20057 0.0
C4 C 0.15543 0.29202 0.16627 0.0
C5 C 0.18858 0.20094 0.22471 0.0
C6 C 0.2046 0.16027 0.24858 0.0
C7 C 0.21073 0.21983 0.1806 0.0
C8 C 0.25165 0.1972 0.16087 0.0
C9 C 0.27075 0.15639 0.18105 0.0
C10 C 0.2455 0.13873 0.225 0.0
N11 N 0.19381 0.2604 0.15426 0.0
H12 H 0.36806 0.85399 0.85153 0.0
H13 H 0.36755 0.74485 0.73565 0.0
H14 H 0.4957 0.79164 0.80043 0.0
H15 H 0.29163 0.73147 0.77534 0.0
C16 C 0.28347 0.76808 0.7721 0.0
C17 C 0.38666 0.82844 0.82804 0.0
C18 C 0.43466 0.82647 0.83071 0.0
C19 C 0.36227 0.79857 0.79486 0.0
C20 C 0.38616 0.7668 0.76276 0.0
C21 C 0.43418 0.76359 0.76423 0.0
C22 C 0.4586 0.7934 0.79895 0.0
N23 N 0.31414 0.80388 0.7915 0.0
H24 H 0.82033 0.51168 0.81217 0.0
H25 H 0.71647 0.40185 0.78679 0.0
H26 H 0.81865 0.38507 0.89473 0.0
H27 H 0.67494 0.47856 0.79025 0.0
C28 C 0.69599 0.4867 0.75714 0.0
C29 C 0.8053 0.47723 0.81997 0.0
C30 C 0.82417 0.45019 0.85638 0.0
C31 C 0.76596 0.46012 0.79498 0.0
C32 C 0.74668 0.41562 0.80584 0.0
C33 C 0.76548 0.38882 0.84167 0.0
C34 C 0.80448 0.40579 0.86651 0.0
N35 N 0.74487 0.48771 0.75996 0.0
H36 H 1.00234 0.68524 0.46731 0.0
H37 H 0.0618 0.82628 0.47579 0.0
H38 H 0.91976 0.80178 0.4388 0.0
H39 H 0.12827 0.67778 0.47725 0.0
C40 C 0.09891 0.69203 0.46016 0.0
C41 C 0.99998 0.72256 0.46238 0.0
C42 C 0.95741 0.73994 0.45116 0.0
C43 C 1.03839 0.75343 0.46939 0.0
C44 C 1.03278 0.80216 0.46854 0.0
C45 C 0.98991 0.81975 0.45753 0.0
C46 C 0.95284 0.78834 0.44742 0.0
N47 N 0.08242 0.7363 0.479 0.0
H48 H 0.81285 0.89642 0.9342 0.0
H49 H 0.92597 0.89293 0.82428 0.0
H50 H 0.82427 1.00079 0.82157 0.0
H51 H 0.94873 0.8254 0.86288 0.0
C52 C 0.92794 0.81726 0.89603 0.0
C53 C 0.83074 0.91136 0.90216 0.0
C54 C 0.81166 0.95209 0.8818 0.0
C55 C 0.87205 0.88903 0.88278 0.0
C56 C 0.8951 0.90901 0.83978 0.0
C57 C 0.87916 0.94967 0.81609 0.0
C58 C 0.83732 0.97044 0.8385 0.0
N59 N 0.8882 0.84724 0.90772 0.0
H60 H 0.6927 0.25097 0.23622 0.0
H61 H 0.68072 0.36395 0.34699 0.0
H62 H 0.56553 0.32419 0.25569 0.0
H63 H 0.76815 0.26319 0.24297 0.0
C64 C 0.77304 0.27802 0.28044 0.0
C65 C 0.67294 0.27889 0.25424 0.0
C66 C 0.62742 0.28421 0.23995 0.0
C67 C 0.69256 0.3087 0.2915 0.0
C68 C 0.6657 0.34229 0.31701 0.0
C69 C 0.61981 0.34803 0.30529 0.0
C70 C 0.60082 0.31966 0.26556 0.0
N71 N 0.73848 0.3045 0.30646 0.0
H72 H 0.24231 0.60656 0.25423 0.0
H73 H 0.35805 0.70078 0.28466 0.0
H74 H 0.26879 0.72852 0.16653 0.0
H75 H 0.3767 0.59697 0.27025 0.0
C76 C 0.36095 0.60305 0.30729 0.0
C77 C 0.2622 0.63865 0.24677 0.0
C78 C 0.25047 0.66665 0.20763 0.0
C79 C 0.30133 0.65075 0.27427 0.0
C80 C 0.32774 0.69144 0.26355 0.0
C81 C 0.31596 0.71958 0.22507 0.0
C82 C 0.27711 0.70744 0.19734 0.0
N83 N 0.31587 0.62096 0.31097 0.0
H84 H 0.19123 0.12108 0.81785 0.0
H85 H 0.29162 0.23076 0.85678 0.0
H86 H 0.24506 0.21508 0.70691 0.0
H87 H 0.24492 0.17884 0.97158 0.0
C88 C 0.23694 0.19163 0.93557 0.0
C89 C 0.21408 0.15023 0.80719 0.0
C90 C 0.21525 0.16505 0.75796 0.0
C91 C 0.24115 0.17405 0.84314 0.0
C92 C 0.27026 0.21231 0.82945 0.0
C93 C 0.2716 0.227 0.78038 0.0
C94 C 0.24439 0.20319 0.74475 0.0
N95 N 0.23815 0.15961 0.89312 0.0
Nd96 Nd 0.07448 1.01521 0.53184 0.0
Nd97 Nd 1.01774 0.09416 0.53691 0.0
C98 C 0.10724 0.92956 0.52709 0.0
C99 C 0.12445 0.89656 0.56205 0.0
C100 C 0.09704 0.88032 0.60256 0.0
C101 C 0.11633 0.85338 0.63817 0.0
C102 C 0.16328 0.84313 0.634 0.0
C103 C 0.18995 0.85758 0.59244 0.0
C104 C 0.17062 0.88382 0.55663 0.0
C105 C 0.11207 0.0857 0.59285 0.0
C106 C 0.99185 1.02115 0.62889 0.0
C107 C 0.97854 0.17643 0.53578 0.0
C108 C 0.95816 0.20211 0.49636 0.0
C109 C 0.97935 0.2039 0.44839 0.0
C110 C 0.95539 0.22046 0.40901 0.0
C111 C 0.90979 0.2344 0.41708 0.0
C112 C 0.88954 0.23483 0.46536 0.0
C113 C 0.91366 0.21898 0.5048 0.0
C114 C 0.98372 1.01894 0.47811 0.0
C115 C 0.09991 0.08941 0.44041 0.0
O116 O 0.06307 0.93742 0.52902 0.0
O117 O 0.13286 0.96783 0.52143 0.0
O118 O 0.13533 0.06063 0.55989 0.0
O119 O 0.06969 0.07413 0.59227 0.0
O120 O 1.02199 0.99473 0.60152 0.0
O121 O 0.98698 0.06463 0.61359 0.0
O122 O 1.02328 0.17215 0.53351 0.0
O123 O 0.95617 0.13739 0.54671 0.0
O124 O 0.95897 0.04267 0.51077 0.0
O125 O 1.02404 0.03602 0.47809 0.0
O126 O 0.07034 0.11597 0.46815 0.0
O127 O 0.10505 0.04586 0.45533 0.0
H128 H 0.06125 0.88951 0.60756 0.0
H129 H 0.09523 0.84207 0.66989 0.0
H130 H 0.22614 0.84964 0.58848 0.0
H131 H 0.19227 0.89568 0.52554 0.0
H132 H 1.01348 0.19058 0.44079 0.0
H133 H 0.97141 0.22006 0.37185 0.0
H134 H 0.85441 0.24574 0.47209 0.0
H135 H 0.89666 0.21754 0.5414 0.0
Nd136 Nd 0.54413 0.03395 0.06347 0.0
Nd137 Nd 0.53823 0.07517 0.99642 0.0
C138 C 0.55127 0.96621 0.12706 0.0
C139 C 0.51557 0.93532 0.1492 0.0
C140 C 0.52759 0.89579 0.17428 0.0
C141 C 0.49337 0.86316 0.18958 0.0
C142 C 0.44705 0.86997 0.17975 0.0
C143 C 0.43493 0.91029 0.15608 0.0
C144 C 0.46907 0.94279 0.14076 0.0
C145 C 0.45597 0.07736 0.08726 0.0
C146 C 0.4976 0.97851 0.9691 0.0
C147 C 0.53611 0.14061 0.92948 0.0
C148 C 0.57335 0.16729 0.90446 0.0
C149 C 0.56403 0.20966 0.88312 0.0
C150 C 0.6003 0.24034 0.86903 0.0
C151 C 0.64599 0.22876 0.87635 0.0
C152 C 0.65544 0.18513 0.89498 0.0
C153 C 0.61917 0.15448 0.90908 0.0
C154 C 0.62561 0.02778 0.97585 0.0
C155 C 0.5748 0.13583 0.09141 0.0
O156 O 0.55725 0.9599 0.07902 0.0
O157 O 0.54964 1.01058 0.14078 0.0
O158 O 0.49079 0.0745 0.11522 0.0
O159 O 0.4696 0.05936 0.04393 0.0
O160 O 0.52692 0.97341 1.00409 0.0
O161 O 0.4859 1.02154 0.96319 0.0
O162 O 0.53261 0.14953 0.97736 0.0
O163 O 0.5331 0.09573 0.91801 0.0
O164 O 0.59026 0.02754 0.9482 0.0
O165 O 0.61257 0.05028 1.0169 0.0
O166 O 0.54682 0.13805 0.05482 0.0
O167 O 0.58949 0.09401 0.09882 0.0
H168 H 0.56341 0.88941 0.18048 0.0
H169 H 0.50306 0.83187 0.20754 0.0
H170 H 0.39933 0.91564 0.14789 0.0
H171 H 0.45942 0.97281 0.12063 0.0
H172 H 0.52883 0.22018 0.88001 0.0
H173 H 0.59273 0.27419 0.855 0.0
H174 H 0.69059 0.17611 0.90124 0.0
H175 H 0.62678 0.12211 0.92627 0.0
Nd176 Nd 0.48951 0.52116 0.55001 0.0
Nd177 Nd 0.5639 0.58774 0.52023 0.0
C178 C 0.41237 0.47349 0.57378 0.0
C179 C 0.39294 0.44594 0.6146 0.0
C180 C 0.41684 0.44213 0.6586 0.0
C181 C 0.40045 0.41073 0.69436 0.0
C182 C 0.36039 0.38279 0.68589 0.0
C183 C 0.33577 0.38806 0.64275 0.0
C184 C 0.35199 0.41946 0.60728 0.0
C185 C 0.56932 0.51208 0.60141 0.0
C186 C 0.49489 0.62513 0.60903 0.0
C187 C 0.64264 0.63437 0.50321 0.0
C188 C 0.68588 0.64056 0.47399 0.0
C189 C 0.71174 0.60194 0.45641 0.0
C190 C 0.75794 0.609 0.44073 0.0
C191 C 0.77837 0.65456 0.44348 0.0
C192 C 0.75123 0.69324 0.45663 0.0
C193 C 0.70521 0.68627 0.47168 0.0
C194 C 0.48313 0.59969 0.47238 0.0
C195 C 0.55337 0.48668 0.45545 0.0
O196 O 0.41796 0.51888 0.58247 0.0
O197 O 0.44727 0.45499 0.549 0.0
O198 O 0.54285 0.47679 0.58716 0.0
O199 O 0.55187 0.54985 0.59091 0.0
O200 O 0.46671 0.59109 0.59155 0.0
O201 O 0.53797 0.62801 0.59169 0.0
O202 O 0.63829 0.59778 0.53097 0.0
O203 O 0.60411 0.64624 0.48452 0.0
O204 O 0.50969 0.63427 0.48884 0.0
O205 O 0.50023 0.56082 0.48004 0.0
O206 O 0.58286 0.52041 0.47115 0.0
O207 O 0.51101 0.48449 0.4749 0.0
H208 H 0.44874 0.46229 0.66447 0.0
H209 H 0.41964 0.40704 0.72763 0.0
H210 H 0.30471 0.36679 0.63589 0.0
H211 H 0.3334 0.42192 0.57334 0.0
H212 H 0.69725 0.56634 0.45795 0.0
H213 H 0.77859 0.57888 0.43044 0.0
H214 H 0.76656 0.72861 0.4586 0.0
H215 H 0.68574 0.71639 0.48517 0.0
Nd216 Nd 1.01403 0.55705 0.06996 0.0
Nd217 Nd 0.06949 0.54997 0.98593 0.0
C218 C 0.9565 0.57088 0.14764 0.0
C219 C 0.96806 0.57375 0.20057 0.0
C220 C 0.94271 0.60183 0.23525 0.0
C221 C 0.96091 0.61492 0.28164 0.0
C222 C 1.00539 0.60177 0.29269 0.0
C223 C 1.02906 0.57084 0.25955 0.0
C224 C 1.01006 0.55616 0.21428 0.0
C225 C 0.10293 0.58884 0.08968 0.0
C226 C 1.00594 0.64295 0.98719 0.0
C227 C 0.13261 0.52402 0.91757 0.0
C228 C 0.14915 0.47553 0.91267 0.0
C229 C 0.19352 0.4653 0.8936 0.0
C230 C 0.20929 0.41924 0.89482 0.0
C231 C 0.18122 0.38353 0.91639 0.0
C232 C 0.13697 0.39406 0.93508 0.0
C233 C 0.12088 0.43917 0.9323 0.0
C234 C 0.98095 0.52027 0.96536 0.0
C235 C 0.07701 0.46327 0.06976 0.0
O236 O 0.97508 0.60505 0.1221 0.0
O237 O 0.96057 0.52988 0.12411 0.0
O238 O 0.07828 0.56042 0.1163 0.0
O239 O 0.08118 0.59994 0.05238 0.0
O240 O 0.98342 0.61723 1.02153 0.0
O241 O 0.047 0.6275 0.97095 0.0
O242 O 0.14299 0.54744 0.95872 0.0
O243 O 0.08945 0.52799 0.90767 0.0
O244 O 1.00655 0.54785 0.93836 0.0
O245 O 1.00187 0.50824 1.00303 0.0
O246 O 0.09622 0.48533 1.031 0.0
O247 O 1.03936 0.48222 0.09042 0.0
H248 H 0.9103 0.61584 0.22539 0.0
H249 H 0.94189 0.638 0.30734 0.0
H250 H 0.06314 0.5598 0.26773 0.0
H251 H 1.02966 0.53346 0.18868 0.0
H252 H 0.21603 0.49285 0.87861 0.0
H253 H 0.24361 0.41164 0.88013 0.0
H254 H 0.11477 0.3672 0.9519 0.0
H255 H 0.08648 0.44586 0.94704 0.0
C256 C 0.12891 0.1304 0.30035 0.0
C257 C 0.17797 0.14087 0.29794 0.0
C258 C 0.17637 0.11396 0.38751 0.0
C259 C 0.1269 0.10798 0.39129 0.0
N260 N 0.05663 0.11804 0.34937 0.0
N261 N 0.24544 0.14991 0.34716 0.0
C262 C 0.10367 0.11882 0.34712 0.0
C263 C 0.20066 0.13416 0.34377 0.0
N264 N 0.10611 0.12844 0.25677 0.0
N265 N 0.20099 0.10042 0.42628 0.0
H266 H 0.26362 0.16618 0.31807 0.0
H267 H 0.26307 0.15142 0.38024 0.0
H268 H 0.18534 0.08863 0.45926 0.0
H269 H 0.23668 0.09772 0.42438 0.0
H270 H 0.072 0.11633 0.25391 0.0
H271 H 0.12275 0.13391 0.2223 0.0
H272 H 1.03707 0.1311 0.32179 0.0
H273 H 1.03717 0.10762 0.3807 0.0
C274 C 0.47469 0.90592 0.84695 0.0
C275 C 0.45835 0.8621 0.86521 0.0
C276 C 0.46571 0.89489 0.95159 0.0
C277 C 0.4841 0.9382 0.93332 0.0
N278 N 0.51649 0.9799 0.86283 0.0
N279 N 0.44608 0.81181 0.9343 0.0
C280 C 0.49149 0.94228 0.88078 0.0
C281 C 0.45651 0.85568 0.91744 0.0
N282 N 0.47261 0.91361 0.79721 0.0
N283 N 0.45463 0.89192 1.00136 0.0
H284 H 0.43908 0.78274 0.9102 0.0
H285 H 0.44842 0.80327 0.97138 0.0
H286 H 0.45961 0.91998 1.02725 0.0
H287 H 0.43675 0.86322 1.01651 0.0
H288 H 0.47794 0.94671 0.7825 0.0
H289 H 0.46243 0.8875 0.77088 0.0
H290 H 0.52768 0.98197 0.82563 0.0
H291 H 0.53007 1.00706 0.88562 0.0
C292 C 0.63864 0.53479 0.71887 0.0
C293 C 0.67152 0.49945 0.71239 0.0
C294 C 0.64295 0.47884 0.62888 0.0
C295 C 0.60544 0.50896 0.63898 0.0
N296 N 0.56336 0.55907 0.69875 0.0
N297 N 0.70291 0.43426 0.66298 0.0
C298 C 0.60241 0.53572 0.6851 0.0
C299 C 0.67361 0.4708 0.66758 0.0
N300 N 0.64202 0.5675 0.75767 0.0
N301 N 0.64977 0.45859 0.58209 0.0
H302 H 0.72626 0.42755 0.69001 0.0
H303 H 0.70194 0.4087 0.63389 0.0
H304 H 0.6281 0.4637 0.5529 0.0
H305 H 0.67909 0.44021 0.57105 0.0
H306 H 0.62171 0.59698 0.76157 0.0
H307 H 0.66846 0.56778 0.78291 0.0
H308 H 0.55754 0.57525 0.73396 0.0
H309 H 0.5344 0.55744 0.67727 0.0
C310 C 0.07644 0.69055 0.37083 0.0
C311 C 0.07929 0.66655 0.41557 0.0
C312 C 1.03697 0.59802 0.37839 0.0
C313 C 1.02966 0.62425 0.33587 0.0
N314 N 1.03895 0.69695 0.29273 0.0
N315 N 0.06088 0.59873 0.4641 0.0
C316 C 0.04832 0.671 0.33248 0.0
C317 C 0.05983 0.62026 0.41969 0.0
N318 N 0.10241 0.73107 0.3642 0.0
N319 N 1.02202 0.55186 0.37918 0.0
H320 H 0.07801 0.61352 0.49481 0.0
H321 H 1.04258 0.56758 0.47181 0.0
H322 H 1.00246 0.53538 0.35118 0.0
H323 H 1.03097 0.52905 0.4061 0.0
H324 H 0.10559 0.74792 0.33058 0.0
H325 H 0.12466 0.74541 0.39094 0.0
H326 H 0.04615 0.73305 0.29159 0.0
H327 H 1.02152 0.68323 0.26179 0.0
C328 C 0.3249 0.12492 0.1027 0.0
C329 C 0.31715 0.13354 0.156 0.0
C330 C 0.39435 0.09517 0.16233 0.0
C331 C 0.40587 0.09376 0.10924 0.0
N332 N 0.37895 0.11623 1.03039 0.0
N333 N 0.35591 0.13553 0.23379 0.0
C334 C 0.37004 0.11122 0.08012 0.0
C335 C 0.35524 0.121 0.18466 0.0
N336 N 0.28825 0.12722 0.0728 0.0
N337 N 0.41896 0.06911 0.19255 0.0
H338 H 0.33059 0.15633 0.25103 0.0
H339 H 0.38445 0.13186 0.25546 0.0
H340 H 0.44326 0.04533 0.1789 0.0
H341 H 0.41012 0.06555 0.23024 0.0
H342 H 0.28969 0.11724 1.03494 0.0
H343 H 0.25504 0.13358 0.08701 0.0
H344 H 0.35717 0.1335 1.00796 0.0
H345 H 0.41003 0.10694 1.0126 0.0
C346 C 0.23769 0.75737 0.69408 0.0
C347 C 0.24522 0.78125 0.74098 0.0
C348 C 0.19409 0.84327 0.72027 0.0
C349 C 0.18596 0.81913 0.67378 0.0
N350 N 0.18917 0.74741 0.62255 0.0
N351 N 0.21796 0.83698 0.80493 0.0
C352 C 0.20412 0.7741 0.66283 0.0
C353 C 0.21932 0.82107 0.75608 0.0
N354 N 0.26443 0.72078 0.67768 0.0
N355 N 0.18015 0.88836 0.72932 0.0
H356 H 0.23427 0.81995 0.83257 0.0
H357 H 0.19642 0.86342 0.8188 0.0
H358 H 0.1621 0.90647 0.70395 0.0
H359 H 0.18994 0.90923 0.76036 0.0
H360 H 0.26409 0.7062 0.64135 0.0
H361 H 0.28961 0.70706 0.69877 0.0
H362 H 0.19783 0.71247 0.61529 0.0
H363 H 0.16438 0.75878 0.59918 0.0
C364 C 0.9092 0.45595 0.86832 0.0
C365 C 0.86418 0.46786 0.88547 0.0
C366 C 0.89535 0.50772 0.96085 0.0
C367 C 0.94023 0.4952 0.94385 0.0
N368 N 0.98933 0.44906 0.88808 0.0
N369 N 0.81268 0.49847 0.95083 0.0
C370 C 0.9469 0.4667 0.89952 0.0
C371 C 0.85673 0.49174 0.93271 0.0
N372 N 0.91596 0.43529 0.82165 0.0
N373 N 0.88997 0.53637 1.00287 0.0
H374 H 0.7837 0.48922 0.93029 0.0
H375 H 0.80456 0.51078 0.98712 0.0
H376 H 0.91724 0.54619 1.02574 0.0
H377 H 0.85915 0.55187 1.01413 0.0
H378 H 0.94834 0.43034 0.80464 0.0
H379 H 0.88901 0.4261 0.7981 0.0
H380 H 0.99595 0.42446 0.85897 0.0
H381 H 1.01719 0.45573 0.91093 0.0
C382 C 0.89547 0.68771 0.489 0.0
C383 C 0.91626 0.70804 0.44598 0.0
C384 C 0.84996 0.68182 0.39677 0.0
C385 C 0.82897 0.66263 0.44017 0.0
N386 N 0.836 0.63529 0.52313 0.0
N387 N 0.91868 0.7176 0.35725 0.0
C388 C 0.85349 0.66115 0.48462 0.0
C389 C 0.89527 0.70249 0.39908 0.0
N390 N 0.91363 0.69709 0.53484 0.0
N391 N 0.82575 0.68138 0.35412 0.0
H392 H 0.95243 0.73155 0.35791 0.0
H393 H 0.90639 0.71354 0.3214 0.0
H394 H 0.79352 0.66418 0.35114 0.0
H395 H 0.83661 0.69876 0.32227 0.0
H396 H 0.8968 0.68819 0.56824 0.0
H397 H 0.94378 0.71738 0.54037 0.0
H398 H 0.8546 0.6288 0.5543 0.0
H399 H 0.80453 0.61651 0.52197 0.0
C400 C 0.16624 0.37062 0.11542 0.0
C401 C 0.13727 0.33295 0.1343 0.0
C402 C 0.07011 0.37717 0.10367 0.0
C403 C 0.09835 0.41757 0.09071 0.0
N404 N 0.17488 0.45296 0.09294 0.0
N405 N 0.0588 0.30429 0.14797 0.0
C406 C 0.14692 0.41378 0.09835 0.0
C407 C 0.08852 0.33782 0.12888 0.0
N408 N 0.21282 0.36589 0.11416 0.0
N409 N 1.0255 0.37466 0.08917 0.0
H410 H 0.06964 0.27284 0.16126 0.0
H411 H 1.02343 0.30863 0.15277 0.0
H412 H 1.01125 0.40085 0.06939 0.0
H413 H 1.00408 0.34461 0.0918 0.0
H414 H 0.23595 0.38849 0.09559 0.0
H415 H 0.22818 0.33703 0.1281 0.0
H416 H 0.20923 0.45527 0.10272 0.0
H417 H 0.16229 0.48504 0.08387 0.0
C418 C 0.74303 0.30491 0.82023 0.0
C419 C 0.74175 0.34406 0.85495 0.0
C420 C 0.6876 0.3008 0.90935 0.0
C421 C 0.68302 0.26524 0.87088 0.0
N422 N 0.70474 0.23264 0.78924 0.0
N423 N 0.71005 0.38175 0.93065 0.0
C424 C 0.7107 0.26671 0.82632 0.0
C425 C 0.7138 0.34251 0.89943 0.0
N426 N 0.77538 0.30436 0.78183 0.0
N427 N 0.66695 0.29452 0.95537 0.0
H428 H 0.72858 0.41326 0.92489 0.0
H429 H 0.68591 0.38431 0.96031 0.0
H430 H 0.64711 0.26439 0.96386 0.0
H431 H 0.67299 0.31702 0.98637 0.0
H432 H 0.78087 0.27516 0.75774 0.0
H433 H 0.79962 0.33193 0.77675 0.0
H434 H 0.72008 0.23451 0.75364 0.0
H435 H 0.68217 0.20351 0.7932 0.0
C436 C 1.00639 0.89823 0.41997 0.0
C437 C 0.98308 0.87119 0.45698 0.0
C438 C 0.94175 0.94087 0.48768 0.0
C439 C 0.97355 0.96937 0.46026 0.0
N440 N 1.02914 0.97594 0.39177 0.0
N441 N 0.92931 0.86704 0.52802 0.0
C442 C 1.0035 0.94813 0.42334 0.0
C443 C 0.95051 0.89246 0.49111 0.0
N444 N 1.02988 0.87607 0.38098 0.0
N445 N 0.90272 0.95961 0.50902 0.0
H446 H 0.93685 0.83226 0.53406 0.0
H447 H 0.90709 0.88161 0.55544 0.0
H448 H 0.89304 0.99354 0.50207 0.0
H449 H 0.87682 0.93962 0.52693 0.0
H450 H 1.04444 0.89331 0.35053 0.0
H451 H 1.03175 0.83951 0.37688 0.0
H452 H 0.05636 0.96401 0.36877 0.0
H453 H 1.02307 1.01168 0.3891 0.0
C454 C 0.47898 0.74289 0.68357 0.0
C455 C 0.45661 0.728 0.72844 0.0
C456 C 0.45926 0.64512 0.69578 0.0
C457 C 0.47899 0.66034 0.64945 0.0
N458 N 0.49964 0.72451 0.59642 0.0
N459 N 0.42397 0.66544 0.77739 0.0
C460 C 0.48715 0.70946 0.64286 0.0
C461 C 0.44667 0.67915 0.73454 0.0
N462 N 0.49217 0.78927 0.67962 0.0
N463 N 0.45359 0.59803 0.70356 0.0
H464 H 0.41817 0.6885 0.80823 0.0
H465 H 0.40923 0.63194 0.78204 0.0
H466 H 0.45877 0.57177 0.67584 0.0
H467 H 0.4459 0.58433 0.73828 0.0
H468 H 0.51338 0.80178 0.65064 0.0
H469 H 0.48501 0.81503 0.70746 0.0
H470 H 0.50146 0.75973 0.58739 0.0
H471 H 0.50372 0.70162 0.56521 0.0
C472 C 0.91077 0.94162 0.72132 0.0
C473 C 0.90687 0.96916 0.76759 0.0
C474 C 0.95759 0.03104 0.72336 0.0
C475 C 0.96335 1.00248 0.67757 0.0
N476 N 0.94753 0.9256 0.63891 0.0
N477 N 0.93385 0.03908 0.81241 0.0
C478 C 0.94066 0.9564 0.67879 0.0
C479 C 0.93202 1.01376 0.76795 0.0
N480 N 0.88343 0.90162 0.71656 0.0
N481 N 0.9776 0.07528 0.72516 0.0
H482 H 0.91616 0.0283 0.84471 0.0
H483 H 0.95538 0.06866 0.81865 0.0
H484 H 1.00158 0.08696 0.69821 0.0
H485 H 0.96957 0.10106 0.75261 0.0
H486 H 0.87921 0.88237 0.68299 0.0
H487 H 0.86131 0.89001 0.74535 0.0
H488 H 0.9396 0.88964 0.64004 0.0
H489 H 0.96365 0.93524 0.60546 0.0
C490 C 0.63524 0.24595 0.15231 0.0
C491 C 0.60937 0.25114 0.19855 0.0
C492 C 0.55442 0.19023 0.16648 0.0
C493 C 0.58534 0.17805 0.12589 0.0
N494 N 0.65697 0.1945 0.08085 0.0
N495 N 0.54766 0.22006 0.25213 0.0
C496 C 0.62637 0.206 0.11904 0.0
C497 C 0.56972 0.22115 0.2063 0.0
N498 N 0.66727 0.28009 0.1394 0.0
N499 N 0.50963 0.17425 0.16611 0.0
H500 H 0.55871 0.2401 0.28316 0.0
H501 H 0.52126 0.19544 0.26039 0.0
H502 H 0.49597 0.1574 0.13456 0.0
H503 H 0.48492 0.18444 0.19334 0.0
H504 H 0.68437 0.28046 0.10455 0.0
H505 H 0.67297 0.31076 0.16155 0.0
H506 H 0.68974 0.21045 0.07706 0.0
H507 H 0.65061 0.16686 0.05475 0.0
C508 C 0.37538 0.58507 0.39663 0.0
C509 C 0.39101 0.60469 0.35103 0.0
C510 C 0.46781 0.61972 0.38458 0.0
C511 C 0.45091 0.6044 0.43163 0.0
N512 N 0.38664 0.58066 0.48528 0.0
N513 N 0.44932 0.6505 0.30577 0.0
C514 C 0.40402 0.58962 0.43852 0.0
C515 C 0.43641 0.6249 0.34621 0.0
N516 N 0.33449 0.55974 0.39927 0.0
N517 N 0.51411 0.62717 0.37546 0.0
H518 H 0.42753 0.65611 0.27691 0.0
H519 H 0.48022 0.67026 0.30331 0.0
H520 H 0.53868 0.62314 0.40202 0.0
H521 H 0.52856 0.63289 0.34002 0.0
H522 H 0.32371 0.54058 0.43002 0.0
H523 H 0.31338 0.55382 0.36894 0.0
H524 H 0.3517 0.57416 0.4935 0.0
H525 H 0.40664 0.58433 0.5167 0.0
C526 C 0.24964 0.27901 0.95261 0.0
C527 C 0.22198 0.24099 0.93268 0.0
C528 C 0.17179 0.29663 0.89694 0.0
C529 C 0.19716 0.33474 0.92011 0.0
N530 N 0.2534 0.36136 0.98016 0.0
N531 N 0.14933 0.21403 0.89889 0.0
C532 C 0.23429 0.32578 0.9508 0.0
C533 C 0.18084 0.24988 0.90862 0.0
N534 N 0.29125 0.27069 0.9719 0.0
N535 N 0.14001 0.30495 0.86248 0.0
H536 H 0.15354 0.17967 0.90945 0.0
H537 H 0.11686 0.21938 0.88549 0.0
H538 H 0.13368 0.33866 0.85128 0.0
H539 H 0.12391 0.27817 0.84092 0.0
H540 H 0.3151 0.29749 0.98174 0.0
H541 H 0.30362 0.23695 0.97432 0.0
H542 H 0.27713 0.35573 1.00715 0.0
H543 H 0.24233 0.39585 0.98111 0.0
C544 C 0.76208 1.01668 0.93586 0.0
C545 C 0.76415 0.97323 0.90577 0.0
C546 C 0.67806 0.96342 0.9285 0.0
C547 C 0.67503 1.0085 0.95546 0.0
N548 N 0.71717 0.08033 0.9772 0.0
N549 N 0.71858 0.9097 0.86879 0.0
C550 C 0.71815 0.03539 0.9571 0.0
C551 C 0.72041 0.94813 0.90123 0.0
N552 N 0.80283 0.04005 0.94567 0.0
N553 N 0.64038 0.93324 0.93071 0.0
H554 H 0.74762 0.89744 0.84884 0.0
H555 H 0.68795 0.89272 0.858 0.0
H556 H 0.60991 0.94165 0.95041 0.0
H557 H 0.64068 0.89819 0.91763 0.0
H558 H 0.80584 0.06844 0.97142 0.0
H559 H 0.83434 0.02862 0.93056 0.0
H560 H 0.7449 0.1045 0.97482 0.0
H561 H 0.68716 0.0946 0.99306 0.0
C562 C 0.84185 0.30353 0.32916 0.0
C563 C 0.8142 0.26645 0.30749 0.0
C564 C 0.85865 0.20825 0.34743 0.0
C565 C 0.88144 0.24557 0.37485 0.0
N566 N 0.89549 0.32854 0.39305 0.0
N567 N 0.79438 0.18359 0.29618 0.0
C568 C 0.87357 0.29324 0.36571 0.0
C569 C 0.82268 0.21872 0.3158 0.0
N570 N 0.83848 0.34834 0.31362 0.0
N571 N 0.87109 0.16279 0.35213 0.0
H572 H 0.76812 0.18966 0.27216 0.0
H573 H 0.79484 0.14863 0.30594 0.0
H574 H 0.89571 0.15341 0.37668 0.0
H575 H 0.85959 0.1346 0.32915 0.0
H576 H 0.86044 0.37641 0.32451 0.0
H577 H 0.81626 0.35661 0.28597 0.0
H578 H 0.88715 0.3638 0.39275 0.0
H579 H 0.92079 0.32224 0.4182 0.0
C580 C 0.16706 0.66408 0.18566 0.0
C581 C 0.21299 0.65096 0.17401 0.0
C582 C 0.18758 0.60371 0.10074 0.0
C583 C 0.1416 0.61673 0.11222 0.0
N584 N 0.0882 0.66614 0.15886 0.0
N585 N 0.26892 0.61578 0.11622 0.0
C586 C 0.13161 0.64927 0.1526 0.0
C587 C 0.22386 0.62335 0.12997 0.0
N588 N 0.15727 0.68951 0.22907 0.0
N589 N 0.19621 0.57042 0.06359 0.0
H590 H 0.29639 0.62709 0.13813 0.0
H591 H 0.2795 0.60099 0.08163 0.0
H592 H 0.17035 0.55578 0.04149 0.0
H593 H 0.22782 0.55479 0.05696 0.0
H594 H 0.12401 0.69608 0.24263 0.0
H595 H 0.1826 0.70197 0.25336 0.0
H596 H 0.07923 0.69295 0.18475 0.0
H597 H 0.06179 0.65608 0.13491 0.0
C598 C 0.34389 0.26376 0.74367 0.0
C599 C 0.29935 0.26927 0.76606 0.0
C600 C 0.30392 0.35344 0.75044 0.0
C601 C 0.3444 0.34605 0.72045 0.0
N602 N 0.40296 0.29436 0.68637 0.0
N603 N 0.23518 0.3181 0.7892 0.0
C604 C 0.36497 0.30144 0.71716 0.0
C605 C 0.2791 0.31399 0.76976 0.0
N606 N 0.36567 0.22238 0.74748 0.0
N607 N 0.28924 0.39821 0.75992 0.0
H608 H 0.21601 0.28966 0.80326 0.0
H609 H 0.21656 0.34859 0.78827 0.0
H610 H 0.30707 0.42769 0.7461 0.0
H611 H 0.26209 0.40654 0.78487 0.0
H612 H 0.39993 0.21763 0.73612 0.0
H613 H 0.3506 0.19392 0.76605 0.0
H614 H 0.41615 0.26132 0.67761 0.0
H615 H 0.4199 0.32124 0.66696 0.0
C616 C 0.95494 0.73019 0.89192 0.0
C617 C 0.94176 0.7709 0.92215 0.0
C618 C 0.96623 0.72623 0.99588 0.0
C619 C 0.98359 0.68746 0.96486 0.0
N620 N 0.99662 0.65724 0.88024 0.0
N621 N 0.9408 0.80784 1.00439 0.0
C622 C 0.97861 0.69122 0.91212 0.0
C623 C 0.9486 0.76848 0.97462 0.0
N624 N 0.94241 0.7273 0.84328 0.0
N625 N 0.96704 0.72328 0.04643 0.0
H626 H 0.92796 0.83827 0.9908 0.0
H627 H 0.95002 0.81174 0.04146 0.0
H628 H 0.98289 0.69626 0.06336 0.0
H629 H 0.94996 0.74615 0.07165 0.0
H630 H 0.94536 0.6971 0.82006 0.0
H631 H 0.92424 0.75341 0.82746 0.0
H632 H 1.0009 0.66076 0.84189 0.0
H633 H 1.01006 0.62651 0.89217 0.0
C634 C 0.34668 0.80206 0.24135 0.0
C635 C 0.34708 0.75962 0.21141 0.0
C636 C 0.40845 0.79253 0.15708 0.0
C637 C 0.41167 0.83274 0.19023 0.0
N638 N 0.38765 0.87479 0.26636 0.0
N639 N 0.38248 0.71109 0.14538 0.0
C640 C 0.38168 0.83739 0.23302 0.0
C641 C 0.37896 0.75395 0.17034 0.0
N642 N 0.31234 0.80879 0.27702 0.0
N643 N 0.43284 0.79169 0.11239 0.0
H644 H 0.36157 0.68176 0.15398 0.0
H645 H 0.40864 0.70345 0.11891 0.0
H646 H 0.45521 0.8192 0.10144 0.0
H647 H 0.4279 0.76564 0.08431 0.0
H648 H 0.30739 0.84072 0.29675 0.0
H649 H 0.28631 0.7834 0.28413 0.0
H650 H 0.37024 0.8776 0.30097 0.0
H651 H 0.41257 0.90166 0.26098 0.0
C652 C 0.19219 0.0958 0.70121 0.0
C653 C 0.18462 0.1424 0.72005 0.0
C654 C 0.12724 0.15148 0.6569 0.0
C655 C 0.13392 0.10442 0.63908 0.0
N656 N 0.16049 0.02738 0.65579 0.0
N657 N 0.1367 0.21004 0.72479 0.0
C658 C 0.16269 0.07515 0.66473 0.0
C659 C 0.14945 0.16884 0.70068 0.0
N660 N 0.22866 0.07186 0.71642 0.0
N661 N 0.10113 0.18012 0.631 0.0
H662 H 0.15169 0.22326 0.75751 0.0
H663 H 0.10841 0.22865 0.71521 0.0
H664 H 0.08406 0.16829 0.59915 0.0
H665 H 0.09916 0.21622 0.63892 0.0
H666 H 0.23857 0.03981 0.69968 0.0
H667 H 0.25148 0.0858 0.74276 0.0
H668 H 0.17772 1.00414 0.67673 0.0
H669 H 0.13722 1.01053 0.63163 0.0
C670 C 0.57248 0.36822 0.38354 0.0
C671 C 0.59319 0.38302 0.33783 0.0
C672 C 0.58184 0.46588 0.36644 0.0
C673 C 0.56702 0.45115 0.41461 0.0
N674 N 0.55342 0.38788 0.47075 0.0
N675 N 0.62021 0.44608 0.28636 0.0
C676 C 0.56319 0.40213 0.42342 0.0
C677 C 0.59829 0.43197 0.32937 0.0
N678 N 0.56199 0.32144 0.3889 0.0
N679 N 0.57866 0.51207 0.35546 0.0
H680 H 0.63024 0.42231 0.25748 0.0
H681 H 0.63047 0.4809 0.28033 0.0
H682 H 0.5664 0.53764 0.38126 0.0
H683 H 0.58432 0.52434 0.31973 0.0
H684 H 0.54265 0.3085 0.41909 0.0
H685 H 0.56895 0.29586 0.36074 0.0
H686 H 0.55507 0.35311 0.48088 0.0
H687 H 0.54775 0.41133 0.50123 0.0
loop_
_geom_bond_atom_site_label_1
_geom_bond_atom_site_label_2
_geom_bond_distance
_geom_bond_site_symmetry_2
_ccdc_geom_bond_type
H0 C5 0.930 . S
H1 C8 0.930 . S
H2 C10 0.930 . S
H3 C4 1.016 . S
C4 H3 1.016 . S
C4 N11 1.286 . S
C5 H0 0.930 . S
C5 C6 1.397 . S
C5 C7 1.361 . S
C6 C5 1.397 . S
C6 C10 1.390 . S
C7 C5 1.361 . S
C7 C8 1.393 . S
C7 N11 1.413 . S
C8 H1 0.930 . S
C8 C7 1.393 . S
C8 C9 1.399 . S
C9 C8 1.399 . S
C9 C10 1.381 . S
C10 H2 0.930 . S
C10 C6 1.390 . S
C10 C9 1.381 . S
N11 C4 1.286 . S
N11 C7 1.413 . S
H12 C17 0.930 . S
H13 C20 0.930 . S
H14 C22 0.930 . S
H15 C16 1.016 . S
C16 H15 1.016 . S
C16 N23 1.286 . S
C17 H12 0.930 . S
C17 C18 1.397 . S
C17 C19 1.361 . S
C18 C17 1.397 . S
C18 C22 1.390 . S
C19 C17 1.361 . S
C19 C20 1.393 . S
C19 N23 1.413 . S
C20 H13 0.930 . S
C20 C19 1.393 . S
C20 C21 1.399 . S
C21 C20 1.399 . S
C21 C22 1.381 . S
C22 H14 0.930 . S
C22 C18 1.390 . S
C22 C21 1.381 . S
N23 C16 1.286 . S
N23 C19 1.413 . S
H24 C29 0.930 . S
H25 C32 0.930 . S
H26 C34 0.930 . S
H27 C28 1.016 . S
C28 H27 1.016 . S
C28 N35 1.286 . S
C29 H24 0.930 . S
C29 C30 1.397 . S
C29 C31 1.361 . S
C30 C29 1.397 . S
C30 C34 1.390 . S
C31 C29 1.361 . S
C31 C32 1.393 . S
C31 N35 1.413 . S
C32 H25 0.930 . S
C32 C31 1.393 . S
C32 C33 1.399 . S
C33 C32 1.399 . S
C33 C34 1.381 . S
C34 H26 0.930 . S
C34 C30 1.390 . S
C34 C33 1.381 . S
N35 C28 1.286 . S
N35 C31 1.413 . S
H36 C41 0.930 . S
H37 C44 0.930 . S
H38 C46 0.930 . S
H39 C40 1.016 . S
C40 H39 1.016 . S
C40 N47 1.286 . S
C41 H36 0.930 . S
C41 C42 1.397 . S
C41 C43 1.361 . S
C42 C41 1.397 . S
C42 C46 1.390 . S
C43 C41 1.361 . S
C43 C44 1.393 . S
C43 N47 1.413 . S
C44 H37 0.930 . S
C44 C43 1.393 . S
C44 C45 1.399 . S
C45 C44 1.399 . S
C45 C46 1.381 . S
C46 H38 0.930 . S
C46 C42 1.390 . S
C46 C45 1.381 . S
N47 C40 1.286 . S
N47 C43 1.413 . S
H48 C53 0.930 . S
H49 C56 0.930 . S
H50 C58 0.930 . S
H51 C52 1.016 . S
C52 H51 1.016 . S
C52 N59 1.286 . S
C53 H48 0.930 . S
C53 C54 1.397 . S
C53 C55 1.361 . S
C54 C53 1.397 . S
C54 C58 1.390 . S
C55 C53 1.361 . S
C55 C56 1.393 . S
C55 N59 1.413 . S
C56 H49 0.930 . S
C56 C55 1.393 . S
C56 C57 1.399 . S
C57 C56 1.399 . S
C57 C58 1.381 . S
C58 H50 0.930 . S
C58 C54 1.390 . S
C58 C57 1.381 . S
N59 C52 1.286 . S
N59 C55 1.413 . S
H60 C65 0.930 . S
H61 C68 0.930 . S
H62 C70 0.930 . S
H63 C64 1.016 . S
C64 H63 1.016 . S
C64 N71 1.286 . S
C65 H60 0.930 . S
C65 C66 1.397 . S
C65 C67 1.361 . S
C66 C65 1.397 . S
C66 C70 1.390 . S
C67 C65 1.361 . S
C67 C68 1.393 . S
C67 N71 1.413 . S
C68 H61 0.930 . S
C68 C67 1.393 . S
C68 C69 1.399 . S
C69 C68 1.399 . S
C69 C70 1.381 . S
C70 H62 0.930 . S
C70 C66 1.390 . S
C70 C69 1.381 . S
N71 C64 1.286 . S
N71 C67 1.413 . S
H72 C77 0.930 . S
H73 C80 0.930 . S
H74 C82 0.930 . S
H75 C76 1.016 . S
C76 H75 1.016 . S
C76 N83 1.286 . S
C77 H72 0.930 . S
C77 C78 1.397 . S
C77 C79 1.361 . S
C78 C77 1.397 . S
C78 C82 1.390 . S
C79 C77 1.361 . S
C79 C80 1.393 . S
C79 N83 1.413 . S
C80 H73 0.930 . S
C80 C79 1.393 . S
C80 C81 1.399 . S
C81 C80 1.399 . S
C81 C82 1.381 . S
C82 H74 0.930 . S
C82 C78 1.390 . S
C82 C81 1.381 . S
N83 C76 1.286 . S
N83 C79 1.413 . S
H84 C89 0.930 . S
H85 C92 0.930 . S
H86 C94 0.930 . S
H87 C88 1.016 . S
C88 H87 1.016 . S
C88 N95 1.286 . S
C89 H84 0.930 . S
C89 C90 1.397 . S
C89 C91 1.361 . S
C90 C89 1.397 . S
C90 C94 1.390 . S
C91 C89 1.361 . S
C91 C92 1.393 . S
C91 N95 1.413 . S
C92 H85 0.930 . S
C92 C91 1.393 . S
C92 C93 1.399 . S
C93 C92 1.399 . S
C93 C94 1.381 . S
C94 H86 0.930 . S
C94 C90 1.390 . S
C94 C93 1.381 . S
N95 C88 1.286 . S
N95 C91 1.413 . S
Nd96 C98 2.836 . S
Nd96 O116 2.500 . S
Nd96 O117 2.492 . S
Nd96 O118 2.487 1_565 S
Nd96 O119 2.682 1_565 S
Nd96 O120 2.410 . S
Nd96 O125 2.414 1_455 S
Nd96 O127 2.424 1_565 S
Nd97 C107 2.836 . S
Nd97 O119 2.414 1_655 S
Nd97 O121 2.424 1_545 S
Nd97 O122 2.500 . S
Nd97 O123 2.492 . S
Nd97 O124 2.487 1_545 S
Nd97 O125 2.682 1_545 S
Nd97 O126 2.410 . S
C98 Nd96 2.836 . S
C98 C99 1.498 . S
C98 O116 1.258 . S
C98 O117 1.239 . S
C99 C98 1.498 . S
C99 C100 1.366 . S
C99 C104 1.407 . S
C100 C99 1.366 . S
C100 C101 1.392 . S
C100 H128 0.930 . S
C101 C100 1.392 . S
C101 C102 1.398 . S
C101 H129 0.929 . S
C102 C101 1.398 . S
C102 C103 1.352 . S
C103 C102 1.352 . S
C103 C104 1.384 . S
C103 H130 0.930 . S
C104 C99 1.407 . S
C104 C103 1.384 . S
C104 H131 0.929 . S
C105 O118 1.241 . S
C105 O119 1.273 . S
C106 O120 1.251 1_655 S
C106 O121 1.268 . S
C107 Nd97 2.836 . S
C107 C108 1.498 . S
C107 O122 1.258 . S
C107 O123 1.239 . S
C108 C107 1.498 . S
C108 C109 1.366 . S
C108 C113 1.407 . S
C109 C108 1.366 . S
C109 C110 1.392 . S
C109 H132 0.930 . S
C110 C109 1.392 . S
C110 C111 1.398 . S
C110 H133 0.929 . S
C111 C110 1.398 . S
C111 C112 1.352 . S
C112 C111 1.352 . S
C112 C113 1.384 . S
C112 H134 0.930 . S
C113 C108 1.407 . S
C113 C112 1.384 . S
C113 H135 0.929 . S
C114 O124 1.241 . S
C114 O125 1.273 . S
C115 O126 1.251 1_455 S
C115 O127 1.268 . S
O116 Nd96 2.500 . S
O116 C98 1.258 . S
O117 Nd96 2.492 . S
O117 C98 1.239 . S
O118 Nd96 2.487 1_545 S
O118 C105 1.241 . S
O119 Nd96 2.682 1_545 S
O119 Nd97 2.414 1_455 S
O119 C105 1.273 . S
O120 Nd96 2.410 . S
O120 C106 1.251 1_455 S
O121 Nd97 2.424 1_565 S
O121 C106 1.268 . S
O122 Nd97 2.500 . S
O122 C107 1.258 . S
O123 Nd97 2.492 . S
O123 C107 1.239 . S
O124 Nd97 2.487 1_565 S
O124 C114 1.241 . S
O125 Nd96 2.414 1_655 S
O125 Nd97 2.682 1_565 S
O125 C114 1.273 . S
O126 Nd97 2.410 . S
O126 C115 1.251 1_655 S
O127 Nd96 2.424 1_545 S
O127 C115 1.268 . S
H128 C100 0.930 . S
H129 C101 0.929 . S
H130 C103 0.930 . S
H131 C104 0.929 . S
H132 C109 0.930 . S
H133 C110 0.929 . S
H134 C112 0.930 . S
H135 C113 0.929 . S
Nd136 C138 2.836 . S
Nd136 O156 2.500 . S
Nd136 O157 2.492 . S
Nd136 O158 2.487 1_565 S
Nd136 O159 2.682 1_565 S
Nd136 O160 2.410 1_554 S
Nd136 O165 2.414 . S
Nd136 O167 2.424 1_565 S
Nd137 C147 2.836 . S
Nd137 O159 2.414 1_556 S
Nd137 O161 2.424 1_545 S
Nd137 O162 2.500 . S
Nd137 O163 2.492 . S
Nd137 O164 2.487 . S
Nd137 O165 2.682 1_546 S
Nd137 O166 2.410 1_556 S
C138 Nd136 2.836 . S
C138 C139 1.498 . S
C138 O156 1.258 . S
C138 O157 1.239 . S
C139 C138 1.498 . S
C139 C140 1.366 . S
C139 C144 1.407 . S
C140 C139 1.366 . S
C140 C141 1.392 . S
C140 H168 0.930 . S
C141 C140 1.392 . S
C141 C142 1.398 . S
C141 H169 0.929 . S
C142 C141 1.398 . S
C142 C143 1.352 . S
C143 C142 1.352 . S
C143 C144 1.384 . S
C143 H170 0.930 . S
C144 C139 1.407 . S
C144 C143 1.384 . S
C144 H171 0.929 . S
C145 O158 1.241 . S
C145 O159 1.273 . S
C146 O160 1.251 . S
C146 O161 1.268 . S
C147 Nd137 2.836 . S
C147 C148 1.498 . S
C147 O162 1.258 . S
C147 O163 1.239 . S
C148 C147 1.498 . S
C148 C149 1.366 . S
C148 C153 1.407 . S
C149 C148 1.366 . S
C149 C150 1.392 . S
C149 H172 0.930 . S
C150 C149 1.392 . S
C150 C151 1.398 . S
C150 H173 0.929 . S
C151 C150 1.398 . S
C151 C152 1.352 . S
C152 C151 1.352 . S
C152 C153 1.384 . S
C152 H174 0.930 . S
C153 C148 1.407 . S
C153 C152 1.384 . S
C153 H175 0.929 . S
C154 O164 1.241 1_565 S
C154 O165 1.273 1_556 S
C155 O166 1.251 . S
C155 O167 1.268 . S
O156 Nd136 2.500 . S
O156 C138 1.258 . S
O157 Nd136 2.492 . S
O157 C138 1.239 . S
O158 Nd136 2.487 1_545 S
O158 C145 1.241 . S
O159 Nd136 2.682 1_545 S
O159 Nd137 2.414 1_554 S
O159 C145 1.273 . S
O160 Nd136 2.410 1_556 S
O160 C146 1.251 . S
O161 Nd137 2.424 1_565 S
O161 C146 1.268 . S
O162 Nd137 2.500 . S
O162 C147 1.258 . S
O163 Nd137 2.492 . S
O163 C147 1.239 . S
O164 Nd137 2.487 . S
O164 C154 1.241 1_545 S
O165 Nd136 2.414 . S
O165 Nd137 2.682 1_564 S
O165 C154 1.273 1_554 S
O166 Nd137 2.410 1_554 S
O166 C155 1.251 . S
O167 Nd136 2.424 1_545 S
O167 C155 1.268 . S
H168 C140 0.930 . S
H169 C141 0.929 . S
H170 C143 0.930 . S
H171 C144 0.929 . S
H172 C149 0.930 . S
H173 C150 0.929 . S
H174 C152 0.930 . S
H175 C153 0.929 . S
Nd176 C178 2.836 . S
Nd176 O196 2.500 . S
Nd176 O197 2.492 . S
Nd176 O198 2.487 . S
Nd176 O199 2.682 . S
Nd176 O200 2.410 . S
Nd176 O205 2.414 . S
Nd176 O207 2.424 . S
Nd177 C187 2.836 . S
Nd177 O199 2.414 . S
Nd177 O201 2.424 . S
Nd177 O202 2.500 . S
Nd177 O203 2.492 . S
Nd177 O204 2.487 . S
Nd177 O205 2.682 . S
Nd177 O206 2.410 . S
C178 Nd176 2.836 . S
C178 C179 1.498 . S
C178 O196 1.258 . S
C178 O197 1.239 . S
C179 C178 1.498 . S
C179 C180 1.366 . S
C179 C184 1.407 . S
C180 C179 1.366 . S
C180 C181 1.392 . S
C180 H208 0.930 . S
C181 C180 1.392 . S
C181 C182 1.398 . S
C181 H209 0.929 . S
C182 C181 1.398 . S
C182 C183 1.352 . S
C183 C182 1.352 . S
C183 C184 1.384 . S
C183 H210 0.930 . S
C184 C179 1.407 . S
C184 C183 1.384 . S
C184 H211 0.929 . S
C185 O198 1.241 . S
C185 O199 1.273 . S
C186 O200 1.251 . S
C186 O201 1.268 . S
C187 Nd177 2.836 . S
C187 C188 1.498 . S
C187 O202 1.258 . S
C187 O203 1.239 . S
C188 C187 1.498 . S
C188 C189 1.366 . S
C188 C193 1.407 . S
C189 C188 1.366 . S
C189 C190 1.392 . S
C189 H212 0.930 . S
C190 C189 1.392 . S
C190 C191 1.398 . S
C190 H213 0.929 . S
C191 C190 1.398 . S
C191 C192 1.352 . S
C192 C191 1.352 . S
C192 C193 1.384 . S
C192 H214 0.930 . S
C193 C188 1.407 . S
C193 C192 1.384 . S
C193 H215 0.929 . S
C194 O204 1.241 . S
C194 O205 1.273 . S
C195 O206 1.251 . S
C195 O207 1.268 . S
O196 Nd176 2.500 . S
O196 C178 1.258 . S
O197 Nd176 2.492 . S
O197 C178 1.239 . S
O198 Nd176 2.487 . S
O198 C185 1.241 . S
O199 Nd176 2.682 . S
O199 Nd177 2.414 . S
O199 C185 1.273 . S
O200 Nd176 2.410 . S
O200 C186 1.251 . S
O201 Nd177 2.424 . S
O201 C186 1.268 . S
O202 Nd177 2.500 . S
O202 C187 1.258 . S
O203 Nd177 2.492 . S
O203 C187 1.239 . S
O204 Nd177 2.487 . S
O204 C194 1.241 . S
O205 Nd176 2.414 . S
O205 Nd177 2.682 . S
O205 C194 1.273 . S
O206 Nd177 2.410 . S
O206 C195 1.251 . S
O207 Nd176 2.424 . S
O207 C195 1.268 . S
H208 C180 0.930 . S
H209 C181 0.929 . S
H210 C183 0.930 . S
H211 C184 0.929 . S
H212 C189 0.930 . S
H213 C190 0.929 . S
H214 C192 0.930 . S
H215 C193 0.929 . S
Nd216 C218 2.851 . S
Nd216 O236 2.522 . S
Nd216 O237 2.497 . S
Nd216 O238 2.464 1_655 S
Nd216 O239 2.660 1_655 S
Nd216 O240 2.408 1_655 S
Nd216 O245 2.422 1_554 S
Nd216 O247 2.414 1_655 S
Nd217 C227 2.836 . S
Nd217 O239 2.414 1_556 S
Nd217 O241 2.424 . S
Nd217 O242 2.500 . S
Nd217 O243 2.492 . S
Nd217 O244 2.487 1_455 S
Nd217 O245 2.682 1_455 S
Nd217 O246 2.410 . S
C218 Nd216 2.851 . S
C218 C219 1.498 . S
C218 O236 1.258 . S
C218 O237 1.239 . S
C219 C218 1.498 . S
C219 C220 1.366 . S
C219 C224 1.407 . S
C220 C219 1.366 . S
C220 C221 1.392 . S
C220 H248 0.930 . S
C221 C220 1.392 . S
C221 C222 1.398 . S
C221 H249 0.929 . S
C222 C221 1.398 . S
C222 C223 1.352 . S
C223 C222 1.352 . S
C223 C224 1.384 . S
C223 H250 0.930 . S
C224 C219 1.407 . S
C224 C223 1.384 . S
C224 H251 0.929 . S
C225 O238 1.241 . S
C225 O239 1.273 . S
C226 O240 1.251 1_556 S
C226 O241 1.268 . S
C227 Nd217 2.836 . S
C227 C228 1.498 . S
C227 O242 1.258 . S
C227 O243 1.239 . S
C228 C227 1.498 . S
C228 C229 1.366 . S
C228 C233 1.407 . S
C229 C228 1.366 . S
C229 C230 1.392 . S
C229 H252 0.930 . S
C230 C229 1.392 . S
C230 C231 1.398 . S
C230 H253 0.929 . S
C231 C230 1.398 . S
C231 C232 1.352 . S
C232 C231 1.352 . S
C232 C233 1.384 . S
C232 H254 0.930 . S
C233 C228 1.407 . S
C233 C232 1.384 . S
C233 H255 0.929 . S
C234 O244 1.241 . S
C234 O245 1.273 . S
C235 O246 1.251 1_554 S
C235 O247 1.268 . S
O236 Nd216 2.522 . S
O236 C218 1.258 . S
O237 Nd216 2.497 . S
O237 C218 1.239 . S
O238 Nd216 2.464 1_455 S
O238 C225 1.241 . S
O239 Nd216 2.660 1_455 S
O239 Nd217 2.414 1_554 S
O239 C225 1.273 . S
O240 Nd216 2.408 1_455 S
O240 C226 1.251 1_554 S
O241 Nd217 2.424 . S
O241 C226 1.268 . S
O242 Nd217 2.500 . S
O242 C227 1.258 . S
O243 Nd217 2.492 . S
O243 C227 1.239 . S
O244 Nd217 2.487 1_655 S
O244 C234 1.241 . S
O245 Nd216 2.422 1_556 S
O245 Nd217 2.682 1_655 S
O245 C234 1.273 . S
O246 Nd217 2.410 . S
O246 C235 1.251 1_556 S
O247 Nd216 2.414 1_455 S
O247 C235 1.268 . S
H248 C220 0.930 . S
H249 C221 0.929 . S
H250 C223 0.930 . S
H251 C224 0.929 . S
H252 C229 0.930 . S
H253 C230 0.929 . S
H254 C232 0.930 . S
H255 C233 0.929 . S
C256 C257 1.363 . S
C256 C262 1.379 . S
C256 N264 1.356 . S
C257 C256 1.363 . S
C257 C263 1.363 . S
C258 C259 1.363 . S
C258 C263 1.379 . S
C258 N265 1.356 . S
C259 C258 1.363 . S
C259 C262 1.363 . S
N260 C262 1.356 . S
N260 H272 0.984 1_455 S
N260 H273 0.989 . S
N261 C263 1.356 . S
N261 H266 0.984 . S
N261 H267 0.985 . S
C262 C256 1.379 . S
C262 C259 1.363 . S
C262 N260 1.356 . S
C263 C257 1.363 . S
C263 C258 1.379 . S
C263 N261 1.356 . S
N264 C256 1.356 . S
N264 H270 0.984 . S
N264 H271 0.984 . S
N265 C258 1.356 . S
N265 H268 0.984 . S
N265 H269 0.985 . S
H266 N261 0.984 . S
H267 N261 0.985 . S
H268 N265 0.984 . S
H269 N265 0.985 . S
H270 N264 0.984 . S
H271 N264 0.984 . S
H272 N260 0.984 1_655 S
H273 N260 0.989 . S
C274 C275 1.363 . S
C274 C280 1.379 . S
C274 N282 1.356 . S
C275 C274 1.363 . S
C275 C281 1.363 . S
C276 C277 1.363 . S
C276 C281 1.379 . S
C276 N283 1.356 . S
C277 C276 1.363 . S
C277 C280 1.363 . S
N278 C280 1.356 . S
N278 H290 0.984 . S
N278 H291 0.985 . S
N279 C281 1.356 . S
N279 H284 0.984 . S
N279 H285 0.985 . S
C280 C274 1.379 . S
C280 C277 1.363 . S
C280 N278 1.356 . S
C281 C275 1.363 . S
C281 C276 1.379 . S
C281 N279 1.356 . S
N282 C274 1.356 . S
N282 H288 0.984 . S
N282 H289 0.984 . S
N283 C276 1.356 . S
N283 H286 0.984 . S
N283 H287 0.985 1_556 S
H284 N279 0.984 . S
H285 N279 0.985 . S
H286 N283 0.984 . S
H287 N283 0.985 1_554 S
H288 N282 0.984 . S
H289 N282 0.984 . S
H290 N278 0.984 . S
H291 N278 0.985 . S
C292 C293 1.363 . S
C292 C298 1.379 . S
C292 N300 1.356 . S
C293 C292 1.363 . S
C293 C299 1.363 . S
C294 C295 1.363 . S
C294 C299 1.379 . S
C294 N301 1.356 . S
C295 C294 1.363 . S
C295 C298 1.363 . S
N296 C298 1.356 . S
N296 H308 0.984 . S
N296 H309 0.985 . S
N297 C299 1.356 . S
N297 H302 0.984 . S
N297 H303 0.985 . S
C298 C292 1.379 . S
C298 C295 1.363 . S
C298 N296 1.356 . S
C299 C293 1.363 . S
C299 C294 1.379 . S
C299 N297 1.356 . S
N300 C292 1.356 . S
N300 H306 0.984 . S
N300 H307 0.984 . S
N301 C294 1.356 . S
N301 H304 0.984 . S
N301 H305 0.985 . S
H302 N297 0.984 . S
H303 N297 0.985 . S
H304 N301 0.984 . S
H305 N301 0.985 . S
H306 N300 0.984 . S
H307 N300 0.984 . S
H308 N296 0.984 . S
H309 N296 0.985 . S
C310 C311 1.363 . S
C310 C316 1.379 . S
C310 N318 1.356 . S
C311 C310 1.363 . S
C311 C317 1.363 . S
C312 C313 1.363 . S
C312 C317 1.379 . S
C312 N319 1.356 . S
C313 C312 1.363 . S
C313 C316 1.363 . S
N314 C316 1.356 . S
N314 H326 0.984 . S
N314 H327 0.985 . S
N315 C317 1.356 . S
N315 H320 0.984 . S
N315 H321 0.985 . S
C316 C310 1.379 . S
C316 C313 1.363 . S
C316 N314 1.356 . S
C317 C311 1.363 . S
C317 C312 1.379 . S
C317 N315 1.356 . S
N318 C310 1.356 . S
N318 H324 0.984 . S
N318 H325 0.984 . S
N319 C312 1.356 . S
N319 H322 0.984 . S
N319 H323 0.985 . S
H320 N315 0.984 . S
H321 N315 0.985 . S
H322 N319 0.984 . S
H323 N319 0.985 . S
H324 N318 0.984 . S
H325 N318 0.984 . S
H326 N314 0.984 . S
H327 N314 0.985 . S
C328 C329 1.363 . S
C328 C334 1.379 . S
C328 N336 1.356 . S
C329 C328 1.363 . S
C329 C335 1.363 . S
C330 C331 1.363 . S
C330 C335 1.379 . S
C330 N337 1.356 . S
C331 C330 1.363 . S
C331 C334 1.363 . S
N332 C334 1.356 1_556 S
N332 H344 0.984 . S
N332 H345 0.985 . S
N333 C335 1.356 . S
N333 H338 0.984 . S
N333 H339 0.985 . S
C334 C328 1.379 . S
C334 C331 1.363 . S
C334 N332 1.356 1_554 S
C335 C329 1.363 . S
C335 C330 1.379 . S
C335 N333 1.356 . S
N336 C328 1.356 . S
N336 H342 0.984 1_554 S
N336 H343 0.984 . S
N337 C330 1.356 . S
N337 H340 0.984 . S
N337 H341 0.985 . S
H338 N333 0.984 . S
H339 N333 0.985 . S
H340 N337 0.984 . S
H341 N337 0.985 . S
H342 N336 0.984 1_556 S
H343 N336 0.984 . S
H344 N332 0.984 . S
H345 N332 0.985 . S
C346 C347 1.363 . S
C346 C352 1.379 . S
C346 N354 1.356 . S
C347 C346 1.363 . S
C347 C353 1.363 . S
C348 C349 1.363 . S
C348 C353 1.379 . S
C348 N355 1.356 . S
C349 C348 1.363 . S
C349 C352 1.363 . S
N350 C352 1.356 . S
N350 H362 0.984 . S
N350 H363 0.985 . S
N351 C353 1.356 . S
N351 H356 0.984 . S
N351 H357 0.985 . S
C352 C346 1.379 . S
C352 C349 1.363 . S
C352 N350 1.356 . S
C353 C347 1.363 . S
C353 C348 1.379 . S
C353 N351 1.356 . S
N354 C346 1.356 . S
N354 H360 0.984 . S
N354 H361 0.984 . S
N355 C348 1.356 . S
N355 H358 0.984 . S
N355 H359 0.985 . S
H356 N351 0.984 . S
H357 N351 0.985 . S
H358 N355 0.984 . S
H359 N355 0.985 . S
H360 N354 0.984 . S
H361 N354 0.984 . S
H362 N350 0.984 . S
H363 N350 0.985 . S
C364 C365 1.363 . S
C364 C370 1.379 . S
C364 N372 1.356 . S
C365 C364 1.363 . S
C365 C371 1.363 . S
C366 C367 1.363 . S
C366 C371 1.379 . S
C366 N373 1.356 . S
C367 C366 1.363 . S
C367 C370 1.363 . S
N368 C370 1.356 . S
N368 H380 0.984 . S
N368 H381 0.985 . S
N369 C371 1.356 . S
N369 H374 0.984 . S
N369 H375 0.985 . S
C370 C364 1.379 . S
C370 C367 1.363 . S
C370 N368 1.356 . S
C371 C365 1.363 . S
C371 C366 1.379 . S
C371 N369 1.356 . S
N372 C364 1.356 . S
N372 H378 0.984 . S
N372 H379 0.984 . S
N373 C366 1.356 . S
N373 H376 0.984 . S
N373 H377 0.985 . S
H374 N369 0.984 . S
H375 N369 0.985 . S
H376 N373 0.984 . S
H377 N373 0.985 . S
H378 N372 0.984 . S
H379 N372 0.984 . S
H380 N368 0.984 . S
H381 N368 0.985 . S
C382 C383 1.363 . S
C382 C388 1.379 . S
C382 N390 1.356 . S
C383 C382 1.363 . S
C383 C389 1.363 . S
C384 C385 1.363 . S
C384 C389 1.379 . S
C384 N391 1.356 . S
C385 C384 1.363 . S
C385 C388 1.363 . S
N386 C388 1.356 . S
N386 H398 0.984 . S
N386 H399 0.985 . S
N387 C389 1.356 . S
N387 H392 0.984 . S
N387 H393 0.985 . S
C388 C382 1.379 . S
C388 C385 1.363 . S
C388 N386 1.356 . S
C389 C383 1.363 . S
C389 C384 1.379 . S
C389 N387 1.356 . S
N390 C382 1.356 . S
N390 H396 0.984 . S
N390 H397 0.984 . S
N391 C384 1.356 . S
N391 H394 0.984 . S
N391 H395 0.985 . S
H392 N387 0.984 . S
H393 N387 0.985 . S
H394 N391 0.984 . S
H395 N391 0.985 . S
H396 N390 0.984 . S
H397 N390 0.984 . S
H398 N386 0.984 . S
H399 N386 0.985 . S
C400 C401 1.363 . S
C400 C406 1.379 . S
C400 N408 1.356 . S
C401 C400 1.363 . S
C401 C407 1.363 . S
C402 C403 1.363 . S
C402 C407 1.379 . S
C402 N409 1.356 . S
C403 C402 1.363 . S
C403 C406 1.363 . S
N404 C406 1.356 1_556 S
N404 H416 0.984 . S
N404 H417 0.985 . S
N405 C407 1.356 . S
N405 H410 0.984 . S
N405 H411 0.985 . S
C406 C400 1.379 . S
C406 C403 1.363 . S
C406 N404 1.356 1_554 S
C407 C401 1.363 . S
C407 C402 1.379 . S
C407 N405 1.356 . S
N408 C400 1.356 . S
N408 H414 0.984 1_554 S
N408 H415 0.984 . S
N409 C402 1.356 . S
N409 H412 0.984 . S
N409 H413 0.985 . S
H410 N405 0.984 . S
H411 N405 0.985 . S
H412 N409 0.984 . S
H413 N409 0.985 . S
H414 N408 0.984 1_556 S
H415 N408 0.984 . S
H416 N404 0.984 . S
H417 N404 0.985 . S
C418 C419 1.363 . S
C418 C424 1.379 . S
C418 N426 1.356 . S
C419 C418 1.363 . S
C419 C425 1.363 . S
C420 C421 1.363 . S
C420 C425 1.379 . S
C420 N427 1.356 . S
C421 C420 1.363 . S
C421 C424 1.363 . S
N422 C424 1.356 . S
N422 H434 0.984 . S
N422 H435 0.985 . S
N423 C425 1.356 . S
N423 H428 0.984 . S
N423 H429 0.985 . S
C424 C418 1.379 . S
C424 C421 1.363 . S
C424 N422 1.356 . S
C425 C419 1.363 . S
C425 C420 1.379 . S
C425 N423 1.356 . S
N426 C418 1.356 . S
N426 H432 0.984 . S
N426 H433 0.984 . S
N427 C420 1.356 . S
N427 H430 0.984 . S
N427 H431 0.985 . S
H428 N423 0.984 . S
H429 N423 0.985 . S
H430 N427 0.984 . S
H431 N427 0.985 . S
H432 N426 0.984 . S
H433 N426 0.984 . S
H434 N422 0.984 . S
H435 N422 0.985 . S
C436 C437 1.363 . S
C436 C442 1.379 . S
C436 N444 1.356 . S
C437 C436 1.363 . S
C437 C443 1.363 . S
C438 C439 1.363 . S
C438 C443 1.379 . S
C438 N445 1.356 . S
C439 C438 1.363 . S
C439 C442 1.363 . S
N440 C442 1.356 . S
N440 H452 0.984 . S
N440 H453 0.985 1_655 S
N441 C443 1.356 . S
N441 H446 0.984 . S
N441 H447 0.985 . S
C442 C436 1.379 . S
C442 C439 1.363 . S
C442 N440 1.356 . S
C443 C437 1.363 . S
C443 C438 1.379 . S
C443 N441 1.356 . S
N444 C436 1.356 . S
N444 H450 0.984 . S
N444 H451 0.984 . S
N445 C438 1.356 . S
N445 H448 0.984 . S
N445 H449 0.985 . S
H446 N441 0.984 . S
H447 N441 0.985 . S
H448 N445 0.984 . S
H449 N445 0.985 . S
H450 N444 0.984 . S
H451 N444 0.984 . S
H452 N440 0.984 . S
H453 N440 0.985 1_455 S
C454 C455 1.363 . S
C454 C460 1.379 . S
C454 N462 1.356 . S
C455 C454 1.363 . S
C455 C461 1.363 . S
C456 C457 1.363 . S
C456 C461 1.379 . S
C456 N463 1.356 . S
C457 C456 1.363 . S
C457 C460 1.363 . S
N458 C460 1.356 . S
N458 H470 0.984 . S
N458 H471 0.985 . S
N459 C461 1.356 . S
N459 H464 0.984 . S
N459 H465 0.985 . S
C460 C454 1.379 . S
C460 C457 1.363 . S
C460 N458 1.356 . S
C461 C455 1.363 . S
C461 C456 1.379 . S
C461 N459 1.356 . S
N462 C454 1.356 . S
N462 H468 0.984 . S
N462 H469 0.984 . S
N463 C456 1.356 . S
N463 H466 0.984 . S
N463 H467 0.985 . S
H464 N459 0.984 . S
H465 N459 0.985 . S
H466 N463 0.984 . S
H467 N463 0.985 . S
H468 N462 0.984 . S
H469 N462 0.984 . S
H470 N458 0.984 . S
H471 N458 0.985 . S
C472 C473 1.363 . S
C472 C478 1.379 . S
C472 N480 1.356 . S
C473 C472 1.363 . S
C473 C479 1.363 . S
C474 C475 1.363 . S
C474 C479 1.379 . S
C474 N481 1.356 1_565 S
C475 C474 1.363 . S
C475 C478 1.363 . S
N476 C478 1.356 . S
N476 H488 0.984 . S
N476 H489 0.985 . S
N477 C479 1.356 . S
N477 H482 0.984 . S
N477 H483 0.985 1_565 S
C478 C472 1.379 . S
C478 C475 1.363 . S
C478 N476 1.356 . S
C479 C473 1.363 . S
C479 C474 1.379 . S
C479 N477 1.356 . S
N480 C472 1.356 . S
N480 H486 0.984 . S
N480 H487 0.984 . S
N481 C474 1.356 1_545 S
N481 H484 0.984 . S
N481 H485 0.985 . S
H482 N477 0.984 . S
H483 N477 0.985 1_545 S
H484 N481 0.984 . S
H485 N481 0.985 . S
H486 N480 0.984 . S
H487 N480 0.984 . S
H488 N476 0.984 . S
H489 N476 0.985 . S
C490 C491 1.363 . S
C490 C496 1.379 . S
C490 N498 1.356 . S
C491 C490 1.363 . S
C491 C497 1.363 . S
C492 C493 1.363 . S
C492 C497 1.379 . S
C492 N499 1.356 . S
C493 C492 1.363 . S
C493 C496 1.363 . S
N494 C496 1.356 . S
N494 H506 0.984 . S
N494 H507 0.985 . S
N495 C497 1.356 . S
N495 H500 0.984 . S
N495 H501 0.985 . S
C496 C490 1.379 . S
C496 C493 1.363 . S
C496 N494 1.356 . S
C497 C491 1.363 . S
C497 C492 1.379 . S
C497 N495 1.356 . S
N498 C490 1.356 . S
N498 H504 0.984 . S
N498 H505 0.984 . S
N499 C492 1.356 . S
N499 H502 0.984 . S
N499 H503 0.985 . S
H500 N495 0.984 . S
H501 N495 0.985 . S
H502 N499 0.984 . S
H503 N499 0.985 . S
H504 N498 0.984 . S
H505 N498 0.984 . S
H506 N494 0.984 . S
H507 N494 0.985 . S
C508 C509 1.363 . S
C508 C514 1.379 . S
C508 N516 1.356 . S
C509 C508 1.363 . S
C509 C515 1.363 . S
C510 C511 1.363 . S
C510 C515 1.379 . S
C510 N517 1.356 . S
C511 C510 1.363 . S
C511 C514 1.363 . S
N512 C514 1.356 . S
N512 H524 0.984 . S
N512 H525 0.985 . S
N513 C515 1.356 . S
N513 H518 0.984 . S
N513 H519 0.985 . S
C514 C508 1.379 . S
C514 C511 1.363 . S
C514 N512 1.356 . S
C515 C509 1.363 . S
C515 C510 1.379 . S
C515 N513 1.356 . S
N516 C508 1.356 . S
N516 H522 0.984 . S
N516 H523 0.984 . S
N517 C510 1.356 . S
N517 H520 0.984 . S
N517 H521 0.985 . S
H518 N513 0.984 . S
H519 N513 0.985 . S
H520 N517 0.984 . S
H521 N517 0.985 . S
H522 N516 0.984 . S
H523 N516 0.984 . S
H524 N512 0.984 . S
H525 N512 0.985 . S
C526 C527 1.363 . S
C526 C532 1.379 . S
C526 N534 1.356 . S
C527 C526 1.363 . S
C527 C533 1.363 . S
C528 C529 1.363 . S
C528 C533 1.379 . S
C528 N535 1.356 . S
C529 C528 1.363 . S
C529 C532 1.363 . S
N530 C532 1.356 . S
N530 H542 0.984 . S
N530 H543 0.985 . S
N531 C533 1.356 . S
N531 H536 0.984 . S
N531 H537 0.985 . S
C532 C526 1.379 . S
C532 C529 1.363 . S
C532 N530 1.356 . S
C533 C527 1.363 . S
C533 C528 1.379 . S
C533 N531 1.356 . S
N534 C526 1.356 . S
N534 H540 0.984 . S
N534 H541 0.984 . S
N535 C528 1.356 . S
N535 H538 0.984 . S
N535 H539 0.985 . S
H536 N531 0.984 . S
H537 N531 0.985 . S
H538 N535 0.984 . S
H539 N535 0.985 . S
H540 N534 0.984 . S
H541 N534 0.984 . S
H542 N530 0.984 . S
H543 N530 0.985 . S
C544 C545 1.363 . S
C544 C550 1.379 . S
C544 N552 1.356 . S
C545 C544 1.363 . S
C545 C551 1.363 . S
C546 C547 1.363 . S
C546 C551 1.379 . S
C546 N553 1.356 . S
C547 C546 1.363 . S
C547 C550 1.363 . S
N548 C550 1.356 1_545 S
N548 H560 0.984 . S
N548 H561 0.985 . S
N549 C551 1.356 . S
N549 H554 0.984 . S
N549 H555 0.985 . S
C550 C544 1.379 . S
C550 C547 1.363 . S
C550 N548 1.356 1_565 S
C551 C545 1.363 . S
C551 C546 1.379 . S
C551 N549 1.356 . S
N552 C544 1.356 . S
N552 H558 0.984 1_565 S
N552 H559 0.984 . S
N553 C546 1.356 . S
N553 H556 0.984 . S
N553 H557 0.985 . S
H554 N549 0.984 . S
H555 N549 0.985 . S
H556 N553 0.984 . S
H557 N553 0.985 . S
H558 N552 0.984 1_545 S
H559 N552 0.984 . S
H560 N548 0.984 . S
H561 N548 0.985 . S
C562 C563 1.363 . S
C562 C568 1.379 . S
C562 N570 1.356 . S
C563 C562 1.363 . S
C563 C569 1.363 . S
C564 C565 1.363 . S
C564 C569 1.379 . S
C564 N571 1.356 . S
C565 C564 1.363 . S
C565 C568 1.363 . S
N566 C568 1.356 . S
N566 H578 0.984 . S
N566 H579 0.985 . S
N567 C569 1.356 . S
N567 H572 0.984 . S
N567 H573 0.985 . S
C568 C562 1.379 . S
C568 C565 1.363 . S
C568 N566 1.356 . S
C569 C563 1.363 . S
C569 C564 1.379 . S
C569 N567 1.356 . S
N570 C562 1.356 . S
N570 H576 0.984 . S
N570 H577 0.984 . S
N571 C564 1.356 . S
N571 H574 0.984 . S
N571 H575 0.985 . S
H572 N567 0.984 . S
H573 N567 0.985 . S
H574 N571 0.984 . S
H575 N571 0.985 . S
H576 N570 0.984 . S
H577 N570 0.984 . S
H578 N566 0.984 . S
H579 N566 0.985 . S
C580 C581 1.363 . S
C580 C586 1.379 . S
C580 N588 1.356 . S
C581 C580 1.363 . S
C581 C587 1.363 . S
C582 C583 1.363 . S
C582 C587 1.379 . S
C582 N589 1.356 . S
C583 C582 1.363 . S
C583 C586 1.363 . S
N584 C586 1.356 . S
N584 H596 0.984 . S
N584 H597 0.985 . S
N585 C587 1.356 . S
N585 H590 0.984 . S
N585 H591 0.985 . S
C586 C580 1.379 . S
C586 C583 1.363 . S
C586 N584 1.356 . S
C587 C581 1.363 . S
C587 C582 1.379 . S
C587 N585 1.356 . S
N588 C580 1.356 . S
N588 H594 0.984 . S
N588 H595 0.984 . S
N589 C582 1.356 . S
N589 H592 0.984 . S
N589 H593 0.994 . S
H590 N585 0.984 . S
H591 N585 0.985 . S
H592 N589 0.984 . S
H593 N589 0.994 . S
H594 N588 0.984 . S
H595 N588 0.984 . S
H596 N584 0.984 . S
H597 N584 0.985 . S
C598 C599 1.363 . S
C598 C604 1.379 . S
C598 N606 1.356 . S
C599 C598 1.363 . S
C599 C605 1.363 . S
C600 C601 1.363 . S
C600 C605 1.379 . S
C600 N607 1.356 . S
C601 C600 1.363 . S
C601 C604 1.363 . S
N602 C604 1.356 . S
N602 H614 0.984 . S
N602 H615 0.985 . S
N603 C605 1.356 . S
N603 H608 0.984 . S
N603 H609 0.985 . S
C604 C598 1.379 . S
C604 C601 1.363 . S
C604 N602 1.356 . S
C605 C599 1.363 . S
C605 C600 1.379 . S
C605 N603 1.356 . S
N606 C598 1.356 . S
N606 H612 0.984 . S
N606 H613 0.984 . S
N607 C600 1.356 . S
N607 H610 0.984 . S
N607 H611 0.985 . S
H608 N603 0.984 . S
H609 N603 0.985 . S
H610 N607 0.984 . S
H611 N607 0.985 . S
H612 N606 0.984 . S
H613 N606 0.984 . S
H614 N602 0.984 . S
H615 N602 0.985 . S
C616 C617 1.363 . S
C616 C622 1.379 . S
C616 N624 1.356 . S
C617 C616 1.363 . S
C617 C623 1.363 . S
C618 C619 1.363 . S
C618 C623 1.379 . S
C618 N625 1.356 1_656 S
C619 C618 1.363 . S
C619 C622 1.363 . S
N620 C622 1.356 . S
N620 H632 0.984 . S
N620 H633 0.985 . S
N621 C623 1.356 . S
N621 H626 0.984 . S
N621 H627 0.985 1_556 S
C622 C616 1.379 . S
C622 C619 1.363 . S
C622 N620 1.356 . S
C623 C617 1.363 . S
C623 C618 1.379 . S
C623 N621 1.356 . S
N624 C616 1.356 . S
N624 H630 0.984 . S
N624 H631 0.984 . S
N625 C618 1.356 1_454 S
N625 H628 0.984 . S
N625 H629 0.985 . S
H626 N621 0.984 . S
H627 N621 0.985 1_554 S
H628 N625 0.984 . S
H629 N625 0.985 . S
H630 N624 0.984 . S
H631 N624 0.984 . S
H632 N620 0.984 . S
H633 N620 0.985 . S
C634 C635 1.363 . S
C634 C640 1.379 . S
C634 N642 1.356 . S
C635 C634 1.363 . S
C635 C641 1.363 . S
C636 C637 1.363 . S
C636 C641 1.379 . S
C636 N643 1.356 . S
C637 C636 1.363 . S
C637 C640 1.363 . S
N638 C640 1.356 . S
N638 H650 0.984 . S
N638 H651 0.985 . S
N639 C641 1.356 . S
N639 H644 0.984 . S
N639 H645 0.985 . S
C640 C634 1.379 . S
C640 C637 1.363 . S
C640 N638 1.356 . S
C641 C635 1.363 . S
C641 C636 1.379 . S
C641 N639 1.356 . S
N642 C634 1.356 . S
N642 H648 0.984 . S
N642 H649 0.984 . S
N643 C636 1.356 . S
N643 H646 0.984 . S
N643 H647 0.985 . S
H644 N639 0.984 . S
H645 N639 0.985 . S
H646 N643 0.984 . S
H647 N643 0.985 . S
H648 N642 0.984 . S
H649 N642 0.984 . S
H650 N638 0.984 . S
H651 N638 0.985 . S
C652 C653 1.363 . S
C652 C658 1.379 . S
C652 N660 1.356 . S
C653 C652 1.363 . S
C653 C659 1.363 . S
C654 C655 1.363 . S
C654 C659 1.379 . S
C654 N661 1.356 . S
C655 C654 1.363 . S
C655 C658 1.363 . S
N656 C658 1.356 . S
N656 H668 0.984 . S
N656 H669 0.985 . S
N657 C659 1.356 . S
N657 H662 0.984 . S
N657 H663 0.985 . S
C658 C652 1.379 . S
C658 C655 1.363 . S
C658 N656 1.356 . S
C659 C653 1.363 . S
C659 C654 1.379 . S
C659 N657 1.356 . S
N660 C652 1.356 . S
N660 H666 0.984 . S
N660 H667 0.984 . S
N661 C654 1.356 . S
N661 H664 0.990 . S
N661 H665 0.985 . S
H662 N657 0.984 . S
H663 N657 0.985 . S
H664 N661 0.990 . S
H665 N661 0.985 . S
H666 N660 0.984 . S
H667 N660 0.984 . S
H668 N656 0.984 . S
H669 N656 0.985 . S
C670 C671 1.363 . S
C670 C676 1.379 . S
C670 N678 1.356 . S
C671 C670 1.363 . S
C671 C677 1.363 . S
C672 C673 1.363 . S
C672 C677 1.379 . S
C672 N679 1.356 . S
C673 C672 1.363 . S
C673 C676 1.363 . S
N674 C676 1.356 . S
N674 H686 0.984 . S
N674 H687 0.985 . S
N675 C677 1.356 . S
N675 H680 0.984 . S
N675 H681 0.985 . S
C676 C670 1.379 . S
C676 C673 1.363 . S
C676 N674 1.356 . S
C677 C671 1.363 . S
C677 C672 1.379 . S
C677 N675 1.356 . S
N678 C670 1.356 . S
N678 H684 0.984 . S
N678 H685 0.984 . S
N679 C672 1.356 . S
N679 H682 0.984 . S
N679 H683 0.985 . S
H680 N675 0.984 . S
H681 N675 0.985 . S
H682 N679 0.984 . S
H683 N679 0.985 . S
H684 N678 0.984 . S
H685 N678 0.984 . S
H686 N674 0.984 . S
H687 N674 0.985 . S
C257 C6 3.024 . S
C259 C115 2.988 . S
C275 C18 2.304 . S
C277 C146 2.423 . S
C295 C185 1.515 . S
C293 C28 1.480 . S
C311 C40 0.694 . S
C313 C222 0.701 . S
C331 C145 2.997 . S
C329 C9 3.113 . S
C349 C102 1.253 . S
C347 C16 1.267 . S
C367 C234 1.582 . S
C365 C30 1.634 . S
C385 C191 1.291 . S
C383 C42 1.258 . S
C401 C4 2.399 . S
C403 C235 2.393 . S
C421 C151 1.396 . S
C419 C33 1.415 . S
C437 C45 0.652 . S
C439 C114 0.834 . S
C455 C21 2.398 . S
C457 C186 2.384 . S
C475 C106 3.021 . S
C473 C57 3.075 . S
C491 C66 2.221 . S
C493 C155 2.389 . S
C509 C76 1.509 . S
C511 C194 1.516 . S
C527 C88 0.734 . S
C529 C231 0.729 . S
C545 C54 3.063 . S
C547 C154 2.936 . S
C565 C111 1.285 . S
C563 C64 1.303 . S
C583 C225 1.435 . S
C581 C78 1.494 . S
C601 C182 1.306 . S
C599 C93 1.324 . S
C617 C52 2.312 . S
C619 C226 2.331 1_655 S
C637 C142 1.391 . S
C635 C81 1.410 . S
C655 C105 0.786 . S
C653 C90 0.675 . S
C671 C69 2.422 . S
C673 C195 2.432 . S
