# Generated by pormake.
# Topology anh, (6,3)-cn, num edge types: 1
# Building blocks:
#     Node 0, Type 0, BuildingBlock: INOVEN_clean_sbu_0, # of connection points: 6
#     Node 1, Type 0, BuildingBlock: INOVEN_clean_sbu_0, # of connection points: 6
#     Node 2, Type 0, BuildingBlock: INOVEN_clean_sbu_0, # of connection points: 6
#     Node 3, Type 1, BuildingBlock: BETDAH_clean_linker_0, # of connection points: 3
#     Node 4, Type 1, BuildingBlock: BETDAH_clean_linker_0, # of connection points: 3
#     Node 5, Type 1, BuildingBlock: BETDAH_clean_linker_0, # of connection points: 3
#     Node 6, Type 1, BuildingBlock: BETDAH_clean_linker_0, # of connection points: 3
#     Node 7, Type 1, BuildingBlock: BETDAH_clean_linker_0, # of connection points: 3
#     Node 8, Type 1, BuildingBlock: BETDAH_clean_linker_0, # of connection points: 3
#     Edge 9, Type (0, 1), BuildingBlock: OJICUG_clean_linker_0, # of connection points: 2
#     Edge 10, Type (0, 1), BuildingBlock: OJICUG_clean_linker_0, # of connection points: 2
#     Edge 11, Type (0, 1), BuildingBlock: OJICUG_clean_linker_0, # of connection points: 2
#     Edge 12, Type (0, 1), BuildingBlock: OJICUG_clean_linker_0, # of connection points: 2
#     Edge 13, Type (0, 1), BuildingBlock: OJICUG_clean_linker_0, # of connection points: 2
#     Edge 14, Type (0, 1), BuildingBlock: OJICUG_clean_linker_0, # of connection points: 2
#     Edge 15, Type (0, 1), BuildingBlock: OJICUG_clean_linker_0, # of connection points: 2
#     Edge 16, Type (0, 1), BuildingBlock: OJICUG_clean_linker_0, # of connection points: 2
#     Edge 17, Type (0, 1), BuildingBlock: OJICUG_clean_linker_0, # of connection points: 2
#     Edge 18, Type (0, 1), BuildingBlock: OJICUG_clean_linker_0, # of connection points: 2
#     Edge 19, Type (0, 1), BuildingBlock: OJICUG_clean_linker_0, # of connection points: 2
#     Edge 20, Type (0, 1), BuildingBlock: OJICUG_clean_linker_0, # of connection points: 2
#     Edge 21, Type (0, 1), BuildingBlock: OJICUG_clean_linker_0, # of connection points: 2
#     Edge 22, Type (0, 1), BuildingBlock: OJICUG_clean_linker_0, # of connection points: 2
#     Edge 23, Type (0, 1), BuildingBlock: OJICUG_clean_linker_0, # of connection points: 2
#     Edge 24, Type (0, 1), BuildingBlock: OJICUG_clean_linker_0, # of connection points: 2
#     Edge 25, Type (0, 1), BuildingBlock: OJICUG_clean_linker_0, # of connection points: 2
#     Edge 26, Type (0, 1), BuildingBlock: OJICUG_clean_linker_0, # of connection points: 2
# Relax obj value: 0.206
# Max RMSD: 0.218
# Mean RMSD: 0.120
data_MOF--net-anh--node1-INOVEN_clean_sbu_0--node2-BETDAH_clean_linker_0--edge1-OJICUG_clean_linker_0
_symmetry_space_group_name_H-M    P1
_symmetry_Int_Tables_number       1
_symmetry_cell_setting            triclinic
loop_
_symmetry_equiv_pos_as_xyz
'x, y, z'
_cell_length_a     22.570312
_cell_length_b     29.846302
_cell_length_c     35.549168
_cell_angle_alpha  94.381109
_cell_angle_beta   88.931968
_cell_angle_gamma 133.06413
loop_
_atom_site_label
_atom_site_type_symbol
_atom_site_fract_x
_atom_site_fract_y
_atom_site_fract_z
_atom_type_partial_charge
Gd0 Gd 0.26139 0.60099 0.15083 0.0
Gd1 Gd 0.14552 0.61281 0.18021 0.0
C2 C 0.33165 0.73857 0.16898 0.0
C3 C 0.351 0.59143 0.11283 0.0
C4 C 0.34539 0.53963 0.1057 0.0
C5 C 0.27614 0.4811 0.11584 0.0
C6 C 0.40746 0.54766 0.08782 0.0
C7 C 0.33033 0.43852 0.08966 0.0
C8 C 0.40017 0.49743 0.07998 0.0
C9 C 0.26833 0.43078 0.10764 0.0
C10 C 0.2396 0.59316 0.22603 0.0
C11 C 1.08066 0.47842 0.16694 0.0
C12 C 1.05349 0.62199 0.21527 0.0
C13 C 0.96412 0.57451 0.2149 0.0
C14 C 0.91931 0.5866 0.20042 0.0
C15 C 0.92409 0.51349 0.22092 0.0
C16 C 0.80144 0.47664 0.18984 0.0
C17 C 0.84344 0.46496 0.20839 0.0
C18 C 0.83833 0.53794 0.18802 0.0
C19 C 0.12915 0.58103 0.10483 0.0
O20 O 0.34628 0.70473 0.15473 0.0
O21 O 0.25969 0.71347 0.18138 0.0
O22 O 0.29107 0.58256 0.09744 0.0
O23 O 0.36979 0.61598 0.14779 0.0
O24 O 0.24855 0.5604 0.20552 0.0
O25 O 0.24631 0.62933 0.20622 0.0
O26 O 1.07718 0.51404 0.18916 0.0
O27 O 0.14091 0.50248 0.14396 0.0
O28 O 1.08383 0.64519 0.18283 0.0
O29 O 1.09083 0.6089 0.23196 0.0
O30 O 1.06866 0.55872 0.12613 0.0
O31 O 0.19475 0.62034 0.12412 0.0
H32 H 0.2279 0.47428 0.12993 0.0
H33 H 0.46112 0.59252 0.07973 0.0
H34 H 0.44858 0.50443 0.06584 0.0
H35 H 0.21441 0.38606 0.11575 0.0
H36 H 0.94886 0.63316 0.19548 0.0
H37 H 0.9567 0.50252 0.23228 0.0
H38 H 0.81602 0.41814 0.2105 0.0
H39 H 0.80743 0.54827 0.17365 0.0
Gd40 Gd 0.79259 0.10254 0.4832 0.0
Gd41 Gd 0.67452 0.11486 0.4732 0.0
C42 C 0.60089 0.97997 0.46876 0.0
C43 C 0.86832 0.07221 0.5061 0.0
C44 C 0.84298 0.01631 0.51971 0.0
C45 C 0.89222 1.00384 0.51421 0.0
C46 C 0.76778 0.97346 0.53615 0.0
C47 C 0.78948 0.90443 0.53959 0.0
C48 C 0.74124 0.91796 0.546 0.0
C49 C 0.86584 0.94841 0.52411 0.0
C50 C 0.77135 0.11451 0.41123 0.0
C51 C 0.87025 0.23909 0.48109 0.0
C52 C 0.5976 0.14682 0.45674 0.0
C53 C 0.60557 0.19753 0.47311 0.0
C54 C 0.63062 0.21933 0.51123 0.0
C55 C 0.59187 0.22631 0.45045 0.0
C56 C 0.62711 0.29791 0.50412 0.0
C57 C 0.60268 0.27618 0.46579 0.0
C58 C 0.64071 0.26868 0.52664 0.0
C59 C 0.69377 0.10149 0.54497 0.0
O60 O 0.66918 1.00526 0.48728 0.0
O61 O 0.59411 1.0151 0.45311 0.0
O62 O 0.84986 0.06772 0.47052 0.0
O63 O 0.8546 0.10122 0.52813 0.0
O64 O 0.84097 0.13894 0.42605 0.0
O65 O 0.71642 0.08242 0.4342 0.0
O66 O 0.79565 0.21389 0.47223 0.0
O67 O 0.88484 0.20533 0.49028 0.0
O68 O 0.56962 0.10367 0.47899 0.0
O69 O 0.65958 0.16332 0.43815 0.0
O70 O 0.62504 0.07672 0.52928 0.0
O71 O 0.75022 0.1352 0.52282 0.0
H72 H 0.95023 0.0363 0.50136 0.0
H73 H 0.72893 0.98237 0.54074 0.0
H74 H 0.6825 0.8853 0.55819 0.0
H75 H 0.90391 0.93904 0.51826 0.0
H76 H 0.64256 0.19822 0.52915 0.0
H77 H 0.57363 0.21062 0.42085 0.0
H78 H 0.593 0.29822 0.44745 0.0
H79 H 0.65839 0.28347 0.55634 0.0
Gd80 Gd 0.70827 0.61919 0.85793 0.0
Gd81 Gd 0.57976 0.48266 0.84812 0.0
C82 C 0.51391 0.54915 0.85776 0.0
C83 C 0.79827 0.735 0.85009 0.0
C84 C 0.78475 0.77319 0.83721 0.0
C85 C 0.84098 0.83653 0.84786 0.0
C86 C 0.71638 0.74704 0.81408 0.0
C87 C 0.76049 0.84755 0.81256 0.0
C88 C 0.70437 0.78387 0.80184 0.0
C89 C 0.82901 0.87341 0.83568 0.0
C90 C 0.66505 0.56161 0.92179 0.0
C91 C 0.77537 0.55291 0.85528 0.0
C92 C 0.49768 0.3671 0.85013 0.0
C93 C 0.51688 0.33059 0.83606 0.0
C94 C 0.54529 0.33611 0.79959 0.0
C95 C 0.51377 0.29406 0.86021 0.0
C96 C 0.56834 0.26978 0.8118 0.0
C97 C 0.5393 0.26396 0.84824 0.0
C98 C 0.57022 0.30577 0.78755 0.0
C99 C 0.62153 0.53745 0.78316 0.0
O100 O 0.58961 0.59872 0.84974 0.0
O101 O 0.49644 0.49803 0.86415 0.0
O102 O 0.76715 0.71093 0.88214 0.0
O103 O 0.78779 0.6963 0.82414 0.0
O104 O 0.73988 0.60943 0.91512 0.0
O105 O 0.61862 0.54915 0.89535 0.0
O106 O 0.69708 0.50122 0.85493 0.0
O107 O 0.79658 0.60647 0.85369 0.0
O108 O 0.48357 0.38852 0.82458 0.0
O109 O 0.54405 0.40768 0.87865 0.0
O110 O 0.54787 0.48979 0.79084 0.0
O111 O 0.67015 0.55243 0.80955 0.0
H112 H 0.89398 0.85743 0.86576 0.0
H113 H 0.67235 0.69816 0.80541 0.0
H114 H 0.65136 0.76251 0.78383 0.0
H115 H 0.87266 0.92202 0.84507 0.0
H116 H 0.54952 0.36467 0.78046 0.0
H117 H 0.49333 0.28996 0.88865 0.0
H118 H 0.53804 0.23734 0.86786 0.0
H119 H 0.59091 0.31053 0.75913 0.0
H120 H 0.5915 0.98554 0.25952 0.0
H121 H 0.79197 0.17272 0.23493 0.0
H122 H 0.63442 0.03177 0.14456 0.0
C123 C 0.62619 0.01984 0.23928 0.0
C124 C 0.60413 1.00134 0.20074 0.0
C125 C 0.69411 0.08129 0.25192 0.0
C126 C 0.73999 0.1252 0.22532 0.0
C127 C 0.71816 0.10758 0.18646 0.0
C128 C 0.651 0.04544 0.17444 0.0
N129 N 0.7618 0.15064 0.15862 0.0
C130 C 0.82545 0.21424 0.16585 0.0
H131 H 0.67487 0.48711 0.62731 0.0
H132 H 0.67188 0.62762 0.61359 0.0
H133 H 0.65484 0.52434 0.51608 0.0
C134 C 0.67431 0.51434 0.60907 0.0
C135 C 0.66557 0.50065 0.56977 0.0
C136 C 0.67576 0.55966 0.62507 0.0
C137 C 0.67183 0.59323 0.60131 0.0
C138 C 0.66521 0.58075 0.56186 0.0
C139 C 0.66117 0.53421 0.54649 0.0
N140 N 0.65925 0.61216 0.53661 0.0
C141 C 0.68011 0.66752 0.54606 0.0
H142 H 1.00077 0.5518 0.94353 0.0
H143 H 0.19499 0.55635 0.92916 0.0
H144 H 1.0783 0.55197 0.83213 0.0
C145 C 1.03945 0.55158 0.92514 0.0
C146 C 1.03071 0.55089 0.88605 0.0
C147 C 1.09869 0.55416 0.94103 0.0
C148 C 0.15018 0.55514 0.91708 0.0
C149 C 0.14356 0.55396 0.87766 0.0
C150 C 1.08384 0.5525 0.86239 0.0
N151 N 0.1953 0.55426 0.85277 0.0
C152 C 0.2565 0.55435 0.86185 0.0
H153 H 0.35618 0.72792 0.38001 0.0
H154 H 0.17812 0.53903 0.40598 0.0
H155 H 0.32 0.68533 0.49559 0.0
C156 C 0.32417 0.69418 0.4007 0.0
C157 C 0.34466 0.71444 0.43911 0.0
C158 C 0.26438 0.6313 0.38841 0.0
C159 C 0.22469 0.58757 0.4153 0.0
C160 C 0.24444 0.60698 0.45419 0.0
C161 C 0.30513 0.67039 0.46574 0.0
N162 N 0.20437 0.56464 0.48256 0.0
C163 C 0.1391 0.50107 0.4764 0.0
H164 H 0.68358 0.16826 0.70126 0.0
H165 H 0.71939 0.04702 0.71914 0.0
H166 H 0.66751 0.11449 0.8126 0.0
C167 C 0.6887 0.14432 0.72039 0.0
C168 C 0.6735 0.1458 0.7587 0.0
C169 C 0.70518 0.10881 0.70602 0.0
C170 C 0.70804 0.07523 0.73037 0.0
C171 C 0.69538 0.07811 0.76912 0.0
C172 C 0.67808 0.11315 0.78282 0.0
N173 N 0.69786 0.04596 0.79546 0.0
C174 C 0.71023 1.00668 0.78732 0.0
H175 H 0.65934 0.4219 0.04846 0.0
H176 H 0.43226 0.29796 0.98362 0.0
H177 H 0.45648 0.24738 0.08786 0.0
C178 C 0.59861 0.37687 0.04305 0.0
C179 C 0.56505 0.33417 0.07006 0.0
C180 C 0.55142 0.36476 0.01171 0.0
C181 C 0.47098 0.30741 0.00675 0.0
C182 C 0.43656 0.26466 0.03397 0.0
C183 C 0.48437 0.27792 0.06537 0.0
N184 N 0.35123 0.2202 0.03616 0.0
C185 C 0.31741 0.24344 0.04851 0.0
C186 C 0.25174 0.32945 0.06366 0.0
C187 C 0.3229 0.38554 0.08141 0.0
H188 H 0.19377 0.23894 0.03886 0.0
C189 C 0.38831 0.39149 0.09051 0.0
H190 H 0.20065 0.32397 0.05621 0.0
C191 C 0.3837 0.34304 0.08113 0.0
C192 C 0.31397 0.28803 0.06236 0.0
H193 H 0.44336 0.43387 0.10456 0.0
H194 H 0.43588 0.34937 0.08756 0.0
C195 C 0.24755 0.28095 0.05386 0.0
C196 C 0.92638 0.34445 0.46997 0.0
C197 C 0.93949 0.30674 0.47956 0.0
H198 H 0.9801 0.43608 0.46117 0.0
C199 C 1.01991 0.33424 0.4868 0.0
H200 H 0.86549 0.32506 0.46411 0.0
C201 C 1.08521 0.39764 0.48483 0.0
C202 C 1.07167 0.43489 0.47549 0.0
H203 H 1.03262 0.30686 0.49412 0.0
H204 H 0.14634 0.41767 0.49105 0.0
C205 C 0.9919 0.40795 0.46805 0.0
C206 C 0.81113 0.94712 0.79174 0.0
C207 C 0.74609 0.88653 0.80114 0.0
H208 H 0.85012 0.03305 0.7794 0.0
C209 C 0.66769 0.86468 0.80171 0.0
H210 H 0.87201 0.96511 0.79047 0.0
C211 C 0.65535 0.90336 0.79484 0.0
C212 C 0.72097 0.96433 0.78716 0.0
H213 H 0.61638 0.81863 0.80926 0.0
H214 H 0.59512 0.88642 0.79723 0.0
C215 C 0.79864 0.98578 0.78495 0.0
C216 C 0.72927 0.38959 0.13978 0.0
C217 C 0.72793 0.42692 0.16577 0.0
H218 H 0.67709 0.33003 0.08844 0.0
C219 C 0.66311 0.42375 0.16358 0.0
H220 H 0.77922 0.39182 0.14046 0.0
C221 C 0.60447 0.38785 0.13402 0.0
C222 C 0.61035 0.35512 0.10629 0.0
H223 H 0.66079 0.45204 0.18325 0.0
H224 H 0.55826 0.38948 0.13115 0.0
C225 C 0.67114 0.3543 0.11 0.0
C226 C 0.53638 0.87272 0.48134 0.0
C227 C 0.53294 0.91178 0.46386 0.0
H228 H 0.47897 0.77948 0.48768 0.0
C229 C 0.46424 0.88496 0.44068 0.0
H230 H 0.58815 0.89175 0.49955 0.0
C231 C 0.40217 0.82102 0.43397 0.0
C232 C 0.40663 0.78193 0.45038 0.0
H233 H 0.459 0.91335 0.42694 0.0
H234 H 0.35097 0.80201 0.41529 0.0
C235 C 0.47361 0.80839 0.4748 0.0
C236 C 0.55613 0.17926 0.80902 0.0
C237 C 0.59685 0.23872 0.79905 0.0
H238 H 0.54815 0.10333 0.8039 0.0
C239 C 0.66435 0.26794 0.77628 0.0
H240 H 0.50322 0.15495 0.82598 0.0
C241 C 0.68956 0.23802 0.76332 0.0
C242 C 0.64844 0.1785 0.77315 0.0
H243 H 0.6982 0.31419 0.76865 0.0
H244 H 0.74168 0.26165 0.74584 0.0
C245 C 0.58177 0.14959 0.79631 0.0
C246 C 0.67764 0.78939 0.53518 0.0
C247 C 0.7582 0.84307 0.5463 0.0
H248 H 0.58964 0.69075 0.52671 0.0
C249 C 0.81 0.83731 0.56102 0.0
H250 H 0.63652 0.79218 0.52328 0.0
C251 C 0.78296 0.77921 0.56283 0.0
C252 C 0.70382 0.72625 0.55012 0.0
H253 H 0.87204 0.87776 0.57024 0.0
H254 H 0.82471 0.77578 0.57283 0.0
C255 C 0.65078 0.73141 0.53702 0.0
C256 C 0.92397 0.60321 0.85535 0.0
C257 C 0.84072 0.55078 0.85917 0.0
H258 H 1.04811 0.64413 0.85958 0.0
C259 C 0.82129 0.49694 0.86849 0.0
H260 H 0.9424 0.64579 0.84836 0.0
C261 C 0.88241 0.49625 0.87508 0.0
C262 C 0.96556 0.54886 0.87183 0.0
H263 H 0.75863 0.45551 0.87199 0.0
H264 H 0.86465 0.45467 0.88386 0.0
C265 C 0.98506 0.60219 0.86144 0.0
C266 C 0.39204 0.84221 0.19807 0.0
C267 C 0.39933 0.80683 0.17378 0.0
H268 H 0.45094 0.93114 0.22547 0.0
C269 C 0.47317 0.83714 0.15599 0.0
H270 H 0.33633 0.82067 0.21233 0.0
C271 C 0.53872 0.90097 0.16319 0.0
C272 C 0.53216 0.93554 0.1888 0.0
H273 H 0.48086 0.81142 0.13702 0.0
H274 H 0.59556 0.92285 0.14998 0.0
C275 C 0.45776 0.90558 0.2057 0.0
C276 C 0.70074 0.39423 0.54795 0.0
C277 C 0.63788 0.3505 0.5207 0.0
H278 H 0.75872 0.47598 0.58484 0.0
C279 C 0.58459 0.35691 0.5098 0.0
H280 H 0.74376 0.39137 0.55657 0.0
C281 C 0.59399 0.40581 0.52565 0.0
C282 C 0.65647 0.44916 0.55297 0.0
H283 H 0.53459 0.32354 0.4895 0.0
H284 H 0.55139 0.4091 0.51699 0.0
C285 C 0.70961 0.44283 0.56408 0.0
C286 C 0.46428 0.60474 0.85333 0.0
C287 C 0.4481 0.55122 0.86008 0.0
H288 H 0.41774 0.64788 0.84887 0.0
C289 C 0.36766 0.49947 0.86895 0.0
H290 H 0.52472 0.64573 0.8464 0.0
C291 C 0.30611 0.50095 0.87054 0.0
C292 C 0.32243 0.55426 0.8635 0.0
H293 H 0.35174 0.45723 0.8744 0.0
H294 H 0.24516 0.45979 0.87678 0.0
C295 C 0.40266 0.60614 0.85494 0.0
C296 C 1.02046 0.37154 0.14576 0.0
C297 C 1.01585 0.41028 0.16776 0.0
H298 H 0.96344 0.27868 0.12834 0.0
C299 C 0.94831 0.38306 0.1903 0.0
H300 H 1.07132 0.39061 0.12808 0.0
C301 C 0.88662 0.31881 0.1904 0.0
C302 C 0.89149 0.28066 0.16814 0.0
H303 H 0.94251 0.41128 0.20757 0.0
H304 H 0.83465 0.29897 0.20746 0.0
C305 C 0.95889 0.30741 0.14597 0.0
C306 C 0.19164 0.60534 0.04146 0.0
C307 C 1.12219 0.57094 0.06303 0.0
H308 H 0.23887 0.62725 0.9861 0.0
C309 C 1.0454 0.52828 0.04424 0.0
H310 H 0.25168 0.63865 0.05518 0.0
C311 C 1.03799 0.52152 0.00475 0.0
C312 C 1.10725 0.55734 0.983 0.0
H313 H 0.99077 0.50074 0.06008 0.0
H314 H 0.97776 0.48855 0.99122 0.0
C315 C 0.18427 0.59857 0.00187 0.0
C316 C 0.81618 0.13964 0.34479 0.0
C317 C 0.75479 0.11296 0.37091 0.0
H318 H 0.84515 0.15075 0.28635 0.0
C319 C 0.67547 0.08162 0.35794 0.0
H320 H 0.87797 0.16439 0.3541 0.0
C321 C 0.65687 0.07417 0.31943 0.0
C322 C 0.71714 0.09785 0.29296 0.0
H323 H 0.62709 0.06129 0.37747 0.0
H324 H 0.59464 0.04835 0.31024 0.0
C325 C 0.79752 0.1322 0.30609 0.0
C326 C 0.71457 0.57071 0.73001 0.0
C327 C 0.64435 0.55478 0.74424 0.0
H328 H 0.77927 0.58411 0.68039 0.0
C329 C 0.59031 0.54811 0.71971 0.0
H330 H 0.75686 0.57573 0.7484 0.0
C331 C 0.60404 0.55427 0.68119 0.0
C332 C 0.67109 0.56582 0.66645 0.0
H333 H 0.53578 0.53583 0.73014 0.0
H334 H 0.55955 0.54621 0.66259 0.0
C335 C 0.72726 0.57533 0.69123 0.0
C336 C 0.63851 0.04925 0.60417 0.0
C337 C 0.70397 0.09991 0.58554 0.0
H338 H 0.58921 1.01193 0.65733 0.0
C339 C 0.77469 0.15051 0.60666 0.0
H340 H 0.58345 1.00962 0.58842 0.0
C341 C 0.77732 0.15217 0.64617 0.0
C342 C 0.71028 0.10248 0.66479 0.0
H343 H 0.82575 0.19019 0.5929 0.0
H344 H 0.83017 0.19318 0.66228 0.0
C345 C 0.64191 0.05031 0.64345 0.0
C346 C 0.5587 0.47304 0.95779 0.0
C347 C 0.63975 0.5154 0.9475 0.0
H348 H 0.46771 0.39311 0.98646 0.0
C349 C 0.69227 0.50828 0.95819 0.0
H350 H 0.51703 0.47755 0.94965 0.0
C351 C 0.66338 0.45856 0.97831 0.0
C352 C 0.58173 0.41556 0.98833 0.0
H353 H 0.75468 0.53975 0.94988 0.0
H354 H 0.70468 0.45338 0.98564 0.0
C355 C 0.53013 0.42398 0.97821 0.0
C356 C 0.23283 0.63788 0.28588 0.0
C357 C 0.23568 0.59607 0.26758 0.0
H358 H 0.23656 0.6799 0.3383 0.0
C359 C 0.23892 0.56041 0.28944 0.0
H360 H 0.23038 0.66607 0.26988 0.0
C361 C 0.24354 0.56898 0.32907 0.0
C362 C 0.24496 0.6133 0.34721 0.0
H363 H 0.24084 0.52764 0.27598 0.0
H364 H 0.25006 0.54326 0.3454 0.0
C365 C 0.2368 0.64605 0.32514 0.0
loop_
_geom_bond_atom_site_label_1
_geom_bond_atom_site_label_2
_geom_bond_distance
_geom_bond_site_symmetry_2
_ccdc_geom_bond_type
Gd0 C3 2.818 . S
Gd0 O20 2.377 . S
Gd0 O22 2.448 . S
Gd0 O23 2.506 . S
Gd0 O24 2.435 . S
Gd0 O25 2.717 . S
Gd0 O27 2.395 1_455 S
Gd0 O31 2.327 . S
Gd1 C12 2.818 1_455 S
Gd1 O21 2.395 . S
Gd1 O25 2.327 . S
Gd1 O26 2.377 1_455 S
Gd1 O28 2.448 1_455 S
Gd1 O29 2.506 1_455 S
Gd1 O30 2.435 . S
Gd1 O31 2.717 . S
C2 O20 1.240 . S
C2 O21 1.240 . S
C3 Gd0 2.818 . S
C3 C4 1.510 . S
C3 O22 1.249 . S
C3 O23 1.252 . S
C4 C3 1.510 . S
C4 C5 1.404 . S
C4 C6 1.352 . S
C5 C4 1.404 . S
C5 C9 1.389 . S
C5 H32 0.930 . S
C6 C4 1.352 . S
C6 C8 1.374 . S
C6 H33 0.931 . S
C7 C8 1.359 . S
C7 C9 1.364 . S
C8 C6 1.374 . S
C8 C7 1.359 . S
C8 H34 0.931 . S
C9 C5 1.389 . S
C9 C7 1.364 . S
C9 H35 0.931 . S
C10 O24 1.256 . S
C10 O25 1.257 . S
C11 O26 1.240 . S
C11 O27 1.240 . S
C12 Gd1 2.818 1_655 S
C12 C13 1.510 . S
C12 O28 1.249 . S
C12 O29 1.252 . S
C13 C12 1.510 . S
C13 C14 1.404 . S
C13 C15 1.352 . S
C14 C13 1.404 . S
C14 C18 1.389 . S
C14 H36 0.930 . S
C15 C13 1.352 . S
C15 C17 1.374 . S
C15 H37 0.931 . S
C16 C17 1.359 . S
C16 C18 1.364 . S
C17 C15 1.374 . S
C17 C16 1.359 . S
C17 H38 0.931 . S
C18 C14 1.389 . S
C18 C16 1.364 . S
C18 H39 0.931 . S
C19 O30 1.256 . S
C19 O31 1.257 . S
O20 Gd0 2.377 . S
O20 C2 1.240 . S
O21 Gd1 2.395 . S
O21 C2 1.240 . S
O22 Gd0 2.448 . S
O22 C3 1.249 . S
O23 Gd0 2.506 . S
O23 C3 1.252 . S
O24 Gd0 2.435 . S
O24 C10 1.256 . S
O25 Gd0 2.717 . S
O25 Gd1 2.327 . S
O25 C10 1.257 . S
O26 Gd1 2.377 1_655 S
O26 C11 1.240 . S
O27 Gd0 2.395 1_655 S
O27 C11 1.240 . S
O28 Gd1 2.448 1_655 S
O28 C12 1.249 . S
O29 Gd1 2.506 1_655 S
O29 C12 1.252 . S
O30 Gd1 2.435 . S
O30 C19 1.256 . S
O31 Gd0 2.327 . S
O31 Gd1 2.717 . S
O31 C19 1.257 . S
H32 C5 0.930 . S
H33 C6 0.931 . S
H34 C8 0.931 . S
H35 C9 0.931 . S
H36 C14 0.930 . S
H37 C15 0.931 . S
H38 C17 0.931 . S
H39 C18 0.931 . S
Gd40 C43 2.818 1_545 S
Gd40 O60 2.377 1_545 S
Gd40 O62 2.448 1_545 S
Gd40 O63 2.506 1_545 S
Gd40 O64 2.435 . S
Gd40 O65 2.717 . S
Gd40 O67 2.395 . S
Gd40 O71 2.327 . S
Gd41 C52 2.818 . S
Gd41 O61 2.395 1_545 S
Gd41 O65 2.327 . S
Gd41 O66 2.377 . S
Gd41 O68 2.448 . S
Gd41 O69 2.506 . S
Gd41 O70 2.435 . S
Gd41 O71 2.717 . S
C42 O60 1.240 . S
C42 O61 1.240 . S
C43 Gd40 2.818 1_565 S
C43 C44 1.510 . S
C43 O62 1.249 . S
C43 O63 1.252 . S
C44 C43 1.510 . S
C44 C45 1.404 . S
C44 C46 1.352 . S
C45 C44 1.404 . S
C45 C49 1.389 . S
C45 H72 0.930 . S
C46 C44 1.352 . S
C46 C48 1.374 . S
C46 H73 0.931 . S
C47 C48 1.359 . S
C47 C49 1.364 . S
C48 C46 1.374 . S
C48 C47 1.359 . S
C48 H74 0.931 . S
C49 C45 1.389 . S
C49 C47 1.364 . S
C49 H75 0.931 . S
C50 O64 1.256 . S
C50 O65 1.257 . S
C51 O66 1.240 . S
C51 O67 1.240 . S
C52 Gd41 2.818 . S
C52 C53 1.510 . S
C52 O68 1.249 . S
C52 O69 1.252 . S
C53 C52 1.510 . S
C53 C54 1.404 . S
C53 C55 1.352 . S
C54 C53 1.404 . S
C54 C58 1.389 . S
C54 H76 0.930 . S
C55 C53 1.352 . S
C55 C57 1.374 . S
C55 H77 0.931 . S
C56 C57 1.359 . S
C56 C58 1.364 . S
C57 C55 1.374 . S
C57 C56 1.359 . S
C57 H78 0.931 . S
C58 C54 1.389 . S
C58 C56 1.364 . S
C58 H79 0.931 . S
C59 O70 1.256 . S
C59 O71 1.257 . S
O60 Gd40 2.377 1_565 S
O60 C42 1.240 . S
O61 Gd41 2.395 1_565 S
O61 C42 1.240 . S
O62 Gd40 2.448 1_565 S
O62 C43 1.249 . S
O63 Gd40 2.506 1_565 S
O63 C43 1.252 . S
O64 Gd40 2.435 . S
O64 C50 1.256 . S
O65 Gd40 2.717 . S
O65 Gd41 2.327 . S
O65 C50 1.257 . S
O66 Gd41 2.377 . S
O66 C51 1.240 . S
O67 Gd40 2.395 . S
O67 C51 1.240 . S
O68 Gd41 2.448 . S
O68 C52 1.249 . S
O69 Gd41 2.506 . S
O69 C52 1.252 . S
O70 Gd41 2.435 . S
O70 C59 1.256 . S
O71 Gd40 2.327 . S
O71 Gd41 2.717 . S
O71 C59 1.257 . S
H72 C45 0.930 . S
H73 C46 0.931 . S
H74 C48 0.931 . S
H75 C49 0.931 . S
H76 C54 0.930 . S
H77 C55 0.931 . S
H78 C57 0.931 . S
H79 C58 0.931 . S
Gd80 C83 2.818 . S
Gd80 O100 2.377 . S
Gd80 O102 2.448 . S
Gd80 O103 2.506 . S
Gd80 O104 2.435 . S
Gd80 O105 2.717 . S
Gd80 O107 2.395 . S
Gd80 O111 2.327 . S
Gd81 C92 2.818 . S
Gd81 O101 2.395 . S
Gd81 O105 2.327 . S
Gd81 O106 2.377 . S
Gd81 O108 2.448 . S
Gd81 O109 2.506 . S
Gd81 O110 2.435 . S
Gd81 O111 2.717 . S
C82 O100 1.240 . S
C82 O101 1.240 . S
C83 Gd80 2.818 . S
C83 C84 1.510 . S
C83 O102 1.249 . S
C83 O103 1.252 . S
C84 C83 1.510 . S
C84 C85 1.404 . S
C84 C86 1.352 . S
C85 C84 1.404 . S
C85 C89 1.389 . S
C85 H112 0.930 . S
C86 C84 1.352 . S
C86 C88 1.374 . S
C86 H113 0.931 . S
C87 C88 1.359 . S
C87 C89 1.364 . S
C88 C86 1.374 . S
C88 C87 1.359 . S
C88 H114 0.931 . S
C89 C85 1.389 . S
C89 C87 1.364 . S
C89 H115 0.931 . S
C90 O104 1.256 . S
C90 O105 1.257 . S
C91 O106 1.240 . S
C91 O107 1.240 . S
C92 Gd81 2.818 . S
C92 C93 1.510 . S
C92 O108 1.249 . S
C92 O109 1.252 . S
C93 C92 1.510 . S
C93 C94 1.404 . S
C93 C95 1.352 . S
C94 C93 1.404 . S
C94 C98 1.389 . S
C94 H116 0.930 . S
C95 C93 1.352 . S
C95 C97 1.374 . S
C95 H117 0.931 . S
C96 C97 1.359 . S
C96 C98 1.364 . S
C97 C95 1.374 . S
C97 C96 1.359 . S
C97 H118 0.931 . S
C98 C94 1.389 . S
C98 C96 1.364 . S
C98 H119 0.931 . S
C99 O110 1.256 . S
C99 O111 1.257 . S
O100 Gd80 2.377 . S
O100 C82 1.240 . S
O101 Gd81 2.395 . S
O101 C82 1.240 . S
O102 Gd80 2.448 . S
O102 C83 1.249 . S
O103 Gd80 2.506 . S
O103 C83 1.252 . S
O104 Gd80 2.435 . S
O104 C90 1.256 . S
O105 Gd80 2.717 . S
O105 Gd81 2.327 . S
O105 C90 1.257 . S
O106 Gd81 2.377 . S
O106 C91 1.240 . S
O107 Gd80 2.395 . S
O107 C91 1.240 . S
O108 Gd81 2.448 . S
O108 C92 1.249 . S
O109 Gd81 2.506 . S
O109 C92 1.252 . S
O110 Gd81 2.435 . S
O110 C99 1.256 . S
O111 Gd80 2.327 . S
O111 Gd81 2.717 . S
O111 C99 1.257 . S
H112 C85 0.930 . S
H113 C86 0.931 . S
H114 C88 0.931 . S
H115 C89 0.931 . S
H116 C94 0.930 . S
H117 C95 0.931 . S
H118 C97 0.931 . S
H119 C98 0.931 . S
H120 C123 0.929 . S
H121 C126 0.929 . S
H122 C128 0.930 . S
C123 H120 0.929 . S
C123 C124 1.398 . S
C123 C125 1.396 1_565 S
C124 C123 1.398 . S
C124 C128 1.407 1_565 S
C125 C123 1.396 1_545 S
C125 C126 1.394 . S
C126 H121 0.929 . S
C126 C125 1.394 . S
C126 C127 1.382 . S
C127 C126 1.382 . S
C127 C128 1.392 . S
C127 N129 1.420 . S
C128 H122 0.930 . S
C128 C124 1.407 1_545 S
C128 C127 1.392 . S
N129 C127 1.420 . S
N129 C130 1.244 . S
C130 N129 1.244 . S
H131 C134 0.929 . S
H132 C137 0.929 . S
H133 C139 0.930 . S
C134 H131 0.929 . S
C134 C135 1.398 . S
C134 C136 1.396 . S
C135 C134 1.398 . S
C135 C139 1.407 . S
C136 C134 1.396 . S
C136 C137 1.394 . S
C137 H132 0.929 . S
C137 C136 1.394 . S
C137 C138 1.382 . S
C138 C137 1.382 . S
C138 C139 1.392 . S
C138 N140 1.420 . S
C139 H133 0.930 . S
C139 C135 1.407 . S
C139 C138 1.392 . S
N140 C138 1.420 . S
N140 C141 1.244 . S
C141 N140 1.244 . S
H142 C145 0.929 1_655 S
H143 C148 0.929 . S
H144 C150 0.930 . S
C145 H142 0.929 1_455 S
C145 C146 1.398 . S
C145 C147 1.396 . S
C146 C145 1.398 . S
C146 C150 1.407 . S
C147 C145 1.396 . S
C147 C148 1.394 . S
C148 H143 0.929 . S
C148 C147 1.394 . S
C148 C149 1.382 . S
C149 C148 1.382 . S
C149 C150 1.392 . S
C149 N151 1.420 . S
C150 H144 0.930 . S
C150 C146 1.407 . S
C150 C149 1.392 . S
N151 C149 1.420 . S
N151 C152 1.244 . S
C152 N151 1.244 . S
H153 C156 0.929 . S
H154 C159 0.929 . S
H155 C161 0.930 . S
C156 H153 0.929 . S
C156 C157 1.398 . S
C156 C158 1.396 . S
C157 C156 1.398 . S
C157 C161 1.407 . S
C158 C156 1.396 . S
C158 C159 1.394 1_455 S
C159 H154 0.929 . S
C159 C158 1.394 1_655 S
C159 C160 1.382 . S
C160 C159 1.382 . S
C160 C161 1.392 1_655 S
C160 N162 1.420 . S
C161 H155 0.930 . S
C161 C157 1.407 . S
C161 C160 1.392 1_455 S
N162 C160 1.420 . S
N162 C163 1.244 . S
C163 N162 1.244 . S
H164 C167 0.929 . S
H165 C170 0.929 1_565 S
H166 C172 0.930 . S
C167 H164 0.929 . S
C167 C168 1.398 . S
C167 C169 1.396 . S
C168 C167 1.398 . S
C168 C172 1.407 . S
C169 C167 1.396 . S
C169 C170 1.394 . S
C170 H165 0.929 1_545 S
C170 C169 1.394 . S
C170 C171 1.382 . S
C171 C170 1.382 . S
C171 C172 1.392 . S
C171 N173 1.420 . S
C172 H166 0.930 . S
C172 C168 1.407 . S
C172 C171 1.392 . S
N173 C171 1.420 . S
N173 C174 1.244 1_545 S
C174 N173 1.244 1_565 S
H175 C178 0.929 . S
H176 C181 0.929 . S
H177 C183 0.930 . S
C178 H175 0.929 . S
C178 C179 1.398 . S
C178 C180 1.396 . S
C179 C178 1.398 . S
C179 C183 1.407 . S
C180 C178 1.396 . S
C180 C181 1.394 . S
C181 H176 0.929 . S
C181 C180 1.394 . S
C181 C182 1.382 . S
C182 C181 1.382 . S
C182 C183 1.392 . S
C182 N184 1.420 . S
C183 H177 0.930 . S
C183 C179 1.407 . S
C183 C182 1.392 . S
N184 C182 1.420 . S
N184 C185 1.244 . S
C185 N184 1.244 . S
C186 C187 1.387 . S
C186 H190 0.950 . S
C186 C195 1.390 . S
C187 C186 1.387 . S
C187 C189 1.387 . S
H188 C195 0.950 . S
C189 C187 1.387 . S
C189 C191 1.390 . S
C189 H193 0.950 . S
H190 C186 0.950 . S
C191 C189 1.390 . S
C191 C192 1.387 . S
C191 H194 0.950 . S
C192 C191 1.387 . S
C192 C195 1.387 . S
H193 C189 0.950 . S
H194 C191 0.950 . S
C195 C186 1.390 . S
C195 H188 0.950 . S
C195 C192 1.387 . S
C196 C197 1.387 . S
C196 H200 0.950 . S
C196 C205 1.390 . S
C197 C196 1.387 . S
C197 C199 1.387 . S
H198 C205 0.950 . S
C199 C197 1.387 . S
C199 C201 1.390 . S
C199 H203 0.950 . S
H200 C196 0.950 . S
C201 C199 1.390 . S
C201 C202 1.387 . S
C201 H204 0.950 . S
C202 C201 1.387 . S
C202 C205 1.387 . S
H203 C199 0.950 . S
H204 C201 0.950 . S
C205 C196 1.390 . S
C205 H198 0.950 . S
C205 C202 1.387 . S
C206 C207 1.387 . S
C206 H210 0.950 . S
C206 C215 1.390 . S
C207 C206 1.387 . S
C207 C209 1.387 . S
H208 C215 0.950 . S
C209 C207 1.387 . S
C209 C211 1.390 . S
C209 H213 0.950 . S
H210 C206 0.950 . S
C211 C209 1.390 . S
C211 C212 1.387 . S
C211 H214 0.950 . S
C212 C211 1.387 . S
C212 C215 1.387 . S
H213 C209 0.950 . S
H214 C211 0.950 . S
C215 C206 1.390 . S
C215 H208 0.950 . S
C215 C212 1.387 . S
C216 C217 1.387 . S
C216 H220 0.950 . S
C216 C225 1.390 . S
C217 C216 1.387 . S
C217 C219 1.387 . S
H218 C225 0.950 . S
C219 C217 1.387 . S
C219 C221 1.390 . S
C219 H223 0.950 . S
H220 C216 0.950 . S
C221 C219 1.390 . S
C221 C222 1.387 . S
C221 H224 0.950 . S
C222 C221 1.387 . S
C222 C225 1.387 . S
H223 C219 0.950 . S
H224 C221 0.950 . S
C225 C216 1.390 . S
C225 H218 0.950 . S
C225 C222 1.387 . S
C226 C227 1.387 . S
C226 H230 0.950 . S
C226 C235 1.390 . S
C227 C226 1.387 . S
C227 C229 1.387 . S
H228 C235 0.950 . S
C229 C227 1.387 . S
C229 C231 1.390 . S
C229 H233 0.950 . S
H230 C226 0.950 . S
C231 C229 1.390 . S
C231 C232 1.387 . S
C231 H234 0.950 . S
C232 C231 1.387 . S
C232 C235 1.387 . S
H233 C229 0.950 . S
H234 C231 0.950 . S
C235 C226 1.390 . S
C235 H228 0.950 . S
C235 C232 1.387 . S
C236 C237 1.387 . S
C236 H240 0.950 . S
C236 C245 1.390 . S
C237 C236 1.387 . S
C237 C239 1.387 . S
H238 C245 0.950 . S
C239 C237 1.387 . S
C239 C241 1.390 . S
C239 H243 0.950 . S
H240 C236 0.950 . S
C241 C239 1.390 . S
C241 C242 1.387 . S
C241 H244 0.950 . S
C242 C241 1.387 . S
C242 C245 1.387 . S
H243 C239 0.950 . S
H244 C241 0.950 . S
C245 C236 1.390 . S
C245 H238 0.950 . S
C245 C242 1.387 . S
C246 C247 1.387 . S
C246 H250 0.950 . S
C246 C255 1.390 . S
C247 C246 1.387 . S
C247 C249 1.387 . S
H248 C255 0.950 . S
C249 C247 1.387 . S
C249 C251 1.390 . S
C249 H253 0.950 . S
H250 C246 0.950 . S
C251 C249 1.390 . S
C251 C252 1.387 . S
C251 H254 0.950 . S
C252 C251 1.387 . S
C252 C255 1.387 . S
H253 C249 0.950 . S
H254 C251 0.950 . S
C255 C246 1.390 . S
C255 H248 0.950 . S
C255 C252 1.387 . S
C256 C257 1.387 . S
C256 H260 0.950 . S
C256 C265 1.390 . S
C257 C256 1.387 . S
C257 C259 1.387 . S
H258 C265 0.950 . S
C259 C257 1.387 . S
C259 C261 1.390 . S
C259 H263 0.950 . S
H260 C256 0.950 . S
C261 C259 1.390 . S
C261 C262 1.387 . S
C261 H264 0.950 . S
C262 C261 1.387 . S
C262 C265 1.387 . S
H263 C259 0.950 . S
H264 C261 0.950 . S
C265 C256 1.390 . S
C265 H258 0.950 . S
C265 C262 1.387 . S
C266 C267 1.387 . S
C266 H270 0.950 . S
C266 C275 1.390 . S
C267 C266 1.387 . S
C267 C269 1.387 . S
H268 C275 0.950 . S
C269 C267 1.387 . S
C269 C271 1.390 . S
C269 H273 0.950 . S
H270 C266 0.950 . S
C271 C269 1.390 . S
C271 C272 1.387 . S
C271 H274 0.950 . S
C272 C271 1.387 . S
C272 C275 1.387 . S
H273 C269 0.950 . S
H274 C271 0.950 . S
C275 C266 1.390 . S
C275 H268 0.950 . S
C275 C272 1.387 . S
C276 C277 1.387 . S
C276 H280 0.950 . S
C276 C285 1.390 . S
C277 C276 1.387 . S
C277 C279 1.387 . S
H278 C285 0.950 . S
C279 C277 1.387 . S
C279 C281 1.390 . S
C279 H283 0.950 . S
H280 C276 0.950 . S
C281 C279 1.390 . S
C281 C282 1.387 . S
C281 H284 0.950 . S
C282 C281 1.387 . S
C282 C285 1.387 . S
H283 C279 0.950 . S
H284 C281 0.950 . S
C285 C276 1.390 . S
C285 H278 0.950 . S
C285 C282 1.387 . S
C286 C287 1.387 . S
C286 H290 0.950 . S
C286 C295 1.390 . S
C287 C286 1.387 . S
C287 C289 1.387 . S
H288 C295 0.950 . S
C289 C287 1.387 . S
C289 C291 1.390 . S
C289 H293 0.950 . S
H290 C286 0.950 . S
C291 C289 1.390 . S
C291 C292 1.387 . S
C291 H294 0.950 . S
C292 C291 1.387 . S
C292 C295 1.387 . S
H293 C289 0.950 . S
H294 C291 0.950 . S
C295 C286 1.390 . S
C295 H288 0.950 . S
C295 C292 1.387 . S
C296 C297 1.387 . S
C296 H300 0.950 . S
C296 C305 1.390 . S
C297 C296 1.387 . S
C297 C299 1.387 . S
H298 C305 0.950 . S
C299 C297 1.387 . S
C299 C301 1.390 . S
C299 H303 0.950 . S
H300 C296 0.950 . S
C301 C299 1.390 . S
C301 C302 1.387 . S
C301 H304 0.950 . S
C302 C301 1.387 . S
C302 C305 1.387 . S
H303 C299 0.950 . S
H304 C301 0.950 . S
C305 C296 1.390 . S
C305 H298 0.950 . S
C305 C302 1.387 . S
C306 C307 1.387 . S
C306 H310 0.950 . S
C306 C315 1.390 . S
C307 C306 1.387 . S
C307 C309 1.387 . S
H308 C315 0.950 1_556 S
C309 C307 1.387 . S
C309 C311 1.390 1_554 S
C309 H313 0.950 1_455 S
H310 C306 0.950 . S
C311 C309 1.390 1_556 S
C311 C312 1.387 . S
C311 H314 0.950 1_455 S
C312 C311 1.387 . S
C312 C315 1.387 1_556 S
H313 C309 0.950 1_655 S
H314 C311 0.950 1_655 S
C315 C306 1.390 . S
C315 H308 0.950 1_554 S
C315 C312 1.387 1_554 S
C316 C317 1.387 1_565 S
C316 H320 0.950 . S
C316 C325 1.390 1_565 S
C317 C316 1.387 1_545 S
C317 C319 1.387 . S
H318 C325 0.951 1_565 S
C319 C317 1.387 . S
C319 C321 1.390 . S
C319 H323 0.950 . S
H320 C316 0.950 . S
C321 C319 1.390 . S
C321 C322 1.387 . S
C321 H324 0.950 . S
C322 C321 1.387 . S
C322 C325 1.386 . S
H323 C319 0.950 . S
H324 C321 0.950 . S
C325 C316 1.390 1_545 S
C325 H318 0.951 1_545 S
C325 C322 1.386 . S
C326 C327 1.387 . S
C326 H330 0.950 . S
C326 C335 1.390 . S
C327 C326 1.387 . S
C327 C329 1.387 . S
H328 C335 0.950 . S
C329 C327 1.387 . S
C329 C331 1.390 . S
C329 H333 0.950 . S
H330 C326 0.950 . S
C331 C329 1.390 . S
C331 C332 1.387 . S
C331 H334 0.950 . S
C332 C331 1.387 . S
C332 C335 1.387 . S
H333 C329 0.950 . S
H334 C331 0.950 . S
C335 C326 1.390 . S
C335 H328 0.950 . S
C335 C332 1.387 . S
C336 C337 1.387 1_565 S
C336 H340 0.950 . S
C336 C345 1.390 . S
C337 C336 1.387 1_545 S
C337 C339 1.387 . S
H338 C345 0.950 . S
C339 C337 1.387 . S
C339 C341 1.390 . S
C339 H343 0.950 . S
H340 C336 0.950 . S
C341 C339 1.390 . S
C341 C342 1.387 . S
C341 H344 0.950 . S
C342 C341 1.387 . S
C342 C345 1.387 1_545 S
H343 C339 0.950 . S
H344 C341 0.950 . S
C345 C336 1.390 . S
C345 H338 0.950 . S
C345 C342 1.387 1_565 S
C346 C347 1.387 . S
C346 H350 0.950 . S
C346 C355 1.390 1_556 S
C347 C346 1.387 . S
C347 C349 1.387 . S
H348 C355 0.950 . S
C349 C347 1.387 . S
C349 C351 1.390 . S
C349 H353 0.950 . S
H350 C346 0.950 . S
C351 C349 1.390 . S
C351 C352 1.387 1_556 S
C351 H354 0.950 1_556 S
C352 C351 1.387 1_554 S
C352 C355 1.387 . S
H353 C349 0.950 . S
H354 C351 0.950 1_554 S
C355 C346 1.390 1_554 S
C355 H348 0.950 . S
C355 C352 1.387 . S
C356 C357 1.387 . S
C356 H360 0.950 . S
C356 C365 1.390 . S
C357 C356 1.387 . S
C357 C359 1.387 . S
H358 C365 0.950 . S
C359 C357 1.387 . S
C359 C361 1.390 . S
C359 H363 0.950 . S
H360 C356 0.950 . S
C361 C359 1.390 . S
C361 C362 1.387 . S
C361 H364 0.950 . S
C362 C361 1.387 . S
C362 C365 1.387 . S
H363 C359 0.950 . S
H364 C361 0.950 . S
C365 C356 1.390 . S
C365 H358 0.950 . S
C365 C362 1.387 . S
C187 C7 1.175 . S
C192 C185 1.311 . S
C197 C51 1.961 . S
C202 C163 1.898 . S
C207 C87 1.416 . S
C212 C174 1.485 . S
C217 C16 0.705 . S
C222 C179 0.677 . S
C232 C157 1.876 . S
C227 C42 1.932 . S
C242 C168 1.280 . S
C237 C96 1.262 . S
C247 C47 1.363 . S
C252 C141 1.407 . S
C257 C91 3.087 . S
C262 C146 3.034 1_655 S
C267 C2 1.966 . S
C272 C124 1.932 . S
C282 C135 1.309 . S
C277 C56 1.275 . S
C292 C152 3.024 . S
C287 C82 3.078 . S
C297 C11 1.976 . S
C302 C130 1.931 . S
C312 C147 1.753 . S
C307 C19 1.714 . S
C317 C50 1.387 . S
C322 C125 1.447 . S
C327 C99 1.500 . S
C332 C136 1.534 . S
C342 C169 1.494 . S
C337 C59 1.488 . S
C352 C180 1.218 . S
C347 C90 1.224 . S
C357 C10 1.364 . S
C362 C158 1.403 . S
