# Generated by pormake.
# Topology zzz, (3,6)-cn, num edge types: 1
# Building blocks:
#     Node 0, Type 0, BuildingBlock: BELTOD_clean_linker_0, # of connection points: 3
#     Node 1, Type 0, BuildingBlock: BELTOD_clean_linker_0, # of connection points: 3
#     Node 2, Type 0, BuildingBlock: BELTOD_clean_linker_0, # of connection points: 3
#     Node 3, Type 0, BuildingBlock: BELTOD_clean_linker_0, # of connection points: 3
#     Node 4, Type 0, BuildingBlock: BELTOD_clean_linker_0, # of connection points: 3
#     Node 5, Type 0, BuildingBlock: BELTOD_clean_linker_0, # of connection points: 3
#     Node 6, Type 0, BuildingBlock: BELTOD_clean_linker_0, # of connection points: 3
#     Node 7, Type 0, BuildingBlock: BELTOD_clean_linker_0, # of connection points: 3
#     Node 8, Type 1, BuildingBlock: LEVNOQ01_clean_sbu_1, # of connection points: 6
#     Node 9, Type 1, BuildingBlock: LEVNOQ01_clean_sbu_1, # of connection points: 6
#     Node 10, Type 1, BuildingBlock: LEVNOQ01_clean_sbu_1, # of connection points: 6
#     Node 11, Type 1, BuildingBlock: LEVNOQ01_clean_sbu_1, # of connection points: 6
#     Edge 12, Type (0, 1), BuildingBlock: TEMPAE_clean_linker_10, # of connection points: 2
#     Edge 13, Type (0, 1), BuildingBlock: TEMPAE_clean_linker_10, # of connection points: 2
#     Edge 14, Type (0, 1), BuildingBlock: TEMPAE_clean_linker_10, # of connection points: 2
#     Edge 15, Type (0, 1), BuildingBlock: TEMPAE_clean_linker_10, # of connection points: 2
#     Edge 16, Type (0, 1), BuildingBlock: TEMPAE_clean_linker_10, # of connection points: 2
#     Edge 17, Type (0, 1), BuildingBlock: TEMPAE_clean_linker_10, # of connection points: 2
#     Edge 18, Type (0, 1), BuildingBlock: TEMPAE_clean_linker_10, # of connection points: 2
#     Edge 19, Type (0, 1), BuildingBlock: TEMPAE_clean_linker_10, # of connection points: 2
#     Edge 20, Type (0, 1), BuildingBlock: TEMPAE_clean_linker_10, # of connection points: 2
#     Edge 21, Type (0, 1), BuildingBlock: TEMPAE_clean_linker_10, # of connection points: 2
#     Edge 22, Type (0, 1), BuildingBlock: TEMPAE_clean_linker_10, # of connection points: 2
#     Edge 23, Type (0, 1), BuildingBlock: TEMPAE_clean_linker_10, # of connection points: 2
#     Edge 24, Type (0, 1), BuildingBlock: TEMPAE_clean_linker_10, # of connection points: 2
#     Edge 25, Type (0, 1), BuildingBlock: TEMPAE_clean_linker_10, # of connection points: 2
#     Edge 26, Type (0, 1), BuildingBlock: TEMPAE_clean_linker_10, # of connection points: 2
#     Edge 27, Type (0, 1), BuildingBlock: TEMPAE_clean_linker_10, # of connection points: 2
#     Edge 28, Type (0, 1), BuildingBlock: TEMPAE_clean_linker_10, # of connection points: 2
#     Edge 29, Type (0, 1), BuildingBlock: TEMPAE_clean_linker_10, # of connection points: 2
#     Edge 30, Type (0, 1), BuildingBlock: TEMPAE_clean_linker_10, # of connection points: 2
#     Edge 31, Type (0, 1), BuildingBlock: TEMPAE_clean_linker_10, # of connection points: 2
#     Edge 32, Type (0, 1), BuildingBlock: TEMPAE_clean_linker_10, # of connection points: 2
#     Edge 33, Type (0, 1), BuildingBlock: TEMPAE_clean_linker_10, # of connection points: 2
#     Edge 34, Type (0, 1), BuildingBlock: TEMPAE_clean_linker_10, # of connection points: 2
#     Edge 35, Type (0, 1), BuildingBlock: TEMPAE_clean_linker_10, # of connection points: 2
# Relax obj value: 0.282
# Max RMSD: 0.213
# Mean RMSD: 0.196
data_MOF--net-zzz--node1-LEVNOQ01_clean_sbu_1--node2-BELTOD_clean_linker_0--edge1-TEMPAE_clean_linker_10
_symmetry_space_group_name_H-M    P1
_symmetry_Int_Tables_number       1
_symmetry_cell_setting            triclinic
loop_
_symmetry_equiv_pos_as_xyz
'x, y, z'
_cell_length_a     51.781161
_cell_length_b     54.778757
_cell_length_c     19.601815
_cell_angle_alpha  90.003897
_cell_angle_beta   90.041385
_cell_angle_gamma 88.422598
loop_
_atom_site_label
_atom_site_type_symbol
_atom_site_fract_x
_atom_site_fract_y
_atom_site_fract_z
_atom_type_partial_charge
P0 P 0.75357 0.57655 0.17827 0.0
H1 H 0.75038 0.55395 0.31243 0.0
H2 H 0.78331 0.5525 0.40107 0.0
H3 H 0.8188 0.61546 0.31216 0.0
H4 H 0.78447 0.61791 0.2268 0.0
H5 H 0.70698 0.54852 0.16704 0.0
H6 H 0.67036 0.55451 0.09115 0.0
H7 H 0.69104 0.62936 0.05865 0.0
H8 H 0.72813 0.62334 0.13634 0.0
H9 H 0.80939 0.57576 0.17437 0.0
H10 H 0.74727 0.5936 0.03431 0.0
O11 O 0.75563 0.54607 0.17656 0.0
H12 H 0.84051 0.58547 0.08768 0.0
H13 H 0.77876 0.60314 0.94652 0.0
C14 C 0.76571 0.58529 0.261 0.0
C15 C 0.76441 0.56825 0.31402 0.0
C16 C 0.78367 0.56712 0.36394 0.0
C17 C 0.80467 0.5829 0.36115 0.0
C18 C 0.80333 0.60261 0.31506 0.0
C19 C 0.78353 0.6041 0.26617 0.0
C20 C 0.72083 0.58525 0.15555 0.0
C21 C 0.70326 0.56656 0.14608 0.0
C22 C 0.68236 0.56993 0.10212 0.0
C23 C 0.67853 0.5921 0.06716 0.0
C24 C 0.69385 0.61199 0.08435 0.0
C25 C 0.71485 0.60861 0.12922 0.0
C26 C 0.77584 0.58576 0.11331 0.0
C27 C 0.80233 0.58301 0.12628 0.0
C28 C 0.82019 0.58862 0.07648 0.0
C29 C 0.81197 0.59616 0.01135 0.0
C30 C 0.78547 0.59832 0.99725 0.0
C31 C 0.76748 0.59298 0.04786 0.0
P32 P 0.04835 0.75013 0.19812 0.0
H33 H 0.0638 0.76105 0.33814 0.0
H34 H 0.04672 0.79072 0.42068 0.0
H35 H 0.98076 0.80507 0.29001 0.0
H36 H 0.99732 0.77466 0.20956 0.0
H37 H 0.07456 0.70884 0.13609 0.0
H38 H 0.05728 0.67397 0.07588 0.0
H39 H 0.98163 0.69062 0.15817 0.0
H40 H 0.99916 0.72549 0.22035 0.0
H41 H 0.07515 0.78963 0.13049 0.0
H42 H 0.00592 0.74896 0.09823 0.0
O43 O 0.08015 0.74949 0.21246 0.0
H44 H 0.06176 0.81777 0.03915 0.0
H45 H 0.99233 0.77746 0.00897 0.0
C46 C 0.0322 0.76611 0.26684 0.0
C47 C 0.04532 0.77008 0.32815 0.0
C48 C 0.03561 0.78721 0.37504 0.0
C49 C 0.01273 0.80078 0.36101 0.0
C50 C 0.99846 0.79503 0.30243 0.0
C51 C 0.00807 0.77772 0.25594 0.0
C52 C 0.03817 0.71964 0.1829 0.0
C53 C 0.05458 0.7043 0.14438 0.0
C54 C 0.04468 0.68452 0.10957 0.0
C55 C 0.01822 0.67996 0.1125 0.0
C56 C 0.00214 0.69388 0.15587 0.0
C57 C 0.01219 0.71362 0.19161 0.0
C58 C 0.04171 0.76705 0.12109 0.0
C59 C 0.05757 0.78624 0.10253 0.0
C60 C 0.04998 0.80221 0.0503 0.0
C61 C 0.02621 0.79943 0.01711 0.0
C62 C 0.01092 0.77961 0.03336 0.0
C63 C 0.01875 0.76338 0.08462 0.0
P64 P 0.74427 0.93264 0.1993 0.0
H65 H 0.74295 0.94999 0.33983 0.0
H66 H 0.71028 0.94366 0.42683 0.0
H67 H 0.68282 0.88167 0.31485 0.0
H68 H 0.71638 0.88753 0.22887 0.0
H69 H 0.78904 0.96264 0.17935 0.0
H70 H 0.82684 0.95584 0.10784 0.0
H71 H 0.80973 0.8795 0.0915 0.0
H72 H 0.77154 0.88626 0.16496 0.0
H73 H 0.68863 0.93386 0.18854 0.0
H74 H 0.75296 0.91664 0.05513 0.0
O75 O 0.74141 0.96295 0.20717 0.0
H76 H 0.65883 0.92319 0.09856 0.0
H77 H 0.72295 0.9057 0.96479 0.0
C78 C 0.73157 0.91976 0.27673 0.0
C79 C 0.73087 0.93423 0.33566 0.0
C80 C 0.71203 0.93063 0.38541 0.0
C81 C 0.69354 0.91255 0.37667 0.0
C82 C 0.69657 0.89598 0.3223 0.0
C83 C 0.71588 0.89926 0.27335 0.0
C84 C 0.77725 0.92499 0.17693 0.0
C85 C 0.79387 0.94416 0.16339 0.0
C86 C 0.81549 0.94032 0.12221 0.0
C87 C 0.82086 0.91726 0.09382 0.0
C88 C 0.80591 0.89741 0.1132 0.0
C89 C 0.78428 0.90124 0.15551 0.0
C90 C 0.72308 0.92486 0.13026 0.0
C91 C 0.6964 0.92711 0.14062 0.0
C92 C 0.67937 0.92076 0.08929 0.0
C93 C 0.68867 0.91259 0.0257 0.0
C94 C 0.71539 0.91117 0.01417 0.0
C95 C 0.73253 0.91737 0.06611 0.0
P96 P 0.45231 0.75416 0.20197 0.0
H97 H 0.44504 0.74646 0.3485 0.0
H98 H 0.46345 0.7153 0.42545 0.0
H99 H 0.51829 0.69333 0.27011 0.0
H100 H 0.50051 0.72493 0.19413 0.0
H101 H 0.42524 0.79806 0.15717 0.0
H102 H 0.44012 0.83393 0.0977 0.0
H103 H 0.51932 0.81079 0.13478 0.0
H104 H 0.50411 0.77481 0.19607 0.0
H105 H 0.4238 0.71171 0.16044 0.0
H106 H 0.48472 0.75514 0.07792 0.0
O107 O 0.4217 0.75665 0.22833 0.0
H108 H 0.43137 0.68154 0.07026 0.0
H109 H 0.49261 0.72478 0.98908 0.0
C110 C 0.47103 0.73766 0.26512 0.0
C111 C 0.46165 0.73559 0.33187 0.0
C112 C 0.4722 0.71784 0.37585 0.0
C113 C 0.49207 0.70187 0.35316 0.0
C114 C 0.50291 0.70543 0.28848 0.0
C115 C 0.49267 0.72344 0.24506 0.0
C116 C 0.46356 0.78394 0.18161 0.0
C117 C 0.44578 0.8012 0.15537 0.0
C118 C 0.45435 0.82171 0.12113 0.0
C119 C 0.48089 0.82509 0.11147 0.0
C120 C 0.49876 0.80856 0.14154 0.0
C121 C 0.4901 0.78818 0.17707 0.0
C122 C 0.45341 0.73586 0.12576 0.0
C123 C 0.43817 0.7152 0.12179 0.0
C124 C 0.44253 0.69799 0.07034 0.0
C125 C 0.46252 0.70102 0.02295 0.0
C126 C 0.47705 0.72219 0.02506 0.0
C127 C 0.47242 0.73958 0.07592 0.0
P128 P 0.24148 0.36228 0.27949 0.0
H129 H 0.22837 0.35036 0.13719 0.0
H130 H 0.19599 0.36752 0.05806 0.0
H131 H 0.17728 0.42457 0.20331 0.0
H132 H 0.20958 0.4074 0.28189 0.0
H133 H 0.29181 0.34178 0.31944 0.0
H134 H 0.32881 0.36038 0.37414 0.0
H135 H 0.29492 0.43195 0.33547 0.0
H136 H 0.25796 0.4132 0.28065 0.0
H137 H 0.18913 0.34858 0.31373 0.0
H138 H 0.25331 0.38083 0.41825 0.0
O139 O 0.24596 0.33293 0.25865 0.0
H140 H 0.15958 0.36644 0.39851 0.0
H141 H 0.22375 0.39915 0.50073 0.0
C142 C 0.22149 0.37755 0.21556 0.0
C143 C 0.21765 0.36681 0.1515 0.0
C144 C 0.19904 0.37661 0.10634 0.0
C145 C 0.18376 0.39726 0.12463 0.0
C146 C 0.18835 0.40842 0.188 0.0
C147 C 0.20709 0.39877 0.23269 0.0
C148 C 0.27227 0.37606 0.29464 0.0
C149 C 0.29283 0.3615 0.32002 0.0
C150 C 0.31394 0.37217 0.35186 0.0
C151 C 0.31469 0.39765 0.35987 0.0
C152 C 0.29478 0.41225 0.33078 0.0
C153 C 0.27379 0.40155 0.29839 0.0
C154 C 0.22325 0.36425 0.35762 0.0
C155 C 0.19704 0.35849 0.35639 0.0
C156 C 0.18018 0.36864 0.40487 0.0
C157 C 0.18955 0.38448 0.45475 0.0
C158 C 0.21622 0.38714 0.46204 0.0
C159 C 0.23306 0.37683 0.41405 0.0
P160 P 0.05847 0.25143 0.25758 0.0
H161 H 0.0811 0.23846 0.1252 0.0
H162 H 0.06919 0.20769 0.04082 0.0
H163 H 0.99711 0.1976 0.14557 0.0
H164 H 0.00895 0.22831 0.23015 0.0
H165 H 0.08297 0.29315 0.31611 0.0
H166 H 0.06512 0.33039 0.36622 0.0
H167 H 0.99003 0.31435 0.284 0.0
H168 H 0.00837 0.27682 0.23243 0.0
H169 H 0.07859 0.20565 0.31203 0.0
H170 H 0.01686 0.25734 0.36088 0.0
O171 O 0.09068 0.25095 0.25334 0.0
H172 H 0.05773 0.17493 0.38146 0.0
H173 H 0.99573 0.22646 0.42821 0.0
C174 C 0.04604 0.23559 0.18436 0.0
C175 C 0.06239 0.23022 0.12904 0.0
C176 C 0.05567 0.21259 0.08104 0.0
C177 C 0.03238 0.20032 0.08734 0.0
C178 C 0.01511 0.20699 0.13967 0.0
C179 C 0.02188 0.22457 0.18783 0.0
C180 C 0.04707 0.28234 0.27001 0.0
C181 C 0.06293 0.29811 0.30605 0.0
C182 C 0.05264 0.31942 0.335 0.0
C183 C 0.02613 0.32521 0.32936 0.0
C184 C 0.01052 0.31023 0.28931 0.0
C185 C 0.02102 0.28899 0.25917 0.0
C186 C 0.04918 0.23367 0.33012 0.0
C187 C 0.06114 0.21073 0.33963 0.0
C188 C 0.04912 0.19316 0.37881 0.0
C189 C 0.02482 0.19829 0.40811 0.0
C190 C 0.01436 0.2221 0.40551 0.0
C191 C 0.0265 0.23974 0.36653 0.0
P192 P 0.25605 0.1393 0.26763 0.0
H193 H 0.26909 0.14949 0.12417 0.0
H194 H 0.30221 0.13207 0.04805 0.0
H195 H 0.32069 0.07659 0.19836 0.0
H196 H 0.28819 0.09446 0.27456 0.0
H197 H 0.2058 0.15809 0.31406 0.0
H198 H 0.17093 0.13899 0.37628 0.0
H199 H 0.20925 0.06851 0.34928 0.0
H200 H 0.24307 0.08763 0.2841 0.0
H201 H 0.30804 0.15704 0.2862 0.0
H202 H 0.24982 0.12451 0.41229 0.0
O203 O 0.24894 0.16754 0.24028 0.0
H204 H 0.34142 0.1423 0.36567 0.0
H205 H 0.28314 0.10942 0.48973 0.0
C206 C 0.27575 0.12311 0.20482 0.0
C207 C 0.27986 0.13325 0.14013 0.0
C208 C 0.29892 0.12329 0.09664 0.0
C209 C 0.31439 0.10302 0.11715 0.0
C210 C 0.30951 0.09242 0.18112 0.0
C211 C 0.29048 0.10236 0.22436 0.0
C212 C 0.22686 0.1243 0.29286 0.0
C213 C 0.20614 0.1384 0.31913 0.0
C214 C 0.18643 0.12745 0.35615 0.0
C215 C 0.18724 0.10213 0.36894 0.0
C216 C 0.20757 0.08796 0.33996 0.0
C217 C 0.22706 0.09892 0.30218 0.0
C218 C 0.27658 0.14097 0.34147 0.0
C219 C 0.30225 0.14786 0.33245 0.0
C220 C 0.32131 0.13944 0.37772 0.0
C221 C 0.31461 0.1244 0.43238 0.0
C222 C 0.28856 0.12085 0.44725 0.0
C223 C 0.26954 0.12935 0.40229 0.0
P224 P 0.45506 0.25417 0.25261 0.0
H225 H 0.43987 0.25499 0.10946 0.0
H226 H 0.45222 0.28231 0.017 0.0
H227 H 0.51595 0.30706 0.13867 0.0
H228 H 0.50414 0.27942 0.22933 0.0
H229 H 0.42573 0.222 0.33443 0.0
H230 H 0.4361 0.18341 0.38748 0.0
H231 H 0.50679 0.17761 0.2698 0.0
H232 H 0.49657 0.2178 0.2194 0.0
H233 H 0.43394 0.29689 0.32459 0.0
H234 H 0.50123 0.24882 0.33806 0.0
O235 O 0.42331 0.25949 0.24433 0.0
H236 H 0.4534 0.32454 0.40661 0.0
H237 H 0.52109 0.27703 0.41816 0.0
C238 C 0.47047 0.26572 0.17727 0.0
C239 C 0.45706 0.26562 0.11521 0.0
C240 C 0.46403 0.28136 0.06261 0.0
C241 C 0.48455 0.29736 0.07151 0.0
C242 C 0.49993 0.29509 0.13035 0.0
C243 C 0.493 0.27929 0.18275 0.0
C244 C 0.46011 0.22249 0.27212 0.0
C245 C 0.44306 0.2121 0.31819 0.0
C246 C 0.44906 0.18975 0.34843 0.0
C247 C 0.47228 0.17699 0.33282 0.0
C248 C 0.48885 0.18694 0.28358 0.0
C249 C 0.48289 0.20972 0.25389 0.0
C250 C 0.46615 0.27085 0.32528 0.0
C251 C 0.45249 0.29188 0.34674 0.0
C252 C 0.46355 0.3076 0.3937 0.0
C253 C 0.4886 0.3027 0.41827 0.0
C254 C 0.50163 0.28091 0.40009 0.0
C255 C 0.49028 0.26488 0.35442 0.0
O256 O 0.04274 0.96954 0.82077 0.0
Mg257 Mg 0.04123 0.97742 0.71536 0.0
O258 O 0.00237 0.97438 0.79217 0.0
Mg259 Mg 0.99558 0.00415 0.71051 0.0
O260 O 0.03926 0.01213 0.67426 0.0
O261 O 0.07536 0.98829 0.67979 0.0
O262 O 0.98574 0.03336 0.62917 0.0
O263 O 0.00098 0.03556 0.7897 0.0
Mg264 Mg 0.9436 0.0319 0.72352 0.0
O265 O 0.95372 -0.00301 0.74902 0.0
O266 O 0.94393 0.04028 0.61925 0.0
O267 O 0.96297 0.05562 0.79147 0.0
O268 O 0.91358 0.01256 0.75961 0.0
C269 C 0.00255 0.95339 0.62434 0.0
C270 C 0.01942 0.96446 0.83037 0.0
C271 C 0.06404 0.00868 0.66288 0.0
C272 C 0.96664 0.04362 0.59854 0.0
C273 C 0.98632 0.05314 0.81097 0.0
C274 C 0.92989 -0.0054 0.76838 0.0
O275 O 0.02376 0.95019 0.6558 0.0
O276 O 0.98939 0.97329 0.6305 0.0
O277 O 0.43178 0.00272 0.76964 0.0
Mg278 Mg 0.44711 0.97816 0.69292 0.0
O279 O 0.46843 0.01925 0.80445 0.0
Mg280 Mg 0.49808 0.00346 0.72447 0.0
O281 O 0.48041 0.96492 0.73401 0.0
O282 O 0.44705 0.94142 0.71188 0.0
O283 O 0.52816 0.98819 0.64616 0.0
O284 O 0.52619 0.98851 0.80442 0.0
Mg285 Mg 0.55338 0.03246 0.75104 0.0
O286 O 0.51702 0.03987 0.7204 0.0
O287 O 0.56478 0.00738 0.67116 0.0
O288 O 0.55214 0.01558 0.84839 0.0
O289 O 0.5447 0.06943 0.72717 0.0
C290 C 0.45718 0.01162 0.59219 0.0
C291 C 0.44392 0.01689 0.80924 0.0
C292 C 0.46976 0.94375 0.73779 0.0
C293 C 0.55228 0.99179 0.63669 0.0
C294 C 0.54397 -0.00603 0.846 0.0
C295 C 0.52264 0.06205 0.7065 0.0
O296 O 0.45229 0.98924 0.59087 0.0
O297 O 0.47074 0.01961 0.64102 0.0
O298 O 0.539 0.45851 0.83509 0.0
Mg299 Mg 0.55697 0.47772 0.75481 0.0
O300 O 0.50046 0.46745 0.79117 0.0
Mg301 Mg 0.50226 0.49932 0.71288 0.0
O302 O 0.54243 0.51225 0.74849 0.0
O303 O 0.58352 0.50349 0.77564 0.0
O304 O 0.50175 0.53174 0.63567 0.0
O305 O 0.49175 0.5269 0.79427 0.0
Mg306 Mg 0.45128 0.51951 0.7264 0.0
O307 O 0.46059 0.48696 0.67761 0.0
O308 O 0.46381 0.54859 0.66426 0.0
O309 O 0.45256 0.52712 0.83317 0.0
O310 O 0.42 0.50189 0.6921 0.0
C311 C 0.53821 0.45877 0.62093 0.0
C312 C 0.51482 0.45554 0.83312 0.0
C313 C 0.56493 0.51945 0.76841 0.0
C314 C 0.48483 0.54918 0.63091 0.0
C315 C 0.47527 0.53483 0.83681 0.0
C316 C 0.43572 0.48543 0.66772 0.0
O317 O 0.55752 0.46031 0.66024 0.0
O318 O 0.5174 0.47132 0.63163 0.0
O319 O 0.95455 0.4864 0.8597 0.0
Mg320 Mg 0.95097 0.47356 0.7582 0.0
O321 O 0.9768 0.51409 0.80772 0.0
Mg322 Mg 0.00403 0.50013 0.72503 0.0
O323 O 0.98483 0.46347 0.7127 0.0
O324 O 0.95368 0.43713 0.72715 0.0
O325 O 0.03169 0.48577 0.63857 0.0
O326 O 0.03294 0.48208 0.80336 0.0
Mg327 Mg 0.05299 0.52447 0.69909 0.0
O328 O 0.02136 0.53881 0.74552 0.0
O329 O 0.0464 0.51879 0.5944 0.0
O330 O 0.06971 0.49789 0.76832 0.0
O331 O 0.05707 0.55983 0.72529 0.0
C332 C 0.94891 0.51602 0.64965 0.0
C333 C 0.96083 0.50848 0.85377 0.0
C334 C 0.97569 0.44219 0.70077 0.0
C335 C 0.04426 0.49604 0.59131 0.0
C336 C 0.05754 0.48355 0.80711 0.0
C337 C 0.03421 0.55881 0.75115 0.0
O338 O 0.93733 0.50136 0.68918 0.0
O339 O 0.97367 0.51737 0.64872 0.0
C340 C 0.15944 0.06692 0.40204 0.0
C341 C 0.16774 0.0907 0.4146 0.0
C342 C 0.14206 0.05551 0.44603 0.0
C343 C 0.13208 0.0683 0.50351 0.0
C344 C 0.14004 0.0924 0.51625 0.0
C345 C 0.15791 0.1032 0.47214 0.0
C346 C 0.13453 0.0296 0.4312 0.0
C347 C 0.12988 0.1067 0.57683 0.0
C348 C 0.07024 0.0421 0.57624 0.0
C349 C 0.08004 0.02729 0.62905 0.0
C350 C 0.08685 0.05636 0.53652 0.0
C351 C 0.11375 0.05603 0.55063 0.0
C352 C 0.12342 0.04209 0.60628 0.0
C353 C 0.10651 0.0279 0.64449 0.0
C354 C 0.0759 0.07091 0.47734 0.0
C355 C 0.15192 0.04084 0.6229 0.0
H356 H 0.16648 0.05712 0.35749 0.0
H357 H 0.1645 0.12134 0.48362 0.0
H358 H 0.13953 0.0177 0.47536 0.0
H359 H 0.11334 0.02884 0.42358 0.0
H360 H 0.14432 0.02201 0.38512 0.0
H361 H 0.1375 0.12545 0.57887 0.0
H362 H 0.10847 0.10801 0.57481 0.0
H363 H 0.13522 0.09709 0.62483 0.0
H364 H 0.04995 0.04138 0.56332 0.0
H365 H 0.11423 0.01655 0.68541 0.0
H366 H 0.08566 0.06536 0.42922 0.0
H367 H 0.07962 0.09057 0.48512 0.0
H368 H 0.05481 0.06847 0.47098 0.0
H369 H 0.16245 0.03084 0.58176 0.0
H370 H 0.15594 0.03135 0.67202 0.0
H371 H 0.15983 0.05942 0.62556 0.0
C372 C 0.46074 0.14012 0.40064 0.0
C373 C 0.4799 0.15504 0.37399 0.0
C374 C 0.46626 0.12372 0.45365 0.0
C375 C 0.49188 0.12056 0.47712 0.0
C376 C 0.51188 0.1335 0.4454 0.0
C377 C 0.50561 0.151 0.39515 0.0
C378 C 0.44426 0.11187 0.48962 0.0
C379 C 0.53967 0.12989 0.46727 0.0
C380 C 0.50449 0.10103 0.66027 0.0
C381 C 0.5092 0.07593 0.65262 0.0
C382 C 0.49789 0.11565 0.60378 0.0
C383 C 0.49727 0.10499 0.53791 0.0
C384 C 0.50135 0.07948 0.53042 0.0
C385 C 0.50689 0.06517 0.58819 0.0
C386 C 0.49245 0.14262 0.61437 0.0
C387 C 0.5013 0.06751 0.46106 0.0
H388 H 0.44095 0.14235 0.38322 0.0
H389 H 0.5207 0.16233 0.37539 0.0
H390 H 0.44872 0.09231 0.49926 0.0
H391 H 0.44176 0.12074 0.54008 0.0
H392 H 0.42583 0.11382 0.4609 0.0
H393 H 0.55321 0.13846 0.43106 0.0
H394 H 0.54242 0.13815 0.51834 0.0
H395 H 0.54477 0.11014 0.47147 0.0
H396 H 0.50677 0.10931 0.7101 0.0
H397 H 0.51141 0.04584 0.58215 0.0
H398 H 0.47435 0.14843 0.58792 0.0
H399 H 0.50834 0.1532 0.59214 0.0
H400 H 0.49066 0.14741 0.66927 0.0
H401 H 0.48303 0.07202 0.4338 0.0
H402 H 0.50369 0.04732 0.46431 0.0
H403 H 0.5173 0.07468 0.42989 0.0
C404 C 0.36098 0.40112 0.39788 0.0
C405 C 0.33495 0.40874 0.40322 0.0
C406 C 0.38003 0.41119 0.43989 0.0
C407 C 0.37287 0.42916 0.48885 0.0
C408 C 0.34654 0.43663 0.49512 0.0
C409 C 0.32798 0.4264 0.4522 0.0
C410 C 0.40786 0.40283 0.43136 0.0
C411 C 0.33796 0.45557 0.54694 0.0
C412 C 0.41513 0.44584 0.64056 0.0
C413 C 0.42509 0.46799 0.61859 0.0
C414 C 0.39925 0.43215 0.59735 0.0
C415 C 0.39287 0.44117 0.53139 0.0
C416 C 0.4039 0.46306 0.50831 0.0
C417 C 0.41987 0.47616 0.55221 0.0
C418 C 0.38804 0.40885 0.62385 0.0
C419 C 0.39745 0.47354 0.4389 0.0
H420 H 0.3665 0.3875 0.36014 0.0
H421 H 0.30784 0.43199 0.45771 0.0
H422 H 0.41967 0.41845 0.41558 0.0
H423 H 0.41574 0.39607 0.48073 0.0
H424 H 0.41017 0.3881 0.39271 0.0
H425 H 0.31668 0.45881 0.54686 0.0
H426 H 0.34403 0.44973 0.59885 0.0
H427 H 0.34734 0.47312 0.53616 0.0
H428 H 0.4187 0.43985 0.69252 0.0
H429 H 0.42712 0.49362 0.53598 0.0
H430 H 0.39023 0.39405 0.58547 0.0
H431 H 0.36706 0.41178 0.63326 0.0
H432 H 0.39737 0.40272 0.67219 0.0
H433 H 0.40036 0.45945 0.3988 0.0
H434 H 0.40937 0.48948 0.42629 0.0
H435 H 0.37679 0.47949 0.43751 0.0
C436 C 0.02762 0.36725 0.37771 0.0
C437 C 0.0149 0.34511 0.37216 0.0
C438 C 0.02062 0.38435 0.42797 0.0
C439 C 0.00048 0.37922 0.47391 0.0
C440 C 0.98635 0.35764 0.46564 0.0
C441 C 0.99377 0.34077 0.41481 0.0
C442 C 0.03583 0.40727 0.43408 0.0
C443 C 0.96421 0.35184 0.51245 0.0
C444 C 0.00228 0.40798 0.6506 0.0
C445 C 0.98476 0.4276 0.64251 0.0
C446 C 0.0078 0.39215 0.59567 0.0
C447 C 0.99507 0.39596 0.53221 0.0
C448 C 0.97757 0.41603 0.52412 0.0
C449 C 0.97272 0.43166 0.57944 0.0
C450 C 0.02694 0.37117 0.6057 0.0
C451 C 0.96355 0.42069 0.45759 0.0
H452 H 0.04379 0.37075 0.3443 0.0
H453 H 0.98397 0.32359 0.41103 0.0
H454 H 0.02293 0.42355 0.44125 0.0
H455 H 0.0486 0.40582 0.47949 0.0
H456 H 0.04782 0.41008 0.38802 0.0
H457 H 0.95349 0.33573 0.49476 0.0
H458 H 0.97173 0.34804 0.56449 0.0
H459 H 0.95052 0.36773 0.51625 0.0
H460 H 0.01119 0.40477 0.69997 0.0
H461 H 0.95884 0.44675 0.57409 0.0
H462 H 0.04279 0.37236 0.56786 0.0
H463 H 0.01731 0.3536 0.59694 0.0
H464 H 0.03545 0.37096 0.65774 0.0
H465 H 0.97763 0.42271 0.41547 0.0
H466 H 0.95087 0.43737 0.45951 0.0
H467 H 0.95154 0.40485 0.44492 0.0
C468 C 0.83074 0.92599 0.97339 0.0
C469 C 0.83884 0.91578 0.03553 0.0
C470 C 0.84869 0.93221 0.92329 0.0
C471 C 0.87541 0.92795 0.93571 0.0
C472 C 0.88329 0.91483 0.9949 0.0
C473 C 0.86488 0.90919 0.0449 0.0
C474 C 0.83916 0.94631 0.86158 0.0
C475 C 0.91138 0.90906 0.00897 0.0
C476 C 0.91858 0.95103 0.79288 0.0
C477 C 0.92213 0.97503 0.81498 0.0
C478 C 0.90478 0.93459 0.83367 0.0
C479 C 0.89441 0.94258 0.89716 0.0
C480 C 0.89966 0.96634 0.92105 0.0
C481 C 0.91349 0.98214 0.87977 0.0
C482 C 0.89983 0.90931 0.8071 0.0
C483 C 0.88885 0.97591 0.98788 0.0
H484 H 0.81051 0.93109 0.96653 0.0
H485 H 0.87109 0.90129 0.09311 0.0
H486 H 0.84245 0.96605 0.86964 0.0
H487 H 0.84983 0.94061 0.81501 0.0
H488 H 0.81818 0.94394 0.85274 0.0
H489 H 0.91375 0.89297 0.04313 0.0
H490 H 0.92209 0.90546 0.96088 0.0
H491 H 0.92013 0.9249 0.03456 0.0
H492 H 0.92514 0.94564 0.74245 0.0
H493 H 0.91626 0.00077 0.89652 0.0
H494 H 0.87914 0.90784 0.79358 0.0
H495 H 0.90412 0.89548 0.84718 0.0
H496 H 0.91153 0.90489 0.76104 0.0
H497 H 0.86742 0.97662 0.98562 0.0
H498 H 0.89556 -0.0055 3e-05 0.0
H499 H 0.89459 0.96352 0.03031 0.0
C500 C 0.50533 0.83745 0.00775 0.0
C501 C 0.48916 0.84394 0.06265 0.0
C502 C 0.50827 0.85336 0.95227 0.0
C503 C 0.49448 0.876 0.95177 0.0
C504 C 0.48012 0.8835 0.00992 0.0
C505 C 0.47765 0.86735 0.06474 0.0
C506 C 0.52491 0.84547 0.89265 0.0
C507 C 0.466 0.90797 0.01241 0.0
C508 C 0.50145 0.92774 0.82508 0.0
C509 C 0.48035 0.92392 0.78199 0.0
C510 C 0.50765 0.91132 0.87811 0.0
C511 C 0.49224 0.89069 0.88823 0.0
C512 C 0.47202 0.88587 0.84194 0.0
C513 C 0.46659 0.90234 0.7889 0.0
C514 C 0.53017 0.91667 0.92408 0.0
C515 C 0.4546 0.86446 0.85189 0.0
H516 H 0.5143 0.81934 0.00601 0.0
H517 H 0.46556 0.87252 0.10779 0.0
H518 H 0.51253 0.84183 0.84776 0.0
H519 H 0.53804 0.86032 0.87836 0.0
H520 H 0.53664 0.82868 0.90412 0.0
H521 H 0.45663 0.91146 0.06257 0.0
H522 H 0.47965 0.9228 0.00218 0.0
H523 H 0.45093 0.90883 0.97211 0.0
H524 H 0.51215 0.94425 0.82008 0.0
H525 H 0.45033 0.89905 0.75558 0.0
H526 H 0.54797 0.9092 0.8997 0.0
H527 H 0.52867 0.90826 0.9753 0.0
H528 H 0.53226 0.93664 0.93066 0.0
H529 H 0.46621 0.84723 0.85663 0.0
H530 H 0.44067 0.86249 0.80924 0.0
H531 H 0.44351 0.86693 0.89998 0.0
C532 C 0.64004 0.6091 0.00194 0.0
C533 C 0.66111 0.59261 0.00709 0.0
C534 C 0.62091 0.60588 0.95172 0.0
C535 C 0.62286 0.58551 0.90712 0.0
C536 C 0.64568 0.57058 0.90767 0.0
C537 C 0.66453 0.57447 0.95732 0.0
C538 C 0.59775 0.62314 0.95029 0.0
C539 C 0.64909 0.54878 0.86085 0.0
C540 C 0.56794 0.54418 0.87085 0.0
C541 C 0.56874 0.54344 0.7996 0.0
C542 C 0.58371 0.5599 0.90746 0.0
C543 C 0.59964 0.57617 0.87155 0.0
C544 C 0.59696 0.57838 0.79981 0.0
C545 C 0.58209 0.56137 0.76421 0.0
C546 C 0.58615 0.55639 0.9837 0.0
C547 C 0.61182 0.59695 0.76025 0.0
H548 H 0.63767 0.62352 0.03948 0.0
H549 H 0.68134 0.56224 0.96002 0.0
H550 H 0.58896 0.62427 0.89869 0.0
H551 H 0.58298 0.61661 0.98638 0.0
H552 H 0.60311 0.64174 0.96676 0.0
H553 H 0.66867 0.54009 0.86498 0.0
H554 H 0.63464 0.53491 0.87374 0.0
H555 H 0.64588 0.55421 0.80703 0.0
H556 H 0.55777 0.5301 0.89798 0.0
H557 H 0.58275 0.56076 0.70895 0.0
H558 H 0.58433 0.57417 0.01041 0.0
H559 H 0.60551 0.54831 0.99591 0.0
H560 H 0.57129 0.54412 0.00424 0.0
H561 H 0.61228 0.6145 0.78848 0.0
H562 H 0.6032 0.60025 0.70903 0.0
H563 H 0.63206 0.59032 0.75313 0.0
C564 C 0.00436 0.67223 0.99451 0.0
C565 C 0.00757 0.66353 0.06123 0.0
C566 C 0.00228 0.65596 0.93985 0.0
C567 C 0.00369 0.63057 0.9528 0.0
C568 C 0.00362 0.62192 0.02091 0.0
C569 C 0.00593 0.6386 0.07474 0.0
C570 C 0.00109 0.66584 0.86803 0.0
C571 C 0.00359 0.59496 0.03644 0.0
C572 C 0.9993 0.5832 0.81132 0.0
C573 C 0.02548 0.57861 0.79741 0.0
C574 C 0.99165 0.60088 0.85984 0.0
C575 C 0.01067 0.61349 0.89661 0.0
C576 C 0.03711 0.60923 0.88148 0.0
C577 C 0.04414 0.59208 0.83163 0.0
C578 C 0.96328 0.60549 0.87188 0.0
C579 C 0.05812 0.62228 0.91936 0.0
H580 H 0.00558 0.69165 0.98464 0.0
H581 H 0.00834 0.63207 0.12663 0.0
H582 H 0.02019 0.66302 0.84318 0.0
H583 H 0.98669 0.6559 0.83748 0.0
H584 H 0.99598 0.68567 0.86703 0.0
H585 H 8e-05 0.59137 0.09139 0.0
H586 H 0.98851 0.58597 0.00585 0.0
H587 H 0.02256 0.58652 0.02214 0.0
H588 H 0.98485 0.57308 0.78425 0.0
H589 H 0.06448 0.58851 0.82149 0.0
H590 H 0.95316 0.60709 0.8222 0.0
H591 H 0.95897 0.62231 0.90165 0.0
H592 H 0.95548 0.58969 0.89971 0.0
H593 H 0.05541 0.64233 0.91336 0.0
H594 H 0.07777 0.61694 0.90103 0.0
H595 H 0.05698 0.61813 0.97468 0.0
C596 C 0.99689 0.17772 0.494 0.0
C597 C 0.00882 0.17794 0.42995 0.0
C598 C 0.98409 0.15689 0.51607 0.0
C599 C 0.98355 0.13615 0.47289 0.0
C600 C 0.99327 0.1374 0.40576 0.0
C601 C 0.0058 0.15834 0.38511 0.0
C602 C 0.97322 0.15628 0.58746 0.0
C603 C 0.99275 0.1158 0.35792 0.0
C604 C 0.99585 0.07513 0.55618 0.0
C605 C 0.97132 0.06499 0.55521 0.0
C606 C 0.9997 0.09854 0.5311 0.0
C607 C 0.97869 0.11186 0.50191 0.0
C608 C 0.95406 0.10143 0.49774 0.0
C609 C 0.95062 0.07804 0.5248 0.0
C610 C 0.02615 0.10933 0.53789 0.0
C611 C 0.93116 0.11537 0.46802 0.0
H612 H 0.99873 0.19321 0.52791 0.0
H613 H 0.01417 0.15903 0.33445 0.0
H614 H 0.95444 0.14702 0.58814 0.0
H615 H 0.98669 0.14575 0.62112 0.0
H616 H 0.9705 0.17493 0.60905 0.0
H617 H 0.99719 0.12103 0.30452 0.0
H618 H 0.00734 0.10184 0.37471 0.0
H619 H 0.97359 0.10723 0.35894 0.0
H620 H 0.01183 0.06545 0.58068 0.0
H621 H 0.93152 0.07042 0.52473 0.0
H622 H 0.02482 0.12706 0.56509 0.0
H623 H 0.03419 0.11285 0.48648 0.0
H624 H 0.03985 0.09719 0.5665 0.0
H625 H 0.925 0.13007 0.50391 0.0
H626 H 0.9145 0.10341 0.45913 0.0
H627 H 0.93632 0.12421 0.41918 0.0
C628 C 0.33438 0.08314 0.43986 0.0
C629 C 0.33414 0.10753 0.46111 0.0
C630 C 0.3537 0.06667 0.4619 0.0
C631 C 0.3734 0.07501 0.5054 0.0
C632 C 0.37227 0.09942 0.53015 0.0
C633 C 0.35279 0.11556 0.50652 0.0
C634 C 0.35283 0.04038 0.43892 0.0
C635 C 0.39064 0.10877 0.58329 0.0
C636 C 0.41542 0.03225 0.61061 0.0
C637 C 0.43657 0.02802 0.5675 0.0
C638 C 0.39433 0.04677 0.58996 0.0
C639 C 0.39488 0.0581 0.52527 0.0
C640 C 0.41596 0.05321 0.48024 0.0
C641 C 0.43667 0.03802 0.5021 0.0
C642 C 0.37146 0.0497 0.6374 0.0
C643 C 0.41679 0.06335 0.4086 0.0
H644 H 0.3196 0.07708 0.40494 0.0
H645 H 0.35206 0.13438 0.5238 0.0
H646 H 0.36748 0.03701 0.39857 0.0
H647 H 0.35735 0.02778 0.48191 0.0
H648 H 0.33363 0.03588 0.41774 0.0
H649 H 0.39674 0.12743 0.56973 0.0
H650 H 0.38028 0.1104 0.6327 0.0
H651 H 0.40797 0.09678 0.59102 0.0
H652 H 0.4152 0.02378 0.66048 0.0
H653 H 0.4528 0.03401 0.46831 0.0
H654 H 0.35301 0.04869 0.60877 0.0
H655 H 0.37191 0.0678 0.66257 0.0
H656 H 0.37168 0.03551 0.67793 0.0
H657 H 0.41033 0.04919 0.37242 0.0
H658 H 0.43686 0.06774 0.39408 0.0
H659 H 0.40428 0.07992 0.4018 0.0
C660 C 0.49354 0.3326 0.51245 0.0
C661 C 0.50251 0.32246 0.45121 0.0
C662 C 0.50346 0.3545 0.53665 0.0
C663 C 0.52195 0.36676 0.49698 0.0
C664 C 0.53198 0.35588 0.43686 0.0
C665 C 0.52228 0.33361 0.41503 0.0
C666 C 0.49328 0.36507 0.60289 0.0
C667 C 0.55157 0.3685 0.39315 0.0
C668 C 0.51749 0.43474 0.52842 0.0
C669 C 0.53788 0.43763 0.57435 0.0
C670 C 0.51331 0.41197 0.4983 0.0
C671 C 0.52942 0.39165 0.5165 0.0
C672 C 0.55111 0.39489 0.55882 0.0
C673 C 0.55539 0.41798 0.58605 0.0
C674 C 0.49057 0.40928 0.45088 0.0
C675 C 0.56829 0.37362 0.58128 0.0
H676 H 0.4782 0.32382 0.54001 0.0
H677 H 0.52888 0.32573 0.36714 0.0
H678 H 0.50949 0.37069 0.63592 0.0
H679 H 0.48109 0.38161 0.59227 0.0
H680 H 0.48148 0.35186 0.63145 0.0
H681 H 0.5595 0.35635 0.3524 0.0
H682 H 0.54225 0.38478 0.36884 0.0
H683 H 0.56781 0.37498 0.42461 0.0
H684 H 0.50403 0.44987 0.51885 0.0
H685 H 0.57126 0.41995 0.62156 0.0
H686 H 0.47506 0.39947 0.47753 0.0
H687 H 0.49628 0.39833 0.40541 0.0
H688 H 0.48253 0.42726 0.43367 0.0
H689 H 0.55821 0.36328 0.62154 0.0
H690 H 0.5869 0.37977 0.60258 0.0
H691 H 0.57244 0.36083 0.53861 0.0
C692 C 0.15168 0.3961 0.52753 0.0
C693 C 0.17181 0.40285 0.48472 0.0
C694 C 0.13257 0.41333 0.54697 0.0
C695 C 0.1334 0.43744 0.52092 0.0
C696 C 0.15427 0.44449 0.47964 0.0
C697 C 0.17337 0.42706 0.46238 0.0
C698 C 0.11093 0.40555 0.59307 0.0
C699 C 0.15577 0.47001 0.45087 0.0
C700 C 0.06724 0.46819 0.50873 0.0
C701 C 0.06727 0.48259 0.56742 0.0
C702 C 0.08964 0.45471 0.49021 0.0
C703 C 0.11154 0.45472 0.53363 0.0
C704 C 0.11184 0.47009 0.59129 0.0
C705 C 0.08977 0.48414 0.60675 0.0
C706 C 0.08994 0.44027 0.42476 0.0
C707 C 0.1349 0.471 0.63839 0.0
H708 H 0.15062 0.37729 0.54431 0.0
H709 H 0.18887 0.43202 0.4283 0.0
H710 H 0.10867 0.41845 0.63647 0.0
H711 H 0.09246 0.40598 0.56428 0.0
H712 H 0.11435 0.38684 0.61367 0.0
H713 H 0.1744 0.47302 0.42451 0.0
H714 H 0.13987 0.47329 0.41377 0.0
H715 H 0.15332 0.48381 0.49192 0.0
H716 H 0.04993 0.4675 0.47772 0.0
H717 H 0.08988 0.49594 0.65098 0.0
H718 H 0.09051 0.42046 0.43667 0.0
H719 H 0.10758 0.44396 0.3949 0.0
H720 H 0.0729 0.44483 0.39234 0.0
H721 H 0.13591 0.4541 0.66959 0.0
H722 H 0.13365 0.48691 0.6735 0.0
H723 H 0.15316 0.47185 0.60909 0.0
C724 C 0.02695 0.82618 0.91465 0.0
C725 C 0.01555 0.81982 0.97649 0.0
C726 C 0.02165 0.84915 0.88549 0.0
C727 C 0.0056 0.86621 0.92108 0.0
C728 C 0.99203 0.85879 0.97978 0.0
C729 C 0.99706 0.83547 0.00657 0.0
C730 C 0.03504 0.85592 0.82009 0.0
C731 C 0.9746 0.87618 0.01922 0.0
C732 C 0.03036 0.93046 0.91117 0.0
C733 C 0.01313 0.94139 0.86465 0.0
C734 C 0.02726 0.90626 0.93227 0.0
C735 C 0.00697 0.89252 0.90438 0.0
C736 C 0.98903 0.90368 0.85912 0.0
C737 C 0.99196 0.92818 0.84111 0.0
C738 C 0.04641 0.89502 0.98212 0.0
C739 C 0.96732 0.88963 0.82783 0.0
H740 H 0.04107 0.8138 0.89132 0.0
H741 H 0.98829 0.83036 0.05457 0.0
H742 H 0.02165 0.86633 0.78592 0.0
H743 H 0.05148 0.86779 0.83196 0.0
H744 H 0.04262 0.83954 0.79242 0.0
H745 H 0.95933 0.86622 0.04658 0.0
H746 H 0.98628 0.88579 0.0578 0.0
H747 H 0.96534 0.89014 0.98572 0.0
H748 H 0.04673 0.94055 0.92924 0.0
H749 H 0.97857 0.93641 0.80469 0.0
H750 H 0.05803 0.88041 0.95634 0.0
H751 H 0.03607 0.88646 0.02514 0.0
H752 H 0.05978 0.90865 0.00307 0.0
H753 H 0.97429 0.87138 0.81009 0.0
H754 H 0.95837 0.8995 0.78391 0.0
H755 H 0.95224 0.88672 0.86688 0.0
C756 C 0.64674 0.89795 0.98335 0.0
C757 C 0.66996 0.90956 0.96989 0.0
C758 C 0.62426 0.90481 0.94785 0.0
C759 C 0.62555 0.92342 0.89818 0.0
C760 C 0.64988 0.93089 0.8744 0.0
C761 C 0.67206 0.92396 0.91126 0.0
C762 C 0.59877 0.89479 0.97006 0.0
C763 C 0.65213 0.9493 0.81764 0.0
C764 C 0.56595 0.9541 0.82154 0.0
C765 C 0.56202 0.97403 0.86608 0.0
C766 C 0.58592 0.93681 0.83224 0.0
C767 C 0.60278 0.9399 0.8879 0.0
C768 C 0.59874 0.95981 0.9336 0.0
C769 C 0.57836 0.97664 0.92204 0.0
C770 C 0.58935 0.91608 0.78199 0.0
C771 C 0.61656 0.96393 0.9934 0.0
H772 H 0.6455 0.88594 0.02715 0.0
H773 H 0.69021 0.93242 0.8995 0.0
H774 H 0.58677 0.90945 0.99447 0.0
H775 H 0.5881 0.8882 0.92488 0.0
H776 H 0.60127 0.87948 0.00683 0.0
H777 H 0.67181 0.94878 0.79503 0.0
H778 H 0.63784 0.94596 0.77677 0.0
H779 H 0.64821 0.9679 0.83829 0.0
H780 H 0.55412 0.95248 0.77618 0.0
H781 H 0.5757 0.99231 0.95536 0.0
H782 H 0.59842 0.89958 0.80575 0.0
H783 H 0.60192 0.92196 0.73958 0.0
H784 H 0.57051 0.91109 0.75949 0.0
H785 H 0.61711 0.94763 0.02704 0.0
H786 H 0.61047 0.98007 0.02436 0.0
H787 H 0.6365 0.96673 0.97483 0.0
C788 C 0.45139 0.66937 0.93795 0.0
C789 C 0.47006 0.68052 0.97794 0.0
C790 C 0.45655 0.64658 0.908 0.0
C791 C 0.48067 0.63458 0.92012 0.0
C792 C 0.50047 0.64686 0.95469 0.0
C793 C 0.49491 0.66987 0.98324 0.0
C794 C 0.43555 0.6346 0.86757 0.0
C795 C 0.52675 0.63496 0.96624 0.0
C796 C 0.4714 0.56648 0.92889 0.0
C797 C 0.47981 0.55929 0.86421 0.0
C798 C 0.47385 0.59081 0.95003 0.0
C799 C 0.48366 0.60829 0.9039 0.0
C800 C 0.49315 0.60078 0.83959 0.0
C801 C 0.4914 0.57631 0.821 0.0
C802 C 0.46484 0.59811 0.02053 0.0
C803 C 0.50321 0.6186 0.78776 0.0
H804 H 0.43234 0.67792 0.93307 0.0
H805 H 0.50938 0.67865 0.01403 0.0
H806 H 0.44347 0.62701 0.81918 0.0
H807 H 0.42783 0.61919 0.89735 0.0
H808 H 0.41932 0.64755 0.85539 0.0
H809 H 0.54117 0.6484 0.98271 0.0
H810 H 0.52529 0.62081 0.00648 0.0
H811 H 0.5339 0.62571 0.91928 0.0
H812 H 0.46272 0.55325 0.96232 0.0
H813 H 0.49781 0.57083 0.77046 0.0
H814 H 0.44694 0.60963 0.01662 0.0
H815 H 0.47968 0.60913 0.04619 0.0
H816 H 0.46081 0.58201 0.05288 0.0
H817 H 0.48678 0.62579 0.75663 0.0
H818 H 0.51725 0.60949 0.75249 0.0
H819 H 0.51259 0.63432 0.81212 0.0
C820 C 0.82939 0.57936 0.90383 0.0
C821 C 0.83137 0.59638 0.95668 0.0
C822 C 0.85169 0.56933 0.87347 0.0
C823 C 0.8761 0.57675 0.89702 0.0
C824 C 0.87775 0.59717 0.94087 0.0
C825 C 0.8551 0.60708 0.96958 0.0
C826 C 0.84876 0.54841 0.82425 0.0
C827 C 0.90339 0.60695 0.9629 0.0
C828 C 0.92497 0.52513 0.92709 0.0
C829 C 0.94139 0.52768 0.87122 0.0
C830 C 0.90379 0.54133 0.93641 0.0
C831 C 0.89892 0.56027 0.88821 0.0
C832 C 0.91532 0.56289 0.83166 0.0
C833 C 0.93645 0.5467 0.82411 0.0
C834 C 0.8861 0.53769 0.99659 0.0
C835 C 0.90981 0.58194 0.77742 0.0
H836 H 0.81089 0.57141 0.89274 0.0
H837 H 0.85629 0.62093 0.00892 0.0
H838 H 0.86643 0.5446 0.79381 0.0
H839 H 0.84424 0.53168 0.85338 0.0
H840 H 0.83237 0.55228 0.7889 0.0
H841 H 0.90133 0.62073 0.00426 0.0
H842 H 0.9166 0.59198 0.98082 0.0
H843 H 0.91246 0.61577 0.91847 0.0
H844 H 0.92829 0.51013 0.96237 0.0
H845 H 0.94824 0.54821 0.7788 0.0
H846 H 0.8663 0.53399 0.97826 0.0
H847 H 0.88492 0.55458 0.02784 0.0
H848 H 0.89273 0.52229 0.02968 0.0
H849 H 0.89177 0.57759 0.75001 0.0
H850 H 0.92568 0.58291 0.73945 0.0
H851 H 0.90671 0.60019 0.80101 0.0
C852 C 0.00909 0.17968 0.99252 0.0
C853 C 0.02754 0.17871 0.04465 0.0
C854 C 0.00413 0.15886 0.95312 0.0
C855 C 0.01751 0.1365 0.96759 0.0
C856 C 0.03623 0.13558 0.02031 0.0
C857 C 0.04117 0.15678 0.05782 0.0
C858 C 0.98438 0.16072 0.89654 0.0
C859 C 0.05053 0.11206 0.03827 0.0
C860 C 0.98312 0.07911 0.91458 0.0
C861 C 0.99663 0.07221 0.85554 0.0
C862 C 0.99036 0.09947 0.95285 0.0
C863 C 0.011 0.11381 0.92995 0.0
C864 C 0.02492 0.1067 0.87059 0.0
C865 C 0.01778 0.08571 0.83455 0.0
C866 C 0.97552 0.10595 0.01691 0.0
C867 C 0.04656 0.12184 0.84345 0.0
H868 H 0.99863 0.19673 0.9826 0.0
H869 H 0.05532 0.15614 0.09863 0.0
H870 H 0.99298 0.15401 0.84797 0.0
H871 H 0.96785 0.149 0.90841 0.0
H872 H 0.97694 0.17974 0.88892 0.0
H873 H 0.06482 0.11452 0.07985 0.0
H874 H 0.03657 0.09821 0.05463 0.0
H875 H 0.06079 0.10463 0.99282 0.0
H876 H 0.96664 0.0687 0.93031 0.0
H877 H 0.02784 0.0806 0.78795 0.0
H878 H 0.96508 0.12374 0.01006 0.0
H879 H 0.98902 0.10797 0.06042 0.0
H880 H 0.96124 0.09196 0.0303 0.0
H881 H 0.03881 0.14016 0.82853 0.0
H882 H 0.05616 0.11328 0.7984 0.0
H883 H 0.06128 0.12462 0.88365 0.0
C884 C 0.33257 0.0911 0.00204 0.0
C885 C 0.33582 0.09315 0.07291 0.0
C886 C 0.35212 0.08067 0.96052 0.0
C887 C 0.37555 0.07194 0.99037 0.0
C888 C 0.37934 0.07479 0.06146 0.0
C889 C 0.35951 0.08536 0.10173 0.0
C890 C 0.3473 0.07819 0.88489 0.0
C891 C 0.40403 0.0659 0.09544 0.0
C892 C 0.40869 0.01924 0.89548 0.0
C893 C 0.42869 0.03077 0.86106 0.0
C894 C 0.39203 0.03228 0.93964 0.0
C895 C 0.39487 0.05774 0.94828 0.0
C896 C 0.41537 0.06947 0.91456 0.0
C897 C 0.43228 0.05575 0.87194 0.0
C898 C 0.37094 0.01884 0.97575 0.0
C899 C 0.41879 0.09663 0.92124 0.0
H900 H 0.31438 0.09694 0.97913 0.0
H901 H 0.36254 0.08739 0.15613 0.0
H902 H 0.36366 0.08555 0.85555 0.0
H903 H 0.34593 0.05859 0.87143 0.0
H904 H 0.32918 0.08785 0.86858 0.0
H905 H 0.40473 0.07094 0.15031 0.0
H906 H 0.40585 0.04573 0.09115 0.0
H907 H 0.42099 0.07359 0.06938 0.0
H908 H 0.40594 -0.0001 0.88733 0.0
H909 H 0.44753 0.06478 0.84468 0.0
H910 H 0.35177 0.02569 0.95765 0.0
H911 H 0.37185 0.02228 0.03147 0.0
H912 H 0.37234 -0.00118 0.96693 0.0
H913 H 0.40204 0.10651 0.89774 0.0
H914 H 0.43673 0.10269 0.89602 0.0
H915 H 0.41934 0.10199 0.97578 0.0
C916 C 0.51148 0.32681 0.00603 0.0
C917 C 0.48714 0.31891 0.02633 0.0
C918 C 0.51405 0.34909 0.97147 0.0
C919 C 0.49179 0.36397 0.95813 0.0
C920 C 0.46713 0.35573 0.97666 0.0
C921 C 0.4651 0.33326 0.0102 0.0
C922 C 0.54061 0.35698 0.95057 0.0
C923 C 0.44298 0.37103 0.96317 0.0
C924 C 0.50569 0.4313 0.93772 0.0
C925 C 0.5047 0.4339 0.86682 0.0
C926 C 0.49999 0.4089 0.96844 0.0
C927 C 0.49446 0.3885 0.92679 0.0
C928 C 0.49273 0.39139 0.85513 0.0
C929 C 0.49754 0.41421 0.82616 0.0
C930 C 0.50078 0.40682 0.04522 0.0
C931 C 0.48772 0.37017 0.80824 0.0
H932 H 0.52855 0.31574 0.01816 0.0
H933 H 0.44626 0.32748 0.02679 0.0
H934 H 0.54074 0.36164 0.89547 0.0
H935 H 0.54571 0.37365 0.97913 0.0
H936 H 0.55571 0.3426 0.96036 0.0
H937 H 0.42521 0.36183 0.97993 0.0
H938 H 0.44415 0.38875 0.99033 0.0
H939 H 0.44127 0.37513 0.90789 0.0
H940 H 0.51137 0.44661 0.96885 0.0
H941 H 0.4973 0.41624 0.77109 0.0
H942 H 0.51762 0.39516 0.06078 0.0
H943 H 0.48315 0.39796 0.0642 0.0
H944 H 0.50232 0.42491 0.07032 0.0
H945 H 0.50616 0.35982 0.79954 0.0
H946 H 0.48025 0.37648 0.75791 0.0
H947 H 0.47379 0.35741 0.83058 0.0
C948 C 0.16746 0.40966 0.00818 0.0
C949 C 0.16298 0.40707 0.07837 0.0
C950 C 0.14853 0.42018 0.96481 0.0
C951 C 0.12441 0.42825 0.99202 0.0
C952 C 0.11939 0.4248 0.06237 0.0
C953 C 0.13872 0.41435 0.10462 0.0
C954 C 0.15474 0.42347 0.89018 0.0
C955 C 0.09391 0.43286 0.09351 0.0
C956 C 0.09167 0.48102 0.89625 0.0
C957 C 0.07259 0.46934 0.85863 0.0
C958 C 0.10786 0.46797 0.94163 0.0
C959 C 0.10556 0.44237 0.9482 0.0
C960 C 0.08603 0.43047 0.91094 0.0
C961 C 0.0695 0.44418 0.8672 0.0
C962 C 0.12786 0.4816 0.9815 0.0
C963 C 0.08323 0.40316 0.91536 0.0
H964 H 0.18613 0.40419 0.98743 0.0
H965 H 0.13488 0.41197 0.15854 0.0
H966 H 0.13921 0.41595 0.85804 0.0
H967 H 0.15577 0.44322 0.87833 0.0
H968 H 0.17342 0.41443 0.87581 0.0
H969 H 0.09228 0.42725 0.14777 0.0
H970 H 0.09171 0.45304 0.09059 0.0
H971 H 0.07766 0.42511 0.06449 0.0
H972 H 0.09398 0.5005 0.88992 0.0
H973 H 0.05492 0.43508 0.83757 0.0
H974 H 0.14751 0.47525 0.96595 0.0
H975 H 0.12587 0.47777 0.03681 0.0
H976 H 0.12617 0.50166 0.97355 0.0
H977 H 0.10075 0.39386 0.89407 0.0
H978 H 0.06609 0.39687 0.88689 0.0
H979 H 0.08162 0.39738 0.96938 0.0
C980 C 0.97969 0.82884 0.41754 0.0
C981 C 0.00558 0.82271 0.40239 0.0
C982 C 0.97306 0.85053 0.45268 0.0
C983 C 0.99279 0.86639 0.47296 0.0
C984 C 0.01891 0.8602 0.458 0.0
C985 C 0.02493 0.83857 0.42277 0.0
C986 C 0.94503 0.85654 0.46783 0.0
C987 C 0.04063 0.87649 0.47903 0.0
C988 C 0.98797 0.93358 0.51644 0.0
C989 C 0.99251 0.93248 0.58673 0.0
C990 C 0.98511 0.91196 0.47865 0.0
C991 C 0.9869 0.88905 0.51246 0.0
C992 C 0.98856 0.88829 0.58449 0.0
C993 C 0.99154 0.91004 0.62064 0.0
C994 C 0.98277 0.91353 0.40204 0.0
C995 C 0.99029 0.86445 0.62312 0.0
H996 H 0.96463 0.81666 0.40202 0.0
H997 H 0.0449 0.83437 0.40975 0.0
H998 H 0.94225 0.85941 0.5234 0.0
H999 H 0.93914 0.87383 0.44203 0.0
H1000 H 0.93209 0.84191 0.45063 0.0
H1001 H 0.05992 0.86886 0.46416 0.0
H1002 H 0.03796 0.89474 0.45509 0.0
H1003 H 0.04042 0.87915 0.53514 0.0
H1004 H 0.98868 0.95102 0.49044 0.0
H1005 H 0.99478 0.90936 0.67534 0.0
H1006 H 0.96872 0.90025 0.38274 0.0
H1007 H 0.00178 0.90887 0.37858 0.0
H1008 H 0.97667 0.93216 0.38504 0.0
H1009 H 0.98523 0.86699 0.67779 0.0
H1010 H 0.0104 0.85697 0.62031 0.0
H1011 H 0.9774 0.85075 0.60075 0.0
C1012 C 0.64541 0.91635 0.3811 0.0
C1013 C 0.66904 0.91434 0.4161 0.0
C1014 C 0.6228 0.92469 0.41437 0.0
C1015 C 0.62387 0.93099 0.48434 0.0
C1016 C 0.64705 0.92652 0.52137 0.0
C1017 C 0.66943 0.91845 0.48665 0.0
C1018 C 0.59853 0.92904 0.37293 0.0
C1019 C 0.64888 0.9324 0.59645 0.0
C1020 C 0.58678 0.98673 0.54978 0.0
C1021 C 0.56721 0.97633 0.5884 0.0
C1022 C 0.60439 0.97211 0.51273 0.0
C1023 C 0.60278 0.94634 0.51558 0.0
C1024 C 0.58233 0.93573 0.5522 0.0
C1025 C 0.56459 0.95092 0.58789 0.0
C1026 C 0.62554 0.98428 0.47328 0.0
C1027 C 0.58003 0.90838 0.55687 0.0
H1028 H 0.64498 0.91338 0.32642 0.0
H1029 H 0.6876 0.9167 0.51396 0.0
H1030 H 0.58118 0.92378 0.402 0.0
H1031 H 0.59638 0.94879 0.36091 0.0
H1032 H 0.59916 0.91873 0.3241 0.0
H1033 H 0.66663 0.92423 0.61996 0.0
H1034 H 0.6492 0.95251 0.60325 0.0
H1035 H 0.6318 0.92575 0.62427 0.0
H1036 H 0.58875 0.00639 0.55021 0.0
H1037 H 0.54967 0.94286 0.61869 0.0
H1038 H 0.62608 0.97748 0.41997 0.0
H1039 H 0.64456 0.97967 0.4968 0.0
H1040 H 0.62295 0.00447 0.47223 0.0
H1041 H 0.58157 0.89996 0.50551 0.0
H1042 H 0.5615 0.90312 0.58052 0.0
H1043 H 0.59614 0.90066 0.58815 0.0
C1044 C 0.50665 0.67985 0.45907 0.0
C1045 C 0.498 0.67918 0.39145 0.0
C1046 C 0.50878 0.65831 0.49796 0.0
C1047 C 0.50119 0.6359 0.46899 0.0
C1048 C 0.49331 0.63513 0.39986 0.0
C1049 C 0.49212 0.65676 0.36172 0.0
C1050 C 0.51782 0.65976 0.57104 0.0
C1051 C 0.48425 0.61183 0.36759 0.0
C1052 C 0.51331 0.57442 0.55605 0.0
C1053 C 0.48961 0.57116 0.58902 0.0
C1054 C 0.51774 0.59572 0.51811 0.0
C1055 C 0.49797 0.61403 0.51284 0.0
C1056 C 0.47417 0.61094 0.54668 0.0
C1057 C 0.47033 0.58964 0.5843 0.0
C1058 C 0.54346 0.5986 0.48335 0.0
C1059 C 0.4525 0.62995 0.54222 0.0
H1060 H 0.51114 0.69726 0.48187 0.0
H1061 H 0.48507 0.65638 0.30961 0.0
H1062 H 0.50114 0.65763 0.60584 0.0
H1063 H 0.53198 0.64474 0.58241 0.0
H1064 H 0.52682 0.67749 0.58239 0.0
H1065 H 0.48104 0.61382 0.31179 0.0
H1066 H 0.4985 0.59668 0.3764 0.0
H1067 H 0.46581 0.60656 0.39159 0.0
H1068 H 0.52841 0.56039 0.56004 0.0
H1069 H 0.45199 0.5875 0.6099 0.0
H1070 H 0.55194 0.61619 0.49839 0.0
H1071 H 0.54071 0.59907 0.42723 0.0
H1072 H 0.55739 0.58349 0.49602 0.0
H1073 H 0.45917 0.64779 0.56112 0.0
H1074 H 0.43528 0.62486 0.57228 0.0
H1075 H 0.44658 0.63253 0.48822 0.0
C1076 C 0.84449 0.59466 0.42769 0.0
C1077 C 0.829 0.57663 0.39917 0.0
C1078 C 0.86732 0.58829 0.46353 0.0
C1079 C 0.87472 0.56335 0.47147 0.0
C1080 C 0.85975 0.5452 0.44035 0.0
C1081 C 0.83732 0.55206 0.40434 0.0
C1082 C 0.88306 0.60821 0.49471 0.0
C1083 C 0.86667 0.51835 0.4479 0.0
C1084 C 0.93921 0.53817 0.5393 0.0
C1085 C 0.93229 0.532 0.60608 0.0
C1086 C 0.92117 0.54993 0.49544 0.0
C1087 C 0.89584 0.55566 0.51939 0.0
C1088 C 0.88954 0.55094 0.58827 0.0
C1089 C 0.90781 0.53925 0.63056 0.0
C1090 C 0.9287 0.5549 0.42254 0.0
C1091 C 0.86301 0.55707 0.61659 0.0
H1092 H 0.83848 0.6137 0.42343 0.0
H1093 H 0.82617 0.53798 0.38029 0.0
H1094 H 0.88047 0.6082 0.55087 0.0
H1095 H 0.90393 0.6049 0.48437 0.0
H1096 H 0.87722 0.62655 0.47497 0.0
H1097 H 0.85414 0.50665 0.41643 0.0
H1098 H 0.88707 0.51469 0.43308 0.0
H1099 H 0.86465 0.5129 0.50215 0.0
H1100 H 0.95814 0.53266 0.52027 0.0
H1101 H 0.90257 0.53499 0.68271 0.0
H1102 H 0.92216 0.57355 0.40708 0.0
H1103 H 0.9191 0.54181 0.3883 0.0
H1104 H 0.94991 0.55299 0.41476 0.0
H1105 H 0.85963 0.57715 0.61622 0.0
H1106 H 0.86062 0.55042 0.66961 0.0
H1107 H 0.84785 0.54892 0.58445 0.0
loop_
_geom_bond_atom_site_label_1
_geom_bond_atom_site_label_2
_geom_bond_distance
_geom_bond_site_symmetry_2
_ccdc_geom_bond_type
P0 O11 1.490 . S
P0 C14 1.812 . S
P0 C20 1.803 . S
P0 C26 1.819 . S
H1 C15 0.941 . S
H2 C16 0.939 . S
H3 C18 0.940 . S
H4 C19 0.940 . S
H5 C21 0.939 . S
H6 C22 0.942 . S
H7 C24 0.940 . S
H8 C25 0.939 . S
H9 C27 0.941 . S
H10 C31 0.939 . S
O11 P0 1.490 . S
H12 C28 0.939 . S
H13 C30 0.940 . S
C14 P0 1.812 . S
C14 C15 1.389 . S
C14 C19 1.391 . S
C15 H1 0.941 . S
C15 C14 1.389 . S
C15 C16 1.397 . S
C16 H2 0.939 . S
C16 C15 1.397 . S
C16 C17 1.378 . S
C17 C16 1.378 . S
C17 C18 1.378 . S
C18 H3 0.940 . S
C18 C17 1.378 . S
C18 C19 1.396 . S
C19 H4 0.940 . S
C19 C14 1.391 . S
C19 C18 1.396 . S
C20 P0 1.803 . S
C20 C21 1.378 . S
C20 C25 1.400 . S
C21 H5 0.939 . S
C21 C20 1.378 . S
C21 C22 1.361 . S
C22 H6 0.942 . S
C22 C21 1.361 . S
C22 C23 1.369 . S
C23 C22 1.369 . S
C23 C24 1.404 . S
C24 H7 0.940 . S
C24 C23 1.404 . S
C24 C25 1.389 . S
C25 H8 0.939 . S
C25 C20 1.400 . S
C25 C24 1.389 . S
C26 P0 1.819 . S
C26 C27 1.391 . S
C26 C31 1.391 1_554 S
C27 H9 0.941 . S
C27 C26 1.391 . S
C27 C28 1.396 1_554 S
C28 H12 0.939 . S
C28 C27 1.396 1_556 S
C28 C29 1.397 . S
C29 C28 1.397 . S
C29 C30 1.385 . S
C30 H13 0.940 . S
C30 C29 1.385 . S
C30 C31 1.388 . S
C31 H10 0.939 . S
C31 C26 1.391 1_556 S
C31 C30 1.388 . S
P32 O43 1.490 . S
P32 C46 1.812 . S
P32 C52 1.803 . S
P32 C58 1.819 . S
H33 C47 0.941 . S
H34 C48 0.939 . S
H35 C50 0.940 . S
H36 C51 0.950 . S
H37 C53 0.939 . S
H38 C54 0.942 . S
H39 C56 0.940 . S
H40 C57 0.958 . S
H41 C59 0.941 . S
H42 C63 0.928 1_655 S
O43 P32 1.490 . S
H44 C60 0.939 . S
H45 C62 0.940 . S
C46 P32 1.812 . S
C46 C47 1.389 . S
C46 C51 1.375 1_455 S
C47 H33 0.941 . S
C47 C46 1.389 . S
C47 C48 1.397 . S
C48 H34 0.939 . S
C48 C47 1.397 . S
C48 C49 1.378 . S
C49 C48 1.378 . S
C49 C50 1.378 1_455 S
C50 H35 0.940 . S
C50 C49 1.378 1_655 S
C50 C51 1.402 . S
C51 H36 0.950 . S
C51 C46 1.375 1_655 S
C51 C50 1.402 . S
C52 P32 1.803 . S
C52 C53 1.378 . S
C52 C57 1.368 1_455 S
C53 H37 0.939 . S
C53 C52 1.378 . S
C53 C54 1.361 . S
C54 H38 0.942 . S
C54 C53 1.361 . S
C54 C55 1.369 . S
C55 C54 1.369 . S
C55 C56 1.404 1_455 S
C56 H39 0.940 . S
C56 C55 1.404 1_655 S
C56 C57 1.403 . S
C57 H40 0.958 . S
C57 C52 1.368 1_655 S
C57 C56 1.403 . S
C58 P32 1.819 . S
C58 C59 1.391 . S
C58 C63 1.391 . S
C59 H41 0.941 . S
C59 C58 1.391 . S
C59 C60 1.396 . S
C60 H44 0.939 . S
C60 C59 1.396 . S
C60 C61 1.397 1_554 S
C61 C60 1.397 1_556 S
C61 C62 1.385 1_455 S
C62 H45 0.940 . S
C62 C61 1.385 1_655 S
C62 C63 1.388 1_656 S
C63 H42 0.928 1_455 S
C63 C58 1.391 . S
C63 C62 1.388 1_454 S
P64 O75 1.490 . S
P64 C78 1.812 . S
P64 C84 1.803 . S
P64 C90 1.819 . S
H65 C79 0.941 . S
H66 C80 0.939 . S
H67 C82 0.940 . S
H68 C83 0.940 . S
H69 C85 0.939 . S
H70 C86 0.942 . S
H71 C88 0.940 . S
H72 C89 0.939 . S
H73 C91 0.941 . S
H74 C95 0.939 . S
O75 P64 1.490 . S
H76 C92 0.939 . S
H77 C94 0.940 . S
C78 P64 1.812 . S
C78 C79 1.389 . S
C78 C83 1.391 . S
C79 H65 0.941 . S
C79 C78 1.389 . S
C79 C80 1.397 . S
C80 H66 0.939 . S
C80 C79 1.397 . S
C80 C81 1.378 . S
C81 C80 1.378 . S
C81 C82 1.378 . S
C82 H67 0.940 . S
C82 C81 1.378 . S
C82 C83 1.396 . S
C83 H68 0.940 . S
C83 C78 1.391 . S
C83 C82 1.396 . S
C84 P64 1.803 . S
C84 C85 1.378 . S
C84 C89 1.400 . S
C85 H69 0.939 . S
C85 C84 1.378 . S
C85 C86 1.361 . S
C86 H70 0.942 . S
C86 C85 1.361 . S
C86 C87 1.369 . S
C87 C86 1.369 . S
C87 C88 1.404 . S
C88 H71 0.940 . S
C88 C87 1.404 . S
C88 C89 1.389 . S
C89 H72 0.939 . S
C89 C84 1.400 . S
C89 C88 1.389 . S
C90 P64 1.819 . S
C90 C91 1.391 . S
C90 C95 1.391 1_554 S
C91 H73 0.941 . S
C91 C90 1.391 . S
C91 C92 1.392 1_554 S
C92 H76 0.939 . S
C92 C91 1.392 1_556 S
C92 C93 1.401 . S
C93 C92 1.401 . S
C93 C94 1.385 . S
C94 H77 0.940 . S
C94 C93 1.385 . S
C94 C95 1.389 . S
C95 H74 0.939 . S
C95 C90 1.391 1_556 S
C95 C94 1.389 . S
P96 O107 1.490 . S
P96 C110 1.812 . S
P96 C116 1.803 . S
P96 C122 1.819 . S
H97 C111 0.941 . S
H98 C112 0.939 . S
H99 C114 0.940 . S
H100 C115 0.940 . S
H101 C117 0.939 . S
H102 C118 0.942 . S
H103 C120 0.940 . S
H104 C121 0.939 . S
H105 C123 0.941 . S
H106 C127 0.939 . S
O107 P96 1.490 . S
H108 C124 0.939 . S
H109 C126 0.940 . S
C110 P96 1.812 . S
C110 C111 1.389 . S
C110 C115 1.391 . S
C111 H97 0.941 . S
C111 C110 1.389 . S
C111 C112 1.397 . S
C112 H98 0.939 . S
C112 C111 1.397 . S
C112 C113 1.378 . S
C113 C112 1.378 . S
C113 C114 1.378 . S
C114 H99 0.940 . S
C114 C113 1.378 . S
C114 C115 1.396 . S
C115 H100 0.940 . S
C115 C110 1.391 . S
C115 C114 1.396 . S
C116 P96 1.803 . S
C116 C117 1.378 . S
C116 C121 1.400 . S
C117 H101 0.939 . S
C117 C116 1.378 . S
C117 C118 1.361 . S
C118 H102 0.942 . S
C118 C117 1.361 . S
C118 C119 1.369 . S
C119 C118 1.369 . S
C119 C120 1.404 . S
C120 H103 0.940 . S
C120 C119 1.404 . S
C120 C121 1.389 . S
C121 H104 0.939 . S
C121 C116 1.400 . S
C121 C120 1.389 . S
C122 P96 1.819 . S
C122 C123 1.391 . S
C122 C127 1.391 . S
C123 H105 0.941 . S
C123 C122 1.391 . S
C123 C124 1.396 . S
C124 H108 0.939 . S
C124 C123 1.396 . S
C124 C125 1.397 1_554 S
C125 C124 1.397 1_556 S
C125 C126 1.385 . S
C126 H109 0.940 . S
C126 C125 1.385 . S
C126 C127 1.388 1_556 S
C127 H106 0.939 . S
C127 C122 1.391 . S
C127 C126 1.388 1_554 S
P128 O139 1.490 . S
P128 C142 1.812 . S
P128 C148 1.803 . S
P128 C154 1.819 . S
H129 C143 0.941 . S
H130 C144 0.939 . S
H131 C146 0.940 . S
H132 C147 0.940 . S
H133 C149 0.939 . S
H134 C150 0.942 . S
H135 C152 0.940 . S
H136 C153 0.939 . S
H137 C155 0.941 . S
H138 C159 0.939 . S
O139 P128 1.490 . S
H140 C156 0.939 . S
H141 C158 0.940 . S
C142 P128 1.812 . S
C142 C143 1.389 . S
C142 C147 1.391 . S
C143 H129 0.941 . S
C143 C142 1.389 . S
C143 C144 1.397 . S
C144 H130 0.939 . S
C144 C143 1.397 . S
C144 C145 1.378 . S
C145 C144 1.378 . S
C145 C146 1.378 . S
C146 H131 0.940 . S
C146 C145 1.378 . S
C146 C147 1.396 . S
C147 H132 0.940 . S
C147 C142 1.391 . S
C147 C146 1.396 . S
C148 P128 1.803 . S
C148 C149 1.378 . S
C148 C153 1.400 . S
C149 H133 0.939 . S
C149 C148 1.378 . S
C149 C150 1.361 . S
C150 H134 0.942 . S
C150 C149 1.361 . S
C150 C151 1.369 . S
C151 C150 1.369 . S
C151 C152 1.404 . S
C152 H135 0.940 . S
C152 C151 1.404 . S
C152 C153 1.389 . S
C153 H136 0.939 . S
C153 C148 1.400 . S
C153 C152 1.389 . S
C154 P128 1.819 . S
C154 C155 1.391 . S
C154 C159 1.391 . S
C155 H137 0.941 . S
C155 C154 1.391 . S
C155 C156 1.396 . S
C156 H140 0.939 . S
C156 C155 1.396 . S
C156 C157 1.397 . S
C157 C156 1.397 . S
C157 C158 1.385 . S
C158 H141 0.940 . S
C158 C157 1.385 . S
C158 C159 1.388 . S
C159 H138 0.939 . S
C159 C154 1.391 . S
C159 C158 1.388 . S
P160 O171 1.490 . S
P160 C174 1.812 . S
P160 C180 1.803 . S
P160 C186 1.819 . S
H161 C175 0.941 . S
H162 C176 0.939 . S
H163 C178 0.940 . S
H164 C179 0.944 . S
H165 C181 0.939 . S
H166 C182 0.942 . S
H167 C184 0.940 . S
H168 C185 0.953 . S
H169 C187 0.941 . S
H170 C191 0.933 1_655 S
O171 P160 1.490 . S
H172 C188 0.939 . S
H173 C190 0.940 . S
C174 P160 1.812 . S
C174 C175 1.389 . S
C174 C179 1.384 1_455 S
C175 H161 0.941 . S
C175 C174 1.389 . S
C175 C176 1.397 . S
C176 H162 0.939 . S
C176 C175 1.397 . S
C176 C177 1.378 . S
C177 C176 1.378 . S
C177 C178 1.378 1_455 S
C178 H163 0.940 . S
C178 C177 1.378 1_655 S
C178 C179 1.399 . S
C179 H164 0.944 . S
C179 C174 1.384 1_655 S
C179 C178 1.399 . S
C180 P160 1.803 . S
C180 C181 1.378 . S
C180 C185 1.378 1_455 S
C181 H165 0.939 . S
C181 C180 1.378 . S
C181 C182 1.361 . S
C182 H166 0.942 . S
C182 C181 1.361 . S
C182 C183 1.369 . S
C183 C182 1.369 . S
C183 C184 1.404 1_455 S
C184 H167 0.940 . S
C184 C183 1.404 1_655 S
C184 C185 1.397 . S
C185 H168 0.953 . S
C185 C180 1.378 1_655 S
C185 C184 1.397 . S
C186 P160 1.819 . S
C186 C187 1.391 . S
C186 C191 1.391 . S
C187 H169 0.941 . S
C187 C186 1.391 . S
C187 C188 1.396 . S
C188 H172 0.939 . S
C188 C187 1.396 . S
C188 C189 1.397 . S
C189 C188 1.397 . S
C189 C190 1.385 1_455 S
C190 H173 0.940 . S
C190 C189 1.385 1_655 S
C190 C191 1.388 1_655 S
C191 H170 0.933 1_455 S
C191 C186 1.391 . S
C191 C190 1.388 1_455 S
P192 O203 1.490 . S
P192 C206 1.812 . S
P192 C212 1.803 . S
P192 C218 1.819 . S
H193 C207 0.941 . S
H194 C208 0.939 . S
H195 C210 0.940 . S
H196 C211 0.940 . S
H197 C213 0.939 . S
H198 C214 0.942 . S
H199 C216 0.940 . S
H200 C217 0.939 . S
H201 C219 0.941 . S
H202 C223 0.939 . S
O203 P192 1.490 . S
H204 C220 0.939 . S
H205 C222 0.940 . S
C206 P192 1.812 . S
C206 C207 1.389 . S
C206 C211 1.391 . S
C207 H193 0.941 . S
C207 C206 1.389 . S
C207 C208 1.397 . S
C208 H194 0.939 . S
C208 C207 1.397 . S
C208 C209 1.378 . S
C209 C208 1.378 . S
C209 C210 1.378 . S
C210 H195 0.940 . S
C210 C209 1.378 . S
C210 C211 1.396 . S
C211 H196 0.940 . S
C211 C206 1.391 . S
C211 C210 1.396 . S
C212 P192 1.803 . S
C212 C213 1.378 . S
C212 C217 1.400 . S
C213 H197 0.939 . S
C213 C212 1.378 . S
C213 C214 1.361 . S
C214 H198 0.942 . S
C214 C213 1.361 . S
C214 C215 1.369 . S
C215 C214 1.369 . S
C215 C216 1.404 . S
C216 H199 0.940 . S
C216 C215 1.404 . S
C216 C217 1.389 . S
C217 H200 0.939 . S
C217 C212 1.400 . S
C217 C216 1.389 . S
C218 P192 1.819 . S
C218 C219 1.391 . S
C218 C223 1.391 . S
C219 H201 0.941 . S
C219 C218 1.391 . S
C219 C220 1.396 . S
C220 H204 0.939 . S
C220 C219 1.396 . S
C220 C221 1.397 . S
C221 C220 1.397 . S
C221 C222 1.385 . S
C222 H205 0.940 . S
C222 C221 1.385 . S
C222 C223 1.388 . S
C223 H202 0.939 . S
C223 C218 1.391 . S
C223 C222 1.388 . S
P224 O235 1.490 . S
P224 C238 1.812 . S
P224 C244 1.803 . S
P224 C250 1.819 . S
H225 C239 0.941 . S
H226 C240 0.939 . S
H227 C242 0.940 . S
H228 C243 0.940 . S
H229 C245 0.939 . S
H230 C246 0.942 . S
H231 C248 0.940 . S
H232 C249 0.939 . S
H233 C251 0.941 . S
H234 C255 0.939 . S
O235 P224 1.490 . S
H236 C252 0.939 . S
H237 C254 0.940 . S
C238 P224 1.812 . S
C238 C239 1.389 . S
C238 C243 1.391 . S
C239 H225 0.941 . S
C239 C238 1.389 . S
C239 C240 1.397 . S
C240 H226 0.939 . S
C240 C239 1.397 . S
C240 C241 1.378 . S
C241 C240 1.378 . S
C241 C242 1.378 . S
C242 H227 0.940 . S
C242 C241 1.378 . S
C242 C243 1.396 . S
C243 H228 0.940 . S
C243 C238 1.391 . S
C243 C242 1.396 . S
C244 P224 1.803 . S
C244 C245 1.378 . S
C244 C249 1.400 . S
C245 H229 0.939 . S
C245 C244 1.378 . S
C245 C246 1.361 . S
C246 H230 0.942 . S
C246 C245 1.361 . S
C246 C247 1.369 . S
C247 C246 1.369 . S
C247 C248 1.404 . S
C248 H231 0.940 . S
C248 C247 1.404 . S
C248 C249 1.389 . S
C249 H232 0.939 . S
C249 C244 1.400 . S
C249 C248 1.389 . S
C250 P224 1.819 . S
C250 C251 1.391 . S
C250 C255 1.391 . S
C251 H233 0.941 . S
C251 C250 1.391 . S
C251 C252 1.396 . S
C252 H236 0.939 . S
C252 C251 1.396 . S
C252 C253 1.397 . S
C253 C252 1.397 . S
C253 C254 1.385 . S
C254 H237 0.940 . S
C254 C253 1.385 . S
C254 C255 1.388 . S
C255 H234 0.939 . S
C255 C250 1.391 . S
C255 C254 1.388 . S
O256 Mg257 1.990 . S
O256 C270 1.253 . S
Mg257 O256 1.990 . S
Mg257 O260 2.180 1_565 S
Mg257 O261 2.117 . S
Mg257 O275 2.030 . S
O258 Mg259 2.072 1_465 S
O258 C270 1.260 . S
Mg259 O258 2.072 1_645 S
Mg259 O260 2.099 1_655 S
Mg259 O262 2.079 . S
Mg259 O263 2.072 1_655 S
Mg259 O265 2.099 . S
Mg259 O276 2.079 1_545 S
O260 Mg257 2.180 1_545 S
O260 Mg259 2.099 1_455 S
O260 C271 1.279 . S
O261 Mg257 2.117 . S
O261 C271 1.250 1_565 S
O262 Mg259 2.079 . S
O262 C272 1.264 . S
O263 Mg259 2.072 1_455 S
O263 C273 1.260 . S
Mg264 O265 2.180 . S
Mg264 O266 2.030 . S
Mg264 O267 1.990 . S
Mg264 O268 2.117 . S
O265 Mg259 2.099 . S
O265 Mg264 2.180 . S
O265 C274 1.279 . S
O266 Mg264 2.030 . S
O266 C272 1.248 . S
O267 Mg264 1.990 . S
O267 C273 1.253 1_655 S
O268 Mg264 2.117 . S
O268 C274 1.250 . S
C269 O275 1.248 1_655 S
C269 O276 1.264 . S
C270 O256 1.253 . S
C270 O258 1.260 . S
C271 O260 1.279 . S
C271 O261 1.250 1_545 S
C272 O262 1.264 . S
C272 O266 1.248 . S
C273 O263 1.260 . S
C273 O267 1.253 1_455 S
C274 O265 1.279 . S
C274 O268 1.250 . S
O275 Mg257 2.030 . S
O275 C269 1.248 1_455 S
O276 Mg259 2.079 1_565 S
O276 C269 1.264 . S
O277 Mg278 1.990 1_545 S
O277 C291 1.253 . S
Mg278 O277 1.990 1_565 S
Mg278 O281 2.180 . S
Mg278 O282 2.117 . S
Mg278 O296 2.030 1_565 S
O279 Mg280 2.072 . S
O279 C291 1.260 . S
Mg280 O279 2.072 . S
Mg280 O281 2.099 1_545 S
Mg280 O283 2.079 1_545 S
Mg280 O284 2.072 1_545 S
Mg280 O286 2.099 . S
Mg280 O297 2.079 . S
O281 Mg278 2.180 . S
O281 Mg280 2.099 1_565 S
O281 C292 1.279 . S
O282 Mg278 2.117 . S
O282 C292 1.250 . S
O283 Mg280 2.079 1_565 S
O283 C293 1.264 . S
O284 Mg280 2.072 1_565 S
O284 C294 1.260 1_565 S
Mg285 O286 2.180 . S
Mg285 O287 2.030 . S
Mg285 O288 1.990 . S
Mg285 O289 2.117 . S
O286 Mg280 2.099 . S
O286 Mg285 2.180 . S
O286 C295 1.279 . S
O287 Mg285 2.030 . S
O287 C293 1.248 1_545 S
O288 Mg285 1.990 . S
O288 C294 1.253 . S
O289 Mg285 2.117 . S
O289 C295 1.250 . S
C290 O296 1.248 . S
C290 O297 1.264 . S
C291 O277 1.253 . S
C291 O279 1.260 . S
C292 O281 1.279 . S
C292 O282 1.250 . S
C293 O283 1.264 . S
C293 O287 1.248 1_565 S
C294 O284 1.260 1_545 S
C294 O288 1.253 . S
C295 O286 1.279 . S
C295 O289 1.250 . S
O296 Mg278 2.030 1_545 S
O296 C290 1.248 . S
O297 Mg280 2.079 . S
O297 C290 1.264 . S
O298 Mg299 1.990 . S
O298 C312 1.253 . S
Mg299 O298 1.990 . S
Mg299 O302 2.180 . S
Mg299 O303 2.117 . S
Mg299 O317 2.030 . S
O300 Mg301 2.072 . S
O300 C312 1.260 . S
Mg301 O300 2.072 . S
Mg301 O302 2.099 . S
Mg301 O304 2.079 . S
Mg301 O305 2.072 . S
Mg301 O307 2.099 . S
Mg301 O318 2.079 . S
O302 Mg299 2.180 . S
O302 Mg301 2.099 . S
O302 C313 1.279 . S
O303 Mg299 2.117 . S
O303 C313 1.250 . S
O304 Mg301 2.079 . S
O304 C314 1.264 . S
O305 Mg301 2.072 . S
O305 C315 1.260 . S
Mg306 O307 2.180 . S
Mg306 O308 2.030 . S
Mg306 O309 1.990 . S
Mg306 O310 2.117 . S
O307 Mg301 2.099 . S
O307 Mg306 2.180 . S
O307 C316 1.279 . S
O308 Mg306 2.030 . S
O308 C314 1.248 . S
O309 Mg306 1.990 . S
O309 C315 1.253 . S
O310 Mg306 2.117 . S
O310 C316 1.250 . S
C311 O317 1.248 . S
C311 O318 1.264 . S
C312 O298 1.253 . S
C312 O300 1.260 . S
C313 O302 1.279 . S
C313 O303 1.250 . S
C314 O304 1.264 . S
C314 O308 1.248 . S
C315 O305 1.260 . S
C315 O309 1.253 . S
C316 O307 1.279 . S
C316 O310 1.250 . S
O317 Mg299 2.030 . S
O317 C311 1.248 . S
O318 Mg301 2.079 . S
O318 C311 1.264 . S
O319 Mg320 1.990 . S
O319 C333 1.253 . S
Mg320 O319 1.990 . S
Mg320 O323 2.180 . S
Mg320 O324 2.117 . S
Mg320 O338 2.030 . S
O321 Mg322 2.039 1_655 S
O321 C333 1.260 . S
Mg322 O321 2.039 1_455 S
Mg322 O323 2.079 1_455 S
Mg322 O325 2.114 . S
Mg322 O326 2.094 . S
Mg322 O328 2.120 . S
Mg322 O339 2.057 1_455 S
O323 Mg320 2.180 . S
O323 Mg322 2.079 1_655 S
O323 C334 1.279 . S
O324 Mg320 2.117 . S
O324 C334 1.250 . S
O325 Mg322 2.114 . S
O325 C335 1.264 . S
O326 Mg322 2.094 . S
O326 C336 1.260 . S
Mg327 O328 2.180 . S
Mg327 O329 2.030 . S
Mg327 O330 1.990 . S
Mg327 O331 2.117 . S
O328 Mg322 2.120 . S
O328 Mg327 2.180 . S
O328 C337 1.279 . S
O329 Mg327 2.030 . S
O329 C335 1.248 . S
O330 Mg327 1.990 . S
O330 C336 1.253 . S
O331 Mg327 2.117 . S
O331 C337 1.250 . S
C332 O338 1.248 . S
C332 O339 1.264 . S
C333 O319 1.253 . S
C333 O321 1.260 . S
C334 O323 1.279 . S
C334 O324 1.250 . S
C335 O325 1.264 . S
C335 O329 1.248 . S
C336 O326 1.260 . S
C336 O330 1.253 . S
C337 O328 1.279 . S
C337 O331 1.250 . S
O338 Mg320 2.030 . S
O338 C332 1.248 . S
O339 Mg322 2.057 1_655 S
O339 C332 1.264 . S
C340 C341 1.391 . S
C340 C342 1.394 . S
C340 H356 0.931 . S
C341 C340 1.391 . S
C341 C345 1.376 . S
C342 C340 1.394 . S
C342 C343 1.369 . S
C342 C346 1.531 . S
C343 C342 1.369 . S
C343 C344 1.410 . S
C343 C351 1.503 . S
C344 C343 1.410 . S
C344 C345 1.392 . S
C344 C347 1.511 . S
C345 C341 1.376 . S
C345 C344 1.392 . S
C345 H357 0.929 . S
C346 C342 1.531 . S
C346 H358 0.960 . S
C346 H359 0.962 . S
C346 H360 0.960 . S
C347 C344 1.511 . S
C347 H361 0.961 . S
C347 H362 0.961 . S
C347 H363 0.961 . S
C348 C349 1.370 . S
C348 C350 1.363 . S
C348 H364 0.931 . S
C349 C348 1.370 . S
C349 C353 1.408 . S
C350 C348 1.363 . S
C350 C351 1.370 . S
C350 C354 1.524 . S
C351 C343 1.503 . S
C351 C350 1.370 . S
C351 C352 1.403 . S
C352 C351 1.403 . S
C352 C353 1.404 . S
C352 C355 1.539 . S
C353 C349 1.408 . S
C353 C352 1.404 . S
C353 H365 0.930 . S
C354 C350 1.524 . S
C354 H366 0.956 . S
C354 H367 0.961 . S
C354 H368 0.961 . S
C355 C352 1.539 . S
C355 H369 0.958 . S
C355 H370 0.961 . S
C355 H371 0.960 . S
H356 C340 0.931 . S
H357 C345 0.929 . S
H358 C346 0.960 . S
H359 C346 0.962 . S
H360 C346 0.960 . S
H361 C347 0.961 . S
H362 C347 0.961 . S
H363 C347 0.961 . S
H364 C348 0.931 . S
H365 C353 0.930 . S
H366 C354 0.956 . S
H367 C354 0.961 . S
H368 C354 0.961 . S
H369 C355 0.958 . S
H370 C355 0.961 . S
H371 C355 0.960 . S
C372 C373 1.391 . S
C372 C374 1.394 . S
C372 H388 0.931 . S
C373 C372 1.391 . S
C373 C377 1.376 . S
C374 C372 1.394 . S
C374 C375 1.369 . S
C374 C378 1.531 . S
C375 C374 1.369 . S
C375 C376 1.410 . S
C375 C383 1.503 . S
C376 C375 1.410 . S
C376 C377 1.392 . S
C376 C379 1.511 . S
C377 C373 1.376 . S
C377 C376 1.392 . S
C377 H389 0.929 . S
C378 C374 1.531 . S
C378 H390 0.960 . S
C378 H391 0.962 . S
C378 H392 0.960 . S
C379 C376 1.511 . S
C379 H393 0.961 . S
C379 H394 0.961 . S
C379 H395 0.961 . S
C380 C381 1.370 . S
C380 C382 1.363 . S
C380 H396 0.931 . S
C381 C380 1.370 . S
C381 C385 1.408 . S
C382 C380 1.363 . S
C382 C383 1.370 . S
C382 C386 1.524 . S
C383 C375 1.503 . S
C383 C382 1.370 . S
C383 C384 1.403 . S
C384 C383 1.403 . S
C384 C385 1.404 . S
C384 C387 1.539 . S
C385 C381 1.408 . S
C385 C384 1.404 . S
C385 H397 0.930 . S
C386 C382 1.524 . S
C386 H398 0.956 . S
C386 H399 0.961 . S
C386 H400 0.961 . S
C387 C384 1.539 . S
C387 H401 0.958 . S
C387 H402 0.961 . S
C387 H403 0.960 . S
H388 C372 0.931 . S
H389 C377 0.929 . S
H390 C378 0.960 . S
H391 C378 0.962 . S
H392 C378 0.960 . S
H393 C379 0.961 . S
H394 C379 0.961 . S
H395 C379 0.961 . S
H396 C380 0.931 . S
H397 C385 0.930 . S
H398 C386 0.956 . S
H399 C386 0.961 . S
H400 C386 0.961 . S
H401 C387 0.958 . S
H402 C387 0.961 . S
H403 C387 0.960 . S
C404 C405 1.391 . S
C404 C406 1.394 . S
C404 H420 0.931 . S
C405 C404 1.391 . S
C405 C409 1.376 . S
C406 C404 1.394 . S
C406 C407 1.369 . S
C406 C410 1.531 . S
C407 C406 1.369 . S
C407 C408 1.410 . S
C407 C415 1.503 . S
C408 C407 1.410 . S
C408 C409 1.392 . S
C408 C411 1.511 . S
C409 C405 1.376 . S
C409 C408 1.392 . S
C409 H421 0.929 . S
C410 C406 1.531 . S
C410 H422 0.960 . S
C410 H423 0.962 . S
C410 H424 0.960 . S
C411 C408 1.511 . S
C411 H425 0.961 . S
C411 H426 0.961 . S
C411 H427 0.961 . S
C412 C413 1.370 . S
C412 C414 1.363 . S
C412 H428 0.931 . S
C413 C412 1.370 . S
C413 C417 1.408 . S
C414 C412 1.363 . S
C414 C415 1.370 . S
C414 C418 1.524 . S
C415 C407 1.503 . S
C415 C414 1.370 . S
C415 C416 1.403 . S
C416 C415 1.403 . S
C416 C417 1.404 . S
C416 C419 1.539 . S
C417 C413 1.408 . S
C417 C416 1.404 . S
C417 H429 0.930 . S
C418 C414 1.524 . S
C418 H430 0.956 . S
C418 H431 0.961 . S
C418 H432 0.961 . S
C419 C416 1.539 . S
C419 H433 0.958 . S
C419 H434 0.961 . S
C419 H435 0.960 . S
H420 C404 0.931 . S
H421 C409 0.929 . S
H422 C410 0.960 . S
H423 C410 0.962 . S
H424 C410 0.960 . S
H425 C411 0.961 . S
H426 C411 0.961 . S
H427 C411 0.961 . S
H428 C412 0.931 . S
H429 C417 0.930 . S
H430 C418 0.956 . S
H431 C418 0.961 . S
H432 C418 0.961 . S
H433 C419 0.958 . S
H434 C419 0.961 . S
H435 C419 0.960 . S
C436 C437 1.391 1_455 S
C436 C438 1.394 . S
C436 H452 0.931 . S
C437 C436 1.391 1_655 S
C437 C441 1.376 . S
C438 C436 1.394 . S
C438 C439 1.369 1_455 S
C438 C442 1.531 . S
C439 C438 1.369 1_655 S
C439 C440 1.410 . S
C439 C447 1.503 . S
C440 C439 1.410 . S
C440 C441 1.392 . S
C440 C443 1.511 . S
C441 C437 1.376 . S
C441 C440 1.392 . S
C441 H453 0.929 . S
C442 C438 1.531 . S
C442 H454 0.960 . S
C442 H455 0.962 . S
C442 H456 0.960 . S
C443 C440 1.511 . S
C443 H457 0.961 . S
C443 H458 0.961 . S
C443 H459 0.961 . S
C444 C445 1.370 1_455 S
C444 C446 1.363 . S
C444 H460 0.931 . S
C445 C444 1.370 1_655 S
C445 C449 1.408 . S
C446 C444 1.363 . S
C446 C447 1.370 1_455 S
C446 C450 1.524 . S
C447 C439 1.503 . S
C447 C446 1.370 1_655 S
C447 C448 1.403 . S
C448 C447 1.403 . S
C448 C449 1.404 . S
C448 C451 1.539 . S
C449 C445 1.408 . S
C449 C448 1.404 . S
C449 H461 0.930 . S
C450 C446 1.524 . S
C450 H462 0.956 . S
C450 H463 0.961 . S
C450 H464 0.961 . S
C451 C448 1.539 . S
C451 H465 0.958 . S
C451 H466 0.961 . S
C451 H467 0.960 . S
H452 C436 0.931 . S
H453 C441 0.929 . S
H454 C442 0.960 . S
H455 C442 0.962 . S
H456 C442 0.960 . S
H457 C443 0.961 . S
H458 C443 0.961 . S
H459 C443 0.961 . S
H460 C444 0.931 . S
H461 C449 0.930 . S
H462 C450 0.956 . S
H463 C450 0.961 . S
H464 C450 0.961 . S
H465 C451 0.958 . S
H466 C451 0.961 . S
H467 C451 0.960 . S
C468 C469 1.391 1_556 S
C468 C470 1.394 . S
C468 H484 0.931 . S
C469 C468 1.391 1_554 S
C469 C473 1.376 . S
C470 C468 1.394 . S
C470 C471 1.369 . S
C470 C474 1.531 . S
C471 C470 1.369 . S
C471 C472 1.410 . S
C471 C479 1.503 . S
C472 C471 1.410 . S
C472 C473 1.392 1_556 S
C472 C475 1.511 1_556 S
C473 C469 1.376 . S
C473 C472 1.392 1_554 S
C473 H485 0.929 . S
C474 C470 1.531 . S
C474 H486 0.960 . S
C474 H487 0.962 . S
C474 H488 0.960 . S
C475 C472 1.511 1_554 S
C475 H489 0.961 . S
C475 H490 0.961 1_554 S
C475 H491 0.961 . S
C476 C477 1.370 . S
C476 C478 1.363 . S
C476 H492 0.931 . S
C477 C476 1.370 . S
C477 C481 1.408 . S
C478 C476 1.363 . S
C478 C479 1.370 . S
C478 C482 1.524 . S
C479 C471 1.503 . S
C479 C478 1.370 . S
C479 C480 1.403 . S
C480 C479 1.403 . S
C480 C481 1.404 . S
C480 C483 1.539 1_565 S
C481 C477 1.408 . S
C481 C480 1.404 . S
C481 H493 0.930 1_565 S
C482 C478 1.524 . S
C482 H494 0.956 . S
C482 H495 0.961 . S
C482 H496 0.961 . S
C483 C480 1.539 1_545 S
C483 H497 0.958 . S
C483 H498 0.961 . S
C483 H499 0.960 1_546 S
H484 C468 0.931 . S
H485 C473 0.929 . S
H486 C474 0.960 . S
H487 C474 0.962 . S
H488 C474 0.960 . S
H489 C475 0.961 . S
H490 C475 0.961 1_556 S
H491 C475 0.961 . S
H492 C476 0.931 . S
H493 C481 0.930 1_545 S
H494 C482 0.956 . S
H495 C482 0.961 . S
H496 C482 0.961 . S
H497 C483 0.958 . S
H498 C483 0.961 . S
H499 C483 0.960 1_564 S
C500 C501 1.391 1_556 S
C500 C502 1.394 . S
C500 H516 0.931 . S
C501 C500 1.391 1_554 S
C501 C505 1.376 . S
C502 C500 1.394 . S
C502 C503 1.369 . S
C502 C506 1.531 . S
C503 C502 1.369 . S
C503 C504 1.410 1_556 S
C503 C511 1.503 . S
C504 C503 1.410 1_554 S
C504 C505 1.392 . S
C504 C507 1.511 . S
C505 C501 1.376 . S
C505 C504 1.392 . S
C505 H517 0.929 . S
C506 C502 1.531 . S
C506 H518 0.960 . S
C506 H519 0.962 . S
C506 H520 0.960 . S
C507 C504 1.511 . S
C507 H521 0.961 . S
C507 H522 0.961 . S
C507 H523 0.961 . S
C508 C509 1.370 . S
C508 C510 1.363 . S
C508 H524 0.931 . S
C509 C508 1.370 . S
C509 C513 1.408 . S
C510 C508 1.363 . S
C510 C511 1.370 . S
C510 C514 1.524 . S
C511 C503 1.503 . S
C511 C510 1.370 . S
C511 C512 1.403 . S
C512 C511 1.403 . S
C512 C513 1.404 . S
C512 C515 1.539 . S
C513 C509 1.408 . S
C513 C512 1.404 . S
C513 H525 0.930 . S
C514 C510 1.524 . S
C514 H526 0.956 . S
C514 H527 0.961 . S
C514 H528 0.961 . S
C515 C512 1.539 . S
C515 H529 0.958 . S
C515 H530 0.961 . S
C515 H531 0.960 . S
H516 C500 0.931 . S
H517 C505 0.929 . S
H518 C506 0.960 . S
H519 C506 0.962 . S
H520 C506 0.960 . S
H521 C507 0.961 . S
H522 C507 0.961 . S
H523 C507 0.961 . S
H524 C508 0.931 . S
H525 C513 0.930 . S
H526 C514 0.956 . S
H527 C514 0.961 . S
H528 C514 0.961 . S
H529 C515 0.958 . S
H530 C515 0.961 . S
H531 C515 0.960 . S
C532 C533 1.391 1_556 S
C532 C534 1.394 . S
C532 H548 0.931 1_556 S
C533 C532 1.391 1_554 S
C533 C537 1.376 1_554 S
C534 C532 1.394 . S
C534 C535 1.369 . S
C534 C538 1.531 . S
C535 C534 1.369 . S
C535 C536 1.410 . S
C535 C543 1.503 . S
C536 C535 1.410 . S
C536 C537 1.392 . S
C536 C539 1.511 . S
C537 C533 1.376 1_556 S
C537 C536 1.392 . S
C537 H549 0.929 . S
C538 C534 1.531 . S
C538 H550 0.960 . S
C538 H551 0.962 . S
C538 H552 0.960 . S
C539 C536 1.511 . S
C539 H553 0.961 . S
C539 H554 0.961 . S
C539 H555 0.961 . S
C540 C541 1.370 . S
C540 C542 1.363 . S
C540 H556 0.931 . S
C541 C540 1.370 . S
C541 C545 1.408 . S
C542 C540 1.363 . S
C542 C543 1.370 . S
C542 C546 1.524 . S
C543 C535 1.503 . S
C543 C542 1.370 . S
C543 C544 1.403 . S
C544 C543 1.403 . S
C544 C545 1.404 . S
C544 C547 1.539 . S
C545 C541 1.408 . S
C545 C544 1.404 . S
C545 H557 0.930 . S
C546 C542 1.524 . S
C546 H558 0.956 1_556 S
C546 H559 0.961 . S
C546 H560 0.961 1_556 S
C547 C544 1.539 . S
C547 H561 0.958 . S
C547 H562 0.961 . S
C547 H563 0.960 . S
H548 C532 0.931 1_554 S
H549 C537 0.929 . S
H550 C538 0.960 . S
H551 C538 0.962 . S
H552 C538 0.960 . S
H553 C539 0.961 . S
H554 C539 0.961 . S
H555 C539 0.961 . S
H556 C540 0.931 . S
H557 C545 0.930 . S
H558 C546 0.956 1_554 S
H559 C546 0.961 . S
H560 C546 0.961 1_554 S
H561 C547 0.958 . S
H562 C547 0.961 . S
H563 C547 0.960 . S
C564 C565 1.391 1_556 S
C564 C566 1.394 . S
C564 H580 0.931 . S
C565 C564 1.391 1_554 S
C565 C569 1.376 . S
C566 C564 1.394 . S
C566 C567 1.369 . S
C566 C570 1.531 . S
C567 C566 1.369 . S
C567 C568 1.410 1_556 S
C567 C575 1.503 . S
C568 C567 1.410 1_554 S
C568 C569 1.392 . S
C568 C571 1.511 . S
C569 C565 1.376 . S
C569 C568 1.392 . S
C569 H581 0.929 . S
C570 C566 1.531 . S
C570 H582 0.960 . S
C570 H583 0.962 1_455 S
C570 H584 0.960 . S
C571 C568 1.511 . S
C571 H585 0.961 1_455 S
C571 H586 0.951 1_455 S
C571 H587 0.961 . S
C572 C573 1.370 1_655 S
C572 C574 1.363 . S
C572 H588 0.931 . S
C573 C572 1.370 1_455 S
C573 C577 1.408 . S
C574 C572 1.363 . S
C574 C575 1.370 1_655 S
C574 C578 1.524 . S
C575 C567 1.503 . S
C575 C574 1.370 1_455 S
C575 C576 1.403 . S
C576 C575 1.403 . S
C576 C577 1.404 . S
C576 C579 1.539 . S
C577 C573 1.408 . S
C577 C576 1.404 . S
C577 H589 0.930 . S
C578 C574 1.524 . S
C578 H590 0.956 . S
C578 H591 0.961 . S
C578 H592 0.961 . S
C579 C576 1.539 . S
C579 H593 0.958 . S
C579 H594 0.961 . S
C579 H595 0.960 . S
H580 C564 0.931 . S
H581 C569 0.929 . S
H582 C570 0.960 . S
H583 C570 0.962 1_655 S
H584 C570 0.960 . S
H585 C571 0.961 1_655 S
H586 C571 0.951 1_655 S
H587 C571 0.961 . S
H588 C572 0.931 . S
H589 C577 0.930 . S
H590 C578 0.956 . S
H591 C578 0.961 . S
H592 C578 0.961 . S
H593 C579 0.958 . S
H594 C579 0.961 . S
H595 C579 0.960 . S
C596 C597 1.406 . S
C596 C598 1.394 . S
C596 H612 0.931 . S
C597 C596 1.406 . S
C597 C601 1.371 1_655 S
C598 C596 1.394 . S
C598 C599 1.369 . S
C598 C602 1.531 . S
C599 C598 1.369 . S
C599 C600 1.410 . S
C599 C607 1.503 . S
C600 C599 1.410 . S
C600 C601 1.392 1_655 S
C600 C603 1.511 1_655 S
C601 C597 1.371 1_455 S
C601 C600 1.392 1_455 S
C601 H613 0.929 . S
C602 C598 1.531 . S
C602 H614 0.960 . S
C602 H615 0.962 . S
C602 H616 0.960 . S
C603 C600 1.511 1_455 S
C603 H617 0.961 . S
C603 H618 0.961 . S
C603 H619 0.961 1_455 S
C604 C605 1.370 1_455 S
C604 C606 1.363 . S
C604 H620 0.931 . S
C605 C604 1.370 1_655 S
C605 C609 1.408 . S
C606 C604 1.363 . S
C606 C607 1.370 1_455 S
C606 C610 1.524 . S
C607 C599 1.503 . S
C607 C606 1.370 1_655 S
C607 C608 1.403 . S
C608 C607 1.403 . S
C608 C609 1.404 . S
C608 C611 1.539 . S
C609 C605 1.408 . S
C609 C608 1.404 . S
C609 H621 0.930 . S
C610 C606 1.524 . S
C610 H622 0.956 . S
C610 H623 0.961 . S
C610 H624 0.961 . S
C611 C608 1.539 . S
C611 H625 0.958 . S
C611 H626 0.961 . S
C611 H627 0.960 . S
H612 C596 0.931 . S
H613 C601 0.929 . S
H614 C602 0.960 . S
H615 C602 0.962 . S
H616 C602 0.960 . S
H617 C603 0.961 . S
H618 C603 0.961 . S
H619 C603 0.961 1_655 S
H620 C604 0.931 . S
H621 C609 0.930 . S
H622 C610 0.956 . S
H623 C610 0.961 . S
H624 C610 0.961 . S
H625 C611 0.958 . S
H626 C611 0.961 . S
H627 C611 0.960 . S
C628 C629 1.391 . S
C628 C630 1.394 . S
C628 H644 0.931 . S
C629 C628 1.391 . S
C629 C633 1.376 . S
C630 C628 1.394 . S
C630 C631 1.369 . S
C630 C634 1.531 . S
C631 C630 1.369 . S
C631 C632 1.410 . S
C631 C639 1.503 . S
C632 C631 1.410 . S
C632 C633 1.392 . S
C632 C635 1.511 . S
C633 C629 1.376 . S
C633 C632 1.392 . S
C633 H645 0.929 . S
C634 C630 1.531 . S
C634 H646 0.960 . S
C634 H647 0.962 . S
C634 H648 0.960 . S
C635 C632 1.511 . S
C635 H649 0.961 . S
C635 H650 0.961 . S
C635 H651 0.961 . S
C636 C637 1.370 . S
C636 C638 1.363 . S
C636 H652 0.931 . S
C637 C636 1.370 . S
C637 C641 1.408 . S
C638 C636 1.363 . S
C638 C639 1.370 . S
C638 C642 1.524 . S
C639 C631 1.503 . S
C639 C638 1.370 . S
C639 C640 1.403 . S
C640 C639 1.403 . S
C640 C641 1.404 . S
C640 C643 1.539 . S
C641 C637 1.408 . S
C641 C640 1.404 . S
C641 H653 0.930 . S
C642 C638 1.524 . S
C642 H654 0.956 . S
C642 H655 0.961 . S
C642 H656 0.961 . S
C643 C640 1.539 . S
C643 H657 0.958 . S
C643 H658 0.961 . S
C643 H659 0.960 . S
H644 C628 0.931 . S
H645 C633 0.929 . S
H646 C634 0.960 . S
H647 C634 0.962 . S
H648 C634 0.960 . S
H649 C635 0.961 . S
H650 C635 0.961 . S
H651 C635 0.961 . S
H652 C636 0.931 . S
H653 C641 0.930 . S
H654 C642 0.956 . S
H655 C642 0.961 . S
H656 C642 0.961 . S
H657 C643 0.958 . S
H658 C643 0.961 . S
H659 C643 0.960 . S
C660 C661 1.391 . S
C660 C662 1.394 . S
C660 H676 0.931 . S
C661 C660 1.391 . S
C661 C665 1.376 . S
C662 C660 1.394 . S
C662 C663 1.369 . S
C662 C666 1.531 . S
C663 C662 1.369 . S
C663 C664 1.410 . S
C663 C671 1.503 . S
C664 C663 1.410 . S
C664 C665 1.392 . S
C664 C667 1.511 . S
C665 C661 1.376 . S
C665 C664 1.392 . S
C665 H677 0.929 . S
C666 C662 1.531 . S
C666 H678 0.960 . S
C666 H679 0.962 . S
C666 H680 0.960 . S
C667 C664 1.511 . S
C667 H681 0.961 . S
C667 H682 0.961 . S
C667 H683 0.961 . S
C668 C669 1.370 . S
C668 C670 1.363 . S
C668 H684 0.931 . S
C669 C668 1.370 . S
C669 C673 1.408 . S
C670 C668 1.363 . S
C670 C671 1.370 . S
C670 C674 1.524 . S
C671 C663 1.503 . S
C671 C670 1.370 . S
C671 C672 1.403 . S
C672 C671 1.403 . S
C672 C673 1.404 . S
C672 C675 1.539 . S
C673 C669 1.408 . S
C673 C672 1.404 . S
C673 H685 0.930 . S
C674 C670 1.524 . S
C674 H686 0.956 . S
C674 H687 0.961 . S
C674 H688 0.961 . S
C675 C672 1.539 . S
C675 H689 0.958 . S
C675 H690 0.961 . S
C675 H691 0.960 . S
H676 C660 0.931 . S
H677 C665 0.929 . S
H678 C666 0.960 . S
H679 C666 0.962 . S
H680 C666 0.960 . S
H681 C667 0.961 . S
H682 C667 0.961 . S
H683 C667 0.961 . S
H684 C668 0.931 . S
H685 C673 0.930 . S
H686 C674 0.956 . S
H687 C674 0.961 . S
H688 C674 0.961 . S
H689 C675 0.958 . S
H690 C675 0.961 . S
H691 C675 0.960 . S
C692 C693 1.391 . S
C692 C694 1.394 . S
C692 H708 0.931 . S
C693 C692 1.391 . S
C693 C697 1.376 . S
C694 C692 1.394 . S
C694 C695 1.369 . S
C694 C698 1.531 . S
C695 C694 1.369 . S
C695 C696 1.410 . S
C695 C703 1.503 . S
C696 C695 1.410 . S
C696 C697 1.392 . S
C696 C699 1.511 . S
C697 C693 1.376 . S
C697 C696 1.392 . S
C697 H709 0.929 . S
C698 C694 1.531 . S
C698 H710 0.960 . S
C698 H711 0.962 . S
C698 H712 0.960 . S
C699 C696 1.511 . S
C699 H713 0.961 . S
C699 H714 0.961 . S
C699 H715 0.961 . S
C700 C701 1.370 . S
C700 C702 1.363 . S
C700 H716 0.931 . S
C701 C700 1.370 . S
C701 C705 1.408 . S
C702 C700 1.363 . S
C702 C703 1.370 . S
C702 C706 1.524 . S
C703 C695 1.503 . S
C703 C702 1.370 . S
C703 C704 1.403 . S
C704 C703 1.403 . S
C704 C705 1.404 . S
C704 C707 1.539 . S
C705 C701 1.408 . S
C705 C704 1.404 . S
C705 H717 0.930 . S
C706 C702 1.524 . S
C706 H718 0.956 . S
C706 H719 0.961 . S
C706 H720 0.961 . S
C707 C704 1.539 . S
C707 H721 0.958 . S
C707 H722 0.961 . S
C707 H723 0.960 . S
H708 C692 0.931 . S
H709 C697 0.929 . S
H710 C698 0.960 . S
H711 C698 0.962 . S
H712 C698 0.960 . S
H713 C699 0.961 . S
H714 C699 0.961 . S
H715 C699 0.961 . S
H716 C700 0.931 . S
H717 C705 0.930 . S
H718 C706 0.956 . S
H719 C706 0.961 . S
H720 C706 0.961 . S
H721 C707 0.958 . S
H722 C707 0.961 . S
H723 C707 0.960 . S
C724 C725 1.391 1_455 S
C724 C726 1.394 . S
C724 H740 0.931 . S
C725 C724 1.391 1_655 S
C725 C729 1.376 . S
C726 C724 1.394 . S
C726 C727 1.369 . S
C726 C730 1.531 . S
C727 C726 1.369 . S
C727 C728 1.410 1_455 S
C727 C735 1.503 . S
C728 C727 1.410 1_655 S
C728 C729 1.392 . S
C728 C731 1.511 . S
C729 C725 1.376 . S
C729 C728 1.392 . S
C729 H741 0.929 1_556 S
C730 C726 1.531 . S
C730 H742 0.960 . S
C730 H743 0.962 . S
C730 H744 0.960 . S
C731 C728 1.511 . S
C731 H745 0.961 1_556 S
C731 H746 0.961 . S
C731 H747 0.961 . S
C732 C733 1.370 . S
C732 C734 1.363 . S
C732 H748 0.931 . S
C733 C732 1.370 . S
C733 C737 1.408 1_455 S
C734 C732 1.363 . S
C734 C735 1.370 . S
C734 C738 1.524 . S
C735 C727 1.503 . S
C735 C734 1.370 . S
C735 C736 1.403 1_455 S
C736 C735 1.403 1_655 S
C736 C737 1.404 . S
C736 C739 1.539 . S
C737 C733 1.408 1_655 S
C737 C736 1.404 . S
C737 H749 0.930 . S
C738 C734 1.524 . S
C738 H750 0.956 . S
C738 H751 0.961 . S
C738 H752 0.961 . S
C739 C736 1.539 . S
C739 H753 0.958 . S
C739 H754 0.961 . S
C739 H755 0.960 . S
H740 C724 0.931 . S
H741 C729 0.929 1_554 S
H742 C730 0.960 . S
H743 C730 0.962 . S
H744 C730 0.960 . S
H745 C731 0.961 1_554 S
H746 C731 0.961 . S
H747 C731 0.961 . S
H748 C732 0.931 . S
H749 C737 0.930 . S
H750 C738 0.956 . S
H751 C738 0.961 . S
H752 C738 0.961 . S
H753 C739 0.958 . S
H754 C739 0.961 . S
H755 C739 0.960 . S
C756 C757 1.391 . S
C756 C758 1.394 . S
C756 H772 0.931 1_556 S
C757 C756 1.391 . S
C757 C761 1.376 . S
C758 C756 1.394 . S
C758 C759 1.369 . S
C758 C762 1.531 . S
C759 C758 1.369 . S
C759 C760 1.410 . S
C759 C767 1.503 . S
C760 C759 1.410 . S
C760 C761 1.392 . S
C760 C763 1.511 . S
C761 C757 1.376 . S
C761 C760 1.392 . S
C761 H773 0.929 . S
C762 C758 1.531 . S
C762 H774 0.960 . S
C762 H775 0.962 . S
C762 H776 0.960 1_556 S
C763 C760 1.511 . S
C763 H777 0.961 . S
C763 H778 0.961 . S
C763 H779 0.961 . S
C764 C765 1.370 . S
C764 C766 1.363 . S
C764 H780 0.931 . S
C765 C764 1.370 . S
C765 C769 1.408 1_565 S
C766 C764 1.363 . S
C766 C767 1.370 . S
C766 C770 1.524 . S
C767 C759 1.503 . S
C767 C766 1.370 . S
C767 C768 1.403 . S
C768 C767 1.403 . S
C768 C769 1.404 1_565 S
C768 C771 1.539 1_565 S
C769 C765 1.408 1_545 S
C769 C768 1.404 1_545 S
C769 H781 0.930 . S
C770 C766 1.524 . S
C770 H782 0.956 . S
C770 H783 0.961 . S
C770 H784 0.961 . S
C771 C768 1.539 1_545 S
C771 H785 0.958 . S
C771 H786 0.961 . S
C771 H787 0.960 1_545 S
H772 C756 0.931 1_554 S
H773 C761 0.929 . S
H774 C762 0.960 . S
H775 C762 0.962 . S
H776 C762 0.960 1_554 S
H777 C763 0.961 . S
H778 C763 0.961 . S
H779 C763 0.961 . S
H780 C764 0.931 . S
H781 C769 0.930 . S
H782 C770 0.956 . S
H783 C770 0.961 . S
H784 C770 0.961 . S
H785 C771 0.958 . S
H786 C771 0.961 . S
H787 C771 0.960 1_565 S
C788 C789 1.391 . S
C788 C790 1.394 . S
C788 H804 0.931 . S
C789 C788 1.391 . S
C789 C793 1.376 . S
C790 C788 1.394 . S
C790 C791 1.369 . S
C790 C794 1.531 . S
C791 C790 1.369 . S
C791 C792 1.410 . S
C791 C799 1.503 . S
C792 C791 1.410 . S
C792 C793 1.392 . S
C792 C795 1.511 . S
C793 C789 1.376 . S
C793 C792 1.392 . S
C793 H805 0.929 . S
C794 C790 1.531 . S
C794 H806 0.960 . S
C794 H807 0.962 . S
C794 H808 0.960 . S
C795 C792 1.511 . S
C795 H809 0.961 . S
C795 H810 0.961 . S
C795 H811 0.961 . S
C796 C797 1.370 . S
C796 C798 1.363 . S
C796 H812 0.931 . S
C797 C796 1.370 . S
C797 C801 1.408 . S
C798 C796 1.363 . S
C798 C799 1.370 . S
C798 C802 1.524 . S
C799 C791 1.503 . S
C799 C798 1.370 . S
C799 C800 1.403 . S
C800 C799 1.403 . S
C800 C801 1.404 . S
C800 C803 1.539 . S
C801 C797 1.408 . S
C801 C800 1.404 . S
C801 H813 0.930 . S
C802 C798 1.524 . S
C802 H814 0.956 . S
C802 H815 0.961 . S
C802 H816 0.961 1_556 S
C803 C800 1.539 . S
C803 H817 0.958 . S
C803 H818 0.961 . S
C803 H819 0.960 . S
H804 C788 0.931 . S
H805 C793 0.929 . S
H806 C794 0.960 . S
H807 C794 0.962 . S
H808 C794 0.960 . S
H809 C795 0.961 . S
H810 C795 0.961 . S
H811 C795 0.961 . S
H812 C796 0.931 . S
H813 C801 0.930 . S
H814 C802 0.956 . S
H815 C802 0.961 . S
H816 C802 0.961 1_554 S
H817 C803 0.958 . S
H818 C803 0.961 . S
H819 C803 0.960 . S
C820 C821 1.391 . S
C820 C822 1.394 . S
C820 H836 0.931 . S
C821 C820 1.391 . S
C821 C825 1.376 . S
C822 C820 1.394 . S
C822 C823 1.369 . S
C822 C826 1.531 . S
C823 C822 1.369 . S
C823 C824 1.410 . S
C823 C831 1.503 . S
C824 C823 1.410 . S
C824 C825 1.392 . S
C824 C827 1.511 . S
C825 C821 1.376 . S
C825 C824 1.392 . S
C825 H837 0.929 . S
C826 C822 1.531 . S
C826 H838 0.960 . S
C826 H839 0.962 . S
C826 H840 0.960 . S
C827 C824 1.511 . S
C827 H841 0.961 1_556 S
C827 H842 0.961 . S
C827 H843 0.961 . S
C828 C829 1.370 . S
C828 C830 1.363 . S
C828 H844 0.931 . S
C829 C828 1.370 . S
C829 C833 1.408 . S
C830 C828 1.363 . S
C830 C831 1.370 . S
C830 C834 1.524 . S
C831 C823 1.503 . S
C831 C830 1.370 . S
C831 C832 1.403 . S
C832 C831 1.403 . S
C832 C833 1.404 . S
C832 C835 1.539 . S
C833 C829 1.408 . S
C833 C832 1.404 . S
C833 H845 0.930 . S
C834 C830 1.524 . S
C834 H846 0.956 . S
C834 H847 0.961 . S
C834 H848 0.961 . S
C835 C832 1.539 . S
C835 H849 0.958 . S
C835 H850 0.961 . S
C835 H851 0.960 . S
H836 C820 0.931 . S
H837 C825 0.929 . S
H838 C826 0.960 . S
H839 C826 0.962 . S
H840 C826 0.960 . S
H841 C827 0.961 1_554 S
H842 C827 0.961 . S
H843 C827 0.961 . S
H844 C828 0.931 . S
H845 C833 0.930 . S
H846 C834 0.956 . S
H847 C834 0.961 . S
H848 C834 0.961 . S
H849 C835 0.958 . S
H850 C835 0.961 . S
H851 C835 0.960 . S
C852 C853 1.391 1_656 S
C852 C854 1.394 . S
C852 H868 0.931 . S
C853 C852 1.391 1_454 S
C853 C857 1.376 . S
C854 C852 1.394 . S
C854 C855 1.369 1_655 S
C854 C858 1.531 . S
C855 C854 1.369 1_455 S
C855 C856 1.410 1_556 S
C855 C863 1.503 . S
C856 C855 1.410 1_554 S
C856 C857 1.392 . S
C856 C859 1.511 . S
C857 C853 1.376 . S
C857 C856 1.392 . S
C857 H869 0.929 . S
C858 C854 1.531 . S
C858 H870 0.960 . S
C858 H871 0.962 . S
C858 H872 0.960 . S
C859 C856 1.511 . S
C859 H873 0.961 . S
C859 H874 0.961 . S
C859 H875 0.961 . S
C860 C861 1.370 1_655 S
C860 C862 1.363 . S
C860 H876 0.931 . S
C861 C860 1.370 1_455 S
C861 C865 1.408 . S
C862 C860 1.363 . S
C862 C863 1.370 1_655 S
C862 C866 1.524 1_556 S
C863 C855 1.503 . S
C863 C862 1.370 1_455 S
C863 C864 1.403 . S
C864 C863 1.403 . S
C864 C865 1.404 . S
C864 C867 1.539 . S
C865 C861 1.408 . S
C865 C864 1.404 . S
C865 H877 0.930 . S
C866 C862 1.524 1_554 S
C866 H878 0.956 . S
C866 H879 0.961 . S
C866 H880 0.961 . S
C867 C864 1.539 . S
C867 H881 0.958 . S
C867 H882 0.961 . S
C867 H883 0.960 . S
H868 C852 0.931 . S
H869 C857 0.929 . S
H870 C858 0.960 . S
H871 C858 0.962 . S
H872 C858 0.960 . S
H873 C859 0.961 . S
H874 C859 0.961 . S
H875 C859 0.961 . S
H876 C860 0.931 . S
H877 C865 0.930 . S
H878 C866 0.956 . S
H879 C866 0.961 . S
H880 C866 0.961 . S
H881 C867 0.958 . S
H882 C867 0.961 . S
H883 C867 0.960 . S
C884 C885 1.391 1_556 S
C884 C886 1.394 . S
C884 H900 0.931 . S
C885 C884 1.391 1_554 S
C885 C889 1.376 . S
C886 C884 1.394 . S
C886 C887 1.369 . S
C886 C890 1.531 . S
C887 C886 1.369 . S
C887 C888 1.410 1_556 S
C887 C895 1.503 . S
C888 C887 1.410 1_554 S
C888 C889 1.392 . S
C888 C891 1.511 . S
C889 C885 1.376 . S
C889 C888 1.392 . S
C889 H901 0.929 . S
C890 C886 1.531 . S
C890 H902 0.960 . S
C890 H903 0.962 . S
C890 H904 0.960 . S
C891 C888 1.511 . S
C891 H905 0.961 . S
C891 H906 0.961 . S
C891 H907 0.961 . S
C892 C893 1.370 . S
C892 C894 1.363 . S
C892 H908 0.931 . S
C893 C892 1.370 . S
C893 C897 1.408 . S
C894 C892 1.363 . S
C894 C895 1.370 . S
C894 C898 1.524 . S
C895 C887 1.503 . S
C895 C894 1.370 . S
C895 C896 1.403 . S
C896 C895 1.403 . S
C896 C897 1.404 . S
C896 C899 1.539 . S
C897 C893 1.408 . S
C897 C896 1.404 . S
C897 H909 0.930 . S
C898 C894 1.524 . S
C898 H910 0.956 . S
C898 H911 0.961 1_556 S
C898 H912 0.961 . S
C899 C896 1.539 . S
C899 H913 0.958 . S
C899 H914 0.961 . S
C899 H915 0.960 . S
H900 C884 0.931 . S
H901 C889 0.929 . S
H902 C890 0.960 . S
H903 C890 0.962 . S
H904 C890 0.960 . S
H905 C891 0.961 . S
H906 C891 0.961 . S
H907 C891 0.961 . S
H908 C892 0.931 . S
H909 C897 0.930 . S
H910 C898 0.956 . S
H911 C898 0.961 1_554 S
H912 C898 0.961 . S
H913 C899 0.958 . S
H914 C899 0.961 . S
H915 C899 0.960 . S
C916 C917 1.391 . S
C916 C918 1.394 1_554 S
C916 H932 0.931 . S
C917 C916 1.391 . S
C917 C921 1.376 . S
C918 C916 1.394 1_556 S
C918 C919 1.369 . S
C918 C922 1.531 . S
C919 C918 1.369 . S
C919 C920 1.410 . S
C919 C927 1.503 . S
C920 C919 1.410 . S
C920 C921 1.392 1_556 S
C920 C923 1.511 . S
C921 C917 1.376 . S
C921 C920 1.392 1_554 S
C921 H933 0.929 . S
C922 C918 1.531 . S
C922 H934 0.960 . S
C922 H935 0.962 . S
C922 H936 0.960 . S
C923 C920 1.511 . S
C923 H937 0.961 1_556 S
C923 H938 0.961 . S
C923 H939 0.961 . S
C924 C925 1.370 . S
C924 C926 1.363 . S
C924 H940 0.931 . S
C925 C924 1.370 . S
C925 C929 1.408 . S
C926 C924 1.363 . S
C926 C927 1.370 . S
C926 C930 1.524 1_556 S
C927 C919 1.503 . S
C927 C926 1.370 . S
C927 C928 1.403 . S
C928 C927 1.403 . S
C928 C929 1.404 . S
C928 C931 1.539 . S
C929 C925 1.408 . S
C929 C928 1.404 . S
C929 H941 0.930 . S
C930 C926 1.524 1_554 S
C930 H942 0.956 . S
C930 H943 0.961 . S
C930 H944 0.961 . S
C931 C928 1.539 . S
C931 H945 0.958 . S
C931 H946 0.961 . S
C931 H947 0.960 . S
H932 C916 0.931 . S
H933 C921 0.929 . S
H934 C922 0.960 . S
H935 C922 0.962 . S
H936 C922 0.960 . S
H937 C923 0.961 1_554 S
H938 C923 0.961 . S
H939 C923 0.961 . S
H940 C924 0.931 . S
H941 C929 0.930 . S
H942 C930 0.956 . S
H943 C930 0.961 . S
H944 C930 0.961 . S
H945 C931 0.958 . S
H946 C931 0.961 . S
H947 C931 0.960 . S
C948 C949 1.391 1_556 S
C948 C950 1.394 . S
C948 H964 0.931 . S
C949 C948 1.391 1_554 S
C949 C953 1.376 . S
C950 C948 1.394 . S
C950 C951 1.369 . S
C950 C954 1.531 . S
C951 C950 1.369 . S
C951 C952 1.410 1_556 S
C951 C959 1.503 . S
C952 C951 1.410 1_554 S
C952 C953 1.392 . S
C952 C955 1.511 . S
C953 C949 1.376 . S
C953 C952 1.392 . S
C953 H965 0.929 . S
C954 C950 1.531 . S
C954 H966 0.960 . S
C954 H967 0.962 . S
C954 H968 0.960 . S
C955 C952 1.511 . S
C955 H969 0.961 . S
C955 H970 0.961 . S
C955 H971 0.961 . S
C956 C957 1.370 . S
C956 C958 1.363 . S
C956 H972 0.931 . S
C957 C956 1.370 . S
C957 C961 1.408 . S
C958 C956 1.363 . S
C958 C959 1.370 . S
C958 C962 1.524 . S
C959 C951 1.503 . S
C959 C958 1.370 . S
C959 C960 1.403 . S
C960 C959 1.403 . S
C960 C961 1.404 . S
C960 C963 1.539 . S
C961 C957 1.408 . S
C961 C960 1.404 . S
C961 H973 0.930 . S
C962 C958 1.524 . S
C962 H974 0.956 . S
C962 H975 0.961 1_556 S
C962 H976 0.961 . S
C963 C960 1.539 . S
C963 H977 0.958 . S
C963 H978 0.961 . S
C963 H979 0.960 . S
H964 C948 0.931 . S
H965 C953 0.929 . S
H966 C954 0.960 . S
H967 C954 0.962 . S
H968 C954 0.960 . S
H969 C955 0.961 . S
H970 C955 0.961 . S
H971 C955 0.961 . S
H972 C956 0.931 . S
H973 C961 0.930 . S
H974 C962 0.956 . S
H975 C962 0.961 1_554 S
H976 C962 0.961 . S
H977 C963 0.958 . S
H978 C963 0.961 . S
H979 C963 0.960 . S
C980 C981 1.402 . S
C980 C982 1.394 . S
C980 H996 0.931 . S
C981 C980 1.402 . S
C981 C985 1.365 1_655 S
C982 C980 1.394 . S
C982 C983 1.369 . S
C982 C986 1.531 . S
C983 C982 1.369 . S
C983 C984 1.410 1_655 S
C983 C991 1.503 . S
C984 C983 1.410 1_455 S
C984 C985 1.392 . S
C984 C987 1.511 . S
C985 C981 1.365 1_455 S
C985 C984 1.392 . S
C985 H997 0.929 . S
C986 C982 1.531 . S
C986 H998 0.960 . S
C986 H999 0.962 . S
C986 H1000 0.960 . S
C987 C984 1.511 . S
C987 H1001 0.961 . S
C987 H1002 0.961 . S
C987 H1003 0.961 . S
C988 C989 1.370 . S
C988 C990 1.363 . S
C988 H1004 0.931 . S
C989 C988 1.370 . S
C989 C993 1.403 1_655 S
C990 C988 1.363 . S
C990 C991 1.370 . S
C990 C994 1.524 . S
C991 C983 1.503 . S
C991 C990 1.370 . S
C991 C992 1.403 1_655 S
C992 C991 1.403 1_455 S
C992 C993 1.405 . S
C992 C995 1.539 . S
C993 C989 1.403 1_455 S
C993 C992 1.405 . S
C993 H1005 0.935 . S
C994 C990 1.524 . S
C994 H1006 0.956 . S
C994 H1007 0.961 . S
C994 H1008 0.961 . S
C995 C992 1.539 . S
C995 H1009 0.949 1_455 S
C995 H1010 0.961 . S
C995 H1011 0.960 . S
H996 C980 0.931 . S
H997 C985 0.929 . S
H998 C986 0.960 . S
H999 C986 0.962 . S
H1000 C986 0.960 . S
H1001 C987 0.961 . S
H1002 C987 0.961 . S
H1003 C987 0.961 . S
H1004 C988 0.931 . S
H1005 C993 0.935 . S
H1006 C994 0.956 . S
H1007 C994 0.961 . S
H1008 C994 0.961 . S
H1009 C995 0.949 1_655 S
H1010 C995 0.961 . S
H1011 C995 0.960 . S
C1012 C1013 1.391 . S
C1012 C1014 1.394 . S
C1012 H1028 0.931 . S
C1013 C1012 1.391 . S
C1013 C1017 1.376 . S
C1014 C1012 1.394 . S
C1014 C1015 1.369 . S
C1014 C1018 1.531 . S
C1015 C1014 1.369 . S
C1015 C1016 1.410 . S
C1015 C1023 1.503 . S
C1016 C1015 1.410 . S
C1016 C1017 1.392 . S
C1016 C1019 1.511 . S
C1017 C1013 1.376 . S
C1017 C1016 1.392 . S
C1017 H1029 0.929 . S
C1018 C1014 1.531 . S
C1018 H1030 0.960 . S
C1018 H1031 0.962 . S
C1018 H1032 0.960 . S
C1019 C1016 1.511 . S
C1019 H1033 0.961 . S
C1019 H1034 0.961 . S
C1019 H1035 0.961 . S
C1020 C1021 1.370 . S
C1020 C1022 1.363 . S
C1020 H1036 0.888 1_565 S
C1021 C1020 1.370 . S
C1021 C1025 1.408 . S
C1022 C1020 1.363 . S
C1022 C1023 1.370 . S
C1022 C1026 1.524 . S
C1023 C1015 1.503 . S
C1023 C1022 1.370 . S
C1023 C1024 1.403 . S
C1024 C1023 1.403 . S
C1024 C1025 1.404 . S
C1024 C1027 1.539 . S
C1025 C1021 1.408 . S
C1025 C1024 1.404 . S
C1025 H1037 0.930 . S
C1026 C1022 1.524 . S
C1026 H1038 0.956 . S
C1026 H1039 0.961 . S
C1026 H1040 0.961 1_565 S
C1027 C1024 1.539 . S
C1027 H1041 0.958 . S
C1027 H1042 0.961 . S
C1027 H1043 0.960 . S
H1028 C1012 0.931 . S
H1029 C1017 0.929 . S
H1030 C1018 0.960 . S
H1031 C1018 0.962 . S
H1032 C1018 0.960 . S
H1033 C1019 0.961 . S
H1034 C1019 0.961 . S
H1035 C1019 0.961 . S
H1036 C1020 0.888 1_545 S
H1037 C1025 0.930 . S
H1038 C1026 0.956 . S
H1039 C1026 0.961 . S
H1040 C1026 0.961 1_545 S
H1041 C1027 0.958 . S
H1042 C1027 0.961 . S
H1043 C1027 0.960 . S
C1044 C1045 1.391 . S
C1044 C1046 1.394 . S
C1044 H1060 0.931 . S
C1045 C1044 1.391 . S
C1045 C1049 1.376 . S
C1046 C1044 1.394 . S
C1046 C1047 1.369 . S
C1046 C1050 1.531 . S
C1047 C1046 1.369 . S
C1047 C1048 1.410 . S
C1047 C1055 1.503 . S
C1048 C1047 1.410 . S
C1048 C1049 1.392 . S
C1048 C1051 1.511 . S
C1049 C1045 1.376 . S
C1049 C1048 1.392 . S
C1049 H1061 0.929 . S
C1050 C1046 1.531 . S
C1050 H1062 0.960 . S
C1050 H1063 0.962 . S
C1050 H1064 0.960 . S
C1051 C1048 1.511 . S
C1051 H1065 0.961 . S
C1051 H1066 0.961 . S
C1051 H1067 0.961 . S
C1052 C1053 1.370 . S
C1052 C1054 1.363 . S
C1052 H1068 0.931 . S
C1053 C1052 1.370 . S
C1053 C1057 1.408 . S
C1054 C1052 1.363 . S
C1054 C1055 1.370 . S
C1054 C1058 1.524 . S
C1055 C1047 1.503 . S
C1055 C1054 1.370 . S
C1055 C1056 1.403 . S
C1056 C1055 1.403 . S
C1056 C1057 1.404 . S
C1056 C1059 1.539 . S
C1057 C1053 1.408 . S
C1057 C1056 1.404 . S
C1057 H1069 0.930 . S
C1058 C1054 1.524 . S
C1058 H1070 0.956 . S
C1058 H1071 0.961 . S
C1058 H1072 0.961 . S
C1059 C1056 1.539 . S
C1059 H1073 0.958 . S
C1059 H1074 0.961 . S
C1059 H1075 0.960 . S
H1060 C1044 0.931 . S
H1061 C1049 0.929 . S
H1062 C1050 0.960 . S
H1063 C1050 0.962 . S
H1064 C1050 0.960 . S
H1065 C1051 0.961 . S
H1066 C1051 0.961 . S
H1067 C1051 0.961 . S
H1068 C1052 0.931 . S
H1069 C1057 0.930 . S
H1070 C1058 0.956 . S
H1071 C1058 0.961 . S
H1072 C1058 0.961 . S
H1073 C1059 0.958 . S
H1074 C1059 0.961 . S
H1075 C1059 0.960 . S
C1076 C1077 1.391 . S
C1076 C1078 1.394 . S
C1076 H1092 0.931 . S
C1077 C1076 1.391 . S
C1077 C1081 1.376 . S
C1078 C1076 1.394 . S
C1078 C1079 1.369 . S
C1078 C1082 1.531 . S
C1079 C1078 1.369 . S
C1079 C1080 1.410 . S
C1079 C1087 1.503 . S
C1080 C1079 1.410 . S
C1080 C1081 1.392 . S
C1080 C1083 1.511 . S
C1081 C1077 1.376 . S
C1081 C1080 1.392 . S
C1081 H1093 0.929 . S
C1082 C1078 1.531 . S
C1082 H1094 0.960 . S
C1082 H1095 0.962 . S
C1082 H1096 0.960 . S
C1083 C1080 1.511 . S
C1083 H1097 0.961 . S
C1083 H1098 0.961 . S
C1083 H1099 0.961 . S
C1084 C1085 1.370 . S
C1084 C1086 1.363 . S
C1084 H1100 0.931 . S
C1085 C1084 1.370 . S
C1085 C1089 1.408 . S
C1086 C1084 1.363 . S
C1086 C1087 1.370 . S
C1086 C1090 1.524 . S
C1087 C1079 1.503 . S
C1087 C1086 1.370 . S
C1087 C1088 1.403 . S
C1088 C1087 1.403 . S
C1088 C1089 1.404 . S
C1088 C1091 1.539 . S
C1089 C1085 1.408 . S
C1089 C1088 1.404 . S
C1089 H1101 0.930 . S
C1090 C1086 1.524 . S
C1090 H1102 0.956 . S
C1090 H1103 0.961 . S
C1090 H1104 0.961 . S
C1091 C1088 1.539 . S
C1091 H1105 0.958 . S
C1091 H1106 0.961 . S
C1091 H1107 0.960 . S
H1092 C1076 0.931 . S
H1093 C1081 0.929 . S
H1094 C1082 0.960 . S
H1095 C1082 0.962 . S
H1096 C1082 0.960 . S
H1097 C1083 0.961 . S
H1098 C1083 0.961 . S
H1099 C1083 0.961 . S
H1100 C1084 0.931 . S
H1101 C1089 0.930 . S
H1102 C1090 0.956 . S
H1103 C1090 0.961 . S
H1104 C1090 0.961 . S
H1105 C1091 0.958 . S
H1106 C1091 0.961 . S
H1107 C1091 0.960 . S
C341 C215 1.873 . S
C349 C271 1.749 . S
C381 C295 1.331 . S
C373 C247 1.538 . S
C413 C316 1.715 . S
C405 C151 1.880 . S
C445 C334 1.348 . S
C437 C183 1.560 1_655 S
C477 C274 1.639 1_565 S
C469 C87 1.611 . S
C501 C119 1.380 . S
C509 C292 1.229 . S
C533 C23 1.629 . S
C541 C313 1.645 . S
C565 C55 1.386 . S
C573 C337 1.249 . S
C605 C272 0.466 . S
C597 C189 0.405 1_655 S
C637 C290 0.697 . S
C629 C221 0.626 . S
C669 C311 0.423 . S
C661 C253 0.511 . S
C693 C157 0.664 . S
C701 C335 0.655 . S
C725 C61 0.607 1_655 S
C733 C270 0.471 . S
C765 C294 0.739 1_565 S
C757 C93 0.631 . S
C797 C315 0.453 . S
C789 C125 0.551 . S
C821 C29 0.845 . S
C829 C333 0.715 . S
C853 C177 1.732 . S
C861 C273 1.736 . S
C885 C209 1.985 . S
C893 C291 1.957 . S
C925 C312 1.705 . S
C917 C241 1.731 . S
C957 C336 1.973 . S
C949 C145 2.001 . S
C981 C49 1.634 1_655 S
C989 C269 1.577 . S
C1021 C293 1.811 . S
C1013 C81 1.761 . S
C1053 C314 1.551 . S
C1045 C113 1.606 . S
C1077 C17 1.774 . S
C1085 C332 1.810 . S
