# Generated by pormake.
# Topology dag, (6,3)-cn, num edge types: 1
# Building blocks:
#     Node 0, Type 0, BuildingBlock: IZENUY_clean_sbu_0, # of connection points: 6
#     Node 1, Type 0, BuildingBlock: IZENUY_clean_sbu_0, # of connection points: 6
#     Node 2, Type 0, BuildingBlock: IZENUY_clean_sbu_0, # of connection points: 6
#     Node 3, Type 0, BuildingBlock: IZENUY_clean_sbu_0, # of connection points: 6
#     Node 4, Type 1, BuildingBlock: BETDAH_clean_linker_0, # of connection points: 3
#     Node 5, Type 1, BuildingBlock: BETDAH_clean_linker_0, # of connection points: 3
#     Node 6, Type 1, BuildingBlock: BETDAH_clean_linker_0, # of connection points: 3
#     Node 7, Type 1, BuildingBlock: BETDAH_clean_linker_0, # of connection points: 3
#     Node 8, Type 1, BuildingBlock: BETDAH_clean_linker_0, # of connection points: 3
#     Node 9, Type 1, BuildingBlock: BETDAH_clean_linker_0, # of connection points: 3
#     Node 10, Type 1, BuildingBlock: BETDAH_clean_linker_0, # of connection points: 3
#     Node 11, Type 1, BuildingBlock: BETDAH_clean_linker_0, # of connection points: 3
#     Edge 12, Type (0, 1), BuildingBlock: KIFKEQ_clean_linker_1, # of connection points: 2
#     Edge 13, Type (0, 1), BuildingBlock: KIFKEQ_clean_linker_1, # of connection points: 2
#     Edge 14, Type (0, 1), BuildingBlock: KIFKEQ_clean_linker_1, # of connection points: 2
#     Edge 15, Type (0, 1), BuildingBlock: KIFKEQ_clean_linker_1, # of connection points: 2
#     Edge 16, Type (0, 1), BuildingBlock: KIFKEQ_clean_linker_1, # of connection points: 2
#     Edge 17, Type (0, 1), BuildingBlock: KIFKEQ_clean_linker_1, # of connection points: 2
#     Edge 18, Type (0, 1), BuildingBlock: KIFKEQ_clean_linker_1, # of connection points: 2
#     Edge 19, Type (0, 1), BuildingBlock: KIFKEQ_clean_linker_1, # of connection points: 2
#     Edge 20, Type (0, 1), BuildingBlock: KIFKEQ_clean_linker_1, # of connection points: 2
#     Edge 21, Type (0, 1), BuildingBlock: KIFKEQ_clean_linker_1, # of connection points: 2
#     Edge 22, Type (0, 1), BuildingBlock: KIFKEQ_clean_linker_1, # of connection points: 2
#     Edge 23, Type (0, 1), BuildingBlock: KIFKEQ_clean_linker_1, # of connection points: 2
#     Edge 24, Type (0, 1), BuildingBlock: KIFKEQ_clean_linker_1, # of connection points: 2
#     Edge 25, Type (0, 1), BuildingBlock: KIFKEQ_clean_linker_1, # of connection points: 2
#     Edge 26, Type (0, 1), BuildingBlock: KIFKEQ_clean_linker_1, # of connection points: 2
#     Edge 27, Type (0, 1), BuildingBlock: KIFKEQ_clean_linker_1, # of connection points: 2
#     Edge 28, Type (0, 1), BuildingBlock: KIFKEQ_clean_linker_1, # of connection points: 2
#     Edge 29, Type (0, 1), BuildingBlock: KIFKEQ_clean_linker_1, # of connection points: 2
#     Edge 30, Type (0, 1), BuildingBlock: KIFKEQ_clean_linker_1, # of connection points: 2
#     Edge 31, Type (0, 1), BuildingBlock: KIFKEQ_clean_linker_1, # of connection points: 2
#     Edge 32, Type (0, 1), BuildingBlock: KIFKEQ_clean_linker_1, # of connection points: 2
#     Edge 33, Type (0, 1), BuildingBlock: KIFKEQ_clean_linker_1, # of connection points: 2
#     Edge 34, Type (0, 1), BuildingBlock: KIFKEQ_clean_linker_1, # of connection points: 2
#     Edge 35, Type (0, 1), BuildingBlock: KIFKEQ_clean_linker_1, # of connection points: 2
# Relax obj value: 0.094
# Max RMSD: 0.103
# Mean RMSD: 0.088
data_MOF--net-dag--node1-IZENUY_clean_sbu_0--node2-BETDAH_clean_linker_0--edge1-KIFKEQ_clean_linker_1
_symmetry_space_group_name_H-M    P1
_symmetry_Int_Tables_number       1
_symmetry_cell_setting            triclinic
loop_
_symmetry_equiv_pos_as_xyz
'x, y, z'
_cell_length_a     39.238663
_cell_length_b     41.800255
_cell_length_c     36.111859
_cell_angle_alpha  93.95603
_cell_angle_beta   89.789649
_cell_angle_gamma 90.024668
loop_
_atom_site_label
_atom_site_type_symbol
_atom_site_fract_x
_atom_site_fract_y
_atom_site_fract_z
_atom_type_partial_charge
Fe0 Fe 0.18276 0.85956 0.07818 0.0
Fe1 Fe 0.10798 0.87854 0.06802 0.0
O2 O 0.13962 0.84865 0.06941 0.0
Fe3 Fe 0.12782 0.8078 0.06191 0.0
O4 O 0.14291 0.7994 0.10739 0.0
O5 O 0.19228 0.82416 0.10407 0.0
O6 O 0.17228 0.88067 0.12263 0.0
C7 C 0.15029 0.90264 0.12681 0.0
C8 C 0.19135 0.81063 0.02441 0.0
O9 O 0.1285 0.9067 0.10189 0.0
C10 C 0.08807 0.83331 0.01001 0.0
O11 O 0.18054 0.8967 0.05376 0.0
O12 O 0.12908 0.89596 0.02961 0.0
O13 O 0.16833 0.79494 0.03988 0.0
O14 O 0.19669 0.83967 0.03444 0.0
C15 C 0.07318 0.83472 0.10563 0.0
O16 O 0.08124 0.85603 0.03385 0.0
O17 O 0.11168 0.81378 0.01562 0.0
C18 C 0.15956 0.90563 0.0299 0.0
O19 O 0.08505 0.86281 0.10644 0.0
O20 O 0.08505 0.81298 0.08293 0.0
C21 C 0.17255 0.80502 0.11956 0.0
Fe22 Fe 0.66371 0.65748 0.4933 0.0
Fe23 Fe 0.6103 0.71125 0.50636 0.0
O24 O 0.62091 0.66992 0.50104 0.0
Fe25 Fe 0.58835 0.64096 0.50354 0.0
O26 O 0.60792 0.62448 0.54339 0.0
O27 O 0.6597 0.62159 0.51961 0.0
O28 O 0.67735 0.67843 0.53614 0.0
C29 C 0.67268 0.70773 0.54532 0.0
C30 C 0.63107 0.61331 0.44671 0.0
O31 O 0.6506 0.72375 0.52899 0.0
C32 C 0.55612 0.68385 0.46268 0.0
O33 O 0.67505 0.69139 0.46592 0.0
O34 O 0.62699 0.71788 0.46064 0.0
O35 O 0.60873 0.611 0.47165 0.0
O36 O 0.6534 0.63505 0.44968 0.0
C37 C 0.56881 0.68842 0.55912 0.0
O38 O 0.56783 0.70625 0.48456 0.0
O39 O 0.56721 0.65564 0.46373 0.0
C40 C 0.65669 0.71076 0.44928 0.0
O41 O 0.5929 0.70726 0.55273 0.0
O42 O 0.5614 0.6654 0.53601 0.0
C43 C 0.63811 0.61404 0.54375 0.0
Fe44 Fe 0.87413 0.19784 0.9876 0.0
Fe45 Fe 0.88934 0.12625 0.97964 0.0
O46 O 0.85972 0.15781 0.97873 0.0
Fe47 Fe 0.81608 0.14943 0.96926 0.0
O48 O 0.80962 0.18585 0.94409 0.0
O49 O 0.86073 0.20771 0.94208 0.0
O50 O 0.91704 0.19055 0.9677 0.0
C51 C 0.9271 0.16904 0.94369 0.0
C52 C 0.81042 0.19782 0.02436 0.0
O53 O 0.91366 0.14159 0.94192 0.0
C54 C 0.83571 0.10148 0.01667 0.0
O55 O 0.88847 0.19001 0.03405 0.0
O56 O 0.91643 0.14647 0.01496 0.0
O57 O 0.80308 0.16936 0.01344 0.0
O58 O 0.83405 0.21263 0.00881 0.0
C59 C 0.84675 0.10578 0.91985 0.0
O60 O 0.8667 0.10937 0.01724 0.0
O61 O 0.8155 0.11157 0.99273 0.0
C62 C 0.90891 0.16773 0.04023 0.0
O63 O 0.86775 0.10002 0.9449 0.0
O64 O 0.82563 0.12846 0.92442 0.0
C65 C 0.83111 0.20372 0.92906 0.0
Fe66 Fe 0.41305 0.35723 0.54762 0.0
Fe67 Fe 0.33907 0.34016 0.5645 0.0
O68 O 0.38126 0.32802 0.5531 0.0
Fe69 Fe 0.39197 0.28676 0.54701 0.0
O70 O 0.42316 0.29054 0.5842 0.0
O71 O 0.44816 0.33267 0.56322 0.0
O72 O 0.40805 0.37332 0.59523 0.0
C73 C 0.38024 0.38417 0.60857 0.0
C74 C 0.42876 0.3149 0.48945 0.0
O75 O 0.35205 0.37615 0.59341 0.0
C76 C 0.3303 0.28699 0.51194 0.0
O77 O 0.38419 0.38734 0.53102 0.0
O78 O 0.33526 0.36259 0.52327 0.0
O79 O 0.42464 0.2922 0.51074 0.0
O80 O 0.41956 0.34303 0.49975 0.0
C81 C 0.34599 0.28969 0.60818 0.0
O82 O 0.31886 0.30618 0.53778 0.0
O83 O 0.3616 0.28031 0.50972 0.0
C84 C 0.35503 0.38521 0.51632 0.0
O85 O 0.33971 0.31907 0.60643 0.0
O86 O 0.36121 0.27392 0.58178 0.0
C87 C 0.44806 0.30953 0.58396 0.0
H88 H 0.08271 0.09351 0.22892 0.0
H89 H 0.17018 0.1322 0.2879 0.0
H90 H 0.09646 0.19556 0.24408 0.0
C91 C 0.09688 0.11407 0.24058 0.0
C92 C 0.08554 0.14508 0.23449 0.0
C93 C 0.12745 0.10913 0.25944 0.0
C94 C 0.14616 0.13578 0.27407 0.0
C95 C 0.13426 0.16704 0.26926 0.0
C96 C 0.10439 0.17141 0.24915 0.0
N97 N 0.15277 0.19481 0.28165 0.0
C98 C 0.17401 0.19708 0.31233 0.0
H99 H 0.42739 0.60586 0.72927 0.0
H100 H 0.3762 0.6898 0.77808 0.0
H101 H 0.32769 0.59755 0.77689 0.0
C102 C 0.40624 0.61664 0.74501 0.0
C103 C 0.3782 0.59751 0.7531 0.0
C104 C 0.40573 0.65001 0.75346 0.0
C105 C 0.37729 0.66405 0.77221 0.0
C106 C 0.34933 0.64487 0.78116 0.0
C107 C 0.3498 0.61193 0.77099 0.0
N108 N 0.31886 0.65811 0.79685 0.0
C109 C 0.31707 0.68361 0.82359 0.0
H110 H 0.85621 0.89189 0.14044 0.0
H111 H 0.81039 0.83065 0.21737 0.0
H112 H 0.75704 0.91462 0.18598 0.0
C113 C 0.83484 0.88633 0.15801 0.0
C114 C 0.80666 0.90695 0.16091 0.0
C115 C 0.83644 0.85902 0.17837 0.0
C116 C 0.809 0.85159 0.20137 0.0
C117 C 0.77986 0.87144 0.20327 0.0
C118 C 0.77904 0.89896 0.18321 0.0
N119 N 0.75098 0.86519 0.22537 0.0
C120 C 0.74754 0.83969 0.24777 0.0
H121 H 0.63592 0.4052 0.67187 0.0
H122 H 0.70024 0.32757 0.70104 0.0
H123 H 0.74466 0.41718 0.67423 0.0
C124 C 0.661 0.39604 0.67795 0.0
C125 C 0.68968 0.41527 0.67285 0.0
C126 C 0.66454 0.36424 0.68766 0.0
C127 C 0.69726 0.35216 0.69388 0.0
C128 C 0.72616 0.3715 0.68938 0.0
C129 C 0.72223 0.40264 0.67821 0.0
N130 N 0.75956 0.35998 0.69489 0.0
C131 C 0.76675 0.33775 0.72053 0.0
H132 H 0.58786 0.38766 0.33109 0.0
H133 H 0.69414 0.39282 0.30245 0.0
H134 H 0.64227 0.3021 0.29383 0.0
C135 C 0.61103 0.37628 0.32036 0.0
C136 C 0.61137 0.34292 0.31257 0.0
C137 C 0.64076 0.39466 0.3174 0.0
C138 C 0.67063 0.37936 0.30401 0.0
C139 C 0.67093 0.34631 0.29409 0.0
C140 C 0.64139 0.32794 0.29892 0.0
N141 N 0.7024 0.33152 0.28417 0.0
C142 C 0.70743 0.31202 0.25188 0.0
H143 H 0.14482 0.09486 0.88289 0.0
H144 H 0.18979 0.18167 0.84711 0.0
H145 H 0.25299 0.10814 0.88876 0.0
C146 C 0.16708 0.10907 0.87706 0.0
C147 C 0.19926 0.09747 0.88594 0.0
C148 C 0.16308 0.13953 0.86345 0.0
C149 C 0.19231 0.15808 0.85749 0.0
C150 C 0.22481 0.14653 0.86639 0.0
C151 C 0.22799 0.11666 0.88139 0.0
N152 N 0.25462 0.165 0.86211 0.0
C153 C 0.26112 0.18138 0.8307 0.0
H154 H 0.34317 0.60246 0.42156 0.0
H155 H 0.30278 0.66298 0.34106 0.0
H156 H 0.25033 0.57599 0.36439 0.0
C157 C 0.32312 0.60779 0.40234 0.0
C158 C 0.29629 0.58595 0.39577 0.0
C159 C 0.32561 0.63553 0.38276 0.0
C160 C 0.30066 0.6417 0.35643 0.0
C161 C 0.27318 0.62027 0.35014 0.0
C162 C 0.27136 0.59249 0.36964 0.0
N163 N 0.24709 0.6255 0.32417 0.0
C164 C 0.24455 0.65266 0.30435 0.0
H165 H 0.92388 0.88976 0.82792 0.0
H166 H 0.88136 0.79497 0.81544 0.0
H167 H 0.81917 0.8759 0.79471 0.0
C168 C 0.90284 0.87402 0.81992 0.0
C169 C 0.87113 0.88732 0.81104 0.0
C170 C 0.90676 0.84085 0.82239 0.0
C171 C 0.87922 0.82056 0.81279 0.0
C172 C 0.84825 0.83313 0.80127 0.0
C173 C 0.84413 0.86644 0.80056 0.0
N174 N 0.81981 0.81248 0.79698 0.0
C175 C 0.80443 0.80503 0.76294 0.0
H176 H 0.09688 0.93393 0.15943 0.0
H177 H 0.20634 0.92614 0.16567 0.0
H178 H 0.09791 0.97991 0.2041 0.0
H179 H 0.20754 0.97275 0.21112 0.0
H180 H 0.1858 0.08646 0.22648 0.0
H181 H 0.19639 0.0307 0.20471 0.0
H182 H 0.10895 0.00125 0.26696 0.0
H183 H 0.09797 0.05715 0.28769 0.0
C184 C 0.12117 0.94172 0.17105 0.0
C185 C 0.15153 0.92665 0.15885 0.0
C186 C 0.12178 0.96796 0.19701 0.0
C187 C 0.15283 0.9801 0.21132 0.0
C188 C 0.18322 0.96403 0.20052 0.0
C189 C 0.18254 0.93729 0.17472 0.0
C190 C 0.16984 0.06786 0.23683 0.0
C191 C 0.14095 0.07601 0.2585 0.0
C192 C 0.17583 0.03587 0.2243 0.0
C193 C 0.15303 0.01158 0.23339 0.0
C194 C 0.12656 0.01947 0.2588 0.0
C195 C 0.12043 0.05141 0.271 0.0
H196 H 0.50035 0.68247 0.56052 0.0
H197 H 0.58634 0.70775 0.63072 0.0
H198 H 0.46298 0.68476 0.6145 0.0
H199 H 0.54867 0.7095 0.68555 0.0
H200 H 0.47486 0.64275 0.75696 0.0
H201 H 0.51654 0.66293 0.71385 0.0
H202 H 0.43838 0.72062 0.66745 0.0
H203 H 0.39668 0.7003 0.71046 0.0
C204 C 0.51111 0.68908 0.58757 0.0
C205 C 0.5462 0.69476 0.59156 0.0
C206 C 0.48966 0.69067 0.61849 0.0
C207 C 0.50285 0.69742 0.65429 0.0
C208 C 0.53783 0.70433 0.65825 0.0
C209 C 0.55931 0.70342 0.62699 0.0
C210 C 0.46693 0.66069 0.7385 0.0
C211 C 0.43248 0.66971 0.73678 0.0
C212 C 0.49082 0.67233 0.71389 0.0
C213 C 0.48058 0.69297 0.68692 0.0
C214 C 0.44688 0.70448 0.68775 0.0
C215 C 0.42307 0.69306 0.71259 0.0
H216 H 0.78928 0.05343 0.00241 0.0
H217 H 0.85758 0.09409 0.08645 0.0
H218 H 0.77872 0.00782 0.0398 0.0
H219 H 0.84581 0.0497 0.12471 0.0
H220 H 0.86034 0.94757 0.15451 0.0
H221 H 0.86289 0.99599 0.12171 0.0
H222 H 0.75607 0.98592 0.09425 0.0
H223 H 0.75415 0.93577 0.12527 0.0
C224 C 0.80127 0.05298 0.02934 0.0
C225 C 0.82461 0.0769 0.0414 0.0
C226 C 0.79518 0.02694 0.05085 0.0
C227 C 0.81194 0.02472 0.085 0.0
C228 C 0.83331 0.05005 0.09806 0.0
C229 C 0.83988 0.07562 0.07631 0.0
C230 C 0.83744 0.95536 0.1411 0.0
C231 C 0.80716 0.93749 0.14212 0.0
C232 C 0.83872 0.98358 0.12282 0.0
C233 C 0.80959 0.99514 0.10553 0.0
C234 C 0.77905 0.9776 0.10702 0.0
C235 C 0.77786 0.94904 0.12512 0.0
H236 H 0.45505 0.29974 0.65754 0.0
H237 H 0.51148 0.30603 0.55558 0.0
H238 H 0.50886 0.3012 0.69246 0.0
H239 H 0.56477 0.30684 0.58981 0.0
H240 H 0.65828 0.30562 0.65051 0.0
H241 H 0.60491 0.27922 0.6318 0.0
H242 H 0.54882 0.34967 0.70059 0.0
H243 H 0.60216 0.37582 0.71956 0.0
C244 C 0.47902 0.30026 0.6426 0.0
C245 C 0.47943 0.30297 0.60409 0.0
C246 C 0.50967 0.30118 0.66247 0.0
C247 C 0.54098 0.30407 0.64384 0.0
C248 C 0.54117 0.30413 0.60493 0.0
C249 C 0.51069 0.30392 0.58533 0.0
C250 C 0.63467 0.3146 0.66291 0.0
C251 C 0.63422 0.34307 0.68597 0.0
C252 C 0.60412 0.29958 0.65205 0.0
C253 C 0.57273 0.31271 0.66428 0.0
C254 C 0.5726 0.33893 0.6908 0.0
C255 C 0.60311 0.35406 0.70145 0.0
H256 H 0.57904 0.57765 0.41779 0.0
H257 H 0.68826 0.58857 0.41056 0.0
H258 H 0.58263 0.52678 0.38103 0.0
H259 H 0.69187 0.53697 0.37367 0.0
H260 H 0.67319 0.44618 0.28848 0.0
H261 H 0.67225 0.50249 0.31324 0.0
H262 H 0.60838 0.47622 0.40385 0.0
H263 H 0.61 0.42061 0.38021 0.0
C264 C 0.60379 0.56943 0.4077 0.0
C265 C 0.63343 0.58679 0.41754 0.0
C266 C 0.60584 0.54026 0.38673 0.0
C267 C 0.63758 0.52762 0.37522 0.0
C268 C 0.66707 0.54618 0.38228 0.0
C269 C 0.66501 0.57567 0.40332 0.0
C270 C 0.65913 0.4525 0.31379 0.0
C271 C 0.64106 0.42892 0.33189 0.0
C272 C 0.65857 0.48468 0.32786 0.0
C273 C 0.63969 0.49377 0.36003 0.0
C274 C 0.62239 0.47008 0.37843 0.0
C275 C 0.6232 0.43815 0.36472 0.0
H276 H 0.94284 0.1451 0.87372 0.0
H277 H 0.98309 0.20302 0.96691 0.0
H278 H 0.99786 0.14687 0.8424 0.0
H279 H 0.03878 0.20275 0.9375 0.0
H280 H 0.13898 0.19952 0.88556 0.0
H281 H 0.07948 0.21471 0.8951 0.0
H282 H 0.04858 0.12177 0.84621 0.0
H283 H 0.10746 0.10817 0.83389 0.0
C284 C 0.96356 0.15833 0.88737 0.0
C285 C 0.95891 0.17364 0.92281 0.0
C286 C 0.99525 0.15917 0.86962 0.0
C287 C 0.02341 0.17434 0.88753 0.0
C288 C 0.01797 0.19113 0.92229 0.0
C289 C 0.98599 0.1911 0.93947 0.0
C290 C 0.11934 0.18296 0.87546 0.0
C291 C 0.12796 0.15231 0.85982 0.0
C292 C 0.08511 0.19139 0.88157 0.0
C293 C 0.05883 0.16915 0.87274 0.0
C294 C 0.06762 0.13979 0.8536 0.0
C295 C 0.10166 0.13171 0.84683 0.0
H296 H 0.29361 0.39193 0.48044 0.0
H297 H 0.38849 0.44093 0.50699 0.0
H298 H 0.27288 0.43994 0.45175 0.0
H299 H 0.36769 0.48812 0.4791 0.0
H300 H 0.30916 0.57811 0.46874 0.0
H301 H 0.31872 0.52782 0.49751 0.0
H302 H 0.29188 0.47473 0.39505 0.0
H303 H 0.28281 0.52519 0.3658 0.0
C304 C 0.31003 0.41273 0.48004 0.0
C305 C 0.34261 0.41262 0.49625 0.0
C306 C 0.29817 0.4401 0.46369 0.0
C307 C 0.31851 0.46779 0.46391 0.0
C308 C 0.35124 0.4673 0.47926 0.0
C309 C 0.3632 0.44008 0.49502 0.0
C310 C 0.30495 0.55574 0.45242 0.0
C311 C 0.29587 0.55561 0.41483 0.0
C312 C 0.31029 0.527 0.46892 0.0
C313 C 0.30646 0.49752 0.44827 0.0
C314 C 0.29488 0.4972 0.41153 0.0
C315 C 0.28969 0.52606 0.39487 0.0
H316 H 0.0201 0.84231 0.01248 0.0
H317 H 0.10144 0.80986 0.93828 0.0
H318 H 0.97941 0.8354 0.96202 0.0
H319 H 0.0602 0.80349 0.88684 0.0
H320 H 0.9742 0.85622 0.81231 0.0
H321 H 0.02123 0.84673 0.85465 0.0
H322 H 0.95481 0.78924 0.91856 0.0
H323 H 0.90786 0.79896 0.87691 0.0
C324 C 0.02923 0.83353 0.98529 0.0
C325 C 0.06392 0.82677 0.97918 0.0
C326 C 0.00587 0.82931 0.95647 0.0
C327 C 0.01663 0.81871 0.92061 0.0
C328 C 0.05131 0.81158 0.91433 0.0
C329 C 0.07478 0.81514 0.94363 0.0
C330 C 0.96993 0.84086 0.83485 0.0
C331 C 0.93719 0.82866 0.84148 0.0
C332 C 0.9969 0.83525 0.85887 0.0
C333 C 0.99147 0.81756 0.89004 0.0
C334 C 0.95957 0.80313 0.89482 0.0
C335 C 0.93274 0.80853 0.87075 0.0
H336 H 0.89898 0.08596 0.876 0.0
H337 H 0.79153 0.07115 0.89368 0.0
H338 H 0.90233 0.03498 0.83904 0.0
H339 H 0.79496 0.01959 0.85663 0.0
H340 H 0.83014 0.92798 0.7728 0.0
H341 H 0.81995 0.98558 0.78797 0.0
H342 H 0.88869 0.98334 0.8806 0.0
H343 H 0.8974 0.92655 0.86739 0.0
C344 C 0.87576 0.07243 0.87047 0.0
C345 C 0.84504 0.08229 0.88765 0.0
C346 C 0.87769 0.04328 0.8494 0.0
C347 C 0.84898 0.02335 0.84537 0.0
C348 C 0.81735 0.03474 0.85911 0.0
C349 C 0.81536 0.06421 0.8802 0.0
C350 C 0.84299 0.9398 0.79645 0.0
C351 C 0.86531 0.92254 0.81824 0.0
C352 C 0.8372 0.97271 0.80495 0.0
C353 C 0.85408 0.98883 0.83497 0.0
C354 C 0.87602 0.97159 0.85674 0.0
C355 C 0.88127 0.93896 0.84881 0.0
H356 H 0.43664 0.35645 0.4353 0.0
H357 H 0.46837 0.26293 0.46591 0.0
H358 H 0.47707 0.35343 0.38453 0.0
H359 H 0.50863 0.2594 0.41384 0.0
H360 H 0.61121 0.2995 0.36499 0.0
H361 H 0.56202 0.28466 0.40146 0.0
H362 H 0.49551 0.33075 0.3262 0.0
H363 H 0.54512 0.34671 0.29084 0.0
C364 C 0.45181 0.33488 0.43073 0.0
C365 C 0.44959 0.31015 0.4551 0.0
C366 C 0.47486 0.33295 0.40117 0.0
C367 C 0.49635 0.30617 0.39493 0.0
C368 C 0.49279 0.28055 0.41805 0.0
C369 C 0.46958 0.28249 0.44778 0.0
C370 C 0.58595 0.30525 0.35543 0.0
C371 C 0.5819 0.32439 0.3253 0.0
C372 C 0.55765 0.29682 0.37639 0.0
C373 C 0.52475 0.3072 0.36738 0.0
C374 C 0.52053 0.32313 0.33458 0.0
C375 C 0.54885 0.33192 0.31398 0.0
H376 H 0.22211 0.93414 0.02381 0.0
H377 H 0.12004 0.93345 0.97902 0.0
H378 H 0.23757 0.97734 0.98476 0.0
H379 H 0.13521 0.9769 0.94097 0.0
H380 H 0.17322 0.0408 0.85777 0.0
H381 H 0.16854 0.99096 0.88881 0.0
H382 H 0.22483 0.03399 0.98216 0.0
H383 H 0.23027 0.08353 0.95039 0.0
C384 C 0.20301 0.94309 0.00557 0.0
C385 C 0.16976 0.93047 0.00474 0.0
C386 C 0.21186 0.96792 0.98331 0.0
C387 C 0.18766 0.98059 0.95973 0.0
C388 C 0.15468 0.96738 0.95831 0.0
C389 C 0.14587 0.94259 0.98043 0.0
C390 C 0.18514 0.03927 0.88462 0.0
C391 C 0.20184 0.06595 0.90191 0.0
C392 C 0.18229 0.01087 0.9025 0.0
C393 C 0.19576 0.00869 0.93825 0.0
C394 C 0.21435 0.03478 0.95454 0.0
C395 C 0.21746 0.06317 0.93643 0.0
H396 H 0.50651 0.72905 0.47745 0.0
H397 H 0.53336 0.64834 0.40185 0.0
H398 H 0.44877 0.72833 0.45201 0.0
H399 H 0.47594 0.64763 0.37657 0.0
H400 H 0.37211 0.65227 0.33124 0.0
H401 H 0.42901 0.67466 0.34384 0.0
H402 H 0.40445 0.68633 0.4607 0.0
H403 H 0.34793 0.66406 0.44799 0.0
C404 C 0.50042 0.71183 0.45463 0.0
C405 C 0.52428 0.68847 0.44194 0.0
C406 C 0.46733 0.71133 0.44021 0.0
C407 C 0.45774 0.68777 0.41251 0.0
C408 C 0.48256 0.66626 0.39766 0.0
C409 C 0.51542 0.66651 0.41234 0.0
C410 C 0.37859 0.66073 0.35937 0.0
C411 C 0.35589 0.65631 0.38872 0.0
C412 C 0.41115 0.67332 0.36663 0.0
C413 C 0.42129 0.682 0.40329 0.0
C414 C 0.39737 0.68017 0.43214 0.0
C415 C 0.36506 0.66727 0.42493 0.0
H416 H 0.43451 0.42171 0.63106 0.0
H417 H 0.32714 0.40779 0.65132 0.0
H418 H 0.4334 0.47081 0.67116 0.0
H419 H 0.32626 0.45627 0.69283 0.0
H420 H 0.32702 0.56598 0.71512 0.0
H421 H 0.32772 0.5118 0.68606 0.0
H422 H 0.42819 0.49715 0.73075 0.0
H423 H 0.42772 0.55203 0.75885 0.0
C424 C 0.41082 0.42871 0.6448 0.0
C425 C 0.3808 0.41103 0.63759 0.0
C426 C 0.41019 0.45689 0.66803 0.0
C427 C 0.37962 0.46787 0.68502 0.0
C428 C 0.35008 0.44905 0.67954 0.0
C429 C 0.35062 0.42109 0.65593 0.0
C430 C 0.34898 0.55097 0.7193 0.0
C431 C 0.37733 0.56324 0.73921 0.0
C432 C 0.3494 0.51978 0.7027 0.0
C433 C 0.37806 0.49992 0.70589 0.0
C434 C 0.40592 0.51187 0.72709 0.0
C435 C 0.40563 0.54325 0.74336 0.0
H436 H 0.03029 0.78298 0.09674 0.0
H437 H 0.04276 0.8739 0.15978 0.0
H438 H 0.97289 0.77826 0.12212 0.0
H439 H 0.98544 0.86928 0.18474 0.0
H440 H 0.88399 0.85541 0.23237 0.0
H441 H 0.944 0.84083 0.22235 0.0
H442 H 0.92131 0.80907 0.1087 0.0
H443 H 0.86169 0.82353 0.11902 0.0
C444 C 0.02111 0.80164 0.11658 0.0
C445 C 0.04094 0.82908 0.12578 0.0
C446 C 0.98816 0.79895 0.13103 0.0
C447 C 0.97448 0.82347 0.15524 0.0
C448 C 0.99526 0.84978 0.16646 0.0
C449 C 0.02807 0.85258 0.15185 0.0
C450 C 0.89171 0.84391 0.20585 0.0
C451 C 0.86841 0.84037 0.17649 0.0
C452 C 0.92606 0.83595 0.19994 0.0
C453 C 0.93751 0.8242 0.16459 0.0
C454 C 0.91338 0.8178 0.13633 0.0
C455 C 0.87919 0.826 0.14219 0.0
H456 H 0.59499 0.57815 0.58381 0.0
H457 H 0.70169 0.5933 0.56064 0.0
H458 H 0.60969 0.53266 0.61912 0.0
H459 H 0.71655 0.54852 0.59713 0.0
H460 H 0.72346 0.44085 0.6159 0.0
H461 H 0.7125 0.49177 0.58936 0.0
H462 H 0.63543 0.51393 0.67313 0.0
H463 H 0.6459 0.46237 0.69896 0.0
C464 C 0.62164 0.57216 0.58687 0.0
C465 C 0.64715 0.58905 0.56902 0.0
C466 C 0.63012 0.54615 0.60732 0.0
C467 C 0.66432 0.5367 0.61072 0.0
C468 C 0.68991 0.55468 0.5944 0.0
C469 C 0.68141 0.58046 0.57364 0.0
C470 C 0.7046 0.45687 0.62898 0.0
C471 C 0.68544 0.44767 0.65937 0.0
C472 C 0.69834 0.48613 0.61386 0.0
C473 C 0.67298 0.50698 0.62902 0.0
C474 C 0.65471 0.49822 0.66035 0.0
C475 C 0.66076 0.46879 0.67524 0.0
H476 H 0.93518 0.2182 0.08419 0.0
H477 H 0.92367 0.11526 0.07578 0.0
H478 H 0.97507 0.21395 0.13602 0.0
H479 H 0.96224 0.11104 0.12772 0.0
H480 H 0.07129 0.11185 0.16906 0.0
H481 H 0.02396 0.11909 0.12761 0.0
H482 H 0.98589 0.19694 0.20118 0.0
H483 H 0.03372 0.18946 0.24339 0.0
C484 C 0.94045 0.19485 0.09415 0.0
C485 C 0.92702 0.167 0.07574 0.0
C486 C 0.96317 0.19239 0.12374 0.0
C487 C 0.97234 0.16207 0.13528 0.0
C488 C 0.9564 0.13463 0.11878 0.0
C489 C 0.93423 0.13705 0.08917 0.0
C490 C 0.05256 0.13013 0.1769 0.0
C491 C 0.05598 0.14971 0.20985 0.0
C492 C 0.02541 0.13434 0.15306 0.0
C493 C 1.00089 0.15827 0.16142 0.0
C494 C 0.00443 0.1783 0.19407 0.0
C495 C 0.03174 0.17401 0.21815 0.0
H496 H 0.23823 0.80008 0.14456 0.0
H497 H 0.13525 0.76829 0.16415 0.0
H498 H 0.25869 0.76717 0.19337 0.0
H499 H 0.1557 0.7354 0.21227 0.0
H500 H 0.19625 0.69756 0.31605 0.0
H501 H 0.18101 0.73915 0.27452 0.0
H502 H 0.26379 0.70851 0.20111 0.0
H503 H 0.27912 0.66725 0.24319 0.0
C504 C 0.21996 0.78627 0.15939 0.0
C505 C 0.18514 0.78663 0.15029 0.0
C506 C 0.2317 0.76736 0.1872 0.0
C507 C 0.2088 0.74876 0.20667 0.0
C508 C 0.17394 0.7498 0.19815 0.0
C509 C 0.16226 0.76845 0.17029 0.0
C510 C 0.21146 0.70027 0.29134 0.0
C511 C 0.23869 0.67953 0.28245 0.0
C512 C 0.20269 0.72384 0.26752 0.0
C513 C 0.22103 0.72689 0.2344 0.0
C514 C 0.24938 0.70693 0.22656 0.0
C515 C 0.25808 0.6833 0.25044 0.0
H516 H 0.72703 0.68245 0.58027 0.0
H517 H 0.66719 0.76903 0.5773 0.0
H518 H 0.7608 0.70731 0.63066 0.0
H519 H 0.70063 0.79369 0.62856 0.0
H520 H 0.7872 0.83676 0.70257 0.0
H521 H 0.75691 0.81419 0.64726 0.0
H522 H 0.75213 0.72238 0.6954 0.0
H523 H 0.78285 0.7449 0.74974 0.0
C524 C 0.72105 0.70682 0.59033 0.0
C525 C 0.69422 0.72366 0.57481 0.0
C526 C 0.74035 0.72103 0.61941 0.0
C527 C 0.73324 0.75241 0.63393 0.0
C528 C 0.70698 0.76959 0.61783 0.0
C529 C 0.68769 0.75538 0.58857 0.0
C530 C 0.77971 0.81175 0.70092 0.0
C531 C 0.78723 0.79236 0.72994 0.0
C532 C 0.76226 0.79887 0.66951 0.0
C533 C 0.75221 0.76642 0.6668 0.0
C534 C 0.76 0.74726 0.69618 0.0
C535 C 0.77737 0.76013 0.72739 0.0
H536 H 0.76434 0.17246 0.07192 0.0
H537 H 0.81272 0.2614 0.04701 0.0
H538 H 0.73691 0.19981 0.12625 0.0
H539 H 0.78491 0.28863 0.10046 0.0
H540 H 0.76956 0.31635 0.22304 0.0
H541 H 0.79192 0.28836 0.16668 0.0
H542 H 0.69482 0.24104 0.14852 0.0
H543 H 0.67271 0.26904 0.20591 0.0
C544 C 0.76875 0.1979 0.07769 0.0
C545 C 0.79102 0.21464 0.05527 0.0
C546 C 0.75293 0.21359 0.10876 0.0
C547 C 0.75905 0.24633 0.11801 0.0
C548 C 0.78021 0.26324 0.09466 0.0
C549 C 0.79606 0.24762 0.06383 0.0
C550 C 0.75306 0.29994 0.20692 0.0
C551 C 0.71956 0.29476 0.21843 0.0
C552 C 0.76573 0.28407 0.17451 0.0
C553 C 0.74507 0.26268 0.15279 0.0
C554 C 0.71143 0.25724 0.1647 0.0
C555 C 0.69872 0.27328 0.19732 0.0
H556 H 0.31139 0.31609 0.66862 0.0
H557 H 0.35095 0.22589 0.62079 0.0
H558 H 0.28991 0.2893 0.72164 0.0
H559 H 0.32883 0.19899 0.67372 0.0
H560 H 0.31994 0.1708 0.79442 0.0
H561 H 0.34011 0.1966 0.73968 0.0
H562 H 0.24649 0.25105 0.73851 0.0
H563 H 0.2268 0.22539 0.79387 0.0
C564 C 0.31538 0.2905 0.66928 0.0
C565 C 0.33295 0.27315 0.64038 0.0
C566 C 0.30283 0.27511 0.69962 0.0
C567 C 0.30755 0.24199 0.70188 0.0
C568 C 0.32508 0.2246 0.67299 0.0
C569 C 0.33764 0.24 0.64258 0.0
C570 C 0.30377 0.18825 0.78224 0.0
C571 C 0.27201 0.19634 0.79797 0.0
C572 C 0.31515 0.20286 0.75084 0.0
C573 C 0.2949 0.22585 0.73467 0.0
C574 C 0.26285 0.23371 0.75054 0.0
C575 C 0.25148 0.21901 0.782 0.0
H576 H 0.72227 0.70783 0.42291 0.0
H577 H 0.62405 0.75042 0.40377 0.0
H578 H 0.74631 0.73536 0.3714 0.0
H579 H 0.64823 0.7781 0.35264 0.0
H580 H 0.69277 0.80148 0.24261 0.0
H581 H 0.67172 0.76693 0.28974 0.0
H582 H 0.75976 0.7914 0.35752 0.0
H583 H 0.7808 0.82568 0.30991 0.0
C584 C 0.70577 0.72301 0.40773 0.0
C585 C 0.67122 0.72701 0.4176 0.0
C586 C 0.71962 0.73886 0.3783 0.0
C587 C 0.69917 0.75884 0.35791 0.0
C588 C 0.66456 0.76252 0.36749 0.0
C589 C 0.65076 0.74684 0.39701 0.0
C590 C 0.70785 0.79883 0.26731 0.0
C591 C 0.73834 0.81584 0.27288 0.0
C592 C 0.69571 0.77936 0.29438 0.0
C593 C 0.71391 0.77669 0.3275 0.0
C594 C 0.7453 0.79277 0.33219 0.0
C595 C 0.75736 0.81235 0.30508 0.0
H596 H 0.87156 0.24139 0.88871 0.0
H597 H 0.76791 0.20731 0.89713 0.0
H598 H 0.85541 0.27237 0.83716 0.0
H599 H 0.75162 0.23906 0.84564 0.0
H600 H 0.74519 0.27709 0.72799 0.0
H601 H 0.76034 0.24297 0.77821 0.0
H602 H 0.82176 0.31996 0.82871 0.0
H603 H 0.80707 0.35337 0.77824 0.0
C604 C 0.84525 0.24061 0.87971 0.0
C605 C 0.82094 0.2221 0.89733 0.0
C606 C 0.83599 0.25849 0.8502 0.0
C607 C 0.80218 0.2584 0.83757 0.0
C608 C 0.77793 0.23943 0.85463 0.0
C609 C 0.78722 0.22143 0.88425 0.0
C610 C 0.762 0.2864 0.7499 0.0
C611 C 0.77532 0.31745 0.74956 0.0
C612 C 0.77048 0.2671 0.77866 0.0
C613 C 0.79239 0.27874 0.80729 0.0
C614 C 0.80532 0.31009 0.80675 0.0
C615 C 0.79685 0.32926 0.77807 0.0
H616 H 0.34599 0.24966 0.44902 0.0
H617 H 0.26055 0.28753 0.51399 0.0
H618 H 0.30689 0.22503 0.40331 0.0
H619 H 0.22142 0.26207 0.46878 0.0
H620 H 0.16667 0.25043 0.35624 0.0
H621 H 0.20377 0.26996 0.40688 0.0
H622 H 0.26462 0.1838 0.39087 0.0
H623 H 0.22756 0.16485 0.33921 0.0
C624 C 0.31885 0.25243 0.45379 0.0
C625 C 0.30642 0.27078 0.48506 0.0
C626 C 0.2964 0.23807 0.42768 0.0
C627 C 0.26098 0.24159 0.43229 0.0
C628 C 0.24856 0.25929 0.46405 0.0
C629 C 0.271 0.27381 0.49006 0.0
C630 C 0.1878 0.2356 0.36397 0.0
C631 C 0.19449 0.20627 0.34426 0.0
C632 C 0.20895 0.24664 0.39307 0.0
C633 C 0.23721 0.22846 0.40304 0.0
C634 C 0.24331 0.19857 0.38363 0.0
C635 C 0.22209 0.18758 0.35433 0.0
H636 H 0.23717 0.83711 0.97756 0.0
H637 H 0.19626 0.7462 0.00692 0.0
H638 H 0.27327 0.80907 0.9303 0.0
H639 H 0.23208 0.71846 0.95991 0.0
H640 H 0.31967 0.67374 0.89603 0.0
H641 H 0.29305 0.70683 0.94672 0.0
H642 H 0.26486 0.77662 0.86947 0.0
H643 H 0.2918 0.74336 0.81886 0.0
C644 C 0.23598 0.81118 0.9741 0.0
C645 C 0.21379 0.79392 0.99608 0.0
C646 C 0.25657 0.79517 0.94695 0.0
C647 C 0.25572 0.76154 0.94155 0.0
C648 C 0.23377 0.74434 0.96377 0.0
C649 C 0.21299 0.7603 0.99055 0.0
C650 C 0.30859 0.69661 0.89023 0.0
C651 C 0.3079 0.70631 0.8539 0.0
C652 C 0.29307 0.71537 0.91908 0.0
C653 C 0.2765 0.74417 0.91203 0.0
C654 C 0.2776 0.75469 0.87584 0.0
C655 C 0.29301 0.73576 0.84692 0.0
loop_
_geom_bond_atom_site_label_1
_geom_bond_atom_site_label_2
_geom_bond_distance
_geom_bond_site_symmetry_2
_ccdc_geom_bond_type
Fe0 O2 1.918 . S
Fe0 O5 1.997 . S
Fe0 O6 2.002 . S
Fe0 O11 1.976 . S
Fe0 O14 1.996 . S
Fe1 O2 1.918 . S
Fe1 O9 1.997 . S
Fe1 O12 1.996 . S
Fe1 O16 1.976 1_554 S
Fe1 O19 2.002 . S
O2 Fe0 1.918 . S
O2 Fe1 1.918 . S
O2 Fe3 1.918 . S
Fe3 O2 1.918 . S
Fe3 O4 2.002 . S
Fe3 O13 1.976 . S
Fe3 O17 1.996 1_554 S
Fe3 O20 1.997 . S
O4 Fe3 2.002 . S
O4 C21 1.295 . S
O5 Fe0 1.997 . S
O5 C21 1.235 . S
O6 Fe0 2.002 . S
O6 C7 1.295 . S
C7 O6 1.295 . S
C7 O9 1.235 . S
C8 O13 1.287 . S
C8 O14 1.255 . S
O9 Fe1 1.997 . S
O9 C7 1.235 . S
C10 O16 1.287 . S
C10 O17 1.255 . S
O11 Fe0 1.976 . S
O11 C18 1.287 . S
O12 Fe1 1.996 . S
O12 C18 1.255 . S
O13 Fe3 1.976 . S
O13 C8 1.287 . S
O14 Fe0 1.996 . S
O14 C8 1.255 . S
C15 O19 1.295 . S
C15 O20 1.235 . S
O16 Fe1 1.976 1_556 S
O16 C10 1.287 . S
O17 Fe3 1.996 1_556 S
O17 C10 1.255 . S
C18 O11 1.287 . S
C18 O12 1.255 . S
O19 Fe1 2.002 . S
O19 C15 1.295 . S
O20 Fe3 1.997 . S
O20 C15 1.235 . S
C21 O4 1.295 . S
C21 O5 1.235 . S
Fe22 O24 1.918 . S
Fe22 O27 1.997 . S
Fe22 O28 2.002 . S
Fe22 O33 1.976 . S
Fe22 O36 1.996 . S
Fe23 O24 1.918 . S
Fe23 O31 1.997 . S
Fe23 O34 1.996 . S
Fe23 O38 1.976 . S
Fe23 O41 2.002 . S
O24 Fe22 1.918 . S
O24 Fe23 1.918 . S
O24 Fe25 1.918 . S
Fe25 O24 1.918 . S
Fe25 O26 2.002 . S
Fe25 O35 1.976 . S
Fe25 O39 1.996 . S
Fe25 O42 1.997 . S
O26 Fe25 2.002 . S
O26 C43 1.295 . S
O27 Fe22 1.997 . S
O27 C43 1.235 . S
O28 Fe22 2.002 . S
O28 C29 1.295 . S
C29 O28 1.295 . S
C29 O31 1.235 . S
C30 O35 1.287 . S
C30 O36 1.255 . S
O31 Fe23 1.997 . S
O31 C29 1.235 . S
C32 O38 1.287 . S
C32 O39 1.255 . S
O33 Fe22 1.976 . S
O33 C40 1.287 . S
O34 Fe23 1.996 . S
O34 C40 1.255 . S
O35 Fe25 1.976 . S
O35 C30 1.287 . S
O36 Fe22 1.996 . S
O36 C30 1.255 . S
C37 O41 1.295 . S
C37 O42 1.235 . S
O38 Fe23 1.976 . S
O38 C32 1.287 . S
O39 Fe25 1.996 . S
O39 C32 1.255 . S
C40 O33 1.287 . S
C40 O34 1.255 . S
O41 Fe23 2.002 . S
O41 C37 1.295 . S
O42 Fe25 1.997 . S
O42 C37 1.235 . S
C43 O26 1.295 . S
C43 O27 1.235 . S
Fe44 O46 1.918 . S
Fe44 O49 1.997 1_554 S
Fe44 O50 2.002 1_554 S
Fe44 O55 1.976 . S
Fe44 O58 1.996 . S
Fe45 O46 1.918 . S
Fe45 O53 1.997 1_554 S
Fe45 O56 1.996 . S
Fe45 O60 1.976 . S
Fe45 O63 2.002 1_554 S
O46 Fe44 1.918 . S
O46 Fe45 1.918 . S
O46 Fe47 1.918 1_554 S
Fe47 O46 1.918 1_556 S
Fe47 O48 2.002 . S
Fe47 O57 1.976 1_556 S
Fe47 O61 1.996 1_556 S
Fe47 O64 1.997 . S
O48 Fe47 2.002 . S
O48 C65 1.295 . S
O49 Fe44 1.997 1_556 S
O49 C65 1.235 . S
O50 Fe44 2.002 1_556 S
O50 C51 1.295 . S
C51 O50 1.295 . S
C51 O53 1.235 . S
C52 O57 1.287 . S
C52 O58 1.255 . S
O53 Fe45 1.997 1_556 S
O53 C51 1.235 . S
C54 O60 1.287 . S
C54 O61 1.255 . S
O55 Fe44 1.976 . S
O55 C62 1.287 . S
O56 Fe45 1.996 . S
O56 C62 1.255 . S
O57 Fe47 1.976 1_554 S
O57 C52 1.287 . S
O58 Fe44 1.996 . S
O58 C52 1.255 . S
C59 O63 1.295 . S
C59 O64 1.235 . S
O60 Fe45 1.976 . S
O60 C54 1.287 . S
O61 Fe47 1.996 1_554 S
O61 C54 1.255 . S
C62 O55 1.287 . S
C62 O56 1.255 . S
O63 Fe45 2.002 1_556 S
O63 C59 1.295 . S
O64 Fe47 1.997 . S
O64 C59 1.235 . S
C65 O48 1.295 . S
C65 O49 1.235 . S
Fe66 O68 1.918 . S
Fe66 O71 1.997 . S
Fe66 O72 2.002 . S
Fe66 O77 1.976 . S
Fe66 O80 1.996 . S
Fe67 O68 1.918 . S
Fe67 O75 1.997 . S
Fe67 O78 1.996 . S
Fe67 O82 1.976 . S
Fe67 O85 2.002 . S
O68 Fe66 1.918 . S
O68 Fe67 1.918 . S
O68 Fe69 1.918 . S
Fe69 O68 1.918 . S
Fe69 O70 2.002 . S
Fe69 O79 1.976 . S
Fe69 O83 1.996 . S
Fe69 O86 1.997 . S
O70 Fe69 2.002 . S
O70 C87 1.295 . S
O71 Fe66 1.997 . S
O71 C87 1.235 . S
O72 Fe66 2.002 . S
O72 C73 1.295 . S
C73 O72 1.295 . S
C73 O75 1.235 . S
C74 O79 1.287 . S
C74 O80 1.255 . S
O75 Fe67 1.997 . S
O75 C73 1.235 . S
C76 O82 1.287 . S
C76 O83 1.255 . S
O77 Fe66 1.976 . S
O77 C84 1.287 . S
O78 Fe67 1.996 . S
O78 C84 1.255 . S
O79 Fe69 1.976 . S
O79 C74 1.287 . S
O80 Fe66 1.996 . S
O80 C74 1.255 . S
C81 O85 1.295 . S
C81 O86 1.235 . S
O82 Fe67 1.976 . S
O82 C76 1.287 . S
O83 Fe69 1.996 . S
O83 C76 1.255 . S
C84 O77 1.287 . S
C84 O78 1.255 . S
O85 Fe67 2.002 . S
O85 C81 1.295 . S
O86 Fe69 1.997 . S
O86 C81 1.235 . S
C87 O70 1.295 . S
C87 O71 1.235 . S
H88 C91 0.929 . S
H89 C94 0.929 . S
H90 C96 0.930 . S
C91 H88 0.929 . S
C91 C92 1.398 . S
C91 C93 1.396 . S
C92 C91 1.398 . S
C92 C96 1.407 . S
C93 C91 1.396 . S
C93 C94 1.394 . S
C94 H89 0.929 . S
C94 C93 1.394 . S
C94 C95 1.382 . S
C95 C94 1.382 . S
C95 C96 1.392 . S
C95 N97 1.420 . S
C96 H90 0.930 . S
C96 C92 1.407 . S
C96 C95 1.392 . S
N97 C95 1.420 . S
N97 C98 1.244 . S
C98 N97 1.244 . S
H99 C102 0.929 . S
H100 C105 0.929 . S
H101 C107 0.930 . S
C102 H99 0.929 . S
C102 C103 1.398 . S
C102 C104 1.396 . S
C103 C102 1.398 . S
C103 C107 1.407 . S
C104 C102 1.396 . S
C104 C105 1.394 . S
C105 H100 0.929 . S
C105 C104 1.394 . S
C105 C106 1.382 . S
C106 C105 1.382 . S
C106 C107 1.392 . S
C106 N108 1.420 . S
C107 H101 0.930 . S
C107 C103 1.407 . S
C107 C106 1.392 . S
N108 C106 1.420 . S
N108 C109 1.244 . S
C109 N108 1.244 . S
H110 C113 0.929 . S
H111 C116 0.929 . S
H112 C118 0.930 . S
C113 H110 0.929 . S
C113 C114 1.398 . S
C113 C115 1.396 . S
C114 C113 1.398 . S
C114 C118 1.407 . S
C115 C113 1.396 . S
C115 C116 1.394 . S
C116 H111 0.929 . S
C116 C115 1.394 . S
C116 C117 1.382 . S
C117 C116 1.382 . S
C117 C118 1.392 . S
C117 N119 1.420 . S
C118 H112 0.930 . S
C118 C114 1.407 . S
C118 C117 1.392 . S
N119 C117 1.420 . S
N119 C120 1.244 . S
C120 N119 1.244 . S
H121 C124 0.929 . S
H122 C127 0.929 . S
H123 C129 0.930 . S
C124 H121 0.929 . S
C124 C125 1.398 . S
C124 C126 1.396 . S
C125 C124 1.398 . S
C125 C129 1.407 . S
C126 C124 1.396 . S
C126 C127 1.394 . S
C127 H122 0.929 . S
C127 C126 1.394 . S
C127 C128 1.382 . S
C128 C127 1.382 . S
C128 C129 1.392 . S
C128 N130 1.420 . S
C129 H123 0.930 . S
C129 C125 1.407 . S
C129 C128 1.392 . S
N130 C128 1.420 . S
N130 C131 1.244 . S
C131 N130 1.244 . S
H132 C135 0.929 . S
H133 C138 0.929 . S
H134 C140 0.930 . S
C135 H132 0.929 . S
C135 C136 1.398 . S
C135 C137 1.396 . S
C136 C135 1.398 . S
C136 C140 1.407 . S
C137 C135 1.396 . S
C137 C138 1.394 . S
C138 H133 0.929 . S
C138 C137 1.394 . S
C138 C139 1.382 . S
C139 C138 1.382 . S
C139 C140 1.392 . S
C139 N141 1.420 . S
C140 H134 0.930 . S
C140 C136 1.407 . S
C140 C139 1.392 . S
N141 C139 1.420 . S
N141 C142 1.244 . S
C142 N141 1.244 . S
H143 C146 0.929 . S
H144 C149 0.929 . S
H145 C151 0.930 . S
C146 H143 0.929 . S
C146 C147 1.398 . S
C146 C148 1.396 . S
C147 C146 1.398 . S
C147 C151 1.407 . S
C148 C146 1.396 . S
C148 C149 1.394 . S
C149 H144 0.929 . S
C149 C148 1.394 . S
C149 C150 1.382 . S
C150 C149 1.382 . S
C150 C151 1.392 . S
C150 N152 1.420 . S
C151 H145 0.930 . S
C151 C147 1.407 . S
C151 C150 1.392 . S
N152 C150 1.420 . S
N152 C153 1.244 . S
C153 N152 1.244 . S
H154 C157 0.929 . S
H155 C160 0.929 . S
H156 C162 0.930 . S
C157 H154 0.929 . S
C157 C158 1.398 . S
C157 C159 1.396 . S
C158 C157 1.398 . S
C158 C162 1.407 . S
C159 C157 1.396 . S
C159 C160 1.394 . S
C160 H155 0.929 . S
C160 C159 1.394 . S
C160 C161 1.382 . S
C161 C160 1.382 . S
C161 C162 1.392 . S
C161 N163 1.420 . S
C162 H156 0.930 . S
C162 C158 1.407 . S
C162 C161 1.392 . S
N163 C161 1.420 . S
N163 C164 1.244 . S
C164 N163 1.244 . S
H165 C168 0.929 . S
H166 C171 0.929 . S
H167 C173 0.930 . S
C168 H165 0.929 . S
C168 C169 1.398 . S
C168 C170 1.396 . S
C169 C168 1.398 . S
C169 C173 1.407 . S
C170 C168 1.396 . S
C170 C171 1.394 . S
C171 H166 0.929 . S
C171 C170 1.394 . S
C171 C172 1.382 . S
C172 C171 1.382 . S
C172 C173 1.392 . S
C172 N174 1.420 . S
C173 H167 0.930 . S
C173 C169 1.407 . S
C173 C172 1.392 . S
N174 C172 1.420 . S
N174 C175 1.244 . S
C175 N174 1.244 . S
H176 C184 0.950 . S
H177 C189 0.950 . S
H178 C186 0.950 . S
H179 C188 0.950 1_545 S
H180 C190 0.950 . S
H181 C192 0.950 . S
H182 C194 0.950 . S
H183 C195 0.950 . S
C184 H176 0.950 . S
C184 C185 1.386 . S
C184 C186 1.391 . S
C185 C184 1.386 . S
C185 C189 1.393 . S
C186 H178 0.950 . S
C186 C184 1.391 . S
C186 C187 1.400 . S
C187 C186 1.400 . S
C187 C188 1.398 . S
C187 C193 1.491 1_565 S
C188 H179 0.950 1_565 S
C188 C187 1.398 . S
C188 C189 1.391 . S
C189 H177 0.950 . S
C189 C185 1.393 . S
C189 C188 1.391 . S
C190 H180 0.950 . S
C190 C191 1.386 . S
C190 C192 1.391 . S
C191 C190 1.386 . S
C191 C195 1.393 . S
C192 H181 0.950 . S
C192 C190 1.391 . S
C192 C193 1.400 . S
C193 C187 1.491 1_545 S
C193 C192 1.400 . S
C193 C194 1.398 . S
C194 H182 0.950 . S
C194 C193 1.398 . S
C194 C195 1.391 . S
C195 H183 0.950 . S
C195 C191 1.393 . S
C195 C194 1.391 . S
H196 C204 0.950 . S
H197 C209 0.950 . S
H198 C206 0.950 . S
H199 C208 0.950 . S
H200 C210 0.950 . S
H201 C212 0.950 . S
H202 C214 0.950 . S
H203 C215 0.950 . S
C204 H196 0.950 . S
C204 C205 1.386 . S
C204 C206 1.391 . S
C205 C204 1.386 . S
C205 C209 1.393 . S
C206 H198 0.950 . S
C206 C204 1.391 . S
C206 C207 1.400 . S
C207 C206 1.400 . S
C207 C208 1.398 . S
C207 C213 1.491 . S
C208 H199 0.950 . S
C208 C207 1.398 . S
C208 C209 1.391 . S
C209 H197 0.950 . S
C209 C205 1.393 . S
C209 C208 1.391 . S
C210 H200 0.950 . S
C210 C211 1.386 . S
C210 C212 1.391 . S
C211 C210 1.386 . S
C211 C215 1.393 . S
C212 H201 0.950 . S
C212 C210 1.391 . S
C212 C213 1.400 . S
C213 C207 1.491 . S
C213 C212 1.400 . S
C213 C214 1.398 . S
C214 H202 0.950 . S
C214 C213 1.398 . S
C214 C215 1.391 . S
C215 H203 0.950 . S
C215 C211 1.393 . S
C215 C214 1.391 . S
H216 C224 0.950 . S
H217 C229 0.950 . S
H218 C226 0.950 . S
H219 C228 0.950 . S
H220 C230 0.950 . S
H221 C232 0.950 . S
H222 C234 0.950 . S
H223 C235 0.950 . S
C224 H216 0.950 . S
C224 C225 1.386 . S
C224 C226 1.391 1_545 S
C225 C224 1.386 . S
C225 C229 1.393 . S
C226 H218 0.950 . S
C226 C224 1.391 1_565 S
C226 C227 1.400 . S
C227 C226 1.400 . S
C227 C228 1.398 1_565 S
C227 C233 1.491 . S
C228 H219 0.950 . S
C228 C227 1.398 1_545 S
C228 C229 1.391 . S
C229 H217 0.950 . S
C229 C225 1.393 . S
C229 C228 1.391 . S
C230 H220 0.950 . S
C230 C231 1.386 . S
C230 C232 1.391 . S
C231 C230 1.386 . S
C231 C235 1.393 . S
C232 H221 0.950 . S
C232 C230 1.391 . S
C232 C233 1.400 . S
C233 C227 1.491 . S
C233 C232 1.400 . S
C233 C234 1.398 . S
C234 H222 0.950 . S
C234 C233 1.398 . S
C234 C235 1.391 . S
C235 H223 0.950 . S
C235 C231 1.393 . S
C235 C234 1.391 . S
H236 C244 0.950 . S
H237 C249 0.950 . S
H238 C246 0.950 . S
H239 C248 0.950 . S
H240 C250 0.950 . S
H241 C252 0.950 . S
H242 C254 0.950 . S
H243 C255 0.950 . S
C244 H236 0.950 . S
C244 C245 1.386 . S
C244 C246 1.391 . S
C245 C244 1.386 . S
C245 C249 1.393 . S
C246 H238 0.950 . S
C246 C244 1.391 . S
C246 C247 1.400 . S
C247 C246 1.400 . S
C247 C248 1.398 . S
C247 C253 1.491 . S
C248 H239 0.950 . S
C248 C247 1.398 . S
C248 C249 1.391 . S
C249 H237 0.950 . S
C249 C245 1.393 . S
C249 C248 1.391 . S
C250 H240 0.950 . S
C250 C251 1.386 . S
C250 C252 1.391 . S
C251 C250 1.386 . S
C251 C255 1.393 . S
C252 H241 0.950 . S
C252 C250 1.391 . S
C252 C253 1.400 . S
C253 C247 1.491 . S
C253 C252 1.400 . S
C253 C254 1.398 . S
C254 H242 0.950 . S
C254 C253 1.398 . S
C254 C255 1.391 . S
C255 H243 0.950 . S
C255 C251 1.393 . S
C255 C254 1.391 . S
H256 C264 0.950 . S
H257 C269 0.950 . S
H258 C266 0.950 . S
H259 C268 0.950 . S
H260 C270 0.950 . S
H261 C272 0.950 . S
H262 C274 0.950 . S
H263 C275 0.950 . S
C264 H256 0.950 . S
C264 C265 1.386 . S
C264 C266 1.391 . S
C265 C264 1.386 . S
C265 C269 1.393 . S
C266 H258 0.950 . S
C266 C264 1.391 . S
C266 C267 1.400 . S
C267 C266 1.400 . S
C267 C268 1.398 . S
C267 C273 1.491 . S
C268 H259 0.950 . S
C268 C267 1.398 . S
C268 C269 1.391 . S
C269 H257 0.950 . S
C269 C265 1.393 . S
C269 C268 1.391 . S
C270 H260 0.950 . S
C270 C271 1.386 . S
C270 C272 1.391 . S
C271 C270 1.386 . S
C271 C275 1.393 . S
C272 H261 0.950 . S
C272 C270 1.391 . S
C272 C273 1.400 . S
C273 C267 1.491 . S
C273 C272 1.400 . S
C273 C274 1.398 . S
C274 H262 0.950 . S
C274 C273 1.398 . S
C274 C275 1.391 . S
C275 H263 0.950 . S
C275 C271 1.393 . S
C275 C274 1.391 . S
H276 C284 0.950 . S
H277 C289 0.950 1_654 S
H278 C286 0.950 . S
H279 C288 0.950 . S
H280 C290 0.950 . S
H281 C292 0.950 . S
H282 C294 0.950 . S
H283 C295 0.950 . S
C284 H276 0.950 . S
C284 C285 1.386 . S
C284 C286 1.391 1_655 S
C285 C284 1.386 . S
C285 C289 1.393 1_655 S
C286 H278 0.950 . S
C286 C284 1.391 1_455 S
C286 C287 1.400 . S
C287 C286 1.400 . S
C287 C288 1.398 . S
C287 C293 1.491 . S
C288 H279 0.950 . S
C288 C287 1.398 . S
C288 C289 1.391 . S
C289 H277 0.950 1_456 S
C289 C285 1.393 1_455 S
C289 C288 1.391 . S
C290 H280 0.950 . S
C290 C291 1.386 . S
C290 C292 1.391 . S
C291 C290 1.386 . S
C291 C295 1.393 . S
C292 H281 0.950 . S
C292 C290 1.391 . S
C292 C293 1.400 . S
C293 C287 1.491 . S
C293 C292 1.400 . S
C293 C294 1.398 . S
C294 H282 0.950 . S
C294 C293 1.398 . S
C294 C295 1.391 . S
C295 H283 0.950 . S
C295 C291 1.393 . S
C295 C294 1.391 . S
H296 C304 0.950 . S
H297 C309 0.950 . S
H298 C306 0.950 . S
H299 C308 0.950 . S
H300 C310 0.950 . S
H301 C312 0.950 . S
H302 C314 0.950 . S
H303 C315 0.950 . S
C304 H296 0.950 . S
C304 C305 1.386 . S
C304 C306 1.391 . S
C305 C304 1.386 . S
C305 C309 1.393 . S
C306 H298 0.950 . S
C306 C304 1.391 . S
C306 C307 1.400 . S
C307 C306 1.400 . S
C307 C308 1.398 . S
C307 C313 1.491 . S
C308 H299 0.950 . S
C308 C307 1.398 . S
C308 C309 1.391 . S
C309 H297 0.950 . S
C309 C305 1.393 . S
C309 C308 1.391 . S
C310 H300 0.950 . S
C310 C311 1.386 . S
C310 C312 1.391 . S
C311 C310 1.386 . S
C311 C315 1.393 . S
C312 H301 0.950 . S
C312 C310 1.391 . S
C312 C313 1.400 . S
C313 C307 1.491 . S
C313 C312 1.400 . S
C313 C314 1.398 . S
C314 H302 0.950 . S
C314 C313 1.398 . S
C314 C315 1.391 . S
C315 H303 0.950 . S
C315 C311 1.393 . S
C315 C314 1.391 . S
H316 C324 0.950 . S
H317 C329 0.950 . S
H318 C326 0.950 1_655 S
H319 C328 0.950 . S
H320 C330 0.950 . S
H321 C332 0.950 . S
H322 C334 0.950 . S
H323 C335 0.950 . S
C324 H316 0.950 . S
C324 C325 1.386 . S
C324 C326 1.391 . S
C325 C324 1.386 . S
C325 C329 1.393 . S
C326 H318 0.950 1_455 S
C326 C324 1.391 . S
C326 C327 1.400 . S
C327 C326 1.400 . S
C327 C328 1.398 . S
C327 C333 1.491 1_455 S
C328 H319 0.950 . S
C328 C327 1.398 . S
C328 C329 1.391 . S
C329 H317 0.950 . S
C329 C325 1.393 . S
C329 C328 1.391 . S
C330 H320 0.950 . S
C330 C331 1.386 . S
C330 C332 1.391 1_655 S
C331 C330 1.386 . S
C331 C335 1.393 . S
C332 H321 0.950 . S
C332 C330 1.391 1_455 S
C332 C333 1.400 1_455 S
C333 C327 1.491 1_655 S
C333 C332 1.400 1_655 S
C333 C334 1.398 . S
C334 H322 0.950 . S
C334 C333 1.398 . S
C334 C335 1.391 . S
C335 H323 0.950 . S
C335 C331 1.393 . S
C335 C334 1.391 . S
H336 C344 0.950 . S
H337 C349 0.950 . S
H338 C346 0.950 1_565 S
H339 C348 0.950 . S
H340 C350 0.950 . S
H341 C352 0.950 . S
H342 C354 0.950 . S
H343 C355 0.950 . S
C344 H336 0.950 . S
C344 C345 1.386 . S
C344 C346 1.391 . S
C345 C344 1.386 . S
C345 C349 1.393 . S
C346 H338 0.950 1_545 S
C346 C344 1.391 . S
C346 C347 1.400 . S
C347 C346 1.400 . S
C347 C348 1.398 . S
C347 C353 1.491 1_545 S
C348 H339 0.950 . S
C348 C347 1.398 . S
C348 C349 1.391 . S
C349 H337 0.950 . S
C349 C345 1.393 . S
C349 C348 1.391 . S
C350 H340 0.950 . S
C350 C351 1.386 . S
C350 C352 1.391 . S
C351 C350 1.386 . S
C351 C355 1.393 . S
C352 H341 0.950 . S
C352 C350 1.391 . S
C352 C353 1.400 . S
C353 C347 1.491 1_565 S
C353 C352 1.400 . S
C353 C354 1.398 . S
C354 H342 0.950 . S
C354 C353 1.398 . S
C354 C355 1.391 . S
C355 H343 0.950 . S
C355 C351 1.393 . S
C355 C354 1.391 . S
H356 C364 0.950 . S
H357 C369 0.950 . S
H358 C366 0.950 . S
H359 C368 0.950 . S
H360 C370 0.950 . S
H361 C372 0.950 . S
H362 C374 0.950 . S
H363 C375 0.950 . S
C364 H356 0.950 . S
C364 C365 1.386 . S
C364 C366 1.391 . S
C365 C364 1.386 . S
C365 C369 1.393 . S
C366 H358 0.950 . S
C366 C364 1.391 . S
C366 C367 1.400 . S
C367 C366 1.400 . S
C367 C368 1.398 . S
C367 C373 1.491 . S
C368 H359 0.950 . S
C368 C367 1.398 . S
C368 C369 1.391 . S
C369 H357 0.950 . S
C369 C365 1.393 . S
C369 C368 1.391 . S
C370 H360 0.950 . S
C370 C371 1.386 . S
C370 C372 1.391 . S
C371 C370 1.386 . S
C371 C375 1.393 . S
C372 H361 0.950 . S
C372 C370 1.391 . S
C372 C373 1.400 . S
C373 C367 1.491 . S
C373 C372 1.400 . S
C373 C374 1.398 . S
C374 H362 0.950 . S
C374 C373 1.398 . S
C374 C375 1.391 . S
C375 H363 0.950 . S
C375 C371 1.393 . S
C375 C374 1.391 . S
H376 C384 0.950 . S
H377 C389 0.950 . S
H378 C386 0.950 . S
H379 C388 0.950 . S
H380 C390 0.950 . S
H381 C392 0.950 . S
H382 C394 0.950 . S
H383 C395 0.950 . S
C384 H376 0.950 . S
C384 C385 1.386 . S
C384 C386 1.391 . S
C385 C384 1.386 . S
C385 C389 1.393 . S
C386 H378 0.950 . S
C386 C384 1.391 . S
C386 C387 1.400 1_565 S
C387 C386 1.400 1_545 S
C387 C388 1.398 . S
C387 C393 1.491 . S
C388 H379 0.950 . S
C388 C387 1.398 . S
C388 C389 1.391 1_545 S
C389 H377 0.950 . S
C389 C385 1.393 . S
C389 C388 1.391 1_565 S
C390 H380 0.950 . S
C390 C391 1.386 . S
C390 C392 1.391 . S
C391 C390 1.386 . S
C391 C395 1.393 . S
C392 H381 0.950 . S
C392 C390 1.391 . S
C392 C393 1.400 . S
C393 C387 1.491 . S
C393 C392 1.400 . S
C393 C394 1.398 . S
C394 H382 0.950 . S
C394 C393 1.398 . S
C394 C395 1.391 . S
C395 H383 0.950 . S
C395 C391 1.393 . S
C395 C394 1.391 . S
H396 C404 0.950 . S
H397 C409 0.950 . S
H398 C406 0.950 . S
H399 C408 0.950 . S
H400 C410 0.950 . S
H401 C412 0.950 . S
H402 C414 0.950 . S
H403 C415 0.950 . S
C404 H396 0.950 . S
C404 C405 1.386 . S
C404 C406 1.391 . S
C405 C404 1.386 . S
C405 C409 1.393 . S
C406 H398 0.950 . S
C406 C404 1.391 . S
C406 C407 1.400 . S
C407 C406 1.400 . S
C407 C408 1.398 . S
C407 C413 1.491 . S
C408 H399 0.950 . S
C408 C407 1.398 . S
C408 C409 1.391 . S
C409 H397 0.950 . S
C409 C405 1.393 . S
C409 C408 1.391 . S
C410 H400 0.950 . S
C410 C411 1.386 . S
C410 C412 1.391 . S
C411 C410 1.386 . S
C411 C415 1.393 . S
C412 H401 0.950 . S
C412 C410 1.391 . S
C412 C413 1.400 . S
C413 C407 1.491 . S
C413 C412 1.400 . S
C413 C414 1.398 . S
C414 H402 0.950 . S
C414 C413 1.398 . S
C414 C415 1.391 . S
C415 H403 0.950 . S
C415 C411 1.393 . S
C415 C414 1.391 . S
H416 C424 0.950 . S
H417 C429 0.950 . S
H418 C426 0.950 . S
H419 C428 0.950 . S
H420 C430 0.950 . S
H421 C432 0.950 . S
H422 C434 0.950 . S
H423 C435 0.950 . S
C424 H416 0.950 . S
C424 C425 1.386 . S
C424 C426 1.391 . S
C425 C424 1.386 . S
C425 C429 1.393 . S
C426 H418 0.950 . S
C426 C424 1.391 . S
C426 C427 1.400 . S
C427 C426 1.400 . S
C427 C428 1.398 . S
C427 C433 1.491 . S
C428 H419 0.950 . S
C428 C427 1.398 . S
C428 C429 1.391 . S
C429 H417 0.950 . S
C429 C425 1.393 . S
C429 C428 1.391 . S
C430 H420 0.950 . S
C430 C431 1.386 . S
C430 C432 1.391 . S
C431 C430 1.386 . S
C431 C435 1.393 . S
C432 H421 0.950 . S
C432 C430 1.391 . S
C432 C433 1.400 . S
C433 C427 1.491 . S
C433 C432 1.400 . S
C433 C434 1.398 . S
C434 H422 0.950 . S
C434 C433 1.398 . S
C434 C435 1.391 . S
C435 H423 0.950 . S
C435 C431 1.393 . S
C435 C434 1.391 . S
H436 C444 0.950 1_455 S
H437 C449 0.950 . S
H438 C446 0.950 . S
H439 C448 0.950 . S
H440 C450 0.950 . S
H441 C452 0.950 . S
H442 C454 0.950 . S
H443 C455 0.950 . S
C444 H436 0.950 1_655 S
C444 C445 1.386 1_655 S
C444 C446 1.391 . S
C445 C444 1.386 1_455 S
C445 C449 1.393 . S
C446 H438 0.950 . S
C446 C444 1.391 . S
C446 C447 1.400 . S
C447 C446 1.400 . S
C447 C448 1.398 . S
C447 C453 1.491 . S
C448 H439 0.950 . S
C448 C447 1.398 . S
C448 C449 1.391 1_655 S
C449 H437 0.950 . S
C449 C445 1.393 . S
C449 C448 1.391 1_455 S
C450 H440 0.950 . S
C450 C451 1.386 . S
C450 C452 1.391 . S
C451 C450 1.386 . S
C451 C455 1.393 . S
C452 H441 0.950 . S
C452 C450 1.391 . S
C452 C453 1.400 . S
C453 C447 1.491 . S
C453 C452 1.400 . S
C453 C454 1.398 . S
C454 H442 0.950 . S
C454 C453 1.398 . S
C454 C455 1.391 . S
C455 H443 0.950 . S
C455 C451 1.393 . S
C455 C454 1.391 . S
H456 C464 0.950 . S
H457 C469 0.950 . S
H458 C466 0.950 . S
H459 C468 0.950 . S
H460 C470 0.950 . S
H461 C472 0.950 . S
H462 C474 0.950 . S
H463 C475 0.950 . S
C464 H456 0.950 . S
C464 C465 1.386 . S
C464 C466 1.391 . S
C465 C464 1.386 . S
C465 C469 1.393 . S
C466 H458 0.950 . S
C466 C464 1.391 . S
C466 C467 1.400 . S
C467 C466 1.400 . S
C467 C468 1.398 . S
C467 C473 1.491 . S
C468 H459 0.950 . S
C468 C467 1.398 . S
C468 C469 1.391 . S
C469 H457 0.950 . S
C469 C465 1.393 . S
C469 C468 1.391 . S
C470 H460 0.950 . S
C470 C471 1.386 . S
C470 C472 1.391 . S
C471 C470 1.386 . S
C471 C475 1.393 . S
C472 H461 0.950 . S
C472 C470 1.391 . S
C472 C473 1.400 . S
C473 C467 1.491 . S
C473 C472 1.400 . S
C473 C474 1.398 . S
C474 H462 0.950 . S
C474 C473 1.398 . S
C474 C475 1.391 . S
C475 H463 0.950 . S
C475 C471 1.393 . S
C475 C474 1.391 . S
H476 C484 0.950 . S
H477 C489 0.950 . S
H478 C486 0.950 . S
H479 C488 0.950 . S
H480 C490 0.950 . S
H481 C492 0.950 . S
H482 C494 0.950 1_655 S
H483 C495 0.950 . S
C484 H476 0.950 . S
C484 C485 1.386 . S
C484 C486 1.391 . S
C485 C484 1.386 . S
C485 C489 1.393 . S
C486 H478 0.950 . S
C486 C484 1.391 . S
C486 C487 1.400 . S
C487 C486 1.400 . S
C487 C488 1.398 . S
C487 C493 1.491 1_655 S
C488 H479 0.950 . S
C488 C487 1.398 . S
C488 C489 1.391 . S
C489 H477 0.950 . S
C489 C485 1.393 . S
C489 C488 1.391 . S
C490 H480 0.950 . S
C490 C491 1.386 . S
C490 C492 1.391 . S
C491 C490 1.386 . S
C491 C495 1.393 . S
C492 H481 0.950 . S
C492 C490 1.391 . S
C492 C493 1.400 . S
C493 C487 1.491 1_455 S
C493 C492 1.400 . S
C493 C494 1.398 . S
C494 H482 0.950 1_455 S
C494 C493 1.398 . S
C494 C495 1.391 . S
C495 H483 0.950 . S
C495 C491 1.393 . S
C495 C494 1.391 . S
H496 C504 0.950 . S
H497 C509 0.950 . S
H498 C506 0.950 . S
H499 C508 0.950 . S
H500 C510 0.950 . S
H501 C512 0.950 . S
H502 C514 0.950 . S
H503 C515 0.950 . S
C504 H496 0.950 . S
C504 C505 1.386 . S
C504 C506 1.391 . S
C505 C504 1.386 . S
C505 C509 1.393 . S
C506 H498 0.950 . S
C506 C504 1.391 . S
C506 C507 1.400 . S
C507 C506 1.400 . S
C507 C508 1.398 . S
C507 C513 1.491 . S
C508 H499 0.950 . S
C508 C507 1.398 . S
C508 C509 1.391 . S
C509 H497 0.950 . S
C509 C505 1.393 . S
C509 C508 1.391 . S
C510 H500 0.950 . S
C510 C511 1.386 . S
C510 C512 1.391 . S
C511 C510 1.386 . S
C511 C515 1.393 . S
C512 H501 0.950 . S
C512 C510 1.391 . S
C512 C513 1.400 . S
C513 C507 1.491 . S
C513 C512 1.400 . S
C513 C514 1.398 . S
C514 H502 0.950 . S
C514 C513 1.398 . S
C514 C515 1.391 . S
C515 H503 0.950 . S
C515 C511 1.393 . S
C515 C514 1.391 . S
H516 C524 0.950 . S
H517 C529 0.950 . S
H518 C526 0.950 . S
H519 C528 0.950 . S
H520 C530 0.950 . S
H521 C532 0.950 . S
H522 C534 0.950 . S
H523 C535 0.950 . S
C524 H516 0.950 . S
C524 C525 1.386 . S
C524 C526 1.391 . S
C525 C524 1.386 . S
C525 C529 1.393 . S
C526 H518 0.950 . S
C526 C524 1.391 . S
C526 C527 1.400 . S
C527 C526 1.400 . S
C527 C528 1.398 . S
C527 C533 1.491 . S
C528 H519 0.950 . S
C528 C527 1.398 . S
C528 C529 1.391 . S
C529 H517 0.950 . S
C529 C525 1.393 . S
C529 C528 1.391 . S
C530 H520 0.950 . S
C530 C531 1.386 . S
C530 C532 1.391 . S
C531 C530 1.386 . S
C531 C535 1.393 . S
C532 H521 0.950 . S
C532 C530 1.391 . S
C532 C533 1.400 . S
C533 C527 1.491 . S
C533 C532 1.400 . S
C533 C534 1.398 . S
C534 H522 0.950 . S
C534 C533 1.398 . S
C534 C535 1.391 . S
C535 H523 0.950 . S
C535 C531 1.393 . S
C535 C534 1.391 . S
H536 C544 0.950 . S
H537 C549 0.950 . S
H538 C546 0.950 . S
H539 C548 0.950 . S
H540 C550 0.950 . S
H541 C552 0.950 . S
H542 C554 0.950 . S
H543 C555 0.950 . S
C544 H536 0.950 . S
C544 C545 1.386 . S
C544 C546 1.391 . S
C545 C544 1.386 . S
C545 C549 1.393 . S
C546 H538 0.950 . S
C546 C544 1.391 . S
C546 C547 1.400 . S
C547 C546 1.400 . S
C547 C548 1.398 . S
C547 C553 1.491 . S
C548 H539 0.950 . S
C548 C547 1.398 . S
C548 C549 1.391 . S
C549 H537 0.950 . S
C549 C545 1.393 . S
C549 C548 1.391 . S
C550 H540 0.950 . S
C550 C551 1.386 . S
C550 C552 1.391 . S
C551 C550 1.386 . S
C551 C555 1.393 . S
C552 H541 0.950 . S
C552 C550 1.391 . S
C552 C553 1.400 . S
C553 C547 1.491 . S
C553 C552 1.400 . S
C553 C554 1.398 . S
C554 H542 0.950 . S
C554 C553 1.398 . S
C554 C555 1.391 . S
C555 H543 0.950 . S
C555 C551 1.393 . S
C555 C554 1.391 . S
H556 C564 0.950 . S
H557 C569 0.950 . S
H558 C566 0.950 . S
H559 C568 0.950 . S
H560 C570 0.950 . S
H561 C572 0.950 . S
H562 C574 0.950 . S
H563 C575 0.950 . S
C564 H556 0.950 . S
C564 C565 1.386 . S
C564 C566 1.391 . S
C565 C564 1.386 . S
C565 C569 1.393 . S
C566 H558 0.950 . S
C566 C564 1.391 . S
C566 C567 1.400 . S
C567 C566 1.400 . S
C567 C568 1.398 . S
C567 C573 1.491 . S
C568 H559 0.950 . S
C568 C567 1.398 . S
C568 C569 1.391 . S
C569 H557 0.950 . S
C569 C565 1.393 . S
C569 C568 1.391 . S
C570 H560 0.950 . S
C570 C571 1.386 . S
C570 C572 1.391 . S
C571 C570 1.386 . S
C571 C575 1.393 . S
C572 H561 0.950 . S
C572 C570 1.391 . S
C572 C573 1.400 . S
C573 C567 1.491 . S
C573 C572 1.400 . S
C573 C574 1.398 . S
C574 H562 0.950 . S
C574 C573 1.398 . S
C574 C575 1.391 . S
C575 H563 0.950 . S
C575 C571 1.393 . S
C575 C574 1.391 . S
H576 C584 0.950 . S
H577 C589 0.950 . S
H578 C586 0.950 . S
H579 C588 0.950 . S
H580 C590 0.950 . S
H581 C592 0.950 . S
H582 C594 0.950 . S
H583 C595 0.950 . S
C584 H576 0.950 . S
C584 C585 1.386 . S
C584 C586 1.391 . S
C585 C584 1.386 . S
C585 C589 1.393 . S
C586 H578 0.950 . S
C586 C584 1.391 . S
C586 C587 1.400 . S
C587 C586 1.400 . S
C587 C588 1.398 . S
C587 C593 1.491 . S
C588 H579 0.950 . S
C588 C587 1.398 . S
C588 C589 1.391 . S
C589 H577 0.950 . S
C589 C585 1.393 . S
C589 C588 1.391 . S
C590 H580 0.950 . S
C590 C591 1.386 . S
C590 C592 1.391 . S
C591 C590 1.386 . S
C591 C595 1.393 . S
C592 H581 0.950 . S
C592 C590 1.391 . S
C592 C593 1.400 . S
C593 C587 1.491 . S
C593 C592 1.400 . S
C593 C594 1.398 . S
C594 H582 0.950 . S
C594 C593 1.398 . S
C594 C595 1.391 . S
C595 H583 0.950 . S
C595 C591 1.393 . S
C595 C594 1.391 . S
H596 C604 0.950 . S
H597 C609 0.950 . S
H598 C606 0.950 . S
H599 C608 0.950 . S
H600 C610 0.950 . S
H601 C612 0.950 . S
H602 C614 0.950 . S
H603 C615 0.950 . S
C604 H596 0.950 . S
C604 C605 1.386 . S
C604 C606 1.391 . S
C605 C604 1.386 . S
C605 C609 1.393 . S
C606 H598 0.950 . S
C606 C604 1.391 . S
C606 C607 1.400 . S
C607 C606 1.400 . S
C607 C608 1.398 . S
C607 C613 1.491 . S
C608 H599 0.950 . S
C608 C607 1.398 . S
C608 C609 1.391 . S
C609 H597 0.950 . S
C609 C605 1.393 . S
C609 C608 1.391 . S
C610 H600 0.950 . S
C610 C611 1.386 . S
C610 C612 1.391 . S
C611 C610 1.386 . S
C611 C615 1.393 . S
C612 H601 0.950 . S
C612 C610 1.391 . S
C612 C613 1.400 . S
C613 C607 1.491 . S
C613 C612 1.400 . S
C613 C614 1.398 . S
C614 H602 0.950 . S
C614 C613 1.398 . S
C614 C615 1.391 . S
C615 H603 0.950 . S
C615 C611 1.393 . S
C615 C614 1.391 . S
H616 C624 0.950 . S
H617 C629 0.950 . S
H618 C626 0.950 . S
H619 C628 0.950 . S
H620 C630 0.950 . S
H621 C632 0.950 . S
H622 C634 0.950 . S
H623 C635 0.950 . S
C624 H616 0.950 . S
C624 C625 1.386 . S
C624 C626 1.391 . S
C625 C624 1.386 . S
C625 C629 1.393 . S
C626 H618 0.950 . S
C626 C624 1.391 . S
C626 C627 1.400 . S
C627 C626 1.400 . S
C627 C628 1.398 . S
C627 C633 1.491 . S
C628 H619 0.950 . S
C628 C627 1.398 . S
C628 C629 1.391 . S
C629 H617 0.950 . S
C629 C625 1.393 . S
C629 C628 1.391 . S
C630 H620 0.950 . S
C630 C631 1.386 . S
C630 C632 1.391 . S
C631 C630 1.386 . S
C631 C635 1.393 . S
C632 H621 0.950 . S
C632 C630 1.391 . S
C632 C633 1.400 . S
C633 C627 1.491 . S
C633 C632 1.400 . S
C633 C634 1.398 . S
C634 H622 0.950 . S
C634 C633 1.398 . S
C634 C635 1.391 . S
C635 H623 0.950 . S
C635 C631 1.393 . S
C635 C634 1.391 . S
H636 C644 0.950 . S
H637 C649 0.950 . S
H638 C646 0.950 . S
H639 C648 0.950 . S
H640 C650 0.950 . S
H641 C652 0.950 . S
H642 C654 0.950 . S
H643 C655 0.950 . S
C644 H636 0.950 . S
C644 C645 1.386 . S
C644 C646 1.391 . S
C645 C644 1.386 . S
C645 C649 1.393 . S
C646 H638 0.950 . S
C646 C644 1.391 . S
C646 C647 1.400 . S
C647 C646 1.400 . S
C647 C648 1.398 . S
C647 C653 1.491 . S
C648 H639 0.950 . S
C648 C647 1.398 . S
C648 C649 1.391 . S
C649 H637 0.950 . S
C649 C645 1.393 . S
C649 C648 1.391 . S
C650 H640 0.950 . S
C650 C651 1.386 . S
C650 C652 1.391 . S
C651 C650 1.386 . S
C651 C655 1.393 . S
C652 H641 0.950 . S
C652 C650 1.391 . S
C652 C653 1.400 . S
C653 C647 1.491 . S
C653 C652 1.400 . S
C653 C654 1.398 . S
C654 H642 0.950 . S
C654 C653 1.398 . S
C654 C655 1.391 . S
C655 H643 0.950 . S
C655 C651 1.393 . S
C655 C654 1.391 . S
C185 C7 1.453 . S
C191 C93 1.375 . S
C205 C37 1.391 . S
C211 C104 1.326 . S
C225 C54 1.337 . S
C231 C114 1.298 . S
C251 C126 1.369 . S
C245 C87 1.387 . S
C271 C137 1.344 . S
C265 C30 1.421 . S
C285 C51 1.408 . S
C291 C148 1.370 . S
C305 C84 1.377 . S
C311 C158 1.298 . S
C325 C10 1.359 . S
C331 C170 1.294 . S
C345 C59 1.326 . S
C351 C169 1.318 . S
C371 C136 1.164 . S
C365 C74 1.181 . S
C391 C147 1.294 . S
C385 C18 1.340 1_556 S
C405 C32 1.410 . S
C411 C159 1.352 . S
C431 C103 1.310 . S
C425 C73 1.317 . S
C445 C15 1.416 . S
C451 C115 1.372 . S
C471 C125 1.333 . S
C465 C43 1.348 . S
C491 C92 1.143 . S
C485 C62 1.189 . S
C511 C164 1.447 . S
C505 C21 1.474 . S
C531 C175 1.427 . S
C525 C29 1.421 . S
C545 C52 1.355 . S
C551 C142 1.349 . S
C571 C153 1.391 . S
C565 C81 1.421 . S
C591 C120 1.416 . S
C585 C40 1.440 . S
C605 C65 1.422 . S
C611 C131 1.390 . S
C631 C98 1.358 . S
C625 C76 1.359 . S
C651 C109 1.428 . S
C645 C8 1.437 1_556 S
