# Generated by pormake.
# Topology rtl, (3,6)-cn, num edge types: 1
# Building blocks:
#     Node 0, Type 0, BuildingBlock: BELTOD_clean_linker_0, # of connection points: 3
#     Node 1, Type 0, BuildingBlock: BELTOD_clean_linker_0, # of connection points: 3
#     Node 2, Type 0, BuildingBlock: BELTOD_clean_linker_0, # of connection points: 3
#     Node 3, Type 0, BuildingBlock: BELTOD_clean_linker_0, # of connection points: 3
#     Node 4, Type 1, BuildingBlock: LEVNOQ01_clean_sbu_1, # of connection points: 6
#     Node 5, Type 1, BuildingBlock: LEVNOQ01_clean_sbu_1, # of connection points: 6
#     Edge 6, Type (0, 1), BuildingBlock: ZUJKAS_clean_linker_0, # of connection points: 2
#     Edge 7, Type (0, 1), BuildingBlock: ZUJKAS_clean_linker_0, # of connection points: 2
#     Edge 8, Type (0, 1), BuildingBlock: ZUJKAS_clean_linker_0, # of connection points: 2
#     Edge 9, Type (0, 1), BuildingBlock: ZUJKAS_clean_linker_0, # of connection points: 2
#     Edge 10, Type (0, 1), BuildingBlock: ZUJKAS_clean_linker_0, # of connection points: 2
#     Edge 11, Type (0, 1), BuildingBlock: ZUJKAS_clean_linker_0, # of connection points: 2
#     Edge 12, Type (0, 1), BuildingBlock: ZUJKAS_clean_linker_0, # of connection points: 2
#     Edge 13, Type (0, 1), BuildingBlock: ZUJKAS_clean_linker_0, # of connection points: 2
#     Edge 14, Type (0, 1), BuildingBlock: ZUJKAS_clean_linker_0, # of connection points: 2
#     Edge 15, Type (0, 1), BuildingBlock: ZUJKAS_clean_linker_0, # of connection points: 2
#     Edge 16, Type (0, 1), BuildingBlock: ZUJKAS_clean_linker_0, # of connection points: 2
#     Edge 17, Type (0, 1), BuildingBlock: ZUJKAS_clean_linker_0, # of connection points: 2
# Relax obj value: 0.023
# Max RMSD: 0.060
# Mean RMSD: 0.042
data_MOF--net-rtl--node1-LEVNOQ01_clean_sbu_1--node2-BELTOD_clean_linker_0--edge1-ZUJKAS_clean_linker_0
_symmetry_space_group_name_H-M    P1
_symmetry_Int_Tables_number       1
_symmetry_cell_setting            triclinic
loop_
_symmetry_equiv_pos_as_xyz
'x, y, z'
_cell_length_a     44.148367
_cell_length_b     49.713803
_cell_length_c     34.441743
_cell_angle_alpha  89.293524
_cell_angle_beta   97.902637
_cell_angle_gamma 90.185916
loop_
_atom_site_label
_atom_site_type_symbol
_atom_site_fract_x
_atom_site_fract_y
_atom_site_fract_z
_atom_type_partial_charge
P0 P 0.27383 0.8998 0.08456 0.0
H1 H 0.28987 0.93305 0.15362 0.0
H2 H 0.26303 0.9438 0.20915 0.0
H3 H 0.18721 0.89391 0.16054 0.0
H4 H 0.21418 0.88322 0.10527 0.0
H5 H 0.33617 0.88549 0.07312 0.0
H6 H 0.3672 0.84525 0.08983 0.0
H7 H 0.29276 0.80896 0.14122 0.0
H8 H 0.26195 0.84929 0.12459 0.0
H9 H 0.21661 0.92579 0.05155 0.0
H10 H 0.27515 0.86329 0.01823 0.0
O11 O 0.29649 0.92562 0.07652 0.0
H12 H 0.18258 0.92035 0.98989 0.0
H13 H 0.24133 0.85803 0.95617 0.0
C14 C 0.2536 0.90801 0.12479 0.0
C15 C 0.26736 0.92462 0.1548 0.0
C16 C 0.25213 0.93057 0.18664 0.0
C17 C 0.22289 0.91991 0.18897 0.0
C18 C 0.20945 0.90284 0.15914 0.0
C19 C 0.22481 0.89676 0.12752 0.0
C20 C 0.29694 0.87053 0.09813 0.0
C21 C 0.32665 0.86899 0.08833 0.0
C22 C 0.34431 0.84594 0.09777 0.0
C23 C 0.3325 0.824 0.1171 0.0
C24 C 0.30272 0.82572 0.12702 0.0
C25 C 0.28502 0.84872 0.11734 0.0
C26 C 0.24792 0.89439 0.04007 0.0
C27 C 0.22186 0.91056 0.03129 0.0
C28 C 0.20241 0.90744 0.99603 0.0
C29 C 0.20911 0.88855 0.96839 0.0
C30 C 0.23555 0.87268 0.97697 0.0
C31 C 0.25479 0.87558 0.01254 0.0
P32 P 0.77073 0.62335 0.57706 0.0
H33 H 0.78194 0.63148 0.49649 0.0
H34 H 0.74923 0.62892 0.43335 0.0
H35 H 0.67126 0.61277 0.49358 0.0
H36 H 0.70388 0.61653 0.55638 0.0
H37 H 0.82171 0.63837 0.63524 0.0
H38 H 0.84863 0.68069 0.65075 0.0
H39 H 0.79011 0.71996 0.55588 0.0
H40 H 0.76241 0.67789 0.54205 0.0
H41 H 0.74477 0.57224 0.5986 0.0
H42 H 0.75329 0.65263 0.64469 0.0
O43 O 0.79735 0.60017 0.57313 0.0
H44 H 0.72019 0.55763 0.655 0.0
H45 H 0.72935 0.63802 0.70125 0.0
C46 C 0.74546 0.62402 0.53114 0.0
C47 C 0.75771 0.62771 0.49602 0.0
C48 C 0.73898 0.62603 0.45991 0.0
C49 C 0.70755 0.62035 0.45816 0.0
C50 C 0.69523 0.61745 0.49362 0.0
C51 C 0.71399 0.61936 0.52973 0.0
C52 C 0.79037 0.65489 0.58719 0.0
C53 C 0.81473 0.65615 0.61782 0.0
C54 C 0.83021 0.68037 0.62651 0.0
C55 C 0.82177 0.70386 0.60447 0.0
C56 C 0.79707 0.70246 0.5739 0.0
C57 C 0.78137 0.67826 0.56557 0.0
C58 C 0.75125 0.61339 0.61768 0.0
C59 C 0.74138 0.58672 0.62085 0.0
C60 C 0.72732 0.57841 0.65299 0.0
C61 C 0.7232 0.59663 0.6827 0.0
C62 C 0.73272 0.62345 0.67912 0.0
C63 C 0.74636 0.63182 0.6467 0.0
P64 P 0.84004 0.22561 0.0074 0.0
H65 H 0.82776 0.23383 0.92328 0.0
H66 H 0.82759 0.20364 0.86778 0.0
H67 H 0.84385 0.13606 0.94797 0.0
H68 H 0.8433 0.16629 0.00328 0.0
H69 H 0.83323 0.2792 0.03763 0.0
H70 H 0.79067 0.31096 0.03137 0.0
H71 H 0.73265 0.25216 0.96617 0.0
H72 H 0.77551 0.22053 0.97238 0.0
H73 H 0.89578 0.20445 0.05167 0.0
H74 H 0.80049 0.2094 0.06603 0.0
O75 O 0.8705 0.24459 0.00214 0.0
H76 H 0.90709 0.18268 0.1159 0.0
H77 H 0.81152 0.18715 0.13033 0.0
C78 C 0.8356 0.20235 0.96734 0.0
C79 C 0.83075 0.21244 0.92885 0.0
C80 C 0.83083 0.19518 0.89719 0.0
C81 C 0.83598 0.16747 0.90346 0.0
C82 C 0.83954 0.15725 0.94211 0.0
C83 C 0.83943 0.17458 0.97383 0.0
C84 C 0.80767 0.24778 0.00481 0.0
C85 C 0.81132 0.27314 0.02206 0.0
C86 C 0.78692 0.29121 0.01862 0.0
C87 C 0.75833 0.28416 0.99797 0.0
C88 C 0.75454 0.25836 0.98162 0.0
C89 C 0.77898 0.24024 0.98527 0.0
C90 C 0.84743 0.20895 0.05445 0.0
C91 C 0.87728 0.20083 0.06873 0.0
C92 C 0.88367 0.18819 0.10536 0.0
C93 C 0.86023 0.18325 0.12838 0.0
C94 C 0.83017 0.19106 0.11363 0.0
C95 C 0.8238 0.20368 0.07682 0.0
P96 P 0.28283 0.34 0.47667 0.0
H97 H 0.30355 0.31083 0.54882 0.0
H98 H 0.31638 0.32454 0.61694 0.0
H99 H 0.29073 0.4063 0.58318 0.0
H100 H 0.27666 0.39206 0.5155 0.0
H101 H 0.26467 0.2976 0.42083 0.0
H102 H 0.22094 0.26698 0.41175 0.0
H103 H 0.18255 0.30667 0.50468 0.0
H104 H 0.2266 0.33718 0.51373 0.0
H105 H 0.32347 0.38544 0.46948 0.0
H106 H 0.23958 0.35459 0.40645 0.0
O107 O 0.31252 0.32109 0.46891 0.0
H108 H 0.3264 0.41888 0.41744 0.0
H109 H 0.2426 0.38776 0.35425 0.0
C110 C 0.2899 0.35053 0.527 0.0
C111 C 0.30054 0.33167 0.5562 0.0
C112 C 0.30805 0.3396 0.59512 0.0
C113 C 0.30509 0.36664 0.60562 0.0
C114 C 0.2932 0.38529 0.57634 0.0
C115 C 0.28544 0.37724 0.53742 0.0
C116 C 0.24918 0.31918 0.46855 0.0
C117 C 0.24676 0.29978 0.43913 0.0
C118 C 0.22159 0.28247 0.4337 0.0
C119 C 0.19835 0.28429 0.45765 0.0
C120 C 0.2003 0.30454 0.48612 0.0
C121 C 0.22544 0.32197 0.49135 0.0
C122 C 0.2812 0.36767 0.44213 0.0
C123 C 0.30528 0.3863 0.44495 0.0
C124 C 0.3069 0.40543 0.41522 0.0
C125 C 0.28473 0.4059 0.38175 0.0
C126 C 0.26008 0.38777 0.37962 0.0
C127 C 0.25831 0.36883 0.40959 0.0
O128 O 0.00971 0.03606 0.64062 0.0
Mg129 Mg 0.04561 0.02704 0.60823 0.0
O130 O 0.97361 0.02011 0.59585 0.0
Mg131 Mg 1.00016 0.00188 0.548 0.0
O132 O 0.03581 0.03725 0.55051 0.0
O133 O 0.07107 0.05819 0.59292 0.0
O134 O 0.02709 0.98399 0.5009 0.0
O135 O 0.97195 0.03091 0.50127 0.0
Mg136 Mg 0.95682 0.97147 0.48377 0.0
O137 O 0.96448 0.96726 0.5435 0.0
O138 O 0.99604 0.96025 0.45833 0.0
O139 O 0.93549 0.0079 0.46539 0.0
O140 O 0.93048 0.94254 0.50507 0.0
C141 C 0.05406 0.97064 0.61494 0.0
C142 C 0.9817 0.03159 0.62865 0.0
C143 C 0.05668 0.05579 0.55789 0.0
C144 C 0.02257 0.96908 0.47075 0.0
C145 C 0.94842 0.03002 0.47507 0.0
C146 C 0.94428 0.94806 0.53955 0.0
O147 O 0.07021 0.99159 0.61986 0.0
O148 O 0.02767 0.97168 0.59436 0.0
O149 O 0.50011 0.512 0.12104 0.0
Mg150 Mg 0.48341 0.48517 0.07502 0.0
O151 O 0.51069 0.54288 0.07858 0.0
Mg152 Mg 0.4794 0.52436 0.02542 0.0
O153 O 0.50769 0.48311 0.02889 0.0
O154 O 0.50979 0.45222 0.07737 0.0
O155 O 0.44784 0.50281 0.97381 0.0
O156 O 0.5166 0.53645 0.98511 0.0
Mg157 Mg 0.45169 0.56178 0.96079 0.0
O158 O 0.45423 0.56575 0.02024 0.0
O159 O 0.42105 0.53265 0.93578 0.0
O160 O 0.4942 0.56501 0.94054 0.0
O161 O 0.43264 0.59616 0.97649 0.0
C162 C 0.42514 0.49521 0.0719 0.0
C163 C 0.51242 0.53428 0.11388 0.0
C164 C 0.51805 0.4604 0.04474 0.0
C165 C 0.42704 0.50843 0.94529 0.0
C166 C 0.51763 0.55194 0.95537 0.0
C167 C 0.44 0.5885 0.01251 0.0
O168 O 0.43738 0.47293 0.06708 0.0
O169 O 0.43967 0.51652 0.06492 0.0
H170 H 0.17609 0.25829 0.51785 0.0
H171 H 0.14027 0.22069 0.51398 0.0
H172 H 0.12881 0.22584 0.3877 0.0
H173 H 0.1651 0.26352 0.39138 0.0
H174 H 0.08023 0.21328 0.48074 0.0
H175 H 0.15917 0.14919 0.40886 0.0
H176 H 0.17093 0.18123 0.4299 0.0
H177 H 0.14618 0.17988 0.38399 0.0
C178 C 0.16552 0.25182 0.48923 0.0
C179 C 0.17362 0.26376 0.45492 0.0
C180 C 0.14508 0.23025 0.48704 0.0
C181 C 0.13222 0.22016 0.45055 0.0
C182 C 0.13896 0.23292 0.41616 0.0
H183 H 0.01764 0.08011 0.49919 0.0
H184 H 0.02973 0.1188 0.45843 0.0
C185 C 0.15965 0.25445 0.41832 0.0
C186 C 0.11365 0.19517 0.4494 0.0
H187 H 0.11797 0.1279 0.43215 0.0
C188 C 0.08797 0.19466 0.46932 0.0
C189 C 0.1238 0.17095 0.43428 0.0
C190 C 0.15161 0.1701 0.41324 0.0
C191 C 0.07374 0.17031 0.47747 0.0
C192 C 0.08523 0.14589 0.46468 0.0
C193 C 0.10917 0.14668 0.44175 0.0
C194 C 0.07779 0.11968 0.48217 0.0
C195 C 0.0483 0.17075 0.5026 0.0
C196 C 0.10098 0.10651 0.50717 0.0
C197 C 0.09417 0.08449 0.52975 0.0
C198 C 0.06404 0.07501 0.52767 0.0
C199 C 0.04108 0.08686 0.50066 0.0
C200 C 0.04792 0.10913 0.47791 0.0
H201 H 0.04423 0.19123 0.51334 0.0
H202 H 0.02679 0.1636 0.48528 0.0
H203 H 0.05372 0.15706 0.52832 0.0
H204 H 0.12418 0.11423 0.51098 0.0
H205 H 0.11232 0.07563 0.55029 0.0
H206 H 0.36522 0.79841 0.06717 0.0
H207 H 0.39069 0.75495 0.07658 0.0
H208 H 0.36594 0.74881 0.19327 0.0
H209 H 0.33987 0.79243 0.18375 0.0
H210 H 0.43749 0.7343 0.13039 0.0
H211 H 0.32723 0.68165 0.1418 0.0
H212 H 0.32839 0.71642 0.12659 0.0
H213 H 0.33932 0.70716 0.17713 0.0
C214 C 0.3656 0.78807 0.0951 0.0
C215 C 0.35035 0.79876 0.1246 0.0
C216 C 0.38017 0.76319 0.10046 0.0
C217 C 0.37992 0.74845 0.13546 0.0
C218 C 0.36593 0.75959 0.16576 0.0
H219 H 0.46787 0.59388 0.08901 0.0
H220 H 0.45637 0.62863 0.13552 0.0
C221 C 0.35106 0.78447 0.16027 0.0
C222 C 0.39236 0.7207 0.13806 0.0
H223 H 0.36843 0.65544 0.12968 0.0
C224 C 0.42272 0.71689 0.13139 0.0
C225 C 0.37306 0.69804 0.13978 0.0
C226 C 0.34014 0.70082 0.14652 0.0
C227 C 0.43331 0.69145 0.12224 0.0
C228 C 0.41305 0.66926 0.12024 0.0
C229 C 0.38386 0.67254 0.13132 0.0
C230 C 0.41822 0.64544 0.0966 0.0
C231 C 0.46497 0.68901 0.11082 0.0
C232 C 0.39994 0.64282 0.06025 0.0
C233 C 0.40643 0.62337 0.03405 0.0
C234 C 0.43132 0.60589 0.04356 0.0
C235 C 0.44861 0.60721 0.08098 0.0
C236 C 0.44217 0.62707 0.10739 0.0
H237 H 0.47754 0.70845 0.11292 0.0
H238 H 0.47837 0.6741 0.13031 0.0
H239 H 0.46353 0.68171 0.08027 0.0
H240 H 0.38137 0.65674 0.05128 0.0
H241 H 0.39243 0.62261 0.00566 0.0
H242 H 0.79916 0.75542 0.60067 0.0
H243 H 0.82788 0.79744 0.60915 0.0
H244 H 0.91168 0.75285 0.63848 0.0
H245 H 0.88347 0.71071 0.62763 0.0
H246 H 0.8651 0.82008 0.67037 0.0
H247 H 0.93127 0.79858 0.54792 0.0
H248 H 0.89889 0.7785 0.5571 0.0
H249 H 0.93531 0.7741 0.58698 0.0
C250 C 0.82374 0.75446 0.60847 0.0
C251 C 0.83895 0.72953 0.61279 0.0
C252 C 0.8401 0.77856 0.61382 0.0
C253 C 0.87202 0.77834 0.62381 0.0
C254 C 0.88715 0.75355 0.62998 0.0
H255 H 0.98513 0.91908 0.58977 0.0
H256 H 0.97246 0.87829 0.62533 0.0
C257 C 0.87085 0.72942 0.62421 0.0
C258 C 0.88931 0.8041 0.62555 0.0
H259 H 0.93982 0.84004 0.57875 0.0
C260 C 0.88176 0.82433 0.6507 0.0
C261 C 0.91123 0.80963 0.60009 0.0
C262 C 0.91955 0.78919 0.57125 0.0
C263 C 0.89451 0.85025 0.64982 0.0
C264 C 0.91518 0.8561 0.62296 0.0
C265 C 0.92417 0.83544 0.5996 0.0
C266 C 0.92347 0.88409 0.61313 0.0
C267 C 0.88504 0.87136 0.67678 0.0
C268 C 0.90025 0.90146 0.59612 0.0
C269 C 0.90746 0.9245 0.57576 0.0
C270 C 0.938 0.93072 0.57238 0.0
C271 C 0.96144 0.91494 0.59273 0.0
C272 C 0.9542 0.89156 0.61275 0.0
H273 H 0.87857 0.86209 0.704 0.0
H274 H 0.90362 0.88621 0.68481 0.0
H275 H 0.86474 0.88223 0.66173 0.0
H276 H 0.87642 0.89591 0.59524 0.0
H277 H 0.88904 0.93619 0.55977 0.0
H278 H 0.71785 0.29531 0.93202 0.0
H279 H 0.67643 0.32851 0.92441 0.0
H280 H 0.69955 0.3503 0.04572 0.0
H281 H 0.74087 0.31734 0.05348 0.0
H282 H 0.62629 0.33162 0.96119 0.0
H283 H 0.6959 0.4233 0.99195 0.0
H284 H 0.71244 0.39146 0.98148 0.0
H285 H 0.70463 0.39866 0.03028 0.0
C286 C 0.71403 0.30715 0.95708 0.0
C287 C 0.73277 0.30383 0.99331 0.0
C288 C 0.69051 0.32622 0.95261 0.0
C289 C 0.68539 0.34236 0.98422 0.0
C290 C 0.70372 0.33872 0.02056 0.0
H291 H 0.53464 0.40896 0.06391 0.0
H292 H 0.57318 0.38202 0.03887 0.0
C293 C 0.72725 0.31977 0.02501 0.0
C294 C 0.65985 0.36197 0.98025 0.0
H295 H 0.64279 0.42643 0.00241 0.0
C296 C 0.62994 0.35249 0.96941 0.0
C297 C 0.66455 0.3894 0.98993 0.0
C298 C 0.69617 0.40137 0.99861 0.0
C299 C 0.60458 0.36916 0.97115 0.0
C300 C 0.60928 0.39578 0.98479 0.0
C301 C 0.63917 0.4059 0.99246 0.0
C302 C 0.584 0.41193 0.9967 0.0
C303 C 0.57294 0.35779 0.9596 0.0
C304 C 0.57751 0.43804 0.98176 0.0
C305 C 0.55533 0.45377 0.99631 0.0
C306 C 0.53979 0.4437 0.02644 0.0
C307 C 0.54616 0.41742 0.04076 0.0
C308 C 0.56804 0.4018 0.02617 0.0
H309 H 0.57306 0.34201 0.93705 0.0
H310 H 0.56491 0.34831 0.98569 0.0
H311 H 0.55644 0.37372 0.94801 0.0
H312 H 0.58987 0.44634 0.95929 0.0
H313 H 0.55098 0.47397 0.98478 0.0
H314 H 0.16298 0.93409 0.18596 0.0
H315 H 0.13521 0.94401 0.24086 0.0
H316 H 0.21743 0.93088 0.322 0.0
H317 H 0.24539 0.92063 0.26712 0.0
H318 H 0.16323 0.90315 0.34059 0.0
H319 H 0.14379 0.01214 0.31097 0.0
H320 H 0.13377 0.99119 0.26898 0.0
H321 H 0.173 0.99338 0.2911 0.0
C322 C 0.17514 0.93329 0.21549 0.0
C323 C 0.20634 0.92657 0.22227 0.0
C324 C 0.15934 0.9392 0.24676 0.0
C325 C 0.1744 0.93849 0.28536 0.0
C326 C 0.20551 0.93174 0.29234 0.0
H327 H 0.07954 0.99219 0.47858 0.0
H328 H 0.12025 0.98423 0.43835 0.0
C329 C 0.22143 0.92601 0.26101 0.0
C330 C 0.15712 0.94372 0.31834 0.0
H331 H 0.1132 0.99105 0.3548 0.0
C332 C 0.15261 0.92245 0.34409 0.0
C333 C 0.14366 0.96902 0.32309 0.0
C334 C 0.14897 0.99285 0.29732 0.0
C335 C 0.13364 0.92546 0.37328 0.0
C336 C 0.11872 0.95029 0.37648 0.0
C337 C 0.12451 0.97196 0.35206 0.0
C338 C 0.09532 0.95364 0.40293 0.0
C339 C 0.1293 0.90194 0.40005 0.0
C340 C 0.0679 0.93907 0.39626 0.0
C341 C 0.04457 0.94364 0.41892 0.0
C342 C 0.04823 0.96291 0.44877 0.0
C343 C 0.07604 0.97711 0.45595 0.0
C344 C 0.0993 0.97264 0.43299 0.0
H345 H 0.14832 0.88725 0.40116 0.0
H346 H 0.12767 0.90879 0.43026 0.0
H347 H 0.1077 0.89139 0.38893 0.0
H348 H 0.06419 0.92464 0.37275 0.0
H349 H 0.02348 0.93237 0.41258 0.0
H350 H 0.74321 0.60602 0.75996 0.0
H351 H 0.71829 0.59319 0.81675 0.0
H352 H 0.64524 0.55569 0.73984 0.0
H353 H 0.67062 0.56769 0.68329 0.0
H354 H 0.6667 0.60922 0.83444 0.0
H355 H 0.65881 0.49895 0.82269 0.0
H356 H 0.68254 0.51875 0.79449 0.0
H357 H 0.64236 0.51431 0.77739 0.0
C358 C 0.72199 0.59477 0.75531 0.0
C359 C 0.70885 0.58781 0.71725 0.0
C360 C 0.70784 0.58735 0.78777 0.0
C361 C 0.68014 0.57297 0.7828 0.0
C362 C 0.66709 0.56592 0.74473 0.0
H363 H 0.52681 0.58617 0.89608 0.0
H364 H 0.57091 0.58979 0.86166 0.0
C365 C 0.68147 0.573 0.71233 0.0
C366 C 0.66332 0.56773 0.81674 0.0
H367 H 0.62085 0.52021 0.85749 0.0
C368 C 0.65727 0.58959 0.83995 0.0
C369 C 0.65153 0.54203 0.82487 0.0
C370 C 0.65948 0.51716 0.80378 0.0
C371 C 0.63798 0.5869 0.86888 0.0
C372 C 0.62359 0.56188 0.87404 0.0
C373 C 0.63145 0.53952 0.85307 0.0
C374 C 0.59753 0.5596 0.89689 0.0
C375 C 0.63251 0.61116 0.89287 0.0
C376 C 0.59736 0.5408 0.92771 0.0
C377 C 0.57171 0.53845 0.9476 0.0
C378 C 0.54581 0.55468 0.93657 0.0
C379 C 0.5463 0.57339 0.90566 0.0
C380 C 0.57169 0.57568 0.886 0.0
H381 H 0.65272 0.62473 0.89624 0.0
H382 H 0.61285 0.62273 0.87758 0.0
H383 H 0.62731 0.60525 0.92245 0.0
H384 H 0.61697 0.52796 0.93627 0.0
H385 H 0.572 0.52373 0.97109 0.0
H386 H 0.89852 0.1407 0.14886 0.0
H387 H 0.91125 0.11959 0.21344 0.0
H388 H 0.85053 0.17406 0.26116 0.0
H389 H 0.83823 0.19587 0.19666 0.0
H390 H 0.90874 0.16737 0.30833 0.0
H391 H 0.85378 0.06967 0.26561 0.0
H392 H 0.88058 0.08082 0.23404 0.0
H393 H 0.84635 0.0999 0.23633 0.0
C394 C 0.888 0.14835 0.1731 0.0
C395 C 0.8673 0.16997 0.16755 0.0
C396 C 0.89512 0.1361 0.20993 0.0
C397 C 0.88159 0.14507 0.24197 0.0
C398 C 0.86112 0.16677 0.23674 0.0
H399 H 0.88974 0.0444 0.45045 0.0
H400 H 0.87189 0.07685 0.39845 0.0
C401 C 0.85393 0.17904 0.19982 0.0
C402 C 0.88882 0.1316 0.28079 0.0
H403 H 0.88645 0.07055 0.3265 0.0
C404 C 0.90365 0.14626 0.31251 0.0
C405 C 0.88178 0.10418 0.28627 0.0
C406 C 0.86448 0.08774 0.25389 0.0
C407 C 0.91253 0.13394 0.34931 0.0
C408 C 0.90668 0.10619 0.35425 0.0
C409 C 0.89105 0.09181 0.32275 0.0
C410 C 0.91715 0.09115 0.3912 0.0
C411 C 0.92793 0.15073 0.38252 0.0
C412 C 0.94847 0.08911 0.40553 0.0
C413 C 0.95866 0.07078 0.4357 0.0
C414 C 0.93772 0.05406 0.45167 0.0
C415 C 0.90632 0.05724 0.43885 0.0
C416 C 0.89613 0.07568 0.40905 0.0
H417 H 0.9224 0.17242 0.37779 0.0
H418 H 0.92108 0.14415 0.41099 0.0
H419 H 0.95308 0.14848 0.38433 0.0
H420 H 0.96521 0.10029 0.39162 0.0
H421 H 0.98299 0.06805 0.44401 0.0
H422 H 0.35533 0.34943 0.65536 0.0
H423 H 0.37388 0.36534 0.72109 0.0
H424 H 0.29865 0.42114 0.71341 0.0
H425 H 0.27899 0.40436 0.64846 0.0
H426 H 0.39341 0.41459 0.74015 0.0
H427 H 0.2971 0.3905 0.82167 0.0
H428 H 0.30011 0.37655 0.77419 0.0
H429 H 0.28489 0.40984 0.77808 0.0
C430 C 0.3422 0.36458 0.66798 0.0
C431 C 0.31553 0.37551 0.64651 0.0
C432 C 0.35301 0.37379 0.70554 0.0
C433 C 0.33743 0.39414 0.72255 0.0
C434 C 0.31068 0.40496 0.70139 0.0
H435 H 0.37372 0.51256 0.89565 0.0
H436 H 0.35227 0.48033 0.84649 0.0
C437 C 0.29973 0.39563 0.6639 0.0
C438 C 0.35058 0.40565 0.76085 0.0
H439 H 0.33303 0.4237 0.85056 0.0
C440 C 0.38042 0.41611 0.76457 0.0
C441 C 0.33366 0.40757 0.79278 0.0
C442 C 0.30229 0.39525 0.79167 0.0
C443 C 0.39319 0.42964 0.79847 0.0
C444 C 0.37576 0.43259 0.82966 0.0
C445 C 0.34634 0.42135 0.82659 0.0
C446 C 0.38651 0.44986 0.86355 0.0
C447 C 0.42464 0.44191 0.7999 0.0
C448 C 0.41228 0.44297 0.89045 0.0
C449 C 0.42461 0.46139 0.91887 0.0
C450 C 0.41144 0.48701 0.92049 0.0
C451 C 0.3846 0.4931 0.89494 0.0
C452 C 0.37221 0.47468 0.86689 0.0
H453 H 0.43336 0.44096 0.77118 0.0
H454 H 0.42437 0.46326 0.80894 0.0
H455 H 0.44086 0.43091 0.82196 0.0
H456 H 0.42345 0.42376 0.88852 0.0
H457 H 0.44528 0.4561 0.93816 0.0
H458 H 0.64754 0.63522 0.43592 0.0
H459 H 0.61469 0.6245 0.3749 0.0
H460 H 0.69065 0.5863 0.33146 0.0
H461 H 0.72323 0.5957 0.39289 0.0
H462 H 0.61724 0.63663 0.29616 0.0
H463 H 0.62709 0.52666 0.32446 0.0
H464 H 0.63993 0.55107 0.36143 0.0
H465 H 0.6632 0.54326 0.32412 0.0
C466 C 0.65726 0.62438 0.41353 0.0
C467 C 0.68805 0.61609 0.41969 0.0
C468 C 0.63849 0.6185 0.37847 0.0
C469 C 0.65006 0.60421 0.34885 0.0
C470 C 0.68106 0.59693 0.35418 0.0
H471 H 0.55631 0.57355 0.11121 0.0
H472 H 0.58934 0.59299 0.16713 0.0
C473 C 0.69978 0.60264 0.38925 0.0
C474 C 0.62944 0.59584 0.31319 0.0
H475 H 0.60147 0.5404 0.26267 0.0
C476 C 0.61374 0.6156 0.28878 0.0
C477 C 0.6246 0.56838 0.30387 0.0
C478 C 0.63934 0.54609 0.33 0.0
C479 C 0.59347 0.6086 0.25517 0.0
C480 C 0.58917 0.58114 0.24547 0.0
C481 C 0.6049 0.56146 0.26994 0.0
C482 C 0.56748 0.57195 0.21125 0.0
C483 C 0.57626 0.63059 0.23098 0.0
C484 C 0.54419 0.55375 0.21733 0.0
C485 C 0.52569 0.54242 0.1856 0.0
C486 C 0.52991 0.54904 0.14688 0.0
C487 C 0.55238 0.56815 0.14067 0.0
C488 C 0.57119 0.57935 0.17263 0.0
H489 H 0.57627 0.64965 0.24749 0.0
H490 H 0.58736 0.63456 0.20447 0.0
H491 H 0.55221 0.6245 0.2213 0.0
H492 H 0.54079 0.54778 0.24679 0.0
H493 H 0.50844 0.52795 0.19149 0.0
H494 H 0.81426 0.11611 0.88858 0.0
H495 H 0.82591 0.08614 0.83646 0.0
H496 H 0.87998 0.14888 0.79203 0.0
H497 H 0.86832 0.17878 0.8434 0.0
H498 H 0.84516 0.12124 0.73278 0.0
H499 H 0.90934 0.05091 0.84131 0.0
H500 H 0.86978 0.05636 0.84585 0.0
H501 H 0.89672 0.08345 0.85507 0.0
C502 C 0.82848 0.1235 0.86751 0.0
C503 C 0.84044 0.1498 0.8702 0.0
C504 C 0.83512 0.10637 0.83779 0.0
C505 C 0.85414 0.11517 0.81066 0.0
C506 C 0.86514 0.14169 0.81252 0.0
H507 H 0.99234 0.05771 0.69809 0.0
H508 H 0.95545 0.0733 0.73878 0.0
C509 C 0.85839 0.1588 0.84192 0.0
C510 C 0.86463 0.09668 0.78175 0.0
H511 H 0.91307 0.04405 0.77521 0.0
C512 C 0.85953 0.104 0.74185 0.0
C513 C 0.88338 0.07422 0.79377 0.0
C514 C 0.8904 0.06575 0.83631 0.0
C515 C 0.8743 0.09063 0.71406 0.0
C516 C 0.89429 0.06909 0.72648 0.0
C517 C 0.89766 0.06056 0.76584 0.0
C518 C 0.91587 0.05834 0.70114 0.0
C519 C 0.87017 0.10086 0.67224 0.0
C520 C 0.9059 0.04455 0.66633 0.0
C521 C 0.92714 0.03562 0.64254 0.0
C522 C 0.95863 0.04028 0.6534 0.0
C523 C 0.96834 0.05375 0.68863 0.0
C524 C 0.94724 0.06264 0.71212 0.0
H525 H 0.85677 0.11982 0.66853 0.0
H526 H 0.89275 0.10446 0.66233 0.0
H527 H 0.85794 0.08548 0.65289 0.0
H528 H 0.88178 0.04072 0.65758 0.0
H529 H 0.91893 0.02518 0.61571 0.0
H530 H 0.27972 0.39143 0.3052 0.0
H531 H 0.29381 0.41781 0.25019 0.0
H532 H 0.31364 0.48607 0.32568 0.0
H533 H 0.3003 0.45938 0.38132 0.0
H534 H 0.27537 0.46445 0.21241 0.0
H535 H 0.39474 0.47464 0.28765 0.0
H536 H 0.36717 0.45294 0.30626 0.0
H537 H 0.36586 0.48869 0.31323 0.0
C538 C 0.28655 0.41221 0.30997 0.0
C539 C 0.28917 0.42328 0.34763 0.0
C540 C 0.29465 0.42728 0.27849 0.0
C541 C 0.30538 0.45376 0.28394 0.0
C542 C 0.30619 0.46545 0.321 0.0
H543 H 0.40823 0.53606 0.11692 0.0
H544 H 0.37292 0.53253 0.16585 0.0
C545 C 0.29847 0.45024 0.3527 0.0
C546 C 0.31775 0.46802 0.25137 0.0
H547 H 0.38442 0.49148 0.22361 0.0
C548 C 0.29911 0.47073 0.21501 0.0
C549 C 0.34876 0.47625 0.25473 0.0
C550 C 0.37043 0.47283 0.29241 0.0
C551 C 0.31096 0.48037 0.18164 0.0
C552 C 0.34221 0.48741 0.18472 0.0
C553 C 0.36039 0.48622 0.22145 0.0
C554 C 0.35779 0.49224 0.14981 0.0
C555 C 0.29019 0.48223 0.14311 0.0
C556 C 0.36029 0.47106 0.1239 0.0
C557 C 0.3806 0.47291 0.09629 0.0
C558 C 0.39873 0.49601 0.094 0.0
C559 C 0.39445 0.51805 0.11786 0.0
C560 C 0.37435 0.51606 0.14588 0.0
H561 H 0.26588 0.48436 0.14763 0.0
H562 H 0.29657 0.49951 0.12514 0.0
H563 H 0.29228 0.46353 0.12643 0.0
H564 H 0.34816 0.45233 0.12685 0.0
H565 H 0.38339 0.45562 0.07826 0.0
H566 H 0.14668 0.88572 0.95492 0.0
H567 H 0.11384 0.8862 0.89153 0.0
H568 H 0.1938 0.88839 0.83224 0.0
H569 H 0.22661 0.88719 0.89543 0.0
H570 H 0.10959 0.92532 0.84013 0.0
H571 H 0.14377 0.83485 0.76588 0.0
H572 H 0.15453 0.83998 0.81776 0.0
H573 H 0.17647 0.8551 0.78276 0.0
C574 C 0.1572 0.88589 0.92829 0.0
C575 C 0.1892 0.88639 0.9301 0.0
C576 C 0.13843 0.88605 0.8921 0.0
C577 C 0.15126 0.88685 0.85695 0.0
C578 C 0.18326 0.88687 0.85877 0.0
H579 H 0.11209 0.9528 0.63381 0.0
H580 H 0.13116 0.92481 0.69058 0.0
C581 C 0.20204 0.88637 0.89495 0.0
C582 C 0.13141 0.89088 0.81875 0.0
H583 H 0.12025 0.87061 0.72331 0.0
C584 C 0.11135 0.91292 0.81485 0.0
C585 C 0.13363 0.87471 0.78566 0.0
C586 C 0.15304 0.84968 0.78835 0.0
C587 C 0.095 0.92024 0.77845 0.0
C588 C 0.09854 0.90497 0.74496 0.0
C589 C 0.11749 0.88222 0.74905 0.0
C590 C 0.08632 0.91491 0.70515 0.0
C591 C 0.07553 0.9453 0.77561 0.0
C592 C 0.05468 0.91715 0.69304 0.0
C593 C 0.04366 0.93303 0.66021 0.0
C594 C 0.06424 0.94695 0.63949 0.0
C595 C 0.09576 0.94232 0.64935 0.0
C596 C 0.10669 0.92634 0.6818 0.0
H597 H 0.0782 0.95665 0.80347 0.0
H598 H 0.08155 0.95884 0.75192 0.0
H599 H 0.0511 0.93965 0.76825 0.0
H600 H 0.0386 0.90829 0.71059 0.0
H601 H 0.01928 0.93645 0.65347 0.0
loop_
_geom_bond_atom_site_label_1
_geom_bond_atom_site_label_2
_geom_bond_distance
_geom_bond_site_symmetry_2
_ccdc_geom_bond_type
P0 O11 1.490 . S
P0 C14 1.812 . S
P0 C20 1.803 . S
P0 C26 1.819 . S
H1 C15 0.941 . S
H2 C16 0.939 . S
H3 C18 0.940 . S
H4 C19 0.940 . S
H5 C21 0.939 . S
H6 C22 0.942 . S
H7 C24 0.940 . S
H8 C25 0.939 . S
H9 C27 0.941 . S
H10 C31 0.939 . S
O11 P0 1.490 . S
H12 C28 0.939 1_556 S
H13 C30 0.940 . S
C14 P0 1.812 . S
C14 C15 1.389 . S
C14 C19 1.391 . S
C15 H1 0.941 . S
C15 C14 1.389 . S
C15 C16 1.397 . S
C16 H2 0.939 . S
C16 C15 1.397 . S
C16 C17 1.378 . S
C17 C16 1.378 . S
C17 C18 1.378 . S
C18 H3 0.940 . S
C18 C17 1.378 . S
C18 C19 1.396 . S
C19 H4 0.940 . S
C19 C14 1.391 . S
C19 C18 1.396 . S
C20 P0 1.803 . S
C20 C21 1.378 . S
C20 C25 1.400 . S
C21 H5 0.939 . S
C21 C20 1.378 . S
C21 C22 1.361 . S
C22 H6 0.942 . S
C22 C21 1.361 . S
C22 C23 1.369 . S
C23 C22 1.369 . S
C23 C24 1.404 . S
C24 H7 0.940 . S
C24 C23 1.404 . S
C24 C25 1.389 . S
C25 H8 0.939 . S
C25 C20 1.400 . S
C25 C24 1.389 . S
C26 P0 1.819 . S
C26 C27 1.391 . S
C26 C31 1.391 . S
C27 H9 0.941 . S
C27 C26 1.391 . S
C27 C28 1.396 . S
C28 H12 0.939 1_554 S
C28 C27 1.396 . S
C28 C29 1.397 1_554 S
C29 C28 1.397 1_556 S
C29 C30 1.385 . S
C30 H13 0.940 . S
C30 C29 1.385 . S
C30 C31 1.388 1_556 S
C31 H10 0.939 . S
C31 C26 1.391 . S
C31 C30 1.388 1_554 S
P32 O43 1.490 . S
P32 C46 1.812 . S
P32 C52 1.803 . S
P32 C58 1.819 . S
H33 C47 0.941 . S
H34 C48 0.939 . S
H35 C50 0.940 . S
H36 C51 0.940 . S
H37 C53 0.939 . S
H38 C54 0.942 . S
H39 C56 0.940 . S
H40 C57 0.939 . S
H41 C59 0.941 . S
H42 C63 0.939 . S
O43 P32 1.490 . S
H44 C60 0.939 . S
H45 C62 0.940 . S
C46 P32 1.812 . S
C46 C47 1.389 . S
C46 C51 1.391 . S
C47 H33 0.941 . S
C47 C46 1.389 . S
C47 C48 1.397 . S
C48 H34 0.939 . S
C48 C47 1.397 . S
C48 C49 1.378 . S
C49 C48 1.378 . S
C49 C50 1.378 . S
C50 H35 0.940 . S
C50 C49 1.378 . S
C50 C51 1.396 . S
C51 H36 0.940 . S
C51 C46 1.391 . S
C51 C50 1.396 . S
C52 P32 1.803 . S
C52 C53 1.378 . S
C52 C57 1.400 . S
C53 H37 0.939 . S
C53 C52 1.378 . S
C53 C54 1.361 . S
C54 H38 0.942 . S
C54 C53 1.361 . S
C54 C55 1.369 . S
C55 C54 1.369 . S
C55 C56 1.404 . S
C56 H39 0.940 . S
C56 C55 1.404 . S
C56 C57 1.389 . S
C57 H40 0.939 . S
C57 C52 1.400 . S
C57 C56 1.389 . S
C58 P32 1.819 . S
C58 C59 1.391 . S
C58 C63 1.391 . S
C59 H41 0.941 . S
C59 C58 1.391 . S
C59 C60 1.396 . S
C60 H44 0.939 . S
C60 C59 1.396 . S
C60 C61 1.397 . S
C61 C60 1.397 . S
C61 C62 1.385 . S
C62 H45 0.940 . S
C62 C61 1.385 . S
C62 C63 1.388 . S
C63 H42 0.939 . S
C63 C58 1.391 . S
C63 C62 1.388 . S
P64 O75 1.490 . S
P64 C78 1.812 1_554 S
P64 C84 1.803 1_554 S
P64 C90 1.819 . S
H65 C79 0.941 . S
H66 C80 0.939 . S
H67 C82 0.940 . S
H68 C83 0.940 . S
H69 C85 0.939 . S
H70 C86 0.942 . S
H71 C88 0.940 . S
H72 C89 0.939 . S
H73 C91 0.941 . S
H74 C95 0.939 . S
O75 P64 1.490 . S
H76 C92 0.939 . S
H77 C94 0.940 . S
C78 P64 1.812 1_556 S
C78 C79 1.389 . S
C78 C83 1.391 . S
C79 H65 0.941 . S
C79 C78 1.389 . S
C79 C80 1.397 . S
C80 H66 0.939 . S
C80 C79 1.397 . S
C80 C81 1.378 . S
C81 C80 1.378 . S
C81 C82 1.378 . S
C82 H67 0.940 . S
C82 C81 1.378 . S
C82 C83 1.396 . S
C83 H68 0.940 . S
C83 C78 1.391 . S
C83 C82 1.396 . S
C84 P64 1.803 1_556 S
C84 C85 1.378 1_556 S
C84 C89 1.400 . S
C85 H69 0.939 . S
C85 C84 1.378 1_554 S
C85 C86 1.361 . S
C86 H70 0.942 . S
C86 C85 1.361 . S
C86 C87 1.369 1_554 S
C87 C86 1.369 1_556 S
C87 C88 1.404 . S
C88 H71 0.940 . S
C88 C87 1.404 . S
C88 C89 1.389 . S
C89 H72 0.939 . S
C89 C84 1.400 . S
C89 C88 1.389 . S
C90 P64 1.819 . S
C90 C91 1.391 . S
C90 C95 1.391 . S
C91 H73 0.941 . S
C91 C90 1.391 . S
C91 C92 1.396 . S
C92 H76 0.939 . S
C92 C91 1.396 . S
C92 C93 1.397 . S
C93 C92 1.397 . S
C93 C94 1.385 . S
C94 H77 0.940 . S
C94 C93 1.385 . S
C94 C95 1.388 . S
C95 H74 0.939 . S
C95 C90 1.391 . S
C95 C94 1.388 . S
P96 O107 1.490 . S
P96 C110 1.812 . S
P96 C116 1.803 . S
P96 C122 1.819 . S
H97 C111 0.941 . S
H98 C112 0.939 . S
H99 C114 0.940 . S
H100 C115 0.940 . S
H101 C117 0.939 . S
H102 C118 0.942 . S
H103 C120 0.940 . S
H104 C121 0.939 . S
H105 C123 0.941 . S
H106 C127 0.939 . S
O107 P96 1.490 . S
H108 C124 0.939 . S
H109 C126 0.940 . S
C110 P96 1.812 . S
C110 C111 1.389 . S
C110 C115 1.391 . S
C111 H97 0.941 . S
C111 C110 1.389 . S
C111 C112 1.397 . S
C112 H98 0.939 . S
C112 C111 1.397 . S
C112 C113 1.378 . S
C113 C112 1.378 . S
C113 C114 1.378 . S
C114 H99 0.940 . S
C114 C113 1.378 . S
C114 C115 1.396 . S
C115 H100 0.940 . S
C115 C110 1.391 . S
C115 C114 1.396 . S
C116 P96 1.803 . S
C116 C117 1.378 . S
C116 C121 1.400 . S
C117 H101 0.939 . S
C117 C116 1.378 . S
C117 C118 1.361 . S
C118 H102 0.942 . S
C118 C117 1.361 . S
C118 C119 1.369 . S
C119 C118 1.369 . S
C119 C120 1.404 . S
C120 H103 0.940 . S
C120 C119 1.404 . S
C120 C121 1.389 . S
C121 H104 0.939 . S
C121 C116 1.400 . S
C121 C120 1.389 . S
C122 P96 1.819 . S
C122 C123 1.391 . S
C122 C127 1.391 . S
C123 H105 0.941 . S
C123 C122 1.391 . S
C123 C124 1.396 . S
C124 H108 0.939 . S
C124 C123 1.396 . S
C124 C125 1.397 . S
C125 C124 1.397 . S
C125 C126 1.385 . S
C126 H109 0.940 . S
C126 C125 1.385 . S
C126 C127 1.388 . S
C127 H106 0.939 . S
C127 C122 1.391 . S
C127 C126 1.388 . S
O128 Mg129 1.990 1_655 S
O128 C142 1.253 . S
Mg129 O128 1.990 1_455 S
Mg129 O132 2.180 . S
Mg129 O133 2.117 . S
Mg129 O147 2.030 . S
O130 Mg131 2.072 1_655 S
O130 C142 1.260 . S
Mg131 O130 2.072 1_455 S
Mg131 O132 2.099 . S
Mg131 O134 2.079 1_545 S
Mg131 O135 2.072 1_455 S
Mg131 O137 2.099 1_445 S
Mg131 O148 2.079 1_545 S
O132 Mg129 2.180 . S
O132 Mg131 2.099 . S
O132 C143 1.279 . S
O133 Mg129 2.117 . S
O133 C143 1.250 . S
O134 Mg131 2.079 1_565 S
O134 C144 1.264 . S
O135 Mg131 2.072 1_655 S
O135 C145 1.260 . S
Mg136 O137 2.180 . S
Mg136 O138 2.030 1_655 S
Mg136 O139 1.990 1_565 S
Mg136 O140 2.117 . S
O137 Mg131 2.099 1_665 S
O137 Mg136 2.180 . S
O137 C146 1.279 . S
O138 Mg136 2.030 1_455 S
O138 C144 1.248 . S
O139 Mg136 1.990 1_545 S
O139 C145 1.253 . S
O140 Mg136 2.117 . S
O140 C146 1.250 . S
C141 O147 1.248 1_565 S
C141 O148 1.264 . S
C142 O128 1.253 . S
C142 O130 1.260 . S
C143 O132 1.279 . S
C143 O133 1.250 . S
C144 O134 1.264 . S
C144 O138 1.248 . S
C145 O135 1.260 . S
C145 O139 1.253 . S
C146 O137 1.279 . S
C146 O140 1.250 . S
O147 Mg129 2.030 . S
O147 C141 1.248 1_545 S
O148 Mg131 2.079 1_565 S
O148 C141 1.264 . S
O149 Mg150 1.990 . S
O149 C163 1.253 . S
Mg150 O149 1.990 . S
Mg150 O153 2.180 . S
Mg150 O154 2.117 . S
Mg150 O168 2.030 . S
O151 Mg152 2.072 . S
O151 C163 1.260 . S
Mg152 O151 2.072 . S
Mg152 O153 2.099 . S
Mg152 O155 2.079 1_554 S
Mg152 O156 2.089 . S
Mg152 O158 2.099 . S
Mg152 O169 2.079 . S
O153 Mg150 2.180 . S
O153 Mg152 2.099 . S
O153 C164 1.279 . S
O154 Mg150 2.117 . S
O154 C164 1.250 . S
O155 Mg152 2.079 1_556 S
O155 C165 1.264 . S
O156 Mg152 2.089 . S
O156 C166 1.242 1_554 S
Mg157 O158 2.180 1_556 S
Mg157 O159 2.030 . S
Mg157 O160 1.990 . S
Mg157 O161 2.117 1_556 S
O158 Mg152 2.099 . S
O158 Mg157 2.180 1_554 S
O158 C167 1.279 . S
O159 Mg157 2.030 . S
O159 C165 1.248 . S
O160 Mg157 1.990 . S
O160 C166 1.253 . S
O161 Mg157 2.117 1_554 S
O161 C167 1.250 . S
C162 O168 1.248 . S
C162 O169 1.264 . S
C163 O149 1.253 . S
C163 O151 1.260 . S
C164 O153 1.279 . S
C164 O154 1.250 . S
C165 O155 1.264 . S
C165 O159 1.248 . S
C166 O156 1.242 1_556 S
C166 O160 1.253 . S
C167 O158 1.279 . S
C167 O161 1.250 . S
O168 Mg150 2.030 . S
O168 C162 1.248 . S
O169 Mg152 2.079 . S
O169 C162 1.264 . S
H170 C178 0.929 . S
H171 C180 0.930 . S
H172 C182 0.930 . S
H173 C185 0.929 . S
H174 C188 0.930 . S
H175 C190 0.960 . S
H176 C190 0.960 . S
H177 C190 0.960 . S
C178 H170 0.929 . S
C178 C179 1.377 . S
C178 C180 1.384 . S
C179 C178 1.377 . S
C179 C185 1.390 . S
C180 H171 0.930 . S
C180 C178 1.384 . S
C180 C181 1.372 . S
C181 C180 1.372 . S
C181 C182 1.400 . S
C181 C186 1.490 . S
C182 H172 0.930 . S
C182 C181 1.400 . S
C182 C185 1.386 . S
H183 C199 0.930 . S
H184 C200 0.931 . S
C185 H173 0.929 . S
C185 C179 1.390 . S
C185 C182 1.386 . S
C186 C181 1.490 . S
C186 C188 1.395 . S
C186 C189 1.403 . S
H187 C193 0.930 . S
C188 H174 0.930 . S
C188 C186 1.395 . S
C188 C191 1.403 . S
C189 C186 1.403 . S
C189 C190 1.524 . S
C189 C193 1.400 . S
C190 H175 0.960 . S
C190 H176 0.960 . S
C190 H177 0.960 . S
C190 C189 1.524 . S
C191 C188 1.403 . S
C191 C192 1.392 . S
C191 C195 1.495 . S
C192 C191 1.392 . S
C192 C193 1.385 . S
C192 C194 1.478 . S
C193 H187 0.930 . S
C193 C189 1.400 . S
C193 C192 1.385 . S
C194 C192 1.478 . S
C194 C196 1.381 . S
C194 C200 1.383 . S
C195 C191 1.495 . S
C195 H201 0.959 . S
C195 H202 0.961 . S
C195 H203 0.960 . S
C196 C194 1.381 . S
C196 C197 1.394 . S
C196 H204 0.930 . S
C197 C196 1.394 . S
C197 C198 1.383 . S
C197 H205 0.929 . S
C198 C197 1.383 . S
C198 C199 1.377 . S
C199 H183 0.930 . S
C199 C198 1.377 . S
C199 C200 1.379 . S
C200 H184 0.931 . S
C200 C194 1.383 . S
C200 C199 1.379 . S
H201 C195 0.959 . S
H202 C195 0.961 . S
H203 C195 0.960 . S
H204 C196 0.930 . S
H205 C197 0.929 . S
H206 C214 0.929 . S
H207 C216 0.930 . S
H208 C218 0.930 . S
H209 C221 0.929 . S
H210 C224 0.930 . S
H211 C226 0.960 . S
H212 C226 0.960 . S
H213 C226 0.960 . S
C214 H206 0.929 . S
C214 C215 1.377 . S
C214 C216 1.384 . S
C215 C214 1.377 . S
C215 C221 1.390 . S
C216 H207 0.930 . S
C216 C214 1.384 . S
C216 C217 1.372 . S
C217 C216 1.372 . S
C217 C218 1.400 . S
C217 C222 1.490 . S
C218 H208 0.930 . S
C218 C217 1.400 . S
C218 C221 1.386 . S
H219 C235 0.930 . S
H220 C236 0.931 . S
C221 H209 0.929 . S
C221 C215 1.390 . S
C221 C218 1.386 . S
C222 C217 1.490 . S
C222 C224 1.395 . S
C222 C225 1.403 . S
H223 C229 0.930 . S
C224 H210 0.930 . S
C224 C222 1.395 . S
C224 C227 1.403 . S
C225 C222 1.403 . S
C225 C226 1.524 . S
C225 C229 1.400 . S
C226 H211 0.960 . S
C226 H212 0.960 . S
C226 H213 0.960 . S
C226 C225 1.524 . S
C227 C224 1.403 . S
C227 C228 1.392 . S
C227 C231 1.495 . S
C228 C227 1.392 . S
C228 C229 1.385 . S
C228 C230 1.478 . S
C229 H223 0.930 . S
C229 C225 1.400 . S
C229 C228 1.385 . S
C230 C228 1.478 . S
C230 C232 1.381 . S
C230 C236 1.383 . S
C231 C227 1.495 . S
C231 H237 0.959 1_554 S
C231 H238 0.961 . S
C231 H239 0.960 1_554 S
C232 C230 1.381 . S
C232 C233 1.394 . S
C232 H240 0.925 1_554 S
C233 C232 1.394 . S
C233 C234 1.383 . S
C233 H241 0.929 1_554 S
C234 C233 1.383 . S
C234 C235 1.377 . S
C235 H219 0.930 . S
C235 C234 1.377 . S
C235 C236 1.379 . S
C236 H220 0.931 . S
C236 C230 1.383 . S
C236 C235 1.379 . S
H237 C231 0.959 1_556 S
H238 C231 0.961 . S
H239 C231 0.960 1_556 S
H240 C232 0.925 1_556 S
H241 C233 0.929 1_556 S
H242 C250 0.929 . S
H243 C252 0.930 . S
H244 C254 0.930 . S
H245 C257 0.929 . S
H246 C260 0.930 . S
H247 C262 0.960 . S
H248 C262 0.960 . S
H249 C262 0.960 . S
C250 H242 0.929 . S
C250 C251 1.377 . S
C250 C252 1.384 . S
C251 C250 1.377 . S
C251 C257 1.390 . S
C252 H243 0.930 . S
C252 C250 1.384 . S
C252 C253 1.372 . S
C253 C252 1.372 . S
C253 C254 1.400 . S
C253 C258 1.490 . S
C254 H244 0.930 . S
C254 C253 1.400 . S
C254 C257 1.386 . S
H255 C271 0.930 . S
H256 C272 0.931 . S
C257 H245 0.929 . S
C257 C251 1.390 . S
C257 C254 1.386 . S
C258 C253 1.490 . S
C258 C260 1.395 . S
C258 C261 1.403 . S
H259 C265 0.930 . S
C260 H246 0.930 . S
C260 C258 1.395 . S
C260 C263 1.403 . S
C261 C258 1.403 . S
C261 C262 1.524 . S
C261 C265 1.400 . S
C262 H247 0.960 . S
C262 H248 0.960 . S
C262 H249 0.960 . S
C262 C261 1.524 . S
C263 C260 1.403 . S
C263 C264 1.392 . S
C263 C267 1.495 . S
C264 C263 1.392 . S
C264 C265 1.385 . S
C264 C266 1.478 . S
C265 H259 0.930 . S
C265 C261 1.400 . S
C265 C264 1.385 . S
C266 C264 1.478 . S
C266 C268 1.381 . S
C266 C272 1.383 . S
C267 C263 1.495 . S
C267 H273 0.959 . S
C267 H274 0.961 . S
C267 H275 0.960 . S
C268 C266 1.381 . S
C268 C269 1.394 . S
C268 H276 0.930 . S
C269 C268 1.394 . S
C269 C270 1.383 . S
C269 H277 0.929 . S
C270 C269 1.383 . S
C270 C271 1.377 . S
C271 H255 0.930 . S
C271 C270 1.377 . S
C271 C272 1.379 . S
C272 H256 0.931 . S
C272 C266 1.383 . S
C272 C271 1.379 . S
H273 C267 0.959 . S
H274 C267 0.961 . S
H275 C267 0.960 . S
H276 C268 0.930 . S
H277 C269 0.929 . S
H278 C286 0.929 . S
H279 C288 0.930 . S
H280 C290 0.930 . S
H281 C293 0.929 . S
H282 C296 0.930 . S
H283 C298 0.960 . S
H284 C298 0.960 1_556 S
H285 C298 0.960 . S
C286 H278 0.929 . S
C286 C287 1.377 . S
C286 C288 1.384 . S
C287 C286 1.377 . S
C287 C293 1.390 1_556 S
C288 H279 0.930 . S
C288 C286 1.384 . S
C288 C289 1.372 1_556 S
C289 C288 1.372 1_554 S
C289 C290 1.400 . S
C289 C294 1.490 . S
C290 H280 0.930 . S
C290 C289 1.400 . S
C290 C293 1.386 . S
H291 C307 0.930 . S
H292 C308 0.931 . S
C293 H281 0.929 . S
C293 C287 1.390 1_554 S
C293 C290 1.386 . S
C294 C289 1.490 . S
C294 C296 1.395 . S
C294 C297 1.403 . S
H295 C301 0.930 . S
C296 H282 0.930 . S
C296 C294 1.395 . S
C296 C299 1.403 . S
C297 C294 1.403 . S
C297 C298 1.524 . S
C297 C301 1.400 . S
C298 H283 0.960 . S
C298 H284 0.960 1_554 S
C298 H285 0.960 . S
C298 C297 1.524 . S
C299 C296 1.403 . S
C299 C300 1.392 . S
C299 C303 1.495 . S
C300 C299 1.392 . S
C300 C301 1.385 . S
C300 C302 1.478 . S
C301 H295 0.930 . S
C301 C297 1.400 . S
C301 C300 1.385 . S
C302 C300 1.478 . S
C302 C304 1.381 1_554 S
C302 C308 1.383 . S
C303 C299 1.495 . S
C303 H309 0.959 . S
C303 H310 0.961 . S
C303 H311 0.960 1_554 S
C304 C302 1.381 1_556 S
C304 C305 1.394 . S
C304 H312 0.930 . S
C305 C304 1.394 . S
C305 C306 1.383 1_556 S
C305 H313 0.929 . S
C306 C305 1.383 1_554 S
C306 C307 1.377 . S
C307 H291 0.930 . S
C307 C306 1.377 . S
C307 C308 1.379 . S
C308 H292 0.931 . S
C308 C302 1.383 . S
C308 C307 1.379 . S
H309 C303 0.959 . S
H310 C303 0.961 . S
H311 C303 0.960 1_556 S
H312 C304 0.930 . S
H313 C305 0.929 . S
H314 C322 0.929 . S
H315 C324 0.930 . S
H316 C326 0.930 . S
H317 C329 0.929 . S
H318 C332 0.930 . S
H319 C334 0.960 . S
H320 C334 0.960 . S
H321 C334 0.960 . S
C322 H314 0.929 . S
C322 C323 1.377 . S
C322 C324 1.384 . S
C323 C322 1.377 . S
C323 C329 1.390 . S
C324 H315 0.930 . S
C324 C322 1.384 . S
C324 C325 1.372 . S
C325 C324 1.372 . S
C325 C326 1.400 . S
C325 C330 1.490 . S
C326 H316 0.930 . S
C326 C325 1.400 . S
C326 C329 1.386 . S
H327 C343 0.930 . S
H328 C344 0.931 . S
C329 H317 0.929 . S
C329 C323 1.390 . S
C329 C326 1.386 . S
C330 C325 1.490 . S
C330 C332 1.395 . S
C330 C333 1.403 . S
H331 C337 0.930 . S
C332 H318 0.930 . S
C332 C330 1.395 . S
C332 C335 1.403 . S
C333 C330 1.403 . S
C333 C334 1.524 . S
C333 C337 1.400 . S
C334 H319 0.960 . S
C334 H320 0.960 . S
C334 H321 0.960 . S
C334 C333 1.524 . S
C335 C332 1.403 . S
C335 C336 1.392 . S
C335 C339 1.495 . S
C336 C335 1.392 . S
C336 C337 1.385 . S
C336 C338 1.478 . S
C337 H331 0.930 . S
C337 C333 1.400 . S
C337 C336 1.385 . S
C338 C336 1.478 . S
C338 C340 1.381 . S
C338 C344 1.383 . S
C339 C335 1.495 . S
C339 H345 0.959 . S
C339 H346 0.961 . S
C339 H347 0.960 . S
C340 C338 1.381 . S
C340 C341 1.394 . S
C340 H348 0.930 . S
C341 C340 1.394 . S
C341 C342 1.383 . S
C341 H349 0.929 . S
C342 C341 1.383 . S
C342 C343 1.377 . S
C343 H327 0.930 . S
C343 C342 1.377 . S
C343 C344 1.379 . S
C344 H328 0.931 . S
C344 C338 1.383 . S
C344 C343 1.379 . S
H345 C339 0.959 . S
H346 C339 0.961 . S
H347 C339 0.960 . S
H348 C340 0.930 . S
H349 C341 0.929 . S
H350 C358 0.929 . S
H351 C360 0.930 . S
H352 C362 0.930 . S
H353 C365 0.929 . S
H354 C368 0.930 . S
H355 C370 0.960 . S
H356 C370 0.960 . S
H357 C370 0.960 . S
C358 H350 0.929 . S
C358 C359 1.377 . S
C358 C360 1.384 . S
C359 C358 1.377 . S
C359 C365 1.390 . S
C360 H351 0.930 . S
C360 C358 1.384 . S
C360 C361 1.372 . S
C361 C360 1.372 . S
C361 C362 1.400 . S
C361 C366 1.490 . S
C362 H352 0.930 . S
C362 C361 1.400 . S
C362 C365 1.386 . S
H363 C379 0.930 . S
H364 C380 0.931 . S
C365 H353 0.929 . S
C365 C359 1.390 . S
C365 C362 1.386 . S
C366 C361 1.490 . S
C366 C368 1.395 . S
C366 C369 1.403 . S
H367 C373 0.930 . S
C368 H354 0.930 . S
C368 C366 1.395 . S
C368 C371 1.403 . S
C369 C366 1.403 . S
C369 C370 1.524 . S
C369 C373 1.400 . S
C370 H355 0.960 . S
C370 H356 0.960 . S
C370 H357 0.960 . S
C370 C369 1.524 . S
C371 C368 1.403 . S
C371 C372 1.392 . S
C371 C375 1.495 . S
C372 C371 1.392 . S
C372 C373 1.385 . S
C372 C374 1.478 . S
C373 H367 0.930 . S
C373 C369 1.400 . S
C373 C372 1.385 . S
C374 C372 1.478 . S
C374 C376 1.381 . S
C374 C380 1.383 . S
C375 C371 1.495 . S
C375 H381 0.959 . S
C375 H382 0.961 . S
C375 H383 0.960 . S
C376 C374 1.381 . S
C376 C377 1.394 . S
C376 H384 0.930 . S
C377 C376 1.394 . S
C377 C378 1.383 . S
C377 H385 0.929 . S
C378 C377 1.383 . S
C378 C379 1.377 . S
C379 H363 0.930 . S
C379 C378 1.377 . S
C379 C380 1.379 . S
C380 H364 0.931 . S
C380 C374 1.383 . S
C380 C379 1.379 . S
H381 C375 0.959 . S
H382 C375 0.961 . S
H383 C375 0.960 . S
H384 C376 0.930 . S
H385 C377 0.929 . S
H386 C394 0.929 . S
H387 C396 0.930 . S
H388 C398 0.930 . S
H389 C401 0.929 . S
H390 C404 0.930 . S
H391 C406 0.960 . S
H392 C406 0.960 . S
H393 C406 0.960 . S
C394 H386 0.929 . S
C394 C395 1.377 . S
C394 C396 1.384 . S
C395 C394 1.377 . S
C395 C401 1.390 . S
C396 H387 0.930 . S
C396 C394 1.384 . S
C396 C397 1.372 . S
C397 C396 1.372 . S
C397 C398 1.400 . S
C397 C402 1.490 . S
C398 H388 0.930 . S
C398 C397 1.400 . S
C398 C401 1.386 . S
H399 C415 0.930 . S
H400 C416 0.931 . S
C401 H389 0.929 . S
C401 C395 1.390 . S
C401 C398 1.386 . S
C402 C397 1.490 . S
C402 C404 1.395 . S
C402 C405 1.403 . S
H403 C409 0.930 . S
C404 H390 0.930 . S
C404 C402 1.395 . S
C404 C407 1.403 . S
C405 C402 1.403 . S
C405 C406 1.524 . S
C405 C409 1.400 . S
C406 H391 0.960 . S
C406 H392 0.960 . S
C406 H393 0.960 . S
C406 C405 1.524 . S
C407 C404 1.403 . S
C407 C408 1.392 . S
C407 C411 1.495 . S
C408 C407 1.392 . S
C408 C409 1.385 . S
C408 C410 1.478 . S
C409 H403 0.930 . S
C409 C405 1.400 . S
C409 C408 1.385 . S
C410 C408 1.478 . S
C410 C412 1.381 . S
C410 C416 1.383 . S
C411 C407 1.495 . S
C411 H417 0.959 . S
C411 H418 0.961 . S
C411 H419 0.960 . S
C412 C410 1.381 . S
C412 C413 1.394 . S
C412 H420 0.930 . S
C413 C412 1.394 . S
C413 C414 1.383 . S
C413 H421 0.929 . S
C414 C413 1.383 . S
C414 C415 1.377 . S
C415 H399 0.930 . S
C415 C414 1.377 . S
C415 C416 1.379 . S
C416 H400 0.931 . S
C416 C410 1.383 . S
C416 C415 1.379 . S
H417 C411 0.959 . S
H418 C411 0.961 . S
H419 C411 0.960 . S
H420 C412 0.930 . S
H421 C413 0.929 . S
H422 C430 0.929 . S
H423 C432 0.930 . S
H424 C434 0.930 . S
H425 C437 0.929 . S
H426 C440 0.930 . S
H427 C442 0.960 . S
H428 C442 0.960 . S
H429 C442 0.960 . S
C430 H422 0.929 . S
C430 C431 1.377 . S
C430 C432 1.384 . S
C431 C430 1.377 . S
C431 C437 1.390 . S
C432 H423 0.930 . S
C432 C430 1.384 . S
C432 C433 1.372 . S
C433 C432 1.372 . S
C433 C434 1.400 . S
C433 C438 1.490 . S
C434 H424 0.930 . S
C434 C433 1.400 . S
C434 C437 1.386 . S
H435 C451 0.930 . S
H436 C452 0.931 . S
C437 H425 0.929 . S
C437 C431 1.390 . S
C437 C434 1.386 . S
C438 C433 1.490 . S
C438 C440 1.395 . S
C438 C441 1.403 . S
H439 C445 0.930 . S
C440 H426 0.930 . S
C440 C438 1.395 . S
C440 C443 1.403 . S
C441 C438 1.403 . S
C441 C442 1.524 . S
C441 C445 1.400 . S
C442 H427 0.960 . S
C442 H428 0.960 . S
C442 H429 0.960 . S
C442 C441 1.524 . S
C443 C440 1.403 . S
C443 C444 1.392 . S
C443 C447 1.495 . S
C444 C443 1.392 . S
C444 C445 1.385 . S
C444 C446 1.478 . S
C445 H439 0.930 . S
C445 C441 1.400 . S
C445 C444 1.385 . S
C446 C444 1.478 . S
C446 C448 1.381 . S
C446 C452 1.383 . S
C447 C443 1.495 . S
C447 H453 0.959 . S
C447 H454 0.961 . S
C447 H455 0.960 . S
C448 C446 1.381 . S
C448 C449 1.394 . S
C448 H456 0.930 . S
C449 C448 1.394 . S
C449 C450 1.383 . S
C449 H457 0.929 . S
C450 C449 1.383 . S
C450 C451 1.377 . S
C451 H435 0.930 . S
C451 C450 1.377 . S
C451 C452 1.379 . S
C452 H436 0.931 . S
C452 C446 1.383 . S
C452 C451 1.379 . S
H453 C447 0.959 . S
H454 C447 0.961 . S
H455 C447 0.960 . S
H456 C448 0.930 . S
H457 C449 0.929 . S
H458 C466 0.929 . S
H459 C468 0.930 . S
H460 C470 0.930 . S
H461 C473 0.929 . S
H462 C476 0.930 . S
H463 C478 0.960 . S
H464 C478 0.960 . S
H465 C478 0.960 . S
C466 H458 0.929 . S
C466 C467 1.377 . S
C466 C468 1.384 . S
C467 C466 1.377 . S
C467 C473 1.390 . S
C468 H459 0.930 . S
C468 C466 1.384 . S
C468 C469 1.372 . S
C469 C468 1.372 . S
C469 C470 1.400 . S
C469 C474 1.490 . S
C470 H460 0.930 . S
C470 C469 1.400 . S
C470 C473 1.386 . S
H471 C487 0.930 . S
H472 C488 0.931 . S
C473 H461 0.929 . S
C473 C467 1.390 . S
C473 C470 1.386 . S
C474 C469 1.490 . S
C474 C476 1.395 . S
C474 C477 1.403 . S
H475 C481 0.930 . S
C476 H462 0.930 . S
C476 C474 1.395 . S
C476 C479 1.403 . S
C477 C474 1.403 . S
C477 C478 1.524 . S
C477 C481 1.400 . S
C478 H463 0.960 . S
C478 H464 0.960 . S
C478 H465 0.960 . S
C478 C477 1.524 . S
C479 C476 1.403 . S
C479 C480 1.392 . S
C479 C483 1.495 . S
C480 C479 1.392 . S
C480 C481 1.385 . S
C480 C482 1.478 . S
C481 H475 0.930 . S
C481 C477 1.400 . S
C481 C480 1.385 . S
C482 C480 1.478 . S
C482 C484 1.381 . S
C482 C488 1.383 . S
C483 C479 1.495 . S
C483 H489 0.959 . S
C483 H490 0.961 . S
C483 H491 0.960 . S
C484 C482 1.381 . S
C484 C485 1.394 . S
C484 H492 0.930 . S
C485 C484 1.394 . S
C485 C486 1.383 . S
C485 H493 0.929 . S
C486 C485 1.383 . S
C486 C487 1.377 . S
C487 H471 0.930 . S
C487 C486 1.377 . S
C487 C488 1.379 . S
C488 H472 0.931 . S
C488 C482 1.383 . S
C488 C487 1.379 . S
H489 C483 0.959 . S
H490 C483 0.961 . S
H491 C483 0.960 . S
H492 C484 0.930 . S
H493 C485 0.929 . S
H494 C502 0.929 . S
H495 C504 0.930 . S
H496 C506 0.930 . S
H497 C509 0.929 . S
H498 C512 0.930 . S
H499 C514 0.960 . S
H500 C514 0.960 . S
H501 C514 0.960 . S
C502 H494 0.929 . S
C502 C503 1.377 . S
C502 C504 1.384 . S
C503 C502 1.377 . S
C503 C509 1.390 . S
C504 H495 0.930 . S
C504 C502 1.384 . S
C504 C505 1.372 . S
C505 C504 1.372 . S
C505 C506 1.400 . S
C505 C510 1.490 . S
C506 H496 0.930 . S
C506 C505 1.400 . S
C506 C509 1.386 . S
H507 C523 0.930 . S
H508 C524 0.931 . S
C509 H497 0.929 . S
C509 C503 1.390 . S
C509 C506 1.386 . S
C510 C505 1.490 . S
C510 C512 1.395 . S
C510 C513 1.403 . S
H511 C517 0.930 . S
C512 H498 0.930 . S
C512 C510 1.395 . S
C512 C515 1.403 . S
C513 C510 1.403 . S
C513 C514 1.524 . S
C513 C517 1.400 . S
C514 H499 0.960 . S
C514 H500 0.960 . S
C514 H501 0.960 . S
C514 C513 1.524 . S
C515 C512 1.403 . S
C515 C516 1.392 . S
C515 C519 1.495 . S
C516 C515 1.392 . S
C516 C517 1.385 . S
C516 C518 1.478 . S
C517 H511 0.930 . S
C517 C513 1.400 . S
C517 C516 1.385 . S
C518 C516 1.478 . S
C518 C520 1.381 . S
C518 C524 1.383 . S
C519 C515 1.495 . S
C519 H525 0.959 . S
C519 H526 0.961 . S
C519 H527 0.960 . S
C520 C518 1.381 . S
C520 C521 1.394 . S
C520 H528 0.930 . S
C521 C520 1.394 . S
C521 C522 1.383 . S
C521 H529 0.929 . S
C522 C521 1.383 . S
C522 C523 1.377 . S
C523 H507 0.930 . S
C523 C522 1.377 . S
C523 C524 1.379 . S
C524 H508 0.931 . S
C524 C518 1.383 . S
C524 C523 1.379 . S
H525 C519 0.959 . S
H526 C519 0.961 . S
H527 C519 0.960 . S
H528 C520 0.930 . S
H529 C521 0.929 . S
H530 C538 0.929 . S
H531 C540 0.930 . S
H532 C542 0.930 . S
H533 C545 0.929 . S
H534 C548 0.930 . S
H535 C550 0.960 . S
H536 C550 0.960 . S
H537 C550 0.960 . S
C538 H530 0.929 . S
C538 C539 1.377 . S
C538 C540 1.384 . S
C539 C538 1.377 . S
C539 C545 1.390 . S
C540 H531 0.930 . S
C540 C538 1.384 . S
C540 C541 1.372 . S
C541 C540 1.372 . S
C541 C542 1.400 . S
C541 C546 1.490 . S
C542 H532 0.930 . S
C542 C541 1.400 . S
C542 C545 1.386 . S
H543 C559 0.930 . S
H544 C560 0.931 . S
C545 H533 0.929 . S
C545 C539 1.390 . S
C545 C542 1.386 . S
C546 C541 1.490 . S
C546 C548 1.395 . S
C546 C549 1.403 . S
H547 C553 0.930 . S
C548 H534 0.930 . S
C548 C546 1.395 . S
C548 C551 1.403 . S
C549 C546 1.403 . S
C549 C550 1.524 . S
C549 C553 1.400 . S
C550 H535 0.960 . S
C550 H536 0.960 . S
C550 H537 0.960 . S
C550 C549 1.524 . S
C551 C548 1.403 . S
C551 C552 1.392 . S
C551 C555 1.495 . S
C552 C551 1.392 . S
C552 C553 1.385 . S
C552 C554 1.478 . S
C553 H547 0.930 . S
C553 C549 1.400 . S
C553 C552 1.385 . S
C554 C552 1.478 . S
C554 C556 1.381 . S
C554 C560 1.383 . S
C555 C551 1.495 . S
C555 H561 0.959 . S
C555 H562 0.961 . S
C555 H563 0.960 . S
C556 C554 1.381 . S
C556 C557 1.394 . S
C556 H564 0.930 . S
C557 C556 1.394 . S
C557 C558 1.383 . S
C557 H565 0.929 . S
C558 C557 1.383 . S
C558 C559 1.377 . S
C559 H543 0.930 . S
C559 C558 1.377 . S
C559 C560 1.379 . S
C560 H544 0.931 . S
C560 C554 1.383 . S
C560 C559 1.379 . S
H561 C555 0.959 . S
H562 C555 0.961 . S
H563 C555 0.960 . S
H564 C556 0.930 . S
H565 C557 0.929 . S
H566 C574 0.929 . S
H567 C576 0.930 . S
H568 C578 0.930 . S
H569 C581 0.929 . S
H570 C584 0.930 . S
H571 C586 0.960 . S
H572 C586 0.960 . S
H573 C586 0.960 . S
C574 H566 0.929 . S
C574 C575 1.377 . S
C574 C576 1.384 . S
C575 C574 1.377 . S
C575 C581 1.390 . S
C576 H567 0.930 . S
C576 C574 1.384 . S
C576 C577 1.372 . S
C577 C576 1.372 . S
C577 C578 1.400 . S
C577 C582 1.490 . S
C578 H568 0.930 . S
C578 C577 1.400 . S
C578 C581 1.386 . S
H579 C595 0.930 . S
H580 C596 0.931 . S
C581 H569 0.929 . S
C581 C575 1.390 . S
C581 C578 1.386 . S
C582 C577 1.490 . S
C582 C584 1.395 . S
C582 C585 1.403 . S
H583 C589 0.930 . S
C584 H570 0.930 . S
C584 C582 1.395 . S
C584 C587 1.403 . S
C585 C582 1.403 . S
C585 C586 1.524 . S
C585 C589 1.400 . S
C586 H571 0.960 . S
C586 H572 0.960 . S
C586 H573 0.960 . S
C586 C585 1.524 . S
C587 C584 1.403 . S
C587 C588 1.392 . S
C587 C591 1.495 1_565 S
C588 C587 1.392 . S
C588 C589 1.385 . S
C588 C590 1.478 . S
C589 H583 0.930 . S
C589 C585 1.400 . S
C589 C588 1.385 . S
C590 C588 1.478 . S
C590 C592 1.381 . S
C590 C596 1.383 . S
C591 C587 1.495 1_545 S
C591 H597 0.959 . S
C591 H598 0.961 . S
C591 H599 0.960 . S
C592 C590 1.381 . S
C592 C593 1.394 1_565 S
C592 H600 0.930 1_565 S
C593 C592 1.394 1_545 S
C593 C594 1.383 1_545 S
C593 H601 0.929 . S
C594 C593 1.383 1_565 S
C594 C595 1.377 . S
C595 H579 0.930 . S
C595 C594 1.377 . S
C595 C596 1.379 . S
C596 H580 0.931 . S
C596 C590 1.383 . S
C596 C595 1.379 . S
H597 C591 0.959 . S
H598 C591 0.961 . S
H599 C591 0.960 . S
H600 C592 0.930 1_545 S
H601 C593 0.929 . S
C198 C143 1.247 . S
C179 C119 1.391 . S
C215 C23 1.475 . S
C234 C167 1.239 . S
C251 C55 1.645 . S
C270 C146 1.467 . S
C287 C87 1.575 . S
C306 C164 1.416 . S
C342 C144 1.507 . S
C323 C17 1.571 . S
C378 C166 1.498 . S
C359 C61 1.576 . S
C395 C93 1.490 . S
C414 C145 1.516 . S
C431 C113 1.479 . S
C450 C165 1.466 . S
C486 C163 1.516 . S
C467 C49 1.563 . S
C522 C142 1.538 . S
C503 C81 1.527 . S
C558 C162 1.547 . S
C539 C125 1.476 . S
C575 C29 1.564 . S
C594 C141 1.465 . S
