# Generated by pormake.
# Topology anh, (6,3)-cn, num edge types: 1
# Building blocks:
#     Node 0, Type 0, BuildingBlock: VOLQOD_clean_sbu_1, # of connection points: 6
#     Node 1, Type 0, BuildingBlock: VOLQOD_clean_sbu_1, # of connection points: 6
#     Node 2, Type 0, BuildingBlock: VOLQOD_clean_sbu_1, # of connection points: 6
#     Node 3, Type 1, BuildingBlock: PAMTOO_clean_linker_0, # of connection points: 3
#     Node 4, Type 1, BuildingBlock: PAMTOO_clean_linker_0, # of connection points: 3
#     Node 5, Type 1, BuildingBlock: PAMTOO_clean_linker_0, # of connection points: 3
#     Node 6, Type 1, BuildingBlock: PAMTOO_clean_linker_0, # of connection points: 3
#     Node 7, Type 1, BuildingBlock: PAMTOO_clean_linker_0, # of connection points: 3
#     Node 8, Type 1, BuildingBlock: PAMTOO_clean_linker_0, # of connection points: 3
#     Edge 9, Type (0, 1), BuildingBlock: MIFKUJ_clean_linker_0, # of connection points: 2
#     Edge 10, Type (0, 1), BuildingBlock: MIFKUJ_clean_linker_0, # of connection points: 2
#     Edge 11, Type (0, 1), BuildingBlock: MIFKUJ_clean_linker_0, # of connection points: 2
#     Edge 12, Type (0, 1), BuildingBlock: MIFKUJ_clean_linker_0, # of connection points: 2
#     Edge 13, Type (0, 1), BuildingBlock: MIFKUJ_clean_linker_0, # of connection points: 2
#     Edge 14, Type (0, 1), BuildingBlock: MIFKUJ_clean_linker_0, # of connection points: 2
#     Edge 15, Type (0, 1), BuildingBlock: MIFKUJ_clean_linker_0, # of connection points: 2
#     Edge 16, Type (0, 1), BuildingBlock: MIFKUJ_clean_linker_0, # of connection points: 2
#     Edge 17, Type (0, 1), BuildingBlock: MIFKUJ_clean_linker_0, # of connection points: 2
#     Edge 18, Type (0, 1), BuildingBlock: MIFKUJ_clean_linker_0, # of connection points: 2
#     Edge 19, Type (0, 1), BuildingBlock: MIFKUJ_clean_linker_0, # of connection points: 2
#     Edge 20, Type (0, 1), BuildingBlock: MIFKUJ_clean_linker_0, # of connection points: 2
#     Edge 21, Type (0, 1), BuildingBlock: MIFKUJ_clean_linker_0, # of connection points: 2
#     Edge 22, Type (0, 1), BuildingBlock: MIFKUJ_clean_linker_0, # of connection points: 2
#     Edge 23, Type (0, 1), BuildingBlock: MIFKUJ_clean_linker_0, # of connection points: 2
#     Edge 24, Type (0, 1), BuildingBlock: MIFKUJ_clean_linker_0, # of connection points: 2
#     Edge 25, Type (0, 1), BuildingBlock: MIFKUJ_clean_linker_0, # of connection points: 2
#     Edge 26, Type (0, 1), BuildingBlock: MIFKUJ_clean_linker_0, # of connection points: 2
# Relax obj value: 0.158
# Max RMSD: 0.218
# Mean RMSD: 0.140
data_MOF--net-anh--node1-VOLQOD_clean_sbu_1--node2-PAMTOO_clean_linker_0--edge1-MIFKUJ_clean_linker_0
_symmetry_space_group_name_H-M    P1
_symmetry_Int_Tables_number       1
_symmetry_cell_setting            triclinic
loop_
_symmetry_equiv_pos_as_xyz
'x, y, z'
_cell_length_a     37.715019
_cell_length_b     37.668836
_cell_length_c     73.101067
_cell_angle_alpha  84.75579
_cell_angle_beta   92.608719
_cell_angle_gamma 120.15792
loop_
_atom_site_label
_atom_site_type_symbol
_atom_site_fract_x
_atom_site_fract_y
_atom_site_fract_z
_atom_type_partial_charge
O0 O 0.07268 0.54711 0.20072 0.0
Zn1 Zn 0.06913 0.56301 0.17403 0.0
O2 O 0.07623 0.52747 0.15857 0.0
Zn3 Zn 0.03152 0.50546 0.14114 0.0
Zn4 Zn 0.07596 0.48218 0.17406 0.0
Zn5 Zn 0.12718 0.55867 0.1447 0.0
O6 O 0.05045 0.51714 0.11504 0.0
O7 O 0.1173 0.55986 0.11734 0.0
O8 O 0.01432 0.56005 0.16955 0.0
O9 O 0.9944 0.52794 0.14383 0.0
O10 O 0.99559 0.44484 0.14639 0.0
O11 O 0.02306 0.42884 0.17095 0.0
O12 O 0.12307 0.47512 0.16738 0.0
O13 O 0.1154 0.62152 0.16984 0.0
O14 O 0.16086 0.53088 0.14873 0.0
O15 O 0.15882 0.61717 0.15181 0.0
C16 C 0.07852 0.51957 0.20935 0.0
C17 C 0.0854 0.5404 0.10762 0.0
C18 C 0.99472 0.41873 0.15895 0.0
C19 C 0.98927 0.5465 0.15624 0.0
C20 C 0.1548 0.49741 0.15744 0.0
C21 C 0.14957 0.63801 0.16139 0.0
O22 O 0.08132 0.493 0.20086 0.0
O23 O 0.58989 0.03399 0.46133 0.0
Zn24 Zn 0.58348 0.03126 0.48864 0.0
O25 O 0.62893 0.02918 0.5015 0.0
Zn26 Zn 0.66092 0.07886 0.5142 0.0
Zn27 Zn 0.66379 0.02467 0.48396 0.0
Zn28 Zn 0.60741 0.98206 0.51961 0.0
O29 O 0.65676 0.06696 0.54153 0.0
O30 O 0.61448 -0.00049 0.54538 0.0
O31 O 0.57987 0.08062 0.49447 0.0
O32 O 0.63865 0.11702 0.50904 0.0
O33 O 0.7199 0.10889 0.50662 0.0
O34 O 0.7213 0.07336 0.48429 0.0
O35 O 0.66722 0.97312 0.49018 0.0
O36 O 0.53012 0.97985 0.49503 0.0
O37 O 0.63577 0.94971 0.5173 0.0
O38 O 0.54713 0.94371 0.51551 0.0
C39 C 0.61389 0.02968 0.45123 0.0
C40 C 0.63586 0.03439 0.55195 0.0
C41 C 0.73919 0.10369 0.49425 0.0
C42 C 0.60548 0.11309 0.50202 0.0
C43 C 0.65652 0.94801 0.50448 0.0
C44 C 0.52043 0.94742 0.50553 0.0
O45 O 0.64276 0.02451 0.45814 0.0
O46 O 0.60771 0.54585 0.79693 0.0
Zn47 Zn 0.59673 0.53404 0.82401 0.0
O48 O 0.64075 0.57595 0.838 0.0
Zn49 Zn 0.61932 0.60259 0.85205 0.0
Zn50 Zn 0.68318 0.61665 0.82088 0.0
Zn51 Zn 0.66335 0.55001 0.85528 0.0
O52 O 0.62658 0.59494 0.87921 0.0
O53 O 0.6524 0.55328 0.88163 0.0
O54 O 0.54267 0.52928 0.82887 0.0
O55 O 0.55852 0.57734 0.84819 0.0
O56 O 0.64641 0.66308 0.84451 0.0
O57 O 0.68794 0.67218 0.82167 0.0
O58 O 0.73814 0.62164 0.8271 0.0
O59 O 0.59164 0.47882 0.83032 0.0
O60 O 0.72382 0.5776 0.85178 0.0
O61 O 0.64042 0.49035 0.85099 0.0
C62 C 0.63831 0.57265 0.78732 0.0
C63 C 0.63864 0.57332 0.88899 0.0
C64 C 0.67227 0.68606 0.83204 0.0
C65 C 0.53226 0.54851 0.83883 0.0
C66 C 0.74932 0.60444 0.84007 0.0
C67 C 0.6115 0.46619 0.84084 0.0
O68 O 0.6698 0.60109 0.79473 0.0
H69 H 0.63992 0.10686 0.25217 0.0
H70 H 0.51242 0.01314 0.25229 0.0
H71 H 0.57482 0.06946 0.20116 0.0
H72 H 0.491 0.05355 0.20012 0.0
C73 C 0.47716 0.02769 0.21099 0.0
O74 O 0.50513 0.01558 0.2166 0.0
H75 H 0.46842 0.03854 0.22276 0.0
C76 C 0.61216 0.08755 0.24475 0.0
C77 C 0.61214 0.09168 0.22545 0.0
C78 C 0.57655 0.0592 0.25463 0.0
C79 C 0.54017 0.03557 0.24499 0.0
C80 C 0.5397 0.03976 0.22578 0.0
C81 C 0.57555 0.06748 0.21604 0.0
H82 H 0.64879 0.60442 0.58782 0.0
H83 H 0.6052 0.4743 0.59259 0.0
H84 H 0.62528 0.53861 0.53933 0.0
H85 H 0.55116 0.46043 0.54096 0.0
C86 C 0.5589 0.44335 0.55215 0.0
O87 O 0.59929 0.46711 0.55728 0.0
H88 H 0.53833 0.43633 0.56404 0.0
C89 C 0.64015 0.57638 0.58139 0.0
C90 C 0.63919 0.57669 0.5621 0.0
C91 C 0.62854 0.53986 0.59257 0.0
C92 C 0.61449 0.50291 0.58428 0.0
C93 C 0.61292 0.50273 0.56514 0.0
C94 C 0.62589 0.53946 0.55411 0.0
H95 H 0.06837 0.5633 0.90849 0.0
H96 H 0.14799 0.51196 0.91118 0.0
H97 H 0.10069 0.53113 0.85922 0.0
H98 H 0.10641 0.45161 0.8637 0.0
C99 C 0.13004 0.46251 0.8747 0.0
O100 O 0.14562 0.50404 0.876 0.0
H101 H 0.11554 0.44469 0.88789 0.0
C102 C 0.08525 0.55208 0.90162 0.0
C103 C 0.08185 0.54963 0.88246 0.0
C104 C 0.10901 0.53864 0.91216 0.0
C105 C 0.1292 0.52221 0.90337 0.0
C106 C 0.12548 0.51907 0.88439 0.0
C107 C 0.10223 0.53294 0.87396 0.0
H108 H 0.07748 0.45427 0.40721 0.0
H109 H 0.16536 0.58363 0.40879 0.0
H110 H 0.11373 0.5089 0.4589 0.0
H111 H 0.12322 0.5875 0.45986 0.0
C112 C 0.14929 0.60647 0.45023 0.0
O113 O 0.16457 0.58283 0.44458 0.0
H114 H 0.13796 0.61814 0.43815 0.0
C115 C 0.09634 0.48082 0.41493 0.0
C116 C 0.09276 0.47684 0.43412 0.0
C117 C 0.12226 0.5192 0.40556 0.0
C118 C 0.145 0.55376 0.4157 0.0
C119 C 0.14196 0.54982 0.43488 0.0
C120 C 0.11598 0.51149 0.44405 0.0
H121 H 0.61816 0.00336 0.74517 0.0
H122 H 0.58248 0.09466 0.74782 0.0
H123 H 0.60904 0.04257 0.79749 0.0
H124 H 0.54478 0.05699 0.80255 0.0
C125 C 0.55143 0.08276 0.79199 0.0
O126 O 0.58844 0.09573 0.78361 0.0
H127 H 0.52643 0.07167 0.78157 0.0
C128 C 0.61076 0.02145 0.75328 0.0
C129 C 0.61453 0.01883 0.7725 0.0
C130 C 0.59899 0.04841 0.74427 0.0
C131 C 0.5913 0.07343 0.75458 0.0
C132 C 0.59501 0.07109 0.77373 0.0
C133 C 0.60671 0.04409 0.78264 0.0
H134 H 0.62738 0.4943 0.08576 0.0
H135 H 0.49963 0.45841 0.0832 0.0
H136 H 0.55004 0.43399 0.13332 0.0
H137 H 0.45816 0.36854 0.12671 0.0
C138 C 0.45282 0.38933 0.11663 0.0
O139 O 0.48455 0.42923 0.11753 0.0
H140 H 0.45079 0.37883 0.10266 0.0
C141 C 0.59757 0.47998 0.09228 0.0
C142 C 0.59299 0.46416 0.11074 0.0
C143 C 0.56412 0.47774 0.08214 0.0
C144 C 0.5257 0.45977 0.09069 0.0
C145 C 0.52089 0.44413 0.1091 0.0
C146 C 0.55432 0.44616 0.11908 0.0
H147 H 0.2101 0.52143 0.12973 0.0
H148 H 0.25445 0.49359 0.12414 0.0
H149 H 0.20959 0.4124 0.17354 0.0
H150 H 0.16443 0.43964 0.17915 0.0
H151 H 0.29853 0.45778 0.1683 0.0
H152 H 0.17391 0.37029 0.13711 0.0
H153 H 0.1158 0.35476 0.1161 0.0
H154 H 0.19906 0.41551 0.07075 0.0
H155 H 0.2578 0.4323 0.09156 0.0
H156 H 0.40526 0.35697 0.14779 0.0
H157 H 0.34759 0.36535 0.15581 0.0
H158 H 0.35767 0.43144 0.10305 0.0
H159 H 0.41426 0.42174 0.09483 0.0
H160 H 0.28013 0.38545 0.11215 0.0
H161 H 0.40362 0.48137 0.14225 0.0
H162 H 0.46427 0.50216 0.16222 0.0
H163 H 0.38637 0.43156 0.20825 0.0
H164 H 0.32525 0.4099 0.18847 0.0
C165 C 0.20985 0.49789 0.13951 0.0
C166 C 0.18376 0.48269 0.15489 0.0
C167 C 0.23501 0.48188 0.13622 0.0
C168 C 0.23486 0.45075 0.14835 0.0
C169 C 0.20986 0.43632 0.16401 0.0
C170 C 0.18414 0.45187 0.16717 0.0
C171 C 0.261 0.43345 0.14452 0.0
C172 C 0.29412 0.4412 0.15624 0.0
C173 C 0.25558 0.41282 0.12852 0.0
C174 C 0.22031 0.40287 0.11595 0.0
C175 C 0.17989 0.38075 0.1227 0.0
C176 C 0.14682 0.37168 0.11081 0.0
C177 C 0.15374 0.38425 0.09211 0.0
C178 C 0.19376 0.40589 0.08525 0.0
C179 C 0.22696 0.4152 0.09708 0.0
C180 C 0.39438 0.37236 0.13779 0.0
C181 C 0.4138 0.38852 0.12066 0.0
C182 C 0.36173 0.37743 0.14241 0.0
C183 C 0.34879 0.39964 0.13015 0.0
C184 C 0.36708 0.41417 0.11272 0.0
C185 C 0.39933 0.40867 0.10802 0.0
C186 C 0.31821 0.41028 0.13579 0.0
C187 C 0.28426 0.40141 0.12438 0.0
C188 C 0.32325 0.43056 0.15192 0.0
C189 C 0.35992 0.44362 0.16384 0.0
C190 C 0.39946 0.47003 0.1566 0.0
C191 C 0.43391 0.48201 0.16789 0.0
C192 C 0.42918 0.46808 0.18648 0.0
C193 C 0.38998 0.44224 0.19384 0.0
C194 C 0.35543 0.43011 0.1826 0.0
H195 H 0.45589 0.4774 0.1952 0.0
H196 H 0.1281 0.37714 0.08292 0.0
H197 H 0.79308 0.16032 0.51707 0.0
H198 H 0.86018 0.21997 0.50891 0.0
H199 H 0.84908 0.17987 0.4545 0.0
H200 H 0.78221 0.11975 0.46258 0.0
H201 H 0.937 0.23217 0.49212 0.0
H202 H 0.86895 0.26799 0.42669 0.0
H203 H 0.80139 0.25174 0.41364 0.0
H204 H 0.75536 0.24119 0.46771 0.0
H205 H 0.82281 0.25806 0.48102 0.0
H206 H 0.08325 0.40102 0.43059 0.0
H207 H 0.02845 0.33431 0.44375 0.0
H208 H 0.97893 0.3964 0.47127 0.0
H209 H 0.03386 0.4631 0.45838 0.0
H210 H 0.92259 0.33248 0.44797 0.0
H211 H 0.0208 0.3572 0.49696 0.0
H212 H 0.08821 0.37262 0.50978 0.0
H213 H 0.07456 0.26333 0.4891 0.0
H214 H 0.00728 0.24757 0.47591 0.0
C215 C 0.80532 0.16371 0.50349 0.0
C216 C 0.78222 0.13563 0.49039 0.0
C217 C 0.84373 0.19761 0.49892 0.0
C218 C 0.85925 0.20425 0.48111 0.0
C219 C 0.83744 0.17507 0.46833 0.0
C220 C 0.79929 0.14082 0.47297 0.0
C221 C 0.8953 0.24416 0.47523 0.0
C222 C 0.93403 0.25409 0.48241 0.0
C223 C 0.89108 0.27271 0.46271 0.0
C224 C 0.85076 0.26381 0.45484 0.0
C225 C 0.84444 0.26238 0.43577 0.0
C226 C 0.80617 0.25304 0.42833 0.0
C227 C 0.77405 0.24524 0.43985 0.0
C228 C 0.78021 0.24705 0.45881 0.0
C229 C 0.81844 0.25647 0.46631 0.0
C230 C 0.06094 0.40033 0.43966 0.0
C231 C 0.06264 0.43702 0.44352 0.0
C232 C 0.02986 0.36237 0.44718 0.0
C233 C -0.00016 0.36066 0.45844 0.0
C234 C 0.00199 0.39729 0.46263 0.0
C235 C 0.0334 0.43524 0.45536 0.0
C236 C 0.96451 0.32061 0.46479 0.0
C237 C 0.92577 0.31057 0.45762 0.0
C238 C 0.96886 0.2921 0.47729 0.0
C239 C 0.00919 0.30144 0.48529 0.0
C240 C 0.03233 0.33666 0.495 0.0
C241 C 0.07049 0.34541 0.50237 0.0
C242 C 0.08571 0.31903 0.50022 0.0
C243 C 0.06275 0.28377 0.49073 0.0
C244 C 0.02459 0.27489 0.48333 0.0
H245 H 0.11526 0.32586 0.50593 0.0
H246 H 0.74442 0.23791 0.43407 0.0
H247 H 0.68172 0.73934 0.85715 0.0
H248 H 0.687 0.80682 0.85089 0.0
H249 H 0.68393 0.7941 0.7926 0.0
H250 H 0.68193 0.7284 0.79889 0.0
H251 H 0.7277 0.86926 0.79687 0.0
H252 H 0.59456 0.76469 0.8205 0.0
H253 H 0.54637 0.71119 0.84315 0.0
H254 H 0.58724 0.79987 0.88349 0.0
H255 H 0.63602 0.85378 0.86112 0.0
H256 H 0.59216 0.94144 0.76343 0.0
H257 H 0.61555 0.89547 0.77733 0.0
H258 H 0.68583 0.98263 0.81711 0.0
H259 H 0.6646 0.03034 0.80264 0.0
H260 H 0.61845 0.88091 0.82641 0.0
H261 H 0.74645 0.98799 0.79691 0.0
H262 H 0.78433 0.03582 0.77034 0.0
H263 H 0.74096 0.93413 0.73675 0.0
H264 H 0.7023 0.88577 0.76306 0.0
C265 C 0.68311 0.75157 0.84303 0.0
C266 C 0.68108 0.72875 0.82848 0.0
C267 C 0.68584 0.78992 0.83945 0.0
C268 C 0.68459 0.80507 0.82127 0.0
C269 C 0.68485 0.78317 0.80675 0.0
C270 C 0.68358 0.74554 0.81033 0.0
C271 C 0.67953 0.84165 0.81723 0.0
C272 C 0.70396 0.8718 0.80346 0.0
C273 C 0.64867 0.84537 0.82582 0.0
C274 C 0.61925 0.81308 0.83923 0.0
C275 C 0.59341 0.77268 0.83424 0.0
C276 C 0.56599 0.74231 0.84702 0.0
C277 C 0.56385 0.7521 0.86477 0.0
C278 C 0.58901 0.79231 0.86976 0.0
C279 C 0.61654 0.82278 0.85704 0.0
C280 C 0.6131 0.95131 0.77495 0.0
C281 C 0.62686 0.98989 0.78176 0.0
C282 C 0.62612 0.92482 0.78294 0.0
C283 C 0.65255 0.93602 0.79807 0.0
C284 C 0.66548 0.97375 0.80536 0.0
C285 C 0.65303 0.00073 0.79716 0.0
C286 C 0.66621 0.90762 0.80607 0.0
C287 C 0.64309 0.87888 0.82039 0.0
C288 C 0.69726 0.90442 0.79761 0.0
C289 C 0.72126 0.93334 0.78191 0.0
C290 C 0.74475 0.97589 0.78382 0.0
C291 C 0.76641 0.00308 0.76882 0.0
C292 C 0.76498 0.98804 0.75185 0.0
C293 C 0.74203 0.94575 0.74989 0.0
C294 C 0.72029 0.91843 0.76485 0.0
H295 H 0.78172 0.00914 0.74025 0.0
H296 H 0.54261 0.72854 0.87464 0.0
H297 H 0.94482 0.54369 0.18546 0.0
H298 H 0.87478 0.53276 0.18447 0.0
H299 H 0.87723 0.54015 0.12525 0.0
H300 H 0.9465 0.55055 0.12616 0.0
H301 H 0.84228 0.58158 0.13814 0.0
H302 H 0.83649 0.45005 0.14837 0.0
H303 H 0.84789 0.39648 0.1648 0.0
H304 H 0.78138 0.39464 0.21134 0.0
H305 H 0.7702 0.44879 0.1953 0.0
H306 H 0.6527 0.45082 0.09914 0.0
H307 H 0.71763 0.46761 0.11436 0.0
H308 H 0.68004 0.50168 0.16142 0.0
H309 H 0.61525 0.48641 0.14598 0.0
H310 H 0.72978 0.44472 0.16187 0.0
H311 H 0.73352 0.57742 0.14813 0.0
H312 H 0.71771 0.62335 0.12757 0.0
H313 H 0.78606 0.61587 0.08414 0.0
H314 H 0.80173 0.56937 0.1044 0.0
C315 C 0.93067 0.54396 0.17226 0.0
C316 C 0.95093 0.5479 0.15587 0.0
C317 C 0.89065 0.53737 0.17173 0.0
C318 C 0.87084 0.53528 0.1548 0.0
C319 C 0.89202 0.54164 0.13845 0.0
C320 C 0.93156 0.54758 0.13898 0.0
C321 C 0.82735 0.52442 0.15375 0.0
C322 C 0.81774 0.55194 0.14363 0.0
C323 C 0.79531 0.48568 0.16092 0.0
C324 C 0.80327 0.45414 0.17078 0.0
C325 C 0.8249 0.43876 0.16223 0.0
C326 C 0.83119 0.40816 0.17144 0.0
C327 C 0.81565 0.39242 0.18916 0.0
C328 C 0.79368 0.40712 0.19767 0.0
C329 C 0.78738 0.43777 0.18853 0.0
C330 C 0.65807 0.46166 0.11277 0.0
C331 C 0.62918 0.46798 0.12123 0.0
C332 C 0.69495 0.47082 0.12149 0.0
C333 C 0.70341 0.48599 0.1389 0.0
C334 C 0.67375 0.48985 0.14797 0.0
C335 C 0.63682 0.48103 0.13916 0.0
C336 C 0.74516 0.5019 0.14633 0.0
C337 C 0.75443 0.47514 0.15728 0.0
C338 C 0.77702 0.54105 0.13977 0.0
C339 C 0.76851 0.56974 0.12773 0.0
C340 C 0.74492 0.58537 0.13416 0.0
C341 C 0.73603 0.61153 0.12257 0.0
C342 C 0.7508 0.62246 0.10455 0.0
C343 C 0.77462 0.60736 0.0981 0.0
C344 C 0.78355 0.58115 0.10964 0.0
H345 H 0.74385 0.64268 0.09559 0.0
H346 H 0.8204 0.36863 0.19626 0.0
H347 H 0.45577 0.94425 0.48579 0.0
H348 H 0.38816 0.88446 0.48222 0.0
H349 H 0.42058 0.81122 0.52053 0.0
H350 H 0.4889 0.87091 0.52395 0.0
H351 H 0.38947 0.7735 0.49033 0.0
H352 H 0.34844 0.83603 0.53167 0.0
H353 H 0.34352 0.89176 0.54442 0.0
H354 H 0.28204 0.90488 0.49559 0.0
H355 H 0.28712 0.84961 0.48242 0.0
H356 H 0.18896 0.60164 0.48161 0.0
H357 H 0.2475 0.65797 0.49634 0.0
H358 H 0.24282 0.74583 0.45554 0.0
H359 H 0.18455 0.68958 0.44073 0.0
H360 H 0.25713 0.77166 0.49179 0.0
H361 H 0.3074 0.71499 0.44952 0.0
H362 H 0.31273 0.65915 0.43709 0.0
H363 H 0.35722 0.63486 0.48912 0.0
H364 H 0.35151 0.69018 0.50194 0.0
C365 C 0.44845 0.91563 0.49368 0.0
C366 C 0.4779 0.91237 0.50509 0.0
C367 C 0.40958 0.88148 0.49171 0.0
C368 C 0.39914 0.84343 0.50124 0.0
C369 C 0.42798 0.84033 0.51309 0.0
C370 C 0.46698 0.87452 0.51505 0.0
C371 C 0.35952 0.80632 0.49745 0.0
C372 C 0.36042 0.77274 0.49109 0.0
C373 C 0.32169 0.80559 0.49813 0.0
C374 C 0.31841 0.83881 0.506 0.0
C375 C 0.33413 0.85099 0.52359 0.0
C376 C 0.33127 0.88247 0.5309 0.0
C377 C 0.31254 0.9019 0.52081 0.0
C378 C 0.29655 0.88981 0.50339 0.0
C379 C 0.29936 0.85835 0.496 0.0
C380 C 0.20029 0.63307 0.47597 0.0
C381 C 0.18262 0.64143 0.46003 0.0
C382 C 0.23357 0.6651 0.48435 0.0
C383 C 0.24952 0.70594 0.47693 0.0
C384 C 0.2308 0.71448 0.46147 0.0
C385 C 0.19772 0.68242 0.453 0.0
C386 C 0.28746 0.7395 0.48446 0.0
C387 C 0.28617 0.7723 0.49143 0.0
C388 C 0.32495 0.73948 0.48447 0.0
C389 C 0.3285 0.70633 0.47675 0.0
C390 C 0.31793 0.69747 0.45836 0.0
C391 C 0.32109 0.66597 0.45123 0.0
C392 C 0.33516 0.64337 0.46233 0.0
C393 C 0.34622 0.65232 0.48055 0.0
C394 C 0.34303 0.68374 0.48775 0.0
H395 H 0.33761 0.61901 0.45679 0.0
H396 H 0.31036 0.92627 0.5265 0.0
H397 H 0.65696 0.4321 0.85528 0.0
H398 H 0.6451 0.36311 0.8515 0.0
H399 H 0.53439 0.33473 0.82113 0.0
H400 H 0.54576 0.40338 0.82492 0.0
H401 H 0.5244 0.26978 0.84463 0.0
H402 H 0.61966 0.36324 0.79794 0.0
H403 H 0.68252 0.42453 0.78557 0.0
H404 H 0.75628 0.38443 0.81746 0.0
H405 H 0.69376 0.32297 0.83012 0.0
H406 H 0.50266 0.11779 0.78668 0.0
H407 H 0.51103 0.17879 0.80018 0.0
H408 H 0.61501 0.18821 0.8313 0.0
H409 H 0.60639 0.12685 0.81796 0.0
H410 H 0.63062 0.26102 0.81086 0.0
H411 H 0.53108 0.16058 0.85377 0.0
H412 H 0.4662 0.09841 0.86352 0.0
H413 H 0.39805 0.1514 0.83662 0.0
H414 H 0.46255 0.21369 0.82646 0.0
C415 C 0.62977 0.41098 0.84803 0.0
C416 C 0.60243 0.42331 0.84029 0.0
C417 C 0.62315 0.37166 0.84583 0.0
C418 C 0.5891 0.34406 0.83588 0.0
C419 C 0.56085 0.35562 0.82885 0.0
C420 C 0.56752 0.39494 0.83096 0.0
C421 C 0.58397 0.30398 0.83187 0.0
C422 C 0.5475 0.26779 0.83718 0.0
C423 C 0.61444 0.3015 0.82241 0.0
C424 C 0.65208 0.33876 0.81511 0.0
C425 C 0.64929 0.36769 0.80244 0.0
C426 C 0.68484 0.40238 0.79533 0.0
C427 C 0.72336 0.40833 0.80071 0.0
C428 C 0.72641 0.3797 0.81327 0.0
C429 C 0.69093 0.34493 0.82041 0.0
C430 C 0.52693 0.13262 0.79658 0.0
C431 C 0.55413 0.11803 0.80122 0.0
C432 C 0.5316 0.16728 0.80431 0.0
C433 C 0.56357 0.18782 0.81676 0.0
C434 C 0.59017 0.1727 0.82173 0.0
C435 C 0.58524 0.1378 0.81414 0.0
C436 C 0.57091 0.22677 0.8235 0.0
C437 C 0.60779 0.26284 0.81861 0.0
C438 C 0.54057 0.2291 0.83313 0.0
C439 C 0.50169 0.19169 0.83922 0.0
C440 C 0.50227 0.15885 0.84979 0.0
C441 C 0.46555 0.1236 0.85542 0.0
C442 C 0.42803 0.12091 0.85066 0.0
C443 C 0.42715 0.15351 0.84028 0.0
C444 C 0.46378 0.18882 0.83461 0.0
H445 H 0.39963 0.0936 0.85504 0.0
H446 H 0.75086 0.43512 0.79514 0.0
H447 H 0.66363 0.90799 0.47677 0.0
H448 H 0.67075 0.84632 0.48004 0.0
H449 H 0.67967 0.85214 0.5388 0.0
H450 H 0.67118 0.91269 0.53574 0.0
H451 H 0.73905 0.83124 0.51241 0.0
H452 H 0.59861 0.79237 0.53706 0.0
H453 H 0.53461 0.79465 0.53177 0.0
H454 H 0.5206 0.74676 0.47917 0.0
H455 H 0.58484 0.74473 0.48411 0.0
H456 H 0.69869 0.65546 0.56862 0.0
H457 H 0.70997 0.71923 0.55224 0.0
H458 H 0.61956 0.65048 0.51189 0.0
H459 H 0.60513 0.58633 0.52927 0.0
H460 H 0.60407 0.70314 0.52081 0.0
H461 H 0.72779 0.71512 0.50215 0.0
H462 H 0.79253 0.71381 0.50462 0.0
H463 H 0.84195 0.81267 0.54013 0.0
H464 H 0.77731 0.81422 0.53811 0.0
C465 C 0.6679 0.89651 0.49033 0.0
C466 C 0.66656 0.91478 0.50603 0.0
C467 C 0.67203 0.86147 0.49215 0.0
C468 C 0.67587 0.84508 0.50963 0.0
C469 C 0.67698 0.8647 0.5252 0.0
C470 C 0.67188 0.89902 0.52344 0.0
C471 C 0.67359 0.80478 0.5121 0.0
C472 C 0.70975 0.803 0.51422 0.0
C473 C 0.63531 0.7682 0.51367 0.0
C474 C 0.59647 0.76868 0.51088 0.0
C475 C 0.58191 0.78253 0.52434 0.0
C476 C 0.54564 0.78376 0.52141 0.0
C477 C 0.52358 0.77093 0.50513 0.0
C478 C 0.53773 0.75674 0.49176 0.0
C479 C 0.57405 0.75554 0.49461 0.0
C480 C 0.68097 0.65373 0.55632 0.0
C481 C 0.65046 0.61552 0.55051 0.0
C482 C 0.68815 0.69043 0.54668 0.0
C483 C 0.66604 0.68991 0.53062 0.0
C484 C 0.63709 0.6518 0.52423 0.0
C485 C 0.62917 0.61501 0.53412 0.0
C486 C 0.66986 0.72889 0.52185 0.0
C487 C 0.63376 0.73071 0.51856 0.0
C488 C 0.70843 0.76528 0.51877 0.0
C489 C 0.74754 0.76464 0.52003 0.0
C490 C 0.75235 0.73642 0.51058 0.0
C491 C 0.78906 0.73566 0.51189 0.0
C492 C 0.82131 0.76311 0.52254 0.0
C493 C 0.81694 0.79144 0.53188 0.0
C494 C 0.78029 0.79232 0.53062 0.0
H495 H 0.8497 0.76246 0.52354 0.0
H496 H 0.49551 0.77192 0.50288 0.0
H497 H 0.80686 0.63801 0.81253 0.0
H498 H 0.87191 0.6379 0.81245 0.0
H499 H 0.8523 0.58864 0.86904 0.0
H500 H 0.78764 0.58834 0.86924 0.0
H501 H 0.9454 0.66864 0.83435 0.0
H502 H 0.86057 0.50259 0.87104 0.0
H503 H 0.79017 0.44318 0.87282 0.0
H504 H 0.76213 0.4845 0.82039 0.0
H505 H 0.83272 0.54313 0.81792 0.0
H506 H 0.07295 0.61605 0.88715 0.0
H507 H 0.02411 0.63316 0.87203 0.0
H508 H 0.98558 0.5337 0.83703 0.0
H509 H 0.03223 0.51438 0.85309 0.0
H510 H 0.92263 0.52776 0.85032 0.0
H511 H 0.0366 0.63866 0.81978 0.0
H512 H 0.10637 0.69832 0.81557 0.0
H513 H 0.07696 0.76642 0.84999 0.0
H514 H 0.00719 0.70699 0.85465 0.0
C515 C 0.81696 0.62812 0.82507 0.0
C516 C 0.79184 0.61244 0.84079 0.0
C517 C 0.85407 0.62812 0.82499 0.0
C518 C 0.86625 0.61248 0.84063 0.0
C519 C 0.84293 0.60019 0.85676 0.0
C520 C 0.80598 0.59998 0.85683 0.0
C521 C 0.90071 0.6046 0.8399 0.0
C522 C 0.94072 0.63792 0.83766 0.0
C523 C 0.89405 0.56415 0.8434 0.0
C524 C 0.85199 0.52757 0.84438 0.0
C525 C 0.83958 0.49874 0.85977 0.0
C526 C 0.7996 0.46513 0.86089 0.0
C527 C 0.77168 0.46002 0.84672 0.0
C528 C 0.78379 0.48834 0.83133 0.0
C529 C 0.82381 0.52175 0.83005 0.0
C530 C 0.05408 0.59773 0.87625 0.0
C531 C 0.05612 0.56342 0.87156 0.0
C532 C 0.02669 0.6081 0.86733 0.0
C533 C 0.00141 0.58504 0.85321 0.0
C534 C 0.00484 0.55204 0.84785 0.0
C535 C 0.03179 0.54121 0.85698 0.0
C536 C 0.96802 0.59218 0.84584 0.0
C537 C 0.92783 0.55853 0.84654 0.0
C538 C 0.97467 0.63217 0.84039 0.0
C539 C 0.01661 0.66822 0.83761 0.0
C540 C 0.04505 0.66626 0.82655 0.0
C541 C 0.08462 0.70006 0.82407 0.0
C542 C 0.0961 0.73612 0.83252 0.0
C543 C 0.06801 0.73847 0.84344 0.0
C544 C 0.0284 0.70475 0.84597 0.0
H545 H 0.12675 0.76225 0.83059 0.0
H546 H 0.74067 0.43414 0.84766 0.0
H547 H 0.21998 0.6876 0.14168 0.0
H548 H 0.27321 0.75767 0.14733 0.0
H549 H 0.20241 0.75677 0.19229 0.0
H550 H 0.14852 0.6872 0.1864 0.0
H551 H 0.23785 0.83006 0.17403 0.0
H552 H 0.28163 0.73658 0.19974 0.0
H553 H 0.29747 0.68056 0.19958 0.0
H554 H 0.38932 0.75092 0.15819 0.0
H555 H 0.37364 0.80718 0.15795 0.0
H556 H 0.40068 0.97989 0.22645 0.0
H557 H 0.34269 0.91761 0.21506 0.0
H558 H 0.41359 0.93148 0.16751 0.0
H559 H 0.47158 0.99394 0.17886 0.0
H560 H 0.37851 0.85366 0.18546 0.0
H561 H 0.33634 0.95037 0.16243 0.0
H562 H 0.32002 0.00555 0.16459 0.0
H563 H 0.22469 0.9281 0.20359 0.0
H564 H 0.24082 0.87262 0.20185 0.0
C565 C 0.21554 0.70245 0.15266 0.0
C566 C 0.18017 0.68166 0.1637 0.0
C567 C 0.24606 0.74246 0.15591 0.0
C568 C 0.24215 0.76216 0.17046 0.0
C569 C 0.20613 0.74214 0.18101 0.0
C570 C 0.17538 0.7023 0.17765 0.0
C571 C 0.27634 0.80277 0.17525 0.0
C572 C 0.26853 0.83514 0.17668 0.0
C573 C 0.31651 0.80955 0.1785 0.0
C574 C 0.32616 0.77588 0.17868 0.0
C575 C 0.305 0.73997 0.19051 0.0
C576 C 0.31398 0.7082 0.19051 0.0
C577 C 0.3443 0.71213 0.17884 0.0
C578 C 0.3658 0.7479 0.1672 0.0
C579 C 0.3569 0.77975 0.16713 0.0
C580 C 0.40351 0.96997 0.21342 0.0
C581 C 0.44024 0.99178 0.20337 0.0
C582 C 0.37046 0.93451 0.20692 0.0
C583 C 0.37379 0.92021 0.19037 0.0
C584 C 0.41039 0.94218 0.18026 0.0
C585 C 0.44332 0.97778 0.18669 0.0
C586 C 0.34003 0.88092 0.1842 0.0
C587 C 0.34792 0.84871 0.18262 0.0
C588 C 0.29989 0.87419 0.18111 0.0
C589 C 0.29004 0.90746 0.18213 0.0
C590 C 0.31212 0.94521 0.17158 0.0
C591 C 0.30286 0.97653 0.17271 0.0
C592 C 0.27141 0.97037 0.18425 0.0
C593 C 0.24908 0.93284 0.19466 0.0
C594 C 0.25823 0.90143 0.1936 0.0
H595 H 0.26429 0.99465 0.18511 0.0
H596 H 0.35121 0.68749 0.17886 0.0
H597 H 0.65635 0.1897 0.51338 0.0
H598 H 0.63821 0.24066 0.52024 0.0
H599 H 0.51404 0.16177 0.50254 0.0
H600 H 0.53204 0.1105 0.49535 0.0
H601 H 0.54106 0.24262 0.49173 0.0
H602 H 0.53383 0.16241 0.54695 0.0
H603 H 0.55794 0.12802 0.57039 0.0
H604 H 0.65953 0.24518 0.58292 0.0
H605 H 0.6365 0.28029 0.55929 0.0
H606 H 0.51647 0.36451 0.56839 0.0
H607 H 0.51218 0.30229 0.55815 0.0
H608 H 0.58676 0.37365 0.51093 0.0
H609 H 0.58988 0.43547 0.52088 0.0
H610 H 0.57034 0.28622 0.55533 0.0
H611 H 0.56763 0.3158 0.47561 0.0
H612 H 0.53771 0.34525 0.45257 0.0
H613 H 0.44295 0.32022 0.49062 0.0
H614 H 0.47193 0.2901 0.51379 0.0
C615 C 0.62525 0.18324 0.51075 0.0
C616 C 0.59549 0.14579 0.50403 0.0
C617 C 0.61493 0.21239 0.51473 0.0
C618 C 0.57461 0.20454 0.51225 0.0
C619 C 0.54528 0.16822 0.50464 0.0
C620 C 0.55563 0.13899 0.50056 0.0
C621 C 0.56306 0.23366 0.51845 0.0
C622 C 0.54724 0.25213 0.50563 0.0
C623 C 0.56989 0.24488 0.53678 0.0
C624 C 0.58355 0.22398 0.55125 0.0
C625 C 0.56145 0.18085 0.55462 0.0
C626 C 0.57491 0.16121 0.56795 0.0
C627 C 0.61025 0.18438 0.57813 0.0
C628 C 0.63216 0.22726 0.57502 0.0
C629 C 0.61889 0.24706 0.56167 0.0
C630 C 0.53121 0.36658 0.55565 0.0
C631 C 0.55317 0.40448 0.54528 0.0
C632 C 0.52889 0.33115 0.54985 0.0
C633 C 0.54874 0.33316 0.53366 0.0
C634 C 0.57037 0.37107 0.52322 0.0
C635 C 0.57237 0.40638 0.52894 0.0
C636 C 0.5497 0.29654 0.52842 0.0
C637 C 0.56359 0.27654 0.54146 0.0
C638 C 0.54006 0.28323 0.51043 0.0
C639 C 0.52218 0.30096 0.49649 0.0
C640 C 0.54029 0.31638 0.47903 0.0
C641 C 0.52351 0.33324 0.46596 0.0
C642 C 0.48851 0.3347 0.47015 0.0
C643 C 0.47014 0.3192 0.48741 0.0
C644 C 0.48677 0.30229 0.50053 0.0
H645 H 0.47559 0.34778 0.46001 0.0
H646 H 0.62062 0.16909 0.58843 0.0
H647 H 0.4956 0.56393 0.86588 0.0
H648 H 0.4224 0.53798 0.8698 0.0
H649 H 0.39656 0.47771 0.81952 0.0
H650 H 0.46989 0.50298 0.81558 0.0
H651 H 0.3567 0.5272 0.82483 0.0
H652 H 0.37496 0.41777 0.85408 0.0
H653 H 0.40926 0.38913 0.87491 0.0
H654 H 0.38211 0.43469 0.92091 0.0
H655 H 0.34817 0.46416 0.90031 0.0
H656 H 0.14588 0.43914 0.84287 0.0
H657 H 0.20925 0.44093 0.83491 0.0
H658 H 0.25735 0.47749 0.889 0.0
H659 H 0.19341 0.47388 0.89716 0.0
H660 H 0.28297 0.43028 0.87854 0.0
H661 H 0.27644 0.54845 0.85107 0.0
H662 H 0.24659 0.58406 0.83177 0.0
H663 H 0.25605 0.52998 0.78432 0.0
H664 H 0.28548 0.49361 0.80342 0.0
C665 C 0.47444 0.54542 0.85557 0.0
C666 C 0.48845 0.53539 0.84044 0.0
C667 C 0.43268 0.53047 0.85789 0.0
C668 C 0.40434 0.5057 0.84503 0.0
C669 C 0.41817 0.49666 0.8296 0.0
C670 C 0.45994 0.51106 0.82741 0.0
C671 C 0.36022 0.48931 0.8479 0.0
C672 C 0.34014 0.50528 0.83631 0.0
C673 C 0.33934 0.46157 0.86315 0.0
C674 C 0.35927 0.44342 0.87562 0.0
C675 C 0.37657 0.42195 0.86862 0.0
C676 C 0.3959 0.40552 0.88039 0.0
C677 C 0.39792 0.41015 0.89922 0.0
C678 C 0.38052 0.43113 0.90632 0.0
C679 C 0.36118 0.44766 0.8946 0.0
C680 C 0.16963 0.44642 0.85316 0.0
C681 C 0.16507 0.45639 0.87061 0.0
C682 C 0.20586 0.44775 0.84859 0.0
C683 C 0.23835 0.46019 0.86124 0.0
C684 C 0.23274 0.46784 0.87901 0.0
C685 C 0.19634 0.46585 0.88367 0.0
C686 C 0.27937 0.46877 0.85567 0.0
C687 C 0.29904 0.45146 0.86679 0.0
C688 C 0.30023 0.49604 0.8402 0.0
C689 C 0.28264 0.51792 0.8287 0.0
C690 C 0.27186 0.54393 0.83655 0.0
C691 C 0.25507 0.56428 0.82564 0.0
C692 C 0.2493 0.55918 0.80684 0.0
C693 C 0.26044 0.53382 0.79889 0.0
C694 C 0.27717 0.51333 0.80975 0.0
H695 H 0.23631 0.57497 0.79842 0.0
H696 H 0.41292 0.39742 0.90831 0.0
H697 H 0.97898 0.35455 0.18455 0.0
H698 H 0.91286 0.29207 0.19082 0.0
H699 H 0.85985 0.32765 0.1443 0.0
H700 H 0.92556 0.38996 0.13786 0.0
H701 H 0.81958 0.31492 0.17646 0.0
H702 H 0.86794 0.24398 0.14331 0.0
H703 H 0.91645 0.22204 0.1353 0.0
H704 H 0.90538 0.16357 0.18965 0.0
H705 H 0.85725 0.18568 0.19808 0.0
H706 H 0.62145 0.14255 0.19443 0.0
H707 H 0.68538 0.19256 0.17865 0.0
H708 H 0.75349 0.15819 0.21823 0.0
H709 H 0.68976 0.10677 0.23341 0.0
H710 H 0.78417 0.16874 0.18585 0.0
H711 H 0.74392 0.2452 0.22055 0.0
H712 H 0.70086 0.27194 0.23059 0.0
H713 H 0.70167 0.32431 0.1758 0.0
H714 H 0.74415 0.29724 0.16536 0.0
C715 C 0.95354 0.34862 0.17539 0.0
C716 C 0.95749 0.37751 0.16084 0.0
C717 C 0.91581 0.31281 0.17895 0.0
C718 C 0.88155 0.30536 0.16802 0.0
C719 C 0.88598 0.33291 0.15288 0.0
C720 C 0.92364 0.36852 0.14924 0.0
C721 C 0.84021 0.2718 0.17371 0.0
C722 C 0.81142 0.28278 0.17816 0.0
C723 C 0.83032 0.23022 0.17641 0.0
C724 C 0.85921 0.21679 0.17137 0.0
C725 C 0.8761 0.22674 0.15361 0.0
C726 C 0.90348 0.21421 0.14898 0.0
C727 C 0.91405 0.1915 0.16197 0.0
C728 C 0.89719 0.18119 0.17961 0.0
C729 C 0.86981 0.19367 0.18431 0.0
C730 C 0.64999 0.1452 0.19959 0.0
C731 C 0.65053 0.12097 0.2153 0.0
C732 C 0.68654 0.17411 0.19067 0.0
C733 C 0.72431 0.17963 0.19744 0.0
C734 C 0.72477 0.15464 0.2128 0.0
C735 C 0.6883 0.12556 0.2216 0.0
C736 C 0.76356 0.21193 0.18888 0.0
C737 C 0.79202 0.20077 0.18392 0.0
C738 C 0.7735 0.25362 0.18598 0.0
C739 C 0.7466 0.26852 0.1921 0.0
C740 C 0.73439 0.26186 0.21058 0.0
C741 C 0.7102 0.2772 0.21636 0.0
C742 C 0.69834 0.29961 0.20382 0.0
C743 C 0.71064 0.30671 0.18547 0.0
C744 C 0.73473 0.29133 0.17962 0.0
H745 H 0.67978 0.31163 0.20834 0.0
H746 H 0.93525 0.18182 0.15836 0.0
H747 H 0.02495 0.49914 0.08287 0.0
H748 H 0.03179 0.50044 0.04978 0.0
H749 H 0.16064 0.5897 0.05329 0.0
H750 H 0.15431 0.58802 0.08654 0.0
H751 H 0.05297 0.55844 0.02266 0.0
H752 H 0.21248 0.57125 0.0216 0.0
H753 H 0.25582 0.55309 0.04206 0.0
H754 H 0.14847 0.45509 0.06959 0.0
H755 H 0.10451 0.47214 0.04909 0.0
H756 H 0.12208 0.60328 0.93115 0.0
H757 H 0.12157 0.60546 0.96446 0.0
H758 H 0.10129 0.48167 0.97203 0.0
H759 H 0.10215 0.47946 0.93869 0.0
H760 H 0.1539 0.52823 0.99719 0.0
H761 H 0.02185 0.49916 0.97404 0.0
H762 H 0.97351 0.51063 0.95404 0.0
H763 H 0.01625 0.62768 0.97567 0.0
H764 H 0.0653 0.61716 0.99561 0.0
C765 C 0.05476 0.51922 0.07664 0.0
C766 C 0.08915 0.54331 0.0874 0.0
C767 C 0.05857 0.51997 0.05769 0.0
C768 C 0.09679 0.54479 0.04911 0.0
C769 C 0.13098 0.5698 0.05969 0.0
C770 C 0.12726 0.56893 0.07869 0.0
C771 C 0.10077 0.54389 0.0291 0.0
C772 C 0.07515 0.552 0.01709 0.0
C773 C 0.12914 0.53464 0.02187 0.0
C774 C 0.15526 0.52332 0.03393 0.0
C775 C 0.19813 0.54568 0.03195 0.0
C776 C 0.2228 0.53557 0.04356 0.0
C777 C 0.20493 0.50305 0.05716 0.0
C778 C 0.16231 0.48034 0.05909 0.0
C779 C 0.1375 0.49023 0.04748 0.0
C780 C 0.11761 0.57658 0.93993 0.0
C781 C 0.11176 0.54105 0.93234 0.0
C782 C 0.11739 0.57788 0.95894 0.0
C783 C 0.11077 0.5435 0.9707 0.0
C784 C 0.10645 0.50854 0.96319 0.0
C785 C 0.10696 0.50732 0.94416 0.0
C786 C 0.10645 0.54331 0.99077 0.0
C787 C 0.13194 0.53496 0.00277 0.0
C788 C 0.07721 0.55128 0.99805 0.0
C789 C 0.04751 0.55754 0.98619 0.0
C790 C 0.02114 0.52747 0.97444 0.0
C791 C 0.99359 0.53378 0.96312 0.0
C792 C 0.99188 0.5699 0.96355 0.0
C793 C 0.01765 0.59974 0.97533 0.0
C794 C 0.04531 0.59361 0.98665 0.0
H795 H 0.97053 0.57474 0.95478 0.0
H796 H 0.22411 0.49543 0.06619 0.0
H797 H 0.66325 0.02942 0.42498 0.0
H798 H 0.65462 0.03336 0.39168 0.0
H799 H 0.54367 0.03731 0.39843 0.0
H800 H 0.55182 0.03313 0.43178 0.0
H801 H 0.53549 0.98442 0.37274 0.0
H802 H 0.62925 0.12378 0.38645 0.0
H803 H 0.69129 0.17912 0.4001 0.0
H804 H 0.76709 0.15395 0.36769 0.0
H805 H 0.70547 0.098 0.35405 0.0
H806 H 0.52059 0.05178 0.27955 0.0
H807 H 0.52477 0.04518 0.31313 0.0
H808 H 0.63994 0.04798 0.30906 0.0
H809 H 0.63593 0.0545 0.2756 0.0
H810 H 0.64467 0.09844 0.33365 0.0
H811 H 0.55198 0.95843 0.3205 0.0
H812 H 0.49048 0.90178 0.30719 0.0
H813 H 0.41333 0.92709 0.33859 0.0
H814 H 0.47442 0.9843 0.35189 0.0
C815 C 0.63693 0.03101 0.41942 0.0
C816 C 0.60833 0.03116 0.43106 0.0
C817 C 0.63214 0.03339 0.40038 0.0
C818 C 0.59873 0.03604 0.39262 0.0
C819 C 0.56969 0.03536 0.40417 0.0
C820 C 0.57452 0.03313 0.42322 0.0
C821 C 0.59438 0.03996 0.37244 0.0
C822 C 0.55906 0.00964 0.36418 0.0
C823 C 0.62557 0.07246 0.36132 0.0
C824 C 0.66271 0.10643 0.36936 0.0
C825 C 0.65914 0.12983 0.38233 0.0
C826 C 0.69423 0.16134 0.39006 0.0
C827 C 0.7331 0.16997 0.3848 0.0
C828 C 0.73696 0.14719 0.37177 0.0
C829 C 0.70196 0.1156 0.36402 0.0
C830 C 0.54656 0.05056 0.28584 0.0
C831 C 0.57802 0.05385 0.27496 0.0
C832 C 0.54894 0.04684 0.305 0.0
C833 C 0.58261 0.04592 0.31358 0.0
C834 C 0.61383 0.04887 0.30273 0.0
C835 C 0.61153 0.05269 0.28362 0.0
C836 C 0.58587 0.04269 0.33387 0.0
C837 C 0.62101 0.07324 0.34218 0.0
C838 C 0.55456 0.01033 0.34501 0.0
C839 C 0.51778 0.97594 0.33703 0.0
C840 C 0.5219 0.95215 0.32444 0.0
C841 C 0.48712 0.91989 0.31692 0.0
C842 C 0.44802 0.91092 0.322 0.0
C843 C 0.44363 0.93412 0.33464 0.0
C844 C 0.47833 0.96645 0.34219 0.0
H845 H 0.42113 0.88592 0.31617 0.0
H846 H 0.76022 0.19435 0.3908 0.0
H847 H 0.57846 0.51344 0.76717 0.0
H848 H 0.57826 0.50728 0.73423 0.0
H849 H 0.69615 0.61842 0.72893 0.0
H850 H 0.69657 0.62513 0.76192 0.0
H851 H 0.64293 0.61681 0.70199 0.0
H852 H 0.69011 0.52688 0.72856 0.0
H853 H 0.68732 0.4707 0.74975 0.0
H854 H 0.5732 0.38439 0.72588 0.0
H855 H 0.57497 0.44019 0.70472 0.0
H856 H 0.69046 0.59631 0.61283 0.0
H857 H 0.69278 0.60043 0.64605 0.0
H858 H 0.57474 0.48947 0.65149 0.0
H859 H 0.5721 0.48523 0.61816 0.0
H860 H 0.62851 0.4907 0.67843 0.0
H861 H 0.58098 0.58102 0.65225 0.0
H862 H 0.58364 0.6374 0.63126 0.0
H863 H 0.69874 0.72316 0.65462 0.0
H864 H 0.69706 0.66713 0.67558 0.0
C865 C 0.60435 0.53671 0.75903 0.0
C866 C 0.63762 0.56974 0.76722 0.0
C867 C 0.60424 0.53299 0.74021 0.0
C868 C 0.63742 0.5621 0.7292 0.0
C869 C 0.67031 0.59555 0.73722 0.0
C870 C 0.67051 0.59928 0.75608 0.0
C871 C 0.63764 0.55765 0.7093 0.0
C872 C 0.64039 0.58951 0.69683 0.0
C873 C 0.63337 0.52157 0.70262 0.0
C874 C 0.63248 0.48782 0.71516 0.0
C875 C 0.66426 0.49598 0.72791 0.0
C876 C 0.66289 0.46419 0.73991 0.0
C877 C 0.63005 0.42402 0.7392 0.0
C878 C 0.59859 0.41553 0.72643 0.0
C879 C 0.59978 0.44722 0.71442 0.0
C880 C 0.66493 0.57284 0.62109 0.0
C881 C 0.63088 0.54069 0.61286 0.0
C882 C 0.66636 0.57517 0.64007 0.0
C883 C 0.63366 0.54559 0.65118 0.0
C884 C 0.60026 0.51263 0.64313 0.0
C885 C 0.59883 0.51022 0.62411 0.0
C886 C 0.63386 0.54991 0.67113 0.0
C887 C 0.63114 0.51802 0.6836 0.0
C888 C 0.63818 0.58597 0.67784 0.0
C889 C 0.63907 0.6198 0.66537 0.0
C890 C 0.607 0.61185 0.65282 0.0
C891 C 0.60832 0.64375 0.64094 0.0
C892 C 0.64139 0.68382 0.64158 0.0
C893 C 0.67316 0.69209 0.65413 0.0
C894 C 0.67203 0.66028 0.66603 0.0
H895 H 0.64235 0.70848 0.63236 0.0
H896 H 0.62903 0.39947 0.74851 0.0
H897 H 0.58962 0.97316 0.57819 0.0
H898 H 0.58202 0.98034 0.61043 0.0
H899 H 0.66907 0.11044 0.60296 0.0
H900 H 0.67721 0.10363 0.57073 0.0
H901 H 0.6821 0.07459 0.63492 0.0
H902 H 0.56978 0.07963 0.60412 0.0
H903 H 0.50943 0.05567 0.58376 0.0
H904 H 0.44576 0.94344 0.61833 0.0
H905 H 0.50593 0.96639 0.63877 0.0
H906 H 0.63595 0.11712 0.72048 0.0
H907 H 0.63984 0.1195 0.68691 0.0
H908 H 0.56072 0.98762 0.68909 0.0
H909 H 0.5569 0.98512 0.72257 0.0
H910 H 0.54396 0.03031 0.65922 0.0
H911 H 0.65786 0.02258 0.68819 0.0
H912 H 0.71801 0.04548 0.70861 0.0
H913 H 0.77856 0.16265 0.67728 0.0
H914 H 0.71842 0.14062 0.65682 0.0
C915 C 0.60746 0.00326 0.58341 0.0
C916 C 0.63391 0.03784 0.57184 0.0
C917 C 0.60287 0.00734 0.60182 0.0
C918 C 0.62452 0.04604 0.60897 0.0
C919 C 0.65197 0.08035 0.59766 0.0
C920 C 0.65654 0.07634 0.57924 0.0
C921 C 0.61825 0.05065 0.62825 0.0
C922 C 0.65203 0.0656 0.64016 0.0
C923 C 0.57888 0.03835 0.6351 0.0
C924 C 0.54252 0.02459 0.6229 0.0
C925 C 0.54304 0.0497 0.60731 0.0
C926 C 0.50885 0.03633 0.59577 0.0
C927 C 0.47385 0.99805 0.59973 0.0
C928 C 0.47291 0.97308 0.61528 0.0
C929 C 0.50703 0.98626 0.62686 0.0
C930 C 0.6187 0.08885 0.7137 0.0
C931 C 0.59635 0.05091 0.72401 0.0
C932 C 0.62107 0.0902 0.6946 0.0
C933 C 0.60086 0.05367 0.68562 0.0
C934 C 0.57652 0.0161 0.69581 0.0
C935 C 0.57451 0.01469 0.71488 0.0
C936 C 0.60772 0.05392 0.66585 0.0
C937 C 0.57407 0.03979 0.65388 0.0
C938 C 0.64719 0.06696 0.65893 0.0
C939 C 0.68347 0.08015 0.67112 0.0
C940 C 0.68386 0.05336 0.68575 0.0
C941 C 0.71796 0.06615 0.69732 0.0
C942 C 0.75203 0.10554 0.69428 0.0
C943 C 0.75211 0.13217 0.67963 0.0
C944 C 0.71803 0.11955 0.66805 0.0
H945 H 0.77842 0.11539 0.70324 0.0
H946 H 0.44742 0.98776 0.59077 0.0
H947 H 0.61575 0.61563 0.90957 0.0
H948 H 0.60555 0.60723 0.94278 0.0
H949 H 0.64063 0.51398 0.94735 0.0
H950 H 0.65177 0.52277 0.91423 0.0
H951 H 0.55329 0.54354 0.9639 0.0
H952 H 0.68626 0.51441 0.988 0.0
H953 H 0.75685 0.5363 0.97871 0.0
H954 H 0.76893 0.64791 0.95164 0.0
H955 H 0.69865 0.62698 0.96098 0.0
H956 H 0.51693 0.43962 0.05291 0.0
H957 H 0.53044 0.4634 0.02035 0.0
H958 H 0.63737 0.57608 0.03485 0.0
H959 H 0.62437 0.55198 0.06737 0.0
H960 H 0.65658 0.54623 0.00911 0.0
H961 H 0.54859 0.57369 0.0178 0.0
H962 H 0.48042 0.5591 0.0274 0.0
H963 H 0.42298 0.46483 0.98965 0.0
H964 H 0.4908 0.47844 0.98 0.0
C965 C 0.62168 0.59358 0.91765 0.0
C966 C 0.63467 0.56991 0.90922 0.0
C967 C 0.61568 0.58874 0.93663 0.0
C968 C 0.62257 0.5602 0.94757 0.0
C969 C 0.63577 0.5367 0.93922 0.0
C970 C 0.64202 0.54169 0.92026 0.0
C971 C 0.61472 0.55398 0.96763 0.0
C972 C 0.57591 0.54427 0.9738 0.0
C973 C 0.64453 0.55584 0.98058 0.0
C974 C 0.68703 0.56891 0.97506 0.0
C975 C 0.70404 0.5437 0.98013 0.0
C976 C 0.74399 0.55593 0.97484 0.0
C977 C 0.76731 0.59341 0.96454 0.0
C978 C 0.75078 0.61881 0.95956 0.0
C979 C 0.71086 0.60675 0.96483 0.0
C980 C 0.54289 0.46974 0.04912 0.0
C981 C 0.5697 0.49391 0.06261 0.0
C982 C 0.55059 0.48334 0.03053 0.0
C983 C 0.58482 0.52166 0.02513 0.0
C984 C 0.6109 0.54634 0.03866 0.0
C985 C 0.60345 0.53257 0.05722 0.0
C986 C 0.59482 0.53491 0.00539 0.0
C987 C 0.63402 0.5458 0.99925 0.0
C988 C 0.5657 0.53517 0.99254 0.0
C989 C 0.52481 0.52687 0.99829 0.0
C990 C 0.52142 0.54962 0.01164 0.0
C991 C 0.48283 0.54157 0.01708 0.0
C992 C 0.44739 0.51099 0.00917 0.0
C993 C 0.45046 0.48847 0.99578 0.0
C994 C 0.48897 0.49638 0.9903 0.0
H995 H 0.41754 0.50481 0.01339 0.0
H996 H 0.79822 0.6028 0.96045 0.0
H997 H 0.07896 0.57423 0.23167 0.0
H998 H 0.08902 0.57527 0.26486 0.0
H999 H 0.09944 0.46617 0.26614 0.0
H1000 H 0.08905 0.46458 0.23288 0.0
H1001 H 0.05025 0.46209 0.29362 0.0
H1002 H 0.18402 0.55868 0.269 0.0
H1003 H 0.23382 0.61889 0.24947 0.0
H1004 H 0.20567 0.69761 0.27706 0.0
H1005 H 0.15524 0.63774 0.29658 0.0
H1006 H 0.12783 0.46792 0.38327 0.0
H1007 H 0.12336 0.46995 0.34976 0.0
H1008 H 0.11566 0.58064 0.34834 0.0
H1009 H 0.12017 0.5788 0.38192 0.0
H1010 H 0.16401 0.58442 0.32087 0.0
H1011 H 0.03004 0.48931 0.34498 0.0
H1012 H 0.979 0.4298 0.36441 0.0
H1013 H 0.0058 0.34914 0.33764 0.0
H1014 H 0.05751 0.4083 0.31823 0.0
C1015 C 0.08328 0.55033 0.23897 0.0
C1016 C 0.08334 0.51938 0.22958 0.0
C1017 C 0.08922 0.55112 0.25795 0.0
C1018 C 0.0955 0.52112 0.26791 0.0
C1019 C 0.09479 0.4897 0.25867 0.0
C1020 C 0.08892 0.4889 0.23967 0.0
C1021 C 0.10267 0.52247 0.28799 0.0
C1022 C 0.07548 0.48856 0.29957 0.0
C1023 C 0.13494 0.55753 0.29573 0.0
C1024 C 0.16557 0.59365 0.28414 0.0
C1025 C 0.18823 0.58878 0.27081 0.0
C1026 C 0.2166 0.62285 0.25976 0.0
C1027 C 0.22283 0.66203 0.26199 0.0
C1028 C 0.20078 0.66723 0.27533 0.0
C1029 C 0.17233 0.63324 0.2864 0.0
C1030 C 0.12534 0.49278 0.3758 0.0
C1031 C 0.12393 0.52297 0.38521 0.0
C1032 C 0.12281 0.49391 0.35668 0.0
C1033 C 0.11845 0.52504 0.34661 0.0
C1034 C 0.11891 0.5563 0.35588 0.0
C1035 C 0.12159 0.55527 0.37504 0.0
C1036 C 0.11171 0.52392 0.32649 0.0
C1037 C 0.13888 0.55789 0.31491 0.0
C1038 C 0.07925 0.48901 0.31873 0.0
C1039 C 0.04794 0.4533 0.33028 0.0
C1040 C 0.02528 0.45892 0.34333 0.0
C1041 C 0.9962 0.42525 0.35433 0.0
C1042 C 0.98924 0.38572 0.35229 0.0
C1043 C 0.01127 0.37978 0.33922 0.0
C1044 C 0.04045 0.41337 0.3282 0.0
H1045 H 0.9667 0.35969 0.36082 0.0
H1046 H 0.24479 0.68837 0.25341 0.0
loop_
_geom_bond_atom_site_label_1
_geom_bond_atom_site_label_2
_geom_bond_distance
_geom_bond_site_symmetry_2
_ccdc_geom_bond_type
O0 Zn1 1.953 . S
O0 C16 1.225 . S
Zn1 O0 1.953 . S
Zn1 O2 1.949 . S
Zn1 O8 1.919 1_455 S
Zn1 O13 1.924 . S
O2 Zn1 1.949 . S
O2 Zn3 1.923 . S
O2 Zn4 1.950 . S
O2 Zn5 1.945 . S
Zn3 O2 1.923 . S
Zn3 O6 1.933 . S
Zn3 O9 1.941 1_455 S
Zn3 O10 1.965 1_455 S
Zn4 O2 1.950 . S
Zn4 O11 1.938 . S
Zn4 O12 1.906 . S
Zn4 O22 1.953 . S
Zn5 O2 1.945 . S
Zn5 O7 1.932 . S
Zn5 O14 1.977 . S
Zn5 O15 1.910 . S
O6 Zn3 1.933 . S
O6 C17 1.226 . S
O7 Zn5 1.932 . S
O7 C17 1.307 . S
O8 Zn1 1.919 1_655 S
O8 C19 1.253 . S
O9 Zn3 1.941 1_655 S
O9 C19 1.283 . S
O10 Zn3 1.965 1_655 S
O10 C18 1.303 . S
O11 Zn4 1.938 . S
O11 C18 1.247 1_455 S
O12 Zn4 1.906 . S
O12 C20 1.304 . S
O13 Zn1 1.924 . S
O13 C21 1.311 . S
O14 Zn5 1.977 . S
O14 C20 1.272 . S
O15 Zn5 1.910 . S
O15 C21 1.231 . S
C16 O0 1.225 . S
C16 O22 1.298 . S
C17 O6 1.226 . S
C17 O7 1.307 . S
C18 O10 1.303 . S
C18 O11 1.247 1_655 S
C19 O8 1.253 . S
C19 O9 1.283 . S
C20 O12 1.304 . S
C20 O14 1.272 . S
C21 O13 1.311 . S
C21 O15 1.231 . S
O22 Zn4 1.953 . S
O22 C16 1.298 . S
O23 Zn24 1.953 . S
O23 C39 1.225 . S
Zn24 O23 1.953 . S
Zn24 O25 1.949 . S
Zn24 O31 1.919 . S
Zn24 O36 1.924 1_545 S
O25 Zn24 1.949 . S
O25 Zn26 1.923 . S
O25 Zn27 1.950 . S
O25 Zn28 1.945 1_545 S
Zn26 O25 1.923 . S
Zn26 O29 1.933 . S
Zn26 O32 1.941 . S
Zn26 O33 1.965 . S
Zn27 O25 1.950 . S
Zn27 O34 1.938 . S
Zn27 O35 1.906 1_545 S
Zn27 O45 1.953 . S
Zn28 O25 1.945 1_565 S
Zn28 O30 1.932 . S
Zn28 O37 1.977 . S
Zn28 O38 1.910 . S
O29 Zn26 1.933 . S
O29 C40 1.226 . S
O30 Zn28 1.932 . S
O30 C40 1.307 1_565 S
O31 Zn24 1.919 . S
O31 C42 1.253 . S
O32 Zn26 1.941 . S
O32 C42 1.283 . S
O33 Zn26 1.965 . S
O33 C41 1.303 . S
O34 Zn27 1.938 . S
O34 C41 1.247 . S
O35 Zn27 1.906 1_565 S
O35 C43 1.304 . S
O36 Zn24 1.924 1_565 S
O36 C44 1.311 . S
O37 Zn28 1.977 . S
O37 C43 1.272 . S
O38 Zn28 1.910 . S
O38 C44 1.231 . S
C39 O23 1.225 . S
C39 O45 1.298 . S
C40 O29 1.226 . S
C40 O30 1.307 1_545 S
C41 O33 1.303 . S
C41 O34 1.247 . S
C42 O31 1.253 . S
C42 O32 1.283 . S
C43 O35 1.304 . S
C43 O37 1.272 . S
C44 O36 1.311 . S
C44 O38 1.231 . S
O45 Zn27 1.953 . S
O45 C39 1.298 . S
O46 Zn47 1.953 . S
O46 C62 1.225 . S
Zn47 O46 1.953 . S
Zn47 O48 1.949 . S
Zn47 O54 1.919 . S
Zn47 O59 1.924 . S
O48 Zn47 1.949 . S
O48 Zn49 1.923 . S
O48 Zn50 1.950 . S
O48 Zn51 1.945 . S
Zn49 O48 1.923 . S
Zn49 O52 1.933 . S
Zn49 O55 1.941 . S
Zn49 O56 1.965 . S
Zn50 O48 1.950 . S
Zn50 O57 1.938 . S
Zn50 O58 1.906 . S
Zn50 O68 1.953 . S
Zn51 O48 1.945 . S
Zn51 O53 1.932 . S
Zn51 O60 1.977 . S
Zn51 O61 1.910 . S
O52 Zn49 1.933 . S
O52 C63 1.226 . S
O53 Zn51 1.932 . S
O53 C63 1.307 . S
O54 Zn47 1.919 . S
O54 C65 1.253 . S
O55 Zn49 1.941 . S
O55 C65 1.283 . S
O56 Zn49 1.965 . S
O56 C64 1.303 . S
O57 Zn50 1.938 . S
O57 C64 1.247 . S
O58 Zn50 1.906 . S
O58 C66 1.304 . S
O59 Zn47 1.924 . S
O59 C67 1.311 . S
O60 Zn51 1.977 . S
O60 C66 1.272 . S
O61 Zn51 1.910 . S
O61 C67 1.231 . S
C62 O46 1.225 . S
C62 O68 1.298 . S
C63 O52 1.226 . S
C63 O53 1.307 . S
C64 O56 1.303 . S
C64 O57 1.247 . S
C65 O54 1.253 . S
C65 O55 1.283 . S
C66 O58 1.304 . S
C66 O60 1.272 . S
C67 O59 1.311 . S
C67 O61 1.231 . S
O68 Zn50 1.953 . S
O68 C62 1.298 . S
H69 C76 0.929 . S
H70 C79 0.930 1_565 S
H71 C81 0.929 . S
H72 C73 0.969 . S
C73 H72 0.969 . S
C73 O74 1.550 . S
C73 H75 0.973 . S
O74 C73 1.550 . S
O74 C80 1.412 1_565 S
H75 C73 0.973 . S
C76 H69 0.929 . S
C76 C77 1.400 . S
C76 C78 1.364 . S
C77 C76 1.400 . S
C77 C81 1.377 . S
C78 C76 1.364 . S
C78 C79 1.374 . S
C79 H70 0.930 1_545 S
C79 C78 1.374 . S
C79 C80 1.383 . S
C80 O74 1.412 1_545 S
C80 C79 1.383 . S
C80 C81 1.394 . S
C81 H71 0.929 . S
C81 C77 1.377 . S
C81 C80 1.394 . S
H82 C89 0.929 . S
H83 C92 0.930 . S
H84 C94 0.929 . S
H85 C86 0.969 . S
C86 H85 0.969 . S
C86 O87 1.550 . S
C86 H88 0.973 . S
O87 C86 1.550 . S
O87 C93 1.412 . S
H88 C86 0.973 . S
C89 H82 0.929 . S
C89 C90 1.400 . S
C89 C91 1.364 . S
C90 C89 1.400 . S
C90 C94 1.377 . S
C91 C89 1.364 . S
C91 C92 1.374 . S
C92 H83 0.930 . S
C92 C91 1.374 . S
C92 C93 1.383 . S
C93 O87 1.412 . S
C93 C92 1.383 . S
C93 C94 1.394 . S
C94 H84 0.929 . S
C94 C90 1.377 . S
C94 C93 1.394 . S
H95 C102 0.929 . S
H96 C105 0.930 . S
H97 C107 0.929 . S
H98 C99 0.969 . S
C99 H98 0.969 . S
C99 O100 1.550 . S
C99 H101 0.973 . S
O100 C99 1.550 . S
O100 C106 1.412 . S
H101 C99 0.973 . S
C102 H95 0.929 . S
C102 C103 1.400 . S
C102 C104 1.364 . S
C103 C102 1.400 . S
C103 C107 1.377 . S
C104 C102 1.364 . S
C104 C105 1.374 . S
C105 H96 0.930 . S
C105 C104 1.374 . S
C105 C106 1.383 . S
C106 O100 1.412 . S
C106 C105 1.383 . S
C106 C107 1.394 . S
C107 H97 0.929 . S
C107 C103 1.377 . S
C107 C106 1.394 . S
H108 C115 0.929 . S
H109 C118 0.930 . S
H110 C120 0.929 . S
H111 C112 0.969 . S
C112 H111 0.969 . S
C112 O113 1.550 . S
C112 H114 0.973 . S
O113 C112 1.550 . S
O113 C119 1.412 . S
H114 C112 0.973 . S
C115 H108 0.929 . S
C115 C116 1.400 . S
C115 C117 1.364 . S
C116 C115 1.400 . S
C116 C120 1.377 . S
C117 C115 1.364 . S
C117 C118 1.374 . S
C118 H109 0.930 . S
C118 C117 1.374 . S
C118 C119 1.383 . S
C119 O113 1.412 . S
C119 C118 1.383 . S
C119 C120 1.394 . S
C120 H110 0.929 . S
C120 C116 1.377 . S
C120 C119 1.394 . S
H121 C128 0.929 1_565 S
H122 C131 0.930 . S
H123 C133 0.929 . S
H124 C125 0.969 . S
C125 H124 0.969 . S
C125 O126 1.550 . S
C125 H127 0.973 . S
O126 C125 1.550 . S
O126 C132 1.412 . S
H127 C125 0.973 . S
C128 H121 0.929 1_545 S
C128 C129 1.400 1_545 S
C128 C130 1.364 . S
C129 C128 1.400 1_565 S
C129 C133 1.377 1_565 S
C130 C128 1.364 . S
C130 C131 1.374 . S
C131 H122 0.930 . S
C131 C130 1.374 . S
C131 C132 1.383 . S
C132 O126 1.412 . S
C132 C131 1.383 . S
C132 C133 1.394 . S
C133 H123 0.929 . S
C133 C129 1.377 1_545 S
C133 C132 1.394 . S
H134 C141 0.929 . S
H135 C144 0.930 . S
H136 C146 0.929 . S
H137 C138 0.969 . S
C138 H137 0.969 . S
C138 O139 1.550 . S
C138 H140 0.973 . S
O139 C138 1.550 . S
O139 C145 1.412 . S
H140 C138 0.973 . S
C141 H134 0.929 . S
C141 C142 1.400 . S
C141 C143 1.364 . S
C142 C141 1.400 . S
C142 C146 1.377 . S
C143 C141 1.364 . S
C143 C144 1.374 . S
C144 H135 0.930 . S
C144 C143 1.374 . S
C144 C145 1.383 . S
C145 O139 1.412 . S
C145 C144 1.383 . S
C145 C146 1.394 . S
C146 H136 0.929 . S
C146 C142 1.377 . S
C146 C145 1.394 . S
H147 C165 0.951 . S
H148 C167 0.951 . S
H149 C169 0.950 . S
H150 C170 0.950 . S
H151 C172 0.950 . S
H152 C175 0.950 . S
H153 C176 0.950 . S
H154 C178 0.950 . S
H155 C179 0.950 . S
H156 C180 0.951 . S
H157 C182 0.951 . S
H158 C184 0.950 . S
H159 C185 0.950 . S
H160 C187 0.950 . S
H161 C190 0.950 . S
H162 C191 0.950 . S
H163 C193 0.950 . S
H164 C194 0.950 . S
C165 H147 0.951 . S
C165 C166 1.366 . S
C165 C167 1.388 . S
C166 C165 1.366 . S
C166 C170 1.385 . S
C167 H148 0.951 . S
C167 C165 1.388 . S
C167 C168 1.366 . S
C168 C167 1.366 . S
C168 C169 1.414 . S
C168 C171 1.499 . S
C169 H149 0.950 . S
C169 C168 1.414 . S
C169 C170 1.374 . S
C170 H150 0.950 . S
C170 C166 1.385 . S
C170 C169 1.374 . S
C171 C168 1.499 . S
C171 C172 1.373 . S
C171 C173 1.389 . S
C172 H151 0.950 . S
C172 C171 1.373 . S
C172 C188 1.377 . S
C173 C171 1.389 . S
C173 C174 1.524 . S
C173 C187 1.377 . S
C174 C173 1.524 . S
C174 C175 1.397 . S
C174 C179 1.363 . S
C175 H152 0.950 . S
C175 C174 1.397 . S
C175 C176 1.334 . S
C176 H153 0.950 . S
C176 C175 1.334 . S
C176 C177 1.287 . S
C177 C176 1.287 . S
C177 C178 1.524 . S
C177 H196 0.913 . S
C178 H154 0.950 . S
C178 C177 1.524 . S
C178 C179 1.415 . S
C179 H155 0.950 . S
C179 C174 1.363 . S
C179 C178 1.415 . S
C180 H156 0.951 . S
C180 C181 1.366 . S
C180 C182 1.388 . S
C181 C180 1.366 . S
C181 C185 1.385 . S
C182 H157 0.951 . S
C182 C180 1.388 . S
C182 C183 1.366 . S
C183 C182 1.366 . S
C183 C184 1.414 . S
C183 C186 1.499 . S
C184 H158 0.950 . S
C184 C183 1.414 . S
C184 C185 1.374 . S
C185 H159 0.950 . S
C185 C181 1.385 . S
C185 C184 1.374 . S
C186 C183 1.499 . S
C186 C187 1.373 . S
C186 C188 1.389 . S
C187 H160 0.950 . S
C187 C173 1.377 . S
C187 C186 1.373 . S
C188 C172 1.377 . S
C188 C186 1.389 . S
C188 C189 1.524 . S
C189 C188 1.524 . S
C189 C190 1.397 . S
C189 C194 1.363 . S
C190 H161 0.950 . S
C190 C189 1.397 . S
C190 C191 1.334 . S
C191 H162 0.950 . S
C191 C190 1.334 . S
C191 C192 1.287 . S
C192 C191 1.287 . S
C192 C193 1.524 . S
C192 H195 0.999 . S
C193 H163 0.950 . S
C193 C192 1.524 . S
C193 C194 1.415 . S
C194 H164 0.950 . S
C194 C189 1.363 . S
C194 C193 1.415 . S
H195 C192 0.999 . S
H196 C177 0.913 . S
H197 C215 0.951 . S
H198 C217 0.951 . S
H199 C219 0.950 . S
H200 C220 0.950 . S
H201 C222 0.950 . S
H202 C225 0.950 . S
H203 C226 0.950 . S
H204 C228 0.950 . S
H205 C229 0.950 . S
H206 C230 0.951 . S
H207 C232 0.951 . S
H208 C234 0.950 . S
H209 C235 0.950 . S
H210 C237 0.950 . S
H211 C240 0.942 1_655 S
H212 C241 0.950 . S
H213 C243 0.950 . S
H214 C244 0.950 . S
C215 H197 0.951 . S
C215 C216 1.366 . S
C215 C217 1.388 . S
C216 C215 1.366 . S
C216 C220 1.385 . S
C217 H198 0.951 . S
C217 C215 1.388 . S
C217 C218 1.366 . S
C218 C217 1.366 . S
C218 C219 1.414 . S
C218 C221 1.499 . S
C219 H199 0.950 . S
C219 C218 1.414 . S
C219 C220 1.374 . S
C220 H200 0.950 . S
C220 C216 1.385 . S
C220 C219 1.374 . S
C221 C218 1.499 . S
C221 C222 1.373 . S
C221 C223 1.389 . S
C222 H201 0.950 . S
C222 C221 1.373 . S
C222 C238 1.377 . S
C223 C221 1.389 . S
C223 C224 1.524 . S
C223 C237 1.377 . S
C224 C223 1.524 . S
C224 C225 1.397 . S
C224 C229 1.363 . S
C225 H202 0.950 . S
C225 C224 1.397 . S
C225 C226 1.334 . S
C226 H203 0.950 . S
C226 C225 1.334 . S
C226 C227 1.287 . S
C227 C226 1.287 . S
C227 C228 1.524 . S
C227 H246 0.913 . S
C228 H204 0.950 . S
C228 C227 1.524 . S
C228 C229 1.415 . S
C229 H205 0.950 . S
C229 C224 1.363 . S
C229 C228 1.415 . S
C230 H206 0.951 . S
C230 C231 1.366 . S
C230 C232 1.388 . S
C231 C230 1.366 . S
C231 C235 1.385 1_455 S
C232 H207 0.951 . S
C232 C230 1.388 . S
C232 C233 1.366 1_455 S
C233 C232 1.366 1_655 S
C233 C234 1.414 . S
C233 C236 1.499 . S
C234 H208 0.950 . S
C234 C233 1.414 . S
C234 C235 1.374 . S
C235 H209 0.950 . S
C235 C231 1.385 1_655 S
C235 C234 1.374 . S
C236 C233 1.499 . S
C236 C237 1.373 . S
C236 C238 1.389 . S
C237 H210 0.950 . S
C237 C223 1.377 . S
C237 C236 1.373 . S
C238 C222 1.377 . S
C238 C236 1.389 . S
C238 C239 1.524 . S
C239 C238 1.524 . S
C239 C240 1.397 1_655 S
C239 C244 1.363 . S
C240 H211 0.942 1_455 S
C240 C239 1.397 1_455 S
C240 C241 1.342 . S
C241 H212 0.950 . S
C241 C240 1.342 . S
C241 C242 1.287 . S
C242 C241 1.287 . S
C242 C243 1.524 . S
C242 H245 0.999 . S
C243 H213 0.950 . S
C243 C242 1.524 . S
C243 C244 1.415 1_455 S
C244 H214 0.950 . S
C244 C239 1.363 . S
C244 C243 1.415 1_655 S
H245 C242 0.999 . S
H246 C227 0.913 . S
H247 C265 0.951 . S
H248 C267 0.951 . S
H249 C269 0.950 . S
H250 C270 0.950 . S
H251 C272 0.950 . S
H252 C275 0.950 . S
H253 C276 0.950 . S
H254 C278 0.950 . S
H255 C279 0.950 . S
H256 C280 0.951 . S
H257 C282 0.951 . S
H258 C284 0.950 . S
H259 C285 0.950 1_545 S
H260 C287 0.950 . S
H261 C290 0.950 . S
H262 C291 0.950 . S
H263 C293 0.950 . S
H264 C294 0.950 . S
C265 H247 0.951 . S
C265 C266 1.366 . S
C265 C267 1.388 . S
C266 C265 1.366 . S
C266 C270 1.385 . S
C267 H248 0.951 . S
C267 C265 1.388 . S
C267 C268 1.366 . S
C268 C267 1.366 . S
C268 C269 1.414 . S
C268 C271 1.499 . S
C269 H249 0.950 . S
C269 C268 1.414 . S
C269 C270 1.374 . S
C270 H250 0.950 . S
C270 C266 1.385 . S
C270 C269 1.374 . S
C271 C268 1.499 . S
C271 C272 1.373 . S
C271 C273 1.389 . S
C272 H251 0.950 . S
C272 C271 1.373 . S
C272 C288 1.377 . S
C273 C271 1.389 . S
C273 C274 1.524 . S
C273 C287 1.377 . S
C274 C273 1.524 . S
C274 C275 1.397 . S
C274 C279 1.363 . S
C275 H252 0.950 . S
C275 C274 1.397 . S
C275 C276 1.334 . S
C276 H253 0.950 . S
C276 C275 1.334 . S
C276 C277 1.287 . S
C277 C276 1.287 . S
C277 C278 1.524 . S
C277 H296 0.913 . S
C278 H254 0.950 . S
C278 C277 1.524 . S
C278 C279 1.415 . S
C279 H255 0.950 . S
C279 C274 1.363 . S
C279 C278 1.415 . S
C280 H256 0.951 . S
C280 C281 1.366 . S
C280 C282 1.388 . S
C281 C280 1.366 . S
C281 C285 1.385 . S
C282 H257 0.951 . S
C282 C280 1.388 . S
C282 C283 1.366 . S
C283 C282 1.366 . S
C283 C284 1.414 . S
C283 C286 1.499 . S
C284 H258 0.950 . S
C284 C283 1.414 . S
C284 C285 1.374 . S
C285 H259 0.950 1_565 S
C285 C281 1.385 . S
C285 C284 1.374 . S
C286 C283 1.499 . S
C286 C287 1.373 . S
C286 C288 1.389 . S
C287 H260 0.950 . S
C287 C273 1.377 . S
C287 C286 1.373 . S
C288 C272 1.377 . S
C288 C286 1.389 . S
C288 C289 1.524 . S
C289 C288 1.524 . S
C289 C290 1.397 . S
C289 C294 1.363 . S
C290 H261 0.950 . S
C290 C289 1.397 . S
C290 C291 1.334 . S
C291 H262 0.950 . S
C291 C290 1.334 . S
C291 C292 1.287 . S
C292 C291 1.287 . S
C292 C293 1.524 . S
C292 H295 0.999 . S
C293 H263 0.950 . S
C293 C292 1.524 . S
C293 C294 1.415 . S
C294 H264 0.950 . S
C294 C289 1.363 . S
C294 C293 1.415 . S
H295 C292 0.999 . S
H296 C277 0.913 . S
H297 C315 0.951 . S
H298 C317 0.951 . S
H299 C319 0.950 . S
H300 C320 0.950 . S
H301 C322 0.950 . S
H302 C325 0.950 . S
H303 C326 0.950 . S
H304 C328 0.950 . S
H305 C329 0.950 . S
H306 C330 0.951 . S
H307 C332 0.951 . S
H308 C334 0.950 . S
H309 C335 0.950 . S
H310 C337 0.950 . S
H311 C340 0.950 . S
H312 C341 0.950 . S
H313 C343 0.950 . S
H314 C344 0.950 . S
C315 H297 0.951 . S
C315 C316 1.366 . S
C315 C317 1.388 . S
C316 C315 1.366 . S
C316 C320 1.385 . S
C317 H298 0.951 . S
C317 C315 1.388 . S
C317 C318 1.366 . S
C318 C317 1.366 . S
C318 C319 1.414 . S
C318 C321 1.499 . S
C319 H299 0.950 . S
C319 C318 1.414 . S
C319 C320 1.374 . S
C320 H300 0.950 . S
C320 C316 1.385 . S
C320 C319 1.374 . S
C321 C318 1.499 . S
C321 C322 1.373 . S
C321 C323 1.389 . S
C322 H301 0.950 . S
C322 C321 1.373 . S
C322 C338 1.377 . S
C323 C321 1.389 . S
C323 C324 1.524 . S
C323 C337 1.377 . S
C324 C323 1.524 . S
C324 C325 1.397 . S
C324 C329 1.363 . S
C325 H302 0.950 . S
C325 C324 1.397 . S
C325 C326 1.334 . S
C326 H303 0.950 . S
C326 C325 1.334 . S
C326 C327 1.287 . S
C327 C326 1.287 . S
C327 C328 1.524 . S
C327 H346 0.913 . S
C328 H304 0.950 . S
C328 C327 1.524 . S
C328 C329 1.415 . S
C329 H305 0.950 . S
C329 C324 1.363 . S
C329 C328 1.415 . S
C330 H306 0.951 . S
C330 C331 1.366 . S
C330 C332 1.388 . S
C331 C330 1.366 . S
C331 C335 1.385 . S
C332 H307 0.951 . S
C332 C330 1.388 . S
C332 C333 1.366 . S
C333 C332 1.366 . S
C333 C334 1.414 . S
C333 C336 1.499 . S
C334 H308 0.950 . S
C334 C333 1.414 . S
C334 C335 1.374 . S
C335 H309 0.950 . S
C335 C331 1.385 . S
C335 C334 1.374 . S
C336 C333 1.499 . S
C336 C337 1.373 . S
C336 C338 1.389 . S
C337 H310 0.950 . S
C337 C323 1.377 . S
C337 C336 1.373 . S
C338 C322 1.377 . S
C338 C336 1.389 . S
C338 C339 1.524 . S
C339 C338 1.524 . S
C339 C340 1.397 . S
C339 C344 1.363 . S
C340 H311 0.950 . S
C340 C339 1.397 . S
C340 C341 1.334 . S
C341 H312 0.950 . S
C341 C340 1.334 . S
C341 C342 1.287 . S
C342 C341 1.287 . S
C342 C343 1.524 . S
C342 H345 0.999 . S
C343 H313 0.950 . S
C343 C342 1.524 . S
C343 C344 1.415 . S
C344 H314 0.950 . S
C344 C339 1.363 . S
C344 C343 1.415 . S
H345 C342 0.999 . S
H346 C327 0.913 . S
H347 C365 0.951 . S
H348 C367 0.951 . S
H349 C369 0.950 . S
H350 C370 0.950 . S
H351 C372 0.950 . S
H352 C375 0.950 . S
H353 C376 0.950 . S
H354 C378 0.950 . S
H355 C379 0.950 . S
H356 C380 0.951 . S
H357 C382 0.951 . S
H358 C384 0.950 . S
H359 C385 0.950 . S
H360 C387 0.950 . S
H361 C390 0.950 . S
H362 C391 0.950 . S
H363 C393 0.950 . S
H364 C394 0.950 . S
C365 H347 0.951 . S
C365 C366 1.366 . S
C365 C367 1.388 . S
C366 C365 1.366 . S
C366 C370 1.385 . S
C367 H348 0.951 . S
C367 C365 1.388 . S
C367 C368 1.366 . S
C368 C367 1.366 . S
C368 C369 1.414 . S
C368 C371 1.499 . S
C369 H349 0.950 . S
C369 C368 1.414 . S
C369 C370 1.374 . S
C370 H350 0.950 . S
C370 C366 1.385 . S
C370 C369 1.374 . S
C371 C368 1.499 . S
C371 C372 1.373 . S
C371 C373 1.389 . S
C372 H351 0.950 . S
C372 C371 1.373 . S
C372 C388 1.377 . S
C373 C371 1.389 . S
C373 C374 1.524 . S
C373 C387 1.377 . S
C374 C373 1.524 . S
C374 C375 1.397 . S
C374 C379 1.363 . S
C375 H352 0.950 . S
C375 C374 1.397 . S
C375 C376 1.334 . S
C376 H353 0.950 . S
C376 C375 1.334 . S
C376 C377 1.287 . S
C377 C376 1.287 . S
C377 C378 1.524 . S
C377 H396 0.913 . S
C378 H354 0.950 . S
C378 C377 1.524 . S
C378 C379 1.415 . S
C379 H355 0.950 . S
C379 C374 1.363 . S
C379 C378 1.415 . S
C380 H356 0.951 . S
C380 C381 1.366 . S
C380 C382 1.388 . S
C381 C380 1.366 . S
C381 C385 1.385 . S
C382 H357 0.951 . S
C382 C380 1.388 . S
C382 C383 1.366 . S
C383 C382 1.366 . S
C383 C384 1.414 . S
C383 C386 1.499 . S
C384 H358 0.950 . S
C384 C383 1.414 . S
C384 C385 1.374 . S
C385 H359 0.950 . S
C385 C381 1.385 . S
C385 C384 1.374 . S
C386 C383 1.499 . S
C386 C387 1.373 . S
C386 C388 1.389 . S
C387 H360 0.950 . S
C387 C373 1.377 . S
C387 C386 1.373 . S
C388 C372 1.377 . S
C388 C386 1.389 . S
C388 C389 1.524 . S
C389 C388 1.524 . S
C389 C390 1.397 . S
C389 C394 1.363 . S
C390 H361 0.950 . S
C390 C389 1.397 . S
C390 C391 1.334 . S
C391 H362 0.950 . S
C391 C390 1.334 . S
C391 C392 1.287 . S
C392 C391 1.287 . S
C392 C393 1.524 . S
C392 H395 0.999 . S
C393 H363 0.950 . S
C393 C392 1.524 . S
C393 C394 1.415 . S
C394 H364 0.950 . S
C394 C389 1.363 . S
C394 C393 1.415 . S
H395 C392 0.999 . S
H396 C377 0.913 . S
H397 C415 0.951 . S
H398 C417 0.951 . S
H399 C419 0.950 . S
H400 C420 0.950 . S
H401 C422 0.950 . S
H402 C425 0.950 . S
H403 C426 0.950 . S
H404 C428 0.950 . S
H405 C429 0.950 . S
H406 C430 0.951 . S
H407 C432 0.951 . S
H408 C434 0.950 . S
H409 C435 0.950 . S
H410 C437 0.950 . S
H411 C440 0.950 . S
H412 C441 0.950 . S
H413 C443 0.950 . S
H414 C444 0.950 . S
C415 H397 0.951 . S
C415 C416 1.366 . S
C415 C417 1.388 . S
C416 C415 1.366 . S
C416 C420 1.385 . S
C417 H398 0.951 . S
C417 C415 1.388 . S
C417 C418 1.366 . S
C418 C417 1.366 . S
C418 C419 1.414 . S
C418 C421 1.499 . S
C419 H399 0.950 . S
C419 C418 1.414 . S
C419 C420 1.374 . S
C420 H400 0.950 . S
C420 C416 1.385 . S
C420 C419 1.374 . S
C421 C418 1.499 . S
C421 C422 1.373 . S
C421 C423 1.389 . S
C422 H401 0.950 . S
C422 C421 1.373 . S
C422 C438 1.377 . S
C423 C421 1.389 . S
C423 C424 1.524 . S
C423 C437 1.377 . S
C424 C423 1.524 . S
C424 C425 1.397 . S
C424 C429 1.363 . S
C425 H402 0.950 . S
C425 C424 1.397 . S
C425 C426 1.334 . S
C426 H403 0.950 . S
C426 C425 1.334 . S
C426 C427 1.287 . S
C427 C426 1.287 . S
C427 C428 1.524 . S
C427 H446 0.913 . S
C428 H404 0.950 . S
C428 C427 1.524 . S
C428 C429 1.415 . S
C429 H405 0.950 . S
C429 C424 1.363 . S
C429 C428 1.415 . S
C430 H406 0.951 . S
C430 C431 1.366 . S
C430 C432 1.388 . S
C431 C430 1.366 . S
C431 C435 1.385 . S
C432 H407 0.951 . S
C432 C430 1.388 . S
C432 C433 1.366 . S
C433 C432 1.366 . S
C433 C434 1.414 . S
C433 C436 1.499 . S
C434 H408 0.950 . S
C434 C433 1.414 . S
C434 C435 1.374 . S
C435 H409 0.950 . S
C435 C431 1.385 . S
C435 C434 1.374 . S
C436 C433 1.499 . S
C436 C437 1.373 . S
C436 C438 1.389 . S
C437 H410 0.950 . S
C437 C423 1.377 . S
C437 C436 1.373 . S
C438 C422 1.377 . S
C438 C436 1.389 . S
C438 C439 1.524 . S
C439 C438 1.524 . S
C439 C440 1.397 . S
C439 C444 1.363 . S
C440 H411 0.950 . S
C440 C439 1.397 . S
C440 C441 1.334 . S
C441 H412 0.950 . S
C441 C440 1.334 . S
C441 C442 1.287 . S
C442 C441 1.287 . S
C442 C443 1.524 . S
C442 H445 0.999 . S
C443 H413 0.950 . S
C443 C442 1.524 . S
C443 C444 1.415 . S
C444 H414 0.950 . S
C444 C439 1.363 . S
C444 C443 1.415 . S
H445 C442 0.999 . S
H446 C427 0.913 . S
H447 C465 0.951 . S
H448 C467 0.951 . S
H449 C469 0.950 . S
H450 C470 0.950 . S
H451 C472 0.950 . S
H452 C475 0.950 . S
H453 C476 0.950 . S
H454 C478 0.950 . S
H455 C479 0.950 . S
H456 C480 0.951 . S
H457 C482 0.951 . S
H458 C484 0.950 . S
H459 C485 0.950 . S
H460 C487 0.950 . S
H461 C490 0.950 . S
H462 C491 0.950 . S
H463 C493 0.950 . S
H464 C494 0.950 . S
C465 H447 0.951 . S
C465 C466 1.366 . S
C465 C467 1.388 . S
C466 C465 1.366 . S
C466 C470 1.385 . S
C467 H448 0.951 . S
C467 C465 1.388 . S
C467 C468 1.366 . S
C468 C467 1.366 . S
C468 C469 1.414 . S
C468 C471 1.499 . S
C469 H449 0.950 . S
C469 C468 1.414 . S
C469 C470 1.374 . S
C470 H450 0.950 . S
C470 C466 1.385 . S
C470 C469 1.374 . S
C471 C468 1.499 . S
C471 C472 1.373 . S
C471 C473 1.389 . S
C472 H451 0.950 . S
C472 C471 1.373 . S
C472 C488 1.377 . S
C473 C471 1.389 . S
C473 C474 1.524 . S
C473 C487 1.377 . S
C474 C473 1.524 . S
C474 C475 1.397 . S
C474 C479 1.363 . S
C475 H452 0.950 . S
C475 C474 1.397 . S
C475 C476 1.334 . S
C476 H453 0.950 . S
C476 C475 1.334 . S
C476 C477 1.287 . S
C477 C476 1.287 . S
C477 C478 1.524 . S
C477 H496 0.913 . S
C478 H454 0.950 . S
C478 C477 1.524 . S
C478 C479 1.415 . S
C479 H455 0.950 . S
C479 C474 1.363 . S
C479 C478 1.415 . S
C480 H456 0.951 . S
C480 C481 1.366 . S
C480 C482 1.388 . S
C481 C480 1.366 . S
C481 C485 1.385 . S
C482 H457 0.951 . S
C482 C480 1.388 . S
C482 C483 1.366 . S
C483 C482 1.366 . S
C483 C484 1.414 . S
C483 C486 1.499 . S
C484 H458 0.950 . S
C484 C483 1.414 . S
C484 C485 1.374 . S
C485 H459 0.950 . S
C485 C481 1.385 . S
C485 C484 1.374 . S
C486 C483 1.499 . S
C486 C487 1.373 . S
C486 C488 1.389 . S
C487 H460 0.950 . S
C487 C473 1.377 . S
C487 C486 1.373 . S
C488 C472 1.377 . S
C488 C486 1.389 . S
C488 C489 1.524 . S
C489 C488 1.524 . S
C489 C490 1.397 . S
C489 C494 1.363 . S
C490 H461 0.950 . S
C490 C489 1.397 . S
C490 C491 1.334 . S
C491 H462 0.950 . S
C491 C490 1.334 . S
C491 C492 1.287 . S
C492 C491 1.287 . S
C492 C493 1.524 . S
C492 H495 0.999 . S
C493 H463 0.950 . S
C493 C492 1.524 . S
C493 C494 1.415 . S
C494 H464 0.950 . S
C494 C489 1.363 . S
C494 C493 1.415 . S
H495 C492 0.999 . S
H496 C477 0.913 . S
H497 C515 0.951 . S
H498 C517 0.951 . S
H499 C519 0.950 . S
H500 C520 0.950 . S
H501 C522 0.950 . S
H502 C525 0.950 . S
H503 C526 0.950 . S
H504 C528 0.950 . S
H505 C529 0.950 . S
H506 C530 0.951 . S
H507 C532 0.951 . S
H508 C534 0.950 . S
H509 C535 0.950 . S
H510 C537 0.950 . S
H511 C540 0.950 1_655 S
H512 C541 0.950 . S
H513 C543 0.950 . S
H514 C544 0.950 1_655 S
C515 H497 0.951 . S
C515 C516 1.366 . S
C515 C517 1.388 . S
C516 C515 1.366 . S
C516 C520 1.385 . S
C517 H498 0.951 . S
C517 C515 1.388 . S
C517 C518 1.366 . S
C518 C517 1.366 . S
C518 C519 1.414 . S
C518 C521 1.499 . S
C519 H499 0.950 . S
C519 C518 1.414 . S
C519 C520 1.374 . S
C520 H500 0.950 . S
C520 C516 1.385 . S
C520 C519 1.374 . S
C521 C518 1.499 . S
C521 C522 1.373 . S
C521 C523 1.389 . S
C522 H501 0.950 . S
C522 C521 1.373 . S
C522 C538 1.377 . S
C523 C521 1.389 . S
C523 C524 1.524 . S
C523 C537 1.377 . S
C524 C523 1.524 . S
C524 C525 1.397 . S
C524 C529 1.363 . S
C525 H502 0.950 . S
C525 C524 1.397 . S
C525 C526 1.334 . S
C526 H503 0.950 . S
C526 C525 1.334 . S
C526 C527 1.287 . S
C527 C526 1.287 . S
C527 C528 1.524 . S
C527 H546 0.913 . S
C528 H504 0.950 . S
C528 C527 1.524 . S
C528 C529 1.415 . S
C529 H505 0.950 . S
C529 C524 1.363 . S
C529 C528 1.415 . S
C530 H506 0.951 . S
C530 C531 1.366 . S
C530 C532 1.388 . S
C531 C530 1.366 . S
C531 C535 1.385 . S
C532 H507 0.951 . S
C532 C530 1.388 . S
C532 C533 1.366 1_455 S
C533 C532 1.366 1_655 S
C533 C534 1.414 . S
C533 C536 1.499 . S
C534 H508 0.950 . S
C534 C533 1.414 . S
C534 C535 1.374 1_655 S
C535 H509 0.950 . S
C535 C531 1.385 . S
C535 C534 1.374 1_455 S
C536 C533 1.499 . S
C536 C537 1.373 . S
C536 C538 1.389 . S
C537 H510 0.950 . S
C537 C523 1.377 . S
C537 C536 1.373 . S
C538 C522 1.377 . S
C538 C536 1.389 . S
C538 C539 1.524 . S
C539 C538 1.524 . S
C539 C540 1.397 1_655 S
C539 C544 1.363 1_655 S
C540 H511 0.950 1_455 S
C540 C539 1.397 1_455 S
C540 C541 1.334 . S
C541 H512 0.950 . S
C541 C540 1.334 . S
C541 C542 1.287 . S
C542 C541 1.287 . S
C542 C543 1.524 . S
C542 H545 0.999 . S
C543 H513 0.950 . S
C543 C542 1.524 . S
C543 C544 1.415 . S
C544 H514 0.950 1_455 S
C544 C539 1.363 1_455 S
C544 C543 1.415 . S
H545 C542 0.999 . S
H546 C527 0.913 . S
H547 C565 0.951 . S
H548 C567 0.951 . S
H549 C569 0.950 . S
H550 C570 0.950 . S
H551 C572 0.950 . S
H552 C575 0.950 . S
H553 C576 0.950 . S
H554 C578 0.950 . S
H555 C579 0.950 . S
H556 C580 0.951 . S
H557 C582 0.951 . S
H558 C584 0.950 . S
H559 C585 0.950 . S
H560 C587 0.950 . S
H561 C590 0.950 . S
H562 C591 0.950 . S
H563 C593 0.950 . S
H564 C594 0.950 . S
C565 H547 0.951 . S
C565 C566 1.366 . S
C565 C567 1.388 . S
C566 C565 1.366 . S
C566 C570 1.385 . S
C567 H548 0.951 . S
C567 C565 1.388 . S
C567 C568 1.366 . S
C568 C567 1.366 . S
C568 C569 1.414 . S
C568 C571 1.499 . S
C569 H549 0.950 . S
C569 C568 1.414 . S
C569 C570 1.374 . S
C570 H550 0.950 . S
C570 C566 1.385 . S
C570 C569 1.374 . S
C571 C568 1.499 . S
C571 C572 1.373 . S
C571 C573 1.389 . S
C572 H551 0.950 . S
C572 C571 1.373 . S
C572 C588 1.377 . S
C573 C571 1.389 . S
C573 C574 1.524 . S
C573 C587 1.377 . S
C574 C573 1.524 . S
C574 C575 1.397 . S
C574 C579 1.363 . S
C575 H552 0.950 . S
C575 C574 1.397 . S
C575 C576 1.334 . S
C576 H553 0.950 . S
C576 C575 1.334 . S
C576 C577 1.287 . S
C577 C576 1.287 . S
C577 C578 1.524 . S
C577 H596 0.913 . S
C578 H554 0.950 . S
C578 C577 1.524 . S
C578 C579 1.415 . S
C579 H555 0.950 . S
C579 C574 1.363 . S
C579 C578 1.415 . S
C580 H556 0.951 . S
C580 C581 1.366 . S
C580 C582 1.388 . S
C581 C580 1.366 . S
C581 C585 1.385 . S
C582 H557 0.951 . S
C582 C580 1.388 . S
C582 C583 1.366 . S
C583 C582 1.366 . S
C583 C584 1.414 . S
C583 C586 1.499 . S
C584 H558 0.950 . S
C584 C583 1.414 . S
C584 C585 1.374 . S
C585 H559 0.950 . S
C585 C581 1.385 . S
C585 C584 1.374 . S
C586 C583 1.499 . S
C586 C587 1.373 . S
C586 C588 1.389 . S
C587 H560 0.950 . S
C587 C573 1.377 . S
C587 C586 1.373 . S
C588 C572 1.377 . S
C588 C586 1.389 . S
C588 C589 1.524 . S
C589 C588 1.524 . S
C589 C590 1.397 . S
C589 C594 1.363 . S
C590 H561 0.950 . S
C590 C589 1.397 . S
C590 C591 1.334 . S
C591 H562 0.950 . S
C591 C590 1.334 . S
C591 C592 1.287 . S
C592 C591 1.287 . S
C592 C593 1.524 . S
C592 H595 0.999 . S
C593 H563 0.950 . S
C593 C592 1.524 . S
C593 C594 1.415 . S
C594 H564 0.950 . S
C594 C589 1.363 . S
C594 C593 1.415 . S
H595 C592 0.999 . S
H596 C577 0.913 . S
H597 C615 0.951 . S
H598 C617 0.951 . S
H599 C619 0.950 . S
H600 C620 0.950 . S
H601 C622 0.950 . S
H602 C625 0.950 . S
H603 C626 0.950 . S
H604 C628 0.950 . S
H605 C629 0.950 . S
H606 C630 0.951 . S
H607 C632 0.951 . S
H608 C634 0.950 . S
H609 C635 0.950 . S
H610 C637 0.950 . S
H611 C640 0.950 . S
H612 C641 0.950 . S
H613 C643 0.950 . S
H614 C644 0.950 . S
C615 H597 0.951 . S
C615 C616 1.366 . S
C615 C617 1.388 . S
C616 C615 1.366 . S
C616 C620 1.385 . S
C617 H598 0.951 . S
C617 C615 1.388 . S
C617 C618 1.366 . S
C618 C617 1.366 . S
C618 C619 1.414 . S
C618 C621 1.499 . S
C619 H599 0.950 . S
C619 C618 1.414 . S
C619 C620 1.374 . S
C620 H600 0.950 . S
C620 C616 1.385 . S
C620 C619 1.374 . S
C621 C618 1.499 . S
C621 C622 1.373 . S
C621 C623 1.389 . S
C622 H601 0.950 . S
C622 C621 1.373 . S
C622 C638 1.377 . S
C623 C621 1.389 . S
C623 C624 1.524 . S
C623 C637 1.377 . S
C624 C623 1.524 . S
C624 C625 1.397 . S
C624 C629 1.363 . S
C625 H602 0.950 . S
C625 C624 1.397 . S
C625 C626 1.334 . S
C626 H603 0.950 . S
C626 C625 1.334 . S
C626 C627 1.287 . S
C627 C626 1.287 . S
C627 C628 1.524 . S
C627 H646 0.913 . S
C628 H604 0.950 . S
C628 C627 1.524 . S
C628 C629 1.415 . S
C629 H605 0.950 . S
C629 C624 1.363 . S
C629 C628 1.415 . S
C630 H606 0.951 . S
C630 C631 1.366 . S
C630 C632 1.388 . S
C631 C630 1.366 . S
C631 C635 1.385 . S
C632 H607 0.951 . S
C632 C630 1.388 . S
C632 C633 1.366 . S
C633 C632 1.366 . S
C633 C634 1.414 . S
C633 C636 1.499 . S
C634 H608 0.950 . S
C634 C633 1.414 . S
C634 C635 1.374 . S
C635 H609 0.950 . S
C635 C631 1.385 . S
C635 C634 1.374 . S
C636 C633 1.499 . S
C636 C637 1.373 . S
C636 C638 1.389 . S
C637 H610 0.950 . S
C637 C623 1.377 . S
C637 C636 1.373 . S
C638 C622 1.377 . S
C638 C636 1.389 . S
C638 C639 1.524 . S
C639 C638 1.524 . S
C639 C640 1.397 . S
C639 C644 1.363 . S
C640 H611 0.950 . S
C640 C639 1.397 . S
C640 C641 1.334 . S
C641 H612 0.950 . S
C641 C640 1.334 . S
C641 C642 1.287 . S
C642 C641 1.287 . S
C642 C643 1.524 . S
C642 H645 0.999 . S
C643 H613 0.950 . S
C643 C642 1.524 . S
C643 C644 1.415 . S
C644 H614 0.950 . S
C644 C639 1.363 . S
C644 C643 1.415 . S
H645 C642 0.999 . S
H646 C627 0.913 . S
H647 C665 0.951 . S
H648 C667 0.951 . S
H649 C669 0.950 . S
H650 C670 0.950 . S
H651 C672 0.950 . S
H652 C675 0.950 . S
H653 C676 0.950 . S
H654 C678 0.950 . S
H655 C679 0.950 . S
H656 C680 0.951 . S
H657 C682 0.951 . S
H658 C684 0.950 . S
H659 C685 0.950 . S
H660 C687 0.950 . S
H661 C690 0.950 . S
H662 C691 0.950 . S
H663 C693 0.950 . S
H664 C694 0.950 . S
C665 H647 0.951 . S
C665 C666 1.366 . S
C665 C667 1.388 . S
C666 C665 1.366 . S
C666 C670 1.385 . S
C667 H648 0.951 . S
C667 C665 1.388 . S
C667 C668 1.366 . S
C668 C667 1.366 . S
C668 C669 1.414 . S
C668 C671 1.499 . S
C669 H649 0.950 . S
C669 C668 1.414 . S
C669 C670 1.374 . S
C670 H650 0.950 . S
C670 C666 1.385 . S
C670 C669 1.374 . S
C671 C668 1.499 . S
C671 C672 1.373 . S
C671 C673 1.389 . S
C672 H651 0.950 . S
C672 C671 1.373 . S
C672 C688 1.377 . S
C673 C671 1.389 . S
C673 C674 1.524 . S
C673 C687 1.377 . S
C674 C673 1.524 . S
C674 C675 1.397 . S
C674 C679 1.363 . S
C675 H652 0.950 . S
C675 C674 1.397 . S
C675 C676 1.334 . S
C676 H653 0.950 . S
C676 C675 1.334 . S
C676 C677 1.287 . S
C677 C676 1.287 . S
C677 C678 1.524 . S
C677 H696 0.913 . S
C678 H654 0.950 . S
C678 C677 1.524 . S
C678 C679 1.415 . S
C679 H655 0.950 . S
C679 C674 1.363 . S
C679 C678 1.415 . S
C680 H656 0.951 . S
C680 C681 1.366 . S
C680 C682 1.388 . S
C681 C680 1.366 . S
C681 C685 1.385 . S
C682 H657 0.951 . S
C682 C680 1.388 . S
C682 C683 1.366 . S
C683 C682 1.366 . S
C683 C684 1.414 . S
C683 C686 1.499 . S
C684 H658 0.950 . S
C684 C683 1.414 . S
C684 C685 1.374 . S
C685 H659 0.950 . S
C685 C681 1.385 . S
C685 C684 1.374 . S
C686 C683 1.499 . S
C686 C687 1.373 . S
C686 C688 1.389 . S
C687 H660 0.950 . S
C687 C673 1.377 . S
C687 C686 1.373 . S
C688 C672 1.377 . S
C688 C686 1.389 . S
C688 C689 1.524 . S
C689 C688 1.524 . S
C689 C690 1.397 . S
C689 C694 1.363 . S
C690 H661 0.950 . S
C690 C689 1.397 . S
C690 C691 1.334 . S
C691 H662 0.950 . S
C691 C690 1.334 . S
C691 C692 1.287 . S
C692 C691 1.287 . S
C692 C693 1.524 . S
C692 H695 0.999 . S
C693 H663 0.950 . S
C693 C692 1.524 . S
C693 C694 1.415 . S
C694 H664 0.950 . S
C694 C689 1.363 . S
C694 C693 1.415 . S
H695 C692 0.999 . S
H696 C677 0.913 . S
H697 C715 0.951 . S
H698 C717 0.951 . S
H699 C719 0.950 . S
H700 C720 0.950 . S
H701 C722 0.950 . S
H702 C725 0.950 . S
H703 C726 0.950 . S
H704 C728 0.950 . S
H705 C729 0.950 . S
H706 C730 0.951 . S
H707 C732 0.951 . S
H708 C734 0.950 . S
H709 C735 0.950 . S
H710 C737 0.950 . S
H711 C740 0.950 . S
H712 C741 0.950 . S
H713 C743 0.950 . S
H714 C744 0.950 . S
C715 H697 0.951 . S
C715 C716 1.366 . S
C715 C717 1.388 . S
C716 C715 1.366 . S
C716 C720 1.385 . S
C717 H698 0.951 . S
C717 C715 1.388 . S
C717 C718 1.366 . S
C718 C717 1.366 . S
C718 C719 1.414 . S
C718 C721 1.499 . S
C719 H699 0.950 . S
C719 C718 1.414 . S
C719 C720 1.374 . S
C720 H700 0.950 . S
C720 C716 1.385 . S
C720 C719 1.374 . S
C721 C718 1.499 . S
C721 C722 1.373 . S
C721 C723 1.389 . S
C722 H701 0.950 . S
C722 C721 1.373 . S
C722 C738 1.377 . S
C723 C721 1.389 . S
C723 C724 1.524 . S
C723 C737 1.377 . S
C724 C723 1.524 . S
C724 C725 1.397 . S
C724 C729 1.363 . S
C725 H702 0.950 . S
C725 C724 1.397 . S
C725 C726 1.334 . S
C726 H703 0.950 . S
C726 C725 1.334 . S
C726 C727 1.287 . S
C727 C726 1.287 . S
C727 C728 1.524 . S
C727 H746 0.913 . S
C728 H704 0.950 . S
C728 C727 1.524 . S
C728 C729 1.415 . S
C729 H705 0.950 . S
C729 C724 1.363 . S
C729 C728 1.415 . S
C730 H706 0.951 . S
C730 C731 1.366 . S
C730 C732 1.388 . S
C731 C730 1.366 . S
C731 C735 1.385 . S
C732 H707 0.951 . S
C732 C730 1.388 . S
C732 C733 1.366 . S
C733 C732 1.366 . S
C733 C734 1.414 . S
C733 C736 1.499 . S
C734 H708 0.950 . S
C734 C733 1.414 . S
C734 C735 1.374 . S
C735 H709 0.950 . S
C735 C731 1.385 . S
C735 C734 1.374 . S
C736 C733 1.499 . S
C736 C737 1.373 . S
C736 C738 1.389 . S
C737 H710 0.950 . S
C737 C723 1.377 . S
C737 C736 1.373 . S
C738 C722 1.377 . S
C738 C736 1.389 . S
C738 C739 1.524 . S
C739 C738 1.524 . S
C739 C740 1.397 . S
C739 C744 1.363 . S
C740 H711 0.950 . S
C740 C739 1.397 . S
C740 C741 1.334 . S
C741 H712 0.950 . S
C741 C740 1.334 . S
C741 C742 1.287 . S
C742 C741 1.287 . S
C742 C743 1.524 . S
C742 H745 0.999 . S
C743 H713 0.950 . S
C743 C742 1.524 . S
C743 C744 1.415 . S
C744 H714 0.950 . S
C744 C739 1.363 . S
C744 C743 1.415 . S
H745 C742 0.999 . S
H746 C727 0.913 . S
H747 C765 0.951 . S
H748 C767 0.951 . S
H749 C769 0.950 . S
H750 C770 0.950 . S
H751 C772 0.950 . S
H752 C775 0.950 . S
H753 C776 0.950 . S
H754 C778 0.950 . S
H755 C779 0.950 . S
H756 C780 0.951 . S
H757 C782 0.951 . S
H758 C784 0.950 . S
H759 C785 0.950 . S
H760 C787 0.950 . S
H761 C790 0.950 1_455 S
H762 C791 0.950 . S
H763 C793 0.950 . S
H764 C794 0.950 1_554 S
C765 H747 0.951 . S
C765 C766 1.366 . S
C765 C767 1.388 . S
C766 C765 1.366 . S
C766 C770 1.385 . S
C767 H748 0.951 . S
C767 C765 1.388 . S
C767 C768 1.366 . S
C768 C767 1.366 . S
C768 C769 1.414 . S
C768 C771 1.499 . S
C769 H749 0.950 . S
C769 C768 1.414 . S
C769 C770 1.374 . S
C770 H750 0.950 . S
C770 C766 1.385 . S
C770 C769 1.374 . S
C771 C768 1.499 . S
C771 C772 1.373 . S
C771 C773 1.389 . S
C772 H751 0.950 . S
C772 C771 1.373 . S
C772 C788 1.377 . S
C773 C771 1.389 . S
C773 C774 1.524 . S
C773 C787 1.377 . S
C774 C773 1.524 . S
C774 C775 1.397 . S
C774 C779 1.363 . S
C775 H752 0.950 . S
C775 C774 1.397 . S
C775 C776 1.334 . S
C776 H753 0.950 . S
C776 C775 1.334 . S
C776 C777 1.287 . S
C777 C776 1.287 . S
C777 C778 1.524 . S
C777 H796 0.913 . S
C778 H754 0.950 . S
C778 C777 1.524 . S
C778 C779 1.415 . S
C779 H755 0.950 . S
C779 C774 1.363 . S
C779 C778 1.415 . S
C780 H756 0.951 . S
C780 C781 1.366 . S
C780 C782 1.388 . S
C781 C780 1.366 . S
C781 C785 1.385 . S
C782 H757 0.951 . S
C782 C780 1.388 . S
C782 C783 1.366 . S
C783 C782 1.366 . S
C783 C784 1.414 . S
C783 C786 1.500 . S
C784 H758 0.950 . S
C784 C783 1.414 . S
C784 C785 1.374 . S
C785 H759 0.950 . S
C785 C781 1.385 . S
C785 C784 1.374 . S
C786 C783 1.500 . S
C786 C787 1.372 1_556 S
C786 C788 1.389 1_556 S
C787 H760 0.950 . S
C787 C773 1.377 . S
C787 C786 1.372 1_554 S
C788 C772 1.377 . S
C788 C786 1.389 1_554 S
C788 C789 1.524 1_554 S
C789 C788 1.524 1_556 S
C789 C790 1.397 1_455 S
C789 C794 1.363 1_455 S
C790 H761 0.950 1_655 S
C790 C789 1.397 1_655 S
C790 C791 1.334 . S
C791 H762 0.950 . S
C791 C790 1.334 . S
C791 C792 1.287 . S
C792 C791 1.287 . S
C792 C793 1.524 . S
C792 H795 0.999 . S
C793 H763 0.950 . S
C793 C792 1.524 . S
C793 C794 1.415 . S
C794 H764 0.950 1_556 S
C794 C789 1.363 1_655 S
C794 C793 1.415 . S
H795 C792 0.999 . S
H796 C777 0.913 . S
H797 C815 0.951 . S
H798 C817 0.951 . S
H799 C819 0.950 1_565 S
H800 C820 0.950 1_565 S
H801 C822 0.956 . S
H802 C825 0.950 . S
H803 C826 0.950 . S
H804 C828 0.950 . S
H805 C829 0.950 . S
H806 C830 0.951 . S
H807 C832 0.960 . S
H808 C834 0.950 . S
H809 C835 0.950 . S
H810 C837 0.950 . S
H811 C840 0.950 . S
H812 C841 0.950 . S
H813 C843 0.950 . S
H814 C844 0.950 . S
C815 H797 0.951 . S
C815 C816 1.366 . S
C815 C817 1.388 . S
C816 C815 1.366 . S
C816 C820 1.385 . S
C817 H798 0.951 . S
C817 C815 1.388 . S
C817 C818 1.366 . S
C818 C817 1.366 . S
C818 C819 1.414 . S
C818 C821 1.499 . S
C819 H799 0.950 1_545 S
C819 C818 1.414 . S
C819 C820 1.374 . S
C820 H800 0.950 1_545 S
C820 C816 1.385 . S
C820 C819 1.374 . S
C821 C818 1.499 . S
C821 C822 1.367 1_545 S
C821 C823 1.389 . S
C822 H801 0.956 . S
C822 C821 1.367 1_565 S
C822 C838 1.377 . S
C823 C821 1.389 . S
C823 C824 1.524 . S
C823 C837 1.377 . S
C824 C823 1.524 . S
C824 C825 1.397 . S
C824 C829 1.363 . S
C825 H802 0.950 . S
C825 C824 1.397 . S
C825 C826 1.334 . S
C826 H803 0.950 . S
C826 C825 1.334 . S
C826 C827 1.287 . S
C827 C826 1.287 . S
C827 C828 1.524 . S
C827 H846 0.913 . S
C828 H804 0.950 . S
C828 C827 1.524 . S
C828 C829 1.415 . S
C829 H805 0.950 . S
C829 C824 1.363 . S
C829 C828 1.415 . S
C830 H806 0.951 . S
C830 C831 1.366 1_565 S
C830 C832 1.388 . S
C831 C830 1.366 1_545 S
C831 C835 1.385 . S
C832 H807 0.960 . S
C832 C830 1.388 . S
C832 C833 1.356 1_565 S
C833 C832 1.356 1_545 S
C833 C834 1.414 . S
C833 C836 1.499 . S
C834 H808 0.950 . S
C834 C833 1.414 . S
C834 C835 1.374 . S
C835 H809 0.950 . S
C835 C831 1.385 . S
C835 C834 1.374 . S
C836 C833 1.499 . S
C836 C837 1.373 . S
C836 C838 1.389 1_545 S
C837 H810 0.950 . S
C837 C823 1.377 . S
C837 C836 1.373 . S
C838 C822 1.377 . S
C838 C836 1.389 1_565 S
C838 C839 1.524 . S
C839 C838 1.524 . S
C839 C840 1.397 . S
C839 C844 1.363 . S
C840 H811 0.950 . S
C840 C839 1.397 . S
C840 C841 1.334 . S
C841 H812 0.950 . S
C841 C840 1.334 . S
C841 C842 1.287 . S
C842 C841 1.287 . S
C842 C843 1.524 . S
C842 H845 0.999 . S
C843 H813 0.950 . S
C843 C842 1.524 . S
C843 C844 1.415 . S
C844 H814 0.950 . S
C844 C839 1.363 . S
C844 C843 1.415 . S
H845 C842 0.999 . S
H846 C827 0.913 . S
H847 C865 0.951 . S
H848 C867 0.951 . S
H849 C869 0.950 . S
H850 C870 0.950 . S
H851 C872 0.950 . S
H852 C875 0.950 . S
H853 C876 0.950 . S
H854 C878 0.950 . S
H855 C879 0.950 . S
H856 C880 0.951 . S
H857 C882 0.951 . S
H858 C884 0.950 . S
H859 C885 0.950 . S
H860 C887 0.950 . S
H861 C890 0.950 . S
H862 C891 0.950 . S
H863 C893 0.950 . S
H864 C894 0.950 . S
C865 H847 0.951 . S
C865 C866 1.366 . S
C865 C867 1.388 . S
C866 C865 1.366 . S
C866 C870 1.385 . S
C867 H848 0.951 . S
C867 C865 1.388 . S
C867 C868 1.366 . S
C868 C867 1.366 . S
C868 C869 1.414 . S
C868 C871 1.499 . S
C869 H849 0.950 . S
C869 C868 1.414 . S
C869 C870 1.374 . S
C870 H850 0.950 . S
C870 C866 1.385 . S
C870 C869 1.374 . S
C871 C868 1.499 . S
C871 C872 1.373 . S
C871 C873 1.389 . S
C872 H851 0.950 . S
C872 C871 1.373 . S
C872 C888 1.377 . S
C873 C871 1.389 . S
C873 C874 1.524 . S
C873 C887 1.377 . S
C874 C873 1.524 . S
C874 C875 1.397 . S
C874 C879 1.363 . S
C875 H852 0.950 . S
C875 C874 1.397 . S
C875 C876 1.334 . S
C876 H853 0.950 . S
C876 C875 1.334 . S
C876 C877 1.287 . S
C877 C876 1.287 . S
C877 C878 1.524 . S
C877 H896 0.913 . S
C878 H854 0.950 . S
C878 C877 1.524 . S
C878 C879 1.415 . S
C879 H855 0.950 . S
C879 C874 1.363 . S
C879 C878 1.415 . S
C880 H856 0.951 . S
C880 C881 1.366 . S
C880 C882 1.388 . S
C881 C880 1.366 . S
C881 C885 1.385 . S
C882 H857 0.951 . S
C882 C880 1.388 . S
C882 C883 1.366 . S
C883 C882 1.366 . S
C883 C884 1.414 . S
C883 C886 1.499 . S
C884 H858 0.950 . S
C884 C883 1.414 . S
C884 C885 1.374 . S
C885 H859 0.950 . S
C885 C881 1.385 . S
C885 C884 1.374 . S
C886 C883 1.499 . S
C886 C887 1.373 . S
C886 C888 1.389 . S
C887 H860 0.950 . S
C887 C873 1.377 . S
C887 C886 1.373 . S
C888 C872 1.377 . S
C888 C886 1.389 . S
C888 C889 1.524 . S
C889 C888 1.524 . S
C889 C890 1.397 . S
C889 C894 1.363 . S
C890 H861 0.950 . S
C890 C889 1.397 . S
C890 C891 1.334 . S
C891 H862 0.950 . S
C891 C890 1.334 . S
C891 C892 1.287 . S
C892 C891 1.287 . S
C892 C893 1.524 . S
C892 H895 0.999 . S
C893 H863 0.950 . S
C893 C892 1.524 . S
C893 C894 1.415 . S
C894 H864 0.950 . S
C894 C889 1.363 . S
C894 C893 1.415 . S
H895 C892 0.999 . S
H896 C877 0.913 . S
H897 C915 0.951 . S
H898 C917 0.951 . S
H899 C919 0.950 . S
H900 C920 0.950 . S
H901 C922 0.950 . S
H902 C925 0.950 1_545 S
H903 C926 0.950 . S
H904 C928 0.950 . S
H905 C929 0.950 . S
H906 C930 0.951 . S
H907 C932 0.951 . S
H908 C934 0.950 1_565 S
H909 C935 0.950 1_565 S
H910 C937 0.950 1_565 S
H911 C940 0.950 . S
H912 C941 0.950 . S
H913 C943 0.950 . S
H914 C944 0.950 . S
C915 H897 0.951 . S
C915 C916 1.366 1_565 S
C915 C917 1.388 . S
C916 C915 1.366 1_545 S
C916 C920 1.385 . S
C917 H898 0.951 . S
C917 C915 1.388 . S
C917 C918 1.366 1_565 S
C918 C917 1.366 1_545 S
C918 C919 1.414 . S
C918 C921 1.499 . S
C919 H899 0.950 . S
C919 C918 1.414 . S
C919 C920 1.374 . S
C920 H900 0.950 . S
C920 C916 1.385 . S
C920 C919 1.374 . S
C921 C918 1.499 . S
C921 C922 1.373 . S
C921 C923 1.389 . S
C922 H901 0.950 . S
C922 C921 1.373 . S
C922 C938 1.377 . S
C923 C921 1.389 . S
C923 C924 1.524 1_545 S
C923 C937 1.377 . S
C924 C923 1.524 1_565 S
C924 C925 1.397 . S
C924 C929 1.363 . S
C925 H902 0.950 1_565 S
C925 C924 1.397 . S
C925 C926 1.334 . S
C926 H903 0.950 . S
C926 C925 1.334 . S
C926 C927 1.287 . S
C927 C926 1.287 . S
C927 C928 1.524 . S
C927 H946 0.913 . S
C928 H904 0.950 . S
C928 C927 1.524 . S
C928 C929 1.415 . S
C929 H905 0.950 . S
C929 C924 1.363 . S
C929 C928 1.415 . S
C930 H906 0.951 . S
C930 C931 1.366 . S
C930 C932 1.388 . S
C931 C930 1.366 . S
C931 C935 1.385 . S
C932 H907 0.951 . S
C932 C930 1.388 . S
C932 C933 1.366 . S
C933 C932 1.366 . S
C933 C934 1.414 . S
C933 C936 1.499 . S
C934 H908 0.950 1_545 S
C934 C933 1.414 . S
C934 C935 1.374 . S
C935 H909 0.950 1_545 S
C935 C931 1.385 . S
C935 C934 1.374 . S
C936 C933 1.499 . S
C936 C937 1.373 . S
C936 C938 1.389 . S
C937 H910 0.950 1_545 S
C937 C923 1.377 . S
C937 C936 1.373 . S
C938 C922 1.377 . S
C938 C936 1.389 . S
C938 C939 1.524 . S
C939 C938 1.524 . S
C939 C940 1.397 . S
C939 C944 1.363 . S
C940 H911 0.950 . S
C940 C939 1.397 . S
C940 C941 1.334 . S
C941 H912 0.950 . S
C941 C940 1.334 . S
C941 C942 1.287 . S
C942 C941 1.287 . S
C942 C943 1.524 . S
C942 H945 0.999 . S
C943 H913 0.950 . S
C943 C942 1.524 . S
C943 C944 1.415 . S
C944 H914 0.950 . S
C944 C939 1.363 . S
C944 C943 1.415 . S
H945 C942 0.999 . S
H946 C927 0.913 . S
H947 C965 0.951 . S
H948 C967 0.951 . S
H949 C969 0.950 . S
H950 C970 0.950 . S
H951 C972 0.950 . S
H952 C975 0.950 . S
H953 C976 0.950 . S
H954 C978 0.950 . S
H955 C979 0.950 . S
H956 C980 0.951 . S
H957 C982 0.951 . S
H958 C984 0.950 . S
H959 C985 0.950 . S
H960 C987 0.950 1_554 S
H961 C990 0.950 . S
H962 C991 0.950 . S
H963 C993 0.950 . S
H964 C994 0.950 . S
C965 H947 0.951 . S
C965 C966 1.366 . S
C965 C967 1.388 . S
C966 C965 1.366 . S
C966 C970 1.385 . S
C967 H948 0.951 . S
C967 C965 1.388 . S
C967 C968 1.366 . S
C968 C967 1.366 . S
C968 C969 1.414 . S
C968 C971 1.499 . S
C969 H949 0.950 . S
C969 C968 1.414 . S
C969 C970 1.374 . S
C970 H950 0.950 . S
C970 C966 1.385 . S
C970 C969 1.374 . S
C971 C968 1.499 . S
C971 C972 1.373 . S
C971 C973 1.389 . S
C972 H951 0.950 . S
C972 C971 1.373 . S
C972 C988 1.377 . S
C973 C971 1.389 . S
C973 C974 1.524 . S
C973 C987 1.377 . S
C974 C973 1.524 . S
C974 C975 1.397 . S
C974 C979 1.363 . S
C975 H952 0.950 . S
C975 C974 1.397 . S
C975 C976 1.334 . S
C976 H953 0.950 . S
C976 C975 1.334 . S
C976 C977 1.287 . S
C977 C976 1.287 . S
C977 C978 1.524 . S
C977 H996 0.913 . S
C978 H954 0.950 . S
C978 C977 1.524 . S
C978 C979 1.415 . S
C979 H955 0.950 . S
C979 C974 1.363 . S
C979 C978 1.415 . S
C980 H956 0.951 . S
C980 C981 1.366 . S
C980 C982 1.388 . S
C981 C980 1.366 . S
C981 C985 1.385 . S
C982 H957 0.951 . S
C982 C980 1.388 . S
C982 C983 1.366 . S
C983 C982 1.366 . S
C983 C984 1.414 . S
C983 C986 1.453 1_554 S
C984 H958 0.950 . S
C984 C983 1.414 . S
C984 C985 1.374 . S
C985 H959 0.950 . S
C985 C981 1.385 . S
C985 C984 1.374 . S
C986 C983 1.453 1_556 S
C986 C987 1.390 . S
C986 C988 1.421 . S
C987 H960 0.950 1_556 S
C987 C973 1.377 . S
C987 C986 1.390 . S
C988 C972 1.377 . S
C988 C986 1.421 . S
C988 C989 1.524 . S
C989 C988 1.524 . S
C989 C990 1.397 1_556 S
C989 C994 1.363 . S
C990 H961 0.950 . S
C990 C989 1.397 1_554 S
C990 C991 1.334 . S
C991 H962 0.950 . S
C991 C990 1.334 . S
C991 C992 1.283 1_554 S
C992 C991 1.283 1_556 S
C992 C993 1.529 . S
C992 H995 0.997 1_556 S
C993 H963 0.950 . S
C993 C992 1.529 . S
C993 C994 1.415 . S
C994 H964 0.950 . S
C994 C989 1.363 . S
C994 C993 1.415 . S
H995 C992 0.997 1_554 S
H996 C977 0.913 . S
H997 C1015 0.951 . S
H998 C1017 0.951 . S
H999 C1019 0.950 . S
H1000 C1020 0.954 . S
H1001 C1022 0.950 . S
H1002 C1025 0.950 . S
H1003 C1026 0.950 . S
H1004 C1028 0.950 . S
H1005 C1029 0.950 . S
H1006 C1030 0.951 . S
H1007 C1032 0.951 . S
H1008 C1034 0.950 . S
H1009 C1035 0.950 . S
H1010 C1037 0.950 . S
H1011 C1040 0.950 . S
H1012 C1041 0.950 . S
H1013 C1043 0.950 . S
H1014 C1044 0.950 . S
C1015 H997 0.951 . S
C1015 C1016 1.366 . S
C1015 C1017 1.388 . S
C1016 C1015 1.366 . S
C1016 C1020 1.385 . S
C1017 H998 0.951 . S
C1017 C1015 1.388 . S
C1017 C1018 1.366 . S
C1018 C1017 1.366 . S
C1018 C1019 1.414 . S
C1018 C1021 1.499 . S
C1019 H999 0.950 . S
C1019 C1018 1.414 . S
C1019 C1020 1.374 . S
C1020 H1000 0.954 . S
C1020 C1016 1.385 . S
C1020 C1019 1.374 . S
C1021 C1018 1.499 . S
C1021 C1022 1.373 . S
C1021 C1023 1.389 . S
C1022 H1001 0.950 . S
C1022 C1021 1.373 . S
C1022 C1038 1.377 . S
C1023 C1021 1.389 . S
C1023 C1024 1.524 . S
C1023 C1037 1.377 . S
C1024 C1023 1.524 . S
C1024 C1025 1.397 . S
C1024 C1029 1.363 . S
C1025 H1002 0.950 . S
C1025 C1024 1.397 . S
C1025 C1026 1.334 . S
C1026 H1003 0.950 . S
C1026 C1025 1.334 . S
C1026 C1027 1.287 . S
C1027 C1026 1.287 . S
C1027 C1028 1.524 . S
C1027 H1046 0.913 . S
C1028 H1004 0.950 . S
C1028 C1027 1.524 . S
C1028 C1029 1.415 . S
C1029 H1005 0.950 . S
C1029 C1024 1.363 . S
C1029 C1028 1.415 . S
C1030 H1006 0.951 . S
C1030 C1031 1.366 . S
C1030 C1032 1.388 . S
C1031 C1030 1.366 . S
C1031 C1035 1.385 . S
C1032 H1007 0.951 . S
C1032 C1030 1.388 . S
C1032 C1033 1.366 . S
C1033 C1032 1.366 . S
C1033 C1034 1.414 . S
C1033 C1036 1.499 . S
C1034 H1008 0.950 . S
C1034 C1033 1.414 . S
C1034 C1035 1.374 . S
C1035 H1009 0.950 . S
C1035 C1031 1.385 . S
C1035 C1034 1.374 . S
C1036 C1033 1.499 . S
C1036 C1037 1.373 . S
C1036 C1038 1.389 . S
C1037 H1010 0.950 . S
C1037 C1023 1.377 . S
C1037 C1036 1.373 . S
C1038 C1022 1.377 . S
C1038 C1036 1.389 . S
C1038 C1039 1.524 1_455 S
C1039 C1038 1.524 1_655 S
C1039 C1040 1.397 1_655 S
C1039 C1044 1.363 . S
C1040 H1011 0.950 . S
C1040 C1039 1.397 1_455 S
C1040 C1041 1.334 1_455 S
C1041 H1012 0.950 . S
C1041 C1040 1.334 1_655 S
C1041 C1042 1.287 . S
C1042 C1041 1.287 . S
C1042 C1043 1.524 . S
C1042 H1045 0.999 . S
C1043 H1013 0.950 . S
C1043 C1042 1.524 . S
C1043 C1044 1.415 . S
C1044 H1014 0.950 . S
C1044 C1039 1.363 . S
C1044 C1043 1.415 . S
H1045 C1042 0.999 . S
H1046 C1027 0.913 . S
C166 C20 1.190 . S
C181 C138 1.151 . S
C216 C41 1.189 . S
C231 C116 1.184 . S
C266 C64 1.214 . S
C281 C129 1.209 . S
C316 C19 1.142 . S
C331 C142 1.176 . S
C381 C112 1.175 . S
C366 C44 1.242 . S
C431 C125 1.169 . S
C416 C67 1.236 . S
C466 C43 1.110 . S
C481 C90 1.147 . S
C516 C66 1.104 . S
C531 C103 1.141 . S
C566 C21 1.232 . S
C581 C73 1.166 . S
C631 C86 1.168 . S
C616 C42 1.214 . S
C681 C99 1.168 . S
C666 C65 1.214 . S
C716 C18 1.162 . S
C731 C77 1.156 . S
C781 C104 1.517 . S
C766 C17 1.519 . S
C816 C39 1.531 . S
C831 C78 1.531 . S
C866 C62 1.543 . S
C881 C91 1.543 . S
C931 C130 1.510 . S
C916 C40 1.516 . S
C981 C143 1.539 . S
C966 C63 1.545 . S
C1016 C16 1.521 . S
C1031 C117 1.517 . S
