# Generated by pormake.
# Topology tsx, (6,3)-cn, num edge types: 1
# Building blocks:
#     Node 0, Type 0, BuildingBlock: CIFDUS_clean_sbu_1, # of connection points: 6
#     Node 1, Type 0, BuildingBlock: CIFDUS_clean_sbu_1, # of connection points: 6
#     Node 2, Type 1, BuildingBlock: BELTOD_clean_linker_0, # of connection points: 3
#     Node 3, Type 1, BuildingBlock: BELTOD_clean_linker_0, # of connection points: 3
#     Node 4, Type 1, BuildingBlock: BELTOD_clean_linker_0, # of connection points: 3
#     Node 5, Type 1, BuildingBlock: BELTOD_clean_linker_0, # of connection points: 3
#     Edge 6, Type (0, 1), BuildingBlock: ZUJKAS_clean_linker_0, # of connection points: 2
#     Edge 7, Type (0, 1), BuildingBlock: ZUJKAS_clean_linker_0, # of connection points: 2
#     Edge 8, Type (0, 1), BuildingBlock: ZUJKAS_clean_linker_0, # of connection points: 2
#     Edge 9, Type (0, 1), BuildingBlock: ZUJKAS_clean_linker_0, # of connection points: 2
#     Edge 10, Type (0, 1), BuildingBlock: ZUJKAS_clean_linker_0, # of connection points: 2
#     Edge 11, Type (0, 1), BuildingBlock: ZUJKAS_clean_linker_0, # of connection points: 2
#     Edge 12, Type (0, 1), BuildingBlock: ZUJKAS_clean_linker_0, # of connection points: 2
#     Edge 13, Type (0, 1), BuildingBlock: ZUJKAS_clean_linker_0, # of connection points: 2
#     Edge 14, Type (0, 1), BuildingBlock: ZUJKAS_clean_linker_0, # of connection points: 2
#     Edge 15, Type (0, 1), BuildingBlock: ZUJKAS_clean_linker_0, # of connection points: 2
#     Edge 16, Type (0, 1), BuildingBlock: ZUJKAS_clean_linker_0, # of connection points: 2
#     Edge 17, Type (0, 1), BuildingBlock: ZUJKAS_clean_linker_0, # of connection points: 2
# Relax obj value: 0.115
# Max RMSD: 0.149
# Mean RMSD: 0.108
data_MOF--net-tsx--node1-CIFDUS_clean_sbu_1--node2-BELTOD_clean_linker_0--edge1-ZUJKAS_clean_linker_0
_symmetry_space_group_name_H-M    P1
_symmetry_Int_Tables_number       1
_symmetry_cell_setting            triclinic
loop_
_symmetry_equiv_pos_as_xyz
'x, y, z'
_cell_length_a     26.363666
_cell_length_b     31.908011
_cell_length_c     52.087287
_cell_angle_alpha  97.653328
_cell_angle_beta   90.615494
_cell_angle_gamma 90.815766
loop_
_atom_site_label
_atom_site_type_symbol
_atom_site_fract_x
_atom_site_fract_y
_atom_site_fract_z
_atom_type_partial_charge
O0 O 0.00861 0.0829 0.01188 0.0
Mn1 Mn 0.04653 0.02479 0.00481 0.0
O2 O 0.92799 0.06951 0.99786 0.0
Mn3 Mn 0.94081 0.01856 0.97834 0.0
O4 O 0.08016 0.96471 0.9966 0.0
O5 O 0.11327 0.05971 0.01257 0.0
Mn6 Mn 0.14962 0.01986 0.02469 0.0
O7 O 0.04078 0.01706 0.044 0.0
O8 O 0.16282 0.97561 -0.0002 0.0
O9 O 0.05287 0.03297 0.9655 0.0
O10 O 0.9744 0.02256 0.94792 0.0
O11 O 0.19371 0.06295 0.02669 0.0
O12 O 0.12164 0.00766 0.05534 0.0
C13 C 0.94472 0.96422 0.99757 0.0
C14 C 0.9622 0.09397 0.00921 0.0
C15 C 0.12549 0.95209 0.99226 0.0
C16 C 0.15561 0.08179 0.0175 0.0
C17 C 0.07466 0.00983 0.06075 0.0
C18 C 0.02153 0.03086 0.94621 0.0
O19 O 0.98074 0.9922 0.9978 0.0
O20 O 0.90523 0.97083 0.98379 0.0
O21 O 0.50278 0.57749 0.5119 0.0
Mn22 Mn 0.54793 0.52361 0.50503 0.0
O23 O 0.42945 0.56003 0.48995 0.0
Mn24 Mn 0.44939 0.50871 0.47278 0.0
O25 O 0.59124 0.46856 0.49738 0.0
O26 O 0.60976 0.56084 0.51454 0.0
Mn27 Mn 0.65236 0.53251 0.5318 0.0
O28 O 0.53964 0.51324 0.54371 0.0
O29 O 0.67139 0.48589 0.50951 0.0
O30 O 0.55826 0.53482 0.46658 0.0
O31 O 0.48834 0.51111 0.4439 0.0
O32 O 0.68373 0.5837 0.53022 0.0
O33 O 0.61858 0.52089 0.56108 0.0
C34 C 0.45151 0.45689 0.49421 0.0
C35 C 0.45714 0.58555 0.50519 0.0
C36 C 0.63865 0.46004 0.4982 0.0
C37 C 0.64331 0.59122 0.51737 0.0
C38 C 0.57122 0.51287 0.56272 0.0
C39 C 0.53324 0.52621 0.4452 0.0
O40 O 0.48622 0.48626 0.49559 0.0
O41 O 0.41515 0.46026 0.47775 0.0
P42 P 0.09483 0.04023 0.4207 0.0
H43 H 0.08769 0.09989 0.46779 0.0
H44 H 0.01678 0.14105 0.48709 0.0
H45 H 0.91328 0.06906 0.43291 0.0
H46 H 0.98452 0.0281 0.41333 0.0
H47 H 0.1918 -0.0001 0.41452 0.0
H48 H 0.22891 0.94011 0.43231 0.0
H49 H 0.087 0.91703 0.46902 0.0
H50 H 0.04982 0.97753 0.4512 0.0
H51 H 0.09878 0.09521 0.38071 0.0
H52 H 0.05677 0.96554 0.38598 0.0
O53 O 0.14152 0.07649 0.42487 0.0
H54 H 0.08246 0.08356 0.33408 0.0
H55 H 0.04006 0.95365 0.33898 0.0
C56 C 0.04139 0.06198 0.43865 0.0
C57 C 0.04965 0.09231 0.46038 0.0
C58 C 0.00922 0.11562 0.47149 0.0
C59 C 0.95997 0.10827 0.46125 0.0
C60 C 0.95103 0.07505 0.44112 0.0
C61 C 0.99168 0.05195 0.42983 0.0
C62 C 0.11858 0.99355 0.43204 0.0
C63 C 0.16859 0.98196 0.42635 0.0
C64 C 0.18975 0.94792 0.43653 0.0
C65 C 0.16097 0.92453 0.45233 0.0
C66 C 0.10991 0.93478 0.45697 0.0
C67 C 0.0888 0.96932 0.4469 0.0
C68 C 0.0802 0.03097 0.38661 0.0
C69 C 0.08621 0.06415 0.37178 0.0
C70 C 0.07694 0.05745 0.34515 0.0
C71 C 0.06077 0.01754 0.33289 0.0
C72 C 0.05268 0.98467 0.34796 0.0
C73 C 0.06246 0.99136 0.37471 0.0
P74 P 0.04811 0.03253 0.58635 0.0
H75 H 0.02894 0.99375 0.53341 0.0
H76 H 0.95732 0.95164 0.51329 0.0
H77 H 0.87111 0.983 0.58321 0.0
H78 H 0.9421 0.02586 0.60275 0.0
H79 H 0.15136 0.06198 0.58276 0.0
H80 H 0.18938 0.12532 0.56898 0.0
H81 H 0.04065 0.17124 0.55331 0.0
H82 H 0.00204 0.10664 0.56685 0.0
H83 H 0.04167 0.97282 0.62337 0.0
H84 H 0.03515 0.10818 0.62527 0.0
O85 O 0.09098 0.99466 0.58 0.0
H86 H 0.03774 0.9809 0.67056 0.0
H87 H 0.0314 0.11652 0.67281 0.0
C88 C 0.99102 0.01243 0.56964 0.0
C89 C 0.99402 0.99248 0.54408 0.0
C90 C 0.95324 0.96806 0.53272 0.0
C91 C 0.90873 0.96322 0.54679 0.0
C92 C 0.90462 0.98607 0.57173 0.0
C93 C 0.94542 0.01053 0.58303 0.0
C94 C 0.07402 0.07925 0.57528 0.0
C95 C 0.12674 0.08525 0.57605 0.0
C96 C 0.14846 0.12141 0.56826 0.0
C97 C 0.11781 0.15261 0.55996 0.0
C98 C 0.06482 0.14724 0.55953 0.0
C99 C 0.04293 0.11051 0.56716 0.0
C100 C 0.04008 0.0399 0.62092 0.0
C101 C 0.03932 0.00431 0.63398 0.0
C102 C 0.03712 0.00897 0.66093 0.0
C103 C 0.03522 0.04938 0.67535 0.0
C104 C 0.03305 0.08503 0.66215 0.0
C105 C 0.03551 0.0803 0.63504 0.0
P106 P 0.59587 0.54124 0.91999 0.0
H107 H 0.58627 0.60504 0.96549 0.0
H108 H 0.51337 0.64515 0.9834 0.0
H109 H 0.41371 0.56538 0.93084 0.0
H110 H 0.4867 0.52558 0.91302 0.0
H111 H 0.69515 0.50406 0.91805 0.0
H112 H 0.72817 0.43933 0.93152 0.0
H113 H 0.58102 0.4106 0.96107 0.0
H114 H 0.54788 0.47593 0.94733 0.0
H115 H 0.5563 0.59351 0.88315 0.0
H116 H 0.599 0.46325 0.88223 0.0
O117 O 0.64207 0.57793 0.92273 0.0
H118 H 0.53487 0.57954 0.83698 0.0
H119 H 0.57762 0.44916 0.83614 0.0
C120 C 0.54187 0.5633 0.93741 0.0
C121 C 0.54859 0.59569 0.9582 0.0
C122 C 0.50687 0.61844 0.96852 0.0
C123 C 0.45797 0.60898 0.9581 0.0
C124 C 0.4511 0.57395 0.93885 0.0
C125 C 0.49275 0.55116 0.92868 0.0
C126 C 0.61948 0.49514 0.9322 0.0
C127 C 0.67005 0.48409 0.92764 0.0
C128 C 0.6887 0.44684 0.93506 0.0
C129 C 0.65702 0.41982 0.94715 0.0
C130 C 0.60622 0.431 0.95186 0.0
C131 C 0.58738 0.4683 0.94414 0.0
C132 C 0.57935 0.52957 0.88613 0.0
C133 C 0.56082 0.56188 0.87303 0.0
C134 C 0.54825 0.55377 0.84671 0.0
C135 C 0.55439 0.51319 0.83297 0.0
C136 C 0.5728 0.48079 0.8462 0.0
C137 C 0.585 0.48887 0.8726 0.0
P138 P 0.54834 0.53477 0.08849 0.0
H139 H 0.52839 0.48971 0.03709 0.0
H140 H 0.45496 0.44787 0.01877 0.0
H141 H 0.36826 0.49343 0.08643 0.0
H142 H 0.4416 0.53532 0.10457 0.0
H143 H 0.65161 0.55788 0.07765 0.0
H144 H 0.6899 0.61966 0.06228 0.0
H145 H 0.54229 0.67509 0.05776 0.0
H146 H 0.50323 0.61187 0.07276 0.0
H147 H 0.52809 0.47819 0.12609 0.0
H148 H 0.54886 0.61266 0.12669 0.0
O149 O 0.59019 0.49588 0.08325 0.0
H150 H 0.52173 0.4884 0.17319 0.0
H151 H 0.54331 0.62308 0.17408 0.0
C152 C 0.49067 0.5149 0.07235 0.0
C153 C 0.4931 0.49161 0.04762 0.0
C154 C 0.45112 0.46778 0.03717 0.0
C155 C 0.40619 0.46691 0.0514 0.0
C156 C 0.40273 0.49301 0.07527 0.0
C157 C 0.44461 0.51704 0.08561 0.0
C158 C 0.57453 0.57996 0.07581 0.0
C159 C 0.62713 0.58279 0.07293 0.0
C160 C 0.64903 0.61808 0.06416 0.0
C161 C 0.61884 0.65159 0.05859 0.0
C162 C 0.56607 0.64927 0.06178 0.0
C163 C 0.54391 0.61335 0.07024 0.0
C164 C 0.53989 0.54449 0.12298 0.0
C165 C 0.53124 0.50995 0.13641 0.0
C166 C 0.52774 0.51583 0.16331 0.0
C167 C 0.53288 0.55648 0.17735 0.0
C168 C 0.53922 0.59141 0.16376 0.0
C169 C 0.54274 0.58543 0.13669 0.0
H170 H 0.21829 0.13448 0.04744 0.0
H171 H 0.24034 0.20714 0.04372 0.0
H172 H 0.12934 0.20797 0.98242 0.0
H173 H 0.10645 0.13323 0.98597 0.0
H174 H 0.26993 0.23006 0.98756 0.0
H175 H 0.12222 0.32152 0.04548 0.0
H176 H 0.13915 0.27008 0.05334 0.0
H177 H 0.10658 0.27427 0.02343 0.0
C178 C 0.19797 0.14985 0.03318 0.0
C179 C 0.16116 0.12779 0.01663 0.0
C180 C 0.21067 0.19157 0.03119 0.0
C181 C 0.18693 0.21267 0.01267 0.0
C182 C 0.14819 0.19188 0.99679 0.0
H183 H 0.36324 0.44773 0.00294 0.0
H184 H 0.30212 0.39029 0.98847 0.0
C185 C 0.13506 0.14945 0.99887 0.0
C186 C 0.20648 0.25544 0.00979 0.0
H187 H 0.20007 0.35698 0.03981 0.0
C188 C 0.25386 0.25835 0.99805 0.0
C189 C 0.1859 0.29176 0.02412 0.0
C190 C 0.13556 0.28968 0.03734 0.0
C191 C 0.28288 0.29594 0.00185 0.0
C192 C 0.26345 0.3317 0.01741 0.0
C193 C 0.21463 0.32957 0.02773 0.0
C194 C 0.29604 0.3692 0.02613 0.0
C195 C 0.33595 0.29602 0.99123 0.0
C196 C 0.31165 0.37697 0.05218 0.0
C197 C 0.34607 0.40971 0.06046 0.0
C198 C 0.36561 0.43535 0.04284 0.0
C199 C 0.34891 0.42829 0.01687 0.0
C200 C 0.31412 0.39557 0.00861 0.0
H201 H 0.34699 0.26435 0.98159 0.0
H202 H 0.33856 0.31869 0.97688 0.0
H203 H 0.36368 0.30644 0.00708 0.0
H204 H 0.29849 0.35672 0.06595 0.0
H205 H 0.35896 0.41386 0.08048 0.0
H206 H 0.17022 0.91499 0.94872 0.0
H207 H 0.21648 0.84848 0.94493 0.0
H208 H 0.16009 0.82531 0.01933 0.0
H209 H 0.11166 0.89055 0.0223 0.0
H210 H 0.29178 0.8399 0.97739 0.0
H211 H 0.15486 0.70751 0.98247 0.0
H212 H 0.13489 0.75906 0.97611 0.0
H213 H 0.14981 0.74977 0.00866 0.0
C214 C 0.16549 0.89435 0.96347 0.0
C215 C 0.13655 0.90712 0.98546 0.0
C216 C 0.19244 0.8567 0.96153 0.0
C217 C 0.19183 0.83173 0.98184 0.0
C218 C 0.16029 0.84326 0.00311 0.0
H219 H 0.42955 0.64731 0.00624 0.0
H220 H 0.36392 0.7012 0.01573 0.0
C221 C 0.13239 0.88049 0.00475 0.0
C222 C 0.22927 0.79739 0.9822 0.0
H223 H 0.24235 0.69187 0.98592 0.0
C224 C 0.28078 0.80757 0.97927 0.0
C225 C 0.21521 0.75529 0.98514 0.0
C226 C 0.16065 0.7421 0.98806 0.0
C227 C 0.31822 0.77669 0.97835 0.0
C228 C 0.30394 0.73458 0.98055 0.0
C229 C 0.25293 0.72442 0.98439 0.0
C230 C 0.34081 0.70016 0.97568 0.0
C231 C 0.37274 0.7888 0.97416 0.0
C232 C 0.34884 0.68182 0.95015 0.0
C233 C 0.38586 0.65131 0.94471 0.0
C234 C 0.41572 0.63854 0.96473 0.0
C235 C 0.40709 0.65655 0.99045 0.0
C236 C 0.36965 0.68712 0.9959 0.0
H237 H 0.37847 0.8236 0.97556 0.0
H238 H 0.39778 0.77652 0.98863 0.0
H239 H 0.38461 0.77418 0.95465 0.0
H240 H 0.32719 0.69193 0.93433 0.0
H241 H 0.39233 0.6388 0.92467 0.0
H242 H 0.95697 0.88187 0.9799 0.0
H243 H 0.90587 0.82661 0.99593 0.0
H244 H 0.87129 0.91245 0.0644 0.0
H245 H 0.92141 0.96801 0.04795 0.0
H246 H 0.88829 0.78563 0.04007 0.0
H247 H 0.73651 0.89855 0.02312 0.0
H248 H 0.80122 0.90554 0.01344 0.0
H249 H 0.78387 0.91875 0.04678 0.0
C250 C 0.94121 0.88802 0.99915 0.0
C251 C 0.94339 0.92897 0.01284 0.0
C252 C 0.91139 0.85662 0.00814 0.0
C253 C 0.88349 0.86599 0.03091 0.0
C254 C 0.89181 0.90492 0.04651 0.0
H255 H 0.6257 0.73046 0.08566 0.0
H256 H 0.68748 0.78596 0.07832 0.0
C257 C 0.92152 0.93636 0.03744 0.0
C258 C 0.84014 0.83816 0.03577 0.0
H259 H 0.7104 0.83385 0.03622 0.0
C260 C 0.84944 0.79622 0.03942 0.0
C261 C 0.78936 0.85196 0.03446 0.0
C262 C 0.77687 0.89601 0.02901 0.0
C263 C 0.80936 0.76776 0.04208 0.0
C264 C 0.75869 0.7815 0.04062 0.0
C265 C 0.74931 0.82354 0.0373 0.0
C266 C 0.7152 0.7523 0.04252 0.0
C267 C 0.82155 0.7232 0.04656 0.0
C268 C 0.70842 0.71642 0.02401 0.0
C269 C 0.67345 0.68489 0.0282 0.0
C270 C 0.64422 0.68919 0.05072 0.0
C271 C 0.64762 0.72681 0.06805 0.0
C272 C 0.68302 0.75827 0.06396 0.0
H273 H 0.86136 0.72061 0.05332 0.0
H274 H 0.79573 0.71216 0.06107 0.0
H275 H 0.81644 0.70169 0.02811 0.0
H276 H 0.73215 0.71175 0.00705 0.0
H277 H 0.6713 0.65604 0.01464 0.0
H278 H 0.99088 0.15794 0.98345 0.0
H279 H 0.93624 0.21764 0.97762 0.0
H280 H 0.84054 0.18658 0.03915 0.0
H281 H 0.89457 0.12649 0.04471 0.0
H282 H 0.80955 0.18364 0.97407 0.0
H283 H 0.87513 0.33078 0.0361 0.0
H284 H 0.92033 0.2931 0.02141 0.0
H285 H 0.88121 0.27966 0.04709 0.0
C286 C 0.96008 0.16554 0.99681 0.0
C287 C 0.94734 0.13826 0.01487 0.0
C288 C 0.92847 0.19918 0.99319 0.0
C289 C 0.8844 0.20616 0.0079 0.0
C290 C 0.87459 0.18166 0.02774 0.0
H291 H 0.64902 0.3915 0.99424 0.0
H292 H 0.69697 0.33408 0.00959 0.0
C293 C 0.90584 0.14781 0.03117 0.0
C294 C 0.84482 0.23422 -5e-05 0.0
H295 H 0.80389 0.33584 0.00907 0.0
C296 C 0.80805 0.21692 0.98174 0.0
C297 C 0.84297 0.27726 0.01024 0.0
C298 C 0.88187 0.29668 0.02984 0.0
C299 C 0.76964 0.24199 0.97321 0.0
C300 C 0.7685 0.28545 0.98303 0.0
C301 C 0.80471 0.30243 0.00169 0.0
C302 C 0.73284 0.3148 0.97282 0.0
C303 C 0.73066 0.22179 0.95383 0.0
C304 C 0.7362 0.32213 0.94693 0.0
C305 C 0.70905 0.35479 0.9382 0.0
C306 C 0.67819 0.3808 0.95522 0.0
C307 C 0.6724 0.37181 0.98072 0.0
C308 C 0.69988 0.3392 0.98951 0.0
H309 H 0.72781 0.18705 0.95402 0.0
H310 H 0.69268 0.23566 0.95776 0.0
H311 H 0.74194 0.2274 0.93409 0.0
H312 H 0.76189 0.30407 0.93383 0.0
H313 H 0.71377 0.36083 0.91838 0.0
H314 H 0.70117 0.61671 0.48033 0.0
H315 H 0.7266 0.69007 0.47886 0.0
H316 H 0.60661 0.7316 0.53146 0.0
H317 H 0.582 0.65753 0.53346 0.0
H318 H 0.69385 0.76779 0.47075 0.0
H319 H 0.73312 0.76192 0.57541 0.0
H320 H 0.71297 0.71596 0.55362 0.0
H321 H 0.66759 0.75496 0.5659 0.0
C322 C 0.67849 0.64158 0.49047 0.0
C323 C 0.63967 0.63163 0.50697 0.0
C324 C 0.69333 0.68358 0.48981 0.0
C325 C 0.66963 0.7163 0.50573 0.0
C326 C 0.62625 0.70673 0.51951 0.0
H327 H 0.80511 0.96931 0.55112 0.0
H328 H 0.74147 0.91299 0.53946 0.0
C329 C 0.61155 0.66448 0.52028 0.0
C330 C 0.69572 0.75828 0.51093 0.0
H331 H 0.76075 0.82243 0.55841 0.0
C332 C 0.70772 0.7801 0.48999 0.0
C333 C 0.71501 0.77386 0.53599 0.0
C334 C 0.70704 0.75038 0.55901 0.0
C335 C 0.73895 0.81658 0.4934 0.0
C336 C 0.75821 0.83172 0.51834 0.0
C337 C 0.74519 0.81082 0.53938 0.0
C338 C 0.79543 0.8671 0.52279 0.0
C339 C 0.7525 0.83824 0.47034 0.0
C340 C 0.84663 0.85979 0.51711 0.0
C341 C 0.88312 0.89158 0.52402 0.0
C342 C 0.86905 0.93139 0.53673 0.0
C343 C 0.81732 0.93894 0.54161 0.0
C344 C 0.78087 0.90695 0.53483 0.0
H345 H 0.72966 0.82587 0.45285 0.0
H346 H 0.74676 0.87285 0.47483 0.0
H347 H 0.79326 0.83332 0.46592 0.0
H348 H 0.85858 0.82896 0.50817 0.0
H349 H 0.92261 0.88425 0.52043 0.0
H350 H 0.72191 0.44009 0.46972 0.0
H351 H 0.76454 0.37207 0.46415 0.0
H352 H 0.64123 0.31655 0.50251 0.0
H353 H 0.59747 0.38458 0.50726 0.0
H354 H 0.79378 0.33845 0.50829 0.0
H355 H 0.67454 0.22216 0.44397 0.0
H356 H 0.66694 0.27856 0.44512 0.0
H357 H 0.64364 0.25191 0.47096 0.0
C358 C 0.70305 0.41293 0.47605 0.0
C359 C 0.65646 0.41733 0.48879 0.0
C360 C 0.72749 0.37418 0.47301 0.0
C361 C 0.70616 0.33927 0.48298 0.0
C362 C 0.65799 0.34285 0.49429 0.0
H363 H 0.8679 0.09809 0.4841 0.0
H364 H 0.80256 0.15244 0.49375 0.0
C365 C 0.63299 0.38165 0.49695 0.0
C366 C 0.73773 0.30155 0.48437 0.0
H367 H 0.7503 0.19728 0.46056 0.0
C368 C 0.78407 0.3075 0.49798 0.0
C369 C 0.72443 0.26098 0.47151 0.0
C370 C 0.67483 0.2528 0.4569 0.0
C371 C 0.81863 0.27462 0.49801 0.0
C372 C 0.80699 0.2348 0.48363 0.0
C373 C 0.75929 0.22797 0.47137 0.0
C374 C 0.84597 0.20178 0.47877 0.0
C375 C 0.86773 0.28324 0.5131 0.0
C376 C 0.89144 0.21141 0.46692 0.0
C377 C 0.92861 0.18099 0.46193 0.0
C378 C 0.92064 0.14 0.46812 0.0
C379 C 0.87478 0.12974 0.47942 0.0
C380 C 0.83764 0.16061 0.48484 0.0
H381 H 0.86314 0.30838 0.5298 0.0
H382 H 0.88182 0.25434 0.5204 0.0
H383 H 0.89689 0.29453 0.5003 0.0
H384 H 0.898 0.24245 0.46124 0.0
H385 H 0.96329 0.1892 0.45265 0.0
H386 H 0.46004 0.37335 0.4801 0.0
H387 H 0.40569 0.32211 0.49785 0.0
H388 H 0.37246 0.41536 0.56306 0.0
H389 H 0.42646 0.46705 0.54491 0.0
H390 H 0.38691 0.28556 0.5411 0.0
H391 H 0.23646 0.40008 0.52501 0.0
H392 H 0.30097 0.40639 0.5149 0.0
H393 H 0.28447 0.42005 0.54834 0.0
C394 C 0.44364 0.38208 0.49902 0.0
C395 C 0.44731 0.42399 0.51116 0.0
C396 C 0.4119 0.35297 0.50898 0.0
C397 C 0.38345 0.36548 0.53123 0.0
C398 C 0.39299 0.40548 0.54545 0.0
H399 H 0.12769 0.22982 0.58869 0.0
H400 H 0.18924 0.28557 0.58145 0.0
C401 C 0.42482 0.43469 0.53541 0.0
C402 C 0.33961 0.33876 0.53712 0.0
H403 H 0.2098 0.33586 0.53852 0.0
C404 C 0.34825 0.29669 0.54078 0.0
C405 C 0.28898 0.35315 0.5362 0.0
C406 C 0.27689 0.39723 0.53067 0.0
C407 C 0.30784 0.26861 0.54354 0.0
C408 C 0.2574 0.28291 0.54243 0.0
C409 C 0.24857 0.32513 0.53932 0.0
C410 C 0.21365 0.25397 0.5444 0.0
C411 C 0.31941 0.22372 0.54754 0.0
C412 C 0.20521 0.2191 0.5253 0.0
C413 C 0.17022 0.18747 0.5294 0.0
C414 C 0.14273 0.19066 0.55247 0.0
C415 C 0.14809 0.22717 0.57061 0.0
C416 C 0.18334 0.25877 0.56656 0.0
H417 H 0.35949 0.22033 0.55363 0.0
H418 H 0.29418 0.21288 0.56236 0.0
H419 H 0.31277 0.20257 0.52907 0.0
H420 H 0.22775 0.21521 0.5079 0.0
H421 H 0.16684 0.15932 0.51531 0.0
H422 H 0.36788 0.60044 0.52893 0.0
H423 H 0.31626 0.663 0.52704 0.0
H424 H 0.44263 0.72553 0.49538 0.0
H425 H 0.49458 0.66262 0.49729 0.0
H426 H 0.32257 0.75263 0.54325 0.0
H427 H 0.3324 0.70694 0.4366 0.0
H428 H 0.35371 0.67289 0.45943 0.0
H429 H 0.3927 0.71678 0.45288 0.0
C430 C 0.38527 0.62832 0.52271 0.0
C431 C 0.43504 0.62702 0.51334 0.0
C432 C 0.3557 0.66387 0.52147 0.0
C433 C 0.37536 0.69839 0.51057 0.0
C434 C 0.42673 0.69887 0.50359 0.0
H435 H 0.24801 0.93113 0.48067 0.0
H436 H 0.2945 0.87433 0.49719 0.0
C437 C 0.45656 0.66327 0.50502 0.0
C438 C 0.34031 0.73088 0.5035 0.0
H439 H 0.287 0.76876 0.45133 0.0
C440 C 0.31488 0.75632 0.52319 0.0
C441 C 0.32915 0.7345 0.47724 0.0
C442 C 0.35297 0.70612 0.45526 0.0
C443 C 0.2799 0.78651 0.51727 0.0
C444 C 0.27045 0.79125 0.49109 0.0
C445 C 0.2946 0.76496 0.47139 0.0
C446 C 0.23891 0.82566 0.48372 0.0
C447 C 0.25311 0.81319 0.53891 0.0
C448 C 0.19207 0.81692 0.4709 0.0
C449 C 0.16521 0.84944 0.46159 0.0
C450 C 0.18557 0.89075 0.46455 0.0
C451 C 0.23179 0.89943 0.478 0.0
C452 C 0.25816 0.86717 0.48756 0.0
H453 H 0.2574 0.8005 0.55766 0.0
H454 H 0.26921 0.84582 0.5412 0.0
H455 H 0.21207 0.81505 0.53422 0.0
H456 H 0.17694 0.78488 0.46765 0.0
H457 H 0.12972 0.84205 0.45117 0.0
H458 H 0.13862 0.01261 0.10217 0.0
H459 H 0.11788 0.0096 0.14716 0.0
H460 H 0.95901 -0.00366 0.12697 0.0
H461 H 0.97939 -5e-05 0.08122 0.0
H462 H 0.03295 0.07055 0.17556 0.0
H463 H 0.01366 0.89594 0.17381 0.0
H464 H 0.05401 0.9176 0.15087 0.0
H465 H 0.98658 0.92219 0.14832 0.0
C466 C 0.09915 0.00864 0.10701 0.0
C467 C 0.06061 0.00623 0.0879 0.0
C468 C 0.08746 0.00701 0.13284 0.0
C469 C 0.0371 0.00251 0.14026 0.0
C470 C 0.99821 -0.00039 0.12145 0.0
H471 H 0.97958 0.98035 0.30475 0.0
H472 H 0.96571 0.97544 0.25763 0.0
C473 C 0.00988 0.00167 0.09539 0.0
C474 C 0.02649 0.00273 0.16806 0.0
H475 H 0.02145 0.93734 0.21481 0.0
C476 C 0.02921 0.04154 0.18417 0.0
C477 C 0.02177 0.96481 0.1791 0.0
C478 C 0.01875 0.92256 0.16228 0.0
C479 C 0.02969 0.04333 0.21121 0.0
C480 C 0.02852 0.00521 0.22235 0.0
C481 C 0.02271 0.96648 0.20622 0.0
C482 C 0.03758 0.00512 0.25047 0.0
C483 C 0.03286 0.08607 0.22758 0.0
C484 C 0.08325 0.02192 0.2618 0.0
C485 C 0.09105 0.02493 0.28849 0.0
C486 C 0.05362 0.01064 0.30438 0.0
C487 C 0.00896 0.99168 0.29291 0.0
C488 C 0.00097 0.98898 0.26608 0.0
H489 H 0.01728 0.1112 0.21704 0.0
H490 H 0.01201 0.08601 0.24598 0.0
H491 H 0.07324 0.09425 0.23234 0.0
H492 H 0.11265 0.03336 0.25 0.0
H493 H 0.12628 0.03883 0.29677 0.0
H494 H 0.09846 -0.00258 0.91495 0.0
H495 H 0.11089 0.00793 0.86934 0.0
H496 H 0.99071 0.09899 0.87559 0.0
H497 H 0.97874 0.08886 0.92067 0.0
H498 H 0.03379 0.98973 0.83259 0.0
H499 H 0.0949 0.15719 0.83557 0.0
H500 H 0.09872 0.12951 0.86359 0.0
H501 H 0.03937 0.1507 0.85433 0.0
C502 C 0.07614 0.02068 0.90671 0.0
C503 C 0.03783 0.04248 0.92115 0.0
C504 C 0.08295 0.02651 0.88071 0.0
C505 C 0.05209 0.05466 0.86915 0.0
C506 C 0.01573 0.0779 0.88415 0.0
H507 H 0.97644 0.09741 0.71104 0.0
H508 H 0.98037 0.10023 0.75851 0.0
C509 C 0.00872 0.07188 0.90987 0.0
C510 C 0.05289 0.05602 0.84081 0.0
H511 H 0.06231 0.12285 0.79488 0.0
C512 C 0.0408 0.0187 0.82432 0.0
C513 C 0.06068 0.09411 0.83011 0.0
C514 C 0.07456 0.13508 0.84682 0.0
C515 C 0.03571 0.01847 0.79748 0.0
C516 C 0.04412 0.05639 0.78674 0.0
C517 C 0.05593 0.09383 0.80318 0.0
C518 C 0.043 0.05705 0.75835 0.0
C519 C 0.02008 0.97779 0.78089 0.0
C520 C 0.07766 0.0328 0.74274 0.0
C521 C 0.07532 0.031 0.71588 0.0
C522 C 0.03856 0.05376 0.70403 0.0
C523 C 0.00508 0.07951 0.7197 0.0
C524 C 0.00726 0.08109 0.74673 0.0
H525 H 0.00177 0.95512 0.79249 0.0
H526 H 0.99338 0.98391 0.76522 0.0
H527 H 0.05421 0.96257 0.77177 0.0
H528 H 0.10633 0.01487 0.75137 0.0
H529 H 0.10234 0.01166 0.70432 0.0
H530 H 0.48095 0.53361 0.5871 0.0
H531 H 0.46198 0.52863 0.6329 0.0
H532 H 0.60342 0.46516 0.64085 0.0
H533 H 0.62271 0.47035 0.59574 0.0
H534 H 0.46942 0.45098 0.66645 0.0
H535 H 0.60572 0.58566 0.68989 0.0
H536 H 0.57377 0.57451 0.65881 0.0
H537 H 0.62662 0.54321 0.66635 0.0
C538 C 0.50722 0.51769 0.59852 0.0
C539 C 0.55364 0.50299 0.58808 0.0
C540 C 0.49641 0.51489 0.62459 0.0
C541 C 0.53168 0.49695 0.64018 0.0
C542 C 0.57599 0.47937 0.62913 0.0
H543 H 0.61258 0.47042 0.79543 0.0
H544 H 0.59957 0.46402 0.74844 0.0
C545 C 0.58697 0.48251 0.60339 0.0
C546 C 0.52614 0.50055 0.66858 0.0
H547 H 0.58184 0.54849 0.72453 0.0
C548 C 0.49321 0.47276 0.67925 0.0
C549 C 0.55753 0.52891 0.6851 0.0
C550 C 0.5927 0.56006 0.67457 0.0
C551 C 0.49238 0.47162 0.70616 0.0
C552 C 0.52523 0.4989 0.72247 0.0
C553 C 0.55692 0.52749 0.71184 0.0
C554 C 0.52881 0.49769 0.75066 0.0
C555 C 0.45805 0.4404 0.71706 0.0
C556 C 0.49296 0.51836 0.7673 0.0
C557 C 0.50038 0.52224 0.79414 0.0
C558 C 0.54375 0.50543 0.80469 0.0
C559 C 0.57857 0.48333 0.7879 0.0
C560 C 0.57128 0.47973 0.76109 0.0
H561 H 0.43648 0.41989 0.70167 0.0
H562 H 0.48081 0.42013 0.72842 0.0
H563 H 0.43073 0.4577 0.7305 0.0
H564 H 0.4602 0.53271 0.75951 0.0
H565 H 0.47268 0.53906 0.80663 0.0
H566 H 0.52061 0.60191 0.42917 0.0
H567 H 0.52366 0.61594 0.3841 0.0
H568 H 0.58967 0.49361 0.36202 0.0
H569 H 0.58436 0.47891 0.40699 0.0
H570 H 0.58919 0.61902 0.34515 0.0
H571 H 0.45769 0.48219 0.32194 0.0
H572 H 0.4755 0.50281 0.35475 0.0
H573 H 0.51647 0.46698 0.33534 0.0
C574 C 0.53755 0.57878 0.41477 0.0
C575 C 0.55268 0.53954 0.42133 0.0
C576 C 0.53892 0.58665 0.38904 0.0
C577 C 0.55543 0.5553 0.3696 0.0
C578 C 0.57545 0.51776 0.37665 0.0
H579 H 0.58513 0.50879 0.20767 0.0
H580 H 0.58633 0.51407 0.25477 0.0
C581 C 0.5733 0.50962 0.40233 0.0
C582 C 0.5472 0.56009 0.34194 0.0
H583 H 0.49344 0.51057 0.28587 0.0
C584 C 0.56796 0.59552 0.3322 0.0
C585 C 0.51793 0.53013 0.32525 0.0
C586 C 0.49013 0.49369 0.33491 0.0
C587 C 0.56294 0.60025 0.30584 0.0
C588 C 0.53681 0.56867 0.28895 0.0
C589 C 0.51402 0.53442 0.2989 0.0
C590 C 0.53697 0.56795 0.26053 0.0
C591 C 0.58702 0.63805 0.29596 0.0
C592 C 0.50881 0.59672 0.24821 0.0
C593 C 0.50784 0.59364 0.2211 0.0
C594 C 0.53466 0.56153 0.20608 0.0
C595 C 0.56331 0.53334 0.21866 0.0
C596 C 0.56431 0.53647 0.24557 0.0
H597 H 0.60973 0.65791 0.31119 0.0
H598 H 0.61192 0.62757 0.27935 0.0
H599 H 0.55693 0.65784 0.28893 0.0
H600 H 0.48697 0.62093 0.2595 0.0
H601 H 0.48522 0.61564 0.2119 0.0
loop_
_geom_bond_atom_site_label_1
_geom_bond_atom_site_label_2
_geom_bond_distance
_geom_bond_site_symmetry_2
_ccdc_geom_bond_type
O0 Mn1 2.163 . S
O0 C14 1.254 1_455 S
Mn1 O0 2.163 . S
Mn1 O4 2.160 1_544 S
Mn1 O5 2.221 . S
Mn1 O7 2.163 . S
Mn1 O9 2.160 1_554 S
Mn1 O19 2.221 1_444 S
O2 Mn3 2.087 . S
O2 C14 1.246 1_556 S
Mn3 O2 2.087 . S
Mn3 O10 2.089 . S
Mn3 O19 2.290 1_545 S
Mn3 O20 2.251 1_545 S
O4 Mn1 2.160 1_566 S
O4 C15 1.239 1_556 S
O5 Mn1 2.221 . S
O5 Mn6 2.290 . S
O5 C16 1.278 . S
Mn6 O5 2.290 . S
Mn6 O8 2.089 1_545 S
Mn6 O11 2.251 . S
Mn6 O12 2.087 . S
O7 Mn1 2.163 . S
O7 C17 1.244 . S
O8 Mn6 2.089 1_565 S
O8 C15 1.256 . S
O9 Mn1 2.160 1_556 S
O9 C18 1.239 . S
O10 Mn3 2.089 . S
O10 C18 1.256 1_655 S
O11 Mn6 2.251 . S
O11 C16 1.241 . S
O12 Mn6 2.087 . S
O12 C17 1.256 . S
C13 O19 1.278 1_554 S
C13 O20 1.241 1_554 S
C14 O0 1.254 1_655 S
C14 O2 1.246 1_554 S
C15 O4 1.239 1_554 S
C15 O8 1.256 . S
C16 O5 1.278 . S
C16 O11 1.241 . S
C17 O7 1.244 . S
C17 O12 1.256 . S
C18 O9 1.239 . S
C18 O10 1.256 1_455 S
O19 Mn1 2.221 1_666 S
O19 Mn3 2.290 1_565 S
O19 C13 1.278 1_556 S
O20 Mn3 2.251 1_565 S
O20 C13 1.241 1_556 S
O21 Mn22 2.163 . S
O21 C35 1.244 . S
Mn22 O21 2.163 . S
Mn22 O25 2.160 . S
Mn22 O26 2.221 . S
Mn22 O28 2.163 . S
Mn22 O30 2.160 . S
Mn22 O40 2.221 . S
O23 Mn24 2.087 . S
O23 C35 1.256 . S
Mn24 O23 2.087 . S
Mn24 O31 2.089 . S
Mn24 O40 2.290 . S
Mn24 O41 2.251 . S
O25 Mn22 2.160 . S
O25 C36 1.239 . S
O26 Mn22 2.221 . S
O26 Mn27 2.290 . S
O26 C37 1.278 . S
Mn27 O26 2.290 . S
Mn27 O29 2.089 . S
Mn27 O32 2.251 . S
Mn27 O33 2.087 . S
O28 Mn22 2.163 . S
O28 C38 1.244 . S
O29 Mn27 2.089 . S
O29 C36 1.256 . S
O30 Mn22 2.160 . S
O30 C39 1.239 . S
O31 Mn24 2.089 . S
O31 C39 1.256 . S
O32 Mn27 2.251 . S
O32 C37 1.241 . S
O33 Mn27 2.087 . S
O33 C38 1.256 . S
C34 O40 1.278 . S
C34 O41 1.241 . S
C35 O21 1.244 . S
C35 O23 1.256 . S
C36 O25 1.239 . S
C36 O29 1.256 . S
C37 O26 1.278 . S
C37 O32 1.241 . S
C38 O28 1.244 . S
C38 O33 1.256 . S
C39 O30 1.239 . S
C39 O31 1.256 . S
O40 Mn22 2.221 . S
O40 Mn24 2.290 . S
O40 C34 1.278 . S
O41 Mn24 2.251 . S
O41 C34 1.241 . S
P42 O53 1.490 . S
P42 C56 1.812 . S
P42 C62 1.803 1_545 S
P42 C68 1.819 . S
H43 C57 0.941 . S
H44 C58 0.939 . S
H45 C60 0.940 . S
H46 C61 0.940 . S
H47 C63 0.939 . S
H48 C64 0.942 . S
H49 C66 0.940 . S
H50 C67 0.939 . S
H51 C69 0.941 . S
H52 C73 0.939 . S
O53 P42 1.490 . S
H54 C70 0.939 . S
H55 C72 0.940 . S
C56 P42 1.812 . S
C56 C57 1.389 . S
C56 C61 1.391 1_455 S
C57 H43 0.941 . S
C57 C56 1.389 . S
C57 C58 1.397 . S
C58 H44 0.939 . S
C58 C57 1.397 . S
C58 C59 1.378 1_455 S
C59 C58 1.378 1_655 S
C59 C60 1.378 . S
C60 H45 0.940 . S
C60 C59 1.378 . S
C60 C61 1.396 . S
C61 H46 0.940 . S
C61 C56 1.391 1_655 S
C61 C60 1.396 . S
C62 P42 1.803 1_565 S
C62 C63 1.378 . S
C62 C67 1.400 . S
C63 H47 0.939 . S
C63 C62 1.378 . S
C63 C64 1.361 . S
C64 H48 0.942 . S
C64 C63 1.361 . S
C64 C65 1.369 . S
C65 C64 1.369 . S
C65 C66 1.404 . S
C66 H49 0.940 . S
C66 C65 1.404 . S
C66 C67 1.389 . S
C67 H50 0.939 . S
C67 C62 1.400 . S
C67 C66 1.389 . S
C68 P42 1.819 . S
C68 C69 1.391 . S
C68 C73 1.391 1_545 S
C69 H51 0.941 . S
C69 C68 1.391 . S
C69 C70 1.396 . S
C70 H54 0.939 . S
C70 C69 1.396 . S
C70 C71 1.397 . S
C71 C70 1.397 . S
C71 C72 1.385 1_545 S
C72 H55 0.940 . S
C72 C71 1.385 1_565 S
C72 C73 1.388 . S
C73 H52 0.939 . S
C73 C68 1.391 1_565 S
C73 C72 1.388 . S
P74 O85 1.490 . S
P74 C88 1.809 1_455 S
P74 C94 1.803 . S
P74 C100 1.819 . S
H75 C89 0.941 . S
H76 C90 0.939 . S
H77 C92 0.940 . S
H78 C93 0.940 . S
H79 C95 0.939 . S
H80 C96 0.942 . S
H81 C98 0.940 . S
H82 C99 0.953 . S
H83 C101 0.941 1_565 S
H84 C105 0.939 . S
O85 P74 1.490 . S
H86 C102 0.939 . S
H87 C104 0.940 . S
C88 P74 1.809 1_655 S
C88 C89 1.388 1_645 S
C88 C93 1.395 . S
C89 H75 0.941 . S
C89 C88 1.388 1_465 S
C89 C90 1.397 1_455 S
C90 H76 0.939 . S
C90 C89 1.397 1_655 S
C90 C91 1.378 . S
C91 C90 1.378 . S
C91 C92 1.378 1_565 S
C92 H77 0.940 . S
C92 C91 1.378 1_545 S
C92 C93 1.396 . S
C93 H78 0.940 . S
C93 C88 1.395 . S
C93 C92 1.396 . S
C94 P74 1.803 . S
C94 C95 1.378 . S
C94 C99 1.400 . S
C95 H79 0.939 . S
C95 C94 1.378 . S
C95 C96 1.361 . S
C96 H80 0.942 . S
C96 C95 1.361 . S
C96 C97 1.369 . S
C97 C96 1.369 . S
C97 C98 1.404 . S
C98 H81 0.940 . S
C98 C97 1.404 . S
C98 C99 1.389 . S
C99 H82 0.953 . S
C99 C94 1.400 . S
C99 C98 1.389 . S
C100 P74 1.819 . S
C100 C101 1.391 . S
C100 C105 1.391 . S
C101 H83 0.941 1_545 S
C101 C100 1.391 . S
C101 C102 1.396 . S
C102 H86 0.939 . S
C102 C101 1.396 . S
C102 C103 1.397 . S
C103 C102 1.397 . S
C103 C104 1.385 . S
C104 H87 0.940 . S
C104 C103 1.385 . S
C104 C105 1.388 . S
C105 H84 0.939 . S
C105 C100 1.391 . S
C105 C104 1.388 . S
P106 O117 1.490 . S
P106 C120 1.812 . S
P106 C126 1.803 . S
P106 C132 1.819 . S
H107 C121 0.941 . S
H108 C122 0.939 . S
H109 C124 0.940 . S
H110 C125 0.940 . S
H111 C127 0.939 . S
H112 C128 0.942 . S
H113 C130 0.940 . S
H114 C131 0.939 . S
H115 C133 0.941 . S
H116 C137 0.939 . S
O117 P106 1.490 . S
H118 C134 0.939 . S
H119 C136 0.940 . S
C120 P106 1.812 . S
C120 C121 1.389 . S
C120 C125 1.391 . S
C121 H107 0.941 . S
C121 C120 1.389 . S
C121 C122 1.397 . S
C122 H108 0.939 . S
C122 C121 1.397 . S
C122 C123 1.378 . S
C123 C122 1.378 . S
C123 C124 1.378 . S
C124 H109 0.940 . S
C124 C123 1.378 . S
C124 C125 1.396 . S
C125 H110 0.940 . S
C125 C120 1.391 . S
C125 C124 1.396 . S
C126 P106 1.803 . S
C126 C127 1.378 . S
C126 C131 1.400 . S
C127 H111 0.939 . S
C127 C126 1.378 . S
C127 C128 1.361 . S
C128 H112 0.942 . S
C128 C127 1.361 . S
C128 C129 1.369 . S
C129 C128 1.369 . S
C129 C130 1.404 . S
C130 H113 0.940 . S
C130 C129 1.404 . S
C130 C131 1.389 . S
C131 H114 0.939 . S
C131 C126 1.400 . S
C131 C130 1.389 . S
C132 P106 1.819 . S
C132 C133 1.391 . S
C132 C137 1.391 . S
C133 H115 0.941 . S
C133 C132 1.391 . S
C133 C134 1.396 . S
C134 H118 0.939 . S
C134 C133 1.396 . S
C134 C135 1.397 . S
C135 C134 1.397 . S
C135 C136 1.385 . S
C136 H119 0.940 . S
C136 C135 1.385 . S
C136 C137 1.388 . S
C137 H116 0.939 . S
C137 C132 1.391 . S
C137 C136 1.388 . S
P138 O149 1.490 . S
P138 C152 1.812 . S
P138 C158 1.803 . S
P138 C164 1.819 . S
H139 C153 0.941 . S
H140 C154 0.939 . S
H141 C156 0.940 . S
H142 C157 0.940 . S
H143 C159 0.939 . S
H144 C160 0.942 . S
H145 C162 0.940 . S
H146 C163 0.939 . S
H147 C165 0.941 . S
H148 C169 0.939 . S
O149 P138 1.490 . S
H150 C166 0.939 . S
H151 C168 0.940 . S
C152 P138 1.812 . S
C152 C153 1.389 . S
C152 C157 1.391 . S
C153 H139 0.941 . S
C153 C152 1.389 . S
C153 C154 1.397 . S
C154 H140 0.939 . S
C154 C153 1.397 . S
C154 C155 1.378 . S
C155 C154 1.378 . S
C155 C156 1.378 . S
C156 H141 0.940 . S
C156 C155 1.378 . S
C156 C157 1.396 . S
C157 H142 0.940 . S
C157 C152 1.391 . S
C157 C156 1.396 . S
C158 P138 1.803 . S
C158 C159 1.378 . S
C158 C163 1.400 . S
C159 H143 0.939 . S
C159 C158 1.378 . S
C159 C160 1.361 . S
C160 H144 0.942 . S
C160 C159 1.361 . S
C160 C161 1.369 . S
C161 C160 1.369 . S
C161 C162 1.404 . S
C162 H145 0.940 . S
C162 C161 1.404 . S
C162 C163 1.389 . S
C163 H146 0.939 . S
C163 C158 1.400 . S
C163 C162 1.389 . S
C164 P138 1.819 . S
C164 C165 1.391 . S
C164 C169 1.391 . S
C165 H147 0.941 . S
C165 C164 1.391 . S
C165 C166 1.396 . S
C166 H150 0.939 . S
C166 C165 1.396 . S
C166 C167 1.397 . S
C167 C166 1.397 . S
C167 C168 1.385 . S
C168 H151 0.940 . S
C168 C167 1.385 . S
C168 C169 1.388 . S
C169 H148 0.939 . S
C169 C164 1.391 . S
C169 C168 1.388 . S
H170 C178 0.929 . S
H171 C180 0.930 . S
H172 C182 0.930 1_556 S
H173 C185 0.947 . S
H174 C188 0.930 . S
H175 C190 0.960 . S
H176 C190 0.960 . S
H177 C190 0.960 . S
C178 H170 0.929 . S
C178 C179 1.377 . S
C178 C180 1.384 . S
C179 C178 1.377 . S
C179 C185 1.374 1_554 S
C180 H171 0.930 . S
C180 C178 1.384 . S
C180 C181 1.372 . S
C181 C180 1.372 . S
C181 C182 1.400 . S
C181 C186 1.490 . S
C182 H172 0.930 1_554 S
C182 C181 1.400 . S
C182 C185 1.384 1_554 S
H183 C199 0.930 . S
H184 C200 0.931 . S
C185 H173 0.947 . S
C185 C179 1.374 1_556 S
C185 C182 1.384 1_556 S
C186 C181 1.490 . S
C186 C188 1.395 . S
C186 C189 1.403 . S
H187 C193 0.930 . S
C188 H174 0.930 . S
C188 C186 1.395 . S
C188 C191 1.403 . S
C189 C186 1.403 . S
C189 C190 1.524 . S
C189 C193 1.400 . S
C190 H175 0.960 . S
C190 H176 0.960 . S
C190 H177 0.960 . S
C190 C189 1.524 . S
C191 C188 1.403 . S
C191 C192 1.392 . S
C191 C195 1.495 . S
C192 C191 1.392 . S
C192 C193 1.385 . S
C192 C194 1.478 . S
C193 H187 0.930 . S
C193 C189 1.400 . S
C193 C192 1.385 . S
C194 C192 1.478 . S
C194 C196 1.381 . S
C194 C200 1.383 . S
C195 C191 1.495 . S
C195 H201 0.959 . S
C195 H202 0.961 . S
C195 H203 0.960 . S
C196 C194 1.381 . S
C196 C197 1.394 . S
C196 H204 0.930 . S
C197 C196 1.394 . S
C197 C198 1.383 . S
C197 H205 0.929 . S
C198 C197 1.383 . S
C198 C199 1.377 . S
C199 H183 0.930 . S
C199 C198 1.377 . S
C199 C200 1.379 . S
C200 H184 0.931 . S
C200 C194 1.383 . S
C200 C199 1.379 . S
H201 C195 0.959 . S
H202 C195 0.961 . S
H203 C195 0.960 . S
H204 C196 0.930 . S
H205 C197 0.929 . S
H206 C214 0.929 . S
H207 C216 0.930 . S
H208 C218 0.930 . S
H209 C221 0.929 . S
H210 C224 0.930 . S
H211 C226 0.960 . S
H212 C226 0.960 . S
H213 C226 0.960 1_554 S
C214 H206 0.929 . S
C214 C215 1.377 1_556 S
C214 C216 1.384 . S
C215 C214 1.377 1_554 S
C215 C221 1.390 . S
C216 H207 0.930 . S
C216 C214 1.384 . S
C216 C217 1.372 . S
C217 C216 1.372 . S
C217 C218 1.400 1_556 S
C217 C222 1.490 . S
C218 H208 0.930 . S
C218 C217 1.400 1_554 S
C218 C221 1.386 . S
H219 C235 0.930 1_554 S
H220 C236 0.931 1_554 S
C221 H209 0.929 . S
C221 C215 1.390 . S
C221 C218 1.386 . S
C222 C217 1.490 . S
C222 C224 1.395 . S
C222 C225 1.403 . S
H223 C229 0.930 . S
C224 H210 0.930 . S
C224 C222 1.395 . S
C224 C227 1.403 . S
C225 C222 1.403 . S
C225 C226 1.524 . S
C225 C229 1.400 . S
C226 H211 0.960 . S
C226 H212 0.960 . S
C226 H213 0.960 1_556 S
C226 C225 1.524 . S
C227 C224 1.403 . S
C227 C228 1.392 . S
C227 C231 1.495 . S
C228 C227 1.392 . S
C228 C229 1.385 . S
C228 C230 1.478 . S
C229 H223 0.930 . S
C229 C225 1.400 . S
C229 C228 1.385 . S
C230 C228 1.478 . S
C230 C232 1.381 . S
C230 C236 1.383 . S
C231 C227 1.495 . S
C231 H237 0.959 . S
C231 H238 0.961 . S
C231 H239 0.960 . S
C232 C230 1.381 . S
C232 C233 1.394 . S
C232 H240 0.930 . S
C233 C232 1.394 . S
C233 C234 1.383 . S
C233 H241 0.929 . S
C234 C233 1.383 . S
C234 C235 1.377 . S
C235 H219 0.930 1_556 S
C235 C234 1.377 . S
C235 C236 1.379 . S
C236 H220 0.931 1_556 S
C236 C230 1.383 . S
C236 C235 1.379 . S
H237 C231 0.959 . S
H238 C231 0.961 . S
H239 C231 0.960 . S
H240 C232 0.930 . S
H241 C233 0.929 . S
H242 C250 0.929 . S
H243 C252 0.920 1_556 S
H244 C254 0.930 . S
H245 C257 0.929 . S
H246 C260 0.930 . S
H247 C262 0.960 . S
H248 C262 0.960 . S
H249 C262 0.960 . S
C250 H242 0.929 . S
C250 C251 1.377 1_556 S
C250 C252 1.380 1_556 S
C251 C250 1.377 1_554 S
C251 C257 1.390 . S
C252 H243 0.920 1_554 S
C252 C250 1.380 1_554 S
C252 C253 1.386 . S
C253 C252 1.386 . S
C253 C254 1.400 . S
C253 C258 1.490 . S
C254 H244 0.930 . S
C254 C253 1.400 . S
C254 C257 1.386 . S
H255 C271 0.930 . S
H256 C272 0.931 . S
C257 H245 0.929 . S
C257 C251 1.390 . S
C257 C254 1.386 . S
C258 C253 1.490 . S
C258 C260 1.395 . S
C258 C261 1.403 . S
H259 C265 0.930 . S
C260 H246 0.930 . S
C260 C258 1.395 . S
C260 C263 1.403 . S
C261 C258 1.403 . S
C261 C262 1.524 . S
C261 C265 1.400 . S
C262 H247 0.960 . S
C262 H248 0.960 . S
C262 H249 0.960 . S
C262 C261 1.524 . S
C263 C260 1.403 . S
C263 C264 1.392 . S
C263 C267 1.495 . S
C264 C263 1.392 . S
C264 C265 1.385 . S
C264 C266 1.478 . S
C265 H259 0.930 . S
C265 C261 1.400 . S
C265 C264 1.385 . S
C266 C264 1.478 . S
C266 C268 1.381 . S
C266 C272 1.383 . S
C267 C263 1.495 . S
C267 H273 0.959 . S
C267 H274 0.961 . S
C267 H275 0.960 . S
C268 C266 1.381 . S
C268 C269 1.394 . S
C268 H276 0.930 . S
C269 C268 1.394 . S
C269 C270 1.383 . S
C269 H277 0.929 . S
C270 C269 1.383 . S
C270 C271 1.377 . S
C271 H255 0.930 . S
C271 C270 1.377 . S
C271 C272 1.379 . S
C272 H256 0.931 . S
C272 C266 1.383 . S
C272 C271 1.379 . S
H273 C267 0.959 . S
H274 C267 0.961 . S
H275 C267 0.960 . S
H276 C268 0.930 . S
H277 C269 0.929 . S
H278 C286 0.929 . S
H279 C288 0.930 . S
H280 C290 0.930 . S
H281 C293 0.929 . S
H282 C296 0.930 . S
H283 C298 0.960 . S
H284 C298 0.960 . S
H285 C298 0.960 . S
C286 H278 0.929 . S
C286 C287 1.347 1_556 S
C286 C288 1.384 . S
C287 C286 1.347 1_554 S
C287 C293 1.411 . S
C288 H279 0.930 . S
C288 C286 1.384 . S
C288 C289 1.372 . S
C289 C288 1.372 . S
C289 C290 1.400 1_556 S
C289 C294 1.490 . S
C290 H280 0.930 . S
C290 C289 1.400 1_554 S
C290 C293 1.386 . S
H291 C307 0.930 . S
H292 C308 0.931 1_554 S
C293 H281 0.929 . S
C293 C287 1.411 . S
C293 C290 1.386 . S
C294 C289 1.490 . S
C294 C296 1.395 . S
C294 C297 1.403 . S
H295 C301 0.930 . S
C296 H282 0.930 . S
C296 C294 1.395 . S
C296 C299 1.403 . S
C297 C294 1.403 . S
C297 C298 1.524 1_556 S
C297 C301 1.400 . S
C298 H283 0.960 . S
C298 H284 0.960 . S
C298 H285 0.960 . S
C298 C297 1.524 1_554 S
C299 C296 1.403 . S
C299 C300 1.392 . S
C299 C303 1.495 . S
C300 C299 1.392 . S
C300 C301 1.385 . S
C300 C302 1.478 . S
C301 H295 0.930 . S
C301 C297 1.400 . S
C301 C300 1.385 . S
C302 C300 1.478 . S
C302 C304 1.381 . S
C302 C308 1.383 . S
C303 C299 1.495 . S
C303 H309 0.959 . S
C303 H310 0.961 . S
C303 H311 0.960 . S
C304 C302 1.381 . S
C304 C305 1.394 . S
C304 H312 0.930 . S
C305 C304 1.394 . S
C305 C306 1.383 . S
C305 H313 0.929 . S
C306 C305 1.383 . S
C306 C307 1.377 . S
C307 H291 0.930 . S
C307 C306 1.377 . S
C307 C308 1.379 . S
C308 H292 0.931 1_556 S
C308 C302 1.383 . S
C308 C307 1.379 . S
H309 C303 0.959 . S
H310 C303 0.961 . S
H311 C303 0.960 . S
H312 C304 0.930 . S
H313 C305 0.929 . S
H314 C322 0.929 . S
H315 C324 0.930 . S
H316 C326 0.930 . S
H317 C329 0.929 . S
H318 C332 0.930 . S
H319 C334 0.960 . S
H320 C334 0.960 . S
H321 C334 0.960 . S
C322 H314 0.929 . S
C322 C323 1.377 . S
C322 C324 1.384 . S
C323 C322 1.377 . S
C323 C329 1.390 . S
C324 H315 0.930 . S
C324 C322 1.384 . S
C324 C325 1.372 . S
C325 C324 1.372 . S
C325 C326 1.400 . S
C325 C330 1.490 . S
C326 H316 0.930 . S
C326 C325 1.400 . S
C326 C329 1.386 . S
H327 C343 0.930 . S
H328 C344 0.931 . S
C329 H317 0.929 . S
C329 C323 1.390 . S
C329 C326 1.386 . S
C330 C325 1.490 . S
C330 C332 1.395 . S
C330 C333 1.403 . S
H331 C337 0.930 . S
C332 H318 0.930 . S
C332 C330 1.395 . S
C332 C335 1.403 . S
C333 C330 1.403 . S
C333 C334 1.524 . S
C333 C337 1.400 . S
C334 H319 0.960 . S
C334 H320 0.960 . S
C334 H321 0.960 . S
C334 C333 1.524 . S
C335 C332 1.403 . S
C335 C336 1.392 . S
C335 C339 1.495 . S
C336 C335 1.392 . S
C336 C337 1.385 . S
C336 C338 1.478 . S
C337 H331 0.930 . S
C337 C333 1.400 . S
C337 C336 1.385 . S
C338 C336 1.478 . S
C338 C340 1.381 . S
C338 C344 1.383 . S
C339 C335 1.495 . S
C339 H345 0.959 . S
C339 H346 0.961 . S
C339 H347 0.960 . S
C340 C338 1.381 . S
C340 C341 1.394 . S
C340 H348 0.930 . S
C341 C340 1.394 . S
C341 C342 1.383 . S
C341 H349 0.929 . S
C342 C341 1.383 . S
C342 C343 1.377 . S
C343 H327 0.930 . S
C343 C342 1.377 . S
C343 C344 1.379 . S
C344 H328 0.931 . S
C344 C338 1.383 . S
C344 C343 1.379 . S
H345 C339 0.959 . S
H346 C339 0.961 . S
H347 C339 0.960 . S
H348 C340 0.930 . S
H349 C341 0.929 . S
H350 C358 0.929 . S
H351 C360 0.930 . S
H352 C362 0.930 . S
H353 C365 0.929 . S
H354 C368 0.930 . S
H355 C370 0.960 . S
H356 C370 0.960 . S
H357 C370 0.960 . S
C358 H350 0.929 . S
C358 C359 1.377 . S
C358 C360 1.384 . S
C359 C358 1.377 . S
C359 C365 1.390 . S
C360 H351 0.930 . S
C360 C358 1.384 . S
C360 C361 1.372 . S
C361 C360 1.372 . S
C361 C362 1.400 . S
C361 C366 1.490 . S
C362 H352 0.930 . S
C362 C361 1.400 . S
C362 C365 1.386 . S
H363 C379 0.930 . S
H364 C380 0.931 . S
C365 H353 0.929 . S
C365 C359 1.390 . S
C365 C362 1.386 . S
C366 C361 1.490 . S
C366 C368 1.395 . S
C366 C369 1.403 . S
H367 C373 0.930 . S
C368 H354 0.930 . S
C368 C366 1.395 . S
C368 C371 1.403 . S
C369 C366 1.403 . S
C369 C370 1.524 . S
C369 C373 1.400 . S
C370 H355 0.960 . S
C370 H356 0.960 . S
C370 H357 0.960 . S
C370 C369 1.524 . S
C371 C368 1.403 . S
C371 C372 1.392 . S
C371 C375 1.495 . S
C372 C371 1.392 . S
C372 C373 1.385 . S
C372 C374 1.478 . S
C373 H367 0.930 . S
C373 C369 1.400 . S
C373 C372 1.385 . S
C374 C372 1.478 . S
C374 C376 1.381 . S
C374 C380 1.383 . S
C375 C371 1.495 . S
C375 H381 0.959 . S
C375 H382 0.961 . S
C375 H383 0.960 . S
C376 C374 1.381 . S
C376 C377 1.394 . S
C376 H384 0.930 . S
C377 C376 1.394 . S
C377 C378 1.383 . S
C377 H385 0.929 . S
C378 C377 1.383 . S
C378 C379 1.377 . S
C379 H363 0.930 . S
C379 C378 1.377 . S
C379 C380 1.379 . S
C380 H364 0.931 . S
C380 C374 1.383 . S
C380 C379 1.379 . S
H381 C375 0.959 . S
H382 C375 0.961 . S
H383 C375 0.960 . S
H384 C376 0.930 . S
H385 C377 0.929 . S
H386 C394 0.929 . S
H387 C396 0.930 . S
H388 C398 0.930 . S
H389 C401 0.929 . S
H390 C404 0.930 . S
H391 C406 0.960 . S
H392 C406 0.960 . S
H393 C406 0.960 . S
C394 H386 0.929 . S
C394 C395 1.377 . S
C394 C396 1.384 . S
C395 C394 1.377 . S
C395 C401 1.390 . S
C396 H387 0.930 . S
C396 C394 1.384 . S
C396 C397 1.372 . S
C397 C396 1.372 . S
C397 C398 1.400 . S
C397 C402 1.490 . S
C398 H388 0.930 . S
C398 C397 1.400 . S
C398 C401 1.386 . S
H399 C415 0.930 . S
H400 C416 0.931 . S
C401 H389 0.929 . S
C401 C395 1.390 . S
C401 C398 1.386 . S
C402 C397 1.490 . S
C402 C404 1.395 . S
C402 C405 1.403 . S
H403 C409 0.930 . S
C404 H390 0.930 . S
C404 C402 1.395 . S
C404 C407 1.403 . S
C405 C402 1.403 . S
C405 C406 1.524 . S
C405 C409 1.400 . S
C406 H391 0.960 . S
C406 H392 0.960 . S
C406 H393 0.960 . S
C406 C405 1.524 . S
C407 C404 1.403 . S
C407 C408 1.392 . S
C407 C411 1.495 . S
C408 C407 1.392 . S
C408 C409 1.385 . S
C408 C410 1.478 . S
C409 H403 0.930 . S
C409 C405 1.400 . S
C409 C408 1.385 . S
C410 C408 1.478 . S
C410 C412 1.381 . S
C410 C416 1.383 . S
C411 C407 1.495 . S
C411 H417 0.959 . S
C411 H418 0.961 . S
C411 H419 0.960 . S
C412 C410 1.381 . S
C412 C413 1.394 . S
C412 H420 0.930 . S
C413 C412 1.394 . S
C413 C414 1.383 . S
C413 H421 0.929 . S
C414 C413 1.383 . S
C414 C415 1.377 . S
C415 H399 0.930 . S
C415 C414 1.377 . S
C415 C416 1.379 . S
C416 H400 0.931 . S
C416 C410 1.383 . S
C416 C415 1.379 . S
H417 C411 0.959 . S
H418 C411 0.961 . S
H419 C411 0.960 . S
H420 C412 0.930 . S
H421 C413 0.929 . S
H422 C430 0.929 . S
H423 C432 0.930 . S
H424 C434 0.930 . S
H425 C437 0.929 . S
H426 C440 0.930 . S
H427 C442 0.960 . S
H428 C442 0.960 . S
H429 C442 0.960 . S
C430 H422 0.929 . S
C430 C431 1.377 . S
C430 C432 1.384 . S
C431 C430 1.377 . S
C431 C437 1.390 . S
C432 H423 0.930 . S
C432 C430 1.384 . S
C432 C433 1.372 . S
C433 C432 1.372 . S
C433 C434 1.400 . S
C433 C438 1.490 . S
C434 H424 0.930 . S
C434 C433 1.400 . S
C434 C437 1.386 . S
H435 C451 0.930 . S
H436 C452 0.931 . S
C437 H425 0.929 . S
C437 C431 1.390 . S
C437 C434 1.386 . S
C438 C433 1.490 . S
C438 C440 1.395 . S
C438 C441 1.403 . S
H439 C445 0.930 . S
C440 H426 0.930 . S
C440 C438 1.395 . S
C440 C443 1.403 . S
C441 C438 1.403 . S
C441 C442 1.524 . S
C441 C445 1.400 . S
C442 H427 0.960 . S
C442 H428 0.960 . S
C442 H429 0.960 . S
C442 C441 1.524 . S
C443 C440 1.403 . S
C443 C444 1.392 . S
C443 C447 1.495 . S
C444 C443 1.392 . S
C444 C445 1.385 . S
C444 C446 1.478 . S
C445 H439 0.930 . S
C445 C441 1.400 . S
C445 C444 1.385 . S
C446 C444 1.478 . S
C446 C448 1.381 . S
C446 C452 1.383 . S
C447 C443 1.495 . S
C447 H453 0.959 . S
C447 H454 0.961 . S
C447 H455 0.960 . S
C448 C446 1.381 . S
C448 C449 1.394 . S
C448 H456 0.930 . S
C449 C448 1.394 . S
C449 C450 1.383 . S
C449 H457 0.929 . S
C450 C449 1.383 . S
C450 C451 1.377 . S
C451 H435 0.930 . S
C451 C450 1.377 . S
C451 C452 1.379 . S
C452 H436 0.931 . S
C452 C446 1.383 . S
C452 C451 1.379 . S
H453 C447 0.959 . S
H454 C447 0.961 . S
H455 C447 0.960 . S
H456 C448 0.930 . S
H457 C449 0.929 . S
H458 C466 0.929 . S
H459 C468 0.930 . S
H460 C470 0.928 1_665 S
H461 C473 0.929 1_665 S
H462 C476 0.930 . S
H463 C478 0.960 . S
H464 C478 0.960 . S
H465 C478 0.960 . S
C466 H458 0.929 . S
C466 C467 1.377 . S
C466 C468 1.384 . S
C467 C466 1.377 . S
C467 C473 1.390 . S
C468 H459 0.930 . S
C468 C466 1.384 . S
C468 C469 1.372 . S
C469 C468 1.372 . S
C469 C470 1.401 . S
C469 C474 1.490 . S
C470 H460 0.928 1_445 S
C470 C469 1.401 . S
C470 C473 1.387 . S
H471 C487 0.930 1_655 S
H472 C488 0.929 1_665 S
C473 H461 0.929 1_445 S
C473 C467 1.390 . S
C473 C470 1.387 . S
C474 C469 1.490 . S
C474 C476 1.395 . S
C474 C477 1.403 1_545 S
H475 C481 0.930 . S
C476 H462 0.930 . S
C476 C474 1.395 . S
C476 C479 1.403 . S
C477 C474 1.403 1_565 S
C477 C478 1.524 . S
C477 C481 1.400 . S
C478 H463 0.960 . S
C478 H464 0.960 . S
C478 H465 0.960 . S
C478 C477 1.524 . S
C479 C476 1.403 . S
C479 C480 1.392 . S
C479 C483 1.495 . S
C480 C479 1.392 . S
C480 C481 1.385 1_545 S
C480 C482 1.478 . S
C481 H475 0.930 . S
C481 C477 1.400 . S
C481 C480 1.385 1_565 S
C482 C480 1.478 . S
C482 C484 1.381 . S
C482 C488 1.392 . S
C483 C479 1.495 . S
C483 H489 0.959 . S
C483 H490 0.961 . S
C483 H491 0.960 . S
C484 C482 1.381 . S
C484 C485 1.394 . S
C484 H492 0.930 . S
C485 C484 1.394 . S
C485 C486 1.383 . S
C485 H493 0.929 . S
C486 C485 1.383 . S
C486 C487 1.377 1_545 S
C487 H471 0.930 1_455 S
C487 C486 1.377 1_565 S
C487 C488 1.373 1_565 S
C488 H472 0.929 1_445 S
C488 C482 1.392 . S
C488 C487 1.373 1_545 S
H489 C483 0.959 . S
H490 C483 0.961 . S
H491 C483 0.960 . S
H492 C484 0.930 . S
H493 C485 0.929 . S
H494 C502 0.929 . S
H495 C504 0.930 . S
H496 C506 0.918 1_655 S
H497 C509 0.929 1_655 S
H498 C512 0.930 1_565 S
H499 C514 0.960 . S
H500 C514 0.960 . S
H501 C514 0.960 . S
C502 H494 0.929 . S
C502 C503 1.377 . S
C502 C504 1.384 . S
C503 C502 1.377 . S
C503 C509 1.390 . S
C504 H495 0.930 . S
C504 C502 1.384 . S
C504 C505 1.372 . S
C505 C504 1.372 . S
C505 C506 1.410 . S
C505 C510 1.490 . S
C506 H496 0.918 1_455 S
C506 C505 1.410 . S
C506 C509 1.387 . S
H507 C523 0.930 . S
H508 C524 0.931 . S
C509 H497 0.929 1_455 S
C509 C503 1.390 . S
C509 C506 1.387 . S
C510 C505 1.490 . S
C510 C512 1.395 . S
C510 C513 1.403 . S
H511 C517 0.930 . S
C512 H498 0.930 1_545 S
C512 C510 1.395 . S
C512 C515 1.403 . S
C513 C510 1.403 . S
C513 C514 1.524 . S
C513 C517 1.400 . S
C514 H499 0.960 . S
C514 H500 0.960 . S
C514 H501 0.960 . S
C514 C513 1.524 . S
C515 C512 1.403 . S
C515 C516 1.392 . S
C515 C519 1.495 1_545 S
C516 C515 1.392 . S
C516 C517 1.385 . S
C516 C518 1.478 . S
C517 H511 0.930 . S
C517 C513 1.400 . S
C517 C516 1.385 . S
C518 C516 1.478 . S
C518 C520 1.381 . S
C518 C524 1.383 1_455 S
C519 C515 1.495 1_565 S
C519 H525 0.959 . S
C519 H526 0.961 1_455 S
C519 H527 0.960 . S
C520 C518 1.381 . S
C520 C521 1.394 . S
C520 H528 0.930 . S
C521 C520 1.394 . S
C521 C522 1.383 . S
C521 H529 0.929 . S
C522 C521 1.383 . S
C522 C523 1.377 1_455 S
C523 H507 0.930 . S
C523 C522 1.377 1_655 S
C523 C524 1.379 . S
C524 H508 0.931 . S
C524 C518 1.383 1_655 S
C524 C523 1.379 . S
H525 C519 0.959 . S
H526 C519 0.961 1_655 S
H527 C519 0.960 . S
H528 C520 0.930 . S
H529 C521 0.929 . S
H530 C538 0.929 . S
H531 C540 0.930 . S
H532 C542 0.930 . S
H533 C545 0.929 . S
H534 C548 0.930 . S
H535 C550 0.960 . S
H536 C550 0.960 . S
H537 C550 0.960 . S
C538 H530 0.929 . S
C538 C539 1.377 . S
C538 C540 1.384 . S
C539 C538 1.377 . S
C539 C545 1.390 . S
C540 H531 0.930 . S
C540 C538 1.384 . S
C540 C541 1.372 . S
C541 C540 1.372 . S
C541 C542 1.400 . S
C541 C546 1.490 . S
C542 H532 0.930 . S
C542 C541 1.400 . S
C542 C545 1.386 . S
H543 C559 0.930 . S
H544 C560 0.931 . S
C545 H533 0.929 . S
C545 C539 1.390 . S
C545 C542 1.386 . S
C546 C541 1.490 . S
C546 C548 1.395 . S
C546 C549 1.403 . S
H547 C553 0.930 . S
C548 H534 0.930 . S
C548 C546 1.395 . S
C548 C551 1.403 . S
C549 C546 1.403 . S
C549 C550 1.524 . S
C549 C553 1.400 . S
C550 H535 0.960 . S
C550 H536 0.960 . S
C550 H537 0.960 . S
C550 C549 1.524 . S
C551 C548 1.403 . S
C551 C552 1.392 . S
C551 C555 1.495 . S
C552 C551 1.392 . S
C552 C553 1.385 . S
C552 C554 1.478 . S
C553 H547 0.930 . S
C553 C549 1.400 . S
C553 C552 1.385 . S
C554 C552 1.478 . S
C554 C556 1.381 . S
C554 C560 1.383 . S
C555 C551 1.495 . S
C555 H561 0.959 . S
C555 H562 0.961 . S
C555 H563 0.960 . S
C556 C554 1.381 . S
C556 C557 1.394 . S
C556 H564 0.930 . S
C557 C556 1.394 . S
C557 C558 1.383 . S
C557 H565 0.929 . S
C558 C557 1.383 . S
C558 C559 1.377 . S
C559 H543 0.930 . S
C559 C558 1.377 . S
C559 C560 1.379 . S
C560 H544 0.931 . S
C560 C554 1.383 . S
C560 C559 1.379 . S
H561 C555 0.959 . S
H562 C555 0.961 . S
H563 C555 0.960 . S
H564 C556 0.930 . S
H565 C557 0.929 . S
H566 C574 0.929 . S
H567 C576 0.930 . S
H568 C578 0.930 . S
H569 C581 0.929 . S
H570 C584 0.930 . S
H571 C586 0.960 . S
H572 C586 0.960 . S
H573 C586 0.960 . S
C574 H566 0.929 . S
C574 C575 1.377 . S
C574 C576 1.384 . S
C575 C574 1.377 . S
C575 C581 1.390 . S
C576 H567 0.930 . S
C576 C574 1.384 . S
C576 C577 1.372 . S
C577 C576 1.372 . S
C577 C578 1.400 . S
C577 C582 1.490 . S
C578 H568 0.930 . S
C578 C577 1.400 . S
C578 C581 1.386 . S
H579 C595 0.930 . S
H580 C596 0.931 . S
C581 H569 0.929 . S
C581 C575 1.390 . S
C581 C578 1.386 . S
C582 C577 1.490 . S
C582 C584 1.395 . S
C582 C585 1.403 . S
H583 C589 0.930 . S
C584 H570 0.930 . S
C584 C582 1.395 . S
C584 C587 1.403 . S
C585 C582 1.403 . S
C585 C586 1.524 . S
C585 C589 1.400 . S
C586 H571 0.960 . S
C586 H572 0.960 . S
C586 H573 0.960 . S
C586 C585 1.524 . S
C587 C584 1.403 . S
C587 C588 1.392 . S
C587 C591 1.495 . S
C588 C587 1.392 . S
C588 C589 1.385 . S
C588 C590 1.478 . S
C589 H583 0.930 . S
C589 C585 1.400 . S
C589 C588 1.385 . S
C590 C588 1.478 . S
C590 C592 1.381 . S
C590 C596 1.383 . S
C591 C587 1.495 . S
C591 H597 0.959 . S
C591 H598 0.961 . S
C591 H599 0.960 . S
C592 C590 1.381 . S
C592 C593 1.394 . S
C592 H600 0.930 . S
C593 C592 1.394 . S
C593 C594 1.383 . S
C593 H601 0.929 . S
C594 C593 1.383 . S
C594 C595 1.377 . S
C595 H579 0.930 . S
C595 C594 1.377 . S
C595 C596 1.379 . S
C596 H580 0.931 . S
C596 C590 1.383 . S
C596 C595 1.379 . S
H597 C591 0.959 . S
H598 C591 0.961 . S
H599 C591 0.960 . S
H600 C592 0.930 . S
H601 C593 0.929 . S
C198 C155 1.316 . S
C179 C16 1.192 . S
C215 C15 1.441 . S
C234 C123 1.391 . S
C251 C13 1.247 . S
C270 C161 1.351 . S
C287 C14 1.269 . S
C306 C129 1.299 . S
C323 C37 1.191 . S
C342 C91 1.355 . S
C359 C36 1.439 . S
C378 C59 1.403 . S
C414 C97 1.352 . S
C395 C34 1.245 . S
C450 C65 1.296 . S
C431 C35 1.259 . S
C467 C17 1.514 . S
C486 C71 1.506 . S
C503 C18 1.369 . S
C522 C103 1.350 . S
C558 C135 1.541 . S
C539 C38 1.515 . S
C575 C39 1.357 . S
C594 C167 1.367 . S
