# Generated by pormake.
# Topology ptr, (4,4)-cn, num edge types: 1
# Building blocks:
#     Node 0, Type 0, BuildingBlock: UXUYUI_clean_sbu_0, # of connection points: 4
#     Node 1, Type 0, BuildingBlock: UXUYUI_clean_sbu_0, # of connection points: 4
#     Node 2, Type 0, BuildingBlock: UXUYUI_clean_sbu_0, # of connection points: 4
#     Node 3, Type 0, BuildingBlock: UXUYUI_clean_sbu_0, # of connection points: 4
#     Node 4, Type 0, BuildingBlock: UXUYUI_clean_sbu_0, # of connection points: 4
#     Node 5, Type 0, BuildingBlock: UXUYUI_clean_sbu_0, # of connection points: 4
#     Node 6, Type 0, BuildingBlock: UXUYUI_clean_sbu_0, # of connection points: 4
#     Node 7, Type 0, BuildingBlock: UXUYUI_clean_sbu_0, # of connection points: 4
#     Node 8, Type 0, BuildingBlock: UXUYUI_clean_sbu_0, # of connection points: 4
#     Node 9, Type 0, BuildingBlock: UXUYUI_clean_sbu_0, # of connection points: 4
#     Node 10, Type 0, BuildingBlock: UXUYUI_clean_sbu_0, # of connection points: 4
#     Node 11, Type 0, BuildingBlock: UXUYUI_clean_sbu_0, # of connection points: 4
#     Node 12, Type 0, BuildingBlock: UXUYUI_clean_sbu_0, # of connection points: 4
#     Node 13, Type 0, BuildingBlock: UXUYUI_clean_sbu_0, # of connection points: 4
#     Node 14, Type 0, BuildingBlock: UXUYUI_clean_sbu_0, # of connection points: 4
#     Node 15, Type 0, BuildingBlock: UXUYUI_clean_sbu_0, # of connection points: 4
#     Node 16, Type 0, BuildingBlock: UXUYUI_clean_sbu_0, # of connection points: 4
#     Node 17, Type 0, BuildingBlock: UXUYUI_clean_sbu_0, # of connection points: 4
#     Node 18, Type 1, BuildingBlock: MUDLON_clean_linker_0, # of connection points: 4
#     Node 19, Type 1, BuildingBlock: MUDLON_clean_linker_0, # of connection points: 4
#     Node 20, Type 1, BuildingBlock: MUDLON_clean_linker_0, # of connection points: 4
#     Node 21, Type 1, BuildingBlock: MUDLON_clean_linker_0, # of connection points: 4
#     Node 22, Type 1, BuildingBlock: MUDLON_clean_linker_0, # of connection points: 4
#     Node 23, Type 1, BuildingBlock: MUDLON_clean_linker_0, # of connection points: 4
#     Node 24, Type 1, BuildingBlock: MUDLON_clean_linker_0, # of connection points: 4
#     Node 25, Type 1, BuildingBlock: MUDLON_clean_linker_0, # of connection points: 4
#     Node 26, Type 1, BuildingBlock: MUDLON_clean_linker_0, # of connection points: 4
#     Node 27, Type 1, BuildingBlock: MUDLON_clean_linker_0, # of connection points: 4
#     Node 28, Type 1, BuildingBlock: MUDLON_clean_linker_0, # of connection points: 4
#     Node 29, Type 1, BuildingBlock: MUDLON_clean_linker_0, # of connection points: 4
#     Node 30, Type 1, BuildingBlock: MUDLON_clean_linker_0, # of connection points: 4
#     Node 31, Type 1, BuildingBlock: MUDLON_clean_linker_0, # of connection points: 4
#     Node 32, Type 1, BuildingBlock: MUDLON_clean_linker_0, # of connection points: 4
#     Node 33, Type 1, BuildingBlock: MUDLON_clean_linker_0, # of connection points: 4
#     Node 34, Type 1, BuildingBlock: MUDLON_clean_linker_0, # of connection points: 4
#     Node 35, Type 1, BuildingBlock: MUDLON_clean_linker_0, # of connection points: 4
#     Edge 36, Type (0, 1), BuildingBlock: CIFDUS_clean_linker_0, # of connection points: 2
#     Edge 37, Type (0, 1), BuildingBlock: CIFDUS_clean_linker_0, # of connection points: 2
#     Edge 38, Type (0, 1), BuildingBlock: CIFDUS_clean_linker_0, # of connection points: 2
#     Edge 39, Type (0, 1), BuildingBlock: CIFDUS_clean_linker_0, # of connection points: 2
#     Edge 40, Type (0, 1), BuildingBlock: CIFDUS_clean_linker_0, # of connection points: 2
#     Edge 41, Type (0, 1), BuildingBlock: CIFDUS_clean_linker_0, # of connection points: 2
#     Edge 42, Type (0, 1), BuildingBlock: CIFDUS_clean_linker_0, # of connection points: 2
#     Edge 43, Type (0, 1), BuildingBlock: CIFDUS_clean_linker_0, # of connection points: 2
#     Edge 44, Type (0, 1), BuildingBlock: CIFDUS_clean_linker_0, # of connection points: 2
#     Edge 45, Type (0, 1), BuildingBlock: CIFDUS_clean_linker_0, # of connection points: 2
#     Edge 46, Type (0, 1), BuildingBlock: CIFDUS_clean_linker_0, # of connection points: 2
#     Edge 47, Type (0, 1), BuildingBlock: CIFDUS_clean_linker_0, # of connection points: 2
#     Edge 48, Type (0, 1), BuildingBlock: CIFDUS_clean_linker_0, # of connection points: 2
#     Edge 49, Type (0, 1), BuildingBlock: CIFDUS_clean_linker_0, # of connection points: 2
#     Edge 50, Type (0, 1), BuildingBlock: CIFDUS_clean_linker_0, # of connection points: 2
#     Edge 51, Type (0, 1), BuildingBlock: CIFDUS_clean_linker_0, # of connection points: 2
#     Edge 52, Type (0, 1), BuildingBlock: CIFDUS_clean_linker_0, # of connection points: 2
#     Edge 53, Type (0, 1), BuildingBlock: CIFDUS_clean_linker_0, # of connection points: 2
#     Edge 54, Type (0, 1), BuildingBlock: CIFDUS_clean_linker_0, # of connection points: 2
#     Edge 55, Type (0, 1), BuildingBlock: CIFDUS_clean_linker_0, # of connection points: 2
#     Edge 56, Type (0, 1), BuildingBlock: CIFDUS_clean_linker_0, # of connection points: 2
#     Edge 57, Type (0, 1), BuildingBlock: CIFDUS_clean_linker_0, # of connection points: 2
#     Edge 58, Type (0, 1), BuildingBlock: CIFDUS_clean_linker_0, # of connection points: 2
#     Edge 59, Type (0, 1), BuildingBlock: CIFDUS_clean_linker_0, # of connection points: 2
#     Edge 60, Type (0, 1), BuildingBlock: CIFDUS_clean_linker_0, # of connection points: 2
#     Edge 61, Type (0, 1), BuildingBlock: CIFDUS_clean_linker_0, # of connection points: 2
#     Edge 62, Type (0, 1), BuildingBlock: CIFDUS_clean_linker_0, # of connection points: 2
#     Edge 63, Type (0, 1), BuildingBlock: CIFDUS_clean_linker_0, # of connection points: 2
#     Edge 64, Type (0, 1), BuildingBlock: CIFDUS_clean_linker_0, # of connection points: 2
#     Edge 65, Type (0, 1), BuildingBlock: CIFDUS_clean_linker_0, # of connection points: 2
#     Edge 66, Type (0, 1), BuildingBlock: CIFDUS_clean_linker_0, # of connection points: 2
#     Edge 67, Type (0, 1), BuildingBlock: CIFDUS_clean_linker_0, # of connection points: 2
#     Edge 68, Type (0, 1), BuildingBlock: CIFDUS_clean_linker_0, # of connection points: 2
#     Edge 69, Type (0, 1), BuildingBlock: CIFDUS_clean_linker_0, # of connection points: 2
#     Edge 70, Type (0, 1), BuildingBlock: CIFDUS_clean_linker_0, # of connection points: 2
#     Edge 71, Type (0, 1), BuildingBlock: CIFDUS_clean_linker_0, # of connection points: 2
#     Edge 72, Type (0, 1), BuildingBlock: CIFDUS_clean_linker_0, # of connection points: 2
#     Edge 73, Type (0, 1), BuildingBlock: CIFDUS_clean_linker_0, # of connection points: 2
#     Edge 74, Type (0, 1), BuildingBlock: CIFDUS_clean_linker_0, # of connection points: 2
#     Edge 75, Type (0, 1), BuildingBlock: CIFDUS_clean_linker_0, # of connection points: 2
#     Edge 76, Type (0, 1), BuildingBlock: CIFDUS_clean_linker_0, # of connection points: 2
#     Edge 77, Type (0, 1), BuildingBlock: CIFDUS_clean_linker_0, # of connection points: 2
#     Edge 78, Type (0, 1), BuildingBlock: CIFDUS_clean_linker_0, # of connection points: 2
#     Edge 79, Type (0, 1), BuildingBlock: CIFDUS_clean_linker_0, # of connection points: 2
#     Edge 80, Type (0, 1), BuildingBlock: CIFDUS_clean_linker_0, # of connection points: 2
#     Edge 81, Type (0, 1), BuildingBlock: CIFDUS_clean_linker_0, # of connection points: 2
#     Edge 82, Type (0, 1), BuildingBlock: CIFDUS_clean_linker_0, # of connection points: 2
#     Edge 83, Type (0, 1), BuildingBlock: CIFDUS_clean_linker_0, # of connection points: 2
#     Edge 84, Type (0, 1), BuildingBlock: CIFDUS_clean_linker_0, # of connection points: 2
#     Edge 85, Type (0, 1), BuildingBlock: CIFDUS_clean_linker_0, # of connection points: 2
#     Edge 86, Type (0, 1), BuildingBlock: CIFDUS_clean_linker_0, # of connection points: 2
#     Edge 87, Type (0, 1), BuildingBlock: CIFDUS_clean_linker_0, # of connection points: 2
#     Edge 88, Type (0, 1), BuildingBlock: CIFDUS_clean_linker_0, # of connection points: 2
#     Edge 89, Type (0, 1), BuildingBlock: CIFDUS_clean_linker_0, # of connection points: 2
#     Edge 90, Type (0, 1), BuildingBlock: CIFDUS_clean_linker_0, # of connection points: 2
#     Edge 91, Type (0, 1), BuildingBlock: CIFDUS_clean_linker_0, # of connection points: 2
#     Edge 92, Type (0, 1), BuildingBlock: CIFDUS_clean_linker_0, # of connection points: 2
#     Edge 93, Type (0, 1), BuildingBlock: CIFDUS_clean_linker_0, # of connection points: 2
#     Edge 94, Type (0, 1), BuildingBlock: CIFDUS_clean_linker_0, # of connection points: 2
#     Edge 95, Type (0, 1), BuildingBlock: CIFDUS_clean_linker_0, # of connection points: 2
#     Edge 96, Type (0, 1), BuildingBlock: CIFDUS_clean_linker_0, # of connection points: 2
#     Edge 97, Type (0, 1), BuildingBlock: CIFDUS_clean_linker_0, # of connection points: 2
#     Edge 98, Type (0, 1), BuildingBlock: CIFDUS_clean_linker_0, # of connection points: 2
#     Edge 99, Type (0, 1), BuildingBlock: CIFDUS_clean_linker_0, # of connection points: 2
#     Edge 100, Type (0, 1), BuildingBlock: CIFDUS_clean_linker_0, # of connection points: 2
#     Edge 101, Type (0, 1), BuildingBlock: CIFDUS_clean_linker_0, # of connection points: 2
#     Edge 102, Type (0, 1), BuildingBlock: CIFDUS_clean_linker_0, # of connection points: 2
#     Edge 103, Type (0, 1), BuildingBlock: CIFDUS_clean_linker_0, # of connection points: 2
#     Edge 104, Type (0, 1), BuildingBlock: CIFDUS_clean_linker_0, # of connection points: 2
#     Edge 105, Type (0, 1), BuildingBlock: CIFDUS_clean_linker_0, # of connection points: 2
#     Edge 106, Type (0, 1), BuildingBlock: CIFDUS_clean_linker_0, # of connection points: 2
#     Edge 107, Type (0, 1), BuildingBlock: CIFDUS_clean_linker_0, # of connection points: 2
# Relax obj value: 0.080
# Max RMSD: 0.222
# Mean RMSD: 0.105
data_MOF--net-ptr--node1-UXUYUI_clean_sbu_0--node2-MUDLON_clean_linker_0--edge1-CIFDUS_clean_linker_0
_symmetry_space_group_name_H-M    P1
_symmetry_Int_Tables_number       1
_symmetry_cell_setting            triclinic
loop_
_symmetry_equiv_pos_as_xyz
'x, y, z'
_cell_length_a     114.7466
_cell_length_b     114.74931
_cell_length_c     64.705895
_cell_angle_alpha  90.000799
_cell_angle_beta   89.994336
_cell_angle_gamma 120.02333
loop_
_atom_site_label
_atom_site_type_symbol
_atom_site_fract_x
_atom_site_fract_y
_atom_site_fract_z
_atom_type_partial_charge
Li0 Li 0.9916 0.34895 -0.0005 0.0
Li1 Li 0.0156 0.3629 0.00534 0.0
Li2 Li 0.99966 0.36809 0.02266 0.0
Li3 Li 0.00306 0.37083 0.98554 0.0
C4 C 0.00265 0.34116 0.03202 0.0
N5 N 0.00583 0.31978 0.04387 0.0
C6 C 0.00452 0.33342 0.01712 0.0
C7 C 0.00242 0.33805 0.05294 0.0
C8 C 0.0061 0.32265 0.02343 0.0
C9 C 0.00403 0.32719 0.05863 0.0
C10 C 0.01267 0.36017 0.96028 0.0
C11 C 0.03157 0.3766 0.94037 0.0
N12 N 0.02546 0.36981 0.92277 0.0
C13 C 0.00661 0.35332 0.942 0.0
C14 C 0.02528 0.37188 0.95947 0.0
C15 C 0.01323 0.35837 0.92319 0.0
C16 C 0.97351 0.32856 0.97376 0.0
N17 N 0.97749 0.33102 0.9938 0.0
C18 C 0.96178 0.30822 0.00294 0.0
C19 C 0.97173 0.32125 0.00846 0.0
C20 C 0.95789 0.3053 0.98216 0.0
C21 C 0.96376 0.3157 0.96752 0.0
H22 H 0.97792 0.33665 0.96262 0.0
H23 H 0.97486 0.32352 0.02441 0.0
C24 C 0.03718 0.36515 0.02869 0.0
N25 N 0.03149 0.36196 0.00961 0.0
C26 C 0.04724 0.36225 0.03403 0.0
C27 C 0.04586 0.35342 -0.00037 0.0
C28 C 0.0357 0.35633 0.99507 0.0
C29 C 0.05154 0.35604 0.01953 0.0
H30 H 0.03336 0.36929 0.04011 0.0
H31 H 0.03074 0.35348 0.98023 0.0
C32 C 0.97237 0.3542 0.00394 0.0
N33 N 0.94526 0.33639 0.00997 0.0
C34 C 0.96305 0.35243 0.98858 0.0
C35 C 0.96788 0.34697 0.02242 0.0
C36 C 0.9494 0.34336 0.99191 0.0
C37 C 0.95414 0.33801 0.02516 0.0
C38 C 0.01939 0.39356 0.01015 0.0
C39 C 0.00905 0.39658 0.0083 0.0
C40 C 0.03242 0.40379 0.01491 0.0
C41 C 0.01194 0.40983 0.0112 0.0
C42 C 0.03491 0.41691 0.01768 0.0
N43 N 0.02471 0.41964 0.01579 0.0
C44 C 0.0073 0.38145 0.06088 0.0
C45 C 0.98595 0.37711 0.049 0.0
C46 C 0.00647 0.38846 0.07795 0.0
N47 N 0.99712 0.37597 0.04686 0.0
C48 C 0.98458 0.3838 0.06602 0.0
C49 C 0.99498 0.38966 0.08064 0.0
H50 H 0.01619 0.38061 0.05853 0.0
H51 H 0.97822 0.37314 0.03727 0.0
C52 C 0.99248 0.37448 0.94932 0.0
N53 N 0.00328 0.38096 0.96201 0.0
C54 C 0.99133 0.38085 0.93176 0.0
C55 C 0.01273 0.40038 0.94018 0.0
C56 C 0.01344 0.39361 0.95767 0.0
C57 C 0.0015 0.39402 0.92702 0.0
H58 H 0.98478 0.36428 0.95282 0.0
H59 H 0.02214 0.39842 0.96764 0.0
O60 O 0.00139 0.35196 0.02632 0.0
O61 O 0.00622 0.35567 0.97885 0.0
O62 O 0.98583 0.36276 0.00082 0.0
O63 O 0.01682 0.38064 0.00774 0.0
H64 H 0.00478 0.3357 0.00085 0.0
H65 H 0.00107 0.344 0.06466 0.0
H66 H 0.00757 0.31659 0.01206 0.0
H67 H 0.00388 0.32466 0.07477 0.0
H68 H 0.04129 0.38569 0.93953 0.0
H69 H 0.99692 0.34421 0.94226 0.0
H70 H 0.03009 0.37737 0.97345 0.0
H71 H 0.00863 0.35319 0.90892 0.0
H72 H 0.95741 0.30046 0.01467 0.0
H73 H 0.9608 0.3139 0.95142 0.0
H74 H 0.05109 0.36421 0.04968 0.0
H75 H 0.04892 0.34879 0.98788 0.0
H76 H 0.96628 0.358 0.97426 0.0
H77 H 0.97496 0.34814 0.03441 0.0
H78 H 0.94208 0.34186 0.98014 0.0
H79 H 0.95055 0.33229 0.03933 0.0
H80 H 0.99889 0.38882 0.00467 0.0
H81 H 0.04052 0.40158 0.01649 0.0
H82 H 0.00404 0.41232 0.00981 0.0
H83 H 0.04495 0.42493 0.02137 0.0
H84 H 0.01469 0.39287 0.08895 0.0
H85 H 0.97566 0.38471 0.06746 0.0
H86 H 0.98244 0.37556 0.92218 0.0
H87 H 0.02093 0.41042 0.9369 0.0
Li88 Li 0.65209 0.64081 0.00974 0.0
Li89 Li 0.63795 0.65081 0.01657 0.0
Li90 Li 0.63202 0.62834 0.03214 0.0
Li91 Li 0.62847 0.63068 0.99556 0.0
C92 C 0.65765 0.6496 0.05189 0.0
N93 N 0.67665 0.65618 0.08267 0.0
C94 C 0.66554 0.66296 0.05833 0.0
C95 C 0.65925 0.63956 0.06142 0.0
C96 C 0.67515 0.6661 0.07381 0.0
C97 C 0.66895 0.64309 0.07687 0.0
C98 C 0.64841 0.66005 0.9789 0.0
C99 C 0.6428 0.67494 0.96072 0.0
N100 N 0.65613 0.68397 0.95844 0.0
C101 C 0.66206 0.66942 0.97617 0.0
C102 C 0.6387 0.66276 0.97093 0.0
C103 C 0.66576 0.68147 0.96586 0.0
C104 C 0.6728 0.63748 0.99152 0.0
N105 N 0.67016 0.64533 0.00419 0.0
C106 C 0.69358 0.66152 0.00668 0.0
C107 C 0.68022 0.65712 0.01185 0.0
C108 C 0.69664 0.65378 0.99329 0.0
C109 C 0.68606 0.64149 0.98595 0.0
H110 H 0.66458 0.62829 0.98527 0.0
H111 H 0.67785 0.6634 0.02131 0.0
C112 C 0.6285 0.66881 0.02755 0.0
N113 N 0.63934 0.66778 0.02174 0.0
C114 C 0.6301 0.68135 0.03288 0.0
C115 C 0.65389 0.69148 0.02565 0.0
C116 C 0.65185 0.67878 0.02064 0.0
C117 C 0.64297 0.69287 0.03215 0.0
H118 H 0.61869 0.65986 0.02854 0.0
H119 H 0.66033 0.67763 0.01645 0.0
C120 C 0.63898 0.61051 0.01149 0.0
N121 N 0.64168 0.58818 0.01819 0.0
C122 C 0.62942 0.59796 0.00364 0.0
C123 C 0.65006 0.61174 0.02238 0.0
C124 C 0.63092 0.58678 0.0073 0.0
C125 C 0.65121 0.60033 0.02571 0.0
C126 C 0.60676 0.62884 0.01467 0.0
C127 C 0.59723 0.61648 0.02312 0.0
C128 C 0.60262 0.63549 0.001 0.0
C129 C 0.58373 0.61084 0.01739 0.0
C130 C 0.58903 0.62951 0.99564 0.0
N131 N 0.57995 0.6174 0.00386 0.0
C132 C 0.62636 0.62286 0.07454 0.0
C133 C 0.61761 0.60342 0.05342 0.0
C134 C 0.62096 0.61493 0.09217 0.0
N135 N 0.62472 0.61701 0.0557 0.0
C136 C 0.61201 0.59509 0.07061 0.0
C137 C 0.61368 0.60083 0.09033 0.0
H138 H 0.6318 0.63371 0.07586 0.0
H139 H 0.61606 0.59901 0.03822 0.0
C140 C 0.62018 0.62638 0.95353 0.0
N141 N 0.61715 0.6211 0.97289 0.0
C142 C 0.61239 0.61893 0.93669 0.0
C143 C 0.59842 0.60084 0.96011 0.0
C144 C 0.6065 0.60862 0.97644 0.0
C145 C 0.60142 0.6059 0.93985 0.0
H146 H 0.62885 0.63624 0.95108 0.0
H147 H 0.60445 0.60457 0.99193 0.0
O148 O 0.64816 0.64638 0.03676 0.0
O149 O 0.6446 0.64827 0.98922 0.0
O150 O 0.63768 0.62158 0.00794 0.0
O151 O 0.62004 0.63446 0.01995 0.0
H152 H 0.66433 0.67086 0.05139 0.0
H153 H 0.65294 0.62913 0.05721 0.0
H154 H 0.6814 0.67641 0.07881 0.0
H155 H 0.6703 0.63541 0.08433 0.0
H156 H 0.63538 0.67719 0.95458 0.0
H157 H 0.66972 0.66744 0.98205 0.0
H158 H 0.62811 0.65555 0.97261 0.0
H159 H 0.67628 0.68885 0.96377 0.0
H160 H 0.70142 0.67104 0.01276 0.0
H161 H 0.68795 0.63533 0.97532 0.0
H162 H 0.62142 0.68199 0.03779 0.0
H163 H 0.66402 0.70003 0.02529 0.0
H164 H 0.62089 0.59683 0.9949 0.0
H165 H 0.65781 0.62141 0.02795 0.0
H166 H 0.62354 0.57699 0.00145 0.0
H167 H 0.65972 0.60115 0.03416 0.0
H168 H 0.60023 0.61125 0.03385 0.0
H169 H 0.6098 0.64516 0.99461 0.0
H170 H 0.57627 0.60123 0.0237 0.0
H171 H 0.5857 0.63451 0.98499 0.0
H172 H 0.62227 0.61979 0.10702 0.0
H173 H 0.60651 0.58428 0.06848 0.0
H174 H 0.6152 0.62315 0.92132 0.0
H175 H 0.58999 0.59092 0.96331 0.0
Li176 Li 0.37434 0.00726 0.99857 0.0
Li177 Li 0.37526 0.01108 0.0357 0.0
Li178 Li 0.35368 0.99689 0.01824 0.0
Li179 Li 0.36602 0.02127 0.01385 0.0
C180 C 0.37375 0.98567 0.01466 0.0
N181 N 0.38414 0.97002 0.00043 0.0
C182 C 0.3853 0.98673 0.02371 0.0
C183 C 0.36743 0.97658 0.99848 0.0
C184 C 0.39041 0.97875 0.01628 0.0
C185 C 0.37285 0.96879 0.99146 0.0
C186 C 0.39153 0.03755 0.0078 0.0
C187 C 0.40009 0.06109 0.0149 0.0
N188 N 0.4043 0.06406 0.99495 0.0
C189 C 0.39596 0.04084 0.98739 0.0
C190 C 0.39364 0.04775 0.0217 0.0
C191 C 0.4024 0.0543 0.98119 0.0
C192 C 0.37996 0.00457 0.95646 0.0
N193 N 0.38433 0.00583 0.97628 0.0
C194 C 0.40482 0.0072 0.96515 0.0
C195 C 0.39652 0.00723 0.98084 0.0
C196 C 0.40076 0.00616 0.9444 0.0
C197 C 0.38807 0.00475 0.94019 0.0
H198 H 0.37037 0.00383 0.95324 0.0
H199 H 0.39989 0.0086 0.99671 0.0
C200 C 0.38146 0.00209 0.07232 0.0
N201 N 0.38553 0.01293 0.05975 0.0
C202 C 0.38915 0.00285 0.08951 0.0
C203 C 0.40497 0.02598 0.08065 0.0
C204 C 0.397 0.02475 0.06356 0.0
C205 C 0.40114 0.01489 0.09375 0.0
H206 H 0.37233 0.99278 0.06878 0.0
H207 H 0.40009 0.03314 0.05314 0.0
C208 C 0.34552 0.00098 0.98228 0.0
N209 N 0.32047 0.98759 0.96381 0.0
C210 C 0.33675 0.00607 0.98386 0.0
C211 C 0.3416 0.98914 0.97118 0.0
C212 C 0.32412 0.99914 0.97444 0.0
C213 C 0.32888 0.98249 0.962 0.0
C214 C 0.35738 0.0109 0.06031 0.0
C215 C 0.34943 0.99877 0.07074 0.0
C216 C 0.36511 0.02272 0.07159 0.0
C217 C 0.34936 0.99867 0.09233 0.0
C218 C 0.36479 0.02219 0.09316 0.0
N219 N 0.35699 0.01028 0.103 0.0
C220 C 0.3333 0.96909 0.02219 0.0
C221 C 0.32616 0.98515 0.02523 0.0
C222 C 0.32035 0.95866 0.02703 0.0
N223 N 0.33594 0.98203 0.0216 0.0
C224 C 0.31311 0.97507 0.03001 0.0
C225 C 0.31011 0.96163 0.03142 0.0
H226 H 0.34132 0.96691 0.01967 0.0
H227 H 0.32862 0.99556 0.02504 0.0
C228 C 0.36536 0.0412 0.98964 0.0
N229 N 0.36359 0.03625 0.00917 0.0
C230 C 0.36251 0.05137 0.98495 0.0
C231 C 0.35627 0.05132 0.02066 0.0
C232 C 0.35925 0.04113 0.02465 0.0
C233 C 0.3577 0.05644 0.00051 0.0
H234 H 0.3686 0.03692 0.97757 0.0
H235 H 0.35774 0.03687 0.03997 0.0
O236 O 0.36869 0.99352 0.02154 0.0
O237 O 0.38495 0.02439 0.01407 0.0
O238 O 0.35784 0.00748 0.99169 0.0
O239 O 0.35784 0.01117 0.03918 0.0
H240 H 0.39037 0.99376 0.03618 0.0
H241 H 0.35849 0.97564 0.9913 0.0
H242 H 0.39938 0.97951 0.02307 0.0
H243 H 0.36811 0.96177 0.97888 0.0
H244 H 0.4017 0.06907 0.02545 0.0
H245 H 0.39437 0.03309 0.97638 0.0
H246 H 0.39013 0.04537 0.03749 0.0
H247 H 0.40584 0.05699 0.96542 0.0
H248 H 0.41438 0.0081 0.96929 0.0
H249 H 0.38458 0.00421 0.92449 0.0
H250 H 0.38577 0.99411 0.09935 0.0
H251 H 0.41421 0.03539 0.08324 0.0
H252 H 0.33959 0.01518 0.99248 0.0
H253 H 0.34829 0.98509 0.96974 0.0
H254 H 0.3172 0.00293 0.97563 0.0
H255 H 0.32569 0.97329 0.95344 0.0
H256 H 0.34349 0.98951 0.06229 0.0
H257 H 0.37146 0.03216 0.06377 0.0
H258 H 0.34329 0.98935 0.1006 0.0
H259 H 0.37078 0.03124 0.10209 0.0
H260 H 0.31855 0.94847 0.02826 0.0
H261 H 0.30552 0.97783 0.03304 0.0
H262 H 0.36352 0.05481 0.96913 0.0
H263 H 0.35266 0.05499 0.03313 0.0
Li264 Li 0.0071 0.6513 0.01164 0.0
Li265 Li 0.99302 0.62921 0.02635 0.0
Li266 Li 0.99817 0.63135 0.98933 0.0
Li267 Li 0.98281 0.63799 0.00368 0.0
C268 C 0.02359 0.64041 0.00541 0.0
N269 N 0.04887 0.64833 0.98968 0.0
C270 C 0.0311 0.63485 0.01319 0.0
C271 C 0.02893 0.64999 0.9896 0.0
C272 C 0.04386 0.63899 0.00505 0.0
C273 C 0.04173 0.65386 0.98186 0.0
C274 C 0.98888 0.64449 0.05111 0.0
C275 C 0.97305 0.63762 0.07931 0.0
N276 N 0.98334 0.64137 0.09295 0.0
C277 C 0.99931 0.64839 0.06541 0.0
C278 C 0.97565 0.63915 0.05809 0.0
C279 C 0.9963 0.64668 0.0865 0.0
C280 C 0.02179 0.67927 0.00588 0.0
N281 N 0.02149 0.66902 0.01678 0.0
C282 C 0.04057 0.68452 0.03663 0.0
C283 C 0.03074 0.67135 0.0317 0.0
C284 C 0.04101 0.69541 0.02588 0.0
C285 C 0.03158 0.69257 0.01 0.0
H286 H 0.01425 0.67712 0.99424 0.0
H287 H 0.03028 0.66298 0.04011 0.0
C288 C 0.97873 0.60906 0.0571 0.0
N289 N 0.99106 0.61857 0.05021 0.0
C290 C 0.97757 0.60118 0.07428 0.0
C291 C 0.00182 0.61309 0.07704 0.0
C292 C 0.00251 0.62074 0.05983 0.0
C293 C 0.98922 0.60309 0.08441 0.0
H294 H 0.96978 0.60748 0.04925 0.0
H295 H 0.01218 0.62847 0.05414 0.0
C296 C 0.99304 0.64859 0.96492 0.0
N297 N 0.98264 0.64894 0.92651 0.0
C298 C 0.98374 0.63656 0.95536 0.0
C299 C 0.99707 0.66081 0.95486 0.0
C300 C 0.97859 0.63694 0.93598 0.0
C301 C 0.99169 0.66078 0.93547 0.0
C302 C 0.96736 0.6107 1e-05 0.0
C303 C 0.96324 0.60216 0.98283 0.0
C304 C 0.95771 0.61007 0.01386 0.0
C305 C 0.94953 0.59318 0.97977 0.0
C306 C 0.94411 0.60096 0.01028 0.0
N307 N 0.94033 0.59277 0.99344 0.0
C308 C 0.99849 0.61004 0.9688 0.0
C309 C 0.00885 0.63046 0.94985 0.0
C310 C 0.00087 0.60338 0.95275 0.0
N311 N 0.0023 0.62327 0.96695 0.0
C312 C 0.01145 0.6242 0.93341 0.0
C313 C 0.00733 0.61044 0.93465 0.0
H314 H 0.99349 0.60465 0.98274 0.0
H315 H 0.01194 0.64102 0.94887 0.0
C316 C 0.96797 0.65088 0.00846 0.0
N317 N 0.96777 0.64043 0.99828 0.0
C318 C 0.95827 0.6545 0.00434 0.0
C319 C 0.94812 0.63636 0.97953 0.0
C320 C 0.95808 0.63314 0.98405 0.0
C321 C 0.94828 0.64731 0.9895 0.0
H322 H 0.97591 0.65666 0.01944 0.0
H323 H 0.95824 0.62505 0.97578 0.0
O324 O 0.01104 0.63636 0.0132 0.0
O325 O 0.9916 0.64572 0.03038 0.0
O326 O 0.99816 0.64846 0.98399 0.0
O327 O 0.98075 0.61959 0.0032 0.0
H328 H 0.02709 0.62739 0.02536 0.0
H329 H 0.02328 0.65438 0.98329 0.0
H330 H 0.04978 0.63477 0.01093 0.0
H331 H 0.04598 0.66125 0.96962 0.0
H332 H 0.96285 0.63346 0.08493 0.0
H333 H 0.00959 0.65248 0.06028 0.0
H334 H 0.96747 0.63623 0.04727 0.0
H335 H 0.00426 0.64954 0.09773 0.0
H336 H 0.04743 0.68612 0.0492 0.0
H337 H 0.03162 0.70053 0.00096 0.0
H338 H 0.96766 0.5935 0.07931 0.0
H339 H 0.01106 0.61504 0.08458 0.0
H340 H 0.98052 0.62703 0.96282 0.0
H341 H 0.00429 0.67025 0.96189 0.0
H342 H 0.97137 0.62768 0.92847 0.0
H343 H 0.99472 0.67017 0.92755 0.0
H344 H 0.97052 0.60248 0.97191 0.0
H345 H 0.96067 0.61673 0.02702 0.0
H346 H 0.94622 0.58655 0.96652 0.0
H347 H 0.93655 0.60044 0.02082 0.0
H348 H 0.99774 0.59282 0.95451 0.0
H349 H 0.01636 0.63001 0.9197 0.0
H350 H 0.95871 0.66297 0.01244 0.0
H351 H 0.94073 0.6307 0.96774 0.0
Li352 Li 0.35142 0.36394 0.01677 0.0
Li353 Li 0.37405 0.36894 0.03048 0.0
Li354 Li 0.37078 0.3723 0.99333 0.0
Li355 Li 0.36097 0.35013 0.00767 0.0
C356 C 0.3681 0.39256 0.02243 0.0
N357 N 0.36677 0.41531 0.0322 0.0
C358 C 0.36869 0.39645 0.04304 0.0
C359 C 0.36711 0.4004 0.00675 0.0
C360 C 0.36792 0.40793 0.04768 0.0
C361 C 0.36638 0.41183 0.01201 0.0
C362 C 0.35043 0.34086 0.04406 0.0
C363 C 0.35266 0.32337 0.06099 0.0
N364 N 0.33917 0.31492 0.05903 0.0
C365 C 0.33658 0.33205 0.04233 0.0
C366 C 0.35855 0.33655 0.05355 0.0
C367 C 0.33108 0.31896 0.04996 0.0
C368 C 0.32402 0.35731 0.01256 0.0
N369 N 0.33532 0.36383 0.02433 0.0
C370 C 0.32354 0.36932 0.0494 0.0
C371 C 0.33521 0.3696 0.0426 0.0
C372 C 0.31178 0.36294 0.03733 0.0
C373 C 0.31214 0.35688 0.01866 0.0
H374 H 0.32412 0.35223 0.99857 0.0
H375 H 0.34411 0.37413 0.05217 0.0
C376 C 0.39949 0.38285 0.04956 0.0
N377 N 0.386 0.37617 0.05306 0.0
C378 C 0.40847 0.38909 0.06589 0.0
C379 C 0.38946 0.38135 0.08905 0.0
C380 C 0.38087 0.37516 0.07232 0.0
C381 C 0.40345 0.38854 0.08589 0.0
H382 H 0.40325 0.38355 0.03401 0.0
H383 H 0.37007 0.36979 0.07456 0.0
C384 C 0.34591 0.35887 0.97256 0.0
N385 N 0.33374 0.36293 0.93867 0.0
C386 C 0.34143 0.34971 0.95618 0.0
C387 C 0.34417 0.37007 0.97175 0.0
C388 C 0.33531 0.35195 0.93916 0.0
C389 C 0.33799 0.37195 0.95448 0.0
C390 C 0.3865 0.36032 0.99013 0.0
C391 C 0.37952 0.35459 0.97179 0.0
C392 C 0.39968 0.36286 0.99244 0.0
C393 C 0.38586 0.3515 0.95605 0.0
C394 C 0.40567 0.35963 0.97632 0.0
N395 N 0.39869 0.35406 0.95861 0.0
C396 C 0.39134 0.39585 0.97643 0.0
C397 C 0.37628 0.38123 0.95093 0.0
C398 C 0.39917 0.4052 0.96133 0.0
N399 N 0.38013 0.38416 0.97102 0.0
C400 C 0.3837 0.39039 0.93536 0.0
C401 C 0.39533 0.40251 0.94051 0.0
H402 H 0.39422 0.39784 0.99252 0.0
H403 H 0.3676 0.37174 0.94687 0.0
C404 C 0.34312 0.32374 0.99559 0.0
N405 N 0.35589 0.3319 0.00239 0.0
C406 C 0.3385 0.31016 0.9918 0.0
C407 C 0.36032 0.31365 0.00189 0.0
C408 C 0.36448 0.32717 0.00569 0.0
C409 C 0.34715 0.30496 0.99487 0.0
H410 H 0.33651 0.3278 0.99322 0.0
H411 H 0.37454 0.33388 0.01135 0.0
O412 O 0.36895 0.3814 0.0176 0.0
O413 O 0.35606 0.35357 0.03611 0.0
O414 O 0.35213 0.35691 0.98913 0.0
O415 O 0.38056 0.3635 0.00579 0.0
H416 H 0.36963 0.3906 0.05535 0.0
H417 H 0.36701 0.39778 0.99067 0.0
H418 H 0.36825 0.41099 0.06359 0.0
H419 H 0.36555 0.41796 4e-05 0.0
H420 H 0.35883 0.31985 0.06825 0.0
H421 H 0.33019 0.33526 0.03494 0.0
H422 H 0.3693 0.34327 0.05492 0.0
H423 H 0.32039 0.31198 0.04861 0.0
H424 H 0.32365 0.37377 0.06421 0.0
H425 H 0.30335 0.35184 0.00884 0.0
H426 H 0.41918 0.39463 0.0628 0.0
H427 H 0.38521 0.38059 0.10427 0.0
H428 H 0.34276 0.34101 0.95655 0.0
H429 H 0.34741 0.37713 0.98441 0.0
H430 H 0.33184 0.34496 0.92634 0.0
H431 H 0.33656 0.38057 0.95366 0.0
H432 H 0.36931 0.35251 0.9697 0.0
H433 H 0.40522 0.36729 0.00654 0.0
H434 H 0.38057 0.34707 0.94178 0.0
H435 H 0.41586 0.36154 0.9779 0.0
H436 H 0.40809 0.41445 0.96587 0.0
H437 H 0.38058 0.38788 0.9194 0.0
H438 H 0.32834 0.30384 0.98615 0.0
H439 H 0.36725 0.31 0.00457 0.0
Li440 Li 0.63745 0.98216 0.009 0.0
Li441 Li 0.62712 0.99433 0.02222 0.0
Li442 Li 0.62667 0.99017 0.9856 0.0
Li443 Li 0.64752 0.00595 0.0022 0.0
C444 C 0.61096 0.96666 0.0218 0.0
N445 N 0.59632 0.9465 0.05009 0.0
C446 C 0.61663 0.96651 0.04086 0.0
C447 C 0.59786 0.95657 0.01714 0.0
C448 C 0.60907 0.95623 0.05494 0.0
C449 C 0.59062 0.94646 0.03164 0.0
C450 C 0.65108 0.00683 0.04433 0.0
C451 C 0.6554 0.02784 0.05947 0.0
N452 N 0.66304 0.02649 0.07431 0.0
C453 C 0.65897 0.00566 0.05973 0.0
C454 C 0.64926 0.01801 0.04419 0.0
C455 C 0.66493 0.0157 0.07475 0.0
C456 C 0.65307 0.97202 0.02531 0.0
N457 N 0.64155 0.96832 0.01465 0.0
C458 C 0.63662 0.94547 0.01351 0.0
C459 C 0.63332 0.95535 0.00872 0.0
C460 C 0.64842 0.94895 0.02474 0.0
C461 C 0.65667 0.96247 0.03066 0.0
H462 H 0.6594 0.98241 0.02987 0.0
H463 H 0.62415 0.95264 0.00037 0.0
C464 C 0.60462 0.99452 0.03778 0.0
N465 N 0.61616 0.99491 0.04382 0.0
C466 C 0.59523 0.99347 0.05246 0.0
C467 C 0.60993 0.99361 0.07934 0.0
C468 C 0.61896 0.99448 0.06413 0.0
C469 C 0.59781 0.99293 0.07353 0.0
H470 H 0.60259 0.99467 0.02148 0.0
H471 H 0.62799 0.99438 0.06855 0.0
C472 C 0.64424 0.98271 0.96786 0.0
N473 N 0.64373 0.96482 0.93881 0.0
C474 C 0.6558 0.98585 0.9565 0.0
C475 C 0.63241 0.97049 0.96444 0.0
C476 C 0.65534 0.97666 0.94188 0.0
C477 C 0.63236 0.96157 0.94969 0.0
C478 C 0.63257 0.01664 0.98485 0.0
C479 C 0.64062 0.01867 0.96749 0.0
C480 C 0.62608 0.02411 0.98717 0.0
C481 C 0.64206 0.02819 0.95273 0.0
C482 C 0.62777 0.03353 0.97206 0.0
N483 N 0.63566 0.03536 0.9553 0.0
C484 C 0.60236 0.98149 0.96497 0.0
C485 C 0.62108 0.98962 0.94237 0.0
C486 C 0.59373 0.9793 0.94837 0.0
N487 N 0.61574 0.98661 0.9617 0.0
C488 C 0.61283 0.9876 0.92531 0.0
C489 C 0.59895 0.98246 0.9282 0.0
H490 H 0.59842 0.97927 0.98056 0.0
H491 H 0.63179 0.99381 0.94021 0.0
C492 C 0.67496 0.01962 0.99485 0.0
N493 N 0.6646 0.02183 0.99874 0.0
C494 C 0.68783 0.03039 0.99092 0.0
C495 C 0.67919 0.0456 0.99544 0.0
C496 C 0.66648 0.03451 -0.00052 0.0
C497 C 0.69003 0.04359 0.9909 0.0
H498 H 0.67316 0.00942 0.99445 0.0
H499 H 0.6581 0.03601 0.00286 0.0
O500 O 0.61809 0.97665 0.00774 0.0
O501 O 0.64524 0.99705 0.02952 0.0
O502 O 0.64461 0.99164 0.98223 0.0
O503 O 0.63089 0.00733 -0.00049 0.0
H504 H 0.62675 0.97422 0.04479 0.0
H505 H 0.59333 0.95656 0.00246 0.0
H506 H 0.61333 0.956 0.06975 0.0
H507 H 0.58046 0.93858 0.02824 0.0
H508 H 0.65407 0.03653 0.05955 0.0
H509 H 0.66046 0.99706 0.0601 0.0
H510 H 0.64315 0.0191 0.03252 0.0
H511 H 0.67106 0.01492 0.08676 0.0
H512 H 0.63 0.93524 0.0084 0.0
H513 H 0.6657 0.96564 0.03972 0.0
H514 H 0.586 0.993 0.04739 0.0
H515 H 0.61217 0.99299 0.09543 0.0
H516 H 0.66503 0.99528 0.95896 0.0
H517 H 0.62336 0.96788 0.97305 0.0
H518 H 0.66422 0.97896 0.93298 0.0
H519 H 0.62328 0.95207 0.94689 0.0
H520 H 0.64574 0.01301 0.96541 0.0
H521 H 0.61979 0.02263 0.00051 0.0
H522 H 0.64827 0.02987 0.93923 0.0
H523 H 0.62281 0.03939 0.97366 0.0
H524 H 0.58309 0.97518 0.9513 0.0
H525 H 0.61732 0.99035 0.91009 0.0
H526 H 0.69585 0.02837 0.98724 0.0
H527 H 0.6805 0.05562 0.99575 0.0
Li528 Li 0.65171 0.68289 0.33741 0.0
Li529 Li 0.67583 0.69342 0.34515 0.0
Li530 Li 0.66197 0.702 0.36038 0.0
Li531 Li 0.66795 0.70532 0.32382 0.0
C532 C 0.65878 0.6828 0.385 0.0
N533 N 0.65606 0.68154 0.42747 0.0
C534 C 0.67002 0.68665 0.39759 0.0
C535 C 0.64616 0.67826 0.39397 0.0
C536 C 0.66844 0.68594 0.41905 0.0
C537 C 0.64499 0.67772 0.41549 0.0
C538 C 0.67278 0.68145 0.30913 0.0
C539 C 0.69178 0.68196 0.29232 0.0
N540 N 0.6854 0.66829 0.29321 0.0
C541 C 0.66637 0.66741 0.30975 0.0
C542 C 0.68554 0.6888 0.30022 0.0
C543 C 0.67293 0.66094 0.30166 0.0
C544 C 0.62971 0.66374 0.31319 0.0
N545 N 0.63625 0.66589 0.33154 0.0
C546 C 0.62231 0.64278 0.34093 0.0
C547 C 0.63274 0.65575 0.3454 0.0
C548 C 0.61537 0.64029 0.32214 0.0
C549 C 0.61903 0.65099 0.30828 0.0
H550 H 0.63299 0.67186 0.30216 0.0
H551 H 0.63832 0.65765 0.35965 0.0
C552 C 0.70256 0.69835 0.35395 0.0
N553 N 0.68938 0.68897 0.35114 0.0
C554 C 0.71168 0.69445 0.36083 0.0
C555 C 0.69351 0.67135 0.3612 0.0
C556 C 0.68479 0.67568 0.35445 0.0
C557 C 0.7071 0.6808 0.36497 0.0
H558 H 0.7059 0.70889 0.35162 0.0
H559 H 0.67421 0.66848 0.35247 0.0
C560 C 0.63747 0.69476 0.32933 0.0
N561 N 0.61173 0.68464 0.31391 0.0
C562 C 0.63553 0.69787 0.30919 0.0
C563 C 0.62632 0.68655 0.34166 0.0
C564 C 0.62244 0.69265 0.30168 0.0
C565 C 0.61339 0.68151 0.33356 0.0
C566 C 0.68948 0.72502 0.34266 0.0
C567 C 0.68884 0.73591 0.35106 0.0
C568 C 0.69943 0.72732 0.32815 0.0
C569 C 0.69812 0.74895 0.34461 0.0
C570 C 0.7085 0.74051 0.32208 0.0
N571 N 0.70766 0.75096 0.33036 0.0
C572 C 0.6699 0.71675 0.39754 0.0
C573 C 0.64759 0.70993 0.38708 0.0
C574 C 0.66863 0.72342 0.41468 0.0
N575 N 0.65947 0.71025 0.38414 0.0
C576 C 0.64584 0.71638 0.40409 0.0
C577 C 0.6565 0.72334 0.41806 0.0
H578 H 0.67925 0.71687 0.39475 0.0
H579 H 0.63952 0.70482 0.37607 0.0
C580 C 0.67392 0.71433 0.28211 0.0
N581 N 0.67178 0.71747 0.30145 0.0
C582 C 0.67594 0.72301 0.2656 0.0
C583 C 0.67379 0.73807 0.28938 0.0
C584 C 0.67154 0.72898 0.30529 0.0
C585 C 0.67588 0.73511 0.26909 0.0
H586 H 0.67376 0.70495 0.27942 0.0
H587 H 0.66944 0.73104 0.32073 0.0
O588 O 0.66018 0.68377 0.36399 0.0
O589 O 0.66663 0.68799 0.3173 0.0
O590 O 0.65021 0.69972 0.33693 0.0
O591 O 0.68039 0.71216 0.34859 0.0
H592 H 0.67989 0.69029 0.3909 0.0
H593 H 0.63738 0.67532 0.38442 0.0
H594 H 0.67705 0.68894 0.429 0.0
H595 H 0.6353 0.6743 0.42265 0.0
H596 H 0.70169 0.68752 0.28548 0.0
H597 H 0.65649 0.66156 0.31659 0.0
H598 H 0.6906 0.69966 0.29949 0.0
H599 H 0.66813 0.65008 0.30215 0.0
H600 H 0.61979 0.63474 0.35192 0.0
H601 H 0.61405 0.64936 0.29347 0.0
H602 H 0.72203 0.70208 0.36377 0.0
H603 H 0.68957 0.66071 0.36392 0.0
H604 H 0.64403 0.70418 0.29941 0.0
H605 H 0.62763 0.68392 0.35719 0.0
H606 H 0.62079 0.69494 0.28611 0.0
H607 H 0.60467 0.67507 0.34288 0.0
H608 H 0.68117 0.73431 0.36222 0.0
H609 H 0.70007 0.71902 0.32153 0.0
H610 H 0.69769 0.75747 0.35088 0.0
H611 H 0.71621 0.74244 0.31076 0.0
H612 H 0.67704 0.72856 0.42521 0.0
H613 H 0.63638 0.7162 0.40603 0.0
H614 H 0.67719 0.72008 0.25024 0.0
H615 H 0.67384 0.7473 0.29302 0.0
Li616 Li 0.29303 0.96085 0.32618 0.0
Li617 Li 0.29599 0.95884 0.36245 0.0
Li618 Li 0.30183 0.98056 0.34761 0.0
Li619 Li 0.31555 0.97066 0.34027 0.0
C620 C 0.27067 0.95399 0.35134 0.0
N621 N 0.24442 0.93326 0.35557 0.0
C622 C 0.26726 0.94081 0.34632 0.0
C623 C 0.26073 0.95663 0.35849 0.0
C624 C 0.25393 0.93047 0.34856 0.0
C625 C 0.24752 0.94601 0.36053 0.0
C626 C 0.30706 0.94392 0.34633 0.0
C627 C 0.32005 0.93977 0.37154 0.0
N628 N 0.31799 0.92877 0.36065 0.0
C629 C 0.30506 0.93256 0.33541 0.0
C630 C 0.31461 0.94756 0.36457 0.0
C631 C 0.31067 0.92503 0.34289 0.0
C632 C 0.28745 0.94446 0.29224 0.0
N633 N 0.28264 0.95143 0.30268 0.0
C634 C 0.26323 0.94249 0.28087 0.0
C635 C 0.27089 0.95081 0.29719 0.0
C636 C 0.26771 0.93473 0.27039 0.0
C637 C 0.2801 0.93598 0.27603 0.0
H638 H 0.29689 0.94529 0.29685 0.0
H639 H 0.26729 0.95645 0.30581 0.0
C640 C 0.28815 0.95246 0.4044 0.0
N641 N 0.28845 0.94719 0.38573 0.0
C642 C 0.28245 0.94403 0.42151 0.0
C643 C 0.27752 0.92495 0.39983 0.0
C644 C 0.2832 0.93371 0.38316 0.0
C645 C 0.27709 0.93007 0.41932 0.0
H646 H 0.2923 0.96321 0.40596 0.0
H647 H 0.2833 0.92969 0.36811 0.0
C648 C 0.30516 0.98492 0.30521 0.0
N649 N 0.2982 0.99728 0.27488 0.0
C650 C 0.31387 0.99139 0.28868 0.0
C651 C 0.29292 0.98477 0.30634 0.0
C652 C 0.31017 0.99758 0.27349 0.0
C653 C 0.28958 0.99106 0.29085 0.0
C654 C 0.32301 0.98804 0.37514 0.0
C655 C 0.33235 0.99764 0.36156 0.0
C656 C 0.32446 0.99047 0.3964 0.0
C657 C 0.343 0.00954 0.36949 0.0
C658 C 0.33525 0.00249 0.40374 0.0
N659 N 0.34421 0.0117 0.39024 0.0
C660 C 0.29462 0.99867 0.36614 0.0
C661 C 0.31311 0.00852 0.34297 0.0
C662 C 0.29654 0.01138 0.37119 0.0
N663 N 0.30301 0.99753 0.35248 0.0
C664 C 0.31549 0.02137 0.34778 0.0
C665 C 0.3073 0.02292 0.36229 0.0
H666 H 0.28672 0.98976 0.37355 0.0
H667 H 0.31962 0.00737 0.33213 0.0
C668 C 0.33611 0.97553 0.3133 0.0
N669 N 0.33323 0.97432 0.3338 0.0
C670 C 0.34905 0.9793 0.30656 0.0
C671 C 0.35577 0.97998 0.34216 0.0
C672 C 0.34266 0.97626 0.34825 0.0
C673 C 0.35913 0.9818 0.32107 0.0
H674 H 0.32836 0.97379 0.30219 0.0
H675 H 0.3401 0.97526 0.36449 0.0
O676 O 0.28364 0.96433 0.34937 0.0
O677 O 0.3016 0.95136 0.33912 0.0
O678 O 0.30873 0.97887 0.3202 0.0
O679 O 0.3124 0.97636 0.36779 0.0
H680 H 0.27478 0.93856 0.34069 0.0
H681 H 0.26322 0.96679 0.36244 0.0
H682 H 0.25116 0.92023 0.34473 0.0
H683 H 0.23972 0.94791 0.36606 0.0
H684 H 0.32591 0.94248 0.38563 0.0
H685 H 0.29919 0.92956 0.32132 0.0
H686 H 0.31621 0.95625 0.37335 0.0
H687 H 0.30919 0.91621 0.33459 0.0
H688 H 0.25371 0.94177 0.27698 0.0
H689 H 0.28401 0.93035 0.26808 0.0
H690 H 0.28235 0.94838 0.43632 0.0
H691 H 0.27329 0.91424 0.3974 0.0
H692 H 0.32342 0.99166 0.28761 0.0
H693 H 0.28606 0.9799 0.31905 0.0
H694 H 0.31682 0.00262 0.26061 0.0
H695 H 0.28013 0.99102 0.29153 0.0
H696 H 0.33137 0.99598 0.34505 0.0
H697 H 0.3173 0.98314 0.40712 0.0
H698 H 0.35028 0.01706 0.35914 0.0
H699 H 0.33648 0.0045 0.42016 0.0
H700 H 0.29008 0.01222 0.38257 0.0
H701 H 0.32384 0.03004 0.34052 0.0
H702 H 0.35118 0.98039 0.29014 0.0
H703 H 0.36329 0.98187 0.35381 0.0
Li704 Li 0.03911 0.3317 0.33065 0.0
Li705 Li 0.04095 0.33758 0.36711 0.0
Li706 Li 0.01918 0.32188 0.35157 0.0
Li707 Li 0.03051 0.34594 0.34394 0.0
C708 C 0.04104 0.31253 0.34929 0.0
N709 N 0.05408 0.29905 0.33646 0.0
C710 C 0.05366 0.31598 0.35741 0.0
C711 C 0.03504 0.30219 0.33472 0.0
C712 C 0.06008 0.30904 0.35072 0.0
C713 C 0.0418 0.29552 0.3284 0.0
C714 C 0.05584 0.36251 0.33596 0.0
C715 C 0.06408 0.38626 0.34024 0.0
N716 N 0.06776 0.38828 0.32 0.0
C717 C 0.05972 0.36482 0.3152 0.0
C718 C 0.05807 0.37331 0.34862 0.0
C719 C 0.06574 0.37793 0.30743 0.0
C720 C 0.04235 0.32368 0.29028 0.0
N721 N 0.0485 0.32911 0.30857 0.0
C722 C 0.06931 0.33187 0.29607 0.0
C723 C 0.0617 0.3332 0.31171 0.0
C724 C 0.06331 0.32641 0.27691 0.0
C725 C 0.0496 0.3222 0.27416 0.0
H726 H 0.03189 0.3207 0.28811 0.0
H727 H 0.06634 0.3376 0.32638 0.0
C728 C 0.04824 0.33101 0.40494 0.0
N729 N 0.05185 0.34111 0.39103 0.0
C730 C 0.05619 0.33292 0.42233 0.0
C731 C 0.0714 0.35564 0.41082 0.0
C732 C 0.06317 0.35327 0.39359 0.0
C733 C 0.068 0.34535 0.42537 0.0
H734 H 0.03923 0.3214 0.40238 0.0
H735 H 0.06591 0.36105 0.38213 0.0
C736 C 0.00937 0.32352 0.31588 0.0
N737 N 0.98344 0.30836 0.30095 0.0
C738 C 0.00068 0.32874 0.31604 0.0
C739 C 0.0049 0.31061 0.30803 0.0
C740 C 0.9876 0.32092 0.30842 0.0
C741 C 0.99174 0.3031 0.30059 0.0
C742 C 0.0233 0.33811 0.39157 0.0
C743 C 0.01594 0.32658 0.40363 0.0
C744 C 0.03098 0.35061 0.40115 0.0
C745 C 0.0164 0.32777 0.42515 0.0
C746 C 0.0312 0.35136 0.42271 0.0
N747 N 0.02397 0.34002 0.43416 0.0
C748 C 0.99991 0.29396 0.35741 0.0
C749 C 0.99166 0.30917 0.35965 0.0
C750 C 0.9871 0.28309 0.36162 0.0
N751 N 0.00191 0.30666 0.35651 0.0
C752 C 0.97871 0.29863 0.36378 0.0
C753 C 0.9763 0.28538 0.36491 0.0
H754 H 0.00828 0.29227 0.35512 0.0
H755 H 0.99361 0.31941 0.35918 0.0
C756 C 0.02931 0.36481 0.31759 0.0
N757 N 0.0275 0.36041 0.33746 0.0
C758 C 0.02675 0.37505 0.31194 0.0
C759 C 0.02036 0.37594 0.34726 0.0
C760 C 0.02312 0.36572 0.35225 0.0
C761 C 0.02213 0.3807 0.32684 0.0
H762 H 0.03255 0.3602 0.30607 0.0
H763 H 0.02157 0.36188 0.36786 0.0
O764 O 0.03471 0.31939 0.35532 0.0
O765 O 0.0497 0.34971 0.34377 0.0
O766 O 0.02212 0.3309 0.32369 0.0
O767 O 0.02324 0.33712 0.3705 0.0
H768 H 0.05852 0.32403 0.36856 0.0
H769 H 0.02535 0.29949 0.32812 0.0
H770 H 0.06987 0.31164 0.3568 0.0
H771 H 0.03731 0.28756 0.31702 0.0
H772 H 0.06577 0.39469 0.34982 0.0
H773 H 0.05798 0.35659 0.30512 0.0
H774 H 0.05497 0.37168 0.36464 0.0
H775 H 0.06874 0.37986 0.29138 0.0
H776 H 0.0798 0.33512 0.29896 0.0
H777 H 0.04463 0.31815 0.25953 0.0
H778 H 0.05312 0.32476 0.43329 0.0
H779 H 0.0805 0.36531 0.41246 0.0
H780 H 0.00391 0.33867 0.32219 0.0
H781 H 0.01145 0.30636 0.30796 0.0
H782 H 0.98074 0.32481 0.30854 0.0
H783 H 0.98812 0.29306 0.29461 0.0
H784 H 0.01004 0.31681 0.39649 0.0
H785 H 0.03686 0.3596 0.39205 0.0
H786 H 0.01079 0.31893 0.43468 0.0
H787 H 0.03717 0.36096 0.43034 0.0
H788 H 0.98567 0.27303 0.36234 0.0
H789 H 0.97076 0.3009 0.36665 0.0
H790 H 0.028 0.37823 0.29594 0.0
H791 H 0.01686 0.38005 0.35922 0.0
Li792 Li 0.68354 0.98467 0.3469 0.0
Li793 Li 0.66893 0.96174 0.35912 0.0
Li794 Li 0.67697 0.96676 0.32213 0.0
Li795 Li 0.65992 0.97196 0.33472 0.0
C796 C 0.69986 0.97582 0.35696 0.0
N797 N 0.72486 0.98899 0.37564 0.0
C798 C 0.70091 0.97613 0.3785 0.0
C799 C 0.71153 0.98209 0.34492 0.0
C800 C 0.71364 0.98287 0.38765 0.0
C801 C 0.72407 0.98873 0.35465 0.0
C802 C 0.65704 0.97514 0.37833 0.0
C803 C 0.63444 0.96142 0.39129 0.0
N804 N 0.63756 0.96976 0.40784 0.0
C805 C 0.65999 0.98363 0.39541 0.0
C806 C 0.64414 0.96399 0.37621 0.0
C807 C 0.65002 0.98072 0.41018 0.0
C808 C 0.70632 0.01129 0.3427 0.0
N809 N 0.6976 0.00175 0.35603 0.0
C810 C 0.70846 0.01616 0.38485 0.0
C811 C 0.69852 0.00393 0.37674 0.0
C812 C 0.71766 0.02625 0.37151 0.0
C813 C 0.71651 0.02366 0.35014 0.0
H814 H 0.70539 0.00933 0.3263 0.0
H815 H 0.69152 0.99612 0.38699 0.0
C816 C 0.66569 0.93796 0.3754 0.0
N817 N 0.66564 0.94937 0.38085 0.0
C818 C 0.6652 0.92907 0.39054 0.0
C819 C 0.6642 0.94364 0.41662 0.0
C820 C 0.66477 0.95229 0.40096 0.0
C821 C 0.66472 0.93201 0.41149 0.0
H822 H 0.66656 0.93602 0.35928 0.0
H823 H 0.66515 0.9616 0.40497 0.0
C824 C 0.68127 0.98809 0.29918 0.0
N825 N 0.69076 0.99629 0.25949 0.0
C826 C 0.67318 0.98952 0.28442 0.0
C827 C 0.69424 0.99097 0.29379 0.0
C828 C 0.67815 0.99365 0.26443 0.0
C829 C 0.69884 0.99506 0.27364 0.0
C830 C 0.64683 0.94295 0.32821 0.0
C831 C 0.6433 0.93943 0.30753 0.0
C832 C 0.63828 0.93462 0.34381 0.0
C833 C 0.63112 0.92788 0.30279 0.0
C834 C 0.62618 0.92314 0.33845 0.0
N835 N 0.62287 0.92005 0.31822 0.0
C836 C 0.69079 0.95518 0.30295 0.0
C837 C 0.6765 0.95865 0.28046 0.0
C838 C 0.69411 0.94911 0.28709 0.0
N839 N 0.68207 0.95973 0.2994 0.0
C840 C 0.67949 0.95261 0.26419 0.0
C841 C 0.68829 0.94761 0.26746 0.0
H842 H 0.69494 0.95602 0.31824 0.0
H843 H 0.66958 0.96233 0.27803 0.0
C844 C 0.64003 0.98008 0.33711 0.0
N845 N 0.64471 0.97324 0.32591 0.0
C846 C 0.62946 0.98162 0.32958 0.0
C847 C 0.62906 0.96948 0.29882 0.0
C848 C 0.63945 0.96797 0.30709 0.0
C849 C 0.624 0.97642 0.31008 0.0
H850 H 0.6447 0.98468 0.35164 0.0
H851 H 0.64368 0.96306 0.29813 0.0
O852 O 0.68747 0.96958 0.34775 0.0
O853 O 0.66676 0.97774 0.36388 0.0
O854 O 0.67651 0.98391 0.31878 0.0
O855 O 0.65885 0.95413 0.33316 0.0
H856 H 0.69199 0.9714 0.38806 0.0
H857 H 0.71091 0.98185 0.32824 0.0
H858 H 0.71459 0.98328 0.4043 0.0
H859 H 0.73318 0.99368 0.34552 0.0
H860 H 0.62441 0.95283 0.38977 0.0
H861 H 0.66988 0.99238 0.39727 0.0
H862 H 0.64159 0.95756 0.36286 0.0
H863 H 0.65218 0.98718 0.42351 0.0
H864 H 0.70877 0.01773 0.40138 0.0
H865 H 0.72346 0.03106 0.33929 0.0
H866 H 0.66554 0.92017 0.38594 0.0
H867 H 0.66408 0.9464 0.43259 0.0
H868 H 0.6632 0.98754 0.28836 0.0
H869 H 0.70062 0.98988 0.30498 0.0
H870 H 0.67198 0.99477 0.25285 0.0
H871 H 0.70882 0.99721 0.26924 0.0
H872 H 0.64984 0.94557 0.29524 0.0
H873 H 0.64094 0.93691 0.35992 0.0
H874 H 0.62823 0.92513 0.28684 0.0
H875 H 0.61945 0.91666 0.35038 0.0
H876 H 0.70083 0.94526 0.29031 0.0
H877 H 0.67493 0.95181 0.24922 0.0
H878 H 0.62594 0.98724 0.33852 0.0
H879 H 0.62513 0.9654 0.28366 0.0
Li880 Li 0.04126 0.704 0.35822 0.0
Li881 Li 0.01806 0.69487 0.34596 0.0
Li882 Li 0.03224 0.68522 0.33477 0.0
Li883 Li 0.03674 0.70701 0.321 0.0
C884 C 0.02616 0.68351 0.3834 0.0
N885 N 0.02771 0.67966 0.42523 0.0
C886 C 0.01684 0.68378 0.397 0.0
C887 C 0.0362 0.68117 0.39104 0.0
C888 C 0.0178 0.68183 0.4181 0.0
C889 C 0.03684 0.67929 0.41225 0.0
C890 C 0.02987 0.72405 0.34933 0.0
C891 C 0.02388 0.73988 0.33551 0.0
N892 N 0.0244 0.74472 0.35488 0.0
C893 C 0.03052 0.72932 0.36905 0.0
C894 C 0.02668 0.72948 0.33238 0.0
C895 C 0.02765 0.73971 0.37156 0.0
C896 C 0.06677 0.71765 0.37688 0.0
N897 N 0.05347 0.71285 0.38045 0.0
C898 C 0.05809 0.72101 0.41519 0.0
C899 C 0.04902 0.7145 0.39909 0.0
C900 C 0.07191 0.726 0.41201 0.0
C901 C 0.07621 0.72427 0.3925 0.0
H902 H 0.07009 0.7164 0.36182 0.0
H903 H 0.0384 0.7107 0.40153 0.0
C904 C 0.99035 0.67765 0.34675 0.0
N905 N 1.00005 0.69007 0.35302 0.0
C906 C 0.97689 0.67286 0.35184 0.0
C907 C 0.98358 0.69377 0.36973 0.0
C908 C 0.99694 0.69816 0.36427 0.0
C909 C 0.97336 0.6809 0.36366 0.0
H910 H 0.99313 0.6714 0.33793 0.0
H911 H 0.00479 0.70787 0.36942 0.0
C912 C 0.05766 0.69758 0.32444 0.0
N913 N 0.07287 0.68746 0.30747 0.0
C914 C 0.06032 0.69877 0.30324 0.0
C915 C 0.06283 0.69134 0.33706 0.0
C916 C 0.06802 0.69357 0.29495 0.0
C917 C 0.07046 0.68625 0.32817 0.0
C918 C 0.01136 0.68827 0.30277 0.0
C919 C 0.00776 0.67893 0.28674 0.0
C920 C 0.00569 0.69657 0.30367 0.0
C921 C 0.99866 0.67816 0.27171 0.0
C922 C 0.99662 0.69549 0.28837 0.0
N923 N 0.99333 0.6864 0.27282 0.0
C924 C 0.03036 0.65975 0.34141 0.0
C925 C 0.03296 0.66704 0.30659 0.0
C926 C 0.02975 0.64776 0.33536 0.0
N927 N 0.0319 0.66905 0.32702 0.0
C928 C 0.03242 0.65523 0.29985 0.0
C929 C 0.0307 0.64534 0.31429 0.0
H930 H 0.02945 0.66156 0.35755 0.0
H931 H 0.03409 0.67458 0.29548 0.0
C932 C 0.05571 0.73069 0.3023 0.0
N933 N 0.04392 0.7192 0.29841 0.0
C934 C 0.06245 0.73994 0.28649 0.0
C935 C 0.0446 0.72552 0.26304 0.0
C936 C 0.03828 0.71647 0.27925 0.0
C937 C 0.05692 0.73734 0.26653 0.0
H938 H 0.05999 0.73253 0.31766 0.0
H939 H 0.02908 0.70717 0.27633 0.0
O940 O 0.02542 0.68546 0.36271 0.0
O941 O 0.03284 0.71398 0.34657 0.0
O942 O 0.0499 0.70233 0.33278 0.0
O943 O 0.02023 0.6891 0.31763 0.0
H944 H 0.00898 0.68553 0.39134 0.0
H945 H 0.04352 0.68096 0.38073 0.0
H946 H 0.01068 0.68206 0.42882 0.0
H947 H 0.04462 0.67756 0.4184 0.0
H948 H 0.02134 0.74413 0.32254 0.0
H949 H 0.03308 0.72534 0.38232 0.0
H950 H 0.02645 0.72581 0.31692 0.0
H951 H 0.02801 0.7438 0.38676 0.0
H952 H 0.05429 0.72196 0.43004 0.0
H953 H 0.08677 0.72813 0.38924 0.0
H954 H 0.96934 0.66294 0.34665 0.0
H955 H 0.98135 0.70021 0.37915 0.0
H956 H 0.05636 0.70353 0.29325 0.0
H957 H 0.06086 0.69034 0.3535 0.0
H958 H 0.0701 0.69436 0.27854 0.0
H959 H 0.07446 0.68133 0.33771 0.0
H960 H 0.01195 0.67234 0.2859 0.0
H961 H 0.00816 0.70367 0.31614 0.0
H962 H 0.99582 0.67101 0.25918 0.0
H963 H 0.99216 0.70186 0.28889 0.0
H964 H 0.0285 0.64046 0.34702 0.0
H965 H 0.03297 0.65372 0.28344 0.0
H966 H 0.07191 0.74898 0.28981 0.0
H967 H 0.04012 0.72307 0.24778 0.0
Li968 Li 0.29882 0.33677 0.3701 0.0
Li969 Li 0.30734 0.32484 0.34971 0.0
Li970 Li 0.31787 0.34943 0.34869 0.0
Li971 Li 0.29618 0.33619 0.33237 0.0
C972 C 0.31773 0.33744 0.39292 0.0
N973 N 0.3193 0.33641 0.43542 0.0
C974 C 0.31246 0.32503 0.40296 0.0
C975 C 0.32393 0.34933 0.40445 0.0
C976 C 0.31332 0.32472 0.42447 0.0
C977 C 0.32459 0.34859 0.42593 0.0
C978 C 0.27975 0.30913 0.34198 0.0
C979 C 0.27482 0.29394 0.31329 0.0
N980 N 0.26223 0.28591 0.32096 0.0
C981 C 0.26676 0.30074 0.34957 0.0
C982 C 0.28383 0.30573 0.32369 0.0
C983 C 0.25806 0.28903 0.33872 0.0
C984 C 0.28958 0.34624 0.40371 0.0
N985 N 0.28954 0.33541 0.39514 0.0
C986 C 0.27426 0.32086 0.42089 0.0
C987 C 0.28213 0.32289 0.40335 0.0
C988 C 0.27393 0.33182 0.42997 0.0
C989 C 0.28182 0.34467 0.42125 0.0
H990 H 0.29544 0.35605 0.39674 0.0
H991 H 0.28216 0.31443 0.39603 0.0
C992 C 0.32363 0.31346 0.34481 0.0
N993 N 0.31102 0.31041 0.35043 0.0
C994 C 0.32793 0.30416 0.3477 0.0
C995 C 0.30613 0.28864 0.3621 0.0
C996 C 0.30219 0.29822 0.35869 0.0
C997 C 0.31928 0.29169 0.35702 0.0
H998 H 0.33057 0.32336 0.33898 0.0
H999 H 0.29234 0.29619 0.36361 0.0
C1000 C 0.30687 0.36517 0.35031 0.0
N1001 N 0.31735 0.39269 0.34809 0.0
C1002 C 0.30408 0.37084 0.33324 0.0
C1003 C 0.31489 0.37349 0.36633 0.0
C1004 C 0.30949 0.38478 0.33239 0.0
C1005 C 0.32013 0.38738 0.36489 0.0
C1006 C 0.32139 0.34469 0.30911 0.0
C1007 C 0.31839 0.35348 0.2985 0.0
C1008 C 0.33313 0.34444 0.30417 0.0
C1009 C 0.32712 0.36181 0.28311 0.0
C1010 C 0.34164 0.35297 0.28874 0.0
N1011 N 0.33848 0.3614 0.2786 0.0
C1012 C 0.34555 0.3634 0.35453 0.0
C1013 C 0.33844 0.37539 0.33306 0.0
C1014 C 0.35901 0.37251 0.35004 0.0
N1015 N 0.33558 0.3648 0.3457 0.0
C1016 C 0.35178 0.38476 0.32818 0.0
C1017 C 0.36224 0.38313 0.33622 0.0
H1018 H 0.34305 0.35478 0.36421 0.0
H1019 H 0.33042 0.37615 0.32571 0.0
C1020 C 0.27473 0.33821 0.3167 0.0
N1021 N 0.28409 0.33483 0.31128 0.0
C1022 C 0.2661 0.33857 0.30185 0.0
C1023 C 0.27655 0.3314 0.27623 0.0
C1024 C 0.28495 0.33114 0.29163 0.0
C1025 C 0.26712 0.33539 0.2812 0.0
H1026 H 0.2742 0.34096 0.33252 0.0
H1027 H 0.29243 0.32838 0.28781 0.0
O1028 O 0.31671 0.33794 0.37193 0.0
O1029 O 0.28832 0.32065 0.35244 0.0
O1030 O 0.30161 0.35155 0.35147 0.0
O1031 O 0.31308 0.33665 0.32456 0.0
H1032 H 0.30761 0.31574 0.39426 0.0
H1033 H 0.32818 0.35901 0.39688 0.0
H1034 H 0.30919 0.31519 0.43246 0.0
H1035 H 0.3293 0.35771 0.43507 0.0
H1036 H 0.27784 0.29119 0.29913 0.0
H1037 H 0.26346 0.30325 0.36369 0.0
H1038 H 0.29383 0.31208 0.31758 0.0
H1039 H 0.24798 0.28244 0.34441 0.0
H1040 H 0.2682 0.31076 0.4269 0.0
H1041 H 0.28195 0.3534 0.42787 0.0
H1042 H 0.3381 0.30693 0.34331 0.0
H1043 H 0.29918 0.27927 0.36964 0.0
H1044 H 0.29785 0.36457 0.32073 0.0
H1045 H 0.31716 0.36928 0.37964 0.0
H1046 H 0.30745 0.3893 0.31923 0.0
H1047 H 0.32642 0.39394 0.37712 0.0
H1048 H 0.30957 0.35411 0.3024 0.0
H1049 H 0.33572 0.3378 0.31218 0.0
H1050 H 0.32492 0.36869 0.27489 0.0
H1051 H 0.35077 0.3529 0.28484 0.0
H1052 H 0.36678 0.37094 0.35669 0.0
H1053 H 0.35382 0.39269 0.31721 0.0
H1054 H 0.25882 0.34145 0.30645 0.0
H1055 H 0.27776 0.32896 0.2605 0.0
Li1056 Li 0.31755 0.01462 0.67079 0.0
Li1057 Li 0.34207 0.02694 0.67623 0.0
Li1058 Li 0.32755 0.03469 0.69151 0.0
Li1059 Li 0.33202 0.03661 0.65442 0.0
C1060 C 0.32707 0.01759 0.71786 0.0
N1061 N 0.32648 0.01908 0.7604 0.0
C1062 C 0.33904 0.0231 0.72917 0.0
C1063 C 0.3148 0.01278 0.72814 0.0
C1064 C 0.33852 0.02377 0.75069 0.0
C1065 C 0.31471 0.01364 0.74967 0.0
C1066 C 0.33803 0.01325 0.64114 0.0
C1067 C 0.35689 0.014 0.62342 0.0
N1068 N 0.35074 0.00035 0.62451 0.0
C1069 C 0.33186 0.99923 0.64198 0.0
C1070 C 0.3506 0.02071 0.63167 0.0
C1071 C 0.33846 0.99289 0.63351 0.0
C1072 C 0.29565 0.99431 0.64849 0.0
N1073 N 0.30242 0.99713 0.66671 0.0
C1074 C 0.28845 0.97446 0.6782 0.0
C1075 C 0.29906 0.98755 0.68151 0.0
C1076 C 0.28118 0.97135 0.65964 0.0
C1077 C 0.28478 0.98147 0.64475 0.0
H1078 H 0.2988 0.002 0.63675 0.0
H1079 H 0.3048 0.99 0.69568 0.0
C1080 C 0.36962 0.03602 0.68382 0.0
N1081 N 0.35737 0.0249 0.68086 0.0
C1082 C 0.38087 0.03474 0.68797 0.0
C1083 C 0.36672 0.01058 0.68582 0.0
C1084 C 0.35571 0.01233 0.68198 0.0
C1085 C 0.37953 0.02188 0.68904 0.0
H1086 H 0.37061 0.04589 0.68341 0.0
H1087 H 0.3458 0.00364 0.68006 0.0
C1088 C 0.30159 0.02466 0.66255 0.0
N1089 N 0.27514 0.01253 0.64945 0.0
C1090 C 0.29857 0.0268 0.64246 0.0
C1091 C 0.29114 0.0164 0.676 0.0
C1092 C 0.28514 0.02057 0.63614 0.0
C1093 C 0.27784 0.01033 0.66907 0.0
C1094 C 0.35312 0.05806 0.66997 0.0
C1095 C 0.35136 0.06862 0.67685 0.0
C1096 C 0.36284 0.0605 0.65495 0.0
C1097 C 0.35931 0.08146 0.66846 0.0
C1098 C 0.37057 0.07347 0.64692 0.0
N1099 N 0.36866 0.0836 0.65378 0.0
C1100 C 0.33617 0.05205 0.72606 0.0
C1101 C 0.31289 0.04197 0.71868 0.0
C1102 C 0.33495 0.05944 0.74223 0.0
N1103 N 0.32524 0.04363 0.71458 0.0
C1104 C 0.31117 0.04903 0.73483 0.0
C1105 C 0.32232 0.05806 0.74672 0.0
H1106 H 0.3459 0.05324 0.72234 0.0
H1107 H 0.30438 0.03527 0.70927 0.0
C1108 C 0.33711 0.04364 0.61209 0.0
N1109 N 0.3344 0.04731 0.63065 0.0
C1110 C 0.33856 0.05127 0.59446 0.0
C1111 C 0.33457 0.06637 0.61544 0.0
C1112 C 0.33298 0.05833 0.63259 0.0
C1113 C 0.33731 0.0628 0.59606 0.0
H1114 H 0.33798 0.03472 0.61094 0.0
H1115 H 0.33046 0.06079 0.64745 0.0
O1116 O 0.3274 0.01723 0.69676 0.0
O1117 O 0.3318 0.01965 0.64954 0.0
O1118 O 0.31469 0.03061 0.66899 0.0
O1119 O 0.34529 0.04537 0.67775 0.0
H1120 H 0.34862 0.02695 0.72142 0.0
H1121 H 0.30546 0.00858 0.71957 0.0
H1122 H 0.3477 0.02806 0.75966 0.0
H1123 H 0.3053 0.01004 0.75785 0.0
H1124 H 0.36666 0.01965 0.61616 0.0
H1125 H 0.32213 0.99329 0.64924 0.0
H1126 H 0.35551 0.03156 0.63084 0.0
H1127 H 0.33383 0.98205 0.63414 0.0
H1128 H 0.28599 0.96683 0.68992 0.0
H1129 H 0.27955 0.97933 0.63008 0.0
H1130 H 0.39042 0.04375 0.69087 0.0
H1131 H 0.36516 0.00047 0.68632 0.0
H1132 H 0.3065 0.03313 0.63182 0.0
H1133 H 0.29329 0.01445 0.69149 0.0
H1134 H 0.28266 0.02211 0.62062 0.0
H1135 H 0.26967 0.00383 0.67926 0.0
H1136 H 0.3438 0.0669 0.6883 0.0
H1137 H 0.36432 0.05244 0.64944 0.0
H1138 H 0.35799 0.08971 0.67354 0.0
H1139 H 0.37807 0.07549 0.63521 0.0
H1140 H 0.34388 0.0664 0.75073 0.0
H1141 H 0.3012 0.04742 0.73791 0.0
H1142 H 0.34065 0.04821 0.57973 0.0
H1143 H 0.33333 0.07507 0.61719 0.0
Li1144 Li 0.98219 0.30235 0.67745 0.0
Li1145 Li 0.97039 0.31571 0.68165 0.0
Li1146 Li 0.96101 0.29348 0.69633 0.0
Li1147 Li 0.96012 0.29605 0.66 0.0
C1148 C 0.97871 0.3089 0.72374 0.0
N1149 N 0.97731 0.30623 0.76621 0.0
C1150 C 0.97291 0.3149 0.73546 0.0
C1151 C 0.98385 0.30159 0.73358 0.0
C1152 C 0.97228 0.31342 0.75693 0.0
C1153 C 0.98304 0.30035 0.75508 0.0
C1154 C 0.98536 0.32511 0.64818 0.0
C1155 C 0.98663 0.34453 0.63152 0.0
N1156 N 1.00026 0.35115 0.63347 0.0
C1157 C 0.99939 0.3321 0.64996 0.0
C1158 C 0.97893 0.33135 0.6388 0.0
C1159 C 0.00673 0.34525 0.64244 0.0
C1160 C 0.00093 0.29916 0.65486 0.0
N1161 N 0.99911 0.30352 0.67343 0.0
C1162 C 0.02188 0.31089 0.68305 0.0
C1163 C 0.00921 0.30924 0.68756 0.0
C1164 C 0.02416 0.30673 0.66376 0.0
C1165 C 0.01341 0.30068 0.64966 0.0
H1166 H 0.99274 0.29483 0.64385 0.0
H1167 H 0.00752 0.31279 0.70211 0.0
C1168 C 0.96282 0.33551 0.68683 0.0
N1169 N 0.9735 0.33346 0.68618 0.0
C1170 C 0.96479 0.34837 0.69037 0.0
C1171 C 0.98871 0.35677 0.69289 0.0
C1172 C 0.98627 0.34372 0.68931 0.0
C1173 C 0.97788 0.35922 0.69349 0.0
H1174 H 0.95274 0.32712 0.68497 0.0
H1175 H 0.99455 0.34176 0.6891 0.0
C1176 C 0.96302 0.27222 0.6825 0.0
N1177 N 0.95751 0.24763 0.69844 0.0
C1178 C 0.94971 0.26176 0.68442 0.0
C1179 C 0.97353 0.27016 0.68867 0.0
C1180 C 0.94713 0.24941 0.69253 0.0
C1181 C 0.97054 0.25766 0.69668 0.0
C1182 C 0.93932 0.29688 0.67218 0.0
C1183 C 0.92842 0.28416 0.67676 0.0
C1184 C 0.93785 0.30485 0.65721 0.0
C1185 C 0.91624 0.27965 0.66635 0.0
C1186 C 0.92552 0.29996 0.6471 0.0
N1187 N 0.91506 0.28757 0.65185 0.0
C1188 C 0.94118 0.28577 0.72663 0.0
C1189 C 0.95324 0.27413 0.73023 0.0
C1190 C 0.93252 0.2783 0.74264 0.0
N1191 N 0.95099 0.28326 0.72021 0.0
C1192 C 0.94474 0.26635 0.74629 0.0
C1193 C 0.934 0.26818 0.75237 0.0
H1194 H 0.93994 0.29347 0.71908 0.0
H1195 H 0.96148 0.27271 0.72562 0.0
C1196 C 0.95348 0.29594 0.61757 0.0
N1197 N 0.95011 0.28846 0.63516 0.0
C1198 C 0.94583 0.29068 0.59963 0.0
C1199 C 0.93155 0.27006 0.61813 0.0
C1200 C 0.9395 0.27569 0.63563 0.0
C1201 C 0.93463 0.27758 0.59979 0.0
H1202 H 0.96207 0.30599 0.61747 0.0
H1203 H 0.93702 0.26995 0.64973 0.0
O1204 O 0.97908 0.30993 0.70269 0.0
O1205 O 0.97797 0.31229 0.65574 0.0
O1206 O 0.9658 0.28434 0.67429 0.0
O1207 O 0.95143 0.30139 0.68191 0.0
H1208 H 0.96882 0.32053 0.72802 0.0
H1209 H 0.98822 0.29674 0.72467 0.0
H1210 H 0.96776 0.31796 0.76621 0.0
H1211 H 0.9869 0.29465 0.76292 0.0
H1212 H 0.98177 0.3495 0.62437 0.0
H1213 H 0.00457 0.32749 0.65721 0.0
H1214 H 0.96809 0.32616 0.63742 0.0
H1215 H 0.01759 0.35079 0.64379 0.0
H1216 H 0.02981 0.3155 0.69446 0.0
H1217 H 0.01472 0.29757 0.63445 0.0
H1218 H 0.95612 0.34972 0.69122 0.0
H1219 H 0.99896 0.36483 0.69518 0.0
H1220 H 0.94143 0.26322 0.68019 0.0
H1221 H 0.98389 0.27811 0.68734 0.0
H1222 H 0.93688 0.24126 0.69425 0.0
H1223 H 0.97858 0.25594 0.70153 0.0
H1224 H 0.92941 0.27769 0.68792 0.0
H1225 H 0.9462 0.31463 0.65321 0.0
H1226 H 0.90776 0.2698 0.66969 0.0
H1227 H 0.92428 0.30599 0.63541 0.0
H1228 H 0.92469 0.2804 0.74726 0.0
H1229 H 0.94637 0.25876 0.75346 0.0
H1230 H 0.94873 0.29676 0.58575 0.0
H1231 H 0.92292 0.26 0.6191 0.0
Li1232 Li 0.69468 0.67809 0.67305 0.0
Li1233 Li 0.68431 0.65421 0.68162 0.0
Li1234 Li 0.7065 0.67058 0.69401 0.0
Li1235 Li 0.70299 0.66445 0.65739 0.0
C1236 C 0.69088 0.6741 0.7204 0.0
N1237 N 0.69508 0.68317 0.76079 0.0
C1238 C 0.68276 0.66568 0.73625 0.0
C1239 C 0.70098 0.68722 0.72507 0.0
C1240 C 0.68507 0.67043 0.75658 0.0
C1241 C 0.703 0.69159 0.74558 0.0
C1242 C 0.6727 0.66107 0.64892 0.0
C1243 C 0.65578 0.65756 0.62366 0.0
N1244 N 0.64823 0.65879 0.63879 0.0
C1245 C 0.66478 0.66233 0.66421 0.0
C1246 C 0.66818 0.65871 0.62846 0.0
C1247 C 0.65244 0.66113 0.65878 0.0
C1248 C 0.6916 0.6964 0.64797 0.0
N1249 N 0.69076 0.69213 0.66778 0.0
C1250 C 0.68295 0.70685 0.67914 0.0
C1251 C 0.68644 0.69704 0.68327 0.0
C1252 C 0.68394 0.71161 0.65887 0.0
C1253 C 0.68836 0.70629 0.64318 0.0
H1254 H 0.69458 0.69196 0.63583 0.0
H1255 H 0.68545 0.6932 0.69878 0.0
C1256 C 0.66867 0.63289 0.70787 0.0
N1257 N 0.66851 0.63777 0.68881 0.0
C1258 C 0.65752 0.62115 0.71505 0.0
C1259 C 0.64643 0.61924 0.68244 0.0
C1260 C 0.65783 0.63104 0.67588 0.0
C1261 C 0.64612 0.61423 0.70237 0.0
H1262 H 0.67748 0.63821 0.71754 0.0
H1263 H 0.65811 0.63474 0.66045 0.0
C1264 C 0.71957 0.69483 0.66027 0.0
N1265 N 0.73084 0.71958 0.64085 0.0
C1266 C 0.7207 0.69567 0.63874 0.0
C1267 C 0.72434 0.70661 0.67193 0.0
C1268 C 0.72639 0.70827 0.62921 0.0
C1269 C 0.72995 0.71902 0.66182 0.0
C1270 C 0.69767 0.64021 0.67487 0.0
C1271 C 0.7032 0.6333 0.68481 0.0
C1272 C 0.68898 0.63426 0.65811 0.0
C1273 C 0.69996 0.62051 0.67779 0.0
C1274 C 0.68598 0.62145 0.65157 0.0
N1275 N 0.69149 0.6149 0.66145 0.0
C1276 C 0.71474 0.66646 0.73295 0.0
C1277 C 0.73125 0.68566 0.71495 0.0
C1278 C 0.72348 0.66927 0.7496 0.0
N1279 N 0.71873 0.67469 0.71618 0.0
C1280 C 0.74036 0.68879 0.73118 0.0
C1281 C 0.73652 0.68055 0.74884 0.0
H1282 H 0.70472 0.65777 0.73342 0.0
H1283 H 0.73418 0.69193 0.7013 0.0
C1284 C 0.7046 0.65786 0.61555 0.0
N1285 N 0.71093 0.6611 0.63415 0.0
C1286 C 0.71059 0.6554 0.59858 0.0
C1287 C 0.72943 0.65959 0.62035 0.0
C1288 C 0.72308 0.66197 0.63687 0.0
C1289 C 0.7232 0.65628 0.60085 0.0
H1290 H 0.69494 0.65725 0.61389 0.0
H1291 H 0.7278 0.66449 0.65193 0.0
O1292 O 0.68894 0.66956 0.70042 0.0
O1293 O 0.68497 0.66248 0.6537 0.0
O1294 O 0.71386 0.68257 0.66988 0.0
O1295 O 0.70075 0.65273 0.68166 0.0
H1296 H 0.67469 0.65562 0.73293 0.0
H1297 H 0.70727 0.69389 0.71298 0.0
H1298 H 0.67889 0.664 0.769 0.0
H1299 H 0.71086 0.70168 0.7494 0.0
H1300 H 0.65216 0.65573 0.60789 0.0
H1301 H 0.66805 0.66419 0.68012 0.0
H1302 H 0.6742 0.6578 0.61639 0.0
H1303 H 0.64622 0.66207 0.67046 0.0
H1304 H 0.67953 0.71068 0.69164 0.0
H1305 H 0.68897 0.70948 0.62727 0.0
H1306 H 0.65772 0.61769 0.73054 0.0
H1307 H 0.63798 0.61405 0.672 0.0
H1308 H 0.71704 0.6867 0.62942 0.0
H1309 H 0.72372 0.7062 0.6886 0.0
H1310 H 0.72723 0.70905 0.61255 0.0
H1311 H 0.73361 0.7282 0.67065 0.0
H1312 H 0.70993 0.63777 0.69783 0.0
H1313 H 0.68456 0.63943 0.65025 0.0
H1314 H 0.70417 0.61503 0.68534 0.0
H1315 H 0.67928 0.61673 0.63863 0.0
H1316 H 0.71999 0.66275 0.763 0.0
H1317 H 0.75036 0.69746 0.72976 0.0
H1318 H 0.7055 0.65305 0.58379 0.0
H1319 H 0.73905 0.66019 0.62287 0.0
Li1320 Li 0.34908 0.31789 0.67531 0.0
Li1321 Li 0.33594 0.29509 0.68902 0.0
Li1322 Li 0.34145 0.29851 0.65151 0.0
Li1323 Li 0.32456 0.30302 0.66684 0.0
C1324 C 0.36744 0.30824 0.67235 0.0
N1325 N 0.39453 0.31777 0.66566 0.0
C1326 C 0.37531 0.30705 0.68778 0.0
C1327 C 0.37332 0.31409 0.65343 0.0
C1328 C 0.389 0.31198 0.68413 0.0
C1329 C 0.38703 0.31889 0.65036 0.0
C1330 C 0.33173 0.31005 0.71488 0.0
C1331 C 0.31822 0.30057 0.74547 0.0
N1332 N 0.3292 0.3083 0.75739 0.0
C1333 C 0.34286 0.31796 0.72742 0.0
C1334 C 0.31929 0.30134 0.72395 0.0
C1335 C 0.34138 0.31691 0.74889 0.0
C1336 C 0.35792 0.34512 0.67806 0.0
N1337 N 0.36207 0.33607 0.68144 0.0
C1338 C 0.38275 0.35322 0.696 0.0
C1339 C 0.37426 0.33985 0.69009 0.0
C1340 C 0.37854 0.3627 0.69323 0.0
C1341 C 0.36604 0.35855 0.68384 0.0
H1342 H 0.34813 0.34179 0.6713 0.0
H1343 H 0.37723 0.33245 0.69311 0.0
C1344 C 0.3232 0.27162 0.7139 0.0
N1345 N 0.33421 0.28409 0.71216 0.0
C1346 C 0.32198 0.26335 0.73056 0.0
C1347 C 0.34353 0.28084 0.74317 0.0
C1348 C 0.34427 0.28882 0.72638 0.0
C1349 C 0.33227 0.26792 0.74537 0.0
H1350 H 0.31544 0.26801 0.70226 0.0
H1351 H 0.35286 0.29881 0.72467 0.0
C1352 C 0.34436 0.32206 0.63038 0.0
N1353 N 0.35359 0.33706 0.59448 0.0
C1354 C 0.33542 0.3202 0.61435 0.0
C1355 C 0.35796 0.33178 0.62828 0.0
C1356 C 0.34029 0.3278 0.59628 0.0
C1357 C 0.36244 0.3392 0.60999 0.0
C1358 C 0.3113 0.27667 0.65949 0.0
C1359 C 0.30854 0.27064 0.63999 0.0
C1360 C 0.30069 0.27369 0.67309 0.0
C1361 C 0.2952 0.26186 0.6343 0.0
C1362 C 0.28748 0.26488 0.66681 0.0
N1363 N 0.28503 0.2592 0.6477 0.0
C1364 C 0.35247 0.28454 0.63126 0.0
C1365 C 0.34053 0.29138 0.60915 0.0
C1366 C 0.35482 0.27804 0.61491 0.0
N1367 N 0.34548 0.29108 0.62809 0.0
C1368 C 0.34252 0.2849 0.5924 0.0
C1369 C 0.34969 0.27805 0.59522 0.0
H1370 H 0.35598 0.28413 0.6466 0.0
H1371 H 0.33463 0.29625 0.60716 0.0
C1372 C 0.30322 0.30819 0.67528 0.0
N1373 N 0.3083 0.30311 0.66119 0.0
C1374 C 0.2914 0.30843 0.67101 0.0
C1375 C 0.29032 0.29825 0.63784 0.0
C1376 C 0.30213 0.29823 0.64273 0.0
C1377 C 0.28478 0.30339 0.65206 0.0
H1378 H 0.30839 0.3121 0.6898 0.0
H1379 H 0.30641 0.2943 0.63177 0.0
O1380 O 0.35402 0.3035 0.67575 0.0
O1381 O 0.33306 0.3107 0.69384 0.0
O1382 O 0.33969 0.31483 0.64833 0.0
O1383 O 0.3243 0.28544 0.66523 0.0
H1384 H 0.37094 0.30242 0.70244 0.0
H1385 H 0.36733 0.31473 0.64111 0.0
H1386 H 0.39522 0.3112 0.69598 0.0
H1387 H 0.39169 0.32345 0.63578 0.0
H1388 H 0.30868 0.29382 0.7527 0.0
H1389 H 0.35257 0.32472 0.72068 0.0
H1390 H 0.31057 0.29518 0.71447 0.0
H1391 H 0.34992 0.32292 0.75879 0.0
H1392 H 0.39222 0.35597 0.70349 0.0
H1393 H 0.36247 0.36556 0.68131 0.0
H1394 H 0.3132 0.25339 0.73162 0.0
H1395 H 0.35161 0.28477 0.75441 0.0
H1396 H 0.32484 0.3129 0.61574 0.0
H1397 H 0.365 0.33371 0.64066 0.0
H1398 H 0.33348 0.32636 0.58371 0.0
H1399 H 0.37294 0.3467 0.60816 0.0
H1400 H 0.31661 0.27271 0.62934 0.0
H1401 H 0.30262 0.27828 0.68822 0.0
H1402 H 0.29292 0.25716 0.61921 0.0
H1403 H 0.27918 0.26258 0.67712 0.0
H1404 H 0.36021 0.2727 0.6178 0.0
H1405 H 0.33842 0.28515 0.57745 0.0
H1406 H 0.28743 0.31241 0.68246 0.0
H1407 H 0.28571 0.29448 0.6229 0.0
Li1408 Li 0.68441 0.03314 0.68162 0.0
Li1409 Li 0.70701 0.04053 0.6953 0.0
Li1410 Li 0.70347 0.04187 0.65791 0.0
Li1411 Li 0.69587 0.02013 0.67436 0.0
C1412 C 0.69731 0.06141 0.67889 0.0
N1413 N 0.69075 0.08143 0.67477 0.0
C1414 C 0.69878 0.06974 0.69563 0.0
C1415 C 0.69274 0.06344 0.65996 0.0
C1416 C 0.69534 0.07975 0.69327 0.0
C1417 C 0.68942 0.07356 0.6582 0.0
C1418 C 0.69212 0.01659 0.71679 0.0
C1419 C 0.70595 0.00871 0.73259 0.0
N1420 N 0.69639 0.00233 0.74737 0.0
C1421 C 0.68243 0.00997 0.73212 0.0
C1422 C 0.70398 0.01597 0.717 0.0
C1423 C 0.68478 0.00281 0.74746 0.0
C1424 C 0.65625 0.02106 0.67877 0.0
N1425 N 0.66735 0.0313 0.68782 0.0
C1426 C 0.65368 0.03751 0.70754 0.0
C1427 C 0.66631 0.03944 0.70205 0.0
C1428 C 0.64202 0.02699 0.69848 0.0
C1429 C 0.64345 0.01879 0.68376 0.0
H1430 H 0.65732 0.01449 0.66793 0.0
H1431 H 0.67523 0.04718 0.70959 0.0
C1432 C 0.73098 0.05107 0.71936 0.0
N1433 N 0.7183 0.04913 0.71827 0.0
C1434 C 0.73927 0.05797 0.73612 0.0
C1435 C 0.72119 0.06055 0.75033 0.0
C1436 C 0.71323 0.05349 0.73345 0.0
C1437 C 0.73444 0.06298 0.75171 0.0
H1438 H 0.73467 0.04735 0.70715 0.0
H1439 H 0.703 0.05155 0.73231 0.0
C1440 C 0.67883 0.02275 0.6372 0.0
N1441 N 0.66484 0.01776 0.60043 0.0
C1442 C 0.67789 0.01277 0.62375 0.0
C1443 C 0.6724 0.02998 0.63211 0.0
C1444 C 0.67085 0.01046 0.60519 0.0
C1445 C 0.66545 0.02737 0.61342 0.0
C1446 C 0.7223 0.03347 0.65713 0.0
C1447 C 0.71604 0.02551 0.63981 0.0
C1448 C 0.73628 0.03973 0.65914 0.0
C1449 C 0.72385 0.02382 0.62484 0.0
C1450 C 0.74375 0.0378 0.64385 0.0
N1451 N 0.73743 0.02995 0.62716 0.0
C1452 C 0.7205 0.06569 0.6363 0.0
C1453 C 0.70862 0.0467 0.61457 0.0
C1454 C 0.72677 0.07393 0.61921 0.0
N1455 N 0.71151 0.05238 0.63368 0.0
C1456 C 0.71466 0.05453 0.59708 0.0
C1457 C 0.72382 0.06837 0.59925 0.0
H1458 H 0.72273 0.06992 0.6517 0.0
H1459 H 0.70174 0.03606 0.61283 0.0
C1460 C 0.67927 0.99284 0.66694 0.0
N1461 N 0.69233 0.00222 0.67051 0.0
C1462 C 0.67578 0.97972 0.66159 0.0
C1463 C 0.6992 0.98598 0.66463 0.0
C1464 C 0.70222 0.99898 0.6701 0.0
C1465 C 0.68586 0.97622 0.65978 0.0
H1466 H 0.67162 0.99571 0.66761 0.0
H1467 H 0.71252 0.00659 0.67328 0.0
O1468 O 0.70065 0.05156 0.68098 0.0
O1469 O 0.68994 0.02362 0.7017 0.0
O1470 O 0.68568 0.02512 0.65549 0.0
O1471 O 0.71486 0.03541 0.67185 0.0
H1472 H 0.70247 0.06847 0.71033 0.0
H1473 H 0.69192 0.05739 0.64667 0.0
H1474 H 0.69634 0.0862 0.70615 0.0
H1475 H 0.68584 0.07521 0.64363 0.0
H1476 H 0.71508 0.00815 0.73294 0.0
H1477 H 0.6732 0.01036 0.73216 0.0
H1478 H 0.7116 0.02103 0.70529 0.0
H1479 H 0.67737 0.99763 0.75943 0.0
H1480 H 0.65305 0.04389 0.71929 0.0
H1481 H 0.63475 0.0106 0.67631 0.0
H1482 H 0.74943 0.05965 0.73664 0.0
H1483 H 0.71703 0.06404 0.76222 0.0
H1484 H 0.68257 0.00687 0.62754 0.0
H1485 H 0.67256 0.03737 0.64262 0.0
H1486 H 0.67013 0.00284 0.59459 0.0
H1487 H 0.66046 0.03293 0.60929 0.0
H1488 H 0.70528 0.02069 0.63794 0.0
H1489 H 0.74133 0.04605 0.67233 0.0
H1490 H 0.7191 0.01766 0.61138 0.0
H1491 H 0.75457 0.04257 0.64522 0.0
H1492 H 0.73369 0.08455 0.6216 0.0
H1493 H 0.7123 0.04976 0.58204 0.0
H1494 H 0.66534 0.97248 0.65844 0.0
H1495 H 0.70732 0.98379 0.66332 0.0
Li1496 Li 0.9654 0.6734 0.69476 0.0
Li1497 Li 0.97152 0.65826 0.68005 0.0
Li1498 Li 0.98422 0.68149 0.67114 0.0
Li1499 Li 0.96083 0.66711 0.65847 0.0
C1500 C 0.99056 0.68335 0.71232 0.0
N1501 N 0.00679 0.70337 0.73983 0.0
C1502 C 0.99816 0.68104 0.7269 0.0
C1503 C 0.99122 0.69585 0.71172 0.0
C1504 C 0.00631 0.69129 0.74068 0.0
C1505 C 0.99949 0.70584 0.72576 0.0
C1506 C 0.94597 0.64656 0.69841 0.0
C1507 C 0.92489 0.62971 0.71314 0.0
N1508 N 0.93159 0.62891 0.72992 0.0
C1509 C 0.95265 0.64557 0.71581 0.0
C1510 C 0.93198 0.63858 0.69705 0.0
C1511 C 0.9452 0.63659 0.73157 0.0
C1512 C 0.95009 0.68278 0.71525 0.0
N1513 N 0.95836 0.67766 0.71835 0.0
C1514 C 0.95608 0.67836 0.75494 0.0
C1515 C 0.96142 0.6754 0.73769 0.0
C1516 C 0.94753 0.68372 0.75229 0.0
C1517 C 0.94455 0.68593 0.73209 0.0
H1518 H 0.9478 0.68441 0.69967 0.0
H1519 H 0.96794 0.67121 0.73975 0.0
C1520 C 0.98593 0.64563 0.69167 0.0
N1521 N 0.9736 0.64304 0.6852 0.0
C1522 C 0.98816 0.63507 0.69657 0.0
C1523 C 0.965 0.61934 0.68775 0.0
C1524 C 0.96323 0.63023 0.68289 0.0
C1525 C 0.97757 0.62171 0.69488 0.0
H1526 H 0.99398 0.65594 0.69328 0.0
H1527 H 0.95356 0.62847 0.67751 0.0
C1528 C 0.97054 0.69466 0.65604 0.0
N1529 N 0.97304 0.71278 0.62581 0.0
C1530 C 0.9758 0.69441 0.63665 0.0
C1531 C 0.96654 0.70411 0.66003 0.0
C1532 C 0.97698 0.70366 0.62158 0.0
C1533 C 0.96789 0.7132 0.64455 0.0
C1534 C 0.97784 0.65581 0.64237 0.0
C1535 C 0.99027 0.6565 0.63998 0.0
C1536 C 0.9661 0.64437 0.63572 0.0
C1537 C 0.99075 0.64565 0.63107 0.0
C1538 C 0.967 0.63374 0.62686 0.0
N1539 N 0.9792 0.63459 0.62476 0.0
C1540 C 0.01168 0.69189 0.66789 0.0
C1541 C 0.00566 0.70841 0.66055 0.0
C1542 C 0.02521 0.70111 0.66412 0.0
N1543 N 0.00219 0.69557 0.66564 0.0
C1544 C 0.01907 0.71792 0.65631 0.0
C1545 C 0.02907 0.71428 0.6578 0.0
H1546 H 0.0087 0.68176 0.67272 0.0
H1547 H 0.99808 0.71134 0.65969 0.0
C1548 C 0.93594 0.66134 0.6418 0.0
N1549 N 0.94851 0.66394 0.6367 0.0
C1550 C 0.92663 0.65938 0.62635 0.0
C1551 C 0.94341 0.66286 0.60073 0.0
C1552 C 0.95236 0.66467 0.61666 0.0
C1553 C 0.93032 0.66019 0.60545 0.0
H1554 H 0.9332 0.66085 0.6579 0.0
H1555 H 0.96245 0.66681 0.61306 0.0
O1556 O 0.98258 0.67335 0.69876 0.0
O1557 O 0.95299 0.6553 0.68275 0.0
O1558 O 0.96901 0.68555 0.67096 0.0
O1559 O 0.9771 0.66614 0.65161 0.0
H1560 H 0.99776 0.67142 0.72756 0.0
H1561 H 0.98543 0.69786 0.70059 0.0
H1562 H 0.01224 0.68964 0.75205 0.0
H1563 H 1.00009 0.71555 0.72547 0.0
H1564 H 0.91406 0.62347 0.71228 0.0
H1565 H 0.96347 0.65164 0.71716 0.0
H1566 H 0.92666 0.63923 0.68368 0.0
H1567 H 0.95025 0.63572 0.74511 0.0
H1568 H 0.95848 0.67628 0.7702 0.0
H1569 H 0.93812 0.69017 0.72931 0.0
H1570 H 0.99796 0.63735 0.70225 0.0
H1571 H 0.95661 0.6092 0.68605 0.0
H1572 H 0.97905 0.68725 0.63331 0.0
H1573 H 0.96241 0.70441 0.67494 0.0
H1574 H 0.98105 0.70359 0.60653 0.0
H1575 H 0.96484 0.72057 0.64743 0.0
H1576 H 0.99945 0.66527 0.64504 0.0
H1577 H 0.95638 0.6436 0.63769 0.0
H1578 H 1.00029 0.64602 0.6292 0.0
H1579 H 0.95799 0.62479 0.62175 0.0
H1580 H 0.03256 0.6979 0.66615 0.0
H1581 H 0.0215 0.72792 0.65148 0.0
H1582 H 0.91662 0.65717 0.63076 0.0
H1583 H 0.9468 0.6638 0.58488 0.0
H1584 H 0.23192 0.36287 0.15 0.0
N1585 N 0.21275 0.34515 0.12549 0.0
H1586 H 0.24092 0.35837 0.18133 0.0
H1587 H 0.20241 0.32071 0.1452 0.0
H1588 H 0.21103 0.31617 0.1767 0.0
H1589 H 0.21543 0.32387 0.1127 0.0
H1590 H 0.2323 0.32513 0.08856 0.0
H1591 H 0.2272 0.36511 0.09949 0.0
H1592 H 0.24368 0.36631 0.07434 0.0
H1593 H 0.2019 0.36061 0.1293 0.0
H1594 H 0.1923 0.32029 0.11373 0.0
H1595 H 0.17828 0.35421 0.12559 0.0
H1596 H 0.16847 0.31341 0.11154 0.0
H1597 H 0.11378 0.33744 0.13727 0.0
H1598 H 0.10227 0.33608 0.16937 0.0
H1599 H 0.09078 0.29416 0.17536 0.0
H1600 H 0.10214 0.29552 0.1425 0.0
H1601 H 0.09191 0.30476 0.09675 0.0
H1602 H 0.08257 0.31528 0.07468 0.0
H1603 H 0.11971 0.35329 0.07995 0.0
H1604 H 0.12866 0.34285 0.10285 0.0
H1605 H 0.13477 0.33619 0.14242 0.0
H1606 H 0.15818 0.34243 0.14315 0.0
H1607 H 0.15127 0.31443 0.09354 0.0
N1608 N 0.11488 0.31683 0.1176 0.0
H1609 H 0.12733 0.30746 0.09392 0.0
C1610 C 0.21648 0.34223 0.14528 0.0
C1611 C 0.2272 0.3527 0.156 0.0
C1612 C 0.23228 0.3501 0.17391 0.0
C1613 C 0.22671 0.33689 0.18152 0.0
C1614 C 0.21567 0.32643 0.17111 0.0
C1615 C 0.21062 0.32905 0.15314 0.0
C1616 C 0.22027 0.34453 0.10815 0.0
C1617 C 0.22138 0.33309 0.10414 0.0
C1618 C 0.23101 0.33381 0.09018 0.0
C1619 C 0.23957 0.34592 0.07978 0.0
C1620 C 0.23753 0.35694 0.0825 0.0
C1621 C 0.22803 0.35625 0.09666 0.0
C1622 C 0.1988 0.34092 0.12222 0.0
C1623 C 0.19461 0.35033 0.12525 0.0
C1624 C 0.18108 0.34658 0.12332 0.0
C1625 C 0.17133 0.33318 0.11868 0.0
C1626 C 0.17563 0.32382 0.11504 0.0
C1627 C 0.18927 0.32769 0.11657 0.0
C1628 C 0.10878 0.31651 0.13734 0.0
C1629 C 0.10881 0.32793 0.14538 0.0
C1630 C 0.10231 0.32718 0.16393 0.0
C1631 C 0.09565 0.31503 0.17501 0.0
C1632 C 0.09573 0.30364 0.16711 0.0
C1633 C 0.10227 0.30441 0.14845 0.0
C1634 C 0.11094 0.3229 0.10148 0.0
C1635 C 0.09812 0.31529 0.09274 0.0
C1636 C 0.09283 0.32135 0.08004 0.0
C1637 C 0.10034 0.3352 0.07559 0.0
C1638 C 0.11354 0.34267 0.08334 0.0
C1639 C 0.11876 0.33663 0.09627 0.0
C1640 C 0.12907 0.32107 0.11828 0.0
C1641 C 0.1381 0.33118 0.13182 0.0
C1642 C 0.15169 0.33494 0.13202 0.0
C1643 C 0.15675 0.32901 0.11833 0.0
C1644 C 0.14775 0.31907 0.10456 0.0
C1645 C 0.13407 0.31513 0.10464 0.0
H1646 H 0.71246 0.79805 0.12766 0.0
N1647 N 0.69292 0.80115 0.1114 0.0
H1648 H 0.71159 0.78577 0.159 0.0
H1649 H 0.67208 0.78987 0.13902 0.0
H1650 H 0.67058 0.77659 0.16932 0.0
H1651 H 0.66573 0.78545 0.10471 0.0
H1652 H 0.65491 0.76604 0.08161 0.0
H1653 H 0.70469 0.79425 0.08247 0.0
H1654 H 0.69402 0.77477 0.0595 0.0
H1655 H 0.70429 0.8211 0.13924 0.0
H1656 H 0.6787 0.80878 0.08511 0.0
H1657 H 0.70385 0.84203 0.14016 0.0
H1658 H 0.67844 0.82977 0.0861 0.0
H1659 H 0.71187 0.91377 0.12983 0.0
H1660 H 0.70886 0.92338 0.16177 0.0
H1661 H 0.67334 0.88535 0.1758 0.0
H1662 H 0.67624 0.87598 0.14367 0.0
H1663 H 0.66991 0.8861 0.11312 0.0
H1664 H 0.66206 0.89724 0.08984 0.0
H1665 H 0.69851 0.91186 0.05374 0.0
H1666 H 0.70676 0.90154 0.07843 0.0
H1667 H 0.71505 0.88419 0.11865 0.0
H1668 H 0.7135 0.86215 0.11836 0.0
H1669 H 0.67074 0.84319 0.10696 0.0
N1670 N 0.6954 0.88965 0.11398 0.0
H1671 H 0.67243 0.86536 0.10714 0.0
C1672 C 0.69232 0.7947 0.13086 0.0
C1673 C 0.70339 0.79353 0.13694 0.0
C1674 C 0.70278 0.78635 0.15474 0.0
C1675 C 0.69093 0.77993 0.16666 0.0
C1676 C 0.67994 0.78145 0.16076 0.0
C1677 C 0.68068 0.78889 0.14319 0.0
C1678 C 0.68608 0.7913 0.09534 0.0
C1679 C 0.67195 0.78331 0.09467 0.0
C1680 C 0.66578 0.77218 0.08147 0.0
C1681 C 0.67359 0.76876 0.06882 0.0
C1682 C 0.68766 0.77719 0.0688 0.0
C1683 C 0.6938 0.78832 0.08193 0.0
C1684 C 0.69109 0.81279 0.11271 0.0
C1685 C 0.69827 0.82264 0.12785 0.0
C1686 C 0.69818 0.83474 0.12823 0.0
C1687 C 0.6911 0.83755 0.11322 0.0
C1688 C 0.6838 0.82779 0.09811 0.0
C1689 C 0.68392 0.81564 0.09767 0.0
C1690 C 0.69436 0.8942 0.13434 0.0
C1691 C 0.7036 0.90746 0.14004 0.0
C1692 C 0.70187 0.91291 0.15831 0.0
C1693 C 0.69081 0.90515 0.17128 0.0
C1694 C 0.68186 0.89165 0.16599 0.0
C1695 C 0.68359 0.88622 0.14769 0.0
C1696 C 0.68915 0.89333 0.09785 0.0
C1697 C 0.67619 0.8916 0.10013 0.0
C1698 C 0.67162 0.89791 0.08653 0.0
C1699 C 0.67974 0.90577 0.07 0.0
C1700 C 0.69214 0.90631 0.06665 0.0
C1701 C 0.69683 0.90027 0.08057 0.0
C1702 C 0.69394 0.87645 0.11284 0.0
C1703 C 0.70537 0.87527 0.116 0.0
C1704 C 0.70443 0.86267 0.11598 0.0
C1705 C 0.69197 0.85091 0.1128 0.0
C1706 C 0.68049 0.85208 0.10933 0.0
C1707 C 0.68144 0.86474 0.10945 0.0
H1708 H 0.12059 0.7779 0.13252 0.0
N1709 N 0.11896 0.79868 0.11478 0.0
H1710 H 0.11179 0.76785 0.16629 0.0
H1711 H 0.1079 0.80697 0.14306 0.0
H1712 H 0.0987 0.79668 0.17685 0.0
H1713 H 0.09318 0.78718 0.10486 0.0
H1714 H 0.08014 0.76718 0.08396 0.0
H1715 H 0.12954 0.78688 0.08876 0.0
H1716 H 0.11674 0.76748 0.06694 0.0
H1717 H 0.14076 0.79517 0.12051 0.0
H1718 H 0.12913 0.82441 0.10475 0.0
H1719 H 0.16426 0.81227 0.1181 0.0
H1720 H 0.15281 0.84203 0.10384 0.0
H1721 H 0.23657 0.87357 0.1393 0.0
H1722 H 0.24456 0.88752 0.17033 0.0
H1723 H 0.21289 0.89724 0.16363 0.0
H1724 H 0.20515 0.88341 0.13224 0.0
H1725 H 0.21605 0.89154 0.09815 0.0
H1726 H 0.23224 0.90752 0.07343 0.0
H1727 H 0.25023 0.88241 0.06727 0.0
H1728 H 0.23378 0.86635 0.09173 0.0
H1729 H 0.20428 0.84742 0.13644 0.0
H1730 H 0.18063 0.8302 0.13597 0.0
H1731 H 0.17356 0.85175 0.08724 0.0
N1732 N 0.21659 0.86985 0.11462 0.0
H1733 H 0.19703 0.8694 0.08894 0.0
C1734 C 0.11508 0.79336 0.13541 0.0
C1735 C 0.11624 0.78235 0.14232 0.0
C1736 C 0.11113 0.77656 0.1616 0.0
C1737 C 0.10458 0.7815 0.17416 0.0
C1738 C 0.10366 0.79266 0.16741 0.0
C1739 C 0.10895 0.79857 0.14825 0.0
C1740 C 0.11234 0.78859 0.09885 0.0
C1741 C 0.09841 0.78305 0.09634 0.0
C1742 C 0.09097 0.7716 0.08423 0.0
C1743 C 0.09732 0.76551 0.07384 0.0
C1744 C 0.11142 0.77162 0.07517 0.0
C1745 C 0.11884 0.78292 0.08767 0.0
C1746 C 0.13309 0.80844 0.11247 0.0
C1747 C 0.14323 0.80528 0.1165 0.0
C1748 C 0.15678 0.81521 0.11538 0.0
C1749 C 0.16058 0.82867 0.11097 0.0
C1750 C 0.15038 0.83178 0.10691 0.0
C1751 C 0.13681 0.82174 0.10754 0.0
C1752 C 0.2203 0.87742 0.1336 0.0
C1753 C 0.2313 0.87862 0.14469 0.0
C1754 C 0.23579 0.88654 0.16245 0.0
C1755 C 0.2293 0.89343 0.16955 0.0
C1756 C 0.21815 0.89214 0.15848 0.0
C1757 C 0.21368 0.88419 0.14063 0.0
C1758 C 0.22374 0.87773 0.09679 0.0
C1759 C 0.2232 0.88926 0.091 0.0
C1760 C 0.23255 0.89845 0.07699 0.0
C1761 C 0.24266 0.89634 0.06861 0.0
C1762 C 0.24253 0.88431 0.07328 0.0
C1763 C 0.23314 0.87511 0.08726 0.0
C1764 C 0.20256 0.85969 0.11275 0.0
C1765 C 0.1976 0.8484 0.12566 0.0
C1766 C 0.18405 0.83848 0.12518 0.0
C1767 C 0.17507 0.83941 0.11137 0.0
C1768 C 0.18007 0.85072 0.09828 0.0
C1769 C 0.19363 0.86084 0.0991 0.0
H1770 H 0.33565 0.22194 0.88523 0.0
N1771 N 0.31262 0.20169 0.90261 0.0
H1772 H 0.33722 0.23347 0.85295 0.0
H1773 H 0.29355 0.19443 0.87411 0.0
H1774 H 0.29516 0.20537 0.84094 0.0
H1775 H 0.29969 0.21304 0.91924 0.0
H1776 H 0.30898 0.23282 0.94149 0.0
H1777 H 0.33713 0.21289 0.92267 0.0
H1778 H 0.34632 0.23229 0.94552 0.0
H1779 H 0.33509 0.20021 0.89262 0.0
H1780 H 0.2944 0.17734 0.91516 0.0
H1781 H 0.33735 0.18021 0.89427 0.0
H1782 H 0.29614 0.15702 0.91552 0.0
H1783 H 0.34084 0.12366 0.88172 0.0
H1784 H 0.3437 0.11288 0.85118 0.0
H1785 H 0.30053 0.08855 0.84511 0.0
H1786 H 0.29773 0.09938 0.87592 0.0
H1787 H 0.30582 0.09372 0.92177 0.0
H1788 H 0.31695 0.08576 0.9453 0.0
H1789 H 0.35347 0.1244 0.94119 0.0
H1790 H 0.34222 0.13217 0.91728 0.0
H1791 H 0.3313 0.13911 0.87604 0.0
H1792 H 0.3308 0.15992 0.87766 0.0
H1793 H 0.30514 0.1453 0.93158 0.0
N1794 N 0.31697 0.11671 0.90106 0.0
H1795 H 0.30491 0.124 0.92893 0.0
C1796 C 0.31437 0.20745 0.88225 0.0
C1797 C 0.32678 0.21821 0.87563 0.0
C1798 C 0.32768 0.22474 0.85698 0.0
C1799 C 0.31627 0.22048 0.84433 0.0
C1800 C 0.30407 0.20917 0.85048 0.0
C1801 C 0.30314 0.2028 0.86931 0.0
C1802 C 0.31761 0.21143 0.91917 0.0
C1803 C 0.30976 0.21701 0.92538 0.0
C1804 C 0.3151 0.22831 0.93816 0.0
C1805 C 0.32847 0.23426 0.9452 0.0
C1806 C 0.33607 0.22812 0.94008 0.0
C1807 C 0.33074 0.21687 0.92711 0.0
C1808 C 0.3146 0.19028 0.90414 0.0
C1809 C 0.32666 0.19089 0.89807 0.0
C1810 C 0.32786 0.17935 0.89876 0.0
C1811 C 0.31694 0.16689 0.90505 0.0
C1812 C 0.3049 0.16641 0.91107 0.0
C1813 C 0.30382 0.17799 0.91074 0.0
C1814 C 0.319 0.11224 0.8812 0.0
C1815 C 0.33197 0.11614 0.87373 0.0
C1816 C 0.33361 0.10993 0.8563 0.0
C1817 C 0.32234 0.09977 0.84591 0.0
C1818 C 0.30939 0.0964 0.85274 0.0
C1819 C 0.30777 0.10257 0.87029 0.0
C1820 C 0.32317 0.11345 0.91775 0.0
C1821 C 0.31612 0.10056 0.92639 0.0
C1822 C 0.3225 0.09607 0.9399 0.0
C1823 C 0.33614 0.10443 0.94507 0.0
C1824 C 0.34301 0.11766 0.9373 0.0
C1825 C 0.33658 0.12215 0.92376 0.0
C1826 C 0.31793 0.12975 0.90227 0.0
C1827 C 0.32552 0.14024 0.88822 0.0
C1828 C 0.32534 0.15233 0.8893 0.0
C1829 C 0.31784 0.15436 0.90466 0.0
C1830 C 0.31075 0.14405 0.91918 0.0
C1831 C 0.31071 0.13188 0.91784 0.0
H1832 H 0.77449 0.10945 0.894 0.0
N1833 N 0.79727 0.11132 0.91109 0.0
H1834 H 0.76418 0.099 0.86143 0.0
H1835 H 0.8068 0.10133 0.88281 0.0
H1836 H 0.79679 0.0913 0.84931 0.0
H1837 H 0.78987 0.08835 0.93055 0.0
H1838 H 0.77083 0.07633 0.95396 0.0
H1839 H 0.78265 0.12175 0.92876 0.0
H1840 H 0.76375 0.10995 0.95258 0.0
H1841 H 0.79572 0.13198 0.89198 0.0
H1842 H 0.82017 0.12309 0.93232 0.0
H1843 H 0.81297 0.1555 0.89149 0.0
H1844 H 0.83721 0.14697 0.93325 0.0
H1845 H 0.86671 0.22613 0.87837 0.0
H1846 H 0.8808 0.2365 0.8479 0.0
H1847 H 0.89877 0.21152 0.85609 0.0
H1848 H 0.88487 0.20142 0.88651 0.0
H1849 H 0.88956 0.20855 0.92133 0.0
H1850 H 0.90564 0.22518 0.94547 0.0
H1851 H 0.88045 0.2431 0.95078 0.0
H1852 H 0.86443 0.22644 0.92643 0.0
H1853 H 0.84153 0.19908 0.90482 0.0
H1854 H 0.8238 0.17566 0.90891 0.0
H1855 H 0.85414 0.1639 0.91379 0.0
N1856 N 0.86786 0.20891 0.90442 0.0
H1857 H 0.87162 0.18738 0.91144 0.0
C1858 C 0.79142 0.10606 0.89105 0.0
C1859 C 0.77947 0.10551 0.88448 0.0
C1860 C 0.77362 0.09964 0.8656 0.0
C1861 C 0.77964 0.0943 0.85264 0.0
C1862 C 0.79177 0.09514 0.85901 0.0
C1863 C 0.79757 0.10095 0.87805 0.0
C1864 C 0.78771 0.10589 0.92787 0.0
C1865 C 0.78441 0.09324 0.93574 0.0
C1866 C 0.77353 0.08641 0.94917 0.0
C1867 C 0.76568 0.09213 0.95506 0.0
C1868 C 0.76947 0.10518 0.94811 0.0
C1869 C 0.78038 0.11201 0.93464 0.0
C1870 C 0.80676 0.12562 0.91188 0.0
C1871 C 0.80475 0.13507 0.90093 0.0
C1872 C 0.81464 0.14867 0.90089 0.0
C1873 C 0.82664 0.15327 0.91223 0.0
C1874 C 0.82832 0.14384 0.92388 0.0
C1875 C 0.81852 0.13019 0.92357 0.0
C1876 C 0.87463 0.21298 0.88476 0.0
C1877 C 0.87348 0.2227 0.87327 0.0
C1878 C 0.88154 0.2286 0.85588 0.0
C1879 C 0.89099 0.2249 0.84966 0.0
C1880 C 0.89173 0.21473 0.86066 0.0
C1881 C 0.88364 0.20882 0.87804 0.0
C1882 C 0.87582 0.21636 0.92194 0.0
C1883 C 0.88729 0.2158 0.92806 0.0
C1884 C 0.89651 0.22535 0.94182 0.0
C1885 C 0.89436 0.23551 0.94983 0.0
C1886 C 0.88234 0.23534 0.94498 0.0
C1887 C 0.87319 0.22586 0.93109 0.0
C1888 C 0.85787 0.19498 0.90736 0.0
C1889 C 0.84429 0.1914 0.90692 0.0
C1890 C 0.83418 0.17797 0.90907 0.0
C1891 C 0.83744 0.16773 0.91138 0.0
C1892 C 0.85115 0.17143 0.91224 0.0
C1893 C 0.86125 0.18493 0.91051 0.0
H1894 H 0.79037 0.70433 0.89019 0.0
N1895 N 0.80047 0.68969 0.90498 0.0
H1896 H 0.77801 0.70094 0.85793 0.0
H1897 H 0.79753 0.67201 0.87389 0.0
H1898 H 0.78589 0.66903 0.84134 0.0
H1899 H 0.7814 0.66295 0.90621 0.0
H1900 H 0.76178 0.65284 0.92892 0.0
H1901 H 0.79717 0.70048 0.93912 0.0
H1902 H 0.77786 0.6903 0.96256 0.0
H1903 H 0.82421 0.71172 0.90885 0.0
H1904 H 0.80527 0.66855 0.90559 0.0
H1905 H 0.84629 0.71353 0.91008 0.0
H1906 H 0.82729 0.67019 0.90489 0.0
H1907 H 0.91458 0.71542 0.88347 0.0
H1908 H 0.92332 0.71312 0.85015 0.0
H1909 H 0.8867 0.67523 0.84011 0.0
H1910 H 0.87791 0.67791 0.87311 0.0
H1911 H 0.88692 0.67204 0.90318 0.0
H1912 H 0.89835 0.66395 0.92549 0.0
H1913 H 0.91722 0.70196 0.95812 0.0
H1914 H 0.9063 0.71028 0.9346 0.0
H1915 H 0.88385 0.71467 0.88761 0.0
H1916 H 0.86156 0.71223 0.88896 0.0
H1917 H 0.84679 0.67457 0.92179 0.0
N1918 N 0.89158 0.69791 0.90143 0.0
H1919 H 0.86882 0.6766 0.91885 0.0
C1920 C 0.79499 0.68856 0.88453 0.0
C1921 C 0.78958 0.69675 0.8794 0.0
C1922 C 0.78257 0.69482 0.86091 0.0
C1923 C 0.78089 0.68466 0.84701 0.0
C1924 C 0.78677 0.67679 0.85182 0.0
C1925 C 0.79364 0.67862 0.87044 0.0
C1926 C 0.79062 0.68257 0.92082 0.0
C1927 C 0.78085 0.66889 0.91875 0.0
C1928 C 0.76964 0.6631 0.93183 0.0
C1929 C 0.7681 0.67085 0.9473 0.0
C1930 C 0.77856 0.68416 0.95047 0.0
C1931 C 0.78966 0.68996 0.93727 0.0
C1932 C 0.81317 0.69009 0.90669 0.0
C1933 C 0.82488 0.70264 0.9082 0.0
C1934 C 0.83749 0.70363 0.90864 0.0
C1935 C 0.83871 0.69203 0.90708 0.0
C1936 C 0.82685 0.67937 0.90622 0.0
C1937 C 0.81419 0.67839 0.90633 0.0
C1938 C 0.89568 0.69686 0.88077 0.0
C1939 C 0.90839 0.70675 0.87386 0.0
C1940 C 0.91339 0.70534 0.85494 0.0
C1941 C 0.90578 0.6939 0.84257 0.0
C1942 C 0.89279 0.68421 0.84916 0.0
C1943 C 0.88776 0.68569 0.86808 0.0
C1944 C 0.89599 0.69193 0.91696 0.0
C1945 C 0.89343 0.67862 0.9152 0.0
C1946 C 0.89989 0.67393 0.92822 0.0
C1947 C 0.9089 0.68235 0.9435 0.0
C1948 C 0.91062 0.6953 0.9462 0.0
C1949 C 0.90429 0.70004 0.93296 0.0
C1950 C 0.87817 0.69597 0.9032 0.0
C1951 C 0.87577 0.70587 0.89504 0.0
C1952 C 0.863 0.7045 0.89606 0.0
C1953 C 0.85228 0.69327 0.90578 0.0
C1954 C 0.85469 0.68329 0.91398 0.0
C1955 C 0.86743 0.68452 0.91249 0.0
H1956 H 0.76742 0.63123 0.47535 0.0
N1957 N 0.78218 0.65081 0.44878 0.0
H1958 H 0.75875 0.63336 0.50896 0.0
H1959 H 0.78844 0.67436 0.4684 0.0
H1960 H 0.77979 0.67659 0.50163 0.0
H1961 H 0.79266 0.67595 0.4319 0.0
H1962 H 0.78036 0.68357 0.40985 0.0
H1963 H 0.75917 0.63543 0.42947 0.0
H1964 H 0.74701 0.64277 0.40686 0.0
H1965 H 0.78689 0.63338 0.42905 0.0
H1966 H 0.80693 0.67131 0.46125 0.0
H1967 H 0.80821 0.6336 0.42606 0.0
H1968 H 0.8281 0.67124 0.4596 0.0
H1969 H 0.86992 0.62785 0.46178 0.0
H1970 H 0.88098 0.62751 0.49387 0.0
H1971 H 0.88853 0.66752 0.50822 0.0
H1972 H 0.87674 0.66735 0.47667 0.0
H1973 H 0.88825 0.67446 0.44472 0.0
H1974 H 0.90806 0.68332 0.42275 0.0
H1975 H 0.89124 0.64497 0.39157 0.0
H1976 H 0.87139 0.63607 0.41401 0.0
H1977 H 0.84269 0.62835 0.44854 0.0
H1978 H 0.82222 0.6298 0.44767 0.0
H1979 H 0.84625 0.67297 0.44011 0.0
N1980 N 0.86788 0.64816 0.44641 0.0
H1981 H 0.86666 0.67142 0.44215 0.0
C1982 C 0.7786 0.65258 0.46941 0.0
C1983 C 0.77032 0.64115 0.48124 0.0
C1984 C 0.76531 0.64239 0.5003 0.0
C1985 C 0.76854 0.65515 0.5079 0.0
C1986 C 0.77723 0.66663 0.49634 0.0
C1987 C 0.78218 0.66537 0.47725 0.0
C1988 C 0.77668 0.65514 0.43251 0.0
C1989 C 0.78279 0.66866 0.42621 0.0
C1990 C 0.77577 0.67297 0.41353 0.0
C1991 C 0.76259 0.66381 0.40696 0.0
C1992 C 0.75701 0.65013 0.41206 0.0
C1993 C 0.76397 0.64588 0.42477 0.0
C1994 C 0.79522 0.65214 0.44565 0.0
C1995 C 0.79593 0.64177 0.43545 0.0
C1996 C 0.80811 0.64185 0.43399 0.0
C1997 C 0.81989 0.65228 0.44302 0.0
C1998 C 0.81929 0.66305 0.45241 0.0
C1999 C 0.8071 0.66305 0.45355 0.0
C2000 C 0.87266 0.64764 0.46676 0.0
C2001 C 0.87372 0.63639 0.47214 0.0
C2002 C 0.88018 0.63631 0.49036 0.0
C2003 C 0.88592 0.6476 0.50348 0.0
C2004 C 0.88421 0.65862 0.49857 0.0
C2005 C 0.87756 0.6586 0.48042 0.0
C2006 C 0.87827 0.65453 0.431 0.0
C2007 C 0.88857 0.66804 0.43282 0.0
C2008 C 0.89995 0.67312 0.42017 0.0
C2009 C 0.9013 0.66481 0.40555 0.0
C2010 C 0.89059 0.65157 0.4029 0.0
C2011 C 0.8792 0.64651 0.41553 0.0
C2012 C 0.85618 0.64968 0.44518 0.0
C2013 C 0.84349 0.63811 0.44664 0.0
C2014 C 0.8318 0.63898 0.44594 0.0
C2015 C 0.8325 0.6515 0.44352 0.0
C2016 C 0.84528 0.66316 0.44212 0.0
C2017 C 0.85702 0.66228 0.4431 0.0
H2018 H 0.37098 0.13499 0.46881 0.0
N2019 N 0.34982 0.13117 0.44664 0.0
H2020 H 0.37068 0.12484 0.50244 0.0
H2021 H 0.32784 0.11723 0.47174 0.0
H2022 H 0.32748 0.10691 0.50474 0.0
H2023 H 0.32387 0.11185 0.43795 0.0
H2024 H 0.31725 0.0914 0.41834 0.0
H2025 H 0.36515 0.12739 0.41995 0.0
H2026 H 0.35852 0.1077 0.39819 0.0
H2027 H 0.36883 0.15414 0.43093 0.0
H2028 H 0.32816 0.13455 0.45383 0.0
H2029 H 0.36846 0.17509 0.42674 0.0
H2030 H 0.32792 0.15564 0.45115 0.0
H2031 H 0.36827 0.24217 0.45563 0.0
H2032 H 0.36613 0.25215 0.4878 0.0
H2033 H 0.32872 0.21567 0.50089 0.0
H2034 H 0.33092 0.20586 0.46854 0.0
H2035 H 0.32424 0.21202 0.43612 0.0
H2036 H 0.31559 0.22276 0.41315 0.0
H2037 H 0.35452 0.24465 0.3837 0.0
H2038 H 0.36318 0.23395 0.40709 0.0
H2039 H 0.37047 0.21378 0.44704 0.0
H2040 H 0.36967 0.19217 0.44763 0.0
H2041 H 0.32766 0.17228 0.43014 0.0
N2042 N 0.35065 0.21858 0.43949 0.0
H2043 H 0.32843 0.1939 0.43077 0.0
C2044 C 0.34948 0.12682 0.46762 0.0
C2045 C 0.36151 0.12913 0.47685 0.0
C2046 C 0.36132 0.12335 0.49597 0.0
C2047 C 0.34903 0.115 0.50597 0.0
C2048 C 0.33706 0.1132 0.49718 0.0
C2049 C 0.33728 0.11914 0.47826 0.0
C2050 C 0.34511 0.12088 0.43104 0.0
C2051 C 0.33148 0.11097 0.42941 0.0
C2052 C 0.32768 0.09931 0.41782 0.0
C2053 C 0.33739 0.09757 0.40706 0.0
C2054 C 0.3508 0.1083 0.40695 0.0
C2055 C 0.35462 0.11971 0.41908 0.0
C2056 C 0.34867 0.14291 0.44303 0.0
C2057 C 0.35983 0.15442 0.4351 0.0
C2058 C 0.35962 0.16641 0.43295 0.0
C2059 C 0.34826 0.16721 0.43903 0.0
C2060 C 0.33684 0.15545 0.44624 0.0
C2061 C 0.337 0.14336 0.44805 0.0
C2062 C 0.3498 0.22334 0.45972 0.0
C2063 C 0.35974 0.23628 0.46566 0.0
C2064 C 0.35851 0.24193 0.48405 0.0
C2065 C 0.34722 0.23472 0.49686 0.0
C2066 C 0.33745 0.22154 0.49121 0.0
C2067 C 0.33872 0.21588 0.4728 0.0
C2068 C 0.34443 0.22224 0.42335 0.0
C2069 C 0.33083 0.21881 0.42435 0.0
C2070 C 0.32587 0.22496 0.41114 0.0
C2071 C 0.33442 0.23468 0.39678 0.0
C2072 C 0.34774 0.23734 0.39481 0.0
C2073 C 0.35267 0.23117 0.40801 0.0
C2074 C 0.34963 0.20555 0.43865 0.0
C2075 C 0.36112 0.20474 0.44326 0.0
C2076 C 0.36064 0.19235 0.44341 0.0
C2077 C 0.34863 0.1804 0.43867 0.0
C2078 C 0.33706 0.18122 0.43403 0.0
C2079 C 0.33752 0.19366 0.43418 0.0
H2080 H 0.79551 0.12868 0.4775 0.0
N2081 N 0.78242 0.13567 0.44908 0.0
H2082 H 0.7864 0.11756 0.51066 0.0
H2083 H 0.76003 0.13171 0.46723 0.0
H2084 H 0.75102 0.12105 0.50068 0.0
H2085 H 0.76473 0.13065 0.41918 0.0
H2086 H 0.75384 0.11067 0.39722 0.0
H2087 H 0.78993 0.11651 0.4454 0.0
H2088 H 0.77978 0.09703 0.42275 0.0
H2089 H 0.80719 0.13805 0.44154 0.0
H2090 H 0.78685 0.16053 0.45182 0.0
H2091 H 0.82853 0.1589 0.43812 0.0
H2092 H 0.8083 0.18154 0.44953 0.0
H2093 H 0.88796 0.21717 0.46185 0.0
H2094 H 0.89971 0.22536 0.49453 0.0
H2095 H 0.87701 0.24537 0.50682 0.0
H2096 H 0.86534 0.23723 0.47364 0.0
H2097 H 0.87845 0.24622 0.42599 0.0
H2098 H 0.89717 0.25674 0.4016 0.0
H2099 H 0.90034 0.22077 0.40195 0.0
H2100 H 0.88151 0.2103 0.42633 0.0
H2101 H 0.86595 0.19846 0.45773 0.0
H2102 H 0.84495 0.17709 0.4575 0.0
H2103 H 0.82531 0.19609 0.42678 0.0
N2104 N 0.86941 0.22293 0.44519 0.0
H2105 H 0.84629 0.21767 0.42823 0.0
C2106 C 0.77834 0.1309 0.46986 0.0
C2107 C 0.78586 0.12715 0.48255 0.0
C2108 C 0.78066 0.12086 0.50157 0.0
C2109 C 0.7679 0.11826 0.50821 0.0
C2110 C 0.76074 0.12264 0.49585 0.0
C2111 C 0.76591 0.12884 0.47686 0.0
C2112 C 0.77821 0.1252 0.43378 0.0
C2113 C 0.76824 0.12347 0.41964 0.0
C2114 C 0.76206 0.11205 0.40706 0.0
C2115 C 0.76583 0.10213 0.4083 0.0
C2116 C 0.77643 0.10431 0.42164 0.0
C2117 C 0.78244 0.11563 0.43442 0.0
C2118 C 0.79531 0.14771 0.44667 0.0
C2119 C 0.80725 0.14744 0.44303 0.0
C2120 C 0.81955 0.15945 0.44127 0.0
C2121 C 0.82021 0.17198 0.44344 0.0
C2122 C 0.80821 0.17215 0.44725 0.0
C2123 C 0.79594 0.16015 0.44875 0.0
C2124 C 0.87571 0.2266 0.46526 0.0
C2125 C 0.88535 0.22318 0.47157 0.0
C2126 C 0.89206 0.22784 0.49038 0.0
C2127 C 0.88932 0.23604 0.50326 0.0
C2128 C 0.87946 0.2392 0.49712 0.0
C2129 C 0.87272 0.2345 0.4783 0.0
C2130 C 0.87867 0.22759 0.42807 0.0
C2131 C 0.88296 0.2405 0.42034 0.0
C2132 C 0.89363 0.24646 0.40638 0.0
C2133 C 0.90029 0.23961 0.39995 0.0
C2134 C 0.89549 0.22633 0.40681 0.0
C2135 C 0.8847 0.22033 0.42068 0.0
C2136 C 0.85762 0.20979 0.44335 0.0
C2137 C 0.85716 0.19809 0.45097 0.0
C2138 C 0.84511 0.18576 0.45063 0.0
C2139 C 0.83332 0.18483 0.44236 0.0
C2140 C 0.83405 0.19646 0.43379 0.0
C2141 C 0.84605 0.20878 0.4344 0.0
H2142 H 0.01486 0.55768 0.21181 0.0
N2143 N 0.99218 0.53916 0.23222 0.0
H2144 H 0.01565 0.56909 0.17963 0.0
H2145 H 0.97164 0.53404 0.20753 0.0
H2146 H 0.97234 0.54537 0.17499 0.0
H2147 H 0.97712 0.54623 0.25378 0.0
H2148 H 0.98476 0.56508 0.27783 0.0
H2149 H 0.01773 0.55395 0.24754 0.0
H2150 H 0.02559 0.573 0.27156 0.0
H2151 H 0.00981 0.5342 0.2098 0.0
H2152 H 0.98048 0.51902 0.25896 0.0
H2153 H 0.0112 0.51385 0.21084 0.0
H2154 H 0.98258 0.49894 0.26122 0.0
H2155 H 0.01824 0.45858 0.21143 0.0
H2156 H 0.02049 0.44889 0.17924 0.0
H2157 H 0.97768 0.43095 0.16872 0.0
H2158 H 0.97548 0.44012 0.20167 0.0
H2159 H 0.98014 0.42955 0.24723 0.0
H2160 H 0.98826 0.4181 0.26986 0.0
H2161 H 0.0275 0.45397 0.27138 0.0
H2162 H 0.01935 0.46521 0.24847 0.0
H2163 H 0.01676 0.47829 0.22329 0.0
H2164 H 0.01778 0.49995 0.2269 0.0
H2165 H 0.97549 0.47922 0.24301 0.0
N2166 N 0.99456 0.4534 0.22959 0.0
H2167 H 0.97495 0.45777 0.24077 0.0
C2168 C 0.99314 0.54494 0.21206 0.0
C2169 C 0.00554 0.55479 0.2038 0.0
C2170 C 0.00599 0.56128 0.18531 0.0
C2171 C 0.99405 0.55816 0.17481 0.0
C2172 C 0.98169 0.54808 0.18285 0.0
C2173 C 0.98127 0.54154 0.20129 0.0
C2174 C 0.99684 0.5488 0.24882 0.0
C2175 C 0.98765 0.55184 0.25803 0.0
C2176 C 0.99205 0.56259 0.27179 0.0
C2177 C 0.0058 0.57058 0.27651 0.0
C2178 C 0.01496 0.5671 0.26804 0.0
C2179 C 0.0105 0.55623 0.25437 0.0
C2180 C 0.99475 0.52809 0.23407 0.0
C2181 C 0.0038 0.52663 0.22109 0.0
C2182 C 0.00471 0.51493 0.22186 0.0
C2183 C 0.99685 0.50454 0.2359 0.0
C2184 C 0.98849 0.50647 0.24973 0.0
C2185 C 0.98737 0.51802 0.24865 0.0
C2186 C 0.99661 0.44987 0.20909 0.0
C2187 C 0.00936 0.45268 0.20213 0.0
C2188 C 0.01064 0.44718 0.18357 0.0
C2189 C 0.99923 0.43892 0.17147 0.0
C2190 C 0.98664 0.43693 0.17788 0.0
C2191 C 0.98535 0.44228 0.19656 0.0
C2192 C 0.99907 0.44818 0.2461 0.0
C2193 C 0.99039 0.43503 0.25293 0.0
C2194 C 0.99506 0.42853 0.26589 0.0
C2195 C 0.00858 0.43509 0.27232 0.0
C2196 C 0.01708 0.44857 0.26646 0.0
C2197 C 0.01239 0.45507 0.25346 0.0
C2198 C 0.99578 0.46641 0.23214 0.0
C2199 C 0.00782 0.47845 0.22809 0.0
C2200 C 0.00832 0.49086 0.22988 0.0
C2201 C 0.99673 0.49146 0.23532 0.0
C2202 C 0.98473 0.47931 0.23932 0.0
C2203 C 0.98433 0.46698 0.23788 0.0
H2204 H 0.57948 0.53797 0.22363 0.0
N2205 N 0.55563 0.53165 0.23929 0.0
H2206 H 0.58899 0.54883 0.19042 0.0
H2207 H 0.54227 0.53671 0.20872 0.0
H2208 H 0.55173 0.54778 0.1757 0.0
H2209 H 0.55262 0.5539 0.23757 0.0
H2210 H 0.56399 0.57362 0.2593 0.0
H2211 H 0.56755 0.53328 0.27533 0.0
H2212 H 0.578 0.55262 0.29863 0.0
H2213 H 0.54851 0.50673 0.2285 0.0
H2214 H 0.5323 0.53073 0.25252 0.0
H2215 H 0.52618 0.48689 0.22905 0.0
H2216 H 0.51008 0.51075 0.25477 0.0
H2217 H 0.45904 0.42508 0.22562 0.0
H2218 H 0.44678 0.41451 0.19369 0.0
H2219 H 0.44488 0.45033 0.17967 0.0
H2220 H 0.45694 0.46069 0.21147 0.0
H2221 H 0.44568 0.45668 0.24416 0.0
H2222 H 0.42659 0.44744 0.26779 0.0
H2223 H 0.44256 0.42517 0.29917 0.0
H2224 H 0.46125 0.43393 0.27458 0.0
H2225 H 0.48801 0.45065 0.2485 0.0
H2226 H 0.51001 0.47099 0.24993 0.0
H2227 H 0.49128 0.49492 0.23715 0.0
N2228 N 0.46443 0.44865 0.24123 0.0
H2229 H 0.46926 0.47454 0.23777 0.0
C2230 C 0.56022 0.53653 0.21863 0.0
C2231 C 0.57332 0.53989 0.21303 0.0
C2232 C 0.57875 0.54618 0.19417 0.0
C2233 C 0.57115 0.54928 0.18052 0.0
C2234 C 0.55781 0.54542 0.18579 0.0
C2235 C 0.55238 0.53911 0.20468 0.0
C2236 C 0.5596 0.54221 0.25446 0.0
C2237 C 0.5581 0.55349 0.25087 0.0
C2238 C 0.56451 0.56479 0.26362 0.0
C2239 C 0.57224 0.56496 0.28066 0.0
C2240 C 0.57259 0.55312 0.28528 0.0
C2241 C 0.56646 0.54195 0.27217 0.0
C2242 C 0.5422 0.52018 0.24069 0.0
C2243 C 0.54013 0.50764 0.23424 0.0
C2244 C 0.52733 0.49627 0.23479 0.0
C2245 C 0.51622 0.49705 0.24228 0.0
C2246 C 0.51829 0.50969 0.24871 0.0
C2247 C 0.53111 0.52118 0.24768 0.0
C2248 C 0.45893 0.44364 0.22102 0.0
C2249 C 0.45619 0.43071 0.21542 0.0
C2250 C 0.44921 0.42472 0.19718 0.0
C2251 C 0.44477 0.43156 0.18425 0.0
C2252 C 0.44801 0.44474 0.18947 0.0
C2253 C 0.45502 0.45073 0.20766 0.0
C2254 C 0.45474 0.44575 0.2574 0.0
C2255 C 0.44518 0.44996 0.25627 0.0
C2256 C 0.43428 0.44472 0.26995 0.0
C2257 C 0.43286 0.43532 0.28518 0.0
C2258 C 0.44311 0.43207 0.28729 0.0
C2259 C 0.45388 0.43717 0.27343 0.0
C2260 C 0.47708 0.46103 0.24251 0.0
C2261 C 0.48871 0.46033 0.24616 0.0
C2262 C 0.5013 0.472 0.24673 0.0
C2263 C 0.5026 0.48471 0.24316 0.0
C2264 C 0.49079 0.48539 0.24003 0.0
C2265 C 0.47813 0.47368 0.24 0.0
H2266 H 0.53275 0.96168 0.20257 0.0
N2267 N 0.53199 0.97915 0.2286 0.0
H2268 H 0.54616 0.96669 0.17091 0.0
H2269 H 0.54559 0.00382 0.20918 0.0
H2270 H 0.55896 0.00884 0.17785 0.0
H2271 H 0.55548 0.00152 0.24059 0.0
H2272 H 0.57221 0.00172 0.26405 0.0
H2273 H 0.52877 0.95949 0.25378 0.0
H2274 H 0.54548 0.95972 0.27772 0.0
H2275 H 0.5056 0.96296 0.22796 0.0
H2276 H 0.53609 0.00401 0.24001 0.0
H2277 H 0.4881 0.9687 0.23422 0.0
H2278 H 0.51887 0.0102 0.24432 0.0
H2279 H 0.44024 0.98635 0.22512 0.0
H2280 H 0.42895 0.98636 0.19343 0.0
H2281 H 0.45956 0.02764 0.18217 0.0
H2282 H 0.47087 0.02763 0.21442 0.0
H2283 H 0.45831 0.02472 0.26281 0.0
H2284 H 0.43977 0.01909 0.28682 0.0
H2285 H 0.42826 0.97708 0.28291 0.0
H2286 H 0.4471 0.98289 0.25944 0.0
H2287 H 0.46095 0.98574 0.2206 0.0
H2288 H 0.4777 0.979 0.21908 0.0
H2289 H 0.50192 0.00977 0.26377 0.0
N2290 N 0.46294 0.00766 0.24173 0.0
H2291 H 0.48539 0.01726 0.26381 0.0
C2292 C 0.53812 0.98229 0.20838 0.0
C2293 C 0.53819 0.97195 0.19695 0.0
C2294 C 0.54585 0.97483 0.1789 0.0
C2295 C 0.5537 0.98818 0.17204 0.0
C2296 C 0.55313 0.99847 0.18293 0.0
C2297 C 0.54539 0.99557 0.20088 0.0
C2298 C 0.54089 0.98038 0.24521 0.0
C2299 C 0.55304 0.99241 0.24887 0.0
C2300 C 0.56263 0.99252 0.26228 0.0
C2301 C 0.56015 0.98071 0.27251 0.0
C2302 C 0.5476 0.96898 0.27009 0.0
C2303 C 0.53808 0.96882 0.25644 0.0
C2304 C 0.52212 0.98306 0.23297 0.0
C2305 C 0.50849 0.97326 0.2317 0.0
C2306 C 0.49852 0.97663 0.2351 0.0
C2307 C 0.50197 0.99001 0.23943 0.0
C2308 C 0.51572 0.99977 0.24121 0.0
C2309 C 0.52567 0.99629 0.23833 0.0
C2310 C 0.4565 0.00705 0.22222 0.0
C2311 C 0.44463 0.99542 0.21591 0.0
C2312 C 0.4382 0.99539 0.19763 0.0
C2313 C 0.44338 0.00698 0.18527 0.0
C2314 C 0.45529 0.01858 0.19146 0.0
C2315 C 0.4618 0.01857 0.20976 0.0
C2316 C 0.45399 0.00426 0.25916 0.0
C2317 C 0.45203 0.01436 0.26768 0.0
C2318 C 0.44137 0.0111 0.28123 0.0
C2319 C 0.43238 0.99761 0.2864 0.0
C2320 C 0.43502 0.98758 0.27925 0.0
C2321 C 0.44577 0.99088 0.26576 0.0
C2322 C 0.472 0.00233 0.24202 0.0
C2323 C 0.46983 0.99118 0.23003 0.0
C2324 C 0.47946 0.98715 0.22939 0.0
C2325 C 0.49134 0.99386 0.24118 0.0
C2326 C 0.49313 0.00455 0.254 0.0
C2327 C 0.48362 0.00878 0.25424 0.0
H2328 H 0.4411 0.98838 0.79979 0.0
N2329 N 0.46296 0.01213 0.7872 0.0
H2330 H 0.42788 0.98481 0.83079 0.0
H2331 H 0.46792 0.02955 0.81762 0.0
H2332 H 0.4541 0.02639 0.84814 0.0
H2333 H 0.46127 0.03251 0.77143 0.0
H2334 H 0.44437 0.03124 0.74716 0.0
H2335 H 0.44637 0.99007 0.76384 0.0
H2336 H 0.42923 0.98862 0.73961 0.0
H2337 H 0.46066 0.98777 0.79835 0.0
H2338 H 0.48687 0.02598 0.76932 0.0
H2339 H 0.47799 0.98178 0.79593 0.0
H2340 H 0.50414 0.01962 0.76543 0.0
H2341 H 0.53545 0.96476 0.79707 0.0
H2342 H 0.54512 0.96288 0.82982 0.0
H2343 H 0.55165 0.00192 0.84806 0.0
H2344 H 0.54189 0.00363 0.81572 0.0
H2345 H 0.55763 0.00987 0.78556 0.0
H2346 H 0.57746 0.01668 0.76425 0.0
H2347 H 0.555 0.98133 0.72621 0.0
H2348 H 0.53526 0.97432 0.74827 0.0
H2349 H 0.50788 0.96942 0.77735 0.0
H2350 H 0.49015 0.97525 0.77541 0.0
H2351 H 0.52 0.01721 0.78421 0.0
N2352 N 0.53399 0.98576 0.78321 0.0
H2353 H 0.5376 0.01131 0.78453 0.0
C2354 C 0.45576 0.00922 0.80655 0.0
C2355 C 0.44431 0.99664 0.81054 0.0
C2356 C 0.43655 0.99466 0.8282 0.0
C2357 C 0.43978 0.00533 0.84202 0.0
C2358 C 0.45138 0.01785 0.83815 0.0
C2359 C 0.4593 0.01971 0.82066 0.0
C2360 C 0.45498 0.01141 0.76957 0.0
C2361 C 0.45458 0.02299 0.76401 0.0
C2362 C 0.44492 0.02223 0.75012 0.0
C2363 C 0.43538 0.00979 0.74162 0.0
C2364 C 0.43636 0.99831 0.74613 0.0
C2365 C 0.44615 0.99912 0.75991 0.0
C2366 C 0.4725 0.00754 0.78437 0.0
C2367 C 0.47006 0.99488 0.79121 0.0
C2368 C 0.48005 0.99135 0.78957 0.0
C2369 C 0.49262 1.00022 0.78059 0.0
C2370 C 0.49477 0.01263 0.77292 0.0
C2371 C 0.48486 0.01625 0.77493 0.0
C2372 C 0.53784 0.98425 0.80384 0.0
C2373 C 0.5387 0.97276 0.80837 0.0
C2374 C 0.54434 0.97177 0.82697 0.0
C2375 C 0.54924 0.9823 0.84148 0.0
C2376 C 0.54784 0.99356 0.83733 0.0
C2377 C 0.54224 0.99456 0.8187 0.0
C2378 C 0.54495 0.99145 0.76861 0.0
C2379 C 0.55684 0.00371 0.77241 0.0
C2380 C 0.56822 0.00763 0.7601 0.0
C2381 C 0.56791 0.99946 0.74365 0.0
C2382 C 0.55569 0.98772 0.73901 0.0
C2383 C 0.54436 0.98376 0.75144 0.0
C2384 C 0.52401 0.98983 0.78139 0.0
C2385 C 0.51054 0.97988 0.77865 0.0
C2386 C 0.50042 0.98325 0.77775 0.0
C2387 C 0.50353 0.99672 0.77993 0.0
C2388 C 0.51714 0.00674 0.78222 0.0
C2389 C 0.52728 0.00336 0.78271 0.0
H2390 H 0.98801 0.55012 0.79563 0.0
N2391 N 0.01081 0.5507 0.78143 0.0
H2392 H 0.98546 0.55906 0.82835 0.0
H2393 H 0.02872 0.56122 0.81186 0.0
H2394 H 0.02619 0.57016 0.84497 0.0
H2395 H 0.0281 0.57457 0.76595 0.0
H2396 H 0.02336 0.58805 0.74185 0.0
H2397 H 0.98758 0.54154 0.75827 0.0
H2398 H 0.9829 0.55474 0.73387 0.0
H2399 H 0.98546 0.529 0.78758 0.0
H2400 H 0.0264 0.54041 0.7725 0.0
H2401 H 0.97908 0.50544 0.78634 0.0
H2402 H 0.0203 0.51671 0.77258 0.0
H2403 H 0.9676 0.43189 0.80764 0.0
H2404 H 0.97265 0.42308 0.83877 0.0
H2405 H 0.01317 0.45697 0.83879 0.0
H2406 H 0.00806 0.46568 0.80748 0.0
H2407 H 0.0085 0.45569 0.77317 0.0
H2408 H 0.01111 0.43991 0.75107 0.0
H2409 H 0.96824 0.41848 0.73957 0.0
H2410 H 0.96587 0.43462 0.76115 0.0
H2411 H 0.97485 0.46597 0.80732 0.0
H2412 H 0.98113 0.48957 0.80569 0.0
H2413 H 0.00884 0.49571 0.756 0.0
N2414 N 0.98451 0.45315 0.78551 0.0
H2415 H 0.0031 0.47236 0.75849 0.0
C2416 C 0.00861 0.55498 0.8013 0.0
C2417 C 0.99635 0.55427 0.80636 0.0
C2418 C 0.99488 0.55938 0.82516 0.0
C2419 C 0.00563 0.56533 0.83925 0.0
C2420 C 0.01778 0.56577 0.83433 0.0
C2421 C 0.01922 0.5606 0.81554 0.0
C2422 C 0.00829 0.55706 0.7641 0.0
C2423 C 0.01832 0.57008 0.75859 0.0
C2424 C 0.01559 0.57776 0.74477 0.0
C2425 C 0.00269 0.57253 0.73607 0.0
C2426 C 0.99287 0.55916 0.74059 0.0
C2427 C 0.9956 0.55151 0.7545 0.0
C2428 C 0.00645 0.53655 0.77983 0.0
C2429 C 0.99311 0.52648 0.78386 0.0
C2430 C 0.98949 0.51291 0.78344 0.0
C2431 C 0.99918 0.50907 0.77954 0.0
C2432 C 0.0125 0.5192 0.77533 0.0
C2433 C 0.01604 0.53277 0.77538 0.0
C2434 C 0.98739 0.4494 0.80532 0.0
C2435 C 0.97748 0.43751 0.81458 0.0
C2436 C 0.98042 0.43247 0.83221 0.0
C2437 C 0.99333 0.43931 0.84102 0.0
C2438 C 0.00312 0.45155 0.83231 0.0
C2439 C 1.00022 0.45653 0.81447 0.0
C2440 C 0.98694 0.44634 0.76874 0.0
C2441 C 0.99975 0.44789 0.7653 0.0
C2442 C 0.0012 0.43875 0.75283 0.0
C2443 C 0.98986 0.42778 0.74378 0.0
C2444 C 0.97723 0.42686 0.74607 0.0
C2445 C 0.97582 0.43607 0.75841 0.0
C2446 C 0.9885 0.46723 0.7833 0.0
C2447 C 0.98234 0.47243 0.79614 0.0
C2448 C 0.98585 0.48593 0.795 0.0
C2449 C 0.99547 0.49463 0.78061 0.0
C2450 C 0.00156 0.4894 0.76752 0.0
C2451 C 0.99819 0.47589 0.7689 0.0
H2452 H 0.44851 0.44391 0.80428 0.0
N2453 N 0.44961 0.46561 0.78432 0.0
H2454 H 0.43649 0.43352 0.83597 0.0
H2455 H 0.43577 0.47342 0.80806 0.0
H2456 H 0.42337 0.46273 0.84004 0.0
H2457 H 0.42905 0.46042 0.75978 0.0
H2458 H 0.41796 0.44198 0.73497 0.0
H2459 H 0.45925 0.44933 0.77099 0.0
H2460 H 0.44789 0.43047 0.74714 0.0
H2461 H 0.46921 0.464 0.80712 0.0
H2462 H 0.46278 0.48801 0.7622 0.0
H2463 H 0.49289 0.48025 0.8079 0.0
H2464 H 0.48696 0.50411 0.76184 0.0
H2465 H 0.56582 0.53004 0.81806 0.0
H2466 H 0.57502 0.54215 0.85052 0.0
H2467 H 0.54929 0.5595 0.84549 0.0
H2468 H 0.54038 0.5476 0.81303 0.0
H2469 H 0.55101 0.55557 0.77989 0.0
H2470 H 0.56766 0.57111 0.75538 0.0
H2471 H 0.58022 0.54202 0.74293 0.0
H2472 H 0.56375 0.52667 0.7681 0.0
H2473 H 0.53679 0.50519 0.79412 0.0
H2474 H 0.51294 0.48872 0.79001 0.0
H2475 H 0.50452 0.52116 0.78096 0.0
N2476 N 0.54845 0.5317 0.79299 0.0
H2477 H 0.52849 0.53738 0.78351 0.0
C2478 C 0.44322 0.45965 0.8038 0.0
C2479 C 0.44326 0.44829 0.81198 0.0
C2480 C 0.43639 0.44233 0.83021 0.0
C2481 C 0.42908 0.44738 0.84051 0.0
C2482 C 0.42895 0.45867 0.83237 0.0
C2483 C 0.43605 0.4648 0.81423 0.0
C2484 C 0.44483 0.45616 0.7674 0.0
C2485 C 0.43338 0.4541 0.75664 0.0
C2486 C 0.42699 0.44347 0.74266 0.0
C2487 C 0.43186 0.43454 0.73936 0.0
C2488 C 0.44387 0.43715 0.74919 0.0
C2489 C 0.45035 0.4479 0.76299 0.0
C2490 C 0.46398 0.47483 0.78478 0.0
C2491 C 0.4728 0.4727 0.79727 0.0
C2492 C 0.48655 0.48203 0.7975 0.0
C2493 C 0.49197 0.49357 0.7849 0.0
C2494 C 0.48318 0.49551 0.77207 0.0
C2495 C 0.46936 0.48627 0.77212 0.0
C2496 C 0.55241 0.53783 0.81311 0.0
C2497 C 0.56205 0.53631 0.82417 0.0
C2498 C 0.56726 0.54321 0.84272 0.0
C2499 C 0.56292 0.55183 0.85056 0.0
C2500 C 0.55297 0.55308 0.83973 0.0
C2501 C 0.54777 0.54615 0.82117 0.0
C2502 C 0.55626 0.53998 0.77595 0.0
C2503 C 0.55713 0.5524 0.77162 0.0
C2504 C 0.56665 0.56128 0.75748 0.0
C2505 C 0.57541 0.55788 0.74738 0.0
C2506 C 0.57382 0.54505 0.75074 0.0
C2507 C 0.56436 0.53623 0.76495 0.0
C2508 C 0.53438 0.52246 0.78955 0.0
C2509 C 0.52975 0.50867 0.79107 0.0
C2510 C 0.51609 0.4993 0.78891 0.0
C2511 C 0.50667 0.50356 0.78553 0.0
C2512 C 0.51142 0.51745 0.78344 0.0
C2513 C 0.52517 0.5268 0.78521 0.0
H2514 H 0.69799 0.90324 0.54154 0.0
N2515 N 0.68215 0.88427 0.56804 0.0
H2516 H 0.69131 0.91079 0.51066 0.0
H2517 H 0.65655 0.87352 0.55296 0.0
H2518 H 0.64971 0.88114 0.52218 0.0
H2519 H 0.66025 0.88344 0.58649 0.0
H2520 H 0.66093 0.89916 0.61251 0.0
H2521 H 0.70336 0.90148 0.59003 0.0
H2522 H 0.70418 0.91741 0.61598 0.0
H2523 H 0.69138 0.87194 0.5443 0.0
H2524 H 0.66414 0.86474 0.59497 0.0
H2525 H 0.68509 0.84834 0.54438 0.0
H2526 H 0.65854 0.84135 0.59622 0.0
H2527 H 0.67972 0.78807 0.55273 0.0
H2528 H 0.68141 0.77833 0.52032 0.0
H2529 H 0.63989 0.76575 0.50676 0.0
H2530 H 0.63821 0.77546 0.53966 0.0
H2531 H 0.64194 0.76267 0.58469 0.0
H2532 H 0.64942 0.75032 0.60658 0.0
H2533 H 0.68843 0.78611 0.61249 0.0
H2534 H 0.68109 0.79825 0.59046 0.0
H2535 H 0.68168 0.80897 0.55954 0.0
H2536 H 0.68772 0.83236 0.56145 0.0
H2537 H 0.64705 0.82044 0.58019 0.0
N2538 N 0.65703 0.78699 0.56869 0.0
H2539 H 0.64142 0.79688 0.57983 0.0
C2540 C 0.6778 0.88793 0.54951 0.0
C2541 C 0.68746 0.89832 0.53726 0.0
C2542 C 0.68362 0.90256 0.51965 0.0
C2543 C 0.66999 0.89653 0.51404 0.0
C2544 C 0.66027 0.88602 0.52626 0.0
C2545 C 0.66415 0.88167 0.5438 0.0
C2546 C 0.68182 0.89135 0.58624 0.0
C2547 C 0.66984 0.89059 0.59318 0.0
C2548 C 0.67025 0.89964 0.608 0.0
C2549 C 0.68262 0.90964 0.61611 0.0
C2550 C 0.69447 0.90976 0.61018 0.0
C2551 C 0.69404 0.9007 0.59535 0.0
C2552 C 0.67836 0.87025 0.56958 0.0
C2553 C 0.68418 0.86529 0.55566 0.0
C2554 C 0.68065 0.85177 0.55589 0.0
C2555 C 0.67139 0.84284 0.57048 0.0
C2556 C 0.66557 0.84783 0.58456 0.0
C2557 C 0.6689 0.86135 0.58399 0.0
C2558 C 0.65878 0.78253 0.54865 0.0
C2559 C 0.67102 0.78345 0.54271 0.0
C2560 C 0.67199 0.77787 0.52408 0.0
C2561 C 0.66078 0.77123 0.51097 0.0
C2562 C 0.64866 0.77065 0.51665 0.0
C2563 C 0.64771 0.77627 0.53531 0.0
C2564 C 0.66086 0.78135 0.58559 0.0
C2565 C 0.65197 0.76795 0.59123 0.0
C2566 C 0.65627 0.76092 0.60376 0.0
C2567 C 0.6696 0.76719 0.611 0.0
C2568 C 0.67818 0.78093 0.60679 0.0
C2569 C 0.6739 0.78794 0.59419 0.0
C2570 C 0.66108 0.80108 0.56987 0.0
C2571 C 0.67408 0.81131 0.56441 0.0
C2572 C 0.67749 0.8248 0.56523 0.0
C2573 C 0.66787 0.82843 0.57081 0.0
C2574 C 0.65483 0.81814 0.57617 0.0
C2575 C 0.65154 0.80464 0.57583 0.0
H2576 H 0.24616 0.87328 0.55881 0.0
N2577 N 0.22185 0.86488 0.57448 0.0
H2578 H 0.25575 0.88644 0.52725 0.0
H2579 H 0.20797 0.87014 0.54471 0.0
H2580 H 0.21734 0.88299 0.51315 0.0
H2581 H 0.21745 0.88626 0.57565 0.0
H2582 H 0.22824 0.90519 0.59902 0.0
H2583 H 0.23325 0.86522 0.61042 0.0
H2584 H 0.24301 0.88361 0.63543 0.0
H2585 H 0.21869 0.84045 0.57615 0.0
H2586 H 0.1965 0.86157 0.57624 0.0
H2587 H 0.19769 0.81897 0.5769 0.0
H2588 H 0.17531 0.84013 0.57529 0.0
H2589 H 0.12863 0.75343 0.54946 0.0
H2590 H 0.11602 0.74582 0.51716 0.0
H2591 H 0.11718 0.78395 0.51157 0.0
H2592 H 0.12944 0.79125 0.54435 0.0
H2593 H 0.11632 0.78252 0.57744 0.0
H2594 H 0.0967 0.76965 0.59946 0.0
H2595 H 0.11347 0.74534 0.62024 0.0
H2596 H 0.13302 0.75819 0.5978 0.0
H2597 H 0.1598 0.78316 0.5538 0.0
H2598 H 0.18036 0.8049 0.55536 0.0
H2599 H 0.15979 0.82049 0.59235 0.0
N2600 N 0.13594 0.7762 0.56951 0.0
H2601 H 0.13905 0.79897 0.58944 0.0
C2602 C 0.22637 0.87065 0.5542 0.0
C2603 C 0.23976 0.87514 0.54865 0.0
C2604 C 0.24521 0.88264 0.53063 0.0
C2605 C 0.23732 0.88585 0.51779 0.0
C2606 C 0.22372 0.88085 0.52289 0.0
C2607 C 0.21829 0.87334 0.5409 0.0
C2608 C 0.22498 0.8745 0.59088 0.0
C2609 C 0.22294 0.88554 0.58871 0.0
C2610 C 0.22904 0.89638 0.6024 0.0
C2611 C 0.23691 0.89623 0.61901 0.0
C2612 C 0.23755 0.88442 0.62241 0.0
C2613 C 0.23179 0.87377 0.60832 0.0
C2614 C 0.20915 0.85254 0.57572 0.0
C2615 C 0.20922 0.84039 0.57613 0.0
C2616 C 0.19717 0.82813 0.57633 0.0
C2617 C 0.18469 0.82771 0.57569 0.0
C2618 C 0.18466 0.83998 0.57587 0.0
C2619 C 0.19679 0.85229 0.57613 0.0
C2620 C 0.13 0.77286 0.54921 0.0
C2621 C 0.12632 0.76019 0.54105 0.0
C2622 C 0.11916 0.7559 0.52255 0.0
C2623 C 0.11557 0.76427 0.51171 0.0
C2624 C 0.11963 0.77718 0.51964 0.0
C2625 C 0.12674 0.78143 0.53827 0.0
C2626 C 0.12614 0.77126 0.58595 0.0
C2627 C 0.11599 0.77471 0.5872 0.0
C2628 C 0.10477 0.76734 0.59985 0.0
C2629 C 0.10346 0.75636 0.61138 0.0
C2630 C 0.11411 0.75363 0.61129 0.0
C2631 C 0.12534 0.76102 0.59867 0.0
C2632 C 0.14787 0.78927 0.57157 0.0
C2633 C 0.15975 0.79129 0.56222 0.0
C2634 C 0.17155 0.80374 0.56334 0.0
C2635 C 0.17189 0.81451 0.57427 0.0
C2636 C 0.15994 0.81251 0.58363 0.0
C2637 C 0.14801 0.80007 0.58213 0.0
H2638 H 0.20056 0.30095 0.54925 0.0
N2639 N 0.20028 0.31944 0.5735 0.0
H2640 H 0.21371 0.30464 0.51761 0.0
H2641 H 0.21484 0.34351 0.55298 0.0
H2642 H 0.22799 0.34726 0.52165 0.0
H2643 H 0.22399 0.34102 0.58625 0.0
H2644 H 0.24021 0.34 0.60943 0.0
H2645 H 0.19545 0.29942 0.59897 0.0
H2646 H 0.21133 0.29843 0.62312 0.0
H2647 H 0.17392 0.30324 0.57328 0.0
H2648 H 0.20446 0.34463 0.58236 0.0
H2649 H 0.15644 0.3092 0.57759 0.0
H2650 H 0.1872 0.35103 0.58465 0.0
H2651 H 0.10759 0.32498 0.56461 0.0
H2652 H 0.09622 0.3232 0.53211 0.0
H2653 H 0.12643 0.36398 0.5168 0.0
H2654 H 0.1378 0.36577 0.54983 0.0
H2655 H 0.12247 0.36302 0.59694 0.0
H2656 H 0.10389 0.35653 0.62104 0.0
H2657 H 0.09871 0.31659 0.62502 0.0
H2658 H 0.11698 0.32306 0.60022 0.0
H2659 H 0.12902 0.32501 0.56021 0.0
H2660 H 0.14617 0.3188 0.56022 0.0
H2661 H 0.17001 0.35137 0.60255 0.0
N2662 N 0.13024 0.34716 0.5794 0.0
H2663 H 0.15304 0.35829 0.601 0.0
C2664 C 0.20659 0.32187 0.55346 0.0
C2665 C 0.20633 0.31104 0.54303 0.0
C2666 C 0.21393 0.31319 0.52511 0.0
C2667 C 0.22197 0.32626 0.51724 0.0
C2668 C 0.22181 0.33706 0.52723 0.0
C2669 C 0.21425 0.3349 0.54523 0.0
C2670 C 0.2086 0.32018 0.59063 0.0
C2671 C 0.22105 0.33178 0.59455 0.0
C2672 C 0.23031 0.33119 0.60794 0.0
C2673 C 0.22719 0.31903 0.61783 0.0
C2674 C 0.21421 0.30784 0.61533 0.0
C2675 C 0.20505 0.30841 0.60175 0.0
C2676 C 0.19043 0.32349 0.5769 0.0
C2677 C 0.17681 0.31367 0.57593 0.0
C2678 C 0.16685 0.31716 0.57819 0.0
C2679 C 0.1703 0.33069 0.58099 0.0
C2680 C 0.18405 0.3405 0.5826 0.0
C2681 C 0.19401 0.3369 0.58089 0.0
C2682 C 0.12363 0.34558 0.55972 0.0
C2683 C 0.11185 0.33356 0.55434 0.0
C2684 C 0.10538 0.33251 0.53562 0.0
C2685 C 0.11045 0.34344 0.52186 0.0
C2686 C 0.12224 0.35543 0.52717 0.0
C2687 C 0.12878 0.35645 0.54592 0.0
C2688 C 0.12115 0.34361 0.59673 0.0
C2689 C 0.11753 0.35297 0.60343 0.0
C2690 C 0.10691 0.34922 0.61728 0.0
C2691 C 0.09969 0.33597 0.6249 0.0
C2692 C 0.10389 0.3268 0.61919 0.0
C2693 C 0.11446 0.33055 0.60517 0.0
C2694 C 0.1398 0.34241 0.58031 0.0
C2695 C 0.13791 0.33098 0.56939 0.0
C2696 C 0.14777 0.32725 0.56967 0.0
C2697 C 0.15962 0.33454 0.58138 0.0
C2698 C 0.16123 0.34566 0.59294 0.0
C2699 C 0.15147 0.34957 0.59226 0.0
H2700 H 0.01299 0.41506 0.09288 0.0
H2701 H 0.97431 0.38097 0.10797 0.0
H2702 H 0.97216 0.39325 0.13726 0.0
H2703 H 0.98146 0.41343 0.15883 0.0
H2704 H 0.01957 0.44815 0.14268 0.0
H2705 H 0.02186 0.43579 0.11373 0.0
C2706 C 0.00414 0.41034 0.10269 0.0
C2707 C 0.99385 0.39713 0.09844 0.0
C2708 C 0.00289 0.41754 0.11928 0.0
C2709 C 0.98233 0.39115 0.11099 0.0
C2710 C 0.98111 0.39815 0.12772 0.0
C2711 C 0.99017 0.41843 0.14879 0.0
C2712 C 1.00032 0.43174 0.15303 0.0
C2713 C 0.99132 0.41135 0.13198 0.0
C2714 C 0.01167 0.43787 0.14003 0.0
C2715 C 0.01297 0.43083 0.12339 0.0
H2716 H 0.58888 0.57846 0.09389 0.0
H2717 H 0.62509 0.60385 0.12844 0.0
H2718 H 0.61518 0.59004 0.15918 0.0
H2719 H 0.59614 0.57106 0.1764 0.0
H2720 H 0.56005 0.54535 0.14186 0.0
H2721 H 0.57005 0.55898 0.1109 0.0
C2722 C 0.59467 0.58088 0.10807 0.0
C2723 C 0.60771 0.5922 0.10885 0.0
C2724 C 0.58893 0.57287 0.12569 0.0
C2725 C 0.61497 0.59531 0.12747 0.0
C2726 C 0.60935 0.58738 0.14503 0.0
C2727 C 0.59053 0.5683 0.16203 0.0
C2728 C 0.57738 0.55717 0.16144 0.0
C2729 C 0.59632 0.57617 0.14433 0.0
C2730 C 0.57015 0.55393 0.14278 0.0
C2731 C 0.57587 0.56169 0.12506 0.0
H2732 H 0.40816 0.99649 0.10514 0.0
H2733 H 0.41362 0.03531 0.12179 0.0
H2734 H 0.42778 0.03664 0.15097 0.0
H2735 H 0.43791 0.02634 0.17249 0.0
H2736 H 0.43231 0.98747 0.15572 0.0
H2737 H 0.41878 0.98652 0.12597 0.0
C2738 C 0.41237 0.00519 0.11525 0.0
C2739 C 0.40978 0.01574 0.1114 0.0
C2740 C 0.42045 0.00587 0.13198 0.0
C2741 C 0.41553 0.02709 0.12438 0.0
C2742 C 0.42358 0.02783 0.1411 0.0
C2743 C 0.43388 0.01776 0.16215 0.0
C2744 C 0.43607 0.00697 0.16635 0.0
C2745 C 0.42607 0.01725 0.1451 0.0
C2746 C 0.43064 0.99583 0.15296 0.0
C2747 C 0.42293 0.99529 0.13592 0.0
H2748 H 0.39394 0.99296 0.90727 0.0
H2749 H 0.42832 0.0215 0.9429 0.0
H2750 H 0.44332 0.02301 0.91516 0.0
H2751 H 0.44676 0.01667 0.88052 0.0
H2752 H 0.41221 0.99011 0.84344 0.0
H2753 H 0.39731 0.98742 0.87204 0.0
C2754 C 0.40469 0.99965 0.90894 0.0
C2755 C 0.4099 0.00702 0.92734 0.0
C2756 C 0.4133 0.00081 0.89265 0.0
C2757 C 0.42394 0.01544 0.9292 0.0
C2758 C 0.43257 0.01643 0.91323 0.0
C2759 C 0.43597 0.01041 0.87853 0.0
C2760 C 0.43072 0.00356 0.85975 0.0
C2761 C 0.42736 0.00922 0.89484 0.0
C2762 C 0.41667 0.99529 0.85778 0.0
C2763 C 0.40808 0.99383 0.8741 0.0
H2764 H 0.00818 0.42038 0.92359 0.0
H2765 H 0.99199 0.38337 0.88881 0.0
H2766 H 0.98815 0.39419 0.85928 0.0
H2767 H 0.98873 0.41389 0.84362 0.0
H2768 H 0.00553 0.45117 0.87752 0.0
H2769 H 0.01008 0.4406 0.907 0.0
C2770 C 0.00401 0.41473 0.90945 0.0
C2771 C 1.00023 0.40102 0.90856 0.0
C2772 C 0.00192 0.42105 0.89239 0.0
C2773 C 0.99472 0.39384 0.89013 0.0
C2774 C 0.99258 0.40004 0.87317 0.0
C2775 C 0.99336 0.41968 0.85751 0.0
C2776 C 0.99665 0.43321 0.85857 0.0
C2777 C 0.99597 0.41357 0.87423 0.0
C2778 C 0.00291 0.44072 0.87642 0.0
C2779 C 0.00546 0.43467 0.89325 0.0
H2780 H 0.5921 0.57917 0.93421 0.0
H2781 H 0.5931 0.61358 0.90537 0.0
H2782 H 0.58099 0.59981 0.87548 0.0
H2783 H 0.57074 0.57818 0.85713 0.0
H2784 H 0.56934 0.5437 0.88639 0.0
H2785 H 0.58091 0.55733 0.91664 0.0
C2786 C 0.58949 0.58363 0.92155 0.0
C2787 C 0.59352 0.59741 0.92206 0.0
C2788 C 0.58249 0.57566 0.90446 0.0
C2789 C 0.59027 0.60305 0.90529 0.0
C2790 C 0.58329 0.59517 0.88823 0.0
C2791 C 0.57277 0.57359 0.87025 0.0
C2792 C 0.56919 0.55993 0.86946 0.0
C2793 C 0.57943 0.58148 0.8876 0.0
C2794 C 0.57212 0.55422 0.88648 0.0
C2795 C 0.5787 0.56199 0.90382 0.0
H2796 H 0.98985 0.58556 0.91954 0.0
H2797 H 0.02959 0.61963 0.90998 0.0
H2798 H 0.03272 0.60851 0.88004 0.0
H2799 H 0.02388 0.58942 0.85595 0.0
H2800 H 0.98425 0.55523 0.86584 0.0
H2801 H 0.98142 0.56606 0.89641 0.0
C2802 C 0.99927 0.59048 0.9111 0.0
C2803 C 0.00945 0.60342 0.91699 0.0
C2804 C 0.00101 0.58402 0.89394 0.0
C2805 C 0.02152 0.60974 0.90563 0.0
C2806 C 0.02334 0.60336 0.88857 0.0
C2807 C 0.01471 0.58424 0.86497 0.0
C2808 C 0.00429 0.57154 0.85859 0.0
C2809 C 0.01312 0.59054 0.8825 0.0
C2810 C 0.99237 0.56508 0.87028 0.0
C2811 C 0.99075 0.57124 0.8878 0.0
H2812 H 0.38704 0.41246 0.90929 0.0
H2813 H 0.42235 0.41388 0.93519 0.0
H2814 H 0.43612 0.42858 0.90709 0.0
H2815 H 0.43787 0.44004 0.8742 0.0
H2816 H 0.40272 0.43902 0.84846 0.0
H2817 H 0.38913 0.4253 0.87756 0.0
C2818 C 0.39776 0.41604 0.90874 0.0
C2819 C 0.40369 0.41206 0.92414 0.0
C2820 C 0.40561 0.42456 0.89263 0.0
C2821 C 0.41761 0.41688 0.92352 0.0
C2822 C 0.42546 0.42523 0.90744 0.0
C2823 C 0.42724 0.43686 0.87508 0.0
C2824 C 0.42125 0.44042 0.85921 0.0
C2825 C 0.41954 0.429 0.89179 0.0
C2826 C 0.40754 0.43644 0.86059 0.0
C2827 C 0.39977 0.42853 0.87713 0.0
H2828 H 0.57873 0.98835 0.92655 0.0
H2829 H 0.59926 0.9728 0.88967 0.0
H2830 H 0.58537 0.97093 0.85988 0.0
H2831 H 0.56796 0.97446 0.84399 0.0
H2832 H 0.5472 0.98972 0.88093 0.0
H2833 H 0.56055 0.99083 0.91109 0.0
C2834 C 0.58004 0.98436 0.91209 0.0
C2835 C 0.59006 0.98075 0.91036 0.0
C2836 C 0.572 0.98328 0.89503 0.0
C2837 C 0.59176 0.97582 0.89137 0.0
C2838 C 0.58377 0.97468 0.87435 0.0
C2839 C 0.56618 0.97781 0.85872 0.0
C2840 C 0.55659 0.98199 0.86019 0.0
C2841 C 0.57393 0.97848 0.87596 0.0
C2842 C 0.55461 0.98656 0.87933 0.0
C2843 C 0.56222 0.98717 0.89659 0.0
H2844 H 0.602 0.00674 0.10941 0.0
H2845 H 0.5709 0.97482 0.0731 0.0
H2846 H 0.55433 0.9708 0.10001 0.0
H2847 H 0.54888 0.97579 0.13455 0.0
H2848 H 0.58001 0.00786 0.17064 0.0
H2849 H 0.59633 0.01245 0.14314 0.0
C2850 C 0.59158 0.99892 0.10743 0.0
C2851 C 0.58768 0.99106 0.08938 0.0
C2852 C 0.58212 0.99669 0.12291 0.0
C2853 C 0.57412 0.98107 0.08682 0.0
C2854 C 0.56466 0.97872 0.10223 0.0
C2855 C 0.55923 0.98379 0.13633 0.0
C2856 C 0.56324 0.99146 0.15459 0.0
C2857 C 0.56857 0.98638 0.12044 0.0
C2858 C 0.57665 0.00191 0.15663 0.0
C2859 C 0.58601 0.00449 0.14097 0.0
H2860 H 0.00468 0.59181 0.09268 0.0
H2861 H 0.97146 0.59531 0.11662 0.0
H2862 H 0.96968 0.58128 0.14618 0.0
H2863 H 0.97794 0.56852 0.1657 0.0
H2864 H 0.01133 0.56523 0.14204 0.0
H2865 H 0.01281 0.57886 0.11205 0.0
C2866 C 0.99713 0.5896 0.10446 0.0
C2867 C 0.98823 0.59462 0.10244 0.0
C2868 C 0.99621 0.58159 0.12148 0.0
C2869 C 0.97834 0.59146 0.11767 0.0
C2870 C 0.97736 0.58349 0.13463 0.0
C2871 C 0.98542 0.57063 0.15384 0.0
C2872 C 0.9945 0.56585 0.15608 0.0
C2873 C 0.98624 0.57851 0.1367 0.0
C2874 C 0.0043 0.56889 0.14076 0.0
C2875 C 0.00513 0.57665 0.12359 0.0
H2876 H 0.401 0.40461 0.11411 0.0
H2877 H 0.42678 0.38899 0.0963 0.0
H2878 H 0.44203 0.40111 0.12494 0.0
H2879 H 0.44787 0.416 0.15532 0.0
H2880 H 0.42194 0.43154 0.1728 0.0
H2881 H 0.40696 0.41966 0.14397 0.0
C2882 C 0.4099 0.40378 0.11662 0.0
C2883 C 0.41271 0.39585 0.10323 0.0
C2884 C 0.41863 0.41082 0.13298 0.0
C2885 C 0.42443 0.39508 0.10637 0.0
C2886 C 0.43312 0.40197 0.12277 0.0
C2887 C 0.43892 0.41675 0.15282 0.0
C2888 C 0.43605 0.42468 0.16616 0.0
C2889 C 0.43031 0.40985 0.1362 0.0
C2890 C 0.42449 0.42567 0.1626 0.0
C2891 C 0.41586 0.4188 0.1462 0.0
H2892 H 0.67438 0.74857 0.43117 0.0
H2893 H 0.63526 0.71457 0.44465 0.0
H2894 H 0.63287 0.72661 0.47404 0.0
H2895 H 0.64225 0.7465 0.49657 0.0
H2896 H 0.6813 0.78059 0.48286 0.0
H2897 H 0.68344 0.76874 0.45304 0.0
C2898 C 0.66537 0.74378 0.44064 0.0
C2899 C 0.65504 0.73068 0.43583 0.0
C2900 C 0.66407 0.75076 0.45747 0.0
C2901 C 0.64332 0.72468 0.44798 0.0
C2902 C 0.64197 0.73153 0.46482 0.0
C2903 C 0.65114 0.75142 0.48687 0.0
C2904 C 0.66161 0.7644 0.49198 0.0
C2905 C 0.6523 0.74456 0.46974 0.0
C2906 C 0.67316 0.77054 0.47943 0.0
C2907 C 0.67438 0.76379 0.46234 0.0
H2908 H 0.25949 0.93003 0.44748 0.0
H2909 H 0.28076 0.90927 0.43088 0.0
H2910 H 0.27018 0.8936 0.45959 0.0
H2911 H 0.25483 0.88576 0.48938 0.0
H2912 H 0.23369 0.90666 0.50608 0.0
H2913 H 0.24418 0.92222 0.4773 0.0
C2914 C 0.2619 0.92215 0.45029 0.0
C2915 C 0.27091 0.92083 0.43712 0.0
C2916 C 0.25572 0.91314 0.46674 0.0
C2917 C 0.27377 0.91043 0.44072 0.0
C2918 C 0.26776 0.90149 0.45715 0.0
C2919 C 0.25257 0.89376 0.48677 0.0
C2920 C 0.24345 0.895 0.49983 0.0
C2921 C 0.2587 0.90273 0.47025 0.0
C2922 C 0.24051 0.90533 0.49608 0.0
C2923 C 0.24658 0.91431 0.47972 0.0
H2924 H 0.07563 0.32811 0.44041 0.0
H2925 H 0.08026 0.36735 0.4507 0.0
H2926 H 0.09444 0.37056 0.48082 0.0
H2927 H 0.1047 0.36176 0.50513 0.0
H2928 H 0.09985 0.32243 0.49475 0.0
H2929 H 0.08644 0.31964 0.46391 0.0
C2930 C 0.07967 0.33733 0.44933 0.0
C2931 C 0.07682 0.34743 0.44341 0.0
C2932 C 0.08774 0.33907 0.46665 0.0
C2933 C 0.08236 0.35944 0.45487 0.0
C2934 C 0.09042 0.36126 0.47214 0.0
C2935 C 0.10086 0.35267 0.49594 0.0
C2936 C 0.1032 0.34229 0.50228 0.0
C2937 C 0.09311 0.35111 0.47825 0.0
C2938 C 0.09803 0.33049 0.49035 0.0
C2939 C 0.0904 0.3289 0.47269 0.0
H2940 H 0.05606 0.30605 0.24902 0.0
H2941 H 0.08888 0.34524 0.26588 0.0
H2942 H 0.1021 0.34463 0.23687 0.0
H2943 H 0.10402 0.33353 0.20586 0.0
H2944 H 0.07089 0.29491 0.18767 0.0
H2945 H 0.0582 0.29468 0.21817 0.0
C2946 C 0.06609 0.31448 0.24629 0.0
C2947 C 0.07145 0.32567 0.25962 0.0
C2948 C 0.0736 0.31416 0.22937 0.0
C2949 C 0.08455 0.33641 0.25605 0.0
C2950 C 0.0921 0.33612 0.23937 0.0
C2951 C 0.094 0.32508 0.20851 0.0
C2952 C 0.08838 0.31431 0.1944 0.0
C2953 C 0.08668 0.32513 0.22582 0.0
C2954 C 0.07551 0.30328 0.19835 0.0
C2955 C 0.0682 0.30319 0.2157 0.0
H2956 H 0.69155 0.7405 0.2345 0.0
H2957 H 0.66405 0.75065 0.2642 0.0
H2958 H 0.66702 0.76596 0.2361 0.0
H2959 H 0.67707 0.77625 0.20285 0.0
H2960 H 0.70236 0.764 0.17119 0.0
H2961 H 0.70059 0.74983 0.20034 0.0
C2962 C 0.68603 0.74589 0.23478 0.0
C2963 C 0.67765 0.7444 0.25169 0.0
C2964 C 0.68742 0.7544 0.2182 0.0
C2965 C 0.67083 0.75175 0.25175 0.0
C2966 C 0.67241 0.76046 0.23554 0.0
C2967 C 0.68207 0.77037 0.2021 0.0
C2968 C 0.68991 0.77135 0.18471 0.0
C2969 C 0.68064 0.76182 0.21864 0.0
C2970 C 0.6965 0.76378 0.18444 0.0
C2971 C 0.69539 0.75552 0.20107 0.0
H2972 H 0.25516 0.93889 0.23777 0.0
H2973 H 0.26173 0.90876 0.26661 0.0
H2974 H 0.24957 0.89302 0.2387 0.0
H2975 H 0.2381 0.88818 0.20537 0.0
H2976 H 0.23224 0.91844 0.1754 0.0
H2977 H 0.24271 0.93361 0.20473 0.0
C2978 C 0.25377 0.92882 0.23801 0.0
C2979 C 0.25945 0.92503 0.25408 0.0
C2980 C 0.24688 0.91984 0.22175 0.0
C2981 C 0.25764 0.91198 0.25421 0.0
C2982 C 0.25065 0.90296 0.23831 0.0
C2983 C 0.23915 0.89811 0.2052 0.0
C2984 C 0.23451 0.9022 0.18811 0.0
C2985 C 0.24543 0.90686 0.22185 0.0
C2986 C 0.23564 0.91499 0.1884 0.0
C2987 C 0.24173 0.92371 0.2051 0.0
H2988 H 0.67024 0.9289 0.24111 0.0
H2989 H 0.71251 0.95026 0.2563 0.0
H2990 H 0.71698 0.9386 0.22845 0.0
H2991 H 0.70889 0.92266 0.1993 0.0
H2992 H 0.66663 0.90182 0.18381 0.0
H2993 H 0.66214 0.91287 0.21236 0.0
C2994 C 0.68045 0.93109 0.23821 0.0
C2995 C 0.69104 0.9405 0.25065 0.0
C2996 C 0.68293 0.92438 0.2222 0.0
C2997 C 0.70417 0.94301 0.247 0.0
C2998 C 0.70674 0.93638 0.23104 0.0
C2999 C 0.69871 0.92057 0.20215 0.0
C3000 C 0.68812 0.91139 0.18943 0.0
C3001 C 0.6962 0.9271 0.21848 0.0
C3002 C 0.67495 0.90866 0.19352 0.0
C3003 C 0.67238 0.91507 0.20975 0.0
H3004 H 0.08332 0.74815 0.25675 0.0
H3005 H 0.04683 0.74706 0.23734 0.0
H3006 H 0.05862 0.76137 0.20767 0.0
H3007 H 0.07905 0.77331 0.18643 0.0
H3008 H 0.11529 0.77364 0.2051 0.0
H3009 H 0.1039 0.76058 0.236 0.0
C3010 C 0.07801 0.75121 0.24616 0.0
C3011 C 0.06425 0.7466 0.24921 0.0
C3012 C 0.0848 0.75925 0.22901 0.0
C3013 C 0.05742 0.75043 0.2352 0.0
C3014 C 0.06415 0.75862 0.21829 0.0
C3015 C 0.08449 0.77068 0.19745 0.0
C3016 C 0.09799 0.77446 0.19359 0.0
C3017 C 0.07781 0.76297 0.21493 0.0
C3018 C 0.10487 0.77079 0.20775 0.0
C3019 C 0.09837 0.76334 0.22539 0.0
H3020 H 0.25486 0.31892 0.24818 0.0
H3021 H 0.261 0.35542 0.2773 0.0
H3022 H 0.2483 0.35858 0.24986 0.0
H3023 H 0.23626 0.35155 0.21687 0.0
H3024 H 0.23113 0.31574 0.18668 0.0
H3025 H 0.24252 0.31171 0.2153 0.0
C3026 C 0.25347 0.32759 0.24848 0.0
C3027 C 0.25889 0.3369 0.26482 0.0
C3028 C 0.24631 0.32948 0.23246 0.0
C3029 C 0.25679 0.34798 0.26511 0.0
C3030 C 0.24961 0.34986 0.24932 0.0
C3031 C 0.23768 0.34289 0.2165 0.0
C3032 C 0.23287 0.334 0.1996 0.0
C3033 C 0.24444 0.34076 0.23282 0.0
C3034 C 0.23457 0.32268 0.19959 0.0
C3035 C 0.24118 0.32042 0.21588 0.0
H3036 H 0.25804 0.34284 0.43674 0.0
H3037 H 0.26991 0.31597 0.46377 0.0
H3038 H 0.2547 0.31169 0.49281 0.0
H3039 H 0.2381 0.31562 0.51059 0.0
H3040 H 0.22629 0.3426 0.48386 0.0
H3041 H 0.24159 0.34699 0.45481 0.0
C3042 C 0.25742 0.33617 0.44911 0.0
C3043 C 0.2651 0.32972 0.44805 0.0
C3044 C 0.24867 0.33378 0.4658 0.0
C3045 C 0.264 0.32094 0.46407 0.0
C3046 C 0.25534 0.31853 0.48072 0.0
C3047 C 0.23876 0.32235 0.49829 0.0
C3048 C 0.23101 0.32871 0.49932 0.0
C3049 C 0.24758 0.32483 0.48169 0.0
C3050 C 0.2322 0.33763 0.48348 0.0
C3051 C 0.24092 0.34011 0.46685 0.0
H3052 H 0.65055 0.92332 0.44749 0.0
H3053 H 0.68199 0.92226 0.4124 0.0
H3054 H 0.68572 0.91033 0.44048 0.0
H3055 H 0.68114 0.90157 0.47587 0.0
H3056 H 0.65 0.9028 0.51142 0.0
H3057 H 0.64498 0.91319 0.48229 0.0
C3058 C 0.65817 0.92042 0.446 0.0
C3059 C 0.666 0.9237 0.42791 0.0
C3060 C 0.66035 0.91364 0.4623 0.0
C3061 C 0.67573 0.91973 0.42606 0.0
C3062 C 0.67794 0.91299 0.44217 0.0
C3063 C 0.67323 0.90408 0.47718 0.0
C3064 C 0.66603 0.90155 0.49578 0.0
C3065 C 0.67047 0.9101 0.46048 0.0
C3066 C 0.65563 0.90461 0.4972 0.0
C3067 C 0.65282 0.91062 0.48062 0.0
H3068 H 0.07225 0.74381 0.44024 0.0
H3069 H 0.09376 0.72355 0.42195 0.0
H3070 H 0.10968 0.73437 0.45019 0.0
H3071 H 0.11705 0.74891 0.48078 0.0
H3072 H 0.09474 0.76809 0.50035 0.0
H3073 H 0.0797 0.75848 0.47078 0.0
C3074 C 0.08036 0.74168 0.44251 0.0
C3075 C 0.08175 0.73284 0.42899 0.0
C3076 C 0.08939 0.74779 0.45897 0.0
C3077 C 0.09251 0.73042 0.43195 0.0
C3078 C 0.10159 0.73654 0.44818 0.0
C3079 C 0.10886 0.75095 0.47866 0.0
C3080 C 0.10704 0.7592 0.49286 0.0
C3081 C 0.10006 0.74515 0.46188 0.0
C3082 C 0.09652 0.76194 0.48956 0.0
C3083 C 0.08783 0.75634 0.47275 0.0
H3084 H 0.33506 0.06507 0.78409 0.0
H3085 H 0.30625 0.06944 0.74684 0.0
H3086 H 0.30358 0.08252 0.77419 0.0
H3087 H 0.30956 0.09295 0.80868 0.0
H3088 H 0.33902 0.08931 0.84521 0.0
H3089 H 0.34158 0.07607 0.81791 0.0
C3090 C 0.32832 0.06901 0.78179 0.0
C3091 C 0.32082 0.06616 0.7634 0.0
C3092 C 0.32701 0.07677 0.79742 0.0
C3093 C 0.31196 0.07121 0.76095 0.0
C3094 C 0.3105 0.07881 0.77653 0.0
C3095 C 0.31651 0.08923 0.81063 0.0
C3096 C 0.32411 0.09213 0.82889 0.0
C3097 C 0.31796 0.08164 0.79485 0.0
C3098 C 0.33318 0.08736 0.83117 0.0
C3099 C 0.33459 0.07972 0.81563 0.0
H3100 H 0.93914 0.25902 0.7883 0.0
H3101 H 0.90675 0.25764 0.75243 0.0
H3102 H 0.89061 0.24396 0.779 0.0
H3103 H 0.88565 0.23259 0.81265 0.0
H3104 H 0.91796 0.23384 0.8485 0.0
H3105 H 0.93405 0.24698 0.82145 0.0
C3106 C 0.92853 0.25561 0.78617 0.0
C3107 C 0.92422 0.25949 0.76844 0.0
C3108 C 0.91925 0.24762 0.80146 0.0
C3109 C 0.91042 0.25506 0.7661 0.0
C3110 C 0.90115 0.24714 0.78122 0.0
C3111 C 0.89622 0.23576 0.81456 0.0
C3112 C 0.90057 0.23222 0.83258 0.0
C3113 C 0.90546 0.24344 0.79904 0.0
C3114 C 0.91429 0.23626 0.83467 0.0
C3115 C 0.92353 0.24387 0.81928 0.0
H3116 H 0.74007 0.66284 0.77221 0.0
H3117 H 0.75446 0.70529 0.76479 0.0
H3118 H 0.76998 0.71035 0.79364 0.0
H3119 H 0.77908 0.70269 0.82149 0.0
H3120 H 0.76338 0.66008 0.83032 0.0
H3121 H 0.74884 0.65517 0.80034 0.0
C3122 C 0.74649 0.6732 0.77701 0.0
C3123 C 0.74605 0.68365 0.76632 0.0
C3124 C 0.75522 0.67603 0.79383 0.0
C3125 C 0.75468 0.69704 0.77253 0.0
C3126 C 0.76351 0.69994 0.78913 0.0
C3127 C 0.77241 0.69232 0.81698 0.0
C3128 C 0.77241 0.6818 0.82819 0.0
C3129 C 0.7638 0.68951 0.79997 0.0
C3130 C 0.76384 0.66843 0.82182 0.0
C3131 C 0.7554 0.66558 0.80476 0.0
H3132 H 0.74972 0.67033 0.59029 0.0
H3133 H 0.71159 0.63682 0.57114 0.0
H3134 H 0.72233 0.63327 0.54112 0.0
H3135 H 0.74242 0.64008 0.5198 0.0
H3136 H 0.78061 0.67338 0.53914 0.0
H3137 H 0.76999 0.67654 0.56973 0.0
C3138 C 0.74378 0.66214 0.57971 0.0
C3139 C 0.72985 0.65388 0.58295 0.0
C3140 C 0.75003 0.66013 0.56251 0.0
C3141 C 0.72228 0.64345 0.56887 0.0
C3142 C 0.72844 0.64136 0.55176 0.0
C3143 C 0.74846 0.64789 0.53088 0.0
C3144 C 0.76229 0.65648 0.5272 0.0
C3145 C 0.74228 0.64968 0.54836 0.0
C3146 C 0.76992 0.66672 0.54152 0.0
C3147 C 0.76387 0.66851 0.55903 0.0
H3148 H 0.35257 0.08989 0.59106 0.0
H3149 H 0.32427 0.05346 0.55953 0.0
H3150 H 0.32527 0.06648 0.529 0.0
H3151 H 0.33404 0.0882 0.5114 0.0
H3152 H 0.3631 0.12464 0.54198 0.0
H3153 H 0.362 0.11169 0.57284 0.0
C3154 C 0.34662 0.08485 0.57748 0.0
C3155 C 0.33833 0.07077 0.57748 0.0
C3156 C 0.34738 0.09239 0.55991 0.0
C3157 C 0.33079 0.06429 0.55977 0.0
C3158 C 0.33132 0.07172 0.54238 0.0
C3159 C 0.34006 0.09328 0.5249 0.0
C3160 C 0.34851 0.10732 0.52463 0.0
C3161 C 0.33953 0.08577 0.54231 0.0
C3162 C 0.3565 0.11382 0.54197 0.0
C3163 C 0.35585 0.10643 0.55956 0.0
H3164 H 0.92357 0.25192 0.58537 0.0
H3165 H 0.92667 0.29023 0.57204 0.0
H3166 H 0.9128 0.28073 0.54123 0.0
H3167 H 0.89996 0.26158 0.51791 0.0
H3168 H 0.89629 0.22311 0.53192 0.0
H3169 H 0.91012 0.23262 0.56278 0.0
C3170 C 0.92109 0.25817 0.57588 0.0
C3171 C 0.92619 0.27178 0.58104 0.0
C3172 C 0.913 0.2526 0.55832 0.0
C3173 C 0.92306 0.27978 0.5683 0.0
C3174 C 0.91505 0.27432 0.55075 0.0
C3175 C 0.90202 0.25523 0.52788 0.0
C3176 C 0.8971 0.24166 0.52261 0.0
C3177 C 0.90997 0.26075 0.54561 0.0
C3178 C 0.90008 0.23363 0.5355 0.0
C3179 C 0.90794 0.23904 0.55318 0.0
H3180 H 0.33066 0.26124 0.56808 0.0
H3181 H 0.37256 0.27798 0.58379 0.0
H3182 H 0.3754 0.26563 0.55525 0.0
H3183 H 0.36603 0.25039 0.52545 0.0
H3184 H 0.32415 0.23387 0.50963 0.0
H3185 H 0.32121 0.2457 0.53872 0.0
C3186 C 0.34043 0.26226 0.56514 0.0
C3187 C 0.35141 0.27058 0.5779 0.0
C3188 C 0.34197 0.2551 0.54878 0.0
C3189 C 0.36395 0.27159 0.5742 0.0
C3190 C 0.36559 0.26456 0.55787 0.0
C3191 C 0.35627 0.2494 0.52836 0.0
C3192 C 0.34534 0.24126 0.51537 0.0
C3193 C 0.35467 0.25633 0.54502 0.0
C3194 C 0.3327 0.23993 0.51953 0.0
C3195 C 0.33103 0.24678 0.53606 0.0
H3196 H 0.74992 0.08842 0.59448 0.0
H3197 H 0.71189 0.0675 0.56236 0.0
H3198 H 0.7222 0.08104 0.53157 0.0
H3199 H 0.74196 0.09854 0.5136 0.0
H3200 H 0.77993 0.12006 0.54567 0.0
H3201 H 0.76968 0.10654 0.57666 0.0
C3202 C 0.74385 0.08692 0.58082 0.0
C3203 C 0.73016 0.0769 0.58073 0.0
C3204 C 0.74983 0.09482 0.56315 0.0
C3205 C 0.7225 0.07498 0.56277 0.0
C3206 C 0.72836 0.08278 0.54518 0.0
C3207 C 0.74797 0.10043 0.52745 0.0
C3208 C 0.76168 0.11036 0.52732 0.0
C3209 C 0.74201 0.09269 0.54518 0.0
C3210 C 0.76938 0.11242 0.54528 0.0
C3211 C 0.76351 0.10473 0.56303 0.0
H3212 H 0.92671 0.64723 0.5687 0.0
H3213 H 0.91219 0.66914 0.60445 0.0
H3214 H 0.8967 0.66658 0.57665 0.0
H3215 H 0.8877 0.65865 0.54174 0.0
H3216 H 0.90351 0.63813 0.50533 0.0
H3217 H 0.91799 0.63961 0.53385 0.0
C3218 C 0.92026 0.65157 0.57038 0.0
C3219 C 0.92068 0.65839 0.58868 0.0
C3220 C 0.91154 0.65027 0.5542 0.0
C3221 C 0.912 0.66368 0.59068 0.0
C3222 C 0.90319 0.66231 0.57471 0.0
C3223 C 0.89436 0.65457 0.53997 0.0
C3224 C 0.89439 0.64821 0.52137 0.0
C3225 C 0.90294 0.6557 0.55633 0.0
C3226 C 0.90301 0.64283 0.51955 0.0
C3227 C 0.91142 0.64378 0.53581 0.0
H3228 H 0.92203 0.67943 0.75697 0.0
H3229 H 0.9601 0.69528 0.78865 0.0
H3230 H 0.95055 0.69985 0.81914 0.0
H3231 H 0.93134 0.6989 0.83708 0.0
H3232 H 0.89343 0.68383 0.80526 0.0
H3233 H 0.903 0.67942 0.77452 0.0
C3234 C 0.9283 0.68405 0.77044 0.0
C3235 C 0.94176 0.68694 0.77052 0.0
C3236 C 0.92276 0.68675 0.78791 0.0
C3237 C 0.94965 0.69274 0.78825 0.0
C3238 C 0.94423 0.69543 0.80567 0.0
C3239 C 0.92521 0.69486 0.82332 0.0
C3240 C 0.91169 0.69174 0.8235 0.0
C3241 C 0.93079 0.69242 0.8057 0.0
C3242 C 0.90383 0.68621 0.80565 0.0
C3243 C 0.90931 0.68373 0.78802 0.0
H3244 H 0.31086 0.25368 0.7706 0.0
H3245 H 0.35158 0.26267 0.75946 0.0
H3246 H 0.35004 0.24828 0.78846 0.0
H3247 H 0.33713 0.23324 0.81697 0.0
H3248 H 0.29687 0.22551 0.82938 0.0
H3249 H 0.29808 0.23892 0.79948 0.0
C3250 C 0.31935 0.2524 0.77446 0.0
C3251 C 0.3313 0.2592 0.76294 0.0
C3252 C 0.31844 0.24424 0.79125 0.0
C3253 C 0.34231 0.25762 0.76825 0.0
C3254 C 0.34141 0.24935 0.78475 0.0
C3255 C 0.32864 0.23456 0.8133 0.0
C3256 C 0.31691 0.22826 0.82549 0.0
C3257 C 0.32954 0.24266 0.79641 0.0
C3258 C 0.30594 0.22995 0.82013 0.0
C3259 C 0.30667 0.23776 0.80312 0.0
H3260 H 0.75029 0.05702 0.77563 0.0
H3261 H 0.73811 0.08667 0.76693 0.0
H3262 H 0.75172 0.09941 0.79655 0.0
H3263 H 0.76649 0.1018 0.82541 0.0
H3264 H 0.77773 0.07153 0.83553 0.0
H3265 H 0.76546 0.05962 0.80448 0.0
C3266 C 0.75074 0.06634 0.78014 0.0
C3267 C 0.74316 0.07087 0.76921 0.0
C3268 C 0.75847 0.07354 0.79734 0.0
C3269 C 0.74372 0.0829 0.77529 0.0
C3270 C 0.75154 0.09021 0.79215 0.0
C3271 C 0.7662 0.09254 0.82095 0.0
C3272 C 0.77299 0.08756 0.83293 0.0
C3273 C 0.75882 0.08555 0.80342 0.0
C3274 C 0.77275 0.07572 0.82653 0.0
C3275 C 0.76562 0.06882 0.80886 0.0
H3276 H 0.07332 0.36843 0.04524 0.0
H3277 H 0.05089 0.33277 0.00792 0.0
H3278 H 0.06506 0.32399 0.02008 0.0
H3279 H 0.08262 0.32553 0.04331 0.0
H3280 H 0.1035 0.3601 0.08327 0.0
H3281 H 0.09127 0.3702 0.0679 0.0
C3282 C 0.07149 0.35872 0.03978 0.0
C3283 C 0.06099 0.35131 0.02568 0.0
C3284 C 0.07942 0.35349 0.04732 0.0
C3285 C 0.059 0.33885 0.0185 0.0
C3286 C 0.06703 0.33373 0.0256 0.0
C3287 C 0.0845 0.33526 0.04871 0.0
C3288 C 0.09396 0.34196 0.06453 0.0
C3289 C 0.07709 0.34084 0.04032 0.0
C3290 C 0.09644 0.35474 0.07094 0.0
C3291 C 0.08934 0.36048 0.06231 0.0
H3292 H 0.65873 0.71749 0.01465 0.0
H3293 H 0.63265 0.69798 0.06672 0.0
H3294 H 0.63882 0.71986 0.08164 0.0
H3295 H 0.65347 0.74436 0.08178 0.0
H3296 H 0.67979 0.764 0.02994 0.0
H3297 H 0.6718 0.74222 0.01319 0.0
C3298 C 0.65433 0.71804 0.02919 0.0
C3299 C 0.64533 0.70612 0.03963 0.0
C3300 C 0.65809 0.73066 0.03785 0.0
C3301 C 0.63953 0.70699 0.05829 0.0
C3302 C 0.64314 0.7195 0.06692 0.0
C3303 C 0.65723 0.74395 0.06658 0.0
C3304 C 0.66732 0.75582 0.05724 0.0
C3305 C 0.65265 0.73139 0.05708 0.0
C3306 C 0.67219 0.75501 0.03765 0.0
C3307 C 0.6676 0.74256 0.02803 0.0
H3308 H 0.29487 0.93566 0.01774 0.0
H3309 H 0.29537 0.96373 0.06268 0.0
H3310 H 0.27404 0.94633 0.07677 0.0
H3311 H 0.25611 0.92288 0.07809 0.0
H3312 H 0.25548 0.89436 0.03403 0.0
H3313 H 0.27609 0.91215 0.01805 0.0
C3314 C 0.2903 0.93796 0.03061 0.0
C3315 C 0.29673 0.95103 0.03906 0.0
C3316 C 0.27806 0.92781 0.0389 0.0
C3317 C 0.29058 0.95386 0.05561 0.0
C3318 C 0.27841 0.94387 0.06381 0.0
C3319 C 0.26028 0.92058 0.06469 0.0
C3320 C 0.25422 0.9073 0.05724 0.0
C3321 C 0.27214 0.9308 0.05574 0.0
C3322 C 0.25999 0.90448 0.04016 0.0
C3323 C 0.27176 0.91465 0.03101 0.0
H3324 H 0.36997 0.07816 0.9749 0.0
H3325 H 0.3352 0.05648 0.01418 0.0
H3326 H 0.32631 0.07069 0.00246 0.0
H3327 H 0.32723 0.08767 0.97842 0.0
H3328 H 0.36124 0.10829 0.93741 0.0
H3329 H 0.37166 0.09629 0.95265 0.0
C3330 C 0.36047 0.07659 0.98095 0.0
C3331 C 0.35322 0.06619 0.99526 0.0
C3332 C 0.35525 0.08461 0.9738 0.0
C3333 C 0.34106 0.06447 0.00328 0.0
C3334 C 0.3359 0.07253 0.99646 0.0
C3335 C 0.33697 0.0896 0.97291 0.0
C3336 C 0.34337 0.09878 0.95667 0.0
C3337 C 0.34274 0.08238 0.98133 0.0
C3338 C 0.35612 0.10137 0.95001 0.0
C3339 C 0.36204 0.0944 0.95857 0.0
H3340 H 0.93319 0.28866 0.99878 0.0
H3341 H 0.96023 0.29115 0.95046 0.0
H3342 H 0.94332 0.2691 0.93746 0.0
H3343 H 0.92038 0.24997 0.93824 0.0
H3344 H 0.89272 0.24767 0.98533 0.0
H3345 H 0.91034 0.26874 0.00055 0.0
C3346 C 0.93539 0.28425 0.98559 0.0
C3347 C 0.94788 0.29151 0.97549 0.0
C3348 C 0.92551 0.27166 0.97797 0.0
C3349 C 0.95062 0.28579 0.9583 0.0
C3350 C 0.94098 0.27318 0.95091 0.0
C3351 C 0.91829 0.25392 0.95212 0.0
C3352 C 0.90531 0.24725 0.96075 0.0
C3353 C 0.92833 0.26614 0.96041 0.0
C3354 C 0.90265 0.25265 0.97842 0.0
C3355 C 0.9127 0.26469 0.98708 0.0
H3356 H 0.7103 0.6401 0.98847 0.0
H3357 H 0.71433 0.67933 0.98099 0.0
H3358 H 0.73699 0.68814 0.96742 0.0
H3359 H 0.75511 0.6845 0.95588 0.0
H3360 H 0.75154 0.64545 0.96291 0.0
H3361 H 0.72915 0.63671 0.97814 0.0
C3362 C 0.71616 0.65056 0.98386 0.0
C3363 C 0.71063 0.65905 0.98583 0.0
C3364 C 0.72922 0.65558 0.97588 0.0
C3365 C 0.71839 0.67263 0.97996 0.0
C3366 C 0.73133 0.67766 0.97206 0.0
C3367 C 0.7496 0.67415 0.96115 0.0
C3368 C 0.75506 0.66568 0.95834 0.0
C3369 C 0.7368 0.66921 0.96982 0.0
C3370 C 0.74756 0.65218 0.96477 0.0
C3371 C 0.73477 0.64718 0.97351 0.0
H3372 H 0.95395 0.67283 0.98193 0.0
H3373 H 0.92113 0.63181 0.98301 0.0
H3374 H 0.90572 0.63919 0.97055 0.0
H3375 H 0.90188 0.65718 0.95782 0.0
H3376 H 0.93529 0.69796 0.9548 0.0
H3377 H 0.94998 0.69083 0.97037 0.0
C3378 C 0.94338 0.66553 0.97978 0.0
C3379 C 0.93868 0.6518 0.9834 0.0
C3380 C 0.93464 0.66981 0.97239 0.0
C3381 C 0.925 0.64243 0.98017 0.0
C3382 C 0.91619 0.64664 0.97311 0.0
C3383 C 0.91237 0.66453 0.96052 0.0
C3384 C 0.91739 0.67811 0.95506 0.0
C3385 C 0.92095 0.66029 0.96887 0.0
C3386 C 0.931 0.68749 0.95911 0.0
C3387 C 0.9395 0.6834 0.96782 0.0
H3388 H 0.36053 0.29501 0.97328 0.0
H3389 H 0.32328 0.28289 0.00549 0.0
H3390 H 0.31467 0.25958 0.99464 0.0
H3391 H 0.31716 0.243 0.97405 0.0
H3392 H 0.35399 0.25554 0.94016 0.0
H3393 H 0.36349 0.27815 0.95426 0.0
C3394 C 0.35062 0.28722 0.97822 0.0
C3395 C 0.34252 0.29067 0.99004 0.0
C3396 C 0.34567 0.27389 0.97167 0.0
C3397 C 0.32963 0.2805 0.99614 0.0
C3398 C 0.32473 0.26717 0.99 0.0
C3399 C 0.32727 0.25066 0.96975 0.0
C3400 C 0.33479 0.24751 0.95596 0.0
C3401 C 0.33255 0.26381 0.97739 0.0
C3402 C 0.348 0.25755 0.95094 0.0
C3403 C 0.35341 0.27057 0.95883 0.0
H3404 H 0.71473 0.04853 0.0036 0.0
H3405 H 0.69529 0.06419 0.9645 0.0
H3406 H 0.71716 0.08147 0.95143 0.0
H3407 H 0.74152 0.09062 0.94851 0.0
H3408 H 0.76105 0.07498 0.98751 0.0
H3409 H 0.7394 0.05912 0.00305 0.0
C3410 C 0.7153 0.05578 0.9923 0.0
C3411 C 0.7034 0.055 0.98491 0.0
C3412 C 0.7279 0.06561 0.98468 0.0
C3413 C 0.7043 0.06461 0.97054 0.0
C3414 C 0.7168 0.07444 0.96295 0.0
C3415 C 0.74113 0.08399 0.96077 0.0
C3416 C 0.75291 0.08394 0.96668 0.0
C3417 C 0.72864 0.07486 0.96958 0.0
C3418 C 0.75212 0.0751 0.9824 0.0
C3419 C 0.73974 0.06604 0.99134 0.0
H3420 H 0.67344 0.95172 0.0271 0.0
H3421 H 0.63137 0.92269 0.03618 0.0
H3422 H 0.63729 0.90623 0.04841 0.0
H3423 H 0.65444 0.90061 0.05897 0.0
H3424 H 0.69653 0.93084 0.05385 0.0
H3425 H 0.69051 0.94609 0.0374 0.0
C3426 C 0.66553 0.94184 0.03189 0.0
C3427 C 0.65197 0.93857 0.03083 0.0
C3428 C 0.66901 0.93255 0.0396 0.0
C3429 C 0.64189 0.92552 0.03657 0.0
C3430 C 0.64528 0.9161 0.04376 0.0
C3431 C 0.66234 0.91055 0.05439 0.0
C3432 C 0.67595 0.91445 0.05782 0.0
C3433 C 0.65882 0.9196 0.04572 0.0
C3434 C 0.68597 0.92731 0.05117 0.0
C3435 C 0.68254 0.93618 0.04195 0.0
H3436 H 0.06686 0.70582 0.04001 0.0
H3437 H 0.03708 0.71712 0.02551 0.0
H3438 H 0.05245 0.74004 0.03666 0.0
H3439 H 0.07374 0.75659 0.05245 0.0
H3440 H 0.10232 0.74452 0.07112 0.0
H3441 H 0.08809 0.72234 0.05621 0.0
C3442 C 0.06364 0.71322 0.03943 0.0
C3443 C 0.05075 0.7096 0.03185 0.0
C3444 C 0.07236 0.72634 0.04659 0.0
C3445 C 0.04698 0.71954 0.03084 0.0
C3446 C 0.05574 0.73268 0.03743 0.0
C3447 C 0.07686 0.74912 0.05345 0.0
C3448 C 0.08914 0.75235 0.06304 0.0
C3449 C 0.06836 0.73614 0.04562 0.0
C3450 C 0.09308 0.74253 0.06358 0.0
C3451 C 0.08485 0.72973 0.05525 0.0
H3452 H 0.286 0.34193 0.03384 0.0
H3453 H 0.30912 0.38253 0.0572 0.0
H3454 H 0.28875 0.38098 0.07149 0.0
H3455 H 0.26474 0.36774 0.0791 0.0
H3456 H 0.24124 0.32753 0.05449 0.0
H3457 H 0.26146 0.32938 0.03875 0.0
C3458 C 0.28658 0.35054 0.0417 0.0
C3459 C 0.29915 0.36228 0.0446 0.0
C3460 C 0.27478 0.34965 0.04973 0.0
C3461 C 0.29966 0.37326 0.05511 0.0
C3462 C 0.28799 0.37242 0.06318 0.0
C3463 C 0.26392 0.35947 0.06987 0.0
C3464 C 0.25144 0.3475 0.06805 0.0
C3465 C 0.27554 0.36061 0.06082 0.0
C3466 C 0.25072 0.33681 0.0564 0.0
C3467 C 0.26228 0.33787 0.04734 0.0
H3468 H 0.7335 0.68914 0.35581 0.0
H3469 H 0.70089 0.66279 0.39621 0.0
H3470 H 0.71508 0.65518 0.41223 0.0
H3471 H 0.73666 0.65612 0.41528 0.0
H3472 H 0.76967 0.68239 0.37561 0.0
H3473 H 0.75551 0.69015 0.35912 0.0
C3474 C 0.72954 0.68179 0.36818 0.0
C3475 C 0.71607 0.67643 0.37459 0.0
C3476 C 0.73783 0.67748 0.37753 0.0
C3477 C 0.7111 0.66687 0.39062 0.0
C3478 C 0.71923 0.66257 0.39992 0.0
C3479 C 0.74073 0.6634 0.40281 0.0
C3480 C 0.75416 0.66854 0.39652 0.0
C3481 C 0.73257 0.66776 0.39347 0.0
C3482 C 0.75937 0.67828 0.38076 0.0
C3483 C 0.75127 0.68268 0.3713 0.0
H3484 H 0.33132 0.04252 0.37599 0.0
H3485 H 0.29075 0.0337 0.36424 0.0
H3486 H 0.29665 0.05639 0.37574 0.0
H3487 H 0.31341 0.07863 0.38934 0.0
H3488 H 0.35335 0.08613 0.40421 0.0
H3489 H 0.34774 0.0643 0.39054 0.0
C3490 C 0.32381 0.04563 0.37581 0.0
C3491 C 0.31067 0.03656 0.36916 0.0
C3492 C 0.3272 0.05851 0.38277 0.0
C3493 C 0.30094 0.04056 0.36934 0.0
C3494 C 0.30432 0.05352 0.37585 0.0
C3495 C 0.32089 0.07551 0.3898 0.0
C3496 C 0.33389 0.08429 0.39765 0.0
C3497 C 0.31743 0.06258 0.38269 0.0
C3498 C 0.34341 0.07994 0.39773 0.0
C3499 C 0.34016 0.06731 0.39016 0.0
H3500 H 0.95202 0.28086 0.35091 0.0
H3501 H 0.97018 0.26491 0.39213 0.0
H3502 H 0.94796 0.24815 0.40478 0.0
H3503 H 0.92368 0.23976 0.40696 0.0
H3504 H 0.90555 0.25616 0.36659 0.0
H3505 H 0.92746 0.27107 0.35088 0.0
C3506 C 0.9511 0.27367 0.3626 0.0
C3507 C 0.96275 0.27422 0.3707 0.0
C3508 C 0.93832 0.26422 0.37008 0.0
C3509 C 0.96138 0.26466 0.38553 0.0
C3510 C 0.94868 0.25513 0.39289 0.0
C3511 C 0.92446 0.24635 0.39436 0.0
C3512 C 0.91302 0.24691 0.38804 0.0
C3513 C 0.93711 0.25503 0.38563 0.0
C3514 C 0.91424 0.25565 0.37189 0.0
C3515 C 0.92676 0.26418 0.36291 0.0
H3516 H 0.03621 0.4023 0.30166 0.0
H3517 H 1.00005 0.38225 0.33843 0.0
H3518 H 0.99326 0.39814 0.32632 0.0
H3519 H 0.99679 0.41669 0.30335 0.0
H3520 H 0.03251 0.43603 0.26544 0.0
H3521 H 0.04033 0.4216 0.28014 0.0
C3522 C 0.02685 0.40142 0.30703 0.0
C3523 C 0.01861 0.39105 0.3208 0.0
C3524 C 0.02292 0.41048 0.29982 0.0
C3525 C 0.00663 0.3902 0.32794 0.0
C3526 C 0.00269 0.39923 0.32092 0.0
C3527 C 0.00631 0.41778 0.29836 0.0
C3528 C 0.01401 0.42741 0.28324 0.0
C3529 C 0.01064 0.40925 0.30657 0.0
C3530 C 0.02644 0.42884 0.27722 0.0
C3531 C 0.03087 0.42049 0.28547 0.0
H3532 H 0.61803 0.61821 0.32199 0.0
H3533 H 0.58975 0.63153 0.30876 0.0
H3534 H 0.57322 0.60888 0.29689 0.0
H3535 H 0.56737 0.58569 0.28873 0.0
H3536 H 0.59697 0.5734 0.29832 0.0
H3537 H 0.61212 0.59501 0.31396 0.0
C3538 C 0.60817 0.61607 0.31677 0.0
C3539 C 0.60504 0.62644 0.3163 0.0
C3540 C 0.59891 0.60318 0.30945 0.0
C3541 C 0.59234 0.62366 0.30918 0.0
C3542 C 0.58292 0.61074 0.30243 0.0
C3543 C 0.57715 0.5877 0.29406 0.0
C3544 C 0.58088 0.57775 0.29219 0.0
C3545 C 0.58619 0.60047 0.30218 0.0
C3546 C 0.59355 0.5806 0.29982 0.0
C3547 C 0.60237 0.59309 0.30857 0.0
H3548 H 0.37646 0.97324 0.33301 0.0
H3549 H 0.37323 0.00174 0.29341 0.0
H3550 H 0.39582 0.00954 0.28012 0.0
H3551 H 0.41593 0.00754 0.27839 0.0
H3552 H 0.41958 0.97903 0.31735 0.0
H3553 H 0.39737 0.97192 0.33227 0.0
C3554 C 0.38079 0.98124 0.32164 0.0
C3555 C 0.37315 0.98682 0.31406 0.0
C3556 C 0.39381 0.98563 0.31391 0.0
C3557 C 0.37883 0.99714 0.29922 0.0
C3558 C 0.39176 0.00164 0.29168 0.0
C3559 C 0.41202 0.99997 0.29047 0.0
C3560 C 0.41946 0.99391 0.29688 0.0
C3561 C 0.39927 0.99587 0.29874 0.0
C3562 C 0.41404 0.98383 0.31212 0.0
C3563 C 0.40136 0.97978 0.32065 0.0
H3564 H 0.60022 0.97115 0.3273 0.0
H3565 H 0.6245 0.98702 0.27245 0.0
H3566 H 0.60721 0.99061 0.25664 0.0
H3567 H 0.58489 0.98842 0.25783 0.0
H3568 H 0.55979 0.97131 0.31154 0.0
H3569 H 0.57768 0.96904 0.32852 0.0
C3570 C 0.6017 0.97547 0.31195 0.0
C3571 C 0.61354 0.9788 0.30099 0.0
C3572 C 0.5916 0.97727 0.30281 0.0
C3573 C 0.61538 0.98428 0.28105 0.0
C3574 C 0.60554 0.98637 0.27205 0.0
C3575 C 0.58344 0.98439 0.27338 0.0
C3576 C 0.57116 0.98018 0.28357 0.0
C3577 C 0.59358 0.98281 0.28272 0.0
C3578 C 0.56922 0.97466 0.30349 0.0
C3579 C 0.57942 0.97335 0.31315 0.0
H3580 H 0.01304 0.62017 0.32833 0.0
H3581 H 0.04502 0.64131 0.28412 0.0
H3582 H 0.04095 0.6199 0.26978 0.0
H3583 H 0.027 0.59529 0.26783 0.0
H3584 H 0.99497 0.57417 0.31194 0.0
H3585 H 0.00053 0.59547 0.32853 0.0
C3586 C 0.01931 0.62011 0.31585 0.0
C3587 C 0.02923 0.63235 0.30719 0.0
C3588 C 0.01687 0.60777 0.3076 0.0
C3589 C 0.03715 0.63205 0.29083 0.0
C3590 C 0.03487 0.61981 0.28268 0.0
C3591 C 0.02145 0.59532 0.28139 0.0
C3592 C 0.01054 0.58317 0.28857 0.0
C3593 C 0.02457 0.60761 0.29065 0.0
C3594 C 0.00332 0.5834 0.30597 0.0
C3595 C 0.00649 0.59557 0.31546 0.0
H3596 H 0.37638 0.4104 0.33032 0.0
H3597 H 0.37938 0.37453 0.32429 0.0
H3598 H 0.40172 0.38765 0.30922 0.0
H3599 H 0.41966 0.40886 0.29558 0.0
H3600 H 0.41724 0.44505 0.30164 0.0
H3601 H 0.39531 0.4322 0.31851 0.0
C3602 C 0.38198 0.4055 0.32578 0.0
C3603 C 0.37624 0.39152 0.32852 0.0
C3604 C 0.39485 0.41312 0.31694 0.0
C3605 C 0.38363 0.3853 0.32268 0.0
C3606 C 0.39638 0.39278 0.3139 0.0
C3607 C 0.41455 0.41406 0.30101 0.0
C3608 C 0.42016 0.42794 0.29731 0.0
C3609 C 0.40201 0.40665 0.31075 0.0
C3610 C 0.41312 0.43436 0.30404 0.0
C3611 C 0.40059 0.42702 0.31376 0.0
H3612 H 0.30602 0.26408 0.35584 0.0
H3613 H 0.34406 0.29875 0.37251 0.0
H3614 H 0.35236 0.28415 0.38433 0.0
H3615 H 0.34842 0.26172 0.39234 0.0
H3616 H 0.31027 0.2268 0.37743 0.0
H3617 H 0.30235 0.24132 0.36285 0.0
C3618 C 0.31612 0.26844 0.36206 0.0
C3619 C 0.32439 0.28254 0.36311 0.0
C3620 C 0.3208 0.25994 0.36931 0.0
C3621 C 0.33752 0.28798 0.37106 0.0
C3622 C 0.34227 0.27962 0.37803 0.0
C3623 C 0.33848 0.25724 0.38549 0.0
C3624 C 0.32998 0.24319 0.38587 0.0
C3625 C 0.33396 0.26562 0.37744 0.0
C3626 C 0.31699 0.23759 0.3774 0.0
C3627 C 0.31246 0.24589 0.36907 0.0
H3628 H 0.72679 0.05126 0.35491 0.0
H3629 H 0.73221 0.031 0.40713 0.0
H3630 H 0.74788 0.05263 0.42262 0.0
H3631 H 0.75892 0.07715 0.42241 0.0
H3632 H 0.75469 0.09762 0.36943 0.0
H3633 H 0.7397 0.07597 0.35314 0.0
C3634 C 0.73158 0.05154 0.36948 0.0
C3635 C 0.72814 0.03946 0.37993 0.0
C3636 C 0.74073 0.06404 0.37825 0.0
C3637 C 0.73438 0.0401 0.39894 0.0
C3638 C 0.74343 0.05247 0.40778 0.0
C3639 C 0.75503 0.07695 0.40707 0.0
C3640 C 0.75793 0.08907 0.39726 0.0
C3641 C 0.74652 0.0645 0.39771 0.0
C3642 C 0.75248 0.08849 0.37755 0.0
C3643 C 0.74394 0.0761 0.36816 0.0
H3644 H 0.95923 0.69425 0.3651 0.0
H3645 H 0.95572 0.65568 0.37772 0.0
H3646 H 0.93282 0.64708 0.39023 0.0
H3647 H 0.91433 0.65085 0.3996 0.0
H3648 H 0.91773 0.68943 0.38778 0.0
H3649 H 0.94021 0.69774 0.37322 0.0
C3650 C 0.95346 0.68398 0.37063 0.0
C3651 C 0.95921 0.67564 0.37045 0.0
C3652 C 0.94031 0.67911 0.37805 0.0
C3653 C 0.95151 0.66228 0.37741 0.0
C3654 C 0.93843 0.65736 0.38471 0.0
C3655 C 0.91986 0.66099 0.39345 0.0
C3656 C 0.91433 0.66949 0.39474 0.0
C3657 C 0.93278 0.66572 0.38527 0.0
C3658 C 0.92179 0.68271 0.38711 0.0
C3659 C 0.93463 0.68746 0.37876 0.0
H3660 H 0.37976 0.00241 0.71305 0.0
H3661 H 0.40591 0.03784 0.67737 0.0
H3662 H 0.42546 0.03664 0.68921 0.0
H3663 H 0.43527 0.02642 0.71159 0.0
H3664 H 0.409 0.99083 0.74672 0.0
H3665 H 0.38935 0.99089 0.73246 0.0
C3666 C 0.38968 0.00971 0.70743 0.0
C3667 C 0.3913 0.02031 0.69452 0.0
C3668 C 0.40089 0.0089 0.71413 0.0
C3669 C 0.40433 0.02976 0.68771 0.0
C3670 C 0.41553 0.02903 0.69436 0.0
C3671 C 0.42523 0.0186 0.71593 0.0
C3672 C 0.42361 0.00868 0.73026 0.0
C3673 C 0.41396 0.01881 0.7079 0.0
C3674 C 0.41054 0.99851 0.73556 0.0
C3675 C 0.39929 0.99861 0.72757 0.0
H3676 H 0.99472 0.37683 0.72233 0.0
H3677 H 0.96579 0.37212 0.67573 0.0
H3678 H 0.96776 0.39353 0.686 0.0
H3679 H 0.97668 0.41289 0.70966 0.0
H3680 H 0.00505 0.41699 0.75695 0.0
H3681 H 0.00471 0.39684 0.74439 0.0
C3682 C 0.98904 0.3806 0.71413 0.0
C3683 C 0.98005 0.37282 0.69838 0.0
C3684 C 0.99017 0.39287 0.72018 0.0
C3685 C 0.97262 0.3778 0.68814 0.0
C3686 C 0.97379 0.39007 0.69394 0.0
C3687 C 0.98283 0.40941 0.71717 0.0
C3688 C 0.99086 0.4165 0.73425 0.0
C3689 C 0.98234 0.39757 0.71021 0.0
C3690 C 0.99893 0.41192 0.74357 0.0
C3691 C 0.99864 0.40028 0.73655 0.0
H3692 H 0.61992 0.60755 0.69742 0.0
H3693 H 0.64498 0.59356 0.72491 0.0
H3694 H 0.6252 0.57452 0.74026 0.0
H3695 H 0.60109 0.56271 0.74767 0.0
H3696 H 0.57579 0.57633 0.71995 0.0
H3697 H 0.59539 0.59464 0.70277 0.0
C3698 C 0.62102 0.60021 0.70647 0.0
C3699 C 0.63394 0.60205 0.71015 0.0
C3700 C 0.60959 0.58927 0.71529 0.0
C3701 C 0.6352 0.59252 0.72213 0.0
C3702 C 0.62388 0.58159 0.73084 0.0
C3703 C 0.59977 0.56948 0.7375 0.0
C3704 C 0.58696 0.56813 0.73512 0.0
C3705 C 0.61107 0.57999 0.72777 0.0
C3706 C 0.58555 0.57722 0.72223 0.0
C3707 C 0.59675 0.58767 0.71236 0.0
H3708 H 0.69763 0.7339 0.63521 0.0
H3709 H 0.66144 0.71208 0.6714 0.0
H3710 H 0.6542 0.728 0.6611 0.0
H3711 H 0.65755 0.74732 0.63998 0.0
H3712 H 0.6936 0.76864 0.60318 0.0
H3713 H 0.70157 0.75386 0.61576 0.0
C3714 C 0.68817 0.73266 0.64084 0.0
C3715 C 0.68003 0.7218 0.65388 0.0
C3716 C 0.68406 0.74178 0.63479 0.0
C3717 C 0.66791 0.72042 0.6614 0.0
C3718 C 0.66374 0.72947 0.65544 0.0
C3719 C 0.66718 0.74876 0.63481 0.0
C3720 C 0.67495 0.75908 0.62066 0.0
C3721 C 0.67164 0.74007 0.64187 0.0
C3722 C 0.68749 0.76092 0.6143 0.0
C3723 C 0.69201 0.75238 0.62132 0.0
H3724 H 0.28347 0.94909 0.65987 0.0
H3725 H 0.2552 0.96267 0.64856 0.0
H3726 H 0.23821 0.93997 0.63758 0.0
H3727 H 0.23208 0.91679 0.6289 0.0
H3728 H 0.26176 0.90434 0.63605 0.0
H3729 H 0.27718 0.92578 0.65179 0.0
C3730 C 0.2735 0.94697 0.65532 0.0
C3731 C 0.27051 0.95743 0.65505 0.0
C3732 C 0.264 0.93406 0.64837 0.0
C3733 C 0.25767 0.95471 0.64882 0.0
C3734 C 0.24799 0.94176 0.64255 0.0
C3735 C 0.24193 0.91872 0.63375 0.0
C3736 C 0.2456 0.90877 0.63108 0.0
C3737 C 0.25115 0.93143 0.64182 0.0
C3738 C 0.25836 0.91152 0.63814 0.0
C3739 C 0.26735 0.92392 0.64694 0.0
H3740 H 0.04856 0.32876 0.67259 0.0
H3741 H 0.03047 0.29041 0.64124 0.0
H3742 H 0.05239 0.29574 0.6276 0.0
H3743 H 0.07624 0.31202 0.62212 0.0
H3744 H 0.09463 0.34995 0.65468 0.0
H3745 H 0.07301 0.34393 0.67047 0.0
C3746 C 0.04942 0.32142 0.66318 0.0
C3747 C 0.03778 0.30928 0.65774 0.0
C3748 C 0.0621 0.3245 0.65545 0.0
C3749 C 0.03917 0.29997 0.6453 0.0
C3750 C 0.05172 0.30297 0.63757 0.0
C3751 C 0.07566 0.31886 0.63309 0.0
C3752 C 0.08708 0.3315 0.63698 0.0
C3753 C 0.0632 0.31533 0.64217 0.0
C3754 C 0.08598 0.34027 0.65103 0.0
C3755 C 0.07362 0.33681 0.66014 0.0
H3756 H 0.2792 0.32357 0.65926 0.0
H3757 H 0.26229 0.28378 0.63298 0.0
H3758 H 0.24268 0.28487 0.62123 0.0
H3759 H 0.23119 0.29766 0.6162 0.0
H3760 H 0.24752 0.33725 0.643 0.0
H3761 H 0.26651 0.33566 0.65685 0.0
C3762 C 0.27112 0.31504 0.65129 0.0
C3763 C 0.27231 0.30367 0.64679 0.0
C3764 C 0.25982 0.31573 0.64456 0.0
C3765 C 0.26178 0.29276 0.63627 0.0
C3766 C 0.25052 0.29335 0.62964 0.0
C3767 C 0.23869 0.30583 0.62552 0.0
C3768 C 0.23788 0.31756 0.62852 0.0
C3769 C 0.24955 0.30486 0.63338 0.0
C3770 C 0.24794 0.32816 0.64023 0.0
C3771 C 0.25879 0.32724 0.6482 0.0
H3772 H 0.69616 0.96023 0.67152 0.0
H3773 H 0.66845 0.96229 0.62854 0.0
H3774 H 0.66411 0.94127 0.61275 0.0
H3775 H 0.66947 0.92331 0.60915 0.0
H3776 H 0.6978 0.92139 0.65082 0.0
H3777 H 0.70078 0.94146 0.66887 0.0
C3778 C 0.68918 0.95608 0.6587 0.0
C3779 C 0.68264 0.96288 0.65132 0.0
C3780 C 0.68691 0.94407 0.64932 0.0
C3781 C 0.67347 0.95722 0.63485 0.0
C3782 C 0.67106 0.94523 0.62564 0.0
C3783 C 0.67607 0.92709 0.62247 0.0
C3784 C 0.68337 0.92083 0.62866 0.0
C3785 C 0.67786 0.93868 0.63255 0.0
C3786 C 0.69213 0.92607 0.64567 0.0
C3787 C 0.69382 0.93753 0.65599 0.0
H3788 H 0.04683 0.70879 0.63837 0.0
H3789 H 0.04347 0.74165 0.66435 0.0
H3790 H 0.06633 0.75756 0.65298 0.0
H3791 H 0.0871 0.76221 0.6346 0.0
H3792 H 0.0903 0.72904 0.60965 0.0
H3793 H 0.0679 0.71317 0.62245 0.0
C3794 C 0.05114 0.71938 0.64199 0.0
C3795 C 0.04332 0.72396 0.65214 0.0
C3796 C 0.06435 0.72845 0.6357 0.0
C3797 C 0.0491 0.73782 0.65622 0.0
C3798 C 0.06223 0.74693 0.64985 0.0
C3799 C 0.0829 0.7515 0.6321 0.0
C3800 C 0.0904 0.74683 0.62123 0.0
C3801 C 0.0699 0.74238 0.63937 0.0
C3802 C 0.08487 0.73291 0.61824 0.0
C3803 C 0.07198 0.72382 0.62538 0.0
H3804 H 0.99889 0.6181 0.68701 0.0
H3805 H 0.96056 0.60005 0.71832 0.0
H3806 H 0.96449 0.58258 0.73238 0.0
H3807 H 0.97962 0.57365 0.73826 0.0
H3808 H 0.01803 0.59161 0.70715 0.0
H3809 H 0.01334 0.60802 0.69078 0.0
C3810 C 0.99139 0.61031 0.69686 0.0
C3811 C 0.97949 0.61043 0.7017 0.0
C3812 C 0.99378 0.60037 0.70509 0.0
C3813 C 0.96976 0.60014 0.71421 0.0
C3814 C 0.97204 0.5902 0.72238 0.0
C3815 C 0.98685 0.58094 0.72753 0.0
C3816 C 0.99919 0.58141 0.72405 0.0
C3817 C 0.98411 0.59035 0.71821 0.0
C3818 C 0.00853 0.59112 0.71036 0.0
C3819 C 0.00584 0.60049 0.70094 0.0
H3820 H 0.40564 0.37966 0.68964 0.0
H3821 H 0.36963 0.37673 0.71562 0.0
H3822 H 0.38287 0.39895 0.73115 0.0
H3823 H 0.40467 0.41848 0.73918 0.0
H3824 H 0.44087 0.42197 0.71288 0.0
H3825 H 0.42756 0.40014 0.69595 0.0
C3826 C 0.40072 0.38392 0.69867 0.0
C3827 C 0.38668 0.37656 0.70147 0.0
C3828 C 0.40841 0.39673 0.70763 0.0
C3829 C 0.3804 0.38225 0.71303 0.0
C3830 C 0.38797 0.39492 0.72203 0.0
C3831 C 0.40968 0.41466 0.72937 0.0
C3832 C 0.42378 0.42191 0.72736 0.0
C3833 C 0.40198 0.40218 0.7196 0.0
C3834 C 0.43005 0.41656 0.71495 0.0
C3835 C 0.42244 0.40409 0.70519 0.0
H3836 H 0.62002 0.00253 0.70577 0.0
H3837 H 0.63352 0.04503 0.70653 0.0
H3838 H 0.61155 0.04027 0.71951 0.0
H3839 H 0.58873 0.02402 0.73171 0.0
H3840 H 0.57572 0.9816 0.7316 0.0
H3841 H 0.59709 0.98635 0.71656 0.0
C3842 C 0.61811 0.01076 0.70842 0.0
C3843 C 0.62843 0.02412 0.70519 0.0
C3844 C 0.60549 0.00796 0.71588 0.0
C3845 C 0.62582 0.03465 0.70912 0.0
C3846 C 0.61323 0.03194 0.71644 0.0
C3847 C 0.59056 0.01582 0.72839 0.0
C3848 C 0.58056 0.00247 0.73277 0.0
C3849 C 0.60304 0.01863 0.72011 0.0
C3850 C 0.58308 0.99195 0.72808 0.0
C3851 C 0.59538 0.99466 0.71966 0.0
loop_
_geom_bond_atom_site_label_1
_geom_bond_atom_site_label_2
_geom_bond_distance
_geom_bond_site_symmetry_2
_ccdc_geom_bond_type
Li0 N17 1.990 . S
Li0 O60 1.956 . S
Li0 O61 1.970 1_654 S
Li0 O62 1.961 . S
Li1 N25 1.990 . S
Li1 O60 1.970 1_455 S
Li1 O61 1.956 1_554 S
Li1 O63 1.961 . S
Li2 N47 1.990 . S
Li2 O60 1.961 . S
Li2 O62 1.956 . S
Li2 O63 1.970 1_655 S
Li3 N53 1.990 . S
Li3 O61 1.961 . S
Li3 O62 1.970 1_456 S
Li3 O63 1.956 1_556 S
C4 C6 1.348 1_655 S
C4 C7 1.356 . S
C4 O60 1.325 . S
N5 C8 1.314 . S
N5 C9 1.279 . S
C6 C4 1.348 1_455 S
C6 C8 1.353 1_455 S
C6 H64 0.929 . S
C7 C4 1.356 . S
C7 C9 1.358 . S
C7 H65 0.930 . S
C8 N5 1.314 . S
C8 C6 1.353 1_655 S
C8 H66 0.930 1_655 S
C9 N5 1.279 . S
C9 C7 1.358 . S
C9 H67 0.930 . S
C10 C13 1.349 1_455 S
C10 C14 1.356 . S
C10 O61 1.325 . S
C11 N12 1.279 . S
C11 C14 1.358 . S
C11 H68 0.930 . S
N12 C11 1.279 . S
N12 C15 1.314 . S
C13 C10 1.349 1_655 S
C13 C15 1.321 1_655 S
C13 H69 0.964 . S
C14 C10 1.356 . S
C14 C11 1.358 . S
C14 H70 0.930 . S
C15 N12 1.314 . S
C15 C13 1.321 1_455 S
C15 H71 0.930 1_455 S
C16 N17 1.314 1_556 S
C16 C21 1.353 . S
C16 H22 0.930 . S
N17 Li0 1.990 . S
N17 C16 1.314 1_554 S
N17 C19 1.279 . S
C18 C19 1.358 . S
C18 C20 1.356 1_554 S
C18 H72 0.930 . S
C19 N17 1.279 . S
C19 C18 1.358 . S
C19 H23 0.930 . S
C20 C18 1.356 1_556 S
C20 C21 1.348 . S
C21 C16 1.353 . S
C21 C20 1.348 . S
C21 H73 0.929 . S
H22 C16 0.930 . S
H23 C19 0.930 . S
C24 N25 1.314 . S
C24 C26 1.353 . S
C24 H30 0.930 . S
N25 Li1 1.990 . S
N25 C24 1.314 . S
N25 C28 1.279 . S
C26 C24 1.353 . S
C26 C29 1.348 . S
C26 H74 0.929 . S
C27 C28 1.358 . S
C27 C29 1.356 . S
C27 H75 0.930 . S
C28 N25 1.279 . S
C28 C27 1.358 . S
C28 H31 0.930 1_554 S
C29 C26 1.348 . S
C29 C27 1.356 . S
H30 C24 0.930 . S
H31 C28 0.930 1_556 S
C32 C34 1.348 1_554 S
C32 C35 1.356 . S
C32 O62 1.325 . S
N33 C36 1.314 . S
N33 C37 1.279 1_556 S
C34 C32 1.348 1_556 S
C34 C36 1.353 . S
C34 H76 0.929 . S
C35 C32 1.356 . S
C35 C37 1.358 . S
C35 H77 0.930 . S
C36 N33 1.314 . S
C36 C34 1.353 . S
C36 H78 0.930 . S
C37 N33 1.279 1_554 S
C37 C35 1.358 . S
C37 H79 0.930 . S
C38 C39 1.348 . S
C38 C40 1.356 . S
C38 O63 1.325 . S
C39 C38 1.348 . S
C39 C41 1.353 . S
C39 H80 0.929 . S
C40 C38 1.356 . S
C40 C42 1.358 . S
C40 H81 0.961 . S
C41 C39 1.353 . S
C41 N43 1.314 . S
C41 H82 0.930 . S
C42 C40 1.358 . S
C42 N43 1.279 . S
C42 H83 0.930 . S
N43 C41 1.314 . S
N43 C42 1.279 . S
C44 C46 1.353 . S
C44 N47 1.314 . S
C44 H50 0.930 1_655 S
C45 N47 1.279 . S
C45 C48 1.358 . S
C45 H51 0.930 . S
C46 C44 1.353 . S
C46 C49 1.348 . S
C46 H84 0.926 . S
N47 Li2 1.990 . S
N47 C44 1.314 . S
N47 C45 1.279 . S
C48 C45 1.358 . S
C48 C49 1.356 . S
C48 H85 0.930 . S
C49 C46 1.348 . S
C49 C48 1.356 . S
H50 C44 0.930 1_455 S
H51 C45 0.930 . S
C52 N53 1.314 . S
C52 C54 1.353 . S
C52 H58 0.930 1_455 S
N53 Li3 1.990 . S
N53 C52 1.314 . S
N53 C56 1.279 . S
C54 C52 1.353 . S
C54 C57 1.348 . S
C54 H86 0.948 . S
C55 C56 1.358 . S
C55 C57 1.356 . S
C55 H87 0.930 . S
C56 N53 1.279 . S
C56 C55 1.358 . S
C56 H59 0.930 . S
C57 C54 1.348 . S
C57 C55 1.356 . S
H58 C52 0.930 1_655 S
H59 C56 0.930 . S
O60 Li0 1.956 . S
O60 Li1 1.970 1_655 S
O60 Li2 1.961 . S
O60 C4 1.325 . S
O61 Li0 1.970 1_456 S
O61 Li1 1.956 1_556 S
O61 Li3 1.961 . S
O61 C10 1.325 . S
O62 Li0 1.961 . S
O62 Li2 1.956 . S
O62 Li3 1.970 1_654 S
O62 C32 1.325 . S
O63 Li1 1.961 . S
O63 Li2 1.970 1_455 S
O63 Li3 1.956 1_554 S
O63 C38 1.325 . S
H64 C6 0.929 . S
H65 C7 0.930 . S
H66 C8 0.930 1_455 S
H67 C9 0.930 . S
H68 C11 0.930 . S
H69 C13 0.964 . S
H70 C14 0.930 . S
H71 C15 0.930 1_655 S
H72 C18 0.930 . S
H73 C21 0.929 . S
H74 C26 0.929 . S
H75 C27 0.930 . S
H76 C34 0.929 . S
H77 C35 0.930 . S
H78 C36 0.930 . S
H79 C37 0.930 . S
H80 C39 0.929 . S
H81 C40 0.961 . S
H82 C41 0.930 . S
H83 C42 0.930 . S
H84 C46 0.926 . S
H85 C48 0.930 . S
H86 C54 0.948 . S
H87 C55 0.930 . S
Li88 N105 1.996 . S
Li88 O148 1.956 . S
Li88 O149 1.970 1_554 S
Li88 O150 1.961 . S
Li89 N113 1.990 . S
Li89 O148 1.970 . S
Li89 O149 1.956 1_554 S
Li89 O151 1.961 . S
Li90 N135 1.990 . S
Li90 O148 1.961 . S
Li90 O150 1.956 . S
Li90 O151 1.970 . S
Li91 N141 1.990 . S
Li91 O149 1.961 . S
Li91 O150 1.970 1_556 S
Li91 O151 1.956 1_556 S
C92 C94 1.348 . S
C92 C95 1.356 . S
C92 O148 1.325 . S
N93 C96 1.314 . S
N93 C97 1.279 . S
C94 C92 1.348 . S
C94 C96 1.353 . S
C94 H152 0.929 . S
C95 C92 1.356 . S
C95 C97 1.358 . S
C95 H153 0.930 . S
C96 N93 1.314 . S
C96 C94 1.353 . S
C96 H154 0.930 . S
C97 N93 1.279 . S
C97 C95 1.358 . S
C97 H155 0.930 . S
C98 C101 1.348 . S
C98 C102 1.356 . S
C98 O149 1.325 . S
C99 N100 1.279 . S
C99 C102 1.358 . S
C99 H156 0.930 . S
N100 C99 1.279 . S
N100 C103 1.314 . S
C101 C98 1.348 . S
C101 C103 1.353 . S
C101 H157 0.929 . S
C102 C98 1.356 . S
C102 C99 1.358 . S
C102 H158 0.930 . S
C103 N100 1.314 . S
C103 C101 1.353 . S
C103 H159 0.930 . S
C104 N105 1.287 1_556 S
C104 C109 1.353 . S
C104 H110 0.930 . S
N105 Li88 1.996 . S
N105 C104 1.287 1_554 S
N105 C107 1.297 . S
C106 C107 1.358 . S
C106 C108 1.356 1_554 S
C106 H160 0.930 . S
C107 N105 1.297 . S
C107 C106 1.358 . S
C107 H111 0.930 . S
C108 C106 1.356 1_556 S
C108 C109 1.348 . S
C109 C104 1.353 . S
C109 C108 1.348 . S
C109 H161 0.929 . S
H110 C104 0.930 . S
H111 C107 0.930 . S
C112 N113 1.314 . S
C112 C114 1.353 . S
C112 H118 0.930 . S
N113 Li89 1.990 . S
N113 C112 1.314 . S
N113 C116 1.279 . S
C114 C112 1.353 . S
C114 C117 1.348 . S
C114 H162 0.929 . S
C115 C116 1.358 . S
C115 C117 1.356 . S
C115 H163 0.930 . S
C116 N113 1.279 . S
C116 C115 1.358 . S
C116 H119 0.930 1_554 S
C117 C114 1.348 . S
C117 C115 1.356 . S
H118 C112 0.930 . S
H119 C116 0.930 1_556 S
C120 C122 1.347 1_554 S
C120 C123 1.356 . S
C120 O150 1.325 . S
N121 C124 1.314 . S
N121 C125 1.279 1_556 S
C122 C120 1.347 1_556 S
C122 C124 1.353 . S
C122 H164 0.929 . S
C123 C120 1.356 . S
C123 C125 1.358 . S
C123 H165 0.930 . S
C124 N121 1.314 . S
C124 C122 1.353 . S
C124 H166 0.930 . S
C125 N121 1.279 1_554 S
C125 C123 1.358 . S
C125 H167 0.930 . S
C126 C127 1.348 . S
C126 C128 1.356 . S
C126 O151 1.325 . S
C127 C126 1.348 . S
C127 C129 1.353 . S
C127 H168 0.929 . S
C128 C126 1.356 . S
C128 C130 1.358 . S
C128 H169 0.930 . S
C129 C127 1.353 . S
C129 N131 1.314 . S
C129 H170 0.930 . S
C130 C128 1.358 . S
C130 N131 1.279 . S
C130 H171 0.930 . S
N131 C129 1.314 . S
N131 C130 1.279 . S
C132 C134 1.353 . S
C132 N135 1.314 . S
C132 H138 0.930 . S
C133 N135 1.279 . S
C133 C136 1.358 . S
C133 H139 0.930 . S
C134 C132 1.353 . S
C134 C137 1.348 . S
C134 H172 0.929 . S
N135 Li90 1.990 . S
N135 C132 1.314 . S
N135 C133 1.279 . S
C136 C133 1.358 . S
C136 C137 1.356 . S
C136 H173 0.930 . S
C137 C134 1.348 . S
C137 C136 1.356 . S
H138 C132 0.930 . S
H139 C133 0.930 . S
C140 N141 1.314 . S
C140 C142 1.353 . S
C140 H146 0.930 . S
N141 Li91 1.990 . S
N141 C140 1.314 . S
N141 C144 1.279 . S
C142 C140 1.353 . S
C142 C145 1.348 . S
C142 H174 0.929 . S
C143 C144 1.358 . S
C143 C145 1.356 . S
C143 H175 0.930 . S
C144 N141 1.279 . S
C144 C143 1.358 . S
C144 H147 0.930 . S
C145 C142 1.348 . S
C145 C143 1.356 . S
H146 C140 0.930 . S
H147 C144 0.930 . S
O148 Li88 1.956 . S
O148 Li89 1.970 . S
O148 Li90 1.961 . S
O148 C92 1.325 . S
O149 Li88 1.970 1_556 S
O149 Li89 1.956 1_556 S
O149 Li91 1.961 . S
O149 C98 1.325 . S
O150 Li88 1.961 . S
O150 Li90 1.956 . S
O150 Li91 1.970 1_554 S
O150 C120 1.325 . S
O151 Li89 1.961 . S
O151 Li90 1.970 . S
O151 Li91 1.956 1_554 S
O151 C126 1.325 . S
H152 C94 0.929 . S
H153 C95 0.930 . S
H154 C96 0.930 . S
H155 C97 0.930 . S
H156 C99 0.930 . S
H157 C101 0.929 . S
H158 C102 0.930 . S
H159 C103 0.930 . S
H160 C106 0.930 . S
H161 C109 0.929 . S
H162 C114 0.929 . S
H163 C115 0.930 . S
H164 C122 0.929 . S
H165 C123 0.930 . S
H166 C124 0.930 . S
H167 C125 0.930 . S
H168 C127 0.929 . S
H169 C128 0.930 . S
H170 C129 0.930 . S
H171 C130 0.930 . S
H172 C134 0.929 . S
H173 C136 0.930 . S
H174 C142 0.929 . S
H175 C143 0.930 . S
Li176 N193 1.990 . S
Li176 O236 1.956 1_556 S
Li176 O237 1.970 1_566 S
Li176 O238 1.961 . S
Li177 N201 1.990 . S
Li177 O236 1.970 1_545 S
Li177 O237 1.956 . S
Li177 O239 1.961 . S
Li178 N223 1.990 . S
Li178 O236 1.961 . S
Li178 O238 1.956 1_554 S
Li178 O239 1.970 1_565 S
Li179 N229 1.990 . S
Li179 O237 1.961 . S
Li179 O238 1.970 1_544 S
Li179 O239 1.956 . S
C180 C182 1.348 . S
C180 C183 1.356 . S
C180 O236 1.325 . S
N181 C184 1.314 . S
N181 C185 1.279 . S
C182 C180 1.348 . S
C182 C184 1.353 . S
C182 H240 0.929 . S
C183 C180 1.356 . S
C183 C185 1.358 . S
C183 H241 0.930 . S
C184 N181 1.314 . S
C184 C182 1.353 . S
C184 H242 0.930 . S
C185 N181 1.279 . S
C185 C183 1.358 . S
C185 H243 0.930 . S
C186 C189 1.348 1_554 S
C186 C190 1.356 . S
C186 O237 1.325 . S
C187 N188 1.279 1_554 S
C187 C190 1.358 . S
C187 H244 0.930 . S
N188 C187 1.279 1_556 S
N188 C191 1.314 . S
C189 C186 1.348 1_556 S
C189 C191 1.353 . S
C189 H245 0.929 . S
C190 C186 1.356 . S
C190 C187 1.358 . S
C190 H246 0.930 . S
C191 N188 1.314 . S
C191 C189 1.353 . S
C191 H247 0.930 . S
C192 N193 1.314 . S
C192 C197 1.353 . S
C192 H198 0.930 1_565 S
N193 Li176 1.990 . S
N193 C192 1.314 . S
N193 C195 1.279 . S
C194 C195 1.358 . S
C194 C196 1.356 . S
C194 H248 0.930 . S
C195 N193 1.279 . S
C195 C194 1.358 . S
C195 H199 0.930 . S
C196 C194 1.356 . S
C196 C197 1.348 . S
C197 C192 1.353 . S
C197 C196 1.348 . S
C197 H249 0.925 . S
H198 C192 0.930 1_545 S
H199 C195 0.930 . S
C200 N201 1.314 . S
C200 C202 1.353 . S
C200 H206 0.930 1_545 S
N201 Li177 1.990 . S
N201 C200 1.314 . S
N201 C204 1.279 . S
C202 C200 1.353 . S
C202 C205 1.348 . S
C202 H250 0.948 . S
C203 C204 1.358 . S
C203 C205 1.356 . S
C203 H251 0.930 . S
C204 N201 1.279 . S
C204 C203 1.358 . S
C204 H207 0.930 . S
C205 C202 1.348 . S
C205 C203 1.356 . S
H206 C200 0.930 1_565 S
H207 C204 0.930 . S
C208 C210 1.348 1_565 S
C208 C211 1.356 . S
C208 O238 1.325 . S
N209 C212 1.314 . S
N209 C213 1.279 . S
C210 C208 1.348 1_545 S
C210 C212 1.353 1_545 S
C210 H252 0.929 . S
C211 C208 1.356 . S
C211 C213 1.358 . S
C211 H253 0.930 . S
C212 N209 1.314 . S
C212 C210 1.353 1_565 S
C212 H254 0.930 1_565 S
C213 N209 1.279 . S
C213 C211 1.358 . S
C213 H255 0.930 . S
C214 C215 1.349 1_545 S
C214 C216 1.356 . S
C214 O239 1.325 . S
C215 C214 1.349 1_565 S
C215 C217 1.322 1_565 S
C215 H256 0.963 . S
C216 C214 1.356 . S
C216 C218 1.358 . S
C216 H257 0.930 . S
C217 C215 1.322 1_545 S
C217 N219 1.314 . S
C217 H258 0.930 1_545 S
C218 C216 1.358 . S
C218 N219 1.279 . S
C218 H259 0.930 . S
N219 C217 1.314 . S
N219 C218 1.279 . S
C220 C222 1.353 . S
C220 N223 1.314 . S
C220 H226 0.930 . S
C221 N223 1.279 . S
C221 C224 1.358 . S
C221 H227 0.930 1_554 S
C222 C220 1.353 . S
C222 C225 1.348 . S
C222 H260 0.929 . S
N223 Li178 1.990 . S
N223 C220 1.314 . S
N223 C221 1.279 . S
C224 C221 1.358 . S
C224 C225 1.356 . S
C224 H261 0.930 . S
C225 C222 1.348 . S
C225 C224 1.356 . S
H226 C220 0.930 . S
H227 C221 0.930 1_556 S
C228 N229 1.314 1_556 S
C228 C230 1.353 . S
C228 H234 0.930 . S
N229 Li179 1.990 . S
N229 C228 1.314 1_554 S
N229 C232 1.279 . S
C230 C228 1.353 . S
C230 C233 1.348 . S
C230 H262 0.929 . S
C231 C232 1.358 . S
C231 C233 1.356 1_554 S
C231 H263 0.930 . S
C232 N229 1.279 . S
C232 C231 1.358 . S
C232 H235 0.930 . S
C233 C230 1.348 . S
C233 C231 1.356 1_556 S
H234 C228 0.930 . S
H235 C232 0.930 . S
O236 Li176 1.956 1_554 S
O236 Li177 1.970 1_565 S
O236 Li178 1.961 . S
O236 C180 1.325 . S
O237 Li176 1.970 1_544 S
O237 Li177 1.956 . S
O237 Li179 1.961 . S
O237 C186 1.325 . S
O238 Li176 1.961 . S
O238 Li178 1.956 1_556 S
O238 Li179 1.970 1_566 S
O238 C208 1.325 . S
O239 Li177 1.961 . S
O239 Li178 1.970 1_545 S
O239 Li179 1.956 . S
O239 C214 1.325 . S
H240 C182 0.929 . S
H241 C183 0.930 . S
H242 C184 0.930 . S
H243 C185 0.930 . S
H244 C187 0.930 . S
H245 C189 0.929 . S
H246 C190 0.930 . S
H247 C191 0.930 . S
H248 C194 0.930 . S
H249 C197 0.925 . S
H250 C202 0.948 . S
H251 C203 0.930 . S
H252 C210 0.929 . S
H253 C211 0.930 . S
H254 C212 0.930 1_545 S
H255 C213 0.930 . S
H256 C215 0.963 . S
H257 C216 0.930 . S
H258 C217 0.930 1_565 S
H259 C218 0.930 . S
H260 C222 0.929 . S
H261 C224 0.930 . S
H262 C230 0.929 . S
H263 C231 0.930 . S
Li264 N281 1.990 . S
Li264 O324 1.956 . S
Li264 O325 1.970 1_455 S
Li264 O326 1.961 1_554 S
Li265 N289 1.990 . S
Li265 O324 1.970 1_655 S
Li265 O325 1.956 . S
Li265 O327 1.961 . S
Li266 N311 1.990 . S
Li266 O324 1.961 1_556 S
Li266 O326 1.956 . S
Li266 O327 1.970 1_456 S
Li267 N317 1.990 . S
Li267 O325 1.961 . S
Li267 O326 1.970 1_654 S
Li267 O327 1.956 . S
C268 C270 1.348 . S
C268 C271 1.356 . S
C268 O324 1.325 . S
N269 C272 1.314 . S
N269 C273 1.279 . S
C270 C268 1.348 . S
C270 C272 1.353 . S
C270 H328 0.929 . S
C271 C268 1.356 . S
C271 C273 1.358 . S
C271 H329 0.930 1_554 S
C272 N269 1.314 . S
C272 C270 1.353 . S
C272 H330 0.930 . S
C273 N269 1.279 . S
C273 C271 1.358 . S
C273 H331 0.930 1_554 S
C274 C277 1.348 1_655 S
C274 C278 1.356 . S
C274 O325 1.325 . S
C275 N276 1.279 . S
C275 C278 1.358 . S
C275 H332 0.930 . S
N276 C275 1.279 . S
N276 C279 1.254 1_655 S
C277 C274 1.348 1_455 S
C277 C279 1.389 . S
C277 H333 0.929 . S
C278 C274 1.356 . S
C278 C275 1.358 . S
C278 H334 0.930 . S
C279 N276 1.254 1_455 S
C279 C277 1.389 . S
C279 H335 0.961 . S
C280 N281 1.314 . S
C280 C285 1.353 . S
C280 H286 0.930 . S
N281 Li264 1.990 . S
N281 C280 1.314 . S
N281 C283 1.279 . S
C282 C283 1.358 . S
C282 C284 1.356 . S
C282 H336 0.930 . S
C283 N281 1.279 . S
C283 C282 1.358 . S
C283 H287 0.930 . S
C284 C282 1.356 . S
C284 C285 1.348 . S
C285 C280 1.353 . S
C285 C284 1.348 . S
C285 H337 0.929 . S
H286 C280 0.930 . S
H287 C283 0.930 . S
C288 N289 1.314 . S
C288 C290 1.353 . S
C288 H294 0.930 . S
N289 Li265 1.990 . S
N289 C288 1.314 . S
N289 C292 1.279 . S
C290 C288 1.353 . S
C290 C293 1.348 . S
C290 H338 0.929 . S
C291 C292 1.358 . S
C291 C293 1.356 . S
C291 H339 0.930 . S
C292 N289 1.279 . S
C292 C291 1.358 . S
C292 H295 0.930 . S
C293 C290 1.348 . S
C293 C291 1.356 . S
H294 C288 0.930 . S
H295 C292 0.930 . S
C296 C298 1.348 1_455 S
C296 C299 1.356 . S
C296 O326 1.325 . S
N297 C300 1.266 1_455 S
N297 C301 1.279 . S
C298 C296 1.348 1_655 S
C298 C300 1.351 . S
C298 H340 0.929 . S
C299 C296 1.356 . S
C299 C301 1.358 . S
C299 H341 0.930 . S
C300 N297 1.266 1_655 S
C300 C298 1.351 . S
C300 H342 0.990 . S
C301 N297 1.279 . S
C301 C299 1.358 . S
C301 H343 0.930 . S
C302 C303 1.348 1_554 S
C302 C304 1.356 . S
C302 O327 1.325 . S
C303 C302 1.348 1_556 S
C303 C305 1.353 . S
C303 H344 0.929 . S
C304 C302 1.356 . S
C304 C306 1.358 . S
C304 H345 0.930 . S
C305 C303 1.353 . S
C305 N307 1.314 . S
C305 H346 0.930 . S
C306 C304 1.358 . S
C306 N307 1.279 1_554 S
C306 H347 0.930 . S
N307 C305 1.314 . S
N307 C306 1.279 1_556 S
C308 C310 1.353 . S
C308 N311 1.314 . S
C308 H314 0.930 . S
C309 N311 1.279 . S
C309 C312 1.358 . S
C309 H315 0.930 . S
C310 C308 1.353 . S
C310 C313 1.348 . S
C310 H348 0.929 . S
N311 Li266 1.990 . S
N311 C308 1.314 . S
N311 C309 1.279 . S
C312 C309 1.358 . S
C312 C313 1.356 . S
C312 H349 0.930 . S
C313 C310 1.348 . S
C313 C312 1.356 . S
H314 C308 0.930 . S
H315 C309 0.930 . S
C316 N317 1.314 . S
C316 C318 1.353 . S
C316 H322 0.930 . S
N317 Li267 1.990 . S
N317 C316 1.314 . S
N317 C320 1.279 1_554 S
C318 C316 1.353 . S
C318 C321 1.348 1_554 S
C318 H350 0.929 . S
C319 C320 1.358 . S
C319 C321 1.356 . S
C319 H351 0.930 . S
C320 N317 1.279 1_556 S
C320 C319 1.358 . S
C320 H323 0.930 . S
C321 C318 1.348 1_556 S
C321 C319 1.356 . S
H322 C316 0.930 . S
H323 C320 0.930 . S
O324 Li264 1.956 . S
O324 Li265 1.970 1_455 S
O324 Li266 1.961 1_554 S
O324 C268 1.325 . S
O325 Li264 1.970 1_655 S
O325 Li265 1.956 . S
O325 Li267 1.961 . S
O325 C274 1.325 . S
O326 Li264 1.961 1_556 S
O326 Li266 1.956 . S
O326 Li267 1.970 1_456 S
O326 C296 1.325 . S
O327 Li265 1.961 . S
O327 Li266 1.970 1_654 S
O327 Li267 1.956 . S
O327 C302 1.325 . S
H328 C270 0.929 . S
H329 C271 0.930 1_556 S
H330 C272 0.930 . S
H331 C273 0.930 1_556 S
H332 C275 0.930 . S
H333 C277 0.929 . S
H334 C278 0.930 . S
H335 C279 0.961 . S
H336 C282 0.930 . S
H337 C285 0.929 . S
H338 C290 0.929 . S
H339 C291 0.930 . S
H340 C298 0.929 . S
H341 C299 0.930 . S
H342 C300 0.990 . S
H343 C301 0.930 . S
H344 C303 0.929 . S
H345 C304 0.930 . S
H346 C305 0.930 . S
H347 C306 0.930 . S
H348 C310 0.929 . S
H349 C312 0.930 . S
H350 C318 0.929 . S
H351 C319 0.930 . S
Li352 N369 1.990 . S
Li352 O412 1.956 . S
Li352 O413 1.970 . S
Li352 O414 1.961 1_554 S
Li353 N377 1.990 . S
Li353 O412 1.970 . S
Li353 O413 1.956 . S
Li353 O415 1.961 . S
Li354 N399 1.990 . S
Li354 O412 1.961 1_556 S
Li354 O414 1.956 . S
Li354 O415 1.970 1_556 S
Li355 N405 1.986 1_554 S
Li355 O413 1.961 . S
Li355 O414 1.970 1_554 S
Li355 O415 1.956 . S
C356 C358 1.348 . S
C356 C359 1.356 . S
C356 O412 1.325 . S
N357 C360 1.314 . S
N357 C361 1.279 . S
C358 C356 1.348 . S
C358 C360 1.353 . S
C358 H416 0.929 . S
C359 C356 1.356 . S
C359 C361 1.358 . S
C359 H417 0.930 1_554 S
C360 N357 1.314 . S
C360 C358 1.353 . S
C360 H418 0.930 . S
C361 N357 1.279 . S
C361 C359 1.358 . S
C361 H419 0.930 . S
C362 C365 1.348 . S
C362 C366 1.356 . S
C362 O413 1.325 . S
C363 N364 1.279 . S
C363 C366 1.358 . S
C363 H420 0.930 . S
N364 C363 1.279 . S
N364 C367 1.314 . S
C365 C362 1.348 . S
C365 C367 1.353 . S
C365 H421 0.929 . S
C366 C362 1.356 . S
C366 C363 1.358 . S
C366 H422 0.930 . S
C367 N364 1.314 . S
C367 C365 1.353 . S
C367 H423 0.930 . S
C368 N369 1.314 . S
C368 C373 1.353 . S
C368 H374 0.930 . S
N369 Li352 1.990 . S
N369 C368 1.314 . S
N369 C371 1.279 . S
C370 C371 1.358 . S
C370 C372 1.356 . S
C370 H424 0.930 . S
C371 N369 1.279 . S
C371 C370 1.358 . S
C371 H375 0.930 . S
C372 C370 1.356 . S
C372 C373 1.348 . S
C373 C368 1.353 . S
C373 C372 1.348 . S
C373 H425 0.929 . S
H374 C368 0.930 . S
H375 C371 0.930 . S
C376 N377 1.314 . S
C376 C378 1.353 . S
C376 H382 0.930 . S
N377 Li353 1.990 . S
N377 C376 1.314 . S
N377 C380 1.279 . S
C378 C376 1.353 . S
C378 C381 1.348 . S
C378 H426 0.929 . S
C379 C380 1.358 . S
C379 C381 1.356 . S
C379 H427 0.930 . S
C380 N377 1.279 . S
C380 C379 1.358 . S
C380 H383 0.930 . S
C381 C378 1.348 . S
C381 C379 1.356 . S
H382 C376 0.930 . S
H383 C380 0.930 . S
C384 C386 1.348 . S
C384 C387 1.356 . S
C384 O414 1.325 . S
N385 C388 1.314 . S
N385 C389 1.279 . S
C386 C384 1.348 . S
C386 C388 1.353 . S
C386 H428 0.929 . S
C387 C384 1.356 . S
C387 C389 1.358 . S
C387 H429 0.930 . S
C388 N385 1.314 . S
C388 C386 1.353 . S
C388 H430 0.930 . S
C389 N385 1.279 . S
C389 C387 1.358 . S
C389 H431 0.930 . S
C390 C391 1.343 1_554 S
C390 C392 1.359 . S
C390 O415 1.326 . S
C391 C390 1.343 1_556 S
C391 C393 1.353 . S
C391 H432 0.929 . S
C392 C390 1.359 . S
C392 C394 1.358 . S
C392 H433 0.930 . S
C393 C391 1.353 . S
C393 N395 1.314 . S
C393 H434 0.930 . S
C394 C392 1.358 . S
C394 N395 1.279 1_554 S
C394 H435 0.930 . S
N395 C393 1.314 . S
N395 C394 1.279 1_556 S
C396 C398 1.353 . S
C396 N399 1.314 . S
C396 H402 0.930 . S
C397 N399 1.279 . S
C397 C400 1.358 . S
C397 H403 0.930 . S
C398 C396 1.353 . S
C398 C401 1.348 . S
C398 H436 0.929 . S
N399 Li354 1.990 . S
N399 C396 1.314 . S
N399 C397 1.279 . S
C400 C397 1.358 . S
C400 C401 1.356 . S
C400 H437 0.930 . S
C401 C398 1.348 . S
C401 C400 1.356 . S
H402 C396 0.930 . S
H403 C397 0.930 . S
C404 N405 1.309 1_554 S
C404 C406 1.349 1_554 S
C404 H410 0.930 . S
N405 Li355 1.986 1_556 S
N405 C404 1.309 1_556 S
N405 C408 1.292 . S
C406 C404 1.349 1_556 S
C406 C409 1.357 . S
C406 H438 0.924 1_556 S
C407 C408 1.358 . S
C407 C409 1.356 . S
C407 H439 0.930 . S
C408 N405 1.292 . S
C408 C407 1.358 . S
C408 H411 0.930 . S
C409 C406 1.357 . S
C409 C407 1.356 . S
H410 C404 0.930 . S
H411 C408 0.930 . S
O412 Li352 1.956 . S
O412 Li353 1.970 . S
O412 Li354 1.961 1_554 S
O412 C356 1.325 . S
O413 Li352 1.970 . S
O413 Li353 1.956 . S
O413 Li355 1.961 . S
O413 C362 1.325 . S
O414 Li352 1.961 1_556 S
O414 Li354 1.956 . S
O414 Li355 1.970 1_556 S
O414 C384 1.325 . S
O415 Li353 1.961 . S
O415 Li354 1.970 1_554 S
O415 Li355 1.956 . S
O415 C390 1.326 . S
H416 C358 0.929 . S
H417 C359 0.930 1_556 S
H418 C360 0.930 . S
H419 C361 0.930 . S
H420 C363 0.930 . S
H421 C365 0.929 . S
H422 C366 0.930 . S
H423 C367 0.930 . S
H424 C370 0.930 . S
H425 C373 0.929 . S
H426 C378 0.929 . S
H427 C379 0.930 . S
H428 C386 0.929 . S
H429 C387 0.930 . S
H430 C388 0.930 . S
H431 C389 0.930 . S
H432 C391 0.929 . S
H433 C392 0.930 . S
H434 C393 0.930 . S
H435 C394 0.930 . S
H436 C398 0.929 . S
H437 C400 0.930 . S
H438 C406 0.924 1_554 S
H439 C407 0.930 . S
Li440 N457 1.990 . S
Li440 O500 1.956 . S
Li440 O501 1.970 1_565 S
Li440 O502 1.961 1_554 S
Li441 N465 1.990 . S
Li441 O500 1.970 1_545 S
Li441 O501 1.956 . S
Li441 O503 1.961 . S
Li442 N487 1.990 . S
Li442 O500 1.961 1_556 S
Li442 O502 1.956 . S
Li442 O503 1.970 1_566 S
Li443 N493 1.990 . S
Li443 O501 1.961 . S
Li443 O502 1.970 1_544 S
Li443 O503 1.956 . S
C444 C446 1.348 . S
C444 C447 1.356 . S
C444 O500 1.325 . S
N445 C448 1.314 . S
N445 C449 1.279 . S
C446 C444 1.348 . S
C446 C448 1.353 . S
C446 H504 0.929 . S
C447 C444 1.356 . S
C447 C449 1.358 . S
C447 H505 0.930 1_554 S
C448 N445 1.314 . S
C448 C446 1.353 . S
C448 H506 0.930 . S
C449 N445 1.279 . S
C449 C447 1.358 . S
C449 H507 0.906 1_554 S
C450 C453 1.348 1_545 S
C450 C454 1.356 . S
C450 O501 1.325 . S
C451 N452 1.279 . S
C451 C454 1.358 . S
C451 H508 0.930 . S
N452 C451 1.279 . S
N452 C455 1.266 1_545 S
C453 C450 1.348 1_565 S
C453 C455 1.351 . S
C453 H509 0.929 . S
C454 C450 1.356 . S
C454 C451 1.358 . S
C454 H510 0.930 . S
C455 N452 1.266 1_565 S
C455 C453 1.351 . S
C455 H511 0.990 . S
C456 N457 1.314 . S
C456 C461 1.353 . S
C456 H462 0.930 . S
N457 Li440 1.990 . S
N457 C456 1.314 . S
N457 C459 1.279 . S
C458 C459 1.358 . S
C458 C460 1.356 . S
C458 H512 0.930 . S
C459 N457 1.279 . S
C459 C458 1.358 . S
C459 H463 0.930 . S
C460 C458 1.356 . S
C460 C461 1.348 . S
C461 C456 1.353 . S
C461 C460 1.348 . S
C461 H513 0.929 . S
H462 C456 0.930 . S
H463 C459 0.930 . S
C464 N465 1.314 . S
C464 C466 1.353 . S
C464 H470 0.930 . S
N465 Li441 1.990 . S
N465 C464 1.314 . S
N465 C468 1.279 . S
C466 C464 1.353 . S
C466 C469 1.348 . S
C466 H514 0.929 . S
C467 C468 1.358 . S
C467 C469 1.356 . S
C467 H515 0.930 . S
C468 N465 1.279 . S
C468 C467 1.358 . S
C468 H471 0.930 . S
C469 C466 1.348 . S
C469 C467 1.356 . S
H470 C464 0.930 . S
H471 C468 0.930 . S
C472 C474 1.348 1_565 S
C472 C475 1.356 . S
C472 O502 1.325 . S
N473 C476 1.254 1_565 S
N473 C477 1.279 . S
C474 C472 1.348 1_545 S
C474 C476 1.389 . S
C474 H516 0.929 . S
C475 C472 1.356 . S
C475 C477 1.358 . S
C475 H517 0.930 . S
C476 N473 1.254 1_545 S
C476 C474 1.389 . S
C476 H518 0.961 . S
C477 N473 1.279 . S
C477 C475 1.358 . S
C477 H519 0.930 . S
C478 C479 1.348 1_554 S
C478 C480 1.356 . S
C478 O503 1.325 . S
C479 C478 1.348 1_556 S
C479 C481 1.353 . S
C479 H520 0.929 . S
C480 C478 1.356 . S
C480 C482 1.358 . S
C480 H521 0.930 . S
C481 C479 1.353 . S
C481 N483 1.314 . S
C481 H522 0.930 . S
C482 C480 1.358 . S
C482 N483 1.279 1_554 S
C482 H523 0.930 . S
N483 C481 1.314 . S
N483 C482 1.279 1_556 S
C484 C486 1.353 . S
C484 N487 1.314 . S
C484 H490 0.930 . S
C485 N487 1.279 . S
C485 C488 1.358 . S
C485 H491 0.930 . S
C486 C484 1.353 . S
C486 C489 1.348 . S
C486 H524 0.929 . S
N487 Li442 1.990 . S
N487 C484 1.314 . S
N487 C485 1.279 . S
C488 C485 1.358 . S
C488 C489 1.356 . S
C488 H525 0.930 . S
C489 C486 1.348 . S
C489 C488 1.356 . S
H490 C484 0.930 . S
H491 C485 0.930 . S
C492 N493 1.314 . S
C492 C494 1.353 . S
C492 H498 0.930 . S
N493 Li443 1.990 . S
N493 C492 1.314 . S
N493 C496 1.279 1_554 S
C494 C492 1.353 . S
C494 C497 1.348 1_554 S
C494 H526 0.929 . S
C495 C496 1.358 . S
C495 C497 1.356 . S
C495 H527 0.930 . S
C496 N493 1.279 1_556 S
C496 C495 1.358 . S
C496 H499 0.930 . S
C497 C494 1.348 1_556 S
C497 C495 1.356 . S
H498 C492 0.930 . S
H499 C496 0.930 . S
O500 Li440 1.956 . S
O500 Li441 1.970 1_565 S
O500 Li442 1.961 1_554 S
O500 C444 1.325 . S
O501 Li440 1.970 1_545 S
O501 Li441 1.956 . S
O501 Li443 1.961 . S
O501 C450 1.325 . S
O502 Li440 1.961 1_556 S
O502 Li442 1.956 . S
O502 Li443 1.970 1_566 S
O502 C472 1.325 . S
O503 Li441 1.961 . S
O503 Li442 1.970 1_544 S
O503 Li443 1.956 . S
O503 C478 1.325 . S
H504 C446 0.929 . S
H505 C447 0.930 1_556 S
H506 C448 0.930 . S
H507 C449 0.906 1_556 S
H508 C451 0.930 . S
H509 C453 0.929 . S
H510 C454 0.930 . S
H511 C455 0.990 . S
H512 C458 0.930 . S
H513 C461 0.929 . S
H514 C466 0.929 . S
H515 C467 0.930 . S
H516 C474 0.929 . S
H517 C475 0.930 . S
H518 C476 0.961 . S
H519 C477 0.930 . S
H520 C479 0.929 . S
H521 C480 0.930 . S
H522 C481 0.930 . S
H523 C482 0.930 . S
H524 C486 0.929 . S
H525 C488 0.930 . S
H526 C494 0.929 . S
H527 C495 0.930 . S
Li528 N545 1.990 . S
Li528 O588 1.956 . S
Li528 O589 1.970 . S
Li528 O590 1.961 . S
Li529 N553 1.990 . S
Li529 O588 1.970 . S
Li529 O589 1.956 . S
Li529 O591 1.961 . S
Li530 N575 1.990 . S
Li530 O588 1.961 . S
Li530 O590 1.956 . S
Li530 O591 1.970 . S
Li531 N581 1.990 . S
Li531 O589 1.961 . S
Li531 O590 1.970 . S
Li531 O591 1.956 . S
C532 C534 1.348 . S
C532 C535 1.356 . S
C532 O588 1.325 . S
N533 C536 1.314 . S
N533 C537 1.279 . S
C534 C532 1.348 . S
C534 C536 1.353 . S
C534 H592 0.929 . S
C535 C532 1.356 . S
C535 C537 1.358 . S
C535 H593 0.930 . S
C536 N533 1.314 . S
C536 C534 1.353 . S
C536 H594 0.930 . S
C537 N533 1.279 . S
C537 C535 1.358 . S
C537 H595 0.930 . S
C538 C541 1.348 . S
C538 C542 1.356 . S
C538 O589 1.325 . S
C539 N540 1.279 . S
C539 C542 1.358 . S
C539 H596 0.930 . S
N540 C539 1.279 . S
N540 C543 1.314 . S
C541 C538 1.348 . S
C541 C543 1.353 . S
C541 H597 0.929 . S
C542 C538 1.356 . S
C542 C539 1.358 . S
C542 H598 0.930 . S
C543 N540 1.314 . S
C543 C541 1.353 . S
C543 H599 0.930 . S
C544 N545 1.314 . S
C544 C549 1.353 . S
C544 H550 0.930 . S
N545 Li528 1.990 . S
N545 C544 1.314 . S
N545 C547 1.279 . S
C546 C547 1.358 . S
C546 C548 1.356 . S
C546 H600 0.930 . S
C547 N545 1.279 . S
C547 C546 1.358 . S
C547 H551 0.930 . S
C548 C546 1.356 . S
C548 C549 1.348 . S
C549 C544 1.353 . S
C549 C548 1.348 . S
C549 H601 0.929 . S
H550 C544 0.930 . S
H551 C547 0.930 . S
C552 N553 1.314 . S
C552 C554 1.353 . S
C552 H558 0.930 . S
N553 Li529 1.990 . S
N553 C552 1.314 . S
N553 C556 1.279 . S
C554 C552 1.353 . S
C554 C557 1.348 . S
C554 H602 0.929 . S
C555 C556 1.358 . S
C555 C557 1.356 . S
C555 H603 0.930 . S
C556 N553 1.279 . S
C556 C555 1.358 . S
C556 H559 0.930 . S
C557 C554 1.348 . S
C557 C555 1.356 . S
H558 C552 0.930 . S
H559 C556 0.930 . S
C560 C562 1.348 . S
C560 C563 1.356 . S
C560 O590 1.325 . S
N561 C564 1.314 . S
N561 C565 1.279 . S
C562 C560 1.348 . S
C562 C564 1.353 . S
C562 H604 0.929 . S
C563 C560 1.356 . S
C563 C565 1.358 . S
C563 H605 0.930 . S
C564 N561 1.314 . S
C564 C562 1.353 . S
C564 H606 0.930 . S
C565 N561 1.279 . S
C565 C563 1.358 . S
C565 H607 0.930 . S
C566 C567 1.348 . S
C566 C568 1.356 . S
C566 O591 1.325 . S
C567 C566 1.348 . S
C567 C569 1.353 . S
C567 H608 0.929 . S
C568 C566 1.356 . S
C568 C570 1.358 . S
C568 H609 0.930 . S
C569 C567 1.353 . S
C569 N571 1.314 . S
C569 H610 0.930 . S
C570 C568 1.358 . S
C570 N571 1.279 . S
C570 H611 0.930 . S
N571 C569 1.314 . S
N571 C570 1.279 . S
C572 C574 1.353 . S
C572 N575 1.314 . S
C572 H578 0.930 . S
C573 N575 1.279 . S
C573 C576 1.358 . S
C573 H579 0.930 . S
C574 C572 1.353 . S
C574 C577 1.348 . S
C574 H612 0.929 . S
N575 Li530 1.990 . S
N575 C572 1.314 . S
N575 C573 1.279 . S
C576 C573 1.358 . S
C576 C577 1.356 . S
C576 H613 0.930 . S
C577 C574 1.348 . S
C577 C576 1.356 . S
H578 C572 0.930 . S
H579 C573 0.930 . S
C580 N581 1.314 . S
C580 C582 1.353 . S
C580 H586 0.930 . S
N581 Li531 1.990 . S
N581 C580 1.314 . S
N581 C584 1.279 . S
C582 C580 1.353 . S
C582 C585 1.348 . S
C582 H614 0.929 . S
C583 C584 1.358 . S
C583 C585 1.356 . S
C583 H615 0.930 . S
C584 N581 1.279 . S
C584 C583 1.358 . S
C584 H587 0.930 . S
C585 C582 1.348 . S
C585 C583 1.356 . S
H586 C580 0.930 . S
H587 C584 0.930 . S
O588 Li528 1.956 . S
O588 Li529 1.970 . S
O588 Li530 1.961 . S
O588 C532 1.325 . S
O589 Li528 1.970 . S
O589 Li529 1.956 . S
O589 Li531 1.961 . S
O589 C538 1.325 . S
O590 Li528 1.961 . S
O590 Li530 1.956 . S
O590 Li531 1.970 . S
O590 C560 1.325 . S
O591 Li529 1.961 . S
O591 Li530 1.970 . S
O591 Li531 1.956 . S
O591 C566 1.325 . S
H592 C534 0.929 . S
H593 C535 0.930 . S
H594 C536 0.930 . S
H595 C537 0.930 . S
H596 C539 0.930 . S
H597 C541 0.929 . S
H598 C542 0.930 . S
H599 C543 0.930 . S
H600 C546 0.930 . S
H601 C549 0.929 . S
H602 C554 0.929 . S
H603 C555 0.930 . S
H604 C562 0.929 . S
H605 C563 0.930 . S
H606 C564 0.930 . S
H607 C565 0.930 . S
H608 C567 0.929 . S
H609 C568 0.930 . S
H610 C569 0.930 . S
H611 C570 0.930 . S
H612 C574 0.929 . S
H613 C576 0.930 . S
H614 C582 0.929 . S
H615 C583 0.930 . S
Li616 N633 1.990 . S
Li616 O676 1.956 . S
Li616 O677 1.970 . S
Li616 O678 1.961 . S
Li617 N641 1.990 . S
Li617 O676 1.970 . S
Li617 O677 1.956 . S
Li617 O679 1.961 . S
Li618 N663 1.990 1_565 S
Li618 O676 1.961 . S
Li618 O678 1.956 . S
Li618 O679 1.970 . S
Li619 N669 1.990 . S
Li619 O677 1.961 . S
Li619 O678 1.970 . S
Li619 O679 1.956 . S
C620 C622 1.348 . S
C620 C623 1.356 . S
C620 O676 1.325 . S
N621 C624 1.314 . S
N621 C625 1.279 . S
C622 C620 1.348 . S
C622 C624 1.353 . S
C622 H680 0.929 . S
C623 C620 1.356 . S
C623 C625 1.358 . S
C623 H681 0.930 . S
C624 N621 1.314 . S
C624 C622 1.353 . S
C624 H682 0.930 . S
C625 N621 1.279 . S
C625 C623 1.358 . S
C625 H683 0.930 . S
C626 C629 1.348 . S
C626 C630 1.356 . S
C626 O677 1.325 . S
C627 N628 1.279 . S
C627 C630 1.358 . S
C627 H684 0.930 . S
N628 C627 1.279 . S
N628 C631 1.314 . S
C629 C626 1.348 . S
C629 C631 1.353 . S
C629 H685 0.929 . S
C630 C626 1.356 . S
C630 C627 1.358 . S
C630 H686 0.930 . S
C631 N628 1.314 . S
C631 C629 1.353 . S
C631 H687 0.930 . S
C632 N633 1.314 . S
C632 C637 1.353 . S
C632 H638 0.930 . S
N633 Li616 1.990 . S
N633 C632 1.314 . S
N633 C635 1.279 . S
C634 C635 1.358 . S
C634 C636 1.356 . S
C634 H688 0.930 . S
C635 N633 1.279 . S
C635 C634 1.358 . S
C635 H639 0.930 . S
C636 C634 1.356 . S
C636 C637 1.348 . S
C637 C632 1.353 . S
C637 C636 1.348 . S
C637 H689 0.929 . S
H638 C632 0.930 . S
H639 C635 0.930 . S
C640 N641 1.314 . S
C640 C642 1.353 . S
C640 H646 0.930 . S
N641 Li617 1.990 . S
N641 C640 1.314 . S
N641 C644 1.279 . S
C642 C640 1.353 . S
C642 C645 1.348 . S
C642 H690 0.929 . S
C643 C644 1.358 . S
C643 C645 1.356 . S
C643 H691 0.930 . S
C644 N641 1.279 . S
C644 C643 1.358 . S
C644 H647 0.930 . S
C645 C642 1.348 . S
C645 C643 1.356 . S
H646 C640 0.930 . S
H647 C644 0.930 . S
C648 C650 1.348 . S
C648 C651 1.356 . S
C648 O678 1.325 . S
N649 C652 1.314 . S
N649 C653 1.279 . S
C650 C648 1.348 . S
C650 C652 1.353 1_565 S
C650 H692 0.929 . S
C651 C648 1.356 . S
C651 C653 1.358 1_565 S
C651 H693 0.930 . S
C652 N649 1.314 . S
C652 C650 1.353 1_545 S
C652 H694 0.930 . S
C653 N649 1.279 . S
C653 C651 1.358 1_545 S
C653 H695 0.930 . S
C654 C655 1.348 . S
C654 C656 1.356 . S
C654 O679 1.325 . S
C655 C654 1.348 . S
C655 C657 1.353 1_565 S
C655 H696 0.929 1_565 S
C656 C654 1.356 . S
C656 C658 1.358 . S
C656 H697 0.930 . S
C657 C655 1.353 1_545 S
C657 N659 1.314 1_545 S
C657 H698 0.930 . S
C658 C656 1.358 . S
C658 N659 1.279 . S
C658 H699 0.930 . S
N659 C657 1.314 1_565 S
N659 C658 1.279 . S
C660 C662 1.353 . S
C660 N663 1.314 . S
C660 H666 0.930 . S
C661 N663 1.279 . S
C661 C664 1.358 . S
C661 H667 0.930 . S
C662 C660 1.353 . S
C662 C665 1.348 . S
C662 H700 0.929 . S
N663 Li618 1.990 1_545 S
N663 C660 1.314 . S
N663 C661 1.279 . S
C664 C661 1.358 . S
C664 C665 1.356 . S
C664 H701 0.930 . S
C665 C662 1.348 . S
C665 C664 1.356 . S
H666 C660 0.930 . S
H667 C661 0.930 . S
C668 N669 1.314 . S
C668 C670 1.353 . S
C668 H674 0.930 . S
N669 Li619 1.990 . S
N669 C668 1.314 . S
N669 C672 1.279 . S
C670 C668 1.353 . S
C670 C673 1.348 . S
C670 H702 0.929 . S
C671 C672 1.358 . S
C671 C673 1.356 . S
C671 H703 0.930 . S
C672 N669 1.279 . S
C672 C671 1.358 . S
C672 H675 0.930 . S
C673 C670 1.348 . S
C673 C671 1.356 . S
H674 C668 0.930 . S
H675 C672 0.930 . S
O676 Li616 1.956 . S
O676 Li617 1.970 . S
O676 Li618 1.961 . S
O676 C620 1.325 . S
O677 Li616 1.970 . S
O677 Li617 1.956 . S
O677 Li619 1.961 . S
O677 C626 1.325 . S
O678 Li616 1.961 . S
O678 Li618 1.956 . S
O678 Li619 1.970 . S
O678 C648 1.325 . S
O679 Li617 1.961 . S
O679 Li618 1.970 . S
O679 Li619 1.956 . S
O679 C654 1.325 . S
H680 C622 0.929 . S
H681 C623 0.930 . S
H682 C624 0.930 . S
H683 C625 0.930 . S
H684 C627 0.930 . S
H685 C629 0.929 . S
H686 C630 0.930 . S
H687 C631 0.930 . S
H688 C634 0.930 . S
H689 C637 0.929 . S
H690 C642 0.929 . S
H691 C643 0.930 . S
H692 C650 0.929 . S
H693 C651 0.930 . S
H694 C652 0.930 . S
H695 C653 0.930 . S
H696 C655 0.929 1_545 S
H697 C656 0.930 . S
H698 C657 0.930 . S
H699 C658 0.930 . S
H700 C662 0.929 . S
H701 C664 0.930 . S
H702 C670 0.929 . S
H703 C671 0.930 . S
Li704 N721 1.990 . S
Li704 O764 1.956 . S
Li704 O765 1.970 . S
Li704 O766 1.961 . S
Li705 N729 1.990 . S
Li705 O764 1.970 . S
Li705 O765 1.956 . S
Li705 O767 1.961 . S
Li706 N751 1.990 1_455 S
Li706 O764 1.961 . S
Li706 O766 1.956 . S
Li706 O767 1.970 . S
Li707 N757 1.990 . S
Li707 O765 1.961 . S
Li707 O766 1.970 . S
Li707 O767 1.956 . S
C708 C710 1.348 . S
C708 C711 1.356 . S
C708 O764 1.325 . S
N709 C712 1.314 . S
N709 C713 1.279 . S
C710 C708 1.348 . S
C710 C712 1.353 . S
C710 H768 0.929 . S
C711 C708 1.356 . S
C711 C713 1.358 . S
C711 H769 0.930 . S
C712 N709 1.314 . S
C712 C710 1.353 . S
C712 H770 0.930 . S
C713 N709 1.279 . S
C713 C711 1.358 . S
C713 H771 0.930 . S
C714 C717 1.348 . S
C714 C718 1.356 . S
C714 O765 1.325 . S
C715 N716 1.279 . S
C715 C718 1.358 . S
C715 H772 0.930 . S
N716 C715 1.279 . S
N716 C719 1.314 . S
C717 C714 1.348 . S
C717 C719 1.353 . S
C717 H773 0.929 . S
C718 C714 1.356 . S
C718 C715 1.358 . S
C718 H774 0.930 . S
C719 N716 1.314 . S
C719 C717 1.353 . S
C719 H775 0.930 . S
C720 N721 1.314 . S
C720 C725 1.353 . S
C720 H726 0.930 . S
N721 Li704 1.990 . S
N721 C720 1.314 . S
N721 C723 1.279 . S
C722 C723 1.358 . S
C722 C724 1.356 . S
C722 H776 0.930 . S
C723 N721 1.279 . S
C723 C722 1.358 . S
C723 H727 0.930 . S
C724 C722 1.356 . S
C724 C725 1.348 . S
C725 C720 1.353 . S
C725 C724 1.348 . S
C725 H777 0.929 . S
H726 C720 0.930 . S
H727 C723 0.930 . S
C728 N729 1.314 . S
C728 C730 1.353 . S
C728 H734 0.930 . S
N729 Li705 1.990 . S
N729 C728 1.314 . S
N729 C732 1.279 . S
C730 C728 1.353 . S
C730 C733 1.348 . S
C730 H778 0.929 . S
C731 C732 1.358 . S
C731 C733 1.356 . S
C731 H779 0.930 . S
C732 N729 1.279 . S
C732 C731 1.358 . S
C732 H735 0.930 . S
C733 C730 1.348 . S
C733 C731 1.356 . S
H734 C728 0.930 . S
H735 C732 0.930 . S
C736 C738 1.348 . S
C736 C739 1.356 . S
C736 O766 1.325 . S
N737 C740 1.314 . S
N737 C741 1.279 . S
C738 C736 1.348 . S
C738 C740 1.353 1_455 S
C738 H780 0.929 . S
C739 C736 1.356 . S
C739 C741 1.358 1_455 S
C739 H781 0.930 . S
C740 N737 1.314 . S
C740 C738 1.353 1_655 S
C740 H782 0.930 . S
C741 N737 1.279 . S
C741 C739 1.358 1_655 S
C741 H783 0.930 . S
C742 C743 1.348 . S
C742 C744 1.356 . S
C742 O767 1.325 . S
C743 C742 1.348 . S
C743 C745 1.353 1_455 S
C743 H784 0.929 1_455 S
C744 C742 1.356 . S
C744 C746 1.358 . S
C744 H785 0.930 . S
C745 C743 1.353 1_655 S
C745 N747 1.314 1_655 S
C745 H786 0.930 . S
C746 C744 1.358 . S
C746 N747 1.279 . S
C746 H787 0.930 . S
N747 C745 1.314 1_455 S
N747 C746 1.279 . S
C748 C750 1.353 . S
C748 N751 1.314 . S
C748 H754 0.973 . S
C749 N751 1.279 . S
C749 C752 1.358 . S
C749 H755 0.930 . S
C750 C748 1.353 . S
C750 C753 1.348 . S
C750 H788 0.929 . S
N751 Li706 1.990 1_655 S
N751 C748 1.314 . S
N751 C749 1.279 . S
C752 C749 1.358 . S
C752 C753 1.356 . S
C752 H789 0.930 . S
C753 C750 1.348 . S
C753 C752 1.356 . S
H754 C748 0.973 . S
H755 C749 0.930 . S
C756 N757 1.314 . S
C756 C758 1.353 . S
C756 H762 0.930 . S
N757 Li707 1.990 . S
N757 C756 1.314 . S
N757 C760 1.279 . S
C758 C756 1.353 . S
C758 C761 1.348 . S
C758 H790 0.929 . S
C759 C760 1.358 . S
C759 C761 1.356 . S
C759 H791 0.930 . S
C760 N757 1.279 . S
C760 C759 1.358 . S
C760 H763 0.930 . S
C761 C758 1.348 . S
C761 C759 1.356 . S
H762 C756 0.930 . S
H763 C760 0.930 . S
O764 Li704 1.956 . S
O764 Li705 1.970 . S
O764 Li706 1.961 . S
O764 C708 1.325 . S
O765 Li704 1.970 . S
O765 Li705 1.956 . S
O765 Li707 1.961 . S
O765 C714 1.325 . S
O766 Li704 1.961 . S
O766 Li706 1.956 . S
O766 Li707 1.970 . S
O766 C736 1.325 . S
O767 Li705 1.961 . S
O767 Li706 1.970 . S
O767 Li707 1.956 . S
O767 C742 1.325 . S
H768 C710 0.929 . S
H769 C711 0.930 . S
H770 C712 0.930 . S
H771 C713 0.930 . S
H772 C715 0.930 . S
H773 C717 0.929 . S
H774 C718 0.930 . S
H775 C719 0.930 . S
H776 C722 0.930 . S
H777 C725 0.929 . S
H778 C730 0.929 . S
H779 C731 0.930 . S
H780 C738 0.929 . S
H781 C739 0.930 . S
H782 C740 0.930 . S
H783 C741 0.930 . S
H784 C743 0.929 1_655 S
H785 C744 0.930 . S
H786 C745 0.930 . S
H787 C746 0.930 . S
H788 C750 0.929 . S
H789 C752 0.930 . S
H790 C758 0.929 . S
H791 C759 0.930 . S
Li792 N809 1.990 1_565 S
Li792 O852 1.956 . S
Li792 O853 1.970 . S
Li792 O854 1.961 . S
Li793 N817 1.990 . S
Li793 O852 1.970 . S
Li793 O853 1.956 . S
Li793 O855 1.961 . S
Li794 N839 1.990 . S
Li794 O852 1.961 . S
Li794 O854 1.956 . S
Li794 O855 1.970 . S
Li795 N845 1.990 . S
Li795 O853 1.961 . S
Li795 O854 1.970 . S
Li795 O855 1.956 . S
C796 C798 1.348 . S
C796 C799 1.356 . S
C796 O852 1.325 . S
N797 C800 1.314 . S
N797 C801 1.279 . S
C798 C796 1.348 . S
C798 C800 1.353 . S
C798 H856 0.929 . S
C799 C796 1.356 . S
C799 C801 1.358 . S
C799 H857 0.930 . S
C800 N797 1.314 . S
C800 C798 1.353 . S
C800 H858 0.930 . S
C801 N797 1.279 . S
C801 C799 1.358 . S
C801 H859 0.930 . S
C802 C805 1.348 . S
C802 C806 1.356 . S
C802 O853 1.325 . S
C803 N804 1.279 . S
C803 C806 1.358 . S
C803 H860 0.930 . S
N804 C803 1.279 . S
N804 C807 1.314 . S
C805 C802 1.348 . S
C805 C807 1.353 . S
C805 H861 0.929 . S
C806 C802 1.356 . S
C806 C803 1.358 . S
C806 H862 0.930 . S
C807 N804 1.314 . S
C807 C805 1.353 . S
C807 H863 0.930 1_565 S
C808 N809 1.314 . S
C808 C813 1.353 . S
C808 H814 0.930 . S
N809 Li792 1.990 1_545 S
N809 C808 1.314 . S
N809 C811 1.279 . S
C810 C811 1.358 . S
C810 C812 1.356 . S
C810 H864 0.930 . S
C811 N809 1.279 . S
C811 C810 1.358 . S
C811 H815 0.950 . S
C812 C810 1.356 . S
C812 C813 1.348 . S
C813 C808 1.353 . S
C813 C812 1.348 . S
C813 H865 0.929 . S
H814 C808 0.930 . S
H815 C811 0.950 . S
C816 N817 1.314 . S
C816 C818 1.353 . S
C816 H822 0.930 . S
N817 Li793 1.990 . S
N817 C816 1.314 . S
N817 C820 1.279 . S
C818 C816 1.353 . S
C818 C821 1.348 . S
C818 H866 0.929 . S
C819 C820 1.358 . S
C819 C821 1.356 . S
C819 H867 0.930 . S
C820 N817 1.279 . S
C820 C819 1.358 . S
C820 H823 0.930 . S
C821 C818 1.348 . S
C821 C819 1.356 . S
H822 C816 0.930 . S
H823 C820 0.930 . S
C824 C826 1.348 . S
C824 C827 1.366 . S
C824 O854 1.325 . S
N825 C828 1.313 . S
N825 C829 1.279 . S
C826 C824 1.348 . S
C826 C828 1.356 1_565 S
C826 H868 0.929 . S
C827 C824 1.366 . S
C827 C829 1.318 1_565 S
C827 H869 0.920 . S
C828 N825 1.313 . S
C828 C826 1.356 1_545 S
C828 H870 0.925 . S
C829 N825 1.279 . S
C829 C827 1.318 1_545 S
C829 H871 0.930 . S
C830 C831 1.348 . S
C830 C832 1.356 . S
C830 O855 1.325 . S
C831 C830 1.348 . S
C831 C833 1.353 . S
C831 H872 0.929 . S
C832 C830 1.356 . S
C832 C834 1.358 . S
C832 H873 0.930 . S
C833 C831 1.353 . S
C833 N835 1.314 . S
C833 H874 0.930 . S
C834 C832 1.358 . S
C834 N835 1.279 . S
C834 H875 0.930 . S
N835 C833 1.314 . S
N835 C834 1.279 . S
C836 C838 1.353 . S
C836 N839 1.314 . S
C836 H842 0.930 . S
C837 N839 1.279 . S
C837 C840 1.358 . S
C837 H843 0.930 . S
C838 C836 1.353 . S
C838 C841 1.348 . S
C838 H876 0.929 . S
N839 Li794 1.990 . S
N839 C836 1.314 . S
N839 C837 1.279 . S
C840 C837 1.358 . S
C840 C841 1.356 . S
C840 H877 0.930 . S
C841 C838 1.348 . S
C841 C840 1.356 . S
H842 C836 0.930 . S
H843 C837 0.930 . S
C844 N845 1.314 . S
C844 C846 1.353 . S
C844 H850 0.930 . S
N845 Li795 1.990 . S
N845 C844 1.314 . S
N845 C848 1.279 . S
C846 C844 1.353 . S
C846 C849 1.348 . S
C846 H878 0.929 . S
C847 C848 1.358 . S
C847 C849 1.356 . S
C847 H879 0.930 . S
C848 N845 1.279 . S
C848 C847 1.358 . S
C848 H851 0.930 . S
C849 C846 1.348 . S
C849 C847 1.356 . S
H850 C844 0.930 . S
H851 C848 0.930 . S
O852 Li792 1.956 . S
O852 Li793 1.970 . S
O852 Li794 1.961 . S
O852 C796 1.325 . S
O853 Li792 1.970 . S
O853 Li793 1.956 . S
O853 Li795 1.961 . S
O853 C802 1.325 . S
O854 Li792 1.961 . S
O854 Li794 1.956 . S
O854 Li795 1.970 . S
O854 C824 1.325 . S
O855 Li793 1.961 . S
O855 Li794 1.970 . S
O855 Li795 1.956 . S
O855 C830 1.325 . S
H856 C798 0.929 . S
H857 C799 0.930 . S
H858 C800 0.930 . S
H859 C801 0.930 . S
H860 C803 0.930 . S
H861 C805 0.929 . S
H862 C806 0.930 . S
H863 C807 0.930 1_545 S
H864 C810 0.930 . S
H865 C813 0.929 . S
H866 C818 0.929 . S
H867 C819 0.930 . S
H868 C826 0.929 . S
H869 C827 0.920 . S
H870 C828 0.925 . S
H871 C829 0.930 . S
H872 C831 0.929 . S
H873 C832 0.930 . S
H874 C833 0.930 . S
H875 C834 0.930 . S
H876 C838 0.929 . S
H877 C840 0.930 . S
H878 C846 0.929 . S
H879 C847 0.930 . S
Li880 N897 1.990 . S
Li880 O940 1.956 . S
Li880 O941 1.970 . S
Li880 O942 1.961 . S
Li881 N905 1.990 1_455 S
Li881 O940 1.970 . S
Li881 O941 1.956 . S
Li881 O943 1.961 . S
Li882 N927 1.990 . S
Li882 O940 1.961 . S
Li882 O942 1.956 . S
Li882 O943 1.970 . S
Li883 N933 1.990 . S
Li883 O941 1.961 . S
Li883 O942 1.970 . S
Li883 O943 1.956 . S
C884 C886 1.348 . S
C884 C887 1.356 . S
C884 O940 1.325 . S
N885 C888 1.314 . S
N885 C889 1.279 . S
C886 C884 1.348 . S
C886 C888 1.353 . S
C886 H944 0.929 . S
C887 C884 1.356 . S
C887 C889 1.358 . S
C887 H945 0.930 . S
C888 N885 1.314 . S
C888 C886 1.353 . S
C888 H946 0.930 1_455 S
C889 N885 1.279 . S
C889 C887 1.358 . S
C889 H947 0.930 . S
C890 C893 1.348 . S
C890 C894 1.356 . S
C890 O941 1.325 . S
C891 N892 1.279 . S
C891 C894 1.358 . S
C891 H948 0.930 . S
N892 C891 1.279 . S
N892 C895 1.314 . S
C893 C890 1.348 . S
C893 C895 1.353 . S
C893 H949 0.929 . S
C894 C890 1.356 . S
C894 C891 1.358 . S
C894 H950 0.930 . S
C895 N892 1.314 . S
C895 C893 1.353 . S
C895 H951 0.930 . S
C896 N897 1.314 . S
C896 C901 1.353 . S
C896 H902 0.930 . S
N897 Li880 1.990 . S
N897 C896 1.314 . S
N897 C899 1.279 . S
C898 C899 1.358 . S
C898 C900 1.356 . S
C898 H952 0.930 . S
C899 N897 1.279 . S
C899 C898 1.358 . S
C899 H903 0.930 . S
C900 C898 1.356 . S
C900 C901 1.348 . S
C901 C896 1.353 . S
C901 C900 1.348 . S
C901 H953 0.929 . S
H902 C896 0.930 . S
H903 C899 0.930 . S
C904 N905 1.314 . S
C904 C906 1.353 . S
C904 H910 0.930 . S
N905 Li881 1.990 1_655 S
N905 C904 1.314 . S
N905 C908 1.279 . S
C906 C904 1.353 . S
C906 C909 1.348 . S
C906 H954 0.929 . S
C907 C908 1.358 . S
C907 C909 1.356 . S
C907 H955 0.930 . S
C908 N905 1.279 . S
C908 C907 1.358 . S
C908 H911 0.939 . S
C909 C906 1.348 . S
C909 C907 1.356 . S
H910 C904 0.930 . S
H911 C908 0.939 . S
C912 C914 1.348 . S
C912 C915 1.356 . S
C912 O942 1.325 . S
N913 C916 1.314 . S
N913 C917 1.279 . S
C914 C912 1.348 . S
C914 C916 1.353 . S
C914 H956 0.929 . S
C915 C912 1.356 . S
C915 C917 1.358 . S
C915 H957 0.930 . S
C916 N913 1.314 . S
C916 C914 1.353 . S
C916 H958 0.930 . S
C917 N913 1.279 . S
C917 C915 1.358 . S
C917 H959 0.930 . S
C918 C919 1.348 . S
C918 C920 1.403 . S
C918 O943 1.325 . S
C919 C918 1.348 . S
C919 C921 1.342 1_455 S
C919 H960 0.929 . S
C920 C918 1.403 . S
C920 C922 1.335 1_455 S
C920 H961 0.940 . S
C921 C919 1.342 1_655 S
C921 N923 1.333 . S
C921 H962 0.935 . S
C922 C920 1.335 1_655 S
C922 N923 1.279 . S
C922 H963 0.930 . S
N923 C921 1.333 . S
N923 C922 1.279 . S
C924 C926 1.353 . S
C924 N927 1.314 . S
C924 H930 0.930 . S
C925 N927 1.279 . S
C925 C928 1.358 . S
C925 H931 0.930 . S
C926 C924 1.353 . S
C926 C929 1.348 . S
C926 H964 0.929 . S
N927 Li882 1.990 . S
N927 C924 1.314 . S
N927 C925 1.279 . S
C928 C925 1.358 . S
C928 C929 1.356 . S
C928 H965 0.930 . S
C929 C926 1.348 . S
C929 C928 1.356 . S
H930 C924 0.930 . S
H931 C925 0.930 . S
C932 N933 1.314 . S
C932 C934 1.353 . S
C932 H938 0.930 . S
N933 Li883 1.990 . S
N933 C932 1.314 . S
N933 C936 1.279 . S
C934 C932 1.353 . S
C934 C937 1.348 . S
C934 H966 0.929 . S
C935 C936 1.358 . S
C935 C937 1.356 . S
C935 H967 0.930 . S
C936 N933 1.279 . S
C936 C935 1.358 . S
C936 H939 0.930 . S
C937 C934 1.348 . S
C937 C935 1.356 . S
H938 C932 0.930 . S
H939 C936 0.930 . S
O940 Li880 1.956 . S
O940 Li881 1.970 . S
O940 Li882 1.961 . S
O940 C884 1.325 . S
O941 Li880 1.970 . S
O941 Li881 1.956 . S
O941 Li883 1.961 . S
O941 C890 1.325 . S
O942 Li880 1.961 . S
O942 Li882 1.956 . S
O942 Li883 1.970 . S
O942 C912 1.325 . S
O943 Li881 1.961 . S
O943 Li882 1.970 . S
O943 Li883 1.956 . S
O943 C918 1.325 . S
H944 C886 0.929 . S
H945 C887 0.930 . S
H946 C888 0.930 1_655 S
H947 C889 0.930 . S
H948 C891 0.930 . S
H949 C893 0.929 . S
H950 C894 0.930 . S
H951 C895 0.930 . S
H952 C898 0.930 . S
H953 C901 0.929 . S
H954 C906 0.929 . S
H955 C907 0.930 . S
H956 C914 0.929 . S
H957 C915 0.930 . S
H958 C916 0.930 . S
H959 C917 0.930 . S
H960 C919 0.929 . S
H961 C920 0.940 . S
H962 C921 0.935 . S
H963 C922 0.930 . S
H964 C926 0.929 . S
H965 C928 0.930 . S
H966 C934 0.929 . S
H967 C935 0.930 . S
Li968 N985 1.990 . S
Li968 O1028 1.956 . S
Li968 O1029 1.970 . S
Li968 O1030 1.961 . S
Li969 N993 1.990 . S
Li969 O1028 1.970 . S
Li969 O1029 1.956 . S
Li969 O1031 1.961 . S
Li970 N1015 1.990 . S
Li970 O1028 1.961 . S
Li970 O1030 1.956 . S
Li970 O1031 1.970 . S
Li971 N1021 1.990 . S
Li971 O1029 1.961 . S
Li971 O1030 1.970 . S
Li971 O1031 1.956 . S
C972 C974 1.348 . S
C972 C975 1.356 . S
C972 O1028 1.325 . S
N973 C976 1.314 . S
N973 C977 1.279 . S
C974 C972 1.348 . S
C974 C976 1.353 . S
C974 H1032 0.929 . S
C975 C972 1.356 . S
C975 C977 1.358 . S
C975 H1033 0.930 . S
C976 N973 1.314 . S
C976 C974 1.353 . S
C976 H1034 0.930 . S
C977 N973 1.279 . S
C977 C975 1.358 . S
C977 H1035 0.930 . S
C978 C981 1.348 . S
C978 C982 1.356 . S
C978 O1029 1.325 . S
C979 N980 1.279 . S
C979 C982 1.358 . S
C979 H1036 0.930 . S
N980 C979 1.279 . S
N980 C983 1.314 . S
C981 C978 1.348 . S
C981 C983 1.353 . S
C981 H1037 0.929 . S
C982 C978 1.356 . S
C982 C979 1.358 . S
C982 H1038 0.930 . S
C983 N980 1.314 . S
C983 C981 1.353 . S
C983 H1039 0.930 . S
C984 N985 1.314 . S
C984 C989 1.353 . S
C984 H990 0.930 . S
N985 Li968 1.990 . S
N985 C984 1.314 . S
N985 C987 1.279 . S
C986 C987 1.358 . S
C986 C988 1.356 . S
C986 H1040 0.930 . S
C987 N985 1.279 . S
C987 C986 1.358 . S
C987 H991 0.930 . S
C988 C986 1.356 . S
C988 C989 1.348 . S
C989 C984 1.353 . S
C989 C988 1.348 . S
C989 H1041 0.929 . S
H990 C984 0.930 . S
H991 C987 0.930 . S
C992 N993 1.314 . S
C992 C994 1.353 . S
C992 H998 0.930 . S
N993 Li969 1.990 . S
N993 C992 1.314 . S
N993 C996 1.279 . S
C994 C992 1.353 . S
C994 C997 1.348 . S
C994 H1042 0.929 . S
C995 C996 1.358 . S
C995 C997 1.356 . S
C995 H1043 0.930 . S
C996 N993 1.279 . S
C996 C995 1.358 . S
C996 H999 0.930 . S
C997 C994 1.348 . S
C997 C995 1.356 . S
H998 C992 0.930 . S
H999 C996 0.930 . S
C1000 C1002 1.348 . S
C1000 C1003 1.356 . S
C1000 O1030 1.325 . S
N1001 C1004 1.314 . S
N1001 C1005 1.279 . S
C1002 C1000 1.348 . S
C1002 C1004 1.353 . S
C1002 H1044 0.929 . S
C1003 C1000 1.356 . S
C1003 C1005 1.358 . S
C1003 H1045 0.930 . S
C1004 N1001 1.314 . S
C1004 C1002 1.353 . S
C1004 H1046 0.930 . S
C1005 N1001 1.279 . S
C1005 C1003 1.358 . S
C1005 H1047 0.930 . S
C1006 C1007 1.348 . S
C1006 C1008 1.356 . S
C1006 O1031 1.325 . S
C1007 C1006 1.348 . S
C1007 C1009 1.353 . S
C1007 H1048 0.929 . S
C1008 C1006 1.356 . S
C1008 C1010 1.358 . S
C1008 H1049 0.930 . S
C1009 C1007 1.353 . S
C1009 N1011 1.314 . S
C1009 H1050 0.930 . S
C1010 C1008 1.358 . S
C1010 N1011 1.279 . S
C1010 H1051 0.930 . S
N1011 C1009 1.314 . S
N1011 C1010 1.279 . S
C1012 C1014 1.353 . S
C1012 N1015 1.314 . S
C1012 H1018 0.930 . S
C1013 N1015 1.279 . S
C1013 C1016 1.358 . S
C1013 H1019 0.930 . S
C1014 C1012 1.353 . S
C1014 C1017 1.348 . S
C1014 H1052 0.929 . S
N1015 Li970 1.990 . S
N1015 C1012 1.314 . S
N1015 C1013 1.279 . S
C1016 C1013 1.358 . S
C1016 C1017 1.356 . S
C1016 H1053 0.930 . S
C1017 C1014 1.348 . S
C1017 C1016 1.356 . S
H1018 C1012 0.930 . S
H1019 C1013 0.930 . S
C1020 N1021 1.314 . S
C1020 C1022 1.353 . S
C1020 H1026 0.930 . S
N1021 Li971 1.990 . S
N1021 C1020 1.314 . S
N1021 C1024 1.279 . S
C1022 C1020 1.353 . S
C1022 C1025 1.348 . S
C1022 H1054 0.929 . S
C1023 C1024 1.358 . S
C1023 C1025 1.356 . S
C1023 H1055 0.930 . S
C1024 N1021 1.279 . S
C1024 C1023 1.358 . S
C1024 H1027 0.930 . S
C1025 C1022 1.348 . S
C1025 C1023 1.356 . S
H1026 C1020 0.930 . S
H1027 C1024 0.930 . S
O1028 Li968 1.956 . S
O1028 Li969 1.970 . S
O1028 Li970 1.961 . S
O1028 C972 1.325 . S
O1029 Li968 1.970 . S
O1029 Li969 1.956 . S
O1029 Li971 1.961 . S
O1029 C978 1.325 . S
O1030 Li968 1.961 . S
O1030 Li970 1.956 . S
O1030 Li971 1.970 . S
O1030 C1000 1.325 . S
O1031 Li969 1.961 . S
O1031 Li970 1.970 . S
O1031 Li971 1.956 . S
O1031 C1006 1.325 . S
H1032 C974 0.929 . S
H1033 C975 0.930 . S
H1034 C976 0.930 . S
H1035 C977 0.930 . S
H1036 C979 0.930 . S
H1037 C981 0.929 . S
H1038 C982 0.930 . S
H1039 C983 0.930 . S
H1040 C986 0.930 . S
H1041 C989 0.929 . S
H1042 C994 0.929 . S
H1043 C995 0.930 . S
H1044 C1002 0.929 . S
H1045 C1003 0.930 . S
H1046 C1004 0.930 . S
H1047 C1005 0.930 . S
H1048 C1007 0.929 . S
H1049 C1008 0.930 . S
H1050 C1009 0.930 . S
H1051 C1010 0.930 . S
H1052 C1014 0.929 . S
H1053 C1016 0.930 . S
H1054 C1022 0.929 . S
H1055 C1023 0.930 . S
Li1056 N1073 1.990 1_545 S
Li1056 O1116 1.956 . S
Li1056 O1117 1.970 . S
Li1056 O1118 1.961 . S
Li1057 N1081 1.990 . S
Li1057 O1116 1.970 . S
Li1057 O1117 1.956 . S
Li1057 O1119 1.961 . S
Li1058 N1103 1.990 . S
Li1058 O1116 1.961 . S
Li1058 O1118 1.956 . S
Li1058 O1119 1.970 . S
Li1059 N1109 1.990 . S
Li1059 O1117 1.961 . S
Li1059 O1118 1.970 . S
Li1059 O1119 1.956 . S
C1060 C1062 1.348 . S
C1060 C1063 1.356 . S
C1060 O1116 1.325 . S
N1061 C1064 1.314 . S
N1061 C1065 1.279 . S
C1062 C1060 1.348 . S
C1062 C1064 1.353 1_545 S
C1062 H1120 0.929 . S
C1063 C1060 1.356 . S
C1063 C1065 1.358 1_545 S
C1063 H1121 0.930 . S
C1064 N1061 1.314 . S
C1064 C1062 1.353 1_565 S
C1064 H1122 0.930 . S
C1065 N1061 1.279 . S
C1065 C1063 1.358 1_565 S
C1065 H1123 0.930 . S
C1066 C1069 1.348 . S
C1066 C1070 1.356 . S
C1066 O1117 1.325 . S
C1067 N1068 1.279 . S
C1067 C1070 1.358 . S
C1067 H1124 0.930 . S
N1068 C1067 1.279 . S
N1068 C1071 1.314 1_545 S
C1069 C1066 1.348 . S
C1069 C1071 1.353 1_545 S
C1069 H1125 0.929 1_545 S
C1070 C1066 1.356 . S
C1070 C1067 1.358 . S
C1070 H1126 0.930 . S
C1071 N1068 1.314 1_565 S
C1071 C1069 1.353 1_565 S
C1071 H1127 0.930 . S
C1072 N1073 1.314 . S
C1072 C1077 1.353 . S
C1072 H1078 0.974 . S
N1073 Li1056 1.990 1_565 S
N1073 C1072 1.314 . S
N1073 C1075 1.279 . S
C1074 C1075 1.358 . S
C1074 C1076 1.356 . S
C1074 H1128 0.930 . S
C1075 N1073 1.279 . S
C1075 C1074 1.358 . S
C1075 H1079 0.930 . S
C1076 C1074 1.356 . S
C1076 C1077 1.348 . S
C1077 C1072 1.353 . S
C1077 C1076 1.348 . S
C1077 H1129 0.929 . S
H1078 C1072 0.974 . S
H1079 C1075 0.930 . S
C1080 N1081 1.314 . S
C1080 C1082 1.353 . S
C1080 H1086 0.930 . S
N1081 Li1057 1.990 . S
N1081 C1080 1.314 . S
N1081 C1084 1.279 . S
C1082 C1080 1.353 . S
C1082 C1085 1.348 . S
C1082 H1130 0.929 . S
C1083 C1084 1.358 . S
C1083 C1085 1.356 . S
C1083 H1131 0.930 . S
C1084 N1081 1.279 . S
C1084 C1083 1.358 . S
C1084 H1087 0.930 . S
C1085 C1082 1.348 . S
C1085 C1083 1.356 . S
H1086 C1080 0.930 . S
H1087 C1084 0.930 . S
C1088 C1090 1.348 . S
C1088 C1091 1.356 . S
C1088 O1118 1.325 . S
N1089 C1092 1.314 . S
N1089 C1093 1.279 . S
C1090 C1088 1.348 . S
C1090 C1092 1.353 . S
C1090 H1132 0.929 . S
C1091 C1088 1.356 . S
C1091 C1093 1.358 . S
C1091 H1133 0.930 . S
C1092 N1089 1.314 . S
C1092 C1090 1.353 . S
C1092 H1134 0.930 . S
C1093 N1089 1.279 . S
C1093 C1091 1.358 . S
C1093 H1135 0.930 . S
C1094 C1095 1.348 . S
C1094 C1096 1.356 . S
C1094 O1119 1.325 . S
C1095 C1094 1.348 . S
C1095 C1097 1.353 . S
C1095 H1136 0.929 . S
C1096 C1094 1.356 . S
C1096 C1098 1.358 . S
C1096 H1137 0.930 . S
C1097 C1095 1.353 . S
C1097 N1099 1.314 . S
C1097 H1138 0.930 . S
C1098 C1096 1.358 . S
C1098 N1099 1.279 . S
C1098 H1139 0.930 . S
N1099 C1097 1.314 . S
N1099 C1098 1.279 . S
C1100 C1102 1.353 . S
C1100 N1103 1.314 . S
C1100 H1106 0.930 . S
C1101 N1103 1.279 . S
C1101 C1104 1.358 . S
C1101 H1107 0.930 . S
C1102 C1100 1.353 . S
C1102 C1105 1.348 . S
C1102 H1140 0.929 . S
N1103 Li1058 1.990 . S
N1103 C1100 1.314 . S
N1103 C1101 1.279 . S
C1104 C1101 1.358 . S
C1104 C1105 1.356 . S
C1104 H1141 0.930 . S
C1105 C1102 1.348 . S
C1105 C1104 1.356 . S
H1106 C1100 0.930 . S
H1107 C1101 0.930 . S
C1108 N1109 1.314 . S
C1108 C1110 1.353 . S
C1108 H1114 0.930 . S
N1109 Li1059 1.990 . S
N1109 C1108 1.314 . S
N1109 C1112 1.279 . S
C1110 C1108 1.353 . S
C1110 C1113 1.348 . S
C1110 H1142 0.929 . S
C1111 C1112 1.358 . S
C1111 C1113 1.356 . S
C1111 H1143 0.930 . S
C1112 N1109 1.279 . S
C1112 C1111 1.358 . S
C1112 H1115 0.930 . S
C1113 C1110 1.348 . S
C1113 C1111 1.356 . S
H1114 C1108 0.930 . S
H1115 C1112 0.930 . S
O1116 Li1056 1.956 . S
O1116 Li1057 1.970 . S
O1116 Li1058 1.961 . S
O1116 C1060 1.325 . S
O1117 Li1056 1.970 . S
O1117 Li1057 1.956 . S
O1117 Li1059 1.961 . S
O1117 C1066 1.325 . S
O1118 Li1056 1.961 . S
O1118 Li1058 1.956 . S
O1118 Li1059 1.970 . S
O1118 C1088 1.325 . S
O1119 Li1057 1.961 . S
O1119 Li1058 1.970 . S
O1119 Li1059 1.956 . S
O1119 C1094 1.325 . S
H1120 C1062 0.929 . S
H1121 C1063 0.930 . S
H1122 C1064 0.930 . S
H1123 C1065 0.930 . S
H1124 C1067 0.930 . S
H1125 C1069 0.929 1_565 S
H1126 C1070 0.930 . S
H1127 C1071 0.930 . S
H1128 C1074 0.930 . S
H1129 C1077 0.929 . S
H1130 C1082 0.929 . S
H1131 C1083 0.930 . S
H1132 C1090 0.929 . S
H1133 C1091 0.930 . S
H1134 C1092 0.930 . S
H1135 C1093 0.930 . S
H1136 C1095 0.929 . S
H1137 C1096 0.930 . S
H1138 C1097 0.930 . S
H1139 C1098 0.930 . S
H1140 C1102 0.929 . S
H1141 C1104 0.930 . S
H1142 C1110 0.929 . S
H1143 C1111 0.930 . S
Li1144 N1161 1.990 1_655 S
Li1144 O1204 1.956 . S
Li1144 O1205 1.970 . S
Li1144 O1206 1.961 . S
Li1145 N1169 1.990 . S
Li1145 O1204 1.970 . S
Li1145 O1205 1.956 . S
Li1145 O1207 1.961 . S
Li1146 N1191 1.990 . S
Li1146 O1204 1.961 . S
Li1146 O1206 1.956 . S
Li1146 O1207 1.970 . S
Li1147 N1197 1.990 . S
Li1147 O1205 1.961 . S
Li1147 O1206 1.970 . S
Li1147 O1207 1.956 . S
C1148 C1150 1.348 . S
C1148 C1151 1.356 . S
C1148 O1204 1.325 . S
N1149 C1152 1.314 . S
N1149 C1153 1.279 . S
C1150 C1148 1.348 . S
C1150 C1152 1.353 1_655 S
C1150 H1208 0.929 . S
C1151 C1148 1.356 . S
C1151 C1153 1.358 1_655 S
C1151 H1209 0.930 . S
C1152 N1149 1.314 . S
C1152 C1150 1.353 1_455 S
C1152 H1210 0.930 . S
C1153 N1149 1.279 . S
C1153 C1151 1.358 1_455 S
C1153 H1211 0.930 . S
C1154 C1157 1.348 . S
C1154 C1158 1.356 . S
C1154 O1205 1.325 . S
C1155 N1156 1.279 . S
C1155 C1158 1.358 . S
C1155 H1212 0.930 . S
N1156 C1155 1.279 . S
N1156 C1159 1.314 1_655 S
C1157 C1154 1.348 . S
C1157 C1159 1.353 1_655 S
C1157 H1213 0.929 1_655 S
C1158 C1154 1.356 . S
C1158 C1155 1.358 . S
C1158 H1214 0.930 . S
C1159 N1156 1.314 1_455 S
C1159 C1157 1.353 1_455 S
C1159 H1215 0.930 . S
C1160 N1161 1.314 . S
C1160 C1165 1.353 . S
C1160 H1166 0.930 . S
N1161 Li1144 1.990 1_455 S
N1161 C1160 1.314 . S
N1161 C1163 1.279 . S
C1162 C1163 1.358 . S
C1162 C1164 1.356 . S
C1162 H1216 0.930 . S
C1163 N1161 1.279 . S
C1163 C1162 1.358 . S
C1163 H1167 0.930 . S
C1164 C1162 1.356 . S
C1164 C1165 1.348 . S
C1165 C1160 1.353 . S
C1165 C1164 1.348 . S
C1165 H1217 0.929 . S
H1166 C1160 0.930 . S
H1167 C1163 0.930 . S
C1168 N1169 1.314 . S
C1168 C1170 1.353 . S
C1168 H1174 0.930 . S
N1169 Li1145 1.990 . S
N1169 C1168 1.314 . S
N1169 C1172 1.279 . S
C1170 C1168 1.353 . S
C1170 C1173 1.348 . S
C1170 H1218 0.929 . S
C1171 C1172 1.358 . S
C1171 C1173 1.356 . S
C1171 H1219 0.930 . S
C1172 N1169 1.279 . S
C1172 C1171 1.358 . S
C1172 H1175 0.930 . S
C1173 C1170 1.348 . S
C1173 C1171 1.356 . S
H1174 C1168 0.930 . S
H1175 C1172 0.930 . S
C1176 C1178 1.348 . S
C1176 C1179 1.356 . S
C1176 O1206 1.325 . S
N1177 C1180 1.314 . S
N1177 C1181 1.279 . S
C1178 C1176 1.348 . S
C1178 C1180 1.353 . S
C1178 H1220 0.929 . S
C1179 C1176 1.356 . S
C1179 C1181 1.358 . S
C1179 H1221 0.930 . S
C1180 N1177 1.314 . S
C1180 C1178 1.353 . S
C1180 H1222 0.930 . S
C1181 N1177 1.279 . S
C1181 C1179 1.358 . S
C1181 H1223 0.930 . S
C1182 C1183 1.348 . S
C1182 C1184 1.356 . S
C1182 O1207 1.325 . S
C1183 C1182 1.348 . S
C1183 C1185 1.353 . S
C1183 H1224 0.929 . S
C1184 C1182 1.356 . S
C1184 C1186 1.358 . S
C1184 H1225 0.930 . S
C1185 C1183 1.353 . S
C1185 N1187 1.314 . S
C1185 H1226 0.930 . S
C1186 C1184 1.358 . S
C1186 N1187 1.279 . S
C1186 H1227 0.930 . S
N1187 C1185 1.314 . S
N1187 C1186 1.279 . S
C1188 C1190 1.353 . S
C1188 N1191 1.314 . S
C1188 H1194 0.930 . S
C1189 N1191 1.279 . S
C1189 C1192 1.358 . S
C1189 H1195 0.930 . S
C1190 C1188 1.353 . S
C1190 C1193 1.348 . S
C1190 H1228 0.929 . S
N1191 Li1146 1.990 . S
N1191 C1188 1.314 . S
N1191 C1189 1.279 . S
C1192 C1189 1.358 . S
C1192 C1193 1.356 . S
C1192 H1229 0.930 . S
C1193 C1190 1.348 . S
C1193 C1192 1.356 . S
H1194 C1188 0.930 . S
H1195 C1189 0.930 . S
C1196 N1197 1.314 . S
C1196 C1198 1.353 . S
C1196 H1202 0.930 . S
N1197 Li1147 1.990 . S
N1197 C1196 1.314 . S
N1197 C1200 1.279 . S
C1198 C1196 1.353 . S
C1198 C1201 1.348 . S
C1198 H1230 0.929 . S
C1199 C1200 1.358 . S
C1199 C1201 1.356 . S
C1199 H1231 0.930 . S
C1200 N1197 1.279 . S
C1200 C1199 1.358 . S
C1200 H1203 0.930 . S
C1201 C1198 1.348 . S
C1201 C1199 1.356 . S
H1202 C1196 0.930 . S
H1203 C1200 0.930 . S
O1204 Li1144 1.956 . S
O1204 Li1145 1.970 . S
O1204 Li1146 1.961 . S
O1204 C1148 1.325 . S
O1205 Li1144 1.970 . S
O1205 Li1145 1.956 . S
O1205 Li1147 1.961 . S
O1205 C1154 1.325 . S
O1206 Li1144 1.961 . S
O1206 Li1146 1.956 . S
O1206 Li1147 1.970 . S
O1206 C1176 1.325 . S
O1207 Li1145 1.961 . S
O1207 Li1146 1.970 . S
O1207 Li1147 1.956 . S
O1207 C1182 1.325 . S
H1208 C1150 0.929 . S
H1209 C1151 0.930 . S
H1210 C1152 0.930 . S
H1211 C1153 0.930 . S
H1212 C1155 0.930 . S
H1213 C1157 0.929 1_455 S
H1214 C1158 0.930 . S
H1215 C1159 0.930 . S
H1216 C1162 0.930 . S
H1217 C1165 0.929 . S
H1218 C1170 0.929 . S
H1219 C1171 0.930 . S
H1220 C1178 0.929 . S
H1221 C1179 0.930 . S
H1222 C1180 0.930 . S
H1223 C1181 0.930 . S
H1224 C1183 0.929 . S
H1225 C1184 0.930 . S
H1226 C1185 0.930 . S
H1227 C1186 0.930 . S
H1228 C1190 0.929 . S
H1229 C1192 0.930 . S
H1230 C1198 0.929 . S
H1231 C1199 0.930 . S
Li1232 N1249 1.990 . S
Li1232 O1292 1.956 . S
Li1232 O1293 1.970 . S
Li1232 O1294 1.961 . S
Li1233 N1257 1.990 . S
Li1233 O1292 1.970 . S
Li1233 O1293 1.956 . S
Li1233 O1295 1.961 . S
Li1234 N1279 1.990 . S
Li1234 O1292 1.961 . S
Li1234 O1294 1.956 . S
Li1234 O1295 1.970 . S
Li1235 N1285 1.990 . S
Li1235 O1293 1.961 . S
Li1235 O1294 1.970 . S
Li1235 O1295 1.956 . S
C1236 C1238 1.348 . S
C1236 C1239 1.356 . S
C1236 O1292 1.325 . S
N1237 C1240 1.314 . S
N1237 C1241 1.279 . S
C1238 C1236 1.348 . S
C1238 C1240 1.353 . S
C1238 H1296 0.929 . S
C1239 C1236 1.356 . S
C1239 C1241 1.358 . S
C1239 H1297 0.930 . S
C1240 N1237 1.314 . S
C1240 C1238 1.353 . S
C1240 H1298 0.930 . S
C1241 N1237 1.279 . S
C1241 C1239 1.358 . S
C1241 H1299 0.930 . S
C1242 C1245 1.348 . S
C1242 C1246 1.356 . S
C1242 O1293 1.325 . S
C1243 N1244 1.279 . S
C1243 C1246 1.358 . S
C1243 H1300 0.930 . S
N1244 C1243 1.279 . S
N1244 C1247 1.314 . S
C1245 C1242 1.348 . S
C1245 C1247 1.353 . S
C1245 H1301 0.929 . S
C1246 C1242 1.356 . S
C1246 C1243 1.358 . S
C1246 H1302 0.930 . S
C1247 N1244 1.314 . S
C1247 C1245 1.353 . S
C1247 H1303 0.930 . S
C1248 N1249 1.314 . S
C1248 C1253 1.353 . S
C1248 H1254 0.930 . S
N1249 Li1232 1.990 . S
N1249 C1248 1.314 . S
N1249 C1251 1.279 . S
C1250 C1251 1.358 . S
C1250 C1252 1.356 . S
C1250 H1304 0.930 . S
C1251 N1249 1.279 . S
C1251 C1250 1.358 . S
C1251 H1255 0.930 . S
C1252 C1250 1.356 . S
C1252 C1253 1.348 . S
C1253 C1248 1.353 . S
C1253 C1252 1.348 . S
C1253 H1305 0.929 . S
H1254 C1248 0.930 . S
H1255 C1251 0.930 . S
C1256 N1257 1.314 . S
C1256 C1258 1.353 . S
C1256 H1262 0.930 . S
N1257 Li1233 1.990 . S
N1257 C1256 1.314 . S
N1257 C1260 1.279 . S
C1258 C1256 1.353 . S
C1258 C1261 1.348 . S
C1258 H1306 0.929 . S
C1259 C1260 1.358 . S
C1259 C1261 1.356 . S
C1259 H1307 0.930 . S
C1260 N1257 1.279 . S
C1260 C1259 1.358 . S
C1260 H1263 0.930 . S
C1261 C1258 1.348 . S
C1261 C1259 1.356 . S
H1262 C1256 0.930 . S
H1263 C1260 0.930 . S
C1264 C1266 1.348 . S
C1264 C1267 1.356 . S
C1264 O1294 1.325 . S
N1265 C1268 1.314 . S
N1265 C1269 1.279 . S
C1266 C1264 1.348 . S
C1266 C1268 1.353 . S
C1266 H1308 0.929 . S
C1267 C1264 1.356 . S
C1267 C1269 1.358 . S
C1267 H1309 0.930 . S
C1268 N1265 1.314 . S
C1268 C1266 1.353 . S
C1268 H1310 0.930 . S
C1269 N1265 1.279 . S
C1269 C1267 1.358 . S
C1269 H1311 0.930 . S
C1270 C1271 1.348 . S
C1270 C1272 1.356 . S
C1270 O1295 1.325 . S
C1271 C1270 1.348 . S
C1271 C1273 1.353 . S
C1271 H1312 0.929 . S
C1272 C1270 1.356 . S
C1272 C1274 1.358 . S
C1272 H1313 0.930 . S
C1273 C1271 1.353 . S
C1273 N1275 1.314 . S
C1273 H1314 0.930 . S
C1274 C1272 1.358 . S
C1274 N1275 1.279 . S
C1274 H1315 0.930 . S
N1275 C1273 1.314 . S
N1275 C1274 1.279 . S
C1276 C1278 1.353 . S
C1276 N1279 1.314 . S
C1276 H1282 0.930 . S
C1277 N1279 1.279 . S
C1277 C1280 1.358 . S
C1277 H1283 0.930 . S
C1278 C1276 1.353 . S
C1278 C1281 1.348 . S
C1278 H1316 0.929 . S
N1279 Li1234 1.990 . S
N1279 C1276 1.314 . S
N1279 C1277 1.279 . S
C1280 C1277 1.358 . S
C1280 C1281 1.356 . S
C1280 H1317 0.930 . S
C1281 C1278 1.348 . S
C1281 C1280 1.356 . S
H1282 C1276 0.930 . S
H1283 C1277 0.930 . S
C1284 N1285 1.314 . S
C1284 C1286 1.353 . S
C1284 H1290 0.930 . S
N1285 Li1235 1.990 . S
N1285 C1284 1.314 . S
N1285 C1288 1.279 . S
C1286 C1284 1.353 . S
C1286 C1289 1.348 . S
C1286 H1318 0.929 . S
C1287 C1288 1.358 . S
C1287 C1289 1.356 . S
C1287 H1319 0.930 . S
C1288 N1285 1.279 . S
C1288 C1287 1.358 . S
C1288 H1291 0.930 . S
C1289 C1286 1.348 . S
C1289 C1287 1.356 . S
H1290 C1284 0.930 . S
H1291 C1288 0.930 . S
O1292 Li1232 1.956 . S
O1292 Li1233 1.970 . S
O1292 Li1234 1.961 . S
O1292 C1236 1.325 . S
O1293 Li1232 1.970 . S
O1293 Li1233 1.956 . S
O1293 Li1235 1.961 . S
O1293 C1242 1.325 . S
O1294 Li1232 1.961 . S
O1294 Li1234 1.956 . S
O1294 Li1235 1.970 . S
O1294 C1264 1.325 . S
O1295 Li1233 1.961 . S
O1295 Li1234 1.970 . S
O1295 Li1235 1.956 . S
O1295 C1270 1.325 . S
H1296 C1238 0.929 . S
H1297 C1239 0.930 . S
H1298 C1240 0.930 . S
H1299 C1241 0.930 . S
H1300 C1243 0.930 . S
H1301 C1245 0.929 . S
H1302 C1246 0.930 . S
H1303 C1247 0.930 . S
H1304 C1250 0.930 . S
H1305 C1253 0.929 . S
H1306 C1258 0.929 . S
H1307 C1259 0.930 . S
H1308 C1266 0.929 . S
H1309 C1267 0.930 . S
H1310 C1268 0.930 . S
H1311 C1269 0.930 . S
H1312 C1271 0.929 . S
H1313 C1272 0.930 . S
H1314 C1273 0.930 . S
H1315 C1274 0.930 . S
H1316 C1278 0.929 . S
H1317 C1280 0.930 . S
H1318 C1286 0.929 . S
H1319 C1287 0.930 . S
Li1320 N1337 1.990 . S
Li1320 O1380 1.956 . S
Li1320 O1381 1.970 . S
Li1320 O1382 1.961 . S
Li1321 N1345 1.990 . S
Li1321 O1380 1.970 . S
Li1321 O1381 1.956 . S
Li1321 O1383 1.961 . S
Li1322 N1367 1.990 . S
Li1322 O1380 1.961 . S
Li1322 O1382 1.956 . S
Li1322 O1383 1.970 . S
Li1323 N1373 1.990 . S
Li1323 O1381 1.961 . S
Li1323 O1382 1.970 . S
Li1323 O1383 1.956 . S
C1324 C1326 1.348 . S
C1324 C1327 1.356 . S
C1324 O1380 1.325 . S
N1325 C1328 1.314 . S
N1325 C1329 1.279 . S
C1326 C1324 1.348 . S
C1326 C1328 1.353 . S
C1326 H1384 0.929 . S
C1327 C1324 1.356 . S
C1327 C1329 1.358 . S
C1327 H1385 0.930 . S
C1328 N1325 1.314 . S
C1328 C1326 1.353 . S
C1328 H1386 0.930 . S
C1329 N1325 1.279 . S
C1329 C1327 1.358 . S
C1329 H1387 0.930 . S
C1330 C1333 1.348 . S
C1330 C1334 1.356 . S
C1330 O1381 1.325 . S
C1331 N1332 1.279 . S
C1331 C1334 1.358 . S
C1331 H1388 0.930 . S
N1332 C1331 1.279 . S
N1332 C1335 1.314 . S
C1333 C1330 1.348 . S
C1333 C1335 1.353 . S
C1333 H1389 0.929 . S
C1334 C1330 1.356 . S
C1334 C1331 1.358 . S
C1334 H1390 0.930 . S
C1335 N1332 1.314 . S
C1335 C1333 1.353 . S
C1335 H1391 0.930 . S
C1336 N1337 1.314 . S
C1336 C1341 1.353 . S
C1336 H1342 0.930 . S
N1337 Li1320 1.990 . S
N1337 C1336 1.314 . S
N1337 C1339 1.279 . S
C1338 C1339 1.358 . S
C1338 C1340 1.356 . S
C1338 H1392 0.930 . S
C1339 N1337 1.279 . S
C1339 C1338 1.358 . S
C1339 H1343 0.930 . S
C1340 C1338 1.356 . S
C1340 C1341 1.348 . S
C1341 C1336 1.353 . S
C1341 C1340 1.348 . S
C1341 H1393 0.929 . S
H1342 C1336 0.930 . S
H1343 C1339 0.930 . S
C1344 N1345 1.314 . S
C1344 C1346 1.353 . S
C1344 H1350 0.930 . S
N1345 Li1321 1.990 . S
N1345 C1344 1.314 . S
N1345 C1348 1.279 . S
C1346 C1344 1.353 . S
C1346 C1349 1.348 . S
C1346 H1394 0.929 . S
C1347 C1348 1.358 . S
C1347 C1349 1.356 . S
C1347 H1395 0.930 . S
C1348 N1345 1.279 . S
C1348 C1347 1.358 . S
C1348 H1351 0.930 . S
C1349 C1346 1.348 . S
C1349 C1347 1.356 . S
H1350 C1344 0.930 . S
H1351 C1348 0.930 . S
C1352 C1354 1.348 . S
C1352 C1355 1.356 . S
C1352 O1382 1.325 . S
N1353 C1356 1.314 . S
N1353 C1357 1.279 . S
C1354 C1352 1.348 . S
C1354 C1356 1.353 . S
C1354 H1396 0.929 . S
C1355 C1352 1.356 . S
C1355 C1357 1.358 . S
C1355 H1397 0.930 . S
C1356 N1353 1.314 . S
C1356 C1354 1.353 . S
C1356 H1398 0.930 . S
C1357 N1353 1.279 . S
C1357 C1355 1.358 . S
C1357 H1399 0.930 . S
C1358 C1359 1.348 . S
C1358 C1360 1.356 . S
C1358 O1383 1.325 . S
C1359 C1358 1.348 . S
C1359 C1361 1.353 . S
C1359 H1400 0.929 . S
C1360 C1358 1.356 . S
C1360 C1362 1.358 . S
C1360 H1401 0.930 . S
C1361 C1359 1.353 . S
C1361 N1363 1.314 . S
C1361 H1402 0.930 . S
C1362 C1360 1.358 . S
C1362 N1363 1.279 . S
C1362 H1403 0.930 . S
N1363 C1361 1.314 . S
N1363 C1362 1.279 . S
C1364 C1366 1.353 . S
C1364 N1367 1.314 . S
C1364 H1370 0.930 . S
C1365 N1367 1.279 . S
C1365 C1368 1.358 . S
C1365 H1371 0.930 . S
C1366 C1364 1.353 . S
C1366 C1369 1.348 . S
C1366 H1404 0.929 . S
N1367 Li1322 1.990 . S
N1367 C1364 1.314 . S
N1367 C1365 1.279 . S
C1368 C1365 1.358 . S
C1368 C1369 1.356 . S
C1368 H1405 0.930 . S
C1369 C1366 1.348 . S
C1369 C1368 1.356 . S
H1370 C1364 0.930 . S
H1371 C1365 0.930 . S
C1372 N1373 1.314 . S
C1372 C1374 1.353 . S
C1372 H1378 0.930 . S
N1373 Li1323 1.990 . S
N1373 C1372 1.314 . S
N1373 C1376 1.279 . S
C1374 C1372 1.353 . S
C1374 C1377 1.348 . S
C1374 H1406 0.929 . S
C1375 C1376 1.358 . S
C1375 C1377 1.356 . S
C1375 H1407 0.930 . S
C1376 N1373 1.279 . S
C1376 C1375 1.358 . S
C1376 H1379 0.930 . S
C1377 C1374 1.348 . S
C1377 C1375 1.356 . S
H1378 C1372 0.930 . S
H1379 C1376 0.930 . S
O1380 Li1320 1.956 . S
O1380 Li1321 1.970 . S
O1380 Li1322 1.961 . S
O1380 C1324 1.325 . S
O1381 Li1320 1.970 . S
O1381 Li1321 1.956 . S
O1381 Li1323 1.961 . S
O1381 C1330 1.325 . S
O1382 Li1320 1.961 . S
O1382 Li1322 1.956 . S
O1382 Li1323 1.970 . S
O1382 C1352 1.325 . S
O1383 Li1321 1.961 . S
O1383 Li1322 1.970 . S
O1383 Li1323 1.956 . S
O1383 C1358 1.325 . S
H1384 C1326 0.929 . S
H1385 C1327 0.930 . S
H1386 C1328 0.930 . S
H1387 C1329 0.930 . S
H1388 C1331 0.930 . S
H1389 C1333 0.929 . S
H1390 C1334 0.930 . S
H1391 C1335 0.930 . S
H1392 C1338 0.930 . S
H1393 C1341 0.929 . S
H1394 C1346 0.929 . S
H1395 C1347 0.930 . S
H1396 C1354 0.929 . S
H1397 C1355 0.930 . S
H1398 C1356 0.930 . S
H1399 C1357 0.930 . S
H1400 C1359 0.929 . S
H1401 C1360 0.930 . S
H1402 C1361 0.930 . S
H1403 C1362 0.930 . S
H1404 C1366 0.929 . S
H1405 C1368 0.930 . S
H1406 C1374 0.929 . S
H1407 C1375 0.930 . S
Li1408 N1425 1.990 . S
Li1408 O1468 1.956 . S
Li1408 O1469 1.970 . S
Li1408 O1470 1.961 . S
Li1409 N1433 1.990 . S
Li1409 O1468 1.970 . S
Li1409 O1469 1.956 . S
Li1409 O1471 1.961 . S
Li1410 N1455 1.990 . S
Li1410 O1468 1.961 . S
Li1410 O1470 1.956 . S
Li1410 O1471 1.970 . S
Li1411 N1461 1.990 1_545 S
Li1411 O1469 1.961 . S
Li1411 O1470 1.970 . S
Li1411 O1471 1.956 . S
C1412 C1414 1.348 . S
C1412 C1415 1.356 . S
C1412 O1468 1.325 . S
N1413 C1416 1.314 . S
N1413 C1417 1.279 . S
C1414 C1412 1.348 . S
C1414 C1416 1.353 . S
C1414 H1472 0.929 . S
C1415 C1412 1.356 . S
C1415 C1417 1.358 . S
C1415 H1473 0.930 . S
C1416 N1413 1.314 . S
C1416 C1414 1.353 . S
C1416 H1474 0.930 . S
C1417 N1413 1.279 . S
C1417 C1415 1.358 . S
C1417 H1475 0.930 . S
C1418 C1421 1.348 . S
C1418 C1422 1.404 . S
C1418 O1469 1.325 . S
C1419 N1420 1.279 . S
C1419 C1422 1.335 1_565 S
C1419 H1476 0.930 . S
N1420 C1419 1.279 . S
N1420 C1423 1.333 . S
C1421 C1418 1.348 . S
C1421 C1423 1.342 1_545 S
C1421 H1477 0.929 . S
C1422 C1418 1.404 . S
C1422 C1419 1.335 1_545 S
C1422 H1478 0.940 . S
C1423 N1420 1.333 . S
C1423 C1421 1.342 1_565 S
C1423 H1479 0.935 . S
C1424 N1425 1.314 . S
C1424 C1429 1.353 . S
C1424 H1430 0.930 . S
N1425 Li1408 1.990 . S
N1425 C1424 1.314 . S
N1425 C1427 1.279 . S
C1426 C1427 1.358 . S
C1426 C1428 1.356 . S
C1426 H1480 0.930 . S
C1427 N1425 1.279 . S
C1427 C1426 1.358 . S
C1427 H1431 0.930 . S
C1428 C1426 1.356 . S
C1428 C1429 1.348 . S
C1429 C1424 1.353 . S
C1429 C1428 1.348 . S
C1429 H1481 0.929 . S
H1430 C1424 0.930 . S
H1431 C1427 0.930 . S
C1432 N1433 1.314 . S
C1432 C1434 1.353 . S
C1432 H1438 0.930 . S
N1433 Li1409 1.990 . S
N1433 C1432 1.314 . S
N1433 C1436 1.279 . S
C1434 C1432 1.353 . S
C1434 C1437 1.348 . S
C1434 H1482 0.929 . S
C1435 C1436 1.358 . S
C1435 C1437 1.356 . S
C1435 H1483 0.930 . S
C1436 N1433 1.279 . S
C1436 C1435 1.358 . S
C1436 H1439 0.930 . S
C1437 C1434 1.348 . S
C1437 C1435 1.356 . S
H1438 C1432 0.930 . S
H1439 C1436 0.930 . S
C1440 C1442 1.348 . S
C1440 C1443 1.356 . S
C1440 O1470 1.325 . S
N1441 C1444 1.314 . S
N1441 C1445 1.279 . S
C1442 C1440 1.348 . S
C1442 C1444 1.353 . S
C1442 H1484 0.929 . S
C1443 C1440 1.356 . S
C1443 C1445 1.358 . S
C1443 H1485 0.930 . S
C1444 N1441 1.314 . S
C1444 C1442 1.353 . S
C1444 H1486 0.930 1_545 S
C1445 N1441 1.279 . S
C1445 C1443 1.358 . S
C1445 H1487 0.930 . S
C1446 C1447 1.348 . S
C1446 C1448 1.356 . S
C1446 O1471 1.325 . S
C1447 C1446 1.348 . S
C1447 C1449 1.353 . S
C1447 H1488 0.929 . S
C1448 C1446 1.356 . S
C1448 C1450 1.358 . S
C1448 H1489 0.930 . S
C1449 C1447 1.353 . S
C1449 N1451 1.314 . S
C1449 H1490 0.930 . S
C1450 C1448 1.358 . S
C1450 N1451 1.279 . S
C1450 H1491 0.930 . S
N1451 C1449 1.314 . S
N1451 C1450 1.279 . S
C1452 C1454 1.353 . S
C1452 N1455 1.314 . S
C1452 H1458 0.930 . S
C1453 N1455 1.279 . S
C1453 C1456 1.358 . S
C1453 H1459 0.930 . S
C1454 C1452 1.353 . S
C1454 C1457 1.348 . S
C1454 H1492 0.929 . S
N1455 Li1410 1.990 . S
N1455 C1452 1.314 . S
N1455 C1453 1.279 . S
C1456 C1453 1.358 . S
C1456 C1457 1.356 . S
C1456 H1493 0.930 . S
C1457 C1454 1.348 . S
C1457 C1456 1.356 . S
H1458 C1452 0.930 . S
H1459 C1453 0.930 . S
C1460 N1461 1.314 . S
C1460 C1462 1.353 . S
C1460 H1466 0.930 . S
N1461 Li1411 1.990 1_565 S
N1461 C1460 1.314 . S
N1461 C1464 1.279 . S
C1462 C1460 1.353 . S
C1462 C1465 1.348 . S
C1462 H1494 0.929 . S
C1463 C1464 1.358 . S
C1463 C1465 1.356 . S
C1463 H1495 0.930 . S
C1464 N1461 1.279 . S
C1464 C1463 1.358 . S
C1464 H1467 0.939 . S
C1465 C1462 1.348 . S
C1465 C1463 1.356 . S
H1466 C1460 0.930 . S
H1467 C1464 0.939 . S
O1468 Li1408 1.956 . S
O1468 Li1409 1.970 . S
O1468 Li1410 1.961 . S
O1468 C1412 1.325 . S
O1469 Li1408 1.970 . S
O1469 Li1409 1.956 . S
O1469 Li1411 1.961 . S
O1469 C1418 1.325 . S
O1470 Li1408 1.961 . S
O1470 Li1410 1.956 . S
O1470 Li1411 1.970 . S
O1470 C1440 1.325 . S
O1471 Li1409 1.961 . S
O1471 Li1410 1.970 . S
O1471 Li1411 1.956 . S
O1471 C1446 1.325 . S
H1472 C1414 0.929 . S
H1473 C1415 0.930 . S
H1474 C1416 0.930 . S
H1475 C1417 0.930 . S
H1476 C1419 0.930 . S
H1477 C1421 0.929 . S
H1478 C1422 0.940 . S
H1479 C1423 0.935 . S
H1480 C1426 0.930 . S
H1481 C1429 0.929 . S
H1482 C1434 0.929 . S
H1483 C1435 0.930 . S
H1484 C1442 0.929 . S
H1485 C1443 0.930 . S
H1486 C1444 0.930 1_565 S
H1487 C1445 0.930 . S
H1488 C1447 0.929 . S
H1489 C1448 0.930 . S
H1490 C1449 0.930 . S
H1491 C1450 0.930 . S
H1492 C1454 0.929 . S
H1493 C1456 0.930 . S
H1494 C1462 0.929 . S
H1495 C1463 0.930 . S
Li1496 N1513 1.990 . S
Li1496 O1556 1.956 . S
Li1496 O1557 1.970 . S
Li1496 O1558 1.961 . S
Li1497 N1521 1.990 . S
Li1497 O1556 1.970 . S
Li1497 O1557 1.956 . S
Li1497 O1559 1.961 . S
Li1498 N1543 1.990 1_655 S
Li1498 O1556 1.961 . S
Li1498 O1558 1.956 . S
Li1498 O1559 1.970 . S
Li1499 N1549 1.990 . S
Li1499 O1557 1.961 . S
Li1499 O1558 1.970 . S
Li1499 O1559 1.956 . S
C1500 C1502 1.348 . S
C1500 C1503 1.366 . S
C1500 O1556 1.325 . S
N1501 C1504 1.313 . S
N1501 C1505 1.279 . S
C1502 C1500 1.348 . S
C1502 C1504 1.357 1_655 S
C1502 H1560 0.929 . S
C1503 C1500 1.366 . S
C1503 C1505 1.317 1_655 S
C1503 H1561 0.920 . S
C1504 N1501 1.313 . S
C1504 C1502 1.357 1_455 S
C1504 H1562 0.925 . S
C1505 N1501 1.279 . S
C1505 C1503 1.317 1_455 S
C1505 H1563 0.930 . S
C1506 C1509 1.348 . S
C1506 C1510 1.356 . S
C1506 O1557 1.325 . S
C1507 N1508 1.279 . S
C1507 C1510 1.358 . S
C1507 H1564 0.930 . S
N1508 C1507 1.279 . S
N1508 C1511 1.314 . S
C1509 C1506 1.348 . S
C1509 C1511 1.353 . S
C1509 H1565 0.929 . S
C1510 C1506 1.356 . S
C1510 C1507 1.358 . S
C1510 H1566 0.930 . S
C1511 N1508 1.314 . S
C1511 C1509 1.353 . S
C1511 H1567 0.930 . S
C1512 N1513 1.314 . S
C1512 C1517 1.353 . S
C1512 H1518 0.930 . S
N1513 Li1496 1.990 . S
N1513 C1512 1.314 . S
N1513 C1515 1.279 . S
C1514 C1515 1.358 . S
C1514 C1516 1.356 . S
C1514 H1568 0.930 . S
C1515 N1513 1.279 . S
C1515 C1514 1.358 . S
C1515 H1519 0.930 . S
C1516 C1514 1.356 . S
C1516 C1517 1.348 . S
C1517 C1512 1.353 . S
C1517 C1516 1.348 . S
C1517 H1569 0.929 . S
H1518 C1512 0.930 . S
H1519 C1515 0.930 . S
C1520 N1521 1.314 . S
C1520 C1522 1.353 . S
C1520 H1526 0.930 . S
N1521 Li1497 1.990 . S
N1521 C1520 1.314 . S
N1521 C1524 1.279 . S
C1522 C1520 1.353 . S
C1522 C1525 1.348 . S
C1522 H1570 0.929 . S
C1523 C1524 1.358 . S
C1523 C1525 1.356 . S
C1523 H1571 0.930 . S
C1524 N1521 1.279 . S
C1524 C1523 1.358 . S
C1524 H1527 0.930 . S
C1525 C1522 1.348 . S
C1525 C1523 1.356 . S
H1526 C1520 0.930 . S
H1527 C1524 0.930 . S
C1528 C1530 1.348 . S
C1528 C1531 1.356 . S
C1528 O1558 1.325 . S
N1529 C1532 1.314 . S
N1529 C1533 1.279 . S
C1530 C1528 1.348 . S
C1530 C1532 1.353 . S
C1530 H1572 0.929 . S
C1531 C1528 1.356 . S
C1531 C1533 1.358 . S
C1531 H1573 0.930 . S
C1532 N1529 1.314 . S
C1532 C1530 1.353 . S
C1532 H1574 0.930 . S
C1533 N1529 1.279 . S
C1533 C1531 1.358 . S
C1533 H1575 0.930 . S
C1534 C1535 1.348 . S
C1534 C1536 1.356 . S
C1534 O1559 1.325 . S
C1535 C1534 1.348 . S
C1535 C1537 1.353 . S
C1535 H1576 0.929 . S
C1536 C1534 1.356 . S
C1536 C1538 1.358 . S
C1536 H1577 0.930 . S
C1537 C1535 1.353 . S
C1537 N1539 1.314 . S
C1537 H1578 0.930 1_655 S
C1538 C1536 1.358 . S
C1538 N1539 1.279 . S
C1538 H1579 0.930 . S
N1539 C1537 1.314 . S
N1539 C1538 1.279 . S
C1540 C1542 1.353 . S
C1540 N1543 1.314 . S
C1540 H1546 0.930 . S
C1541 N1543 1.279 . S
C1541 C1544 1.358 . S
C1541 H1547 0.948 . S
C1542 C1540 1.353 . S
C1542 C1545 1.348 . S
C1542 H1580 0.929 . S
N1543 Li1498 1.990 1_455 S
N1543 C1540 1.314 . S
N1543 C1541 1.279 . S
C1544 C1541 1.358 . S
C1544 C1545 1.356 . S
C1544 H1581 0.930 . S
C1545 C1542 1.348 . S
C1545 C1544 1.356 . S
H1546 C1540 0.930 . S
H1547 C1541 0.948 . S
C1548 N1549 1.314 . S
C1548 C1550 1.353 . S
C1548 H1554 0.930 . S
N1549 Li1499 1.990 . S
N1549 C1548 1.314 . S
N1549 C1552 1.279 . S
C1550 C1548 1.353 . S
C1550 C1553 1.348 . S
C1550 H1582 0.929 . S
C1551 C1552 1.358 . S
C1551 C1553 1.356 . S
C1551 H1583 0.930 . S
C1552 N1549 1.279 . S
C1552 C1551 1.358 . S
C1552 H1555 0.930 . S
C1553 C1550 1.348 . S
C1553 C1551 1.356 . S
H1554 C1548 0.930 . S
H1555 C1552 0.930 . S
O1556 Li1496 1.956 . S
O1556 Li1497 1.970 . S
O1556 Li1498 1.961 . S
O1556 C1500 1.325 . S
O1557 Li1496 1.970 . S
O1557 Li1497 1.956 . S
O1557 Li1499 1.961 . S
O1557 C1506 1.325 . S
O1558 Li1496 1.961 . S
O1558 Li1498 1.956 . S
O1558 Li1499 1.970 . S
O1558 C1528 1.325 . S
O1559 Li1497 1.961 . S
O1559 Li1498 1.970 . S
O1559 Li1499 1.956 . S
O1559 C1534 1.325 . S
H1560 C1502 0.929 . S
H1561 C1503 0.920 . S
H1562 C1504 0.925 . S
H1563 C1505 0.930 . S
H1564 C1507 0.930 . S
H1565 C1509 0.929 . S
H1566 C1510 0.930 . S
H1567 C1511 0.930 . S
H1568 C1514 0.930 . S
H1569 C1517 0.929 . S
H1570 C1522 0.929 . S
H1571 C1523 0.930 . S
H1572 C1530 0.929 . S
H1573 C1531 0.930 . S
H1574 C1532 0.930 . S
H1575 C1533 0.930 . S
H1576 C1535 0.929 . S
H1577 C1536 0.930 . S
H1578 C1537 0.930 1_455 S
H1579 C1538 0.930 . S
H1580 C1542 0.929 . S
H1581 C1544 0.930 . S
H1582 C1550 0.929 . S
H1583 C1551 0.930 . S
H1584 C1611 0.929 . S
N1585 C1610 1.433 . S
N1585 C1616 1.435 . S
N1585 C1622 1.423 . S
H1586 C1612 0.930 . S
H1587 C1615 0.931 . S
H1588 C1614 0.929 . S
H1589 C1617 0.930 . S
H1590 C1618 0.932 . S
H1591 C1621 0.929 . S
H1592 C1620 0.931 . S
H1593 C1623 0.929 . S
H1594 C1627 0.932 . S
H1595 C1624 0.931 . S
H1596 C1626 0.929 . S
H1597 C1629 0.929 . S
H1598 C1630 0.930 . S
H1599 C1632 0.929 . S
H1600 C1633 0.931 . S
H1601 C1635 0.930 . S
H1602 C1636 0.932 . S
H1603 C1638 0.931 . S
H1604 C1639 0.929 . S
H1605 C1641 0.929 . S
H1606 C1642 0.931 . S
H1607 C1644 0.929 . S
N1608 C1628 1.433 . S
N1608 C1634 1.435 . S
N1608 C1640 1.423 . S
H1609 C1645 0.932 . S
C1610 N1585 1.433 . S
C1610 C1611 1.363 . S
C1610 C1615 1.370 . S
C1611 H1584 0.929 . S
C1611 C1610 1.363 . S
C1611 C1612 1.385 . S
C1612 H1586 0.930 . S
C1612 C1611 1.385 . S
C1612 C1613 1.357 . S
C1613 C1612 1.357 . S
C1613 C1614 1.406 . S
C1614 H1588 0.929 . S
C1614 C1613 1.406 . S
C1614 C1615 1.391 . S
C1615 H1587 0.931 . S
C1615 C1610 1.370 . S
C1615 C1614 1.391 . S
C1616 N1585 1.435 . S
C1616 C1617 1.358 . S
C1616 C1621 1.371 . S
C1617 H1589 0.930 . S
C1617 C1616 1.358 . S
C1617 C1618 1.405 . S
C1618 H1590 0.932 . S
C1618 C1617 1.405 . S
C1618 C1619 1.383 . S
C1619 C1618 1.383 . S
C1619 C1620 1.393 . S
C1620 H1592 0.931 . S
C1620 C1619 1.393 . S
C1620 C1621 1.382 . S
C1621 H1591 0.929 . S
C1621 C1616 1.371 . S
C1621 C1620 1.382 . S
C1622 N1585 1.423 . S
C1622 C1623 1.362 . S
C1622 C1627 1.388 . S
C1623 H1593 0.929 . S
C1623 C1622 1.362 . S
C1623 C1624 1.376 . S
C1624 H1595 0.931 . S
C1624 C1623 1.376 . S
C1624 C1625 1.396 . S
C1625 C1624 1.396 . S
C1625 C1626 1.348 . S
C1625 C1643 1.472 . S
C1626 H1596 0.929 . S
C1626 C1625 1.348 . S
C1626 C1627 1.443 . S
C1627 H1594 0.932 . S
C1627 C1622 1.388 . S
C1627 C1626 1.443 . S
C1628 N1608 1.433 . S
C1628 C1629 1.363 . S
C1628 C1633 1.370 . S
C1629 H1597 0.929 . S
C1629 C1628 1.363 . S
C1629 C1630 1.385 . S
C1630 H1598 0.930 . S
C1630 C1629 1.385 . S
C1630 C1631 1.357 . S
C1631 C1630 1.357 . S
C1631 C1632 1.406 . S
C1632 H1599 0.929 . S
C1632 C1631 1.406 . S
C1632 C1633 1.391 . S
C1633 H1600 0.931 . S
C1633 C1628 1.370 . S
C1633 C1632 1.391 . S
C1634 N1608 1.435 . S
C1634 C1635 1.358 . S
C1634 C1639 1.371 . S
C1635 H1601 0.930 . S
C1635 C1634 1.358 . S
C1635 C1636 1.405 . S
C1636 H1602 0.932 . S
C1636 C1635 1.405 . S
C1636 C1637 1.383 . S
C1637 C1636 1.383 . S
C1637 C1638 1.393 . S
C1638 H1603 0.931 . S
C1638 C1637 1.393 . S
C1638 C1639 1.382 . S
C1639 H1604 0.929 . S
C1639 C1634 1.371 . S
C1639 C1638 1.382 . S
C1640 N1608 1.423 . S
C1640 C1641 1.362 . S
C1640 C1645 1.388 . S
C1641 H1605 0.929 . S
C1641 C1640 1.362 . S
C1641 C1642 1.376 . S
C1642 H1606 0.931 . S
C1642 C1641 1.376 . S
C1642 C1643 1.396 . S
C1643 C1625 1.472 . S
C1643 C1642 1.396 . S
C1643 C1644 1.348 . S
C1644 H1607 0.929 . S
C1644 C1643 1.348 . S
C1644 C1645 1.443 . S
C1645 H1609 0.932 . S
C1645 C1640 1.388 . S
C1645 C1644 1.443 . S
H1646 C1673 0.929 . S
N1647 C1672 1.433 . S
N1647 C1678 1.435 . S
N1647 C1684 1.423 . S
H1648 C1674 0.930 . S
H1649 C1677 0.931 . S
H1650 C1676 0.929 . S
H1651 C1679 0.930 . S
H1652 C1680 0.932 . S
H1653 C1683 0.929 . S
H1654 C1682 0.931 . S
H1655 C1685 0.929 . S
H1656 C1689 0.932 . S
H1657 C1686 0.931 . S
H1658 C1688 0.929 . S
H1659 C1691 0.929 . S
H1660 C1692 0.930 . S
H1661 C1694 0.929 . S
H1662 C1695 0.931 . S
H1663 C1697 0.930 . S
H1664 C1698 0.932 . S
H1665 C1700 0.931 . S
H1666 C1701 0.929 . S
H1667 C1703 0.929 . S
H1668 C1704 0.931 . S
H1669 C1706 0.929 . S
N1670 C1690 1.433 . S
N1670 C1696 1.435 . S
N1670 C1702 1.423 . S
H1671 C1707 0.932 . S
C1672 N1647 1.433 . S
C1672 C1673 1.363 . S
C1672 C1677 1.370 . S
C1673 H1646 0.929 . S
C1673 C1672 1.363 . S
C1673 C1674 1.385 . S
C1674 H1648 0.930 . S
C1674 C1673 1.385 . S
C1674 C1675 1.357 . S
C1675 C1674 1.357 . S
C1675 C1676 1.406 . S
C1676 H1650 0.929 . S
C1676 C1675 1.406 . S
C1676 C1677 1.391 . S
C1677 H1649 0.931 . S
C1677 C1672 1.370 . S
C1677 C1676 1.391 . S
C1678 N1647 1.435 . S
C1678 C1679 1.358 . S
C1678 C1683 1.371 . S
C1679 H1651 0.930 . S
C1679 C1678 1.358 . S
C1679 C1680 1.405 . S
C1680 H1652 0.932 . S
C1680 C1679 1.405 . S
C1680 C1681 1.383 . S
C1681 C1680 1.383 . S
C1681 C1682 1.393 . S
C1682 H1654 0.931 . S
C1682 C1681 1.393 . S
C1682 C1683 1.382 . S
C1683 H1653 0.929 . S
C1683 C1678 1.371 . S
C1683 C1682 1.382 . S
C1684 N1647 1.423 . S
C1684 C1685 1.362 . S
C1684 C1689 1.388 . S
C1685 H1655 0.929 . S
C1685 C1684 1.362 . S
C1685 C1686 1.376 . S
C1686 H1657 0.931 . S
C1686 C1685 1.376 . S
C1686 C1687 1.396 . S
C1687 C1686 1.396 . S
C1687 C1688 1.348 . S
C1687 C1705 1.472 . S
C1688 H1658 0.929 . S
C1688 C1687 1.348 . S
C1688 C1689 1.443 . S
C1689 H1656 0.932 . S
C1689 C1684 1.388 . S
C1689 C1688 1.443 . S
C1690 N1670 1.433 . S
C1690 C1691 1.363 . S
C1690 C1695 1.370 . S
C1691 H1659 0.929 . S
C1691 C1690 1.363 . S
C1691 C1692 1.385 . S
C1692 H1660 0.930 . S
C1692 C1691 1.385 . S
C1692 C1693 1.357 . S
C1693 C1692 1.357 . S
C1693 C1694 1.406 . S
C1694 H1661 0.929 . S
C1694 C1693 1.406 . S
C1694 C1695 1.391 . S
C1695 H1662 0.931 . S
C1695 C1690 1.370 . S
C1695 C1694 1.391 . S
C1696 N1670 1.435 . S
C1696 C1697 1.358 . S
C1696 C1701 1.371 . S
C1697 H1663 0.930 . S
C1697 C1696 1.358 . S
C1697 C1698 1.405 . S
C1698 H1664 0.932 . S
C1698 C1697 1.405 . S
C1698 C1699 1.383 . S
C1699 C1698 1.383 . S
C1699 C1700 1.393 . S
C1700 H1665 0.931 . S
C1700 C1699 1.393 . S
C1700 C1701 1.382 . S
C1701 H1666 0.929 . S
C1701 C1696 1.371 . S
C1701 C1700 1.382 . S
C1702 N1670 1.423 . S
C1702 C1703 1.362 . S
C1702 C1707 1.388 . S
C1703 H1667 0.929 . S
C1703 C1702 1.362 . S
C1703 C1704 1.376 . S
C1704 H1668 0.931 . S
C1704 C1703 1.376 . S
C1704 C1705 1.396 . S
C1705 C1687 1.472 . S
C1705 C1704 1.396 . S
C1705 C1706 1.348 . S
C1706 H1669 0.929 . S
C1706 C1705 1.348 . S
C1706 C1707 1.443 . S
C1707 H1671 0.932 . S
C1707 C1702 1.388 . S
C1707 C1706 1.443 . S
H1708 C1735 0.929 . S
N1709 C1734 1.433 . S
N1709 C1740 1.435 . S
N1709 C1746 1.423 . S
H1710 C1736 0.930 . S
H1711 C1739 0.931 . S
H1712 C1738 0.929 . S
H1713 C1741 0.930 . S
H1714 C1742 0.932 . S
H1715 C1745 0.929 . S
H1716 C1744 0.931 . S
H1717 C1747 0.929 . S
H1718 C1751 0.932 . S
H1719 C1748 0.931 . S
H1720 C1750 0.929 . S
H1721 C1753 0.929 . S
H1722 C1754 0.930 . S
H1723 C1756 0.929 . S
H1724 C1757 0.931 . S
H1725 C1759 0.930 . S
H1726 C1760 0.932 . S
H1727 C1762 0.931 . S
H1728 C1763 0.929 . S
H1729 C1765 0.929 . S
H1730 C1766 0.931 . S
H1731 C1768 0.929 . S
N1732 C1752 1.433 . S
N1732 C1758 1.435 . S
N1732 C1764 1.423 . S
H1733 C1769 0.932 . S
C1734 N1709 1.433 . S
C1734 C1735 1.363 . S
C1734 C1739 1.370 . S
C1735 H1708 0.929 . S
C1735 C1734 1.363 . S
C1735 C1736 1.385 . S
C1736 H1710 0.930 . S
C1736 C1735 1.385 . S
C1736 C1737 1.357 . S
C1737 C1736 1.357 . S
C1737 C1738 1.406 . S
C1738 H1712 0.929 . S
C1738 C1737 1.406 . S
C1738 C1739 1.391 . S
C1739 H1711 0.931 . S
C1739 C1734 1.370 . S
C1739 C1738 1.391 . S
C1740 N1709 1.435 . S
C1740 C1741 1.358 . S
C1740 C1745 1.371 . S
C1741 H1713 0.930 . S
C1741 C1740 1.358 . S
C1741 C1742 1.405 . S
C1742 H1714 0.932 . S
C1742 C1741 1.405 . S
C1742 C1743 1.383 . S
C1743 C1742 1.383 . S
C1743 C1744 1.393 . S
C1744 H1716 0.931 . S
C1744 C1743 1.393 . S
C1744 C1745 1.382 . S
C1745 H1715 0.929 . S
C1745 C1740 1.371 . S
C1745 C1744 1.382 . S
C1746 N1709 1.423 . S
C1746 C1747 1.362 . S
C1746 C1751 1.388 . S
C1747 H1717 0.929 . S
C1747 C1746 1.362 . S
C1747 C1748 1.376 . S
C1748 H1719 0.931 . S
C1748 C1747 1.376 . S
C1748 C1749 1.396 . S
C1749 C1748 1.396 . S
C1749 C1750 1.348 . S
C1749 C1767 1.472 . S
C1750 H1720 0.929 . S
C1750 C1749 1.348 . S
C1750 C1751 1.443 . S
C1751 H1718 0.932 . S
C1751 C1746 1.388 . S
C1751 C1750 1.443 . S
C1752 N1732 1.433 . S
C1752 C1753 1.363 . S
C1752 C1757 1.370 . S
C1753 H1721 0.929 . S
C1753 C1752 1.363 . S
C1753 C1754 1.385 . S
C1754 H1722 0.930 . S
C1754 C1753 1.385 . S
C1754 C1755 1.357 . S
C1755 C1754 1.357 . S
C1755 C1756 1.406 . S
C1756 H1723 0.929 . S
C1756 C1755 1.406 . S
C1756 C1757 1.391 . S
C1757 H1724 0.931 . S
C1757 C1752 1.370 . S
C1757 C1756 1.391 . S
C1758 N1732 1.435 . S
C1758 C1759 1.358 . S
C1758 C1763 1.371 . S
C1759 H1725 0.930 . S
C1759 C1758 1.358 . S
C1759 C1760 1.405 . S
C1760 H1726 0.932 . S
C1760 C1759 1.405 . S
C1760 C1761 1.383 . S
C1761 C1760 1.383 . S
C1761 C1762 1.393 . S
C1762 H1727 0.931 . S
C1762 C1761 1.393 . S
C1762 C1763 1.382 . S
C1763 H1728 0.929 . S
C1763 C1758 1.371 . S
C1763 C1762 1.382 . S
C1764 N1732 1.423 . S
C1764 C1765 1.362 . S
C1764 C1769 1.388 . S
C1765 H1729 0.929 . S
C1765 C1764 1.362 . S
C1765 C1766 1.376 . S
C1766 H1730 0.931 . S
C1766 C1765 1.376 . S
C1766 C1767 1.396 . S
C1767 C1749 1.472 . S
C1767 C1766 1.396 . S
C1767 C1768 1.348 . S
C1768 H1731 0.929 . S
C1768 C1767 1.348 . S
C1768 C1769 1.443 . S
C1769 H1733 0.932 . S
C1769 C1764 1.388 . S
C1769 C1768 1.443 . S
H1770 C1797 0.929 . S
N1771 C1796 1.433 . S
N1771 C1802 1.435 . S
N1771 C1808 1.423 . S
H1772 C1798 0.930 . S
H1773 C1801 0.931 . S
H1774 C1800 0.929 . S
H1775 C1803 0.930 . S
H1776 C1804 0.932 . S
H1777 C1807 0.929 . S
H1778 C1806 0.931 . S
H1779 C1809 0.929 . S
H1780 C1813 0.932 . S
H1781 C1810 0.931 . S
H1782 C1812 0.929 . S
H1783 C1815 0.929 . S
H1784 C1816 0.930 . S
H1785 C1818 0.929 . S
H1786 C1819 0.931 . S
H1787 C1821 0.930 . S
H1788 C1822 0.932 . S
H1789 C1824 0.931 . S
H1790 C1825 0.929 . S
H1791 C1827 0.929 . S
H1792 C1828 0.931 . S
H1793 C1830 0.929 . S
N1794 C1814 1.433 . S
N1794 C1820 1.435 . S
N1794 C1826 1.423 . S
H1795 C1831 0.932 . S
C1796 N1771 1.433 . S
C1796 C1797 1.363 . S
C1796 C1801 1.370 . S
C1797 H1770 0.929 . S
C1797 C1796 1.363 . S
C1797 C1798 1.385 . S
C1798 H1772 0.930 . S
C1798 C1797 1.385 . S
C1798 C1799 1.357 . S
C1799 C1798 1.357 . S
C1799 C1800 1.406 . S
C1800 H1774 0.929 . S
C1800 C1799 1.406 . S
C1800 C1801 1.391 . S
C1801 H1773 0.931 . S
C1801 C1796 1.370 . S
C1801 C1800 1.391 . S
C1802 N1771 1.435 . S
C1802 C1803 1.358 . S
C1802 C1807 1.371 . S
C1803 H1775 0.930 . S
C1803 C1802 1.358 . S
C1803 C1804 1.405 . S
C1804 H1776 0.932 . S
C1804 C1803 1.405 . S
C1804 C1805 1.383 . S
C1805 C1804 1.383 . S
C1805 C1806 1.393 . S
C1806 H1778 0.931 . S
C1806 C1805 1.393 . S
C1806 C1807 1.382 . S
C1807 H1777 0.929 . S
C1807 C1802 1.371 . S
C1807 C1806 1.382 . S
C1808 N1771 1.423 . S
C1808 C1809 1.362 . S
C1808 C1813 1.388 . S
C1809 H1779 0.929 . S
C1809 C1808 1.362 . S
C1809 C1810 1.376 . S
C1810 H1781 0.931 . S
C1810 C1809 1.376 . S
C1810 C1811 1.396 . S
C1811 C1810 1.396 . S
C1811 C1812 1.348 . S
C1811 C1829 1.472 . S
C1812 H1782 0.929 . S
C1812 C1811 1.348 . S
C1812 C1813 1.443 . S
C1813 H1780 0.932 . S
C1813 C1808 1.388 . S
C1813 C1812 1.443 . S
C1814 N1794 1.433 . S
C1814 C1815 1.363 . S
C1814 C1819 1.370 . S
C1815 H1783 0.929 . S
C1815 C1814 1.363 . S
C1815 C1816 1.385 . S
C1816 H1784 0.930 . S
C1816 C1815 1.385 . S
C1816 C1817 1.357 . S
C1817 C1816 1.357 . S
C1817 C1818 1.406 . S
C1818 H1785 0.929 . S
C1818 C1817 1.406 . S
C1818 C1819 1.391 . S
C1819 H1786 0.931 . S
C1819 C1814 1.370 . S
C1819 C1818 1.391 . S
C1820 N1794 1.435 . S
C1820 C1821 1.358 . S
C1820 C1825 1.371 . S
C1821 H1787 0.930 . S
C1821 C1820 1.358 . S
C1821 C1822 1.405 . S
C1822 H1788 0.932 . S
C1822 C1821 1.405 . S
C1822 C1823 1.383 . S
C1823 C1822 1.383 . S
C1823 C1824 1.393 . S
C1824 H1789 0.931 . S
C1824 C1823 1.393 . S
C1824 C1825 1.382 . S
C1825 H1790 0.929 . S
C1825 C1820 1.371 . S
C1825 C1824 1.382 . S
C1826 N1794 1.423 . S
C1826 C1827 1.362 . S
C1826 C1831 1.388 . S
C1827 H1791 0.929 . S
C1827 C1826 1.362 . S
C1827 C1828 1.376 . S
C1828 H1792 0.931 . S
C1828 C1827 1.376 . S
C1828 C1829 1.396 . S
C1829 C1811 1.472 . S
C1829 C1828 1.396 . S
C1829 C1830 1.348 . S
C1830 H1793 0.929 . S
C1830 C1829 1.348 . S
C1830 C1831 1.443 . S
C1831 H1795 0.932 . S
C1831 C1826 1.388 . S
C1831 C1830 1.443 . S
H1832 C1859 0.929 . S
N1833 C1858 1.433 . S
N1833 C1864 1.435 . S
N1833 C1870 1.423 . S
H1834 C1860 0.930 . S
H1835 C1863 0.931 . S
H1836 C1862 0.929 . S
H1837 C1865 0.930 . S
H1838 C1866 0.932 . S
H1839 C1869 0.929 . S
H1840 C1868 0.931 . S
H1841 C1871 0.929 . S
H1842 C1875 0.932 . S
H1843 C1872 0.931 . S
H1844 C1874 0.929 . S
H1845 C1877 0.929 . S
H1846 C1878 0.930 . S
H1847 C1880 0.929 . S
H1848 C1881 0.931 . S
H1849 C1883 0.930 . S
H1850 C1884 0.932 . S
H1851 C1886 0.931 . S
H1852 C1887 0.929 . S
H1853 C1889 0.929 . S
H1854 C1890 0.931 . S
H1855 C1892 0.929 . S
N1856 C1876 1.433 . S
N1856 C1882 1.435 . S
N1856 C1888 1.423 . S
H1857 C1893 0.932 . S
C1858 N1833 1.433 . S
C1858 C1859 1.363 . S
C1858 C1863 1.370 . S
C1859 H1832 0.929 . S
C1859 C1858 1.363 . S
C1859 C1860 1.385 . S
C1860 H1834 0.930 . S
C1860 C1859 1.385 . S
C1860 C1861 1.357 . S
C1861 C1860 1.357 . S
C1861 C1862 1.406 . S
C1862 H1836 0.929 . S
C1862 C1861 1.406 . S
C1862 C1863 1.391 . S
C1863 H1835 0.931 . S
C1863 C1858 1.370 . S
C1863 C1862 1.391 . S
C1864 N1833 1.435 . S
C1864 C1865 1.358 . S
C1864 C1869 1.371 . S
C1865 H1837 0.930 . S
C1865 C1864 1.358 . S
C1865 C1866 1.405 . S
C1866 H1838 0.932 . S
C1866 C1865 1.405 . S
C1866 C1867 1.383 . S
C1867 C1866 1.383 . S
C1867 C1868 1.393 . S
C1868 H1840 0.931 . S
C1868 C1867 1.393 . S
C1868 C1869 1.382 . S
C1869 H1839 0.929 . S
C1869 C1864 1.371 . S
C1869 C1868 1.382 . S
C1870 N1833 1.423 . S
C1870 C1871 1.362 . S
C1870 C1875 1.388 . S
C1871 H1841 0.929 . S
C1871 C1870 1.362 . S
C1871 C1872 1.376 . S
C1872 H1843 0.931 . S
C1872 C1871 1.376 . S
C1872 C1873 1.396 . S
C1873 C1872 1.396 . S
C1873 C1874 1.348 . S
C1873 C1891 1.472 . S
C1874 H1844 0.929 . S
C1874 C1873 1.348 . S
C1874 C1875 1.443 . S
C1875 H1842 0.932 . S
C1875 C1870 1.388 . S
C1875 C1874 1.443 . S
C1876 N1856 1.433 . S
C1876 C1877 1.363 . S
C1876 C1881 1.370 . S
C1877 H1845 0.929 . S
C1877 C1876 1.363 . S
C1877 C1878 1.385 . S
C1878 H1846 0.930 . S
C1878 C1877 1.385 . S
C1878 C1879 1.357 . S
C1879 C1878 1.357 . S
C1879 C1880 1.406 . S
C1880 H1847 0.929 . S
C1880 C1879 1.406 . S
C1880 C1881 1.391 . S
C1881 H1848 0.931 . S
C1881 C1876 1.370 . S
C1881 C1880 1.391 . S
C1882 N1856 1.435 . S
C1882 C1883 1.358 . S
C1882 C1887 1.371 . S
C1883 H1849 0.930 . S
C1883 C1882 1.358 . S
C1883 C1884 1.405 . S
C1884 H1850 0.932 . S
C1884 C1883 1.405 . S
C1884 C1885 1.383 . S
C1885 C1884 1.383 . S
C1885 C1886 1.393 . S
C1886 H1851 0.931 . S
C1886 C1885 1.393 . S
C1886 C1887 1.382 . S
C1887 H1852 0.929 . S
C1887 C1882 1.371 . S
C1887 C1886 1.382 . S
C1888 N1856 1.423 . S
C1888 C1889 1.362 . S
C1888 C1893 1.388 . S
C1889 H1853 0.929 . S
C1889 C1888 1.362 . S
C1889 C1890 1.376 . S
C1890 H1854 0.931 . S
C1890 C1889 1.376 . S
C1890 C1891 1.396 . S
C1891 C1873 1.472 . S
C1891 C1890 1.396 . S
C1891 C1892 1.348 . S
C1892 H1855 0.929 . S
C1892 C1891 1.348 . S
C1892 C1893 1.443 . S
C1893 H1857 0.932 . S
C1893 C1888 1.388 . S
C1893 C1892 1.443 . S
H1894 C1921 0.929 . S
N1895 C1920 1.433 . S
N1895 C1926 1.435 . S
N1895 C1932 1.423 . S
H1896 C1922 0.930 . S
H1897 C1925 0.931 . S
H1898 C1924 0.929 . S
H1899 C1927 0.930 . S
H1900 C1928 0.932 . S
H1901 C1931 0.929 . S
H1902 C1930 0.931 . S
H1903 C1933 0.929 . S
H1904 C1937 0.932 . S
H1905 C1934 0.931 . S
H1906 C1936 0.929 . S
H1907 C1939 0.929 . S
H1908 C1940 0.930 . S
H1909 C1942 0.929 . S
H1910 C1943 0.931 . S
H1911 C1945 0.930 . S
H1912 C1946 0.932 . S
H1913 C1948 0.931 . S
H1914 C1949 0.929 . S
H1915 C1951 0.929 . S
H1916 C1952 0.931 . S
H1917 C1954 0.929 . S
N1918 C1938 1.433 . S
N1918 C1944 1.435 . S
N1918 C1950 1.423 . S
H1919 C1955 0.932 . S
C1920 N1895 1.433 . S
C1920 C1921 1.363 . S
C1920 C1925 1.370 . S
C1921 H1894 0.929 . S
C1921 C1920 1.363 . S
C1921 C1922 1.385 . S
C1922 H1896 0.930 . S
C1922 C1921 1.385 . S
C1922 C1923 1.357 . S
C1923 C1922 1.357 . S
C1923 C1924 1.406 . S
C1924 H1898 0.929 . S
C1924 C1923 1.406 . S
C1924 C1925 1.391 . S
C1925 H1897 0.931 . S
C1925 C1920 1.370 . S
C1925 C1924 1.391 . S
C1926 N1895 1.435 . S
C1926 C1927 1.358 . S
C1926 C1931 1.371 . S
C1927 H1899 0.930 . S
C1927 C1926 1.358 . S
C1927 C1928 1.405 . S
C1928 H1900 0.932 . S
C1928 C1927 1.405 . S
C1928 C1929 1.383 . S
C1929 C1928 1.383 . S
C1929 C1930 1.393 . S
C1930 H1902 0.931 . S
C1930 C1929 1.393 . S
C1930 C1931 1.382 . S
C1931 H1901 0.929 . S
C1931 C1926 1.371 . S
C1931 C1930 1.382 . S
C1932 N1895 1.423 . S
C1932 C1933 1.362 . S
C1932 C1937 1.388 . S
C1933 H1903 0.929 . S
C1933 C1932 1.362 . S
C1933 C1934 1.376 . S
C1934 H1905 0.931 . S
C1934 C1933 1.376 . S
C1934 C1935 1.396 . S
C1935 C1934 1.396 . S
C1935 C1936 1.348 . S
C1935 C1953 1.472 . S
C1936 H1906 0.929 . S
C1936 C1935 1.348 . S
C1936 C1937 1.443 . S
C1937 H1904 0.932 . S
C1937 C1932 1.388 . S
C1937 C1936 1.443 . S
C1938 N1918 1.433 . S
C1938 C1939 1.363 . S
C1938 C1943 1.370 . S
C1939 H1907 0.929 . S
C1939 C1938 1.363 . S
C1939 C1940 1.385 . S
C1940 H1908 0.930 . S
C1940 C1939 1.385 . S
C1940 C1941 1.357 . S
C1941 C1940 1.357 . S
C1941 C1942 1.406 . S
C1942 H1909 0.929 . S
C1942 C1941 1.406 . S
C1942 C1943 1.391 . S
C1943 H1910 0.931 . S
C1943 C1938 1.370 . S
C1943 C1942 1.391 . S
C1944 N1918 1.435 . S
C1944 C1945 1.358 . S
C1944 C1949 1.371 . S
C1945 H1911 0.930 . S
C1945 C1944 1.358 . S
C1945 C1946 1.405 . S
C1946 H1912 0.932 . S
C1946 C1945 1.405 . S
C1946 C1947 1.383 . S
C1947 C1946 1.383 . S
C1947 C1948 1.393 . S
C1948 H1913 0.931 . S
C1948 C1947 1.393 . S
C1948 C1949 1.382 . S
C1949 H1914 0.929 . S
C1949 C1944 1.371 . S
C1949 C1948 1.382 . S
C1950 N1918 1.423 . S
C1950 C1951 1.362 . S
C1950 C1955 1.388 . S
C1951 H1915 0.929 . S
C1951 C1950 1.362 . S
C1951 C1952 1.376 . S
C1952 H1916 0.931 . S
C1952 C1951 1.376 . S
C1952 C1953 1.396 . S
C1953 C1935 1.472 . S
C1953 C1952 1.396 . S
C1953 C1954 1.348 . S
C1954 H1917 0.929 . S
C1954 C1953 1.348 . S
C1954 C1955 1.443 . S
C1955 H1919 0.932 . S
C1955 C1950 1.388 . S
C1955 C1954 1.443 . S
H1956 C1983 0.929 . S
N1957 C1982 1.433 . S
N1957 C1988 1.435 . S
N1957 C1994 1.423 . S
H1958 C1984 0.930 . S
H1959 C1987 0.931 . S
H1960 C1986 0.929 . S
H1961 C1989 0.930 . S
H1962 C1990 0.932 . S
H1963 C1993 0.929 . S
H1964 C1992 0.931 . S
H1965 C1995 0.929 . S
H1966 C1999 0.932 . S
H1967 C1996 0.931 . S
H1968 C1998 0.929 . S
H1969 C2001 0.929 . S
H1970 C2002 0.930 . S
H1971 C2004 0.929 . S
H1972 C2005 0.931 . S
H1973 C2007 0.930 . S
H1974 C2008 0.932 . S
H1975 C2010 0.931 . S
H1976 C2011 0.929 . S
H1977 C2013 0.929 . S
H1978 C2014 0.931 . S
H1979 C2016 0.929 . S
N1980 C2000 1.433 . S
N1980 C2006 1.435 . S
N1980 C2012 1.423 . S
H1981 C2017 0.932 . S
C1982 N1957 1.433 . S
C1982 C1983 1.363 . S
C1982 C1987 1.370 . S
C1983 H1956 0.929 . S
C1983 C1982 1.363 . S
C1983 C1984 1.385 . S
C1984 H1958 0.930 . S
C1984 C1983 1.385 . S
C1984 C1985 1.357 . S
C1985 C1984 1.357 . S
C1985 C1986 1.406 . S
C1986 H1960 0.929 . S
C1986 C1985 1.406 . S
C1986 C1987 1.391 . S
C1987 H1959 0.931 . S
C1987 C1982 1.370 . S
C1987 C1986 1.391 . S
C1988 N1957 1.435 . S
C1988 C1989 1.358 . S
C1988 C1993 1.371 . S
C1989 H1961 0.930 . S
C1989 C1988 1.358 . S
C1989 C1990 1.405 . S
C1990 H1962 0.932 . S
C1990 C1989 1.405 . S
C1990 C1991 1.383 . S
C1991 C1990 1.383 . S
C1991 C1992 1.393 . S
C1992 H1964 0.931 . S
C1992 C1991 1.393 . S
C1992 C1993 1.382 . S
C1993 H1963 0.929 . S
C1993 C1988 1.371 . S
C1993 C1992 1.382 . S
C1994 N1957 1.423 . S
C1994 C1995 1.362 . S
C1994 C1999 1.388 . S
C1995 H1965 0.929 . S
C1995 C1994 1.362 . S
C1995 C1996 1.376 . S
C1996 H1967 0.931 . S
C1996 C1995 1.376 . S
C1996 C1997 1.396 . S
C1997 C1996 1.396 . S
C1997 C1998 1.348 . S
C1997 C2015 1.472 . S
C1998 H1968 0.929 . S
C1998 C1997 1.348 . S
C1998 C1999 1.443 . S
C1999 H1966 0.932 . S
C1999 C1994 1.388 . S
C1999 C1998 1.443 . S
C2000 N1980 1.433 . S
C2000 C2001 1.363 . S
C2000 C2005 1.370 . S
C2001 H1969 0.929 . S
C2001 C2000 1.363 . S
C2001 C2002 1.385 . S
C2002 H1970 0.930 . S
C2002 C2001 1.385 . S
C2002 C2003 1.357 . S
C2003 C2002 1.357 . S
C2003 C2004 1.406 . S
C2004 H1971 0.929 . S
C2004 C2003 1.406 . S
C2004 C2005 1.391 . S
C2005 H1972 0.931 . S
C2005 C2000 1.370 . S
C2005 C2004 1.391 . S
C2006 N1980 1.435 . S
C2006 C2007 1.358 . S
C2006 C2011 1.371 . S
C2007 H1973 0.930 . S
C2007 C2006 1.358 . S
C2007 C2008 1.405 . S
C2008 H1974 0.932 . S
C2008 C2007 1.405 . S
C2008 C2009 1.383 . S
C2009 C2008 1.383 . S
C2009 C2010 1.393 . S
C2010 H1975 0.931 . S
C2010 C2009 1.393 . S
C2010 C2011 1.382 . S
C2011 H1976 0.929 . S
C2011 C2006 1.371 . S
C2011 C2010 1.382 . S
C2012 N1980 1.423 . S
C2012 C2013 1.362 . S
C2012 C2017 1.388 . S
C2013 H1977 0.929 . S
C2013 C2012 1.362 . S
C2013 C2014 1.376 . S
C2014 H1978 0.931 . S
C2014 C2013 1.376 . S
C2014 C2015 1.396 . S
C2015 C1997 1.472 . S
C2015 C2014 1.396 . S
C2015 C2016 1.348 . S
C2016 H1979 0.929 . S
C2016 C2015 1.348 . S
C2016 C2017 1.443 . S
C2017 H1981 0.932 . S
C2017 C2012 1.388 . S
C2017 C2016 1.443 . S
H2018 C2045 0.929 . S
N2019 C2044 1.433 . S
N2019 C2050 1.435 . S
N2019 C2056 1.423 . S
H2020 C2046 0.930 . S
H2021 C2049 0.931 . S
H2022 C2048 0.929 . S
H2023 C2051 0.930 . S
H2024 C2052 0.932 . S
H2025 C2055 0.929 . S
H2026 C2054 0.931 . S
H2027 C2057 0.929 . S
H2028 C2061 0.932 . S
H2029 C2058 0.931 . S
H2030 C2060 0.929 . S
H2031 C2063 0.929 . S
H2032 C2064 0.930 . S
H2033 C2066 0.929 . S
H2034 C2067 0.931 . S
H2035 C2069 0.930 . S
H2036 C2070 0.932 . S
H2037 C2072 0.931 . S
H2038 C2073 0.929 . S
H2039 C2075 0.929 . S
H2040 C2076 0.931 . S
H2041 C2078 0.929 . S
N2042 C2062 1.433 . S
N2042 C2068 1.435 . S
N2042 C2074 1.423 . S
H2043 C2079 0.932 . S
C2044 N2019 1.433 . S
C2044 C2045 1.363 . S
C2044 C2049 1.370 . S
C2045 H2018 0.929 . S
C2045 C2044 1.363 . S
C2045 C2046 1.385 . S
C2046 H2020 0.930 . S
C2046 C2045 1.385 . S
C2046 C2047 1.357 . S
C2047 C2046 1.357 . S
C2047 C2048 1.406 . S
C2048 H2022 0.929 . S
C2048 C2047 1.406 . S
C2048 C2049 1.391 . S
C2049 H2021 0.931 . S
C2049 C2044 1.370 . S
C2049 C2048 1.391 . S
C2050 N2019 1.435 . S
C2050 C2051 1.358 . S
C2050 C2055 1.371 . S
C2051 H2023 0.930 . S
C2051 C2050 1.358 . S
C2051 C2052 1.405 . S
C2052 H2024 0.932 . S
C2052 C2051 1.405 . S
C2052 C2053 1.383 . S
C2053 C2052 1.383 . S
C2053 C2054 1.393 . S
C2054 H2026 0.931 . S
C2054 C2053 1.393 . S
C2054 C2055 1.382 . S
C2055 H2025 0.929 . S
C2055 C2050 1.371 . S
C2055 C2054 1.382 . S
C2056 N2019 1.423 . S
C2056 C2057 1.362 . S
C2056 C2061 1.388 . S
C2057 H2027 0.929 . S
C2057 C2056 1.362 . S
C2057 C2058 1.376 . S
C2058 H2029 0.931 . S
C2058 C2057 1.376 . S
C2058 C2059 1.396 . S
C2059 C2058 1.396 . S
C2059 C2060 1.348 . S
C2059 C2077 1.472 . S
C2060 H2030 0.929 . S
C2060 C2059 1.348 . S
C2060 C2061 1.443 . S
C2061 H2028 0.932 . S
C2061 C2056 1.388 . S
C2061 C2060 1.443 . S
C2062 N2042 1.433 . S
C2062 C2063 1.363 . S
C2062 C2067 1.370 . S
C2063 H2031 0.929 . S
C2063 C2062 1.363 . S
C2063 C2064 1.385 . S
C2064 H2032 0.930 . S
C2064 C2063 1.385 . S
C2064 C2065 1.357 . S
C2065 C2064 1.357 . S
C2065 C2066 1.406 . S
C2066 H2033 0.929 . S
C2066 C2065 1.406 . S
C2066 C2067 1.391 . S
C2067 H2034 0.931 . S
C2067 C2062 1.370 . S
C2067 C2066 1.391 . S
C2068 N2042 1.435 . S
C2068 C2069 1.358 . S
C2068 C2073 1.371 . S
C2069 H2035 0.930 . S
C2069 C2068 1.358 . S
C2069 C2070 1.405 . S
C2070 H2036 0.932 . S
C2070 C2069 1.405 . S
C2070 C2071 1.383 . S
C2071 C2070 1.383 . S
C2071 C2072 1.393 . S
C2072 H2037 0.931 . S
C2072 C2071 1.393 . S
C2072 C2073 1.382 . S
C2073 H2038 0.929 . S
C2073 C2068 1.371 . S
C2073 C2072 1.382 . S
C2074 N2042 1.423 . S
C2074 C2075 1.362 . S
C2074 C2079 1.388 . S
C2075 H2039 0.929 . S
C2075 C2074 1.362 . S
C2075 C2076 1.376 . S
C2076 H2040 0.931 . S
C2076 C2075 1.376 . S
C2076 C2077 1.396 . S
C2077 C2059 1.472 . S
C2077 C2076 1.396 . S
C2077 C2078 1.348 . S
C2078 H2041 0.929 . S
C2078 C2077 1.348 . S
C2078 C2079 1.443 . S
C2079 H2043 0.932 . S
C2079 C2074 1.388 . S
C2079 C2078 1.443 . S
H2080 C2107 0.929 . S
N2081 C2106 1.433 . S
N2081 C2112 1.435 . S
N2081 C2118 1.423 . S
H2082 C2108 0.930 . S
H2083 C2111 0.931 . S
H2084 C2110 0.929 . S
H2085 C2113 0.930 . S
H2086 C2114 0.932 . S
H2087 C2117 0.929 . S
H2088 C2116 0.931 . S
H2089 C2119 0.929 . S
H2090 C2123 0.932 . S
H2091 C2120 0.931 . S
H2092 C2122 0.929 . S
H2093 C2125 0.929 . S
H2094 C2126 0.930 . S
H2095 C2128 0.929 . S
H2096 C2129 0.931 . S
H2097 C2131 0.930 . S
H2098 C2132 0.932 . S
H2099 C2134 0.931 . S
H2100 C2135 0.929 . S
H2101 C2137 0.929 . S
H2102 C2138 0.931 . S
H2103 C2140 0.929 . S
N2104 C2124 1.433 . S
N2104 C2130 1.435 . S
N2104 C2136 1.423 . S
H2105 C2141 0.932 . S
C2106 N2081 1.433 . S
C2106 C2107 1.363 . S
C2106 C2111 1.370 . S
C2107 H2080 0.929 . S
C2107 C2106 1.363 . S
C2107 C2108 1.385 . S
C2108 H2082 0.930 . S
C2108 C2107 1.385 . S
C2108 C2109 1.357 . S
C2109 C2108 1.357 . S
C2109 C2110 1.406 . S
C2110 H2084 0.929 . S
C2110 C2109 1.406 . S
C2110 C2111 1.391 . S
C2111 H2083 0.931 . S
C2111 C2106 1.370 . S
C2111 C2110 1.391 . S
C2112 N2081 1.435 . S
C2112 C2113 1.358 . S
C2112 C2117 1.371 . S
C2113 H2085 0.930 . S
C2113 C2112 1.358 . S
C2113 C2114 1.405 . S
C2114 H2086 0.932 . S
C2114 C2113 1.405 . S
C2114 C2115 1.383 . S
C2115 C2114 1.383 . S
C2115 C2116 1.393 . S
C2116 H2088 0.931 . S
C2116 C2115 1.393 . S
C2116 C2117 1.382 . S
C2117 H2087 0.929 . S
C2117 C2112 1.371 . S
C2117 C2116 1.382 . S
C2118 N2081 1.423 . S
C2118 C2119 1.362 . S
C2118 C2123 1.388 . S
C2119 H2089 0.929 . S
C2119 C2118 1.362 . S
C2119 C2120 1.376 . S
C2120 H2091 0.931 . S
C2120 C2119 1.376 . S
C2120 C2121 1.396 . S
C2121 C2120 1.396 . S
C2121 C2122 1.348 . S
C2121 C2139 1.472 . S
C2122 H2092 0.929 . S
C2122 C2121 1.348 . S
C2122 C2123 1.443 . S
C2123 H2090 0.932 . S
C2123 C2118 1.388 . S
C2123 C2122 1.443 . S
C2124 N2104 1.433 . S
C2124 C2125 1.363 . S
C2124 C2129 1.370 . S
C2125 H2093 0.929 . S
C2125 C2124 1.363 . S
C2125 C2126 1.385 . S
C2126 H2094 0.930 . S
C2126 C2125 1.385 . S
C2126 C2127 1.357 . S
C2127 C2126 1.357 . S
C2127 C2128 1.406 . S
C2128 H2095 0.929 . S
C2128 C2127 1.406 . S
C2128 C2129 1.391 . S
C2129 H2096 0.931 . S
C2129 C2124 1.370 . S
C2129 C2128 1.391 . S
C2130 N2104 1.435 . S
C2130 C2131 1.358 . S
C2130 C2135 1.371 . S
C2131 H2097 0.930 . S
C2131 C2130 1.358 . S
C2131 C2132 1.405 . S
C2132 H2098 0.932 . S
C2132 C2131 1.405 . S
C2132 C2133 1.383 . S
C2133 C2132 1.383 . S
C2133 C2134 1.393 . S
C2134 H2099 0.931 . S
C2134 C2133 1.393 . S
C2134 C2135 1.382 . S
C2135 H2100 0.929 . S
C2135 C2130 1.371 . S
C2135 C2134 1.382 . S
C2136 N2104 1.423 . S
C2136 C2137 1.362 . S
C2136 C2141 1.388 . S
C2137 H2101 0.929 . S
C2137 C2136 1.362 . S
C2137 C2138 1.376 . S
C2138 H2102 0.931 . S
C2138 C2137 1.376 . S
C2138 C2139 1.396 . S
C2139 C2121 1.472 . S
C2139 C2138 1.396 . S
C2139 C2140 1.348 . S
C2140 H2103 0.929 . S
C2140 C2139 1.348 . S
C2140 C2141 1.443 . S
C2141 H2105 0.932 . S
C2141 C2136 1.388 . S
C2141 C2140 1.443 . S
H2142 C2169 0.929 . S
N2143 C2168 1.433 . S
N2143 C2174 1.435 . S
N2143 C2180 1.423 . S
H2144 C2170 0.930 . S
H2145 C2173 0.931 . S
H2146 C2172 0.929 . S
H2147 C2175 0.930 . S
H2148 C2176 0.932 . S
H2149 C2179 0.929 . S
H2150 C2178 0.931 . S
H2151 C2181 0.929 . S
H2152 C2185 0.932 1_655 S
H2153 C2182 0.931 . S
H2154 C2184 0.929 . S
H2155 C2187 0.929 . S
H2156 C2188 0.930 . S
H2157 C2190 0.929 . S
H2158 C2191 0.931 . S
H2159 C2193 0.930 . S
H2160 C2194 0.932 . S
H2161 C2196 0.931 . S
H2162 C2197 0.929 . S
H2163 C2199 0.929 . S
H2164 C2200 0.931 . S
H2165 C2202 0.929 . S
N2166 C2186 1.433 . S
N2166 C2192 1.435 . S
N2166 C2198 1.423 . S
H2167 C2203 0.932 1_655 S
C2168 N2143 1.433 . S
C2168 C2169 1.363 . S
C2168 C2173 1.370 1_455 S
C2169 H2142 0.929 . S
C2169 C2168 1.363 . S
C2169 C2170 1.385 . S
C2170 H2144 0.930 . S
C2170 C2169 1.385 . S
C2170 C2171 1.357 1_455 S
C2171 C2170 1.357 1_655 S
C2171 C2172 1.406 . S
C2172 H2146 0.929 . S
C2172 C2171 1.406 . S
C2172 C2173 1.391 . S
C2173 H2145 0.931 . S
C2173 C2168 1.370 1_655 S
C2173 C2172 1.391 . S
C2174 N2143 1.435 . S
C2174 C2175 1.358 1_455 S
C2174 C2179 1.371 . S
C2175 H2147 0.930 . S
C2175 C2174 1.358 1_655 S
C2175 C2176 1.405 . S
C2176 H2148 0.932 . S
C2176 C2175 1.405 . S
C2176 C2177 1.383 1_655 S
C2177 C2176 1.383 1_455 S
C2177 C2178 1.393 . S
C2178 H2150 0.931 . S
C2178 C2177 1.393 . S
C2178 C2179 1.382 . S
C2179 H2149 0.929 . S
C2179 C2174 1.371 . S
C2179 C2178 1.382 . S
C2180 N2143 1.423 . S
C2180 C2181 1.362 . S
C2180 C2185 1.388 . S
C2181 H2151 0.929 . S
C2181 C2180 1.362 . S
C2181 C2182 1.376 . S
C2182 H2153 0.931 . S
C2182 C2181 1.376 . S
C2182 C2183 1.396 . S
C2183 C2182 1.396 . S
C2183 C2184 1.348 . S
C2183 C2201 1.472 . S
C2184 H2154 0.929 . S
C2184 C2183 1.348 . S
C2184 C2185 1.443 . S
C2185 H2152 0.932 1_455 S
C2185 C2180 1.388 . S
C2185 C2184 1.443 . S
C2186 N2166 1.433 . S
C2186 C2187 1.363 . S
C2186 C2191 1.370 1_455 S
C2187 H2155 0.929 . S
C2187 C2186 1.363 . S
C2187 C2188 1.385 . S
C2188 H2156 0.930 . S
C2188 C2187 1.385 . S
C2188 C2189 1.357 1_455 S
C2189 C2188 1.357 1_655 S
C2189 C2190 1.406 . S
C2190 H2157 0.929 . S
C2190 C2189 1.406 . S
C2190 C2191 1.391 . S
C2191 H2158 0.931 . S
C2191 C2186 1.370 1_655 S
C2191 C2190 1.391 . S
C2192 N2166 1.435 . S
C2192 C2193 1.358 1_455 S
C2192 C2197 1.371 . S
C2193 H2159 0.930 . S
C2193 C2192 1.358 1_655 S
C2193 C2194 1.405 . S
C2194 H2160 0.932 . S
C2194 C2193 1.405 . S
C2194 C2195 1.383 1_655 S
C2195 C2194 1.383 1_455 S
C2195 C2196 1.393 . S
C2196 H2161 0.931 . S
C2196 C2195 1.393 . S
C2196 C2197 1.382 . S
C2197 H2162 0.929 . S
C2197 C2192 1.371 . S
C2197 C2196 1.382 . S
C2198 N2166 1.423 . S
C2198 C2199 1.362 . S
C2198 C2203 1.388 . S
C2199 H2163 0.929 . S
C2199 C2198 1.362 . S
C2199 C2200 1.376 . S
C2200 H2164 0.931 . S
C2200 C2199 1.376 . S
C2200 C2201 1.396 . S
C2201 C2183 1.472 . S
C2201 C2200 1.396 . S
C2201 C2202 1.348 . S
C2202 H2165 0.929 . S
C2202 C2201 1.348 . S
C2202 C2203 1.443 . S
C2203 H2167 0.932 1_455 S
C2203 C2198 1.388 . S
C2203 C2202 1.443 . S
H2204 C2231 0.929 . S
N2205 C2230 1.433 . S
N2205 C2236 1.435 . S
N2205 C2242 1.423 . S
H2206 C2232 0.930 . S
H2207 C2235 0.931 . S
H2208 C2234 0.929 . S
H2209 C2237 0.930 . S
H2210 C2238 0.932 . S
H2211 C2241 0.929 . S
H2212 C2240 0.931 . S
H2213 C2243 0.929 . S
H2214 C2247 0.932 . S
H2215 C2244 0.931 . S
H2216 C2246 0.929 . S
H2217 C2249 0.929 . S
H2218 C2250 0.930 . S
H2219 C2252 0.929 . S
H2220 C2253 0.931 . S
H2221 C2255 0.930 . S
H2222 C2256 0.932 . S
H2223 C2258 0.931 . S
H2224 C2259 0.929 . S
H2225 C2261 0.929 . S
H2226 C2262 0.931 . S
H2227 C2264 0.929 . S
N2228 C2248 1.433 . S
N2228 C2254 1.435 . S
N2228 C2260 1.423 . S
H2229 C2265 0.932 . S
C2230 N2205 1.433 . S
C2230 C2231 1.363 . S
C2230 C2235 1.370 . S
C2231 H2204 0.929 . S
C2231 C2230 1.363 . S
C2231 C2232 1.385 . S
C2232 H2206 0.930 . S
C2232 C2231 1.385 . S
C2232 C2233 1.357 . S
C2233 C2232 1.357 . S
C2233 C2234 1.406 . S
C2234 H2208 0.929 . S
C2234 C2233 1.406 . S
C2234 C2235 1.391 . S
C2235 H2207 0.931 . S
C2235 C2230 1.370 . S
C2235 C2234 1.391 . S
C2236 N2205 1.435 . S
C2236 C2237 1.358 . S
C2236 C2241 1.371 . S
C2237 H2209 0.930 . S
C2237 C2236 1.358 . S
C2237 C2238 1.405 . S
C2238 H2210 0.932 . S
C2238 C2237 1.405 . S
C2238 C2239 1.383 . S
C2239 C2238 1.383 . S
C2239 C2240 1.393 . S
C2240 H2212 0.931 . S
C2240 C2239 1.393 . S
C2240 C2241 1.382 . S
C2241 H2211 0.929 . S
C2241 C2236 1.371 . S
C2241 C2240 1.382 . S
C2242 N2205 1.423 . S
C2242 C2243 1.362 . S
C2242 C2247 1.388 . S
C2243 H2213 0.929 . S
C2243 C2242 1.362 . S
C2243 C2244 1.376 . S
C2244 H2215 0.931 . S
C2244 C2243 1.376 . S
C2244 C2245 1.396 . S
C2245 C2244 1.396 . S
C2245 C2246 1.348 . S
C2245 C2263 1.472 . S
C2246 H2216 0.929 . S
C2246 C2245 1.348 . S
C2246 C2247 1.443 . S
C2247 H2214 0.932 . S
C2247 C2242 1.388 . S
C2247 C2246 1.443 . S
C2248 N2228 1.433 . S
C2248 C2249 1.363 . S
C2248 C2253 1.370 . S
C2249 H2217 0.929 . S
C2249 C2248 1.363 . S
C2249 C2250 1.385 . S
C2250 H2218 0.930 . S
C2250 C2249 1.385 . S
C2250 C2251 1.357 . S
C2251 C2250 1.357 . S
C2251 C2252 1.406 . S
C2252 H2219 0.929 . S
C2252 C2251 1.406 . S
C2252 C2253 1.391 . S
C2253 H2220 0.931 . S
C2253 C2248 1.370 . S
C2253 C2252 1.391 . S
C2254 N2228 1.435 . S
C2254 C2255 1.358 . S
C2254 C2259 1.371 . S
C2255 H2221 0.930 . S
C2255 C2254 1.358 . S
C2255 C2256 1.405 . S
C2256 H2222 0.932 . S
C2256 C2255 1.405 . S
C2256 C2257 1.383 . S
C2257 C2256 1.383 . S
C2257 C2258 1.393 . S
C2258 H2223 0.931 . S
C2258 C2257 1.393 . S
C2258 C2259 1.382 . S
C2259 H2224 0.929 . S
C2259 C2254 1.371 . S
C2259 C2258 1.382 . S
C2260 N2228 1.423 . S
C2260 C2261 1.362 . S
C2260 C2265 1.388 . S
C2261 H2225 0.929 . S
C2261 C2260 1.362 . S
C2261 C2262 1.376 . S
C2262 H2226 0.931 . S
C2262 C2261 1.376 . S
C2262 C2263 1.396 . S
C2263 C2245 1.472 . S
C2263 C2262 1.396 . S
C2263 C2264 1.348 . S
C2264 H2227 0.929 . S
C2264 C2263 1.348 . S
C2264 C2265 1.443 . S
C2265 H2229 0.932 . S
C2265 C2260 1.388 . S
C2265 C2264 1.443 . S
H2266 C2293 0.929 . S
N2267 C2292 1.433 . S
N2267 C2298 1.435 . S
N2267 C2304 1.423 . S
H2268 C2294 0.930 . S
H2269 C2297 0.931 . S
H2270 C2296 0.929 . S
H2271 C2299 0.930 . S
H2272 C2300 0.932 . S
H2273 C2303 0.929 . S
H2274 C2302 0.931 . S
H2275 C2305 0.929 . S
H2276 C2309 0.932 1_545 S
H2277 C2306 0.931 . S
H2278 C2308 0.929 . S
H2279 C2311 0.929 . S
H2280 C2312 0.930 . S
H2281 C2314 0.929 . S
H2282 C2315 0.931 . S
H2283 C2317 0.930 . S
H2284 C2318 0.932 . S
H2285 C2320 0.931 . S
H2286 C2321 0.929 . S
H2287 C2323 0.929 . S
H2288 C2324 0.931 . S
H2289 C2326 0.929 . S
N2290 C2310 1.433 . S
N2290 C2316 1.435 . S
N2290 C2322 1.423 . S
H2291 C2327 0.932 1_545 S
C2292 N2267 1.433 . S
C2292 C2293 1.363 . S
C2292 C2297 1.370 1_565 S
C2293 H2266 0.929 . S
C2293 C2292 1.363 . S
C2293 C2294 1.385 . S
C2294 H2268 0.930 . S
C2294 C2293 1.385 . S
C2294 C2295 1.357 1_565 S
C2295 C2294 1.357 1_545 S
C2295 C2296 1.406 . S
C2296 H2270 0.929 . S
C2296 C2295 1.406 . S
C2296 C2297 1.391 . S
C2297 H2269 0.931 . S
C2297 C2292 1.370 1_545 S
C2297 C2296 1.391 . S
C2298 N2267 1.435 . S
C2298 C2299 1.358 1_565 S
C2298 C2303 1.371 . S
C2299 H2271 0.930 . S
C2299 C2298 1.358 1_545 S
C2299 C2300 1.405 . S
C2300 H2272 0.932 . S
C2300 C2299 1.405 . S
C2300 C2301 1.383 1_545 S
C2301 C2300 1.383 1_565 S
C2301 C2302 1.393 . S
C2302 H2274 0.931 . S
C2302 C2301 1.393 . S
C2302 C2303 1.382 . S
C2303 H2273 0.929 . S
C2303 C2298 1.371 . S
C2303 C2302 1.382 . S
C2304 N2267 1.423 . S
C2304 C2305 1.362 . S
C2304 C2309 1.388 . S
C2305 H2275 0.929 . S
C2305 C2304 1.362 . S
C2305 C2306 1.376 . S
C2306 H2277 0.931 . S
C2306 C2305 1.376 . S
C2306 C2307 1.396 . S
C2307 C2306 1.396 . S
C2307 C2308 1.348 . S
C2307 C2325 1.472 . S
C2308 H2278 0.929 . S
C2308 C2307 1.348 . S
C2308 C2309 1.443 . S
C2309 H2276 0.932 1_565 S
C2309 C2304 1.388 . S
C2309 C2308 1.443 . S
C2310 N2290 1.433 . S
C2310 C2311 1.363 . S
C2310 C2315 1.370 1_565 S
C2311 H2279 0.929 . S
C2311 C2310 1.363 . S
C2311 C2312 1.385 . S
C2312 H2280 0.930 . S
C2312 C2311 1.385 . S
C2312 C2313 1.357 1_565 S
C2313 C2312 1.357 1_545 S
C2313 C2314 1.406 . S
C2314 H2281 0.929 . S
C2314 C2313 1.406 . S
C2314 C2315 1.391 . S
C2315 H2282 0.931 . S
C2315 C2310 1.370 1_545 S
C2315 C2314 1.391 . S
C2316 N2290 1.435 . S
C2316 C2317 1.358 1_565 S
C2316 C2321 1.371 . S
C2317 H2283 0.930 . S
C2317 C2316 1.358 1_545 S
C2317 C2318 1.405 . S
C2318 H2284 0.932 . S
C2318 C2317 1.405 . S
C2318 C2319 1.383 1_545 S
C2319 C2318 1.383 1_565 S
C2319 C2320 1.393 . S
C2320 H2285 0.931 . S
C2320 C2319 1.393 . S
C2320 C2321 1.382 . S
C2321 H2286 0.929 . S
C2321 C2316 1.371 . S
C2321 C2320 1.382 . S
C2322 N2290 1.423 . S
C2322 C2323 1.362 . S
C2322 C2327 1.388 . S
C2323 H2287 0.929 . S
C2323 C2322 1.362 . S
C2323 C2324 1.376 . S
C2324 H2288 0.931 . S
C2324 C2323 1.376 . S
C2324 C2325 1.396 . S
C2325 C2307 1.472 . S
C2325 C2324 1.396 . S
C2325 C2326 1.348 . S
C2326 H2289 0.929 . S
C2326 C2325 1.348 . S
C2326 C2327 1.443 . S
C2327 H2291 0.932 1_565 S
C2327 C2322 1.388 . S
C2327 C2326 1.443 . S
H2328 C2355 0.929 . S
N2329 C2354 1.433 . S
N2329 C2360 1.435 . S
N2329 C2366 1.423 . S
H2330 C2356 0.930 . S
H2331 C2359 0.930 . S
H2332 C2358 0.945 . S
H2333 C2361 0.930 . S
H2334 C2362 0.932 . S
H2335 C2365 0.929 . S
H2336 C2364 0.931 . S
H2337 C2367 0.929 . S
H2338 C2371 0.932 . S
H2339 C2368 0.931 . S
H2340 C2370 0.922 1_545 S
H2341 C2373 0.929 . S
H2342 C2374 0.930 . S
H2343 C2376 0.978 . S
H2344 C2377 0.974 . S
H2345 C2379 0.930 . S
H2346 C2380 0.932 . S
H2347 C2382 0.931 . S
H2348 C2383 0.929 . S
H2349 C2385 0.929 . S
H2350 C2386 0.931 . S
H2351 C2388 0.903 1_545 S
N2352 C2372 1.433 . S
N2352 C2378 1.435 . S
N2352 C2384 1.423 . S
H2353 C2389 0.932 . S
C2354 N2329 1.433 . S
C2354 C2355 1.363 . S
C2354 C2359 1.363 1_565 S
C2355 H2328 0.929 . S
C2355 C2354 1.363 . S
C2355 C2356 1.385 . S
C2356 H2330 0.930 . S
C2356 C2355 1.385 . S
C2356 C2357 1.357 . S
C2357 C2356 1.357 . S
C2357 C2358 1.412 1_565 S
C2358 H2332 0.945 . S
C2358 C2357 1.412 1_545 S
C2358 C2359 1.388 . S
C2359 H2331 0.930 . S
C2359 C2354 1.363 1_545 S
C2359 C2358 1.388 . S
C2360 N2329 1.435 . S
C2360 C2361 1.358 1_565 S
C2360 C2365 1.371 . S
C2361 H2333 0.930 . S
C2361 C2360 1.358 1_545 S
C2361 C2362 1.405 . S
C2362 H2334 0.932 . S
C2362 C2361 1.405 . S
C2362 C2363 1.383 . S
C2363 C2362 1.383 . S
C2363 C2364 1.393 1_545 S
C2364 H2336 0.931 . S
C2364 C2363 1.393 1_565 S
C2364 C2365 1.382 . S
C2365 H2335 0.929 . S
C2365 C2360 1.371 . S
C2365 C2364 1.382 . S
C2366 N2329 1.423 . S
C2366 C2367 1.362 . S
C2366 C2371 1.388 1_565 S
C2367 H2337 0.929 . S
C2367 C2366 1.362 . S
C2367 C2368 1.376 . S
C2368 H2339 0.931 . S
C2368 C2367 1.376 . S
C2368 C2369 1.396 . S
C2369 C2368 1.396 . S
C2369 C2370 1.374 . S
C2369 C2387 1.472 . S
C2370 H2340 0.922 1_565 S
C2370 C2369 1.374 . S
C2370 C2371 1.424 1_565 S
C2371 H2338 0.932 . S
C2371 C2366 1.388 1_545 S
C2371 C2370 1.424 1_545 S
C2372 N2352 1.433 . S
C2372 C2373 1.363 . S
C2372 C2377 1.337 1_565 S
C2373 H2341 0.929 . S
C2373 C2372 1.363 . S
C2373 C2374 1.385 . S
C2374 H2342 0.930 . S
C2374 C2373 1.385 . S
C2374 C2375 1.357 . S
C2375 C2374 1.357 . S
C2375 C2376 1.349 1_565 S
C2376 H2343 0.978 . S
C2376 C2375 1.349 1_545 S
C2376 C2377 1.395 . S
C2377 H2344 0.974 . S
C2377 C2372 1.337 1_545 S
C2377 C2376 1.395 . S
C2378 N2352 1.435 . S
C2378 C2379 1.358 1_565 S
C2378 C2383 1.371 . S
C2379 H2345 0.930 . S
C2379 C2378 1.358 1_545 S
C2379 C2380 1.405 . S
C2380 H2346 0.932 . S
C2380 C2379 1.405 . S
C2380 C2381 1.383 . S
C2381 C2380 1.383 . S
C2381 C2382 1.393 1_545 S
C2382 H2347 0.931 . S
C2382 C2381 1.393 1_565 S
C2382 C2383 1.382 . S
C2383 H2348 0.929 . S
C2383 C2378 1.371 . S
C2383 C2382 1.382 . S
C2384 N2352 1.423 . S
C2384 C2385 1.362 . S
C2384 C2389 1.388 1_565 S
C2385 H2349 0.929 . S
C2385 C2384 1.362 . S
C2385 C2386 1.376 . S
C2386 H2350 0.931 . S
C2386 C2385 1.376 . S
C2386 C2387 1.396 . S
C2387 C2369 1.472 . S
C2387 C2386 1.396 . S
C2387 C2388 1.358 . S
C2388 H2351 0.903 1_565 S
C2388 C2387 1.358 . S
C2388 C2389 1.458 1_565 S
C2389 H2353 0.932 . S
C2389 C2384 1.388 1_545 S
C2389 C2388 1.458 1_545 S
H2390 C2417 0.929 . S
N2391 C2416 1.433 . S
N2391 C2422 1.435 . S
N2391 C2428 1.423 . S
H2392 C2418 0.930 . S
H2393 C2421 0.931 . S
H2394 C2420 0.929 . S
H2395 C2423 0.930 . S
H2396 C2424 0.932 . S
H2397 C2427 0.929 . S
H2398 C2426 0.931 . S
H2399 C2429 0.929 . S
H2400 C2433 0.932 1_455 S
H2401 C2430 0.931 . S
H2402 C2432 0.929 . S
H2403 C2435 0.929 . S
H2404 C2436 0.930 . S
H2405 C2438 0.929 . S
H2406 C2439 0.931 . S
H2407 C2441 0.930 . S
H2408 C2442 0.932 . S
H2409 C2444 0.931 . S
H2410 C2445 0.929 . S
H2411 C2447 0.929 . S
H2412 C2448 0.931 . S
H2413 C2450 0.929 . S
N2414 C2434 1.433 . S
N2414 C2440 1.435 . S
N2414 C2446 1.423 . S
H2415 C2451 0.932 1_455 S
C2416 N2391 1.433 . S
C2416 C2417 1.363 . S
C2416 C2421 1.370 1_655 S
C2417 H2390 0.929 . S
C2417 C2416 1.363 . S
C2417 C2418 1.385 . S
C2418 H2392 0.930 . S
C2418 C2417 1.385 . S
C2418 C2419 1.357 1_655 S
C2419 C2418 1.357 1_455 S
C2419 C2420 1.406 . S
C2420 H2394 0.929 . S
C2420 C2419 1.406 . S
C2420 C2421 1.391 . S
C2421 H2393 0.931 . S
C2421 C2416 1.370 1_455 S
C2421 C2420 1.391 . S
C2422 N2391 1.435 . S
C2422 C2423 1.358 1_655 S
C2422 C2427 1.371 . S
C2423 H2395 0.930 . S
C2423 C2422 1.358 1_455 S
C2423 C2424 1.405 . S
C2424 H2396 0.932 . S
C2424 C2423 1.405 . S
C2424 C2425 1.383 1_455 S
C2425 C2424 1.383 1_655 S
C2425 C2426 1.393 . S
C2426 H2398 0.931 . S
C2426 C2425 1.393 . S
C2426 C2427 1.382 . S
C2427 H2397 0.929 . S
C2427 C2422 1.371 . S
C2427 C2426 1.382 . S
C2428 N2391 1.423 . S
C2428 C2429 1.362 . S
C2428 C2433 1.388 . S
C2429 H2399 0.929 . S
C2429 C2428 1.362 . S
C2429 C2430 1.376 . S
C2430 H2401 0.931 . S
C2430 C2429 1.376 . S
C2430 C2431 1.396 . S
C2431 C2430 1.396 . S
C2431 C2432 1.348 . S
C2431 C2449 1.472 . S
C2432 H2402 0.929 . S
C2432 C2431 1.348 . S
C2432 C2433 1.443 . S
C2433 H2400 0.932 1_655 S
C2433 C2428 1.388 . S
C2433 C2432 1.443 . S
C2434 N2414 1.433 . S
C2434 C2435 1.363 . S
C2434 C2439 1.370 1_655 S
C2435 H2403 0.929 . S
C2435 C2434 1.363 . S
C2435 C2436 1.385 . S
C2436 H2404 0.930 . S
C2436 C2435 1.385 . S
C2436 C2437 1.357 1_655 S
C2437 C2436 1.357 1_455 S
C2437 C2438 1.406 . S
C2438 H2405 0.929 . S
C2438 C2437 1.406 . S
C2438 C2439 1.391 . S
C2439 H2406 0.931 . S
C2439 C2434 1.370 1_455 S
C2439 C2438 1.391 . S
C2440 N2414 1.435 . S
C2440 C2441 1.358 1_655 S
C2440 C2445 1.371 . S
C2441 H2407 0.930 . S
C2441 C2440 1.358 1_455 S
C2441 C2442 1.405 . S
C2442 H2408 0.932 . S
C2442 C2441 1.405 . S
C2442 C2443 1.383 1_455 S
C2443 C2442 1.383 1_655 S
C2443 C2444 1.393 . S
C2444 H2409 0.931 . S
C2444 C2443 1.393 . S
C2444 C2445 1.382 . S
C2445 H2410 0.929 . S
C2445 C2440 1.371 . S
C2445 C2444 1.382 . S
C2446 N2414 1.423 . S
C2446 C2447 1.362 . S
C2446 C2451 1.388 . S
C2447 H2411 0.929 . S
C2447 C2446 1.362 . S
C2447 C2448 1.376 . S
C2448 H2412 0.931 . S
C2448 C2447 1.376 . S
C2448 C2449 1.396 . S
C2449 C2431 1.472 . S
C2449 C2448 1.396 . S
C2449 C2450 1.348 . S
C2450 H2413 0.929 . S
C2450 C2449 1.348 . S
C2450 C2451 1.443 . S
C2451 H2415 0.932 1_655 S
C2451 C2446 1.388 . S
C2451 C2450 1.443 . S
H2452 C2479 0.929 . S
N2453 C2478 1.433 . S
N2453 C2484 1.435 . S
N2453 C2490 1.423 . S
H2454 C2480 0.930 . S
H2455 C2483 0.931 . S
H2456 C2482 0.929 . S
H2457 C2485 0.930 . S
H2458 C2486 0.932 . S
H2459 C2489 0.929 . S
H2460 C2488 0.931 . S
H2461 C2491 0.929 . S
H2462 C2495 0.932 . S
H2463 C2492 0.931 . S
H2464 C2494 0.929 . S
H2465 C2497 0.929 . S
H2466 C2498 0.930 . S
H2467 C2500 0.929 . S
H2468 C2501 0.931 . S
H2469 C2503 0.930 . S
H2470 C2504 0.932 . S
H2471 C2506 0.931 . S
H2472 C2507 0.929 . S
H2473 C2509 0.929 . S
H2474 C2510 0.931 . S
H2475 C2512 0.929 . S
N2476 C2496 1.433 . S
N2476 C2502 1.435 . S
N2476 C2508 1.423 . S
H2477 C2513 0.932 . S
C2478 N2453 1.433 . S
C2478 C2479 1.363 . S
C2478 C2483 1.370 . S
C2479 H2452 0.929 . S
C2479 C2478 1.363 . S
C2479 C2480 1.385 . S
C2480 H2454 0.930 . S
C2480 C2479 1.385 . S
C2480 C2481 1.357 . S
C2481 C2480 1.357 . S
C2481 C2482 1.406 . S
C2482 H2456 0.929 . S
C2482 C2481 1.406 . S
C2482 C2483 1.391 . S
C2483 H2455 0.931 . S
C2483 C2478 1.370 . S
C2483 C2482 1.391 . S
C2484 N2453 1.435 . S
C2484 C2485 1.358 . S
C2484 C2489 1.371 . S
C2485 H2457 0.930 . S
C2485 C2484 1.358 . S
C2485 C2486 1.405 . S
C2486 H2458 0.932 . S
C2486 C2485 1.405 . S
C2486 C2487 1.383 . S
C2487 C2486 1.383 . S
C2487 C2488 1.393 . S
C2488 H2460 0.931 . S
C2488 C2487 1.393 . S
C2488 C2489 1.382 . S
C2489 H2459 0.929 . S
C2489 C2484 1.371 . S
C2489 C2488 1.382 . S
C2490 N2453 1.423 . S
C2490 C2491 1.362 . S
C2490 C2495 1.388 . S
C2491 H2461 0.929 . S
C2491 C2490 1.362 . S
C2491 C2492 1.376 . S
C2492 H2463 0.931 . S
C2492 C2491 1.376 . S
C2492 C2493 1.396 . S
C2493 C2492 1.396 . S
C2493 C2494 1.348 . S
C2493 C2511 1.472 . S
C2494 H2464 0.929 . S
C2494 C2493 1.348 . S
C2494 C2495 1.443 . S
C2495 H2462 0.932 . S
C2495 C2490 1.388 . S
C2495 C2494 1.443 . S
C2496 N2476 1.433 . S
C2496 C2497 1.363 . S
C2496 C2501 1.370 . S
C2497 H2465 0.929 . S
C2497 C2496 1.363 . S
C2497 C2498 1.385 . S
C2498 H2466 0.930 . S
C2498 C2497 1.385 . S
C2498 C2499 1.357 . S
C2499 C2498 1.357 . S
C2499 C2500 1.406 . S
C2500 H2467 0.929 . S
C2500 C2499 1.406 . S
C2500 C2501 1.391 . S
C2501 H2468 0.931 . S
C2501 C2496 1.370 . S
C2501 C2500 1.391 . S
C2502 N2476 1.435 . S
C2502 C2503 1.358 . S
C2502 C2507 1.371 . S
C2503 H2469 0.930 . S
C2503 C2502 1.358 . S
C2503 C2504 1.405 . S
C2504 H2470 0.932 . S
C2504 C2503 1.405 . S
C2504 C2505 1.383 . S
C2505 C2504 1.383 . S
C2505 C2506 1.393 . S
C2506 H2471 0.931 . S
C2506 C2505 1.393 . S
C2506 C2507 1.382 . S
C2507 H2472 0.929 . S
C2507 C2502 1.371 . S
C2507 C2506 1.382 . S
C2508 N2476 1.423 . S
C2508 C2509 1.362 . S
C2508 C2513 1.388 . S
C2509 H2473 0.929 . S
C2509 C2508 1.362 . S
C2509 C2510 1.376 . S
C2510 H2474 0.931 . S
C2510 C2509 1.376 . S
C2510 C2511 1.396 . S
C2511 C2493 1.472 . S
C2511 C2510 1.396 . S
C2511 C2512 1.348 . S
C2512 H2475 0.929 . S
C2512 C2511 1.348 . S
C2512 C2513 1.443 . S
C2513 H2477 0.932 . S
C2513 C2508 1.388 . S
C2513 C2512 1.443 . S
H2514 C2541 0.929 . S
N2515 C2540 1.433 . S
N2515 C2546 1.435 . S
N2515 C2552 1.423 . S
H2516 C2542 0.930 . S
H2517 C2545 0.931 . S
H2518 C2544 0.929 . S
H2519 C2547 0.930 . S
H2520 C2548 0.932 . S
H2521 C2551 0.929 . S
H2522 C2550 0.931 . S
H2523 C2553 0.929 . S
H2524 C2557 0.932 . S
H2525 C2554 0.931 . S
H2526 C2556 0.929 . S
H2527 C2559 0.929 . S
H2528 C2560 0.930 . S
H2529 C2562 0.929 . S
H2530 C2563 0.931 . S
H2531 C2565 0.930 . S
H2532 C2566 0.932 . S
H2533 C2568 0.931 . S
H2534 C2569 0.929 . S
H2535 C2571 0.929 . S
H2536 C2572 0.931 . S
H2537 C2574 0.929 . S
N2538 C2558 1.433 . S
N2538 C2564 1.435 . S
N2538 C2570 1.423 . S
H2539 C2575 0.932 . S
C2540 N2515 1.433 . S
C2540 C2541 1.363 . S
C2540 C2545 1.370 . S
C2541 H2514 0.929 . S
C2541 C2540 1.363 . S
C2541 C2542 1.385 . S
C2542 H2516 0.930 . S
C2542 C2541 1.385 . S
C2542 C2543 1.357 . S
C2543 C2542 1.357 . S
C2543 C2544 1.406 . S
C2544 H2518 0.929 . S
C2544 C2543 1.406 . S
C2544 C2545 1.391 . S
C2545 H2517 0.931 . S
C2545 C2540 1.370 . S
C2545 C2544 1.391 . S
C2546 N2515 1.435 . S
C2546 C2547 1.358 . S
C2546 C2551 1.371 . S
C2547 H2519 0.930 . S
C2547 C2546 1.358 . S
C2547 C2548 1.405 . S
C2548 H2520 0.932 . S
C2548 C2547 1.405 . S
C2548 C2549 1.383 . S
C2549 C2548 1.383 . S
C2549 C2550 1.393 . S
C2550 H2522 0.931 . S
C2550 C2549 1.393 . S
C2550 C2551 1.382 . S
C2551 H2521 0.929 . S
C2551 C2546 1.371 . S
C2551 C2550 1.382 . S
C2552 N2515 1.423 . S
C2552 C2553 1.362 . S
C2552 C2557 1.388 . S
C2553 H2523 0.929 . S
C2553 C2552 1.362 . S
C2553 C2554 1.376 . S
C2554 H2525 0.931 . S
C2554 C2553 1.376 . S
C2554 C2555 1.396 . S
C2555 C2554 1.396 . S
C2555 C2556 1.348 . S
C2555 C2573 1.472 . S
C2556 H2526 0.929 . S
C2556 C2555 1.348 . S
C2556 C2557 1.443 . S
C2557 H2524 0.932 . S
C2557 C2552 1.388 . S
C2557 C2556 1.443 . S
C2558 N2538 1.433 . S
C2558 C2559 1.363 . S
C2558 C2563 1.370 . S
C2559 H2527 0.929 . S
C2559 C2558 1.363 . S
C2559 C2560 1.385 . S
C2560 H2528 0.930 . S
C2560 C2559 1.385 . S
C2560 C2561 1.357 . S
C2561 C2560 1.357 . S
C2561 C2562 1.406 . S
C2562 H2529 0.929 . S
C2562 C2561 1.406 . S
C2562 C2563 1.391 . S
C2563 H2530 0.931 . S
C2563 C2558 1.370 . S
C2563 C2562 1.391 . S
C2564 N2538 1.435 . S
C2564 C2565 1.358 . S
C2564 C2569 1.371 . S
C2565 H2531 0.930 . S
C2565 C2564 1.358 . S
C2565 C2566 1.405 . S
C2566 H2532 0.932 . S
C2566 C2565 1.405 . S
C2566 C2567 1.383 . S
C2567 C2566 1.383 . S
C2567 C2568 1.393 . S
C2568 H2533 0.931 . S
C2568 C2567 1.393 . S
C2568 C2569 1.382 . S
C2569 H2534 0.929 . S
C2569 C2564 1.371 . S
C2569 C2568 1.382 . S
C2570 N2538 1.423 . S
C2570 C2571 1.362 . S
C2570 C2575 1.388 . S
C2571 H2535 0.929 . S
C2571 C2570 1.362 . S
C2571 C2572 1.376 . S
C2572 H2536 0.931 . S
C2572 C2571 1.376 . S
C2572 C2573 1.396 . S
C2573 C2555 1.472 . S
C2573 C2572 1.396 . S
C2573 C2574 1.348 . S
C2574 H2537 0.929 . S
C2574 C2573 1.348 . S
C2574 C2575 1.443 . S
C2575 H2539 0.932 . S
C2575 C2570 1.388 . S
C2575 C2574 1.443 . S
H2576 C2603 0.929 . S
N2577 C2602 1.433 . S
N2577 C2608 1.435 . S
N2577 C2614 1.423 . S
H2578 C2604 0.930 . S
H2579 C2607 0.931 . S
H2580 C2606 0.929 . S
H2581 C2609 0.930 . S
H2582 C2610 0.932 . S
H2583 C2613 0.929 . S
H2584 C2612 0.931 . S
H2585 C2615 0.929 . S
H2586 C2619 0.932 . S
H2587 C2616 0.931 . S
H2588 C2618 0.929 . S
H2589 C2621 0.929 . S
H2590 C2622 0.930 . S
H2591 C2624 0.929 . S
H2592 C2625 0.931 . S
H2593 C2627 0.930 . S
H2594 C2628 0.932 . S
H2595 C2630 0.931 . S
H2596 C2631 0.929 . S
H2597 C2633 0.929 . S
H2598 C2634 0.931 . S
H2599 C2636 0.929 . S
N2600 C2620 1.433 . S
N2600 C2626 1.435 . S
N2600 C2632 1.423 . S
H2601 C2637 0.932 . S
C2602 N2577 1.433 . S
C2602 C2603 1.363 . S
C2602 C2607 1.370 . S
C2603 H2576 0.929 . S
C2603 C2602 1.363 . S
C2603 C2604 1.385 . S
C2604 H2578 0.930 . S
C2604 C2603 1.385 . S
C2604 C2605 1.357 . S
C2605 C2604 1.357 . S
C2605 C2606 1.406 . S
C2606 H2580 0.929 . S
C2606 C2605 1.406 . S
C2606 C2607 1.391 . S
C2607 H2579 0.931 . S
C2607 C2602 1.370 . S
C2607 C2606 1.391 . S
C2608 N2577 1.435 . S
C2608 C2609 1.358 . S
C2608 C2613 1.371 . S
C2609 H2581 0.930 . S
C2609 C2608 1.358 . S
C2609 C2610 1.405 . S
C2610 H2582 0.932 . S
C2610 C2609 1.405 . S
C2610 C2611 1.383 . S
C2611 C2610 1.383 . S
C2611 C2612 1.393 . S
C2612 H2584 0.931 . S
C2612 C2611 1.393 . S
C2612 C2613 1.382 . S
C2613 H2583 0.929 . S
C2613 C2608 1.371 . S
C2613 C2612 1.382 . S
C2614 N2577 1.423 . S
C2614 C2615 1.362 . S
C2614 C2619 1.388 . S
C2615 H2585 0.929 . S
C2615 C2614 1.362 . S
C2615 C2616 1.376 . S
C2616 H2587 0.931 . S
C2616 C2615 1.376 . S
C2616 C2617 1.396 . S
C2617 C2616 1.396 . S
C2617 C2618 1.348 . S
C2617 C2635 1.472 . S
C2618 H2588 0.929 . S
C2618 C2617 1.348 . S
C2618 C2619 1.443 . S
C2619 H2586 0.932 . S
C2619 C2614 1.388 . S
C2619 C2618 1.443 . S
C2620 N2600 1.433 . S
C2620 C2621 1.363 . S
C2620 C2625 1.370 . S
C2621 H2589 0.929 . S
C2621 C2620 1.363 . S
C2621 C2622 1.385 . S
C2622 H2590 0.930 . S
C2622 C2621 1.385 . S
C2622 C2623 1.357 . S
C2623 C2622 1.357 . S
C2623 C2624 1.406 . S
C2624 H2591 0.929 . S
C2624 C2623 1.406 . S
C2624 C2625 1.391 . S
C2625 H2592 0.931 . S
C2625 C2620 1.370 . S
C2625 C2624 1.391 . S
C2626 N2600 1.435 . S
C2626 C2627 1.358 . S
C2626 C2631 1.371 . S
C2627 H2593 0.930 . S
C2627 C2626 1.358 . S
C2627 C2628 1.405 . S
C2628 H2594 0.932 . S
C2628 C2627 1.405 . S
C2628 C2629 1.383 . S
C2629 C2628 1.383 . S
C2629 C2630 1.393 . S
C2630 H2595 0.931 . S
C2630 C2629 1.393 . S
C2630 C2631 1.382 . S
C2631 H2596 0.929 . S
C2631 C2626 1.371 . S
C2631 C2630 1.382 . S
C2632 N2600 1.423 . S
C2632 C2633 1.362 . S
C2632 C2637 1.388 . S
C2633 H2597 0.929 . S
C2633 C2632 1.362 . S
C2633 C2634 1.376 . S
C2634 H2598 0.931 . S
C2634 C2633 1.376 . S
C2634 C2635 1.396 . S
C2635 C2617 1.472 . S
C2635 C2634 1.396 . S
C2635 C2636 1.348 . S
C2636 H2599 0.929 . S
C2636 C2635 1.348 . S
C2636 C2637 1.443 . S
C2637 H2601 0.932 . S
C2637 C2632 1.388 . S
C2637 C2636 1.443 . S
H2638 C2665 0.929 . S
N2639 C2664 1.433 . S
N2639 C2670 1.435 . S
N2639 C2676 1.423 . S
H2640 C2666 0.930 . S
H2641 C2669 0.931 . S
H2642 C2668 0.929 . S
H2643 C2671 0.930 . S
H2644 C2672 0.932 . S
H2645 C2675 0.929 . S
H2646 C2674 0.931 . S
H2647 C2677 0.929 . S
H2648 C2681 0.932 . S
H2649 C2678 0.931 . S
H2650 C2680 0.929 . S
H2651 C2683 0.929 . S
H2652 C2684 0.930 . S
H2653 C2686 0.929 . S
H2654 C2687 0.931 . S
H2655 C2689 0.930 . S
H2656 C2690 0.932 . S
H2657 C2692 0.931 . S
H2658 C2693 0.929 . S
H2659 C2695 0.929 . S
H2660 C2696 0.931 . S
H2661 C2698 0.929 . S
N2662 C2682 1.433 . S
N2662 C2688 1.435 . S
N2662 C2694 1.423 . S
H2663 C2699 0.932 . S
C2664 N2639 1.433 . S
C2664 C2665 1.363 . S
C2664 C2669 1.370 . S
C2665 H2638 0.929 . S
C2665 C2664 1.363 . S
C2665 C2666 1.385 . S
C2666 H2640 0.930 . S
C2666 C2665 1.385 . S
C2666 C2667 1.357 . S
C2667 C2666 1.357 . S
C2667 C2668 1.406 . S
C2668 H2642 0.929 . S
C2668 C2667 1.406 . S
C2668 C2669 1.391 . S
C2669 H2641 0.931 . S
C2669 C2664 1.370 . S
C2669 C2668 1.391 . S
C2670 N2639 1.435 . S
C2670 C2671 1.358 . S
C2670 C2675 1.371 . S
C2671 H2643 0.930 . S
C2671 C2670 1.358 . S
C2671 C2672 1.405 . S
C2672 H2644 0.932 . S
C2672 C2671 1.405 . S
C2672 C2673 1.383 . S
C2673 C2672 1.383 . S
C2673 C2674 1.393 . S
C2674 H2646 0.931 . S
C2674 C2673 1.393 . S
C2674 C2675 1.382 . S
C2675 H2645 0.929 . S
C2675 C2670 1.371 . S
C2675 C2674 1.382 . S
C2676 N2639 1.423 . S
C2676 C2677 1.362 . S
C2676 C2681 1.388 . S
C2677 H2647 0.929 . S
C2677 C2676 1.362 . S
C2677 C2678 1.376 . S
C2678 H2649 0.931 . S
C2678 C2677 1.376 . S
C2678 C2679 1.396 . S
C2679 C2678 1.396 . S
C2679 C2680 1.348 . S
C2679 C2697 1.472 . S
C2680 H2650 0.929 . S
C2680 C2679 1.348 . S
C2680 C2681 1.443 . S
C2681 H2648 0.932 . S
C2681 C2676 1.388 . S
C2681 C2680 1.443 . S
C2682 N2662 1.433 . S
C2682 C2683 1.363 . S
C2682 C2687 1.370 . S
C2683 H2651 0.929 . S
C2683 C2682 1.363 . S
C2683 C2684 1.385 . S
C2684 H2652 0.930 . S
C2684 C2683 1.385 . S
C2684 C2685 1.357 . S
C2685 C2684 1.357 . S
C2685 C2686 1.406 . S
C2686 H2653 0.929 . S
C2686 C2685 1.406 . S
C2686 C2687 1.391 . S
C2687 H2654 0.931 . S
C2687 C2682 1.370 . S
C2687 C2686 1.391 . S
C2688 N2662 1.435 . S
C2688 C2689 1.358 . S
C2688 C2693 1.371 . S
C2689 H2655 0.930 . S
C2689 C2688 1.358 . S
C2689 C2690 1.405 . S
C2690 H2656 0.932 . S
C2690 C2689 1.405 . S
C2690 C2691 1.383 . S
C2691 C2690 1.383 . S
C2691 C2692 1.393 . S
C2692 H2657 0.931 . S
C2692 C2691 1.393 . S
C2692 C2693 1.382 . S
C2693 H2658 0.929 . S
C2693 C2688 1.371 . S
C2693 C2692 1.382 . S
C2694 N2662 1.423 . S
C2694 C2695 1.362 . S
C2694 C2699 1.388 . S
C2695 H2659 0.929 . S
C2695 C2694 1.362 . S
C2695 C2696 1.376 . S
C2696 H2660 0.931 . S
C2696 C2695 1.376 . S
C2696 C2697 1.396 . S
C2697 C2679 1.472 . S
C2697 C2696 1.396 . S
C2697 C2698 1.348 . S
C2698 H2661 0.929 . S
C2698 C2697 1.348 . S
C2698 C2699 1.443 . S
C2699 H2663 0.932 . S
C2699 C2694 1.388 . S
C2699 C2698 1.443 . S
H2700 C2706 0.930 1_455 S
H2701 C2709 0.930 . S
H2702 C2710 0.930 . S
H2703 C2711 0.930 . S
H2704 C2714 0.930 . S
H2705 C2715 0.930 . S
C2706 H2700 0.930 1_655 S
C2706 C2707 1.355 . S
C2706 C2708 1.415 . S
C2707 C2706 1.355 . S
C2707 C2709 1.419 . S
C2708 C2706 1.415 . S
C2708 C2713 1.425 . S
C2708 C2715 1.409 1_655 S
C2709 H2701 0.930 . S
C2709 C2707 1.419 . S
C2709 C2710 1.362 . S
C2710 H2702 0.930 . S
C2710 C2709 1.362 . S
C2710 C2713 1.409 . S
C2711 H2703 0.930 . S
C2711 C2712 1.355 . S
C2711 C2713 1.415 . S
C2712 C2711 1.355 . S
C2712 C2714 1.419 1_655 S
C2713 C2708 1.425 . S
C2713 C2710 1.409 . S
C2713 C2711 1.415 . S
C2714 H2704 0.930 . S
C2714 C2712 1.419 1_455 S
C2714 C2715 1.362 . S
C2715 H2705 0.930 . S
C2715 C2708 1.409 1_455 S
C2715 C2714 1.362 . S
H2716 C2722 0.930 . S
H2717 C2725 0.930 . S
H2718 C2726 0.930 . S
H2719 C2727 0.930 . S
H2720 C2730 0.930 . S
H2721 C2731 0.930 . S
C2722 H2716 0.930 . S
C2722 C2723 1.355 . S
C2722 C2724 1.415 . S
C2723 C2722 1.355 . S
C2723 C2725 1.419 . S
C2724 C2722 1.415 . S
C2724 C2729 1.425 . S
C2724 C2731 1.409 . S
C2725 H2717 0.930 . S
C2725 C2723 1.419 . S
C2725 C2726 1.362 . S
C2726 H2718 0.930 . S
C2726 C2725 1.362 . S
C2726 C2729 1.409 . S
C2727 H2719 0.930 . S
C2727 C2728 1.355 . S
C2727 C2729 1.415 . S
C2728 C2727 1.355 . S
C2728 C2730 1.419 . S
C2729 C2724 1.425 . S
C2729 C2726 1.409 . S
C2729 C2727 1.415 . S
C2730 H2720 0.930 . S
C2730 C2728 1.419 . S
C2730 C2731 1.362 . S
C2731 H2721 0.930 . S
C2731 C2724 1.409 . S
C2731 C2730 1.362 . S
H2732 C2738 0.930 1_565 S
H2733 C2741 0.930 . S
H2734 C2742 0.930 . S
H2735 C2743 0.930 . S
H2736 C2746 0.930 . S
H2737 C2747 0.930 . S
C2738 H2732 0.930 1_545 S
C2738 C2739 1.355 . S
C2738 C2740 1.415 . S
C2739 C2738 1.355 . S
C2739 C2741 1.419 . S
C2740 C2738 1.415 . S
C2740 C2745 1.425 . S
C2740 C2747 1.409 1_545 S
C2741 H2733 0.930 . S
C2741 C2739 1.419 . S
C2741 C2742 1.362 . S
C2742 H2734 0.930 . S
C2742 C2741 1.362 . S
C2742 C2745 1.409 . S
C2743 H2735 0.930 . S
C2743 C2744 1.355 . S
C2743 C2745 1.415 . S
C2744 C2743 1.355 . S
C2744 C2746 1.419 1_545 S
C2745 C2740 1.425 . S
C2745 C2742 1.409 . S
C2745 C2743 1.415 . S
C2746 H2736 0.930 . S
C2746 C2744 1.419 1_565 S
C2746 C2747 1.362 . S
C2747 H2737 0.930 . S
C2747 C2740 1.409 1_565 S
C2747 C2746 1.362 . S
H2748 C2754 0.930 . S
H2749 C2757 0.930 . S
H2750 C2758 0.930 1_545 S
H2751 C2759 0.930 1_545 S
H2752 C2762 0.930 . S
H2753 C2763 0.930 . S
C2754 H2748 0.930 . S
C2754 C2755 1.355 . S
C2754 C2756 1.415 . S
C2755 C2754 1.355 . S
C2755 C2757 1.419 . S
C2756 C2754 1.415 . S
C2756 C2761 1.425 . S
C2756 C2763 1.409 . S
C2757 H2749 0.930 . S
C2757 C2755 1.419 . S
C2757 C2758 1.362 . S
C2758 H2750 0.930 1_565 S
C2758 C2757 1.362 . S
C2758 C2761 1.409 . S
C2759 H2751 0.930 1_565 S
C2759 C2760 1.355 . S
C2759 C2761 1.415 . S
C2760 C2759 1.355 . S
C2760 C2762 1.419 . S
C2761 C2756 1.425 . S
C2761 C2758 1.409 . S
C2761 C2759 1.415 . S
C2762 H2752 0.930 . S
C2762 C2760 1.419 . S
C2762 C2763 1.362 . S
C2763 H2753 0.930 . S
C2763 C2756 1.409 . S
C2763 C2762 1.362 . S
H2764 C2770 0.930 . S
H2765 C2773 0.930 . S
H2766 C2774 0.930 . S
H2767 C2775 0.930 . S
H2768 C2778 0.930 . S
H2769 C2779 0.930 . S
C2770 H2764 0.930 . S
C2770 C2771 1.355 . S
C2770 C2772 1.415 . S
C2771 C2770 1.355 . S
C2771 C2773 1.419 . S
C2772 C2770 1.415 . S
C2772 C2777 1.425 . S
C2772 C2779 1.409 . S
C2773 H2765 0.930 . S
C2773 C2771 1.419 . S
C2773 C2774 1.362 . S
C2774 H2766 0.930 . S
C2774 C2773 1.362 . S
C2774 C2777 1.409 . S
C2775 H2767 0.930 . S
C2775 C2776 1.355 . S
C2775 C2777 1.415 . S
C2776 C2775 1.355 . S
C2776 C2778 1.419 . S
C2777 C2772 1.425 . S
C2777 C2774 1.409 . S
C2777 C2775 1.415 . S
C2778 H2768 0.930 . S
C2778 C2776 1.419 . S
C2778 C2779 1.362 . S
C2779 H2769 0.930 . S
C2779 C2772 1.409 . S
C2779 C2778 1.362 . S
H2780 C2786 0.930 . S
H2781 C2789 0.930 . S
H2782 C2790 0.930 . S
H2783 C2791 0.930 . S
H2784 C2794 0.930 . S
H2785 C2795 0.930 . S
C2786 H2780 0.930 . S
C2786 C2787 1.355 . S
C2786 C2788 1.415 . S
C2787 C2786 1.355 . S
C2787 C2789 1.419 . S
C2788 C2786 1.415 . S
C2788 C2793 1.425 . S
C2788 C2795 1.409 . S
C2789 H2781 0.930 . S
C2789 C2787 1.419 . S
C2789 C2790 1.362 . S
C2790 H2782 0.930 . S
C2790 C2789 1.362 . S
C2790 C2793 1.409 . S
C2791 H2783 0.930 . S
C2791 C2792 1.355 . S
C2791 C2793 1.415 . S
C2792 C2791 1.355 . S
C2792 C2794 1.419 . S
C2793 C2788 1.425 . S
C2793 C2790 1.409 . S
C2793 C2791 1.415 . S
C2794 H2784 0.930 . S
C2794 C2792 1.419 . S
C2794 C2795 1.362 . S
C2795 H2785 0.930 . S
C2795 C2788 1.409 . S
C2795 C2794 1.362 . S
H2796 C2802 0.930 1_655 S
H2797 C2805 0.930 . S
H2798 C2806 0.930 . S
H2799 C2807 0.930 . S
H2800 C2810 0.930 . S
H2801 C2811 0.930 . S
C2802 H2796 0.930 1_455 S
C2802 C2803 1.355 . S
C2802 C2804 1.415 . S
C2803 C2802 1.355 . S
C2803 C2805 1.419 . S
C2804 C2802 1.415 . S
C2804 C2809 1.425 . S
C2804 C2811 1.409 1_455 S
C2805 H2797 0.930 . S
C2805 C2803 1.419 . S
C2805 C2806 1.362 . S
C2806 H2798 0.930 . S
C2806 C2805 1.362 . S
C2806 C2809 1.409 . S
C2807 H2799 0.930 . S
C2807 C2808 1.355 . S
C2807 C2809 1.415 . S
C2808 C2807 1.355 . S
C2808 C2810 1.419 1_455 S
C2809 C2804 1.425 . S
C2809 C2806 1.409 . S
C2809 C2807 1.415 . S
C2810 H2800 0.930 . S
C2810 C2808 1.419 1_655 S
C2810 C2811 1.362 . S
C2811 H2801 0.930 . S
C2811 C2804 1.409 1_655 S
C2811 C2810 1.362 . S
H2812 C2818 0.930 . S
H2813 C2821 0.930 . S
H2814 C2822 0.930 . S
H2815 C2823 0.930 . S
H2816 C2826 0.930 . S
H2817 C2827 0.930 . S
C2818 H2812 0.930 . S
C2818 C2819 1.355 . S
C2818 C2820 1.415 . S
C2819 C2818 1.355 . S
C2819 C2821 1.419 . S
C2820 C2818 1.415 . S
C2820 C2825 1.425 . S
C2820 C2827 1.409 . S
C2821 H2813 0.930 . S
C2821 C2819 1.419 . S
C2821 C2822 1.362 . S
C2822 H2814 0.930 . S
C2822 C2821 1.362 . S
C2822 C2825 1.409 . S
C2823 H2815 0.930 . S
C2823 C2824 1.355 . S
C2823 C2825 1.415 . S
C2824 C2823 1.355 . S
C2824 C2826 1.419 . S
C2825 C2820 1.425 . S
C2825 C2822 1.409 . S
C2825 C2823 1.415 . S
C2826 H2816 0.930 . S
C2826 C2824 1.419 . S
C2826 C2827 1.362 . S
C2827 H2817 0.930 . S
C2827 C2820 1.409 . S
C2827 C2826 1.362 . S
H2828 C2834 0.930 . S
H2829 C2837 0.930 . S
H2830 C2838 0.930 . S
H2831 C2839 0.930 . S
H2832 C2842 0.930 . S
H2833 C2843 0.930 . S
C2834 H2828 0.930 . S
C2834 C2835 1.355 . S
C2834 C2836 1.415 . S
C2835 C2834 1.355 . S
C2835 C2837 1.419 . S
C2836 C2834 1.415 . S
C2836 C2841 1.425 . S
C2836 C2843 1.409 . S
C2837 H2829 0.930 . S
C2837 C2835 1.419 . S
C2837 C2838 1.362 . S
C2838 H2830 0.930 . S
C2838 C2837 1.362 . S
C2838 C2841 1.409 . S
C2839 H2831 0.930 . S
C2839 C2840 1.355 . S
C2839 C2841 1.415 . S
C2840 C2839 1.355 . S
C2840 C2842 1.419 . S
C2841 C2836 1.425 . S
C2841 C2838 1.409 . S
C2841 C2839 1.415 . S
C2842 H2832 0.930 . S
C2842 C2840 1.419 . S
C2842 C2843 1.362 . S
C2843 H2833 0.930 . S
C2843 C2836 1.409 . S
C2843 C2842 1.362 . S
H2844 C2850 0.930 . S
H2845 C2853 0.930 . S
H2846 C2854 0.930 . S
H2847 C2855 0.930 . S
H2848 C2858 0.930 . S
H2849 C2859 0.930 . S
C2850 H2844 0.930 . S
C2850 C2851 1.355 . S
C2850 C2852 1.415 . S
C2851 C2850 1.355 . S
C2851 C2853 1.419 . S
C2852 C2850 1.415 . S
C2852 C2857 1.425 . S
C2852 C2859 1.409 . S
C2853 H2845 0.930 . S
C2853 C2851 1.419 . S
C2853 C2854 1.362 . S
C2854 H2846 0.930 . S
C2854 C2853 1.362 . S
C2854 C2857 1.409 . S
C2855 H2847 0.930 . S
C2855 C2856 1.355 . S
C2855 C2857 1.415 . S
C2856 C2855 1.355 . S
C2856 C2858 1.419 . S
C2857 C2852 1.425 . S
C2857 C2854 1.409 . S
C2857 C2855 1.415 . S
C2858 H2848 0.930 . S
C2858 C2856 1.419 . S
C2858 C2859 1.362 . S
C2859 H2849 0.930 . S
C2859 C2852 1.409 . S
C2859 C2858 1.362 . S
H2860 C2866 0.930 1_455 S
H2861 C2869 0.930 . S
H2862 C2870 0.930 . S
H2863 C2871 0.930 . S
H2864 C2874 0.930 . S
H2865 C2875 0.930 . S
C2866 H2860 0.930 1_655 S
C2866 C2867 1.355 . S
C2866 C2868 1.415 . S
C2867 C2866 1.355 . S
C2867 C2869 1.419 . S
C2868 C2866 1.415 . S
C2868 C2873 1.425 . S
C2868 C2875 1.409 1_655 S
C2869 H2861 0.930 . S
C2869 C2867 1.419 . S
C2869 C2870 1.362 . S
C2870 H2862 0.930 . S
C2870 C2869 1.362 . S
C2870 C2873 1.409 . S
C2871 H2863 0.930 . S
C2871 C2872 1.355 . S
C2871 C2873 1.415 . S
C2872 C2871 1.355 . S
C2872 C2874 1.419 1_655 S
C2873 C2868 1.425 . S
C2873 C2870 1.409 . S
C2873 C2871 1.415 . S
C2874 H2864 0.930 . S
C2874 C2872 1.419 1_455 S
C2874 C2875 1.362 . S
C2875 H2865 0.930 . S
C2875 C2868 1.409 1_455 S
C2875 C2874 1.362 . S
H2876 C2882 0.930 . S
H2877 C2885 0.930 . S
H2878 C2886 0.930 . S
H2879 C2887 0.930 . S
H2880 C2890 0.930 . S
H2881 C2891 0.930 . S
C2882 H2876 0.930 . S
C2882 C2883 1.355 . S
C2882 C2884 1.415 . S
C2883 C2882 1.355 . S
C2883 C2885 1.419 . S
C2884 C2882 1.415 . S
C2884 C2889 1.425 . S
C2884 C2891 1.409 . S
C2885 H2877 0.930 . S
C2885 C2883 1.419 . S
C2885 C2886 1.362 . S
C2886 H2878 0.930 . S
C2886 C2885 1.362 . S
C2886 C2889 1.409 . S
C2887 H2879 0.930 . S
C2887 C2888 1.355 . S
C2887 C2889 1.415 . S
C2888 C2887 1.355 . S
C2888 C2890 1.419 . S
C2889 C2884 1.425 . S
C2889 C2886 1.409 . S
C2889 C2887 1.415 . S
C2890 H2880 0.930 . S
C2890 C2888 1.419 . S
C2890 C2891 1.362 . S
C2891 H2881 0.930 . S
C2891 C2884 1.409 . S
C2891 C2890 1.362 . S
H2892 C2898 0.930 . S
H2893 C2901 0.930 . S
H2894 C2902 0.930 . S
H2895 C2903 0.930 . S
H2896 C2906 0.930 . S
H2897 C2907 0.930 . S
C2898 H2892 0.930 . S
C2898 C2899 1.355 . S
C2898 C2900 1.415 . S
C2899 C2898 1.355 . S
C2899 C2901 1.419 . S
C2900 C2898 1.415 . S
C2900 C2905 1.425 . S
C2900 C2907 1.409 . S
C2901 H2893 0.930 . S
C2901 C2899 1.419 . S
C2901 C2902 1.362 . S
C2902 H2894 0.930 . S
C2902 C2901 1.362 . S
C2902 C2905 1.409 . S
C2903 H2895 0.930 . S
C2903 C2904 1.355 . S
C2903 C2905 1.415 . S
C2904 C2903 1.355 . S
C2904 C2906 1.419 . S
C2905 C2900 1.425 . S
C2905 C2902 1.409 . S
C2905 C2903 1.415 . S
C2906 H2896 0.930 . S
C2906 C2904 1.419 . S
C2906 C2907 1.362 . S
C2907 H2897 0.930 . S
C2907 C2900 1.409 . S
C2907 C2906 1.362 . S
H2908 C2914 0.930 . S
H2909 C2917 0.930 . S
H2910 C2918 0.930 . S
H2911 C2919 0.930 . S
H2912 C2922 0.930 . S
H2913 C2923 0.930 . S
C2914 H2908 0.930 . S
C2914 C2915 1.355 . S
C2914 C2916 1.415 . S
C2915 C2914 1.355 . S
C2915 C2917 1.419 . S
C2916 C2914 1.415 . S
C2916 C2921 1.425 . S
C2916 C2923 1.409 . S
C2917 H2909 0.930 . S
C2917 C2915 1.419 . S
C2917 C2918 1.362 . S
C2918 H2910 0.930 . S
C2918 C2917 1.362 . S
C2918 C2921 1.409 . S
C2919 H2911 0.930 . S
C2919 C2920 1.355 . S
C2919 C2921 1.415 . S
C2920 C2919 1.355 . S
C2920 C2922 1.419 . S
C2921 C2916 1.425 . S
C2921 C2918 1.409 . S
C2921 C2919 1.415 . S
C2922 H2912 0.930 . S
C2922 C2920 1.419 . S
C2922 C2923 1.362 . S
C2923 H2913 0.930 . S
C2923 C2916 1.409 . S
C2923 C2922 1.362 . S
H2924 C2930 0.930 . S
H2925 C2933 0.930 . S
H2926 C2934 0.930 . S
H2927 C2935 0.930 . S
H2928 C2938 0.930 . S
H2929 C2939 0.930 . S
C2930 H2924 0.930 . S
C2930 C2931 1.355 . S
C2930 C2932 1.415 . S
C2931 C2930 1.355 . S
C2931 C2933 1.419 . S
C2932 C2930 1.415 . S
C2932 C2937 1.425 . S
C2932 C2939 1.409 . S
C2933 H2925 0.930 . S
C2933 C2931 1.419 . S
C2933 C2934 1.362 . S
C2934 H2926 0.930 . S
C2934 C2933 1.362 . S
C2934 C2937 1.409 . S
C2935 H2927 0.930 . S
C2935 C2936 1.355 . S
C2935 C2937 1.415 . S
C2936 C2935 1.355 . S
C2936 C2938 1.419 . S
C2937 C2932 1.425 . S
C2937 C2934 1.409 . S
C2937 C2935 1.415 . S
C2938 H2928 0.930 . S
C2938 C2936 1.419 . S
C2938 C2939 1.362 . S
C2939 H2929 0.930 . S
C2939 C2932 1.409 . S
C2939 C2938 1.362 . S
H2940 C2946 0.930 . S
H2941 C2949 0.930 . S
H2942 C2950 0.930 . S
H2943 C2951 0.930 . S
H2944 C2954 0.930 . S
H2945 C2955 0.930 . S
C2946 H2940 0.930 . S
C2946 C2947 1.355 . S
C2946 C2948 1.415 . S
C2947 C2946 1.355 . S
C2947 C2949 1.419 . S
C2948 C2946 1.415 . S
C2948 C2953 1.425 . S
C2948 C2955 1.409 . S
C2949 H2941 0.930 . S
C2949 C2947 1.419 . S
C2949 C2950 1.362 . S
C2950 H2942 0.930 . S
C2950 C2949 1.362 . S
C2950 C2953 1.409 . S
C2951 H2943 0.930 . S
C2951 C2952 1.355 . S
C2951 C2953 1.415 . S
C2952 C2951 1.355 . S
C2952 C2954 1.419 . S
C2953 C2948 1.425 . S
C2953 C2950 1.409 . S
C2953 C2951 1.415 . S
C2954 H2944 0.930 . S
C2954 C2952 1.419 . S
C2954 C2955 1.362 . S
C2955 H2945 0.930 . S
C2955 C2948 1.409 . S
C2955 C2954 1.362 . S
H2956 C2962 0.930 . S
H2957 C2965 0.930 . S
H2958 C2966 0.930 . S
H2959 C2967 0.930 . S
H2960 C2970 0.930 . S
H2961 C2971 0.930 . S
C2962 H2956 0.930 . S
C2962 C2963 1.355 . S
C2962 C2964 1.415 . S
C2963 C2962 1.355 . S
C2963 C2965 1.419 . S
C2964 C2962 1.415 . S
C2964 C2969 1.425 . S
C2964 C2971 1.409 . S
C2965 H2957 0.930 . S
C2965 C2963 1.419 . S
C2965 C2966 1.362 . S
C2966 H2958 0.930 . S
C2966 C2965 1.362 . S
C2966 C2969 1.409 . S
C2967 H2959 0.930 . S
C2967 C2968 1.355 . S
C2967 C2969 1.415 . S
C2968 C2967 1.355 . S
C2968 C2970 1.419 . S
C2969 C2964 1.425 . S
C2969 C2966 1.409 . S
C2969 C2967 1.415 . S
C2970 H2960 0.930 . S
C2970 C2968 1.419 . S
C2970 C2971 1.362 . S
C2971 H2961 0.930 . S
C2971 C2964 1.409 . S
C2971 C2970 1.362 . S
H2972 C2978 0.930 . S
H2973 C2981 0.930 . S
H2974 C2982 0.930 . S
H2975 C2983 0.930 . S
H2976 C2986 0.930 . S
H2977 C2987 0.930 . S
C2978 H2972 0.930 . S
C2978 C2979 1.355 . S
C2978 C2980 1.415 . S
C2979 C2978 1.355 . S
C2979 C2981 1.419 . S
C2980 C2978 1.415 . S
C2980 C2985 1.425 . S
C2980 C2987 1.409 . S
C2981 H2973 0.930 . S
C2981 C2979 1.419 . S
C2981 C2982 1.362 . S
C2982 H2974 0.930 . S
C2982 C2981 1.362 . S
C2982 C2985 1.409 . S
C2983 H2975 0.930 . S
C2983 C2984 1.355 . S
C2983 C2985 1.415 . S
C2984 C2983 1.355 . S
C2984 C2986 1.419 . S
C2985 C2980 1.425 . S
C2985 C2982 1.409 . S
C2985 C2983 1.415 . S
C2986 H2976 0.930 . S
C2986 C2984 1.419 . S
C2986 C2987 1.362 . S
C2987 H2977 0.930 . S
C2987 C2980 1.409 . S
C2987 C2986 1.362 . S
H2988 C2994 0.930 . S
H2989 C2997 0.930 . S
H2990 C2998 0.930 . S
H2991 C2999 0.930 . S
H2992 C3002 0.930 . S
H2993 C3003 0.930 . S
C2994 H2988 0.930 . S
C2994 C2995 1.355 . S
C2994 C2996 1.415 . S
C2995 C2994 1.355 . S
C2995 C2997 1.419 . S
C2996 C2994 1.415 . S
C2996 C3001 1.425 . S
C2996 C3003 1.409 . S
C2997 H2989 0.930 . S
C2997 C2995 1.419 . S
C2997 C2998 1.362 . S
C2998 H2990 0.930 . S
C2998 C2997 1.362 . S
C2998 C3001 1.409 . S
C2999 H2991 0.930 . S
C2999 C3000 1.355 . S
C2999 C3001 1.415 . S
C3000 C2999 1.355 . S
C3000 C3002 1.419 . S
C3001 C2996 1.425 . S
C3001 C2998 1.409 . S
C3001 C2999 1.415 . S
C3002 H2992 0.930 . S
C3002 C3000 1.419 . S
C3002 C3003 1.362 . S
C3003 H2993 0.930 . S
C3003 C2996 1.409 . S
C3003 C3002 1.362 . S
H3004 C3010 0.930 . S
H3005 C3013 0.930 . S
H3006 C3014 0.930 . S
H3007 C3015 0.930 . S
H3008 C3018 0.930 . S
H3009 C3019 0.930 . S
C3010 H3004 0.930 . S
C3010 C3011 1.355 . S
C3010 C3012 1.415 . S
C3011 C3010 1.355 . S
C3011 C3013 1.419 . S
C3012 C3010 1.415 . S
C3012 C3017 1.425 . S
C3012 C3019 1.409 . S
C3013 H3005 0.930 . S
C3013 C3011 1.419 . S
C3013 C3014 1.362 . S
C3014 H3006 0.930 . S
C3014 C3013 1.362 . S
C3014 C3017 1.409 . S
C3015 H3007 0.930 . S
C3015 C3016 1.355 . S
C3015 C3017 1.415 . S
C3016 C3015 1.355 . S
C3016 C3018 1.419 . S
C3017 C3012 1.425 . S
C3017 C3014 1.409 . S
C3017 C3015 1.415 . S
C3018 H3008 0.930 . S
C3018 C3016 1.419 . S
C3018 C3019 1.362 . S
C3019 H3009 0.930 . S
C3019 C3012 1.409 . S
C3019 C3018 1.362 . S
H3020 C3026 0.930 . S
H3021 C3029 0.930 . S
H3022 C3030 0.930 . S
H3023 C3031 0.930 . S
H3024 C3034 0.930 . S
H3025 C3035 0.930 . S
C3026 H3020 0.930 . S
C3026 C3027 1.355 . S
C3026 C3028 1.415 . S
C3027 C3026 1.355 . S
C3027 C3029 1.419 . S
C3028 C3026 1.415 . S
C3028 C3033 1.425 . S
C3028 C3035 1.409 . S
C3029 H3021 0.930 . S
C3029 C3027 1.419 . S
C3029 C3030 1.362 . S
C3030 H3022 0.930 . S
C3030 C3029 1.362 . S
C3030 C3033 1.409 . S
C3031 H3023 0.930 . S
C3031 C3032 1.355 . S
C3031 C3033 1.415 . S
C3032 C3031 1.355 . S
C3032 C3034 1.419 . S
C3033 C3028 1.425 . S
C3033 C3030 1.409 . S
C3033 C3031 1.415 . S
C3034 H3024 0.930 . S
C3034 C3032 1.419 . S
C3034 C3035 1.362 . S
C3035 H3025 0.930 . S
C3035 C3028 1.409 . S
C3035 C3034 1.362 . S
H3036 C3042 0.930 . S
H3037 C3045 0.930 . S
H3038 C3046 0.930 . S
H3039 C3047 0.930 . S
H3040 C3050 0.930 . S
H3041 C3051 0.930 . S
C3042 H3036 0.930 . S
C3042 C3043 1.355 . S
C3042 C3044 1.415 . S
C3043 C3042 1.355 . S
C3043 C3045 1.419 . S
C3044 C3042 1.415 . S
C3044 C3049 1.425 . S
C3044 C3051 1.409 . S
C3045 H3037 0.930 . S
C3045 C3043 1.419 . S
C3045 C3046 1.362 . S
C3046 H3038 0.930 . S
C3046 C3045 1.362 . S
C3046 C3049 1.409 . S
C3047 H3039 0.930 . S
C3047 C3048 1.355 . S
C3047 C3049 1.415 . S
C3048 C3047 1.355 . S
C3048 C3050 1.419 . S
C3049 C3044 1.425 . S
C3049 C3046 1.409 . S
C3049 C3047 1.415 . S
C3050 H3040 0.930 . S
C3050 C3048 1.419 . S
C3050 C3051 1.362 . S
C3051 H3041 0.930 . S
C3051 C3044 1.409 . S
C3051 C3050 1.362 . S
H3052 C3058 0.930 . S
H3053 C3061 0.930 . S
H3054 C3062 0.930 . S
H3055 C3063 0.930 . S
H3056 C3066 0.930 . S
H3057 C3067 0.930 . S
C3058 H3052 0.930 . S
C3058 C3059 1.355 . S
C3058 C3060 1.415 . S
C3059 C3058 1.355 . S
C3059 C3061 1.419 . S
C3060 C3058 1.415 . S
C3060 C3065 1.425 . S
C3060 C3067 1.409 . S
C3061 H3053 0.930 . S
C3061 C3059 1.419 . S
C3061 C3062 1.362 . S
C3062 H3054 0.930 . S
C3062 C3061 1.362 . S
C3062 C3065 1.409 . S
C3063 H3055 0.930 . S
C3063 C3064 1.355 . S
C3063 C3065 1.415 . S
C3064 C3063 1.355 . S
C3064 C3066 1.419 . S
C3065 C3060 1.425 . S
C3065 C3062 1.409 . S
C3065 C3063 1.415 . S
C3066 H3056 0.930 . S
C3066 C3064 1.419 . S
C3066 C3067 1.362 . S
C3067 H3057 0.930 . S
C3067 C3060 1.409 . S
C3067 C3066 1.362 . S
H3068 C3074 0.930 . S
H3069 C3077 0.930 . S
H3070 C3078 0.930 . S
H3071 C3079 0.930 . S
H3072 C3082 0.930 . S
H3073 C3083 0.930 . S
C3074 H3068 0.930 . S
C3074 C3075 1.355 . S
C3074 C3076 1.415 . S
C3075 C3074 1.355 . S
C3075 C3077 1.419 . S
C3076 C3074 1.415 . S
C3076 C3081 1.425 . S
C3076 C3083 1.409 . S
C3077 H3069 0.930 . S
C3077 C3075 1.419 . S
C3077 C3078 1.362 . S
C3078 H3070 0.930 . S
C3078 C3077 1.362 . S
C3078 C3081 1.409 . S
C3079 H3071 0.930 . S
C3079 C3080 1.355 . S
C3079 C3081 1.415 . S
C3080 C3079 1.355 . S
C3080 C3082 1.419 . S
C3081 C3076 1.425 . S
C3081 C3078 1.409 . S
C3081 C3079 1.415 . S
C3082 H3072 0.930 . S
C3082 C3080 1.419 . S
C3082 C3083 1.362 . S
C3083 H3073 0.930 . S
C3083 C3076 1.409 . S
C3083 C3082 1.362 . S
H3084 C3090 0.930 . S
H3085 C3093 0.930 . S
H3086 C3094 0.930 . S
H3087 C3095 0.930 . S
H3088 C3098 0.930 . S
H3089 C3099 0.930 . S
C3090 H3084 0.930 . S
C3090 C3091 1.355 . S
C3090 C3092 1.415 . S
C3091 C3090 1.355 . S
C3091 C3093 1.419 . S
C3092 C3090 1.415 . S
C3092 C3097 1.425 . S
C3092 C3099 1.409 . S
C3093 H3085 0.930 . S
C3093 C3091 1.419 . S
C3093 C3094 1.362 . S
C3094 H3086 0.930 . S
C3094 C3093 1.362 . S
C3094 C3097 1.409 . S
C3095 H3087 0.930 . S
C3095 C3096 1.355 . S
C3095 C3097 1.415 . S
C3096 C3095 1.355 . S
C3096 C3098 1.419 . S
C3097 C3092 1.425 . S
C3097 C3094 1.409 . S
C3097 C3095 1.415 . S
C3098 H3088 0.930 . S
C3098 C3096 1.419 . S
C3098 C3099 1.362 . S
C3099 H3089 0.930 . S
C3099 C3092 1.409 . S
C3099 C3098 1.362 . S
H3100 C3106 0.930 . S
H3101 C3109 0.930 . S
H3102 C3110 0.930 . S
H3103 C3111 0.930 . S
H3104 C3114 0.930 . S
H3105 C3115 0.930 . S
C3106 H3100 0.930 . S
C3106 C3107 1.355 . S
C3106 C3108 1.415 . S
C3107 C3106 1.355 . S
C3107 C3109 1.419 . S
C3108 C3106 1.415 . S
C3108 C3113 1.425 . S
C3108 C3115 1.409 . S
C3109 H3101 0.930 . S
C3109 C3107 1.419 . S
C3109 C3110 1.362 . S
C3110 H3102 0.930 . S
C3110 C3109 1.362 . S
C3110 C3113 1.409 . S
C3111 H3103 0.930 . S
C3111 C3112 1.355 . S
C3111 C3113 1.415 . S
C3112 C3111 1.355 . S
C3112 C3114 1.419 . S
C3113 C3108 1.425 . S
C3113 C3110 1.409 . S
C3113 C3111 1.415 . S
C3114 H3104 0.930 . S
C3114 C3112 1.419 . S
C3114 C3115 1.362 . S
C3115 H3105 0.930 . S
C3115 C3108 1.409 . S
C3115 C3114 1.362 . S
H3116 C3122 0.930 . S
H3117 C3125 0.930 . S
H3118 C3126 0.930 . S
H3119 C3127 0.930 . S
H3120 C3130 0.930 . S
H3121 C3131 0.930 . S
C3122 H3116 0.930 . S
C3122 C3123 1.355 . S
C3122 C3124 1.415 . S
C3123 C3122 1.355 . S
C3123 C3125 1.419 . S
C3124 C3122 1.415 . S
C3124 C3129 1.425 . S
C3124 C3131 1.409 . S
C3125 H3117 0.930 . S
C3125 C3123 1.419 . S
C3125 C3126 1.362 . S
C3126 H3118 0.930 . S
C3126 C3125 1.362 . S
C3126 C3129 1.409 . S
C3127 H3119 0.930 . S
C3127 C3128 1.355 . S
C3127 C3129 1.415 . S
C3128 C3127 1.355 . S
C3128 C3130 1.419 . S
C3129 C3124 1.425 . S
C3129 C3126 1.409 . S
C3129 C3127 1.415 . S
C3130 H3120 0.930 . S
C3130 C3128 1.419 . S
C3130 C3131 1.362 . S
C3131 H3121 0.930 . S
C3131 C3124 1.409 . S
C3131 C3130 1.362 . S
H3132 C3138 0.930 . S
H3133 C3141 0.930 . S
H3134 C3142 0.930 . S
H3135 C3143 0.930 . S
H3136 C3146 0.930 . S
H3137 C3147 0.930 . S
C3138 H3132 0.930 . S
C3138 C3139 1.355 . S
C3138 C3140 1.415 . S
C3139 C3138 1.355 . S
C3139 C3141 1.419 . S
C3140 C3138 1.415 . S
C3140 C3145 1.425 . S
C3140 C3147 1.409 . S
C3141 H3133 0.930 . S
C3141 C3139 1.419 . S
C3141 C3142 1.362 . S
C3142 H3134 0.930 . S
C3142 C3141 1.362 . S
C3142 C3145 1.409 . S
C3143 H3135 0.930 . S
C3143 C3144 1.355 . S
C3143 C3145 1.415 . S
C3144 C3143 1.355 . S
C3144 C3146 1.419 . S
C3145 C3140 1.425 . S
C3145 C3142 1.409 . S
C3145 C3143 1.415 . S
C3146 H3136 0.930 . S
C3146 C3144 1.419 . S
C3146 C3147 1.362 . S
C3147 H3137 0.930 . S
C3147 C3140 1.409 . S
C3147 C3146 1.362 . S
H3148 C3154 0.930 . S
H3149 C3157 0.930 . S
H3150 C3158 0.930 . S
H3151 C3159 0.930 . S
H3152 C3162 0.930 . S
H3153 C3163 0.930 . S
C3154 H3148 0.930 . S
C3154 C3155 1.355 . S
C3154 C3156 1.415 . S
C3155 C3154 1.355 . S
C3155 C3157 1.419 . S
C3156 C3154 1.415 . S
C3156 C3161 1.425 . S
C3156 C3163 1.409 . S
C3157 H3149 0.930 . S
C3157 C3155 1.419 . S
C3157 C3158 1.362 . S
C3158 H3150 0.930 . S
C3158 C3157 1.362 . S
C3158 C3161 1.409 . S
C3159 H3151 0.930 . S
C3159 C3160 1.355 . S
C3159 C3161 1.415 . S
C3160 C3159 1.355 . S
C3160 C3162 1.419 . S
C3161 C3156 1.425 . S
C3161 C3158 1.409 . S
C3161 C3159 1.415 . S
C3162 H3152 0.930 . S
C3162 C3160 1.419 . S
C3162 C3163 1.362 . S
C3163 H3153 0.930 . S
C3163 C3156 1.409 . S
C3163 C3162 1.362 . S
H3164 C3170 0.930 . S
H3165 C3173 0.930 . S
H3166 C3174 0.930 . S
H3167 C3175 0.930 . S
H3168 C3178 0.930 . S
H3169 C3179 0.930 . S
C3170 H3164 0.930 . S
C3170 C3171 1.355 . S
C3170 C3172 1.415 . S
C3171 C3170 1.355 . S
C3171 C3173 1.419 . S
C3172 C3170 1.415 . S
C3172 C3177 1.425 . S
C3172 C3179 1.409 . S
C3173 H3165 0.930 . S
C3173 C3171 1.419 . S
C3173 C3174 1.362 . S
C3174 H3166 0.930 . S
C3174 C3173 1.362 . S
C3174 C3177 1.409 . S
C3175 H3167 0.930 . S
C3175 C3176 1.355 . S
C3175 C3177 1.415 . S
C3176 C3175 1.355 . S
C3176 C3178 1.419 . S
C3177 C3172 1.425 . S
C3177 C3174 1.409 . S
C3177 C3175 1.415 . S
C3178 H3168 0.930 . S
C3178 C3176 1.419 . S
C3178 C3179 1.362 . S
C3179 H3169 0.930 . S
C3179 C3172 1.409 . S
C3179 C3178 1.362 . S
H3180 C3186 0.930 . S
H3181 C3189 0.930 . S
H3182 C3190 0.930 . S
H3183 C3191 0.930 . S
H3184 C3194 0.930 . S
H3185 C3195 0.930 . S
C3186 H3180 0.930 . S
C3186 C3187 1.355 . S
C3186 C3188 1.415 . S
C3187 C3186 1.355 . S
C3187 C3189 1.419 . S
C3188 C3186 1.415 . S
C3188 C3193 1.425 . S
C3188 C3195 1.409 . S
C3189 H3181 0.930 . S
C3189 C3187 1.419 . S
C3189 C3190 1.362 . S
C3190 H3182 0.930 . S
C3190 C3189 1.362 . S
C3190 C3193 1.409 . S
C3191 H3183 0.930 . S
C3191 C3192 1.355 . S
C3191 C3193 1.415 . S
C3192 C3191 1.355 . S
C3192 C3194 1.419 . S
C3193 C3188 1.425 . S
C3193 C3190 1.409 . S
C3193 C3191 1.415 . S
C3194 H3184 0.930 . S
C3194 C3192 1.419 . S
C3194 C3195 1.362 . S
C3195 H3185 0.930 . S
C3195 C3188 1.409 . S
C3195 C3194 1.362 . S
H3196 C3202 0.930 . S
H3197 C3205 0.930 . S
H3198 C3206 0.930 . S
H3199 C3207 0.930 . S
H3200 C3210 0.930 . S
H3201 C3211 0.930 . S
C3202 H3196 0.930 . S
C3202 C3203 1.355 . S
C3202 C3204 1.415 . S
C3203 C3202 1.355 . S
C3203 C3205 1.419 . S
C3204 C3202 1.415 . S
C3204 C3209 1.425 . S
C3204 C3211 1.409 . S
C3205 H3197 0.930 . S
C3205 C3203 1.419 . S
C3205 C3206 1.362 . S
C3206 H3198 0.930 . S
C3206 C3205 1.362 . S
C3206 C3209 1.409 . S
C3207 H3199 0.930 . S
C3207 C3208 1.355 . S
C3207 C3209 1.415 . S
C3208 C3207 1.355 . S
C3208 C3210 1.419 . S
C3209 C3204 1.425 . S
C3209 C3206 1.409 . S
C3209 C3207 1.415 . S
C3210 H3200 0.930 . S
C3210 C3208 1.419 . S
C3210 C3211 1.362 . S
C3211 H3201 0.930 . S
C3211 C3204 1.409 . S
C3211 C3210 1.362 . S
H3212 C3218 0.930 . S
H3213 C3221 0.930 . S
H3214 C3222 0.930 . S
H3215 C3223 0.930 . S
H3216 C3226 0.930 . S
H3217 C3227 0.930 . S
C3218 H3212 0.930 . S
C3218 C3219 1.355 . S
C3218 C3220 1.415 . S
C3219 C3218 1.355 . S
C3219 C3221 1.419 . S
C3220 C3218 1.415 . S
C3220 C3225 1.425 . S
C3220 C3227 1.409 . S
C3221 H3213 0.930 . S
C3221 C3219 1.419 . S
C3221 C3222 1.362 . S
C3222 H3214 0.930 . S
C3222 C3221 1.362 . S
C3222 C3225 1.409 . S
C3223 H3215 0.930 . S
C3223 C3224 1.355 . S
C3223 C3225 1.415 . S
C3224 C3223 1.355 . S
C3224 C3226 1.419 . S
C3225 C3220 1.425 . S
C3225 C3222 1.409 . S
C3225 C3223 1.415 . S
C3226 H3216 0.930 . S
C3226 C3224 1.419 . S
C3226 C3227 1.362 . S
C3227 H3217 0.930 . S
C3227 C3220 1.409 . S
C3227 C3226 1.362 . S
H3228 C3234 0.930 . S
H3229 C3237 0.930 . S
H3230 C3238 0.930 . S
H3231 C3239 0.930 . S
H3232 C3242 0.930 . S
H3233 C3243 0.930 . S
C3234 H3228 0.930 . S
C3234 C3235 1.355 . S
C3234 C3236 1.415 . S
C3235 C3234 1.355 . S
C3235 C3237 1.419 . S
C3236 C3234 1.415 . S
C3236 C3241 1.425 . S
C3236 C3243 1.409 . S
C3237 H3229 0.930 . S
C3237 C3235 1.419 . S
C3237 C3238 1.362 . S
C3238 H3230 0.930 . S
C3238 C3237 1.362 . S
C3238 C3241 1.409 . S
C3239 H3231 0.930 . S
C3239 C3240 1.355 . S
C3239 C3241 1.415 . S
C3240 C3239 1.355 . S
C3240 C3242 1.419 . S
C3241 C3236 1.425 . S
C3241 C3238 1.409 . S
C3241 C3239 1.415 . S
C3242 H3232 0.930 . S
C3242 C3240 1.419 . S
C3242 C3243 1.362 . S
C3243 H3233 0.930 . S
C3243 C3236 1.409 . S
C3243 C3242 1.362 . S
H3244 C3250 0.930 . S
H3245 C3253 0.930 . S
H3246 C3254 0.930 . S
H3247 C3255 0.930 . S
H3248 C3258 0.930 . S
H3249 C3259 0.930 . S
C3250 H3244 0.930 . S
C3250 C3251 1.355 . S
C3250 C3252 1.415 . S
C3251 C3250 1.355 . S
C3251 C3253 1.419 . S
C3252 C3250 1.415 . S
C3252 C3257 1.425 . S
C3252 C3259 1.409 . S
C3253 H3245 0.930 . S
C3253 C3251 1.419 . S
C3253 C3254 1.362 . S
C3254 H3246 0.930 . S
C3254 C3253 1.362 . S
C3254 C3257 1.409 . S
C3255 H3247 0.930 . S
C3255 C3256 1.355 . S
C3255 C3257 1.415 . S
C3256 C3255 1.355 . S
C3256 C3258 1.419 . S
C3257 C3252 1.425 . S
C3257 C3254 1.409 . S
C3257 C3255 1.415 . S
C3258 H3248 0.930 . S
C3258 C3256 1.419 . S
C3258 C3259 1.362 . S
C3259 H3249 0.930 . S
C3259 C3252 1.409 . S
C3259 C3258 1.362 . S
H3260 C3266 0.930 . S
H3261 C3269 0.930 . S
H3262 C3270 0.930 . S
H3263 C3271 0.930 . S
H3264 C3274 0.930 . S
H3265 C3275 0.930 . S
C3266 H3260 0.930 . S
C3266 C3267 1.355 . S
C3266 C3268 1.415 . S
C3267 C3266 1.355 . S
C3267 C3269 1.419 . S
C3268 C3266 1.415 . S
C3268 C3273 1.425 . S
C3268 C3275 1.409 . S
C3269 H3261 0.930 . S
C3269 C3267 1.419 . S
C3269 C3270 1.362 . S
C3270 H3262 0.930 . S
C3270 C3269 1.362 . S
C3270 C3273 1.409 . S
C3271 H3263 0.930 . S
C3271 C3272 1.355 . S
C3271 C3273 1.415 . S
C3272 C3271 1.355 . S
C3272 C3274 1.419 . S
C3273 C3268 1.425 . S
C3273 C3270 1.409 . S
C3273 C3271 1.415 . S
C3274 H3264 0.930 . S
C3274 C3272 1.419 . S
C3274 C3275 1.362 . S
C3275 H3265 0.930 . S
C3275 C3268 1.409 . S
C3275 C3274 1.362 . S
H3276 C3282 0.930 . S
H3277 C3285 0.930 . S
H3278 C3286 0.930 . S
H3279 C3287 0.930 . S
H3280 C3290 0.930 . S
H3281 C3291 0.930 . S
C3282 H3276 0.930 . S
C3282 C3283 1.355 . S
C3282 C3284 1.415 . S
C3283 C3282 1.355 . S
C3283 C3285 1.419 . S
C3284 C3282 1.415 . S
C3284 C3289 1.425 . S
C3284 C3291 1.409 . S
C3285 H3277 0.930 . S
C3285 C3283 1.419 . S
C3285 C3286 1.362 . S
C3286 H3278 0.930 . S
C3286 C3285 1.362 . S
C3286 C3289 1.409 . S
C3287 H3279 0.930 . S
C3287 C3288 1.355 . S
C3287 C3289 1.415 . S
C3288 C3287 1.355 . S
C3288 C3290 1.419 . S
C3289 C3284 1.425 . S
C3289 C3286 1.409 . S
C3289 C3287 1.415 . S
C3290 H3280 0.930 . S
C3290 C3288 1.419 . S
C3290 C3291 1.362 . S
C3291 H3281 0.930 . S
C3291 C3284 1.409 . S
C3291 C3290 1.362 . S
H3292 C3298 0.930 . S
H3293 C3301 0.930 . S
H3294 C3302 0.930 . S
H3295 C3303 0.930 . S
H3296 C3306 0.930 . S
H3297 C3307 0.930 . S
C3298 H3292 0.930 . S
C3298 C3299 1.355 . S
C3298 C3300 1.415 . S
C3299 C3298 1.355 . S
C3299 C3301 1.419 . S
C3300 C3298 1.415 . S
C3300 C3305 1.425 . S
C3300 C3307 1.409 . S
C3301 H3293 0.930 . S
C3301 C3299 1.419 . S
C3301 C3302 1.362 . S
C3302 H3294 0.930 . S
C3302 C3301 1.362 . S
C3302 C3305 1.409 . S
C3303 H3295 0.930 . S
C3303 C3304 1.355 . S
C3303 C3305 1.415 . S
C3304 C3303 1.355 . S
C3304 C3306 1.419 . S
C3305 C3300 1.425 . S
C3305 C3302 1.409 . S
C3305 C3303 1.415 . S
C3306 H3296 0.930 . S
C3306 C3304 1.419 . S
C3306 C3307 1.362 . S
C3307 H3297 0.930 . S
C3307 C3300 1.409 . S
C3307 C3306 1.362 . S
H3308 C3314 0.930 . S
H3309 C3317 0.930 . S
H3310 C3318 0.930 . S
H3311 C3319 0.930 . S
H3312 C3322 0.930 . S
H3313 C3323 0.930 . S
C3314 H3308 0.930 . S
C3314 C3315 1.355 . S
C3314 C3316 1.415 . S
C3315 C3314 1.355 . S
C3315 C3317 1.419 . S
C3316 C3314 1.415 . S
C3316 C3321 1.425 . S
C3316 C3323 1.409 . S
C3317 H3309 0.930 . S
C3317 C3315 1.419 . S
C3317 C3318 1.362 . S
C3318 H3310 0.930 . S
C3318 C3317 1.362 . S
C3318 C3321 1.409 . S
C3319 H3311 0.930 . S
C3319 C3320 1.355 . S
C3319 C3321 1.415 . S
C3320 C3319 1.355 . S
C3320 C3322 1.419 . S
C3321 C3316 1.425 . S
C3321 C3318 1.409 . S
C3321 C3319 1.415 . S
C3322 H3312 0.930 . S
C3322 C3320 1.419 . S
C3322 C3323 1.362 . S
C3323 H3313 0.930 . S
C3323 C3316 1.409 . S
C3323 C3322 1.362 . S
H3324 C3330 0.930 . S
H3325 C3333 0.950 . S
H3326 C3334 0.930 . S
H3327 C3335 0.930 . S
H3328 C3338 0.930 . S
H3329 C3339 0.930 . S
C3330 H3324 0.930 . S
C3330 C3331 1.355 . S
C3330 C3332 1.415 . S
C3331 C3330 1.355 . S
C3331 C3333 1.419 . S
C3332 C3330 1.415 . S
C3332 C3337 1.425 . S
C3332 C3339 1.409 . S
C3333 H3325 0.950 . S
C3333 C3331 1.419 . S
C3333 C3334 1.362 . S
C3334 H3326 0.930 . S
C3334 C3333 1.362 . S
C3334 C3337 1.409 . S
C3335 H3327 0.930 . S
C3335 C3336 1.355 . S
C3335 C3337 1.415 . S
C3336 C3335 1.355 . S
C3336 C3338 1.419 . S
C3337 C3332 1.425 . S
C3337 C3334 1.409 . S
C3337 C3335 1.415 . S
C3338 H3328 0.930 . S
C3338 C3336 1.419 . S
C3338 C3339 1.362 . S
C3339 H3329 0.930 . S
C3339 C3332 1.409 . S
C3339 C3338 1.362 . S
H3340 C3346 0.930 1_554 S
H3341 C3349 0.930 . S
H3342 C3350 0.930 . S
H3343 C3351 0.930 . S
H3344 C3354 0.930 1_554 S
H3345 C3355 0.930 . S
C3346 H3340 0.930 1_556 S
C3346 C3347 1.355 . S
C3346 C3348 1.415 . S
C3347 C3346 1.355 . S
C3347 C3349 1.419 . S
C3348 C3346 1.415 . S
C3348 C3353 1.425 . S
C3348 C3355 1.409 1_556 S
C3349 H3341 0.930 . S
C3349 C3347 1.419 . S
C3349 C3350 1.362 . S
C3350 H3342 0.930 . S
C3350 C3349 1.362 . S
C3350 C3353 1.409 . S
C3351 H3343 0.930 . S
C3351 C3352 1.355 . S
C3351 C3353 1.415 . S
C3352 C3351 1.355 . S
C3352 C3354 1.419 . S
C3353 C3348 1.425 . S
C3353 C3350 1.409 . S
C3353 C3351 1.415 . S
C3354 H3344 0.930 1_556 S
C3354 C3352 1.419 . S
C3354 C3355 1.362 1_556 S
C3355 H3345 0.930 . S
C3355 C3348 1.409 1_554 S
C3355 C3354 1.362 1_554 S
H3356 C3362 0.930 . S
H3357 C3365 0.930 . S
H3358 C3366 0.930 . S
H3359 C3367 0.930 . S
H3360 C3370 0.930 . S
H3361 C3371 0.930 . S
C3362 H3356 0.930 . S
C3362 C3363 1.355 . S
C3362 C3364 1.415 . S
C3363 C3362 1.355 . S
C3363 C3365 1.419 . S
C3364 C3362 1.415 . S
C3364 C3369 1.425 . S
C3364 C3371 1.409 . S
C3365 H3357 0.930 . S
C3365 C3363 1.419 . S
C3365 C3366 1.362 . S
C3366 H3358 0.930 . S
C3366 C3365 1.362 . S
C3366 C3369 1.409 . S
C3367 H3359 0.930 . S
C3367 C3368 1.355 . S
C3367 C3369 1.415 . S
C3368 C3367 1.355 . S
C3368 C3370 1.419 . S
C3369 C3364 1.425 . S
C3369 C3366 1.409 . S
C3369 C3367 1.415 . S
C3370 H3360 0.930 . S
C3370 C3368 1.419 . S
C3370 C3371 1.362 . S
C3371 H3361 0.930 . S
C3371 C3364 1.409 . S
C3371 C3370 1.362 . S
H3372 C3378 0.930 . S
H3373 C3381 0.930 . S
H3374 C3382 0.930 . S
H3375 C3383 0.930 . S
H3376 C3386 0.930 . S
H3377 C3387 0.930 . S
C3378 H3372 0.930 . S
C3378 C3379 1.355 . S
C3378 C3380 1.415 . S
C3379 C3378 1.355 . S
C3379 C3381 1.419 1_556 S
C3380 C3378 1.415 . S
C3380 C3385 1.425 . S
C3380 C3387 1.409 . S
C3381 H3373 0.930 . S
C3381 C3379 1.419 1_554 S
C3381 C3382 1.362 . S
C3382 H3374 0.930 . S
C3382 C3381 1.362 . S
C3382 C3385 1.409 1_554 S
C3383 H3375 0.930 . S
C3383 C3384 1.355 . S
C3383 C3385 1.415 . S
C3384 C3383 1.355 . S
C3384 C3386 1.419 . S
C3385 C3380 1.425 . S
C3385 C3382 1.409 1_556 S
C3385 C3383 1.415 . S
C3386 H3376 0.930 . S
C3386 C3384 1.419 . S
C3386 C3387 1.362 . S
C3387 H3377 0.930 . S
C3387 C3380 1.409 . S
C3387 C3386 1.362 . S
H3388 C3394 0.930 . S
H3389 C3397 0.930 1_554 S
H3390 C3398 0.930 1_554 S
H3391 C3399 0.930 . S
H3392 C3402 0.930 . S
H3393 C3403 0.930 . S
C3394 H3388 0.930 . S
C3394 C3395 1.355 . S
C3394 C3396 1.415 . S
C3395 C3394 1.355 . S
C3395 C3397 1.419 . S
C3396 C3394 1.415 . S
C3396 C3401 1.425 . S
C3396 C3403 1.409 . S
C3397 H3389 0.930 1_556 S
C3397 C3395 1.419 . S
C3397 C3398 1.362 . S
C3398 H3390 0.930 1_556 S
C3398 C3397 1.362 . S
C3398 C3401 1.409 . S
C3399 H3391 0.930 . S
C3399 C3400 1.355 . S
C3399 C3401 1.415 . S
C3400 C3399 1.355 . S
C3400 C3402 1.419 . S
C3401 C3396 1.425 . S
C3401 C3398 1.409 . S
C3401 C3399 1.415 . S
C3402 H3392 0.930 . S
C3402 C3400 1.419 . S
C3402 C3403 1.362 . S
C3403 H3393 0.930 . S
C3403 C3396 1.409 . S
C3403 C3402 1.362 . S
H3404 C3410 0.930 1_554 S
H3405 C3413 0.930 . S
H3406 C3414 0.930 . S
H3407 C3415 0.930 . S
H3408 C3418 0.930 . S
H3409 C3419 0.956 . S
C3410 H3404 0.930 1_556 S
C3410 C3411 1.355 . S
C3410 C3412 1.415 . S
C3411 C3410 1.355 . S
C3411 C3413 1.419 . S
C3412 C3410 1.415 . S
C3412 C3417 1.425 . S
C3412 C3419 1.409 . S
C3413 H3405 0.930 . S
C3413 C3411 1.419 . S
C3413 C3414 1.362 . S
C3414 H3406 0.930 . S
C3414 C3413 1.362 . S
C3414 C3417 1.409 . S
C3415 H3407 0.930 . S
C3415 C3416 1.355 . S
C3415 C3417 1.415 . S
C3416 C3415 1.355 . S
C3416 C3418 1.419 . S
C3417 C3412 1.425 . S
C3417 C3414 1.409 . S
C3417 C3415 1.415 . S
C3418 H3408 0.930 . S
C3418 C3416 1.419 . S
C3418 C3419 1.362 . S
C3419 H3409 0.956 . S
C3419 C3412 1.409 . S
C3419 C3418 1.362 . S
H3420 C3426 0.930 . S
H3421 C3429 0.930 . S
H3422 C3430 0.930 . S
H3423 C3431 0.930 . S
H3424 C3434 0.930 . S
H3425 C3435 0.930 . S
C3426 H3420 0.930 . S
C3426 C3427 1.355 . S
C3426 C3428 1.415 . S
C3427 C3426 1.355 . S
C3427 C3429 1.419 . S
C3428 C3426 1.415 . S
C3428 C3433 1.425 . S
C3428 C3435 1.409 . S
C3429 H3421 0.930 . S
C3429 C3427 1.419 . S
C3429 C3430 1.362 . S
C3430 H3422 0.930 . S
C3430 C3429 1.362 . S
C3430 C3433 1.409 . S
C3431 H3423 0.930 . S
C3431 C3432 1.355 . S
C3431 C3433 1.415 . S
C3432 C3431 1.355 . S
C3432 C3434 1.419 . S
C3433 C3428 1.425 . S
C3433 C3430 1.409 . S
C3433 C3431 1.415 . S
C3434 H3424 0.930 . S
C3434 C3432 1.419 . S
C3434 C3435 1.362 . S
C3435 H3425 0.930 . S
C3435 C3428 1.409 . S
C3435 C3434 1.362 . S
H3436 C3442 0.930 . S
H3437 C3445 0.930 . S
H3438 C3446 0.930 . S
H3439 C3447 0.930 . S
H3440 C3450 0.930 . S
H3441 C3451 0.930 . S
C3442 H3436 0.930 . S
C3442 C3443 1.355 . S
C3442 C3444 1.415 . S
C3443 C3442 1.355 . S
C3443 C3445 1.419 . S
C3444 C3442 1.415 . S
C3444 C3449 1.425 . S
C3444 C3451 1.409 . S
C3445 H3437 0.930 . S
C3445 C3443 1.419 . S
C3445 C3446 1.362 . S
C3446 H3438 0.930 . S
C3446 C3445 1.362 . S
C3446 C3449 1.409 . S
C3447 H3439 0.930 . S
C3447 C3448 1.355 . S
C3447 C3449 1.415 . S
C3448 C3447 1.355 . S
C3448 C3450 1.419 . S
C3449 C3444 1.425 . S
C3449 C3446 1.409 . S
C3449 C3447 1.415 . S
C3450 H3440 0.930 . S
C3450 C3448 1.419 . S
C3450 C3451 1.362 . S
C3451 H3441 0.930 . S
C3451 C3444 1.409 . S
C3451 C3450 1.362 . S
H3452 C3458 0.930 . S
H3453 C3461 0.930 . S
H3454 C3462 0.930 . S
H3455 C3463 0.930 . S
H3456 C3466 0.930 . S
H3457 C3467 0.930 . S
C3458 H3452 0.930 . S
C3458 C3459 1.355 . S
C3458 C3460 1.415 . S
C3459 C3458 1.355 . S
C3459 C3461 1.419 . S
C3460 C3458 1.415 . S
C3460 C3465 1.425 . S
C3460 C3467 1.409 . S
C3461 H3453 0.930 . S
C3461 C3459 1.419 . S
C3461 C3462 1.362 . S
C3462 H3454 0.930 . S
C3462 C3461 1.362 . S
C3462 C3465 1.409 . S
C3463 H3455 0.930 . S
C3463 C3464 1.355 . S
C3463 C3465 1.415 . S
C3464 C3463 1.355 . S
C3464 C3466 1.419 . S
C3465 C3460 1.425 . S
C3465 C3462 1.409 . S
C3465 C3463 1.415 . S
C3466 H3456 0.930 . S
C3466 C3464 1.419 . S
C3466 C3467 1.362 . S
C3467 H3457 0.930 . S
C3467 C3460 1.409 . S
C3467 C3466 1.362 . S
H3468 C3474 0.930 . S
H3469 C3477 0.930 . S
H3470 C3478 0.930 . S
H3471 C3479 0.930 . S
H3472 C3482 0.930 . S
H3473 C3483 0.930 . S
C3474 H3468 0.930 . S
C3474 C3475 1.355 . S
C3474 C3476 1.415 . S
C3475 C3474 1.355 . S
C3475 C3477 1.419 . S
C3476 C3474 1.415 . S
C3476 C3481 1.425 . S
C3476 C3483 1.409 . S
C3477 H3469 0.930 . S
C3477 C3475 1.419 . S
C3477 C3478 1.362 . S
C3478 H3470 0.930 . S
C3478 C3477 1.362 . S
C3478 C3481 1.409 . S
C3479 H3471 0.930 . S
C3479 C3480 1.355 . S
C3479 C3481 1.415 . S
C3480 C3479 1.355 . S
C3480 C3482 1.419 . S
C3481 C3476 1.425 . S
C3481 C3478 1.409 . S
C3481 C3479 1.415 . S
C3482 H3472 0.930 . S
C3482 C3480 1.419 . S
C3482 C3483 1.362 . S
C3483 H3473 0.930 . S
C3483 C3476 1.409 . S
C3483 C3482 1.362 . S
H3484 C3490 0.930 . S
H3485 C3493 0.930 . S
H3486 C3494 0.930 . S
H3487 C3495 0.930 . S
H3488 C3498 0.930 . S
H3489 C3499 0.930 . S
C3490 H3484 0.930 . S
C3490 C3491 1.355 . S
C3490 C3492 1.415 . S
C3491 C3490 1.355 . S
C3491 C3493 1.419 . S
C3492 C3490 1.415 . S
C3492 C3497 1.425 . S
C3492 C3499 1.409 . S
C3493 H3485 0.930 . S
C3493 C3491 1.419 . S
C3493 C3494 1.362 . S
C3494 H3486 0.930 . S
C3494 C3493 1.362 . S
C3494 C3497 1.409 . S
C3495 H3487 0.930 . S
C3495 C3496 1.355 . S
C3495 C3497 1.415 . S
C3496 C3495 1.355 . S
C3496 C3498 1.419 . S
C3497 C3492 1.425 . S
C3497 C3494 1.409 . S
C3497 C3495 1.415 . S
C3498 H3488 0.930 . S
C3498 C3496 1.419 . S
C3498 C3499 1.362 . S
C3499 H3489 0.930 . S
C3499 C3492 1.409 . S
C3499 C3498 1.362 . S
H3500 C3506 0.930 . S
H3501 C3509 0.930 . S
H3502 C3510 0.930 . S
H3503 C3511 0.930 . S
H3504 C3514 0.930 . S
H3505 C3515 0.930 . S
C3506 H3500 0.930 . S
C3506 C3507 1.355 . S
C3506 C3508 1.415 . S
C3507 C3506 1.355 . S
C3507 C3509 1.419 . S
C3508 C3506 1.415 . S
C3508 C3513 1.425 . S
C3508 C3515 1.409 . S
C3509 H3501 0.930 . S
C3509 C3507 1.419 . S
C3509 C3510 1.362 . S
C3510 H3502 0.930 . S
C3510 C3509 1.362 . S
C3510 C3513 1.409 . S
C3511 H3503 0.930 . S
C3511 C3512 1.355 . S
C3511 C3513 1.415 . S
C3512 C3511 1.355 . S
C3512 C3514 1.419 . S
C3513 C3508 1.425 . S
C3513 C3510 1.409 . S
C3513 C3511 1.415 . S
C3514 H3504 0.930 . S
C3514 C3512 1.419 . S
C3514 C3515 1.362 . S
C3515 H3505 0.930 . S
C3515 C3508 1.409 . S
C3515 C3514 1.362 . S
H3516 C3522 0.930 . S
H3517 C3525 0.930 . S
H3518 C3526 0.893 1_655 S
H3519 C3527 0.930 1_655 S
H3520 C3530 0.930 . S
H3521 C3531 0.930 . S
C3522 H3516 0.930 . S
C3522 C3523 1.355 . S
C3522 C3524 1.415 . S
C3523 C3522 1.355 . S
C3523 C3525 1.419 . S
C3524 C3522 1.415 . S
C3524 C3529 1.425 . S
C3524 C3531 1.409 . S
C3525 H3517 0.930 . S
C3525 C3523 1.419 . S
C3525 C3526 1.398 . S
C3526 H3518 0.893 1_455 S
C3526 C3525 1.398 . S
C3526 C3529 1.412 . S
C3527 H3519 0.930 1_455 S
C3527 C3528 1.355 . S
C3527 C3529 1.415 . S
C3528 C3527 1.355 . S
C3528 C3530 1.419 . S
C3529 C3524 1.425 . S
C3529 C3526 1.412 . S
C3529 C3527 1.415 . S
C3530 H3520 0.930 . S
C3530 C3528 1.419 . S
C3530 C3531 1.362 . S
C3531 H3521 0.930 . S
C3531 C3524 1.409 . S
C3531 C3530 1.362 . S
H3532 C3538 0.930 . S
H3533 C3541 0.930 . S
H3534 C3542 0.930 . S
H3535 C3543 0.930 . S
H3536 C3546 0.930 . S
H3537 C3547 0.930 . S
C3538 H3532 0.930 . S
C3538 C3539 1.355 . S
C3538 C3540 1.415 . S
C3539 C3538 1.355 . S
C3539 C3541 1.419 . S
C3540 C3538 1.415 . S
C3540 C3545 1.425 . S
C3540 C3547 1.409 . S
C3541 H3533 0.930 . S
C3541 C3539 1.419 . S
C3541 C3542 1.362 . S
C3542 H3534 0.930 . S
C3542 C3541 1.362 . S
C3542 C3545 1.409 . S
C3543 H3535 0.930 . S
C3543 C3544 1.355 . S
C3543 C3545 1.415 . S
C3544 C3543 1.355 . S
C3544 C3546 1.419 . S
C3545 C3540 1.425 . S
C3545 C3542 1.409 . S
C3545 C3543 1.415 . S
C3546 H3536 0.930 . S
C3546 C3544 1.419 . S
C3546 C3547 1.362 . S
C3547 H3537 0.930 . S
C3547 C3540 1.409 . S
C3547 C3546 1.362 . S
H3548 C3554 0.930 . S
H3549 C3557 0.930 . S
H3550 C3558 0.930 . S
H3551 C3559 0.930 . S
H3552 C3562 0.930 . S
H3553 C3563 0.930 . S
C3554 H3548 0.930 . S
C3554 C3555 1.355 . S
C3554 C3556 1.415 . S
C3555 C3554 1.355 . S
C3555 C3557 1.419 . S
C3556 C3554 1.415 . S
C3556 C3561 1.425 . S
C3556 C3563 1.409 . S
C3557 H3549 0.930 . S
C3557 C3555 1.419 . S
C3557 C3558 1.362 . S
C3558 H3550 0.930 . S
C3558 C3557 1.362 . S
C3558 C3561 1.409 . S
C3559 H3551 0.930 . S
C3559 C3560 1.355 . S
C3559 C3561 1.415 . S
C3560 C3559 1.355 . S
C3560 C3562 1.419 . S
C3561 C3556 1.425 . S
C3561 C3558 1.409 . S
C3561 C3559 1.415 . S
C3562 H3552 0.930 . S
C3562 C3560 1.419 . S
C3562 C3563 1.362 . S
C3563 H3553 0.930 . S
C3563 C3556 1.409 . S
C3563 C3562 1.362 . S
H3564 C3570 0.930 . S
H3565 C3573 0.930 . S
H3566 C3574 0.930 . S
H3567 C3575 0.930 . S
H3568 C3578 0.930 . S
H3569 C3579 0.930 . S
C3570 H3564 0.930 . S
C3570 C3571 1.355 . S
C3570 C3572 1.415 . S
C3571 C3570 1.355 . S
C3571 C3573 1.419 . S
C3572 C3570 1.415 . S
C3572 C3577 1.425 . S
C3572 C3579 1.409 . S
C3573 H3565 0.930 . S
C3573 C3571 1.419 . S
C3573 C3574 1.362 . S
C3574 H3566 0.930 . S
C3574 C3573 1.362 . S
C3574 C3577 1.409 . S
C3575 H3567 0.930 . S
C3575 C3576 1.355 . S
C3575 C3577 1.415 . S
C3576 C3575 1.355 . S
C3576 C3578 1.419 . S
C3577 C3572 1.425 . S
C3577 C3574 1.409 . S
C3577 C3575 1.415 . S
C3578 H3568 0.930 . S
C3578 C3576 1.419 . S
C3578 C3579 1.362 . S
C3579 H3569 0.930 . S
C3579 C3572 1.409 . S
C3579 C3578 1.362 . S
H3580 C3586 0.930 . S
H3581 C3589 0.930 . S
H3582 C3590 0.930 . S
H3583 C3591 0.930 . S
H3584 C3594 0.930 . S
H3585 C3595 0.930 . S
C3586 H3580 0.930 . S
C3586 C3587 1.355 . S
C3586 C3588 1.415 . S
C3587 C3586 1.355 . S
C3587 C3589 1.419 . S
C3588 C3586 1.415 . S
C3588 C3593 1.425 . S
C3588 C3595 1.409 1_455 S
C3589 H3581 0.930 . S
C3589 C3587 1.419 . S
C3589 C3590 1.362 . S
C3590 H3582 0.930 . S
C3590 C3589 1.362 . S
C3590 C3593 1.409 . S
C3591 H3583 0.930 . S
C3591 C3592 1.355 . S
C3591 C3593 1.415 . S
C3592 C3591 1.355 . S
C3592 C3594 1.419 1_455 S
C3593 C3588 1.425 . S
C3593 C3590 1.409 . S
C3593 C3591 1.415 . S
C3594 H3584 0.930 . S
C3594 C3592 1.419 1_655 S
C3594 C3595 1.362 . S
C3595 H3585 0.930 . S
C3595 C3588 1.409 1_655 S
C3595 C3594 1.362 . S
H3596 C3602 0.930 . S
H3597 C3605 0.930 . S
H3598 C3606 0.930 . S
H3599 C3607 0.930 . S
H3600 C3610 0.930 . S
H3601 C3611 0.930 . S
C3602 H3596 0.930 . S
C3602 C3603 1.355 . S
C3602 C3604 1.415 . S
C3603 C3602 1.355 . S
C3603 C3605 1.419 . S
C3604 C3602 1.415 . S
C3604 C3609 1.425 . S
C3604 C3611 1.409 . S
C3605 H3597 0.930 . S
C3605 C3603 1.419 . S
C3605 C3606 1.362 . S
C3606 H3598 0.930 . S
C3606 C3605 1.362 . S
C3606 C3609 1.409 . S
C3607 H3599 0.930 . S
C3607 C3608 1.355 . S
C3607 C3609 1.415 . S
C3608 C3607 1.355 . S
C3608 C3610 1.419 . S
C3609 C3604 1.425 . S
C3609 C3606 1.409 . S
C3609 C3607 1.415 . S
C3610 H3600 0.930 . S
C3610 C3608 1.419 . S
C3610 C3611 1.362 . S
C3611 H3601 0.930 . S
C3611 C3604 1.409 . S
C3611 C3610 1.362 . S
H3612 C3618 0.930 . S
H3613 C3621 0.930 . S
H3614 C3622 0.930 . S
H3615 C3623 0.930 . S
H3616 C3626 0.930 . S
H3617 C3627 0.930 . S
C3618 H3612 0.930 . S
C3618 C3619 1.355 . S
C3618 C3620 1.415 . S
C3619 C3618 1.355 . S
C3619 C3621 1.419 . S
C3620 C3618 1.415 . S
C3620 C3625 1.425 . S
C3620 C3627 1.409 . S
C3621 H3613 0.930 . S
C3621 C3619 1.419 . S
C3621 C3622 1.362 . S
C3622 H3614 0.930 . S
C3622 C3621 1.362 . S
C3622 C3625 1.409 . S
C3623 H3615 0.930 . S
C3623 C3624 1.355 . S
C3623 C3625 1.415 . S
C3624 C3623 1.355 . S
C3624 C3626 1.419 . S
C3625 C3620 1.425 . S
C3625 C3622 1.409 . S
C3625 C3623 1.415 . S
C3626 H3616 0.930 . S
C3626 C3624 1.419 . S
C3626 C3627 1.362 . S
C3627 H3617 0.930 . S
C3627 C3620 1.409 . S
C3627 C3626 1.362 . S
H3628 C3634 0.930 . S
H3629 C3637 0.930 . S
H3630 C3638 0.930 . S
H3631 C3639 0.930 . S
H3632 C3642 0.930 . S
H3633 C3643 0.930 . S
C3634 H3628 0.930 . S
C3634 C3635 1.355 . S
C3634 C3636 1.415 . S
C3635 C3634 1.355 . S
C3635 C3637 1.419 . S
C3636 C3634 1.415 . S
C3636 C3641 1.425 . S
C3636 C3643 1.409 . S
C3637 H3629 0.930 . S
C3637 C3635 1.419 . S
C3637 C3638 1.362 . S
C3638 H3630 0.930 . S
C3638 C3637 1.362 . S
C3638 C3641 1.409 . S
C3639 H3631 0.930 . S
C3639 C3640 1.355 . S
C3639 C3641 1.415 . S
C3640 C3639 1.355 . S
C3640 C3642 1.419 . S
C3641 C3636 1.425 . S
C3641 C3638 1.409 . S
C3641 C3639 1.415 . S
C3642 H3632 0.930 . S
C3642 C3640 1.419 . S
C3642 C3643 1.362 . S
C3643 H3633 0.930 . S
C3643 C3636 1.409 . S
C3643 C3642 1.362 . S
H3644 C3650 0.930 . S
H3645 C3653 0.930 . S
H3646 C3654 0.930 . S
H3647 C3655 0.930 . S
H3648 C3658 0.930 . S
H3649 C3659 0.930 . S
C3650 H3644 0.930 . S
C3650 C3651 1.355 . S
C3650 C3652 1.415 . S
C3651 C3650 1.355 . S
C3651 C3653 1.419 . S
C3652 C3650 1.415 . S
C3652 C3657 1.425 . S
C3652 C3659 1.409 . S
C3653 H3645 0.930 . S
C3653 C3651 1.419 . S
C3653 C3654 1.362 . S
C3654 H3646 0.930 . S
C3654 C3653 1.362 . S
C3654 C3657 1.409 . S
C3655 H3647 0.930 . S
C3655 C3656 1.355 . S
C3655 C3657 1.415 . S
C3656 C3655 1.355 . S
C3656 C3658 1.419 . S
C3657 C3652 1.425 . S
C3657 C3654 1.409 . S
C3657 C3655 1.415 . S
C3658 H3648 0.930 . S
C3658 C3656 1.419 . S
C3658 C3659 1.362 . S
C3659 H3649 0.930 . S
C3659 C3652 1.409 . S
C3659 C3658 1.362 . S
H3660 C3666 0.930 . S
H3661 C3669 0.930 . S
H3662 C3670 0.930 . S
H3663 C3671 0.930 . S
H3664 C3674 0.930 . S
H3665 C3675 0.930 . S
C3666 H3660 0.930 . S
C3666 C3667 1.355 . S
C3666 C3668 1.415 . S
C3667 C3666 1.355 . S
C3667 C3669 1.419 . S
C3668 C3666 1.415 . S
C3668 C3673 1.425 . S
C3668 C3675 1.409 1_545 S
C3669 H3661 0.930 . S
C3669 C3667 1.419 . S
C3669 C3670 1.362 . S
C3670 H3662 0.930 . S
C3670 C3669 1.362 . S
C3670 C3673 1.409 . S
C3671 H3663 0.930 . S
C3671 C3672 1.355 . S
C3671 C3673 1.415 . S
C3672 C3671 1.355 . S
C3672 C3674 1.419 1_545 S
C3673 C3668 1.425 . S
C3673 C3670 1.409 . S
C3673 C3671 1.415 . S
C3674 H3664 0.930 . S
C3674 C3672 1.419 1_565 S
C3674 C3675 1.362 . S
C3675 H3665 0.930 . S
C3675 C3668 1.409 1_565 S
C3675 C3674 1.362 . S
H3676 C3682 0.930 . S
H3677 C3685 0.930 . S
H3678 C3686 0.930 . S
H3679 C3687 0.930 . S
H3680 C3690 0.930 . S
H3681 C3691 0.930 . S
C3682 H3676 0.930 . S
C3682 C3683 1.355 . S
C3682 C3684 1.415 . S
C3683 C3682 1.355 . S
C3683 C3685 1.419 . S
C3684 C3682 1.415 . S
C3684 C3689 1.425 . S
C3684 C3691 1.409 1_655 S
C3685 H3677 0.930 . S
C3685 C3683 1.419 . S
C3685 C3686 1.362 . S
C3686 H3678 0.930 . S
C3686 C3685 1.362 . S
C3686 C3689 1.409 . S
C3687 H3679 0.930 . S
C3687 C3688 1.355 . S
C3687 C3689 1.415 . S
C3688 C3687 1.355 . S
C3688 C3690 1.419 1_655 S
C3689 C3684 1.425 . S
C3689 C3686 1.409 . S
C3689 C3687 1.415 . S
C3690 H3680 0.930 . S
C3690 C3688 1.419 1_455 S
C3690 C3691 1.362 . S
C3691 H3681 0.930 . S
C3691 C3684 1.409 1_455 S
C3691 C3690 1.362 . S
H3692 C3698 0.930 . S
H3693 C3701 0.930 . S
H3694 C3702 0.930 . S
H3695 C3703 0.930 . S
H3696 C3706 0.930 . S
H3697 C3707 0.930 . S
C3698 H3692 0.930 . S
C3698 C3699 1.355 . S
C3698 C3700 1.415 . S
C3699 C3698 1.355 . S
C3699 C3701 1.419 . S
C3700 C3698 1.415 . S
C3700 C3705 1.425 . S
C3700 C3707 1.409 . S
C3701 H3693 0.930 . S
C3701 C3699 1.419 . S
C3701 C3702 1.362 . S
C3702 H3694 0.930 . S
C3702 C3701 1.362 . S
C3702 C3705 1.409 . S
C3703 H3695 0.930 . S
C3703 C3704 1.355 . S
C3703 C3705 1.415 . S
C3704 C3703 1.355 . S
C3704 C3706 1.419 . S
C3705 C3700 1.425 . S
C3705 C3702 1.409 . S
C3705 C3703 1.415 . S
C3706 H3696 0.930 . S
C3706 C3704 1.419 . S
C3706 C3707 1.362 . S
C3707 H3697 0.930 . S
C3707 C3700 1.409 . S
C3707 C3706 1.362 . S
H3708 C3714 0.930 . S
H3709 C3717 0.930 . S
H3710 C3718 0.930 . S
H3711 C3719 0.930 . S
H3712 C3722 0.930 . S
H3713 C3723 0.930 . S
C3714 H3708 0.930 . S
C3714 C3715 1.355 . S
C3714 C3716 1.415 . S
C3715 C3714 1.355 . S
C3715 C3717 1.419 . S
C3716 C3714 1.415 . S
C3716 C3721 1.425 . S
C3716 C3723 1.409 . S
C3717 H3709 0.930 . S
C3717 C3715 1.419 . S
C3717 C3718 1.362 . S
C3718 H3710 0.930 . S
C3718 C3717 1.362 . S
C3718 C3721 1.409 . S
C3719 H3711 0.930 . S
C3719 C3720 1.355 . S
C3719 C3721 1.415 . S
C3720 C3719 1.355 . S
C3720 C3722 1.419 . S
C3721 C3716 1.425 . S
C3721 C3718 1.409 . S
C3721 C3719 1.415 . S
C3722 H3712 0.930 . S
C3722 C3720 1.419 . S
C3722 C3723 1.362 . S
C3723 H3713 0.930 . S
C3723 C3716 1.409 . S
C3723 C3722 1.362 . S
H3724 C3730 0.930 . S
H3725 C3733 0.930 . S
H3726 C3734 0.930 . S
H3727 C3735 0.930 . S
H3728 C3738 0.930 . S
H3729 C3739 0.930 . S
C3730 H3724 0.930 . S
C3730 C3731 1.355 . S
C3730 C3732 1.415 . S
C3731 C3730 1.355 . S
C3731 C3733 1.419 . S
C3732 C3730 1.415 . S
C3732 C3737 1.425 . S
C3732 C3739 1.409 . S
C3733 H3725 0.930 . S
C3733 C3731 1.419 . S
C3733 C3734 1.362 . S
C3734 H3726 0.930 . S
C3734 C3733 1.362 . S
C3734 C3737 1.409 . S
C3735 H3727 0.930 . S
C3735 C3736 1.355 . S
C3735 C3737 1.415 . S
C3736 C3735 1.355 . S
C3736 C3738 1.419 . S
C3737 C3732 1.425 . S
C3737 C3734 1.409 . S
C3737 C3735 1.415 . S
C3738 H3728 0.930 . S
C3738 C3736 1.419 . S
C3738 C3739 1.362 . S
C3739 H3729 0.930 . S
C3739 C3732 1.409 . S
C3739 C3738 1.362 . S
H3740 C3746 0.930 . S
H3741 C3749 0.930 . S
H3742 C3750 0.930 . S
H3743 C3751 0.930 . S
H3744 C3754 0.930 . S
H3745 C3755 0.930 . S
C3746 H3740 0.930 . S
C3746 C3747 1.355 . S
C3746 C3748 1.415 . S
C3747 C3746 1.355 . S
C3747 C3749 1.419 . S
C3748 C3746 1.415 . S
C3748 C3753 1.425 . S
C3748 C3755 1.409 . S
C3749 H3741 0.930 . S
C3749 C3747 1.419 . S
C3749 C3750 1.362 . S
C3750 H3742 0.930 . S
C3750 C3749 1.362 . S
C3750 C3753 1.409 . S
C3751 H3743 0.930 . S
C3751 C3752 1.355 . S
C3751 C3753 1.415 . S
C3752 C3751 1.355 . S
C3752 C3754 1.419 . S
C3753 C3748 1.425 . S
C3753 C3750 1.409 . S
C3753 C3751 1.415 . S
C3754 H3744 0.930 . S
C3754 C3752 1.419 . S
C3754 C3755 1.362 . S
C3755 H3745 0.930 . S
C3755 C3748 1.409 . S
C3755 C3754 1.362 . S
H3756 C3762 0.930 . S
H3757 C3765 0.930 . S
H3758 C3766 0.930 . S
H3759 C3767 0.930 . S
H3760 C3770 0.930 . S
H3761 C3771 0.930 . S
C3762 H3756 0.930 . S
C3762 C3763 1.355 . S
C3762 C3764 1.415 . S
C3763 C3762 1.355 . S
C3763 C3765 1.419 . S
C3764 C3762 1.415 . S
C3764 C3769 1.425 . S
C3764 C3771 1.409 . S
C3765 H3757 0.930 . S
C3765 C3763 1.419 . S
C3765 C3766 1.362 . S
C3766 H3758 0.930 . S
C3766 C3765 1.362 . S
C3766 C3769 1.409 . S
C3767 H3759 0.930 . S
C3767 C3768 1.355 . S
C3767 C3769 1.415 . S
C3768 C3767 1.355 . S
C3768 C3770 1.419 . S
C3769 C3764 1.425 . S
C3769 C3766 1.409 . S
C3769 C3767 1.415 . S
C3770 H3760 0.930 . S
C3770 C3768 1.419 . S
C3770 C3771 1.362 . S
C3771 H3761 0.930 . S
C3771 C3764 1.409 . S
C3771 C3770 1.362 . S
H3772 C3778 0.930 . S
H3773 C3781 0.930 . S
H3774 C3782 0.930 . S
H3775 C3783 0.930 . S
H3776 C3786 0.930 . S
H3777 C3787 0.930 . S
C3778 H3772 0.930 . S
C3778 C3779 1.355 . S
C3778 C3780 1.415 . S
C3779 C3778 1.355 . S
C3779 C3781 1.419 . S
C3780 C3778 1.415 . S
C3780 C3785 1.425 . S
C3780 C3787 1.409 . S
C3781 H3773 0.930 . S
C3781 C3779 1.419 . S
C3781 C3782 1.362 . S
C3782 H3774 0.930 . S
C3782 C3781 1.362 . S
C3782 C3785 1.409 . S
C3783 H3775 0.930 . S
C3783 C3784 1.355 . S
C3783 C3785 1.415 . S
C3784 C3783 1.355 . S
C3784 C3786 1.419 . S
C3785 C3780 1.425 . S
C3785 C3782 1.409 . S
C3785 C3783 1.415 . S
C3786 H3776 0.930 . S
C3786 C3784 1.419 . S
C3786 C3787 1.362 . S
C3787 H3777 0.930 . S
C3787 C3780 1.409 . S
C3787 C3786 1.362 . S
H3788 C3794 0.930 . S
H3789 C3797 0.930 . S
H3790 C3798 0.930 . S
H3791 C3799 0.930 . S
H3792 C3802 0.930 . S
H3793 C3803 0.930 . S
C3794 H3788 0.930 . S
C3794 C3795 1.355 . S
C3794 C3796 1.415 . S
C3795 C3794 1.355 . S
C3795 C3797 1.419 . S
C3796 C3794 1.415 . S
C3796 C3801 1.425 . S
C3796 C3803 1.409 . S
C3797 H3789 0.930 . S
C3797 C3795 1.419 . S
C3797 C3798 1.362 . S
C3798 H3790 0.930 . S
C3798 C3797 1.362 . S
C3798 C3801 1.409 . S
C3799 H3791 0.930 . S
C3799 C3800 1.355 . S
C3799 C3801 1.415 . S
C3800 C3799 1.355 . S
C3800 C3802 1.419 . S
C3801 C3796 1.425 . S
C3801 C3798 1.409 . S
C3801 C3799 1.415 . S
C3802 H3792 0.930 . S
C3802 C3800 1.419 . S
C3802 C3803 1.362 . S
C3803 H3793 0.930 . S
C3803 C3796 1.409 . S
C3803 C3802 1.362 . S
H3804 C3810 0.930 . S
H3805 C3813 0.930 . S
H3806 C3814 0.930 . S
H3807 C3815 0.930 . S
H3808 C3818 0.930 . S
H3809 C3819 0.930 . S
C3810 H3804 0.930 . S
C3810 C3811 1.355 . S
C3810 C3812 1.415 . S
C3811 C3810 1.355 . S
C3811 C3813 1.419 . S
C3812 C3810 1.415 . S
C3812 C3817 1.425 . S
C3812 C3819 1.409 1_655 S
C3813 H3805 0.930 . S
C3813 C3811 1.419 . S
C3813 C3814 1.362 . S
C3814 H3806 0.930 . S
C3814 C3813 1.362 . S
C3814 C3817 1.409 . S
C3815 H3807 0.930 . S
C3815 C3816 1.355 . S
C3815 C3817 1.415 . S
C3816 C3815 1.355 . S
C3816 C3818 1.419 1_655 S
C3817 C3812 1.425 . S
C3817 C3814 1.409 . S
C3817 C3815 1.415 . S
C3818 H3808 0.930 . S
C3818 C3816 1.419 1_455 S
C3818 C3819 1.362 . S
C3819 H3809 0.930 . S
C3819 C3812 1.409 1_455 S
C3819 C3818 1.362 . S
H3820 C3826 0.930 . S
H3821 C3829 0.930 . S
H3822 C3830 0.930 . S
H3823 C3831 0.930 . S
H3824 C3834 0.930 . S
H3825 C3835 0.930 . S
C3826 H3820 0.930 . S
C3826 C3827 1.355 . S
C3826 C3828 1.415 . S
C3827 C3826 1.355 . S
C3827 C3829 1.419 . S
C3828 C3826 1.415 . S
C3828 C3833 1.425 . S
C3828 C3835 1.409 . S
C3829 H3821 0.930 . S
C3829 C3827 1.419 . S
C3829 C3830 1.362 . S
C3830 H3822 0.930 . S
C3830 C3829 1.362 . S
C3830 C3833 1.409 . S
C3831 H3823 0.930 . S
C3831 C3832 1.355 . S
C3831 C3833 1.415 . S
C3832 C3831 1.355 . S
C3832 C3834 1.419 . S
C3833 C3828 1.425 . S
C3833 C3830 1.409 . S
C3833 C3831 1.415 . S
C3834 H3824 0.930 . S
C3834 C3832 1.419 . S
C3834 C3835 1.362 . S
C3835 H3825 0.930 . S
C3835 C3828 1.409 . S
C3835 C3834 1.362 . S
H3836 C3842 1.003 . S
H3837 C3845 0.930 . S
H3838 C3846 0.930 . S
H3839 C3847 0.930 . S
H3840 C3850 0.930 . S
H3841 C3851 0.930 . S
C3842 H3836 1.003 . S
C3842 C3843 1.355 . S
C3842 C3844 1.415 . S
C3843 C3842 1.355 . S
C3843 C3845 1.419 . S
C3844 C3842 1.415 . S
C3844 C3849 1.425 . S
C3844 C3851 1.409 1_545 S
C3845 H3837 0.930 . S
C3845 C3843 1.419 . S
C3845 C3846 1.362 . S
C3846 H3838 0.930 . S
C3846 C3845 1.362 . S
C3846 C3849 1.409 . S
C3847 H3839 0.930 . S
C3847 C3848 1.355 . S
C3847 C3849 1.415 . S
C3848 C3847 1.355 . S
C3848 C3850 1.419 1_545 S
C3849 C3844 1.425 . S
C3849 C3846 1.409 . S
C3849 C3847 1.415 . S
C3850 H3840 0.930 . S
C3850 C3848 1.419 1_565 S
C3850 C3851 1.362 . S
C3851 H3841 0.930 . S
C3851 C3844 1.409 1_565 S
C3851 C3850 1.362 . S
C2707 C49 1.685 . S
C2712 C2189 1.620 . S
C2723 C137 1.704 . S
C2728 C2233 1.666 . S
C2744 C2313 1.611 . S
C2739 C205 1.689 . S
C2755 C196 1.646 . S
C2760 C2357 1.572 . S
C2771 C57 1.686 . S
C2776 C2437 1.663 . S
C2787 C145 1.704 . S
C2792 C2499 1.634 . S
C2803 C313 1.681 . S
C2808 C2419 1.599 . S
C2824 C2481 1.632 . S
C2819 C401 1.681 . S
C2840 C2375 1.657 . S
C2835 C489 1.692 . S
C2851 C469 1.647 . S
C2856 C2295 1.589 . S
C2872 C2171 1.591 . S
C2867 C293 1.672 . S
C2883 C381 1.679 . S
C2888 C2251 1.601 . S
C2899 C577 1.730 . S
C2904 C2561 1.631 . S
C2915 C645 1.719 . S
C2920 C2605 1.658 . S
C2936 C2685 1.585 . S
C2931 C733 1.695 . S
C2947 C724 1.691 . S
C2952 C1631 1.651 . S
C2963 C585 1.708 . S
C2968 C1675 1.637 . S
C2979 C636 1.711 . S
C2984 C1755 1.637 . S
C2995 C841 1.685 . S
C3000 C1693 1.609 . S
C3011 C937 1.739 . S
C3016 C1737 1.645 . S
C3032 C1613 1.630 . S
C3027 C1025 1.701 . S
C3048 C2667 1.652 . S
C3043 C988 1.737 . S
C3064 C2543 1.619 . S
C3059 C821 1.685 . S
C3080 C2623 1.636 . S
C3075 C900 1.712 . S
C3091 C1105 1.691 . S
C3096 C1817 1.583 . S
C3107 C1193 1.712 . S
C3112 C1879 1.649 . S
C3123 C1281 1.727 . S
C3128 C1923 1.684 . S
C3139 C1289 1.731 . S
C3144 C1985 1.697 . S
C3160 C2047 1.662 . S
C3155 C1113 1.699 . S
C3176 C2127 1.625 . S
C3171 C1201 1.725 . S
C3192 C2065 1.657 . S
C3187 C1369 1.726 . S
C3208 C2109 1.624 . S
C3203 C1457 1.727 . S
C3219 C1553 1.683 . S
C3224 C2003 1.613 . S
C3240 C1941 1.672 . S
C3235 C1516 1.709 . S
C3251 C1349 1.722 . S
C3256 C1799 1.676 . S
C3272 C1861 1.684 . S
C3267 C1437 1.727 . S
C3288 C1637 1.349 . S
C3283 C29 1.445 . S
C3299 C117 1.443 . S
C3304 C1681 1.417 . S
C3320 C1761 1.428 . S
C3315 C225 1.481 . S
C3336 C1823 1.331 . S
C3331 C233 1.451 . S
C3352 C1885 1.434 . S
C3347 C20 1.484 . S
C3368 C1929 1.342 . S
C3363 C108 1.425 . S
C3379 C321 1.483 . S
C3384 C1947 1.378 . S
C3395 C409 1.429 . S
C3400 C1805 1.308 . S
C3411 C497 1.519 . S
C3416 C1867 1.429 . S
C3427 C460 1.496 . S
C3432 C1699 1.443 . S
C3448 C1743 1.385 . S
C3443 C284 1.473 . S
C3459 C372 1.472 . S
C3464 C1619 1.372 . S
C3480 C1991 1.378 . S
C3475 C557 1.432 . S
C3491 C665 1.518 . S
C3496 C2053 1.439 . S
C3507 C753 1.518 . S
C3512 C2133 1.455 . S
C3528 C2195 1.153 . S
C3523 C761 1.265 . S
C3539 C548 1.455 . S
C3544 C2239 1.401 . S
C3555 C673 1.278 . S
C3560 C2319 1.243 . S
C3571 C849 1.290 . S
C3576 C2301 1.253 . S
C3587 C929 1.300 . S
C3592 C2177 1.220 . S
C3608 C2257 1.391 . S
C3603 C1017 1.426 . S
C3619 C997 1.442 . S
C3624 C2071 1.394 . S
C3635 C812 1.532 . S
C3640 C2115 1.418 . S
C3656 C2009 1.462 . S
C3651 C909 1.497 . S
C3672 C2363 1.205 . S
C3667 C1085 1.290 . S
C3683 C1173 1.294 . S
C3688 C2443 1.203 . S
C3699 C1261 1.457 . S
C3704 C2505 1.378 . S
C3720 C2567 1.300 . S
C3715 C1252 1.438 . S
C3736 C2611 1.479 . S
C3731 C1076 1.518 . S
C3747 C1164 1.518 . S
C3752 C2691 1.413 . S
C3763 C1377 1.480 . S
C3768 C2673 1.363 . S
C3779 C1465 1.498 . S
C3784 C2549 1.434 . S
C3800 C2629 1.410 . S
C3795 C1545 1.527 . S
C3816 C2425 1.232 . S
C3811 C1525 1.289 . S
C3832 C2487 1.374 . S
C3827 C1340 1.432 . S
C3843 C1428 1.300 . S
C3848 C2381 1.206 . S
