# Generated by pormake.
# Topology zzz, (3,6)-cn, num edge types: 1
# Building blocks:
#     Node 0, Type 0, BuildingBlock: BETDAH_clean_linker_0, # of connection points: 3
#     Node 1, Type 0, BuildingBlock: BETDAH_clean_linker_0, # of connection points: 3
#     Node 2, Type 0, BuildingBlock: BETDAH_clean_linker_0, # of connection points: 3
#     Node 3, Type 0, BuildingBlock: BETDAH_clean_linker_0, # of connection points: 3
#     Node 4, Type 0, BuildingBlock: BETDAH_clean_linker_0, # of connection points: 3
#     Node 5, Type 0, BuildingBlock: BETDAH_clean_linker_0, # of connection points: 3
#     Node 6, Type 0, BuildingBlock: BETDAH_clean_linker_0, # of connection points: 3
#     Node 7, Type 0, BuildingBlock: BETDAH_clean_linker_0, # of connection points: 3
#     Node 8, Type 1, BuildingBlock: KUMBUR_clean_sbu_1, # of connection points: 6
#     Node 9, Type 1, BuildingBlock: KUMBUR_clean_sbu_1, # of connection points: 6
#     Node 10, Type 1, BuildingBlock: KUMBUR_clean_sbu_1, # of connection points: 6
#     Node 11, Type 1, BuildingBlock: KUMBUR_clean_sbu_1, # of connection points: 6
#     Edge 12, Type (0, 1), BuildingBlock: AJUNOK_clean_linker_0, # of connection points: 2
#     Edge 13, Type (0, 1), BuildingBlock: AJUNOK_clean_linker_0, # of connection points: 2
#     Edge 14, Type (0, 1), BuildingBlock: AJUNOK_clean_linker_0, # of connection points: 2
#     Edge 15, Type (0, 1), BuildingBlock: AJUNOK_clean_linker_0, # of connection points: 2
#     Edge 16, Type (0, 1), BuildingBlock: AJUNOK_clean_linker_0, # of connection points: 2
#     Edge 17, Type (0, 1), BuildingBlock: AJUNOK_clean_linker_0, # of connection points: 2
#     Edge 18, Type (0, 1), BuildingBlock: AJUNOK_clean_linker_0, # of connection points: 2
#     Edge 19, Type (0, 1), BuildingBlock: AJUNOK_clean_linker_0, # of connection points: 2
#     Edge 20, Type (0, 1), BuildingBlock: AJUNOK_clean_linker_0, # of connection points: 2
#     Edge 21, Type (0, 1), BuildingBlock: AJUNOK_clean_linker_0, # of connection points: 2
#     Edge 22, Type (0, 1), BuildingBlock: AJUNOK_clean_linker_0, # of connection points: 2
#     Edge 23, Type (0, 1), BuildingBlock: AJUNOK_clean_linker_0, # of connection points: 2
#     Edge 24, Type (0, 1), BuildingBlock: AJUNOK_clean_linker_0, # of connection points: 2
#     Edge 25, Type (0, 1), BuildingBlock: AJUNOK_clean_linker_0, # of connection points: 2
#     Edge 26, Type (0, 1), BuildingBlock: AJUNOK_clean_linker_0, # of connection points: 2
#     Edge 27, Type (0, 1), BuildingBlock: AJUNOK_clean_linker_0, # of connection points: 2
#     Edge 28, Type (0, 1), BuildingBlock: AJUNOK_clean_linker_0, # of connection points: 2
#     Edge 29, Type (0, 1), BuildingBlock: AJUNOK_clean_linker_0, # of connection points: 2
#     Edge 30, Type (0, 1), BuildingBlock: AJUNOK_clean_linker_0, # of connection points: 2
#     Edge 31, Type (0, 1), BuildingBlock: AJUNOK_clean_linker_0, # of connection points: 2
#     Edge 32, Type (0, 1), BuildingBlock: AJUNOK_clean_linker_0, # of connection points: 2
#     Edge 33, Type (0, 1), BuildingBlock: AJUNOK_clean_linker_0, # of connection points: 2
#     Edge 34, Type (0, 1), BuildingBlock: AJUNOK_clean_linker_0, # of connection points: 2
#     Edge 35, Type (0, 1), BuildingBlock: AJUNOK_clean_linker_0, # of connection points: 2
# Relax obj value: 0.242
# Max RMSD: 0.125
# Mean RMSD: 0.085
data_MOF--net-zzz--node1-KUMBUR_clean_sbu_1--node2-BETDAH_clean_linker_0--edge1-AJUNOK_clean_linker_0
_symmetry_space_group_name_H-M    P1
_symmetry_Int_Tables_number       1
_symmetry_cell_setting            triclinic
loop_
_symmetry_equiv_pos_as_xyz
'x, y, z'
_cell_length_a     36.540734
_cell_length_b     36.669018
_cell_length_c     11.644179
_cell_angle_alpha  89.852931
_cell_angle_beta   90.093072
_cell_angle_gamma 90.265763
loop_
_atom_site_label
_atom_site_type_symbol
_atom_site_fract_x
_atom_site_fract_y
_atom_site_fract_z
_atom_type_partial_charge
H0 H 0.86322 0.59482 0.34065 0.0
H1 H 0.75336 0.585 0.21085 0.0
H2 H 0.7877 0.52135 0.50066 0.0
C3 C 0.83603 0.58377 0.34505 0.0
C4 C 0.82898 0.5589 0.4345 0.0
C5 C 0.81019 0.59157 0.25713 0.0
C6 C 0.77461 0.57743 0.26981 0.0
C7 C 0.76618 0.5512 0.35305 0.0
C8 C 0.7937 0.5418 0.43606 0.0
N9 N 0.73096 0.53312 0.34989 0.0
C10 C 0.7035 0.5374 0.26394 0.0
H11 H 1.01829 0.86603 0.30791 0.0
H12 H 1.00375 0.75539 0.19473 0.0
H13 H 0.04091 0.77758 0.53888 0.0
C14 C 1.0183 0.83699 0.32517 0.0
C15 C 0.02694 0.82575 0.43736 0.0
C16 C 1.01234 0.8118 0.23475 0.0
C17 C 1.01204 0.77461 0.25993 0.0
C18 C 0.02514 0.76148 0.36459 0.0
C19 C 0.03189 0.78728 0.45569 0.0
N20 N 0.03297 0.72299 0.37522 0.0
C21 C 0.03323 0.69757 0.28255 0.0
H22 H 0.72564 0.0747 0.41003 0.0
H23 H 0.82551 0.05809 0.22607 0.0
H24 H 0.78761 0.97704 0.46947 0.0
C25 C 0.75017 0.05871 0.39689 0.0
C26 C 0.75334 1.02531 0.45439 0.0
C27 C 0.77598 0.07063 0.31569 0.0
C28 C 0.80643 0.04898 0.29105 0.0
C29 C 0.81146 1.01523 0.34589 0.0
C30 C 0.78441 1.00323 0.42759 0.0
N31 N 0.84263 0.99291 0.31778 0.0
C32 C 0.87036 1.00113 0.23612 0.0
H33 H 0.52671 0.69438 0.33566 0.0
H34 H 0.54275 0.80007 0.18689 0.0
H35 H 0.56907 0.78159 0.54532 0.0
C36 C 0.53598 0.72237 0.34562 0.0
C37 C 0.54832 0.73383 0.45339 0.0
C38 C 0.53456 0.74604 0.25066 0.0
C39 C 0.54476 0.78246 0.2614 0.0
C40 C 0.55715 0.79628 0.36626 0.0
C41 C 0.55942 0.77152 0.4634 0.0
N42 N 0.56671 0.8346 0.37374 0.0
C43 C 0.56414 0.86077 0.28289 0.0
H44 H 0.2168 0.58343 0.15016 0.0
H45 H 0.32102 0.56375 0.3046 0.0
H46 H 0.28495 0.49771 1.01797 0.0
C47 C 0.24242 0.56858 0.1498 0.0
C48 C 0.24724 0.54054 0.06983 0.0
C49 C 0.26913 0.57731 0.23181 0.0
C50 C 0.3013 0.55707 0.23861 0.0
C51 C 0.30779 0.52817 0.163 0.0
C52 C 0.28036 0.51979 0.07769 0.0
N53 N 0.34129 0.50762 0.17262 0.0
C54 C 0.36941 0.51312 0.2556 0.0
H55 H 0.98804 0.21256 0.17869 0.0
H56 H 1.00695 0.31964 0.3068 0.0
H57 H 0.07414 0.2788 0.03138 0.0
C58 C 1.00229 0.23829 0.1684 0.0
C59 C 0.03014 0.24153 0.08537 0.0
C60 C 0.99318 0.2666 0.24406 0.0
C61 C 1.01383 0.29857 0.24557 0.0
C62 C 0.044 0.303 0.17352 0.0
C63 C 0.05171 0.27468 0.09047 0.0
N64 N 0.06668 0.33521 0.18613 0.0
C65 C 0.06227 0.36337 0.26949 0.0
H66 H 0.37929 0.0816 0.15313 0.0
H67 H 0.27677 0.0743 0.33248 0.0
H68 H 0.29268 1.0164 1.01304 0.0
C69 C 0.35093 0.07273 0.15556 0.0
C70 C 0.33934 0.04847 0.07122 0.0
C71 C 0.32915 0.08131 0.2512 0.0
C72 C 0.29299 0.06838 0.25705 0.0
C73 C 0.27867 0.04605 0.16951 0.0
C74 C 0.30249 0.0354 0.07724 0.0
N75 N 0.24153 0.03259 0.17552 0.0
C76 C 0.21597 0.03789 0.26563 0.0
H77 H 0.4999 0.34933 0.20787 0.0
H78 H 0.48854 0.23624 0.28812 0.0
H79 H 0.54659 0.26937 0.98319 0.0
C80 C 0.50313 0.32115 0.18313 0.0
C81 C 0.52021 0.31348 0.07803 0.0
C82 C 0.49353 0.29326 0.26114 0.0
C83 C 0.49779 0.25704 0.22954 0.0
C84 C 0.5203 0.2477 0.13835 0.0
C85 C 0.53038 0.27608 0.05787 0.0
N86 N 0.53483 0.21105 0.13464 0.0
C87 C 0.53286 0.18486 0.22583 0.0
Tb88 Tb 1.00566 0.04522 0.64271 0.0
C89 C 0.12367 0.08827 0.98235 0.0
N90 N 0.12522 0.0666 0.88775 0.0
C91 C 0.18341 0.09267 0.83727 0.0
C92 C 0.15178 0.11357 1.00671 0.0
C93 C 0.15462 0.06839 0.81551 0.0
C94 C 0.18206 0.11528 0.93342 0.0
C95 C 0.08919 0.11006 0.14603 0.0
C96 C 0.09291 0.08609 0.05204 0.0
C97 C 0.11669 0.13592 0.16878 0.0
C98 C 0.14819 0.13724 0.10059 0.0
Tb99 Tb 0.07932 1.02442 0.87092 0.0
N100 N 0.06673 0.06061 0.02759 0.0
C101 C 0.05821 0.10698 0.21557 0.0
C102 C 0.03858 0.05528 0.10311 0.0
C103 C 0.03304 0.07914 0.19481 0.0
H104 H 0.15662 0.05027 0.74322 0.0
H105 H 1.01005 0.07515 0.25211 0.0
H106 H 0.92502 0.02872 0.76894 0.0
H107 H 0.06488 0.99237 0.24744 0.0
H108 H 1.02137 0.03165 0.09867 0.0
H109 H 0.05424 0.12496 0.28819 0.0
H110 H 0.05899 0.03609 0.40292 0.0
H111 H 0.20674 0.09376 0.78019 0.0
H112 H 0.1142 0.15454 0.24043 0.0
H113 H 0.16934 0.1571 0.11996 0.0
H114 H 0.87291 0.98704 0.74128 0.0
H115 H 0.20426 0.1343 0.94938 0.0
H116 H 1.01753 0.945 0.21862 0.0
N117 N 0.9551 1.00846 0.62605 0.0
C118 C 0.95486 0.98561 0.53394 0.0
C119 C 0.89595 0.98612 0.68306 0.0
C120 C 0.92538 0.96138 0.5149 0.0
C121 C 0.92594 1.00933 0.69962 0.0
C122 C 0.89572 0.96193 0.59072 0.0
N123 N 1.01275 1.01006 0.48022 0.0
C124 C 0.03991 1.01386 0.4003 0.0
C125 C 0.98584 0.96171 0.36617 0.0
C126 C 0.98482 0.98599 0.46011 0.0
C127 C 1.01567 0.96325 0.29143 0.0
C128 C 0.04255 0.98976 0.30788 0.0
H129 H 0.87249 0.94386 0.57858 0.0
H130 H 0.90444 0.91798 0.40693 0.0
H131 H 0.95761 0.91783 0.27824 0.0
O132 O 1.00584 0.09599 0.55603 0.0
O133 O 1.01083 0.98646 0.68848 0.0
O134 O 0.07017 0.97852 0.74599 0.0
O135 O 0.95738 0.06322 0.56392 0.0
O136 O 0.06416 0.05618 0.59008 0.0
O137 O 0.09848 1.01585 0.69579 0.0
O138 O 0.08704 0.99254 1.01875 0.0
O139 O 0.0725 0.08259 0.81393 0.0
O140 O 1.0113 0.08476 0.78601 0.0
O141 O 0.13078 1.00048 0.89909 0.0
O142 O 1.02249 1.00492 0.91269 0.0
O143 O 0.98667 0.04746 0.82192 0.0
C144 C 0.03996 0.96562 0.69722 0.0
C145 C 0.94948 0.12536 0.59056 0.0
C146 C 0.92652 0.18703 0.57269 0.0
C147 C 0.91172 0.18504 0.68337 0.0
C148 C 0.93388 0.12305 0.70086 0.0
C149 C 0.91503 0.15279 0.74675 0.0
C150 C 0.94526 0.15712 0.52679 0.0
C151 C 0.09463 0.03698 0.60554 0.0
C152 C 0.97049 0.0951 0.54175 0.0
C153 C 0.92668 0.93701 0.42232 0.0
C154 C 0.95698 0.93691 0.34902 0.0
C155 C 0.0418 0.10135 0.81737 0.0
C156 C 0.12344 0.94244 0.97414 0.0
C157 C 0.09391 0.88361 0.94495 0.0
C158 C 0.12766 0.86663 0.971 0.0
C159 C 0.15663 0.92543 0.99925 0.0
C160 C 0.09334 0.92165 0.93853 0.0
C161 C 0.15891 0.8875 0.99458 0.0
C162 C 0.99087 1.02229 0.9017 0.0
C163 C 0.11925 0.98179 0.98601 0.0
H164 H 0.89815 0.20837 0.7207 0.0
H165 H 0.93653 0.0985 0.75184 0.0
H166 H 0.90357 0.15103 0.83224 0.0
H167 H 0.95781 0.15912 0.44251 0.0
H168 H 0.12987 0.83745 0.98137 0.0
H169 H 0.18042 0.94134 0.02398 0.0
H170 H 0.06834 0.93539 0.9152 0.0
H171 H 0.1844 0.87415 1.01576 0.0
Tb172 Tb 0.5556 0.06304 0.85398 0.0
C173 C 0.50758 0.90312 0.70933 0.0
N174 N 0.5355 0.92299 0.66434 0.0
C175 C 0.57155 0.86887 0.64566 0.0
C176 C 0.51135 0.86539 0.73022 0.0
C177 C 0.56629 0.90614 0.6262 0.0
C178 C 0.54425 0.84853 0.7004 0.0
C179 C 0.44401 0.89984 0.76631 0.0
C180 C 0.4745 0.92029 0.72794 0.0
C181 C 0.44828 0.86286 0.79509 0.0
C182 C 0.48191 0.84565 0.77697 0.0
Tb183 Tb 0.52601 0.98409 0.64657 0.0
N184 N 0.47126 0.95589 0.69632 0.0
C185 C 0.4097 0.9165 0.76783 0.0
C186 C 0.43686 0.9703 0.68321 0.0
C187 C 0.40596 0.95153 0.72281 0.0
H188 H 0.58641 0.92133 0.57942 0.0
H189 H 0.37921 0.96396 0.71703 0.0
H190 H 0.4764 0.08073 0.99312 0.0
H191 H 0.63615 0.14875 0.56584 0.0
H192 H 0.43281 0.99665 0.64426 0.0
H193 H 0.38563 0.9018 0.79684 0.0
H194 H 0.61744 0.09138 0.65257 0.0
H195 H 0.59642 0.85579 0.61723 0.0
H196 H 0.42531 0.84694 0.82648 0.0
H197 H 0.48446 0.81679 0.79545 0.0
H198 H 0.43845 0.13354 0.03361 0.0
H199 H 0.54826 0.81964 0.71518 0.0
H200 H 0.60328 0.20557 0.61127 0.0
N201 N 0.51512 0.10956 0.89052 0.0
C202 C 0.52462 0.14273 0.8465 0.0
C203 C 0.46268 0.13659 0.98107 0.0
C204 C 0.50379 0.1742 0.87026 0.0
C205 C 0.48438 0.10631 0.95667 0.0
C206 C 0.4726 0.17076 0.93867 0.0
N207 N 0.57381 0.11399 0.7514 0.0
C208 C 0.60271 0.11531 0.67663 0.0
C209 C 0.56523 0.17894 0.72679 0.0
C210 C 0.55512 0.14511 0.77589 0.0
C211 C 0.59486 0.18017 0.65127 0.0
C212 C 0.61345 0.14817 0.62548 0.0
H213 H 0.4559 0.19424 0.95873 0.0
H214 H 0.49899 0.23244 0.84241 0.0
H215 H 0.55278 0.23659 0.71696 0.0
O216 O 0.60744 0.06584 0.9319 0.0
O217 O 0.52563 0.08024 0.69744 0.0
O218 O 0.54376 0.03718 0.57033 0.0
O219 O 0.56073 0.09067 1.01146 0.0
O220 O 0.60038 0.03954 0.74893 0.0
O221 O 0.58655 0.98394 0.66339 0.0
O222 O 0.54718 0.98566 0.47851 0.0
O223 O 0.55051 0.96138 0.80572 0.0
O224 O 0.55086 1.00842 0.94107 0.0
O225 O 0.4942 0.9628 0.51132 0.0
O226 O 0.48631 1.02282 0.72446 0.0
O227 O 0.50714 0.03128 0.90524 0.0
C228 C 0.53211 0.07041 0.59106 0.0
C229 C 0.61796 0.12123 0.02878 0.0
C230 C 0.6774 0.1487 0.07051 0.0
C231 C 0.66199 0.18355 0.06174 0.0
C232 C 0.60265 0.15629 0.02288 0.0
C233 C 0.62469 0.18724 0.03753 0.0
C234 C 0.65523 0.1178 0.05261 0.0
C235 C 0.61013 1.01017 0.6902 0.0
C236 C 0.59611 0.08765 1.01229 0.0
C237 C 0.51453 0.20802 0.82445 0.0
C238 C 0.54516 0.21038 0.75297 0.0
C239 C 0.55342 0.97322 0.91287 0.0
C240 C 0.49921 1.0059 0.36417 0.0
C241 C 0.45744 0.05769 0.34891 0.0
C242 C 0.47234 0.06534 0.24003 0.0
C243 C 0.51368 1.01421 0.25674 0.0
C244 C 0.4721 0.02846 0.41136 0.0
C245 C 0.5008 0.04421 0.19613 0.0
C246 C 0.47961 1.02521 0.83548 0.0
C247 C 0.51561 0.97719 0.43485 0.0
H248 H 0.67852 0.2077 0.07624 0.0
H249 H 0.57375 0.15989 1.0086 0.0
H250 H 0.61265 0.21412 0.03247 0.0
H251 H 0.66674 0.09072 0.0619 0.0
H252 H 0.46129 0.08676 0.18692 0.0
H253 H 0.53547 0.99811 0.22133 0.0
H254 H 0.46247 1.02336 0.49738 0.0
H255 H 0.51288 0.05066 0.1145 0.0
Tb256 Tb 0.57492 0.51025 0.66146 0.0
C257 C 0.46104 0.46552 0.98753 0.0
N258 N 0.45817 0.48463 0.88764 0.0
C259 C 0.40437 0.45054 0.83656 0.0
C260 C 0.43697 0.43641 1.01196 0.0
C261 C 0.42997 0.47801 0.81299 0.0
C262 C 0.4079 0.4296 0.93639 0.0
C263 C 0.49446 0.4534 0.16321 0.0
C264 C 0.48893 0.47469 0.06388 0.0
C265 C 0.47223 0.42287 0.1833 0.0
C266 C 0.44303 0.41477 0.1096 0.0
Tb267 Tb 0.49651 0.53352 0.87161 0.0
N268 N 0.50993 0.50478 0.04235 0.0
C269 C 0.52175 0.46372 0.24079 0.0
C270 C 0.53296 0.51752 0.12623 0.0
C271 C 0.54066 0.49624 0.22304 0.0
H272 H 0.42699 0.4943 0.73613 0.0
H273 H 0.56096 0.50506 0.28456 0.0
H274 H 0.65175 0.49551 0.80789 0.0
H275 H 0.54653 0.59294 0.2861 0.0
H276 H 0.54538 0.54417 0.12086 0.0
H277 H 0.52728 0.44766 0.31707 0.0
H278 H 0.53215 0.5485 0.43825 0.0
H279 H 0.38209 0.44535 0.77739 0.0
H280 H 0.47703 0.40601 0.25753 0.0
H281 H 0.4255 0.39162 0.12849 0.0
H282 H 0.71542 0.51767 0.80485 0.0
H283 H 0.38847 0.40784 0.95323 0.0
H284 H 0.60853 0.62019 0.27415 0.0
N285 N 0.6345 0.52958 0.66959 0.0
C286 C 0.64491 0.55418 0.58839 0.0
C287 C 0.69574 0.52859 0.74449 0.0
C288 C 0.68106 0.56764 0.58365 0.0
C289 C 0.65944 0.5164 0.74679 0.0
C290 C 0.70659 0.55442 0.66281 0.0
N291 N 0.58484 0.55151 0.51604 0.0
C292 C 0.55909 0.56042 0.43536 0.0
C293 C 0.62892 0.5905 0.42161 0.0
C294 C 0.61936 0.56522 0.50803 0.0
C295 C 0.60226 0.60079 0.34168 0.0
C296 C 0.56725 0.58553 0.34831 0.0
H297 H 0.73482 0.56352 0.66011 0.0
H298 H 0.71822 0.60431 0.49483 0.0
H299 H 0.67247 0.62448 0.35324 0.0
O300 O 0.55917 0.47005 0.54399 0.0
O301 O 0.5642 0.57002 0.66605 0.0
O302 O 0.51666 0.58507 0.79009 0.0
O303 O 0.61576 0.47629 0.59279 0.0
O304 O 0.5178 0.50233 0.59575 0.0
O305 O 0.48238 0.54376 0.69164 0.0
O306 O 0.47174 0.5598 1.01178 0.0
O307 O 0.50568 0.47622 0.80831 0.0
O308 O 0.56687 0.47186 0.8079 0.0
O309 O 0.4431 0.55352 0.85285 0.0
O310 O 0.55252 0.55362 0.92454 0.0
O311 O 0.58767 0.50888 0.84552 0.0
C312 C 0.5421 0.59419 0.71347 0.0
C313 C 0.59009 0.4171 0.59592 0.0
C314 C 0.55317 0.36226 0.6211 0.0
C315 C 0.5757 0.35154 0.71296 0.0
C316 C 0.61254 0.4061 0.68797 0.0
C317 C 0.60551 0.37325 0.74515 0.0
C318 C 0.56137 0.39447 0.56134 0.0
C319 C 0.48809 0.52271 0.60268 0.0
C320 C 0.59117 0.45451 0.54997 0.0
C321 C 0.69066 0.59337 0.49914 0.0
C322 C 0.66465 0.60475 0.41819 0.0
C323 C 0.53506 0.4566 0.83077 0.0
C324 C 0.42563 0.6019 0.96895 0.0
C325 C 0.43929 0.66614 0.98362 0.0
C326 C 0.40643 0.67093 0.04575 0.0
C327 C 0.39357 0.60643 0.03281 0.0
C328 C 0.44545 0.63229 0.93216 0.0
C329 C 0.38309 0.64132 0.0664 0.0
C330 C 0.58406 0.53572 0.91873 0.0
C331 C 0.44133 0.56572 0.95666 0.0
H332 H 0.57045 0.32633 0.75886 0.0
H333 H 0.63464 0.42335 0.71838 0.0
H334 H 0.62268 0.36501 0.81637 0.0
H335 H 0.54505 0.40246 0.48765 0.0
H336 H 0.40004 0.69656 0.08672 0.0
H337 H 0.37752 0.58304 0.06005 0.0
H338 H 0.46862 0.62842 0.8761 0.0
H339 H 0.35854 0.64494 0.11701 0.0
Tb340 Tb 0.0489 0.57367 0.64065 0.0
C341 C 0.06645 0.42794 0.92948 0.0
N342 N 0.04032 0.43812 0.85313 0.0
C343 C 0.03847 0.37724 0.77748 0.0
C344 C 0.08053 0.39224 0.93072 0.0
C345 C 0.02562 0.41313 0.77899 0.0
C346 C 0.06629 0.3668 0.853 0.0
C347 C 0.10593 0.44442 0.08854 0.0
C348 C 0.079 0.45354 1.00681 0.0
C349 C 0.12099 0.40925 0.08801 0.0
C350 C 0.10837 0.38322 1.00904 0.0
Tb351 Tb 1.02367 0.49827 0.85647 0.0
N352 N 0.06569 0.48794 0.99868 0.0
C353 C 0.11759 0.47131 0.16567 0.0
C354 C 0.07596 0.51392 0.07643 0.0
C355 C 0.10217 0.50606 0.16056 0.0
H356 H 1.00362 0.42066 0.72168 0.0
H357 H 0.1107 0.52691 0.22067 0.0
H358 H 1.00948 0.64494 0.76726 0.0
H359 H 1.02094 0.50487 0.23594 0.0
H360 H 0.06432 0.54082 0.07325 0.0
H361 H 0.13857 0.46565 0.22876 0.0
H362 H 0.0597 0.52222 0.39886 0.0
H363 H 0.02689 0.35766 0.7181 0.0
H364 H 0.14242 0.4019 0.14796 0.0
H365 H 0.12004 0.35611 1.01007 0.0
H366 H 0.95861 0.68704 0.7243 0.0
H367 H 0.07626 0.33902 0.85147 0.0
H368 H 0.96347 0.53798 0.19845 0.0
N369 N 1.00114 0.61294 0.61686 0.0
C370 C 0.98177 0.60845 0.51796 0.0
C371 C 0.96473 0.66495 0.66603 0.0
C372 C 0.95221 0.63152 0.49143 0.0
C373 C 0.99332 0.64095 0.69053 0.0
C374 C 0.94404 0.66019 0.5662 0.0
N375 N 1.02021 0.55835 0.47182 0.0
C376 C 0.03305 0.53447 0.39127 0.0
C377 C 0.9694 0.57265 0.34741 0.0
C378 C 0.99064 0.57943 0.44618 0.0
C379 C 0.97954 0.54438 0.27408 0.0
C380 C 1.01193 0.52566 0.29498 0.0
H381 H 0.92156 0.67852 0.54834 0.0
H382 H 0.9082 0.64198 0.37185 0.0
H383 H 0.92282 0.5894 0.2482 0.0
O384 O 0.0928 0.58529 0.52702 0.0
O385 O 0.99104 0.56626 0.70344 0.0
O386 O 0.98404 0.50556 0.71388 0.0
O387 O 0.06033 0.62782 0.59678 0.0
O388 O 0.06711 0.51658 0.59713 0.0
O389 O 1.02039 0.48343 0.67392 0.0
O390 O 0.98845 0.51601 0.98522 0.0
O391 O 0.08425 0.50534 0.83628 0.0
O392 O 0.09377 0.56342 0.7645 0.0
O393 O 0.98555 0.46057 0.9245 0.0
O394 O 1.01795 0.55599 0.91953 0.0
O395 O 0.05657 0.59377 0.8167 0.0
C396 C 0.97022 0.53734 0.68603 0.0
C397 C 0.12218 0.64196 0.57041 0.0
C398 C 0.18654 0.65553 0.5397 0.0
C399 C 0.1847 0.68483 0.61609 0.0
C400 C 0.1205 0.67132 0.6484 0.0
C401 C 0.15162 0.69256 0.67081 0.0
C402 C 0.15536 0.6344 0.51673 0.0
C403 C 0.04764 0.48592 0.60125 0.0
C404 C 0.08939 0.62035 0.53973 0.0
C405 C 0.93108 0.62458 0.39339 0.0
C406 C 0.93925 0.59475 0.32316 0.0
C407 C 0.1059 0.53377 0.81685 0.0
C408 C 0.9296 0.49151 0.9545 0.0
C409 C 0.877 0.53257 0.93664 0.0
C410 C 0.85441 0.50153 0.92123 0.0
C411 C 0.90649 0.46136 0.93918 0.0
C412 C 0.91494 0.52689 0.9466 0.0
C413 C 0.86923 0.46648 0.9199 0.0
C414 C 0.0372 0.58666 0.90949 0.0
C415 C 0.96883 0.48629 0.98019 0.0
H416 H 0.20867 0.70141 0.63352 0.0
H417 H 0.09519 0.67813 0.69144 0.0
H418 H 0.15004 0.71507 0.73054 0.0
H419 H 0.15694 0.61219 0.45548 0.0
H420 H 0.82498 0.50353 0.91702 0.0
H421 H 0.91718 0.43387 0.94312 0.0
H422 H 0.93319 0.55003 0.9531 0.0
H423 H 0.85141 0.44306 0.90932 0.0
C424 C 0.15827 0.06494 0.35073 0.0
C425 C 0.18653 0.03881 0.35375 0.0
C426 C 0.12885 0.06452 0.43098 0.0
C427 C 0.12606 0.0377 0.51837 0.0
H428 H 0.15892 0.08586 0.28539 0.0
H429 H 0.10814 0.08545 0.42432 0.0
S430 S 0.19379 0.96309 0.56366 0.0
N431 N 0.21001 0.98568 0.45189 0.0
N432 N 0.15585 0.98423 0.60081 0.0
C433 C 0.15466 1.01154 0.52182 0.0
C434 C 0.18441 1.01221 0.44039 0.0
C435 C 0.5523 0.12363 0.3078 0.0
C436 C 0.53223 0.15634 0.31852 0.0
C437 C 0.55185 0.09597 0.39406 0.0
C438 C 0.5311 0.09934 0.49609 0.0
H439 H 0.56877 0.11935 0.23208 0.0
H440 H 0.56826 0.07183 0.38088 0.0
S441 S 0.47159 0.17835 0.5647 0.0
N442 N 0.49054 0.18971 0.44107 0.0
N443 N 0.48795 0.13775 0.59733 0.0
C444 C 0.5104 0.13165 0.50659 0.0
C445 C 0.51146 0.16002 0.42 0.0
C446 C 0.4235 0.48687 0.36277 0.0
C447 C 0.39993 0.51648 0.34003 0.0
C448 C 0.45248 0.48928 0.44427 0.0
C449 C 0.45889 0.52121 0.50922 0.0
H450 H 0.41928 0.46141 0.31781 0.0
H451 H 0.46943 0.46557 0.45856 0.0
S452 S 0.40676 0.60756 0.47696 0.0
N453 N 0.38685 0.57961 0.38476 0.0
N454 N 0.43969 0.58387 0.53895 0.0
C455 C 0.43576 0.55117 0.48562 0.0
C456 C 0.4068 0.54889 0.40122 0.0
C457 C 0.02506 0.40761 0.38789 0.0
C458 C 0.0594 0.39421 0.35304 0.0
C459 C 1.02179 0.43696 0.46683 0.0
C460 C 0.05259 0.45533 0.51355 0.0
H461 H 1.00032 0.39515 0.35449 0.0
H462 H 0.99464 0.44551 0.49098 0.0
S463 S 0.149 0.42959 0.45701 0.0
N464 N 0.12508 0.40057 0.37813 0.0
N465 N 0.11889 0.45624 0.5207 0.0
C466 C 0.0871 0.44219 0.47915 0.0
C467 C 0.09047 0.41167 0.40087 0.0
C468 C 0.92141 0.97717 0.11107 0.0
C469 C 0.90071 1.00681 0.15278 0.0
C470 C 0.95087 0.98213 0.03265 0.0
C471 C 0.96036 1.01693 0.9892 0.0
H472 H 0.91474 0.94978 0.13915 0.0
H473 H 0.96581 0.9584 1.00397 0.0
S474 S 0.91605 0.10383 0.07487 0.0
N475 N 0.89338 0.07243 0.14811 0.0
N476 N 0.94686 0.08164 0.99894 0.0
C477 C 0.93978 0.04668 0.03073 0.0
C478 C 0.91052 0.0417 0.11247 0.0
C479 C 0.54024 0.88425 0.09203 0.0
C480 C 0.56197 0.88938 0.19099 0.0
C481 C 0.53779 0.91116 1.00409 0.0
C482 C 0.5571 0.94471 1.0087 0.0
H483 H 0.52457 0.85929 0.08256 0.0
H484 H 0.51963 0.90588 0.93327 0.0
S485 S 0.61754 0.97243 0.25037 0.0
N486 N 0.60251 0.93163 0.28931 0.0
N487 N 0.59902 0.98096 0.12364 0.0
C488 C 0.57896 0.95012 0.10749 0.0
C489 C 0.58111 0.92292 0.19801 0.0
C490 C 0.65119 0.50738 0.15922 0.0
C491 C 0.67293 0.53861 0.17894 0.0
C492 C 0.62237 0.50719 0.07739 0.0
C493 C 0.61288 0.53849 1.0128 0.0
H494 H 0.65677 0.48253 0.20648 0.0
H495 H 0.60728 0.48205 0.0644 0.0
S496 S 0.66261 0.62686 0.02523 0.0
N497 N 0.68369 0.60149 0.12223 0.0
N498 N 0.62977 0.60109 0.9703 0.0
C499 C 0.63453 0.56989 0.03127 0.0
C500 C 0.66429 0.56997 0.11376 0.0
C501 C 1.00538 0.64538 0.16902 0.0
C502 C 0.03445 0.67017 0.18775 0.0
C503 C 1.00653 0.61831 0.08147 0.0
C504 C 0.03657 0.61515 1.00547 0.0
H505 H 0.98134 0.64719 0.22233 0.0
H506 H 0.98328 0.60015 0.07194 0.0
S507 S 0.11993 0.6739 1.01647 0.0
N508 N 0.09437 0.68947 0.1223 0.0
N509 N 0.09634 0.64031 0.95717 0.0
C510 C 0.06564 0.64032 0.02272 0.0
C511 C 0.06464 0.66729 0.11332 0.0
C512 C 0.97537 0.26428 0.44981 0.0
C513 C 0.96539 0.2599 0.33384 0.0
C514 C 0.95676 0.24528 0.53611 0.0
C515 C 0.92822 0.22121 0.5078 0.0
H516 H 1.00032 0.27859 0.47282 0.0
H517 H 0.96835 0.2451 0.62187 0.0
S518 S 0.88452 0.20977 0.22344 0.0
N519 N 0.91924 0.23782 0.19989 0.0
N520 N 0.88507 0.20095 0.36265 0.0
C521 C 0.914 0.22183 0.39599 0.0
C522 C 0.93265 0.24138 0.30825 0.0
C523 C 0.35843 0.06399 0.42707 0.0
C524 C 0.34903 0.09334 0.35539 0.0
C525 C 0.39524 0.05417 0.4384 0.0
C526 C 0.42309 0.07575 0.38815 0.0
H527 H 0.33794 0.04372 0.44936 0.0
H528 H 0.40089 0.02726 0.4721 0.0
S529 S 0.41038 0.16886 0.26988 0.0
N530 N 0.36841 0.1531 0.28961 0.0
N531 N 0.43807 0.13648 0.31597 0.0
C532 C 0.41344 0.11116 0.35221 0.0
C533 C 0.3758 0.12046 0.33971 0.0
C534 C 0.51968 0.28393 0.45427 0.0
C535 C 0.49301 0.30126 0.38548 0.0
C536 C 0.53547 0.30198 0.54697 0.0
C537 C 0.52502 0.3377 0.57297 0.0
H538 H 0.53265 0.25892 0.42687 0.0
H539 H 0.55959 0.29007 0.58579 0.0
S540 S 0.44314 0.38536 0.45906 0.0
N541 N 0.44676 0.34844 0.37881 0.0
N542 N 0.47778 0.38393 0.55015 0.0
C543 C 0.49304 0.35156 0.5212 0.0
C544 C 0.47657 0.33278 0.42788 0.0
C545 C 0.25952 0.59482 0.4351 0.0
C546 C 0.26068 0.60516 0.31882 0.0
C547 C 0.23931 0.61511 0.51407 0.0
C548 C 0.22014 0.64626 0.47856 0.0
H549 H 0.27071 0.5689 0.4625 0.0
H550 H 0.23521 0.60411 0.5996 0.0
S551 S 0.22142 0.6888 0.19029 0.0
N552 N 0.24682 0.65189 0.17704 0.0
N553 N 0.20826 0.68976 0.32593 0.0
C554 C 0.22516 0.65942 0.36671 0.0
C555 C 0.24568 0.63885 0.28636 0.0
C556 C 1.00657 0.86076 0.08724 0.0
C557 C 1.01469 0.82424 0.11252 0.0
C558 C 0.02875 0.88042 1.01168 0.0
C559 C 0.05848 0.86335 0.95585 0.0
H560 H 0.9873 0.87569 0.13946 0.0
H561 H 0.02547 0.90968 1.01271 0.0
S562 S 0.06995 0.76383 0.9231 0.0
N563 N 0.04057 0.7685 0.02952 0.0
N564 N 0.07917 0.80561 0.87845 0.0
C565 C 0.0576 0.82523 0.95024 0.0
C566 C 0.03632 0.80528 0.03135 0.0
C567 C 0.76223 0.09637 0.12374 0.0
C568 C 0.76634 0.10221 0.24234 0.0
C569 C 0.73688 0.11661 0.0603 0.0
C570 C 0.7149 0.14289 0.11423 0.0
H571 H 0.77467 0.07294 0.08319 0.0
H572 H 0.7309 0.10823 0.97303 0.0
S573 S 0.72492 0.17648 0.41241 0.0
N574 N 0.75455 0.14276 0.40258 0.0
N575 N 0.70564 0.17994 0.28446 0.0
C576 C 0.72379 0.15344 0.22669 0.0
C577 C 0.74999 0.13319 0.29075 0.0
C578 C 0.48703 0.7486 0.09818 0.0
C579 C 0.51891 0.73256 0.14235 0.0
C580 C 0.46345 0.72856 0.02736 0.0
C581 C 0.4706 0.69167 1.00276 0.0
H582 H 0.47824 0.77507 0.12835 0.0
H583 H 0.43753 0.74065 1.00349 0.0
S584 S 0.55792 0.64316 0.0669 0.0
N585 N 0.56228 0.68314 0.12975 0.0
N586 N 0.51757 0.64397 1.00383 0.0
C587 C 0.50587 0.67807 0.0301 0.0
C588 C 0.5301 0.69898 0.09906 0.0
C589 C 0.86029 0.61271 0.12603 0.0
C590 C 0.82269 0.60612 0.14154 0.0
C591 C 0.87962 0.59245 0.04427 0.0
C592 C 0.86075 0.56876 0.96857 0.0
H593 H 0.87561 0.62812 0.18889 0.0
H594 H 0.90907 0.59281 0.05064 0.0
S595 S 0.76298 0.58145 0.89518 0.0
N596 N 0.76804 0.60158 1.02083 0.0
N597 N 0.80355 0.565 0.86121 0.0
C598 C 0.82331 0.57602 0.95381 0.0
C599 C 0.80411 0.59549 0.0405 0.0
C600 C 1.00403 0.18604 0.9759 0.0
C601 C 0.03471 0.20882 1.00141 0.0
C602 C 1.00679 0.15261 0.9159 0.0
C603 C 0.04019 0.13941 0.87293 0.0
H604 H 0.97688 0.19374 1.00325 0.0
H605 H 0.9821 0.13676 0.90416 0.0
S606 S 0.12679 0.19339 0.87494 0.0
N607 N 0.09888 0.21804 0.95437 0.0
N608 N 0.10318 0.15705 0.83446 0.0
C609 C 0.07046 0.16357 0.88507 0.0
C610 C 0.06791 0.19758 0.94967 0.0
C611 C 0.39711 1.01247 0.03839 0.0
C612 C 0.36934 0.03492 0.99178 0.0
C613 C 0.43184 1.00869 0.98573 0.0
C614 C 0.44084 0.02684 0.88252 0.0
H615 H 0.39279 0.99956 0.12109 0.0
H616 H 0.4523 0.99216 0.02832 0.0
S617 S 0.37924 0.08999 0.72547 0.0
N618 N 0.35441 0.07643 0.83634 0.0
N619 N 0.41873 0.06844 0.73588 0.0
C620 C 0.41312 0.0485 0.83272 0.0
C621 C 0.37784 0.05278 0.8875 0.0
C622 C 0.55672 0.37113 1.02086 0.0
C623 C 0.5279 0.3461 0.99852 0.0
C624 C 0.55933 0.40577 0.96464 0.0
C625 C 0.53265 0.41821 0.88519 0.0
H626 H 0.57698 0.36434 0.08531 0.0
H627 H 0.582 0.42351 0.98668 0.0
S628 S 0.45109 0.36361 0.79808 0.0
N629 N 0.47213 0.33686 0.89083 0.0
N630 N 0.4763 0.40108 0.78819 0.0
C631 C 0.50381 0.39327 0.86232 0.0
C632 C 0.50159 0.35781 0.91799 0.0
C633 C 0.19494 0.50333 0.97636 0.0
C634 C 0.21633 0.53547 0.98237 0.0
C635 C 0.16064 0.50237 0.91747 0.0
C636 C 0.1451 0.5337 0.86494 0.0
H637 H 0.20385 0.47917 1.02195 0.0
H638 H 0.14577 0.47688 0.91563 0.0
S639 S 0.19267 0.6234 0.84205 0.0
N640 N 0.22129 0.5981 0.91695 0.0
N641 N 0.15728 0.59688 0.81291 0.0
C642 C 0.16755 0.56524 0.86429 0.0
C643 C 0.20268 0.56595 0.92141 0.0
C644 C 1.00067 0.87647 0.56222 0.0
C645 C 0.03146 0.85603 0.52749 0.0
C646 C 1.00386 0.91009 0.62236 0.0
C647 C 0.03804 0.92654 0.64835 0.0
H648 H 0.97355 0.86697 0.53893 0.0
H649 H 0.97892 0.92375 0.64648 0.0
S650 S 0.12776 0.88336 0.58535 0.0
N651 N 0.09774 0.85413 0.53178 0.0
N652 N 0.10377 0.917 0.64134 0.0
C653 C 0.06914 0.90551 0.61908 0.0
C654 C 0.06586 0.8708 0.55915 0.0
C655 C 0.70874 0.04137 0.61404 0.0
C656 C 0.72187 1.01525 0.53502 0.0
C657 C 0.67421 0.03806 0.66838 0.0
C658 C 0.6498 1.00884 0.6455 0.0
H659 H 0.72477 0.06575 0.63039 0.0
H660 H 0.66628 0.05962 0.72633 0.0
S661 S 0.6743 0.92858 0.46546 0.0
N662 N 0.70992 0.95606 0.4513 0.0
N663 N 0.64547 0.94979 0.55127 0.0
C664 C 0.66409 0.98091 0.57419 0.0
C665 C 0.69971 0.98413 0.51978 0.0
C666 C 0.51426 0.68714 0.57824 0.0
C667 C 0.54777 0.70447 0.54813 0.0
C668 C 0.51263 0.65315 0.63793 0.0
C669 C 0.54445 0.63364 0.66902 0.0
H670 H 0.48877 0.69911 0.54961 0.0
H671 H 0.48603 0.64101 0.65356 0.0
S672 S 0.63934 0.66795 0.6238 0.0
N673 N 0.6137 0.69986 0.5642 0.0
N674 N 0.61083 0.63671 0.67432 0.0
C675 C 0.57812 0.6514 0.64459 0.0
C676 C 0.57973 0.68632 0.58515 0.0
C677 C 0.87592 0.57663 0.58951 0.0
C678 C 0.86086 0.54977 0.51565 0.0
C679 C 0.90999 0.57186 0.64757 0.0
C680 C 0.93174 0.54037 0.63309 0.0
H681 H 0.86175 0.60229 0.59972 0.0
H682 H 0.91986 0.59364 0.70216 0.0
S683 S 0.90534 0.4614 0.45044 0.0
N684 N 0.87089 0.48998 0.434 0.0
N685 N 0.93409 0.48118 0.54076 0.0
C686 C 0.91638 0.51283 0.56256 0.0
C687 C 0.88155 0.51757 0.5042 0.0
loop_
_geom_bond_atom_site_label_1
_geom_bond_atom_site_label_2
_geom_bond_distance
_geom_bond_site_symmetry_2
_ccdc_geom_bond_type
H0 C3 0.929 . S
H1 C6 0.929 . S
H2 C8 0.930 . S
C3 H0 0.929 . S
C3 C4 1.398 . S
C3 C5 1.396 . S
C4 C3 1.398 . S
C4 C8 1.407 . S
C5 C3 1.396 . S
C5 C6 1.394 . S
C6 H1 0.929 . S
C6 C5 1.394 . S
C6 C7 1.382 . S
C7 C6 1.382 . S
C7 C8 1.392 . S
C7 N9 1.420 . S
C8 H2 0.930 . S
C8 C4 1.407 . S
C8 C7 1.392 . S
N9 C7 1.420 . S
N9 C10 1.244 . S
C10 N9 1.244 . S
H11 C14 0.929 . S
H12 C17 0.929 . S
H13 C19 0.930 . S
C14 H11 0.929 . S
C14 C15 1.398 . S
C14 C16 1.396 . S
C15 C14 1.398 . S
C15 C19 1.407 . S
C16 C14 1.396 . S
C16 C17 1.394 . S
C17 H12 0.929 . S
C17 C16 1.394 . S
C17 C18 1.382 . S
C18 C17 1.382 . S
C18 C19 1.392 . S
C18 N20 1.420 1_655 S
C19 H13 0.930 . S
C19 C15 1.407 . S
C19 C18 1.392 . S
N20 C18 1.420 1_455 S
N20 C21 1.243 1_455 S
C21 N20 1.243 1_655 S
H22 C25 0.929 . S
H23 C28 0.929 . S
H24 C30 0.935 . S
C25 H22 0.929 . S
C25 C26 1.398 . S
C25 C27 1.396 . S
C26 C25 1.398 . S
C26 C30 1.407 . S
C27 C25 1.396 . S
C27 C28 1.394 . S
C28 H23 0.929 . S
C28 C27 1.394 . S
C28 C29 1.382 . S
C29 C28 1.382 . S
C29 C30 1.392 . S
C29 N31 1.420 1_565 S
C30 H24 0.935 . S
C30 C26 1.407 . S
C30 C29 1.392 . S
N31 C29 1.420 1_545 S
N31 C32 1.244 1_545 S
C32 N31 1.244 1_565 S
H33 C36 0.929 . S
H34 C39 0.929 . S
H35 C41 0.930 . S
C36 H33 0.929 . S
C36 C37 1.398 . S
C36 C38 1.396 . S
C37 C36 1.398 . S
C37 C41 1.407 . S
C38 C36 1.396 . S
C38 C39 1.394 . S
C39 H34 0.929 . S
C39 C38 1.394 . S
C39 C40 1.382 . S
C40 C39 1.382 . S
C40 C41 1.392 . S
C40 N42 1.420 . S
C41 H35 0.930 . S
C41 C37 1.407 . S
C41 C40 1.392 . S
N42 C40 1.420 . S
N42 C43 1.244 . S
C43 N42 1.244 . S
H44 C47 0.929 . S
H45 C50 0.929 . S
H46 C52 0.930 . S
C47 H44 0.929 . S
C47 C48 1.398 1_554 S
C47 C49 1.396 . S
C48 C47 1.398 1_556 S
C48 C52 1.407 . S
C49 C47 1.396 . S
C49 C50 1.394 . S
C50 H45 0.929 . S
C50 C49 1.394 . S
C50 C51 1.382 . S
C51 C50 1.382 . S
C51 C52 1.392 1_554 S
C51 N53 1.420 . S
C52 H46 0.930 . S
C52 C48 1.407 . S
C52 C51 1.392 1_556 S
N53 C51 1.420 . S
N53 C54 1.244 . S
C54 N53 1.244 . S
H55 C58 0.929 . S
H56 C61 0.929 . S
H57 C63 0.930 . S
C58 H55 0.929 . S
C58 C59 1.398 1_554 S
C58 C60 1.396 . S
C59 C58 1.398 1_556 S
C59 C63 1.407 . S
C60 C58 1.396 . S
C60 C61 1.394 . S
C61 H56 0.929 . S
C61 C60 1.394 . S
C61 C62 1.382 . S
C62 C61 1.382 . S
C62 C63 1.392 1_554 S
C62 N64 1.420 . S
C63 H57 0.930 . S
C63 C59 1.407 . S
C63 C62 1.392 1_556 S
N64 C62 1.420 . S
N64 C65 1.244 . S
C65 N64 1.244 . S
H66 C69 0.929 . S
H67 C72 0.929 . S
H68 C74 0.930 . S
C69 H66 0.929 . S
C69 C70 1.398 1_554 S
C69 C71 1.396 . S
C70 C69 1.398 1_556 S
C70 C74 1.407 . S
C71 C69 1.396 . S
C71 C72 1.394 . S
C72 H67 0.929 . S
C72 C71 1.394 . S
C72 C73 1.382 . S
C73 C72 1.382 . S
C73 C74 1.392 1_554 S
C73 N75 1.420 . S
C74 H68 0.930 . S
C74 C70 1.407 . S
C74 C73 1.392 1_556 S
N75 C73 1.420 . S
N75 C76 1.244 . S
C76 N75 1.244 . S
H77 C80 0.929 . S
H78 C83 0.929 . S
H79 C85 0.930 . S
C80 H77 0.929 . S
C80 C81 1.398 1_554 S
C80 C82 1.396 . S
C81 C80 1.398 1_556 S
C81 C85 1.407 . S
C82 C80 1.396 . S
C82 C83 1.394 . S
C83 H78 0.929 . S
C83 C82 1.394 . S
C83 C84 1.382 . S
C84 C83 1.382 . S
C84 C85 1.392 1_554 S
C84 N86 1.420 . S
C85 H79 0.930 . S
C85 C81 1.407 . S
C85 C84 1.392 1_556 S
N86 C84 1.420 . S
N86 C87 1.244 . S
C87 N86 1.244 . S
Tb88 N117 2.617 . S
Tb88 N123 2.572 . S
Tb88 O132 2.465 . S
Tb88 O133 2.387 1_545 S
Tb88 O135 2.428 . S
Tb88 O136 2.308 1_655 S
Tb88 O140 2.349 1_655 S
Tb88 O143 2.393 . S
Tb88 C152 2.802 . S
C89 N90 1.379 1_554 S
C89 C92 1.416 . S
C89 C96 1.424 . S
N90 C89 1.379 1_556 S
N90 C93 1.334 . S
N90 Tb99 2.617 1_545 S
C91 C93 1.390 . S
C91 C94 1.339 . S
C91 H111 0.930 . S
C92 C89 1.416 . S
C92 C94 1.416 1_554 S
C92 C98 1.448 . S
C93 N90 1.334 . S
C93 C91 1.390 . S
C93 H104 0.930 1_545 S
C94 C91 1.339 . S
C94 C92 1.416 1_556 S
C94 H115 0.930 . S
C95 C96 1.413 . S
C95 C97 1.427 . S
C95 C101 1.416 . S
C96 C89 1.424 . S
C96 C95 1.413 . S
C96 N100 1.361 . S
C97 C95 1.427 . S
C97 C98 1.328 . S
C97 H112 0.929 . S
C98 C92 1.448 . S
C98 C97 1.328 . S
C98 H113 0.930 . S
Tb99 N90 2.617 1_565 S
Tb99 N100 2.572 1_566 S
Tb99 O134 2.349 . S
Tb99 O137 2.393 . S
Tb99 O138 2.465 . S
Tb99 O139 2.387 1_565 S
Tb99 O141 2.428 . S
Tb99 O142 2.308 1_465 S
Tb99 C163 2.802 . S
N100 C96 1.361 . S
N100 Tb99 2.572 1_544 S
N100 C102 1.340 . S
C101 C95 1.416 . S
C101 C103 1.332 . S
C101 H109 0.931 . S
C102 N100 1.340 . S
C102 C103 1.407 . S
C102 H108 0.930 . S
C103 C101 1.332 . S
C103 C102 1.407 . S
C103 H105 0.929 . S
H104 C93 0.930 1_565 S
H105 C103 0.929 . S
H106 C121 0.930 . S
H107 C128 0.929 1_455 S
H108 C102 0.930 . S
H109 C101 0.931 . S
H110 C124 0.930 1_455 S
H111 C91 0.930 . S
H112 C97 0.929 . S
H113 C98 0.930 . S
H114 C119 0.930 . S
H115 C94 0.930 . S
H116 C127 0.931 . S
N117 Tb88 2.617 . S
N117 C118 1.379 1_545 S
N117 C121 1.334 . S
C118 N117 1.379 1_565 S
C118 C120 1.416 . S
C118 C126 1.424 . S
C119 H114 0.930 . S
C119 C121 1.390 . S
C119 C122 1.339 1_545 S
C120 C118 1.416 . S
C120 C122 1.416 . S
C120 C153 1.448 . S
C121 H106 0.930 . S
C121 N117 1.334 . S
C121 C119 1.390 . S
C122 C119 1.339 1_565 S
C122 C120 1.416 . S
C122 H129 0.930 . S
N123 Tb88 2.572 . S
N123 C124 1.340 . S
N123 C126 1.361 1_545 S
C124 H110 0.930 1_655 S
C124 N123 1.340 . S
C124 C128 1.407 1_545 S
C125 C126 1.413 . S
C125 C127 1.416 . S
C125 C154 1.427 . S
C126 C118 1.424 . S
C126 N123 1.361 1_565 S
C126 C125 1.413 . S
C127 H116 0.931 . S
C127 C125 1.416 . S
C127 C128 1.332 . S
C128 H107 0.929 1_655 S
C128 C124 1.407 1_565 S
C128 C127 1.332 . S
H129 C122 0.930 . S
H130 C153 0.930 . S
H131 C154 0.929 . S
O132 Tb88 2.465 . S
O132 C152 1.264 . S
O133 Tb88 2.387 1_565 S
O133 C144 1.264 . S
O134 Tb99 2.349 . S
O134 C144 1.243 1_455 S
O135 Tb88 2.428 . S
O135 C152 1.256 . S
O136 Tb88 2.308 1_455 S
O136 C151 1.266 . S
O137 Tb99 2.393 . S
O137 C151 1.248 1_565 S
O138 Tb99 2.465 . S
O138 C163 1.264 . S
O139 Tb99 2.387 1_545 S
O139 C155 1.264 . S
O140 Tb88 2.349 1_455 S
O140 C155 1.243 . S
O141 Tb99 2.428 . S
O141 C163 1.256 . S
O142 Tb99 2.308 1_645 S
O142 C162 1.266 . S
O143 Tb88 2.393 . S
O143 C162 1.248 . S
C144 O133 1.264 . S
C144 O134 1.243 1_655 S
C145 C148 1.399 . S
C145 C150 1.383 . S
C145 C152 1.496 . S
C146 C147 1.399 . S
C146 C150 1.389 . S
C147 C146 1.399 . S
C147 C149 1.380 . S
C147 H164 0.929 . S
C148 C145 1.399 . S
C148 C149 1.392 . S
C148 H165 0.929 . S
C149 C147 1.380 . S
C149 C148 1.392 . S
C149 H166 0.929 . S
C150 C145 1.383 . S
C150 C146 1.389 . S
C150 H167 0.931 1_655 S
C151 O136 1.266 . S
C151 O137 1.248 1_545 S
C152 Tb88 2.802 . S
C152 O132 1.264 . S
C152 O135 1.256 . S
C152 C145 1.496 . S
C153 C120 1.448 . S
C153 H130 0.930 . S
C153 C154 1.328 . S
C154 C125 1.427 . S
C154 H131 0.929 . S
C154 C153 1.328 . S
C155 O139 1.264 . S
C155 O140 1.243 . S
C156 C159 1.399 . S
C156 C160 1.383 . S
C156 C163 1.496 1_554 S
C157 C158 1.399 . S
C157 C160 1.389 . S
C158 C157 1.399 . S
C158 C161 1.380 . S
C158 H168 0.929 . S
C159 C156 1.399 . S
C159 C161 1.392 . S
C159 H169 0.929 1_554 S
C160 C156 1.383 . S
C160 C157 1.389 . S
C160 H170 0.931 . S
C161 C158 1.380 . S
C161 C159 1.392 . S
C161 H171 0.929 . S
C162 O142 1.266 . S
C162 O143 1.248 . S
C163 Tb99 2.802 . S
C163 O138 1.264 . S
C163 O141 1.256 . S
C163 C156 1.496 1_556 S
H164 C147 0.929 . S
H165 C148 0.929 . S
H166 C149 0.929 . S
H167 C150 0.931 1_455 S
H168 C158 0.929 . S
H169 C159 0.929 1_556 S
H170 C160 0.931 . S
H171 C161 0.929 . S
Tb172 N201 2.617 . S
Tb172 N207 2.572 . S
Tb172 O216 2.465 . S
Tb172 O217 2.387 . S
Tb172 O219 2.428 1_556 S
Tb172 O220 2.308 . S
Tb172 O224 2.349 1_545 S
Tb172 O227 2.393 . S
Tb172 C236 2.802 1_556 S
C173 N174 1.379 . S
C173 C176 1.416 . S
C173 C180 1.424 . S
N174 C173 1.379 . S
N174 C177 1.334 . S
N174 Tb183 2.617 . S
C175 C177 1.390 . S
C175 C178 1.339 . S
C175 H195 0.930 . S
C176 C173 1.416 . S
C176 C178 1.416 . S
C176 C182 1.448 . S
C177 N174 1.334 . S
C177 C175 1.390 . S
C177 H188 0.930 . S
C178 C175 1.339 . S
C178 C176 1.416 . S
C178 H199 0.930 . S
C179 C180 1.413 . S
C179 C181 1.427 . S
C179 C185 1.416 . S
C180 C173 1.424 . S
C180 C179 1.413 . S
C180 N184 1.361 . S
C181 C179 1.427 . S
C181 C182 1.328 . S
C181 H196 0.929 . S
C182 C176 1.448 . S
C182 C181 1.328 . S
C182 H197 0.930 . S
Tb183 N174 2.617 . S
Tb183 N184 2.572 . S
Tb183 O218 2.349 1_565 S
Tb183 O221 2.393 . S
Tb183 O222 2.465 . S
Tb183 O223 2.387 . S
Tb183 O225 2.428 . S
Tb183 O226 2.308 1_565 S
Tb183 C247 2.802 . S
N184 C180 1.361 . S
N184 Tb183 2.572 . S
N184 C186 1.340 . S
C185 C179 1.416 . S
C185 C187 1.332 . S
C185 H193 0.931 . S
C186 N184 1.340 . S
C186 C187 1.407 . S
C186 H192 0.930 . S
C187 C185 1.332 . S
C187 C186 1.407 . S
C187 H189 0.929 . S
H188 C177 0.930 . S
H189 C187 0.929 . S
H190 C205 0.930 1_554 S
H191 C212 0.929 . S
H192 C186 0.930 . S
H193 C185 0.931 . S
H194 C208 0.930 . S
H195 C175 0.930 . S
H196 C181 0.929 . S
H197 C182 0.930 . S
H198 C203 0.930 . S
H199 C178 0.930 . S
H200 C211 0.931 . S
N201 Tb172 2.617 . S
N201 C202 1.379 . S
N201 C205 1.334 . S
C202 N201 1.379 . S
C202 C204 1.416 . S
C202 C210 1.424 . S
C203 H198 0.930 . S
C203 C205 1.390 1_554 S
C203 C206 1.339 1_554 S
C204 C202 1.416 . S
C204 C206 1.416 . S
C204 C237 1.448 . S
C205 H190 0.930 1_556 S
C205 N201 1.334 . S
C205 C203 1.390 1_556 S
C206 C203 1.339 1_556 S
C206 C204 1.416 . S
C206 H213 0.930 1_556 S
N207 Tb172 2.572 . S
N207 C208 1.340 . S
N207 C210 1.361 . S
C208 H194 0.930 . S
C208 N207 1.340 . S
C208 C212 1.407 . S
C209 C210 1.413 . S
C209 C211 1.416 . S
C209 C238 1.427 . S
C210 C202 1.424 . S
C210 N207 1.361 . S
C210 C209 1.413 . S
C211 H200 0.931 . S
C211 C209 1.416 . S
C211 C212 1.332 . S
C212 H191 0.929 . S
C212 C208 1.407 . S
C212 C211 1.332 . S
H213 C206 0.930 1_554 S
H214 C237 0.930 . S
H215 C238 0.929 . S
O216 Tb172 2.465 . S
O216 C236 1.264 1_556 S
O217 Tb172 2.387 . S
O217 C228 1.264 . S
O218 Tb183 2.349 1_545 S
O218 C228 1.243 . S
O219 Tb172 2.428 1_554 S
O219 C236 1.256 . S
O220 Tb172 2.308 . S
O220 C235 1.265 . S
O221 Tb183 2.393 . S
O221 C235 1.249 1_565 S
O222 Tb183 2.465 . S
O222 C247 1.264 . S
O223 Tb183 2.387 . S
O223 C239 1.264 . S
O224 Tb172 2.349 1_565 S
O224 C239 1.243 . S
O225 Tb183 2.428 . S
O225 C247 1.256 . S
O226 Tb183 2.308 1_545 S
O226 C246 1.266 . S
O227 Tb172 2.393 . S
O227 C246 1.248 . S
C228 O217 1.264 . S
C228 O218 1.243 . S
C229 C232 1.399 . S
C229 C234 1.383 . S
C229 C236 1.496 . S
C230 C231 1.399 . S
C230 C234 1.389 . S
C231 C230 1.399 . S
C231 C233 1.380 . S
C231 H248 0.929 . S
C232 C229 1.399 . S
C232 C233 1.392 . S
C232 H249 0.929 . S
C233 C231 1.380 . S
C233 C232 1.392 . S
C233 H250 0.929 . S
C234 C229 1.383 . S
C234 C230 1.389 . S
C234 H251 0.931 . S
C235 O220 1.265 . S
C235 O221 1.249 1_545 S
C236 Tb172 2.802 1_554 S
C236 O216 1.264 1_554 S
C236 O219 1.256 . S
C236 C229 1.496 . S
C237 C204 1.448 . S
C237 H214 0.930 . S
C237 C238 1.328 . S
C238 C209 1.427 . S
C238 H215 0.929 . S
C238 C237 1.328 . S
C239 O223 1.264 . S
C239 O224 1.243 . S
C240 C243 1.399 . S
C240 C244 1.383 . S
C240 C247 1.496 . S
C241 C242 1.399 . S
C241 C244 1.389 . S
C242 C241 1.399 . S
C242 C245 1.380 . S
C242 H252 0.929 . S
C243 C240 1.399 . S
C243 C245 1.392 . S
C243 H253 0.929 . S
C244 C240 1.383 . S
C244 C241 1.389 . S
C244 H254 0.931 1_565 S
C245 C242 1.380 . S
C245 C243 1.392 . S
C245 H255 0.929 . S
C246 O226 1.266 . S
C246 O227 1.248 . S
C247 Tb183 2.802 . S
C247 O222 1.264 . S
C247 O225 1.256 . S
C247 C240 1.496 . S
H248 C231 0.929 . S
H249 C232 0.929 . S
H250 C233 0.929 . S
H251 C234 0.931 . S
H252 C242 0.929 . S
H253 C243 0.929 . S
H254 C244 0.931 1_545 S
H255 C245 0.929 . S
Tb256 N285 2.617 . S
Tb256 N291 2.572 . S
Tb256 O300 2.465 . S
Tb256 O301 2.387 . S
Tb256 O303 2.428 . S
Tb256 O304 2.308 . S
Tb256 O308 2.349 . S
Tb256 O311 2.393 . S
Tb256 C320 2.802 . S
C257 N258 1.379 1_554 S
C257 C260 1.416 . S
C257 C264 1.424 . S
N258 C257 1.379 1_556 S
N258 C261 1.334 . S
N258 Tb267 2.617 . S
C259 C261 1.390 . S
C259 C262 1.339 . S
C259 H279 0.930 . S
C260 C257 1.416 . S
C260 C262 1.416 1_554 S
C260 C266 1.448 . S
C261 N258 1.334 . S
C261 C259 1.390 . S
C261 H272 0.930 . S
C262 C259 1.339 . S
C262 C260 1.416 1_556 S
C262 H283 0.930 . S
C263 C264 1.413 . S
C263 C265 1.427 . S
C263 C269 1.416 . S
C264 C257 1.424 . S
C264 C263 1.413 . S
C264 N268 1.361 . S
C265 C263 1.427 . S
C265 C266 1.328 . S
C265 H280 0.929 . S
C266 C260 1.448 . S
C266 C265 1.328 . S
C266 H281 0.930 . S
Tb267 N258 2.617 . S
Tb267 N268 2.572 1_556 S
Tb267 O302 2.349 . S
Tb267 O305 2.393 . S
Tb267 O306 2.465 . S
Tb267 O307 2.387 . S
Tb267 O309 2.428 . S
Tb267 O310 2.308 . S
Tb267 C331 2.802 . S
N268 C264 1.361 . S
N268 Tb267 2.572 1_554 S
N268 C270 1.340 . S
C269 C263 1.416 . S
C269 C271 1.332 . S
C269 H277 0.931 . S
C270 N268 1.340 . S
C270 C271 1.407 . S
C270 H276 0.930 . S
C271 C269 1.332 . S
C271 C270 1.407 . S
C271 H273 0.929 . S
H272 C261 0.930 . S
H273 C271 0.929 . S
H274 C289 0.930 . S
H275 C296 0.929 . S
H276 C270 0.930 . S
H277 C269 0.931 . S
H278 C292 0.930 . S
H279 C259 0.930 . S
H280 C265 0.929 . S
H281 C266 0.930 . S
H282 C287 0.930 . S
H283 C262 0.930 . S
H284 C295 0.931 . S
N285 Tb256 2.617 . S
N285 C286 1.379 . S
N285 C289 1.334 . S
C286 N285 1.379 . S
C286 C288 1.416 . S
C286 C294 1.424 . S
C287 H282 0.930 . S
C287 C289 1.390 . S
C287 C290 1.339 . S
C288 C286 1.416 . S
C288 C290 1.416 . S
C288 C321 1.448 . S
C289 H274 0.930 . S
C289 N285 1.334 . S
C289 C287 1.390 . S
C290 C287 1.339 . S
C290 C288 1.416 . S
C290 H297 0.930 . S
N291 Tb256 2.572 . S
N291 C292 1.340 . S
N291 C294 1.361 . S
C292 H278 0.930 . S
C292 N291 1.340 . S
C292 C296 1.407 . S
C293 C294 1.413 . S
C293 C295 1.416 . S
C293 C322 1.427 . S
C294 C286 1.424 . S
C294 N291 1.361 . S
C294 C293 1.413 . S
C295 H284 0.931 . S
C295 C293 1.416 . S
C295 C296 1.332 . S
C296 H275 0.929 . S
C296 C292 1.407 . S
C296 C295 1.332 . S
H297 C290 0.930 . S
H298 C321 0.930 . S
H299 C322 0.929 . S
O300 Tb256 2.465 . S
O300 C320 1.264 . S
O301 Tb256 2.387 . S
O301 C312 1.264 . S
O302 Tb267 2.349 . S
O302 C312 1.243 . S
O303 Tb256 2.428 . S
O303 C320 1.256 . S
O304 Tb256 2.308 . S
O304 C319 1.266 . S
O305 Tb267 2.393 . S
O305 C319 1.248 . S
O306 Tb267 2.465 . S
O306 C331 1.264 . S
O307 Tb267 2.387 . S
O307 C323 1.264 . S
O308 Tb256 2.349 . S
O308 C323 1.243 . S
O309 Tb267 2.428 . S
O309 C331 1.256 . S
O310 Tb267 2.308 . S
O310 C330 1.266 . S
O311 Tb256 2.393 . S
O311 C330 1.248 . S
C312 O301 1.264 . S
C312 O302 1.243 . S
C313 C316 1.399 . S
C313 C318 1.383 . S
C313 C320 1.496 . S
C314 C315 1.399 . S
C314 C318 1.389 . S
C315 C314 1.399 . S
C315 C317 1.380 . S
C315 H332 0.929 . S
C316 C313 1.399 . S
C316 C317 1.392 . S
C316 H333 0.929 . S
C317 C315 1.380 . S
C317 C316 1.392 . S
C317 H334 0.929 . S
C318 C313 1.383 . S
C318 C314 1.389 . S
C318 H335 0.931 . S
C319 O304 1.266 . S
C319 O305 1.248 . S
C320 Tb256 2.802 . S
C320 O300 1.264 . S
C320 O303 1.256 . S
C320 C313 1.496 . S
C321 C288 1.448 . S
C321 H298 0.930 . S
C321 C322 1.328 . S
C322 C293 1.427 . S
C322 H299 0.929 . S
C322 C321 1.328 . S
C323 O307 1.264 . S
C323 O308 1.243 . S
C324 C327 1.399 . S
C324 C328 1.383 . S
C324 C331 1.496 1_554 S
C325 C326 1.399 . S
C325 C328 1.389 . S
C326 C325 1.399 . S
C326 C329 1.380 . S
C326 H336 0.929 . S
C327 C324 1.399 . S
C327 C329 1.392 . S
C327 H337 0.929 1_554 S
C328 C324 1.383 . S
C328 C325 1.389 . S
C328 H338 0.931 . S
C329 C326 1.380 . S
C329 C327 1.392 . S
C329 H339 0.929 . S
C330 O310 1.266 . S
C330 O311 1.248 . S
C331 Tb267 2.802 . S
C331 O306 1.264 . S
C331 O309 1.256 . S
C331 C324 1.496 1_556 S
H332 C315 0.929 . S
H333 C316 0.929 . S
H334 C317 0.929 . S
H335 C318 0.931 . S
H336 C326 0.929 . S
H337 C327 0.929 1_556 S
H338 C328 0.931 . S
H339 C329 0.929 . S
Tb340 N369 2.617 . S
Tb340 N375 2.572 . S
Tb340 O384 2.465 . S
Tb340 O385 2.387 1_455 S
Tb340 O387 2.428 . S
Tb340 O388 2.308 . S
Tb340 O392 2.349 . S
Tb340 O395 2.393 . S
Tb340 C404 2.802 . S
C341 N342 1.379 1_554 S
C341 C344 1.416 . S
C341 C348 1.424 . S
N342 C341 1.379 1_556 S
N342 C345 1.335 . S
N342 Tb351 2.617 1_455 S
C343 C345 1.393 . S
C343 C346 1.339 . S
C343 H363 0.930 . S
C344 C341 1.416 . S
C344 C346 1.416 1_554 S
C344 C350 1.448 . S
C345 N342 1.335 . S
C345 C343 1.393 . S
C345 H356 0.926 1_455 S
C346 C343 1.339 . S
C346 C344 1.416 1_556 S
C346 H367 0.930 . S
C347 C348 1.413 . S
C347 C349 1.427 . S
C347 C353 1.416 . S
C348 C341 1.424 . S
C348 C347 1.413 . S
C348 N352 1.361 . S
C349 C347 1.427 . S
C349 C350 1.328 . S
C349 H364 0.929 . S
C350 C344 1.448 . S
C350 C349 1.328 . S
C350 H365 0.930 . S
Tb351 N342 2.617 1_655 S
Tb351 N352 2.572 1_656 S
Tb351 O386 2.349 . S
Tb351 O389 2.393 . S
Tb351 O390 2.465 . S
Tb351 O391 2.387 1_655 S
Tb351 O393 2.428 . S
Tb351 O394 2.308 1_655 S
Tb351 C415 2.802 . S
N352 C348 1.361 . S
N352 Tb351 2.572 1_454 S
N352 C354 1.340 . S
C353 C347 1.416 . S
C353 C355 1.332 . S
C353 H361 0.931 . S
C354 N352 1.340 . S
C354 C355 1.407 . S
C354 H360 0.930 . S
C355 C353 1.332 . S
C355 C354 1.407 . S
C355 H357 0.929 . S
H356 C345 0.926 1_655 S
H357 C355 0.929 . S
H358 C373 0.930 . S
H359 C380 0.929 . S
H360 C354 0.930 . S
H361 C353 0.931 . S
H362 C376 0.930 . S
H363 C343 0.930 . S
H364 C349 0.929 . S
H365 C350 0.930 . S
H366 C371 0.930 . S
H367 C346 0.930 . S
H368 C379 0.931 . S
N369 Tb340 2.617 . S
N369 C370 1.379 1_455 S
N369 C373 1.334 . S
C370 N369 1.379 1_655 S
C370 C372 1.416 . S
C370 C378 1.424 . S
C371 H366 0.930 . S
C371 C373 1.390 . S
C371 C374 1.339 1_455 S
C372 C370 1.416 . S
C372 C374 1.416 . S
C372 C405 1.448 . S
C373 H358 0.930 . S
C373 N369 1.334 . S
C373 C371 1.390 . S
C374 C371 1.339 1_655 S
C374 C372 1.416 . S
C374 H381 0.930 . S
N375 Tb340 2.572 . S
N375 C376 1.340 . S
N375 C378 1.361 1_455 S
C376 H362 0.930 . S
C376 N375 1.340 . S
C376 C380 1.407 1_455 S
C377 C378 1.413 . S
C377 C379 1.416 . S
C377 C406 1.427 . S
C378 C370 1.424 . S
C378 N375 1.361 1_655 S
C378 C377 1.413 . S
C379 H368 0.931 . S
C379 C377 1.416 . S
C379 C380 1.332 . S
C380 H359 0.929 . S
C380 C376 1.407 1_655 S
C380 C379 1.332 . S
H381 C374 0.930 . S
H382 C405 0.930 . S
H383 C406 0.929 . S
O384 Tb340 2.465 . S
O384 C404 1.264 . S
O385 Tb340 2.387 1_655 S
O385 C396 1.264 . S
O386 Tb351 2.349 . S
O386 C396 1.243 . S
O387 Tb340 2.428 . S
O387 C404 1.256 . S
O388 Tb340 2.308 . S
O388 C403 1.266 . S
O389 Tb351 2.393 . S
O389 C403 1.248 1_655 S
O390 Tb351 2.465 . S
O390 C415 1.264 . S
O391 Tb351 2.387 1_455 S
O391 C407 1.264 . S
O392 Tb340 2.349 . S
O392 C407 1.243 . S
O393 Tb351 2.428 . S
O393 C415 1.256 . S
O394 Tb351 2.308 1_455 S
O394 C414 1.266 . S
O395 Tb340 2.393 . S
O395 C414 1.248 . S
C396 O385 1.264 . S
C396 O386 1.243 . S
C397 C400 1.399 . S
C397 C402 1.383 . S
C397 C404 1.496 . S
C398 C399 1.399 . S
C398 C402 1.389 . S
C399 C398 1.399 . S
C399 C401 1.380 . S
C399 H416 0.929 . S
C400 C397 1.399 . S
C400 C401 1.392 . S
C400 H417 0.929 . S
C401 C399 1.380 . S
C401 C400 1.392 . S
C401 H418 0.929 . S
C402 C397 1.383 . S
C402 C398 1.389 . S
C402 H419 0.931 . S
C403 O388 1.266 . S
C403 O389 1.248 1_455 S
C404 Tb340 2.802 . S
C404 O384 1.264 . S
C404 O387 1.256 . S
C404 C397 1.496 . S
C405 C372 1.448 . S
C405 H382 0.930 . S
C405 C406 1.328 . S
C406 C377 1.427 . S
C406 H383 0.929 . S
C406 C405 1.328 . S
C407 O391 1.264 . S
C407 O392 1.243 . S
C408 C411 1.399 . S
C408 C412 1.383 . S
C408 C415 1.496 1_554 S
C409 C410 1.399 . S
C409 C412 1.389 . S
C410 C409 1.399 . S
C410 C413 1.380 . S
C410 H420 0.929 . S
C411 C408 1.399 . S
C411 C413 1.392 . S
C411 H421 0.929 1_554 S
C412 C408 1.383 . S
C412 C409 1.389 . S
C412 H422 0.931 . S
C413 C410 1.380 . S
C413 C411 1.392 . S
C413 H423 0.929 . S
C414 O394 1.266 . S
C414 O395 1.248 . S
C415 Tb351 2.802 . S
C415 O390 1.264 . S
C415 O393 1.256 . S
C415 C408 1.496 1_556 S
H416 C399 0.929 . S
H417 C400 0.929 . S
H418 C401 0.929 . S
H419 C402 0.931 . S
H420 C410 0.929 . S
H421 C411 0.929 1_556 S
H422 C412 0.931 . S
H423 C413 0.929 . S
C424 C425 1.369 . S
C424 C426 1.419 . S
C424 H428 0.930 . S
C425 C424 1.369 . S
C425 C434 1.429 . S
C426 C424 1.419 . S
C426 C427 1.363 . S
C426 H429 0.929 . S
C427 C426 1.363 . S
C427 C433 1.428 . S
H428 C424 0.930 . S
H429 C426 0.929 . S
S430 N431 1.613 . S
S430 N432 1.610 . S
N431 S430 1.613 . S
N431 C434 1.350 . S
N432 S430 1.610 . S
N432 C433 1.351 . S
C433 C427 1.428 . S
C433 N432 1.351 . S
C433 C434 1.434 . S
C434 C425 1.429 . S
C434 N431 1.350 . S
C434 C433 1.434 . S
C435 C436 1.369 . S
C435 C437 1.419 . S
C435 H439 0.930 . S
C436 C435 1.369 . S
C436 C445 1.429 . S
C437 C435 1.419 . S
C437 C438 1.363 . S
C437 H440 0.929 . S
C438 C437 1.363 . S
C438 C444 1.428 . S
H439 C435 0.930 . S
H440 C437 0.929 . S
S441 N442 1.613 . S
S441 N443 1.610 . S
N442 S441 1.613 . S
N442 C445 1.350 . S
N443 S441 1.610 . S
N443 C444 1.351 . S
C444 C438 1.428 . S
C444 N443 1.351 . S
C444 C445 1.434 . S
C445 C436 1.429 . S
C445 N442 1.350 . S
C445 C444 1.434 . S
C446 C447 1.369 . S
C446 C448 1.419 . S
C446 H450 0.930 . S
C447 C446 1.369 . S
C447 C456 1.429 . S
C448 C446 1.419 . S
C448 C449 1.363 . S
C448 H451 0.929 . S
C449 C448 1.363 . S
C449 C455 1.428 . S
H450 C446 0.930 . S
H451 C448 0.929 . S
S452 N453 1.613 . S
S452 N454 1.610 . S
N453 S452 1.613 . S
N453 C456 1.350 . S
N454 S452 1.610 . S
N454 C455 1.351 . S
C455 C449 1.428 . S
C455 N454 1.351 . S
C455 C456 1.434 . S
C456 C447 1.429 . S
C456 N453 1.350 . S
C456 C455 1.434 . S
C457 C458 1.369 . S
C457 C459 1.419 . S
C457 H461 0.930 . S
C458 C457 1.369 . S
C458 C467 1.429 . S
C459 C457 1.419 . S
C459 C460 1.363 . S
C459 H462 0.929 . S
C460 C459 1.363 . S
C460 C466 1.428 . S
H461 C457 0.930 . S
H462 C459 0.929 . S
S463 N464 1.613 . S
S463 N465 1.610 . S
N464 S463 1.613 . S
N464 C467 1.350 . S
N465 S463 1.610 . S
N465 C466 1.351 . S
C466 C460 1.428 . S
C466 N465 1.351 . S
C466 C467 1.434 . S
C467 C458 1.429 . S
C467 N464 1.350 . S
C467 C466 1.434 . S
C468 C469 1.369 . S
C468 C470 1.419 . S
C468 H472 0.930 . S
C469 C468 1.369 . S
C469 C478 1.429 1_565 S
C470 C468 1.419 . S
C470 C471 1.372 . S
C470 H473 0.929 1_554 S
C471 C470 1.372 . S
C471 C477 1.421 1_565 S
H472 C468 0.930 . S
H473 C470 0.929 1_556 S
S474 N475 1.613 . S
S474 N476 1.610 . S
N475 S474 1.613 . S
N475 C478 1.350 . S
N476 S474 1.610 . S
N476 C477 1.351 . S
C477 C471 1.421 1_545 S
C477 N476 1.351 . S
C477 C478 1.434 . S
C478 C469 1.429 1_545 S
C478 N475 1.350 . S
C478 C477 1.434 . S
C479 C480 1.369 . S
C479 C481 1.419 . S
C479 H483 0.930 . S
C480 C479 1.369 . S
C480 C489 1.429 . S
C481 C479 1.419 . S
C481 C482 1.363 . S
C481 H484 0.924 1_554 S
C482 C481 1.363 . S
C482 C488 1.428 . S
H483 C479 0.930 . S
H484 C481 0.924 1_556 S
S485 N486 1.613 . S
S485 N487 1.610 . S
N486 S485 1.613 . S
N486 C489 1.350 . S
N487 S485 1.610 . S
N487 C488 1.351 . S
C488 C482 1.428 . S
C488 N487 1.351 . S
C488 C489 1.434 . S
C489 C480 1.429 . S
C489 N486 1.350 . S
C489 C488 1.434 . S
C490 C491 1.369 . S
C490 C492 1.419 . S
C490 H494 0.930 . S
C491 C490 1.369 . S
C491 C500 1.429 . S
C492 C490 1.419 . S
C492 C493 1.363 . S
C492 H495 0.929 . S
C493 C492 1.363 . S
C493 C499 1.428 . S
H494 C490 0.930 . S
H495 C492 0.929 . S
S496 N497 1.613 . S
S496 N498 1.610 1_554 S
N497 S496 1.613 . S
N497 C500 1.350 . S
N498 S496 1.610 1_556 S
N498 C499 1.351 1_556 S
C499 C493 1.428 . S
C499 N498 1.351 1_554 S
C499 C500 1.434 . S
C500 C491 1.429 . S
C500 N497 1.350 . S
C500 C499 1.434 . S
C501 C502 1.369 . S
C501 C503 1.419 . S
C501 H505 0.930 . S
C502 C501 1.369 . S
C502 C511 1.429 . S
C503 C501 1.419 . S
C503 C504 1.363 . S
C503 H506 0.929 1_554 S
C504 C503 1.363 . S
C504 C510 1.428 . S
H505 C501 0.930 . S
H506 C503 0.929 1_556 S
S507 N508 1.613 1_455 S
S507 N509 1.610 . S
N508 S507 1.613 1_655 S
N508 C511 1.350 . S
N509 S507 1.610 . S
N509 C510 1.351 1_455 S
C510 C504 1.428 . S
C510 N509 1.351 1_655 S
C510 C511 1.434 . S
C511 C502 1.429 . S
C511 N508 1.350 . S
C511 C510 1.434 . S
C512 C513 1.369 . S
C512 C514 1.419 . S
C512 H516 0.930 . S
C513 C512 1.369 . S
C513 C522 1.429 . S
C514 C512 1.419 . S
C514 C515 1.363 1_455 S
C514 H517 0.929 . S
C515 C514 1.363 1_655 S
C515 C521 1.428 . S
H516 C512 0.930 . S
H517 C514 0.929 . S
S518 N519 1.613 1_656 S
S518 N520 1.610 1_556 S
N519 S518 1.613 1_454 S
N519 C522 1.350 . S
N520 S518 1.610 1_554 S
N520 C521 1.351 . S
C521 C515 1.428 . S
C521 N520 1.351 . S
C521 C522 1.434 1_655 S
C522 C513 1.429 . S
C522 N519 1.350 . S
C522 C521 1.434 1_455 S
C523 C524 1.369 . S
C523 C525 1.419 . S
C523 H527 0.930 . S
C524 C523 1.369 . S
C524 C533 1.429 . S
C525 C523 1.419 . S
C525 C526 1.370 . S
C525 H528 0.929 . S
C526 C525 1.370 . S
C526 C532 1.437 . S
H527 C523 0.930 . S
H528 C525 0.929 . S
S529 N530 1.615 . S
S529 N531 1.610 1_556 S
N530 S529 1.615 . S
N530 C533 1.342 1_556 S
N531 S529 1.610 1_554 S
N531 C532 1.351 . S
C532 C526 1.437 . S
C532 N531 1.351 . S
C532 C533 1.434 . S
C533 C524 1.429 . S
C533 N530 1.342 1_554 S
C533 C532 1.434 . S
C534 C535 1.369 . S
C534 C536 1.419 . S
C534 H538 0.930 . S
C535 C534 1.369 . S
C535 C544 1.429 . S
C536 C534 1.419 . S
C536 C537 1.363 . S
C536 H539 0.929 . S
C537 C536 1.363 . S
C537 C543 1.428 . S
H538 C534 0.930 . S
H539 C536 0.929 . S
S540 N541 1.613 . S
S540 N542 1.610 . S
N541 S540 1.613 . S
N541 C544 1.350 . S
N542 S540 1.610 . S
N542 C543 1.351 . S
C543 C537 1.428 . S
C543 N542 1.351 . S
C543 C544 1.434 . S
C544 C535 1.429 . S
C544 N541 1.350 . S
C544 C543 1.434 . S
C545 C546 1.369 . S
C545 C547 1.419 . S
C545 H549 0.930 . S
C546 C545 1.369 . S
C546 C555 1.429 . S
C547 C545 1.419 . S
C547 C548 1.363 . S
C547 H550 0.929 . S
C548 C547 1.363 . S
C548 C554 1.428 . S
H549 C545 0.930 . S
H550 C547 0.929 . S
S551 N552 1.613 . S
S551 N553 1.610 . S
N552 S551 1.613 . S
N552 C555 1.350 . S
N553 S551 1.610 . S
N553 C554 1.351 . S
C554 C548 1.428 . S
C554 N553 1.351 . S
C554 C555 1.434 . S
C555 C546 1.429 . S
C555 N552 1.350 . S
C555 C554 1.434 . S
C556 C557 1.369 . S
C556 C558 1.419 . S
C556 H560 0.930 . S
C557 C556 1.369 . S
C557 C566 1.429 1_655 S
C558 C556 1.419 . S
C558 C559 1.363 1_655 S
C558 H561 0.929 . S
C559 C558 1.363 1_455 S
C559 C565 1.428 . S
H560 C556 0.930 . S
H561 C558 0.929 . S
S562 N563 1.613 . S
S562 N564 1.610 . S
N563 S562 1.613 . S
N563 C566 1.350 . S
N564 S562 1.610 . S
N564 C565 1.351 . S
C565 C559 1.428 . S
C565 N564 1.351 . S
C565 C566 1.434 . S
C566 C557 1.429 1_455 S
C566 N563 1.350 . S
C566 C565 1.434 . S
C567 C568 1.369 . S
C567 C569 1.419 1_565 S
C567 H571 0.930 . S
C568 C567 1.369 . S
C568 C577 1.429 1_565 S
C569 C567 1.419 1_545 S
C569 C570 1.363 . S
C569 H572 0.929 . S
C570 C569 1.363 . S
C570 C576 1.428 . S
H571 C567 0.930 . S
H572 C569 0.929 . S
S573 N574 1.613 . S
S573 N575 1.610 . S
N574 S573 1.613 . S
N574 C577 1.350 . S
N575 S573 1.610 . S
N575 C576 1.351 . S
C576 C570 1.428 . S
C576 N575 1.351 . S
C576 C577 1.434 . S
C577 C568 1.429 1_545 S
C577 N574 1.350 . S
C577 C576 1.434 . S
C578 C579 1.369 . S
C578 C580 1.419 . S
C578 H582 0.930 . S
C579 C578 1.369 . S
C579 C588 1.429 . S
C580 C578 1.419 . S
C580 C581 1.363 . S
C580 H583 0.929 . S
C581 C580 1.363 . S
C581 C587 1.428 . S
H582 C578 0.930 . S
H583 C580 0.929 . S
S584 N585 1.613 . S
S584 N586 1.610 . S
N585 S584 1.613 . S
N585 C588 1.350 . S
N586 S584 1.610 . S
N586 C587 1.351 . S
C587 C581 1.428 . S
C587 N586 1.351 . S
C587 C588 1.434 . S
C588 C579 1.429 . S
C588 N585 1.350 . S
C588 C587 1.434 . S
C589 C590 1.369 . S
C589 C591 1.419 . S
C589 H593 0.930 . S
C590 C589 1.369 . S
C590 C599 1.429 . S
C591 C589 1.419 . S
C591 C592 1.363 . S
C591 H594 0.929 . S
C592 C591 1.363 . S
C592 C598 1.428 . S
H593 C589 0.930 . S
H594 C591 0.929 . S
S595 N596 1.613 . S
S595 N597 1.610 . S
N596 S595 1.613 . S
N596 C599 1.350 . S
N597 S595 1.610 . S
N597 C598 1.351 . S
C598 C592 1.428 . S
C598 N597 1.351 . S
C598 C599 1.434 . S
C599 C590 1.429 . S
C599 N596 1.350 . S
C599 C598 1.434 . S
C600 C601 1.369 . S
C600 C602 1.419 . S
C600 H604 0.930 1_455 S
C601 C600 1.369 . S
C601 C610 1.429 . S
C602 C600 1.419 . S
C602 C603 1.363 . S
C602 H605 0.929 1_455 S
C603 C602 1.363 . S
C603 C609 1.428 . S
H604 C600 0.930 1_655 S
H605 C602 0.929 1_655 S
S606 N607 1.613 . S
S606 N608 1.610 . S
N607 S606 1.613 . S
N607 C610 1.350 . S
N608 S606 1.610 . S
N608 C609 1.351 . S
C609 C603 1.428 . S
C609 N608 1.351 . S
C609 C610 1.434 . S
C610 C601 1.429 . S
C610 N607 1.350 . S
C610 C609 1.434 . S
C611 C612 1.369 . S
C611 C613 1.419 . S
C611 H615 0.930 1_545 S
C612 C611 1.369 . S
C612 C621 1.429 . S
C613 C611 1.419 . S
C613 C614 1.363 . S
C613 H616 0.929 1_545 S
C614 C613 1.363 . S
C614 C620 1.428 . S
H615 C611 0.930 1_565 S
H616 C613 0.929 1_565 S
S617 N618 1.613 . S
S617 N619 1.610 . S
N618 S617 1.613 . S
N618 C621 1.350 . S
N619 S617 1.610 . S
N619 C620 1.351 . S
C620 C614 1.428 . S
C620 N619 1.351 . S
C620 C621 1.434 . S
C621 C612 1.429 . S
C621 N618 1.350 . S
C621 C620 1.434 . S
C622 C623 1.369 . S
C622 C624 1.419 . S
C622 H626 0.930 . S
C623 C622 1.369 . S
C623 C632 1.429 . S
C624 C622 1.419 . S
C624 C625 1.363 . S
C624 H627 0.929 . S
C625 C624 1.363 . S
C625 C631 1.428 . S
H626 C622 0.930 . S
H627 C624 0.929 . S
S628 N629 1.613 . S
S628 N630 1.610 . S
N629 S628 1.613 . S
N629 C632 1.350 . S
N630 S628 1.610 . S
N630 C631 1.351 . S
C631 C625 1.428 . S
C631 N630 1.351 . S
C631 C632 1.434 . S
C632 C623 1.429 . S
C632 N629 1.350 . S
C632 C631 1.434 . S
C633 C634 1.369 . S
C633 C635 1.419 . S
C633 H637 0.930 . S
C634 C633 1.369 . S
C634 C643 1.429 . S
C635 C633 1.419 . S
C635 C636 1.363 . S
C635 H638 0.929 . S
C636 C635 1.363 . S
C636 C642 1.428 . S
H637 C633 0.930 . S
H638 C635 0.929 . S
S639 N640 1.613 . S
S639 N641 1.610 . S
N640 S639 1.613 . S
N640 C643 1.350 1_554 S
N641 S639 1.610 . S
N641 C642 1.351 1_554 S
C642 C636 1.428 . S
C642 N641 1.351 1_556 S
C642 C643 1.434 . S
C643 C634 1.429 . S
C643 N640 1.350 1_556 S
C643 C642 1.434 . S
C644 C645 1.369 . S
C644 C646 1.419 . S
C644 H648 0.930 . S
C645 C644 1.369 . S
C645 C654 1.429 1_655 S
C646 C644 1.419 . S
C646 C647 1.363 . S
C646 H649 0.929 . S
C647 C646 1.363 . S
C647 C653 1.428 1_655 S
H648 C644 0.930 . S
H649 C646 0.929 . S
S650 N651 1.613 . S
S650 N652 1.610 . S
N651 S650 1.613 . S
N651 C654 1.350 . S
N652 S650 1.610 . S
N652 C653 1.351 . S
C653 C647 1.428 1_455 S
C653 N652 1.351 . S
C653 C654 1.434 . S
C654 C645 1.429 1_455 S
C654 N651 1.350 . S
C654 C653 1.434 . S
C655 C656 1.369 1_545 S
C655 C657 1.419 . S
C655 H659 0.930 . S
C656 C655 1.369 1_565 S
C656 C665 1.429 . S
C657 C655 1.419 . S
C657 C658 1.363 1_545 S
C657 H660 0.929 . S
C658 C657 1.363 1_565 S
C658 C664 1.428 . S
H659 C655 0.930 . S
H660 C657 0.929 . S
S661 N662 1.613 . S
S661 N663 1.610 . S
N662 S661 1.613 . S
N662 C665 1.350 . S
N663 S661 1.610 . S
N663 C664 1.351 . S
C664 C658 1.428 . S
C664 N663 1.351 . S
C664 C665 1.434 . S
C665 C656 1.429 . S
C665 N662 1.350 . S
C665 C664 1.434 . S
C666 C667 1.369 . S
C666 C668 1.419 . S
C666 H670 0.930 . S
C667 C666 1.369 . S
C667 C676 1.429 . S
C668 C666 1.419 . S
C668 C669 1.363 . S
C668 H671 0.929 . S
C669 C668 1.363 . S
C669 C675 1.428 . S
H670 C666 0.930 . S
H671 C668 0.929 . S
S672 N673 1.613 . S
S672 N674 1.610 . S
N673 S672 1.613 . S
N673 C676 1.350 . S
N674 S672 1.610 . S
N674 C675 1.351 . S
C675 C669 1.428 . S
C675 N674 1.351 . S
C675 C676 1.434 . S
C676 C667 1.429 . S
C676 N673 1.350 . S
C676 C675 1.434 . S
C677 C678 1.369 . S
C677 C679 1.419 . S
C677 H681 0.930 . S
C678 C677 1.369 . S
C678 C687 1.429 . S
C679 C677 1.419 . S
C679 C680 1.363 . S
C679 H682 0.929 . S
C680 C679 1.363 . S
C680 C686 1.428 . S
H681 C677 0.930 . S
H682 C679 0.929 . S
S683 N684 1.613 . S
S683 N685 1.610 . S
N684 S683 1.613 . S
N684 C687 1.350 . S
N685 S683 1.610 . S
N685 C686 1.351 . S
C686 C680 1.428 . S
C686 N685 1.351 . S
C686 C687 1.434 . S
C687 C678 1.429 . S
C687 N684 1.350 . S
C687 C686 1.434 . S
C425 C76 1.965 . S
C427 C151 2.178 . S
C438 C228 2.180 . S
C436 C87 1.969 . S
C449 C319 2.176 . S
C447 C54 1.973 . S
C460 C403 2.166 . S
C458 C65 1.953 . S
C471 C162 2.173 1_564 S
C469 C32 1.974 . S
C480 C43 1.979 . S
C482 C239 2.178 1_554 S
C491 C10 1.973 . S
C493 C330 2.178 1_554 S
C502 C21 1.968 . S
C504 C414 2.163 1_654 S
C515 C146 0.758 . S
C513 C60 0.748 . S
C526 C241 0.731 1_545 S
C524 C71 0.735 . S
C537 C314 0.769 . S
C535 C82 0.756 . S
C546 C49 0.737 . S
C548 C398 0.743 . S
C557 C16 0.750 . S
C559 C157 0.753 . S
C570 C230 0.738 . S
C568 C27 0.739 . S
C581 C325 0.769 . S
C579 C38 0.771 . S
C590 C5 0.740 . S
C592 C409 0.740 . S
C601 C59 2.029 . S
C603 C155 2.286 . S
C612 C70 2.031 . S
C614 C246 2.334 . S
C625 C323 2.301 . S
C623 C81 2.041 . S
C636 C407 2.308 . S
C634 C48 2.035 . S
C645 C15 2.023 . S
C647 C144 2.286 . S
C658 C235 2.334 1_565 S
C656 C26 2.023 . S
C669 C312 2.304 . S
C667 C37 2.027 . S
C678 C4 2.043 . S
C680 C396 2.304 . S
