# Generated by pormake.
# Topology nom, (4,4)-cn, num edge types: 1
# Building blocks:
#     Node 0, Type 0, BuildingBlock: AZAVOO_clean_linker_0, # of connection points: 4
#     Node 1, Type 0, BuildingBlock: AZAVOO_clean_linker_0, # of connection points: 4
#     Node 2, Type 0, BuildingBlock: AZAVOO_clean_linker_0, # of connection points: 4
#     Node 3, Type 0, BuildingBlock: AZAVOO_clean_linker_0, # of connection points: 4
#     Node 4, Type 0, BuildingBlock: AZAVOO_clean_linker_0, # of connection points: 4
#     Node 5, Type 0, BuildingBlock: AZAVOO_clean_linker_0, # of connection points: 4
#     Node 6, Type 1, BuildingBlock: QUQFOY_clean_sbu_3, # of connection points: 4
#     Node 7, Type 1, BuildingBlock: QUQFOY_clean_sbu_3, # of connection points: 4
#     Node 8, Type 1, BuildingBlock: QUQFOY_clean_sbu_3, # of connection points: 4
#     Node 9, Type 1, BuildingBlock: QUQFOY_clean_sbu_3, # of connection points: 4
#     Node 10, Type 1, BuildingBlock: QUQFOY_clean_sbu_3, # of connection points: 4
#     Node 11, Type 1, BuildingBlock: QUQFOY_clean_sbu_3, # of connection points: 4
#     Edge 12, Type (0, 1), None
#     Edge 13, Type (0, 1), None
#     Edge 14, Type (0, 1), None
#     Edge 15, Type (0, 1), None
#     Edge 16, Type (0, 1), None
#     Edge 17, Type (0, 1), None
#     Edge 18, Type (0, 1), None
#     Edge 19, Type (0, 1), None
#     Edge 20, Type (0, 1), None
#     Edge 21, Type (0, 1), None
#     Edge 22, Type (0, 1), None
#     Edge 23, Type (0, 1), None
#     Edge 24, Type (0, 1), None
#     Edge 25, Type (0, 1), None
#     Edge 26, Type (0, 1), None
#     Edge 27, Type (0, 1), None
#     Edge 28, Type (0, 1), None
#     Edge 29, Type (0, 1), None
#     Edge 30, Type (0, 1), None
#     Edge 31, Type (0, 1), None
#     Edge 32, Type (0, 1), None
#     Edge 33, Type (0, 1), None
#     Edge 34, Type (0, 1), None
#     Edge 35, Type (0, 1), None
# Relax obj value: 0.183
# Max RMSD: 0.235
# Mean RMSD: 0.149
data_MOF--net-nom--node1-QUQFOY_clean_sbu_3--node2-AZAVOO_clean_linker_0--edge1-none
_symmetry_space_group_name_H-M    P1
_symmetry_Int_Tables_number       1
_symmetry_cell_setting            triclinic
loop_
_symmetry_equiv_pos_as_xyz
'x, y, z'
_cell_length_a     25.663773
_cell_length_b     27.817028
_cell_length_c     31.491068
_cell_angle_alpha  90.296256
_cell_angle_beta   89.613933
_cell_angle_gamma 121.79852
loop_
_atom_site_label
_atom_site_type_symbol
_atom_site_fract_x
_atom_site_fract_y
_atom_site_fract_z
_atom_type_partial_charge
H0 H 0.19701 0.49567 -0.00163 0.0
H1 H 0.43414 0.79221 0.41812 0.0
H2 H 0.00606 0.39665 0.21797 0.0
H3 H 0.94164 0.35654 0.15458 0.0
H4 H 0.93009 0.50522 0.1448 0.0
H5 H 0.99251 0.54426 0.20889 0.0
H6 H 0.15879 0.47121 0.18216 0.0
H7 H 0.17774 0.46798 0.10623 0.0
H8 H 0.10505 0.57411 0.08072 0.0
H9 H 0.08818 0.57845 0.1567 0.0
H10 H 0.28444 0.58121 0.23188 0.0
H11 H 0.37782 0.66886 0.21003 0.0
H12 H 0.26946 0.74189 0.1804 0.0
H13 H 0.17759 0.65518 0.20289 0.0
H14 H 0.2508 0.54562 0.32074 0.0
H15 H 0.34153 0.60608 0.36404 0.0
H16 H 0.31075 0.74382 0.35007 0.0
H17 H 0.22009 0.68277 0.3069 0.0
H18 H 0.13031 0.47615 0.36158 0.0
H19 H 0.17749 0.50198 0.43185 0.0
H20 H 0.15714 0.64634 0.43424 0.0
H21 H 0.11357 0.62243 0.36284 0.0
H22 H 0.94996 0.42117 0.3139 0.0
H23 H 0.86222 0.41995 0.34808 0.0
H24 H 0.95941 0.60208 0.33867 0.0
H25 H 0.04437 0.60262 0.30352 0.0
O26 O 0.18714 0.49589 0.02806 0.0
O27 O 0.1437 0.5457 0.01601 0.0
O28 O 0.4183 0.69846 0.40162 0.0
O29 O 0.39989 0.76809 0.3998 0.0
C30 C 0.06009 0.50584 0.2434 0.0
C31 C 0.11692 0.53129 0.22147 0.0
C32 C 0.17142 0.568 0.24322 0.0
C33 C 0.17108 0.57176 0.28771 0.0
C34 C 0.11486 0.54427 0.31007 0.0
C35 C 0.05891 0.5161 0.28746 0.0
C36 C 0.00351 0.47317 0.21818 0.0
C37 C 0.98668 0.41905 0.20357 0.0
C38 C 0.95077 0.39658 0.16714 0.0
C39 C 0.93232 0.42852 0.14483 0.0
C40 C 0.94442 0.48022 0.1616 0.0
C41 C 0.97917 0.50211 0.19847 0.0
C42 C 0.12065 0.52383 0.17493 0.0
C43 C 0.14612 0.493 0.16004 0.0
C44 C 0.15725 0.49154 0.11669 0.0
C45 C 0.1431 0.52095 0.08741 0.0
C46 C 0.1163 0.55082 0.10238 0.0
C47 C 0.10584 0.55275 0.14578 0.0
C48 C 0.22473 0.6124 0.21939 0.0
C49 C 0.28101 0.61562 0.21933 0.0
C50 C 0.3341 0.66566 0.20681 0.0
C51 C 0.33105 0.7127 0.19437 0.0
C52 C 0.27354 0.70672 0.19015 0.0
C53 C 0.22085 0.65703 0.20281 0.0
C54 C 0.22899 0.60986 0.31087 0.0
C55 C 0.26415 0.58902 0.32677 0.0
C56 C 0.3158 0.6236 0.35155 0.0
C57 C 0.33314 0.6797 0.36077 0.0
C58 C 0.29849 0.70077 0.34381 0.0
C59 C 0.24689 0.66613 0.31901 0.0
C60 C 0.11719 0.54662 0.35717 0.0
C61 C 0.13333 0.51186 0.37801 0.0
C62 C 0.16129 0.5272 0.41779 0.0
C63 C 0.17156 0.57651 0.43799 0.0
C64 C 0.14947 0.60801 0.41925 0.0
C65 C 0.12332 0.59368 0.37875 0.0
C66 C 0.00408 0.51213 0.30709 0.0
C67 C 0.95194 0.46058 0.31926 0.0
C68 C 0.90213 0.46002 0.33881 0.0
C69 C 0.90452 0.51107 0.34679 0.0
C70 C 0.95659 0.56217 0.33387 0.0
C71 C 0.00523 0.56255 0.31375 0.0
C72 C 0.15776 0.52162 0.04166 0.0
C73 C 0.38648 0.71585 0.38851 0.0
H74 H 0.59314 0.07207 0.2028 0.0
H75 H 0.5192 0.31926 0.64131 0.0
H76 H 0.57037 0.9809 0.43111 0.0
H77 H 0.57146 0.93083 0.36742 0.0
H78 H 0.37847 0.8652 0.35 0.0
H79 H 0.3777 0.91497 0.41394 0.0
H80 H 0.60552 0.08733 0.38829 0.0
H81 H 0.61929 0.08911 0.31114 0.0
H82 H 0.42641 0.02555 0.29439 0.0
H83 H 0.41343 0.024 0.37158 0.0
H84 H 0.63272 0.17529 0.45256 0.0
H85 H 0.68446 0.27209 0.42579 0.0
H86 H 0.51004 0.24584 0.38722 0.0
H87 H 0.45831 0.14822 0.41435 0.0
H88 H 0.61013 0.16403 0.54086 0.0
H89 H 0.63283 0.24219 0.58885 0.0
H90 H 0.45328 0.21444 0.56457 0.0
H91 H 0.43124 0.13632 0.51666 0.0
H92 H 0.56895 0.03309 0.56149 0.0
H93 H 0.61381 0.0797 0.6286 0.0
H94 H 0.46094 0.10127 0.65093 0.0
H95 H 0.41556 0.05329 0.58359 0.0
H96 H 0.52356 0.93052 0.50383 0.0
H97 H 0.47417 0.83118 0.52449 0.0
H98 H 0.30997 0.82948 0.55869 0.0
H99 H 0.35893 0.92843 0.5361 0.0
O100 O 0.58693 0.07187 0.23315 0.0
O101 O 0.48868 0.04388 0.22623 0.0
O102 O 0.60699 0.30761 0.62817 0.0
O103 O 0.51217 0.28977 0.62146 0.0
C104 C 0.47968 0.99863 0.45243 0.0
C105 C 0.49935 0.0508 0.43201 0.0
C106 C 0.51143 0.09829 0.45594 0.0
C107 C 0.50276 0.09332 0.50026 0.0
C108 C 0.48235 0.04079 0.52078 0.0
C109 C 0.46954 0.99285 0.49671 0.0
C110 C 0.47407 0.95186 0.42655 0.0
C111 C 0.52761 0.95301 0.41487 0.0
C112 C 0.52821 0.92447 0.37853 0.0
C113 C 0.47543 0.89548 0.35353 0.0
C114 C 0.41994 0.88806 0.36867 0.0
C115 C 0.41924 0.91608 0.40522 0.0
C116 C 0.50857 0.05573 0.38532 0.0
C117 C 0.56652 0.07437 0.36782 0.0
C118 C 0.57413 0.07507 0.32379 0.0
C119 C 0.52391 0.05735 0.29659 0.0
C120 C 0.46605 0.0395 0.31441 0.0
C121 C 0.45851 0.03873 0.35843 0.0
C122 C 0.54182 0.15503 0.43575 0.0
C123 C 0.60572 0.19022 0.43792 0.0
C124 C 0.63514 0.24547 0.42261 0.0
C125 C 0.60125 0.26674 0.40471 0.0
C126 C 0.53734 0.23055 0.40073 0.0
C127 C 0.50775 0.17501 0.41634 0.0
C128 C 0.51891 0.1444 0.52567 0.0
C129 C 0.57608 0.17535 0.54564 0.0
C130 C 0.5888 0.2198 0.5731 0.0
C131 C 0.54451 0.23406 0.58092 0.0
C132 C 0.48811 0.20418 0.55956 0.0
C133 C 0.47552 0.1598 0.53202 0.0
C134 C 0.48983 0.04111 0.56728 0.0
C135 C 0.54328 0.04487 0.58193 0.0
C136 C 0.56947 0.07256 0.61996 0.0
C137 C 0.54214 0.09631 0.64386 0.0
C138 C 0.48357 0.08437 0.63257 0.0
C139 C 0.4572 0.05635 0.5944 0.0
C140 C 0.4444 0.93652 0.51729 0.0
C141 C 0.47703 0.90888 0.51591 0.0
C142 C 0.44881 0.85213 0.52797 0.0
C143 C 0.38787 0.82222 0.54278 0.0
C144 C 0.35693 0.8513 0.54739 0.0
C145 C 0.38488 0.90788 0.53453 0.0
C146 C 0.53187 0.05724 0.24988 0.0
C147 C 0.55662 0.2793 0.61167 0.0
H148 H 0.7193 0.55424 0.88421 0.0
H149 H 0.68081 0.31701 0.4967 0.0
H150 H 0.66273 0.67791 0.70958 0.0
H151 H 0.64381 0.71124 0.77686 0.0
H152 H 0.45747 0.56896 0.77716 0.0
H153 H 0.47588 0.53654 0.70936 0.0
H154 H 0.7174 0.59902 0.74514 0.0
H155 H 0.72461 0.59443 0.82208 0.0
H156 H 0.52786 0.48041 0.82958 0.0
H157 H 0.52163 0.48495 0.75248 0.0
H158 H 0.73998 0.51398 0.67714 0.0
H159 H 0.7478 0.43261 0.6966 0.0
H160 H 0.55539 0.33851 0.72995 0.0
H161 H 0.54704 0.41798 0.70776 0.0
H162 H 0.74878 0.55319 0.59941 0.0
H163 H 0.78137 0.50127 0.55464 0.0
H164 H 0.59344 0.36148 0.54741 0.0
H165 H 0.56196 0.41257 0.59394 0.0
H166 H 0.70272 0.61976 0.5588 0.0
H167 H 0.72796 0.59229 0.4916 0.0
H168 H 0.54243 0.44928 0.48302 0.0
H169 H 0.5185 0.47471 0.55142 0.0
H170 H 0.57838 0.66563 0.61069 0.0
H171 H 0.49088 0.66766 0.58032 0.0
H172 H 0.38197 0.48504 0.58448 0.0
H173 H 0.46759 0.48364 0.61541 0.0
O174 O 0.68223 0.54513 0.89905 0.0
O175 O 0.58399 0.51709 0.90074 0.0
O176 O 0.76194 0.41698 0.50852 0.0
O177 O 0.66879 0.33945 0.51266 0.0
C178 C 0.58916 0.57347 0.67688 0.0
C179 C 0.61513 0.54504 0.6963 0.0
C180 C 0.63379 0.51483 0.67119 0.0
C181 C 0.63316 0.51816 0.62672 0.0
C182 C 0.60712 0.54638 0.60727 0.0
C183 C 0.58015 0.56987 0.63244 0.0
C184 C 0.57056 0.60492 0.70457 0.0
C185 C 0.61683 0.65578 0.72289 0.0
C186 C 0.60641 0.67425 0.76154 0.0
C187 C 0.54973 0.64183 0.78205 0.0
C188 C 0.50161 0.59433 0.76161 0.0
C189 C 0.51177 0.57627 0.72269 0.0
C190 C 0.61895 0.54312 0.74332 0.0
C191 C 0.67597 0.57307 0.76352 0.0
C192 C 0.67993 0.56984 0.80757 0.0
C193 C 0.62678 0.53645 0.83221 0.0
C194 C 0.56968 0.50667 0.81168 0.0
C195 C 0.56593 0.50949 0.76765 0.0
C196 C 0.64288 0.47161 0.69081 0.0
C197 C 0.69977 0.47588 0.68892 0.0
C198 C 0.70413 0.42958 0.70001 0.0
C199 C 0.65205 0.37942 0.71443 0.0
C200 C 0.59625 0.37682 0.71907 0.0
C201 C 0.59151 0.42227 0.70671 0.0
C202 C 0.65318 0.48631 0.6002 0.0
C203 C 0.71493 0.511 0.58858 0.0
C204 C 0.7333 0.48143 0.56283 0.0
C205 C 0.69002 0.42681 0.54805 0.0
C206 C 0.62804 0.40281 0.55915 0.0
C207 C 0.60991 0.43196 0.58553 0.0
C208 C 0.60881 0.54925 0.5603 0.0
C209 C 0.66646 0.58438 0.5413 0.0
C210 C 0.68128 0.56795 0.50342 0.0
C211 C 0.63759 0.51773 0.48319 0.0
C212 C 0.57704 0.48788 0.49847 0.0
C213 C 0.56279 0.50324 0.53715 0.0
C214 C 0.52966 0.57438 0.6144 0.0
C215 C 0.53554 0.62629 0.60487 0.0
C216 C 0.48567 0.62733 0.58757 0.0
C217 C 0.42981 0.57643 0.57937 0.0
C218 C 0.42452 0.52495 0.58957 0.0
C219 C 0.4735 0.52405 0.60729 0.0
C220 C 0.62991 0.53255 0.8792 0.0
C221 C 0.70927 0.39443 0.52172 0.0
H222 H 0.02775 0.38004 0.0992 0.0
H223 H 0.44295 0.61965 0.67326 0.0
H224 H 0.96622 0.4188 0.84069 0.0
H225 H 0.88572 0.39736 0.89127 0.0
H226 H 0.89839 0.25907 0.9406 0.0
H227 H 0.97701 0.27858 0.88685 0.0
H228 H 0.05241 0.44697 0.92115 0.0
H229 H 0.03617 0.42977 0.99749 0.0
H230 H 0.10471 0.31743 0.9893 0.0
H231 H 0.11834 0.3332 0.91249 0.0
H232 H 0.1898 0.51492 0.90282 0.0
H233 H 0.29142 0.5667 0.93494 0.0
H234 H 0.3345 0.45014 0.87771 0.0
H235 H 0.23245 0.3986 0.84512 0.0
H236 H 0.2285 0.55818 0.81983 0.0
H237 H 0.32612 0.62687 0.7865 0.0
H238 H 0.31486 0.49431 0.70725 0.0
H239 H 0.21789 0.42556 0.74178 0.0
H240 H 0.13252 0.53042 0.75341 0.0
H241 H 0.17161 0.57476 0.68407 0.0
H242 H 0.12535 0.41261 0.63242 0.0
H243 H 0.08848 0.36939 0.70212 0.0
H244 H 0.97229 0.42199 0.76036 0.0
H245 H 0.86514 0.35951 0.73897 0.0
H246 H 0.88526 0.21515 0.75044 0.0
H247 H 0.99112 0.27763 0.7725 0.0
O248 O 0.0339 0.38564 0.06885 0.0
O249 O 0.07475 0.33243 0.06375 0.0
O250 O 0.4155 0.65699 0.73491 0.0
O251 O 0.40536 0.59283 0.68779 0.0
C252 C 0.03841 0.3759 0.83886 0.0
C253 C 0.09131 0.39832 0.86427 0.0
C254 C 0.14938 0.43078 0.84524 0.0
C255 C 0.15499 0.44608 0.80198 0.0
C256 C 0.10189 0.42491 0.77673 0.0
C257 C 0.0441 0.38653 0.79466 0.0
C258 C 0.97763 0.35035 0.85996 0.0
C259 C 0.94928 0.38171 0.8605 0.0
C260 C 0.90392 0.36998 0.8902 0.0
C261 C 0.88725 0.32768 0.92083 0.0
C262 C 0.91109 0.29246 0.91771 0.0
C263 C 0.95563 0.30333 0.88693 0.0
C264 C 0.08591 0.39083 0.91121 0.0
C265 C 0.06368 0.41849 0.93586 0.0
C266 C 0.0545 0.40863 0.97949 0.0
C267 C 0.06905 0.37214 -0.00049 0.0
C268 C 0.09292 0.34569 0.97485 0.0
C269 C 0.10104 0.35481 0.93104 0.0
C270 C 0.20468 0.45376 0.87141 0.0
C271 C 0.22043 0.4995 0.89841 0.0
C272 C 0.27815 0.52881 0.91669 0.0
C273 C 0.32019 0.51217 0.90844 0.0
C274 C 0.30226 0.46309 0.88474 0.0
C275 C 0.24458 0.43412 0.86592 0.0
C276 C 0.21637 0.48677 0.78351 0.0
C277 C 0.24777 0.54379 0.7959 0.0
C278 C 0.3033 0.58304 0.77656 0.0
C279 C 0.32808 0.5661 0.74404 0.0
C280 C 0.29687 0.50877 0.73206 0.0
C281 C 0.24158 0.46941 0.75177 0.0
C282 C 0.10803 0.44671 0.73285 0.0
C283 C 0.12931 0.50425 0.72673 0.0
C284 C 0.15203 0.52964 0.68717 0.0
C285 C 0.15267 0.49759 0.65281 0.0
C286 C 0.12601 0.4388 0.65823 0.0
C287 C 0.10426 0.41368 0.69798 0.0
C288 C 0.98895 0.35409 0.76825 0.0
C289 C 0.95393 0.3771 0.75676 0.0
C290 C 0.89264 0.34126 0.74508 0.0
C291 C 0.86632 0.28223 0.7442 0.0
C292 C 0.90378 0.26026 0.75142 0.0
C293 C 0.96453 0.29594 0.76356 0.0
C294 C 0.0595 0.36206 0.04593 0.0
C295 C 0.38564 0.60816 0.72214 0.0
H296 H 0.2125 0.96573 0.75242 0.0
H297 H 0.28699 0.63382 0.09298 0.0
H298 H 0.45265 0.11283 0.91245 0.0
H299 H 0.52396 0.16593 0.85386 0.0
H300 H 0.62296 0.0827 0.87873 0.0
H301 H 0.55298 0.03091 0.93671 0.0
H302 H 0.28739 0.95537 0.92546 0.0
H303 H 0.23976 0.95554 0.85852 0.0
H304 H 0.40633 0.99877 0.79131 0.0
H305 H 0.45315 0.99794 0.85786 0.0
H306 H 0.29485 0.80861 0.94885 0.0
H307 H 0.31985 0.73836 0.92612 0.0
H308 H 0.49249 0.87259 0.87526 0.0
H309 H 0.4708 0.9411 0.90128 0.0
H310 H 0.2981 0.8736 0.04943 0.0
H311 H 0.24723 0.78082 0.08381 0.0
H312 H 0.38613 0.75273 0.03336 0.0
H313 H 0.4357 0.84473 -0.0015 0.0
H314 H 0.4495 0.00258 0.10308 0.0
H315 H 0.50444 0.98839 0.16021 0.0
H316 H 0.57201 0.91576 0.07021 0.0
H317 H 0.52109 0.93416 0.01319 0.0
H318 H 0.46907 0.12086 0.01554 0.0
H319 H 0.55859 0.21461 0.0321 0.0
H320 H 0.6707 0.14157 0.03941 0.0
H321 H 0.58413 0.05073 0.01886 0.0
O322 O 0.2322 0.96582 0.77854 0.0
O323 O 0.31917 0.98858 0.74557 0.0
O324 O 0.22937 0.68217 0.09597 0.0
O325 O 0.30718 0.6712 0.08053 0.0
C326 C 0.44946 0.02593 0.95728 0.0
C327 C 0.40099 0.97628 0.93852 0.0
C328 C 0.38295 0.9235 0.95661 0.0
C329 C 0.39876 0.9215 -0.00081 0.0
C330 C 0.4441 0.97162 0.01948 0.0
C331 C 0.4679 0.02433 -0.00088 0.0
C332 C 0.49743 0.06783 0.92844 0.0
C333 C 0.49098 0.10772 0.90602 0.0
C334 C 0.5317 0.1379 0.8728 0.0
C335 C 0.57827 0.12759 0.86174 0.0
C336 C 0.58718 0.09097 0.88648 0.0
C337 C 0.54734 0.06163 0.91967 0.0
C338 C 0.37418 0.97757 0.89706 0.0
C339 C 0.31365 0.96504 0.89627 0.0
C340 C 0.2865 0.96513 0.85797 0.0
C341 C 0.31934 0.97746 0.81956 0.0
C342 C 0.37981 0.98937 0.82032 0.0
C343 C 0.40681 0.98911 0.85861 0.0
C344 C 0.38118 0.88045 0.92747 0.0
C345 C 0.33686 0.82251 0.93129 0.0
C346 C 0.35136 0.7825 0.91849 0.0
C347 C 0.40905 0.80044 0.90023 0.0
C348 C 0.44815 0.85747 0.88987 0.0
C349 C 0.43498 0.89705 0.90412 0.0
C350 C 0.37086 0.8663 0.02169 0.0
C351 C 0.3177 0.84751 0.04607 0.0
C352 C 0.28866 0.79445 0.06557 0.0
C353 C 0.31253 0.75928 0.06119 0.0
C354 C 0.36668 0.77881 0.03755 0.0
C355 C 0.39547 0.83173 0.0179 0.0
C356 C 0.47862 0.96639 0.05461 0.0
C357 C 0.47647 0.98397 0.09588 0.0
C358 C 0.50808 0.97598 0.12829 0.0
C359 C 0.54069 0.94902 0.11984 0.0
C360 C 0.5462 0.93541 0.07786 0.0
C361 C 0.51603 0.94469 0.04551 0.0
C362 C 0.51887 0.07781 0.01781 0.0
C363 C 0.51267 0.12493 0.02186 0.0
C364 C 0.56363 0.17834 0.03123 0.0
C365 C 0.62107 0.18491 0.03775 0.0
C366 C 0.62653 0.13737 0.03574 0.0
C367 C 0.57643 0.08477 0.02473 0.0
C368 C 0.29047 0.97768 0.77893 0.0
C369 C 0.28043 0.702 0.08039 0.0
H370 H 0.68767 0.67878 0.83144 0.0
H371 H 0.87089 0.4703 0.25215 0.0
H372 H 0.58826 0.64765 0.09768 0.0
H373 H 0.5284 0.66415 0.04746 0.0
H374 H 0.69467 0.79513 0.98718 0.0
H375 H 0.75528 0.78006 0.03959 0.0
H376 H 0.6342 0.61296 0.00997 0.0
H377 H 0.63813 0.62907 0.93338 0.0
H378 H 0.8357 0.73503 0.93938 0.0
H379 H 0.831 0.72036 0.01621 0.0
H380 H 0.67235 0.52025 0.04844 0.0
H381 H 0.70381 0.45641 0.02123 0.0
H382 H 0.89374 0.59182 0.03117 0.0
H383 H 0.86187 0.65403 0.06007 0.0
H384 H 0.67924 0.49901 0.12889 0.0
H385 H 0.70822 0.438 0.16346 0.0
H386 H 0.87666 0.58597 0.20605 0.0
H387 H 0.84776 0.64655 0.17034 0.0
H388 H 0.62937 0.54112 0.18624 0.0
H389 H 0.62912 0.50194 0.25571 0.0
H390 H 0.78648 0.66364 0.29199 0.0
H391 H 0.78752 0.7015 0.22198 0.0
H392 H 0.60051 0.63282 0.18339 0.0
H393 H 0.55929 0.68327 0.22019 0.0
H394 H 0.72291 0.84271 0.18835 0.0
H395 H 0.76389 0.79169 0.15136 0.0
O396 O 0.68713 0.67307 0.86175 0.0
O397 O 0.78883 0.7198 0.86538 0.0
O398 O 0.781 0.41919 0.20536 0.0
O399 O 0.8595 0.49354 0.237 0.0
C400 C 0.70846 0.68664 0.09201 0.0
C401 C 0.7299 0.65921 0.06548 0.0
C402 C 0.74695 0.62339 0.08345 0.0
C403 C 0.74267 0.61434 0.12756 0.0
C404 C 0.7201 0.64048 0.15395 0.0
C405 C 0.70555 0.67862 0.1366 0.0
C406 C 0.67622 0.7121 0.07211 0.0
C407 C 0.61218 0.68215 0.07533 0.0
C408 C 0.57792 0.69105 0.04602 0.0
C409 C 0.60698 0.72961 0.0126 0.0
C410 C 0.67119 0.76476 0.01242 0.0
C411 C 0.70577 0.75628 0.04238 0.0
C412 C 0.7323 0.66587 0.01862 0.0
C413 C 0.67825 0.63966 0.99467 0.0
C414 C 0.68062 0.64889 0.95094 0.0
C415 C 0.7372 0.68331 0.93027 0.0
C416 C 0.79137 0.7083 0.95431 0.0
C417 C 0.78886 0.69982 -0.00186 0.0
C418 C 0.76506 0.59133 0.05631 0.0
C419 C 0.72063 0.5363 0.04351 0.0
C420 C 0.73856 0.49994 0.02835 0.0
C421 C 0.80106 0.51909 0.02466 0.0
C422 C 0.84518 0.57599 0.0337 0.0
C423 C 0.82725 0.61171 0.04998 0.0
C424 C 0.76184 0.57715 0.14656 0.0
C425 C 0.72297 0.51814 0.1449 0.0
C426 C 0.73942 0.48341 0.16496 0.0
C427 C 0.79472 0.50716 0.18759 0.0
C428 C 0.83371 0.56635 0.18897 0.0
C429 C 0.81745 0.60103 0.16851 0.0
C430 C 0.70874 0.62399 0.19919 0.0
C431 C 0.66262 0.56842 0.20978 0.0
C432 C 0.66291 0.54593 0.2492 0.0
C433 C 0.70845 0.5793 0.27892 0.0
C434 C 0.75097 0.63666 0.2696 0.0
C435 C 0.75137 0.65873 0.22984 0.0
C436 C 0.68498 0.70862 0.1645 0.0
C437 C 0.62825 0.67853 0.18542 0.0
C438 C 0.60483 0.70745 0.20643 0.0
C439 C 0.63792 0.76694 0.20706 0.0
C440 C 0.69672 0.7969 0.18875 0.0
C441 C 0.71989 0.76787 0.16731 0.0
C442 C 0.73954 0.69324 0.88387 0.0
C443 C 0.81121 0.47049 0.21034 0.0
C444 C 0.85302 0.51237 0.36711 0.0
O445 O 0.86417 0.55675 0.38685 0.0
Cd446 Cd 0.79007 0.57773 0.41307 0.0
O447 O 0.79803 0.47131 0.36209 0.0
Cd448 Cd 0.69275 0.44748 0.38299 0.0
C449 C 0.71487 0.55422 0.31821 0.0
O450 O 0.70871 0.49911 0.44884 0.0
O451 O 0.62043 0.46585 0.41882 0.0
O452 O 0.68324 0.36288 0.41153 0.0
C453 C 0.65633 0.49372 0.44901 0.0
O454 O 0.7485 0.58761 0.34759 0.0
C455 C 0.63251 0.32769 0.39425 0.0
O456 O 0.69082 0.50069 0.32112 0.0
O457 O 0.60926 0.34784 0.36984 0.0
C458 C 0.37599 0.5753 0.56118 0.0
O459 O 0.33579 0.53079 0.54203 0.0
Cd460 Cd 0.23833 0.5095 0.51621 0.0
O461 O 0.36805 0.61645 0.56715 0.0
Cd462 Cd 0.28655 0.63812 0.55014 0.0
C463 C 0.1859 0.52525 0.61286 0.0
O464 O 0.25518 0.59168 0.48127 0.0
O465 O 0.19896 0.62176 0.50622 0.0
O466 O 0.37421 0.73104 0.53111 0.0
C467 C 0.20977 0.59742 0.47642 0.0
O468 O 0.18244 0.49378 0.58214 0.0
C469 C 0.3552 0.76003 0.54898 0.0
O470 O 0.22183 0.57906 0.6109 0.0
O471 O 0.3048 0.73257 0.56936 0.0
C472 C 0.79954 0.24338 0.73918 0.0
O473 O 0.77748 0.19053 0.7365 0.0
Cd474 Cd 0.67062 0.12223 0.73147 0.0
O475 O 0.76436 0.26283 0.7399 0.0
Cd476 Cd 0.65366 0.22776 0.73478 0.0
C477 C 0.61119 0.14774 0.82125 0.0
O478 O 0.63553 0.16005 0.67933 0.0
O479 O 0.55505 0.1586 0.7014 0.0
O480 O 0.69283 0.32044 0.70322 0.0
C481 C 0.57828 0.13878 0.67665 0.0
O482 O 0.62342 0.11555 0.80033 0.0
C483 C 0.65435 0.32862 0.72218 0.0
O484 O 0.62135 0.19388 0.80578 0.0
O485 O 0.61541 0.28955 0.74623 0.0
C486 C 0.38492 0.55239 0.91648 0.0
O487 O 0.42027 0.53561 0.92736 0.0
Cd488 Cd 0.52605 0.60667 0.93144 0.0
O489 O 0.40553 0.60412 0.90823 0.0
Cd490 Cd 0.49214 0.70094 0.90416 0.0
C491 C 0.54243 0.65225 0.82661 0.0
O492 O 0.52011 0.67953 0.96872 0.0
O493 O 0.58862 0.76222 0.94644 0.0
O494 O 0.40971 0.71782 0.91992 0.0
C495 C 0.56978 0.72541 0.97569 0.0
O496 O 0.54791 0.62272 0.85494 0.0
C497 C 0.43385 0.76333 0.8987 0.0
O498 O 0.52349 0.68496 0.83568 0.0
O499 O 0.48501 0.77946 0.8808 0.0
C500 C 0.82115 0.47941 0.01594 0.0
O501 O 0.87458 0.49896 0.00081 0.0
Cd502 Cd 0.9214 0.44622 0.99497 0.0
O503 O 0.78791 0.42787 0.02801 0.0
Cd504 Cd 0.79418 0.34087 0.03106 0.0
C505 C 0.90722 0.41206 0.1019 0.0
O506 O 0.83863 0.36382 0.96259 0.0
O507 O 0.84341 0.29648 0.99061 0.0
O508 O 0.6829 0.28331 0.02066 0.0
C509 C 0.85111 0.32602 0.95798 0.0
O510 O 0.93984 0.44195 0.07073 0.0
C511 C 0.67717 0.24122 0.0407 0.0
O512 O 0.85218 0.37175 0.09682 0.0
O513 O 0.72475 0.24742 0.0581 0.0
C514 C 0.38665 0.76972 0.19417 0.0
O515 O 0.38175 0.81204 0.18653 0.0
Cd516 Cd 0.44991 0.90852 0.20816 0.0
O517 O 0.43601 0.7762 0.20881 0.0
Cd518 Cd 0.54055 0.85197 0.22274 0.0
C519 C 0.48094 0.88607 0.30834 0.0
O520 O 0.5509 0.93513 0.19274 0.0
O521 O 0.56761 0.88635 0.1486 0.0
O522 O 0.5484 0.77064 0.21642 0.0
C523 C 0.56081 0.92772 0.15481 0.0
O524 O 0.45054 0.89725 0.28282 0.0
C525 C 0.60632 0.79651 0.21917 0.0
O526 O 0.52019 0.87421 0.29524 0.0
O527 O 0.63497 0.84951 0.22685 0.0
loop_
_geom_bond_atom_site_label_1
_geom_bond_atom_site_label_2
_geom_bond_distance
_geom_bond_site_symmetry_2
_ccdc_geom_bond_type
H0 O26 0.856 . S
H1 O29 0.854 . S
H2 C37 0.930 1_455 S
H3 C38 0.930 . S
H4 C40 0.930 . S
H5 C41 0.930 . S
H6 C43 0.931 . S
H7 C44 0.930 . S
H8 C46 0.930 . S
H9 C47 0.929 . S
H10 C49 0.930 . S
H11 C50 0.931 . S
H12 C52 0.930 . S
H13 C53 0.929 . S
H14 C55 0.931 . S
H15 C56 0.930 . S
H16 C58 0.930 . S
H17 C59 0.932 . S
H18 C61 0.930 . S
H19 C62 0.929 . S
H20 C64 0.931 . S
H21 C65 0.930 . S
H22 C67 0.929 . S
H23 C68 0.931 . S
H24 C70 0.930 . S
H25 C71 0.929 . S
O26 H0 0.856 . S
O26 C72 1.300 . S
O27 C72 1.209 . S
O28 C73 1.199 . S
O29 H1 0.854 . S
O29 C73 1.297 . S
C30 C31 1.404 . S
C30 C35 1.397 . S
C30 C36 1.492 . S
C31 C30 1.404 . S
C31 C32 1.396 . S
C31 C42 1.492 . S
C32 C31 1.396 . S
C32 C33 1.397 . S
C32 C48 1.509 . S
C33 C32 1.397 . S
C33 C34 1.412 . S
C33 C54 1.485 . S
C34 C33 1.412 . S
C34 C35 1.388 . S
C34 C60 1.490 . S
C35 C30 1.397 . S
C35 C34 1.388 . S
C35 C66 1.519 1_455 S
C36 C30 1.492 . S
C36 C37 1.363 1_455 S
C36 C41 1.390 1_455 S
C37 H2 0.930 1_655 S
C37 C36 1.363 1_655 S
C37 C38 1.372 . S
C38 H3 0.930 . S
C38 C37 1.372 . S
C38 C39 1.383 . S
C39 C38 1.383 . S
C39 C40 1.395 . S
C40 H4 0.930 . S
C40 C39 1.395 . S
C40 C41 1.362 . S
C41 H5 0.930 . S
C41 C36 1.390 1_655 S
C41 C40 1.362 . S
C42 C31 1.492 . S
C42 C43 1.377 . S
C42 C47 1.397 . S
C43 H6 0.931 . S
C43 C42 1.377 . S
C43 C44 1.376 . S
C44 H7 0.930 . S
C44 C43 1.376 . S
C44 C45 1.376 . S
C45 C44 1.376 . S
C45 C46 1.378 . S
C45 C72 1.486 . S
C46 H8 0.930 . S
C46 C45 1.378 . S
C46 C47 1.376 . S
C47 H9 0.929 . S
C47 C42 1.397 . S
C47 C46 1.376 . S
C48 C32 1.509 . S
C48 C49 1.391 . S
C48 C53 1.386 . S
C49 H10 0.930 . S
C49 C48 1.391 . S
C49 C50 1.375 . S
C50 H11 0.931 . S
C50 C49 1.375 . S
C50 C51 1.375 . S
C51 C50 1.375 . S
C51 C52 1.361 . S
C52 H12 0.930 . S
C52 C51 1.361 . S
C52 C53 1.399 . S
C53 H13 0.929 . S
C53 C48 1.386 . S
C53 C52 1.399 . S
C54 C33 1.485 . S
C54 C55 1.394 . S
C54 C59 1.360 . S
C55 H14 0.931 . S
C55 C54 1.394 . S
C55 C56 1.372 . S
C56 H15 0.930 . S
C56 C55 1.372 . S
C56 C57 1.397 . S
C57 C56 1.397 . S
C57 C58 1.390 . S
C57 C73 1.476 . S
C58 H16 0.930 . S
C58 C57 1.390 . S
C58 C59 1.366 . S
C59 H17 0.932 . S
C59 C54 1.360 . S
C59 C58 1.366 . S
C60 C34 1.490 . S
C60 C61 1.380 . S
C60 C65 1.386 . S
C61 H18 0.930 . S
C61 C60 1.380 . S
C61 C62 1.381 . S
C62 H19 0.929 . S
C62 C61 1.381 . S
C62 C63 1.371 . S
C63 C62 1.371 . S
C63 C64 1.380 . S
C64 H20 0.931 . S
C64 C63 1.380 . S
C64 C65 1.387 . S
C65 H21 0.930 . S
C65 C60 1.386 . S
C65 C64 1.387 . S
C66 C35 1.519 1_655 S
C66 C67 1.377 . S
C66 C71 1.361 . S
C67 H22 0.929 . S
C67 C66 1.377 . S
C67 C68 1.386 . S
C68 H23 0.931 . S
C68 C67 1.386 . S
C68 C69 1.363 . S
C69 C68 1.363 . S
C69 C70 1.385 . S
C70 H24 0.930 . S
C70 C69 1.385 . S
C70 C71 1.396 . S
C71 H25 0.929 . S
C71 C66 1.361 . S
C71 C70 1.396 . S
C72 O26 1.300 . S
C72 O27 1.209 . S
C72 C45 1.486 . S
C73 O28 1.199 . S
C73 O29 1.297 . S
C73 C57 1.476 . S
H74 O100 0.856 . S
H75 O103 0.854 . S
H76 C111 0.930 1_545 S
H77 C112 0.930 . S
H78 C114 0.930 . S
H79 C115 0.930 . S
H80 C117 0.931 . S
H81 C118 0.930 . S
H82 C120 0.930 . S
H83 C121 0.929 . S
H84 C123 0.930 . S
H85 C124 0.931 . S
H86 C126 0.930 . S
H87 C127 0.929 . S
H88 C129 0.931 . S
H89 C130 0.930 . S
H90 C132 0.930 . S
H91 C133 0.932 . S
H92 C135 0.930 . S
H93 C136 0.929 . S
H94 C138 0.931 . S
H95 C139 0.930 . S
H96 C141 0.929 . S
H97 C142 0.931 . S
H98 C144 0.930 . S
H99 C145 0.929 . S
O100 H74 0.856 . S
O100 C146 1.300 . S
O101 C146 1.209 . S
O102 C147 1.199 . S
O103 H75 0.854 . S
O103 C147 1.297 . S
C104 C105 1.404 . S
C104 C109 1.397 . S
C104 C110 1.492 1_545 S
C105 C104 1.404 . S
C105 C106 1.396 . S
C105 C116 1.492 . S
C106 C105 1.396 . S
C106 C107 1.397 . S
C106 C122 1.509 . S
C107 C106 1.397 . S
C107 C108 1.412 . S
C107 C128 1.485 . S
C108 C107 1.412 . S
C108 C109 1.388 . S
C108 C134 1.490 . S
C109 C104 1.397 . S
C109 C108 1.388 . S
C109 C140 1.519 1_545 S
C110 C104 1.492 1_565 S
C110 C111 1.363 . S
C110 C115 1.390 . S
C111 H76 0.930 1_565 S
C111 C110 1.363 . S
C111 C112 1.372 . S
C112 H77 0.930 . S
C112 C111 1.372 . S
C112 C113 1.383 . S
C113 C112 1.383 . S
C113 C114 1.395 . S
C114 H78 0.930 . S
C114 C113 1.395 . S
C114 C115 1.362 . S
C115 H79 0.930 . S
C115 C110 1.390 . S
C115 C114 1.362 . S
C116 C105 1.492 . S
C116 C117 1.377 . S
C116 C121 1.397 . S
C117 H80 0.931 . S
C117 C116 1.377 . S
C117 C118 1.376 . S
C118 H81 0.930 . S
C118 C117 1.376 . S
C118 C119 1.376 . S
C119 C118 1.376 . S
C119 C120 1.378 . S
C119 C146 1.486 . S
C120 H82 0.930 . S
C120 C119 1.378 . S
C120 C121 1.376 . S
C121 H83 0.929 . S
C121 C116 1.397 . S
C121 C120 1.376 . S
C122 C106 1.509 . S
C122 C123 1.391 . S
C122 C127 1.386 . S
C123 H84 0.930 . S
C123 C122 1.391 . S
C123 C124 1.375 . S
C124 H85 0.931 . S
C124 C123 1.375 . S
C124 C125 1.375 . S
C125 C124 1.375 . S
C125 C126 1.361 . S
C126 H86 0.930 . S
C126 C125 1.361 . S
C126 C127 1.399 . S
C127 H87 0.929 . S
C127 C122 1.386 . S
C127 C126 1.399 . S
C128 C107 1.485 . S
C128 C129 1.394 . S
C128 C133 1.360 . S
C129 H88 0.931 . S
C129 C128 1.394 . S
C129 C130 1.372 . S
C130 H89 0.930 . S
C130 C129 1.372 . S
C130 C131 1.397 . S
C131 C130 1.397 . S
C131 C132 1.390 . S
C131 C147 1.476 . S
C132 H90 0.930 . S
C132 C131 1.390 . S
C132 C133 1.366 . S
C133 H91 0.932 . S
C133 C128 1.360 . S
C133 C132 1.366 . S
C134 C108 1.490 . S
C134 C135 1.380 . S
C134 C139 1.386 . S
C135 H92 0.930 . S
C135 C134 1.380 . S
C135 C136 1.381 . S
C136 H93 0.929 . S
C136 C135 1.381 . S
C136 C137 1.371 . S
C137 C136 1.371 . S
C137 C138 1.380 . S
C138 H94 0.931 . S
C138 C137 1.380 . S
C138 C139 1.387 . S
C139 H95 0.930 . S
C139 C134 1.386 . S
C139 C138 1.387 . S
C140 C109 1.519 1_565 S
C140 C141 1.377 . S
C140 C145 1.361 . S
C141 H96 0.929 . S
C141 C140 1.377 . S
C141 C142 1.386 . S
C142 H97 0.931 . S
C142 C141 1.386 . S
C142 C143 1.363 . S
C143 C142 1.363 . S
C143 C144 1.385 . S
C144 H98 0.930 . S
C144 C143 1.385 . S
C144 C145 1.396 . S
C145 H99 0.929 . S
C145 C140 1.361 . S
C145 C144 1.396 . S
C146 O100 1.300 . S
C146 O101 1.209 . S
C146 C119 1.486 . S
C147 O102 1.199 . S
C147 O103 1.297 . S
C147 C131 1.476 . S
H148 O174 0.856 . S
H149 O177 0.854 . S
H150 C185 0.930 . S
H151 C186 0.930 . S
H152 C188 0.930 . S
H153 C189 0.930 . S
H154 C191 0.931 . S
H155 C192 0.930 . S
H156 C194 0.930 . S
H157 C195 0.929 . S
H158 C197 0.930 . S
H159 C198 0.931 . S
H160 C200 0.930 . S
H161 C201 0.929 . S
H162 C203 0.931 . S
H163 C204 0.930 . S
H164 C206 0.930 . S
H165 C207 0.932 . S
H166 C209 0.930 . S
H167 C210 0.929 . S
H168 C212 0.931 . S
H169 C213 0.930 . S
H170 C215 0.929 . S
H171 C216 0.931 . S
H172 C218 0.930 . S
H173 C219 0.929 . S
O174 H148 0.856 . S
O174 C220 1.300 . S
O175 C220 1.209 . S
O176 C221 1.199 . S
O177 H149 0.854 . S
O177 C221 1.297 . S
C178 C179 1.404 . S
C178 C183 1.397 . S
C178 C184 1.492 . S
C179 C178 1.404 . S
C179 C180 1.396 . S
C179 C190 1.492 . S
C180 C179 1.396 . S
C180 C181 1.397 . S
C180 C196 1.509 . S
C181 C180 1.397 . S
C181 C182 1.412 . S
C181 C202 1.485 . S
C182 C181 1.412 . S
C182 C183 1.388 . S
C182 C208 1.490 . S
C183 C178 1.397 . S
C183 C182 1.388 . S
C183 C214 1.519 . S
C184 C178 1.492 . S
C184 C185 1.363 . S
C184 C189 1.390 . S
C185 H150 0.930 . S
C185 C184 1.363 . S
C185 C186 1.372 . S
C186 H151 0.930 . S
C186 C185 1.372 . S
C186 C187 1.383 . S
C187 C186 1.383 . S
C187 C188 1.395 . S
C188 H152 0.930 . S
C188 C187 1.395 . S
C188 C189 1.362 . S
C189 H153 0.930 . S
C189 C184 1.390 . S
C189 C188 1.362 . S
C190 C179 1.492 . S
C190 C191 1.377 . S
C190 C195 1.397 . S
C191 H154 0.931 . S
C191 C190 1.377 . S
C191 C192 1.376 . S
C192 H155 0.930 . S
C192 C191 1.376 . S
C192 C193 1.376 . S
C193 C192 1.376 . S
C193 C194 1.378 . S
C193 C220 1.486 . S
C194 H156 0.930 . S
C194 C193 1.378 . S
C194 C195 1.376 . S
C195 H157 0.929 . S
C195 C190 1.397 . S
C195 C194 1.376 . S
C196 C180 1.509 . S
C196 C197 1.391 . S
C196 C201 1.386 . S
C197 H158 0.930 . S
C197 C196 1.391 . S
C197 C198 1.375 . S
C198 H159 0.931 . S
C198 C197 1.375 . S
C198 C199 1.375 . S
C199 C198 1.375 . S
C199 C200 1.361 . S
C200 H160 0.930 . S
C200 C199 1.361 . S
C200 C201 1.399 . S
C201 H161 0.929 . S
C201 C196 1.386 . S
C201 C200 1.399 . S
C202 C181 1.485 . S
C202 C203 1.394 . S
C202 C207 1.360 . S
C203 H162 0.931 . S
C203 C202 1.394 . S
C203 C204 1.372 . S
C204 H163 0.930 . S
C204 C203 1.372 . S
C204 C205 1.397 . S
C205 C204 1.397 . S
C205 C206 1.390 . S
C205 C221 1.476 . S
C206 H164 0.930 . S
C206 C205 1.390 . S
C206 C207 1.366 . S
C207 H165 0.932 . S
C207 C202 1.360 . S
C207 C206 1.366 . S
C208 C182 1.490 . S
C208 C209 1.380 . S
C208 C213 1.386 . S
C209 H166 0.930 . S
C209 C208 1.380 . S
C209 C210 1.381 . S
C210 H167 0.929 . S
C210 C209 1.381 . S
C210 C211 1.371 . S
C211 C210 1.371 . S
C211 C212 1.380 . S
C212 H168 0.931 . S
C212 C211 1.380 . S
C212 C213 1.387 . S
C213 H169 0.930 . S
C213 C208 1.386 . S
C213 C212 1.387 . S
C214 C183 1.519 . S
C214 C215 1.377 . S
C214 C219 1.361 . S
C215 H170 0.929 . S
C215 C214 1.377 . S
C215 C216 1.386 . S
C216 H171 0.931 . S
C216 C215 1.386 . S
C216 C217 1.363 . S
C217 C216 1.363 . S
C217 C218 1.385 . S
C218 H172 0.930 . S
C218 C217 1.385 . S
C218 C219 1.396 . S
C219 H173 0.929 . S
C219 C214 1.361 . S
C219 C218 1.396 . S
C220 O174 1.300 . S
C220 O175 1.209 . S
C220 C193 1.486 . S
C221 O176 1.199 . S
C221 O177 1.297 . S
C221 C205 1.476 . S
H222 O248 0.856 . S
H223 O251 0.854 . S
H224 C259 0.930 1_455 S
H225 C260 0.930 . S
H226 C262 0.930 . S
H227 C263 0.930 . S
H228 C265 0.931 . S
H229 C266 0.930 . S
H230 C268 0.930 . S
H231 C269 0.929 . S
H232 C271 0.930 . S
H233 C272 0.931 . S
H234 C274 0.930 . S
H235 C275 0.929 . S
H236 C277 0.931 . S
H237 C278 0.930 . S
H238 C280 0.930 . S
H239 C281 0.932 . S
H240 C283 0.930 . S
H241 C284 0.929 . S
H242 C286 0.931 . S
H243 C287 0.930 . S
H244 C289 0.929 . S
H245 C290 0.931 . S
H246 C292 0.930 . S
H247 C293 0.929 . S
O248 H222 0.856 . S
O248 C294 1.300 . S
O249 C294 1.209 . S
O250 C295 1.199 . S
O251 H223 0.854 . S
O251 C295 1.297 . S
C252 C253 1.404 . S
C252 C257 1.397 . S
C252 C258 1.492 1_455 S
C253 C252 1.404 . S
C253 C254 1.396 . S
C253 C264 1.492 . S
C254 C253 1.396 . S
C254 C255 1.397 . S
C254 C270 1.509 . S
C255 C254 1.397 . S
C255 C256 1.412 . S
C255 C276 1.485 . S
C256 C255 1.412 . S
C256 C257 1.388 . S
C256 C282 1.490 . S
C257 C252 1.397 . S
C257 C256 1.388 . S
C257 C288 1.519 1_455 S
C258 C252 1.492 1_655 S
C258 C259 1.363 . S
C258 C263 1.390 . S
C259 H224 0.930 1_655 S
C259 C258 1.363 . S
C259 C260 1.372 . S
C260 H225 0.930 . S
C260 C259 1.372 . S
C260 C261 1.383 . S
C261 C260 1.383 . S
C261 C262 1.395 . S
C262 H226 0.930 . S
C262 C261 1.395 . S
C262 C263 1.362 . S
C263 H227 0.930 . S
C263 C258 1.390 . S
C263 C262 1.362 . S
C264 C253 1.492 . S
C264 C265 1.377 . S
C264 C269 1.397 . S
C265 H228 0.931 . S
C265 C264 1.377 . S
C265 C266 1.376 . S
C266 H229 0.930 . S
C266 C265 1.376 . S
C266 C267 1.376 . S
C267 C266 1.376 . S
C267 C268 1.378 . S
C267 C294 1.486 1_556 S
C268 H230 0.930 . S
C268 C267 1.378 . S
C268 C269 1.376 . S
C269 H231 0.929 . S
C269 C264 1.397 . S
C269 C268 1.376 . S
C270 C254 1.509 . S
C270 C271 1.391 . S
C270 C275 1.386 . S
C271 H232 0.930 . S
C271 C270 1.391 . S
C271 C272 1.375 . S
C272 H233 0.931 . S
C272 C271 1.375 . S
C272 C273 1.375 . S
C273 C272 1.375 . S
C273 C274 1.361 . S
C274 H234 0.930 . S
C274 C273 1.361 . S
C274 C275 1.399 . S
C275 H235 0.929 . S
C275 C270 1.386 . S
C275 C274 1.399 . S
C276 C255 1.485 . S
C276 C277 1.394 . S
C276 C281 1.360 . S
C277 H236 0.931 . S
C277 C276 1.394 . S
C277 C278 1.372 . S
C278 H237 0.930 . S
C278 C277 1.372 . S
C278 C279 1.397 . S
C279 C278 1.397 . S
C279 C280 1.390 . S
C279 C295 1.476 . S
C280 H238 0.930 . S
C280 C279 1.390 . S
C280 C281 1.366 . S
C281 H239 0.932 . S
C281 C276 1.360 . S
C281 C280 1.366 . S
C282 C256 1.490 . S
C282 C283 1.380 . S
C282 C287 1.386 . S
C283 H240 0.930 . S
C283 C282 1.380 . S
C283 C284 1.381 . S
C284 H241 0.929 . S
C284 C283 1.381 . S
C284 C285 1.371 . S
C285 C284 1.371 . S
C285 C286 1.380 . S
C286 H242 0.931 . S
C286 C285 1.380 . S
C286 C287 1.387 . S
C287 H243 0.930 . S
C287 C282 1.386 . S
C287 C286 1.387 . S
C288 C257 1.519 1_655 S
C288 C289 1.377 . S
C288 C293 1.361 . S
C289 H244 0.929 . S
C289 C288 1.377 . S
C289 C290 1.386 . S
C290 H245 0.931 . S
C290 C289 1.386 . S
C290 C291 1.363 . S
C291 C290 1.363 . S
C291 C292 1.385 . S
C292 H246 0.930 . S
C292 C291 1.385 . S
C292 C293 1.396 . S
C293 H247 0.929 . S
C293 C288 1.361 . S
C293 C292 1.396 . S
C294 O248 1.300 . S
C294 O249 1.209 . S
C294 C267 1.486 1_554 S
C295 O250 1.199 . S
C295 O251 1.297 . S
C295 C279 1.476 . S
H296 O322 0.856 . S
H297 O325 0.854 . S
H298 C333 0.930 . S
H299 C334 0.930 . S
H300 C336 0.930 . S
H301 C337 0.930 . S
H302 C339 0.931 . S
H303 C340 0.930 . S
H304 C342 0.930 . S
H305 C343 0.929 1_545 S
H306 C345 0.930 . S
H307 C346 0.931 . S
H308 C348 0.930 . S
H309 C349 0.929 . S
H310 C351 0.931 . S
H311 C352 0.930 . S
H312 C354 0.930 . S
H313 C355 0.932 . S
H314 C357 0.930 . S
H315 C358 0.929 . S
H316 C360 0.931 . S
H317 C361 0.930 . S
H318 C363 0.929 1_556 S
H319 C364 0.931 . S
H320 C366 0.930 . S
H321 C367 0.929 . S
O322 H296 0.856 . S
O322 C368 1.300 . S
O323 C368 1.209 . S
O324 C369 1.199 . S
O325 H297 0.854 . S
O325 C369 1.297 . S
C326 C327 1.404 1_545 S
C326 C331 1.397 . S
C326 C332 1.492 . S
C327 C326 1.404 1_565 S
C327 C328 1.396 . S
C327 C338 1.492 . S
C328 C327 1.396 . S
C328 C329 1.397 . S
C328 C344 1.509 . S
C329 C328 1.397 . S
C329 C330 1.412 1_556 S
C329 C350 1.485 1_556 S
C330 C329 1.412 1_554 S
C330 C331 1.388 1_564 S
C330 C356 1.490 . S
C331 C326 1.397 . S
C331 C330 1.388 1_546 S
C331 C362 1.519 1_556 S
C332 C326 1.492 . S
C332 C333 1.363 . S
C332 C337 1.390 . S
C333 H298 0.930 . S
C333 C332 1.363 . S
C333 C334 1.372 . S
C334 H299 0.930 . S
C334 C333 1.372 . S
C334 C335 1.383 . S
C335 C334 1.383 . S
C335 C336 1.395 . S
C336 H300 0.930 . S
C336 C335 1.395 . S
C336 C337 1.362 . S
C337 H301 0.930 . S
C337 C332 1.390 . S
C337 C336 1.362 . S
C338 C327 1.492 . S
C338 C339 1.377 . S
C338 C343 1.397 . S
C339 H302 0.931 . S
C339 C338 1.377 . S
C339 C340 1.376 . S
C340 H303 0.930 . S
C340 C339 1.376 . S
C340 C341 1.376 . S
C341 C340 1.376 . S
C341 C342 1.378 . S
C341 C368 1.486 . S
C342 H304 0.930 . S
C342 C341 1.378 . S
C342 C343 1.376 . S
C343 H305 0.929 1_565 S
C343 C338 1.397 . S
C343 C342 1.376 . S
C344 C328 1.509 . S
C344 C345 1.391 . S
C344 C349 1.386 . S
C345 H306 0.930 . S
C345 C344 1.391 . S
C345 C346 1.375 . S
C346 H307 0.931 . S
C346 C345 1.375 . S
C346 C347 1.375 . S
C347 C346 1.375 . S
C347 C348 1.361 . S
C348 H308 0.930 . S
C348 C347 1.361 . S
C348 C349 1.399 . S
C349 H309 0.929 . S
C349 C344 1.386 . S
C349 C348 1.399 . S
C350 C329 1.485 1_554 S
C350 C351 1.394 . S
C350 C355 1.360 . S
C351 H310 0.931 . S
C351 C350 1.394 . S
C351 C352 1.372 . S
C352 H311 0.930 . S
C352 C351 1.372 . S
C352 C353 1.397 . S
C353 C352 1.397 . S
C353 C354 1.390 . S
C353 C369 1.476 . S
C354 H312 0.930 . S
C354 C353 1.390 . S
C354 C355 1.366 . S
C355 H313 0.932 . S
C355 C350 1.360 . S
C355 C354 1.366 . S
C356 C330 1.490 . S
C356 C357 1.380 1_565 S
C356 C361 1.386 . S
C357 H314 0.930 . S
C357 C356 1.380 1_545 S
C357 C358 1.381 . S
C358 H315 0.929 . S
C358 C357 1.381 . S
C358 C359 1.371 . S
C359 C358 1.371 . S
C359 C360 1.380 1_545 S
C360 H316 0.931 . S
C360 C359 1.380 1_565 S
C360 C361 1.387 . S
C361 H317 0.930 . S
C361 C356 1.386 . S
C361 C360 1.387 . S
C362 C331 1.519 1_554 S
C362 C363 1.377 . S
C362 C367 1.361 . S
C363 H318 0.929 1_554 S
C363 C362 1.377 . S
C363 C364 1.386 . S
C364 H319 0.931 . S
C364 C363 1.386 . S
C364 C365 1.363 . S
C365 C364 1.363 . S
C365 C366 1.385 . S
C366 H320 0.930 . S
C366 C365 1.385 . S
C366 C367 1.396 . S
C367 H321 0.929 . S
C367 C362 1.361 . S
C367 C366 1.396 . S
C368 O322 1.300 . S
C368 O323 1.209 . S
C368 C341 1.486 . S
C369 O324 1.199 . S
C369 O325 1.297 . S
C369 C353 1.476 . S
H370 O396 0.856 . S
H371 O399 0.854 . S
H372 C407 0.930 . S
H373 C408 0.930 . S
H374 C410 0.930 . S
H375 C411 0.930 . S
H376 C413 0.931 . S
H377 C414 0.930 . S
H378 C416 0.930 . S
H379 C417 0.929 1_554 S
H380 C419 0.930 . S
H381 C420 0.931 . S
H382 C422 0.930 . S
H383 C423 0.929 . S
H384 C425 0.931 . S
H385 C426 0.930 . S
H386 C428 0.930 . S
H387 C429 0.932 . S
H388 C431 0.930 . S
H389 C432 0.929 . S
H390 C434 0.931 . S
H391 C435 0.930 . S
H392 C437 0.929 . S
H393 C438 0.931 . S
H394 C440 0.930 . S
H395 C441 0.929 . S
O396 H370 0.856 . S
O396 C442 1.300 . S
O397 C442 1.209 . S
O398 C443 1.199 . S
O399 H371 0.854 . S
O399 C443 1.297 . S
C400 C401 1.404 . S
C400 C405 1.397 . S
C400 C406 1.492 . S
C401 C400 1.404 . S
C401 C402 1.396 . S
C401 C412 1.492 . S
C402 C401 1.396 . S
C402 C403 1.397 . S
C402 C418 1.509 . S
C403 C402 1.397 . S
C403 C404 1.412 . S
C403 C424 1.485 . S
C404 C403 1.412 . S
C404 C405 1.388 . S
C404 C430 1.490 . S
C405 C400 1.397 . S
C405 C404 1.388 . S
C405 C436 1.519 . S
C406 C400 1.492 . S
C406 C407 1.363 . S
C406 C411 1.390 . S
C407 H372 0.930 . S
C407 C406 1.363 . S
C407 C408 1.372 . S
C408 H373 0.930 . S
C408 C407 1.372 . S
C408 C409 1.383 . S
C409 C408 1.383 . S
C409 C410 1.395 . S
C410 H374 0.930 . S
C410 C409 1.395 . S
C410 C411 1.362 . S
C411 H375 0.930 . S
C411 C406 1.390 . S
C411 C410 1.362 . S
C412 C401 1.492 . S
C412 C413 1.377 . S
C412 C417 1.397 1_554 S
C413 H376 0.931 . S
C413 C412 1.377 . S
C413 C414 1.376 1_554 S
C414 H377 0.930 . S
C414 C413 1.376 1_556 S
C414 C415 1.376 . S
C415 C414 1.376 . S
C415 C416 1.378 . S
C415 C442 1.486 . S
C416 H378 0.930 . S
C416 C415 1.378 . S
C416 C417 1.376 . S
C417 H379 0.929 1_556 S
C417 C412 1.397 1_556 S
C417 C416 1.376 . S
C418 C402 1.509 . S
C418 C419 1.391 . S
C418 C423 1.386 . S
C419 H380 0.930 . S
C419 C418 1.391 . S
C419 C420 1.375 . S
C420 H381 0.931 . S
C420 C419 1.375 . S
C420 C421 1.375 . S
C421 C420 1.375 . S
C421 C422 1.361 . S
C422 H382 0.930 . S
C422 C421 1.361 . S
C422 C423 1.399 . S
C423 H383 0.929 . S
C423 C418 1.386 . S
C423 C422 1.399 . S
C424 C403 1.485 . S
C424 C425 1.394 . S
C424 C429 1.360 . S
C425 H384 0.931 . S
C425 C424 1.394 . S
C425 C426 1.372 . S
C426 H385 0.930 . S
C426 C425 1.372 . S
C426 C427 1.397 . S
C427 C426 1.397 . S
C427 C428 1.390 . S
C427 C443 1.476 . S
C428 H386 0.930 . S
C428 C427 1.390 . S
C428 C429 1.366 . S
C429 H387 0.932 . S
C429 C424 1.360 . S
C429 C428 1.366 . S
C430 C404 1.490 . S
C430 C431 1.380 . S
C430 C435 1.386 . S
C431 H388 0.930 . S
C431 C430 1.380 . S
C431 C432 1.381 . S
C432 H389 0.929 . S
C432 C431 1.381 . S
C432 C433 1.371 . S
C433 C432 1.371 . S
C433 C434 1.380 . S
C434 H390 0.931 . S
C434 C433 1.380 . S
C434 C435 1.387 . S
C435 H391 0.930 . S
C435 C430 1.386 . S
C435 C434 1.387 . S
C436 C405 1.519 . S
C436 C437 1.377 . S
C436 C441 1.361 . S
C437 H392 0.929 . S
C437 C436 1.377 . S
C437 C438 1.386 . S
C438 H393 0.931 . S
C438 C437 1.386 . S
C438 C439 1.363 . S
C439 C438 1.363 . S
C439 C440 1.385 . S
C440 H394 0.930 . S
C440 C439 1.385 . S
C440 C441 1.396 . S
C441 H395 0.929 . S
C441 C436 1.361 . S
C441 C440 1.396 . S
C442 O396 1.300 . S
C442 O397 1.209 . S
C442 C415 1.486 . S
C443 O398 1.199 . S
C443 O399 1.297 . S
C443 C427 1.476 . S
C444 O445 1.306 . S
C444 O447 1.160 . S
O445 C444 1.306 . S
O445 Cd446 2.228 . S
Cd446 O445 2.228 . S
Cd446 O450 2.273 . S
Cd446 O454 2.277 . S
O447 C444 1.160 . S
O447 Cd448 2.203 . S
Cd448 O447 2.203 . S
Cd448 O450 2.411 . S
Cd448 O451 2.333 . S
Cd448 O452 2.352 . S
Cd448 O456 2.277 . S
Cd448 O457 2.356 . S
C449 O454 1.209 . S
C449 O456 1.226 . S
O450 Cd446 2.273 . S
O450 Cd448 2.411 . S
O450 C453 1.320 . S
O451 Cd448 2.333 . S
O451 C453 1.214 . S
O452 Cd448 2.352 . S
O452 C455 1.258 . S
C453 O450 1.320 . S
C453 O451 1.214 . S
O454 Cd446 2.277 . S
O454 C449 1.209 . S
C455 O452 1.258 . S
C455 O457 1.282 . S
O456 Cd448 2.277 . S
O456 C449 1.226 . S
O457 Cd448 2.356 . S
O457 C455 1.282 . S
C458 O459 1.306 . S
C458 O461 1.160 . S
O459 C458 1.306 . S
O459 Cd460 2.228 . S
Cd460 O459 2.228 . S
Cd460 O464 2.273 . S
Cd460 O468 2.277 . S
O461 C458 1.160 . S
O461 Cd462 2.203 . S
Cd462 O461 2.203 . S
Cd462 O464 2.411 . S
Cd462 O465 2.333 . S
Cd462 O466 2.352 . S
Cd462 O470 2.277 . S
Cd462 O471 2.356 . S
C463 O468 1.209 . S
C463 O470 1.226 . S
O464 Cd460 2.273 . S
O464 Cd462 2.411 . S
O464 C467 1.320 . S
O465 Cd462 2.333 . S
O465 C467 1.214 . S
O466 Cd462 2.352 . S
O466 C469 1.258 . S
C467 O464 1.320 . S
C467 O465 1.214 . S
O468 Cd460 2.277 . S
O468 C463 1.209 . S
C469 O466 1.258 . S
C469 O471 1.282 . S
O470 Cd462 2.277 . S
O470 C463 1.226 . S
O471 Cd462 2.356 . S
O471 C469 1.282 . S
C472 O473 1.306 . S
C472 O475 1.160 . S
O473 C472 1.306 . S
O473 Cd474 2.228 . S
Cd474 O473 2.228 . S
Cd474 O478 2.273 . S
Cd474 O482 2.277 . S
O475 C472 1.160 . S
O475 Cd476 2.203 . S
Cd476 O475 2.203 . S
Cd476 O478 2.411 . S
Cd476 O479 2.333 . S
Cd476 O480 2.352 . S
Cd476 O484 2.277 . S
Cd476 O485 2.356 . S
C477 O482 1.209 . S
C477 O484 1.226 . S
O478 Cd474 2.273 . S
O478 Cd476 2.411 . S
O478 C481 1.320 . S
O479 Cd476 2.333 . S
O479 C481 1.214 . S
O480 Cd476 2.352 . S
O480 C483 1.258 . S
C481 O478 1.320 . S
C481 O479 1.214 . S
O482 Cd474 2.277 . S
O482 C477 1.209 . S
C483 O480 1.258 . S
C483 O485 1.282 . S
O484 Cd476 2.277 . S
O484 C477 1.226 . S
O485 Cd476 2.356 . S
O485 C483 1.282 . S
C486 O487 1.306 . S
C486 O489 1.160 . S
O487 C486 1.306 . S
O487 Cd488 2.228 . S
Cd488 O487 2.228 . S
Cd488 O492 2.273 . S
Cd488 O496 2.277 . S
O489 C486 1.160 . S
O489 Cd490 2.203 . S
Cd490 O489 2.203 . S
Cd490 O492 2.411 . S
Cd490 O493 2.333 . S
Cd490 O494 2.352 . S
Cd490 O498 2.277 . S
Cd490 O499 2.356 . S
C491 O496 1.209 . S
C491 O498 1.226 . S
O492 Cd488 2.273 . S
O492 Cd490 2.411 . S
O492 C495 1.320 . S
O493 Cd490 2.333 . S
O493 C495 1.214 . S
O494 Cd490 2.352 . S
O494 C497 1.258 . S
C495 O492 1.320 . S
C495 O493 1.214 . S
O496 Cd488 2.277 . S
O496 C491 1.209 . S
C497 O494 1.258 . S
C497 O499 1.282 . S
O498 Cd490 2.277 . S
O498 C491 1.226 . S
O499 Cd490 2.356 . S
O499 C497 1.282 . S
C500 O501 1.306 . S
C500 O503 1.160 . S
O501 C500 1.306 . S
O501 Cd502 2.228 . S
Cd502 O501 2.228 . S
Cd502 O506 2.273 1_554 S
Cd502 O510 2.277 . S
O503 C500 1.160 . S
O503 Cd504 2.203 . S
Cd504 O503 2.203 . S
Cd504 O506 2.411 1_554 S
Cd504 O507 2.333 . S
Cd504 O508 2.352 . S
Cd504 O512 2.277 . S
Cd504 O513 2.356 . S
C505 O510 1.209 . S
C505 O512 1.226 . S
O506 Cd502 2.273 1_556 S
O506 Cd504 2.411 1_556 S
O506 C509 1.320 . S
O507 Cd504 2.333 . S
O507 C509 1.214 1_554 S
O508 Cd504 2.352 . S
O508 C511 1.258 . S
C509 O506 1.320 . S
C509 O507 1.214 1_556 S
O510 Cd502 2.277 . S
O510 C505 1.209 . S
C511 O508 1.258 . S
C511 O513 1.282 . S
O512 Cd504 2.277 . S
O512 C505 1.226 . S
O513 Cd504 2.356 . S
O513 C511 1.282 . S
C514 O515 1.306 . S
C514 O517 1.160 . S
O515 C514 1.306 . S
O515 Cd516 2.228 . S
Cd516 O515 2.228 . S
Cd516 O520 2.273 . S
Cd516 O524 2.277 . S
O517 C514 1.160 . S
O517 Cd518 2.203 . S
Cd518 O517 2.203 . S
Cd518 O520 2.411 . S
Cd518 O521 2.333 . S
Cd518 O522 2.352 . S
Cd518 O526 2.277 . S
Cd518 O527 2.356 . S
C519 O524 1.209 . S
C519 O526 1.226 . S
O520 Cd516 2.273 . S
O520 Cd518 2.411 . S
O520 C523 1.320 . S
O521 Cd518 2.333 . S
O521 C523 1.214 . S
O522 Cd518 2.352 . S
O522 C525 1.258 . S
C523 O520 1.320 . S
C523 O521 1.214 . S
O524 Cd516 2.277 . S
O524 C519 1.209 . S
C525 O522 1.258 . S
C525 O527 1.282 . S
O526 Cd518 2.277 . S
O526 C519 1.226 . S
O527 Cd518 2.356 . S
O527 C525 1.282 . S
C514 C51 2.164 . S
C125 C455 1.699 . S
C217 C458 3.466 . S
C291 C472 1.918 . S
C497 C347 1.708 . S
C421 C500 1.284 . S
C143 C469 2.850 . S
C199 C483 1.884 . S
C273 C486 0.771 . S
C511 C365 2.174 . S
C525 C439 2.235 . S
C444 C69 3.463 . S
C63 C467 2.160 . S
C137 C481 2.228 . S
C491 C187 2.100 . S
C261 C509 2.025 . S
C523 C359 2.650 1_565 S
C449 C433 1.738 . S
C519 C113 2.407 . S
C211 C453 1.893 . S
C463 C285 2.517 . S
C335 C477 2.248 . S
C409 C495 1.944 1_554 S
C39 C505 2.072 . S
